# Generated by pormake.
# Topology tbo, (3,4)-cn, num edge types: 1
# Building blocks:
#     Node 0, Type 0, BuildingBlock: WUSLED_clean_sbu_0, # of connection points: 3
#     Node 1, Type 0, BuildingBlock: WUSLED_clean_sbu_0, # of connection points: 3
#     Node 2, Type 0, BuildingBlock: WUSLED_clean_sbu_0, # of connection points: 3
#     Node 3, Type 0, BuildingBlock: WUSLED_clean_sbu_0, # of connection points: 3
#     Node 4, Type 0, BuildingBlock: WUSLED_clean_sbu_0, # of connection points: 3
#     Node 5, Type 0, BuildingBlock: WUSLED_clean_sbu_0, # of connection points: 3
#     Node 6, Type 0, BuildingBlock: WUSLED_clean_sbu_0, # of connection points: 3
#     Node 7, Type 0, BuildingBlock: WUSLED_clean_sbu_0, # of connection points: 3
#     Node 8, Type 0, BuildingBlock: WUSLED_clean_sbu_0, # of connection points: 3
#     Node 9, Type 0, BuildingBlock: WUSLED_clean_sbu_0, # of connection points: 3
#     Node 10, Type 0, BuildingBlock: WUSLED_clean_sbu_0, # of connection points: 3
#     Node 11, Type 0, BuildingBlock: WUSLED_clean_sbu_0, # of connection points: 3
#     Node 12, Type 0, BuildingBlock: WUSLED_clean_sbu_0, # of connection points: 3
#     Node 13, Type 0, BuildingBlock: WUSLED_clean_sbu_0, # of connection points: 3
#     Node 14, Type 0, BuildingBlock: WUSLED_clean_sbu_0, # of connection points: 3
#     Node 15, Type 0, BuildingBlock: WUSLED_clean_sbu_0, # of connection points: 3
#     Node 16, Type 0, BuildingBlock: WUSLED_clean_sbu_0, # of connection points: 3
#     Node 17, Type 0, BuildingBlock: WUSLED_clean_sbu_0, # of connection points: 3
#     Node 18, Type 0, BuildingBlock: WUSLED_clean_sbu_0, # of connection points: 3
#     Node 19, Type 0, BuildingBlock: WUSLED_clean_sbu_0, # of connection points: 3
#     Node 20, Type 0, BuildingBlock: WUSLED_clean_sbu_0, # of connection points: 3
#     Node 21, Type 0, BuildingBlock: WUSLED_clean_sbu_0, # of connection points: 3
#     Node 22, Type 0, BuildingBlock: WUSLED_clean_sbu_0, # of connection points: 3
#     Node 23, Type 0, BuildingBlock: WUSLED_clean_sbu_0, # of connection points: 3
#     Node 24, Type 0, BuildingBlock: WUSLED_clean_sbu_0, # of connection points: 3
#     Node 25, Type 0, BuildingBlock: WUSLED_clean_sbu_0, # of connection points: 3
#     Node 26, Type 0, BuildingBlock: WUSLED_clean_sbu_0, # of connection points: 3
#     Node 27, Type 0, BuildingBlock: WUSLED_clean_sbu_0, # of connection points: 3
#     Node 28, Type 0, BuildingBlock: WUSLED_clean_sbu_0, # of connection points: 3
#     Node 29, Type 0, BuildingBlock: WUSLED_clean_sbu_0, # of connection points: 3
#     Node 30, Type 0, BuildingBlock: WUSLED_clean_sbu_0, # of connection points: 3
#     Node 31, Type 0, BuildingBlock: WUSLED_clean_sbu_0, # of connection points: 3
#     Node 32, Type 1, BuildingBlock: GIZVER_clean_linker_0, # of connection points: 4
#     Node 33, Type 1, BuildingBlock: GIZVER_clean_linker_0, # of connection points: 4
#     Node 34, Type 1, BuildingBlock: GIZVER_clean_linker_0, # of connection points: 4
#     Node 35, Type 1, BuildingBlock: GIZVER_clean_linker_0, # of connection points: 4
#     Node 36, Type 1, BuildingBlock: GIZVER_clean_linker_0, # of connection points: 4
#     Node 37, Type 1, BuildingBlock: GIZVER_clean_linker_0, # of connection points: 4
#     Node 38, Type 1, BuildingBlock: GIZVER_clean_linker_0, # of connection points: 4
#     Node 39, Type 1, BuildingBlock: GIZVER_clean_linker_0, # of connection points: 4
#     Node 40, Type 1, BuildingBlock: GIZVER_clean_linker_0, # of connection points: 4
#     Node 41, Type 1, BuildingBlock: GIZVER_clean_linker_0, # of connection points: 4
#     Node 42, Type 1, BuildingBlock: GIZVER_clean_linker_0, # of connection points: 4
#     Node 43, Type 1, BuildingBlock: GIZVER_clean_linker_0, # of connection points: 4
#     Node 44, Type 1, BuildingBlock: GIZVER_clean_linker_0, # of connection points: 4
#     Node 45, Type 1, BuildingBlock: GIZVER_clean_linker_0, # of connection points: 4
#     Node 46, Type 1, BuildingBlock: GIZVER_clean_linker_0, # of connection points: 4
#     Node 47, Type 1, BuildingBlock: GIZVER_clean_linker_0, # of connection points: 4
#     Node 48, Type 1, BuildingBlock: GIZVER_clean_linker_0, # of connection points: 4
#     Node 49, Type 1, BuildingBlock: GIZVER_clean_linker_0, # of connection points: 4
#     Node 50, Type 1, BuildingBlock: GIZVER_clean_linker_0, # of connection points: 4
#     Node 51, Type 1, BuildingBlock: GIZVER_clean_linker_0, # of connection points: 4
#     Node 52, Type 1, BuildingBlock: GIZVER_clean_linker_0, # of connection points: 4
#     Node 53, Type 1, BuildingBlock: GIZVER_clean_linker_0, # of connection points: 4
#     Node 54, Type 1, BuildingBlock: GIZVER_clean_linker_0, # of connection points: 4
#     Node 55, Type 1, BuildingBlock: GIZVER_clean_linker_0, # of connection points: 4
#     Edge 56, Type (0, 1), BuildingBlock: MIFKUJ_clean_linker_0, # of connection points: 2
#     Edge 57, Type (0, 1), BuildingBlock: MIFKUJ_clean_linker_0, # of connection points: 2
#     Edge 58, Type (0, 1), BuildingBlock: MIFKUJ_clean_linker_0, # of connection points: 2
#     Edge 59, Type (0, 1), BuildingBlock: MIFKUJ_clean_linker_0, # of connection points: 2
#     Edge 60, Type (0, 1), BuildingBlock: MIFKUJ_clean_linker_0, # of connection points: 2
#     Edge 61, Type (0, 1), BuildingBlock: MIFKUJ_clean_linker_0, # of connection points: 2
#     Edge 62, Type (0, 1), BuildingBlock: MIFKUJ_clean_linker_0, # of connection points: 2
#     Edge 63, Type (0, 1), BuildingBlock: MIFKUJ_clean_linker_0, # of connection points: 2
#     Edge 64, Type (0, 1), BuildingBlock: MIFKUJ_clean_linker_0, # of connection points: 2
#     Edge 65, Type (0, 1), BuildingBlock: MIFKUJ_clean_linker_0, # of connection points: 2
#     Edge 66, Type (0, 1), BuildingBlock: MIFKUJ_clean_linker_0, # of connection points: 2
#     Edge 67, Type (0, 1), BuildingBlock: MIFKUJ_clean_linker_0, # of connection points: 2
#     Edge 68, Type (0, 1), BuildingBlock: MIFKUJ_clean_linker_0, # of connection points: 2
#     Edge 69, Type (0, 1), BuildingBlock: MIFKUJ_clean_linker_0, # of connection points: 2
#     Edge 70, Type (0, 1), BuildingBlock: MIFKUJ_clean_linker_0, # of connection points: 2
#     Edge 71, Type (0, 1), BuildingBlock: MIFKUJ_clean_linker_0, # of connection points: 2
#     Edge 72, Type (0, 1), BuildingBlock: MIFKUJ_clean_linker_0, # of connection points: 2
#     Edge 73, Type (0, 1), BuildingBlock: MIFKUJ_clean_linker_0, # of connection points: 2
#     Edge 74, Type (0, 1), BuildingBlock: MIFKUJ_clean_linker_0, # of connection points: 2
#     Edge 75, Type (0, 1), BuildingBlock: MIFKUJ_clean_linker_0, # of connection points: 2
#     Edge 76, Type (0, 1), BuildingBlock: MIFKUJ_clean_linker_0, # of connection points: 2
#     Edge 77, Type (0, 1), BuildingBlock: MIFKUJ_clean_linker_0, # of connection points: 2
#     Edge 78, Type (0, 1), BuildingBlock: MIFKUJ_clean_linker_0, # of connection points: 2
#     Edge 79, Type (0, 1), BuildingBlock: MIFKUJ_clean_linker_0, # of connection points: 2
#     Edge 80, Type (0, 1), BuildingBlock: MIFKUJ_clean_linker_0, # of connection points: 2
#     Edge 81, Type (0, 1), BuildingBlock: MIFKUJ_clean_linker_0, # of connection points: 2
#     Edge 82, Type (0, 1), BuildingBlock: MIFKUJ_clean_linker_0, # of connection points: 2
#     Edge 83, Type (0, 1), BuildingBlock: MIFKUJ_clean_linker_0, # of connection points: 2
#     Edge 84, Type (0, 1), BuildingBlock: MIFKUJ_clean_linker_0, # of connection points: 2
#     Edge 85, Type (0, 1), BuildingBlock: MIFKUJ_clean_linker_0, # of connection points: 2
#     Edge 86, Type (0, 1), BuildingBlock: MIFKUJ_clean_linker_0, # of connection points: 2
#     Edge 87, Type (0, 1), BuildingBlock: MIFKUJ_clean_linker_0, # of connection points: 2
#     Edge 88, Type (0, 1), BuildingBlock: MIFKUJ_clean_linker_0, # of connection points: 2
#     Edge 89, Type (0, 1), BuildingBlock: MIFKUJ_clean_linker_0, # of connection points: 2
#     Edge 90, Type (0, 1), BuildingBlock: MIFKUJ_clean_linker_0, # of connection points: 2
#     Edge 91, Type (0, 1), BuildingBlock: MIFKUJ_clean_linker_0, # of connection points: 2
#     Edge 92, Type (0, 1), BuildingBlock: MIFKUJ_clean_linker_0, # of connection points: 2
#     Edge 93, Type (0, 1), BuildingBlock: MIFKUJ_clean_linker_0, # of connection points: 2
#     Edge 94, Type (0, 1), BuildingBlock: MIFKUJ_clean_linker_0, # of connection points: 2
#     Edge 95, Type (0, 1), BuildingBlock: MIFKUJ_clean_linker_0, # of connection points: 2
#     Edge 96, Type (0, 1), BuildingBlock: MIFKUJ_clean_linker_0, # of connection points: 2
#     Edge 97, Type (0, 1), BuildingBlock: MIFKUJ_clean_linker_0, # of connection points: 2
#     Edge 98, Type (0, 1), BuildingBlock: MIFKUJ_clean_linker_0, # of connection points: 2
#     Edge 99, Type (0, 1), BuildingBlock: MIFKUJ_clean_linker_0, # of connection points: 2
#     Edge 100, Type (0, 1), BuildingBlock: MIFKUJ_clean_linker_0, # of connection points: 2
#     Edge 101, Type (0, 1), BuildingBlock: MIFKUJ_clean_linker_0, # of connection points: 2
#     Edge 102, Type (0, 1), BuildingBlock: MIFKUJ_clean_linker_0, # of connection points: 2
#     Edge 103, Type (0, 1), BuildingBlock: MIFKUJ_clean_linker_0, # of connection points: 2
#     Edge 104, Type (0, 1), BuildingBlock: MIFKUJ_clean_linker_0, # of connection points: 2
#     Edge 105, Type (0, 1), BuildingBlock: MIFKUJ_clean_linker_0, # of connection points: 2
#     Edge 106, Type (0, 1), BuildingBlock: MIFKUJ_clean_linker_0, # of connection points: 2
#     Edge 107, Type (0, 1), BuildingBlock: MIFKUJ_clean_linker_0, # of connection points: 2
#     Edge 108, Type (0, 1), BuildingBlock: MIFKUJ_clean_linker_0, # of connection points: 2
#     Edge 109, Type (0, 1), BuildingBlock: MIFKUJ_clean_linker_0, # of connection points: 2
#     Edge 110, Type (0, 1), BuildingBlock: MIFKUJ_clean_linker_0, # of connection points: 2
#     Edge 111, Type (0, 1), BuildingBlock: MIFKUJ_clean_linker_0, # of connection points: 2
#     Edge 112, Type (0, 1), BuildingBlock: MIFKUJ_clean_linker_0, # of connection points: 2
#     Edge 113, Type (0, 1), BuildingBlock: MIFKUJ_clean_linker_0, # of connection points: 2
#     Edge 114, Type (0, 1), BuildingBlock: MIFKUJ_clean_linker_0, # of connection points: 2
#     Edge 115, Type (0, 1), BuildingBlock: MIFKUJ_clean_linker_0, # of connection points: 2
#     Edge 116, Type (0, 1), BuildingBlock: MIFKUJ_clean_linker_0, # of connection points: 2
#     Edge 117, Type (0, 1), BuildingBlock: MIFKUJ_clean_linker_0, # of connection points: 2
#     Edge 118, Type (0, 1), BuildingBlock: MIFKUJ_clean_linker_0, # of connection points: 2
#     Edge 119, Type (0, 1), BuildingBlock: MIFKUJ_clean_linker_0, # of connection points: 2
#     Edge 120, Type (0, 1), BuildingBlock: MIFKUJ_clean_linker_0, # of connection points: 2
#     Edge 121, Type (0, 1), BuildingBlock: MIFKUJ_clean_linker_0, # of connection points: 2
#     Edge 122, Type (0, 1), BuildingBlock: MIFKUJ_clean_linker_0, # of connection points: 2
#     Edge 123, Type (0, 1), BuildingBlock: MIFKUJ_clean_linker_0, # of connection points: 2
#     Edge 124, Type (0, 1), BuildingBlock: MIFKUJ_clean_linker_0, # of connection points: 2
#     Edge 125, Type (0, 1), BuildingBlock: MIFKUJ_clean_linker_0, # of connection points: 2
#     Edge 126, Type (0, 1), BuildingBlock: MIFKUJ_clean_linker_0, # of connection points: 2
#     Edge 127, Type (0, 1), BuildingBlock: MIFKUJ_clean_linker_0, # of connection points: 2
#     Edge 128, Type (0, 1), BuildingBlock: MIFKUJ_clean_linker_0, # of connection points: 2
#     Edge 129, Type (0, 1), BuildingBlock: MIFKUJ_clean_linker_0, # of connection points: 2
#     Edge 130, Type (0, 1), BuildingBlock: MIFKUJ_clean_linker_0, # of connection points: 2
#     Edge 131, Type (0, 1), BuildingBlock: MIFKUJ_clean_linker_0, # of connection points: 2
#     Edge 132, Type (0, 1), BuildingBlock: MIFKUJ_clean_linker_0, # of connection points: 2
#     Edge 133, Type (0, 1), BuildingBlock: MIFKUJ_clean_linker_0, # of connection points: 2
#     Edge 134, Type (0, 1), BuildingBlock: MIFKUJ_clean_linker_0, # of connection points: 2
#     Edge 135, Type (0, 1), BuildingBlock: MIFKUJ_clean_linker_0, # of connection points: 2
#     Edge 136, Type (0, 1), BuildingBlock: MIFKUJ_clean_linker_0, # of connection points: 2
#     Edge 137, Type (0, 1), BuildingBlock: MIFKUJ_clean_linker_0, # of connection points: 2
#     Edge 138, Type (0, 1), BuildingBlock: MIFKUJ_clean_linker_0, # of connection points: 2
#     Edge 139, Type (0, 1), BuildingBlock: MIFKUJ_clean_linker_0, # of connection points: 2
#     Edge 140, Type (0, 1), BuildingBlock: MIFKUJ_clean_linker_0, # of connection points: 2
#     Edge 141, Type (0, 1), BuildingBlock: MIFKUJ_clean_linker_0, # of connection points: 2
#     Edge 142, Type (0, 1), BuildingBlock: MIFKUJ_clean_linker_0, # of connection points: 2
#     Edge 143, Type (0, 1), BuildingBlock: MIFKUJ_clean_linker_0, # of connection points: 2
#     Edge 144, Type (0, 1), BuildingBlock: MIFKUJ_clean_linker_0, # of connection points: 2
#     Edge 145, Type (0, 1), BuildingBlock: MIFKUJ_clean_linker_0, # of connection points: 2
#     Edge 146, Type (0, 1), BuildingBlock: MIFKUJ_clean_linker_0, # of connection points: 2
#     Edge 147, Type (0, 1), BuildingBlock: MIFKUJ_clean_linker_0, # of connection points: 2
#     Edge 148, Type (0, 1), BuildingBlock: MIFKUJ_clean_linker_0, # of connection points: 2
#     Edge 149, Type (0, 1), BuildingBlock: MIFKUJ_clean_linker_0, # of connection points: 2
#     Edge 150, Type (0, 1), BuildingBlock: MIFKUJ_clean_linker_0, # of connection points: 2
#     Edge 151, Type (0, 1), BuildingBlock: MIFKUJ_clean_linker_0, # of connection points: 2
# Relax obj value: 0.000
# Max RMSD: 0.035
# Mean RMSD: 0.017
data_MOF--net-tbo--node1-WUSLED_clean_sbu_0--node2-GIZVER_clean_linker_0--edge1-MIFKUJ_clean_linker_0
_symmetry_space_group_name_H-M    P1
_symmetry_Int_Tables_number       1
_symmetry_cell_setting            triclinic
loop_
_symmetry_equiv_pos_as_xyz
'x, y, z'
_cell_length_a     117.39297
_cell_length_b     117.80526
_cell_length_c     117.63456
_cell_angle_alpha  89.634685
_cell_angle_beta   90.446092
_cell_angle_gamma 90.959162
loop_
_atom_site_label
_atom_site_type_symbol
_atom_site_fract_x
_atom_site_fract_y
_atom_site_fract_z
_atom_type_partial_charge
C0 C 0.17513 0.14311 0.19267 0.0
C1 C 0.18391 0.13883 0.18598 0.0
C2 C 0.18724 0.12376 0.19995 0.0
C3 C 0.18993 0.12923 0.18959 0.0
C4 C 0.17847 0.12819 0.20661 0.0
C5 C 0.17249 0.13774 0.20299 0.0
U6 U 0.1686 0.1684 0.1727 0.0
O7 O 0.15196 0.17481 0.16708 0.0
O8 O 0.16341 0.18569 0.17722 0.0
C9 C 0.15318 0.18436 0.17274 0.0
C10 C 0.16858 0.15312 0.18913 0.0
C11 C 0.14345 0.18792 0.17984 0.0
C12 C 0.12382 0.18557 0.18628 0.0
C13 C 0.13313 0.18166 0.18011 0.0
C14 C 0.13495 0.20201 0.19213 0.0
C15 C 0.1246 0.19582 0.19234 0.0
C16 C 0.14423 0.19814 0.18592 0.0
C17 C 0.18748 0.17375 0.14621 0.0
C18 C 0.18845 0.19085 0.13449 0.0
C19 C 0.19839 0.17401 0.12872 0.0
C20 C 0.19438 0.16826 0.13836 0.0
C21 C 0.1956 0.18543 0.12671 0.0
C22 C 0.18443 0.18506 0.14417 0.0
C23 C 0.18399 0.16755 0.1566 0.0
O24 O 0.17395 0.16297 0.18985 0.0
O25 O 0.16251 0.15206 0.17975 0.0
O26 O 0.17418 0.16203 0.1561 0.0
O27 O 0.18565 0.17287 0.16628 0.0
H28 H 0.18608 0.14287 0.17796 0.0
H29 H 0.19656 0.12602 0.18421 0.0
H30 H 0.17629 0.12436 0.21472 0.0
H31 H 0.16579 0.14096 0.2083 0.0
H32 H 0.11602 0.18053 0.18635 0.0
H33 H 0.13217 0.17378 0.17548 0.0
H34 H 0.13581 0.21002 0.19655 0.0
H35 H 0.15199 0.20324 0.18574 0.0
H36 H 0.1862 0.19965 0.13326 0.0
H37 H 0.20369 0.16949 0.12284 0.0
H38 H 0.19679 0.15952 0.13976 0.0
H39 H 0.1791 0.18945 0.15013 0.0
C40 C 0.82602 0.17562 0.14671 0.0
C41 C 0.83227 0.18487 0.14228 0.0
C42 C 0.81759 0.18789 0.12781 0.0
C43 C 0.8281 0.19095 0.13288 0.0
C44 C 0.81142 0.17857 0.1323 0.0
C45 C 0.8156 0.17251 0.14165 0.0
U46 U 0.84725 0.17011 0.17111 0.0
O47 O 0.84399 0.16455 0.18868 0.0
O48 O 0.85392 0.15382 0.17738 0.0
C49 C 0.84878 0.15465 0.18722 0.0
C50 C 0.83013 0.1691 0.15659 0.0
C51 C 0.84223 0.14448 0.19103 0.0
C52 C 0.82466 0.13527 0.19746 0.0
C53 C 0.83051 0.14489 0.19334 0.0
C54 C 0.84207 0.12458 0.19679 0.0
C55 C 0.83038 0.12499 0.19931 0.0
C56 C 0.84792 0.13422 0.19275 0.0
C57 C 0.87303 0.19029 0.17544 0.0
C58 C 0.8861 0.1894 0.19155 0.0
C59 C 0.88948 0.20304 0.17641 0.0
C60 C 0.87971 0.19906 0.17074 0.0
C61 C 0.89277 0.19833 0.18693 0.0
C62 C 0.8763 0.18542 0.18585 0.0
C63 C 0.86261 0.18653 0.16941 0.0
O64 O 0.83972 0.16369 0.15517 0.0
O65 O 0.82959 0.17423 0.16646 0.0
O66 O 0.85306 0.18751 0.17505 0.0
O67 O 0.86326 0.17688 0.16391 0.0
H68 H 0.84034 0.18741 0.14611 0.0
H69 H 0.83301 0.19814 0.12971 0.0
H70 H 0.8034 0.17586 0.12851 0.0
H71 H 0.81068 0.16537 0.14493 0.0
H72 H 0.81571 0.13598 0.19942 0.0
H73 H 0.82586 0.15268 0.1921 0.0
H74 H 0.84673 0.1168 0.1979 0.0
H75 H 0.85694 0.13368 0.19102 0.0
H76 H 0.88832 0.18565 0.19968 0.0
H77 H 0.89449 0.20979 0.1725 0.0
H78 H 0.87733 0.20289 0.16268 0.0
H79 H 0.87123 0.17863 0.18961 0.0
C80 C 0.82476 0.83973 0.14859 0.0
C81 C 0.83215 0.83264 0.14268 0.0
C82 C 0.81671 0.82706 0.12971 0.0
C83 C 0.82816 0.82639 0.13329 0.0
C84 C 0.80939 0.83419 0.1357 0.0
C85 C 0.81338 0.84044 0.14502 0.0
U86 U 0.84503 0.84646 0.17381 0.0
O87 O 0.85138 0.86314 0.1798 0.0
O88 O 0.84087 0.85236 0.19096 0.0
C89 C 0.84576 0.86237 0.1894 0.0
C90 C 0.82866 0.84655 0.15841 0.0
C91 C 0.83915 0.87246 0.19271 0.0
C92 C 0.82196 0.88105 0.20008 0.0
C93 C 0.82772 0.87152 0.19618 0.0
C94 C 0.8388 0.89271 0.19688 0.0
C95 C 0.82745 0.89175 0.20057 0.0
C96 C 0.84459 0.88317 0.19306 0.0
C97 C 0.87041 0.82664 0.17998 0.0
C98 C 0.88556 0.8298 0.19393 0.0
C99 C 0.88443 0.81208 0.18364 0.0
C100 C 0.87476 0.81587 0.17785 0.0
C101 C 0.89002 0.819 0.19172 0.0
C102 C 0.87584 0.83359 0.18811 0.0
C103 C 0.86029 0.83035 0.17354 0.0
O104 O 0.82757 0.84171 0.16844 0.0
O105 O 0.83836 0.85215 0.15723 0.0
O106 O 0.86136 0.83991 0.16779 0.0
O107 O 0.85049 0.82932 0.17879 0.0
H108 H 0.84097 0.83193 0.14533 0.0
H109 H 0.834 0.8209 0.12895 0.0
H110 H 0.80057 0.83505 0.1331 0.0
H111 H 0.80756 0.8459 0.14944 0.0
H112 H 0.81318 0.88003 0.20272 0.0
H113 H 0.82325 0.86341 0.19602 0.0
H114 H 0.84333 0.90079 0.19725 0.0
H115 H 0.85341 0.88414 0.19055 0.0
H116 H 0.88968 0.83539 0.20003 0.0
H117 H 0.88745 0.80364 0.18186 0.0
H118 H 0.87065 0.81035 0.17166 0.0
H119 H 0.8726 0.84195 0.18988 0.0
C120 C 0.14349 0.82526 0.17744 0.0
C121 C 0.13973 0.83178 0.18658 0.0
C122 C 0.12431 0.81806 0.19018 0.0
C123 C 0.13022 0.82821 0.19289 0.0
C124 C 0.1282 0.81157 0.18102 0.0
C125 C 0.13768 0.81514 0.17473 0.0
U126 U 0.16918 0.84495 0.17161 0.0
O127 O 0.18639 0.84076 0.16583 0.0
O128 O 0.17562 0.85178 0.15537 0.0
C129 C 0.18521 0.84621 0.15612 0.0
C130 C 0.15346 0.82882 0.17067 0.0
C131 C 0.18854 0.83996 0.14589 0.0
C132 C 0.18617 0.8242 0.13276 0.0
C133 C 0.18272 0.83004 0.14247 0.0
C134 C 0.20122 0.83819 0.12978 0.0
C135 C 0.19548 0.82821 0.12628 0.0
C136 C 0.19778 0.84399 0.13948 0.0
C137 C 0.17551 0.86966 0.19229 0.0
C138 C 0.18913 0.88519 0.18931 0.0
C139 C 0.18028 0.88258 0.20769 0.0
C140 C 0.17419 0.87317 0.20355 0.0
C141 C 0.18785 0.88872 0.20064 0.0
C142 C 0.18303 0.87571 0.18517 0.0
C143 C 0.16885 0.85974 0.18825 0.0
O144 O 0.1526 0.83857 0.16528 0.0
O145 O 0.16342 0.82751 0.17563 0.0
O146 O 0.17391 0.8499 0.18907 0.0
O147 O 0.16322 0.86105 0.17864 0.0
H148 H 0.14412 0.83963 0.1888 0.0
H149 H 0.12741 0.83348 0.1998 0.0
H150 H 0.12402 0.80362 0.17879 0.0
H151 H 0.14051 0.80997 0.16774 0.0
H152 H 0.18148 0.81662 0.13026 0.0
H153 H 0.17554 0.82681 0.14732 0.0
H154 H 0.20852 0.84144 0.12514 0.0
H155 H 0.2024 0.85162 0.14201 0.0
H156 H 0.19495 0.88966 0.18369 0.0
H157 H 0.17894 0.88514 0.2164 0.0
H158 H 0.16839 0.86863 0.20916 0.0
H159 H 0.18419 0.8731 0.17645 0.0
C160 C 0.14263 0.82862 0.84479 0.0
C161 C 0.13845 0.83521 0.83575 0.0
C162 C 0.1234 0.8211 0.83215 0.0
C163 C 0.12889 0.8315 0.82949 0.0
C164 C 0.12761 0.81461 0.8413 0.0
C165 C 0.13712 0.81833 0.84754 0.0
U166 U 0.16808 0.84873 0.85055 0.0
O167 O 0.17525 0.85479 0.86679 0.0
O168 O 0.1857 0.8446 0.85546 0.0
C169 C 0.18485 0.84936 0.86548 0.0
C170 C 0.15281 0.83217 0.85134 0.0
C171 C 0.189 0.84264 0.87531 0.0
C172 C 0.18627 0.83374 0.89387 0.0
C173 C 0.18187 0.83953 0.8844 0.0
C174 C 0.20489 0.83384 0.8852 0.0
C175 C 0.19787 0.83091 0.89445 0.0
C176 C 0.20051 0.83966 0.87578 0.0
C177 C 0.17321 0.87472 0.83129 0.0
C178 C 0.19019 0.8868 0.83233 0.0
C179 C 0.17475 0.89172 0.81953 0.0
C180 C 0.16861 0.88208 0.82312 0.0
C181 C 0.18564 0.89419 0.82405 0.0
C182 C 0.18402 0.87717 0.83593 0.0
C183 C 0.16667 0.8645 0.83471 0.0
O184 O 0.16255 0.83141 0.84598 0.0
O185 O 0.15195 0.84162 0.85713 0.0
O186 O 0.16142 0.86509 0.84451 0.0
O187 O 0.17178 0.85479 0.83323 0.0
H188 H 0.14263 0.84317 0.83349 0.0
H189 H 0.12595 0.83665 0.82244 0.0
H190 H 0.12351 0.80665 0.84369 0.0
H191 H 0.14022 0.81315 0.85451 0.0
H192 H 0.18061 0.83172 0.90086 0.0
H193 H 0.17294 0.8417 0.88429 0.0
H194 H 0.2138 0.83161 0.8852 0.0
H195 H 0.20618 0.84195 0.86887 0.0
H196 H 0.19849 0.88852 0.83609 0.0
H197 H 0.17105 0.89711 0.81304 0.0
H198 H 0.16029 0.88031 0.81942 0.0
H199 H 0.18768 0.8716 0.8423 0.0
C200 C 0.14303 0.17438 0.83027 0.0
C201 C 0.14072 0.18478 0.83546 0.0
C202 C 0.12357 0.1868 0.82375 0.0
C203 C 0.13109 0.19095 0.83221 0.0
C204 C 0.1259 0.1763 0.81869 0.0
C205 C 0.13553 0.17018 0.82192 0.0
U206 U 0.16908 0.16794 0.84924 0.0
O207 O 0.17596 0.15143 0.85446 0.0
O208 O 0.18642 0.16318 0.84426 0.0
C209 C 0.18553 0.15304 0.84891 0.0
C210 C 0.15325 0.16785 0.83327 0.0
C211 C 0.18936 0.14348 0.84194 0.0
C212 C 0.18596 0.12871 0.82785 0.0
C213 C 0.1821 0.13801 0.83408 0.0
C214 C 0.20436 0.13037 0.83719 0.0
C215 C 0.19715 0.12477 0.82934 0.0
C216 C 0.2005 0.13961 0.8434 0.0
C217 C 0.17515 0.18614 0.87604 0.0
C218 C 0.19252 0.1931 0.88535 0.0
C219 C 0.17523 0.19067 0.89622 0.0
C220 C 0.16949 0.18683 0.88647 0.0
C221 C 0.18679 0.19402 0.89578 0.0
C222 C 0.18677 0.1892 0.8756 0.0
C223 C 0.16854 0.18292 0.86571 0.0
O224 O 0.16306 0.17332 0.83232 0.0
O225 O 0.15258 0.16162 0.84256 0.0
O226 O 0.16301 0.17313 0.8661 0.0
O227 O 0.17335 0.18494 0.85582 0.0
H228 H 0.14639 0.18815 0.84196 0.0
H229 H 0.1295 0.19893 0.83638 0.0
H230 H 0.12042 0.17291 0.81204 0.0
H231 H 0.13718 0.16218 0.8178 0.0
H232 H 0.18021 0.12468 0.82181 0.0
H233 H 0.17347 0.14089 0.8328 0.0
H234 H 0.21295 0.12749 0.83871 0.0
H235 H 0.20621 0.14369 0.84946 0.0
H236 H 0.20137 0.1957 0.88462 0.0
H237 H 0.17057 0.19105 0.90412 0.0
H238 H 0.16053 0.18454 0.88705 0.0
H239 H 0.19139 0.1888 0.86768 0.0
C240 C 0.82652 0.14614 0.84493 0.0
C241 C 0.83331 0.14117 0.8366 0.0
C242 C 0.81815 0.12733 0.83239 0.0
C243 C 0.82916 0.13182 0.8304 0.0
C244 C 0.81145 0.13237 0.84078 0.0
C245 C 0.8156 0.14166 0.84697 0.0
U246 U 0.84722 0.17117 0.85129 0.0
O247 O 0.84325 0.18834 0.85717 0.0
O248 O 0.85368 0.1772 0.86786 0.0
C249 C 0.84835 0.1869 0.86705 0.0
C250 C 0.83058 0.15594 0.85165 0.0
C251 C 0.84177 0.1902 0.87709 0.0
C252 C 0.82535 0.18805 0.88946 0.0
C253 C 0.83158 0.18456 0.88002 0.0
C254 C 0.83949 0.20279 0.89318 0.0
C255 C 0.82922 0.19724 0.89616 0.0
C256 C 0.84568 0.1993 0.88374 0.0
C257 C 0.87289 0.17768 0.83169 0.0
C258 C 0.89324 0.18205 0.83318 0.0
C259 C 0.882 0.19081 0.81832 0.0
C260 C 0.87228 0.18502 0.82224 0.0
C261 C 0.89263 0.18934 0.82368 0.0
C262 C 0.8835 0.17629 0.83713 0.0
C263 C 0.86264 0.17099 0.8352 0.0
O264 O 0.84027 0.1547 0.85716 0.0
O265 O 0.82969 0.16593 0.84671 0.0
O266 O 0.85278 0.17603 0.83407 0.0
O267 O 0.86342 0.16496 0.84461 0.0
H268 H 0.84177 0.14454 0.83489 0.0
H269 H 0.83451 0.12821 0.82394 0.0
H270 H 0.80301 0.12904 0.84267 0.0
H271 H 0.81025 0.14535 0.85339 0.0
H272 H 0.81755 0.1835 0.89157 0.0
H273 H 0.82843 0.17749 0.87498 0.0
H274 H 0.84265 0.21 0.898 0.0
H275 H 0.85351 0.2038 0.88158 0.0
H276 H 0.90127 0.1808 0.83757 0.0
H277 H 0.88123 0.19621 0.81087 0.0
H278 H 0.86429 0.18614 0.81772 0.0
H279 H 0.88434 0.17063 0.84437 0.0
C280 C 0.84236 0.87438 0.82876 0.0
C281 C 0.83144 0.87644 0.83299 0.0
C282 C 0.82994 0.8933 0.82087 0.0
C283 C 0.82528 0.88583 0.82908 0.0
C284 C 0.84097 0.89124 0.81684 0.0
C285 C 0.84709 0.88188 0.82073 0.0
U286 U 0.84872 0.84852 0.84817 0.0
O287 O 0.85429 0.8315 0.84331 0.0
O288 O 0.86543 0.84227 0.85391 0.0
C289 C 0.86441 0.83284 0.84805 0.0
C290 C 0.84892 0.86437 0.8323 0.0
C291 C 0.87443 0.82955 0.84124 0.0
C292 C 0.88268 0.82148 0.82419 0.0
C293 C 0.87325 0.82557 0.83003 0.0
C294 C 0.89473 0.82555 0.84049 0.0
C295 C 0.89352 0.82128 0.8294 0.0
C296 C 0.88529 0.82958 0.84635 0.0
C297 C 0.82961 0.84119 0.87402 0.0
C298 C 0.82099 0.82407 0.88226 0.0
C299 C 0.82589 0.83995 0.89438 0.0
C300 C 0.83 0.846 0.88492 0.0
C301 C 0.82117 0.82897 0.89314 0.0
C302 C 0.82516 0.83009 0.87282 0.0
C303 C 0.83301 0.84818 0.864 0.0
O304 O 0.85464 0.86526 0.84191 0.0
O305 O 0.84378 0.85445 0.83108 0.0
O306 O 0.83154 0.8436 0.85392 0.0
O307 O 0.84261 0.85404 0.86491 0.0
H308 H 0.82763 0.87073 0.83919 0.0
H309 H 0.81679 0.8871 0.83232 0.0
H310 H 0.84493 0.8969 0.81068 0.0
H311 H 0.85552 0.88046 0.8174 0.0
H312 H 0.88147 0.81839 0.81561 0.0
H313 H 0.86502 0.8254 0.82582 0.0
H314 H 0.90291 0.82541 0.84481 0.0
H315 H 0.88644 0.83247 0.85502 0.0
H316 H 0.81754 0.81558 0.88102 0.0
H317 H 0.82605 0.84404 0.90259 0.0
H318 H 0.83325 0.85458 0.88611 0.0
H319 H 0.82469 0.8261 0.86455 0.0
C320 C 0.17755 0.64357 0.69126 0.0
C321 C 0.18135 0.63565 0.68331 0.0
C322 C 0.1902 0.62453 0.69849 0.0
C323 C 0.18758 0.6262 0.6869 0.0
C324 C 0.18651 0.63258 0.70637 0.0
C325 C 0.18024 0.64197 0.7028 0.0
U326 U 0.1694 0.66882 0.67176 0.0
O327 O 0.1524 0.67458 0.66653 0.0
O328 O 0.16359 0.6858 0.67658 0.0
C329 C 0.15335 0.68413 0.67222 0.0
C330 C 0.17044 0.65332 0.68792 0.0
C331 C 0.14355 0.68735 0.67941 0.0
C332 C 0.12352 0.68538 0.68465 0.0
C333 C 0.13293 0.68166 0.67852 0.0
C334 C 0.1351 0.7005 0.69275 0.0
C335 C 0.12446 0.6949 0.69179 0.0
C336 C 0.14449 0.69681 0.6866 0.0
C337 C 0.1874 0.67566 0.64492 0.0
C338 C 0.1942 0.69299 0.63556 0.0
C339 C 0.19184 0.67573 0.62471 0.0
C340 C 0.18806 0.67 0.63448 0.0
C341 C 0.19514 0.68726 0.62514 0.0
C342 C 0.19038 0.68727 0.64533 0.0
C343 C 0.18446 0.66905 0.65531 0.0
O344 O 0.17529 0.66342 0.68877 0.0
O345 O 0.16415 0.65216 0.67869 0.0
O346 O 0.17497 0.66297 0.65493 0.0
O347 O 0.18617 0.67406 0.66515 0.0
H348 H 0.17945 0.63671 0.67435 0.0
H349 H 0.19041 0.62024 0.68058 0.0
H350 H 0.18823 0.6315 0.71537 0.0
H351 H 0.17735 0.64793 0.70909 0.0
H352 H 0.11549 0.68079 0.68378 0.0
H353 H 0.13182 0.67442 0.67298 0.0
H354 H 0.13611 0.70796 0.69801 0.0
H355 H 0.15247 0.70152 0.68732 0.0
H356 H 0.19678 0.70183 0.63627 0.0
H357 H 0.19225 0.67106 0.61683 0.0
H358 H 0.18586 0.66105 0.63392 0.0
H359 H 0.19001 0.69189 0.65325 0.0
C360 C 0.82755 0.67527 0.64426 0.0
C361 C 0.83246 0.68576 0.64113 0.0
C362 C 0.81929 0.68713 0.62501 0.0
C363 C 0.82837 0.69165 0.63158 0.0
C364 C 0.81453 0.67654 0.62818 0.0
C365 C 0.81861 0.67069 0.6377 0.0
U366 U 0.84843 0.6701 0.66911 0.0
O367 O 0.84484 0.66483 0.6867 0.0
O368 O 0.85484 0.65383 0.67574 0.0
C369 C 0.84954 0.65486 0.68547 0.0
C370 C 0.83152 0.66896 0.65435 0.0
C371 C 0.84281 0.64482 0.6893 0.0
C372 C 0.82494 0.63582 0.69514 0.0
C373 C 0.83099 0.64532 0.69104 0.0
C374 C 0.84233 0.62508 0.69556 0.0
C375 C 0.83053 0.62558 0.69752 0.0
C376 C 0.84839 0.6346 0.69154 0.0
C377 C 0.87442 0.68996 0.67353 0.0
C378 C 0.88758 0.6886 0.68954 0.0
C379 C 0.89082 0.70276 0.67484 0.0
C380 C 0.88103 0.69894 0.6691 0.0
C381 C 0.89423 0.69767 0.68515 0.0
C382 C 0.87777 0.68477 0.68376 0.0
C383 C 0.86403 0.68628 0.66739 0.0
O384 O 0.84108 0.66345 0.65316 0.0
O385 O 0.83091 0.67431 0.66409 0.0
O386 O 0.85441 0.68748 0.67286 0.0
O387 O 0.86462 0.67656 0.66203 0.0
H388 H 0.83939 0.68942 0.64611 0.0
H389 H 0.83217 0.69982 0.62946 0.0
H390 H 0.80767 0.67271 0.62323 0.0
H391 H 0.81476 0.66258 0.63997 0.0
H392 H 0.8159 0.6366 0.69666 0.0
H393 H 0.82643 0.65308 0.68938 0.0
H394 H 0.84692 0.61731 0.69708 0.0
H395 H 0.85748 0.634 0.69023 0.0
H396 H 0.89 0.68441 0.69739 0.0
H397 H 0.8956 0.70986 0.6713 0.0
H398 H 0.87855 0.70307 0.66123 0.0
H399 H 0.87277 0.6778 0.68729 0.0
C400 C 0.82926 0.34344 0.64683 0.0
C401 C 0.83369 0.33266 0.64472 0.0
C402 C 0.82208 0.33104 0.62744 0.0
C403 C 0.83011 0.32651 0.63513 0.0
C404 C 0.81778 0.3419 0.62958 0.0
C405 C 0.82134 0.34801 0.63917 0.0
U406 U 0.84867 0.34952 0.67273 0.0
O407 O 0.85468 0.36593 0.67956 0.0
O408 O 0.84399 0.35464 0.69004 0.0
C409 C 0.84908 0.36462 0.68913 0.0
C410 C 0.8326 0.34997 0.65702 0.0
C411 C 0.8425 0.37445 0.69292 0.0
C412 C 0.82873 0.38937 0.68958 0.0
C413 C 0.83458 0.37983 0.68578 0.0
C414 C 0.83856 0.38814 0.7077 0.0
C415 C 0.83071 0.39371 0.70058 0.0
C416 C 0.84439 0.37864 0.7039 0.0
C417 C 0.87457 0.3305 0.67859 0.0
C418 C 0.88606 0.33052 0.69592 0.0
C419 C 0.89196 0.31958 0.67969 0.0
C420 C 0.8824 0.32322 0.6736 0.0
C421 C 0.89391 0.32314 0.69095 0.0
C422 C 0.87649 0.33419 0.68978 0.0
C423 C 0.86443 0.33392 0.672 0.0
O424 O 0.83146 0.34465 0.66681 0.0
O425 O 0.84215 0.3559 0.6563 0.0
O426 O 0.86526 0.34368 0.66658 0.0
O427 O 0.85455 0.33237 0.67701 0.0
H428 H 0.83986 0.329 0.65051 0.0
H429 H 0.83369 0.31823 0.63369 0.0
H430 H 0.81148 0.34559 0.62397 0.0
H431 H 0.8178 0.3563 0.64067 0.0
H432 H 0.82281 0.39347 0.68383 0.0
H433 H 0.833 0.37671 0.67726 0.0
H434 H 0.84016 0.39107 0.71629 0.0
H435 H 0.85042 0.37458 0.70956 0.0
H436 H 0.88735 0.33353 0.70452 0.0
H437 H 0.89771 0.31378 0.67565 0.0
H438 H 0.88105 0.32025 0.66498 0.0
H439 H 0.87057 0.33985 0.69377 0.0
C440 C 0.14414 0.32808 0.67667 0.0
C441 C 0.13835 0.33554 0.68378 0.0
C442 C 0.12475 0.32045 0.68884 0.0
C443 C 0.12872 0.33176 0.68978 0.0
C444 C 0.13067 0.31302 0.68176 0.0
C445 C 0.14025 0.31681 0.67574 0.0
U446 U 0.16953 0.3483 0.67058 0.0
O447 O 0.1868 0.34432 0.6649 0.0
O448 O 0.17579 0.3548 0.6541 0.0
C449 C 0.18546 0.34938 0.65499 0.0
C450 C 0.15412 0.33184 0.67001 0.0
C451 C 0.18896 0.34296 0.64488 0.0
C452 C 0.19218 0.3252 0.63501 0.0
C453 C 0.18818 0.33106 0.64448 0.0
C454 C 0.1975 0.34307 0.6261 0.0
C455 C 0.197 0.33113 0.62572 0.0
C456 C 0.19355 0.3489 0.63557 0.0
C457 C 0.17575 0.37378 0.69043 0.0
C458 C 0.18321 0.39297 0.68723 0.0
C459 C 0.18562 0.38399 0.70562 0.0
C460 C 0.17991 0.37427 0.70164 0.0
C461 C 0.18725 0.39353 0.69852 0.0
C462 C 0.17753 0.3832 0.68322 0.0
C463 C 0.16914 0.3636 0.68674 0.0
O464 O 0.15309 0.34146 0.6644 0.0
O465 O 0.16408 0.33086 0.67508 0.0
O466 O 0.17426 0.35381 0.68788 0.0
O467 O 0.16325 0.36443 0.67722 0.0
H468 H 0.14125 0.34427 0.68465 0.0
H469 H 0.12445 0.33767 0.69526 0.0
H470 H 0.12779 0.30431 0.68071 0.0
H471 H 0.14459 0.31093 0.67027 0.0
H472 H 0.19174 0.31601 0.63509 0.0
H473 H 0.18464 0.32627 0.65155 0.0
H474 H 0.20093 0.34795 0.61905 0.0
H475 H 0.19419 0.35809 0.63568 0.0
H476 H 0.18419 0.40017 0.68153 0.0
H477 H 0.18879 0.38399 0.71429 0.0
H478 H 0.17864 0.36713 0.70738 0.0
H479 H 0.17441 0.38311 0.67453 0.0
C480 C 0.14397 0.32763 0.34447 0.0
C481 C 0.13863 0.33488 0.33664 0.0
C482 C 0.12416 0.32028 0.33262 0.0
C483 C 0.12881 0.33124 0.33076 0.0
C484 C 0.12965 0.31305 0.34042 0.0
C485 C 0.13944 0.3167 0.34628 0.0
U486 U 0.16936 0.34791 0.34991 0.0
O487 O 0.17648 0.3541 0.36613 0.0
O488 O 0.18699 0.34395 0.35485 0.0
C489 C 0.18615 0.34882 0.36482 0.0
C490 C 0.15422 0.33125 0.35086 0.0
C491 C 0.19003 0.34204 0.37463 0.0
C492 C 0.18757 0.32631 0.38794 0.0
C493 C 0.18367 0.33265 0.3786 0.0
C494 C 0.2042 0.33869 0.38938 0.0
C495 C 0.19791 0.32924 0.39342 0.0
C496 C 0.20029 0.34501 0.38008 0.0
C497 C 0.17421 0.37383 0.33049 0.0
C498 C 0.19084 0.38635 0.33185 0.0
C499 C 0.17587 0.39043 0.31821 0.0
C500 C 0.16981 0.38077 0.32186 0.0
C501 C 0.18649 0.39333 0.32312 0.0
C502 C 0.18475 0.37669 0.33551 0.0
C503 C 0.16777 0.36357 0.33399 0.0
O504 O 0.1639 0.33052 0.34541 0.0
O505 O 0.15336 0.3407 0.35665 0.0
O506 O 0.16255 0.36417 0.3438 0.0
O507 O 0.17297 0.3539 0.33254 0.0
H508 H 0.14203 0.34336 0.33512 0.0
H509 H 0.12476 0.33707 0.3249 0.0
H510 H 0.12647 0.30449 0.34191 0.0
H511 H 0.14348 0.31096 0.35224 0.0
H512 H 0.18258 0.31902 0.39075 0.0
H513 H 0.17573 0.33021 0.37447 0.0
H514 H 0.2121 0.34129 0.39348 0.0
H515 H 0.20529 0.35225 0.37714 0.0
H516 H 0.19893 0.3884 0.3359 0.0
H517 H 0.17233 0.3955 0.31137 0.0
H518 H 0.16171 0.37867 0.31786 0.0
H519 H 0.18826 0.37143 0.34222 0.0
C520 C 0.14552 0.67508 0.32868 0.0
C521 C 0.14557 0.687 0.32794 0.0
C522 C 0.12595 0.68664 0.32078 0.0
C523 C 0.1359 0.69271 0.32402 0.0
C524 C 0.12589 0.67472 0.32183 0.0
C525 C 0.13556 0.66903 0.32569 0.0
U526 U 0.17212 0.6696 0.34744 0.0
O527 O 0.17885 0.65336 0.35367 0.0
O528 O 0.18919 0.66414 0.34236 0.0
C529 C 0.18828 0.65439 0.34778 0.0
C530 C 0.1558 0.66871 0.332 0.0
C531 C 0.19176 0.64427 0.34143 0.0
C532 C 0.18821 0.62938 0.32751 0.0
C533 C 0.18464 0.63909 0.33327 0.0
C534 C 0.20606 0.63003 0.33797 0.0
C535 C 0.19896 0.62469 0.32984 0.0
C536 C 0.20249 0.6397 0.34368 0.0
C537 C 0.17943 0.68971 0.37251 0.0
C538 C 0.18822 0.68656 0.39109 0.0
C539 C 0.18872 0.70533 0.38262 0.0
C540 C 0.18278 0.70118 0.37312 0.0
C541 C 0.19139 0.69813 0.39183 0.0
C542 C 0.18231 0.6824 0.38154 0.0
C543 C 0.17241 0.68584 0.36269 0.0
O544 O 0.16571 0.6738 0.33033 0.0
O545 O 0.1553 0.66313 0.34171 0.0
O546 O 0.16665 0.67624 0.36392 0.0
O547 O 0.17704 0.68699 0.3526 0.0
H548 H 0.15313 0.6919 0.3302 0.0
H549 H 0.13633 0.70187 0.32324 0.0
H550 H 0.11835 0.66975 0.31964 0.0
H551 H 0.1353 0.65984 0.32621 0.0
H552 H 0.18249 0.62546 0.32138 0.0
H553 H 0.17632 0.64251 0.3314 0.0
H554 H 0.21446 0.62683 0.33983 0.0
H555 H 0.20814 0.64361 0.34991 0.0
H556 H 0.19002 0.68077 0.39803 0.0
H557 H 0.1912 0.71422 0.38275 0.0
H558 H 0.18067 0.707 0.36628 0.0
H559 H 0.17983 0.6735 0.38133 0.0
C560 C 0.826 0.64388 0.34554 0.0
C561 C 0.83055 0.6419 0.33474 0.0
C562 C 0.81874 0.62473 0.33283 0.0
C563 C 0.82693 0.63242 0.32844 0.0
C564 C 0.81432 0.62673 0.34372 0.0
C565 C 0.81792 0.63621 0.34998 0.0
U566 U 0.84548 0.66975 0.35167 0.0
O567 O 0.84105 0.6869 0.3572 0.0
O568 O 0.85172 0.67626 0.36818 0.0
C569 C 0.84597 0.6857 0.36721 0.0
C570 C 0.82942 0.65392 0.35224 0.0
C571 C 0.83932 0.6891 0.37729 0.0
C572 C 0.82199 0.69619 0.38583 0.0
C573 C 0.82778 0.69206 0.37639 0.0
C574 C 0.839 0.69415 0.39735 0.0
C575 C 0.82756 0.6974 0.3964 0.0
C576 C 0.84482 0.6901 0.38789 0.0
C577 C 0.87085 0.67621 0.33177 0.0
C578 C 0.88566 0.69056 0.33499 0.0
C579 C 0.88496 0.68028 0.31723 0.0
C580 C 0.87536 0.67421 0.321 0.0
C581 C 0.8903 0.68849 0.32419 0.0
C582 C 0.87602 0.68446 0.33875 0.0
C583 C 0.86082 0.6695 0.3355 0.0
O584 O 0.83909 0.65316 0.35787 0.0
O585 O 0.82817 0.66381 0.34718 0.0
O586 O 0.85093 0.67445 0.33437 0.0
O587 O 0.86191 0.66396 0.34517 0.0
H588 H 0.83685 0.64771 0.33118 0.0
H589 H 0.8306 0.63109 0.32014 0.0
H590 H 0.80789 0.62111 0.34731 0.0
H591 H 0.81429 0.63761 0.35829 0.0
H592 H 0.81314 0.69849 0.38484 0.0
H593 H 0.82326 0.69138 0.36835 0.0
H594 H 0.84359 0.69509 0.40532 0.0
H595 H 0.85372 0.68797 0.38881 0.0
H596 H 0.88959 0.69675 0.34062 0.0
H597 H 0.88813 0.6786 0.3088 0.0
H598 H 0.87144 0.66791 0.31546 0.0
H599 H 0.87264 0.68614 0.34711 0.0
C600 C 0.8423 0.37275 0.33025 0.0
C601 C 0.83035 0.3725 0.32938 0.0
C602 C 0.8304 0.39215 0.32255 0.0
C603 C 0.82447 0.38208 0.32555 0.0
C604 C 0.84236 0.3924 0.32367 0.0
C605 C 0.84822 0.38281 0.32743 0.0
U606 U 0.8483 0.34701 0.34974 0.0
O607 O 0.85325 0.32964 0.34529 0.0
O608 O 0.86471 0.34029 0.35568 0.0
C609 C 0.86326 0.33062 0.35029 0.0
C610 C 0.84883 0.36258 0.33362 0.0
C611 C 0.87307 0.32656 0.34377 0.0
C612 C 0.88826 0.32936 0.32998 0.0
C613 C 0.87887 0.33352 0.3359 0.0
C614 C 0.88607 0.31128 0.3397 0.0
C615 C 0.89196 0.31816 0.33179 0.0
C616 C 0.87675 0.31545 0.34561 0.0
C617 C 0.82876 0.3416 0.37564 0.0
C618 C 0.82878 0.32481 0.38784 0.0
C619 C 0.81677 0.34064 0.39239 0.0
C620 C 0.82079 0.34651 0.38282 0.0
C621 C 0.82064 0.32967 0.395 0.0
C622 C 0.8328 0.33073 0.37823 0.0
C623 C 0.83251 0.34794 0.36545 0.0
O624 O 0.85484 0.3634 0.34306 0.0
O625 O 0.84361 0.35267 0.33251 0.0
O626 O 0.831 0.34279 0.35566 0.0
O627 O 0.84239 0.3533 0.36625 0.0
H628 H 0.82553 0.36486 0.3315 0.0
H629 H 0.81529 0.38148 0.32468 0.0
H630 H 0.84722 0.40003 0.32165 0.0
H631 H 0.85743 0.38323 0.32805 0.0
H632 H 0.89252 0.33485 0.32388 0.0
H633 H 0.87614 0.34213 0.33434 0.0
H634 H 0.88876 0.3027 0.34147 0.0
H635 H 0.87242 0.30996 0.35168 0.0
H636 H 0.83188 0.31636 0.38952 0.0
H637 H 0.81068 0.34474 0.39779 0.0
H638 H 0.8176 0.35492 0.381 0.0
H639 H 0.83897 0.32678 0.37278 0.0
C640 C 0.67491 0.14527 0.69379 0.0
C641 C 0.68381 0.14092 0.68731 0.0
C642 C 0.68699 0.12609 0.70157 0.0
C643 C 0.68979 0.13139 0.69116 0.0
C644 C 0.678 0.1305 0.70795 0.0
C645 C 0.67204 0.13998 0.7041 0.0
U646 U 0.6692 0.17059 0.67366 0.0
O647 O 0.65282 0.17731 0.66765 0.0
O648 O 0.66426 0.188 0.67803 0.0
C649 C 0.65416 0.18689 0.67323 0.0
C650 C 0.66853 0.15533 0.69008 0.0
C651 C 0.64437 0.19077 0.68001 0.0
C652 C 0.62558 0.18777 0.68835 0.0
C653 C 0.63502 0.18359 0.68255 0.0
C654 C 0.63476 0.20628 0.68937 0.0
C655 C 0.62527 0.19921 0.69174 0.0
C656 C 0.64415 0.20212 0.68354 0.0
C657 C 0.68866 0.17588 0.64772 0.0
C658 C 0.68585 0.19037 0.63315 0.0
C659 C 0.70262 0.17869 0.63276 0.0
C660 C 0.69892 0.17299 0.64256 0.0
C661 C 0.69612 0.18742 0.62787 0.0
C662 C 0.68215 0.18464 0.64299 0.0
C663 C 0.68499 0.16957 0.65796 0.0
O664 O 0.67399 0.16512 0.69095 0.0
O665 O 0.6627 0.15433 0.68055 0.0
O666 O 0.67513 0.16417 0.65724 0.0
O667 O 0.68651 0.17482 0.6677 0.0
H668 H 0.68617 0.14492 0.67933 0.0
H669 H 0.69672 0.1283 0.68608 0.0
H670 H 0.67547 0.12656 0.7159 0.0
H671 H 0.66517 0.14319 0.7092 0.0
H672 H 0.61841 0.18208 0.68991 0.0
H673 H 0.63491 0.17479 0.67993 0.0
H674 H 0.63497 0.21506 0.69202 0.0
H675 H 0.65123 0.20783 0.68169 0.0
H676 H 0.68059 0.19698 0.62959 0.0
H677 H 0.71067 0.17632 0.6291 0.0
H678 H 0.70409 0.1663 0.64612 0.0
H679 H 0.67419 0.18699 0.64687 0.0
C680 C 0.32364 0.17814 0.64752 0.0
C681 C 0.33117 0.18156 0.63886 0.0
C682 C 0.31552 0.19008 0.62819 0.0
C683 C 0.32714 0.18743 0.62928 0.0
C684 C 0.30808 0.18681 0.63699 0.0
C685 C 0.3121 0.18088 0.64651 0.0
U686 U 0.34421 0.17216 0.67246 0.0
O687 O 0.34037 0.16646 0.68988 0.0
O688 O 0.35068 0.15586 0.67884 0.0
C689 C 0.34541 0.15668 0.6886 0.0
C690 C 0.32749 0.17147 0.65748 0.0
C691 C 0.33878 0.14658 0.69219 0.0
C692 C 0.32254 0.13363 0.69011 0.0
C693 C 0.32876 0.14322 0.68645 0.0
C694 C 0.33633 0.13066 0.70522 0.0
C695 C 0.32625 0.12722 0.69956 0.0
C696 C 0.34251 0.14023 0.70156 0.0
C697 C 0.36994 0.19209 0.67774 0.0
C698 C 0.38448 0.18877 0.69216 0.0
C699 C 0.38466 0.20638 0.68142 0.0
C700 C 0.37495 0.20272 0.67542 0.0
C701 C 0.38957 0.19945 0.68987 0.0
C702 C 0.37474 0.18512 0.68615 0.0
C703 C 0.35967 0.18852 0.67134 0.0
O704 O 0.33698 0.16582 0.65636 0.0
O705 O 0.32667 0.17645 0.6674 0.0
O706 O 0.34998 0.1895 0.67672 0.0
O707 O 0.36039 0.17895 0.66572 0.0
H708 H 0.34013 0.17958 0.63941 0.0
H709 H 0.33311 0.1897 0.62264 0.0
H710 H 0.29914 0.18888 0.63659 0.0
H711 H 0.30614 0.17837 0.6531 0.0
H712 H 0.31489 0.13118 0.68548 0.0
H713 H 0.32576 0.14802 0.67917 0.0
H714 H 0.33935 0.12606 0.71263 0.0
H715 H 0.35021 0.14272 0.70612 0.0
H716 H 0.38809 0.18316 0.69852 0.0
H717 H 0.38819 0.21472 0.67955 0.0
H718 H 0.37132 0.20824 0.669 0.0
H719 H 0.37097 0.17688 0.68806 0.0
C720 C 0.32815 0.8433 0.64639 0.0
C721 C 0.33315 0.8329 0.64379 0.0
C722 C 0.32094 0.83101 0.62694 0.0
C723 C 0.32956 0.8268 0.63416 0.0
C724 C 0.31603 0.84147 0.62962 0.0
C725 C 0.3196 0.84753 0.63923 0.0
U726 U 0.34729 0.84901 0.67261 0.0
O727 O 0.35378 0.86532 0.67928 0.0
O728 O 0.34242 0.85465 0.68969 0.0
C729 C 0.34793 0.86441 0.68873 0.0
C730 C 0.33159 0.84983 0.65655 0.0
C731 C 0.34164 0.87455 0.69216 0.0
C732 C 0.32689 0.88856 0.6891 0.0
C733 C 0.33267 0.87887 0.68556 0.0
C734 C 0.33898 0.88964 0.70584 0.0
C735 C 0.33001 0.8941 0.69928 0.0
C736 C 0.34472 0.87999 0.70231 0.0
C737 C 0.37222 0.82893 0.67969 0.0
C738 C 0.39103 0.83204 0.68818 0.0
C739 C 0.38209 0.81341 0.6891 0.0
C740 C 0.3726 0.81754 0.68322 0.0
C741 C 0.39152 0.82056 0.69154 0.0
C742 C 0.38149 0.83619 0.68233 0.0
C743 C 0.36238 0.83276 0.67276 0.0
O744 O 0.33003 0.84471 0.66638 0.0
O745 O 0.34141 0.85531 0.65593 0.0
O746 O 0.36368 0.84229 0.667 0.0
O747 O 0.35229 0.83166 0.67745 0.0
H748 H 0.33979 0.82951 0.6492 0.0
H749 H 0.33362 0.81884 0.63231 0.0
H750 H 0.30926 0.8449 0.62439 0.0
H751 H 0.31561 0.85553 0.64113 0.0
H752 H 0.32009 0.8918 0.68379 0.0
H753 H 0.33017 0.87478 0.67769 0.0
H754 H 0.34149 0.89351 0.71382 0.0
H755 H 0.35158 0.87674 0.70755 0.0
H756 H 0.39815 0.83779 0.68981 0.0
H757 H 0.38202 0.80459 0.69173 0.0
H758 H 0.36557 0.81177 0.6813 0.0
H759 H 0.38147 0.84502 0.67972 0.0
C760 C 0.64336 0.82788 0.67729 0.0
C761 C 0.64021 0.83337 0.68731 0.0
C762 C 0.62385 0.82044 0.68938 0.0
C763 C 0.63054 0.82967 0.69331 0.0
C764 C 0.62707 0.81502 0.67929 0.0
C765 C 0.63673 0.81871 0.67332 0.0
U766 U 0.66907 0.84782 0.67206 0.0
O767 O 0.68656 0.8437 0.66705 0.0
O768 O 0.67603 0.85432 0.65592 0.0
C769 C 0.68569 0.84896 0.65721 0.0
C770 C 0.65356 0.83149 0.67089 0.0
C771 C 0.68974 0.84269 0.64725 0.0
C772 C 0.687 0.82884 0.63215 0.0
C773 C 0.68284 0.83462 0.64162 0.0
C774 C 0.70496 0.83911 0.63393 0.0
C775 C 0.69814 0.83099 0.62822 0.0
C776 C 0.7008 0.84488 0.64333 0.0
C777 C 0.6747 0.87308 0.69205 0.0
C778 C 0.68907 0.88788 0.68887 0.0
C779 C 0.67867 0.88723 0.70657 0.0
C780 C 0.67262 0.87763 0.70279 0.0
C781 C 0.68695 0.89253 0.69965 0.0
C782 C 0.68301 0.87823 0.68511 0.0
C783 C 0.66809 0.86302 0.68829 0.0
O784 O 0.65277 0.84113 0.66528 0.0
O785 O 0.66334 0.83042 0.67626 0.0
O786 O 0.67315 0.85322 0.68954 0.0
O787 O 0.6627 0.864 0.6785 0.0
H788 H 0.64522 0.84049 0.69049 0.0
H789 H 0.62825 0.83412 0.70097 0.0
H790 H 0.62225 0.80779 0.67609 0.0
H791 H 0.63905 0.81435 0.66562 0.0
H792 H 0.68156 0.82258 0.62801 0.0
H793 H 0.67427 0.83278 0.64455 0.0
H794 H 0.7135 0.84113 0.63105 0.0
H795 H 0.70623 0.8511 0.64755 0.0
H796 H 0.6953 0.89178 0.68327 0.0
H797 H 0.67693 0.89042 0.71498 0.0
H798 H 0.66628 0.87373 0.70829 0.0
H799 H 0.68475 0.87483 0.67678 0.0
C800 C 0.64337 0.82819 0.34637 0.0
C801 C 0.63814 0.83512 0.33816 0.0
C802 C 0.62455 0.81987 0.33362 0.0
C803 C 0.62877 0.83101 0.33187 0.0
C804 C 0.62983 0.81303 0.3419 0.0
C805 C 0.63913 0.81716 0.3482 0.0
U806 U 0.66893 0.84838 0.35169 0.0
O807 O 0.67542 0.85544 0.36783 0.0
O808 O 0.68619 0.84435 0.35774 0.0
C809 C 0.685 0.84985 0.36733 0.0
C810 C 0.65331 0.83219 0.35303 0.0
C811 C 0.68826 0.84355 0.37767 0.0
C812 C 0.68511 0.8283 0.3914 0.0
C813 C 0.68162 0.8344 0.38174 0.0
C814 C 0.70185 0.84051 0.39303 0.0
C815 C 0.69532 0.83123 0.39712 0.0
C816 C 0.69834 0.84659 0.38341 0.0
C817 C 0.67564 0.87261 0.33032 0.0
C818 C 0.68357 0.89176 0.33237 0.0
C819 C 0.68579 0.88172 0.31466 0.0
C820 C 0.67983 0.87238 0.31919 0.0
C821 C 0.68764 0.89159 0.32114 0.0
C822 C 0.67764 0.88237 0.33692 0.0
C823 C 0.66879 0.86281 0.33457 0.0
O824 O 0.66327 0.83081 0.34827 0.0
O825 O 0.65236 0.84211 0.35796 0.0
O826 O 0.66297 0.86428 0.34395 0.0
O827 O 0.67366 0.85286 0.33411 0.0
H828 H 0.64134 0.84366 0.33659 0.0
H829 H 0.62497 0.83645 0.32548 0.0
H830 H 0.62671 0.80448 0.34357 0.0
H831 H 0.64305 0.8117 0.35451 0.0
H832 H 0.67994 0.82114 0.39424 0.0
H833 H 0.67383 0.8319 0.37737 0.0
H834 H 0.70966 0.84311 0.39731 0.0
H835 H 0.70357 0.85364 0.38041 0.0
H836 H 0.68472 0.89924 0.33758 0.0
H837 H 0.68897 0.88117 0.30607 0.0
H838 H 0.67839 0.86497 0.31392 0.0
H839 H 0.6745 0.88284 0.34553 0.0
C840 C 0.64432 0.17585 0.33046 0.0
C841 C 0.63433 0.17615 0.33699 0.0
C842 C 0.62522 0.18836 0.32287 0.0
C843 C 0.6249 0.18233 0.33323 0.0
C844 C 0.63524 0.18811 0.3164 0.0
C845 C 0.64464 0.1819 0.32013 0.0
U846 U 0.67033 0.16863 0.34947 0.0
O847 O 0.67618 0.152 0.35571 0.0
O848 O 0.68713 0.16237 0.34456 0.0
C849 C 0.68566 0.15259 0.34986 0.0
C850 C 0.65417 0.16876 0.33385 0.0
C851 C 0.6887 0.14231 0.34349 0.0
C852 C 0.68989 0.13152 0.32595 0.0
C853 C 0.6863 0.14115 0.33183 0.0
C854 C 0.69807 0.12405 0.34334 0.0
C855 C 0.69588 0.12287 0.33163 0.0
C856 C 0.69453 0.13366 0.34919 0.0
C857 C 0.67821 0.18863 0.3746 0.0
C858 C 0.68658 0.18551 0.39339 0.0
C859 C 0.68771 0.20415 0.38468 0.0
C860 C 0.68186 0.20002 0.37512 0.0
C861 C 0.69 0.19701 0.39403 0.0
C862 C 0.68073 0.18136 0.38378 0.0
C863 C 0.67122 0.18487 0.36473 0.0
O864 O 0.66435 0.17329 0.33228 0.0
O865 O 0.65335 0.16305 0.34347 0.0
O866 O 0.66509 0.1755 0.36594 0.0
O867 O 0.67602 0.18577 0.3547 0.0
H868 H 0.63373 0.17155 0.34496 0.0
H869 H 0.61736 0.18242 0.33848 0.0
H870 H 0.63575 0.19251 0.30831 0.0
H871 H 0.65213 0.18169 0.31482 0.0
H872 H 0.68794 0.13085 0.31696 0.0
H873 H 0.68177 0.14771 0.32726 0.0
H874 H 0.7028 0.11768 0.34798 0.0
H875 H 0.69651 0.13441 0.35817 0.0
H876 H 0.68812 0.17977 0.40044 0.0
H877 H 0.69041 0.21299 0.38473 0.0
H878 H 0.68002 0.2058 0.36816 0.0
H879 H 0.67802 0.17253 0.38364 0.0
C880 C 0.3266 0.14448 0.34405 0.0
C881 C 0.32549 0.14485 0.33215 0.0
C882 C 0.31886 0.12508 0.33192 0.0
C883 C 0.32163 0.13527 0.32615 0.0
C884 C 0.32022 0.12471 0.34382 0.0
C885 C 0.324 0.13431 0.3498 0.0
U886 U 0.34603 0.17051 0.35015 0.0
O887 O 0.34162 0.18761 0.35582 0.0
O888 O 0.35247 0.17695 0.36661 0.0
C889 C 0.34673 0.18641 0.36574 0.0
C890 C 0.33007 0.1546 0.35071 0.0
C891 C 0.34027 0.18978 0.37591 0.0
C892 C 0.3226 0.19491 0.38519 0.0
C893 C 0.32836 0.19092 0.37565 0.0
C894 C 0.34049 0.19637 0.39549 0.0
C895 C 0.3286 0.1978 0.39521 0.0
C896 C 0.34623 0.19245 0.38594 0.0
C897 C 0.37134 0.17704 0.3302 0.0
C898 C 0.388 0.18902 0.33416 0.0
C899 C 0.38388 0.18307 0.31487 0.0
C900 C 0.37421 0.17713 0.31866 0.0
C901 C 0.39094 0.18905 0.32257 0.0
C902 C 0.37826 0.1831 0.33794 0.0
C903 C 0.3613 0.17033 0.33391 0.0
O904 O 0.33972 0.15388 0.35638 0.0
O905 O 0.32869 0.16456 0.34581 0.0
O906 O 0.3514 0.17529 0.33282 0.0
O907 O 0.36237 0.16466 0.34352 0.0
H908 H 0.32745 0.15258 0.32747 0.0
H909 H 0.32059 0.13594 0.31702 0.0
H910 H 0.31838 0.11699 0.34855 0.0
H911 H 0.32482 0.1338 0.35897 0.0
H912 H 0.31348 0.196 0.38459 0.0
H913 H 0.32351 0.18893 0.36803 0.0
H914 H 0.34538 0.19829 0.40309 0.0
H915 H 0.35541 0.19162 0.38636 0.0
H916 H 0.39317 0.19364 0.34029 0.0
H917 H 0.38596 0.18279 0.30592 0.0
H918 H 0.36901 0.17248 0.31255 0.0
H919 H 0.37618 0.18319 0.34689 0.0
C920 C 0.34253 0.87275 0.32726 0.0
C921 C 0.33264 0.87583 0.33303 0.0
C922 C 0.33041 0.89225 0.32043 0.0
C923 C 0.32662 0.88549 0.32964 0.0
C924 C 0.34034 0.88906 0.31471 0.0
C925 C 0.34632 0.87942 0.3181 0.0
U926 U 0.34811 0.84656 0.3462 0.0
O927 O 0.35369 0.82955 0.34133 0.0
O928 O 0.3645 0.84002 0.35255 0.0
C929 C 0.36359 0.83067 0.34656 0.0
C930 C 0.34903 0.86263 0.33058 0.0
C931 C 0.37383 0.8274 0.34012 0.0
C932 C 0.38334 0.82268 0.32245 0.0
C933 C 0.37375 0.82657 0.3282 0.0
C934 C 0.39334 0.82067 0.34039 0.0
C935 C 0.39324 0.81955 0.32848 0.0
C936 C 0.38375 0.82451 0.34613 0.0
C937 C 0.32776 0.83963 0.37113 0.0
C938 C 0.33116 0.82657 0.38688 0.0
C939 C 0.3123 0.83407 0.38375 0.0
C940 C 0.31632 0.84022 0.37436 0.0
C941 C 0.31966 0.82717 0.39017 0.0
C942 C 0.33516 0.83272 0.37742 0.0
C943 C 0.33171 0.84648 0.36132 0.0
O944 O 0.35452 0.86325 0.34034 0.0
O945 O 0.34384 0.85279 0.32903 0.0
O946 O 0.33066 0.84168 0.35131 0.0
O947 O 0.3414 0.85208 0.36264 0.0
H948 H 0.32959 0.87078 0.34015 0.0
H949 H 0.31908 0.88774 0.33431 0.0
H950 H 0.34341 0.89391 0.30748 0.0
H951 H 0.35391 0.87715 0.31351 0.0
H952 H 0.38287 0.82184 0.3133 0.0
H953 H 0.36622 0.82874 0.32332 0.0
H954 H 0.40085 0.81857 0.34533 0.0
H955 H 0.38403 0.82508 0.35531 0.0
H956 H 0.33702 0.82124 0.39154 0.0
H957 H 0.30345 0.83487 0.38611 0.0
H958 H 0.31048 0.84554 0.36964 0.0
H959 H 0.34403 0.8321 0.37505 0.0
C960 C 0.67528 0.64244 0.19118 0.0
C961 C 0.67683 0.63286 0.18432 0.0
C962 C 0.68741 0.62345 0.19957 0.0
C963 C 0.68282 0.62348 0.18847 0.0
C964 C 0.68602 0.63316 0.20631 0.0
C965 C 0.68 0.6425 0.20218 0.0
U966 U 0.66822 0.66762 0.17115 0.0
O967 O 0.65157 0.6733 0.16472 0.0
O968 O 0.66202 0.68459 0.17544 0.0
C969 C 0.65221 0.68299 0.17019 0.0
C970 C 0.66827 0.65216 0.18738 0.0
C971 C 0.64199 0.68615 0.17658 0.0
C972 C 0.6291 0.68379 0.19257 0.0
C973 C 0.63879 0.68045 0.18661 0.0
C974 C 0.62572 0.69849 0.17852 0.0
C975 C 0.62243 0.69287 0.1886 0.0
C976 C 0.63538 0.69516 0.17259 0.0
C977 C 0.68819 0.67431 0.1458 0.0
C978 C 0.6842 0.68564 0.12888 0.0
C979 C 0.70358 0.68036 0.13331 0.0
C980 C 0.69979 0.67466 0.14307 0.0
C981 C 0.69584 0.68584 0.126 0.0
C982 C 0.68041 0.67993 0.1387 0.0
C983 C 0.68452 0.66776 0.15592 0.0
O984 O 0.67292 0.66232 0.18856 0.0
O985 O 0.66252 0.651 0.17781 0.0
O986 O 0.67504 0.66172 0.1549 0.0
O987 O 0.68543 0.67299 0.16572 0.0
H988 H 0.67327 0.6325 0.17581 0.0
H989 H 0.6836 0.61613 0.18306 0.0
H990 H 0.68959 0.63357 0.21482 0.0
H991 H 0.67891 0.64974 0.20767 0.0
H992 H 0.62678 0.67919 0.20023 0.0
H993 H 0.64378 0.67346 0.18981 0.0
H994 H 0.62094 0.70562 0.1753 0.0
H995 H 0.63775 0.69969 0.1649 0.0
H996 H 0.67798 0.68969 0.12343 0.0
H997 H 0.71262 0.68051 0.13153 0.0
H998 H 0.70594 0.67042 0.14846 0.0
H999 H 0.6714 0.67979 0.14065 0.0
C1000 C 0.32485 0.67633 0.14738 0.0
C1001 C 0.3316 0.68476 0.14212 0.0
C1002 C 0.31637 0.68845 0.12839 0.0
C1003 C 0.32741 0.69075 0.13267 0.0
C1004 C 0.30969 0.67998 0.13374 0.0
C1005 C 0.31389 0.67399 0.14312 0.0
U1006 U 0.3456 0.67106 0.17235 0.0
O1007 O 0.34174 0.66511 0.1897 0.0
O1008 O 0.35245 0.6549 0.17865 0.0
C1009 C 0.34703 0.65547 0.18837 0.0
C1010 C 0.32897 0.66984 0.15728 0.0
C1011 C 0.34058 0.64519 0.19178 0.0
C1012 C 0.32589 0.63079 0.18832 0.0
C1013 C 0.33194 0.64055 0.18484 0.0
C1014 C 0.33702 0.63027 0.20573 0.0
C1015 C 0.32836 0.62551 0.19881 0.0
C1016 C 0.34306 0.64 0.20223 0.0
C1017 C 0.37077 0.69171 0.17823 0.0
C1018 C 0.38965 0.68857 0.18631 0.0
C1019 C 0.38116 0.70709 0.18763 0.0
C1020 C 0.37148 0.70302 0.18186 0.0
C1021 C 0.39044 0.69997 0.18985 0.0
C1022 C 0.37992 0.68448 0.18059 0.0
C1023 C 0.36062 0.68784 0.17169 0.0
O1024 O 0.33876 0.66475 0.15606 0.0
O1025 O 0.32797 0.67479 0.16719 0.0
O1026 O 0.35079 0.68853 0.17691 0.0
O1027 O 0.36158 0.67845 0.16579 0.0
H1028 H 0.34008 0.68671 0.14532 0.0
H1029 H 0.33273 0.69729 0.12882 0.0
H1030 H 0.30123 0.67786 0.13058 0.0
H1031 H 0.30857 0.66749 0.14706 0.0
H1032 H 0.31937 0.62731 0.18272 0.0
H1033 H 0.3299 0.64447 0.17673 0.0
H1034 H 0.33904 0.62658 0.21394 0.0
H1035 H 0.34966 0.6435 0.20774 0.0
H1036 H 0.39665 0.68286 0.18774 0.0
H1037 H 0.38133 0.71585 0.1904 0.0
H1038 H 0.36454 0.70875 0.18016 0.0
H1039 H 0.37963 0.6757 0.17791 0.0
C1040 C 0.32875 0.34291 0.14692 0.0
C1041 C 0.33607 0.3358 0.14096 0.0
C1042 C 0.32052 0.3302 0.12814 0.0
C1043 C 0.332 0.32953 0.13162 0.0
C1044 C 0.31326 0.33737 0.13417 0.0
C1045 C 0.31734 0.34364 0.14344 0.0
U1046 U 0.34939 0.34958 0.17182 0.0
O1047 O 0.35574 0.36616 0.17792 0.0
O1048 O 0.34539 0.35526 0.18912 0.0
C1049 C 0.35048 0.36519 0.18772 0.0
C1050 C 0.33272 0.34969 0.15673 0.0
C1051 C 0.34404 0.37515 0.19137 0.0
C1052 C 0.3291 0.38901 0.18858 0.0
C1053 C 0.33499 0.37945 0.18488 0.0
C1054 C 0.34122 0.38997 0.2053 0.0
C1055 C 0.33219 0.39443 0.19883 0.0
C1056 C 0.34707 0.38045 0.2016 0.0
C1057 C 0.37518 0.3305 0.17764 0.0
C1058 C 0.38762 0.33206 0.19423 0.0
C1059 C 0.39186 0.31864 0.17941 0.0
C1060 C 0.38221 0.32209 0.17333 0.0
C1061 C 0.39469 0.32355 0.18996 0.0
C1062 C 0.37796 0.33552 0.18812 0.0
C1063 C 0.36492 0.33375 0.17115 0.0
O1064 O 0.33189 0.34471 0.16673 0.0
O1065 O 0.34234 0.35542 0.15545 0.0
O1066 O 0.36569 0.34331 0.16537 0.0
O1067 O 0.35517 0.33249 0.17647 0.0
H1068 H 0.34491 0.33507 0.14354 0.0
H1069 H 0.33779 0.32401 0.12725 0.0
H1070 H 0.30442 0.33823 0.13165 0.0
H1071 H 0.31156 0.34911 0.1479 0.0
H1072 H 0.32225 0.39225 0.18333 0.0
H1073 H 0.33251 0.37546 0.17694 0.0
H1074 H 0.34371 0.39375 0.21334 0.0
H1075 H 0.35399 0.37722 0.20677 0.0
H1076 H 0.38959 0.33611 0.20226 0.0
H1077 H 0.39698 0.31196 0.17593 0.0
H1078 H 0.38018 0.31809 0.16528 0.0
H1079 H 0.37264 0.34207 0.19157 0.0
C1080 C 0.64314 0.32685 0.17596 0.0
C1081 C 0.64072 0.33093 0.18685 0.0
C1082 C 0.62342 0.31911 0.18753 0.0
C1083 C 0.63094 0.3271 0.19259 0.0
C1084 C 0.62586 0.31522 0.17654 0.0
C1085 C 0.63561 0.31905 0.17084 0.0
U1086 U 0.66965 0.34611 0.1713 0.0
O1087 O 0.68694 0.34123 0.16626 0.0
O1088 O 0.67694 0.3525 0.15528 0.0
C1089 C 0.68624 0.3465 0.15641 0.0
C1090 C 0.65355 0.33038 0.16985 0.0
C1091 C 0.68983 0.33998 0.14638 0.0
C1092 C 0.68583 0.33067 0.12831 0.0
C1093 C 0.68203 0.33634 0.13798 0.0
C1094 C 0.70521 0.33194 0.13544 0.0
C1095 C 0.69749 0.32847 0.12686 0.0
C1096 C 0.70141 0.33765 0.14505 0.0
C1097 C 0.6763 0.37115 0.19156 0.0
C1098 C 0.68457 0.39008 0.18873 0.0
C1099 C 0.68613 0.38086 0.2071 0.0
C1100 C 0.68016 0.37139 0.20287 0.0
C1101 C 0.68831 0.39041 0.20013 0.0
C1102 C 0.67864 0.38056 0.18448 0.0
C1103 C 0.66936 0.36128 0.18759 0.0
O1104 O 0.65312 0.34014 0.1644 0.0
O1105 O 0.66322 0.32892 0.17533 0.0
O1106 O 0.67397 0.35125 0.18883 0.0
O1107 O 0.66385 0.36244 0.17788 0.0
H1108 H 0.64644 0.33697 0.19095 0.0
H1109 H 0.62939 0.3302 0.20107 0.0
H1110 H 0.62019 0.30924 0.17229 0.0
H1111 H 0.63732 0.31584 0.16242 0.0
H1112 H 0.67965 0.32823 0.12187 0.0
H1113 H 0.67303 0.33801 0.13881 0.0
H1114 H 0.7142 0.33021 0.13476 0.0
H1115 H 0.70758 0.34033 0.15144 0.0
H1116 H 0.68596 0.39728 0.18313 0.0
H1117 H 0.68905 0.38069 0.21585 0.0
H1118 H 0.67846 0.36426 0.20851 0.0
H1119 H 0.67576 0.38067 0.17572 0.0
C1120 C 0.64605 0.32696 0.84405 0.0
C1121 C 0.64166 0.33353 0.83509 0.0
C1122 C 0.62649 0.31944 0.8319 0.0
C1123 C 0.63196 0.3298 0.82906 0.0
C1124 C 0.63103 0.31288 0.84085 0.0
C1125 C 0.64069 0.31662 0.84685 0.0
U1126 U 0.67147 0.3472 0.84929 0.0
O1127 O 0.67817 0.35412 0.86542 0.0
O1128 O 0.68892 0.34342 0.8549 0.0
C1129 C 0.68786 0.34878 0.86458 0.0
C1130 C 0.65615 0.33072 0.8506 0.0
C1131 C 0.69161 0.34255 0.87481 0.0
C1132 C 0.69103 0.32593 0.88719 0.0
C1133 C 0.68701 0.33184 0.87762 0.0
C1134 C 0.70415 0.34148 0.89129 0.0
C1135 C 0.69973 0.33065 0.8941 0.0
C1136 C 0.70013 0.34735 0.88175 0.0
C1137 C 0.67704 0.37215 0.82853 0.0
C1138 C 0.68611 0.39064 0.83163 0.0
C1139 C 0.68532 0.38271 0.8127 0.0
C1140 C 0.67961 0.37309 0.81693 0.0
C1141 C 0.68855 0.39168 0.81996 0.0
C1142 C 0.68043 0.38096 0.83587 0.0
C1143 C 0.67054 0.36207 0.83258 0.0
O1144 O 0.66599 0.32966 0.84549 0.0
O1145 O 0.65522 0.34045 0.8559 0.0
O1146 O 0.66492 0.36312 0.84213 0.0
O1147 O 0.67568 0.35228 0.83173 0.0
H1148 H 0.6457 0.34155 0.8328 0.0
H1149 H 0.62866 0.33511 0.82229 0.0
H1150 H 0.62718 0.30477 0.84314 0.0
H1151 H 0.644 0.31141 0.85371 0.0
H1152 H 0.6875 0.31757 0.88902 0.0
H1153 H 0.68041 0.328 0.87234 0.0
H1154 H 0.71071 0.34546 0.89651 0.0
H1155 H 0.70375 0.35564 0.87974 0.0
H1156 H 0.68836 0.3974 0.83746 0.0
H1157 H 0.68726 0.38308 0.80372 0.0
H1158 H 0.67712 0.36639 0.81111 0.0
H1159 H 0.67859 0.38045 0.84487 0.0
C1160 C 0.64386 0.67463 0.82884 0.0
C1161 C 0.6422 0.68569 0.83282 0.0
C1162 C 0.62458 0.68702 0.82171 0.0
C1163 C 0.63267 0.69184 0.82926 0.0
C1164 C 0.62626 0.67587 0.81789 0.0
C1165 C 0.6358 0.66977 0.82141 0.0
U1166 U 0.66973 0.66882 0.8482 0.0
O1167 O 0.67645 0.65253 0.85432 0.0
O1168 O 0.68706 0.66369 0.84362 0.0
C1169 C 0.68608 0.6538 0.84878 0.0
C1170 C 0.654 0.6681 0.83216 0.0
C1171 C 0.68988 0.64388 0.84233 0.0
C1172 C 0.68706 0.62947 0.82777 0.0
C1173 C 0.68321 0.63901 0.83362 0.0
C1174 C 0.70428 0.62966 0.83923 0.0
C1175 C 0.69763 0.62463 0.83055 0.0
C1176 C 0.70044 0.63915 0.84504 0.0
C1177 C 0.6756 0.68851 0.87386 0.0
C1178 C 0.68919 0.68518 0.88923 0.0
C1179 C 0.67947 0.70311 0.88796 0.0
C1180 C 0.67373 0.69938 0.87818 0.0
C1181 C 0.68722 0.69605 0.89369 0.0
C1182 C 0.68342 0.68144 0.8794 0.0
C1183 C 0.6691 0.68477 0.86374 0.0
O1184 O 0.66388 0.67336 0.83098 0.0
O1185 O 0.65322 0.66231 0.84172 0.0
O1186 O 0.6636 0.67499 0.86463 0.0
O1187 O 0.6742 0.68613 0.85391 0.0
H1188 H 0.6483 0.68959 0.83861 0.0
H1189 H 0.63159 0.70034 0.83249 0.0
H1190 H 0.62031 0.67194 0.81197 0.0
H1191 H 0.63694 0.66125 0.81823 0.0
H1192 H 0.68167 0.62578 0.8212 0.0
H1193 H 0.67502 0.64254 0.8314 0.0
H1194 H 0.71256 0.62633 0.84146 0.0
H1195 H 0.70574 0.64283 0.85169 0.0
H1196 H 0.69502 0.67947 0.89345 0.0
H1197 H 0.67789 0.7116 0.89098 0.0
H1198 H 0.66777 0.70498 0.87399 0.0
H1199 H 0.68499 0.67301 0.87619 0.0
C1200 C 0.32561 0.64459 0.84551 0.0
C1201 C 0.33018 0.64202 0.83485 0.0
C1202 C 0.31778 0.6252 0.83352 0.0
C1203 C 0.32629 0.6324 0.82891 0.0
C1204 C 0.31339 0.62778 0.84428 0.0
C1205 C 0.31727 0.63737 0.85019 0.0
U1206 U 0.34541 0.6705 0.85098 0.0
O1207 O 0.34079 0.68783 0.85595 0.0
O1208 O 0.35149 0.67755 0.86725 0.0
C1209 C 0.34565 0.68692 0.86602 0.0
C1210 C 0.3292 0.65484 0.85181 0.0
C1211 C 0.33878 0.69056 0.87587 0.0
C1212 C 0.33194 0.68793 0.89526 0.0
C1213 C 0.33789 0.68394 0.88583 0.0
C1214 C 0.32751 0.70512 0.88489 0.0
C1215 C 0.32672 0.69859 0.89492 0.0
C1216 C 0.33351 0.70117 0.87551 0.0
C1217 C 0.37127 0.67625 0.83158 0.0
C1218 C 0.38266 0.6937 0.83102 0.0
C1219 C 0.38869 0.67726 0.82053 0.0
C1220 C 0.37916 0.67115 0.82442 0.0
C1221 C 0.39055 0.68864 0.82372 0.0
C1222 C 0.37312 0.68755 0.83493 0.0
C1223 C 0.36112 0.66967 0.83519 0.0
O1224 O 0.33879 0.65415 0.85758 0.0
O1225 O 0.32815 0.66453 0.84634 0.0
O1226 O 0.35126 0.67461 0.83369 0.0
O1227 O 0.36195 0.66436 0.84502 0.0
H1228 H 0.33664 0.64751 0.83109 0.0
H1229 H 0.32979 0.63074 0.8206 0.0
H1230 H 0.30698 0.62234 0.8482 0.0
H1231 H 0.31368 0.63919 0.85843 0.0
H1232 H 0.33141 0.68264 0.9028 0.0
H1233 H 0.34186 0.67573 0.88643 0.0
H1234 H 0.32373 0.71344 0.88439 0.0
H1235 H 0.33416 0.70652 0.868 0.0
H1236 H 0.38389 0.7024 0.83374 0.0
H1237 H 0.39447 0.67313 0.81481 0.0
H1238 H 0.37786 0.66244 0.82171 0.0
H1239 H 0.36715 0.69163 0.84051 0.0
C1240 C 0.34208 0.3722 0.83012 0.0
C1241 C 0.33073 0.37114 0.8263 0.0
C1242 C 0.33024 0.39139 0.82185 0.0
C1243 C 0.32489 0.38061 0.82219 0.0
C1244 C 0.34149 0.39249 0.82593 0.0
C1245 C 0.34735 0.383 0.82996 0.0
U1246 U 0.34827 0.34629 0.84942 0.0
O1247 O 0.35372 0.32915 0.84476 0.0
O1248 O 0.36468 0.33981 0.85563 0.0
C1249 C 0.36362 0.33026 0.84997 0.0
C1250 C 0.34879 0.36215 0.83359 0.0
C1251 C 0.37364 0.32679 0.84345 0.0
C1252 C 0.38755 0.32985 0.82844 0.0
C1253 C 0.37799 0.33343 0.83448 0.0
C1254 C 0.38844 0.31299 0.84027 0.0
C1255 C 0.39292 0.31959 0.83129 0.0
C1256 C 0.37892 0.31656 0.84627 0.0
C1257 C 0.32806 0.34001 0.87467 0.0
C1258 C 0.33005 0.32475 0.88857 0.0
C1259 C 0.31382 0.33712 0.88933 0.0
C1260 C 0.31791 0.34313 0.87989 0.0
C1261 C 0.31979 0.32781 0.89379 0.0
C1262 C 0.33415 0.33079 0.87907 0.0
C1263 C 0.33202 0.34657 0.8647 0.0
O1264 O 0.35453 0.36295 0.8432 0.0
O1265 O 0.34392 0.35211 0.83215 0.0
O1266 O 0.33089 0.34154 0.8548 0.0
O1267 O 0.34178 0.35209 0.86587 0.0
H1268 H 0.32638 0.36296 0.8263 0.0
H1269 H 0.31619 0.37949 0.81924 0.0
H1270 H 0.34591 0.40063 0.82567 0.0
H1271 H 0.35612 0.38406 0.83276 0.0
H1272 H 0.39081 0.33521 0.82165 0.0
H1273 H 0.37402 0.34136 0.83217 0.0
H1274 H 0.39218 0.30495 0.84258 0.0
H1275 H 0.37565 0.31129 0.85313 0.0
H1276 H 0.33482 0.31757 0.89171 0.0
H1277 H 0.30601 0.33987 0.89323 0.0
H1278 H 0.31312 0.35027 0.87666 0.0
H1279 H 0.34201 0.32825 0.87513 0.0
H1280 H 0.2644 0.27755 0.99813 0.0
H1281 H 0.2389 0.25086 1.00023 0.0
H1282 H 0.25858 0.25534 0.96982 0.0
H1283 H 0.24901 0.27872 0.01164 0.0
H1284 H 0.23777 0.26848 0.01175 0.0
H1285 H 0.26393 0.27801 0.02565 0.0
H1286 H 0.25989 0.2541 0.0531 0.0
H1287 H 0.23979 0.25016 0.02267 0.0
C1288 C 0.26029 0.27005 0.99458 0.0
C1289 C 0.26269 0.26691 0.98335 0.0
C1290 C 0.25173 0.26425 1.00081 0.0
C1291 C 0.24584 0.25503 0.99572 0.0
C1292 C 0.2484 0.25163 0.98458 0.0
C1293 C 0.25692 0.25755 0.97858 0.0
C1294 C 0.24722 0.26941 0.01166 0.0
C1295 C 0.25189 0.26423 0.02255 0.0
C1296 C 0.26025 0.27019 0.02897 0.0
C1297 C 0.263 0.2667 0.04011 0.0
C1298 C 0.25787 0.25677 0.04448 0.0
C1299 C 0.24952 0.25073 0.03831 0.0
C1300 C 0.24657 0.25449 0.02731 0.0
H1301 H 0.76227 0.23896 0.02474 0.0
H1302 H 0.73798 0.26589 0.0218 0.0
H1303 H 0.75826 0.26244 0.05214 0.0
H1304 H 0.7463 0.23754 0.01144 0.0
H1305 H 0.73597 0.24834 0.01051 0.0
H1306 H 0.76221 0.23731 0.99849 0.0
H1307 H 0.76021 0.25939 0.96944 0.0
H1308 H 0.7395 0.26573 0.99866 0.0
C1309 C 0.75859 0.24665 0.02803 0.0
C1310 C 0.76143 0.2502 0.0391 0.0
C1311 C 0.75017 0.25231 0.02165 0.0
C1312 C 0.74484 0.2618 0.0264 0.0
C1313 C 0.74788 0.26562 0.03733 0.0
C1314 C 0.75626 0.25985 0.04351 0.0
C1315 C 0.74531 0.24691 0.01097 0.0
C1316 C 0.75065 0.25135 1.00009 0.0
C1317 C 0.75898 0.24496 0.99453 0.0
C1318 C 0.76238 0.24786 0.98345 0.0
C1319 C 0.75782 0.25744 0.97814 0.0
C1320 C 0.74965 0.26404 0.98355 0.0
C1321 C 0.74612 0.26096 0.99457 0.0
H1322 H 0.73746 0.75103 0.02009 0.0
H1323 H 0.76342 0.77687 0.0252 0.0
H1324 H 0.75619 0.75229 0.05149 0.0
H1325 H 0.73748 0.76979 0.0096 0.0
H1326 H 0.74949 0.77909 0.01038 0.0
H1327 H 0.73915 0.75079 0.99922 0.0
H1328 H 0.75858 0.75474 0.96863 0.0
H1329 H 0.76332 0.77852 0.99585 0.0
C1330 C 0.74438 0.75463 0.02511 0.0
C1331 C 0.74648 0.75034 0.03608 0.0
C1332 C 0.75072 0.76402 0.02092 0.0
C1333 C 0.75904 0.7692 0.02804 0.0
C1334 C 0.7609 0.76517 0.0392 0.0
C1335 C 0.75486 0.75548 0.04291 0.0
C1336 C 0.74695 0.76995 0.01005 0.0
C1337 C 0.75136 0.76475 0.99918 0.0
C1338 C 0.74587 0.75508 0.99452 0.0
C1339 C 0.74851 0.75136 0.98351 0.0
C1340 C 0.75678 0.75737 0.97723 0.0
C1341 C 0.76204 0.76727 0.98148 0.0
C1342 C 0.75955 0.77071 0.99261 0.0
H1343 H 0.26095 0.73867 0.02456 0.0
H1344 H 0.23722 0.76607 0.02127 0.0
H1345 H 0.25659 0.76191 0.05211 0.0
H1346 H 0.24595 0.7379 0.01028 0.0
H1347 H 0.23538 0.7485 0.00961 0.0
H1348 H 0.2629 0.73922 0.99846 0.0
H1349 H 0.26211 0.76313 0.97077 0.0
H1350 H 0.23829 0.76597 0.99817 0.0
C1351 C 0.25727 0.74634 0.02788 0.0
C1352 C 0.25986 0.74971 0.03906 0.0
C1353 C 0.24915 0.75225 0.02133 0.0
C1354 C 0.24382 0.76176 0.02604 0.0
C1355 C 0.24661 0.76539 0.0371 0.0
C1356 C 0.25473 0.7594 0.04343 0.0
C1357 C 0.24474 0.74725 0.01026 0.0
C1358 C 0.25034 0.75237 0.99982 0.0
C1359 C 0.25948 0.74684 0.99462 0.0
C1360 C 0.26382 0.75078 0.98419 0.0
C1361 C 0.2591 0.76042 0.97907 0.0
C1362 C 0.24983 0.7659 0.98395 0.0
C1363 C 0.24559 0.76193 0.99443 0.0
H1364 H 0.0224 0.23823 0.25555 0.0
H1365 H 0.01915 0.26591 0.27896 0.0
H1366 H 0.04979 0.26254 0.25963 0.0
H1367 H 0.0083 0.23724 0.27031 0.0
H1368 H 0.00851 0.24743 0.28134 0.0
H1369 H 0.99705 0.24057 0.25254 0.0
H1370 H 0.96669 0.25959 0.25821 0.0
H1371 H 0.99488 0.26259 0.28155 0.0
C1372 C 0.02569 0.2461 0.2591 0.0
C1373 C 0.03683 0.24981 0.25643 0.0
C1374 C 0.01918 0.25195 0.26716 0.0
C1375 C 0.02387 0.26171 0.27237 0.0
C1376 C 0.03492 0.26561 0.26967 0.0
C1377 C 0.04116 0.25975 0.26151 0.0
C1378 C 0.00841 0.24654 0.27192 0.0
C1379 C 0.99748 0.25149 0.26723 0.0
C1380 C 0.99249 0.24687 0.25731 0.0
C1381 C 0.98139 0.24981 0.25395 0.0
C1382 C 0.9754 0.25759 0.26051 0.0
C1383 C 0.98013 0.26222 0.27048 0.0
C1384 C 0.99131 0.25936 0.27365 0.0
H1385 H 0.77935 0.02026 0.2563 0.0
H1386 H 0.75448 0.02154 0.28303 0.0
H1387 H 0.7595 0.05021 0.2608 0.0
H1388 H 0.78092 0.00837 0.27391 0.0
H1389 H 0.76971 0.00786 0.28396 0.0
H1390 H 0.78053 0.99621 0.2572 0.0
H1391 H 0.75654 0.9683 0.25764 0.0
H1392 H 0.75232 0.9963 0.28043 0.0
C1393 C 0.77253 0.02461 0.26054 0.0
C1394 C 0.76974 0.03569 0.25714 0.0
C1395 C 0.76694 0.01932 0.26978 0.0
C1396 C 0.75844 0.0253 0.27558 0.0
C1397 C 0.75581 0.03649 0.27241 0.0
C1398 C 0.76133 0.04148 0.26307 0.0
C1399 C 0.77148 0.00834 0.27468 0.0
C1400 C 0.76662 0.99778 0.26903 0.0
C1401 C 0.77269 0.99239 0.26034 0.0
C1402 C 0.76897 0.98181 0.2561 0.0
C1403 C 0.75906 0.97671 0.26051 0.0
C1404 C 0.75305 0.98178 0.26935 0.0
C1405 C 0.75677 0.99243 0.27345 0.0
H1406 H 0.99531 0.73911 0.26883 0.0
H1407 H 0.99486 0.76445 0.24229 0.0
H1408 H 0.96644 0.76076 0.26492 0.0
H1409 H 0.00675 0.73712 0.25138 0.0
H1410 H 0.00712 0.74801 0.24088 0.0
H1411 H 0.02007 0.7373 0.26731 0.0
H1412 H 0.04915 0.75965 0.26421 0.0
H1413 H 0.01944 0.76513 0.24338 0.0
C1414 C 0.99125 0.74626 0.26471 0.0
C1415 C 0.98043 0.74965 0.26831 0.0
C1416 C 0.99659 0.75163 0.25538 0.0
C1417 C 0.99097 0.76056 0.24971 0.0
C1418 C 0.98012 0.76402 0.25319 0.0
C1419 C 0.97505 0.7586 0.26258 0.0
C1420 C 0.00712 0.74651 0.25023 0.0
C1421 C 0.01824 0.75105 0.25519 0.0
C1422 C 0.02402 0.74487 0.2637 0.0
C1423 C 0.03514 0.74805 0.26711 0.0
C1424 C 0.04036 0.7576 0.26205 0.0
C1425 C 0.03485 0.7638 0.25344 0.0
C1426 C 0.02369 0.76058 0.25019 0.0
H1427 H 0.23822 0.9929 0.25563 0.0
H1428 H 0.26617 0.99691 0.27933 0.0
H1429 H 0.26259 0.96638 0.25974 0.0
H1430 H 0.23734 0.00695 0.27027 0.0
H1431 H 0.24763 0.00722 0.28139 0.0
H1432 H 0.23917 0.0196 0.2538 0.0
H1433 H 0.26114 0.04881 0.25862 0.0
H1434 H 0.26463 0.01967 0.28036 0.0
C1435 C 0.24614 0.98988 0.25924 0.0
C1436 C 0.2498 0.9789 0.25659 0.0
C1437 C 0.25207 0.99653 0.26737 0.0
C1438 C 0.26189 0.99212 0.27267 0.0
C1439 C 0.26581 0.98128 0.26983 0.0
C1440 C 0.25982 0.97489 0.26165 0.0
C1441 C 0.24668 0.00716 0.27197 0.0
C1442 C 0.25171 0.01814 0.26724 0.0
C1443 C 0.24634 0.0237 0.25805 0.0
C1444 C 0.24971 0.0348 0.25481 0.0
C1445 C 0.25883 0.04008 0.26063 0.0
C1446 C 0.26428 0.03471 0.26981 0.0
C1447 C 0.26073 0.0237 0.27303 0.0
H1448 H 0.99493 0.7625 0.78054 0.0
H1449 H 0.99756 0.74052 0.75157 0.0
H1450 H 0.96774 0.76064 0.75591 0.0
H1451 H 0.00852 0.74735 0.78068 0.0
H1452 H 0.00827 0.73706 0.76972 0.0
H1453 H 0.01983 0.76548 0.77834 0.0
H1454 H 0.05016 0.76145 0.75866 0.0
H1455 H 0.02224 0.73769 0.75486 0.0
C1456 C 0.99159 0.75947 0.77248 0.0
C1457 C 0.98062 0.76265 0.76891 0.0
C1458 C 0.99785 0.75155 0.76619 0.0
C1459 C 0.99305 0.747 0.75615 0.0
C1460 C 0.98221 0.75031 0.75236 0.0
C1461 C 0.97623 0.7583 0.75866 0.0
C1462 C 0.00849 0.74637 0.77127 0.0
C1463 C 0.0195 0.7514 0.76664 0.0
C1464 C 0.02441 0.76112 0.77174 0.0
C1465 C 0.03546 0.76484 0.76883 0.0
C1466 C 0.04151 0.75881 0.76066 0.0
C1467 C 0.03691 0.74896 0.75565 0.0
C1468 C 0.02575 0.74547 0.75844 0.0
H1469 H 0.25299 0.99544 0.78037 0.0
H1470 H 0.27784 0.99729 0.75364 0.0
H1471 H 0.2579 0.96676 0.75873 0.0
H1472 H 0.26953 0.00863 0.78143 0.0
H1473 H 0.27936 0.00978 0.7701 0.0
H1474 H 0.25133 0.019 0.78089 0.0
H1475 H 0.25243 0.04941 0.7607 0.0
H1476 H 0.27614 0.02273 0.7543 0.0
C1477 C 0.25692 0.99174 0.77299 0.0
C1478 C 0.25426 0.98045 0.77005 0.0
C1479 C 0.26544 0.99791 0.7671 0.0
C1480 C 0.27103 0.99273 0.75795 0.0
C1481 C 0.26828 0.98149 0.75478 0.0
C1482 C 0.25979 0.97554 0.76082 0.0
C1483 C 0.27011 0.00893 0.77199 0.0
C1484 C 0.26411 0.01945 0.76773 0.0
C1485 C 0.2548 0.02375 0.77375 0.0
C1486 C 0.2504 0.03445 0.771 0.0
C1487 C 0.25538 0.04086 0.7622 0.0
C1488 C 0.26475 0.03685 0.75613 0.0
C1489 C 0.26887 0.02596 0.75879 0.0
H1490 H 0.99581 0.27996 0.75632 0.0
H1491 H 0.99804 0.25237 0.78044 0.0
H1492 H 0.96815 0.25581 0.75951 0.0
H1493 H 0.00908 0.28106 0.7721 0.0
H1494 H 0.00895 0.27053 0.78292 0.0
H1495 H 0.02181 0.27971 0.75569 0.0
H1496 H 0.0518 0.26024 0.76216 0.0
H1497 H 0.02197 0.25451 0.78247 0.0
C1498 C 0.99237 0.27211 0.75985 0.0
C1499 C 0.98129 0.26848 0.75676 0.0
C1500 C 0.99858 0.26627 0.76833 0.0
C1501 C 0.99363 0.25657 0.77351 0.0
C1502 C 0.9827 0.25269 0.77024 0.0
C1503 C 0.97674 0.25857 0.76175 0.0
C1504 C 0.00918 0.27171 0.77353 0.0
C1505 C 0.02033 0.26717 0.76915 0.0
C1506 C 0.02599 0.27285 0.76017 0.0
C1507 C 0.03742 0.27049 0.75775 0.0
C1508 C 0.04297 0.26203 0.764 0.0
C1509 C 0.03752 0.2562 0.7729 0.0
C1510 C 0.02609 0.25862 0.7753 0.0
H1511 H 0.73878 0.99721 0.7545 0.0
H1512 H 0.76524 0.99671 0.78006 0.0
H1513 H 0.76077 0.96853 0.75734 0.0
H1514 H 0.73749 0.00857 0.77212 0.0
H1515 H 0.74887 0.00893 0.78213 0.0
H1516 H 0.73865 0.01989 0.754 0.0
H1517 H 0.75802 0.05094 0.7576 0.0
H1518 H 0.76349 0.02341 0.78101 0.0
C1519 C 0.74611 0.99317 0.75832 0.0
C1520 C 0.74941 0.98242 0.7545 0.0
C1521 C 0.75187 0.99847 0.76746 0.0
C1522 C 0.76104 0.99287 0.77276 0.0
C1523 C 0.76442 0.9821 0.76906 0.0
C1524 C 0.75863 0.97708 0.75984 0.0
C1525 C 0.74694 0.00895 0.77285 0.0
C1526 C 0.75113 0.02006 0.76765 0.0
C1527 C 0.74543 0.02471 0.75814 0.0
C1528 C 0.748 0.03582 0.75438 0.0
C1529 C 0.75634 0.04222 0.76019 0.0
C1530 C 0.76187 0.03792 0.76987 0.0
C1531 C 0.7595 0.02668 0.77335 0.0
H1532 H 0.25306 0.73976 0.49959 0.0
H1533 H 0.28036 0.76454 0.49632 0.0
H1534 H 0.25678 0.75913 0.46874 0.0
H1535 H 0.27158 0.7384 0.5106 0.0
H1536 H 0.2815 0.7499 0.5106 0.0
H1537 H 0.25365 0.73924 0.5218 0.0
H1538 H 0.25731 0.75922 0.55209 0.0
H1539 H 0.2799 0.76519 0.52407 0.0
C1540 C 0.25724 0.74656 0.49489 0.0
C1541 C 0.25346 0.7492 0.48382 0.0
C1542 C 0.26682 0.75226 0.49963 0.0
C1543 C 0.27262 0.76057 0.49305 0.0
C1544 C 0.26909 0.76295 0.48185 0.0
C1545 C 0.25936 0.75746 0.47747 0.0
C1546 C 0.27222 0.74784 0.51052 0.0
C1547 C 0.26694 0.75218 0.52137 0.0
C1548 C 0.25767 0.74623 0.52633 0.0
C1549 C 0.25405 0.74883 0.53739 0.0
C1550 C 0.25974 0.75749 0.54341 0.0
C1551 C 0.26909 0.76339 0.53874 0.0
C1552 C 0.27245 0.76093 0.52758 0.0
H1553 H 0.75371 0.7817 0.52507 0.0
H1554 H 0.77631 0.7534 0.52238 0.0
H1555 H 0.75718 0.75826 0.55294 0.0
H1556 H 0.76875 0.78206 0.51114 0.0
H1557 H 0.77926 0.7714 0.51126 0.0
H1558 H 0.7503 0.77896 0.50057 0.0
H1559 H 0.75396 0.75892 0.47047 0.0
H1560 H 0.77867 0.75648 0.49749 0.0
C1561 C 0.75708 0.77387 0.52851 0.0
C1562 C 0.75432 0.77055 0.53968 0.0
C1563 C 0.76502 0.7677 0.52218 0.0
C1564 C 0.76991 0.75794 0.52704 0.0
C1565 C 0.76703 0.7544 0.53812 0.0
C1566 C 0.75913 0.76069 0.54425 0.0
C1567 C 0.76989 0.7727 0.51131 0.0
C1568 C 0.76467 0.76773 0.50057 0.0
C1569 C 0.75469 0.77243 0.49594 0.0
C1570 C 0.75076 0.76925 0.48507 0.0
C1571 C 0.75681 0.76116 0.47897 0.0
C1572 C 0.76697 0.7566 0.48324 0.0
C1573 C 0.77068 0.75968 0.49423 0.0
H1574 H 0.77926 0.26463 0.52553 0.0
H1575 H 0.7521 0.23964 0.52351 0.0
H1576 H 0.75697 0.25928 0.5539 0.0
H1577 H 0.78013 0.24916 0.51199 0.0
H1578 H 0.76956 0.23824 0.51182 0.0
H1579 H 0.77838 0.26603 0.49986 0.0
H1580 H 0.75587 0.2623 0.47108 0.0
H1581 H 0.75247 0.23967 0.49967 0.0
C1582 C 0.77174 0.26061 0.52915 0.0
C1583 C 0.76865 0.26312 0.54038 0.0
C1584 C 0.76578 0.25214 0.52295 0.0
C1585 C 0.75644 0.24644 0.52805 0.0
C1586 C 0.75312 0.24905 0.53921 0.0
C1587 C 0.7592 0.25749 0.54517 0.0
C1588 C 0.77075 0.24763 0.51203 0.0
C1589 C 0.76564 0.25264 0.50126 0.0
C1590 C 0.77109 0.26194 0.49582 0.0
C1591 C 0.76756 0.26554 0.48493 0.0
C1592 C 0.75829 0.25993 0.47968 0.0
C1593 C 0.75278 0.25062 0.48488 0.0
C1594 C 0.75645 0.24706 0.49573 0.0
H1595 H 0.25329 0.28158 0.52231 0.0
H1596 H 0.27742 0.25443 0.52289 0.0
H1597 H 0.25429 0.25849 0.55068 0.0
H1598 H 0.26985 0.28222 0.50993 0.0
H1599 H 0.28037 0.27156 0.51084 0.0
H1600 H 0.25266 0.2795 0.49778 0.0
H1601 H 0.25694 0.25684 0.46966 0.0
H1602 H 0.2796 0.25511 0.49843 0.0
C1603 C 0.25663 0.27399 0.52628 0.0
C1604 C 0.25247 0.27046 0.53693 0.0
C1605 C 0.26548 0.26809 0.52101 0.0
C1606 C 0.27025 0.25868 0.52662 0.0
C1607 C 0.26619 0.25511 0.53731 0.0
C1608 C 0.25712 0.26088 0.54223 0.0
C1609 C 0.27101 0.27287 0.51038 0.0
C1610 C 0.26635 0.26759 0.49955 0.0
C1611 C 0.25694 0.27242 0.49394 0.0
C1612 C 0.25342 0.26853 0.48316 0.0
C1613 C 0.25923 0.25952 0.47819 0.0
C1614 C 0.26867 0.25463 0.48359 0.0
C1615 C 0.27215 0.25865 0.49433 0.0
H1616 H 0.77888 0.52174 0.75426 0.0
H1617 H 0.75318 0.52162 0.78018 0.0
H1618 H 0.75726 0.5505 0.75792 0.0
H1619 H 0.78053 0.50963 0.77139 0.0
H1620 H 0.76957 0.50913 0.78171 0.0
H1621 H 0.77965 0.49749 0.75457 0.0
H1622 H 0.75689 0.46857 0.75683 0.0
H1623 H 0.7526 0.49685 0.77912 0.0
C1624 C 0.77169 0.52571 0.75827 0.0
C1625 C 0.76838 0.53659 0.75471 0.0
C1626 C 0.76616 0.52018 0.76738 0.0
C1627 C 0.75719 0.52568 0.77291 0.0
C1628 C 0.75382 0.53662 0.76949 0.0
C1629 C 0.75937 0.54186 0.76026 0.0
C1630 C 0.77111 0.50943 0.77239 0.0
C1631 C 0.76635 0.49864 0.76709 0.0
C1632 C 0.77218 0.49335 0.75817 0.0
C1633 C 0.76878 0.48249 0.75432 0.0
C1634 C 0.75925 0.47714 0.75931 0.0
C1635 C 0.75338 0.48223 0.76823 0.0
C1636 C 0.7569 0.49302 0.77202 0.0
H1637 H 0.2537 0.52066 0.74043 0.0
H1638 H 0.27807 0.52103 0.76799 0.0
H1639 H 0.25563 0.54914 0.76302 0.0
H1640 H 0.27089 0.50894 0.73987 0.0
H1641 H 0.28089 0.50914 0.75127 0.0
H1642 H 0.2522 0.498 0.74196 0.0
H1643 H 0.25592 0.46715 0.76117 0.0
H1644 H 0.28046 0.49435 0.76521 0.0
C1645 C 0.25722 0.52465 0.74798 0.0
C1646 C 0.25328 0.53535 0.75129 0.0
C1647 C 0.26608 0.51934 0.75406 0.0
C1648 C 0.27099 0.52488 0.76354 0.0
C1649 C 0.2672 0.53562 0.7669 0.0
C1650 C 0.25823 0.54064 0.76083 0.0
C1651 C 0.2716 0.50885 0.74931 0.0
C1652 C 0.26648 0.49776 0.75367 0.0
C1653 C 0.25658 0.49317 0.74848 0.0
C1654 C 0.25271 0.48213 0.75121 0.0
C1655 C 0.25875 0.47575 0.75928 0.0
C1656 C 0.26888 0.47994 0.76425 0.0
C1657 C 0.27251 0.49111 0.76166 0.0
H1658 H 0.27729 0.52032 0.2529 0.0
H1659 H 0.25261 0.52051 0.27977 0.0
H1660 H 0.25559 0.549 0.25692 0.0
H1661 H 0.27993 0.50906 0.27056 0.0
H1662 H 0.2692 0.50843 0.28108 0.0
H1663 H 0.27886 0.49684 0.25362 0.0
H1664 H 0.25899 0.46618 0.25831 0.0
H1665 H 0.25329 0.4949 0.27968 0.0
C1666 C 0.27021 0.52431 0.25708 0.0
C1667 C 0.2667 0.53512 0.25346 0.0
C1668 C 0.26511 0.51892 0.26651 0.0
C1669 C 0.25628 0.52443 0.27226 0.0
C1670 C 0.25267 0.53526 0.26876 0.0
C1671 C 0.25784 0.5404 0.25926 0.0
C1672 C 0.27053 0.50851 0.27172 0.0
C1673 C 0.26619 0.49736 0.26684 0.0
C1674 C 0.27198 0.49224 0.25779 0.0
C1675 C 0.26936 0.48099 0.25455 0.0
C1676 C 0.26078 0.47499 0.26041 0.0
C1677 C 0.25496 0.47989 0.26946 0.0
C1678 C 0.25748 0.49119 0.27244 0.0
H1679 H 0.7511 0.51859 0.24145 0.0
H1680 H 0.77833 0.52228 0.26606 0.0
H1681 H 0.75425 0.54897 0.26131 0.0
H1682 H 0.76918 0.50783 0.23995 0.0
H1683 H 0.77967 0.50854 0.25089 0.0
H1684 H 0.75183 0.49569 0.24207 0.0
H1685 H 0.75605 0.46693 0.26429 0.0
H1686 H 0.77878 0.49576 0.26715 0.0
C1687 C 0.75523 0.52332 0.24824 0.0
C1688 C 0.75125 0.53413 0.25107 0.0
C1689 C 0.76488 0.51883 0.2538 0.0
C1690 C 0.77057 0.52538 0.26218 0.0
C1691 C 0.76686 0.53635 0.26478 0.0
C1692 C 0.75704 0.54046 0.25941 0.0
C1693 C 0.7703 0.50815 0.24934 0.0
C1694 C 0.76548 0.49725 0.25443 0.0
C1695 C 0.75608 0.49171 0.24924 0.0
C1696 C 0.75256 0.48079 0.25283 0.0
C1697 C 0.75838 0.47556 0.26187 0.0
C1698 C 0.76786 0.48083 0.26706 0.0
C1699 C 0.77129 0.49175 0.26339 0.0
H1700 H 0.52029 0.23982 0.75401 0.0
H1701 H 0.52104 0.26562 0.77978 0.0
H1702 H 0.54949 0.26199 0.75733 0.0
H1703 H 0.5084 0.23809 0.77113 0.0
H1704 H 0.50874 0.24875 0.78172 0.0
H1705 H 0.49516 0.23902 0.75513 0.0
H1706 H 0.46667 0.26083 0.75935 0.0
H1707 H 0.49681 0.26584 0.7799 0.0
C1708 C 0.52444 0.2471 0.75794 0.0
C1709 C 0.5353 0.25066 0.75423 0.0
C1710 C 0.51916 0.25257 0.76708 0.0
C1711 C 0.52491 0.26166 0.77251 0.0
C1712 C 0.53588 0.26518 0.76903 0.0
C1713 C 0.54084 0.25974 0.75975 0.0
C1714 C 0.5085 0.24745 0.77236 0.0
C1715 C 0.49752 0.25225 0.76766 0.0
C1716 C 0.49151 0.24644 0.75899 0.0
C1717 C 0.48041 0.24959 0.756 0.0
C1718 C 0.47544 0.2588 0.76139 0.0
C1719 C 0.48127 0.26482 0.76996 0.0
C1720 C 0.49237 0.26153 0.77302 0.0
H1721 H 0.49782 0.77791 0.75398 0.0
H1722 H 0.49374 0.7528 0.78055 0.0
H1723 H 0.46685 0.75817 0.75621 0.0
H1724 H 0.50876 0.77884 0.77254 0.0
H1725 H 0.50834 0.76722 0.7822 0.0
H1726 H 0.51928 0.77723 0.75391 0.0
H1727 H 0.54949 0.75736 0.75718 0.0
H1728 H 0.52231 0.75269 0.78108 0.0
C1729 C 0.49297 0.77103 0.75786 0.0
C1730 C 0.48198 0.76838 0.75372 0.0
C1731 C 0.49746 0.76519 0.76737 0.0
C1732 C 0.49065 0.75683 0.77283 0.0
C1733 C 0.47949 0.75443 0.76899 0.0
C1734 C 0.47546 0.75995 0.7592 0.0
C1735 C 0.50841 0.7694 0.77298 0.0
C1736 C 0.5192 0.76496 0.76768 0.0
C1737 C 0.52389 0.77044 0.75805 0.0
C1738 C 0.53477 0.76763 0.75414 0.0
C1739 C 0.54094 0.75927 0.75994 0.0
C1740 C 0.53663 0.75393 0.76973 0.0
C1741 C 0.52559 0.75656 0.77337 0.0
H1742 H 0.52089 0.73579 0.2548 0.0
H1743 H 0.52283 0.76198 0.28024 0.0
H1744 H 0.55201 0.75479 0.25982 0.0
H1745 H 0.50784 0.7357 0.27101 0.0
H1746 H 0.50886 0.7463 0.28162 0.0
H1747 H 0.49696 0.73902 0.25319 0.0
H1748 H 0.46934 0.7622 0.25683 0.0
H1749 H 0.49735 0.76319 0.28052 0.0
C1750 C 0.52551 0.74273 0.25884 0.0
C1751 C 0.53703 0.74471 0.25618 0.0
C1752 C 0.52025 0.74901 0.2675 0.0
C1753 C 0.52661 0.75753 0.27321 0.0
C1754 C 0.53815 0.75954 0.27061 0.0
C1755 C 0.54312 0.75329 0.26189 0.0
C1756 C 0.50888 0.74502 0.27225 0.0
C1757 C 0.49866 0.75087 0.26706 0.0
C1758 C 0.49324 0.74622 0.25739 0.0
C1759 C 0.48266 0.75031 0.25359 0.0
C1760 C 0.47775 0.75939 0.25935 0.0
C1761 C 0.48294 0.7641 0.26905 0.0
C1762 C 0.49347 0.75986 0.27281 0.0
H1763 H 0.49655 0.27969 0.25639 0.0
H1764 H 0.49645 0.25276 0.28144 0.0
H1765 H 0.46602 0.26001 0.26247 0.0
H1766 H 0.51007 0.27986 0.27249 0.0
H1767 H 0.50993 0.26883 0.2828 0.0
H1768 H 0.51975 0.27722 0.25377 0.0
H1769 H 0.54954 0.25667 0.25676 0.0
H1770 H 0.52301 0.25348 0.28158 0.0
C1771 C 0.49228 0.27256 0.2605 0.0
C1772 C 0.48065 0.27043 0.25822 0.0
C1773 C 0.49811 0.2662 0.26888 0.0
C1774 C 0.49223 0.25735 0.27464 0.0
C1775 C 0.48062 0.2552 0.27242 0.0
C1776 C 0.47501 0.26163 0.2641 0.0
C1777 C 0.5095 0.27047 0.27347 0.0
C1778 C 0.51982 0.26538 0.26788 0.0
C1779 C 0.52433 0.27043 0.25796 0.0
C1780 C 0.53505 0.26729 0.25386 0.0
C1781 C 0.54114 0.25888 0.25969 0.0
C1782 C 0.53698 0.25393 0.26976 0.0
C1783 C 0.52614 0.25697 0.27363 0.0
H1784 H 0.21724 0.18435 0.11831 0.0
H1785 H 0.22529 0.19442 0.10199 0.0
H1786 H 0.19328 0.21101 0.09621 0.0
H1787 H 0.18502 0.20067 0.11242 0.0
H1788 H 0.20268 0.20403 0.07619 0.0
H1789 H 0.21502 0.22523 0.10874 0.0
H1790 H 0.2237 0.22812 0.12767 0.0
H1791 H 0.25559 0.21587 0.11549 0.0
H1792 H 0.24705 0.21274 0.09652 0.0
H1793 H 0.22644 0.24865 0.04083 0.0
H1794 H 0.21629 0.23636 0.0544 0.0
H1795 H 0.24786 0.22014 0.06323 0.0
H1796 H 0.25801 0.23254 0.04982 0.0
H1797 H 0.2379 0.22726 0.08164 0.0
H1798 H 0.2255 0.2061 0.04892 0.0
H1799 H 0.21676 0.20338 0.02999 0.0
H1800 H 0.18499 0.21578 0.04232 0.0
H1801 H 0.1936 0.21873 0.0613 0.0
C1802 C 0.21184 0.19003 0.11351 0.0
C1803 C 0.20046 0.19167 0.11671 0.0
C1804 C 0.2165 0.19587 0.10422 0.0
C1805 C 0.20994 0.20357 0.09792 0.0
C1806 C 0.19852 0.20513 0.10095 0.0
C1807 C 0.19384 0.19929 0.11029 0.0
C1808 C 0.21514 0.21012 0.08832 0.0
C1809 C 0.2103 0.20923 0.07739 0.0
C1810 C 0.22519 0.21676 0.08983 0.0
C1811 C 0.23036 0.21865 0.10123 0.0
C1812 C 0.22386 0.22306 0.11012 0.0
C1813 C 0.22876 0.22476 0.12086 0.0
C1814 C 0.24018 0.22216 0.12279 0.0
C1815 C 0.24673 0.21787 0.11399 0.0
C1816 C 0.24187 0.21614 0.10323 0.0
C1817 C 0.23113 0.2422 0.04539 0.0
C1818 C 0.24302 0.24155 0.04426 0.0
C1819 C 0.22533 0.23519 0.05319 0.0
C1820 C 0.2313 0.22731 0.05991 0.0
C1821 C 0.24306 0.22619 0.05823 0.0
C1822 C 0.24885 0.23323 0.05051 0.0
C1823 C 0.22559 0.22103 0.0694 0.0
C1824 C 0.2303 0.22203 0.08037 0.0
C1825 C 0.21543 0.21453 0.0679 0.0
C1826 C 0.21023 0.21275 0.0565 0.0
C1827 C 0.21668 0.20834 0.04757 0.0
C1828 C 0.21174 0.20674 0.03684 0.0
C1829 C 0.20034 0.20943 0.03495 0.0
C1830 C 0.19383 0.21371 0.0438 0.0
C1831 C 0.19873 0.21534 0.05455 0.0
H1832 H 0.19653 0.20819 0.02663 0.0
H1833 H 0.24396 0.22348 0.13111 0.0
H1834 H 0.8291 0.19623 0.10918 0.0
H1835 H 0.8212 0.2063 0.0927 0.0
H1836 H 0.78776 0.20426 0.10759 0.0
H1837 H 0.79557 0.19425 0.12403 0.0
H1838 H 0.78664 0.19853 0.08588 0.0
H1839 H 0.8038 0.22907 0.10738 0.0
H1840 H 0.81942 0.23935 0.11724 0.0
H1841 H 0.83836 0.24118 0.08618 0.0
H1842 H 0.82291 0.23077 0.07617 0.0
H1843 H 0.7554 0.24194 0.05975 0.0
H1844 H 0.7667 0.2306 0.07296 0.0
H1845 H 0.79455 0.23095 0.04926 0.0
H1846 H 0.7831 0.2423 0.03581 0.0
H1847 H 0.80045 0.23652 0.0731 0.0
H1848 H 0.78162 0.20759 0.05132 0.0
H1849 H 0.76525 0.19808 0.04194 0.0
H1850 H 0.74877 0.19385 0.07419 0.0
H1851 H 0.76497 0.2035 0.08375 0.0
C1852 C 0.82008 0.19804 0.10899 0.0
C1853 C 0.81296 0.19438 0.11792 0.0
C1854 C 0.81557 0.20378 0.09955 0.0
C1855 C 0.80387 0.20608 0.0989 0.0
C1856 C 0.79679 0.20252 0.10784 0.0
C1857 C 0.80127 0.19676 0.11724 0.0
C1858 C 0.79888 0.21204 0.08887 0.0
C1859 C 0.78964 0.20686 0.08315 0.0
C1860 C 0.80297 0.22279 0.08505 0.0
C1861 C 0.81227 0.22901 0.09106 0.0
C1862 C 0.81135 0.23157 0.10268 0.0
C1863 C 0.82015 0.23744 0.10829 0.0
C1864 C 0.82989 0.24088 0.10235 0.0
C1865 C 0.83083 0.23848 0.09078 0.0
C1866 C 0.82204 0.2326 0.08513 0.0
C1867 C 0.76393 0.23961 0.05734 0.0
C1868 C 0.76841 0.24304 0.04679 0.0
C1869 C 0.77036 0.2331 0.06488 0.0
C1870 C 0.78144 0.22992 0.06208 0.0
C1871 C 0.786 0.23333 0.05156 0.0
C1872 C 0.77947 0.23974 0.04389 0.0
C1873 C 0.78812 0.22308 0.07034 0.0
C1874 C 0.79762 0.2281 0.07573 0.0
C1875 C 0.78423 0.21223 0.07394 0.0
C1876 C 0.77448 0.20635 0.06824 0.0
C1877 C 0.77447 0.20472 0.0564 0.0
C1878 C 0.76522 0.19929 0.05106 0.0
C1879 C 0.75597 0.19538 0.05746 0.0
C1880 C 0.75594 0.19688 0.06923 0.0
C1881 C 0.76516 0.20232 0.07462 0.0
H1882 H 0.74882 0.19118 0.0533 0.0
H1883 H 0.8367 0.24543 0.1067 0.0
H1884 H 0.82705 0.82329 0.10918 0.0
H1885 H 0.81945 0.81253 0.09294 0.0
H1886 H 0.78873 0.80507 0.11162 0.0
H1887 H 0.79635 0.81552 0.12791 0.0
H1888 H 0.79613 0.78653 0.1012 0.0
H1889 H 0.78977 0.82563 0.09071 0.0
H1890 H 0.79553 0.84548 0.08675 0.0
H1891 H 0.81762 0.83442 0.06024 0.0
H1892 H 0.8121 0.81447 0.06415 0.0
H1893 H 0.7552 0.77055 0.06085 0.0
H1894 H 0.76657 0.78053 0.0751 0.0
H1895 H 0.79383 0.785 0.05102 0.0
H1896 H 0.78231 0.77494 0.03653 0.0
H1897 H 0.79087 0.80411 0.06313 0.0
H1898 H 0.79553 0.76496 0.07248 0.0
H1899 H 0.78996 0.74515 0.0769 0.0
H1900 H 0.7711 0.75627 0.10578 0.0
H1901 H 0.77641 0.77616 0.10146 0.0
C1902 C 0.81872 0.81927 0.10986 0.0
C1903 C 0.8123 0.82033 0.11985 0.0
C1904 C 0.81434 0.81321 0.10052 0.0
C1905 C 0.80345 0.80808 0.10099 0.0
C1906 C 0.79713 0.80898 0.11102 0.0
C1907 C 0.80147 0.81504 0.12031 0.0
C1908 C 0.79858 0.80167 0.09114 0.0
C1909 C 0.7949 0.79041 0.0929 0.0
C1910 C 0.79732 0.80658 0.08018 0.0
C1911 C 0.80063 0.81856 0.07782 0.0
C1912 C 0.79593 0.82743 0.0841 0.0
C1913 C 0.79914 0.83869 0.08185 0.0
C1914 C 0.80696 0.84121 0.07327 0.0
C1915 C 0.81157 0.83246 0.0669 0.0
C1916 C 0.80841 0.82117 0.06913 0.0
C1917 C 0.76367 0.77353 0.05857 0.0
C1918 C 0.76794 0.77173 0.04759 0.0
C1919 C 0.77017 0.77926 0.06676 0.0
C1920 C 0.78119 0.78329 0.06426 0.0
C1921 C 0.78539 0.78187 0.05319 0.0
C1922 C 0.77881 0.77614 0.04492 0.0
C1923 C 0.78813 0.78905 0.07329 0.0
C1924 C 0.79222 0.80017 0.07138 0.0
C1925 C 0.78976 0.78402 0.08415 0.0
C1926 C 0.78633 0.77207 0.08661 0.0
C1927 C 0.79011 0.7632 0.07972 0.0
C1928 C 0.78702 0.75195 0.08222 0.0
C1929 C 0.78021 0.74946 0.09163 0.0
C1930 C 0.7764 0.75821 0.09851 0.0
C1931 C 0.77945 0.76947 0.09604 0.0
H1932 H 0.7779 0.74075 0.09363 0.0
H1933 H 0.80943 0.84994 0.07154 0.0
H1934 H 0.20276 0.83714 0.10593 0.0
H1935 H 0.21005 0.82701 0.08954 0.0
H1936 H 0.20396 0.79507 0.10674 0.0
H1937 H 0.19702 0.80517 0.12336 0.0
H1938 H 0.22425 0.79515 0.09743 0.0
H1939 H 0.18678 0.80388 0.08462 0.0
H1940 H 0.17031 0.816 0.08053 0.0
H1941 H 0.1903 0.83563 0.05687 0.0
H1942 H 0.20695 0.82372 0.06094 0.0
H1943 H 0.2235 0.76735 0.0388 0.0
H1944 H 0.2133 0.77909 0.05241 0.0
H1945 H 0.24504 0.79516 0.06249 0.0
H1946 H 0.25524 0.78341 0.04899 0.0
H1947 H 0.21051 0.80176 0.05795 0.0
H1948 H 0.24628 0.79506 0.09134 0.0
H1949 H 0.26175 0.78159 0.09513 0.0
H1950 H 0.24284 0.75531 0.07783 0.0
H1951 H 0.22716 0.76854 0.07416 0.0
C1952 C 0.20301 0.82796 0.10627 0.0
C1953 C 0.19932 0.82199 0.11601 0.0
C1954 C 0.20707 0.82216 0.09681 0.0
C1955 C 0.20747 0.81025 0.09683 0.0
C1956 C 0.20372 0.80426 0.1065 0.0
C1957 C 0.19965 0.81005 0.11597 0.0
C1958 C 0.21219 0.80409 0.08693 0.0
C1959 C 0.22121 0.79661 0.08882 0.0
C1960 C 0.20814 0.8058 0.07566 0.0
C1961 C 0.19814 0.81297 0.07317 0.0
C1962 C 0.18769 0.81084 0.07861 0.0
C1963 C 0.17832 0.81766 0.07628 0.0
C1964 C 0.17926 0.82659 0.06846 0.0
C1965 C 0.18958 0.82871 0.06293 0.0
C1966 C 0.19899 0.82192 0.06524 0.0
C1967 C 0.22823 0.77367 0.04364 0.0
C1968 C 0.24017 0.77441 0.04291 0.0
C1969 C 0.2224 0.78034 0.05145 0.0
C1970 C 0.22844 0.78783 0.05864 0.0
C1971 C 0.24023 0.7893 0.05717 0.0
C1972 C 0.24605 0.78262 0.04943 0.0
C1973 C 0.22272 0.79312 0.06848 0.0
C1974 C 0.21352 0.80036 0.06658 0.0
C1975 C 0.22642 0.79101 0.07978 0.0
C1976 C 0.2356 0.78284 0.08238 0.0
C1977 C 0.24538 0.78638 0.08843 0.0
C1978 C 0.25419 0.77879 0.09055 0.0
C1979 C 0.25329 0.76761 0.08669 0.0
C1980 C 0.24354 0.76397 0.08079 0.0
C1981 C 0.23469 0.77152 0.07869 0.0
H1982 H 0.26014 0.76176 0.0883 0.0
H1983 H 0.172 0.83186 0.06667 0.0
H1984 H 0.21871 0.83457 0.90462 0.0
H1985 H 0.22693 0.82458 0.92088 0.0
H1986 H 0.19623 0.80424 0.92403 0.0
H1987 H 0.18799 0.81403 0.90756 0.0
H1988 H 0.20451 0.8119 0.94496 0.0
H1989 H 0.2188 0.79303 0.91201 0.0
H1990 H 0.22826 0.79187 0.89342 0.0
H1991 H 0.25898 0.80608 0.90788 0.0
H1992 H 0.24965 0.80748 0.92653 0.0
H1993 H 0.22704 0.76716 0.97937 0.0
H1994 H 0.21769 0.77956 0.96555 0.0
H1995 H 0.24974 0.79688 0.95931 0.0
H1996 H 0.25915 0.7843 0.97295 0.0
H1997 H 0.24055 0.79115 0.94009 0.0
H1998 H 0.22669 0.80965 0.97319 0.0
H1999 H 0.21736 0.81102 0.99182 0.0
H2000 H 0.18614 0.79791 0.97742 0.0
H2001 H 0.19533 0.79631 0.95872 0.0
C2002 C 0.21372 0.8279 0.90867 0.0
C2003 C 0.20271 0.82505 0.90466 0.0
C2004 C 0.21842 0.82224 0.91803 0.0
C2005 C 0.21224 0.81359 0.92362 0.0
C2006 C 0.20115 0.81091 0.91986 0.0
C2007 C 0.19644 0.81654 0.91045 0.0
C2008 C 0.21751 0.80717 0.93318 0.0
C2009 C 0.21232 0.80724 0.94389 0.0
C2010 C 0.22785 0.80133 0.93184 0.0
C2011 C 0.23349 0.80047 0.92064 0.0
C2012 C 0.22754 0.796 0.91121 0.0
C2013 C 0.23289 0.79528 0.90066 0.0
C2014 C 0.24421 0.79893 0.89947 0.0
C2015 C 0.25021 0.80327 0.90882 0.0
C2016 C 0.2449 0.80402 0.91938 0.0
C2017 C 0.23202 0.77382 0.97528 0.0
C2018 C 0.24383 0.77477 0.97725 0.0
C2019 C 0.22667 0.78091 0.96735 0.0
C2020 C 0.23298 0.78922 0.96137 0.0
C2021 C 0.24468 0.79051 0.96375 0.0
C2022 C 0.25005 0.78335 0.97158 0.0
C2023 C 0.22763 0.79592 0.95199 0.0
C2024 C 0.23278 0.79585 0.94125 0.0
C2025 C 0.2173 0.8018 0.95334 0.0
C2026 C 0.21174 0.80277 0.96457 0.0
C2027 C 0.21786 0.80698 0.97401 0.0
C2028 C 0.21259 0.80781 0.98458 0.0
C2029 C 0.20117 0.80453 0.98581 0.0
C2030 C 0.19499 0.80043 0.97646 0.0
C2031 C 0.20022 0.79958 0.96587 0.0
H2032 H 0.19711 0.80518 0.994 0.0
H2033 H 0.24833 0.79836 0.8913 0.0
H2034 H 0.17813 0.20817 0.91191 0.0
H2035 H 0.1878 0.21625 0.92847 0.0
H2036 H 0.21868 0.19932 0.91935 0.0
H2037 H 0.20889 0.19076 0.90299 0.0
H2038 H 0.21575 0.19819 0.9418 0.0
H2039 H 0.21492 0.22773 0.91366 0.0
H2040 H 0.20618 0.24057 0.89958 0.0
H2041 H 0.18546 0.25482 0.92563 0.0
H2042 H 0.19398 0.24194 0.93985 0.0
H2043 H 0.2556 0.23401 0.97162 0.0
H2044 H 0.2442 0.2226 0.9583 0.0
H2045 H 0.21373 0.23884 0.96975 0.0
H2046 H 0.22515 0.25036 0.98302 0.0
H2047 H 0.21583 0.23997 0.94681 0.0
H2048 H 0.21804 0.21086 0.97526 0.0
H2049 H 0.22756 0.19823 0.98902 0.0
H2050 H 0.24661 0.18343 0.96203 0.0
H2051 H 0.23733 0.19608 0.94812 0.0
C2052 C 0.18692 0.20599 0.91349 0.0
C2053 C 0.1927 0.19879 0.90604 0.0
C2054 C 0.1925 0.21074 0.92292 0.0
C2055 C 0.20404 0.20855 0.9251 0.0
C2056 C 0.20979 0.20119 0.91784 0.0
C2057 C 0.2042 0.19639 0.90841 0.0
C2058 C 0.21014 0.21411 0.93481 0.0
C2059 C 0.21587 0.20734 0.94282 0.0
C2060 C 0.21014 0.22604 0.93632 0.0
C2061 C 0.205 0.23379 0.92779 0.0
C2062 C 0.20844 0.23354 0.91637 0.0
C2063 C 0.20353 0.24083 0.90837 0.0
C2064 C 0.19524 0.24848 0.9117 0.0
C2065 C 0.19186 0.24887 0.92305 0.0
C2066 C 0.19673 0.24159 0.93109 0.0
C2067 C 0.24644 0.23495 0.97148 0.0
C2068 C 0.24127 0.24308 0.97838 0.0
C2069 C 0.23992 0.22841 0.96387 0.0
C2070 C 0.22809 0.22984 0.963 0.0
C2071 C 0.22284 0.23757 0.97027 0.0
C2072 C 0.22936 0.24407 0.97794 0.0
C2073 C 0.22141 0.22406 0.95382 0.0
C2074 C 0.21562 0.23081 0.94586 0.0
C2075 C 0.22146 0.21214 0.95232 0.0
C2076 C 0.22705 0.2045 0.96066 0.0
C2077 C 0.22433 0.20498 0.97227 0.0
C2078 C 0.22967 0.1978 0.98009 0.0
C2079 C 0.2377 0.19005 0.97641 0.0
C2080 C 0.2404 0.18944 0.96488 0.0
C2081 C 0.23509 0.19661 0.95702 0.0
H2082 H 0.24183 0.1845 0.98248 0.0
H2083 H 0.19146 0.25413 0.90549 0.0
H2084 H 0.83719 0.20442 0.91697 0.0
H2085 H 0.82625 0.21188 0.93277 0.0
H2086 H 0.79511 0.20631 0.91378 0.0
H2087 H 0.80603 0.1992 0.89778 0.0
H2088 H 0.79545 0.22686 0.92311 0.0
H2089 H 0.80282 0.18896 0.93627 0.0
H2090 H 0.81476 0.1726 0.9412 0.0
H2091 H 0.83266 0.19258 0.96621 0.0
H2092 H 0.82092 0.20912 0.96132 0.0
H2093 H 0.75545 0.23545 0.96543 0.0
H2094 H 0.7673 0.22543 0.95189 0.0
H2095 H 0.79718 0.23361 0.97201 0.0
H2096 H 0.78518 0.24351 0.98578 0.0
H2097 H 0.7982 0.21208 0.96262 0.0
H2098 H 0.79062 0.24985 0.94971 0.0
H2099 H 0.77843 0.2661 0.94508 0.0
H2100 H 0.76102 0.24638 0.91954 0.0
H2101 H 0.77297 0.22993 0.92417 0.0
C2102 C 0.82802 0.20482 0.91612 0.0
C2103 C 0.82251 0.20121 0.90606 0.0
C2104 C 0.82176 0.20898 0.92523 0.0
C2105 C 0.80983 0.20957 0.92454 0.0
C2106 C 0.8043 0.20591 0.91455 0.0
C2107 C 0.81055 0.20175 0.90543 0.0
C2108 C 0.80313 0.21436 0.93405 0.0
C2109 C 0.79595 0.22351 0.93171 0.0
C2110 C 0.80402 0.21025 0.94537 0.0
C2111 C 0.81107 0.20031 0.94835 0.0
C2112 C 0.80936 0.18989 0.94276 0.0
C2113 C 0.81608 0.18058 0.94555 0.0
C2114 C 0.82448 0.18156 0.95399 0.0
C2115 C 0.82616 0.19184 0.95967 0.0
C2116 C 0.81947 0.20118 0.95689 0.0
C2117 C 0.76452 0.23488 0.96708 0.0
C2118 C 0.76944 0.24024 0.97659 0.0
C2119 C 0.77129 0.22922 0.95932 0.0
C2120 C 0.78317 0.22896 0.9608 0.0
C2121 C 0.78804 0.23374 0.97067 0.0
C2122 C 0.78121 0.23937 0.97853 0.0
C2123 C 0.79043 0.22443 0.95161 0.0
C2124 C 0.79773 0.2154 0.95402 0.0
C2125 C 0.78969 0.22866 0.94033 0.0
C2126 C 0.78264 0.23862 0.93735 0.0
C2127 C 0.78415 0.24895 0.94315 0.0
C2128 C 0.77728 0.2582 0.94053 0.0
C2129 C 0.76894 0.25727 0.93204 0.0
C2130 C 0.76748 0.24709 0.92612 0.0
C2131 C 0.7743 0.2378 0.92874 0.0
H2132 H 0.76362 0.26444 0.93002 0.0
H2133 H 0.82968 0.17434 0.95614 0.0
H2134 H 0.82941 0.82742 0.91504 0.0
H2135 H 0.82043 0.81793 0.93137 0.0
H2136 H 0.79228 0.80727 0.90998 0.0
H2137 H 0.80109 0.81686 0.89372 0.0
H2138 H 0.78503 0.81622 0.9299 0.0
H2139 H 0.81254 0.78871 0.91815 0.0
H2140 H 0.83176 0.78203 0.9136 0.0
H2141 H 0.84317 0.78997 0.94745 0.0
H2142 H 0.82403 0.79684 0.95214 0.0
H2143 H 0.75701 0.77278 0.9595 0.0
H2144 H 0.76818 0.78412 0.9462 0.0
H2145 H 0.79357 0.79038 0.97222 0.0
H2146 H 0.78248 0.77856 0.98564 0.0
H2147 H 0.8034 0.78539 0.95194 0.0
H2148 H 0.77545 0.81126 0.96431 0.0
H2149 H 0.75619 0.81776 0.96895 0.0
H2150 H 0.74569 0.81322 0.9342 0.0
H2151 H 0.76484 0.80653 0.92939 0.0
C2152 C 0.8213 0.82307 0.91382 0.0
C2153 C 0.816 0.82287 0.90304 0.0
C2154 C 0.81621 0.81758 0.92315 0.0
C2155 C 0.8057 0.81183 0.9219 0.0
C2156 C 0.80039 0.81164 0.91116 0.0
C2157 C 0.8055 0.81705 0.90184 0.0
C2158 C 0.80006 0.80614 0.93177 0.0
C2159 C 0.78902 0.80942 0.93466 0.0
C2160 C 0.8054 0.79754 0.93827 0.0
C2161 C 0.8169 0.79341 0.93545 0.0
C2162 C 0.81917 0.78913 0.92459 0.0
C2163 C 0.83005 0.78529 0.92199 0.0
C2164 C 0.83869 0.78561 0.93022 0.0
C2165 C 0.83647 0.78975 0.94107 0.0
C2166 C 0.82561 0.79361 0.94371 0.0
C2167 C 0.76503 0.77644 0.96242 0.0
C2168 C 0.76891 0.77462 0.97363 0.0
C2169 C 0.77136 0.78306 0.95481 0.0
C2170 C 0.78167 0.78824 0.95821 0.0
C2171 C 0.78562 0.7865 0.9694 0.0
C2172 C 0.77925 0.77981 0.97708 0.0
C2173 C 0.78826 0.7953 0.94989 0.0
C2174 C 0.79947 0.79229 0.94729 0.0
C2175 C 0.7831 0.80421 0.94367 0.0
C2176 C 0.77158 0.80832 0.9465 0.0
C2177 C 0.76902 0.81158 0.95767 0.0
C2178 C 0.75812 0.8153 0.96033 0.0
C2179 C 0.74972 0.81588 0.95188 0.0
C2180 C 0.7522 0.81276 0.94074 0.0
C2181 C 0.76309 0.80902 0.93804 0.0
H2182 H 0.74128 0.81877 0.95396 0.0
H2183 H 0.8471 0.78263 0.92819 0.0
H2184 H 0.1021 0.19586 0.18572 0.0
H2185 H 0.08587 0.2034 0.19604 0.0
H2186 H 0.10827 0.21336 0.22357 0.0
H2187 H 0.12448 0.20563 0.21342 0.0
H2188 H 0.08881 0.20352 0.23146 0.0
H2189 H 0.09886 0.23271 0.20416 0.0
H2190 H 0.10254 0.24038 0.18496 0.0
H2191 H 0.06845 0.23127 0.17463 0.0
H2192 H 0.06462 0.2234 0.19374 0.0
H2193 H 0.05893 0.24463 0.26111 0.0
H2194 H 0.07213 0.23405 0.24959 0.0
H2195 H 0.04561 0.22783 0.22471 0.0
H2196 H 0.03231 0.23887 0.23614 0.0
H2197 H 0.06533 0.23402 0.21454 0.0
H2198 H 0.05464 0.2065 0.24244 0.0
H2199 H 0.05092 0.19903 0.26171 0.0
H2200 H 0.086 0.20481 0.2709 0.0
H2201 H 0.0899 0.21246 0.25174 0.0
C2202 C 0.10356 0.19955 0.19402 0.0
C2203 C 0.11463 0.20016 0.19872 0.0
C2204 C 0.09428 0.20395 0.19987 0.0
C2205 C 0.09584 0.20906 0.21054 0.0
C2206 C 0.10684 0.20949 0.21534 0.0
C2207 C 0.11612 0.20514 0.20948 0.0
C2208 C 0.0861 0.21408 0.21671 0.0
C2209 C 0.08373 0.21025 0.22779 0.0
C2210 C 0.07921 0.2226 0.21181 0.0
C2211 C 0.0815 0.22735 0.20034 0.0
C2212 C 0.09218 0.23225 0.19777 0.0
C2213 C 0.09429 0.23666 0.18691 0.0
C2214 C 0.08575 0.23628 0.17857 0.0
C2215 C 0.07507 0.23153 0.18109 0.0
C2216 C 0.07292 0.22711 0.19194 0.0
C2217 C 0.05587 0.24111 0.25314 0.0
C2218 C 0.04457 0.24274 0.24948 0.0
C2219 C 0.06343 0.23492 0.24662 0.0
C2220 C 0.05987 0.23 0.23632 0.0
C2221 C 0.04856 0.23151 0.23264 0.0
C2222 C 0.04094 0.23776 0.23921 0.0
C2223 C 0.06817 0.22362 0.22938 0.0
C2224 C 0.07029 0.22718 0.21816 0.0
C2225 C 0.07482 0.21482 0.23414 0.0
C2226 C 0.07254 0.21013 0.24566 0.0
C2227 C 0.06155 0.20625 0.24859 0.0
C2228 C 0.05941 0.20197 0.25949 0.0
C2229 C 0.06822 0.20146 0.26753 0.0
C2230 C 0.07919 0.20521 0.26467 0.0
C2231 C 0.08137 0.2095 0.25378 0.0
H2232 H 0.06654 0.19815 0.27597 0.0
H2233 H 0.08739 0.23969 0.17017 0.0
H2234 H 0.83832 0.10926 0.21466 0.0
H2235 H 0.82823 0.09275 0.22252 0.0
H2236 H 0.79832 0.10123 0.20295 0.0
H2237 H 0.80844 0.11763 0.19479 0.0
H2238 H 0.79341 0.09641 0.22532 0.0
H2239 H 0.81423 0.07932 0.19509 0.0
H2240 H 0.83136 0.07499 0.18404 0.0
H2241 H 0.84639 0.0592 0.21341 0.0
H2242 H 0.82941 0.06358 0.22468 0.0
H2243 H 0.76165 0.04757 0.2389 0.0
H2244 H 0.77224 0.06117 0.22705 0.0
H2245 H 0.80342 0.05226 0.24433 0.0
H2246 H 0.79286 0.03842 0.25602 0.0
H2247 H 0.80755 0.05707 0.2224 0.0
H2248 H 0.78779 0.07472 0.25291 0.0
H2249 H 0.77102 0.07898 0.26454 0.0
H2250 H 0.75465 0.09406 0.23551 0.0
H2251 H 0.77124 0.08969 0.22365 0.0
C2252 C 0.82966 0.10754 0.21185 0.0
C2253 C 0.82424 0.11481 0.20403 0.0
C2254 C 0.82388 0.0981 0.2164 0.0
C2255 C 0.81254 0.09569 0.21326 0.0
C2256 C 0.80707 0.10293 0.20551 0.0
C2257 C 0.81286 0.11234 0.2009 0.0
C2258 C 0.80631 0.08579 0.2183 0.0
C2259 C 0.7964 0.08778 0.22451 0.0
C2260 C 0.81039 0.07458 0.21754 0.0
C2261 C 0.82058 0.07187 0.21076 0.0
C2262 C 0.82122 0.075 0.19922 0.0
C2263 C 0.8309 0.07252 0.19291 0.0
C2264 C 0.83997 0.06684 0.19803 0.0
C2265 C 0.83937 0.06361 0.20946 0.0
C2266 C 0.82971 0.06608 0.21581 0.0
C2267 C 0.77081 0.04832 0.23996 0.0
C2268 C 0.77643 0.042 0.24841 0.0
C2269 C 0.77685 0.05614 0.23324 0.0
C2270 C 0.78859 0.05796 0.23499 0.0
C2271 C 0.79436 0.05105 0.24286 0.0
C2272 C 0.78833 0.04312 0.24951 0.0
C2273 C 0.79461 0.06768 0.22937 0.0
C2274 C 0.80451 0.06568 0.22312 0.0
C2275 C 0.7906 0.07893 0.2302 0.0
C2276 C 0.78071 0.08177 0.23736 0.0
C2277 C 0.78058 0.07888 0.24899 0.0
C2278 C 0.77111 0.08132 0.25562 0.0
C2279 C 0.76177 0.08677 0.25076 0.0
C2280 C 0.76189 0.08983 0.23926 0.0
C2281 C 0.77132 0.08737 0.23258 0.0
H2282 H 0.75444 0.08865 0.25591 0.0
H2283 H 0.84746 0.06493 0.19313 0.0
H2284 H 0.89605 0.82167 0.21423 0.0
H2285 H 0.91267 0.81403 0.22418 0.0
H2286 H 0.9241 0.79921 0.19293 0.0
H2287 H 0.90762 0.8069 0.18292 0.0
H2288 H 0.92481 0.78407 0.20996 0.0
H2289 H 0.93748 0.82267 0.20437 0.0
H2290 H 0.93618 0.8435 0.20553 0.0
H2291 H 0.9349 0.84132 0.24195 0.0
H2292 H 0.93603 0.82046 0.241 0.0
H2293 H 0.97789 0.76534 0.22997 0.0
H2294 H 0.96414 0.77645 0.21906 0.0
H2295 H 0.95251 0.79178 0.24998 0.0
H2296 H 0.96653 0.78102 0.26089 0.0
H2297 H 0.95225 0.80699 0.2329 0.0
H2298 H 0.93864 0.76872 0.23869 0.0
H2299 H 0.93959 0.74784 0.23791 0.0
H2300 H 0.94208 0.74938 0.20155 0.0
H2301 H 0.94132 0.77029 0.20211 0.0
C2302 C 0.90219 0.81693 0.20943 0.0
C2303 C 0.90043 0.81487 0.19776 0.0
C2304 C 0.91169 0.81255 0.21514 0.0
C2305 C 0.9197 0.80607 0.2093 0.0
C2306 C 0.91804 0.80413 0.19764 0.0
C2307 C 0.90856 0.8085 0.19193 0.0
C2308 C 0.92956 0.80093 0.21539 0.0
C2309 C 0.93091 0.78912 0.21482 0.0
C2310 C 0.93737 0.80744 0.22201 0.0
C2311 C 0.93673 0.81999 0.22261 0.0
C2312 C 0.93683 0.82663 0.21262 0.0
C2313 C 0.93614 0.83844 0.21324 0.0
C2314 C 0.93543 0.84373 0.2238 0.0
C2315 C 0.93544 0.83721 0.23377 0.0
C2316 C 0.93611 0.82539 0.2332 0.0
C2317 C 0.97265 0.77132 0.23442 0.0
C2318 C 0.97326 0.7722 0.24634 0.0
C2319 C 0.96468 0.77757 0.22818 0.0
C2320 C 0.95709 0.78477 0.23371 0.0
C2321 C 0.9582 0.78623 0.24551 0.0
C2322 C 0.96618 0.78002 0.25175 0.0
C2323 C 0.94752 0.79016 0.22737 0.0
C2324 C 0.94619 0.80197 0.22796 0.0
C2325 C 0.93966 0.78365 0.22081 0.0
C2326 C 0.94004 0.77107 0.22045 0.0
C2327 C 0.93947 0.76461 0.23053 0.0
C2328 C 0.93997 0.75277 0.23013 0.0
C2329 C 0.94093 0.74729 0.21969 0.0
C2330 C 0.94136 0.75364 0.20963 0.0
C2331 C 0.94089 0.76548 0.20998 0.0
H2332 H 0.94131 0.73813 0.2194 0.0
H2333 H 0.9349 0.85288 0.22427 0.0
H2334 H 0.19203 0.90933 0.19023 0.0
H2335 H 0.20183 0.92602 0.19826 0.0
H2336 H 0.208 0.90745 0.22937 0.0
H2337 H 0.19826 0.89081 0.22142 0.0
H2338 H 0.20006 0.92784 0.23393 0.0
H2339 H 0.22923 0.91303 0.20972 0.0
H2340 H 0.23732 0.90667 0.1916 0.0
H2341 H 0.23185 0.93961 0.17691 0.0
H2342 H 0.22359 0.94612 0.19491 0.0
H2343 H 0.24403 0.9571 0.26199 0.0
H2344 H 0.23272 0.94355 0.25097 0.0
H2345 H 0.22748 0.96889 0.22491 0.0
H2346 H 0.23908 0.98261 0.23596 0.0
H2347 H 0.23333 0.94734 0.21625 0.0
H2348 H 0.20601 0.96258 0.24151 0.0
H2349 H 0.19854 0.96872 0.25997 0.0
H2350 H 0.20091 0.93468 0.27292 0.0
H2351 H 0.20856 0.92835 0.25459 0.0
C2352 C 0.1956 0.90876 0.19873 0.0
C2353 C 0.19431 0.89873 0.2052 0.0
C2354 C 0.20119 0.91832 0.20332 0.0
C2355 C 0.20569 0.91801 0.21443 0.0
C2356 C 0.20453 0.90795 0.22082 0.0
C2357 C 0.19894 0.89844 0.21626 0.0
C2358 C 0.21138 0.92816 0.2196 0.0
C2359 C 0.20739 0.93204 0.23008 0.0
C2360 C 0.22071 0.93392 0.21443 0.0
C2361 C 0.22566 0.93002 0.20361 0.0
C2362 C 0.22966 0.91888 0.20259 0.0
C2363 C 0.2343 0.91526 0.19235 0.0
C2364 C 0.23506 0.92272 0.1831 0.0
C2365 C 0.23123 0.93383 0.18408 0.0
C2366 C 0.22657 0.9375 0.1943 0.0
C2367 C 0.24056 0.95981 0.25387 0.0
C2368 C 0.24254 0.97092 0.2498 0.0
C2369 C 0.23401 0.95206 0.24762 0.0
C2370 C 0.22918 0.95521 0.23715 0.0
C2371 C 0.23112 0.96629 0.23299 0.0
C2372 C 0.23767 0.97413 0.23932 0.0
C2373 C 0.22218 0.94677 0.23069 0.0
C2374 C 0.2259 0.94323 0.21999 0.0
C2375 C 0.21262 0.94126 0.23567 0.0
C2376 C 0.20793 0.94501 0.24669 0.0
C2377 C 0.20502 0.95641 0.24832 0.0
C2378 C 0.20074 0.95993 0.25876 0.0
C2379 C 0.19927 0.9521 0.26762 0.0
C2380 C 0.20205 0.94073 0.26605 0.0
C2381 C 0.20634 0.93718 0.25563 0.0
H2382 H 0.19596 0.95484 0.27569 0.0
H2383 H 0.23866 0.9199 0.17518 0.0
H2384 H 0.11897 0.79941 0.82494 0.0
H2385 H 0.10266 0.7924 0.81392 0.0
H2386 H 0.08906 0.82617 0.81255 0.0
H2387 H 0.10528 0.83322 0.82388 0.0
H2388 H 0.07239 0.81052 0.81686 0.0
H2389 H 0.10187 0.8156 0.78958 0.0
H2390 H 0.12107 0.81367 0.78153 0.0
H2391 H 0.11664 0.77743 0.78085 0.0
H2392 H 0.09747 0.77913 0.78906 0.0
H2393 H 0.04773 0.7828 0.76025 0.0
H2394 H 0.06094 0.79533 0.77063 0.0
H2395 H 0.05074 0.7795 0.80222 0.0
H2396 H 0.03738 0.76712 0.79186 0.0
H2397 H 0.07886 0.7889 0.78151 0.0
H2398 H 0.05636 0.79686 0.82455 0.0
H2399 H 0.03699 0.80017 0.83167 0.0
H2400 H 0.02694 0.81304 0.79893 0.0
H2401 H 0.04628 0.80995 0.79166 0.0
C2402 C 0.11247 0.80535 0.8224 0.0
C2403 C 0.11345 0.81689 0.82531 0.0
C2404 C 0.10318 0.80134 0.81601 0.0
C2405 C 0.09467 0.80877 0.8123 0.0
C2406 C 0.09553 0.82028 0.81529 0.0
C2407 C 0.10486 0.82431 0.82168 0.0
C2408 C 0.08497 0.80446 0.80524 0.0
C2409 C 0.07378 0.80582 0.80911 0.0
C2410 C 0.08675 0.79856 0.79498 0.0
C2411 C 0.09827 0.79749 0.79002 0.0
C2412 C 0.10503 0.80721 0.78779 0.0
C2413 C 0.1159 0.80616 0.78319 0.0
C2414 C 0.12008 0.79543 0.7807 0.0
C2415 C 0.11339 0.78573 0.78279 0.0
C2416 C 0.10252 0.78674 0.78741 0.0
C2417 C 0.04811 0.78221 0.76944 0.0
C2418 C 0.04152 0.77399 0.77525 0.0
C2419 C 0.05569 0.78933 0.77536 0.0
C2420 C 0.05689 0.78838 0.78722 0.0
C2421 C 0.04987 0.78056 0.7931 0.0
C2422 C 0.04221 0.77349 0.78717 0.0
C2423 C 0.06623 0.79468 0.79325 0.0
C2424 C 0.0774 0.79367 0.7892 0.0
C2425 C 0.06438 0.80107 0.80321 0.0
C2426 C 0.05275 0.80308 0.80754 0.0
C2427 C 0.05003 0.80044 0.81889 0.0
C2428 C 0.03906 0.80227 0.82294 0.0
C2429 C 0.03073 0.80678 0.81575 0.0
C2430 C 0.03338 0.80951 0.80449 0.0
C2431 C 0.04434 0.8077 0.80039 0.0
H2432 H 0.02224 0.80818 0.8189 0.0
H2433 H 0.1285 0.79464 0.77714 0.0
H2434 H 0.18564 0.10487 0.82431 0.0
H2435 H 0.19287 0.08822 0.81452 0.0
H2436 H 0.22542 0.10519 0.81035 0.0
H2437 H 0.21815 0.12197 0.81978 0.0
H2438 H 0.21991 0.09428 0.79153 0.0
H2439 H 0.22112 0.0851 0.83126 0.0
H2440 H 0.21337 0.08258 0.85055 0.0
H2441 H 0.18965 0.05732 0.83819 0.0
H2442 H 0.19716 0.0598 0.81878 0.0
H2443 H 0.25141 0.03838 0.79379 0.0
H2444 H 0.24003 0.052 0.80429 0.0
H2445 H 0.2186 0.05674 0.77474 0.0
H2446 H 0.23021 0.04341 0.76414 0.0
H2447 H 0.21839 0.05656 0.81057 0.0
H2448 H 0.21526 0.08585 0.77093 0.0
H2449 H 0.22436 0.08763 0.75215 0.0
H2450 H 0.25473 0.07257 0.76555 0.0
H2451 H 0.24612 0.07142 0.78454 0.0
C2452 C 0.19428 0.10513 0.82118 0.0
C2453 C 0.20132 0.11477 0.82292 0.0
C2454 C 0.19845 0.09555 0.81567 0.0
C2455 C 0.20975 0.09536 0.81182 0.0
C2456 C 0.21669 0.10508 0.81327 0.0
C2457 C 0.21254 0.11465 0.81877 0.0
C2458 C 0.21445 0.08502 0.80643 0.0
C2459 C 0.21951 0.08603 0.79568 0.0
C2460 C 0.21413 0.07425 0.81189 0.0
C2461 C 0.20962 0.07272 0.82355 0.0
C2462 C 0.21419 0.07907 0.83264 0.0
C2463 C 0.20985 0.07764 0.84359 0.0
C2464 C 0.201 0.06982 0.84559 0.0
C2465 C 0.19649 0.06339 0.83663 0.0
C2466 C 0.20079 0.0648 0.82565 0.0
C2467 C 0.24403 0.04204 0.78968 0.0
C2468 C 0.24172 0.03992 0.77815 0.0
C2469 C 0.23753 0.04984 0.79568 0.0
C2470 C 0.22861 0.05559 0.79023 0.0
C2471 C 0.22557 0.05256 0.77906 0.0
C2472 C 0.23216 0.04491 0.77302 0.0
C2473 C 0.22363 0.06579 0.7956 0.0
C2474 C 0.21862 0.06478 0.80636 0.0
C2475 C 0.22423 0.07662 0.79026 0.0
C2476 C 0.22995 0.07838 0.77914 0.0
C2477 C 0.22395 0.08312 0.76992 0.0
C2478 C 0.22905 0.08406 0.75924 0.0
C2479 C 0.24013 0.08023 0.75766 0.0
C2480 C 0.24619 0.07563 0.7668 0.0
C2481 C 0.24124 0.07491 0.77754 0.0
H2482 H 0.24401 0.08081 0.74935 0.0
H2483 H 0.19766 0.06872 0.85408 0.0
H2484 H 0.8949 0.21128 0.81601 0.0
H2485 H 0.91168 0.22048 0.80762 0.0
H2486 H 0.93073 0.18984 0.81265 0.0
H2487 H 0.91397 0.18059 0.8211 0.0
H2488 H 0.94385 0.20779 0.81748 0.0
H2489 H 0.91979 0.19662 0.78651 0.0
H2490 H 0.90193 0.19516 0.77539 0.0
H2491 H 0.90145 0.23144 0.77173 0.0
H2492 H 0.91923 0.23313 0.78298 0.0
H2493 H 0.97262 0.23349 0.76179 0.0
H2494 H 0.95929 0.22064 0.77159 0.0
H2495 H 0.96463 0.2394 0.80264 0.0
H2496 H 0.97833 0.2519 0.79293 0.0
H2497 H 0.93999 0.22547 0.7793 0.0
H2498 H 0.95705 0.22408 0.82579 0.0
H2499 H 0.97547 0.22373 0.836 0.0
H2500 H 0.99129 0.2092 0.80683 0.0
H2501 H 0.97294 0.20932 0.79649 0.0
C2502 C 0.90265 0.20648 0.81531 0.0
C2503 C 0.90305 0.19516 0.81916 0.0
C2504 C 0.91226 0.21176 0.81052 0.0
C2505 C 0.92245 0.20581 0.80934 0.0
C2506 C 0.92298 0.19462 0.81347 0.0
C2507 C 0.91338 0.18934 0.81832 0.0
C2508 C 0.93243 0.21117 0.8035 0.0
C2509 C 0.94302 0.21166 0.80912 0.0
C2510 C 0.93146 0.21597 0.79247 0.0
C2511 C 0.92078 0.215 0.78568 0.0
C2512 C 0.91583 0.20429 0.78341 0.0
C2513 C 0.90573 0.20342 0.77707 0.0
C2514 C 0.90055 0.21321 0.77288 0.0
C2515 C 0.90547 0.22387 0.775 0.0
C2516 C 0.91556 0.22479 0.78135 0.0
C2517 C 0.9712 0.23461 0.7708 0.0
C2518 C 0.97658 0.2436 0.77664 0.0
C2519 C 0.96351 0.22734 0.77638 0.0
C2520 C 0.96089 0.22899 0.7879 0.0
C2521 C 0.96662 0.23773 0.79385 0.0
C2522 C 0.97447 0.24489 0.7883 0.0
C2523 C 0.95146 0.22228 0.79332 0.0
C2524 C 0.9409 0.22158 0.78763 0.0
C2525 C 0.95257 0.21704 0.80415 0.0
C2526 C 0.96363 0.21681 0.81034 0.0
C2527 C 0.96445 0.22076 0.82157 0.0
C2528 C 0.97488 0.22062 0.82738 0.0
C2529 C 0.98455 0.21648 0.82206 0.0
C2530 C 0.9838 0.21244 0.81093 0.0
C2531 C 0.97339 0.21256 0.80509 0.0
H2532 H 0.99262 0.21638 0.82657 0.0
H2533 H 0.89273 0.21252 0.76797 0.0
H2534 H 0.82866 0.90099 0.79887 0.0
H2535 H 0.81843 0.91735 0.79149 0.0
H2536 H 0.80588 0.92421 0.82506 0.0
H2537 H 0.81619 0.90783 0.83257 0.0
H2538 H 0.78921 0.92628 0.80935 0.0
H2539 H 0.82738 0.94043 0.81362 0.0
H2540 H 0.84824 0.94046 0.8113 0.0
H2541 H 0.84414 0.94206 0.77503 0.0
H2542 H 0.82324 0.94188 0.77712 0.0
H2543 H 0.76653 0.97922 0.79215 0.0
H2544 H 0.77859 0.96566 0.80228 0.0
H2545 H 0.79331 0.9556 0.77049 0.0
H2546 H 0.78153 0.96935 0.76037 0.0
H2547 H 0.80925 0.95619 0.78691 0.0
H2548 H 0.77124 0.94041 0.78259 0.0
H2549 H 0.75035 0.94009 0.78477 0.0
H2550 H 0.75422 0.94142 0.82105 0.0
H2551 H 0.77514 0.9419 0.8191 0.0
C2552 C 0.82383 0.90603 0.80474 0.0
C2553 C 0.82336 0.90312 0.81636 0.0
C2554 C 0.81796 0.91539 0.80049 0.0
C2555 C 0.81152 0.92216 0.80774 0.0
C2556 C 0.81082 0.91916 0.8193 0.0
C2557 C 0.81669 0.90976 0.82357 0.0
C2558 C 0.80546 0.93227 0.80318 0.0
C2559 C 0.79363 0.93292 0.80463 0.0
C2560 C 0.81117 0.94086 0.79682 0.0
C2561 C 0.82374 0.94105 0.79553 0.0
C2562 C 0.83092 0.94071 0.80514 0.0
C2563 C 0.84276 0.94076 0.80387 0.0
C2564 C 0.84751 0.94124 0.79302 0.0
C2565 C 0.84044 0.94168 0.78343 0.0
C2566 C 0.8286 0.94162 0.78465 0.0
C2567 C 0.77256 0.97434 0.78735 0.0
C2568 C 0.77302 0.97533 0.77543 0.0
C2569 C 0.77935 0.96648 0.79314 0.0
C2570 C 0.78671 0.95943 0.78713 0.0
C2571 C 0.78766 0.96088 0.77532 0.0
C2572 C 0.78088 0.96872 0.76954 0.0
C2573 C 0.79299 0.95013 0.79298 0.0
C2574 C 0.80485 0.94961 0.79175 0.0
C2575 C 0.78731 0.94165 0.79952 0.0
C2576 C 0.77475 0.94132 0.80069 0.0
C2577 C 0.76763 0.94072 0.79103 0.0
C2578 C 0.75579 0.9405 0.79222 0.0
C2579 C 0.75096 0.94077 0.80303 0.0
C2580 C 0.75797 0.94123 0.81268 0.0
C2581 C 0.76982 0.94147 0.81154 0.0
H2582 H 0.74179 0.94059 0.80393 0.0
H2583 H 0.85667 0.94128 0.79206 0.0
H2584 H 0.17853 0.10463 0.21033 0.0
H2585 H 0.18889 0.08844 0.21796 0.0
H2586 H 0.2205 0.10325 0.2061 0.0
H2587 H 0.21019 0.11958 0.19851 0.0
H2588 H 0.2195 0.08028 0.2024 0.0
H2589 H 0.21341 0.10539 0.23364 0.0
H2590 H 0.20211 0.11724 0.2464 0.0
H2591 H 0.18234 0.08796 0.25657 0.0
H2592 H 0.19342 0.07596 0.24374 0.0
H2593 H 0.25759 0.04953 0.23837 0.0
H2594 H 0.24659 0.06325 0.22739 0.0
H2595 H 0.21547 0.04931 0.24136 0.0
H2596 H 0.22646 0.03585 0.25272 0.0
H2597 H 0.21594 0.07152 0.24353 0.0
H2598 H 0.22274 0.04615 0.2128 0.0
H2599 H 0.23423 0.03442 0.2001 0.0
H2600 H 0.2529 0.06409 0.18906 0.0
H2601 H 0.24162 0.07598 0.20181 0.0
C2602 C 0.1877 0.1045 0.20938 0.0
C2603 C 0.19352 0.11352 0.20391 0.0
C2604 C 0.19361 0.0952 0.21372 0.0
C2605 C 0.2055 0.09468 0.21276 0.0
C2606 C 0.21132 0.10345 0.20695 0.0
C2607 C 0.2054 0.11278 0.2026 0.0
C2608 C 0.21187 0.08519 0.21816 0.0
C2609 C 0.21883 0.07843 0.21142 0.0
C2610 C 0.21082 0.08261 0.22988 0.0
C2611 C 0.20417 0.0898 0.23764 0.0
C2612 C 0.20659 0.10149 0.23853 0.0
C2613 C 0.20024 0.10823 0.24579 0.0
C2614 C 0.19149 0.10336 0.25227 0.0
C2615 C 0.1891 0.09173 0.25153 0.0
C2616 C 0.19542 0.08495 0.24427 0.0
C2617 C 0.24839 0.04928 0.239 0.0
C2618 C 0.24293 0.04159 0.24648 0.0
C2619 C 0.24209 0.05709 0.23264 0.0
C2620 C 0.23016 0.05733 0.23349 0.0
C2621 C 0.22465 0.04932 0.24055 0.0
C2622 C 0.23095 0.04152 0.24695 0.0
C2623 C 0.22355 0.06649 0.22778 0.0
C2624 C 0.21657 0.07327 0.23449 0.0
C2625 C 0.22462 0.06907 0.21604 0.0
C2626 C 0.2314 0.06194 0.20834 0.0
C2627 C 0.22936 0.05016 0.20773 0.0
C2628 C 0.23582 0.04349 0.20051 0.0
C2629 C 0.24431 0.04851 0.19379 0.0
C2630 C 0.24633 0.06022 0.19427 0.0
C2631 C 0.23989 0.06693 0.20149 0.0
H2632 H 0.2493 0.04332 0.18821 0.0
H2633 H 0.18659 0.10859 0.25789 0.0
H2634 H 0.20842 0.89561 0.81923 0.0
H2635 H 0.21918 0.91194 0.81186 0.0
H2636 H 0.18873 0.93194 0.81203 0.0
H2637 H 0.1779 0.9156 0.81942 0.0
H2638 H 0.19974 0.935 0.7926 0.0
H2639 H 0.2101 0.93626 0.83184 0.0
H2640 H 0.21691 0.9288 0.85026 0.0
H2641 H 0.24913 0.92101 0.83541 0.0
H2642 H 0.24246 0.92827 0.81685 0.0
H2643 H 0.23273 0.98489 0.77781 0.0
H2644 H 0.22014 0.97204 0.78876 0.0
H2645 H 0.24642 0.94688 0.7895 0.0
H2646 H 0.25894 0.95963 0.77875 0.0
H2647 H 0.23613 0.94846 0.80997 0.0
H2648 H 0.22481 0.94517 0.77042 0.0
H2649 H 0.21799 0.95249 0.75194 0.0
H2650 H 0.18748 0.96419 0.76763 0.0
H2651 H 0.1942 0.95708 0.78625 0.0
C2652 C 0.20403 0.90352 0.81786 0.0
C2653 C 0.19229 0.90428 0.81995 0.0
C2654 C 0.2102 0.91287 0.81363 0.0
C2655 C 0.20481 0.92324 0.8115 0.0
C2656 C 0.19309 0.92404 0.81359 0.0
C2657 C 0.1869 0.91468 0.81779 0.0
C2658 C 0.21135 0.9331 0.80674 0.0
C2659 C 0.20758 0.93809 0.79653 0.0
C2660 C 0.22167 0.93707 0.81176 0.0
C2661 C 0.22574 0.93274 0.82293 0.0
C2662 C 0.21861 0.93288 0.83248 0.0
C2663 C 0.22245 0.9287 0.84295 0.0
C2664 C 0.23344 0.92441 0.844 0.0
C2665 C 0.24062 0.92432 0.83458 0.0
C2666 C 0.23681 0.92849 0.82409 0.0
C2667 C 0.23581 0.97666 0.78042 0.0
C2668 C 0.24674 0.9732 0.7773 0.0
C2669 C 0.22861 0.96931 0.78662 0.0
C2670 C 0.2323 0.95843 0.78985 0.0
C2671 C 0.24337 0.95519 0.78709 0.0
C2672 C 0.25049 0.96246 0.78086 0.0
C2673 C 0.22462 0.95017 0.79575 0.0
C2674 C 0.22819 0.94548 0.80616 0.0
C2675 C 0.21412 0.94648 0.79093 0.0
C2676 C 0.21007 0.95073 0.77974 0.0
C2677 C 0.21669 0.9494 0.76995 0.0
C2678 C 0.21284 0.95349 0.75944 0.0
C2679 C 0.20232 0.95884 0.75862 0.0
C2680 C 0.19563 0.96007 0.76829 0.0
C2681 C 0.19946 0.95601 0.77882 0.0
H2682 H 0.19935 0.962 0.75048 0.0
H2683 H 0.23639 0.92118 0.85211 0.0
H2684 H 0.12222 0.2098 0.82027 0.0
H2685 H 0.10588 0.22057 0.81352 0.0
H2686 H 0.08566 0.18971 0.81186 0.0
H2687 H 0.10199 0.17887 0.81862 0.0
H2688 H 0.08254 0.202 0.79314 0.0
H2689 H 0.08153 0.20947 0.83293 0.0
H2690 H 0.0892 0.21518 0.85165 0.0
H2691 H 0.09704 0.24849 0.83857 0.0
H2692 H 0.08956 0.24293 0.81972 0.0
H2693 H 0.03274 0.23419 0.77964 0.0
H2694 H 0.04542 0.22134 0.7902 0.0
H2695 H 0.07051 0.24835 0.79318 0.0
H2696 H 0.05792 0.26111 0.78286 0.0
H2697 H 0.06917 0.23646 0.81266 0.0
H2698 H 0.0723 0.22822 0.77254 0.0
H2699 H 0.0649 0.22256 0.75369 0.0
H2700 H 0.05313 0.1907 0.76753 0.0
H2701 H 0.06033 0.19624 0.78651 0.0
C2702 C 0.11426 0.20531 0.81863 0.0
C2703 C 0.11345 0.19345 0.82003 0.0
C2704 C 0.1049 0.21149 0.81476 0.0
C2705 C 0.09445 0.20599 0.81229 0.0
C2706 C 0.0936 0.19416 0.81369 0.0
C2707 C 0.10298 0.18796 0.81753 0.0
C2708 C 0.08456 0.21257 0.80793 0.0
C2709 C 0.07947 0.20941 0.79754 0.0
C2710 C 0.08061 0.22234 0.81354 0.0
C2711 C 0.08506 0.22575 0.82489 0.0
C2712 C 0.08496 0.21799 0.83402 0.0
C2713 C 0.08926 0.2212 0.84466 0.0
C2714 C 0.09362 0.23219 0.84629 0.0
C2715 C 0.09366 0.23999 0.83729 0.0
C2716 C 0.08938 0.23681 0.82663 0.0
C2717 C 0.04089 0.23738 0.78272 0.0
C2718 C 0.0444 0.2486 0.78031 0.0
C2719 C 0.04816 0.23003 0.78868 0.0
C2720 C 0.05901 0.23383 0.79237 0.0
C2721 C 0.06223 0.24519 0.79042 0.0
C2722 C 0.05504 0.25246 0.78444 0.0
C2723 C 0.06732 0.226 0.7978 0.0
C2724 C 0.07212 0.22895 0.80837 0.0
C2725 C 0.07101 0.21604 0.79236 0.0
C2726 C 0.06672 0.2127 0.78096 0.0
C2727 C 0.06805 0.22005 0.77158 0.0
C2728 C 0.06391 0.21686 0.76087 0.0
C2729 C 0.05852 0.20629 0.75942 0.0
C2730 C 0.05728 0.19889 0.76867 0.0
C2731 C 0.06139 0.20204 0.7794 0.0
H2732 H 0.05532 0.20384 0.75112 0.0
H2733 H 0.09695 0.23466 0.85453 0.0
H2734 H 0.82921 0.10792 0.82621 0.0
H2735 H 0.82124 0.09142 0.81615 0.0
H2736 H 0.78877 0.10789 0.81363 0.0
H2737 H 0.79666 0.12435 0.82363 0.0
H2738 H 0.7859 0.08663 0.82057 0.0
H2739 H 0.80682 0.10556 0.79066 0.0
H2740 H 0.82384 0.11401 0.78156 0.0
H2741 H 0.84071 0.08201 0.78381 0.0
H2742 H 0.82383 0.0734 0.79306 0.0
H2743 H 0.75609 0.05894 0.77686 0.0
H2744 H 0.76731 0.07239 0.78813 0.0
H2745 H 0.79455 0.04837 0.79065 0.0
H2746 H 0.78325 0.03474 0.77917 0.0
H2747 H 0.80182 0.07119 0.78503 0.0
H2748 H 0.7796 0.05191 0.81319 0.0
H2749 H 0.76209 0.04378 0.8216 0.0
H2750 H 0.74727 0.07684 0.82217 0.0
H2751 H 0.76463 0.08516 0.8136 0.0
C2752 C 0.82041 0.10808 0.82339 0.0
C2753 C 0.81357 0.11746 0.82579 0.0
C2754 C 0.81586 0.09862 0.81765 0.0
C2755 C 0.80439 0.09839 0.81409 0.0
C2756 C 0.79761 0.10781 0.81636 0.0
C2757 C 0.80213 0.11722 0.8221 0.0
C2758 C 0.79929 0.08831 0.80823 0.0
C2759 C 0.78936 0.08332 0.81276 0.0
C2760 C 0.80397 0.08372 0.79822 0.0
C2761 C 0.81412 0.08888 0.79268 0.0
C2762 C 0.8142 0.10036 0.78931 0.0
C2763 C 0.82381 0.10517 0.7841 0.0
C2764 C 0.83337 0.09856 0.78214 0.0
C2765 C 0.83332 0.08712 0.78536 0.0
C2766 C 0.82373 0.08227 0.79058 0.0
C2767 C 0.76449 0.05651 0.77974 0.0
C2768 C 0.76883 0.0458 0.77705 0.0
C2769 C 0.77087 0.06419 0.78626 0.0
C2770 C 0.78174 0.06138 0.79028 0.0
C2771 C 0.78616 0.0507 0.78762 0.0
C2772 C 0.7797 0.04291 0.78114 0.0
C2773 C 0.78832 0.06974 0.79725 0.0
C2774 C 0.7985 0.0744 0.79294 0.0
C2775 C 0.78384 0.07409 0.80744 0.0
C2776 C 0.7734 0.06915 0.81268 0.0
C2777 C 0.77258 0.05744 0.81503 0.0
C2778 C 0.76268 0.0528 0.81984 0.0
C2779 C 0.75356 0.05979 0.8224 0.0
C2780 C 0.75434 0.07144 0.82018 0.0
C2781 C 0.76421 0.07612 0.81536 0.0
H2782 H 0.74591 0.05618 0.82613 0.0
H2783 H 0.8408 0.1023 0.77811 0.0
H2784 H 0.9157 0.82914 0.82858 0.0
H2785 H 0.93197 0.8202 0.81949 0.0
H2786 H 0.90994 0.79296 0.80779 0.0
H2787 H 0.89373 0.80173 0.81699 0.0
H2788 H 0.9295 0.78503 0.81733 0.0
H2789 H 0.91906 0.81367 0.78974 0.0
H2790 H 0.91525 0.83317 0.78318 0.0
H2791 H 0.94936 0.84345 0.79232 0.0
H2792 H 0.95332 0.82403 0.79908 0.0
H2793 H 0.95842 0.75808 0.77392 0.0
H2794 H 0.9455 0.7691 0.78533 0.0
H2795 H 0.97257 0.7932 0.79272 0.0
H2796 H 0.98563 0.78224 0.7809 0.0
H2797 H 0.95262 0.80386 0.7873 0.0
H2798 H 0.96376 0.77483 0.8131 0.0
H2799 H 0.96769 0.75532 0.81956 0.0
H2800 H 0.9326 0.74586 0.81417 0.0
H2801 H 0.92848 0.76527 0.80751 0.0
C2802 C 0.91433 0.82124 0.82409 0.0
C2803 C 0.90339 0.81617 0.82349 0.0
C2804 C 0.92363 0.81617 0.81883 0.0
C2805 C 0.92218 0.80592 0.8129 0.0
C2806 C 0.91128 0.80087 0.8123 0.0
C2807 C 0.90198 0.80595 0.81749 0.0
C2808 C 0.932 0.80029 0.80745 0.0
C2809 C 0.9345 0.78912 0.81071 0.0
C2810 C 0.93882 0.80576 0.7991 0.0
C2811 C 0.93644 0.81743 0.79504 0.0
C2812 C 0.92572 0.82011 0.79045 0.0
C2813 C 0.92354 0.83115 0.78667 0.0
C2814 C 0.93205 0.83955 0.78737 0.0
C2815 C 0.94277 0.83693 0.79181 0.0
C2816 C 0.94498 0.82591 0.79561 0.0
C2817 C 0.96165 0.76578 0.77788 0.0
C2818 C 0.97305 0.76935 0.77637 0.0
C2819 C 0.95426 0.77202 0.78452 0.0
C2820 C 0.95805 0.78194 0.79 0.0
C2821 C 0.96945 0.78556 0.78859 0.0
C2822 C 0.97691 0.77926 0.78191 0.0
C2823 C 0.94993 0.78848 0.79698 0.0
C2824 C 0.94774 0.79982 0.79404 0.0
C2825 C 0.94341 0.78319 0.80567 0.0
C2826 C 0.94583 0.7715 0.80974 0.0
C2827 C 0.95689 0.76857 0.81322 0.0
C2828 C 0.95915 0.75753 0.81692 0.0
C2829 C 0.9504 0.74935 0.81725 0.0
C2830 C 0.93937 0.75221 0.8139 0.0
C2831 C 0.93706 0.76323 0.81018 0.0
H2832 H 0.95217 0.74081 0.82013 0.0
H2833 H 0.93034 0.84809 0.78444 0.0
H2834 H 0.81393 0.89269 0.21939 0.0
H2835 H 0.80437 0.90916 0.22715 0.0
H2836 H 0.81783 0.93006 0.19998 0.0
H2837 H 0.82756 0.9136 0.19228 0.0
H2838 H 0.81944 0.94136 0.21878 0.0
H2839 H 0.78945 0.92077 0.20046 0.0
H2840 H 0.77723 0.90424 0.19567 0.0
H2841 H 0.76635 0.90169 0.23037 0.0
H2842 H 0.77864 0.91811 0.23542 0.0
H2843 H 0.76262 0.97286 0.23564 0.0
H2844 H 0.77311 0.9593 0.2242 0.0
H2845 H 0.80117 0.96119 0.2481 0.0
H2846 H 0.7909 0.9752 0.25916 0.0
H2847 H 0.7785 0.93939 0.22876 0.0
H2848 H 0.82576 0.95271 0.23699 0.0
H2849 H 0.8373 0.97021 0.23951 0.0
H2850 H 0.81245 0.98918 0.22075 0.0
H2851 H 0.80083 0.97177 0.21798 0.0
C2852 C 0.81477 0.90077 0.215 0.0
C2853 C 0.82146 0.9018 0.20517 0.0
C2854 C 0.80929 0.9102 0.21945 0.0
C2855 C 0.81022 0.92088 0.21408 0.0
C2856 C 0.81697 0.92195 0.20431 0.0
C2857 C 0.82254 0.91252 0.1999 0.0
C2858 C 0.80422 0.9309 0.21874 0.0
C2859 C 0.81048 0.94093 0.22093 0.0
C2860 C 0.79244 0.93052 0.22132 0.0
C2861 C 0.78506 0.92061 0.21834 0.0
C2862 C 0.78453 0.91663 0.20709 0.0
C2863 C 0.77758 0.90728 0.20433 0.0
C2864 C 0.77104 0.9019 0.21271 0.0
C2865 C 0.77143 0.90586 0.22388 0.0
C2866 C 0.77838 0.91519 0.2267 0.0
C2867 C 0.77118 0.97061 0.23823 0.0
C2868 C 0.77602 0.97518 0.24818 0.0
C2869 C 0.77714 0.96278 0.23175 0.0
C2870 C 0.78801 0.95918 0.23519 0.0
C2871 C 0.79295 0.96398 0.24503 0.0
C2872 C 0.78708 0.97199 0.25138 0.0
C2873 C 0.79375 0.94984 0.22899 0.0
C2874 C 0.78744 0.93989 0.22655 0.0
C2875 C 0.80539 0.95044 0.22587 0.0
C2876 C 0.81238 0.96094 0.22737 0.0
C2877 C 0.82279 0.9606 0.23336 0.0
C2878 C 0.82933 0.97051 0.23484 0.0
C2879 C 0.82559 0.98081 0.23032 0.0
C2880 C 0.81531 0.98121 0.22428 0.0
C2881 C 0.80874 0.97133 0.22276 0.0
H2882 H 0.83067 0.98847 0.23149 0.0
H2883 H 0.76566 0.89467 0.21055 0.0
H2884 H 0.1045 0.80811 0.18227 0.0
H2885 H 0.08835 0.80094 0.19327 0.0
H2886 H 0.10476 0.81227 0.22421 0.0
H2887 H 0.12118 0.81908 0.21328 0.0
H2888 H 0.0964 0.79147 0.22696 0.0
H2889 H 0.08173 0.82633 0.2125 0.0
H2890 H 0.07698 0.84063 0.1979 0.0
H2891 H 0.05486 0.81651 0.18117 0.0
H2892 H 0.0596 0.802 0.19559 0.0
H2893 H 0.04918 0.78036 0.26188 0.0
H2894 H 0.0631 0.79181 0.25127 0.0
H2895 H 0.04983 0.77828 0.21978 0.0
H2896 H 0.03594 0.76673 0.23034 0.0
H2897 H 0.05634 0.80114 0.21788 0.0
H2898 H 0.07198 0.76611 0.23186 0.0
H2899 H 0.07647 0.75198 0.24672 0.0
H2900 H 0.09682 0.77684 0.26453 0.0
H2901 H 0.09227 0.79119 0.24987 0.0
C2902 C 0.10473 0.80904 0.19142 0.0
C2903 C 0.11419 0.81417 0.19687 0.0
C2904 C 0.0954 0.80504 0.1977 0.0
C2905 C 0.09523 0.80617 0.20958 0.0
C2906 C 0.10464 0.81133 0.21505 0.0
C2907 C 0.114 0.81532 0.20877 0.0
C2908 C 0.08546 0.80158 0.21631 0.0
C2909 C 0.08767 0.79376 0.22509 0.0
C2910 C 0.07401 0.80434 0.21374 0.0
C2911 C 0.07111 0.81305 0.20507 0.0
C2912 C 0.07592 0.82404 0.20566 0.0
C2913 C 0.07322 0.83219 0.19742 0.0
C2914 C 0.06564 0.82947 0.1886 0.0
C2915 C 0.06073 0.8186 0.188 0.0
C2916 C 0.06342 0.81042 0.19621 0.0
C2917 C 0.04909 0.77997 0.25268 0.0
C2918 C 0.04152 0.77253 0.24697 0.0
C2919 C 0.05706 0.78651 0.24663 0.0
C2920 C 0.05765 0.78574 0.23474 0.0
C2921 C 0.04955 0.77899 0.22895 0.0
C2922 C 0.04157 0.77243 0.235 0.0
C2923 C 0.06733 0.79109 0.22848 0.0
C2924 C 0.0651 0.79897 0.21979 0.0
C2925 C 0.07878 0.78842 0.23112 0.0
C2926 C 0.08169 0.77975 0.23983 0.0
C2927 C 0.07735 0.76858 0.23899 0.0
C2928 C 0.07991 0.76053 0.24737 0.0
C2929 C 0.0869 0.76352 0.25658 0.0
C2930 C 0.09138 0.77455 0.2574 0.0
C2931 C 0.08882 0.78264 0.24906 0.0
H2932 H 0.08887 0.75727 0.26306 0.0
H2933 H 0.06356 0.83579 0.18223 0.0
H2934 H 0.90907 0.18642 0.19867 0.0
H2935 H 0.92584 0.19399 0.20874 0.0
H2936 H 0.9165 0.228 0.19915 0.0
H2937 H 0.89972 0.22053 0.18914 0.0
H2938 H 0.93894 0.22504 0.19636 0.0
H2939 H 0.91156 0.21762 0.22591 0.0
H2940 H 0.89806 0.20589 0.23708 0.0
H2941 H 0.92498 0.18333 0.24638 0.0
H2942 H 0.93861 0.19485 0.23513 0.0
H2943 H 0.96809 0.25902 0.23721 0.0
H2944 H 0.95506 0.24895 0.22433 0.0
H2945 H 0.96757 0.21691 0.23671 0.0
H2946 H 0.98044 0.22697 0.24985 0.0
H2947 H 0.94492 0.21723 0.23743 0.0
H2948 H 0.97278 0.22598 0.2093 0.0
H2949 H 0.98615 0.23806 0.19837 0.0
H2950 H 0.95841 0.25841 0.18652 0.0
H2951 H 0.94488 0.24655 0.19752 0.0
C2952 C 0.91054 0.19552 0.19878 0.0
C2953 C 0.90302 0.20285 0.19309 0.0
C2954 C 0.92015 0.19983 0.20452 0.0
C2955 C 0.92241 0.21158 0.20477 0.0
C2956 C 0.91499 0.21891 0.19903 0.0
C2957 C 0.90539 0.2146 0.19328 0.0
C2958 C 0.93241 0.21632 0.21113 0.0
C2959 C 0.94021 0.22341 0.20536 0.0
C2960 C 0.93425 0.21395 0.22281 0.0
C2961 C 0.92607 0.20702 0.22957 0.0
C2962 C 0.91457 0.2101 0.23026 0.0
C2963 C 0.9069 0.20351 0.23662 0.0
C2964 C 0.91065 0.19385 0.24241 0.0
C2965 C 0.92208 0.19079 0.24187 0.0
C2966 C 0.92979 0.19736 0.23551 0.0
C2967 C 0.96821 0.24983 0.23704 0.0
C2968 C 0.97528 0.24379 0.24457 0.0
C2969 C 0.9608 0.24407 0.22962 0.0
C2970 C 0.96034 0.23215 0.2295 0.0
C2971 C 0.96778 0.2261 0.23664 0.0
C2972 C 0.97522 0.23187 0.24406 0.0
C2973 C 0.95141 0.22608 0.2227 0.0
C2974 C 0.94377 0.21876 0.22839 0.0
C2975 C 0.94971 0.22827 0.21096 0.0
C2976 C 0.95782 0.23542 0.20431 0.0
C2977 C 0.96953 0.23309 0.20444 0.0
C2978 C 0.97714 0.23989 0.19822 0.0
C2979 C 0.97314 0.24901 0.19177 0.0
C2980 C 0.96151 0.25134 0.19152 0.0
C2981 C 0.95386 0.24457 0.19774 0.0
H2982 H 0.97904 0.25426 0.18696 0.0
H2983 H 0.9047 0.18876 0.24733 0.0
H2984 H 0.20949 0.67863 0.60916 0.0
H2985 H 0.21779 0.68828 0.59273 0.0
H2986 H 0.20057 0.719 0.60161 0.0
H2987 H 0.19181 0.70924 0.61785 0.0
H2988 H 0.19982 0.71603 0.57909 0.0
H2989 H 0.22892 0.7154 0.60783 0.0
H2990 H 0.24157 0.70676 0.62218 0.0
H2991 H 0.25649 0.68616 0.59644 0.0
H2992 H 0.24381 0.69457 0.58196 0.0
H2993 H 0.23607 0.7559 0.55 0.0
H2994 H 0.22445 0.74449 0.56309 0.0
H2995 H 0.24121 0.71423 0.55204 0.0
H2996 H 0.25296 0.72566 0.539 0.0
H2997 H 0.24184 0.71634 0.57496 0.0
H2998 H 0.21319 0.71836 0.5459 0.0
H2999 H 0.20072 0.72775 0.53188 0.0
H3000 H 0.1852 0.74666 0.55855 0.0
H3001 H 0.19769 0.7375 0.57272 0.0
C3002 C 0.20729 0.68738 0.60755 0.0
C3003 C 0.19997 0.69313 0.6149 0.0
C3004 C 0.21216 0.69294 0.59819 0.0
C3005 C 0.20996 0.70443 0.59599 0.0
C3006 C 0.20245 0.71014 0.60313 0.0
C3007 C 0.19754 0.70457 0.6125 0.0
C3008 C 0.21569 0.71054 0.5864 0.0
C3009 C 0.20901 0.71619 0.57825 0.0
C3010 C 0.22769 0.7106 0.58515 0.0
C3011 C 0.23533 0.70552 0.59384 0.0
C3012 C 0.23483 0.70896 0.60525 0.0
C3013 C 0.24202 0.70412 0.6134 0.0
C3014 C 0.24981 0.6959 0.61023 0.0
C3015 C 0.25044 0.69252 0.59889 0.0
C3016 C 0.24326 0.69732 0.5907 0.0
C3017 C 0.2371 0.74678 0.55018 0.0
C3018 C 0.24543 0.74168 0.54346 0.0
C3019 C 0.23042 0.74026 0.55765 0.0
C3020 C 0.23193 0.72848 0.55856 0.0
C3021 C 0.23988 0.7233 0.55148 0.0
C3022 C 0.24652 0.72982 0.54395 0.0
C3023 C 0.22598 0.7218 0.56761 0.0
C3024 C 0.23264 0.71608 0.57572 0.0
C3025 C 0.21399 0.72179 0.56886 0.0
C3026 C 0.20645 0.72731 0.56036 0.0
C3027 C 0.20718 0.72459 0.54877 0.0
C3028 C 0.2001 0.72986 0.5408 0.0
C3029 C 0.19219 0.73782 0.54432 0.0
C3030 C 0.19134 0.7405 0.55583 0.0
C3031 C 0.19841 0.73526 0.56384 0.0
H3032 H 0.18671 0.74189 0.53814 0.0
H3033 H 0.25537 0.69216 0.61656 0.0
H3034 H 0.83118 0.69921 0.60876 0.0
H3035 H 0.82351 0.70943 0.59229 0.0
H3036 H 0.78941 0.69946 0.60198 0.0
H3037 H 0.79698 0.68932 0.61848 0.0
H3038 H 0.79234 0.69687 0.57947 0.0
H3039 H 0.79984 0.72619 0.60707 0.0
H3040 H 0.81167 0.73733 0.62052 0.0
H3041 H 0.83419 0.74714 0.59347 0.0
H3042 H 0.82257 0.73593 0.57988 0.0
H3043 H 0.75799 0.73735 0.55128 0.0
H3044 H 0.76822 0.72455 0.564 0.0
H3045 H 0.80025 0.73768 0.55133 0.0
H3046 H 0.79001 0.75076 0.53878 0.0
H3047 H 0.80006 0.73805 0.57391 0.0
H3048 H 0.79127 0.71016 0.54587 0.0
H3049 H 0.77915 0.69922 0.53253 0.0
H3050 H 0.75887 0.68677 0.5603 0.0
H3051 H 0.77076 0.69777 0.57381 0.0
C3052 C 0.82204 0.69927 0.60745 0.0
C3053 C 0.81471 0.69343 0.61497 0.0
C3054 C 0.81767 0.70509 0.598 0.0
C3055 C 0.80587 0.70527 0.59591 0.0
C3056 C 0.79855 0.69939 0.60336 0.0
C3057 C 0.8029 0.69357 0.61279 0.0
C3058 C 0.80108 0.71167 0.58607 0.0
C3059 C 0.79396 0.70589 0.5783 0.0
C3060 C 0.80343 0.72337 0.58433 0.0
C3061 C 0.81042 0.73012 0.59249 0.0
C3062 C 0.80737 0.73065 0.60401 0.0
C3063 C 0.81402 0.73699 0.61165 0.0
C3064 C 0.82369 0.74291 0.60786 0.0
C3065 C 0.82671 0.74253 0.5964 0.0
C3066 C 0.82009 0.73619 0.58872 0.0
C3067 C 0.76721 0.73737 0.55106 0.0
C3068 C 0.77318 0.74509 0.54404 0.0
C3069 C 0.77307 0.73 0.5583 0.0
C3070 C 0.78503 0.7301 0.55862 0.0
C3071 C 0.79102 0.73743 0.55123 0.0
C3072 C 0.78516 0.74482 0.54397 0.0
C3073 C 0.79119 0.72329 0.56736 0.0
C3074 C 0.79856 0.72899 0.57496 0.0
C3075 C 0.78904 0.71152 0.56894 0.0
C3076 C 0.78187 0.70487 0.56085 0.0
C3077 C 0.78417 0.70516 0.54913 0.0
C3078 C 0.77735 0.69894 0.54154 0.0
C3079 C 0.76823 0.69232 0.54556 0.0
C3080 C 0.76593 0.6919 0.5572 0.0
C3081 C 0.77272 0.69812 0.56483 0.0
H3082 H 0.76296 0.68751 0.53967 0.0
H3083 H 0.82883 0.74782 0.61379 0.0
H3084 H 0.818 0.33878 0.60574 0.0
H3085 H 0.81048 0.32808 0.58951 0.0
H3086 H 0.80932 0.29763 0.61005 0.0
H3087 H 0.81684 0.30827 0.62631 0.0
H3088 H 0.81724 0.29305 0.58945 0.0
H3089 H 0.7852 0.31317 0.60415 0.0
H3090 H 0.77472 0.33006 0.61015 0.0
H3091 H 0.77761 0.34422 0.57654 0.0
H3092 H 0.78825 0.32746 0.57039 0.0
H3093 H 0.77679 0.25829 0.56151 0.0
H3094 H 0.78748 0.27066 0.57441 0.0
H3095 H 0.78782 0.29719 0.54897 0.0
H3096 H 0.7769 0.28474 0.53594 0.0
H3097 H 0.78164 0.305 0.57013 0.0
H3098 H 0.81199 0.28353 0.55504 0.0
H3099 H 0.82198 0.26626 0.54931 0.0
H3100 H 0.8219 0.25429 0.58386 0.0
H3101 H 0.81176 0.27142 0.58979 0.0
C3102 C 0.8161 0.32981 0.60682 0.0
C3103 C 0.81798 0.32442 0.61738 0.0
C3104 C 0.8118 0.32369 0.59752 0.0
C3105 C 0.80918 0.31205 0.59856 0.0
C3106 C 0.81129 0.30659 0.609 0.0
C3107 C 0.81562 0.31269 0.6183 0.0
C3108 C 0.80409 0.30557 0.58886 0.0
C3109 C 0.80941 0.29563 0.58529 0.0
C3110 C 0.79404 0.30907 0.58317 0.0
C3111 C 0.78763 0.31913 0.58685 0.0
C3112 C 0.78368 0.31993 0.59807 0.0
C3113 C 0.7777 0.32947 0.60149 0.0
C3114 C 0.77554 0.33823 0.59374 0.0
C3115 C 0.77932 0.33744 0.58254 0.0
C3116 C 0.78532 0.32792 0.57908 0.0
C3117 C 0.77914 0.26676 0.55863 0.0
C3118 C 0.77591 0.27058 0.54774 0.0
C3119 C 0.78534 0.2738 0.56599 0.0
C3120 C 0.78854 0.28485 0.56266 0.0
C3121 C 0.78547 0.28869 0.55172 0.0
C3122 C 0.77929 0.28157 0.54427 0.0
C3123 C 0.79469 0.29239 0.57087 0.0
C3124 C 0.78956 0.30252 0.57417 0.0
C3125 C 0.80489 0.28903 0.57636 0.0
C3126 C 0.81104 0.27874 0.57284 0.0
C3127 C 0.81403 0.27718 0.56141 0.0
C3128 C 0.81973 0.26742 0.55812 0.0
C3129 C 0.82255 0.25918 0.56621 0.0
C3130 C 0.8197 0.26069 0.5776 0.0
C3131 C 0.81399 0.27043 0.58093 0.0
H3132 H 0.82696 0.25163 0.56365 0.0
H3133 H 0.7709 0.3456 0.5964 0.0
H3134 H 0.21625 0.3363 0.61351 0.0
H3135 H 0.22387 0.32631 0.59722 0.0
H3136 H 0.19636 0.3017 0.59923 0.0
H3137 H 0.1885 0.31179 0.61543 0.0
H3138 H 0.21728 0.29174 0.5966 0.0
H3139 H 0.19617 0.32169 0.57865 0.0
H3140 H 0.1907 0.34157 0.57539 0.0
H3141 H 0.22503 0.3502 0.56591 0.0
H3142 H 0.23075 0.33039 0.56926 0.0
H3143 H 0.23217 0.26392 0.5463 0.0
H3144 H 0.22081 0.27457 0.55984 0.0
H3145 H 0.24409 0.30315 0.55661 0.0
H3146 H 0.25508 0.29269 0.54265 0.0
H3147 H 0.22402 0.31092 0.55952 0.0
H3148 H 0.24587 0.28234 0.57863 0.0
H3149 H 0.25247 0.2629 0.58243 0.0
H3150 H 0.21832 0.25224 0.59059 0.0
H3151 H 0.2115 0.27159 0.58667 0.0
C3152 C 0.21169 0.32887 0.61042 0.0
C3153 C 0.20168 0.32493 0.61579 0.0
C3154 C 0.2161 0.32313 0.6011 0.0
C3155 C 0.21062 0.31332 0.5969 0.0
C3156 C 0.20073 0.30926 0.60231 0.0
C3157 C 0.19627 0.31502 0.61162 0.0
C3158 C 0.21536 0.30721 0.587 0.0
C3159 C 0.21857 0.29587 0.58843 0.0
C3160 C 0.21736 0.31269 0.57643 0.0
C3161 C 0.21391 0.32457 0.57429 0.0
C3162 C 0.20257 0.32784 0.57594 0.0
C3163 C 0.19942 0.3391 0.57407 0.0
C3164 C 0.20752 0.34715 0.57047 0.0
C3165 C 0.21877 0.34395 0.5687 0.0
C3166 C 0.22197 0.33271 0.57058 0.0
C3167 C 0.23466 0.27258 0.5483 0.0
C3168 C 0.24448 0.2775 0.54344 0.0
C3169 C 0.22825 0.27863 0.55612 0.0
C3170 C 0.23175 0.28958 0.55954 0.0
C3171 C 0.24121 0.29472 0.55419 0.0
C3172 C 0.24748 0.28875 0.54618 0.0
C3173 C 0.22601 0.29542 0.56911 0.0
C3174 C 0.22264 0.30673 0.56765 0.0
C3175 C 0.22404 0.28998 0.57973 0.0
C3176 C 0.22816 0.27838 0.58224 0.0
C3177 C 0.23976 0.27583 0.58118 0.0
C3178 C 0.24354 0.26483 0.58335 0.0
C3179 C 0.23582 0.25634 0.58673 0.0
C3180 C 0.2243 0.25883 0.58796 0.0
C3181 C 0.22047 0.26981 0.58577 0.0
H3182 H 0.23876 0.24782 0.5884 0.0
H3183 H 0.20506 0.35586 0.56903 0.0
H3184 H 0.21984 0.32285 0.39785 0.0
H3185 H 0.227 0.31209 0.41414 0.0
H3186 H 0.19295 0.30924 0.42749 0.0
H3187 H 0.18575 0.32031 0.41134 0.0
H3188 H 0.20802 0.31434 0.44414 0.0
H3189 H 0.20492 0.2868 0.41467 0.0
H3190 H 0.20781 0.27876 0.39563 0.0
H3191 H 0.24404 0.27979 0.40097 0.0
H3192 H 0.24137 0.288 0.41999 0.0
H3193 H 0.23613 0.25933 0.47028 0.0
H3194 H 0.22412 0.26909 0.45636 0.0
H3195 H 0.2393 0.30119 0.46621 0.0
H3196 H 0.25129 0.29147 0.48015 0.0
H3197 H 0.23124 0.28009 0.43831 0.0
H3198 H 0.22108 0.32271 0.46039 0.0
H3199 H 0.21692 0.32973 0.4796 0.0
H3200 H 0.20474 0.29657 0.48947 0.0
H3201 H 0.20867 0.28939 0.47027 0.0
C3202 C 0.21387 0.32002 0.40429 0.0
C3203 C 0.20221 0.32246 0.40327 0.0
C3204 C 0.21797 0.31378 0.41355 0.0
C3205 C 0.2105 0.30975 0.422 0.0
C3206 C 0.19887 0.31223 0.42107 0.0
C3207 C 0.19475 0.31847 0.41178 0.0
C3208 C 0.2149 0.30298 0.43177 0.0
C3209 C 0.21308 0.30683 0.44288 0.0
C3210 C 0.2213 0.29305 0.43016 0.0
C3211 C 0.22294 0.28811 0.41872 0.0
C3212 C 0.21351 0.2854 0.41175 0.0
C3213 C 0.21511 0.2808 0.40097 0.0
C3214 C 0.22611 0.27879 0.39708 0.0
C3215 C 0.23553 0.28136 0.40399 0.0
C3216 C 0.23397 0.28598 0.41477 0.0
C3217 C 0.23676 0.26849 0.46961 0.0
C3218 C 0.24468 0.27461 0.47631 0.0
C3219 C 0.22991 0.27406 0.46164 0.0
C3220 C 0.23079 0.28589 0.4602 0.0
C3221 C 0.23832 0.29209 0.46725 0.0
C3222 C 0.24516 0.28651 0.47526 0.0
C3223 C 0.2246 0.29159 0.45071 0.0
C3224 C 0.22613 0.28755 0.43962 0.0
C3225 C 0.21778 0.30123 0.45237 0.0
C3226 C 0.21527 0.30549 0.46391 0.0
C3227 C 0.21747 0.31693 0.46664 0.0
C3228 C 0.21516 0.32093 0.47753 0.0
C3229 C 0.2106 0.31359 0.48576 0.0
C3230 C 0.20831 0.30224 0.4831 0.0
C3231 C 0.21059 0.29819 0.47222 0.0
H3232 H 0.20883 0.31671 0.49419 0.0
H3233 H 0.22733 0.27522 0.38873 0.0
H3234 H 0.20786 0.6881 0.40516 0.0
H3235 H 0.21726 0.69577 0.42216 0.0
H3236 H 0.19772 0.7263 0.41898 0.0
H3237 H 0.18814 0.71865 0.40214 0.0
H3238 H 0.22017 0.73104 0.423 0.0
H3239 H 0.19114 0.70632 0.43894 0.0
H3240 H 0.18082 0.6881 0.44157 0.0
H3241 H 0.21156 0.67262 0.45353 0.0
H3242 H 0.2221 0.69072 0.45082 0.0
H3243 H 0.23396 0.75699 0.47416 0.0
H3244 H 0.22191 0.7471 0.46019 0.0
H3245 H 0.24123 0.71664 0.46535 0.0
H3246 H 0.25308 0.72647 0.47962 0.0
H3247 H 0.21921 0.71136 0.46043 0.0
H3248 H 0.24841 0.73528 0.44467 0.0
H3249 H 0.25931 0.75322 0.44237 0.0
H3250 H 0.22935 0.76961 0.42968 0.0
H3251 H 0.2182 0.75183 0.43214 0.0
C3252 C 0.20546 0.69639 0.40813 0.0
C3253 C 0.19722 0.70274 0.40221 0.0
C3254 C 0.21087 0.70078 0.41786 0.0
C3255 C 0.20816 0.7116 0.42191 0.0
C3256 C 0.2 0.71796 0.416 0.0
C3257 C 0.19456 0.71358 0.40632 0.0
C3258 C 0.2139 0.71639 0.43221 0.0
C3259 C 0.21983 0.7268 0.43121 0.0
C3260 C 0.21377 0.71071 0.44286 0.0
C3261 C 0.20743 0.69985 0.44457 0.0
C3262 C 0.19571 0.69901 0.44205 0.0
C3263 C 0.18982 0.68871 0.44357 0.0
C3264 C 0.19554 0.6792 0.44769 0.0
C3265 C 0.20715 0.67999 0.45033 0.0
C3266 C 0.21308 0.69027 0.44881 0.0
C3267 C 0.23535 0.74807 0.4726 0.0
C3268 C 0.24442 0.74248 0.47795 0.0
C3269 C 0.22854 0.74244 0.46454 0.0
C3270 C 0.23086 0.7312 0.46148 0.0
C3271 C 0.23931 0.72532 0.46752 0.0
C3272 C 0.24604 0.73092 0.47571 0.0
C3273 C 0.22531 0.72608 0.45125 0.0
C3274 C 0.21952 0.7156 0.45222 0.0
C3275 C 0.22568 0.73162 0.44051 0.0
C3276 C 0.23244 0.74224 0.43868 0.0
C3277 C 0.24413 0.74273 0.44144 0.0
C3278 C 0.25035 0.75287 0.44011 0.0
C3279 C 0.24502 0.76255 0.43589 0.0
C3280 C 0.23346 0.7621 0.43296 0.0
C3281 C 0.22718 0.752 0.43432 0.0
H3282 H 0.24985 0.77039 0.43487 0.0
H3283 H 0.19096 0.67123 0.44886 0.0
H3284 H 0.81385 0.71594 0.39633 0.0
H3285 H 0.80472 0.72485 0.41252 0.0
H3286 H 0.81884 0.69961 0.43502 0.0
H3287 H 0.82792 0.69052 0.41878 0.0
H3288 H 0.79596 0.7042 0.43969 0.0
H3289 H 0.83095 0.72491 0.43456 0.0
H3290 H 0.84559 0.73556 0.42379 0.0
H3291 H 0.8212 0.76102 0.41513 0.0
H3292 H 0.80635 0.75043 0.42571 0.0
H3293 H 0.77889 0.73708 0.48808 0.0
H3294 H 0.79048 0.72603 0.47493 0.0
H3295 H 0.78291 0.7498 0.44797 0.0
H3296 H 0.77179 0.76096 0.46102 0.0
H3297 H 0.80449 0.74482 0.44743 0.0
H3298 H 0.76914 0.72338 0.45057 0.0
H3299 H 0.75407 0.71273 0.46076 0.0
H3300 H 0.77868 0.68879 0.47273 0.0
H3301 H 0.79393 0.6994 0.46271 0.0
C3302 C 0.81491 0.71218 0.40469 0.0
C3303 C 0.82163 0.70252 0.40625 0.0
C3304 C 0.80975 0.71735 0.41396 0.0
C3305 C 0.81119 0.71297 0.42501 0.0
C3306 C 0.81765 0.70316 0.42658 0.0
C3307 C 0.82289 0.69802 0.4173 0.0
C3308 C 0.80608 0.71883 0.43486 0.0
C3309 C 0.79796 0.71302 0.44152 0.0
C3310 C 0.80858 0.73039 0.43718 0.0
C3311 C 0.81751 0.73682 0.43086 0.0
C3312 C 0.82868 0.73273 0.43029 0.0
C3313 C 0.83702 0.73877 0.42423 0.0
C3314 C 0.83432 0.74895 0.41876 0.0
C3315 C 0.82327 0.75313 0.41936 0.0
C3316 C 0.81489 0.74712 0.4254 0.0
C3317 C 0.77977 0.73996 0.47936 0.0
C3318 C 0.77424 0.7498 0.47557 0.0
C3319 C 0.78633 0.7336 0.47183 0.0
C3320 C 0.78746 0.73699 0.46039 0.0
C3321 C 0.78215 0.74695 0.45672 0.0
C3322 C 0.77567 0.75327 0.46419 0.0
C3323 C 0.7941 0.7303 0.45208 0.0
C3324 C 0.80256 0.73595 0.44571 0.0
C3325 C 0.79184 0.71863 0.45 0.0
C3326 C 0.78269 0.71226 0.45601 0.0
C3327 C 0.77135 0.7159 0.45545 0.0
C3328 C 0.76278 0.70986 0.46118 0.0
C3329 C 0.76542 0.70011 0.46742 0.0
C3330 C 0.77665 0.69636 0.46791 0.0
C3331 C 0.78526 0.70238 0.46221 0.0
H3332 H 0.75877 0.69544 0.47184 0.0
H3333 H 0.84079 0.75361 0.41407 0.0
H3334 H 0.83219 0.31623 0.4103 0.0
H3335 H 0.82454 0.30619 0.42693 0.0
H3336 H 0.79107 0.31881 0.4192 0.0
H3337 H 0.79861 0.32878 0.40257 0.0
H3338 H 0.79561 0.3208 0.44142 0.0
H3339 H 0.7984 0.2913 0.41342 0.0
H3340 H 0.8082 0.2795 0.39942 0.0
H3341 H 0.83125 0.26796 0.42538 0.0
H3342 H 0.82167 0.27982 0.43951 0.0
H3343 H 0.75934 0.28294 0.47188 0.0
H3344 H 0.76983 0.29475 0.45827 0.0
H3345 H 0.80128 0.27945 0.46907 0.0
H3346 H 0.79074 0.26734 0.4825 0.0
H3347 H 0.79948 0.27922 0.44653 0.0
H3348 H 0.79549 0.3075 0.47497 0.0
H3349 H 0.78544 0.31915 0.48891 0.0
H3350 H 0.76454 0.33292 0.46225 0.0
H3351 H 0.77436 0.32124 0.44816 0.0
C3352 C 0.82318 0.31678 0.41207 0.0
C3353 C 0.81604 0.32335 0.40507 0.0
C3354 C 0.81882 0.31105 0.42162 0.0
C3355 C 0.8072 0.31168 0.42432 0.0
C3356 C 0.80007 0.31824 0.41736 0.0
C3357 C 0.80442 0.32397 0.40784 0.0
C3358 C 0.80239 0.30552 0.43437 0.0
C3359 C 0.79638 0.31169 0.44249 0.0
C3360 C 0.80365 0.29368 0.43597 0.0
C3361 C 0.80941 0.28655 0.42749 0.0
C3362 C 0.80562 0.28632 0.41612 0.0
C3363 C 0.81112 0.27961 0.40816 0.0
C3364 C 0.82036 0.27301 0.4115 0.0
C3365 C 0.8241 0.27309 0.4228 0.0
C3366 C 0.81864 0.2798 0.43079 0.0
C3367 C 0.76852 0.2822 0.47148 0.0
C3368 C 0.77419 0.27418 0.47828 0.0
C3369 C 0.77453 0.28902 0.46373 0.0
C3370 C 0.78638 0.28805 0.46264 0.0
C3371 C 0.79214 0.28037 0.46974 0.0
C3372 C 0.78612 0.27353 0.47752 0.0
C3373 C 0.79257 0.29446 0.45353 0.0
C3374 C 0.79883 0.28835 0.44556 0.0
C3375 C 0.79152 0.30635 0.45207 0.0
C3376 C 0.78561 0.31342 0.46051 0.0
C3377 C 0.78869 0.31295 0.47208 0.0
C3378 C 0.78304 0.31957 0.48001 0.0
C3379 C 0.77434 0.32675 0.47647 0.0
C3380 C 0.77128 0.32735 0.46498 0.0
C3381 C 0.77689 0.32074 0.45702 0.0
H3382 H 0.76998 0.33187 0.48262 0.0
H3383 H 0.82461 0.26781 0.40533 0.0
H3384 H 0.10241 0.69667 0.68406 0.0
H3385 H 0.08601 0.70412 0.69415 0.0
H3386 H 0.10725 0.71046 0.72359 0.0
H3387 H 0.1236 0.70275 0.71366 0.0
H3388 H 0.08703 0.70128 0.72968 0.0
H3389 H 0.09988 0.73187 0.70523 0.0
H3390 H 0.10495 0.74081 0.6869 0.0
H3391 H 0.07108 0.73427 0.67424 0.0
H3392 H 0.06585 0.72516 0.69246 0.0
H3393 H 0.05858 0.74264 0.76055 0.0
H3394 H 0.07152 0.73183 0.7489 0.0
H3395 H 0.04532 0.72784 0.72326 0.0
H3396 H 0.03225 0.73896 0.73493 0.0
H3397 H 0.06598 0.73413 0.71404 0.0
H3398 H 0.05258 0.70541 0.73947 0.0
H3399 H 0.04761 0.69686 0.75799 0.0
H3400 H 0.08249 0.69997 0.76895 0.0
H3401 H 0.08765 0.7087 0.75055 0.0
C3402 C 0.10357 0.69952 0.69273 0.0
C3403 C 0.11436 0.69914 0.69802 0.0
C3404 C 0.09419 0.70388 0.69846 0.0
C3405 C 0.0954 0.70798 0.7096 0.0
C3406 C 0.1061 0.70739 0.71499 0.0
C3407 C 0.11547 0.70306 0.70926 0.0
C3408 C 0.08559 0.71301 0.71566 0.0
C3409 C 0.08248 0.70852 0.72629 0.0
C3410 C 0.07939 0.72223 0.7111 0.0
C3411 C 0.08252 0.72771 0.70015 0.0
C3412 C 0.09354 0.73225 0.6985 0.0
C3413 C 0.09644 0.73737 0.68814 0.0
C3414 C 0.08835 0.73807 0.6794 0.0
C3415 C 0.07734 0.7337 0.68101 0.0
C3416 C 0.07441 0.72856 0.69135 0.0
C3417 C 0.05555 0.73951 0.75241 0.0
C3418 C 0.04441 0.74176 0.74861 0.0
C3419 C 0.06294 0.73322 0.7458 0.0
C3420 C 0.05939 0.72892 0.73523 0.0
C3421 C 0.04824 0.73105 0.73141 0.0
C3422 C 0.04077 0.73734 0.73809 0.0
C3423 C 0.06758 0.72255 0.72817 0.0
C3424 C 0.0704 0.72679 0.71735 0.0
C3425 C 0.07353 0.7131 0.73257 0.0
C3426 C 0.07049 0.70779 0.74364 0.0
C3427 C 0.05918 0.70435 0.74585 0.0
C3428 C 0.05633 0.69945 0.75633 0.0
C3429 C 0.06473 0.69789 0.76465 0.0
C3430 C 0.076 0.70119 0.7625 0.0
C3431 C 0.07889 0.7061 0.75204 0.0
H3432 H 0.0625 0.6941 0.77276 0.0
H3433 H 0.09061 0.74204 0.67138 0.0
H3434 H 0.83772 0.61021 0.7136 0.0
H3435 H 0.82726 0.59388 0.72135 0.0
H3436 H 0.79829 0.60193 0.70023 0.0
H3437 H 0.8088 0.61815 0.69217 0.0
H3438 H 0.79234 0.59755 0.72246 0.0
H3439 H 0.81446 0.57987 0.69358 0.0
H3440 H 0.83206 0.57534 0.68336 0.0
H3441 H 0.8459 0.56023 0.71366 0.0
H3442 H 0.82845 0.56482 0.72411 0.0
H3443 H 0.76049 0.54856 0.73639 0.0
H3444 H 0.77117 0.56226 0.72471 0.0
H3445 H 0.80206 0.55389 0.74278 0.0
H3446 H 0.79145 0.53998 0.75427 0.0
H3447 H 0.80674 0.55821 0.72112 0.0
H3448 H 0.78577 0.57668 0.75036 0.0
H3449 H 0.76858 0.58129 0.76122 0.0
H3450 H 0.7532 0.5953 0.73113 0.0
H3451 H 0.77023 0.59059 0.72004 0.0
C3452 C 0.8292 0.60844 0.71043 0.0
C3453 C 0.82415 0.61553 0.7022 0.0
C3454 C 0.82321 0.5991 0.71492 0.0
C3455 C 0.81202 0.59662 0.7113 0.0
C3456 C 0.80691 0.60369 0.70315 0.0
C3457 C 0.81292 0.613 0.6986 0.0
C3458 C 0.80557 0.58682 0.71626 0.0
C3459 C 0.79539 0.58892 0.72199 0.0
C3460 C 0.8097 0.5756 0.71594 0.0
C3461 C 0.82018 0.57278 0.70965 0.0
C3462 C 0.82129 0.57566 0.69809 0.0
C3463 C 0.83124 0.57307 0.69225 0.0
C3464 C 0.8401 0.56752 0.69786 0.0
C3465 C 0.83903 0.56453 0.70932 0.0
C3466 C 0.82911 0.56712 0.71521 0.0
C3467 C 0.76961 0.54949 0.73769 0.0
C3468 C 0.77513 0.54325 0.74627 0.0
C3469 C 0.77569 0.55736 0.73107 0.0
C3470 C 0.78738 0.55933 0.73305 0.0
C3471 C 0.79305 0.55258 0.74112 0.0
C3472 C 0.78698 0.54459 0.74766 0.0
C3473 C 0.7935 0.56893 0.72732 0.0
C3474 C 0.80364 0.56682 0.7215 0.0
C3475 C 0.7894 0.58018 0.72767 0.0
C3476 C 0.77922 0.58318 0.73435 0.0
C3477 C 0.77869 0.58068 0.74604 0.0
C3478 C 0.76898 0.58331 0.75224 0.0
C3479 C 0.75979 0.58856 0.74686 0.0
C3480 C 0.76031 0.59122 0.73528 0.0
C3481 C 0.76999 0.58857 0.72903 0.0
H3482 H 0.75228 0.59059 0.75167 0.0
H3483 H 0.84779 0.56553 0.69333 0.0
H3484 H 0.9158 0.32039 0.68347 0.0
H3485 H 0.932 0.31264 0.69395 0.0
H3486 H 0.9111 0.30861 0.72374 0.0
H3487 H 0.89485 0.31635 0.71331 0.0
H3488 H 0.93164 0.31672 0.72951 0.0
H3489 H 0.91734 0.286 0.70638 0.0
H3490 H 0.91153 0.27666 0.68849 0.0
H3491 H 0.94529 0.28157 0.67535 0.0
H3492 H 0.95126 0.29108 0.69312 0.0
H3493 H 0.95975 0.27494 0.76146 0.0
H3494 H 0.94674 0.28582 0.74959 0.0
H3495 H 0.9726 0.28941 0.72393 0.0
H3496 H 0.98577 0.27831 0.73587 0.0
H3497 H 0.95142 0.28291 0.71501 0.0
H3498 H 0.96607 0.31194 0.73938 0.0
H3499 H 0.97158 0.32071 0.75762 0.0
H3500 H 0.93687 0.31854 0.76878 0.0
H3501 H 0.93117 0.30959 0.75066 0.0
C3502 C 0.91462 0.31781 0.69224 0.0
C3503 C 0.90397 0.31894 0.69751 0.0
C3504 C 0.92391 0.31338 0.69823 0.0
C3505 C 0.92276 0.30988 0.70961 0.0
C3506 C 0.91222 0.31125 0.71498 0.0
C3507 C 0.90293 0.31571 0.709 0.0
C3508 C 0.93245 0.30463 0.7159 0.0
C3509 C 0.9359 0.30928 0.72637 0.0
C3510 C 0.93827 0.2951 0.71169 0.0
C3511 C 0.9347 0.28937 0.70102 0.0
C3512 C 0.9235 0.28517 0.69964 0.0
C3513 C 0.92018 0.27983 0.68953 0.0
C3514 C 0.92803 0.27856 0.68078 0.0
C3515 C 0.93922 0.28259 0.68213 0.0
C3516 C 0.94257 0.28795 0.69222 0.0
C3517 C 0.96269 0.27802 0.75328 0.0
C3518 C 0.97376 0.27567 0.74955 0.0
C3519 C 0.95526 0.28433 0.74654 0.0
C3520 C 0.95869 0.28852 0.73589 0.0
C3521 C 0.96978 0.28628 0.73213 0.0
C3522 C 0.9773 0.28 0.73896 0.0
C3523 C 0.95046 0.2949 0.72868 0.0
C3524 C 0.94727 0.29046 0.71806 0.0
C3525 C 0.94484 0.30458 0.73278 0.0
C3526 C 0.94821 0.31002 0.74368 0.0
C3527 C 0.95962 0.31325 0.74575 0.0
C3528 C 0.96278 0.31827 0.75607 0.0
C3529 C 0.95458 0.32017 0.76436 0.0
C3530 C 0.94321 0.31707 0.76235 0.0
C3531 C 0.94001 0.31203 0.75205 0.0
H3532 H 0.95704 0.32405 0.77234 0.0
H3533 H 0.92545 0.27442 0.67296 0.0
H3534 H 0.20219 0.40799 0.68744 0.0
H3535 H 0.21172 0.42502 0.69487 0.0
H3536 H 0.19528 0.41973 0.72719 0.0
H3537 H 0.1853 0.40304 0.71966 0.0
H3538 H 0.19538 0.44151 0.72212 0.0
H3539 H 0.22343 0.41226 0.72249 0.0
H3540 H 0.23521 0.39724 0.71435 0.0
H3541 H 0.25003 0.42134 0.691 0.0
H3542 H 0.23822 0.43647 0.69891 0.0
H3543 H 0.23438 0.47019 0.75946 0.0
H3544 H 0.22165 0.45737 0.74885 0.0
H3545 H 0.23773 0.46775 0.71754 0.0
H3546 H 0.25051 0.48059 0.72815 0.0
H3547 H 0.23752 0.44466 0.72055 0.0
H3548 H 0.21048 0.47443 0.72213 0.0
H3549 H 0.19901 0.48913 0.73121 0.0
H3550 H 0.18259 0.46372 0.75198 0.0
H3551 H 0.19408 0.44887 0.74313 0.0
C3552 C 0.20047 0.41052 0.69608 0.0
C3553 C 0.19302 0.40403 0.70296 0.0
C3554 C 0.20603 0.42021 0.70037 0.0
C3555 C 0.20437 0.4236 0.71167 0.0
C3556 C 0.19675 0.4173 0.71846 0.0
C3557 C 0.19115 0.40765 0.71417 0.0
C3558 C 0.21072 0.43354 0.71651 0.0
C3559 C 0.2046 0.44214 0.72185 0.0
C3560 C 0.22275 0.43455 0.71598 0.0
C3561 C 0.22984 0.42546 0.7112 0.0
C3562 C 0.22913 0.41433 0.71556 0.0
C3563 C 0.23582 0.4058 0.711 0.0
C3564 C 0.24333 0.40832 0.70214 0.0
C3565 C 0.24419 0.41939 0.69785 0.0
C3566 C 0.2375 0.42795 0.70237 0.0
C3567 C 0.23499 0.46995 0.75028 0.0
C3568 C 0.24342 0.47641 0.74463 0.0
C3569 C 0.2277 0.46263 0.74422 0.0
C3570 C 0.22873 0.46158 0.73239 0.0
C3571 C 0.23677 0.46843 0.72666 0.0
C3572 C 0.244 0.47584 0.73272 0.0
C3573 C 0.22218 0.45257 0.72622 0.0
C3574 C 0.22828 0.44411 0.72068 0.0
C3575 C 0.21016 0.45164 0.72669 0.0
C3576 C 0.20322 0.46055 0.73202 0.0
C3577 C 0.20449 0.47199 0.7287 0.0
C3578 C 0.19797 0.48034 0.73379 0.0
C3579 C 0.19009 0.47736 0.74218 0.0
C3580 C 0.1887 0.46601 0.74548 0.0
C3581 C 0.19521 0.45762 0.74042 0.0
H3582 H 0.18505 0.48385 0.74612 0.0
H3583 H 0.24851 0.40171 0.69863 0.0
H3584 H 0.11816 0.32406 0.31028 0.0
H3585 H 0.10129 0.31688 0.30013 0.0
H3586 H 0.08961 0.30025 0.33076 0.0
H3587 H 0.10635 0.30751 0.34101 0.0
H3588 H 0.08867 0.28609 0.31289 0.0
H3589 H 0.07675 0.32405 0.32067 0.0
H3590 H 0.07845 0.34494 0.32065 0.0
H3591 H 0.07941 0.34524 0.28416 0.0
H3592 H 0.07787 0.32433 0.28397 0.0
H3593 H 0.0355 0.26766 0.29278 0.0
H3594 H 0.04877 0.27932 0.304 0.0
H3595 H 0.06163 0.29488 0.2733 0.0
H3596 H 0.0482 0.28339 0.26202 0.0
H3597 H 0.06149 0.31005 0.29139 0.0
H3598 H 0.07456 0.27262 0.28335 0.0
H3599 H 0.07307 0.25173 0.28277 0.0
H3600 H 0.07062 0.25048 0.31917 0.0
H3601 H 0.07187 0.27139 0.31994 0.0
C3602 C 0.11192 0.31903 0.31491 0.0
C3603 C 0.11366 0.31634 0.32647 0.0
C3604 C 0.10227 0.31491 0.30908 0.0
C3605 C 0.09413 0.30807 0.31469 0.0
C3606 C 0.09579 0.30548 0.32624 0.0
C3607 C 0.10541 0.3096 0.33207 0.0
C3608 C 0.08414 0.3032 0.30843 0.0
C3609 C 0.08263 0.29136 0.30836 0.0
C3610 C 0.07642 0.31004 0.30223 0.0
C3611 C 0.0773 0.32261 0.30232 0.0
C3612 C 0.07741 0.32856 0.31265 0.0
C3613 C 0.07833 0.34041 0.31267 0.0
C3614 C 0.07907 0.34641 0.30241 0.0
C3615 C 0.07885 0.34058 0.2921 0.0
C3616 C 0.07795 0.32873 0.29203 0.0
C3617 C 0.04085 0.27386 0.28843 0.0
C3618 C 0.04086 0.27454 0.27649 0.0
C3619 C 0.04851 0.28045 0.29486 0.0
C3620 C 0.05634 0.28781 0.28947 0.0
C3621 C 0.05571 0.28922 0.27763 0.0
C3622 C 0.04806 0.28262 0.27119 0.0
C3623 C 0.06599 0.29298 0.29599 0.0
C3624 C 0.06748 0.30483 0.29603 0.0
C3625 C 0.07378 0.28616 0.30211 0.0
C3626 C 0.07318 0.27358 0.30169 0.0
C3627 C 0.07361 0.26789 0.29122 0.0
C3628 C 0.07282 0.25605 0.29086 0.0
C3629 C 0.07172 0.24978 0.30093 0.0
C3630 C 0.07145 0.25535 0.31138 0.0
C3631 C 0.0722 0.2672 0.31178 0.0
H3632 H 0.07111 0.24061 0.30063 0.0
H3633 H 0.07978 0.35558 0.30245 0.0
H3634 H 0.2107 0.60677 0.33883 0.0
H3635 H 0.21823 0.59042 0.32889 0.0
H3636 H 0.20354 0.60248 0.29745 0.0
H3637 H 0.19605 0.61898 0.30733 0.0
H3638 H 0.20081 0.5794 0.29981 0.0
H3639 H 0.23147 0.60669 0.30276 0.0
H3640 H 0.24457 0.61999 0.31262 0.0
H3641 H 0.25732 0.59263 0.33311 0.0
H3642 H 0.24417 0.5792 0.32347 0.0
H3643 H 0.23529 0.54872 0.26123 0.0
H3644 H 0.22459 0.5624 0.27221 0.0
H3645 H 0.24116 0.55095 0.30295 0.0
H3646 H 0.25218 0.53749 0.29195 0.0
H3647 H 0.24251 0.57332 0.30133 0.0
H3648 H 0.21237 0.54576 0.29764 0.0
H3649 H 0.19931 0.53257 0.28757 0.0
H3650 H 0.18568 0.56033 0.26828 0.0
H3651 H 0.19876 0.57367 0.27811 0.0
C3652 C 0.2091 0.606 0.32978 0.0
C3653 C 0.20287 0.61431 0.32387 0.0
C3654 C 0.21339 0.59661 0.32412 0.0
C3655 C 0.2116 0.59528 0.31238 0.0
C3656 C 0.20504 0.60331 0.3065 0.0
C3657 C 0.20074 0.61274 0.31218 0.0
C3658 C 0.21692 0.58572 0.30621 0.0
C3659 C 0.20994 0.57813 0.30004 0.0
C3660 C 0.22881 0.58391 0.30669 0.0
C3661 C 0.23675 0.59196 0.31248 0.0
C3662 C 0.237 0.60353 0.30943 0.0
C3663 C 0.24445 0.61109 0.31497 0.0
C3664 C 0.25175 0.60716 0.32351 0.0
C3665 C 0.25164 0.59566 0.32651 0.0
C3666 C 0.2442 0.58807 0.321 0.0
C3667 C 0.23655 0.549 0.27035 0.0
C3668 C 0.24463 0.54201 0.27569 0.0
C3669 C 0.23035 0.55679 0.27665 0.0
C3670 C 0.23201 0.55772 0.28845 0.0
C3671 C 0.23971 0.55041 0.29387 0.0
C3672 C 0.24593 0.54261 0.28757 0.0
C3673 C 0.22642 0.5669 0.29495 0.0
C3674 C 0.23337 0.5745 0.30116 0.0
C3675 C 0.21452 0.5687 0.29447 0.0
C3676 C 0.20662 0.5607 0.28854 0.0
C3677 C 0.20665 0.54904 0.29118 0.0
C3678 C 0.19923 0.54154 0.28553 0.0
C3679 C 0.19169 0.5456 0.27727 0.0
C3680 C 0.19153 0.55719 0.27467 0.0
C3681 C 0.19894 0.56473 0.28029 0.0
H3682 H 0.18595 0.53978 0.27291 0.0
H3683 H 0.25752 0.61303 0.32779 0.0
H3684 H 0.90825 0.68027 0.31213 0.0
H3685 H 0.92466 0.69077 0.30463 0.0
H3686 H 0.9125 0.72149 0.31977 0.0
H3687 H 0.89578 0.71111 0.32695 0.0
H3688 H 0.91907 0.72547 0.29854 0.0
H3689 H 0.93556 0.70712 0.33096 0.0
H3690 H 0.94017 0.69102 0.34358 0.0
H3691 H 0.95811 0.6751 0.31648 0.0
H3692 H 0.95348 0.69103 0.30364 0.0
H3693 H 0.96812 0.7579 0.28599 0.0
H3694 H 0.9543 0.74747 0.29771 0.0
H3695 H 0.96373 0.71618 0.28175 0.0
H3696 H 0.97761 0.72657 0.27003 0.0
H3697 H 0.95888 0.713 0.30439 0.0
H3698 H 0.9415 0.73075 0.2718 0.0
H3699 H 0.93722 0.74692 0.25917 0.0
H3700 H 0.92089 0.7639 0.28664 0.0
H3701 H 0.92528 0.74791 0.29952 0.0
C3702 C 0.90901 0.68928 0.31383 0.0
C3703 C 0.90063 0.69483 0.32013 0.0
C3704 C 0.91849 0.69525 0.30964 0.0
C3705 C 0.91993 0.70692 0.31173 0.0
C3706 C 0.91163 0.71249 0.31807 0.0
C3707 C 0.90211 0.70652 0.32226 0.0
C3708 C 0.92986 0.71335 0.30695 0.0
C3709 C 0.92778 0.72285 0.30001 0.0
C3710 C 0.94124 0.7098 0.3086 0.0
C3711 C 0.94409 0.70023 0.31631 0.0
C3712 C 0.94042 0.70014 0.32767 0.0
C3713 C 0.94305 0.69105 0.33487 0.0
C3714 C 0.94941 0.68203 0.33083 0.0
C3715 C 0.95318 0.68209 0.31959 0.0
C3716 C 0.95056 0.69115 0.31235 0.0
C3717 C 0.9674 0.74876 0.28514 0.0
C3718 C 0.97389 0.74308 0.27702 0.0
C3719 C 0.95948 0.74282 0.29182 0.0
C3720 C 0.9578 0.73108 0.29044 0.0
C3721 C 0.96485 0.72524 0.28293 0.0
C3722 C 0.97282 0.73119 0.27627 0.0
C3723 C 0.94806 0.72508 0.29604 0.0
C3724 C 0.95016 0.71566 0.30305 0.0
C3725 C 0.93669 0.72867 0.29445 0.0
C3726 C 0.93382 0.73818 0.28666 0.0
C3727 C 0.93706 0.73796 0.27517 0.0
C3728 C 0.93461 0.74709 0.26796 0.0
C3729 C 0.92881 0.75645 0.2721 0.0
C3730 C 0.9254 0.75666 0.28345 0.0
C3731 C 0.92787 0.74757 0.29071 0.0
H3732 H 0.92693 0.76351 0.2665 0.0
H3733 H 0.95143 0.675 0.33642 0.0
H3734 H 0.8096 0.40023 0.32916 0.0
H3735 H 0.79924 0.41634 0.32127 0.0
H3736 H 0.82675 0.42327 0.29805 0.0
H3737 H 0.83706 0.40703 0.30567 0.0
H3738 H 0.81882 0.44285 0.30781 0.0
H3739 H 0.80309 0.40991 0.28883 0.0
H3740 H 0.79403 0.39089 0.28787 0.0
H3741 H 0.76511 0.403 0.30604 0.0
H3742 H 0.77408 0.42206 0.30724 0.0
H3743 H 0.79083 0.47746 0.26659 0.0
H3744 H 0.80168 0.46372 0.27773 0.0
H3745 H 0.77155 0.45508 0.29694 0.0
H3746 H 0.76061 0.46861 0.28555 0.0
H3747 H 0.78066 0.43665 0.29032 0.0
H3748 H 0.79559 0.46983 0.30861 0.0
H3749 H 0.80447 0.48889 0.30987 0.0
H3750 H 0.83455 0.47673 0.29372 0.0
H3751 H 0.82578 0.45762 0.29222 0.0
C3752 C 0.81343 0.4051 0.32231 0.0
C3753 C 0.82419 0.40224 0.31805 0.0
C3754 C 0.80751 0.41437 0.31785 0.0
C3755 C 0.81218 0.42099 0.30901 0.0
C3756 C 0.82299 0.41832 0.3049 0.0
C3757 C 0.8289 0.40903 0.30931 0.0
C3758 C 0.80568 0.43051 0.30384 0.0
C3759 C 0.81052 0.4415 0.30389 0.0
C3760 C 0.79472 0.42881 0.29899 0.0
C3761 C 0.78931 0.41737 0.29823 0.0
C3762 C 0.79484 0.40849 0.2927 0.0
C3763 C 0.78971 0.39771 0.2921 0.0
C3764 C 0.77902 0.39573 0.29692 0.0
C3765 C 0.77341 0.40454 0.30232 0.0
C3766 C 0.7785 0.41533 0.30296 0.0
C3767 C 0.7866 0.47285 0.2734 0.0
C3768 C 0.77487 0.47414 0.27522 0.0
C3769 C 0.79282 0.46497 0.27978 0.0
C3770 C 0.78749 0.45835 0.28827 0.0
C3771 C 0.77588 0.46002 0.29042 0.0
C3772 C 0.76963 0.46779 0.28396 0.0
C3773 C 0.79376 0.4491 0.29426 0.0
C3774 C 0.78891 0.4381 0.29433 0.0
C3775 C 0.80466 0.45083 0.29929 0.0
C3776 C 0.80998 0.46231 0.30021 0.0
C3777 C 0.80406 0.47123 0.30525 0.0
C3778 C 0.80909 0.48205 0.30602 0.0
C3779 C 0.82006 0.48403 0.30186 0.0
C3780 C 0.82604 0.47519 0.29694 0.0
C3781 C 0.82106 0.46436 0.29613 0.0
H3782 H 0.82393 0.49241 0.30246 0.0
H3783 H 0.77506 0.38738 0.29644 0.0
H3784 H 0.20728 0.62357 0.71448 0.0
H3785 H 0.21722 0.60683 0.72149 0.0
H3786 H 0.19772 0.58571 0.69842 0.0
H3787 H 0.18754 0.60243 0.69152 0.0
H3788 H 0.19876 0.57617 0.7194 0.0
H3789 H 0.22527 0.59202 0.69285 0.0
H3790 H 0.23717 0.60706 0.68403 0.0
H3791 H 0.25577 0.61129 0.71533 0.0
H3792 H 0.24387 0.59639 0.72439 0.0
H3793 H 0.25347 0.53874 0.72825 0.0
H3794 H 0.24179 0.55194 0.71716 0.0
H3795 H 0.22314 0.5602 0.74737 0.0
H3796 H 0.23469 0.54695 0.75843 0.0
H3797 H 0.24097 0.57457 0.7201 0.0
H3798 H 0.19619 0.56797 0.74002 0.0
H3799 H 0.1843 0.55236 0.74782 0.0
H3800 H 0.20227 0.52833 0.72767 0.0
H3801 H 0.21415 0.54381 0.71963 0.0
C3802 C 0.20507 0.61537 0.71091 0.0
C3803 C 0.1966 0.61436 0.70242 0.0
C3804 C 0.21083 0.6058 0.71487 0.0
C3805 C 0.20829 0.595 0.71043 0.0
C3806 C 0.19984 0.59395 0.70197 0.0
C3807 C 0.1941 0.60354 0.69796 0.0
C3808 C 0.21437 0.58482 0.71477 0.0
C3809 C 0.20799 0.5758 0.71952 0.0
C3810 C 0.22641 0.58421 0.71475 0.0
C3811 C 0.23362 0.59315 0.70932 0.0
C3812 C 0.23184 0.59622 0.69787 0.0
C3813 C 0.2386 0.60471 0.69283 0.0
C3814 C 0.24721 0.61014 0.69912 0.0
C3815 C 0.2491 0.60708 0.71047 0.0
C3816 C 0.24236 0.5986 0.71556 0.0
C3817 C 0.24667 0.54314 0.73245 0.0
C3818 C 0.24499 0.54179 0.74421 0.0
C3819 C 0.24007 0.55076 0.72613 0.0
C3820 C 0.23157 0.55707 0.73141 0.0
C3821 C 0.22956 0.55536 0.74306 0.0
C3822 C 0.23619 0.54781 0.74938 0.0
C3823 C 0.22537 0.56605 0.72501 0.0
C3824 C 0.23174 0.57488 0.7199 0.0
C3825 C 0.21332 0.56641 0.7246 0.0
C3826 C 0.20613 0.55705 0.7293 0.0
C3827 C 0.19757 0.55937 0.73721 0.0
C3828 C 0.19084 0.55054 0.74168 0.0
C3829 C 0.19255 0.53936 0.73827 0.0
C3830 C 0.20098 0.53699 0.73034 0.0
C3831 C 0.20772 0.54579 0.72584 0.0
H3832 H 0.18733 0.53254 0.74174 0.0
H3833 H 0.25243 0.61671 0.6952 0.0
H3834 H 0.17841 0.41436 0.31741 0.0
H3835 H 0.18909 0.43064 0.30973 0.0
H3836 H 0.22009 0.41156 0.31173 0.0
H3837 H 0.20947 0.39525 0.31938 0.0
H3838 H 0.22377 0.43284 0.3188 0.0
H3839 H 0.2056 0.4151 0.28649 0.0
H3840 H 0.18938 0.40754 0.27527 0.0
H3841 H 0.17415 0.44044 0.27493 0.0
H3842 H 0.19022 0.44815 0.28629 0.0
H3843 H 0.25966 0.4593 0.27865 0.0
H3844 H 0.24703 0.4466 0.28935 0.0
H3845 H 0.2203 0.47121 0.28707 0.0
H3846 H 0.23303 0.48405 0.27623 0.0
H3847 H 0.21306 0.44916 0.2813 0.0
H3848 H 0.23283 0.46724 0.31193 0.0
H3849 H 0.24955 0.47444 0.32264 0.0
H3850 H 0.26226 0.44058 0.32569 0.0
H3851 H 0.24569 0.43319 0.31486 0.0
C3852 C 0.18749 0.4136 0.31617 0.0
C3853 C 0.19306 0.40345 0.31896 0.0
C3854 C 0.19359 0.42294 0.3118 0.0
C3855 C 0.20538 0.4223 0.31002 0.0
C3856 C 0.21101 0.41228 0.31304 0.0
C3857 C 0.20492 0.40296 0.31745 0.0
C3858 C 0.21186 0.43196 0.30481 0.0
C3859 C 0.22147 0.43635 0.31057 0.0
C3860 C 0.2087 0.43678 0.2942 0.0
C3861 C 0.19904 0.43217 0.28736 0.0
C3862 C 0.19874 0.4207 0.28411 0.0
C3863 C 0.18958 0.41639 0.2777 0.0
C3864 C 0.18072 0.4235 0.27442 0.0
C3865 C 0.18101 0.43494 0.2775 0.0
C3866 C 0.19014 0.43928 0.28392 0.0
C3867 C 0.2511 0.46203 0.28044 0.0
C3868 C 0.24729 0.47263 0.27653 0.0
C3869 C 0.24391 0.45479 0.28662 0.0
C3870 C 0.23274 0.45798 0.28907 0.0
C3871 C 0.2289 0.46861 0.28529 0.0
C3872 C 0.23617 0.47594 0.27915 0.0
C3873 C 0.22506 0.4499 0.29521 0.0
C3874 C 0.21525 0.44578 0.28962 0.0
C3875 C 0.22808 0.44527 0.30594 0.0
C3876 C 0.23805 0.44967 0.31251 0.0
C3877 C 0.23923 0.46134 0.31481 0.0
C3878 C 0.24868 0.46545 0.32092 0.0
C3879 C 0.25697 0.45798 0.32482 0.0
C3880 C 0.25583 0.44636 0.32266 0.0
C3881 C 0.2464 0.44221 0.31655 0.0
H3882 H 0.26428 0.46118 0.32955 0.0
H3883 H 0.17364 0.42015 0.26946 0.0
H3884 H 0.11169 0.67981 0.30343 0.0
H3885 H 0.09521 0.68955 0.29561 0.0
H3886 H 0.1009 0.71707 0.31909 0.0
H3887 H 0.11714 0.7071 0.32735 0.0
H3888 H 0.07879 0.71246 0.31749 0.0
H3889 H 0.10866 0.71929 0.29089 0.0
H3890 H 0.12421 0.71447 0.27791 0.0
H3891 H 0.10086 0.69472 0.25752 0.0
H3892 H 0.08518 0.6993 0.27048 0.0
H3893 H 0.04778 0.75447 0.28566 0.0
H3894 H 0.06185 0.74317 0.29603 0.0
H3895 H 0.05279 0.71401 0.2757 0.0
H3896 H 0.03864 0.72528 0.26536 0.0
H3897 H 0.07622 0.7193 0.2759 0.0
H3898 H 0.04606 0.71367 0.30275 0.0
H3899 H 0.03088 0.71959 0.31569 0.0
H3900 H 0.05536 0.73853 0.33554 0.0
H3901 H 0.07067 0.73285 0.32261 0.0
C3902 C 0.10938 0.68785 0.30708 0.0
C3903 C 0.11581 0.69264 0.31605 0.0
C3904 C 0.09999 0.6935 0.30248 0.0
C3905 C 0.09687 0.70415 0.30663 0.0
C3906 C 0.10314 0.70889 0.3157 0.0
C3907 C 0.11252 0.70322 0.32034 0.0
C3908 C 0.08714 0.71037 0.30141 0.0
C3909 C 0.07831 0.71407 0.30841 0.0
C3910 C 0.08636 0.71234 0.28953 0.0
C3911 C 0.09577 0.70954 0.28173 0.0
C3912 C 0.10686 0.71384 0.2837 0.0
C3913 C 0.11569 0.71116 0.27633 0.0
C3914 C 0.11353 0.70426 0.26692 0.0
C3915 C 0.10252 0.70005 0.26483 0.0
C3916 C 0.09365 0.70269 0.27218 0.0
C3917 C 0.04861 0.74558 0.2836 0.0
C3918 C 0.04207 0.74074 0.27475 0.0
C3919 C 0.05665 0.73913 0.28952 0.0
C3920 C 0.05838 0.72774 0.28664 0.0
C3921 C 0.05158 0.72278 0.27808 0.0
C3922 C 0.04343 0.72919 0.27225 0.0
C3923 C 0.06786 0.7213 0.29196 0.0
C3924 C 0.07668 0.71762 0.28497 0.0
C3925 C 0.06868 0.7195 0.30385 0.0
C3926 C 0.0595 0.72292 0.31164 0.0
C3927 C 0.04819 0.71918 0.30981 0.0
C3928 C 0.03957 0.72248 0.31716 0.0
C3929 C 0.04215 0.72946 0.32642 0.0
C3930 C 0.05337 0.73314 0.32836 0.0
C3931 C 0.06203 0.72987 0.32103 0.0
H3932 H 0.03546 0.732 0.3321 0.0
H3933 H 0.12038 0.70221 0.26122 0.0
H3934 H 0.81372 0.62405 0.31004 0.0
H3935 H 0.80595 0.60809 0.29911 0.0
H3936 H 0.80617 0.5871 0.32927 0.0
H3937 H 0.81424 0.60295 0.34021 0.0
H3938 H 0.81324 0.57534 0.31071 0.0
H3939 H 0.78176 0.59878 0.32025 0.0
H3940 H 0.7711 0.61658 0.32146 0.0
H3941 H 0.77121 0.61973 0.28508 0.0
H3942 H 0.78202 0.60202 0.28365 0.0
H3943 H 0.77523 0.53283 0.28644 0.0
H3944 H 0.78495 0.54685 0.29872 0.0
H3945 H 0.7838 0.57151 0.27145 0.0
H3946 H 0.77397 0.5577 0.25938 0.0
H3947 H 0.77679 0.5808 0.28994 0.0
H3948 H 0.80891 0.55784 0.2803 0.0
H3949 H 0.81962 0.54006 0.27897 0.0
H3950 H 0.8183 0.53597 0.31524 0.0
H3951 H 0.80745 0.55365 0.31677 0.0
C3952 C 0.81228 0.616 0.31433 0.0
C3953 C 0.81456 0.61483 0.32604 0.0
C3954 C 0.80774 0.6069 0.30808 0.0
C3955 C 0.80532 0.59642 0.3134 0.0
C3956 C 0.80791 0.5951 0.32499 0.0
C3957 C 0.81244 0.60421 0.33126 0.0
C3958 C 0.79977 0.58699 0.30691 0.0
C3959 C 0.8052 0.57648 0.30627 0.0
C3960 C 0.78934 0.58849 0.30101 0.0
C3961 C 0.7828 0.59913 0.30185 0.0
C3962 C 0.77959 0.60331 0.31251 0.0
C3963 C 0.77351 0.61338 0.31324 0.0
C3964 C 0.7705 0.6193 0.30336 0.0
C3965 C 0.77355 0.61514 0.29273 0.0
C3966 C 0.77966 0.60509 0.29195 0.0
C3967 C 0.7772 0.54121 0.28308 0.0
C3968 C 0.77375 0.54421 0.27201 0.0
C3969 C 0.78276 0.54922 0.29007 0.0
C3970 C 0.78513 0.56028 0.28603 0.0
C3971 C 0.782 0.5631 0.27483 0.0
C3972 C 0.77639 0.55518 0.26793 0.0
C3973 C 0.79039 0.56919 0.29346 0.0
C3974 C 0.78484 0.57962 0.29435 0.0
C3975 C 0.80071 0.5676 0.29954 0.0
C3976 C 0.80727 0.557 0.29864 0.0
C3977 C 0.81083 0.5531 0.28799 0.0
C3978 C 0.81694 0.54305 0.2872 0.0
C3979 C 0.8196 0.53687 0.29701 0.0
C3980 C 0.81621 0.54075 0.30764 0.0
C3981 C 0.81009 0.55079 0.30848 0.0
H3982 H 0.82433 0.52909 0.29638 0.0
H3983 H 0.76579 0.62708 0.30394 0.0
H3984 H 0.91238 0.32884 0.32676 0.0
H3985 H 0.9289 0.3208 0.31728 0.0
H3986 H 0.91055 0.28904 0.31323 0.0
H3987 H 0.89406 0.297 0.32263 0.0
H3988 H 0.93144 0.28535 0.32106 0.0
H3989 H 0.91499 0.30784 0.29085 0.0
H3990 H 0.90802 0.32541 0.28189 0.0
H3991 H 0.94108 0.34107 0.28598 0.0
H3992 H 0.94821 0.32363 0.29511 0.0
H3993 H 0.95903 0.25622 0.27785 0.0
H3994 H 0.94604 0.26717 0.28935 0.0
H3995 H 0.97123 0.2941 0.29206 0.0
H3996 H 0.98438 0.28307 0.28036 0.0
H3997 H 0.94929 0.30194 0.28652 0.0
H3998 H 0.9662 0.27836 0.31477 0.0
H3999 H 0.973 0.2605 0.32325 0.0
H4000 H 0.93893 0.24669 0.32262 0.0
H4001 H 0.93193 0.26441 0.31398 0.0
C4002 C 0.91181 0.32019 0.32372 0.0
C4003 C 0.90188 0.31356 0.32552 0.0
C4004 C 0.92128 0.31559 0.31832 0.0
C4005 C 0.92099 0.30429 0.3145 0.0
C4006 C 0.91104 0.29773 0.31617 0.0
C4007 C 0.90161 0.3023 0.32157 0.0
C4008 C 0.93105 0.29914 0.30896 0.0
C4009 C 0.93528 0.28895 0.31346 0.0
C4010 C 0.93637 0.30401 0.29927 0.0
C4011 C 0.93209 0.31449 0.29379 0.0
C4012 C 0.92074 0.31507 0.28993 0.0
C4013 C 0.91677 0.32499 0.2848 0.0
C4014 C 0.92409 0.33437 0.2834 0.0
C4015 C 0.93541 0.33382 0.28709 0.0
C4016 C 0.93943 0.32391 0.29224 0.0
C4017 C 0.96183 0.26447 0.28089 0.0
C4018 C 0.9727 0.26882 0.27813 0.0
C4019 C 0.95441 0.2707 0.28753 0.0
C4020 C 0.95765 0.28144 0.29163 0.0
C4021 C 0.96855 0.28583 0.28899 0.0
C4022 C 0.97607 0.27951 0.28238 0.0
C4023 C 0.94943 0.28802 0.29846 0.0
C4024 C 0.94556 0.29844 0.29422 0.0
C4025 C 0.9444 0.28337 0.30839 0.0
C4026 C 0.94855 0.2727 0.31366 0.0
C4027 C 0.96017 0.27149 0.31636 0.0
C4028 C 0.96406 0.26139 0.32121 0.0
C4029 C 0.95641 0.25246 0.32345 0.0
C4030 C 0.94484 0.25361 0.32087 0.0
C4031 C 0.94091 0.26369 0.31602 0.0
H4032 H 0.95944 0.24465 0.32721 0.0
H4033 H 0.921 0.34204 0.27942 0.0
H4034 H 0.80834 0.39956 0.69709 0.0
H4035 H 0.79846 0.41605 0.70453 0.0
H4036 H 0.82953 0.42756 0.72087 0.0
H4037 H 0.83947 0.4112 0.7134 0.0
H4038 H 0.81206 0.42825 0.73526 0.0
H4039 H 0.819 0.44085 0.697 0.0
H4040 H 0.81843 0.43953 0.67609 0.0
H4041 H 0.78187 0.43803 0.67667 0.0
H4042 H 0.78223 0.43919 0.6976 0.0
H4043 H 0.79206 0.48079 0.75384 0.0
H4044 H 0.80322 0.46738 0.74293 0.0
H4045 H 0.77261 0.45539 0.72607 0.0
H4046 H 0.76146 0.46905 0.73667 0.0
H4047 H 0.79019 0.45539 0.71159 0.0
H4048 H 0.78301 0.44169 0.74942 0.0
H4049 H 0.78307 0.44262 0.77036 0.0
H4050 H 0.81959 0.44556 0.77059 0.0
H4051 H 0.81972 0.44481 0.74963 0.0
C4052 C 0.81312 0.40568 0.70213 0.0
C4053 C 0.82471 0.40399 0.70467 0.0
C4054 C 0.80745 0.41511 0.70639 0.0
C4055 C 0.81325 0.42311 0.71323 0.0
C4056 C 0.82484 0.4215 0.71567 0.0
C4057 C 0.83051 0.41209 0.71142 0.0
C4058 C 0.80719 0.43292 0.7182 0.0
C4059 C 0.80745 0.43428 0.73005 0.0
C4060 C 0.80089 0.44065 0.71146 0.0
C4061 C 0.80065 0.44 0.69888 0.0
C4062 C 0.81084 0.44015 0.69267 0.0
C4063 C 0.81056 0.43944 0.68081 0.0
C4064 C 0.80012 0.43867 0.67505 0.0
C4065 C 0.78995 0.43862 0.68114 0.0
C4066 C 0.79019 0.43931 0.693 0.0
C4067 C 0.78774 0.47556 0.74757 0.0
C4068 C 0.77583 0.47594 0.74622 0.0
C4069 C 0.79412 0.46778 0.74142 0.0
C4070 C 0.78873 0.46017 0.73385 0.0
C4071 C 0.77697 0.46109 0.73191 0.0
C4072 C 0.77059 0.46887 0.73803 0.0
C4073 C 0.79515 0.45073 0.72863 0.0
C4074 C 0.7949 0.4494 0.71677 0.0
C4075 C 0.80141 0.44295 0.73535 0.0
C4076 C 0.80136 0.44332 0.74796 0.0
C4077 C 0.79104 0.44262 0.75393 0.0
C4078 C 0.79105 0.4431 0.76581 0.0
C4079 C 0.80133 0.44418 0.7718 0.0
C4080 C 0.81163 0.44474 0.76593 0.0
C4081 C 0.81167 0.44429 0.75406 0.0
H4082 H 0.80131 0.44455 0.78099 0.0
H4083 H 0.79992 0.43812 0.66587 0.0
H4084 H 0.12169 0.30019 0.70007 0.0
H4085 H 0.10476 0.29328 0.71005 0.0
H4086 H 0.08761 0.32444 0.70199 0.0
H4087 H 0.10458 0.33144 0.69199 0.0
H4088 H 0.08373 0.31873 0.72329 0.0
H4089 H 0.08092 0.29955 0.68787 0.0
H4090 H 0.08752 0.288 0.67189 0.0
H4091 H 0.0927 0.25978 0.69451 0.0
H4092 H 0.08628 0.27121 0.71067 0.0
H4093 H 0.03278 0.27555 0.73531 0.0
H4094 H 0.04525 0.28594 0.7219 0.0
H4095 H 0.06981 0.29162 0.74882 0.0
H4096 H 0.05747 0.28139 0.76211 0.0
H4097 H 0.0669 0.28063 0.71542 0.0
H4098 H 0.08312 0.31684 0.74523 0.0
H4099 H 0.07562 0.3289 0.76042 0.0
H4100 H 0.04167 0.32415 0.74726 0.0
H4101 H 0.04897 0.31221 0.7319 0.0
C4102 C 0.11429 0.30555 0.70033 0.0
C4103 C 0.11449 0.31636 0.69516 0.0
C4104 C 0.10459 0.30157 0.70604 0.0
C4105 C 0.09481 0.30824 0.70663 0.0
C4106 C 0.09503 0.31911 0.70163 0.0
C4107 C 0.10476 0.32312 0.69595 0.0
C4108 C 0.08447 0.30393 0.71268 0.0
C4109 C 0.08002 0.31043 0.72152 0.0
C4110 C 0.0794 0.29322 0.71021 0.0
C4111 C 0.08318 0.28627 0.7005 0.0
C4112 C 0.08353 0.29091 0.68945 0.0
C4113 C 0.08723 0.28438 0.68036 0.0
C4114 C 0.09054 0.27317 0.68218 0.0
C4115 C 0.09013 0.26846 0.69311 0.0
C4116 C 0.08645 0.27496 0.70224 0.0
C4117 C 0.04077 0.27918 0.73834 0.0
C4118 C 0.0442 0.27761 0.74971 0.0
C4119 C 0.0479 0.28504 0.73069 0.0
C4120 C 0.05845 0.28962 0.73436 0.0
C4121 C 0.06168 0.2883 0.74579 0.0
C4122 C 0.05465 0.28239 0.75337 0.0
C4123 C 0.06647 0.29525 0.72628 0.0
C4124 C 0.07051 0.289 0.71708 0.0
C4125 C 0.07104 0.30626 0.7283 0.0
C4126 C 0.0666 0.31356 0.73745 0.0
C4127 C 0.07406 0.31842 0.74554 0.0
C4128 C 0.06985 0.32522 0.75419 0.0
C4129 C 0.05818 0.32727 0.75482 0.0
C4130 C 0.0507 0.32253 0.74679 0.0
C4131 C 0.05488 0.31573 0.73811 0.0
H4132 H 0.05493 0.33253 0.76153 0.0
H4133 H 0.09341 0.26813 0.67513 0.0
H4134 H 0.89698 0.70072 0.70813 0.0
H4135 H 0.91347 0.70887 0.71817 0.0
H4136 H 0.93112 0.713 0.68636 0.0
H4137 H 0.91481 0.70451 0.67629 0.0
H4138 H 0.94556 0.70603 0.70274 0.0
H4139 H 0.91801 0.73532 0.6983 0.0
H4140 H 0.89911 0.74399 0.6998 0.0
H4141 H 0.90049 0.7405 0.73614 0.0
H4142 H 0.91934 0.73166 0.73484 0.0
H4143 H 0.97086 0.75997 0.73452 0.0
H4144 H 0.95772 0.75053 0.72123 0.0
H4145 H 0.96622 0.71806 0.7359 0.0
H4146 H 0.97952 0.72749 0.74906 0.0
H4147 H 0.93915 0.73976 0.72674 0.0
H4148 H 0.96037 0.69679 0.71702 0.0
H4149 H 0.9796 0.68922 0.71417 0.0
H4150 H 0.99171 0.7222 0.70363 0.0
H4151 H 0.97252 0.72994 0.70627 0.0
C4152 C 0.90443 0.70318 0.70328 0.0
C4153 C 0.90451 0.70202 0.69138 0.0
C4154 C 0.91383 0.70794 0.70902 0.0
C4155 C 0.92349 0.71171 0.70301 0.0
C4156 C 0.92375 0.7102 0.69119 0.0
C4157 C 0.91437 0.70544 0.68543 0.0
C4158 C 0.9331 0.71762 0.70898 0.0
C4159 C 0.94417 0.71339 0.708 0.0
C4160 C 0.93135 0.72738 0.71565 0.0
C4161 C 0.92003 0.73273 0.71646 0.0
C4162 C 0.91424 0.73632 0.7066 0.0
C4163 C 0.90355 0.74128 0.70742 0.0
C4164 C 0.89859 0.74277 0.71805 0.0
C4165 C 0.90433 0.73933 0.7279 0.0
C4166 C 0.91503 0.73435 0.72713 0.0
C4167 C 0.97013 0.75079 0.7347 0.0
C4168 C 0.97623 0.74447 0.74281 0.0
C4169 C 0.96258 0.7454 0.72715 0.0
C4170 C 0.96092 0.73357 0.72756 0.0
C4171 C 0.96744 0.72717 0.73528 0.0
C4172 C 0.97508 0.73257 0.74278 0.0
C4173 C 0.95166 0.7281 0.72066 0.0
C4174 C 0.9406 0.7324 0.72148 0.0
C4175 C 0.95348 0.71855 0.71369 0.0
C4176 C 0.96503 0.71396 0.71195 0.0
C4177 C 0.96713 0.70242 0.71405 0.0
C4178 C 0.97802 0.6981 0.71248 0.0
C4179 C 0.98688 0.70523 0.70876 0.0
C4180 C 0.98485 0.7167 0.70656 0.0
C4181 C 0.97397 0.72105 0.70811 0.0
H4182 H 0.9953 0.70187 0.70755 0.0
H4183 H 0.89031 0.74661 0.71866 0.0
H4184 H 0.70624 0.1782 0.60921 0.0
H4185 H 0.71405 0.18807 0.59263 0.0
H4186 H 0.7029 0.22001 0.60592 0.0
H4187 H 0.69515 0.2102 0.62265 0.0
H4188 H 0.69912 0.21856 0.58289 0.0
H4189 H 0.73029 0.21254 0.60883 0.0
H4190 H 0.74282 0.20127 0.62129 0.0
H4191 H 0.7526 0.18108 0.59283 0.0
H4192 H 0.73999 0.19213 0.58022 0.0
H4193 H 0.73621 0.2566 0.55302 0.0
H4194 H 0.7246 0.24535 0.56619 0.0
H4195 H 0.73858 0.21461 0.55277 0.0
H4196 H 0.75051 0.22588 0.5398 0.0
H4197 H 0.74034 0.21468 0.57511 0.0
H4198 H 0.71008 0.22167 0.54879 0.0
H4199 H 0.69763 0.23311 0.53642 0.0
H4200 H 0.68618 0.25162 0.56539 0.0
H4201 H 0.69869 0.24039 0.57793 0.0
C4202 C 0.70548 0.18733 0.60866 0.0
C4203 C 0.70017 0.1934 0.61738 0.0
C4204 C 0.70992 0.19297 0.59913 0.0
C4205 C 0.70921 0.20481 0.59808 0.0
C4206 C 0.70356 0.21087 0.60654 0.0
C4207 C 0.69911 0.20523 0.6161 0.0
C4208 C 0.71476 0.2109 0.58839 0.0
C4209 C 0.70815 0.21781 0.58124 0.0
C4210 C 0.72649 0.20972 0.58606 0.0
C4211 C 0.73411 0.20308 0.59361 0.0
C4212 C 0.73504 0.20564 0.60525 0.0
C4213 C 0.74217 0.1993 0.61233 0.0
C4214 C 0.74848 0.19044 0.60786 0.0
C4215 C 0.74769 0.18793 0.59629 0.0
C4216 C 0.74056 0.19423 0.58917 0.0
C4217 C 0.73667 0.24743 0.55273 0.0
C4218 C 0.74434 0.24215 0.54538 0.0
C4219 C 0.72996 0.24099 0.56023 0.0
C4220 C 0.73066 0.22909 0.5605 0.0
C4221 C 0.73788 0.22377 0.55275 0.0
C4222 C 0.74461 0.23022 0.54524 0.0
C4223 C 0.72471 0.22236 0.56953 0.0
C4224 C 0.73127 0.21536 0.57663 0.0
C4225 C 0.71294 0.22348 0.5718 0.0
C4226 C 0.7054 0.23025 0.56429 0.0
C4227 C 0.70498 0.22824 0.55252 0.0
C4228 C 0.6979 0.23468 0.54547 0.0
C4229 C 0.69114 0.2431 0.55011 0.0
C4230 C 0.69143 0.24509 0.56181 0.0
C4231 C 0.6985 0.23869 0.56889 0.0
H4232 H 0.68566 0.24808 0.54464 0.0
H4233 H 0.75399 0.18554 0.61336 0.0
H4234 H 0.32592 0.2073 0.61598 0.0
H4235 H 0.31864 0.2172 0.5992 0.0
H4236 H 0.28773 0.19693 0.60053 0.0
H4237 H 0.2952 0.18657 0.61692 0.0
H4238 H 0.29397 0.19916 0.57936 0.0
H4239 H 0.28921 0.22482 0.61031 0.0
H4240 H 0.29507 0.23629 0.62688 0.0
H4241 H 0.31874 0.25516 0.60616 0.0
H4242 H 0.31313 0.24369 0.58949 0.0
H4243 H 0.25705 0.23689 0.54876 0.0
H4244 H 0.26668 0.22468 0.56266 0.0
H4245 H 0.29855 0.24204 0.55582 0.0
H4246 H 0.28897 0.25421 0.54185 0.0
H4247 H 0.29265 0.24123 0.57904 0.0
H4248 H 0.29576 0.21579 0.5476 0.0
H4249 H 0.28869 0.2045 0.53137 0.0
H4250 H 0.26657 0.18543 0.55355 0.0
H4251 H 0.27339 0.19673 0.5699 0.0
C4252 C 0.31764 0.20483 0.61263 0.0
C4253 C 0.31114 0.19615 0.6179 0.0
C4254 C 0.31342 0.2106 0.60309 0.0
C4255 C 0.30254 0.20795 0.59867 0.0
C4256 C 0.29612 0.19917 0.60378 0.0
C4257 C 0.30036 0.19334 0.61326 0.0
C4258 C 0.29778 0.21439 0.58882 0.0
C4259 C 0.29359 0.20836 0.57936 0.0
C4260 C 0.29743 0.22641 0.58867 0.0
C4261 C 0.30084 0.23331 0.59868 0.0
C4262 C 0.29573 0.23135 0.60931 0.0
C4263 C 0.299 0.23786 0.61871 0.0
C4264 C 0.3073 0.24643 0.61758 0.0
C4265 C 0.31233 0.24851 0.60703 0.0
C4266 C 0.30911 0.24201 0.5976 0.0
C4267 C 0.26616 0.23792 0.55006 0.0
C4268 C 0.27228 0.24645 0.54419 0.0
C4269 C 0.27165 0.23095 0.55798 0.0
C4270 C 0.28333 0.23246 0.56027 0.0
C4271 C 0.28953 0.24072 0.55416 0.0
C4272 C 0.28408 0.2476 0.54612 0.0
C4273 C 0.28885 0.226 0.56964 0.0
C4274 C 0.29314 0.23204 0.57903 0.0
C4275 C 0.28913 0.214 0.56978 0.0
C4276 C 0.28502 0.20718 0.55996 0.0
C4277 C 0.28932 0.20926 0.549 0.0
C4278 C 0.28537 0.20284 0.53978 0.0
C4279 C 0.27717 0.19427 0.54142 0.0
C4280 C 0.27291 0.19208 0.55229 0.0
C4281 C 0.27683 0.19848 0.56154 0.0
H4282 H 0.27412 0.1893 0.53427 0.0
H4283 H 0.30981 0.25147 0.62487 0.0
H4284 H 0.31543 0.83923 0.60573 0.0
H4285 H 0.308 0.82866 0.58939 0.0
H4286 H 0.30992 0.79748 0.60867 0.0
H4287 H 0.31732 0.808 0.62507 0.0
H4288 H 0.31727 0.79435 0.58751 0.0
H4289 H 0.28453 0.81117 0.60449 0.0
H4290 H 0.27303 0.82681 0.61181 0.0
H4291 H 0.27323 0.84273 0.57887 0.0
H4292 H 0.28488 0.82725 0.57139 0.0
H4293 H 0.2778 0.75828 0.55953 0.0
H4294 H 0.28815 0.77073 0.57266 0.0
H4295 H 0.28654 0.79809 0.54819 0.0
H4296 H 0.27608 0.78552 0.53489 0.0
H4297 H 0.2801 0.80446 0.57018 0.0
H4298 H 0.31137 0.78613 0.55288 0.0
H4299 H 0.32234 0.76996 0.5459 0.0
H4300 H 0.32443 0.75637 0.57979 0.0
H4301 H 0.31332 0.77237 0.58696 0.0
C4302 C 0.31422 0.83013 0.60653 0.0
C4303 C 0.31692 0.82449 0.61678 0.0
C4304 C 0.30998 0.82408 0.59715 0.0
C4305 C 0.30825 0.81227 0.59781 0.0
C4306 C 0.31118 0.80658 0.60793 0.0
C4307 C 0.31545 0.81262 0.61731 0.0
C4308 C 0.30322 0.80584 0.58805 0.0
C4309 C 0.3091 0.79652 0.58379 0.0
C4310 C 0.29269 0.80882 0.58295 0.0
C4311 C 0.28569 0.81813 0.58742 0.0
C4312 C 0.2822 0.81806 0.59884 0.0
C4313 C 0.27564 0.82688 0.60301 0.0
C4314 C 0.27243 0.83578 0.59582 0.0
C4315 C 0.27575 0.83585 0.58443 0.0
C4316 C 0.28232 0.82705 0.58022 0.0
C4317 C 0.27968 0.76694 0.55691 0.0
C4318 C 0.27607 0.77096 0.54621 0.0
C4319 C 0.28566 0.77403 0.5644 0.0
C4320 C 0.28819 0.78534 0.5614 0.0
C4321 C 0.2847 0.78939 0.55067 0.0
C4322 C 0.27879 0.78221 0.54307 0.0
C4323 C 0.29408 0.7929 0.56976 0.0
C4324 C 0.28835 0.80241 0.57379 0.0
C4325 C 0.30471 0.79004 0.5747 0.0
C4326 C 0.31144 0.78042 0.57044 0.0
C4327 C 0.31409 0.77965 0.55883 0.0
C4328 C 0.32035 0.77052 0.55485 0.0
C4329 C 0.32406 0.76213 0.56239 0.0
C4330 C 0.32154 0.76287 0.57395 0.0
C4331 C 0.31528 0.77198 0.57798 0.0
H4332 H 0.3289 0.75507 0.55929 0.0
H4333 H 0.26735 0.8426 0.59906 0.0
H4334 H 0.68733 0.82572 0.60804 0.0
H4335 H 0.69537 0.81634 0.59144 0.0
H4336 H 0.7274 0.81301 0.60926 0.0
H4337 H 0.71945 0.82232 0.6258 0.0
H4338 H 0.7309 0.82075 0.58834 0.0
H4339 H 0.70866 0.7903 0.60526 0.0
H4340 H 0.69115 0.78107 0.61254 0.0
H4341 H 0.67517 0.78467 0.57979 0.0
H4342 H 0.69255 0.79405 0.57235 0.0
H4343 H 0.76022 0.77782 0.56078 0.0
H4344 H 0.74916 0.78913 0.57385 0.0
H4345 H 0.7222 0.79155 0.54888 0.0
H4346 H 0.73334 0.78004 0.53565 0.0
H4347 H 0.71439 0.78585 0.57097 0.0
H4348 H 0.73782 0.81433 0.55361 0.0
H4349 H 0.75569 0.823 0.54655 0.0
H4350 H 0.76968 0.8228 0.58038 0.0
H4351 H 0.75195 0.81397 0.58763 0.0
C4352 C 0.69605 0.82287 0.60846 0.0
C4353 C 0.70276 0.82483 0.61825 0.0
C4354 C 0.70064 0.81752 0.59895 0.0
C4355 C 0.712 0.81393 0.59908 0.0
C4356 C 0.71865 0.81577 0.60889 0.0
C4357 C 0.71409 0.82112 0.61836 0.0
C4358 C 0.71715 0.80843 0.589 0.0
C4359 C 0.72731 0.81308 0.58461 0.0
C4360 C 0.71229 0.79863 0.58383 0.0
C4361 C 0.70185 0.793 0.58829 0.0
C4362 C 0.70138 0.78921 0.59964 0.0
C4363 C 0.69148 0.78394 0.60379 0.0
C4364 C 0.68204 0.78232 0.59664 0.0
C4365 C 0.68248 0.78595 0.58532 0.0
C4366 C 0.69235 0.79124 0.58113 0.0
C4367 C 0.75193 0.78074 0.55805 0.0
C4368 C 0.7476 0.77797 0.54722 0.0
C4369 C 0.74564 0.78727 0.56551 0.0
C4370 C 0.73487 0.79125 0.56234 0.0
C4371 C 0.7305 0.78857 0.5515 0.0
C4372 C 0.73688 0.78207 0.54393 0.0
C4373 C 0.72827 0.79802 0.57057 0.0
C4374 C 0.71786 0.79363 0.5746 0.0
C4375 C 0.7329 0.80804 0.57546 0.0
C4376 C 0.74357 0.81342 0.57115 0.0
C4377 C 0.74473 0.81606 0.55954 0.0
C4378 C 0.75483 0.82101 0.5555 0.0
C4379 C 0.76382 0.82343 0.56301 0.0
C4380 C 0.76271 0.82092 0.57458 0.0
C4381 C 0.75263 0.81596 0.57866 0.0
H4382 H 0.77163 0.82726 0.55987 0.0
H4383 H 0.67439 0.77823 0.59987 0.0
H4384 H 0.71704 0.82454 0.40198 0.0
H4385 H 0.72372 0.81365 0.41837 0.0
H4386 H 0.68945 0.81156 0.43125 0.0
H4387 H 0.68271 0.82275 0.41495 0.0
H4388 H 0.70474 0.81618 0.44821 0.0
H4389 H 0.70053 0.78889 0.41865 0.0
H4390 H 0.703 0.78094 0.3995 0.0
H4391 H 0.73927 0.7809 0.40448 0.0
H4392 H 0.73704 0.78901 0.4236 0.0
H4393 H 0.73275 0.76026 0.47309 0.0
H4394 H 0.72014 0.77032 0.45994 0.0
H4395 H 0.73566 0.80221 0.46995 0.0
H4396 H 0.74816 0.79219 0.48321 0.0
H4397 H 0.72685 0.78127 0.44199 0.0
H4398 H 0.71801 0.82412 0.46435 0.0
H4399 H 0.71426 0.83116 0.48364 0.0
H4400 H 0.70153 0.79821 0.49356 0.0
H4401 H 0.70505 0.79101 0.47429 0.0
C4402 C 0.71092 0.82187 0.40834 0.0
C4403 C 0.69933 0.82453 0.40713 0.0
C4404 C 0.71474 0.81556 0.41768 0.0
C4405 C 0.70708 0.81169 0.426 0.0
C4406 C 0.69552 0.81443 0.42492 0.0
C4407 C 0.69167 0.82074 0.41555 0.0
C4408 C 0.71119 0.80469 0.43573 0.0
C4409 C 0.70955 0.80852 0.44688 0.0
C4410 C 0.71723 0.79455 0.43401 0.0
C4411 C 0.71862 0.78964 0.42253 0.0
C4412 C 0.70904 0.78727 0.41563 0.0
C4413 C 0.7104 0.78272 0.40478 0.0
C4414 C 0.72129 0.78044 0.40077 0.0
C4415 C 0.73084 0.78268 0.4076 0.0
C4416 C 0.72954 0.78724 0.41844 0.0
C4417 C 0.73325 0.76945 0.47269 0.0
C4418 C 0.74145 0.77543 0.47917 0.0
C4419 C 0.72608 0.77519 0.46514 0.0
C4420 C 0.72694 0.78704 0.46389 0.0
C4421 C 0.73468 0.79309 0.47085 0.0
C4422 C 0.74182 0.78735 0.47846 0.0
C4423 C 0.72069 0.79289 0.45452 0.0
C4424 C 0.72196 0.78886 0.4434 0.0
C4425 C 0.71416 0.80272 0.4563 0.0
C4426 C 0.71189 0.807 0.46789 0.0
C4427 C 0.71436 0.81839 0.47063 0.0
C4428 C 0.71228 0.8224 0.48157 0.0
C4429 C 0.70769 0.81513 0.48983 0.0
C4430 C 0.70513 0.80383 0.48716 0.0
C4431 C 0.70718 0.79977 0.47624 0.0
H4432 H 0.70609 0.81825 0.49829 0.0
H4433 H 0.72232 0.77692 0.39237 0.0
H4434 H 0.68672 0.21761 0.40408 0.0
H4435 H 0.69655 0.22564 0.42059 0.0
H4436 H 0.71587 0.19504 0.42443 0.0
H4437 H 0.70617 0.18696 0.40774 0.0
H4438 H 0.7084 0.20308 0.44513 0.0
H4439 H 0.72816 0.21788 0.4126 0.0
H4440 H 0.72994 0.22737 0.39394 0.0
H4441 H 0.71582 0.25771 0.40766 0.0
H4442 H 0.7138 0.24834 0.42637 0.0
H4443 H 0.75211 0.22774 0.48096 0.0
H4444 H 0.74034 0.21762 0.46689 0.0
H4445 H 0.72251 0.24853 0.45932 0.0
H4446 H 0.73442 0.25869 0.4732 0.0
H4447 H 0.72948 0.23964 0.44052 0.0
H4448 H 0.70975 0.22496 0.47316 0.0
H4449 H 0.70789 0.21548 0.49182 0.0
H4450 H 0.72185 0.18506 0.47811 0.0
H4451 H 0.72394 0.19442 0.4594 0.0
C4452 C 0.69313 0.2126 0.40834 0.0
C4453 C 0.69573 0.20167 0.40444 0.0
C4454 C 0.69871 0.21719 0.41784 0.0
C4455 C 0.70706 0.21101 0.42369 0.0
C4456 C 0.70946 0.19997 0.42006 0.0
C4457 C 0.70388 0.19536 0.41051 0.0
C4458 C 0.71347 0.21625 0.43336 0.0
C4459 C 0.71313 0.21101 0.44411 0.0
C4460 C 0.71948 0.2267 0.43209 0.0
C4461 C 0.72073 0.23237 0.42086 0.0
C4462 C 0.72535 0.22655 0.41161 0.0
C4463 C 0.72642 0.23191 0.40103 0.0
C4464 C 0.72297 0.24313 0.39961 0.0
C4465 C 0.71848 0.24902 0.40877 0.0
C4466 C 0.71738 0.24369 0.41937 0.0
C4467 C 0.74546 0.23229 0.47652 0.0
C4468 C 0.74418 0.24401 0.47818 0.0
C4469 C 0.73873 0.2265 0.46845 0.0
C4470 C 0.7305 0.23229 0.462 0.0
C4471 C 0.72884 0.24387 0.46411 0.0
C4472 C 0.73561 0.24966 0.47208 0.0
C4473 C 0.72428 0.2266 0.45242 0.0
C4474 C 0.72472 0.23174 0.44161 0.0
C4475 C 0.71836 0.21608 0.45367 0.0
C4476 C 0.7171 0.21043 0.46491 0.0
C4477 C 0.71251 0.21628 0.47415 0.0
C4478 C 0.7114 0.21092 0.48473 0.0
C4479 C 0.71478 0.19969 0.48616 0.0
C4480 C 0.71925 0.19377 0.477 0.0
C4481 C 0.72039 0.1991 0.4664 0.0
H4482 H 0.71391 0.19555 0.49436 0.0
H4483 H 0.72381 0.24727 0.39141 0.0
H4484 H 0.33598 0.2147 0.40961 0.0
H4485 H 0.3261 0.22257 0.42587 0.0
H4486 H 0.29752 0.19993 0.41967 0.0
H4487 H 0.30745 0.19181 0.4035 0.0
H4488 H 0.29086 0.22179 0.42335 0.0
H4489 H 0.31546 0.19496 0.44162 0.0
H4490 H 0.33382 0.18599 0.44599 0.0
H4491 H 0.34699 0.21756 0.45906 0.0
H4492 H 0.32875 0.22677 0.45462 0.0
H4493 H 0.26114 0.23549 0.47272 0.0
H4494 H 0.27166 0.22405 0.45919 0.0
H4495 H 0.30202 0.24414 0.46585 0.0
H4496 H 0.29157 0.2554 0.47963 0.0
H4497 H 0.30762 0.22275 0.4622 0.0
H4498 H 0.28411 0.24997 0.44322 0.0
H4499 H 0.26616 0.25966 0.4387 0.0
H4500 H 0.25152 0.22835 0.42649 0.0
H4501 H 0.26934 0.21843 0.43112 0.0
C4502 C 0.32767 0.21123 0.41179 0.0
C4503 C 0.32257 0.20254 0.40523 0.0
C4504 C 0.32201 0.21579 0.42109 0.0
C4505 C 0.31111 0.21177 0.42408 0.0
C4506 C 0.30593 0.20317 0.41753 0.0
C4507 C 0.31161 0.19857 0.40824 0.0
C4508 C 0.30501 0.21676 0.43387 0.0
C4509 C 0.29444 0.22182 0.43188 0.0
C4510 C 0.30982 0.21711 0.44495 0.0
C4511 C 0.32077 0.21157 0.4477 0.0
C4512 C 0.3223 0.20001 0.44535 0.0
C4513 C 0.33268 0.19488 0.44785 0.0
C4514 C 0.34158 0.20121 0.45277 0.0
C4515 C 0.3401 0.21267 0.45524 0.0
C4516 C 0.32973 0.21785 0.45274 0.0
C4517 C 0.27013 0.23729 0.47147 0.0
C4518 C 0.27553 0.24636 0.47719 0.0
C4519 C 0.27612 0.2308 0.46368 0.0
C4520 C 0.28758 0.23341 0.46126 0.0
C4521 C 0.29318 0.24199 0.46752 0.0
C4522 C 0.28722 0.2484 0.47543 0.0
C4523 C 0.29345 0.22776 0.45168 0.0
C4524 C 0.304 0.22263 0.45369 0.0
C4525 C 0.28869 0.22746 0.44057 0.0
C4526 C 0.27802 0.23344 0.43762 0.0
C4527 C 0.27704 0.24514 0.43964 0.0
C4528 C 0.26689 0.25067 0.43706 0.0
C4529 C 0.25769 0.24462 0.43234 0.0
C4530 C 0.25864 0.23302 0.43016 0.0
C4531 C 0.26877 0.22744 0.43276 0.0
H4532 H 0.24984 0.24891 0.43035 0.0
H4533 H 0.34961 0.19722 0.4547 0.0
H4534 H 0.33003 0.82416 0.41098 0.0
H4535 H 0.32259 0.81389 0.42756 0.0
H4536 H 0.29197 0.80531 0.40878 0.0
H4537 H 0.29934 0.81556 0.39221 0.0
H4538 H 0.28651 0.81163 0.42943 0.0
H4539 H 0.31328 0.78589 0.41347 0.0
H4540 H 0.33196 0.7799 0.40642 0.0
H4541 H 0.34697 0.78627 0.43922 0.0
H4542 H 0.32839 0.79244 0.44642 0.0
H4543 H 0.27859 0.756 0.46228 0.0
H4544 H 0.28854 0.7675 0.44798 0.0
H4545 H 0.28536 0.79708 0.46907 0.0
H4546 H 0.27543 0.78546 0.48355 0.0
H4547 H 0.3082 0.78076 0.44805 0.0
H4548 H 0.27836 0.81906 0.45007 0.0
H4549 H 0.25866 0.82329 0.45567 0.0
H4550 H 0.24828 0.78898 0.44828 0.0
H4551 H 0.26785 0.7846 0.44248 0.0
C4552 C 0.32176 0.82 0.41034 0.0
C4553 C 0.3153 0.8207 0.40023 0.0
C4554 C 0.31749 0.81415 0.41985 0.0
C4555 C 0.30672 0.80875 0.41944 0.0
C4556 C 0.30026 0.80945 0.40936 0.0
C4557 C 0.3045 0.81533 0.39988 0.0
C4558 C 0.30217 0.80231 0.42942 0.0
C4559 C 0.29132 0.80495 0.43354 0.0
C4560 C 0.30831 0.79346 0.43475 0.0
C4561 C 0.31948 0.78974 0.43044 0.0
C4562 C 0.32058 0.7861 0.41915 0.0
C4563 C 0.33115 0.78266 0.41513 0.0
C4564 C 0.34065 0.78274 0.42236 0.0
C4565 C 0.3396 0.78623 0.43363 0.0
C4566 C 0.32906 0.78969 0.43768 0.0
C4567 C 0.28017 0.76493 0.46394 0.0
C4568 C 0.27623 0.76987 0.47399 0.0
C4569 C 0.28589 0.77148 0.45578 0.0
C4570 C 0.28765 0.78316 0.45742 0.0
C4571 C 0.28405 0.78808 0.46763 0.0
C4572 C 0.27843 0.78146 0.4759 0.0
C4573 C 0.29264 0.79017 0.44807 0.0
C4574 C 0.30352 0.78761 0.44406 0.0
C4575 C 0.28643 0.7989 0.44267 0.0
C4576 C 0.2746 0.80148 0.44599 0.0
C4577 C 0.27186 0.81243 0.44962 0.0
C4578 C 0.26072 0.81486 0.45282 0.0
C4579 C 0.25224 0.8064 0.45237 0.0
C4580 C 0.25486 0.79551 0.44867 0.0
C4581 C 0.26598 0.79305 0.44543 0.0
H4582 H 0.24362 0.80829 0.45487 0.0
H4583 H 0.34883 0.78007 0.41924 0.0
H4584 H 0.61159 0.18882 0.7078 0.0
H4585 H 0.59502 0.19662 0.71732 0.0
H4586 H 0.59932 0.22792 0.69853 0.0
H4587 H 0.61572 0.22014 0.68882 0.0
H4588 H 0.5961 0.23177 0.72098 0.0
H4589 H 0.57813 0.2091 0.69176 0.0
H4590 H 0.57421 0.19153 0.68104 0.0
H4591 H 0.56212 0.1751 0.71143 0.0
H4592 H 0.56613 0.19254 0.72237 0.0
H4593 H 0.54609 0.25904 0.73546 0.0
H4594 H 0.55986 0.24929 0.72363 0.0
H4595 H 0.55339 0.21817 0.74218 0.0
H4596 H 0.53936 0.22787 0.75386 0.0
H4597 H 0.55762 0.21368 0.72019 0.0
H4598 H 0.5755 0.23573 0.74952 0.0
H4599 H 0.57931 0.25303 0.7607 0.0
H4600 H 0.59194 0.27011 0.73088 0.0
H4601 H 0.58801 0.25296 0.71947 0.0
C4602 C 0.60894 0.19731 0.70557 0.0
C4603 C 0.61506 0.20384 0.69754 0.0
C4604 C 0.59946 0.20178 0.71105 0.0
C4605 C 0.59586 0.21285 0.70861 0.0
C4606 C 0.60195 0.21938 0.7006 0.0
C4607 C 0.61138 0.21492 0.6951 0.0
C4608 C 0.58596 0.21779 0.71456 0.0
C4609 C 0.58766 0.22789 0.72067 0.0
C4610 C 0.575 0.21256 0.71447 0.0
C4611 C 0.57254 0.20209 0.7079 0.0
C4612 C 0.57473 0.20171 0.69617 0.0
C4613 C 0.57247 0.19178 0.69005 0.0
C4614 C 0.56795 0.18219 0.69555 0.0
C4615 C 0.56564 0.18253 0.70718 0.0
C4616 C 0.56789 0.19244 0.71334 0.0
C4617 C 0.54741 0.25005 0.73682 0.0
C4618 C 0.5417 0.24423 0.74561 0.0
C4619 C 0.55533 0.2445 0.73011 0.0
C4620 C 0.5579 0.23306 0.7322 0.0
C4621 C 0.55161 0.22701 0.74044 0.0
C4622 C 0.54356 0.23255 0.74708 0.0
C4623 C 0.56774 0.22774 0.72645 0.0
C4624 C 0.56606 0.21757 0.72046 0.0
C4625 C 0.57877 0.23283 0.72673 0.0
C4626 C 0.58137 0.24309 0.73362 0.0
C4627 C 0.57903 0.24319 0.74533 0.0
C4628 C 0.58121 0.25297 0.75171 0.0
C4629 C 0.58584 0.26267 0.7465 0.0
C4630 C 0.58834 0.26259 0.7349 0.0
C4631 C 0.58614 0.25285 0.72847 0.0
H4632 H 0.58751 0.27024 0.75145 0.0
H4633 H 0.56621 0.17451 0.6908 0.0
H4634 H 0.33436 0.10687 0.70734 0.0
H4635 H 0.32352 0.09084 0.71524 0.0
H4636 H 0.2922 0.10846 0.70873 0.0
H4637 H 0.30303 0.12471 0.70119 0.0
H4638 H 0.29236 0.09996 0.72959 0.0
H4639 H 0.30009 0.08543 0.69267 0.0
H4640 H 0.31195 0.08035 0.67632 0.0
H4641 H 0.33067 0.05716 0.69734 0.0
H4642 H 0.31903 0.06222 0.71386 0.0
H4643 H 0.25567 0.05279 0.74157 0.0
H4644 H 0.26587 0.06755 0.73087 0.0
H4645 H 0.29793 0.05344 0.74137 0.0
H4646 H 0.28787 0.03898 0.7526 0.0
H4647 H 0.29689 0.05992 0.71786 0.0
H4648 H 0.29012 0.07534 0.75481 0.0
H4649 H 0.27939 0.08146 0.77156 0.0
H4650 H 0.25921 0.10329 0.75044 0.0
H4651 H 0.26975 0.0972 0.73353 0.0
C4652 C 0.32517 0.10736 0.70761 0.0
C4653 C 0.31959 0.11713 0.70366 0.0
C4654 C 0.31896 0.09811 0.71201 0.0
C4655 C 0.30701 0.09837 0.71248 0.0
C4656 C 0.3014 0.10804 0.70841 0.0
C4657 C 0.30761 0.1173 0.70402 0.0
C4658 C 0.30043 0.08882 0.71778 0.0
C4659 C 0.29318 0.09124 0.72685 0.0
C4660 C 0.30174 0.07737 0.71445 0.0
C4661 C 0.30875 0.07429 0.70453 0.0
C4662 C 0.3068 0.07931 0.69383 0.0
C4663 C 0.31347 0.07642 0.68452 0.0
C4664 C 0.32208 0.06846 0.68579 0.0
C4665 C 0.32401 0.06334 0.69637 0.0
C4666 C 0.31737 0.06621 0.7057 0.0
C4667 C 0.2649 0.05279 0.74165 0.0
C4668 C 0.2709 0.04468 0.7481 0.0
C4669 C 0.27071 0.06123 0.73548 0.0
C4670 C 0.28265 0.06166 0.73543 0.0
C4671 C 0.2887 0.05325 0.7413 0.0
C4672 C 0.2829 0.04491 0.74764 0.0
C4673 C 0.28882 0.07112 0.72959 0.0
C4674 C 0.29599 0.06867 0.72047 0.0
C4675 C 0.28744 0.08256 0.73285 0.0
C4676 C 0.28064 0.08572 0.74289 0.0
C4677 C 0.28329 0.08132 0.75371 0.0
C4678 C 0.2773 0.08485 0.76325 0.0
C4679 C 0.26868 0.09281 0.76208 0.0
C4680 C 0.26593 0.09717 0.75134 0.0
C4681 C 0.27191 0.09368 0.74178 0.0
H4682 H 0.26407 0.09555 0.76948 0.0
H4683 H 0.32723 0.06623 0.67858 0.0
H4684 H 0.40531 0.83082 0.70767 0.0
H4685 H 0.42218 0.82309 0.7171 0.0
H4686 H 0.41799 0.79209 0.69813 0.0
H4687 H 0.40129 0.7998 0.68852 0.0
H4688 H 0.4218 0.78788 0.72056 0.0
H4689 H 0.43867 0.8115 0.69131 0.0
H4690 H 0.44198 0.82941 0.68079 0.0
H4691 H 0.45449 0.8453 0.71128 0.0
H4692 H 0.45111 0.82752 0.72202 0.0
H4693 H 0.47211 0.7608 0.73412 0.0
H4694 H 0.45848 0.77098 0.72215 0.0
H4695 H 0.46467 0.80138 0.74165 0.0
H4696 H 0.47855 0.79123 0.75348 0.0
H4697 H 0.45999 0.80656 0.71941 0.0
H4698 H 0.44336 0.78371 0.74878 0.0
H4699 H 0.44028 0.76613 0.7599 0.0
H4700 H 0.42689 0.74941 0.73022 0.0
H4701 H 0.43012 0.76683 0.71886 0.0
C4702 C 0.40804 0.82241 0.70539 0.0
C4703 C 0.40187 0.81595 0.69733 0.0
C4704 C 0.41769 0.81799 0.71082 0.0
C4705 C 0.42141 0.80702 0.70829 0.0
C4706 C 0.41527 0.80055 0.70027 0.0
C4707 C 0.40567 0.80497 0.69482 0.0
C4708 C 0.43155 0.80213 0.71412 0.0
C4709 C 0.43017 0.7919 0.72017 0.0
C4710 C 0.44243 0.80754 0.71395 0.0
C4711 C 0.44453 0.81821 0.70749 0.0
C4712 C 0.44204 0.81884 0.69579 0.0
C4713 C 0.44395 0.82896 0.68978 0.0
C4714 C 0.44841 0.8385 0.69537 0.0
C4715 C 0.45102 0.83792 0.70696 0.0
C4716 C 0.44912 0.82781 0.71301 0.0
C4717 C 0.47084 0.76976 0.73559 0.0
C4718 C 0.47636 0.77523 0.74472 0.0
C4719 C 0.46299 0.77555 0.72881 0.0
C4720 C 0.46032 0.78688 0.73118 0.0
C4721 C 0.46654 0.79264 0.73969 0.0
C4722 C 0.47451 0.78686 0.74641 0.0
C4723 C 0.45026 0.79221 0.72565 0.0
C4724 C 0.45162 0.80254 0.71976 0.0
C4725 C 0.43931 0.78697 0.72607 0.0
C4726 C 0.43708 0.77655 0.73294 0.0
C4727 C 0.43982 0.77626 0.74461 0.0
C4728 C 0.43806 0.76633 0.75095 0.0
C4729 C 0.43341 0.75665 0.74577 0.0
C4730 C 0.4305 0.75691 0.73423 0.0
C4731 C 0.4323 0.76681 0.72783 0.0
H4732 H 0.43206 0.74896 0.75069 0.0
H4733 H 0.44988 0.84633 0.6907 0.0
H4734 H 0.67874 0.91044 0.71175 0.0
H4735 H 0.6893 0.92683 0.71919 0.0
H4736 H 0.72006 0.91468 0.70397 0.0
H4737 H 0.70963 0.89799 0.69687 0.0
H4738 H 0.72423 0.92133 0.72504 0.0
H4739 H 0.70541 0.93761 0.69277 0.0
H4740 H 0.68912 0.94216 0.6803 0.0
H4741 H 0.67346 0.96016 0.70753 0.0
H4742 H 0.6896 0.95558 0.72022 0.0
H4743 H 0.75711 0.97022 0.7365 0.0
H4744 H 0.74628 0.95646 0.72506 0.0
H4745 H 0.7154 0.96584 0.74198 0.0
H4746 H 0.7262 0.97964 0.75345 0.0
H4747 H 0.71166 0.96097 0.71918 0.0
H4748 H 0.73002 0.94389 0.75157 0.0
H4749 H 0.74648 0.93977 0.76395 0.0
H4750 H 0.76301 0.92322 0.73632 0.0
H4751 H 0.74672 0.92747 0.72369 0.0
C4752 C 0.68776 0.91119 0.71003 0.0
C4753 C 0.69332 0.90283 0.70372 0.0
C4754 C 0.69378 0.92067 0.71418 0.0
C4755 C 0.70547 0.9221 0.71203 0.0
C4756 C 0.71104 0.91381 0.7057 0.0
C4757 C 0.70503 0.9043 0.70156 0.0
C4758 C 0.71195 0.93203 0.71675 0.0
C4759 C 0.72158 0.92999 0.72358 0.0
C4760 C 0.70837 0.94336 0.71509 0.0
C4761 C 0.69867 0.94617 0.70747 0.0
C4762 C 0.69846 0.94247 0.69613 0.0
C4763 C 0.68925 0.94506 0.68901 0.0
C4764 C 0.68025 0.95142 0.69313 0.0
C4765 C 0.68044 0.95522 0.70436 0.0
C4766 C 0.68962 0.95264 0.71151 0.0
C4767 C 0.74797 0.96951 0.73763 0.0
C4768 C 0.74253 0.97594 0.74596 0.0
C4769 C 0.7418 0.96163 0.7311 0.0
C4770 C 0.73007 0.95995 0.73282 0.0
C4771 C 0.72445 0.96696 0.74052 0.0
C4772 C 0.73063 0.97488 0.74705 0.0
C4773 C 0.72391 0.95022 0.7274 0.0
C4774 C 0.71433 0.95229 0.72053 0.0
C4775 C 0.72752 0.9389 0.729 0.0
C4776 C 0.7372 0.9361 0.73665 0.0
C4777 C 0.73719 0.93943 0.74812 0.0
C4778 C 0.74649 0.93707 0.75518 0.0
C4779 C 0.7558 0.93125 0.75093 0.0
C4780 C 0.7558 0.92775 0.7396 0.0
C4781 C 0.74654 0.93013 0.73248 0.0
H4782 H 0.76299 0.92944 0.75642 0.0
H4783 H 0.67313 0.95342 0.68761 0.0
H4784 H 0.62253 0.79888 0.32402 0.0
H4785 H 0.60657 0.79104 0.31304 0.0
H4786 H 0.58867 0.82251 0.31636 0.0
H4787 H 0.60462 0.83039 0.32762 0.0
H4788 H 0.57458 0.80382 0.32007 0.0
H4789 H 0.60035 0.81657 0.29153 0.0
H4790 H 0.61884 0.81892 0.28192 0.0
H4791 H 0.6205 0.78286 0.27731 0.0
H4792 H 0.6021 0.78028 0.28704 0.0
H4793 H 0.5341 0.78129 0.27806 0.0
H4794 H 0.5474 0.79387 0.28858 0.0
H4795 H 0.57211 0.76718 0.28967 0.0
H4796 H 0.55899 0.75471 0.27937 0.0
H4797 H 0.58152 0.78692 0.28228 0.0
H4798 H 0.55687 0.77425 0.31296 0.0
H4799 H 0.53842 0.77195 0.32267 0.0
H4800 H 0.53456 0.80813 0.32296 0.0
H4801 H 0.55294 0.81064 0.31312 0.0
C4802 C 0.61518 0.80413 0.3225 0.0
C4803 C 0.61485 0.81526 0.32672 0.0
C4804 C 0.60609 0.79967 0.31613 0.0
C4805 C 0.59646 0.80622 0.31378 0.0
C4806 C 0.59603 0.81731 0.31804 0.0
C4807 C 0.60518 0.82183 0.32439 0.0
C4808 C 0.58692 0.80135 0.30688 0.0
C4809 C 0.57603 0.80032 0.3117 0.0
C4810 C 0.5888 0.79672 0.29599 0.0
C4811 C 0.59987 0.79823 0.29009 0.0
C4812 C 0.6047 0.80914 0.28854 0.0
C4813 C 0.61516 0.81051 0.28306 0.0
C4814 C 0.62085 0.80104 0.27902 0.0
C4815 C 0.61608 0.79019 0.28044 0.0
C4816 C 0.60563 0.78876 0.28593 0.0
C4817 C 0.54233 0.77811 0.28067 0.0
C4818 C 0.54558 0.76708 0.27771 0.0
C4819 C 0.54992 0.78529 0.28665 0.0
C4820 C 0.5608 0.78149 0.28982 0.0
C4821 C 0.56384 0.77037 0.28718 0.0
C4822 C 0.55633 0.76325 0.28125 0.0
C4823 C 0.5693 0.78901 0.29564 0.0
C4824 C 0.58001 0.79057 0.29057 0.0
C4825 C 0.56722 0.79413 0.30626 0.0
C4826 C 0.5562 0.79262 0.31218 0.0
C4827 C 0.55204 0.78171 0.315 0.0
C4828 C 0.54161 0.78037 0.32055 0.0
C4829 C 0.5353 0.78989 0.32339 0.0
C4830 C 0.53944 0.80077 0.32073 0.0
C4831 C 0.54986 0.80215 0.31517 0.0
H4832 H 0.52723 0.78884 0.32769 0.0
H4833 H 0.62895 0.80213 0.27478 0.0
H4834 H 0.70552 0.12228 0.31043 0.0
H4835 H 0.7136 0.10597 0.3008 0.0
H4836 H 0.70419 0.08437 0.32905 0.0
H4837 H 0.69605 0.10062 0.33871 0.0
H4838 H 0.72549 0.08066 0.32323 0.0
H4839 H 0.68992 0.08288 0.30329 0.0
H4840 H 0.6747 0.09219 0.29228 0.0
H4841 H 0.69827 0.09976 0.26543 0.0
H4842 H 0.71367 0.09063 0.27635 0.0
H4843 H 0.73336 0.03293 0.27813 0.0
H4844 H 0.7211 0.04588 0.28879 0.0
H4845 H 0.74959 0.06903 0.29328 0.0
H4846 H 0.7617 0.05631 0.28256 0.0
H4847 H 0.71651 0.06959 0.28349 0.0
H4848 H 0.74769 0.07902 0.32076 0.0
H4849 H 0.76244 0.06918 0.33195 0.0
H4850 H 0.74627 0.03705 0.32468 0.0
H4851 H 0.73134 0.0467 0.3136 0.0
C4852 C 0.70498 0.11402 0.31452 0.0
C4853 C 0.70014 0.1128 0.32538 0.0
C4854 C 0.70963 0.10469 0.309 0.0
C4855 C 0.70946 0.09389 0.31415 0.0
C4856 C 0.70447 0.09261 0.3249 0.0
C4857 C 0.69984 0.10193 0.33044 0.0
C4858 C 0.71494 0.08405 0.30857 0.0
C4859 C 0.72346 0.07823 0.31457 0.0
C4860 C 0.71222 0.08071 0.2973 0.0
C4861 C 0.70296 0.08614 0.29068 0.0
C4862 C 0.69187 0.0866 0.29507 0.0
C4863 C 0.68321 0.09183 0.28884 0.0
C4864 C 0.68552 0.09658 0.27817 0.0
C4865 C 0.69649 0.09608 0.2737 0.0
C4866 C 0.70519 0.09087 0.2799 0.0
C4867 C 0.73697 0.04075 0.2815 0.0
C4868 C 0.74845 0.04365 0.27953 0.0
C4869 C 0.72997 0.04815 0.2875 0.0
C4870 C 0.73445 0.05841 0.29184 0.0
C4871 C 0.74597 0.06116 0.29007 0.0
C4872 C 0.75287 0.05389 0.28394 0.0
C4873 C 0.72717 0.06645 0.29809 0.0
C4874 C 0.7184 0.07197 0.29221 0.0
C4875 C 0.72958 0.06947 0.30949 0.0
C4876 C 0.73845 0.06359 0.31626 0.0
C4877 C 0.74726 0.06986 0.32159 0.0
C4878 C 0.75565 0.06432 0.32791 0.0
C4879 C 0.75531 0.0525 0.32899 0.0
C4880 C 0.74655 0.0462 0.32379 0.0
C4881 C 0.73813 0.05171 0.31748 0.0
H4882 H 0.76183 0.04822 0.33388 0.0
H4883 H 0.6788 0.10063 0.27336 0.0
H4884 H 0.39334 0.20207 0.30333 0.0
H4885 H 0.41054 0.21156 0.29625 0.0
H4886 H 0.42942 0.19945 0.32537 0.0
H4887 H 0.41218 0.18994 0.33254 0.0
H4888 H 0.43495 0.22092 0.32118 0.0
H4889 H 0.43241 0.18719 0.29906 0.0
H4890 H 0.42313 0.1729 0.2867 0.0
H4891 H 0.41803 0.19823 0.26084 0.0
H4892 H 0.42714 0.21272 0.2731 0.0
H4893 H 0.48348 0.23234 0.27602 0.0
H4894 H 0.47051 0.21924 0.2863 0.0
H4895 H 0.44929 0.24739 0.295 0.0
H4896 H 0.4621 0.26035 0.28479 0.0
H4897 H 0.44775 0.21503 0.28158 0.0
H4898 H 0.43772 0.24282 0.32089 0.0
H4899 H 0.44774 0.25631 0.33359 0.0
H4900 H 0.47969 0.24104 0.32582 0.0
H4901 H 0.46985 0.22735 0.31321 0.0
C4902 C 0.40116 0.20135 0.3082 0.0
C4903 C 0.40137 0.19517 0.31848 0.0
C4904 C 0.41101 0.20678 0.30413 0.0
C4905 C 0.42136 0.20607 0.31016 0.0
C4906 C 0.42156 0.2001 0.32054 0.0
C4907 C 0.41168 0.1947 0.32465 0.0
C4908 C 0.43188 0.2117 0.30567 0.0
C4909 C 0.43777 0.21958 0.31254 0.0
C4910 C 0.43579 0.20977 0.29449 0.0
C4911 C 0.4304 0.20106 0.28703 0.0
C4912 C 0.42925 0.18973 0.29076 0.0
C4913 C 0.42403 0.18159 0.28377 0.0
C4914 C 0.41998 0.18466 0.273 0.0
C4915 C 0.42117 0.19587 0.26919 0.0
C4916 C 0.42637 0.20404 0.27615 0.0
C4917 C 0.47613 0.23569 0.2803 0.0
C4918 C 0.47375 0.24732 0.27961 0.0
C4919 C 0.46871 0.22823 0.2861 0.0
C4920 C 0.45895 0.23234 0.29147 0.0
C4921 C 0.45681 0.24402 0.29105 0.0
C4922 C 0.46411 0.25141 0.28518 0.0
C4923 C 0.45054 0.22451 0.29696 0.0
C4924 C 0.44502 0.21625 0.29027 0.0
C4925 C 0.44707 0.22597 0.30835 0.0
C4926 C 0.45304 0.2341 0.31604 0.0
C4927 C 0.44688 0.2423 0.32194 0.0
C4928 C 0.45253 0.24999 0.32911 0.0
C4929 C 0.46434 0.24955 0.33049 0.0
C4930 C 0.47054 0.2414 0.32472 0.0
C4931 C 0.46493 0.23368 0.31754 0.0
H4932 H 0.4687 0.25552 0.33604 0.0
H4933 H 0.41593 0.17834 0.2676 0.0
H4934 H 0.33911 0.91287 0.31337 0.0
H4935 H 0.32872 0.92927 0.30625 0.0
H4936 H 0.29687 0.9115 0.31211 0.0
H4937 H 0.30723 0.89489 0.31888 0.0
H4938 H 0.29641 0.92128 0.29198 0.0
H4939 H 0.30607 0.93337 0.32946 0.0
H4940 H 0.31862 0.93726 0.34593 0.0
H4941 H 0.33777 0.96157 0.32617 0.0
H4942 H 0.32543 0.9577 0.30952 0.0
H4943 H 0.26817 0.97923 0.2929 0.0
H4944 H 0.28027 0.9657 0.30311 0.0
H4945 H 0.2961 0.95669 0.27155 0.0
H4946 H 0.28403 0.97013 0.26134 0.0
H4947 H 0.3033 0.96048 0.30599 0.0
H4948 H 0.29578 0.9279 0.27 0.0
H4949 H 0.28188 0.92432 0.25453 0.0
H4950 H 0.25591 0.94074 0.27363 0.0
H4951 H 0.26958 0.94421 0.2893 0.0
C4952 C 0.32989 0.91241 0.31311 0.0
C4953 C 0.32403 0.90251 0.31668 0.0
C4954 C 0.32395 0.92186 0.30914 0.0
C4955 C 0.31199 0.9217 0.30872 0.0
C4956 C 0.30609 0.91186 0.31236 0.0
C4957 C 0.31204 0.90239 0.31633 0.0
C4958 C 0.30566 0.93161 0.30409 0.0
C4959 C 0.29793 0.92983 0.29507 0.0
C4960 C 0.30745 0.9428 0.30822 0.0
C4961 C 0.31488 0.94517 0.31821 0.0
C4962 C 0.31301 0.93948 0.3286 0.0
C4963 C 0.32008 0.94169 0.33797 0.0
C4964 C 0.329 0.94964 0.33709 0.0
C4965 C 0.33086 0.95541 0.32683 0.0
C4966 C 0.32382 0.95322 0.31743 0.0
C4967 C 0.27453 0.97467 0.28822 0.0
C4968 C 0.2751 0.97566 0.27631 0.0
C4969 C 0.2814 0.9669 0.29405 0.0
C4970 C 0.28892 0.96001 0.28806 0.0
C4971 C 0.29023 0.96178 0.27632 0.0
C4972 C 0.28336 0.96949 0.2705 0.0
C4973 C 0.29436 0.95013 0.29372 0.0
C4974 C 0.30184 0.95192 0.30292 0.0
C4975 C 0.29217 0.9389 0.28995 0.0
C4976 C 0.28375 0.93641 0.28077 0.0
C4977 C 0.28708 0.93067 0.27094 0.0
C4978 C 0.27924 0.92867 0.26213 0.0
C4979 C 0.26803 0.93234 0.26308 0.0
C4980 C 0.26461 0.93793 0.27289 0.0
C4981 C 0.2724 0.93991 0.28173 0.0
H4982 H 0.26199 0.93083 0.25624 0.0
H4983 H 0.33446 0.95134 0.34435 0.0
H4984 H 0.69464 0.10782 0.6895 0.0
H4985 H 0.70478 0.09126 0.69679 0.0
H4986 H 0.70373 0.10496 0.73068 0.0
H4987 H 0.69394 0.12166 0.72342 0.0
H4988 H 0.724 0.09668 0.72694 0.0
H4989 H 0.68549 0.08346 0.7222 0.0
H4990 H 0.66746 0.0798 0.71186 0.0
H4991 H 0.68481 0.05842 0.68843 0.0
H4992 H 0.70299 0.06208 0.69855 0.0
H4993 H 0.72483 0.03745 0.75342 0.0
H4994 H 0.71396 0.05129 0.7423 0.0
H4995 H 0.74459 0.06157 0.72473 0.0
H4996 H 0.75548 0.04788 0.73594 0.0
H4997 H 0.70924 0.05753 0.72027 0.0
H4998 H 0.74613 0.09034 0.72455 0.0
H4999 H 0.76307 0.09368 0.73671 0.0
H5000 H 0.74676 0.07597 0.7643 0.0
H5001 H 0.72965 0.07271 0.75239 0.0
C5002 C 0.69667 0.10737 0.69849 0.0
C5003 C 0.6934 0.11607 0.70587 0.0
C5004 C 0.70238 0.09783 0.70267 0.0
C5005 C 0.70492 0.09677 0.71432 0.0
C5006 C 0.70185 0.10554 0.72166 0.0
C5007 C 0.69615 0.11505 0.7175 0.0
C5008 C 0.71078 0.08656 0.71893 0.0
C5009 C 0.72078 0.08813 0.72541 0.0
C5010 C 0.70652 0.07537 0.71715 0.0
C5011 C 0.69562 0.07315 0.71106 0.0
C5012 C 0.68548 0.07806 0.71479 0.0
C5013 C 0.67523 0.07597 0.70898 0.0
C5014 C 0.675 0.06891 0.69947 0.0
C5015 C 0.68501 0.0639 0.69578 0.0
C5016 C 0.69528 0.06597 0.70155 0.0
C5017 C 0.72915 0.04238 0.74689 0.0
C5018 C 0.74101 0.04165 0.74559 0.0
C5019 C 0.72294 0.05032 0.74057 0.0
C5020 C 0.7285 0.05765 0.73285 0.0
C5021 C 0.74015 0.05615 0.73078 0.0
C5022 C 0.74636 0.04829 0.73714 0.0
C5023 C 0.72252 0.06768 0.72808 0.0
C5024 C 0.7125 0.06608 0.72165 0.0
C5025 C 0.72659 0.07888 0.73013 0.0
C5026 C 0.73666 0.08119 0.73752 0.0
C5027 C 0.74613 0.08723 0.73323 0.0
C5028 C 0.75576 0.0891 0.74008 0.0
C5029 C 0.756 0.085 0.75126 0.0
C5030 C 0.74658 0.07911 0.75564 0.0
C5031 C 0.73691 0.07725 0.74884 0.0
H5032 H 0.76348 0.08642 0.75653 0.0
H5033 H 0.66706 0.0673 0.69499 0.0
H5034 H 0.70298 0.90624 0.33145 0.0
H5035 H 0.71274 0.92274 0.32306 0.0
H5036 H 0.69583 0.91629 0.29102 0.0
H5037 H 0.68586 0.89995 0.29937 0.0
H5038 H 0.7186 0.92036 0.28838 0.0
H5039 H 0.68746 0.93777 0.30767 0.0
H5040 H 0.67536 0.94187 0.32413 0.0
H5041 H 0.70428 0.95594 0.342 0.0
H5042 H 0.7166 0.95178 0.32569 0.0
H5043 H 0.73516 0.97011 0.2597 0.0
H5044 H 0.72261 0.95611 0.26894 0.0
H5045 H 0.73826 0.96381 0.30135 0.0
H5046 H 0.75069 0.97796 0.29215 0.0
H5047 H 0.71598 0.95926 0.30398 0.0
H5048 H 0.74723 0.94165 0.28547 0.0
H5049 H 0.75984 0.93753 0.2694 0.0
H5050 H 0.73147 0.92345 0.25068 0.0
H5051 H 0.71864 0.92768 0.26657 0.0
C5052 C 0.70121 0.9084 0.32266 0.0
C5053 C 0.69362 0.90171 0.31611 0.0
C5054 C 0.70683 0.91783 0.31786 0.0
C5055 C 0.70497 0.92081 0.30642 0.0
C5056 C 0.69744 0.91414 0.29985 0.0
C5057 C 0.69178 0.90475 0.30464 0.0
C5058 C 0.71103 0.93072 0.3012 0.0
C5059 C 0.71788 0.92889 0.29169 0.0
C5060 C 0.71037 0.9418 0.30572 0.0
C5061 C 0.70297 0.94436 0.3155 0.0
C5062 C 0.69126 0.94166 0.31514 0.0
C5063 C 0.68435 0.94401 0.32444 0.0
C5064 C 0.68905 0.94913 0.33411 0.0
C5065 C 0.70065 0.95195 0.3345 0.0
C5066 C 0.7076 0.94961 0.32523 0.0
C5067 C 0.73575 0.96897 0.26883 0.0
C5068 C 0.74396 0.97508 0.27519 0.0
C5069 C 0.72862 0.96094 0.2741 0.0
C5070 C 0.72968 0.9587 0.2858 0.0
C5071 C 0.73732 0.96534 0.2923 0.0
C5072 C 0.74439 0.97346 0.28704 0.0
C5073 C 0.72346 0.94891 0.29108 0.0
C5074 C 0.71664 0.95074 0.30063 0.0
C5075 C 0.72423 0.93778 0.28668 0.0
C5076 C 0.73195 0.93508 0.27717 0.0
C5077 C 0.74366 0.93774 0.27789 0.0
C5078 C 0.75085 0.93539 0.26882 0.0
C5079 C 0.74645 0.93026 0.25901 0.0
C5080 C 0.73486 0.92744 0.25827 0.0
C5081 C 0.72763 0.92982 0.26731 0.0
H5082 H 0.75203 0.92844 0.252 0.0
H5083 H 0.68369 0.95094 0.3413 0.0
H5084 H 0.62491 0.2094 0.31279 0.0
H5085 H 0.60847 0.21969 0.3055 0.0
H5086 H 0.58616 0.19231 0.31633 0.0
H5087 H 0.60264 0.18183 0.32343 0.0
H5088 H 0.58076 0.19958 0.29495 0.0
H5089 H 0.5872 0.21676 0.33112 0.0
H5090 H 0.59842 0.22601 0.34637 0.0
H5091 H 0.6064 0.25396 0.32406 0.0
H5092 H 0.59536 0.2448 0.30862 0.0
H5093 H 0.53214 0.23368 0.28086 0.0
H5094 H 0.54547 0.22181 0.29174 0.0
H5095 H 0.57254 0.24615 0.28526 0.0
H5096 H 0.55933 0.25808 0.2748 0.0
H5097 H 0.57365 0.23924 0.30653 0.0
H5098 H 0.56928 0.22114 0.26988 0.0
H5099 H 0.55848 0.21191 0.25432 0.0
H5100 H 0.54689 0.1858 0.27732 0.0
H5101 H 0.55751 0.19497 0.29305 0.0
C5102 C 0.61652 0.20553 0.31359 0.0
C5103 C 0.61512 0.19478 0.31872 0.0
C5104 C 0.6071 0.21147 0.3095 0.0
C5105 C 0.59604 0.20684 0.31047 0.0
C5106 C 0.5946 0.19609 0.31552 0.0
C5107 C 0.60403 0.19015 0.31967 0.0
C5108 C 0.58605 0.2132 0.30602 0.0
C5109 C 0.57907 0.20818 0.29763 0.0
C5110 C 0.58391 0.22448 0.3094 0.0
C5111 C 0.59052 0.23005 0.31868 0.0
C5112 C 0.59141 0.22484 0.32944 0.0
C5113 C 0.59773 0.23007 0.33812 0.0
C5114 C 0.60314 0.24055 0.33618 0.0
C5115 C 0.60222 0.24583 0.32555 0.0
C5116 C 0.59592 0.24063 0.31683 0.0
C5117 C 0.54092 0.23651 0.28185 0.0
C5118 C 0.54471 0.24673 0.27679 0.0
C5119 C 0.54855 0.22969 0.288 0.0
C5120 C 0.56008 0.233 0.28921 0.0
C5121 C 0.56373 0.24336 0.28444 0.0
C5122 C 0.55617 0.25013 0.27834 0.0
C5123 C 0.56853 0.22573 0.29523 0.0
C5124 C 0.57523 0.23058 0.30394 0.0
C5125 C 0.57044 0.21433 0.29211 0.0
C5126 C 0.56406 0.20881 0.28267 0.0
C5127 C 0.56435 0.21348 0.27164 0.0
C5128 C 0.55827 0.20825 0.26278 0.0
C5129 C 0.55197 0.19829 0.26484 0.0
C5130 C 0.55175 0.19353 0.27574 0.0
C5131 C 0.5578 0.19873 0.28463 0.0
H5132 H 0.54728 0.19426 0.25797 0.0
H5133 H 0.60803 0.24459 0.34291 0.0
H5134 H 0.30221 0.10982 0.33854 0.0
H5135 H 0.29486 0.0933 0.32825 0.0
H5136 H 0.31762 0.10092 0.30054 0.0
H5137 H 0.32524 0.11735 0.3109 0.0
H5138 H 0.29575 0.09621 0.2932 0.0
H5139 H 0.3232 0.07919 0.31825 0.0
H5140 H 0.33227 0.07514 0.33678 0.0
H5141 H 0.30099 0.06022 0.3489 0.0
H5142 H 0.29168 0.06432 0.33049 0.0
H5143 H 0.28303 0.04666 0.26262 0.0
H5144 H 0.2943 0.06058 0.27346 0.0
H5145 H 0.27478 0.05247 0.30345 0.0
H5146 H 0.26376 0.03827 0.29269 0.0
H5147 H 0.296 0.05722 0.30943 0.0
H5148 H 0.26808 0.07502 0.28558 0.0
H5149 H 0.25823 0.07918 0.26747 0.0
H5150 H 0.28927 0.09308 0.25372 0.0
H5151 H 0.29936 0.08882 0.27169 0.0
C5152 C 0.30581 0.10792 0.33034 0.0
C5153 C 0.31439 0.11494 0.32561 0.0
C5154 C 0.30155 0.09846 0.32444 0.0
C5155 C 0.30576 0.09579 0.31366 0.0
C5156 C 0.31424 0.10281 0.30885 0.0
C5157 C 0.31855 0.11225 0.31477 0.0
C5158 C 0.3011 0.08582 0.30732 0.0
C5159 C 0.29598 0.08765 0.29666 0.0
C5160 C 0.30111 0.0747 0.31197 0.0
C5161 C 0.30671 0.07215 0.32302 0.0
C5162 C 0.31823 0.07512 0.32489 0.0
C5163 C 0.32342 0.0728 0.33537 0.0
C5164 C 0.31721 0.06745 0.34402 0.0
C5165 C 0.30579 0.06437 0.34219 0.0
C5166 C 0.30056 0.06668 0.33174 0.0
C5167 C 0.28135 0.04767 0.27159 0.0
C5168 C 0.27251 0.04141 0.27681 0.0
C5169 C 0.28772 0.05569 0.27776 0.0
C5170 C 0.2852 0.05781 0.28921 0.0
C5171 C 0.27687 0.05104 0.29462 0.0
C5172 C 0.2706 0.04289 0.28848 0.0
C5173 C 0.29064 0.0676 0.29529 0.0
C5174 C 0.29585 0.06575 0.30592 0.0
C5175 C 0.2906 0.07875 0.29068 0.0
C5176 C 0.28451 0.0815 0.27993 0.0
C5177 C 0.27282 0.0789 0.27867 0.0
C5178 C 0.2672 0.08128 0.26843 0.0
C5179 C 0.27313 0.08637 0.25944 0.0
C5180 C 0.28469 0.08912 0.26068 0.0
C5181 C 0.29037 0.08673 0.27089 0.0
H5182 H 0.26876 0.0882 0.25152 0.0
H5183 H 0.32124 0.06566 0.35212 0.0
H5184 H 0.40727 0.80238 0.33544 0.0
H5185 H 0.42369 0.79477 0.32563 0.0
H5186 H 0.41838 0.81821 0.29788 0.0
H5187 H 0.40203 0.82606 0.30774 0.0
H5188 H 0.42221 0.79681 0.29031 0.0
H5189 H 0.44004 0.82259 0.31662 0.0
H5190 H 0.44398 0.83095 0.33544 0.0
H5191 H 0.45627 0.79894 0.34763 0.0
H5192 H 0.45225 0.79034 0.32892 0.0
H5193 H 0.4726 0.78349 0.26183 0.0
H5194 H 0.45881 0.79474 0.27223 0.0
H5195 H 0.46403 0.77382 0.302 0.0
H5196 H 0.47808 0.76279 0.2917 0.0
H5197 H 0.46052 0.79494 0.3083 0.0
H5198 H 0.44191 0.76884 0.28265 0.0
H5199 H 0.43795 0.76011 0.26401 0.0
H5200 H 0.42675 0.79215 0.25086 0.0
H5201 H 0.43085 0.80113 0.26937 0.0
C5202 C 0.40967 0.80607 0.32733 0.0
C5203 C 0.40331 0.81492 0.32244 0.0
C5204 C 0.41906 0.80166 0.3217 0.0
C5205 C 0.42237 0.80599 0.31106 0.0
C5206 C 0.416 0.81473 0.30608 0.0
C5207 C 0.40661 0.81918 0.31173 0.0
C5208 C 0.43232 0.80121 0.30503 0.0
C5209 C 0.43063 0.79658 0.29417 0.0
C5210 C 0.44326 0.80063 0.31016 0.0
C5211 C 0.44575 0.80579 0.3214 0.0
C5212 C 0.4435 0.81731 0.32334 0.0
C5213 C 0.44576 0.8221 0.33398 0.0
C5214 C 0.45034 0.81548 0.34273 0.0
C5215 C 0.45271 0.80406 0.34085 0.0
C5216 C 0.45045 0.79922 0.33022 0.0
C5217 C 0.47099 0.78147 0.27067 0.0
C5218 C 0.47639 0.77225 0.27594 0.0
C5219 C 0.46304 0.78784 0.27659 0.0
C5220 C 0.46013 0.78495 0.28783 0.0
C5221 C 0.46606 0.7762 0.29333 0.0
C5222 C 0.47414 0.76992 0.28745 0.0
C5223 C 0.45041 0.79052 0.29358 0.0
C5224 C 0.45213 0.79525 0.3044 0.0
C5225 C 0.43945 0.79112 0.28845 0.0
C5226 C 0.4368 0.78568 0.27737 0.0
C5227 C 0.43867 0.77404 0.27577 0.0
C5228 C 0.4364 0.76905 0.26523 0.0
C5229 C 0.43212 0.77557 0.25625 0.0
C5230 C 0.43008 0.78711 0.25782 0.0
C5231 C 0.43238 0.79216 0.26833 0.0
H5232 H 0.43037 0.77169 0.2481 0.0
H5233 H 0.45209 0.8192 0.35096 0.0
H5234 H 0.33921 0.91323 0.70915 0.0
H5235 H 0.32922 0.9295 0.71675 0.0
H5236 H 0.29712 0.91484 0.70578 0.0
H5237 H 0.30705 0.89842 0.69823 0.0
H5238 H 0.2981 0.9378 0.70173 0.0
H5239 H 0.30535 0.91262 0.73317 0.0
H5240 H 0.31719 0.90083 0.74582 0.0
H5241 H 0.33721 0.93019 0.75517 0.0
H5242 H 0.32559 0.94214 0.74245 0.0
H5243 H 0.26046 0.96706 0.73818 0.0
H5244 H 0.2716 0.954 0.7269 0.0
H5245 H 0.30265 0.96858 0.74071 0.0
H5246 H 0.2915 0.98142 0.75235 0.0
H5247 H 0.30291 0.94637 0.74274 0.0
H5248 H 0.29475 0.97188 0.71215 0.0
H5249 H 0.28276 0.98359 0.69957 0.0
H5250 H 0.2643 0.95378 0.68866 0.0
H5251 H 0.27607 0.9419 0.7013 0.0
C5252 C 0.33002 0.91341 0.70838 0.0
C5253 C 0.32394 0.90441 0.70318 0.0
C5254 C 0.32432 0.92276 0.7127 0.0
C5255 C 0.31239 0.92334 0.71198 0.0
C5256 C 0.30632 0.91459 0.70644 0.0
C5257 C 0.31203 0.90521 0.7021 0.0
C5258 C 0.30626 0.93286 0.7174 0.0
C5259 C 0.29905 0.93962 0.71072 0.0
C5260 C 0.3077 0.93541 0.72907 0.0
C5261 C 0.31468 0.92825 0.73676 0.0
C5262 C 0.31234 0.91655 0.73785 0.0
C5263 C 0.319 0.90984 0.74505 0.0
C5264 C 0.32797 0.91475 0.75127 0.0
C5265 C 0.33027 0.92639 0.75033 0.0
C5266 C 0.32365 0.93314 0.74314 0.0
C5267 C 0.26967 0.96761 0.73869 0.0
C5268 C 0.27508 0.97527 0.74622 0.0
C5269 C 0.27605 0.96018 0.73216 0.0
C5270 C 0.288 0.96029 0.7329 0.0
C5271 C 0.29344 0.96831 0.73998 0.0
C5272 C 0.28706 0.97575 0.74655 0.0
C5273 C 0.29472 0.9514 0.72709 0.0
C5274 C 0.30201 0.94468 0.73372 0.0
C5275 C 0.29333 0.9489 0.71538 0.0
C5276 C 0.28624 0.95601 0.70775 0.0
C5277 C 0.28807 0.96783 0.70714 0.0
C5278 C 0.28133 0.97449 0.69998 0.0
C5279 C 0.27276 0.96943 0.69334 0.0
C5280 C 0.27093 0.95769 0.69382 0.0
C5281 C 0.27765 0.95098 0.70097 0.0
H5282 H 0.26754 0.97461 0.6878 0.0
H5283 H 0.33311 0.90954 0.75684 0.0
H5284 H 0.60316 0.81322 0.68082 0.0
H5285 H 0.58681 0.80559 0.69127 0.0
H5286 H 0.60484 0.81093 0.72292 0.0
H5287 H 0.62139 0.81823 0.71249 0.0
H5288 H 0.5951 0.79063 0.72295 0.0
H5289 H 0.58289 0.82818 0.7146 0.0
H5290 H 0.57886 0.8449 0.7026 0.0
H5291 H 0.55428 0.8254 0.68343 0.0
H5292 H 0.55828 0.80851 0.69522 0.0
H5293 H 0.5371 0.79071 0.75219 0.0
H5294 H 0.55071 0.80113 0.74013 0.0
H5295 H 0.55959 0.76987 0.72378 0.0
H5296 H 0.54608 0.75944 0.73584 0.0
H5297 H 0.55572 0.80444 0.7173 0.0
H5298 H 0.58847 0.76865 0.72313 0.0
H5299 H 0.59224 0.7529 0.7365 0.0
H5300 H 0.57607 0.77109 0.76328 0.0
H5301 H 0.57242 0.78704 0.75014 0.0
C5302 C 0.60368 0.81273 0.69 0.0
C5303 C 0.61363 0.81633 0.6958 0.0
C5304 C 0.59426 0.80847 0.69598 0.0
C5305 C 0.59452 0.80776 0.70791 0.0
C5306 C 0.60441 0.81141 0.71373 0.0
C5307 C 0.61384 0.81568 0.70775 0.0
C5308 C 0.58464 0.80286 0.71427 0.0
C5309 C 0.58651 0.79368 0.72169 0.0
C5310 C 0.57341 0.80692 0.71283 0.0
C5311 C 0.57096 0.81705 0.70573 0.0
C5312 C 0.57669 0.82743 0.70777 0.0
C5313 C 0.5744 0.83694 0.70101 0.0
C5314 C 0.56634 0.8362 0.69224 0.0
C5315 C 0.56053 0.82595 0.69022 0.0
C5316 C 0.5628 0.81641 0.69694 0.0
C5317 C 0.54167 0.78613 0.74575 0.0
C5318 C 0.54061 0.77424 0.74502 0.0
C5319 C 0.54948 0.79209 0.7389 0.0
C5320 C 0.55634 0.78624 0.73122 0.0
C5321 C 0.55453 0.77453 0.72978 0.0
C5322 C 0.54679 0.76858 0.73665 0.0
C5323 C 0.5662 0.79207 0.72568 0.0
C5324 C 0.56433 0.80141 0.71848 0.0
C5325 C 0.57748 0.78834 0.72751 0.0
C5326 C 0.58008 0.77899 0.73561 0.0
C5327 C 0.5858 0.76933 0.73189 0.0
C5328 C 0.58791 0.76036 0.73943 0.0
C5329 C 0.58436 0.76098 0.75072 0.0
C5330 C 0.57878 0.77061 0.75452 0.0
C5331 C 0.5767 0.77962 0.74704 0.0
H5332 H 0.58596 0.75401 0.75652 0.0
H5333 H 0.56458 0.84357 0.68702 0.0
H5334 H 0.39428 0.19676 0.71263 0.0
H5335 H 0.41076 0.20401 0.72329 0.0
H5336 H 0.42444 0.21889 0.69259 0.0
H5337 H 0.4082 0.21128 0.68178 0.0
H5338 H 0.4411 0.20962 0.70496 0.0
H5339 H 0.41051 0.23499 0.71206 0.0
H5340 H 0.39122 0.24045 0.71786 0.0
H5341 H 0.39731 0.227 0.75133 0.0
H5342 H 0.41658 0.22131 0.74569 0.0
H5343 H 0.47936 0.24943 0.73276 0.0
H5344 H 0.46494 0.23963 0.7209 0.0
H5345 H 0.45043 0.2242 0.75098 0.0
H5346 H 0.46468 0.23412 0.76275 0.0
H5347 H 0.43442 0.23383 0.73851 0.0
H5348 H 0.46534 0.20868 0.73127 0.0
H5349 H 0.48471 0.20368 0.72533 0.0
H5350 H 0.47817 0.21728 0.692 0.0
H5351 H 0.45881 0.2225 0.69779 0.0
C5352 C 0.40086 0.20143 0.70809 0.0
C5353 C 0.39984 0.20349 0.69633 0.0
C5354 C 0.41024 0.20567 0.71423 0.0
C5355 C 0.41877 0.21216 0.70879 0.0
C5356 C 0.41795 0.21396 0.69701 0.0
C5357 C 0.40859 0.20969 0.69085 0.0
C5358 C 0.4284 0.21729 0.71542 0.0
C5359 C 0.43964 0.21502 0.71222 0.0
C5360 C 0.42653 0.22421 0.725 0.0
C5361 C 0.41494 0.22761 0.72841 0.0
C5362 C 0.4077 0.23311 0.72063 0.0
C5363 C 0.39678 0.23626 0.72389 0.0
C5364 C 0.39303 0.23405 0.73495 0.0
C5365 C 0.40021 0.2287 0.74277 0.0
C5366 C 0.41114 0.22551 0.73954 0.0
C5367 C 0.47323 0.24372 0.73674 0.0
C5368 C 0.47314 0.24238 0.7486 0.0
C5369 C 0.465 0.23814 0.73 0.0
C5370 C 0.45661 0.23112 0.73504 0.0
C5371 C 0.45679 0.22955 0.74689 0.0
C5372 C 0.46496 0.23514 0.75359 0.0
C5373 C 0.44714 0.22603 0.72817 0.0
C5374 C 0.4359 0.22839 0.73128 0.0
C5375 C 0.44903 0.21924 0.7185 0.0
C5376 C 0.46066 0.21608 0.715 0.0
C5377 C 0.46806 0.21069 0.7227 0.0
C5378 C 0.47904 0.2078 0.71936 0.0
C5379 C 0.48268 0.21019 0.70831 0.0
C5380 C 0.47535 0.21544 0.70057 0.0
C5381 C 0.46437 0.21836 0.70387 0.0
H5382 H 0.49118 0.20794 0.70573 0.0
H5383 H 0.38457 0.2365 0.73746 0.0
H5384 H 0.68879 0.70605 0.11663 0.0
H5385 H 0.69602 0.71564 0.09957 0.0
H5386 H 0.7195 0.68844 0.09438 0.0
H5387 H 0.71225 0.67873 0.1113 0.0
H5388 H 0.73005 0.70874 0.09226 0.0
H5389 H 0.69576 0.69123 0.07763 0.0
H5390 H 0.67517 0.68677 0.07709 0.0
H5391 H 0.66789 0.72215 0.07289 0.0
H5392 H 0.68844 0.72685 0.07356 0.0
H5393 H 0.75088 0.72803 0.04007 0.0
H5394 H 0.74057 0.7153 0.05315 0.0
H5395 H 0.71552 0.74114 0.05833 0.0
H5396 H 0.72557 0.7536 0.04484 0.0
H5397 H 0.70555 0.72085 0.05998 0.0
H5398 H 0.73949 0.73856 0.07562 0.0
H5399 H 0.76004 0.74327 0.07543 0.0
H5400 H 0.76787 0.70787 0.07804 0.0
H5401 H 0.74736 0.70293 0.07801 0.0
C5402 C 0.69539 0.70202 0.11178 0.0
C5403 C 0.69995 0.69161 0.11541 0.0
C5404 C 0.69953 0.70753 0.10202 0.0
C5405 C 0.70827 0.70274 0.09562 0.0
C5406 C 0.71279 0.69234 0.09918 0.0
C5407 C 0.70866 0.68682 0.10891 0.0
C5408 C 0.71298 0.7087 0.08542 0.0
C5409 C 0.7247 0.71123 0.08514 0.0
C5410 C 0.706 0.71221 0.07621 0.0
C5411 C 0.69364 0.7094 0.07575 0.0
C5412 C 0.68976 0.69807 0.07668 0.0
C5413 C 0.6781 0.6955 0.07633 0.0
C5414 C 0.67022 0.70418 0.07498 0.0
C5415 C 0.674 0.71544 0.07394 0.0
C5416 C 0.68566 0.71807 0.07429 0.0
C5417 C 0.74293 0.73077 0.04367 0.0
C5418 C 0.73892 0.7417 0.0414 0.0
C5419 C 0.73711 0.72357 0.05125 0.0
C5420 C 0.72741 0.72736 0.05699 0.0
C5421 C 0.72298 0.73801 0.05407 0.0
C5422 C 0.72869 0.74512 0.04633 0.0
C5423 C 0.72262 0.72084 0.06682 0.0
C5424 C 0.7109 0.71828 0.06708 0.0
C5425 C 0.72958 0.71737 0.07608 0.0
C5426 C 0.7419 0.72037 0.0767 0.0
C5427 C 0.7456 0.73178 0.07614 0.0
C5428 C 0.75724 0.73449 0.07605 0.0
C5429 C 0.76525 0.72587 0.07668 0.0
C5430 C 0.76165 0.71453 0.07752 0.0
C5431 C 0.75002 0.71177 0.07756 0.0
H5432 H 0.77426 0.72795 0.07652 0.0
H5433 H 0.66119 0.70217 0.07472 0.0
H5434 H 0.32729 0.69454 0.10861 0.0
H5435 H 0.31924 0.70427 0.09199 0.0
H5436 H 0.28696 0.70646 0.10904 0.0
H5437 H 0.29492 0.69678 0.12561 0.0
H5438 H 0.28383 0.69927 0.08795 0.0
H5439 H 0.30522 0.72962 0.10591 0.0
H5440 H 0.32242 0.73902 0.11385 0.0
H5441 H 0.33893 0.73674 0.08152 0.0
H5442 H 0.32187 0.72719 0.07343 0.0
H5443 H 0.25419 0.74254 0.06027 0.0
H5444 H 0.26541 0.73132 0.07359 0.0
H5445 H 0.29226 0.72911 0.04893 0.0
H5446 H 0.28096 0.74051 0.03543 0.0
H5447 H 0.29989 0.73491 0.0715 0.0
H5448 H 0.27717 0.70639 0.05317 0.0
H5449 H 0.25948 0.69768 0.04555 0.0
H5450 H 0.2451 0.697 0.079 0.0
H5451 H 0.26264 0.70586 0.08681 0.0
C5452 C 0.31851 0.69721 0.10886 0.0
C5453 C 0.31174 0.69482 0.11844 0.0
C5454 C 0.31392 0.70276 0.09934 0.0
C5455 C 0.30248 0.70613 0.09925 0.0
C5456 C 0.29577 0.70387 0.10886 0.0
C5457 C 0.30033 0.69831 0.11833 0.0
C5458 C 0.29735 0.71182 0.08914 0.0
C5459 C 0.28733 0.7071 0.08442 0.0
C5460 C 0.30207 0.72185 0.08425 0.0
C5461 C 0.31233 0.72757 0.08911 0.0
C5462 C 0.31256 0.73103 0.10053 0.0
C5463 C 0.32227 0.7364 0.10505 0.0
C5464 C 0.33178 0.73844 0.09821 0.0
C5465 C 0.33157 0.73513 0.08682 0.0
C5466 C 0.32188 0.72975 0.08226 0.0
C5467 C 0.2625 0.73971 0.05767 0.0
C5468 C 0.26674 0.74247 0.04683 0.0
C5469 C 0.26887 0.73323 0.06527 0.0
C5470 C 0.27964 0.72933 0.06225 0.0
C5471 C 0.28395 0.73204 0.05143 0.0
C5472 C 0.27749 0.73848 0.04371 0.0
C5473 C 0.28627 0.72249 0.07056 0.0
C5474 C 0.29654 0.72698 0.07494 0.0
C5475 C 0.28175 0.71228 0.0752 0.0
C5476 C 0.2712 0.70686 0.07056 0.0
C5477 C 0.2702 0.70446 0.05889 0.0
C5478 C 0.26021 0.69948 0.05454 0.0
C5479 C 0.25116 0.69681 0.06179 0.0
C5480 C 0.25211 0.69908 0.0734 0.0
C5481 C 0.26208 0.70407 0.0778 0.0
H5482 H 0.24343 0.69295 0.0584 0.0
H5483 H 0.33929 0.7426 0.10172 0.0
H5484 H 0.30015 0.31867 0.12661 0.0
H5485 H 0.29243 0.30799 0.11051 0.0
H5486 H 0.3229 0.31542 0.09143 0.0
H5487 H 0.33061 0.32641 0.1075 0.0
H5488 H 0.30363 0.31812 0.07836 0.0
H5489 H 0.31888 0.28934 0.10242 0.0
H5490 H 0.32218 0.27893 0.12036 0.0
H5491 H 0.28642 0.27107 0.12267 0.0
H5492 H 0.28288 0.28158 0.10483 0.0
H5493 H 0.28389 0.27713 0.03617 0.0
H5494 H 0.29565 0.288 0.04986 0.0
H5495 H 0.26947 0.28362 0.07512 0.0
H5496 H 0.25784 0.27287 0.06164 0.0
H5497 H 0.28964 0.27853 0.08391 0.0
H5498 H 0.27424 0.30905 0.06099 0.0
H5499 H 0.27086 0.31959 0.04313 0.0
H5500 H 0.30693 0.32404 0.03863 0.0
H5501 H 0.31052 0.31339 0.0564 0.0
C5502 C 0.3052 0.31811 0.11897 0.0
C5503 C 0.31601 0.32342 0.11836 0.0
C5504 C 0.30081 0.31191 0.10979 0.0
C5505 C 0.30712 0.31079 0.09978 0.0
C5506 C 0.31789 0.31613 0.09908 0.0
C5507 C 0.32232 0.32233 0.1083 0.0
C5508 C 0.30236 0.30406 0.09011 0.0
C5509 C 0.30076 0.30939 0.0795 0.0
C5510 C 0.29851 0.2927 0.09159 0.0
C5511 C 0.30061 0.28633 0.10232 0.0
C5512 C 0.31171 0.28547 0.1068 0.0
C5513 C 0.31362 0.27954 0.11694 0.0
C5514 C 0.30451 0.27436 0.12267 0.0
C5515 C 0.29347 0.27509 0.11824 0.0
C5516 C 0.2915 0.28102 0.1081 0.0
C5517 C 0.28065 0.27859 0.04462 0.0
C5518 C 0.27002 0.27398 0.04788 0.0
C5519 C 0.28736 0.28479 0.05244 0.0
C5520 C 0.28348 0.28658 0.06358 0.0
C5521 C 0.27274 0.28224 0.06666 0.0
C5522 C 0.2661 0.27607 0.05893 0.0
C5523 C 0.29055 0.29269 0.07226 0.0
C5524 C 0.29263 0.28721 0.0827 0.0
C5525 C 0.29481 0.30389 0.0706 0.0
C5526 C 0.29265 0.3103 0.05994 0.0
C5527 C 0.28145 0.31219 0.05614 0.0
C5528 C 0.2795 0.3182 0.04605 0.0
C5529 C 0.28867 0.32245 0.03973 0.0
C5530 C 0.29983 0.32072 0.04352 0.0
C5531 C 0.30183 0.31471 0.0536 0.0
H5532 H 0.28714 0.32711 0.03192 0.0
H5533 H 0.30601 0.26977 0.13052 0.0
H5534 H 0.71712 0.33299 0.11501 0.0
H5535 H 0.72423 0.32331 0.09831 0.0
H5536 H 0.69429 0.30158 0.0979 0.0
H5537 H 0.68737 0.31088 0.11499 0.0
H5538 H 0.71237 0.28941 0.09431 0.0
H5539 H 0.69817 0.32378 0.0784 0.0
H5540 H 0.69582 0.34446 0.07648 0.0
H5541 H 0.73156 0.34871 0.06988 0.0
H5542 H 0.73417 0.32806 0.07192 0.0
H5543 H 0.72494 0.26619 0.0406 0.0
H5544 H 0.71481 0.27824 0.05399 0.0
H5545 H 0.74603 0.29672 0.06117 0.0
H5546 H 0.7562 0.2846 0.0479 0.0
H5547 H 0.72591 0.31061 0.06028 0.0
H5548 H 0.73999 0.27628 0.0777 0.0
H5549 H 0.74211 0.25553 0.07912 0.0
H5550 H 0.70589 0.25131 0.08254 0.0
H5551 H 0.70354 0.27204 0.0809 0.0
C5552 C 0.71207 0.32608 0.11146 0.0
C5553 C 0.70166 0.32273 0.11642 0.0
C5554 C 0.71609 0.32065 0.10178 0.0
C5555 C 0.70973 0.31181 0.09669 0.0
C5556 C 0.69934 0.30842 0.10161 0.0
C5557 C 0.69533 0.31382 0.11135 0.0
C5558 C 0.71411 0.30592 0.08646 0.0
C5559 C 0.71512 0.29406 0.0868 0.0
C5560 C 0.71791 0.31195 0.07668 0.0
C5561 C 0.71638 0.32437 0.07541 0.0
C5562 C 0.70555 0.32913 0.07662 0.0
C5563 C 0.70416 0.34085 0.0755 0.0
C5564 C 0.71354 0.3479 0.07309 0.0
C5565 C 0.72431 0.34324 0.07176 0.0
C5566 C 0.72574 0.33152 0.07289 0.0
C5567 C 0.72954 0.27306 0.04476 0.0
C5568 C 0.74134 0.27449 0.04321 0.0
C5569 C 0.72378 0.27988 0.05246 0.0
C5570 C 0.7297 0.2883 0.05865 0.0
C5571 C 0.7413 0.29028 0.05648 0.0
C5572 C 0.7471 0.28337 0.04891 0.0
C5573 C 0.72415 0.29419 0.06822 0.0
C5574 C 0.723 0.30602 0.06776 0.0
C5575 C 0.72016 0.28814 0.07787 0.0
C5576 C 0.72157 0.2757 0.07904 0.0
C5577 C 0.73247 0.27092 0.07866 0.0
C5578 C 0.73371 0.25917 0.07951 0.0
C5579 C 0.72414 0.2521 0.08089 0.0
C5580 C 0.7133 0.25679 0.08145 0.0
C5581 C 0.712 0.26854 0.08056 0.0
H5582 H 0.72512 0.243 0.08156 0.0
H5583 H 0.71245 0.35697 0.07222 0.0
H5584 H 0.722 0.32917 0.90099 0.0
H5585 H 0.72969 0.31884 0.91728 0.0
H5586 H 0.69588 0.30696 0.92591 0.0
H5587 H 0.68804 0.31762 0.90978 0.0
H5588 H 0.70764 0.3134 0.94475 0.0
H5589 H 0.71433 0.28959 0.91282 0.0
H5590 H 0.72117 0.28466 0.89374 0.0
H5591 H 0.75548 0.29309 0.90384 0.0
H5592 H 0.74883 0.29823 0.92294 0.0
H5593 H 0.7268 0.26785 0.98109 0.0
H5594 H 0.71766 0.28038 0.96717 0.0
H5595 H 0.75066 0.29308 0.95675 0.0
H5596 H 0.7598 0.28057 0.9706 0.0
H5597 H 0.73856 0.28591 0.93894 0.0
H5598 H 0.73167 0.3098 0.97103 0.0
H5599 H 0.72467 0.31431 0.99016 0.0
H5600 H 0.69058 0.3052 0.97987 0.0
H5601 H 0.6974 0.30048 0.96071 0.0
C5602 C 0.71616 0.32447 0.90641 0.0
C5603 C 0.70438 0.32425 0.90404 0.0
C5604 C 0.72059 0.31847 0.91568 0.0
C5605 C 0.71339 0.312 0.92276 0.0
C5606 C 0.70161 0.31186 0.92054 0.0
C5607 C 0.69716 0.31788 0.91125 0.0
C5608 C 0.71821 0.30533 0.9324 0.0
C5609 C 0.7143 0.30728 0.94347 0.0
C5610 C 0.72704 0.29746 0.93078 0.0
C5611 C 0.73106 0.29441 0.91928 0.0
C5612 C 0.72332 0.29049 0.91094 0.0
C5613 C 0.72717 0.28764 0.90013 0.0
C5614 C 0.73875 0.28859 0.89757 0.0
C5615 C 0.74651 0.29237 0.90583 0.0
C5616 C 0.74271 0.29525 0.91666 0.0
C5617 C 0.73208 0.27357 0.97607 0.0
C5618 C 0.74402 0.2732 0.97692 0.0
C5619 C 0.72685 0.2807 0.96808 0.0
C5620 C 0.73347 0.28766 0.96087 0.0
C5621 C 0.74537 0.28774 0.96215 0.0
C5622 C 0.75059 0.28061 0.97009 0.0
C5623 C 0.72814 0.29411 0.95133 0.0
C5624 C 0.73193 0.29206 0.94025 0.0
C5625 C 0.71919 0.30182 0.95296 0.0
C5626 C 0.71507 0.30467 0.96447 0.0
C5627 C 0.7227 0.30866 0.97287 0.0
C5628 C 0.71876 0.31128 0.98372 0.0
C5629 C 0.70719 0.31002 0.98624 0.0
C5630 C 0.69954 0.30616 0.97791 0.0
C5631 C 0.70343 0.30352 0.96705 0.0
H5632 H 0.70416 0.31205 0.99464 0.0
H5633 H 0.74171 0.28637 0.88919 0.0
H5634 H 0.70949 0.69286 0.90029 0.0
H5635 H 0.71923 0.70019 0.91726 0.0
H5636 H 0.68814 0.71578 0.92794 0.0
H5637 H 0.67834 0.7084 0.9111 0.0
H5638 H 0.70572 0.73047 0.92937 0.0
H5639 H 0.69838 0.69199 0.94131 0.0
H5640 H 0.69882 0.67113 0.93975 0.0
H5641 H 0.73539 0.67236 0.93954 0.0
H5642 H 0.73517 0.69324 0.94094 0.0
H5643 H 0.7253 0.74905 0.98255 0.0
H5644 H 0.71415 0.73738 0.96922 0.0
H5645 H 0.74499 0.72228 0.95722 0.0
H5646 H 0.75616 0.73375 0.9707 0.0
H5647 H 0.72717 0.7069 0.95703 0.0
H5648 H 0.7348 0.74488 0.94387 0.0
H5649 H 0.73497 0.76576 0.94519 0.0
H5650 H 0.69845 0.76548 0.94706 0.0
H5651 H 0.69808 0.74456 0.94596 0.0
C5652 C 0.70468 0.6977 0.90633 0.0
C5653 C 0.69312 0.70006 0.90426 0.0
C5654 C 0.71027 0.70191 0.91604 0.0
C5655 C 0.70442 0.7085 0.92395 0.0
C5656 C 0.69286 0.71076 0.92197 0.0
C5657 C 0.68728 0.70656 0.91228 0.0
C5658 C 0.71041 0.71345 0.93404 0.0
C5659 C 0.71023 0.72527 0.93551 0.0
C5660 C 0.71659 0.70675 0.94192 0.0
C5661 C 0.71675 0.69419 0.94112 0.0
C5662 C 0.70651 0.68782 0.94084 0.0
C5663 C 0.70672 0.67599 0.94 0.0
C5664 C 0.71713 0.67043 0.93952 0.0
C5665 C 0.72734 0.67668 0.9399 0.0
C5666 C 0.72718 0.68851 0.94073 0.0
C5667 C 0.72967 0.74295 0.97737 0.0
C5668 C 0.74163 0.74239 0.97762 0.0
C5669 C 0.7233 0.73636 0.96967 0.0
C5670 C 0.72875 0.72913 0.96204 0.0
C5671 C 0.74059 0.72784 0.96296 0.0
C5672 C 0.74697 0.73443 0.97064 0.0
C5673 C 0.72235 0.72387 0.95238 0.0
C5674 C 0.72253 0.71205 0.95094 0.0
C5675 C 0.71623 0.73056 0.94445 0.0
C5676 C 0.71642 0.74315 0.94496 0.0
C5677 C 0.72681 0.74926 0.94464 0.0
C5678 C 0.72695 0.76111 0.94535 0.0
C5679 C 0.71673 0.76694 0.94623 0.0
C5680 C 0.70636 0.76095 0.94639 0.0
C5681 C 0.70618 0.7491 0.94573 0.0
H5682 H 0.71685 0.77611 0.94677 0.0
H5683 H 0.71727 0.66127 0.93887 0.0
H5684 H 0.30633 0.70955 0.89548 0.0
H5685 H 0.29688 0.7176 0.91196 0.0
H5686 H 0.32405 0.7059 0.93374 0.0
H5687 H 0.33347 0.69771 0.91728 0.0
H5688 H 0.30459 0.70274 0.94413 0.0
H5689 H 0.32257 0.73394 0.92515 0.0
H5690 H 0.32753 0.7465 0.90902 0.0
H5691 H 0.29238 0.75528 0.90493 0.0
H5692 H 0.28718 0.74264 0.92094 0.0
H5693 H 0.28442 0.7581 0.97619 0.0
H5694 H 0.29679 0.74831 0.96289 0.0
H5695 H 0.27376 0.71934 0.96327 0.0
H5696 H 0.26178 0.72893 0.97703 0.0
H5697 H 0.29306 0.74304 0.94269 0.0
H5698 H 0.28609 0.69546 0.9546 0.0
H5699 H 0.2833 0.6836 0.97174 0.0
H5700 H 0.30045 0.70886 0.99206 0.0
H5701 H 0.30347 0.72081 0.97503 0.0
C5702 C 0.31031 0.70871 0.90378 0.0
C5703 C 0.3207 0.70304 0.90504 0.0
C5704 C 0.3049 0.71332 0.9132 0.0
C5705 C 0.30983 0.71253 0.9241 0.0
C5706 C 0.32006 0.70663 0.92544 0.0
C5707 C 0.32544 0.70193 0.91601 0.0
C5708 C 0.30442 0.71805 0.93404 0.0
C5709 C 0.30208 0.71156 0.94383 0.0
C5710 C 0.30139 0.72964 0.93381 0.0
C5711 C 0.30447 0.73726 0.92418 0.0
C5712 C 0.31588 0.73848 0.92076 0.0
C5713 C 0.31874 0.74562 0.91165 0.0
C5714 C 0.31027 0.75166 0.90594 0.0
C5715 C 0.29893 0.75059 0.90935 0.0
C5716 C 0.29602 0.74344 0.91845 0.0
C5717 C 0.28222 0.74951 0.97367 0.0
C5718 C 0.27225 0.7442 0.97773 0.0
C5719 C 0.28923 0.74394 0.96599 0.0
C5720 C 0.2863 0.73301 0.96204 0.0
C5721 C 0.27643 0.72762 0.96634 0.0
C5722 C 0.26956 0.7331 0.97421 0.0
C5723 C 0.29304 0.7277 0.9528 0.0
C5724 C 0.29561 0.73423 0.94308 0.0
C5725 C 0.29657 0.71625 0.95326 0.0
C5726 C 0.29492 0.70907 0.96354 0.0
C5727 C 0.28931 0.69846 0.96272 0.0
C5728 C 0.28768 0.69173 0.97242 0.0
C5729 C 0.29166 0.69549 0.98299 0.0
C5730 C 0.29733 0.70597 0.98387 0.0
C5731 C 0.29899 0.71274 0.9742 0.0
H5732 H 0.29038 0.69026 0.99049 0.0
H5733 H 0.3125 0.75719 0.89889 0.0
H5734 H 0.3315 0.31939 0.91231 0.0
H5735 H 0.32363 0.30964 0.92904 0.0
H5736 H 0.28985 0.312 0.91464 0.0
H5737 H 0.29762 0.32166 0.89795 0.0
H5738 H 0.28978 0.31822 0.93629 0.0
H5739 H 0.30469 0.28692 0.9151 0.0
H5740 H 0.31955 0.2762 0.90532 0.0
H5741 H 0.33911 0.2746 0.93627 0.0
H5742 H 0.32442 0.28544 0.9462 0.0
H5743 H 0.25636 0.27647 0.96337 0.0
H5744 H 0.26797 0.28763 0.95014 0.0
H5745 H 0.29683 0.28507 0.97288 0.0
H5746 H 0.28507 0.27383 0.98631 0.0
H5747 H 0.30167 0.28009 0.94945 0.0
H5748 H 0.28515 0.30955 0.97108 0.0
H5749 H 0.26971 0.31969 0.98056 0.0
H5750 H 0.25274 0.32441 0.94845 0.0
H5751 H 0.26799 0.31414 0.93879 0.0
C5752 C 0.32241 0.31771 0.91264 0.0
C5753 C 0.3152 0.32138 0.90378 0.0
C5754 C 0.31792 0.31215 0.92224 0.0
C5755 C 0.30613 0.31006 0.92313 0.0
C5756 C 0.29895 0.31359 0.91422 0.0
C5757 C 0.30342 0.31915 0.90467 0.0
C5758 C 0.30112 0.30438 0.93335 0.0
C5759 C 0.29235 0.30986 0.93911 0.0
C5760 C 0.3047 0.29361 0.93731 0.0
C5761 C 0.31353 0.28712 0.93135 0.0
C5762 C 0.31221 0.28437 0.91979 0.0
C5763 C 0.32059 0.27826 0.91423 0.0
C5764 C 0.33029 0.27476 0.92016 0.0
C5765 C 0.33161 0.27734 0.93168 0.0
C5766 C 0.32326 0.28346 0.93728 0.0
C5767 C 0.26517 0.27832 0.96558 0.0
C5768 C 0.26984 0.27425 0.97584 0.0
C5769 C 0.27179 0.28473 0.95803 0.0
C5770 C 0.28326 0.28723 0.96052 0.0
C5771 C 0.28798 0.28324 0.9708 0.0
C5772 C 0.28127 0.2769 0.97848 0.0
C5773 C 0.29017 0.29384 0.95215 0.0
C5774 C 0.29926 0.28854 0.94674 0.0
C5775 C 0.28687 0.30476 0.94846 0.0
C5776 C 0.27769 0.311 0.95422 0.0
C5777 C 0.27808 0.31267 0.96604 0.0
C5778 C 0.26937 0.31846 0.97145 0.0
C5779 C 0.26024 0.32268 0.96511 0.0
C5780 C 0.25982 0.32114 0.95335 0.0
C5781 C 0.2685 0.31534 0.9479 0.0
H5782 H 0.25351 0.32716 0.96931 0.0
H5783 H 0.33676 0.27002 0.91584 0.0
H5784 H 0.60181 0.69966 0.17997 0.0
H5785 H 0.58549 0.70679 0.19037 0.0
H5786 H 0.60346 0.70171 0.22206 0.0
H5787 H 0.61985 0.69463 0.21172 0.0
H5788 H 0.58152 0.69497 0.22388 0.0
H5789 H 0.60159 0.72809 0.20974 0.0
H5790 H 0.61032 0.74038 0.19505 0.0
H5791 H 0.57799 0.743 0.178 0.0
H5792 H 0.5691 0.73058 0.19252 0.0
H5793 H 0.55581 0.73278 0.26158 0.0
H5794 H 0.56799 0.72211 0.24894 0.0
H5795 H 0.54513 0.72885 0.2209 0.0
H5796 H 0.53283 0.73968 0.23368 0.0
H5797 H 0.56747 0.73366 0.21559 0.0
H5798 H 0.547 0.70221 0.23136 0.0
H5799 H 0.53852 0.69029 0.24649 0.0
H5800 H 0.57172 0.6848 0.26087 0.0
H5801 H 0.58039 0.69682 0.24592 0.0
C5802 C 0.60233 0.7001 0.18915 0.0
C5803 C 0.61222 0.69663 0.19498 0.0
C5804 C 0.59296 0.70417 0.19509 0.0
C5805 C 0.59326 0.70494 0.207 0.0
C5806 C 0.60299 0.7012 0.21287 0.0
C5807 C 0.61236 0.69711 0.20694 0.0
C5808 C 0.58359 0.70987 0.21336 0.0
C5809 C 0.57851 0.70346 0.22212 0.0
C5810 C 0.57939 0.72082 0.21086 0.0
C5811 C 0.58471 0.7283 0.20214 0.0
C5812 C 0.59637 0.73121 0.20281 0.0
C5813 C 0.60134 0.73821 0.19452 0.0
C5814 C 0.59472 0.74244 0.18558 0.0
C5815 C 0.58311 0.7397 0.18492 0.0
C5816 C 0.5781 0.73268 0.19317 0.0
C5817 C 0.55329 0.73186 0.25275 0.0
C5818 C 0.5434 0.73707 0.24859 0.0
C5819 C 0.56023 0.72571 0.24553 0.0
C5820 C 0.55746 0.72459 0.23396 0.0
C5821 C 0.54742 0.72957 0.22981 0.0
C5822 C 0.54037 0.73568 0.23709 0.0
C5823 C 0.56552 0.71884 0.22624 0.0
C5824 C 0.57034 0.7251 0.21724 0.0
C5825 C 0.56951 0.70776 0.22855 0.0
C5826 C 0.56434 0.70048 0.23755 0.0
C5827 C 0.55249 0.69853 0.23779 0.0
C5828 C 0.54765 0.69174 0.24633 0.0
C5829 C 0.55458 0.68681 0.25465 0.0
C5830 C 0.56637 0.68863 0.25442 0.0
C5831 C 0.57125 0.69541 0.24591 0.0
H5832 H 0.55081 0.68156 0.26125 0.0
H5833 H 0.59859 0.74786 0.17917 0.0
H5834 H 0.33662 0.60678 0.20992 0.0
H5835 H 0.32594 0.59032 0.21706 0.0
H5836 H 0.29489 0.60403 0.20325 0.0
H5837 H 0.30547 0.62078 0.19647 0.0
H5838 H 0.2915 0.59661 0.22418 0.0
H5839 H 0.30823 0.58116 0.19089 0.0
H5840 H 0.32372 0.57667 0.17771 0.0
H5841 H 0.34016 0.55706 0.20379 0.0
H5842 H 0.32484 0.56156 0.21718 0.0
H5843 H 0.25815 0.54801 0.23604 0.0
H5844 H 0.26855 0.56192 0.22437 0.0
H5845 H 0.30019 0.55146 0.23971 0.0
H5846 H 0.28984 0.53755 0.25142 0.0
H5847 H 0.30267 0.55688 0.21689 0.0
H5848 H 0.28653 0.57344 0.25038 0.0
H5849 H 0.27088 0.57766 0.26347 0.0
H5850 H 0.25326 0.59523 0.23671 0.0
H5851 H 0.26873 0.59094 0.22339 0.0
C5852 C 0.32751 0.60634 0.20844 0.0
C5853 C 0.32192 0.61516 0.20263 0.0
C5854 C 0.32142 0.59683 0.21242 0.0
C5855 C 0.30961 0.59583 0.21058 0.0
C5856 C 0.304 0.60457 0.20473 0.0
C5857 C 0.31009 0.61411 0.20077 0.0
C5858 C 0.30306 0.58591 0.2152 0.0
C5859 C 0.29383 0.58794 0.2224 0.0
C5860 C 0.30622 0.57455 0.21311 0.0
C5861 C 0.31543 0.57178 0.20507 0.0
C5862 C 0.31519 0.57596 0.19384 0.0
C5863 C 0.32393 0.5734 0.18633 0.0
C5864 C 0.33293 0.5666 0.18992 0.0
C5865 C 0.33319 0.56233 0.20102 0.0
C5866 C 0.32447 0.56487 0.20858 0.0
C5867 C 0.26735 0.54853 0.23677 0.0
C5868 C 0.27316 0.54175 0.24474 0.0
C5869 C 0.27328 0.55649 0.23011 0.0
C5870 C 0.28512 0.55789 0.23133 0.0
C5871 C 0.29105 0.55055 0.23865 0.0
C5872 C 0.28512 0.54256 0.24531 0.0
C5873 C 0.29116 0.56764 0.22582 0.0
C5874 C 0.3003 0.56558 0.21854 0.0
C5875 C 0.28793 0.57898 0.22781 0.0
C5876 C 0.27873 0.58177 0.23586 0.0
C5877 C 0.27929 0.57814 0.24727 0.0
C5878 C 0.27045 0.58055 0.25473 0.0
C5879 C 0.26106 0.58668 0.25092 0.0
C5880 C 0.26052 0.59046 0.23964 0.0
C5881 C 0.26932 0.58805 0.23214 0.0
H5882 H 0.25422 0.58853 0.2567 0.0
H5883 H 0.33969 0.56463 0.18408 0.0
H5884 H 0.41583 0.31824 0.18188 0.0
H5885 H 0.4321 0.31088 0.19255 0.0
H5886 H 0.4129 0.31255 0.22358 0.0
H5887 H 0.39658 0.31988 0.21297 0.0
H5888 H 0.43433 0.31997 0.22702 0.0
H5889 H 0.41644 0.28736 0.20941 0.0
H5890 H 0.4089 0.27605 0.19338 0.0
H5891 H 0.44197 0.27644 0.17802 0.0
H5892 H 0.44968 0.28789 0.1939 0.0
H5893 H 0.46083 0.28068 0.26337 0.0
H5894 H 0.44837 0.29147 0.25081 0.0
H5895 H 0.47242 0.2882 0.22353 0.0
H5896 H 0.48497 0.27717 0.23618 0.0
H5897 H 0.45057 0.28284 0.21674 0.0
H5898 H 0.46885 0.31373 0.23584 0.0
H5899 H 0.47615 0.32463 0.25226 0.0
H5900 H 0.44219 0.32722 0.26517 0.0
H5901 H 0.4347 0.31619 0.24892 0.0
C5902 C 0.41504 0.317 0.19097 0.0
C5903 C 0.40483 0.3196 0.19654 0.0
C5904 C 0.42437 0.3128 0.19707 0.0
C5905 C 0.42371 0.31102 0.20887 0.0
C5906 C 0.41365 0.31387 0.21449 0.0
C5907 C 0.40431 0.31809 0.2084 0.0
C5908 C 0.43339 0.30599 0.21535 0.0
C5909 C 0.43782 0.31182 0.22482 0.0
C5910 C 0.43821 0.29549 0.2123 0.0
C5911 C 0.4336 0.28859 0.20277 0.0
C5912 C 0.42208 0.28511 0.20256 0.0
C5913 C 0.41778 0.27866 0.19352 0.0
C5914 C 0.42495 0.27556 0.18467 0.0
C5915 C 0.43643 0.27887 0.18487 0.0
C5916 C 0.44077 0.28533 0.19389 0.0
C5917 C 0.46352 0.28231 0.25471 0.0
C5918 C 0.47384 0.27801 0.25072 0.0
C5919 C 0.45642 0.28856 0.24756 0.0
C5920 C 0.45946 0.29073 0.23623 0.0
C5921 C 0.4699 0.28665 0.23225 0.0
C5922 C 0.47709 0.28042 0.23948 0.0
C5923 C 0.45137 0.29674 0.22854 0.0
C5924 C 0.44721 0.29108 0.21885 0.0
C5925 C 0.44677 0.30738 0.23141 0.0
C5926 C 0.45122 0.31407 0.24118 0.0
C5927 C 0.46295 0.31655 0.24222 0.0
C5928 C 0.46712 0.32277 0.25149 0.0
C5929 C 0.45964 0.32659 0.25976 0.0
C5930 C 0.44797 0.32424 0.25876 0.0
C5931 C 0.44376 0.31803 0.24951 0.0
H5932 H 0.46288 0.3314 0.26693 0.0
H5933 H 0.4216 0.27056 0.17767 0.0
H5934 H 0.70399 0.40447 0.18957 0.0
H5935 H 0.71366 0.42127 0.1973 0.0
H5936 H 0.69626 0.41626 0.22914 0.0
H5937 H 0.68612 0.3998 0.2213 0.0
H5938 H 0.69671 0.43798 0.22404 0.0
H5939 H 0.72453 0.40859 0.22527 0.0
H5940 H 0.73642 0.39343 0.21756 0.0
H5941 H 0.75203 0.41725 0.19445 0.0
H5942 H 0.74013 0.43254 0.20192 0.0
H5943 H 0.73469 0.46824 0.26125 0.0
H5944 H 0.72259 0.45456 0.25098 0.0
H5945 H 0.73902 0.46403 0.21958 0.0
H5946 H 0.75119 0.4777 0.22984 0.0
H5947 H 0.73889 0.441 0.2233 0.0
H5948 H 0.71173 0.47081 0.22368 0.0
H5949 H 0.70009 0.48567 0.23228 0.0
H5950 H 0.6835 0.46067 0.25341 0.0
H5951 H 0.69515 0.44567 0.24505 0.0
C5952 C 0.7021 0.407 0.19817 0.0
C5953 C 0.69429 0.40068 0.20481 0.0
C5954 C 0.70774 0.41657 0.20263 0.0
C5955 C 0.70584 0.41998 0.21388 0.0
C5956 C 0.69793 0.41381 0.22046 0.0
C5957 C 0.69223 0.40429 0.21599 0.0
C5958 C 0.71214 0.42989 0.21886 0.0
C5959 C 0.70594 0.43857 0.22397 0.0
C5960 C 0.72419 0.43085 0.21858 0.0
C5961 C 0.73135 0.42167 0.21406 0.0
C5962 C 0.73043 0.41057 0.21848 0.0
C5963 C 0.73719 0.40196 0.21416 0.0
C5964 C 0.74495 0.40437 0.2055 0.0
C5965 C 0.746 0.4154 0.20115 0.0
C5966 C 0.73926 0.42404 0.20542 0.0
C5967 C 0.73556 0.46756 0.25212 0.0
C5968 C 0.74387 0.47406 0.24635 0.0
C5969 C 0.72863 0.45976 0.24625 0.0
C5970 C 0.72988 0.45826 0.23449 0.0
C5971 C 0.73789 0.46505 0.22864 0.0
C5972 C 0.74476 0.47293 0.2345 0.0
C5973 C 0.72346 0.44903 0.22852 0.0
C5974 C 0.72966 0.44046 0.22326 0.0
C5975 C 0.71143 0.44813 0.22877 0.0
C5976 C 0.70439 0.45713 0.23381 0.0
C5977 C 0.70566 0.46849 0.23023 0.0
C5978 C 0.69905 0.47694 0.23505 0.0
C5979 C 0.69108 0.47412 0.2434 0.0
C5980 C 0.68968 0.46284 0.24694 0.0
C5981 C 0.69628 0.45436 0.24216 0.0
H5982 H 0.68597 0.48068 0.24712 0.0
H5983 H 0.75017 0.39769 0.20217 0.0
H5984 H 0.60736 0.30902 0.84055 0.0
H5985 H 0.59087 0.30144 0.83014 0.0
H5986 H 0.60544 0.31324 0.79859 0.0
H5987 H 0.62208 0.32076 0.80894 0.0
H5988 H 0.58243 0.31717 0.79948 0.0
H5989 H 0.60735 0.28582 0.80595 0.0
H5990 H 0.61923 0.27297 0.81745 0.0
H5991 H 0.58998 0.26278 0.83695 0.0
H5992 H 0.57796 0.2757 0.82566 0.0
H5993 H 0.55055 0.28186 0.7613 0.0
H5994 H 0.56458 0.29269 0.77238 0.0
H5995 H 0.55115 0.27808 0.80332 0.0
H5996 H 0.53745 0.2668 0.79225 0.0
H5997 H 0.57324 0.27606 0.80309 0.0
H5998 H 0.54801 0.30684 0.79596 0.0
H5999 H 0.53621 0.31967 0.78436 0.0
H6000 H 0.56583 0.3309 0.76599 0.0
H6001 H 0.57779 0.31803 0.77738 0.0
C6002 C 0.60711 0.30996 0.83139 0.0
C6003 C 0.61613 0.3154 0.82558 0.0
C6004 C 0.59764 0.30566 0.82545 0.0
C6005 C 0.59697 0.30665 0.81357 0.0
C6006 C 0.60577 0.31239 0.80776 0.0
C6007 C 0.61527 0.3167 0.8137 0.0
C6008 C 0.58728 0.30134 0.80719 0.0
C6009 C 0.58047 0.30816 0.80016 0.0
C6010 C 0.58458 0.28963 0.80827 0.0
C6011 C 0.59178 0.28182 0.81504 0.0
C6012 C 0.60347 0.28091 0.81275 0.0
C6013 C 0.61023 0.2736 0.81922 0.0
C6014 C 0.60537 0.26709 0.82795 0.0
C6015 C 0.59374 0.26785 0.8302 0.0
C6016 C 0.58695 0.27516 0.82377 0.0
C6017 C 0.55049 0.28103 0.77048 0.0
C6018 C 0.54288 0.27339 0.77586 0.0
C6019 C 0.55847 0.28732 0.77683 0.0
C6020 C 0.55893 0.28626 0.78872 0.0
C6021 C 0.55098 0.27905 0.79415 0.0
C6022 C 0.54305 0.2727 0.7878 0.0
C6023 C 0.56826 0.29189 0.79539 0.0
C6024 C 0.57508 0.2851 0.80245 0.0
C6025 C 0.57095 0.30362 0.79432 0.0
C6026 C 0.56378 0.31139 0.78747 0.0
C6027 C 0.55199 0.31198 0.78939 0.0
C6028 C 0.54528 0.31928 0.78286 0.0
C6029 C 0.55026 0.32608 0.77442 0.0
C6030 C 0.56198 0.32562 0.77252 0.0
C6031 C 0.56873 0.31834 0.77902 0.0
H6032 H 0.54504 0.33172 0.76938 0.0
H6033 H 0.61061 0.26143 0.83294 0.0
H6034 H 0.70877 0.60634 0.83958 0.0
H6035 H 0.71674 0.59026 0.82955 0.0
H6036 H 0.70391 0.60345 0.79776 0.0
H6037 H 0.69598 0.61969 0.80774 0.0
H6038 H 0.70086 0.58036 0.79923 0.0
H6039 H 0.73158 0.60721 0.80479 0.0
H6040 H 0.74423 0.61999 0.81584 0.0
H6041 H 0.75551 0.59179 0.83604 0.0
H6042 H 0.7428 0.57885 0.82521 0.0
H6043 H 0.73696 0.55051 0.76155 0.0
H6044 H 0.72588 0.56399 0.7724 0.0
H6045 H 0.74084 0.55146 0.80355 0.0
H6046 H 0.75227 0.53823 0.79269 0.0
H6047 H 0.74237 0.5738 0.8028 0.0
H6048 H 0.71223 0.54669 0.79657 0.0
H6049 H 0.69963 0.53398 0.7854 0.0
H6050 H 0.6873 0.5625 0.76633 0.0
H6051 H 0.69995 0.57538 0.77728 0.0
C6052 C 0.70767 0.60588 0.83044 0.0
C6053 C 0.70183 0.61442 0.82447 0.0
C6054 C 0.71221 0.59664 0.82472 0.0
C6055 C 0.71107 0.5957 0.81287 0.0
C6056 C 0.7049 0.60398 0.80691 0.0
C6057 C 0.70035 0.61326 0.81263 0.0
C6058 C 0.71664 0.5863 0.8067 0.0
C6059 C 0.70995 0.57899 0.7999 0.0
C6060 C 0.72847 0.58433 0.80777 0.0
C6061 C 0.73615 0.59208 0.81427 0.0
C6062 C 0.73669 0.60375 0.81165 0.0
C6063 C 0.74388 0.61102 0.81786 0.0
C6064 C 0.75064 0.60671 0.82666 0.0
C6065 C 0.75025 0.59511 0.82924 0.0
C6066 C 0.74307 0.58781 0.82306 0.0
C6067 C 0.7378 0.55053 0.77072 0.0
C6068 C 0.74555 0.54329 0.77622 0.0
C6069 C 0.73137 0.5582 0.77694 0.0
C6070 C 0.73246 0.55875 0.78883 0.0
C6071 C 0.73984 0.55121 0.79439 0.0
C6072 C 0.74629 0.54355 0.78817 0.0
C6073 C 0.7266 0.56777 0.79534 0.0
C6074 C 0.73325 0.57507 0.80217 0.0
C6075 C 0.71475 0.56971 0.79428 0.0
C6076 C 0.70712 0.56199 0.78769 0.0
C6077 C 0.7069 0.55025 0.78994 0.0
C6078 C 0.69973 0.54301 0.78365 0.0
C6079 C 0.69269 0.54743 0.77514 0.0
C6080 C 0.69277 0.55909 0.77292 0.0
C6081 C 0.69993 0.56637 0.77917 0.0
H6082 H 0.68714 0.54181 0.77029 0.0
H6083 H 0.75621 0.61235 0.83145 0.0
H6084 H 0.39113 0.7107 0.81611 0.0
H6085 H 0.40715 0.72115 0.80768 0.0
H6086 H 0.42844 0.69196 0.81218 0.0
H6087 H 0.41252 0.68153 0.82092 0.0
H6088 H 0.44002 0.71152 0.81739 0.0
H6089 H 0.417 0.69775 0.78648 0.0
H6090 H 0.39931 0.6947 0.77541 0.0
H6091 H 0.39582 0.73072 0.77129 0.0
H6092 H 0.41341 0.73399 0.78248 0.0
H6093 H 0.48289 0.73332 0.77868 0.0
H6094 H 0.46877 0.72136 0.78873 0.0
H6095 H 0.44386 0.74763 0.78469 0.0
H6096 H 0.45777 0.75945 0.77471 0.0
H6097 H 0.43482 0.72799 0.77883 0.0
H6098 H 0.45726 0.74185 0.8105 0.0
H6099 H 0.47491 0.745 0.82162 0.0
H6100 H 0.47953 0.70899 0.82424 0.0
H6101 H 0.46197 0.70563 0.813 0.0
C6102 C 0.39926 0.70654 0.81547 0.0
C6103 C 0.40049 0.69523 0.81915 0.0
C6104 C 0.40839 0.7125 0.81055 0.0
C6105 C 0.41897 0.7073 0.80913 0.0
C6106 C 0.42035 0.69614 0.81312 0.0
C6107 C 0.41121 0.69016 0.81803 0.0
C6108 C 0.42846 0.71341 0.80322 0.0
C6109 C 0.43894 0.71499 0.8089 0.0
C6110 C 0.42704 0.71806 0.79218 0.0
C6111 C 0.41647 0.71611 0.78542 0.0
C6112 C 0.41241 0.70502 0.78329 0.0
C6113 C 0.40241 0.70325 0.77698 0.0
C6114 C 0.39643 0.71251 0.77267 0.0
C6115 C 0.40045 0.72355 0.77464 0.0
C6116 C 0.41045 0.72537 0.78096 0.0
C6117 C 0.47442 0.73654 0.78004 0.0
C6118 C 0.47141 0.74726 0.77575 0.0
C6119 C 0.46636 0.72972 0.78579 0.0
C6120 C 0.45521 0.73358 0.78747 0.0
C6121 C 0.45234 0.74439 0.78342 0.0
C6122 C 0.46032 0.75114 0.77768 0.0
C6123 C 0.44632 0.72636 0.79309 0.0
C6124 C 0.43594 0.7245 0.78732 0.0
C6125 C 0.44784 0.72149 0.80403 0.0
C6126 C 0.45838 0.7235 0.8108 0.0
C6127 C 0.46209 0.73461 0.81337 0.0
C6128 C 0.47207 0.73643 0.81971 0.0
C6129 C 0.47836 0.7272 0.82361 0.0
C6130 C 0.47466 0.71613 0.8212 0.0
C6131 C 0.4647 0.71426 0.81485 0.0
H6132 H 0.48608 0.72862 0.82852 0.0
H6133 H 0.38868 0.71112 0.76778 0.0
H6134 H 0.3298 0.4133 0.82975 0.0
H6135 H 0.32044 0.42969 0.82101 0.0
H6136 H 0.30785 0.40839 0.79386 0.0
H6137 H 0.31728 0.39205 0.80244 0.0
H6138 H 0.31729 0.42826 0.7859 0.0
H6139 H 0.29039 0.41667 0.8148 0.0
H6140 H 0.28435 0.4122 0.83438 0.0
H6141 H 0.29372 0.44596 0.84483 0.0
H6142 H 0.29997 0.45058 0.82533 0.0
H6143 H 0.27366 0.45796 0.75937 0.0
H6144 H 0.28502 0.44465 0.77026 0.0
H6145 H 0.29271 0.4706 0.79498 0.0
H6146 H 0.28086 0.48403 0.7842 0.0
H6147 H 0.28764 0.4504 0.80529 0.0
H6148 H 0.31287 0.46268 0.77613 0.0
H6149 H 0.31891 0.46733 0.75659 0.0
H6150 H 0.31319 0.43265 0.74674 0.0
H6151 H 0.30696 0.42783 0.76618 0.0
C6152 C 0.32505 0.41212 0.82191 0.0
C6153 C 0.32426 0.40134 0.81682 0.0
C6154 C 0.31965 0.42148 0.81696 0.0
C6155 C 0.31339 0.42027 0.8068 0.0
C6156 C 0.31262 0.40954 0.8017 0.0
C6157 C 0.31794 0.40018 0.80667 0.0
C6158 C 0.30777 0.43016 0.80131 0.0
C6159 C 0.31075 0.43304 0.79011 0.0
C6160 C 0.29953 0.4367 0.80693 0.0
C6161 C 0.29577 0.43393 0.81864 0.0
C6162 C 0.29126 0.42311 0.8213 0.0
C6163 C 0.28778 0.42055 0.83237 0.0
C6164 C 0.28868 0.42878 0.84085 0.0
C6165 C 0.29304 0.43959 0.83826 0.0
C6166 C 0.29655 0.44218 0.8272 0.0
C6167 C 0.27763 0.46086 0.76719 0.0
C6168 C 0.2762 0.47206 0.77097 0.0
C6169 C 0.28427 0.45324 0.77335 0.0
C6170 C 0.28987 0.45662 0.78338 0.0
C6171 C 0.28851 0.4678 0.78724 0.0
C6172 C 0.2818 0.47548 0.78104 0.0
C6173 C 0.29697 0.44831 0.78976 0.0
C6174 C 0.2943 0.44573 0.80112 0.0
C6175 C 0.30556 0.44207 0.78431 0.0
C6176 C 0.30938 0.44491 0.77261 0.0
C6177 C 0.31283 0.45606 0.76978 0.0
C6178 C 0.31629 0.45872 0.75872 0.0
C6179 C 0.31642 0.45029 0.75043 0.0
C6180 C 0.31309 0.43917 0.75318 0.0
C6181 C 0.30961 0.43647 0.76422 0.0
H6182 H 0.3191 0.45237 0.74187 0.0
H6183 H 0.28598 0.42679 0.84942 0.0
H6184 H 0.70194 0.60915 0.18852 0.0
H6185 H 0.71163 0.59254 0.19626 0.0
H6186 H 0.69631 0.59815 0.22889 0.0
H6187 H 0.68644 0.61461 0.2212 0.0
H6188 H 0.71885 0.59403 0.23102 0.0
H6189 H 0.68666 0.577 0.21158 0.0
H6190 H 0.67404 0.57325 0.19513 0.0
H6191 H 0.70211 0.55974 0.17667 0.0
H6192 H 0.71494 0.56355 0.19297 0.0
H6193 H 0.73244 0.54426 0.25946 0.0
H6194 H 0.72024 0.55777 0.2495 0.0
H6195 H 0.73747 0.55093 0.2181 0.0
H6196 H 0.74964 0.53725 0.22805 0.0
H6197 H 0.71444 0.55547 0.21463 0.0
H6198 H 0.7466 0.57219 0.23374 0.0
H6199 H 0.75943 0.57547 0.25013 0.0
H6200 H 0.73193 0.58981 0.2688 0.0
H6201 H 0.71886 0.58637 0.2526 0.0
C6202 C 0.70051 0.60679 0.19731 0.0
C6203 C 0.69339 0.61329 0.20422 0.0
C6204 C 0.70609 0.59728 0.20174 0.0
C6205 C 0.70465 0.59403 0.21316 0.0
C6206 C 0.69759 0.60051 0.22007 0.0
C6207 C 0.692 0.60997 0.21566 0.0
C6208 C 0.71062 0.584 0.218 0.0
C6209 C 0.71776 0.58559 0.22751 0.0
C6210 C 0.70949 0.57301 0.21324 0.0
C6211 C 0.70178 0.57067 0.20345 0.0
C6212 C 0.69016 0.57331 0.20398 0.0
C6213 C 0.68297 0.57116 0.19469 0.0
C6214 C 0.68728 0.56629 0.18485 0.0
C6215 C 0.69879 0.56353 0.1843 0.0
C6216 C 0.70602 0.56567 0.19356 0.0
C6217 C 0.73338 0.54538 0.25036 0.0
C6218 C 0.74202 0.53976 0.24453 0.0
C6219 C 0.72645 0.55314 0.24469 0.0
C6220 C 0.72812 0.55556 0.23311 0.0
C6221 C 0.73607 0.54923 0.22705 0.0
C6222 C 0.74298 0.54139 0.23272 0.0
C6223 C 0.72248 0.56551 0.22774 0.0
C6224 C 0.7155 0.56392 0.21812 0.0
C6225 C 0.72381 0.57655 0.23234 0.0
C6226 C 0.73172 0.57892 0.24199 0.0
C6227 C 0.74327 0.57598 0.24137 0.0
C6228 C 0.75058 0.57786 0.25062 0.0
C6229 C 0.74649 0.58283 0.26051 0.0
C6230 C 0.73508 0.58595 0.26114 0.0
C6231 C 0.72771 0.58403 0.25192 0.0
H6232 H 0.75217 0.58428 0.26767 0.0
H6233 H 0.68169 0.56463 0.17766 0.0
H6234 H 0.68427 0.4026 0.79974 0.0
H6235 H 0.69425 0.41908 0.7917 0.0
H6236 H 0.71565 0.42117 0.82158 0.0
H6237 H 0.70588 0.40447 0.82962 0.0
H6238 H 0.70788 0.44245 0.81414 0.0
H6239 H 0.7261 0.4098 0.79854 0.0
H6240 H 0.72672 0.39143 0.78865 0.0
H6241 H 0.7119 0.40655 0.75883 0.0
H6242 H 0.71103 0.42498 0.7686 0.0
H6243 H 0.75235 0.4776 0.79095 0.0
H6244 H 0.74004 0.46357 0.80043 0.0
H6245 H 0.7223 0.45735 0.76873 0.0
H6246 H 0.7349 0.4711 0.75918 0.0
H6247 H 0.72788 0.43827 0.77745 0.0
H6248 H 0.7099 0.47104 0.79252 0.0
H6249 H 0.70889 0.48946 0.80226 0.0
H6250 H 0.72262 0.47453 0.8327 0.0
H6251 H 0.72386 0.45604 0.82309 0.0
C6252 C 0.69116 0.40647 0.80459 0.0
C6253 C 0.69433 0.40208 0.8153 0.0
C6254 C 0.69682 0.41596 0.79999 0.0
C6255 C 0.70576 0.4213 0.80599 0.0
C6256 C 0.70875 0.41719 0.81682 0.0
C6257 C 0.70313 0.40765 0.82141 0.0
C6258 C 0.71221 0.43095 0.80077 0.0
C6259 C 0.71237 0.44154 0.80618 0.0
C6260 C 0.71783 0.42981 0.79025 0.0
C6261 C 0.7184 0.41874 0.78434 0.0
C6262 C 0.72289 0.40919 0.7899 0.0
C6263 C 0.7233 0.39877 0.78431 0.0
C6264 C 0.71932 0.39782 0.77313 0.0
C6265 C 0.71496 0.40729 0.7675 0.0
C6266 C 0.71451 0.41773 0.77305 0.0
C6267 C 0.74562 0.47345 0.78609 0.0
C6268 C 0.74454 0.47546 0.77434 0.0
C6269 C 0.73857 0.46542 0.79151 0.0
C6270 C 0.73016 0.45939 0.78533 0.0
C6271 C 0.72874 0.46182 0.7737 0.0
C6272 C 0.73589 0.46972 0.76825 0.0
C6273 C 0.72349 0.44992 0.79072 0.0
C6274 C 0.72334 0.43929 0.78537 0.0
C6275 C 0.71783 0.45107 0.80124 0.0
C6276 C 0.71707 0.46217 0.80705 0.0
C6277 C 0.71279 0.4717 0.80126 0.0
C6278 C 0.71216 0.48215 0.80677 0.0
C6279 C 0.71572 0.48317 0.81808 0.0
C6280 C 0.71988 0.47373 0.82393 0.0
C6281 C 0.72054 0.46326 0.81846 0.0
H6282 H 0.71522 0.49127 0.82233 0.0
H6283 H 0.71965 0.38974 0.76881 0.0
H6284 H 0.60247 0.67954 0.81879 0.0
H6285 H 0.58627 0.69018 0.81141 0.0
H6286 H 0.60775 0.72004 0.80799 0.0
H6287 H 0.62398 0.70946 0.81539 0.0
H6288 H 0.58776 0.72564 0.81642 0.0
H6289 H 0.60015 0.70321 0.78492 0.0
H6290 H 0.60505 0.68557 0.77505 0.0
H6291 H 0.57112 0.67246 0.78019 0.0
H6292 H 0.56605 0.68998 0.79023 0.0
H6293 H 0.55856 0.75861 0.77599 0.0
H6294 H 0.57179 0.74652 0.78628 0.0
H6295 H 0.54555 0.72069 0.78971 0.0
H6296 H 0.53216 0.73283 0.77916 0.0
H6297 H 0.56618 0.71201 0.7826 0.0
H6298 H 0.55346 0.73569 0.81254 0.0
H6299 H 0.54884 0.75373 0.82182 0.0
H6300 H 0.58374 0.76486 0.81913 0.0
H6301 H 0.58854 0.74695 0.80968 0.0
C6302 C 0.60377 0.68836 0.81642 0.0
C6303 C 0.61457 0.69361 0.81764 0.0
C6304 C 0.59448 0.69444 0.8122 0.0
C6305 C 0.59578 0.7059 0.80899 0.0
C6306 C 0.6065 0.71123 0.81042 0.0
C6307 C 0.61578 0.70516 0.81468 0.0
C6308 C 0.58607 0.71234 0.80403 0.0
C6309 C 0.58312 0.72269 0.80897 0.0
C6310 C 0.57974 0.70837 0.79449 0.0
C6311 C 0.58276 0.69785 0.78844 0.0
C6312 C 0.59376 0.69653 0.78403 0.0
C6313 C 0.59656 0.68656 0.77839 0.0
C6314 C 0.58841 0.67788 0.77703 0.0
C6315 C 0.57743 0.67918 0.78127 0.0
C6316 C 0.57458 0.68913 0.78693 0.0
C6317 C 0.55557 0.75035 0.77891 0.0
C6318 C 0.54432 0.74663 0.77666 0.0
C6319 C 0.56314 0.74348 0.78489 0.0
C6320 C 0.55967 0.73272 0.78886 0.0
C6321 C 0.54841 0.72898 0.78674 0.0
C6322 C 0.54076 0.73592 0.78078 0.0
C6323 C 0.56802 0.72538 0.7949 0.0
C6324 C 0.57073 0.71487 0.79015 0.0
C6325 C 0.57417 0.72923 0.80458 0.0
C6326 C 0.57134 0.74 0.81033 0.0
C6327 C 0.56013 0.74201 0.81385 0.0
C6328 C 0.55749 0.75221 0.81915 0.0
C6329 C 0.56599 0.76044 0.82104 0.0
C6330 C 0.57716 0.75848 0.81765 0.0
C6331 C 0.57985 0.74829 0.81234 0.0
H6332 H 0.56393 0.76833 0.82515 0.0
H6333 H 0.5906 0.67017 0.77265 0.0
H6334 H 0.32975 0.61003 0.82076 0.0
H6335 H 0.32231 0.5935 0.8104 0.0
H6336 H 0.28833 0.60097 0.82148 0.0
H6337 H 0.29567 0.61751 0.83176 0.0
H6338 H 0.29232 0.57871 0.82358 0.0
H6339 H 0.29718 0.60724 0.79443 0.0
H6340 H 0.30781 0.62154 0.78317 0.0
H6341 H 0.33109 0.59606 0.77248 0.0
H6342 H 0.32068 0.58162 0.78381 0.0
H6343 H 0.25798 0.54839 0.78377 0.0
H6344 H 0.26784 0.562 0.79613 0.0
H6345 H 0.30012 0.5519 0.78254 0.0
H6346 H 0.29025 0.53849 0.76988 0.0
H6347 H 0.29848 0.57439 0.78218 0.0
H6348 H 0.29249 0.54546 0.81018 0.0
H6349 H 0.28157 0.53124 0.82128 0.0
H6350 H 0.26021 0.55743 0.83406 0.0
H6351 H 0.27091 0.57179 0.82292 0.0
C6352 C 0.32068 0.60822 0.82091 0.0
C6353 C 0.31332 0.61513 0.82711 0.0
C6354 C 0.31644 0.59874 0.81501 0.0
C6355 C 0.30474 0.59601 0.8151 0.0
C6356 C 0.29739 0.60285 0.82132 0.0
C6357 C 0.30162 0.61231 0.82723 0.0
C6358 C 0.30007 0.58608 0.80867 0.0
C6359 C 0.29358 0.57782 0.81451 0.0
C6360 C 0.30197 0.58472 0.79689 0.0
C6361 C 0.30823 0.59338 0.79007 0.0
C6362 C 0.30462 0.6047 0.78975 0.0
C6363 C 0.3106 0.61283 0.78334 0.0
C6364 C 0.32015 0.60972 0.77714 0.0
C6365 C 0.32371 0.59846 0.77731 0.0
C6366 C 0.31777 0.5903 0.78371 0.0
C6367 C 0.26719 0.54896 0.78352 0.0
C6368 C 0.27332 0.54236 0.77582 0.0
C6369 C 0.27284 0.5567 0.79065 0.0
C6370 C 0.28475 0.55797 0.79033 0.0
C6371 C 0.29093 0.55108 0.78296 0.0
C6372 C 0.28528 0.54332 0.77581 0.0
C6373 C 0.29061 0.56705 0.79706 0.0
C6374 C 0.29732 0.57519 0.79128 0.0
C6375 C 0.28889 0.5683 0.80889 0.0
C6376 C 0.28245 0.55969 0.81564 0.0
C6377 C 0.28541 0.54818 0.81529 0.0
C6378 C 0.27927 0.54009 0.8216 0.0
C6379 C 0.27019 0.54343 0.82835 0.0
C6380 C 0.26725 0.55486 0.82883 0.0
C6381 C 0.27335 0.56298 0.82252 0.0
H6382 H 0.26544 0.53716 0.83324 0.0
H6383 H 0.32476 0.61603 0.77218 0.0
H6384 H 0.41198 0.30924 0.8398 0.0
H6385 H 0.42808 0.30186 0.82931 0.0
H6386 H 0.4133 0.3139 0.79789 0.0
H6387 H 0.39691 0.32093 0.8083 0.0
H6388 H 0.42057 0.29295 0.79538 0.0
H6389 H 0.43678 0.32725 0.81036 0.0
H6390 H 0.4419 0.34122 0.82514 0.0
H6391 H 0.46207 0.31634 0.84247 0.0
H6392 H 0.45694 0.30217 0.82787 0.0
H6393 H 0.46796 0.28179 0.76155 0.0
H6394 H 0.4544 0.29318 0.77204 0.0
H6395 H 0.46639 0.27866 0.80358 0.0
H6396 H 0.47998 0.26719 0.7931 0.0
H6397 H 0.46086 0.3016 0.80565 0.0
H6398 H 0.44388 0.26718 0.79095 0.0
H6399 H 0.43908 0.25341 0.77589 0.0
H6400 H 0.42033 0.27889 0.75783 0.0
H6401 H 0.4252 0.29288 0.7727 0.0
C6402 C 0.4121 0.31028 0.83065 0.0
C6403 C 0.40308 0.31567 0.82491 0.0
C6404 C 0.42141 0.30617 0.82466 0.0
C6405 C 0.42201 0.30742 0.8128 0.0
C6406 C 0.41307 0.31286 0.80704 0.0
C6407 C 0.40374 0.31697 0.81303 0.0
C6408 C 0.43174 0.30266 0.80637 0.0
C6409 C 0.42936 0.29502 0.79752 0.0
C6410 C 0.44326 0.30511 0.80929 0.0
C6411 C 0.44639 0.31362 0.81807 0.0
C6412 C 0.44223 0.32473 0.81737 0.0
C6413 C 0.44515 0.33269 0.82571 0.0
C6414 C 0.45228 0.32966 0.83475 0.0
C6415 C 0.45654 0.31867 0.83546 0.0
C6416 C 0.45364 0.31068 0.82715 0.0
C6417 C 0.46786 0.28118 0.77074 0.0
C6418 C 0.47497 0.27349 0.77648 0.0
C6419 C 0.46009 0.28768 0.77672 0.0
C6420 C 0.45921 0.28661 0.78858 0.0
C6421 C 0.46689 0.27961 0.79443 0.0
C6422 C 0.47469 0.27309 0.78843 0.0
C6423 C 0.44964 0.29196 0.79469 0.0
C6424 C 0.45205 0.29964 0.80349 0.0
C6425 C 0.43813 0.28957 0.79172 0.0
C6426 C 0.435 0.28111 0.78288 0.0
C6427 C 0.4388 0.26987 0.78373 0.0
C6428 C 0.43606 0.26202 0.77523 0.0
C6429 C 0.42943 0.26528 0.76589 0.0
C6430 C 0.42548 0.27638 0.76506 0.0
C6431 C 0.42823 0.28428 0.77352 0.0
H6432 H 0.42732 0.25919 0.75932 0.0
H6433 H 0.45453 0.33584 0.8412 0.0
H6434 H 0.34122 0.4135 0.20898 0.0
H6435 H 0.33109 0.42963 0.2167 0.0
H6436 H 0.29912 0.41485 0.20549 0.0
H6437 H 0.30919 0.39858 0.19783 0.0
H6438 H 0.3 0.43783 0.20158 0.0
H6439 H 0.30728 0.41253 0.23293 0.0
H6440 H 0.31915 0.40077 0.24557 0.0
H6441 H 0.33889 0.43023 0.25516 0.0
H6442 H 0.32723 0.44215 0.24244 0.0
H6443 H 0.26186 0.46657 0.23782 0.0
H6444 H 0.27322 0.45365 0.22661 0.0
H6445 H 0.30401 0.46838 0.24084 0.0
H6446 H 0.29263 0.48106 0.25242 0.0
H6447 H 0.3045 0.44618 0.24266 0.0
H6448 H 0.29633 0.47182 0.21219 0.0
H6449 H 0.28433 0.48352 0.19961 0.0
H6450 H 0.26618 0.45364 0.18837 0.0
H6451 H 0.27796 0.44178 0.20101 0.0
C6452 C 0.33202 0.41362 0.20819 0.0
C6453 C 0.32603 0.40463 0.20288 0.0
C6454 C 0.32624 0.42289 0.21258 0.0
C6455 C 0.31432 0.4234 0.21182 0.0
C6456 C 0.30832 0.41466 0.20618 0.0
C6457 C 0.3141 0.40536 0.20178 0.0
C6458 C 0.30811 0.43285 0.21726 0.0
C6459 C 0.30089 0.4396 0.21058 0.0
C6460 C 0.30947 0.43535 0.22896 0.0
C6461 C 0.31646 0.42821 0.23664 0.0
C6462 C 0.31421 0.41648 0.23766 0.0
C6463 C 0.32089 0.40979 0.24486 0.0
C6464 C 0.32979 0.41474 0.25114 0.0
C6465 C 0.33201 0.42641 0.25027 0.0
C6466 C 0.32536 0.43314 0.24308 0.0
C6467 C 0.27106 0.46717 0.23844 0.0
C6468 C 0.27632 0.47483 0.24608 0.0
C6469 C 0.27757 0.45982 0.23195 0.0
C6470 C 0.28951 0.46002 0.23281 0.0
C6471 C 0.29481 0.46804 0.24001 0.0
C6472 C 0.28829 0.47539 0.24655 0.0
C6473 C 0.29635 0.45124 0.22699 0.0
C6474 C 0.30367 0.44454 0.23362 0.0
C6475 C 0.29507 0.44881 0.21526 0.0
C6476 C 0.28797 0.45592 0.20763 0.0
C6477 C 0.28972 0.46775 0.20711 0.0
C6478 C 0.28297 0.47441 0.19995 0.0
C6479 C 0.27448 0.46933 0.19321 0.0
C6480 C 0.27275 0.45757 0.1936 0.0
C6481 C 0.27947 0.45087 0.20075 0.0
H6482 H 0.26927 0.4745 0.18768 0.0
H6483 H 0.33495 0.40955 0.25671 0.0
H6484 H 0.60864 0.33087 0.20094 0.0
H6485 H 0.59189 0.32346 0.21101 0.0
H6486 H 0.59823 0.28998 0.19813 0.0
H6487 H 0.61498 0.29729 0.18812 0.0
H6488 H 0.57599 0.29463 0.19658 0.0
H6489 H 0.60519 0.29729 0.22548 0.0
H6490 H 0.62001 0.30692 0.23704 0.0
H6491 H 0.5953 0.33027 0.24929 0.0
H6492 H 0.58035 0.32085 0.23768 0.0
H6493 H 0.54667 0.2588 0.23583 0.0
H6494 H 0.55961 0.26919 0.22317 0.0
H6495 H 0.54991 0.30075 0.23846 0.0
H6496 H 0.5371 0.29033 0.25132 0.0
H6497 H 0.57255 0.29881 0.23833 0.0
H6498 H 0.54286 0.29467 0.21072 0.0
H6499 H 0.52818 0.2846 0.19938 0.0
H6500 H 0.55379 0.26367 0.18482 0.0
H6501 H 0.56862 0.27351 0.1962 0.0
C6502 C 0.60652 0.32191 0.20032 0.0
C6503 C 0.61319 0.31469 0.19371 0.0
C6504 C 0.59692 0.31769 0.20606 0.0
C6505 C 0.59381 0.30613 0.20539 0.0
C6506 C 0.60039 0.29893 0.19873 0.0
C6507 C 0.60998 0.30314 0.19298 0.0
C6508 C 0.58382 0.30145 0.21173 0.0
C6509 C 0.57528 0.29547 0.20572 0.0
C6510 C 0.58271 0.30279 0.22363 0.0
C6511 C 0.59168 0.30845 0.23061 0.0
C6512 C 0.60294 0.30454 0.23056 0.0
C6513 C 0.61136 0.30994 0.23714 0.0
C6514 C 0.60861 0.31922 0.24387 0.0
C6515 C 0.59742 0.32309 0.24406 0.0
C6516 C 0.58897 0.31772 0.23748 0.0
C6517 C 0.54711 0.26798 0.23632 0.0
C6518 C 0.54086 0.27374 0.24458 0.0
C6519 C 0.55449 0.27393 0.22905 0.0
C6520 C 0.55575 0.28578 0.22983 0.0
C6521 C 0.54909 0.29161 0.23769 0.0
C6522 C 0.54167 0.28566 0.24495 0.0
C6523 C 0.56475 0.29187 0.2232 0.0
C6524 C 0.57315 0.2981 0.22916 0.0
C6525 C 0.56574 0.29071 0.21127 0.0
C6526 C 0.55685 0.28478 0.20439 0.0
C6527 C 0.54536 0.28786 0.20517 0.0
C6528 C 0.53701 0.2822 0.19872 0.0
C6529 C 0.54005 0.27348 0.1914 0.0
C6530 C 0.55145 0.27042 0.1905 0.0
C6531 C 0.55983 0.27605 0.19694 0.0
H6532 H 0.53357 0.26911 0.18641 0.0
H6533 H 0.61514 0.3234 0.24895 0.0
H6534 H 0.40068 0.72096 0.18735 0.0
H6535 H 0.41752 0.72846 0.19717 0.0
H6536 H 0.42123 0.69659 0.21497 0.0
H6537 H 0.40401 0.68921 0.20562 0.0
H6538 H 0.42452 0.71328 0.22918 0.0
H6539 H 0.43889 0.70476 0.19241 0.0
H6540 H 0.43952 0.70507 0.17146 0.0
H6541 H 0.44375 0.74134 0.17171 0.0
H6542 H 0.44298 0.74127 0.19267 0.0
H6543 H 0.47883 0.72744 0.2517 0.0
H6544 H 0.46475 0.71781 0.23952 0.0
H6545 H 0.45642 0.74981 0.2238 0.0
H6546 H 0.47062 0.75947 0.23584 0.0
H6547 H 0.45633 0.732 0.20832 0.0
H6548 H 0.44096 0.74015 0.24536 0.0
H6549 H 0.44073 0.73938 0.26632 0.0
H6550 H 0.43876 0.70298 0.26538 0.0
H6551 H 0.4392 0.70351 0.24441 0.0
C6552 C 0.40498 0.71556 0.19344 0.0
C6553 C 0.40092 0.70446 0.19568 0.0
C6554 C 0.41474 0.71982 0.19895 0.0
C6555 C 0.4208 0.71305 0.2067 0.0
C6556 C 0.41676 0.70198 0.20898 0.0
C6557 C 0.40695 0.69773 0.20354 0.0
C6558 C 0.43113 0.71764 0.21265 0.0
C6559 C 0.43155 0.71719 0.22458 0.0
C6560 C 0.44027 0.72293 0.20671 0.0
C6561 C 0.44078 0.72301 0.19411 0.0
C6562 C 0.43987 0.71281 0.18799 0.0
C6563 C 0.44026 0.71294 0.17612 0.0
C6564 C 0.44165 0.72322 0.17026 0.0
C6565 C 0.44267 0.73339 0.17627 0.0
C6566 C 0.44226 0.7333 0.18814 0.0
C6567 C 0.47425 0.73238 0.24541 0.0
C6568 C 0.47581 0.74423 0.24476 0.0
C6569 C 0.46612 0.72688 0.23854 0.0
C6570 C 0.4594 0.73312 0.23088 0.0
C6571 C 0.46147 0.74483 0.22968 0.0
C6572 C 0.46956 0.75034 0.23658 0.0
C6573 C 0.44965 0.72764 0.22478 0.0
C6574 C 0.44932 0.72798 0.21286 0.0
C6575 C 0.44063 0.72217 0.23072 0.0
C6576 C 0.44024 0.72187 0.24332 0.0
C6577 C 0.44057 0.73198 0.24962 0.0
C6578 C 0.44039 0.73159 0.2615 0.0
C6579 C 0.43975 0.72114 0.26717 0.0
C6580 C 0.43927 0.71106 0.26098 0.0
C6581 C 0.43949 0.7114 0.2491 0.0
H6582 H 0.43961 0.72086 0.27637 0.0
H6583 H 0.44195 0.7233 0.16107 0.0
loop_
_geom_bond_atom_site_label_1
_geom_bond_atom_site_label_2
_geom_bond_distance
_geom_bond_site_symmetry_2
_ccdc_geom_bond_type
C0 C1 1.264 . S
C0 C5 1.479 . S
C0 C10 1.465 . S
C1 C0 1.264 . S
C1 C3 1.339 . S
C1 H28 0.931 . S
C2 C3 1.395 . S
C2 C4 1.320 . S
C3 C1 1.339 . S
C3 C2 1.395 . S
C3 H29 0.929 . S
C4 C2 1.320 . S
C4 C5 1.405 . S
C4 H30 0.930 . S
C5 C0 1.479 . S
C5 C4 1.405 . S
C5 H31 0.931 . S
U6 O7 2.454 . S
U6 O8 2.458 . S
U6 C9 2.984 . S
U6 C10 2.847 . S
U6 C23 2.882 . S
U6 O24 2.441 . S
U6 O25 2.420 . S
U6 O26 2.455 . S
U6 O27 2.449 . S
O7 U6 2.454 . S
O7 C9 1.353 . S
O8 U6 2.458 . S
O8 C9 1.286 . S
C9 U6 2.984 . S
C9 O7 1.353 . S
C9 O8 1.286 . S
C9 C11 1.363 . S
C10 C0 1.465 . S
C10 U6 2.847 . S
C10 O24 1.249 . S
C10 O25 1.202 . S
C11 C9 1.363 . S
C11 C13 1.408 . S
C11 C16 1.342 . S
C12 C13 1.310 . S
C12 C15 1.461 . S
C12 H32 0.932 . S
C13 C11 1.408 . S
C13 C12 1.310 . S
C13 H33 0.930 . S
C14 C15 1.474 . S
C14 C16 1.285 . S
C14 H34 0.929 . S
C15 C12 1.461 . S
C15 C14 1.474 . S
C16 C11 1.342 . S
C16 C14 1.285 . S
C16 H35 0.930 . S
C17 C20 1.424 . S
C17 C22 1.245 . S
C17 C23 1.428 . S
C18 C21 1.260 . S
C18 C22 1.477 . S
C18 H36 0.932 . S
C19 C20 1.384 . S
C19 C21 1.479 . S
C19 H37 0.929 . S
C20 C17 1.424 . S
C20 C19 1.384 . S
C20 H38 0.928 . S
C21 C18 1.260 . S
C21 C19 1.479 . S
C22 C17 1.245 . S
C22 C18 1.477 . S
C22 H39 0.932 . S
C23 U6 2.882 . S
C23 C17 1.428 . S
C23 O26 1.301 . S
C23 O27 1.282 . S
O24 U6 2.441 . S
O24 C10 1.249 . S
O25 U6 2.420 . S
O25 C10 1.202 . S
O26 U6 2.455 . S
O26 C23 1.301 . S
O27 U6 2.449 . S
O27 C23 1.282 . S
H28 C1 0.931 . S
H29 C3 0.929 . S
H30 C4 0.930 . S
H31 C5 0.931 . S
H32 C12 0.932 . S
H33 C13 0.930 . S
H34 C14 0.929 . S
H35 C16 0.930 . S
H36 C18 0.932 . S
H37 C19 0.929 . S
H38 C20 0.928 . S
H39 C22 0.932 . S
C40 C41 1.264 . S
C40 C45 1.479 . S
C40 C50 1.465 . S
C41 C40 1.264 . S
C41 C43 1.339 . S
C41 H68 0.931 . S
C42 C43 1.395 . S
C42 C44 1.320 . S
C43 C41 1.339 . S
C43 C42 1.395 . S
C43 H69 0.929 . S
C44 C42 1.320 . S
C44 C45 1.405 . S
C44 H70 0.930 . S
C45 C40 1.479 . S
C45 C44 1.405 . S
C45 H71 0.931 . S
U46 O47 2.454 . S
U46 O48 2.458 . S
U46 C49 2.984 . S
U46 C50 2.847 . S
U46 C63 2.882 . S
U46 O64 2.441 . S
U46 O65 2.420 . S
U46 O66 2.455 . S
U46 O67 2.449 . S
O47 U46 2.454 . S
O47 C49 1.353 . S
O48 U46 2.458 . S
O48 C49 1.286 . S
C49 U46 2.984 . S
C49 O47 1.353 . S
C49 O48 1.286 . S
C49 C51 1.363 . S
C50 C40 1.465 . S
C50 U46 2.847 . S
C50 O64 1.249 . S
C50 O65 1.202 . S
C51 C49 1.363 . S
C51 C53 1.408 . S
C51 C56 1.342 . S
C52 C53 1.310 . S
C52 C55 1.461 . S
C52 H72 0.932 . S
C53 C51 1.408 . S
C53 C52 1.310 . S
C53 H73 0.930 . S
C54 C55 1.474 . S
C54 C56 1.285 . S
C54 H74 0.929 . S
C55 C52 1.461 . S
C55 C54 1.474 . S
C56 C51 1.342 . S
C56 C54 1.285 . S
C56 H75 0.930 . S
C57 C60 1.424 . S
C57 C62 1.245 . S
C57 C63 1.428 . S
C58 C61 1.260 . S
C58 C62 1.477 . S
C58 H76 0.932 . S
C59 C60 1.384 . S
C59 C61 1.479 . S
C59 H77 0.929 . S
C60 C57 1.424 . S
C60 C59 1.384 . S
C60 H78 0.928 . S
C61 C58 1.260 . S
C61 C59 1.479 . S
C62 C57 1.245 . S
C62 C58 1.477 . S
C62 H79 0.932 . S
C63 U46 2.882 . S
C63 C57 1.428 . S
C63 O66 1.301 . S
C63 O67 1.282 . S
O64 U46 2.441 . S
O64 C50 1.249 . S
O65 U46 2.420 . S
O65 C50 1.202 . S
O66 U46 2.455 . S
O66 C63 1.301 . S
O67 U46 2.449 . S
O67 C63 1.282 . S
H68 C41 0.931 . S
H69 C43 0.929 . S
H70 C44 0.930 . S
H71 C45 0.931 . S
H72 C52 0.932 . S
H73 C53 0.930 . S
H74 C54 0.929 . S
H75 C56 0.930 . S
H76 C58 0.932 . S
H77 C59 0.929 . S
H78 C60 0.928 . S
H79 C62 0.932 . S
C80 C81 1.264 . S
C80 C85 1.479 . S
C80 C90 1.465 . S
C81 C80 1.264 . S
C81 C83 1.339 . S
C81 H108 0.931 . S
C82 C83 1.395 . S
C82 C84 1.320 . S
C83 C81 1.339 . S
C83 C82 1.395 . S
C83 H109 0.929 . S
C84 C82 1.320 . S
C84 C85 1.405 . S
C84 H110 0.930 . S
C85 C80 1.479 . S
C85 C84 1.405 . S
C85 H111 0.931 . S
U86 O87 2.454 . S
U86 O88 2.458 . S
U86 C89 2.984 . S
U86 C90 2.847 . S
U86 C103 2.882 . S
U86 O104 2.441 . S
U86 O105 2.420 . S
U86 O106 2.455 . S
U86 O107 2.449 . S
O87 U86 2.454 . S
O87 C89 1.353 . S
O88 U86 2.458 . S
O88 C89 1.286 . S
C89 U86 2.984 . S
C89 O87 1.353 . S
C89 O88 1.286 . S
C89 C91 1.363 . S
C90 C80 1.465 . S
C90 U86 2.847 . S
C90 O104 1.249 . S
C90 O105 1.202 . S
C91 C89 1.363 . S
C91 C93 1.408 . S
C91 C96 1.342 . S
C92 C93 1.310 . S
C92 C95 1.461 . S
C92 H112 0.932 . S
C93 C91 1.408 . S
C93 C92 1.310 . S
C93 H113 0.930 . S
C94 C95 1.474 . S
C94 C96 1.285 . S
C94 H114 0.929 . S
C95 C92 1.461 . S
C95 C94 1.474 . S
C96 C91 1.342 . S
C96 C94 1.285 . S
C96 H115 0.930 . S
C97 C100 1.424 . S
C97 C102 1.245 . S
C97 C103 1.428 . S
C98 C101 1.260 . S
C98 C102 1.477 . S
C98 H116 0.932 . S
C99 C100 1.384 . S
C99 C101 1.479 . S
C99 H117 0.929 . S
C100 C97 1.424 . S
C100 C99 1.384 . S
C100 H118 0.928 . S
C101 C98 1.260 . S
C101 C99 1.479 . S
C102 C97 1.245 . S
C102 C98 1.477 . S
C102 H119 0.932 . S
C103 U86 2.882 . S
C103 C97 1.428 . S
C103 O106 1.301 . S
C103 O107 1.282 . S
O104 U86 2.441 . S
O104 C90 1.249 . S
O105 U86 2.420 . S
O105 C90 1.202 . S
O106 U86 2.455 . S
O106 C103 1.301 . S
O107 U86 2.449 . S
O107 C103 1.282 . S
H108 C81 0.931 . S
H109 C83 0.929 . S
H110 C84 0.930 . S
H111 C85 0.931 . S
H112 C92 0.932 . S
H113 C93 0.930 . S
H114 C94 0.929 . S
H115 C96 0.930 . S
H116 C98 0.932 . S
H117 C99 0.929 . S
H118 C100 0.928 . S
H119 C102 0.932 . S
C120 C121 1.264 . S
C120 C125 1.479 . S
C120 C130 1.465 . S
C121 C120 1.264 . S
C121 C123 1.339 . S
C121 H148 0.931 . S
C122 C123 1.395 . S
C122 C124 1.320 . S
C123 C121 1.339 . S
C123 C122 1.395 . S
C123 H149 0.929 . S
C124 C122 1.320 . S
C124 C125 1.405 . S
C124 H150 0.930 . S
C125 C120 1.479 . S
C125 C124 1.405 . S
C125 H151 0.931 . S
U126 O127 2.454 . S
U126 O128 2.458 . S
U126 C129 2.984 . S
U126 C130 2.847 . S
U126 C143 2.882 . S
U126 O144 2.441 . S
U126 O145 2.420 . S
U126 O146 2.455 . S
U126 O147 2.449 . S
O127 U126 2.454 . S
O127 C129 1.353 . S
O128 U126 2.458 . S
O128 C129 1.286 . S
C129 U126 2.984 . S
C129 O127 1.353 . S
C129 O128 1.286 . S
C129 C131 1.363 . S
C130 C120 1.465 . S
C130 U126 2.847 . S
C130 O144 1.249 . S
C130 O145 1.202 . S
C131 C129 1.363 . S
C131 C133 1.408 . S
C131 C136 1.342 . S
C132 C133 1.310 . S
C132 C135 1.461 . S
C132 H152 0.932 . S
C133 C131 1.408 . S
C133 C132 1.310 . S
C133 H153 0.930 . S
C134 C135 1.474 . S
C134 C136 1.285 . S
C134 H154 0.929 . S
C135 C132 1.461 . S
C135 C134 1.474 . S
C136 C131 1.342 . S
C136 C134 1.285 . S
C136 H155 0.930 . S
C137 C140 1.424 . S
C137 C142 1.245 . S
C137 C143 1.428 . S
C138 C141 1.260 . S
C138 C142 1.477 . S
C138 H156 0.932 . S
C139 C140 1.384 . S
C139 C141 1.479 . S
C139 H157 0.929 . S
C140 C137 1.424 . S
C140 C139 1.384 . S
C140 H158 0.928 . S
C141 C138 1.260 . S
C141 C139 1.479 . S
C142 C137 1.245 . S
C142 C138 1.477 . S
C142 H159 0.932 . S
C143 U126 2.882 . S
C143 C137 1.428 . S
C143 O146 1.301 . S
C143 O147 1.282 . S
O144 U126 2.441 . S
O144 C130 1.249 . S
O145 U126 2.420 . S
O145 C130 1.202 . S
O146 U126 2.455 . S
O146 C143 1.301 . S
O147 U126 2.449 . S
O147 C143 1.282 . S
H148 C121 0.931 . S
H149 C123 0.929 . S
H150 C124 0.930 . S
H151 C125 0.931 . S
H152 C132 0.932 . S
H153 C133 0.930 . S
H154 C134 0.929 . S
H155 C136 0.930 . S
H156 C138 0.932 . S
H157 C139 0.929 . S
H158 C140 0.928 . S
H159 C142 0.932 . S
C160 C161 1.264 . S
C160 C165 1.479 . S
C160 C170 1.465 . S
C161 C160 1.264 . S
C161 C163 1.339 . S
C161 H188 0.931 . S
C162 C163 1.395 . S
C162 C164 1.320 . S
C163 C161 1.339 . S
C163 C162 1.395 . S
C163 H189 0.929 . S
C164 C162 1.320 . S
C164 C165 1.405 . S
C164 H190 0.930 . S
C165 C160 1.479 . S
C165 C164 1.405 . S
C165 H191 0.931 . S
U166 O167 2.454 . S
U166 O168 2.458 . S
U166 C169 2.984 . S
U166 C170 2.847 . S
U166 C183 2.882 . S
U166 O184 2.441 . S
U166 O185 2.420 . S
U166 O186 2.455 . S
U166 O187 2.449 . S
O167 U166 2.454 . S
O167 C169 1.353 . S
O168 U166 2.458 . S
O168 C169 1.286 . S
C169 U166 2.984 . S
C169 O167 1.353 . S
C169 O168 1.286 . S
C169 C171 1.363 . S
C170 C160 1.465 . S
C170 U166 2.847 . S
C170 O184 1.249 . S
C170 O185 1.202 . S
C171 C169 1.363 . S
C171 C173 1.408 . S
C171 C176 1.342 . S
C172 C173 1.310 . S
C172 C175 1.461 . S
C172 H192 0.932 . S
C173 C171 1.408 . S
C173 C172 1.310 . S
C173 H193 0.930 . S
C174 C175 1.474 . S
C174 C176 1.285 . S
C174 H194 0.929 . S
C175 C172 1.461 . S
C175 C174 1.474 . S
C176 C171 1.342 . S
C176 C174 1.285 . S
C176 H195 0.930 . S
C177 C180 1.424 . S
C177 C182 1.245 . S
C177 C183 1.428 . S
C178 C181 1.260 . S
C178 C182 1.477 . S
C178 H196 0.932 . S
C179 C180 1.384 . S
C179 C181 1.479 . S
C179 H197 0.929 . S
C180 C177 1.424 . S
C180 C179 1.384 . S
C180 H198 0.928 . S
C181 C178 1.260 . S
C181 C179 1.479 . S
C182 C177 1.245 . S
C182 C178 1.477 . S
C182 H199 0.932 . S
C183 U166 2.882 . S
C183 C177 1.428 . S
C183 O186 1.301 . S
C183 O187 1.282 . S
O184 U166 2.441 . S
O184 C170 1.249 . S
O185 U166 2.420 . S
O185 C170 1.202 . S
O186 U166 2.455 . S
O186 C183 1.301 . S
O187 U166 2.449 . S
O187 C183 1.282 . S
H188 C161 0.931 . S
H189 C163 0.929 . S
H190 C164 0.930 . S
H191 C165 0.931 . S
H192 C172 0.932 . S
H193 C173 0.930 . S
H194 C174 0.929 . S
H195 C176 0.930 . S
H196 C178 0.932 . S
H197 C179 0.929 . S
H198 C180 0.928 . S
H199 C182 0.932 . S
C200 C201 1.264 . S
C200 C205 1.479 . S
C200 C210 1.465 . S
C201 C200 1.264 . S
C201 C203 1.339 . S
C201 H228 0.931 . S
C202 C203 1.395 . S
C202 C204 1.320 . S
C203 C201 1.339 . S
C203 C202 1.395 . S
C203 H229 0.929 . S
C204 C202 1.320 . S
C204 C205 1.405 . S
C204 H230 0.930 . S
C205 C200 1.479 . S
C205 C204 1.405 . S
C205 H231 0.931 . S
U206 O207 2.454 . S
U206 O208 2.458 . S
U206 C209 2.984 . S
U206 C210 2.847 . S
U206 C223 2.882 . S
U206 O224 2.441 . S
U206 O225 2.420 . S
U206 O226 2.455 . S
U206 O227 2.449 . S
O207 U206 2.454 . S
O207 C209 1.353 . S
O208 U206 2.458 . S
O208 C209 1.286 . S
C209 U206 2.984 . S
C209 O207 1.353 . S
C209 O208 1.286 . S
C209 C211 1.363 . S
C210 C200 1.465 . S
C210 U206 2.847 . S
C210 O224 1.249 . S
C210 O225 1.202 . S
C211 C209 1.363 . S
C211 C213 1.408 . S
C211 C216 1.342 . S
C212 C213 1.310 . S
C212 C215 1.461 . S
C212 H232 0.932 . S
C213 C211 1.408 . S
C213 C212 1.310 . S
C213 H233 0.930 . S
C214 C215 1.474 . S
C214 C216 1.285 . S
C214 H234 0.929 . S
C215 C212 1.461 . S
C215 C214 1.474 . S
C216 C211 1.342 . S
C216 C214 1.285 . S
C216 H235 0.930 . S
C217 C220 1.424 . S
C217 C222 1.245 . S
C217 C223 1.428 . S
C218 C221 1.260 . S
C218 C222 1.477 . S
C218 H236 0.932 . S
C219 C220 1.384 . S
C219 C221 1.479 . S
C219 H237 0.929 . S
C220 C217 1.424 . S
C220 C219 1.384 . S
C220 H238 0.928 . S
C221 C218 1.260 . S
C221 C219 1.479 . S
C222 C217 1.245 . S
C222 C218 1.477 . S
C222 H239 0.932 . S
C223 U206 2.882 . S
C223 C217 1.428 . S
C223 O226 1.301 . S
C223 O227 1.282 . S
O224 U206 2.441 . S
O224 C210 1.249 . S
O225 U206 2.420 . S
O225 C210 1.202 . S
O226 U206 2.455 . S
O226 C223 1.301 . S
O227 U206 2.449 . S
O227 C223 1.282 . S
H228 C201 0.931 . S
H229 C203 0.929 . S
H230 C204 0.930 . S
H231 C205 0.931 . S
H232 C212 0.932 . S
H233 C213 0.930 . S
H234 C214 0.929 . S
H235 C216 0.930 . S
H236 C218 0.932 . S
H237 C219 0.929 . S
H238 C220 0.928 . S
H239 C222 0.932 . S
C240 C241 1.264 . S
C240 C245 1.479 . S
C240 C250 1.465 . S
C241 C240 1.264 . S
C241 C243 1.339 . S
C241 H268 0.931 . S
C242 C243 1.395 . S
C242 C244 1.320 . S
C243 C241 1.339 . S
C243 C242 1.395 . S
C243 H269 0.929 . S
C244 C242 1.320 . S
C244 C245 1.405 . S
C244 H270 0.930 . S
C245 C240 1.479 . S
C245 C244 1.405 . S
C245 H271 0.931 . S
U246 O247 2.454 . S
U246 O248 2.458 . S
U246 C249 2.984 . S
U246 C250 2.847 . S
U246 C263 2.882 . S
U246 O264 2.441 . S
U246 O265 2.420 . S
U246 O266 2.455 . S
U246 O267 2.449 . S
O247 U246 2.454 . S
O247 C249 1.353 . S
O248 U246 2.458 . S
O248 C249 1.286 . S
C249 U246 2.984 . S
C249 O247 1.353 . S
C249 O248 1.286 . S
C249 C251 1.363 . S
C250 C240 1.465 . S
C250 U246 2.847 . S
C250 O264 1.249 . S
C250 O265 1.202 . S
C251 C249 1.363 . S
C251 C253 1.408 . S
C251 C256 1.342 . S
C252 C253 1.310 . S
C252 C255 1.461 . S
C252 H272 0.932 . S
C253 C251 1.408 . S
C253 C252 1.310 . S
C253 H273 0.930 . S
C254 C255 1.474 . S
C254 C256 1.285 . S
C254 H274 0.929 . S
C255 C252 1.461 . S
C255 C254 1.474 . S
C256 C251 1.342 . S
C256 C254 1.285 . S
C256 H275 0.930 . S
C257 C260 1.424 . S
C257 C262 1.245 . S
C257 C263 1.428 . S
C258 C261 1.260 . S
C258 C262 1.477 . S
C258 H276 0.932 . S
C259 C260 1.384 . S
C259 C261 1.479 . S
C259 H277 0.929 . S
C260 C257 1.424 . S
C260 C259 1.384 . S
C260 H278 0.928 . S
C261 C258 1.260 . S
C261 C259 1.479 . S
C262 C257 1.245 . S
C262 C258 1.477 . S
C262 H279 0.932 . S
C263 U246 2.882 . S
C263 C257 1.428 . S
C263 O266 1.301 . S
C263 O267 1.282 . S
O264 U246 2.441 . S
O264 C250 1.249 . S
O265 U246 2.420 . S
O265 C250 1.202 . S
O266 U246 2.455 . S
O266 C263 1.301 . S
O267 U246 2.449 . S
O267 C263 1.282 . S
H268 C241 0.931 . S
H269 C243 0.929 . S
H270 C244 0.930 . S
H271 C245 0.931 . S
H272 C252 0.932 . S
H273 C253 0.930 . S
H274 C254 0.929 . S
H275 C256 0.930 . S
H276 C258 0.932 . S
H277 C259 0.929 . S
H278 C260 0.928 . S
H279 C262 0.932 . S
C280 C281 1.264 . S
C280 C285 1.479 . S
C280 C290 1.465 . S
C281 C280 1.264 . S
C281 C283 1.339 . S
C281 H308 0.931 . S
C282 C283 1.395 . S
C282 C284 1.320 . S
C283 C281 1.339 . S
C283 C282 1.395 . S
C283 H309 0.929 . S
C284 C282 1.320 . S
C284 C285 1.405 . S
C284 H310 0.930 . S
C285 C280 1.479 . S
C285 C284 1.405 . S
C285 H311 0.931 . S
U286 O287 2.454 . S
U286 O288 2.458 . S
U286 C289 2.984 . S
U286 C290 2.847 . S
U286 C303 2.882 . S
U286 O304 2.441 . S
U286 O305 2.420 . S
U286 O306 2.455 . S
U286 O307 2.449 . S
O287 U286 2.454 . S
O287 C289 1.353 . S
O288 U286 2.458 . S
O288 C289 1.286 . S
C289 U286 2.984 . S
C289 O287 1.353 . S
C289 O288 1.286 . S
C289 C291 1.363 . S
C290 C280 1.465 . S
C290 U286 2.847 . S
C290 O304 1.249 . S
C290 O305 1.202 . S
C291 C289 1.363 . S
C291 C293 1.408 . S
C291 C296 1.342 . S
C292 C293 1.310 . S
C292 C295 1.461 . S
C292 H312 0.932 . S
C293 C291 1.408 . S
C293 C292 1.310 . S
C293 H313 0.930 . S
C294 C295 1.474 . S
C294 C296 1.285 . S
C294 H314 0.929 . S
C295 C292 1.461 . S
C295 C294 1.474 . S
C296 C291 1.342 . S
C296 C294 1.285 . S
C296 H315 0.930 . S
C297 C300 1.424 . S
C297 C302 1.245 . S
C297 C303 1.428 . S
C298 C301 1.260 . S
C298 C302 1.477 . S
C298 H316 0.932 . S
C299 C300 1.384 . S
C299 C301 1.479 . S
C299 H317 0.929 . S
C300 C297 1.424 . S
C300 C299 1.384 . S
C300 H318 0.928 . S
C301 C298 1.260 . S
C301 C299 1.479 . S
C302 C297 1.245 . S
C302 C298 1.477 . S
C302 H319 0.932 . S
C303 U286 2.882 . S
C303 C297 1.428 . S
C303 O306 1.301 . S
C303 O307 1.282 . S
O304 U286 2.441 . S
O304 C290 1.249 . S
O305 U286 2.420 . S
O305 C290 1.202 . S
O306 U286 2.455 . S
O306 C303 1.301 . S
O307 U286 2.449 . S
O307 C303 1.282 . S
H308 C281 0.931 . S
H309 C283 0.929 . S
H310 C284 0.930 . S
H311 C285 0.931 . S
H312 C292 0.932 . S
H313 C293 0.930 . S
H314 C294 0.929 . S
H315 C296 0.930 . S
H316 C298 0.932 . S
H317 C299 0.929 . S
H318 C300 0.928 . S
H319 C302 0.932 . S
C320 C321 1.264 . S
C320 C325 1.479 . S
C320 C330 1.465 . S
C321 C320 1.264 . S
C321 C323 1.339 . S
C321 H348 0.931 . S
C322 C323 1.395 . S
C322 C324 1.320 . S
C323 C321 1.339 . S
C323 C322 1.395 . S
C323 H349 0.929 . S
C324 C322 1.320 . S
C324 C325 1.405 . S
C324 H350 0.930 . S
C325 C320 1.479 . S
C325 C324 1.405 . S
C325 H351 0.931 . S
U326 O327 2.454 . S
U326 O328 2.458 . S
U326 C329 2.984 . S
U326 C330 2.847 . S
U326 C343 2.882 . S
U326 O344 2.441 . S
U326 O345 2.420 . S
U326 O346 2.455 . S
U326 O347 2.449 . S
O327 U326 2.454 . S
O327 C329 1.353 . S
O328 U326 2.458 . S
O328 C329 1.286 . S
C329 U326 2.984 . S
C329 O327 1.353 . S
C329 O328 1.286 . S
C329 C331 1.363 . S
C330 C320 1.465 . S
C330 U326 2.847 . S
C330 O344 1.249 . S
C330 O345 1.202 . S
C331 C329 1.363 . S
C331 C333 1.408 . S
C331 C336 1.342 . S
C332 C333 1.310 . S
C332 C335 1.461 . S
C332 H352 0.932 . S
C333 C331 1.408 . S
C333 C332 1.310 . S
C333 H353 0.930 . S
C334 C335 1.474 . S
C334 C336 1.285 . S
C334 H354 0.929 . S
C335 C332 1.461 . S
C335 C334 1.474 . S
C336 C331 1.342 . S
C336 C334 1.285 . S
C336 H355 0.930 . S
C337 C340 1.424 . S
C337 C342 1.245 . S
C337 C343 1.428 . S
C338 C341 1.260 . S
C338 C342 1.477 . S
C338 H356 0.932 . S
C339 C340 1.384 . S
C339 C341 1.479 . S
C339 H357 0.929 . S
C340 C337 1.424 . S
C340 C339 1.384 . S
C340 H358 0.928 . S
C341 C338 1.260 . S
C341 C339 1.479 . S
C342 C337 1.245 . S
C342 C338 1.477 . S
C342 H359 0.932 . S
C343 U326 2.882 . S
C343 C337 1.428 . S
C343 O346 1.301 . S
C343 O347 1.282 . S
O344 U326 2.441 . S
O344 C330 1.249 . S
O345 U326 2.420 . S
O345 C330 1.202 . S
O346 U326 2.455 . S
O346 C343 1.301 . S
O347 U326 2.449 . S
O347 C343 1.282 . S
H348 C321 0.931 . S
H349 C323 0.929 . S
H350 C324 0.930 . S
H351 C325 0.931 . S
H352 C332 0.932 . S
H353 C333 0.930 . S
H354 C334 0.929 . S
H355 C336 0.930 . S
H356 C338 0.932 . S
H357 C339 0.929 . S
H358 C340 0.928 . S
H359 C342 0.932 . S
C360 C361 1.264 . S
C360 C365 1.479 . S
C360 C370 1.465 . S
C361 C360 1.264 . S
C361 C363 1.339 . S
C361 H388 0.931 . S
C362 C363 1.395 . S
C362 C364 1.320 . S
C363 C361 1.339 . S
C363 C362 1.395 . S
C363 H389 0.929 . S
C364 C362 1.320 . S
C364 C365 1.405 . S
C364 H390 0.930 . S
C365 C360 1.479 . S
C365 C364 1.405 . S
C365 H391 0.931 . S
U366 O367 2.454 . S
U366 O368 2.458 . S
U366 C369 2.984 . S
U366 C370 2.847 . S
U366 C383 2.882 . S
U366 O384 2.441 . S
U366 O385 2.420 . S
U366 O386 2.455 . S
U366 O387 2.449 . S
O367 U366 2.454 . S
O367 C369 1.353 . S
O368 U366 2.458 . S
O368 C369 1.286 . S
C369 U366 2.984 . S
C369 O367 1.353 . S
C369 O368 1.286 . S
C369 C371 1.363 . S
C370 C360 1.465 . S
C370 U366 2.847 . S
C370 O384 1.249 . S
C370 O385 1.202 . S
C371 C369 1.363 . S
C371 C373 1.408 . S
C371 C376 1.342 . S
C372 C373 1.310 . S
C372 C375 1.461 . S
C372 H392 0.932 . S
C373 C371 1.408 . S
C373 C372 1.310 . S
C373 H393 0.930 . S
C374 C375 1.474 . S
C374 C376 1.285 . S
C374 H394 0.929 . S
C375 C372 1.461 . S
C375 C374 1.474 . S
C376 C371 1.342 . S
C376 C374 1.285 . S
C376 H395 0.930 . S
C377 C380 1.424 . S
C377 C382 1.245 . S
C377 C383 1.428 . S
C378 C381 1.260 . S
C378 C382 1.477 . S
C378 H396 0.932 . S
C379 C380 1.384 . S
C379 C381 1.479 . S
C379 H397 0.929 . S
C380 C377 1.424 . S
C380 C379 1.384 . S
C380 H398 0.928 . S
C381 C378 1.260 . S
C381 C379 1.479 . S
C382 C377 1.245 . S
C382 C378 1.477 . S
C382 H399 0.932 . S
C383 U366 2.882 . S
C383 C377 1.428 . S
C383 O386 1.301 . S
C383 O387 1.282 . S
O384 U366 2.441 . S
O384 C370 1.249 . S
O385 U366 2.420 . S
O385 C370 1.202 . S
O386 U366 2.455 . S
O386 C383 1.301 . S
O387 U366 2.449 . S
O387 C383 1.282 . S
H388 C361 0.931 . S
H389 C363 0.929 . S
H390 C364 0.930 . S
H391 C365 0.931 . S
H392 C372 0.932 . S
H393 C373 0.930 . S
H394 C374 0.929 . S
H395 C376 0.930 . S
H396 C378 0.932 . S
H397 C379 0.929 . S
H398 C380 0.928 . S
H399 C382 0.932 . S
C400 C401 1.264 . S
C400 C405 1.479 . S
C400 C410 1.465 . S
C401 C400 1.264 . S
C401 C403 1.339 . S
C401 H428 0.931 . S
C402 C403 1.395 . S
C402 C404 1.320 . S
C403 C401 1.339 . S
C403 C402 1.395 . S
C403 H429 0.929 . S
C404 C402 1.320 . S
C404 C405 1.405 . S
C404 H430 0.930 . S
C405 C400 1.479 . S
C405 C404 1.405 . S
C405 H431 0.931 . S
U406 O407 2.454 . S
U406 O408 2.458 . S
U406 C409 2.984 . S
U406 C410 2.847 . S
U406 C423 2.882 . S
U406 O424 2.441 . S
U406 O425 2.420 . S
U406 O426 2.455 . S
U406 O427 2.449 . S
O407 U406 2.454 . S
O407 C409 1.353 . S
O408 U406 2.458 . S
O408 C409 1.286 . S
C409 U406 2.984 . S
C409 O407 1.353 . S
C409 O408 1.286 . S
C409 C411 1.363 . S
C410 C400 1.465 . S
C410 U406 2.847 . S
C410 O424 1.249 . S
C410 O425 1.202 . S
C411 C409 1.363 . S
C411 C413 1.408 . S
C411 C416 1.342 . S
C412 C413 1.310 . S
C412 C415 1.461 . S
C412 H432 0.932 . S
C413 C411 1.408 . S
C413 C412 1.310 . S
C413 H433 0.930 . S
C414 C415 1.474 . S
C414 C416 1.285 . S
C414 H434 0.929 . S
C415 C412 1.461 . S
C415 C414 1.474 . S
C416 C411 1.342 . S
C416 C414 1.285 . S
C416 H435 0.930 . S
C417 C420 1.424 . S
C417 C422 1.245 . S
C417 C423 1.428 . S
C418 C421 1.260 . S
C418 C422 1.477 . S
C418 H436 0.932 . S
C419 C420 1.384 . S
C419 C421 1.479 . S
C419 H437 0.929 . S
C420 C417 1.424 . S
C420 C419 1.384 . S
C420 H438 0.928 . S
C421 C418 1.260 . S
C421 C419 1.479 . S
C422 C417 1.245 . S
C422 C418 1.477 . S
C422 H439 0.932 . S
C423 U406 2.882 . S
C423 C417 1.428 . S
C423 O426 1.301 . S
C423 O427 1.282 . S
O424 U406 2.441 . S
O424 C410 1.249 . S
O425 U406 2.420 . S
O425 C410 1.202 . S
O426 U406 2.455 . S
O426 C423 1.301 . S
O427 U406 2.449 . S
O427 C423 1.282 . S
H428 C401 0.931 . S
H429 C403 0.929 . S
H430 C404 0.930 . S
H431 C405 0.931 . S
H432 C412 0.932 . S
H433 C413 0.930 . S
H434 C414 0.929 . S
H435 C416 0.930 . S
H436 C418 0.932 . S
H437 C419 0.929 . S
H438 C420 0.928 . S
H439 C422 0.932 . S
C440 C441 1.264 . S
C440 C445 1.479 . S
C440 C450 1.465 . S
C441 C440 1.264 . S
C441 C443 1.339 . S
C441 H468 0.931 . S
C442 C443 1.395 . S
C442 C444 1.320 . S
C443 C441 1.339 . S
C443 C442 1.395 . S
C443 H469 0.929 . S
C444 C442 1.320 . S
C444 C445 1.405 . S
C444 H470 0.930 . S
C445 C440 1.479 . S
C445 C444 1.405 . S
C445 H471 0.931 . S
U446 O447 2.454 . S
U446 O448 2.458 . S
U446 C449 2.984 . S
U446 C450 2.847 . S
U446 C463 2.882 . S
U446 O464 2.441 . S
U446 O465 2.420 . S
U446 O466 2.455 . S
U446 O467 2.449 . S
O447 U446 2.454 . S
O447 C449 1.353 . S
O448 U446 2.458 . S
O448 C449 1.286 . S
C449 U446 2.984 . S
C449 O447 1.353 . S
C449 O448 1.286 . S
C449 C451 1.363 . S
C450 C440 1.465 . S
C450 U446 2.847 . S
C450 O464 1.249 . S
C450 O465 1.202 . S
C451 C449 1.363 . S
C451 C453 1.408 . S
C451 C456 1.342 . S
C452 C453 1.310 . S
C452 C455 1.461 . S
C452 H472 0.932 . S
C453 C451 1.408 . S
C453 C452 1.310 . S
C453 H473 0.930 . S
C454 C455 1.474 . S
C454 C456 1.285 . S
C454 H474 0.929 . S
C455 C452 1.461 . S
C455 C454 1.474 . S
C456 C451 1.342 . S
C456 C454 1.285 . S
C456 H475 0.930 . S
C457 C460 1.424 . S
C457 C462 1.245 . S
C457 C463 1.428 . S
C458 C461 1.260 . S
C458 C462 1.477 . S
C458 H476 0.932 . S
C459 C460 1.384 . S
C459 C461 1.479 . S
C459 H477 0.929 . S
C460 C457 1.424 . S
C460 C459 1.384 . S
C460 H478 0.928 . S
C461 C458 1.260 . S
C461 C459 1.479 . S
C462 C457 1.245 . S
C462 C458 1.477 . S
C462 H479 0.932 . S
C463 U446 2.882 . S
C463 C457 1.428 . S
C463 O466 1.301 . S
C463 O467 1.282 . S
O464 U446 2.441 . S
O464 C450 1.249 . S
O465 U446 2.420 . S
O465 C450 1.202 . S
O466 U446 2.455 . S
O466 C463 1.301 . S
O467 U446 2.449 . S
O467 C463 1.282 . S
H468 C441 0.931 . S
H469 C443 0.929 . S
H470 C444 0.930 . S
H471 C445 0.931 . S
H472 C452 0.932 . S
H473 C453 0.930 . S
H474 C454 0.929 . S
H475 C456 0.930 . S
H476 C458 0.932 . S
H477 C459 0.929 . S
H478 C460 0.928 . S
H479 C462 0.932 . S
C480 C481 1.264 . S
C480 C485 1.479 . S
C480 C490 1.465 . S
C481 C480 1.264 . S
C481 C483 1.339 . S
C481 H508 0.931 . S
C482 C483 1.395 . S
C482 C484 1.320 . S
C483 C481 1.339 . S
C483 C482 1.395 . S
C483 H509 0.929 . S
C484 C482 1.320 . S
C484 C485 1.405 . S
C484 H510 0.930 . S
C485 C480 1.479 . S
C485 C484 1.405 . S
C485 H511 0.931 . S
U486 O487 2.454 . S
U486 O488 2.458 . S
U486 C489 2.984 . S
U486 C490 2.847 . S
U486 C503 2.882 . S
U486 O504 2.441 . S
U486 O505 2.420 . S
U486 O506 2.455 . S
U486 O507 2.449 . S
O487 U486 2.454 . S
O487 C489 1.353 . S
O488 U486 2.458 . S
O488 C489 1.286 . S
C489 U486 2.984 . S
C489 O487 1.353 . S
C489 O488 1.286 . S
C489 C491 1.363 . S
C490 C480 1.465 . S
C490 U486 2.847 . S
C490 O504 1.249 . S
C490 O505 1.202 . S
C491 C489 1.363 . S
C491 C493 1.408 . S
C491 C496 1.342 . S
C492 C493 1.310 . S
C492 C495 1.461 . S
C492 H512 0.932 . S
C493 C491 1.408 . S
C493 C492 1.310 . S
C493 H513 0.930 . S
C494 C495 1.474 . S
C494 C496 1.285 . S
C494 H514 0.929 . S
C495 C492 1.461 . S
C495 C494 1.474 . S
C496 C491 1.342 . S
C496 C494 1.285 . S
C496 H515 0.930 . S
C497 C500 1.424 . S
C497 C502 1.245 . S
C497 C503 1.428 . S
C498 C501 1.260 . S
C498 C502 1.477 . S
C498 H516 0.932 . S
C499 C500 1.384 . S
C499 C501 1.479 . S
C499 H517 0.929 . S
C500 C497 1.424 . S
C500 C499 1.384 . S
C500 H518 0.928 . S
C501 C498 1.260 . S
C501 C499 1.479 . S
C502 C497 1.245 . S
C502 C498 1.477 . S
C502 H519 0.932 . S
C503 U486 2.882 . S
C503 C497 1.428 . S
C503 O506 1.301 . S
C503 O507 1.282 . S
O504 U486 2.441 . S
O504 C490 1.249 . S
O505 U486 2.420 . S
O505 C490 1.202 . S
O506 U486 2.455 . S
O506 C503 1.301 . S
O507 U486 2.449 . S
O507 C503 1.282 . S
H508 C481 0.931 . S
H509 C483 0.929 . S
H510 C484 0.930 . S
H511 C485 0.931 . S
H512 C492 0.932 . S
H513 C493 0.930 . S
H514 C494 0.929 . S
H515 C496 0.930 . S
H516 C498 0.932 . S
H517 C499 0.929 . S
H518 C500 0.928 . S
H519 C502 0.932 . S
C520 C521 1.264 . S
C520 C525 1.479 . S
C520 C530 1.465 . S
C521 C520 1.264 . S
C521 C523 1.339 . S
C521 H548 0.931 . S
C522 C523 1.395 . S
C522 C524 1.320 . S
C523 C521 1.339 . S
C523 C522 1.395 . S
C523 H549 0.929 . S
C524 C522 1.320 . S
C524 C525 1.405 . S
C524 H550 0.930 . S
C525 C520 1.479 . S
C525 C524 1.405 . S
C525 H551 0.931 . S
U526 O527 2.454 . S
U526 O528 2.458 . S
U526 C529 2.984 . S
U526 C530 2.847 . S
U526 C543 2.882 . S
U526 O544 2.441 . S
U526 O545 2.420 . S
U526 O546 2.455 . S
U526 O547 2.449 . S
O527 U526 2.454 . S
O527 C529 1.353 . S
O528 U526 2.458 . S
O528 C529 1.286 . S
C529 U526 2.984 . S
C529 O527 1.353 . S
C529 O528 1.286 . S
C529 C531 1.363 . S
C530 C520 1.465 . S
C530 U526 2.847 . S
C530 O544 1.249 . S
C530 O545 1.202 . S
C531 C529 1.363 . S
C531 C533 1.408 . S
C531 C536 1.342 . S
C532 C533 1.310 . S
C532 C535 1.461 . S
C532 H552 0.932 . S
C533 C531 1.408 . S
C533 C532 1.310 . S
C533 H553 0.930 . S
C534 C535 1.474 . S
C534 C536 1.285 . S
C534 H554 0.929 . S
C535 C532 1.461 . S
C535 C534 1.474 . S
C536 C531 1.342 . S
C536 C534 1.285 . S
C536 H555 0.930 . S
C537 C540 1.424 . S
C537 C542 1.245 . S
C537 C543 1.428 . S
C538 C541 1.260 . S
C538 C542 1.477 . S
C538 H556 0.932 . S
C539 C540 1.384 . S
C539 C541 1.479 . S
C539 H557 0.929 . S
C540 C537 1.424 . S
C540 C539 1.384 . S
C540 H558 0.928 . S
C541 C538 1.260 . S
C541 C539 1.479 . S
C542 C537 1.245 . S
C542 C538 1.477 . S
C542 H559 0.932 . S
C543 U526 2.882 . S
C543 C537 1.428 . S
C543 O546 1.301 . S
C543 O547 1.282 . S
O544 U526 2.441 . S
O544 C530 1.249 . S
O545 U526 2.420 . S
O545 C530 1.202 . S
O546 U526 2.455 . S
O546 C543 1.301 . S
O547 U526 2.449 . S
O547 C543 1.282 . S
H548 C521 0.931 . S
H549 C523 0.929 . S
H550 C524 0.930 . S
H551 C525 0.931 . S
H552 C532 0.932 . S
H553 C533 0.930 . S
H554 C534 0.929 . S
H555 C536 0.930 . S
H556 C538 0.932 . S
H557 C539 0.929 . S
H558 C540 0.928 . S
H559 C542 0.932 . S
C560 C561 1.264 . S
C560 C565 1.479 . S
C560 C570 1.465 . S
C561 C560 1.264 . S
C561 C563 1.339 . S
C561 H588 0.931 . S
C562 C563 1.395 . S
C562 C564 1.320 . S
C563 C561 1.339 . S
C563 C562 1.395 . S
C563 H589 0.929 . S
C564 C562 1.320 . S
C564 C565 1.405 . S
C564 H590 0.930 . S
C565 C560 1.479 . S
C565 C564 1.405 . S
C565 H591 0.931 . S
U566 O567 2.454 . S
U566 O568 2.458 . S
U566 C569 2.984 . S
U566 C570 2.847 . S
U566 C583 2.882 . S
U566 O584 2.441 . S
U566 O585 2.420 . S
U566 O586 2.455 . S
U566 O587 2.449 . S
O567 U566 2.454 . S
O567 C569 1.353 . S
O568 U566 2.458 . S
O568 C569 1.286 . S
C569 U566 2.984 . S
C569 O567 1.353 . S
C569 O568 1.286 . S
C569 C571 1.363 . S
C570 C560 1.465 . S
C570 U566 2.847 . S
C570 O584 1.249 . S
C570 O585 1.202 . S
C571 C569 1.363 . S
C571 C573 1.408 . S
C571 C576 1.342 . S
C572 C573 1.310 . S
C572 C575 1.461 . S
C572 H592 0.932 . S
C573 C571 1.408 . S
C573 C572 1.310 . S
C573 H593 0.930 . S
C574 C575 1.474 . S
C574 C576 1.285 . S
C574 H594 0.929 . S
C575 C572 1.461 . S
C575 C574 1.474 . S
C576 C571 1.342 . S
C576 C574 1.285 . S
C576 H595 0.930 . S
C577 C580 1.424 . S
C577 C582 1.245 . S
C577 C583 1.428 . S
C578 C581 1.260 . S
C578 C582 1.477 . S
C578 H596 0.932 . S
C579 C580 1.384 . S
C579 C581 1.479 . S
C579 H597 0.929 . S
C580 C577 1.424 . S
C580 C579 1.384 . S
C580 H598 0.928 . S
C581 C578 1.260 . S
C581 C579 1.479 . S
C582 C577 1.245 . S
C582 C578 1.477 . S
C582 H599 0.932 . S
C583 U566 2.882 . S
C583 C577 1.428 . S
C583 O586 1.301 . S
C583 O587 1.282 . S
O584 U566 2.441 . S
O584 C570 1.249 . S
O585 U566 2.420 . S
O585 C570 1.202 . S
O586 U566 2.455 . S
O586 C583 1.301 . S
O587 U566 2.449 . S
O587 C583 1.282 . S
H588 C561 0.931 . S
H589 C563 0.929 . S
H590 C564 0.930 . S
H591 C565 0.931 . S
H592 C572 0.932 . S
H593 C573 0.930 . S
H594 C574 0.929 . S
H595 C576 0.930 . S
H596 C578 0.932 . S
H597 C579 0.929 . S
H598 C580 0.928 . S
H599 C582 0.932 . S
C600 C601 1.264 . S
C600 C605 1.479 . S
C600 C610 1.465 . S
C601 C600 1.264 . S
C601 C603 1.339 . S
C601 H628 0.931 . S
C602 C603 1.395 . S
C602 C604 1.320 . S
C603 C601 1.339 . S
C603 C602 1.395 . S
C603 H629 0.929 . S
C604 C602 1.320 . S
C604 C605 1.405 . S
C604 H630 0.930 . S
C605 C600 1.479 . S
C605 C604 1.405 . S
C605 H631 0.931 . S
U606 O607 2.454 . S
U606 O608 2.458 . S
U606 C609 2.984 . S
U606 C610 2.847 . S
U606 C623 2.882 . S
U606 O624 2.441 . S
U606 O625 2.420 . S
U606 O626 2.455 . S
U606 O627 2.449 . S
O607 U606 2.454 . S
O607 C609 1.353 . S
O608 U606 2.458 . S
O608 C609 1.286 . S
C609 U606 2.984 . S
C609 O607 1.353 . S
C609 O608 1.286 . S
C609 C611 1.363 . S
C610 C600 1.465 . S
C610 U606 2.847 . S
C610 O624 1.249 . S
C610 O625 1.202 . S
C611 C609 1.363 . S
C611 C613 1.408 . S
C611 C616 1.342 . S
C612 C613 1.310 . S
C612 C615 1.461 . S
C612 H632 0.932 . S
C613 C611 1.408 . S
C613 C612 1.310 . S
C613 H633 0.930 . S
C614 C615 1.474 . S
C614 C616 1.285 . S
C614 H634 0.929 . S
C615 C612 1.461 . S
C615 C614 1.474 . S
C616 C611 1.342 . S
C616 C614 1.285 . S
C616 H635 0.930 . S
C617 C620 1.424 . S
C617 C622 1.245 . S
C617 C623 1.428 . S
C618 C621 1.260 . S
C618 C622 1.477 . S
C618 H636 0.932 . S
C619 C620 1.384 . S
C619 C621 1.479 . S
C619 H637 0.929 . S
C620 C617 1.424 . S
C620 C619 1.384 . S
C620 H638 0.928 . S
C621 C618 1.260 . S
C621 C619 1.479 . S
C622 C617 1.245 . S
C622 C618 1.477 . S
C622 H639 0.932 . S
C623 U606 2.882 . S
C623 C617 1.428 . S
C623 O626 1.301 . S
C623 O627 1.282 . S
O624 U606 2.441 . S
O624 C610 1.249 . S
O625 U606 2.420 . S
O625 C610 1.202 . S
O626 U606 2.455 . S
O626 C623 1.301 . S
O627 U606 2.449 . S
O627 C623 1.282 . S
H628 C601 0.931 . S
H629 C603 0.929 . S
H630 C604 0.930 . S
H631 C605 0.931 . S
H632 C612 0.932 . S
H633 C613 0.930 . S
H634 C614 0.929 . S
H635 C616 0.930 . S
H636 C618 0.932 . S
H637 C619 0.929 . S
H638 C620 0.928 . S
H639 C622 0.932 . S
C640 C641 1.264 . S
C640 C645 1.479 . S
C640 C650 1.465 . S
C641 C640 1.264 . S
C641 C643 1.339 . S
C641 H668 0.931 . S
C642 C643 1.395 . S
C642 C644 1.320 . S
C643 C641 1.339 . S
C643 C642 1.395 . S
C643 H669 0.929 . S
C644 C642 1.320 . S
C644 C645 1.405 . S
C644 H670 0.930 . S
C645 C640 1.479 . S
C645 C644 1.405 . S
C645 H671 0.931 . S
U646 O647 2.454 . S
U646 O648 2.458 . S
U646 C649 2.984 . S
U646 C650 2.847 . S
U646 C663 2.882 . S
U646 O664 2.441 . S
U646 O665 2.420 . S
U646 O666 2.455 . S
U646 O667 2.449 . S
O647 U646 2.454 . S
O647 C649 1.353 . S
O648 U646 2.458 . S
O648 C649 1.286 . S
C649 U646 2.984 . S
C649 O647 1.353 . S
C649 O648 1.286 . S
C649 C651 1.363 . S
C650 C640 1.465 . S
C650 U646 2.847 . S
C650 O664 1.249 . S
C650 O665 1.202 . S
C651 C649 1.363 . S
C651 C653 1.408 . S
C651 C656 1.342 . S
C652 C653 1.310 . S
C652 C655 1.461 . S
C652 H672 0.932 . S
C653 C651 1.408 . S
C653 C652 1.310 . S
C653 H673 0.930 . S
C654 C655 1.474 . S
C654 C656 1.285 . S
C654 H674 0.929 . S
C655 C652 1.461 . S
C655 C654 1.474 . S
C656 C651 1.342 . S
C656 C654 1.285 . S
C656 H675 0.930 . S
C657 C660 1.424 . S
C657 C662 1.245 . S
C657 C663 1.428 . S
C658 C661 1.260 . S
C658 C662 1.477 . S
C658 H676 0.932 . S
C659 C660 1.384 . S
C659 C661 1.479 . S
C659 H677 0.929 . S
C660 C657 1.424 . S
C660 C659 1.384 . S
C660 H678 0.928 . S
C661 C658 1.260 . S
C661 C659 1.479 . S
C662 C657 1.245 . S
C662 C658 1.477 . S
C662 H679 0.932 . S
C663 U646 2.882 . S
C663 C657 1.428 . S
C663 O666 1.301 . S
C663 O667 1.282 . S
O664 U646 2.441 . S
O664 C650 1.249 . S
O665 U646 2.420 . S
O665 C650 1.202 . S
O666 U646 2.455 . S
O666 C663 1.301 . S
O667 U646 2.449 . S
O667 C663 1.282 . S
H668 C641 0.931 . S
H669 C643 0.929 . S
H670 C644 0.930 . S
H671 C645 0.931 . S
H672 C652 0.932 . S
H673 C653 0.930 . S
H674 C654 0.929 . S
H675 C656 0.930 . S
H676 C658 0.932 . S
H677 C659 0.929 . S
H678 C660 0.928 . S
H679 C662 0.932 . S
C680 C681 1.264 . S
C680 C685 1.479 . S
C680 C690 1.465 . S
C681 C680 1.264 . S
C681 C683 1.339 . S
C681 H708 0.931 . S
C682 C683 1.395 . S
C682 C684 1.320 . S
C683 C681 1.339 . S
C683 C682 1.395 . S
C683 H709 0.929 . S
C684 C682 1.320 . S
C684 C685 1.405 . S
C684 H710 0.930 . S
C685 C680 1.479 . S
C685 C684 1.405 . S
C685 H711 0.931 . S
U686 O687 2.454 . S
U686 O688 2.458 . S
U686 C689 2.984 . S
U686 C690 2.847 . S
U686 C703 2.882 . S
U686 O704 2.441 . S
U686 O705 2.420 . S
U686 O706 2.455 . S
U686 O707 2.449 . S
O687 U686 2.454 . S
O687 C689 1.353 . S
O688 U686 2.458 . S
O688 C689 1.286 . S
C689 U686 2.984 . S
C689 O687 1.353 . S
C689 O688 1.286 . S
C689 C691 1.363 . S
C690 C680 1.465 . S
C690 U686 2.847 . S
C690 O704 1.249 . S
C690 O705 1.202 . S
C691 C689 1.363 . S
C691 C693 1.408 . S
C691 C696 1.342 . S
C692 C693 1.310 . S
C692 C695 1.461 . S
C692 H712 0.932 . S
C693 C691 1.408 . S
C693 C692 1.310 . S
C693 H713 0.930 . S
C694 C695 1.474 . S
C694 C696 1.285 . S
C694 H714 0.929 . S
C695 C692 1.461 . S
C695 C694 1.474 . S
C696 C691 1.342 . S
C696 C694 1.285 . S
C696 H715 0.930 . S
C697 C700 1.424 . S
C697 C702 1.245 . S
C697 C703 1.428 . S
C698 C701 1.260 . S
C698 C702 1.477 . S
C698 H716 0.932 . S
C699 C700 1.384 . S
C699 C701 1.479 . S
C699 H717 0.929 . S
C700 C697 1.424 . S
C700 C699 1.384 . S
C700 H718 0.928 . S
C701 C698 1.260 . S
C701 C699 1.479 . S
C702 C697 1.245 . S
C702 C698 1.477 . S
C702 H719 0.932 . S
C703 U686 2.882 . S
C703 C697 1.428 . S
C703 O706 1.301 . S
C703 O707 1.282 . S
O704 U686 2.441 . S
O704 C690 1.249 . S
O705 U686 2.420 . S
O705 C690 1.202 . S
O706 U686 2.455 . S
O706 C703 1.301 . S
O707 U686 2.449 . S
O707 C703 1.282 . S
H708 C681 0.931 . S
H709 C683 0.929 . S
H710 C684 0.930 . S
H711 C685 0.931 . S
H712 C692 0.932 . S
H713 C693 0.930 . S
H714 C694 0.929 . S
H715 C696 0.930 . S
H716 C698 0.932 . S
H717 C699 0.929 . S
H718 C700 0.928 . S
H719 C702 0.932 . S
C720 C721 1.264 . S
C720 C725 1.479 . S
C720 C730 1.465 . S
C721 C720 1.264 . S
C721 C723 1.339 . S
C721 H748 0.931 . S
C722 C723 1.395 . S
C722 C724 1.320 . S
C723 C721 1.339 . S
C723 C722 1.395 . S
C723 H749 0.929 . S
C724 C722 1.320 . S
C724 C725 1.405 . S
C724 H750 0.930 . S
C725 C720 1.479 . S
C725 C724 1.405 . S
C725 H751 0.931 . S
U726 O727 2.454 . S
U726 O728 2.458 . S
U726 C729 2.984 . S
U726 C730 2.847 . S
U726 C743 2.882 . S
U726 O744 2.441 . S
U726 O745 2.420 . S
U726 O746 2.455 . S
U726 O747 2.449 . S
O727 U726 2.454 . S
O727 C729 1.353 . S
O728 U726 2.458 . S
O728 C729 1.286 . S
C729 U726 2.984 . S
C729 O727 1.353 . S
C729 O728 1.286 . S
C729 C731 1.363 . S
C730 C720 1.465 . S
C730 U726 2.847 . S
C730 O744 1.249 . S
C730 O745 1.202 . S
C731 C729 1.363 . S
C731 C733 1.408 . S
C731 C736 1.342 . S
C732 C733 1.310 . S
C732 C735 1.461 . S
C732 H752 0.932 . S
C733 C731 1.408 . S
C733 C732 1.310 . S
C733 H753 0.930 . S
C734 C735 1.474 . S
C734 C736 1.285 . S
C734 H754 0.929 . S
C735 C732 1.461 . S
C735 C734 1.474 . S
C736 C731 1.342 . S
C736 C734 1.285 . S
C736 H755 0.930 . S
C737 C740 1.424 . S
C737 C742 1.245 . S
C737 C743 1.428 . S
C738 C741 1.260 . S
C738 C742 1.477 . S
C738 H756 0.932 . S
C739 C740 1.384 . S
C739 C741 1.479 . S
C739 H757 0.929 . S
C740 C737 1.424 . S
C740 C739 1.384 . S
C740 H758 0.928 . S
C741 C738 1.260 . S
C741 C739 1.479 . S
C742 C737 1.245 . S
C742 C738 1.477 . S
C742 H759 0.932 . S
C743 U726 2.882 . S
C743 C737 1.428 . S
C743 O746 1.301 . S
C743 O747 1.282 . S
O744 U726 2.441 . S
O744 C730 1.249 . S
O745 U726 2.420 . S
O745 C730 1.202 . S
O746 U726 2.455 . S
O746 C743 1.301 . S
O747 U726 2.449 . S
O747 C743 1.282 . S
H748 C721 0.931 . S
H749 C723 0.929 . S
H750 C724 0.930 . S
H751 C725 0.931 . S
H752 C732 0.932 . S
H753 C733 0.930 . S
H754 C734 0.929 . S
H755 C736 0.930 . S
H756 C738 0.932 . S
H757 C739 0.929 . S
H758 C740 0.928 . S
H759 C742 0.932 . S
C760 C761 1.264 . S
C760 C765 1.479 . S
C760 C770 1.465 . S
C761 C760 1.264 . S
C761 C763 1.339 . S
C761 H788 0.931 . S
C762 C763 1.395 . S
C762 C764 1.320 . S
C763 C761 1.339 . S
C763 C762 1.395 . S
C763 H789 0.929 . S
C764 C762 1.320 . S
C764 C765 1.405 . S
C764 H790 0.930 . S
C765 C760 1.479 . S
C765 C764 1.405 . S
C765 H791 0.931 . S
U766 O767 2.454 . S
U766 O768 2.458 . S
U766 C769 2.984 . S
U766 C770 2.847 . S
U766 C783 2.882 . S
U766 O784 2.441 . S
U766 O785 2.420 . S
U766 O786 2.455 . S
U766 O787 2.449 . S
O767 U766 2.454 . S
O767 C769 1.353 . S
O768 U766 2.458 . S
O768 C769 1.286 . S
C769 U766 2.984 . S
C769 O767 1.353 . S
C769 O768 1.286 . S
C769 C771 1.363 . S
C770 C760 1.465 . S
C770 U766 2.847 . S
C770 O784 1.249 . S
C770 O785 1.202 . S
C771 C769 1.363 . S
C771 C773 1.408 . S
C771 C776 1.342 . S
C772 C773 1.310 . S
C772 C775 1.461 . S
C772 H792 0.932 . S
C773 C771 1.408 . S
C773 C772 1.310 . S
C773 H793 0.930 . S
C774 C775 1.474 . S
C774 C776 1.285 . S
C774 H794 0.929 . S
C775 C772 1.461 . S
C775 C774 1.474 . S
C776 C771 1.342 . S
C776 C774 1.285 . S
C776 H795 0.930 . S
C777 C780 1.424 . S
C777 C782 1.245 . S
C777 C783 1.428 . S
C778 C781 1.260 . S
C778 C782 1.477 . S
C778 H796 0.932 . S
C779 C780 1.384 . S
C779 C781 1.479 . S
C779 H797 0.929 . S
C780 C777 1.424 . S
C780 C779 1.384 . S
C780 H798 0.928 . S
C781 C778 1.260 . S
C781 C779 1.479 . S
C782 C777 1.245 . S
C782 C778 1.477 . S
C782 H799 0.932 . S
C783 U766 2.882 . S
C783 C777 1.428 . S
C783 O786 1.301 . S
C783 O787 1.282 . S
O784 U766 2.441 . S
O784 C770 1.249 . S
O785 U766 2.420 . S
O785 C770 1.202 . S
O786 U766 2.455 . S
O786 C783 1.301 . S
O787 U766 2.449 . S
O787 C783 1.282 . S
H788 C761 0.931 . S
H789 C763 0.929 . S
H790 C764 0.930 . S
H791 C765 0.931 . S
H792 C772 0.932 . S
H793 C773 0.930 . S
H794 C774 0.929 . S
H795 C776 0.930 . S
H796 C778 0.932 . S
H797 C779 0.929 . S
H798 C780 0.928 . S
H799 C782 0.932 . S
C800 C801 1.264 . S
C800 C805 1.479 . S
C800 C810 1.465 . S
C801 C800 1.264 . S
C801 C803 1.339 . S
C801 H828 0.931 . S
C802 C803 1.395 . S
C802 C804 1.320 . S
C803 C801 1.339 . S
C803 C802 1.395 . S
C803 H829 0.929 . S
C804 C802 1.320 . S
C804 C805 1.405 . S
C804 H830 0.930 . S
C805 C800 1.479 . S
C805 C804 1.405 . S
C805 H831 0.931 . S
U806 O807 2.454 . S
U806 O808 2.458 . S
U806 C809 2.984 . S
U806 C810 2.847 . S
U806 C823 2.882 . S
U806 O824 2.441 . S
U806 O825 2.420 . S
U806 O826 2.455 . S
U806 O827 2.449 . S
O807 U806 2.454 . S
O807 C809 1.353 . S
O808 U806 2.458 . S
O808 C809 1.286 . S
C809 U806 2.984 . S
C809 O807 1.353 . S
C809 O808 1.286 . S
C809 C811 1.363 . S
C810 C800 1.465 . S
C810 U806 2.847 . S
C810 O824 1.249 . S
C810 O825 1.202 . S
C811 C809 1.363 . S
C811 C813 1.408 . S
C811 C816 1.342 . S
C812 C813 1.310 . S
C812 C815 1.461 . S
C812 H832 0.932 . S
C813 C811 1.408 . S
C813 C812 1.310 . S
C813 H833 0.930 . S
C814 C815 1.474 . S
C814 C816 1.285 . S
C814 H834 0.929 . S
C815 C812 1.461 . S
C815 C814 1.474 . S
C816 C811 1.342 . S
C816 C814 1.285 . S
C816 H835 0.930 . S
C817 C820 1.424 . S
C817 C822 1.245 . S
C817 C823 1.428 . S
C818 C821 1.260 . S
C818 C822 1.477 . S
C818 H836 0.932 . S
C819 C820 1.384 . S
C819 C821 1.479 . S
C819 H837 0.929 . S
C820 C817 1.424 . S
C820 C819 1.384 . S
C820 H838 0.928 . S
C821 C818 1.260 . S
C821 C819 1.479 . S
C822 C817 1.245 . S
C822 C818 1.477 . S
C822 H839 0.932 . S
C823 U806 2.882 . S
C823 C817 1.428 . S
C823 O826 1.301 . S
C823 O827 1.282 . S
O824 U806 2.441 . S
O824 C810 1.249 . S
O825 U806 2.420 . S
O825 C810 1.202 . S
O826 U806 2.455 . S
O826 C823 1.301 . S
O827 U806 2.449 . S
O827 C823 1.282 . S
H828 C801 0.931 . S
H829 C803 0.929 . S
H830 C804 0.930 . S
H831 C805 0.931 . S
H832 C812 0.932 . S
H833 C813 0.930 . S
H834 C814 0.929 . S
H835 C816 0.930 . S
H836 C818 0.932 . S
H837 C819 0.929 . S
H838 C820 0.928 . S
H839 C822 0.932 . S
C840 C841 1.264 . S
C840 C845 1.479 . S
C840 C850 1.465 . S
C841 C840 1.264 . S
C841 C843 1.339 . S
C841 H868 0.931 . S
C842 C843 1.395 . S
C842 C844 1.320 . S
C843 C841 1.339 . S
C843 C842 1.395 . S
C843 H869 0.929 . S
C844 C842 1.320 . S
C844 C845 1.405 . S
C844 H870 0.930 . S
C845 C840 1.479 . S
C845 C844 1.405 . S
C845 H871 0.931 . S
U846 O847 2.454 . S
U846 O848 2.458 . S
U846 C849 2.984 . S
U846 C850 2.847 . S
U846 C863 2.882 . S
U846 O864 2.441 . S
U846 O865 2.420 . S
U846 O866 2.455 . S
U846 O867 2.449 . S
O847 U846 2.454 . S
O847 C849 1.353 . S
O848 U846 2.458 . S
O848 C849 1.286 . S
C849 U846 2.984 . S
C849 O847 1.353 . S
C849 O848 1.286 . S
C849 C851 1.363 . S
C850 C840 1.465 . S
C850 U846 2.847 . S
C850 O864 1.249 . S
C850 O865 1.202 . S
C851 C849 1.363 . S
C851 C853 1.408 . S
C851 C856 1.342 . S
C852 C853 1.310 . S
C852 C855 1.461 . S
C852 H872 0.932 . S
C853 C851 1.408 . S
C853 C852 1.310 . S
C853 H873 0.930 . S
C854 C855 1.474 . S
C854 C856 1.285 . S
C854 H874 0.929 . S
C855 C852 1.461 . S
C855 C854 1.474 . S
C856 C851 1.342 . S
C856 C854 1.285 . S
C856 H875 0.930 . S
C857 C860 1.424 . S
C857 C862 1.245 . S
C857 C863 1.428 . S
C858 C861 1.260 . S
C858 C862 1.477 . S
C858 H876 0.932 . S
C859 C860 1.384 . S
C859 C861 1.479 . S
C859 H877 0.929 . S
C860 C857 1.424 . S
C860 C859 1.384 . S
C860 H878 0.928 . S
C861 C858 1.260 . S
C861 C859 1.479 . S
C862 C857 1.245 . S
C862 C858 1.477 . S
C862 H879 0.932 . S
C863 U846 2.882 . S
C863 C857 1.428 . S
C863 O866 1.301 . S
C863 O867 1.282 . S
O864 U846 2.441 . S
O864 C850 1.249 . S
O865 U846 2.420 . S
O865 C850 1.202 . S
O866 U846 2.455 . S
O866 C863 1.301 . S
O867 U846 2.449 . S
O867 C863 1.282 . S
H868 C841 0.931 . S
H869 C843 0.929 . S
H870 C844 0.930 . S
H871 C845 0.931 . S
H872 C852 0.932 . S
H873 C853 0.930 . S
H874 C854 0.929 . S
H875 C856 0.930 . S
H876 C858 0.932 . S
H877 C859 0.929 . S
H878 C860 0.928 . S
H879 C862 0.932 . S
C880 C881 1.264 . S
C880 C885 1.479 . S
C880 C890 1.465 . S
C881 C880 1.264 . S
C881 C883 1.339 . S
C881 H908 0.931 . S
C882 C883 1.395 . S
C882 C884 1.320 . S
C883 C881 1.339 . S
C883 C882 1.395 . S
C883 H909 0.929 . S
C884 C882 1.320 . S
C884 C885 1.405 . S
C884 H910 0.930 . S
C885 C880 1.479 . S
C885 C884 1.405 . S
C885 H911 0.931 . S
U886 O887 2.454 . S
U886 O888 2.458 . S
U886 C889 2.984 . S
U886 C890 2.847 . S
U886 C903 2.882 . S
U886 O904 2.441 . S
U886 O905 2.420 . S
U886 O906 2.455 . S
U886 O907 2.449 . S
O887 U886 2.454 . S
O887 C889 1.353 . S
O888 U886 2.458 . S
O888 C889 1.286 . S
C889 U886 2.984 . S
C889 O887 1.353 . S
C889 O888 1.286 . S
C889 C891 1.363 . S
C890 C880 1.465 . S
C890 U886 2.847 . S
C890 O904 1.249 . S
C890 O905 1.202 . S
C891 C889 1.363 . S
C891 C893 1.408 . S
C891 C896 1.342 . S
C892 C893 1.310 . S
C892 C895 1.461 . S
C892 H912 0.932 . S
C893 C891 1.408 . S
C893 C892 1.310 . S
C893 H913 0.930 . S
C894 C895 1.474 . S
C894 C896 1.285 . S
C894 H914 0.929 . S
C895 C892 1.461 . S
C895 C894 1.474 . S
C896 C891 1.342 . S
C896 C894 1.285 . S
C896 H915 0.930 . S
C897 C900 1.424 . S
C897 C902 1.245 . S
C897 C903 1.428 . S
C898 C901 1.260 . S
C898 C902 1.477 . S
C898 H916 0.932 . S
C899 C900 1.384 . S
C899 C901 1.479 . S
C899 H917 0.929 . S
C900 C897 1.424 . S
C900 C899 1.384 . S
C900 H918 0.928 . S
C901 C898 1.260 . S
C901 C899 1.479 . S
C902 C897 1.245 . S
C902 C898 1.477 . S
C902 H919 0.932 . S
C903 U886 2.882 . S
C903 C897 1.428 . S
C903 O906 1.301 . S
C903 O907 1.282 . S
O904 U886 2.441 . S
O904 C890 1.249 . S
O905 U886 2.420 . S
O905 C890 1.202 . S
O906 U886 2.455 . S
O906 C903 1.301 . S
O907 U886 2.449 . S
O907 C903 1.282 . S
H908 C881 0.931 . S
H909 C883 0.929 . S
H910 C884 0.930 . S
H911 C885 0.931 . S
H912 C892 0.932 . S
H913 C893 0.930 . S
H914 C894 0.929 . S
H915 C896 0.930 . S
H916 C898 0.932 . S
H917 C899 0.929 . S
H918 C900 0.928 . S
H919 C902 0.932 . S
C920 C921 1.264 . S
C920 C925 1.479 . S
C920 C930 1.465 . S
C921 C920 1.264 . S
C921 C923 1.339 . S
C921 H948 0.931 . S
C922 C923 1.395 . S
C922 C924 1.320 . S
C923 C921 1.339 . S
C923 C922 1.395 . S
C923 H949 0.929 . S
C924 C922 1.320 . S
C924 C925 1.405 . S
C924 H950 0.930 . S
C925 C920 1.479 . S
C925 C924 1.405 . S
C925 H951 0.931 . S
U926 O927 2.454 . S
U926 O928 2.458 . S
U926 C929 2.984 . S
U926 C930 2.847 . S
U926 C943 2.882 . S
U926 O944 2.441 . S
U926 O945 2.420 . S
U926 O946 2.455 . S
U926 O947 2.449 . S
O927 U926 2.454 . S
O927 C929 1.353 . S
O928 U926 2.458 . S
O928 C929 1.286 . S
C929 U926 2.984 . S
C929 O927 1.353 . S
C929 O928 1.286 . S
C929 C931 1.363 . S
C930 C920 1.465 . S
C930 U926 2.847 . S
C930 O944 1.249 . S
C930 O945 1.202 . S
C931 C929 1.363 . S
C931 C933 1.408 . S
C931 C936 1.342 . S
C932 C933 1.310 . S
C932 C935 1.461 . S
C932 H952 0.932 . S
C933 C931 1.408 . S
C933 C932 1.310 . S
C933 H953 0.930 . S
C934 C935 1.474 . S
C934 C936 1.285 . S
C934 H954 0.929 . S
C935 C932 1.461 . S
C935 C934 1.474 . S
C936 C931 1.342 . S
C936 C934 1.285 . S
C936 H955 0.930 . S
C937 C940 1.424 . S
C937 C942 1.245 . S
C937 C943 1.428 . S
C938 C941 1.260 . S
C938 C942 1.477 . S
C938 H956 0.932 . S
C939 C940 1.384 . S
C939 C941 1.479 . S
C939 H957 0.929 . S
C940 C937 1.424 . S
C940 C939 1.384 . S
C940 H958 0.928 . S
C941 C938 1.260 . S
C941 C939 1.479 . S
C942 C937 1.245 . S
C942 C938 1.477 . S
C942 H959 0.932 . S
C943 U926 2.882 . S
C943 C937 1.428 . S
C943 O946 1.301 . S
C943 O947 1.282 . S
O944 U926 2.441 . S
O944 C930 1.249 . S
O945 U926 2.420 . S
O945 C930 1.202 . S
O946 U926 2.455 . S
O946 C943 1.301 . S
O947 U926 2.449 . S
O947 C943 1.282 . S
H948 C921 0.931 . S
H949 C923 0.929 . S
H950 C924 0.930 . S
H951 C925 0.931 . S
H952 C932 0.932 . S
H953 C933 0.930 . S
H954 C934 0.929 . S
H955 C936 0.930 . S
H956 C938 0.932 . S
H957 C939 0.929 . S
H958 C940 0.928 . S
H959 C942 0.932 . S
C960 C961 1.264 . S
C960 C965 1.479 . S
C960 C970 1.465 . S
C961 C960 1.264 . S
C961 C963 1.339 . S
C961 H988 0.931 . S
C962 C963 1.395 . S
C962 C964 1.320 . S
C963 C961 1.339 . S
C963 C962 1.395 . S
C963 H989 0.929 . S
C964 C962 1.320 . S
C964 C965 1.405 . S
C964 H990 0.930 . S
C965 C960 1.479 . S
C965 C964 1.405 . S
C965 H991 0.931 . S
U966 O967 2.454 . S
U966 O968 2.458 . S
U966 C969 2.984 . S
U966 C970 2.847 . S
U966 C983 2.882 . S
U966 O984 2.441 . S
U966 O985 2.420 . S
U966 O986 2.455 . S
U966 O987 2.449 . S
O967 U966 2.454 . S
O967 C969 1.353 . S
O968 U966 2.458 . S
O968 C969 1.286 . S
C969 U966 2.984 . S
C969 O967 1.353 . S
C969 O968 1.286 . S
C969 C971 1.363 . S
C970 C960 1.465 . S
C970 U966 2.847 . S
C970 O984 1.249 . S
C970 O985 1.202 . S
C971 C969 1.363 . S
C971 C973 1.408 . S
C971 C976 1.342 . S
C972 C973 1.310 . S
C972 C975 1.461 . S
C972 H992 0.932 . S
C973 C971 1.408 . S
C973 C972 1.310 . S
C973 H993 0.930 . S
C974 C975 1.474 . S
C974 C976 1.285 . S
C974 H994 0.929 . S
C975 C972 1.461 . S
C975 C974 1.474 . S
C976 C971 1.342 . S
C976 C974 1.285 . S
C976 H995 0.930 . S
C977 C980 1.424 . S
C977 C982 1.245 . S
C977 C983 1.428 . S
C978 C981 1.260 . S
C978 C982 1.477 . S
C978 H996 0.932 . S
C979 C980 1.384 . S
C979 C981 1.479 . S
C979 H997 0.929 . S
C980 C977 1.424 . S
C980 C979 1.384 . S
C980 H998 0.928 . S
C981 C978 1.260 . S
C981 C979 1.479 . S
C982 C977 1.245 . S
C982 C978 1.477 . S
C982 H999 0.932 . S
C983 U966 2.882 . S
C983 C977 1.428 . S
C983 O986 1.301 . S
C983 O987 1.282 . S
O984 U966 2.441 . S
O984 C970 1.249 . S
O985 U966 2.420 . S
O985 C970 1.202 . S
O986 U966 2.455 . S
O986 C983 1.301 . S
O987 U966 2.449 . S
O987 C983 1.282 . S
H988 C961 0.931 . S
H989 C963 0.929 . S
H990 C964 0.930 . S
H991 C965 0.931 . S
H992 C972 0.932 . S
H993 C973 0.930 . S
H994 C974 0.929 . S
H995 C976 0.930 . S
H996 C978 0.932 . S
H997 C979 0.929 . S
H998 C980 0.928 . S
H999 C982 0.932 . S
C1000 C1001 1.264 . S
C1000 C1005 1.479 . S
C1000 C1010 1.465 . S
C1001 C1000 1.264 . S
C1001 C1003 1.339 . S
C1001 H1028 0.931 . S
C1002 C1003 1.395 . S
C1002 C1004 1.320 . S
C1003 C1001 1.339 . S
C1003 C1002 1.395 . S
C1003 H1029 0.929 . S
C1004 C1002 1.320 . S
C1004 C1005 1.405 . S
C1004 H1030 0.930 . S
C1005 C1000 1.479 . S
C1005 C1004 1.405 . S
C1005 H1031 0.931 . S
U1006 O1007 2.454 . S
U1006 O1008 2.458 . S
U1006 C1009 2.984 . S
U1006 C1010 2.847 . S
U1006 C1023 2.882 . S
U1006 O1024 2.441 . S
U1006 O1025 2.420 . S
U1006 O1026 2.455 . S
U1006 O1027 2.449 . S
O1007 U1006 2.454 . S
O1007 C1009 1.353 . S
O1008 U1006 2.458 . S
O1008 C1009 1.286 . S
C1009 U1006 2.984 . S
C1009 O1007 1.353 . S
C1009 O1008 1.286 . S
C1009 C1011 1.363 . S
C1010 C1000 1.465 . S
C1010 U1006 2.847 . S
C1010 O1024 1.249 . S
C1010 O1025 1.202 . S
C1011 C1009 1.363 . S
C1011 C1013 1.408 . S
C1011 C1016 1.342 . S
C1012 C1013 1.310 . S
C1012 C1015 1.461 . S
C1012 H1032 0.932 . S
C1013 C1011 1.408 . S
C1013 C1012 1.310 . S
C1013 H1033 0.930 . S
C1014 C1015 1.474 . S
C1014 C1016 1.285 . S
C1014 H1034 0.929 . S
C1015 C1012 1.461 . S
C1015 C1014 1.474 . S
C1016 C1011 1.342 . S
C1016 C1014 1.285 . S
C1016 H1035 0.930 . S
C1017 C1020 1.424 . S
C1017 C1022 1.245 . S
C1017 C1023 1.428 . S
C1018 C1021 1.260 . S
C1018 C1022 1.477 . S
C1018 H1036 0.932 . S
C1019 C1020 1.384 . S
C1019 C1021 1.479 . S
C1019 H1037 0.929 . S
C1020 C1017 1.424 . S
C1020 C1019 1.384 . S
C1020 H1038 0.928 . S
C1021 C1018 1.260 . S
C1021 C1019 1.479 . S
C1022 C1017 1.245 . S
C1022 C1018 1.477 . S
C1022 H1039 0.932 . S
C1023 U1006 2.882 . S
C1023 C1017 1.428 . S
C1023 O1026 1.301 . S
C1023 O1027 1.282 . S
O1024 U1006 2.441 . S
O1024 C1010 1.249 . S
O1025 U1006 2.420 . S
O1025 C1010 1.202 . S
O1026 U1006 2.455 . S
O1026 C1023 1.301 . S
O1027 U1006 2.449 . S
O1027 C1023 1.282 . S
H1028 C1001 0.931 . S
H1029 C1003 0.929 . S
H1030 C1004 0.930 . S
H1031 C1005 0.931 . S
H1032 C1012 0.932 . S
H1033 C1013 0.930 . S
H1034 C1014 0.929 . S
H1035 C1016 0.930 . S
H1036 C1018 0.932 . S
H1037 C1019 0.929 . S
H1038 C1020 0.928 . S
H1039 C1022 0.932 . S
C1040 C1041 1.264 . S
C1040 C1045 1.479 . S
C1040 C1050 1.465 . S
C1041 C1040 1.264 . S
C1041 C1043 1.339 . S
C1041 H1068 0.931 . S
C1042 C1043 1.395 . S
C1042 C1044 1.320 . S
C1043 C1041 1.339 . S
C1043 C1042 1.395 . S
C1043 H1069 0.929 . S
C1044 C1042 1.320 . S
C1044 C1045 1.405 . S
C1044 H1070 0.930 . S
C1045 C1040 1.479 . S
C1045 C1044 1.405 . S
C1045 H1071 0.931 . S
U1046 O1047 2.454 . S
U1046 O1048 2.458 . S
U1046 C1049 2.984 . S
U1046 C1050 2.847 . S
U1046 C1063 2.882 . S
U1046 O1064 2.441 . S
U1046 O1065 2.420 . S
U1046 O1066 2.455 . S
U1046 O1067 2.449 . S
O1047 U1046 2.454 . S
O1047 C1049 1.353 . S
O1048 U1046 2.458 . S
O1048 C1049 1.286 . S
C1049 U1046 2.984 . S
C1049 O1047 1.353 . S
C1049 O1048 1.286 . S
C1049 C1051 1.363 . S
C1050 C1040 1.465 . S
C1050 U1046 2.847 . S
C1050 O1064 1.249 . S
C1050 O1065 1.202 . S
C1051 C1049 1.363 . S
C1051 C1053 1.408 . S
C1051 C1056 1.342 . S
C1052 C1053 1.310 . S
C1052 C1055 1.461 . S
C1052 H1072 0.932 . S
C1053 C1051 1.408 . S
C1053 C1052 1.310 . S
C1053 H1073 0.930 . S
C1054 C1055 1.474 . S
C1054 C1056 1.285 . S
C1054 H1074 0.929 . S
C1055 C1052 1.461 . S
C1055 C1054 1.474 . S
C1056 C1051 1.342 . S
C1056 C1054 1.285 . S
C1056 H1075 0.930 . S
C1057 C1060 1.424 . S
C1057 C1062 1.245 . S
C1057 C1063 1.428 . S
C1058 C1061 1.260 . S
C1058 C1062 1.477 . S
C1058 H1076 0.932 . S
C1059 C1060 1.384 . S
C1059 C1061 1.479 . S
C1059 H1077 0.929 . S
C1060 C1057 1.424 . S
C1060 C1059 1.384 . S
C1060 H1078 0.928 . S
C1061 C1058 1.260 . S
C1061 C1059 1.479 . S
C1062 C1057 1.245 . S
C1062 C1058 1.477 . S
C1062 H1079 0.932 . S
C1063 U1046 2.882 . S
C1063 C1057 1.428 . S
C1063 O1066 1.301 . S
C1063 O1067 1.282 . S
O1064 U1046 2.441 . S
O1064 C1050 1.249 . S
O1065 U1046 2.420 . S
O1065 C1050 1.202 . S
O1066 U1046 2.455 . S
O1066 C1063 1.301 . S
O1067 U1046 2.449 . S
O1067 C1063 1.282 . S
H1068 C1041 0.931 . S
H1069 C1043 0.929 . S
H1070 C1044 0.930 . S
H1071 C1045 0.931 . S
H1072 C1052 0.932 . S
H1073 C1053 0.930 . S
H1074 C1054 0.929 . S
H1075 C1056 0.930 . S
H1076 C1058 0.932 . S
H1077 C1059 0.929 . S
H1078 C1060 0.928 . S
H1079 C1062 0.932 . S
C1080 C1081 1.264 . S
C1080 C1085 1.479 . S
C1080 C1090 1.465 . S
C1081 C1080 1.264 . S
C1081 C1083 1.339 . S
C1081 H1108 0.931 . S
C1082 C1083 1.395 . S
C1082 C1084 1.320 . S
C1083 C1081 1.339 . S
C1083 C1082 1.395 . S
C1083 H1109 0.929 . S
C1084 C1082 1.320 . S
C1084 C1085 1.405 . S
C1084 H1110 0.930 . S
C1085 C1080 1.479 . S
C1085 C1084 1.405 . S
C1085 H1111 0.931 . S
U1086 O1087 2.454 . S
U1086 O1088 2.458 . S
U1086 C1089 2.984 . S
U1086 C1090 2.847 . S
U1086 C1103 2.882 . S
U1086 O1104 2.441 . S
U1086 O1105 2.420 . S
U1086 O1106 2.455 . S
U1086 O1107 2.449 . S
O1087 U1086 2.454 . S
O1087 C1089 1.353 . S
O1088 U1086 2.458 . S
O1088 C1089 1.286 . S
C1089 U1086 2.984 . S
C1089 O1087 1.353 . S
C1089 O1088 1.286 . S
C1089 C1091 1.363 . S
C1090 C1080 1.465 . S
C1090 U1086 2.847 . S
C1090 O1104 1.249 . S
C1090 O1105 1.202 . S
C1091 C1089 1.363 . S
C1091 C1093 1.408 . S
C1091 C1096 1.342 . S
C1092 C1093 1.310 . S
C1092 C1095 1.461 . S
C1092 H1112 0.932 . S
C1093 C1091 1.408 . S
C1093 C1092 1.310 . S
C1093 H1113 0.930 . S
C1094 C1095 1.474 . S
C1094 C1096 1.285 . S
C1094 H1114 0.929 . S
C1095 C1092 1.461 . S
C1095 C1094 1.474 . S
C1096 C1091 1.342 . S
C1096 C1094 1.285 . S
C1096 H1115 0.930 . S
C1097 C1100 1.424 . S
C1097 C1102 1.245 . S
C1097 C1103 1.428 . S
C1098 C1101 1.260 . S
C1098 C1102 1.477 . S
C1098 H1116 0.932 . S
C1099 C1100 1.384 . S
C1099 C1101 1.479 . S
C1099 H1117 0.929 . S
C1100 C1097 1.424 . S
C1100 C1099 1.384 . S
C1100 H1118 0.928 . S
C1101 C1098 1.260 . S
C1101 C1099 1.479 . S
C1102 C1097 1.245 . S
C1102 C1098 1.477 . S
C1102 H1119 0.932 . S
C1103 U1086 2.882 . S
C1103 C1097 1.428 . S
C1103 O1106 1.301 . S
C1103 O1107 1.282 . S
O1104 U1086 2.441 . S
O1104 C1090 1.249 . S
O1105 U1086 2.420 . S
O1105 C1090 1.202 . S
O1106 U1086 2.455 . S
O1106 C1103 1.301 . S
O1107 U1086 2.449 . S
O1107 C1103 1.282 . S
H1108 C1081 0.931 . S
H1109 C1083 0.929 . S
H1110 C1084 0.930 . S
H1111 C1085 0.931 . S
H1112 C1092 0.932 . S
H1113 C1093 0.930 . S
H1114 C1094 0.929 . S
H1115 C1096 0.930 . S
H1116 C1098 0.932 . S
H1117 C1099 0.929 . S
H1118 C1100 0.928 . S
H1119 C1102 0.932 . S
C1120 C1121 1.264 . S
C1120 C1125 1.479 . S
C1120 C1130 1.465 . S
C1121 C1120 1.264 . S
C1121 C1123 1.339 . S
C1121 H1148 0.931 . S
C1122 C1123 1.395 . S
C1122 C1124 1.320 . S
C1123 C1121 1.339 . S
C1123 C1122 1.395 . S
C1123 H1149 0.929 . S
C1124 C1122 1.320 . S
C1124 C1125 1.405 . S
C1124 H1150 0.930 . S
C1125 C1120 1.479 . S
C1125 C1124 1.405 . S
C1125 H1151 0.931 . S
U1126 O1127 2.454 . S
U1126 O1128 2.458 . S
U1126 C1129 2.984 . S
U1126 C1130 2.847 . S
U1126 C1143 2.882 . S
U1126 O1144 2.441 . S
U1126 O1145 2.420 . S
U1126 O1146 2.455 . S
U1126 O1147 2.449 . S
O1127 U1126 2.454 . S
O1127 C1129 1.353 . S
O1128 U1126 2.458 . S
O1128 C1129 1.286 . S
C1129 U1126 2.984 . S
C1129 O1127 1.353 . S
C1129 O1128 1.286 . S
C1129 C1131 1.363 . S
C1130 C1120 1.465 . S
C1130 U1126 2.847 . S
C1130 O1144 1.249 . S
C1130 O1145 1.202 . S
C1131 C1129 1.363 . S
C1131 C1133 1.408 . S
C1131 C1136 1.342 . S
C1132 C1133 1.310 . S
C1132 C1135 1.461 . S
C1132 H1152 0.932 . S
C1133 C1131 1.408 . S
C1133 C1132 1.310 . S
C1133 H1153 0.930 . S
C1134 C1135 1.474 . S
C1134 C1136 1.285 . S
C1134 H1154 0.929 . S
C1135 C1132 1.461 . S
C1135 C1134 1.474 . S
C1136 C1131 1.342 . S
C1136 C1134 1.285 . S
C1136 H1155 0.930 . S
C1137 C1140 1.424 . S
C1137 C1142 1.245 . S
C1137 C1143 1.428 . S
C1138 C1141 1.260 . S
C1138 C1142 1.477 . S
C1138 H1156 0.932 . S
C1139 C1140 1.384 . S
C1139 C1141 1.479 . S
C1139 H1157 0.929 . S
C1140 C1137 1.424 . S
C1140 C1139 1.384 . S
C1140 H1158 0.928 . S
C1141 C1138 1.260 . S
C1141 C1139 1.479 . S
C1142 C1137 1.245 . S
C1142 C1138 1.477 . S
C1142 H1159 0.932 . S
C1143 U1126 2.882 . S
C1143 C1137 1.428 . S
C1143 O1146 1.301 . S
C1143 O1147 1.282 . S
O1144 U1126 2.441 . S
O1144 C1130 1.249 . S
O1145 U1126 2.420 . S
O1145 C1130 1.202 . S
O1146 U1126 2.455 . S
O1146 C1143 1.301 . S
O1147 U1126 2.449 . S
O1147 C1143 1.282 . S
H1148 C1121 0.931 . S
H1149 C1123 0.929 . S
H1150 C1124 0.930 . S
H1151 C1125 0.931 . S
H1152 C1132 0.932 . S
H1153 C1133 0.930 . S
H1154 C1134 0.929 . S
H1155 C1136 0.930 . S
H1156 C1138 0.932 . S
H1157 C1139 0.929 . S
H1158 C1140 0.928 . S
H1159 C1142 0.932 . S
C1160 C1161 1.264 . S
C1160 C1165 1.479 . S
C1160 C1170 1.465 . S
C1161 C1160 1.264 . S
C1161 C1163 1.339 . S
C1161 H1188 0.931 . S
C1162 C1163 1.395 . S
C1162 C1164 1.320 . S
C1163 C1161 1.339 . S
C1163 C1162 1.395 . S
C1163 H1189 0.929 . S
C1164 C1162 1.320 . S
C1164 C1165 1.405 . S
C1164 H1190 0.930 . S
C1165 C1160 1.479 . S
C1165 C1164 1.405 . S
C1165 H1191 0.931 . S
U1166 O1167 2.454 . S
U1166 O1168 2.458 . S
U1166 C1169 2.984 . S
U1166 C1170 2.847 . S
U1166 C1183 2.882 . S
U1166 O1184 2.441 . S
U1166 O1185 2.420 . S
U1166 O1186 2.455 . S
U1166 O1187 2.449 . S
O1167 U1166 2.454 . S
O1167 C1169 1.353 . S
O1168 U1166 2.458 . S
O1168 C1169 1.286 . S
C1169 U1166 2.984 . S
C1169 O1167 1.353 . S
C1169 O1168 1.286 . S
C1169 C1171 1.363 . S
C1170 C1160 1.465 . S
C1170 U1166 2.847 . S
C1170 O1184 1.249 . S
C1170 O1185 1.202 . S
C1171 C1169 1.363 . S
C1171 C1173 1.408 . S
C1171 C1176 1.342 . S
C1172 C1173 1.310 . S
C1172 C1175 1.461 . S
C1172 H1192 0.932 . S
C1173 C1171 1.408 . S
C1173 C1172 1.310 . S
C1173 H1193 0.930 . S
C1174 C1175 1.474 . S
C1174 C1176 1.285 . S
C1174 H1194 0.929 . S
C1175 C1172 1.461 . S
C1175 C1174 1.474 . S
C1176 C1171 1.342 . S
C1176 C1174 1.285 . S
C1176 H1195 0.930 . S
C1177 C1180 1.424 . S
C1177 C1182 1.245 . S
C1177 C1183 1.428 . S
C1178 C1181 1.260 . S
C1178 C1182 1.477 . S
C1178 H1196 0.932 . S
C1179 C1180 1.384 . S
C1179 C1181 1.479 . S
C1179 H1197 0.929 . S
C1180 C1177 1.424 . S
C1180 C1179 1.384 . S
C1180 H1198 0.928 . S
C1181 C1178 1.260 . S
C1181 C1179 1.479 . S
C1182 C1177 1.245 . S
C1182 C1178 1.477 . S
C1182 H1199 0.932 . S
C1183 U1166 2.882 . S
C1183 C1177 1.428 . S
C1183 O1186 1.301 . S
C1183 O1187 1.282 . S
O1184 U1166 2.441 . S
O1184 C1170 1.249 . S
O1185 U1166 2.420 . S
O1185 C1170 1.202 . S
O1186 U1166 2.455 . S
O1186 C1183 1.301 . S
O1187 U1166 2.449 . S
O1187 C1183 1.282 . S
H1188 C1161 0.931 . S
H1189 C1163 0.929 . S
H1190 C1164 0.930 . S
H1191 C1165 0.931 . S
H1192 C1172 0.932 . S
H1193 C1173 0.930 . S
H1194 C1174 0.929 . S
H1195 C1176 0.930 . S
H1196 C1178 0.932 . S
H1197 C1179 0.929 . S
H1198 C1180 0.928 . S
H1199 C1182 0.932 . S
C1200 C1201 1.264 . S
C1200 C1205 1.479 . S
C1200 C1210 1.465 . S
C1201 C1200 1.264 . S
C1201 C1203 1.339 . S
C1201 H1228 0.931 . S
C1202 C1203 1.395 . S
C1202 C1204 1.320 . S
C1203 C1201 1.339 . S
C1203 C1202 1.395 . S
C1203 H1229 0.929 . S
C1204 C1202 1.320 . S
C1204 C1205 1.405 . S
C1204 H1230 0.930 . S
C1205 C1200 1.479 . S
C1205 C1204 1.405 . S
C1205 H1231 0.931 . S
U1206 O1207 2.454 . S
U1206 O1208 2.458 . S
U1206 C1209 2.984 . S
U1206 C1210 2.847 . S
U1206 C1223 2.882 . S
U1206 O1224 2.441 . S
U1206 O1225 2.420 . S
U1206 O1226 2.455 . S
U1206 O1227 2.449 . S
O1207 U1206 2.454 . S
O1207 C1209 1.353 . S
O1208 U1206 2.458 . S
O1208 C1209 1.286 . S
C1209 U1206 2.984 . S
C1209 O1207 1.353 . S
C1209 O1208 1.286 . S
C1209 C1211 1.363 . S
C1210 C1200 1.465 . S
C1210 U1206 2.847 . S
C1210 O1224 1.249 . S
C1210 O1225 1.202 . S
C1211 C1209 1.363 . S
C1211 C1213 1.408 . S
C1211 C1216 1.342 . S
C1212 C1213 1.310 . S
C1212 C1215 1.461 . S
C1212 H1232 0.932 . S
C1213 C1211 1.408 . S
C1213 C1212 1.310 . S
C1213 H1233 0.930 . S
C1214 C1215 1.474 . S
C1214 C1216 1.285 . S
C1214 H1234 0.929 . S
C1215 C1212 1.461 . S
C1215 C1214 1.474 . S
C1216 C1211 1.342 . S
C1216 C1214 1.285 . S
C1216 H1235 0.930 . S
C1217 C1220 1.424 . S
C1217 C1222 1.245 . S
C1217 C1223 1.428 . S
C1218 C1221 1.260 . S
C1218 C1222 1.477 . S
C1218 H1236 0.932 . S
C1219 C1220 1.384 . S
C1219 C1221 1.479 . S
C1219 H1237 0.929 . S
C1220 C1217 1.424 . S
C1220 C1219 1.384 . S
C1220 H1238 0.928 . S
C1221 C1218 1.260 . S
C1221 C1219 1.479 . S
C1222 C1217 1.245 . S
C1222 C1218 1.477 . S
C1222 H1239 0.932 . S
C1223 U1206 2.882 . S
C1223 C1217 1.428 . S
C1223 O1226 1.301 . S
C1223 O1227 1.282 . S
O1224 U1206 2.441 . S
O1224 C1210 1.249 . S
O1225 U1206 2.420 . S
O1225 C1210 1.202 . S
O1226 U1206 2.455 . S
O1226 C1223 1.301 . S
O1227 U1206 2.449 . S
O1227 C1223 1.282 . S
H1228 C1201 0.931 . S
H1229 C1203 0.929 . S
H1230 C1204 0.930 . S
H1231 C1205 0.931 . S
H1232 C1212 0.932 . S
H1233 C1213 0.930 . S
H1234 C1214 0.929 . S
H1235 C1216 0.930 . S
H1236 C1218 0.932 . S
H1237 C1219 0.929 . S
H1238 C1220 0.928 . S
H1239 C1222 0.932 . S
C1240 C1241 1.264 . S
C1240 C1245 1.479 . S
C1240 C1250 1.465 . S
C1241 C1240 1.264 . S
C1241 C1243 1.339 . S
C1241 H1268 0.931 . S
C1242 C1243 1.395 . S
C1242 C1244 1.320 . S
C1243 C1241 1.339 . S
C1243 C1242 1.395 . S
C1243 H1269 0.929 . S
C1244 C1242 1.320 . S
C1244 C1245 1.405 . S
C1244 H1270 0.930 . S
C1245 C1240 1.479 . S
C1245 C1244 1.405 . S
C1245 H1271 0.931 . S
U1246 O1247 2.454 . S
U1246 O1248 2.458 . S
U1246 C1249 2.984 . S
U1246 C1250 2.847 . S
U1246 C1263 2.882 . S
U1246 O1264 2.441 . S
U1246 O1265 2.420 . S
U1246 O1266 2.455 . S
U1246 O1267 2.449 . S
O1247 U1246 2.454 . S
O1247 C1249 1.353 . S
O1248 U1246 2.458 . S
O1248 C1249 1.286 . S
C1249 U1246 2.984 . S
C1249 O1247 1.353 . S
C1249 O1248 1.286 . S
C1249 C1251 1.363 . S
C1250 C1240 1.465 . S
C1250 U1246 2.847 . S
C1250 O1264 1.249 . S
C1250 O1265 1.202 . S
C1251 C1249 1.363 . S
C1251 C1253 1.408 . S
C1251 C1256 1.342 . S
C1252 C1253 1.310 . S
C1252 C1255 1.461 . S
C1252 H1272 0.932 . S
C1253 C1251 1.408 . S
C1253 C1252 1.310 . S
C1253 H1273 0.930 . S
C1254 C1255 1.474 . S
C1254 C1256 1.285 . S
C1254 H1274 0.929 . S
C1255 C1252 1.461 . S
C1255 C1254 1.474 . S
C1256 C1251 1.342 . S
C1256 C1254 1.285 . S
C1256 H1275 0.930 . S
C1257 C1260 1.424 . S
C1257 C1262 1.245 . S
C1257 C1263 1.428 . S
C1258 C1261 1.260 . S
C1258 C1262 1.477 . S
C1258 H1276 0.932 . S
C1259 C1260 1.384 . S
C1259 C1261 1.479 . S
C1259 H1277 0.929 . S
C1260 C1257 1.424 . S
C1260 C1259 1.384 . S
C1260 H1278 0.928 . S
C1261 C1258 1.260 . S
C1261 C1259 1.479 . S
C1262 C1257 1.245 . S
C1262 C1258 1.477 . S
C1262 H1279 0.932 . S
C1263 U1246 2.882 . S
C1263 C1257 1.428 . S
C1263 O1266 1.301 . S
C1263 O1267 1.282 . S
O1264 U1246 2.441 . S
O1264 C1250 1.249 . S
O1265 U1246 2.420 . S
O1265 C1250 1.202 . S
O1266 U1246 2.455 . S
O1266 C1263 1.301 . S
O1267 U1246 2.449 . S
O1267 C1263 1.282 . S
H1268 C1241 0.931 . S
H1269 C1243 0.929 . S
H1270 C1244 0.930 . S
H1271 C1245 0.931 . S
H1272 C1252 0.932 . S
H1273 C1253 0.930 . S
H1274 C1254 0.929 . S
H1275 C1256 0.930 . S
H1276 C1258 0.932 . S
H1277 C1259 0.929 . S
H1278 C1260 0.928 . S
H1279 C1262 0.932 . S
H1280 C1288 0.930 . S
H1281 C1291 0.930 . S
H1282 C1293 0.930 . S
H1283 C1294 0.970 . S
H1284 C1294 0.970 . S
H1285 C1296 0.930 . S
H1286 C1298 0.930 . S
H1287 C1300 0.930 . S
C1288 H1280 0.930 . S
C1288 C1289 1.382 . S
C1288 C1290 1.426 . S
C1289 C1288 1.382 . S
C1289 C1293 1.389 . S
C1290 C1288 1.426 . S
C1290 C1291 1.375 . S
C1290 C1294 1.532 1_556 S
C1291 H1281 0.930 . S
C1291 C1290 1.375 . S
C1291 C1292 1.416 . S
C1292 C1291 1.416 . S
C1292 C1293 1.371 . S
C1293 H1282 0.930 . S
C1293 C1289 1.389 . S
C1293 C1292 1.371 . S
C1294 H1283 0.970 . S
C1294 H1284 0.970 . S
C1294 C1290 1.532 1_554 S
C1294 C1295 1.499 . S
C1295 C1294 1.499 . S
C1295 C1296 1.370 . S
C1295 C1300 1.415 . S
C1296 H1285 0.930 . S
C1296 C1295 1.370 . S
C1296 C1297 1.407 . S
C1297 C1296 1.407 . S
C1297 C1298 1.365 . S
C1298 H1286 0.930 . S
C1298 C1297 1.365 . S
C1298 C1299 1.393 . S
C1299 C1298 1.393 . S
C1299 C1300 1.387 . S
C1300 H1287 0.930 . S
C1300 C1295 1.415 . S
C1300 C1299 1.387 . S
H1301 C1309 0.930 . S
H1302 C1312 0.930 . S
H1303 C1314 0.930 . S
H1304 C1315 0.970 . S
H1305 C1315 0.970 . S
H1306 C1317 0.930 . S
H1307 C1319 0.930 . S
H1308 C1321 0.930 . S
C1309 H1301 0.930 . S
C1309 C1310 1.382 . S
C1309 C1311 1.426 . S
C1310 C1309 1.382 . S
C1310 C1314 1.389 . S
C1311 C1309 1.426 . S
C1311 C1312 1.375 . S
C1311 C1315 1.532 . S
C1312 H1302 0.930 . S
C1312 C1311 1.375 . S
C1312 C1313 1.416 . S
C1313 C1312 1.416 . S
C1313 C1314 1.371 . S
C1314 H1303 0.930 . S
C1314 C1310 1.389 . S
C1314 C1313 1.371 . S
C1315 H1304 0.970 . S
C1315 H1305 0.970 . S
C1315 C1311 1.532 . S
C1315 C1316 1.499 1_554 S
C1316 C1315 1.499 1_556 S
C1316 C1317 1.370 . S
C1316 C1321 1.415 . S
C1317 H1306 0.930 . S
C1317 C1316 1.370 . S
C1317 C1318 1.407 . S
C1318 C1317 1.407 . S
C1318 C1319 1.365 . S
C1319 H1307 0.930 . S
C1319 C1318 1.365 . S
C1319 C1320 1.393 . S
C1320 C1319 1.393 . S
C1320 C1321 1.387 . S
C1321 H1308 0.930 . S
C1321 C1316 1.415 . S
C1321 C1320 1.387 . S
H1322 C1330 0.930 . S
H1323 C1333 0.930 . S
H1324 C1335 0.930 . S
H1325 C1336 0.970 . S
H1326 C1336 0.970 . S
H1327 C1338 0.930 . S
H1328 C1340 0.930 . S
H1329 C1342 0.930 . S
C1330 H1322 0.930 . S
C1330 C1331 1.382 . S
C1330 C1332 1.426 . S
C1331 C1330 1.382 . S
C1331 C1335 1.389 . S
C1332 C1330 1.426 . S
C1332 C1333 1.375 . S
C1332 C1336 1.532 . S
C1333 H1323 0.930 . S
C1333 C1332 1.375 . S
C1333 C1334 1.416 . S
C1334 C1333 1.416 . S
C1334 C1335 1.371 . S
C1335 H1324 0.930 . S
C1335 C1331 1.389 . S
C1335 C1334 1.371 . S
C1336 H1325 0.970 . S
C1336 H1326 0.970 . S
C1336 C1332 1.532 . S
C1336 C1337 1.499 1_554 S
C1337 C1336 1.499 1_556 S
C1337 C1338 1.370 . S
C1337 C1342 1.415 . S
C1338 H1327 0.930 . S
C1338 C1337 1.370 . S
C1338 C1339 1.407 . S
C1339 C1338 1.407 . S
C1339 C1340 1.365 . S
C1340 H1328 0.930 . S
C1340 C1339 1.365 . S
C1340 C1341 1.393 . S
C1341 C1340 1.393 . S
C1341 C1342 1.387 . S
C1342 H1329 0.930 . S
C1342 C1337 1.415 . S
C1342 C1341 1.387 . S
H1343 C1351 0.930 . S
H1344 C1354 0.930 . S
H1345 C1356 0.930 . S
H1346 C1357 0.970 . S
H1347 C1357 0.970 . S
H1348 C1359 0.930 . S
H1349 C1361 0.930 . S
H1350 C1363 0.930 . S
C1351 H1343 0.930 . S
C1351 C1352 1.382 . S
C1351 C1353 1.426 . S
C1352 C1351 1.382 . S
C1352 C1356 1.389 . S
C1353 C1351 1.426 . S
C1353 C1354 1.375 . S
C1353 C1357 1.532 . S
C1354 H1344 0.930 . S
C1354 C1353 1.375 . S
C1354 C1355 1.416 . S
C1355 C1354 1.416 . S
C1355 C1356 1.371 . S
C1356 H1345 0.930 . S
C1356 C1352 1.389 . S
C1356 C1355 1.371 . S
C1357 H1346 0.970 . S
C1357 H1347 0.970 . S
C1357 C1353 1.532 . S
C1357 C1358 1.499 1_554 S
C1358 C1357 1.499 1_556 S
C1358 C1359 1.370 . S
C1358 C1363 1.415 . S
C1359 H1348 0.930 . S
C1359 C1358 1.370 . S
C1359 C1360 1.407 . S
C1360 C1359 1.407 . S
C1360 C1361 1.365 . S
C1361 H1349 0.930 . S
C1361 C1360 1.365 . S
C1361 C1362 1.393 . S
C1362 C1361 1.393 . S
C1362 C1363 1.387 . S
C1363 H1350 0.930 . S
C1363 C1358 1.415 . S
C1363 C1362 1.387 . S
H1364 C1372 0.930 . S
H1365 C1375 0.930 . S
H1366 C1377 0.930 . S
H1367 C1378 0.970 . S
H1368 C1378 0.970 . S
H1369 C1380 0.930 . S
H1370 C1382 0.930 . S
H1371 C1384 0.930 . S
C1372 H1364 0.930 . S
C1372 C1373 1.382 . S
C1372 C1374 1.426 . S
C1373 C1372 1.382 . S
C1373 C1377 1.389 . S
C1374 C1372 1.426 . S
C1374 C1375 1.375 . S
C1374 C1378 1.532 . S
C1375 H1365 0.930 . S
C1375 C1374 1.375 . S
C1375 C1376 1.416 . S
C1376 C1375 1.416 . S
C1376 C1377 1.371 . S
C1377 H1366 0.930 . S
C1377 C1373 1.389 . S
C1377 C1376 1.371 . S
C1378 H1367 0.970 . S
C1378 H1368 0.970 . S
C1378 C1374 1.532 . S
C1378 C1379 1.499 1_455 S
C1379 C1378 1.499 1_655 S
C1379 C1380 1.370 . S
C1379 C1384 1.415 . S
C1380 H1369 0.930 . S
C1380 C1379 1.370 . S
C1380 C1381 1.407 . S
C1381 C1380 1.407 . S
C1381 C1382 1.365 . S
C1382 H1370 0.930 . S
C1382 C1381 1.365 . S
C1382 C1383 1.393 . S
C1383 C1382 1.393 . S
C1383 C1384 1.387 . S
C1384 H1371 0.930 . S
C1384 C1379 1.415 . S
C1384 C1383 1.387 . S
H1385 C1393 0.930 . S
H1386 C1396 0.930 . S
H1387 C1398 0.930 . S
H1388 C1399 0.970 . S
H1389 C1399 0.970 . S
H1390 C1401 0.930 . S
H1391 C1403 0.930 . S
H1392 C1405 0.930 . S
C1393 H1385 0.930 . S
C1393 C1394 1.382 . S
C1393 C1395 1.426 . S
C1394 C1393 1.382 . S
C1394 C1398 1.389 . S
C1395 C1393 1.426 . S
C1395 C1396 1.375 . S
C1395 C1399 1.566 . S
C1396 H1386 0.930 . S
C1396 C1395 1.375 . S
C1396 C1397 1.416 . S
C1397 C1396 1.416 . S
C1397 C1398 1.371 . S
C1398 H1387 0.930 . S
C1398 C1394 1.389 . S
C1398 C1397 1.371 . S
C1399 H1388 0.970 . S
C1399 H1389 0.970 . S
C1399 C1395 1.566 . S
C1399 C1400 1.467 1_545 S
C1400 C1399 1.467 1_565 S
C1400 C1401 1.370 . S
C1400 C1405 1.415 . S
C1401 H1390 0.930 . S
C1401 C1400 1.370 . S
C1401 C1402 1.407 . S
C1402 C1401 1.407 . S
C1402 C1403 1.365 . S
C1403 H1391 0.930 . S
C1403 C1402 1.365 . S
C1403 C1404 1.393 . S
C1404 C1403 1.393 . S
C1404 C1405 1.387 . S
C1405 H1392 0.930 . S
C1405 C1400 1.415 . S
C1405 C1404 1.387 . S
H1406 C1414 0.930 . S
H1407 C1417 0.930 . S
H1408 C1419 0.930 . S
H1409 C1420 0.970 . S
H1410 C1420 0.970 . S
H1411 C1422 0.930 . S
H1412 C1424 0.930 . S
H1413 C1426 0.930 . S
C1414 H1406 0.930 . S
C1414 C1415 1.382 . S
C1414 C1416 1.426 . S
C1415 C1414 1.382 . S
C1415 C1419 1.389 . S
C1416 C1414 1.426 . S
C1416 C1417 1.375 . S
C1416 C1420 1.493 1_655 S
C1417 H1407 0.930 . S
C1417 C1416 1.375 . S
C1417 C1418 1.416 . S
C1418 C1417 1.416 . S
C1418 C1419 1.371 . S
C1419 H1408 0.930 . S
C1419 C1415 1.389 . S
C1419 C1418 1.371 . S
C1420 H1409 0.970 . S
C1420 H1410 0.970 . S
C1420 C1416 1.493 1_455 S
C1420 C1421 1.539 . S
C1421 C1420 1.539 . S
C1421 C1422 1.370 . S
C1421 C1426 1.415 . S
C1422 H1411 0.930 . S
C1422 C1421 1.370 . S
C1422 C1423 1.407 . S
C1423 C1422 1.407 . S
C1423 C1424 1.365 . S
C1424 H1412 0.930 . S
C1424 C1423 1.365 . S
C1424 C1425 1.393 . S
C1425 C1424 1.393 . S
C1425 C1426 1.387 . S
C1426 H1413 0.930 . S
C1426 C1421 1.415 . S
C1426 C1425 1.387 . S
H1427 C1435 0.930 . S
H1428 C1438 0.930 . S
H1429 C1440 0.930 . S
H1430 C1441 0.970 . S
H1431 C1441 0.970 . S
H1432 C1443 0.930 . S
H1433 C1445 0.930 . S
H1434 C1447 0.930 . S
C1435 H1427 0.930 . S
C1435 C1436 1.382 . S
C1435 C1437 1.426 . S
C1436 C1435 1.382 . S
C1436 C1440 1.389 . S
C1437 C1435 1.426 . S
C1437 C1438 1.375 . S
C1437 C1441 1.532 1_565 S
C1438 H1428 0.930 . S
C1438 C1437 1.375 . S
C1438 C1439 1.416 . S
C1439 C1438 1.416 . S
C1439 C1440 1.371 . S
C1440 H1429 0.930 . S
C1440 C1436 1.389 . S
C1440 C1439 1.371 . S
C1441 H1430 0.970 . S
C1441 H1431 0.970 . S
C1441 C1437 1.532 1_545 S
C1441 C1442 1.499 . S
C1442 C1441 1.499 . S
C1442 C1443 1.370 . S
C1442 C1447 1.415 . S
C1443 H1432 0.930 . S
C1443 C1442 1.370 . S
C1443 C1444 1.407 . S
C1444 C1443 1.407 . S
C1444 C1445 1.365 . S
C1445 H1433 0.930 . S
C1445 C1444 1.365 . S
C1445 C1446 1.393 . S
C1446 C1445 1.393 . S
C1446 C1447 1.387 . S
C1447 H1434 0.930 . S
C1447 C1442 1.415 . S
C1447 C1446 1.387 . S
H1448 C1456 0.930 . S
H1449 C1459 0.930 . S
H1450 C1461 0.930 . S
H1451 C1462 0.970 . S
H1452 C1462 0.970 . S
H1453 C1464 0.930 . S
H1454 C1466 0.930 . S
H1455 C1468 0.930 . S
C1456 H1448 0.930 . S
C1456 C1457 1.382 . S
C1456 C1458 1.426 . S
C1457 C1456 1.382 . S
C1457 C1461 1.389 . S
C1458 C1456 1.426 . S
C1458 C1459 1.375 . S
C1458 C1462 1.532 1_655 S
C1459 H1449 0.930 . S
C1459 C1458 1.375 . S
C1459 C1460 1.416 . S
C1460 C1459 1.416 . S
C1460 C1461 1.371 . S
C1461 H1450 0.930 . S
C1461 C1457 1.389 . S
C1461 C1460 1.371 . S
C1462 H1451 0.970 . S
C1462 H1452 0.970 . S
C1462 C1458 1.532 1_455 S
C1462 C1463 1.499 . S
C1463 C1462 1.499 . S
C1463 C1464 1.370 . S
C1463 C1468 1.415 . S
C1464 H1453 0.930 . S
C1464 C1463 1.370 . S
C1464 C1465 1.407 . S
C1465 C1464 1.407 . S
C1465 C1466 1.365 . S
C1466 H1454 0.930 . S
C1466 C1465 1.365 . S
C1466 C1467 1.393 . S
C1467 C1466 1.393 . S
C1467 C1468 1.387 . S
C1468 H1455 0.930 . S
C1468 C1463 1.415 . S
C1468 C1467 1.387 . S
H1469 C1477 0.930 . S
H1470 C1480 0.930 . S
H1471 C1482 0.930 . S
H1472 C1483 0.970 . S
H1473 C1483 0.970 . S
H1474 C1485 0.930 . S
H1475 C1487 0.930 . S
H1476 C1489 0.930 . S
C1477 H1469 0.930 . S
C1477 C1478 1.382 . S
C1477 C1479 1.426 . S
C1478 C1477 1.382 . S
C1478 C1482 1.389 . S
C1479 C1477 1.426 . S
C1479 C1480 1.375 . S
C1479 C1483 1.532 1_565 S
C1480 H1470 0.930 . S
C1480 C1479 1.375 . S
C1480 C1481 1.416 . S
C1481 C1480 1.416 . S
C1481 C1482 1.371 . S
C1482 H1471 0.930 . S
C1482 C1478 1.389 . S
C1482 C1481 1.371 . S
C1483 H1472 0.970 . S
C1483 H1473 0.970 . S
C1483 C1479 1.532 1_545 S
C1483 C1484 1.499 . S
C1484 C1483 1.499 . S
C1484 C1485 1.370 . S
C1484 C1489 1.415 . S
C1485 H1474 0.930 . S
C1485 C1484 1.370 . S
C1485 C1486 1.407 . S
C1486 C1485 1.407 . S
C1486 C1487 1.365 . S
C1487 H1475 0.930 . S
C1487 C1486 1.365 . S
C1487 C1488 1.393 . S
C1488 C1487 1.393 . S
C1488 C1489 1.387 . S
C1489 H1476 0.930 . S
C1489 C1484 1.415 . S
C1489 C1488 1.387 . S
H1490 C1498 0.930 . S
H1491 C1501 0.930 . S
H1492 C1503 0.930 . S
H1493 C1504 0.970 . S
H1494 C1504 0.970 . S
H1495 C1506 0.930 . S
H1496 C1508 0.930 . S
H1497 C1510 0.930 . S
C1498 H1490 0.930 . S
C1498 C1499 1.382 . S
C1498 C1500 1.426 . S
C1499 C1498 1.382 . S
C1499 C1503 1.389 . S
C1500 C1498 1.426 . S
C1500 C1501 1.375 . S
C1500 C1504 1.532 1_655 S
C1501 H1491 0.930 . S
C1501 C1500 1.375 . S
C1501 C1502 1.416 . S
C1502 C1501 1.416 . S
C1502 C1503 1.371 . S
C1503 H1492 0.930 . S
C1503 C1499 1.389 . S
C1503 C1502 1.371 . S
C1504 H1493 0.970 . S
C1504 H1494 0.970 . S
C1504 C1500 1.532 1_455 S
C1504 C1505 1.499 . S
C1505 C1504 1.499 . S
C1505 C1506 1.370 . S
C1505 C1510 1.415 . S
C1506 H1495 0.930 . S
C1506 C1505 1.370 . S
C1506 C1507 1.407 . S
C1507 C1506 1.407 . S
C1507 C1508 1.365 . S
C1508 H1496 0.930 . S
C1508 C1507 1.365 . S
C1508 C1509 1.393 . S
C1509 C1508 1.393 . S
C1509 C1510 1.387 . S
C1510 H1497 0.930 . S
C1510 C1505 1.415 . S
C1510 C1509 1.387 . S
H1511 C1519 0.930 . S
H1512 C1522 0.930 . S
H1513 C1524 0.930 . S
H1514 C1525 0.970 . S
H1515 C1525 0.970 . S
H1516 C1527 0.930 . S
H1517 C1529 0.930 . S
H1518 C1531 0.930 . S
C1519 H1511 0.930 . S
C1519 C1520 1.382 . S
C1519 C1521 1.426 . S
C1520 C1519 1.382 . S
C1520 C1524 1.389 . S
C1521 C1519 1.426 . S
C1521 C1522 1.375 . S
C1521 C1525 1.532 1_565 S
C1522 H1512 0.930 . S
C1522 C1521 1.375 . S
C1522 C1523 1.416 . S
C1523 C1522 1.416 . S
C1523 C1524 1.371 . S
C1524 H1513 0.930 . S
C1524 C1520 1.389 . S
C1524 C1523 1.371 . S
C1525 H1514 0.970 . S
C1525 H1515 0.970 . S
C1525 C1521 1.532 1_545 S
C1525 C1526 1.499 . S
C1526 C1525 1.499 . S
C1526 C1527 1.370 . S
C1526 C1531 1.415 . S
C1527 H1516 0.930 . S
C1527 C1526 1.370 . S
C1527 C1528 1.407 . S
C1528 C1527 1.407 . S
C1528 C1529 1.365 . S
C1529 H1517 0.930 . S
C1529 C1528 1.365 . S
C1529 C1530 1.393 . S
C1530 C1529 1.393 . S
C1530 C1531 1.387 . S
C1531 H1518 0.930 . S
C1531 C1526 1.415 . S
C1531 C1530 1.387 . S
H1532 C1540 0.930 . S
H1533 C1543 0.930 . S
H1534 C1545 0.930 . S
H1535 C1546 0.970 . S
H1536 C1546 0.970 . S
H1537 C1548 0.930 . S
H1538 C1550 0.930 . S
H1539 C1552 0.930 . S
C1540 H1532 0.930 . S
C1540 C1541 1.382 . S
C1540 C1542 1.426 . S
C1541 C1540 1.382 . S
C1541 C1545 1.389 . S
C1542 C1540 1.426 . S
C1542 C1543 1.375 . S
C1542 C1546 1.532 . S
C1543 H1533 0.930 . S
C1543 C1542 1.375 . S
C1543 C1544 1.416 . S
C1544 C1543 1.416 . S
C1544 C1545 1.371 . S
C1545 H1534 0.930 . S
C1545 C1541 1.389 . S
C1545 C1544 1.371 . S
C1546 H1535 0.970 . S
C1546 H1536 0.970 . S
C1546 C1542 1.532 . S
C1546 C1547 1.499 . S
C1547 C1546 1.499 . S
C1547 C1548 1.370 . S
C1547 C1552 1.415 . S
C1548 H1537 0.930 . S
C1548 C1547 1.370 . S
C1548 C1549 1.407 . S
C1549 C1548 1.407 . S
C1549 C1550 1.365 . S
C1550 H1538 0.930 . S
C1550 C1549 1.365 . S
C1550 C1551 1.393 . S
C1551 C1550 1.393 . S
C1551 C1552 1.387 . S
C1552 H1539 0.930 . S
C1552 C1547 1.415 . S
C1552 C1551 1.387 . S
H1553 C1561 0.930 . S
H1554 C1564 0.930 . S
H1555 C1566 0.930 . S
H1556 C1567 0.970 . S
H1557 C1567 0.970 . S
H1558 C1569 0.930 . S
H1559 C1571 0.930 . S
H1560 C1573 0.930 . S
C1561 H1553 0.930 . S
C1561 C1562 1.382 . S
C1561 C1563 1.426 . S
C1562 C1561 1.382 . S
C1562 C1566 1.389 . S
C1563 C1561 1.426 . S
C1563 C1564 1.375 . S
C1563 C1567 1.532 . S
C1564 H1554 0.930 . S
C1564 C1563 1.375 . S
C1564 C1565 1.416 . S
C1565 C1564 1.416 . S
C1565 C1566 1.371 . S
C1566 H1555 0.930 . S
C1566 C1562 1.389 . S
C1566 C1565 1.371 . S
C1567 H1556 0.970 . S
C1567 H1557 0.970 . S
C1567 C1563 1.532 . S
C1567 C1568 1.499 . S
C1568 C1567 1.499 . S
C1568 C1569 1.370 . S
C1568 C1573 1.415 . S
C1569 H1558 0.930 . S
C1569 C1568 1.370 . S
C1569 C1570 1.407 . S
C1570 C1569 1.407 . S
C1570 C1571 1.365 . S
C1571 H1559 0.930 . S
C1571 C1570 1.365 . S
C1571 C1572 1.393 . S
C1572 C1571 1.393 . S
C1572 C1573 1.387 . S
C1573 H1560 0.930 . S
C1573 C1568 1.415 . S
C1573 C1572 1.387 . S
H1574 C1582 0.930 . S
H1575 C1585 0.930 . S
H1576 C1587 0.930 . S
H1577 C1588 0.970 . S
H1578 C1588 0.970 . S
H1579 C1590 0.930 . S
H1580 C1592 0.930 . S
H1581 C1594 0.930 . S
C1582 H1574 0.930 . S
C1582 C1583 1.382 . S
C1582 C1584 1.426 . S
C1583 C1582 1.382 . S
C1583 C1587 1.389 . S
C1584 C1582 1.426 . S
C1584 C1585 1.375 . S
C1584 C1588 1.532 . S
C1585 H1575 0.930 . S
C1585 C1584 1.375 . S
C1585 C1586 1.416 . S
C1586 C1585 1.416 . S
C1586 C1587 1.371 . S
C1587 H1576 0.930 . S
C1587 C1583 1.389 . S
C1587 C1586 1.371 . S
C1588 H1577 0.970 . S
C1588 H1578 0.970 . S
C1588 C1584 1.532 . S
C1588 C1589 1.499 . S
C1589 C1588 1.499 . S
C1589 C1590 1.370 . S
C1589 C1594 1.415 . S
C1590 H1579 0.930 . S
C1590 C1589 1.370 . S
C1590 C1591 1.407 . S
C1591 C1590 1.407 . S
C1591 C1592 1.365 . S
C1592 H1580 0.930 . S
C1592 C1591 1.365 . S
C1592 C1593 1.393 . S
C1593 C1592 1.393 . S
C1593 C1594 1.387 . S
C1594 H1581 0.930 . S
C1594 C1589 1.415 . S
C1594 C1593 1.387 . S
H1595 C1603 0.930 . S
H1596 C1606 0.930 . S
H1597 C1608 0.930 . S
H1598 C1609 0.970 . S
H1599 C1609 0.970 . S
H1600 C1611 0.930 . S
H1601 C1613 0.930 . S
H1602 C1615 0.930 . S
C1603 H1595 0.930 . S
C1603 C1604 1.382 . S
C1603 C1605 1.426 . S
C1604 C1603 1.382 . S
C1604 C1608 1.389 . S
C1605 C1603 1.426 . S
C1605 C1606 1.375 . S
C1605 C1609 1.532 . S
C1606 H1596 0.930 . S
C1606 C1605 1.375 . S
C1606 C1607 1.416 . S
C1607 C1606 1.416 . S
C1607 C1608 1.371 . S
C1608 H1597 0.930 . S
C1608 C1604 1.389 . S
C1608 C1607 1.371 . S
C1609 H1598 0.970 . S
C1609 H1599 0.970 . S
C1609 C1605 1.532 . S
C1609 C1610 1.499 . S
C1610 C1609 1.499 . S
C1610 C1611 1.370 . S
C1610 C1615 1.415 . S
C1611 H1600 0.930 . S
C1611 C1610 1.370 . S
C1611 C1612 1.407 . S
C1612 C1611 1.407 . S
C1612 C1613 1.365 . S
C1613 H1601 0.930 . S
C1613 C1612 1.365 . S
C1613 C1614 1.393 . S
C1614 C1613 1.393 . S
C1614 C1615 1.387 . S
C1615 H1602 0.930 . S
C1615 C1610 1.415 . S
C1615 C1614 1.387 . S
H1616 C1624 0.930 . S
H1617 C1627 0.930 . S
H1618 C1629 0.930 . S
H1619 C1630 0.970 . S
H1620 C1630 0.970 . S
H1621 C1632 0.930 . S
H1622 C1634 0.930 . S
H1623 C1636 0.930 . S
C1624 H1616 0.930 . S
C1624 C1625 1.382 . S
C1624 C1626 1.426 . S
C1625 C1624 1.382 . S
C1625 C1629 1.389 . S
C1626 C1624 1.426 . S
C1626 C1627 1.375 . S
C1626 C1630 1.532 . S
C1627 H1617 0.930 . S
C1627 C1626 1.375 . S
C1627 C1628 1.416 . S
C1628 C1627 1.416 . S
C1628 C1629 1.371 . S
C1629 H1618 0.930 . S
C1629 C1625 1.389 . S
C1629 C1628 1.371 . S
C1630 H1619 0.970 . S
C1630 H1620 0.970 . S
C1630 C1626 1.532 . S
C1630 C1631 1.499 . S
C1631 C1630 1.499 . S
C1631 C1632 1.370 . S
C1631 C1636 1.415 . S
C1632 H1621 0.930 . S
C1632 C1631 1.370 . S
C1632 C1633 1.407 . S
C1633 C1632 1.407 . S
C1633 C1634 1.365 . S
C1634 H1622 0.930 . S
C1634 C1633 1.365 . S
C1634 C1635 1.393 . S
C1635 C1634 1.393 . S
C1635 C1636 1.387 . S
C1636 H1623 0.930 . S
C1636 C1631 1.415 . S
C1636 C1635 1.387 . S
H1637 C1645 0.930 . S
H1638 C1648 0.930 . S
H1639 C1650 0.930 . S
H1640 C1651 0.970 . S
H1641 C1651 0.970 . S
H1642 C1653 0.930 . S
H1643 C1655 0.930 . S
H1644 C1657 0.930 . S
C1645 H1637 0.930 . S
C1645 C1646 1.382 . S
C1645 C1647 1.426 . S
C1646 C1645 1.382 . S
C1646 C1650 1.389 . S
C1647 C1645 1.426 . S
C1647 C1648 1.375 . S
C1647 C1651 1.532 . S
C1648 H1638 0.930 . S
C1648 C1647 1.375 . S
C1648 C1649 1.416 . S
C1649 C1648 1.416 . S
C1649 C1650 1.371 . S
C1650 H1639 0.930 . S
C1650 C1646 1.389 . S
C1650 C1649 1.371 . S
C1651 H1640 0.970 . S
C1651 H1641 0.970 . S
C1651 C1647 1.532 . S
C1651 C1652 1.499 . S
C1652 C1651 1.499 . S
C1652 C1653 1.370 . S
C1652 C1657 1.415 . S
C1653 H1642 0.930 . S
C1653 C1652 1.370 . S
C1653 C1654 1.407 . S
C1654 C1653 1.407 . S
C1654 C1655 1.365 . S
C1655 H1643 0.930 . S
C1655 C1654 1.365 . S
C1655 C1656 1.393 . S
C1656 C1655 1.393 . S
C1656 C1657 1.387 . S
C1657 H1644 0.930 . S
C1657 C1652 1.415 . S
C1657 C1656 1.387 . S
H1658 C1666 0.930 . S
H1659 C1669 0.930 . S
H1660 C1671 0.930 . S
H1661 C1672 0.970 . S
H1662 C1672 0.970 . S
H1663 C1674 0.930 . S
H1664 C1676 0.930 . S
H1665 C1678 0.930 . S
C1666 H1658 0.930 . S
C1666 C1667 1.382 . S
C1666 C1668 1.426 . S
C1667 C1666 1.382 . S
C1667 C1671 1.389 . S
C1668 C1666 1.426 . S
C1668 C1669 1.375 . S
C1668 C1672 1.532 . S
C1669 H1659 0.930 . S
C1669 C1668 1.375 . S
C1669 C1670 1.416 . S
C1670 C1669 1.416 . S
C1670 C1671 1.371 . S
C1671 H1660 0.930 . S
C1671 C1667 1.389 . S
C1671 C1670 1.371 . S
C1672 H1661 0.970 . S
C1672 H1662 0.970 . S
C1672 C1668 1.532 . S
C1672 C1673 1.499 . S
C1673 C1672 1.499 . S
C1673 C1674 1.370 . S
C1673 C1678 1.415 . S
C1674 H1663 0.930 . S
C1674 C1673 1.370 . S
C1674 C1675 1.407 . S
C1675 C1674 1.407 . S
C1675 C1676 1.365 . S
C1676 H1664 0.930 . S
C1676 C1675 1.365 . S
C1676 C1677 1.393 . S
C1677 C1676 1.393 . S
C1677 C1678 1.387 . S
C1678 H1665 0.930 . S
C1678 C1673 1.415 . S
C1678 C1677 1.387 . S
H1679 C1687 0.930 . S
H1680 C1690 0.930 . S
H1681 C1692 0.930 . S
H1682 C1693 0.970 . S
H1683 C1693 0.970 . S
H1684 C1695 0.930 . S
H1685 C1697 0.930 . S
H1686 C1699 0.930 . S
C1687 H1679 0.930 . S
C1687 C1688 1.382 . S
C1687 C1689 1.426 . S
C1688 C1687 1.382 . S
C1688 C1692 1.389 . S
C1689 C1687 1.426 . S
C1689 C1690 1.375 . S
C1689 C1693 1.532 . S
C1690 H1680 0.930 . S
C1690 C1689 1.375 . S
C1690 C1691 1.416 . S
C1691 C1690 1.416 . S
C1691 C1692 1.371 . S
C1692 H1681 0.930 . S
C1692 C1688 1.389 . S
C1692 C1691 1.371 . S
C1693 H1682 0.970 . S
C1693 H1683 0.970 . S
C1693 C1689 1.532 . S
C1693 C1694 1.499 . S
C1694 C1693 1.499 . S
C1694 C1695 1.370 . S
C1694 C1699 1.415 . S
C1695 H1684 0.930 . S
C1695 C1694 1.370 . S
C1695 C1696 1.407 . S
C1696 C1695 1.407 . S
C1696 C1697 1.365 . S
C1697 H1685 0.930 . S
C1697 C1696 1.365 . S
C1697 C1698 1.393 . S
C1698 C1697 1.393 . S
C1698 C1699 1.387 . S
C1699 H1686 0.930 . S
C1699 C1694 1.415 . S
C1699 C1698 1.387 . S
H1700 C1708 0.930 . S
H1701 C1711 0.930 . S
H1702 C1713 0.930 . S
H1703 C1714 0.970 . S
H1704 C1714 0.970 . S
H1705 C1716 0.930 . S
H1706 C1718 0.930 . S
H1707 C1720 0.930 . S
C1708 H1700 0.930 . S
C1708 C1709 1.382 . S
C1708 C1710 1.426 . S
C1709 C1708 1.382 . S
C1709 C1713 1.389 . S
C1710 C1708 1.426 . S
C1710 C1711 1.375 . S
C1710 C1714 1.532 . S
C1711 H1701 0.930 . S
C1711 C1710 1.375 . S
C1711 C1712 1.416 . S
C1712 C1711 1.416 . S
C1712 C1713 1.371 . S
C1713 H1702 0.930 . S
C1713 C1709 1.389 . S
C1713 C1712 1.371 . S
C1714 H1703 0.970 . S
C1714 H1704 0.970 . S
C1714 C1710 1.532 . S
C1714 C1715 1.499 . S
C1715 C1714 1.499 . S
C1715 C1716 1.370 . S
C1715 C1720 1.415 . S
C1716 H1705 0.930 . S
C1716 C1715 1.370 . S
C1716 C1717 1.407 . S
C1717 C1716 1.407 . S
C1717 C1718 1.365 . S
C1718 H1706 0.930 . S
C1718 C1717 1.365 . S
C1718 C1719 1.393 . S
C1719 C1718 1.393 . S
C1719 C1720 1.387 . S
C1720 H1707 0.930 . S
C1720 C1715 1.415 . S
C1720 C1719 1.387 . S
H1721 C1729 0.930 . S
H1722 C1732 0.930 . S
H1723 C1734 0.930 . S
H1724 C1735 0.970 . S
H1725 C1735 0.970 . S
H1726 C1737 0.930 . S
H1727 C1739 0.930 . S
H1728 C1741 0.930 . S
C1729 H1721 0.930 . S
C1729 C1730 1.382 . S
C1729 C1731 1.426 . S
C1730 C1729 1.382 . S
C1730 C1734 1.389 . S
C1731 C1729 1.426 . S
C1731 C1732 1.375 . S
C1731 C1735 1.532 . S
C1732 H1722 0.930 . S
C1732 C1731 1.375 . S
C1732 C1733 1.416 . S
C1733 C1732 1.416 . S
C1733 C1734 1.371 . S
C1734 H1723 0.930 . S
C1734 C1730 1.389 . S
C1734 C1733 1.371 . S
C1735 H1724 0.970 . S
C1735 H1725 0.970 . S
C1735 C1731 1.532 . S
C1735 C1736 1.499 . S
C1736 C1735 1.499 . S
C1736 C1737 1.370 . S
C1736 C1741 1.415 . S
C1737 H1726 0.930 . S
C1737 C1736 1.370 . S
C1737 C1738 1.407 . S
C1738 C1737 1.407 . S
C1738 C1739 1.365 . S
C1739 H1727 0.930 . S
C1739 C1738 1.365 . S
C1739 C1740 1.393 . S
C1740 C1739 1.393 . S
C1740 C1741 1.387 . S
C1741 H1728 0.930 . S
C1741 C1736 1.415 . S
C1741 C1740 1.387 . S
H1742 C1750 0.930 . S
H1743 C1753 0.930 . S
H1744 C1755 0.930 . S
H1745 C1756 0.970 . S
H1746 C1756 0.970 . S
H1747 C1758 0.930 . S
H1748 C1760 0.930 . S
H1749 C1762 0.930 . S
C1750 H1742 0.930 . S
C1750 C1751 1.382 . S
C1750 C1752 1.426 . S
C1751 C1750 1.382 . S
C1751 C1755 1.389 . S
C1752 C1750 1.426 . S
C1752 C1753 1.375 . S
C1752 C1756 1.532 . S
C1753 H1743 0.930 . S
C1753 C1752 1.375 . S
C1753 C1754 1.416 . S
C1754 C1753 1.416 . S
C1754 C1755 1.371 . S
C1755 H1744 0.930 . S
C1755 C1751 1.389 . S
C1755 C1754 1.371 . S
C1756 H1745 0.970 . S
C1756 H1746 0.970 . S
C1756 C1752 1.532 . S
C1756 C1757 1.499 . S
C1757 C1756 1.499 . S
C1757 C1758 1.370 . S
C1757 C1762 1.415 . S
C1758 H1747 0.930 . S
C1758 C1757 1.370 . S
C1758 C1759 1.407 . S
C1759 C1758 1.407 . S
C1759 C1760 1.365 . S
C1760 H1748 0.930 . S
C1760 C1759 1.365 . S
C1760 C1761 1.393 . S
C1761 C1760 1.393 . S
C1761 C1762 1.387 . S
C1762 H1749 0.930 . S
C1762 C1757 1.415 . S
C1762 C1761 1.387 . S
H1763 C1771 0.930 . S
H1764 C1774 0.930 . S
H1765 C1776 0.930 . S
H1766 C1777 0.970 . S
H1767 C1777 0.970 . S
H1768 C1779 0.930 . S
H1769 C1781 0.930 . S
H1770 C1783 0.930 . S
C1771 H1763 0.930 . S
C1771 C1772 1.382 . S
C1771 C1773 1.426 . S
C1772 C1771 1.382 . S
C1772 C1776 1.389 . S
C1773 C1771 1.426 . S
C1773 C1774 1.375 . S
C1773 C1777 1.532 . S
C1774 H1764 0.930 . S
C1774 C1773 1.375 . S
C1774 C1775 1.416 . S
C1775 C1774 1.416 . S
C1775 C1776 1.371 . S
C1776 H1765 0.930 . S
C1776 C1772 1.389 . S
C1776 C1775 1.371 . S
C1777 H1766 0.970 . S
C1777 H1767 0.970 . S
C1777 C1773 1.532 . S
C1777 C1778 1.499 . S
C1778 C1777 1.499 . S
C1778 C1779 1.370 . S
C1778 C1783 1.415 . S
C1779 H1768 0.930 . S
C1779 C1778 1.370 . S
C1779 C1780 1.407 . S
C1780 C1779 1.407 . S
C1780 C1781 1.365 . S
C1781 H1769 0.930 . S
C1781 C1780 1.365 . S
C1781 C1782 1.393 . S
C1782 C1781 1.393 . S
C1782 C1783 1.387 . S
C1783 H1770 0.930 . S
C1783 C1778 1.415 . S
C1783 C1782 1.387 . S
H1784 C1802 0.951 . S
H1785 C1804 0.951 . S
H1786 C1806 0.950 . S
H1787 C1807 0.950 . S
H1788 C1809 0.950 . S
H1789 C1812 0.950 . S
H1790 C1813 0.950 . S
H1791 C1815 0.950 . S
H1792 C1816 0.950 . S
H1793 C1817 0.951 . S
H1794 C1819 0.951 . S
H1795 C1821 0.950 . S
H1796 C1822 0.950 . S
H1797 C1824 0.950 . S
H1798 C1827 0.950 . S
H1799 C1828 0.950 . S
H1800 C1830 0.950 . S
H1801 C1831 0.950 . S
C1802 H1784 0.951 . S
C1802 C1803 1.366 . S
C1802 C1804 1.388 . S
C1803 C1802 1.366 . S
C1803 C1807 1.385 . S
C1804 H1785 0.951 . S
C1804 C1802 1.388 . S
C1804 C1805 1.366 . S
C1805 C1804 1.366 . S
C1805 C1806 1.414 . S
C1805 C1808 1.499 . S
C1806 H1786 0.950 . S
C1806 C1805 1.414 . S
C1806 C1807 1.374 . S
C1807 H1787 0.950 . S
C1807 C1803 1.385 . S
C1807 C1806 1.374 . S
C1808 C1805 1.499 . S
C1808 C1809 1.373 . S
C1808 C1810 1.389 . S
C1809 H1788 0.950 . S
C1809 C1808 1.373 . S
C1809 C1825 1.377 . S
C1810 C1808 1.389 . S
C1810 C1811 1.524 . S
C1810 C1824 1.377 . S
C1811 C1810 1.524 . S
C1811 C1812 1.397 . S
C1811 C1816 1.363 . S
C1812 H1789 0.950 . S
C1812 C1811 1.397 . S
C1812 C1813 1.334 . S
C1813 H1790 0.950 . S
C1813 C1812 1.334 . S
C1813 C1814 1.287 . S
C1814 C1813 1.287 . S
C1814 C1815 1.524 . S
C1814 H1833 0.913 . S
C1815 H1791 0.950 . S
C1815 C1814 1.524 . S
C1815 C1816 1.415 . S
C1816 H1792 0.950 . S
C1816 C1811 1.363 . S
C1816 C1815 1.415 . S
C1817 H1793 0.951 . S
C1817 C1818 1.366 . S
C1817 C1819 1.388 . S
C1818 C1817 1.366 . S
C1818 C1822 1.385 . S
C1819 H1794 0.951 . S
C1819 C1817 1.388 . S
C1819 C1820 1.366 . S
C1820 C1819 1.366 . S
C1820 C1821 1.414 . S
C1820 C1823 1.499 . S
C1821 H1795 0.950 . S
C1821 C1820 1.414 . S
C1821 C1822 1.374 . S
C1822 H1796 0.950 . S
C1822 C1818 1.385 . S
C1822 C1821 1.374 . S
C1823 C1820 1.499 . S
C1823 C1824 1.373 . S
C1823 C1825 1.389 . S
C1824 H1797 0.950 . S
C1824 C1810 1.377 . S
C1824 C1823 1.373 . S
C1825 C1809 1.377 . S
C1825 C1823 1.389 . S
C1825 C1826 1.524 . S
C1826 C1825 1.524 . S
C1826 C1827 1.397 . S
C1826 C1831 1.363 . S
C1827 H1798 0.950 . S
C1827 C1826 1.397 . S
C1827 C1828 1.334 . S
C1828 H1799 0.950 . S
C1828 C1827 1.334 . S
C1828 C1829 1.287 . S
C1829 C1828 1.287 . S
C1829 C1830 1.524 . S
C1829 H1832 0.999 . S
C1830 H1800 0.950 . S
C1830 C1829 1.524 . S
C1830 C1831 1.415 . S
C1831 H1801 0.950 . S
C1831 C1826 1.363 . S
C1831 C1830 1.415 . S
H1832 C1829 0.999 . S
H1833 C1814 0.913 . S
H1834 C1852 0.951 . S
H1835 C1854 0.951 . S
H1836 C1856 0.950 . S
H1837 C1857 0.950 . S
H1838 C1859 0.950 . S
H1839 C1862 0.950 . S
H1840 C1863 0.950 . S
H1841 C1865 0.950 . S
H1842 C1866 0.950 . S
H1843 C1867 0.951 . S
H1844 C1869 0.951 . S
H1845 C1871 0.950 . S
H1846 C1872 0.950 . S
H1847 C1874 0.950 . S
H1848 C1877 0.950 . S
H1849 C1878 0.950 . S
H1850 C1880 0.950 . S
H1851 C1881 0.950 . S
C1852 H1834 0.951 . S
C1852 C1853 1.366 . S
C1852 C1854 1.388 . S
C1853 C1852 1.366 . S
C1853 C1857 1.385 . S
C1854 H1835 0.951 . S
C1854 C1852 1.388 . S
C1854 C1855 1.366 . S
C1855 C1854 1.366 . S
C1855 C1856 1.414 . S
C1855 C1858 1.499 . S
C1856 H1836 0.950 . S
C1856 C1855 1.414 . S
C1856 C1857 1.374 . S
C1857 H1837 0.950 . S
C1857 C1853 1.385 . S
C1857 C1856 1.374 . S
C1858 C1855 1.499 . S
C1858 C1859 1.373 . S
C1858 C1860 1.389 . S
C1859 H1838 0.950 . S
C1859 C1858 1.373 . S
C1859 C1875 1.377 . S
C1860 C1858 1.389 . S
C1860 C1861 1.524 . S
C1860 C1874 1.377 . S
C1861 C1860 1.524 . S
C1861 C1862 1.397 . S
C1861 C1866 1.363 . S
C1862 H1839 0.950 . S
C1862 C1861 1.397 . S
C1862 C1863 1.334 . S
C1863 H1840 0.950 . S
C1863 C1862 1.334 . S
C1863 C1864 1.287 . S
C1864 C1863 1.287 . S
C1864 C1865 1.524 . S
C1864 H1883 0.913 . S
C1865 H1841 0.950 . S
C1865 C1864 1.524 . S
C1865 C1866 1.415 . S
C1866 H1842 0.950 . S
C1866 C1861 1.363 . S
C1866 C1865 1.415 . S
C1867 H1843 0.951 . S
C1867 C1868 1.366 . S
C1867 C1869 1.388 . S
C1868 C1867 1.366 . S
C1868 C1872 1.385 . S
C1869 H1844 0.951 . S
C1869 C1867 1.388 . S
C1869 C1870 1.366 . S
C1870 C1869 1.366 . S
C1870 C1871 1.414 . S
C1870 C1873 1.499 . S
C1871 H1845 0.950 . S
C1871 C1870 1.414 . S
C1871 C1872 1.374 . S
C1872 H1846 0.950 . S
C1872 C1868 1.385 . S
C1872 C1871 1.374 . S
C1873 C1870 1.499 . S
C1873 C1874 1.373 . S
C1873 C1875 1.389 . S
C1874 H1847 0.950 . S
C1874 C1860 1.377 . S
C1874 C1873 1.373 . S
C1875 C1859 1.377 . S
C1875 C1873 1.389 . S
C1875 C1876 1.524 . S
C1876 C1875 1.524 . S
C1876 C1877 1.397 . S
C1876 C1881 1.363 . S
C1877 H1848 0.950 . S
C1877 C1876 1.397 . S
C1877 C1878 1.334 . S
C1878 H1849 0.950 . S
C1878 C1877 1.334 . S
C1878 C1879 1.287 . S
C1879 C1878 1.287 . S
C1879 C1880 1.524 . S
C1879 H1882 0.999 . S
C1880 H1850 0.950 . S
C1880 C1879 1.524 . S
C1880 C1881 1.415 . S
C1881 H1851 0.950 . S
C1881 C1876 1.363 . S
C1881 C1880 1.415 . S
H1882 C1879 0.999 . S
H1883 C1864 0.913 . S
H1884 C1902 0.951 . S
H1885 C1904 0.951 . S
H1886 C1906 0.950 . S
H1887 C1907 0.950 . S
H1888 C1909 0.950 . S
H1889 C1912 0.950 . S
H1890 C1913 0.950 . S
H1891 C1915 0.950 . S
H1892 C1916 0.950 . S
H1893 C1917 0.951 . S
H1894 C1919 0.951 . S
H1895 C1921 0.950 . S
H1896 C1922 0.950 . S
H1897 C1924 0.950 . S
H1898 C1927 0.950 . S
H1899 C1928 0.950 . S
H1900 C1930 0.950 . S
H1901 C1931 0.950 . S
C1902 H1884 0.951 . S
C1902 C1903 1.366 . S
C1902 C1904 1.388 . S
C1903 C1902 1.366 . S
C1903 C1907 1.385 . S
C1904 H1885 0.951 . S
C1904 C1902 1.388 . S
C1904 C1905 1.366 . S
C1905 C1904 1.366 . S
C1905 C1906 1.414 . S
C1905 C1908 1.499 . S
C1906 H1886 0.950 . S
C1906 C1905 1.414 . S
C1906 C1907 1.374 . S
C1907 H1887 0.950 . S
C1907 C1903 1.385 . S
C1907 C1906 1.374 . S
C1908 C1905 1.499 . S
C1908 C1909 1.373 . S
C1908 C1910 1.389 . S
C1909 H1888 0.950 . S
C1909 C1908 1.373 . S
C1909 C1925 1.377 . S
C1910 C1908 1.389 . S
C1910 C1911 1.524 . S
C1910 C1924 1.377 . S
C1911 C1910 1.524 . S
C1911 C1912 1.397 . S
C1911 C1916 1.363 . S
C1912 H1889 0.950 . S
C1912 C1911 1.397 . S
C1912 C1913 1.334 . S
C1913 H1890 0.950 . S
C1913 C1912 1.334 . S
C1913 C1914 1.287 . S
C1914 C1913 1.287 . S
C1914 C1915 1.524 . S
C1914 H1933 0.913 . S
C1915 H1891 0.950 . S
C1915 C1914 1.524 . S
C1915 C1916 1.415 . S
C1916 H1892 0.950 . S
C1916 C1911 1.363 . S
C1916 C1915 1.415 . S
C1917 H1893 0.951 . S
C1917 C1918 1.366 . S
C1917 C1919 1.388 . S
C1918 C1917 1.366 . S
C1918 C1922 1.385 . S
C1919 H1894 0.951 . S
C1919 C1917 1.388 . S
C1919 C1920 1.366 . S
C1920 C1919 1.366 . S
C1920 C1921 1.414 . S
C1920 C1923 1.499 . S
C1921 H1895 0.950 . S
C1921 C1920 1.414 . S
C1921 C1922 1.374 . S
C1922 H1896 0.950 . S
C1922 C1918 1.385 . S
C1922 C1921 1.374 . S
C1923 C1920 1.499 . S
C1923 C1924 1.373 . S
C1923 C1925 1.389 . S
C1924 H1897 0.950 . S
C1924 C1910 1.377 . S
C1924 C1923 1.373 . S
C1925 C1909 1.377 . S
C1925 C1923 1.389 . S
C1925 C1926 1.524 . S
C1926 C1925 1.524 . S
C1926 C1927 1.397 . S
C1926 C1931 1.363 . S
C1927 H1898 0.950 . S
C1927 C1926 1.397 . S
C1927 C1928 1.334 . S
C1928 H1899 0.950 . S
C1928 C1927 1.334 . S
C1928 C1929 1.287 . S
C1929 C1928 1.287 . S
C1929 C1930 1.524 . S
C1929 H1932 0.999 . S
C1930 H1900 0.950 . S
C1930 C1929 1.524 . S
C1930 C1931 1.415 . S
C1931 H1901 0.950 . S
C1931 C1926 1.363 . S
C1931 C1930 1.415 . S
H1932 C1929 0.999 . S
H1933 C1914 0.913 . S
H1934 C1952 0.951 . S
H1935 C1954 0.951 . S
H1936 C1956 0.950 . S
H1937 C1957 0.950 . S
H1938 C1959 0.950 . S
H1939 C1962 0.950 . S
H1940 C1963 0.950 . S
H1941 C1965 0.950 . S
H1942 C1966 0.950 . S
H1943 C1967 0.951 . S
H1944 C1969 0.951 . S
H1945 C1971 0.950 . S
H1946 C1972 0.950 . S
H1947 C1974 0.950 . S
H1948 C1977 0.950 . S
H1949 C1978 0.950 . S
H1950 C1980 0.950 . S
H1951 C1981 0.950 . S
C1952 H1934 0.951 . S
C1952 C1953 1.366 . S
C1952 C1954 1.388 . S
C1953 C1952 1.366 . S
C1953 C1957 1.385 . S
C1954 H1935 0.951 . S
C1954 C1952 1.388 . S
C1954 C1955 1.366 . S
C1955 C1954 1.366 . S
C1955 C1956 1.414 . S
C1955 C1958 1.499 . S
C1956 H1936 0.950 . S
C1956 C1955 1.414 . S
C1956 C1957 1.374 . S
C1957 H1937 0.950 . S
C1957 C1953 1.385 . S
C1957 C1956 1.374 . S
C1958 C1955 1.499 . S
C1958 C1959 1.373 . S
C1958 C1960 1.389 . S
C1959 H1938 0.950 . S
C1959 C1958 1.373 . S
C1959 C1975 1.377 . S
C1960 C1958 1.389 . S
C1960 C1961 1.524 . S
C1960 C1974 1.377 . S
C1961 C1960 1.524 . S
C1961 C1962 1.397 . S
C1961 C1966 1.363 . S
C1962 H1939 0.950 . S
C1962 C1961 1.397 . S
C1962 C1963 1.334 . S
C1963 H1940 0.950 . S
C1963 C1962 1.334 . S
C1963 C1964 1.287 . S
C1964 C1963 1.287 . S
C1964 C1965 1.524 . S
C1964 H1983 0.913 . S
C1965 H1941 0.950 . S
C1965 C1964 1.524 . S
C1965 C1966 1.415 . S
C1966 H1942 0.950 . S
C1966 C1961 1.363 . S
C1966 C1965 1.415 . S
C1967 H1943 0.951 . S
C1967 C1968 1.366 . S
C1967 C1969 1.388 . S
C1968 C1967 1.366 . S
C1968 C1972 1.385 . S
C1969 H1944 0.951 . S
C1969 C1967 1.388 . S
C1969 C1970 1.366 . S
C1970 C1969 1.366 . S
C1970 C1971 1.414 . S
C1970 C1973 1.499 . S
C1971 H1945 0.950 . S
C1971 C1970 1.414 . S
C1971 C1972 1.374 . S
C1972 H1946 0.950 . S
C1972 C1968 1.385 . S
C1972 C1971 1.374 . S
C1973 C1970 1.499 . S
C1973 C1974 1.373 . S
C1973 C1975 1.389 . S
C1974 H1947 0.950 . S
C1974 C1960 1.377 . S
C1974 C1973 1.373 . S
C1975 C1959 1.377 . S
C1975 C1973 1.389 . S
C1975 C1976 1.524 . S
C1976 C1975 1.524 . S
C1976 C1977 1.397 . S
C1976 C1981 1.363 . S
C1977 H1948 0.950 . S
C1977 C1976 1.397 . S
C1977 C1978 1.334 . S
C1978 H1949 0.950 . S
C1978 C1977 1.334 . S
C1978 C1979 1.287 . S
C1979 C1978 1.287 . S
C1979 C1980 1.524 . S
C1979 H1982 0.999 . S
C1980 H1950 0.950 . S
C1980 C1979 1.524 . S
C1980 C1981 1.415 . S
C1981 H1951 0.950 . S
C1981 C1976 1.363 . S
C1981 C1980 1.415 . S
H1982 C1979 0.999 . S
H1983 C1964 0.913 . S
H1984 C2002 0.951 . S
H1985 C2004 0.951 . S
H1986 C2006 0.950 . S
H1987 C2007 0.950 . S
H1988 C2009 0.950 . S
H1989 C2012 0.950 . S
H1990 C2013 0.950 . S
H1991 C2015 0.950 . S
H1992 C2016 0.950 . S
H1993 C2017 0.951 . S
H1994 C2019 0.951 . S
H1995 C2021 0.950 . S
H1996 C2022 0.950 . S
H1997 C2024 0.950 . S
H1998 C2027 0.950 . S
H1999 C2028 0.950 . S
H2000 C2030 0.950 . S
H2001 C2031 0.950 . S
C2002 H1984 0.951 . S
C2002 C2003 1.366 . S
C2002 C2004 1.388 . S
C2003 C2002 1.366 . S
C2003 C2007 1.385 . S
C2004 H1985 0.951 . S
C2004 C2002 1.388 . S
C2004 C2005 1.366 . S
C2005 C2004 1.366 . S
C2005 C2006 1.414 . S
C2005 C2008 1.499 . S
C2006 H1986 0.950 . S
C2006 C2005 1.414 . S
C2006 C2007 1.374 . S
C2007 H1987 0.950 . S
C2007 C2003 1.385 . S
C2007 C2006 1.374 . S
C2008 C2005 1.499 . S
C2008 C2009 1.373 . S
C2008 C2010 1.389 . S
C2009 H1988 0.950 . S
C2009 C2008 1.373 . S
C2009 C2025 1.377 . S
C2010 C2008 1.389 . S
C2010 C2011 1.524 . S
C2010 C2024 1.377 . S
C2011 C2010 1.524 . S
C2011 C2012 1.397 . S
C2011 C2016 1.363 . S
C2012 H1989 0.950 . S
C2012 C2011 1.397 . S
C2012 C2013 1.334 . S
C2013 H1990 0.950 . S
C2013 C2012 1.334 . S
C2013 C2014 1.287 . S
C2014 C2013 1.287 . S
C2014 C2015 1.524 . S
C2014 H2033 0.913 . S
C2015 H1991 0.950 . S
C2015 C2014 1.524 . S
C2015 C2016 1.415 . S
C2016 H1992 0.950 . S
C2016 C2011 1.363 . S
C2016 C2015 1.415 . S
C2017 H1993 0.951 . S
C2017 C2018 1.366 . S
C2017 C2019 1.388 . S
C2018 C2017 1.366 . S
C2018 C2022 1.385 . S
C2019 H1994 0.951 . S
C2019 C2017 1.388 . S
C2019 C2020 1.366 . S
C2020 C2019 1.366 . S
C2020 C2021 1.414 . S
C2020 C2023 1.499 . S
C2021 H1995 0.950 . S
C2021 C2020 1.414 . S
C2021 C2022 1.374 . S
C2022 H1996 0.950 . S
C2022 C2018 1.385 . S
C2022 C2021 1.374 . S
C2023 C2020 1.499 . S
C2023 C2024 1.373 . S
C2023 C2025 1.389 . S
C2024 H1997 0.950 . S
C2024 C2010 1.377 . S
C2024 C2023 1.373 . S
C2025 C2009 1.377 . S
C2025 C2023 1.389 . S
C2025 C2026 1.524 . S
C2026 C2025 1.524 . S
C2026 C2027 1.397 . S
C2026 C2031 1.363 . S
C2027 H1998 0.950 . S
C2027 C2026 1.397 . S
C2027 C2028 1.334 . S
C2028 H1999 0.950 . S
C2028 C2027 1.334 . S
C2028 C2029 1.287 . S
C2029 C2028 1.287 . S
C2029 C2030 1.524 . S
C2029 H2032 0.999 . S
C2030 H2000 0.950 . S
C2030 C2029 1.524 . S
C2030 C2031 1.415 . S
C2031 H2001 0.950 . S
C2031 C2026 1.363 . S
C2031 C2030 1.415 . S
H2032 C2029 0.999 . S
H2033 C2014 0.913 . S
H2034 C2052 0.951 . S
H2035 C2054 0.951 . S
H2036 C2056 0.950 . S
H2037 C2057 0.950 . S
H2038 C2059 0.950 . S
H2039 C2062 0.950 . S
H2040 C2063 0.950 . S
H2041 C2065 0.950 . S
H2042 C2066 0.950 . S
H2043 C2067 0.951 . S
H2044 C2069 0.951 . S
H2045 C2071 0.950 . S
H2046 C2072 0.950 . S
H2047 C2074 0.950 . S
H2048 C2077 0.950 . S
H2049 C2078 0.950 . S
H2050 C2080 0.950 . S
H2051 C2081 0.950 . S
C2052 H2034 0.951 . S
C2052 C2053 1.366 . S
C2052 C2054 1.388 . S
C2053 C2052 1.366 . S
C2053 C2057 1.385 . S
C2054 H2035 0.951 . S
C2054 C2052 1.388 . S
C2054 C2055 1.366 . S
C2055 C2054 1.366 . S
C2055 C2056 1.414 . S
C2055 C2058 1.499 . S
C2056 H2036 0.950 . S
C2056 C2055 1.414 . S
C2056 C2057 1.374 . S
C2057 H2037 0.950 . S
C2057 C2053 1.385 . S
C2057 C2056 1.374 . S
C2058 C2055 1.499 . S
C2058 C2059 1.373 . S
C2058 C2060 1.389 . S
C2059 H2038 0.950 . S
C2059 C2058 1.373 . S
C2059 C2075 1.377 . S
C2060 C2058 1.389 . S
C2060 C2061 1.524 . S
C2060 C2074 1.377 . S
C2061 C2060 1.524 . S
C2061 C2062 1.397 . S
C2061 C2066 1.363 . S
C2062 H2039 0.950 . S
C2062 C2061 1.397 . S
C2062 C2063 1.334 . S
C2063 H2040 0.950 . S
C2063 C2062 1.334 . S
C2063 C2064 1.287 . S
C2064 C2063 1.287 . S
C2064 C2065 1.524 . S
C2064 H2083 0.913 . S
C2065 H2041 0.950 . S
C2065 C2064 1.524 . S
C2065 C2066 1.415 . S
C2066 H2042 0.950 . S
C2066 C2061 1.363 . S
C2066 C2065 1.415 . S
C2067 H2043 0.951 . S
C2067 C2068 1.366 . S
C2067 C2069 1.388 . S
C2068 C2067 1.366 . S
C2068 C2072 1.385 . S
C2069 H2044 0.951 . S
C2069 C2067 1.388 . S
C2069 C2070 1.366 . S
C2070 C2069 1.366 . S
C2070 C2071 1.414 . S
C2070 C2073 1.499 . S
C2071 H2045 0.950 . S
C2071 C2070 1.414 . S
C2071 C2072 1.374 . S
C2072 H2046 0.950 . S
C2072 C2068 1.385 . S
C2072 C2071 1.374 . S
C2073 C2070 1.499 . S
C2073 C2074 1.373 . S
C2073 C2075 1.389 . S
C2074 H2047 0.950 . S
C2074 C2060 1.377 . S
C2074 C2073 1.373 . S
C2075 C2059 1.377 . S
C2075 C2073 1.389 . S
C2075 C2076 1.524 . S
C2076 C2075 1.524 . S
C2076 C2077 1.397 . S
C2076 C2081 1.363 . S
C2077 H2048 0.950 . S
C2077 C2076 1.397 . S
C2077 C2078 1.334 . S
C2078 H2049 0.950 . S
C2078 C2077 1.334 . S
C2078 C2079 1.287 . S
C2079 C2078 1.287 . S
C2079 C2080 1.524 . S
C2079 H2082 0.999 . S
C2080 H2050 0.950 . S
C2080 C2079 1.524 . S
C2080 C2081 1.415 . S
C2081 H2051 0.950 . S
C2081 C2076 1.363 . S
C2081 C2080 1.415 . S
H2082 C2079 0.999 . S
H2083 C2064 0.913 . S
H2084 C2102 0.951 . S
H2085 C2104 0.951 . S
H2086 C2106 0.950 . S
H2087 C2107 0.950 . S
H2088 C2109 0.950 . S
H2089 C2112 0.950 . S
H2090 C2113 0.950 . S
H2091 C2115 0.950 . S
H2092 C2116 0.950 . S
H2093 C2117 0.951 . S
H2094 C2119 0.951 . S
H2095 C2121 0.950 . S
H2096 C2122 0.950 . S
H2097 C2124 0.950 . S
H2098 C2127 0.950 . S
H2099 C2128 0.950 . S
H2100 C2130 0.950 . S
H2101 C2131 0.950 . S
C2102 H2084 0.951 . S
C2102 C2103 1.366 . S
C2102 C2104 1.388 . S
C2103 C2102 1.366 . S
C2103 C2107 1.385 . S
C2104 H2085 0.951 . S
C2104 C2102 1.388 . S
C2104 C2105 1.366 . S
C2105 C2104 1.366 . S
C2105 C2106 1.414 . S
C2105 C2108 1.499 . S
C2106 H2086 0.950 . S
C2106 C2105 1.414 . S
C2106 C2107 1.374 . S
C2107 H2087 0.950 . S
C2107 C2103 1.385 . S
C2107 C2106 1.374 . S
C2108 C2105 1.499 . S
C2108 C2109 1.373 . S
C2108 C2110 1.389 . S
C2109 H2088 0.950 . S
C2109 C2108 1.373 . S
C2109 C2125 1.377 . S
C2110 C2108 1.389 . S
C2110 C2111 1.524 . S
C2110 C2124 1.377 . S
C2111 C2110 1.524 . S
C2111 C2112 1.397 . S
C2111 C2116 1.363 . S
C2112 H2089 0.950 . S
C2112 C2111 1.397 . S
C2112 C2113 1.334 . S
C2113 H2090 0.950 . S
C2113 C2112 1.334 . S
C2113 C2114 1.287 . S
C2114 C2113 1.287 . S
C2114 C2115 1.524 . S
C2114 H2133 0.913 . S
C2115 H2091 0.950 . S
C2115 C2114 1.524 . S
C2115 C2116 1.415 . S
C2116 H2092 0.950 . S
C2116 C2111 1.363 . S
C2116 C2115 1.415 . S
C2117 H2093 0.951 . S
C2117 C2118 1.366 . S
C2117 C2119 1.388 . S
C2118 C2117 1.366 . S
C2118 C2122 1.385 . S
C2119 H2094 0.951 . S
C2119 C2117 1.388 . S
C2119 C2120 1.366 . S
C2120 C2119 1.366 . S
C2120 C2121 1.414 . S
C2120 C2123 1.499 . S
C2121 H2095 0.950 . S
C2121 C2120 1.414 . S
C2121 C2122 1.374 . S
C2122 H2096 0.950 . S
C2122 C2118 1.385 . S
C2122 C2121 1.374 . S
C2123 C2120 1.499 . S
C2123 C2124 1.373 . S
C2123 C2125 1.389 . S
C2124 H2097 0.950 . S
C2124 C2110 1.377 . S
C2124 C2123 1.373 . S
C2125 C2109 1.377 . S
C2125 C2123 1.389 . S
C2125 C2126 1.524 . S
C2126 C2125 1.524 . S
C2126 C2127 1.397 . S
C2126 C2131 1.363 . S
C2127 H2098 0.950 . S
C2127 C2126 1.397 . S
C2127 C2128 1.334 . S
C2128 H2099 0.950 . S
C2128 C2127 1.334 . S
C2128 C2129 1.287 . S
C2129 C2128 1.287 . S
C2129 C2130 1.524 . S
C2129 H2132 0.999 . S
C2130 H2100 0.950 . S
C2130 C2129 1.524 . S
C2130 C2131 1.415 . S
C2131 H2101 0.950 . S
C2131 C2126 1.363 . S
C2131 C2130 1.415 . S
H2132 C2129 0.999 . S
H2133 C2114 0.913 . S
H2134 C2152 0.951 . S
H2135 C2154 0.951 . S
H2136 C2156 0.950 . S
H2137 C2157 0.950 . S
H2138 C2159 0.950 . S
H2139 C2162 0.950 . S
H2140 C2163 0.950 . S
H2141 C2165 0.950 . S
H2142 C2166 0.950 . S
H2143 C2167 0.951 . S
H2144 C2169 0.951 . S
H2145 C2171 0.950 . S
H2146 C2172 0.950 . S
H2147 C2174 0.950 . S
H2148 C2177 0.950 . S
H2149 C2178 0.950 . S
H2150 C2180 0.950 . S
H2151 C2181 0.950 . S
C2152 H2134 0.951 . S
C2152 C2153 1.366 . S
C2152 C2154 1.388 . S
C2153 C2152 1.366 . S
C2153 C2157 1.385 . S
C2154 H2135 0.951 . S
C2154 C2152 1.388 . S
C2154 C2155 1.366 . S
C2155 C2154 1.366 . S
C2155 C2156 1.414 . S
C2155 C2158 1.499 . S
C2156 H2136 0.950 . S
C2156 C2155 1.414 . S
C2156 C2157 1.374 . S
C2157 H2137 0.950 . S
C2157 C2153 1.385 . S
C2157 C2156 1.374 . S
C2158 C2155 1.499 . S
C2158 C2159 1.373 . S
C2158 C2160 1.389 . S
C2159 H2138 0.950 . S
C2159 C2158 1.373 . S
C2159 C2175 1.377 . S
C2160 C2158 1.389 . S
C2160 C2161 1.524 . S
C2160 C2174 1.377 . S
C2161 C2160 1.524 . S
C2161 C2162 1.397 . S
C2161 C2166 1.363 . S
C2162 H2139 0.950 . S
C2162 C2161 1.397 . S
C2162 C2163 1.334 . S
C2163 H2140 0.950 . S
C2163 C2162 1.334 . S
C2163 C2164 1.287 . S
C2164 C2163 1.287 . S
C2164 C2165 1.524 . S
C2164 H2183 0.913 . S
C2165 H2141 0.950 . S
C2165 C2164 1.524 . S
C2165 C2166 1.415 . S
C2166 H2142 0.950 . S
C2166 C2161 1.363 . S
C2166 C2165 1.415 . S
C2167 H2143 0.951 . S
C2167 C2168 1.366 . S
C2167 C2169 1.388 . S
C2168 C2167 1.366 . S
C2168 C2172 1.385 . S
C2169 H2144 0.951 . S
C2169 C2167 1.388 . S
C2169 C2170 1.366 . S
C2170 C2169 1.366 . S
C2170 C2171 1.414 . S
C2170 C2173 1.499 . S
C2171 H2145 0.950 . S
C2171 C2170 1.414 . S
C2171 C2172 1.374 . S
C2172 H2146 0.950 . S
C2172 C2168 1.385 . S
C2172 C2171 1.374 . S
C2173 C2170 1.499 . S
C2173 C2174 1.373 . S
C2173 C2175 1.389 . S
C2174 H2147 0.950 . S
C2174 C2160 1.377 . S
C2174 C2173 1.373 . S
C2175 C2159 1.377 . S
C2175 C2173 1.389 . S
C2175 C2176 1.524 . S
C2176 C2175 1.524 . S
C2176 C2177 1.397 . S
C2176 C2181 1.363 . S
C2177 H2148 0.950 . S
C2177 C2176 1.397 . S
C2177 C2178 1.334 . S
C2178 H2149 0.950 . S
C2178 C2177 1.334 . S
C2178 C2179 1.287 . S
C2179 C2178 1.287 . S
C2179 C2180 1.524 . S
C2179 H2182 0.999 . S
C2180 H2150 0.950 . S
C2180 C2179 1.524 . S
C2180 C2181 1.415 . S
C2181 H2151 0.950 . S
C2181 C2176 1.363 . S
C2181 C2180 1.415 . S
H2182 C2179 0.999 . S
H2183 C2164 0.913 . S
H2184 C2202 0.951 . S
H2185 C2204 0.951 . S
H2186 C2206 0.950 . S
H2187 C2207 0.950 . S
H2188 C2209 0.950 . S
H2189 C2212 0.950 . S
H2190 C2213 0.950 . S
H2191 C2215 0.950 . S
H2192 C2216 0.950 . S
H2193 C2217 0.951 . S
H2194 C2219 0.951 . S
H2195 C2221 0.950 . S
H2196 C2222 0.950 . S
H2197 C2224 0.950 . S
H2198 C2227 0.950 . S
H2199 C2228 0.950 . S
H2200 C2230 0.950 . S
H2201 C2231 0.950 . S
C2202 H2184 0.951 . S
C2202 C2203 1.366 . S
C2202 C2204 1.388 . S
C2203 C2202 1.366 . S
C2203 C2207 1.385 . S
C2204 H2185 0.951 . S
C2204 C2202 1.388 . S
C2204 C2205 1.366 . S
C2205 C2204 1.366 . S
C2205 C2206 1.414 . S
C2205 C2208 1.499 . S
C2206 H2186 0.950 . S
C2206 C2205 1.414 . S
C2206 C2207 1.374 . S
C2207 H2187 0.950 . S
C2207 C2203 1.385 . S
C2207 C2206 1.374 . S
C2208 C2205 1.499 . S
C2208 C2209 1.373 . S
C2208 C2210 1.389 . S
C2209 H2188 0.950 . S
C2209 C2208 1.373 . S
C2209 C2225 1.377 . S
C2210 C2208 1.389 . S
C2210 C2211 1.524 . S
C2210 C2224 1.377 . S
C2211 C2210 1.524 . S
C2211 C2212 1.397 . S
C2211 C2216 1.363 . S
C2212 H2189 0.950 . S
C2212 C2211 1.397 . S
C2212 C2213 1.334 . S
C2213 H2190 0.950 . S
C2213 C2212 1.334 . S
C2213 C2214 1.287 . S
C2214 C2213 1.287 . S
C2214 C2215 1.524 . S
C2214 H2233 0.913 . S
C2215 H2191 0.950 . S
C2215 C2214 1.524 . S
C2215 C2216 1.415 . S
C2216 H2192 0.950 . S
C2216 C2211 1.363 . S
C2216 C2215 1.415 . S
C2217 H2193 0.951 . S
C2217 C2218 1.366 . S
C2217 C2219 1.388 . S
C2218 C2217 1.366 . S
C2218 C2222 1.385 . S
C2219 H2194 0.951 . S
C2219 C2217 1.388 . S
C2219 C2220 1.366 . S
C2220 C2219 1.366 . S
C2220 C2221 1.414 . S
C2220 C2223 1.499 . S
C2221 H2195 0.950 . S
C2221 C2220 1.414 . S
C2221 C2222 1.374 . S
C2222 H2196 0.950 . S
C2222 C2218 1.385 . S
C2222 C2221 1.374 . S
C2223 C2220 1.499 . S
C2223 C2224 1.373 . S
C2223 C2225 1.389 . S
C2224 H2197 0.950 . S
C2224 C2210 1.377 . S
C2224 C2223 1.373 . S
C2225 C2209 1.377 . S
C2225 C2223 1.389 . S
C2225 C2226 1.524 . S
C2226 C2225 1.524 . S
C2226 C2227 1.397 . S
C2226 C2231 1.363 . S
C2227 H2198 0.950 . S
C2227 C2226 1.397 . S
C2227 C2228 1.334 . S
C2228 H2199 0.950 . S
C2228 C2227 1.334 . S
C2228 C2229 1.287 . S
C2229 C2228 1.287 . S
C2229 C2230 1.524 . S
C2229 H2232 0.999 . S
C2230 H2200 0.950 . S
C2230 C2229 1.524 . S
C2230 C2231 1.415 . S
C2231 H2201 0.950 . S
C2231 C2226 1.363 . S
C2231 C2230 1.415 . S
H2232 C2229 0.999 . S
H2233 C2214 0.913 . S
H2234 C2252 0.951 . S
H2235 C2254 0.951 . S
H2236 C2256 0.950 . S
H2237 C2257 0.950 . S
H2238 C2259 0.950 . S
H2239 C2262 0.950 . S
H2240 C2263 0.950 . S
H2241 C2265 0.950 . S
H2242 C2266 0.950 . S
H2243 C2267 0.951 . S
H2244 C2269 0.951 . S
H2245 C2271 0.950 . S
H2246 C2272 0.950 . S
H2247 C2274 0.950 . S
H2248 C2277 0.950 . S
H2249 C2278 0.950 . S
H2250 C2280 0.950 . S
H2251 C2281 0.950 . S
C2252 H2234 0.951 . S
C2252 C2253 1.366 . S
C2252 C2254 1.388 . S
C2253 C2252 1.366 . S
C2253 C2257 1.385 . S
C2254 H2235 0.951 . S
C2254 C2252 1.388 . S
C2254 C2255 1.366 . S
C2255 C2254 1.366 . S
C2255 C2256 1.414 . S
C2255 C2258 1.499 . S
C2256 H2236 0.950 . S
C2256 C2255 1.414 . S
C2256 C2257 1.374 . S
C2257 H2237 0.950 . S
C2257 C2253 1.385 . S
C2257 C2256 1.374 . S
C2258 C2255 1.499 . S
C2258 C2259 1.373 . S
C2258 C2260 1.389 . S
C2259 H2238 0.950 . S
C2259 C2258 1.373 . S
C2259 C2275 1.377 . S
C2260 C2258 1.389 . S
C2260 C2261 1.524 . S
C2260 C2274 1.377 . S
C2261 C2260 1.524 . S
C2261 C2262 1.397 . S
C2261 C2266 1.363 . S
C2262 H2239 0.950 . S
C2262 C2261 1.397 . S
C2262 C2263 1.334 . S
C2263 H2240 0.950 . S
C2263 C2262 1.334 . S
C2263 C2264 1.287 . S
C2264 C2263 1.287 . S
C2264 C2265 1.524 . S
C2264 H2283 0.913 . S
C2265 H2241 0.950 . S
C2265 C2264 1.524 . S
C2265 C2266 1.415 . S
C2266 H2242 0.950 . S
C2266 C2261 1.363 . S
C2266 C2265 1.415 . S
C2267 H2243 0.951 . S
C2267 C2268 1.366 . S
C2267 C2269 1.388 . S
C2268 C2267 1.366 . S
C2268 C2272 1.385 . S
C2269 H2244 0.951 . S
C2269 C2267 1.388 . S
C2269 C2270 1.366 . S
C2270 C2269 1.366 . S
C2270 C2271 1.414 . S
C2270 C2273 1.499 . S
C2271 H2245 0.950 . S
C2271 C2270 1.414 . S
C2271 C2272 1.374 . S
C2272 H2246 0.950 . S
C2272 C2268 1.385 . S
C2272 C2271 1.374 . S
C2273 C2270 1.499 . S
C2273 C2274 1.373 . S
C2273 C2275 1.389 . S
C2274 H2247 0.950 . S
C2274 C2260 1.377 . S
C2274 C2273 1.373 . S
C2275 C2259 1.377 . S
C2275 C2273 1.389 . S
C2275 C2276 1.524 . S
C2276 C2275 1.524 . S
C2276 C2277 1.397 . S
C2276 C2281 1.363 . S
C2277 H2248 0.950 . S
C2277 C2276 1.397 . S
C2277 C2278 1.334 . S
C2278 H2249 0.950 . S
C2278 C2277 1.334 . S
C2278 C2279 1.287 . S
C2279 C2278 1.287 . S
C2279 C2280 1.524 . S
C2279 H2282 0.999 . S
C2280 H2250 0.950 . S
C2280 C2279 1.524 . S
C2280 C2281 1.415 . S
C2281 H2251 0.950 . S
C2281 C2276 1.363 . S
C2281 C2280 1.415 . S
H2282 C2279 0.999 . S
H2283 C2264 0.913 . S
H2284 C2302 0.951 . S
H2285 C2304 0.951 . S
H2286 C2306 0.950 . S
H2287 C2307 0.950 . S
H2288 C2309 0.950 . S
H2289 C2312 0.950 . S
H2290 C2313 0.950 . S
H2291 C2315 0.950 . S
H2292 C2316 0.950 . S
H2293 C2317 0.951 . S
H2294 C2319 0.951 . S
H2295 C2321 0.950 . S
H2296 C2322 0.950 . S
H2297 C2324 0.950 . S
H2298 C2327 0.950 . S
H2299 C2328 0.950 . S
H2300 C2330 0.950 . S
H2301 C2331 0.950 . S
C2302 H2284 0.951 . S
C2302 C2303 1.366 . S
C2302 C2304 1.388 . S
C2303 C2302 1.366 . S
C2303 C2307 1.385 . S
C2304 H2285 0.951 . S
C2304 C2302 1.388 . S
C2304 C2305 1.366 . S
C2305 C2304 1.366 . S
C2305 C2306 1.414 . S
C2305 C2308 1.499 . S
C2306 H2286 0.950 . S
C2306 C2305 1.414 . S
C2306 C2307 1.374 . S
C2307 H2287 0.950 . S
C2307 C2303 1.385 . S
C2307 C2306 1.374 . S
C2308 C2305 1.499 . S
C2308 C2309 1.373 . S
C2308 C2310 1.389 . S
C2309 H2288 0.950 . S
C2309 C2308 1.373 . S
C2309 C2325 1.377 . S
C2310 C2308 1.389 . S
C2310 C2311 1.524 . S
C2310 C2324 1.377 . S
C2311 C2310 1.524 . S
C2311 C2312 1.397 . S
C2311 C2316 1.363 . S
C2312 H2289 0.950 . S
C2312 C2311 1.397 . S
C2312 C2313 1.334 . S
C2313 H2290 0.950 . S
C2313 C2312 1.334 . S
C2313 C2314 1.287 . S
C2314 C2313 1.287 . S
C2314 C2315 1.524 . S
C2314 H2333 0.913 . S
C2315 H2291 0.950 . S
C2315 C2314 1.524 . S
C2315 C2316 1.415 . S
C2316 H2292 0.950 . S
C2316 C2311 1.363 . S
C2316 C2315 1.415 . S
C2317 H2293 0.951 . S
C2317 C2318 1.366 . S
C2317 C2319 1.388 . S
C2318 C2317 1.366 . S
C2318 C2322 1.385 . S
C2319 H2294 0.951 . S
C2319 C2317 1.388 . S
C2319 C2320 1.366 . S
C2320 C2319 1.366 . S
C2320 C2321 1.414 . S
C2320 C2323 1.499 . S
C2321 H2295 0.950 . S
C2321 C2320 1.414 . S
C2321 C2322 1.374 . S
C2322 H2296 0.950 . S
C2322 C2318 1.385 . S
C2322 C2321 1.374 . S
C2323 C2320 1.499 . S
C2323 C2324 1.373 . S
C2323 C2325 1.389 . S
C2324 H2297 0.950 . S
C2324 C2310 1.377 . S
C2324 C2323 1.373 . S
C2325 C2309 1.377 . S
C2325 C2323 1.389 . S
C2325 C2326 1.524 . S
C2326 C2325 1.524 . S
C2326 C2327 1.397 . S
C2326 C2331 1.363 . S
C2327 H2298 0.950 . S
C2327 C2326 1.397 . S
C2327 C2328 1.334 . S
C2328 H2299 0.950 . S
C2328 C2327 1.334 . S
C2328 C2329 1.287 . S
C2329 C2328 1.287 . S
C2329 C2330 1.524 . S
C2329 H2332 0.999 . S
C2330 H2300 0.950 . S
C2330 C2329 1.524 . S
C2330 C2331 1.415 . S
C2331 H2301 0.950 . S
C2331 C2326 1.363 . S
C2331 C2330 1.415 . S
H2332 C2329 0.999 . S
H2333 C2314 0.913 . S
H2334 C2352 0.951 . S
H2335 C2354 0.951 . S
H2336 C2356 0.950 . S
H2337 C2357 0.950 . S
H2338 C2359 0.950 . S
H2339 C2362 0.950 . S
H2340 C2363 0.950 . S
H2341 C2365 0.950 . S
H2342 C2366 0.950 . S
H2343 C2367 0.951 . S
H2344 C2369 0.951 . S
H2345 C2371 0.950 . S
H2346 C2372 0.950 . S
H2347 C2374 0.950 . S
H2348 C2377 0.950 . S
H2349 C2378 0.950 . S
H2350 C2380 0.950 . S
H2351 C2381 0.950 . S
C2352 H2334 0.951 . S
C2352 C2353 1.366 . S
C2352 C2354 1.388 . S
C2353 C2352 1.366 . S
C2353 C2357 1.385 . S
C2354 H2335 0.951 . S
C2354 C2352 1.388 . S
C2354 C2355 1.366 . S
C2355 C2354 1.366 . S
C2355 C2356 1.414 . S
C2355 C2358 1.499 . S
C2356 H2336 0.950 . S
C2356 C2355 1.414 . S
C2356 C2357 1.374 . S
C2357 H2337 0.950 . S
C2357 C2353 1.385 . S
C2357 C2356 1.374 . S
C2358 C2355 1.499 . S
C2358 C2359 1.373 . S
C2358 C2360 1.389 . S
C2359 H2338 0.950 . S
C2359 C2358 1.373 . S
C2359 C2375 1.377 . S
C2360 C2358 1.389 . S
C2360 C2361 1.524 . S
C2360 C2374 1.377 . S
C2361 C2360 1.524 . S
C2361 C2362 1.397 . S
C2361 C2366 1.363 . S
C2362 H2339 0.950 . S
C2362 C2361 1.397 . S
C2362 C2363 1.334 . S
C2363 H2340 0.950 . S
C2363 C2362 1.334 . S
C2363 C2364 1.287 . S
C2364 C2363 1.287 . S
C2364 C2365 1.524 . S
C2364 H2383 0.913 . S
C2365 H2341 0.950 . S
C2365 C2364 1.524 . S
C2365 C2366 1.415 . S
C2366 H2342 0.950 . S
C2366 C2361 1.363 . S
C2366 C2365 1.415 . S
C2367 H2343 0.951 . S
C2367 C2368 1.366 . S
C2367 C2369 1.388 . S
C2368 C2367 1.366 . S
C2368 C2372 1.385 . S
C2369 H2344 0.951 . S
C2369 C2367 1.388 . S
C2369 C2370 1.366 . S
C2370 C2369 1.366 . S
C2370 C2371 1.414 . S
C2370 C2373 1.499 . S
C2371 H2345 0.950 . S
C2371 C2370 1.414 . S
C2371 C2372 1.374 . S
C2372 H2346 0.950 . S
C2372 C2368 1.385 . S
C2372 C2371 1.374 . S
C2373 C2370 1.499 . S
C2373 C2374 1.373 . S
C2373 C2375 1.389 . S
C2374 H2347 0.950 . S
C2374 C2360 1.377 . S
C2374 C2373 1.373 . S
C2375 C2359 1.377 . S
C2375 C2373 1.389 . S
C2375 C2376 1.524 . S
C2376 C2375 1.524 . S
C2376 C2377 1.397 . S
C2376 C2381 1.363 . S
C2377 H2348 0.950 . S
C2377 C2376 1.397 . S
C2377 C2378 1.334 . S
C2378 H2349 0.950 . S
C2378 C2377 1.334 . S
C2378 C2379 1.287 . S
C2379 C2378 1.287 . S
C2379 C2380 1.524 . S
C2379 H2382 0.999 . S
C2380 H2350 0.950 . S
C2380 C2379 1.524 . S
C2380 C2381 1.415 . S
C2381 H2351 0.950 . S
C2381 C2376 1.363 . S
C2381 C2380 1.415 . S
H2382 C2379 0.999 . S
H2383 C2364 0.913 . S
H2384 C2402 0.951 . S
H2385 C2404 0.951 . S
H2386 C2406 0.950 . S
H2387 C2407 0.950 . S
H2388 C2409 0.950 . S
H2389 C2412 0.950 . S
H2390 C2413 0.950 . S
H2391 C2415 0.950 . S
H2392 C2416 0.950 . S
H2393 C2417 0.951 . S
H2394 C2419 0.951 . S
H2395 C2421 0.950 . S
H2396 C2422 0.950 . S
H2397 C2424 0.950 . S
H2398 C2427 0.950 . S
H2399 C2428 0.950 . S
H2400 C2430 0.950 . S
H2401 C2431 0.950 . S
C2402 H2384 0.951 . S
C2402 C2403 1.366 . S
C2402 C2404 1.388 . S
C2403 C2402 1.366 . S
C2403 C2407 1.385 . S
C2404 H2385 0.951 . S
C2404 C2402 1.388 . S
C2404 C2405 1.366 . S
C2405 C2404 1.366 . S
C2405 C2406 1.414 . S
C2405 C2408 1.499 . S
C2406 H2386 0.950 . S
C2406 C2405 1.414 . S
C2406 C2407 1.374 . S
C2407 H2387 0.950 . S
C2407 C2403 1.385 . S
C2407 C2406 1.374 . S
C2408 C2405 1.499 . S
C2408 C2409 1.373 . S
C2408 C2410 1.389 . S
C2409 H2388 0.950 . S
C2409 C2408 1.373 . S
C2409 C2425 1.377 . S
C2410 C2408 1.389 . S
C2410 C2411 1.524 . S
C2410 C2424 1.377 . S
C2411 C2410 1.524 . S
C2411 C2412 1.397 . S
C2411 C2416 1.363 . S
C2412 H2389 0.950 . S
C2412 C2411 1.397 . S
C2412 C2413 1.334 . S
C2413 H2390 0.950 . S
C2413 C2412 1.334 . S
C2413 C2414 1.287 . S
C2414 C2413 1.287 . S
C2414 C2415 1.524 . S
C2414 H2433 0.913 . S
C2415 H2391 0.950 . S
C2415 C2414 1.524 . S
C2415 C2416 1.415 . S
C2416 H2392 0.950 . S
C2416 C2411 1.363 . S
C2416 C2415 1.415 . S
C2417 H2393 0.951 . S
C2417 C2418 1.366 . S
C2417 C2419 1.388 . S
C2418 C2417 1.366 . S
C2418 C2422 1.385 . S
C2419 H2394 0.951 . S
C2419 C2417 1.388 . S
C2419 C2420 1.366 . S
C2420 C2419 1.366 . S
C2420 C2421 1.414 . S
C2420 C2423 1.499 . S
C2421 H2395 0.950 . S
C2421 C2420 1.414 . S
C2421 C2422 1.374 . S
C2422 H2396 0.950 . S
C2422 C2418 1.385 . S
C2422 C2421 1.374 . S
C2423 C2420 1.499 . S
C2423 C2424 1.373 . S
C2423 C2425 1.389 . S
C2424 H2397 0.950 . S
C2424 C2410 1.377 . S
C2424 C2423 1.373 . S
C2425 C2409 1.377 . S
C2425 C2423 1.389 . S
C2425 C2426 1.524 . S
C2426 C2425 1.524 . S
C2426 C2427 1.397 . S
C2426 C2431 1.363 . S
C2427 H2398 0.950 . S
C2427 C2426 1.397 . S
C2427 C2428 1.334 . S
C2428 H2399 0.950 . S
C2428 C2427 1.334 . S
C2428 C2429 1.287 . S
C2429 C2428 1.287 . S
C2429 C2430 1.524 . S
C2429 H2432 0.999 . S
C2430 H2400 0.950 . S
C2430 C2429 1.524 . S
C2430 C2431 1.415 . S
C2431 H2401 0.950 . S
C2431 C2426 1.363 . S
C2431 C2430 1.415 . S
H2432 C2429 0.999 . S
H2433 C2414 0.913 . S
H2434 C2452 0.951 . S
H2435 C2454 0.951 . S
H2436 C2456 0.950 . S
H2437 C2457 0.950 . S
H2438 C2459 0.950 . S
H2439 C2462 0.950 . S
H2440 C2463 0.950 . S
H2441 C2465 0.950 . S
H2442 C2466 0.950 . S
H2443 C2467 0.951 . S
H2444 C2469 0.951 . S
H2445 C2471 0.950 . S
H2446 C2472 0.950 . S
H2447 C2474 0.950 . S
H2448 C2477 0.950 . S
H2449 C2478 0.950 . S
H2450 C2480 0.950 . S
H2451 C2481 0.950 . S
C2452 H2434 0.951 . S
C2452 C2453 1.366 . S
C2452 C2454 1.388 . S
C2453 C2452 1.366 . S
C2453 C2457 1.385 . S
C2454 H2435 0.951 . S
C2454 C2452 1.388 . S
C2454 C2455 1.366 . S
C2455 C2454 1.366 . S
C2455 C2456 1.414 . S
C2455 C2458 1.499 . S
C2456 H2436 0.950 . S
C2456 C2455 1.414 . S
C2456 C2457 1.374 . S
C2457 H2437 0.950 . S
C2457 C2453 1.385 . S
C2457 C2456 1.374 . S
C2458 C2455 1.499 . S
C2458 C2459 1.373 . S
C2458 C2460 1.389 . S
C2459 H2438 0.950 . S
C2459 C2458 1.373 . S
C2459 C2475 1.377 . S
C2460 C2458 1.389 . S
C2460 C2461 1.524 . S
C2460 C2474 1.377 . S
C2461 C2460 1.524 . S
C2461 C2462 1.397 . S
C2461 C2466 1.363 . S
C2462 H2439 0.950 . S
C2462 C2461 1.397 . S
C2462 C2463 1.334 . S
C2463 H2440 0.950 . S
C2463 C2462 1.334 . S
C2463 C2464 1.287 . S
C2464 C2463 1.287 . S
C2464 C2465 1.524 . S
C2464 H2483 0.913 . S
C2465 H2441 0.950 . S
C2465 C2464 1.524 . S
C2465 C2466 1.415 . S
C2466 H2442 0.950 . S
C2466 C2461 1.363 . S
C2466 C2465 1.415 . S
C2467 H2443 0.951 . S
C2467 C2468 1.366 . S
C2467 C2469 1.388 . S
C2468 C2467 1.366 . S
C2468 C2472 1.385 . S
C2469 H2444 0.951 . S
C2469 C2467 1.388 . S
C2469 C2470 1.366 . S
C2470 C2469 1.366 . S
C2470 C2471 1.414 . S
C2470 C2473 1.499 . S
C2471 H2445 0.950 . S
C2471 C2470 1.414 . S
C2471 C2472 1.374 . S
C2472 H2446 0.950 . S
C2472 C2468 1.385 . S
C2472 C2471 1.374 . S
C2473 C2470 1.499 . S
C2473 C2474 1.373 . S
C2473 C2475 1.389 . S
C2474 H2447 0.950 . S
C2474 C2460 1.377 . S
C2474 C2473 1.373 . S
C2475 C2459 1.377 . S
C2475 C2473 1.389 . S
C2475 C2476 1.524 . S
C2476 C2475 1.524 . S
C2476 C2477 1.397 . S
C2476 C2481 1.363 . S
C2477 H2448 0.950 . S
C2477 C2476 1.397 . S
C2477 C2478 1.334 . S
C2478 H2449 0.950 . S
C2478 C2477 1.334 . S
C2478 C2479 1.287 . S
C2479 C2478 1.287 . S
C2479 C2480 1.524 . S
C2479 H2482 0.999 . S
C2480 H2450 0.950 . S
C2480 C2479 1.524 . S
C2480 C2481 1.415 . S
C2481 H2451 0.950 . S
C2481 C2476 1.363 . S
C2481 C2480 1.415 . S
H2482 C2479 0.999 . S
H2483 C2464 0.913 . S
H2484 C2502 0.951 . S
H2485 C2504 0.951 . S
H2486 C2506 0.950 . S
H2487 C2507 0.950 . S
H2488 C2509 0.950 . S
H2489 C2512 0.950 . S
H2490 C2513 0.950 . S
H2491 C2515 0.950 . S
H2492 C2516 0.950 . S
H2493 C2517 0.951 . S
H2494 C2519 0.951 . S
H2495 C2521 0.950 . S
H2496 C2522 0.950 . S
H2497 C2524 0.950 . S
H2498 C2527 0.950 . S
H2499 C2528 0.950 . S
H2500 C2530 0.950 . S
H2501 C2531 0.950 . S
C2502 H2484 0.951 . S
C2502 C2503 1.366 . S
C2502 C2504 1.388 . S
C2503 C2502 1.366 . S
C2503 C2507 1.385 . S
C2504 H2485 0.951 . S
C2504 C2502 1.388 . S
C2504 C2505 1.366 . S
C2505 C2504 1.366 . S
C2505 C2506 1.414 . S
C2505 C2508 1.499 . S
C2506 H2486 0.950 . S
C2506 C2505 1.414 . S
C2506 C2507 1.374 . S
C2507 H2487 0.950 . S
C2507 C2503 1.385 . S
C2507 C2506 1.374 . S
C2508 C2505 1.499 . S
C2508 C2509 1.373 . S
C2508 C2510 1.389 . S
C2509 H2488 0.950 . S
C2509 C2508 1.373 . S
C2509 C2525 1.377 . S
C2510 C2508 1.389 . S
C2510 C2511 1.524 . S
C2510 C2524 1.377 . S
C2511 C2510 1.524 . S
C2511 C2512 1.397 . S
C2511 C2516 1.363 . S
C2512 H2489 0.950 . S
C2512 C2511 1.397 . S
C2512 C2513 1.334 . S
C2513 H2490 0.950 . S
C2513 C2512 1.334 . S
C2513 C2514 1.287 . S
C2514 C2513 1.287 . S
C2514 C2515 1.524 . S
C2514 H2533 0.913 . S
C2515 H2491 0.950 . S
C2515 C2514 1.524 . S
C2515 C2516 1.415 . S
C2516 H2492 0.950 . S
C2516 C2511 1.363 . S
C2516 C2515 1.415 . S
C2517 H2493 0.951 . S
C2517 C2518 1.366 . S
C2517 C2519 1.388 . S
C2518 C2517 1.366 . S
C2518 C2522 1.385 . S
C2519 H2494 0.951 . S
C2519 C2517 1.388 . S
C2519 C2520 1.366 . S
C2520 C2519 1.366 . S
C2520 C2521 1.414 . S
C2520 C2523 1.499 . S
C2521 H2495 0.950 . S
C2521 C2520 1.414 . S
C2521 C2522 1.374 . S
C2522 H2496 0.950 . S
C2522 C2518 1.385 . S
C2522 C2521 1.374 . S
C2523 C2520 1.499 . S
C2523 C2524 1.373 . S
C2523 C2525 1.389 . S
C2524 H2497 0.950 . S
C2524 C2510 1.377 . S
C2524 C2523 1.373 . S
C2525 C2509 1.377 . S
C2525 C2523 1.389 . S
C2525 C2526 1.524 . S
C2526 C2525 1.524 . S
C2526 C2527 1.397 . S
C2526 C2531 1.363 . S
C2527 H2498 0.950 . S
C2527 C2526 1.397 . S
C2527 C2528 1.334 . S
C2528 H2499 0.950 . S
C2528 C2527 1.334 . S
C2528 C2529 1.287 . S
C2529 C2528 1.287 . S
C2529 C2530 1.524 . S
C2529 H2532 0.999 . S
C2530 H2500 0.950 . S
C2530 C2529 1.524 . S
C2530 C2531 1.415 . S
C2531 H2501 0.950 . S
C2531 C2526 1.363 . S
C2531 C2530 1.415 . S
H2532 C2529 0.999 . S
H2533 C2514 0.913 . S
H2534 C2552 0.951 . S
H2535 C2554 0.951 . S
H2536 C2556 0.950 . S
H2537 C2557 0.950 . S
H2538 C2559 0.950 . S
H2539 C2562 0.950 . S
H2540 C2563 0.950 . S
H2541 C2565 0.950 . S
H2542 C2566 0.950 . S
H2543 C2567 0.951 . S
H2544 C2569 0.951 . S
H2545 C2571 0.950 . S
H2546 C2572 0.950 . S
H2547 C2574 0.950 . S
H2548 C2577 0.950 . S
H2549 C2578 0.950 . S
H2550 C2580 0.950 . S
H2551 C2581 0.950 . S
C2552 H2534 0.951 . S
C2552 C2553 1.366 . S
C2552 C2554 1.388 . S
C2553 C2552 1.366 . S
C2553 C2557 1.385 . S
C2554 H2535 0.951 . S
C2554 C2552 1.388 . S
C2554 C2555 1.366 . S
C2555 C2554 1.366 . S
C2555 C2556 1.414 . S
C2555 C2558 1.499 . S
C2556 H2536 0.950 . S
C2556 C2555 1.414 . S
C2556 C2557 1.374 . S
C2557 H2537 0.950 . S
C2557 C2553 1.385 . S
C2557 C2556 1.374 . S
C2558 C2555 1.499 . S
C2558 C2559 1.373 . S
C2558 C2560 1.389 . S
C2559 H2538 0.950 . S
C2559 C2558 1.373 . S
C2559 C2575 1.377 . S
C2560 C2558 1.389 . S
C2560 C2561 1.524 . S
C2560 C2574 1.377 . S
C2561 C2560 1.524 . S
C2561 C2562 1.397 . S
C2561 C2566 1.363 . S
C2562 H2539 0.950 . S
C2562 C2561 1.397 . S
C2562 C2563 1.334 . S
C2563 H2540 0.950 . S
C2563 C2562 1.334 . S
C2563 C2564 1.287 . S
C2564 C2563 1.287 . S
C2564 C2565 1.524 . S
C2564 H2583 0.913 . S
C2565 H2541 0.950 . S
C2565 C2564 1.524 . S
C2565 C2566 1.415 . S
C2566 H2542 0.950 . S
C2566 C2561 1.363 . S
C2566 C2565 1.415 . S
C2567 H2543 0.951 . S
C2567 C2568 1.366 . S
C2567 C2569 1.388 . S
C2568 C2567 1.366 . S
C2568 C2572 1.385 . S
C2569 H2544 0.951 . S
C2569 C2567 1.388 . S
C2569 C2570 1.366 . S
C2570 C2569 1.366 . S
C2570 C2571 1.414 . S
C2570 C2573 1.499 . S
C2571 H2545 0.950 . S
C2571 C2570 1.414 . S
C2571 C2572 1.374 . S
C2572 H2546 0.950 . S
C2572 C2568 1.385 . S
C2572 C2571 1.374 . S
C2573 C2570 1.499 . S
C2573 C2574 1.373 . S
C2573 C2575 1.389 . S
C2574 H2547 0.950 . S
C2574 C2560 1.377 . S
C2574 C2573 1.373 . S
C2575 C2559 1.377 . S
C2575 C2573 1.389 . S
C2575 C2576 1.524 . S
C2576 C2575 1.524 . S
C2576 C2577 1.397 . S
C2576 C2581 1.363 . S
C2577 H2548 0.950 . S
C2577 C2576 1.397 . S
C2577 C2578 1.334 . S
C2578 H2549 0.950 . S
C2578 C2577 1.334 . S
C2578 C2579 1.287 . S
C2579 C2578 1.287 . S
C2579 C2580 1.524 . S
C2579 H2582 0.999 . S
C2580 H2550 0.950 . S
C2580 C2579 1.524 . S
C2580 C2581 1.415 . S
C2581 H2551 0.950 . S
C2581 C2576 1.363 . S
C2581 C2580 1.415 . S
H2582 C2579 0.999 . S
H2583 C2564 0.913 . S
H2584 C2602 0.951 . S
H2585 C2604 0.951 . S
H2586 C2606 0.950 . S
H2587 C2607 0.950 . S
H2588 C2609 0.950 . S
H2589 C2612 0.950 . S
H2590 C2613 0.950 . S
H2591 C2615 0.950 . S
H2592 C2616 0.950 . S
H2593 C2617 0.951 . S
H2594 C2619 0.951 . S
H2595 C2621 0.950 . S
H2596 C2622 0.950 . S
H2597 C2624 0.950 . S
H2598 C2627 0.950 . S
H2599 C2628 0.950 . S
H2600 C2630 0.950 . S
H2601 C2631 0.950 . S
C2602 H2584 0.951 . S
C2602 C2603 1.366 . S
C2602 C2604 1.388 . S
C2603 C2602 1.366 . S
C2603 C2607 1.385 . S
C2604 H2585 0.951 . S
C2604 C2602 1.388 . S
C2604 C2605 1.366 . S
C2605 C2604 1.366 . S
C2605 C2606 1.414 . S
C2605 C2608 1.499 . S
C2606 H2586 0.950 . S
C2606 C2605 1.414 . S
C2606 C2607 1.374 . S
C2607 H2587 0.950 . S
C2607 C2603 1.385 . S
C2607 C2606 1.374 . S
C2608 C2605 1.499 . S
C2608 C2609 1.373 . S
C2608 C2610 1.389 . S
C2609 H2588 0.950 . S
C2609 C2608 1.373 . S
C2609 C2625 1.377 . S
C2610 C2608 1.389 . S
C2610 C2611 1.524 . S
C2610 C2624 1.377 . S
C2611 C2610 1.524 . S
C2611 C2612 1.397 . S
C2611 C2616 1.363 . S
C2612 H2589 0.950 . S
C2612 C2611 1.397 . S
C2612 C2613 1.334 . S
C2613 H2590 0.950 . S
C2613 C2612 1.334 . S
C2613 C2614 1.287 . S
C2614 C2613 1.287 . S
C2614 C2615 1.524 . S
C2614 H2633 0.913 . S
C2615 H2591 0.950 . S
C2615 C2614 1.524 . S
C2615 C2616 1.415 . S
C2616 H2592 0.950 . S
C2616 C2611 1.363 . S
C2616 C2615 1.415 . S
C2617 H2593 0.951 . S
C2617 C2618 1.366 . S
C2617 C2619 1.388 . S
C2618 C2617 1.366 . S
C2618 C2622 1.385 . S
C2619 H2594 0.951 . S
C2619 C2617 1.388 . S
C2619 C2620 1.366 . S
C2620 C2619 1.366 . S
C2620 C2621 1.414 . S
C2620 C2623 1.499 . S
C2621 H2595 0.950 . S
C2621 C2620 1.414 . S
C2621 C2622 1.374 . S
C2622 H2596 0.950 . S
C2622 C2618 1.385 . S
C2622 C2621 1.374 . S
C2623 C2620 1.499 . S
C2623 C2624 1.373 . S
C2623 C2625 1.389 . S
C2624 H2597 0.950 . S
C2624 C2610 1.377 . S
C2624 C2623 1.373 . S
C2625 C2609 1.377 . S
C2625 C2623 1.389 . S
C2625 C2626 1.524 . S
C2626 C2625 1.524 . S
C2626 C2627 1.397 . S
C2626 C2631 1.363 . S
C2627 H2598 0.950 . S
C2627 C2626 1.397 . S
C2627 C2628 1.334 . S
C2628 H2599 0.950 . S
C2628 C2627 1.334 . S
C2628 C2629 1.287 . S
C2629 C2628 1.287 . S
C2629 C2630 1.524 . S
C2629 H2632 0.999 . S
C2630 H2600 0.950 . S
C2630 C2629 1.524 . S
C2630 C2631 1.415 . S
C2631 H2601 0.950 . S
C2631 C2626 1.363 . S
C2631 C2630 1.415 . S
H2632 C2629 0.999 . S
H2633 C2614 0.913 . S
H2634 C2652 0.951 . S
H2635 C2654 0.951 . S
H2636 C2656 0.950 . S
H2637 C2657 0.950 . S
H2638 C2659 0.950 . S
H2639 C2662 0.950 . S
H2640 C2663 0.950 . S
H2641 C2665 0.950 . S
H2642 C2666 0.950 . S
H2643 C2667 0.951 . S
H2644 C2669 0.951 . S
H2645 C2671 0.950 . S
H2646 C2672 0.950 . S
H2647 C2674 0.950 . S
H2648 C2677 0.950 . S
H2649 C2678 0.950 . S
H2650 C2680 0.950 . S
H2651 C2681 0.950 . S
C2652 H2634 0.951 . S
C2652 C2653 1.366 . S
C2652 C2654 1.388 . S
C2653 C2652 1.366 . S
C2653 C2657 1.385 . S
C2654 H2635 0.951 . S
C2654 C2652 1.388 . S
C2654 C2655 1.366 . S
C2655 C2654 1.366 . S
C2655 C2656 1.414 . S
C2655 C2658 1.499 . S
C2656 H2636 0.950 . S
C2656 C2655 1.414 . S
C2656 C2657 1.374 . S
C2657 H2637 0.950 . S
C2657 C2653 1.385 . S
C2657 C2656 1.374 . S
C2658 C2655 1.499 . S
C2658 C2659 1.373 . S
C2658 C2660 1.389 . S
C2659 H2638 0.950 . S
C2659 C2658 1.373 . S
C2659 C2675 1.377 . S
C2660 C2658 1.389 . S
C2660 C2661 1.524 . S
C2660 C2674 1.377 . S
C2661 C2660 1.524 . S
C2661 C2662 1.397 . S
C2661 C2666 1.363 . S
C2662 H2639 0.950 . S
C2662 C2661 1.397 . S
C2662 C2663 1.334 . S
C2663 H2640 0.950 . S
C2663 C2662 1.334 . S
C2663 C2664 1.287 . S
C2664 C2663 1.287 . S
C2664 C2665 1.524 . S
C2664 H2683 0.913 . S
C2665 H2641 0.950 . S
C2665 C2664 1.524 . S
C2665 C2666 1.415 . S
C2666 H2642 0.950 . S
C2666 C2661 1.363 . S
C2666 C2665 1.415 . S
C2667 H2643 0.951 . S
C2667 C2668 1.366 . S
C2667 C2669 1.388 . S
C2668 C2667 1.366 . S
C2668 C2672 1.385 . S
C2669 H2644 0.951 . S
C2669 C2667 1.388 . S
C2669 C2670 1.366 . S
C2670 C2669 1.366 . S
C2670 C2671 1.414 . S
C2670 C2673 1.499 . S
C2671 H2645 0.950 . S
C2671 C2670 1.414 . S
C2671 C2672 1.374 . S
C2672 H2646 0.950 . S
C2672 C2668 1.385 . S
C2672 C2671 1.374 . S
C2673 C2670 1.499 . S
C2673 C2674 1.373 . S
C2673 C2675 1.389 . S
C2674 H2647 0.950 . S
C2674 C2660 1.377 . S
C2674 C2673 1.373 . S
C2675 C2659 1.377 . S
C2675 C2673 1.389 . S
C2675 C2676 1.524 . S
C2676 C2675 1.524 . S
C2676 C2677 1.397 . S
C2676 C2681 1.363 . S
C2677 H2648 0.950 . S
C2677 C2676 1.397 . S
C2677 C2678 1.334 . S
C2678 H2649 0.950 . S
C2678 C2677 1.334 . S
C2678 C2679 1.287 . S
C2679 C2678 1.287 . S
C2679 C2680 1.524 . S
C2679 H2682 0.999 . S
C2680 H2650 0.950 . S
C2680 C2679 1.524 . S
C2680 C2681 1.415 . S
C2681 H2651 0.950 . S
C2681 C2676 1.363 . S
C2681 C2680 1.415 . S
H2682 C2679 0.999 . S
H2683 C2664 0.913 . S
H2684 C2702 0.951 . S
H2685 C2704 0.951 . S
H2686 C2706 0.950 . S
H2687 C2707 0.950 . S
H2688 C2709 0.950 . S
H2689 C2712 0.950 . S
H2690 C2713 0.950 . S
H2691 C2715 0.950 . S
H2692 C2716 0.950 . S
H2693 C2717 0.951 . S
H2694 C2719 0.951 . S
H2695 C2721 0.950 . S
H2696 C2722 0.950 . S
H2697 C2724 0.950 . S
H2698 C2727 0.950 . S
H2699 C2728 0.950 . S
H2700 C2730 0.950 . S
H2701 C2731 0.950 . S
C2702 H2684 0.951 . S
C2702 C2703 1.366 . S
C2702 C2704 1.388 . S
C2703 C2702 1.366 . S
C2703 C2707 1.385 . S
C2704 H2685 0.951 . S
C2704 C2702 1.388 . S
C2704 C2705 1.366 . S
C2705 C2704 1.366 . S
C2705 C2706 1.414 . S
C2705 C2708 1.499 . S
C2706 H2686 0.950 . S
C2706 C2705 1.414 . S
C2706 C2707 1.374 . S
C2707 H2687 0.950 . S
C2707 C2703 1.385 . S
C2707 C2706 1.374 . S
C2708 C2705 1.499 . S
C2708 C2709 1.373 . S
C2708 C2710 1.389 . S
C2709 H2688 0.950 . S
C2709 C2708 1.373 . S
C2709 C2725 1.377 . S
C2710 C2708 1.389 . S
C2710 C2711 1.524 . S
C2710 C2724 1.377 . S
C2711 C2710 1.524 . S
C2711 C2712 1.397 . S
C2711 C2716 1.363 . S
C2712 H2689 0.950 . S
C2712 C2711 1.397 . S
C2712 C2713 1.334 . S
C2713 H2690 0.950 . S
C2713 C2712 1.334 . S
C2713 C2714 1.287 . S
C2714 C2713 1.287 . S
C2714 C2715 1.524 . S
C2714 H2733 0.913 . S
C2715 H2691 0.950 . S
C2715 C2714 1.524 . S
C2715 C2716 1.415 . S
C2716 H2692 0.950 . S
C2716 C2711 1.363 . S
C2716 C2715 1.415 . S
C2717 H2693 0.951 . S
C2717 C2718 1.366 . S
C2717 C2719 1.388 . S
C2718 C2717 1.366 . S
C2718 C2722 1.385 . S
C2719 H2694 0.951 . S
C2719 C2717 1.388 . S
C2719 C2720 1.366 . S
C2720 C2719 1.366 . S
C2720 C2721 1.414 . S
C2720 C2723 1.499 . S
C2721 H2695 0.950 . S
C2721 C2720 1.414 . S
C2721 C2722 1.374 . S
C2722 H2696 0.950 . S
C2722 C2718 1.385 . S
C2722 C2721 1.374 . S
C2723 C2720 1.499 . S
C2723 C2724 1.373 . S
C2723 C2725 1.389 . S
C2724 H2697 0.950 . S
C2724 C2710 1.377 . S
C2724 C2723 1.373 . S
C2725 C2709 1.377 . S
C2725 C2723 1.389 . S
C2725 C2726 1.524 . S
C2726 C2725 1.524 . S
C2726 C2727 1.397 . S
C2726 C2731 1.363 . S
C2727 H2698 0.950 . S
C2727 C2726 1.397 . S
C2727 C2728 1.334 . S
C2728 H2699 0.950 . S
C2728 C2727 1.334 . S
C2728 C2729 1.287 . S
C2729 C2728 1.287 . S
C2729 C2730 1.524 . S
C2729 H2732 0.999 . S
C2730 H2700 0.950 . S
C2730 C2729 1.524 . S
C2730 C2731 1.415 . S
C2731 H2701 0.950 . S
C2731 C2726 1.363 . S
C2731 C2730 1.415 . S
H2732 C2729 0.999 . S
H2733 C2714 0.913 . S
H2734 C2752 0.951 . S
H2735 C2754 0.951 . S
H2736 C2756 0.950 . S
H2737 C2757 0.950 . S
H2738 C2759 0.950 . S
H2739 C2762 0.950 . S
H2740 C2763 0.950 . S
H2741 C2765 0.950 . S
H2742 C2766 0.950 . S
H2743 C2767 0.951 . S
H2744 C2769 0.951 . S
H2745 C2771 0.950 . S
H2746 C2772 0.950 . S
H2747 C2774 0.950 . S
H2748 C2777 0.950 . S
H2749 C2778 0.950 . S
H2750 C2780 0.950 . S
H2751 C2781 0.950 . S
C2752 H2734 0.951 . S
C2752 C2753 1.366 . S
C2752 C2754 1.388 . S
C2753 C2752 1.366 . S
C2753 C2757 1.385 . S
C2754 H2735 0.951 . S
C2754 C2752 1.388 . S
C2754 C2755 1.366 . S
C2755 C2754 1.366 . S
C2755 C2756 1.414 . S
C2755 C2758 1.499 . S
C2756 H2736 0.950 . S
C2756 C2755 1.414 . S
C2756 C2757 1.374 . S
C2757 H2737 0.950 . S
C2757 C2753 1.385 . S
C2757 C2756 1.374 . S
C2758 C2755 1.499 . S
C2758 C2759 1.373 . S
C2758 C2760 1.389 . S
C2759 H2738 0.950 . S
C2759 C2758 1.373 . S
C2759 C2775 1.377 . S
C2760 C2758 1.389 . S
C2760 C2761 1.524 . S
C2760 C2774 1.377 . S
C2761 C2760 1.524 . S
C2761 C2762 1.397 . S
C2761 C2766 1.363 . S
C2762 H2739 0.950 . S
C2762 C2761 1.397 . S
C2762 C2763 1.334 . S
C2763 H2740 0.950 . S
C2763 C2762 1.334 . S
C2763 C2764 1.287 . S
C2764 C2763 1.287 . S
C2764 C2765 1.524 . S
C2764 H2783 0.913 . S
C2765 H2741 0.950 . S
C2765 C2764 1.524 . S
C2765 C2766 1.415 . S
C2766 H2742 0.950 . S
C2766 C2761 1.363 . S
C2766 C2765 1.415 . S
C2767 H2743 0.951 . S
C2767 C2768 1.366 . S
C2767 C2769 1.388 . S
C2768 C2767 1.366 . S
C2768 C2772 1.385 . S
C2769 H2744 0.951 . S
C2769 C2767 1.388 . S
C2769 C2770 1.366 . S
C2770 C2769 1.366 . S
C2770 C2771 1.414 . S
C2770 C2773 1.499 . S
C2771 H2745 0.950 . S
C2771 C2770 1.414 . S
C2771 C2772 1.374 . S
C2772 H2746 0.950 . S
C2772 C2768 1.385 . S
C2772 C2771 1.374 . S
C2773 C2770 1.499 . S
C2773 C2774 1.373 . S
C2773 C2775 1.389 . S
C2774 H2747 0.950 . S
C2774 C2760 1.377 . S
C2774 C2773 1.373 . S
C2775 C2759 1.377 . S
C2775 C2773 1.389 . S
C2775 C2776 1.524 . S
C2776 C2775 1.524 . S
C2776 C2777 1.397 . S
C2776 C2781 1.363 . S
C2777 H2748 0.950 . S
C2777 C2776 1.397 . S
C2777 C2778 1.334 . S
C2778 H2749 0.950 . S
C2778 C2777 1.334 . S
C2778 C2779 1.287 . S
C2779 C2778 1.287 . S
C2779 C2780 1.524 . S
C2779 H2782 0.999 . S
C2780 H2750 0.950 . S
C2780 C2779 1.524 . S
C2780 C2781 1.415 . S
C2781 H2751 0.950 . S
C2781 C2776 1.363 . S
C2781 C2780 1.415 . S
H2782 C2779 0.999 . S
H2783 C2764 0.913 . S
H2784 C2802 0.951 . S
H2785 C2804 0.951 . S
H2786 C2806 0.950 . S
H2787 C2807 0.950 . S
H2788 C2809 0.950 . S
H2789 C2812 0.950 . S
H2790 C2813 0.950 . S
H2791 C2815 0.950 . S
H2792 C2816 0.950 . S
H2793 C2817 0.951 . S
H2794 C2819 0.951 . S
H2795 C2821 0.950 . S
H2796 C2822 0.950 . S
H2797 C2824 0.950 . S
H2798 C2827 0.950 . S
H2799 C2828 0.950 . S
H2800 C2830 0.950 . S
H2801 C2831 0.950 . S
C2802 H2784 0.951 . S
C2802 C2803 1.366 . S
C2802 C2804 1.388 . S
C2803 C2802 1.366 . S
C2803 C2807 1.385 . S
C2804 H2785 0.951 . S
C2804 C2802 1.388 . S
C2804 C2805 1.366 . S
C2805 C2804 1.366 . S
C2805 C2806 1.414 . S
C2805 C2808 1.499 . S
C2806 H2786 0.950 . S
C2806 C2805 1.414 . S
C2806 C2807 1.374 . S
C2807 H2787 0.950 . S
C2807 C2803 1.385 . S
C2807 C2806 1.374 . S
C2808 C2805 1.499 . S
C2808 C2809 1.373 . S
C2808 C2810 1.389 . S
C2809 H2788 0.950 . S
C2809 C2808 1.373 . S
C2809 C2825 1.377 . S
C2810 C2808 1.389 . S
C2810 C2811 1.524 . S
C2810 C2824 1.377 . S
C2811 C2810 1.524 . S
C2811 C2812 1.397 . S
C2811 C2816 1.363 . S
C2812 H2789 0.950 . S
C2812 C2811 1.397 . S
C2812 C2813 1.334 . S
C2813 H2790 0.950 . S
C2813 C2812 1.334 . S
C2813 C2814 1.287 . S
C2814 C2813 1.287 . S
C2814 C2815 1.524 . S
C2814 H2833 0.913 . S
C2815 H2791 0.950 . S
C2815 C2814 1.524 . S
C2815 C2816 1.415 . S
C2816 H2792 0.950 . S
C2816 C2811 1.363 . S
C2816 C2815 1.415 . S
C2817 H2793 0.951 . S
C2817 C2818 1.366 . S
C2817 C2819 1.388 . S
C2818 C2817 1.366 . S
C2818 C2822 1.385 . S
C2819 H2794 0.951 . S
C2819 C2817 1.388 . S
C2819 C2820 1.366 . S
C2820 C2819 1.366 . S
C2820 C2821 1.414 . S
C2820 C2823 1.499 . S
C2821 H2795 0.950 . S
C2821 C2820 1.414 . S
C2821 C2822 1.374 . S
C2822 H2796 0.950 . S
C2822 C2818 1.385 . S
C2822 C2821 1.374 . S
C2823 C2820 1.499 . S
C2823 C2824 1.373 . S
C2823 C2825 1.389 . S
C2824 H2797 0.950 . S
C2824 C2810 1.377 . S
C2824 C2823 1.373 . S
C2825 C2809 1.377 . S
C2825 C2823 1.389 . S
C2825 C2826 1.524 . S
C2826 C2825 1.524 . S
C2826 C2827 1.397 . S
C2826 C2831 1.363 . S
C2827 H2798 0.950 . S
C2827 C2826 1.397 . S
C2827 C2828 1.334 . S
C2828 H2799 0.950 . S
C2828 C2827 1.334 . S
C2828 C2829 1.287 . S
C2829 C2828 1.287 . S
C2829 C2830 1.524 . S
C2829 H2832 0.999 . S
C2830 H2800 0.950 . S
C2830 C2829 1.524 . S
C2830 C2831 1.415 . S
C2831 H2801 0.950 . S
C2831 C2826 1.363 . S
C2831 C2830 1.415 . S
H2832 C2829 0.999 . S
H2833 C2814 0.913 . S
H2834 C2852 0.951 . S
H2835 C2854 0.951 . S
H2836 C2856 0.950 . S
H2837 C2857 0.950 . S
H2838 C2859 0.950 . S
H2839 C2862 0.950 . S
H2840 C2863 0.950 . S
H2841 C2865 0.950 . S
H2842 C2866 0.950 . S
H2843 C2867 0.951 . S
H2844 C2869 0.951 . S
H2845 C2871 0.950 . S
H2846 C2872 0.950 . S
H2847 C2874 0.950 . S
H2848 C2877 0.950 . S
H2849 C2878 0.950 . S
H2850 C2880 0.950 . S
H2851 C2881 0.950 . S
C2852 H2834 0.951 . S
C2852 C2853 1.366 . S
C2852 C2854 1.388 . S
C2853 C2852 1.366 . S
C2853 C2857 1.385 . S
C2854 H2835 0.951 . S
C2854 C2852 1.388 . S
C2854 C2855 1.366 . S
C2855 C2854 1.366 . S
C2855 C2856 1.414 . S
C2855 C2858 1.499 . S
C2856 H2836 0.950 . S
C2856 C2855 1.414 . S
C2856 C2857 1.374 . S
C2857 H2837 0.950 . S
C2857 C2853 1.385 . S
C2857 C2856 1.374 . S
C2858 C2855 1.499 . S
C2858 C2859 1.373 . S
C2858 C2860 1.389 . S
C2859 H2838 0.950 . S
C2859 C2858 1.373 . S
C2859 C2875 1.377 . S
C2860 C2858 1.389 . S
C2860 C2861 1.524 . S
C2860 C2874 1.377 . S
C2861 C2860 1.524 . S
C2861 C2862 1.397 . S
C2861 C2866 1.363 . S
C2862 H2839 0.950 . S
C2862 C2861 1.397 . S
C2862 C2863 1.334 . S
C2863 H2840 0.950 . S
C2863 C2862 1.334 . S
C2863 C2864 1.287 . S
C2864 C2863 1.287 . S
C2864 C2865 1.524 . S
C2864 H2883 0.913 . S
C2865 H2841 0.950 . S
C2865 C2864 1.524 . S
C2865 C2866 1.415 . S
C2866 H2842 0.950 . S
C2866 C2861 1.363 . S
C2866 C2865 1.415 . S
C2867 H2843 0.951 . S
C2867 C2868 1.366 . S
C2867 C2869 1.388 . S
C2868 C2867 1.366 . S
C2868 C2872 1.385 . S
C2869 H2844 0.951 . S
C2869 C2867 1.388 . S
C2869 C2870 1.366 . S
C2870 C2869 1.366 . S
C2870 C2871 1.414 . S
C2870 C2873 1.499 . S
C2871 H2845 0.950 . S
C2871 C2870 1.414 . S
C2871 C2872 1.374 . S
C2872 H2846 0.950 . S
C2872 C2868 1.385 . S
C2872 C2871 1.374 . S
C2873 C2870 1.499 . S
C2873 C2874 1.373 . S
C2873 C2875 1.389 . S
C2874 H2847 0.950 . S
C2874 C2860 1.377 . S
C2874 C2873 1.373 . S
C2875 C2859 1.377 . S
C2875 C2873 1.389 . S
C2875 C2876 1.524 . S
C2876 C2875 1.524 . S
C2876 C2877 1.397 . S
C2876 C2881 1.363 . S
C2877 H2848 0.950 . S
C2877 C2876 1.397 . S
C2877 C2878 1.334 . S
C2878 H2849 0.950 . S
C2878 C2877 1.334 . S
C2878 C2879 1.287 . S
C2879 C2878 1.287 . S
C2879 C2880 1.524 . S
C2879 H2882 0.999 . S
C2880 H2850 0.950 . S
C2880 C2879 1.524 . S
C2880 C2881 1.415 . S
C2881 H2851 0.950 . S
C2881 C2876 1.363 . S
C2881 C2880 1.415 . S
H2882 C2879 0.999 . S
H2883 C2864 0.913 . S
H2884 C2902 0.951 . S
H2885 C2904 0.951 . S
H2886 C2906 0.950 . S
H2887 C2907 0.950 . S
H2888 C2909 0.950 . S
H2889 C2912 0.950 . S
H2890 C2913 0.950 . S
H2891 C2915 0.950 . S
H2892 C2916 0.950 . S
H2893 C2917 0.951 . S
H2894 C2919 0.951 . S
H2895 C2921 0.950 . S
H2896 C2922 0.950 . S
H2897 C2924 0.950 . S
H2898 C2927 0.950 . S
H2899 C2928 0.950 . S
H2900 C2930 0.950 . S
H2901 C2931 0.950 . S
C2902 H2884 0.951 . S
C2902 C2903 1.366 . S
C2902 C2904 1.388 . S
C2903 C2902 1.366 . S
C2903 C2907 1.385 . S
C2904 H2885 0.951 . S
C2904 C2902 1.388 . S
C2904 C2905 1.366 . S
C2905 C2904 1.366 . S
C2905 C2906 1.414 . S
C2905 C2908 1.499 . S
C2906 H2886 0.950 . S
C2906 C2905 1.414 . S
C2906 C2907 1.374 . S
C2907 H2887 0.950 . S
C2907 C2903 1.385 . S
C2907 C2906 1.374 . S
C2908 C2905 1.499 . S
C2908 C2909 1.373 . S
C2908 C2910 1.389 . S
C2909 H2888 0.950 . S
C2909 C2908 1.373 . S
C2909 C2925 1.377 . S
C2910 C2908 1.389 . S
C2910 C2911 1.524 . S
C2910 C2924 1.377 . S
C2911 C2910 1.524 . S
C2911 C2912 1.397 . S
C2911 C2916 1.363 . S
C2912 H2889 0.950 . S
C2912 C2911 1.397 . S
C2912 C2913 1.334 . S
C2913 H2890 0.950 . S
C2913 C2912 1.334 . S
C2913 C2914 1.287 . S
C2914 C2913 1.287 . S
C2914 C2915 1.524 . S
C2914 H2933 0.913 . S
C2915 H2891 0.950 . S
C2915 C2914 1.524 . S
C2915 C2916 1.415 . S
C2916 H2892 0.950 . S
C2916 C2911 1.363 . S
C2916 C2915 1.415 . S
C2917 H2893 0.951 . S
C2917 C2918 1.366 . S
C2917 C2919 1.388 . S
C2918 C2917 1.366 . S
C2918 C2922 1.385 . S
C2919 H2894 0.951 . S
C2919 C2917 1.388 . S
C2919 C2920 1.366 . S
C2920 C2919 1.366 . S
C2920 C2921 1.414 . S
C2920 C2923 1.499 . S
C2921 H2895 0.950 . S
C2921 C2920 1.414 . S
C2921 C2922 1.374 . S
C2922 H2896 0.950 . S
C2922 C2918 1.385 . S
C2922 C2921 1.374 . S
C2923 C2920 1.499 . S
C2923 C2924 1.373 . S
C2923 C2925 1.389 . S
C2924 H2897 0.950 . S
C2924 C2910 1.377 . S
C2924 C2923 1.373 . S
C2925 C2909 1.377 . S
C2925 C2923 1.389 . S
C2925 C2926 1.524 . S
C2926 C2925 1.524 . S
C2926 C2927 1.397 . S
C2926 C2931 1.363 . S
C2927 H2898 0.950 . S
C2927 C2926 1.397 . S
C2927 C2928 1.334 . S
C2928 H2899 0.950 . S
C2928 C2927 1.334 . S
C2928 C2929 1.287 . S
C2929 C2928 1.287 . S
C2929 C2930 1.524 . S
C2929 H2932 0.999 . S
C2930 H2900 0.950 . S
C2930 C2929 1.524 . S
C2930 C2931 1.415 . S
C2931 H2901 0.950 . S
C2931 C2926 1.363 . S
C2931 C2930 1.415 . S
H2932 C2929 0.999 . S
H2933 C2914 0.913 . S
H2934 C2952 0.951 . S
H2935 C2954 0.951 . S
H2936 C2956 0.950 . S
H2937 C2957 0.950 . S
H2938 C2959 0.950 . S
H2939 C2962 0.950 . S
H2940 C2963 0.950 . S
H2941 C2965 0.950 . S
H2942 C2966 0.950 . S
H2943 C2967 0.951 . S
H2944 C2969 0.951 . S
H2945 C2971 0.950 . S
H2946 C2972 0.950 . S
H2947 C2974 0.950 . S
H2948 C2977 0.950 . S
H2949 C2978 0.950 . S
H2950 C2980 0.950 . S
H2951 C2981 0.950 . S
C2952 H2934 0.951 . S
C2952 C2953 1.366 . S
C2952 C2954 1.388 . S
C2953 C2952 1.366 . S
C2953 C2957 1.385 . S
C2954 H2935 0.951 . S
C2954 C2952 1.388 . S
C2954 C2955 1.366 . S
C2955 C2954 1.366 . S
C2955 C2956 1.414 . S
C2955 C2958 1.499 . S
C2956 H2936 0.950 . S
C2956 C2955 1.414 . S
C2956 C2957 1.374 . S
C2957 H2937 0.950 . S
C2957 C2953 1.385 . S
C2957 C2956 1.374 . S
C2958 C2955 1.499 . S
C2958 C2959 1.373 . S
C2958 C2960 1.389 . S
C2959 H2938 0.950 . S
C2959 C2958 1.373 . S
C2959 C2975 1.377 . S
C2960 C2958 1.389 . S
C2960 C2961 1.524 . S
C2960 C2974 1.377 . S
C2961 C2960 1.524 . S
C2961 C2962 1.397 . S
C2961 C2966 1.363 . S
C2962 H2939 0.950 . S
C2962 C2961 1.397 . S
C2962 C2963 1.334 . S
C2963 H2940 0.950 . S
C2963 C2962 1.334 . S
C2963 C2964 1.287 . S
C2964 C2963 1.287 . S
C2964 C2965 1.524 . S
C2964 H2983 0.913 . S
C2965 H2941 0.950 . S
C2965 C2964 1.524 . S
C2965 C2966 1.415 . S
C2966 H2942 0.950 . S
C2966 C2961 1.363 . S
C2966 C2965 1.415 . S
C2967 H2943 0.951 . S
C2967 C2968 1.366 . S
C2967 C2969 1.388 . S
C2968 C2967 1.366 . S
C2968 C2972 1.385 . S
C2969 H2944 0.951 . S
C2969 C2967 1.388 . S
C2969 C2970 1.366 . S
C2970 C2969 1.366 . S
C2970 C2971 1.414 . S
C2970 C2973 1.499 . S
C2971 H2945 0.950 . S
C2971 C2970 1.414 . S
C2971 C2972 1.374 . S
C2972 H2946 0.950 . S
C2972 C2968 1.385 . S
C2972 C2971 1.374 . S
C2973 C2970 1.499 . S
C2973 C2974 1.373 . S
C2973 C2975 1.389 . S
C2974 H2947 0.950 . S
C2974 C2960 1.377 . S
C2974 C2973 1.373 . S
C2975 C2959 1.377 . S
C2975 C2973 1.389 . S
C2975 C2976 1.524 . S
C2976 C2975 1.524 . S
C2976 C2977 1.397 . S
C2976 C2981 1.363 . S
C2977 H2948 0.950 . S
C2977 C2976 1.397 . S
C2977 C2978 1.334 . S
C2978 H2949 0.950 . S
C2978 C2977 1.334 . S
C2978 C2979 1.287 . S
C2979 C2978 1.287 . S
C2979 C2980 1.524 . S
C2979 H2982 0.999 . S
C2980 H2950 0.950 . S
C2980 C2979 1.524 . S
C2980 C2981 1.415 . S
C2981 H2951 0.950 . S
C2981 C2976 1.363 . S
C2981 C2980 1.415 . S
H2982 C2979 0.999 . S
H2983 C2964 0.913 . S
H2984 C3002 0.951 . S
H2985 C3004 0.951 . S
H2986 C3006 0.950 . S
H2987 C3007 0.950 . S
H2988 C3009 0.950 . S
H2989 C3012 0.950 . S
H2990 C3013 0.950 . S
H2991 C3015 0.950 . S
H2992 C3016 0.950 . S
H2993 C3017 0.951 . S
H2994 C3019 0.951 . S
H2995 C3021 0.950 . S
H2996 C3022 0.950 . S
H2997 C3024 0.950 . S
H2998 C3027 0.950 . S
H2999 C3028 0.950 . S
H3000 C3030 0.950 . S
H3001 C3031 0.950 . S
C3002 H2984 0.951 . S
C3002 C3003 1.366 . S
C3002 C3004 1.388 . S
C3003 C3002 1.366 . S
C3003 C3007 1.385 . S
C3004 H2985 0.951 . S
C3004 C3002 1.388 . S
C3004 C3005 1.366 . S
C3005 C3004 1.366 . S
C3005 C3006 1.414 . S
C3005 C3008 1.499 . S
C3006 H2986 0.950 . S
C3006 C3005 1.414 . S
C3006 C3007 1.374 . S
C3007 H2987 0.950 . S
C3007 C3003 1.385 . S
C3007 C3006 1.374 . S
C3008 C3005 1.499 . S
C3008 C3009 1.373 . S
C3008 C3010 1.389 . S
C3009 H2988 0.950 . S
C3009 C3008 1.373 . S
C3009 C3025 1.377 . S
C3010 C3008 1.389 . S
C3010 C3011 1.524 . S
C3010 C3024 1.377 . S
C3011 C3010 1.524 . S
C3011 C3012 1.397 . S
C3011 C3016 1.363 . S
C3012 H2989 0.950 . S
C3012 C3011 1.397 . S
C3012 C3013 1.334 . S
C3013 H2990 0.950 . S
C3013 C3012 1.334 . S
C3013 C3014 1.287 . S
C3014 C3013 1.287 . S
C3014 C3015 1.524 . S
C3014 H3033 0.913 . S
C3015 H2991 0.950 . S
C3015 C3014 1.524 . S
C3015 C3016 1.415 . S
C3016 H2992 0.950 . S
C3016 C3011 1.363 . S
C3016 C3015 1.415 . S
C3017 H2993 0.951 . S
C3017 C3018 1.366 . S
C3017 C3019 1.388 . S
C3018 C3017 1.366 . S
C3018 C3022 1.385 . S
C3019 H2994 0.951 . S
C3019 C3017 1.388 . S
C3019 C3020 1.366 . S
C3020 C3019 1.366 . S
C3020 C3021 1.414 . S
C3020 C3023 1.499 . S
C3021 H2995 0.950 . S
C3021 C3020 1.414 . S
C3021 C3022 1.374 . S
C3022 H2996 0.950 . S
C3022 C3018 1.385 . S
C3022 C3021 1.374 . S
C3023 C3020 1.499 . S
C3023 C3024 1.373 . S
C3023 C3025 1.389 . S
C3024 H2997 0.950 . S
C3024 C3010 1.377 . S
C3024 C3023 1.373 . S
C3025 C3009 1.377 . S
C3025 C3023 1.389 . S
C3025 C3026 1.524 . S
C3026 C3025 1.524 . S
C3026 C3027 1.397 . S
C3026 C3031 1.363 . S
C3027 H2998 0.950 . S
C3027 C3026 1.397 . S
C3027 C3028 1.334 . S
C3028 H2999 0.950 . S
C3028 C3027 1.334 . S
C3028 C3029 1.287 . S
C3029 C3028 1.287 . S
C3029 C3030 1.524 . S
C3029 H3032 0.999 . S
C3030 H3000 0.950 . S
C3030 C3029 1.524 . S
C3030 C3031 1.415 . S
C3031 H3001 0.950 . S
C3031 C3026 1.363 . S
C3031 C3030 1.415 . S
H3032 C3029 0.999 . S
H3033 C3014 0.913 . S
H3034 C3052 0.951 . S
H3035 C3054 0.951 . S
H3036 C3056 0.950 . S
H3037 C3057 0.950 . S
H3038 C3059 0.950 . S
H3039 C3062 0.950 . S
H3040 C3063 0.950 . S
H3041 C3065 0.950 . S
H3042 C3066 0.950 . S
H3043 C3067 0.951 . S
H3044 C3069 0.951 . S
H3045 C3071 0.950 . S
H3046 C3072 0.950 . S
H3047 C3074 0.950 . S
H3048 C3077 0.950 . S
H3049 C3078 0.950 . S
H3050 C3080 0.950 . S
H3051 C3081 0.950 . S
C3052 H3034 0.951 . S
C3052 C3053 1.366 . S
C3052 C3054 1.388 . S
C3053 C3052 1.366 . S
C3053 C3057 1.385 . S
C3054 H3035 0.951 . S
C3054 C3052 1.388 . S
C3054 C3055 1.366 . S
C3055 C3054 1.366 . S
C3055 C3056 1.414 . S
C3055 C3058 1.499 . S
C3056 H3036 0.950 . S
C3056 C3055 1.414 . S
C3056 C3057 1.374 . S
C3057 H3037 0.950 . S
C3057 C3053 1.385 . S
C3057 C3056 1.374 . S
C3058 C3055 1.499 . S
C3058 C3059 1.373 . S
C3058 C3060 1.389 . S
C3059 H3038 0.950 . S
C3059 C3058 1.373 . S
C3059 C3075 1.377 . S
C3060 C3058 1.389 . S
C3060 C3061 1.524 . S
C3060 C3074 1.377 . S
C3061 C3060 1.524 . S
C3061 C3062 1.397 . S
C3061 C3066 1.363 . S
C3062 H3039 0.950 . S
C3062 C3061 1.397 . S
C3062 C3063 1.334 . S
C3063 H3040 0.950 . S
C3063 C3062 1.334 . S
C3063 C3064 1.287 . S
C3064 C3063 1.287 . S
C3064 C3065 1.524 . S
C3064 H3083 0.913 . S
C3065 H3041 0.950 . S
C3065 C3064 1.524 . S
C3065 C3066 1.415 . S
C3066 H3042 0.950 . S
C3066 C3061 1.363 . S
C3066 C3065 1.415 . S
C3067 H3043 0.951 . S
C3067 C3068 1.366 . S
C3067 C3069 1.388 . S
C3068 C3067 1.366 . S
C3068 C3072 1.385 . S
C3069 H3044 0.951 . S
C3069 C3067 1.388 . S
C3069 C3070 1.366 . S
C3070 C3069 1.366 . S
C3070 C3071 1.414 . S
C3070 C3073 1.499 . S
C3071 H3045 0.950 . S
C3071 C3070 1.414 . S
C3071 C3072 1.374 . S
C3072 H3046 0.950 . S
C3072 C3068 1.385 . S
C3072 C3071 1.374 . S
C3073 C3070 1.499 . S
C3073 C3074 1.373 . S
C3073 C3075 1.389 . S
C3074 H3047 0.950 . S
C3074 C3060 1.377 . S
C3074 C3073 1.373 . S
C3075 C3059 1.377 . S
C3075 C3073 1.389 . S
C3075 C3076 1.524 . S
C3076 C3075 1.524 . S
C3076 C3077 1.397 . S
C3076 C3081 1.363 . S
C3077 H3048 0.950 . S
C3077 C3076 1.397 . S
C3077 C3078 1.334 . S
C3078 H3049 0.950 . S
C3078 C3077 1.334 . S
C3078 C3079 1.287 . S
C3079 C3078 1.287 . S
C3079 C3080 1.524 . S
C3079 H3082 0.999 . S
C3080 H3050 0.950 . S
C3080 C3079 1.524 . S
C3080 C3081 1.415 . S
C3081 H3051 0.950 . S
C3081 C3076 1.363 . S
C3081 C3080 1.415 . S
H3082 C3079 0.999 . S
H3083 C3064 0.913 . S
H3084 C3102 0.951 . S
H3085 C3104 0.951 . S
H3086 C3106 0.950 . S
H3087 C3107 0.950 . S
H3088 C3109 0.950 . S
H3089 C3112 0.950 . S
H3090 C3113 0.950 . S
H3091 C3115 0.950 . S
H3092 C3116 0.950 . S
H3093 C3117 0.951 . S
H3094 C3119 0.951 . S
H3095 C3121 0.950 . S
H3096 C3122 0.950 . S
H3097 C3124 0.950 . S
H3098 C3127 0.950 . S
H3099 C3128 0.950 . S
H3100 C3130 0.950 . S
H3101 C3131 0.950 . S
C3102 H3084 0.951 . S
C3102 C3103 1.366 . S
C3102 C3104 1.388 . S
C3103 C3102 1.366 . S
C3103 C3107 1.385 . S
C3104 H3085 0.951 . S
C3104 C3102 1.388 . S
C3104 C3105 1.366 . S
C3105 C3104 1.366 . S
C3105 C3106 1.414 . S
C3105 C3108 1.499 . S
C3106 H3086 0.950 . S
C3106 C3105 1.414 . S
C3106 C3107 1.374 . S
C3107 H3087 0.950 . S
C3107 C3103 1.385 . S
C3107 C3106 1.374 . S
C3108 C3105 1.499 . S
C3108 C3109 1.373 . S
C3108 C3110 1.389 . S
C3109 H3088 0.950 . S
C3109 C3108 1.373 . S
C3109 C3125 1.377 . S
C3110 C3108 1.389 . S
C3110 C3111 1.524 . S
C3110 C3124 1.377 . S
C3111 C3110 1.524 . S
C3111 C3112 1.397 . S
C3111 C3116 1.363 . S
C3112 H3089 0.950 . S
C3112 C3111 1.397 . S
C3112 C3113 1.334 . S
C3113 H3090 0.950 . S
C3113 C3112 1.334 . S
C3113 C3114 1.287 . S
C3114 C3113 1.287 . S
C3114 C3115 1.524 . S
C3114 H3133 0.913 . S
C3115 H3091 0.950 . S
C3115 C3114 1.524 . S
C3115 C3116 1.415 . S
C3116 H3092 0.950 . S
C3116 C3111 1.363 . S
C3116 C3115 1.415 . S
C3117 H3093 0.951 . S
C3117 C3118 1.366 . S
C3117 C3119 1.388 . S
C3118 C3117 1.366 . S
C3118 C3122 1.385 . S
C3119 H3094 0.951 . S
C3119 C3117 1.388 . S
C3119 C3120 1.366 . S
C3120 C3119 1.366 . S
C3120 C3121 1.414 . S
C3120 C3123 1.499 . S
C3121 H3095 0.950 . S
C3121 C3120 1.414 . S
C3121 C3122 1.374 . S
C3122 H3096 0.950 . S
C3122 C3118 1.385 . S
C3122 C3121 1.374 . S
C3123 C3120 1.499 . S
C3123 C3124 1.373 . S
C3123 C3125 1.389 . S
C3124 H3097 0.950 . S
C3124 C3110 1.377 . S
C3124 C3123 1.373 . S
C3125 C3109 1.377 . S
C3125 C3123 1.389 . S
C3125 C3126 1.524 . S
C3126 C3125 1.524 . S
C3126 C3127 1.397 . S
C3126 C3131 1.363 . S
C3127 H3098 0.950 . S
C3127 C3126 1.397 . S
C3127 C3128 1.334 . S
C3128 H3099 0.950 . S
C3128 C3127 1.334 . S
C3128 C3129 1.287 . S
C3129 C3128 1.287 . S
C3129 C3130 1.524 . S
C3129 H3132 0.999 . S
C3130 H3100 0.950 . S
C3130 C3129 1.524 . S
C3130 C3131 1.415 . S
C3131 H3101 0.950 . S
C3131 C3126 1.363 . S
C3131 C3130 1.415 . S
H3132 C3129 0.999 . S
H3133 C3114 0.913 . S
H3134 C3152 0.951 . S
H3135 C3154 0.951 . S
H3136 C3156 0.950 . S
H3137 C3157 0.950 . S
H3138 C3159 0.950 . S
H3139 C3162 0.950 . S
H3140 C3163 0.950 . S
H3141 C3165 0.950 . S
H3142 C3166 0.950 . S
H3143 C3167 0.951 . S
H3144 C3169 0.951 . S
H3145 C3171 0.950 . S
H3146 C3172 0.950 . S
H3147 C3174 0.950 . S
H3148 C3177 0.950 . S
H3149 C3178 0.950 . S
H3150 C3180 0.950 . S
H3151 C3181 0.950 . S
C3152 H3134 0.951 . S
C3152 C3153 1.366 . S
C3152 C3154 1.388 . S
C3153 C3152 1.366 . S
C3153 C3157 1.385 . S
C3154 H3135 0.951 . S
C3154 C3152 1.388 . S
C3154 C3155 1.366 . S
C3155 C3154 1.366 . S
C3155 C3156 1.414 . S
C3155 C3158 1.499 . S
C3156 H3136 0.950 . S
C3156 C3155 1.414 . S
C3156 C3157 1.374 . S
C3157 H3137 0.950 . S
C3157 C3153 1.385 . S
C3157 C3156 1.374 . S
C3158 C3155 1.499 . S
C3158 C3159 1.373 . S
C3158 C3160 1.389 . S
C3159 H3138 0.950 . S
C3159 C3158 1.373 . S
C3159 C3175 1.377 . S
C3160 C3158 1.389 . S
C3160 C3161 1.524 . S
C3160 C3174 1.377 . S
C3161 C3160 1.524 . S
C3161 C3162 1.397 . S
C3161 C3166 1.363 . S
C3162 H3139 0.950 . S
C3162 C3161 1.397 . S
C3162 C3163 1.334 . S
C3163 H3140 0.950 . S
C3163 C3162 1.334 . S
C3163 C3164 1.287 . S
C3164 C3163 1.287 . S
C3164 C3165 1.524 . S
C3164 H3183 0.913 . S
C3165 H3141 0.950 . S
C3165 C3164 1.524 . S
C3165 C3166 1.415 . S
C3166 H3142 0.950 . S
C3166 C3161 1.363 . S
C3166 C3165 1.415 . S
C3167 H3143 0.951 . S
C3167 C3168 1.366 . S
C3167 C3169 1.388 . S
C3168 C3167 1.366 . S
C3168 C3172 1.385 . S
C3169 H3144 0.951 . S
C3169 C3167 1.388 . S
C3169 C3170 1.366 . S
C3170 C3169 1.366 . S
C3170 C3171 1.414 . S
C3170 C3173 1.499 . S
C3171 H3145 0.950 . S
C3171 C3170 1.414 . S
C3171 C3172 1.374 . S
C3172 H3146 0.950 . S
C3172 C3168 1.385 . S
C3172 C3171 1.374 . S
C3173 C3170 1.499 . S
C3173 C3174 1.373 . S
C3173 C3175 1.389 . S
C3174 H3147 0.950 . S
C3174 C3160 1.377 . S
C3174 C3173 1.373 . S
C3175 C3159 1.377 . S
C3175 C3173 1.389 . S
C3175 C3176 1.524 . S
C3176 C3175 1.524 . S
C3176 C3177 1.397 . S
C3176 C3181 1.363 . S
C3177 H3148 0.950 . S
C3177 C3176 1.397 . S
C3177 C3178 1.334 . S
C3178 H3149 0.950 . S
C3178 C3177 1.334 . S
C3178 C3179 1.287 . S
C3179 C3178 1.287 . S
C3179 C3180 1.524 . S
C3179 H3182 0.999 . S
C3180 H3150 0.950 . S
C3180 C3179 1.524 . S
C3180 C3181 1.415 . S
C3181 H3151 0.950 . S
C3181 C3176 1.363 . S
C3181 C3180 1.415 . S
H3182 C3179 0.999 . S
H3183 C3164 0.913 . S
H3184 C3202 0.951 . S
H3185 C3204 0.951 . S
H3186 C3206 0.950 . S
H3187 C3207 0.950 . S
H3188 C3209 0.950 . S
H3189 C3212 0.950 . S
H3190 C3213 0.950 . S
H3191 C3215 0.950 . S
H3192 C3216 0.950 . S
H3193 C3217 0.951 . S
H3194 C3219 0.951 . S
H3195 C3221 0.950 . S
H3196 C3222 0.950 . S
H3197 C3224 0.950 . S
H3198 C3227 0.950 . S
H3199 C3228 0.950 . S
H3200 C3230 0.950 . S
H3201 C3231 0.950 . S
C3202 H3184 0.951 . S
C3202 C3203 1.366 . S
C3202 C3204 1.388 . S
C3203 C3202 1.366 . S
C3203 C3207 1.385 . S
C3204 H3185 0.951 . S
C3204 C3202 1.388 . S
C3204 C3205 1.366 . S
C3205 C3204 1.366 . S
C3205 C3206 1.414 . S
C3205 C3208 1.499 . S
C3206 H3186 0.950 . S
C3206 C3205 1.414 . S
C3206 C3207 1.374 . S
C3207 H3187 0.950 . S
C3207 C3203 1.385 . S
C3207 C3206 1.374 . S
C3208 C3205 1.499 . S
C3208 C3209 1.373 . S
C3208 C3210 1.389 . S
C3209 H3188 0.950 . S
C3209 C3208 1.373 . S
C3209 C3225 1.377 . S
C3210 C3208 1.389 . S
C3210 C3211 1.524 . S
C3210 C3224 1.377 . S
C3211 C3210 1.524 . S
C3211 C3212 1.397 . S
C3211 C3216 1.363 . S
C3212 H3189 0.950 . S
C3212 C3211 1.397 . S
C3212 C3213 1.334 . S
C3213 H3190 0.950 . S
C3213 C3212 1.334 . S
C3213 C3214 1.287 . S
C3214 C3213 1.287 . S
C3214 C3215 1.524 . S
C3214 H3233 0.913 . S
C3215 H3191 0.950 . S
C3215 C3214 1.524 . S
C3215 C3216 1.415 . S
C3216 H3192 0.950 . S
C3216 C3211 1.363 . S
C3216 C3215 1.415 . S
C3217 H3193 0.951 . S
C3217 C3218 1.366 . S
C3217 C3219 1.388 . S
C3218 C3217 1.366 . S
C3218 C3222 1.385 . S
C3219 H3194 0.951 . S
C3219 C3217 1.388 . S
C3219 C3220 1.366 . S
C3220 C3219 1.366 . S
C3220 C3221 1.414 . S
C3220 C3223 1.499 . S
C3221 H3195 0.950 . S
C3221 C3220 1.414 . S
C3221 C3222 1.374 . S
C3222 H3196 0.950 . S
C3222 C3218 1.385 . S
C3222 C3221 1.374 . S
C3223 C3220 1.499 . S
C3223 C3224 1.373 . S
C3223 C3225 1.389 . S
C3224 H3197 0.950 . S
C3224 C3210 1.377 . S
C3224 C3223 1.373 . S
C3225 C3209 1.377 . S
C3225 C3223 1.389 . S
C3225 C3226 1.524 . S
C3226 C3225 1.524 . S
C3226 C3227 1.397 . S
C3226 C3231 1.363 . S
C3227 H3198 0.950 . S
C3227 C3226 1.397 . S
C3227 C3228 1.334 . S
C3228 H3199 0.950 . S
C3228 C3227 1.334 . S
C3228 C3229 1.287 . S
C3229 C3228 1.287 . S
C3229 C3230 1.524 . S
C3229 H3232 0.999 . S
C3230 H3200 0.950 . S
C3230 C3229 1.524 . S
C3230 C3231 1.415 . S
C3231 H3201 0.950 . S
C3231 C3226 1.363 . S
C3231 C3230 1.415 . S
H3232 C3229 0.999 . S
H3233 C3214 0.913 . S
H3234 C3252 0.951 . S
H3235 C3254 0.951 . S
H3236 C3256 0.950 . S
H3237 C3257 0.950 . S
H3238 C3259 0.950 . S
H3239 C3262 0.950 . S
H3240 C3263 0.950 . S
H3241 C3265 0.950 . S
H3242 C3266 0.950 . S
H3243 C3267 0.951 . S
H3244 C3269 0.951 . S
H3245 C3271 0.950 . S
H3246 C3272 0.950 . S
H3247 C3274 0.950 . S
H3248 C3277 0.950 . S
H3249 C3278 0.950 . S
H3250 C3280 0.950 . S
H3251 C3281 0.950 . S
C3252 H3234 0.951 . S
C3252 C3253 1.366 . S
C3252 C3254 1.388 . S
C3253 C3252 1.366 . S
C3253 C3257 1.385 . S
C3254 H3235 0.951 . S
C3254 C3252 1.388 . S
C3254 C3255 1.366 . S
C3255 C3254 1.366 . S
C3255 C3256 1.414 . S
C3255 C3258 1.499 . S
C3256 H3236 0.950 . S
C3256 C3255 1.414 . S
C3256 C3257 1.374 . S
C3257 H3237 0.950 . S
C3257 C3253 1.385 . S
C3257 C3256 1.374 . S
C3258 C3255 1.499 . S
C3258 C3259 1.373 . S
C3258 C3260 1.389 . S
C3259 H3238 0.950 . S
C3259 C3258 1.373 . S
C3259 C3275 1.377 . S
C3260 C3258 1.389 . S
C3260 C3261 1.524 . S
C3260 C3274 1.377 . S
C3261 C3260 1.524 . S
C3261 C3262 1.397 . S
C3261 C3266 1.363 . S
C3262 H3239 0.950 . S
C3262 C3261 1.397 . S
C3262 C3263 1.334 . S
C3263 H3240 0.950 . S
C3263 C3262 1.334 . S
C3263 C3264 1.287 . S
C3264 C3263 1.287 . S
C3264 C3265 1.524 . S
C3264 H3283 0.913 . S
C3265 H3241 0.950 . S
C3265 C3264 1.524 . S
C3265 C3266 1.415 . S
C3266 H3242 0.950 . S
C3266 C3261 1.363 . S
C3266 C3265 1.415 . S
C3267 H3243 0.951 . S
C3267 C3268 1.366 . S
C3267 C3269 1.388 . S
C3268 C3267 1.366 . S
C3268 C3272 1.385 . S
C3269 H3244 0.951 . S
C3269 C3267 1.388 . S
C3269 C3270 1.366 . S
C3270 C3269 1.366 . S
C3270 C3271 1.414 . S
C3270 C3273 1.499 . S
C3271 H3245 0.950 . S
C3271 C3270 1.414 . S
C3271 C3272 1.374 . S
C3272 H3246 0.950 . S
C3272 C3268 1.385 . S
C3272 C3271 1.374 . S
C3273 C3270 1.499 . S
C3273 C3274 1.373 . S
C3273 C3275 1.389 . S
C3274 H3247 0.950 . S
C3274 C3260 1.377 . S
C3274 C3273 1.373 . S
C3275 C3259 1.377 . S
C3275 C3273 1.389 . S
C3275 C3276 1.524 . S
C3276 C3275 1.524 . S
C3276 C3277 1.397 . S
C3276 C3281 1.363 . S
C3277 H3248 0.950 . S
C3277 C3276 1.397 . S
C3277 C3278 1.334 . S
C3278 H3249 0.950 . S
C3278 C3277 1.334 . S
C3278 C3279 1.287 . S
C3279 C3278 1.287 . S
C3279 C3280 1.524 . S
C3279 H3282 0.999 . S
C3280 H3250 0.950 . S
C3280 C3279 1.524 . S
C3280 C3281 1.415 . S
C3281 H3251 0.950 . S
C3281 C3276 1.363 . S
C3281 C3280 1.415 . S
H3282 C3279 0.999 . S
H3283 C3264 0.913 . S
H3284 C3302 0.951 . S
H3285 C3304 0.951 . S
H3286 C3306 0.950 . S
H3287 C3307 0.950 . S
H3288 C3309 0.950 . S
H3289 C3312 0.950 . S
H3290 C3313 0.950 . S
H3291 C3315 0.950 . S
H3292 C3316 0.950 . S
H3293 C3317 0.951 . S
H3294 C3319 0.951 . S
H3295 C3321 0.950 . S
H3296 C3322 0.950 . S
H3297 C3324 0.950 . S
H3298 C3327 0.950 . S
H3299 C3328 0.950 . S
H3300 C3330 0.950 . S
H3301 C3331 0.950 . S
C3302 H3284 0.951 . S
C3302 C3303 1.366 . S
C3302 C3304 1.388 . S
C3303 C3302 1.366 . S
C3303 C3307 1.385 . S
C3304 H3285 0.951 . S
C3304 C3302 1.388 . S
C3304 C3305 1.366 . S
C3305 C3304 1.366 . S
C3305 C3306 1.414 . S
C3305 C3308 1.499 . S
C3306 H3286 0.950 . S
C3306 C3305 1.414 . S
C3306 C3307 1.374 . S
C3307 H3287 0.950 . S
C3307 C3303 1.385 . S
C3307 C3306 1.374 . S
C3308 C3305 1.499 . S
C3308 C3309 1.373 . S
C3308 C3310 1.389 . S
C3309 H3288 0.950 . S
C3309 C3308 1.373 . S
C3309 C3325 1.377 . S
C3310 C3308 1.389 . S
C3310 C3311 1.524 . S
C3310 C3324 1.377 . S
C3311 C3310 1.524 . S
C3311 C3312 1.397 . S
C3311 C3316 1.363 . S
C3312 H3289 0.950 . S
C3312 C3311 1.397 . S
C3312 C3313 1.334 . S
C3313 H3290 0.950 . S
C3313 C3312 1.334 . S
C3313 C3314 1.287 . S
C3314 C3313 1.287 . S
C3314 C3315 1.524 . S
C3314 H3333 0.913 . S
C3315 H3291 0.950 . S
C3315 C3314 1.524 . S
C3315 C3316 1.415 . S
C3316 H3292 0.950 . S
C3316 C3311 1.363 . S
C3316 C3315 1.415 . S
C3317 H3293 0.951 . S
C3317 C3318 1.366 . S
C3317 C3319 1.388 . S
C3318 C3317 1.366 . S
C3318 C3322 1.385 . S
C3319 H3294 0.951 . S
C3319 C3317 1.388 . S
C3319 C3320 1.366 . S
C3320 C3319 1.366 . S
C3320 C3321 1.414 . S
C3320 C3323 1.499 . S
C3321 H3295 0.950 . S
C3321 C3320 1.414 . S
C3321 C3322 1.374 . S
C3322 H3296 0.950 . S
C3322 C3318 1.385 . S
C3322 C3321 1.374 . S
C3323 C3320 1.499 . S
C3323 C3324 1.373 . S
C3323 C3325 1.389 . S
C3324 H3297 0.950 . S
C3324 C3310 1.377 . S
C3324 C3323 1.373 . S
C3325 C3309 1.377 . S
C3325 C3323 1.389 . S
C3325 C3326 1.524 . S
C3326 C3325 1.524 . S
C3326 C3327 1.397 . S
C3326 C3331 1.363 . S
C3327 H3298 0.950 . S
C3327 C3326 1.397 . S
C3327 C3328 1.334 . S
C3328 H3299 0.950 . S
C3328 C3327 1.334 . S
C3328 C3329 1.287 . S
C3329 C3328 1.287 . S
C3329 C3330 1.524 . S
C3329 H3332 0.999 . S
C3330 H3300 0.950 . S
C3330 C3329 1.524 . S
C3330 C3331 1.415 . S
C3331 H3301 0.950 . S
C3331 C3326 1.363 . S
C3331 C3330 1.415 . S
H3332 C3329 0.999 . S
H3333 C3314 0.913 . S
H3334 C3352 0.951 . S
H3335 C3354 0.951 . S
H3336 C3356 0.950 . S
H3337 C3357 0.950 . S
H3338 C3359 0.950 . S
H3339 C3362 0.950 . S
H3340 C3363 0.950 . S
H3341 C3365 0.950 . S
H3342 C3366 0.950 . S
H3343 C3367 0.951 . S
H3344 C3369 0.951 . S
H3345 C3371 0.950 . S
H3346 C3372 0.950 . S
H3347 C3374 0.950 . S
H3348 C3377 0.950 . S
H3349 C3378 0.950 . S
H3350 C3380 0.950 . S
H3351 C3381 0.950 . S
C3352 H3334 0.951 . S
C3352 C3353 1.366 . S
C3352 C3354 1.388 . S
C3353 C3352 1.366 . S
C3353 C3357 1.385 . S
C3354 H3335 0.951 . S
C3354 C3352 1.388 . S
C3354 C3355 1.366 . S
C3355 C3354 1.366 . S
C3355 C3356 1.414 . S
C3355 C3358 1.499 . S
C3356 H3336 0.950 . S
C3356 C3355 1.414 . S
C3356 C3357 1.374 . S
C3357 H3337 0.950 . S
C3357 C3353 1.385 . S
C3357 C3356 1.374 . S
C3358 C3355 1.499 . S
C3358 C3359 1.373 . S
C3358 C3360 1.389 . S
C3359 H3338 0.950 . S
C3359 C3358 1.373 . S
C3359 C3375 1.377 . S
C3360 C3358 1.389 . S
C3360 C3361 1.524 . S
C3360 C3374 1.377 . S
C3361 C3360 1.524 . S
C3361 C3362 1.397 . S
C3361 C3366 1.363 . S
C3362 H3339 0.950 . S
C3362 C3361 1.397 . S
C3362 C3363 1.334 . S
C3363 H3340 0.950 . S
C3363 C3362 1.334 . S
C3363 C3364 1.287 . S
C3364 C3363 1.287 . S
C3364 C3365 1.524 . S
C3364 H3383 0.913 . S
C3365 H3341 0.950 . S
C3365 C3364 1.524 . S
C3365 C3366 1.415 . S
C3366 H3342 0.950 . S
C3366 C3361 1.363 . S
C3366 C3365 1.415 . S
C3367 H3343 0.951 . S
C3367 C3368 1.366 . S
C3367 C3369 1.388 . S
C3368 C3367 1.366 . S
C3368 C3372 1.385 . S
C3369 H3344 0.951 . S
C3369 C3367 1.388 . S
C3369 C3370 1.366 . S
C3370 C3369 1.366 . S
C3370 C3371 1.414 . S
C3370 C3373 1.499 . S
C3371 H3345 0.950 . S
C3371 C3370 1.414 . S
C3371 C3372 1.374 . S
C3372 H3346 0.950 . S
C3372 C3368 1.385 . S
C3372 C3371 1.374 . S
C3373 C3370 1.499 . S
C3373 C3374 1.373 . S
C3373 C3375 1.389 . S
C3374 H3347 0.950 . S
C3374 C3360 1.377 . S
C3374 C3373 1.373 . S
C3375 C3359 1.377 . S
C3375 C3373 1.389 . S
C3375 C3376 1.524 . S
C3376 C3375 1.524 . S
C3376 C3377 1.397 . S
C3376 C3381 1.363 . S
C3377 H3348 0.950 . S
C3377 C3376 1.397 . S
C3377 C3378 1.334 . S
C3378 H3349 0.950 . S
C3378 C3377 1.334 . S
C3378 C3379 1.287 . S
C3379 C3378 1.287 . S
C3379 C3380 1.524 . S
C3379 H3382 0.999 . S
C3380 H3350 0.950 . S
C3380 C3379 1.524 . S
C3380 C3381 1.415 . S
C3381 H3351 0.950 . S
C3381 C3376 1.363 . S
C3381 C3380 1.415 . S
H3382 C3379 0.999 . S
H3383 C3364 0.913 . S
H3384 C3402 0.951 . S
H3385 C3404 0.951 . S
H3386 C3406 0.950 . S
H3387 C3407 0.950 . S
H3388 C3409 0.950 . S
H3389 C3412 0.950 . S
H3390 C3413 0.950 . S
H3391 C3415 0.950 . S
H3392 C3416 0.950 . S
H3393 C3417 0.951 . S
H3394 C3419 0.951 . S
H3395 C3421 0.950 . S
H3396 C3422 0.950 . S
H3397 C3424 0.950 . S
H3398 C3427 0.950 . S
H3399 C3428 0.950 . S
H3400 C3430 0.950 . S
H3401 C3431 0.950 . S
C3402 H3384 0.951 . S
C3402 C3403 1.366 . S
C3402 C3404 1.388 . S
C3403 C3402 1.366 . S
C3403 C3407 1.385 . S
C3404 H3385 0.951 . S
C3404 C3402 1.388 . S
C3404 C3405 1.366 . S
C3405 C3404 1.366 . S
C3405 C3406 1.414 . S
C3405 C3408 1.499 . S
C3406 H3386 0.950 . S
C3406 C3405 1.414 . S
C3406 C3407 1.374 . S
C3407 H3387 0.950 . S
C3407 C3403 1.385 . S
C3407 C3406 1.374 . S
C3408 C3405 1.499 . S
C3408 C3409 1.373 . S
C3408 C3410 1.389 . S
C3409 H3388 0.950 . S
C3409 C3408 1.373 . S
C3409 C3425 1.377 . S
C3410 C3408 1.389 . S
C3410 C3411 1.524 . S
C3410 C3424 1.377 . S
C3411 C3410 1.524 . S
C3411 C3412 1.397 . S
C3411 C3416 1.363 . S
C3412 H3389 0.950 . S
C3412 C3411 1.397 . S
C3412 C3413 1.334 . S
C3413 H3390 0.950 . S
C3413 C3412 1.334 . S
C3413 C3414 1.287 . S
C3414 C3413 1.287 . S
C3414 C3415 1.524 . S
C3414 H3433 0.913 . S
C3415 H3391 0.950 . S
C3415 C3414 1.524 . S
C3415 C3416 1.415 . S
C3416 H3392 0.950 . S
C3416 C3411 1.363 . S
C3416 C3415 1.415 . S
C3417 H3393 0.951 . S
C3417 C3418 1.366 . S
C3417 C3419 1.388 . S
C3418 C3417 1.366 . S
C3418 C3422 1.385 . S
C3419 H3394 0.951 . S
C3419 C3417 1.388 . S
C3419 C3420 1.366 . S
C3420 C3419 1.366 . S
C3420 C3421 1.414 . S
C3420 C3423 1.499 . S
C3421 H3395 0.950 . S
C3421 C3420 1.414 . S
C3421 C3422 1.374 . S
C3422 H3396 0.950 . S
C3422 C3418 1.385 . S
C3422 C3421 1.374 . S
C3423 C3420 1.499 . S
C3423 C3424 1.373 . S
C3423 C3425 1.389 . S
C3424 H3397 0.950 . S
C3424 C3410 1.377 . S
C3424 C3423 1.373 . S
C3425 C3409 1.377 . S
C3425 C3423 1.389 . S
C3425 C3426 1.524 . S
C3426 C3425 1.524 . S
C3426 C3427 1.397 . S
C3426 C3431 1.363 . S
C3427 H3398 0.950 . S
C3427 C3426 1.397 . S
C3427 C3428 1.334 . S
C3428 H3399 0.950 . S
C3428 C3427 1.334 . S
C3428 C3429 1.287 . S
C3429 C3428 1.287 . S
C3429 C3430 1.524 . S
C3429 H3432 0.999 . S
C3430 H3400 0.950 . S
C3430 C3429 1.524 . S
C3430 C3431 1.415 . S
C3431 H3401 0.950 . S
C3431 C3426 1.363 . S
C3431 C3430 1.415 . S
H3432 C3429 0.999 . S
H3433 C3414 0.913 . S
H3434 C3452 0.951 . S
H3435 C3454 0.951 . S
H3436 C3456 0.950 . S
H3437 C3457 0.950 . S
H3438 C3459 0.950 . S
H3439 C3462 0.950 . S
H3440 C3463 0.950 . S
H3441 C3465 0.950 . S
H3442 C3466 0.950 . S
H3443 C3467 0.951 . S
H3444 C3469 0.951 . S
H3445 C3471 0.950 . S
H3446 C3472 0.950 . S
H3447 C3474 0.950 . S
H3448 C3477 0.950 . S
H3449 C3478 0.950 . S
H3450 C3480 0.950 . S
H3451 C3481 0.950 . S
C3452 H3434 0.951 . S
C3452 C3453 1.366 . S
C3452 C3454 1.388 . S
C3453 C3452 1.366 . S
C3453 C3457 1.385 . S
C3454 H3435 0.951 . S
C3454 C3452 1.388 . S
C3454 C3455 1.366 . S
C3455 C3454 1.366 . S
C3455 C3456 1.414 . S
C3455 C3458 1.499 . S
C3456 H3436 0.950 . S
C3456 C3455 1.414 . S
C3456 C3457 1.374 . S
C3457 H3437 0.950 . S
C3457 C3453 1.385 . S
C3457 C3456 1.374 . S
C3458 C3455 1.499 . S
C3458 C3459 1.373 . S
C3458 C3460 1.389 . S
C3459 H3438 0.950 . S
C3459 C3458 1.373 . S
C3459 C3475 1.377 . S
C3460 C3458 1.389 . S
C3460 C3461 1.524 . S
C3460 C3474 1.377 . S
C3461 C3460 1.524 . S
C3461 C3462 1.397 . S
C3461 C3466 1.363 . S
C3462 H3439 0.950 . S
C3462 C3461 1.397 . S
C3462 C3463 1.334 . S
C3463 H3440 0.950 . S
C3463 C3462 1.334 . S
C3463 C3464 1.287 . S
C3464 C3463 1.287 . S
C3464 C3465 1.524 . S
C3464 H3483 0.913 . S
C3465 H3441 0.950 . S
C3465 C3464 1.524 . S
C3465 C3466 1.415 . S
C3466 H3442 0.950 . S
C3466 C3461 1.363 . S
C3466 C3465 1.415 . S
C3467 H3443 0.951 . S
C3467 C3468 1.366 . S
C3467 C3469 1.388 . S
C3468 C3467 1.366 . S
C3468 C3472 1.385 . S
C3469 H3444 0.951 . S
C3469 C3467 1.388 . S
C3469 C3470 1.366 . S
C3470 C3469 1.366 . S
C3470 C3471 1.414 . S
C3470 C3473 1.499 . S
C3471 H3445 0.950 . S
C3471 C3470 1.414 . S
C3471 C3472 1.374 . S
C3472 H3446 0.950 . S
C3472 C3468 1.385 . S
C3472 C3471 1.374 . S
C3473 C3470 1.499 . S
C3473 C3474 1.373 . S
C3473 C3475 1.389 . S
C3474 H3447 0.950 . S
C3474 C3460 1.377 . S
C3474 C3473 1.373 . S
C3475 C3459 1.377 . S
C3475 C3473 1.389 . S
C3475 C3476 1.524 . S
C3476 C3475 1.524 . S
C3476 C3477 1.397 . S
C3476 C3481 1.363 . S
C3477 H3448 0.950 . S
C3477 C3476 1.397 . S
C3477 C3478 1.334 . S
C3478 H3449 0.950 . S
C3478 C3477 1.334 . S
C3478 C3479 1.287 . S
C3479 C3478 1.287 . S
C3479 C3480 1.524 . S
C3479 H3482 0.999 . S
C3480 H3450 0.950 . S
C3480 C3479 1.524 . S
C3480 C3481 1.415 . S
C3481 H3451 0.950 . S
C3481 C3476 1.363 . S
C3481 C3480 1.415 . S
H3482 C3479 0.999 . S
H3483 C3464 0.913 . S
H3484 C3502 0.951 . S
H3485 C3504 0.951 . S
H3486 C3506 0.950 . S
H3487 C3507 0.950 . S
H3488 C3509 0.950 . S
H3489 C3512 0.950 . S
H3490 C3513 0.950 . S
H3491 C3515 0.950 . S
H3492 C3516 0.950 . S
H3493 C3517 0.951 . S
H3494 C3519 0.951 . S
H3495 C3521 0.950 . S
H3496 C3522 0.950 . S
H3497 C3524 0.950 . S
H3498 C3527 0.950 . S
H3499 C3528 0.950 . S
H3500 C3530 0.950 . S
H3501 C3531 0.950 . S
C3502 H3484 0.951 . S
C3502 C3503 1.366 . S
C3502 C3504 1.388 . S
C3503 C3502 1.366 . S
C3503 C3507 1.385 . S
C3504 H3485 0.951 . S
C3504 C3502 1.388 . S
C3504 C3505 1.366 . S
C3505 C3504 1.366 . S
C3505 C3506 1.414 . S
C3505 C3508 1.499 . S
C3506 H3486 0.950 . S
C3506 C3505 1.414 . S
C3506 C3507 1.374 . S
C3507 H3487 0.950 . S
C3507 C3503 1.385 . S
C3507 C3506 1.374 . S
C3508 C3505 1.499 . S
C3508 C3509 1.373 . S
C3508 C3510 1.389 . S
C3509 H3488 0.950 . S
C3509 C3508 1.373 . S
C3509 C3525 1.377 . S
C3510 C3508 1.389 . S
C3510 C3511 1.524 . S
C3510 C3524 1.377 . S
C3511 C3510 1.524 . S
C3511 C3512 1.397 . S
C3511 C3516 1.363 . S
C3512 H3489 0.950 . S
C3512 C3511 1.397 . S
C3512 C3513 1.334 . S
C3513 H3490 0.950 . S
C3513 C3512 1.334 . S
C3513 C3514 1.287 . S
C3514 C3513 1.287 . S
C3514 C3515 1.524 . S
C3514 H3533 0.913 . S
C3515 H3491 0.950 . S
C3515 C3514 1.524 . S
C3515 C3516 1.415 . S
C3516 H3492 0.950 . S
C3516 C3511 1.363 . S
C3516 C3515 1.415 . S
C3517 H3493 0.951 . S
C3517 C3518 1.366 . S
C3517 C3519 1.388 . S
C3518 C3517 1.366 . S
C3518 C3522 1.385 . S
C3519 H3494 0.951 . S
C3519 C3517 1.388 . S
C3519 C3520 1.366 . S
C3520 C3519 1.366 . S
C3520 C3521 1.414 . S
C3520 C3523 1.499 . S
C3521 H3495 0.950 . S
C3521 C3520 1.414 . S
C3521 C3522 1.374 . S
C3522 H3496 0.950 . S
C3522 C3518 1.385 . S
C3522 C3521 1.374 . S
C3523 C3520 1.499 . S
C3523 C3524 1.373 . S
C3523 C3525 1.389 . S
C3524 H3497 0.950 . S
C3524 C3510 1.377 . S
C3524 C3523 1.373 . S
C3525 C3509 1.377 . S
C3525 C3523 1.389 . S
C3525 C3526 1.524 . S
C3526 C3525 1.524 . S
C3526 C3527 1.397 . S
C3526 C3531 1.363 . S
C3527 H3498 0.950 . S
C3527 C3526 1.397 . S
C3527 C3528 1.334 . S
C3528 H3499 0.950 . S
C3528 C3527 1.334 . S
C3528 C3529 1.287 . S
C3529 C3528 1.287 . S
C3529 C3530 1.524 . S
C3529 H3532 0.999 . S
C3530 H3500 0.950 . S
C3530 C3529 1.524 . S
C3530 C3531 1.415 . S
C3531 H3501 0.950 . S
C3531 C3526 1.363 . S
C3531 C3530 1.415 . S
H3532 C3529 0.999 . S
H3533 C3514 0.913 . S
H3534 C3552 0.951 . S
H3535 C3554 0.951 . S
H3536 C3556 0.950 . S
H3537 C3557 0.950 . S
H3538 C3559 0.950 . S
H3539 C3562 0.950 . S
H3540 C3563 0.950 . S
H3541 C3565 0.950 . S
H3542 C3566 0.950 . S
H3543 C3567 0.951 . S
H3544 C3569 0.951 . S
H3545 C3571 0.950 . S
H3546 C3572 0.950 . S
H3547 C3574 0.950 . S
H3548 C3577 0.950 . S
H3549 C3578 0.950 . S
H3550 C3580 0.950 . S
H3551 C3581 0.950 . S
C3552 H3534 0.951 . S
C3552 C3553 1.366 . S
C3552 C3554 1.388 . S
C3553 C3552 1.366 . S
C3553 C3557 1.385 . S
C3554 H3535 0.951 . S
C3554 C3552 1.388 . S
C3554 C3555 1.366 . S
C3555 C3554 1.366 . S
C3555 C3556 1.414 . S
C3555 C3558 1.499 . S
C3556 H3536 0.950 . S
C3556 C3555 1.414 . S
C3556 C3557 1.374 . S
C3557 H3537 0.950 . S
C3557 C3553 1.385 . S
C3557 C3556 1.374 . S
C3558 C3555 1.499 . S
C3558 C3559 1.373 . S
C3558 C3560 1.389 . S
C3559 H3538 0.950 . S
C3559 C3558 1.373 . S
C3559 C3575 1.377 . S
C3560 C3558 1.389 . S
C3560 C3561 1.524 . S
C3560 C3574 1.377 . S
C3561 C3560 1.524 . S
C3561 C3562 1.397 . S
C3561 C3566 1.363 . S
C3562 H3539 0.950 . S
C3562 C3561 1.397 . S
C3562 C3563 1.334 . S
C3563 H3540 0.950 . S
C3563 C3562 1.334 . S
C3563 C3564 1.287 . S
C3564 C3563 1.287 . S
C3564 C3565 1.524 . S
C3564 H3583 0.913 . S
C3565 H3541 0.950 . S
C3565 C3564 1.524 . S
C3565 C3566 1.415 . S
C3566 H3542 0.950 . S
C3566 C3561 1.363 . S
C3566 C3565 1.415 . S
C3567 H3543 0.951 . S
C3567 C3568 1.366 . S
C3567 C3569 1.388 . S
C3568 C3567 1.366 . S
C3568 C3572 1.385 . S
C3569 H3544 0.951 . S
C3569 C3567 1.388 . S
C3569 C3570 1.366 . S
C3570 C3569 1.366 . S
C3570 C3571 1.414 . S
C3570 C3573 1.499 . S
C3571 H3545 0.950 . S
C3571 C3570 1.414 . S
C3571 C3572 1.374 . S
C3572 H3546 0.950 . S
C3572 C3568 1.385 . S
C3572 C3571 1.374 . S
C3573 C3570 1.499 . S
C3573 C3574 1.373 . S
C3573 C3575 1.389 . S
C3574 H3547 0.950 . S
C3574 C3560 1.377 . S
C3574 C3573 1.373 . S
C3575 C3559 1.377 . S
C3575 C3573 1.389 . S
C3575 C3576 1.524 . S
C3576 C3575 1.524 . S
C3576 C3577 1.397 . S
C3576 C3581 1.363 . S
C3577 H3548 0.950 . S
C3577 C3576 1.397 . S
C3577 C3578 1.334 . S
C3578 H3549 0.950 . S
C3578 C3577 1.334 . S
C3578 C3579 1.287 . S
C3579 C3578 1.287 . S
C3579 C3580 1.524 . S
C3579 H3582 0.999 . S
C3580 H3550 0.950 . S
C3580 C3579 1.524 . S
C3580 C3581 1.415 . S
C3581 H3551 0.950 . S
C3581 C3576 1.363 . S
C3581 C3580 1.415 . S
H3582 C3579 0.999 . S
H3583 C3564 0.913 . S
H3584 C3602 0.951 . S
H3585 C3604 0.951 . S
H3586 C3606 0.950 . S
H3587 C3607 0.950 . S
H3588 C3609 0.950 . S
H3589 C3612 0.950 . S
H3590 C3613 0.950 . S
H3591 C3615 0.950 . S
H3592 C3616 0.950 . S
H3593 C3617 0.951 . S
H3594 C3619 0.951 . S
H3595 C3621 0.950 . S
H3596 C3622 0.950 . S
H3597 C3624 0.950 . S
H3598 C3627 0.950 . S
H3599 C3628 0.950 . S
H3600 C3630 0.950 . S
H3601 C3631 0.950 . S
C3602 H3584 0.951 . S
C3602 C3603 1.366 . S
C3602 C3604 1.388 . S
C3603 C3602 1.366 . S
C3603 C3607 1.385 . S
C3604 H3585 0.951 . S
C3604 C3602 1.388 . S
C3604 C3605 1.366 . S
C3605 C3604 1.366 . S
C3605 C3606 1.414 . S
C3605 C3608 1.499 . S
C3606 H3586 0.950 . S
C3606 C3605 1.414 . S
C3606 C3607 1.374 . S
C3607 H3587 0.950 . S
C3607 C3603 1.385 . S
C3607 C3606 1.374 . S
C3608 C3605 1.499 . S
C3608 C3609 1.373 . S
C3608 C3610 1.389 . S
C3609 H3588 0.950 . S
C3609 C3608 1.373 . S
C3609 C3625 1.377 . S
C3610 C3608 1.389 . S
C3610 C3611 1.524 . S
C3610 C3624 1.377 . S
C3611 C3610 1.524 . S
C3611 C3612 1.397 . S
C3611 C3616 1.363 . S
C3612 H3589 0.950 . S
C3612 C3611 1.397 . S
C3612 C3613 1.334 . S
C3613 H3590 0.950 . S
C3613 C3612 1.334 . S
C3613 C3614 1.287 . S
C3614 C3613 1.287 . S
C3614 C3615 1.524 . S
C3614 H3633 0.913 . S
C3615 H3591 0.950 . S
C3615 C3614 1.524 . S
C3615 C3616 1.415 . S
C3616 H3592 0.950 . S
C3616 C3611 1.363 . S
C3616 C3615 1.415 . S
C3617 H3593 0.951 . S
C3617 C3618 1.366 . S
C3617 C3619 1.388 . S
C3618 C3617 1.366 . S
C3618 C3622 1.385 . S
C3619 H3594 0.951 . S
C3619 C3617 1.388 . S
C3619 C3620 1.366 . S
C3620 C3619 1.366 . S
C3620 C3621 1.414 . S
C3620 C3623 1.499 . S
C3621 H3595 0.950 . S
C3621 C3620 1.414 . S
C3621 C3622 1.374 . S
C3622 H3596 0.950 . S
C3622 C3618 1.385 . S
C3622 C3621 1.374 . S
C3623 C3620 1.499 . S
C3623 C3624 1.373 . S
C3623 C3625 1.389 . S
C3624 H3597 0.950 . S
C3624 C3610 1.377 . S
C3624 C3623 1.373 . S
C3625 C3609 1.377 . S
C3625 C3623 1.389 . S
C3625 C3626 1.524 . S
C3626 C3625 1.524 . S
C3626 C3627 1.397 . S
C3626 C3631 1.363 . S
C3627 H3598 0.950 . S
C3627 C3626 1.397 . S
C3627 C3628 1.334 . S
C3628 H3599 0.950 . S
C3628 C3627 1.334 . S
C3628 C3629 1.287 . S
C3629 C3628 1.287 . S
C3629 C3630 1.524 . S
C3629 H3632 0.999 . S
C3630 H3600 0.950 . S
C3630 C3629 1.524 . S
C3630 C3631 1.415 . S
C3631 H3601 0.950 . S
C3631 C3626 1.363 . S
C3631 C3630 1.415 . S
H3632 C3629 0.999 . S
H3633 C3614 0.913 . S
H3634 C3652 0.951 . S
H3635 C3654 0.951 . S
H3636 C3656 0.950 . S
H3637 C3657 0.950 . S
H3638 C3659 0.950 . S
H3639 C3662 0.950 . S
H3640 C3663 0.950 . S
H3641 C3665 0.950 . S
H3642 C3666 0.950 . S
H3643 C3667 0.951 . S
H3644 C3669 0.951 . S
H3645 C3671 0.950 . S
H3646 C3672 0.950 . S
H3647 C3674 0.950 . S
H3648 C3677 0.950 . S
H3649 C3678 0.950 . S
H3650 C3680 0.950 . S
H3651 C3681 0.950 . S
C3652 H3634 0.951 . S
C3652 C3653 1.366 . S
C3652 C3654 1.388 . S
C3653 C3652 1.366 . S
C3653 C3657 1.385 . S
C3654 H3635 0.951 . S
C3654 C3652 1.388 . S
C3654 C3655 1.366 . S
C3655 C3654 1.366 . S
C3655 C3656 1.414 . S
C3655 C3658 1.499 . S
C3656 H3636 0.950 . S
C3656 C3655 1.414 . S
C3656 C3657 1.374 . S
C3657 H3637 0.950 . S
C3657 C3653 1.385 . S
C3657 C3656 1.374 . S
C3658 C3655 1.499 . S
C3658 C3659 1.373 . S
C3658 C3660 1.389 . S
C3659 H3638 0.950 . S
C3659 C3658 1.373 . S
C3659 C3675 1.377 . S
C3660 C3658 1.389 . S
C3660 C3661 1.524 . S
C3660 C3674 1.377 . S
C3661 C3660 1.524 . S
C3661 C3662 1.397 . S
C3661 C3666 1.363 . S
C3662 H3639 0.950 . S
C3662 C3661 1.397 . S
C3662 C3663 1.334 . S
C3663 H3640 0.950 . S
C3663 C3662 1.334 . S
C3663 C3664 1.287 . S
C3664 C3663 1.287 . S
C3664 C3665 1.524 . S
C3664 H3683 0.913 . S
C3665 H3641 0.950 . S
C3665 C3664 1.524 . S
C3665 C3666 1.415 . S
C3666 H3642 0.950 . S
C3666 C3661 1.363 . S
C3666 C3665 1.415 . S
C3667 H3643 0.951 . S
C3667 C3668 1.366 . S
C3667 C3669 1.388 . S
C3668 C3667 1.366 . S
C3668 C3672 1.385 . S
C3669 H3644 0.951 . S
C3669 C3667 1.388 . S
C3669 C3670 1.366 . S
C3670 C3669 1.366 . S
C3670 C3671 1.414 . S
C3670 C3673 1.499 . S
C3671 H3645 0.950 . S
C3671 C3670 1.414 . S
C3671 C3672 1.374 . S
C3672 H3646 0.950 . S
C3672 C3668 1.385 . S
C3672 C3671 1.374 . S
C3673 C3670 1.499 . S
C3673 C3674 1.373 . S
C3673 C3675 1.389 . S
C3674 H3647 0.950 . S
C3674 C3660 1.377 . S
C3674 C3673 1.373 . S
C3675 C3659 1.377 . S
C3675 C3673 1.389 . S
C3675 C3676 1.524 . S
C3676 C3675 1.524 . S
C3676 C3677 1.397 . S
C3676 C3681 1.363 . S
C3677 H3648 0.950 . S
C3677 C3676 1.397 . S
C3677 C3678 1.334 . S
C3678 H3649 0.950 . S
C3678 C3677 1.334 . S
C3678 C3679 1.287 . S
C3679 C3678 1.287 . S
C3679 C3680 1.524 . S
C3679 H3682 0.999 . S
C3680 H3650 0.950 . S
C3680 C3679 1.524 . S
C3680 C3681 1.415 . S
C3681 H3651 0.950 . S
C3681 C3676 1.363 . S
C3681 C3680 1.415 . S
H3682 C3679 0.999 . S
H3683 C3664 0.913 . S
H3684 C3702 0.951 . S
H3685 C3704 0.951 . S
H3686 C3706 0.950 . S
H3687 C3707 0.950 . S
H3688 C3709 0.950 . S
H3689 C3712 0.950 . S
H3690 C3713 0.950 . S
H3691 C3715 0.950 . S
H3692 C3716 0.950 . S
H3693 C3717 0.951 . S
H3694 C3719 0.951 . S
H3695 C3721 0.950 . S
H3696 C3722 0.950 . S
H3697 C3724 0.950 . S
H3698 C3727 0.950 . S
H3699 C3728 0.950 . S
H3700 C3730 0.950 . S
H3701 C3731 0.950 . S
C3702 H3684 0.951 . S
C3702 C3703 1.366 . S
C3702 C3704 1.388 . S
C3703 C3702 1.366 . S
C3703 C3707 1.385 . S
C3704 H3685 0.951 . S
C3704 C3702 1.388 . S
C3704 C3705 1.366 . S
C3705 C3704 1.366 . S
C3705 C3706 1.414 . S
C3705 C3708 1.499 . S
C3706 H3686 0.950 . S
C3706 C3705 1.414 . S
C3706 C3707 1.374 . S
C3707 H3687 0.950 . S
C3707 C3703 1.385 . S
C3707 C3706 1.374 . S
C3708 C3705 1.499 . S
C3708 C3709 1.373 . S
C3708 C3710 1.389 . S
C3709 H3688 0.950 . S
C3709 C3708 1.373 . S
C3709 C3725 1.377 . S
C3710 C3708 1.389 . S
C3710 C3711 1.524 . S
C3710 C3724 1.377 . S
C3711 C3710 1.524 . S
C3711 C3712 1.397 . S
C3711 C3716 1.363 . S
C3712 H3689 0.950 . S
C3712 C3711 1.397 . S
C3712 C3713 1.334 . S
C3713 H3690 0.950 . S
C3713 C3712 1.334 . S
C3713 C3714 1.287 . S
C3714 C3713 1.287 . S
C3714 C3715 1.524 . S
C3714 H3733 0.913 . S
C3715 H3691 0.950 . S
C3715 C3714 1.524 . S
C3715 C3716 1.415 . S
C3716 H3692 0.950 . S
C3716 C3711 1.363 . S
C3716 C3715 1.415 . S
C3717 H3693 0.951 . S
C3717 C3718 1.366 . S
C3717 C3719 1.388 . S
C3718 C3717 1.366 . S
C3718 C3722 1.385 . S
C3719 H3694 0.951 . S
C3719 C3717 1.388 . S
C3719 C3720 1.366 . S
C3720 C3719 1.366 . S
C3720 C3721 1.414 . S
C3720 C3723 1.499 . S
C3721 H3695 0.950 . S
C3721 C3720 1.414 . S
C3721 C3722 1.374 . S
C3722 H3696 0.950 . S
C3722 C3718 1.385 . S
C3722 C3721 1.374 . S
C3723 C3720 1.499 . S
C3723 C3724 1.373 . S
C3723 C3725 1.389 . S
C3724 H3697 0.950 . S
C3724 C3710 1.377 . S
C3724 C3723 1.373 . S
C3725 C3709 1.377 . S
C3725 C3723 1.389 . S
C3725 C3726 1.524 . S
C3726 C3725 1.524 . S
C3726 C3727 1.397 . S
C3726 C3731 1.363 . S
C3727 H3698 0.950 . S
C3727 C3726 1.397 . S
C3727 C3728 1.334 . S
C3728 H3699 0.950 . S
C3728 C3727 1.334 . S
C3728 C3729 1.287 . S
C3729 C3728 1.287 . S
C3729 C3730 1.524 . S
C3729 H3732 0.999 . S
C3730 H3700 0.950 . S
C3730 C3729 1.524 . S
C3730 C3731 1.415 . S
C3731 H3701 0.950 . S
C3731 C3726 1.363 . S
C3731 C3730 1.415 . S
H3732 C3729 0.999 . S
H3733 C3714 0.913 . S
H3734 C3752 0.951 . S
H3735 C3754 0.951 . S
H3736 C3756 0.950 . S
H3737 C3757 0.950 . S
H3738 C3759 0.950 . S
H3739 C3762 0.950 . S
H3740 C3763 0.950 . S
H3741 C3765 0.950 . S
H3742 C3766 0.950 . S
H3743 C3767 0.951 . S
H3744 C3769 0.951 . S
H3745 C3771 0.950 . S
H3746 C3772 0.950 . S
H3747 C3774 0.950 . S
H3748 C3777 0.950 . S
H3749 C3778 0.950 . S
H3750 C3780 0.950 . S
H3751 C3781 0.950 . S
C3752 H3734 0.951 . S
C3752 C3753 1.366 . S
C3752 C3754 1.388 . S
C3753 C3752 1.366 . S
C3753 C3757 1.385 . S
C3754 H3735 0.951 . S
C3754 C3752 1.388 . S
C3754 C3755 1.366 . S
C3755 C3754 1.366 . S
C3755 C3756 1.414 . S
C3755 C3758 1.499 . S
C3756 H3736 0.950 . S
C3756 C3755 1.414 . S
C3756 C3757 1.374 . S
C3757 H3737 0.950 . S
C3757 C3753 1.385 . S
C3757 C3756 1.374 . S
C3758 C3755 1.499 . S
C3758 C3759 1.373 . S
C3758 C3760 1.389 . S
C3759 H3738 0.950 . S
C3759 C3758 1.373 . S
C3759 C3775 1.377 . S
C3760 C3758 1.389 . S
C3760 C3761 1.524 . S
C3760 C3774 1.377 . S
C3761 C3760 1.524 . S
C3761 C3762 1.397 . S
C3761 C3766 1.363 . S
C3762 H3739 0.950 . S
C3762 C3761 1.397 . S
C3762 C3763 1.334 . S
C3763 H3740 0.950 . S
C3763 C3762 1.334 . S
C3763 C3764 1.287 . S
C3764 C3763 1.287 . S
C3764 C3765 1.524 . S
C3764 H3783 0.913 . S
C3765 H3741 0.950 . S
C3765 C3764 1.524 . S
C3765 C3766 1.415 . S
C3766 H3742 0.950 . S
C3766 C3761 1.363 . S
C3766 C3765 1.415 . S
C3767 H3743 0.951 . S
C3767 C3768 1.366 . S
C3767 C3769 1.388 . S
C3768 C3767 1.366 . S
C3768 C3772 1.385 . S
C3769 H3744 0.951 . S
C3769 C3767 1.388 . S
C3769 C3770 1.366 . S
C3770 C3769 1.366 . S
C3770 C3771 1.414 . S
C3770 C3773 1.499 . S
C3771 H3745 0.950 . S
C3771 C3770 1.414 . S
C3771 C3772 1.374 . S
C3772 H3746 0.950 . S
C3772 C3768 1.385 . S
C3772 C3771 1.374 . S
C3773 C3770 1.499 . S
C3773 C3774 1.373 . S
C3773 C3775 1.389 . S
C3774 H3747 0.950 . S
C3774 C3760 1.377 . S
C3774 C3773 1.373 . S
C3775 C3759 1.377 . S
C3775 C3773 1.389 . S
C3775 C3776 1.524 . S
C3776 C3775 1.524 . S
C3776 C3777 1.397 . S
C3776 C3781 1.363 . S
C3777 H3748 0.950 . S
C3777 C3776 1.397 . S
C3777 C3778 1.334 . S
C3778 H3749 0.950 . S
C3778 C3777 1.334 . S
C3778 C3779 1.287 . S
C3779 C3778 1.287 . S
C3779 C3780 1.524 . S
C3779 H3782 0.999 . S
C3780 H3750 0.950 . S
C3780 C3779 1.524 . S
C3780 C3781 1.415 . S
C3781 H3751 0.950 . S
C3781 C3776 1.363 . S
C3781 C3780 1.415 . S
H3782 C3779 0.999 . S
H3783 C3764 0.913 . S
H3784 C3802 0.951 . S
H3785 C3804 0.951 . S
H3786 C3806 0.950 . S
H3787 C3807 0.950 . S
H3788 C3809 0.950 . S
H3789 C3812 0.950 . S
H3790 C3813 0.950 . S
H3791 C3815 0.950 . S
H3792 C3816 0.950 . S
H3793 C3817 0.951 . S
H3794 C3819 0.951 . S
H3795 C3821 0.950 . S
H3796 C3822 0.950 . S
H3797 C3824 0.950 . S
H3798 C3827 0.950 . S
H3799 C3828 0.950 . S
H3800 C3830 0.950 . S
H3801 C3831 0.950 . S
C3802 H3784 0.951 . S
C3802 C3803 1.366 . S
C3802 C3804 1.388 . S
C3803 C3802 1.366 . S
C3803 C3807 1.385 . S
C3804 H3785 0.951 . S
C3804 C3802 1.388 . S
C3804 C3805 1.366 . S
C3805 C3804 1.366 . S
C3805 C3806 1.414 . S
C3805 C3808 1.499 . S
C3806 H3786 0.950 . S
C3806 C3805 1.414 . S
C3806 C3807 1.374 . S
C3807 H3787 0.950 . S
C3807 C3803 1.385 . S
C3807 C3806 1.374 . S
C3808 C3805 1.499 . S
C3808 C3809 1.373 . S
C3808 C3810 1.389 . S
C3809 H3788 0.950 . S
C3809 C3808 1.373 . S
C3809 C3825 1.377 . S
C3810 C3808 1.389 . S
C3810 C3811 1.524 . S
C3810 C3824 1.377 . S
C3811 C3810 1.524 . S
C3811 C3812 1.397 . S
C3811 C3816 1.363 . S
C3812 H3789 0.950 . S
C3812 C3811 1.397 . S
C3812 C3813 1.334 . S
C3813 H3790 0.950 . S
C3813 C3812 1.334 . S
C3813 C3814 1.287 . S
C3814 C3813 1.287 . S
C3814 C3815 1.524 . S
C3814 H3833 0.913 . S
C3815 H3791 0.950 . S
C3815 C3814 1.524 . S
C3815 C3816 1.415 . S
C3816 H3792 0.950 . S
C3816 C3811 1.363 . S
C3816 C3815 1.415 . S
C3817 H3793 0.951 . S
C3817 C3818 1.366 . S
C3817 C3819 1.388 . S
C3818 C3817 1.366 . S
C3818 C3822 1.385 . S
C3819 H3794 0.951 . S
C3819 C3817 1.388 . S
C3819 C3820 1.366 . S
C3820 C3819 1.366 . S
C3820 C3821 1.414 . S
C3820 C3823 1.499 . S
C3821 H3795 0.950 . S
C3821 C3820 1.414 . S
C3821 C3822 1.374 . S
C3822 H3796 0.950 . S
C3822 C3818 1.385 . S
C3822 C3821 1.374 . S
C3823 C3820 1.499 . S
C3823 C3824 1.373 . S
C3823 C3825 1.389 . S
C3824 H3797 0.950 . S
C3824 C3810 1.377 . S
C3824 C3823 1.373 . S
C3825 C3809 1.377 . S
C3825 C3823 1.389 . S
C3825 C3826 1.524 . S
C3826 C3825 1.524 . S
C3826 C3827 1.397 . S
C3826 C3831 1.363 . S
C3827 H3798 0.950 . S
C3827 C3826 1.397 . S
C3827 C3828 1.334 . S
C3828 H3799 0.950 . S
C3828 C3827 1.334 . S
C3828 C3829 1.287 . S
C3829 C3828 1.287 . S
C3829 C3830 1.524 . S
C3829 H3832 0.999 . S
C3830 H3800 0.950 . S
C3830 C3829 1.524 . S
C3830 C3831 1.415 . S
C3831 H3801 0.950 . S
C3831 C3826 1.363 . S
C3831 C3830 1.415 . S
H3832 C3829 0.999 . S
H3833 C3814 0.913 . S
H3834 C3852 0.951 . S
H3835 C3854 0.951 . S
H3836 C3856 0.950 . S
H3837 C3857 0.950 . S
H3838 C3859 0.950 . S
H3839 C3862 0.950 . S
H3840 C3863 0.950 . S
H3841 C3865 0.950 . S
H3842 C3866 0.950 . S
H3843 C3867 0.951 . S
H3844 C3869 0.951 . S
H3845 C3871 0.950 . S
H3846 C3872 0.950 . S
H3847 C3874 0.950 . S
H3848 C3877 0.950 . S
H3849 C3878 0.950 . S
H3850 C3880 0.950 . S
H3851 C3881 0.950 . S
C3852 H3834 0.951 . S
C3852 C3853 1.366 . S
C3852 C3854 1.388 . S
C3853 C3852 1.366 . S
C3853 C3857 1.385 . S
C3854 H3835 0.951 . S
C3854 C3852 1.388 . S
C3854 C3855 1.366 . S
C3855 C3854 1.366 . S
C3855 C3856 1.414 . S
C3855 C3858 1.499 . S
C3856 H3836 0.950 . S
C3856 C3855 1.414 . S
C3856 C3857 1.374 . S
C3857 H3837 0.950 . S
C3857 C3853 1.385 . S
C3857 C3856 1.374 . S
C3858 C3855 1.499 . S
C3858 C3859 1.373 . S
C3858 C3860 1.389 . S
C3859 H3838 0.950 . S
C3859 C3858 1.373 . S
C3859 C3875 1.377 . S
C3860 C3858 1.389 . S
C3860 C3861 1.524 . S
C3860 C3874 1.377 . S
C3861 C3860 1.524 . S
C3861 C3862 1.397 . S
C3861 C3866 1.363 . S
C3862 H3839 0.950 . S
C3862 C3861 1.397 . S
C3862 C3863 1.334 . S
C3863 H3840 0.950 . S
C3863 C3862 1.334 . S
C3863 C3864 1.287 . S
C3864 C3863 1.287 . S
C3864 C3865 1.524 . S
C3864 H3883 0.913 . S
C3865 H3841 0.950 . S
C3865 C3864 1.524 . S
C3865 C3866 1.415 . S
C3866 H3842 0.950 . S
C3866 C3861 1.363 . S
C3866 C3865 1.415 . S
C3867 H3843 0.951 . S
C3867 C3868 1.366 . S
C3867 C3869 1.388 . S
C3868 C3867 1.366 . S
C3868 C3872 1.385 . S
C3869 H3844 0.951 . S
C3869 C3867 1.388 . S
C3869 C3870 1.366 . S
C3870 C3869 1.366 . S
C3870 C3871 1.414 . S
C3870 C3873 1.499 . S
C3871 H3845 0.950 . S
C3871 C3870 1.414 . S
C3871 C3872 1.374 . S
C3872 H3846 0.950 . S
C3872 C3868 1.385 . S
C3872 C3871 1.374 . S
C3873 C3870 1.499 . S
C3873 C3874 1.373 . S
C3873 C3875 1.389 . S
C3874 H3847 0.950 . S
C3874 C3860 1.377 . S
C3874 C3873 1.373 . S
C3875 C3859 1.377 . S
C3875 C3873 1.389 . S
C3875 C3876 1.524 . S
C3876 C3875 1.524 . S
C3876 C3877 1.397 . S
C3876 C3881 1.363 . S
C3877 H3848 0.950 . S
C3877 C3876 1.397 . S
C3877 C3878 1.334 . S
C3878 H3849 0.950 . S
C3878 C3877 1.334 . S
C3878 C3879 1.287 . S
C3879 C3878 1.287 . S
C3879 C3880 1.524 . S
C3879 H3882 0.999 . S
C3880 H3850 0.950 . S
C3880 C3879 1.524 . S
C3880 C3881 1.415 . S
C3881 H3851 0.950 . S
C3881 C3876 1.363 . S
C3881 C3880 1.415 . S
H3882 C3879 0.999 . S
H3883 C3864 0.913 . S
H3884 C3902 0.951 . S
H3885 C3904 0.951 . S
H3886 C3906 0.950 . S
H3887 C3907 0.950 . S
H3888 C3909 0.950 . S
H3889 C3912 0.950 . S
H3890 C3913 0.950 . S
H3891 C3915 0.950 . S
H3892 C3916 0.950 . S
H3893 C3917 0.951 . S
H3894 C3919 0.951 . S
H3895 C3921 0.950 . S
H3896 C3922 0.950 . S
H3897 C3924 0.950 . S
H3898 C3927 0.950 . S
H3899 C3928 0.950 . S
H3900 C3930 0.950 . S
H3901 C3931 0.950 . S
C3902 H3884 0.951 . S
C3902 C3903 1.366 . S
C3902 C3904 1.388 . S
C3903 C3902 1.366 . S
C3903 C3907 1.385 . S
C3904 H3885 0.951 . S
C3904 C3902 1.388 . S
C3904 C3905 1.366 . S
C3905 C3904 1.366 . S
C3905 C3906 1.414 . S
C3905 C3908 1.499 . S
C3906 H3886 0.950 . S
C3906 C3905 1.414 . S
C3906 C3907 1.374 . S
C3907 H3887 0.950 . S
C3907 C3903 1.385 . S
C3907 C3906 1.374 . S
C3908 C3905 1.499 . S
C3908 C3909 1.373 . S
C3908 C3910 1.389 . S
C3909 H3888 0.950 . S
C3909 C3908 1.373 . S
C3909 C3925 1.377 . S
C3910 C3908 1.389 . S
C3910 C3911 1.524 . S
C3910 C3924 1.377 . S
C3911 C3910 1.524 . S
C3911 C3912 1.397 . S
C3911 C3916 1.363 . S
C3912 H3889 0.950 . S
C3912 C3911 1.397 . S
C3912 C3913 1.334 . S
C3913 H3890 0.950 . S
C3913 C3912 1.334 . S
C3913 C3914 1.287 . S
C3914 C3913 1.287 . S
C3914 C3915 1.524 . S
C3914 H3933 0.913 . S
C3915 H3891 0.950 . S
C3915 C3914 1.524 . S
C3915 C3916 1.415 . S
C3916 H3892 0.950 . S
C3916 C3911 1.363 . S
C3916 C3915 1.415 . S
C3917 H3893 0.951 . S
C3917 C3918 1.366 . S
C3917 C3919 1.388 . S
C3918 C3917 1.366 . S
C3918 C3922 1.385 . S
C3919 H3894 0.951 . S
C3919 C3917 1.388 . S
C3919 C3920 1.366 . S
C3920 C3919 1.366 . S
C3920 C3921 1.414 . S
C3920 C3923 1.499 . S
C3921 H3895 0.950 . S
C3921 C3920 1.414 . S
C3921 C3922 1.374 . S
C3922 H3896 0.950 . S
C3922 C3918 1.385 . S
C3922 C3921 1.374 . S
C3923 C3920 1.499 . S
C3923 C3924 1.373 . S
C3923 C3925 1.389 . S
C3924 H3897 0.950 . S
C3924 C3910 1.377 . S
C3924 C3923 1.373 . S
C3925 C3909 1.377 . S
C3925 C3923 1.389 . S
C3925 C3926 1.524 . S
C3926 C3925 1.524 . S
C3926 C3927 1.397 . S
C3926 C3931 1.363 . S
C3927 H3898 0.950 . S
C3927 C3926 1.397 . S
C3927 C3928 1.334 . S
C3928 H3899 0.950 . S
C3928 C3927 1.334 . S
C3928 C3929 1.287 . S
C3929 C3928 1.287 . S
C3929 C3930 1.524 . S
C3929 H3932 0.999 . S
C3930 H3900 0.950 . S
C3930 C3929 1.524 . S
C3930 C3931 1.415 . S
C3931 H3901 0.950 . S
C3931 C3926 1.363 . S
C3931 C3930 1.415 . S
H3932 C3929 0.999 . S
H3933 C3914 0.913 . S
H3934 C3952 0.951 . S
H3935 C3954 0.951 . S
H3936 C3956 0.950 . S
H3937 C3957 0.950 . S
H3938 C3959 0.950 . S
H3939 C3962 0.950 . S
H3940 C3963 0.950 . S
H3941 C3965 0.950 . S
H3942 C3966 0.950 . S
H3943 C3967 0.951 . S
H3944 C3969 0.951 . S
H3945 C3971 0.950 . S
H3946 C3972 0.950 . S
H3947 C3974 0.950 . S
H3948 C3977 0.950 . S
H3949 C3978 0.950 . S
H3950 C3980 0.950 . S
H3951 C3981 0.950 . S
C3952 H3934 0.951 . S
C3952 C3953 1.366 . S
C3952 C3954 1.388 . S
C3953 C3952 1.366 . S
C3953 C3957 1.385 . S
C3954 H3935 0.951 . S
C3954 C3952 1.388 . S
C3954 C3955 1.366 . S
C3955 C3954 1.366 . S
C3955 C3956 1.414 . S
C3955 C3958 1.499 . S
C3956 H3936 0.950 . S
C3956 C3955 1.414 . S
C3956 C3957 1.374 . S
C3957 H3937 0.950 . S
C3957 C3953 1.385 . S
C3957 C3956 1.374 . S
C3958 C3955 1.499 . S
C3958 C3959 1.373 . S
C3958 C3960 1.389 . S
C3959 H3938 0.950 . S
C3959 C3958 1.373 . S
C3959 C3975 1.377 . S
C3960 C3958 1.389 . S
C3960 C3961 1.524 . S
C3960 C3974 1.377 . S
C3961 C3960 1.524 . S
C3961 C3962 1.397 . S
C3961 C3966 1.363 . S
C3962 H3939 0.950 . S
C3962 C3961 1.397 . S
C3962 C3963 1.334 . S
C3963 H3940 0.950 . S
C3963 C3962 1.334 . S
C3963 C3964 1.287 . S
C3964 C3963 1.287 . S
C3964 C3965 1.524 . S
C3964 H3983 0.913 . S
C3965 H3941 0.950 . S
C3965 C3964 1.524 . S
C3965 C3966 1.415 . S
C3966 H3942 0.950 . S
C3966 C3961 1.363 . S
C3966 C3965 1.415 . S
C3967 H3943 0.951 . S
C3967 C3968 1.366 . S
C3967 C3969 1.388 . S
C3968 C3967 1.366 . S
C3968 C3972 1.385 . S
C3969 H3944 0.951 . S
C3969 C3967 1.388 . S
C3969 C3970 1.366 . S
C3970 C3969 1.366 . S
C3970 C3971 1.414 . S
C3970 C3973 1.499 . S
C3971 H3945 0.950 . S
C3971 C3970 1.414 . S
C3971 C3972 1.374 . S
C3972 H3946 0.950 . S
C3972 C3968 1.385 . S
C3972 C3971 1.374 . S
C3973 C3970 1.499 . S
C3973 C3974 1.373 . S
C3973 C3975 1.389 . S
C3974 H3947 0.950 . S
C3974 C3960 1.377 . S
C3974 C3973 1.373 . S
C3975 C3959 1.377 . S
C3975 C3973 1.389 . S
C3975 C3976 1.524 . S
C3976 C3975 1.524 . S
C3976 C3977 1.397 . S
C3976 C3981 1.363 . S
C3977 H3948 0.950 . S
C3977 C3976 1.397 . S
C3977 C3978 1.334 . S
C3978 H3949 0.950 . S
C3978 C3977 1.334 . S
C3978 C3979 1.287 . S
C3979 C3978 1.287 . S
C3979 C3980 1.524 . S
C3979 H3982 0.999 . S
C3980 H3950 0.950 . S
C3980 C3979 1.524 . S
C3980 C3981 1.415 . S
C3981 H3951 0.950 . S
C3981 C3976 1.363 . S
C3981 C3980 1.415 . S
H3982 C3979 0.999 . S
H3983 C3964 0.913 . S
H3984 C4002 0.951 . S
H3985 C4004 0.951 . S
H3986 C4006 0.950 . S
H3987 C4007 0.950 . S
H3988 C4009 0.950 . S
H3989 C4012 0.950 . S
H3990 C4013 0.950 . S
H3991 C4015 0.950 . S
H3992 C4016 0.950 . S
H3993 C4017 0.951 . S
H3994 C4019 0.951 . S
H3995 C4021 0.950 . S
H3996 C4022 0.950 . S
H3997 C4024 0.950 . S
H3998 C4027 0.950 . S
H3999 C4028 0.950 . S
H4000 C4030 0.950 . S
H4001 C4031 0.950 . S
C4002 H3984 0.951 . S
C4002 C4003 1.366 . S
C4002 C4004 1.388 . S
C4003 C4002 1.366 . S
C4003 C4007 1.385 . S
C4004 H3985 0.951 . S
C4004 C4002 1.388 . S
C4004 C4005 1.366 . S
C4005 C4004 1.366 . S
C4005 C4006 1.414 . S
C4005 C4008 1.499 . S
C4006 H3986 0.950 . S
C4006 C4005 1.414 . S
C4006 C4007 1.374 . S
C4007 H3987 0.950 . S
C4007 C4003 1.385 . S
C4007 C4006 1.374 . S
C4008 C4005 1.499 . S
C4008 C4009 1.373 . S
C4008 C4010 1.389 . S
C4009 H3988 0.950 . S
C4009 C4008 1.373 . S
C4009 C4025 1.377 . S
C4010 C4008 1.389 . S
C4010 C4011 1.524 . S
C4010 C4024 1.377 . S
C4011 C4010 1.524 . S
C4011 C4012 1.397 . S
C4011 C4016 1.363 . S
C4012 H3989 0.950 . S
C4012 C4011 1.397 . S
C4012 C4013 1.334 . S
C4013 H3990 0.950 . S
C4013 C4012 1.334 . S
C4013 C4014 1.287 . S
C4014 C4013 1.287 . S
C4014 C4015 1.524 . S
C4014 H4033 0.913 . S
C4015 H3991 0.950 . S
C4015 C4014 1.524 . S
C4015 C4016 1.415 . S
C4016 H3992 0.950 . S
C4016 C4011 1.363 . S
C4016 C4015 1.415 . S
C4017 H3993 0.951 . S
C4017 C4018 1.366 . S
C4017 C4019 1.388 . S
C4018 C4017 1.366 . S
C4018 C4022 1.385 . S
C4019 H3994 0.951 . S
C4019 C4017 1.388 . S
C4019 C4020 1.366 . S
C4020 C4019 1.366 . S
C4020 C4021 1.414 . S
C4020 C4023 1.499 . S
C4021 H3995 0.950 . S
C4021 C4020 1.414 . S
C4021 C4022 1.374 . S
C4022 H3996 0.950 . S
C4022 C4018 1.385 . S
C4022 C4021 1.374 . S
C4023 C4020 1.499 . S
C4023 C4024 1.373 . S
C4023 C4025 1.389 . S
C4024 H3997 0.950 . S
C4024 C4010 1.377 . S
C4024 C4023 1.373 . S
C4025 C4009 1.377 . S
C4025 C4023 1.389 . S
C4025 C4026 1.524 . S
C4026 C4025 1.524 . S
C4026 C4027 1.397 . S
C4026 C4031 1.363 . S
C4027 H3998 0.950 . S
C4027 C4026 1.397 . S
C4027 C4028 1.334 . S
C4028 H3999 0.950 . S
C4028 C4027 1.334 . S
C4028 C4029 1.287 . S
C4029 C4028 1.287 . S
C4029 C4030 1.524 . S
C4029 H4032 0.999 . S
C4030 H4000 0.950 . S
C4030 C4029 1.524 . S
C4030 C4031 1.415 . S
C4031 H4001 0.950 . S
C4031 C4026 1.363 . S
C4031 C4030 1.415 . S
H4032 C4029 0.999 . S
H4033 C4014 0.913 . S
H4034 C4052 0.951 . S
H4035 C4054 0.951 . S
H4036 C4056 0.950 . S
H4037 C4057 0.950 . S
H4038 C4059 0.950 . S
H4039 C4062 0.950 . S
H4040 C4063 0.950 . S
H4041 C4065 0.950 . S
H4042 C4066 0.950 . S
H4043 C4067 0.951 . S
H4044 C4069 0.951 . S
H4045 C4071 0.950 . S
H4046 C4072 0.950 . S
H4047 C4074 0.950 . S
H4048 C4077 0.950 . S
H4049 C4078 0.950 . S
H4050 C4080 0.950 . S
H4051 C4081 0.950 . S
C4052 H4034 0.951 . S
C4052 C4053 1.366 . S
C4052 C4054 1.388 . S
C4053 C4052 1.366 . S
C4053 C4057 1.385 . S
C4054 H4035 0.951 . S
C4054 C4052 1.388 . S
C4054 C4055 1.366 . S
C4055 C4054 1.366 . S
C4055 C4056 1.414 . S
C4055 C4058 1.499 . S
C4056 H4036 0.950 . S
C4056 C4055 1.414 . S
C4056 C4057 1.374 . S
C4057 H4037 0.950 . S
C4057 C4053 1.385 . S
C4057 C4056 1.374 . S
C4058 C4055 1.499 . S
C4058 C4059 1.373 . S
C4058 C4060 1.389 . S
C4059 H4038 0.950 . S
C4059 C4058 1.373 . S
C4059 C4075 1.377 . S
C4060 C4058 1.389 . S
C4060 C4061 1.524 . S
C4060 C4074 1.377 . S
C4061 C4060 1.524 . S
C4061 C4062 1.397 . S
C4061 C4066 1.363 . S
C4062 H4039 0.950 . S
C4062 C4061 1.397 . S
C4062 C4063 1.334 . S
C4063 H4040 0.950 . S
C4063 C4062 1.334 . S
C4063 C4064 1.287 . S
C4064 C4063 1.287 . S
C4064 C4065 1.524 . S
C4064 H4083 0.913 . S
C4065 H4041 0.950 . S
C4065 C4064 1.524 . S
C4065 C4066 1.415 . S
C4066 H4042 0.950 . S
C4066 C4061 1.363 . S
C4066 C4065 1.415 . S
C4067 H4043 0.951 . S
C4067 C4068 1.366 . S
C4067 C4069 1.388 . S
C4068 C4067 1.366 . S
C4068 C4072 1.385 . S
C4069 H4044 0.951 . S
C4069 C4067 1.388 . S
C4069 C4070 1.366 . S
C4070 C4069 1.366 . S
C4070 C4071 1.414 . S
C4070 C4073 1.499 . S
C4071 H4045 0.950 . S
C4071 C4070 1.414 . S
C4071 C4072 1.374 . S
C4072 H4046 0.950 . S
C4072 C4068 1.385 . S
C4072 C4071 1.374 . S
C4073 C4070 1.499 . S
C4073 C4074 1.373 . S
C4073 C4075 1.389 . S
C4074 H4047 0.950 . S
C4074 C4060 1.377 . S
C4074 C4073 1.373 . S
C4075 C4059 1.377 . S
C4075 C4073 1.389 . S
C4075 C4076 1.524 . S
C4076 C4075 1.524 . S
C4076 C4077 1.397 . S
C4076 C4081 1.363 . S
C4077 H4048 0.950 . S
C4077 C4076 1.397 . S
C4077 C4078 1.334 . S
C4078 H4049 0.950 . S
C4078 C4077 1.334 . S
C4078 C4079 1.287 . S
C4079 C4078 1.287 . S
C4079 C4080 1.524 . S
C4079 H4082 0.999 . S
C4080 H4050 0.950 . S
C4080 C4079 1.524 . S
C4080 C4081 1.415 . S
C4081 H4051 0.950 . S
C4081 C4076 1.363 . S
C4081 C4080 1.415 . S
H4082 C4079 0.999 . S
H4083 C4064 0.913 . S
H4084 C4102 0.951 . S
H4085 C4104 0.951 . S
H4086 C4106 0.950 . S
H4087 C4107 0.950 . S
H4088 C4109 0.950 . S
H4089 C4112 0.950 . S
H4090 C4113 0.950 . S
H4091 C4115 0.950 . S
H4092 C4116 0.950 . S
H4093 C4117 0.951 . S
H4094 C4119 0.951 . S
H4095 C4121 0.950 . S
H4096 C4122 0.950 . S
H4097 C4124 0.950 . S
H4098 C4127 0.950 . S
H4099 C4128 0.950 . S
H4100 C4130 0.950 . S
H4101 C4131 0.950 . S
C4102 H4084 0.951 . S
C4102 C4103 1.366 . S
C4102 C4104 1.388 . S
C4103 C4102 1.366 . S
C4103 C4107 1.385 . S
C4104 H4085 0.951 . S
C4104 C4102 1.388 . S
C4104 C4105 1.366 . S
C4105 C4104 1.366 . S
C4105 C4106 1.414 . S
C4105 C4108 1.499 . S
C4106 H4086 0.950 . S
C4106 C4105 1.414 . S
C4106 C4107 1.374 . S
C4107 H4087 0.950 . S
C4107 C4103 1.385 . S
C4107 C4106 1.374 . S
C4108 C4105 1.499 . S
C4108 C4109 1.373 . S
C4108 C4110 1.389 . S
C4109 H4088 0.950 . S
C4109 C4108 1.373 . S
C4109 C4125 1.377 . S
C4110 C4108 1.389 . S
C4110 C4111 1.524 . S
C4110 C4124 1.377 . S
C4111 C4110 1.524 . S
C4111 C4112 1.397 . S
C4111 C4116 1.363 . S
C4112 H4089 0.950 . S
C4112 C4111 1.397 . S
C4112 C4113 1.334 . S
C4113 H4090 0.950 . S
C4113 C4112 1.334 . S
C4113 C4114 1.287 . S
C4114 C4113 1.287 . S
C4114 C4115 1.524 . S
C4114 H4133 0.913 . S
C4115 H4091 0.950 . S
C4115 C4114 1.524 . S
C4115 C4116 1.415 . S
C4116 H4092 0.950 . S
C4116 C4111 1.363 . S
C4116 C4115 1.415 . S
C4117 H4093 0.951 . S
C4117 C4118 1.366 . S
C4117 C4119 1.388 . S
C4118 C4117 1.366 . S
C4118 C4122 1.385 . S
C4119 H4094 0.951 . S
C4119 C4117 1.388 . S
C4119 C4120 1.366 . S
C4120 C4119 1.366 . S
C4120 C4121 1.414 . S
C4120 C4123 1.499 . S
C4121 H4095 0.950 . S
C4121 C4120 1.414 . S
C4121 C4122 1.374 . S
C4122 H4096 0.950 . S
C4122 C4118 1.385 . S
C4122 C4121 1.374 . S
C4123 C4120 1.499 . S
C4123 C4124 1.373 . S
C4123 C4125 1.389 . S
C4124 H4097 0.950 . S
C4124 C4110 1.377 . S
C4124 C4123 1.373 . S
C4125 C4109 1.377 . S
C4125 C4123 1.389 . S
C4125 C4126 1.524 . S
C4126 C4125 1.524 . S
C4126 C4127 1.397 . S
C4126 C4131 1.363 . S
C4127 H4098 0.950 . S
C4127 C4126 1.397 . S
C4127 C4128 1.334 . S
C4128 H4099 0.950 . S
C4128 C4127 1.334 . S
C4128 C4129 1.287 . S
C4129 C4128 1.287 . S
C4129 C4130 1.524 . S
C4129 H4132 0.999 . S
C4130 H4100 0.950 . S
C4130 C4129 1.524 . S
C4130 C4131 1.415 . S
C4131 H4101 0.950 . S
C4131 C4126 1.363 . S
C4131 C4130 1.415 . S
H4132 C4129 0.999 . S
H4133 C4114 0.913 . S
H4134 C4152 0.951 . S
H4135 C4154 0.951 . S
H4136 C4156 0.950 . S
H4137 C4157 0.950 . S
H4138 C4159 0.950 . S
H4139 C4162 0.950 . S
H4140 C4163 0.950 . S
H4141 C4165 0.950 . S
H4142 C4166 0.950 . S
H4143 C4167 0.951 . S
H4144 C4169 0.951 . S
H4145 C4171 0.950 . S
H4146 C4172 0.950 . S
H4147 C4174 0.950 . S
H4148 C4177 0.950 . S
H4149 C4178 0.950 . S
H4150 C4180 0.950 . S
H4151 C4181 0.950 . S
C4152 H4134 0.951 . S
C4152 C4153 1.366 . S
C4152 C4154 1.388 . S
C4153 C4152 1.366 . S
C4153 C4157 1.385 . S
C4154 H4135 0.951 . S
C4154 C4152 1.388 . S
C4154 C4155 1.366 . S
C4155 C4154 1.366 . S
C4155 C4156 1.414 . S
C4155 C4158 1.499 . S
C4156 H4136 0.950 . S
C4156 C4155 1.414 . S
C4156 C4157 1.374 . S
C4157 H4137 0.950 . S
C4157 C4153 1.385 . S
C4157 C4156 1.374 . S
C4158 C4155 1.499 . S
C4158 C4159 1.373 . S
C4158 C4160 1.389 . S
C4159 H4138 0.950 . S
C4159 C4158 1.373 . S
C4159 C4175 1.377 . S
C4160 C4158 1.389 . S
C4160 C4161 1.524 . S
C4160 C4174 1.377 . S
C4161 C4160 1.524 . S
C4161 C4162 1.397 . S
C4161 C4166 1.363 . S
C4162 H4139 0.950 . S
C4162 C4161 1.397 . S
C4162 C4163 1.334 . S
C4163 H4140 0.950 . S
C4163 C4162 1.334 . S
C4163 C4164 1.287 . S
C4164 C4163 1.287 . S
C4164 C4165 1.524 . S
C4164 H4183 0.913 . S
C4165 H4141 0.950 . S
C4165 C4164 1.524 . S
C4165 C4166 1.415 . S
C4166 H4142 0.950 . S
C4166 C4161 1.363 . S
C4166 C4165 1.415 . S
C4167 H4143 0.951 . S
C4167 C4168 1.366 . S
C4167 C4169 1.388 . S
C4168 C4167 1.366 . S
C4168 C4172 1.385 . S
C4169 H4144 0.951 . S
C4169 C4167 1.388 . S
C4169 C4170 1.366 . S
C4170 C4169 1.366 . S
C4170 C4171 1.414 . S
C4170 C4173 1.499 . S
C4171 H4145 0.950 . S
C4171 C4170 1.414 . S
C4171 C4172 1.374 . S
C4172 H4146 0.950 . S
C4172 C4168 1.385 . S
C4172 C4171 1.374 . S
C4173 C4170 1.499 . S
C4173 C4174 1.373 . S
C4173 C4175 1.389 . S
C4174 H4147 0.950 . S
C4174 C4160 1.377 . S
C4174 C4173 1.373 . S
C4175 C4159 1.377 . S
C4175 C4173 1.389 . S
C4175 C4176 1.524 . S
C4176 C4175 1.524 . S
C4176 C4177 1.397 . S
C4176 C4181 1.363 . S
C4177 H4148 0.950 . S
C4177 C4176 1.397 . S
C4177 C4178 1.334 . S
C4178 H4149 0.950 . S
C4178 C4177 1.334 . S
C4178 C4179 1.287 . S
C4179 C4178 1.287 . S
C4179 C4180 1.524 . S
C4179 H4182 0.999 . S
C4180 H4150 0.950 . S
C4180 C4179 1.524 . S
C4180 C4181 1.415 . S
C4181 H4151 0.950 . S
C4181 C4176 1.363 . S
C4181 C4180 1.415 . S
H4182 C4179 0.999 . S
H4183 C4164 0.913 . S
H4184 C4202 0.951 . S
H4185 C4204 0.951 . S
H4186 C4206 0.950 . S
H4187 C4207 0.950 . S
H4188 C4209 0.950 . S
H4189 C4212 0.950 . S
H4190 C4213 0.950 . S
H4191 C4215 0.950 . S
H4192 C4216 0.950 . S
H4193 C4217 0.951 . S
H4194 C4219 0.951 . S
H4195 C4221 0.950 . S
H4196 C4222 0.950 . S
H4197 C4224 0.950 . S
H4198 C4227 0.950 . S
H4199 C4228 0.950 . S
H4200 C4230 0.950 . S
H4201 C4231 0.950 . S
C4202 H4184 0.951 . S
C4202 C4203 1.366 . S
C4202 C4204 1.388 . S
C4203 C4202 1.366 . S
C4203 C4207 1.385 . S
C4204 H4185 0.951 . S
C4204 C4202 1.388 . S
C4204 C4205 1.366 . S
C4205 C4204 1.366 . S
C4205 C4206 1.414 . S
C4205 C4208 1.499 . S
C4206 H4186 0.950 . S
C4206 C4205 1.414 . S
C4206 C4207 1.374 . S
C4207 H4187 0.950 . S
C4207 C4203 1.385 . S
C4207 C4206 1.374 . S
C4208 C4205 1.499 . S
C4208 C4209 1.373 . S
C4208 C4210 1.389 . S
C4209 H4188 0.950 . S
C4209 C4208 1.373 . S
C4209 C4225 1.377 . S
C4210 C4208 1.389 . S
C4210 C4211 1.524 . S
C4210 C4224 1.377 . S
C4211 C4210 1.524 . S
C4211 C4212 1.397 . S
C4211 C4216 1.363 . S
C4212 H4189 0.950 . S
C4212 C4211 1.397 . S
C4212 C4213 1.334 . S
C4213 H4190 0.950 . S
C4213 C4212 1.334 . S
C4213 C4214 1.287 . S
C4214 C4213 1.287 . S
C4214 C4215 1.524 . S
C4214 H4233 0.913 . S
C4215 H4191 0.950 . S
C4215 C4214 1.524 . S
C4215 C4216 1.415 . S
C4216 H4192 0.950 . S
C4216 C4211 1.363 . S
C4216 C4215 1.415 . S
C4217 H4193 0.951 . S
C4217 C4218 1.366 . S
C4217 C4219 1.388 . S
C4218 C4217 1.366 . S
C4218 C4222 1.385 . S
C4219 H4194 0.951 . S
C4219 C4217 1.388 . S
C4219 C4220 1.366 . S
C4220 C4219 1.366 . S
C4220 C4221 1.414 . S
C4220 C4223 1.499 . S
C4221 H4195 0.950 . S
C4221 C4220 1.414 . S
C4221 C4222 1.374 . S
C4222 H4196 0.950 . S
C4222 C4218 1.385 . S
C4222 C4221 1.374 . S
C4223 C4220 1.499 . S
C4223 C4224 1.373 . S
C4223 C4225 1.389 . S
C4224 H4197 0.950 . S
C4224 C4210 1.377 . S
C4224 C4223 1.373 . S
C4225 C4209 1.377 . S
C4225 C4223 1.389 . S
C4225 C4226 1.524 . S
C4226 C4225 1.524 . S
C4226 C4227 1.397 . S
C4226 C4231 1.363 . S
C4227 H4198 0.950 . S
C4227 C4226 1.397 . S
C4227 C4228 1.334 . S
C4228 H4199 0.950 . S
C4228 C4227 1.334 . S
C4228 C4229 1.287 . S
C4229 C4228 1.287 . S
C4229 C4230 1.524 . S
C4229 H4232 0.999 . S
C4230 H4200 0.950 . S
C4230 C4229 1.524 . S
C4230 C4231 1.415 . S
C4231 H4201 0.950 . S
C4231 C4226 1.363 . S
C4231 C4230 1.415 . S
H4232 C4229 0.999 . S
H4233 C4214 0.913 . S
H4234 C4252 0.951 . S
H4235 C4254 0.951 . S
H4236 C4256 0.950 . S
H4237 C4257 0.950 . S
H4238 C4259 0.950 . S
H4239 C4262 0.950 . S
H4240 C4263 0.950 . S
H4241 C4265 0.950 . S
H4242 C4266 0.950 . S
H4243 C4267 0.951 . S
H4244 C4269 0.951 . S
H4245 C4271 0.950 . S
H4246 C4272 0.950 . S
H4247 C4274 0.950 . S
H4248 C4277 0.950 . S
H4249 C4278 0.950 . S
H4250 C4280 0.950 . S
H4251 C4281 0.950 . S
C4252 H4234 0.951 . S
C4252 C4253 1.366 . S
C4252 C4254 1.388 . S
C4253 C4252 1.366 . S
C4253 C4257 1.385 . S
C4254 H4235 0.951 . S
C4254 C4252 1.388 . S
C4254 C4255 1.366 . S
C4255 C4254 1.366 . S
C4255 C4256 1.414 . S
C4255 C4258 1.499 . S
C4256 H4236 0.950 . S
C4256 C4255 1.414 . S
C4256 C4257 1.374 . S
C4257 H4237 0.950 . S
C4257 C4253 1.385 . S
C4257 C4256 1.374 . S
C4258 C4255 1.499 . S
C4258 C4259 1.373 . S
C4258 C4260 1.389 . S
C4259 H4238 0.950 . S
C4259 C4258 1.373 . S
C4259 C4275 1.377 . S
C4260 C4258 1.389 . S
C4260 C4261 1.524 . S
C4260 C4274 1.377 . S
C4261 C4260 1.524 . S
C4261 C4262 1.397 . S
C4261 C4266 1.363 . S
C4262 H4239 0.950 . S
C4262 C4261 1.397 . S
C4262 C4263 1.334 . S
C4263 H4240 0.950 . S
C4263 C4262 1.334 . S
C4263 C4264 1.287 . S
C4264 C4263 1.287 . S
C4264 C4265 1.524 . S
C4264 H4283 0.913 . S
C4265 H4241 0.950 . S
C4265 C4264 1.524 . S
C4265 C4266 1.415 . S
C4266 H4242 0.950 . S
C4266 C4261 1.363 . S
C4266 C4265 1.415 . S
C4267 H4243 0.951 . S
C4267 C4268 1.366 . S
C4267 C4269 1.388 . S
C4268 C4267 1.366 . S
C4268 C4272 1.385 . S
C4269 H4244 0.951 . S
C4269 C4267 1.388 . S
C4269 C4270 1.366 . S
C4270 C4269 1.366 . S
C4270 C4271 1.414 . S
C4270 C4273 1.499 . S
C4271 H4245 0.950 . S
C4271 C4270 1.414 . S
C4271 C4272 1.374 . S
C4272 H4246 0.950 . S
C4272 C4268 1.385 . S
C4272 C4271 1.374 . S
C4273 C4270 1.499 . S
C4273 C4274 1.373 . S
C4273 C4275 1.389 . S
C4274 H4247 0.950 . S
C4274 C4260 1.377 . S
C4274 C4273 1.373 . S
C4275 C4259 1.377 . S
C4275 C4273 1.389 . S
C4275 C4276 1.524 . S
C4276 C4275 1.524 . S
C4276 C4277 1.397 . S
C4276 C4281 1.363 . S
C4277 H4248 0.950 . S
C4277 C4276 1.397 . S
C4277 C4278 1.334 . S
C4278 H4249 0.950 . S
C4278 C4277 1.334 . S
C4278 C4279 1.287 . S
C4279 C4278 1.287 . S
C4279 C4280 1.524 . S
C4279 H4282 0.999 . S
C4280 H4250 0.950 . S
C4280 C4279 1.524 . S
C4280 C4281 1.415 . S
C4281 H4251 0.950 . S
C4281 C4276 1.363 . S
C4281 C4280 1.415 . S
H4282 C4279 0.999 . S
H4283 C4264 0.913 . S
H4284 C4302 0.951 . S
H4285 C4304 0.951 . S
H4286 C4306 0.950 . S
H4287 C4307 0.950 . S
H4288 C4309 0.950 . S
H4289 C4312 0.950 . S
H4290 C4313 0.950 . S
H4291 C4315 0.950 . S
H4292 C4316 0.950 . S
H4293 C4317 0.951 . S
H4294 C4319 0.951 . S
H4295 C4321 0.950 . S
H4296 C4322 0.950 . S
H4297 C4324 0.950 . S
H4298 C4327 0.950 . S
H4299 C4328 0.950 . S
H4300 C4330 0.950 . S
H4301 C4331 0.950 . S
C4302 H4284 0.951 . S
C4302 C4303 1.366 . S
C4302 C4304 1.388 . S
C4303 C4302 1.366 . S
C4303 C4307 1.385 . S
C4304 H4285 0.951 . S
C4304 C4302 1.388 . S
C4304 C4305 1.366 . S
C4305 C4304 1.366 . S
C4305 C4306 1.414 . S
C4305 C4308 1.499 . S
C4306 H4286 0.950 . S
C4306 C4305 1.414 . S
C4306 C4307 1.374 . S
C4307 H4287 0.950 . S
C4307 C4303 1.385 . S
C4307 C4306 1.374 . S
C4308 C4305 1.499 . S
C4308 C4309 1.373 . S
C4308 C4310 1.389 . S
C4309 H4288 0.950 . S
C4309 C4308 1.373 . S
C4309 C4325 1.377 . S
C4310 C4308 1.389 . S
C4310 C4311 1.524 . S
C4310 C4324 1.377 . S
C4311 C4310 1.524 . S
C4311 C4312 1.397 . S
C4311 C4316 1.363 . S
C4312 H4289 0.950 . S
C4312 C4311 1.397 . S
C4312 C4313 1.334 . S
C4313 H4290 0.950 . S
C4313 C4312 1.334 . S
C4313 C4314 1.287 . S
C4314 C4313 1.287 . S
C4314 C4315 1.524 . S
C4314 H4333 0.913 . S
C4315 H4291 0.950 . S
C4315 C4314 1.524 . S
C4315 C4316 1.415 . S
C4316 H4292 0.950 . S
C4316 C4311 1.363 . S
C4316 C4315 1.415 . S
C4317 H4293 0.951 . S
C4317 C4318 1.366 . S
C4317 C4319 1.388 . S
C4318 C4317 1.366 . S
C4318 C4322 1.385 . S
C4319 H4294 0.951 . S
C4319 C4317 1.388 . S
C4319 C4320 1.366 . S
C4320 C4319 1.366 . S
C4320 C4321 1.414 . S
C4320 C4323 1.499 . S
C4321 H4295 0.950 . S
C4321 C4320 1.414 . S
C4321 C4322 1.374 . S
C4322 H4296 0.950 . S
C4322 C4318 1.385 . S
C4322 C4321 1.374 . S
C4323 C4320 1.499 . S
C4323 C4324 1.373 . S
C4323 C4325 1.389 . S
C4324 H4297 0.950 . S
C4324 C4310 1.377 . S
C4324 C4323 1.373 . S
C4325 C4309 1.377 . S
C4325 C4323 1.389 . S
C4325 C4326 1.524 . S
C4326 C4325 1.524 . S
C4326 C4327 1.397 . S
C4326 C4331 1.363 . S
C4327 H4298 0.950 . S
C4327 C4326 1.397 . S
C4327 C4328 1.334 . S
C4328 H4299 0.950 . S
C4328 C4327 1.334 . S
C4328 C4329 1.287 . S
C4329 C4328 1.287 . S
C4329 C4330 1.524 . S
C4329 H4332 0.999 . S
C4330 H4300 0.950 . S
C4330 C4329 1.524 . S
C4330 C4331 1.415 . S
C4331 H4301 0.950 . S
C4331 C4326 1.363 . S
C4331 C4330 1.415 . S
H4332 C4329 0.999 . S
H4333 C4314 0.913 . S
H4334 C4352 0.951 . S
H4335 C4354 0.951 . S
H4336 C4356 0.950 . S
H4337 C4357 0.950 . S
H4338 C4359 0.950 . S
H4339 C4362 0.950 . S
H4340 C4363 0.950 . S
H4341 C4365 0.950 . S
H4342 C4366 0.950 . S
H4343 C4367 0.951 . S
H4344 C4369 0.951 . S
H4345 C4371 0.950 . S
H4346 C4372 0.950 . S
H4347 C4374 0.950 . S
H4348 C4377 0.950 . S
H4349 C4378 0.950 . S
H4350 C4380 0.950 . S
H4351 C4381 0.950 . S
C4352 H4334 0.951 . S
C4352 C4353 1.366 . S
C4352 C4354 1.388 . S
C4353 C4352 1.366 . S
C4353 C4357 1.385 . S
C4354 H4335 0.951 . S
C4354 C4352 1.388 . S
C4354 C4355 1.366 . S
C4355 C4354 1.366 . S
C4355 C4356 1.414 . S
C4355 C4358 1.499 . S
C4356 H4336 0.950 . S
C4356 C4355 1.414 . S
C4356 C4357 1.374 . S
C4357 H4337 0.950 . S
C4357 C4353 1.385 . S
C4357 C4356 1.374 . S
C4358 C4355 1.499 . S
C4358 C4359 1.373 . S
C4358 C4360 1.389 . S
C4359 H4338 0.950 . S
C4359 C4358 1.373 . S
C4359 C4375 1.377 . S
C4360 C4358 1.389 . S
C4360 C4361 1.524 . S
C4360 C4374 1.377 . S
C4361 C4360 1.524 . S
C4361 C4362 1.397 . S
C4361 C4366 1.363 . S
C4362 H4339 0.950 . S
C4362 C4361 1.397 . S
C4362 C4363 1.334 . S
C4363 H4340 0.950 . S
C4363 C4362 1.334 . S
C4363 C4364 1.287 . S
C4364 C4363 1.287 . S
C4364 C4365 1.524 . S
C4364 H4383 0.913 . S
C4365 H4341 0.950 . S
C4365 C4364 1.524 . S
C4365 C4366 1.415 . S
C4366 H4342 0.950 . S
C4366 C4361 1.363 . S
C4366 C4365 1.415 . S
C4367 H4343 0.951 . S
C4367 C4368 1.366 . S
C4367 C4369 1.388 . S
C4368 C4367 1.366 . S
C4368 C4372 1.385 . S
C4369 H4344 0.951 . S
C4369 C4367 1.388 . S
C4369 C4370 1.366 . S
C4370 C4369 1.366 . S
C4370 C4371 1.414 . S
C4370 C4373 1.499 . S
C4371 H4345 0.950 . S
C4371 C4370 1.414 . S
C4371 C4372 1.374 . S
C4372 H4346 0.950 . S
C4372 C4368 1.385 . S
C4372 C4371 1.374 . S
C4373 C4370 1.499 . S
C4373 C4374 1.373 . S
C4373 C4375 1.389 . S
C4374 H4347 0.950 . S
C4374 C4360 1.377 . S
C4374 C4373 1.373 . S
C4375 C4359 1.377 . S
C4375 C4373 1.389 . S
C4375 C4376 1.524 . S
C4376 C4375 1.524 . S
C4376 C4377 1.397 . S
C4376 C4381 1.363 . S
C4377 H4348 0.950 . S
C4377 C4376 1.397 . S
C4377 C4378 1.334 . S
C4378 H4349 0.950 . S
C4378 C4377 1.334 . S
C4378 C4379 1.287 . S
C4379 C4378 1.287 . S
C4379 C4380 1.524 . S
C4379 H4382 0.999 . S
C4380 H4350 0.950 . S
C4380 C4379 1.524 . S
C4380 C4381 1.415 . S
C4381 H4351 0.950 . S
C4381 C4376 1.363 . S
C4381 C4380 1.415 . S
H4382 C4379 0.999 . S
H4383 C4364 0.913 . S
H4384 C4402 0.951 . S
H4385 C4404 0.951 . S
H4386 C4406 0.950 . S
H4387 C4407 0.950 . S
H4388 C4409 0.950 . S
H4389 C4412 0.950 . S
H4390 C4413 0.950 . S
H4391 C4415 0.950 . S
H4392 C4416 0.950 . S
H4393 C4417 0.951 . S
H4394 C4419 0.951 . S
H4395 C4421 0.950 . S
H4396 C4422 0.950 . S
H4397 C4424 0.950 . S
H4398 C4427 0.950 . S
H4399 C4428 0.950 . S
H4400 C4430 0.950 . S
H4401 C4431 0.950 . S
C4402 H4384 0.951 . S
C4402 C4403 1.366 . S
C4402 C4404 1.388 . S
C4403 C4402 1.366 . S
C4403 C4407 1.385 . S
C4404 H4385 0.951 . S
C4404 C4402 1.388 . S
C4404 C4405 1.366 . S
C4405 C4404 1.366 . S
C4405 C4406 1.414 . S
C4405 C4408 1.499 . S
C4406 H4386 0.950 . S
C4406 C4405 1.414 . S
C4406 C4407 1.374 . S
C4407 H4387 0.950 . S
C4407 C4403 1.385 . S
C4407 C4406 1.374 . S
C4408 C4405 1.499 . S
C4408 C4409 1.373 . S
C4408 C4410 1.389 . S
C4409 H4388 0.950 . S
C4409 C4408 1.373 . S
C4409 C4425 1.377 . S
C4410 C4408 1.389 . S
C4410 C4411 1.524 . S
C4410 C4424 1.377 . S
C4411 C4410 1.524 . S
C4411 C4412 1.397 . S
C4411 C4416 1.363 . S
C4412 H4389 0.950 . S
C4412 C4411 1.397 . S
C4412 C4413 1.334 . S
C4413 H4390 0.950 . S
C4413 C4412 1.334 . S
C4413 C4414 1.287 . S
C4414 C4413 1.287 . S
C4414 C4415 1.524 . S
C4414 H4433 0.913 . S
C4415 H4391 0.950 . S
C4415 C4414 1.524 . S
C4415 C4416 1.415 . S
C4416 H4392 0.950 . S
C4416 C4411 1.363 . S
C4416 C4415 1.415 . S
C4417 H4393 0.951 . S
C4417 C4418 1.366 . S
C4417 C4419 1.388 . S
C4418 C4417 1.366 . S
C4418 C4422 1.385 . S
C4419 H4394 0.951 . S
C4419 C4417 1.388 . S
C4419 C4420 1.366 . S
C4420 C4419 1.366 . S
C4420 C4421 1.414 . S
C4420 C4423 1.499 . S
C4421 H4395 0.950 . S
C4421 C4420 1.414 . S
C4421 C4422 1.374 . S
C4422 H4396 0.950 . S
C4422 C4418 1.385 . S
C4422 C4421 1.374 . S
C4423 C4420 1.499 . S
C4423 C4424 1.373 . S
C4423 C4425 1.389 . S
C4424 H4397 0.950 . S
C4424 C4410 1.377 . S
C4424 C4423 1.373 . S
C4425 C4409 1.377 . S
C4425 C4423 1.389 . S
C4425 C4426 1.524 . S
C4426 C4425 1.524 . S
C4426 C4427 1.397 . S
C4426 C4431 1.363 . S
C4427 H4398 0.950 . S
C4427 C4426 1.397 . S
C4427 C4428 1.334 . S
C4428 H4399 0.950 . S
C4428 C4427 1.334 . S
C4428 C4429 1.287 . S
C4429 C4428 1.287 . S
C4429 C4430 1.524 . S
C4429 H4432 0.999 . S
C4430 H4400 0.950 . S
C4430 C4429 1.524 . S
C4430 C4431 1.415 . S
C4431 H4401 0.950 . S
C4431 C4426 1.363 . S
C4431 C4430 1.415 . S
H4432 C4429 0.999 . S
H4433 C4414 0.913 . S
H4434 C4452 0.951 . S
H4435 C4454 0.951 . S
H4436 C4456 0.950 . S
H4437 C4457 0.950 . S
H4438 C4459 0.950 . S
H4439 C4462 0.950 . S
H4440 C4463 0.950 . S
H4441 C4465 0.950 . S
H4442 C4466 0.950 . S
H4443 C4467 0.951 . S
H4444 C4469 0.951 . S
H4445 C4471 0.950 . S
H4446 C4472 0.950 . S
H4447 C4474 0.950 . S
H4448 C4477 0.950 . S
H4449 C4478 0.950 . S
H4450 C4480 0.950 . S
H4451 C4481 0.950 . S
C4452 H4434 0.951 . S
C4452 C4453 1.366 . S
C4452 C4454 1.388 . S
C4453 C4452 1.366 . S
C4453 C4457 1.385 . S
C4454 H4435 0.951 . S
C4454 C4452 1.388 . S
C4454 C4455 1.366 . S
C4455 C4454 1.366 . S
C4455 C4456 1.414 . S
C4455 C4458 1.499 . S
C4456 H4436 0.950 . S
C4456 C4455 1.414 . S
C4456 C4457 1.374 . S
C4457 H4437 0.950 . S
C4457 C4453 1.385 . S
C4457 C4456 1.374 . S
C4458 C4455 1.499 . S
C4458 C4459 1.373 . S
C4458 C4460 1.389 . S
C4459 H4438 0.950 . S
C4459 C4458 1.373 . S
C4459 C4475 1.377 . S
C4460 C4458 1.389 . S
C4460 C4461 1.524 . S
C4460 C4474 1.377 . S
C4461 C4460 1.524 . S
C4461 C4462 1.397 . S
C4461 C4466 1.363 . S
C4462 H4439 0.950 . S
C4462 C4461 1.397 . S
C4462 C4463 1.334 . S
C4463 H4440 0.950 . S
C4463 C4462 1.334 . S
C4463 C4464 1.287 . S
C4464 C4463 1.287 . S
C4464 C4465 1.524 . S
C4464 H4483 0.913 . S
C4465 H4441 0.950 . S
C4465 C4464 1.524 . S
C4465 C4466 1.415 . S
C4466 H4442 0.950 . S
C4466 C4461 1.363 . S
C4466 C4465 1.415 . S
C4467 H4443 0.951 . S
C4467 C4468 1.366 . S
C4467 C4469 1.388 . S
C4468 C4467 1.366 . S
C4468 C4472 1.385 . S
C4469 H4444 0.951 . S
C4469 C4467 1.388 . S
C4469 C4470 1.366 . S
C4470 C4469 1.366 . S
C4470 C4471 1.414 . S
C4470 C4473 1.499 . S
C4471 H4445 0.950 . S
C4471 C4470 1.414 . S
C4471 C4472 1.374 . S
C4472 H4446 0.950 . S
C4472 C4468 1.385 . S
C4472 C4471 1.374 . S
C4473 C4470 1.499 . S
C4473 C4474 1.373 . S
C4473 C4475 1.389 . S
C4474 H4447 0.950 . S
C4474 C4460 1.377 . S
C4474 C4473 1.373 . S
C4475 C4459 1.377 . S
C4475 C4473 1.389 . S
C4475 C4476 1.524 . S
C4476 C4475 1.524 . S
C4476 C4477 1.397 . S
C4476 C4481 1.363 . S
C4477 H4448 0.950 . S
C4477 C4476 1.397 . S
C4477 C4478 1.334 . S
C4478 H4449 0.950 . S
C4478 C4477 1.334 . S
C4478 C4479 1.287 . S
C4479 C4478 1.287 . S
C4479 C4480 1.524 . S
C4479 H4482 0.999 . S
C4480 H4450 0.950 . S
C4480 C4479 1.524 . S
C4480 C4481 1.415 . S
C4481 H4451 0.950 . S
C4481 C4476 1.363 . S
C4481 C4480 1.415 . S
H4482 C4479 0.999 . S
H4483 C4464 0.913 . S
H4484 C4502 0.951 . S
H4485 C4504 0.951 . S
H4486 C4506 0.950 . S
H4487 C4507 0.950 . S
H4488 C4509 0.950 . S
H4489 C4512 0.950 . S
H4490 C4513 0.950 . S
H4491 C4515 0.950 . S
H4492 C4516 0.950 . S
H4493 C4517 0.951 . S
H4494 C4519 0.951 . S
H4495 C4521 0.950 . S
H4496 C4522 0.950 . S
H4497 C4524 0.950 . S
H4498 C4527 0.950 . S
H4499 C4528 0.950 . S
H4500 C4530 0.950 . S
H4501 C4531 0.950 . S
C4502 H4484 0.951 . S
C4502 C4503 1.366 . S
C4502 C4504 1.388 . S
C4503 C4502 1.366 . S
C4503 C4507 1.385 . S
C4504 H4485 0.951 . S
C4504 C4502 1.388 . S
C4504 C4505 1.366 . S
C4505 C4504 1.366 . S
C4505 C4506 1.414 . S
C4505 C4508 1.499 . S
C4506 H4486 0.950 . S
C4506 C4505 1.414 . S
C4506 C4507 1.374 . S
C4507 H4487 0.950 . S
C4507 C4503 1.385 . S
C4507 C4506 1.374 . S
C4508 C4505 1.499 . S
C4508 C4509 1.373 . S
C4508 C4510 1.389 . S
C4509 H4488 0.950 . S
C4509 C4508 1.373 . S
C4509 C4525 1.377 . S
C4510 C4508 1.389 . S
C4510 C4511 1.524 . S
C4510 C4524 1.377 . S
C4511 C4510 1.524 . S
C4511 C4512 1.397 . S
C4511 C4516 1.363 . S
C4512 H4489 0.950 . S
C4512 C4511 1.397 . S
C4512 C4513 1.334 . S
C4513 H4490 0.950 . S
C4513 C4512 1.334 . S
C4513 C4514 1.287 . S
C4514 C4513 1.287 . S
C4514 C4515 1.524 . S
C4514 H4533 0.913 . S
C4515 H4491 0.950 . S
C4515 C4514 1.524 . S
C4515 C4516 1.415 . S
C4516 H4492 0.950 . S
C4516 C4511 1.363 . S
C4516 C4515 1.415 . S
C4517 H4493 0.951 . S
C4517 C4518 1.366 . S
C4517 C4519 1.388 . S
C4518 C4517 1.366 . S
C4518 C4522 1.385 . S
C4519 H4494 0.951 . S
C4519 C4517 1.388 . S
C4519 C4520 1.366 . S
C4520 C4519 1.366 . S
C4520 C4521 1.414 . S
C4520 C4523 1.499 . S
C4521 H4495 0.950 . S
C4521 C4520 1.414 . S
C4521 C4522 1.374 . S
C4522 H4496 0.950 . S
C4522 C4518 1.385 . S
C4522 C4521 1.374 . S
C4523 C4520 1.499 . S
C4523 C4524 1.373 . S
C4523 C4525 1.389 . S
C4524 H4497 0.950 . S
C4524 C4510 1.377 . S
C4524 C4523 1.373 . S
C4525 C4509 1.377 . S
C4525 C4523 1.389 . S
C4525 C4526 1.524 . S
C4526 C4525 1.524 . S
C4526 C4527 1.397 . S
C4526 C4531 1.363 . S
C4527 H4498 0.950 . S
C4527 C4526 1.397 . S
C4527 C4528 1.334 . S
C4528 H4499 0.950 . S
C4528 C4527 1.334 . S
C4528 C4529 1.287 . S
C4529 C4528 1.287 . S
C4529 C4530 1.524 . S
C4529 H4532 0.999 . S
C4530 H4500 0.950 . S
C4530 C4529 1.524 . S
C4530 C4531 1.415 . S
C4531 H4501 0.950 . S
C4531 C4526 1.363 . S
C4531 C4530 1.415 . S
H4532 C4529 0.999 . S
H4533 C4514 0.913 . S
H4534 C4552 0.951 . S
H4535 C4554 0.951 . S
H4536 C4556 0.950 . S
H4537 C4557 0.950 . S
H4538 C4559 0.950 . S
H4539 C4562 0.950 . S
H4540 C4563 0.950 . S
H4541 C4565 0.950 . S
H4542 C4566 0.950 . S
H4543 C4567 0.951 . S
H4544 C4569 0.951 . S
H4545 C4571 0.950 . S
H4546 C4572 0.950 . S
H4547 C4574 0.950 . S
H4548 C4577 0.950 . S
H4549 C4578 0.950 . S
H4550 C4580 0.950 . S
H4551 C4581 0.950 . S
C4552 H4534 0.951 . S
C4552 C4553 1.366 . S
C4552 C4554 1.388 . S
C4553 C4552 1.366 . S
C4553 C4557 1.385 . S
C4554 H4535 0.951 . S
C4554 C4552 1.388 . S
C4554 C4555 1.366 . S
C4555 C4554 1.366 . S
C4555 C4556 1.414 . S
C4555 C4558 1.499 . S
C4556 H4536 0.950 . S
C4556 C4555 1.414 . S
C4556 C4557 1.374 . S
C4557 H4537 0.950 . S
C4557 C4553 1.385 . S
C4557 C4556 1.374 . S
C4558 C4555 1.499 . S
C4558 C4559 1.373 . S
C4558 C4560 1.389 . S
C4559 H4538 0.950 . S
C4559 C4558 1.373 . S
C4559 C4575 1.377 . S
C4560 C4558 1.389 . S
C4560 C4561 1.524 . S
C4560 C4574 1.377 . S
C4561 C4560 1.524 . S
C4561 C4562 1.397 . S
C4561 C4566 1.363 . S
C4562 H4539 0.950 . S
C4562 C4561 1.397 . S
C4562 C4563 1.334 . S
C4563 H4540 0.950 . S
C4563 C4562 1.334 . S
C4563 C4564 1.287 . S
C4564 C4563 1.287 . S
C4564 C4565 1.524 . S
C4564 H4583 0.913 . S
C4565 H4541 0.950 . S
C4565 C4564 1.524 . S
C4565 C4566 1.415 . S
C4566 H4542 0.950 . S
C4566 C4561 1.363 . S
C4566 C4565 1.415 . S
C4567 H4543 0.951 . S
C4567 C4568 1.366 . S
C4567 C4569 1.388 . S
C4568 C4567 1.366 . S
C4568 C4572 1.385 . S
C4569 H4544 0.951 . S
C4569 C4567 1.388 . S
C4569 C4570 1.366 . S
C4570 C4569 1.366 . S
C4570 C4571 1.414 . S
C4570 C4573 1.499 . S
C4571 H4545 0.950 . S
C4571 C4570 1.414 . S
C4571 C4572 1.374 . S
C4572 H4546 0.950 . S
C4572 C4568 1.385 . S
C4572 C4571 1.374 . S
C4573 C4570 1.499 . S
C4573 C4574 1.373 . S
C4573 C4575 1.389 . S
C4574 H4547 0.950 . S
C4574 C4560 1.377 . S
C4574 C4573 1.373 . S
C4575 C4559 1.377 . S
C4575 C4573 1.389 . S
C4575 C4576 1.524 . S
C4576 C4575 1.524 . S
C4576 C4577 1.397 . S
C4576 C4581 1.363 . S
C4577 H4548 0.950 . S
C4577 C4576 1.397 . S
C4577 C4578 1.334 . S
C4578 H4549 0.950 . S
C4578 C4577 1.334 . S
C4578 C4579 1.287 . S
C4579 C4578 1.287 . S
C4579 C4580 1.524 . S
C4579 H4582 0.999 . S
C4580 H4550 0.950 . S
C4580 C4579 1.524 . S
C4580 C4581 1.415 . S
C4581 H4551 0.950 . S
C4581 C4576 1.363 . S
C4581 C4580 1.415 . S
H4582 C4579 0.999 . S
H4583 C4564 0.913 . S
H4584 C4602 0.951 . S
H4585 C4604 0.951 . S
H4586 C4606 0.950 . S
H4587 C4607 0.950 . S
H4588 C4609 0.950 . S
H4589 C4612 0.950 . S
H4590 C4613 0.950 . S
H4591 C4615 0.950 . S
H4592 C4616 0.950 . S
H4593 C4617 0.951 . S
H4594 C4619 0.951 . S
H4595 C4621 0.950 . S
H4596 C4622 0.950 . S
H4597 C4624 0.950 . S
H4598 C4627 0.950 . S
H4599 C4628 0.950 . S
H4600 C4630 0.950 . S
H4601 C4631 0.950 . S
C4602 H4584 0.951 . S
C4602 C4603 1.366 . S
C4602 C4604 1.388 . S
C4603 C4602 1.366 . S
C4603 C4607 1.385 . S
C4604 H4585 0.951 . S
C4604 C4602 1.388 . S
C4604 C4605 1.366 . S
C4605 C4604 1.366 . S
C4605 C4606 1.414 . S
C4605 C4608 1.499 . S
C4606 H4586 0.950 . S
C4606 C4605 1.414 . S
C4606 C4607 1.374 . S
C4607 H4587 0.950 . S
C4607 C4603 1.385 . S
C4607 C4606 1.374 . S
C4608 C4605 1.499 . S
C4608 C4609 1.373 . S
C4608 C4610 1.389 . S
C4609 H4588 0.950 . S
C4609 C4608 1.373 . S
C4609 C4625 1.377 . S
C4610 C4608 1.389 . S
C4610 C4611 1.524 . S
C4610 C4624 1.377 . S
C4611 C4610 1.524 . S
C4611 C4612 1.397 . S
C4611 C4616 1.363 . S
C4612 H4589 0.950 . S
C4612 C4611 1.397 . S
C4612 C4613 1.334 . S
C4613 H4590 0.950 . S
C4613 C4612 1.334 . S
C4613 C4614 1.287 . S
C4614 C4613 1.287 . S
C4614 C4615 1.524 . S
C4614 H4633 0.913 . S
C4615 H4591 0.950 . S
C4615 C4614 1.524 . S
C4615 C4616 1.415 . S
C4616 H4592 0.950 . S
C4616 C4611 1.363 . S
C4616 C4615 1.415 . S
C4617 H4593 0.951 . S
C4617 C4618 1.366 . S
C4617 C4619 1.388 . S
C4618 C4617 1.366 . S
C4618 C4622 1.385 . S
C4619 H4594 0.951 . S
C4619 C4617 1.388 . S
C4619 C4620 1.366 . S
C4620 C4619 1.366 . S
C4620 C4621 1.414 . S
C4620 C4623 1.499 . S
C4621 H4595 0.950 . S
C4621 C4620 1.414 . S
C4621 C4622 1.374 . S
C4622 H4596 0.950 . S
C4622 C4618 1.385 . S
C4622 C4621 1.374 . S
C4623 C4620 1.499 . S
C4623 C4624 1.373 . S
C4623 C4625 1.389 . S
C4624 H4597 0.950 . S
C4624 C4610 1.377 . S
C4624 C4623 1.373 . S
C4625 C4609 1.377 . S
C4625 C4623 1.389 . S
C4625 C4626 1.524 . S
C4626 C4625 1.524 . S
C4626 C4627 1.397 . S
C4626 C4631 1.363 . S
C4627 H4598 0.950 . S
C4627 C4626 1.397 . S
C4627 C4628 1.334 . S
C4628 H4599 0.950 . S
C4628 C4627 1.334 . S
C4628 C4629 1.287 . S
C4629 C4628 1.287 . S
C4629 C4630 1.524 . S
C4629 H4632 0.999 . S
C4630 H4600 0.950 . S
C4630 C4629 1.524 . S
C4630 C4631 1.415 . S
C4631 H4601 0.950 . S
C4631 C4626 1.363 . S
C4631 C4630 1.415 . S
H4632 C4629 0.999 . S
H4633 C4614 0.913 . S
H4634 C4652 0.951 . S
H4635 C4654 0.951 . S
H4636 C4656 0.950 . S
H4637 C4657 0.950 . S
H4638 C4659 0.950 . S
H4639 C4662 0.950 . S
H4640 C4663 0.950 . S
H4641 C4665 0.950 . S
H4642 C4666 0.950 . S
H4643 C4667 0.951 . S
H4644 C4669 0.951 . S
H4645 C4671 0.950 . S
H4646 C4672 0.950 . S
H4647 C4674 0.950 . S
H4648 C4677 0.950 . S
H4649 C4678 0.950 . S
H4650 C4680 0.950 . S
H4651 C4681 0.950 . S
C4652 H4634 0.951 . S
C4652 C4653 1.366 . S
C4652 C4654 1.388 . S
C4653 C4652 1.366 . S
C4653 C4657 1.385 . S
C4654 H4635 0.951 . S
C4654 C4652 1.388 . S
C4654 C4655 1.366 . S
C4655 C4654 1.366 . S
C4655 C4656 1.414 . S
C4655 C4658 1.499 . S
C4656 H4636 0.950 . S
C4656 C4655 1.414 . S
C4656 C4657 1.374 . S
C4657 H4637 0.950 . S
C4657 C4653 1.385 . S
C4657 C4656 1.374 . S
C4658 C4655 1.499 . S
C4658 C4659 1.373 . S
C4658 C4660 1.389 . S
C4659 H4638 0.950 . S
C4659 C4658 1.373 . S
C4659 C4675 1.377 . S
C4660 C4658 1.389 . S
C4660 C4661 1.524 . S
C4660 C4674 1.377 . S
C4661 C4660 1.524 . S
C4661 C4662 1.397 . S
C4661 C4666 1.363 . S
C4662 H4639 0.950 . S
C4662 C4661 1.397 . S
C4662 C4663 1.334 . S
C4663 H4640 0.950 . S
C4663 C4662 1.334 . S
C4663 C4664 1.287 . S
C4664 C4663 1.287 . S
C4664 C4665 1.524 . S
C4664 H4683 0.913 . S
C4665 H4641 0.950 . S
C4665 C4664 1.524 . S
C4665 C4666 1.415 . S
C4666 H4642 0.950 . S
C4666 C4661 1.363 . S
C4666 C4665 1.415 . S
C4667 H4643 0.951 . S
C4667 C4668 1.366 . S
C4667 C4669 1.388 . S
C4668 C4667 1.366 . S
C4668 C4672 1.385 . S
C4669 H4644 0.951 . S
C4669 C4667 1.388 . S
C4669 C4670 1.366 . S
C4670 C4669 1.366 . S
C4670 C4671 1.414 . S
C4670 C4673 1.499 . S
C4671 H4645 0.950 . S
C4671 C4670 1.414 . S
C4671 C4672 1.374 . S
C4672 H4646 0.950 . S
C4672 C4668 1.385 . S
C4672 C4671 1.374 . S
C4673 C4670 1.499 . S
C4673 C4674 1.373 . S
C4673 C4675 1.389 . S
C4674 H4647 0.950 . S
C4674 C4660 1.377 . S
C4674 C4673 1.373 . S
C4675 C4659 1.377 . S
C4675 C4673 1.389 . S
C4675 C4676 1.524 . S
C4676 C4675 1.524 . S
C4676 C4677 1.397 . S
C4676 C4681 1.363 . S
C4677 H4648 0.950 . S
C4677 C4676 1.397 . S
C4677 C4678 1.334 . S
C4678 H4649 0.950 . S
C4678 C4677 1.334 . S
C4678 C4679 1.287 . S
C4679 C4678 1.287 . S
C4679 C4680 1.524 . S
C4679 H4682 0.999 . S
C4680 H4650 0.950 . S
C4680 C4679 1.524 . S
C4680 C4681 1.415 . S
C4681 H4651 0.950 . S
C4681 C4676 1.363 . S
C4681 C4680 1.415 . S
H4682 C4679 0.999 . S
H4683 C4664 0.913 . S
H4684 C4702 0.951 . S
H4685 C4704 0.951 . S
H4686 C4706 0.950 . S
H4687 C4707 0.950 . S
H4688 C4709 0.950 . S
H4689 C4712 0.950 . S
H4690 C4713 0.950 . S
H4691 C4715 0.950 . S
H4692 C4716 0.950 . S
H4693 C4717 0.951 . S
H4694 C4719 0.951 . S
H4695 C4721 0.950 . S
H4696 C4722 0.950 . S
H4697 C4724 0.950 . S
H4698 C4727 0.950 . S
H4699 C4728 0.950 . S
H4700 C4730 0.950 . S
H4701 C4731 0.950 . S
C4702 H4684 0.951 . S
C4702 C4703 1.366 . S
C4702 C4704 1.388 . S
C4703 C4702 1.366 . S
C4703 C4707 1.385 . S
C4704 H4685 0.951 . S
C4704 C4702 1.388 . S
C4704 C4705 1.366 . S
C4705 C4704 1.366 . S
C4705 C4706 1.414 . S
C4705 C4708 1.499 . S
C4706 H4686 0.950 . S
C4706 C4705 1.414 . S
C4706 C4707 1.374 . S
C4707 H4687 0.950 . S
C4707 C4703 1.385 . S
C4707 C4706 1.374 . S
C4708 C4705 1.499 . S
C4708 C4709 1.373 . S
C4708 C4710 1.389 . S
C4709 H4688 0.950 . S
C4709 C4708 1.373 . S
C4709 C4725 1.377 . S
C4710 C4708 1.389 . S
C4710 C4711 1.524 . S
C4710 C4724 1.377 . S
C4711 C4710 1.524 . S
C4711 C4712 1.397 . S
C4711 C4716 1.363 . S
C4712 H4689 0.950 . S
C4712 C4711 1.397 . S
C4712 C4713 1.334 . S
C4713 H4690 0.950 . S
C4713 C4712 1.334 . S
C4713 C4714 1.287 . S
C4714 C4713 1.287 . S
C4714 C4715 1.524 . S
C4714 H4733 0.913 . S
C4715 H4691 0.950 . S
C4715 C4714 1.524 . S
C4715 C4716 1.415 . S
C4716 H4692 0.950 . S
C4716 C4711 1.363 . S
C4716 C4715 1.415 . S
C4717 H4693 0.951 . S
C4717 C4718 1.366 . S
C4717 C4719 1.388 . S
C4718 C4717 1.366 . S
C4718 C4722 1.385 . S
C4719 H4694 0.951 . S
C4719 C4717 1.388 . S
C4719 C4720 1.366 . S
C4720 C4719 1.366 . S
C4720 C4721 1.414 . S
C4720 C4723 1.499 . S
C4721 H4695 0.950 . S
C4721 C4720 1.414 . S
C4721 C4722 1.374 . S
C4722 H4696 0.950 . S
C4722 C4718 1.385 . S
C4722 C4721 1.374 . S
C4723 C4720 1.499 . S
C4723 C4724 1.373 . S
C4723 C4725 1.389 . S
C4724 H4697 0.950 . S
C4724 C4710 1.377 . S
C4724 C4723 1.373 . S
C4725 C4709 1.377 . S
C4725 C4723 1.389 . S
C4725 C4726 1.524 . S
C4726 C4725 1.524 . S
C4726 C4727 1.397 . S
C4726 C4731 1.363 . S
C4727 H4698 0.950 . S
C4727 C4726 1.397 . S
C4727 C4728 1.334 . S
C4728 H4699 0.950 . S
C4728 C4727 1.334 . S
C4728 C4729 1.287 . S
C4729 C4728 1.287 . S
C4729 C4730 1.524 . S
C4729 H4732 0.999 . S
C4730 H4700 0.950 . S
C4730 C4729 1.524 . S
C4730 C4731 1.415 . S
C4731 H4701 0.950 . S
C4731 C4726 1.363 . S
C4731 C4730 1.415 . S
H4732 C4729 0.999 . S
H4733 C4714 0.913 . S
H4734 C4752 0.951 . S
H4735 C4754 0.951 . S
H4736 C4756 0.950 . S
H4737 C4757 0.950 . S
H4738 C4759 0.950 . S
H4739 C4762 0.950 . S
H4740 C4763 0.950 . S
H4741 C4765 0.950 . S
H4742 C4766 0.950 . S
H4743 C4767 0.951 . S
H4744 C4769 0.951 . S
H4745 C4771 0.950 . S
H4746 C4772 0.950 . S
H4747 C4774 0.950 . S
H4748 C4777 0.950 . S
H4749 C4778 0.950 . S
H4750 C4780 0.950 . S
H4751 C4781 0.950 . S
C4752 H4734 0.951 . S
C4752 C4753 1.366 . S
C4752 C4754 1.388 . S
C4753 C4752 1.366 . S
C4753 C4757 1.385 . S
C4754 H4735 0.951 . S
C4754 C4752 1.388 . S
C4754 C4755 1.366 . S
C4755 C4754 1.366 . S
C4755 C4756 1.414 . S
C4755 C4758 1.499 . S
C4756 H4736 0.950 . S
C4756 C4755 1.414 . S
C4756 C4757 1.374 . S
C4757 H4737 0.950 . S
C4757 C4753 1.385 . S
C4757 C4756 1.374 . S
C4758 C4755 1.499 . S
C4758 C4759 1.373 . S
C4758 C4760 1.389 . S
C4759 H4738 0.950 . S
C4759 C4758 1.373 . S
C4759 C4775 1.377 . S
C4760 C4758 1.389 . S
C4760 C4761 1.524 . S
C4760 C4774 1.377 . S
C4761 C4760 1.524 . S
C4761 C4762 1.397 . S
C4761 C4766 1.363 . S
C4762 H4739 0.950 . S
C4762 C4761 1.397 . S
C4762 C4763 1.334 . S
C4763 H4740 0.950 . S
C4763 C4762 1.334 . S
C4763 C4764 1.287 . S
C4764 C4763 1.287 . S
C4764 C4765 1.524 . S
C4764 H4783 0.913 . S
C4765 H4741 0.950 . S
C4765 C4764 1.524 . S
C4765 C4766 1.415 . S
C4766 H4742 0.950 . S
C4766 C4761 1.363 . S
C4766 C4765 1.415 . S
C4767 H4743 0.951 . S
C4767 C4768 1.366 . S
C4767 C4769 1.388 . S
C4768 C4767 1.366 . S
C4768 C4772 1.385 . S
C4769 H4744 0.951 . S
C4769 C4767 1.388 . S
C4769 C4770 1.366 . S
C4770 C4769 1.366 . S
C4770 C4771 1.414 . S
C4770 C4773 1.499 . S
C4771 H4745 0.950 . S
C4771 C4770 1.414 . S
C4771 C4772 1.374 . S
C4772 H4746 0.950 . S
C4772 C4768 1.385 . S
C4772 C4771 1.374 . S
C4773 C4770 1.499 . S
C4773 C4774 1.373 . S
C4773 C4775 1.389 . S
C4774 H4747 0.950 . S
C4774 C4760 1.377 . S
C4774 C4773 1.373 . S
C4775 C4759 1.377 . S
C4775 C4773 1.389 . S
C4775 C4776 1.524 . S
C4776 C4775 1.524 . S
C4776 C4777 1.397 . S
C4776 C4781 1.363 . S
C4777 H4748 0.950 . S
C4777 C4776 1.397 . S
C4777 C4778 1.334 . S
C4778 H4749 0.950 . S
C4778 C4777 1.334 . S
C4778 C4779 1.287 . S
C4779 C4778 1.287 . S
C4779 C4780 1.524 . S
C4779 H4782 0.999 . S
C4780 H4750 0.950 . S
C4780 C4779 1.524 . S
C4780 C4781 1.415 . S
C4781 H4751 0.950 . S
C4781 C4776 1.363 . S
C4781 C4780 1.415 . S
H4782 C4779 0.999 . S
H4783 C4764 0.913 . S
H4784 C4802 0.951 . S
H4785 C4804 0.951 . S
H4786 C4806 0.950 . S
H4787 C4807 0.950 . S
H4788 C4809 0.950 . S
H4789 C4812 0.950 . S
H4790 C4813 0.950 . S
H4791 C4815 0.950 . S
H4792 C4816 0.950 . S
H4793 C4817 0.951 . S
H4794 C4819 0.951 . S
H4795 C4821 0.950 . S
H4796 C4822 0.950 . S
H4797 C4824 0.950 . S
H4798 C4827 0.950 . S
H4799 C4828 0.950 . S
H4800 C4830 0.950 . S
H4801 C4831 0.950 . S
C4802 H4784 0.951 . S
C4802 C4803 1.366 . S
C4802 C4804 1.388 . S
C4803 C4802 1.366 . S
C4803 C4807 1.385 . S
C4804 H4785 0.951 . S
C4804 C4802 1.388 . S
C4804 C4805 1.366 . S
C4805 C4804 1.366 . S
C4805 C4806 1.414 . S
C4805 C4808 1.499 . S
C4806 H4786 0.950 . S
C4806 C4805 1.414 . S
C4806 C4807 1.374 . S
C4807 H4787 0.950 . S
C4807 C4803 1.385 . S
C4807 C4806 1.374 . S
C4808 C4805 1.499 . S
C4808 C4809 1.373 . S
C4808 C4810 1.389 . S
C4809 H4788 0.950 . S
C4809 C4808 1.373 . S
C4809 C4825 1.377 . S
C4810 C4808 1.389 . S
C4810 C4811 1.524 . S
C4810 C4824 1.377 . S
C4811 C4810 1.524 . S
C4811 C4812 1.397 . S
C4811 C4816 1.363 . S
C4812 H4789 0.950 . S
C4812 C4811 1.397 . S
C4812 C4813 1.334 . S
C4813 H4790 0.950 . S
C4813 C4812 1.334 . S
C4813 C4814 1.287 . S
C4814 C4813 1.287 . S
C4814 C4815 1.524 . S
C4814 H4833 0.913 . S
C4815 H4791 0.950 . S
C4815 C4814 1.524 . S
C4815 C4816 1.415 . S
C4816 H4792 0.950 . S
C4816 C4811 1.363 . S
C4816 C4815 1.415 . S
C4817 H4793 0.951 . S
C4817 C4818 1.366 . S
C4817 C4819 1.388 . S
C4818 C4817 1.366 . S
C4818 C4822 1.385 . S
C4819 H4794 0.951 . S
C4819 C4817 1.388 . S
C4819 C4820 1.366 . S
C4820 C4819 1.366 . S
C4820 C4821 1.414 . S
C4820 C4823 1.499 . S
C4821 H4795 0.950 . S
C4821 C4820 1.414 . S
C4821 C4822 1.374 . S
C4822 H4796 0.950 . S
C4822 C4818 1.385 . S
C4822 C4821 1.374 . S
C4823 C4820 1.499 . S
C4823 C4824 1.373 . S
C4823 C4825 1.389 . S
C4824 H4797 0.950 . S
C4824 C4810 1.377 . S
C4824 C4823 1.373 . S
C4825 C4809 1.377 . S
C4825 C4823 1.389 . S
C4825 C4826 1.524 . S
C4826 C4825 1.524 . S
C4826 C4827 1.397 . S
C4826 C4831 1.363 . S
C4827 H4798 0.950 . S
C4827 C4826 1.397 . S
C4827 C4828 1.334 . S
C4828 H4799 0.950 . S
C4828 C4827 1.334 . S
C4828 C4829 1.287 . S
C4829 C4828 1.287 . S
C4829 C4830 1.524 . S
C4829 H4832 0.999 . S
C4830 H4800 0.950 . S
C4830 C4829 1.524 . S
C4830 C4831 1.415 . S
C4831 H4801 0.950 . S
C4831 C4826 1.363 . S
C4831 C4830 1.415 . S
H4832 C4829 0.999 . S
H4833 C4814 0.913 . S
H4834 C4852 0.951 . S
H4835 C4854 0.951 . S
H4836 C4856 0.950 . S
H4837 C4857 0.950 . S
H4838 C4859 0.950 . S
H4839 C4862 0.950 . S
H4840 C4863 0.950 . S
H4841 C4865 0.950 . S
H4842 C4866 0.950 . S
H4843 C4867 0.951 . S
H4844 C4869 0.951 . S
H4845 C4871 0.950 . S
H4846 C4872 0.950 . S
H4847 C4874 0.950 . S
H4848 C4877 0.950 . S
H4849 C4878 0.950 . S
H4850 C4880 0.950 . S
H4851 C4881 0.950 . S
C4852 H4834 0.951 . S
C4852 C4853 1.366 . S
C4852 C4854 1.388 . S
C4853 C4852 1.366 . S
C4853 C4857 1.385 . S
C4854 H4835 0.951 . S
C4854 C4852 1.388 . S
C4854 C4855 1.366 . S
C4855 C4854 1.366 . S
C4855 C4856 1.414 . S
C4855 C4858 1.499 . S
C4856 H4836 0.950 . S
C4856 C4855 1.414 . S
C4856 C4857 1.374 . S
C4857 H4837 0.950 . S
C4857 C4853 1.385 . S
C4857 C4856 1.374 . S
C4858 C4855 1.499 . S
C4858 C4859 1.373 . S
C4858 C4860 1.389 . S
C4859 H4838 0.950 . S
C4859 C4858 1.373 . S
C4859 C4875 1.377 . S
C4860 C4858 1.389 . S
C4860 C4861 1.524 . S
C4860 C4874 1.377 . S
C4861 C4860 1.524 . S
C4861 C4862 1.397 . S
C4861 C4866 1.363 . S
C4862 H4839 0.950 . S
C4862 C4861 1.397 . S
C4862 C4863 1.334 . S
C4863 H4840 0.950 . S
C4863 C4862 1.334 . S
C4863 C4864 1.287 . S
C4864 C4863 1.287 . S
C4864 C4865 1.524 . S
C4864 H4883 0.913 . S
C4865 H4841 0.950 . S
C4865 C4864 1.524 . S
C4865 C4866 1.415 . S
C4866 H4842 0.950 . S
C4866 C4861 1.363 . S
C4866 C4865 1.415 . S
C4867 H4843 0.951 . S
C4867 C4868 1.366 . S
C4867 C4869 1.388 . S
C4868 C4867 1.366 . S
C4868 C4872 1.385 . S
C4869 H4844 0.951 . S
C4869 C4867 1.388 . S
C4869 C4870 1.366 . S
C4870 C4869 1.366 . S
C4870 C4871 1.414 . S
C4870 C4873 1.499 . S
C4871 H4845 0.950 . S
C4871 C4870 1.414 . S
C4871 C4872 1.374 . S
C4872 H4846 0.950 . S
C4872 C4868 1.385 . S
C4872 C4871 1.374 . S
C4873 C4870 1.499 . S
C4873 C4874 1.373 . S
C4873 C4875 1.389 . S
C4874 H4847 0.950 . S
C4874 C4860 1.377 . S
C4874 C4873 1.373 . S
C4875 C4859 1.377 . S
C4875 C4873 1.389 . S
C4875 C4876 1.524 . S
C4876 C4875 1.524 . S
C4876 C4877 1.397 . S
C4876 C4881 1.363 . S
C4877 H4848 0.950 . S
C4877 C4876 1.397 . S
C4877 C4878 1.334 . S
C4878 H4849 0.950 . S
C4878 C4877 1.334 . S
C4878 C4879 1.287 . S
C4879 C4878 1.287 . S
C4879 C4880 1.524 . S
C4879 H4882 0.999 . S
C4880 H4850 0.950 . S
C4880 C4879 1.524 . S
C4880 C4881 1.415 . S
C4881 H4851 0.950 . S
C4881 C4876 1.363 . S
C4881 C4880 1.415 . S
H4882 C4879 0.999 . S
H4883 C4864 0.913 . S
H4884 C4902 0.951 . S
H4885 C4904 0.951 . S
H4886 C4906 0.950 . S
H4887 C4907 0.950 . S
H4888 C4909 0.950 . S
H4889 C4912 0.950 . S
H4890 C4913 0.950 . S
H4891 C4915 0.950 . S
H4892 C4916 0.950 . S
H4893 C4917 0.951 . S
H4894 C4919 0.951 . S
H4895 C4921 0.950 . S
H4896 C4922 0.950 . S
H4897 C4924 0.950 . S
H4898 C4927 0.950 . S
H4899 C4928 0.950 . S
H4900 C4930 0.950 . S
H4901 C4931 0.950 . S
C4902 H4884 0.951 . S
C4902 C4903 1.366 . S
C4902 C4904 1.388 . S
C4903 C4902 1.366 . S
C4903 C4907 1.385 . S
C4904 H4885 0.951 . S
C4904 C4902 1.388 . S
C4904 C4905 1.366 . S
C4905 C4904 1.366 . S
C4905 C4906 1.414 . S
C4905 C4908 1.499 . S
C4906 H4886 0.950 . S
C4906 C4905 1.414 . S
C4906 C4907 1.374 . S
C4907 H4887 0.950 . S
C4907 C4903 1.385 . S
C4907 C4906 1.374 . S
C4908 C4905 1.499 . S
C4908 C4909 1.373 . S
C4908 C4910 1.389 . S
C4909 H4888 0.950 . S
C4909 C4908 1.373 . S
C4909 C4925 1.377 . S
C4910 C4908 1.389 . S
C4910 C4911 1.524 . S
C4910 C4924 1.377 . S
C4911 C4910 1.524 . S
C4911 C4912 1.397 . S
C4911 C4916 1.363 . S
C4912 H4889 0.950 . S
C4912 C4911 1.397 . S
C4912 C4913 1.334 . S
C4913 H4890 0.950 . S
C4913 C4912 1.334 . S
C4913 C4914 1.287 . S
C4914 C4913 1.287 . S
C4914 C4915 1.524 . S
C4914 H4933 0.913 . S
C4915 H4891 0.950 . S
C4915 C4914 1.524 . S
C4915 C4916 1.415 . S
C4916 H4892 0.950 . S
C4916 C4911 1.363 . S
C4916 C4915 1.415 . S
C4917 H4893 0.951 . S
C4917 C4918 1.366 . S
C4917 C4919 1.388 . S
C4918 C4917 1.366 . S
C4918 C4922 1.385 . S
C4919 H4894 0.951 . S
C4919 C4917 1.388 . S
C4919 C4920 1.366 . S
C4920 C4919 1.366 . S
C4920 C4921 1.414 . S
C4920 C4923 1.499 . S
C4921 H4895 0.950 . S
C4921 C4920 1.414 . S
C4921 C4922 1.374 . S
C4922 H4896 0.950 . S
C4922 C4918 1.385 . S
C4922 C4921 1.374 . S
C4923 C4920 1.499 . S
C4923 C4924 1.373 . S
C4923 C4925 1.389 . S
C4924 H4897 0.950 . S
C4924 C4910 1.377 . S
C4924 C4923 1.373 . S
C4925 C4909 1.377 . S
C4925 C4923 1.389 . S
C4925 C4926 1.524 . S
C4926 C4925 1.524 . S
C4926 C4927 1.397 . S
C4926 C4931 1.363 . S
C4927 H4898 0.950 . S
C4927 C4926 1.397 . S
C4927 C4928 1.334 . S
C4928 H4899 0.950 . S
C4928 C4927 1.334 . S
C4928 C4929 1.287 . S
C4929 C4928 1.287 . S
C4929 C4930 1.524 . S
C4929 H4932 0.999 . S
C4930 H4900 0.950 . S
C4930 C4929 1.524 . S
C4930 C4931 1.415 . S
C4931 H4901 0.950 . S
C4931 C4926 1.363 . S
C4931 C4930 1.415 . S
H4932 C4929 0.999 . S
H4933 C4914 0.913 . S
H4934 C4952 0.951 . S
H4935 C4954 0.951 . S
H4936 C4956 0.950 . S
H4937 C4957 0.950 . S
H4938 C4959 0.950 . S
H4939 C4962 0.950 . S
H4940 C4963 0.950 . S
H4941 C4965 0.950 . S
H4942 C4966 0.950 . S
H4943 C4967 0.951 . S
H4944 C4969 0.951 . S
H4945 C4971 0.950 . S
H4946 C4972 0.950 . S
H4947 C4974 0.950 . S
H4948 C4977 0.950 . S
H4949 C4978 0.950 . S
H4950 C4980 0.950 . S
H4951 C4981 0.950 . S
C4952 H4934 0.951 . S
C4952 C4953 1.366 . S
C4952 C4954 1.388 . S
C4953 C4952 1.366 . S
C4953 C4957 1.385 . S
C4954 H4935 0.951 . S
C4954 C4952 1.388 . S
C4954 C4955 1.366 . S
C4955 C4954 1.366 . S
C4955 C4956 1.414 . S
C4955 C4958 1.499 . S
C4956 H4936 0.950 . S
C4956 C4955 1.414 . S
C4956 C4957 1.374 . S
C4957 H4937 0.950 . S
C4957 C4953 1.385 . S
C4957 C4956 1.374 . S
C4958 C4955 1.499 . S
C4958 C4959 1.373 . S
C4958 C4960 1.389 . S
C4959 H4938 0.950 . S
C4959 C4958 1.373 . S
C4959 C4975 1.377 . S
C4960 C4958 1.389 . S
C4960 C4961 1.524 . S
C4960 C4974 1.377 . S
C4961 C4960 1.524 . S
C4961 C4962 1.397 . S
C4961 C4966 1.363 . S
C4962 H4939 0.950 . S
C4962 C4961 1.397 . S
C4962 C4963 1.334 . S
C4963 H4940 0.950 . S
C4963 C4962 1.334 . S
C4963 C4964 1.287 . S
C4964 C4963 1.287 . S
C4964 C4965 1.524 . S
C4964 H4983 0.913 . S
C4965 H4941 0.950 . S
C4965 C4964 1.524 . S
C4965 C4966 1.415 . S
C4966 H4942 0.950 . S
C4966 C4961 1.363 . S
C4966 C4965 1.415 . S
C4967 H4943 0.951 . S
C4967 C4968 1.366 . S
C4967 C4969 1.388 . S
C4968 C4967 1.366 . S
C4968 C4972 1.385 . S
C4969 H4944 0.951 . S
C4969 C4967 1.388 . S
C4969 C4970 1.366 . S
C4970 C4969 1.366 . S
C4970 C4971 1.414 . S
C4970 C4973 1.499 . S
C4971 H4945 0.950 . S
C4971 C4970 1.414 . S
C4971 C4972 1.374 . S
C4972 H4946 0.950 . S
C4972 C4968 1.385 . S
C4972 C4971 1.374 . S
C4973 C4970 1.499 . S
C4973 C4974 1.373 . S
C4973 C4975 1.389 . S
C4974 H4947 0.950 . S
C4974 C4960 1.377 . S
C4974 C4973 1.373 . S
C4975 C4959 1.377 . S
C4975 C4973 1.389 . S
C4975 C4976 1.524 . S
C4976 C4975 1.524 . S
C4976 C4977 1.397 . S
C4976 C4981 1.363 . S
C4977 H4948 0.950 . S
C4977 C4976 1.397 . S
C4977 C4978 1.334 . S
C4978 H4949 0.950 . S
C4978 C4977 1.334 . S
C4978 C4979 1.287 . S
C4979 C4978 1.287 . S
C4979 C4980 1.524 . S
C4979 H4982 0.999 . S
C4980 H4950 0.950 . S
C4980 C4979 1.524 . S
C4980 C4981 1.415 . S
C4981 H4951 0.950 . S
C4981 C4976 1.363 . S
C4981 C4980 1.415 . S
H4982 C4979 0.999 . S
H4983 C4964 0.913 . S
H4984 C5002 0.951 . S
H4985 C5004 0.951 . S
H4986 C5006 0.950 . S
H4987 C5007 0.950 . S
H4988 C5009 0.950 . S
H4989 C5012 0.950 . S
H4990 C5013 0.950 . S
H4991 C5015 0.950 . S
H4992 C5016 0.950 . S
H4993 C5017 0.951 . S
H4994 C5019 0.951 . S
H4995 C5021 0.950 . S
H4996 C5022 0.950 . S
H4997 C5024 0.950 . S
H4998 C5027 0.950 . S
H4999 C5028 0.950 . S
H5000 C5030 0.950 . S
H5001 C5031 0.950 . S
C5002 H4984 0.951 . S
C5002 C5003 1.366 . S
C5002 C5004 1.388 . S
C5003 C5002 1.366 . S
C5003 C5007 1.385 . S
C5004 H4985 0.951 . S
C5004 C5002 1.388 . S
C5004 C5005 1.366 . S
C5005 C5004 1.366 . S
C5005 C5006 1.414 . S
C5005 C5008 1.499 . S
C5006 H4986 0.950 . S
C5006 C5005 1.414 . S
C5006 C5007 1.374 . S
C5007 H4987 0.950 . S
C5007 C5003 1.385 . S
C5007 C5006 1.374 . S
C5008 C5005 1.499 . S
C5008 C5009 1.373 . S
C5008 C5010 1.389 . S
C5009 H4988 0.950 . S
C5009 C5008 1.373 . S
C5009 C5025 1.377 . S
C5010 C5008 1.389 . S
C5010 C5011 1.524 . S
C5010 C5024 1.377 . S
C5011 C5010 1.524 . S
C5011 C5012 1.397 . S
C5011 C5016 1.363 . S
C5012 H4989 0.950 . S
C5012 C5011 1.397 . S
C5012 C5013 1.334 . S
C5013 H4990 0.950 . S
C5013 C5012 1.334 . S
C5013 C5014 1.287 . S
C5014 C5013 1.287 . S
C5014 C5015 1.524 . S
C5014 H5033 0.913 . S
C5015 H4991 0.950 . S
C5015 C5014 1.524 . S
C5015 C5016 1.415 . S
C5016 H4992 0.950 . S
C5016 C5011 1.363 . S
C5016 C5015 1.415 . S
C5017 H4993 0.951 . S
C5017 C5018 1.366 . S
C5017 C5019 1.388 . S
C5018 C5017 1.366 . S
C5018 C5022 1.385 . S
C5019 H4994 0.951 . S
C5019 C5017 1.388 . S
C5019 C5020 1.366 . S
C5020 C5019 1.366 . S
C5020 C5021 1.414 . S
C5020 C5023 1.499 . S
C5021 H4995 0.950 . S
C5021 C5020 1.414 . S
C5021 C5022 1.374 . S
C5022 H4996 0.950 . S
C5022 C5018 1.385 . S
C5022 C5021 1.374 . S
C5023 C5020 1.499 . S
C5023 C5024 1.373 . S
C5023 C5025 1.389 . S
C5024 H4997 0.950 . S
C5024 C5010 1.377 . S
C5024 C5023 1.373 . S
C5025 C5009 1.377 . S
C5025 C5023 1.389 . S
C5025 C5026 1.524 . S
C5026 C5025 1.524 . S
C5026 C5027 1.397 . S
C5026 C5031 1.363 . S
C5027 H4998 0.950 . S
C5027 C5026 1.397 . S
C5027 C5028 1.334 . S
C5028 H4999 0.950 . S
C5028 C5027 1.334 . S
C5028 C5029 1.287 . S
C5029 C5028 1.287 . S
C5029 C5030 1.524 . S
C5029 H5032 0.999 . S
C5030 H5000 0.950 . S
C5030 C5029 1.524 . S
C5030 C5031 1.415 . S
C5031 H5001 0.950 . S
C5031 C5026 1.363 . S
C5031 C5030 1.415 . S
H5032 C5029 0.999 . S
H5033 C5014 0.913 . S
H5034 C5052 0.951 . S
H5035 C5054 0.951 . S
H5036 C5056 0.950 . S
H5037 C5057 0.950 . S
H5038 C5059 0.950 . S
H5039 C5062 0.950 . S
H5040 C5063 0.950 . S
H5041 C5065 0.950 . S
H5042 C5066 0.950 . S
H5043 C5067 0.951 . S
H5044 C5069 0.951 . S
H5045 C5071 0.950 . S
H5046 C5072 0.950 . S
H5047 C5074 0.950 . S
H5048 C5077 0.950 . S
H5049 C5078 0.950 . S
H5050 C5080 0.950 . S
H5051 C5081 0.950 . S
C5052 H5034 0.951 . S
C5052 C5053 1.366 . S
C5052 C5054 1.388 . S
C5053 C5052 1.366 . S
C5053 C5057 1.385 . S
C5054 H5035 0.951 . S
C5054 C5052 1.388 . S
C5054 C5055 1.366 . S
C5055 C5054 1.366 . S
C5055 C5056 1.414 . S
C5055 C5058 1.499 . S
C5056 H5036 0.950 . S
C5056 C5055 1.414 . S
C5056 C5057 1.374 . S
C5057 H5037 0.950 . S
C5057 C5053 1.385 . S
C5057 C5056 1.374 . S
C5058 C5055 1.499 . S
C5058 C5059 1.373 . S
C5058 C5060 1.389 . S
C5059 H5038 0.950 . S
C5059 C5058 1.373 . S
C5059 C5075 1.377 . S
C5060 C5058 1.389 . S
C5060 C5061 1.524 . S
C5060 C5074 1.377 . S
C5061 C5060 1.524 . S
C5061 C5062 1.397 . S
C5061 C5066 1.363 . S
C5062 H5039 0.950 . S
C5062 C5061 1.397 . S
C5062 C5063 1.334 . S
C5063 H5040 0.950 . S
C5063 C5062 1.334 . S
C5063 C5064 1.287 . S
C5064 C5063 1.287 . S
C5064 C5065 1.524 . S
C5064 H5083 0.913 . S
C5065 H5041 0.950 . S
C5065 C5064 1.524 . S
C5065 C5066 1.415 . S
C5066 H5042 0.950 . S
C5066 C5061 1.363 . S
C5066 C5065 1.415 . S
C5067 H5043 0.951 . S
C5067 C5068 1.366 . S
C5067 C5069 1.388 . S
C5068 C5067 1.366 . S
C5068 C5072 1.385 . S
C5069 H5044 0.951 . S
C5069 C5067 1.388 . S
C5069 C5070 1.366 . S
C5070 C5069 1.366 . S
C5070 C5071 1.414 . S
C5070 C5073 1.499 . S
C5071 H5045 0.950 . S
C5071 C5070 1.414 . S
C5071 C5072 1.374 . S
C5072 H5046 0.950 . S
C5072 C5068 1.385 . S
C5072 C5071 1.374 . S
C5073 C5070 1.499 . S
C5073 C5074 1.373 . S
C5073 C5075 1.389 . S
C5074 H5047 0.950 . S
C5074 C5060 1.377 . S
C5074 C5073 1.373 . S
C5075 C5059 1.377 . S
C5075 C5073 1.389 . S
C5075 C5076 1.524 . S
C5076 C5075 1.524 . S
C5076 C5077 1.397 . S
C5076 C5081 1.363 . S
C5077 H5048 0.950 . S
C5077 C5076 1.397 . S
C5077 C5078 1.334 . S
C5078 H5049 0.950 . S
C5078 C5077 1.334 . S
C5078 C5079 1.287 . S
C5079 C5078 1.287 . S
C5079 C5080 1.524 . S
C5079 H5082 0.999 . S
C5080 H5050 0.950 . S
C5080 C5079 1.524 . S
C5080 C5081 1.415 . S
C5081 H5051 0.950 . S
C5081 C5076 1.363 . S
C5081 C5080 1.415 . S
H5082 C5079 0.999 . S
H5083 C5064 0.913 . S
H5084 C5102 0.951 . S
H5085 C5104 0.951 . S
H5086 C5106 0.950 . S
H5087 C5107 0.950 . S
H5088 C5109 0.950 . S
H5089 C5112 0.950 . S
H5090 C5113 0.950 . S
H5091 C5115 0.950 . S
H5092 C5116 0.950 . S
H5093 C5117 0.951 . S
H5094 C5119 0.951 . S
H5095 C5121 0.950 . S
H5096 C5122 0.950 . S
H5097 C5124 0.950 . S
H5098 C5127 0.950 . S
H5099 C5128 0.950 . S
H5100 C5130 0.950 . S
H5101 C5131 0.950 . S
C5102 H5084 0.951 . S
C5102 C5103 1.366 . S
C5102 C5104 1.388 . S
C5103 C5102 1.366 . S
C5103 C5107 1.385 . S
C5104 H5085 0.951 . S
C5104 C5102 1.388 . S
C5104 C5105 1.366 . S
C5105 C5104 1.366 . S
C5105 C5106 1.414 . S
C5105 C5108 1.499 . S
C5106 H5086 0.950 . S
C5106 C5105 1.414 . S
C5106 C5107 1.374 . S
C5107 H5087 0.950 . S
C5107 C5103 1.385 . S
C5107 C5106 1.374 . S
C5108 C5105 1.499 . S
C5108 C5109 1.373 . S
C5108 C5110 1.389 . S
C5109 H5088 0.950 . S
C5109 C5108 1.373 . S
C5109 C5125 1.377 . S
C5110 C5108 1.389 . S
C5110 C5111 1.524 . S
C5110 C5124 1.377 . S
C5111 C5110 1.524 . S
C5111 C5112 1.397 . S
C5111 C5116 1.363 . S
C5112 H5089 0.950 . S
C5112 C5111 1.397 . S
C5112 C5113 1.334 . S
C5113 H5090 0.950 . S
C5113 C5112 1.334 . S
C5113 C5114 1.287 . S
C5114 C5113 1.287 . S
C5114 C5115 1.524 . S
C5114 H5133 0.913 . S
C5115 H5091 0.950 . S
C5115 C5114 1.524 . S
C5115 C5116 1.415 . S
C5116 H5092 0.950 . S
C5116 C5111 1.363 . S
C5116 C5115 1.415 . S
C5117 H5093 0.951 . S
C5117 C5118 1.366 . S
C5117 C5119 1.388 . S
C5118 C5117 1.366 . S
C5118 C5122 1.385 . S
C5119 H5094 0.951 . S
C5119 C5117 1.388 . S
C5119 C5120 1.366 . S
C5120 C5119 1.366 . S
C5120 C5121 1.414 . S
C5120 C5123 1.499 . S
C5121 H5095 0.950 . S
C5121 C5120 1.414 . S
C5121 C5122 1.374 . S
C5122 H5096 0.950 . S
C5122 C5118 1.385 . S
C5122 C5121 1.374 . S
C5123 C5120 1.499 . S
C5123 C5124 1.373 . S
C5123 C5125 1.389 . S
C5124 H5097 0.950 . S
C5124 C5110 1.377 . S
C5124 C5123 1.373 . S
C5125 C5109 1.377 . S
C5125 C5123 1.389 . S
C5125 C5126 1.524 . S
C5126 C5125 1.524 . S
C5126 C5127 1.397 . S
C5126 C5131 1.363 . S
C5127 H5098 0.950 . S
C5127 C5126 1.397 . S
C5127 C5128 1.334 . S
C5128 H5099 0.950 . S
C5128 C5127 1.334 . S
C5128 C5129 1.287 . S
C5129 C5128 1.287 . S
C5129 C5130 1.524 . S
C5129 H5132 0.999 . S
C5130 H5100 0.950 . S
C5130 C5129 1.524 . S
C5130 C5131 1.415 . S
C5131 H5101 0.950 . S
C5131 C5126 1.363 . S
C5131 C5130 1.415 . S
H5132 C5129 0.999 . S
H5133 C5114 0.913 . S
H5134 C5152 0.951 . S
H5135 C5154 0.951 . S
H5136 C5156 0.950 . S
H5137 C5157 0.950 . S
H5138 C5159 0.950 . S
H5139 C5162 0.950 . S
H5140 C5163 0.950 . S
H5141 C5165 0.950 . S
H5142 C5166 0.950 . S
H5143 C5167 0.951 . S
H5144 C5169 0.951 . S
H5145 C5171 0.950 . S
H5146 C5172 0.950 . S
H5147 C5174 0.950 . S
H5148 C5177 0.950 . S
H5149 C5178 0.950 . S
H5150 C5180 0.950 . S
H5151 C5181 0.950 . S
C5152 H5134 0.951 . S
C5152 C5153 1.366 . S
C5152 C5154 1.388 . S
C5153 C5152 1.366 . S
C5153 C5157 1.385 . S
C5154 H5135 0.951 . S
C5154 C5152 1.388 . S
C5154 C5155 1.366 . S
C5155 C5154 1.366 . S
C5155 C5156 1.414 . S
C5155 C5158 1.499 . S
C5156 H5136 0.950 . S
C5156 C5155 1.414 . S
C5156 C5157 1.374 . S
C5157 H5137 0.950 . S
C5157 C5153 1.385 . S
C5157 C5156 1.374 . S
C5158 C5155 1.499 . S
C5158 C5159 1.373 . S
C5158 C5160 1.389 . S
C5159 H5138 0.950 . S
C5159 C5158 1.373 . S
C5159 C5175 1.377 . S
C5160 C5158 1.389 . S
C5160 C5161 1.524 . S
C5160 C5174 1.377 . S
C5161 C5160 1.524 . S
C5161 C5162 1.397 . S
C5161 C5166 1.363 . S
C5162 H5139 0.950 . S
C5162 C5161 1.397 . S
C5162 C5163 1.334 . S
C5163 H5140 0.950 . S
C5163 C5162 1.334 . S
C5163 C5164 1.287 . S
C5164 C5163 1.287 . S
C5164 C5165 1.524 . S
C5164 H5183 0.913 . S
C5165 H5141 0.950 . S
C5165 C5164 1.524 . S
C5165 C5166 1.415 . S
C5166 H5142 0.950 . S
C5166 C5161 1.363 . S
C5166 C5165 1.415 . S
C5167 H5143 0.951 . S
C5167 C5168 1.366 . S
C5167 C5169 1.388 . S
C5168 C5167 1.366 . S
C5168 C5172 1.385 . S
C5169 H5144 0.951 . S
C5169 C5167 1.388 . S
C5169 C5170 1.366 . S
C5170 C5169 1.366 . S
C5170 C5171 1.414 . S
C5170 C5173 1.499 . S
C5171 H5145 0.950 . S
C5171 C5170 1.414 . S
C5171 C5172 1.374 . S
C5172 H5146 0.950 . S
C5172 C5168 1.385 . S
C5172 C5171 1.374 . S
C5173 C5170 1.499 . S
C5173 C5174 1.373 . S
C5173 C5175 1.389 . S
C5174 H5147 0.950 . S
C5174 C5160 1.377 . S
C5174 C5173 1.373 . S
C5175 C5159 1.377 . S
C5175 C5173 1.389 . S
C5175 C5176 1.524 . S
C5176 C5175 1.524 . S
C5176 C5177 1.397 . S
C5176 C5181 1.363 . S
C5177 H5148 0.950 . S
C5177 C5176 1.397 . S
C5177 C5178 1.334 . S
C5178 H5149 0.950 . S
C5178 C5177 1.334 . S
C5178 C5179 1.287 . S
C5179 C5178 1.287 . S
C5179 C5180 1.524 . S
C5179 H5182 0.999 . S
C5180 H5150 0.950 . S
C5180 C5179 1.524 . S
C5180 C5181 1.415 . S
C5181 H5151 0.950 . S
C5181 C5176 1.363 . S
C5181 C5180 1.415 . S
H5182 C5179 0.999 . S
H5183 C5164 0.913 . S
H5184 C5202 0.951 . S
H5185 C5204 0.951 . S
H5186 C5206 0.950 . S
H5187 C5207 0.950 . S
H5188 C5209 0.950 . S
H5189 C5212 0.950 . S
H5190 C5213 0.950 . S
H5191 C5215 0.950 . S
H5192 C5216 0.950 . S
H5193 C5217 0.951 . S
H5194 C5219 0.951 . S
H5195 C5221 0.950 . S
H5196 C5222 0.950 . S
H5197 C5224 0.950 . S
H5198 C5227 0.950 . S
H5199 C5228 0.950 . S
H5200 C5230 0.950 . S
H5201 C5231 0.950 . S
C5202 H5184 0.951 . S
C5202 C5203 1.366 . S
C5202 C5204 1.388 . S
C5203 C5202 1.366 . S
C5203 C5207 1.385 . S
C5204 H5185 0.951 . S
C5204 C5202 1.388 . S
C5204 C5205 1.366 . S
C5205 C5204 1.366 . S
C5205 C5206 1.414 . S
C5205 C5208 1.499 . S
C5206 H5186 0.950 . S
C5206 C5205 1.414 . S
C5206 C5207 1.374 . S
C5207 H5187 0.950 . S
C5207 C5203 1.385 . S
C5207 C5206 1.374 . S
C5208 C5205 1.499 . S
C5208 C5209 1.373 . S
C5208 C5210 1.389 . S
C5209 H5188 0.950 . S
C5209 C5208 1.373 . S
C5209 C5225 1.377 . S
C5210 C5208 1.389 . S
C5210 C5211 1.524 . S
C5210 C5224 1.377 . S
C5211 C5210 1.524 . S
C5211 C5212 1.397 . S
C5211 C5216 1.363 . S
C5212 H5189 0.950 . S
C5212 C5211 1.397 . S
C5212 C5213 1.334 . S
C5213 H5190 0.950 . S
C5213 C5212 1.334 . S
C5213 C5214 1.287 . S
C5214 C5213 1.287 . S
C5214 C5215 1.524 . S
C5214 H5233 0.913 . S
C5215 H5191 0.950 . S
C5215 C5214 1.524 . S
C5215 C5216 1.415 . S
C5216 H5192 0.950 . S
C5216 C5211 1.363 . S
C5216 C5215 1.415 . S
C5217 H5193 0.951 . S
C5217 C5218 1.366 . S
C5217 C5219 1.388 . S
C5218 C5217 1.366 . S
C5218 C5222 1.385 . S
C5219 H5194 0.951 . S
C5219 C5217 1.388 . S
C5219 C5220 1.366 . S
C5220 C5219 1.366 . S
C5220 C5221 1.414 . S
C5220 C5223 1.499 . S
C5221 H5195 0.950 . S
C5221 C5220 1.414 . S
C5221 C5222 1.374 . S
C5222 H5196 0.950 . S
C5222 C5218 1.385 . S
C5222 C5221 1.374 . S
C5223 C5220 1.499 . S
C5223 C5224 1.373 . S
C5223 C5225 1.389 . S
C5224 H5197 0.950 . S
C5224 C5210 1.377 . S
C5224 C5223 1.373 . S
C5225 C5209 1.377 . S
C5225 C5223 1.389 . S
C5225 C5226 1.524 . S
C5226 C5225 1.524 . S
C5226 C5227 1.397 . S
C5226 C5231 1.363 . S
C5227 H5198 0.950 . S
C5227 C5226 1.397 . S
C5227 C5228 1.334 . S
C5228 H5199 0.950 . S
C5228 C5227 1.334 . S
C5228 C5229 1.287 . S
C5229 C5228 1.287 . S
C5229 C5230 1.524 . S
C5229 H5232 0.999 . S
C5230 H5200 0.950 . S
C5230 C5229 1.524 . S
C5230 C5231 1.415 . S
C5231 H5201 0.950 . S
C5231 C5226 1.363 . S
C5231 C5230 1.415 . S
H5232 C5229 0.999 . S
H5233 C5214 0.913 . S
H5234 C5252 0.951 . S
H5235 C5254 0.951 . S
H5236 C5256 0.950 . S
H5237 C5257 0.950 . S
H5238 C5259 0.950 . S
H5239 C5262 0.950 . S
H5240 C5263 0.950 . S
H5241 C5265 0.950 . S
H5242 C5266 0.950 . S
H5243 C5267 0.951 . S
H5244 C5269 0.951 . S
H5245 C5271 0.950 . S
H5246 C5272 0.950 . S
H5247 C5274 0.950 . S
H5248 C5277 0.950 . S
H5249 C5278 0.950 . S
H5250 C5280 0.950 . S
H5251 C5281 0.950 . S
C5252 H5234 0.951 . S
C5252 C5253 1.366 . S
C5252 C5254 1.388 . S
C5253 C5252 1.366 . S
C5253 C5257 1.385 . S
C5254 H5235 0.951 . S
C5254 C5252 1.388 . S
C5254 C5255 1.366 . S
C5255 C5254 1.366 . S
C5255 C5256 1.414 . S
C5255 C5258 1.499 . S
C5256 H5236 0.950 . S
C5256 C5255 1.414 . S
C5256 C5257 1.374 . S
C5257 H5237 0.950 . S
C5257 C5253 1.385 . S
C5257 C5256 1.374 . S
C5258 C5255 1.499 . S
C5258 C5259 1.373 . S
C5258 C5260 1.389 . S
C5259 H5238 0.950 . S
C5259 C5258 1.373 . S
C5259 C5275 1.377 . S
C5260 C5258 1.389 . S
C5260 C5261 1.524 . S
C5260 C5274 1.377 . S
C5261 C5260 1.524 . S
C5261 C5262 1.397 . S
C5261 C5266 1.363 . S
C5262 H5239 0.950 . S
C5262 C5261 1.397 . S
C5262 C5263 1.334 . S
C5263 H5240 0.950 . S
C5263 C5262 1.334 . S
C5263 C5264 1.287 . S
C5264 C5263 1.287 . S
C5264 C5265 1.524 . S
C5264 H5283 0.913 . S
C5265 H5241 0.950 . S
C5265 C5264 1.524 . S
C5265 C5266 1.415 . S
C5266 H5242 0.950 . S
C5266 C5261 1.363 . S
C5266 C5265 1.415 . S
C5267 H5243 0.951 . S
C5267 C5268 1.366 . S
C5267 C5269 1.388 . S
C5268 C5267 1.366 . S
C5268 C5272 1.385 . S
C5269 H5244 0.951 . S
C5269 C5267 1.388 . S
C5269 C5270 1.366 . S
C5270 C5269 1.366 . S
C5270 C5271 1.414 . S
C5270 C5273 1.499 . S
C5271 H5245 0.950 . S
C5271 C5270 1.414 . S
C5271 C5272 1.374 . S
C5272 H5246 0.950 . S
C5272 C5268 1.385 . S
C5272 C5271 1.374 . S
C5273 C5270 1.499 . S
C5273 C5274 1.373 . S
C5273 C5275 1.389 . S
C5274 H5247 0.950 . S
C5274 C5260 1.377 . S
C5274 C5273 1.373 . S
C5275 C5259 1.377 . S
C5275 C5273 1.389 . S
C5275 C5276 1.524 . S
C5276 C5275 1.524 . S
C5276 C5277 1.397 . S
C5276 C5281 1.363 . S
C5277 H5248 0.950 . S
C5277 C5276 1.397 . S
C5277 C5278 1.334 . S
C5278 H5249 0.950 . S
C5278 C5277 1.334 . S
C5278 C5279 1.287 . S
C5279 C5278 1.287 . S
C5279 C5280 1.524 . S
C5279 H5282 0.999 . S
C5280 H5250 0.950 . S
C5280 C5279 1.524 . S
C5280 C5281 1.415 . S
C5281 H5251 0.950 . S
C5281 C5276 1.363 . S
C5281 C5280 1.415 . S
H5282 C5279 0.999 . S
H5283 C5264 0.913 . S
H5284 C5302 0.951 . S
H5285 C5304 0.951 . S
H5286 C5306 0.950 . S
H5287 C5307 0.950 . S
H5288 C5309 0.950 . S
H5289 C5312 0.950 . S
H5290 C5313 0.950 . S
H5291 C5315 0.950 . S
H5292 C5316 0.950 . S
H5293 C5317 0.951 . S
H5294 C5319 0.951 . S
H5295 C5321 0.950 . S
H5296 C5322 0.950 . S
H5297 C5324 0.950 . S
H5298 C5327 0.950 . S
H5299 C5328 0.950 . S
H5300 C5330 0.950 . S
H5301 C5331 0.950 . S
C5302 H5284 0.951 . S
C5302 C5303 1.366 . S
C5302 C5304 1.388 . S
C5303 C5302 1.366 . S
C5303 C5307 1.385 . S
C5304 H5285 0.951 . S
C5304 C5302 1.388 . S
C5304 C5305 1.366 . S
C5305 C5304 1.366 . S
C5305 C5306 1.414 . S
C5305 C5308 1.499 . S
C5306 H5286 0.950 . S
C5306 C5305 1.414 . S
C5306 C5307 1.374 . S
C5307 H5287 0.950 . S
C5307 C5303 1.385 . S
C5307 C5306 1.374 . S
C5308 C5305 1.499 . S
C5308 C5309 1.373 . S
C5308 C5310 1.389 . S
C5309 H5288 0.950 . S
C5309 C5308 1.373 . S
C5309 C5325 1.377 . S
C5310 C5308 1.389 . S
C5310 C5311 1.524 . S
C5310 C5324 1.377 . S
C5311 C5310 1.524 . S
C5311 C5312 1.397 . S
C5311 C5316 1.363 . S
C5312 H5289 0.950 . S
C5312 C5311 1.397 . S
C5312 C5313 1.334 . S
C5313 H5290 0.950 . S
C5313 C5312 1.334 . S
C5313 C5314 1.287 . S
C5314 C5313 1.287 . S
C5314 C5315 1.524 . S
C5314 H5333 0.913 . S
C5315 H5291 0.950 . S
C5315 C5314 1.524 . S
C5315 C5316 1.415 . S
C5316 H5292 0.950 . S
C5316 C5311 1.363 . S
C5316 C5315 1.415 . S
C5317 H5293 0.951 . S
C5317 C5318 1.366 . S
C5317 C5319 1.388 . S
C5318 C5317 1.366 . S
C5318 C5322 1.385 . S
C5319 H5294 0.951 . S
C5319 C5317 1.388 . S
C5319 C5320 1.366 . S
C5320 C5319 1.366 . S
C5320 C5321 1.414 . S
C5320 C5323 1.499 . S
C5321 H5295 0.950 . S
C5321 C5320 1.414 . S
C5321 C5322 1.374 . S
C5322 H5296 0.950 . S
C5322 C5318 1.385 . S
C5322 C5321 1.374 . S
C5323 C5320 1.499 . S
C5323 C5324 1.373 . S
C5323 C5325 1.389 . S
C5324 H5297 0.950 . S
C5324 C5310 1.377 . S
C5324 C5323 1.373 . S
C5325 C5309 1.377 . S
C5325 C5323 1.389 . S
C5325 C5326 1.524 . S
C5326 C5325 1.524 . S
C5326 C5327 1.397 . S
C5326 C5331 1.363 . S
C5327 H5298 0.950 . S
C5327 C5326 1.397 . S
C5327 C5328 1.334 . S
C5328 H5299 0.950 . S
C5328 C5327 1.334 . S
C5328 C5329 1.287 . S
C5329 C5328 1.287 . S
C5329 C5330 1.524 . S
C5329 H5332 0.999 . S
C5330 H5300 0.950 . S
C5330 C5329 1.524 . S
C5330 C5331 1.415 . S
C5331 H5301 0.950 . S
C5331 C5326 1.363 . S
C5331 C5330 1.415 . S
H5332 C5329 0.999 . S
H5333 C5314 0.913 . S
H5334 C5352 0.951 . S
H5335 C5354 0.951 . S
H5336 C5356 0.950 . S
H5337 C5357 0.950 . S
H5338 C5359 0.950 . S
H5339 C5362 0.950 . S
H5340 C5363 0.950 . S
H5341 C5365 0.950 . S
H5342 C5366 0.950 . S
H5343 C5367 0.951 . S
H5344 C5369 0.951 . S
H5345 C5371 0.950 . S
H5346 C5372 0.950 . S
H5347 C5374 0.950 . S
H5348 C5377 0.950 . S
H5349 C5378 0.950 . S
H5350 C5380 0.950 . S
H5351 C5381 0.950 . S
C5352 H5334 0.951 . S
C5352 C5353 1.366 . S
C5352 C5354 1.388 . S
C5353 C5352 1.366 . S
C5353 C5357 1.385 . S
C5354 H5335 0.951 . S
C5354 C5352 1.388 . S
C5354 C5355 1.366 . S
C5355 C5354 1.366 . S
C5355 C5356 1.414 . S
C5355 C5358 1.499 . S
C5356 H5336 0.950 . S
C5356 C5355 1.414 . S
C5356 C5357 1.374 . S
C5357 H5337 0.950 . S
C5357 C5353 1.385 . S
C5357 C5356 1.374 . S
C5358 C5355 1.499 . S
C5358 C5359 1.373 . S
C5358 C5360 1.389 . S
C5359 H5338 0.950 . S
C5359 C5358 1.373 . S
C5359 C5375 1.377 . S
C5360 C5358 1.389 . S
C5360 C5361 1.524 . S
C5360 C5374 1.377 . S
C5361 C5360 1.524 . S
C5361 C5362 1.397 . S
C5361 C5366 1.363 . S
C5362 H5339 0.950 . S
C5362 C5361 1.397 . S
C5362 C5363 1.334 . S
C5363 H5340 0.950 . S
C5363 C5362 1.334 . S
C5363 C5364 1.287 . S
C5364 C5363 1.287 . S
C5364 C5365 1.524 . S
C5364 H5383 0.913 . S
C5365 H5341 0.950 . S
C5365 C5364 1.524 . S
C5365 C5366 1.415 . S
C5366 H5342 0.950 . S
C5366 C5361 1.363 . S
C5366 C5365 1.415 . S
C5367 H5343 0.951 . S
C5367 C5368 1.366 . S
C5367 C5369 1.388 . S
C5368 C5367 1.366 . S
C5368 C5372 1.385 . S
C5369 H5344 0.951 . S
C5369 C5367 1.388 . S
C5369 C5370 1.366 . S
C5370 C5369 1.366 . S
C5370 C5371 1.414 . S
C5370 C5373 1.499 . S
C5371 H5345 0.950 . S
C5371 C5370 1.414 . S
C5371 C5372 1.374 . S
C5372 H5346 0.950 . S
C5372 C5368 1.385 . S
C5372 C5371 1.374 . S
C5373 C5370 1.499 . S
C5373 C5374 1.373 . S
C5373 C5375 1.389 . S
C5374 H5347 0.950 . S
C5374 C5360 1.377 . S
C5374 C5373 1.373 . S
C5375 C5359 1.377 . S
C5375 C5373 1.389 . S
C5375 C5376 1.524 . S
C5376 C5375 1.524 . S
C5376 C5377 1.397 . S
C5376 C5381 1.363 . S
C5377 H5348 0.950 . S
C5377 C5376 1.397 . S
C5377 C5378 1.334 . S
C5378 H5349 0.950 . S
C5378 C5377 1.334 . S
C5378 C5379 1.287 . S
C5379 C5378 1.287 . S
C5379 C5380 1.524 . S
C5379 H5382 0.999 . S
C5380 H5350 0.950 . S
C5380 C5379 1.524 . S
C5380 C5381 1.415 . S
C5381 H5351 0.950 . S
C5381 C5376 1.363 . S
C5381 C5380 1.415 . S
H5382 C5379 0.999 . S
H5383 C5364 0.913 . S
H5384 C5402 0.951 . S
H5385 C5404 0.951 . S
H5386 C5406 0.950 . S
H5387 C5407 0.950 . S
H5388 C5409 0.950 . S
H5389 C5412 0.950 . S
H5390 C5413 0.950 . S
H5391 C5415 0.950 . S
H5392 C5416 0.950 . S
H5393 C5417 0.951 . S
H5394 C5419 0.951 . S
H5395 C5421 0.950 . S
H5396 C5422 0.950 . S
H5397 C5424 0.950 . S
H5398 C5427 0.950 . S
H5399 C5428 0.950 . S
H5400 C5430 0.950 . S
H5401 C5431 0.950 . S
C5402 H5384 0.951 . S
C5402 C5403 1.366 . S
C5402 C5404 1.388 . S
C5403 C5402 1.366 . S
C5403 C5407 1.385 . S
C5404 H5385 0.951 . S
C5404 C5402 1.388 . S
C5404 C5405 1.366 . S
C5405 C5404 1.366 . S
C5405 C5406 1.414 . S
C5405 C5408 1.499 . S
C5406 H5386 0.950 . S
C5406 C5405 1.414 . S
C5406 C5407 1.374 . S
C5407 H5387 0.950 . S
C5407 C5403 1.385 . S
C5407 C5406 1.374 . S
C5408 C5405 1.499 . S
C5408 C5409 1.373 . S
C5408 C5410 1.389 . S
C5409 H5388 0.950 . S
C5409 C5408 1.373 . S
C5409 C5425 1.377 . S
C5410 C5408 1.389 . S
C5410 C5411 1.524 . S
C5410 C5424 1.377 . S
C5411 C5410 1.524 . S
C5411 C5412 1.397 . S
C5411 C5416 1.363 . S
C5412 H5389 0.950 . S
C5412 C5411 1.397 . S
C5412 C5413 1.334 . S
C5413 H5390 0.950 . S
C5413 C5412 1.334 . S
C5413 C5414 1.287 . S
C5414 C5413 1.287 . S
C5414 C5415 1.524 . S
C5414 H5433 0.913 . S
C5415 H5391 0.950 . S
C5415 C5414 1.524 . S
C5415 C5416 1.415 . S
C5416 H5392 0.950 . S
C5416 C5411 1.363 . S
C5416 C5415 1.415 . S
C5417 H5393 0.951 . S
C5417 C5418 1.366 . S
C5417 C5419 1.388 . S
C5418 C5417 1.366 . S
C5418 C5422 1.385 . S
C5419 H5394 0.951 . S
C5419 C5417 1.388 . S
C5419 C5420 1.366 . S
C5420 C5419 1.366 . S
C5420 C5421 1.414 . S
C5420 C5423 1.499 . S
C5421 H5395 0.950 . S
C5421 C5420 1.414 . S
C5421 C5422 1.374 . S
C5422 H5396 0.950 . S
C5422 C5418 1.385 . S
C5422 C5421 1.374 . S
C5423 C5420 1.499 . S
C5423 C5424 1.373 . S
C5423 C5425 1.389 . S
C5424 H5397 0.950 . S
C5424 C5410 1.377 . S
C5424 C5423 1.373 . S
C5425 C5409 1.377 . S
C5425 C5423 1.389 . S
C5425 C5426 1.524 . S
C5426 C5425 1.524 . S
C5426 C5427 1.397 . S
C5426 C5431 1.363 . S
C5427 H5398 0.950 . S
C5427 C5426 1.397 . S
C5427 C5428 1.334 . S
C5428 H5399 0.950 . S
C5428 C5427 1.334 . S
C5428 C5429 1.287 . S
C5429 C5428 1.287 . S
C5429 C5430 1.524 . S
C5429 H5432 0.999 . S
C5430 H5400 0.950 . S
C5430 C5429 1.524 . S
C5430 C5431 1.415 . S
C5431 H5401 0.950 . S
C5431 C5426 1.363 . S
C5431 C5430 1.415 . S
H5432 C5429 0.999 . S
H5433 C5414 0.913 . S
H5434 C5452 0.951 . S
H5435 C5454 0.951 . S
H5436 C5456 0.950 . S
H5437 C5457 0.950 . S
H5438 C5459 0.950 . S
H5439 C5462 0.950 . S
H5440 C5463 0.950 . S
H5441 C5465 0.950 . S
H5442 C5466 0.950 . S
H5443 C5467 0.951 . S
H5444 C5469 0.951 . S
H5445 C5471 0.950 . S
H5446 C5472 0.950 . S
H5447 C5474 0.950 . S
H5448 C5477 0.950 . S
H5449 C5478 0.950 . S
H5450 C5480 0.950 . S
H5451 C5481 0.950 . S
C5452 H5434 0.951 . S
C5452 C5453 1.366 . S
C5452 C5454 1.388 . S
C5453 C5452 1.366 . S
C5453 C5457 1.385 . S
C5454 H5435 0.951 . S
C5454 C5452 1.388 . S
C5454 C5455 1.366 . S
C5455 C5454 1.366 . S
C5455 C5456 1.414 . S
C5455 C5458 1.499 . S
C5456 H5436 0.950 . S
C5456 C5455 1.414 . S
C5456 C5457 1.374 . S
C5457 H5437 0.950 . S
C5457 C5453 1.385 . S
C5457 C5456 1.374 . S
C5458 C5455 1.499 . S
C5458 C5459 1.373 . S
C5458 C5460 1.389 . S
C5459 H5438 0.950 . S
C5459 C5458 1.373 . S
C5459 C5475 1.377 . S
C5460 C5458 1.389 . S
C5460 C5461 1.524 . S
C5460 C5474 1.377 . S
C5461 C5460 1.524 . S
C5461 C5462 1.397 . S
C5461 C5466 1.363 . S
C5462 H5439 0.950 . S
C5462 C5461 1.397 . S
C5462 C5463 1.334 . S
C5463 H5440 0.950 . S
C5463 C5462 1.334 . S
C5463 C5464 1.287 . S
C5464 C5463 1.287 . S
C5464 C5465 1.524 . S
C5464 H5483 0.913 . S
C5465 H5441 0.950 . S
C5465 C5464 1.524 . S
C5465 C5466 1.415 . S
C5466 H5442 0.950 . S
C5466 C5461 1.363 . S
C5466 C5465 1.415 . S
C5467 H5443 0.951 . S
C5467 C5468 1.366 . S
C5467 C5469 1.388 . S
C5468 C5467 1.366 . S
C5468 C5472 1.385 . S
C5469 H5444 0.951 . S
C5469 C5467 1.388 . S
C5469 C5470 1.366 . S
C5470 C5469 1.366 . S
C5470 C5471 1.414 . S
C5470 C5473 1.499 . S
C5471 H5445 0.950 . S
C5471 C5470 1.414 . S
C5471 C5472 1.374 . S
C5472 H5446 0.950 . S
C5472 C5468 1.385 . S
C5472 C5471 1.374 . S
C5473 C5470 1.499 . S
C5473 C5474 1.373 . S
C5473 C5475 1.389 . S
C5474 H5447 0.950 . S
C5474 C5460 1.377 . S
C5474 C5473 1.373 . S
C5475 C5459 1.377 . S
C5475 C5473 1.389 . S
C5475 C5476 1.524 . S
C5476 C5475 1.524 . S
C5476 C5477 1.397 . S
C5476 C5481 1.363 . S
C5477 H5448 0.950 . S
C5477 C5476 1.397 . S
C5477 C5478 1.334 . S
C5478 H5449 0.950 . S
C5478 C5477 1.334 . S
C5478 C5479 1.287 . S
C5479 C5478 1.287 . S
C5479 C5480 1.524 . S
C5479 H5482 0.999 . S
C5480 H5450 0.950 . S
C5480 C5479 1.524 . S
C5480 C5481 1.415 . S
C5481 H5451 0.950 . S
C5481 C5476 1.363 . S
C5481 C5480 1.415 . S
H5482 C5479 0.999 . S
H5483 C5464 0.913 . S
H5484 C5502 0.951 . S
H5485 C5504 0.951 . S
H5486 C5506 0.950 . S
H5487 C5507 0.950 . S
H5488 C5509 0.950 . S
H5489 C5512 0.950 . S
H5490 C5513 0.950 . S
H5491 C5515 0.950 . S
H5492 C5516 0.950 . S
H5493 C5517 0.951 . S
H5494 C5519 0.951 . S
H5495 C5521 0.950 . S
H5496 C5522 0.950 . S
H5497 C5524 0.950 . S
H5498 C5527 0.950 . S
H5499 C5528 0.950 . S
H5500 C5530 0.950 . S
H5501 C5531 0.950 . S
C5502 H5484 0.951 . S
C5502 C5503 1.366 . S
C5502 C5504 1.388 . S
C5503 C5502 1.366 . S
C5503 C5507 1.385 . S
C5504 H5485 0.951 . S
C5504 C5502 1.388 . S
C5504 C5505 1.366 . S
C5505 C5504 1.366 . S
C5505 C5506 1.414 . S
C5505 C5508 1.499 . S
C5506 H5486 0.950 . S
C5506 C5505 1.414 . S
C5506 C5507 1.374 . S
C5507 H5487 0.950 . S
C5507 C5503 1.385 . S
C5507 C5506 1.374 . S
C5508 C5505 1.499 . S
C5508 C5509 1.373 . S
C5508 C5510 1.389 . S
C5509 H5488 0.950 . S
C5509 C5508 1.373 . S
C5509 C5525 1.377 . S
C5510 C5508 1.389 . S
C5510 C5511 1.524 . S
C5510 C5524 1.377 . S
C5511 C5510 1.524 . S
C5511 C5512 1.397 . S
C5511 C5516 1.363 . S
C5512 H5489 0.950 . S
C5512 C5511 1.397 . S
C5512 C5513 1.334 . S
C5513 H5490 0.950 . S
C5513 C5512 1.334 . S
C5513 C5514 1.287 . S
C5514 C5513 1.287 . S
C5514 C5515 1.524 . S
C5514 H5533 0.913 . S
C5515 H5491 0.950 . S
C5515 C5514 1.524 . S
C5515 C5516 1.415 . S
C5516 H5492 0.950 . S
C5516 C5511 1.363 . S
C5516 C5515 1.415 . S
C5517 H5493 0.951 . S
C5517 C5518 1.366 . S
C5517 C5519 1.388 . S
C5518 C5517 1.366 . S
C5518 C5522 1.385 . S
C5519 H5494 0.951 . S
C5519 C5517 1.388 . S
C5519 C5520 1.366 . S
C5520 C5519 1.366 . S
C5520 C5521 1.414 . S
C5520 C5523 1.499 . S
C5521 H5495 0.950 . S
C5521 C5520 1.414 . S
C5521 C5522 1.374 . S
C5522 H5496 0.950 . S
C5522 C5518 1.385 . S
C5522 C5521 1.374 . S
C5523 C5520 1.499 . S
C5523 C5524 1.373 . S
C5523 C5525 1.389 . S
C5524 H5497 0.950 . S
C5524 C5510 1.377 . S
C5524 C5523 1.373 . S
C5525 C5509 1.377 . S
C5525 C5523 1.389 . S
C5525 C5526 1.524 . S
C5526 C5525 1.524 . S
C5526 C5527 1.397 . S
C5526 C5531 1.363 . S
C5527 H5498 0.950 . S
C5527 C5526 1.397 . S
C5527 C5528 1.334 . S
C5528 H5499 0.950 . S
C5528 C5527 1.334 . S
C5528 C5529 1.287 . S
C5529 C5528 1.287 . S
C5529 C5530 1.524 . S
C5529 H5532 0.999 . S
C5530 H5500 0.950 . S
C5530 C5529 1.524 . S
C5530 C5531 1.415 . S
C5531 H5501 0.950 . S
C5531 C5526 1.363 . S
C5531 C5530 1.415 . S
H5532 C5529 0.999 . S
H5533 C5514 0.913 . S
H5534 C5552 0.951 . S
H5535 C5554 0.951 . S
H5536 C5556 0.950 . S
H5537 C5557 0.950 . S
H5538 C5559 0.950 . S
H5539 C5562 0.950 . S
H5540 C5563 0.950 . S
H5541 C5565 0.950 . S
H5542 C5566 0.950 . S
H5543 C5567 0.951 . S
H5544 C5569 0.951 . S
H5545 C5571 0.950 . S
H5546 C5572 0.950 . S
H5547 C5574 0.950 . S
H5548 C5577 0.950 . S
H5549 C5578 0.950 . S
H5550 C5580 0.950 . S
H5551 C5581 0.950 . S
C5552 H5534 0.951 . S
C5552 C5553 1.366 . S
C5552 C5554 1.388 . S
C5553 C5552 1.366 . S
C5553 C5557 1.385 . S
C5554 H5535 0.951 . S
C5554 C5552 1.388 . S
C5554 C5555 1.366 . S
C5555 C5554 1.366 . S
C5555 C5556 1.414 . S
C5555 C5558 1.499 . S
C5556 H5536 0.950 . S
C5556 C5555 1.414 . S
C5556 C5557 1.374 . S
C5557 H5537 0.950 . S
C5557 C5553 1.385 . S
C5557 C5556 1.374 . S
C5558 C5555 1.499 . S
C5558 C5559 1.373 . S
C5558 C5560 1.389 . S
C5559 H5538 0.950 . S
C5559 C5558 1.373 . S
C5559 C5575 1.377 . S
C5560 C5558 1.389 . S
C5560 C5561 1.524 . S
C5560 C5574 1.377 . S
C5561 C5560 1.524 . S
C5561 C5562 1.397 . S
C5561 C5566 1.363 . S
C5562 H5539 0.950 . S
C5562 C5561 1.397 . S
C5562 C5563 1.334 . S
C5563 H5540 0.950 . S
C5563 C5562 1.334 . S
C5563 C5564 1.287 . S
C5564 C5563 1.287 . S
C5564 C5565 1.524 . S
C5564 H5583 0.913 . S
C5565 H5541 0.950 . S
C5565 C5564 1.524 . S
C5565 C5566 1.415 . S
C5566 H5542 0.950 . S
C5566 C5561 1.363 . S
C5566 C5565 1.415 . S
C5567 H5543 0.951 . S
C5567 C5568 1.366 . S
C5567 C5569 1.388 . S
C5568 C5567 1.366 . S
C5568 C5572 1.385 . S
C5569 H5544 0.951 . S
C5569 C5567 1.388 . S
C5569 C5570 1.366 . S
C5570 C5569 1.366 . S
C5570 C5571 1.414 . S
C5570 C5573 1.499 . S
C5571 H5545 0.950 . S
C5571 C5570 1.414 . S
C5571 C5572 1.374 . S
C5572 H5546 0.950 . S
C5572 C5568 1.385 . S
C5572 C5571 1.374 . S
C5573 C5570 1.499 . S
C5573 C5574 1.373 . S
C5573 C5575 1.389 . S
C5574 H5547 0.950 . S
C5574 C5560 1.377 . S
C5574 C5573 1.373 . S
C5575 C5559 1.377 . S
C5575 C5573 1.389 . S
C5575 C5576 1.524 . S
C5576 C5575 1.524 . S
C5576 C5577 1.397 . S
C5576 C5581 1.363 . S
C5577 H5548 0.950 . S
C5577 C5576 1.397 . S
C5577 C5578 1.334 . S
C5578 H5549 0.950 . S
C5578 C5577 1.334 . S
C5578 C5579 1.287 . S
C5579 C5578 1.287 . S
C5579 C5580 1.524 . S
C5579 H5582 0.999 . S
C5580 H5550 0.950 . S
C5580 C5579 1.524 . S
C5580 C5581 1.415 . S
C5581 H5551 0.950 . S
C5581 C5576 1.363 . S
C5581 C5580 1.415 . S
H5582 C5579 0.999 . S
H5583 C5564 0.913 . S
H5584 C5602 0.951 . S
H5585 C5604 0.951 . S
H5586 C5606 0.950 . S
H5587 C5607 0.950 . S
H5588 C5609 0.950 . S
H5589 C5612 0.950 . S
H5590 C5613 0.950 . S
H5591 C5615 0.950 . S
H5592 C5616 0.950 . S
H5593 C5617 0.951 . S
H5594 C5619 0.951 . S
H5595 C5621 0.950 . S
H5596 C5622 0.950 . S
H5597 C5624 0.950 . S
H5598 C5627 0.950 . S
H5599 C5628 0.950 . S
H5600 C5630 0.950 . S
H5601 C5631 0.950 . S
C5602 H5584 0.951 . S
C5602 C5603 1.366 . S
C5602 C5604 1.388 . S
C5603 C5602 1.366 . S
C5603 C5607 1.385 . S
C5604 H5585 0.951 . S
C5604 C5602 1.388 . S
C5604 C5605 1.366 . S
C5605 C5604 1.366 . S
C5605 C5606 1.414 . S
C5605 C5608 1.499 . S
C5606 H5586 0.950 . S
C5606 C5605 1.414 . S
C5606 C5607 1.374 . S
C5607 H5587 0.950 . S
C5607 C5603 1.385 . S
C5607 C5606 1.374 . S
C5608 C5605 1.499 . S
C5608 C5609 1.373 . S
C5608 C5610 1.389 . S
C5609 H5588 0.950 . S
C5609 C5608 1.373 . S
C5609 C5625 1.377 . S
C5610 C5608 1.389 . S
C5610 C5611 1.524 . S
C5610 C5624 1.377 . S
C5611 C5610 1.524 . S
C5611 C5612 1.397 . S
C5611 C5616 1.363 . S
C5612 H5589 0.950 . S
C5612 C5611 1.397 . S
C5612 C5613 1.334 . S
C5613 H5590 0.950 . S
C5613 C5612 1.334 . S
C5613 C5614 1.287 . S
C5614 C5613 1.287 . S
C5614 C5615 1.524 . S
C5614 H5633 0.913 . S
C5615 H5591 0.950 . S
C5615 C5614 1.524 . S
C5615 C5616 1.415 . S
C5616 H5592 0.950 . S
C5616 C5611 1.363 . S
C5616 C5615 1.415 . S
C5617 H5593 0.951 . S
C5617 C5618 1.366 . S
C5617 C5619 1.388 . S
C5618 C5617 1.366 . S
C5618 C5622 1.385 . S
C5619 H5594 0.951 . S
C5619 C5617 1.388 . S
C5619 C5620 1.366 . S
C5620 C5619 1.366 . S
C5620 C5621 1.414 . S
C5620 C5623 1.499 . S
C5621 H5595 0.950 . S
C5621 C5620 1.414 . S
C5621 C5622 1.374 . S
C5622 H5596 0.950 . S
C5622 C5618 1.385 . S
C5622 C5621 1.374 . S
C5623 C5620 1.499 . S
C5623 C5624 1.373 . S
C5623 C5625 1.389 . S
C5624 H5597 0.950 . S
C5624 C5610 1.377 . S
C5624 C5623 1.373 . S
C5625 C5609 1.377 . S
C5625 C5623 1.389 . S
C5625 C5626 1.524 . S
C5626 C5625 1.524 . S
C5626 C5627 1.397 . S
C5626 C5631 1.363 . S
C5627 H5598 0.950 . S
C5627 C5626 1.397 . S
C5627 C5628 1.334 . S
C5628 H5599 0.950 . S
C5628 C5627 1.334 . S
C5628 C5629 1.287 . S
C5629 C5628 1.287 . S
C5629 C5630 1.524 . S
C5629 H5632 0.999 . S
C5630 H5600 0.950 . S
C5630 C5629 1.524 . S
C5630 C5631 1.415 . S
C5631 H5601 0.950 . S
C5631 C5626 1.363 . S
C5631 C5630 1.415 . S
H5632 C5629 0.999 . S
H5633 C5614 0.913 . S
H5634 C5652 0.951 . S
H5635 C5654 0.951 . S
H5636 C5656 0.950 . S
H5637 C5657 0.950 . S
H5638 C5659 0.950 . S
H5639 C5662 0.950 . S
H5640 C5663 0.950 . S
H5641 C5665 0.950 . S
H5642 C5666 0.950 . S
H5643 C5667 0.951 . S
H5644 C5669 0.951 . S
H5645 C5671 0.950 . S
H5646 C5672 0.950 . S
H5647 C5674 0.950 . S
H5648 C5677 0.950 . S
H5649 C5678 0.950 . S
H5650 C5680 0.950 . S
H5651 C5681 0.950 . S
C5652 H5634 0.951 . S
C5652 C5653 1.366 . S
C5652 C5654 1.388 . S
C5653 C5652 1.366 . S
C5653 C5657 1.385 . S
C5654 H5635 0.951 . S
C5654 C5652 1.388 . S
C5654 C5655 1.366 . S
C5655 C5654 1.366 . S
C5655 C5656 1.414 . S
C5655 C5658 1.499 . S
C5656 H5636 0.950 . S
C5656 C5655 1.414 . S
C5656 C5657 1.374 . S
C5657 H5637 0.950 . S
C5657 C5653 1.385 . S
C5657 C5656 1.374 . S
C5658 C5655 1.499 . S
C5658 C5659 1.373 . S
C5658 C5660 1.389 . S
C5659 H5638 0.950 . S
C5659 C5658 1.373 . S
C5659 C5675 1.377 . S
C5660 C5658 1.389 . S
C5660 C5661 1.524 . S
C5660 C5674 1.377 . S
C5661 C5660 1.524 . S
C5661 C5662 1.397 . S
C5661 C5666 1.363 . S
C5662 H5639 0.950 . S
C5662 C5661 1.397 . S
C5662 C5663 1.334 . S
C5663 H5640 0.950 . S
C5663 C5662 1.334 . S
C5663 C5664 1.287 . S
C5664 C5663 1.287 . S
C5664 C5665 1.524 . S
C5664 H5683 0.913 . S
C5665 H5641 0.950 . S
C5665 C5664 1.524 . S
C5665 C5666 1.415 . S
C5666 H5642 0.950 . S
C5666 C5661 1.363 . S
C5666 C5665 1.415 . S
C5667 H5643 0.951 . S
C5667 C5668 1.366 . S
C5667 C5669 1.388 . S
C5668 C5667 1.366 . S
C5668 C5672 1.385 . S
C5669 H5644 0.951 . S
C5669 C5667 1.388 . S
C5669 C5670 1.366 . S
C5670 C5669 1.366 . S
C5670 C5671 1.414 . S
C5670 C5673 1.499 . S
C5671 H5645 0.950 . S
C5671 C5670 1.414 . S
C5671 C5672 1.374 . S
C5672 H5646 0.950 . S
C5672 C5668 1.385 . S
C5672 C5671 1.374 . S
C5673 C5670 1.499 . S
C5673 C5674 1.373 . S
C5673 C5675 1.389 . S
C5674 H5647 0.950 . S
C5674 C5660 1.377 . S
C5674 C5673 1.373 . S
C5675 C5659 1.377 . S
C5675 C5673 1.389 . S
C5675 C5676 1.524 . S
C5676 C5675 1.524 . S
C5676 C5677 1.397 . S
C5676 C5681 1.363 . S
C5677 H5648 0.950 . S
C5677 C5676 1.397 . S
C5677 C5678 1.334 . S
C5678 H5649 0.950 . S
C5678 C5677 1.334 . S
C5678 C5679 1.287 . S
C5679 C5678 1.287 . S
C5679 C5680 1.524 . S
C5679 H5682 0.999 . S
C5680 H5650 0.950 . S
C5680 C5679 1.524 . S
C5680 C5681 1.415 . S
C5681 H5651 0.950 . S
C5681 C5676 1.363 . S
C5681 C5680 1.415 . S
H5682 C5679 0.999 . S
H5683 C5664 0.913 . S
H5684 C5702 0.951 . S
H5685 C5704 0.951 . S
H5686 C5706 0.950 . S
H5687 C5707 0.950 . S
H5688 C5709 0.950 . S
H5689 C5712 0.950 . S
H5690 C5713 0.950 . S
H5691 C5715 0.950 . S
H5692 C5716 0.950 . S
H5693 C5717 0.951 . S
H5694 C5719 0.951 . S
H5695 C5721 0.950 . S
H5696 C5722 0.950 . S
H5697 C5724 0.950 . S
H5698 C5727 0.950 . S
H5699 C5728 0.950 . S
H5700 C5730 0.950 . S
H5701 C5731 0.950 . S
C5702 H5684 0.951 . S
C5702 C5703 1.366 . S
C5702 C5704 1.388 . S
C5703 C5702 1.366 . S
C5703 C5707 1.385 . S
C5704 H5685 0.951 . S
C5704 C5702 1.388 . S
C5704 C5705 1.366 . S
C5705 C5704 1.366 . S
C5705 C5706 1.414 . S
C5705 C5708 1.499 . S
C5706 H5686 0.950 . S
C5706 C5705 1.414 . S
C5706 C5707 1.374 . S
C5707 H5687 0.950 . S
C5707 C5703 1.385 . S
C5707 C5706 1.374 . S
C5708 C5705 1.499 . S
C5708 C5709 1.373 . S
C5708 C5710 1.389 . S
C5709 H5688 0.950 . S
C5709 C5708 1.373 . S
C5709 C5725 1.377 . S
C5710 C5708 1.389 . S
C5710 C5711 1.524 . S
C5710 C5724 1.377 . S
C5711 C5710 1.524 . S
C5711 C5712 1.397 . S
C5711 C5716 1.363 . S
C5712 H5689 0.950 . S
C5712 C5711 1.397 . S
C5712 C5713 1.334 . S
C5713 H5690 0.950 . S
C5713 C5712 1.334 . S
C5713 C5714 1.287 . S
C5714 C5713 1.287 . S
C5714 C5715 1.524 . S
C5714 H5733 0.913 . S
C5715 H5691 0.950 . S
C5715 C5714 1.524 . S
C5715 C5716 1.415 . S
C5716 H5692 0.950 . S
C5716 C5711 1.363 . S
C5716 C5715 1.415 . S
C5717 H5693 0.951 . S
C5717 C5718 1.366 . S
C5717 C5719 1.388 . S
C5718 C5717 1.366 . S
C5718 C5722 1.385 . S
C5719 H5694 0.951 . S
C5719 C5717 1.388 . S
C5719 C5720 1.366 . S
C5720 C5719 1.366 . S
C5720 C5721 1.414 . S
C5720 C5723 1.499 . S
C5721 H5695 0.950 . S
C5721 C5720 1.414 . S
C5721 C5722 1.374 . S
C5722 H5696 0.950 . S
C5722 C5718 1.385 . S
C5722 C5721 1.374 . S
C5723 C5720 1.499 . S
C5723 C5724 1.373 . S
C5723 C5725 1.389 . S
C5724 H5697 0.950 . S
C5724 C5710 1.377 . S
C5724 C5723 1.373 . S
C5725 C5709 1.377 . S
C5725 C5723 1.389 . S
C5725 C5726 1.524 . S
C5726 C5725 1.524 . S
C5726 C5727 1.397 . S
C5726 C5731 1.363 . S
C5727 H5698 0.950 . S
C5727 C5726 1.397 . S
C5727 C5728 1.334 . S
C5728 H5699 0.950 . S
C5728 C5727 1.334 . S
C5728 C5729 1.287 . S
C5729 C5728 1.287 . S
C5729 C5730 1.524 . S
C5729 H5732 0.999 . S
C5730 H5700 0.950 . S
C5730 C5729 1.524 . S
C5730 C5731 1.415 . S
C5731 H5701 0.950 . S
C5731 C5726 1.363 . S
C5731 C5730 1.415 . S
H5732 C5729 0.999 . S
H5733 C5714 0.913 . S
H5734 C5752 0.951 . S
H5735 C5754 0.951 . S
H5736 C5756 0.950 . S
H5737 C5757 0.950 . S
H5738 C5759 0.950 . S
H5739 C5762 0.950 . S
H5740 C5763 0.950 . S
H5741 C5765 0.950 . S
H5742 C5766 0.950 . S
H5743 C5767 0.951 . S
H5744 C5769 0.951 . S
H5745 C5771 0.950 . S
H5746 C5772 0.950 . S
H5747 C5774 0.950 . S
H5748 C5777 0.950 . S
H5749 C5778 0.950 . S
H5750 C5780 0.950 . S
H5751 C5781 0.950 . S
C5752 H5734 0.951 . S
C5752 C5753 1.366 . S
C5752 C5754 1.388 . S
C5753 C5752 1.366 . S
C5753 C5757 1.385 . S
C5754 H5735 0.951 . S
C5754 C5752 1.388 . S
C5754 C5755 1.366 . S
C5755 C5754 1.366 . S
C5755 C5756 1.414 . S
C5755 C5758 1.499 . S
C5756 H5736 0.950 . S
C5756 C5755 1.414 . S
C5756 C5757 1.374 . S
C5757 H5737 0.950 . S
C5757 C5753 1.385 . S
C5757 C5756 1.374 . S
C5758 C5755 1.499 . S
C5758 C5759 1.373 . S
C5758 C5760 1.389 . S
C5759 H5738 0.950 . S
C5759 C5758 1.373 . S
C5759 C5775 1.377 . S
C5760 C5758 1.389 . S
C5760 C5761 1.524 . S
C5760 C5774 1.377 . S
C5761 C5760 1.524 . S
C5761 C5762 1.397 . S
C5761 C5766 1.363 . S
C5762 H5739 0.950 . S
C5762 C5761 1.397 . S
C5762 C5763 1.334 . S
C5763 H5740 0.950 . S
C5763 C5762 1.334 . S
C5763 C5764 1.287 . S
C5764 C5763 1.287 . S
C5764 C5765 1.524 . S
C5764 H5783 0.913 . S
C5765 H5741 0.950 . S
C5765 C5764 1.524 . S
C5765 C5766 1.415 . S
C5766 H5742 0.950 . S
C5766 C5761 1.363 . S
C5766 C5765 1.415 . S
C5767 H5743 0.951 . S
C5767 C5768 1.366 . S
C5767 C5769 1.388 . S
C5768 C5767 1.366 . S
C5768 C5772 1.385 . S
C5769 H5744 0.951 . S
C5769 C5767 1.388 . S
C5769 C5770 1.366 . S
C5770 C5769 1.366 . S
C5770 C5771 1.414 . S
C5770 C5773 1.499 . S
C5771 H5745 0.950 . S
C5771 C5770 1.414 . S
C5771 C5772 1.374 . S
C5772 H5746 0.950 . S
C5772 C5768 1.385 . S
C5772 C5771 1.374 . S
C5773 C5770 1.499 . S
C5773 C5774 1.373 . S
C5773 C5775 1.389 . S
C5774 H5747 0.950 . S
C5774 C5760 1.377 . S
C5774 C5773 1.373 . S
C5775 C5759 1.377 . S
C5775 C5773 1.389 . S
C5775 C5776 1.524 . S
C5776 C5775 1.524 . S
C5776 C5777 1.397 . S
C5776 C5781 1.363 . S
C5777 H5748 0.950 . S
C5777 C5776 1.397 . S
C5777 C5778 1.334 . S
C5778 H5749 0.950 . S
C5778 C5777 1.334 . S
C5778 C5779 1.287 . S
C5779 C5778 1.287 . S
C5779 C5780 1.524 . S
C5779 H5782 0.999 . S
C5780 H5750 0.950 . S
C5780 C5779 1.524 . S
C5780 C5781 1.415 . S
C5781 H5751 0.950 . S
C5781 C5776 1.363 . S
C5781 C5780 1.415 . S
H5782 C5779 0.999 . S
H5783 C5764 0.913 . S
H5784 C5802 0.951 . S
H5785 C5804 0.951 . S
H5786 C5806 0.950 . S
H5787 C5807 0.950 . S
H5788 C5809 0.950 . S
H5789 C5812 0.950 . S
H5790 C5813 0.950 . S
H5791 C5815 0.950 . S
H5792 C5816 0.950 . S
H5793 C5817 0.951 . S
H5794 C5819 0.951 . S
H5795 C5821 0.950 . S
H5796 C5822 0.950 . S
H5797 C5824 0.950 . S
H5798 C5827 0.950 . S
H5799 C5828 0.950 . S
H5800 C5830 0.950 . S
H5801 C5831 0.950 . S
C5802 H5784 0.951 . S
C5802 C5803 1.366 . S
C5802 C5804 1.388 . S
C5803 C5802 1.366 . S
C5803 C5807 1.385 . S
C5804 H5785 0.951 . S
C5804 C5802 1.388 . S
C5804 C5805 1.366 . S
C5805 C5804 1.366 . S
C5805 C5806 1.414 . S
C5805 C5808 1.499 . S
C5806 H5786 0.950 . S
C5806 C5805 1.414 . S
C5806 C5807 1.374 . S
C5807 H5787 0.950 . S
C5807 C5803 1.385 . S
C5807 C5806 1.374 . S
C5808 C5805 1.499 . S
C5808 C5809 1.373 . S
C5808 C5810 1.389 . S
C5809 H5788 0.950 . S
C5809 C5808 1.373 . S
C5809 C5825 1.377 . S
C5810 C5808 1.389 . S
C5810 C5811 1.524 . S
C5810 C5824 1.377 . S
C5811 C5810 1.524 . S
C5811 C5812 1.397 . S
C5811 C5816 1.363 . S
C5812 H5789 0.950 . S
C5812 C5811 1.397 . S
C5812 C5813 1.334 . S
C5813 H5790 0.950 . S
C5813 C5812 1.334 . S
C5813 C5814 1.287 . S
C5814 C5813 1.287 . S
C5814 C5815 1.524 . S
C5814 H5833 0.913 . S
C5815 H5791 0.950 . S
C5815 C5814 1.524 . S
C5815 C5816 1.415 . S
C5816 H5792 0.950 . S
C5816 C5811 1.363 . S
C5816 C5815 1.415 . S
C5817 H5793 0.951 . S
C5817 C5818 1.366 . S
C5817 C5819 1.388 . S
C5818 C5817 1.366 . S
C5818 C5822 1.385 . S
C5819 H5794 0.951 . S
C5819 C5817 1.388 . S
C5819 C5820 1.366 . S
C5820 C5819 1.366 . S
C5820 C5821 1.414 . S
C5820 C5823 1.499 . S
C5821 H5795 0.950 . S
C5821 C5820 1.414 . S
C5821 C5822 1.374 . S
C5822 H5796 0.950 . S
C5822 C5818 1.385 . S
C5822 C5821 1.374 . S
C5823 C5820 1.499 . S
C5823 C5824 1.373 . S
C5823 C5825 1.389 . S
C5824 H5797 0.950 . S
C5824 C5810 1.377 . S
C5824 C5823 1.373 . S
C5825 C5809 1.377 . S
C5825 C5823 1.389 . S
C5825 C5826 1.524 . S
C5826 C5825 1.524 . S
C5826 C5827 1.397 . S
C5826 C5831 1.363 . S
C5827 H5798 0.950 . S
C5827 C5826 1.397 . S
C5827 C5828 1.334 . S
C5828 H5799 0.950 . S
C5828 C5827 1.334 . S
C5828 C5829 1.287 . S
C5829 C5828 1.287 . S
C5829 C5830 1.524 . S
C5829 H5832 0.999 . S
C5830 H5800 0.950 . S
C5830 C5829 1.524 . S
C5830 C5831 1.415 . S
C5831 H5801 0.950 . S
C5831 C5826 1.363 . S
C5831 C5830 1.415 . S
H5832 C5829 0.999 . S
H5833 C5814 0.913 . S
H5834 C5852 0.951 . S
H5835 C5854 0.951 . S
H5836 C5856 0.950 . S
H5837 C5857 0.950 . S
H5838 C5859 0.950 . S
H5839 C5862 0.950 . S
H5840 C5863 0.950 . S
H5841 C5865 0.950 . S
H5842 C5866 0.950 . S
H5843 C5867 0.951 . S
H5844 C5869 0.951 . S
H5845 C5871 0.950 . S
H5846 C5872 0.950 . S
H5847 C5874 0.950 . S
H5848 C5877 0.950 . S
H5849 C5878 0.950 . S
H5850 C5880 0.950 . S
H5851 C5881 0.950 . S
C5852 H5834 0.951 . S
C5852 C5853 1.366 . S
C5852 C5854 1.388 . S
C5853 C5852 1.366 . S
C5853 C5857 1.385 . S
C5854 H5835 0.951 . S
C5854 C5852 1.388 . S
C5854 C5855 1.366 . S
C5855 C5854 1.366 . S
C5855 C5856 1.414 . S
C5855 C5858 1.499 . S
C5856 H5836 0.950 . S
C5856 C5855 1.414 . S
C5856 C5857 1.374 . S
C5857 H5837 0.950 . S
C5857 C5853 1.385 . S
C5857 C5856 1.374 . S
C5858 C5855 1.499 . S
C5858 C5859 1.373 . S
C5858 C5860 1.389 . S
C5859 H5838 0.950 . S
C5859 C5858 1.373 . S
C5859 C5875 1.377 . S
C5860 C5858 1.389 . S
C5860 C5861 1.524 . S
C5860 C5874 1.377 . S
C5861 C5860 1.524 . S
C5861 C5862 1.397 . S
C5861 C5866 1.363 . S
C5862 H5839 0.950 . S
C5862 C5861 1.397 . S
C5862 C5863 1.334 . S
C5863 H5840 0.950 . S
C5863 C5862 1.334 . S
C5863 C5864 1.287 . S
C5864 C5863 1.287 . S
C5864 C5865 1.524 . S
C5864 H5883 0.913 . S
C5865 H5841 0.950 . S
C5865 C5864 1.524 . S
C5865 C5866 1.415 . S
C5866 H5842 0.950 . S
C5866 C5861 1.363 . S
C5866 C5865 1.415 . S
C5867 H5843 0.951 . S
C5867 C5868 1.366 . S
C5867 C5869 1.388 . S
C5868 C5867 1.366 . S
C5868 C5872 1.385 . S
C5869 H5844 0.951 . S
C5869 C5867 1.388 . S
C5869 C5870 1.366 . S
C5870 C5869 1.366 . S
C5870 C5871 1.414 . S
C5870 C5873 1.499 . S
C5871 H5845 0.950 . S
C5871 C5870 1.414 . S
C5871 C5872 1.374 . S
C5872 H5846 0.950 . S
C5872 C5868 1.385 . S
C5872 C5871 1.374 . S
C5873 C5870 1.499 . S
C5873 C5874 1.373 . S
C5873 C5875 1.389 . S
C5874 H5847 0.950 . S
C5874 C5860 1.377 . S
C5874 C5873 1.373 . S
C5875 C5859 1.377 . S
C5875 C5873 1.389 . S
C5875 C5876 1.524 . S
C5876 C5875 1.524 . S
C5876 C5877 1.397 . S
C5876 C5881 1.363 . S
C5877 H5848 0.950 . S
C5877 C5876 1.397 . S
C5877 C5878 1.334 . S
C5878 H5849 0.950 . S
C5878 C5877 1.334 . S
C5878 C5879 1.287 . S
C5879 C5878 1.287 . S
C5879 C5880 1.524 . S
C5879 H5882 0.999 . S
C5880 H5850 0.950 . S
C5880 C5879 1.524 . S
C5880 C5881 1.415 . S
C5881 H5851 0.950 . S
C5881 C5876 1.363 . S
C5881 C5880 1.415 . S
H5882 C5879 0.999 . S
H5883 C5864 0.913 . S
H5884 C5902 0.951 . S
H5885 C5904 0.951 . S
H5886 C5906 0.950 . S
H5887 C5907 0.950 . S
H5888 C5909 0.950 . S
H5889 C5912 0.950 . S
H5890 C5913 0.950 . S
H5891 C5915 0.950 . S
H5892 C5916 0.950 . S
H5893 C5917 0.951 . S
H5894 C5919 0.951 . S
H5895 C5921 0.950 . S
H5896 C5922 0.950 . S
H5897 C5924 0.950 . S
H5898 C5927 0.950 . S
H5899 C5928 0.950 . S
H5900 C5930 0.950 . S
H5901 C5931 0.950 . S
C5902 H5884 0.951 . S
C5902 C5903 1.366 . S
C5902 C5904 1.388 . S
C5903 C5902 1.366 . S
C5903 C5907 1.385 . S
C5904 H5885 0.951 . S
C5904 C5902 1.388 . S
C5904 C5905 1.366 . S
C5905 C5904 1.366 . S
C5905 C5906 1.414 . S
C5905 C5908 1.499 . S
C5906 H5886 0.950 . S
C5906 C5905 1.414 . S
C5906 C5907 1.374 . S
C5907 H5887 0.950 . S
C5907 C5903 1.385 . S
C5907 C5906 1.374 . S
C5908 C5905 1.499 . S
C5908 C5909 1.373 . S
C5908 C5910 1.389 . S
C5909 H5888 0.950 . S
C5909 C5908 1.373 . S
C5909 C5925 1.377 . S
C5910 C5908 1.389 . S
C5910 C5911 1.524 . S
C5910 C5924 1.377 . S
C5911 C5910 1.524 . S
C5911 C5912 1.397 . S
C5911 C5916 1.363 . S
C5912 H5889 0.950 . S
C5912 C5911 1.397 . S
C5912 C5913 1.334 . S
C5913 H5890 0.950 . S
C5913 C5912 1.334 . S
C5913 C5914 1.287 . S
C5914 C5913 1.287 . S
C5914 C5915 1.524 . S
C5914 H5933 0.913 . S
C5915 H5891 0.950 . S
C5915 C5914 1.524 . S
C5915 C5916 1.415 . S
C5916 H5892 0.950 . S
C5916 C5911 1.363 . S
C5916 C5915 1.415 . S
C5917 H5893 0.951 . S
C5917 C5918 1.366 . S
C5917 C5919 1.388 . S
C5918 C5917 1.366 . S
C5918 C5922 1.385 . S
C5919 H5894 0.951 . S
C5919 C5917 1.388 . S
C5919 C5920 1.366 . S
C5920 C5919 1.366 . S
C5920 C5921 1.414 . S
C5920 C5923 1.499 . S
C5921 H5895 0.950 . S
C5921 C5920 1.414 . S
C5921 C5922 1.374 . S
C5922 H5896 0.950 . S
C5922 C5918 1.385 . S
C5922 C5921 1.374 . S
C5923 C5920 1.499 . S
C5923 C5924 1.373 . S
C5923 C5925 1.389 . S
C5924 H5897 0.950 . S
C5924 C5910 1.377 . S
C5924 C5923 1.373 . S
C5925 C5909 1.377 . S
C5925 C5923 1.389 . S
C5925 C5926 1.524 . S
C5926 C5925 1.524 . S
C5926 C5927 1.397 . S
C5926 C5931 1.363 . S
C5927 H5898 0.950 . S
C5927 C5926 1.397 . S
C5927 C5928 1.334 . S
C5928 H5899 0.950 . S
C5928 C5927 1.334 . S
C5928 C5929 1.287 . S
C5929 C5928 1.287 . S
C5929 C5930 1.524 . S
C5929 H5932 0.999 . S
C5930 H5900 0.950 . S
C5930 C5929 1.524 . S
C5930 C5931 1.415 . S
C5931 H5901 0.950 . S
C5931 C5926 1.363 . S
C5931 C5930 1.415 . S
H5932 C5929 0.999 . S
H5933 C5914 0.913 . S
H5934 C5952 0.951 . S
H5935 C5954 0.951 . S
H5936 C5956 0.950 . S
H5937 C5957 0.950 . S
H5938 C5959 0.950 . S
H5939 C5962 0.950 . S
H5940 C5963 0.950 . S
H5941 C5965 0.950 . S
H5942 C5966 0.950 . S
H5943 C5967 0.951 . S
H5944 C5969 0.951 . S
H5945 C5971 0.950 . S
H5946 C5972 0.950 . S
H5947 C5974 0.950 . S
H5948 C5977 0.950 . S
H5949 C5978 0.950 . S
H5950 C5980 0.950 . S
H5951 C5981 0.950 . S
C5952 H5934 0.951 . S
C5952 C5953 1.366 . S
C5952 C5954 1.388 . S
C5953 C5952 1.366 . S
C5953 C5957 1.385 . S
C5954 H5935 0.951 . S
C5954 C5952 1.388 . S
C5954 C5955 1.366 . S
C5955 C5954 1.366 . S
C5955 C5956 1.414 . S
C5955 C5958 1.499 . S
C5956 H5936 0.950 . S
C5956 C5955 1.414 . S
C5956 C5957 1.374 . S
C5957 H5937 0.950 . S
C5957 C5953 1.385 . S
C5957 C5956 1.374 . S
C5958 C5955 1.499 . S
C5958 C5959 1.373 . S
C5958 C5960 1.389 . S
C5959 H5938 0.950 . S
C5959 C5958 1.373 . S
C5959 C5975 1.377 . S
C5960 C5958 1.389 . S
C5960 C5961 1.524 . S
C5960 C5974 1.377 . S
C5961 C5960 1.524 . S
C5961 C5962 1.397 . S
C5961 C5966 1.363 . S
C5962 H5939 0.950 . S
C5962 C5961 1.397 . S
C5962 C5963 1.334 . S
C5963 H5940 0.950 . S
C5963 C5962 1.334 . S
C5963 C5964 1.287 . S
C5964 C5963 1.287 . S
C5964 C5965 1.524 . S
C5964 H5983 0.913 . S
C5965 H5941 0.950 . S
C5965 C5964 1.524 . S
C5965 C5966 1.415 . S
C5966 H5942 0.950 . S
C5966 C5961 1.363 . S
C5966 C5965 1.415 . S
C5967 H5943 0.951 . S
C5967 C5968 1.366 . S
C5967 C5969 1.388 . S
C5968 C5967 1.366 . S
C5968 C5972 1.385 . S
C5969 H5944 0.951 . S
C5969 C5967 1.388 . S
C5969 C5970 1.366 . S
C5970 C5969 1.366 . S
C5970 C5971 1.414 . S
C5970 C5973 1.499 . S
C5971 H5945 0.950 . S
C5971 C5970 1.414 . S
C5971 C5972 1.374 . S
C5972 H5946 0.950 . S
C5972 C5968 1.385 . S
C5972 C5971 1.374 . S
C5973 C5970 1.499 . S
C5973 C5974 1.373 . S
C5973 C5975 1.389 . S
C5974 H5947 0.950 . S
C5974 C5960 1.377 . S
C5974 C5973 1.373 . S
C5975 C5959 1.377 . S
C5975 C5973 1.389 . S
C5975 C5976 1.524 . S
C5976 C5975 1.524 . S
C5976 C5977 1.397 . S
C5976 C5981 1.363 . S
C5977 H5948 0.950 . S
C5977 C5976 1.397 . S
C5977 C5978 1.334 . S
C5978 H5949 0.950 . S
C5978 C5977 1.334 . S
C5978 C5979 1.287 . S
C5979 C5978 1.287 . S
C5979 C5980 1.524 . S
C5979 H5982 0.999 . S
C5980 H5950 0.950 . S
C5980 C5979 1.524 . S
C5980 C5981 1.415 . S
C5981 H5951 0.950 . S
C5981 C5976 1.363 . S
C5981 C5980 1.415 . S
H5982 C5979 0.999 . S
H5983 C5964 0.913 . S
H5984 C6002 0.951 . S
H5985 C6004 0.951 . S
H5986 C6006 0.950 . S
H5987 C6007 0.950 . S
H5988 C6009 0.950 . S
H5989 C6012 0.950 . S
H5990 C6013 0.950 . S
H5991 C6015 0.950 . S
H5992 C6016 0.950 . S
H5993 C6017 0.951 . S
H5994 C6019 0.951 . S
H5995 C6021 0.950 . S
H5996 C6022 0.950 . S
H5997 C6024 0.950 . S
H5998 C6027 0.950 . S
H5999 C6028 0.950 . S
H6000 C6030 0.950 . S
H6001 C6031 0.950 . S
C6002 H5984 0.951 . S
C6002 C6003 1.366 . S
C6002 C6004 1.388 . S
C6003 C6002 1.366 . S
C6003 C6007 1.385 . S
C6004 H5985 0.951 . S
C6004 C6002 1.388 . S
C6004 C6005 1.366 . S
C6005 C6004 1.366 . S
C6005 C6006 1.414 . S
C6005 C6008 1.499 . S
C6006 H5986 0.950 . S
C6006 C6005 1.414 . S
C6006 C6007 1.374 . S
C6007 H5987 0.950 . S
C6007 C6003 1.385 . S
C6007 C6006 1.374 . S
C6008 C6005 1.499 . S
C6008 C6009 1.373 . S
C6008 C6010 1.389 . S
C6009 H5988 0.950 . S
C6009 C6008 1.373 . S
C6009 C6025 1.377 . S
C6010 C6008 1.389 . S
C6010 C6011 1.524 . S
C6010 C6024 1.377 . S
C6011 C6010 1.524 . S
C6011 C6012 1.397 . S
C6011 C6016 1.363 . S
C6012 H5989 0.950 . S
C6012 C6011 1.397 . S
C6012 C6013 1.334 . S
C6013 H5990 0.950 . S
C6013 C6012 1.334 . S
C6013 C6014 1.287 . S
C6014 C6013 1.287 . S
C6014 C6015 1.524 . S
C6014 H6033 0.913 . S
C6015 H5991 0.950 . S
C6015 C6014 1.524 . S
C6015 C6016 1.415 . S
C6016 H5992 0.950 . S
C6016 C6011 1.363 . S
C6016 C6015 1.415 . S
C6017 H5993 0.951 . S
C6017 C6018 1.366 . S
C6017 C6019 1.388 . S
C6018 C6017 1.366 . S
C6018 C6022 1.385 . S
C6019 H5994 0.951 . S
C6019 C6017 1.388 . S
C6019 C6020 1.366 . S
C6020 C6019 1.366 . S
C6020 C6021 1.414 . S
C6020 C6023 1.499 . S
C6021 H5995 0.950 . S
C6021 C6020 1.414 . S
C6021 C6022 1.374 . S
C6022 H5996 0.950 . S
C6022 C6018 1.385 . S
C6022 C6021 1.374 . S
C6023 C6020 1.499 . S
C6023 C6024 1.373 . S
C6023 C6025 1.389 . S
C6024 H5997 0.950 . S
C6024 C6010 1.377 . S
C6024 C6023 1.373 . S
C6025 C6009 1.377 . S
C6025 C6023 1.389 . S
C6025 C6026 1.524 . S
C6026 C6025 1.524 . S
C6026 C6027 1.397 . S
C6026 C6031 1.363 . S
C6027 H5998 0.950 . S
C6027 C6026 1.397 . S
C6027 C6028 1.334 . S
C6028 H5999 0.950 . S
C6028 C6027 1.334 . S
C6028 C6029 1.287 . S
C6029 C6028 1.287 . S
C6029 C6030 1.524 . S
C6029 H6032 0.999 . S
C6030 H6000 0.950 . S
C6030 C6029 1.524 . S
C6030 C6031 1.415 . S
C6031 H6001 0.950 . S
C6031 C6026 1.363 . S
C6031 C6030 1.415 . S
H6032 C6029 0.999 . S
H6033 C6014 0.913 . S
H6034 C6052 0.951 . S
H6035 C6054 0.951 . S
H6036 C6056 0.950 . S
H6037 C6057 0.950 . S
H6038 C6059 0.950 . S
H6039 C6062 0.950 . S
H6040 C6063 0.950 . S
H6041 C6065 0.950 . S
H6042 C6066 0.950 . S
H6043 C6067 0.951 . S
H6044 C6069 0.951 . S
H6045 C6071 0.950 . S
H6046 C6072 0.950 . S
H6047 C6074 0.950 . S
H6048 C6077 0.950 . S
H6049 C6078 0.950 . S
H6050 C6080 0.950 . S
H6051 C6081 0.950 . S
C6052 H6034 0.951 . S
C6052 C6053 1.366 . S
C6052 C6054 1.388 . S
C6053 C6052 1.366 . S
C6053 C6057 1.385 . S
C6054 H6035 0.951 . S
C6054 C6052 1.388 . S
C6054 C6055 1.366 . S
C6055 C6054 1.366 . S
C6055 C6056 1.414 . S
C6055 C6058 1.499 . S
C6056 H6036 0.950 . S
C6056 C6055 1.414 . S
C6056 C6057 1.374 . S
C6057 H6037 0.950 . S
C6057 C6053 1.385 . S
C6057 C6056 1.374 . S
C6058 C6055 1.499 . S
C6058 C6059 1.373 . S
C6058 C6060 1.389 . S
C6059 H6038 0.950 . S
C6059 C6058 1.373 . S
C6059 C6075 1.377 . S
C6060 C6058 1.389 . S
C6060 C6061 1.524 . S
C6060 C6074 1.377 . S
C6061 C6060 1.524 . S
C6061 C6062 1.397 . S
C6061 C6066 1.363 . S
C6062 H6039 0.950 . S
C6062 C6061 1.397 . S
C6062 C6063 1.334 . S
C6063 H6040 0.950 . S
C6063 C6062 1.334 . S
C6063 C6064 1.287 . S
C6064 C6063 1.287 . S
C6064 C6065 1.524 . S
C6064 H6083 0.913 . S
C6065 H6041 0.950 . S
C6065 C6064 1.524 . S
C6065 C6066 1.415 . S
C6066 H6042 0.950 . S
C6066 C6061 1.363 . S
C6066 C6065 1.415 . S
C6067 H6043 0.951 . S
C6067 C6068 1.366 . S
C6067 C6069 1.388 . S
C6068 C6067 1.366 . S
C6068 C6072 1.385 . S
C6069 H6044 0.951 . S
C6069 C6067 1.388 . S
C6069 C6070 1.366 . S
C6070 C6069 1.366 . S
C6070 C6071 1.414 . S
C6070 C6073 1.499 . S
C6071 H6045 0.950 . S
C6071 C6070 1.414 . S
C6071 C6072 1.374 . S
C6072 H6046 0.950 . S
C6072 C6068 1.385 . S
C6072 C6071 1.374 . S
C6073 C6070 1.499 . S
C6073 C6074 1.373 . S
C6073 C6075 1.389 . S
C6074 H6047 0.950 . S
C6074 C6060 1.377 . S
C6074 C6073 1.373 . S
C6075 C6059 1.377 . S
C6075 C6073 1.389 . S
C6075 C6076 1.524 . S
C6076 C6075 1.524 . S
C6076 C6077 1.397 . S
C6076 C6081 1.363 . S
C6077 H6048 0.950 . S
C6077 C6076 1.397 . S
C6077 C6078 1.334 . S
C6078 H6049 0.950 . S
C6078 C6077 1.334 . S
C6078 C6079 1.287 . S
C6079 C6078 1.287 . S
C6079 C6080 1.524 . S
C6079 H6082 0.999 . S
C6080 H6050 0.950 . S
C6080 C6079 1.524 . S
C6080 C6081 1.415 . S
C6081 H6051 0.950 . S
C6081 C6076 1.363 . S
C6081 C6080 1.415 . S
H6082 C6079 0.999 . S
H6083 C6064 0.913 . S
H6084 C6102 0.951 . S
H6085 C6104 0.951 . S
H6086 C6106 0.950 . S
H6087 C6107 0.950 . S
H6088 C6109 0.950 . S
H6089 C6112 0.950 . S
H6090 C6113 0.950 . S
H6091 C6115 0.950 . S
H6092 C6116 0.950 . S
H6093 C6117 0.951 . S
H6094 C6119 0.951 . S
H6095 C6121 0.950 . S
H6096 C6122 0.950 . S
H6097 C6124 0.950 . S
H6098 C6127 0.950 . S
H6099 C6128 0.950 . S
H6100 C6130 0.950 . S
H6101 C6131 0.950 . S
C6102 H6084 0.951 . S
C6102 C6103 1.366 . S
C6102 C6104 1.388 . S
C6103 C6102 1.366 . S
C6103 C6107 1.385 . S
C6104 H6085 0.951 . S
C6104 C6102 1.388 . S
C6104 C6105 1.366 . S
C6105 C6104 1.366 . S
C6105 C6106 1.414 . S
C6105 C6108 1.499 . S
C6106 H6086 0.950 . S
C6106 C6105 1.414 . S
C6106 C6107 1.374 . S
C6107 H6087 0.950 . S
C6107 C6103 1.385 . S
C6107 C6106 1.374 . S
C6108 C6105 1.499 . S
C6108 C6109 1.373 . S
C6108 C6110 1.389 . S
C6109 H6088 0.950 . S
C6109 C6108 1.373 . S
C6109 C6125 1.377 . S
C6110 C6108 1.389 . S
C6110 C6111 1.524 . S
C6110 C6124 1.377 . S
C6111 C6110 1.524 . S
C6111 C6112 1.397 . S
C6111 C6116 1.363 . S
C6112 H6089 0.950 . S
C6112 C6111 1.397 . S
C6112 C6113 1.334 . S
C6113 H6090 0.950 . S
C6113 C6112 1.334 . S
C6113 C6114 1.287 . S
C6114 C6113 1.287 . S
C6114 C6115 1.524 . S
C6114 H6133 0.913 . S
C6115 H6091 0.950 . S
C6115 C6114 1.524 . S
C6115 C6116 1.415 . S
C6116 H6092 0.950 . S
C6116 C6111 1.363 . S
C6116 C6115 1.415 . S
C6117 H6093 0.951 . S
C6117 C6118 1.366 . S
C6117 C6119 1.388 . S
C6118 C6117 1.366 . S
C6118 C6122 1.385 . S
C6119 H6094 0.951 . S
C6119 C6117 1.388 . S
C6119 C6120 1.366 . S
C6120 C6119 1.366 . S
C6120 C6121 1.414 . S
C6120 C6123 1.499 . S
C6121 H6095 0.950 . S
C6121 C6120 1.414 . S
C6121 C6122 1.374 . S
C6122 H6096 0.950 . S
C6122 C6118 1.385 . S
C6122 C6121 1.374 . S
C6123 C6120 1.499 . S
C6123 C6124 1.373 . S
C6123 C6125 1.389 . S
C6124 H6097 0.950 . S
C6124 C6110 1.377 . S
C6124 C6123 1.373 . S
C6125 C6109 1.377 . S
C6125 C6123 1.389 . S
C6125 C6126 1.524 . S
C6126 C6125 1.524 . S
C6126 C6127 1.397 . S
C6126 C6131 1.363 . S
C6127 H6098 0.950 . S
C6127 C6126 1.397 . S
C6127 C6128 1.334 . S
C6128 H6099 0.950 . S
C6128 C6127 1.334 . S
C6128 C6129 1.287 . S
C6129 C6128 1.287 . S
C6129 C6130 1.524 . S
C6129 H6132 0.999 . S
C6130 H6100 0.950 . S
C6130 C6129 1.524 . S
C6130 C6131 1.415 . S
C6131 H6101 0.950 . S
C6131 C6126 1.363 . S
C6131 C6130 1.415 . S
H6132 C6129 0.999 . S
H6133 C6114 0.913 . S
H6134 C6152 0.951 . S
H6135 C6154 0.951 . S
H6136 C6156 0.950 . S
H6137 C6157 0.950 . S
H6138 C6159 0.950 . S
H6139 C6162 0.950 . S
H6140 C6163 0.950 . S
H6141 C6165 0.950 . S
H6142 C6166 0.950 . S
H6143 C6167 0.951 . S
H6144 C6169 0.951 . S
H6145 C6171 0.950 . S
H6146 C6172 0.950 . S
H6147 C6174 0.950 . S
H6148 C6177 0.950 . S
H6149 C6178 0.950 . S
H6150 C6180 0.950 . S
H6151 C6181 0.950 . S
C6152 H6134 0.951 . S
C6152 C6153 1.366 . S
C6152 C6154 1.388 . S
C6153 C6152 1.366 . S
C6153 C6157 1.385 . S
C6154 H6135 0.951 . S
C6154 C6152 1.388 . S
C6154 C6155 1.366 . S
C6155 C6154 1.366 . S
C6155 C6156 1.414 . S
C6155 C6158 1.499 . S
C6156 H6136 0.950 . S
C6156 C6155 1.414 . S
C6156 C6157 1.374 . S
C6157 H6137 0.950 . S
C6157 C6153 1.385 . S
C6157 C6156 1.374 . S
C6158 C6155 1.499 . S
C6158 C6159 1.373 . S
C6158 C6160 1.389 . S
C6159 H6138 0.950 . S
C6159 C6158 1.373 . S
C6159 C6175 1.377 . S
C6160 C6158 1.389 . S
C6160 C6161 1.524 . S
C6160 C6174 1.377 . S
C6161 C6160 1.524 . S
C6161 C6162 1.397 . S
C6161 C6166 1.363 . S
C6162 H6139 0.950 . S
C6162 C6161 1.397 . S
C6162 C6163 1.334 . S
C6163 H6140 0.950 . S
C6163 C6162 1.334 . S
C6163 C6164 1.287 . S
C6164 C6163 1.287 . S
C6164 C6165 1.524 . S
C6164 H6183 0.913 . S
C6165 H6141 0.950 . S
C6165 C6164 1.524 . S
C6165 C6166 1.415 . S
C6166 H6142 0.950 . S
C6166 C6161 1.363 . S
C6166 C6165 1.415 . S
C6167 H6143 0.951 . S
C6167 C6168 1.366 . S
C6167 C6169 1.388 . S
C6168 C6167 1.366 . S
C6168 C6172 1.385 . S
C6169 H6144 0.951 . S
C6169 C6167 1.388 . S
C6169 C6170 1.366 . S
C6170 C6169 1.366 . S
C6170 C6171 1.414 . S
C6170 C6173 1.499 . S
C6171 H6145 0.950 . S
C6171 C6170 1.414 . S
C6171 C6172 1.374 . S
C6172 H6146 0.950 . S
C6172 C6168 1.385 . S
C6172 C6171 1.374 . S
C6173 C6170 1.499 . S
C6173 C6174 1.373 . S
C6173 C6175 1.389 . S
C6174 H6147 0.950 . S
C6174 C6160 1.377 . S
C6174 C6173 1.373 . S
C6175 C6159 1.377 . S
C6175 C6173 1.389 . S
C6175 C6176 1.524 . S
C6176 C6175 1.524 . S
C6176 C6177 1.397 . S
C6176 C6181 1.363 . S
C6177 H6148 0.950 . S
C6177 C6176 1.397 . S
C6177 C6178 1.334 . S
C6178 H6149 0.950 . S
C6178 C6177 1.334 . S
C6178 C6179 1.287 . S
C6179 C6178 1.287 . S
C6179 C6180 1.524 . S
C6179 H6182 0.999 . S
C6180 H6150 0.950 . S
C6180 C6179 1.524 . S
C6180 C6181 1.415 . S
C6181 H6151 0.950 . S
C6181 C6176 1.363 . S
C6181 C6180 1.415 . S
H6182 C6179 0.999 . S
H6183 C6164 0.913 . S
H6184 C6202 0.951 . S
H6185 C6204 0.951 . S
H6186 C6206 0.950 . S
H6187 C6207 0.950 . S
H6188 C6209 0.950 . S
H6189 C6212 0.950 . S
H6190 C6213 0.950 . S
H6191 C6215 0.950 . S
H6192 C6216 0.950 . S
H6193 C6217 0.951 . S
H6194 C6219 0.951 . S
H6195 C6221 0.950 . S
H6196 C6222 0.950 . S
H6197 C6224 0.950 . S
H6198 C6227 0.950 . S
H6199 C6228 0.950 . S
H6200 C6230 0.950 . S
H6201 C6231 0.950 . S
C6202 H6184 0.951 . S
C6202 C6203 1.366 . S
C6202 C6204 1.388 . S
C6203 C6202 1.366 . S
C6203 C6207 1.385 . S
C6204 H6185 0.951 . S
C6204 C6202 1.388 . S
C6204 C6205 1.366 . S
C6205 C6204 1.366 . S
C6205 C6206 1.414 . S
C6205 C6208 1.499 . S
C6206 H6186 0.950 . S
C6206 C6205 1.414 . S
C6206 C6207 1.374 . S
C6207 H6187 0.950 . S
C6207 C6203 1.385 . S
C6207 C6206 1.374 . S
C6208 C6205 1.499 . S
C6208 C6209 1.373 . S
C6208 C6210 1.389 . S
C6209 H6188 0.950 . S
C6209 C6208 1.373 . S
C6209 C6225 1.377 . S
C6210 C6208 1.389 . S
C6210 C6211 1.524 . S
C6210 C6224 1.377 . S
C6211 C6210 1.524 . S
C6211 C6212 1.397 . S
C6211 C6216 1.363 . S
C6212 H6189 0.950 . S
C6212 C6211 1.397 . S
C6212 C6213 1.334 . S
C6213 H6190 0.950 . S
C6213 C6212 1.334 . S
C6213 C6214 1.287 . S
C6214 C6213 1.287 . S
C6214 C6215 1.524 . S
C6214 H6233 0.913 . S
C6215 H6191 0.950 . S
C6215 C6214 1.524 . S
C6215 C6216 1.415 . S
C6216 H6192 0.950 . S
C6216 C6211 1.363 . S
C6216 C6215 1.415 . S
C6217 H6193 0.951 . S
C6217 C6218 1.366 . S
C6217 C6219 1.388 . S
C6218 C6217 1.366 . S
C6218 C6222 1.385 . S
C6219 H6194 0.951 . S
C6219 C6217 1.388 . S
C6219 C6220 1.366 . S
C6220 C6219 1.366 . S
C6220 C6221 1.414 . S
C6220 C6223 1.499 . S
C6221 H6195 0.950 . S
C6221 C6220 1.414 . S
C6221 C6222 1.374 . S
C6222 H6196 0.950 . S
C6222 C6218 1.385 . S
C6222 C6221 1.374 . S
C6223 C6220 1.499 . S
C6223 C6224 1.373 . S
C6223 C6225 1.389 . S
C6224 H6197 0.950 . S
C6224 C6210 1.377 . S
C6224 C6223 1.373 . S
C6225 C6209 1.377 . S
C6225 C6223 1.389 . S
C6225 C6226 1.524 . S
C6226 C6225 1.524 . S
C6226 C6227 1.397 . S
C6226 C6231 1.363 . S
C6227 H6198 0.950 . S
C6227 C6226 1.397 . S
C6227 C6228 1.334 . S
C6228 H6199 0.950 . S
C6228 C6227 1.334 . S
C6228 C6229 1.287 . S
C6229 C6228 1.287 . S
C6229 C6230 1.524 . S
C6229 H6232 0.999 . S
C6230 H6200 0.950 . S
C6230 C6229 1.524 . S
C6230 C6231 1.415 . S
C6231 H6201 0.950 . S
C6231 C6226 1.363 . S
C6231 C6230 1.415 . S
H6232 C6229 0.999 . S
H6233 C6214 0.913 . S
H6234 C6252 0.951 . S
H6235 C6254 0.951 . S
H6236 C6256 0.950 . S
H6237 C6257 0.950 . S
H6238 C6259 0.950 . S
H6239 C6262 0.950 . S
H6240 C6263 0.950 . S
H6241 C6265 0.950 . S
H6242 C6266 0.950 . S
H6243 C6267 0.951 . S
H6244 C6269 0.951 . S
H6245 C6271 0.950 . S
H6246 C6272 0.950 . S
H6247 C6274 0.950 . S
H6248 C6277 0.950 . S
H6249 C6278 0.950 . S
H6250 C6280 0.950 . S
H6251 C6281 0.950 . S
C6252 H6234 0.951 . S
C6252 C6253 1.366 . S
C6252 C6254 1.388 . S
C6253 C6252 1.366 . S
C6253 C6257 1.385 . S
C6254 H6235 0.951 . S
C6254 C6252 1.388 . S
C6254 C6255 1.366 . S
C6255 C6254 1.366 . S
C6255 C6256 1.414 . S
C6255 C6258 1.499 . S
C6256 H6236 0.950 . S
C6256 C6255 1.414 . S
C6256 C6257 1.374 . S
C6257 H6237 0.950 . S
C6257 C6253 1.385 . S
C6257 C6256 1.374 . S
C6258 C6255 1.499 . S
C6258 C6259 1.373 . S
C6258 C6260 1.389 . S
C6259 H6238 0.950 . S
C6259 C6258 1.373 . S
C6259 C6275 1.377 . S
C6260 C6258 1.389 . S
C6260 C6261 1.524 . S
C6260 C6274 1.377 . S
C6261 C6260 1.524 . S
C6261 C6262 1.397 . S
C6261 C6266 1.363 . S
C6262 H6239 0.950 . S
C6262 C6261 1.397 . S
C6262 C6263 1.334 . S
C6263 H6240 0.950 . S
C6263 C6262 1.334 . S
C6263 C6264 1.287 . S
C6264 C6263 1.287 . S
C6264 C6265 1.524 . S
C6264 H6283 0.913 . S
C6265 H6241 0.950 . S
C6265 C6264 1.524 . S
C6265 C6266 1.415 . S
C6266 H6242 0.950 . S
C6266 C6261 1.363 . S
C6266 C6265 1.415 . S
C6267 H6243 0.951 . S
C6267 C6268 1.366 . S
C6267 C6269 1.388 . S
C6268 C6267 1.366 . S
C6268 C6272 1.385 . S
C6269 H6244 0.951 . S
C6269 C6267 1.388 . S
C6269 C6270 1.366 . S
C6270 C6269 1.366 . S
C6270 C6271 1.414 . S
C6270 C6273 1.499 . S
C6271 H6245 0.950 . S
C6271 C6270 1.414 . S
C6271 C6272 1.374 . S
C6272 H6246 0.950 . S
C6272 C6268 1.385 . S
C6272 C6271 1.374 . S
C6273 C6270 1.499 . S
C6273 C6274 1.373 . S
C6273 C6275 1.389 . S
C6274 H6247 0.950 . S
C6274 C6260 1.377 . S
C6274 C6273 1.373 . S
C6275 C6259 1.377 . S
C6275 C6273 1.389 . S
C6275 C6276 1.524 . S
C6276 C6275 1.524 . S
C6276 C6277 1.397 . S
C6276 C6281 1.363 . S
C6277 H6248 0.950 . S
C6277 C6276 1.397 . S
C6277 C6278 1.334 . S
C6278 H6249 0.950 . S
C6278 C6277 1.334 . S
C6278 C6279 1.287 . S
C6279 C6278 1.287 . S
C6279 C6280 1.524 . S
C6279 H6282 0.999 . S
C6280 H6250 0.950 . S
C6280 C6279 1.524 . S
C6280 C6281 1.415 . S
C6281 H6251 0.950 . S
C6281 C6276 1.363 . S
C6281 C6280 1.415 . S
H6282 C6279 0.999 . S
H6283 C6264 0.913 . S
H6284 C6302 0.951 . S
H6285 C6304 0.951 . S
H6286 C6306 0.950 . S
H6287 C6307 0.950 . S
H6288 C6309 0.950 . S
H6289 C6312 0.950 . S
H6290 C6313 0.950 . S
H6291 C6315 0.950 . S
H6292 C6316 0.950 . S
H6293 C6317 0.951 . S
H6294 C6319 0.951 . S
H6295 C6321 0.950 . S
H6296 C6322 0.950 . S
H6297 C6324 0.950 . S
H6298 C6327 0.950 . S
H6299 C6328 0.950 . S
H6300 C6330 0.950 . S
H6301 C6331 0.950 . S
C6302 H6284 0.951 . S
C6302 C6303 1.366 . S
C6302 C6304 1.388 . S
C6303 C6302 1.366 . S
C6303 C6307 1.385 . S
C6304 H6285 0.951 . S
C6304 C6302 1.388 . S
C6304 C6305 1.366 . S
C6305 C6304 1.366 . S
C6305 C6306 1.414 . S
C6305 C6308 1.499 . S
C6306 H6286 0.950 . S
C6306 C6305 1.414 . S
C6306 C6307 1.374 . S
C6307 H6287 0.950 . S
C6307 C6303 1.385 . S
C6307 C6306 1.374 . S
C6308 C6305 1.499 . S
C6308 C6309 1.373 . S
C6308 C6310 1.389 . S
C6309 H6288 0.950 . S
C6309 C6308 1.373 . S
C6309 C6325 1.377 . S
C6310 C6308 1.389 . S
C6310 C6311 1.524 . S
C6310 C6324 1.377 . S
C6311 C6310 1.524 . S
C6311 C6312 1.397 . S
C6311 C6316 1.363 . S
C6312 H6289 0.950 . S
C6312 C6311 1.397 . S
C6312 C6313 1.334 . S
C6313 H6290 0.950 . S
C6313 C6312 1.334 . S
C6313 C6314 1.287 . S
C6314 C6313 1.287 . S
C6314 C6315 1.524 . S
C6314 H6333 0.913 . S
C6315 H6291 0.950 . S
C6315 C6314 1.524 . S
C6315 C6316 1.415 . S
C6316 H6292 0.950 . S
C6316 C6311 1.363 . S
C6316 C6315 1.415 . S
C6317 H6293 0.951 . S
C6317 C6318 1.366 . S
C6317 C6319 1.388 . S
C6318 C6317 1.366 . S
C6318 C6322 1.385 . S
C6319 H6294 0.951 . S
C6319 C6317 1.388 . S
C6319 C6320 1.366 . S
C6320 C6319 1.366 . S
C6320 C6321 1.414 . S
C6320 C6323 1.499 . S
C6321 H6295 0.950 . S
C6321 C6320 1.414 . S
C6321 C6322 1.374 . S
C6322 H6296 0.950 . S
C6322 C6318 1.385 . S
C6322 C6321 1.374 . S
C6323 C6320 1.499 . S
C6323 C6324 1.373 . S
C6323 C6325 1.389 . S
C6324 H6297 0.950 . S
C6324 C6310 1.377 . S
C6324 C6323 1.373 . S
C6325 C6309 1.377 . S
C6325 C6323 1.389 . S
C6325 C6326 1.524 . S
C6326 C6325 1.524 . S
C6326 C6327 1.397 . S
C6326 C6331 1.363 . S
C6327 H6298 0.950 . S
C6327 C6326 1.397 . S
C6327 C6328 1.334 . S
C6328 H6299 0.950 . S
C6328 C6327 1.334 . S
C6328 C6329 1.287 . S
C6329 C6328 1.287 . S
C6329 C6330 1.524 . S
C6329 H6332 0.999 . S
C6330 H6300 0.950 . S
C6330 C6329 1.524 . S
C6330 C6331 1.415 . S
C6331 H6301 0.950 . S
C6331 C6326 1.363 . S
C6331 C6330 1.415 . S
H6332 C6329 0.999 . S
H6333 C6314 0.913 . S
H6334 C6352 0.951 . S
H6335 C6354 0.951 . S
H6336 C6356 0.950 . S
H6337 C6357 0.950 . S
H6338 C6359 0.950 . S
H6339 C6362 0.950 . S
H6340 C6363 0.950 . S
H6341 C6365 0.950 . S
H6342 C6366 0.950 . S
H6343 C6367 0.951 . S
H6344 C6369 0.951 . S
H6345 C6371 0.950 . S
H6346 C6372 0.950 . S
H6347 C6374 0.950 . S
H6348 C6377 0.950 . S
H6349 C6378 0.950 . S
H6350 C6380 0.950 . S
H6351 C6381 0.950 . S
C6352 H6334 0.951 . S
C6352 C6353 1.366 . S
C6352 C6354 1.388 . S
C6353 C6352 1.366 . S
C6353 C6357 1.385 . S
C6354 H6335 0.951 . S
C6354 C6352 1.388 . S
C6354 C6355 1.366 . S
C6355 C6354 1.366 . S
C6355 C6356 1.414 . S
C6355 C6358 1.499 . S
C6356 H6336 0.950 . S
C6356 C6355 1.414 . S
C6356 C6357 1.374 . S
C6357 H6337 0.950 . S
C6357 C6353 1.385 . S
C6357 C6356 1.374 . S
C6358 C6355 1.499 . S
C6358 C6359 1.373 . S
C6358 C6360 1.389 . S
C6359 H6338 0.950 . S
C6359 C6358 1.373 . S
C6359 C6375 1.377 . S
C6360 C6358 1.389 . S
C6360 C6361 1.524 . S
C6360 C6374 1.377 . S
C6361 C6360 1.524 . S
C6361 C6362 1.397 . S
C6361 C6366 1.363 . S
C6362 H6339 0.950 . S
C6362 C6361 1.397 . S
C6362 C6363 1.334 . S
C6363 H6340 0.950 . S
C6363 C6362 1.334 . S
C6363 C6364 1.287 . S
C6364 C6363 1.287 . S
C6364 C6365 1.524 . S
C6364 H6383 0.913 . S
C6365 H6341 0.950 . S
C6365 C6364 1.524 . S
C6365 C6366 1.415 . S
C6366 H6342 0.950 . S
C6366 C6361 1.363 . S
C6366 C6365 1.415 . S
C6367 H6343 0.951 . S
C6367 C6368 1.366 . S
C6367 C6369 1.388 . S
C6368 C6367 1.366 . S
C6368 C6372 1.385 . S
C6369 H6344 0.951 . S
C6369 C6367 1.388 . S
C6369 C6370 1.366 . S
C6370 C6369 1.366 . S
C6370 C6371 1.414 . S
C6370 C6373 1.499 . S
C6371 H6345 0.950 . S
C6371 C6370 1.414 . S
C6371 C6372 1.374 . S
C6372 H6346 0.950 . S
C6372 C6368 1.385 . S
C6372 C6371 1.374 . S
C6373 C6370 1.499 . S
C6373 C6374 1.373 . S
C6373 C6375 1.389 . S
C6374 H6347 0.950 . S
C6374 C6360 1.377 . S
C6374 C6373 1.373 . S
C6375 C6359 1.377 . S
C6375 C6373 1.389 . S
C6375 C6376 1.524 . S
C6376 C6375 1.524 . S
C6376 C6377 1.397 . S
C6376 C6381 1.363 . S
C6377 H6348 0.950 . S
C6377 C6376 1.397 . S
C6377 C6378 1.334 . S
C6378 H6349 0.950 . S
C6378 C6377 1.334 . S
C6378 C6379 1.287 . S
C6379 C6378 1.287 . S
C6379 C6380 1.524 . S
C6379 H6382 0.999 . S
C6380 H6350 0.950 . S
C6380 C6379 1.524 . S
C6380 C6381 1.415 . S
C6381 H6351 0.950 . S
C6381 C6376 1.363 . S
C6381 C6380 1.415 . S
H6382 C6379 0.999 . S
H6383 C6364 0.913 . S
H6384 C6402 0.951 . S
H6385 C6404 0.951 . S
H6386 C6406 0.950 . S
H6387 C6407 0.950 . S
H6388 C6409 0.950 . S
H6389 C6412 0.950 . S
H6390 C6413 0.950 . S
H6391 C6415 0.950 . S
H6392 C6416 0.950 . S
H6393 C6417 0.951 . S
H6394 C6419 0.951 . S
H6395 C6421 0.950 . S
H6396 C6422 0.950 . S
H6397 C6424 0.950 . S
H6398 C6427 0.950 . S
H6399 C6428 0.950 . S
H6400 C6430 0.950 . S
H6401 C6431 0.950 . S
C6402 H6384 0.951 . S
C6402 C6403 1.366 . S
C6402 C6404 1.388 . S
C6403 C6402 1.366 . S
C6403 C6407 1.385 . S
C6404 H6385 0.951 . S
C6404 C6402 1.388 . S
C6404 C6405 1.366 . S
C6405 C6404 1.366 . S
C6405 C6406 1.414 . S
C6405 C6408 1.499 . S
C6406 H6386 0.950 . S
C6406 C6405 1.414 . S
C6406 C6407 1.374 . S
C6407 H6387 0.950 . S
C6407 C6403 1.385 . S
C6407 C6406 1.374 . S
C6408 C6405 1.499 . S
C6408 C6409 1.373 . S
C6408 C6410 1.389 . S
C6409 H6388 0.950 . S
C6409 C6408 1.373 . S
C6409 C6425 1.377 . S
C6410 C6408 1.389 . S
C6410 C6411 1.524 . S
C6410 C6424 1.377 . S
C6411 C6410 1.524 . S
C6411 C6412 1.397 . S
C6411 C6416 1.363 . S
C6412 H6389 0.950 . S
C6412 C6411 1.397 . S
C6412 C6413 1.334 . S
C6413 H6390 0.950 . S
C6413 C6412 1.334 . S
C6413 C6414 1.287 . S
C6414 C6413 1.287 . S
C6414 C6415 1.524 . S
C6414 H6433 0.913 . S
C6415 H6391 0.950 . S
C6415 C6414 1.524 . S
C6415 C6416 1.415 . S
C6416 H6392 0.950 . S
C6416 C6411 1.363 . S
C6416 C6415 1.415 . S
C6417 H6393 0.951 . S
C6417 C6418 1.366 . S
C6417 C6419 1.388 . S
C6418 C6417 1.366 . S
C6418 C6422 1.385 . S
C6419 H6394 0.951 . S
C6419 C6417 1.388 . S
C6419 C6420 1.366 . S
C6420 C6419 1.366 . S
C6420 C6421 1.414 . S
C6420 C6423 1.499 . S
C6421 H6395 0.950 . S
C6421 C6420 1.414 . S
C6421 C6422 1.374 . S
C6422 H6396 0.950 . S
C6422 C6418 1.385 . S
C6422 C6421 1.374 . S
C6423 C6420 1.499 . S
C6423 C6424 1.373 . S
C6423 C6425 1.389 . S
C6424 H6397 0.950 . S
C6424 C6410 1.377 . S
C6424 C6423 1.373 . S
C6425 C6409 1.377 . S
C6425 C6423 1.389 . S
C6425 C6426 1.524 . S
C6426 C6425 1.524 . S
C6426 C6427 1.397 . S
C6426 C6431 1.363 . S
C6427 H6398 0.950 . S
C6427 C6426 1.397 . S
C6427 C6428 1.334 . S
C6428 H6399 0.950 . S
C6428 C6427 1.334 . S
C6428 C6429 1.287 . S
C6429 C6428 1.287 . S
C6429 C6430 1.524 . S
C6429 H6432 0.999 . S
C6430 H6400 0.950 . S
C6430 C6429 1.524 . S
C6430 C6431 1.415 . S
C6431 H6401 0.950 . S
C6431 C6426 1.363 . S
C6431 C6430 1.415 . S
H6432 C6429 0.999 . S
H6433 C6414 0.913 . S
H6434 C6452 0.951 . S
H6435 C6454 0.951 . S
H6436 C6456 0.950 . S
H6437 C6457 0.950 . S
H6438 C6459 0.950 . S
H6439 C6462 0.950 . S
H6440 C6463 0.950 . S
H6441 C6465 0.950 . S
H6442 C6466 0.950 . S
H6443 C6467 0.951 . S
H6444 C6469 0.951 . S
H6445 C6471 0.950 . S
H6446 C6472 0.950 . S
H6447 C6474 0.950 . S
H6448 C6477 0.950 . S
H6449 C6478 0.950 . S
H6450 C6480 0.950 . S
H6451 C6481 0.950 . S
C6452 H6434 0.951 . S
C6452 C6453 1.366 . S
C6452 C6454 1.388 . S
C6453 C6452 1.366 . S
C6453 C6457 1.385 . S
C6454 H6435 0.951 . S
C6454 C6452 1.388 . S
C6454 C6455 1.366 . S
C6455 C6454 1.366 . S
C6455 C6456 1.414 . S
C6455 C6458 1.499 . S
C6456 H6436 0.950 . S
C6456 C6455 1.414 . S
C6456 C6457 1.374 . S
C6457 H6437 0.950 . S
C6457 C6453 1.385 . S
C6457 C6456 1.374 . S
C6458 C6455 1.499 . S
C6458 C6459 1.373 . S
C6458 C6460 1.389 . S
C6459 H6438 0.950 . S
C6459 C6458 1.373 . S
C6459 C6475 1.377 . S
C6460 C6458 1.389 . S
C6460 C6461 1.524 . S
C6460 C6474 1.377 . S
C6461 C6460 1.524 . S
C6461 C6462 1.397 . S
C6461 C6466 1.363 . S
C6462 H6439 0.950 . S
C6462 C6461 1.397 . S
C6462 C6463 1.334 . S
C6463 H6440 0.950 . S
C6463 C6462 1.334 . S
C6463 C6464 1.287 . S
C6464 C6463 1.287 . S
C6464 C6465 1.524 . S
C6464 H6483 0.913 . S
C6465 H6441 0.950 . S
C6465 C6464 1.524 . S
C6465 C6466 1.415 . S
C6466 H6442 0.950 . S
C6466 C6461 1.363 . S
C6466 C6465 1.415 . S
C6467 H6443 0.951 . S
C6467 C6468 1.366 . S
C6467 C6469 1.388 . S
C6468 C6467 1.366 . S
C6468 C6472 1.385 . S
C6469 H6444 0.951 . S
C6469 C6467 1.388 . S
C6469 C6470 1.366 . S
C6470 C6469 1.366 . S
C6470 C6471 1.414 . S
C6470 C6473 1.499 . S
C6471 H6445 0.950 . S
C6471 C6470 1.414 . S
C6471 C6472 1.374 . S
C6472 H6446 0.950 . S
C6472 C6468 1.385 . S
C6472 C6471 1.374 . S
C6473 C6470 1.499 . S
C6473 C6474 1.373 . S
C6473 C6475 1.389 . S
C6474 H6447 0.950 . S
C6474 C6460 1.377 . S
C6474 C6473 1.373 . S
C6475 C6459 1.377 . S
C6475 C6473 1.389 . S
C6475 C6476 1.524 . S
C6476 C6475 1.524 . S
C6476 C6477 1.397 . S
C6476 C6481 1.363 . S
C6477 H6448 0.950 . S
C6477 C6476 1.397 . S
C6477 C6478 1.334 . S
C6478 H6449 0.950 . S
C6478 C6477 1.334 . S
C6478 C6479 1.287 . S
C6479 C6478 1.287 . S
C6479 C6480 1.524 . S
C6479 H6482 0.999 . S
C6480 H6450 0.950 . S
C6480 C6479 1.524 . S
C6480 C6481 1.415 . S
C6481 H6451 0.950 . S
C6481 C6476 1.363 . S
C6481 C6480 1.415 . S
H6482 C6479 0.999 . S
H6483 C6464 0.913 . S
H6484 C6502 0.951 . S
H6485 C6504 0.951 . S
H6486 C6506 0.950 . S
H6487 C6507 0.950 . S
H6488 C6509 0.950 . S
H6489 C6512 0.950 . S
H6490 C6513 0.950 . S
H6491 C6515 0.950 . S
H6492 C6516 0.950 . S
H6493 C6517 0.951 . S
H6494 C6519 0.951 . S
H6495 C6521 0.950 . S
H6496 C6522 0.950 . S
H6497 C6524 0.950 . S
H6498 C6527 0.950 . S
H6499 C6528 0.950 . S
H6500 C6530 0.950 . S
H6501 C6531 0.950 . S
C6502 H6484 0.951 . S
C6502 C6503 1.366 . S
C6502 C6504 1.388 . S
C6503 C6502 1.366 . S
C6503 C6507 1.385 . S
C6504 H6485 0.951 . S
C6504 C6502 1.388 . S
C6504 C6505 1.366 . S
C6505 C6504 1.366 . S
C6505 C6506 1.414 . S
C6505 C6508 1.499 . S
C6506 H6486 0.950 . S
C6506 C6505 1.414 . S
C6506 C6507 1.374 . S
C6507 H6487 0.950 . S
C6507 C6503 1.385 . S
C6507 C6506 1.374 . S
C6508 C6505 1.499 . S
C6508 C6509 1.373 . S
C6508 C6510 1.389 . S
C6509 H6488 0.950 . S
C6509 C6508 1.373 . S
C6509 C6525 1.377 . S
C6510 C6508 1.389 . S
C6510 C6511 1.524 . S
C6510 C6524 1.377 . S
C6511 C6510 1.524 . S
C6511 C6512 1.397 . S
C6511 C6516 1.363 . S
C6512 H6489 0.950 . S
C6512 C6511 1.397 . S
C6512 C6513 1.334 . S
C6513 H6490 0.950 . S
C6513 C6512 1.334 . S
C6513 C6514 1.287 . S
C6514 C6513 1.287 . S
C6514 C6515 1.524 . S
C6514 H6533 0.913 . S
C6515 H6491 0.950 . S
C6515 C6514 1.524 . S
C6515 C6516 1.415 . S
C6516 H6492 0.950 . S
C6516 C6511 1.363 . S
C6516 C6515 1.415 . S
C6517 H6493 0.951 . S
C6517 C6518 1.366 . S
C6517 C6519 1.388 . S
C6518 C6517 1.366 . S
C6518 C6522 1.385 . S
C6519 H6494 0.951 . S
C6519 C6517 1.388 . S
C6519 C6520 1.366 . S
C6520 C6519 1.366 . S
C6520 C6521 1.414 . S
C6520 C6523 1.499 . S
C6521 H6495 0.950 . S
C6521 C6520 1.414 . S
C6521 C6522 1.374 . S
C6522 H6496 0.950 . S
C6522 C6518 1.385 . S
C6522 C6521 1.374 . S
C6523 C6520 1.499 . S
C6523 C6524 1.373 . S
C6523 C6525 1.389 . S
C6524 H6497 0.950 . S
C6524 C6510 1.377 . S
C6524 C6523 1.373 . S
C6525 C6509 1.377 . S
C6525 C6523 1.389 . S
C6525 C6526 1.524 . S
C6526 C6525 1.524 . S
C6526 C6527 1.397 . S
C6526 C6531 1.363 . S
C6527 H6498 0.950 . S
C6527 C6526 1.397 . S
C6527 C6528 1.334 . S
C6528 H6499 0.950 . S
C6528 C6527 1.334 . S
C6528 C6529 1.287 . S
C6529 C6528 1.287 . S
C6529 C6530 1.524 . S
C6529 H6532 0.999 . S
C6530 H6500 0.950 . S
C6530 C6529 1.524 . S
C6530 C6531 1.415 . S
C6531 H6501 0.950 . S
C6531 C6526 1.363 . S
C6531 C6530 1.415 . S
H6532 C6529 0.999 . S
H6533 C6514 0.913 . S
H6534 C6552 0.951 . S
H6535 C6554 0.951 . S
H6536 C6556 0.950 . S
H6537 C6557 0.950 . S
H6538 C6559 0.950 . S
H6539 C6562 0.950 . S
H6540 C6563 0.950 . S
H6541 C6565 0.950 . S
H6542 C6566 0.950 . S
H6543 C6567 0.951 . S
H6544 C6569 0.951 . S
H6545 C6571 0.950 . S
H6546 C6572 0.950 . S
H6547 C6574 0.950 . S
H6548 C6577 0.950 . S
H6549 C6578 0.950 . S
H6550 C6580 0.950 . S
H6551 C6581 0.950 . S
C6552 H6534 0.951 . S
C6552 C6553 1.366 . S
C6552 C6554 1.388 . S
C6553 C6552 1.366 . S
C6553 C6557 1.385 . S
C6554 H6535 0.951 . S
C6554 C6552 1.388 . S
C6554 C6555 1.366 . S
C6555 C6554 1.366 . S
C6555 C6556 1.414 . S
C6555 C6558 1.499 . S
C6556 H6536 0.950 . S
C6556 C6555 1.414 . S
C6556 C6557 1.374 . S
C6557 H6537 0.950 . S
C6557 C6553 1.385 . S
C6557 C6556 1.374 . S
C6558 C6555 1.499 . S
C6558 C6559 1.373 . S
C6558 C6560 1.389 . S
C6559 H6538 0.950 . S
C6559 C6558 1.373 . S
C6559 C6575 1.377 . S
C6560 C6558 1.389 . S
C6560 C6561 1.524 . S
C6560 C6574 1.377 . S
C6561 C6560 1.524 . S
C6561 C6562 1.397 . S
C6561 C6566 1.363 . S
C6562 H6539 0.950 . S
C6562 C6561 1.397 . S
C6562 C6563 1.334 . S
C6563 H6540 0.950 . S
C6563 C6562 1.334 . S
C6563 C6564 1.287 . S
C6564 C6563 1.287 . S
C6564 C6565 1.524 . S
C6564 H6583 0.913 . S
C6565 H6541 0.950 . S
C6565 C6564 1.524 . S
C6565 C6566 1.415 . S
C6566 H6542 0.950 . S
C6566 C6561 1.363 . S
C6566 C6565 1.415 . S
C6567 H6543 0.951 . S
C6567 C6568 1.366 . S
C6567 C6569 1.388 . S
C6568 C6567 1.366 . S
C6568 C6572 1.385 . S
C6569 H6544 0.951 . S
C6569 C6567 1.388 . S
C6569 C6570 1.366 . S
C6570 C6569 1.366 . S
C6570 C6571 1.414 . S
C6570 C6573 1.499 . S
C6571 H6545 0.950 . S
C6571 C6570 1.414 . S
C6571 C6572 1.374 . S
C6572 H6546 0.950 . S
C6572 C6568 1.385 . S
C6572 C6571 1.374 . S
C6573 C6570 1.499 . S
C6573 C6574 1.373 . S
C6573 C6575 1.389 . S
C6574 H6547 0.950 . S
C6574 C6560 1.377 . S
C6574 C6573 1.373 . S
C6575 C6559 1.377 . S
C6575 C6573 1.389 . S
C6575 C6576 1.524 . S
C6576 C6575 1.524 . S
C6576 C6577 1.397 . S
C6576 C6581 1.363 . S
C6577 H6548 0.950 . S
C6577 C6576 1.397 . S
C6577 C6578 1.334 . S
C6578 H6549 0.950 . S
C6578 C6577 1.334 . S
C6578 C6579 1.287 . S
C6579 C6578 1.287 . S
C6579 C6580 1.524 . S
C6579 H6582 0.999 . S
C6580 H6550 0.950 . S
C6580 C6579 1.524 . S
C6580 C6581 1.415 . S
C6581 H6551 0.950 . S
C6581 C6576 1.363 . S
C6581 C6580 1.415 . S
H6582 C6579 0.999 . S
H6583 C6564 0.913 . S
C1818 C1299 1.495 . S
C1803 C21 1.556 . S
C1868 C1310 1.405 . S
C1853 C42 1.504 . S
C1903 C82 1.546 . S
C1918 C1334 1.449 . S
C1968 C1355 1.415 . S
C1953 C135 1.541 . S
C2003 C175 1.481 . S
C2018 C1362 1.396 . S
C2053 C221 1.550 . S
C2068 C1292 1.452 . S
C2103 C255 1.535 . S
C2118 C1318 1.415 . S
C2168 C1341 1.508 . S
C2153 C301 1.597 . S
C2218 C1373 1.451 . S
C2203 C15 1.546 . S
C2253 C55 1.496 . S
C2268 C1394 1.398 . S
C2303 C101 1.574 . S
C2318 C1418 1.477 . S
C2368 C1436 1.444 . S
C2353 C141 1.545 . S
C2403 C162 1.494 . S
C2418 C1465 1.409 . S
C2468 C1486 1.446 . S
C2453 C215 1.557 . S
C2503 C261 1.568 . S
C2518 C1502 1.445 . S
C2568 C1523 1.440 . S
C2553 C282 1.559 . S
C2603 C2 1.532 . S
C2618 C1444 1.448 . S
C2653 C181 1.465 . S
C2668 C1478 1.399 . S
C2718 C1509 1.495 . S
C2703 C202 1.552 . S
C2753 C242 1.557 . S
C2768 C1530 1.474 . S
C2818 C1457 1.439 . S
C2803 C295 1.540 . S
C2868 C1402 1.458 . S
C2853 C95 1.569 . S
C2903 C122 1.539 . S
C2918 C1425 1.456 . S
C2968 C1381 1.397 . S
C2953 C61 1.517 . S
C3018 C1549 1.468 . S
C3003 C341 1.555 . S
C3053 C362 1.502 . S
C3068 C1565 1.383 . S
C3103 C402 1.539 . S
C3118 C1583 1.470 . S
C3168 C1604 1.458 . S
C3153 C455 1.553 . S
C3203 C495 1.484 . S
C3218 C1612 1.377 . S
C3253 C541 1.558 . S
C3268 C1541 1.490 . S
C3303 C575 1.527 . S
C3318 C1572 1.442 . S
C3353 C621 1.591 . S
C3368 C1591 1.478 . S
C3418 C1467 1.459 . S
C3403 C335 1.542 . S
C3453 C375 1.499 . S
C3468 C1625 1.402 . S
C3518 C1499 1.491 . S
C3503 C421 1.559 . S
C3553 C461 1.553 . S
C3568 C1654 1.436 . S
C3603 C482 1.496 . S
C3618 C1376 1.404 . S
C3668 C1670 1.448 . S
C3653 C535 1.568 . S
C3703 C581 1.552 . S
C3718 C1415 1.453 . S
C3768 C1698 1.470 . S
C3753 C602 1.554 . S
C3803 C322 1.538 . S
C3818 C1646 1.466 . S
C3868 C1677 1.415 . S
C3853 C501 1.469 . S
C3903 C522 1.565 . S
C3918 C1423 1.476 . S
C3968 C1691 1.429 . S
C3953 C562 1.551 . S
C4003 C615 1.538 . S
C4018 C1383 1.451 . S
C4053 C415 1.559 . S
C4068 C1633 1.448 . S
C4103 C442 1.559 . S
C4118 C1507 1.446 . S
C4153 C381 1.524 . S
C4168 C1460 1.393 . S
C4203 C661 1.562 . S
C4218 C1586 1.467 . S
C4268 C1607 1.386 . S
C4253 C682 1.503 . S
C4303 C722 1.536 . S
C4318 C1551 1.479 . S
C4353 C775 1.544 . S
C4368 C1562 1.449 . S
C4403 C815 1.482 . S
C4418 C1570 1.375 . S
C4453 C861 1.544 . S
C4468 C1593 1.487 . S
C4518 C1614 1.444 . S
C4503 C895 1.529 . S
C4553 C941 1.601 . S
C4568 C1544 1.479 . S
C4618 C1709 1.452 . S
C4603 C655 1.548 . S
C4653 C695 1.493 . S
C4668 C1488 1.408 . S
C4718 C1730 1.493 . S
C4703 C741 1.562 . S
C4753 C781 1.552 . S
C4768 C1520 1.452 . S
C4803 C802 1.496 . S
C4818 C1754 1.403 . S
C4853 C855 1.559 . S
C4868 C1397 1.440 . S
C4918 C1775 1.434 . S
C4903 C901 1.556 . S
C4953 C922 1.557 . S
C4968 C1439 1.436 . S
C5018 C1528 1.458 . S
C5003 C642 1.541 . S
C5068 C1404 1.415 . S
C5053 C821 1.468 . S
C5103 C842 1.553 . S
C5118 C1782 1.495 . S
C5153 C882 1.548 . S
C5168 C1446 1.464 . S
C5218 C1761 1.453 . S
C5203 C935 1.541 . S
C5268 C1481 1.440 . S
C5253 C735 1.560 . S
C5318 C1738 1.438 . S
C5303 C762 1.550 . S
C5368 C1717 1.395 . S
C5353 C701 1.517 . S
C5403 C981 1.559 . S
C5418 C1331 1.486 . S
C5453 C1002 1.500 . S
C5468 C1352 1.400 . S
C5518 C1297 1.453 . S
C5503 C1042 1.540 . S
C5568 C1313 1.428 . S
C5553 C1095 1.553 . S
C5618 C1320 1.393 . S
C5603 C1135 1.479 . S
C5668 C1339 1.465 . S
C5653 C1181 1.552 . S
C5718 C1360 1.418 . S
C5703 C1215 1.537 . S
C5753 C1261 1.593 . S
C5768 C1289 1.491 . S
C5803 C975 1.546 . S
C5818 C1751 1.451 . S
C5868 C1667 1.402 . S
C5853 C1015 1.499 . S
C5918 C1772 1.497 . S
C5903 C1061 1.567 . S
C5968 C1696 1.435 . S
C5953 C1101 1.553 . S
C6003 C1122 1.491 . S
C6018 C1712 1.398 . S
C6068 C1628 1.438 . S
C6053 C1175 1.558 . S
C6118 C1733 1.440 . S
C6103 C1221 1.563 . S
C6153 C1242 1.552 . S
C6168 C1656 1.469 . S
C6218 C1688 1.464 . S
C6203 C962 1.537 . S
C6268 C1635 1.407 . S
C6253 C1141 1.460 . S
C6318 C1740 1.500 . S
C6303 C1162 1.558 . S
C6353 C1202 1.564 . S
C6368 C1649 1.441 . S
C6403 C1255 1.534 . S
C6418 C1719 1.446 . S
C6453 C1055 1.568 . S
C6468 C1675 1.456 . S
C6503 C1082 1.553 . S
C6518 C1780 1.438 . S
C6568 C1759 1.399 . S
C6553 C1021 1.518 . S
