# Generated by pormake.
# Topology apo, (3,6)-cn, num edge types: 1
# Building blocks:
#     Node 0, Type 0, BuildingBlock: ESEHIV_clean_linker_0, # of connection points: 3
#     Node 1, Type 0, BuildingBlock: ESEHIV_clean_linker_0, # of connection points: 3
#     Node 2, Type 0, BuildingBlock: ESEHIV_clean_linker_0, # of connection points: 3
#     Node 3, Type 0, BuildingBlock: ESEHIV_clean_linker_0, # of connection points: 3
#     Node 4, Type 0, BuildingBlock: ESEHIV_clean_linker_0, # of connection points: 3
#     Node 5, Type 0, BuildingBlock: ESEHIV_clean_linker_0, # of connection points: 3
#     Node 6, Type 0, BuildingBlock: ESEHIV_clean_linker_0, # of connection points: 3
#     Node 7, Type 0, BuildingBlock: ESEHIV_clean_linker_0, # of connection points: 3
#     Node 8, Type 1, BuildingBlock: MIDCAF_clean_sbu_0, # of connection points: 6
#     Node 9, Type 1, BuildingBlock: MIDCAF_clean_sbu_0, # of connection points: 6
#     Node 10, Type 1, BuildingBlock: MIDCAF_clean_sbu_0, # of connection points: 6
#     Node 11, Type 1, BuildingBlock: MIDCAF_clean_sbu_0, # of connection points: 6
#     Edge 12, Type (0, 1), BuildingBlock: ZUJKAS_clean_linker_0, # of connection points: 2
#     Edge 13, Type (0, 1), BuildingBlock: ZUJKAS_clean_linker_0, # of connection points: 2
#     Edge 14, Type (0, 1), BuildingBlock: ZUJKAS_clean_linker_0, # of connection points: 2
#     Edge 15, Type (0, 1), BuildingBlock: ZUJKAS_clean_linker_0, # of connection points: 2
#     Edge 16, Type (0, 1), BuildingBlock: ZUJKAS_clean_linker_0, # of connection points: 2
#     Edge 17, Type (0, 1), BuildingBlock: ZUJKAS_clean_linker_0, # of connection points: 2
#     Edge 18, Type (0, 1), BuildingBlock: ZUJKAS_clean_linker_0, # of connection points: 2
#     Edge 19, Type (0, 1), BuildingBlock: ZUJKAS_clean_linker_0, # of connection points: 2
#     Edge 20, Type (0, 1), BuildingBlock: ZUJKAS_clean_linker_0, # of connection points: 2
#     Edge 21, Type (0, 1), BuildingBlock: ZUJKAS_clean_linker_0, # of connection points: 2
#     Edge 22, Type (0, 1), BuildingBlock: ZUJKAS_clean_linker_0, # of connection points: 2
#     Edge 23, Type (0, 1), BuildingBlock: ZUJKAS_clean_linker_0, # of connection points: 2
#     Edge 24, Type (0, 1), BuildingBlock: ZUJKAS_clean_linker_0, # of connection points: 2
#     Edge 25, Type (0, 1), BuildingBlock: ZUJKAS_clean_linker_0, # of connection points: 2
#     Edge 26, Type (0, 1), BuildingBlock: ZUJKAS_clean_linker_0, # of connection points: 2
#     Edge 27, Type (0, 1), BuildingBlock: ZUJKAS_clean_linker_0, # of connection points: 2
#     Edge 28, Type (0, 1), BuildingBlock: ZUJKAS_clean_linker_0, # of connection points: 2
#     Edge 29, Type (0, 1), BuildingBlock: ZUJKAS_clean_linker_0, # of connection points: 2
#     Edge 30, Type (0, 1), BuildingBlock: ZUJKAS_clean_linker_0, # of connection points: 2
#     Edge 31, Type (0, 1), BuildingBlock: ZUJKAS_clean_linker_0, # of connection points: 2
#     Edge 32, Type (0, 1), BuildingBlock: ZUJKAS_clean_linker_0, # of connection points: 2
#     Edge 33, Type (0, 1), BuildingBlock: ZUJKAS_clean_linker_0, # of connection points: 2
#     Edge 34, Type (0, 1), BuildingBlock: ZUJKAS_clean_linker_0, # of connection points: 2
#     Edge 35, Type (0, 1), BuildingBlock: ZUJKAS_clean_linker_0, # of connection points: 2
# Relax obj value: 0.086
# Max RMSD: 0.099
# Mean RMSD: 0.089
data_MOF--net-apo--node1-MIDCAF_clean_sbu_0--node2-ESEHIV_clean_linker_0--edge1-ZUJKAS_clean_linker_0
_symmetry_space_group_name_H-M    P1
_symmetry_Int_Tables_number       1
_symmetry_cell_setting            triclinic
loop_
_symmetry_equiv_pos_as_xyz
'x, y, z'
_cell_length_a     42.93798
_cell_length_b     51.222816
_cell_length_c     45.808374
_cell_angle_alpha  90.012538
_cell_angle_beta   89.905662
_cell_angle_gamma 90.234757
loop_
_atom_site_label
_atom_site_type_symbol
_atom_site_fract_x
_atom_site_fract_y
_atom_site_fract_z
_atom_type_partial_charge
H0 H 0.37855 0.35038 0.41571 0.0
H1 H 0.33472 0.33005 0.33456 0.0
H2 H 0.30678 0.29154 0.41395 0.0
C3 C 0.36203 0.33859 0.40358 0.0
C4 C 0.34345 0.32022 0.41846 0.0
C5 C 0.35889 0.34244 0.37337 0.0
C6 C 0.33706 0.3274 0.35793 0.0
C7 C 0.31821 0.30894 0.37229 0.0
C8 C 0.32181 0.30521 0.40256 0.0
H9 H 0.11742 0.1518 0.91033 0.0
H10 H 0.16361 0.17091 0.82999 0.0
H11 H 0.18342 0.2152 0.90779 0.0
C12 C 0.13351 0.16407 0.89825 0.0
C13 C 0.14979 0.18409 0.91279 0.0
C14 C 0.13808 0.15941 0.86834 0.0
C15 C 0.15923 0.1751 0.85281 0.0
C16 C 0.17596 0.19516 0.86681 0.0
C17 C 0.17106 0.19952 0.89687 0.0
H18 H 0.87544 0.1433 0.58598 0.0
H19 H 0.82738 0.16154 0.66563 0.0
H20 H 0.80825 0.20542 0.58767 0.0
C21 C 0.85933 0.15554 0.59794 0.0
C22 C 0.84299 0.17529 0.58314 0.0
C23 C 0.85397 0.1505 0.62768 0.0
C24 C 0.83189 0.16551 0.64277 0.0
C25 C 0.81503 0.18517 0.62846 0.0
C26 C 0.82079 0.18998 0.59865 0.0
H27 H 0.63665 0.35984 0.08278 0.0
H28 H 0.67699 0.33681 0.1644 0.0
H29 H 0.69845 0.29424 0.08559 0.0
C30 C 0.65132 0.34674 0.09522 0.0
C31 C 0.66749 0.32682 0.08072 0.0
C32 C 0.65422 0.35012 0.12548 0.0
C33 C 0.67406 0.33359 0.14121 0.0
C34 C 0.69031 0.31328 0.12722 0.0
C35 C 0.68642 0.30983 0.09686 0.0
H36 H 0.62805 0.64464 0.59399 0.0
H37 H 0.69904 0.70428 0.59479 0.0
H38 H 0.67572 0.663 0.67373 0.0
C39 C 0.64488 0.65644 0.60574 0.0
C40 C 0.64936 0.65198 0.63569 0.0
C41 C 0.66282 0.67513 0.59061 0.0
C42 C 0.6855 0.68948 0.60604 0.0
C43 C 0.69021 0.68535 0.63612 0.0
C44 C 0.67204 0.66653 0.65066 0.0
H45 H 0.88014 0.84709 0.08826 0.0
H46 H 0.83153 0.83581 0.16935 0.0
H47 H 0.80539 0.79114 0.09342 0.0
C48 C 0.86226 0.8372 0.1009 0.0
C49 C 0.84352 0.81816 0.08745 0.0
C50 C 0.85793 0.84382 0.13035 0.0
C51 C 0.83482 0.83085 0.14656 0.0
C52 C 0.81569 0.81178 0.13354 0.0
C53 C 0.82011 0.80564 0.10383 0.0
H54 H 0.14892 0.86512 0.43316 0.0
H55 H 0.21431 0.80191 0.428 0.0
H56 H 0.18942 0.84462 0.35048 0.0
C57 C 0.16422 0.85285 0.42029 0.0
C58 C 0.16711 0.85719 0.39016 0.0
C59 C 0.18109 0.8329 0.43404 0.0
C60 C 0.20095 0.81705 0.41732 0.0
C61 C 0.20461 0.82152 0.38715 0.0
C62 C 0.18742 0.84152 0.37382 0.0
H63 H 0.37133 0.64005 0.93442 0.0
H64 H 0.32629 0.65923 0.85354 0.0
H65 H 0.30332 0.70143 0.93186 0.0
C66 C 0.35544 0.65221 0.92215 0.0
C67 C 0.3384 0.67165 0.93676 0.0
C68 C 0.35134 0.64755 0.89216 0.0
C69 C 0.32968 0.66265 0.87667 0.0
C70 C 0.31198 0.68189 0.89089 0.0
C71 C 0.31644 0.68624 0.92096 0.0
Zn72 Zn 0.02524 0.13902 0.29601 0.0
Zn73 Zn 0.97761 0.1315 0.19726 0.0
Zn74 Zn 1.00062 0.13732 0.24828 0.0
C75 C 0.02873 0.16355 0.1892 0.0
C76 C 0.9893 0.08184 0.21398 0.0
O77 O 0.9654 0.15405 0.27902 0.0
O78 O 0.98673 0.13935 0.31959 0.0
C79 C 0.05589 0.17609 0.26564 0.0
O80 O 0.03188 0.1584 0.21662 0.0
O81 O 0.00536 0.1551 0.17545 0.0
O82 O 0.98209 0.09358 0.19079 0.0
O83 O 0.99616 0.09496 0.23717 0.0
O84 O 0.04817 0.17224 0.29184 0.0
O85 O 0.04302 0.16261 0.24514 0.0
O86 O 0.0135 0.09742 0.263 0.0
O87 O 0.04965 0.10618 0.29583 0.0
C88 C 0.03525 0.08979 0.28034 0.0
O89 O 0.95368 0.15569 0.24996 0.0
O90 O 0.93569 0.1446 0.20649 0.0
C91 C 0.96398 0.14972 0.30673 0.0
C92 C 0.93161 0.15554 0.23088 0.0
Zn93 Zn 0.52201 0.36682 0.70638 0.0
Zn94 Zn 0.47509 0.35056 0.80273 0.0
Zn95 Zn 0.49929 0.35924 0.75333 0.0
C96 C 0.47145 0.40424 0.79407 0.0
C97 C 0.43883 0.32256 0.7653 0.0
O98 O 0.54366 0.3366 0.75142 0.0
O99 O 0.54766 0.33501 0.7035 0.0
C100 C 0.52794 0.41356 0.73134 0.0
O101 O 0.48917 0.39804 0.77244 0.0
O102 O 0.45973 0.38662 0.80997 0.0
O103 O 0.44467 0.32359 0.79221 0.0
O104 O 0.45521 0.33607 0.74707 0.0
O105 O 0.54351 0.40046 0.71321 0.0
O106 O 0.50699 0.40214 0.74707 0.0
O107 O 0.46598 0.34424 0.71976 0.0
O108 O 0.48346 0.3676 0.68277 0.0
C109 C 0.46291 0.35271 0.6934 0.0
O110 O 0.53531 0.33923 0.78068 0.0
O111 O 0.51204 0.33848 0.82381 0.0
C112 C 0.55644 0.32716 0.72822 0.0
C113 C 0.5357 0.33409 0.80828 0.0
Zn114 Zn 0.03213 0.86791 0.80731 0.0
Zn115 Zn 0.9808 0.85418 0.70557 0.0
Zn116 Zn 0.00571 0.85978 0.75751 0.0
C117 C 0.98301 0.90737 0.71538 0.0
C118 C 0.94088 0.82945 0.74494 0.0
O119 O 0.05232 0.84053 0.75687 0.0
O120 O 0.07374 0.85381 0.7982 0.0
C121 C 0.01909 0.9168 0.78782 0.0
O122 O 0.99396 0.8989 0.7398 0.0
O123 O 0.97636 0.89158 0.69516 0.0
O124 O 0.94334 0.83511 0.71826 0.0
O125 O 0.96194 0.83666 0.76334 0.0
O126 O 0.02823 0.90606 0.81102 0.0
O127 O 0.0105 0.90269 0.76589 0.0
O128 O 0.97554 0.84044 0.79095 0.0
O129 O 0.00382 0.84583 0.83079 0.0
C130 C 0.9798 0.83677 0.81852 0.0
O131 O 0.03998 0.83981 0.72829 0.0
O132 O 0.0143 0.83395 0.68698 0.0
C133 C 0.0756 0.84117 0.77463 0.0
C134 C 0.03879 0.83122 0.70182 0.0
Zn135 Zn 0.52828 0.63953 0.20862 0.0
Zn136 Zn 0.483 0.63443 0.31184 0.0
Zn137 Zn 0.5058 0.63816 0.26033 0.0
C138 C 0.53594 0.66465 0.31814 0.0
C139 C 0.49267 0.58394 0.29605 0.0
O140 O 0.47187 0.65868 0.23124 0.0
O141 O 0.49847 0.66362 0.19028 0.0
C142 C 0.5734 0.66175 0.24386 0.0
O143 O 0.53868 0.65816 0.29104 0.0
O144 O 0.51195 0.65809 0.3323 0.0
O145 O 0.48678 0.59657 0.31902 0.0
O146 O 0.49935 0.59621 0.27223 0.0
O147 O 0.56995 0.653 0.21834 0.0
O148 O 0.5513 0.65928 0.26279 0.0
O149 O 0.51369 0.59759 0.24462 0.0
O150 O 0.52559 0.60224 0.19794 0.0
C151 C 0.52051 0.58759 0.21957 0.0
O152 O 0.45989 0.65833 0.25996 0.0
O153 O 0.44107 0.64783 0.30334 0.0
C154 C 0.47398 0.66743 0.20489 0.0
C155 C 0.43767 0.65887 0.27894 0.0
H156 H 0.1887 0.89329 0.35117 0.0
H157 H 0.15973 0.92886 0.32833 0.0
H158 H 0.07628 0.90406 0.37314 0.0
H159 H 0.10531 0.86865 0.39644 0.0
H160 H 0.10843 0.92922 0.29244 0.0
H161 H 0.08281 0.97996 0.39703 0.0
H162 H 0.11038 0.95359 0.39455 0.0
H163 H 0.06926 0.94681 0.39536 0.0
C164 C 0.16414 0.89535 0.35603 0.0
C165 C 0.14931 0.87834 0.37577 0.0
C166 C 0.14762 0.91566 0.34298 0.0
C167 C 0.11596 0.91934 0.34935 0.0
C168 C 0.10086 0.90195 0.36843 0.0
H169 H 0.99743 0.05056 0.29873 0.0
H170 H 0.01297 0.00586 0.31143 0.0
C171 C 0.11744 0.88175 0.38171 0.0
C172 C 0.09915 0.94181 0.3365 0.0
H173 H 0.06219 0.99854 0.35428 0.0
C174 C 0.09814 0.9443 0.30596 0.0
C175 C 0.08571 0.96146 0.35417 0.0
C176 C 0.08726 0.96054 0.38709 0.0
C177 C 0.08451 0.96614 0.29266 0.0
C178 C 0.07176 0.98598 0.31037 0.0
C179 C 0.07184 0.98313 0.34081 0.0
C180 C 0.06097 0.01106 0.29812 0.0
C181 C 0.08413 0.96806 0.25981 0.0
C182 C 0.08273 0.02855 0.28611 0.0
C183 C 0.07388 0.05394 0.2789 0.0
C184 C 0.04307 0.06206 0.28324 0.0
C185 C 0.02103 0.04434 0.29427 0.0
C186 C 0.02995 0.01897 0.30175 0.0
H187 H 0.0871 0.94864 0.24938 0.0
H188 H 0.06201 0.97681 0.25205 0.0
H189 H 0.10357 0.98085 0.25256 0.0
H190 H 0.10691 0.02297 0.28371 0.0
H191 H 0.09131 0.06752 0.27089 0.0
H192 H 0.32965 0.61226 0.85194 0.0
H193 H 0.35717 0.57473 0.83145 0.0
H194 H 0.43977 0.59634 0.87917 0.0
H195 H 0.41269 0.63428 0.89934 0.0
H196 H 0.41889 0.57042 0.79977 0.0
H197 H 0.41278 0.52112 0.9081 0.0
H198 H 0.38817 0.5484 0.89891 0.0
H199 H 0.42854 0.55372 0.90713 0.0
C200 C 0.35387 0.60941 0.85759 0.0
C201 C 0.36886 0.62618 0.87751 0.0
C202 C 0.36953 0.58791 0.84591 0.0
C203 C 0.40038 0.58271 0.85399 0.0
C204 C 0.41586 0.59994 0.87287 0.0
H205 H 0.50898 0.44762 0.79046 0.0
H206 H 0.49491 0.49287 0.80277 0.0
C207 C 0.40027 0.62149 0.88451 0.0
C208 C 0.41532 0.5581 0.84458 0.0
H209 H 0.43528 0.49767 0.86951 0.0
C210 C 0.42284 0.55457 0.81499 0.0
C211 C 0.42025 0.5375 0.86455 0.0
C212 C 0.4119 0.54012 0.89644 0.0
C213 C 0.4347 0.53067 0.80479 0.0
C214 C 0.43895 0.50993 0.82471 0.0
C215 C 0.43209 0.51371 0.85436 0.0
C216 C 0.4475 0.48332 0.81504 0.0
C217 C 0.44152 0.52734 0.77269 0.0
C218 C 0.42559 0.46313 0.81789 0.0
C219 C 0.43345 0.43758 0.81057 0.0
C220 C 0.4634 0.43168 0.80021 0.0
C221 C 0.48542 0.45187 0.79733 0.0
C222 C 0.47749 0.47761 0.80459 0.0
H223 H 0.43356 0.54431 0.75961 0.0
H224 H 0.46699 0.5251 0.76946 0.0
H225 H 0.43004 0.50939 0.76429 0.0
H226 H 0.40239 0.46713 0.82604 0.0
H227 H 0.41606 0.42235 0.81313 0.0
H228 H 0.58656 0.64269 0.63276 0.0
H229 H 0.55693 0.60787 0.657 0.0
H230 H 0.64143 0.57983 0.69678 0.0
H231 H 0.67094 0.61473 0.67306 0.0
H232 H 0.56242 0.55688 0.65001 0.0
H233 H 0.58444 0.57892 0.76607 0.0
H234 H 0.59299 0.60204 0.73737 0.0
H235 H 0.62035 0.57665 0.74625 0.0
C236 C 0.59872 0.62919 0.64687 0.0
C237 C 0.63105 0.63152 0.65114 0.0
C238 C 0.58176 0.6094 0.66082 0.0
C239 C 0.59678 0.59155 0.67928 0.0
C240 C 0.62908 0.59386 0.6835 0.0
H241 H 0.58363 0.43782 0.73439 0.0
H242 H 0.59445 0.48417 0.72634 0.0
C243 C 0.64598 0.61374 0.66977 0.0
C244 C 0.57944 0.56911 0.69207 0.0
H245 H 0.57025 0.534 0.75497 0.0
C246 C 0.56345 0.55223 0.67308 0.0
C247 C 0.58057 0.56309 0.72223 0.0
C248 C 0.59524 0.58132 0.74416 0.0
C249 C 0.55053 0.52864 0.68306 0.0
C250 C 0.55357 0.52183 0.71283 0.0
C251 C 0.56802 0.5393 0.73214 0.0
C252 C 0.54601 0.49515 0.72305 0.0
C253 C 0.53545 0.51035 0.66141 0.0
C254 C 0.51509 0.4862 0.72491 0.0
C255 C 0.50886 0.45965 0.72971 0.0
C256 C 0.53351 0.4419 0.73271 0.0
C257 C 0.56428 0.45121 0.73236 0.0
C258 C 0.57047 0.47763 0.72781 0.0
H259 H 0.53703 0.51773 0.63865 0.0
H260 H 0.54663 0.49086 0.66244 0.0
H261 H 0.51048 0.50776 0.66707 0.0
H262 H 0.49592 0.49949 0.72132 0.0
H263 H 0.48496 0.45279 0.7295 0.0
H264 H 0.88641 0.84408 0.18394 0.0
H265 H 0.91469 0.88042 0.20702 0.0
H266 H 0.89972 0.92765 0.13049 0.0
H267 H 0.87134 0.89168 0.10741 0.0
H268 H 0.97017 0.91261 0.18074 0.0
H269 H 0.86155 0.96704 0.20559 0.0
H270 H 0.86208 0.93213 0.1999 0.0
H271 H 0.86447 0.95389 0.16926 0.0
C272 C 0.88922 0.86222 0.17205 0.0
C273 C 0.87661 0.86507 0.14388 0.0
C274 C 0.90549 0.88284 0.18518 0.0
C275 C 0.90909 0.90664 0.17045 0.0
C276 C 0.89708 0.90938 0.14218 0.0
H277 H 0.00652 0.04799 0.17145 0.0
H278 H 0.99168 0.002 0.1675 0.0
C279 C 0.88103 0.88878 0.12898 0.0
C280 C 0.92435 0.92917 0.18473 0.0
H281 H 0.90912 0.99064 0.20923 0.0
C282 C 0.95689 0.92956 0.18744 0.0
C283 C 0.90686 0.951 0.19383 0.0
C284 C 0.87176 0.95108 0.19228 0.0
C285 C 0.97254 0.95197 0.19751 0.0
C286 C 0.95513 0.97445 0.20474 0.0
C287 C 0.92247 0.9734 0.20365 0.0
C288 C 0.96997 0.00015 0.21015 0.0
C289 C 0.00757 0.95164 0.19976 0.0
C290 C 0.96313 0.01431 0.23561 0.0
C291 C 0.97159 0.04064 0.23784 0.0
C292 C 0.98686 0.05316 0.2146 0.0
C293 C 0.99508 0.03864 0.18979 0.0
C294 C 0.9868 0.01233 0.18762 0.0
H295 H 0.01642 0.93145 0.20266 0.0
H296 H 0.01775 0.95958 0.17931 0.0
H297 H 0.01576 0.96387 0.21825 0.0
H298 H 0.94976 0.00538 0.25305 0.0
H299 H 0.96408 0.05167 0.25673 0.0
H300 H 0.91557 0.13706 0.62354 0.0
H301 H 0.94095 0.09838 0.64398 0.0
H302 H 0.85494 0.07599 0.68585 0.0
H303 H 0.82919 0.1142 0.66503 0.0
H304 H 0.94595 0.07793 0.7051 0.0
H305 H 0.8784 0.01509 0.62869 0.0
H306 H 0.88228 0.04989 0.62362 0.0
H307 H 0.85595 0.03721 0.65067 0.0
C308 C 0.9021 0.12395 0.6372 0.0
C309 C 0.87028 0.12859 0.64244 0.0
C310 C 0.91671 0.10203 0.64908 0.0
C311 C 0.89975 0.08431 0.66625 0.0
C312 C 0.86838 0.08943 0.67255 0.0
H313 H 0.96063 0.94255 0.75503 0.0
H314 H 0.94366 0.98741 0.74528 0.0
C315 C 0.85376 0.11134 0.66074 0.0
C316 C 0.91402 0.05934 0.67537 0.0
H317 H 0.91077 0.99381 0.66247 0.0
C318 C 0.93831 0.05949 0.69588 0.0
C319 C 0.90415 0.03541 0.66301 0.0
C320 C 0.87894 0.03423 0.6401 0.0
C321 C 0.95286 0.03615 0.70453 0.0
C322 C 0.9427 0.01223 0.69232 0.0
C323 C 0.91847 0.0122 0.6718 0.0
C324 C 0.95711 0.98684 0.69971 0.0
C325 C 0.97933 0.03724 0.72614 0.0
C326 C 0.97046 0.97175 0.67743 0.0
C327 C 0.98006 0.94625 0.68295 0.0
C328 C 0.97664 0.93537 0.71089 0.0
C329 C 0.96419 0.95071 0.73347 0.0
C330 C 0.95451 0.97631 0.72792 0.0
H331 H 0.98859 0.05738 0.72883 0.0
H332 H 0.97094 0.03035 0.74774 0.0
H333 H 0.99862 0.02424 0.71921 0.0
H334 H 0.97252 0.97946 0.65548 0.0
H335 H 0.98947 0.93478 0.66515 0.0
H336 H 0.59314 0.36369 0.1189 0.0
H337 H 0.56602 0.40081 0.14105 0.0
H338 H 0.64938 0.42161 0.18805 0.0
H339 H 0.6768 0.38473 0.1658 0.0
H340 H 0.56131 0.41747 0.20728 0.0
H341 H 0.62306 0.48463 0.13067 0.0
H342 H 0.61844 0.45023 0.12314 0.0
H343 H 0.64608 0.46093 0.14994 0.0
C344 C 0.60563 0.37611 0.13406 0.0
C345 C 0.63715 0.37143 0.14047 0.0
C346 C 0.59003 0.3971 0.14689 0.0
C347 C 0.60575 0.41381 0.16616 0.0
C348 C 0.63689 0.40878 0.17331 0.0
H349 H 0.54562 0.55325 0.25856 0.0
H350 H 0.56242 0.50842 0.24834 0.0
C351 C 0.65247 0.38772 0.16062 0.0
C352 C 0.59053 0.4379 0.17653 0.0
H353 H 0.58917 0.50358 0.16483 0.0
C354 C 0.56735 0.43635 0.19814 0.0
C355 C 0.59843 0.46234 0.16431 0.0
C356 C 0.62272 0.46484 0.1406 0.0
C357 C 0.55188 0.4589 0.20794 0.0
C358 C 0.5599 0.48334 0.19569 0.0
C359 C 0.58308 0.48475 0.17412 0.0
C360 C 0.54442 0.50792 0.20423 0.0
C361 C 0.52679 0.45649 0.23087 0.0
C362 C 0.52819 0.52219 0.18307 0.0
C363 C 0.51863 0.54764 0.18885 0.0
C364 C 0.52507 0.55928 0.21593 0.0
C365 C 0.53983 0.54452 0.23771 0.0
C366 C 0.54944 0.51896 0.2319 0.0
H367 H 0.51949 0.43588 0.23431 0.0
H368 H 0.5357 0.46428 0.25187 0.0
H369 H 0.50608 0.46817 0.22471 0.0
H370 H 0.52424 0.51403 0.16155 0.0
H371 H 0.50737 0.55865 0.17167 0.0
H372 H 0.33781 0.37721 0.3328 0.0
H373 H 0.36598 0.41392 0.31115 0.0
H374 H 0.44834 0.39273 0.35924 0.0
H375 H 0.42056 0.35538 0.38036 0.0
H376 H 0.38968 0.45387 0.34427 0.0
H377 H 0.48354 0.40918 0.27782 0.0
H378 H 0.4496 0.39112 0.28978 0.0
H379 H 0.48128 0.39702 0.31455 0.0
C380 C 0.36216 0.3799 0.33819 0.0
C381 C 0.37693 0.36335 0.35833 0.0
C382 C 0.37819 0.40096 0.32587 0.0
C383 C 0.40936 0.40588 0.33329 0.0
C384 C 0.42449 0.389 0.35274 0.0
H385 H 0.50588 0.55132 0.34087 0.0
H386 H 0.48905 0.50587 0.34626 0.0
C387 C 0.40845 0.36789 0.36511 0.0
C388 C 0.4247 0.43032 0.32342 0.0
H389 H 0.48848 0.45493 0.28788 0.0
C390 C 0.41107 0.45406 0.33164 0.0
C391 C 0.45261 0.43052 0.30692 0.0
C392 C 0.46752 0.40561 0.29649 0.0
C393 C 0.42499 0.47798 0.32448 0.0
C394 C 0.45337 0.47819 0.30886 0.0
C395 C 0.46676 0.45457 0.29996 0.0
C396 C 0.46959 0.50309 0.30289 0.0
C397 C 0.40958 0.50299 0.33413 0.0
C398 C 0.4651 0.51612 0.2763 0.0
C399 C 0.47458 0.54216 0.2732 0.0
C400 C 0.48881 0.55532 0.29661 0.0
C401 C 0.49504 0.54159 0.32248 0.0
C402 C 0.48558 0.51565 0.32555 0.0
H403 H 0.38566 0.4996 0.34266 0.0
H404 H 0.42369 0.51219 0.35165 0.0
H405 H 0.40838 0.51699 0.31567 0.0
H406 H 0.45251 0.50673 0.25869 0.0
H407 H 0.46897 0.55245 0.25326 0.0
H408 H 0.10954 0.15927 0.81474 0.0
H409 H 0.08392 0.12233 0.79023 0.0
H410 H 0.10425 0.07315 0.86408 0.0
H411 H 0.13018 0.10967 0.88845 0.0
H412 H 0.1216 0.05338 0.80549 0.0
H413 H 0.99841 0.08636 0.81466 0.0
H414 H 0.02747 0.10899 0.80153 0.0
H415 H 0.02838 0.09849 0.83883 0.0
C416 C 0.10854 0.14056 0.82571 0.0
C417 C 0.12175 0.13741 0.8536 0.0
C418 C 0.09373 0.11957 0.81178 0.0
C419 C 0.09201 0.09513 0.82548 0.0
C420 C 0.1052 0.09193 0.85324 0.0
H421 H 0.00559 0.9514 0.83053 0.0
H422 H 0.01934 0.99769 0.83183 0.0
C423 C 0.11983 0.11286 0.86721 0.0
C424 C 0.07742 0.07238 0.81088 0.0
H425 H 0.00695 0.04399 0.79663 0.0
C426 C 0.09658 0.05145 0.80294 0.0
C427 C 0.04479 0.07008 0.80767 0.0
C428 C 0.02335 0.09206 0.81616 0.0
C429 C 0.08391 0.0277 0.7933 0.0
C430 C 0.05116 0.02492 0.79133 0.0
C431 C 0.03203 0.04631 0.7979 0.0
C432 C 0.0367 0.99885 0.78749 0.0
C433 C 0.10555 0.00517 0.7872 0.0
C434 C 0.04066 0.98444 0.76166 0.0
C435 C 0.03286 0.95785 0.76091 0.0
C436 C 0.02084 0.94551 0.78593 0.0
C437 C 0.01484 0.96048 0.81097 0.0
C438 C 0.02254 0.98694 0.81168 0.0
H439 H 0.13007 0.00976 0.79304 0.0
H440 H 0.09806 0.98761 0.79961 0.0
H441 H 0.10473 0.00029 0.76362 0.0
H442 H 0.05136 0.99337 0.74269 0.0
H443 H 0.03801 0.94665 0.74145 0.0
H444 H 0.09459 0.18313 0.94268 0.0
H445 H 0.08655 0.18559 0.9954 0.0
H446 H 0.18499 0.19738 0.00824 0.0
H447 H 0.19349 0.19434 0.95527 0.0
H448 H 0.12316 0.1494 0.03719 0.0
H449 H 0.13363 0.25634 0.05757 0.0
H450 H 0.1208 0.24394 0.02264 0.0
H451 H 0.16062 0.24019 0.03336 0.0
C452 C 0.11461 0.18624 0.95663 0.0
C453 C 0.14474 0.18827 0.94469 0.0
C454 C 0.10992 0.1878 0.98675 0.0
C455 C 0.13516 0.19169 0.00565 0.0
C456 C 0.16519 0.19457 0.99394 0.0
H457 H 0.0915 0.15444 0.18899 0.0
H458 H 0.12683 0.16482 0.14825 0.0
C459 C 0.16996 0.19292 0.96368 0.0
C460 C 0.12978 0.19099 0.03763 0.0
H461 H 0.11639 0.2301 0.09671 0.0
C462 C 0.12234 0.16692 0.05047 0.0
C463 C 0.12865 0.21394 0.05468 0.0
C464 C 0.13628 0.24019 0.04157 0.0
C465 C 0.11224 0.1653 0.07958 0.0
C466 C 0.10987 0.18841 0.09645 0.0
C467 C 0.11865 0.21239 0.08392 0.0
C468 C 0.09323 0.18832 0.12495 0.0
C469 C 0.10211 0.13907 0.09138 0.0
C470 C 0.06366 0.19974 0.12645 0.0
C471 C 0.04371 0.194 0.14966 0.0
C472 C 0.05306 0.17694 0.17197 0.0
C473 C 0.0839 0.16792 0.17227 0.0
C474 C 0.10392 0.17357 0.14881 0.0
H475 H 0.10143 0.12379 0.07416 0.0
H476 H 0.11867 0.1327 0.1085 0.0
H477 H 0.07863 0.14043 0.10144 0.0
H478 H 0.05492 0.21123 0.10839 0.0
H479 H 0.02 0.20114 0.1489 0.0
H480 H 0.3452 0.27545 0.45156 0.0
H481 H 0.35216 0.27206 0.50468 0.0
H482 H 0.35488 0.35604 0.51101 0.0
H483 H 0.34718 0.35955 0.45848 0.0
H484 H 0.40224 0.28975 0.53585 0.0
H485 H 0.29629 0.33774 0.57721 0.0
H486 H 0.29965 0.32625 0.54004 0.0
H487 H 0.31522 0.35767 0.55029 0.0
C488 C 0.34671 0.29316 0.46442 0.0
C489 C 0.34584 0.31777 0.45078 0.0
C490 C 0.35075 0.2912 0.49472 0.0
C491 C 0.35349 0.3138 0.51194 0.0
C492 C 0.35207 0.33832 0.49837 0.0
H493 H 0.43465 0.38203 0.65252 0.0
H494 H 0.4012 0.36691 0.61305 0.0
C495 C 0.34814 0.3403 0.46821 0.0
C496 C 0.36078 0.31219 0.54362 0.0
H497 H 0.3417 0.33976 0.60911 0.0
C498 C 0.38855 0.29998 0.55211 0.0
C499 C 0.34277 0.32535 0.56489 0.0
C500 C 0.31165 0.33724 0.55767 0.0
C501 C 0.40023 0.30271 0.5806 0.0
C502 C 0.3835 0.31779 0.60118 0.0
C503 C 0.35454 0.32824 0.59331 0.0
C504 C 0.39844 0.32707 0.62849 0.0
C505 C 0.43163 0.29126 0.58781 0.0
C506 C 0.40681 0.30993 0.65113 0.0
C507 C 0.42589 0.31867 0.67407 0.0
C508 C 0.43696 0.34454 0.67431 0.0
C509 C 0.4266 0.36195 0.65276 0.0
C510 C 0.40743 0.35335 0.63021 0.0
H511 H 0.44275 0.28186 0.5686 0.0
H512 H 0.44748 0.30672 0.59617 0.0
H513 H 0.4289 0.27635 0.60521 0.0
H514 H 0.39983 0.2896 0.65034 0.0
H515 H 0.43368 0.30485 0.69036 0.0
H516 H 0.65012 0.284 0.0489 0.0
H517 H 0.64012 0.28197 0.99624 0.0
H518 H 0.66972 0.36223 0.98755 0.0
H519 H 0.67845 0.36452 0.04025 0.0
H520 H 0.61619 0.35572 0.96285 0.0
H521 H 0.6919 0.27577 0.92421 0.0
H522 H 0.667 0.26536 0.95347 0.0
H523 H 0.69608 0.29014 0.95999 0.0
C524 C 0.65499 0.301 0.03557 0.0
C525 C 0.66489 0.32444 0.04855 0.0
C526 C 0.64954 0.29979 0.00544 0.0
C527 C 0.65462 0.32183 0.98769 0.0
C528 C 0.66569 0.34494 1.00065 0.0
H529 H 0.59202 0.35847 0.81074 0.0
H530 H 0.62924 0.35376 0.85107 0.0
C531 C 0.67062 0.34626 0.03076 0.0
C532 C 0.64504 0.32189 0.95644 0.0
H533 H 0.64978 0.28805 0.89213 0.0
C534 C 0.6241 0.34121 0.9473 0.0
C535 C 0.65519 0.3029 0.93604 0.0
C536 C 0.67903 0.28255 0.94385 0.0
C537 C 0.61216 0.34155 0.91884 0.0
C538 C 0.62148 0.3221 0.89877 0.0
C539 C 0.64288 0.30303 0.90754 0.0
C540 C 0.60625 0.32004 0.86984 0.0
C541 C 0.58853 0.36208 0.91079 0.0
C542 C 0.58237 0.30162 0.86606 0.0
C543 C 0.56121 0.30432 0.84315 0.0
C544 C 0.56389 0.32524 0.82348 0.0
C545 C 0.58985 0.34189 0.8253 0.0
C546 C 0.61094 0.33933 0.84845 0.0
H547 H 0.581 0.37379 0.92994 0.0
H548 H 0.59882 0.37556 0.89442 0.0
H549 H 0.56765 0.35286 0.90083 0.0
H550 H 0.57827 0.28669 0.88239 0.0
H551 H 0.5411 0.29148 0.84239 0.0
H552 H 0.89866 0.17381 0.55385 0.0
H553 H 0.90763 0.17728 0.50154 0.0
H554 H 0.80988 0.19179 0.48776 0.0
H555 H 0.80035 0.18679 0.54017 0.0
H556 H 0.82946 0.15729 0.44995 0.0
H557 H 0.91373 0.23847 0.44843 0.0
H558 H 0.92729 0.21364 0.47275 0.0
H559 H 0.89138 0.23044 0.48063 0.0
C560 C 0.87898 0.17771 0.53978 0.0
C561 C 0.84873 0.17989 0.55137 0.0
C562 C 0.88426 0.18015 0.50981 0.0
C563 C 0.85958 0.18539 0.49062 0.0
C564 C 0.82939 0.18803 0.5021 0.0
H565 H 0.93548 0.19719 0.31307 0.0
H566 H 0.90038 0.2096 0.35315 0.0
C567 C 0.82401 0.18535 0.53215 0.0
C568 C 0.86524 0.18594 0.45851 0.0
H569 H 0.91723 0.20793 0.40764 0.0
C570 C 0.84821 0.16883 0.44057 0.0
C571 C 0.88899 0.20152 0.44582 0.0
C572 C 0.90608 0.22226 0.46292 0.0
C573 C 0.85608 0.16524 0.41105 0.0
C574 C 0.88225 0.17852 0.39933 0.0
C575 C 0.89749 0.19732 0.41657 0.0
C576 C 0.89702 0.17061 0.37124 0.0
C577 C 0.83668 0.14671 0.39299 0.0
C578 C 0.90599 0.1445 0.36738 0.0
C579 C 0.92543 0.13744 0.34432 0.0
C580 C 0.93657 0.15628 0.32464 0.0
C581 C 0.92629 0.18215 0.32729 0.0
C582 C 0.90662 0.18928 0.35047 0.0
H583 H 0.81189 0.14726 0.39996 0.0
H584 H 0.838 0.15142 0.36935 0.0
H585 H 0.84507 0.12648 0.39637 0.0
H586 H 0.89989 0.12982 0.38342 0.0
H587 H 0.93356 0.11746 0.34306 0.0
H588 H 0.80049 0.81761 0.04336 0.0
H589 H 0.81048 0.81193 0.99079 0.0
H590 H 0.9078 0.79933 0.00876 0.0
H591 H 0.89803 0.80522 0.06099 0.0
H592 H 0.85617 0.84497 0.95918 0.0
H593 H 0.88204 0.7394 0.95059 0.0
H594 H 0.859 0.75306 0.97991 0.0
H595 H 0.90077 0.75546 0.98076 0.0
C596 C 0.82387 0.81313 0.03604 0.0
C597 C 0.84852 0.81187 0.05616 0.0
C598 C 0.82954 0.80996 0.00609 0.0
C599 C 0.85981 0.8049 0.99595 0.0
C600 C 0.8842 0.8028 0.01616 0.0
H601 H 0.99094 0.80866 0.86716 0.0
H602 H 0.95393 0.7971 0.90525 0.0
C603 C 0.87865 0.80634 0.04594 0.0
C604 C 0.86699 0.80431 0.96428 0.0
H605 H 0.90266 0.76686 0.91259 0.0
C606 C 0.86558 0.82778 0.94858 0.0
C607 C 0.87916 0.78181 0.95065 0.0
C608 C 0.88012 0.75591 0.96623 0.0
C609 C 0.87862 0.82995 0.9205 0.0
C610 C 0.89271 0.8078 0.90752 0.0
C611 C 0.89185 0.78383 0.92244 0.0
C612 C 0.91336 0.81027 0.88152 0.0
C613 C 0.8795 0.85647 0.90612 0.0
C614 C 0.90281 0.82029 0.85469 0.0
C615 C 0.92421 0.82712 0.83271 0.0
C616 C 0.95632 0.82382 0.8373 0.0
C617 C 0.96636 0.81164 0.86309 0.0
C618 C 0.94516 0.80495 0.8849 0.0
H619 H 0.87178 0.87225 0.92109 0.0
H620 H 0.90342 0.86115 0.89845 0.0
H621 H 0.86383 0.85642 0.8869 0.0
H622 H 0.87829 0.82405 0.85132 0.0
H623 H 0.91585 0.83666 0.81317 0.0
H624 H 0.60755 0.67622 0.56088 0.0
H625 H 0.5996 0.67966 0.50822 0.0
H626 H 0.69856 0.68747 0.49505 0.0
H627 H 0.70699 0.68331 0.54786 0.0
H628 H 0.64693 0.72607 0.46334 0.0
H629 H 0.6379 0.61845 0.44889 0.0
H630 H 0.61891 0.63229 0.48037 0.0
H631 H 0.66058 0.63323 0.47777 0.0
C632 C 0.62771 0.67854 0.54687 0.0
C633 C 0.65795 0.67923 0.55868 0.0
C634 C 0.62307 0.6807 0.51679 0.0
C635 C 0.64849 0.68373 0.49784 0.0
C636 C 0.67866 0.68521 0.50941 0.0
H637 H 0.59803 0.65294 0.3162 0.0
H638 H 0.63544 0.66186 0.35558 0.0
C639 C 0.68338 0.68293 0.53959 0.0
C640 C 0.64311 0.68423 0.46592 0.0
H641 H 0.61949 0.64482 0.41013 0.0
C642 C 0.64154 0.70831 0.45144 0.0
C643 C 0.63656 0.66102 0.45042 0.0
C644 C 0.63871 0.63468 0.46497 0.0
C645 C 0.63156 0.70986 0.42225 0.0
C646 C 0.62261 0.68676 0.40742 0.0
C647 C 0.62638 0.66256 0.42138 0.0
C648 C 0.60453 0.68727 0.37976 0.0
C649 C 0.62972 0.73628 0.40787 0.0
C650 C 0.57535 0.69949 0.37955 0.0
C651 C 0.5541 0.69434 0.35727 0.0
C652 C 0.56158 0.67691 0.33467 0.0
C653 C 0.59185 0.66671 0.33319 0.0
C654 C 0.61312 0.67165 0.35579 0.0
H655 H 0.64755 0.74981 0.4169 0.0
H656 H 0.63297 0.73484 0.38387 0.0
H657 H 0.6065 0.74488 0.41227 0.0
H658 H 0.56784 0.71117 0.39796 0.0
H659 H 0.53083 0.70231 0.359 0.0
H660 H 0.39397 0.67232 0.96577 0.0
H661 H 0.40283 0.67642 0.0182 0.0
H662 H 0.30441 0.68652 0.03245 0.0
H663 H 0.29505 0.68171 0.97979 0.0
H664 H 0.35449 0.72401 0.06363 0.0
H665 H 0.36748 0.61693 0.07831 0.0
H666 H 0.38693 0.63075 0.04705 0.0
H667 H 0.34517 0.631 0.04884 0.0
C668 C 0.3741 0.67528 0.97997 0.0
C669 C 0.34373 0.67634 0.96852 0.0
C670 C 0.37926 0.67779 0.00992 0.0
C671 C 0.35426 0.68158 0.02913 0.0
C672 C 0.32399 0.6836 0.0179 0.0
H673 H 0.41283 0.65247 0.20851 0.0
H674 H 0.37341 0.65996 0.17068 0.0
C675 C 0.31874 0.68095 0.98781 0.0
C676 C 0.36022 0.68235 0.06097 0.0
H677 H 0.38755 0.64407 0.11604 0.0
C678 C 0.36107 0.70651 0.07538 0.0
C679 C 0.3683 0.65947 0.07633 0.0
C680 C 0.36675 0.63297 0.06201 0.0
C681 C 0.37199 0.70854 0.10425 0.0
C682 C 0.38263 0.68587 0.1188 0.0
C683 C 0.37945 0.6615 0.10502 0.0
C684 C 0.4017 0.68714 0.14586 0.0
C685 C 0.37299 0.73504 0.11854 0.0
C686 C 0.43006 0.70085 0.14529 0.0
C687 C 0.45246 0.69658 0.16677 0.0
C688 C 0.44701 0.6785 0.18928 0.0
C689 C 0.4175 0.66674 0.19159 0.0
C690 C 0.39505 0.67087 0.16986 0.0
H691 H 0.35397 0.74766 0.11027 0.0
H692 H 0.371 0.73354 0.14266 0.0
H693 H 0.39543 0.74474 0.11313 0.0
H694 H 0.43611 0.71307 0.12682 0.0
H695 H 0.47508 0.7058 0.1644 0.0
H696 H 0.19098 0.8689 0.47664 0.0
H697 H 0.18075 0.86439 0.52897 0.0
H698 H 0.15176 0.78452 0.51538 0.0
H699 H 0.16347 0.78873 0.46318 0.0
H700 H 0.12704 0.85732 0.55196 0.0
H701 H 0.19985 0.77498 0.58855 0.0
H702 H 0.20551 0.79055 0.55359 0.0
H703 H 0.17601 0.76574 0.55816 0.0
C704 C 0.18306 0.85023 0.48502 0.0
C705 C 0.17799 0.82915 0.466 0.0
C706 C 0.17724 0.84764 0.5149 0.0
C707 C 0.16582 0.82401 0.52638 0.0
C708 C 0.16145 0.80271 0.50739 0.0
H709 H 0.04163 0.79178 0.66262 0.0
H710 H 0.08062 0.78748 0.62406 0.0
C711 C 0.16786 0.80517 0.47751 0.0
C712 C 0.15498 0.82279 0.5573 0.0
H713 H 0.15582 0.78568 0.61947 0.0
C714 C 0.13396 0.84195 0.56685 0.0
C715 C 0.16383 0.80272 0.5769 0.0
C716 C 0.1878 0.78251 0.56885 0.0
C717 C 0.12067 0.84104 0.59479 0.0
C718 C 0.12847 0.8204 0.61386 0.0
C719 C 0.15002 0.80154 0.6048 0.0
C720 C 0.11139 0.81698 0.64172 0.0
C721 C 0.09721 0.86157 0.60337 0.0
C722 C 0.11687 0.83377 0.66546 0.0
C723 C 0.09472 0.83599 0.68786 0.0
C724 C 0.06672 0.82176 0.68635 0.0
C725 C 0.06304 0.80295 0.66427 0.0
C726 C 0.08529 0.80048 0.64221 0.0
H727 H 0.09219 0.87536 0.58528 0.0
H728 H 0.07505 0.85216 0.61027 0.0
H729 H 0.10622 0.87292 0.62221 0.0
H730 H 0.13687 0.84672 0.66536 0.0
H731 H 0.09797 0.85081 0.70446 0.0
H732 H 0.3031 0.25692 0.37515 0.0
H733 H 0.26201 0.23392 0.3482 0.0
H734 H 0.23656 0.30592 0.30583 0.0
H735 H 0.27761 0.32886 0.33238 0.0
H736 H 0.20083 0.24218 0.35092 0.0
H737 H 0.23932 0.25705 0.23678 0.0
H738 H 0.2645 0.26313 0.2676 0.0
H739 H 0.23646 0.28719 0.25652 0.0
C740 C 0.28882 0.26778 0.35997 0.0
C741 C 0.29374 0.29465 0.35574 0.0
C742 C 0.26549 0.25461 0.34446 0.0
C743 C 0.24664 0.26806 0.32446 0.0
C744 C 0.25144 0.29492 0.32035 0.0
H745 H 0.05965 0.22648 0.2821 0.0
H746 H 0.10802 0.25052 0.29103 0.0
C747 C 0.27483 0.30804 0.33569 0.0
C748 C 0.22025 0.25457 0.30981 0.0
H749 H 0.18599 0.24363 0.24348 0.0
C750 C 0.19782 0.24229 0.32741 0.0
C751 C 0.21642 0.25447 0.27907 0.0
C752 C 0.24063 0.26594 0.25887 0.0
C753 C 0.17124 0.23066 0.31529 0.0
C754 C 0.16654 0.23181 0.28474 0.0
C755 C 0.18942 0.24323 0.26692 0.0
C756 C 0.13765 0.22126 0.27152 0.0
C757 C 0.14827 0.21727 0.33538 0.0
C758 C 0.13821 0.19789 0.25547 0.0
C759 C 0.11042 0.18436 0.24979 0.0
C760 C 0.08199 0.19409 0.26028 0.0
C761 C 0.0813 0.21876 0.27358 0.0
C762 C 0.10891 0.23237 0.2789 0.0
H763 H 0.15882 0.21256 0.35686 0.0
H764 H 0.12819 0.2304 0.33927 0.0
H765 H 0.13932 0.19894 0.32545 0.0
H766 H 0.16021 0.18904 0.24958 0.0
H767 H 0.11154 0.16511 0.24007 0.0
H768 H 0.17134 0.21397 0.81082 0.0
H769 H 0.21139 0.23665 0.78225 0.0
H770 H 0.27332 0.23463 0.85615 0.0
H771 H 0.23377 0.21147 0.88471 0.0
H772 H 0.26857 0.28458 0.82613 0.0
H773 H 0.293 0.20132 0.75141 0.0
H774 H 0.25303 0.21107 0.75569 0.0
H775 H 0.27337 0.19703 0.78599 0.0
C776 C 0.19355 0.2182 0.82098 0.0
C777 C 0.19937 0.21072 0.85007 0.0
C778 C 0.21637 0.2312 0.8046 0.0
C779 C 0.24541 0.23701 0.81698 0.0
C780 C 0.25103 0.23027 0.84619 0.0
H781 H 0.42863 0.27186 0.77709 0.0
H782 H 0.37756 0.2511 0.78091 0.0
C783 C 0.2283 0.21718 0.86255 0.0
C784 C 0.27024 0.24997 0.79964 0.0
H785 H 0.32375 0.23908 0.74572 0.0
C786 C 0.28034 0.27487 0.80821 0.0
C787 C 0.28554 0.23713 0.77637 0.0
C788 C 0.27595 0.21009 0.76678 0.0
C789 C 0.3061 0.28693 0.79486 0.0
C790 C 0.32199 0.27381 0.77207 0.0
C791 C 0.31121 0.24926 0.76283 0.0
C792 C 0.35267 0.28333 0.76146 0.0
C793 C 0.31729 0.31291 0.80647 0.0
C794 C 0.35589 0.30754 0.74726 0.0
C795 C 0.38533 0.31933 0.74469 0.0
C796 C 0.41161 0.307 0.75644 0.0
C797 C 0.40868 0.28161 0.76766 0.0
C798 C 0.37947 0.2698 0.76998 0.0
H799 H 0.30477 0.31877 0.82667 0.0
H800 H 0.34262 0.31219 0.81127 0.0
H801 H 0.31351 0.32822 0.78973 0.0
H802 H 0.33547 0.31816 0.74024 0.0
H803 H 0.38703 0.33906 0.73629 0.0
H804 H 0.75627 0.19685 0.60993 0.0
H805 H 0.71505 0.21908 0.63716 0.0
H806 H 0.77667 0.22826 0.71067 0.0
H807 H 0.81825 0.20628 0.68343 0.0
H808 H 0.69142 0.2022 0.69598 0.0
H809 H 0.74008 0.30326 0.69293 0.0
H810 H 0.75141 0.27876 0.66665 0.0
H811 H 0.76533 0.27689 0.70345 0.0
C812 C 0.76121 0.20392 0.63173 0.0
C813 C 0.79056 0.19987 0.64448 0.0
C814 C 0.73758 0.21643 0.64733 0.0
C815 C 0.74288 0.22536 0.67585 0.0
C816 C 0.7722 0.22164 0.68861 0.0
H817 H 0.60482 0.32337 0.76738 0.0
H818 H 0.65129 0.29564 0.76227 0.0
C819 C 0.79584 0.20897 0.67307 0.0
C820 C 0.71733 0.23811 0.69222 0.0
H821 H 0.69046 0.29775 0.71368 0.0
C822 C 0.69135 0.22304 0.70024 0.0
C823 C 0.71755 0.26519 0.69815 0.0
C824 C 0.74496 0.28215 0.68982 0.0
C825 C 0.66496 0.23455 0.71289 0.0
C826 C 0.66429 0.26192 0.71701 0.0
C827 C 0.69101 0.27677 0.71057 0.0
C828 C 0.63482 0.27588 0.72341 0.0
C829 C 0.63772 0.21734 0.72106 0.0
C830 C 0.6101 0.27372 0.70359 0.0
C831 C 0.58388 0.28941 0.70649 0.0
C832 C 0.58169 0.30769 0.72925 0.0
C833 C 0.60571 0.30911 0.74998 0.0
C834 C 0.6323 0.29345 0.74691 0.0
H835 H 0.64557 0.19735 0.72682 0.0
H836 H 0.62447 0.22554 0.73975 0.0
H837 H 0.6218 0.21562 0.70209 0.0
H838 H 0.61173 0.26081 0.68493 0.0
H839 H 0.56574 0.28796 0.69013 0.0
H840 H 0.74624 0.29276 0.10938 0.0
H841 H 0.78254 0.26655 0.13755 0.0
H842 H 0.72228 0.27181 0.21273 0.0
H843 H 0.68446 0.29603 0.184 0.0
H844 H 0.81515 0.27868 0.18348 0.0
H845 H 0.73803 0.19563 0.21322 0.0
H846 H 0.72678 0.21999 0.18696 0.0
H847 H 0.72391 0.22666 0.22547 0.0
C848 C 0.74015 0.28777 0.13164 0.0
C849 C 0.71215 0.29651 0.14421 0.0
C850 C 0.76123 0.27304 0.1479 0.0
C851 C 0.75509 0.26689 0.17725 0.0
C852 C 0.72732 0.27572 0.18999 0.0
H853 H 0.921 0.19999 0.26303 0.0
H854 H 0.87508 0.22829 0.25947 0.0
C855 C 0.7059 0.29002 0.17356 0.0
C856 C 0.7783 0.25179 0.19437 0.0
H857 H 0.78864 0.19544 0.23296 0.0
C858 C 0.80934 0.26051 0.19442 0.0
C859 C 0.77066 0.22815 0.20879 0.0
C860 C 0.73811 0.21689 0.20844 0.0
C861 C 0.83323 0.24565 0.20696 0.0
C862 C 0.8257 0.2218 0.22105 0.0
C863 C 0.79437 0.21382 0.22245 0.0
C864 C 0.85017 0.20283 0.22969 0.0
C865 C 0.86646 0.25485 0.20316 0.0
C866 C 0.85023 0.17816 0.21641 0.0
C867 C 0.87579 0.16174 0.21927 0.0
C868 C 0.90204 0.16966 0.23532 0.0
C869 C 0.90095 0.19328 0.25085 0.0
C870 C 0.87497 0.20968 0.24829 0.0
H871 H 0.86847 0.27081 0.18682 0.0
H872 H 0.87531 0.26242 0.22428 0.0
H873 H 0.88167 0.23855 0.19608 0.0
H874 H 0.83137 0.17223 0.20215 0.0
H875 H 0.87584 0.14351 0.20726 0.0
H876 H 0.74964 0.69728 0.61871 0.0
H877 H 0.78965 0.72094 0.64614 0.0
H878 H 0.72552 0.73098 0.71777 0.0
H879 H 0.68537 0.70738 0.69047 0.0
H880 H 0.78838 0.77116 0.66681 0.0
H881 H 0.80226 0.70136 0.75854 0.0
H882 H 0.78222 0.69292 0.7252 0.0
H883 H 0.76302 0.71216 0.75261 0.0
C884 C 0.74399 0.70465 0.64023 0.0
C885 C 0.71434 0.70034 0.65243 0.0
C886 C 0.76693 0.71802 0.65597 0.0
C887 C 0.76077 0.72732 0.68424 0.0
C888 C 0.73108 0.7234 0.69633 0.0
H889 H 0.88285 0.84637 0.75757 0.0
H890 H 0.83531 0.82072 0.74943 0.0
C891 C 0.70813 0.70997 0.68064 0.0
C892 C 0.78514 0.74199 0.70045 0.0
H893 H 0.82997 0.7414 0.76213 0.0
C894 C 0.79737 0.76471 0.68771 0.0
C895 C 0.79702 0.7334 0.72762 0.0
C896 C 0.78571 0.7085 0.74175 0.0
C897 C 0.82129 0.779 0.70118 0.0
C898 C 0.83288 0.77069 0.72859 0.0
C899 C 0.82064 0.74798 0.74143 0.0
C900 C 0.85957 0.78428 0.74259 0.0
C901 C 0.83474 0.80234 0.68536 0.0
C902 C 0.88858 0.77181 0.7441 0.0
C903 C 0.91563 0.78636 0.74942 0.0
C904 C 0.91392 0.81347 0.75339 0.0
C905 C 0.88462 0.82539 0.75511 0.0
C906 C 0.85754 0.81081 0.75006 0.0
H907 H 0.82789 0.80271 0.66198 0.0
H908 H 0.82606 0.8205 0.69572 0.0
H909 H 0.86056 0.80245 0.68664 0.0
H910 H 0.89067 0.75134 0.73847 0.0
H911 H 0.93806 0.7769 0.74733 0.0
H912 H 0.80068 0.75975 0.13414 0.0
H913 H 0.76127 0.73776 0.16416 0.0
H914 H 0.73689 0.81132 0.20365 0.0
H915 H 0.77559 0.83357 0.17317 0.0
H916 H 0.75642 0.73678 0.22691 0.0
H917 H 0.65302 0.78203 0.1743 0.0
H918 H 0.69112 0.7826 0.15761 0.0
H919 H 0.68247 0.80408 0.18748 0.0
C920 C 0.78666 0.7713 0.14893 0.0
C921 C 0.79123 0.79842 0.15118 0.0
C922 C 0.76437 0.75868 0.16627 0.0
C923 C 0.74606 0.77294 0.18601 0.0
C924 C 0.75056 0.79999 0.18836 0.0
H925 H 0.57995 0.70863 0.27202 0.0
H926 H 0.625 0.73819 0.26715 0.0
C927 C 0.77286 0.81262 0.17107 0.0
C928 C 0.72214 0.75939 0.20389 0.0
H929 H 0.64357 0.75199 0.21192 0.0
C930 C 0.73173 0.74028 0.22388 0.0
C931 C 0.68998 0.76424 0.20021 0.0
C932 C 0.67835 0.78421 0.17863 0.0
C933 C 0.70996 0.72523 0.23952 0.0
C934 C 0.67779 0.72909 0.23465 0.0
C935 C 0.66824 0.74915 0.21581 0.0
C936 C 0.65391 0.71004 0.24469 0.0
C937 C 0.72164 0.70496 0.26067 0.0
C938 C 0.65569 0.68418 0.23478 0.0
C939 C 0.63015 0.6675 0.23744 0.0
C940 C 0.6023 0.67628 0.25009 0.0
C941 C 0.60132 0.70134 0.26247 0.0
C942 C 0.62693 0.71825 0.25952 0.0
H943 H 0.74439 0.7109 0.27017 0.0
H944 H 0.70477 0.70154 0.27868 0.0
H945 H 0.72523 0.68629 0.24886 0.0
H946 H 0.67588 0.67749 0.22276 0.0
H947 H 0.63138 0.64829 0.22758 0.0
H948 H 0.24557 0.83904 0.34577 0.0
H949 H 0.2814 0.81334 0.3159 0.0
H950 H 0.25041 0.74305 0.35904 0.0
H951 H 0.21392 0.76858 0.38858 0.0
H952 H 0.32967 0.78222 0.33587 0.0
H953 H 0.24511 0.72359 0.27208 0.0
H954 H 0.23421 0.75278 0.29169 0.0
H955 H 0.23851 0.72233 0.31078 0.0
C956 C 0.24605 0.81806 0.34863 0.0
C957 C 0.22673 0.80581 0.36943 0.0
C958 C 0.26661 0.80343 0.3316 0.0
C959 C 0.26813 0.77625 0.33483 0.0
C960 C 0.24909 0.76395 0.35572 0.0
H961 H 0.3805 0.64823 0.30064 0.0
H962 H 0.33768 0.67881 0.3063 0.0
C963 C 0.22856 0.77859 0.37286 0.0
C964 C 0.29101 0.76094 0.31771 0.0
H965 H 0.29788 0.70839 0.2723 0.0
C966 C 0.32279 0.76636 0.32153 0.0
C967 C 0.28188 0.7404 0.2989 0.0
C968 C 0.24805 0.73454 0.29284 0.0
C969 C 0.34576 0.75074 0.30858 0.0
C970 C 0.33666 0.72944 0.29074 0.0
C971 C 0.30483 0.72481 0.2858 0.0
C972 C 0.35951 0.70956 0.28106 0.0
C973 C 0.37951 0.75615 0.31568 0.0
C974 C 0.38523 0.71608 0.2634 0.0
C975 C 0.40996 0.69849 0.26014 0.0
C976 C 0.40907 0.67425 0.27447 0.0
C977 C 0.38192 0.6669 0.28958 0.0
C978 C 0.35737 0.68436 0.2928 0.0
H979 H 0.38216 0.77061 0.3336 0.0
H980 H 0.39153 0.73789 0.32216 0.0
H981 H 0.39141 0.76406 0.29605 0.0
H982 H 0.38702 0.73527 0.25363 0.0
H983 H 0.43065 0.70466 0.24844 0.0
H984 H 0.25178 0.69211 0.90619 0.0
H985 H 0.21308 0.71695 0.87871 0.0
H986 H 0.28094 0.73166 0.81105 0.0
H987 H 0.31945 0.70622 0.83814 0.0
H988 H 0.21325 0.76632 0.86455 0.0
H989 H 0.20834 0.70888 0.76225 0.0
H990 H 0.22754 0.69714 0.79467 0.0
H991 H 0.24701 0.71984 0.77075 0.0
C992 C 0.25839 0.7006 0.88542 0.0
C993 C 0.2886 0.69719 0.87429 0.0
C994 C 0.23623 0.71469 0.86965 0.0
C995 C 0.24384 0.72581 0.84248 0.0
C996 C 0.27414 0.72263 0.83147 0.0
H997 H 0.13586 0.85617 0.7794 0.0
H998 H 0.17962 0.82735 0.79022 0.0
C999 C 0.29621 0.70825 0.84708 0.0
C1000 C 0.22059 0.74209 0.82678 0.0
H1001 H 0.18338 0.75052 0.76143 0.0
C1002 C 0.2067 0.76275 0.84203 0.0
C1003 C 0.21166 0.7373 0.79747 0.0
C1004 C 0.22417 0.71442 0.78041 0.0
C1005 C 0.18439 0.77882 0.8289 0.0
C1006 C 0.17646 0.7748 0.79921 0.0
C1007 C 0.18996 0.75392 0.78397 0.0
C1008 C 0.15321 0.79166 0.78441 0.0
C1009 C 0.16894 0.79953 0.84734 0.0
C1010 C 0.1248 0.78113 0.77462 0.0
C1011 C 0.10001 0.79766 0.76743 0.0
C1012 C 0.10336 0.82481 0.77035 0.0
C1013 C 0.13276 0.83527 0.77703 0.0
C1014 C 0.15764 0.81882 0.78355 0.0
H1015 H 0.17123 0.79535 0.87104 0.0
H1016 H 0.18024 0.81867 0.84305 0.0
H1017 H 0.1438 0.80119 0.84207 0.0
H1018 H 0.12097 0.76021 0.77483 0.0
H1019 H 0.07745 0.78917 0.76258 0.0
loop_
_geom_bond_atom_site_label_1
_geom_bond_atom_site_label_2
_geom_bond_distance
_geom_bond_site_symmetry_2
_ccdc_geom_bond_type
H0 C3 0.931 . S
H1 C6 0.928 . S
H2 C8 0.930 . S
C3 H0 0.931 . S
C3 C4 1.413 . S
C3 C5 1.360 . S
C4 C3 1.413 . S
C4 C8 1.429 . S
C5 C3 1.360 . S
C5 C6 1.372 . S
C6 H1 0.928 . S
C6 C5 1.372 . S
C6 C7 1.404 . S
C7 C6 1.404 . S
C7 C8 1.391 . S
C8 H2 0.930 . S
C8 C4 1.429 . S
C8 C7 1.391 . S
H9 C12 0.931 . S
H10 C15 0.928 . S
H11 C17 0.930 . S
C12 H9 0.931 . S
C12 C13 1.413 . S
C12 C14 1.360 . S
C13 C12 1.413 . S
C13 C17 1.429 . S
C14 C12 1.360 . S
C14 C15 1.372 . S
C15 H10 0.928 . S
C15 C14 1.372 . S
C15 C16 1.404 . S
C16 C15 1.404 . S
C16 C17 1.391 . S
C17 H11 0.930 . S
C17 C13 1.429 . S
C17 C16 1.391 . S
H18 C21 0.931 . S
H19 C24 0.928 . S
H20 C26 0.930 . S
C21 H18 0.931 . S
C21 C22 1.413 . S
C21 C23 1.360 . S
C22 C21 1.413 . S
C22 C26 1.429 . S
C23 C21 1.360 . S
C23 C24 1.372 . S
C24 H19 0.928 . S
C24 C23 1.372 . S
C24 C25 1.404 . S
C25 C24 1.404 . S
C25 C26 1.391 . S
C26 H20 0.930 . S
C26 C22 1.429 . S
C26 C25 1.391 . S
H27 C30 0.931 . S
H28 C33 0.928 . S
H29 C35 0.930 . S
C30 H27 0.931 . S
C30 C31 1.413 . S
C30 C32 1.360 . S
C31 C30 1.413 . S
C31 C35 1.429 . S
C32 C30 1.360 . S
C32 C33 1.372 . S
C33 H28 0.928 . S
C33 C32 1.372 . S
C33 C34 1.404 . S
C34 C33 1.404 . S
C34 C35 1.391 . S
C35 H29 0.930 . S
C35 C31 1.429 . S
C35 C34 1.391 . S
H36 C39 0.931 . S
H37 C42 0.928 . S
H38 C44 0.930 . S
C39 H36 0.931 . S
C39 C40 1.413 . S
C39 C41 1.360 . S
C40 C39 1.413 . S
C40 C44 1.429 . S
C41 C39 1.360 . S
C41 C42 1.372 . S
C42 H37 0.928 . S
C42 C41 1.372 . S
C42 C43 1.404 . S
C43 C42 1.404 . S
C43 C44 1.391 . S
C44 H38 0.930 . S
C44 C40 1.429 . S
C44 C43 1.391 . S
H45 C48 0.931 . S
H46 C51 0.928 . S
H47 C53 0.930 . S
C48 H45 0.931 . S
C48 C49 1.413 . S
C48 C50 1.360 . S
C49 C48 1.413 . S
C49 C53 1.429 . S
C50 C48 1.360 . S
C50 C51 1.372 . S
C51 H46 0.928 . S
C51 C50 1.372 . S
C51 C52 1.404 . S
C52 C51 1.404 . S
C52 C53 1.391 . S
C53 H47 0.930 . S
C53 C49 1.429 . S
C53 C52 1.391 . S
H54 C57 0.931 . S
H55 C60 0.928 . S
H56 C62 0.930 . S
C57 H54 0.931 . S
C57 C58 1.413 . S
C57 C59 1.360 . S
C58 C57 1.413 . S
C58 C62 1.429 . S
C59 C57 1.360 . S
C59 C60 1.372 . S
C60 H55 0.928 . S
C60 C59 1.372 . S
C60 C61 1.404 . S
C61 C60 1.404 . S
C61 C62 1.391 . S
C62 H56 0.930 . S
C62 C58 1.429 . S
C62 C61 1.391 . S
H63 C66 0.931 . S
H64 C69 0.928 . S
H65 C71 0.930 . S
C66 H63 0.931 . S
C66 C67 1.413 . S
C66 C68 1.360 . S
C67 C66 1.413 . S
C67 C71 1.429 . S
C68 C66 1.360 . S
C68 C69 1.372 . S
C69 H64 0.928 . S
C69 C68 1.372 . S
C69 C70 1.404 . S
C70 C69 1.404 . S
C70 C71 1.391 . S
C71 H65 0.930 . S
C71 C67 1.429 . S
C71 C70 1.391 . S
Zn72 O78 1.920 1_455 S
Zn72 O84 1.898 . S
Zn72 O87 1.905 . S
Zn73 O81 1.905 1_655 S
Zn73 O82 1.898 . S
Zn73 O90 1.920 . S
Zn74 O77 2.080 1_455 S
Zn74 O80 2.114 . S
Zn74 O83 2.120 1_455 S
Zn74 O85 2.120 . S
Zn74 O86 2.114 . S
Zn74 O89 2.080 1_455 S
C75 O80 1.166 . S
C75 O81 1.182 . S
C76 O82 1.167 . S
C76 O83 1.299 . S
O77 Zn74 2.080 1_655 S
O77 C91 1.305 . S
O78 Zn72 1.920 1_655 S
O78 C91 1.234 . S
C79 O84 1.167 . S
C79 O85 1.299 . S
O80 Zn74 2.114 . S
O80 C75 1.166 . S
O81 Zn73 1.905 1_455 S
O81 C75 1.182 . S
O82 Zn73 1.898 . S
O82 C76 1.167 . S
O83 Zn74 2.120 1_655 S
O83 C76 1.299 . S
O84 Zn72 1.898 . S
O84 C79 1.167 . S
O85 Zn74 2.120 . S
O85 C79 1.299 . S
O86 Zn74 2.114 . S
O86 C88 1.166 . S
O87 Zn72 1.905 . S
O87 C88 1.182 . S
C88 O86 1.166 . S
C88 O87 1.182 . S
O89 Zn74 2.080 1_655 S
O89 C92 1.305 . S
O90 Zn73 1.920 . S
O90 C92 1.234 . S
C91 O77 1.305 . S
C91 O78 1.234 . S
C92 O89 1.305 . S
C92 O90 1.234 . S
Zn93 O99 1.920 . S
Zn93 O105 1.898 . S
Zn93 O108 1.905 . S
Zn94 O102 1.905 . S
Zn94 O103 1.898 . S
Zn94 O111 1.920 . S
Zn95 O98 2.080 . S
Zn95 O101 2.114 . S
Zn95 O104 2.120 . S
Zn95 O106 2.120 . S
Zn95 O107 2.114 . S
Zn95 O110 2.080 . S
C96 O101 1.166 . S
C96 O102 1.182 . S
C97 O103 1.167 . S
C97 O104 1.299 . S
O98 Zn95 2.080 . S
O98 C112 1.305 . S
O99 Zn93 1.920 . S
O99 C112 1.234 . S
C100 O105 1.167 . S
C100 O106 1.299 . S
O101 Zn95 2.114 . S
O101 C96 1.166 . S
O102 Zn94 1.905 . S
O102 C96 1.182 . S
O103 Zn94 1.898 . S
O103 C97 1.167 . S
O104 Zn95 2.120 . S
O104 C97 1.299 . S
O105 Zn93 1.898 . S
O105 C100 1.167 . S
O106 Zn95 2.120 . S
O106 C100 1.299 . S
O107 Zn95 2.114 . S
O107 C109 1.166 . S
O108 Zn93 1.905 . S
O108 C109 1.182 . S
C109 O107 1.166 . S
C109 O108 1.182 . S
O110 Zn95 2.080 . S
O110 C113 1.305 . S
O111 Zn94 1.920 . S
O111 C113 1.234 . S
C112 O98 1.305 . S
C112 O99 1.234 . S
C113 O110 1.305 . S
C113 O111 1.234 . S
Zn114 O120 1.920 . S
Zn114 O126 1.898 . S
Zn114 O129 1.905 1_455 S
Zn115 O123 1.905 . S
Zn115 O124 1.898 . S
Zn115 O132 1.920 1_655 S
Zn116 O119 2.080 . S
Zn116 O122 2.114 1_455 S
Zn116 O125 2.120 1_455 S
Zn116 O127 2.120 . S
Zn116 O128 2.114 1_455 S
Zn116 O131 2.080 . S
C117 O122 1.166 . S
C117 O123 1.182 . S
C118 O124 1.167 . S
C118 O125 1.299 . S
O119 Zn116 2.080 . S
O119 C133 1.305 . S
O120 Zn114 1.920 . S
O120 C133 1.234 . S
C121 O126 1.167 . S
C121 O127 1.299 . S
O122 Zn116 2.114 1_655 S
O122 C117 1.166 . S
O123 Zn115 1.905 . S
O123 C117 1.182 . S
O124 Zn115 1.898 . S
O124 C118 1.167 . S
O125 Zn116 2.120 1_655 S
O125 C118 1.299 . S
O126 Zn114 1.898 . S
O126 C121 1.167 . S
O127 Zn116 2.120 . S
O127 C121 1.299 . S
O128 Zn116 2.114 1_655 S
O128 C130 1.166 . S
O129 Zn114 1.905 1_655 S
O129 C130 1.182 . S
C130 O128 1.166 . S
C130 O129 1.182 . S
O131 Zn116 2.080 . S
O131 C134 1.305 . S
O132 Zn115 1.920 1_455 S
O132 C134 1.234 . S
C133 O119 1.305 . S
C133 O120 1.234 . S
C134 O131 1.305 . S
C134 O132 1.234 . S
Zn135 O141 1.920 . S
Zn135 O147 1.898 . S
Zn135 O150 1.905 . S
Zn136 O144 1.905 . S
Zn136 O145 1.898 . S
Zn136 O153 1.920 . S
Zn137 O140 2.080 . S
Zn137 O143 2.114 . S
Zn137 O146 2.120 . S
Zn137 O148 2.120 . S
Zn137 O149 2.114 . S
Zn137 O152 2.080 . S
C138 O143 1.166 . S
C138 O144 1.182 . S
C139 O145 1.167 . S
C139 O146 1.299 . S
O140 Zn137 2.080 . S
O140 C154 1.305 . S
O141 Zn135 1.920 . S
O141 C154 1.234 . S
C142 O147 1.167 . S
C142 O148 1.299 . S
O143 Zn137 2.114 . S
O143 C138 1.166 . S
O144 Zn136 1.905 . S
O144 C138 1.182 . S
O145 Zn136 1.898 . S
O145 C139 1.167 . S
O146 Zn137 2.120 . S
O146 C139 1.299 . S
O147 Zn135 1.898 . S
O147 C142 1.167 . S
O148 Zn137 2.120 . S
O148 C142 1.299 . S
O149 Zn137 2.114 . S
O149 C151 1.166 . S
O150 Zn135 1.905 . S
O150 C151 1.182 . S
C151 O149 1.166 . S
C151 O150 1.182 . S
O152 Zn137 2.080 . S
O152 C155 1.305 . S
O153 Zn136 1.920 . S
O153 C155 1.234 . S
C154 O140 1.305 . S
C154 O141 1.234 . S
C155 O152 1.305 . S
C155 O153 1.234 . S
H156 C164 0.929 . S
H157 C166 0.930 . S
H158 C168 0.930 . S
H159 C171 0.929 . S
H160 C174 0.930 . S
H161 C176 0.960 . S
H162 C176 0.960 . S
H163 C176 0.960 . S
C164 H156 0.929 . S
C164 C165 1.377 . S
C164 C166 1.384 . S
C165 C164 1.377 . S
C165 C171 1.390 . S
C166 H157 0.930 . S
C166 C164 1.384 . S
C166 C167 1.372 . S
C167 C166 1.372 . S
C167 C168 1.400 . S
C167 C172 1.490 . S
C168 H158 0.930 . S
C168 C167 1.400 . S
C168 C171 1.386 . S
H169 C185 0.930 . S
H170 C186 0.931 . S
C171 H159 0.929 . S
C171 C165 1.390 . S
C171 C168 1.386 . S
C172 C167 1.490 . S
C172 C174 1.395 . S
C172 C175 1.403 . S
H173 C179 0.930 1_545 S
C174 H160 0.930 . S
C174 C172 1.395 . S
C174 C177 1.439 . S
C175 C172 1.403 . S
C175 C176 1.524 . S
C175 C179 1.400 . S
C176 H161 0.960 . S
C176 H162 0.960 . S
C176 H163 0.960 . S
C176 C175 1.524 . S
C177 C174 1.439 . S
C177 C178 1.375 1_565 S
C177 C181 1.479 1_565 S
C178 C177 1.375 1_545 S
C178 C179 1.385 1_545 S
C178 C180 1.478 . S
C179 H173 0.930 1_565 S
C179 C175 1.400 . S
C179 C178 1.385 1_565 S
C180 C178 1.478 . S
C180 C182 1.381 . S
C180 C186 1.383 . S
C181 C177 1.479 1_545 S
C181 H187 0.960 1_545 S
C181 H188 0.961 . S
C181 H189 0.960 . S
C182 C180 1.381 . S
C182 C183 1.394 . S
C182 H190 0.930 . S
C183 C182 1.394 . S
C183 C184 1.383 . S
C183 H191 0.929 . S
C184 C183 1.383 . S
C184 C185 1.377 . S
C185 H169 0.930 . S
C185 C184 1.377 . S
C185 C186 1.379 . S
C186 H170 0.931 . S
C186 C180 1.383 . S
C186 C185 1.379 . S
H187 C181 0.960 1_565 S
H188 C181 0.961 . S
H189 C181 0.960 . S
H190 C182 0.930 . S
H191 C183 0.929 . S
H192 C200 0.929 . S
H193 C202 0.930 . S
H194 C204 0.930 . S
H195 C207 0.929 . S
H196 C210 0.930 . S
H197 C212 0.960 . S
H198 C212 0.960 . S
H199 C212 0.960 . S
C200 H192 0.929 . S
C200 C201 1.377 . S
C200 C202 1.384 . S
C201 C200 1.377 . S
C201 C207 1.390 . S
C202 H193 0.930 . S
C202 C200 1.384 . S
C202 C203 1.372 . S
C203 C202 1.372 . S
C203 C204 1.400 . S
C203 C208 1.490 . S
C204 H194 0.930 . S
C204 C203 1.400 . S
C204 C207 1.386 . S
H205 C221 0.930 . S
H206 C222 0.931 . S
C207 H195 0.929 . S
C207 C201 1.390 . S
C207 C204 1.386 . S
C208 C203 1.490 . S
C208 C210 1.395 . S
C208 C211 1.403 . S
H209 C215 0.930 . S
C210 H196 0.930 . S
C210 C208 1.395 . S
C210 C213 1.403 . S
C211 C208 1.403 . S
C211 C212 1.524 . S
C211 C215 1.400 . S
C212 H197 0.960 . S
C212 H198 0.960 . S
C212 H199 0.960 . S
C212 C211 1.524 . S
C213 C210 1.403 . S
C213 C214 1.392 . S
C213 C217 1.495 . S
C214 C213 1.392 . S
C214 C215 1.385 . S
C214 C216 1.478 . S
C215 H209 0.930 . S
C215 C211 1.400 . S
C215 C214 1.385 . S
C216 C214 1.478 . S
C216 C218 1.381 . S
C216 C222 1.383 . S
C217 C213 1.495 . S
C217 H223 0.959 . S
C217 H224 0.961 . S
C217 H225 0.960 . S
C218 C216 1.381 . S
C218 C219 1.394 . S
C218 H226 0.930 . S
C219 C218 1.394 . S
C219 C220 1.383 . S
C219 H227 0.929 . S
C220 C219 1.383 . S
C220 C221 1.377 . S
C221 H205 0.930 . S
C221 C220 1.377 . S
C221 C222 1.379 . S
C222 H206 0.931 . S
C222 C216 1.383 . S
C222 C221 1.379 . S
H223 C217 0.959 . S
H224 C217 0.961 . S
H225 C217 0.960 . S
H226 C218 0.930 . S
H227 C219 0.929 . S
H228 C236 0.929 . S
H229 C238 0.930 . S
H230 C240 0.930 . S
H231 C243 0.929 . S
H232 C246 0.930 . S
H233 C248 0.960 . S
H234 C248 0.960 . S
H235 C248 0.960 . S
C236 H228 0.929 . S
C236 C237 1.377 . S
C236 C238 1.384 . S
C237 C236 1.377 . S
C237 C243 1.390 . S
C238 H229 0.930 . S
C238 C236 1.384 . S
C238 C239 1.372 . S
C239 C238 1.372 . S
C239 C240 1.400 . S
C239 C244 1.490 . S
C240 H230 0.930 . S
C240 C239 1.400 . S
C240 C243 1.386 . S
H241 C257 0.930 . S
H242 C258 0.931 . S
C243 H231 0.929 . S
C243 C237 1.390 . S
C243 C240 1.386 . S
C244 C239 1.490 . S
C244 C246 1.395 . S
C244 C247 1.403 . S
H245 C251 0.930 . S
C246 H232 0.930 . S
C246 C244 1.395 . S
C246 C249 1.403 . S
C247 C244 1.403 . S
C247 C248 1.524 . S
C247 C251 1.400 . S
C248 H233 0.960 . S
C248 H234 0.960 . S
C248 H235 0.960 . S
C248 C247 1.524 . S
C249 C246 1.403 . S
C249 C250 1.392 . S
C249 C253 1.495 . S
C250 C249 1.392 . S
C250 C251 1.385 . S
C250 C252 1.478 . S
C251 H245 0.930 . S
C251 C247 1.400 . S
C251 C250 1.385 . S
C252 C250 1.478 . S
C252 C254 1.381 . S
C252 C258 1.383 . S
C253 C249 1.495 . S
C253 H259 0.959 . S
C253 H260 0.961 . S
C253 H261 0.960 . S
C254 C252 1.381 . S
C254 C255 1.394 . S
C254 H262 0.930 . S
C255 C254 1.394 . S
C255 C256 1.383 . S
C255 H263 0.929 . S
C256 C255 1.383 . S
C256 C257 1.377 . S
C257 H241 0.930 . S
C257 C256 1.377 . S
C257 C258 1.379 . S
C258 H242 0.931 . S
C258 C252 1.383 . S
C258 C257 1.379 . S
H259 C253 0.959 . S
H260 C253 0.961 . S
H261 C253 0.960 . S
H262 C254 0.930 . S
H263 C255 0.929 . S
H264 C272 0.929 . S
H265 C274 0.930 . S
H266 C276 0.930 . S
H267 C279 0.929 . S
H268 C282 0.930 . S
H269 C284 0.960 1_545 S
H270 C284 0.960 . S
H271 C284 0.960 . S
C272 H264 0.929 . S
C272 C273 1.377 . S
C272 C274 1.384 . S
C273 C272 1.377 . S
C273 C279 1.390 . S
C274 H265 0.930 . S
C274 C272 1.384 . S
C274 C275 1.372 . S
C275 C274 1.372 . S
C275 C276 1.400 . S
C275 C280 1.490 . S
C276 H266 0.930 . S
C276 C275 1.400 . S
C276 C279 1.386 . S
H277 C293 0.930 . S
H278 C294 0.931 . S
C279 H267 0.929 . S
C279 C273 1.390 . S
C279 C276 1.386 . S
C280 C275 1.490 . S
C280 C282 1.395 . S
C280 C283 1.403 . S
H281 C287 0.930 . S
C282 H268 0.930 . S
C282 C280 1.395 . S
C282 C285 1.403 . S
C283 C280 1.403 . S
C283 C284 1.524 . S
C283 C287 1.400 1_565 S
C284 H269 0.960 1_565 S
C284 H270 0.960 . S
C284 H271 0.960 . S
C284 C283 1.524 . S
C285 C282 1.403 . S
C285 C286 1.392 1_565 S
C285 C289 1.495 . S
C286 C285 1.392 1_545 S
C286 C287 1.385 . S
C286 C288 1.478 . S
C287 H281 0.930 . S
C287 C283 1.400 1_545 S
C287 C286 1.385 . S
C288 C286 1.478 . S
C288 C290 1.381 . S
C288 C294 1.383 . S
C289 C285 1.495 . S
C289 H295 0.959 . S
C289 H296 0.961 . S
C289 H297 0.960 . S
C290 C288 1.381 . S
C290 C291 1.394 . S
C290 H298 0.930 . S
C291 C290 1.394 . S
C291 C292 1.383 . S
C291 H299 0.929 . S
C292 C291 1.383 . S
C292 C293 1.377 . S
C293 H277 0.930 . S
C293 C292 1.377 . S
C293 C294 1.379 . S
C294 H278 0.931 . S
C294 C288 1.383 . S
C294 C293 1.379 . S
H295 C289 0.959 . S
H296 C289 0.961 . S
H297 C289 0.960 . S
H298 C290 0.930 . S
H299 C291 0.929 . S
H300 C308 0.929 . S
H301 C310 0.930 . S
H302 C312 0.930 . S
H303 C315 0.929 . S
H304 C318 0.930 . S
H305 C320 0.960 1_565 S
H306 C320 0.960 . S
H307 C320 0.960 . S
C308 H300 0.929 . S
C308 C309 1.377 . S
C308 C310 1.384 . S
C309 C308 1.377 . S
C309 C315 1.390 . S
C310 H301 0.930 . S
C310 C308 1.384 . S
C310 C311 1.372 . S
C311 C310 1.372 . S
C311 C312 1.400 . S
C311 C316 1.490 . S
C312 H302 0.930 . S
C312 C311 1.400 . S
C312 C315 1.386 . S
H313 C329 0.930 . S
H314 C330 0.931 . S
C315 H303 0.929 . S
C315 C309 1.390 . S
C315 C312 1.386 . S
C316 C311 1.490 . S
C316 C318 1.395 . S
C316 C319 1.403 . S
H317 C323 0.930 . S
C318 H304 0.930 . S
C318 C316 1.395 . S
C318 C321 1.403 . S
C319 C316 1.403 . S
C319 C320 1.524 . S
C319 C323 1.400 1_545 S
C320 H305 0.960 1_545 S
C320 H306 0.960 . S
C320 H307 0.960 . S
C320 C319 1.524 . S
C321 C318 1.403 . S
C321 C322 1.392 1_545 S
C321 C325 1.495 . S
C322 C321 1.392 1_565 S
C322 C323 1.385 . S
C322 C324 1.478 . S
C323 H317 0.930 . S
C323 C319 1.400 1_565 S
C323 C322 1.385 . S
C324 C322 1.478 . S
C324 C326 1.381 . S
C324 C330 1.383 . S
C325 C321 1.495 . S
C325 H331 0.959 . S
C325 H332 0.961 . S
C325 H333 0.960 . S
C326 C324 1.381 . S
C326 C327 1.394 . S
C326 H334 0.930 . S
C327 C326 1.394 . S
C327 C328 1.383 . S
C327 H335 0.929 . S
C328 C327 1.383 . S
C328 C329 1.377 . S
C329 H313 0.930 . S
C329 C328 1.377 . S
C329 C330 1.379 . S
C330 H314 0.931 . S
C330 C324 1.383 . S
C330 C329 1.379 . S
H331 C325 0.959 . S
H332 C325 0.961 . S
H333 C325 0.960 . S
H334 C326 0.930 . S
H335 C327 0.929 . S
H336 C344 0.929 . S
H337 C346 0.930 . S
H338 C348 0.930 . S
H339 C351 0.929 . S
H340 C354 0.930 . S
H341 C356 0.960 . S
H342 C356 0.960 . S
H343 C356 0.960 . S
C344 H336 0.929 . S
C344 C345 1.377 . S
C344 C346 1.384 . S
C345 C344 1.377 . S
C345 C351 1.390 . S
C346 H337 0.930 . S
C346 C344 1.384 . S
C346 C347 1.372 . S
C347 C346 1.372 . S
C347 C348 1.400 . S
C347 C352 1.490 . S
C348 H338 0.930 . S
C348 C347 1.400 . S
C348 C351 1.386 . S
H349 C365 0.930 . S
H350 C366 0.931 . S
C351 H339 0.929 . S
C351 C345 1.390 . S
C351 C348 1.386 . S
C352 C347 1.490 . S
C352 C354 1.395 . S
C352 C355 1.403 . S
H353 C359 0.930 . S
C354 H340 0.930 . S
C354 C352 1.395 . S
C354 C357 1.403 . S
C355 C352 1.403 . S
C355 C356 1.524 . S
C355 C359 1.400 . S
C356 H341 0.960 . S
C356 H342 0.960 . S
C356 H343 0.960 . S
C356 C355 1.524 . S
C357 C354 1.403 . S
C357 C358 1.392 . S
C357 C361 1.495 . S
C358 C357 1.392 . S
C358 C359 1.385 . S
C358 C360 1.478 . S
C359 H353 0.930 . S
C359 C355 1.400 . S
C359 C358 1.385 . S
C360 C358 1.478 . S
C360 C362 1.381 . S
C360 C366 1.383 . S
C361 C357 1.495 . S
C361 H367 0.959 . S
C361 H368 0.961 . S
C361 H369 0.960 . S
C362 C360 1.381 . S
C362 C363 1.394 . S
C362 H370 0.930 . S
C363 C362 1.394 . S
C363 C364 1.383 . S
C363 H371 0.929 . S
C364 C363 1.383 . S
C364 C365 1.377 . S
C365 H349 0.930 . S
C365 C364 1.377 . S
C365 C366 1.379 . S
C366 H350 0.931 . S
C366 C360 1.383 . S
C366 C365 1.379 . S
H367 C361 0.959 . S
H368 C361 0.961 . S
H369 C361 0.960 . S
H370 C362 0.930 . S
H371 C363 0.929 . S
H372 C380 0.929 . S
H373 C382 0.930 . S
H374 C384 0.930 . S
H375 C387 0.929 . S
H376 C390 0.930 . S
H377 C392 0.960 . S
H378 C392 0.960 . S
H379 C392 0.960 . S
C380 H372 0.929 . S
C380 C381 1.377 . S
C380 C382 1.384 . S
C381 C380 1.377 . S
C381 C387 1.390 . S
C382 H373 0.930 . S
C382 C380 1.384 . S
C382 C383 1.372 . S
C383 C382 1.372 . S
C383 C384 1.400 . S
C383 C388 1.490 . S
C384 H374 0.930 . S
C384 C383 1.400 . S
C384 C387 1.386 . S
H385 C401 0.930 . S
H386 C402 0.931 . S
C387 H375 0.929 . S
C387 C381 1.390 . S
C387 C384 1.386 . S
C388 C383 1.490 . S
C388 C390 1.395 . S
C388 C391 1.403 . S
H389 C395 0.930 . S
C390 H376 0.930 . S
C390 C388 1.395 . S
C390 C393 1.403 . S
C391 C388 1.403 . S
C391 C392 1.524 . S
C391 C395 1.400 . S
C392 H377 0.960 . S
C392 H378 0.960 . S
C392 H379 0.960 . S
C392 C391 1.524 . S
C393 C390 1.403 . S
C393 C394 1.392 . S
C393 C397 1.495 . S
C394 C393 1.392 . S
C394 C395 1.385 . S
C394 C396 1.478 . S
C395 H389 0.930 . S
C395 C391 1.400 . S
C395 C394 1.385 . S
C396 C394 1.478 . S
C396 C398 1.381 . S
C396 C402 1.383 . S
C397 C393 1.495 . S
C397 H403 0.959 . S
C397 H404 0.961 . S
C397 H405 0.960 . S
C398 C396 1.381 . S
C398 C399 1.394 . S
C398 H406 0.930 . S
C399 C398 1.394 . S
C399 C400 1.383 . S
C399 H407 0.929 . S
C400 C399 1.383 . S
C400 C401 1.377 . S
C401 H385 0.930 . S
C401 C400 1.377 . S
C401 C402 1.379 . S
C402 H386 0.931 . S
C402 C396 1.383 . S
C402 C401 1.379 . S
H403 C397 0.959 . S
H404 C397 0.961 . S
H405 C397 0.960 . S
H406 C398 0.930 . S
H407 C399 0.929 . S
H408 C416 0.929 . S
H409 C418 0.930 . S
H410 C420 0.930 . S
H411 C423 0.929 . S
H412 C426 0.930 . S
H413 C428 0.960 . S
H414 C428 0.960 . S
H415 C428 0.960 . S
C416 H408 0.929 . S
C416 C417 1.377 . S
C416 C418 1.384 . S
C417 C416 1.377 . S
C417 C423 1.390 . S
C418 H409 0.930 . S
C418 C416 1.384 . S
C418 C419 1.372 . S
C419 C418 1.372 . S
C419 C420 1.400 . S
C419 C424 1.490 . S
C420 H410 0.930 . S
C420 C419 1.400 . S
C420 C423 1.386 . S
H421 C437 0.930 . S
H422 C438 0.931 . S
C423 H411 0.929 . S
C423 C417 1.390 . S
C423 C420 1.386 . S
C424 C419 1.490 . S
C424 C426 1.395 . S
C424 C427 1.403 . S
H425 C431 0.930 . S
C426 H412 0.930 . S
C426 C424 1.395 . S
C426 C429 1.403 . S
C427 C424 1.403 . S
C427 C428 1.524 . S
C427 C431 1.400 . S
C428 H413 0.960 . S
C428 H414 0.960 . S
C428 H415 0.960 . S
C428 C427 1.524 . S
C429 C426 1.403 . S
C429 C430 1.392 1_545 S
C429 C433 1.495 1_545 S
C430 C429 1.392 1_565 S
C430 C431 1.385 1_565 S
C430 C432 1.478 . S
C431 H425 0.930 . S
C431 C427 1.400 . S
C431 C430 1.385 1_545 S
C432 C430 1.478 . S
C432 C434 1.381 . S
C432 C438 1.383 . S
C433 C429 1.495 1_565 S
C433 H439 0.959 . S
C433 H440 0.961 . S
C433 H441 0.960 . S
C434 C432 1.381 . S
C434 C435 1.394 . S
C434 H442 0.930 . S
C435 C434 1.394 . S
C435 C436 1.383 . S
C435 H443 0.929 . S
C436 C435 1.383 . S
C436 C437 1.377 . S
C437 H421 0.930 . S
C437 C436 1.377 . S
C437 C438 1.379 . S
C438 H422 0.931 . S
C438 C432 1.383 . S
C438 C437 1.379 . S
H439 C433 0.959 . S
H440 C433 0.961 . S
H441 C433 0.960 . S
H442 C434 0.930 . S
H443 C435 0.929 . S
H444 C452 0.929 . S
H445 C454 0.930 . S
H446 C456 0.930 1_554 S
H447 C459 0.929 . S
H448 C462 0.930 . S
H449 C464 0.960 . S
H450 C464 0.960 . S
H451 C464 0.960 . S
C452 H444 0.929 . S
C452 C453 1.377 . S
C452 C454 1.384 . S
C453 C452 1.377 . S
C453 C459 1.390 . S
C454 H445 0.930 . S
C454 C452 1.384 . S
C454 C455 1.372 1_556 S
C455 C454 1.372 1_554 S
C455 C456 1.400 1_554 S
C455 C460 1.490 . S
C456 H446 0.930 1_556 S
C456 C455 1.400 1_556 S
C456 C459 1.386 . S
H457 C473 0.930 . S
H458 C474 0.931 . S
C459 H447 0.929 . S
C459 C453 1.390 . S
C459 C456 1.386 . S
C460 C455 1.490 . S
C460 C462 1.395 . S
C460 C463 1.403 . S
H461 C467 0.930 . S
C462 H448 0.930 . S
C462 C460 1.395 . S
C462 C465 1.403 . S
C463 C460 1.403 . S
C463 C464 1.524 . S
C463 C467 1.400 . S
C464 H449 0.960 . S
C464 H450 0.960 . S
C464 H451 0.960 . S
C464 C463 1.524 . S
C465 C462 1.403 . S
C465 C466 1.392 . S
C465 C469 1.495 . S
C466 C465 1.392 . S
C466 C467 1.385 . S
C466 C468 1.478 . S
C467 H461 0.930 . S
C467 C463 1.400 . S
C467 C466 1.385 . S
C468 C466 1.478 . S
C468 C470 1.381 . S
C468 C474 1.383 . S
C469 C465 1.495 . S
C469 H475 0.959 . S
C469 H476 0.961 . S
C469 H477 0.960 . S
C470 C468 1.381 . S
C470 C471 1.394 . S
C470 H478 0.930 . S
C471 C470 1.394 . S
C471 C472 1.383 . S
C471 H479 0.929 . S
C472 C471 1.383 . S
C472 C473 1.377 . S
C473 H457 0.930 . S
C473 C472 1.377 . S
C473 C474 1.379 . S
C474 H458 0.931 . S
C474 C468 1.383 . S
C474 C473 1.379 . S
H475 C469 0.959 . S
H476 C469 0.961 . S
H477 C469 0.960 . S
H478 C470 0.930 . S
H479 C471 0.929 . S
H480 C488 0.929 . S
H481 C490 0.930 . S
H482 C492 0.930 . S
H483 C495 0.929 . S
H484 C498 0.930 . S
H485 C500 0.960 . S
H486 C500 0.960 . S
H487 C500 0.960 . S
C488 H480 0.929 . S
C488 C489 1.377 . S
C488 C490 1.384 . S
C489 C488 1.377 . S
C489 C495 1.390 . S
C490 H481 0.930 . S
C490 C488 1.384 . S
C490 C491 1.372 . S
C491 C490 1.372 . S
C491 C492 1.400 . S
C491 C496 1.490 . S
C492 H482 0.930 . S
C492 C491 1.400 . S
C492 C495 1.386 . S
H493 C509 0.930 . S
H494 C510 0.931 . S
C495 H483 0.929 . S
C495 C489 1.390 . S
C495 C492 1.386 . S
C496 C491 1.490 . S
C496 C498 1.395 . S
C496 C499 1.403 . S
H497 C503 0.930 . S
C498 H484 0.930 . S
C498 C496 1.395 . S
C498 C501 1.403 . S
C499 C496 1.403 . S
C499 C500 1.524 . S
C499 C503 1.400 . S
C500 H485 0.960 . S
C500 H486 0.960 . S
C500 H487 0.960 . S
C500 C499 1.524 . S
C501 C498 1.403 . S
C501 C502 1.392 . S
C501 C505 1.495 . S
C502 C501 1.392 . S
C502 C503 1.385 . S
C502 C504 1.478 . S
C503 H497 0.930 . S
C503 C499 1.400 . S
C503 C502 1.385 . S
C504 C502 1.478 . S
C504 C506 1.381 . S
C504 C510 1.383 . S
C505 C501 1.495 . S
C505 H511 0.959 . S
C505 H512 0.961 . S
C505 H513 0.960 . S
C506 C504 1.381 . S
C506 C507 1.394 . S
C506 H514 0.930 . S
C507 C506 1.394 . S
C507 C508 1.383 . S
C507 H515 0.929 . S
C508 C507 1.383 . S
C508 C509 1.377 . S
C509 H493 0.930 . S
C509 C508 1.377 . S
C509 C510 1.379 . S
C510 H494 0.931 . S
C510 C504 1.383 . S
C510 C509 1.379 . S
H511 C505 0.959 . S
H512 C505 0.961 . S
H513 C505 0.960 . S
H514 C506 0.930 . S
H515 C507 0.929 . S
H516 C524 0.929 . S
H517 C526 0.930 . S
H518 C528 0.930 1_556 S
H519 C531 0.929 . S
H520 C534 0.930 . S
H521 C536 0.960 . S
H522 C536 0.960 . S
H523 C536 0.960 . S
C524 H516 0.929 . S
C524 C525 1.377 . S
C524 C526 1.384 . S
C525 C524 1.377 . S
C525 C531 1.390 . S
C526 H517 0.930 . S
C526 C524 1.384 . S
C526 C527 1.382 . S
C527 C526 1.382 . S
C527 C528 1.402 . S
C527 C532 1.478 1_554 S
C528 H518 0.930 1_554 S
C528 C527 1.402 . S
C528 C531 1.386 . S
H529 C545 0.930 . S
H530 C546 0.931 . S
C531 H519 0.929 . S
C531 C525 1.390 . S
C531 C528 1.386 . S
C532 C527 1.478 1_556 S
C532 C534 1.395 . S
C532 C535 1.403 . S
H533 C539 0.930 . S
C534 H520 0.930 . S
C534 C532 1.395 . S
C534 C537 1.403 . S
C535 C532 1.403 . S
C535 C536 1.524 . S
C535 C539 1.400 . S
C536 H521 0.960 . S
C536 H522 0.960 . S
C536 H523 0.960 . S
C536 C535 1.524 . S
C537 C534 1.403 . S
C537 C538 1.392 . S
C537 C541 1.495 . S
C538 C537 1.392 . S
C538 C539 1.385 . S
C538 C540 1.478 . S
C539 H533 0.930 . S
C539 C535 1.400 . S
C539 C538 1.385 . S
C540 C538 1.478 . S
C540 C542 1.381 . S
C540 C546 1.383 . S
C541 C537 1.495 . S
C541 H547 0.959 . S
C541 H548 0.961 . S
C541 H549 0.960 . S
C542 C540 1.381 . S
C542 C543 1.394 . S
C542 H550 0.930 . S
C543 C542 1.394 . S
C543 C544 1.383 . S
C543 H551 0.929 . S
C544 C543 1.383 . S
C544 C545 1.377 . S
C545 H529 0.930 . S
C545 C544 1.377 . S
C545 C546 1.379 . S
C546 H530 0.931 . S
C546 C540 1.383 . S
C546 C545 1.379 . S
H547 C541 0.959 . S
H548 C541 0.961 . S
H549 C541 0.960 . S
H550 C542 0.930 . S
H551 C543 0.929 . S
H552 C560 0.929 . S
H553 C562 0.930 . S
H554 C564 0.930 . S
H555 C567 0.929 . S
H556 C570 0.930 . S
H557 C572 0.960 . S
H558 C572 0.960 . S
H559 C572 0.960 . S
C560 H552 0.929 . S
C560 C561 1.377 . S
C560 C562 1.384 . S
C561 C560 1.377 . S
C561 C567 1.390 . S
C562 H553 0.930 . S
C562 C560 1.384 . S
C562 C563 1.372 . S
C563 C562 1.372 . S
C563 C564 1.400 . S
C563 C568 1.490 . S
C564 H554 0.930 . S
C564 C563 1.400 . S
C564 C567 1.386 . S
H565 C581 0.930 . S
H566 C582 0.931 . S
C567 H555 0.929 . S
C567 C561 1.390 . S
C567 C564 1.386 . S
C568 C563 1.490 . S
C568 C570 1.395 . S
C568 C571 1.403 . S
H569 C575 0.930 . S
C570 H556 0.930 . S
C570 C568 1.395 . S
C570 C573 1.403 . S
C571 C568 1.403 . S
C571 C572 1.524 . S
C571 C575 1.400 . S
C572 H557 0.960 . S
C572 H558 0.960 . S
C572 H559 0.960 . S
C572 C571 1.524 . S
C573 C570 1.403 . S
C573 C574 1.392 . S
C573 C577 1.495 . S
C574 C573 1.392 . S
C574 C575 1.385 . S
C574 C576 1.478 . S
C575 H569 0.930 . S
C575 C571 1.400 . S
C575 C574 1.385 . S
C576 C574 1.478 . S
C576 C578 1.381 . S
C576 C582 1.383 . S
C577 C573 1.495 . S
C577 H583 0.959 . S
C577 H584 0.961 . S
C577 H585 0.960 . S
C578 C576 1.381 . S
C578 C579 1.394 . S
C578 H586 0.930 . S
C579 C578 1.394 . S
C579 C580 1.383 . S
C579 H587 0.929 . S
C580 C579 1.383 . S
C580 C581 1.377 . S
C581 H565 0.930 . S
C581 C580 1.377 . S
C581 C582 1.379 . S
C582 H566 0.931 . S
C582 C576 1.383 . S
C582 C581 1.379 . S
H583 C577 0.959 . S
H584 C577 0.961 . S
H585 C577 0.960 . S
H586 C578 0.930 . S
H587 C579 0.929 . S
H588 C596 0.929 . S
H589 C598 0.930 1_556 S
H590 C600 0.930 . S
H591 C603 0.929 . S
H592 C606 0.930 . S
H593 C608 0.960 . S
H594 C608 0.960 . S
H595 C608 0.960 . S
C596 H588 0.929 . S
C596 C597 1.377 . S
C596 C598 1.384 . S
C597 C596 1.377 . S
C597 C603 1.390 . S
C598 H589 0.930 1_554 S
C598 C596 1.384 . S
C598 C599 1.372 1_554 S
C599 C598 1.372 1_556 S
C599 C600 1.400 1_556 S
C599 C604 1.490 . S
C600 H590 0.930 . S
C600 C599 1.400 1_554 S
C600 C603 1.386 . S
H601 C617 0.930 . S
H602 C618 0.931 . S
C603 H591 0.929 . S
C603 C597 1.390 . S
C603 C600 1.386 . S
C604 C599 1.490 . S
C604 C606 1.395 . S
C604 C607 1.403 . S
H605 C611 0.930 . S
C606 H592 0.930 . S
C606 C604 1.395 . S
C606 C609 1.403 . S
C607 C604 1.403 . S
C607 C608 1.524 . S
C607 C611 1.400 . S
C608 H593 0.960 . S
C608 H594 0.960 . S
C608 H595 0.960 . S
C608 C607 1.524 . S
C609 C606 1.403 . S
C609 C610 1.392 . S
C609 C613 1.495 . S
C610 C609 1.392 . S
C610 C611 1.385 . S
C610 C612 1.478 . S
C611 H605 0.930 . S
C611 C607 1.400 . S
C611 C610 1.385 . S
C612 C610 1.478 . S
C612 C614 1.381 . S
C612 C618 1.383 . S
C613 C609 1.495 . S
C613 H619 0.959 . S
C613 H620 0.961 . S
C613 H621 0.960 . S
C614 C612 1.381 . S
C614 C615 1.394 . S
C614 H622 0.930 . S
C615 C614 1.394 . S
C615 C616 1.383 . S
C615 H623 0.929 . S
C616 C615 1.383 . S
C616 C617 1.377 . S
C617 H601 0.930 . S
C617 C616 1.377 . S
C617 C618 1.379 . S
C618 H602 0.931 . S
C618 C612 1.383 . S
C618 C617 1.379 . S
H619 C613 0.959 . S
H620 C613 0.961 . S
H621 C613 0.960 . S
H622 C614 0.930 . S
H623 C615 0.929 . S
H624 C632 0.929 . S
H625 C634 0.930 . S
H626 C636 0.930 . S
H627 C639 0.929 . S
H628 C642 0.930 . S
H629 C644 0.960 . S
H630 C644 0.960 . S
H631 C644 0.960 . S
C632 H624 0.929 . S
C632 C633 1.377 . S
C632 C634 1.384 . S
C633 C632 1.377 . S
C633 C639 1.390 . S
C634 H625 0.930 . S
C634 C632 1.384 . S
C634 C635 1.372 . S
C635 C634 1.372 . S
C635 C636 1.400 . S
C635 C640 1.490 . S
C636 H626 0.930 . S
C636 C635 1.400 . S
C636 C639 1.386 . S
H637 C653 0.930 . S
H638 C654 0.931 . S
C639 H627 0.929 . S
C639 C633 1.390 . S
C639 C636 1.386 . S
C640 C635 1.490 . S
C640 C642 1.395 . S
C640 C643 1.403 . S
H641 C647 0.930 . S
C642 H628 0.930 . S
C642 C640 1.395 . S
C642 C645 1.403 . S
C643 C640 1.403 . S
C643 C644 1.524 . S
C643 C647 1.400 . S
C644 H629 0.960 . S
C644 H630 0.960 . S
C644 H631 0.960 . S
C644 C643 1.524 . S
C645 C642 1.403 . S
C645 C646 1.392 . S
C645 C649 1.495 . S
C646 C645 1.392 . S
C646 C647 1.385 . S
C646 C648 1.478 . S
C647 H641 0.930 . S
C647 C643 1.400 . S
C647 C646 1.385 . S
C648 C646 1.478 . S
C648 C650 1.381 . S
C648 C654 1.383 . S
C649 C645 1.495 . S
C649 H655 0.959 . S
C649 H656 0.961 . S
C649 H657 0.960 . S
C650 C648 1.381 . S
C650 C651 1.394 . S
C650 H658 0.930 . S
C651 C650 1.394 . S
C651 C652 1.383 . S
C651 H659 0.929 . S
C652 C651 1.383 . S
C652 C653 1.377 . S
C653 H637 0.930 . S
C653 C652 1.377 . S
C653 C654 1.379 . S
C654 H638 0.931 . S
C654 C648 1.383 . S
C654 C653 1.379 . S
H655 C649 0.959 . S
H656 C649 0.961 . S
H657 C649 0.960 . S
H658 C650 0.930 . S
H659 C651 0.929 . S
H660 C668 0.929 . S
H661 C670 0.930 . S
H662 C672 0.930 1_554 S
H663 C675 0.929 . S
H664 C678 0.930 . S
H665 C680 0.960 . S
H666 C680 0.960 . S
H667 C680 0.960 . S
C668 H660 0.929 . S
C668 C669 1.377 . S
C668 C670 1.384 . S
C669 C668 1.377 . S
C669 C675 1.390 . S
C670 H661 0.930 . S
C670 C668 1.384 . S
C670 C671 1.385 . S
C671 C670 1.385 . S
C671 C672 1.402 . S
C671 C676 1.476 1_556 S
C672 H662 0.930 1_556 S
C672 C671 1.402 . S
C672 C675 1.386 . S
H673 C689 0.930 . S
H674 C690 0.931 . S
C675 H663 0.929 . S
C675 C669 1.390 . S
C675 C672 1.386 . S
C676 C671 1.476 1_554 S
C676 C678 1.395 . S
C676 C679 1.403 . S
H677 C683 0.930 . S
C678 H664 0.930 . S
C678 C676 1.395 . S
C678 C681 1.403 . S
C679 C676 1.403 . S
C679 C680 1.524 . S
C679 C683 1.400 . S
C680 H665 0.960 . S
C680 H666 0.960 . S
C680 H667 0.960 . S
C680 C679 1.524 . S
C681 C678 1.403 . S
C681 C682 1.392 . S
C681 C685 1.495 . S
C682 C681 1.392 . S
C682 C683 1.385 . S
C682 C684 1.478 . S
C683 H677 0.930 . S
C683 C679 1.400 . S
C683 C682 1.385 . S
C684 C682 1.478 . S
C684 C686 1.381 . S
C684 C690 1.383 . S
C685 C681 1.495 . S
C685 H691 0.959 . S
C685 H692 0.961 . S
C685 H693 0.960 . S
C686 C684 1.381 . S
C686 C687 1.394 . S
C686 H694 0.930 . S
C687 C686 1.394 . S
C687 C688 1.383 . S
C687 H695 0.929 . S
C688 C687 1.383 . S
C688 C689 1.377 . S
C689 H673 0.930 . S
C689 C688 1.377 . S
C689 C690 1.379 . S
C690 H674 0.931 . S
C690 C684 1.383 . S
C690 C689 1.379 . S
H691 C685 0.959 . S
H692 C685 0.961 . S
H693 C685 0.960 . S
H694 C686 0.930 . S
H695 C687 0.929 . S
H696 C704 0.929 . S
H697 C706 0.930 . S
H698 C708 0.930 . S
H699 C711 0.929 . S
H700 C714 0.930 . S
H701 C716 0.960 . S
H702 C716 0.960 . S
H703 C716 0.960 . S
C704 H696 0.929 . S
C704 C705 1.377 . S
C704 C706 1.384 . S
C705 C704 1.377 . S
C705 C711 1.390 . S
C706 H697 0.930 . S
C706 C704 1.384 . S
C706 C707 1.372 . S
C707 C706 1.372 . S
C707 C708 1.400 . S
C707 C712 1.490 . S
C708 H698 0.930 . S
C708 C707 1.400 . S
C708 C711 1.386 . S
H709 C725 0.930 . S
H710 C726 0.931 . S
C711 H699 0.929 . S
C711 C705 1.390 . S
C711 C708 1.386 . S
C712 C707 1.490 . S
C712 C714 1.395 . S
C712 C715 1.403 . S
H713 C719 0.930 . S
C714 H700 0.930 . S
C714 C712 1.395 . S
C714 C717 1.403 . S
C715 C712 1.403 . S
C715 C716 1.524 . S
C715 C719 1.400 . S
C716 H701 0.960 . S
C716 H702 0.960 . S
C716 H703 0.960 . S
C716 C715 1.524 . S
C717 C714 1.403 . S
C717 C718 1.392 . S
C717 C721 1.495 . S
C718 C717 1.392 . S
C718 C719 1.385 . S
C718 C720 1.478 . S
C719 H713 0.930 . S
C719 C715 1.400 . S
C719 C718 1.385 . S
C720 C718 1.478 . S
C720 C722 1.381 . S
C720 C726 1.383 . S
C721 C717 1.495 . S
C721 H727 0.959 . S
C721 H728 0.961 . S
C721 H729 0.960 . S
C722 C720 1.381 . S
C722 C723 1.394 . S
C722 H730 0.930 . S
C723 C722 1.394 . S
C723 C724 1.383 . S
C723 H731 0.929 . S
C724 C723 1.383 . S
C724 C725 1.377 . S
C725 H709 0.930 . S
C725 C724 1.377 . S
C725 C726 1.379 . S
C726 H710 0.931 . S
C726 C720 1.383 . S
C726 C725 1.379 . S
H727 C721 0.959 . S
H728 C721 0.961 . S
H729 C721 0.960 . S
H730 C722 0.930 . S
H731 C723 0.929 . S
H732 C740 0.929 . S
H733 C742 0.930 . S
H734 C744 0.930 . S
H735 C747 0.929 . S
H736 C750 0.930 . S
H737 C752 0.960 . S
H738 C752 0.960 . S
H739 C752 0.960 . S
C740 H732 0.929 . S
C740 C741 1.377 . S
C740 C742 1.384 . S
C741 C740 1.377 . S
C741 C747 1.390 . S
C742 H733 0.930 . S
C742 C740 1.384 . S
C742 C743 1.372 . S
C743 C742 1.372 . S
C743 C744 1.400 . S
C743 C748 1.490 . S
C744 H734 0.930 . S
C744 C743 1.400 . S
C744 C747 1.386 . S
H745 C761 0.930 . S
H746 C762 0.931 . S
C747 H735 0.929 . S
C747 C741 1.390 . S
C747 C744 1.386 . S
C748 C743 1.490 . S
C748 C750 1.395 . S
C748 C751 1.403 . S
H749 C755 0.930 . S
C750 H736 0.930 . S
C750 C748 1.395 . S
C750 C753 1.403 . S
C751 C748 1.403 . S
C751 C752 1.524 . S
C751 C755 1.400 . S
C752 H737 0.960 . S
C752 H738 0.960 . S
C752 H739 0.960 . S
C752 C751 1.524 . S
C753 C750 1.403 . S
C753 C754 1.392 . S
C753 C757 1.495 . S
C754 C753 1.392 . S
C754 C755 1.385 . S
C754 C756 1.478 . S
C755 H749 0.930 . S
C755 C751 1.400 . S
C755 C754 1.385 . S
C756 C754 1.478 . S
C756 C758 1.381 . S
C756 C762 1.383 . S
C757 C753 1.495 . S
C757 H763 0.959 . S
C757 H764 0.961 . S
C757 H765 0.960 . S
C758 C756 1.381 . S
C758 C759 1.394 . S
C758 H766 0.930 . S
C759 C758 1.394 . S
C759 C760 1.383 . S
C759 H767 0.929 . S
C760 C759 1.383 . S
C760 C761 1.377 . S
C761 H745 0.930 . S
C761 C760 1.377 . S
C761 C762 1.379 . S
C762 H746 0.931 . S
C762 C756 1.383 . S
C762 C761 1.379 . S
H763 C757 0.959 . S
H764 C757 0.961 . S
H765 C757 0.960 . S
H766 C758 0.930 . S
H767 C759 0.929 . S
H768 C776 0.929 . S
H769 C778 0.930 . S
H770 C780 0.930 . S
H771 C783 0.929 . S
H772 C786 0.930 . S
H773 C788 0.960 . S
H774 C788 0.960 . S
H775 C788 0.960 . S
C776 H768 0.929 . S
C776 C777 1.377 . S
C776 C778 1.384 . S
C777 C776 1.377 . S
C777 C783 1.390 . S
C778 H769 0.930 . S
C778 C776 1.384 . S
C778 C779 1.372 . S
C779 C778 1.372 . S
C779 C780 1.400 . S
C779 C784 1.490 . S
C780 H770 0.930 . S
C780 C779 1.400 . S
C780 C783 1.386 . S
H781 C797 0.930 . S
H782 C798 0.931 . S
C783 H771 0.929 . S
C783 C777 1.390 . S
C783 C780 1.386 . S
C784 C779 1.490 . S
C784 C786 1.395 . S
C784 C787 1.403 . S
H785 C791 0.930 . S
C786 H772 0.930 . S
C786 C784 1.395 . S
C786 C789 1.403 . S
C787 C784 1.403 . S
C787 C788 1.524 . S
C787 C791 1.400 . S
C788 H773 0.960 . S
C788 H774 0.960 . S
C788 H775 0.960 . S
C788 C787 1.524 . S
C789 C786 1.403 . S
C789 C790 1.392 . S
C789 C793 1.495 . S
C790 C789 1.392 . S
C790 C791 1.385 . S
C790 C792 1.478 . S
C791 H785 0.930 . S
C791 C787 1.400 . S
C791 C790 1.385 . S
C792 C790 1.478 . S
C792 C794 1.381 . S
C792 C798 1.383 . S
C793 C789 1.495 . S
C793 H799 0.959 . S
C793 H800 0.961 . S
C793 H801 0.960 . S
C794 C792 1.381 . S
C794 C795 1.394 . S
C794 H802 0.930 . S
C795 C794 1.394 . S
C795 C796 1.383 . S
C795 H803 0.929 . S
C796 C795 1.383 . S
C796 C797 1.377 . S
C797 H781 0.930 . S
C797 C796 1.377 . S
C797 C798 1.379 . S
C798 H782 0.931 . S
C798 C792 1.383 . S
C798 C797 1.379 . S
H799 C793 0.959 . S
H800 C793 0.961 . S
H801 C793 0.960 . S
H802 C794 0.930 . S
H803 C795 0.929 . S
H804 C812 0.929 . S
H805 C814 0.930 . S
H806 C816 0.930 . S
H807 C819 0.929 . S
H808 C822 0.930 . S
H809 C824 0.960 . S
H810 C824 0.960 . S
H811 C824 0.960 . S
C812 H804 0.929 . S
C812 C813 1.377 . S
C812 C814 1.384 . S
C813 C812 1.377 . S
C813 C819 1.390 . S
C814 H805 0.930 . S
C814 C812 1.384 . S
C814 C815 1.372 . S
C815 C814 1.372 . S
C815 C816 1.400 . S
C815 C820 1.490 . S
C816 H806 0.930 . S
C816 C815 1.400 . S
C816 C819 1.386 . S
H817 C833 0.930 . S
H818 C834 0.931 . S
C819 H807 0.929 . S
C819 C813 1.390 . S
C819 C816 1.386 . S
C820 C815 1.490 . S
C820 C822 1.395 . S
C820 C823 1.403 . S
H821 C827 0.930 . S
C822 H808 0.930 . S
C822 C820 1.395 . S
C822 C825 1.403 . S
C823 C820 1.403 . S
C823 C824 1.524 . S
C823 C827 1.400 . S
C824 H809 0.960 . S
C824 H810 0.960 . S
C824 H811 0.960 . S
C824 C823 1.524 . S
C825 C822 1.403 . S
C825 C826 1.392 . S
C825 C829 1.495 . S
C826 C825 1.392 . S
C826 C827 1.385 . S
C826 C828 1.478 . S
C827 H821 0.930 . S
C827 C823 1.400 . S
C827 C826 1.385 . S
C828 C826 1.478 . S
C828 C830 1.381 . S
C828 C834 1.383 . S
C829 C825 1.495 . S
C829 H835 0.959 . S
C829 H836 0.961 . S
C829 H837 0.960 . S
C830 C828 1.381 . S
C830 C831 1.394 . S
C830 H838 0.930 . S
C831 C830 1.394 . S
C831 C832 1.383 . S
C831 H839 0.929 . S
C832 C831 1.383 . S
C832 C833 1.377 . S
C833 H817 0.930 . S
C833 C832 1.377 . S
C833 C834 1.379 . S
C834 H818 0.931 . S
C834 C828 1.383 . S
C834 C833 1.379 . S
H835 C829 0.959 . S
H836 C829 0.961 . S
H837 C829 0.960 . S
H838 C830 0.930 . S
H839 C831 0.929 . S
H840 C848 0.929 . S
H841 C850 0.930 . S
H842 C852 0.930 . S
H843 C855 0.929 . S
H844 C858 0.930 . S
H845 C860 0.960 . S
H846 C860 0.960 . S
H847 C860 0.960 . S
C848 H840 0.929 . S
C848 C849 1.377 . S
C848 C850 1.384 . S
C849 C848 1.377 . S
C849 C855 1.390 . S
C850 H841 0.930 . S
C850 C848 1.384 . S
C850 C851 1.372 . S
C851 C850 1.372 . S
C851 C852 1.400 . S
C851 C856 1.490 . S
C852 H842 0.930 . S
C852 C851 1.400 . S
C852 C855 1.386 . S
H853 C869 0.930 . S
H854 C870 0.931 . S
C855 H843 0.929 . S
C855 C849 1.390 . S
C855 C852 1.386 . S
C856 C851 1.490 . S
C856 C858 1.395 . S
C856 C859 1.403 . S
H857 C863 0.930 . S
C858 H844 0.930 . S
C858 C856 1.395 . S
C858 C861 1.403 . S
C859 C856 1.403 . S
C859 C860 1.524 . S
C859 C863 1.400 . S
C860 H845 0.960 . S
C860 H846 0.960 . S
C860 H847 0.960 . S
C860 C859 1.524 . S
C861 C858 1.403 . S
C861 C862 1.392 . S
C861 C865 1.495 . S
C862 C861 1.392 . S
C862 C863 1.385 . S
C862 C864 1.478 . S
C863 H857 0.930 . S
C863 C859 1.400 . S
C863 C862 1.385 . S
C864 C862 1.478 . S
C864 C866 1.381 . S
C864 C870 1.383 . S
C865 C861 1.495 . S
C865 H871 0.959 . S
C865 H872 0.961 . S
C865 H873 0.960 . S
C866 C864 1.381 . S
C866 C867 1.394 . S
C866 H874 0.930 . S
C867 C866 1.394 . S
C867 C868 1.383 . S
C867 H875 0.929 . S
C868 C867 1.383 . S
C868 C869 1.377 . S
C869 H853 0.930 . S
C869 C868 1.377 . S
C869 C870 1.379 . S
C870 H854 0.931 . S
C870 C864 1.383 . S
C870 C869 1.379 . S
H871 C865 0.959 . S
H872 C865 0.961 . S
H873 C865 0.960 . S
H874 C866 0.930 . S
H875 C867 0.929 . S
H876 C884 0.929 . S
H877 C886 0.930 . S
H878 C888 0.930 . S
H879 C891 0.929 . S
H880 C894 0.930 . S
H881 C896 0.960 . S
H882 C896 0.960 . S
H883 C896 0.960 . S
C884 H876 0.929 . S
C884 C885 1.377 . S
C884 C886 1.384 . S
C885 C884 1.377 . S
C885 C891 1.390 . S
C886 H877 0.930 . S
C886 C884 1.384 . S
C886 C887 1.372 . S
C887 C886 1.372 . S
C887 C888 1.400 . S
C887 C892 1.490 . S
C888 H878 0.930 . S
C888 C887 1.400 . S
C888 C891 1.386 . S
H889 C905 0.930 . S
H890 C906 0.931 . S
C891 H879 0.929 . S
C891 C885 1.390 . S
C891 C888 1.386 . S
C892 C887 1.490 . S
C892 C894 1.395 . S
C892 C895 1.403 . S
H893 C899 0.930 . S
C894 H880 0.930 . S
C894 C892 1.395 . S
C894 C897 1.403 . S
C895 C892 1.403 . S
C895 C896 1.524 . S
C895 C899 1.400 . S
C896 H881 0.960 . S
C896 H882 0.960 . S
C896 H883 0.960 . S
C896 C895 1.524 . S
C897 C894 1.403 . S
C897 C898 1.392 . S
C897 C901 1.495 . S
C898 C897 1.392 . S
C898 C899 1.385 . S
C898 C900 1.478 . S
C899 H893 0.930 . S
C899 C895 1.400 . S
C899 C898 1.385 . S
C900 C898 1.478 . S
C900 C902 1.381 . S
C900 C906 1.383 . S
C901 C897 1.495 . S
C901 H907 0.959 . S
C901 H908 0.961 . S
C901 H909 0.960 . S
C902 C900 1.381 . S
C902 C903 1.394 . S
C902 H910 0.930 . S
C903 C902 1.394 . S
C903 C904 1.383 . S
C903 H911 0.929 . S
C904 C903 1.383 . S
C904 C905 1.377 . S
C905 H889 0.930 . S
C905 C904 1.377 . S
C905 C906 1.379 . S
C906 H890 0.931 . S
C906 C900 1.383 . S
C906 C905 1.379 . S
H907 C901 0.959 . S
H908 C901 0.961 . S
H909 C901 0.960 . S
H910 C902 0.930 . S
H911 C903 0.929 . S
H912 C920 0.929 . S
H913 C922 0.930 . S
H914 C924 0.930 . S
H915 C927 0.929 . S
H916 C930 0.930 . S
H917 C932 0.960 . S
H918 C932 0.960 . S
H919 C932 0.960 . S
C920 H912 0.929 . S
C920 C921 1.377 . S
C920 C922 1.384 . S
C921 C920 1.377 . S
C921 C927 1.390 . S
C922 H913 0.930 . S
C922 C920 1.384 . S
C922 C923 1.372 . S
C923 C922 1.372 . S
C923 C924 1.400 . S
C923 C928 1.490 . S
C924 H914 0.930 . S
C924 C923 1.400 . S
C924 C927 1.386 . S
H925 C941 0.930 . S
H926 C942 0.931 . S
C927 H915 0.929 . S
C927 C921 1.390 . S
C927 C924 1.386 . S
C928 C923 1.490 . S
C928 C930 1.395 . S
C928 C931 1.403 . S
H929 C935 0.930 . S
C930 H916 0.930 . S
C930 C928 1.395 . S
C930 C933 1.403 . S
C931 C928 1.403 . S
C931 C932 1.524 . S
C931 C935 1.400 . S
C932 H917 0.960 . S
C932 H918 0.960 . S
C932 H919 0.960 . S
C932 C931 1.524 . S
C933 C930 1.403 . S
C933 C934 1.392 . S
C933 C937 1.495 . S
C934 C933 1.392 . S
C934 C935 1.385 . S
C934 C936 1.478 . S
C935 H929 0.930 . S
C935 C931 1.400 . S
C935 C934 1.385 . S
C936 C934 1.478 . S
C936 C938 1.381 . S
C936 C942 1.383 . S
C937 C933 1.495 . S
C937 H943 0.959 . S
C937 H944 0.961 . S
C937 H945 0.960 . S
C938 C936 1.381 . S
C938 C939 1.394 . S
C938 H946 0.930 . S
C939 C938 1.394 . S
C939 C940 1.383 . S
C939 H947 0.929 . S
C940 C939 1.383 . S
C940 C941 1.377 . S
C941 H925 0.930 . S
C941 C940 1.377 . S
C941 C942 1.379 . S
C942 H926 0.931 . S
C942 C936 1.383 . S
C942 C941 1.379 . S
H943 C937 0.959 . S
H944 C937 0.961 . S
H945 C937 0.960 . S
H946 C938 0.930 . S
H947 C939 0.929 . S
H948 C956 0.929 . S
H949 C958 0.930 . S
H950 C960 0.930 . S
H951 C963 0.929 . S
H952 C966 0.930 . S
H953 C968 0.960 . S
H954 C968 0.960 . S
H955 C968 0.960 . S
C956 H948 0.929 . S
C956 C957 1.377 . S
C956 C958 1.384 . S
C957 C956 1.377 . S
C957 C963 1.390 . S
C958 H949 0.930 . S
C958 C956 1.384 . S
C958 C959 1.372 . S
C959 C958 1.372 . S
C959 C960 1.400 . S
C959 C964 1.490 . S
C960 H950 0.930 . S
C960 C959 1.400 . S
C960 C963 1.386 . S
H961 C977 0.930 . S
H962 C978 0.931 . S
C963 H951 0.929 . S
C963 C957 1.390 . S
C963 C960 1.386 . S
C964 C959 1.490 . S
C964 C966 1.395 . S
C964 C967 1.403 . S
H965 C971 0.930 . S
C966 H952 0.930 . S
C966 C964 1.395 . S
C966 C969 1.403 . S
C967 C964 1.403 . S
C967 C968 1.524 . S
C967 C971 1.400 . S
C968 H953 0.960 . S
C968 H954 0.960 . S
C968 H955 0.960 . S
C968 C967 1.524 . S
C969 C966 1.403 . S
C969 C970 1.392 . S
C969 C973 1.495 . S
C970 C969 1.392 . S
C970 C971 1.385 . S
C970 C972 1.478 . S
C971 H965 0.930 . S
C971 C967 1.400 . S
C971 C970 1.385 . S
C972 C970 1.478 . S
C972 C974 1.381 . S
C972 C978 1.383 . S
C973 C969 1.495 . S
C973 H979 0.959 . S
C973 H980 0.961 . S
C973 H981 0.960 . S
C974 C972 1.381 . S
C974 C975 1.394 . S
C974 H982 0.930 . S
C975 C974 1.394 . S
C975 C976 1.383 . S
C975 H983 0.929 . S
C976 C975 1.383 . S
C976 C977 1.377 . S
C977 H961 0.930 . S
C977 C976 1.377 . S
C977 C978 1.379 . S
C978 H962 0.931 . S
C978 C972 1.383 . S
C978 C977 1.379 . S
H979 C973 0.959 . S
H980 C973 0.961 . S
H981 C973 0.960 . S
H982 C974 0.930 . S
H983 C975 0.929 . S
H984 C992 0.929 . S
H985 C994 0.930 . S
H986 C996 0.930 . S
H987 C999 0.929 . S
H988 C1002 0.930 . S
H989 C1004 0.960 . S
H990 C1004 0.960 . S
H991 C1004 0.960 . S
C992 H984 0.929 . S
C992 C993 1.377 . S
C992 C994 1.384 . S
C993 C992 1.377 . S
C993 C999 1.390 . S
C994 H985 0.930 . S
C994 C992 1.384 . S
C994 C995 1.372 . S
C995 C994 1.372 . S
C995 C996 1.400 . S
C995 C1000 1.490 . S
C996 H986 0.930 . S
C996 C995 1.400 . S
C996 C999 1.386 . S
H997 C1013 0.930 . S
H998 C1014 0.931 . S
C999 H987 0.929 . S
C999 C993 1.390 . S
C999 C996 1.386 . S
C1000 C995 1.490 . S
C1000 C1002 1.395 . S
C1000 C1003 1.403 . S
H1001 C1007 0.930 . S
C1002 H988 0.930 . S
C1002 C1000 1.395 . S
C1002 C1005 1.403 . S
C1003 C1000 1.403 . S
C1003 C1004 1.524 . S
C1003 C1007 1.400 . S
C1004 H989 0.960 . S
C1004 H990 0.960 . S
C1004 H991 0.960 . S
C1004 C1003 1.524 . S
C1005 C1002 1.403 . S
C1005 C1006 1.392 . S
C1005 C1009 1.495 . S
C1006 C1005 1.392 . S
C1006 C1007 1.385 . S
C1006 C1008 1.478 . S
C1007 H1001 0.930 . S
C1007 C1003 1.400 . S
C1007 C1006 1.385 . S
C1008 C1006 1.478 . S
C1008 C1010 1.381 . S
C1008 C1014 1.383 . S
C1009 C1005 1.495 . S
C1009 H1015 0.959 . S
C1009 H1016 0.961 . S
C1009 H1017 0.960 . S
C1010 C1008 1.381 . S
C1010 C1011 1.394 . S
C1010 H1018 0.930 . S
C1011 C1010 1.394 . S
C1011 C1012 1.383 . S
C1011 H1019 0.929 . S
C1012 C1011 1.383 . S
C1012 C1013 1.377 . S
C1013 H997 0.930 . S
C1013 C1012 1.377 . S
C1013 C1014 1.379 . S
C1014 H998 0.931 . S
C1014 C1008 1.383 . S
C1014 C1013 1.379 . S
H1015 C1009 0.959 . S
H1016 C1009 0.961 . S
H1017 C1009 0.960 . S
H1018 C1010 0.930 . S
H1019 C1011 0.929 . S
C165 C58 1.332 . S
C184 C88 1.275 . S
C220 C96 1.276 . S
C201 C68 1.338 . S
C256 C100 1.225 . S
C237 C40 1.332 . S
C273 C50 1.338 . S
C292 C76 1.273 . S
C328 C117 1.283 . S
C309 C23 1.335 . S
C364 C151 1.293 . S
C345 C32 1.337 . S
C381 C5 1.333 . S
C400 C139 1.211 . S
C417 C14 1.334 . S
C436 C121 1.251 . S
C472 C75 1.230 . S
C453 C13 1.408 . S
C508 C109 1.218 . S
C489 C4 1.408 . S
C544 C113 1.197 . S
C525 C31 1.415 . S
C580 C91 1.250 . S
C561 C22 1.414 . S
C616 C130 1.242 . S
C597 C49 1.411 . S
C633 C41 1.408 . S
C652 C138 1.263 . S
C688 C154 1.235 . S
C669 C67 1.414 . S
C705 C59 1.415 . S
C724 C134 1.200 . S
C760 C79 1.271 . S
C741 C7 1.495 . S
C796 C97 1.288 . S
C777 C16 1.491 . S
C813 C25 1.484 . S
C832 C112 1.321 . S
C868 C92 1.298 . S
C849 C34 1.482 . S
C904 C118 1.261 . S
C885 C43 1.493 . S
C921 C52 1.497 . S
C940 C142 1.345 . S
C957 C61 1.484 . S
C976 C155 1.311 . S
C993 C70 1.485 . S
C1012 C133 1.273 . S
