# Generated by pormake.
# Topology pth, (4,4)-cn, num edge types: 1
# Building blocks:
#     Node 0, Type 0, BuildingBlock: KUFVIS_clean_sbu_0, # of connection points: 4
#     Node 1, Type 0, BuildingBlock: KUFVIS_clean_sbu_0, # of connection points: 4
#     Node 2, Type 0, BuildingBlock: KUFVIS_clean_sbu_0, # of connection points: 4
#     Node 3, Type 1, BuildingBlock: NAHDIM_clean_linker_0, # of connection points: 4
#     Node 4, Type 1, BuildingBlock: NAHDIM_clean_linker_0, # of connection points: 4
#     Node 5, Type 1, BuildingBlock: NAHDIM_clean_linker_0, # of connection points: 4
#     Edge 6, Type (0, 1), BuildingBlock: ZUJKAS_clean_linker_0, # of connection points: 2
#     Edge 7, Type (0, 1), BuildingBlock: ZUJKAS_clean_linker_0, # of connection points: 2
#     Edge 8, Type (0, 1), BuildingBlock: ZUJKAS_clean_linker_0, # of connection points: 2
#     Edge 9, Type (0, 1), BuildingBlock: ZUJKAS_clean_linker_0, # of connection points: 2
#     Edge 10, Type (0, 1), BuildingBlock: ZUJKAS_clean_linker_0, # of connection points: 2
#     Edge 11, Type (0, 1), BuildingBlock: ZUJKAS_clean_linker_0, # of connection points: 2
#     Edge 12, Type (0, 1), BuildingBlock: ZUJKAS_clean_linker_0, # of connection points: 2
#     Edge 13, Type (0, 1), BuildingBlock: ZUJKAS_clean_linker_0, # of connection points: 2
#     Edge 14, Type (0, 1), BuildingBlock: ZUJKAS_clean_linker_0, # of connection points: 2
#     Edge 15, Type (0, 1), BuildingBlock: ZUJKAS_clean_linker_0, # of connection points: 2
#     Edge 16, Type (0, 1), BuildingBlock: ZUJKAS_clean_linker_0, # of connection points: 2
#     Edge 17, Type (0, 1), BuildingBlock: ZUJKAS_clean_linker_0, # of connection points: 2
# Relax obj value: 0.013
# Max RMSD: 0.083
# Mean RMSD: 0.064
data_MOF--net-pth--node1-KUFVIS_clean_sbu_0--node2-NAHDIM_clean_linker_0--edge1-ZUJKAS_clean_linker_0
_symmetry_space_group_name_H-M    P1
_symmetry_Int_Tables_number       1
_symmetry_cell_setting            triclinic
loop_
_symmetry_equiv_pos_as_xyz
'x, y, z'
_cell_length_a     38.327843
_cell_length_b     38.38551
_cell_length_c     99.210777
_cell_angle_alpha  90.17987
_cell_angle_beta   92.201961
_cell_angle_gamma 120.24986
loop_
_atom_site_label
_atom_site_type_symbol
_atom_site_fract_x
_atom_site_fract_y
_atom_site_fract_z
_atom_type_partial_charge
Mn0 Mn 0.06432 0.10175 0.07459 0.0
Mn1 Mn 0.00933 0.13609 0.05825 0.0
C2 C 0.0226 0.06566 0.05631 0.0
C3 C 0.0703 0.06544 0.09237 0.0
C4 C 0.0994 0.17093 0.05503 0.0
O5 O 0.06731 0.14437 0.0875 0.0
O6 O 0.0241 0.1599 0.07688 0.0
C7 C 0.93604 0.09738 0.07422 0.0
N8 N 0.9536 0.1034 0.06212 0.0
C9 C 0.88922 0.06072 0.05054 0.0
C10 C 0.8704 0.05425 0.06286 0.0
C11 C 0.89394 0.07257 0.07476 0.0
C12 C 0.93128 0.08574 0.05063 0.0
H13 H 0.95405 0.11139 0.08338 0.0
C14 C 0.04745 0.16285 0.08697 0.0
O15 O 0.1021 0.09317 0.08665 0.0
O16 O 0.03545 0.05934 0.08784 0.0
N17 N 0.99269 0.11528 0.04013 0.0
C18 C 0.01567 0.12327 0.02916 0.0
C19 C 0.99682 0.1064 0.01651 0.0
C20 C 0.95455 0.08191 0.01523 0.0
C21 C 0.9315 0.0746 0.02662 0.0
C22 C 0.95195 0.09227 0.03897 0.0
H23 H 0.04815 0.1422 0.03007 0.0
O24 O 0.05164 0.05964 0.0604 0.0
O25 O 0.01819 0.09181 0.06328 0.0
O26 O 0.10352 0.14572 0.06229 0.0
O27 O 0.06608 0.17081 0.05339 0.0
C28 C 0.88907 0.05014 0.02623 0.0
C29 C 0.86796 0.043 0.03819 0.0
H30 H 0.83794 0.03509 0.06333 0.0
H31 H 0.87965 0.06759 0.08431 0.0
H32 H 0.01482 0.11223 0.00776 0.0
H33 H 0.94014 0.06876 0.00546 0.0
H34 H 0.87241 0.03634 0.01681 0.0
H35 H 0.8354 0.02363 0.0378 0.0
Mn36 Mn 0.01604 0.08167 0.40998 0.0
Mn37 Mn 0.07071 0.17157 0.4266 0.0
C38 C 0.05792 0.08788 0.4283 0.0
C39 C 0.00876 0.03742 0.39254 0.0
C40 C 0.98172 0.11461 0.43064 0.0
O41 O 0.01342 0.12051 0.39674 0.0
O42 O 0.051 0.17868 0.40861 0.0
C43 C 0.13964 0.20819 0.40864 0.0
N44 N 0.12532 0.19738 0.42121 0.0
C45 C 0.19271 0.22663 0.43118 0.0
C46 C 0.20823 0.23829 0.41835 0.0
C47 C 0.18156 0.22889 0.40703 0.0
C48 C 0.15067 0.20602 0.43215 0.0
H49 H 0.11924 0.20112 0.39992 0.0
C50 C 0.02984 0.15865 0.3981 0.0
O51 O 0.9775 0.03454 0.39825 0.0
O52 O 0.04403 0.06639 0.39681 0.0
N53 N 0.09239 0.17051 0.44418 0.0
C54 C 0.07249 0.15563 0.45574 0.0
C55 C 0.09477 0.16235 0.46799 0.0
C56 C 0.13723 0.18452 0.46825 0.0
C57 C 0.15703 0.19945 0.45623 0.0
C58 C 0.13323 0.19226 0.44435 0.0
H59 H 0.03987 0.13892 0.45561 0.0
O60 O 0.02823 0.05281 0.42431 0.0
O61 O 0.06295 0.11861 0.42129 0.0
O62 O 0.97678 0.08721 0.42217 0.0
O63 O 0.0155 0.14703 0.43297 0.0
C64 C 0.19945 0.22082 0.45554 0.0
C65 C 0.21727 0.23423 0.44302 0.0
H66 H 0.24054 0.25426 0.41707 0.0
H67 H 0.19329 0.23767 0.39709 0.0
H68 H 0.07928 0.15058 0.47723 0.0
H69 H 0.15434 0.18968 0.47772 0.0
H70 H 0.21862 0.22669 0.46456 0.0
H71 H 0.2499 0.2502 0.44259 0.0
Mn72 Mn 0.04422 0.10338 0.74332 0.0
Mn73 Mn 0.0035 0.15251 0.75846 0.0
C74 C 0.07461 0.14065 0.76292 0.0
C75 C 0.08537 0.10109 0.72709 0.0
C76 C 0.96948 0.06219 0.76008 0.0
O77 O 0.00538 0.1035 0.72887 0.0
O78 O 0.9851 0.14235 0.73908 0.0
C79 C 0.04551 0.23005 0.74441 0.0
N80 N 0.03611 0.20928 0.75607 0.0
C81 C 0.0732 0.27064 0.76945 0.0
C82 C 0.08313 0.29273 0.75758 0.0
C83 C 0.06932 0.27232 0.745 0.0
C84 C 0.04944 0.22858 0.76822 0.0
H85 H 0.03492 0.21444 0.73473 0.0
C86 C 0.98592 0.12239 0.72883 0.0
O87 O 0.05584 0.06834 0.73176 0.0
O88 O 0.09072 0.13514 0.73177 0.0
N89 N 0.01879 0.16448 0.77721 0.0
C90 C 0.00797 0.13859 0.78766 0.0
C91 C 0.01918 0.1541 0.80094 0.0
C92 C 0.0412 0.19599 0.80334 0.0
C93 C 0.05249 0.22205 0.79243 0.0
C94 C 0.0399 0.20485 0.77942 0.0
H95 H 0.99063 0.10636 0.78589 0.0
O96 O 0.08214 0.11285 0.75906 0.0
O97 O 0.05024 0.14643 0.75502 0.0
O98 O 0.99694 0.06082 0.75365 0.0
O99 O 0.96827 0.09453 0.76186 0.0
C100 C 0.07582 0.26437 0.79393 0.0
C101 C 0.08638 0.28863 0.78245 0.0
H102 H 0.10154 0.32533 0.75799 0.0
H103 H 0.07699 0.28916 0.7358 0.0
H104 H 0.01057 0.13381 0.80931 0.0
H105 H 0.04923 0.20777 0.81362 0.0
H106 H 0.08617 0.27853 0.80386 0.0
H107 H 0.10477 0.3211 0.78372 0.0
C108 C 0.97204 0.68255 0.32185 0.0
C109 C 0.00175 0.72002 0.31432 0.0
C110 C 0.00089 0.69572 0.29176 0.0
C111 C 0.04157 0.70801 0.29005 0.0
C112 C 0.05221 0.68594 0.28154 0.0
C113 C 0.02142 0.6508 0.27468 0.0
C114 C 0.98036 0.63932 0.27599 0.0
C115 C 0.97065 0.6624 0.2844 0.0
C116 C 0.0963 0.69957 0.28013 0.0
C117 C 0.94678 0.60197 0.26886 0.0
C118 C 0.13229 0.45624 0.28949 0.0
C119 C 0.10603 0.45681 0.30068 0.0
C120 C 0.06686 0.48432 0.28945 0.0
C121 C 0.02867 0.47413 0.28401 0.0
C122 C 0.0221 0.50264 0.27738 0.0
C123 C 0.05477 0.54239 0.27616 0.0
C124 C 0.0933 0.55338 0.28199 0.0
C125 C 0.09901 0.52424 0.2886 0.0
C126 C 0.98056 0.49002 0.27133 0.0
C127 C 0.12865 0.59565 0.2809 0.0
C128 C 0.09907 0.49585 0.19574 0.0
C129 C 0.05807 0.48431 0.1961 0.0
C130 C 0.04659 0.51186 0.20035 0.0
C131 C 0.07678 0.55169 0.2042 0.0
C132 C 0.11802 0.56416 0.20282 0.0
C133 C 0.12862 0.53602 0.19849 0.0
C134 C 0.0023 0.49795 0.20134 0.0
C135 C 0.15091 0.60659 0.20662 0.0
C136 C 0.97882 0.76884 0.19571 0.0
C137 C 0.01695 0.77326 0.18969 0.0
C138 C 0.01914 0.71109 0.18918 0.0
C139 C 0.99031 0.67013 0.18956 0.0
C140 C -0.0006 0.64302 0.19602 0.0
C141 C 0.03862 0.65736 0.20193 0.0
C142 C 0.06875 0.69831 0.2007 0.0
C143 C 0.05863 0.72484 0.19435 0.0
C144 C 0.96675 0.59941 0.19698 0.0
C145 C 0.11122 0.71423 0.20648 0.0
C146 C 0.03212 0.6245 0.26703 0.0
C147 C 0.03859 0.59701 0.27433 0.0
C148 C 0.04926 0.57154 0.26792 0.0
C149 C 0.05385 0.57342 0.25384 0.0
C150 C 0.06504 0.54847 0.24713 0.0
C151 C 0.0691 0.55018 0.23327 0.0
C152 C 0.06197 0.57681 0.22553 0.0
C153 C 0.06555 0.57834 0.21138 0.0
C154 C 0.0581 0.60498 0.20394 0.0
C155 C 0.0471 0.63035 0.21033 0.0
C156 C 0.04356 0.6294 0.2245 0.0
C157 C 0.0327 0.65463 0.23126 0.0
C158 C 0.02934 0.65343 0.24519 0.0
C159 C 0.03605 0.62651 0.25289 0.0
C160 C 0.04697 0.60082 0.24628 0.0
C161 C 0.05091 0.60241 0.23209 0.0
C162 C 0.12102 0.42836 0.20879 0.0
C163 C 0.09393 0.42997 0.19736 0.0
O164 O 0.9902 0.71505 0.30071 0.0
O165 O 0.008 0.73667 0.18382 0.0
O166 O 0.11116 0.4691 0.19279 0.0
O167 O 0.07114 0.45449 0.29517 0.0
H168 H 0.03231 0.72349 0.3158 0.0
H169 H 0.97236 0.65562 0.31789 0.0
H170 H 0.94079 0.67725 0.3205 0.0
H171 H 0.9808 0.68622 0.33279 0.0
H172 H 0.06494 0.73465 0.29547 0.0
H173 H 0.93933 0.65352 0.28572 0.0
H174 H 0.1032 0.67761 0.28501 0.0
H175 H 0.11656 0.72986 0.28486 0.0
H176 H 0.10297 0.70041 0.2693 0.0
H177 H 0.91638 0.59683 0.2711 0.0
H178 H 0.9487 0.57518 0.27195 0.0
H179 H 0.95022 0.60464 0.2578 0.0
H180 H 0.12352 0.48506 0.3069 0.0
H181 H 0.15978 0.45718 0.29398 0.0
H182 H 0.14215 0.48287 0.28304 0.0
H183 H 0.11517 0.42858 0.28299 0.0
H184 H 0.00403 0.44336 0.28478 0.0
H185 H 0.12875 0.53285 0.29285 0.0
H186 H 0.98169 0.49179 0.26018 0.0
H187 H 0.97062 0.51097 0.27489 0.0
H188 H 0.95774 0.45878 0.27397 0.0
H189 H 0.15647 0.59979 0.2863 0.0
H190 H 0.12099 0.61766 0.28513 0.0
H191 H 0.13501 0.60266 0.27012 0.0
H192 H 0.06409 0.42004 0.20168 0.0
H193 H 0.035 0.45377 0.19322 0.0
H194 H 0.16016 0.54483 0.19784 0.0
H195 H 0.99522 0.49726 0.21212 0.0
H196 H 0.98253 0.46739 0.19672 0.0
H197 H 0.99518 0.51954 0.19628 0.0
H198 H 0.18124 0.61252 0.2039 0.0
H199 H 0.15142 0.61166 0.21767 0.0
H200 H 0.14457 0.62865 0.20152 0.0
H201 H 0.04002 0.78222 0.19816 0.0
H202 H 0.98528 0.79788 0.20046 0.0
H203 H 0.96828 0.74564 0.20359 0.0
H204 H 0.95418 0.7594 0.1878 0.0
H205 H 0.96013 0.65979 0.18527 0.0
H206 H 0.08143 0.75633 0.19351 0.0
H207 H 0.96129 0.59142 0.20774 0.0
H208 H 0.97679 0.57968 0.1924 0.0
H209 H 0.93782 0.59302 0.1918 0.0
H210 H 0.13219 0.74554 0.20336 0.0
H211 H 0.1229 0.69445 0.20321 0.0
H212 H 0.11101 0.71393 0.21766 0.0
H213 H 0.03522 0.59536 0.28516 0.0
H214 H 0.07083 0.52727 0.25252 0.0
H215 H 0.07778 0.53017 0.22871 0.0
H216 H 0.0607 0.60584 0.19308 0.0
H217 H 0.02674 0.67569 0.22586 0.0
H218 H 0.0211 0.67365 0.24986 0.0
H219 H 0.10803 0.39705 0.21241 0.0
H220 H 0.12322 0.44812 0.21737 0.0
H221 H 0.15199 0.43891 0.20538 0.0
C222 C 0.40371 0.07288 0.65823 0.0
C223 C 0.39611 0.10351 0.65079 0.0
C224 C 0.41876 0.10214 0.62851 0.0
C225 C 0.44999 0.14188 0.62691 0.0
C226 C 0.48197 0.15024 0.61859 0.0
C227 C 0.48273 0.11805 0.61187 0.0
C228 C 0.45059 0.07797 0.61323 0.0
C229 C 0.41856 0.07065 0.62138 0.0
C230 C 0.51531 0.19335 0.61717 0.0
C231 C 0.45063 0.04281 0.6064 0.0
C232 C 0.74824 0.09569 0.64309 0.0
C233 C 0.71248 0.08936 0.63474 0.0
C234 C 0.67809 0.12522 0.62717 0.0
C235 C 0.64876 0.09306 0.61895 0.0
C236 C 0.61852 0.0964 0.61173 0.0
C237 C 0.61809 0.13302 0.61245 0.0
C238 C 0.6477 0.1656 0.6206 0.0
C239 C 0.67726 0.16116 0.62792 0.0
C240 C 0.58696 0.06061 0.60334 0.0
C241 C 0.64817 0.20506 0.6215 0.0
C242 C 0.69482 0.17041 0.52789 0.0
C243 C 0.66839 0.13093 0.5319 0.0
C244 C 0.63227 0.12139 0.53799 0.0
C245 C 0.62266 0.15203 0.54012 0.0
C246 C 0.64847 0.1914 0.53555 0.0
C247 C 0.68408 0.19992 0.52934 0.0
C248 C 0.6047 0.07878 0.54235 0.0
C249 C 0.63893 0.22465 0.53753 0.0
C250 C 0.30677 0.04501 0.53771 0.0
C251 C 0.33436 0.07711 0.52798 0.0
C252 C 0.39972 0.08173 0.52728 0.0
C253 C 0.41368 0.05519 0.53015 0.0
C254 C 0.45244 0.06933 0.53606 0.0
C255 C 0.47788 0.11115 0.53886 0.0
C256 C 0.46501 0.13846 0.53498 0.0
C257 C 0.42588 0.1234 0.52923 0.0
C258 C 0.46557 0.03946 0.53984 0.0
C259 C 0.49201 0.18329 0.53741 0.0
C260 C 0.51824 0.12616 0.60408 0.0
C261 C 0.55215 0.12996 0.61124 0.0
C262 C 0.58641 0.13666 0.60461 0.0
C263 C 0.58773 0.14131 0.59049 0.0
C264 C 0.62262 0.15041 0.58362 0.0
C265 C 0.62278 0.15232 0.56963 0.0
C266 C 0.58774 0.14428 0.56197 0.0
C267 C 0.58669 0.14351 0.54769 0.0
C268 C 0.5509 0.13382 0.54039 0.0
C269 C 0.51609 0.12555 0.547 0.0
C270 C 0.517 0.12789 0.56125 0.0
C271 C 0.4829 0.12126 0.56819 0.0
C272 C 0.48366 0.12209 0.58222 0.0
C273 C 0.51803 0.12815 0.58984 0.0
C274 C 0.55296 0.13573 0.58304 0.0
C275 C 0.55269 0.13636 0.56874 0.0
C276 C 0.79708 0.20153 0.53045 0.0
C277 C 0.7559 0.16602 0.52566 0.0
O278 O 0.38898 0.09349 0.63712 0.0
O279 O 0.36075 0.06628 0.52282 0.0
O280 O 0.7306 0.18109 0.5224 0.0
O281 O 0.70735 0.12262 0.63452 0.0
H282 H 0.42345 0.13392 0.65243 0.0
H283 H 0.43085 0.07348 0.6544 0.0
H284 H 0.37735 0.04189 0.65666 0.0
H285 H 0.40917 0.08039 0.66922 0.0
H286 H 0.44938 0.1663 0.63218 0.0
H287 H 0.39401 0.0401 0.62266 0.0
H288 H 0.54376 0.19749 0.62205 0.0
H289 H 0.50819 0.21519 0.62188 0.0
H290 H 0.52077 0.20033 0.60633 0.0
H291 H 0.425 0.01332 0.60933 0.0
H292 H 0.47939 0.04344 0.60899 0.0
H293 H 0.44855 0.04519 0.59529 0.0
H294 H 0.68409 0.06061 0.63666 0.0
H295 H 0.7355 0.07388 0.65156 0.0
H296 H 0.7578 0.12323 0.64972 0.0
H297 H 0.78601 0.09244 0.62899 0.0
H298 H 0.64909 0.06513 0.61813 0.0
H299 H 0.70002 0.18585 0.63425 0.0
H300 H 0.59191 0.0672 0.59247 0.0
H301 H 0.5562 0.05479 0.60535 0.0
H302 H 0.58813 0.03276 0.60537 0.0
H303 H 0.67488 0.22843 0.62753 0.0
H304 H 0.62034 0.20022 0.62624 0.0
H305 H 0.64822 0.21644 0.61122 0.0
H306 H 0.74443 0.14487 0.53418 0.0
H307 H 0.67578 0.10754 0.53023 0.0
H308 H 0.70441 0.2301 0.52596 0.0
H309 H 0.60442 0.07817 0.55353 0.0
H310 H 0.61439 0.05764 0.53877 0.0
H311 H 0.57326 0.06793 0.53844 0.0
H312 H 0.66247 0.25383 0.53358 0.0
H313 H 0.63615 0.22882 0.54844 0.0
H314 H 0.60942 0.2161 0.53233 0.0
H315 H 0.35104 0.10604 0.53391 0.0
H316 H 0.28489 0.05287 0.54176 0.0
H317 H 0.32525 0.04337 0.54632 0.0
H318 H 0.28984 0.01483 0.5326 0.0
H319 H 0.3934 0.02314 0.52832 0.0
H320 H 0.41556 0.14406 0.5264 0.0
H321 H 0.47098 0.04047 0.55095 0.0
H322 H 0.49449 0.04777 0.53514 0.0
H323 H 0.44269 0.00809 0.53661 0.0
H324 H 0.47918 0.20076 0.53261 0.0
H325 H 0.52227 0.19345 0.53344 0.0
H326 H 0.4963 0.19014 0.54843 0.0
H327 H 0.55133 0.12628 0.62209 0.0
H328 H 0.65016 0.156 0.589 0.0
H329 H 0.65046 0.15927 0.56489 0.0
H330 H 0.54993 0.13203 0.52945 0.0
H331 H 0.45519 0.11533 0.56287 0.0
H332 H 0.45659 0.11686 0.58702 0.0
H333 H 0.81092 0.22313 0.52218 0.0
H334 H 0.81797 0.19089 0.53389 0.0
H335 H 0.79329 0.21764 0.53908 0.0
C336 C 0.68859 0.67945 0.82774 0.0
C337 C 0.68951 0.71688 0.83357 0.0
C338 C 0.67251 0.70579 0.85687 0.0
C339 C 0.64417 0.71825 0.85816 0.0
C340 C 0.61287 0.69924 0.86713 0.0
C341 C 0.60974 0.6668 0.87478 0.0
C342 C 0.63968 0.65563 0.87397 0.0
C343 C 0.67121 0.67588 0.86515 0.0
C344 C 0.58212 0.71261 0.86796 0.0
C345 C 0.63727 0.62096 0.88185 0.0
C346 C 0.35082 0.39379 0.83432 0.0
C347 C 0.38738 0.42308 0.84247 0.0
C348 C 0.41548 0.48817 0.85426 0.0
C349 C 0.44559 0.48448 0.86155 0.0
C350 C 0.4737 0.51563 0.87024 0.0
C351 C 0.47184 0.55133 0.87165 0.0
C352 C 0.4414 0.55509 0.86446 0.0
C353 C 0.41344 0.52328 0.85587 0.0
C354 C 0.50585 0.51062 0.87777 0.0
C355 C 0.43871 0.5928 0.8658 0.0
C356 C 0.38122 0.50126 0.95306 0.0
C357 C 0.41158 0.49141 0.95161 0.0
C358 C 0.44935 0.51981 0.94688 0.0
C359 C 0.45707 0.55898 0.9438 0.0
C360 C 0.4275 0.56973 0.94614 0.0
C361 C 0.38993 0.54068 0.95081 0.0
C362 C 0.48062 0.50767 0.94483 0.0
C363 C 0.43504 0.61144 0.9432 0.0
C364 C 0.77671 0.75331 0.95218 0.0
C365 C 0.74864 0.76308 0.95981 0.0
C366 C 0.68022 0.70655 0.96029 0.0
C367 C 0.66363 0.66533 0.95777 0.0
C368 C 0.62533 0.64251 0.95129 0.0
C369 C 0.60285 0.66142 0.94768 0.0
C370 C 0.61828 0.70251 0.95123 0.0
C371 C 0.65712 0.72482 0.95742 0.0
C372 C 0.60959 0.59859 0.94786 0.0
C373 C 0.59446 0.72315 0.94796 0.0
C374 C 0.57236 0.64108 0.88203 0.0
C375 C 0.53875 0.6125 0.87427 0.0
C376 C 0.50308 0.5851 0.88024 0.0
C377 C 0.49994 0.58696 0.89432 0.0
C378 C 0.46399 0.56049 0.90056 0.0
C379 C 0.4618 0.5612 0.91451 0.0
C380 C 0.49573 0.58791 0.92275 0.0
C381 C 0.49444 0.58737 0.93699 0.0
C382 C 0.5293 0.61277 0.94491 0.0
C383 C 0.56553 0.63925 0.93894 0.0
C384 C 0.56693 0.64153 0.92472 0.0
C385 C 0.60259 0.66874 0.91839 0.0
C386 C 0.60407 0.66966 0.90439 0.0
C387 C 0.57042 0.64246 0.89621 0.0
C388 C 0.53399 0.61526 0.90236 0.0
C389 C 0.53207 0.61524 0.91662 0.0
C390 C 0.28402 0.42127 0.9453 0.0
C391 C 0.32304 0.43264 0.95354 0.0
O392 O 0.70012 0.72098 0.84724 0.0
O393 O 0.71877 0.72813 0.96537 0.0
O394 O 0.3433 0.47371 0.95657 0.0
O395 O 0.38814 0.45869 0.8456 0.0
H396 H 0.65856 0.71242 0.8319 0.0
H397 H 0.66549 0.65209 0.83275 0.0
H398 H 0.71845 0.68157 0.82939 0.0
H399 H 0.68054 0.67603 0.81674 0.0
H400 H 0.64606 0.74217 0.8519 0.0
H401 H 0.69365 0.66691 0.86411 0.0
H402 H 0.55343 0.68991 0.86265 0.0
H403 H 0.59251 0.74227 0.86325 0.0
H404 H 0.57558 0.71468 0.87865 0.0
H405 H 0.66139 0.61435 0.87934 0.0
H406 H 0.60744 0.59335 0.87979 0.0
H407 H 0.64017 0.62816 0.89282 0.0
H408 H 0.41663 0.42819 0.8387 0.0
H409 H 0.36272 0.39082 0.82445 0.0
H410 H 0.33651 0.41103 0.83002 0.0
H411 H 0.32094 0.3452 0.84724 0.0
H412 H 0.44755 0.45747 0.86048 0.0
H413 H 0.39004 0.52582 0.85025 0.0
H414 H 0.50459 0.51477 0.88878 0.0
H415 H 0.53618 0.53409 0.87467 0.0
H416 H 0.50245 0.4805 0.87586 0.0
H417 H 0.41247 0.59057 0.85986 0.0
H418 H 0.46686 0.61904 0.86232 0.0
H419 H 0.43612 0.59872 0.87658 0.0
H420 H 0.34099 0.42449 0.94703 0.0
H421 H 0.40586 0.46158 0.95407 0.0
H422 H 0.3666 0.54822 0.95226 0.0
H423 H 0.48874 0.51119 0.9341 0.0
H424 H 0.46987 0.47597 0.94765 0.0
H425 H 0.50848 0.52785 0.95102 0.0
H426 H 0.41034 0.61606 0.94658 0.0
H427 H 0.43778 0.61631 0.93217 0.0
H428 H 0.46402 0.63451 0.94826 0.0
H429 H 0.73525 0.77536 0.95241 0.0
H430 H 0.80082 0.78091 0.94756 0.0
H431 H 0.75916 0.73066 0.94398 0.0
H432 H 0.79094 0.74076 0.95907 0.0
H433 H 0.68162 0.65153 0.9603 0.0
H434 H 0.66969 0.75657 0.95988 0.0
H435 H 0.60275 0.59293 0.93683 0.0
H436 H 0.58102 0.57974 0.95301 0.0
H437 H 0.63146 0.58884 0.95096 0.0
H438 H 0.60806 0.75335 0.95301 0.0
H439 H 0.56284 0.70429 0.95107 0.0
H440 H 0.59337 0.7269 0.93689 0.0
H441 H 0.54098 0.61041 0.86345 0.0
H442 H 0.43718 0.53885 0.89473 0.0
H443 H 0.43335 0.53997 0.91874 0.0
H444 H 0.52851 0.61116 0.95581 0.0
H445 H 0.62986 0.68966 0.92416 0.0
H446 H 0.63222 0.69129 0.90007 0.0
H447 H 0.26702 0.38836 0.94286 0.0
H448 H 0.29143 0.43774 0.93568 0.0
H449 H 0.26445 0.42931 0.95093 0.0
H450 H 0.00584 0.20252 0.09088 0.0
H451 H 0.0137 0.24702 0.10981 0.0
H452 H 0.10619 0.22792 0.12829 0.0
H453 H 0.09825 0.18283 0.1095 0.0
H454 H 0.05023 0.22297 0.14631 0.0
H455 H 0.10852 0.36176 0.1164 0.0
H456 H 0.06098 0.32079 0.10991 0.0
H457 H 0.10539 0.31614 0.11002 0.0
C458 C 0.02796 0.20778 0.09893 0.0
C459 C 0.05166 0.1893 0.09858 0.0
C460 C 0.0325 0.23338 0.10973 0.0
C461 C 0.06102 0.2413 0.12032 0.0
C462 C 0.08417 0.22236 0.12016 0.0
H463 H 0.15055 0.43725 0.17968 0.0
H464 H 0.1427 0.39045 0.16139 0.0
C465 C 0.07959 0.19663 0.10939 0.0
C466 C 0.06657 0.26919 0.1316 0.0
H467 H 0.09196 0.36631 0.13891 0.0
C468 C 0.05947 0.25435 0.14472 0.0
C469 C 0.07917 0.31021 0.12949 0.0
C470 C 0.08935 0.32836 0.11572 0.0
C471 C 0.06404 0.27936 0.1558 0.0
C472 C 0.07529 0.32004 0.15363 0.0
C473 C 0.08297 0.335 0.14053 0.0
C474 C 0.07988 0.34788 0.16482 0.0
C475 C 0.05749 0.26216 0.16975 0.0
C476 C 0.04704 0.33964 0.17269 0.0
C477 C 0.05154 0.36619 0.18317 0.0
C478 C 0.08881 0.40171 0.18583 0.0
C479 C 0.1215 0.41011 0.17782 0.0
C480 C 0.11704 0.38346 0.1674 0.0
H481 H 0.06004 0.2346 0.17009 0.0
H482 H 0.07965 0.28462 0.17729 0.0
H483 H 0.02666 0.25379 0.17272 0.0
H484 H 0.01786 0.3128 0.17067 0.0
H485 H 0.02585 0.35901 0.18918 0.0
H486 H 0.90095 0.05679 0.42687 0.0
H487 H 0.84431 0.05105 0.43947 0.0
H488 H 0.92796 0.15348 0.46462 0.0
H489 H 0.98403 0.15987 0.45219 0.0
H490 H 0.82903 0.04166 0.46769 0.0
H491 H 0.84687 0.1853 0.44964 0.0
H492 H 0.86907 0.15952 0.44143 0.0
H493 H 0.8943 0.1919 0.45602 0.0
C494 C 0.9072 0.07805 0.43509 0.0
C495 C 0.94703 0.10915 0.43837 0.0
C496 C 0.87484 0.07469 0.44227 0.0
C497 C 0.88197 0.10242 0.45276 0.0
C498 C 0.92173 0.13241 0.45633 0.0
H499 H 0.79201 0.12046 0.52543 0.0
H500 H 0.81113 0.0958 0.50603 0.0
C501 C 0.95382 0.13592 0.44919 0.0
C502 C 0.84858 0.10102 0.46019 0.0
H503 H 0.81722 0.16417 0.47136 0.0
C504 C 0.82554 0.06796 0.46829 0.0
C505 C 0.8431 0.13474 0.46065 0.0
C506 C 0.86435 0.16966 0.45134 0.0
C507 C 0.79988 0.06941 0.47775 0.0
C508 C 0.79838 0.10534 0.47938 0.0
C509 C 0.81864 0.13677 0.47037 0.0
C510 C 0.78034 0.11338 0.49116 0.0
C511 C 0.77541 0.03275 0.48604 0.0
C512 C 0.75688 0.13187 0.48939 0.0
C513 C 0.7474 0.14758 0.50048 0.0
C514 C 0.76052 0.14438 0.51363 0.0
C515 C 0.78159 0.12343 0.51543 0.0
C516 C 0.79197 0.1087 0.50432 0.0
H517 H 0.76592 0.00466 0.48003 0.0
H518 H 0.79441 0.03303 0.49482 0.0
H519 H 0.74804 0.03188 0.48976 0.0
H520 H 0.74755 0.13594 0.47935 0.0
H521 H 0.73102 0.16338 0.49863 0.0
H522 H 0.96198 0.98715 0.75974 0.0
H523 H 0.91407 0.92772 0.77182 0.0
H524 H 0.85959 0.99356 0.78712 0.0
H525 H 0.90744 0.05322 0.77525 0.0
H526 H 0.87927 0.95392 0.80699 0.0
H527 H 0.79247 0.85147 0.76336 0.0
H528 H 0.84638 0.87354 0.76307 0.0
H529 H 0.82449 0.90527 0.76173 0.0
C530 C 0.93956 0.98894 0.76555 0.0
C531 C 0.93861 0.02506 0.76649 0.0
C532 C 0.91211 0.95486 0.77241 0.0
C533 C 0.88311 0.9562 0.78025 0.0
C534 C 0.88172 0.99194 0.78108 0.0
H535 H 0.67304 0.75927 0.81472 0.0
H536 H 0.72087 0.81778 0.8022 0.0
C537 C 0.90907 0.02598 0.77424 0.0
C538 C 0.85526 0.921 0.7881 0.0
H539 H 0.77868 0.82308 0.78504 0.0
C540 C 0.85723 0.92529 0.80221 0.0
C541 C 0.82639 0.88388 0.7818 0.0
C542 C 0.82191 0.87817 0.76665 0.0
C543 C 0.83113 0.89334 0.81022 0.0
C544 C 0.80277 0.85597 0.80394 0.0
C545 C 0.80068 0.85173 0.78982 0.0
C546 C 0.77419 0.82116 0.8118 0.0
C547 C 0.83356 0.90015 0.8253 0.0
C548 C 0.78837 0.80362 0.8213 0.0
C549 C 0.76111 0.77041 0.82854 0.0
C550 C 0.71922 0.75414 0.82635 0.0
C551 C 0.70516 0.77156 0.81673 0.0
C552 C 0.7324 0.8048 0.80954 0.0
H553 H 0.84962 0.93278 0.82813 0.0
H554 H 0.80291 0.88551 0.82939 0.0
H555 H 0.85044 0.88673 0.83017 0.0
H556 H 0.8205 0.81526 0.82297 0.0
H557 H 0.77269 0.75709 0.83572 0.0
H558 H 0.0093 0.01211 0.10751 0.0
H559 H 0.01207 0.96867 0.12487 0.0
H560 H 0.1395 0.01872 0.1194 0.0
H561 H 0.13703 0.06262 0.10187 0.0
H562 H 0.09194 0.93166 0.11919 0.0
H563 H 0.0645 0.00136 0.16351 0.0
H564 H 0.02908 0.99067 0.14953 0.0
H565 H 0.08163 0.02723 0.14784 0.0
C566 C 0.03805 0.01421 0.11005 0.0
C567 C 0.073 0.04087 0.10334 0.0
C568 C 0.03959 0.98948 0.12002 0.0
C569 C 0.07607 0.9909 0.12352 0.0
C570 C 0.11113 0.01747 0.11689 0.0
H571 H 0.07924 0.8514 0.1927 0.0
H572 H 0.10056 0.9059 0.17656 0.0
C573 C 0.10968 0.04253 0.10692 0.0
C574 C 0.07662 0.9631 0.13369 0.0
H575 H 0.05253 0.93422 0.16608 0.0
C576 C 0.08399 0.93253 0.12951 0.0
C577 C 0.06668 0.96463 0.14716 0.0
C578 C 0.06039 0.99797 0.15235 0.0
C579 C 0.07956 0.90212 0.13831 0.0
C580 C 0.06702 0.90219 0.15152 0.0
C581 C 0.06178 0.934 0.1559 0.0
C582 C 0.05688 0.8685 0.16076 0.0
C583 C 0.08782 0.86992 0.13332 0.0
C584 C 0.02523 0.8295 0.15723 0.0
C585 C 0.01308 0.79839 0.1664 0.0
C586 C 0.03242 0.80576 0.17928 0.0
C587 C 0.06427 0.84479 0.18277 0.0
C588 C 0.0764 0.87589 0.17358 0.0
H589 H 0.1085 0.88059 0.12481 0.0
H590 H 0.10132 0.8602 0.14153 0.0
H591 H 0.05894 0.84326 0.12963 0.0
H592 H 0.00901 0.8234 0.14753 0.0
H593 H 0.98791 0.7688 0.16357 0.0
H594 H 0.04215 0.04658 0.45148 0.0
H595 H 0.09101 0.04575 0.46788 0.0
H596 H 0.18888 0.13287 0.44461 0.0
H597 H 0.13972 0.12977 0.42748 0.0
H598 H 0.20747 0.08298 0.45245 0.0
H599 H 0.15212 0.12171 0.49738 0.0
H600 H 0.11435 0.07294 0.49088 0.0
H601 H 0.12846 0.11682 0.48095 0.0
C602 C 0.07416 0.06576 0.44999 0.0
C603 C 0.08745 0.09012 0.43867 0.0
C604 C 0.10209 0.06562 0.45943 0.0
C605 C 0.14383 0.09063 0.45787 0.0
C606 C 0.15694 0.11391 0.44625 0.0
H607 H 0.3216 0.1403 0.52333 0.0
H608 H 0.27869 0.14577 0.50553 0.0
C609 C 0.12894 0.11287 0.43659 0.0
C610 C 0.17387 0.09102 0.46792 0.0
H611 H 0.19829 0.0972 0.50166 0.0
C612 C 0.20563 0.08664 0.46319 0.0
C613 C 0.1718 0.0958 0.48201 0.0
C614 C 0.14002 0.10247 0.48804 0.0
C615 C 0.23496 0.08657 0.47208 0.0
C616 C 0.23182 0.08977 0.48611 0.0
C617 C 0.2005 0.09459 0.49087 0.0
C618 C 0.26028 0.08771 0.49614 0.0
C619 C 0.26929 0.08362 0.46632 0.0
C620 C 0.26417 0.05329 0.49672 0.0
C621 C 0.2889 0.05028 0.5068 0.0
C622 C 0.30977 0.08144 0.51655 0.0
C623 C 0.306 0.11595 0.5159 0.0
C624 C 0.2815 0.11907 0.50576 0.0
H625 H 0.27418 0.09369 0.45573 0.0
H626 H 0.29791 0.10204 0.47241 0.0
H627 H 0.26189 0.0517 0.46637 0.0
H628 H 0.2473 0.02831 0.4896 0.0
H629 H 0.29111 0.02325 0.50715 0.0
H630 H 0.09129 0.12294 0.78793 0.0
H631 H 0.14131 0.17015 0.80486 0.0
H632 H 0.16648 0.26945 0.77892 0.0
H633 H 0.11816 0.22195 0.76174 0.0
H634 H 0.23387 0.27192 0.78755 0.0
H635 H 0.14051 0.24861 0.83165 0.0
H636 H 0.13372 0.20253 0.8244 0.0
H637 H 0.11941 0.23319 0.81468 0.0
C638 C 0.107 0.15497 0.78603 0.0
C639 C 0.09999 0.16919 0.77382 0.0
C640 C 0.13528 0.18193 0.79572 0.0
C641 C 0.15697 0.22348 0.79331 0.0
C642 C 0.14974 0.2376 0.78108 0.0
H643 H 0.31876 0.41405 0.86066 0.0
H644 H 0.25443 0.36273 0.84124 0.0
C645 C 0.12183 0.2106 0.77135 0.0
C646 C 0.18994 0.25171 0.80289 0.0
H647 H 0.21169 0.28409 0.83583 0.0
C648 C 0.22896 0.27477 0.79809 0.0
C649 C 0.18347 0.25584 0.8166 0.0
C650 C 0.14194 0.23399 0.82216 0.0
C651 C 0.26179 0.30129 0.80667 0.0
C652 C 0.25555 0.30392 0.8205 0.0
C653 C 0.21647 0.28166 0.82525 0.0
C654 C 0.28886 0.32931 0.83027 0.0
C655 C 0.30238 0.32701 0.80069 0.0
C656 C 0.33299 0.32378 0.83139 0.0
C657 C 0.37371 0.35314 0.84355 0.0
C658 C 0.36998 0.39388 0.85236 0.0
C659 C 0.32109 0.39233 0.85436 0.0
C660 C 0.28212 0.36169 0.84183 0.0
H661 H 0.29926 0.33027 0.78965 0.0
H662 H 0.31865 0.35756 0.80549 0.0
H663 H 0.32098 0.31256 0.80222 0.0
H664 H 0.33484 0.30219 0.82489 0.0
H665 H 0.40163 0.35254 0.84356 0.0
H666 H 0.93646 0.15413 0.72504 0.0
H667 H 0.89608 0.14937 0.70473 0.0
H668 H 0.94212 0.08309 0.68403 0.0
H669 H 0.98285 0.08763 0.70427 0.0
H670 H 0.93986 0.14856 0.66896 0.0
H671 H 0.79483 0.03955 0.69139 0.0
H672 H 0.82705 0.08449 0.70139 0.0
H673 H 0.84326 0.04888 0.69819 0.0
C674 C 0.9382 0.13862 0.71618 0.0
C675 C 0.96266 0.12091 0.71635 0.0
C676 C 0.91505 0.13593 0.7046 0.0
C677 C 0.91593 0.11556 0.69299 0.0
C678 C 0.94106 0.09884 0.69294 0.0
H679 H 0.70931 0.01213 0.62685 0.0
H680 H 0.7722 0.02336 0.64638 0.0
C681 C 0.96416 0.10136 0.70454 0.0
C682 C 0.88954 0.11062 0.68104 0.0
H683 H 0.79053 0.06525 0.67017 0.0
C684 C 0.90719 0.13034 0.66917 0.0
C685 C 0.84708 0.0863 0.68135 0.0
C686 C 0.82677 0.06326 0.69371 0.0
C687 C 0.88324 0.12695 0.65761 0.0
C688 C 0.8407 0.10364 0.65809 0.0
C689 C 0.82319 0.08328 0.66987 0.0
C690 C 0.81326 0.09945 0.64662 0.0
C691 C 0.90389 0.14756 0.64498 0.0
C692 C 0.8181 0.14393 0.63868 0.0
C693 C 0.78121 0.13967 0.62597 0.0
C694 C 0.73531 0.08852 0.62414 0.0
C695 C 0.73523 0.04177 0.629 0.0
C696 C 0.77356 0.04923 0.64157 0.0
H697 H 0.93447 0.15112 0.6447 0.0
H698 H 0.88603 0.13058 0.63574 0.0
H699 H 0.90771 0.1782 0.64485 0.0
H700 H 0.84238 0.17351 0.6419 0.0
H701 H 0.78171 0.16618 0.62206 0.0
H702 H 0.94242 0.01761 0.05946 0.0
H703 H 0.89269 0.9659 0.04349 0.0
H704 H 0.98564 0.99871 0.01484 0.0
H705 H 0.0355 0.0496 0.03099 0.0
H706 H 0.86538 0.96858 0.01831 0.0
H707 H 0.94243 0.87937 0.01797 0.0
H708 H 0.95643 0.92024 0.02995 0.0
H709 H 0.97477 0.93049 0.01315 0.0
C710 C 0.9519 0.01398 0.04966 0.0
C711 C 0.99229 0.03788 0.04623 0.0
C712 C 0.92366 0.98442 0.0406 0.0
C713 C 0.93563 0.97806 0.02807 0.0
C714 C 0.97596 0.00253 0.02457 0.0
H715 H 0.78286 0.84489 0.95832 0.0
H716 H 0.82598 0.89666 0.97536 0.0
C717 C 0.00428 0.03173 0.0337 0.0
C718 C 0.90611 0.94534 0.01877 0.0
H719 H 0.88967 0.86151 0.00118 0.0
C720 C 0.87065 0.94518 0.01456 0.0
C721 C 0.91248 0.9141 0.01421 0.0
C722 C 0.94837 0.91072 0.01916 0.0
C723 C 0.84195 0.91533 0.00557 0.0
C724 C 0.84936 0.88531 0.00048 0.0
C725 C 0.88428 0.88485 0.00497 0.0
C726 C 0.82151 0.8541 0.99044 0.0
C727 C 0.80376 0.91593 0.00177 0.0
C728 C 0.80553 0.81309 0.99315 0.0
C729 C 0.78137 0.78357 0.98338 0.0
C730 C 0.77238 0.79456 0.97077 0.0
C731 C 0.78853 0.83564 0.96807 0.0
C732 C 0.81296 0.86517 0.97781 0.0
H733 H 0.79722 0.93281 0.00943 0.0
H734 H 0.80746 0.93121 0.99202 0.0
H735 H 0.77737 0.88487 0.0006 0.0
H736 H 0.81219 0.80395 0.00277 0.0
H737 H 0.77014 0.75218 0.98562 0.0
H738 H 0.94057 0.96724 0.38428 0.0
H739 H 0.93609 0.91494 0.36886 0.0
H740 H 0.06337 0.98795 0.36214 0.0
H741 H 0.06821 0.04031 0.37751 0.0
H742 H 0.00827 0.94655 0.3379 0.0
H743 H 0.991 0.84742 0.38104 0.0
H744 H 0.95735 0.8673 0.37998 0.0
H745 H 0.0105 0.9009 0.38326 0.0
C746 C 0.96749 0.97238 0.37938 0.0
C747 C 0.00482 0.00772 0.38219 0.0
C748 C 0.96488 0.94247 0.37061 0.0
C749 C -0.00052 0.94756 0.36449 0.0
C750 C 0.03636 0.98354 0.36679 0.0
H751 H 0.05658 0.77456 0.33297 0.0
H752 H 0.0556 0.83098 0.34414 0.0
C753 C 0.03907 0.01333 0.37561 0.0
C754 C 0.99802 0.9144 0.35641 0.0
H755 H 0.98988 0.82207 0.35931 0.0
C756 C 0.00399 0.91918 0.34252 0.0
C757 C 0.99297 0.87909 0.36257 0.0
C758 C 0.98786 0.87321 0.37755 0.0
C759 C 0.00498 0.88932 0.33458 0.0
C760 C -0.00027 0.85393 0.34075 0.0
C761 C 0.99371 0.84921 0.35463 0.0
C762 C 0.0017 0.82183 0.33312 0.0
C763 C 0.01264 0.89618 0.31976 0.0
C764 C 0.97172 0.79811 0.32321 0.0
C765 C 0.97224 0.76587 0.31681 0.0
C766 C 0.00294 0.75706 0.32016 0.0
C767 C 0.03302 0.78112 0.33002 0.0
C768 C 0.03241 0.8132 0.33643 0.0
H769 H 0.02356 0.92804 0.31711 0.0
H770 H 0.03525 0.88795 0.31678 0.0
H771 H 0.98409 0.87667 0.31379 0.0
H772 H 0.94731 0.80382 0.32073 0.0
H773 H 0.94819 0.74725 0.30946 0.0
H774 H 0.14898 0.16474 0.71554 0.0
H775 H 0.1966 0.16264 0.70032 0.0
H776 H 0.13122 0.03267 0.70107 0.0
H777 H 0.08356 0.03446 0.7164 0.0
H778 H 0.21437 0.06785 0.70668 0.0
H779 H 0.18323 0.12941 0.66016 0.0
H780 H 0.19232 0.15989 0.67511 0.0
H781 H 0.14855 0.11016 0.67368 0.0
C782 C 0.14444 0.13568 0.71235 0.0
C783 C 0.11255 0.09975 0.71719 0.0
C784 C 0.17153 0.13454 0.70358 0.0
C785 C 0.1671 0.09749 0.69943 0.0
C786 C 0.13497 0.06155 0.70409 0.0
H787 H 0.31454 0.05436 0.64408 0.0
H788 H 0.25726 0.05225 0.65511 0.0
C789 C 0.1078 0.06265 0.71284 0.0
C790 C 0.19777 0.09641 0.69108 0.0
H791 H 0.24368 0.12564 0.66103 0.0
C792 C 0.22051 0.08013 0.69665 0.0
C793 C 0.20554 0.11226 0.67797 0.0
C794 C 0.1809 0.1286 0.6713 0.0
C795 C 0.25169 0.08043 0.68963 0.0
C796 C 0.26041 0.09759 0.67675 0.0
C797 C 0.23698 0.11279 0.67097 0.0
C798 C 0.29464 0.10089 0.66938 0.0
C799 C 0.27549 0.06278 0.69604 0.0
C800 C 0.33435 0.1293 0.67368 0.0
C801 C 0.36698 0.13086 0.66734 0.0
C802 C 0.36045 0.10415 0.65654 0.0
C803 C 0.32049 0.07589 0.65218 0.0
C804 C 0.28782 0.07455 0.65848 0.0
H805 H 0.26083 0.04485 0.70501 0.0
H806 H 0.2791 0.04318 0.68863 0.0
H807 H 0.30615 0.08758 0.69926 0.0
H808 H 0.34007 0.14975 0.68212 0.0
H809 H 0.39741 0.15239 0.67107 0.0
H810 H 0.10916 0.23983 0.04382 0.0
H811 H 0.16222 0.2851 0.02917 0.0
H812 H 0.22092 0.21496 0.03405 0.0
H813 H 0.16785 0.16925 0.04889 0.0
H814 H 0.25799 0.32808 0.03437 0.0
H815 H 0.18554 0.21617 0.99158 0.0
H816 H 0.15641 0.21609 0.00548 0.0
H817 H 0.19269 0.20008 0.00801 0.0
C818 C 0.13356 0.23419 0.04195 0.0
C819 C 0.1341 0.20073 0.04746 0.0
C820 C 0.16393 0.26022 0.03362 0.0
C821 C 0.19523 0.25317 0.03055 0.0
C822 C 0.19689 0.22077 0.03637 0.0
H823 H 0.3338 0.36881 0.95966 0.0
H824 H 0.31198 0.32649 0.97955 0.0
C825 C 0.16662 0.1948 0.04484 0.0
C826 C 0.22393 0.27814 0.02037 0.0
H827 H 0.23615 0.28148 0.98647 0.0
C828 C 0.25387 0.3178 0.02393 0.0
C829 C 0.21851 0.26438 0.00683 0.0
C830 C 0.18658 0.22189 0.00262 0.0
C831 C 0.27759 0.34472 0.01411 0.0
C832 C 0.27017 0.33183 0.00038 0.0
C833 C 0.24173 0.29142 0.99698 0.0
C834 C 0.28835 0.36038 0.98926 0.0
C835 C 0.30988 0.38683 0.01853 0.0
C836 C 0.28249 0.39356 0.98813 0.0
C837 C 0.29516 0.41785 0.97686 0.0
C838 C 0.31356 0.40917 0.9664 0.0
C839 C 0.32002 0.37636 0.96763 0.0
C840 C 0.30756 0.35219 0.97897 0.0
H841 H 0.32181 0.38727 0.02895 0.0
H842 H 0.33544 0.39943 0.01166 0.0
H843 H 0.29663 0.40671 0.01853 0.0
H844 H 0.26661 0.39976 0.99571 0.0
H845 H 0.28935 0.44263 0.97608 0.0
H846 H 0.03637 0.23251 0.39934 0.0
H847 H 0.0401 0.27485 0.38048 0.0
H848 H 0.02152 0.18057 0.35235 0.0
H849 H 0.01713 0.1375 0.37122 0.0
H850 H 0.09806 0.26658 0.35152 0.0
H851 H 0.94938 0.25965 0.34968 0.0
H852 H 0.97271 0.26301 0.36613 0.0
H853 H 0.95571 0.21864 0.35569 0.0
C854 C 0.03238 0.22047 0.38915 0.0
C855 C 0.02665 0.18177 0.38674 0.0
C856 C 0.03434 0.24462 0.37841 0.0
C857 C 0.03093 0.23064 0.3651 0.0
C858 C 0.02391 0.1916 0.3626 0.0
H859 H 0.04788 0.37739 0.29566 0.0
H860 H 0.02895 0.31976 0.3103 0.0
C861 C 0.02133 0.16709 0.37337 0.0
C862 C 0.03895 0.25864 0.35397 0.0
H863 H 0.00179 0.31178 0.33751 0.0
C864 C 0.07687 0.27611 0.34828 0.0
C865 C 0.01112 0.27077 0.34985 0.0
C866 C 0.96976 0.25197 0.35555 0.0
C867 C 0.08835 0.30675 0.33888 0.0
C868 C 0.06122 0.32025 0.3352 0.0
C869 C 0.02259 0.3015 0.34046 0.0
C870 C 0.073 0.35484 0.32631 0.0
C871 C 0.1296 0.32485 0.3331 0.0
C872 C 0.10387 0.39351 0.33054 0.0
C873 C 0.11459 0.42642 0.32226 0.0
C874 C 0.09429 0.42123 0.30967 0.0
C875 C 0.06361 0.3823 0.30541 0.0
C876 C 0.05284 0.34943 0.31372 0.0
H877 H 0.14241 0.30466 0.33425 0.0
H878 H 0.12832 0.33123 0.32224 0.0
H879 H 0.15048 0.35378 0.33854 0.0
H880 H 0.11944 0.39827 0.34031 0.0
H881 H 0.13857 0.45599 0.32573 0.0
loop_
_geom_bond_atom_site_label_1
_geom_bond_atom_site_label_2
_geom_bond_distance
_geom_bond_site_symmetry_2
_ccdc_geom_bond_type
Mn0 O5 2.095 . S
Mn0 O15 2.162 . S
Mn0 O16 2.297 . S
Mn0 O24 2.385 . S
Mn0 O25 2.209 . S
Mn0 O26 2.094 . S
Mn1 O6 2.121 . S
Mn1 N8 2.257 1_455 S
Mn1 N17 2.282 . S
Mn1 O25 2.215 . S
Mn1 O27 2.117 . S
C2 O24 1.234 . S
C2 O25 1.283 . S
C3 O15 1.281 . S
C3 O16 1.236 . S
C4 O26 1.240 . S
C4 O27 1.264 . S
O5 Mn0 2.095 . S
O5 C14 1.250 . S
O6 Mn1 2.121 . S
O6 C14 1.258 . S
C7 N8 1.326 . S
C7 C11 1.460 . S
C7 H13 0.929 . S
N8 Mn1 2.257 1_655 S
N8 C7 1.326 . S
N8 C12 1.362 . S
C9 C10 1.258 . S
C9 C12 1.431 . S
C9 C29 1.449 . S
C10 C9 1.258 . S
C10 C11 1.477 . S
C10 H30 0.931 . S
C11 C7 1.460 . S
C11 C10 1.477 . S
C11 H31 0.930 . S
C12 N8 1.362 . S
C12 C9 1.431 . S
C12 C22 1.476 . S
H13 C7 0.929 . S
C14 O5 1.250 . S
C14 O6 1.258 . S
O15 Mn0 2.162 . S
O15 C3 1.281 . S
O16 Mn0 2.297 . S
O16 C3 1.236 . S
N17 Mn1 2.282 . S
N17 C18 1.328 . S
N17 C22 1.318 1_455 S
C18 N17 1.328 . S
C18 C19 1.457 . S
C18 H23 0.929 . S
C19 C18 1.457 . S
C19 C20 1.291 1_455 S
C19 H32 0.931 . S
C20 C19 1.291 1_655 S
C20 C21 1.373 . S
C20 H33 0.929 . S
C21 C20 1.373 . S
C21 C22 1.396 . S
C21 C28 1.403 . S
C22 C12 1.476 . S
C22 N17 1.318 1_655 S
C22 C21 1.396 . S
H23 C18 0.929 . S
O24 Mn0 2.385 . S
O24 C2 1.234 . S
O25 Mn0 2.209 . S
O25 Mn1 2.215 . S
O25 C2 1.283 . S
O26 Mn0 2.094 . S
O26 C4 1.240 . S
O27 Mn1 2.117 . S
O27 C4 1.264 . S
C28 C21 1.403 . S
C28 C29 1.399 . S
C28 H34 0.929 . S
C29 C9 1.449 . S
C29 C28 1.399 . S
C29 H35 0.930 . S
H30 C10 0.931 . S
H31 C11 0.930 . S
H32 C19 0.931 . S
H33 C20 0.929 . S
H34 C28 0.929 . S
H35 C29 0.930 . S
Mn36 O41 2.095 . S
Mn36 O51 2.162 1_455 S
Mn36 O52 2.297 . S
Mn36 O60 2.385 . S
Mn36 O61 2.209 . S
Mn36 O62 2.094 1_455 S
Mn37 O42 2.121 . S
Mn37 N44 2.257 . S
Mn37 N53 2.282 . S
Mn37 O61 2.215 . S
Mn37 O63 2.117 . S
C38 O60 1.234 . S
C38 O61 1.283 . S
C39 O51 1.281 1_455 S
C39 O52 1.236 . S
C40 O62 1.240 . S
C40 O63 1.264 1_655 S
O41 Mn36 2.095 . S
O41 C50 1.250 . S
O42 Mn37 2.121 . S
O42 C50 1.258 . S
C43 N44 1.326 . S
C43 C47 1.460 . S
C43 H49 0.929 . S
N44 Mn37 2.257 . S
N44 C43 1.326 . S
N44 C48 1.362 . S
C45 C46 1.258 . S
C45 C48 1.431 . S
C45 C65 1.449 . S
C46 C45 1.258 . S
C46 C47 1.477 . S
C46 H66 0.931 . S
C47 C43 1.460 . S
C47 C46 1.477 . S
C47 H67 0.930 . S
C48 N44 1.362 . S
C48 C45 1.431 . S
C48 C58 1.476 . S
H49 C43 0.929 . S
C50 O41 1.250 . S
C50 O42 1.258 . S
O51 Mn36 2.162 1_655 S
O51 C39 1.281 1_655 S
O52 Mn36 2.297 . S
O52 C39 1.236 . S
N53 Mn37 2.282 . S
N53 C54 1.328 . S
N53 C58 1.318 . S
C54 N53 1.328 . S
C54 C55 1.457 . S
C54 H59 0.929 . S
C55 C54 1.457 . S
C55 C56 1.291 . S
C55 H68 0.931 . S
C56 C55 1.291 . S
C56 C57 1.373 . S
C56 H69 0.929 . S
C57 C56 1.373 . S
C57 C58 1.396 . S
C57 C64 1.403 . S
C58 C48 1.476 . S
C58 N53 1.318 . S
C58 C57 1.396 . S
H59 C54 0.929 . S
O60 Mn36 2.385 . S
O60 C38 1.234 . S
O61 Mn36 2.209 . S
O61 Mn37 2.215 . S
O61 C38 1.283 . S
O62 Mn36 2.094 1_655 S
O62 C40 1.240 . S
O63 Mn37 2.117 . S
O63 C40 1.264 1_455 S
C64 C57 1.403 . S
C64 C65 1.399 . S
C64 H70 0.929 . S
C65 C45 1.449 . S
C65 C64 1.399 . S
C65 H71 0.930 . S
H66 C46 0.931 . S
H67 C47 0.930 . S
H68 C55 0.931 . S
H69 C56 0.929 . S
H70 C64 0.929 . S
H71 C65 0.930 . S
Mn72 O77 2.095 1_455 S
Mn72 O87 2.162 . S
Mn72 O88 2.297 . S
Mn72 O96 2.385 . S
Mn72 O97 2.209 . S
Mn72 O98 2.094 . S
Mn73 O78 2.121 . S
Mn73 N80 2.257 1_655 S
Mn73 N89 2.282 1_655 S
Mn73 O97 2.215 1_655 S
Mn73 O99 2.117 . S
C74 O96 1.234 . S
C74 O97 1.283 . S
C75 O87 1.281 . S
C75 O88 1.236 . S
C76 O98 1.240 1_655 S
C76 O99 1.264 . S
O77 Mn72 2.095 1_655 S
O77 C86 1.250 . S
O78 Mn73 2.121 . S
O78 C86 1.258 . S
C79 N80 1.326 . S
C79 C83 1.460 . S
C79 H85 0.929 . S
N80 Mn73 2.257 1_455 S
N80 C79 1.326 . S
N80 C84 1.362 . S
C81 C82 1.258 . S
C81 C84 1.431 . S
C81 C101 1.449 . S
C82 C81 1.258 . S
C82 C83 1.477 . S
C82 H102 0.931 . S
C83 C79 1.460 . S
C83 C82 1.477 . S
C83 H103 0.930 . S
C84 N80 1.362 . S
C84 C81 1.431 . S
C84 C94 1.476 . S
H85 C79 0.929 . S
C86 O77 1.250 . S
C86 O78 1.258 . S
O87 Mn72 2.162 . S
O87 C75 1.281 . S
O88 Mn72 2.297 . S
O88 C75 1.236 . S
N89 Mn73 2.282 1_455 S
N89 C90 1.328 . S
N89 C94 1.318 . S
C90 N89 1.328 . S
C90 C91 1.457 . S
C90 H95 0.929 . S
C91 C90 1.457 . S
C91 C92 1.291 . S
C91 H104 0.931 . S
C92 C91 1.291 . S
C92 C93 1.373 . S
C92 H105 0.929 . S
C93 C92 1.373 . S
C93 C94 1.396 . S
C93 C100 1.403 . S
C94 C84 1.476 . S
C94 N89 1.318 . S
C94 C93 1.396 . S
H95 C90 0.929 . S
O96 Mn72 2.385 . S
O96 C74 1.234 . S
O97 Mn72 2.209 . S
O97 Mn73 2.215 1_455 S
O97 C74 1.283 . S
O98 Mn72 2.094 . S
O98 C76 1.240 1_455 S
O99 Mn73 2.117 . S
O99 C76 1.264 . S
C100 C93 1.403 . S
C100 C101 1.399 . S
C100 H106 0.929 . S
C101 C81 1.449 . S
C101 C100 1.399 . S
C101 H107 0.930 . S
H102 C82 0.931 . S
H103 C83 0.930 . S
H104 C91 0.931 . S
H105 C92 0.929 . S
H106 C100 0.929 . S
H107 C101 0.930 . S
C108 C109 1.560 1_655 S
C108 H169 0.959 . S
C108 H170 0.959 . S
C108 H171 0.960 . S
C109 C108 1.560 1_455 S
C109 O164 1.426 1_455 S
C109 H168 0.980 . S
C110 C111 1.407 . S
C110 C115 1.418 1_455 S
C110 O164 1.334 1_455 S
C111 C110 1.407 . S
C111 C112 1.360 . S
C111 H172 0.929 . S
C112 C111 1.360 . S
C112 C113 1.401 . S
C112 C116 1.527 . S
C113 C112 1.401 . S
C113 C114 1.405 1_455 S
C113 C146 1.587 . S
C114 C113 1.405 1_655 S
C114 C115 1.332 . S
C114 C117 1.496 . S
C115 C110 1.418 1_655 S
C115 C114 1.332 . S
C115 H173 0.929 . S
C116 C112 1.527 . S
C116 H174 0.959 . S
C116 H175 0.961 . S
C116 H176 0.961 . S
C117 C114 1.496 . S
C117 H177 0.960 . S
C117 H178 0.960 . S
C117 H179 0.961 . S
C118 C119 1.517 . S
C118 H181 0.961 . S
C118 H182 0.960 . S
C118 H183 0.959 . S
C119 C118 1.517 . S
C119 O167 1.468 . S
C119 H180 0.980 . S
C120 C121 1.349 . S
C120 C125 1.367 . S
C120 O167 1.408 . S
C121 C120 1.349 . S
C121 C122 1.407 . S
C121 H184 0.930 . S
C122 C121 1.407 . S
C122 C123 1.449 . S
C122 C126 1.535 1_455 S
C123 C122 1.449 . S
C123 C124 1.384 . S
C123 C148 1.553 . S
C124 C123 1.384 . S
C124 C125 1.364 . S
C124 C127 1.450 . S
C125 C120 1.367 . S
C125 C124 1.364 . S
C125 H185 0.931 . S
C126 C122 1.535 1_655 S
C126 H186 0.965 1_655 S
C126 H187 0.961 . S
C126 H188 0.959 . S
C127 C124 1.450 . S
C127 H189 0.960 . S
C127 H190 0.960 . S
C127 H191 0.960 . S
C128 C129 1.309 . S
C128 C133 1.304 . S
C128 O166 1.435 . S
C129 C128 1.309 . S
C129 C130 1.476 . S
C129 H193 0.930 . S
C130 C129 1.476 . S
C130 C131 1.400 . S
C130 C134 1.567 1_455 S
C131 C130 1.400 . S
C131 C132 1.373 . S
C131 C153 1.432 . S
C132 C131 1.373 . S
C132 C133 1.339 . S
C132 C135 1.530 . S
C133 C128 1.304 . S
C133 C132 1.339 . S
C133 H194 0.930 . S
C134 C130 1.567 1_655 S
C134 H195 0.961 . S
C134 H196 0.960 . S
C134 H197 0.958 . S
C135 C132 1.530 . S
C135 H198 0.961 . S
C135 H199 0.960 . S
C135 H200 0.960 . S
C136 C137 1.530 . S
C136 H202 0.961 . S
C136 H203 0.961 1_455 S
C136 H204 0.959 1_455 S
C137 C136 1.530 . S
C137 O165 1.412 . S
C137 H201 0.980 . S
C138 C139 1.288 1_455 S
C138 C143 1.377 . S
C138 O165 1.393 . S
C139 C138 1.288 1_655 S
C139 C140 1.369 1_655 S
C139 H205 0.932 . S
C140 C139 1.369 1_455 S
C140 C141 1.398 . S
C140 C144 1.527 1_455 S
C141 C140 1.398 . S
C141 C142 1.380 . S
C141 C155 1.497 . S
C142 C141 1.380 . S
C142 C143 1.383 . S
C142 C145 1.603 . S
C143 C138 1.377 . S
C143 C142 1.383 . S
C143 H206 0.929 . S
C144 C140 1.527 1_655 S
C144 H207 0.961 . S
C144 H208 0.959 . S
C144 H209 0.959 . S
C145 C142 1.603 . S
C145 H210 0.960 . S
C145 H211 0.962 . S
C145 H212 0.961 . S
C146 C113 1.587 . S
C146 C147 1.360 . S
C146 C159 1.412 . S
C147 C146 1.360 . S
C147 C148 1.365 . S
C147 H213 0.929 . S
C148 C123 1.553 . S
C148 C147 1.365 . S
C148 C149 1.404 . S
C149 C148 1.404 . S
C149 C150 1.395 . S
C149 C160 1.451 . S
C150 C149 1.395 . S
C150 C151 1.322 . S
C150 H214 0.930 . S
C151 C150 1.322 . S
C151 C152 1.459 . S
C151 H215 0.929 . S
C152 C151 1.459 . S
C152 C153 1.445 . S
C152 C161 1.395 . S
C153 C131 1.432 . S
C153 C152 1.445 . S
C153 C154 1.370 . S
C154 C153 1.370 . S
C154 C155 1.438 . S
C154 H216 0.930 . S
C155 C141 1.497 . S
C155 C154 1.438 . S
C155 C156 1.360 . S
C156 C155 1.360 . S
C156 C157 1.401 . S
C156 C161 1.446 . S
C157 C156 1.401 . S
C157 C158 1.347 . S
C157 H217 0.929 . S
C158 C157 1.347 . S
C158 C159 1.455 . S
C158 H218 0.930 . S
C159 C146 1.412 . S
C159 C158 1.455 . S
C159 C160 1.331 . S
C160 C149 1.451 . S
C160 C159 1.331 . S
C160 C161 1.497 . S
C161 C152 1.395 . S
C161 C156 1.446 . S
C161 C160 1.497 . S
C162 C163 1.582 . S
C162 H219 0.962 . S
C162 H220 0.959 . S
C162 H221 0.958 . S
C163 C162 1.582 . S
C163 O166 1.458 . S
C163 H192 0.980 . S
O164 C109 1.426 1_655 S
O164 C110 1.334 1_655 S
O165 C137 1.412 . S
O165 C138 1.393 . S
O166 C128 1.435 . S
O166 C163 1.458 . S
O167 C119 1.468 . S
O167 C120 1.408 . S
H168 C109 0.980 . S
H169 C108 0.959 . S
H170 C108 0.959 . S
H171 C108 0.960 . S
H172 C111 0.929 . S
H173 C115 0.929 . S
H174 C116 0.959 . S
H175 C116 0.961 . S
H176 C116 0.961 . S
H177 C117 0.960 . S
H178 C117 0.960 . S
H179 C117 0.961 . S
H180 C119 0.980 . S
H181 C118 0.961 . S
H182 C118 0.960 . S
H183 C118 0.959 . S
H184 C121 0.930 . S
H185 C125 0.931 . S
H186 C126 0.965 1_455 S
H187 C126 0.961 . S
H188 C126 0.959 . S
H189 C127 0.960 . S
H190 C127 0.960 . S
H191 C127 0.960 . S
H192 C163 0.980 . S
H193 C129 0.930 . S
H194 C133 0.930 . S
H195 C134 0.961 . S
H196 C134 0.960 . S
H197 C134 0.958 . S
H198 C135 0.961 . S
H199 C135 0.960 . S
H200 C135 0.960 . S
H201 C137 0.980 . S
H202 C136 0.961 . S
H203 C136 0.961 1_655 S
H204 C136 0.959 1_655 S
H205 C139 0.932 . S
H206 C143 0.929 . S
H207 C144 0.961 . S
H208 C144 0.959 . S
H209 C144 0.959 . S
H210 C145 0.960 . S
H211 C145 0.962 . S
H212 C145 0.961 . S
H213 C147 0.929 . S
H214 C150 0.930 . S
H215 C151 0.929 . S
H216 C154 0.930 . S
H217 C157 0.929 . S
H218 C158 0.930 . S
H219 C162 0.962 . S
H220 C162 0.959 . S
H221 C162 0.958 . S
C222 C223 1.560 . S
C222 H283 0.959 . S
C222 H284 0.959 . S
C222 H285 0.960 . S
C223 C222 1.560 . S
C223 O278 1.426 . S
C223 H282 0.980 . S
C224 C225 1.407 . S
C224 C229 1.418 . S
C224 O278 1.334 . S
C225 C224 1.407 . S
C225 C226 1.360 . S
C225 H286 0.929 . S
C226 C225 1.360 . S
C226 C227 1.401 . S
C226 C230 1.527 . S
C227 C226 1.401 . S
C227 C228 1.405 . S
C227 C260 1.587 . S
C228 C227 1.405 . S
C228 C229 1.332 . S
C228 C231 1.496 . S
C229 C224 1.418 . S
C229 C228 1.332 . S
C229 H287 0.929 . S
C230 C226 1.527 . S
C230 H288 0.959 . S
C230 H289 0.961 . S
C230 H290 0.961 . S
C231 C228 1.496 . S
C231 H291 0.960 . S
C231 H292 0.960 . S
C231 H293 0.961 . S
C232 C233 1.517 . S
C232 H295 0.961 . S
C232 H296 0.960 . S
C232 H297 0.959 . S
C233 C232 1.517 . S
C233 O281 1.468 . S
C233 H294 0.980 . S
C234 C235 1.349 . S
C234 C239 1.367 . S
C234 O281 1.408 . S
C235 C234 1.349 . S
C235 C236 1.407 . S
C235 H298 0.930 . S
C236 C235 1.407 . S
C236 C237 1.449 . S
C236 C240 1.535 . S
C237 C236 1.449 . S
C237 C238 1.384 . S
C237 C262 1.553 . S
C238 C237 1.384 . S
C238 C239 1.364 . S
C238 C241 1.450 . S
C239 C234 1.367 . S
C239 C238 1.364 . S
C239 H299 0.931 . S
C240 C236 1.535 . S
C240 H300 0.959 . S
C240 H301 0.961 . S
C240 H302 0.959 . S
C241 C238 1.450 . S
C241 H303 0.960 . S
C241 H304 0.960 . S
C241 H305 0.960 . S
C242 C243 1.309 . S
C242 C247 1.304 . S
C242 O280 1.435 . S
C243 C242 1.309 . S
C243 C244 1.476 . S
C243 H307 0.930 . S
C244 C243 1.476 . S
C244 C245 1.400 . S
C244 C248 1.567 . S
C245 C244 1.400 . S
C245 C246 1.373 . S
C245 C267 1.432 . S
C246 C245 1.373 . S
C246 C247 1.339 . S
C246 C249 1.530 . S
C247 C242 1.304 . S
C247 C246 1.339 . S
C247 H308 0.930 . S
C248 C244 1.567 . S
C248 H309 0.961 . S
C248 H310 0.960 . S
C248 H311 0.958 . S
C249 C246 1.530 . S
C249 H312 0.961 . S
C249 H313 0.960 . S
C249 H314 0.960 . S
C250 C251 1.530 . S
C250 H316 0.961 . S
C250 H317 0.961 . S
C250 H318 0.959 . S
C251 C250 1.530 . S
C251 O279 1.412 . S
C251 H315 0.980 . S
C252 C253 1.288 . S
C252 C257 1.377 . S
C252 O279 1.393 . S
C253 C252 1.288 . S
C253 C254 1.369 . S
C253 H319 0.932 . S
C254 C253 1.369 . S
C254 C255 1.398 . S
C254 C258 1.527 . S
C255 C254 1.398 . S
C255 C256 1.380 . S
C255 C269 1.497 . S
C256 C255 1.380 . S
C256 C257 1.383 . S
C256 C259 1.603 . S
C257 C252 1.377 . S
C257 C256 1.383 . S
C257 H320 0.929 . S
C258 C254 1.527 . S
C258 H321 0.961 . S
C258 H322 0.959 . S
C258 H323 0.959 . S
C259 C256 1.603 . S
C259 H324 0.960 . S
C259 H325 0.962 . S
C259 H326 0.961 . S
C260 C227 1.587 . S
C260 C261 1.360 . S
C260 C273 1.412 . S
C261 C260 1.360 . S
C261 C262 1.365 . S
C261 H327 0.929 . S
C262 C237 1.553 . S
C262 C261 1.365 . S
C262 C263 1.404 . S
C263 C262 1.404 . S
C263 C264 1.395 . S
C263 C274 1.451 . S
C264 C263 1.395 . S
C264 C265 1.322 . S
C264 H328 0.930 . S
C265 C264 1.322 . S
C265 C266 1.459 . S
C265 H329 0.929 . S
C266 C265 1.459 . S
C266 C267 1.445 . S
C266 C275 1.395 . S
C267 C245 1.432 . S
C267 C266 1.445 . S
C267 C268 1.370 . S
C268 C267 1.370 . S
C268 C269 1.438 . S
C268 H330 0.930 . S
C269 C255 1.497 . S
C269 C268 1.438 . S
C269 C270 1.360 . S
C270 C269 1.360 . S
C270 C271 1.401 . S
C270 C275 1.446 . S
C271 C270 1.401 . S
C271 C272 1.347 . S
C271 H331 0.929 . S
C272 C271 1.347 . S
C272 C273 1.455 . S
C272 H332 0.930 . S
C273 C260 1.412 . S
C273 C272 1.455 . S
C273 C274 1.331 . S
C274 C263 1.451 . S
C274 C273 1.331 . S
C274 C275 1.497 . S
C275 C266 1.395 . S
C275 C270 1.446 . S
C275 C274 1.497 . S
C276 C277 1.582 . S
C276 H333 0.962 . S
C276 H334 0.959 . S
C276 H335 0.958 . S
C277 C276 1.582 . S
C277 O280 1.458 . S
C277 H306 0.980 . S
O278 C223 1.426 . S
O278 C224 1.334 . S
O279 C251 1.412 . S
O279 C252 1.393 . S
O280 C242 1.435 . S
O280 C277 1.458 . S
O281 C233 1.468 . S
O281 C234 1.408 . S
H282 C223 0.980 . S
H283 C222 0.959 . S
H284 C222 0.959 . S
H285 C222 0.960 . S
H286 C225 0.929 . S
H287 C229 0.929 . S
H288 C230 0.959 . S
H289 C230 0.961 . S
H290 C230 0.961 . S
H291 C231 0.960 . S
H292 C231 0.960 . S
H293 C231 0.961 . S
H294 C233 0.980 . S
H295 C232 0.961 . S
H296 C232 0.960 . S
H297 C232 0.959 . S
H298 C235 0.930 . S
H299 C239 0.931 . S
H300 C240 0.959 . S
H301 C240 0.961 . S
H302 C240 0.959 . S
H303 C241 0.960 . S
H304 C241 0.960 . S
H305 C241 0.960 . S
H306 C277 0.980 . S
H307 C243 0.930 . S
H308 C247 0.930 . S
H309 C248 0.961 . S
H310 C248 0.960 . S
H311 C248 0.958 . S
H312 C249 0.961 . S
H313 C249 0.960 . S
H314 C249 0.960 . S
H315 C251 0.980 . S
H316 C250 0.961 . S
H317 C250 0.961 . S
H318 C250 0.959 . S
H319 C253 0.932 . S
H320 C257 0.929 . S
H321 C258 0.961 . S
H322 C258 0.959 . S
H323 C258 0.959 . S
H324 C259 0.960 . S
H325 C259 0.962 . S
H326 C259 0.961 . S
H327 C261 0.929 . S
H328 C264 0.930 . S
H329 C265 0.929 . S
H330 C268 0.930 . S
H331 C271 0.929 . S
H332 C272 0.930 . S
H333 C276 0.962 . S
H334 C276 0.959 . S
H335 C276 0.958 . S
C336 C337 1.560 . S
C336 H397 0.959 . S
C336 H398 0.959 . S
C336 H399 0.960 . S
C337 C336 1.560 . S
C337 O392 1.426 . S
C337 H396 0.980 . S
C338 C339 1.407 . S
C338 C343 1.418 . S
C338 O392 1.334 . S
C339 C338 1.407 . S
C339 C340 1.360 . S
C339 H400 0.929 . S
C340 C339 1.360 . S
C340 C341 1.401 . S
C340 C344 1.527 . S
C341 C340 1.401 . S
C341 C342 1.405 . S
C341 C374 1.587 . S
C342 C341 1.405 . S
C342 C343 1.332 . S
C342 C345 1.496 . S
C343 C338 1.418 . S
C343 C342 1.332 . S
C343 H401 0.929 . S
C344 C340 1.527 . S
C344 H402 0.959 . S
C344 H403 0.961 . S
C344 H404 0.961 . S
C345 C342 1.496 . S
C345 H405 0.960 . S
C345 H406 0.960 . S
C345 H407 0.961 . S
C346 C347 1.517 . S
C346 H409 0.961 . S
C346 H410 0.960 . S
C346 H411 0.959 . S
C347 C346 1.517 . S
C347 O395 1.468 . S
C347 H408 0.980 . S
C348 C349 1.349 . S
C348 C353 1.367 . S
C348 O395 1.408 . S
C349 C348 1.349 . S
C349 C350 1.407 . S
C349 H412 0.930 . S
C350 C349 1.407 . S
C350 C351 1.449 . S
C350 C354 1.535 . S
C351 C350 1.449 . S
C351 C352 1.384 . S
C351 C376 1.553 . S
C352 C351 1.384 . S
C352 C353 1.364 . S
C352 C355 1.450 . S
C353 C348 1.367 . S
C353 C352 1.364 . S
C353 H413 0.931 . S
C354 C350 1.535 . S
C354 H414 0.959 . S
C354 H415 0.961 . S
C354 H416 0.959 . S
C355 C352 1.450 . S
C355 H417 0.960 . S
C355 H418 0.960 . S
C355 H419 0.960 . S
C356 C357 1.309 . S
C356 C361 1.304 . S
C356 O394 1.435 . S
C357 C356 1.309 . S
C357 C358 1.476 . S
C357 H421 0.930 . S
C358 C357 1.476 . S
C358 C359 1.400 . S
C358 C362 1.567 . S
C359 C358 1.400 . S
C359 C360 1.373 . S
C359 C381 1.432 . S
C360 C359 1.373 . S
C360 C361 1.339 . S
C360 C363 1.530 . S
C361 C356 1.304 . S
C361 C360 1.339 . S
C361 H422 0.930 . S
C362 C358 1.567 . S
C362 H423 0.961 . S
C362 H424 0.960 . S
C362 H425 0.958 . S
C363 C360 1.530 . S
C363 H426 0.961 . S
C363 H427 0.960 . S
C363 H428 0.960 . S
C364 C365 1.530 . S
C364 H430 0.961 . S
C364 H431 0.961 . S
C364 H432 0.959 . S
C365 C364 1.530 . S
C365 O393 1.412 . S
C365 H429 0.980 . S
C366 C367 1.288 . S
C366 C371 1.377 . S
C366 O393 1.393 . S
C367 C366 1.288 . S
C367 C368 1.369 . S
C367 H433 0.932 . S
C368 C367 1.369 . S
C368 C369 1.398 . S
C368 C372 1.527 . S
C369 C368 1.398 . S
C369 C370 1.380 . S
C369 C383 1.497 . S
C370 C369 1.380 . S
C370 C371 1.383 . S
C370 C373 1.603 . S
C371 C366 1.377 . S
C371 C370 1.383 . S
C371 H434 0.929 . S
C372 C368 1.527 . S
C372 H435 0.961 . S
C372 H436 0.959 . S
C372 H437 0.959 . S
C373 C370 1.603 . S
C373 H438 0.960 . S
C373 H439 0.962 . S
C373 H440 0.961 . S
C374 C341 1.587 . S
C374 C375 1.360 . S
C374 C387 1.412 . S
C375 C374 1.360 . S
C375 C376 1.365 . S
C375 H441 0.929 . S
C376 C351 1.553 . S
C376 C375 1.365 . S
C376 C377 1.404 . S
C377 C376 1.404 . S
C377 C378 1.395 . S
C377 C388 1.451 . S
C378 C377 1.395 . S
C378 C379 1.322 . S
C378 H442 0.930 . S
C379 C378 1.322 . S
C379 C380 1.459 . S
C379 H443 0.929 . S
C380 C379 1.459 . S
C380 C381 1.445 . S
C380 C389 1.395 . S
C381 C359 1.432 . S
C381 C380 1.445 . S
C381 C382 1.370 . S
C382 C381 1.370 . S
C382 C383 1.438 . S
C382 H444 0.930 . S
C383 C369 1.497 . S
C383 C382 1.438 . S
C383 C384 1.360 . S
C384 C383 1.360 . S
C384 C385 1.401 . S
C384 C389 1.446 . S
C385 C384 1.401 . S
C385 C386 1.347 . S
C385 H445 0.929 . S
C386 C385 1.347 . S
C386 C387 1.455 . S
C386 H446 0.930 . S
C387 C374 1.412 . S
C387 C386 1.455 . S
C387 C388 1.331 . S
C388 C377 1.451 . S
C388 C387 1.331 . S
C388 C389 1.497 . S
C389 C380 1.395 . S
C389 C384 1.446 . S
C389 C388 1.497 . S
C390 C391 1.582 . S
C390 H447 0.962 . S
C390 H448 0.959 . S
C390 H449 0.958 . S
C391 C390 1.582 . S
C391 O394 1.458 . S
C391 H420 0.980 . S
O392 C337 1.426 . S
O392 C338 1.334 . S
O393 C365 1.412 . S
O393 C366 1.393 . S
O394 C356 1.435 . S
O394 C391 1.458 . S
O395 C347 1.468 . S
O395 C348 1.408 . S
H396 C337 0.980 . S
H397 C336 0.959 . S
H398 C336 0.959 . S
H399 C336 0.960 . S
H400 C339 0.929 . S
H401 C343 0.929 . S
H402 C344 0.959 . S
H403 C344 0.961 . S
H404 C344 0.961 . S
H405 C345 0.960 . S
H406 C345 0.960 . S
H407 C345 0.961 . S
H408 C347 0.980 . S
H409 C346 0.961 . S
H410 C346 0.960 . S
H411 C346 0.959 . S
H412 C349 0.930 . S
H413 C353 0.931 . S
H414 C354 0.959 . S
H415 C354 0.961 . S
H416 C354 0.959 . S
H417 C355 0.960 . S
H418 C355 0.960 . S
H419 C355 0.960 . S
H420 C391 0.980 . S
H421 C357 0.930 . S
H422 C361 0.930 . S
H423 C362 0.961 . S
H424 C362 0.960 . S
H425 C362 0.958 . S
H426 C363 0.961 . S
H427 C363 0.960 . S
H428 C363 0.960 . S
H429 C365 0.980 . S
H430 C364 0.961 . S
H431 C364 0.961 . S
H432 C364 0.959 . S
H433 C367 0.932 . S
H434 C371 0.929 . S
H435 C372 0.961 . S
H436 C372 0.959 . S
H437 C372 0.959 . S
H438 C373 0.960 . S
H439 C373 0.962 . S
H440 C373 0.961 . S
H441 C375 0.929 . S
H442 C378 0.930 . S
H443 C379 0.929 . S
H444 C382 0.930 . S
H445 C385 0.929 . S
H446 C386 0.930 . S
H447 C390 0.962 . S
H448 C390 0.959 . S
H449 C390 0.958 . S
H450 C458 0.929 1_655 S
H451 C460 0.930 1_655 S
H452 C462 0.930 . S
H453 C465 0.929 . S
H454 C468 0.930 . S
H455 C470 0.960 . S
H456 C470 0.960 . S
H457 C470 0.960 . S
C458 H450 0.929 1_455 S
C458 C459 1.377 . S
C458 C460 1.384 . S
C459 C458 1.377 . S
C459 C465 1.390 . S
C460 H451 0.930 1_455 S
C460 C458 1.384 . S
C460 C461 1.372 . S
C461 C460 1.372 . S
C461 C462 1.400 . S
C461 C466 1.490 . S
C462 H452 0.930 . S
C462 C461 1.400 . S
C462 C465 1.386 . S
H463 C479 0.930 . S
H464 C480 0.931 . S
C465 H453 0.929 . S
C465 C459 1.390 . S
C465 C462 1.386 . S
C466 C461 1.490 . S
C466 C468 1.395 . S
C466 C469 1.403 . S
H467 C473 0.930 . S
C468 H454 0.930 . S
C468 C466 1.395 . S
C468 C471 1.403 . S
C469 C466 1.403 . S
C469 C470 1.524 . S
C469 C473 1.400 . S
C470 H455 0.960 . S
C470 H456 0.960 . S
C470 H457 0.960 . S
C470 C469 1.524 . S
C471 C468 1.403 . S
C471 C472 1.392 . S
C471 C475 1.495 . S
C472 C471 1.392 . S
C472 C473 1.385 . S
C472 C474 1.478 . S
C473 H467 0.930 . S
C473 C469 1.400 . S
C473 C472 1.385 . S
C474 C472 1.478 . S
C474 C476 1.381 . S
C474 C480 1.383 . S
C475 C471 1.495 . S
C475 H481 0.959 . S
C475 H482 0.961 . S
C475 H483 0.960 1_455 S
C476 C474 1.381 . S
C476 C477 1.394 . S
C476 H484 0.930 1_455 S
C477 C476 1.394 . S
C477 C478 1.383 . S
C477 H485 0.929 1_455 S
C478 C477 1.383 . S
C478 C479 1.377 . S
C479 H463 0.930 . S
C479 C478 1.377 . S
C479 C480 1.379 . S
C480 H464 0.931 . S
C480 C474 1.383 . S
C480 C479 1.379 . S
H481 C475 0.959 . S
H482 C475 0.961 . S
H483 C475 0.960 1_655 S
H484 C476 0.930 1_655 S
H485 C477 0.929 1_655 S
H486 C494 0.929 . S
H487 C496 0.930 . S
H488 C498 0.930 . S
H489 C501 0.929 . S
H490 C504 0.930 . S
H491 C506 0.960 . S
H492 C506 0.960 . S
H493 C506 0.960 . S
C494 H486 0.929 . S
C494 C495 1.377 . S
C494 C496 1.384 . S
C495 C494 1.377 . S
C495 C501 1.390 . S
C496 H487 0.930 . S
C496 C494 1.384 . S
C496 C497 1.372 . S
C497 C496 1.372 . S
C497 C498 1.400 . S
C497 C502 1.490 . S
C498 H488 0.930 . S
C498 C497 1.400 . S
C498 C501 1.386 . S
H499 C515 0.930 . S
H500 C516 0.931 . S
C501 H489 0.929 . S
C501 C495 1.390 . S
C501 C498 1.386 . S
C502 C497 1.490 . S
C502 C504 1.395 . S
C502 C505 1.403 . S
H503 C509 0.930 . S
C504 H490 0.930 . S
C504 C502 1.395 . S
C504 C507 1.403 . S
C505 C502 1.403 . S
C505 C506 1.524 . S
C505 C509 1.400 . S
C506 H491 0.960 . S
C506 H492 0.960 . S
C506 H493 0.960 . S
C506 C505 1.524 . S
C507 C504 1.403 . S
C507 C508 1.392 . S
C507 C511 1.495 . S
C508 C507 1.392 . S
C508 C509 1.385 . S
C508 C510 1.478 . S
C509 H503 0.930 . S
C509 C505 1.400 . S
C509 C508 1.385 . S
C510 C508 1.478 . S
C510 C512 1.381 . S
C510 C516 1.383 . S
C511 C507 1.495 . S
C511 H517 0.941 1_545 S
C511 H518 0.961 . S
C511 H519 0.960 . S
C512 C510 1.381 . S
C512 C513 1.394 . S
C512 H520 0.930 . S
C513 C512 1.394 . S
C513 C514 1.383 . S
C513 H521 0.929 . S
C514 C513 1.383 . S
C514 C515 1.377 . S
C515 H499 0.930 . S
C515 C514 1.377 . S
C515 C516 1.379 . S
C516 H500 0.931 . S
C516 C510 1.383 . S
C516 C515 1.379 . S
H517 C511 0.941 1_565 S
H518 C511 0.961 . S
H519 C511 0.960 . S
H520 C512 0.930 . S
H521 C513 0.929 . S
H522 C530 0.929 . S
H523 C532 0.930 . S
H524 C534 0.930 . S
H525 C537 0.929 . S
H526 C540 0.930 . S
H527 C542 0.960 . S
H528 C542 0.960 . S
H529 C542 0.960 . S
C530 H522 0.929 . S
C530 C531 1.377 1_565 S
C530 C532 1.384 . S
C531 C530 1.377 1_545 S
C531 C537 1.390 . S
C532 H523 0.930 . S
C532 C530 1.384 . S
C532 C533 1.372 . S
C533 C532 1.372 . S
C533 C534 1.400 . S
C533 C538 1.490 . S
C534 H524 0.930 . S
C534 C533 1.400 . S
C534 C537 1.386 1_565 S
H535 C551 0.930 . S
H536 C552 0.931 . S
C537 H525 0.929 . S
C537 C531 1.390 . S
C537 C534 1.386 1_545 S
C538 C533 1.490 . S
C538 C540 1.395 . S
C538 C541 1.403 . S
H539 C545 0.930 . S
C540 H526 0.930 . S
C540 C538 1.395 . S
C540 C543 1.403 . S
C541 C538 1.403 . S
C541 C542 1.524 . S
C541 C545 1.400 . S
C542 H527 0.960 . S
C542 H528 0.960 . S
C542 H529 0.960 . S
C542 C541 1.524 . S
C543 C540 1.403 . S
C543 C544 1.392 . S
C543 C547 1.495 . S
C544 C543 1.392 . S
C544 C545 1.385 . S
C544 C546 1.478 . S
C545 H539 0.930 . S
C545 C541 1.400 . S
C545 C544 1.385 . S
C546 C544 1.478 . S
C546 C548 1.381 . S
C546 C552 1.383 . S
C547 C543 1.495 . S
C547 H553 0.959 . S
C547 H554 0.961 . S
C547 H555 0.960 . S
C548 C546 1.381 . S
C548 C549 1.394 . S
C548 H556 0.930 . S
C549 C548 1.394 . S
C549 C550 1.383 . S
C549 H557 0.929 . S
C550 C549 1.383 . S
C550 C551 1.377 . S
C551 H535 0.930 . S
C551 C550 1.377 . S
C551 C552 1.379 . S
C552 H536 0.931 . S
C552 C546 1.383 . S
C552 C551 1.379 . S
H553 C547 0.959 . S
H554 C547 0.961 . S
H555 C547 0.960 . S
H556 C548 0.930 . S
H557 C549 0.929 . S
H558 C566 0.929 . S
H559 C568 0.930 . S
H560 C570 0.930 1_545 S
H561 C573 0.929 . S
H562 C576 0.930 . S
H563 C578 0.960 . S
H564 C578 0.960 . S
H565 C578 0.960 . S
C566 H558 0.929 . S
C566 C567 1.377 1_565 S
C566 C568 1.384 . S
C567 C566 1.377 1_545 S
C567 C573 1.390 . S
C568 H559 0.930 . S
C568 C566 1.384 . S
C568 C569 1.372 . S
C569 C568 1.372 . S
C569 C570 1.400 . S
C569 C574 1.490 . S
C570 H560 0.930 1_565 S
C570 C569 1.400 . S
C570 C573 1.386 1_565 S
H571 C587 0.930 . S
H572 C588 0.931 . S
C573 H561 0.929 . S
C573 C567 1.390 . S
C573 C570 1.386 1_545 S
C574 C569 1.490 . S
C574 C576 1.395 . S
C574 C577 1.403 . S
H575 C581 0.930 . S
C576 H562 0.930 . S
C576 C574 1.395 . S
C576 C579 1.403 . S
C577 C574 1.403 . S
C577 C578 1.524 . S
C577 C581 1.400 . S
C578 H563 0.960 . S
C578 H564 0.960 . S
C578 H565 0.960 . S
C578 C577 1.524 . S
C579 C576 1.403 . S
C579 C580 1.392 . S
C579 C583 1.495 . S
C580 C579 1.392 . S
C580 C581 1.385 . S
C580 C582 1.478 . S
C581 H575 0.930 . S
C581 C577 1.400 . S
C581 C580 1.385 . S
C582 C580 1.478 . S
C582 C584 1.381 . S
C582 C588 1.383 . S
C583 C579 1.495 . S
C583 H589 0.959 . S
C583 H590 0.961 . S
C583 H591 0.960 . S
C584 C582 1.381 . S
C584 C585 1.394 . S
C584 H592 0.930 . S
C585 C584 1.394 . S
C585 C586 1.383 . S
C585 H593 0.929 . S
C586 C585 1.383 . S
C586 C587 1.377 . S
C587 H571 0.930 . S
C587 C586 1.377 . S
C587 C588 1.379 . S
C588 H572 0.931 . S
C588 C582 1.383 . S
C588 C587 1.379 . S
H589 C583 0.959 . S
H590 C583 0.961 . S
H591 C583 0.960 . S
H592 C584 0.930 . S
H593 C585 0.929 . S
H594 C602 0.929 . S
H595 C604 0.930 . S
H596 C606 0.930 . S
H597 C609 0.929 . S
H598 C612 0.930 . S
H599 C614 0.960 . S
H600 C614 0.960 . S
H601 C614 0.960 . S
C602 H594 0.929 . S
C602 C603 1.377 . S
C602 C604 1.384 . S
C603 C602 1.377 . S
C603 C609 1.390 . S
C604 H595 0.930 . S
C604 C602 1.384 . S
C604 C605 1.372 . S
C605 C604 1.372 . S
C605 C606 1.400 . S
C605 C610 1.490 . S
C606 H596 0.930 . S
C606 C605 1.400 . S
C606 C609 1.386 . S
H607 C623 0.930 . S
H608 C624 0.931 . S
C609 H597 0.929 . S
C609 C603 1.390 . S
C609 C606 1.386 . S
C610 C605 1.490 . S
C610 C612 1.395 . S
C610 C613 1.403 . S
H611 C617 0.930 . S
C612 H598 0.930 . S
C612 C610 1.395 . S
C612 C615 1.403 . S
C613 C610 1.403 . S
C613 C614 1.524 . S
C613 C617 1.400 . S
C614 H599 0.960 . S
C614 H600 0.960 . S
C614 H601 0.960 . S
C614 C613 1.524 . S
C615 C612 1.403 . S
C615 C616 1.392 . S
C615 C619 1.495 . S
C616 C615 1.392 . S
C616 C617 1.385 . S
C616 C618 1.478 . S
C617 H611 0.930 . S
C617 C613 1.400 . S
C617 C616 1.385 . S
C618 C616 1.478 . S
C618 C620 1.381 . S
C618 C624 1.383 . S
C619 C615 1.495 . S
C619 H625 0.959 . S
C619 H626 0.961 . S
C619 H627 0.960 . S
C620 C618 1.381 . S
C620 C621 1.394 . S
C620 H628 0.930 . S
C621 C620 1.394 . S
C621 C622 1.383 . S
C621 H629 0.929 . S
C622 C621 1.383 . S
C622 C623 1.377 . S
C623 H607 0.930 . S
C623 C622 1.377 . S
C623 C624 1.379 . S
C624 H608 0.931 . S
C624 C618 1.383 . S
C624 C623 1.379 . S
H625 C619 0.959 . S
H626 C619 0.961 . S
H627 C619 0.960 . S
H628 C620 0.930 . S
H629 C621 0.929 . S
H630 C638 0.929 . S
H631 C640 0.930 . S
H632 C642 0.930 . S
H633 C645 0.929 . S
H634 C648 0.930 . S
H635 C650 0.960 . S
H636 C650 0.960 . S
H637 C650 0.960 . S
C638 H630 0.929 . S
C638 C639 1.377 . S
C638 C640 1.384 . S
C639 C638 1.377 . S
C639 C645 1.390 . S
C640 H631 0.930 . S
C640 C638 1.384 . S
C640 C641 1.372 . S
C641 C640 1.372 . S
C641 C642 1.400 . S
C641 C646 1.490 . S
C642 H632 0.930 . S
C642 C641 1.400 . S
C642 C645 1.386 . S
H643 C659 0.930 . S
H644 C660 0.931 . S
C645 H633 0.929 . S
C645 C639 1.390 . S
C645 C642 1.386 . S
C646 C641 1.490 . S
C646 C648 1.395 . S
C646 C649 1.403 . S
H647 C653 0.930 . S
C648 H634 0.930 . S
C648 C646 1.395 . S
C648 C651 1.403 . S
C649 C646 1.403 . S
C649 C650 1.524 . S
C649 C653 1.400 . S
C650 H635 0.960 . S
C650 H636 0.960 . S
C650 H637 0.960 . S
C650 C649 1.524 . S
C651 C648 1.403 . S
C651 C652 1.392 . S
C651 C655 1.495 . S
C652 C651 1.392 . S
C652 C653 1.385 . S
C652 C654 1.478 . S
C653 H647 0.930 . S
C653 C649 1.400 . S
C653 C652 1.385 . S
C654 C652 1.478 . S
C654 C656 1.381 . S
C654 C660 1.383 . S
C655 C651 1.495 . S
C655 H661 0.959 . S
C655 H662 0.961 . S
C655 H663 0.960 . S
C656 C654 1.381 . S
C656 C657 1.394 . S
C656 H664 0.930 . S
C657 C656 1.394 . S
C657 C658 1.383 . S
C657 H665 0.929 . S
C658 C657 1.383 . S
C658 C659 1.377 . S
C659 H643 0.930 . S
C659 C658 1.377 . S
C659 C660 1.379 . S
C660 H644 0.931 . S
C660 C654 1.383 . S
C660 C659 1.379 . S
H661 C655 0.959 . S
H662 C655 0.961 . S
H663 C655 0.960 . S
H664 C656 0.930 . S
H665 C657 0.929 . S
H666 C674 0.929 . S
H667 C676 0.930 . S
H668 C678 0.930 . S
H669 C681 0.929 . S
H670 C684 0.930 . S
H671 C686 0.960 . S
H672 C686 0.960 . S
H673 C686 0.960 . S
C674 H666 0.929 . S
C674 C675 1.377 . S
C674 C676 1.384 . S
C675 C674 1.377 . S
C675 C681 1.390 . S
C676 H667 0.930 . S
C676 C674 1.384 . S
C676 C677 1.372 . S
C677 C676 1.372 . S
C677 C678 1.400 . S
C677 C682 1.490 . S
C678 H668 0.930 . S
C678 C677 1.400 . S
C678 C681 1.386 . S
H679 C695 0.930 . S
H680 C696 0.931 . S
C681 H669 0.929 . S
C681 C675 1.390 . S
C681 C678 1.386 . S
C682 C677 1.490 . S
C682 C684 1.395 . S
C682 C685 1.403 . S
H683 C689 0.930 . S
C684 H670 0.930 . S
C684 C682 1.395 . S
C684 C687 1.403 . S
C685 C682 1.403 . S
C685 C686 1.524 . S
C685 C689 1.400 . S
C686 H671 0.960 . S
C686 H672 0.960 . S
C686 H673 0.960 . S
C686 C685 1.524 . S
C687 C684 1.403 . S
C687 C688 1.392 . S
C687 C691 1.495 . S
C688 C687 1.392 . S
C688 C689 1.385 . S
C688 C690 1.478 . S
C689 H683 0.930 . S
C689 C685 1.400 . S
C689 C688 1.385 . S
C690 C688 1.478 . S
C690 C692 1.381 . S
C690 C696 1.383 . S
C691 C687 1.495 . S
C691 H697 0.959 . S
C691 H698 0.961 . S
C691 H699 0.960 . S
C692 C690 1.381 . S
C692 C693 1.394 . S
C692 H700 0.930 . S
C693 C692 1.394 . S
C693 C694 1.383 . S
C693 H701 0.929 . S
C694 C693 1.383 . S
C694 C695 1.377 . S
C695 H679 0.930 . S
C695 C694 1.377 . S
C695 C696 1.379 . S
C696 H680 0.931 . S
C696 C690 1.383 . S
C696 C695 1.379 . S
H697 C691 0.959 . S
H698 C691 0.961 . S
H699 C691 0.960 . S
H700 C692 0.930 . S
H701 C693 0.929 . S
H702 C710 0.929 . S
H703 C712 0.930 . S
H704 C714 0.930 . S
H705 C717 0.929 1_455 S
H706 C720 0.930 . S
H707 C722 0.960 . S
H708 C722 0.960 . S
H709 C722 0.960 . S
C710 H702 0.929 . S
C710 C711 1.377 1_565 S
C710 C712 1.384 . S
C711 C710 1.377 1_545 S
C711 C717 1.390 . S
C712 H703 0.930 . S
C712 C710 1.384 . S
C712 C713 1.372 . S
C713 C712 1.372 . S
C713 C714 1.400 . S
C713 C718 1.490 . S
C714 H704 0.930 . S
C714 C713 1.400 . S
C714 C717 1.386 1_565 S
H715 C731 0.930 . S
H716 C732 0.931 . S
C717 H705 0.929 1_655 S
C717 C711 1.390 . S
C717 C714 1.386 1_545 S
C718 C713 1.490 . S
C718 C720 1.395 . S
C718 C721 1.403 . S
H719 C725 0.930 . S
C720 H706 0.930 . S
C720 C718 1.395 . S
C720 C723 1.403 . S
C721 C718 1.403 . S
C721 C722 1.524 . S
C721 C725 1.400 . S
C722 H707 0.960 . S
C722 H708 0.960 . S
C722 H709 0.960 . S
C722 C721 1.524 . S
C723 C720 1.403 . S
C723 C724 1.392 . S
C723 C727 1.495 . S
C724 C723 1.392 . S
C724 C725 1.385 . S
C724 C726 1.478 1_554 S
C725 H719 0.930 . S
C725 C721 1.400 . S
C725 C724 1.385 . S
C726 C724 1.478 1_556 S
C726 C728 1.381 1_556 S
C726 C732 1.383 . S
C727 C723 1.495 . S
C727 H733 0.959 . S
C727 H734 0.961 . S
C727 H735 0.960 . S
C728 C726 1.381 1_554 S
C728 C729 1.394 1_554 S
C728 H736 0.930 . S
C729 C728 1.394 1_556 S
C729 C730 1.383 . S
C729 H737 0.929 . S
C730 C729 1.383 . S
C730 C731 1.377 . S
C731 H715 0.930 . S
C731 C730 1.377 . S
C731 C732 1.379 . S
C732 H716 0.931 . S
C732 C726 1.383 . S
C732 C731 1.379 . S
H733 C727 0.959 . S
H734 C727 0.961 . S
H735 C727 0.960 . S
H736 C728 0.930 . S
H737 C729 0.929 . S
H738 C746 0.929 . S
H739 C748 0.930 . S
H740 C750 0.930 . S
H741 C753 0.929 1_545 S
H742 C756 0.930 . S
H743 C758 0.960 . S
H744 C758 0.960 1_655 S
H745 C758 0.960 . S
C746 H738 0.929 . S
C746 C747 1.377 1_665 S
C746 C748 1.384 . S
C747 C746 1.377 1_445 S
C747 C753 1.390 1_545 S
C748 H739 0.930 . S
C748 C746 1.384 . S
C748 C749 1.372 1_655 S
C749 C748 1.372 1_455 S
C749 C750 1.400 . S
C749 C754 1.490 . S
C750 H740 0.930 . S
C750 C749 1.400 . S
C750 C753 1.386 . S
H751 C767 0.930 . S
H752 C768 0.931 . S
C753 H741 0.929 1_565 S
C753 C747 1.390 1_565 S
C753 C750 1.386 . S
C754 C749 1.490 . S
C754 C756 1.395 . S
C754 C757 1.403 . S
H755 C761 0.930 . S
C756 H742 0.930 . S
C756 C754 1.395 . S
C756 C759 1.403 . S
C757 C754 1.403 . S
C757 C758 1.524 . S
C757 C761 1.400 . S
C758 H743 0.960 . S
C758 H744 0.960 1_455 S
C758 H745 0.960 . S
C758 C757 1.524 . S
C759 C756 1.403 . S
C759 C760 1.392 . S
C759 C763 1.495 . S
C760 C759 1.392 . S
C760 C761 1.385 . S
C760 C762 1.478 . S
C761 H755 0.930 . S
C761 C757 1.400 . S
C761 C760 1.385 . S
C762 C760 1.478 . S
C762 C764 1.381 1_455 S
C762 C768 1.383 . S
C763 C759 1.495 . S
C763 H769 0.959 . S
C763 H770 0.961 . S
C763 H771 0.960 . S
C764 C762 1.381 1_655 S
C764 C765 1.394 . S
C764 H772 0.930 . S
C765 C764 1.394 . S
C765 C766 1.383 1_655 S
C765 H773 0.929 . S
C766 C765 1.383 1_455 S
C766 C767 1.377 . S
C767 H751 0.930 . S
C767 C766 1.377 . S
C767 C768 1.379 . S
C768 H752 0.931 . S
C768 C762 1.383 . S
C768 C767 1.379 . S
H769 C763 0.959 . S
H770 C763 0.961 . S
H771 C763 0.960 . S
H772 C764 0.930 . S
H773 C765 0.929 . S
H774 C782 0.929 . S
H775 C784 0.930 . S
H776 C786 0.930 . S
H777 C789 0.929 . S
H778 C792 0.930 . S
H779 C794 0.960 . S
H780 C794 0.960 . S
H781 C794 0.960 . S
C782 H774 0.929 . S
C782 C783 1.377 . S
C782 C784 1.384 . S
C783 C782 1.377 . S
C783 C789 1.390 . S
C784 H775 0.930 . S
C784 C782 1.384 . S
C784 C785 1.372 . S
C785 C784 1.372 . S
C785 C786 1.400 . S
C785 C790 1.490 . S
C786 H776 0.930 . S
C786 C785 1.400 . S
C786 C789 1.386 . S
H787 C803 0.930 . S
H788 C804 0.931 . S
C789 H777 0.929 . S
C789 C783 1.390 . S
C789 C786 1.386 . S
C790 C785 1.490 . S
C790 C792 1.395 . S
C790 C793 1.403 . S
H791 C797 0.930 . S
C792 H778 0.930 . S
C792 C790 1.395 . S
C792 C795 1.403 . S
C793 C790 1.403 . S
C793 C794 1.524 . S
C793 C797 1.400 . S
C794 H779 0.960 . S
C794 H780 0.960 . S
C794 H781 0.960 . S
C794 C793 1.524 . S
C795 C792 1.403 . S
C795 C796 1.392 . S
C795 C799 1.495 . S
C796 C795 1.392 . S
C796 C797 1.385 . S
C796 C798 1.478 . S
C797 H791 0.930 . S
C797 C793 1.400 . S
C797 C796 1.385 . S
C798 C796 1.478 . S
C798 C800 1.381 . S
C798 C804 1.383 . S
C799 C795 1.495 . S
C799 H805 0.959 . S
C799 H806 0.961 . S
C799 H807 0.960 . S
C800 C798 1.381 . S
C800 C801 1.394 . S
C800 H808 0.930 . S
C801 C800 1.394 . S
C801 C802 1.383 . S
C801 H809 0.929 . S
C802 C801 1.383 . S
C802 C803 1.377 . S
C803 H787 0.930 . S
C803 C802 1.377 . S
C803 C804 1.379 . S
C804 H788 0.931 . S
C804 C798 1.383 . S
C804 C803 1.379 . S
H805 C799 0.959 . S
H806 C799 0.961 . S
H807 C799 0.960 . S
H808 C800 0.930 . S
H809 C801 0.929 . S
H810 C818 0.929 . S
H811 C820 0.930 . S
H812 C822 0.930 . S
H813 C825 0.929 . S
H814 C828 0.930 . S
H815 C830 0.900 1_556 S
H816 C830 0.983 . S
H817 C830 0.977 . S
C818 H810 0.929 . S
C818 C819 1.377 . S
C818 C820 1.384 . S
C819 C818 1.377 . S
C819 C825 1.390 . S
C820 H811 0.930 . S
C820 C818 1.384 . S
C820 C821 1.372 . S
C821 C820 1.372 . S
C821 C822 1.400 . S
C821 C826 1.490 . S
C822 H812 0.930 . S
C822 C821 1.400 . S
C822 C825 1.386 . S
H823 C839 0.930 . S
H824 C840 0.931 . S
C825 H813 0.929 . S
C825 C819 1.390 . S
C825 C822 1.386 . S
C826 C821 1.490 . S
C826 C828 1.395 . S
C826 C829 1.403 . S
H827 C833 0.999 . S
C828 H814 0.930 . S
C828 C826 1.395 . S
C828 C831 1.403 . S
C829 C826 1.403 . S
C829 C830 1.548 . S
C829 C833 1.359 1_554 S
C830 H815 0.900 1_554 S
C830 H816 0.983 . S
C830 H817 0.977 . S
C830 C829 1.548 . S
C831 C828 1.403 . S
C831 C832 1.392 . S
C831 C835 1.495 . S
C832 C831 1.392 . S
C832 C833 1.364 1_554 S
C832 C834 1.478 1_554 S
C833 H827 0.999 . S
C833 C829 1.359 1_556 S
C833 C832 1.364 1_556 S
C834 C832 1.478 1_556 S
C834 C836 1.381 . S
C834 C840 1.383 . S
C835 C831 1.495 . S
C835 H841 0.959 . S
C835 H842 0.961 . S
C835 H843 0.960 . S
C836 C834 1.381 . S
C836 C837 1.394 . S
C836 H844 0.938 . S
C837 C836 1.394 . S
C837 C838 1.383 . S
C837 H845 0.929 . S
C838 C837 1.383 . S
C838 C839 1.377 . S
C839 H823 0.930 . S
C839 C838 1.377 . S
C839 C840 1.379 . S
C840 H824 0.931 . S
C840 C834 1.383 . S
C840 C839 1.379 . S
H841 C835 0.959 . S
H842 C835 0.961 . S
H843 C835 0.960 . S
H844 C836 0.938 . S
H845 C837 0.929 . S
H846 C854 0.929 . S
H847 C856 0.930 . S
H848 C858 0.930 . S
H849 C861 0.929 . S
H850 C864 0.930 . S
H851 C866 0.960 . S
H852 C866 0.960 . S
H853 C866 0.960 . S
C854 H846 0.929 . S
C854 C855 1.377 . S
C854 C856 1.384 . S
C855 C854 1.377 . S
C855 C861 1.390 . S
C856 H847 0.930 . S
C856 C854 1.384 . S
C856 C857 1.372 . S
C857 C856 1.372 . S
C857 C858 1.400 . S
C857 C862 1.490 . S
C858 H848 0.930 . S
C858 C857 1.400 . S
C858 C861 1.386 . S
H859 C875 0.930 . S
H860 C876 0.931 . S
C861 H849 0.929 . S
C861 C855 1.390 . S
C861 C858 1.386 . S
C862 C857 1.490 . S
C862 C864 1.395 . S
C862 C865 1.403 . S
H863 C869 0.930 1_655 S
C864 H850 0.930 . S
C864 C862 1.395 . S
C864 C867 1.403 . S
C865 C862 1.403 . S
C865 C866 1.524 1_455 S
C865 C869 1.400 . S
C866 H851 0.960 . S
C866 H852 0.960 . S
C866 H853 0.960 . S
C866 C865 1.524 1_655 S
C867 C864 1.403 . S
C867 C868 1.392 . S
C867 C871 1.495 . S
C868 C867 1.392 . S
C868 C869 1.385 . S
C868 C870 1.478 . S
C869 H863 0.930 1_455 S
C869 C865 1.400 . S
C869 C868 1.385 . S
C870 C868 1.478 . S
C870 C872 1.381 . S
C870 C876 1.383 . S
C871 C867 1.495 . S
C871 H877 0.959 . S
C871 H878 0.961 . S
C871 H879 0.960 . S
C872 C870 1.381 . S
C872 C873 1.394 . S
C872 H880 0.930 . S
C873 C872 1.394 . S
C873 C874 1.383 . S
C873 H881 0.929 . S
C874 C873 1.383 . S
C874 C875 1.377 . S
C875 H859 0.930 . S
C875 C874 1.377 . S
C875 C876 1.379 . S
C876 H860 0.931 . S
C876 C870 1.383 . S
C876 C875 1.379 . S
H877 C871 0.959 . S
H878 C871 0.961 . S
H879 C871 0.960 . S
H880 C872 0.930 . S
H881 C873 0.929 . S
C478 C163 1.129 . S
C459 C14 1.522 . S
C495 C40 1.561 . S
C514 C277 1.229 . S
C531 C76 1.282 . S
C550 C337 1.061 . S
C567 C3 1.351 . S
C586 C137 1.152 . S
C622 C251 1.163 . S
C603 C38 1.410 . S
C639 C74 1.461 . S
C658 C347 0.872 . S
C694 C233 0.939 . S
C675 C86 1.416 . S
C711 C2 1.377 1_655 S
C730 C365 1.161 . S
C766 C109 1.066 . S
C747 C39 1.262 . S
C802 C223 0.917 . S
C783 C75 1.276 . S
C838 C391 1.210 . S
C819 C4 1.532 . S
C855 C50 1.437 . S
C874 C119 0.834 . S
