# Generated by pormake.
# Topology zzz, (3,6)-cn, num edge types: 1
# Building blocks:
#     Node 0, Type 0, BuildingBlock: BELTOD_clean_linker_0, # of connection points: 3
#     Node 1, Type 0, BuildingBlock: BELTOD_clean_linker_0, # of connection points: 3
#     Node 2, Type 0, BuildingBlock: BELTOD_clean_linker_0, # of connection points: 3
#     Node 3, Type 0, BuildingBlock: BELTOD_clean_linker_0, # of connection points: 3
#     Node 4, Type 0, BuildingBlock: BELTOD_clean_linker_0, # of connection points: 3
#     Node 5, Type 0, BuildingBlock: BELTOD_clean_linker_0, # of connection points: 3
#     Node 6, Type 0, BuildingBlock: BELTOD_clean_linker_0, # of connection points: 3
#     Node 7, Type 0, BuildingBlock: BELTOD_clean_linker_0, # of connection points: 3
#     Node 8, Type 1, BuildingBlock: KUMBUR_clean_sbu_0, # of connection points: 6
#     Node 9, Type 1, BuildingBlock: KUMBUR_clean_sbu_0, # of connection points: 6
#     Node 10, Type 1, BuildingBlock: KUMBUR_clean_sbu_0, # of connection points: 6
#     Node 11, Type 1, BuildingBlock: KUMBUR_clean_sbu_0, # of connection points: 6
#     Edge 12, Type (0, 1), BuildingBlock: OJICUG_clean_linker_0, # of connection points: 2
#     Edge 13, Type (0, 1), BuildingBlock: OJICUG_clean_linker_0, # of connection points: 2
#     Edge 14, Type (0, 1), BuildingBlock: OJICUG_clean_linker_0, # of connection points: 2
#     Edge 15, Type (0, 1), BuildingBlock: OJICUG_clean_linker_0, # of connection points: 2
#     Edge 16, Type (0, 1), BuildingBlock: OJICUG_clean_linker_0, # of connection points: 2
#     Edge 17, Type (0, 1), BuildingBlock: OJICUG_clean_linker_0, # of connection points: 2
#     Edge 18, Type (0, 1), BuildingBlock: OJICUG_clean_linker_0, # of connection points: 2
#     Edge 19, Type (0, 1), BuildingBlock: OJICUG_clean_linker_0, # of connection points: 2
#     Edge 20, Type (0, 1), BuildingBlock: OJICUG_clean_linker_0, # of connection points: 2
#     Edge 21, Type (0, 1), BuildingBlock: OJICUG_clean_linker_0, # of connection points: 2
#     Edge 22, Type (0, 1), BuildingBlock: OJICUG_clean_linker_0, # of connection points: 2
#     Edge 23, Type (0, 1), BuildingBlock: OJICUG_clean_linker_0, # of connection points: 2
#     Edge 24, Type (0, 1), BuildingBlock: OJICUG_clean_linker_0, # of connection points: 2
#     Edge 25, Type (0, 1), BuildingBlock: OJICUG_clean_linker_0, # of connection points: 2
#     Edge 26, Type (0, 1), BuildingBlock: OJICUG_clean_linker_0, # of connection points: 2
#     Edge 27, Type (0, 1), BuildingBlock: OJICUG_clean_linker_0, # of connection points: 2
#     Edge 28, Type (0, 1), BuildingBlock: OJICUG_clean_linker_0, # of connection points: 2
#     Edge 29, Type (0, 1), BuildingBlock: OJICUG_clean_linker_0, # of connection points: 2
#     Edge 30, Type (0, 1), BuildingBlock: OJICUG_clean_linker_0, # of connection points: 2
#     Edge 31, Type (0, 1), BuildingBlock: OJICUG_clean_linker_0, # of connection points: 2
#     Edge 32, Type (0, 1), BuildingBlock: OJICUG_clean_linker_0, # of connection points: 2
#     Edge 33, Type (0, 1), BuildingBlock: OJICUG_clean_linker_0, # of connection points: 2
#     Edge 34, Type (0, 1), BuildingBlock: OJICUG_clean_linker_0, # of connection points: 2
#     Edge 35, Type (0, 1), BuildingBlock: OJICUG_clean_linker_0, # of connection points: 2
# Relax obj value: 0.333
# Max RMSD: 0.214
# Mean RMSD: 0.205
data_MOF--net-zzz--node1-KUMBUR_clean_sbu_0--node2-BELTOD_clean_linker_0--edge1-OJICUG_clean_linker_0
_symmetry_space_group_name_H-M    P1
_symmetry_Int_Tables_number       1
_symmetry_cell_setting            triclinic
loop_
_symmetry_equiv_pos_as_xyz
'x, y, z'
_cell_length_a     40.221354
_cell_length_b     40.055585
_cell_length_c     14.020637
_cell_angle_alpha  90.90263
_cell_angle_beta   90.088559
_cell_angle_gamma 89.892754
loop_
_atom_site_label
_atom_site_type_symbol
_atom_site_fract_x
_atom_site_fract_y
_atom_site_fract_z
_atom_type_partial_charge
P0 P 0.73367 0.52117 0.27093 0.0
H1 H 0.76105 0.47394 0.41036 0.0
H2 H 0.81087 0.47642 0.5088 0.0
H3 H 0.81658 0.58263 0.46709 0.0
H4 H 0.76591 0.58035 0.37141 0.0
H5 H 0.67505 0.47816 0.27698 0.0
H6 H 0.62433 0.48072 0.18591 0.0
H7 H 0.64103 0.58542 0.1351 0.0
H8 H 0.69327 0.5821 0.22276 0.0
H9 H 0.76294 0.49529 0.09423 0.0
H10 H 0.74872 0.59215 0.22729 0.0
O11 O 0.73691 0.4803 0.24668 0.0
H12 H 0.80238 0.51859 0.9864 0.0
H13 H 0.78878 0.6161 0.1183 0.0
C14 C 0.75974 0.52674 0.37841 0.0
C15 C 0.77217 0.49813 0.42401 0.0
C16 C 0.80107 0.49948 0.48079 0.0
C17 C 0.81871 0.52954 0.49382 0.0
C18 C 0.80443 0.55876 0.45629 0.0
C19 C 0.77514 0.55744 0.40077 0.0
C20 C 0.68924 0.52956 0.2551 0.0
C21 C 0.66764 0.50209 0.24901 0.0
C22 C 0.63807 0.50363 0.19616 0.0
C23 C 0.62833 0.53311 0.14986 0.0
C24 C 0.64799 0.56181 0.166 0.0
C25 C 0.67798 0.56005 0.21798 0.0
C26 C 0.75456 0.54135 0.17379 0.0
C27 C 0.7678 0.5218 0.09958 0.0
C28 C 0.79016 0.53557 0.03592 0.0
C29 C 0.79999 0.56924 0.04577 0.0
C30 C 0.78273 0.58985 0.11089 0.0
C31 C 0.76012 0.57596 0.17446 0.0
P32 P 1.01231 0.75859 0.25481 0.0
H33 H 0.06302 0.77464 0.39907 0.0
H34 H 0.06749 0.82273 0.50662 0.0
H35 H 0.96291 0.84303 0.46881 0.0
H36 H 0.9583 0.79345 0.36503 0.0
H37 H 0.06262 0.70764 0.20684 0.0
H38 H 0.05734 0.65535 0.11873 0.0
H39 H 0.9516 0.65584 0.17057 0.0
H40 H 0.9571 0.70891 0.25924 0.0
H41 H 0.99273 0.82788 0.23268 0.0
H42 H 0.97375 0.73445 0.08469 0.0
O43 O 0.04956 0.76905 0.21222 0.0
H44 H 0.96822 0.85748 0.10488 0.0
H45 H 0.94848 0.76424 0.95513 0.0
C46 C 1.01054 0.78062 0.37069 0.0
C47 C 0.04063 0.78842 0.41685 0.0
C48 C 0.0433 0.81665 0.47723 0.0
C49 C 0.01596 0.83818 0.49324 0.0
C50 C 0.98477 0.82766 0.45758 0.0
C51 C 0.98203 0.7989 0.39826 0.0
C52 C 1.01013 0.71312 0.23837 0.0
C53 C 0.03831 0.69617 0.20273 0.0
C54 C 0.03526 0.66595 0.15135 0.0
C55 C 1.00386 0.65165 0.13386 0.0
C56 C 0.97613 0.6665 0.17984 0.0
C57 C 0.97932 0.69665 0.23265 0.0
C58 C 0.98422 0.77852 0.17225 0.0
C59 C 0.98129 0.81332 0.17596 0.0
C60 C 0.96703 0.83051 0.10094 0.0
C61 C 0.95666 0.81345 1.01726 0.0
C62 C 0.95654 0.77834 1.01746 0.0
C63 C 0.97089 0.76109 0.09313 0.0
P64 P 0.7807 1.00846 0.29261 0.0
H65 H 0.76781 0.05789 0.44481 0.0
H66 H 0.7187 0.06401 0.54501 0.0
H67 H 0.69362 0.96081 0.49018 0.0
H68 H 0.74381 0.9545 0.39247 0.0
H69 H 0.83396 0.05761 0.27221 0.0
H70 H 0.88428 0.05433 0.17717 0.0
H71 H 0.87871 0.94688 0.17531 0.0
H72 H 0.82757 0.95024 0.27169 0.0
H73 H 0.71021 0.99636 0.26794 0.0
H74 H 0.79997 0.97092 0.11437 0.0
O75 O 0.77247 0.04731 0.2578 0.0
H76 H 0.67769 0.97823 0.13547 0.0
H77 H 0.76715 0.9517 0.98048 0.0
C78 C 0.75925 1.00603 0.40762 0.0
C79 C 0.75277 0.03602 0.45756 0.0
C80 C 0.72406 0.0397 0.51373 0.0
C81 C 0.70103 1.01339 0.52213 0.0
C82 C 0.7103 0.98187 0.48439 0.0
C83 C 0.7394 0.97814 0.42887 0.0
C84 C 0.82576 1.00421 0.27614 0.0
C85 C 0.84387 0.03313 0.25479 0.0
C86 C 0.87277 0.03129 0.19932 0.0
C87 C 0.88482 1.00041 0.16482 0.0
C88 C 0.86982 0.97114 0.19916 0.0
C89 C 0.84065 0.97305 0.25538 0.0
C90 C 0.75793 0.98394 0.205 0.0
C91 C 0.72315 0.98465 0.20867 0.0
C92 C 0.70424 0.97413 0.13096 0.0
C93 C 0.71961 0.9638 0.04512 0.0
C94 C 0.75437 0.95992 0.04459 0.0
C95 C 0.77337 0.97066 0.12282 0.0
P96 P 0.53345 0.80747 0.31916 0.0
H97 H 0.48035 0.77343 0.42016 0.0
H98 H 0.48013 0.72436 0.51682 0.0
H99 H 0.58669 0.73143 0.54961 0.0
H100 H 0.58669 0.78142 0.45035 0.0
H101 H 0.50969 0.87606 0.35171 0.0
H102 H 0.51832 0.92384 0.24976 0.0
H103 H 0.60712 0.87754 0.13627 0.0
H104 H 0.59832 0.82985 0.23829 0.0
H105 H 0.50412 0.78422 0.13924 0.0
H106 H 0.59674 0.77139 0.2899 0.0
O107 O 0.49327 0.81426 0.29561 0.0
H108 H 0.51876 0.73914 0.03142 0.0
H109 H 0.61222 0.72629 0.17999 0.0
C110 C 0.53362 0.78159 0.42591 0.0
C111 C 0.50379 0.7655 0.4503 0.0
C112 C 0.50364 0.73686 0.50642 0.0
C113 C 0.53342 0.72294 0.54064 0.0
C114 C 0.56318 0.74062 0.5229 0.0
C115 C 0.56324 0.76963 0.46661 0.0
C116 C 0.55239 0.84824 0.30045 0.0
C117 C 0.53194 0.87667 0.30832 0.0
C118 C 0.53678 0.90414 0.24869 0.0
C119 C 0.56254 0.90399 0.18055 0.0
C120 C 0.58609 0.87796 0.1844 0.0
C121 C 0.58123 0.85059 0.24429 0.0
C122 C 0.54852 0.78008 0.2257 0.0
C123 C 0.52801 0.77218 0.14808 0.0
C124 C 0.53686 0.74656 0.08484 0.0
C125 C 0.56654 0.72837 0.09799 0.0
C126 C 0.58885 0.73916 0.16919 0.0
C127 C 0.5798 0.76473 0.23287 0.0
P128 P 0.30453 0.44476 0.07771 0.0
H129 H 0.28903 0.44314 0.87202 0.0
H130 H 0.23951 0.46226 0.78763 0.0
H131 H 0.21162 0.5218 0.03383 0.0
H132 H 0.26159 0.50313 0.11731 0.0
H133 H 0.35221 0.40935 0.19147 0.0
H134 H 0.39683 0.42598 0.29878 0.0
H135 H 0.38005 0.52928 0.229 0.0
H136 H 0.33441 0.51211 0.12126 0.0
H137 H 0.24957 0.39765 0.05914 0.0
H138 H 0.28999 0.46356 0.27581 0.0
O139 O 0.31725 0.41182 1.01304 0.0
H140 H 0.19615 0.39795 0.14161 0.0
H141 H 0.23723 0.46491 0.35616 0.0
C142 C 0.27942 0.47156 1.00173 0.0
C143 C 0.27323 0.46156 0.90664 0.0
C144 C 0.24455 0.47234 0.85829 0.0
C145 C 0.22102 0.49303 0.90437 0.0
C146 C 0.22884 0.50543 0.99643 0.0
C147 C 0.25783 0.49512 0.04398 0.0
C148 C 0.34019 0.45936 0.14678 0.0
C149 C 0.35834 0.43561 0.19796 0.0
C150 C 0.3839 0.44523 0.26024 0.0
C151 C 0.39254 0.47901 0.27294 0.0
C152 C 0.37456 0.50295 0.22036 0.0
C153 C 0.34842 0.49323 0.1585 0.0
C154 C 0.27372 0.43077 0.16078 0.0
C155 C 0.24751 0.41079 0.12701 0.0
C156 C 0.21681 0.41132 0.17371 0.0
C157 C 0.21189 0.43234 0.25388 0.0
C158 C 0.23974 0.44838 0.29478 0.0
C159 C 0.27033 0.44768 0.24837 0.0
P160 P 0.08931 0.29773 0.08693 0.0
H161 H 0.08368 0.27818 0.8835 0.0
H162 H 0.06398 0.22716 0.80444 0.0
H163 H 0.02243 0.19442 0.07074 0.0
H164 H 0.0417 0.24593 0.14891 0.0
H165 H 0.12004 0.36005 0.14574 0.0
H166 H 0.10384 0.40507 0.25534 0.0
H167 H 1.00585 0.36271 0.27778 0.0
H168 H 0.02269 0.31632 0.16954 0.0
H169 H 0.13414 0.24048 0.07643 0.0
H170 H 0.08816 0.30053 0.2981 0.0
O171 O 0.11878 0.3106 1.0124 0.0
H172 H 0.13791 0.19387 0.18585 0.0
H173 H 0.0912 0.2546 0.40526 0.0
C174 C 0.06391 0.26663 0.02258 0.0
C175 C 0.06939 0.26065 0.92463 0.0
C176 C 0.05857 0.2309 0.87947 0.0
C177 C 0.04185 0.206 0.93071 0.0
C178 C 0.03485 0.21286 0.02787 0.0
C179 C 0.04565 0.24269 0.07293 0.0
C180 C 0.07237 0.33502 0.14649 0.0
C181 C 0.09471 0.36067 0.17184 0.0
C182 C 0.08559 0.38636 0.23571 0.0
C183 C 0.05361 0.3876 0.27553 0.0
C184 C 0.03065 0.36262 0.24778 0.0
C185 C 0.0401 0.33626 0.18504 0.0
C186 C 0.10942 0.27345 0.17739 0.0
C187 C 0.12651 0.24433 0.14985 0.0
C188 C 0.12871 0.21767 0.21269 0.0
C189 C 0.11305 0.2199 0.30234 0.0
C190 C 0.10271 0.25151 0.33591 0.0
C191 C 0.1005 0.27805 0.27331 0.0
P192 P 0.24654 0.10508 0.07257 0.0
H193 H 0.26653 0.10213 0.86969 0.0
H194 H 0.31566 0.07886 0.79101 0.0
H195 H 0.34205 0.02873 0.05123 0.0
H196 H 0.29217 0.05086 0.12728 0.0
H197 H 0.1814 0.13433 0.11368 0.0
H198 H 0.13637 0.11842 0.22019 0.0
H199 H 0.18513 0.02406 0.26795 0.0
H200 H 0.23002 0.04004 0.15956 0.0
H201 H 0.3096 0.14052 0.07096 0.0
H202 H 0.24245 0.10361 0.28445 0.0
O203 O 0.2357 0.13713 1.00447 0.0
H204 H 0.35607 0.13203 0.17894 0.0
H205 H 0.28859 0.09507 0.39161 0.0
C206 C 0.27498 0.07802 1.00459 0.0
C207 C 0.28217 0.0851 0.90888 0.0
C208 C 0.31094 0.07223 0.86426 0.0
C209 C 0.33371 0.05212 0.9143 0.0
C210 C 0.32534 0.04362 1.00876 0.0
C211 C 0.29636 0.05616 0.05276 0.0
C212 C 0.20896 0.08813 0.12619 0.0
C213 C 0.18184 0.1096 0.14373 0.0
C214 C 0.15604 0.10056 0.20557 0.0
C215 C 0.15709 0.07005 0.25384 0.0
C216 C 0.18357 0.0479 0.23287 0.0
C217 C 0.20914 0.0568 0.16969 0.0
C218 C 0.27284 0.12081 0.16728 0.0
C219 C 0.30448 0.13258 0.14297 0.0
C220 C 0.33117 0.12778 0.20507 0.0
C221 C 0.32614 0.11152 0.29207 0.0
C222 C 0.29343 0.10697 0.32419 0.0
C223 C 0.26683 0.11146 0.26172 0.0
P224 P 0.42516 0.24081 0.06562 0.0
H225 H 0.4228 0.25739 0.86142 0.0
H226 H 0.44512 0.30553 0.77742 0.0
H227 H 0.50655 0.32967 0.02127 0.0
H228 H 0.48471 0.28123 0.10415 0.0
H229 H 0.39251 0.18294 0.14487 0.0
H230 H 0.41149 0.138 0.24772 0.0
H231 H 0.51234 0.17317 0.22175 0.0
H232 H 0.49312 0.21806 0.11774 0.0
H233 H 0.3833 0.30016 0.06256 0.0
H234 H 0.44475 0.24929 0.26672 0.0
O235 O 0.39077 0.23045 1.00542 0.0
H236 H 0.38892 0.35195 0.15523 0.0
H237 H 0.45134 0.30047 0.35703 0.0
C238 C 0.452 0.26538 0.98951 0.0
C239 C 0.44217 0.27207 0.89543 0.0
C240 C 0.45482 0.29986 0.84744 0.0
C241 C 0.47719 0.32187 0.89319 0.0
C242 C 0.48905 0.31351 0.98432 0.0
C243 C 0.47686 0.28542 0.03142 0.0
C244 C 0.44141 0.20361 0.12189 0.0
C245 C 0.41888 0.18039 0.15869 0.0
C246 C 0.42975 0.15462 0.21767 0.0
C247 C 0.46341 0.1519 0.24337 0.0
C248 C 0.48618 0.17461 0.2039 0.0
C249 C 0.47528 0.20019 0.1437 0.0
C250 C 0.41402 0.27094 0.15668 0.0
C251 C 0.39656 0.29965 0.12983 0.0
C252 C 0.40012 0.32939 0.1824 0.0
C253 C 0.42155 0.33076 0.26181 0.0
C254 C 0.43472 0.30065 0.29624 0.0
C255 C 0.43105 0.27102 0.24388 0.0
Tb256 Tb 0.05638 0.01878 0.78562 0.0
C257 C 0.93038 0.9767 0.5768 0.0
C258 C 0.95129 0.94078 0.45013 0.0
C259 C 0.89567 0.93207 0.5117 0.0
C260 C 0.95575 0.96754 0.51587 0.0
C261 C 0.89955 0.95989 0.57284 0.0
C262 C 0.92155 0.9225 0.45048 0.0
C263 C 0.87689 1.00275 0.67655 0.0
N264 N 0.93478 1.00412 0.63322 0.0
C265 C 0.90773 0.01877 0.67644 0.0
C266 C 0.87297 0.97271 0.62623 0.0
Tb267 Tb 0.98614 0.02934 0.62856 0.0
N268 N 0.98401 0.98608 0.51705 0.0
C269 C 1.00774 0.98034 0.44828 0.0
C270 C 0.97637 0.93382 0.384 0.0
C271 C 1.00446 0.95403 0.38217 0.0
H272 H 0.91025 0.04263 0.71255 0.0
H273 H 0.02379 0.94928 0.33002 0.0
H274 H 0.91789 0.90165 0.40138 0.0
H275 H 0.85604 1.01388 0.71413 0.0
H276 H 0.03 0.99502 0.44443 0.0
H277 H 0.01524 0.09311 0.09487 0.0
H278 H 0.97394 0.91346 0.33265 0.0
H279 H 0.1333 1.01034 0.70276 0.0
H280 H 1.0109 0.04922 0.97705 0.0
H281 H 0.18631 0.04098 0.70786 0.0
H282 H 0.87233 0.91864 0.50849 0.0
H283 H 0.06351 0.1307 0.09723 0.0
H284 H 0.11924 0.14565 0.03292 0.0
H285 H 0.8489 0.96059 0.62497 0.0
H286 H 0.16589 0.13193 0.92589 0.0
N287 N 0.05717 0.05987 0.90588 0.0
C288 C 0.03287 0.06421 0.97412 0.0
C289 C 0.06225 0.11079 0.04466 0.0
C290 C 0.08788 0.10553 0.97949 0.0
C291 C 0.03498 0.08963 0.04324 0.0
C292 C 0.08477 0.07936 0.91117 0.0
H293 H 0.19142 0.09253 0.80613 0.0
N294 N 0.10738 0.04538 0.79143 0.0
C295 C 0.16512 0.05036 0.74762 0.0
C296 C 0.11066 0.07205 0.85094 0.0
C297 C 0.13489 0.0332 0.74454 0.0
C298 C 0.16789 0.07942 0.80289 0.0
C299 C 0.14074 0.09016 0.85736 0.0
O300 O 0.09425 0.98445 0.81598 0.0
O301 O 0.02016 0.99401 0.6924 0.0
O302 O 0.96528 1.00639 0.75617 0.0
O303 O 1.00952 1.00982 0.86397 0.0
O304 O 0.0689 0.97987 0.68042 0.0
O305 O 0.05144 0.98844 0.90621 0.0
O306 O 0.95355 0.06965 0.60663 0.0
O307 O 0.02346 0.05391 0.7181 0.0
O308 O 0.07707 0.04031 0.65432 0.0
O309 O 0.03225 0.03988 0.54791 0.0
O310 O 0.97576 0.07119 0.72773 0.0
O311 O 0.98004 0.04672 0.48934 0.0
C312 C 0.03937 0.97322 0.65093 0.0
C313 C 0.07273 0.93456 0.8697 0.0
C314 C 0.03687 0.88681 0.83251 0.0
C315 C 0.04118 0.9213 0.84904 0.0
C316 C 0.06551 0.86627 0.83141 0.0
C317 C 0.10059 0.91359 0.86875 0.0
C318 C 0.09698 0.87967 0.84847 0.0
C319 C 0.97766 1.0048 0.84357 0.0
C320 C 0.07743 0.97066 0.88311 0.0
C321 C 0.14322 0.11743 0.92098 0.0
C322 C 0.11674 0.12516 0.982 0.0
C323 C 1.00556 0.07613 0.75792 0.0
C324 C 0.96676 0.10364 0.47813 0.0
C325 C 0.99941 0.11552 0.47108 0.0
C326 C 1.00563 0.14524 0.42371 0.0
C327 C 0.97897 0.16423 0.38888 0.0
C328 C 0.94023 0.12278 0.44384 0.0
C329 C 0.94634 0.15324 0.40031 0.0
C330 C 0.06438 0.04372 0.5674 0.0
C331 C 0.95998 0.07064 0.51609 0.0
H332 H 0.02009 0.93801 0.84604 0.0
H333 H 0.0639 0.8395 0.82179 0.0
H334 H 0.1252 0.92357 0.88231 0.0
H335 H 0.11859 0.86352 0.84798 0.0
H336 H 0.01995 0.10114 0.49869 0.0
H337 H 0.98351 0.18727 0.35156 0.0
H338 H 0.91488 0.11391 0.44945 0.0
H339 H 0.92587 0.16788 0.37315 0.0
Tb340 Tb 0.5191 0.06483 0.7792 0.0
C341 C 0.55949 0.9282 0.60491 0.0
C342 C 0.59435 0.94153 0.47007 0.0
C343 C 0.59899 0.88716 0.54311 0.0
C344 C 0.56944 0.95059 0.53663 0.0
C345 C 0.57361 0.89593 0.60749 0.0
C346 C 0.6094 0.90995 0.47471 0.0
C347 C 0.53385 0.88196 0.7293 0.0
N348 N 0.53449 0.93727 0.66487 0.0
C349 C 0.52043 0.91408 0.72331 0.0
C350 C 0.56085 0.87296 0.67198 0.0
Tb351 Tb 0.51117 0.9887 0.64093 0.0
N352 N 0.55369 0.9806 0.53269 0.0
C353 C 0.56099 1.00204 0.46024 0.0
C354 C 0.60276 0.96406 0.399 0.0
C355 C 0.58584 0.99434 0.3938 0.0
H356 H 0.49926 0.92078 0.76709 0.0
H357 H 0.59182 1.01178 0.33821 0.0
H358 H 0.62853 0.90261 0.42417 0.0
H359 H 0.5232 0.86409 0.77757 0.0
H360 H 0.54858 0.02569 0.45364 0.0
H361 H 0.44534 0.02998 0.08959 0.0
H362 H 0.62177 0.95806 0.34677 0.0
H363 H 0.52396 0.1385 0.67507 0.0
H364 H 0.48694 0.02175 0.96797 0.0
H365 H 0.4919 0.19079 0.66702 0.0
H366 H 0.61016 0.86252 0.54411 0.0
H367 H 0.40953 0.07998 0.08928 0.0
H368 H 0.3931 0.13329 1.01297 0.0
H369 H 0.57096 0.84793 0.67591 0.0
H370 H 0.40488 0.17664 0.89545 0.0
N371 N 0.47808 0.0681 0.89666 0.0
C372 C 0.47341 0.04475 0.96633 0.0
C373 C 0.42859 0.07693 0.03559 0.0
C374 C 0.43327 0.10089 0.96599 0.0
C375 C 0.4489 0.04887 0.03617 0.0
C376 C 0.45881 0.09599 0.89791 0.0
H377 H 0.44189 0.19856 0.76737 0.0
N378 N 0.49077 0.11502 0.77117 0.0
C379 C 0.48363 0.1709 0.71262 0.0
C380 C 0.46503 0.12002 0.83172 0.0
C381 C 0.50145 0.14096 0.71628 0.0
C382 C 0.45551 0.17521 0.76936 0.0
C383 C 0.44634 0.14995 0.83162 0.0
O384 O 0.55272 0.1044 0.79742 0.0
O385 O 0.54459 0.02619 0.69666 0.0
O386 O 0.5409 0.97526 0.76673 0.0
O387 O 0.53032 0.02081 0.86786 0.0
O388 O 0.55855 0.07425 0.67479 0.0
O389 O 0.54787 0.06711 0.90479 0.0
O390 O 0.47134 0.95505 0.62568 0.0
O391 O 0.4853 0.02849 0.71833 0.0
O392 O 0.49699 0.07963 0.64293 0.0
O393 O 0.50131 0.0316 0.54625 0.0
O394 O 0.47056 0.98062 0.74271 0.0
O395 O 0.49402 0.97762 0.50291 0.0
C396 C 0.5654 0.04378 0.65243 0.0
C397 C 0.60173 0.08646 0.86681 0.0
C398 C 0.64927 0.04895 0.84538 0.0
C399 C 0.61483 0.05418 0.85432 0.0
C400 C 0.67013 0.07729 0.84261 0.0
C401 C 0.62293 0.11408 0.8641 0.0
C402 C 0.65694 0.10946 0.85083 0.0
C403 C 0.54063 0.98961 0.85274 0.0
C404 C 0.5657 0.09172 0.87313 0.0
C405 C 0.41989 0.15418 0.89579 0.0
C406 C 0.41332 0.12962 0.96287 0.0
C407 C 0.46403 1.01137 0.76225 0.0
C408 C 0.43782 0.96231 0.49052 0.0
C409 C 0.4241 0.99418 0.47865 0.0
C410 C 0.3955 0.99803 0.42287 0.0
C411 C 0.37912 0.96962 0.38618 0.0
C412 C 0.42126 0.93412 0.45406 0.0
C413 C 0.39168 0.93778 0.40327 0.0
C414 C 0.49567 0.06411 0.55871 0.0
C415 C 0.4706 0.95805 0.53351 0.0
H416 H 0.59801 0.03321 0.85191 0.0
H417 H 0.69687 0.07499 0.83839 0.0
H418 H 0.61308 0.1392 0.87098 0.0
H419 H 0.67329 0.13087 0.84902 0.0
H420 H 0.43655 0.01588 0.50843 0.0
H421 H 0.35691 0.97217 0.34305 0.0
H422 H 0.43159 0.90936 0.46325 0.0
H423 H 0.37905 0.916 0.3745 0.0
Tb424 Tb 0.5528 0.50834 0.64981 0.0
C425 C 0.4008 0.50137 0.68143 0.0
C426 C 0.38286 0.5347 0.54864 0.0
C427 C 0.34749 0.49016 0.60488 0.0
C428 C 0.40665 0.52697 0.61937 0.0
C429 C 0.37074 0.48319 0.67662 0.0
C430 C 0.35359 0.51582 0.54078 0.0
C431 C 0.3874 0.45451 0.81878 0.0
N432 N 0.42394 0.49517 0.74915 0.0
C433 C 0.41675 0.47312 0.8205 0.0
C434 C 0.36448 0.45919 0.74563 0.0
Tb435 Tb 0.47152 0.52757 0.74841 0.0
N436 N 0.43549 0.54437 0.62847 0.0
C437 C 0.44095 0.57108 0.57014 0.0
C438 C 0.38902 0.56128 0.48807 0.0
C439 C 0.41805 0.57971 0.49954 0.0
H440 H 0.43415 0.46941 0.87822 0.0
H441 H 0.4231 0.6004 0.45303 0.0
H442 H 0.33529 0.5212 0.4863 0.0
H443 H 0.38243 0.4367 0.87425 0.0
H444 H 0.46328 0.58561 0.57332 0.0
H445 H 0.6089 0.44195 0.94761 0.0
H446 H 0.3715 0.56786 0.43266 0.0
H447 H 0.58805 0.56124 0.50047 0.0
H448 H 0.56695 0.45237 0.82886 0.0
H449 H 0.63958 0.59413 0.48943 0.0
H450 H 0.32446 0.47625 0.59946 0.0
H451 H 0.65873 0.47753 0.95968 0.0
H452 H 0.69229 0.52438 0.89495 0.0
H453 H 0.34165 0.44486 0.74458 0.0
H454 H 0.70052 0.5663 0.77102 0.0
N455 N 0.59105 0.49513 0.76846 0.0
C456 C 0.58811 0.46862 0.82914 0.0
C457 C 0.64021 0.48244 0.90544 0.0
C458 C 0.64435 0.5082 0.84076 0.0
C459 C 0.61218 0.46232 0.89866 0.0
C460 C 0.61925 0.51379 0.77191 0.0
H461 H 0.68142 0.59189 0.6185 0.0
N462 N 0.59985 0.54094 0.63623 0.0
C463 C 0.63534 0.57863 0.55076 0.0
C464 C 0.62367 0.53765 0.70375 0.0
C465 C 0.6062 0.55983 0.55736 0.0
C466 C 0.6588 0.57738 0.62378 0.0
C467 C 0.6535 0.55621 0.70055 0.0
O468 O 0.57746 0.49962 0.52046 0.0
O469 O 0.49956 0.50911 0.62859 0.0
O470 O 0.47432 0.47315 0.73526 0.0
O471 O 0.53088 0.46287 0.7113 0.0
O472 O 0.52769 0.52267 0.51592 0.0
O473 O 0.56423 0.45862 0.60919 0.0
O474 O 0.44867 0.53103 0.88229 0.0
O475 O 0.52516 0.5273 0.77198 0.0
O476 O 0.54996 0.56354 0.65549 0.0
O477 O 0.49508 0.57449 0.70191 0.0
O478 O 0.49548 0.50988 0.87858 0.0
O479 O 0.45573 0.57489 0.79797 0.0
C480 C 0.49766 0.51735 0.54254 0.0
C481 C 0.56505 0.45006 0.44085 0.0
C482 C 0.52155 0.42444 0.34297 0.0
C483 C 0.53204 0.43915 0.42984 0.0
C484 C 0.54462 0.42113 0.26772 0.0
C485 C 0.58747 0.44649 0.36496 0.0
C486 C 0.57725 0.43207 0.27889 0.0
C487 C 0.50046 0.45314 0.73422 0.0
C488 C 0.57645 0.46752 0.52749 0.0
C489 C 0.6777 0.55196 0.77155 0.0
C490 C 0.67308 0.52803 0.84181 0.0
C491 C 0.52564 0.51685 0.85677 0.0
C492 C 0.46463 0.57873 0.96495 0.0
C493 C 0.49526 0.59508 0.95558 0.0
C494 C 0.51169 0.60821 0.03607 0.0
C495 C 0.49776 0.60309 0.12697 0.0
C496 C 0.45108 0.57412 0.05583 0.0
C497 C 0.46776 0.5861 0.13648 0.0
C498 C 0.52467 0.58437 0.67088 0.0
C499 C 0.44828 0.56334 0.88184 0.0
H500 H 0.51469 0.44218 0.48839 0.0
H501 H 0.53786 0.40904 0.20087 0.0
H502 H 0.61288 0.45515 0.37213 0.0
H503 H 0.59473 0.42904 0.22079 0.0
H504 H 0.50615 0.59795 0.88561 0.0
H505 H 0.50905 0.6136 0.19079 0.0
H506 H 0.42781 0.5609 0.06439 0.0
H507 H 0.4571 0.58292 0.20653 0.0
Tb508 Tb 0.0319 0.55486 0.63862 0.0
C509 C 0.03836 0.41036 0.72324 0.0
C510 C 1.00689 0.38588 0.59234 0.0
C511 C 0.05096 0.3539 0.66528 0.0
C512 C 0.01339 0.41313 0.65559 0.0
C513 C 0.0565 0.3801 0.73069 0.0
C514 C 0.0263 0.35683 0.59605 0.0
C515 C 0.08155 0.40149 0.87473 0.0
N516 N 0.04333 0.43608 0.78598 0.0
C517 C 0.06314 0.43079 0.86499 0.0
C518 C 0.07875 0.37627 0.80623 0.0
Tb519 Tb 1.01123 0.48378 0.7617 0.0
N520 N 0.99482 0.44168 0.65341 0.0
C521 C 0.96829 0.44292 0.59096 0.0
C522 C 0.98063 0.38807 0.52796 0.0
C523 C 0.96101 0.4165 0.52833 0.0
H524 H 0.06611 0.44968 0.92003 0.0
H525 H 0.94046 0.41846 0.47875 0.0
H526 H 0.02178 0.33606 0.5473 0.0
H527 H 0.09778 0.39835 0.93563 0.0
H528 H 0.95267 0.46423 0.58288 0.0
H529 H 0.10812 0.61167 0.91973 0.0
H530 H 0.97503 0.36779 0.47844 0.0
H531 H 0.97465 0.59197 0.50233 0.0
H532 H 0.09282 0.56912 0.80426 0.0
H533 H 0.93821 0.64122 0.50926 0.0
H534 H 0.06496 0.33081 0.66948 0.0
H535 H 0.07376 0.66236 0.94022 0.0
H536 H 0.02394 0.69537 0.89182 0.0
H537 H 0.09286 0.3534 0.81441 0.0
H538 H 0.97645 0.70258 0.78346 0.0
N539 N 0.0488 0.59373 0.75462 0.0
C540 C 0.07688 0.5904 0.80953 0.0
C541 C 0.06669 0.6435 0.88785 0.0
C542 C 0.03853 0.64745 0.83098 0.0
C543 C 0.08608 0.61496 0.87644 0.0
C544 C 0.03046 0.62213 0.76334 0.0
H545 H 0.94422 0.68253 0.64093 0.0
N546 N 0.99817 0.60207 0.63613 0.0
C547 C 0.95603 0.63701 0.56575 0.0
C548 C 1.00377 0.62606 0.70341 0.0
C549 C 0.97625 0.60862 0.56343 0.0
C550 C 0.95958 0.66027 0.63983 0.0
C551 C 0.98438 0.65555 0.70812 0.0
O552 O 0.0368 0.58241 0.51312 0.0
O553 O 0.03305 0.50026 0.63061 0.0
O554 O 0.0648 0.48704 0.7803 0.0
O555 O 0.07954 0.53173 0.68521 0.0
O556 O 0.01541 0.52502 0.51442 0.0
O557 O 0.07989 0.5653 0.58715 0.0
O558 O 0.01587 0.47961 0.90965 0.0
O559 O 0.01524 0.53723 0.77978 0.0
O560 O 0.97742 0.54611 0.61674 0.0
O561 O 0.96287 0.49916 0.70476 0.0
O562 O 0.01486 0.53678 0.78047 0.0
O563 O 0.96967 0.46822 0.8409 0.0
C564 C 0.02247 0.49593 0.54629 0.0
C565 C 0.08204 0.56704 0.41865 0.0
C566 C 0.10824 0.52372 0.31977 0.0
C567 C 0.09449 0.53441 0.40737 0.0
C568 C 0.10785 0.54595 0.24262 0.0
C569 C 0.08186 0.58859 0.34093 0.0
C570 C 0.09456 0.57797 0.25324 0.0
C571 C 0.08713 0.50742 0.74504 0.0
C572 C 0.0687 0.5791 0.51026 0.0
C573 C 0.9913 0.68002 0.77805 0.0
C574 C 0.01841 0.67601 0.83931 0.0
C575 C 0.99112 0.55209 0.82575 0.0
C576 C 0.96855 0.49405 0.99444 0.0
C577 C 0.94398 0.51701 0.96833 0.0
C578 C 0.92975 0.53908 0.0359 0.0
C579 C 0.94143 0.53775 0.13104 0.0
C580 C 0.97972 0.49335 0.08901 0.0
C581 C 0.96631 0.51526 0.15678 0.0
C582 C 0.95508 0.52429 0.64795 0.0
C583 C 0.98486 0.47278 0.92223 0.0
H584 H 0.09394 0.51765 0.46724 0.0
H585 H 0.11906 0.53929 0.17479 0.0
H586 H 0.07205 0.61372 0.34832 0.0
H587 H 0.09493 0.59492 0.19391 0.0
H588 H 0.93671 0.51785 0.89433 0.0
H589 H 0.93084 0.55306 0.18738 0.0
H590 H 0.99911 0.47613 0.11007 0.0
H591 H 0.97493 0.51456 0.22991 0.0
C592 C 0.14389 0.04978 0.41878 0.0
C593 C 0.13266 0.06283 0.33202 0.0
H594 H 0.13186 0.03353 0.55782 0.0
C595 C 0.09841 0.06986 0.32302 0.0
H596 H 0.17001 0.04433 0.42929 0.0
C597 C 0.07618 0.06357 0.39846 0.0
C598 C 0.08767 0.05109 0.48625 0.0
H599 H 0.08871 0.07977 0.25712 0.0
H600 H 0.05002 0.06848 0.3876 0.0
C601 C 0.12186 0.04414 0.49414 0.0
C602 C 0.46141 0.09492 0.32049 0.0
C603 C 0.47388 0.1278 0.31847 0.0
H604 H 0.45957 0.04854 0.39489 0.0
C605 C 0.49506 0.13834 0.39273 0.0
H606 H 0.44549 0.08571 0.26358 0.0
C607 C 0.50246 0.11727 0.46857 0.0
C608 C 0.48889 0.08502 0.47337 0.0
H609 H 0.50527 0.16335 0.39384 0.0
H610 H 0.51932 0.12621 0.52288 0.0
C611 C 0.46931 0.07361 0.39625 0.0
C612 C 0.44187 0.51503 0.32194 0.0
C613 C 0.41979 0.48879 0.34179 0.0
H614 H 0.48371 0.54441 0.36914 0.0
C615 C 0.42443 0.47141 0.42762 0.0
H616 H 0.43978 0.52836 0.25574 0.0
C617 C 0.44978 0.48038 0.49196 0.0
C618 C 0.47091 0.50742 0.47365 0.0
H619 H 0.40809 0.45112 0.4464 0.0
H620 H 0.45257 0.4663 0.55669 0.0
C621 C 0.46726 0.52402 0.38655 0.0
C622 C 0.06517 0.42044 0.42804 0.0
C623 C 0.04498 0.41457 0.34709 0.0
H624 H 0.07375 0.45012 0.55529 0.0
C625 C 0.01748 0.43565 0.33308 0.0
H626 H 0.0867 0.40483 0.44069 0.0
C627 C 1.01055 0.46201 0.3976 0.0
C628 C 0.03013 0.46727 0.4799 0.0
H629 H 1.00173 0.43222 0.27097 0.0
H630 H 0.98943 0.47806 0.38394 0.0
C631 C 0.05773 0.4463 0.49393 0.0
C632 C 0.93811 0.97995 0.08202 0.0
C633 C 0.90903 0.99972 0.08301 0.0
H634 H 0.98315 0.96642 1.00657 0.0
C635 C 0.90274 0.01986 1.00363 0.0
H636 H 0.94386 0.96425 0.14206 0.0
C637 C 0.92468 0.02059 0.92634 0.0
C638 C 0.95382 1.00124 0.92483 0.0
H639 H 0.88065 0.03535 1.0013 0.0
H640 H 0.9194 0.03758 0.86937 0.0
C641 C 0.96056 0.98115 1.0044 0.0
C642 C 0.55082 0.96108 0.11057 0.0
C643 C 0.56206 0.92796 0.09866 0.0
H644 H 0.53639 1.00666 0.04417 0.0
C645 C 0.56981 0.91682 1.00529 0.0
H646 H 0.54535 0.971 0.18112 0.0
C647 C 0.56453 0.93733 0.92626 0.0
C648 C 0.55098 0.96955 0.93755 0.0
H649 H 0.57852 0.89157 0.99228 0.0
H650 H 0.57044 0.92752 0.85603 0.0
C651 C 0.5456 0.9816 0.0314 0.0
C652 C 0.57329 0.50975 0.08975 0.0
C653 C 0.59961 0.53265 0.07984 0.0
H654 H 0.53035 0.48659 0.02697 0.0
C655 C 0.59944 0.55287 0.99794 0.0
H656 H 0.5712 0.49467 0.15279 0.0
C657 C 0.57515 0.54864 0.92607 0.0
C658 C 0.55093 0.52355 0.93296 0.0
H659 H 0.61892 0.57097 0.98666 0.0
H660 H 0.57597 0.56426 0.86376 0.0
C661 C 0.54951 0.50523 1.01754 0.0
C662 C 0.97307 0.62459 0.99518 0.0
C663 C 0.99991 0.6241 0.05985 0.0
H664 H 0.95005 0.60266 0.87094 0.0
C665 C 0.02408 0.59874 0.04737 0.0
H666 H 0.95402 0.64363 1.00109 0.0
C667 C 0.02199 0.57544 0.97107 0.0
C668 C 0.99597 0.57726 0.90421 0.0
H669 H 0.04476 0.59698 0.09633 0.0
H670 H 0.04068 0.55604 0.96446 0.0
C671 C 0.97105 0.60138 0.91929 0.0
C672 C 0.0881 0.18865 0.43886 0.0
C673 C 0.09587 0.19029 0.34107 0.0
H674 H 0.05234 0.17278 0.54259 0.0
C675 C 0.07815 0.16984 0.27629 0.0
H676 H 0.10156 0.20376 0.49067 0.0
C677 C 0.05015 0.15258 0.3058 0.0
C678 C 0.03976 0.155 0.4007 0.0
H679 H 0.08309 0.17065 0.2006 0.0
H680 H 0.0349 0.13981 0.25297 0.0
C681 C 0.05994 0.17117 0.46855 0.0
C682 C 0.35569 0.08351 0.42782 0.0
C683 C 0.35225 0.08911 0.32942 0.0
H684 H 0.37275 0.04976 0.53548 0.0
C685 C 0.36776 0.06704 0.26443 0.0
H686 H 0.34377 0.1 0.47934 0.0
C687 C 0.38365 0.03846 0.29611 0.0
C688 C 0.38448 0.03137 0.3935 0.0
H689 H 0.3647 0.06995 0.18836 0.0
H690 H 0.39354 0.02083 0.24398 0.0
C691 C 0.37199 0.0548 0.45981 0.0
C692 C 0.44906 0.36728 0.38622 0.0
C693 C 0.43719 0.36282 0.29245 0.0
H694 H 0.48564 0.39025 0.47609 0.0
C695 C 0.44743 0.38544 0.22254 0.0
H696 H 0.44102 0.35091 0.44241 0.0
C697 C 0.47225 0.40874 0.24271 0.0
C698 C 0.48804 0.40925 0.3322 0.0
H699 H 0.43875 0.3832 0.14958 0.0
H700 H 0.48115 0.42422 0.18548 0.0
C701 C 0.47451 0.39011 0.4058 0.0
C702 C 0.15535 0.45216 0.20631 0.0
C703 C 0.17803 0.4446 0.27949 0.0
H704 H 0.11412 0.48192 0.16293 0.0
C705 C 0.17131 0.45656 0.37231 0.0
H706 H 0.15917 0.44317 0.13394 0.0
C707 C 0.14624 0.48017 0.38796 0.0
C708 C 0.12681 0.49156 0.31136 0.0
H709 H 0.18756 0.45033 0.43111 0.0
H710 H 0.14453 0.49167 0.45814 0.0
C711 C 0.12975 0.47507 0.2225 0.0
C712 C 0.97564 0.81813 0.84962 0.0
C713 C 0.95696 0.83186 0.92555 0.0
H714 H 0.01558 0.82629 0.75288 0.0
C715 C 0.95295 0.86672 0.9284 0.0
H716 H 0.97738 0.79141 0.838 0.0
C717 C 0.97687 0.88663 0.8853 0.0
C718 C 1.00292 0.87151 0.83277 0.0
H719 H 0.93628 0.87834 0.97976 0.0
H720 H 0.9772 0.91275 0.90539 0.0
C721 C 0.99847 0.83816 0.8024 0.0
C722 C 0.71571 0.98535 0.87979 0.0
C723 C 0.70076 0.9676 0.95425 0.0
H724 H 0.70989 0.02443 0.7795 0.0
C725 C 0.66587 0.96609 0.9561 0.0
H726 H 0.7424 0.98563 0.87044 0.0
C727 C 0.64746 0.99045 0.90948 0.0
C728 C 0.6638 1.01474 0.85487 0.0
H729 H 0.65324 0.95055 1.00716 0.0
H730 H 0.62147 0.9925 0.92781 0.0
C731 C 0.69706 1.00854 0.82913 0.0
C732 C 0.57733 0.66756 0.11509 0.0
C733 C 0.56922 0.6943 0.05526 0.0
H734 H 0.56616 0.61733 0.15265 0.0
C735 C 0.5534 0.6871 0.96794 0.0
H736 H 0.59059 0.67165 0.18148 0.0
C737 C 0.53809 0.65623 0.95365 0.0
C738 C 0.53962 0.63204 0.02533 0.0
H739 H 0.54839 0.70676 0.91769 0.0
H740 H 0.52148 0.65347 0.89325 0.0
C741 C 0.56281 0.63638 0.09946 0.0
C742 C 0.84659 0.56186 0.93071 0.0
C743 C 0.83333 0.57889 1.01011 0.0
H744 H 0.88697 0.53375 0.87769 0.0
C745 C 0.85559 0.59459 0.07393 0.0
H746 H 0.83033 0.5515 0.87615 0.0
C747 C 0.88915 0.58573 0.0728 0.0
C748 C 0.90036 0.56026 1.01029 0.0
H749 H 0.84675 0.6097 0.13336 0.0
H750 H 0.90507 0.59615 0.12786 0.0
C751 C 0.87967 0.55157 0.9322 0.0
C752 C 0.05354 0.15689 0.81627 0.0
C753 C 0.03258 0.17287 0.88405 0.0
H754 H 0.06194 0.11402 0.72398 0.0
C755 C 1.00275 0.15656 0.90766 0.0
H756 H 0.07682 0.16827 0.79608 0.0
C757 C 0.99439 0.12546 0.86628 0.0
C758 C 0.01588 0.10899 0.80171 0.0
H759 H 0.98554 0.16799 0.95773 0.0
H760 H 0.97116 0.11386 0.88635 0.0
C761 C 0.04526 0.12548 0.77552 0.0
C762 C 0.38345 0.06107 0.80363 0.0
C763 C 0.36646 0.04114 0.87028 0.0
H764 H 0.42708 0.06745 0.71646 0.0
C765 C 0.38172 1.01091 0.89662 0.0
H766 H 0.37309 0.08465 0.78136 0.0
C767 C 0.41303 1.00157 0.86071 0.0
C768 C 0.43047 0.02215 0.79775 0.0
H769 H 0.3695 0.99417 0.94514 0.0
H770 H 0.42397 0.97833 0.88389 0.0
C771 C 0.41481 0.05152 0.76715 0.0
C772 C 0.49388 0.35852 0.75468 0.0
C773 C 0.48507 0.35515 0.8514 0.0
H774 H 0.50663 0.39226 0.64191 0.0
C775 C 0.4822 0.3843 0.90825 0.0
H776 H 0.49636 0.33661 0.70899 0.0
C777 C 0.48736 0.41586 0.86941 0.0
C778 C 0.49594 0.41922 0.77303 0.0
H779 H 0.47513 0.38278 0.98258 0.0
H780 H 0.48476 0.43776 0.91511 0.0
C781 C 0.49975 0.39027 0.71622 0.0
C782 C 0.15859 0.49446 0.91874 0.0
C783 C 0.18706 0.49841 0.86185 0.0
H784 H 0.10549 0.49427 0.92663 0.0
C785 C 0.18239 0.50579 0.76452 0.0
H786 H 0.16098 0.48844 0.9935 0.0
C787 C 0.15013 0.50929 0.72577 0.0
C788 C 0.12182 0.50446 0.78283 0.0
H789 H 0.20369 0.50905 0.71849 0.0
H790 H 0.14732 0.5151 0.651 0.0
C791 C 0.12662 0.49726 0.87983 0.0
C792 C 0.05039 0.89049 0.51766 0.0
C793 C 0.02107 0.87263 0.53723 0.0
H794 H 0.07847 0.93549 0.53681 0.0
C795 C 0.99694 0.88872 0.5952 0.0
H796 H 0.06938 0.87979 0.47187 0.0
C797 C 1.00228 0.92134 0.63262 0.0
C798 C 0.03148 0.93907 0.611 0.0
H799 H 0.9741 0.87599 0.61285 0.0
H800 H 0.98367 0.93259 0.67874 0.0
C801 C 0.05554 0.92284 0.55428 0.0
C802 C 0.64998 0.05001 0.53352 0.0
C803 C 0.6663 0.02025 0.55868 0.0
H804 H 0.6059 0.08001 0.54173 0.0
C805 C 0.64855 0.99737 0.61481 0.0
H806 H 0.66221 0.06805 0.48887 0.0
C807 C 0.6158 1.00448 0.64586 0.0
C808 C 0.59959 0.03414 0.61894 0.0
H809 H 0.66016 0.97426 0.63628 0.0
H810 H 0.60332 0.98693 0.69142 0.0
C811 C 0.61738 0.0568 0.56318 0.0
C812 C 0.50563 0.67756 0.63888 0.0
C813 C 0.53322 0.68885 0.58611 0.0
H814 H 0.48129 0.63665 0.70686 0.0
C815 C 0.55932 0.66596 0.56996 0.0
H816 H 0.48524 0.69431 0.65561 0.0
C817 C 0.55721 0.63283 0.60121 0.0
C818 C 0.52885 0.62094 0.64864 0.0
H819 H 0.58095 0.67309 0.52928 0.0
H820 H 0.57757 0.61642 0.58498 0.0
C821 C 0.50342 0.64424 0.66909 0.0
C822 C 0.87899 0.5479 0.49677 0.0
C823 C 0.85296 0.52981 0.53862 0.0
H824 H 0.93077 0.55915 0.49422 0.0
C825 C 0.86079 0.51041 0.61885 0.0
H826 H 0.87441 0.56243 0.43357 0.0
C827 C 0.89352 0.50915 0.65549 0.0
C828 C 0.91964 0.52698 0.61262 0.0
H829 H 0.84158 0.49608 0.65341 0.0
H830 H 0.89839 0.49387 0.71702 0.0
C831 C 0.91164 0.54623 0.53243 0.0
loop_
_geom_bond_atom_site_label_1
_geom_bond_atom_site_label_2
_geom_bond_distance
_geom_bond_site_symmetry_2
_ccdc_geom_bond_type
P0 O11 1.490 . S
P0 C14 1.812 . S
P0 C20 1.803 . S
P0 C26 1.819 . S
H1 C15 0.941 . S
H2 C16 0.939 . S
H3 C18 0.940 . S
H4 C19 0.940 . S
H5 C21 0.939 . S
H6 C22 0.942 . S
H7 C24 0.940 . S
H8 C25 0.939 . S
H9 C27 0.941 . S
H10 C31 0.939 . S
O11 P0 1.490 . S
H12 C28 0.939 . S
H13 C30 0.940 . S
C14 P0 1.812 . S
C14 C15 1.389 . S
C14 C19 1.391 . S
C15 H1 0.941 . S
C15 C14 1.389 . S
C15 C16 1.397 . S
C16 H2 0.939 . S
C16 C15 1.397 . S
C16 C17 1.378 . S
C17 C16 1.378 . S
C17 C18 1.378 . S
C18 H3 0.940 . S
C18 C17 1.378 . S
C18 C19 1.396 . S
C19 H4 0.940 . S
C19 C14 1.391 . S
C19 C18 1.396 . S
C20 P0 1.803 . S
C20 C21 1.378 . S
C20 C25 1.400 . S
C21 H5 0.939 . S
C21 C20 1.378 . S
C21 C22 1.361 . S
C22 H6 0.942 . S
C22 C21 1.361 . S
C22 C23 1.369 . S
C23 C22 1.369 . S
C23 C24 1.404 . S
C24 H7 0.940 . S
C24 C23 1.404 . S
C24 C25 1.389 . S
C25 H8 0.939 . S
C25 C20 1.400 . S
C25 C24 1.389 . S
C26 P0 1.819 . S
C26 C27 1.391 . S
C26 C31 1.391 . S
C27 H9 0.941 . S
C27 C26 1.391 . S
C27 C28 1.396 . S
C28 H12 0.939 . S
C28 C27 1.396 . S
C28 C29 1.397 . S
C29 C28 1.397 . S
C29 C30 1.385 . S
C30 H13 0.940 . S
C30 C29 1.385 . S
C30 C31 1.388 . S
C31 H10 0.939 . S
C31 C26 1.391 . S
C31 C30 1.388 . S
P32 O43 1.490 1_655 S
P32 C46 1.812 . S
P32 C52 1.803 . S
P32 C58 1.819 . S
H33 C47 0.941 1_455 S
H34 C48 0.939 . S
H35 C50 0.940 . S
H36 C51 0.940 . S
H37 C53 0.939 1_455 S
H38 C54 0.942 . S
H39 C56 0.940 . S
H40 C57 0.939 . S
H41 C59 0.941 1_455 S
H42 C63 0.939 . S
O43 P32 1.490 1_455 S
H44 C60 0.939 . S
H45 C62 0.940 . S
C46 P32 1.812 . S
C46 C47 1.389 . S
C46 C51 1.391 . S
C47 H33 0.941 1_655 S
C47 C46 1.389 . S
C47 C48 1.397 . S
C48 H34 0.939 . S
C48 C47 1.397 . S
C48 C49 1.378 . S
C49 C48 1.378 . S
C49 C50 1.378 . S
C50 H35 0.940 . S
C50 C49 1.378 . S
C50 C51 1.396 . S
C51 H36 0.940 . S
C51 C46 1.391 . S
C51 C50 1.396 . S
C52 P32 1.803 . S
C52 C53 1.378 . S
C52 C57 1.400 . S
C53 H37 0.939 1_655 S
C53 C52 1.378 . S
C53 C54 1.361 . S
C54 H38 0.942 . S
C54 C53 1.361 . S
C54 C55 1.369 . S
C55 C54 1.369 . S
C55 C56 1.404 . S
C56 H39 0.940 . S
C56 C55 1.404 . S
C56 C57 1.389 . S
C57 H40 0.939 . S
C57 C52 1.400 . S
C57 C56 1.389 . S
C58 P32 1.819 . S
C58 C59 1.391 . S
C58 C63 1.391 . S
C59 H41 0.941 1_655 S
C59 C58 1.391 . S
C59 C60 1.396 . S
C60 H44 0.939 . S
C60 C59 1.396 . S
C60 C61 1.397 . S
C61 C60 1.397 . S
C61 C62 1.385 . S
C62 H45 0.940 . S
C62 C61 1.385 . S
C62 C63 1.388 . S
C63 H42 0.939 . S
C63 C58 1.391 . S
C63 C62 1.388 . S
P64 O75 1.490 . S
P64 C78 1.812 1_545 S
P64 C84 1.803 1_545 S
P64 C90 1.819 1_545 S
H65 C79 0.941 . S
H66 C80 0.939 1_545 S
H67 C82 0.940 . S
H68 C83 0.940 . S
H69 C85 0.939 . S
H70 C86 0.942 1_545 S
H71 C88 0.940 . S
H72 C89 0.939 . S
H73 C91 0.941 1_545 S
H74 C95 0.939 . S
O75 P64 1.490 . S
H76 C92 0.939 . S
H77 C94 0.940 . S
C78 P64 1.812 1_565 S
C78 C79 1.389 1_565 S
C78 C83 1.391 . S
C79 H65 0.941 . S
C79 C78 1.389 1_545 S
C79 C80 1.397 1_545 S
C80 H66 0.939 1_565 S
C80 C79 1.397 1_565 S
C80 C81 1.378 . S
C81 C80 1.378 . S
C81 C82 1.378 . S
C82 H67 0.940 . S
C82 C81 1.378 . S
C82 C83 1.396 . S
C83 H68 0.940 . S
C83 C78 1.391 . S
C83 C82 1.396 . S
C84 P64 1.803 1_565 S
C84 C85 1.378 1_565 S
C84 C89 1.400 . S
C85 H69 0.939 . S
C85 C84 1.378 1_545 S
C85 C86 1.361 1_545 S
C86 H70 0.942 1_565 S
C86 C85 1.361 1_565 S
C86 C87 1.369 . S
C87 C86 1.369 . S
C87 C88 1.404 . S
C88 H71 0.940 . S
C88 C87 1.404 . S
C88 C89 1.389 . S
C89 H72 0.939 . S
C89 C84 1.400 . S
C89 C88 1.389 . S
C90 P64 1.819 1_565 S
C90 C91 1.391 . S
C90 C95 1.391 . S
C91 H73 0.941 1_565 S
C91 C90 1.391 . S
C91 C92 1.396 . S
C92 H76 0.939 . S
C92 C91 1.396 . S
C92 C93 1.397 . S
C93 C92 1.397 . S
C93 C94 1.385 . S
C94 H77 0.940 . S
C94 C93 1.385 . S
C94 C95 1.388 . S
C95 H74 0.939 . S
C95 C90 1.391 . S
C95 C94 1.388 . S
P96 O107 1.490 . S
P96 C110 1.812 . S
P96 C116 1.803 . S
P96 C122 1.819 . S
H97 C111 0.941 . S
H98 C112 0.939 . S
H99 C114 0.940 . S
H100 C115 0.940 . S
H101 C117 0.939 . S
H102 C118 0.942 . S
H103 C120 0.940 . S
H104 C121 0.939 . S
H105 C123 0.941 . S
H106 C127 0.939 . S
O107 P96 1.490 . S
H108 C124 0.939 . S
H109 C126 0.940 . S
C110 P96 1.812 . S
C110 C111 1.389 . S
C110 C115 1.391 . S
C111 H97 0.941 . S
C111 C110 1.389 . S
C111 C112 1.397 . S
C112 H98 0.939 . S
C112 C111 1.397 . S
C112 C113 1.378 . S
C113 C112 1.378 . S
C113 C114 1.378 . S
C114 H99 0.940 . S
C114 C113 1.378 . S
C114 C115 1.396 . S
C115 H100 0.940 . S
C115 C110 1.391 . S
C115 C114 1.396 . S
C116 P96 1.803 . S
C116 C117 1.378 . S
C116 C121 1.400 . S
C117 H101 0.939 . S
C117 C116 1.378 . S
C117 C118 1.361 . S
C118 H102 0.942 . S
C118 C117 1.361 . S
C118 C119 1.369 . S
C119 C118 1.369 . S
C119 C120 1.404 . S
C120 H103 0.940 . S
C120 C119 1.404 . S
C120 C121 1.389 . S
C121 H104 0.939 . S
C121 C116 1.400 . S
C121 C120 1.389 . S
C122 P96 1.819 . S
C122 C123 1.391 . S
C122 C127 1.391 . S
C123 H105 0.941 . S
C123 C122 1.391 . S
C123 C124 1.396 . S
C124 H108 0.939 . S
C124 C123 1.396 . S
C124 C125 1.397 . S
C125 C124 1.397 . S
C125 C126 1.385 . S
C126 H109 0.940 . S
C126 C125 1.385 . S
C126 C127 1.388 . S
C127 H106 0.939 . S
C127 C122 1.391 . S
C127 C126 1.388 . S
P128 O139 1.490 . S
P128 C142 1.812 1_554 S
P128 C148 1.803 . S
P128 C154 1.819 . S
H129 C143 0.941 . S
H130 C144 0.939 . S
H131 C146 0.940 . S
H132 C147 0.940 . S
H133 C149 0.939 . S
H134 C150 0.942 . S
H135 C152 0.940 . S
H136 C153 0.939 1_556 S
H137 C155 0.941 . S
H138 C159 0.939 . S
O139 P128 1.490 . S
H140 C156 0.939 . S
H141 C158 0.940 . S
C142 P128 1.812 1_556 S
C142 C143 1.389 . S
C142 C147 1.391 . S
C143 H129 0.941 . S
C143 C142 1.389 . S
C143 C144 1.397 . S
C144 H130 0.939 . S
C144 C143 1.397 . S
C144 C145 1.378 . S
C145 C144 1.378 . S
C145 C146 1.378 . S
C146 H131 0.940 . S
C146 C145 1.378 . S
C146 C147 1.396 . S
C147 H132 0.940 . S
C147 C142 1.391 . S
C147 C146 1.396 . S
C148 P128 1.803 . S
C148 C149 1.378 . S
C148 C153 1.400 . S
C149 H133 0.939 . S
C149 C148 1.378 . S
C149 C150 1.361 . S
C150 H134 0.942 . S
C150 C149 1.361 . S
C150 C151 1.369 . S
C151 C150 1.369 . S
C151 C152 1.404 . S
C152 H135 0.940 . S
C152 C151 1.404 . S
C152 C153 1.389 . S
C153 H136 0.939 1_554 S
C153 C148 1.400 . S
C153 C152 1.389 . S
C154 P128 1.819 . S
C154 C155 1.391 . S
C154 C159 1.391 . S
C155 H137 0.941 . S
C155 C154 1.391 . S
C155 C156 1.396 . S
C156 H140 0.939 . S
C156 C155 1.396 . S
C156 C157 1.397 . S
C157 C156 1.397 . S
C157 C158 1.385 . S
C158 H141 0.940 . S
C158 C157 1.385 . S
C158 C159 1.388 . S
C159 H138 0.939 . S
C159 C154 1.391 . S
C159 C158 1.388 . S
P160 O171 1.490 . S
P160 C174 1.812 1_554 S
P160 C180 1.803 . S
P160 C186 1.819 . S
H161 C175 0.941 . S
H162 C176 0.939 . S
H163 C178 0.940 . S
H164 C179 0.940 . S
H165 C181 0.939 . S
H166 C182 0.942 . S
H167 C184 0.940 . S
H168 C185 0.939 1_556 S
H169 C187 0.941 . S
H170 C191 0.939 . S
O171 P160 1.490 . S
H172 C188 0.939 . S
H173 C190 0.940 . S
C174 P160 1.812 1_556 S
C174 C175 1.389 . S
C174 C179 1.391 . S
C175 H161 0.941 . S
C175 C174 1.389 . S
C175 C176 1.397 . S
C176 H162 0.939 . S
C176 C175 1.397 . S
C176 C177 1.378 . S
C177 C176 1.378 . S
C177 C178 1.378 . S
C178 H163 0.940 . S
C178 C177 1.378 . S
C178 C179 1.396 . S
C179 H164 0.940 . S
C179 C174 1.391 . S
C179 C178 1.396 . S
C180 P160 1.803 . S
C180 C181 1.378 . S
C180 C185 1.400 . S
C181 H165 0.939 . S
C181 C180 1.378 . S
C181 C182 1.361 . S
C182 H166 0.942 . S
C182 C181 1.361 . S
C182 C183 1.369 . S
C183 C182 1.369 . S
C183 C184 1.404 . S
C184 H167 0.940 . S
C184 C183 1.404 . S
C184 C185 1.389 . S
C185 H168 0.939 1_554 S
C185 C180 1.400 . S
C185 C184 1.389 . S
C186 P160 1.819 . S
C186 C187 1.391 . S
C186 C191 1.391 . S
C187 H169 0.941 . S
C187 C186 1.391 . S
C187 C188 1.396 . S
C188 H172 0.939 . S
C188 C187 1.396 . S
C188 C189 1.397 . S
C189 C188 1.397 . S
C189 C190 1.385 . S
C190 H173 0.940 . S
C190 C189 1.385 . S
C190 C191 1.388 . S
C191 H170 0.939 . S
C191 C186 1.391 . S
C191 C190 1.388 . S
P192 O203 1.490 . S
P192 C206 1.812 1_554 S
P192 C212 1.803 . S
P192 C218 1.819 . S
H193 C207 0.941 . S
H194 C208 0.939 . S
H195 C210 0.940 . S
H196 C211 0.940 . S
H197 C213 0.939 . S
H198 C214 0.942 . S
H199 C216 0.940 . S
H200 C217 0.939 1_556 S
H201 C219 0.941 . S
H202 C223 0.939 . S
O203 P192 1.490 . S
H204 C220 0.939 . S
H205 C222 0.940 . S
C206 P192 1.812 1_556 S
C206 C207 1.389 . S
C206 C211 1.391 . S
C207 H193 0.941 . S
C207 C206 1.389 . S
C207 C208 1.397 . S
C208 H194 0.939 . S
C208 C207 1.397 . S
C208 C209 1.378 . S
C209 C208 1.378 . S
C209 C210 1.378 . S
C210 H195 0.940 . S
C210 C209 1.378 . S
C210 C211 1.396 . S
C211 H196 0.940 . S
C211 C206 1.391 . S
C211 C210 1.396 . S
C212 P192 1.803 . S
C212 C213 1.378 . S
C212 C217 1.400 . S
C213 H197 0.939 . S
C213 C212 1.378 . S
C213 C214 1.361 . S
C214 H198 0.942 . S
C214 C213 1.361 . S
C214 C215 1.369 . S
C215 C214 1.369 . S
C215 C216 1.404 . S
C216 H199 0.940 . S
C216 C215 1.404 . S
C216 C217 1.389 . S
C217 H200 0.939 1_554 S
C217 C212 1.400 . S
C217 C216 1.389 . S
C218 P192 1.819 . S
C218 C219 1.391 . S
C218 C223 1.391 . S
C219 H201 0.941 . S
C219 C218 1.391 . S
C219 C220 1.396 . S
C220 H204 0.939 . S
C220 C219 1.396 . S
C220 C221 1.397 . S
C221 C220 1.397 . S
C221 C222 1.385 . S
C222 H205 0.940 . S
C222 C221 1.385 . S
C222 C223 1.388 . S
C223 H202 0.939 . S
C223 C218 1.391 . S
C223 C222 1.388 . S
P224 O235 1.490 . S
P224 C238 1.812 1_554 S
P224 C244 1.803 . S
P224 C250 1.819 . S
H225 C239 0.941 . S
H226 C240 0.939 . S
H227 C242 0.940 . S
H228 C243 0.940 . S
H229 C245 0.939 . S
H230 C246 0.942 . S
H231 C248 0.940 . S
H232 C249 0.939 1_556 S
H233 C251 0.941 . S
H234 C255 0.939 . S
O235 P224 1.490 . S
H236 C252 0.939 . S
H237 C254 0.940 . S
C238 P224 1.812 1_556 S
C238 C239 1.389 . S
C238 C243 1.391 . S
C239 H225 0.941 . S
C239 C238 1.389 . S
C239 C240 1.397 . S
C240 H226 0.939 . S
C240 C239 1.397 . S
C240 C241 1.378 . S
C241 C240 1.378 . S
C241 C242 1.378 . S
C242 H227 0.940 . S
C242 C241 1.378 . S
C242 C243 1.396 . S
C243 H228 0.940 . S
C243 C238 1.391 . S
C243 C242 1.396 . S
C244 P224 1.803 . S
C244 C245 1.378 . S
C244 C249 1.400 . S
C245 H229 0.939 . S
C245 C244 1.378 . S
C245 C246 1.361 . S
C246 H230 0.942 . S
C246 C245 1.361 . S
C246 C247 1.369 . S
C247 C246 1.369 . S
C247 C248 1.404 . S
C248 H231 0.940 . S
C248 C247 1.404 . S
C248 C249 1.389 . S
C249 H232 0.939 1_554 S
C249 C244 1.400 . S
C249 C248 1.389 . S
C250 P224 1.819 . S
C250 C251 1.391 . S
C250 C255 1.391 . S
C251 H233 0.941 . S
C251 C250 1.391 . S
C251 C252 1.396 . S
C252 H236 0.939 . S
C252 C251 1.396 . S
C252 C253 1.397 . S
C253 C252 1.397 . S
C253 C254 1.385 . S
C254 H237 0.940 . S
C254 C253 1.385 . S
C254 C255 1.388 . S
C255 H234 0.939 . S
C255 C250 1.391 . S
C255 C254 1.388 . S
Tb256 N287 2.660 1_565 S
Tb256 N294 2.600 . S
Tb256 O300 2.546 . S
Tb256 O301 2.610 1_455 S
Tb256 O303 2.320 1_455 S
Tb256 O304 2.552 . S
Tb256 O305 2.413 . S
Tb256 O307 2.362 1_565 S
Tb256 O308 2.421 . S
Tb256 C320 2.833 . S
C257 C260 1.439 . S
C257 C261 1.417 . S
C257 N264 1.349 1_565 S
C258 C260 1.417 . S
C258 C262 1.432 . S
C258 C270 1.410 . S
C259 C261 1.444 . S
C259 C262 1.317 . S
C259 H282 0.929 . S
C260 C257 1.439 . S
C260 C258 1.417 . S
C260 N268 1.360 . S
C261 C257 1.417 . S
C261 C259 1.444 . S
C261 C266 1.385 1_565 S
C262 C258 1.432 . S
C262 C259 1.317 . S
C262 H274 0.930 . S
C263 C265 1.392 . S
C263 C266 1.370 . S
C263 H275 0.931 . S
N264 C257 1.349 1_545 S
N264 C265 1.327 . S
N264 Tb267 2.600 . S
C265 C263 1.392 . S
C265 N264 1.327 . S
C265 H272 0.930 . S
C266 C261 1.385 1_545 S
C266 C263 1.370 . S
C266 H285 0.930 . S
Tb267 N264 2.600 . S
Tb267 N268 2.660 1_545 S
Tb267 O301 2.362 1_545 S
Tb267 O302 2.421 . S
Tb267 O306 2.546 . S
Tb267 O307 2.610 1_655 S
Tb267 O309 2.320 1_655 S
Tb267 O310 2.551 1_655 S
Tb267 O311 2.413 . S
Tb267 C331 2.833 . S
N268 C260 1.360 . S
N268 Tb267 2.660 1_565 S
N268 C269 1.305 . S
C269 N268 1.305 . S
C269 C271 1.407 . S
C269 H276 0.930 1_655 S
C270 C258 1.410 . S
C270 C271 1.345 . S
C270 H278 0.930 . S
C271 C269 1.407 . S
C271 C270 1.345 . S
C271 H273 0.930 1_655 S
H272 C265 0.930 . S
H273 C271 0.930 1_455 S
H274 C262 0.930 . S
H275 C263 0.931 . S
H276 C269 0.930 1_455 S
H277 C291 0.930 1_655 S
H278 C270 0.930 . S
H279 C297 0.930 . S
H280 C288 0.930 1_655 S
H281 C295 0.931 . S
H282 C259 0.929 . S
H283 C289 0.930 . S
H284 C322 0.930 . S
H285 C266 0.930 . S
H286 C321 0.929 . S
N287 Tb256 2.660 1_545 S
N287 C288 1.305 . S
N287 C292 1.360 . S
C288 H280 0.930 1_455 S
C288 N287 1.305 . S
C288 C291 1.407 1_556 S
C289 H283 0.930 . S
C289 C290 1.410 . S
C289 C291 1.345 . S
C290 C289 1.410 . S
C290 C292 1.417 1_554 S
C290 C322 1.432 . S
C291 H277 0.930 1_455 S
C291 C288 1.407 1_554 S
C291 C289 1.345 . S
C292 N287 1.360 . S
C292 C290 1.417 1_556 S
C292 C296 1.432 . S
H293 C298 0.930 . S
N294 Tb256 2.600 . S
N294 C296 1.359 1_565 S
N294 C297 1.327 . S
C295 H281 0.931 . S
C295 C297 1.392 . S
C295 C298 1.370 1_565 S
C296 C292 1.432 . S
C296 N294 1.359 1_545 S
C296 C299 1.414 . S
C297 H279 0.930 . S
C297 N294 1.327 . S
C297 C295 1.392 . S
C298 H293 0.930 . S
C298 C295 1.370 1_545 S
C298 C299 1.385 . S
C299 C296 1.414 . S
C299 C298 1.385 . S
C299 C321 1.444 1_556 S
O300 Tb256 2.546 . S
O300 C320 1.251 . S
O301 Tb256 2.610 1_655 S
O301 Tb267 2.362 1_565 S
O301 C312 1.283 . S
O302 Tb267 2.421 . S
O302 C319 1.262 . S
O303 Tb256 2.320 1_655 S
O303 C319 1.260 1_565 S
O304 Tb256 2.552 . S
O304 C312 1.243 1_455 S
O305 Tb256 2.413 . S
O305 C320 1.256 . S
O306 Tb267 2.546 . S
O306 C331 1.251 . S
O307 Tb256 2.362 1_545 S
O307 Tb267 2.610 1_455 S
O307 C323 1.283 . S
O308 Tb256 2.421 . S
O308 C330 1.262 1_565 S
O309 Tb267 2.320 1_455 S
O309 C330 1.260 . S
O310 Tb267 2.551 1_455 S
O310 C323 1.244 . S
O311 Tb267 2.413 . S
O311 C331 1.256 . S
C312 O301 1.283 . S
C312 O304 1.243 1_655 S
C313 C315 1.382 . S
C313 C317 1.393 . S
C313 C320 1.500 . S
C314 C315 1.400 1_554 S
C314 C316 1.384 . S
C315 C313 1.382 . S
C315 C314 1.400 1_556 S
C315 H332 0.930 . S
C316 C314 1.384 . S
C316 C318 1.392 1_554 S
C316 H333 0.931 . S
C317 C313 1.393 . S
C317 C318 1.401 . S
C317 H334 0.930 . S
C318 C316 1.392 1_556 S
C318 C317 1.401 . S
C318 H335 0.930 . S
C319 O302 1.262 . S
C319 O303 1.260 1_545 S
C320 Tb256 2.833 . S
C320 O300 1.251 . S
C320 O305 1.256 . S
C320 C313 1.500 . S
C321 H286 0.929 . S
C321 C299 1.444 1_554 S
C321 C322 1.317 . S
C322 H284 0.930 . S
C322 C290 1.432 . S
C322 C321 1.317 . S
C323 O307 1.283 . S
C323 O310 1.244 . S
C324 C325 1.382 . S
C324 C328 1.393 . S
C324 C331 1.500 . S
C325 C324 1.382 . S
C325 C326 1.400 . S
C325 H336 0.930 1_655 S
C326 C325 1.400 . S
C326 C327 1.384 . S
C327 C326 1.384 . S
C327 C329 1.392 . S
C327 H337 0.931 . S
C328 C324 1.393 . S
C328 C329 1.401 . S
C328 H338 0.930 . S
C329 C327 1.392 . S
C329 C328 1.401 . S
C329 H339 0.930 . S
C330 O308 1.262 1_545 S
C330 O309 1.260 . S
C331 Tb267 2.833 . S
C331 O306 1.251 . S
C331 O311 1.256 . S
C331 C324 1.500 . S
H332 C315 0.930 . S
H333 C316 0.931 . S
H334 C317 0.930 . S
H335 C318 0.930 . S
H336 C325 0.930 1_455 S
H337 C327 0.931 . S
H338 C328 0.930 . S
H339 C329 0.930 . S
Tb340 N371 2.660 . S
Tb340 N378 2.600 . S
Tb340 O384 2.546 . S
Tb340 O385 2.610 1_545 S
Tb340 O387 2.320 1_545 S
Tb340 O388 2.552 . S
Tb340 O389 2.413 . S
Tb340 O391 2.362 . S
Tb340 O392 2.421 . S
Tb340 C404 2.833 . S
C341 C344 1.432 . S
C341 C345 1.414 . S
C341 N348 1.359 . S
C342 C344 1.417 . S
C342 C346 1.432 . S
C342 C354 1.410 . S
C343 C345 1.444 . S
C343 C346 1.317 . S
C343 H366 0.929 . S
C344 C341 1.432 . S
C344 C342 1.417 . S
C344 N352 1.360 . S
C345 C341 1.414 . S
C345 C343 1.444 . S
C345 C350 1.385 . S
C346 C342 1.432 . S
C346 C343 1.317 . S
C346 H358 0.930 . S
C347 C349 1.392 . S
C347 C350 1.370 . S
C347 H359 0.931 . S
N348 C341 1.359 . S
N348 C349 1.327 . S
N348 Tb351 2.600 . S
C349 C347 1.392 . S
C349 N348 1.327 . S
C349 H356 0.930 . S
C350 C345 1.385 . S
C350 C347 1.370 . S
C350 H369 0.930 . S
Tb351 N348 2.600 . S
Tb351 N352 2.660 . S
Tb351 O385 2.362 . S
Tb351 O386 2.421 . S
Tb351 O390 2.546 . S
Tb351 O391 2.610 1_565 S
Tb351 O393 2.320 1_565 S
Tb351 O394 2.545 1_565 S
Tb351 O395 2.413 . S
Tb351 C415 2.833 . S
N352 C344 1.360 . S
N352 Tb351 2.660 . S
N352 C353 1.302 . S
C353 N352 1.302 . S
C353 C355 1.407 . S
C353 H360 0.933 1_565 S
C354 C342 1.410 . S
C354 C355 1.345 . S
C354 H362 0.930 . S
C355 C353 1.407 . S
C355 C354 1.345 . S
C355 H357 0.930 1_565 S
H356 C349 0.930 . S
H357 C355 0.930 1_545 S
H358 C346 0.930 . S
H359 C347 0.931 . S
H360 C353 0.933 1_545 S
H361 C375 0.930 1_565 S
H362 C354 0.930 . S
H363 C381 0.930 . S
H364 C372 0.930 1_565 S
H365 C379 0.931 . S
H366 C343 0.929 . S
H367 C373 0.930 . S
H368 C406 0.930 . S
H369 C350 0.930 . S
H370 C405 0.929 . S
N371 Tb340 2.660 . S
N371 C372 1.305 . S
N371 C376 1.360 . S
C372 H364 0.930 1_545 S
C372 N371 1.305 . S
C372 C375 1.407 1_556 S
C373 H367 0.930 . S
C373 C374 1.410 . S
C373 C375 1.345 . S
C374 C373 1.410 . S
C374 C376 1.417 1_554 S
C374 C406 1.432 . S
C375 H361 0.930 1_545 S
C375 C372 1.407 1_554 S
C375 C373 1.345 . S
C376 N371 1.360 . S
C376 C374 1.417 1_556 S
C376 C380 1.432 . S
H377 C382 0.930 . S
N378 Tb340 2.600 . S
N378 C380 1.359 . S
N378 C381 1.327 . S
C379 H365 0.931 . S
C379 C381 1.392 . S
C379 C382 1.370 . S
C380 C376 1.432 . S
C380 N378 1.359 . S
C380 C383 1.414 . S
C381 H363 0.930 . S
C381 N378 1.327 . S
C381 C379 1.392 . S
C382 H377 0.930 . S
C382 C379 1.370 . S
C382 C383 1.385 . S
C383 C380 1.414 . S
C383 C382 1.385 . S
C383 C405 1.444 1_556 S
O384 Tb340 2.546 . S
O384 C404 1.251 . S
O385 Tb340 2.610 1_565 S
O385 Tb351 2.362 . S
O385 C396 1.283 . S
O386 Tb351 2.421 . S
O386 C403 1.262 . S
O387 Tb340 2.320 1_565 S
O387 C403 1.260 . S
O388 Tb340 2.552 . S
O388 C396 1.243 1_545 S
O389 Tb340 2.413 . S
O389 C404 1.256 . S
O390 Tb351 2.546 . S
O390 C415 1.251 . S
O391 Tb340 2.362 . S
O391 Tb351 2.610 1_545 S
O391 C407 1.283 . S
O392 Tb340 2.421 . S
O392 C414 1.262 . S
O393 Tb351 2.320 1_545 S
O393 C414 1.260 . S
O394 Tb351 2.545 1_545 S
O394 C407 1.255 . S
O395 Tb351 2.413 . S
O395 C415 1.256 . S
C396 O385 1.283 . S
C396 O388 1.243 1_565 S
C397 C399 1.382 . S
C397 C401 1.393 . S
C397 C404 1.500 . S
C398 C399 1.400 1_554 S
C398 C400 1.384 . S
C399 C397 1.382 . S
C399 C398 1.400 1_556 S
C399 H416 0.930 . S
C400 C398 1.384 . S
C400 C402 1.392 1_554 S
C400 H417 0.931 . S
C401 C397 1.393 . S
C401 C402 1.401 . S
C401 H418 0.930 . S
C402 C400 1.392 1_556 S
C402 C401 1.401 . S
C402 H419 0.930 . S
C403 O386 1.262 . S
C403 O387 1.260 . S
C404 Tb340 2.833 . S
C404 O384 1.251 . S
C404 O389 1.256 . S
C404 C397 1.500 . S
C405 H370 0.929 . S
C405 C383 1.444 1_554 S
C405 C406 1.317 . S
C406 H368 0.930 . S
C406 C374 1.432 . S
C406 C405 1.317 . S
C407 O391 1.283 . S
C407 O394 1.255 . S
C408 C409 1.382 . S
C408 C412 1.393 . S
C408 C415 1.500 . S
C409 C408 1.382 . S
C409 C410 1.400 . S
C409 H420 0.930 1_565 S
C410 C409 1.400 . S
C410 C411 1.384 . S
C411 C410 1.384 . S
C411 C413 1.392 . S
C411 H421 0.931 . S
C412 C408 1.393 . S
C412 C413 1.401 . S
C412 H422 0.930 . S
C413 C411 1.392 . S
C413 C412 1.401 . S
C413 H423 0.930 . S
C414 O392 1.262 . S
C414 O393 1.260 . S
C415 Tb351 2.833 . S
C415 O390 1.251 . S
C415 O395 1.256 . S
C415 C408 1.500 . S
H416 C399 0.930 . S
H417 C400 0.931 . S
H418 C401 0.930 . S
H419 C402 0.930 . S
H420 C409 0.930 1_545 S
H421 C411 0.931 . S
H422 C412 0.930 . S
H423 C413 0.930 . S
Tb424 N455 2.660 . S
Tb424 N462 2.600 . S
Tb424 O468 2.546 . S
Tb424 O469 2.610 . S
Tb424 O471 2.320 . S
Tb424 O472 2.552 . S
Tb424 O473 2.413 . S
Tb424 O475 2.362 . S
Tb424 O476 2.421 . S
Tb424 C488 2.833 . S
C425 C428 1.432 . S
C425 C429 1.414 . S
C425 N432 1.359 . S
C426 C428 1.417 . S
C426 C430 1.432 . S
C426 C438 1.410 . S
C427 C429 1.444 . S
C427 C430 1.317 . S
C427 H450 0.929 . S
C428 C425 1.432 . S
C428 C426 1.417 . S
C428 N436 1.360 . S
C429 C425 1.414 . S
C429 C427 1.444 . S
C429 C434 1.385 . S
C430 C426 1.432 . S
C430 C427 1.317 . S
C430 H442 0.930 . S
C431 C433 1.392 . S
C431 C434 1.370 . S
C431 H443 0.931 . S
N432 C425 1.359 . S
N432 C433 1.327 . S
N432 Tb435 2.600 . S
C433 C431 1.392 . S
C433 N432 1.327 . S
C433 H440 0.930 . S
C434 C429 1.385 . S
C434 C431 1.370 . S
C434 H453 0.930 . S
Tb435 N432 2.600 . S
Tb435 N436 2.660 . S
Tb435 O469 2.362 . S
Tb435 O470 2.421 . S
Tb435 O474 2.546 . S
Tb435 O475 2.610 . S
Tb435 O477 2.320 . S
Tb435 O478 2.552 . S
Tb435 O479 2.413 . S
Tb435 C499 2.833 . S
N436 C428 1.360 . S
N436 Tb435 2.660 . S
N436 C437 1.305 . S
C437 N436 1.305 . S
C437 C439 1.407 . S
C437 H444 0.930 . S
C438 C426 1.410 . S
C438 C439 1.345 . S
C438 H446 0.930 . S
C439 C437 1.407 . S
C439 C438 1.345 . S
C439 H441 0.930 . S
H440 C433 0.930 . S
H441 C439 0.930 . S
H442 C430 0.930 . S
H443 C431 0.931 . S
H444 C437 0.930 . S
H445 C459 0.930 . S
H446 C438 0.930 . S
H447 C465 0.930 . S
H448 C456 0.930 . S
H449 C463 0.931 . S
H450 C427 0.929 . S
H451 C457 0.930 . S
H452 C490 0.930 . S
H453 C434 0.930 . S
H454 C489 0.929 . S
N455 Tb424 2.660 . S
N455 C456 1.305 . S
N455 C460 1.360 . S
C456 H448 0.930 . S
C456 N455 1.305 . S
C456 C459 1.407 . S
C457 H451 0.930 . S
C457 C458 1.410 . S
C457 C459 1.345 . S
C458 C457 1.410 . S
C458 C460 1.417 . S
C458 C490 1.432 . S
C459 H445 0.930 . S
C459 C456 1.407 . S
C459 C457 1.345 . S
C460 N455 1.360 . S
C460 C458 1.417 . S
C460 C464 1.432 . S
H461 C466 0.930 . S
N462 Tb424 2.600 . S
N462 C464 1.359 . S
N462 C465 1.327 . S
C463 H449 0.931 . S
C463 C465 1.392 . S
C463 C466 1.370 . S
C464 C460 1.432 . S
C464 N462 1.359 . S
C464 C467 1.414 . S
C465 H447 0.930 . S
C465 N462 1.327 . S
C465 C463 1.392 . S
C466 H461 0.930 . S
C466 C463 1.370 . S
C466 C467 1.385 . S
C467 C464 1.414 . S
C467 C466 1.385 . S
C467 C489 1.444 . S
O468 Tb424 2.546 . S
O468 C488 1.251 . S
O469 Tb424 2.610 . S
O469 Tb435 2.362 . S
O469 C480 1.283 . S
O470 Tb435 2.421 . S
O470 C487 1.262 . S
O471 Tb424 2.320 . S
O471 C487 1.260 . S
O472 Tb424 2.552 . S
O472 C480 1.243 . S
O473 Tb424 2.413 . S
O473 C488 1.256 . S
O474 Tb435 2.546 . S
O474 C499 1.251 . S
O475 Tb424 2.362 . S
O475 Tb435 2.610 . S
O475 C491 1.283 . S
O476 Tb424 2.421 . S
O476 C498 1.262 . S
O477 Tb435 2.320 . S
O477 C498 1.260 . S
O478 Tb435 2.552 . S
O478 C491 1.243 . S
O479 Tb435 2.413 . S
O479 C499 1.256 . S
C480 O469 1.283 . S
C480 O472 1.243 . S
C481 C483 1.382 . S
C481 C485 1.393 . S
C481 C488 1.500 . S
C482 C483 1.400 . S
C482 C484 1.384 . S
C483 C481 1.382 . S
C483 C482 1.400 . S
C483 H500 0.930 . S
C484 C482 1.384 . S
C484 C486 1.392 . S
C484 H501 0.931 . S
C485 C481 1.393 . S
C485 C486 1.401 . S
C485 H502 0.930 . S
C486 C484 1.392 . S
C486 C485 1.401 . S
C486 H503 0.930 . S
C487 O470 1.262 . S
C487 O471 1.260 . S
C488 Tb424 2.833 . S
C488 O468 1.251 . S
C488 O473 1.256 . S
C488 C481 1.500 . S
C489 H454 0.929 . S
C489 C467 1.444 . S
C489 C490 1.317 . S
C490 H452 0.930 . S
C490 C458 1.432 . S
C490 C489 1.317 . S
C491 O475 1.283 . S
C491 O478 1.243 . S
C492 C493 1.382 . S
C492 C496 1.393 1_556 S
C492 C499 1.500 . S
C493 C492 1.382 . S
C493 C494 1.400 1_556 S
C493 H504 0.930 . S
C494 C493 1.400 1_554 S
C494 C495 1.384 . S
C495 C494 1.384 . S
C495 C497 1.392 . S
C495 H505 0.931 . S
C496 C492 1.393 1_554 S
C496 C497 1.401 . S
C496 H506 0.930 . S
C497 C495 1.392 . S
C497 C496 1.401 . S
C497 H507 0.930 . S
C498 O476 1.262 . S
C498 O477 1.260 . S
C499 Tb435 2.833 . S
C499 O474 1.251 . S
C499 O479 1.256 . S
C499 C492 1.500 . S
H500 C483 0.930 . S
H501 C484 0.931 . S
H502 C485 0.930 . S
H503 C486 0.930 . S
H504 C493 0.930 . S
H505 C495 0.931 . S
H506 C496 0.930 . S
H507 C497 0.930 . S
Tb508 N539 2.660 . S
Tb508 N546 2.600 . S
Tb508 O552 2.546 . S
Tb508 O553 2.610 . S
Tb508 O555 2.320 . S
Tb508 O556 2.552 . S
Tb508 O557 2.413 . S
Tb508 O559 2.350 1_455 S
Tb508 O560 2.421 1_455 S
Tb508 C572 2.833 . S
C509 C512 1.432 . S
C509 C513 1.414 . S
C509 N516 1.359 . S
C510 C512 1.417 . S
C510 C514 1.432 . S
C510 C522 1.410 . S
C511 C513 1.444 . S
C511 C514 1.317 . S
C511 H534 0.929 . S
C512 C509 1.432 . S
C512 C510 1.417 . S
C512 N520 1.360 . S
C513 C509 1.414 . S
C513 C511 1.444 . S
C513 C518 1.385 1_655 S
C514 C510 1.432 . S
C514 C511 1.317 . S
C514 H526 0.930 . S
C515 C517 1.392 . S
C515 C518 1.370 . S
C515 H527 0.931 . S
N516 C509 1.359 . S
N516 C517 1.327 1_655 S
N516 Tb519 2.600 . S
C517 C515 1.392 . S
C517 N516 1.327 1_455 S
C517 H524 0.930 . S
C518 C513 1.385 1_455 S
C518 C515 1.370 . S
C518 H537 0.930 . S
Tb519 N516 2.600 . S
Tb519 N520 2.660 . S
Tb519 O553 2.362 1_655 S
Tb519 O554 2.421 1_655 S
Tb519 O558 2.546 . S
Tb519 O559 2.617 . S
Tb519 O561 2.320 . S
Tb519 O562 2.552 . S
Tb519 O563 2.413 . S
Tb519 C583 2.833 . S
N520 C512 1.360 . S
N520 Tb519 2.660 . S
N520 C521 1.305 . S
C521 N520 1.305 . S
C521 C523 1.407 . S
C521 H528 0.930 . S
C522 C510 1.410 . S
C522 C523 1.345 . S
C522 H530 0.930 . S
C523 C521 1.407 . S
C523 C522 1.345 . S
C523 H525 0.930 . S
H524 C517 0.930 . S
H525 C523 0.930 . S
H526 C514 0.930 . S
H527 C515 0.931 . S
H528 C521 0.930 . S
H529 C543 0.930 . S
H530 C522 0.930 . S
H531 C549 0.930 . S
H532 C540 0.930 . S
H533 C547 0.931 . S
H534 C511 0.929 . S
H535 C541 0.930 . S
H536 C574 0.930 . S
H537 C518 0.930 . S
H538 C573 0.929 . S
N539 Tb508 2.660 . S
N539 C540 1.305 . S
N539 C544 1.360 . S
C540 H532 0.930 . S
C540 N539 1.305 . S
C540 C543 1.407 . S
C541 H535 0.930 . S
C541 C542 1.410 . S
C541 C543 1.345 . S
C542 C541 1.410 . S
C542 C544 1.417 . S
C542 C574 1.432 . S
C543 H529 0.930 . S
C543 C540 1.407 . S
C543 C541 1.345 . S
C544 N539 1.360 . S
C544 C542 1.417 . S
C544 C548 1.432 . S
H545 C550 0.930 . S
N546 Tb508 2.600 . S
N546 C548 1.359 . S
N546 C549 1.327 1_455 S
C547 H533 0.931 . S
C547 C549 1.392 . S
C547 C550 1.370 1_655 S
C548 C544 1.432 . S
C548 N546 1.359 . S
C548 C551 1.414 . S
C549 H531 0.930 . S
C549 N546 1.327 1_655 S
C549 C547 1.392 . S
C550 H545 0.930 . S
C550 C547 1.370 1_455 S
C550 C551 1.385 . S
C551 C548 1.414 . S
C551 C550 1.385 . S
C551 C573 1.444 . S
O552 Tb508 2.546 . S
O552 C572 1.251 . S
O553 Tb508 2.610 . S
O553 Tb519 2.362 1_455 S
O553 C564 1.283 . S
O554 Tb519 2.421 1_455 S
O554 C571 1.262 . S
O555 Tb508 2.320 . S
O555 C571 1.260 . S
O556 Tb508 2.552 . S
O556 C564 1.243 . S
O557 Tb508 2.413 . S
O557 C572 1.256 . S
O558 Tb519 2.546 . S
O558 C583 1.251 . S
O559 Tb508 2.350 1_655 S
O559 Tb519 2.617 . S
O559 C575 1.292 . S
O560 Tb508 2.421 1_655 S
O560 C582 1.262 . S
O561 Tb519 2.320 . S
O561 C582 1.260 . S
O562 Tb519 2.552 . S
O562 C575 1.243 . S
O563 Tb519 2.413 . S
O563 C583 1.256 . S
C564 O553 1.283 . S
C564 O556 1.243 . S
C565 C567 1.382 . S
C565 C569 1.393 . S
C565 C572 1.500 . S
C566 C567 1.400 . S
C566 C568 1.384 . S
C567 C565 1.382 . S
C567 C566 1.400 . S
C567 H584 0.930 . S
C568 C566 1.384 . S
C568 C570 1.392 . S
C568 H585 0.931 . S
C569 C565 1.393 . S
C569 C570 1.401 . S
C569 H586 0.930 . S
C570 C568 1.392 . S
C570 C569 1.401 . S
C570 H587 0.930 . S
C571 O554 1.262 . S
C571 O555 1.260 . S
C572 Tb508 2.833 . S
C572 O552 1.251 . S
C572 O557 1.256 . S
C572 C565 1.500 . S
C573 H538 0.929 . S
C573 C551 1.444 . S
C573 C574 1.317 . S
C574 H536 0.930 . S
C574 C542 1.432 . S
C574 C573 1.317 . S
C575 O559 1.292 . S
C575 O562 1.243 . S
C576 C577 1.382 . S
C576 C580 1.393 1_556 S
C576 C583 1.500 . S
C577 C576 1.382 . S
C577 C578 1.400 1_556 S
C577 H588 0.930 . S
C578 C577 1.400 1_554 S
C578 C579 1.384 . S
C579 C578 1.384 . S
C579 C581 1.392 . S
C579 H589 0.931 . S
C580 C576 1.393 1_554 S
C580 C581 1.401 . S
C580 H590 0.930 . S
C581 C579 1.392 . S
C581 C580 1.401 . S
C581 H591 0.930 . S
C582 O560 1.262 . S
C582 O561 1.260 . S
C583 Tb519 2.833 . S
C583 O558 1.251 . S
C583 O563 1.256 . S
C583 C576 1.500 . S
H584 C567 0.930 . S
H585 C568 0.931 . S
H586 C569 0.930 . S
H587 C570 0.930 . S
H588 C577 0.930 . S
H589 C579 0.931 . S
H590 C580 0.930 . S
H591 C581 0.930 . S
C592 C593 1.387 . S
C592 H596 0.950 . S
C592 C601 1.390 . S
C593 C592 1.387 . S
C593 C595 1.387 . S
H594 C601 0.950 1_565 S
C595 C593 1.387 . S
C595 C597 1.390 . S
C595 H599 0.950 . S
H596 C592 0.950 . S
C597 C595 1.390 . S
C597 C598 1.387 . S
C597 H600 0.950 . S
C598 C597 1.387 . S
C598 C601 1.387 . S
H599 C595 0.950 . S
H600 C597 0.950 . S
C601 C592 1.390 . S
C601 H594 0.950 1_545 S
C601 C598 1.387 . S
C602 C603 1.387 . S
C602 H606 0.950 . S
C602 C611 1.390 . S
C603 C602 1.387 . S
C603 C605 1.387 . S
H604 C611 0.950 . S
C605 C603 1.387 . S
C605 C607 1.390 . S
C605 H609 0.950 . S
H606 C602 0.950 . S
C607 C605 1.390 . S
C607 C608 1.387 . S
C607 H610 0.950 . S
C608 C607 1.387 . S
C608 C611 1.387 . S
H609 C605 0.950 . S
H610 C607 0.950 . S
C611 C602 1.390 . S
C611 H604 0.950 . S
C611 C608 1.387 . S
C612 C613 1.387 . S
C612 H616 0.950 . S
C612 C621 1.390 . S
C613 C612 1.387 . S
C613 C615 1.387 . S
H614 C621 0.950 . S
C615 C613 1.387 . S
C615 C617 1.390 . S
C615 H619 0.950 . S
H616 C612 0.950 . S
C617 C615 1.390 . S
C617 C618 1.387 . S
C617 H620 0.950 . S
C618 C617 1.387 . S
C618 C621 1.387 . S
H619 C615 0.950 . S
H620 C617 0.950 . S
C621 C612 1.390 . S
C621 H614 0.950 . S
C621 C618 1.387 . S
C622 C623 1.387 . S
C622 H626 0.950 . S
C622 C631 1.390 . S
C623 C622 1.387 . S
C623 C625 1.387 . S
H624 C631 0.950 . S
C625 C623 1.387 . S
C625 C627 1.390 . S
C625 H629 0.950 . S
H626 C622 0.950 . S
C627 C625 1.390 . S
C627 C628 1.387 . S
C627 H630 0.950 . S
C628 C627 1.387 . S
C628 C631 1.387 . S
H629 C625 0.950 . S
H630 C627 0.950 . S
C631 C622 1.390 . S
C631 H624 0.950 . S
C631 C628 1.387 . S
C632 C633 1.387 . S
C632 H636 0.950 . S
C632 C641 1.390 1_554 S
C633 C632 1.387 . S
C633 C635 1.387 . S
H634 C641 0.950 . S
C635 C633 1.387 . S
C635 C637 1.390 1_564 S
C635 H639 0.950 1_565 S
H636 C632 0.950 . S
C637 C635 1.390 1_546 S
C637 C638 1.387 1_545 S
C637 H640 0.950 . S
C638 C637 1.387 1_565 S
C638 C641 1.387 . S
H639 C635 0.950 1_545 S
H640 C637 0.950 . S
C641 C632 1.390 1_556 S
C641 H634 0.950 . S
C641 C638 1.387 . S
C642 C643 1.387 . S
C642 H646 0.950 . S
C642 C651 1.390 1_554 S
C643 C642 1.387 . S
C643 C645 1.387 . S
H644 C651 0.950 . S
C645 C643 1.387 . S
C645 C647 1.390 1_554 S
C645 H649 0.950 . S
H646 C642 0.950 . S
C647 C645 1.390 1_556 S
C647 C648 1.387 . S
C647 H650 0.950 . S
C648 C647 1.387 . S
C648 C651 1.387 . S
H649 C645 0.950 . S
H650 C647 0.950 . S
C651 C642 1.390 1_556 S
C651 H644 0.950 . S
C651 C648 1.387 . S
C652 C653 1.387 . S
C652 H656 0.950 . S
C652 C661 1.390 1_554 S
C653 C652 1.387 . S
C653 C655 1.387 . S
H654 C661 0.950 . S
C655 C653 1.387 . S
C655 C657 1.390 1_554 S
C655 H659 0.950 . S
H656 C652 0.950 . S
C657 C655 1.390 1_556 S
C657 C658 1.387 . S
C657 H660 0.950 . S
C658 C657 1.387 . S
C658 C661 1.387 . S
H659 C655 0.950 . S
H660 C657 0.950 . S
C661 C652 1.390 1_556 S
C661 H654 0.950 . S
C661 C658 1.387 . S
C662 C663 1.387 . S
C662 H666 0.950 . S
C662 C671 1.390 1_554 S
C663 C662 1.387 . S
C663 C665 1.387 . S
H664 C671 0.950 . S
C665 C663 1.387 . S
C665 C667 1.379 1_554 S
C665 H669 0.950 . S
H666 C662 0.950 . S
C667 C665 1.379 1_556 S
C667 C668 1.397 . S
C667 H670 0.952 1_655 S
C668 C667 1.397 . S
C668 C671 1.387 . S
H669 C665 0.950 . S
H670 C667 0.952 1_455 S
C671 C662 1.390 1_556 S
C671 H664 0.950 . S
C671 C668 1.387 . S
C672 C673 1.387 . S
C672 H676 0.950 . S
C672 C681 1.390 . S
C673 C672 1.387 . S
C673 C675 1.387 . S
H674 C681 0.950 . S
C675 C673 1.387 . S
C675 C677 1.390 . S
C675 H679 0.950 . S
H676 C672 0.950 . S
C677 C675 1.390 . S
C677 C678 1.381 1_455 S
C677 H680 0.950 1_455 S
C678 C677 1.381 1_655 S
C678 C681 1.366 1_655 S
H679 C675 0.950 . S
H680 C677 0.950 1_655 S
C681 C672 1.390 . S
C681 H674 0.950 . S
C681 C678 1.366 1_455 S
C682 C683 1.387 . S
C682 H686 0.950 . S
C682 C691 1.390 . S
C683 C682 1.387 . S
C683 C685 1.387 . S
H684 C691 0.950 . S
C685 C683 1.387 . S
C685 C687 1.390 1_545 S
C685 H689 0.950 . S
H686 C682 0.950 . S
C687 C685 1.390 1_565 S
C687 C688 1.387 . S
C687 H690 0.950 . S
C688 C687 1.387 . S
C688 C691 1.387 1_565 S
H689 C685 0.950 . S
H690 C687 0.950 . S
C691 C682 1.390 . S
C691 H684 0.950 . S
C691 C688 1.387 1_545 S
C692 C693 1.387 . S
C692 H696 0.950 . S
C692 C701 1.390 . S
C693 C692 1.387 . S
C693 C695 1.387 . S
H694 C701 0.950 . S
C695 C693 1.387 . S
C695 C697 1.390 . S
C695 H699 0.950 . S
H696 C692 0.950 . S
C697 C695 1.390 . S
C697 C698 1.387 . S
C697 H700 0.950 . S
C698 C697 1.387 . S
C698 C701 1.387 . S
H699 C695 0.950 . S
H700 C697 0.950 . S
C701 C692 1.390 . S
C701 H694 0.950 . S
C701 C698 1.387 . S
C702 C703 1.387 . S
C702 H706 0.950 . S
C702 C711 1.390 . S
C703 C702 1.387 . S
C703 C705 1.387 . S
H704 C711 0.950 . S
C705 C703 1.387 . S
C705 C707 1.390 . S
C705 H709 0.950 . S
H706 C702 0.950 . S
C707 C705 1.390 . S
C707 C708 1.387 . S
C707 H710 0.950 . S
C708 C707 1.387 . S
C708 C711 1.387 . S
H709 C705 0.950 . S
H710 C707 0.950 . S
C711 C702 1.390 . S
C711 H704 0.950 . S
C711 C708 1.387 . S
C712 C713 1.387 . S
C712 H716 0.950 1_554 S
C712 C721 1.390 1_654 S
C713 C712 1.387 . S
C713 C715 1.387 . S
H714 C721 0.950 . S
C715 C713 1.387 . S
C715 C717 1.390 . S
C715 H719 0.950 . S
H716 C712 0.950 1_556 S
C717 C715 1.390 . S
C717 C718 1.387 1_655 S
C717 H720 0.950 . S
C718 C717 1.387 1_455 S
C718 C721 1.387 1_554 S
H719 C715 0.950 . S
H720 C717 0.950 . S
C721 C712 1.390 1_456 S
C721 H714 0.950 . S
C721 C718 1.387 1_556 S
C722 C723 1.387 1_556 S
C722 H726 0.950 . S
C722 C731 1.390 . S
C723 C722 1.387 1_554 S
C723 C725 1.387 . S
H724 C731 0.950 . S
C725 C723 1.387 . S
C725 C727 1.390 1_565 S
C725 H729 0.950 . S
H726 C722 0.950 . S
C727 C725 1.390 1_545 S
C727 C728 1.387 . S
C727 H730 0.950 . S
C728 C727 1.387 . S
C728 C731 1.387 1_544 S
H729 C725 0.950 . S
H730 C727 0.950 . S
C731 C722 1.390 . S
C731 H724 0.950 . S
C731 C728 1.387 1_566 S
C732 C733 1.387 . S
C732 H736 0.950 . S
C732 C741 1.390 . S
C733 C732 1.387 . S
C733 C735 1.387 1_554 S
H734 C741 0.950 . S
C735 C733 1.387 1_556 S
C735 C737 1.390 . S
C735 H739 0.950 . S
H736 C732 0.950 . S
C737 C735 1.390 . S
C737 C738 1.387 1_556 S
C737 H740 0.950 . S
C738 C737 1.387 1_554 S
C738 C741 1.387 . S
H739 C735 0.950 . S
H740 C737 0.950 . S
C741 C732 1.390 . S
C741 H734 0.950 . S
C741 C738 1.387 . S
C742 C743 1.387 1_556 S
C742 H746 0.950 . S
C742 C751 1.390 . S
C743 C742 1.387 1_554 S
C743 C745 1.387 . S
H744 C751 0.950 . S
C745 C743 1.387 . S
C745 C747 1.390 . S
C745 H749 0.950 . S
H746 C742 0.950 . S
C747 C745 1.390 . S
C747 C748 1.387 . S
C747 H750 0.950 . S
C748 C747 1.387 . S
C748 C751 1.387 1_554 S
H749 C745 0.950 . S
H750 C747 0.950 . S
C751 C742 1.390 . S
C751 H744 0.950 . S
C751 C748 1.387 1_556 S
C752 C753 1.387 . S
C752 H756 0.950 . S
C752 C761 1.390 . S
C753 C752 1.387 . S
C753 C755 1.387 . S
H754 C761 0.950 . S
C755 C753 1.387 . S
C755 C757 1.390 . S
C755 H759 0.950 . S
H756 C752 0.950 . S
C757 C755 1.390 . S
C757 C758 1.387 . S
C757 H760 0.950 . S
C758 C757 1.387 . S
C758 C761 1.387 . S
H759 C755 0.950 . S
H760 C757 0.950 . S
C761 C752 1.390 . S
C761 H754 0.950 . S
C761 C758 1.387 . S
C762 C763 1.387 . S
C762 H766 0.950 . S
C762 C771 1.390 . S
C763 C762 1.387 . S
C763 C765 1.387 . S
H764 C771 0.950 . S
C765 C763 1.387 . S
C765 C767 1.390 . S
C765 H769 0.950 . S
H766 C762 0.950 . S
C767 C765 1.390 . S
C767 C768 1.387 . S
C767 H770 0.950 . S
C768 C767 1.387 . S
C768 C771 1.387 . S
H769 C765 0.950 . S
H770 C767 0.950 . S
C771 C762 1.390 . S
C771 H764 0.950 . S
C771 C768 1.387 . S
C772 C773 1.387 . S
C772 H776 0.950 . S
C772 C781 1.390 . S
C773 C772 1.387 . S
C773 C775 1.387 . S
H774 C781 0.950 . S
C775 C773 1.387 . S
C775 C777 1.390 . S
C775 H779 0.950 . S
H776 C772 0.950 . S
C777 C775 1.390 . S
C777 C778 1.387 . S
C777 H780 0.950 . S
C778 C777 1.387 . S
C778 C781 1.387 . S
H779 C775 0.950 . S
H780 C777 0.950 . S
C781 C772 1.390 . S
C781 H774 0.950 . S
C781 C778 1.387 . S
C782 C783 1.387 . S
C782 H786 0.950 . S
C782 C791 1.390 . S
C783 C782 1.387 . S
C783 C785 1.387 . S
H784 C791 0.950 . S
C785 C783 1.387 . S
C785 C787 1.390 . S
C785 H789 0.950 . S
H786 C782 0.950 . S
C787 C785 1.390 . S
C787 C788 1.387 . S
C787 H790 0.950 . S
C788 C787 1.387 . S
C788 C791 1.387 . S
H789 C785 0.950 . S
H790 C787 0.950 . S
C791 C782 1.390 . S
C791 H784 0.950 . S
C791 C788 1.387 . S
C792 C793 1.387 . S
C792 H796 0.950 . S
C792 C801 1.390 . S
C793 C792 1.387 . S
C793 C795 1.387 . S
H794 C801 0.950 . S
C795 C793 1.387 . S
C795 C797 1.390 . S
C795 H799 0.950 . S
H796 C792 0.950 . S
C797 C795 1.390 . S
C797 C798 1.387 . S
C797 H800 0.950 . S
C798 C797 1.387 . S
C798 C801 1.387 . S
H799 C795 0.950 . S
H800 C797 0.950 . S
C801 C792 1.390 . S
C801 H794 0.950 . S
C801 C798 1.387 . S
C802 C803 1.387 . S
C802 H806 0.950 . S
C802 C811 1.390 . S
C803 C802 1.387 . S
C803 C805 1.387 . S
H804 C811 0.951 1_545 S
C805 C803 1.387 . S
C805 C807 1.390 . S
C805 H809 0.950 . S
H806 C802 0.950 . S
C807 C805 1.390 . S
C807 C808 1.387 . S
C807 H810 0.950 . S
C808 C807 1.387 . S
C808 C811 1.387 . S
H809 C805 0.950 . S
H810 C807 0.950 . S
C811 C802 1.390 . S
C811 H804 0.951 1_565 S
C811 C808 1.387 . S
C812 C813 1.387 . S
C812 H816 0.950 . S
C812 C821 1.390 . S
C813 C812 1.387 . S
C813 C815 1.387 . S
H814 C821 0.950 . S
C815 C813 1.387 . S
C815 C817 1.390 . S
C815 H819 0.950 . S
H816 C812 0.950 . S
C817 C815 1.390 . S
C817 C818 1.387 . S
C817 H820 0.950 . S
C818 C817 1.387 . S
C818 C821 1.387 . S
H819 C815 0.950 . S
H820 C817 0.950 . S
C821 C812 1.390 . S
C821 H814 0.950 . S
C821 C818 1.387 . S
C822 C823 1.387 . S
C822 H826 0.950 . S
C822 C831 1.390 . S
C823 C822 1.387 . S
C823 C825 1.387 . S
H824 C831 0.950 . S
C825 C823 1.387 . S
C825 C827 1.390 . S
C825 H829 0.950 . S
H826 C822 0.950 . S
C827 C825 1.390 . S
C827 C828 1.387 . S
C827 H830 0.950 . S
C828 C827 1.387 . S
C828 C831 1.387 . S
H829 C825 0.950 . S
H830 C827 0.950 . S
C831 C822 1.390 . S
C831 H824 0.950 . S
C831 C828 1.387 . S
C593 C215 2.416 . S
C598 C330 2.481 . S
C608 C414 2.486 . S
C603 C247 2.422 . S
C618 C480 2.320 . S
C613 C151 2.502 . S
C628 C564 2.315 . S
C623 C183 2.495 . S
C638 C319 2.481 1_565 S
C633 C87 2.316 . S
C643 C119 2.309 . S
C648 C403 2.488 . S
C653 C23 2.376 . S
C658 C491 2.316 . S
C663 C55 2.382 . S
C668 C575 2.317 . S
C678 C326 1.128 . S
C673 C189 1.058 . S
C688 C410 1.039 . S
C683 C221 1.004 . S
C698 C482 1.011 . S
C693 C253 0.984 . S
C703 C157 1.026 . S
C708 C566 1.062 . S
C713 C61 0.869 . S
C718 C314 1.100 . S
C728 C398 1.039 . S
C723 C93 0.847 . S
C738 C494 1.011 . S
C733 C125 0.838 . S
C743 C29 0.850 . S
C748 C578 1.062 . S
C753 C177 2.723 . S
C758 C323 2.834 . S
C763 C209 2.695 . S
C768 C407 2.810 . S
C778 C487 2.955 . S
C773 C241 2.611 . S
C788 C571 2.974 . S
C783 C145 2.634 . S
C793 C49 2.647 . S
C798 C312 2.834 . S
C808 C396 2.810 . S
C803 C81 2.633 . S
C818 C498 2.954 . S
C813 C113 2.536 . S
C823 C17 2.550 . S
C828 C582 2.975 . S
