# Generated by pormake.
# Topology llk, (3,12)-cn, num edge types: 1
# Building blocks:
#     Node 0, Type 0, BuildingBlock: BELTOD_clean_linker_0, # of connection points: 3
#     Node 1, Type 0, BuildingBlock: BELTOD_clean_linker_0, # of connection points: 3
#     Node 2, Type 0, BuildingBlock: BELTOD_clean_linker_0, # of connection points: 3
#     Node 3, Type 0, BuildingBlock: BELTOD_clean_linker_0, # of connection points: 3
#     Node 4, Type 0, BuildingBlock: BELTOD_clean_linker_0, # of connection points: 3
#     Node 5, Type 0, BuildingBlock: BELTOD_clean_linker_0, # of connection points: 3
#     Node 6, Type 0, BuildingBlock: BELTOD_clean_linker_0, # of connection points: 3
#     Node 7, Type 0, BuildingBlock: BELTOD_clean_linker_0, # of connection points: 3
#     Node 8, Type 0, BuildingBlock: BELTOD_clean_linker_0, # of connection points: 3
#     Node 9, Type 0, BuildingBlock: BELTOD_clean_linker_0, # of connection points: 3
#     Node 10, Type 0, BuildingBlock: BELTOD_clean_linker_0, # of connection points: 3
#     Node 11, Type 0, BuildingBlock: BELTOD_clean_linker_0, # of connection points: 3
#     Node 12, Type 0, BuildingBlock: BELTOD_clean_linker_0, # of connection points: 3
#     Node 13, Type 0, BuildingBlock: BELTOD_clean_linker_0, # of connection points: 3
#     Node 14, Type 0, BuildingBlock: BELTOD_clean_linker_0, # of connection points: 3
#     Node 15, Type 0, BuildingBlock: BELTOD_clean_linker_0, # of connection points: 3
#     Node 16, Type 0, BuildingBlock: BELTOD_clean_linker_0, # of connection points: 3
#     Node 17, Type 0, BuildingBlock: BELTOD_clean_linker_0, # of connection points: 3
#     Node 18, Type 0, BuildingBlock: BELTOD_clean_linker_0, # of connection points: 3
#     Node 19, Type 0, BuildingBlock: BELTOD_clean_linker_0, # of connection points: 3
#     Node 20, Type 0, BuildingBlock: BELTOD_clean_linker_0, # of connection points: 3
#     Node 21, Type 0, BuildingBlock: BELTOD_clean_linker_0, # of connection points: 3
#     Node 22, Type 0, BuildingBlock: BELTOD_clean_linker_0, # of connection points: 3
#     Node 23, Type 0, BuildingBlock: BELTOD_clean_linker_0, # of connection points: 3
#     Node 24, Type 1, BuildingBlock: EZIPEK_clean_sbu_0, # of connection points: 12
#     Node 25, Type 1, BuildingBlock: EZIPEK_clean_sbu_0, # of connection points: 12
#     Node 26, Type 1, BuildingBlock: EZIPEK_clean_sbu_0, # of connection points: 12
#     Node 27, Type 1, BuildingBlock: EZIPEK_clean_sbu_0, # of connection points: 12
#     Node 28, Type 1, BuildingBlock: EZIPEK_clean_sbu_0, # of connection points: 12
#     Node 29, Type 1, BuildingBlock: EZIPEK_clean_sbu_0, # of connection points: 12
#     Edge 30, Type (0, 1), BuildingBlock: OJICUG_clean_linker_0, # of connection points: 2
#     Edge 31, Type (0, 1), BuildingBlock: OJICUG_clean_linker_0, # of connection points: 2
#     Edge 32, Type (0, 1), BuildingBlock: OJICUG_clean_linker_0, # of connection points: 2
#     Edge 33, Type (0, 1), BuildingBlock: OJICUG_clean_linker_0, # of connection points: 2
#     Edge 34, Type (0, 1), BuildingBlock: OJICUG_clean_linker_0, # of connection points: 2
#     Edge 35, Type (0, 1), BuildingBlock: OJICUG_clean_linker_0, # of connection points: 2
#     Edge 36, Type (0, 1), BuildingBlock: OJICUG_clean_linker_0, # of connection points: 2
#     Edge 37, Type (0, 1), BuildingBlock: OJICUG_clean_linker_0, # of connection points: 2
#     Edge 38, Type (0, 1), BuildingBlock: OJICUG_clean_linker_0, # of connection points: 2
#     Edge 39, Type (0, 1), BuildingBlock: OJICUG_clean_linker_0, # of connection points: 2
#     Edge 40, Type (0, 1), BuildingBlock: OJICUG_clean_linker_0, # of connection points: 2
#     Edge 41, Type (0, 1), BuildingBlock: OJICUG_clean_linker_0, # of connection points: 2
#     Edge 42, Type (0, 1), BuildingBlock: OJICUG_clean_linker_0, # of connection points: 2
#     Edge 43, Type (0, 1), BuildingBlock: OJICUG_clean_linker_0, # of connection points: 2
#     Edge 44, Type (0, 1), BuildingBlock: OJICUG_clean_linker_0, # of connection points: 2
#     Edge 45, Type (0, 1), BuildingBlock: OJICUG_clean_linker_0, # of connection points: 2
#     Edge 46, Type (0, 1), BuildingBlock: OJICUG_clean_linker_0, # of connection points: 2
#     Edge 47, Type (0, 1), BuildingBlock: OJICUG_clean_linker_0, # of connection points: 2
#     Edge 48, Type (0, 1), BuildingBlock: OJICUG_clean_linker_0, # of connection points: 2
#     Edge 49, Type (0, 1), BuildingBlock: OJICUG_clean_linker_0, # of connection points: 2
#     Edge 50, Type (0, 1), BuildingBlock: OJICUG_clean_linker_0, # of connection points: 2
#     Edge 51, Type (0, 1), BuildingBlock: OJICUG_clean_linker_0, # of connection points: 2
#     Edge 52, Type (0, 1), BuildingBlock: OJICUG_clean_linker_0, # of connection points: 2
#     Edge 53, Type (0, 1), BuildingBlock: OJICUG_clean_linker_0, # of connection points: 2
#     Edge 54, Type (0, 1), BuildingBlock: OJICUG_clean_linker_0, # of connection points: 2
#     Edge 55, Type (0, 1), BuildingBlock: OJICUG_clean_linker_0, # of connection points: 2
#     Edge 56, Type (0, 1), BuildingBlock: OJICUG_clean_linker_0, # of connection points: 2
#     Edge 57, Type (0, 1), BuildingBlock: OJICUG_clean_linker_0, # of connection points: 2
#     Edge 58, Type (0, 1), BuildingBlock: OJICUG_clean_linker_0, # of connection points: 2
#     Edge 59, Type (0, 1), BuildingBlock: OJICUG_clean_linker_0, # of connection points: 2
#     Edge 60, Type (0, 1), BuildingBlock: OJICUG_clean_linker_0, # of connection points: 2
#     Edge 61, Type (0, 1), BuildingBlock: OJICUG_clean_linker_0, # of connection points: 2
#     Edge 62, Type (0, 1), BuildingBlock: OJICUG_clean_linker_0, # of connection points: 2
#     Edge 63, Type (0, 1), BuildingBlock: OJICUG_clean_linker_0, # of connection points: 2
#     Edge 64, Type (0, 1), BuildingBlock: OJICUG_clean_linker_0, # of connection points: 2
#     Edge 65, Type (0, 1), BuildingBlock: OJICUG_clean_linker_0, # of connection points: 2
#     Edge 66, Type (0, 1), BuildingBlock: OJICUG_clean_linker_0, # of connection points: 2
#     Edge 67, Type (0, 1), BuildingBlock: OJICUG_clean_linker_0, # of connection points: 2
#     Edge 68, Type (0, 1), BuildingBlock: OJICUG_clean_linker_0, # of connection points: 2
#     Edge 69, Type (0, 1), BuildingBlock: OJICUG_clean_linker_0, # of connection points: 2
#     Edge 70, Type (0, 1), BuildingBlock: OJICUG_clean_linker_0, # of connection points: 2
#     Edge 71, Type (0, 1), BuildingBlock: OJICUG_clean_linker_0, # of connection points: 2
#     Edge 72, Type (0, 1), BuildingBlock: OJICUG_clean_linker_0, # of connection points: 2
#     Edge 73, Type (0, 1), BuildingBlock: OJICUG_clean_linker_0, # of connection points: 2
#     Edge 74, Type (0, 1), BuildingBlock: OJICUG_clean_linker_0, # of connection points: 2
#     Edge 75, Type (0, 1), BuildingBlock: OJICUG_clean_linker_0, # of connection points: 2
#     Edge 76, Type (0, 1), BuildingBlock: OJICUG_clean_linker_0, # of connection points: 2
#     Edge 77, Type (0, 1), BuildingBlock: OJICUG_clean_linker_0, # of connection points: 2
#     Edge 78, Type (0, 1), BuildingBlock: OJICUG_clean_linker_0, # of connection points: 2
#     Edge 79, Type (0, 1), BuildingBlock: OJICUG_clean_linker_0, # of connection points: 2
#     Edge 80, Type (0, 1), BuildingBlock: OJICUG_clean_linker_0, # of connection points: 2
#     Edge 81, Type (0, 1), BuildingBlock: OJICUG_clean_linker_0, # of connection points: 2
#     Edge 82, Type (0, 1), BuildingBlock: OJICUG_clean_linker_0, # of connection points: 2
#     Edge 83, Type (0, 1), BuildingBlock: OJICUG_clean_linker_0, # of connection points: 2
#     Edge 84, Type (0, 1), BuildingBlock: OJICUG_clean_linker_0, # of connection points: 2
#     Edge 85, Type (0, 1), BuildingBlock: OJICUG_clean_linker_0, # of connection points: 2
#     Edge 86, Type (0, 1), BuildingBlock: OJICUG_clean_linker_0, # of connection points: 2
#     Edge 87, Type (0, 1), BuildingBlock: OJICUG_clean_linker_0, # of connection points: 2
#     Edge 88, Type (0, 1), BuildingBlock: OJICUG_clean_linker_0, # of connection points: 2
#     Edge 89, Type (0, 1), BuildingBlock: OJICUG_clean_linker_0, # of connection points: 2
#     Edge 90, Type (0, 1), BuildingBlock: OJICUG_clean_linker_0, # of connection points: 2
#     Edge 91, Type (0, 1), BuildingBlock: OJICUG_clean_linker_0, # of connection points: 2
#     Edge 92, Type (0, 1), BuildingBlock: OJICUG_clean_linker_0, # of connection points: 2
#     Edge 93, Type (0, 1), BuildingBlock: OJICUG_clean_linker_0, # of connection points: 2
#     Edge 94, Type (0, 1), BuildingBlock: OJICUG_clean_linker_0, # of connection points: 2
#     Edge 95, Type (0, 1), BuildingBlock: OJICUG_clean_linker_0, # of connection points: 2
#     Edge 96, Type (0, 1), BuildingBlock: OJICUG_clean_linker_0, # of connection points: 2
#     Edge 97, Type (0, 1), BuildingBlock: OJICUG_clean_linker_0, # of connection points: 2
#     Edge 98, Type (0, 1), BuildingBlock: OJICUG_clean_linker_0, # of connection points: 2
#     Edge 99, Type (0, 1), BuildingBlock: OJICUG_clean_linker_0, # of connection points: 2
#     Edge 100, Type (0, 1), BuildingBlock: OJICUG_clean_linker_0, # of connection points: 2
#     Edge 101, Type (0, 1), BuildingBlock: OJICUG_clean_linker_0, # of connection points: 2
# Relax obj value: 0.096
# Max RMSD: 0.146
# Mean RMSD: 0.122
data_MOF--net-llk--node1-EZIPEK_clean_sbu_0--node2-BELTOD_clean_linker_0--edge1-OJICUG_clean_linker_0
_symmetry_space_group_name_H-M    P1
_symmetry_Int_Tables_number       1
_symmetry_cell_setting            triclinic
loop_
_symmetry_equiv_pos_as_xyz
'x, y, z'
_cell_length_a     41.33021
_cell_length_b     41.443799
_cell_length_c     41.272743
_cell_angle_alpha  90.000866
_cell_angle_beta   89.966918
_cell_angle_gamma 90.026407
loop_
_atom_site_label
_atom_site_type_symbol
_atom_site_fract_x
_atom_site_fract_y
_atom_site_fract_z
_atom_type_partial_charge
P0 P 0.94899 0.25437 0.25377 0.0
H1 H 0.91123 0.29354 0.21075 0.0
H2 H 0.92671 0.33357 0.17062 0.0
H3 H 0.02504 0.2987 0.17329 0.0
H4 H 0.00926 0.25826 0.21419 0.0
H5 H 0.93495 0.18528 0.25653 0.0
H6 H 0.95259 0.14436 0.29513 0.0
H7 H 0.02782 0.20825 0.32903 0.0
H8 H 0.01052 0.24894 0.2898 0.0
H9 H 0.91631 0.26948 0.31484 0.0
H10 H 0.99494 0.308 0.25774 0.0
O11 O 0.90982 0.24451 0.25286 0.0
H12 H 0.92681 0.31049 0.35647 0.0
H13 H 0.00537 0.34821 0.29863 0.0
C14 C 0.95895 0.27249 0.21522 0.0
C15 C 0.9359 0.29347 0.20188 0.0
C16 C 0.94489 0.31686 0.17933 0.0
C17 C 0.97722 0.31981 0.16941 0.0
C18 C 0.99994 0.29706 0.18065 0.0
C19 C 0.99089 0.27362 0.20363 0.0
C20 C 0.97101 0.22047 0.27043 0.0
C21 C 0.95606 0.19011 0.27129 0.0
C22 C 0.96605 0.16674 0.29365 0.0
C23 C 0.99112 0.17337 0.31576 0.0
C24 C 0.00796 0.20271 0.31285 0.0
C25 C 0.99826 0.22587 0.29008 0.0
C26 C 0.95405 0.28631 0.28265 0.0
C27 C 0.93533 0.28703 0.31094 0.0
C28 C 0.94154 0.31018 0.33477 0.0
C29 C 0.96667 0.33266 0.33049 0.0
C30 C 0.98535 0.33169 0.30218 0.0
C31 C 0.97922 0.30864 0.27861 0.0
P32 P 0.75532 0.94885 0.25131 0.0
H33 H 0.71531 0.91188 0.20836 0.0
H34 H 0.67513 0.92794 0.16857 0.0
H35 H 0.71127 0.02559 0.17145 0.0
H36 H 0.75184 0.00925 0.2121 0.0
H37 H 0.82428 0.93355 0.25467 0.0
H38 H 0.86532 0.95063 0.29344 0.0
H39 H 0.80264 0.02736 0.32606 0.0
H40 H 0.76175 0.01045 0.28674 0.0
H41 H 0.74023 0.91598 0.31225 0.0
H42 H 0.702 0.99509 0.25597 0.0
O43 O 0.76476 0.9097 0.25001 0.0
H44 H 0.69919 0.92627 0.35406 0.0
H45 H 0.66169 0.00524 0.29699 0.0
C46 C 0.737 0.95921 0.21295 0.0
C47 C 0.71563 0.93652 0.19961 0.0
C48 C 0.69217 0.94584 0.17725 0.0
C49 C 0.68956 0.97814 0.16748 0.0
C50 C 0.71268 1.00051 0.1787 0.0
C51 C 0.73617 0.99114 0.20154 0.0
C52 C 0.78963 0.97034 0.26795 0.0
C53 C 0.81976 0.95484 0.26919 0.0
C54 C 0.84321 0.96453 0.29164 0.0
C55 C 0.83694 0.98989 0.31346 0.0
C56 C 0.80791 0.00727 0.31013 0.0
C57 C 0.78464 0.99781 0.2873 0.0
C58 C 0.72353 0.95398 0.28045 0.0
C59 C 0.72274 0.93508 0.30858 0.0
C60 C 0.69957 0.94116 0.33249 0.0
C61 C 0.67712 0.96631 0.32845 0.0
C62 C 0.67819 0.98521 0.30034 0.0
C63 C 0.70129 0.97924 0.2767 0.0
P64 P 0.05384 0.75391 0.25081 0.0
H65 H 0.05244 0.76223 0.18017 0.0
H66 H 0.03566 0.72522 0.13746 0.0
H67 H 0.98978 0.66457 0.20954 0.0
H68 H 0.00351 0.70319 0.25083 0.0
H69 H 0.09258 0.79982 0.28552 0.0
H70 H 0.07836 0.84087 0.32516 0.0
H71 H 0.97809 0.83334 0.29722 0.0
H72 H 0.99254 0.79132 0.25738 0.0
H73 H 0.08919 0.69434 0.26478 0.0
H74 H 0.01441 0.75164 0.30983 0.0
O75 O 0.09189 0.756 0.2374 0.0
H76 H 0.08269 0.65345 0.30736 0.0
H77 H 0.00796 0.71154 0.35162 0.0
C78 C 0.03002 0.73534 0.21896 0.0
C79 C 0.03753 0.74167 0.18648 0.0
C80 C 0.02854 0.71982 0.16209 0.0
C81 C 0.01255 0.69063 0.16978 0.0
C82 C 0.00221 0.68629 0.20205 0.0
C83 C 0.01036 0.70862 0.22614 0.0
C84 C 0.04374 0.79276 0.26801 0.0
C85 C 0.06766 0.8078 0.28681 0.0
C86 C 0.05946 0.83093 0.30995 0.0
C87 C 0.02708 0.83982 0.31472 0.0
C88 C 0.00327 0.82683 0.29405 0.0
C89 C 0.01152 0.80319 0.27096 0.0
C90 C 0.05306 0.72655 0.28458 0.0
C91 C 0.07202 0.69853 0.28415 0.0
C92 C 0.06806 0.67512 0.30822 0.0
C93 C 0.04501 0.67954 0.33289 0.0
C94 C 0.02643 0.70782 0.33336 0.0
C95 C 0.03025 0.73095 0.30935 0.0
P96 P 0.25317 0.94842 0.25162 0.0
H97 H 0.20975 0.91194 0.29161 0.0
H98 H 0.16995 0.92853 0.33161 0.0
H99 H 0.17371 0.02592 0.29485 0.0
H100 H 0.21434 0.00903 0.25444 0.0
H101 H 0.25736 0.9322 0.18283 0.0
H102 H 0.29648 0.94883 0.1419 0.0
H103 H 0.32828 0.02644 0.204 0.0
H104 H 0.2886 0.00999 0.24477 0.0
H105 H 0.31323 0.91486 0.26819 0.0
H106 H 0.25801 0.99581 0.30397 0.0
O107 O 0.25178 0.90917 0.24256 0.0
H108 H 0.35461 0.92535 0.30955 0.0
H109 H 0.29864 0.00616 0.34462 0.0
C110 C 0.21478 0.9591 0.26963 0.0
C111 C 0.20119 0.93663 0.29111 0.0
C112 C 0.17883 0.94625 0.31447 0.0
C113 C 0.16933 0.97864 0.31687 0.0
C114 C 0.18077 1.00079 0.29361 0.0
C115 C 0.20359 0.9911 0.27021 0.0
C116 C 0.27019 0.96948 0.21719 0.0
C117 C 0.27178 0.95357 0.18724 0.0
C118 C 0.29445 0.963 0.16386 0.0
C119 C 0.31612 0.98849 0.17002 0.0
C120 C 0.31248 0.00623 0.19884 0.0
C121 C 0.28944 0.99703 0.22203 0.0
C122 C 0.28198 0.9538 0.28365 0.0
C123 C 0.30969 0.93442 0.28521 0.0
C124 C 0.33336 0.9406 0.30856 0.0
C125 C 0.32951 0.96634 0.33042 0.0
C126 C 0.30181 0.9857 0.32859 0.0
C127 C 0.2784 0.97962 0.30531 0.0
P128 P 0.95196 0.75465 0.7538 0.0
H129 H 0.94008 0.74867 0.8234 0.0
H130 H 0.95816 0.70853 0.86242 0.0
H131 H 0.02892 0.6738 0.79383 0.0
H132 H 0.01101 0.71477 0.75477 0.0
H133 H 0.93882 0.82389 0.74957 0.0
H134 H 0.95508 0.86412 0.70981 0.0
H135 H 0.02506 0.7975 0.67028 0.0
H136 H 0.00864 0.75712 0.71054 0.0
H137 H 0.94358 0.68419 0.75753 0.0
H138 H 0.93768 0.75799 0.684 0.0
O139 O 0.91674 0.76805 0.7683 0.0
H140 H 0.94875 0.64325 0.71604 0.0
H141 H 0.94087 0.71676 0.64202 0.0
C142 C 0.9741 0.73484 0.78604 0.0
C143 C 0.96033 0.73336 0.81705 0.0
C144 C 0.97057 0.71013 0.83936 0.0
C145 C 0.9946 0.68756 0.83102 0.0
C146 C 0.01005 0.69056 0.80078 0.0
C147 C 1.00021 0.71436 0.77866 0.0
C148 C 0.97244 0.78738 0.73313 0.0
C149 C 0.95844 0.81818 0.73316 0.0
C150 C 0.96771 0.84123 0.7102 0.0
C151 C 0.99105 0.8339 0.68647 0.0
C152 C 0.00667 0.80375 0.6879 0.0
C153 C 0.99767 0.78082 0.71127 0.0
C154 C 0.94303 0.72434 0.72384 0.0
C155 C 0.943 0.69163 0.73241 0.0
C156 C 0.94545 0.66805 0.70851 0.0
C157 C 0.94665 0.67686 0.67562 0.0
C158 C 0.94161 0.70935 0.66717 0.0
C159 C 0.93965 0.73294 0.69118 0.0
P160 P 0.25104 0.95126 0.75479 0.0
H161 H 0.29062 0.91448 0.79829 0.0
H162 H 0.33094 0.93064 0.83787 0.0
H163 H 0.29563 0.02851 0.83401 0.0
H164 H 0.25486 0.01205 0.79357 0.0
H165 H 0.1823 0.93495 0.75123 0.0
H166 H 0.14139 0.95048 0.71172 0.0
H167 H 0.20317 0.02753 0.67801 0.0
H168 H 0.24396 0.01211 0.71801 0.0
H169 H 0.26789 0.917 0.69508 0.0
H170 H 0.30309 0.99887 0.74937 0.0
O171 O 0.24203 0.91201 0.75633 0.0
H172 H 0.30951 0.9269 0.65377 0.0
H173 H 0.3441 0.00855 0.70888 0.0
C174 C 0.26928 0.96191 0.79318 0.0
C175 C 0.29049 0.93921 0.80677 0.0
C176 C 0.31405 0.94858 0.82903 0.0
C177 C 0.31698 0.98096 0.83845 0.0
C178 C 0.294 0.00338 0.82703 0.0
C179 C 0.27038 0.99393 0.80431 0.0
C180 C 0.21654 0.97199 0.73748 0.0
C181 C 0.18665 0.95599 0.73629 0.0
C182 C 0.16326 0.96479 0.71338 0.0
C183 C 0.16931 0.98977 0.69105 0.0
C184 C 0.19806 0.00767 0.69429 0.0
C185 C 0.22128 0.99909 0.71754 0.0
C186 C 0.28305 0.95644 0.72589 0.0
C187 C 0.28484 0.93664 0.69844 0.0
C188 C 0.30835 0.94247 0.67482 0.0
C189 C 0.33017 0.96824 0.67848 0.0
C190 C 0.32809 0.98806 0.70589 0.0
C191 C 0.30462 0.98236 0.72922 0.0
P192 P 0.05713 0.25244 0.75331 0.0
H193 H 0.07725 0.25963 0.82082 0.0
H194 H 0.0607 0.29807 0.86214 0.0
H195 H 0.9785 0.32535 0.80377 0.0
H196 H 0.99508 0.2862 0.76233 0.0
H197 H 0.07005 0.18316 0.74859 0.0
H198 H 0.05234 0.14293 0.70937 0.0
H199 H 0.9813 0.20977 0.67229 0.0
H200 H 0.99907 0.25006 0.71202 0.0
H201 H 0.0591 0.32348 0.75855 0.0
H202 H 0.06915 0.25189 0.68324 0.0
O203 O 0.094 0.23976 0.76379 0.0
H204 H 0.05124 0.36498 0.71808 0.0
H205 H 0.06327 0.29388 0.64227 0.0
C206 C 0.03744 0.26989 0.78838 0.0
C207 C 0.05494 0.27283 0.81732 0.0
C208 C 0.04552 0.29509 0.84097 0.0
C209 C 0.01857 0.3152 0.83602 0.0
C210 C 0.99962 0.31051 0.80809 0.0
C211 C 0.00876 0.28771 0.78464 0.0
C212 C 0.03606 0.21976 0.73322 0.0
C213 C 0.04993 0.1889 0.73283 0.0
C214 C 0.03982 0.16587 0.71021 0.0
C215 C 0.01575 0.1733 0.68728 0.0
C216 C 1.00025 0.20347 0.68927 0.0
C217 C 0.01007 0.22635 0.71231 0.0
C218 C 0.06221 0.28418 0.72393 0.0
C219 C 0.05984 0.31661 0.73328 0.0
C220 C 0.05588 0.34057 0.70996 0.0
C221 C 0.05539 0.33258 0.67687 0.0
C222 C 0.06208 0.3006 0.6676 0.0
C223 C 0.06564 0.27659 0.69102 0.0
P224 P 0.75577 0.05962 0.75477 0.0
H225 H 0.71946 0.09637 0.80115 0.0
H226 H 0.6795 0.08013 0.84117 0.0
H227 H 0.71095 0.98127 0.83256 0.0
H228 H 0.75117 0.99776 0.79153 0.0
H229 H 0.8255 0.07112 0.75116 0.0
H230 H 0.86511 0.05436 0.71072 0.0
H231 H 0.7974 0.9843 0.67334 0.0
H232 H 0.75793 1.00084 0.71431 0.0
H233 H 0.74335 0.09109 0.69272 0.0
H234 H 0.69663 0.02017 0.75358 0.0
O235 O 0.76688 0.09828 0.75712 0.0
H236 H 0.70168 0.08235 0.65122 0.0
H237 H 0.65588 0.01155 0.71293 0.0
C238 C 0.73874 0.0484 0.79356 0.0
C239 C 0.71889 0.07135 0.80872 0.0
C240 C 0.69555 0.06198 0.83124 0.0
C241 C 0.69162 0.02938 0.83943 0.0
C242 C 0.71342 0.00659 0.82654 0.0
C243 C 0.73674 0.01603 0.8035 0.0
C244 C 0.78851 0.03757 0.73573 0.0
C245 C 0.81952 0.05128 0.73516 0.0
C246 C 0.84214 0.04181 0.71173 0.0
C247 C 0.83417 0.01848 0.68823 0.0
C248 C 0.80405 0.00285 0.69059 0.0
C249 C 0.7816 0.01203 0.71438 0.0
C250 C 0.72273 0.05705 0.72668 0.0
C251 C 0.72386 0.07428 0.6975 0.0
C252 C 0.70032 0.06905 0.67378 0.0
C253 C 0.67549 0.04648 0.67912 0.0
C254 C 0.67432 0.02962 0.7085 0.0
C255 C 0.6978 0.03468 0.73193 0.0
P256 P 0.25333 0.25422 0.94875 0.0
H257 H 0.28312 0.20255 0.91258 0.0
H258 H 0.3237 0.16296 0.92814 0.0
H259 H 0.30613 0.184 0.02895 0.0
H260 H 0.26556 0.22468 0.01313 0.0
H261 H 0.18325 0.25603 0.93877 0.0
H262 H 0.14285 0.29485 0.95701 0.0
H263 H 0.21117 0.33357 0.02593 0.0
H264 H 0.25152 0.29423 0.00776 0.0
H265 H 0.32218 0.25164 0.96883 0.0
H266 H 0.25553 0.32186 0.9296 0.0
O267 O 0.24097 0.25007 0.91047 0.0
H268 H 0.3618 0.29317 0.97731 0.0
H269 H 0.29634 0.3641 0.93739 0.0
C270 C 0.27071 0.21629 0.96166 0.0
C271 C 0.28683 0.19786 0.93812 0.0
C272 C 0.31052 0.17555 0.94699 0.0
C273 C 0.31844 0.17085 0.97967 0.0
C274 C 0.30047 0.18726 0.00354 0.0
C275 C 0.27694 0.21012 0.99457 0.0
C276 C 0.2206 0.27233 0.97159 0.0
C277 C 0.18924 0.27198 0.95866 0.0
C278 C 0.16613 0.29444 0.96903 0.0
C279 C 0.17398 0.31786 0.99248 0.0
C280 C 0.20456 0.31632 0.00737 0.0
C281 C 0.22751 0.29349 0.99729 0.0
C282 C 0.28544 0.28356 0.94886 0.0
C283 C 0.31597 0.27583 0.96147 0.0
C284 C 0.33901 0.29976 0.96616 0.0
C285 C 0.33214 0.33194 0.95819 0.0
C286 C 0.3021 0.33952 0.94417 0.0
C287 C 0.27895 0.31541 0.93942 0.0
P288 P 0.25454 0.75622 0.94859 0.0
H289 H 0.21347 0.71562 0.91017 0.0
H290 H 0.17365 0.67504 0.92481 0.0
H291 H 0.17306 0.71053 0.0231 0.0
H292 H 0.21368 0.75158 0.00816 0.0
H293 H 0.25744 0.8248 0.93215 0.0
H294 H 0.29577 0.86623 0.94898 0.0
H295 H 0.32734 0.80549 0.02781 0.0
H296 H 0.28842 0.76425 0.01122 0.0
H297 H 0.31497 0.73968 0.91536 0.0
H298 H 0.26014 0.70572 0.99768 0.0
O299 O 0.25424 0.76514 0.90913 0.0
H300 H 0.3565 0.69885 0.92658 0.0
H301 H 0.30098 0.66559 0.00881 0.0
C302 C 0.2163 0.7371 0.9579 0.0
C303 C 0.20398 0.71568 0.93464 0.0
C304 C 0.1816 0.69197 0.94316 0.0
C305 C 0.17079 0.68907 0.97524 0.0
C306 C 0.1811 0.71212 0.99817 0.0
C307 C 0.20393 0.73589 0.98959 0.0
C308 C 0.27023 0.79104 0.97 0.0
C309 C 0.27159 0.82079 0.95385 0.0
C310 C 0.29382 0.84448 0.96339 0.0
C311 C 0.31528 0.83883 0.98926 0.0
C312 C 0.31172 0.81026 0.0073 0.0
C313 C 0.2891 0.78677 0.998 0.0
C314 C 0.2839 0.72502 0.95493 0.0
C315 C 0.31158 0.7232 0.93544 0.0
C316 C 0.33535 0.70016 0.94203 0.0
C317 C 0.33163 0.67889 0.96832 0.0
C318 C 0.30405 0.68114 0.98792 0.0
C319 C 0.28052 0.70409 0.9814 0.0
P320 P 0.7554 0.25197 0.95125 0.0
H321 H 0.79823 0.29119 0.91325 0.0
H322 H 0.83831 0.33132 0.92839 0.0
H323 H 0.83596 0.29694 0.02704 0.0
H324 H 0.79505 0.25636 0.01161 0.0
H325 H 0.75231 0.18312 0.93602 0.0
H326 H 0.71325 0.14224 0.95263 0.0
H327 H 0.67967 0.20483 0.02918 0.0
H328 H 0.71927 0.24554 0.01279 0.0
H329 H 0.69507 0.268 0.91777 0.0
H330 H 0.75066 0.30448 0.99842 0.0
O331 O 0.75635 0.24254 0.91192 0.0
H332 H 0.65372 0.30928 0.92806 0.0
H333 H 0.71008 0.34508 0.00856 0.0
C334 C 0.79387 0.27033 0.96115 0.0
C335 C 0.80714 0.29124 0.93793 0.0
C336 C 0.82968 0.31469 0.94672 0.0
C337 C 0.83971 0.31781 0.97902 0.0
C338 C 0.82853 0.29516 0.00195 0.0
C339 C 0.80553 0.27166 0.99309 0.0
C340 C 0.73859 0.21773 0.97276 0.0
C341 C 0.73752 0.18766 0.9572 0.0
C342 C 0.71488 0.1643 0.96661 0.0
C343 C 0.6927 0.17058 0.99175 0.0
C344 C 0.69586 0.19954 0.00923 0.0
C345 C 0.71886 0.22272 1.00007 0.0
C346 C 0.72651 0.28382 0.95655 0.0
C347 C 0.69869 0.28515 0.93723 0.0
C348 C 0.67504 0.30847 0.9433 0.0
C349 C 0.67902 0.33052 0.96887 0.0
C350 C 0.7068 0.32889 0.98821 0.0
C351 C 0.73019 0.30564 0.98224 0.0
P352 P 0.75496 0.75382 0.04753 0.0
H353 H 0.82547 0.76066 0.04351 0.0
H354 H 0.86716 0.72304 0.02622 0.0
H355 H 0.79321 0.66078 0.98597 0.0
H356 H 0.75246 0.7005 1.00005 0.0
H357 H 0.74704 0.82114 0.06684 0.0
H358 H 0.70718 0.86138 0.05136 0.0
H359 H 0.67633 0.80102 0.97193 0.0
H360 H 0.71714 0.76062 0.98735 0.0
H361 H 0.75778 0.68661 0.06966 0.0
H362 H 0.68347 0.75753 0.05173 0.0
O363 O 0.77193 0.76616 0.08207 0.0
H364 H 0.71685 0.64403 0.06918 0.0
H365 H 0.64317 0.71546 0.04946 0.0
C366 C 0.78567 0.73291 0.02416 0.0
C367 C 0.8184 0.73945 0.02991 0.0
C368 C 0.84226 0.7173 0.02059 0.0
C369 C 0.83385 0.68752 0.00616 0.0
C370 C 0.80118 0.68291 0.99732 0.0
C371 C 0.77752 0.70574 0.00557 0.0
C372 C 0.73535 0.78783 0.02818 0.0
C373 C 0.73272 0.81693 0.0453 0.0
C374 C 0.70962 0.83995 0.03654 0.0
C375 C 0.68821 0.83422 0.01068 0.0
C376 C 0.69221 0.80595 0.9922 0.0
C377 C 0.71592 0.78313 1.00062 0.0
C378 C 0.72408 0.72492 0.05814 0.0
C379 C 0.73269 0.6931 0.06578 0.0
C380 C 0.70932 0.66876 0.06532 0.0
C381 C 0.67696 0.67616 0.05786 0.0
C382 C 0.66791 0.7087 0.05472 0.0
C383 C 0.69125 0.73292 0.05539 0.0
P384 P 0.45281 0.75167 0.75255 0.0
H385 H 0.41515 0.78883 0.70775 0.0
H386 H 0.43061 0.82948 0.66825 0.0
H387 H 0.52992 0.79803 0.67423 0.0
H388 H 0.51419 0.75705 0.71466 0.0
H389 H 0.44159 0.68208 0.75607 0.0
H390 H 0.45887 0.64255 0.79627 0.0
H391 H 0.52923 0.7102 0.83315 0.0
H392 H 0.51231 0.74952 0.79236 0.0
H393 H 0.4168 0.76773 0.81152 0.0
H394 H 0.49684 0.80681 0.75679 0.0
O395 O 0.4141 0.74032 0.75043 0.0
H396 H 0.42434 0.81026 0.85229 0.0
H397 H 0.50417 0.8486 0.79666 0.0
C398 C 0.46339 0.76947 0.71395 0.0
C399 C 0.44009 0.78959 0.69971 0.0
C400 C 0.44904 0.81335 0.67752 0.0
C401 C 0.48156 0.81748 0.66876 0.0
C402 C 0.50466 0.79547 0.68072 0.0
C403 C 0.49565 0.7717 0.70341 0.0
C404 C 0.47527 0.71905 0.77125 0.0
C405 C 0.46161 0.68807 0.77189 0.0
C406 C 0.47137 0.6655 0.79518 0.0
C407 C 0.49492 0.6735 0.8185 0.0
C408 C 0.51051 0.70356 0.81604 0.0
C409 C 0.50106 0.72595 0.79237 0.0
C410 C 0.4555 0.78466 0.78053 0.0
C411 C 0.43544 0.78574 0.80788 0.0
C412 C 0.43991 0.8098 0.83118 0.0
C413 C 0.46457 0.83285 0.82727 0.0
C414 C 0.48445 0.83165 0.79982 0.0
C415 C 0.48011 0.80766 0.77683 0.0
P416 P 0.25666 0.45523 0.75361 0.0
H417 H 0.26072 0.45829 0.68282 0.0
H418 H 0.2215 0.4756 0.64248 0.0
H419 H 0.16283 0.51755 0.71851 0.0
H420 H 0.20401 0.50316 0.75791 0.0
H421 H 0.32336 0.43411 0.76241 0.0
H422 H 0.36451 0.45098 0.80089 0.0
H423 H 0.30727 0.53452 0.82572 0.0
H424 H 0.26597 0.51762 0.78634 0.0
H425 H 0.18988 0.43186 0.75365 0.0
H426 H 0.26204 0.45589 0.8253 0.0
O427 O 0.26792 0.4204 0.73673 0.0
H428 H 0.14798 0.43427 0.79539 0.0
H429 H 0.22055 0.46002 0.86628 0.0
C430 C 0.23478 0.47836 0.72354 0.0
C431 C 0.23997 0.47224 0.69061 0.0
C432 C 0.21697 0.48161 0.66759 0.0
C433 C 0.18776 0.49654 0.67713 0.0
C434 C 0.18453 0.50578 0.70986 0.0
C435 C 0.20818 0.49736 0.73267 0.0
C436 C 0.29161 0.4747 0.77122 0.0
C437 C 0.32012 0.45679 0.775 0.0
C438 C 0.34364 0.46637 0.7973 0.0
C439 C 0.33895 0.49386 0.81671 0.0
C440 C 0.31137 0.51304 0.81135 0.0
C441 C 0.28805 0.50373 0.78845 0.0
C442 C 0.22875 0.44588 0.78584 0.0
C443 C 0.1968 0.43731 0.77837 0.0
C444 C 0.17285 0.43895 0.80217 0.0
C445 C 0.18075 0.44867 0.83384 0.0
C446 C 0.21346 0.45297 0.84204 0.0
C447 C 0.23732 0.45115 0.81829 0.0
P448 P 0.55723 0.25723 0.75151 0.0
H449 H 0.59441 0.21804 0.70797 0.0
H450 H 0.57869 0.17783 0.66815 0.0
H451 H 0.48019 0.21197 0.67209 0.0
H452 H 0.49617 0.25256 0.71287 0.0
H453 H 0.57251 0.32609 0.75456 0.0
H454 H 0.55692 0.36684 0.79414 0.0
H455 H 0.48125 0.30417 0.82946 0.0
H456 H 0.49677 0.2635 0.78945 0.0
H457 H 0.59222 0.2411 0.81101 0.0
H458 H 0.51052 0.20446 0.75718 0.0
O459 O 0.59644 0.26678 0.74964 0.0
H460 H 0.58329 0.19942 0.85237 0.0
H461 H 0.5018 0.16339 0.79771 0.0
C462 C 0.54662 0.2388 0.71317 0.0
C463 C 0.56962 0.21793 0.69948 0.0
C464 C 0.56051 0.19445 0.67707 0.0
C465 C 0.52811 0.19126 0.66753 0.0
C466 C 0.50536 0.21383 0.67913 0.0
C467 C 0.51452 0.23734 0.70205 0.0
C468 C 0.53618 0.2914 0.76909 0.0
C469 C 0.55174 0.32148 0.76989 0.0
C470 C 0.5429 0.3448 0.79283 0.0
C471 C 0.5183 0.33851 0.81562 0.0
C472 C 0.50081 0.3095 0.81283 0.0
C473 C 0.50944 0.28634 0.78956 0.0
C474 C 0.55279 0.22524 0.78043 0.0
C475 C 0.57283 0.22383 0.80776 0.0
C476 C 0.56756 0.20027 0.8314 0.0
C477 C 0.54212 0.17803 0.82788 0.0
C478 C 0.52207 0.17973 0.80059 0.0
C479 C 0.52721 0.20325 0.77724 0.0
P480 P 0.75209 0.44529 0.75213 0.0
H481 H 0.71006 0.40963 0.79431 0.0
H482 H 0.67126 0.42687 0.83502 0.0
H483 H 0.674 0.52363 0.79646 0.0
H484 H 0.71353 0.50605 0.7553 0.0
H485 H 0.75768 0.42723 0.68391 0.0
H486 H 0.79672 0.44422 0.64312 0.0
H487 H 0.82391 0.5252 0.70302 0.0
H488 H 0.78424 0.50836 0.74367 0.0
H489 H 0.81295 0.41203 0.76661 0.0
H490 H 0.75887 0.4932 0.80363 0.0
O491 O 0.75023 0.40597 0.74348 0.0
H492 H 0.85583 0.42303 0.80635 0.0
H493 H 0.80094 0.50411 0.84251 0.0
C494 C 0.71442 0.45639 0.77136 0.0
C495 C 0.70148 0.43432 0.79363 0.0
C496 C 0.67971 0.44433 0.81739 0.0
C497 C 0.6702 0.47675 0.81946 0.0
C498 C 0.68107 0.49849 0.79552 0.0
C499 C 0.70326 0.4884 0.7717 0.0
C500 C 0.76818 0.46618 0.71717 0.0
C501 C 0.77101 0.44938 0.68782 0.0
C502 C 0.79364 0.45903 0.66452 0.0
C503 C 0.81407 0.48562 0.67018 0.0
C504 C 0.80908 0.50417 0.69828 0.0
C505 C 0.78604 0.49475 0.72138 0.0
C506 C 0.78213 0.45097 0.78293 0.0
C507 C 0.81 0.43175 0.78356 0.0
C508 C 0.83454 0.43825 0.80593 0.0
C509 C 0.83137 0.46415 0.82769 0.0
C510 C 0.80361 0.4835 0.82658 0.0
C511 C 0.77934 0.47707 0.80434 0.0
P512 P 0.4482 0.25491 0.25482 0.0
H513 H 0.41117 0.21573 0.2985 0.0
H514 H 0.42732 0.17558 0.33818 0.0
H515 H 0.5255 0.21078 0.33421 0.0
H516 H 0.50906 0.25133 0.29365 0.0
H517 H 0.43288 0.32364 0.25089 0.0
H518 H 0.44916 0.36406 0.21122 0.0
H519 H 0.52531 0.30112 0.17761 0.0
H520 H 0.50923 0.26085 0.21784 0.0
H521 H 0.41479 0.23909 0.19437 0.0
H522 H 0.49458 0.2017 0.25049 0.0
O523 O 0.40894 0.26429 0.25628 0.0
H524 H 0.42512 0.19794 0.15282 0.0
H525 H 0.50474 0.16129 0.20975 0.0
C526 C 0.45876 0.23696 0.29332 0.0
C527 C 0.43596 0.21587 0.30699 0.0
C528 C 0.44532 0.19241 0.32929 0.0
C529 C 0.47779 0.1895 0.3387 0.0
C530 C 0.5003 0.21239 0.32723 0.0
C531 C 0.49087 0.2359 0.30446 0.0
C532 C 0.46947 0.2889 0.23726 0.0
C533 C 0.45389 0.31892 0.23594 0.0
C534 C 0.4631 0.34201 0.21293 0.0
C535 C 0.48806 0.33551 0.19062 0.0
C536 C 0.5055 0.30657 0.1939 0.0
C537 C 0.49653 0.28366 0.21727 0.0
C538 C 0.45312 0.22282 0.22609 0.0
C539 C 0.43401 0.22174 0.1981 0.0
C540 C 0.44011 0.19851 0.17433 0.0
C541 C 0.46549 0.17631 0.17839 0.0
C542 C 0.48453 0.17761 0.20641 0.0
C543 C 0.47855 0.20076 0.2299 0.0
P544 P 0.75507 0.55884 0.25237 0.0
H545 H 0.6872 0.57752 0.24566 0.0
H546 H 0.64563 0.55917 0.20826 0.0
H547 H 0.705 0.47751 0.18217 0.0
H548 H 0.74667 0.49587 0.22034 0.0
H549 H 0.7601 0.57427 0.32138 0.0
H550 H 0.79948 0.55832 0.36224 0.0
H551 H 0.83704 0.48557 0.29744 0.0
H552 H 0.79719 0.50164 0.25648 0.0
H553 H 0.7495 0.55795 0.18099 0.0
H554 H 0.82473 0.57218 0.25209 0.0
O555 O 0.74419 0.59588 0.2639 0.0
H556 H 0.78996 0.54974 0.13935 0.0
H557 H 0.86559 0.56591 0.20992 0.0
C558 C 0.72017 0.53813 0.23591 0.0
C559 C 0.6909 0.55496 0.23297 0.0
C560 C 0.6671 0.5445 0.21132 0.0
C561 C 0.67222 0.51715 0.1918 0.0
C562 C 0.70053 0.4989 0.19656 0.0
C563 C 0.72413 0.50908 0.21879 0.0
C564 C 0.77569 0.53929 0.28574 0.0
C565 C 0.77604 0.55419 0.31623 0.0
C566 C 0.79877 0.54509 0.33961 0.0
C567 C 0.82183 0.52099 0.33294 0.0
C568 C 0.81998 0.50457 0.30315 0.0
C569 C 0.79686 0.51341 0.2799 0.0
C570 C 0.78415 0.56323 0.22014 0.0
C571 C 0.77473 0.55951 0.18772 0.0
C572 C 0.79801 0.55534 0.16367 0.0
C573 C 0.8311 0.55595 0.17153 0.0
C574 C 0.8403 0.56388 0.20336 0.0
C575 C 0.81695 0.56765 0.22746 0.0
P576 P 0.55829 0.75296 0.25398 0.0
H577 H 0.59635 0.7919 0.29701 0.0
H578 H 0.58129 0.83132 0.33789 0.0
H579 H 0.48293 0.79646 0.33576 0.0
H580 H 0.49827 0.75662 0.29405 0.0
H581 H 0.57329 0.68405 0.25155 0.0
H582 H 0.55619 0.64271 0.21316 0.0
H583 H 0.47979 0.70522 0.17937 0.0
H584 H 0.4967 0.74638 0.21828 0.0
H585 H 0.59018 0.76816 0.19255 0.0
H586 H 0.51191 0.80628 0.25035 0.0
O587 O 0.59759 0.74364 0.25449 0.0
H588 H 0.57932 0.80923 0.15111 0.0
H589 H 0.50114 0.84666 0.2096 0.0
C590 C 0.54858 0.77088 0.29272 0.0
C591 C 0.57177 0.79169 0.30613 0.0
C592 C 0.56303 0.8147 0.32915 0.0
C593 C 0.53082 0.81746 0.33949 0.0
C594 C 0.50795 0.7949 0.32811 0.0
C595 C 0.51675 0.77184 0.30464 0.0
C596 C 0.53667 0.71862 0.23763 0.0
C597 C 0.55206 0.68848 0.23686 0.0
C598 C 0.54235 0.66485 0.21463 0.0
C599 C 0.51711 0.67097 0.19257 0.0
C600 C 0.4998 0.70005 0.19549 0.0
C601 C 0.50926 0.72349 0.21808 0.0
C602 C 0.55263 0.78479 0.22506 0.0
C603 C 0.57112 0.78563 0.19662 0.0
C604 C 0.56471 0.80882 0.1729 0.0
C605 C 0.53961 0.83126 0.17742 0.0
C606 C 0.52111 0.83015 0.20585 0.0
C607 C 0.52742 0.80701 0.22933 0.0
P608 P 0.25498 0.55634 0.2557 0.0
H609 H 0.21853 0.59376 0.30139 0.0
H610 H 0.17945 0.57834 0.34261 0.0
H611 H 0.21111 0.47943 0.33579 0.0
H612 H 0.25046 0.49506 0.29354 0.0
H613 H 0.32475 0.56797 0.25358 0.0
H614 H 0.36511 0.55173 0.21366 0.0
H615 H 0.29832 0.48175 0.17453 0.0
H616 H 0.25813 0.49773 0.21496 0.0
H617 H 0.241 0.58922 0.19472 0.0
H618 H 0.19786 0.51429 0.25328 0.0
O619 O 0.26578 0.59512 0.25754 0.0
H620 H 0.19935 0.58041 0.15331 0.0
H621 H 0.15697 0.50551 0.21254 0.0
C622 C 0.23789 0.5457 0.29462 0.0
C623 C 0.21818 0.56892 0.30954 0.0
C624 C 0.19539 0.56002 0.3328 0.0
C625 C 0.19184 0.52764 0.34194 0.0
C626 C 0.21336 0.50459 0.32908 0.0
C627 C 0.23615 0.51354 0.3053 0.0
C628 C 0.28814 0.53445 0.23719 0.0
C629 C 0.31913 0.54824 0.23731 0.0
C630 C 0.34218 0.53907 0.21418 0.0
C631 C 0.33468 0.51596 0.19031 0.0
C632 C 0.30461 0.50015 0.19206 0.0
C633 C 0.28172 0.50905 0.21553 0.0
C634 C 0.22206 0.55315 0.22755 0.0
C635 C 0.22227 0.57143 0.19901 0.0
C636 C 0.19874 0.56617 0.17531 0.0
C637 C 0.17486 0.54245 0.17994 0.0
C638 C 0.17465 0.52443 0.20867 0.0
C639 C 0.19814 0.52959 0.23213 0.0
P640 P 0.75154 0.753 0.44983 0.0
H641 H 0.78983 0.70948 0.41174 0.0
H642 H 0.83009 0.66949 0.42675 0.0
H643 H 0.79737 0.67345 0.52595 0.0
H644 H 0.75673 0.7143 0.51066 0.0
H645 H 0.68208 0.75647 0.43687 0.0
H646 H 0.64198 0.79603 0.45417 0.0
H647 H 0.70764 0.83055 0.52772 0.0
H648 H 0.74752 0.79036 0.51077 0.0
H649 H 0.76628 0.81322 0.41585 0.0
H650 H 0.8063 0.75737 0.49454 0.0
O651 O 0.74093 0.75148 0.41083 0.0
H652 H 0.80761 0.8548 0.42504 0.0
H653 H 0.84681 0.79821 0.5037 0.0
C654 C 0.76981 0.71464 0.45994 0.0
C655 C 0.79026 0.70094 0.43654 0.0
C656 C 0.81378 0.67845 0.44524 0.0
C657 C 0.8174 0.66888 0.47762 0.0
C658 C 0.79519 0.68051 0.50079 0.0
C659 C 0.77164 0.70348 0.49203 0.0
C660 C 0.71811 0.77054 0.47213 0.0
C661 C 0.68747 0.77159 0.45758 0.0
C662 C 0.66458 0.79452 0.46736 0.0
C663 C 0.67192 0.81705 0.49182 0.0
C664 C 0.70153 0.81406 0.5083 0.0
C665 C 0.72423 0.79073 0.49883 0.0
C666 C 0.78384 0.78165 0.45371 0.0
C667 C 0.78425 0.80957 0.43458 0.0
C668 C 0.80757 0.83337 0.44005 0.0
C669 C 0.83054 0.82944 0.46485 0.0
C670 C 0.82991 0.80148 0.48391 0.0
C671 C 0.80669 0.77793 0.47851 0.0
P672 P 0.75252 0.25754 0.45251 0.0
H673 H 0.70933 0.21937 0.41393 0.0
H674 H 0.66943 0.17879 0.42836 0.0
H675 H 0.67262 0.21046 0.52788 0.0
H676 H 0.71342 0.25146 0.51317 0.0
H677 H 0.75511 0.32687 0.4396 0.0
H678 H 0.79459 0.36724 0.45643 0.0
H679 H 0.83037 0.30218 0.5298 0.0
H680 H 0.79034 0.262 0.51324 0.0
H681 H 0.8121 0.24198 0.4174 0.0
H682 H 0.7578 0.20393 0.49827 0.0
O683 O 0.7511 0.26814 0.4135 0.0
H684 H 0.85341 0.20028 0.42593 0.0
H685 H 0.79835 0.16293 0.50668 0.0
C686 C 0.71413 0.23892 0.46233 0.0
C687 C 0.70065 0.21864 0.43868 0.0
C688 C 0.67821 0.19493 0.44705 0.0
C689 C 0.66845 0.19093 0.47934 0.0
C690 C 0.67984 0.21294 0.50277 0.0
C691 C 0.70277 0.23669 0.49435 0.0
C692 C 0.76986 0.29108 0.47473 0.0
C693 C 0.77049 0.32165 0.46018 0.0
C694 C 0.79338 0.34472 0.4697 0.0
C695 C 0.81627 0.33765 0.49395 0.0
C696 C 0.81363 0.30811 0.51052 0.0
C697 C 0.79038 0.28522 0.50127 0.0
C698 C 0.7813 0.22541 0.45642 0.0
C699 C 0.80873 0.22439 0.43651 0.0
C700 C 0.83237 0.20083 0.44157 0.0
C701 C 0.82874 0.17823 0.46671 0.0
C702 C 0.80132 0.17954 0.48663 0.0
C703 C 0.77795 0.20302 0.48166 0.0
P704 P 0.2549 0.75241 0.45286 0.0
H705 H 0.30376 0.78474 0.41519 0.0
H706 H 0.34402 0.82485 0.43015 0.0
H707 H 0.33009 0.8017 0.53108 0.0
H708 H 0.28879 0.76143 0.51588 0.0
H709 H 0.25335 0.68246 0.4433 0.0
H710 H 0.21409 0.64225 0.46107 0.0
H711 H 0.17427 0.71066 0.52917 0.0
H712 H 0.21398 0.75081 0.51145 0.0
H713 H 0.25646 0.81777 0.48171 0.0
H714 H 0.18916 0.75836 0.42817 0.0
O715 O 0.25779 0.74029 0.41439 0.0
H716 H 0.21529 0.85787 0.48963 0.0
H717 H 0.14726 0.79962 0.43574 0.0
C718 C 0.29352 0.76954 0.46433 0.0
C719 C 0.31018 0.78713 0.44052 0.0
C720 C 0.33286 0.81056 0.44909 0.0
C721 C 0.33971 0.81684 0.48176 0.0
C722 C 0.32517 0.79736 0.50568 0.0
C723 C 0.30196 0.774 0.49702 0.0
C724 C 0.23654 0.71985 0.47572 0.0
C725 C 0.23706 0.68851 0.46293 0.0
C726 C 0.21433 0.66551 0.47302 0.0
C727 C 0.19046 0.67342 0.49608 0.0
C728 C 0.19183 0.70398 0.51088 0.0
C729 C 0.21489 0.72685 0.50104 0.0
C730 C 0.22612 0.7849 0.454 0.0
C731 C 0.2331 0.81339 0.47097 0.0
C732 C 0.20938 0.83665 0.47548 0.0
C733 C 0.1781 0.83193 0.46325 0.0
C734 C 0.17119 0.80374 0.44561 0.0
C735 C 0.19512 0.78038 0.44099 0.0
P736 P 0.25488 0.25571 0.55688 0.0
H737 H 0.29833 0.21678 0.59436 0.0
H738 H 0.33827 0.17668 0.57882 0.0
H739 H 0.33464 0.21066 0.4801 0.0
H740 H 0.29377 0.25116 0.49592 0.0
H741 H 0.25199 0.32464 0.57175 0.0
H742 H 0.21245 0.3653 0.556 0.0
H743 H 0.17696 0.30219 0.48076 0.0
H744 H 0.21702 0.26166 0.49633 0.0
H745 H 0.19499 0.23981 0.59125 0.0
H746 H 0.24981 0.20272 0.51032 0.0
O747 O 0.25644 0.26531 0.59614 0.0
H748 H 0.15352 0.19843 0.58171 0.0
H749 H 0.20913 0.16204 0.50091 0.0
C750 C 0.29329 0.23744 0.54646 0.0
C751 C 0.30691 0.21666 0.56956 0.0
C752 C 0.32939 0.19323 0.56056 0.0
C753 C 0.33904 0.19002 0.52814 0.0
C754 C 0.3275 0.21253 0.50528 0.0
C755 C 0.30453 0.23599 0.51435 0.0
C756 C 0.2374 0.28977 0.53561 0.0
C757 C 0.23665 0.31992 0.55103 0.0
C758 C 0.21371 0.34317 0.54211 0.0
C759 C 0.1909 0.33672 0.5176 0.0
C760 C 0.19362 0.30763 0.50025 0.0
C761 C 0.21691 0.28456 0.50892 0.0
C762 C 0.22606 0.22369 0.55228 0.0
C763 C 0.19844 0.22248 0.57192 0.0
C764 C 0.17472 0.19912 0.56628 0.0
C765 C 0.17845 0.17689 0.54082 0.0
C766 C 0.20606 0.17836 0.52119 0.0
C767 C 0.22951 0.20166 0.52673 0.0
C768 C 0.00255 0.926 0.58057 0.0
C769 C 0.00533 0.92737 0.42204 0.0
C770 C 0.00176 0.08186 0.58125 0.0
C771 C 0.0049 0.08276 0.42255 0.0
C772 C 0.92552 0.08271 0.49544 0.0
C773 C 0.92511 0.92675 0.49522 0.0
C774 C 0.08147 0.08231 0.50943 0.0
C775 C 0.08139 0.92645 0.49607 0.0
C776 C 0.08258 0.00477 0.4237 0.0
C777 C 0.92667 0.00406 0.42124 0.0
C778 C 0.07989 0.00229 0.5825 0.0
C779 C 0.92424 0.00481 0.58035 0.0
Eu780 Eu 0.00336 0.94307 0.50148 0.0
O781 O 0.97519 0.97626 0.473 0.0
O782 O 0.03213 0.97514 0.53079 0.0
Eu783 Eu 0.94158 0.00458 0.50096 0.0
Eu784 Eu 0.06501 0.00439 0.50277 0.0
O785 O 0.97352 0.97513 0.52988 0.0
O786 O 0.03231 0.97624 0.47389 0.0
Eu787 Eu 0.0023 0.00396 0.56216 0.0
Eu788 Eu 0.0044 0.00503 0.44118 0.0
O789 O 0.97391 0.03345 0.52998 0.0
O790 O 0.97504 0.03335 0.47317 0.0
O791 O 0.03333 0.03396 0.47349 0.0
O792 O 0.03136 0.03274 0.53035 0.0
Eu793 Eu 0.00348 0.06608 0.50185 0.0
O794 O 0.00302 0.91567 0.54978 0.0
O795 O 0.00545 0.91676 0.45272 0.0
O796 O 1.00126 0.09254 0.55058 0.0
O797 O 0.00561 0.09324 0.45331 0.0
O798 O 0.91539 0.05218 0.4972 0.0
O799 O 0.91495 0.95723 0.49719 0.0
O800 O 0.09147 0.05176 0.50745 0.0
O801 O 0.0914 0.957 0.49813 0.0
O802 O 0.05181 0.00508 0.41412 0.0
O803 O 0.9578 0.00457 0.41288 0.0
O804 O 0.04875 0.00363 0.59077 0.0
O805 O 0.95516 0.00418 0.58937 0.0
O806 O 0.05093 0.09245 0.50714 0.0
O807 O 0.95614 0.09269 0.49739 0.0
O808 O 0.05082 0.91633 0.49816 0.0
O809 O 0.95577 0.91683 0.49702 0.0
O810 O 0.00453 0.95824 0.41303 0.0
O811 O 0.00408 0.05188 0.41368 0.0
O812 O 0.00206 0.95687 0.58963 0.0
O813 O 0.00251 0.05089 0.59002 0.0
O814 O 0.9139 0.00508 0.54949 0.0
O815 O 0.91555 0.0041 0.45179 0.0
O816 O 0.09105 0.00179 0.55195 0.0
O817 O 0.09264 0.00477 0.45458 0.0
C818 C 0.5085 0.92629 0.08054 0.0
C819 C 0.49788 0.08236 0.0811 0.0
C820 C 0.49637 0.92729 0.9242 0.0
C821 C 0.51157 0.08298 0.92482 0.0
C822 C 0.58337 0.00441 0.925 0.0
C823 C 0.58239 0.00349 0.081 0.0
C824 C 0.4248 0.00617 0.9244 0.0
C825 C 0.42386 0.0032 0.08023 0.0
C826 C 0.42607 0.08404 1.00107 0.0
C827 C 0.58451 0.08119 0.00398 0.0
C828 C 0.42305 0.92854 0.00241 0.0
C829 C 0.58178 0.92567 1.00101 0.0
Eu830 Eu 0.50325 0.00438 0.06433 0.0
O831 O 0.53269 0.03325 0.03216 0.0
O832 O 0.47437 0.97597 0.03149 0.0
Eu833 Eu 0.56413 0.00373 0.00291 0.0
Eu834 Eu 0.44332 0.00607 0.00244 0.0
O835 O 0.53123 0.97554 0.0313 0.0
O836 O 0.4759 0.03393 0.03142 0.0
Eu837 Eu 0.50272 0.94315 0.00241 0.0
Eu838 Eu 0.50492 0.06637 0.00292 0.0
O839 O 0.53206 0.97518 0.9733 0.0
O840 O 0.53245 0.03291 0.9743 0.0
O841 O 0.47578 0.03468 0.97333 0.0
O842 O 0.47541 0.97702 0.97399 0.0
Eu843 Eu 0.50403 0.00506 0.94094 0.0
O844 O 0.50664 0.95681 0.09067 0.0
O845 O 0.49967 0.05175 0.09099 0.0
O846 O 0.49977 0.95774 0.91421 0.0
O847 O 0.5081 0.05261 0.9146 0.0
O848 O 0.59229 0.00368 0.95601 0.0
O849 O 0.59165 0.0034 0.05008 0.0
O850 O 0.41562 0.00694 0.95534 0.0
O851 O 0.41532 0.00523 0.0492 0.0
O852 O 0.45692 0.09385 0.9989 0.0
O853 O 0.55404 0.09232 0.00518 0.0
O854 O 0.45349 0.91737 0.00396 0.0
O855 O 0.55095 0.91551 0.99987 0.0
O856 O 0.45553 0.00557 0.91396 0.0
O857 O 0.55274 0.00475 0.91431 0.0
O858 O 0.45446 0.00218 0.09105 0.0
O859 O 0.55166 0.00406 0.09142 0.0
O860 O 0.49997 0.09261 0.05052 0.0
O861 O 0.51075 0.09286 0.95556 0.0
O862 O 0.50679 0.91636 0.04984 0.0
O863 O 0.49741 0.91712 0.95482 0.0
O864 O 0.59094 0.95644 0.0028 0.0
O865 O 0.59267 0.05011 0.00263 0.0
O866 O 0.41488 0.95963 0.00114 0.0
O867 O 0.41644 0.05348 0.00382 0.0
C868 C 0.00234 0.42618 0.08193 0.0
C869 C 0.00594 0.42257 0.92592 0.0
C870 C 0.00541 0.58393 0.07791 0.0
C871 C 0.0072 0.58094 0.92168 0.0
C872 C 0.92755 0.58243 0.99874 0.0
C873 C 0.92677 0.42493 0.00246 0.0
C874 C 0.08365 0.58186 0.99869 0.0
C875 C 0.08277 0.42406 0.00573 0.0
C876 C 0.08473 0.49177 0.92556 0.0
C877 C 0.92881 0.4962 0.92183 0.0
C878 C 0.08148 0.51093 0.08137 0.0
C879 C 0.92525 0.51351 0.07766 0.0
Eu880 Eu 0.00479 0.44318 0.00373 0.0
O881 O 0.97738 0.47497 0.97322 0.0
O882 O 0.0337 0.47535 0.03265 0.0
Eu883 Eu 0.94373 0.50381 1.0002 0.0
Eu884 Eu 0.06674 0.50301 0.00294 0.0
O885 O 0.97472 0.47554 0.03131 0.0
O886 O 0.03379 0.47475 0.97458 0.0
Eu887 Eu 0.00354 0.50469 0.06353 0.0
Eu888 Eu 0.00658 0.50213 0.93971 0.0
O889 O 0.97638 0.53222 0.02884 0.0
O890 O 0.97686 0.5317 0.97089 0.0
O891 O 0.03537 0.53131 0.97215 0.0
O892 O 0.03306 0.53176 0.0302 0.0
Eu893 Eu 0.00567 0.56381 1.00013 0.0
O894 O 0.00448 0.41646 0.05126 0.0
O895 O 0.00539 0.41453 0.9572 0.0
O896 O 0.00755 0.59237 0.04681 0.0
O897 O 0.00611 0.59025 0.95255 0.0
O898 O 0.91706 0.55199 0.99589 0.0
O899 O 0.9165 0.4556 0.00149 0.0
O900 O 0.09387 0.55114 0.99803 0.0
O901 O 0.09345 0.45461 0.00655 0.0
O902 O 0.05471 0.49588 0.91439 0.0
O903 O 0.95956 0.49787 0.91211 0.0
O904 O 0.0507 0.50847 0.09087 0.0
O905 O 0.95538 0.51022 0.08878 0.0
O906 O 0.05284 0.59116 1.00031 0.0
O907 O 0.9584 0.59142 0.00172 0.0
O908 O 0.05174 0.41537 0.00429 0.0
O909 O 0.95762 0.41567 0.00358 0.0
O910 O 0.00628 0.45284 0.91444 0.0
O911 O 0.00768 0.55013 0.91158 0.0
O912 O 1.00105 0.45702 0.09169 0.0
O913 O 0.00283 0.55372 0.08914 0.0
O914 O 0.91597 0.51131 0.04677 0.0
O915 O 0.91837 0.49868 0.95229 0.0
O916 O 0.09218 0.50916 0.0509 0.0
O917 O 0.09403 0.49409 0.95642 0.0
C918 C 0.50227 0.42562 0.08309 0.0
C919 C 0.50388 0.58096 0.08508 0.0
C920 C 0.50642 0.4282 0.924 0.0
C921 C 0.50799 0.58364 0.92624 0.0
C922 C 0.58459 0.50472 0.92675 0.0
C923 C 0.58147 0.50223 0.08528 0.0
C924 C 0.4288 0.50626 0.92415 0.0
C925 C 0.42572 0.5043 0.08301 0.0
C926 C 0.42789 0.58347 0.99907 0.0
C927 C 0.58368 0.58132 0.01655 0.0
C928 C 0.42623 0.42759 0.99518 0.0
C929 C 0.58249 0.42576 0.9996 0.0
Eu930 Eu 0.50379 0.50342 0.06483 0.0
O931 O 0.53304 0.53205 0.03325 0.0
O932 O 0.47477 0.4749 0.03242 0.0
Eu933 Eu 0.56684 0.50395 0.00574 0.0
Eu934 Eu 0.4433 0.50512 0.0038 0.0
O935 O 0.53354 0.47457 0.03332 0.0
O936 O 0.47567 0.53361 0.0331 0.0
Eu937 Eu 0.50446 0.44287 0.00382 0.0
Eu938 Eu 0.50574 0.56624 0.00544 0.0
O939 O 0.53393 0.47614 0.97669 0.0
O940 O 0.5357 0.5344 0.9767 0.0
O941 O 0.4772 0.53386 0.97649 0.0
O942 O 0.47698 0.47696 0.97577 0.0
Eu943 Eu 0.50652 0.50578 0.94433 0.0
O944 O 0.50279 0.45647 0.09207 0.0
O945 O 0.50451 0.54987 0.09335 0.0
O946 O 0.50682 0.45931 0.91579 0.0
O947 O 0.50672 0.55283 0.91722 0.0
O948 O 0.59463 0.50439 0.95763 0.0
O949 O 0.59268 0.5014 0.0548 0.0
O950 O 0.41753 0.50618 0.95461 0.0
O951 O 0.41545 0.50474 0.05215 0.0
O952 O 0.45859 0.59323 1.00086 0.0
O953 O 0.55324 0.59172 0.01392 0.0
O954 O 0.45673 0.41732 0.99747 0.0
O955 O 0.55177 0.41594 1.00087 0.0
O956 O 0.45998 0.50612 0.9159 0.0
O957 O 0.55384 0.50554 0.9172 0.0
O958 O 0.45662 0.50379 0.09208 0.0
O959 O 0.55029 0.50326 0.09351 0.0
O960 O 0.5032 0.5921 0.05456 0.0
O961 O 0.50876 0.59392 0.95709 0.0
O962 O 0.50268 0.41524 0.05226 0.0
O963 O 0.50557 0.41703 0.95452 0.0
O964 O 0.59276 0.45621 0.00185 0.0
O965 O 0.59385 0.55099 0.01257 0.0
O966 O 0.41619 0.45805 0.9982 0.0
O967 O 0.41753 0.553 1.00081 0.0
C968 C 0.01224 0.42737 0.58429 0.0
C969 C 0.99868 0.42676 0.42789 0.0
C970 C 0.9919 0.5827 0.58348 0.0
C971 C 0.0135 0.58255 0.42783 0.0
C972 C 0.92511 0.58259 0.50217 0.0
C973 C 0.92431 0.4273 0.50593 0.0
C974 C 0.08358 0.58252 0.50888 0.0
C975 C 0.08325 0.42694 0.50612 0.0
C976 C 0.08466 0.50463 0.42948 0.0
C977 C 0.92642 0.50687 0.42636 0.0
C978 C 0.08085 0.50543 0.58584 0.0
C979 C 0.92303 0.50164 0.58228 0.0
Eu980 Eu 0.00378 0.44313 0.50615 0.0
O981 O 0.97635 0.47617 0.47677 0.0
O982 O 0.03102 0.47654 0.53505 0.0
Eu983 Eu 0.94374 0.50495 0.50482 0.0
Eu984 Eu 0.06435 0.50467 0.50725 0.0
O985 O 0.97465 0.47566 0.53486 0.0
O986 O 0.03311 0.47551 0.47736 0.0
Eu987 Eu 0.00251 0.50504 0.56784 0.0
Eu988 Eu 0.00521 0.50478 0.44431 0.0
O989 O 0.97548 0.53357 0.53396 0.0
O990 O 0.97619 0.53407 0.47627 0.0
O991 O 0.03268 0.53322 0.47802 0.0
O992 O 0.03221 0.53417 0.53604 0.0
Eu993 Eu 0.0043 0.56651 0.50598 0.0
O994 O 0.00876 0.41691 0.5539 0.0
O995 O 0.99974 0.41668 0.45857 0.0
O996 O 0.99679 0.59305 0.55324 0.0
O997 O 0.01101 0.59258 0.45846 0.0
O998 O 0.916 0.55187 0.50511 0.0
O999 O 0.91584 0.45825 0.50394 0.0
O1000 O 0.09226 0.55154 0.50801 0.0
O1001 O 0.09195 0.45786 0.50749 0.0
O1002 O 0.05418 0.50408 0.41845 0.0
O1003 O 0.95729 0.50757 0.41637 0.0
O1004 O 0.05021 0.50913 0.59575 0.0
O1005 O 0.95343 0.5005 0.59362 0.0
O1006 O 0.05293 0.59319 0.50918 0.0
O1007 O 0.95582 0.59295 0.50056 0.0
O1008 O 0.05258 0.4163 0.50474 0.0
O1009 O 0.95489 0.41653 0.50783 0.0
O1010 O 1.00135 0.45727 0.41788 0.0
O1011 O 0.01091 0.55208 0.41766 0.0
O1012 O 0.01018 0.45793 0.5943 0.0
O1013 O 0.99362 0.5522 0.5937 0.0
O1014 O 0.915 0.50427 0.55115 0.0
O1015 O 0.91698 0.50536 0.45721 0.0
O1016 O 0.09048 0.50217 0.5552 0.0
O1017 O 0.09323 0.50487 0.46064 0.0
C1018 C 0.50456 0.92551 0.58284 0.0
C1019 C 0.50603 0.92418 0.4268 0.0
C1020 C 0.5039 0.08362 0.58112 0.0
C1021 C 0.50319 0.08226 0.42499 0.0
C1022 C 0.4259 0.08277 0.50416 0.0
C1023 C 0.42638 0.9247 0.50334 0.0
C1024 C 0.58186 0.08297 0.50159 0.0
C1025 C 0.58228 0.92465 0.50527 0.0
C1026 C 0.58261 0.99788 0.42586 0.0
C1027 C 0.42644 0.99784 0.42532 0.0
C1028 C 0.58193 0.01176 0.58205 0.0
C1029 C 0.42569 0.99857 0.58171 0.0
Eu1030 Eu 0.50433 0.9434 0.50474 0.0
O1031 O 0.47582 0.97535 0.47544 0.0
O1032 O 0.53358 0.97537 0.53375 0.0
Eu1033 Eu 0.44261 0.00377 0.50358 0.0
Eu1034 Eu 0.56587 0.00379 0.50397 0.0
O1035 O 0.47533 0.97585 0.53282 0.0
O1036 O 0.53284 0.97548 0.47565 0.0
Eu1037 Eu 0.50393 0.00436 0.56551 0.0
Eu1038 Eu 0.50443 0.00337 0.44222 0.0
O1039 O 0.47493 0.03268 0.53261 0.0
O1040 O 0.47498 0.03225 0.47418 0.0
O1041 O 0.53338 0.03227 0.47453 0.0
O1042 O 0.53234 0.03207 0.53193 0.0
Eu1043 Eu 0.50389 0.06438 0.50312 0.0
O1044 O 0.50495 0.91614 0.55199 0.0
O1045 O 0.50423 0.91531 0.4578 0.0
O1046 O 0.50355 0.09248 0.55007 0.0
O1047 O 0.50459 0.09162 0.45583 0.0
O1048 O 0.41557 0.0521 0.50538 0.0
O1049 O 0.41596 0.95529 0.50162 0.0
O1050 O 0.59231 0.05236 0.49993 0.0
O1051 O 0.59293 0.95526 0.5062 0.0
O1052 O 0.55212 1.00104 0.41575 0.0
O1053 O 0.45717 0.99819 0.41546 0.0
O1054 O 0.55136 0.0088 0.59203 0.0
O1055 O 0.45619 1.00141 0.59191 0.0
O1056 O 0.551 0.092 0.50397 0.0
O1057 O 0.45676 0.09195 0.50243 0.0
O1058 O 0.55128 0.91597 0.50423 0.0
O1059 O 0.45724 0.91564 0.50553 0.0
O1060 O 0.50688 0.9547 0.41608 0.0
O1061 O 0.50233 0.05152 0.4148 0.0
O1062 O 0.50419 0.95623 0.59306 0.0
O1063 O 0.50387 0.05308 0.59188 0.0
O1064 O 0.41584 0.99931 0.55096 0.0
O1065 O 0.41626 1.00121 0.45581 0.0
O1066 O 0.59219 0.00994 0.55145 0.0
O1067 O 0.59254 0.99851 0.45659 0.0
C1068 C 0.16238 0.12075 0.52668 0.0
C1069 C 0.1534 0.15262 0.53379 0.0
H1070 H 0.14688 0.07367 0.51299 0.0
C1071 C 0.12069 0.16146 0.53246 0.0
H1072 H 0.18749 0.11332 0.5278 0.0
C1073 C 0.0973 0.13877 0.52389 0.0
C1074 C 0.10627 0.10683 0.51663 0.0
H1075 H 0.11325 0.18602 0.53746 0.0
H1076 H 0.07221 0.14629 0.52322 0.0
C1077 C 0.13908 0.09808 0.51817 0.0
C1078 C 0.88649 0.16239 0.47418 0.0
C1079 C 0.85371 0.15374 0.47312 0.0
H1080 H 0.93498 0.14685 0.48255 0.0
C1081 C 0.84462 0.12181 0.47986 0.0
H1082 H 0.89401 0.18699 0.46946 0.0
C1083 C 0.8679 0.09889 0.48771 0.0
C1084 C 0.90077 0.10745 0.48894 0.0
H1085 H 0.81946 0.11452 0.47895 0.0
H1086 H 0.86002 0.07444 0.49262 0.0
C1087 C 0.90984 0.13945 0.48208 0.0
C1088 C 0.88688 0.84588 0.47823 0.0
C1089 C 0.85472 0.85459 0.4718 0.0
H1090 H 0.93418 0.86163 0.49116 0.0
C1091 C 0.84559 0.88713 0.47367 0.0
H1092 H 0.89457 0.82094 0.47669 0.0
C1093 C 0.86829 0.91059 0.48199 0.0
C1094 C 0.90053 0.90187 0.48851 0.0
H1095 H 0.8208 0.89436 0.46922 0.0
H1096 H 0.86054 0.93553 0.48304 0.0
C1097 C 0.90955 0.86925 0.48655 0.0
C1098 C 0.12188 0.84608 0.48063 0.0
C1099 C 0.15273 0.85595 0.47036 0.0
H1100 H 0.07517 0.86062 0.4974 0.0
C1101 C 0.15995 0.889 0.46884 0.0
H1102 H 0.11585 0.82071 0.48244 0.0
C1103 C 0.13699 0.91179 0.47795 0.0
C1104 C 0.10617 0.90203 0.48849 0.0
H1105 H 0.18341 0.89729 0.46058 0.0
H1106 H 0.14338 0.93708 0.47623 0.0
C1107 C 0.09876 0.86893 0.48955 0.0
C1108 C 0.47998 0.12033 0.16217 0.0
C1109 C 0.47307 0.15227 0.15328 0.0
H1110 H 0.49371 0.07332 0.14651 0.0
C1111 C 0.47506 0.16138 0.12063 0.0
H1112 H 0.47839 0.1127 0.18723 0.0
C1113 C 0.48393 0.13885 0.09718 0.0
C1114 C 0.49083 0.1068 0.10604 0.0
H1115 H 0.47026 0.18601 0.11329 0.0
H1116 H 0.48504 0.14657 0.07214 0.0
C1117 C 0.48879 0.09782 0.1388 0.0
C1118 C 0.85197 0.55342 0.11444 0.0
C1119 C 0.85561 0.54575 0.1474 0.0
H1120 H 0.87093 0.54878 0.06647 0.0
C1121 C 0.88197 0.52654 0.15703 0.0
H1122 H 0.83221 0.56851 0.10624 0.0
C1123 C 0.90432 0.51552 0.13429 0.0
C1124 C 0.90048 0.52303 0.10138 0.0
H1125 H 0.8851 0.51949 0.1821 0.0
H1126 H 0.92449 0.50095 0.14245 0.0
C1127 C 0.87407 0.542 0.09163 0.0
C1128 C 0.52985 0.84662 0.11973 0.0
C1129 C 0.53198 0.8555 0.15245 0.0
H1130 H 0.52021 0.86187 0.0713 0.0
C1131 C 0.52558 0.88751 0.16148 0.0
H1132 H 0.53428 0.82196 0.11225 0.0
C1133 C 0.5172 0.91031 0.13821 0.0
C1134 C 0.51508 0.90156 0.10538 0.0
H1135 H 0.52733 0.89501 0.18657 0.0
H1136 H 0.51276 0.93486 0.14604 0.0
C1137 C 0.52141 0.86943 0.09639 0.0
C1138 C 0.1184 0.52999 0.16281 0.0
C1139 C 0.1509 0.53525 0.15451 0.0
H1140 H 0.07106 0.51782 0.14642 0.0
C1141 C 0.16064 0.53196 0.12212 0.0
H1142 H 0.11025 0.53262 0.18763 0.0
C1143 C 0.13823 0.5234 0.09841 0.0
C1144 C 0.10564 0.51807 0.10667 0.0
H1145 H 0.18569 0.53543 0.11521 0.0
H1146 H 0.14652 0.52117 0.07361 0.0
C1147 C 0.09599 0.52146 0.13916 0.0
C1148 C 0.47756 0.88928 0.84332 0.0
C1149 C 0.47106 0.85727 0.8523 0.0
H1150 H 0.49106 0.93643 0.85883 0.0
C1151 C 0.4731 0.84828 0.88496 0.0
H1152 H 0.47592 0.89679 0.81823 0.0
C1153 C 0.48193 0.8709 0.9083 0.0
C1154 C 0.48878 0.90294 0.89933 0.0
H1155 H 0.46862 0.82359 0.89237 0.0
H1156 H 0.48328 0.86318 0.93333 0.0
C1157 C 0.48634 0.91191 0.8666 0.0
C1158 C 0.15896 0.45186 0.89049 0.0
C1159 C 0.15512 0.45781 0.8572 0.0
H1160 H 0.13999 0.45834 0.93817 0.0
C1161 C 0.12788 0.4752 0.8466 0.0
H1162 H 0.17943 0.4382 0.89942 0.0
C1163 C 0.10514 0.48659 0.8688 0.0
C1164 C 0.1094 0.4812 0.90208 0.0
H1165 H 0.12452 0.48082 0.8212 0.0
H1166 H 0.08445 0.49996 0.8599 0.0
C1167 C 0.13644 0.46359 0.9127 0.0
C1168 C 0.5343 0.16229 0.88569 0.0
C1169 C 0.53547 0.15358 0.85289 0.0
H1170 H 0.5253 0.14696 0.9342 0.0
C1171 C 0.52849 0.12171 0.84381 0.0
H1172 H 0.53921 0.18686 0.89319 0.0
C1173 C 0.52021 0.0989 0.86712 0.0
C1174 C 0.51874 0.10755 0.90001 0.0
H1175 H 0.5295 0.11439 0.81862 0.0
H1176 H 0.51515 0.07448 0.85925 0.0
C1177 C 0.52594 0.13949 0.90907 0.0
C1178 C 0.84791 0.4789 0.88358 0.0
C1179 C 0.85671 0.47152 0.85162 0.0
H1180 H 0.86352 0.493 0.93056 0.0
C1181 C 0.8894 0.47274 0.84252 0.0
H1182 H 0.82286 0.4778 0.89127 0.0
C1183 C 0.91294 0.48149 0.86512 0.0
C1184 C 0.90408 0.48904 0.89715 0.0
H1185 H 0.89667 0.46745 0.81787 0.0
H1186 H 0.93801 0.48205 0.8575 0.0
C1187 C 0.87129 0.48763 0.90608 0.0
C1188 C 0.6206 0.65377 0.05758 0.0
C1189 C 0.6535 0.65033 0.04978 0.0
H1190 H 0.57277 0.63493 0.05274 0.0
C1191 C 0.66337 0.6235 0.03134 0.0
H1192 H 0.61225 0.6738 0.07222 0.0
C1193 C 0.64074 0.60099 0.02043 0.0
C1194 C 0.60777 0.60518 0.0273 0.0
H1195 H 0.68844 0.6204 0.02436 0.0
H1196 H 0.64896 0.58071 0.00605 0.0
C1197 C 0.59795 0.63158 0.04626 0.0
C1198 C 0.38932 0.66295 0.97634 0.0
C1199 C 0.35645 0.65457 0.9759 0.0
H1200 H 0.43777 0.64718 0.98451 0.0
C1201 C 0.34715 0.62299 0.98391 0.0
H1202 H 0.39701 0.68729 0.97063 0.0
C1203 C 0.37031 0.60011 0.99219 0.0
C1204 C 0.40328 0.60835 0.9926 0.0
H1205 H 0.32192 0.61589 0.98348 0.0
H1206 H 0.36227 0.5759 0.99796 0.0
C1207 C 0.41256 0.64006 0.98469 0.0
C1208 C 0.38904 0.35173 0.96142 0.0
C1209 C 0.35589 0.35737 0.96612 0.0
H1210 H 0.43715 0.36922 0.96725 0.0
C1211 C 0.34586 0.38649 0.98039 0.0
H1212 H 0.39745 0.32975 0.94998 0.0
C1213 C 0.36868 0.40933 0.99022 0.0
C1214 C 0.40188 0.40327 0.98616 0.0
H1215 H 0.32046 0.39128 0.9847 0.0
H1216 H 0.36032 0.43151 0.00129 0.0
C1217 C 0.41179 0.37432 0.97148 0.0
C1218 C 0.62137 0.34618 0.9776 0.0
C1219 C 0.65413 0.35486 0.97619 0.0
H1220 H 0.57296 0.36162 0.98666 0.0
C1221 C 0.66328 0.3867 0.98322 0.0
H1222 H 0.6138 0.32163 0.97266 0.0
C1223 C 0.64009 0.40954 0.99158 0.0
C1224 C 0.60721 0.40098 0.99304 0.0
H1225 H 0.68843 0.39402 0.98204 0.0
H1226 H 0.64801 0.43395 0.99656 0.0
C1227 C 0.59809 0.36902 0.98602 0.0
C1228 C 0.94742 0.62044 0.65354 0.0
C1229 C 0.95663 0.65297 0.65084 0.0
H1230 H 0.95189 0.57266 0.63464 0.0
C1231 C 0.9778 0.66212 0.62572 0.0
H1232 H 0.93077 0.61263 0.67223 0.0
C1233 C 0.98955 0.63926 0.60391 0.0
C1234 C 0.98088 0.60673 0.60718 0.0
H1235 H 0.98604 0.68681 0.62333 0.0
H1236 H 0.0058 0.64696 0.58481 0.0
C1237 C 0.95964 0.59751 0.6321 0.0
C1238 C 0.346 0.97639 0.62075 0.0
C1239 C 0.35464 0.97535 0.65357 0.0
H1240 H 0.36152 0.98512 0.57224 0.0
C1241 C 0.3865 0.98265 0.66274 0.0
H1242 H 0.32143 0.97126 0.61319 0.0
C1243 C 0.40942 0.99088 0.63946 0.0
C1244 C 0.40089 0.992 0.60653 0.0
H1245 H 0.39375 0.9818 0.68794 0.0
H1246 H 0.43385 0.99608 0.64736 0.0
C1247 C 0.3689 0.98472 0.59741 0.0
C1248 C 0.02507 0.34774 0.62659 0.0
C1249 C 0.04524 0.35682 0.65251 0.0
H1250 H 0.99854 0.36303 0.5848 0.0
C1251 C 0.05378 0.38946 0.65604 0.0
H1252 H 0.01738 0.32295 0.62355 0.0
C1253 C 0.04213 0.41251 0.6344 0.0
C1254 C 0.0221 0.40332 0.60851 0.0
H1255 H 0.06966 0.39723 0.67539 0.0
H1256 H 0.04953 0.43741 0.63747 0.0
C1257 C 0.01387 0.37073 0.60463 0.0
C1258 C 0.66142 0.03337 0.62183 0.0
C1259 C 0.65152 0.03905 0.65383 0.0
H1260 H 0.6473 0.01964 0.57403 0.0
C1261 C 0.61881 0.03542 0.66215 0.0
H1262 H 0.68662 0.03559 0.61497 0.0
C1263 C 0.59637 0.0259 0.63896 0.0
C1264 C 0.60617 0.01989 0.60691 0.0
H1265 H 0.61056 0.03994 0.68666 0.0
H1266 H 0.57129 0.02356 0.64624 0.0
C1267 C 0.63893 0.02385 0.59854 0.0
C1268 C 0.98111 0.38869 0.34678 0.0
C1269 C 0.97431 0.3567 0.35562 0.0
H1270 H 0.9946 0.43576 0.36246 0.0
C1271 C 0.9763 0.3476 0.38828 0.0
H1272 H 0.97947 0.39635 0.32173 0.0
C1273 C 0.98503 0.37017 0.41175 0.0
C1274 C 0.99181 0.40226 0.40293 0.0
H1275 H 0.97159 0.32294 0.39562 0.0
H1276 H 0.98612 0.36244 0.43679 0.0
C1277 C 0.98981 0.41123 0.37016 0.0
C1278 C 0.62087 0.9803 0.34476 0.0
C1279 C 0.65296 0.9737 0.3536 0.0
H1280 H 0.5736 0.99352 0.36045 0.0
C1281 C 0.66206 0.9757 0.38627 0.0
H1282 H 0.61321 0.97864 0.31971 0.0
C1283 C 0.63939 0.98434 0.40974 0.0
C1284 C 0.6072 0.99101 0.40091 0.0
H1285 H 0.6868 0.97111 0.39359 0.0
H1286 H 0.64712 0.98551 0.43478 0.0
C1287 C 0.59821 0.98889 0.36814 0.0
C1288 C 0.03544 0.62192 0.34802 0.0
C1289 C 0.03882 0.65431 0.35733 0.0
H1290 H 0.02433 0.5738 0.36285 0.0
C1291 C 0.03399 0.6629 0.38986 0.0
H1292 H 0.03865 0.61476 0.32298 0.0
C1293 C 0.02537 0.63966 0.41261 0.0
C1294 C 0.02146 0.60726 0.40333 0.0
H1295 H 0.03677 0.68769 0.39772 0.0
H1296 H 0.02185 0.64723 0.43748 0.0
C1297 C 0.02682 0.59858 0.37081 0.0
C1298 C 0.38722 0.97506 0.34584 0.0
C1299 C 0.35448 0.97384 0.35469 0.0
H1300 H 0.43569 0.98418 0.36105 0.0
C1301 C 0.34545 0.98128 0.38661 0.0
H1302 H 0.39468 0.96984 0.32123 0.0
C1303 C 0.36876 0.98981 0.40935 0.0
C1304 C 0.4016 0.99106 0.40062 0.0
H1305 H 0.32033 0.98028 0.39405 0.0
H1306 H 0.36094 0.99509 0.43384 0.0
C1307 C 0.41059 0.98366 0.36859 0.0
C1308 C 1.00103 0.16189 0.37508 0.0
C1309 C 0.99786 0.15065 0.34299 0.0
H1310 H 0.00548 0.14954 0.42547 0.0
C1311 C 0.99878 0.1173 0.33739 0.0
H1312 H 1.00007 0.18749 0.38024 0.0
C1313 C 0.00192 0.09566 0.36314 0.0
C1314 C 0.00397 0.10664 0.39546 0.0
H1315 H 0.99671 0.10784 0.31301 0.0
H1316 H 0.00207 0.07013 0.35753 0.0
C1317 C 0.00393 0.14013 0.40105 0.0
C1318 C 0.89316 0.99603 0.33577 0.0
C1319 C 0.8596 0.99638 0.34087 0.0
H1320 H 0.94026 0.9983 0.35658 0.0
C1321 C 0.84799 1.00066 0.37271 0.0
H1322 H 0.90294 0.99304 0.3116 0.0
C1323 C 0.86951 0.00357 0.39891 0.0
C1324 C 0.90316 0.00251 0.39382 0.0
H1325 H 0.82223 1.00067 0.37754 0.0
H1326 H 0.85976 0.00619 0.42313 0.0
C1327 C 0.91458 0.99914 0.36177 0.0
C1328 C 0.02978 0.85322 0.37394 0.0
C1329 C 0.01855 0.86088 0.34266 0.0
H1330 H 0.03392 0.86782 0.42365 0.0
C1331 C 1.00078 0.88938 0.33826 0.0
H1332 H 0.04334 0.83123 0.37807 0.0
C1333 C 0.99573 0.91054 0.36429 0.0
C1334 C 0.00775 0.90332 0.39543 0.0
H1335 H 0.99187 0.89586 0.31446 0.0
H1336 H 0.98278 0.93285 0.35992 0.0
C1337 C 0.02419 0.87404 0.40009 0.0
C1338 C 0.15704 0.9794 0.37646 0.0
C1339 C 0.14892 0.98896 0.34473 0.0
H1340 H 0.14286 0.97748 0.42644 0.0
C1341 C 0.12041 0.00664 0.33984 0.0
H1342 H 0.17911 0.96604 0.381 0.0
C1343 C 0.09953 0.01296 0.36584 0.0
C1344 C 0.107 0.00224 0.39739 0.0
H1345 H 0.11357 0.01432 0.31571 0.0
H1346 H 0.07709 0.02558 0.36106 0.0
C1347 C 0.13644 0.98618 0.40255 0.0
C1348 C 0.99873 0.84622 0.62695 0.0
C1349 C 0.99721 0.85694 0.65933 0.0
H1350 H 1.00136 0.85934 0.57665 0.0
C1351 C 0.99916 0.89021 0.66541 0.0
H1352 H 0.99696 0.82075 0.62138 0.0
C1353 C 0.00157 0.91226 0.6399 0.0
C1354 C 0.00196 0.90178 0.60738 0.0
H1355 H 0.99847 0.8993 0.69 0.0
H1356 H 0.00259 0.93768 0.64588 0.0
C1357 C 1.00101 0.86839 0.60126 0.0
C1358 C 0.15838 0.99992 0.63157 0.0
C1359 C 0.14668 0.99544 0.66336 0.0
H1360 H 0.14682 0.00532 0.58107 0.0
C1361 C 0.11308 0.99428 0.66818 0.0
H1362 H 0.18417 1.00054 0.62691 0.0
C1363 C 0.09177 0.99693 0.64202 0.0
C1364 C 0.10332 1.00063 0.61005 0.0
H1365 H 0.10317 0.99115 0.69228 0.0
H1366 H 0.06608 0.99555 0.64703 0.0
C1367 C 0.13697 0.00237 0.60521 0.0
C1368 C 0.0066 0.11713 0.66622 0.0
C1369 C 0.00875 0.15041 0.66024 0.0
H1370 H 0.00238 0.06978 0.64651 0.0
C1371 C 0.00665 0.1613 0.62797 0.0
H1372 H 0.00778 0.10794 0.69076 0.0
C1373 C 0.00368 0.1393 0.60224 0.0
C1374 C 0.00255 0.10588 0.60822 0.0
H1375 H 0.00857 0.18679 0.62248 0.0
H1376 H 0.00303 0.14848 0.57769 0.0
C1377 C 0.00345 0.09523 0.64066 0.0
C1378 C 0.84509 0.01039 0.62835 0.0
C1379 C 0.85656 0.0121 0.6605 0.0
H1380 H 0.85715 0.00702 0.57773 0.0
C1381 C 0.88998 0.00979 0.66582 0.0
H1382 H 0.81944 0.0124 0.62336 0.0
C1383 C 0.91145 0.00674 0.63986 0.0
C1384 C 0.9003 0.00607 0.60753 0.0
H1385 H 0.89966 0.01064 0.69019 0.0
H1386 H 0.93703 0.00545 0.64538 0.0
C1387 C 0.86672 0.00752 0.60214 0.0
C1388 C 0.3386 0.99423 0.11378 0.0
C1389 C 0.34358 0.99488 0.14738 0.0
H1390 H 0.35947 0.99636 0.06665 0.0
C1391 C 0.37532 0.99946 0.15904 0.0
H1392 H 0.31452 0.99101 0.10395 0.0
C1393 C 0.40154 0.00243 0.13751 0.0
C1394 C 0.39654 1.00116 0.10383 0.0
H1395 H 0.38004 0.99972 0.18485 0.0
H1396 H 0.42567 0.00539 0.14728 0.0
C1397 C 0.36459 0.99742 0.09236 0.0
C1398 C 0.00505 0.34293 0.12038 0.0
C1399 C 0.98689 0.34762 0.14869 0.0
H1400 H 0.02424 0.36411 0.07713 0.0
C1401 C 0.97645 0.37906 0.15643 0.0
H1402 H 0.01344 0.31905 0.11382 0.0
C1403 C 0.98291 0.40503 0.13566 0.0
C1404 C 0.99957 0.40004 0.10644 0.0
H1405 H 0.96274 0.38347 0.17837 0.0
H1406 H 0.97363 0.42869 0.14182 0.0
C1407 C 0.0111 0.36879 0.09936 0.0
C1408 C 0.63001 0.97854 0.15541 0.0
C1409 C 0.66165 0.98813 0.14704 0.0
H1410 H 0.58003 0.9764 0.14149 0.0
C1411 C 0.66638 0.00554 0.11828 0.0
H1412 H 0.6256 0.96537 0.17765 0.0
C1413 C 0.64032 0.01162 0.09745 0.0
C1414 C 0.60885 1.00095 0.10522 0.0
H1415 H 0.69043 0.01323 0.11124 0.0
H1416 H 0.64497 0.02408 0.07484 0.0
C1417 C 0.60386 0.98509 0.13486 0.0
C1418 C 0.98525 0.63971 0.14815 0.0
C1419 C 0.00936 0.66379 0.14529 0.0
H1420 H 0.96563 0.59519 0.12977 0.0
C1421 C 0.03196 0.66071 0.11981 0.0
H1422 H 0.96682 0.64115 0.1667 0.0
C1423 C 0.03038 0.63489 0.09804 0.0
C1424 C 0.00688 0.61071 0.10159 0.0
H1425 H 0.05157 0.67774 0.11689 0.0
H1426 H 0.04811 0.63342 0.07874 0.0
C1427 C 0.98438 0.61326 0.12689 0.0
C1428 C 0.37659 0.98086 0.85042 0.0
C1429 C 0.34509 0.99095 0.85871 0.0
H1430 H 0.42657 0.97827 0.86425 0.0
C1431 C 0.34069 0.00885 0.88722 0.0
H1432 H 0.38077 0.9673 0.82837 0.0
C1433 C 0.3669 0.01492 0.9079 0.0
C1434 C 0.39822 0.00374 0.90024 0.0
H1435 H 0.31676 0.01693 0.89421 0.0
H1436 H 0.36247 0.02775 0.93034 0.0
C1437 C 0.40289 0.98738 0.87082 0.0
C1438 C 0.00635 0.37383 0.84733 0.0
C1439 C 0.0121 0.34235 0.85886 0.0
H1440 H 1.00016 0.42393 0.85918 0.0
C1441 C 0.01437 0.33749 0.89243 0.0
H1442 H 0.00485 0.37844 0.82154 0.0
C1443 C 0.01176 0.36341 0.91392 0.0
C1444 C 0.00701 0.39513 0.90251 0.0
H1445 H 0.01859 0.31357 0.90213 0.0
H1446 H 0.01416 0.35848 0.93957 0.0
C1447 C 0.00397 0.39996 0.8689 0.0
C1448 C 0.63208 0.03013 0.85144 0.0
C1449 C 0.66342 0.01959 0.85965 0.0
H1450 H 0.58209 0.03305 0.86523 0.0
C1451 C 0.66762 1.00143 0.88801 0.0
H1452 H 0.62811 0.04395 0.82952 0.0
C1453 C 0.6413 0.99547 0.90865 0.0
C1454 C 0.61011 0.00697 0.90101 0.0
H1455 H 0.69145 0.99303 0.89492 0.0
H1456 H 0.64554 0.98241 0.93098 0.0
C1457 C 0.60567 0.02366 0.87174 0.0
C1458 C 0.00241 0.628 0.842 0.0
C1459 C 0.00173 0.66011 0.85328 0.0
H1460 H 0.00441 0.57763 0.85453 0.0
C1461 C 0.00508 0.66571 0.8866 0.0
H1462 H 0.99963 0.6229 0.81642 0.0
C1463 C 0.00783 0.64002 0.90827 0.0
C1464 C 0.00706 0.60773 0.89742 0.0
H1465 H 0.00502 0.69011 0.89604 0.0
H1466 H 0.00986 0.64573 0.93379 0.0
C1467 C 0.00495 0.60205 0.86386 0.0
C1468 C 0.11782 0.33922 0.00203 0.0
C1469 C 0.15117 0.345 0.99931 0.0
H1470 H 0.07047 0.3591 0.00661 0.0
C1471 C 0.16222 0.37716 1.00069 0.0
H1472 H 0.10847 0.3148 0.00141 0.0
C1473 C 0.1403 0.40292 0.00355 0.0
C1474 C 0.10679 0.39712 0.00528 0.0
H1475 H 0.18776 0.38252 0.99828 0.0
H1476 H 0.14959 0.42736 0.00358 0.0
C1477 C 0.09599 0.36481 0.00507 0.0
C1478 C 0.12116 0.66562 0.00173 0.0
C1479 C 0.15003 0.6611 0.98443 0.0
H1480 H 0.0776 0.64415 0.01977 0.0
C1481 C 0.15827 0.62967 0.97432 0.0
H1482 H 0.11418 0.68948 0.00984 0.0
C1483 C 0.13754 0.60355 0.98028 0.0
C1484 C 0.10784 0.60835 0.99607 0.0
H1485 H 0.18062 0.62538 0.96128 0.0
H1486 H 0.14419 0.57989 0.97134 0.0
C1487 C 0.10019 0.6396 0.00725 0.0
C1488 C 0.37724 0.15684 0.97419 0.0
C1489 C 0.34681 0.15046 0.98815 0.0
H1490 H 0.42643 0.14133 0.96792 0.0
C1491 C 0.34345 0.12362 0.00857 0.0
H1492 H 0.3805 0.17754 0.95849 0.0
C1493 C 0.36958 0.10263 0.01356 0.0
C1494 C 0.39982 0.10845 0.99882 0.0
H1495 H 0.3203 0.11817 0.0196 0.0
H1496 H 0.36594 0.08148 0.02855 0.0
C1497 C 0.40358 0.13625 0.97974 0.0
C1498 C 0.85232 0.37713 0.97802 0.0
C1499 C 0.86038 0.34576 0.98843 0.0
H1500 H 0.86656 0.42682 0.97477 0.0
C1501 C 0.88899 0.3413 0.00614 0.0
H1502 H 0.83019 0.38136 0.96462 0.0
C1503 C 0.90996 0.36733 0.01174 0.0
C1504 C 0.90249 0.39851 1.00027 0.0
H1505 H 0.89582 0.31748 0.01446 0.0
H1506 H 0.93242 0.36286 0.02448 0.0
C1507 C 0.873 0.40324 0.98407 0.0
C1508 C 0.66664 0.89045 0.00521 0.0
C1509 C 0.66098 0.85709 0.00465 0.0
H1510 H 0.64674 0.93776 0.00428 0.0
C1511 C 0.62889 0.84609 1.0011 0.0
H1512 H 0.69102 0.89975 0.00764 0.0
C1513 C 0.60299 0.86808 0.99939 0.0
C1514 C 0.60868 0.90154 1.00094 0.0
H1515 H 0.62371 0.82047 1.00089 0.0
H1516 H 0.57855 0.85883 0.99749 0.0
C1517 C 0.641 0.91229 0.00328 0.0
C1518 C 0.88477 0.65889 0.0246 0.0
C1519 C 0.85834 0.66072 0.00302 0.0
H1520 H 0.92708 0.63321 0.0398 0.0
C1521 C 0.8549 0.63573 0.97994 0.0
H1522 H 0.88811 0.67655 0.0436 0.0
C1523 C 0.87683 0.60981 0.97887 0.0
C1524 C 0.90328 0.60871 1.00015 0.0
H1525 H 0.83544 0.63608 0.96245 0.0
H1526 H 0.87352 0.59102 0.96092 0.0
C1527 C 0.90709 0.63363 0.02282 0.0
C1528 C 0.37436 0.85007 1.0004 0.0
C1529 C 0.34263 0.86157 0.99555 0.0
H1530 H 0.42468 0.86186 0.0061 0.0
C1531 C 0.33763 0.89504 0.99442 0.0
H1532 H 0.37913 0.82439 1.00101 0.0
C1533 C 0.36362 0.91645 0.99733 0.0
C1534 C 0.39558 0.9051 0.00123 0.0
H1535 H 0.31354 0.90474 0.99099 0.0
H1536 H 0.3585 0.94203 0.99593 0.0
C1537 C 0.40055 0.87157 0.00309 0.0
C1538 C 0.67014 0.11452 0.99757 0.0
C1539 C 0.66516 0.148 0.99788 0.0
H1540 H 0.64921 0.06757 0.99953 0.0
C1541 C 0.63332 0.15961 0.00178 0.0
H1542 H 0.69429 0.10472 0.99491 0.0
C1543 C 0.60705 0.13817 0.0043 0.0
C1544 C 0.61203 0.10461 0.0032 0.0
H1545 H 0.62857 0.1853 0.00175 0.0
H1546 H 0.58286 0.14795 0.00651 0.0
C1547 C 0.64407 0.09318 1.0003 0.0
C1548 C 0.50423 0.61791 0.8408 0.0
C1549 C 0.50153 0.65121 0.84618 0.0
H1550 H 0.50885 0.571 0.86119 0.0
C1551 C 0.50295 0.66262 0.87836 0.0
H1552 H 0.50362 0.6083 0.81639 0.0
C1553 C 0.50578 0.64104 0.90454 0.0
C1554 C 0.50748 0.60757 0.8991 0.0
H1555 H 0.50065 0.68817 0.88337 0.0
H1556 H 0.50585 0.65054 0.92899 0.0
C1557 C 0.50729 0.59649 0.86674 0.0
C1558 C 0.35025 0.50663 0.8754 0.0
C1559 C 0.36173 0.50064 0.84383 0.0
H1560 H 0.3622 0.51282 0.92569 0.0
C1561 C 0.39521 0.49818 0.83886 0.0
H1562 H 0.32451 0.5083 0.88004 0.0
C1563 C 0.41669 0.50071 0.86483 0.0
C1564 C 0.40536 0.50556 0.89669 0.0
H1565 H 0.40482 0.49374 0.81484 0.0
H1566 H 0.44228 0.49807 0.85981 0.0
C1567 C 0.37183 0.50892 0.9016 0.0
C1568 C 0.51343 0.39471 0.8383 0.0
C1569 C 0.51265 0.36121 0.84328 0.0
H1570 H 0.51196 0.44169 0.85925 0.0
C1571 C 0.50853 0.34969 0.87518 0.0
H1572 H 0.51622 0.40449 0.81413 0.0
C1573 C 0.50615 0.37117 0.90146 0.0
C1574 C 0.50763 0.40473 0.89647 0.0
H1575 H 0.50819 0.324 0.87998 0.0
H1576 H 0.50358 0.36144 0.92568 0.0
C1577 C 0.51088 0.41609 0.8644 0.0
C1578 C 0.62203 0.50578 0.84273 0.0
C1579 C 0.6502 0.48752 0.84747 0.0
H1580 H 0.57926 0.52567 0.86417 0.0
C1581 C 0.65834 0.47791 0.87919 0.0
H1582 H 0.61515 0.51352 0.81864 0.0
C1583 C 0.63804 0.48516 0.9054 0.0
C1584 C 0.60891 0.50182 0.90038 0.0
H1585 H 0.68017 0.46414 0.88363 0.0
H1586 H 0.6444 0.47633 0.92927 0.0
C1587 C 0.60148 0.51262 0.86885 0.0
C1588 C 0.49834 0.34667 0.13115 0.0
C1589 C 0.49433 0.35811 0.1631 0.0
H1590 H 0.50371 0.3587 0.0807 0.0
C1591 C 0.49421 0.39154 0.16832 0.0
H1592 H 0.49821 0.321 0.12623 0.0
C1593 C 0.49729 0.413 0.14242 0.0
C1594 C 0.50044 0.40181 0.11025 0.0
H1595 H 0.49149 0.40121 0.19255 0.0
H1596 H 0.49668 0.43856 0.14783 0.0
C1597 C 0.50125 0.36827 0.10499 0.0
C1598 C 0.6157 0.51134 0.17031 0.0
C1599 C 0.6492 0.50964 0.16502 0.0
H1600 H 0.56839 0.51014 0.14983 0.0
C1601 C 0.66043 0.5036 0.13336 0.0
H1602 H 0.60624 0.51575 0.19439 0.0
C1603 C 0.63863 0.50056 0.10743 0.0
C1604 C 0.60508 0.50321 0.11263 0.0
H1605 H 0.68615 0.50252 0.12842 0.0
H1606 H 0.64814 0.49677 0.08327 0.0
C1607 C 0.59398 0.50805 0.14458 0.0
C1608 C 0.50687 0.6596 0.13333 0.0
C1609 C 0.51076 0.64819 0.16527 0.0
H1610 H 0.50191 0.64762 0.08293 0.0
C1611 C 0.51087 0.61475 0.17055 0.0
H1612 H 0.50709 0.68525 0.12835 0.0
C1613 C 0.50789 0.59323 0.14462 0.0
C1614 C 0.50494 0.60447 0.11249 0.0
H1615 H 0.51356 0.60513 0.1948 0.0
H1616 H 0.50853 0.56765 0.14993 0.0
C1617 C 0.50412 0.638 0.10723 0.0
C1618 C 0.39082 0.50807 0.16831 0.0
C1619 C 0.35741 0.5101 0.16274 0.0
H1620 H 0.43808 0.50438 0.14815 0.0
C1621 C 0.34622 0.50867 0.13048 0.0
H1622 H 0.40029 0.50872 0.19276 0.0
C1623 C 0.36807 0.5063 0.10443 0.0
C1624 C 0.40162 0.50511 0.11006 0.0
H1625 H 0.3206 0.5105 0.1253 0.0
H1626 H 0.35869 0.50598 0.07994 0.0
C1627 C 0.41253 0.50551 0.14247 0.0
C1628 C 0.83754 0.49027 0.61427 0.0
C1629 C 0.84174 0.4923 0.64793 0.0
H1630 H 0.8594 0.49152 0.56756 0.0
C1631 C 0.87301 0.49844 0.66011 0.0
H1632 H 0.81381 0.48579 0.60407 0.0
C1633 C 0.89957 0.50164 0.63905 0.0
C1634 C 0.89535 0.49905 0.60535 0.0
H1635 H 0.87714 0.49978 0.68599 0.0
H1636 H 0.92335 0.50592 0.64919 0.0
C1637 C 0.86386 0.49368 0.59332 0.0
C1638 C 0.47976 0.8769 0.65671 0.0
C1639 C 0.49093 0.8458 0.6486 0.0
H1640 H 0.47586 0.92666 0.64272 0.0
C1641 C 0.50934 0.84191 0.62031 0.0
H1642 H 0.46577 0.88067 0.67859 0.0
C1643 C 0.51486 0.86819 0.59965 0.0
C1644 C 0.50264 0.89908 0.60712 0.0
H1645 H 0.51824 0.81829 0.61346 0.0
H1646 H 0.5281 0.86413 0.57735 0.0
C1647 C 0.48577 0.90331 0.63634 0.0
C1648 C 0.13614 0.52383 0.65713 0.0
C1649 C 0.16 0.49962 0.6538 0.0
H1650 H 0.09188 0.54431 0.63874 0.0
C1651 C 0.15625 0.47697 0.62858 0.0
H1652 H 0.13803 0.542 0.67586 0.0
C1653 C 0.13038 0.47899 0.60698 0.0
C1654 C 0.1068 0.50306 0.61037 0.0
H1655 H 0.17301 0.45715 0.62558 0.0
H1656 H 0.1286 0.46134 0.58767 0.0
C1657 C 0.10961 0.52528 0.63587 0.0
C1658 C 0.52847 0.13185 0.65538 0.0
C1659 C 0.51848 0.16326 0.647 0.0
H1660 H 0.5312 0.082 0.64157 0.0
C1661 C 0.50109 0.16769 0.61815 0.0
H1662 H 0.54168 0.12765 0.67765 0.0
C1663 C 0.49537 0.14156 0.5973 0.0
C1664 C 0.50634 0.11029 0.60515 0.0
H1665 H 0.49312 0.19156 0.61107 0.0
H1666 H 0.48289 0.14598 0.57466 0.0
C1667 C 0.52225 0.10563 0.63484 0.0
C1668 C 0.88092 0.51176 0.34586 0.0
C1669 C 0.84859 0.5146 0.35638 0.0
H1670 H 0.93092 0.50735 0.35943 0.0
C1671 C 0.84222 0.51348 0.38976 0.0
H1672 H 0.88671 0.51285 0.32029 0.0
C1673 C 0.86742 0.51043 0.4121 0.0
C1674 C 0.89992 0.50855 0.40182 0.0
H1675 H 0.81764 0.51524 0.39871 0.0
H1676 H 0.86122 0.51007 0.4376 0.0
C1677 C 0.90631 0.50887 0.36832 0.0
C1678 C 0.5041 0.84031 0.38935 0.0
C1679 C 0.52138 0.84513 0.36048 0.0
H1680 H 0.48574 0.86151 0.43301 0.0
C1681 C 0.53121 0.87665 0.35234 0.0
H1682 H 0.49623 0.81633 0.39621 0.0
C1683 C 0.52491 0.90262 0.37312 0.0
C1684 C 0.50902 0.8976 0.40278 0.0
H1685 H 0.54428 0.88115 0.33003 0.0
H1686 H 0.53365 0.92638 0.36651 0.0
C1687 C 0.49825 0.86621 0.41042 0.0
C1688 C 0.13251 0.52776 0.35451 0.0
C1689 C 0.16411 0.51832 0.36298 0.0
H1690 H 0.08261 0.53034 0.36848 0.0
C1691 C 0.16896 0.50197 0.39234 0.0
H1692 H 0.12808 0.54025 0.33188 0.0
C1693 C 0.14295 0.49665 0.41355 0.0
C1694 C 0.11145 0.50697 0.40551 0.0
H1695 H 0.19304 0.49449 0.39946 0.0
H1696 H 0.14762 0.48493 0.43654 0.0
C1697 C 0.10644 0.5219 0.37538 0.0
C1698 C 0.50574 0.16601 0.38749 0.0
C1699 C 0.48777 0.16152 0.35902 0.0
H1700 H 0.52474 0.14445 0.43063 0.0
C1701 C 0.47765 0.13008 0.35085 0.0
H1702 H 0.51387 0.18989 0.39438 0.0
C1703 C 0.48419 0.10391 0.37133 0.0
C1704 C 0.50057 0.10868 0.40073 0.0
H1705 H 0.46408 0.12584 0.3288 0.0
H1706 H 0.4751 0.08026 0.36483 0.0
C1707 C 0.51182 0.13994 0.40825 0.0
C1708 C 0.66118 0.8765 0.50096 0.0
C1709 C 0.64955 0.84459 0.4984 0.0
H1710 H 0.64937 0.9269 0.50486 0.0
C1711 C 0.61605 0.83942 0.4999 0.0
H1712 H 0.6869 0.88135 0.49957 0.0
C1713 C 0.59467 0.86533 0.50297 0.0
C1714 C 0.60602 0.89744 0.5044 0.0
H1715 H 0.60627 0.81521 0.49835 0.0
H1716 H 0.56904 0.85997 0.50361 0.0
C1717 C 0.63966 0.90265 0.5038 0.0
C1718 C 0.61924 0.16678 0.50605 0.0
C1719 C 0.64782 0.16274 0.48817 0.0
H1720 H 0.57599 0.14477 0.52427 0.0
C1721 C 0.6559 0.13161 0.47708 0.0
H1722 H 0.6124 0.19042 0.5149 0.0
C1723 C 0.63531 0.10531 0.48274 0.0
C1724 C 0.60588 0.10964 0.49918 0.0
H1725 H 0.67801 0.12769 0.46352 0.0
H1726 H 0.64184 0.0819 0.47308 0.0
C1727 C 0.59837 0.1406 0.51125 0.0
C1728 C 0.84108 0.61999 0.50501 0.0
C1729 C 0.84546 0.64828 0.48686 0.0
H1730 H 0.86279 0.57706 0.52401 0.0
C1731 C 0.87683 0.65613 0.47605 0.0
H1732 H 0.81725 0.61333 0.51365 0.0
C1733 C 0.90307 0.63563 0.48228 0.0
C1734 C 0.89843 0.60651 0.49905 0.0
H1735 H 0.881 0.67801 0.4623 0.0
H1736 H 0.92669 0.64199 0.47285 0.0
C1737 C 0.86721 0.5992 0.51078 0.0
C1738 C 0.35319 0.87575 0.47738 0.0
C1739 C 0.36028 0.8451 0.4903 0.0
H1740 H 0.36806 0.92508 0.47189 0.0
C1741 C 0.38787 0.84155 0.50975 0.0
H1742 H 0.33189 0.87922 0.46248 0.0
C1743 C 0.40882 0.86772 0.51479 0.0
C1744 C 0.40224 0.89818 0.50107 0.0
H1745 H 0.39391 0.81825 0.51999 0.0
H1746 H 0.43051 0.86395 0.52902 0.0
C1747 C 0.37375 0.90207 0.48295 0.0
C1748 C 0.13138 0.34803 0.50833 0.0
C1749 C 0.16337 0.35942 0.51185 0.0
H1750 H 0.08094 0.36007 0.50402 0.0
C1751 C 0.1686 0.39286 0.512 0.0
H1752 H 0.12643 0.32237 0.50847 0.0
C1753 C 0.14268 0.41436 0.50949 0.0
C1754 C 0.11051 0.40319 0.50691 0.0
H1755 H 0.19284 0.40252 0.51431 0.0
H1756 H 0.14808 0.43992 0.5101 0.0
C1757 C 0.10524 0.36965 0.506 0.0
C1758 C 0.38836 0.16658 0.50101 0.0
C1759 C 0.35965 0.16208 0.5186 0.0
H1760 H 0.43181 0.14506 0.48268 0.0
C1761 C 0.3515 0.13067 0.52883 0.0
H1762 H 0.39527 0.19044 0.49282 0.0
C1763 C 0.37214 0.10455 0.52271 0.0
C1764 C 0.40172 0.1093 0.50663 0.0
H1765 H 0.32931 0.12642 0.54216 0.0
H1766 H 0.36556 0.08092 0.53181 0.0
C1767 C 0.4093 0.14054 0.49535 0.0
C1768 C 0.87589 0.34861 0.50279 0.0
C1769 C 0.84389 0.36014 0.50011 0.0
H1770 H 0.92643 0.36044 0.50647 0.0
C1771 C 0.83874 0.39358 0.50105 0.0
H1772 H 0.88077 0.32295 0.50181 0.0
C1773 C 0.86476 0.41497 0.50371 0.0
C1774 C 0.89695 0.40367 0.50529 0.0
H1775 H 0.81448 0.40332 0.49942 0.0
H1776 H 0.85944 0.44055 0.50398 0.0
C1777 C 0.90213 0.37011 0.50526 0.0
C1778 C 0.16879 0.61738 0.50526 0.0
C1779 C 0.16311 0.65067 0.50265 0.0
H1780 H 0.14872 0.57018 0.50962 0.0
C1781 C 0.13088 0.66173 0.50403 0.0
H1782 H 0.19324 0.608 0.50466 0.0
C1783 C 0.10497 0.63989 0.5068 0.0
C1784 C 0.11067 0.60646 0.50842 0.0
H1785 H 0.12557 0.68721 0.50173 0.0
H1786 H 0.08049 0.64921 0.50688 0.0
C1787 C 0.14305 0.59565 0.50818 0.0
loop_
_geom_bond_atom_site_label_1
_geom_bond_atom_site_label_2
_geom_bond_distance
_geom_bond_site_symmetry_2
_ccdc_geom_bond_type
P0 O11 1.490 . S
P0 C14 1.812 . S
P0 C20 1.803 . S
P0 C26 1.819 . S
H1 C15 0.941 . S
H2 C16 0.939 . S
H3 C18 0.940 . S
H4 C19 0.940 . S
H5 C21 0.939 . S
H6 C22 0.942 . S
H7 C24 0.940 . S
H8 C25 0.939 . S
H9 C27 0.941 . S
H10 C31 0.939 1_455 S
O11 P0 1.490 . S
H12 C28 0.939 . S
H13 C30 0.940 . S
C14 P0 1.812 . S
C14 C15 1.389 . S
C14 C19 1.391 1_655 S
C15 H1 0.941 . S
C15 C14 1.389 . S
C15 C16 1.397 . S
C16 H2 0.939 . S
C16 C15 1.397 . S
C16 C17 1.378 . S
C17 C16 1.378 . S
C17 C18 1.378 1_655 S
C18 H3 0.940 . S
C18 C17 1.378 1_455 S
C18 C19 1.396 . S
C19 H4 0.940 . S
C19 C14 1.391 1_455 S
C19 C18 1.396 . S
C20 P0 1.803 . S
C20 C21 1.378 . S
C20 C25 1.400 1_655 S
C21 H5 0.939 . S
C21 C20 1.378 . S
C21 C22 1.361 . S
C22 H6 0.942 . S
C22 C21 1.361 . S
C22 C23 1.369 . S
C23 C22 1.369 . S
C23 C24 1.404 1_655 S
C24 H7 0.940 . S
C24 C23 1.404 1_455 S
C24 C25 1.389 . S
C25 H8 0.939 . S
C25 C20 1.400 1_455 S
C25 C24 1.389 . S
C26 P0 1.819 . S
C26 C27 1.391 . S
C26 C31 1.391 . S
C27 H9 0.941 . S
C27 C26 1.391 . S
C27 C28 1.396 . S
C28 H12 0.939 . S
C28 C27 1.396 . S
C28 C29 1.397 . S
C29 C28 1.397 . S
C29 C30 1.385 1_655 S
C30 H13 0.940 . S
C30 C29 1.385 1_455 S
C30 C31 1.388 1_455 S
C31 H10 0.939 1_655 S
C31 C26 1.391 . S
C31 C30 1.388 1_655 S
P32 O43 1.490 . S
P32 C46 1.812 . S
P32 C52 1.803 . S
P32 C58 1.819 . S
H33 C47 0.941 . S
H34 C48 0.939 . S
H35 C50 0.940 . S
H36 C51 0.940 . S
H37 C53 0.939 . S
H38 C54 0.942 . S
H39 C56 0.940 . S
H40 C57 0.939 . S
H41 C59 0.941 . S
H42 C63 0.939 1_545 S
O43 P32 1.490 . S
H44 C60 0.939 . S
H45 C62 0.940 . S
C46 P32 1.812 . S
C46 C47 1.389 . S
C46 C51 1.391 1_565 S
C47 H33 0.941 . S
C47 C46 1.389 . S
C47 C48 1.397 . S
C48 H34 0.939 . S
C48 C47 1.397 . S
C48 C49 1.378 . S
C49 C48 1.378 . S
C49 C50 1.378 1_565 S
C50 H35 0.940 . S
C50 C49 1.378 1_545 S
C50 C51 1.396 . S
C51 H36 0.940 . S
C51 C46 1.391 1_545 S
C51 C50 1.396 . S
C52 P32 1.803 . S
C52 C53 1.378 . S
C52 C57 1.400 1_565 S
C53 H37 0.939 . S
C53 C52 1.378 . S
C53 C54 1.361 . S
C54 H38 0.942 . S
C54 C53 1.361 . S
C54 C55 1.369 . S
C55 C54 1.369 . S
C55 C56 1.404 1_565 S
C56 H39 0.940 . S
C56 C55 1.404 1_545 S
C56 C57 1.389 . S
C57 H40 0.939 . S
C57 C52 1.400 1_545 S
C57 C56 1.389 . S
C58 P32 1.819 . S
C58 C59 1.391 . S
C58 C63 1.391 . S
C59 H41 0.941 . S
C59 C58 1.391 . S
C59 C60 1.396 . S
C60 H44 0.939 . S
C60 C59 1.396 . S
C60 C61 1.397 . S
C61 C60 1.397 . S
C61 C62 1.385 1_565 S
C62 H45 0.940 . S
C62 C61 1.385 1_545 S
C62 C63 1.388 1_545 S
C63 H42 0.939 1_565 S
C63 C58 1.391 . S
C63 C62 1.388 1_565 S
P64 O75 1.490 . S
P64 C78 1.812 . S
P64 C84 1.803 . S
P64 C90 1.819 . S
H65 C79 0.941 . S
H66 C80 0.939 . S
H67 C82 0.940 . S
H68 C83 0.940 1_655 S
H69 C85 0.939 . S
H70 C86 0.942 . S
H71 C88 0.940 . S
H72 C89 0.939 1_655 S
H73 C91 0.941 . S
H74 C95 0.939 . S
O75 P64 1.490 . S
H76 C92 0.939 . S
H77 C94 0.940 . S
C78 P64 1.812 . S
C78 C79 1.389 . S
C78 C83 1.391 . S
C79 H65 0.941 . S
C79 C78 1.389 . S
C79 C80 1.397 . S
C80 H66 0.939 . S
C80 C79 1.397 . S
C80 C81 1.378 . S
C81 C80 1.378 . S
C81 C82 1.378 1_455 S
C82 H67 0.940 . S
C82 C81 1.378 1_655 S
C82 C83 1.396 1_655 S
C83 H68 0.940 1_455 S
C83 C78 1.391 . S
C83 C82 1.396 1_455 S
C84 P64 1.803 . S
C84 C85 1.378 . S
C84 C89 1.400 . S
C85 H69 0.939 . S
C85 C84 1.378 . S
C85 C86 1.361 . S
C86 H70 0.942 . S
C86 C85 1.361 . S
C86 C87 1.369 . S
C87 C86 1.369 . S
C87 C88 1.404 1_455 S
C88 H71 0.940 . S
C88 C87 1.404 1_655 S
C88 C89 1.389 1_655 S
C89 H72 0.939 1_455 S
C89 C84 1.400 . S
C89 C88 1.389 1_455 S
C90 P64 1.819 . S
C90 C91 1.391 . S
C90 C95 1.391 . S
C91 H73 0.941 . S
C91 C90 1.391 . S
C91 C92 1.396 . S
C92 H76 0.939 . S
C92 C91 1.396 . S
C92 C93 1.397 . S
C93 C92 1.397 . S
C93 C94 1.385 1_455 S
C94 H77 0.940 . S
C94 C93 1.385 1_655 S
C94 C95 1.388 1_655 S
C95 H74 0.939 . S
C95 C90 1.391 . S
C95 C94 1.388 1_455 S
P96 O107 1.490 . S
P96 C110 1.812 . S
P96 C116 1.803 . S
P96 C122 1.819 . S
H97 C111 0.941 . S
H98 C112 0.939 . S
H99 C114 0.940 . S
H100 C115 0.940 . S
H101 C117 0.939 . S
H102 C118 0.942 . S
H103 C120 0.940 . S
H104 C121 0.939 . S
H105 C123 0.941 . S
H106 C127 0.939 1_545 S
O107 P96 1.490 . S
H108 C124 0.939 . S
H109 C126 0.940 . S
C110 P96 1.812 . S
C110 C111 1.389 . S
C110 C115 1.391 1_565 S
C111 H97 0.941 . S
C111 C110 1.389 . S
C111 C112 1.397 . S
C112 H98 0.939 . S
C112 C111 1.397 . S
C112 C113 1.378 . S
C113 C112 1.378 . S
C113 C114 1.378 1_565 S
C114 H99 0.940 . S
C114 C113 1.378 1_545 S
C114 C115 1.396 . S
C115 H100 0.940 . S
C115 C110 1.391 1_545 S
C115 C114 1.396 . S
C116 P96 1.803 . S
C116 C117 1.378 . S
C116 C121 1.400 1_565 S
C117 H101 0.939 . S
C117 C116 1.378 . S
C117 C118 1.361 . S
C118 H102 0.942 . S
C118 C117 1.361 . S
C118 C119 1.369 . S
C119 C118 1.369 . S
C119 C120 1.404 1_565 S
C120 H103 0.940 . S
C120 C119 1.404 1_545 S
C120 C121 1.389 . S
C121 H104 0.939 . S
C121 C116 1.400 1_545 S
C121 C120 1.389 . S
C122 P96 1.819 . S
C122 C123 1.391 . S
C122 C127 1.391 . S
C123 H105 0.941 . S
C123 C122 1.391 . S
C123 C124 1.396 . S
C124 H108 0.939 . S
C124 C123 1.396 . S
C124 C125 1.397 . S
C125 C124 1.397 . S
C125 C126 1.385 1_565 S
C126 H109 0.940 . S
C126 C125 1.385 1_545 S
C126 C127 1.388 1_545 S
C127 H106 0.939 1_565 S
C127 C122 1.391 . S
C127 C126 1.388 1_565 S
P128 O139 1.490 . S
P128 C142 1.812 . S
P128 C148 1.803 . S
P128 C154 1.819 . S
H129 C143 0.941 . S
H130 C144 0.939 . S
H131 C146 0.940 . S
H132 C147 0.940 . S
H133 C149 0.939 . S
H134 C150 0.942 . S
H135 C152 0.940 . S
H136 C153 0.939 . S
H137 C155 0.941 . S
H138 C159 0.939 1_455 S
O139 P128 1.490 . S
H140 C156 0.939 . S
H141 C158 0.940 . S
C142 P128 1.812 . S
C142 C143 1.389 . S
C142 C147 1.391 1_655 S
C143 H129 0.941 . S
C143 C142 1.389 . S
C143 C144 1.397 . S
C144 H130 0.939 . S
C144 C143 1.397 . S
C144 C145 1.378 . S
C145 C144 1.378 . S
C145 C146 1.378 1_655 S
C146 H131 0.940 . S
C146 C145 1.378 1_455 S
C146 C147 1.396 . S
C147 H132 0.940 . S
C147 C142 1.391 1_455 S
C147 C146 1.396 . S
C148 P128 1.803 . S
C148 C149 1.378 . S
C148 C153 1.400 1_655 S
C149 H133 0.939 . S
C149 C148 1.378 . S
C149 C150 1.361 . S
C150 H134 0.942 . S
C150 C149 1.361 . S
C150 C151 1.369 . S
C151 C150 1.369 . S
C151 C152 1.404 1_655 S
C152 H135 0.940 . S
C152 C151 1.404 1_455 S
C152 C153 1.389 . S
C153 H136 0.939 . S
C153 C148 1.400 1_455 S
C153 C152 1.389 . S
C154 P128 1.819 . S
C154 C155 1.391 . S
C154 C159 1.391 . S
C155 H137 0.941 . S
C155 C154 1.391 . S
C155 C156 1.396 . S
C156 H140 0.939 . S
C156 C155 1.396 . S
C156 C157 1.397 . S
C157 C156 1.397 . S
C157 C158 1.385 1_655 S
C158 H141 0.940 . S
C158 C157 1.385 1_455 S
C158 C159 1.388 1_455 S
C159 H138 0.939 1_655 S
C159 C154 1.391 . S
C159 C158 1.388 1_655 S
P160 O171 1.490 . S
P160 C174 1.812 . S
P160 C180 1.803 . S
P160 C186 1.819 . S
H161 C175 0.941 . S
H162 C176 0.939 . S
H163 C178 0.940 . S
H164 C179 0.940 . S
H165 C181 0.939 . S
H166 C182 0.942 . S
H167 C184 0.940 . S
H168 C185 0.939 . S
H169 C187 0.941 . S
H170 C191 0.939 1_545 S
O171 P160 1.490 . S
H172 C188 0.939 . S
H173 C190 0.940 . S
C174 P160 1.812 . S
C174 C175 1.389 . S
C174 C179 1.391 1_565 S
C175 H161 0.941 . S
C175 C174 1.389 . S
C175 C176 1.397 . S
C176 H162 0.939 . S
C176 C175 1.397 . S
C176 C177 1.378 . S
C177 C176 1.378 . S
C177 C178 1.378 1_565 S
C178 H163 0.940 . S
C178 C177 1.378 1_545 S
C178 C179 1.396 . S
C179 H164 0.940 . S
C179 C174 1.391 1_545 S
C179 C178 1.396 . S
C180 P160 1.803 . S
C180 C181 1.378 . S
C180 C185 1.400 1_565 S
C181 H165 0.939 . S
C181 C180 1.378 . S
C181 C182 1.361 . S
C182 H166 0.942 . S
C182 C181 1.361 . S
C182 C183 1.369 . S
C183 C182 1.369 . S
C183 C184 1.404 1_565 S
C184 H167 0.940 . S
C184 C183 1.404 1_545 S
C184 C185 1.389 . S
C185 H168 0.939 . S
C185 C180 1.400 1_545 S
C185 C184 1.389 . S
C186 P160 1.819 . S
C186 C187 1.391 . S
C186 C191 1.391 . S
C187 H169 0.941 . S
C187 C186 1.391 . S
C187 C188 1.396 . S
C188 H172 0.939 . S
C188 C187 1.396 . S
C188 C189 1.397 . S
C189 C188 1.397 . S
C189 C190 1.385 1_565 S
C190 H173 0.940 . S
C190 C189 1.385 1_545 S
C190 C191 1.388 1_545 S
C191 H170 0.939 1_565 S
C191 C186 1.391 . S
C191 C190 1.388 1_565 S
P192 O203 1.490 . S
P192 C206 1.812 . S
P192 C212 1.803 . S
P192 C218 1.819 . S
H193 C207 0.941 . S
H194 C208 0.939 . S
H195 C210 0.940 . S
H196 C211 0.940 1_655 S
H197 C213 0.939 . S
H198 C214 0.942 . S
H199 C216 0.940 . S
H200 C217 0.939 1_655 S
H201 C219 0.941 . S
H202 C223 0.939 . S
O203 P192 1.490 . S
H204 C220 0.939 . S
H205 C222 0.940 . S
C206 P192 1.812 . S
C206 C207 1.389 . S
C206 C211 1.391 . S
C207 H193 0.941 . S
C207 C206 1.389 . S
C207 C208 1.397 . S
C208 H194 0.939 . S
C208 C207 1.397 . S
C208 C209 1.378 . S
C209 C208 1.378 . S
C209 C210 1.378 1_455 S
C210 H195 0.940 . S
C210 C209 1.378 1_655 S
C210 C211 1.396 1_655 S
C211 H196 0.940 1_455 S
C211 C206 1.391 . S
C211 C210 1.396 1_455 S
C212 P192 1.803 . S
C212 C213 1.378 . S
C212 C217 1.400 . S
C213 H197 0.939 . S
C213 C212 1.378 . S
C213 C214 1.361 . S
C214 H198 0.942 . S
C214 C213 1.361 . S
C214 C215 1.369 . S
C215 C214 1.369 . S
C215 C216 1.404 1_455 S
C216 H199 0.940 . S
C216 C215 1.404 1_655 S
C216 C217 1.389 1_655 S
C217 H200 0.939 1_455 S
C217 C212 1.400 . S
C217 C216 1.389 1_455 S
C218 P192 1.819 . S
C218 C219 1.391 . S
C218 C223 1.391 . S
C219 H201 0.941 . S
C219 C218 1.391 . S
C219 C220 1.396 . S
C220 H204 0.939 . S
C220 C219 1.396 . S
C220 C221 1.397 . S
C221 C220 1.397 . S
C221 C222 1.385 1_455 S
C222 H205 0.940 . S
C222 C221 1.385 1_655 S
C222 C223 1.388 1_655 S
C223 H202 0.939 . S
C223 C218 1.391 . S
C223 C222 1.388 1_455 S
P224 O235 1.490 . S
P224 C238 1.812 . S
P224 C244 1.803 . S
P224 C250 1.819 . S
H225 C239 0.941 . S
H226 C240 0.939 . S
H227 C242 0.940 . S
H228 C243 0.940 1_565 S
H229 C245 0.939 . S
H230 C246 0.942 . S
H231 C248 0.940 . S
H232 C249 0.929 1_565 S
H233 C251 0.941 . S
H234 C255 0.947 . S
O235 P224 1.490 . S
H236 C252 0.939 . S
H237 C254 0.940 . S
C238 P224 1.812 . S
C238 C239 1.389 . S
C238 C243 1.391 . S
C239 H225 0.941 . S
C239 C238 1.389 . S
C239 C240 1.397 . S
C240 H226 0.939 . S
C240 C239 1.397 . S
C240 C241 1.378 . S
C241 C240 1.378 . S
C241 C242 1.378 1_545 S
C242 H227 0.940 . S
C242 C241 1.378 1_565 S
C242 C243 1.396 1_565 S
C243 H228 0.940 1_545 S
C243 C238 1.391 . S
C243 C242 1.396 1_545 S
C244 P224 1.803 . S
C244 C245 1.378 . S
C244 C249 1.417 . S
C245 H229 0.939 . S
C245 C244 1.378 . S
C245 C246 1.361 . S
C246 H230 0.942 . S
C246 C245 1.361 . S
C246 C247 1.369 . S
C247 C246 1.369 . S
C247 C248 1.404 1_545 S
C248 H231 0.940 . S
C248 C247 1.404 1_565 S
C248 C249 1.383 1_565 S
C249 H232 0.929 1_545 S
C249 C244 1.417 . S
C249 C248 1.383 1_545 S
C250 P224 1.819 . S
C250 C251 1.391 . S
C250 C255 1.391 . S
C251 H233 0.941 . S
C251 C250 1.391 . S
C251 C252 1.396 . S
C252 H236 0.939 . S
C252 C251 1.396 . S
C252 C253 1.397 . S
C253 C252 1.397 . S
C253 C254 1.385 1_545 S
C254 H237 0.940 . S
C254 C253 1.385 1_565 S
C254 C255 1.388 1_565 S
C255 H234 0.947 . S
C255 C250 1.391 . S
C255 C254 1.388 1_545 S
P256 O267 1.490 . S
P256 C270 1.812 . S
P256 C276 1.803 . S
P256 C282 1.819 . S
H257 C271 0.941 . S
H258 C272 0.939 . S
H259 C274 0.940 . S
H260 C275 0.956 . S
H261 C277 0.939 . S
H262 C278 0.942 . S
H263 C280 0.940 . S
H264 C281 0.939 . S
H265 C283 0.941 . S
H266 C287 0.939 1_554 S
O267 P256 1.490 . S
H268 C284 0.939 . S
H269 C286 0.940 . S
C270 P256 1.812 . S
C270 C271 1.389 . S
C270 C275 1.366 1_556 S
C271 H257 0.941 . S
C271 C270 1.389 . S
C271 C272 1.397 . S
C272 H258 0.939 . S
C272 C271 1.397 . S
C272 C273 1.378 . S
C273 C272 1.378 . S
C273 C274 1.378 1_556 S
C274 H259 0.940 . S
C274 C273 1.378 1_554 S
C274 C275 1.406 . S
C275 H260 0.956 . S
C275 C270 1.366 1_554 S
C275 C274 1.406 . S
C276 P256 1.803 . S
C276 C277 1.378 . S
C276 C281 1.400 1_556 S
C277 H261 0.939 . S
C277 C276 1.378 . S
C277 C278 1.361 . S
C278 H262 0.942 . S
C278 C277 1.361 . S
C278 C279 1.369 . S
C279 C278 1.369 . S
C279 C280 1.404 1_556 S
C280 H263 0.940 . S
C280 C279 1.404 1_554 S
C280 C281 1.389 . S
C281 H264 0.939 . S
C281 C276 1.400 1_554 S
C281 C280 1.389 . S
C282 P256 1.819 . S
C282 C283 1.391 . S
C282 C287 1.391 . S
C283 H265 0.941 . S
C283 C282 1.391 . S
C283 C284 1.396 . S
C284 H268 0.939 . S
C284 C283 1.396 . S
C284 C285 1.397 . S
C285 C284 1.397 . S
C285 C286 1.385 1_556 S
C286 H269 0.940 . S
C286 C285 1.385 1_554 S
C286 C287 1.388 1_554 S
C287 H266 0.939 1_556 S
C287 C282 1.391 . S
C287 C286 1.388 1_556 S
P288 O299 1.490 . S
P288 C302 1.812 . S
P288 C308 1.803 . S
P288 C314 1.819 . S
H289 C303 0.941 . S
H290 C304 0.939 . S
H291 C306 0.940 . S
H292 C307 0.957 . S
H293 C309 0.939 . S
H294 C310 0.942 . S
H295 C312 0.940 . S
H296 C313 0.939 . S
H297 C315 0.941 . S
H298 C319 0.939 1_554 S
O299 P288 1.490 . S
H300 C316 0.939 . S
H301 C318 0.940 . S
C302 P288 1.812 . S
C302 C303 1.389 . S
C302 C307 1.365 1_556 S
C303 H289 0.941 . S
C303 C302 1.389 . S
C303 C304 1.397 . S
C304 H290 0.939 . S
C304 C303 1.397 . S
C304 C305 1.378 . S
C305 C304 1.378 . S
C305 C306 1.378 1_556 S
C306 H291 0.940 . S
C306 C305 1.378 1_554 S
C306 C307 1.407 . S
C307 H292 0.957 . S
C307 C302 1.365 1_554 S
C307 C306 1.407 . S
C308 P288 1.803 . S
C308 C309 1.378 . S
C308 C313 1.400 1_556 S
C309 H293 0.939 . S
C309 C308 1.378 . S
C309 C310 1.361 . S
C310 H294 0.942 . S
C310 C309 1.361 . S
C310 C311 1.369 . S
C311 C310 1.369 . S
C311 C312 1.404 1_556 S
C312 H295 0.940 . S
C312 C311 1.404 1_554 S
C312 C313 1.389 . S
C313 H296 0.939 . S
C313 C308 1.400 1_554 S
C313 C312 1.389 . S
C314 P288 1.819 . S
C314 C315 1.391 . S
C314 C319 1.391 . S
C315 H297 0.941 . S
C315 C314 1.391 . S
C315 C316 1.396 . S
C316 H300 0.939 . S
C316 C315 1.396 . S
C316 C317 1.397 . S
C317 C316 1.397 . S
C317 C318 1.385 1_556 S
C318 H301 0.940 . S
C318 C317 1.385 1_554 S
C318 C319 1.388 1_554 S
C319 H298 0.939 1_556 S
C319 C314 1.391 . S
C319 C318 1.388 1_556 S
P320 O331 1.490 . S
P320 C334 1.812 . S
P320 C340 1.803 . S
P320 C346 1.819 . S
H321 C335 0.941 . S
H322 C336 0.939 . S
H323 C338 0.940 . S
H324 C339 0.955 . S
H325 C341 0.939 . S
H326 C342 0.942 . S
H327 C344 0.940 . S
H328 C345 0.939 . S
H329 C347 0.941 . S
H330 C351 0.939 1_554 S
O331 P320 1.490 . S
H332 C348 0.939 . S
H333 C350 0.940 . S
C334 P320 1.812 . S
C334 C335 1.389 . S
C334 C339 1.367 1_556 S
C335 H321 0.941 . S
C335 C334 1.389 . S
C335 C336 1.397 . S
C336 H322 0.939 . S
C336 C335 1.397 . S
C336 C337 1.378 . S
C337 C336 1.378 . S
C337 C338 1.378 1_556 S
C338 H323 0.940 . S
C338 C337 1.378 1_554 S
C338 C339 1.406 . S
C339 H324 0.955 . S
C339 C334 1.367 1_554 S
C339 C338 1.406 . S
C340 P320 1.803 . S
C340 C341 1.378 . S
C340 C345 1.400 1_556 S
C341 H325 0.939 . S
C341 C340 1.378 . S
C341 C342 1.361 . S
C342 H326 0.942 . S
C342 C341 1.361 . S
C342 C343 1.369 . S
C343 C342 1.369 . S
C343 C344 1.404 1_556 S
C344 H327 0.940 . S
C344 C343 1.404 1_554 S
C344 C345 1.389 . S
C345 H328 0.939 . S
C345 C340 1.400 1_554 S
C345 C344 1.389 . S
C346 P320 1.819 . S
C346 C347 1.391 . S
C346 C351 1.391 . S
C347 H329 0.941 . S
C347 C346 1.391 . S
C347 C348 1.396 . S
C348 H332 0.939 . S
C348 C347 1.396 . S
C348 C349 1.397 . S
C349 C348 1.397 . S
C349 C350 1.385 1_556 S
C350 H333 0.940 . S
C350 C349 1.385 1_554 S
C350 C351 1.388 1_554 S
C351 H330 0.939 1_556 S
C351 C346 1.391 . S
C351 C350 1.388 1_556 S
P352 O363 1.490 . S
P352 C366 1.812 . S
P352 C372 1.803 . S
P352 C378 1.819 . S
H353 C367 0.941 . S
H354 C368 0.939 . S
H355 C370 0.940 . S
H356 C371 0.940 . S
H357 C373 0.939 . S
H358 C374 0.942 . S
H359 C376 0.940 . S
H360 C377 0.950 . S
H361 C379 0.941 . S
H362 C383 0.935 1_556 S
O363 P352 1.490 . S
H364 C380 0.939 . S
H365 C382 0.940 . S
C366 P352 1.812 . S
C366 C367 1.389 . S
C366 C371 1.390 1_554 S
C367 H353 0.941 . S
C367 C366 1.389 . S
C367 C368 1.397 . S
C368 H354 0.939 . S
C368 C367 1.397 . S
C368 C369 1.378 . S
C369 C368 1.378 . S
C369 C370 1.378 1_554 S
C370 H355 0.940 . S
C370 C369 1.378 1_556 S
C370 C371 1.397 . S
C371 H356 0.940 . S
C371 C366 1.390 1_556 S
C371 C370 1.397 . S
C372 P352 1.803 . S
C372 C373 1.378 . S
C372 C377 1.382 1_554 S
C373 H357 0.939 . S
C373 C372 1.378 . S
C373 C374 1.361 . S
C374 H358 0.942 . S
C374 C373 1.361 . S
C374 C375 1.369 . S
C375 C374 1.369 . S
C375 C376 1.404 1_554 S
C376 H359 0.940 . S
C376 C375 1.404 1_556 S
C376 C377 1.396 . S
C377 H360 0.950 . S
C377 C372 1.382 1_556 S
C377 C376 1.396 . S
C378 P352 1.819 . S
C378 C379 1.391 . S
C378 C383 1.391 . S
C379 H361 0.941 . S
C379 C378 1.391 . S
C379 C380 1.396 . S
C380 H364 0.939 . S
C380 C379 1.396 . S
C380 C381 1.397 . S
C381 C380 1.397 . S
C381 C382 1.385 1_554 S
C382 H365 0.940 . S
C382 C381 1.385 1_556 S
C382 C383 1.388 1_556 S
C383 H362 0.935 1_554 S
C383 C378 1.391 . S
C383 C382 1.388 1_554 S
P384 O395 1.490 . S
P384 C398 1.812 . S
P384 C404 1.803 . S
P384 C410 1.819 . S
H385 C399 0.941 . S
H386 C400 0.939 . S
H387 C402 0.940 . S
H388 C403 0.940 . S
H389 C405 0.939 . S
H390 C406 0.942 . S
H391 C408 0.940 . S
H392 C409 0.939 . S
H393 C411 0.941 . S
H394 C415 0.939 . S
O395 P384 1.490 . S
H396 C412 0.939 . S
H397 C414 0.940 . S
C398 P384 1.812 . S
C398 C399 1.389 . S
C398 C403 1.391 . S
C399 H385 0.941 . S
C399 C398 1.389 . S
C399 C400 1.397 . S
C400 H386 0.939 . S
C400 C399 1.397 . S
C400 C401 1.378 . S
C401 C400 1.378 . S
C401 C402 1.378 . S
C402 H387 0.940 . S
C402 C401 1.378 . S
C402 C403 1.396 . S
C403 H388 0.940 . S
C403 C398 1.391 . S
C403 C402 1.396 . S
C404 P384 1.803 . S
C404 C405 1.378 . S
C404 C409 1.400 . S
C405 H389 0.939 . S
C405 C404 1.378 . S
C405 C406 1.361 . S
C406 H390 0.942 . S
C406 C405 1.361 . S
C406 C407 1.369 . S
C407 C406 1.369 . S
C407 C408 1.404 . S
C408 H391 0.940 . S
C408 C407 1.404 . S
C408 C409 1.389 . S
C409 H392 0.939 . S
C409 C404 1.400 . S
C409 C408 1.389 . S
C410 P384 1.819 . S
C410 C411 1.391 . S
C410 C415 1.391 . S
C411 H393 0.941 . S
C411 C410 1.391 . S
C411 C412 1.396 . S
C412 H396 0.939 . S
C412 C411 1.396 . S
C412 C413 1.397 . S
C413 C412 1.397 . S
C413 C414 1.385 . S
C414 H397 0.940 . S
C414 C413 1.385 . S
C414 C415 1.388 . S
C415 H394 0.939 . S
C415 C410 1.391 . S
C415 C414 1.388 . S
P416 O427 1.490 . S
P416 C430 1.812 . S
P416 C436 1.803 . S
P416 C442 1.819 . S
H417 C431 0.941 . S
H418 C432 0.939 . S
H419 C434 0.940 . S
H420 C435 0.940 . S
H421 C437 0.939 . S
H422 C438 0.942 . S
H423 C440 0.940 . S
H424 C441 0.939 . S
H425 C443 0.941 . S
H426 C447 0.939 . S
O427 P416 1.490 . S
H428 C444 0.939 . S
H429 C446 0.940 . S
C430 P416 1.812 . S
C430 C431 1.389 . S
C430 C435 1.391 . S
C431 H417 0.941 . S
C431 C430 1.389 . S
C431 C432 1.397 . S
C432 H418 0.939 . S
C432 C431 1.397 . S
C432 C433 1.378 . S
C433 C432 1.378 . S
C433 C434 1.378 . S
C434 H419 0.940 . S
C434 C433 1.378 . S
C434 C435 1.396 . S
C435 H420 0.940 . S
C435 C430 1.391 . S
C435 C434 1.396 . S
C436 P416 1.803 . S
C436 C437 1.378 . S
C436 C441 1.400 . S
C437 H421 0.939 . S
C437 C436 1.378 . S
C437 C438 1.361 . S
C438 H422 0.942 . S
C438 C437 1.361 . S
C438 C439 1.369 . S
C439 C438 1.369 . S
C439 C440 1.404 . S
C440 H423 0.940 . S
C440 C439 1.404 . S
C440 C441 1.389 . S
C441 H424 0.939 . S
C441 C436 1.400 . S
C441 C440 1.389 . S
C442 P416 1.819 . S
C442 C443 1.391 . S
C442 C447 1.391 . S
C443 H425 0.941 . S
C443 C442 1.391 . S
C443 C444 1.396 . S
C444 H428 0.939 . S
C444 C443 1.396 . S
C444 C445 1.397 . S
C445 C444 1.397 . S
C445 C446 1.385 . S
C446 H429 0.940 . S
C446 C445 1.385 . S
C446 C447 1.388 . S
C447 H426 0.939 . S
C447 C442 1.391 . S
C447 C446 1.388 . S
P448 O459 1.490 . S
P448 C462 1.812 . S
P448 C468 1.803 . S
P448 C474 1.819 . S
H449 C463 0.941 . S
H450 C464 0.939 . S
H451 C466 0.940 . S
H452 C467 0.940 . S
H453 C469 0.939 . S
H454 C470 0.942 . S
H455 C472 0.940 . S
H456 C473 0.939 . S
H457 C475 0.941 . S
H458 C479 0.939 . S
O459 P448 1.490 . S
H460 C476 0.939 . S
H461 C478 0.940 . S
C462 P448 1.812 . S
C462 C463 1.389 . S
C462 C467 1.391 . S
C463 H449 0.941 . S
C463 C462 1.389 . S
C463 C464 1.397 . S
C464 H450 0.939 . S
C464 C463 1.397 . S
C464 C465 1.378 . S
C465 C464 1.378 . S
C465 C466 1.378 . S
C466 H451 0.940 . S
C466 C465 1.378 . S
C466 C467 1.396 . S
C467 H452 0.940 . S
C467 C462 1.391 . S
C467 C466 1.396 . S
C468 P448 1.803 . S
C468 C469 1.378 . S
C468 C473 1.400 . S
C469 H453 0.939 . S
C469 C468 1.378 . S
C469 C470 1.361 . S
C470 H454 0.942 . S
C470 C469 1.361 . S
C470 C471 1.369 . S
C471 C470 1.369 . S
C471 C472 1.404 . S
C472 H455 0.940 . S
C472 C471 1.404 . S
C472 C473 1.389 . S
C473 H456 0.939 . S
C473 C468 1.400 . S
C473 C472 1.389 . S
C474 P448 1.819 . S
C474 C475 1.391 . S
C474 C479 1.391 . S
C475 H457 0.941 . S
C475 C474 1.391 . S
C475 C476 1.396 . S
C476 H460 0.939 . S
C476 C475 1.396 . S
C476 C477 1.397 . S
C477 C476 1.397 . S
C477 C478 1.385 . S
C478 H461 0.940 . S
C478 C477 1.385 . S
C478 C479 1.388 . S
C479 H458 0.939 . S
C479 C474 1.391 . S
C479 C478 1.388 . S
P480 O491 1.490 . S
P480 C494 1.812 . S
P480 C500 1.803 . S
P480 C506 1.819 . S
H481 C495 0.941 . S
H482 C496 0.939 . S
H483 C498 0.940 . S
H484 C499 0.940 . S
H485 C501 0.939 . S
H486 C502 0.942 . S
H487 C504 0.940 . S
H488 C505 0.939 . S
H489 C507 0.941 . S
H490 C511 0.939 . S
O491 P480 1.490 . S
H492 C508 0.939 . S
H493 C510 0.940 . S
C494 P480 1.812 . S
C494 C495 1.389 . S
C494 C499 1.391 . S
C495 H481 0.941 . S
C495 C494 1.389 . S
C495 C496 1.397 . S
C496 H482 0.939 . S
C496 C495 1.397 . S
C496 C497 1.378 . S
C497 C496 1.378 . S
C497 C498 1.378 . S
C498 H483 0.940 . S
C498 C497 1.378 . S
C498 C499 1.396 . S
C499 H484 0.940 . S
C499 C494 1.391 . S
C499 C498 1.396 . S
C500 P480 1.803 . S
C500 C501 1.378 . S
C500 C505 1.400 . S
C501 H485 0.939 . S
C501 C500 1.378 . S
C501 C502 1.361 . S
C502 H486 0.942 . S
C502 C501 1.361 . S
C502 C503 1.369 . S
C503 C502 1.369 . S
C503 C504 1.404 . S
C504 H487 0.940 . S
C504 C503 1.404 . S
C504 C505 1.389 . S
C505 H488 0.939 . S
C505 C500 1.400 . S
C505 C504 1.389 . S
C506 P480 1.819 . S
C506 C507 1.391 . S
C506 C511 1.391 . S
C507 H489 0.941 . S
C507 C506 1.391 . S
C507 C508 1.396 . S
C508 H492 0.939 . S
C508 C507 1.396 . S
C508 C509 1.397 . S
C509 C508 1.397 . S
C509 C510 1.385 . S
C510 H493 0.940 . S
C510 C509 1.385 . S
C510 C511 1.388 . S
C511 H490 0.939 . S
C511 C506 1.391 . S
C511 C510 1.388 . S
P512 O523 1.490 . S
P512 C526 1.812 . S
P512 C532 1.803 . S
P512 C538 1.819 . S
H513 C527 0.941 . S
H514 C528 0.939 . S
H515 C530 0.940 . S
H516 C531 0.940 . S
H517 C533 0.939 . S
H518 C534 0.942 . S
H519 C536 0.940 . S
H520 C537 0.939 . S
H521 C539 0.941 . S
H522 C543 0.939 . S
O523 P512 1.490 . S
H524 C540 0.939 . S
H525 C542 0.940 . S
C526 P512 1.812 . S
C526 C527 1.389 . S
C526 C531 1.391 . S
C527 H513 0.941 . S
C527 C526 1.389 . S
C527 C528 1.397 . S
C528 H514 0.939 . S
C528 C527 1.397 . S
C528 C529 1.378 . S
C529 C528 1.378 . S
C529 C530 1.378 . S
C530 H515 0.940 . S
C530 C529 1.378 . S
C530 C531 1.396 . S
C531 H516 0.940 . S
C531 C526 1.391 . S
C531 C530 1.396 . S
C532 P512 1.803 . S
C532 C533 1.378 . S
C532 C537 1.400 . S
C533 H517 0.939 . S
C533 C532 1.378 . S
C533 C534 1.361 . S
C534 H518 0.942 . S
C534 C533 1.361 . S
C534 C535 1.369 . S
C535 C534 1.369 . S
C535 C536 1.404 . S
C536 H519 0.940 . S
C536 C535 1.404 . S
C536 C537 1.389 . S
C537 H520 0.939 . S
C537 C532 1.400 . S
C537 C536 1.389 . S
C538 P512 1.819 . S
C538 C539 1.391 . S
C538 C543 1.391 . S
C539 H521 0.941 . S
C539 C538 1.391 . S
C539 C540 1.396 . S
C540 H524 0.939 . S
C540 C539 1.396 . S
C540 C541 1.397 . S
C541 C540 1.397 . S
C541 C542 1.385 . S
C542 H525 0.940 . S
C542 C541 1.385 . S
C542 C543 1.388 . S
C543 H522 0.939 . S
C543 C538 1.391 . S
C543 C542 1.388 . S
P544 O555 1.490 . S
P544 C558 1.812 . S
P544 C564 1.803 . S
P544 C570 1.819 . S
H545 C559 0.941 . S
H546 C560 0.939 . S
H547 C562 0.940 . S
H548 C563 0.940 . S
H549 C565 0.939 . S
H550 C566 0.942 . S
H551 C568 0.940 . S
H552 C569 0.939 . S
H553 C571 0.941 . S
H554 C575 0.939 . S
O555 P544 1.490 . S
H556 C572 0.939 . S
H557 C574 0.940 . S
C558 P544 1.812 . S
C558 C559 1.389 . S
C558 C563 1.391 . S
C559 H545 0.941 . S
C559 C558 1.389 . S
C559 C560 1.397 . S
C560 H546 0.939 . S
C560 C559 1.397 . S
C560 C561 1.378 . S
C561 C560 1.378 . S
C561 C562 1.378 . S
C562 H547 0.940 . S
C562 C561 1.378 . S
C562 C563 1.396 . S
C563 H548 0.940 . S
C563 C558 1.391 . S
C563 C562 1.396 . S
C564 P544 1.803 . S
C564 C565 1.378 . S
C564 C569 1.400 . S
C565 H549 0.939 . S
C565 C564 1.378 . S
C565 C566 1.361 . S
C566 H550 0.942 . S
C566 C565 1.361 . S
C566 C567 1.369 . S
C567 C566 1.369 . S
C567 C568 1.404 . S
C568 H551 0.940 . S
C568 C567 1.404 . S
C568 C569 1.389 . S
C569 H552 0.939 . S
C569 C564 1.400 . S
C569 C568 1.389 . S
C570 P544 1.819 . S
C570 C571 1.391 . S
C570 C575 1.391 . S
C571 H553 0.941 . S
C571 C570 1.391 . S
C571 C572 1.396 . S
C572 H556 0.939 . S
C572 C571 1.396 . S
C572 C573 1.397 . S
C573 C572 1.397 . S
C573 C574 1.385 . S
C574 H557 0.940 . S
C574 C573 1.385 . S
C574 C575 1.388 . S
C575 H554 0.939 . S
C575 C570 1.391 . S
C575 C574 1.388 . S
P576 O587 1.490 . S
P576 C590 1.812 . S
P576 C596 1.803 . S
P576 C602 1.819 . S
H577 C591 0.941 . S
H578 C592 0.939 . S
H579 C594 0.940 . S
H580 C595 0.940 . S
H581 C597 0.939 . S
H582 C598 0.942 . S
H583 C600 0.940 . S
H584 C601 0.939 . S
H585 C603 0.941 . S
H586 C607 0.939 . S
O587 P576 1.490 . S
H588 C604 0.939 . S
H589 C606 0.940 . S
C590 P576 1.812 . S
C590 C591 1.389 . S
C590 C595 1.391 . S
C591 H577 0.941 . S
C591 C590 1.389 . S
C591 C592 1.397 . S
C592 H578 0.939 . S
C592 C591 1.397 . S
C592 C593 1.378 . S
C593 C592 1.378 . S
C593 C594 1.378 . S
C594 H579 0.940 . S
C594 C593 1.378 . S
C594 C595 1.396 . S
C595 H580 0.940 . S
C595 C590 1.391 . S
C595 C594 1.396 . S
C596 P576 1.803 . S
C596 C597 1.378 . S
C596 C601 1.400 . S
C597 H581 0.939 . S
C597 C596 1.378 . S
C597 C598 1.361 . S
C598 H582 0.942 . S
C598 C597 1.361 . S
C598 C599 1.369 . S
C599 C598 1.369 . S
C599 C600 1.404 . S
C600 H583 0.940 . S
C600 C599 1.404 . S
C600 C601 1.389 . S
C601 H584 0.939 . S
C601 C596 1.400 . S
C601 C600 1.389 . S
C602 P576 1.819 . S
C602 C603 1.391 . S
C602 C607 1.391 . S
C603 H585 0.941 . S
C603 C602 1.391 . S
C603 C604 1.396 . S
C604 H588 0.939 . S
C604 C603 1.396 . S
C604 C605 1.397 . S
C605 C604 1.397 . S
C605 C606 1.385 . S
C606 H589 0.940 . S
C606 C605 1.385 . S
C606 C607 1.388 . S
C607 H586 0.939 . S
C607 C602 1.391 . S
C607 C606 1.388 . S
P608 O619 1.490 . S
P608 C622 1.812 . S
P608 C628 1.803 . S
P608 C634 1.819 . S
H609 C623 0.941 . S
H610 C624 0.939 . S
H611 C626 0.940 . S
H612 C627 0.940 . S
H613 C629 0.939 . S
H614 C630 0.942 . S
H615 C632 0.940 . S
H616 C633 0.939 . S
H617 C635 0.941 . S
H618 C639 0.939 . S
O619 P608 1.490 . S
H620 C636 0.939 . S
H621 C638 0.940 . S
C622 P608 1.812 . S
C622 C623 1.389 . S
C622 C627 1.391 . S
C623 H609 0.941 . S
C623 C622 1.389 . S
C623 C624 1.397 . S
C624 H610 0.939 . S
C624 C623 1.397 . S
C624 C625 1.378 . S
C625 C624 1.378 . S
C625 C626 1.378 . S
C626 H611 0.940 . S
C626 C625 1.378 . S
C626 C627 1.396 . S
C627 H612 0.940 . S
C627 C622 1.391 . S
C627 C626 1.396 . S
C628 P608 1.803 . S
C628 C629 1.378 . S
C628 C633 1.400 . S
C629 H613 0.939 . S
C629 C628 1.378 . S
C629 C630 1.361 . S
C630 H614 0.942 . S
C630 C629 1.361 . S
C630 C631 1.369 . S
C631 C630 1.369 . S
C631 C632 1.404 . S
C632 H615 0.940 . S
C632 C631 1.404 . S
C632 C633 1.389 . S
C633 H616 0.939 . S
C633 C628 1.400 . S
C633 C632 1.389 . S
C634 P608 1.819 . S
C634 C635 1.391 . S
C634 C639 1.391 . S
C635 H617 0.941 . S
C635 C634 1.391 . S
C635 C636 1.396 . S
C636 H620 0.939 . S
C636 C635 1.396 . S
C636 C637 1.397 . S
C637 C636 1.397 . S
C637 C638 1.385 . S
C638 H621 0.940 . S
C638 C637 1.385 . S
C638 C639 1.388 . S
C639 H618 0.939 . S
C639 C634 1.391 . S
C639 C638 1.388 . S
P640 O651 1.490 . S
P640 C654 1.812 . S
P640 C660 1.803 . S
P640 C666 1.819 . S
H641 C655 0.941 . S
H642 C656 0.939 . S
H643 C658 0.940 . S
H644 C659 0.940 . S
H645 C661 0.939 . S
H646 C662 0.942 . S
H647 C664 0.940 . S
H648 C665 0.939 . S
H649 C667 0.941 . S
H650 C671 0.939 . S
O651 P640 1.490 . S
H652 C668 0.939 . S
H653 C670 0.940 . S
C654 P640 1.812 . S
C654 C655 1.389 . S
C654 C659 1.391 . S
C655 H641 0.941 . S
C655 C654 1.389 . S
C655 C656 1.397 . S
C656 H642 0.939 . S
C656 C655 1.397 . S
C656 C657 1.378 . S
C657 C656 1.378 . S
C657 C658 1.378 . S
C658 H643 0.940 . S
C658 C657 1.378 . S
C658 C659 1.396 . S
C659 H644 0.940 . S
C659 C654 1.391 . S
C659 C658 1.396 . S
C660 P640 1.803 . S
C660 C661 1.378 . S
C660 C665 1.400 . S
C661 H645 0.939 . S
C661 C660 1.378 . S
C661 C662 1.361 . S
C662 H646 0.942 . S
C662 C661 1.361 . S
C662 C663 1.369 . S
C663 C662 1.369 . S
C663 C664 1.404 . S
C664 H647 0.940 . S
C664 C663 1.404 . S
C664 C665 1.389 . S
C665 H648 0.939 . S
C665 C660 1.400 . S
C665 C664 1.389 . S
C666 P640 1.819 . S
C666 C667 1.391 . S
C666 C671 1.391 . S
C667 H649 0.941 . S
C667 C666 1.391 . S
C667 C668 1.396 . S
C668 H652 0.939 . S
C668 C667 1.396 . S
C668 C669 1.397 . S
C669 C668 1.397 . S
C669 C670 1.385 . S
C670 H653 0.940 . S
C670 C669 1.385 . S
C670 C671 1.388 . S
C671 H650 0.939 . S
C671 C666 1.391 . S
C671 C670 1.388 . S
P672 O683 1.490 . S
P672 C686 1.812 . S
P672 C692 1.803 . S
P672 C698 1.819 . S
H673 C687 0.941 . S
H674 C688 0.939 . S
H675 C690 0.940 . S
H676 C691 0.940 . S
H677 C693 0.939 . S
H678 C694 0.942 . S
H679 C696 0.940 . S
H680 C697 0.939 . S
H681 C699 0.941 . S
H682 C703 0.939 . S
O683 P672 1.490 . S
H684 C700 0.939 . S
H685 C702 0.940 . S
C686 P672 1.812 . S
C686 C687 1.389 . S
C686 C691 1.391 . S
C687 H673 0.941 . S
C687 C686 1.389 . S
C687 C688 1.397 . S
C688 H674 0.939 . S
C688 C687 1.397 . S
C688 C689 1.378 . S
C689 C688 1.378 . S
C689 C690 1.378 . S
C690 H675 0.940 . S
C690 C689 1.378 . S
C690 C691 1.396 . S
C691 H676 0.940 . S
C691 C686 1.391 . S
C691 C690 1.396 . S
C692 P672 1.803 . S
C692 C693 1.378 . S
C692 C697 1.400 . S
C693 H677 0.939 . S
C693 C692 1.378 . S
C693 C694 1.361 . S
C694 H678 0.942 . S
C694 C693 1.361 . S
C694 C695 1.369 . S
C695 C694 1.369 . S
C695 C696 1.404 . S
C696 H679 0.940 . S
C696 C695 1.404 . S
C696 C697 1.389 . S
C697 H680 0.939 . S
C697 C692 1.400 . S
C697 C696 1.389 . S
C698 P672 1.819 . S
C698 C699 1.391 . S
C698 C703 1.391 . S
C699 H681 0.941 . S
C699 C698 1.391 . S
C699 C700 1.396 . S
C700 H684 0.939 . S
C700 C699 1.396 . S
C700 C701 1.397 . S
C701 C700 1.397 . S
C701 C702 1.385 . S
C702 H685 0.940 . S
C702 C701 1.385 . S
C702 C703 1.388 . S
C703 H682 0.939 . S
C703 C698 1.391 . S
C703 C702 1.388 . S
P704 O715 1.490 . S
P704 C718 1.812 . S
P704 C724 1.803 . S
P704 C730 1.819 . S
H705 C719 0.941 . S
H706 C720 0.939 . S
H707 C722 0.940 . S
H708 C723 0.940 . S
H709 C725 0.939 . S
H710 C726 0.942 . S
H711 C728 0.940 . S
H712 C729 0.939 . S
H713 C731 0.941 . S
H714 C735 0.939 . S
O715 P704 1.490 . S
H716 C732 0.939 . S
H717 C734 0.940 . S
C718 P704 1.812 . S
C718 C719 1.389 . S
C718 C723 1.391 . S
C719 H705 0.941 . S
C719 C718 1.389 . S
C719 C720 1.397 . S
C720 H706 0.939 . S
C720 C719 1.397 . S
C720 C721 1.378 . S
C721 C720 1.378 . S
C721 C722 1.378 . S
C722 H707 0.940 . S
C722 C721 1.378 . S
C722 C723 1.396 . S
C723 H708 0.940 . S
C723 C718 1.391 . S
C723 C722 1.396 . S
C724 P704 1.803 . S
C724 C725 1.378 . S
C724 C729 1.400 . S
C725 H709 0.939 . S
C725 C724 1.378 . S
C725 C726 1.361 . S
C726 H710 0.942 . S
C726 C725 1.361 . S
C726 C727 1.369 . S
C727 C726 1.369 . S
C727 C728 1.404 . S
C728 H711 0.940 . S
C728 C727 1.404 . S
C728 C729 1.389 . S
C729 H712 0.939 . S
C729 C724 1.400 . S
C729 C728 1.389 . S
C730 P704 1.819 . S
C730 C731 1.391 . S
C730 C735 1.391 . S
C731 H713 0.941 . S
C731 C730 1.391 . S
C731 C732 1.396 . S
C732 H716 0.939 . S
C732 C731 1.396 . S
C732 C733 1.397 . S
C733 C732 1.397 . S
C733 C734 1.385 . S
C734 H717 0.940 . S
C734 C733 1.385 . S
C734 C735 1.388 . S
C735 H714 0.939 . S
C735 C730 1.391 . S
C735 C734 1.388 . S
P736 O747 1.490 . S
P736 C750 1.812 . S
P736 C756 1.803 . S
P736 C762 1.819 . S
H737 C751 0.941 . S
H738 C752 0.939 . S
H739 C754 0.940 . S
H740 C755 0.940 . S
H741 C757 0.939 . S
H742 C758 0.942 . S
H743 C760 0.940 . S
H744 C761 0.939 . S
H745 C763 0.941 . S
H746 C767 0.939 . S
O747 P736 1.490 . S
H748 C764 0.939 . S
H749 C766 0.940 . S
C750 P736 1.812 . S
C750 C751 1.389 . S
C750 C755 1.391 . S
C751 H737 0.941 . S
C751 C750 1.389 . S
C751 C752 1.397 . S
C752 H738 0.939 . S
C752 C751 1.397 . S
C752 C753 1.378 . S
C753 C752 1.378 . S
C753 C754 1.378 . S
C754 H739 0.940 . S
C754 C753 1.378 . S
C754 C755 1.396 . S
C755 H740 0.940 . S
C755 C750 1.391 . S
C755 C754 1.396 . S
C756 P736 1.803 . S
C756 C757 1.378 . S
C756 C761 1.400 . S
C757 H741 0.939 . S
C757 C756 1.378 . S
C757 C758 1.361 . S
C758 H742 0.942 . S
C758 C757 1.361 . S
C758 C759 1.369 . S
C759 C758 1.369 . S
C759 C760 1.404 . S
C760 H743 0.940 . S
C760 C759 1.404 . S
C760 C761 1.389 . S
C761 H744 0.939 . S
C761 C756 1.400 . S
C761 C760 1.389 . S
C762 P736 1.819 . S
C762 C763 1.391 . S
C762 C767 1.391 . S
C763 H745 0.941 . S
C763 C762 1.391 . S
C763 C764 1.396 . S
C764 H748 0.939 . S
C764 C763 1.396 . S
C764 C765 1.397 . S
C765 C764 1.397 . S
C765 C766 1.385 . S
C766 H749 0.940 . S
C766 C765 1.385 . S
C766 C767 1.388 . S
C767 H746 0.939 . S
C767 C762 1.391 . S
C767 C766 1.388 . S
C768 O794 1.283 . S
C768 O812 1.283 . S
C769 O795 1.283 . S
C769 O810 1.283 . S
C770 O796 1.283 . S
C770 O813 1.283 . S
C771 O797 1.283 . S
C771 O811 1.283 . S
C772 O798 1.283 . S
C772 O807 1.283 . S
C773 O799 1.283 . S
C773 O809 1.283 . S
C774 O800 1.283 . S
C774 O806 1.283 . S
C775 O801 1.283 . S
C775 O808 1.283 . S
C776 O802 1.283 . S
C776 O817 1.283 . S
C777 O803 1.283 . S
C777 O815 1.283 . S
C778 O804 1.283 . S
C778 O816 1.283 . S
C779 O805 1.283 . S
C779 O814 1.283 . S
Eu780 O781 2.370 1_455 S
Eu780 O782 2.370 . S
Eu780 O785 2.370 1_455 S
Eu780 O786 2.370 . S
Eu780 O794 2.363 . S
Eu780 O795 2.363 . S
Eu780 O808 2.363 . S
Eu780 O809 2.363 1_455 S
O781 Eu780 2.370 1_655 S
O781 Eu783 2.370 1_565 S
O781 Eu788 2.370 1_665 S
O782 Eu780 2.370 . S
O782 Eu784 2.370 1_565 S
O782 Eu787 2.370 1_565 S
Eu783 O781 2.370 1_545 S
Eu783 O785 2.370 1_545 S
Eu783 O789 2.370 . S
Eu783 O790 2.370 . S
Eu783 O798 2.363 . S
Eu783 O799 2.363 1_545 S
Eu783 O814 2.363 . S
Eu783 O815 2.363 . S
Eu784 O782 2.370 1_545 S
Eu784 O786 2.370 1_545 S
Eu784 O791 2.370 . S
Eu784 O792 2.370 . S
Eu784 O800 2.363 . S
Eu784 O801 2.363 1_545 S
Eu784 O816 2.363 . S
Eu784 O817 2.363 . S
O785 Eu780 2.370 1_655 S
O785 Eu783 2.370 1_565 S
O785 Eu787 2.370 1_665 S
O786 Eu780 2.370 . S
O786 Eu784 2.370 1_565 S
O786 Eu788 2.370 1_565 S
Eu787 O782 2.370 1_545 S
Eu787 O785 2.370 1_445 S
Eu787 O789 2.370 1_455 S
Eu787 O792 2.370 . S
Eu787 O804 2.363 . S
Eu787 O805 2.363 1_455 S
Eu787 O812 2.363 1_545 S
Eu787 O813 2.363 . S
Eu788 O781 2.370 1_445 S
Eu788 O786 2.370 1_545 S
Eu788 O790 2.370 1_455 S
Eu788 O791 2.370 . S
Eu788 O802 2.363 . S
Eu788 O803 2.363 1_455 S
Eu788 O810 2.363 1_545 S
Eu788 O811 2.363 . S
O789 Eu783 2.370 . S
O789 Eu787 2.370 1_655 S
O789 Eu793 2.370 1_655 S
O790 Eu783 2.370 . S
O790 Eu788 2.370 1_655 S
O790 Eu793 2.370 1_655 S
O791 Eu784 2.370 . S
O791 Eu788 2.370 . S
O791 Eu793 2.370 . S
O792 Eu784 2.370 . S
O792 Eu787 2.370 . S
O792 Eu793 2.370 . S
Eu793 O789 2.370 1_455 S
Eu793 O790 2.370 1_455 S
Eu793 O791 2.370 . S
Eu793 O792 2.370 . S
Eu793 O796 2.363 . S
Eu793 O797 2.363 . S
Eu793 O806 2.363 . S
Eu793 O807 2.363 1_455 S
O794 C768 1.283 . S
O794 Eu780 2.363 . S
O795 C769 1.283 . S
O795 Eu780 2.363 . S
O796 C770 1.283 . S
O796 Eu793 2.363 . S
O797 C771 1.283 . S
O797 Eu793 2.363 . S
O798 C772 1.283 . S
O798 Eu783 2.363 . S
O799 C773 1.283 . S
O799 Eu783 2.363 1_565 S
O800 C774 1.283 . S
O800 Eu784 2.363 . S
O801 C775 1.283 . S
O801 Eu784 2.363 1_565 S
O802 C776 1.283 . S
O802 Eu788 2.363 . S
O803 C777 1.283 . S
O803 Eu788 2.363 1_655 S
O804 C778 1.283 . S
O804 Eu787 2.363 . S
O805 C779 1.283 . S
O805 Eu787 2.363 1_655 S
O806 C774 1.283 . S
O806 Eu793 2.363 . S
O807 C772 1.283 . S
O807 Eu793 2.363 1_655 S
O808 C775 1.283 . S
O808 Eu780 2.363 . S
O809 C773 1.283 . S
O809 Eu780 2.363 1_655 S
O810 C769 1.283 . S
O810 Eu788 2.363 1_565 S
O811 C771 1.283 . S
O811 Eu788 2.363 . S
O812 C768 1.283 . S
O812 Eu787 2.363 1_565 S
O813 C770 1.283 . S
O813 Eu787 2.363 . S
O814 C779 1.283 . S
O814 Eu783 2.363 . S
O815 C777 1.283 . S
O815 Eu783 2.363 . S
O816 C778 1.283 . S
O816 Eu784 2.363 . S
O817 C776 1.283 . S
O817 Eu784 2.363 . S
C818 O844 1.283 . S
C818 O862 1.283 . S
C819 O845 1.283 . S
C819 O860 1.283 . S
C820 O846 1.283 . S
C820 O863 1.283 . S
C821 O847 1.283 . S
C821 O861 1.283 . S
C822 O848 1.283 . S
C822 O857 1.283 . S
C823 O849 1.283 . S
C823 O859 1.283 . S
C824 O850 1.283 . S
C824 O856 1.283 . S
C825 O851 1.283 . S
C825 O858 1.283 . S
C826 O852 1.283 . S
C826 O867 1.283 . S
C827 O853 1.283 . S
C827 O865 1.283 . S
C828 O854 1.283 . S
C828 O866 1.283 . S
C829 O855 1.283 . S
C829 O864 1.283 . S
Eu830 O831 2.370 . S
Eu830 O832 2.370 1_545 S
Eu830 O835 2.370 1_545 S
Eu830 O836 2.370 . S
Eu830 O844 2.363 1_545 S
Eu830 O845 2.363 . S
Eu830 O858 2.363 . S
Eu830 O859 2.363 . S
O831 Eu830 2.370 . S
O831 Eu833 2.370 . S
O831 Eu838 2.370 . S
O832 Eu830 2.370 1_565 S
O832 Eu834 2.370 1_565 S
O832 Eu837 2.370 . S
Eu833 O831 2.370 . S
Eu833 O835 2.370 1_545 S
Eu833 O839 2.370 1_544 S
Eu833 O840 2.370 1_554 S
Eu833 O848 2.363 1_554 S
Eu833 O849 2.363 . S
Eu833 O864 2.363 1_545 S
Eu833 O865 2.363 . S
Eu834 O832 2.370 1_545 S
Eu834 O836 2.370 . S
Eu834 O841 2.370 1_554 S
Eu834 O842 2.370 1_544 S
Eu834 O850 2.363 1_554 S
Eu834 O851 2.363 . S
Eu834 O866 2.363 1_545 S
Eu834 O867 2.363 . S
O835 Eu830 2.370 1_565 S
O835 Eu833 2.370 1_565 S
O835 Eu837 2.370 . S
O836 Eu830 2.370 . S
O836 Eu834 2.370 . S
O836 Eu838 2.370 . S
Eu837 O832 2.370 . S
Eu837 O835 2.370 . S
Eu837 O839 2.370 1_554 S
Eu837 O842 2.370 1_554 S
Eu837 O854 2.363 . S
Eu837 O855 2.363 . S
Eu837 O862 2.363 . S
Eu837 O863 2.363 1_554 S
Eu838 O831 2.370 . S
Eu838 O836 2.370 . S
Eu838 O840 2.370 1_554 S
Eu838 O841 2.370 1_554 S
Eu838 O852 2.363 . S
Eu838 O853 2.363 . S
Eu838 O860 2.363 . S
Eu838 O861 2.363 1_554 S
O839 Eu833 2.370 1_566 S
O839 Eu837 2.370 1_556 S
O839 Eu843 2.370 1_565 S
O840 Eu833 2.370 1_556 S
O840 Eu838 2.370 1_556 S
O840 Eu843 2.370 . S
O841 Eu834 2.370 1_556 S
O841 Eu838 2.370 1_556 S
O841 Eu843 2.370 . S
O842 Eu834 2.370 1_566 S
O842 Eu837 2.370 1_556 S
O842 Eu843 2.370 1_565 S
Eu843 O839 2.370 1_545 S
Eu843 O840 2.370 . S
Eu843 O841 2.370 . S
Eu843 O842 2.370 1_545 S
Eu843 O846 2.363 1_545 S
Eu843 O847 2.363 . S
Eu843 O856 2.363 . S
Eu843 O857 2.363 . S
O844 C818 1.283 . S
O844 Eu830 2.363 1_565 S
O845 C819 1.283 . S
O845 Eu830 2.363 . S
O846 C820 1.283 . S
O846 Eu843 2.363 1_565 S
O847 C821 1.283 . S
O847 Eu843 2.363 . S
O848 C822 1.283 . S
O848 Eu833 2.363 1_556 S
O849 C823 1.283 . S
O849 Eu833 2.363 . S
O850 C824 1.283 . S
O850 Eu834 2.363 1_556 S
O851 C825 1.283 . S
O851 Eu834 2.363 . S
O852 C826 1.283 . S
O852 Eu838 2.363 . S
O853 C827 1.283 . S
O853 Eu838 2.363 . S
O854 C828 1.283 . S
O854 Eu837 2.363 . S
O855 C829 1.283 . S
O855 Eu837 2.363 . S
O856 C824 1.283 . S
O856 Eu843 2.363 . S
O857 C822 1.283 . S
O857 Eu843 2.363 . S
O858 C825 1.283 . S
O858 Eu830 2.363 . S
O859 C823 1.283 . S
O859 Eu830 2.363 . S
O860 C819 1.283 . S
O860 Eu838 2.363 . S
O861 C821 1.283 . S
O861 Eu838 2.363 1_556 S
O862 C818 1.283 . S
O862 Eu837 2.363 . S
O863 C820 1.283 . S
O863 Eu837 2.363 1_556 S
O864 C829 1.283 . S
O864 Eu833 2.363 1_565 S
O865 C827 1.283 . S
O865 Eu833 2.363 . S
O866 C828 1.283 . S
O866 Eu834 2.363 1_565 S
O867 C826 1.283 . S
O867 Eu834 2.363 . S
C868 O894 1.283 . S
C868 O912 1.283 . S
C869 O895 1.283 . S
C869 O910 1.283 . S
C870 O896 1.283 . S
C870 O913 1.283 . S
C871 O897 1.283 . S
C871 O911 1.283 . S
C872 O898 1.283 . S
C872 O907 1.283 . S
C873 O899 1.283 . S
C873 O909 1.283 . S
C874 O900 1.283 . S
C874 O906 1.283 . S
C875 O901 1.283 . S
C875 O908 1.283 . S
C876 O902 1.283 . S
C876 O917 1.283 . S
C877 O903 1.283 . S
C877 O915 1.283 . S
C878 O904 1.283 . S
C878 O916 1.283 . S
C879 O905 1.283 . S
C879 O914 1.283 . S
Eu880 O881 2.363 1_454 S
Eu880 O882 2.377 . S
Eu880 O885 2.377 1_455 S
Eu880 O886 2.363 1_554 S
Eu880 O894 2.374 . S
Eu880 O895 2.351 1_554 S
Eu880 O908 2.363 . S
Eu880 O909 2.363 1_455 S
O881 Eu880 2.363 1_656 S
O881 Eu883 2.363 1_556 S
O881 Eu888 2.370 1_655 S
O882 Eu880 2.377 . S
O882 Eu884 2.377 . S
O882 Eu887 2.370 . S
Eu883 O881 2.363 1_554 S
Eu883 O885 2.377 . S
Eu883 O889 2.377 . S
Eu883 O890 2.363 1_554 S
Eu883 O898 2.363 . S
Eu883 O899 2.363 . S
Eu883 O914 2.374 . S
Eu883 O915 2.352 1_554 S
Eu884 O882 2.377 . S
Eu884 O886 2.363 1_554 S
Eu884 O891 2.363 1_554 S
Eu884 O892 2.377 . S
Eu884 O900 2.363 . S
Eu884 O901 2.363 . S
Eu884 O916 2.375 . S
Eu884 O917 2.351 1_554 S
O885 Eu880 2.377 1_655 S
O885 Eu883 2.377 . S
O885 Eu887 2.370 1_655 S
O886 Eu880 2.363 1_556 S
O886 Eu884 2.363 1_556 S
O886 Eu888 2.370 . S
Eu887 O882 2.370 . S
Eu887 O885 2.370 1_455 S
Eu887 O889 2.370 1_455 S
Eu887 O892 2.370 . S
Eu887 O904 2.363 . S
Eu887 O905 2.363 1_455 S
Eu887 O912 2.363 . S
Eu887 O913 2.363 . S
Eu888 O881 2.370 1_455 S
Eu888 O886 2.370 . S
Eu888 O890 2.370 1_455 S
Eu888 O891 2.370 . S
Eu888 O902 2.363 . S
Eu888 O903 2.363 1_455 S
Eu888 O910 2.363 . S
Eu888 O911 2.363 . S
O889 Eu883 2.377 . S
O889 Eu887 2.370 1_655 S
O889 Eu893 2.377 1_655 S
O890 Eu883 2.363 1_556 S
O890 Eu888 2.370 1_655 S
O890 Eu893 2.363 1_656 S
O891 Eu884 2.363 1_556 S
O891 Eu888 2.370 . S
O891 Eu893 2.363 1_556 S
O892 Eu884 2.377 . S
O892 Eu887 2.370 . S
O892 Eu893 2.377 . S
Eu893 O889 2.377 1_455 S
Eu893 O890 2.363 1_454 S
Eu893 O891 2.363 1_554 S
Eu893 O892 2.377 . S
Eu893 O896 2.374 . S
Eu893 O897 2.351 1_554 S
Eu893 O906 2.363 . S
Eu893 O907 2.363 1_455 S
O894 C868 1.283 . S
O894 Eu880 2.374 . S
O895 C869 1.283 . S
O895 Eu880 2.351 1_556 S
O896 C870 1.283 . S
O896 Eu893 2.374 . S
O897 C871 1.283 . S
O897 Eu893 2.351 1_556 S
O898 C872 1.283 . S
O898 Eu883 2.363 . S
O899 C873 1.283 . S
O899 Eu883 2.363 . S
O900 C874 1.283 . S
O900 Eu884 2.363 . S
O901 C875 1.283 . S
O901 Eu884 2.363 . S
O902 C876 1.283 . S
O902 Eu888 2.363 . S
O903 C877 1.283 . S
O903 Eu888 2.363 1_655 S
O904 C878 1.283 . S
O904 Eu887 2.363 . S
O905 C879 1.283 . S
O905 Eu887 2.363 1_655 S
O906 C874 1.283 . S
O906 Eu893 2.363 . S
O907 C872 1.283 . S
O907 Eu893 2.363 1_655 S
O908 C875 1.283 . S
O908 Eu880 2.363 . S
O909 C873 1.283 . S
O909 Eu880 2.363 1_655 S
O910 C869 1.283 . S
O910 Eu888 2.363 . S
O911 C871 1.283 . S
O911 Eu888 2.363 . S
O912 C868 1.283 . S
O912 Eu887 2.363 . S
O913 C870 1.283 . S
O913 Eu887 2.363 . S
O914 C879 1.283 . S
O914 Eu883 2.374 . S
O915 C877 1.283 . S
O915 Eu883 2.352 1_556 S
O916 C878 1.283 . S
O916 Eu884 2.375 . S
O917 C876 1.283 . S
O917 Eu884 2.351 1_556 S
C918 O944 1.283 . S
C918 O962 1.283 . S
C919 O945 1.283 . S
C919 O960 1.283 . S
C920 O946 1.283 . S
C920 O963 1.283 . S
C921 O947 1.283 . S
C921 O961 1.283 . S
C922 O948 1.283 . S
C922 O957 1.283 . S
C923 O949 1.283 . S
C923 O959 1.283 . S
C924 O950 1.283 . S
C924 O956 1.283 . S
C925 O951 1.283 . S
C925 O958 1.283 . S
C926 O952 1.283 . S
C926 O967 1.283 . S
C927 O953 1.283 . S
C927 O965 1.283 . S
C928 O954 1.283 . S
C928 O966 1.283 . S
C929 O955 1.283 . S
C929 O964 1.283 . S
Eu930 O931 2.370 . S
Eu930 O932 2.370 . S
Eu930 O935 2.370 . S
Eu930 O936 2.370 . S
Eu930 O944 2.363 . S
Eu930 O945 2.363 . S
Eu930 O958 2.363 . S
Eu930 O959 2.363 . S
O931 Eu930 2.370 . S
O931 Eu933 2.379 . S
O931 Eu938 2.379 . S
O932 Eu930 2.370 . S
O932 Eu934 2.379 . S
O932 Eu937 2.379 . S
Eu933 O931 2.379 . S
Eu933 O935 2.379 . S
Eu933 O939 2.361 1_554 S
Eu933 O940 2.361 1_554 S
Eu933 O948 2.348 1_554 S
Eu933 O949 2.378 . S
Eu933 O964 2.363 . S
Eu933 O965 2.363 . S
Eu934 O932 2.379 . S
Eu934 O936 2.379 . S
Eu934 O941 2.361 1_554 S
Eu934 O942 2.361 1_554 S
Eu934 O950 2.348 1_554 S
Eu934 O951 2.378 . S
Eu934 O966 2.363 . S
Eu934 O967 2.363 . S
O935 Eu930 2.370 . S
O935 Eu933 2.379 . S
O935 Eu937 2.379 . S
O936 Eu930 2.370 . S
O936 Eu934 2.379 . S
O936 Eu938 2.379 . S
Eu937 O932 2.379 . S
Eu937 O935 2.379 . S
Eu937 O939 2.361 1_554 S
Eu937 O942 2.361 1_554 S
Eu937 O954 2.363 . S
Eu937 O955 2.363 . S
Eu937 O962 2.378 . S
Eu937 O963 2.348 1_554 S
Eu938 O931 2.379 . S
Eu938 O936 2.379 . S
Eu938 O940 2.361 1_554 S
Eu938 O941 2.361 1_554 S
Eu938 O952 2.363 . S
Eu938 O953 2.363 . S
Eu938 O960 2.378 . S
Eu938 O961 2.348 1_554 S
O939 Eu933 2.361 1_556 S
O939 Eu937 2.361 1_556 S
O939 Eu943 2.370 . S
O940 Eu933 2.361 1_556 S
O940 Eu938 2.361 1_556 S
O940 Eu943 2.370 . S
O941 Eu934 2.361 1_556 S
O941 Eu938 2.361 1_556 S
O941 Eu943 2.370 . S
O942 Eu934 2.361 1_556 S
O942 Eu937 2.361 1_556 S
O942 Eu943 2.370 . S
Eu943 O939 2.370 . S
Eu943 O940 2.370 . S
Eu943 O941 2.370 . S
Eu943 O942 2.370 . S
Eu943 O946 2.363 . S
Eu943 O947 2.363 . S
Eu943 O956 2.363 . S
Eu943 O957 2.363 . S
O944 C918 1.283 . S
O944 Eu930 2.363 . S
O945 C919 1.283 . S
O945 Eu930 2.363 . S
O946 C920 1.283 . S
O946 Eu943 2.363 . S
O947 C921 1.283 . S
O947 Eu943 2.363 . S
O948 C922 1.283 . S
O948 Eu933 2.348 1_556 S
O949 C923 1.283 . S
O949 Eu933 2.378 . S
O950 C924 1.283 . S
O950 Eu934 2.348 1_556 S
O951 C925 1.283 . S
O951 Eu934 2.378 . S
O952 C926 1.283 . S
O952 Eu938 2.363 . S
O953 C927 1.283 . S
O953 Eu938 2.363 . S
O954 C928 1.283 . S
O954 Eu937 2.363 . S
O955 C929 1.283 . S
O955 Eu937 2.363 . S
O956 C924 1.283 . S
O956 Eu943 2.363 . S
O957 C922 1.283 . S
O957 Eu943 2.363 . S
O958 C925 1.283 . S
O958 Eu930 2.363 . S
O959 C923 1.283 . S
O959 Eu930 2.363 . S
O960 C919 1.283 . S
O960 Eu938 2.378 . S
O961 C921 1.283 . S
O961 Eu938 2.348 1_556 S
O962 C918 1.283 . S
O962 Eu937 2.378 . S
O963 C920 1.283 . S
O963 Eu937 2.348 1_556 S
O964 C929 1.283 . S
O964 Eu933 2.363 . S
O965 C927 1.283 . S
O965 Eu933 2.363 . S
O966 C928 1.283 . S
O966 Eu934 2.363 . S
O967 C926 1.283 . S
O967 Eu934 2.363 . S
C968 O994 1.283 . S
C968 O1012 1.283 . S
C969 O995 1.283 . S
C969 O1010 1.283 . S
C970 O996 1.283 . S
C970 O1013 1.283 . S
C971 O997 1.283 . S
C971 O1011 1.283 . S
C972 O998 1.283 . S
C972 O1007 1.283 . S
C973 O999 1.283 . S
C973 O1009 1.283 . S
C974 O1000 1.283 . S
C974 O1006 1.283 . S
C975 O1001 1.283 . S
C975 O1008 1.283 . S
C976 O1002 1.283 . S
C976 O1017 1.283 . S
C977 O1003 1.283 . S
C977 O1015 1.283 . S
C978 O1004 1.283 . S
C978 O1016 1.283 . S
C979 O1005 1.283 . S
C979 O1014 1.283 . S
Eu980 O981 2.370 1_455 S
Eu980 O982 2.370 . S
Eu980 O985 2.370 1_455 S
Eu980 O986 2.370 . S
Eu980 O994 2.363 . S
Eu980 O995 2.363 . S
Eu980 O1008 2.363 . S
Eu980 O1009 2.363 1_455 S
O981 Eu980 2.370 1_655 S
O981 Eu983 2.370 . S
O981 Eu988 2.370 1_655 S
O982 Eu980 2.370 . S
O982 Eu984 2.370 . S
O982 Eu987 2.370 . S
Eu983 O981 2.370 . S
Eu983 O985 2.370 . S
Eu983 O989 2.370 . S
Eu983 O990 2.370 . S
Eu983 O998 2.363 . S
Eu983 O999 2.363 . S
Eu983 O1014 2.363 . S
Eu983 O1015 2.363 . S
Eu984 O982 2.370 . S
Eu984 O986 2.370 . S
Eu984 O991 2.370 . S
Eu984 O992 2.370 . S
Eu984 O1000 2.363 . S
Eu984 O1001 2.363 . S
Eu984 O1016 2.363 . S
Eu984 O1017 2.363 . S
O985 Eu980 2.370 1_655 S
O985 Eu983 2.370 . S
O985 Eu987 2.370 1_655 S
O986 Eu980 2.370 . S
O986 Eu984 2.370 . S
O986 Eu988 2.370 . S
Eu987 O982 2.370 . S
Eu987 O985 2.370 1_455 S
Eu987 O989 2.370 1_455 S
Eu987 O992 2.370 . S
Eu987 O1004 2.363 . S
Eu987 O1005 2.363 1_455 S
Eu987 O1012 2.363 . S
Eu987 O1013 2.363 . S
Eu988 O981 2.370 1_455 S
Eu988 O986 2.370 . S
Eu988 O990 2.370 1_455 S
Eu988 O991 2.370 . S
Eu988 O1002 2.363 . S
Eu988 O1003 2.363 1_455 S
Eu988 O1010 2.363 . S
Eu988 O1011 2.363 . S
O989 Eu983 2.370 . S
O989 Eu987 2.370 1_655 S
O989 Eu993 2.370 1_655 S
O990 Eu983 2.370 . S
O990 Eu988 2.370 1_655 S
O990 Eu993 2.370 1_655 S
O991 Eu984 2.370 . S
O991 Eu988 2.370 . S
O991 Eu993 2.370 . S
O992 Eu984 2.370 . S
O992 Eu987 2.370 . S
O992 Eu993 2.370 . S
Eu993 O989 2.370 1_455 S
Eu993 O990 2.370 1_455 S
Eu993 O991 2.370 . S
Eu993 O992 2.370 . S
Eu993 O996 2.363 . S
Eu993 O997 2.363 . S
Eu993 O1006 2.363 . S
Eu993 O1007 2.363 1_455 S
O994 C968 1.283 . S
O994 Eu980 2.363 . S
O995 C969 1.283 . S
O995 Eu980 2.363 . S
O996 C970 1.283 . S
O996 Eu993 2.363 . S
O997 C971 1.283 . S
O997 Eu993 2.363 . S
O998 C972 1.283 . S
O998 Eu983 2.363 . S
O999 C973 1.283 . S
O999 Eu983 2.363 . S
O1000 C974 1.283 . S
O1000 Eu984 2.363 . S
O1001 C975 1.283 . S
O1001 Eu984 2.363 . S
O1002 C976 1.283 . S
O1002 Eu988 2.363 . S
O1003 C977 1.283 . S
O1003 Eu988 2.363 1_655 S
O1004 C978 1.283 . S
O1004 Eu987 2.363 . S
O1005 C979 1.283 . S
O1005 Eu987 2.363 1_655 S
O1006 C974 1.283 . S
O1006 Eu993 2.363 . S
O1007 C972 1.283 . S
O1007 Eu993 2.363 1_655 S
O1008 C975 1.283 . S
O1008 Eu980 2.363 . S
O1009 C973 1.283 . S
O1009 Eu980 2.363 1_655 S
O1010 C969 1.283 . S
O1010 Eu988 2.363 . S
O1011 C971 1.283 . S
O1011 Eu988 2.363 . S
O1012 C968 1.283 . S
O1012 Eu987 2.363 . S
O1013 C970 1.283 . S
O1013 Eu987 2.363 . S
O1014 C979 1.283 . S
O1014 Eu983 2.363 . S
O1015 C977 1.283 . S
O1015 Eu983 2.363 . S
O1016 C978 1.283 . S
O1016 Eu984 2.363 . S
O1017 C976 1.283 . S
O1017 Eu984 2.363 . S
C1018 O1044 1.283 . S
C1018 O1062 1.283 . S
C1019 O1045 1.283 . S
C1019 O1060 1.283 . S
C1020 O1046 1.283 . S
C1020 O1063 1.283 . S
C1021 O1047 1.283 . S
C1021 O1061 1.283 . S
C1022 O1048 1.283 . S
C1022 O1057 1.283 . S
C1023 O1049 1.283 . S
C1023 O1059 1.283 . S
C1024 O1050 1.283 . S
C1024 O1056 1.283 . S
C1025 O1051 1.283 . S
C1025 O1058 1.283 . S
C1026 O1052 1.283 . S
C1026 O1067 1.283 . S
C1027 O1053 1.283 . S
C1027 O1065 1.283 . S
C1028 O1054 1.283 . S
C1028 O1066 1.283 . S
C1029 O1055 1.283 . S
C1029 O1064 1.283 . S
Eu1030 O1031 2.370 . S
Eu1030 O1032 2.370 . S
Eu1030 O1035 2.370 . S
Eu1030 O1036 2.370 . S
Eu1030 O1044 2.363 . S
Eu1030 O1045 2.363 . S
Eu1030 O1058 2.363 . S
Eu1030 O1059 2.363 . S
O1031 Eu1030 2.370 . S
O1031 Eu1033 2.370 1_565 S
O1031 Eu1038 2.370 1_565 S
O1032 Eu1030 2.370 . S
O1032 Eu1034 2.370 1_565 S
O1032 Eu1037 2.370 1_565 S
Eu1033 O1031 2.370 1_545 S
Eu1033 O1035 2.370 1_545 S
Eu1033 O1039 2.370 . S
Eu1033 O1040 2.370 . S
Eu1033 O1048 2.363 . S
Eu1033 O1049 2.363 1_545 S
Eu1033 O1064 2.363 . S
Eu1033 O1065 2.363 . S
Eu1034 O1032 2.370 1_545 S
Eu1034 O1036 2.370 1_545 S
Eu1034 O1041 2.370 . S
Eu1034 O1042 2.370 . S
Eu1034 O1050 2.363 . S
Eu1034 O1051 2.363 1_545 S
Eu1034 O1066 2.363 . S
Eu1034 O1067 2.363 . S
O1035 Eu1030 2.370 . S
O1035 Eu1033 2.370 1_565 S
O1035 Eu1037 2.370 1_565 S
O1036 Eu1030 2.370 . S
O1036 Eu1034 2.370 1_565 S
O1036 Eu1038 2.370 1_565 S
Eu1037 O1032 2.370 1_545 S
Eu1037 O1035 2.370 1_545 S
Eu1037 O1039 2.370 . S
Eu1037 O1042 2.370 . S
Eu1037 O1054 2.363 . S
Eu1037 O1055 2.363 . S
Eu1037 O1062 2.363 1_545 S
Eu1037 O1063 2.363 . S
Eu1038 O1031 2.370 1_545 S
Eu1038 O1036 2.370 1_545 S
Eu1038 O1040 2.370 . S
Eu1038 O1041 2.370 . S
Eu1038 O1052 2.363 . S
Eu1038 O1053 2.363 . S
Eu1038 O1060 2.363 1_545 S
Eu1038 O1061 2.363 . S
O1039 Eu1033 2.370 . S
O1039 Eu1037 2.370 . S
O1039 Eu1043 2.370 . S
O1040 Eu1033 2.370 . S
O1040 Eu1038 2.370 . S
O1040 Eu1043 2.370 . S
O1041 Eu1034 2.370 . S
O1041 Eu1038 2.370 . S
O1041 Eu1043 2.370 . S
O1042 Eu1034 2.370 . S
O1042 Eu1037 2.370 . S
O1042 Eu1043 2.370 . S
Eu1043 O1039 2.370 . S
Eu1043 O1040 2.370 . S
Eu1043 O1041 2.370 . S
Eu1043 O1042 2.370 . S
Eu1043 O1046 2.363 . S
Eu1043 O1047 2.363 . S
Eu1043 O1056 2.363 . S
Eu1043 O1057 2.363 . S
O1044 C1018 1.283 . S
O1044 Eu1030 2.363 . S
O1045 C1019 1.283 . S
O1045 Eu1030 2.363 . S
O1046 C1020 1.283 . S
O1046 Eu1043 2.363 . S
O1047 C1021 1.283 . S
O1047 Eu1043 2.363 . S
O1048 C1022 1.283 . S
O1048 Eu1033 2.363 . S
O1049 C1023 1.283 . S
O1049 Eu1033 2.363 1_565 S
O1050 C1024 1.283 . S
O1050 Eu1034 2.363 . S
O1051 C1025 1.283 . S
O1051 Eu1034 2.363 1_565 S
O1052 C1026 1.283 . S
O1052 Eu1038 2.363 . S
O1053 C1027 1.283 . S
O1053 Eu1038 2.363 . S
O1054 C1028 1.283 . S
O1054 Eu1037 2.363 . S
O1055 C1029 1.283 . S
O1055 Eu1037 2.363 . S
O1056 C1024 1.283 . S
O1056 Eu1043 2.363 . S
O1057 C1022 1.283 . S
O1057 Eu1043 2.363 . S
O1058 C1025 1.283 . S
O1058 Eu1030 2.363 . S
O1059 C1023 1.283 . S
O1059 Eu1030 2.363 . S
O1060 C1019 1.283 . S
O1060 Eu1038 2.363 1_565 S
O1061 C1021 1.283 . S
O1061 Eu1038 2.363 . S
O1062 C1018 1.283 . S
O1062 Eu1037 2.363 1_565 S
O1063 C1020 1.283 . S
O1063 Eu1037 2.363 . S
O1064 C1029 1.283 . S
O1064 Eu1033 2.363 . S
O1065 C1027 1.283 . S
O1065 Eu1033 2.363 . S
O1066 C1028 1.283 . S
O1066 Eu1034 2.363 . S
O1067 C1026 1.283 . S
O1067 Eu1034 2.363 . S
C1068 C1069 1.387 . S
C1068 H1072 0.950 . S
C1068 C1077 1.390 . S
C1069 C1068 1.387 . S
C1069 C1071 1.387 . S
H1070 C1077 0.950 . S
C1071 C1069 1.387 . S
C1071 C1073 1.390 . S
C1071 H1075 0.950 . S
H1072 C1068 0.950 . S
C1073 C1071 1.390 . S
C1073 C1074 1.387 . S
C1073 H1076 0.950 . S
C1074 C1073 1.387 . S
C1074 C1077 1.387 . S
H1075 C1071 0.950 . S
H1076 C1073 0.950 . S
C1077 C1068 1.390 . S
C1077 H1070 0.950 . S
C1077 C1074 1.387 . S
C1078 C1079 1.387 . S
C1078 H1082 0.950 . S
C1078 C1087 1.390 . S
C1079 C1078 1.387 . S
C1079 C1081 1.387 . S
H1080 C1087 0.950 . S
C1081 C1079 1.387 . S
C1081 C1083 1.390 . S
C1081 H1085 0.950 . S
H1082 C1078 0.950 . S
C1083 C1081 1.390 . S
C1083 C1084 1.387 . S
C1083 H1086 0.950 . S
C1084 C1083 1.387 . S
C1084 C1087 1.387 . S
H1085 C1081 0.950 . S
H1086 C1083 0.950 . S
C1087 C1078 1.390 . S
C1087 H1080 0.950 . S
C1087 C1084 1.387 . S
C1088 C1089 1.387 . S
C1088 H1092 0.950 . S
C1088 C1097 1.390 . S
C1089 C1088 1.387 . S
C1089 C1091 1.387 . S
H1090 C1097 0.950 . S
C1091 C1089 1.387 . S
C1091 C1093 1.390 . S
C1091 H1095 0.950 . S
H1092 C1088 0.950 . S
C1093 C1091 1.390 . S
C1093 C1094 1.387 . S
C1093 H1096 0.950 . S
C1094 C1093 1.387 . S
C1094 C1097 1.387 . S
H1095 C1091 0.950 . S
H1096 C1093 0.950 . S
C1097 C1088 1.390 . S
C1097 H1090 0.950 . S
C1097 C1094 1.387 . S
C1098 C1099 1.387 . S
C1098 H1102 0.950 . S
C1098 C1107 1.390 . S
C1099 C1098 1.387 . S
C1099 C1101 1.387 . S
H1100 C1107 0.950 . S
C1101 C1099 1.387 . S
C1101 C1103 1.390 . S
C1101 H1105 0.950 . S
H1102 C1098 0.950 . S
C1103 C1101 1.390 . S
C1103 C1104 1.387 . S
C1103 H1106 0.950 . S
C1104 C1103 1.387 . S
C1104 C1107 1.387 . S
H1105 C1101 0.950 . S
H1106 C1103 0.950 . S
C1107 C1098 1.390 . S
C1107 H1100 0.950 . S
C1107 C1104 1.387 . S
C1108 C1109 1.387 . S
C1108 H1112 0.950 . S
C1108 C1117 1.390 . S
C1109 C1108 1.387 . S
C1109 C1111 1.387 . S
H1110 C1117 0.950 . S
C1111 C1109 1.387 . S
C1111 C1113 1.390 . S
C1111 H1115 0.950 . S
H1112 C1108 0.950 . S
C1113 C1111 1.390 . S
C1113 C1114 1.387 . S
C1113 H1116 0.950 . S
C1114 C1113 1.387 . S
C1114 C1117 1.387 . S
H1115 C1111 0.950 . S
H1116 C1113 0.950 . S
C1117 C1108 1.390 . S
C1117 H1110 0.950 . S
C1117 C1114 1.387 . S
C1118 C1119 1.387 . S
C1118 H1122 0.950 . S
C1118 C1127 1.390 . S
C1119 C1118 1.387 . S
C1119 C1121 1.387 . S
H1120 C1127 0.950 . S
C1121 C1119 1.387 . S
C1121 C1123 1.390 . S
C1121 H1125 0.950 . S
H1122 C1118 0.950 . S
C1123 C1121 1.390 . S
C1123 C1124 1.387 . S
C1123 H1126 0.950 . S
C1124 C1123 1.387 . S
C1124 C1127 1.387 . S
H1125 C1121 0.950 . S
H1126 C1123 0.950 . S
C1127 C1118 1.390 . S
C1127 H1120 0.950 . S
C1127 C1124 1.387 . S
C1128 C1129 1.387 . S
C1128 H1132 0.950 . S
C1128 C1137 1.390 . S
C1129 C1128 1.387 . S
C1129 C1131 1.387 . S
H1130 C1137 0.950 . S
C1131 C1129 1.387 . S
C1131 C1133 1.390 . S
C1131 H1135 0.950 . S
H1132 C1128 0.950 . S
C1133 C1131 1.390 . S
C1133 C1134 1.387 . S
C1133 H1136 0.950 . S
C1134 C1133 1.387 . S
C1134 C1137 1.387 . S
H1135 C1131 0.950 . S
H1136 C1133 0.950 . S
C1137 C1128 1.390 . S
C1137 H1130 0.950 . S
C1137 C1134 1.387 . S
C1138 C1139 1.387 . S
C1138 H1142 0.950 . S
C1138 C1147 1.390 . S
C1139 C1138 1.387 . S
C1139 C1141 1.387 . S
H1140 C1147 0.950 . S
C1141 C1139 1.387 . S
C1141 C1143 1.390 . S
C1141 H1145 0.950 . S
H1142 C1138 0.950 . S
C1143 C1141 1.390 . S
C1143 C1144 1.387 . S
C1143 H1146 0.950 . S
C1144 C1143 1.387 . S
C1144 C1147 1.387 . S
H1145 C1141 0.950 . S
H1146 C1143 0.950 . S
C1147 C1138 1.390 . S
C1147 H1140 0.950 . S
C1147 C1144 1.387 . S
C1148 C1149 1.387 . S
C1148 H1152 0.950 . S
C1148 C1157 1.390 . S
C1149 C1148 1.387 . S
C1149 C1151 1.387 . S
H1150 C1157 0.950 . S
C1151 C1149 1.387 . S
C1151 C1153 1.390 . S
C1151 H1155 0.950 . S
H1152 C1148 0.950 . S
C1153 C1151 1.390 . S
C1153 C1154 1.387 . S
C1153 H1156 0.950 . S
C1154 C1153 1.387 . S
C1154 C1157 1.387 . S
H1155 C1151 0.950 . S
H1156 C1153 0.950 . S
C1157 C1148 1.390 . S
C1157 H1150 0.950 . S
C1157 C1154 1.387 . S
C1158 C1159 1.387 . S
C1158 H1162 0.950 . S
C1158 C1167 1.390 . S
C1159 C1158 1.387 . S
C1159 C1161 1.387 . S
H1160 C1167 0.950 . S
C1161 C1159 1.387 . S
C1161 C1163 1.390 . S
C1161 H1165 0.950 . S
H1162 C1158 0.950 . S
C1163 C1161 1.390 . S
C1163 C1164 1.387 . S
C1163 H1166 0.950 . S
C1164 C1163 1.387 . S
C1164 C1167 1.387 . S
H1165 C1161 0.950 . S
H1166 C1163 0.950 . S
C1167 C1158 1.390 . S
C1167 H1160 0.950 . S
C1167 C1164 1.387 . S
C1168 C1169 1.387 . S
C1168 H1172 0.950 . S
C1168 C1177 1.390 . S
C1169 C1168 1.387 . S
C1169 C1171 1.387 . S
H1170 C1177 0.950 . S
C1171 C1169 1.387 . S
C1171 C1173 1.390 . S
C1171 H1175 0.950 . S
H1172 C1168 0.950 . S
C1173 C1171 1.390 . S
C1173 C1174 1.387 . S
C1173 H1176 0.950 . S
C1174 C1173 1.387 . S
C1174 C1177 1.387 . S
H1175 C1171 0.950 . S
H1176 C1173 0.950 . S
C1177 C1168 1.390 . S
C1177 H1170 0.950 . S
C1177 C1174 1.387 . S
C1178 C1179 1.387 . S
C1178 H1182 0.950 . S
C1178 C1187 1.390 . S
C1179 C1178 1.387 . S
C1179 C1181 1.387 . S
H1180 C1187 0.950 . S
C1181 C1179 1.387 . S
C1181 C1183 1.390 . S
C1181 H1185 0.950 . S
H1182 C1178 0.950 . S
C1183 C1181 1.390 . S
C1183 C1184 1.387 . S
C1183 H1186 0.950 . S
C1184 C1183 1.387 . S
C1184 C1187 1.387 . S
H1185 C1181 0.950 . S
H1186 C1183 0.950 . S
C1187 C1178 1.390 . S
C1187 H1180 0.950 . S
C1187 C1184 1.387 . S
C1188 C1189 1.398 . S
C1188 H1192 0.950 . S
C1188 C1197 1.390 . S
C1189 C1188 1.398 . S
C1189 C1191 1.377 1_554 S
H1190 C1197 0.950 . S
C1191 C1189 1.377 1_556 S
C1191 C1193 1.390 . S
C1191 H1195 0.950 . S
H1192 C1188 0.950 . S
C1193 C1191 1.390 . S
C1193 C1194 1.374 1_556 S
C1193 H1196 0.950 . S
C1194 C1193 1.374 1_554 S
C1194 C1197 1.401 . S
H1195 C1191 0.950 . S
H1196 C1193 0.950 . S
C1197 C1188 1.390 . S
C1197 H1190 0.950 . S
C1197 C1194 1.401 . S
C1198 C1199 1.375 1_556 S
C1198 H1202 0.950 . S
C1198 C1207 1.390 . S
C1199 C1198 1.375 1_554 S
C1199 C1201 1.400 . S
H1200 C1207 0.950 . S
C1201 C1199 1.400 . S
C1201 C1203 1.390 . S
C1201 H1205 0.950 . S
H1202 C1198 0.950 . S
C1203 C1201 1.390 . S
C1203 C1204 1.401 . S
C1203 H1206 0.950 . S
C1204 C1203 1.401 . S
C1204 C1207 1.374 1_554 S
H1205 C1201 0.950 . S
H1206 C1203 0.950 . S
C1207 C1198 1.390 . S
C1207 H1200 0.950 . S
C1207 C1204 1.374 1_556 S
C1208 C1209 1.375 1_556 S
C1208 H1212 0.950 . S
C1208 C1217 1.390 . S
C1209 C1208 1.375 1_554 S
C1209 C1211 1.400 . S
H1210 C1217 0.950 . S
C1211 C1209 1.400 . S
C1211 C1213 1.390 . S
C1211 H1215 0.950 . S
H1212 C1208 0.950 . S
C1213 C1211 1.390 . S
C1213 C1214 1.401 . S
C1213 H1216 0.950 . S
C1214 C1213 1.401 . S
C1214 C1217 1.374 1_554 S
H1215 C1211 0.950 . S
H1216 C1213 0.950 . S
C1217 C1208 1.390 . S
C1217 H1210 0.950 . S
C1217 C1214 1.374 1_556 S
C1218 C1219 1.377 1_556 S
C1218 H1222 0.950 . S
C1218 C1227 1.390 . S
C1219 C1218 1.377 1_554 S
C1219 C1221 1.398 . S
H1220 C1227 0.950 . S
C1221 C1219 1.398 . S
C1221 C1223 1.390 . S
C1221 H1225 0.950 . S
H1222 C1218 0.950 . S
C1223 C1221 1.390 . S
C1223 C1224 1.401 . S
C1223 H1226 0.950 . S
C1224 C1223 1.401 . S
C1224 C1227 1.374 1_554 S
H1225 C1221 0.950 . S
H1226 C1223 0.950 . S
C1227 C1218 1.390 . S
C1227 H1220 0.950 . S
C1227 C1224 1.374 1_556 S
C1228 C1229 1.387 1_655 S
C1228 H1232 0.950 . S
C1228 C1237 1.390 . S
C1229 C1228 1.387 1_455 S
C1229 C1231 1.387 . S
H1230 C1237 0.950 . S
C1231 C1229 1.387 . S
C1231 C1233 1.390 . S
C1231 H1235 0.950 . S
H1232 C1228 0.950 . S
C1233 C1231 1.390 . S
C1233 C1234 1.387 . S
C1233 H1236 0.950 . S
C1234 C1233 1.387 . S
C1234 C1237 1.387 1_455 S
H1235 C1231 0.950 . S
H1236 C1233 0.950 . S
C1237 C1228 1.390 . S
C1237 H1230 0.950 . S
C1237 C1234 1.387 1_655 S
C1238 C1239 1.387 1_565 S
C1238 H1242 0.950 . S
C1238 C1247 1.390 . S
C1239 C1238 1.387 1_545 S
C1239 C1241 1.387 . S
H1240 C1247 0.950 . S
C1241 C1239 1.387 . S
C1241 C1243 1.390 . S
C1241 H1245 0.950 . S
H1242 C1238 0.950 . S
C1243 C1241 1.390 . S
C1243 C1244 1.387 . S
C1243 H1246 0.950 . S
C1244 C1243 1.387 . S
C1244 C1247 1.387 1_545 S
H1245 C1241 0.950 . S
H1246 C1243 0.950 . S
C1247 C1238 1.390 . S
C1247 H1240 0.950 . S
C1247 C1244 1.387 1_565 S
C1248 C1249 1.387 1_655 S
C1248 H1252 0.950 . S
C1248 C1257 1.390 . S
C1249 C1248 1.387 1_455 S
C1249 C1251 1.387 . S
H1250 C1257 0.950 . S
C1251 C1249 1.387 . S
C1251 C1253 1.390 . S
C1251 H1255 0.950 . S
H1252 C1248 0.950 . S
C1253 C1251 1.390 . S
C1253 C1254 1.387 . S
C1253 H1256 0.950 . S
C1254 C1253 1.387 . S
C1254 C1257 1.387 1_455 S
H1255 C1251 0.950 . S
H1256 C1253 0.950 . S
C1257 C1248 1.390 . S
C1257 H1250 0.950 . S
C1257 C1254 1.387 1_655 S
C1258 C1259 1.387 . S
C1258 H1262 0.950 . S
C1258 C1267 1.390 . S
C1259 C1258 1.387 . S
C1259 C1261 1.387 1_545 S
H1260 C1267 0.950 . S
C1261 C1259 1.387 1_565 S
C1261 C1263 1.390 . S
C1261 H1265 0.950 . S
H1262 C1258 0.950 . S
C1263 C1261 1.390 . S
C1263 C1264 1.387 1_565 S
C1263 H1266 0.950 . S
C1264 C1263 1.387 1_545 S
C1264 C1267 1.387 . S
H1265 C1261 0.950 . S
H1266 C1263 0.950 . S
C1267 C1258 1.390 . S
C1267 H1260 0.950 . S
C1267 C1264 1.387 . S
C1268 C1269 1.387 . S
C1268 H1272 0.950 . S
C1268 C1277 1.390 . S
C1269 C1268 1.387 . S
C1269 C1271 1.387 1_455 S
H1270 C1277 0.950 . S
C1271 C1269 1.387 1_655 S
C1271 C1273 1.390 . S
C1271 H1275 0.950 . S
H1272 C1268 0.950 . S
C1273 C1271 1.390 . S
C1273 C1274 1.387 1_655 S
C1273 H1276 0.950 . S
C1274 C1273 1.387 1_455 S
C1274 C1277 1.387 . S
H1275 C1271 0.950 . S
H1276 C1273 0.950 . S
C1277 C1268 1.390 . S
C1277 H1270 0.950 . S
C1277 C1274 1.387 . S
C1278 C1279 1.387 . S
C1278 H1282 0.950 . S
C1278 C1287 1.390 . S
C1279 C1278 1.387 . S
C1279 C1281 1.387 1_545 S
H1280 C1287 0.950 . S
C1281 C1279 1.387 1_565 S
C1281 C1283 1.390 . S
C1281 H1285 0.950 . S
H1282 C1278 0.950 . S
C1283 C1281 1.390 . S
C1283 C1284 1.387 1_565 S
C1283 H1286 0.950 . S
C1284 C1283 1.387 1_545 S
C1284 C1287 1.387 . S
H1285 C1281 0.950 . S
H1286 C1283 0.950 . S
C1287 C1278 1.390 . S
C1287 H1280 0.950 . S
C1287 C1284 1.387 . S
C1288 C1289 1.387 1_655 S
C1288 H1292 0.950 . S
C1288 C1297 1.390 . S
C1289 C1288 1.387 1_455 S
C1289 C1291 1.387 . S
H1290 C1297 0.950 . S
C1291 C1289 1.387 . S
C1291 C1293 1.390 . S
C1291 H1295 0.950 . S
H1292 C1288 0.950 . S
C1293 C1291 1.390 . S
C1293 C1294 1.387 . S
C1293 H1296 0.950 . S
C1294 C1293 1.387 . S
C1294 C1297 1.387 1_455 S
H1295 C1291 0.950 . S
H1296 C1293 0.950 . S
C1297 C1288 1.390 . S
C1297 H1290 0.950 . S
C1297 C1294 1.387 1_655 S
C1298 C1299 1.387 1_565 S
C1298 H1302 0.950 . S
C1298 C1307 1.390 . S
C1299 C1298 1.387 1_545 S
C1299 C1301 1.387 . S
H1300 C1307 0.950 . S
C1301 C1299 1.387 . S
C1301 C1303 1.390 . S
C1301 H1305 0.950 . S
H1302 C1298 0.950 . S
C1303 C1301 1.390 . S
C1303 C1304 1.387 . S
C1303 H1306 0.950 . S
C1304 C1303 1.387 . S
C1304 C1307 1.387 1_545 S
H1305 C1301 0.950 . S
H1306 C1303 0.950 . S
C1307 C1298 1.390 . S
C1307 H1300 0.950 . S
C1307 C1304 1.387 1_565 S
C1308 C1309 1.387 . S
C1308 H1312 0.950 . S
C1308 C1317 1.390 . S
C1309 C1308 1.387 . S
C1309 C1311 1.387 1_455 S
H1310 C1317 0.950 . S
C1311 C1309 1.387 1_655 S
C1311 C1313 1.390 . S
C1311 H1315 0.950 . S
H1312 C1308 0.950 . S
C1313 C1311 1.390 . S
C1313 C1314 1.387 1_655 S
C1313 H1316 0.950 . S
C1314 C1313 1.387 1_455 S
C1314 C1317 1.387 . S
H1315 C1311 0.950 . S
H1316 C1313 0.950 . S
C1317 C1308 1.390 . S
C1317 H1310 0.950 . S
C1317 C1314 1.387 . S
C1318 C1319 1.387 1_565 S
C1318 H1322 0.950 . S
C1318 C1327 1.390 . S
C1319 C1318 1.387 1_545 S
C1319 C1321 1.387 . S
H1320 C1327 0.950 . S
C1321 C1319 1.387 . S
C1321 C1323 1.390 . S
C1321 H1325 0.950 . S
H1322 C1318 0.950 . S
C1323 C1321 1.390 . S
C1323 C1324 1.387 . S
C1323 H1326 0.950 . S
C1324 C1323 1.387 . S
C1324 C1327 1.387 1_545 S
H1325 C1321 0.950 . S
H1326 C1323 0.950 . S
C1327 C1318 1.390 . S
C1327 H1320 0.950 . S
C1327 C1324 1.387 1_565 S
C1328 C1329 1.387 . S
C1328 H1332 0.950 . S
C1328 C1337 1.390 . S
C1329 C1328 1.387 . S
C1329 C1331 1.387 1_455 S
H1330 C1337 0.950 . S
C1331 C1329 1.387 1_655 S
C1331 C1333 1.390 . S
C1331 H1335 0.950 . S
H1332 C1328 0.950 . S
C1333 C1331 1.390 . S
C1333 C1334 1.387 1_655 S
C1333 H1336 0.950 . S
C1334 C1333 1.387 1_455 S
C1334 C1337 1.387 . S
H1335 C1331 0.950 . S
H1336 C1333 0.950 . S
C1337 C1328 1.390 . S
C1337 H1330 0.950 . S
C1337 C1334 1.387 . S
C1338 C1339 1.387 1_565 S
C1338 H1342 0.950 . S
C1338 C1347 1.390 . S
C1339 C1338 1.387 1_545 S
C1339 C1341 1.387 . S
H1340 C1347 0.950 . S
C1341 C1339 1.387 . S
C1341 C1343 1.390 . S
C1341 H1345 0.950 . S
H1342 C1338 0.950 . S
C1343 C1341 1.390 . S
C1343 C1344 1.387 . S
C1343 H1346 0.950 . S
C1344 C1343 1.387 . S
C1344 C1347 1.387 1_545 S
H1345 C1341 0.950 . S
H1346 C1343 0.950 . S
C1347 C1338 1.390 . S
C1347 H1340 0.950 . S
C1347 C1344 1.387 1_565 S
C1348 C1349 1.387 . S
C1348 H1352 0.950 . S
C1348 C1357 1.390 . S
C1349 C1348 1.387 . S
C1349 C1351 1.387 1_455 S
H1350 C1357 0.950 . S
C1351 C1349 1.387 1_655 S
C1351 C1353 1.390 . S
C1351 H1355 0.950 . S
H1352 C1348 0.950 . S
C1353 C1351 1.390 . S
C1353 C1354 1.387 1_655 S
C1353 H1356 0.950 . S
C1354 C1353 1.387 1_455 S
C1354 C1357 1.387 . S
H1355 C1351 0.950 . S
H1356 C1353 0.950 . S
C1357 C1348 1.390 . S
C1357 H1350 0.950 . S
C1357 C1354 1.387 . S
C1358 C1359 1.387 . S
C1358 H1362 0.950 . S
C1358 C1367 1.390 . S
C1359 C1358 1.387 . S
C1359 C1361 1.387 1_545 S
H1360 C1367 0.950 . S
C1361 C1359 1.387 1_565 S
C1361 C1363 1.390 . S
C1361 H1365 0.950 . S
H1362 C1358 0.950 . S
C1363 C1361 1.390 . S
C1363 C1364 1.387 1_565 S
C1363 H1366 0.950 . S
C1364 C1363 1.387 1_545 S
C1364 C1367 1.387 . S
H1365 C1361 0.950 . S
H1366 C1363 0.950 . S
C1367 C1358 1.390 . S
C1367 H1360 0.950 . S
C1367 C1364 1.387 . S
C1368 C1369 1.387 1_655 S
C1368 H1372 0.950 . S
C1368 C1377 1.390 . S
C1369 C1368 1.387 1_455 S
C1369 C1371 1.387 . S
H1370 C1377 0.950 . S
C1371 C1369 1.387 . S
C1371 C1373 1.390 . S
C1371 H1375 0.950 . S
H1372 C1368 0.950 . S
C1373 C1371 1.390 . S
C1373 C1374 1.387 . S
C1373 H1376 0.950 . S
C1374 C1373 1.387 . S
C1374 C1377 1.387 1_455 S
H1375 C1371 0.950 . S
H1376 C1373 0.950 . S
C1377 C1368 1.390 . S
C1377 H1370 0.950 . S
C1377 C1374 1.387 1_655 S
C1378 C1379 1.387 1_565 S
C1378 H1382 0.950 . S
C1378 C1387 1.390 . S
C1379 C1378 1.387 1_545 S
C1379 C1381 1.387 . S
H1380 C1387 0.950 . S
C1381 C1379 1.387 . S
C1381 C1383 1.390 . S
C1381 H1385 0.950 . S
H1382 C1378 0.950 . S
C1383 C1381 1.390 . S
C1383 C1384 1.387 . S
C1383 H1386 0.950 . S
C1384 C1383 1.387 . S
C1384 C1387 1.387 1_545 S
H1385 C1381 0.950 . S
H1386 C1383 0.950 . S
C1387 C1378 1.390 . S
C1387 H1380 0.950 . S
C1387 C1384 1.387 1_565 S
C1388 C1389 1.387 1_565 S
C1388 H1392 0.950 . S
C1388 C1397 1.390 . S
C1389 C1388 1.387 1_545 S
C1389 C1391 1.387 . S
H1390 C1397 0.950 . S
C1391 C1389 1.387 . S
C1391 C1393 1.390 . S
C1391 H1395 0.950 . S
H1392 C1388 0.950 . S
C1393 C1391 1.390 . S
C1393 C1394 1.387 . S
C1393 H1396 0.950 . S
C1394 C1393 1.387 . S
C1394 C1397 1.387 1_545 S
H1395 C1391 0.950 . S
H1396 C1393 0.950 . S
C1397 C1388 1.390 . S
C1397 H1390 0.950 . S
C1397 C1394 1.387 1_565 S
C1398 C1399 1.387 . S
C1398 H1402 0.950 . S
C1398 C1407 1.390 . S
C1399 C1398 1.387 . S
C1399 C1401 1.387 1_455 S
H1400 C1407 0.950 . S
C1401 C1399 1.387 1_655 S
C1401 C1403 1.390 . S
C1401 H1405 0.950 . S
H1402 C1398 0.950 . S
C1403 C1401 1.390 . S
C1403 C1404 1.387 1_655 S
C1403 H1406 0.950 . S
C1404 C1403 1.387 1_455 S
C1404 C1407 1.387 . S
H1405 C1401 0.950 . S
H1406 C1403 0.950 . S
C1407 C1398 1.390 . S
C1407 H1400 0.950 . S
C1407 C1404 1.387 . S
C1408 C1409 1.387 1_565 S
C1408 H1412 0.950 . S
C1408 C1417 1.390 . S
C1409 C1408 1.387 1_545 S
C1409 C1411 1.387 . S
H1410 C1417 0.950 . S
C1411 C1409 1.387 . S
C1411 C1413 1.390 . S
C1411 H1415 0.950 . S
H1412 C1408 0.950 . S
C1413 C1411 1.390 . S
C1413 C1414 1.387 . S
C1413 H1416 0.950 . S
C1414 C1413 1.387 . S
C1414 C1417 1.387 1_545 S
H1415 C1411 0.950 . S
H1416 C1413 0.950 . S
C1417 C1408 1.390 . S
C1417 H1410 0.950 . S
C1417 C1414 1.387 1_565 S
C1418 C1419 1.387 1_655 S
C1418 H1422 0.950 . S
C1418 C1427 1.390 . S
C1419 C1418 1.387 1_455 S
C1419 C1421 1.387 . S
H1420 C1427 0.950 . S
C1421 C1419 1.387 . S
C1421 C1423 1.390 . S
C1421 H1425 0.950 . S
H1422 C1418 0.950 . S
C1423 C1421 1.390 . S
C1423 C1424 1.387 . S
C1423 H1426 0.950 . S
C1424 C1423 1.387 . S
C1424 C1427 1.387 1_455 S
H1425 C1421 0.950 . S
H1426 C1423 0.950 . S
C1427 C1418 1.390 . S
C1427 H1420 0.950 . S
C1427 C1424 1.387 1_655 S
C1428 C1429 1.387 1_565 S
C1428 H1432 0.950 . S
C1428 C1437 1.390 . S
C1429 C1428 1.387 1_545 S
C1429 C1431 1.387 . S
H1430 C1437 0.950 . S
C1431 C1429 1.387 . S
C1431 C1433 1.390 . S
C1431 H1435 0.950 . S
H1432 C1428 0.950 . S
C1433 C1431 1.390 . S
C1433 C1434 1.387 . S
C1433 H1436 0.950 . S
C1434 C1433 1.387 . S
C1434 C1437 1.387 1_545 S
H1435 C1431 0.950 . S
H1436 C1433 0.950 . S
C1437 C1428 1.390 . S
C1437 H1430 0.950 . S
C1437 C1434 1.387 1_565 S
C1438 C1439 1.387 . S
C1438 H1442 0.950 . S
C1438 C1447 1.390 . S
C1439 C1438 1.387 . S
C1439 C1441 1.387 1_455 S
H1440 C1447 0.950 . S
C1441 C1439 1.387 1_655 S
C1441 C1443 1.390 . S
C1441 H1445 0.950 . S
H1442 C1438 0.950 . S
C1443 C1441 1.390 . S
C1443 C1444 1.387 1_655 S
C1443 H1446 0.950 . S
C1444 C1443 1.387 1_455 S
C1444 C1447 1.387 . S
H1445 C1441 0.950 . S
H1446 C1443 0.950 . S
C1447 C1438 1.390 . S
C1447 H1440 0.950 . S
C1447 C1444 1.387 . S
C1448 C1449 1.387 . S
C1448 H1452 0.950 . S
C1448 C1457 1.390 . S
C1449 C1448 1.387 . S
C1449 C1451 1.387 1_545 S
H1450 C1457 0.950 . S
C1451 C1449 1.387 1_565 S
C1451 C1453 1.390 . S
C1451 H1455 0.950 . S
H1452 C1448 0.950 . S
C1453 C1451 1.390 . S
C1453 C1454 1.387 1_565 S
C1453 H1456 0.950 . S
C1454 C1453 1.387 1_545 S
C1454 C1457 1.387 . S
H1455 C1451 0.950 . S
H1456 C1453 0.950 . S
C1457 C1448 1.390 . S
C1457 H1450 0.950 . S
C1457 C1454 1.387 . S
C1458 C1459 1.387 . S
C1458 H1462 0.950 . S
C1458 C1467 1.390 . S
C1459 C1458 1.387 . S
C1459 C1461 1.387 1_455 S
H1460 C1467 0.950 . S
C1461 C1459 1.387 1_655 S
C1461 C1463 1.390 . S
C1461 H1465 0.950 . S
H1462 C1458 0.950 . S
C1463 C1461 1.390 . S
C1463 C1464 1.387 1_655 S
C1463 H1466 0.950 . S
C1464 C1463 1.387 1_455 S
C1464 C1467 1.387 . S
H1465 C1461 0.950 . S
H1466 C1463 0.950 . S
C1467 C1458 1.390 . S
C1467 H1460 0.950 . S
C1467 C1464 1.387 . S
C1468 C1469 1.377 1_556 S
C1468 H1472 0.950 . S
C1468 C1477 1.390 . S
C1469 C1468 1.377 1_554 S
C1469 C1471 1.398 . S
H1470 C1477 0.950 . S
C1471 C1469 1.398 . S
C1471 C1473 1.390 . S
C1471 H1475 0.950 . S
H1472 C1468 0.950 . S
C1473 C1471 1.390 . S
C1473 C1474 1.398 . S
C1473 H1476 0.950 . S
C1474 C1473 1.398 . S
C1474 C1477 1.377 1_554 S
H1475 C1471 0.950 . S
H1476 C1473 0.950 . S
C1477 C1468 1.390 . S
C1477 H1470 0.950 . S
C1477 C1474 1.377 1_556 S
C1478 C1479 1.398 . S
C1478 H1482 0.950 . S
C1478 C1487 1.390 . S
C1479 C1478 1.398 . S
C1479 C1481 1.377 1_554 S
H1480 C1487 0.950 . S
C1481 C1479 1.377 1_556 S
C1481 C1483 1.390 . S
C1481 H1485 0.950 . S
H1482 C1478 0.950 . S
C1483 C1481 1.390 . S
C1483 C1484 1.377 1_556 S
C1483 H1486 0.950 . S
C1484 C1483 1.377 1_554 S
C1484 C1487 1.398 . S
H1485 C1481 0.950 . S
H1486 C1483 0.950 . S
C1487 C1478 1.390 . S
C1487 H1480 0.950 . S
C1487 C1484 1.398 . S
C1488 C1489 1.382 1_556 S
C1488 H1492 0.950 . S
C1488 C1497 1.390 . S
C1489 C1488 1.382 1_554 S
C1489 C1491 1.393 . S
H1490 C1497 0.950 . S
C1491 C1489 1.393 . S
C1491 C1493 1.390 . S
C1491 H1495 0.950 . S
H1492 C1488 0.950 . S
C1493 C1491 1.390 . S
C1493 C1494 1.389 . S
C1493 H1496 0.950 . S
C1494 C1493 1.389 . S
C1494 C1497 1.386 1_554 S
H1495 C1491 0.950 . S
H1496 C1493 0.950 . S
C1497 C1488 1.390 . S
C1497 H1490 0.950 . S
C1497 C1494 1.386 1_556 S
C1498 C1499 1.379 1_556 S
C1498 H1502 0.950 . S
C1498 C1507 1.390 . S
C1499 C1498 1.379 1_554 S
C1499 C1501 1.396 . S
H1500 C1507 0.950 . S
C1501 C1499 1.396 . S
C1501 C1503 1.390 . S
C1501 H1505 0.950 . S
H1502 C1498 0.950 . S
C1503 C1501 1.390 . S
C1503 C1504 1.398 . S
C1503 H1506 0.950 . S
C1504 C1503 1.398 . S
C1504 C1507 1.377 1_554 S
H1505 C1501 0.950 . S
H1506 C1503 0.950 . S
C1507 C1498 1.390 . S
C1507 H1500 0.950 . S
C1507 C1504 1.377 1_556 S
C1508 C1509 1.390 . S
C1508 H1512 0.950 . S
C1508 C1517 1.390 . S
C1509 C1508 1.390 . S
C1509 C1511 1.385 1_554 S
H1510 C1517 0.950 . S
C1511 C1509 1.385 1_556 S
C1511 C1513 1.390 . S
C1511 H1515 0.950 . S
H1512 C1508 0.950 . S
C1513 C1511 1.390 . S
C1513 C1514 1.387 1_556 S
C1513 H1516 0.950 . S
C1514 C1513 1.387 1_554 S
C1514 C1517 1.388 . S
H1515 C1511 0.950 . S
H1516 C1513 0.950 . S
C1517 C1508 1.390 . S
C1517 H1510 0.950 . S
C1517 C1514 1.388 . S
C1518 C1519 1.396 . S
C1518 H1522 0.950 . S
C1518 C1527 1.390 . S
C1519 C1518 1.396 . S
C1519 C1521 1.379 1_554 S
H1520 C1527 0.950 . S
C1521 C1519 1.379 1_556 S
C1521 C1523 1.390 . S
C1521 H1525 0.950 . S
H1522 C1518 0.950 . S
C1523 C1521 1.390 . S
C1523 C1524 1.377 1_556 S
C1523 H1526 0.950 . S
C1524 C1523 1.377 1_554 S
C1524 C1527 1.398 . S
H1525 C1521 0.950 . S
H1526 C1523 0.950 . S
C1527 C1518 1.390 . S
C1527 H1520 0.950 . S
C1527 C1524 1.398 . S
C1528 C1529 1.393 . S
C1528 H1532 0.950 . S
C1528 C1537 1.390 . S
C1529 C1528 1.393 . S
C1529 C1531 1.382 1_554 S
H1530 C1537 0.950 . S
C1531 C1529 1.382 1_556 S
C1531 C1533 1.390 . S
C1531 H1535 0.950 . S
H1532 C1528 0.950 . S
C1533 C1531 1.390 . S
C1533 C1534 1.386 1_556 S
C1533 H1536 0.950 . S
C1534 C1533 1.386 1_554 S
C1534 C1537 1.389 . S
H1535 C1531 0.950 . S
H1536 C1533 0.950 . S
C1537 C1528 1.390 . S
C1537 H1530 0.950 . S
C1537 C1534 1.389 . S
C1538 C1539 1.384 1_556 S
C1538 H1542 0.950 . S
C1538 C1547 1.390 . S
C1539 C1538 1.384 1_554 S
C1539 C1541 1.391 . S
H1540 C1547 0.950 . S
C1541 C1539 1.391 . S
C1541 C1543 1.390 . S
C1541 H1545 0.950 . S
H1542 C1538 0.950 . S
C1543 C1541 1.390 . S
C1543 C1544 1.389 . S
C1543 H1546 0.950 . S
C1544 C1543 1.389 . S
C1544 C1547 1.386 1_554 S
H1545 C1541 0.950 . S
H1546 C1543 0.950 . S
C1547 C1538 1.390 . S
C1547 H1540 0.950 . S
C1547 C1544 1.386 1_556 S
C1548 C1549 1.387 . S
C1548 H1552 0.950 . S
C1548 C1557 1.390 . S
C1549 C1548 1.387 . S
C1549 C1551 1.387 . S
H1550 C1557 0.950 . S
C1551 C1549 1.387 . S
C1551 C1553 1.390 . S
C1551 H1555 0.950 . S
H1552 C1548 0.950 . S
C1553 C1551 1.390 . S
C1553 C1554 1.387 . S
C1553 H1556 0.950 . S
C1554 C1553 1.387 . S
C1554 C1557 1.387 . S
H1555 C1551 0.950 . S
H1556 C1553 0.950 . S
C1557 C1548 1.390 . S
C1557 H1550 0.950 . S
C1557 C1554 1.387 . S
C1558 C1559 1.387 . S
C1558 H1562 0.950 . S
C1558 C1567 1.390 . S
C1559 C1558 1.387 . S
C1559 C1561 1.387 . S
H1560 C1567 0.950 . S
C1561 C1559 1.387 . S
C1561 C1563 1.390 . S
C1561 H1565 0.950 . S
H1562 C1558 0.950 . S
C1563 C1561 1.390 . S
C1563 C1564 1.387 . S
C1563 H1566 0.950 . S
C1564 C1563 1.387 . S
C1564 C1567 1.387 . S
H1565 C1561 0.950 . S
H1566 C1563 0.950 . S
C1567 C1558 1.390 . S
C1567 H1560 0.950 . S
C1567 C1564 1.387 . S
C1568 C1569 1.387 . S
C1568 H1572 0.950 . S
C1568 C1577 1.390 . S
C1569 C1568 1.387 . S
C1569 C1571 1.387 . S
H1570 C1577 0.950 . S
C1571 C1569 1.387 . S
C1571 C1573 1.390 . S
C1571 H1575 0.950 . S
H1572 C1568 0.950 . S
C1573 C1571 1.390 . S
C1573 C1574 1.387 . S
C1573 H1576 0.950 . S
C1574 C1573 1.387 . S
C1574 C1577 1.387 . S
H1575 C1571 0.950 . S
H1576 C1573 0.950 . S
C1577 C1568 1.390 . S
C1577 H1570 0.950 . S
C1577 C1574 1.387 . S
C1578 C1579 1.387 . S
C1578 H1582 0.950 . S
C1578 C1587 1.390 . S
C1579 C1578 1.387 . S
C1579 C1581 1.387 . S
H1580 C1587 0.950 . S
C1581 C1579 1.387 . S
C1581 C1583 1.390 . S
C1581 H1585 0.950 . S
H1582 C1578 0.950 . S
C1583 C1581 1.390 . S
C1583 C1584 1.387 . S
C1583 H1586 0.950 . S
C1584 C1583 1.387 . S
C1584 C1587 1.387 . S
H1585 C1581 0.950 . S
H1586 C1583 0.950 . S
C1587 C1578 1.390 . S
C1587 H1580 0.950 . S
C1587 C1584 1.387 . S
C1588 C1589 1.387 . S
C1588 H1592 0.950 . S
C1588 C1597 1.390 . S
C1589 C1588 1.387 . S
C1589 C1591 1.387 . S
H1590 C1597 0.950 . S
C1591 C1589 1.387 . S
C1591 C1593 1.390 . S
C1591 H1595 0.950 . S
H1592 C1588 0.950 . S
C1593 C1591 1.390 . S
C1593 C1594 1.387 . S
C1593 H1596 0.950 . S
C1594 C1593 1.387 . S
C1594 C1597 1.387 . S
H1595 C1591 0.950 . S
H1596 C1593 0.950 . S
C1597 C1588 1.390 . S
C1597 H1590 0.950 . S
C1597 C1594 1.387 . S
C1598 C1599 1.387 . S
C1598 H1602 0.950 . S
C1598 C1607 1.390 . S
C1599 C1598 1.387 . S
C1599 C1601 1.387 . S
H1600 C1607 0.950 . S
C1601 C1599 1.387 . S
C1601 C1603 1.390 . S
C1601 H1605 0.950 . S
H1602 C1598 0.950 . S
C1603 C1601 1.390 . S
C1603 C1604 1.387 . S
C1603 H1606 0.950 . S
C1604 C1603 1.387 . S
C1604 C1607 1.387 . S
H1605 C1601 0.950 . S
H1606 C1603 0.950 . S
C1607 C1598 1.390 . S
C1607 H1600 0.950 . S
C1607 C1604 1.387 . S
C1608 C1609 1.387 . S
C1608 H1612 0.950 . S
C1608 C1617 1.390 . S
C1609 C1608 1.387 . S
C1609 C1611 1.387 . S
H1610 C1617 0.950 . S
C1611 C1609 1.387 . S
C1611 C1613 1.390 . S
C1611 H1615 0.950 . S
H1612 C1608 0.950 . S
C1613 C1611 1.390 . S
C1613 C1614 1.387 . S
C1613 H1616 0.950 . S
C1614 C1613 1.387 . S
C1614 C1617 1.387 . S
H1615 C1611 0.950 . S
H1616 C1613 0.950 . S
C1617 C1608 1.390 . S
C1617 H1610 0.950 . S
C1617 C1614 1.387 . S
C1618 C1619 1.387 . S
C1618 H1622 0.950 . S
C1618 C1627 1.390 . S
C1619 C1618 1.387 . S
C1619 C1621 1.387 . S
H1620 C1627 0.950 . S
C1621 C1619 1.387 . S
C1621 C1623 1.390 . S
C1621 H1625 0.950 . S
H1622 C1618 0.950 . S
C1623 C1621 1.390 . S
C1623 C1624 1.387 . S
C1623 H1626 0.950 . S
C1624 C1623 1.387 . S
C1624 C1627 1.387 . S
H1625 C1621 0.950 . S
H1626 C1623 0.950 . S
C1627 C1618 1.390 . S
C1627 H1620 0.950 . S
C1627 C1624 1.387 . S
C1628 C1629 1.387 . S
C1628 H1632 0.950 . S
C1628 C1637 1.390 . S
C1629 C1628 1.387 . S
C1629 C1631 1.387 . S
H1630 C1637 0.950 . S
C1631 C1629 1.387 . S
C1631 C1633 1.390 . S
C1631 H1635 0.950 . S
H1632 C1628 0.950 . S
C1633 C1631 1.390 . S
C1633 C1634 1.387 . S
C1633 H1636 0.950 . S
C1634 C1633 1.387 . S
C1634 C1637 1.387 . S
H1635 C1631 0.950 . S
H1636 C1633 0.950 . S
C1637 C1628 1.390 . S
C1637 H1630 0.950 . S
C1637 C1634 1.387 . S
C1638 C1639 1.387 . S
C1638 H1642 0.950 . S
C1638 C1647 1.390 . S
C1639 C1638 1.387 . S
C1639 C1641 1.387 . S
H1640 C1647 0.950 . S
C1641 C1639 1.387 . S
C1641 C1643 1.390 . S
C1641 H1645 0.950 . S
H1642 C1638 0.950 . S
C1643 C1641 1.390 . S
C1643 C1644 1.387 . S
C1643 H1646 0.950 . S
C1644 C1643 1.387 . S
C1644 C1647 1.387 . S
H1645 C1641 0.950 . S
H1646 C1643 0.950 . S
C1647 C1638 1.390 . S
C1647 H1640 0.950 . S
C1647 C1644 1.387 . S
C1648 C1649 1.387 . S
C1648 H1652 0.950 . S
C1648 C1657 1.390 . S
C1649 C1648 1.387 . S
C1649 C1651 1.387 . S
H1650 C1657 0.950 . S
C1651 C1649 1.387 . S
C1651 C1653 1.390 . S
C1651 H1655 0.950 . S
H1652 C1648 0.950 . S
C1653 C1651 1.390 . S
C1653 C1654 1.387 . S
C1653 H1656 0.950 . S
C1654 C1653 1.387 . S
C1654 C1657 1.387 . S
H1655 C1651 0.950 . S
H1656 C1653 0.950 . S
C1657 C1648 1.390 . S
C1657 H1650 0.950 . S
C1657 C1654 1.387 . S
C1658 C1659 1.387 . S
C1658 H1662 0.950 . S
C1658 C1667 1.390 . S
C1659 C1658 1.387 . S
C1659 C1661 1.387 . S
H1660 C1667 0.950 . S
C1661 C1659 1.387 . S
C1661 C1663 1.390 . S
C1661 H1665 0.950 . S
H1662 C1658 0.950 . S
C1663 C1661 1.390 . S
C1663 C1664 1.387 . S
C1663 H1666 0.950 . S
C1664 C1663 1.387 . S
C1664 C1667 1.387 . S
H1665 C1661 0.950 . S
H1666 C1663 0.950 . S
C1667 C1658 1.390 . S
C1667 H1660 0.950 . S
C1667 C1664 1.387 . S
C1668 C1669 1.387 . S
C1668 H1672 0.950 . S
C1668 C1677 1.390 . S
C1669 C1668 1.387 . S
C1669 C1671 1.387 . S
H1670 C1677 0.950 . S
C1671 C1669 1.387 . S
C1671 C1673 1.390 . S
C1671 H1675 0.950 . S
H1672 C1668 0.950 . S
C1673 C1671 1.390 . S
C1673 C1674 1.387 . S
C1673 H1676 0.950 . S
C1674 C1673 1.387 . S
C1674 C1677 1.387 . S
H1675 C1671 0.950 . S
H1676 C1673 0.950 . S
C1677 C1668 1.390 . S
C1677 H1670 0.950 . S
C1677 C1674 1.387 . S
C1678 C1679 1.387 . S
C1678 H1682 0.950 . S
C1678 C1687 1.390 . S
C1679 C1678 1.387 . S
C1679 C1681 1.387 . S
H1680 C1687 0.950 . S
C1681 C1679 1.387 . S
C1681 C1683 1.390 . S
C1681 H1685 0.950 . S
H1682 C1678 0.950 . S
C1683 C1681 1.390 . S
C1683 C1684 1.387 . S
C1683 H1686 0.950 . S
C1684 C1683 1.387 . S
C1684 C1687 1.387 . S
H1685 C1681 0.950 . S
H1686 C1683 0.950 . S
C1687 C1678 1.390 . S
C1687 H1680 0.950 . S
C1687 C1684 1.387 . S
C1688 C1689 1.387 . S
C1688 H1692 0.950 . S
C1688 C1697 1.390 . S
C1689 C1688 1.387 . S
C1689 C1691 1.387 . S
H1690 C1697 0.950 . S
C1691 C1689 1.387 . S
C1691 C1693 1.390 . S
C1691 H1695 0.950 . S
H1692 C1688 0.950 . S
C1693 C1691 1.390 . S
C1693 C1694 1.387 . S
C1693 H1696 0.950 . S
C1694 C1693 1.387 . S
C1694 C1697 1.387 . S
H1695 C1691 0.950 . S
H1696 C1693 0.950 . S
C1697 C1688 1.390 . S
C1697 H1690 0.950 . S
C1697 C1694 1.387 . S
C1698 C1699 1.387 . S
C1698 H1702 0.950 . S
C1698 C1707 1.390 . S
C1699 C1698 1.387 . S
C1699 C1701 1.387 . S
H1700 C1707 0.950 . S
C1701 C1699 1.387 . S
C1701 C1703 1.390 . S
C1701 H1705 0.950 . S
H1702 C1698 0.950 . S
C1703 C1701 1.390 . S
C1703 C1704 1.387 . S
C1703 H1706 0.950 . S
C1704 C1703 1.387 . S
C1704 C1707 1.387 . S
H1705 C1701 0.950 . S
H1706 C1703 0.950 . S
C1707 C1698 1.390 . S
C1707 H1700 0.950 . S
C1707 C1704 1.387 . S
C1708 C1709 1.387 . S
C1708 H1712 0.950 . S
C1708 C1717 1.390 . S
C1709 C1708 1.387 . S
C1709 C1711 1.387 . S
H1710 C1717 0.950 . S
C1711 C1709 1.387 . S
C1711 C1713 1.390 . S
C1711 H1715 0.950 . S
H1712 C1708 0.950 . S
C1713 C1711 1.390 . S
C1713 C1714 1.387 . S
C1713 H1716 0.950 . S
C1714 C1713 1.387 . S
C1714 C1717 1.387 . S
H1715 C1711 0.950 . S
H1716 C1713 0.950 . S
C1717 C1708 1.390 . S
C1717 H1710 0.950 . S
C1717 C1714 1.387 . S
C1718 C1719 1.387 . S
C1718 H1722 0.950 . S
C1718 C1727 1.390 . S
C1719 C1718 1.387 . S
C1719 C1721 1.387 . S
H1720 C1727 0.950 . S
C1721 C1719 1.387 . S
C1721 C1723 1.390 . S
C1721 H1725 0.950 . S
H1722 C1718 0.950 . S
C1723 C1721 1.390 . S
C1723 C1724 1.387 . S
C1723 H1726 0.950 . S
C1724 C1723 1.387 . S
C1724 C1727 1.387 . S
H1725 C1721 0.950 . S
H1726 C1723 0.950 . S
C1727 C1718 1.390 . S
C1727 H1720 0.950 . S
C1727 C1724 1.387 . S
C1728 C1729 1.387 . S
C1728 H1732 0.950 . S
C1728 C1737 1.390 . S
C1729 C1728 1.387 . S
C1729 C1731 1.387 . S
H1730 C1737 0.950 . S
C1731 C1729 1.387 . S
C1731 C1733 1.390 . S
C1731 H1735 0.950 . S
H1732 C1728 0.950 . S
C1733 C1731 1.390 . S
C1733 C1734 1.387 . S
C1733 H1736 0.950 . S
C1734 C1733 1.387 . S
C1734 C1737 1.387 . S
H1735 C1731 0.950 . S
H1736 C1733 0.950 . S
C1737 C1728 1.390 . S
C1737 H1730 0.950 . S
C1737 C1734 1.387 . S
C1738 C1739 1.387 . S
C1738 H1742 0.950 . S
C1738 C1747 1.390 . S
C1739 C1738 1.387 . S
C1739 C1741 1.387 . S
H1740 C1747 0.950 . S
C1741 C1739 1.387 . S
C1741 C1743 1.390 . S
C1741 H1745 0.950 . S
H1742 C1738 0.950 . S
C1743 C1741 1.390 . S
C1743 C1744 1.387 . S
C1743 H1746 0.950 . S
C1744 C1743 1.387 . S
C1744 C1747 1.387 . S
H1745 C1741 0.950 . S
H1746 C1743 0.950 . S
C1747 C1738 1.390 . S
C1747 H1740 0.950 . S
C1747 C1744 1.387 . S
C1748 C1749 1.387 . S
C1748 H1752 0.950 . S
C1748 C1757 1.390 . S
C1749 C1748 1.387 . S
C1749 C1751 1.387 . S
H1750 C1757 0.950 . S
C1751 C1749 1.387 . S
C1751 C1753 1.390 . S
C1751 H1755 0.950 . S
H1752 C1748 0.950 . S
C1753 C1751 1.390 . S
C1753 C1754 1.387 . S
C1753 H1756 0.950 . S
C1754 C1753 1.387 . S
C1754 C1757 1.387 . S
H1755 C1751 0.950 . S
H1756 C1753 0.950 . S
C1757 C1748 1.390 . S
C1757 H1750 0.950 . S
C1757 C1754 1.387 . S
C1758 C1759 1.387 . S
C1758 H1762 0.950 . S
C1758 C1767 1.390 . S
C1759 C1758 1.387 . S
C1759 C1761 1.387 . S
H1760 C1767 0.950 . S
C1761 C1759 1.387 . S
C1761 C1763 1.390 . S
C1761 H1765 0.950 . S
H1762 C1758 0.950 . S
C1763 C1761 1.390 . S
C1763 C1764 1.387 . S
C1763 H1766 0.950 . S
C1764 C1763 1.387 . S
C1764 C1767 1.387 . S
H1765 C1761 0.950 . S
H1766 C1763 0.950 . S
C1767 C1758 1.390 . S
C1767 H1760 0.950 . S
C1767 C1764 1.387 . S
C1768 C1769 1.387 . S
C1768 H1772 0.950 . S
C1768 C1777 1.390 . S
C1769 C1768 1.387 . S
C1769 C1771 1.387 . S
H1770 C1777 0.950 . S
C1771 C1769 1.387 . S
C1771 C1773 1.390 . S
C1771 H1775 0.950 . S
H1772 C1768 0.950 . S
C1773 C1771 1.390 . S
C1773 C1774 1.387 . S
C1773 H1776 0.950 . S
C1774 C1773 1.387 . S
C1774 C1777 1.387 . S
H1775 C1771 0.950 . S
H1776 C1773 0.950 . S
C1777 C1768 1.390 . S
C1777 H1770 0.950 . S
C1777 C1774 1.387 . S
C1778 C1779 1.387 . S
C1778 H1782 0.950 . S
C1778 C1787 1.390 . S
C1779 C1778 1.387 . S
C1779 C1781 1.387 . S
H1780 C1787 0.950 . S
C1781 C1779 1.387 . S
C1781 C1783 1.390 . S
C1781 H1785 0.950 . S
H1782 C1778 0.950 . S
C1783 C1781 1.390 . S
C1783 C1784 1.387 . S
C1783 H1786 0.950 . S
C1784 C1783 1.387 . S
C1784 C1787 1.387 . S
H1785 C1781 0.950 . S
H1786 C1783 0.950 . S
C1787 C1778 1.390 . S
C1787 H1780 0.950 . S
C1787 C1784 1.387 . S
C1074 C774 1.225 . S
C1069 C765 1.199 . S
C1079 C701 1.214 . S
C1084 C772 1.240 . S
C1094 C773 1.232 . S
C1089 C669 1.205 . S
C1099 C733 1.191 . S
C1104 C775 1.217 . S
C1114 C819 1.226 . S
C1109 C541 1.198 . S
C1124 C879 1.208 . S
C1119 C573 1.183 . S
C1129 C605 1.207 . S
C1134 C818 1.232 . S
C1144 C878 1.233 . S
C1139 C637 1.206 . S
C1149 C413 1.198 . S
C1154 C820 1.225 . S
C1164 C876 1.232 . S
C1159 C445 1.206 . S
C1169 C477 1.192 . S
C1174 C821 1.218 . S
C1179 C509 1.181 . S
C1184 C877 1.207 . S
C1194 C927 1.220 . S
C1189 C381 1.197 . S
C1199 C317 1.214 1_554 S
C1204 C926 1.244 . S
C1209 C285 1.206 1_554 S
C1214 C928 1.236 . S
C1224 C929 1.212 . S
C1219 C349 1.183 1_554 S
C1229 C157 1.196 1_455 S
C1234 C970 1.221 . S
C1239 C189 1.183 1_545 S
C1244 C1029 1.209 . S
C1249 C221 1.202 . S
C1254 C968 1.228 . S
C1259 C253 1.197 . S
C1264 C1028 1.223 . S
C1274 C969 1.230 . S
C1269 C29 1.203 1_455 S
C1284 C1026 1.232 . S
C1279 C61 1.205 1_545 S
C1289 C93 1.196 . S
C1294 C971 1.222 . S
C1304 C1027 1.218 . S
C1299 C125 1.192 1_545 S
C1314 C771 1.867 . S
C1309 C23 1.727 1_455 S
C1319 C55 1.714 1_545 S
C1324 C777 1.857 . S
C1329 C87 1.717 . S
C1334 C769 1.861 . S
C1339 C113 1.718 1_545 S
C1344 C776 1.840 . S
C1349 C151 1.722 1_455 S
C1354 C768 1.864 . S
C1364 C778 1.852 . S
C1359 C183 1.708 1_545 S
C1369 C215 1.727 . S
C1374 C770 1.869 . S
C1384 C779 1.857 . S
C1379 C247 1.715 . S
C1394 C825 1.851 . S
C1389 C119 1.705 1_545 S
C1399 C17 1.726 1_455 S
C1404 C868 1.849 . S
C1414 C823 1.844 . S
C1409 C49 1.723 1_545 S
C1424 C870 1.848 . S
C1419 C81 1.725 . S
C1429 C177 1.716 1_545 S
C1434 C824 1.839 . S
C1444 C869 1.851 . S
C1439 C209 1.730 . S
C1454 C822 1.844 . S
C1449 C241 1.723 . S
C1464 C871 1.848 . S
C1459 C145 1.724 1_455 S
C1474 C875 1.871 . S
C1469 C279 1.726 1_554 S
C1479 C305 1.739 1_554 S
C1484 C874 1.861 . S
C1494 C826 1.860 . S
C1489 C273 1.739 1_554 S
C1504 C873 1.849 . S
C1499 C337 1.725 1_554 S
C1509 C375 1.724 . S
C1514 C829 1.866 . S
C1519 C369 1.732 . S
C1524 C872 1.853 . S
C1534 C828 1.874 . S
C1529 C311 1.732 1_554 S
C1544 C827 1.866 . S
C1539 C343 1.722 1_554 S
C1554 C921 1.865 . S
C1549 C407 1.723 . S
C1564 C924 1.859 . S
C1559 C439 1.718 . S
C1569 C471 1.716 . S
C1574 C920 1.861 . S
C1584 C922 1.838 . S
C1579 C497 1.714 . S
C1594 C918 1.863 . S
C1589 C535 1.722 . S
C1599 C561 1.714 . S
C1604 C923 1.838 . S
C1609 C599 1.726 . S
C1614 C919 1.868 . S
C1624 C925 1.856 . S
C1619 C631 1.714 . S
C1634 C979 1.849 . S
C1629 C503 1.704 . S
C1639 C401 1.727 . S
C1644 C1018 1.849 . S
C1654 C978 1.842 . S
C1649 C433 1.720 . S
C1664 C1020 1.847 . S
C1659 C465 1.726 . S
C1674 C977 1.850 . S
C1669 C567 1.707 . S
C1679 C593 1.730 . S
C1684 C1019 1.852 . S
C1694 C976 1.844 . S
C1689 C625 1.723 . S
C1704 C1021 1.850 . S
C1699 C529 1.727 . S
C1714 C1025 1.871 . S
C1709 C663 1.729 . S
C1719 C689 1.737 . S
C1724 C1024 1.858 . S
C1734 C972 1.859 . S
C1729 C657 1.738 . S
C1739 C721 1.730 . S
C1744 C1023 1.851 . S
C1754 C975 1.868 . S
C1749 C759 1.727 . S
C1764 C1022 1.853 . S
C1759 C753 1.729 . S
C1774 C973 1.875 . S
C1769 C695 1.734 . S
C1779 C727 1.722 . S
C1784 C974 1.866 . S
