# Generated by pormake.
# Topology ptr, (4,4)-cn, num edge types: 1
# Building blocks:
#     Node 0, Type 0, BuildingBlock: GALJAG_clean_sbu_0, # of connection points: 4
#     Node 1, Type 0, BuildingBlock: GALJAG_clean_sbu_0, # of connection points: 4
#     Node 2, Type 0, BuildingBlock: GALJAG_clean_sbu_0, # of connection points: 4
#     Node 3, Type 0, BuildingBlock: GALJAG_clean_sbu_0, # of connection points: 4
#     Node 4, Type 0, BuildingBlock: GALJAG_clean_sbu_0, # of connection points: 4
#     Node 5, Type 0, BuildingBlock: GALJAG_clean_sbu_0, # of connection points: 4
#     Node 6, Type 0, BuildingBlock: GALJAG_clean_sbu_0, # of connection points: 4
#     Node 7, Type 0, BuildingBlock: GALJAG_clean_sbu_0, # of connection points: 4
#     Node 8, Type 0, BuildingBlock: GALJAG_clean_sbu_0, # of connection points: 4
#     Node 9, Type 0, BuildingBlock: GALJAG_clean_sbu_0, # of connection points: 4
#     Node 10, Type 0, BuildingBlock: GALJAG_clean_sbu_0, # of connection points: 4
#     Node 11, Type 0, BuildingBlock: GALJAG_clean_sbu_0, # of connection points: 4
#     Node 12, Type 0, BuildingBlock: GALJAG_clean_sbu_0, # of connection points: 4
#     Node 13, Type 0, BuildingBlock: GALJAG_clean_sbu_0, # of connection points: 4
#     Node 14, Type 0, BuildingBlock: GALJAG_clean_sbu_0, # of connection points: 4
#     Node 15, Type 0, BuildingBlock: GALJAG_clean_sbu_0, # of connection points: 4
#     Node 16, Type 0, BuildingBlock: GALJAG_clean_sbu_0, # of connection points: 4
#     Node 17, Type 0, BuildingBlock: GALJAG_clean_sbu_0, # of connection points: 4
#     Node 18, Type 1, BuildingBlock: AZAVOO_clean_linker_0, # of connection points: 4
#     Node 19, Type 1, BuildingBlock: AZAVOO_clean_linker_0, # of connection points: 4
#     Node 20, Type 1, BuildingBlock: AZAVOO_clean_linker_0, # of connection points: 4
#     Node 21, Type 1, BuildingBlock: AZAVOO_clean_linker_0, # of connection points: 4
#     Node 22, Type 1, BuildingBlock: AZAVOO_clean_linker_0, # of connection points: 4
#     Node 23, Type 1, BuildingBlock: AZAVOO_clean_linker_0, # of connection points: 4
#     Node 24, Type 1, BuildingBlock: AZAVOO_clean_linker_0, # of connection points: 4
#     Node 25, Type 1, BuildingBlock: AZAVOO_clean_linker_0, # of connection points: 4
#     Node 26, Type 1, BuildingBlock: AZAVOO_clean_linker_0, # of connection points: 4
#     Node 27, Type 1, BuildingBlock: AZAVOO_clean_linker_0, # of connection points: 4
#     Node 28, Type 1, BuildingBlock: AZAVOO_clean_linker_0, # of connection points: 4
#     Node 29, Type 1, BuildingBlock: AZAVOO_clean_linker_0, # of connection points: 4
#     Node 30, Type 1, BuildingBlock: AZAVOO_clean_linker_0, # of connection points: 4
#     Node 31, Type 1, BuildingBlock: AZAVOO_clean_linker_0, # of connection points: 4
#     Node 32, Type 1, BuildingBlock: AZAVOO_clean_linker_0, # of connection points: 4
#     Node 33, Type 1, BuildingBlock: AZAVOO_clean_linker_0, # of connection points: 4
#     Node 34, Type 1, BuildingBlock: AZAVOO_clean_linker_0, # of connection points: 4
#     Node 35, Type 1, BuildingBlock: AZAVOO_clean_linker_0, # of connection points: 4
#     Edge 36, Type (0, 1), BuildingBlock: KIFKEQ_clean_linker_1, # of connection points: 2
#     Edge 37, Type (0, 1), BuildingBlock: KIFKEQ_clean_linker_1, # of connection points: 2
#     Edge 38, Type (0, 1), BuildingBlock: KIFKEQ_clean_linker_1, # of connection points: 2
#     Edge 39, Type (0, 1), BuildingBlock: KIFKEQ_clean_linker_1, # of connection points: 2
#     Edge 40, Type (0, 1), BuildingBlock: KIFKEQ_clean_linker_1, # of connection points: 2
#     Edge 41, Type (0, 1), BuildingBlock: KIFKEQ_clean_linker_1, # of connection points: 2
#     Edge 42, Type (0, 1), BuildingBlock: KIFKEQ_clean_linker_1, # of connection points: 2
#     Edge 43, Type (0, 1), BuildingBlock: KIFKEQ_clean_linker_1, # of connection points: 2
#     Edge 44, Type (0, 1), BuildingBlock: KIFKEQ_clean_linker_1, # of connection points: 2
#     Edge 45, Type (0, 1), BuildingBlock: KIFKEQ_clean_linker_1, # of connection points: 2
#     Edge 46, Type (0, 1), BuildingBlock: KIFKEQ_clean_linker_1, # of connection points: 2
#     Edge 47, Type (0, 1), BuildingBlock: KIFKEQ_clean_linker_1, # of connection points: 2
#     Edge 48, Type (0, 1), BuildingBlock: KIFKEQ_clean_linker_1, # of connection points: 2
#     Edge 49, Type (0, 1), BuildingBlock: KIFKEQ_clean_linker_1, # of connection points: 2
#     Edge 50, Type (0, 1), BuildingBlock: KIFKEQ_clean_linker_1, # of connection points: 2
#     Edge 51, Type (0, 1), BuildingBlock: KIFKEQ_clean_linker_1, # of connection points: 2
#     Edge 52, Type (0, 1), BuildingBlock: KIFKEQ_clean_linker_1, # of connection points: 2
#     Edge 53, Type (0, 1), BuildingBlock: KIFKEQ_clean_linker_1, # of connection points: 2
#     Edge 54, Type (0, 1), BuildingBlock: KIFKEQ_clean_linker_1, # of connection points: 2
#     Edge 55, Type (0, 1), BuildingBlock: KIFKEQ_clean_linker_1, # of connection points: 2
#     Edge 56, Type (0, 1), BuildingBlock: KIFKEQ_clean_linker_1, # of connection points: 2
#     Edge 57, Type (0, 1), BuildingBlock: KIFKEQ_clean_linker_1, # of connection points: 2
#     Edge 58, Type (0, 1), BuildingBlock: KIFKEQ_clean_linker_1, # of connection points: 2
#     Edge 59, Type (0, 1), BuildingBlock: KIFKEQ_clean_linker_1, # of connection points: 2
#     Edge 60, Type (0, 1), BuildingBlock: KIFKEQ_clean_linker_1, # of connection points: 2
#     Edge 61, Type (0, 1), BuildingBlock: KIFKEQ_clean_linker_1, # of connection points: 2
#     Edge 62, Type (0, 1), BuildingBlock: KIFKEQ_clean_linker_1, # of connection points: 2
#     Edge 63, Type (0, 1), BuildingBlock: KIFKEQ_clean_linker_1, # of connection points: 2
#     Edge 64, Type (0, 1), BuildingBlock: KIFKEQ_clean_linker_1, # of connection points: 2
#     Edge 65, Type (0, 1), BuildingBlock: KIFKEQ_clean_linker_1, # of connection points: 2
#     Edge 66, Type (0, 1), BuildingBlock: KIFKEQ_clean_linker_1, # of connection points: 2
#     Edge 67, Type (0, 1), BuildingBlock: KIFKEQ_clean_linker_1, # of connection points: 2
#     Edge 68, Type (0, 1), BuildingBlock: KIFKEQ_clean_linker_1, # of connection points: 2
#     Edge 69, Type (0, 1), BuildingBlock: KIFKEQ_clean_linker_1, # of connection points: 2
#     Edge 70, Type (0, 1), BuildingBlock: KIFKEQ_clean_linker_1, # of connection points: 2
#     Edge 71, Type (0, 1), BuildingBlock: KIFKEQ_clean_linker_1, # of connection points: 2
#     Edge 72, Type (0, 1), BuildingBlock: KIFKEQ_clean_linker_1, # of connection points: 2
#     Edge 73, Type (0, 1), BuildingBlock: KIFKEQ_clean_linker_1, # of connection points: 2
#     Edge 74, Type (0, 1), BuildingBlock: KIFKEQ_clean_linker_1, # of connection points: 2
#     Edge 75, Type (0, 1), BuildingBlock: KIFKEQ_clean_linker_1, # of connection points: 2
#     Edge 76, Type (0, 1), BuildingBlock: KIFKEQ_clean_linker_1, # of connection points: 2
#     Edge 77, Type (0, 1), BuildingBlock: KIFKEQ_clean_linker_1, # of connection points: 2
#     Edge 78, Type (0, 1), BuildingBlock: KIFKEQ_clean_linker_1, # of connection points: 2
#     Edge 79, Type (0, 1), BuildingBlock: KIFKEQ_clean_linker_1, # of connection points: 2
#     Edge 80, Type (0, 1), BuildingBlock: KIFKEQ_clean_linker_1, # of connection points: 2
#     Edge 81, Type (0, 1), BuildingBlock: KIFKEQ_clean_linker_1, # of connection points: 2
#     Edge 82, Type (0, 1), BuildingBlock: KIFKEQ_clean_linker_1, # of connection points: 2
#     Edge 83, Type (0, 1), BuildingBlock: KIFKEQ_clean_linker_1, # of connection points: 2
#     Edge 84, Type (0, 1), BuildingBlock: KIFKEQ_clean_linker_1, # of connection points: 2
#     Edge 85, Type (0, 1), BuildingBlock: KIFKEQ_clean_linker_1, # of connection points: 2
#     Edge 86, Type (0, 1), BuildingBlock: KIFKEQ_clean_linker_1, # of connection points: 2
#     Edge 87, Type (0, 1), BuildingBlock: KIFKEQ_clean_linker_1, # of connection points: 2
#     Edge 88, Type (0, 1), BuildingBlock: KIFKEQ_clean_linker_1, # of connection points: 2
#     Edge 89, Type (0, 1), BuildingBlock: KIFKEQ_clean_linker_1, # of connection points: 2
#     Edge 90, Type (0, 1), BuildingBlock: KIFKEQ_clean_linker_1, # of connection points: 2
#     Edge 91, Type (0, 1), BuildingBlock: KIFKEQ_clean_linker_1, # of connection points: 2
#     Edge 92, Type (0, 1), BuildingBlock: KIFKEQ_clean_linker_1, # of connection points: 2
#     Edge 93, Type (0, 1), BuildingBlock: KIFKEQ_clean_linker_1, # of connection points: 2
#     Edge 94, Type (0, 1), BuildingBlock: KIFKEQ_clean_linker_1, # of connection points: 2
#     Edge 95, Type (0, 1), BuildingBlock: KIFKEQ_clean_linker_1, # of connection points: 2
#     Edge 96, Type (0, 1), BuildingBlock: KIFKEQ_clean_linker_1, # of connection points: 2
#     Edge 97, Type (0, 1), BuildingBlock: KIFKEQ_clean_linker_1, # of connection points: 2
#     Edge 98, Type (0, 1), BuildingBlock: KIFKEQ_clean_linker_1, # of connection points: 2
#     Edge 99, Type (0, 1), BuildingBlock: KIFKEQ_clean_linker_1, # of connection points: 2
#     Edge 100, Type (0, 1), BuildingBlock: KIFKEQ_clean_linker_1, # of connection points: 2
#     Edge 101, Type (0, 1), BuildingBlock: KIFKEQ_clean_linker_1, # of connection points: 2
#     Edge 102, Type (0, 1), BuildingBlock: KIFKEQ_clean_linker_1, # of connection points: 2
#     Edge 103, Type (0, 1), BuildingBlock: KIFKEQ_clean_linker_1, # of connection points: 2
#     Edge 104, Type (0, 1), BuildingBlock: KIFKEQ_clean_linker_1, # of connection points: 2
#     Edge 105, Type (0, 1), BuildingBlock: KIFKEQ_clean_linker_1, # of connection points: 2
#     Edge 106, Type (0, 1), BuildingBlock: KIFKEQ_clean_linker_1, # of connection points: 2
#     Edge 107, Type (0, 1), BuildingBlock: KIFKEQ_clean_linker_1, # of connection points: 2
# Relax obj value: 0.032
# Max RMSD: 0.163
# Mean RMSD: 0.100
data_MOF--net-ptr--node1-GALJAG_clean_sbu_0--node2-AZAVOO_clean_linker_0--edge1-KIFKEQ_clean_linker_1
_symmetry_space_group_name_H-M    P1
_symmetry_Int_Tables_number       1
_symmetry_cell_setting            triclinic
loop_
_symmetry_equiv_pos_as_xyz
'x, y, z'
_cell_length_a     81.826992
_cell_length_b     80.309981
_cell_length_c     73.450363
_cell_angle_alpha  92.621147
_cell_angle_beta   92.383605
_cell_angle_gamma 120.19259
loop_
_atom_site_label
_atom_site_type_symbol
_atom_site_fract_x
_atom_site_fract_y
_atom_site_fract_z
_atom_type_partial_charge
In0 In 0.00693 0.36332 0.01625 0.0
O1 O 0.98816 0.36911 0.03465 0.0
O2 O 0.01741 0.39045 0.03493 0.0
C3 C 0.9828 0.32809 0.99985 0.0
C4 C 0.02974 0.35491 0.0364 0.0
C5 C 0.01239 0.3848 0.98762 0.0
O6 O 0.97829 0.33534 0.01297 0.0
O7 O 0.99946 0.33852 0.99521 0.0
O8 O 0.02598 0.38437 0.99603 0.0
O9 O 0.9964 0.37453 0.99373 0.0
C10 C 0.00155 0.38542 0.04113 0.0
O11 O 0.03513 0.36422 0.02232 0.0
O12 O 0.01302 0.34986 0.04003 0.0
In13 In 0.63131 0.6194 0.05652 0.0
O14 O 0.62733 0.597 0.0769 0.0
O15 O 0.60686 0.60586 0.07463 0.0
C16 C 0.66448 0.62905 0.0422 0.0
C17 C 0.64228 0.65347 0.07492 0.0
C18 C 0.60774 0.60264 0.0261 0.0
O19 O 0.65638 0.61473 0.05176 0.0
O20 O 0.65595 0.63832 0.04017 0.0
O21 O 0.60961 0.61761 0.0346 0.0
O22 O 0.61739 0.59603 0.03319 0.0
C23 C 0.61226 0.59558 0.08237 0.0
O24 O 0.63116 0.64757 0.0606 0.0
O25 O 0.64771 0.64209 0.07998 0.0
In26 In 0.38152 0.99599 0.01505 0.0
O27 O 0.38664 0.02648 0.01159 0.0
O28 O 0.36286 0.00248 0.99685 0.0
C29 C 0.40548 0.00165 0.04402 0.0
C30 C 0.39708 0.98923 0.98599 0.0
C31 C 0.34946 0.97281 0.03094 0.0
O32 O 0.40249 0.01482 0.03907 0.0
O33 O 0.3967 0.98594 0.03416 0.0
O34 O 0.35656 0.96605 0.01993 0.0
O35 O 0.35854 0.99096 0.03377 0.0
C36 C 0.37216 0.02051 0.00058 0.0
O37 O 0.37999 0.97806 0.98911 0.0
O38 O 0.40623 0.00343 0.99762 0.0
In39 In 0.99569 0.63693 0.0402 0.0
O40 O 0.01496 0.63054 0.02316 0.0
O41 O 0.98503 0.61277 0.01779 0.0
C42 C 0.01945 0.67174 0.05768 0.0
C43 C 0.97326 0.64624 0.02071 0.0
C44 C 0.98978 0.6136 0.06745 0.0
O45 O 0.02414 0.66513 0.0442 0.0
O46 O 0.00282 0.66085 0.06218 0.0
O47 O 0.97666 0.61592 0.06065 0.0
O48 O 0.0054 0.62286 0.06041 0.0
C49 C 0.0013 0.61644 0.01378 0.0
O50 O 0.96724 0.63526 0.03367 0.0
O51 O 0.99045 0.65253 0.01792 0.0
In52 In 0.36899 0.38002 0.00099 0.0
O53 O 0.37227 0.40126 0.97957 0.0
O54 O 0.39521 0.39655 0.98569 0.0
C55 C 0.33564 0.37012 0.01509 0.0
C56 C 0.35974 0.34704 0.98136 0.0
C57 C 0.39196 0.39542 0.03189 0.0
O58 O 0.3449 0.38577 0.00756 0.0
O59 O 0.34309 0.3597 0.01516 0.0
O60 O 0.38865 0.37967 0.02385 0.0
O61 O 0.38383 0.40335 0.02425 0.0
C62 C 0.38887 0.40519 0.97641 0.0
O63 O 0.37043 0.35266 0.99595 0.0
O64 O 0.35391 0.35819 0.97659 0.0
In65 In 0.61655 -0.0003 0.0403 0.0
O66 O 0.61504 0.01885 0.06371 0.0
O67 O 0.59602 0.9885 0.06243 0.0
C68 C 0.64692 0.02335 0.02242 0.0
C69 C 0.62895 0.97671 0.05276 0.0
C70 C 0.58967 0.99216 0.01351 0.0
O71 O 0.64305 0.02921 0.03703 0.0
O72 O 0.63558 0.00589 0.01716 0.0
O73 O 0.59423 0.97988 0.01769 0.0
O74 O 0.59823 0.00796 0.02324 0.0
C75 C 0.60179 0.00473 0.07086 0.0
O76 O 0.61368 0.97014 0.04281 0.0
O77 O 0.63787 0.99478 0.05634 0.0
In78 In 0.66947 0.69847 0.35012 0.0
O79 O 0.65139 0.69944 0.37264 0.0
O80 O 0.67493 0.72592 0.36619 0.0
C81 C 0.64437 0.66437 0.33226 0.0
C82 C 0.69332 0.69134 0.37029 0.0
C83 C 0.67687 0.71973 0.321 0.0
O84 O 0.63943 0.67392 0.34243 0.0
O85 O 0.66204 0.67198 0.33116 0.0
O86 O 0.68929 0.71697 0.32882 0.0
O87 O 0.66106 0.7118 0.32788 0.0
C88 C 0.66109 0.71754 0.37587 0.0
O89 O 0.69929 0.70562 0.36063 0.0
O90 O 0.67556 0.68076 0.36954 0.0
In91 In 0.29544 0.94962 0.38968 0.0
O92 O 0.29225 0.92732 0.40992 0.0
O93 O 0.27248 0.93717 0.40945 0.0
C94 C 0.32704 0.95838 0.37261 0.0
C95 C 0.30701 0.98443 0.40694 0.0
C96 C 0.26997 0.93114 0.36087 0.0
O97 O 0.32176 0.94693 0.38523 0.0
O98 O 0.31663 0.96539 0.36908 0.0
O99 O 0.27253 0.94669 0.3687 0.0
O100 O 0.27981 0.92471 0.36794 0.0
C101 C 0.27789 0.92658 0.41653 0.0
O102 O 0.29482 0.97758 0.39344 0.0
O103 O 0.31335 0.9737 0.41171 0.0
In104 In 0.05247 0.33085 0.34989 0.0
O105 O 0.05829 0.36159 0.34736 0.0
O106 O 0.03474 0.33849 0.33142 0.0
C107 C 0.07625 0.3355 0.3788 0.0
C108 C 0.06731 0.32369 0.32041 0.0
C109 C 0.01965 0.30925 0.36533 0.0
O110 O 0.07493 0.34941 0.37306 0.0
O111 O 0.066 0.31954 0.36966 0.0
O112 O 0.02594 0.30181 0.35408 0.0
O113 O 0.02986 0.3273 0.36857 0.0
C114 C 0.04436 0.35642 0.33584 0.0
O115 O 0.05163 0.31107 0.32575 0.0
O116 O 0.07547 0.33946 0.33015 0.0
In117 In 0.6626 0.96796 0.37459 0.0
O118 O 0.68235 0.96513 0.35512 0.0
O119 O 0.65343 0.94281 0.35347 0.0
C120 C 0.68735 0.00236 0.39224 0.0
C121 C 0.63819 0.97534 0.35577 0.0
C122 C 0.65686 0.94481 0.40201 0.0
O123 O 0.69157 0.99524 0.37881 0.0
O124 O 0.67056 0.99217 0.3967 0.0
O125 O 0.64477 0.94937 0.39693 0.0
O126 O 0.67158 0.95195 0.39333 0.0
C127 C 0.66955 0.94914 0.34745 0.0
O128 O 0.63262 0.96137 0.36579 0.0
O129 O 0.65593 0.98572 0.35565 0.0
In130 In 0.03555 0.71459 0.33617 0.0
O131 O 0.03851 0.73479 0.31378 0.0
O132 O 0.0617 0.7307 0.32052 0.0
C133 C 0.00245 0.70721 0.34954 0.0
C134 C 0.02638 0.68117 0.31742 0.0
C135 C 0.05853 0.72905 0.36722 0.0
O136 O 0.01388 0.72342 0.34396 0.0
O137 O 0.00753 0.69484 0.34799 0.0
O138 O 0.05364 0.71261 0.35968 0.0
O139 O 0.05196 0.73812 0.35902 0.0
C140 C 0.05511 0.73872 0.31067 0.0
O141 O 0.0368 0.68702 0.33219 0.0
O142 O 0.02065 0.69223 0.31211 0.0
In143 In 0.28415 0.33657 0.37514 0.0
O144 O 0.28206 0.30719 0.37561 0.0
O145 O 0.29926 0.32894 0.3968 0.0
C146 C 0.25989 0.32856 0.34561 0.0
C147 C 0.2677 0.34261 0.40386 0.0
C148 C 0.31736 0.36059 0.36119 0.0
O149 O 0.26265 0.31588 0.35224 0.0
O150 O 0.26911 0.34507 0.35403 0.0
O151 O 0.3075 0.3668 0.36842 0.0
O152 O 0.31055 0.34263 0.36122 0.0
C153 C 0.29304 0.31192 0.38994 0.0
O154 O 0.28406 0.35515 0.39982 0.0
O155 O 0.25966 0.32749 0.39318 0.0
In156 In 0.33854 0.03078 0.68233 0.0
O157 O 0.36874 0.03752 0.69016 0.0
O158 O 0.3459 0.01341 0.70112 0.0
C159 C 0.34404 0.054 0.65507 0.0
C160 C 0.33148 0.04953 0.70948 0.0
C161 C 0.31448 0.9961 0.66477 0.0
O162 O 0.3566 0.05032 0.66073 0.0
O163 O 0.32892 0.04597 0.66313 0.0
O164 O 0.3107 0.00204 0.67934 0.0
O165 O 0.33041 0.00763 0.65914 0.0
C166 C 0.36358 0.02378 0.7004 0.0
O167 O 0.31847 0.03414 0.70106 0.0
O168 O 0.34779 0.05529 0.70415 0.0
In169 In 0.96424 0.28149 0.72301 0.0
O170 O 0.96105 0.30812 0.72567 0.0
O171 O 0.97465 0.30283 0.74812 0.0
C172 C 0.94169 0.26591 0.69187 0.0
C173 C 0.94709 0.25483 0.74743 0.0
C174 C 0.99842 0.29325 0.70979 0.0
O175 O 0.94124 0.27867 0.7022 0.0
O176 O 0.9533 0.26092 0.6974 0.0
O177 O 0.98903 0.27702 0.71627 0.0
O178 O 0.99076 0.30347 0.7104 0.0
C179 C 0.96922 0.31364 0.74156 0.0
O180 O 0.96489 0.2643 0.74686 0.0
O181 O 0.93809 0.25857 0.73554 0.0
In182 In 0.71737 0.66286 0.6824 0.0
O183 O 0.72324 0.69329 0.67729 0.0
O184 O 0.69832 0.66904 0.66435 0.0
C185 C 0.74241 0.67125 0.71124 0.0
C186 C 0.73133 0.65425 0.65309 0.0
C187 C 0.68582 0.63998 0.69923 0.0
O188 O 0.73702 0.68278 0.70658 0.0
O189 O 0.73549 0.65574 0.70114 0.0
O190 O 0.69341 0.63296 0.68917 0.0
O191 O 0.69419 0.65816 0.70067 0.0
C192 C 0.70826 0.68717 0.667 0.0
O193 O 0.71441 0.64357 0.65702 0.0
O194 O 0.74115 0.6689 0.66409 0.0
In195 In 0.33226 0.30161 0.70581 0.0
O196 O 0.35196 0.29963 0.68588 0.0
O197 O 0.32439 0.27513 0.68671 0.0
C198 C 0.35678 0.33607 0.72366 0.0
C199 C 0.3092 0.30942 0.68527 0.0
C200 C 0.32483 0.27874 0.73381 0.0
O201 O 0.36208 0.32631 0.71432 0.0
O202 O 0.33905 0.3286 0.72383 0.0
O203 O 0.31222 0.28127 0.72612 0.0
O204 O 0.34079 0.28765 0.72735 0.0
C205 C 0.34016 0.28255 0.67972 0.0
O206 O 0.30344 0.29873 0.69843 0.0
O207 O 0.32649 0.31617 0.68269 0.0
In208 In 0.70653 0.04808 0.66969 0.0
O209 O 0.71002 0.06972 0.64861 0.0
O210 O 0.73145 0.06232 0.65226 0.0
C211 C 0.67507 0.04093 0.68633 0.0
C212 C 0.69438 0.0138 0.65093 0.0
C213 C 0.73181 0.06379 0.69899 0.0
O214 O 0.68239 0.05406 0.67537 0.0
O215 O 0.68348 0.03157 0.68852 0.0
O216 O 0.72714 0.04752 0.69116 0.0
O217 O 0.72395 0.07225 0.69185 0.0
C218 C 0.72563 0.07192 0.64386 0.0
O219 O 0.70622 0.01976 0.66467 0.0
O220 O 0.6887 0.02517 0.6466 0.0
In221 In 0.94635 0.66714 0.70675 0.0
O222 O 0.94074 0.6368 0.71124 0.0
O223 O 0.96665 0.66078 0.72285 0.0
C224 C 0.92058 0.65972 0.67887 0.0
C225 C 0.93186 0.67433 0.73651 0.0
C226 C 0.97735 0.6898 0.68917 0.0
O227 O 0.92469 0.64733 0.68381 0.0
O228 O 0.92914 0.67572 0.6883 0.0
O229 O 0.97286 0.69638 0.70287 0.0
O230 O 0.96628 0.67209 0.68463 0.0
C231 C 0.95623 0.64267 0.72054 0.0
O232 O 0.9473 0.6871 0.73087 0.0
O233 O 0.92385 0.65845 0.72697 0.0
H234 H 0.15245 0.35064 0.0388 0.0
H235 H 0.27129 0.30402 0.18153 0.0
H236 H 0.15057 0.34983 0.14957 0.0
H237 H 0.1262 0.35385 0.13337 0.0
H238 H 0.10243 0.29666 0.1064 0.0
H239 H 0.12675 0.29268 0.12285 0.0
H240 H 0.17213 0.35433 0.11692 0.0
H241 H 0.165 0.35831 0.08528 0.0
H242 H 0.15451 0.30106 0.06931 0.0
H243 H 0.16142 0.29718 0.10108 0.0
H244 H 0.2106 0.35743 0.12317 0.0
H245 H 0.23446 0.36511 0.10097 0.0
H246 H 0.22078 0.30555 0.0971 0.0
H247 H 0.19694 0.29803 0.11935 0.0
H248 H 0.22474 0.3511 0.16619 0.0
H249 H 0.25397 0.35169 0.17624 0.0
H250 H 0.22536 0.28959 0.16559 0.0
H251 H 0.19626 0.28926 0.15562 0.0
H252 H 0.19332 0.34659 0.19431 0.0
H253 H 0.20262 0.34496 0.22597 0.0
H254 H 0.18183 0.28394 0.21525 0.0
H255 H 0.17243 0.28573 0.18353 0.0
H256 H 0.16259 0.34797 0.18216 0.0
H257 H 0.14341 0.3464 0.2073 0.0
H258 H 0.1115 0.28408 0.19838 0.0
H259 H 0.13128 0.2859 0.17343 0.0
O260 O 0.15532 0.3488 0.05121 0.0
O261 O 0.15039 0.31941 0.04365 0.0
O262 O 0.27395 0.3361 0.18307 0.0
O263 O 0.25996 0.30422 0.17761 0.0
C264 C 0.15757 0.32044 0.14356 0.0
C265 C 0.17076 0.32274 0.13062 0.0
C266 C 0.18748 0.32272 0.13607 0.0
C267 C 0.19079 0.31984 0.15433 0.0
C268 C 0.17774 0.31773 0.1673 0.0
C269 C 0.16122 0.31824 0.16198 0.0
C270 C 0.14031 0.3209 0.13751 0.0
C271 C 0.13963 0.33787 0.14077 0.0
C272 C 0.12579 0.3402 0.13138 0.0
C273 C 0.11257 0.32565 0.11847 0.0
C274 C 0.1126 0.30819 0.1161 0.0
C275 C 0.12632 0.30581 0.12562 0.0
C276 C 0.16717 0.32543 0.11128 0.0
C277 C 0.16824 0.34266 0.10657 0.0
C278 C 0.1642 0.3449 0.08848 0.0
C279 C 0.15914 0.32998 0.07477 0.0
C280 C 0.15833 0.31282 0.07954 0.0
C281 C 0.16232 0.31058 0.09764 0.0
C282 C 0.20215 0.32721 0.12291 0.0
C283 C 0.21279 0.34606 0.11751 0.0
C284 C 0.2263 0.35039 0.10476 0.0
C285 C 0.22947 0.33593 0.09727 0.0
C286 C 0.2188 0.31703 0.10278 0.0
C287 C 0.2052 0.3127 0.11547 0.0
C288 C 0.20849 0.32015 0.16017 0.0
C289 C 0.22487 0.33767 0.16602 0.0
C290 C 0.24151 0.33795 0.17176 0.0
C291 C 0.242 0.32068 0.17171 0.0
C292 C 0.22548 0.30315 0.16579 0.0
C293 C 0.20886 0.3029 0.16008 0.0
C294 C 0.18212 0.31626 0.18673 0.0
C295 C 0.1905 0.33282 0.19891 0.0
C296 C 0.19576 0.33184 0.21697 0.0
C297 C 0.1929 0.3143 0.2231 0.0
C298 C 0.18429 0.29766 0.21088 0.0
C299 C 0.17887 0.29863 0.19283 0.0
C300 C 0.14818 0.31708 0.17591 0.0
C301 C 0.15127 0.33401 0.18548 0.0
C302 C 0.14023 0.33305 0.19981 0.0
C303 C 0.12581 0.31509 0.20485 0.0
C304 C 0.12257 0.29812 0.19498 0.0
C305 C 0.13371 0.29912 0.18063 0.0
C306 C 0.15468 0.33234 0.05559 0.0
C307 C 0.25963 0.32088 0.17782 0.0
H308 H 0.66261 0.80262 0.05112 0.0
H309 H 0.69891 0.9654 0.20525 0.0
H310 H 0.66012 0.80072 0.16552 0.0
H311 H 0.65559 0.76981 0.1532 0.0
H312 H 0.71025 0.79953 0.13072 0.0
H313 H 0.7149 0.83053 0.14353 0.0
H314 H 0.65782 0.8164 0.12906 0.0
H315 H 0.65461 0.80588 0.09668 0.0
H316 H 0.70989 0.85502 0.08983 0.0
H317 H 0.71302 0.86525 0.12232 0.0
H318 H 0.65417 0.8509 0.13264 0.0
H319 H 0.64499 0.86818 0.11193 0.0
H320 H 0.70043 0.91917 0.12296 0.0
H321 H 0.70981 0.90131 0.14286 0.0
H322 H 0.65717 0.8729 0.17328 0.0
H323 H 0.65468 0.90098 0.1834 0.0
H324 H 0.71569 0.93486 0.1933 0.0
H325 H 0.71794 0.90668 0.18306 0.0
H326 H 0.65947 0.84709 0.20381 0.0
H327 H 0.65701 0.85986 0.23369 0.0
H328 H 0.71785 0.89792 0.23914 0.0
H329 H 0.72017 0.88422 0.20948 0.0
H330 H 0.66171 0.81705 0.19853 0.0
H331 H 0.66203 0.79566 0.22095 0.0
H332 H 0.72173 0.81823 0.21507 0.0
H333 H 0.72128 0.83985 0.19265 0.0
O334 O 0.66421 0.80704 0.06392 0.0
O335 O 0.69265 0.83258 0.06108 0.0
O336 O 0.66817 0.93608 0.19575 0.0
O337 O 0.69948 0.95412 0.20106 0.0
C338 C 0.68945 0.83657 0.16125 0.0
C339 C 0.68776 0.84777 0.14777 0.0
C340 C 0.68734 0.86467 0.15305 0.0
C341 C 0.68911 0.87063 0.17176 0.0
C342 C 0.69074 0.85943 0.1852 0.0
C343 C 0.69087 0.84239 0.17999 0.0
C344 C 0.68795 0.81784 0.15564 0.0
C345 C 0.6714 0.80053 0.15846 0.0
C346 C 0.66879 0.7829 0.15135 0.0
C347 C 0.68258 0.7823 0.14103 0.0
C348 C 0.69937 0.79962 0.13857 0.0
C349 C 0.70208 0.81727 0.14592 0.0
C350 C 0.68574 0.84148 0.12806 0.0
C351 C 0.66928 0.82479 0.12057 0.0
C352 C 0.66745 0.81885 0.10206 0.0
C353 C 0.68201 0.82958 0.09067 0.0
C354 C 0.69843 0.8464 0.09822 0.0
C355 C 0.70025 0.8523 0.11676 0.0
C356 C 0.68267 0.87484 0.1392 0.0
C357 C 0.66447 0.86567 0.13024 0.0
C358 C 0.65917 0.87566 0.1186 0.0
C359 C 0.67188 0.89515 0.11592 0.0
C360 C 0.69033 0.90413 0.12454 0.0
C361 C 0.6957 0.89401 0.13602 0.0
C362 C 0.68772 0.88783 0.17743 0.0
C363 C 0.66996 0.88644 0.17756 0.0
C364 C 0.66859 0.90247 0.18338 0.0
C365 C 0.685 0.92017 0.18918 0.0
C366 C 0.70279 0.92147 0.18894 0.0
C367 C 0.70412 0.90542 0.1831 0.0
C368 C 0.69 0.86461 0.20462 0.0
C369 C 0.67231 0.8577 0.21176 0.0
C370 C 0.67093 0.86525 0.2287 0.0
C371 C 0.68721 0.88017 0.23867 0.0
C372 C 0.70506 0.88636 0.23188 0.0
C373 C 0.70643 0.87858 0.21497 0.0
C374 C 0.69149 0.83008 0.19411 0.0
C375 C 0.6749 0.81753 0.20223 0.0
C376 C 0.67507 0.80518 0.21487 0.0
C377 C 0.69189 0.80518 0.21966 0.0
C378 C 0.7086 0.818 0.2117 0.0
C379 C 0.70837 0.83029 0.19891 0.0
C380 C 0.68002 0.82323 0.071 0.0
C381 C 0.68363 0.93721 0.19551 0.0
H382 H 0.14956 0.84007 0.0383 0.0
H383 H 0.3042 0.94943 0.19038 0.0
H384 H 0.13527 0.84459 0.13255 0.0
H385 H 0.10712 0.81565 0.1181 0.0
H386 H 0.12536 0.77978 0.14378 0.0
H387 H 0.15353 0.80868 0.15786 0.0
H388 H 0.17199 0.87574 0.11314 0.0
H389 H 0.16266 0.86575 0.08061 0.0
H390 H 0.16249 0.81263 0.08855 0.0
H391 H 0.17207 0.82292 0.12098 0.0
H392 H 0.21209 0.90848 0.13464 0.0
H393 H 0.23652 0.92393 0.11308 0.0
H394 H 0.23623 0.87034 0.10258 0.0
H395 H 0.21245 0.85536 0.12474 0.0
H396 H 0.2107 0.91305 0.17832 0.0
H397 H 0.24225 0.93997 0.1887 0.0
H398 H 0.26673 0.90515 0.17293 0.0
H399 H 0.23508 0.87829 0.16279 0.0
H400 H 0.17867 0.88692 0.20117 0.0
H401 H 0.19041 0.89694 0.23334 0.0
H402 H 0.22317 0.86843 0.22857 0.0
H403 H 0.21202 0.85936 0.19638 0.0
H404 H 0.13692 0.8493 0.17906 0.0
H405 H 0.11521 0.82989 0.20162 0.0
H406 H 0.15322 0.80937 0.21695 0.0
H407 H 0.17434 0.82819 0.19403 0.0
O408 O 0.15337 0.84379 0.05118 0.0
O409 O 0.15338 0.81666 0.05601 0.0
O410 O 0.27826 0.95628 0.19433 0.0
O411 O 0.29156 0.93901 0.1864 0.0
C412 C 0.16498 0.84604 0.15234 0.0
C413 C 0.17798 0.85605 0.13921 0.0
C414 C 0.19629 0.87158 0.14489 0.0
C415 C 0.20143 0.87744 0.16367 0.0
C416 C 0.18849 0.86739 0.17678 0.0
C417 C 0.1703 0.85162 0.17115 0.0
C418 C 0.14642 0.82872 0.14626 0.0
C419 C 0.13297 0.83045 0.1353 0.0
C420 C 0.117 0.81397 0.12701 0.0
C421 C 0.11414 0.7955 0.12976 0.0
C422 C 0.1271 0.79381 0.14156 0.0
C423 C 0.14317 0.81029 0.14966 0.0
C424 C 0.17259 0.85001 0.11942 0.0
C425 C 0.16999 0.86199 0.10779 0.0
C426 C 0.16463 0.85623 0.08924 0.0
C427 C 0.16177 0.83836 0.08199 0.0
C428 C 0.16452 0.82646 0.09369 0.0
C429 C 0.16995 0.83227 0.11223 0.0
C430 C 0.2105 0.88082 0.13123 0.0
C431 C 0.21734 0.90013 0.12766 0.0
C432 C 0.23117 0.90885 0.11523 0.0
C433 C 0.23834 0.89836 0.10606 0.0
C434 C 0.23123 0.87892 0.10955 0.0
C435 C 0.21751 0.87027 0.12207 0.0
C436 C 0.22064 0.89378 0.16975 0.0
C437 C 0.2229 0.91128 0.17715 0.0
C438 C 0.24093 0.92663 0.18304 0.0
C439 C 0.25702 0.92472 0.18161 0.0
C440 C 0.25466 0.90712 0.17419 0.0
C441 C 0.23661 0.89177 0.16835 0.0
C442 C 0.19463 0.87256 0.1965 0.0
C443 C 0.18836 0.88287 0.20717 0.0
C444 C 0.195 0.88846 0.22556 0.0
C445 C 0.20789 0.88364 0.23356 0.0
C446 C 0.21365 0.87281 0.22281 0.0
C447 C 0.20719 0.86747 0.20445 0.0
C448 C 0.15725 0.84025 0.18502 0.0
C449 C 0.14048 0.84058 0.18731 0.0
C450 C 0.12818 0.82958 0.20026 0.0
C451 C 0.13245 0.81803 0.21106 0.0
C452 C 0.14934 0.81785 0.20869 0.0
C453 C 0.16155 0.82877 0.19575 0.0
C454 C 0.15593 0.83222 0.0623 0.0
C455 C 0.27621 0.94099 0.18785 0.0
H456 H 0.30896 0.17386 0.00896 0.0
H457 H 0.33794 0.05248 0.8642 0.0
H458 H 0.28839 0.17057 0.91285 0.0
H459 H 0.29294 0.20168 0.92512 0.0
H460 H 0.34731 0.23118 0.90204 0.0
H461 H 0.34284 0.20014 0.8902 0.0
H462 H 0.28999 0.13668 0.9347 0.0
H463 H 0.2928 0.14773 0.9669 0.0
H464 H 0.34828 0.19647 0.95983 0.0
H465 H 0.34538 0.18512 0.92773 0.0
H466 H 0.2922 0.10023 0.91467 0.0
H467 H 0.30061 0.08125 0.93411 0.0
H468 H 0.35698 0.13058 0.9454 0.0
H469 H 0.34857 0.14935 0.92574 0.0
H470 H 0.28582 0.09458 0.8731 0.0
H471 H 0.28795 0.06595 0.86445 0.0
H472 H 0.34836 0.09855 0.87891 0.0
H473 H 0.34603 0.1271 0.88731 0.0
H474 H 0.28321 0.11814 0.84729 0.0
H475 H 0.28484 0.1036 0.81779 0.0
H476 H 0.34607 0.1369 0.82473 0.0
H477 H 0.34421 0.15062 0.85437 0.0
H478 H 0.2826 0.16177 0.86486 0.0
H479 H 0.28213 0.18271 0.84168 0.0
H480 H 0.34087 0.20223 0.83347 0.0
H481 H 0.34125 0.18157 0.85668 0.0
O482 O 0.30818 0.1697 0.99622 0.0
O483 O 0.33659 0.19457 0.99184 0.0
O484 O 0.30562 0.0475 0.86011 0.0
O485 O 0.3367 0.06358 0.86747 0.0
C486 C 0.31388 0.16436 0.89543 0.0
C487 C 0.31551 0.15348 0.9093 0.0
C488 C 0.31591 0.13647 0.90452 0.0
C489 C 0.31443 0.13021 0.88594 0.0
C490 C 0.31288 0.1411 0.87213 0.0
C491 C 0.31258 0.15816 0.87683 0.0
C492 C 0.31522 0.18312 0.90053 0.0
C493 C 0.30111 0.18379 0.9102 0.0
C494 C 0.30377 0.20151 0.91725 0.0
C495 C 0.32048 0.21881 0.91452 0.0
C496 C 0.33418 0.21811 0.90413 0.0
C497 C 0.33162 0.2004 0.89731 0.0
C498 C 0.31741 0.16017 0.92887 0.0
C499 C 0.30275 0.14971 0.94016 0.0
C500 C 0.30438 0.15608 0.95853 0.0
C501 C 0.32074 0.17302 0.96593 0.0
C502 C 0.33547 0.18339 0.95456 0.0
C503 C 0.33383 0.17698 0.93622 0.0
C504 C 0.31978 0.12613 0.91877 0.0
C505 C 0.30624 0.10701 0.92161 0.0
C506 C 0.31109 0.0962 0.93263 0.0
C507 C 0.32949 0.10443 0.94113 0.0
C508 C 0.34267 0.12394 0.93913 0.0
C509 C 0.33787 0.13467 0.92794 0.0
C510 C 0.31576 0.11285 0.88082 0.0
C511 C 0.29949 0.09549 0.87433 0.0
C512 C 0.30075 0.07918 0.86944 0.0
C513 C 0.31834 0.07997 0.871 0.0
C514 C 0.33461 0.09744 0.87754 0.0
C515 C 0.33333 0.11375 0.88238 0.0
C516 C 0.31359 0.13543 0.85285 0.0
C517 C 0.29692 0.12256 0.84217 0.0
C518 C 0.2979 0.11429 0.82536 0.0
C519 C 0.3156 0.11888 0.81905 0.0
C520 C 0.33223 0.13273 0.82938 0.0
C521 C 0.33122 0.1408 0.84618 0.0
C522 C 0.31192 0.17008 0.86231 0.0
C523 C 0.29529 0.17051 0.85793 0.0
C524 C 0.29504 0.18241 0.8447 0.0
C525 C 0.31149 0.19417 0.83584 0.0
C526 C 0.32805 0.19353 0.84022 0.0
C527 C 0.32824 0.18159 0.85332 0.0
C528 C 0.32239 0.1798 0.98542 0.0
C529 C 0.31975 0.06267 0.86585 0.0
H530 H 0.82533 0.18644 0.01339 0.0
H531 H 0.71319 0.02467 0.86546 0.0
H532 H 0.83927 0.19012 0.91177 0.0
H533 H 0.86729 0.21924 0.92602 0.0
H534 H 0.89634 0.18719 0.93203 0.0
H535 H 0.86834 0.15813 0.9172 0.0
H536 H 0.80445 0.16311 0.93539 0.0
H537 H 0.8096 0.175 0.9676 0.0
H538 H 0.84785 0.15332 0.97685 0.0
H539 H 0.84242 0.14134 0.94465 0.0
H540 H 0.76959 0.12822 0.91042 0.0
H541 H 0.74367 0.11265 0.93043 0.0
H542 H 0.77497 0.09109 0.96018 0.0
H543 H 0.80089 0.10675 0.94003 0.0
H544 H 0.7718 0.12017 0.87007 0.0
H545 H 0.74197 0.0916 0.85818 0.0
H546 H 0.75702 0.05553 0.88818 0.0
H547 H 0.78689 0.08419 0.89979 0.0
H548 H 0.8086 0.15064 0.85381 0.0
H549 H 0.79943 0.13977 0.8215 0.0
H550 H 0.80185 0.08825 0.83085 0.0
H551 H 0.81074 0.09918 0.86331 0.0
H552 H 0.84361 0.18426 0.87688 0.0
H553 H 0.86662 0.20129 0.85453 0.0
H554 H 0.87451 0.15231 0.84591 0.0
H555 H 0.8519 0.13557 0.86883 0.0
O556 O 0.82345 0.18156 0.00071 0.0
O557 O 0.84306 0.17022 0.00472 0.0
O558 O 0.71784 0.05538 0.85475 0.0
O559 O 0.72488 0.0362 0.86995 0.0
C560 C 0.83435 0.15435 0.9062 0.0
C561 C 0.82003 0.14432 0.91817 0.0
C562 C 0.80266 0.12802 0.91142 0.0
C563 C 0.79974 0.12152 0.89273 0.0
C564 C 0.81407 0.1316 0.88073 0.0
C565 C 0.83143 0.14803 0.88747 0.0
C566 C 0.85193 0.17216 0.91332 0.0
C567 C 0.85183 0.18951 0.91584 0.0
C568 C 0.86777 0.20606 0.92395 0.0
C569 C 0.88389 0.20536 0.93005 0.0
C570 C 0.88403 0.188 0.92742 0.0
C571 C 0.86817 0.17151 0.91891 0.0
C572 C 0.82306 0.15137 0.93774 0.0
C573 C 0.81388 0.16089 0.94443 0.0
C574 C 0.81687 0.1677 0.96282 0.0
C575 C 0.82915 0.16512 0.97481 0.0
C576 C 0.83832 0.15555 0.968 0.0
C577 C 0.83527 0.14872 0.94962 0.0
C578 C 0.78704 0.11849 0.9237 0.0
C579 C 0.7708 0.12006 0.92122 0.0
C580 C 0.75602 0.11116 0.93265 0.0
C581 C 0.75726 0.10061 0.94686 0.0
C582 C 0.7737 0.09929 0.94948 0.0
C583 C 0.78845 0.10812 0.93795 0.0
C584 C 0.78153 0.10422 0.88569 0.0
C585 C 0.76866 0.10607 0.87398 0.0
C586 C 0.75162 0.08974 0.86725 0.0
C587 C 0.74712 0.07127 0.87221 0.0
C588 C 0.76004 0.06952 0.88407 0.0
C589 C 0.77709 0.08586 0.89074 0.0
C590 C 0.81029 0.12568 0.86087 0.0
C591 C 0.80742 0.13715 0.8488 0.0
C592 C 0.80226 0.13094 0.83033 0.0
C593 C 0.79987 0.11311 0.82358 0.0
C594 C 0.80332 0.10192 0.83566 0.0
C595 C 0.80849 0.10816 0.85416 0.0
C596 C 0.84629 0.15879 0.87473 0.0
C597 C 0.85068 0.17741 0.87057 0.0
C598 C 0.86375 0.18707 0.85773 0.0
C599 C 0.87238 0.17813 0.84855 0.0
C600 C 0.86802 0.1595 0.85277 0.0
C601 C 0.85518 0.14997 0.86586 0.0
C602 C 0.83235 0.17242 0.99432 0.0
C603 C 0.72906 0.05386 0.86508 0.0
H604 H 0.861 0.68729 0.02825 0.0
H605 H 0.71017 0.65733 0.88178 0.0
H606 H 0.87436 0.70706 0.9353 0.0
H607 H 0.89937 0.70392 0.95143 0.0
H608 H 0.87791 0.64774 0.92304 0.0
H609 H 0.85277 0.65085 0.90719 0.0
H610 H 0.83964 0.7027 0.95669 0.0
H611 H 0.84896 0.70134 0.98843 0.0
H612 H 0.843 0.64555 0.97446 0.0
H613 H 0.83339 0.64696 0.94285 0.0
H614 H 0.80097 0.69821 0.93716 0.0
H615 H 0.77726 0.69047 0.95953 0.0
H616 H 0.7717 0.63425 0.96305 0.0
H617 H 0.7947 0.64183 0.9401 0.0
H618 H 0.80471 0.70586 0.89313 0.0
H619 H 0.77515 0.70512 0.88438 0.0
H620 H 0.74332 0.64509 0.89614 0.0
H621 H 0.77299 0.64598 0.90465 0.0
H622 H 0.83899 0.70783 0.86866 0.0
H623 H 0.82974 0.70813 0.83662 0.0
H624 H 0.78176 0.65038 0.83849 0.0
H625 H 0.79194 0.6498 0.86994 0.0
H626 H 0.87359 0.70939 0.88914 0.0
H627 H 0.8929 0.71067 0.8639 0.0
H628 H 0.85075 0.65188 0.84537 0.0
H629 H 0.83185 0.65067 0.87068 0.0
O630 O 0.85704 0.68742 0.01568 0.0
O631 O 0.85403 0.6589 0.00772 0.0
O632 O 0.7391 0.68887 0.87923 0.0
O633 O 0.72207 0.65802 0.88514 0.0
C634 C 0.84382 0.67868 0.9146 0.0
C635 C 0.83105 0.67628 0.92805 0.0
C636 C 0.81355 0.67491 0.92308 0.0
C637 C 0.80901 0.67656 0.90473 0.0
C638 C 0.82159 0.67857 0.89119 0.0
C639 C 0.83892 0.6794 0.89611 0.0
C640 C 0.86172 0.67915 0.92013 0.0
C641 C 0.87543 0.69434 0.93215 0.0
C642 C 0.88955 0.69245 0.94147 0.0
C643 C 0.89037 0.67546 0.93867 0.0
C644 C 0.87764 0.661 0.92542 0.0
C645 C 0.86335 0.66281 0.91626 0.0
C646 C 0.83595 0.67499 0.94747 0.0
C647 C 0.84023 0.69015 0.96056 0.0
C648 C 0.84561 0.68935 0.97866 0.0
C649 C 0.84681 0.67337 0.98397 0.0
C650 C 0.84227 0.65809 0.97082 0.0
C651 C 0.83682 0.65887 0.95275 0.0
C652 C 0.79953 0.67058 0.937 0.0
C653 C 0.79455 0.68422 0.94274 0.0
C654 C 0.78114 0.67982 0.95565 0.0
C655 C 0.77256 0.66172 0.96313 0.0
C656 C 0.77779 0.6482 0.95741 0.0
C657 C 0.79106 0.65256 0.94442 0.0
C658 C 0.79098 0.67601 0.89961 0.0
C659 C 0.79133 0.69257 0.89379 0.0
C660 C 0.77443 0.6921 0.88882 0.0
C661 C 0.75686 0.67504 0.8896 0.0
C662 C 0.75659 0.65847 0.89542 0.0
C663 C 0.7735 0.65895 0.90035 0.0
C664 C 0.8161 0.67883 0.87167 0.0
C665 C 0.82662 0.69519 0.86202 0.0
C666 C 0.82118 0.69538 0.84376 0.0
C667 C 0.80494 0.67929 0.83487 0.0
C668 C 0.79452 0.66292 0.84467 0.0
C669 C 0.80016 0.66264 0.86278 0.0
C670 C 0.85134 0.67994 0.8817 0.0
C671 C 0.8687 0.69675 0.87972 0.0
C672 C 0.87961 0.6975 0.86524 0.0
C673 C 0.87337 0.68137 0.85264 0.0
C674 C 0.85611 0.66446 0.85496 0.0
C675 C 0.84524 0.66376 0.86935 0.0
C676 C 0.85282 0.67271 0.00315 0.0
C677 C 0.73886 0.67447 0.88433 0.0
H678 H 0.83162 0.69223 0.36917 0.0
H679 H 0.93879 0.64323 0.50975 0.0
H680 H 0.82618 0.69335 0.4692 0.0
H681 H 0.80186 0.69783 0.45393 0.0
H682 H 0.76161 0.63677 0.45519 0.0
H683 H 0.78655 0.63238 0.46985 0.0
H684 H 0.85528 0.69529 0.44611 0.0
H685 H 0.84947 0.69972 0.41423 0.0
H686 H 0.80584 0.63944 0.40621 0.0
H687 H 0.81197 0.63518 0.43807 0.0
H688 H 0.88599 0.69636 0.46727 0.0
H689 H 0.90994 0.705 0.44517 0.0
H690 H 0.87975 0.64609 0.42106 0.0
H691 H 0.85532 0.63799 0.44269 0.0
H692 H 0.88679 0.68597 0.50989 0.0
H693 H 0.9156 0.68592 0.52021 0.0
H694 H 0.89526 0.63138 0.48876 0.0
H695 H 0.86645 0.63155 0.47871 0.0
H696 H 0.85121 0.68087 0.52962 0.0
H697 H 0.85969 0.67815 0.5612 0.0
H698 H 0.85191 0.62188 0.54571 0.0
H699 H 0.84371 0.62491 0.51406 0.0
H700 H 0.81646 0.68145 0.50808 0.0
H701 H 0.79616 0.6772 0.53317 0.0
H702 H 0.78558 0.61918 0.53705 0.0
H703 H 0.80531 0.62322 0.51152 0.0
O704 O 0.83375 0.69014 0.38172 0.0
O705 O 0.81137 0.65908 0.37835 0.0
O706 O 0.93737 0.67167 0.52181 0.0
O707 O 0.92756 0.64365 0.50586 0.0
C708 C 0.82409 0.65975 0.47638 0.0
C709 C 0.83752 0.66218 0.4637 0.0
C710 C 0.85406 0.66193 0.46939 0.0
C711 C 0.85695 0.65865 0.48761 0.0
C712 C 0.84325 0.65558 0.50019 0.0
C713 C 0.82668 0.65599 0.49456 0.0
C714 C 0.80812 0.66255 0.47054 0.0
C715 C 0.812 0.68101 0.46647 0.0
C716 C 0.79801 0.68353 0.45781 0.0
C717 C 0.77974 0.66764 0.45319 0.0
C718 C 0.77561 0.64927 0.45826 0.0
C719 C 0.78973 0.64674 0.46683 0.0
C720 C 0.83416 0.66488 0.44431 0.0
C721 C 0.8446 0.68303 0.43738 0.0
C722 C 0.84119 0.68553 0.4192 0.0
C723 C 0.82721 0.66992 0.40766 0.0
C724 C 0.81673 0.65176 0.41472 0.0
C725 C 0.8202 0.64927 0.43289 0.0
C726 C 0.86901 0.66658 0.45654 0.0
C727 C 0.88464 0.68535 0.45721 0.0
C728 C 0.89836 0.69021 0.44461 0.0
C729 C 0.89688 0.67626 0.43127 0.0
C730 C 0.88123 0.65732 0.43088 0.0
C731 C 0.86735 0.65257 0.44333 0.0
C732 C 0.87456 0.65875 0.4936 0.0
C733 C 0.88859 0.67403 0.50528 0.0
C734 C 0.90503 0.67396 0.51113 0.0
C735 C 0.90773 0.65863 0.50531 0.0
C736 C 0.89364 0.64341 0.4935 0.0
C737 C 0.87719 0.64348 0.4877 0.0
C738 C 0.84692 0.65312 0.51957 0.0
C739 C 0.85112 0.66787 0.53312 0.0
C740 C 0.85587 0.66623 0.55117 0.0
C741 C 0.85653 0.64981 0.55598 0.0
C742 C 0.8518 0.63483 0.54241 0.0
C743 C 0.84705 0.63648 0.52436 0.0
C744 C 0.81236 0.65264 0.50793 0.0
C745 C 0.8093 0.66762 0.51396 0.0
C746 C 0.79779 0.66521 0.52832 0.0
C747 C 0.78943 0.6479 0.53707 0.0
C748 C 0.79198 0.6327 0.5306 0.0
C749 C 0.80318 0.63498 0.51603 0.0
C750 C 0.82358 0.67264 0.38836 0.0
C751 C 0.92513 0.65845 0.51153 0.0
H752 H 0.31399 0.12959 0.38444 0.0
H753 H 0.37272 0.3032 0.52654 0.0
H754 H 0.32131 0.13092 0.49694 0.0
H755 H 0.31688 0.10005 0.48439 0.0
H756 H 0.37151 0.13013 0.46192 0.0
H757 H 0.37603 0.16099 0.47491 0.0
H758 H 0.31586 0.14903 0.46253 0.0
H759 H 0.30956 0.13678 0.43036 0.0
H760 H 0.36717 0.17905 0.42033 0.0
H761 H 0.3733 0.19103 0.45258 0.0
H762 H 0.31481 0.19047 0.47734 0.0
H763 H 0.30597 0.20885 0.45777 0.0
H764 H 0.36369 0.24115 0.44233 0.0
H765 H 0.37249 0.223 0.46259 0.0
H766 H 0.32527 0.20675 0.51832 0.0
H767 H 0.32664 0.23708 0.5278 0.0
H768 H 0.38331 0.26905 0.5097 0.0
H769 H 0.38179 0.23859 0.50047 0.0
H770 H 0.32669 0.17841 0.54033 0.0
H771 H 0.32842 0.19242 0.57104 0.0
H772 H 0.38785 0.23348 0.56716 0.0
H773 H 0.38601 0.21908 0.53637 0.0
H774 H 0.32376 0.14732 0.52937 0.0
H775 H 0.32455 0.1282 0.55397 0.0
H776 H 0.38472 0.15228 0.54985 0.0
H777 H 0.38377 0.17155 0.52515 0.0
O778 O 0.31678 0.13467 0.3971 0.0
O779 O 0.34652 0.1567 0.39266 0.0
O780 O 0.34268 0.27389 0.53212 0.0
O781 O 0.37179 0.29101 0.52291 0.0
C782 C 0.35072 0.16688 0.49278 0.0
C783 C 0.34886 0.17805 0.47939 0.0
C784 C 0.34955 0.19548 0.48472 0.0
C785 C 0.35272 0.20213 0.50333 0.0
C786 C 0.35436 0.19091 0.51674 0.0
C787 C 0.35314 0.17316 0.51149 0.0
C788 C 0.3491 0.14814 0.48705 0.0
C789 C 0.33256 0.13079 0.4898 0.0
C790 C 0.33002 0.11321 0.48256 0.0
C791 C 0.34385 0.11274 0.47219 0.0
C792 C 0.36059 0.13012 0.46978 0.0
C793 C 0.36323 0.14769 0.47725 0.0
C794 C 0.34501 0.1709 0.45982 0.0
C795 C 0.32708 0.1556 0.45334 0.0
C796 C 0.32353 0.14865 0.43497 0.0
C797 C 0.33786 0.15694 0.42277 0.0
C798 C 0.35581 0.17235 0.42935 0.0
C799 C 0.35934 0.17926 0.44774 0.0
C800 C 0.34424 0.20541 0.47127 0.0
C801 C 0.32546 0.20136 0.46953 0.0
C802 C 0.32044 0.21181 0.45825 0.0
C803 C 0.33411 0.22647 0.44843 0.0
C804 C 0.35287 0.2301 0.44985 0.0
C805 C 0.3579 0.21968 0.46126 0.0
C806 C 0.35347 0.22053 0.50883 0.0
C807 C 0.33798 0.22033 0.51649 0.0
C808 C 0.33879 0.23767 0.52186 0.0
C809 C 0.35511 0.2555 0.51954 0.0
C810 C 0.37055 0.25559 0.51171 0.0
C811 C 0.36972 0.23823 0.5064 0.0
C812 C 0.35631 0.19749 0.53629 0.0
C813 C 0.34024 0.18995 0.54636 0.0
C814 C 0.34124 0.19804 0.56387 0.0
C815 C 0.35828 0.21403 0.5715 0.0
C816 C 0.37452 0.22121 0.56158 0.0
C817 C 0.37354 0.21295 0.5441 0.0
C818 C 0.35373 0.16092 0.52566 0.0
C819 C 0.33711 0.14849 0.5338 0.0
C820 C 0.33761 0.13764 0.54786 0.0
C821 C 0.35475 0.13892 0.55394 0.0
C822 C 0.37133 0.151 0.54539 0.0
C823 C 0.37083 0.16201 0.53137 0.0
C824 C 0.33406 0.14949 0.40327 0.0
C825 C 0.35608 0.27397 0.52526 0.0
H826 H 0.82003 0.17225 0.37048 0.0
H827 H 0.97095 0.28917 0.52239 0.0
H828 H 0.80315 0.1747 0.46482 0.0
H829 H 0.77631 0.14439 0.45092 0.0
H830 H 0.79876 0.11252 0.47774 0.0
H831 H 0.82586 0.14287 0.49089 0.0
H832 H 0.83925 0.20802 0.4453 0.0
H833 H 0.83079 0.19773 0.41273 0.0
H834 H 0.83491 0.14701 0.42137 0.0
H835 H 0.84358 0.1576 0.45385 0.0
H836 H 0.87859 0.24305 0.46751 0.0
H837 H 0.90332 0.26018 0.44653 0.0
H838 H 0.9071 0.20891 0.43591 0.0
H839 H 0.88263 0.19201 0.45709 0.0
H840 H 0.87671 0.24706 0.51105 0.0
H841 H 0.90748 0.2753 0.52128 0.0
H842 H 0.93526 0.24379 0.50518 0.0
H843 H 0.90439 0.21559 0.4952 0.0
H844 H 0.84483 0.21907 0.5337 0.0
H845 H 0.85543 0.22843 0.56629 0.0
H846 H 0.89288 0.20542 0.56129 0.0
H847 H 0.88226 0.19618 0.5289 0.0
H848 H 0.80535 0.1818 0.5112 0.0
H849 H 0.78393 0.16232 0.53393 0.0
H850 H 0.82304 0.14331 0.54974 0.0
H851 H 0.84403 0.16242 0.52681 0.0
O852 O 0.82346 0.17608 0.38339 0.0
O853 O 0.82568 0.1502 0.38858 0.0
O854 O 0.94362 0.29373 0.52664 0.0
O855 O 0.9586 0.2782 0.5185 0.0
C856 C 0.83421 0.17925 0.48482 0.0
C857 C 0.84697 0.18982 0.4717 0.0
C858 C 0.86474 0.20621 0.4774 0.0
C859 C 0.86962 0.21223 0.4962 0.0
C860 C 0.8569 0.20166 0.50927 0.0
C861 C 0.83919 0.18518 0.50361 0.0
C862 C 0.81644 0.16097 0.47884 0.0
C863 C 0.80208 0.16113 0.46789 0.0
C864 C 0.78673 0.14381 0.46003 0.0
C865 C 0.78551 0.12605 0.46309 0.0
C866 C 0.79946 0.12596 0.47486 0.0
C867 C 0.81482 0.14326 0.48259 0.0
C868 C 0.8419 0.1835 0.45193 0.0
C869 C 0.83835 0.19472 0.44011 0.0
C870 C 0.83349 0.18879 0.42153 0.0
C871 C 0.83212 0.17152 0.41445 0.0
C872 C 0.83579 0.16036 0.42637 0.0
C873 C 0.84069 0.16634 0.44494 0.0
C874 C 0.8788 0.21629 0.4638 0.0
C875 C 0.88472 0.23552 0.46059 0.0
C876 C 0.89884 0.24527 0.44866 0.0
C877 C 0.90713 0.23586 0.4396 0.0
C878 C 0.90082 0.21645 0.44252 0.0
C879 C 0.88687 0.20679 0.45461 0.0
C880 C 0.88835 0.22934 0.50232 0.0
C881 C 0.88947 0.24629 0.50978 0.0
C882 C 0.90705 0.2624 0.51559 0.0
C883 C 0.92384 0.26182 0.51402 0.0
C884 C 0.92263 0.24475 0.50656 0.0
C885 C 0.90502 0.22864 0.50081 0.0
C886 C 0.86284 0.20701 0.52902 0.0
C887 C 0.85527 0.21603 0.53973 0.0
C888 C 0.86136 0.2214 0.55824 0.0
C889 C 0.87491 0.21757 0.5663 0.0
C890 C 0.88225 0.20832 0.55551 0.0
C891 C 0.87631 0.20316 0.53702 0.0
C892 C 0.82626 0.17358 0.51744 0.0
C893 C 0.80922 0.1734 0.51959 0.0
C894 C 0.79708 0.16236 0.53262 0.0
C895 C 0.80177 0.15124 0.5436 0.0
C896 C 0.81889 0.15151 0.54135 0.0
C897 C 0.83099 0.16255 0.52838 0.0
C898 C 0.8269 0.16523 0.39472 0.0
C899 C 0.94257 0.27891 0.52012 0.0
H900 H 0.98869 0.50979 0.3425 0.0
H901 H 0.02318 0.39803 0.1911 0.0
H902 H 0.96511 0.5069 0.24686 0.0
H903 H 0.96771 0.53687 0.25995 0.0
H904 H 0.02143 0.56992 0.23642 0.0
H905 H 0.01885 0.53999 0.22365 0.0
H906 H 0.96953 0.47419 0.26761 0.0
H907 H 0.97255 0.4844 0.30008 0.0
H908 H 0.02654 0.53516 0.29278 0.0
H909 H 0.02345 0.52466 0.2604 0.0
H910 H 0.97275 0.43927 0.24558 0.0
H911 H 0.98122 0.42086 0.26558 0.0
H912 H 0.03641 0.47159 0.2789 0.0
H913 H 0.0281 0.48952 0.2581 0.0
H914 H 0.96661 0.4343 0.20459 0.0
H915 H 0.97061 0.40719 0.19439 0.0
H916 H 0.03101 0.44256 0.20805 0.0
H917 H 0.0268 0.46958 0.21804 0.0
H918 H 0.96096 0.45739 0.18073 0.0
H919 H 0.96169 0.44346 0.15059 0.0
H920 H 0.02284 0.47907 0.15455 0.0
H921 H 0.02192 0.4921 0.18493 0.0
H922 H 0.95865 0.49914 0.19923 0.0
H923 H 0.9559 0.51926 0.17643 0.0
H924 H 0.01478 0.54208 0.16623 0.0
H925 H 0.01742 0.52224 0.1891 0.0
O926 O 0.98781 0.50599 0.32964 0.0
O927 O 0.01544 0.53191 0.32512 0.0
O928 O 0.99005 0.39092 0.18825 0.0
O929 O 0.02119 0.40849 0.19507 0.0
C930 C 0.99158 0.50325 0.22852 0.0
C931 C 0.99424 0.49253 0.24193 0.0
C932 C 0.99552 0.47614 0.23654 0.0
C933 C 0.99401 0.47041 0.2178 0.0
C934 C 0.99135 0.4811 0.20445 0.0
C935 C 0.99012 0.4975 0.20977 0.0
C936 C 0.99174 0.5213 0.23424 0.0
C937 C 0.97727 0.52065 0.24431 0.0
C938 C 0.97883 0.53773 0.25183 0.0
C939 C 0.9948 0.55571 0.24922 0.0
C940 C 0.00886 0.5563 0.23845 0.0
C941 C 0.00739 0.53923 0.23111 0.0
C942 C 0.99621 0.49874 0.26165 0.0
C943 C 0.98201 0.48748 0.27307 0.0
C944 C 0.98376 0.49337 0.2916 0.0
C945 C -0.00023 0.51063 0.29902 0.0
C946 C 0.01401 0.52182 0.2875 0.0
C947 C 0.01226 0.51589 0.269 0.0
C948 C -0.00019 0.4657 0.25037 0.0
C949 C 0.98661 0.4464 0.25294 0.0
C950 C 0.99145 0.43597 0.26449 0.0
C951 C 0.00955 0.44472 0.27383 0.0
C952 C 0.02248 0.4643 0.27171 0.0
C953 C 0.01768 0.47466 0.26001 0.0
C954 C 0.99641 0.45385 0.21202 0.0
C955 C 0.98068 0.43614 0.20533 0.0
C956 C 0.98301 0.4207 0.19954 0.0
C957 C 0.00114 0.42272 0.20039 0.0
C958 C 0.01686 0.44051 0.2072 0.0
C959 C 0.0145 0.45595 0.21295 0.0
C960 C 0.99138 0.47572 0.18492 0.0
C961 C 0.97444 0.46243 0.17485 0.0
C962 C 0.9749 0.45453 0.15764 0.0
C963 C 0.99235 0.45994 0.15026 0.0
C964 C 0.0092 0.47424 0.16 0.0
C965 C 0.00871 0.48191 0.17724 0.0
C966 C 0.98819 0.50917 0.19569 0.0
C967 C 0.97089 0.50846 0.19198 0.0
C968 C 0.96934 0.51989 0.17896 0.0
C969 C 0.98515 0.53231 0.16961 0.0
C970 C 0.00242 0.53286 0.17337 0.0
C971 C 0.00392 0.5214 0.18628 0.0
C972 C 0.00155 0.51688 0.31869 0.0
C973 C 0.00371 0.40638 0.19419 0.0
H974 H 0.49509 0.50986 0.35017 0.0
H975 H 0.37892 0.35665 0.19652 0.0
H976 H 0.49876 0.51843 0.25177 0.0
H977 H 0.52504 0.54825 0.26687 0.0
H978 H 0.56329 0.52705 0.25698 0.0
H979 H 0.53667 0.49689 0.24204 0.0
H980 H 0.46937 0.4906 0.2726 0.0
H981 H 0.47614 0.50027 0.30536 0.0
H982 H 0.5183 0.48285 0.30704 0.0
H983 H 0.5112 0.47301 0.2743 0.0
H984 H 0.43769 0.46212 0.24862 0.0
H985 H 0.41335 0.44659 0.27034 0.0
H986 H 0.44145 0.41682 0.29002 0.0
H987 H 0.46596 0.4327 0.26839 0.0
H988 H 0.43585 0.45246 0.20592 0.0
H989 H 0.40586 0.42412 0.19399 0.0
H990 H 0.42356 0.38697 0.21794 0.0
H991 H 0.45358 0.41544 0.2296 0.0
H992 H 0.47121 0.48379 0.18862 0.0
H993 H 0.46001 0.47377 0.15647 0.0
H994 H 0.46407 0.42253 0.1615 0.0
H995 H 0.47586 0.43303 0.19362 0.0
H996 H 0.50315 0.51581 0.20932 0.0
H997 H 0.52506 0.53509 0.1871 0.0
H998 H 0.5423 0.49249 0.18008 0.0
H999 H 0.51972 0.47297 0.20189 0.0
O1000 O 0.49253 0.50581 0.33725 0.0
O1001 O 0.51408 0.49668 0.33737 0.0
O1002 O 0.38226 0.38783 0.18896 0.0
O1003 O 0.39066 0.36811 0.20106 0.0
C1004 C 0.49923 0.48667 0.23899 0.0
C1005 C 0.48577 0.47529 0.25121 0.0
C1006 C 0.4686 0.45877 0.24444 0.0
C1007 C 0.46517 0.45316 0.22556 0.0
C1008 C 0.47887 0.46422 0.21337 0.0
C1009 C 0.49592 0.48101 0.2201 0.0
C1010 C 0.51581 0.50546 0.24602 0.0
C1011 C 0.51283 0.52026 0.25275 0.0
C1012 C 0.5278 0.53722 0.26141 0.0
C1013 C 0.54609 0.53979 0.26327 0.0
C1014 C 0.54929 0.52537 0.25569 0.0
C1015 C 0.53418 0.50822 0.24718 0.0
C1016 C 0.48964 0.48091 0.27115 0.0
C1017 C 0.47991 0.48869 0.28012 0.0
C1018 C 0.48388 0.49429 0.29881 0.0
C1019 C 0.49774 0.4923 0.30884 0.0
C1020 C 0.50751 0.48454 0.29974 0.0
C1021 C 0.50349 0.47891 0.28106 0.0
C1022 C 0.45349 0.44845 0.25696 0.0
C1023 C 0.43852 0.45218 0.25759 0.0
C1024 C 0.42476 0.44345 0.27005 0.0
C1025 C 0.42562 0.43061 0.28187 0.0
C1026 C 0.44047 0.42663 0.28099 0.0
C1027 C 0.45441 0.43563 0.2687 0.0
C1028 C 0.44689 0.43596 0.21852 0.0
C1029 C 0.43323 0.43818 0.2085 0.0
C1030 C 0.41611 0.42197 0.20175 0.0
C1031 C 0.41232 0.40326 0.205 0.0
C1032 C 0.42603 0.40115 0.21517 0.0
C1033 C 0.44317 0.41737 0.22188 0.0
C1034 C 0.47441 0.45917 0.1934 0.0
C1035 C 0.47012 0.47064 0.18266 0.0
C1036 C 0.46352 0.46478 0.16437 0.0
C1037 C 0.46097 0.44726 0.15652 0.0
C1038 C 0.46602 0.43617 0.16713 0.0
C1039 C 0.47268 0.44209 0.18546 0.0
C1040 C 0.50992 0.49306 0.20723 0.0
C1041 C 0.51176 0.51074 0.20305 0.0
C1042 C 0.52439 0.52178 0.19041 0.0
C1043 C 0.53558 0.51543 0.1818 0.0
C1044 C 0.53378 0.49773 0.18623 0.0
C1045 C 0.52099 0.48661 0.19877 0.0
C1046 C 0.502 0.49836 0.32867 0.0
C1047 C 0.39416 0.386 0.19783 0.0
H1048 H 0.5213 0.99459 0.35587 0.0
H1049 H 0.3783 0.98579 0.19586 0.0
H1050 H 0.54131 0.02579 0.2508 0.0
H1051 H 0.5668 0.02286 0.26623 0.0
H1052 H 0.52791 0.96177 0.26946 0.0
H1053 H 0.50302 0.96477 0.25335 0.0
H1054 H 0.51749 0.02099 0.28377 0.0
H1055 H 0.52347 0.01543 0.31518 0.0
H1056 H 0.4768 0.95655 0.30665 0.0
H1057 H 0.47113 0.96224 0.27517 0.0
H1058 H 0.47682 0.01802 0.28306 0.0
H1059 H 0.4526 0.01091 0.30483 0.0
H1060 H 0.41446 0.95748 0.27285 0.0
H1061 H 0.43878 0.96457 0.25132 0.0
H1062 H 0.46196 0.02624 0.24421 0.0
H1063 H 0.43318 0.02676 0.23475 0.0
H1064 H 0.41283 0.97326 0.20149 0.0
H1065 H 0.44155 0.97281 0.21123 0.0
H1066 H 0.48411 0.03245 0.20719 0.0
H1067 H 0.4739 0.03417 0.17583 0.0
H1068 H 0.46696 0.97815 0.16094 0.0
H1069 H 0.47653 0.97631 0.19239 0.0
H1070 H 0.52525 0.03431 0.21147 0.0
H1071 H 0.54615 0.03802 0.18715 0.0
H1072 H 0.52844 0.9774 0.18733 0.0
H1073 H 0.50809 0.97408 0.21197 0.0
O1074 O 0.51864 0.99649 0.34341 0.0
O1075 O 0.49438 0.96641 0.3384 0.0
O1076 O 0.40087 0.0134 0.2172 0.0
O1077 O 0.3898 0.98594 0.19984 0.0
C1078 C 0.50401 0.99775 0.24521 0.0
C1079 C 0.49066 0.99539 0.25799 0.0
C1080 C 0.47422 0.99591 0.25245 0.0
C1081 C 0.47131 0.99925 0.2342 0.0
C1082 C 0.48485 0.00202 0.22149 0.0
C1083 C 0.50128 0.00136 0.22702 0.0
C1084 C 0.52034 0.99551 0.25104 0.0
C1085 C 0.53855 0.01171 0.25436 0.0
C1086 C 0.55298 0.01003 0.26341 0.0
C1087 C 0.54937 0.99212 0.26935 0.0
C1088 C 0.53135 0.97574 0.26496 0.0
C1089 C 0.51703 0.97742 0.25579 0.0
C1090 C 0.49385 0.99204 0.27723 0.0
C1091 C 0.50858 0.00691 0.28872 0.0
C1092 C 0.51195 0.00369 0.30666 0.0
C1093 C 0.5006 0.98555 0.31344 0.0
C1094 C 0.48579 0.9707 0.30187 0.0
C1095 C 0.48247 0.97392 0.28392 0.0
C1096 C 0.4595 0.99188 0.26554 0.0
C1097 C 0.46325 0.00477 0.28081 0.0
C1098 C 0.44946 0.00064 0.29326 0.0
C1099 C 0.43164 0.98365 0.29051 0.0
C1100 C 0.42798 0.97078 0.27521 0.0
C1101 C 0.44182 0.97482 0.26289 0.0
C1102 C 0.45387 0.99955 0.22833 0.0
C1103 C 0.45125 0.01465 0.2349 0.0
C1104 C 0.43482 0.01491 0.22946 0.0
C1105 C 0.42071 6e-05 0.21733 0.0
C1106 C 0.42341 0.98494 0.21081 0.0
C1107 C 0.43982 0.98467 0.2163 0.0
C1108 C 0.48103 0.00425 0.20206 0.0
C1109 C 0.48058 0.02068 0.19707 0.0
C1110 C 0.47484 0.02166 0.17914 0.0
C1111 C 0.46947 0.00622 0.16592 0.0
C1112 C 0.47071 0.99015 0.17086 0.0
C1113 C 0.47637 0.98915 0.18876 0.0
C1114 C 0.51524 0.00396 0.21353 0.0
C1115 C 0.52615 0.02194 0.2064 0.0
C1116 C 0.53794 0.02396 0.1924 0.0
C1117 C 0.53896 0.008 0.18518 0.0
C1118 C 0.52829 0.9901 0.19271 0.0
C1119 C 0.5166 0.98813 0.20678 0.0
C1120 C 0.50428 0.98216 0.33248 0.0
C1121 C 0.40324 0.00027 0.2115 0.0
H1122 H 0.5075 0.04626 0.7104 0.0
H1123 H 0.60988 0.98133 0.84169 0.0
H1124 H 0.49883 0.03678 0.80636 0.0
H1125 H 0.47449 0.04005 0.78913 0.0
H1126 H 0.43607 0.97857 0.78901 0.0
H1127 H 0.46071 0.97532 0.806 0.0
H1128 H 0.5316 0.04036 0.78476 0.0
H1129 H 0.52613 0.04831 0.75417 0.0
H1130 H 0.47885 0.99008 0.74288 0.0
H1131 H 0.48466 0.98226 0.77339 0.0
H1132 H 0.56371 0.0352 0.80627 0.0
H1133 H 0.58725 0.04119 0.78416 0.0
H1134 H 0.54628 0.98918 0.75172 0.0
H1135 H 0.52318 0.98288 0.77438 0.0
H1136 H 0.55987 0.02602 0.84714 0.0
H1137 H 0.58801 0.02434 0.85656 0.0
H1138 H 0.56696 0.97203 0.82121 0.0
H1139 H 0.53879 0.97378 0.81207 0.0
H1140 H 0.52423 0.02162 0.86676 0.0
H1141 H 0.53175 0.0169 0.89799 0.0
H1142 H 0.52367 0.96119 0.8795 0.0
H1143 H 0.51636 0.96618 0.84825 0.0
H1144 H 0.48987 0.02392 0.84516 0.0
H1145 H 0.46871 0.01869 0.86969 0.0
H1146 H 0.45791 0.96041 0.8719 0.0
H1147 H 0.47848 0.96544 0.8469 0.0
O1148 O 0.50961 0.04273 0.72233 0.0
O1149 O 0.48531 0.01267 0.71729 0.0
O1150 O 0.60903 0.00921 0.85625 0.0
O1151 O 0.59888 0.98233 0.83822 0.0
C1152 C 0.49783 0.00343 0.81298 0.0
C1153 C 0.51131 0.00624 0.80018 0.0
C1154 C 0.52746 0.00505 0.80538 0.0
C1155 C 0.53014 0.00096 0.8234 0.0
C1156 C 0.51653 0.99785 0.83613 0.0
C1157 C 0.50019 0.99882 0.83086 0.0
C1158 C 0.48156 0.0058 0.80728 0.0
C1159 C 0.48498 0.02409 0.80307 0.0
C1160 C 0.47116 0.02592 0.79312 0.0
C1161 C 0.45357 0.00951 0.78753 0.0
C1162 C 0.44955 0.99142 0.79318 0.0
C1163 C 0.46352 0.98956 0.80295 0.0
C1164 C 0.50854 0.01074 0.78127 0.0
C1165 C 0.5202 0.0293 0.77558 0.0
C1166 C 0.51698 0.03382 0.75814 0.0
C1167 C 0.50201 0.01984 0.74609 0.0
C1168 C 0.49048 0.00119 0.75181 0.0
C1169 C 0.49377 0.99668 0.76922 0.0
C1170 C 0.54178 0.00855 0.79199 0.0
C1171 C 0.55991 0.02503 0.79446 0.0
C1172 C 0.57325 0.02854 0.78168 0.0
C1173 C 0.56866 0.0157 0.76609 0.0
C1174 C 0.5504 0.99924 0.76366 0.0
C1175 C 0.53713 0.99566 0.77653 0.0
C1176 C 0.54729 -1e-05 0.82896 0.0
C1177 C 0.56134 0.01418 0.8415 0.0
C1178 C 0.57741 0.0132 0.84682 0.0
C1179 C 0.57973 0.99804 0.83963 0.0
C1180 C 0.56562 0.98389 0.82701 0.0
C1181 C 0.54954 0.98487 0.82174 0.0
C1182 C 0.51984 0.99429 0.85525 0.0
C1183 C 0.52389 0.00832 0.86952 0.0
C1184 C 0.52809 0.00554 0.88736 0.0
C1185 C 0.52836 0.98868 0.89124 0.0
C1186 C 0.52384 0.97444 0.87693 0.0
C1187 C 0.51961 0.97723 0.8591 0.0
C1188 C 0.48575 0.99507 0.84422 0.0
C1189 C 0.48255 0.00986 0.85059 0.0
C1190 C 0.47053 0.00688 0.86462 0.0
C1191 C 0.4618 0.98918 0.8727 0.0
C1192 C 0.46459 0.97423 0.86596 0.0
C1193 C 0.47629 0.97708 0.85171 0.0
C1194 C 0.49842 0.02478 0.7277 0.0
C1195 C 0.59678 0.99693 0.84524 0.0
H1196 H 0.96668 0.46086 0.71893 0.0
H1197 H 0.01502 0.62408 0.86666 0.0
H1198 H 0.9727 0.45871 0.8257 0.0
H1199 H 0.96796 0.4278 0.81285 0.0
H1200 H 0.0272 0.45562 0.80229 0.0
H1201 H 0.03186 0.48654 0.81546 0.0
H1202 H 0.96834 0.47984 0.7971 0.0
H1203 H 0.96192 0.46845 0.76468 0.0
H1204 H 0.02173 0.50348 0.75693 0.0
H1205 H 0.02789 0.51472 0.78941 0.0
H1206 H 0.96855 0.51499 0.80827 0.0
H1207 H 0.9614 0.53443 0.78814 0.0
H1208 H 0.02135 0.57311 0.78433 0.0
H1209 H 0.02837 0.55333 0.80417 0.0
H1210 H 0.97729 0.52842 0.85576 0.0
H1211 H 0.97491 0.55641 0.86643 0.0
H1212 H 0.03054 0.59446 0.84833 0.0
H1213 H 0.03281 0.56635 0.83796 0.0
H1214 H 0.9867 0.49907 0.8797 0.0
H1215 H 0.98854 0.51192 0.91079 0.0
H1216 H 0.03939 0.5648 0.90009 0.0
H1217 H 0.03863 0.55068 0.86989 0.0
H1218 H 0.98164 0.46684 0.85956 0.0
H1219 H 0.98573 0.44721 0.88165 0.0
H1220 H 0.04618 0.48735 0.88659 0.0
H1221 H 0.04184 0.50704 0.86441 0.0
O1222 O 0.96952 0.46557 0.7317 0.0
O1223 O 0.00042 0.48367 0.72848 0.0
O1224 O 0.98713 0.59258 0.87182 0.0
O1225 O 0.01558 0.61277 0.86257 0.0
C1226 C 0.00492 0.49356 0.82804 0.0
C1227 C 0.00242 0.50474 0.81517 0.0
C1228 C 0.00316 0.52204 0.82102 0.0
C1229 C 0.00653 0.52831 0.83976 0.0
C1230 C 0.00964 0.51745 0.85269 0.0
C1231 C 0.00876 0.49998 0.84679 0.0
C1232 C 0.00267 0.47471 0.82175 0.0
C1233 C 0.98472 0.45801 0.82098 0.0
C1234 C 0.98205 0.44043 0.81363 0.0
C1235 C 0.99724 0.43934 0.80664 0.0
C1236 C 0.01526 0.4561 0.80754 0.0
C1237 C 0.01797 0.47367 0.81513 0.0
C1238 C 0.99856 0.49805 0.79551 0.0
C1239 C 0.98001 0.48501 0.78835 0.0
C1240 C 0.9764 0.47855 0.76984 0.0
C1241 C 0.99132 0.48504 0.75821 0.0
C1242 C 0.00992 0.49819 0.76551 0.0
C1243 C 0.01349 0.50464 0.78402 0.0
C1244 C 0.99895 0.5329 0.8077 0.0
C1245 C 0.9801 0.5275 0.80284 0.0
C1246 C 0.97606 0.53855 0.79135 0.0
C1247 C 0.99085 0.55527 0.78479 0.0
C1248 C 0.00973 0.56036 0.78935 0.0
C1249 C 0.01374 0.54912 0.80061 0.0
C1250 C 0.00516 0.54539 0.84599 0.0
C1251 C 0.98892 0.54283 0.85411 0.0
C1252 C 0.98761 0.55882 0.86018 0.0
C1253 C 0.00253 0.57768 0.85819 0.0
C1254 C 0.01878 0.58015 0.85003 0.0
C1255 C 0.02009 0.56413 0.84401 0.0
C1256 C 0.0125 0.52393 0.87245 0.0
C1257 C 0.99868 0.51308 0.88436 0.0
C1258 C 0.99955 0.52072 0.90207 0.0
C1259 C 0.01381 0.53973 0.90801 0.0
C1260 C 0.02823 0.5501 0.8963 0.0
C1261 C 0.02773 0.54213 0.87884 0.0
C1262 C 0.01146 0.48819 0.86022 0.0
C1263 C 0.99578 0.47126 0.86523 0.0
C1264 C 0.99817 0.46006 0.87783 0.0
C1265 C 0.01632 0.46561 0.88573 0.0
C1266 C 0.03202 0.48273 0.8808 0.0
C1267 C 0.02959 0.49394 0.86811 0.0
C1268 C 0.98744 0.4781 0.73857 0.0
C1269 C 0.00121 0.59473 0.86463 0.0
H1270 H 0.48081 0.50118 0.70558 0.0
H1271 H 0.63816 0.61966 0.85379 0.0
H1272 H 0.46729 0.50743 0.80277 0.0
H1273 H 0.44024 0.47721 0.78846 0.0
H1274 H 0.46629 0.44552 0.80799 0.0
H1275 H 0.493 0.47557 0.82262 0.0
H1276 H 0.50305 0.53893 0.77967 0.0
H1277 H 0.49318 0.52773 0.7474 0.0
H1278 H 0.49935 0.47817 0.75591 0.0
H1279 H 0.50947 0.4897 0.78805 0.0
H1280 H 0.54442 0.57425 0.79985 0.0
H1281 H 0.56946 0.59057 0.77898 0.0
H1282 H 0.57283 0.53881 0.77054 0.0
H1283 H 0.54791 0.52267 0.79148 0.0
H1284 H 0.54413 0.58004 0.84338 0.0
H1285 H 0.57541 0.60794 0.85281 0.0
H1286 H 0.60139 0.5743 0.83796 0.0
H1287 H 0.57001 0.54646 0.82878 0.0
H1288 H 0.51316 0.55409 0.86721 0.0
H1289 H 0.52579 0.56557 0.89903 0.0
H1290 H 0.55989 0.53852 0.89458 0.0
H1291 H 0.54778 0.52791 0.86276 0.0
H1292 H 0.47159 0.51551 0.84492 0.0
H1293 H 0.45073 0.49819 0.86888 0.0
H1294 H 0.48929 0.47909 0.88636 0.0
H1295 H 0.50988 0.49622 0.86235 0.0
O1296 O 0.48486 0.50541 0.71835 0.0
O1297 O 0.48812 0.48012 0.72349 0.0
O1298 O 0.61155 0.62548 0.85774 0.0
O1299 O 0.62562 0.60884 0.85022 0.0
C1300 C 0.49988 0.51183 0.81927 0.0
C1301 C 0.51245 0.52176 0.80582 0.0
C1302 C 0.53048 0.53793 0.81105 0.0
C1303 C 0.53581 0.5444 0.82971 0.0
C1304 C 0.52324 0.53448 0.84313 0.0
C1305 C 0.50524 0.51818 0.83793 0.0
C1306 C 0.48201 0.4936 0.81373 0.0
C1307 C 0.46682 0.49386 0.80443 0.0
C1308 C 0.45148 0.4767 0.79627 0.0
C1309 C 0.45138 0.45924 0.79716 0.0
C1310 C 0.46615 0.45889 0.80721 0.0
C1311 C 0.48129 0.47596 0.8156 0.0
C1312 C 0.50682 0.51505 0.78619 0.0
C1313 C 0.50231 0.5257 0.7745 0.0
C1314 C 0.49665 0.51924 0.75609 0.0
C1315 C 0.49541 0.50202 0.74908 0.0
C1316 C 0.5001 0.49147 0.76086 0.0
C1317 C 0.50582 0.49798 0.77924 0.0
C1318 C 0.54435 0.54729 0.79715 0.0
C1319 C 0.55047 0.56642 0.79335 0.0
C1320 C 0.5648 0.57571 0.78152 0.0
C1321 C 0.57315 0.56598 0.7732 0.0
C1322 C 0.56654 0.54661 0.77659 0.0
C1323 C 0.55232 0.53738 0.78854 0.0
C1324 C 0.55484 0.56129 0.83534 0.0
C1325 C 0.5566 0.57874 0.84222 0.0
C1326 C 0.57448 0.59464 0.84756 0.0
C1327 C 0.59091 0.59336 0.8461 0.0
C1328 C 0.58904 0.5758 0.83923 0.0
C1329 C 0.57115 0.55989 0.83394 0.0
C1330 C 0.52969 0.54031 0.86273 0.0
C1331 C 0.52331 0.55064 0.87322 0.0
C1332 C 0.53048 0.55708 0.89139 0.0
C1333 C 0.54402 0.55315 0.89934 0.0
C1334 C 0.54985 0.54224 0.88882 0.0
C1335 C 0.54285 0.53601 0.87067 0.0
C1336 C 0.49235 0.5073 0.85207 0.0
C1337 C 0.47545 0.50751 0.85391 0.0
C1338 C 0.46356 0.4976 0.86754 0.0
C1339 C 0.46849 0.48746 0.8796 0.0
C1340 C 0.48531 0.48708 0.8775 0.0
C1341 C 0.49706 0.49682 0.86379 0.0
C1342 C 0.48926 0.49513 0.72956 0.0
C1343 C 0.60994 0.61023 0.85172 0.0
H1344 H 0.64556 0.84235 0.67783 0.0
H1345 H 0.6681 0.71545 0.53652 0.0
H1346 H 0.62414 0.83739 0.58207 0.0
H1347 H 0.62779 0.86807 0.59443 0.0
H1348 H 0.68149 0.89906 0.5704 0.0
H1349 H 0.67789 0.8684 0.55837 0.0
H1350 H 0.6265 0.80458 0.60381 0.0
H1351 H 0.62939 0.81585 0.63595 0.0
H1352 H 0.68446 0.86499 0.62841 0.0
H1353 H 0.68149 0.85343 0.59636 0.0
H1354 H 0.62808 0.76827 0.5837 0.0
H1355 H 0.6363 0.74895 0.60284 0.0
H1356 H 0.69287 0.79792 0.61426 0.0
H1357 H 0.68462 0.81705 0.59495 0.0
H1358 H 0.62155 0.76387 0.5396 0.0
H1359 H 0.62181 0.73409 0.53155 0.0
H1360 H 0.68089 0.76224 0.55126 0.0
H1361 H 0.68051 0.79199 0.55897 0.0
H1362 H 0.6205 0.79503 0.51405 0.0
H1363 H 0.62044 0.78276 0.48282 0.0
H1364 H 0.67837 0.79643 0.49418 0.0
H1365 H 0.67849 0.80939 0.52482 0.0
H1366 H 0.62015 0.83263 0.53611 0.0
H1367 H 0.61885 0.85162 0.5114 0.0
H1368 H 0.6749 0.86492 0.49805 0.0
H1369 H 0.67607 0.84604 0.52269 0.0
O1370 O 0.64475 0.83811 0.66511 0.0
O1371 O 0.67294 0.86318 0.66048 0.0
O1372 O 0.63733 0.71334 0.52925 0.0
O1373 O 0.66763 0.72706 0.53945 0.0
C1374 C 0.65001 0.8322 0.56428 0.0
C1375 C 0.65178 0.82144 0.5782 0.0
C1376 C 0.65217 0.80441 0.57352 0.0
C1377 C 0.65065 0.79802 0.55495 0.0
C1378 C 0.64924 0.80893 0.54106 0.0
C1379 C 0.64885 0.826 0.54569 0.0
C1380 C 0.65075 0.85069 0.56934 0.0
C1381 C 0.63653 0.85084 0.57925 0.0
C1382 C 0.63867 0.86831 0.58634 0.0
C1383 C 0.65496 0.88591 0.58342 0.0
C1384 C 0.6687 0.88573 0.57269 0.0
C1385 C 0.66666 0.86825 0.56579 0.0
C1386 C 0.65373 0.82824 0.59775 0.0
C1387 C 0.6392 0.81774 0.60915 0.0
C1388 C 0.64087 0.82423 0.62749 0.0
C1389 C 0.65714 0.84135 0.63474 0.0
C1390 C 0.67173 0.85177 0.62326 0.0
C1391 C 0.67005 0.84523 0.60495 0.0
C1392 C 0.65578 0.79401 0.58788 0.0
C1393 C 0.64211 0.77492 0.59066 0.0
C1394 C 0.64685 0.76391 0.60148 0.0
C1395 C 0.66528 0.77191 0.60986 0.0
C1396 C 0.67854 0.79144 0.60806 0.0
C1397 C 0.67384 0.80238 0.59708 0.0
C1398 C 0.65097 0.78003 0.54997 0.0
C1399 C 0.63454 0.76357 0.54211 0.0
C1400 C 0.63472 0.74659 0.53756 0.0
C1401 C 0.65137 0.74577 0.54082 0.0
C1402 C 0.66783 0.76235 0.54861 0.0
C1403 C 0.66764 0.77935 0.55308 0.0
C1404 C 0.64946 0.80296 0.52169 0.0
C1405 C 0.63323 0.79563 0.5096 0.0
C1406 C 0.63319 0.78849 0.49185 0.0
C1407 C 0.64938 0.78852 0.48598 0.0
C1408 C 0.66575 0.79643 0.49807 0.0
C1409 C 0.66581 0.80368 0.51567 0.0
C1410 C 0.64812 0.8378 0.53105 0.0
C1411 C 0.63214 0.83971 0.52785 0.0
C1412 C 0.63144 0.85058 0.51379 0.0
C1413 C 0.6467 0.8596 0.50268 0.0
C1414 C 0.66277 0.85784 0.50614 0.0
C1415 C 0.6635 0.84711 0.52023 0.0
C1416 C 0.65882 0.84826 0.6542 0.0
C1417 C 0.65161 0.72772 0.53613 0.0
H1418 H 0.15894 0.85047 0.68235 0.0
H1419 H 0.04591 0.68905 0.53445 0.0
H1420 H 0.17038 0.85521 0.5793 0.0
H1421 H 0.19828 0.88496 0.59272 0.0
H1422 H 0.22866 0.85423 0.5989 0.0
H1423 H 0.20071 0.82452 0.58504 0.0
H1424 H 0.13686 0.82776 0.60441 0.0
H1425 H 0.14248 0.83937 0.63674 0.0
H1426 H 0.18116 0.81797 0.64454 0.0
H1427 H 0.17526 0.80628 0.61222 0.0
H1428 H 0.10197 0.79316 0.57882 0.0
H1429 H 0.07589 0.77734 0.59858 0.0
H1430 H 0.10715 0.75585 0.6285 0.0
H1431 H 0.13322 0.77166 0.60848 0.0
H1432 H 0.10293 0.78482 0.53938 0.0
H1433 H 0.07317 0.75598 0.52787 0.0
H1434 H 0.09011 0.72041 0.55624 0.0
H1435 H 0.11992 0.74936 0.56746 0.0
H1436 H 0.13893 0.81687 0.52352 0.0
H1437 H 0.1277 0.80658 0.49145 0.0
H1438 H 0.1299 0.75444 0.49749 0.0
H1439 H 0.14188 0.76528 0.52953 0.0
H1440 H 0.17001 0.848 0.54338 0.0
H1441 H 0.19236 0.86694 0.52136 0.0
H1442 H 0.21005 0.82454 0.51637 0.0
H1443 H 0.18717 0.80543 0.53823 0.0
O1444 O 0.15688 0.84571 0.66963 0.0
O1445 O 0.17669 0.83452 0.6729 0.0
O1446 O 0.04956 0.71962 0.5244 0.0
O1447 O 0.05758 0.7007 0.53878 0.0
C1448 C 0.16626 0.81972 0.57424 0.0
C1449 C 0.15232 0.80929 0.58641 0.0
C1450 C 0.13496 0.79292 0.57976 0.0
C1451 C 0.13179 0.78663 0.56099 0.0
C1452 C 0.14571 0.79717 0.54877 0.0
C1453 C 0.16294 0.81377 0.55541 0.0
C1454 C 0.18365 0.83784 0.58113 0.0
C1455 C 0.18318 0.85501 0.58328 0.0
C1456 C 0.19908 0.87193 0.5909 0.0
C1457 C 0.21558 0.87183 0.59678 0.0
C1458 C 0.21607 0.85462 0.59449 0.0
C1459 C 0.20023 0.83774 0.58655 0.0
C1460 C 0.15563 0.81617 0.60604 0.0
C1461 C 0.14648 0.82554 0.61317 0.0
C1462 C 0.14975 0.83218 0.63161 0.0
C1463 C 0.16227 0.8296 0.64323 0.0
C1464 C 0.17143 0.82019 0.63598 0.0
C1465 C 0.16811 0.81352 0.61754 0.0
C1466 C 0.11939 0.78339 0.5921 0.0
C1467 C 0.10315 0.78495 0.58958 0.0
C1468 C 0.08828 0.77592 0.60087 0.0
C1469 C 0.08945 0.76529 0.61504 0.0
C1470 C 0.10593 0.76407 0.61779 0.0
C1471 C 0.12076 0.773 0.60634 0.0
C1472 C 0.11364 0.76915 0.55411 0.0
C1473 C 0.10023 0.77078 0.54298 0.0
C1474 C 0.08322 0.75429 0.53649 0.0
C1475 C 0.07927 0.73587 0.54111 0.0
C1476 C 0.09271 0.73435 0.55239 0.0
C1477 C 0.10973 0.75085 0.55883 0.0
C1478 C 0.14131 0.79188 0.52881 0.0
C1479 C 0.13748 0.80348 0.51779 0.0
C1480 C 0.13082 0.79745 0.49954 0.0
C1481 C 0.12768 0.77957 0.49199 0.0
C1482 C 0.13229 0.76833 0.50287 0.0
C1483 C 0.13907 0.77445 0.52116 0.0
C1484 C 0.17712 0.82546 0.54251 0.0
C1485 C 0.17887 0.84293 0.53768 0.0
C1486 C 0.19172 0.85376 0.52513 0.0
C1487 C 0.20316 0.84737 0.51717 0.0
C1488 C 0.20137 0.82982 0.52211 0.0
C1489 C 0.18841 0.81894 0.53466 0.0
C1490 C 0.16576 0.83673 0.66281 0.0
C1491 C 0.06123 0.7183 0.53423 0.0
H1492 H 0.19289 0.34972 0.69626 0.0
H1493 H 0.04413 0.32026 0.54835 0.0
H1494 H 0.20916 0.36939 0.60271 0.0
H1495 H 0.23377 0.36481 0.61754 0.0
H1496 H 0.20942 0.30858 0.58827 0.0
H1497 H 0.18447 0.31304 0.57405 0.0
H1498 H 0.17483 0.36717 0.62427 0.0
H1499 H 0.18316 0.36513 0.65615 0.0
H1500 H 0.17465 0.30825 0.64224 0.0
H1501 H 0.16608 0.31038 0.61047 0.0
H1502 H 0.1373 0.36461 0.60488 0.0
H1503 H 0.11393 0.35831 0.62739 0.0
H1504 H 0.10425 0.30043 0.6303 0.0
H1505 H 0.12763 0.30689 0.60789 0.0
H1506 H 0.13851 0.37052 0.56199 0.0
H1507 H 0.10874 0.36929 0.55308 0.0
H1508 H 0.07775 0.30855 0.56241 0.0
H1509 H 0.10765 0.30996 0.57112 0.0
H1510 H 0.16771 0.37343 0.5379 0.0
H1511 H 0.15624 0.37325 0.50649 0.0
H1512 H 0.11973 0.31118 0.50498 0.0
H1513 H 0.13064 0.31178 0.53655 0.0
H1514 H 0.20672 0.37372 0.55604 0.0
H1515 H 0.22583 0.37538 0.53053 0.0
H1516 H 0.18485 0.31588 0.51295 0.0
H1517 H 0.16633 0.31428 0.5387 0.0
O1518 O 0.18944 0.35018 0.6836 0.0
O1519 O 0.185 0.32104 0.67571 0.0
O1520 O 0.07271 0.35239 0.54714 0.0
O1521 O 0.05611 0.32115 0.5518 0.0
C1522 C 0.17765 0.34221 0.58212 0.0
C1523 C 0.16517 0.34044 0.59569 0.0
C1524 C 0.14794 0.33973 0.59082 0.0
C1525 C 0.14332 0.34116 0.57245 0.0
C1526 C 0.15568 0.34278 0.55889 0.0
C1527 C 0.1728 0.3432 0.56368 0.0
C1528 C 0.19501 0.34153 0.58735 0.0
C1529 C 0.20946 0.35631 0.59915 0.0
C1530 C 0.22352 0.35365 0.6076 0.0
C1531 C 0.2234 0.3362 0.60429 0.0
C1532 C 0.20968 0.32202 0.59139 0.0
C1533 C 0.19559 0.32466 0.58302 0.0
C1534 C 0.16997 0.33898 0.61507 0.0
C1535 C 0.17471 0.35427 0.62817 0.0
C1536 C 0.1795 0.35307 0.64635 0.0
C1537 C 0.17962 0.33655 0.65174 0.0
C1538 C 0.17473 0.3212 0.63855 0.0
C1539 C 0.16989 0.32239 0.62039 0.0
C1540 C 0.13417 0.33622 0.6048 0.0
C1541 C 0.13014 0.3506 0.61044 0.0
C1542 C 0.11676 0.34695 0.62323 0.0
C1543 C 0.10725 0.32887 0.63064 0.0
C1544 C 0.11152 0.31459 0.62507 0.0
C1545 C 0.12481 0.31822 0.61223 0.0
C1546 C 0.1252 0.34035 0.56723 0.0
C1547 C 0.12527 0.35697 0.56207 0.0
C1548 C 0.10825 0.35622 0.55701 0.0
C1549 C 0.09085 0.33881 0.55705 0.0
C1550 C 0.09088 0.32218 0.56225 0.0
C1551 C 0.10792 0.32295 0.56727 0.0
C1552 C 0.1499 0.34263 0.53945 0.0
C1553 C 0.15728 0.35984 0.53068 0.0
C1554 C 0.15078 0.35966 0.51271 0.0
C1555 C 0.1369 0.34221 0.50318 0.0
C1556 C 0.13005 0.32495 0.51197 0.0
C1557 C 0.13638 0.3252 0.52996 0.0
C1558 C 0.18515 0.3439 0.54916 0.0
C1559 C 0.20207 0.36102 0.54678 0.0
C1560 C 0.21285 0.36197 0.53212 0.0
C1561 C 0.20686 0.34577 0.51966 0.0
C1562 C 0.19005 0.32855 0.5224 0.0
C1563 C 0.17936 0.32762 0.53703 0.0
C1564 C 0.18483 0.33538 0.67104 0.0
C1565 C 0.07273 0.33794 0.55169 0.0
H1566 H 0.96906 0.37822 0.05688 0.0
H1567 H 0.02902 0.41964 0.05794 0.0
H1568 H 0.96625 0.3971 0.08246 0.0
H1569 H 0.02617 0.4384 0.08329 0.0
H1570 H 0.01791 0.44858 0.14335 0.0
H1571 H 0.01949 0.43159 0.1159 0.0
H1572 H 0.96983 0.43004 0.09138 0.0
H1573 H 0.96844 0.44762 0.11887 0.0
C1574 C 0.98157 0.39143 0.06245 0.0
C1575 C 0.99929 0.39738 0.05553 0.0
C1576 C 0.97994 0.40226 0.077 0.0
C1577 C 0.99603 0.41911 0.08493 0.0
C1578 C 0.01359 0.42532 0.0776 0.0
C1579 C 0.0152 0.41461 0.06304 0.0
C1580 C 0.00752 0.44502 0.13201 0.0
C1581 C 0.99321 0.44974 0.13324 0.0
C1582 C 0.00839 0.43519 0.1163 0.0
C1583 C 0.99488 0.42964 0.10146 0.0
C1584 C 0.98038 0.43409 0.10267 0.0
C1585 C 0.97959 0.44412 0.1184 0.0
H1586 H 0.58485 0.59688 0.10084 0.0
H1587 H 0.61632 0.56701 0.09727 0.0
H1588 H 0.5678 0.57748 0.12549 0.0
H1589 H 0.59893 0.5473 0.12198 0.0
H1590 H 0.54358 0.50244 0.14999 0.0
H1591 H 0.56356 0.52171 0.12655 0.0
H1592 H 0.57672 0.57396 0.15848 0.0
H1593 H 0.55739 0.55488 0.18225 0.0
C1594 C 0.58809 0.58612 0.1053 0.0
C1595 C 0.60192 0.58345 0.09713 0.0
C1596 C 0.57841 0.5751 0.11949 0.0
C1597 C 0.58213 0.56098 0.12569 0.0
C1598 C 0.59579 0.55809 0.1174 0.0
C1599 C 0.60574 0.56937 0.10334 0.0
C1600 C 0.55104 0.51803 0.15224 0.0
C1601 C 0.54869 0.52707 0.16799 0.0
C1602 C 0.56244 0.52904 0.13877 0.0
C1603 C 0.57154 0.54929 0.14066 0.0
C1604 C 0.56963 0.55835 0.15657 0.0
C1605 C 0.55845 0.54738 0.17013 0.0
H1606 H 0.42247 0.03217 0.07 0.0
H1607 H 0.41508 0.97587 0.05581 0.0
H1608 H 0.43927 0.034 0.09903 0.0
H1609 H 0.43215 0.97786 0.08452 0.0
H1610 H 0.43893 0.97637 0.14632 0.0
H1611 H 0.42525 0.97628 0.1163 0.0
H1612 H 0.46801 0.03622 0.11349 0.0
H1613 H 0.48178 0.03631 0.14374 0.0
C1614 C 0.42468 0.02033 0.07297 0.0
C1615 C 0.41733 0.00381 0.06072 0.0
C1616 C 0.43437 0.0214 0.08955 0.0
C1617 C 0.43688 0.00598 0.09417 0.0
C1618 C 0.43014 0.98982 0.08155 0.0
C1619 C 0.42045 0.98873 0.06504 0.0
C1620 C 0.44562 0.98947 0.13921 0.0
C1621 C 0.46155 0.0063 0.14737 0.0
C1622 C 0.43776 0.98942 0.12197 0.0
C1623 C 0.44562 0.00621 0.11241 0.0
C1624 C 0.46153 0.0231 0.12056 0.0
C1625 C 0.46942 0.02314 0.13787 0.0
H1626 H 0.37898 0.96857 0.9536 0.0
H1627 H 0.43457 0.00438 0.98135 0.0
H1628 H 0.39365 0.96678 0.92564 0.0
H1629 H 0.44913 0.00222 0.95363 0.0
H1630 H 0.46642 0.97697 0.90541 0.0
H1631 H 0.44978 0.97492 0.93293 0.0
H1632 H 0.41582 0.99389 0.90399 0.0
H1633 H 0.43268 0.99623 0.87649 0.0
C1634 C 0.3943 0.9758 0.95379 0.0
C1635 C 0.40566 0.98662 0.9696 0.0
C1636 C 0.40266 0.97487 0.93781 0.0
C1637 C 0.42249 0.98437 0.93754 0.0
C1638 C 0.4338 0.99467 0.95353 0.0
C1639 C 0.42548 0.99594 0.96935 0.0
C1640 C 0.45524 0.98048 0.9049 0.0
C1641 C 0.45079 0.98675 0.88887 0.0
C1642 C 0.44581 0.97939 0.92062 0.0
C1643 C 0.43153 0.98422 0.92052 0.0
C1644 C 0.42668 0.98995 0.90435 0.0
C1645 C 0.43638 0.9914 0.8887 0.0
H1646 H 0.04539 0.41301 0.97493 0.0
H1647 H 0.98445 0.38262 0.96473 0.0
H1648 H 0.04845 0.43256 0.94913 0.0
H1649 H 0.9875 0.40195 0.93919 0.0
H1650 H 0.99897 0.42627 0.88438 0.0
H1651 H -0.00023 0.40648 0.90819 0.0
H1652 H 0.03973 0.45799 0.94166 0.0
H1653 H 0.03877 0.4779 0.91789 0.0
C1654 C 0.0327 0.41045 0.96713 0.0
C1655 C 0.01469 0.39633 0.97182 0.0
C1656 C 0.03445 0.42165 0.95245 0.0
C1657 C 0.01822 0.41868 0.9421 0.0
C1658 C 0.00027 0.40438 0.94673 0.0
C1659 C 0.99853 0.3934 0.96145 0.0
C1660 C 0.00795 0.4334 0.8968 0.0
C1661 C 0.01858 0.45366 0.89936 0.0
C1662 C 0.00845 0.42206 0.9104 0.0
C1663 C 0.01966 0.43071 0.92684 0.0
C1664 C 0.03106 0.45094 0.92906 0.0
C1665 C 0.0305 0.46232 0.91545 0.0
H1666 H 0.60618 0.57404 0.00355 0.0
H1667 H 0.5837 0.61239 0.00889 0.0
H1668 H 0.58973 0.56197 0.97328 0.0
H1669 H 0.56705 0.60011 0.97846 0.0
H1670 H 0.52653 0.55621 0.92951 0.0
H1671 H 0.54071 0.56796 0.96081 0.0
H1672 H 0.59463 0.57854 0.94341 0.0
H1673 H 0.58084 0.56753 0.91219 0.0
C1674 C 0.59756 0.57975 0.99834 0.0
C1675 C 0.59631 0.59424 0.00853 0.0
C1676 C 0.58822 0.5729 0.98098 0.0
C1677 C 0.57727 0.58024 0.97351 0.0
C1678 C 0.57537 0.59418 0.98396 0.0
C1679 C 0.58493 0.60124 0.0013 0.0
C1680 C 0.54147 0.56129 0.93231 0.0
C1681 C 0.55248 0.5607 0.91834 0.0
C1682 C 0.54953 0.56794 0.95023 0.0
C1683 C 0.56868 0.57391 0.95452 0.0
C1684 C 0.57973 0.57365 0.94053 0.0
C1685 C 0.57178 0.56725 0.92265 0.0
H1686 H 0.97742 0.59731 0.98394 0.0
H1687 H 0.03097 0.6102 0.01043 0.0
H1688 H 0.98114 0.57858 0.95936 0.0
H1689 H 0.03422 0.59014 0.98648 0.0
H1690 H 0.043 0.5685 0.93107 0.0
H1691 H 0.04045 0.58714 0.95654 0.0
H1692 H 0.97947 0.55005 0.95136 0.0
H1693 H 0.98181 0.5331 0.92467 0.0
C1694 C 0.9899 0.59586 0.98458 0.0
C1695 C 0.00389 0.60514 0.99903 0.0
C1696 C 0.99198 0.58492 0.97057 0.0
C1697 C 0.00787 0.58247 0.97093 0.0
C1698 C 0.02191 0.59182 0.98552 0.0
C1699 C 0.02003 0.60324 0.99932 0.0
C1700 C 0.029 0.56447 0.93515 0.0
C1701 C 0.01263 0.54934 0.92543 0.0
C1702 C 0.02755 0.57501 0.95007 0.0
C1703 C 0.00971 0.57041 0.95598 0.0
C1704 C 0.99345 0.55453 0.94695 0.0
C1705 C 0.99486 0.54439 0.93176 0.0
H1706 H 0.42441 0.41491 0.96804 0.0
H1707 H 0.37877 0.42536 0.9538 0.0
H1708 H 0.44302 0.43589 0.94511 0.0
H1709 H 0.39771 0.44689 0.93088 0.0
H1710 H 0.42984 0.46412 0.87743 0.0
H1711 H 0.41014 0.44544 0.90135 0.0
H1712 H 0.45991 0.46948 0.93913 0.0
H1713 H 0.47952 0.48787 0.91521 0.0
C1714 C 0.4184 0.42184 0.96009 0.0
C1715 C 0.40012 0.4185 0.96273 0.0
C1716 C 0.42914 0.43399 0.94701 0.0
C1717 C 0.42193 0.4432 0.93623 0.0
C1718 C 0.40362 0.43991 0.93888 0.0
C1719 C 0.39282 0.42768 0.95204 0.0
C1720 C 0.43649 0.46557 0.89092 0.0
C1721 C 0.45624 0.47726 0.89439 0.0
C1722 C 0.42522 0.45491 0.90463 0.0
C1723 C 0.43348 0.4558 0.9221 0.0
C1724 C 0.45314 0.46812 0.92571 0.0
C1725 C 0.46439 0.47867 0.91202 0.0
H1726 H 0.57215 0.96076 0.9887 0.0
H1727 H 0.5787 0.01693 0.00148 0.0
H1728 H 0.55446 0.95763 0.95989 0.0
H1729 H 0.56132 0.01395 0.97261 0.0
H1730 H 0.51882 0.99786 0.92403 0.0
H1731 H 0.53072 0.99655 0.95468 0.0
H1732 H 0.56334 0.97331 0.93128 0.0
H1733 H 0.55157 0.97471 0.90076 0.0
C1734 C 0.5696 0.97232 0.98547 0.0
C1735 C 0.5769 0.98914 0.99729 0.0
C1736 C 0.55958 0.97058 0.96892 0.0
C1737 C 0.55662 0.98561 0.96388 0.0
C1738 C 0.56319 0.00204 0.97613 0.0
C1739 C 0.57323 0.00379 0.99265 0.0
C1740 C 0.52851 0.99244 0.92546 0.0
C1741 C 0.53429 0.98645 0.90994 0.0
C1742 C 0.5353 0.99167 0.943 0.0
C1743 C 0.54799 0.98484 0.94542 0.0
C1744 C 0.55334 0.97834 0.92993 0.0
C1745 C 0.54659 0.97915 0.91241 0.0
H1746 H 0.57819 0.97577 0.09097 0.0
H1747 H 0.60734 0.03784 0.08952 0.0
H1748 H 0.56479 0.9782 0.11924 0.0
H1749 H 0.59372 0.04026 0.11802 0.0
H1750 H 0.54374 0.02902 0.15534 0.0
H1751 H 0.5606 0.02987 0.12844 0.0
H1752 H 0.57651 0.99129 0.15191 0.0
H1753 H 0.56013 0.99079 0.17904 0.0
C1754 C 0.58174 0.98997 0.09671 0.0
C1755 C 0.59381 0.00663 0.08801 0.0
C1756 C 0.57416 0.99135 0.11298 0.0
C1757 C 0.5783 0.00942 0.1209 0.0
C1758 C 0.59026 0.02614 0.11218 0.0
C1759 C 0.59808 0.02476 0.09593 0.0
C1760 C 0.55117 0.02104 0.15499 0.0
C1761 C 0.55043 0.00971 0.16936 0.0
C1762 C 0.56079 0.02152 0.13953 0.0
C1763 C 0.56974 0.01053 0.13802 0.0
C1764 C 0.56949 -0.00033 0.15258 0.0
C1765 C 0.56003 0.99933 0.16809 0.0
H1766 H 0.01686 0.60822 0.0838 0.0
H1767 H 0.95786 0.59146 0.08554 0.0
H1768 H 0.01421 0.58889 0.10913 0.0
H1769 H 0.95524 0.57204 0.11134 0.0
H1770 H 0.95697 0.52253 0.14259 0.0
H1771 H 0.95666 0.5424 0.11839 0.0
H1772 H 0.01008 0.59 0.14187 0.0
H1773 H 0.0104 0.57024 0.16589 0.0
C1774 C 0.0033 0.60043 0.08964 0.0
C1775 C 0.98758 0.60142 0.0827 0.0
C1776 C 0.00182 0.58944 0.10427 0.0
C1777 C 0.98458 0.57912 0.11239 0.0
C1778 C 0.9687 0.57983 0.10532 0.0
C1779 C 0.97021 0.59096 0.09062 0.0
C1780 C 0.96848 0.53734 0.1427 0.0
C1781 C 0.98386 0.54474 0.15596 0.0
C1782 C 0.96829 0.54871 0.12887 0.0
C1783 C 0.98348 0.56766 0.12808 0.0
C1784 C 0.99837 0.5753 0.14187 0.0
C1785 C 0.99857 0.56398 0.15561 0.0
H1786 H 0.4025 0.43001 0.05002 0.0
H1787 H 0.40814 0.37951 0.05294 0.0
H1788 H 0.42049 0.44308 0.07947 0.0
H1789 H 0.42582 0.3924 0.08274 0.0
H1790 H 0.47094 0.43022 0.12931 0.0
H1791 H 0.4555 0.41815 0.09848 0.0
H1792 H 0.41486 0.4356 0.11085 0.0
H1793 H 0.43026 0.44767 0.14141 0.0
C1794 C 0.40762 0.42171 0.05696 0.0
C1795 C 0.40382 0.40369 0.04924 0.0
C1796 C 0.41784 0.42915 0.07389 0.0
C1797 C 0.42443 0.41869 0.08355 0.0
C1798 C 0.42107 0.40088 0.07559 0.0
C1799 C 0.41087 0.39345 0.05857 0.0
C1800 C 0.45869 0.43142 0.12539 0.0
C1801 C 0.45193 0.44007 0.13771 0.0
C1802 C 0.44984 0.4245 0.10777 0.0
C1803 C 0.43405 0.42606 0.10216 0.0
C1804 C 0.42725 0.43457 0.11457 0.0
C1805 C 0.43609 0.4415 0.1321 0.0
H1806 H 0.67425 0.75615 0.37982 0.0
H1807 H 0.6388 0.70278 0.40423 0.0
H1808 H 0.66913 0.77404 0.4044 0.0
H1809 H 0.63442 0.72067 0.42939 0.0
H1810 H 0.62028 0.75545 0.46797 0.0
H1811 H 0.62098 0.73902 0.43958 0.0
H1812 H 0.67909 0.78393 0.4352 0.0
H1813 H 0.67787 0.80099 0.46272 0.0
C1814 C 0.66538 0.74827 0.3905 0.0
C1815 C 0.65702 0.72812 0.39022 0.0
C1816 C 0.66252 0.75851 0.40466 0.0
C1817 C 0.65151 0.74887 0.41905 0.0
C1818 C 0.64276 0.7286 0.41845 0.0
C1819 C 0.64537 0.71832 0.40411 0.0
C1820 C 0.63303 0.76208 0.46068 0.0
C1821 C 0.64908 0.77948 0.46775 0.0
C1822 C 0.63354 0.75249 0.44453 0.0
C1823 C 0.65016 0.75997 0.43515 0.0
C1824 C 0.66595 0.77775 0.44188 0.0
C1825 C 0.66536 0.78743 0.45787 0.0
H1826 H 0.25173 0.9286 0.4365 0.0
H1827 H 0.28215 0.89782 0.43079 0.0
H1828 H 0.2355 0.90943 0.46153 0.0
H1829 H 0.26564 0.87838 0.45598 0.0
H1830 H 0.21123 0.8341 0.48559 0.0
H1831 H 0.23103 0.85321 0.46193 0.0
H1832 H 0.24464 0.90565 0.49381 0.0
H1833 H 0.22535 0.88671 0.51766 0.0
C1834 C 0.25495 0.91772 0.4406 0.0
C1835 C 0.26822 0.91471 0.43169 0.0
C1836 C 0.24574 0.90682 0.45502 0.0
C1837 C 0.2494 0.8925 0.46077 0.0
C1838 C 0.26254 0.88931 0.45178 0.0
C1839 C 0.272 0.90045 0.43744 0.0
C1840 C 0.21876 0.8497 0.48775 0.0
C1841 C 0.21649 0.85885 0.50346 0.0
C1842 C 0.23007 0.86063 0.47417 0.0
C1843 C 0.23919 0.88089 0.47596 0.0
C1844 C 0.23751 0.89004 0.49194 0.0
C1845 C 0.22638 0.87916 0.50556 0.0
H1846 H 0.10137 0.36847 0.39983 0.0
H1847 H 0.07637 0.30642 0.39622 0.0
H1848 H 0.11746 0.37067 0.42953 0.0
H1849 H 0.09228 0.30866 0.42581 0.0
H1850 H 0.10028 0.31988 0.48869 0.0
H1851 H 0.08748 0.31865 0.45788 0.0
H1852 H 0.14256 0.36334 0.44431 0.0
H1853 H 0.15574 0.36414 0.47509 0.0
C1854 C 0.09949 0.35535 0.40528 0.0
C1855 C 0.08754 0.33727 0.39576 0.0
C1856 C 0.10873 0.35663 0.42221 0.0
C1857 C 0.10595 0.33982 0.43 0.0
C1858 C 0.09448 0.32182 0.4202 0.0
C1859 C 0.08546 0.32056 0.40323 0.0
C1860 C 0.10982 0.32923 0.47912 0.0
C1861 C 0.12913 0.34195 0.48439 0.0
C1862 C 0.10243 0.32857 0.46147 0.0
C1863 C 0.11407 0.34079 0.4487 0.0
C1864 C 0.13328 0.35381 0.45395 0.0
C1865 C 0.14077 0.35431 0.4716 0.0
H1866 H 0.05491 0.2903 0.29844 0.0
H1867 H 0.09744 0.35098 0.30414 0.0
H1868 H 0.06757 0.28668 0.26973 0.0
H1869 H 0.10987 0.34737 0.27563 0.0
H1870 H 0.11252 0.33919 0.21456 0.0
H1871 H 0.09753 0.34002 0.24229 0.0
H1872 H 0.09867 0.28973 0.25888 0.0
H1873 H 0.11417 0.28912 0.2313 0.0
C1874 C 0.06697 0.30281 0.29361 0.0
C1875 C 0.07517 0.32092 0.30352 0.0
C1876 C 0.07421 0.30073 0.27723 0.0
C1877 C 0.08957 0.31679 0.27038 0.0
C1878 C 0.09784 0.3348 0.28043 0.0
C1879 C 0.09079 0.33682 0.29683 0.0
C1880 C 0.10965 0.32833 0.22411 0.0
C1881 C 0.1148 0.31425 0.22078 0.0
C1882 C 0.10101 0.32878 0.23997 0.0
C1883 C 0.09712 0.31506 0.25281 0.0
C1884 C 0.10142 0.30042 0.24915 0.0
C1885 C 0.11025 0.30006 0.23333 0.0
H1886 H 0.71034 0.74152 0.30512 0.0
H1887 H 0.65107 0.72458 0.30123 0.0
H1888 H 0.71551 0.7615 0.27926 0.0
H1889 H 0.65622 0.7445 0.27581 0.0
H1890 H 0.66594 0.76695 0.22053 0.0
H1891 H 0.66365 0.74549 0.24393 0.0
H1892 H 0.71517 0.79151 0.27228 0.0
H1893 H 0.71751 0.81302 0.24869 0.0
C1894 C 0.69844 0.74201 0.29871 0.0
C1895 C 0.68031 0.73148 0.30517 0.0
C1896 C 0.70141 0.7535 0.28399 0.0
C1897 C 0.68624 0.75448 0.27542 0.0
C1898 C 0.66814 0.74381 0.28188 0.0
C1899 C 0.66521 0.73248 0.29656 0.0
C1900 C 0.67681 0.77247 0.23173 0.0
C1901 C 0.69174 0.79174 0.23294 0.0
C1902 C 0.67551 0.76018 0.24512 0.0
C1903 C 0.68909 0.76688 0.26009 0.0
C1904 C 0.70455 0.78589 0.26086 0.0
C1905 C 0.70588 0.79821 0.24738 0.0
H1906 H 0.26687 0.90111 0.33932 0.0
H1907 H 0.24626 0.94114 0.34343 0.0
H1908 H 0.25038 0.88888 0.30906 0.0
H1909 H 0.2296 0.92871 0.31305 0.0
H1910 H 0.1897 0.8864 0.26331 0.0
H1911 H 0.20292 0.89697 0.295 0.0
H1912 H 0.25678 0.90586 0.2792 0.0
H1913 H 0.244 0.89611 0.24759 0.0
C1914 C 0.25858 0.9071 0.33388 0.0
C1915 C 0.25796 0.92218 0.34368 0.0
C1916 C 0.24923 0.90016 0.31652 0.0
C1917 C 0.23889 0.90799 0.30868 0.0
C1918 C 0.23744 0.92239 0.31883 0.0
C1919 C 0.247 0.92952 0.33616 0.0
C1920 C 0.20442 0.89083 0.26654 0.0
C1921 C 0.21571 0.89021 0.25287 0.0
C1922 C 0.21193 0.89679 0.28469 0.0
C1923 C 0.23077 0.90198 0.28953 0.0
C1924 C 0.24209 0.90155 0.27589 0.0
C1925 C 0.2347 0.89587 0.25778 0.0
H1926 H 0.70315 0.95882 0.33273 0.0
H1927 H 0.64351 0.91575 0.32826 0.0
H1928 H 0.7081 0.94184 0.30691 0.0
H1929 H 0.64848 0.89882 0.30269 0.0
H1930 H 0.66036 0.89013 0.24383 0.0
H1931 H 0.65674 0.90637 0.27073 0.0
H1932 H 0.70645 0.91008 0.2978 0.0
H1933 H 0.70994 0.89335 0.27082 0.0
C1934 C 0.69115 0.9457 0.3263 0.0
C1935 C 0.67292 0.93868 0.3324 0.0
C1936 C 0.694 0.93593 0.31162 0.0
C1937 C 0.67865 0.91909 0.30274 0.0
C1938 C 0.66053 0.91191 0.30911 0.0
C1939 C 0.6577 0.92158 0.3238 0.0
C1940 C 0.67036 0.89407 0.2556 0.0
C1941 C 0.68527 0.89015 0.25526 0.0
C1942 C 0.66832 0.90346 0.271 0.0
C1943 C 0.68121 0.90933 0.28641 0.0
C1944 C 0.69636 0.90577 0.28605 0.0
C1945 C 0.69834 0.89622 0.27062 0.0
H1946 H 0.08965 0.74645 0.30062 0.0
H1947 H 0.04497 0.75883 0.28804 0.0
H1948 H 0.10722 0.76562 0.27614 0.0
H1949 H 0.06267 0.77809 0.26329 0.0
H1950 H 0.11293 0.82784 0.23467 0.0
H1951 H 0.09329 0.80883 0.25851 0.0
H1952 H 0.10313 0.76245 0.24226 0.0
H1953 H 0.12246 0.7812 0.21838 0.0
C1954 C 0.08358 0.75331 0.29264 0.0
C1955 C 0.06589 0.75108 0.29621 0.0
C1956 C 0.09361 0.7642 0.27853 0.0
C1957 C 0.08624 0.7732 0.26768 0.0
C1958 C 0.06872 0.77135 0.27148 0.0
C1959 C 0.05858 0.7603 0.28558 0.0
C1960 C 0.11066 0.81347 0.23602 0.0
C1961 C 0.11946 0.80614 0.22476 0.0
C1962 C 0.09943 0.80261 0.24968 0.0
C1963 C 0.09688 0.78426 0.25239 0.0
C1964 C 0.10517 0.77671 0.24075 0.0
C1965 C 0.11628 0.78749 0.22709 0.0
H1966 H 0.23951 0.29464 0.32422 0.0
H1967 H 0.25267 0.35399 0.32896 0.0
H1968 H 0.22078 0.28915 0.29543 0.0
H1969 H 0.23439 0.34869 0.30013 0.0
H1970 H 0.1889 0.33064 0.2548 0.0
H1971 H 0.20277 0.33229 0.28536 0.0
H1972 H 0.22667 0.29866 0.26437 0.0
H1973 H 0.2126 0.29685 0.23389 0.0
C1974 C 0.23831 0.30647 0.31916 0.0
C1975 C 0.24758 0.32475 0.32881 0.0
C1976 C 0.22768 0.30337 0.30263 0.0
C1977 C 0.2261 0.31848 0.29545 0.0
C1978 C 0.23506 0.33664 0.30538 0.0
C1979 C 0.24565 0.33973 0.32186 0.0
C1980 C 0.19704 0.32352 0.25677 0.0
C1981 C 0.19977 0.31372 0.24195 0.0
C1982 C 0.20501 0.32448 0.27426 0.0
C1983 C 0.21597 0.31575 0.2773 0.0
C1984 C 0.21812 0.30535 0.26257 0.0
C1985 C 0.21008 0.30433 0.24509 0.0
H1986 H 0.23414 0.31602 0.416 0.0
H1987 H 0.28173 0.3736 0.42936 0.0
H1988 H 0.22061 0.31794 0.44435 0.0
H1989 H 0.26809 0.37549 0.45796 0.0
H1990 H 0.22404 0.37556 0.49736 0.0
H1991 H 0.23952 0.37601 0.46946 0.0
H1992 H 0.22927 0.31869 0.4774 0.0
H1993 H 0.21413 0.31832 0.50535 0.0
C1994 C 0.24167 0.32915 0.42496 0.0
C1995 C 0.25904 0.34464 0.42048 0.0
C1996 C 0.23398 0.33019 0.44127 0.0
C1997 C 0.2434 0.34677 0.45348 0.0
C1998 C 0.2605 0.36254 0.44878 0.0
C1999 C 0.26831 0.36144 0.43245 0.0
C2000 C 0.22539 0.36319 0.49333 0.0
C2001 C 0.21767 0.34682 0.50351 0.0
C2002 C 0.23421 0.36345 0.47732 0.0
C2003 C 0.23538 0.34729 0.47113 0.0
C2004 C 0.22822 0.3312 0.48163 0.0
C2005 C 0.21953 0.33099 0.49763 0.0
H2006 H 0.62651 0.92705 0.42303 0.0
H2007 H 0.68133 0.9337 0.41444 0.0
H2008 H 0.6224 0.90539 0.44711 0.0
H2009 H 0.6774 0.9125 0.43849 0.0
H2010 H 0.65723 0.85863 0.46813 0.0
H2011 H 0.65828 0.8785 0.44364 0.0
H2012 H 0.63565 0.90583 0.47822 0.0
H2013 H 0.6345 0.88577 0.50279 0.0
C2014 C 0.63767 0.92393 0.42632 0.0
C2015 C 0.6542 0.932 0.41681 0.0
C2016 C 0.63536 0.91161 0.44013 0.0
C2017 C 0.64951 0.9071 0.4446 0.0
C2018 C 0.66607 0.91536 0.43516 0.0
C2019 C 0.66838 0.92763 0.42144 0.0
C2020 C 0.6525 0.8689 0.47052 0.0
C2021 C 0.646 0.87081 0.48745 0.0
C2022 C 0.6531 0.88029 0.4565 0.0
C2023 C 0.64727 0.89392 0.45907 0.0
C2024 C 0.64012 0.89537 0.47578 0.0
C2025 C 0.63949 0.88391 0.48985 0.0
H2026 H 0.07119 0.76431 0.38496 0.0
H2027 H 0.07253 0.71149 0.38883 0.0
H2028 H 0.0891 0.77678 0.41451 0.0
H2029 H 0.09022 0.72387 0.41871 0.0
H2030 H 0.13641 0.7609 0.46519 0.0
H2031 H 0.12083 0.74888 0.43439 0.0
H2032 H 0.08237 0.7694 0.446 0.0
H2033 H 0.0978 0.7813 0.47655 0.0
C2034 C 0.07536 0.75537 0.39212 0.0
C2035 C 0.07036 0.73688 0.38465 0.0
C2036 C 0.08554 0.76248 0.4091 0.0
C2037 C 0.09091 0.75123 0.41905 0.0
C2038 C 0.08639 0.73293 0.41133 0.0
C2039 C 0.07619 0.72581 0.39428 0.0
C2040 C 0.12458 0.76276 0.46114 0.0
C2041 C 0.11848 0.77225 0.47323 0.0
C2042 C 0.11566 0.75587 0.44353 0.0
C2043 C 0.10048 0.75836 0.4377 0.0
C2044 C 0.0943 0.76766 0.4499 0.0
C2045 C 0.10317 0.7745 0.46742 0.0
H2046 H 0.29762 0.0414 0.7228 0.0
H2047 H 0.35802 0.08116 0.73047 0.0
H2048 H 0.29284 0.05818 0.74896 0.0
H2049 H 0.35324 0.09783 0.75636 0.0
H2050 H 0.3398 0.1053 0.81465 0.0
H2051 H 0.3428 0.0887 0.78764 0.0
H2052 H 0.29686 0.09105 0.75916 0.0
H2053 H 0.29402 0.10813 0.78627 0.0
C2054 C 0.30983 0.05376 0.73 0.0
C2055 C 0.3282 0.0599 0.72469 0.0
C2056 C 0.30708 0.06339 0.74488 0.0
C2057 C 0.32269 0.0792 0.75475 0.0
C2058 C 0.34098 0.08552 0.74917 0.0
C2059 C 0.3437 0.07601 0.73429 0.0
C2060 C 0.3305 0.10257 0.80257 0.0
C2061 C 0.31689 0.10836 0.80252 0.0
C2062 C 0.33217 0.09298 0.78712 0.0
C2063 C 0.32019 0.08878 0.77125 0.0
C2064 C 0.30622 0.09407 0.77126 0.0
C2065 C 0.30461 0.10382 0.78675 0.0
H2066 H 0.9627 0.25171 0.77982 0.0
H2067 H 0.90962 0.22796 0.74712 0.0
H2068 H 0.9459 0.23177 0.80454 0.0
H2069 H 0.89294 0.20796 0.77167 0.0
H2070 H 0.87131 0.16326 0.8141 0.0
H2071 H 0.89072 0.18025 0.78929 0.0
H2072 H 0.92157 0.23216 0.82541 0.0
H2073 H 0.90214 0.21518 0.85021 0.0
C2074 C 0.94751 0.24202 0.77782 0.0
C2075 C 0.93744 0.24141 0.76159 0.0
C2076 C 0.93791 0.2307 0.79197 0.0
C2077 C 0.91813 0.21835 0.79001 0.0
C2078 C 0.9082 0.21722 0.7735 0.0
C2079 C 0.91774 0.22873 0.75949 0.0
C2080 C 0.88244 0.17821 0.81679 0.0
C2081 C 0.88521 0.18794 0.83404 0.0
C2082 C 0.89344 0.18794 0.80258 0.0
C2083 C 0.90762 0.20751 0.80544 0.0
C2084 C 0.91085 0.21704 0.82288 0.0
C2085 C 0.89965 0.20738 0.837 0.0
H2086 H 0.7495 0.69647 0.74065 0.0
H2087 H 0.7628 0.65397 0.71963 0.0
H2088 H 0.76651 0.69953 0.76974 0.0
H2089 H 0.78083 0.65777 0.74829 0.0
H2090 H 0.78859 0.64936 0.80818 0.0
H2091 H 0.77534 0.64892 0.77797 0.0
H2092 H 0.79501 0.70992 0.78688 0.0
H2093 H 0.80681 0.70993 0.81779 0.0
C2094 C 0.75646 0.68811 0.74215 0.0
C2095 C 0.75471 0.67487 0.72797 0.0
C2096 C 0.76634 0.68993 0.75881 0.0
C2097 C 0.77499 0.67878 0.76155 0.0
C2098 C 0.77397 0.66623 0.74694 0.0
C2099 C 0.76378 0.66415 0.73042 0.0
C2100 C 0.78992 0.66266 0.80383 0.0
C2101 C 0.79857 0.67961 0.81564 0.0
C2102 C 0.7826 0.6625 0.78627 0.0
C2103 C 0.78401 0.67939 0.77984 0.0
C2104 C 0.79332 0.69653 0.7914 0.0
C2105 C 0.80039 0.69661 0.8091 0.0
H2106 H 0.7115 0.63218 0.62182 0.0
H2107 H 0.76835 0.66858 0.64669 0.0
H2108 H 0.72449 0.62876 0.59328 0.0
H2109 H 0.78124 0.66481 0.61839 0.0
H2110 H 0.79566 0.63711 0.56997 0.0
H2111 H 0.78062 0.63652 0.59825 0.0
H2112 H 0.7454 0.65447 0.57004 0.0
H2113 H 0.76066 0.65532 0.54176 0.0
C2114 C 0.72673 0.6392 0.62126 0.0
C2115 C 0.73894 0.65066 0.63643 0.0
C2116 C 0.73414 0.63733 0.60494 0.0
C2117 C 0.75384 0.64653 0.60369 0.0
C2118 C 0.766 0.65747 0.61905 0.0
C2119 C 0.75862 0.65966 0.6352 0.0
C2120 C 0.78454 0.64068 0.56978 0.0
C2121 C 0.77928 0.64624 0.55372 0.0
C2122 C 0.77602 0.64044 0.58594 0.0
C2123 C 0.76186 0.64543 0.58627 0.0
C2124 C 0.75618 0.65042 0.57008 0.0
C2125 C 0.76496 0.65102 0.55398 0.0
H2126 H 0.376 0.07536 0.63704 0.0
H2127 H 0.31782 0.06129 0.63957 0.0
H2128 H 0.38005 0.09699 0.61299 0.0
H2129 H 0.32166 0.08234 0.61539 0.0
H2130 H 0.33879 0.13594 0.58625 0.0
H2131 H 0.33747 0.11619 0.61094 0.0
H2132 H 0.37011 0.09687 0.58112 0.0
H2133 H 0.37169 0.11702 0.55647 0.0
C2134 C 0.36408 0.07682 0.63239 0.0
C2135 C 0.34663 0.06673 0.64023 0.0
C2136 C 0.36636 0.08913 0.61858 0.0
C2137 C 0.35123 0.09153 0.61237 0.0
C2138 C 0.33374 0.08117 0.6201 0.0
C2139 C 0.33149 0.06899 0.63389 0.0
C2140 C 0.34568 0.12746 0.58498 0.0
C2141 C 0.35515 0.12783 0.56936 0.0
C2142 C 0.34489 0.11611 0.59909 0.0
C2143 C 0.35345 0.10472 0.5979 0.0
C2144 C 0.36347 0.10556 0.58253 0.0
C2145 C 0.36436 0.11706 0.5684 0.0
H2146 H 0.94242 0.24039 0.66676 0.0
H2147 H 0.91475 0.27322 0.67745 0.0
H2148 H 0.9245 0.22811 0.63725 0.0
H2149 H 0.89631 0.26045 0.648 0.0
H2150 H 0.88635 0.25249 0.58462 0.0
H2151 H 0.90088 0.26343 0.61578 0.0
H2152 H 0.89341 0.20696 0.62307 0.0
H2153 H 0.87929 0.19625 0.59182 0.0
C2154 C 0.93233 0.24481 0.66288 0.0
C2155 C 0.93001 0.25779 0.67439 0.0
C2156 C 0.92194 0.23765 0.64599 0.0
C2157 C 0.90889 0.24322 0.64025 0.0
C2158 C 0.90639 0.25603 0.65191 0.0
C2159 C 0.91687 0.26326 0.66881 0.0
C2160 C 0.88758 0.24237 0.59301 0.0
C2161 C 0.88187 0.22359 0.58577 0.0
C2162 C 0.89587 0.24861 0.61088 0.0
C2163 C 0.8985 0.23613 0.62189 0.0
C2164 C 0.89201 0.21708 0.61484 0.0
C2165 C 0.88386 0.21092 0.59697 0.0
H2166 H 0.31627 0.24668 0.66318 0.0
H2167 H 0.3734 0.29503 0.66352 0.0
H2168 H 0.32252 0.23008 0.63826 0.0
H2169 H 0.37987 0.2782 0.63886 0.0
H2170 H 0.37382 0.25277 0.57934 0.0
H2171 H 0.37086 0.26913 0.60666 0.0
H2172 H 0.34009 0.21437 0.63049 0.0
H2173 H 0.34286 0.19798 0.60297 0.0
C2174 C 0.33023 0.25367 0.65804 0.0
C2175 C 0.34431 0.27218 0.66522 0.0
C2176 C 0.33388 0.24409 0.64386 0.0
C2177 C 0.35172 0.2528 0.63657 0.0
C2178 C 0.36592 0.2712 0.64401 0.0
C2179 C 0.36224 0.2808 0.65818 0.0
C2180 C 0.36678 0.24429 0.59058 0.0
C2181 C 0.35852 0.2241 0.58902 0.0
C2182 C 0.36507 0.25366 0.60624 0.0
C2183 C 0.35512 0.24305 0.62072 0.0
C2184 C 0.34753 0.22292 0.61944 0.0
C2185 C 0.34917 0.21355 0.60374 0.0
H2186 H 0.716 0.09331 0.62246 0.0
H2187 H 0.75922 0.07825 0.63231 0.0
H2188 H 0.73331 0.11242 0.59748 0.0
H2189 H 0.7765 0.09741 0.60775 0.0
H2190 H 0.79187 0.11442 0.55068 0.0
H2191 H 0.77266 0.0955 0.57455 0.0
H2192 H 0.76332 0.14206 0.59163 0.0
H2193 H 0.78262 0.16106 0.56761 0.0
C2194 C 0.72922 0.09418 0.61936 0.0
C2195 C 0.73621 0.08422 0.62928 0.0
C2196 C 0.73915 0.10515 0.60512 0.0
C2197 C 0.75618 0.10627 0.60052 0.0
C2198 C 0.76325 0.09655 0.61069 0.0
C2199 C 0.75339 0.08566 0.62487 0.0
C2200 C 0.78577 0.12066 0.55955 0.0
C2201 C 0.78896 0.13932 0.55739 0.0
C2202 C 0.77476 0.10982 0.57324 0.0
C2203 C 0.76666 0.11737 0.58514 0.0
C2204 C 0.76928 0.13579 0.58261 0.0
C2205 C 0.78033 0.14666 0.56886 0.0
H2206 H 0.91034 0.68444 0.66514 0.0
H2207 H 0.90261 0.62739 0.65527 0.0
H2208 H 0.89252 0.68021 0.63614 0.0
H2209 H 0.88457 0.62305 0.62638 0.0
H2210 H 0.88025 0.63666 0.56623 0.0
H2211 H 0.89306 0.63722 0.59688 0.0
H2212 H 0.86112 0.6618 0.61917 0.0
H2213 H 0.84809 0.66107 0.5884 0.0
C2214 C 0.90457 0.67088 0.65691 0.0
C2215 C 0.90797 0.65631 0.66241 0.0
C2216 C 0.89429 0.66842 0.64034 0.0
C2217 C 0.88724 0.65134 0.62891 0.0
C2218 C 0.89005 0.63648 0.63477 0.0
C2219 C 0.90028 0.63892 0.65136 0.0
C2220 C 0.87562 0.64181 0.57768 0.0
C2221 C 0.86316 0.64885 0.57485 0.0
C2222 C 0.88299 0.64215 0.59527 0.0
C2223 C 0.87813 0.64958 0.61046 0.0
C2224 C 0.86532 0.65621 0.6077 0.0
C2225 C 0.85789 0.65581 0.59009 0.0
H2226 H 0.94665 0.7064 0.76091 0.0
H2227 H 0.89928 0.64821 0.75042 0.0
H2228 H 0.93408 0.70944 0.78987 0.0
H2229 H 0.88677 0.65128 0.77898 0.0
H2230 H 0.88062 0.65363 0.83934 0.0
H2231 H 0.89581 0.65328 0.81163 0.0
H2232 H 0.90632 0.71043 0.80223 0.0
H2233 H 0.891 0.71077 0.83006 0.0
C2234 C 0.93352 0.69435 0.76472 0.0
C2235 C 0.92401 0.67704 0.75345 0.0
C2236 C 0.92632 0.69609 0.78125 0.0
C2237 C 0.90956 0.6805 0.78682 0.0
C2238 C 0.89991 0.66341 0.77529 0.0
C2239 C 0.90703 0.66171 0.75883 0.0
C2240 C 0.88617 0.66614 0.83138 0.0
C2241 C 0.88439 0.68212 0.83679 0.0
C2242 C 0.89487 0.66594 0.8155 0.0
C2243 C 0.90202 0.68172 0.80459 0.0
C2244 C 0.90102 0.69809 0.81039 0.0
C2245 C 0.89227 0.69828 0.82633 0.0
H2246 H 0.29182 0.25724 0.75055 0.0
H2247 H 0.35059 0.27247 0.75178 0.0
H2248 H 0.28723 0.23723 0.77629 0.0
H2249 H 0.34598 0.25247 0.77702 0.0
H2250 H 0.33844 0.23175 0.8331 0.0
H2251 H 0.34037 0.25256 0.80921 0.0
H2252 H 0.28684 0.20705 0.7836 0.0
H2253 H 0.28485 0.18619 0.80773 0.0
C2254 C 0.30371 0.2563 0.75629 0.0
C2255 C 0.32157 0.26647 0.74921 0.0
C2256 C 0.30108 0.2448 0.77095 0.0
C2257 C 0.31629 0.24341 0.7788 0.0
C2258 C 0.33406 0.25352 0.77156 0.0
C2259 C 0.33667 0.2649 0.75698 0.0
C2260 C 0.32707 0.22619 0.82239 0.0
C2261 C 0.31164 0.20725 0.82213 0.0
C2262 C 0.32817 0.23811 0.80869 0.0
C2263 C 0.31389 0.23136 0.79435 0.0
C2264 C 0.29802 0.2127 0.79451 0.0
C2265 C 0.29689 0.20075 0.8083 0.0
H2266 H 0.74742 0.04659 0.71876 0.0
H2267 H 0.74481 0.09893 0.71737 0.0
H2268 H 0.76633 0.05875 0.74799 0.0
H2269 H 0.76354 0.11098 0.74663 0.0
H2270 H 0.80959 0.1334 0.79297 0.0
H2271 H 0.79532 0.12189 0.76178 0.0
H2272 H 0.75957 0.06474 0.77941 0.0
H2273 H 0.77359 0.07623 0.81055 0.0
C2274 C 0.75104 0.06076 0.72462 0.0
C2275 C 0.74457 0.07178 0.71584 0.0
C2276 C 0.76178 0.06767 0.74138 0.0
C2277 C 0.76636 0.08578 0.74963 0.0
C2278 C 0.76042 0.09706 0.74053 0.0
C2279 C 0.74959 0.09011 0.72382 0.0
C2280 C 0.79871 0.11837 0.79017 0.0
C2281 C 0.79267 0.10577 0.80428 0.0
C2282 C 0.79056 0.11179 0.77232 0.0
C2283 C 0.77628 0.09243 0.76816 0.0
C2284 C 0.77073 0.07967 0.78212 0.0
C2285 C 0.7788 0.08627 0.79998 0.0
H2286 H 0.0216 0.33816 0.06864 0.0
H2287 H 0.06535 0.36156 0.03067 0.0
H2288 H 0.04149 0.33086 0.08836 0.0
H2289 H 0.08538 0.35432 0.05057 0.0
H2290 H 0.10577 0.31846 0.08151 0.0
H2291 H 0.08579 0.32546 0.06143 0.0
H2292 H 0.07144 0.34886 0.10818 0.0
H2293 H 0.09118 0.34152 0.1283 0.0
C2294 C 0.03549 0.34175 0.0645 0.0
C2295 C 0.04194 0.35044 0.0481 0.0
C2296 C 0.04691 0.33767 0.07587 0.0
C2297 C 0.065 0.34207 0.07104 0.0
C2298 C 0.07142 0.35063 0.05456 0.0
C2299 C 0.06002 0.35485 0.04322 0.0
C2300 C 0.09814 0.32487 0.0875 0.0
C2301 C 0.09987 0.32929 0.10648 0.0
C2302 C 0.0869 0.3291 0.07599 0.0
C2303 C 0.07707 0.33772 0.08323 0.0
C2304 C 0.07872 0.34205 0.10223 0.0
C2305 C 0.09008 0.33796 0.11373 0.0
H2306 H 0.66296 0.66742 0.10773 0.0
H2307 H 0.63637 0.68226 0.0644 0.0
H2308 H 0.67409 0.69894 0.12395 0.0
H2309 H 0.64747 0.71375 0.08064 0.0
H2310 H 0.68732 0.77528 0.10557 0.0
H2311 H 0.67842 0.74417 0.08965 0.0
H2312 H 0.6596 0.71629 0.13971 0.0
H2313 H 0.66875 0.74746 0.15568 0.0
C2314 C 0.65949 0.67741 0.10169 0.0
C2315 C 0.64879 0.6724 0.08482 0.0
C2316 C 0.66581 0.69541 0.111 0.0
C2317 C 0.66169 0.70879 0.10352 0.0
C2318 C 0.65104 0.70379 0.08662 0.0
C2319 C 0.64458 0.68574 0.07739 0.0
C2320 C 0.68159 0.76255 0.11322 0.0
C2321 C 0.67874 0.76375 0.13185 0.0
C2322 C 0.6763 0.74474 0.10408 0.0
C2323 C 0.66822 0.72782 0.11343 0.0
C2324 C 0.6659 0.72911 0.13219 0.0
C2325 C 0.67102 0.7469 0.14129 0.0
H2326 H 0.3296 0.98506 0.05053 0.0
H2327 H 0.33005 0.93341 0.03225 0.0
H2328 H 0.30176 0.96586 0.06708 0.0
H2329 H 0.30193 0.91403 0.04891 0.0
H2330 H 0.26915 0.89399 0.102 0.0
H2331 H 0.29473 0.91057 0.082 0.0
H2332 H 0.26767 0.94094 0.06136 0.0
H2333 H 0.24186 0.92413 0.08111 0.0
C2334 C 0.32366 0.96956 0.04996 0.0
C2335 C 0.33203 0.96073 0.04014 0.0
C2336 C 0.30762 0.95854 0.05935 0.0
C2337 C 0.29964 0.93844 0.05926 0.0
C2338 C 0.30787 0.92953 0.04929 0.0
C2339 C 0.32388 0.94058 0.03971 0.0
C2340 C 0.26844 0.90393 0.09296 0.0
C2341 C 0.25348 0.9078 0.09325 0.0
C2342 C 0.28312 0.91342 0.08151 0.0
C2343 C 0.28323 0.92709 0.07017 0.0
C2344 C 0.26808 0.93065 0.07014 0.0
C2345 C 0.25335 0.92109 0.08151 0.0
H2346 H 0.39184 0.06011 0.0016 0.0
H2347 H 0.33853 0.00969 0.98215 0.0
H2348 H 0.38155 0.08077 0.98769 0.0
H2349 H 0.32799 0.03015 0.96895 0.0
H2350 H 0.32334 0.06912 0.92919 0.0
H2351 H 0.33406 0.04947 0.94397 0.0
H2352 H 0.35985 0.09267 0.98958 0.0
H2353 H 0.34945 0.11262 0.97439 0.0
C2354 C 0.37789 0.05348 0.99448 0.0
C2355 C 0.36606 0.03331 0.9928 0.0
C2356 C 0.37193 0.06529 0.98662 0.0
C2357 C 0.35398 0.05712 0.97706 0.0
C2358 C 0.34206 0.03694 0.97581 0.0
C2359 C 0.34807 0.02519 0.98348 0.0
C2360 C 0.3311 0.0743 0.94248 0.0
C2361 C 0.3354 0.09228 0.95075 0.0
C2362 C 0.33725 0.06305 0.95098 0.0
C2363 C 0.34771 0.0694 0.96805 0.0
C2364 C 0.35202 0.08744 0.97634 0.0
C2365 C 0.34599 0.09881 0.96772 0.0
H2366 H 0.94921 0.29974 0.0109 0.0
H2367 H 0.98622 0.31397 0.96676 0.0
H2368 H 0.92646 0.26908 0.99392 0.0
H2369 H 0.96334 0.28349 0.94972 0.0
H2370 H 0.9035 0.24155 0.91848 0.0
H2371 H 0.92869 0.27073 0.93574 0.0
H2372 H 0.92541 0.23721 0.98121 0.0
H2373 H 0.90036 0.20794 0.9638 0.0
C2374 C 0.9525 0.29627 0.99763 0.0
C2375 C 0.96943 0.30921 0.99011 0.0
C2376 C 0.93956 0.27872 0.98798 0.0
C2377 C 0.9432 0.27402 0.97054 0.0
C2378 C 0.96021 0.28687 0.96311 0.0
C2379 C 0.97329 0.30424 0.97289 0.0
C2380 C 0.90835 0.24044 0.93208 0.0
C2381 C 0.90012 0.2226 0.93985 0.0
C2382 C 0.92275 0.25706 0.9419 0.0
C2383 C 0.9289 0.25615 0.95978 0.0
C2384 C 0.92082 0.23825 0.96747 0.0
C2385 C 0.90665 0.22155 0.9575 0.0
H2386 H 0.6818 0.60765 0.03753 0.0
H2387 H 0.68667 0.66222 0.02628 0.0
H2388 H 0.70936 0.61558 0.02004 0.0
H2389 H 0.71399 0.67007 0.00889 0.0
H2390 H 0.77209 0.68517 0.99122 0.0
H2391 H 0.74739 0.67741 0.01231 0.0
H2392 H 0.71545 0.61931 0.98678 0.0
H2393 H 0.73989 0.6271 0.96547 0.0
C2394 C 0.68889 0.6214 0.03152 0.0
C2395 C 0.68206 0.63428 0.0332 0.0
C2396 C 0.70456 0.62589 0.02144 0.0
C2397 C 0.7138 0.64343 0.01307 0.0
C2398 C 0.70732 0.65655 0.01532 0.0
C2399 C 0.69158 0.65199 0.0252 0.0
C2400 C 0.75977 0.67077 0.99003 0.0
C2401 C 0.75796 0.6568 0.97656 0.0
C2402 C 0.74567 0.6663 0.00217 0.0
C2403 C 0.7295 0.64775 0.00121 0.0
C2404 C 0.72789 0.63365 0.98805 0.0
C2405 C 0.74192 0.63814 0.97583 0.0
H2406 H 0.98254 0.66569 0.98997 0.0
H2407 H 0.93676 0.63746 0.0252 0.0
H2408 H 0.96272 0.6731 0.97025 0.0
H2409 H 0.91685 0.6449 0.00534 0.0
H2410 H 0.89565 0.68093 0.97577 0.0
H2411 H 0.91573 0.67409 0.99591 0.0
H2412 H 0.93354 0.65474 0.94892 0.0
H2413 H 0.91358 0.6618 0.92874 0.0
C2414 C 0.96824 0.6611 0.99353 0.0
C2415 C 0.96119 0.65099 0.00914 0.0
C2416 C 0.95686 0.66525 0.98216 0.0
C2417 C 0.93823 0.65953 0.98622 0.0
C2418 C 0.93122 0.64961 0.00195 0.0
C2419 C 0.94257 0.64529 0.01327 0.0
C2420 C 0.90406 0.67545 0.96975 0.0
C2421 C 0.90323 0.67207 0.95069 0.0
C2422 C 0.91536 0.67132 0.98128 0.0
C2423 C 0.92618 0.66387 0.97399 0.0
C2424 C 0.92547 0.66063 0.95491 0.0
C2425 C 0.91401 0.66458 0.94338 0.0
H2426 H 0.33966 0.33351 0.94819 0.0
H2427 H 0.36646 0.31863 0.9913 0.0
H2428 H 0.32904 0.30226 0.9316 0.0
H2429 H 0.35588 0.28744 0.9747 0.0
H2430 H 0.31594 0.22597 0.94998 0.0
H2431 H 0.3249 0.2571 0.96583 0.0
H2432 H 0.34351 0.28486 0.91569 0.0
H2433 H 0.33428 0.25362 0.89975 0.0
C2434 C 0.34333 0.32359 0.95408 0.0
C2435 C 0.35388 0.32847 0.97103 0.0
C2436 C 0.3373 0.30575 0.94457 0.0
C2437 C 0.34155 0.29241 0.95192 0.0
C2438 C 0.35219 0.29736 0.96883 0.0
C2439 C 0.35836 0.31525 0.97826 0.0
C2440 C 0.32164 0.23867 0.94228 0.0
C2441 C 0.32439 0.23741 0.92363 0.0
C2442 C 0.32696 0.2565 0.95139 0.0
C2443 C 0.33502 0.27339 0.94201 0.0
C2444 C 0.33725 0.27205 0.92323 0.0
C2445 C 0.33208 0.25423 0.91415 0.0
H2446 H 0.65511 0.01371 0.98961 0.0
H2447 H 0.67577 0.06064 0.03159 0.0
H2448 H 0.68187 0.03328 0.972 0.0
H2449 H 0.70275 0.08046 0.01372 0.0
H2450 H 0.75859 0.09885 0.98407 0.0
H2451 H 0.73199 0.08107 0.00291 0.0
H2452 H 0.6931 0.06224 0.95477 0.0
H2453 H 0.71959 0.07953 0.93596 0.0
C2454 C 0.66537 0.02826 0.99507 0.0
C2455 C 0.66331 0.03566 0.01198 0.0
C2456 C 0.68066 0.03952 0.98491 0.0
C2457 C 0.69435 0.05845 0.99141 0.0
C2458 C 0.69245 0.06587 0.00842 0.0
C2459 C 0.67699 0.05459 0.01859 0.0
C2460 C 0.74435 0.09086 0.97755 0.0
C2461 C 0.74119 0.09053 0.95853 0.0
C2462 C 0.72913 0.08086 0.98835 0.0
C2463 C 0.71047 0.07021 0.98031 0.0
C2464 C 0.70733 0.07016 0.96134 0.0
C2465 C 0.72249 0.08021 0.95059 0.0
H2466 H 0.60985 0.9373 0.05164 0.0
H2467 H 0.66315 0.98801 0.07066 0.0
H2468 H 0.62044 0.91685 0.06542 0.0
H2469 H 0.67369 0.96758 0.08441 0.0
H2470 H 0.69211 0.92281 0.09238 0.0
H2471 H 0.68199 0.9421 0.07568 0.0
H2472 H 0.62725 0.91186 0.09783 0.0
H2473 H 0.6374 0.89297 0.11487 0.0
C2474 C 0.62386 0.94405 0.05864 0.0
C2475 C 0.63565 0.96423 0.06016 0.0
C2476 C 0.62988 0.93237 0.06658 0.0
C2477 C 0.64787 0.94065 0.076 0.0
C2478 C 0.65983 0.9608 0.07708 0.0
C2479 C 0.65375 0.97248 0.06931 0.0
C2480 C 0.67795 0.92033 0.09376 0.0
C2481 C 0.66558 0.9063 0.10496 0.0
C2482 C 0.67215 0.93134 0.08415 0.0
C2483 C 0.65382 0.92842 0.08542 0.0
C2484 C 0.64135 0.9142 0.09636 0.0
C2485 C 0.64719 0.90334 0.10608 0.0
H2486 H 0.01339 0.68688 0.08886 0.0
H2487 H 0.05486 0.699 0.04929 0.0
H2488 H 0.03521 0.71749 0.10617 0.0
H2489 H 0.07672 0.72961 0.06668 0.0
H2490 H 0.10377 0.79103 0.09334 0.0
H2491 H 0.07991 0.76161 0.07554 0.0
H2492 H 0.06609 0.73117 0.1247 0.0
H2493 H 0.08974 0.76069 0.14254 0.0
C2494 C 0.02715 0.69613 0.08383 0.0
C2495 C 0.03246 0.69055 0.06775 0.0
C2496 C 0.03965 0.71359 0.09379 0.0
C2497 C 0.05766 0.72591 0.08778 0.0
C2498 C 0.06285 0.72048 0.07153 0.0
C2499 C 0.05039 0.70293 0.06164 0.0
C2500 C 0.09538 0.77813 0.10037 0.0
C2501 C 0.09855 0.77812 0.11932 0.0
C2502 C 0.0819 0.76126 0.09016 0.0
C2503 C 0.07122 0.74409 0.09872 0.0
C2504 C 0.07402 0.74423 0.11775 0.0
C2505 C 0.08762 0.76106 0.12794 0.0
H2506 H 0.32144 0.39323 0.02575 0.0
H2507 H 0.31059 0.33476 0.02558 0.0
H2508 H 0.29484 0.38474 0.04473 0.0
H2509 H 0.28379 0.32611 0.04393 0.0
H2510 H 0.25563 0.32443 0.09642 0.0
H2511 H 0.28003 0.33251 0.07507 0.0
H2512 H 0.26076 0.36613 0.04657 0.0
H2513 H 0.23642 0.35818 0.06819 0.0
C2514 C 0.31314 0.3785 0.02947 0.0
C2515 C 0.31818 0.36471 0.02437 0.0
C2516 C 0.29788 0.3736 0.04031 0.0
C2517 C 0.28735 0.3548 0.0461 0.0
C2518 C 0.29188 0.34083 0.04013 0.0
C2519 C 0.30717 0.34576 0.02949 0.0
C2520 C 0.25647 0.33338 0.08548 0.0
C2521 C 0.24407 0.34062 0.08396 0.0
C2522 C 0.27044 0.33799 0.0732 0.0
C2523 C 0.27229 0.34988 0.059 0.0
C2524 C 0.25986 0.35712 0.05746 0.0
C2525 C 0.24592 0.35255 0.06982 0.0
H2526 H 0.68392 0.65849 0.38701 0.0
H2527 H 0.73103 0.71544 0.38024 0.0
H2528 H 0.7042 0.65228 0.4075 0.0
H2529 H 0.75132 0.70923 0.40091 0.0
H2530 H 0.77327 0.69805 0.45544 0.0
H2531 H 0.75257 0.70367 0.43498 0.0
H2532 H 0.7333 0.64855 0.40538 0.0
H2533 H 0.75446 0.64313 0.42536 0.0
C2534 C 0.69863 0.66966 0.38986 0.0
C2535 C 0.70592 0.68745 0.38204 0.0
C2536 C 0.71023 0.66606 0.40154 0.0
C2537 C 0.72928 0.6803 0.40583 0.0
C2538 C 0.73661 0.69808 0.39795 0.0
C2539 C 0.72506 0.70158 0.38605 0.0
C2540 C 0.76471 0.68715 0.44452 0.0
C2541 C 0.76564 0.67016 0.44203 0.0
C2542 C 0.75286 0.69039 0.43282 0.0
C2543 C 0.74146 0.67661 0.41853 0.0
C2544 C 0.74187 0.65936 0.41637 0.0
C2545 C 0.7539 0.65621 0.42792 0.0
H2546 H 0.32867 -0.00035 0.43915 0.0
H2547 H 0.2996 0.01218 0.39626 0.0
H2548 H 0.33881 0.03108 0.45513 0.0
H2549 H 0.3098 0.0436 0.41223 0.0
H2550 H 0.34846 0.10586 0.43667 0.0
H2551 H 0.34051 0.07497 0.42085 0.0
H2552 H 0.32265 0.04705 0.47102 0.0
H2553 H 0.33074 0.07801 0.48689 0.0
C2554 C 0.3245 0.00914 0.43313 0.0
C2555 C 0.31333 0.00348 0.41648 0.0
C2556 C 0.33023 0.02706 0.4423 0.0
C2557 C 0.32511 0.03975 0.43489 0.0
C2558 C 0.31411 0.03417 0.41815 0.0
C2559 C 0.30819 0.01616 0.40908 0.0
C2560 C 0.34309 0.09316 0.44435 0.0
C2561 C 0.34023 0.09428 0.46299 0.0
C2562 C 0.33838 0.07549 0.43527 0.0
C2563 C 0.33091 0.05864 0.44471 0.0
C2564 C 0.3285 0.05985 0.46345 0.0
C2565 C 0.33301 0.0775 0.47249 0.0
H2566 H 0.99882 0.26998 0.3671 0.0
H2567 H 0.00074 0.3231 0.38435 0.0
H2568 H 0.97105 0.25195 0.38446 0.0
H2569 H 0.97274 0.30519 0.40103 0.0
H2570 H 0.93814 0.27169 0.4469 0.0
H2571 H 0.96461 0.28886 0.42811 0.0
H2572 H 0.93807 0.24121 0.38656 0.0
H2573 H 0.91174 0.22384 0.4057 0.0
C2574 C 0.99314 0.27774 0.3744 0.0
C2575 C 0.00202 0.29793 0.37451 0.0
C2576 C 0.97719 0.26743 0.38428 0.0
C2577 C 0.96974 0.27713 0.39433 0.0
C2578 C 0.97833 0.29728 0.39385 0.0
C2579 C 0.99433 0.30755 0.38417 0.0
C2580 C 0.93788 0.26498 0.43367 0.0
C2581 C 0.92284 0.24648 0.42773 0.0
C2582 C 0.95304 0.27483 0.42286 0.0
C2583 C 0.95347 0.26649 0.40573 0.0
C2584 C 0.93835 0.24797 0.39976 0.0
C2585 C 0.92323 0.23804 0.41068 0.0
H2586 H 0.06543 0.39591 0.33874 0.0
H2587 H 0.01219 0.34781 0.3155 0.0
H2588 H 0.05726 0.41838 0.32528 0.0
H2589 H 0.00407 0.37019 0.30216 0.0
H2590 H 0.98795 0.41653 0.2963 0.0
H2591 H 0.99656 0.39585 0.3125 0.0
H2592 H 0.0526 0.42624 0.29305 0.0
H2593 H 0.04394 0.44658 0.27643 0.0
C2594 C 0.05198 0.39016 0.33083 0.0
C2595 C 0.03947 0.37013 0.32812 0.0
C2596 C 0.04734 0.403 0.3231 0.0
C2597 C 0.03001 0.39601 0.31274 0.0
C2598 C 0.01742 0.37599 0.31026 0.0
C2599 C 0.02214 0.36318 0.31779 0.0
C2600 C 0.00209 0.41877 0.29541 0.0
C2601 C 0.0152 0.43317 0.28497 0.0
C2602 C 0.00702 0.40697 0.30474 0.0
C2603 C 0.02522 0.40943 0.30398 0.0
C2604 C 0.03854 0.42418 0.29404 0.0
C2605 C 0.03356 0.43587 0.28457 0.0
H2606 H 0.65146 0.63912 0.31284 0.0
H2607 H 0.606 0.6478 0.32912 0.0
H2608 H 0.62833 0.60828 0.29659 0.0
H2609 H 0.58298 0.61744 0.31243 0.0
H2610 H 0.5449 0.55407 0.29702 0.0
H2611 H 0.56923 0.58359 0.31405 0.0
H2612 H 0.60614 0.59455 0.27013 0.0
H2613 H 0.58181 0.56453 0.25334 0.0
C2614 C 0.63653 0.63447 0.31286 0.0
C2615 C 0.6305 0.64579 0.3223 0.0
C2616 C 0.62329 0.61686 0.30347 0.0
C2617 C 0.60378 0.61031 0.30326 0.0
C2618 C 0.59785 0.62181 0.31261 0.0
C2619 C 0.61105 0.63929 0.32209 0.0
C2620 C 0.55824 0.56281 0.29105 0.0
C2621 C 0.56145 0.55719 0.27381 0.0
C2622 C 0.57215 0.57976 0.30075 0.0
C2623 C 0.58956 0.59162 0.29336 0.0
C2624 C 0.59296 0.58569 0.27629 0.0
C2625 C 0.57905 0.56856 0.26664 0.0
H2626 H 0.35303 0.94648 0.37749 0.0
H2627 H 0.33805 0.97996 0.34341 0.0
H2628 H 0.37899 0.9525 0.3582 0.0
H2629 H 0.36373 0.98588 0.32435 0.0
H2630 H 0.39442 0.97133 0.2818 0.0
H2631 H 0.36976 0.96503 0.30252 0.0
H2632 H 0.41035 0.98065 0.34882 0.0
H2633 H 0.43511 0.98676 0.32798 0.0
C2634 C 0.35535 0.9552 0.36599 0.0
C2635 C 0.34346 0.96267 0.36192 0.0
C2636 C 0.3702 0.95869 0.35501 0.0
C2637 C 0.37324 0.9695 0.33968 0.0
C2638 C 0.36155 0.97725 0.33589 0.0
C2639 C 0.3469 0.97393 0.3469 0.0
C2640 C 0.39806 0.97325 0.29639 0.0
C2641 C 0.41669 0.97956 0.30327 0.0
C2642 C 0.38398 0.96979 0.30825 0.0
C2643 C 0.38817 0.97244 0.32728 0.0
C2644 C 0.40672 0.97841 0.33421 0.0
C2645 C 0.42089 0.98206 0.32231 0.0
H2646 H 0.64656 0.0074 0.33797 0.0
H2647 H 0.60044 0.95058 0.34693 0.0
H2648 H 0.62558 0.01203 0.3168 0.0
H2649 H 0.5795 0.95518 0.3256 0.0
H2650 H 0.55701 0.96249 0.26939 0.0
H2651 H 0.5782 0.95878 0.29101 0.0
H2652 H 0.5957 0.01478 0.31777 0.0
H2653 H 0.57403 0.01829 0.29665 0.0
C2654 C 0.63191 0.99596 0.3355 0.0
C2655 C 0.62511 0.97863 0.34408 0.0
C2656 C 0.61992 0.99863 0.32342 0.0
C2657 C 0.60098 0.98391 0.31949 0.0
C2658 C 0.59411 0.96667 0.32826 0.0
C2659 C 0.60603 0.96411 0.34055 0.0
C2660 C 0.56527 0.97399 0.27993 0.0
C2661 C 0.56372 0.99067 0.28127 0.0
C2662 C 0.57741 0.97184 0.2923 0.0
C2663 C 0.58847 0.98643 0.30612 0.0
C2664 C 0.58741 0.00336 0.30716 0.0
C2665 C 0.57508 0.00541 0.29495 0.0
H2666 H 0.00661 0.66703 0.28416 0.0
H2667 H 0.0342 0.65357 0.3277 0.0
H2668 H 0.99768 0.63631 0.26741 0.0
H2669 H 0.02537 0.62293 0.31091 0.0
H2670 H 0.98946 0.56147 0.28481 0.0
H2671 H 0.99617 0.59165 0.30115 0.0
H2672 H 0.01375 0.62093 0.2516 0.0
H2673 H 0.00667 0.59061 0.23515 0.0
C2674 C 0.01077 0.65751 0.29013 0.0
C2675 C 0.0211 0.66268 0.30723 0.0
C2676 C 0.00573 0.63998 0.28051 0.0
C2677 C 0.01079 0.62721 0.28788 0.0
C2678 C 0.02107 0.63238 0.30501 0.0
C2679 C 0.02623 0.64996 0.31456 0.0
C2680 C 0.99445 0.57428 0.27734 0.0
C2681 C 0.99752 0.5737 0.2587 0.0
C2682 C 0.99849 0.59159 0.28674 0.0
C2683 C 0.00559 0.60866 0.27767 0.0
C2684 C 0.00819 0.60797 0.25892 0.0
C2685 C 0.00426 0.59068 0.24954 0.0
H2686 H 0.34569 0.35331 0.35536 0.0
H2687 H 0.32845 0.39524 0.34686 0.0
H2688 H 0.37318 0.37138 0.33805 0.0
H2689 H 0.35545 0.41293 0.32856 0.0
H2690 H 0.41308 0.44787 0.30589 0.0
H2691 H 0.38842 0.43237 0.32713 0.0
H2692 H 0.37978 0.37664 0.30765 0.0
H2693 H 0.40496 0.39233 0.28715 0.0
C2694 C 0.34785 0.36647 0.34977 0.0
C2695 C 0.33494 0.37286 0.35235 0.0
C2696 C 0.36351 0.37675 0.33968 0.0
C2697 C 0.36643 0.39347 0.33155 0.0
C2698 C 0.35381 0.40023 0.33471 0.0
C2699 C 0.33829 0.39009 0.34515 0.0
C2700 C 0.4059 0.43231 0.30628 0.0
C2701 C 0.41091 0.42127 0.29496 0.0
C2702 C 0.39171 0.42339 0.31837 0.0
C2703 C 0.38205 0.40321 0.3192 0.0
C2704 C 0.38715 0.39224 0.30777 0.0
C2705 C 0.40152 0.40118 0.29592 0.0
H2706 H 0.28567 0.27666 0.37544 0.0
H2707 H 0.31367 0.31801 0.42206 0.0
H2708 H 0.29652 0.25593 0.38799 0.0
H2709 H 0.32398 0.29712 0.43488 0.0
H2710 H 0.35503 0.26551 0.44574 0.0
H2711 H 0.34557 0.2858 0.43025 0.0
H2712 H 0.29151 0.23543 0.41243 0.0
H2713 H 0.30142 0.21499 0.42701 0.0
C2714 C 0.29401 0.28123 0.38843 0.0
C2715 C 0.29885 0.29894 0.39777 0.0
C2716 C 0.30018 0.26934 0.39565 0.0
C2717 C 0.31123 0.27491 0.4124 0.0
C2718 C 0.31585 0.29256 0.42178 0.0
C2719 C 0.30979 0.30447 0.41451 0.0
C2720 C 0.3413 0.25869 0.43816 0.0
C2721 C 0.32895 0.23861 0.4377 0.0
C2722 C 0.33575 0.27037 0.42951 0.0
C2723 C 0.31767 0.26229 0.4203 0.0
C2724 C 0.30557 0.24214 0.41932 0.0
C2725 C 0.31117 0.23044 0.42787 0.0
H2726 H 0.72362 0.02715 0.38433 0.0
H2727 H 0.68222 0.01953 0.4227 0.0
H2728 H 0.74682 0.05734 0.40132 0.0
H2729 H 0.70559 0.04956 0.43999 0.0
H2730 H 0.74779 0.114 0.45608 0.0
H2731 H 0.72369 0.08458 0.43842 0.0
H2732 H 0.7653 0.0674 0.43033 0.0
H2733 H 0.78944 0.09704 0.4472 0.0
C2734 C 0.71949 0.03193 0.39641 0.0
C2735 C 0.70114 0.02096 0.40223 0.0
C2736 C 0.73281 0.04917 0.40622 0.0
C2737 C 0.7281 0.05578 0.42209 0.0
C2738 C 0.70962 0.04496 0.42773 0.0
C2739 C 0.69627 0.02771 0.41789 0.0
C2740 C 0.75178 0.10397 0.45043 0.0
C2741 C 0.77052 0.10784 0.4531 0.0
C2742 C 0.73795 0.08704 0.44046 0.0
C2743 C 0.7426 0.07367 0.43292 0.0
C2744 C 0.7613 0.07751 0.43573 0.0
C2745 C 0.77509 0.09438 0.44565 0.0
H2746 H 0.99438 0.73338 0.36549 0.0
H2747 H 0.97205 0.67214 0.35457 0.0
H2748 H 0.96784 0.72651 0.38417 0.0
H2749 H 0.94544 0.66533 0.37293 0.0
H2750 H 0.89211 0.6629 0.39514 0.0
H2751 H 0.91652 0.67086 0.37364 0.0
H2752 H 0.95931 0.71001 0.41515 0.0
H2753 H 0.93523 0.70147 0.43697 0.0
C2754 C 0.98361 0.71849 0.36679 0.0
C2755 C 0.98527 0.70329 0.35867 0.0
C2756 C 0.96853 0.71457 0.37753 0.0
C2757 C 0.95468 0.6954 0.38001 0.0
C2758 C 0.95587 0.68023 0.37115 0.0
C2759 C 0.97111 0.68413 0.36071 0.0
C2760 C 0.90673 0.67303 0.39981 0.0
C2761 C 0.91162 0.68147 0.41789 0.0
C2762 C 0.92066 0.67769 0.38742 0.0
C2763 C 0.93973 0.69114 0.39273 0.0
C2764 C 0.94464 0.69984 0.41064 0.0
C2765 C 0.93079 0.69495 0.42311 0.0
H2766 H 0.40149 0.04868 0.70782 0.0
H2767 H 0.35601 0.99232 0.71885 0.0
H2768 H 0.42309 0.045 0.72883 0.0
H2769 H 0.37773 0.98816 0.73924 0.0
H2770 H 0.41576 0.99602 0.79007 0.0
H2771 H 0.39413 0.99913 0.7684 0.0
H2772 H 0.4399 0.02873 0.73333 0.0
H2773 H 0.46149 0.02624 0.75538 0.0
C2774 C 0.39621 0.03536 0.71451 0.0
C2775 C 0.37708 0.02081 0.71175 0.0
C2776 C 0.4086 0.03319 0.72652 0.0
C2777 C 0.40218 0.01629 0.73585 0.0
C2778 C 0.38311 0.00153 0.73263 0.0
C2779 C 0.37068 0.00382 0.7208 0.0
C2780 C 0.4211 0.0032 0.77772 0.0
C2781 C 0.44028 0.01111 0.77447 0.0
C2782 C 0.40873 0.00489 0.76522 0.0
C2783 C 0.41525 0.01424 0.74907 0.0
C2784 C 0.43444 0.02183 0.74577 0.0
C2785 C 0.44681 0.02037 0.75837 0.0
H2786 H 0.96486 0.34239 0.72813 0.0
H2787 H 0.98198 0.32575 0.77725 0.0
H2788 H 0.97213 0.37292 0.74425 0.0
H2789 H 0.98918 0.35625 0.79335 0.0
H2790 H 0.97824 0.40345 0.81929 0.0
H2791 H 0.97126 0.37276 0.80367 0.0
H2792 H 0.00176 0.40306 0.75816 0.0
H2793 H 0.00862 0.43372 0.77373 0.0
C2794 C 0.97009 0.34523 0.74238 0.0
C2795 C 0.97286 0.33172 0.75145 0.0
C2796 C 0.97436 0.36273 0.75156 0.0
C2797 C 0.98127 0.36695 0.77002 0.0
C2798 C 0.98376 0.35331 0.77916 0.0
C2799 C 0.9797 0.3359 0.76992 0.0
C2800 C 0.98347 0.40351 0.80597 0.0
C2801 C 0.99397 0.42092 0.79771 0.0
C2802 C 0.97957 0.386 0.79709 0.0
C2803 C 0.98591 0.38556 0.77969 0.0
C2804 C 0.99656 0.40299 0.7715 0.0
C2805 C 0.00064 0.42052 0.78047 0.0
H2806 H 0.66743 0.60092 0.70315 0.0
H2807 H 0.6653 0.65262 0.717 0.0
H2808 H 0.63986 0.58239 0.72071 0.0
H2809 H 0.63768 0.6342 0.73395 0.0
H2810 H 0.60391 0.60197 0.78041 0.0
H2811 H 0.63077 0.61898 0.76204 0.0
H2812 H 0.60594 0.57027 0.72164 0.0
H2813 H 0.57908 0.55308 0.7403 0.0
C2814 C 0.66097 0.60826 0.7098 0.0
C2815 C 0.6686 0.62822 0.70885 0.0
C2816 C 0.64515 0.59766 0.71978 0.0
C2817 C 0.63668 0.60686 0.72891 0.0
C2818 C 0.64409 0.62673 0.72747 0.0
C2819 C 0.65988 0.63728 0.71764 0.0
C2820 C 0.60409 0.59497 0.76752 0.0
C2821 C 0.58931 0.57628 0.76171 0.0
C2822 C 0.61949 0.60471 0.75697 0.0
C2823 C 0.62045 0.59606 0.74027 0.0
C2824 C 0.60574 0.57726 0.73452 0.0
C2825 C 0.59033 0.56746 0.74516 0.0
H2826 H 0.7283 0.72668 0.66738 0.0
H2827 H 0.67449 0.67644 0.64883 0.0
H2828 H 0.71793 0.74745 0.65388 0.0
H2829 H 0.66389 0.69703 0.636 0.0
H2830 H 0.65866 0.7366 0.59721 0.0
H2831 H 0.66951 0.71665 0.61115 0.0
H2832 H 0.69624 0.7593 0.65708 0.0
H2833 H 0.68565 0.77953 0.64279 0.0
C2834 C 0.71425 0.72011 0.6605 0.0
C2835 C 0.70226 0.69996 0.65903 0.0
C2836 C 0.70824 0.73198 0.65289 0.0
C2837 C 0.69009 0.72391 0.64378 0.0
C2838 C 0.67809 0.70374 0.64257 0.0
C2839 C 0.68413 0.69192 0.65002 0.0
C2840 C 0.66664 0.74159 0.6104 0.0
C2841 C 0.67115 0.75951 0.61902 0.0
C2842 C 0.67288 0.73017 0.6184 0.0
C2843 C 0.68368 0.7363 0.6353 0.0
C2844 C 0.68816 0.75425 0.64395 0.0
C2845 C 0.68202 0.76578 0.63585 0.0
H2846 H 0.31608 0.98365 0.63011 0.0
H2847 H 0.28279 0.96621 0.67707 0.0
H2848 H 0.29331 0.95298 0.61325 0.0
H2849 H 0.26016 0.93548 0.66025 0.0
H2850 H 0.23443 0.87536 0.62947 0.0
H2851 H 0.25958 0.90514 0.64601 0.0
H2852 H 0.25822 0.93785 0.60151 0.0
H2853 H 0.23305 0.90811 0.58503 0.0
C2854 C 0.30397 0.97321 0.63686 0.0
C2855 C 0.30115 0.97731 0.65487 0.0
C2856 C 0.29095 0.95572 0.6272 0.0
C2857 C 0.27503 0.94191 0.63548 0.0
C2858 C 0.27242 0.94583 0.65362 0.0
C2859 C 0.28529 0.96344 0.66319 0.0
C2860 C 0.23973 0.8889 0.62316 0.0
C2861 C 0.23186 0.88952 0.60602 0.0
C2862 C 0.25397 0.9059 0.63265 0.0
C2863 C 0.26076 0.92374 0.62503 0.0
C2864 C 0.25331 0.92425 0.60763 0.0
C2865 C 0.23887 0.9073 0.59826 0.0
H2866 H 0.01502 0.27185 0.70132 0.0
H2867 H 0.0218 0.32848 0.69768 0.0
H2868 H 0.04237 0.28117 0.68327 0.0
H2869 H 0.04931 0.33796 0.68009 0.0
H2870 H 0.07951 0.33829 0.62889 0.0
H2871 H 0.05454 0.33036 0.64956 0.0
H2872 H 0.07655 0.30187 0.68265 0.0
H2873 H 0.10154 0.30975 0.66184 0.0
C2874 C 0.02255 0.28638 0.69693 0.0
C2875 C 0.0162 0.29938 0.70078 0.0
C2876 C 0.03825 0.29175 0.68664 0.0
C2877 C 0.04791 0.31026 0.68006 0.0
C2878 C 0.04196 0.32347 0.68461 0.0
C2879 C 0.02627 0.31808 0.6948 0.0
C2880 C 0.07919 0.33057 0.64071 0.0
C2881 C 0.09252 0.32467 0.64373 0.0
C2882 C 0.06487 0.32602 0.65259 0.0
C2883 C 0.06356 0.31551 0.66781 0.0
C2884 C 0.07701 0.30976 0.67093 0.0
C2885 C 0.09133 0.31429 0.65902 0.0
H2886 H 0.27184 0.29776 0.68853 0.0
H2887 H 0.31849 0.33039 0.6554 0.0
H2888 H 0.25139 0.30447 0.66881 0.0
H2889 H 0.298 0.33668 0.63545 0.0
H2890 H 0.26104 0.36085 0.6149 0.0
H2891 H 0.28168 0.35468 0.63486 0.0
H2892 H 0.23604 0.29608 0.63834 0.0
H2893 H 0.21521 0.30251 0.61912 0.0
C2894 C 0.2777 0.30631 0.67701 0.0
C2895 C 0.29675 0.31355 0.67352 0.0
C2896 C 0.26596 0.31006 0.66563 0.0
C2897 C 0.27303 0.32108 0.6505 0.0
C2898 C 0.29215 0.32837 0.6471 0.0
C2899 C 0.30387 0.32466 0.65849 0.0
C2900 C 0.25541 0.34667 0.61998 0.0
C2901 C 0.23649 0.33217 0.61534 0.0
C2902 C 0.26729 0.34307 0.6313 0.0
C2903 C 0.26052 0.32488 0.63825 0.0
C2904 C 0.24166 0.31032 0.63343 0.0
C2905 C 0.22979 0.31393 0.62215 0.0
H2906 H 0.67246 -0.00023 0.61871 0.0
H2907 H 0.70102 0.98522 0.66036 0.0
H2908 H 0.66135 0.96842 0.60201 0.0
H2909 H 0.68993 0.95398 0.6437 0.0
H2910 H 0.6507 0.89257 0.61908 0.0
H2911 H 0.65902 0.92336 0.63525 0.0
H2912 H 0.67603 0.95161 0.58513 0.0
H2913 H 0.66745 0.9207 0.56887 0.0
C2914 C 0.67633 0.98987 0.62429 0.0
C2915 C 0.68761 0.99491 0.64082 0.0
C2916 C 0.67004 0.97199 0.61471 0.0
C2917 C 0.67472 0.95877 0.62161 0.0
C2918 C 0.68591 0.9638 0.63819 0.0
C2919 C 0.69235 0.98172 0.64766 0.0
C2920 C 0.65589 0.90529 0.61146 0.0
C2921 C 0.65842 0.90427 0.59272 0.0
C2922 C 0.66084 0.92293 0.62075 0.0
C2923 C 0.66828 0.93987 0.61146 0.0
C2924 C 0.67023 0.93875 0.5926 0.0
C2925 C 0.66545 0.92112 0.58333 0.0
H2926 H 0.98657 0.67883 0.6576 0.0
H2927 H 0.006 0.72728 0.69766 0.0
H2928 H 0.01389 0.69771 0.64033 0.0
H2929 H 0.03356 0.74635 0.68017 0.0
H2930 H 0.09025 0.76391 0.65229 0.0
H2931 H 0.06328 0.74635 0.67084 0.0
H2932 H 0.0252 0.7263 0.62204 0.0
H2933 H 0.05203 0.7435 0.60356 0.0
C2934 C 0.99669 0.69355 0.66272 0.0
C2935 C 0.99411 0.70161 0.67896 0.0
C2936 C 0.0123 0.7044 0.65276 0.0
C2937 C 0.0258 0.72354 0.65884 0.0
C2938 C 0.0234 0.73159 0.67522 0.0
C2939 C 0.00761 0.72073 0.68516 0.0
C2940 C 0.0761 0.75569 0.64557 0.0
C2941 C 0.07323 0.75505 0.62648 0.0
C2942 C 0.06068 0.74582 0.65619 0.0
C2943 C 0.04216 0.73493 0.64787 0.0
C2944 C 0.03933 0.73443 0.62881 0.0
C2945 C 0.05467 0.7444 0.61825 0.0
H2946 H 0.99139 0.65121 0.73353 0.0
H2947 H 0.93336 0.60443 0.72541 0.0
H2948 H 0.00045 0.62982 0.74746 0.0
H2949 H 0.94212 0.58317 0.74021 0.0
H2950 H 0.96595 0.54497 0.7548 0.0
H2951 H 0.9582 0.56586 0.73783 0.0
H2952 H 0.99773 0.61481 0.7746 0.0
H2953 H 0.00594 0.59401 0.79091 0.0
C2954 C 0.98056 0.63634 0.73483 0.0
C2955 C 0.96168 0.62946 0.72846 0.0
C2956 C 0.9857 0.62409 0.74293 0.0
C2957 C 0.97201 0.60476 0.74514 0.0
C2958 C 0.95313 0.59786 0.73852 0.0
C2959 C 0.94805 0.61006 0.73014 0.0
C2960 C 0.97302 0.56023 0.7591 0.0
C2961 C 0.98659 0.56794 0.77406 0.0
C2962 C 0.96852 0.5722 0.74948 0.0
C2963 C 0.97731 0.59207 0.75481 0.0
C2964 C 0.99095 0.5997 0.7698 0.0
C2965 C 0.99563 0.58779 0.77923 0.0
H2966 H 0.35002 0.36388 0.73788 0.0
H2967 H 0.394 0.34956 0.73304 0.0
H2968 H 0.37262 0.3943 0.75506 0.0
H2969 H 0.41631 0.37927 0.751 0.0
H2970 H 0.45738 0.44153 0.76837 0.0
H2971 H 0.43425 0.41249 0.74984 0.0
H2972 H 0.39011 0.40819 0.78324 0.0
H2973 H 0.41337 0.43805 0.80104 0.0
C2974 C 0.36451 0.36721 0.74061 0.0
C2975 C 0.37032 0.35447 0.73405 0.0
C2976 C 0.37744 0.38457 0.75058 0.0
C2977 C 0.39638 0.38937 0.75443 0.0
C2978 C 0.40202 0.37638 0.74797 0.0
C2979 C 0.3892 0.35925 0.73775 0.0
C2980 C 0.44269 0.43431 0.77163 0.0
C2981 C 0.43705 0.44177 0.7861 0.0
C2982 C 0.42943 0.41761 0.76114 0.0
C2983 C 0.41026 0.40775 0.76513 0.0
C2984 C 0.40465 0.41546 0.77959 0.0
C2985 C 0.41793 0.43244 0.78988 0.0
H2986 H 0.65366 0.05848 0.68446 0.0
H2987 H 0.65896 0.01448 0.71127 0.0
H2988 H 0.62664 0.05204 0.70221 0.0
H2989 H 0.63257 0.00846 0.72921 0.0
H2990 H 0.57498 0.98913 0.74801 0.0
H2991 H 0.59907 0.99491 0.7269 0.0
H2992 H 0.6197 0.05621 0.73334 0.0
H2993 H 0.59486 0.05031 0.75371 0.0
C2994 C 0.64904 0.04744 0.69411 0.0
C2995 C 0.65839 0.03697 0.69645 0.0
C2996 C 0.63365 0.04382 0.70434 0.0
C2997 C 0.62737 0.02967 0.7171 0.0
C2998 C 0.63674 0.01918 0.71928 0.0
C2999 C 0.652 0.02275 0.70906 0.0
C3000 C 0.5844 0.00381 0.74468 0.0
C3001 C 0.583 0.01925 0.75266 0.0
C3002 C 0.59839 0.00716 0.73273 0.0
C3003 C 0.61147 0.02605 0.72854 0.0
C3004 C 0.6098 0.04147 0.73615 0.0
C3005 C 0.59571 0.0381 0.74805 0.0
loop_
_geom_bond_atom_site_label_1
_geom_bond_atom_site_label_2
_geom_bond_distance
_geom_bond_site_symmetry_2
_ccdc_geom_bond_type
In0 O1 2.294 1_455 S
In0 O2 2.326 . S
In0 O6 2.266 1_455 S
In0 O7 2.326 1_454 S
In0 O8 2.266 1_554 S
In0 O9 2.324 1_455 S
In0 O11 2.294 . S
In0 O12 2.326 . S
O1 In0 2.294 1_655 S
O1 C10 1.232 1_655 S
O2 In0 2.326 . S
O2 C10 1.268 . S
C3 O6 1.217 1_556 S
C3 O7 1.274 . S
C4 O11 1.240 . S
C4 O12 1.252 . S
C5 O8 1.252 . S
C5 O9 1.262 1_456 S
O6 In0 2.266 1_655 S
O6 C3 1.217 1_554 S
O7 In0 2.326 1_656 S
O7 C3 1.274 . S
O8 In0 2.266 1_556 S
O8 C5 1.252 . S
O9 In0 2.324 1_655 S
O9 C5 1.262 1_654 S
C10 O1 1.232 1_455 S
C10 O2 1.268 . S
O11 In0 2.294 . S
O11 C4 1.240 . S
O12 In0 2.326 . S
O12 C4 1.252 . S
In13 O14 2.294 . S
In13 O15 2.326 . S
In13 O19 2.266 . S
In13 O20 2.326 . S
In13 O21 2.266 . S
In13 O22 2.326 . S
In13 O24 2.294 . S
In13 O25 2.326 . S
O14 In13 2.294 . S
O14 C23 1.240 . S
O15 In13 2.326 . S
O15 C23 1.252 . S
C16 O19 1.252 . S
C16 O20 1.260 . S
C17 O24 1.240 . S
C17 O25 1.252 . S
C18 O21 1.252 . S
C18 O22 1.260 . S
O19 In13 2.266 . S
O19 C16 1.252 . S
O20 In13 2.326 . S
O20 C16 1.260 . S
O21 In13 2.266 . S
O21 C18 1.252 . S
O22 In13 2.326 . S
O22 C18 1.260 . S
C23 O14 1.240 . S
C23 O15 1.252 . S
O24 In13 2.294 . S
O24 C17 1.240 . S
O25 In13 2.326 . S
O25 C17 1.252 . S
In26 O27 2.304 . S
In26 O28 2.331 1_554 S
In26 O32 2.268 . S
In26 O33 2.319 1_545 S
In26 O34 2.260 1_545 S
In26 O35 2.327 1_545 S
In26 O37 2.288 1_544 S
In26 O38 2.340 . S
O27 In26 2.304 . S
O27 C36 1.240 . S
O28 In26 2.331 1_556 S
O28 C36 1.252 1_556 S
C29 O32 1.252 . S
C29 O33 1.260 1_545 S
C30 O37 1.240 . S
C30 O38 1.243 1_566 S
C31 O34 1.252 . S
C31 O35 1.260 . S
O32 In26 2.268 . S
O32 C29 1.252 . S
O33 In26 2.319 1_565 S
O33 C29 1.260 1_565 S
O34 In26 2.260 1_565 S
O34 C31 1.252 . S
O35 In26 2.327 1_565 S
O35 C31 1.260 . S
C36 O27 1.240 . S
C36 O28 1.252 1_554 S
O37 In26 2.288 1_566 S
O37 C30 1.240 . S
O38 In26 2.340 . S
O38 C30 1.243 1_544 S
In39 O40 2.292 . S
In39 O41 2.326 1_455 S
In39 O45 2.265 . S
In39 O46 2.326 . S
In39 O47 2.267 1_455 S
In39 O48 2.324 . S
In39 O50 2.296 1_455 S
In39 O51 2.327 1_455 S
O40 In39 2.292 . S
O40 C49 1.260 . S
O41 In39 2.326 1_655 S
O41 C49 1.215 1_655 S
C42 O45 1.252 . S
C42 O46 1.260 . S
C43 O50 1.240 . S
C43 O51 1.252 . S
C44 O47 1.316 . S
C44 O48 1.211 1_655 S
O45 In39 2.265 . S
O45 C42 1.252 . S
O46 In39 2.326 . S
O46 C42 1.260 . S
O47 In39 2.267 1_655 S
O47 C44 1.316 . S
O48 In39 2.324 . S
O48 C44 1.211 1_455 S
C49 O40 1.260 . S
C49 O41 1.215 1_455 S
O50 In39 2.296 1_655 S
O50 C43 1.240 . S
O51 In39 2.327 1_655 S
O51 C43 1.252 . S
In52 O53 2.294 1_554 S
In52 O54 2.326 1_554 S
In52 O58 2.266 . S
In52 O59 2.326 . S
In52 O60 2.266 . S
In52 O61 2.326 . S
In52 O63 2.294 1_554 S
In52 O64 2.326 1_554 S
O53 In52 2.294 1_556 S
O53 C62 1.240 . S
O54 In52 2.326 1_556 S
O54 C62 1.252 . S
C55 O58 1.252 . S
C55 O59 1.260 . S
C56 O63 1.240 . S
C56 O64 1.252 . S
C57 O60 1.252 . S
C57 O61 1.260 . S
O58 In52 2.266 . S
O58 C55 1.252 . S
O59 In52 2.326 . S
O59 C55 1.260 . S
O60 In52 2.266 . S
O60 C57 1.252 . S
O61 In52 2.326 . S
O61 C57 1.260 . S
C62 O53 1.240 . S
C62 O54 1.252 . S
O63 In52 2.294 1_556 S
O63 C56 1.240 . S
O64 In52 2.326 1_556 S
O64 C56 1.252 . S
In65 O66 2.293 . S
In65 O67 2.326 1_545 S
In65 O71 2.265 . S
In65 O72 2.326 . S
In65 O73 2.267 1_545 S
In65 O74 2.324 . S
In65 O76 2.296 1_545 S
In65 O77 2.327 1_545 S
O66 In65 2.293 . S
O66 C75 1.240 . S
O67 In65 2.326 1_565 S
O67 C75 1.252 1_565 S
C68 O71 1.252 . S
C68 O72 1.260 . S
C69 O76 1.240 . S
C69 O77 1.252 . S
C70 O73 1.252 . S
C70 O74 1.260 1_565 S
O71 In65 2.265 . S
O71 C68 1.252 . S
O72 In65 2.326 . S
O72 C68 1.260 . S
O73 In65 2.267 1_565 S
O73 C70 1.252 . S
O74 In65 2.324 . S
O74 C70 1.260 1_545 S
C75 O66 1.240 . S
C75 O67 1.252 1_545 S
O76 In65 2.296 1_565 S
O76 C69 1.240 . S
O77 In65 2.327 1_565 S
O77 C69 1.252 . S
In78 O79 2.294 . S
In78 O80 2.326 . S
In78 O84 2.266 . S
In78 O85 2.326 . S
In78 O86 2.266 . S
In78 O87 2.326 . S
In78 O89 2.294 . S
In78 O90 2.326 . S
O79 In78 2.294 . S
O79 C88 1.240 . S
O80 In78 2.326 . S
O80 C88 1.252 . S
C81 O84 1.252 . S
C81 O85 1.260 . S
C82 O89 1.240 . S
C82 O90 1.252 . S
C83 O86 1.252 . S
C83 O87 1.260 . S
O84 In78 2.266 . S
O84 C81 1.252 . S
O85 In78 2.326 . S
O85 C81 1.260 . S
O86 In78 2.266 . S
O86 C83 1.252 . S
O87 In78 2.326 . S
O87 C83 1.260 . S
C88 O79 1.240 . S
C88 O80 1.252 . S
O89 In78 2.294 . S
O89 C82 1.240 . S
O90 In78 2.326 . S
O90 C82 1.252 . S
In91 O92 2.294 . S
In91 O93 2.326 . S
In91 O97 2.266 . S
In91 O98 2.326 . S
In91 O99 2.266 . S
In91 O100 2.326 . S
In91 O102 2.294 . S
In91 O103 2.326 . S
O92 In91 2.294 . S
O92 C101 1.240 . S
O93 In91 2.326 . S
O93 C101 1.252 . S
C94 O97 1.252 . S
C94 O98 1.260 . S
C95 O102 1.240 . S
C95 O103 1.252 . S
C96 O99 1.252 . S
C96 O100 1.260 . S
O97 In91 2.266 . S
O97 C94 1.252 . S
O98 In91 2.326 . S
O98 C94 1.260 . S
O99 In91 2.266 . S
O99 C96 1.252 . S
O100 In91 2.326 . S
O100 C96 1.260 . S
C101 O92 1.240 . S
C101 O93 1.252 . S
O102 In91 2.294 . S
O102 C95 1.240 . S
O103 In91 2.326 . S
O103 C95 1.252 . S
In104 O105 2.294 . S
In104 O106 2.326 . S
In104 O110 2.266 . S
In104 O111 2.326 . S
In104 O112 2.266 . S
In104 O113 2.326 . S
In104 O115 2.294 . S
In104 O116 2.326 . S
O105 In104 2.294 . S
O105 C114 1.240 . S
O106 In104 2.326 . S
O106 C114 1.252 . S
C107 O110 1.252 . S
C107 O111 1.260 . S
C108 O115 1.240 . S
C108 O116 1.252 . S
C109 O112 1.252 . S
C109 O113 1.260 . S
O110 In104 2.266 . S
O110 C107 1.252 . S
O111 In104 2.326 . S
O111 C107 1.260 . S
O112 In104 2.266 . S
O112 C109 1.252 . S
O113 In104 2.326 . S
O113 C109 1.260 . S
C114 O105 1.240 . S
C114 O106 1.252 . S
O115 In104 2.294 . S
O115 C108 1.240 . S
O116 In104 2.326 . S
O116 C108 1.252 . S
In117 O118 2.294 . S
In117 O119 2.326 . S
In117 O123 2.266 . S
In117 O124 2.326 . S
In117 O125 2.266 . S
In117 O126 2.326 . S
In117 O128 2.294 . S
In117 O129 2.326 . S
O118 In117 2.294 . S
O118 C127 1.240 . S
O119 In117 2.326 . S
O119 C127 1.252 . S
C120 O123 1.252 . S
C120 O124 1.260 . S
C121 O128 1.240 . S
C121 O129 1.252 . S
C122 O125 1.252 . S
C122 O126 1.260 . S
O123 In117 2.266 . S
O123 C120 1.252 . S
O124 In117 2.326 . S
O124 C120 1.260 . S
O125 In117 2.266 . S
O125 C122 1.252 . S
O126 In117 2.326 . S
O126 C122 1.260 . S
C127 O118 1.240 . S
C127 O119 1.252 . S
O128 In117 2.294 . S
O128 C121 1.240 . S
O129 In117 2.326 . S
O129 C121 1.252 . S
In130 O131 2.294 . S
In130 O132 2.326 . S
In130 O136 2.266 . S
In130 O137 2.326 . S
In130 O138 2.266 . S
In130 O139 2.326 . S
In130 O141 2.294 . S
In130 O142 2.326 . S
O131 In130 2.294 . S
O131 C140 1.240 . S
O132 In130 2.326 . S
O132 C140 1.252 . S
C133 O136 1.252 . S
C133 O137 1.260 . S
C134 O141 1.240 . S
C134 O142 1.252 . S
C135 O138 1.252 . S
C135 O139 1.260 . S
O136 In130 2.266 . S
O136 C133 1.252 . S
O137 In130 2.326 . S
O137 C133 1.260 . S
O138 In130 2.266 . S
O138 C135 1.252 . S
O139 In130 2.326 . S
O139 C135 1.260 . S
C140 O131 1.240 . S
C140 O132 1.252 . S
O141 In130 2.294 . S
O141 C134 1.240 . S
O142 In130 2.326 . S
O142 C134 1.252 . S
In143 O144 2.294 . S
In143 O145 2.326 . S
In143 O149 2.266 . S
In143 O150 2.326 . S
In143 O151 2.266 . S
In143 O152 2.326 . S
In143 O154 2.294 . S
In143 O155 2.326 . S
O144 In143 2.294 . S
O144 C153 1.240 . S
O145 In143 2.326 . S
O145 C153 1.252 . S
C146 O149 1.252 . S
C146 O150 1.260 . S
C147 O154 1.240 . S
C147 O155 1.252 . S
C148 O151 1.252 . S
C148 O152 1.260 . S
O149 In143 2.266 . S
O149 C146 1.252 . S
O150 In143 2.326 . S
O150 C146 1.260 . S
O151 In143 2.266 . S
O151 C148 1.252 . S
O152 In143 2.326 . S
O152 C148 1.260 . S
C153 O144 1.240 . S
C153 O145 1.252 . S
O154 In143 2.294 . S
O154 C147 1.240 . S
O155 In143 2.326 . S
O155 C147 1.252 . S
In156 O157 2.294 . S
In156 O158 2.326 . S
In156 O162 2.266 . S
In156 O163 2.326 . S
In156 O164 2.266 . S
In156 O165 2.326 . S
In156 O167 2.294 . S
In156 O168 2.326 . S
O157 In156 2.294 . S
O157 C166 1.240 . S
O158 In156 2.326 . S
O158 C166 1.252 . S
C159 O162 1.252 . S
C159 O163 1.260 . S
C160 O167 1.240 . S
C160 O168 1.252 . S
C161 O164 1.252 . S
C161 O165 1.260 . S
O162 In156 2.266 . S
O162 C159 1.252 . S
O163 In156 2.326 . S
O163 C159 1.260 . S
O164 In156 2.266 . S
O164 C161 1.252 . S
O165 In156 2.326 . S
O165 C161 1.260 . S
C166 O157 1.240 . S
C166 O158 1.252 . S
O167 In156 2.294 . S
O167 C160 1.240 . S
O168 In156 2.326 . S
O168 C160 1.252 . S
In169 O170 2.294 . S
In169 O171 2.326 . S
In169 O175 2.266 . S
In169 O176 2.326 . S
In169 O177 2.266 . S
In169 O178 2.326 . S
In169 O180 2.294 . S
In169 O181 2.326 . S
O170 In169 2.294 . S
O170 C179 1.240 . S
O171 In169 2.326 . S
O171 C179 1.252 . S
C172 O175 1.252 . S
C172 O176 1.260 . S
C173 O180 1.240 . S
C173 O181 1.252 . S
C174 O177 1.252 . S
C174 O178 1.260 . S
O175 In169 2.266 . S
O175 C172 1.252 . S
O176 In169 2.326 . S
O176 C172 1.260 . S
O177 In169 2.266 . S
O177 C174 1.252 . S
O178 In169 2.326 . S
O178 C174 1.260 . S
C179 O170 1.240 . S
C179 O171 1.252 . S
O180 In169 2.294 . S
O180 C173 1.240 . S
O181 In169 2.326 . S
O181 C173 1.252 . S
In182 O183 2.294 . S
In182 O184 2.326 . S
In182 O188 2.266 . S
In182 O189 2.326 . S
In182 O190 2.266 . S
In182 O191 2.326 . S
In182 O193 2.294 . S
In182 O194 2.326 . S
O183 In182 2.294 . S
O183 C192 1.240 . S
O184 In182 2.326 . S
O184 C192 1.252 . S
C185 O188 1.252 . S
C185 O189 1.260 . S
C186 O193 1.240 . S
C186 O194 1.252 . S
C187 O190 1.252 . S
C187 O191 1.260 . S
O188 In182 2.266 . S
O188 C185 1.252 . S
O189 In182 2.326 . S
O189 C185 1.260 . S
O190 In182 2.266 . S
O190 C187 1.252 . S
O191 In182 2.326 . S
O191 C187 1.260 . S
C192 O183 1.240 . S
C192 O184 1.252 . S
O193 In182 2.294 . S
O193 C186 1.240 . S
O194 In182 2.326 . S
O194 C186 1.252 . S
In195 O196 2.294 . S
In195 O197 2.326 . S
In195 O201 2.266 . S
In195 O202 2.326 . S
In195 O203 2.266 . S
In195 O204 2.326 . S
In195 O206 2.294 . S
In195 O207 2.326 . S
O196 In195 2.294 . S
O196 C205 1.240 . S
O197 In195 2.326 . S
O197 C205 1.252 . S
C198 O201 1.252 . S
C198 O202 1.260 . S
C199 O206 1.240 . S
C199 O207 1.252 . S
C200 O203 1.252 . S
C200 O204 1.260 . S
O201 In195 2.266 . S
O201 C198 1.252 . S
O202 In195 2.326 . S
O202 C198 1.260 . S
O203 In195 2.266 . S
O203 C200 1.252 . S
O204 In195 2.326 . S
O204 C200 1.260 . S
C205 O196 1.240 . S
C205 O197 1.252 . S
O206 In195 2.294 . S
O206 C199 1.240 . S
O207 In195 2.326 . S
O207 C199 1.252 . S
In208 O209 2.294 . S
In208 O210 2.326 . S
In208 O214 2.266 . S
In208 O215 2.326 . S
In208 O216 2.266 . S
In208 O217 2.326 . S
In208 O219 2.294 . S
In208 O220 2.326 . S
O209 In208 2.294 . S
O209 C218 1.240 . S
O210 In208 2.326 . S
O210 C218 1.252 . S
C211 O214 1.252 . S
C211 O215 1.260 . S
C212 O219 1.240 . S
C212 O220 1.252 . S
C213 O216 1.252 . S
C213 O217 1.260 . S
O214 In208 2.266 . S
O214 C211 1.252 . S
O215 In208 2.326 . S
O215 C211 1.260 . S
O216 In208 2.266 . S
O216 C213 1.252 . S
O217 In208 2.326 . S
O217 C213 1.260 . S
C218 O209 1.240 . S
C218 O210 1.252 . S
O219 In208 2.294 . S
O219 C212 1.240 . S
O220 In208 2.326 . S
O220 C212 1.252 . S
In221 O222 2.294 . S
In221 O223 2.326 . S
In221 O227 2.266 . S
In221 O228 2.326 . S
In221 O229 2.266 . S
In221 O230 2.326 . S
In221 O232 2.294 . S
In221 O233 2.326 . S
O222 In221 2.294 . S
O222 C231 1.240 . S
O223 In221 2.326 . S
O223 C231 1.252 . S
C224 O227 1.252 . S
C224 O228 1.260 . S
C225 O232 1.240 . S
C225 O233 1.252 . S
C226 O229 1.252 . S
C226 O230 1.260 . S
O227 In221 2.266 . S
O227 C224 1.252 . S
O228 In221 2.326 . S
O228 C224 1.260 . S
O229 In221 2.266 . S
O229 C226 1.252 . S
O230 In221 2.326 . S
O230 C226 1.260 . S
C231 O222 1.240 . S
C231 O223 1.252 . S
O232 In221 2.294 . S
O232 C225 1.240 . S
O233 In221 2.326 . S
O233 C225 1.252 . S
H234 O260 0.856 . S
H235 O263 0.854 . S
H236 C271 0.930 . S
H237 C272 0.930 . S
H238 C274 0.930 . S
H239 C275 0.930 . S
H240 C277 0.931 . S
H241 C278 0.930 . S
H242 C280 0.930 . S
H243 C281 0.929 . S
H244 C283 0.930 . S
H245 C284 0.931 . S
H246 C286 0.930 . S
H247 C287 0.929 . S
H248 C289 0.931 . S
H249 C290 0.930 . S
H250 C292 0.930 . S
H251 C293 0.932 . S
H252 C295 0.930 . S
H253 C296 0.929 . S
H254 C298 0.931 . S
H255 C299 0.930 . S
H256 C301 0.929 . S
H257 C302 0.931 . S
H258 C304 0.930 . S
H259 C305 0.929 . S
O260 H234 0.856 . S
O260 C306 1.300 . S
O261 C306 1.209 . S
O262 C307 1.199 . S
O263 H235 0.854 . S
O263 C307 1.297 . S
C264 C265 1.404 . S
C264 C269 1.397 . S
C264 C270 1.492 . S
C265 C264 1.404 . S
C265 C266 1.396 . S
C265 C276 1.492 . S
C266 C265 1.396 . S
C266 C267 1.397 . S
C266 C282 1.509 . S
C267 C266 1.397 . S
C267 C268 1.412 . S
C267 C288 1.485 . S
C268 C267 1.412 . S
C268 C269 1.388 . S
C268 C294 1.490 . S
C269 C264 1.397 . S
C269 C268 1.388 . S
C269 C300 1.519 . S
C270 C264 1.492 . S
C270 C271 1.363 . S
C270 C275 1.390 . S
C271 H236 0.930 . S
C271 C270 1.363 . S
C271 C272 1.372 . S
C272 H237 0.930 . S
C272 C271 1.372 . S
C272 C273 1.383 . S
C273 C272 1.383 . S
C273 C274 1.395 . S
C274 H238 0.930 . S
C274 C273 1.395 . S
C274 C275 1.362 . S
C275 H239 0.930 . S
C275 C270 1.390 . S
C275 C274 1.362 . S
C276 C265 1.492 . S
C276 C277 1.377 . S
C276 C281 1.397 . S
C277 H240 0.931 . S
C277 C276 1.377 . S
C277 C278 1.376 . S
C278 H241 0.930 . S
C278 C277 1.376 . S
C278 C279 1.376 . S
C279 C278 1.376 . S
C279 C280 1.378 . S
C279 C306 1.486 . S
C280 H242 0.930 . S
C280 C279 1.378 . S
C280 C281 1.376 . S
C281 H243 0.929 . S
C281 C276 1.397 . S
C281 C280 1.376 . S
C282 C266 1.509 . S
C282 C283 1.391 . S
C282 C287 1.386 . S
C283 H244 0.930 . S
C283 C282 1.391 . S
C283 C284 1.375 . S
C284 H245 0.931 . S
C284 C283 1.375 . S
C284 C285 1.375 . S
C285 C284 1.375 . S
C285 C286 1.361 . S
C286 H246 0.930 . S
C286 C285 1.361 . S
C286 C287 1.399 . S
C287 H247 0.929 . S
C287 C282 1.386 . S
C287 C286 1.399 . S
C288 C267 1.485 . S
C288 C289 1.394 . S
C288 C293 1.360 . S
C289 H248 0.931 . S
C289 C288 1.394 . S
C289 C290 1.372 . S
C290 H249 0.930 . S
C290 C289 1.372 . S
C290 C291 1.397 . S
C291 C290 1.397 . S
C291 C292 1.390 . S
C291 C307 1.476 . S
C292 H250 0.930 . S
C292 C291 1.390 . S
C292 C293 1.366 . S
C293 H251 0.932 . S
C293 C288 1.360 . S
C293 C292 1.366 . S
C294 C268 1.490 . S
C294 C295 1.380 . S
C294 C299 1.386 . S
C295 H252 0.930 . S
C295 C294 1.380 . S
C295 C296 1.381 . S
C296 H253 0.929 . S
C296 C295 1.381 . S
C296 C297 1.371 . S
C297 C296 1.371 . S
C297 C298 1.380 . S
C298 H254 0.931 . S
C298 C297 1.380 . S
C298 C299 1.387 . S
C299 H255 0.930 . S
C299 C294 1.386 . S
C299 C298 1.387 . S
C300 C269 1.519 . S
C300 C301 1.377 . S
C300 C305 1.361 . S
C301 H256 0.929 . S
C301 C300 1.377 . S
C301 C302 1.386 . S
C302 H257 0.931 . S
C302 C301 1.386 . S
C302 C303 1.363 . S
C303 C302 1.363 . S
C303 C304 1.385 . S
C304 H258 0.930 . S
C304 C303 1.385 . S
C304 C305 1.396 . S
C305 H259 0.929 . S
C305 C300 1.361 . S
C305 C304 1.396 . S
C306 O260 1.300 . S
C306 O261 1.209 . S
C306 C279 1.486 . S
C307 O262 1.199 . S
C307 O263 1.297 . S
C307 C291 1.476 . S
H308 O334 0.856 . S
H309 O337 0.854 . S
H310 C345 0.930 . S
H311 C346 0.930 . S
H312 C348 0.930 . S
H313 C349 0.930 . S
H314 C351 0.931 . S
H315 C352 0.930 . S
H316 C354 0.930 . S
H317 C355 0.929 . S
H318 C357 0.930 . S
H319 C358 0.931 . S
H320 C360 0.930 . S
H321 C361 0.929 . S
H322 C363 0.931 . S
H323 C364 0.930 . S
H324 C366 0.930 . S
H325 C367 0.932 . S
H326 C369 0.930 . S
H327 C370 0.929 . S
H328 C372 0.931 . S
H329 C373 0.930 . S
H330 C375 0.929 . S
H331 C376 0.931 . S
H332 C378 0.930 . S
H333 C379 0.929 . S
O334 H308 0.856 . S
O334 C380 1.300 . S
O335 C380 1.209 . S
O336 C381 1.199 . S
O337 H309 0.854 . S
O337 C381 1.297 . S
C338 C339 1.404 . S
C338 C343 1.397 . S
C338 C344 1.492 . S
C339 C338 1.404 . S
C339 C340 1.396 . S
C339 C350 1.492 . S
C340 C339 1.396 . S
C340 C341 1.397 . S
C340 C356 1.509 . S
C341 C340 1.397 . S
C341 C342 1.412 . S
C341 C362 1.485 . S
C342 C341 1.412 . S
C342 C343 1.388 . S
C342 C368 1.490 . S
C343 C338 1.397 . S
C343 C342 1.388 . S
C343 C374 1.519 . S
C344 C338 1.492 . S
C344 C345 1.363 . S
C344 C349 1.390 . S
C345 H310 0.930 . S
C345 C344 1.363 . S
C345 C346 1.372 . S
C346 H311 0.930 . S
C346 C345 1.372 . S
C346 C347 1.383 . S
C347 C346 1.383 . S
C347 C348 1.395 . S
C348 H312 0.930 . S
C348 C347 1.395 . S
C348 C349 1.362 . S
C349 H313 0.930 . S
C349 C344 1.390 . S
C349 C348 1.362 . S
C350 C339 1.492 . S
C350 C351 1.377 . S
C350 C355 1.397 . S
C351 H314 0.931 . S
C351 C350 1.377 . S
C351 C352 1.376 . S
C352 H315 0.930 . S
C352 C351 1.376 . S
C352 C353 1.376 . S
C353 C352 1.376 . S
C353 C354 1.378 . S
C353 C380 1.486 . S
C354 H316 0.930 . S
C354 C353 1.378 . S
C354 C355 1.376 . S
C355 H317 0.929 . S
C355 C350 1.397 . S
C355 C354 1.376 . S
C356 C340 1.509 . S
C356 C357 1.391 . S
C356 C361 1.386 . S
C357 H318 0.930 . S
C357 C356 1.391 . S
C357 C358 1.375 . S
C358 H319 0.931 . S
C358 C357 1.375 . S
C358 C359 1.375 . S
C359 C358 1.375 . S
C359 C360 1.361 . S
C360 H320 0.930 . S
C360 C359 1.361 . S
C360 C361 1.399 . S
C361 H321 0.929 . S
C361 C356 1.386 . S
C361 C360 1.399 . S
C362 C341 1.485 . S
C362 C363 1.394 . S
C362 C367 1.360 . S
C363 H322 0.931 . S
C363 C362 1.394 . S
C363 C364 1.372 . S
C364 H323 0.930 . S
C364 C363 1.372 . S
C364 C365 1.397 . S
C365 C364 1.397 . S
C365 C366 1.390 . S
C365 C381 1.476 . S
C366 H324 0.930 . S
C366 C365 1.390 . S
C366 C367 1.366 . S
C367 H325 0.932 . S
C367 C362 1.360 . S
C367 C366 1.366 . S
C368 C342 1.490 . S
C368 C369 1.380 . S
C368 C373 1.386 . S
C369 H326 0.930 . S
C369 C368 1.380 . S
C369 C370 1.381 . S
C370 H327 0.929 . S
C370 C369 1.381 . S
C370 C371 1.371 . S
C371 C370 1.371 . S
C371 C372 1.380 . S
C372 H328 0.931 . S
C372 C371 1.380 . S
C372 C373 1.387 . S
C373 H329 0.930 . S
C373 C368 1.386 . S
C373 C372 1.387 . S
C374 C343 1.519 . S
C374 C375 1.377 . S
C374 C379 1.361 . S
C375 H330 0.929 . S
C375 C374 1.377 . S
C375 C376 1.386 . S
C376 H331 0.931 . S
C376 C375 1.386 . S
C376 C377 1.363 . S
C377 C376 1.363 . S
C377 C378 1.385 . S
C378 H332 0.930 . S
C378 C377 1.385 . S
C378 C379 1.396 . S
C379 H333 0.929 . S
C379 C374 1.361 . S
C379 C378 1.396 . S
C380 O334 1.300 . S
C380 O335 1.209 . S
C380 C353 1.486 . S
C381 O336 1.199 . S
C381 O337 1.297 . S
C381 C365 1.476 . S
H382 O408 0.856 . S
H383 O411 0.854 . S
H384 C419 0.930 . S
H385 C420 0.930 . S
H386 C422 0.930 . S
H387 C423 0.930 . S
H388 C425 0.931 . S
H389 C426 0.930 . S
H390 C428 0.930 . S
H391 C429 0.929 . S
H392 C431 0.930 . S
H393 C432 0.931 . S
H394 C434 0.930 . S
H395 C435 0.929 . S
H396 C437 0.931 . S
H397 C438 0.930 . S
H398 C440 0.930 . S
H399 C441 0.932 . S
H400 C443 0.930 . S
H401 C444 0.929 . S
H402 C446 0.931 . S
H403 C447 0.930 . S
H404 C449 0.929 . S
H405 C450 0.931 . S
H406 C452 0.930 . S
H407 C453 0.929 . S
O408 H382 0.856 . S
O408 C454 1.300 . S
O409 C454 1.209 . S
O410 C455 1.199 . S
O411 H383 0.854 . S
O411 C455 1.297 . S
C412 C413 1.404 . S
C412 C417 1.397 . S
C412 C418 1.492 . S
C413 C412 1.404 . S
C413 C414 1.396 . S
C413 C424 1.492 . S
C414 C413 1.396 . S
C414 C415 1.397 . S
C414 C430 1.509 . S
C415 C414 1.397 . S
C415 C416 1.412 . S
C415 C436 1.485 . S
C416 C415 1.412 . S
C416 C417 1.388 . S
C416 C442 1.490 . S
C417 C412 1.397 . S
C417 C416 1.388 . S
C417 C448 1.519 . S
C418 C412 1.492 . S
C418 C419 1.363 . S
C418 C423 1.390 . S
C419 H384 0.930 . S
C419 C418 1.363 . S
C419 C420 1.372 . S
C420 H385 0.930 . S
C420 C419 1.372 . S
C420 C421 1.383 . S
C421 C420 1.383 . S
C421 C422 1.395 . S
C422 H386 0.930 . S
C422 C421 1.395 . S
C422 C423 1.362 . S
C423 H387 0.930 . S
C423 C418 1.390 . S
C423 C422 1.362 . S
C424 C413 1.492 . S
C424 C425 1.377 . S
C424 C429 1.397 . S
C425 H388 0.931 . S
C425 C424 1.377 . S
C425 C426 1.376 . S
C426 H389 0.930 . S
C426 C425 1.376 . S
C426 C427 1.376 . S
C427 C426 1.376 . S
C427 C428 1.378 . S
C427 C454 1.486 . S
C428 H390 0.930 . S
C428 C427 1.378 . S
C428 C429 1.376 . S
C429 H391 0.929 . S
C429 C424 1.397 . S
C429 C428 1.376 . S
C430 C414 1.509 . S
C430 C431 1.391 . S
C430 C435 1.386 . S
C431 H392 0.930 . S
C431 C430 1.391 . S
C431 C432 1.375 . S
C432 H393 0.931 . S
C432 C431 1.375 . S
C432 C433 1.375 . S
C433 C432 1.375 . S
C433 C434 1.361 . S
C434 H394 0.930 . S
C434 C433 1.361 . S
C434 C435 1.399 . S
C435 H395 0.929 . S
C435 C430 1.386 . S
C435 C434 1.399 . S
C436 C415 1.485 . S
C436 C437 1.394 . S
C436 C441 1.360 . S
C437 H396 0.931 . S
C437 C436 1.394 . S
C437 C438 1.372 . S
C438 H397 0.930 . S
C438 C437 1.372 . S
C438 C439 1.397 . S
C439 C438 1.397 . S
C439 C440 1.390 . S
C439 C455 1.476 . S
C440 H398 0.930 . S
C440 C439 1.390 . S
C440 C441 1.366 . S
C441 H399 0.932 . S
C441 C436 1.360 . S
C441 C440 1.366 . S
C442 C416 1.490 . S
C442 C443 1.380 . S
C442 C447 1.386 . S
C443 H400 0.930 . S
C443 C442 1.380 . S
C443 C444 1.381 . S
C444 H401 0.929 . S
C444 C443 1.381 . S
C444 C445 1.371 . S
C445 C444 1.371 . S
C445 C446 1.380 . S
C446 H402 0.931 . S
C446 C445 1.380 . S
C446 C447 1.387 . S
C447 H403 0.930 . S
C447 C442 1.386 . S
C447 C446 1.387 . S
C448 C417 1.519 . S
C448 C449 1.377 . S
C448 C453 1.361 . S
C449 H404 0.929 . S
C449 C448 1.377 . S
C449 C450 1.386 . S
C450 H405 0.931 . S
C450 C449 1.386 . S
C450 C451 1.363 . S
C451 C450 1.363 . S
C451 C452 1.385 . S
C452 H406 0.930 . S
C452 C451 1.385 . S
C452 C453 1.396 . S
C453 H407 0.929 . S
C453 C448 1.361 . S
C453 C452 1.396 . S
C454 O408 1.300 . S
C454 O409 1.209 . S
C454 C427 1.486 . S
C455 O410 1.199 . S
C455 O411 1.297 . S
C455 C439 1.476 . S
H456 O482 0.856 1_554 S
H457 O485 0.854 . S
H458 C493 0.930 . S
H459 C494 0.930 . S
H460 C496 0.930 . S
H461 C497 0.930 . S
H462 C499 0.931 . S
H463 C500 0.930 . S
H464 C502 0.930 . S
H465 C503 0.929 . S
H466 C505 0.930 . S
H467 C506 0.931 . S
H468 C508 0.930 . S
H469 C509 0.929 . S
H470 C511 0.931 . S
H471 C512 0.930 . S
H472 C514 0.930 . S
H473 C515 0.932 . S
H474 C517 0.930 . S
H475 C518 0.929 . S
H476 C520 0.931 . S
H477 C521 0.930 . S
H478 C523 0.929 . S
H479 C524 0.931 . S
H480 C526 0.930 . S
H481 C527 0.929 . S
O482 H456 0.856 1_556 S
O482 C528 1.300 . S
O483 C528 1.209 . S
O484 C529 1.199 . S
O485 H457 0.854 . S
O485 C529 1.297 . S
C486 C487 1.404 . S
C486 C491 1.397 . S
C486 C492 1.492 . S
C487 C486 1.404 . S
C487 C488 1.396 . S
C487 C498 1.492 . S
C488 C487 1.396 . S
C488 C489 1.397 . S
C488 C504 1.509 . S
C489 C488 1.397 . S
C489 C490 1.412 . S
C489 C510 1.485 . S
C490 C489 1.412 . S
C490 C491 1.388 . S
C490 C516 1.490 . S
C491 C486 1.397 . S
C491 C490 1.388 . S
C491 C522 1.519 . S
C492 C486 1.492 . S
C492 C493 1.363 . S
C492 C497 1.390 . S
C493 H458 0.930 . S
C493 C492 1.363 . S
C493 C494 1.372 . S
C494 H459 0.930 . S
C494 C493 1.372 . S
C494 C495 1.383 . S
C495 C494 1.383 . S
C495 C496 1.395 . S
C496 H460 0.930 . S
C496 C495 1.395 . S
C496 C497 1.362 . S
C497 H461 0.930 . S
C497 C492 1.390 . S
C497 C496 1.362 . S
C498 C487 1.492 . S
C498 C499 1.377 . S
C498 C503 1.397 . S
C499 H462 0.931 . S
C499 C498 1.377 . S
C499 C500 1.376 . S
C500 H463 0.930 . S
C500 C499 1.376 . S
C500 C501 1.376 . S
C501 C500 1.376 . S
C501 C502 1.378 . S
C501 C528 1.486 . S
C502 H464 0.930 . S
C502 C501 1.378 . S
C502 C503 1.376 . S
C503 H465 0.929 . S
C503 C498 1.397 . S
C503 C502 1.376 . S
C504 C488 1.509 . S
C504 C505 1.391 . S
C504 C509 1.386 . S
C505 H466 0.930 . S
C505 C504 1.391 . S
C505 C506 1.375 . S
C506 H467 0.931 . S
C506 C505 1.375 . S
C506 C507 1.375 . S
C507 C506 1.375 . S
C507 C508 1.361 . S
C508 H468 0.930 . S
C508 C507 1.361 . S
C508 C509 1.399 . S
C509 H469 0.929 . S
C509 C504 1.386 . S
C509 C508 1.399 . S
C510 C489 1.485 . S
C510 C511 1.394 . S
C510 C515 1.360 . S
C511 H470 0.931 . S
C511 C510 1.394 . S
C511 C512 1.372 . S
C512 H471 0.930 . S
C512 C511 1.372 . S
C512 C513 1.397 . S
C513 C512 1.397 . S
C513 C514 1.390 . S
C513 C529 1.476 . S
C514 H472 0.930 . S
C514 C513 1.390 . S
C514 C515 1.366 . S
C515 H473 0.932 . S
C515 C510 1.360 . S
C515 C514 1.366 . S
C516 C490 1.490 . S
C516 C517 1.380 . S
C516 C521 1.386 . S
C517 H474 0.930 . S
C517 C516 1.380 . S
C517 C518 1.381 . S
C518 H475 0.929 . S
C518 C517 1.381 . S
C518 C519 1.371 . S
C519 C518 1.371 . S
C519 C520 1.380 . S
C520 H476 0.931 . S
C520 C519 1.380 . S
C520 C521 1.387 . S
C521 H477 0.930 . S
C521 C516 1.386 . S
C521 C520 1.387 . S
C522 C491 1.519 . S
C522 C523 1.377 . S
C522 C527 1.361 . S
C523 H478 0.929 . S
C523 C522 1.377 . S
C523 C524 1.386 . S
C524 H479 0.931 . S
C524 C523 1.386 . S
C524 C525 1.363 . S
C525 C524 1.363 . S
C525 C526 1.385 . S
C526 H480 0.930 . S
C526 C525 1.385 . S
C526 C527 1.396 . S
C527 H481 0.929 . S
C527 C522 1.361 . S
C527 C526 1.396 . S
C528 O482 1.300 . S
C528 O483 1.209 . S
C528 C501 1.486 . S
C529 O484 1.199 . S
C529 O485 1.297 . S
C529 C513 1.476 . S
H530 O556 0.856 . S
H531 O559 0.854 . S
H532 C567 0.930 . S
H533 C568 0.930 . S
H534 C570 0.930 . S
H535 C571 0.930 . S
H536 C573 0.931 . S
H537 C574 0.930 . S
H538 C576 0.930 . S
H539 C577 0.929 . S
H540 C579 0.930 . S
H541 C580 0.931 . S
H542 C582 0.930 . S
H543 C583 0.929 . S
H544 C585 0.931 . S
H545 C586 0.930 . S
H546 C588 0.930 . S
H547 C589 0.932 . S
H548 C591 0.930 . S
H549 C592 0.929 . S
H550 C594 0.931 . S
H551 C595 0.930 . S
H552 C597 0.929 . S
H553 C598 0.931 . S
H554 C600 0.930 . S
H555 C601 0.929 . S
O556 H530 0.856 . S
O556 C602 1.300 1_554 S
O557 C602 1.194 1_554 S
O558 C603 1.199 . S
O559 H531 0.854 . S
O559 C603 1.297 . S
C560 C561 1.404 . S
C560 C565 1.397 . S
C560 C566 1.492 . S
C561 C560 1.404 . S
C561 C562 1.396 . S
C561 C572 1.492 . S
C562 C561 1.396 . S
C562 C563 1.397 . S
C562 C578 1.509 . S
C563 C562 1.397 . S
C563 C564 1.412 . S
C563 C584 1.485 . S
C564 C563 1.412 . S
C564 C565 1.388 . S
C564 C590 1.490 . S
C565 C560 1.397 . S
C565 C564 1.388 . S
C565 C596 1.519 . S
C566 C560 1.492 . S
C566 C567 1.363 . S
C566 C571 1.390 . S
C567 H532 0.930 . S
C567 C566 1.363 . S
C567 C568 1.372 . S
C568 H533 0.930 . S
C568 C567 1.372 . S
C568 C569 1.383 . S
C569 C568 1.383 . S
C569 C570 1.395 . S
C570 H534 0.930 . S
C570 C569 1.395 . S
C570 C571 1.362 . S
C571 H535 0.930 . S
C571 C566 1.390 . S
C571 C570 1.362 . S
C572 C561 1.492 . S
C572 C573 1.377 . S
C572 C577 1.397 . S
C573 H536 0.931 . S
C573 C572 1.377 . S
C573 C574 1.376 . S
C574 H537 0.930 . S
C574 C573 1.376 . S
C574 C575 1.376 . S
C575 C574 1.376 . S
C575 C576 1.378 . S
C575 C602 1.486 . S
C576 H538 0.930 . S
C576 C575 1.378 . S
C576 C577 1.376 . S
C577 H539 0.929 . S
C577 C572 1.397 . S
C577 C576 1.376 . S
C578 C562 1.509 . S
C578 C579 1.391 . S
C578 C583 1.386 . S
C579 H540 0.930 . S
C579 C578 1.391 . S
C579 C580 1.375 . S
C580 H541 0.931 . S
C580 C579 1.375 . S
C580 C581 1.375 . S
C581 C580 1.375 . S
C581 C582 1.361 . S
C582 H542 0.930 . S
C582 C581 1.361 . S
C582 C583 1.399 . S
C583 H543 0.929 . S
C583 C578 1.386 . S
C583 C582 1.399 . S
C584 C563 1.485 . S
C584 C585 1.394 . S
C584 C589 1.360 . S
C585 H544 0.931 . S
C585 C584 1.394 . S
C585 C586 1.372 . S
C586 H545 0.930 . S
C586 C585 1.372 . S
C586 C587 1.397 . S
C587 C586 1.397 . S
C587 C588 1.390 . S
C587 C603 1.476 . S
C588 H546 0.930 . S
C588 C587 1.390 . S
C588 C589 1.366 . S
C589 H547 0.932 . S
C589 C584 1.360 . S
C589 C588 1.366 . S
C590 C564 1.490 . S
C590 C591 1.380 . S
C590 C595 1.386 . S
C591 H548 0.930 . S
C591 C590 1.380 . S
C591 C592 1.381 . S
C592 H549 0.929 . S
C592 C591 1.381 . S
C592 C593 1.371 . S
C593 C592 1.371 . S
C593 C594 1.380 . S
C594 H550 0.931 . S
C594 C593 1.380 . S
C594 C595 1.387 . S
C595 H551 0.930 . S
C595 C590 1.386 . S
C595 C594 1.387 . S
C596 C565 1.519 . S
C596 C597 1.377 . S
C596 C601 1.361 . S
C597 H552 0.929 . S
C597 C596 1.377 . S
C597 C598 1.386 . S
C598 H553 0.931 . S
C598 C597 1.386 . S
C598 C599 1.363 . S
C599 C598 1.363 . S
C599 C600 1.385 . S
C600 H554 0.930 . S
C600 C599 1.385 . S
C600 C601 1.396 . S
C601 H555 0.929 . S
C601 C596 1.361 . S
C601 C600 1.396 . S
C602 O556 1.300 1_556 S
C602 O557 1.194 1_556 S
C602 C575 1.486 . S
C603 O558 1.199 . S
C603 O559 1.297 . S
C603 C587 1.476 . S
H604 O630 0.856 . S
H605 O633 0.854 . S
H606 C641 0.930 . S
H607 C642 0.930 . S
H608 C644 0.930 . S
H609 C645 0.930 . S
H610 C647 0.931 . S
H611 C648 0.930 . S
H612 C650 0.930 . S
H613 C651 0.929 . S
H614 C653 0.930 . S
H615 C654 0.931 . S
H616 C656 0.930 . S
H617 C657 0.929 . S
H618 C659 0.931 . S
H619 C660 0.930 . S
H620 C662 0.930 . S
H621 C663 0.932 . S
H622 C665 0.930 . S
H623 C666 0.929 . S
H624 C668 0.931 . S
H625 C669 0.930 . S
H626 C671 0.929 . S
H627 C672 0.931 . S
H628 C674 0.930 . S
H629 C675 0.929 . S
O630 H604 0.856 . S
O630 C676 1.303 . S
O631 C676 1.210 . S
O632 C677 1.199 . S
O633 H605 0.854 . S
O633 C677 1.297 . S
C634 C635 1.404 . S
C634 C639 1.397 . S
C634 C640 1.492 . S
C635 C634 1.404 . S
C635 C636 1.396 . S
C635 C646 1.492 . S
C636 C635 1.396 . S
C636 C637 1.397 . S
C636 C652 1.509 . S
C637 C636 1.397 . S
C637 C638 1.412 . S
C637 C658 1.485 . S
C638 C637 1.412 . S
C638 C639 1.388 . S
C638 C664 1.490 . S
C639 C634 1.397 . S
C639 C638 1.388 . S
C639 C670 1.519 . S
C640 C634 1.492 . S
C640 C641 1.363 . S
C640 C645 1.390 . S
C641 H606 0.930 . S
C641 C640 1.363 . S
C641 C642 1.372 . S
C642 H607 0.930 . S
C642 C641 1.372 . S
C642 C643 1.383 . S
C643 C642 1.383 . S
C643 C644 1.395 . S
C644 H608 0.930 . S
C644 C643 1.395 . S
C644 C645 1.362 . S
C645 H609 0.930 . S
C645 C640 1.390 . S
C645 C644 1.362 . S
C646 C635 1.492 . S
C646 C647 1.377 . S
C646 C651 1.397 . S
C647 H610 0.931 . S
C647 C646 1.377 . S
C647 C648 1.376 . S
C648 H611 0.930 . S
C648 C647 1.376 . S
C648 C649 1.376 . S
C649 C648 1.376 . S
C649 C650 1.378 . S
C649 C676 1.481 1_556 S
C650 H612 0.930 . S
C650 C649 1.378 . S
C650 C651 1.376 . S
C651 H613 0.929 . S
C651 C646 1.397 . S
C651 C650 1.376 . S
C652 C636 1.509 . S
C652 C653 1.391 . S
C652 C657 1.386 . S
C653 H614 0.930 . S
C653 C652 1.391 . S
C653 C654 1.375 . S
C654 H615 0.931 . S
C654 C653 1.375 . S
C654 C655 1.375 . S
C655 C654 1.375 . S
C655 C656 1.361 . S
C656 H616 0.930 . S
C656 C655 1.361 . S
C656 C657 1.399 . S
C657 H617 0.929 . S
C657 C652 1.386 . S
C657 C656 1.399 . S
C658 C637 1.485 . S
C658 C659 1.394 . S
C658 C663 1.360 . S
C659 H618 0.931 . S
C659 C658 1.394 . S
C659 C660 1.372 . S
C660 H619 0.930 . S
C660 C659 1.372 . S
C660 C661 1.397 . S
C661 C660 1.397 . S
C661 C662 1.390 . S
C661 C677 1.476 . S
C662 H620 0.930 . S
C662 C661 1.390 . S
C662 C663 1.366 . S
C663 H621 0.932 . S
C663 C658 1.360 . S
C663 C662 1.366 . S
C664 C638 1.490 . S
C664 C665 1.380 . S
C664 C669 1.386 . S
C665 H622 0.930 . S
C665 C664 1.380 . S
C665 C666 1.381 . S
C666 H623 0.929 . S
C666 C665 1.381 . S
C666 C667 1.371 . S
C667 C666 1.371 . S
C667 C668 1.380 . S
C668 H624 0.931 . S
C668 C667 1.380 . S
C668 C669 1.387 . S
C669 H625 0.930 . S
C669 C664 1.386 . S
C669 C668 1.387 . S
C670 C639 1.519 . S
C670 C671 1.377 . S
C670 C675 1.361 . S
C671 H626 0.929 . S
C671 C670 1.377 . S
C671 C672 1.386 . S
C672 H627 0.931 . S
C672 C671 1.386 . S
C672 C673 1.363 . S
C673 C672 1.363 . S
C673 C674 1.385 . S
C674 H628 0.930 . S
C674 C673 1.385 . S
C674 C675 1.396 . S
C675 H629 0.929 . S
C675 C670 1.361 . S
C675 C674 1.396 . S
C676 O630 1.303 . S
C676 O631 1.210 . S
C676 C649 1.481 1_554 S
C677 O632 1.199 . S
C677 O633 1.297 . S
C677 C661 1.476 . S
H678 O704 0.856 . S
H679 O707 0.854 . S
H680 C715 0.930 . S
H681 C716 0.930 . S
H682 C718 0.930 . S
H683 C719 0.930 . S
H684 C721 0.931 . S
H685 C722 0.930 . S
H686 C724 0.930 . S
H687 C725 0.929 . S
H688 C727 0.930 . S
H689 C728 0.931 . S
H690 C730 0.930 . S
H691 C731 0.929 . S
H692 C733 0.931 . S
H693 C734 0.930 . S
H694 C736 0.930 . S
H695 C737 0.932 . S
H696 C739 0.930 . S
H697 C740 0.929 . S
H698 C742 0.931 . S
H699 C743 0.930 . S
H700 C745 0.929 . S
H701 C746 0.931 . S
H702 C748 0.930 . S
H703 C749 0.929 . S
O704 H678 0.856 . S
O704 C750 1.300 . S
O705 C750 1.209 . S
O706 C751 1.199 . S
O707 H679 0.854 . S
O707 C751 1.297 . S
C708 C709 1.404 . S
C708 C713 1.397 . S
C708 C714 1.492 . S
C709 C708 1.404 . S
C709 C710 1.396 . S
C709 C720 1.492 . S
C710 C709 1.396 . S
C710 C711 1.397 . S
C710 C726 1.509 . S
C711 C710 1.397 . S
C711 C712 1.412 . S
C711 C732 1.485 . S
C712 C711 1.412 . S
C712 C713 1.388 . S
C712 C738 1.490 . S
C713 C708 1.397 . S
C713 C712 1.388 . S
C713 C744 1.519 . S
C714 C708 1.492 . S
C714 C715 1.363 . S
C714 C719 1.390 . S
C715 H680 0.930 . S
C715 C714 1.363 . S
C715 C716 1.372 . S
C716 H681 0.930 . S
C716 C715 1.372 . S
C716 C717 1.383 . S
C717 C716 1.383 . S
C717 C718 1.395 . S
C718 H682 0.930 . S
C718 C717 1.395 . S
C718 C719 1.362 . S
C719 H683 0.930 . S
C719 C714 1.390 . S
C719 C718 1.362 . S
C720 C709 1.492 . S
C720 C721 1.377 . S
C720 C725 1.397 . S
C721 H684 0.931 . S
C721 C720 1.377 . S
C721 C722 1.376 . S
C722 H685 0.930 . S
C722 C721 1.376 . S
C722 C723 1.376 . S
C723 C722 1.376 . S
C723 C724 1.378 . S
C723 C750 1.486 . S
C724 H686 0.930 . S
C724 C723 1.378 . S
C724 C725 1.376 . S
C725 H687 0.929 . S
C725 C720 1.397 . S
C725 C724 1.376 . S
C726 C710 1.509 . S
C726 C727 1.391 . S
C726 C731 1.386 . S
C727 H688 0.930 . S
C727 C726 1.391 . S
C727 C728 1.375 . S
C728 H689 0.931 . S
C728 C727 1.375 . S
C728 C729 1.375 . S
C729 C728 1.375 . S
C729 C730 1.361 . S
C730 H690 0.930 . S
C730 C729 1.361 . S
C730 C731 1.399 . S
C731 H691 0.929 . S
C731 C726 1.386 . S
C731 C730 1.399 . S
C732 C711 1.485 . S
C732 C733 1.394 . S
C732 C737 1.360 . S
C733 H692 0.931 . S
C733 C732 1.394 . S
C733 C734 1.372 . S
C734 H693 0.930 . S
C734 C733 1.372 . S
C734 C735 1.397 . S
C735 C734 1.397 . S
C735 C736 1.390 . S
C735 C751 1.476 . S
C736 H694 0.930 . S
C736 C735 1.390 . S
C736 C737 1.366 . S
C737 H695 0.932 . S
C737 C732 1.360 . S
C737 C736 1.366 . S
C738 C712 1.490 . S
C738 C739 1.380 . S
C738 C743 1.386 . S
C739 H696 0.930 . S
C739 C738 1.380 . S
C739 C740 1.381 . S
C740 H697 0.929 . S
C740 C739 1.381 . S
C740 C741 1.371 . S
C741 C740 1.371 . S
C741 C742 1.380 . S
C742 H698 0.931 . S
C742 C741 1.380 . S
C742 C743 1.387 . S
C743 H699 0.930 . S
C743 C738 1.386 . S
C743 C742 1.387 . S
C744 C713 1.519 . S
C744 C745 1.377 . S
C744 C749 1.361 . S
C745 H700 0.929 . S
C745 C744 1.377 . S
C745 C746 1.386 . S
C746 H701 0.931 . S
C746 C745 1.386 . S
C746 C747 1.363 . S
C747 C746 1.363 . S
C747 C748 1.385 . S
C748 H702 0.930 . S
C748 C747 1.385 . S
C748 C749 1.396 . S
C749 H703 0.929 . S
C749 C744 1.361 . S
C749 C748 1.396 . S
C750 O704 1.300 . S
C750 O705 1.209 . S
C750 C723 1.486 . S
C751 O706 1.199 . S
C751 O707 1.297 . S
C751 C735 1.476 . S
H752 O778 0.856 . S
H753 O781 0.854 . S
H754 C789 0.930 . S
H755 C790 0.930 . S
H756 C792 0.930 . S
H757 C793 0.930 . S
H758 C795 0.931 . S
H759 C796 0.930 . S
H760 C798 0.930 . S
H761 C799 0.929 . S
H762 C801 0.930 . S
H763 C802 0.931 . S
H764 C804 0.930 . S
H765 C805 0.929 . S
H766 C807 0.931 . S
H767 C808 0.930 . S
H768 C810 0.930 . S
H769 C811 0.932 . S
H770 C813 0.930 . S
H771 C814 0.929 . S
H772 C816 0.931 . S
H773 C817 0.930 . S
H774 C819 0.929 . S
H775 C820 0.931 . S
H776 C822 0.930 . S
H777 C823 0.929 . S
O778 H752 0.856 . S
O778 C824 1.300 . S
O779 C824 1.209 . S
O780 C825 1.199 . S
O781 H753 0.854 . S
O781 C825 1.297 . S
C782 C783 1.404 . S
C782 C787 1.397 . S
C782 C788 1.492 . S
C783 C782 1.404 . S
C783 C784 1.396 . S
C783 C794 1.492 . S
C784 C783 1.396 . S
C784 C785 1.397 . S
C784 C800 1.509 . S
C785 C784 1.397 . S
C785 C786 1.412 . S
C785 C806 1.485 . S
C786 C785 1.412 . S
C786 C787 1.388 . S
C786 C812 1.490 . S
C787 C782 1.397 . S
C787 C786 1.388 . S
C787 C818 1.519 . S
C788 C782 1.492 . S
C788 C789 1.363 . S
C788 C793 1.390 . S
C789 H754 0.930 . S
C789 C788 1.363 . S
C789 C790 1.372 . S
C790 H755 0.930 . S
C790 C789 1.372 . S
C790 C791 1.383 . S
C791 C790 1.383 . S
C791 C792 1.395 . S
C792 H756 0.930 . S
C792 C791 1.395 . S
C792 C793 1.362 . S
C793 H757 0.930 . S
C793 C788 1.390 . S
C793 C792 1.362 . S
C794 C783 1.492 . S
C794 C795 1.377 . S
C794 C799 1.397 . S
C795 H758 0.931 . S
C795 C794 1.377 . S
C795 C796 1.376 . S
C796 H759 0.930 . S
C796 C795 1.376 . S
C796 C797 1.376 . S
C797 C796 1.376 . S
C797 C798 1.378 . S
C797 C824 1.486 . S
C798 H760 0.930 . S
C798 C797 1.378 . S
C798 C799 1.376 . S
C799 H761 0.929 . S
C799 C794 1.397 . S
C799 C798 1.376 . S
C800 C784 1.509 . S
C800 C801 1.391 . S
C800 C805 1.386 . S
C801 H762 0.930 . S
C801 C800 1.391 . S
C801 C802 1.375 . S
C802 H763 0.931 . S
C802 C801 1.375 . S
C802 C803 1.375 . S
C803 C802 1.375 . S
C803 C804 1.361 . S
C804 H764 0.930 . S
C804 C803 1.361 . S
C804 C805 1.399 . S
C805 H765 0.929 . S
C805 C800 1.386 . S
C805 C804 1.399 . S
C806 C785 1.485 . S
C806 C807 1.394 . S
C806 C811 1.360 . S
C807 H766 0.931 . S
C807 C806 1.394 . S
C807 C808 1.372 . S
C808 H767 0.930 . S
C808 C807 1.372 . S
C808 C809 1.397 . S
C809 C808 1.397 . S
C809 C810 1.390 . S
C809 C825 1.476 . S
C810 H768 0.930 . S
C810 C809 1.390 . S
C810 C811 1.366 . S
C811 H769 0.932 . S
C811 C806 1.360 . S
C811 C810 1.366 . S
C812 C786 1.490 . S
C812 C813 1.380 . S
C812 C817 1.386 . S
C813 H770 0.930 . S
C813 C812 1.380 . S
C813 C814 1.381 . S
C814 H771 0.929 . S
C814 C813 1.381 . S
C814 C815 1.371 . S
C815 C814 1.371 . S
C815 C816 1.380 . S
C816 H772 0.931 . S
C816 C815 1.380 . S
C816 C817 1.387 . S
C817 H773 0.930 . S
C817 C812 1.386 . S
C817 C816 1.387 . S
C818 C787 1.519 . S
C818 C819 1.377 . S
C818 C823 1.361 . S
C819 H774 0.929 . S
C819 C818 1.377 . S
C819 C820 1.386 . S
C820 H775 0.931 . S
C820 C819 1.386 . S
C820 C821 1.363 . S
C821 C820 1.363 . S
C821 C822 1.385 . S
C822 H776 0.930 . S
C822 C821 1.385 . S
C822 C823 1.396 . S
C823 H777 0.929 . S
C823 C818 1.361 . S
C823 C822 1.396 . S
C824 O778 1.300 . S
C824 O779 1.209 . S
C824 C797 1.486 . S
C825 O780 1.199 . S
C825 O781 1.297 . S
C825 C809 1.476 . S
H826 O852 0.856 . S
H827 O855 0.854 . S
H828 C863 0.930 . S
H829 C864 0.930 . S
H830 C866 0.930 . S
H831 C867 0.930 . S
H832 C869 0.931 . S
H833 C870 0.930 . S
H834 C872 0.930 . S
H835 C873 0.929 . S
H836 C875 0.930 . S
H837 C876 0.931 . S
H838 C878 0.930 . S
H839 C879 0.929 . S
H840 C881 0.931 . S
H841 C882 0.930 . S
H842 C884 0.930 . S
H843 C885 0.932 . S
H844 C887 0.930 . S
H845 C888 0.929 . S
H846 C890 0.931 . S
H847 C891 0.930 . S
H848 C893 0.929 . S
H849 C894 0.931 . S
H850 C896 0.930 . S
H851 C897 0.929 . S
O852 H826 0.856 . S
O852 C898 1.300 . S
O853 C898 1.209 . S
O854 C899 1.199 . S
O855 H827 0.854 . S
O855 C899 1.297 . S
C856 C857 1.404 . S
C856 C861 1.397 . S
C856 C862 1.492 . S
C857 C856 1.404 . S
C857 C858 1.396 . S
C857 C868 1.492 . S
C858 C857 1.396 . S
C858 C859 1.397 . S
C858 C874 1.509 . S
C859 C858 1.397 . S
C859 C860 1.412 . S
C859 C880 1.485 . S
C860 C859 1.412 . S
C860 C861 1.388 . S
C860 C886 1.490 . S
C861 C856 1.397 . S
C861 C860 1.388 . S
C861 C892 1.519 . S
C862 C856 1.492 . S
C862 C863 1.363 . S
C862 C867 1.390 . S
C863 H828 0.930 . S
C863 C862 1.363 . S
C863 C864 1.372 . S
C864 H829 0.930 . S
C864 C863 1.372 . S
C864 C865 1.383 . S
C865 C864 1.383 . S
C865 C866 1.395 . S
C866 H830 0.930 . S
C866 C865 1.395 . S
C866 C867 1.362 . S
C867 H831 0.930 . S
C867 C862 1.390 . S
C867 C866 1.362 . S
C868 C857 1.492 . S
C868 C869 1.377 . S
C868 C873 1.397 . S
C869 H832 0.931 . S
C869 C868 1.377 . S
C869 C870 1.376 . S
C870 H833 0.930 . S
C870 C869 1.376 . S
C870 C871 1.376 . S
C871 C870 1.376 . S
C871 C872 1.378 . S
C871 C898 1.486 . S
C872 H834 0.930 . S
C872 C871 1.378 . S
C872 C873 1.376 . S
C873 H835 0.929 . S
C873 C868 1.397 . S
C873 C872 1.376 . S
C874 C858 1.509 . S
C874 C875 1.391 . S
C874 C879 1.386 . S
C875 H836 0.930 . S
C875 C874 1.391 . S
C875 C876 1.375 . S
C876 H837 0.931 . S
C876 C875 1.375 . S
C876 C877 1.375 . S
C877 C876 1.375 . S
C877 C878 1.361 . S
C878 H838 0.930 . S
C878 C877 1.361 . S
C878 C879 1.399 . S
C879 H839 0.929 . S
C879 C874 1.386 . S
C879 C878 1.399 . S
C880 C859 1.485 . S
C880 C881 1.394 . S
C880 C885 1.360 . S
C881 H840 0.931 . S
C881 C880 1.394 . S
C881 C882 1.372 . S
C882 H841 0.930 . S
C882 C881 1.372 . S
C882 C883 1.397 . S
C883 C882 1.397 . S
C883 C884 1.390 . S
C883 C899 1.476 . S
C884 H842 0.930 . S
C884 C883 1.390 . S
C884 C885 1.366 . S
C885 H843 0.932 . S
C885 C880 1.360 . S
C885 C884 1.366 . S
C886 C860 1.490 . S
C886 C887 1.380 . S
C886 C891 1.386 . S
C887 H844 0.930 . S
C887 C886 1.380 . S
C887 C888 1.381 . S
C888 H845 0.929 . S
C888 C887 1.381 . S
C888 C889 1.371 . S
C889 C888 1.371 . S
C889 C890 1.380 . S
C890 H846 0.931 . S
C890 C889 1.380 . S
C890 C891 1.387 . S
C891 H847 0.930 . S
C891 C886 1.386 . S
C891 C890 1.387 . S
C892 C861 1.519 . S
C892 C893 1.377 . S
C892 C897 1.361 . S
C893 H848 0.929 . S
C893 C892 1.377 . S
C893 C894 1.386 . S
C894 H849 0.931 . S
C894 C893 1.386 . S
C894 C895 1.363 . S
C895 C894 1.363 . S
C895 C896 1.385 . S
C896 H850 0.930 . S
C896 C895 1.385 . S
C896 C897 1.396 . S
C897 H851 0.929 . S
C897 C892 1.361 . S
C897 C896 1.396 . S
C898 O852 1.300 . S
C898 O853 1.209 . S
C898 C871 1.486 . S
C899 O854 1.199 . S
C899 O855 1.297 . S
C899 C883 1.476 . S
H900 O926 0.856 . S
H901 O929 0.854 . S
H902 C937 0.930 . S
H903 C938 0.930 . S
H904 C940 0.930 . S
H905 C941 0.930 . S
H906 C943 0.931 . S
H907 C944 0.930 1_655 S
H908 C946 0.930 . S
H909 C947 0.929 . S
H910 C949 0.930 . S
H911 C950 0.917 1_655 S
H912 C952 0.930 . S
H913 C953 0.929 . S
H914 C955 0.931 . S
H915 C956 0.930 . S
H916 C958 0.930 . S
H917 C959 0.932 . S
H918 C961 0.930 . S
H919 C962 0.929 . S
H920 C964 0.931 . S
H921 C965 0.930 . S
H922 C967 0.929 . S
H923 C968 0.931 . S
H924 C970 0.930 . S
H925 C971 0.929 . S
O926 H900 0.856 . S
O926 C972 1.300 . S
O927 C972 1.209 . S
O928 C973 1.199 1_655 S
O929 H901 0.854 . S
O929 C973 1.297 . S
C930 C931 1.404 . S
C930 C935 1.394 . S
C930 C936 1.492 . S
C931 C930 1.404 . S
C931 C932 1.396 . S
C931 C942 1.492 . S
C932 C931 1.396 . S
C932 C933 1.397 . S
C932 C948 1.509 . S
C933 C932 1.397 . S
C933 C934 1.421 . S
C933 C954 1.485 . S
C934 C933 1.421 . S
C934 C935 1.406 . S
C934 C960 1.490 1_455 S
C935 C930 1.394 . S
C935 C934 1.406 . S
C935 C966 1.490 1_455 S
C936 C930 1.492 . S
C936 C937 1.363 1_455 S
C936 C941 1.390 . S
C937 H902 0.930 . S
C937 C936 1.363 1_655 S
C937 C938 1.372 . S
C938 H903 0.930 . S
C938 C937 1.372 . S
C938 C939 1.383 . S
C939 C938 1.383 . S
C939 C940 1.395 1_655 S
C940 H904 0.930 . S
C940 C939 1.395 1_455 S
C940 C941 1.362 . S
C941 H905 0.930 . S
C941 C936 1.390 . S
C941 C940 1.362 . S
C942 C931 1.492 . S
C942 C943 1.377 1_455 S
C942 C947 1.397 . S
C943 H906 0.931 . S
C943 C942 1.377 1_655 S
C943 C944 1.376 1_655 S
C944 H907 0.930 1_455 S
C944 C943 1.376 1_455 S
C944 C945 1.376 . S
C945 C944 1.376 . S
C945 C946 1.378 . S
C945 C972 1.486 . S
C946 H908 0.930 . S
C946 C945 1.378 . S
C946 C947 1.376 . S
C947 H909 0.929 . S
C947 C942 1.397 . S
C947 C946 1.376 . S
C948 C932 1.509 . S
C948 C949 1.391 1_455 S
C948 C953 1.386 . S
C949 H910 0.930 . S
C949 C948 1.391 1_655 S
C949 C950 1.356 1_655 S
C950 H911 0.917 1_455 S
C950 C949 1.356 1_455 S
C950 C951 1.409 . S
C951 C950 1.409 . S
C951 C952 1.361 . S
C952 H912 0.930 . S
C952 C951 1.361 . S
C952 C953 1.399 . S
C953 H913 0.929 . S
C953 C948 1.386 . S
C953 C952 1.399 . S
C954 C933 1.485 . S
C954 C955 1.394 1_455 S
C954 C959 1.360 . S
C955 H914 0.931 . S
C955 C954 1.394 1_655 S
C955 C956 1.372 . S
C956 H915 0.930 . S
C956 C955 1.372 . S
C956 C957 1.397 1_655 S
C957 C956 1.397 1_455 S
C957 C958 1.390 . S
C957 C973 1.476 . S
C958 H916 0.930 . S
C958 C957 1.390 . S
C958 C959 1.366 . S
C959 H917 0.932 . S
C959 C954 1.360 . S
C959 C958 1.366 . S
C960 C934 1.490 1_655 S
C960 C961 1.380 . S
C960 C965 1.386 1_655 S
C961 H918 0.930 . S
C961 C960 1.380 . S
C961 C962 1.381 . S
C962 H919 0.929 . S
C962 C961 1.381 . S
C962 C963 1.371 . S
C963 C962 1.371 . S
C963 C964 1.380 1_655 S
C964 H920 0.931 . S
C964 C963 1.380 1_455 S
C964 C965 1.387 . S
C965 H921 0.930 . S
C965 C960 1.386 1_455 S
C965 C964 1.387 . S
C966 C935 1.490 1_655 S
C966 C967 1.406 . S
C966 C971 1.342 1_655 S
C967 H922 0.929 . S
C967 C966 1.406 . S
C967 C968 1.386 . S
C968 H923 0.931 . S
C968 C967 1.386 . S
C968 C969 1.375 . S
C969 C968 1.375 . S
C969 C970 1.368 1_655 S
C970 H924 0.930 . S
C970 C969 1.368 1_455 S
C970 C971 1.396 . S
C971 H925 0.929 . S
C971 C966 1.342 1_455 S
C971 C970 1.396 . S
C972 O926 1.300 . S
C972 O927 1.209 . S
C972 C945 1.486 . S
C973 O928 1.199 1_455 S
C973 O929 1.297 . S
C973 C957 1.476 . S
H974 O1000 0.856 . S
H975 O1003 0.854 . S
H976 C1011 0.930 . S
H977 C1012 0.930 . S
H978 C1014 0.930 . S
H979 C1015 0.930 . S
H980 C1017 0.931 . S
H981 C1018 0.930 . S
H982 C1020 0.930 . S
H983 C1021 0.929 . S
H984 C1023 0.930 . S
H985 C1024 0.931 . S
H986 C1026 0.930 . S
H987 C1027 0.929 . S
H988 C1029 0.931 . S
H989 C1030 0.930 . S
H990 C1032 0.930 . S
H991 C1033 0.932 . S
H992 C1035 0.930 . S
H993 C1036 0.929 . S
H994 C1038 0.931 . S
H995 C1039 0.930 . S
H996 C1041 0.929 . S
H997 C1042 0.931 . S
H998 C1044 0.930 . S
H999 C1045 0.929 . S
O1000 H974 0.856 . S
O1000 C1046 1.300 . S
O1001 C1046 1.209 . S
O1002 C1047 1.199 . S
O1003 H975 0.854 . S
O1003 C1047 1.297 . S
C1004 C1005 1.404 . S
C1004 C1009 1.397 . S
C1004 C1010 1.492 . S
C1005 C1004 1.404 . S
C1005 C1006 1.396 . S
C1005 C1016 1.492 . S
C1006 C1005 1.396 . S
C1006 C1007 1.397 . S
C1006 C1022 1.509 . S
C1007 C1006 1.397 . S
C1007 C1008 1.412 . S
C1007 C1028 1.485 . S
C1008 C1007 1.412 . S
C1008 C1009 1.388 . S
C1008 C1034 1.490 . S
C1009 C1004 1.397 . S
C1009 C1008 1.388 . S
C1009 C1040 1.519 . S
C1010 C1004 1.492 . S
C1010 C1011 1.363 . S
C1010 C1015 1.390 . S
C1011 H976 0.930 . S
C1011 C1010 1.363 . S
C1011 C1012 1.372 . S
C1012 H977 0.930 . S
C1012 C1011 1.372 . S
C1012 C1013 1.383 . S
C1013 C1012 1.383 . S
C1013 C1014 1.395 . S
C1014 H978 0.930 . S
C1014 C1013 1.395 . S
C1014 C1015 1.362 . S
C1015 H979 0.930 . S
C1015 C1010 1.390 . S
C1015 C1014 1.362 . S
C1016 C1005 1.492 . S
C1016 C1017 1.377 . S
C1016 C1021 1.397 . S
C1017 H980 0.931 . S
C1017 C1016 1.377 . S
C1017 C1018 1.376 . S
C1018 H981 0.930 . S
C1018 C1017 1.376 . S
C1018 C1019 1.376 . S
C1019 C1018 1.376 . S
C1019 C1020 1.378 . S
C1019 C1046 1.486 . S
C1020 H982 0.930 . S
C1020 C1019 1.378 . S
C1020 C1021 1.376 . S
C1021 H983 0.929 . S
C1021 C1016 1.397 . S
C1021 C1020 1.376 . S
C1022 C1006 1.509 . S
C1022 C1023 1.391 . S
C1022 C1027 1.386 . S
C1023 H984 0.930 . S
C1023 C1022 1.391 . S
C1023 C1024 1.375 . S
C1024 H985 0.931 . S
C1024 C1023 1.375 . S
C1024 C1025 1.375 . S
C1025 C1024 1.375 . S
C1025 C1026 1.361 . S
C1026 H986 0.930 . S
C1026 C1025 1.361 . S
C1026 C1027 1.399 . S
C1027 H987 0.929 . S
C1027 C1022 1.386 . S
C1027 C1026 1.399 . S
C1028 C1007 1.485 . S
C1028 C1029 1.394 . S
C1028 C1033 1.360 . S
C1029 H988 0.931 . S
C1029 C1028 1.394 . S
C1029 C1030 1.372 . S
C1030 H989 0.930 . S
C1030 C1029 1.372 . S
C1030 C1031 1.397 . S
C1031 C1030 1.397 . S
C1031 C1032 1.390 . S
C1031 C1047 1.476 . S
C1032 H990 0.930 . S
C1032 C1031 1.390 . S
C1032 C1033 1.366 . S
C1033 H991 0.932 . S
C1033 C1028 1.360 . S
C1033 C1032 1.366 . S
C1034 C1008 1.490 . S
C1034 C1035 1.380 . S
C1034 C1039 1.386 . S
C1035 H992 0.930 . S
C1035 C1034 1.380 . S
C1035 C1036 1.381 . S
C1036 H993 0.929 . S
C1036 C1035 1.381 . S
C1036 C1037 1.371 . S
C1037 C1036 1.371 . S
C1037 C1038 1.380 . S
C1038 H994 0.931 . S
C1038 C1037 1.380 . S
C1038 C1039 1.387 . S
C1039 H995 0.930 . S
C1039 C1034 1.386 . S
C1039 C1038 1.387 . S
C1040 C1009 1.519 . S
C1040 C1041 1.377 . S
C1040 C1045 1.361 . S
C1041 H996 0.929 . S
C1041 C1040 1.377 . S
C1041 C1042 1.386 . S
C1042 H997 0.931 . S
C1042 C1041 1.386 . S
C1042 C1043 1.363 . S
C1043 C1042 1.363 . S
C1043 C1044 1.385 . S
C1044 H998 0.930 . S
C1044 C1043 1.385 . S
C1044 C1045 1.396 . S
C1045 H999 0.929 . S
C1045 C1040 1.361 . S
C1045 C1044 1.396 . S
C1046 O1000 1.300 . S
C1046 O1001 1.209 . S
C1046 C1019 1.486 . S
C1047 O1002 1.199 . S
C1047 O1003 1.297 . S
C1047 C1031 1.476 . S
H1048 O1074 0.856 . S
H1049 O1077 0.854 . S
H1050 C1085 0.930 . S
H1051 C1086 0.930 . S
H1052 C1088 0.930 . S
H1053 C1089 0.930 . S
H1054 C1091 0.931 . S
H1055 C1092 0.972 . S
H1056 C1094 0.930 . S
H1057 C1095 0.929 . S
H1058 C1097 0.930 . S
H1059 C1098 0.931 . S
H1060 C1100 0.930 . S
H1061 C1101 0.929 . S
H1062 C1103 0.931 . S
H1063 C1104 0.930 . S
H1064 C1106 0.930 . S
H1065 C1107 0.932 . S
H1066 C1109 0.930 . S
H1067 C1110 0.929 . S
H1068 C1112 0.931 . S
H1069 C1113 0.930 . S
H1070 C1115 0.929 . S
H1071 C1116 0.931 . S
H1072 C1118 0.930 . S
H1073 C1119 0.929 . S
O1074 H1048 0.856 . S
O1074 C1120 1.300 . S
O1075 C1120 1.209 . S
O1076 C1121 1.199 1_545 S
O1077 H1049 0.854 . S
O1077 C1121 1.297 . S
C1078 C1079 1.404 . S
C1078 C1083 1.413 . S
C1078 C1084 1.492 . S
C1079 C1078 1.404 . S
C1079 C1080 1.396 . S
C1079 C1090 1.492 . S
C1080 C1079 1.396 . S
C1080 C1081 1.397 . S
C1080 C1096 1.509 . S
C1081 C1080 1.397 . S
C1081 C1082 1.410 . S
C1081 C1102 1.485 . S
C1082 C1081 1.410 . S
C1082 C1083 1.369 . S
C1082 C1108 1.487 1_565 S
C1083 C1078 1.413 . S
C1083 C1082 1.369 . S
C1083 C1114 1.531 1_565 S
C1084 C1078 1.492 . S
C1084 C1085 1.363 1_565 S
C1084 C1089 1.390 . S
C1085 H1050 0.930 . S
C1085 C1084 1.363 1_545 S
C1085 C1086 1.372 . S
C1086 H1051 0.930 . S
C1086 C1085 1.372 . S
C1086 C1087 1.383 . S
C1087 C1086 1.383 . S
C1087 C1088 1.395 1_545 S
C1088 H1052 0.930 . S
C1088 C1087 1.395 1_565 S
C1088 C1089 1.362 . S
C1089 H1053 0.930 . S
C1089 C1084 1.390 . S
C1089 C1088 1.362 . S
C1090 C1079 1.492 . S
C1090 C1091 1.377 1_565 S
C1090 C1095 1.397 . S
C1091 H1054 0.931 . S
C1091 C1090 1.377 1_545 S
C1091 C1092 1.397 . S
C1092 H1055 0.972 . S
C1092 C1091 1.397 . S
C1092 C1093 1.315 1_545 S
C1093 C1092 1.315 1_565 S
C1093 C1094 1.378 . S
C1093 C1120 1.486 . S
C1094 H1056 0.930 . S
C1094 C1093 1.378 . S
C1094 C1095 1.376 . S
C1095 H1057 0.929 . S
C1095 C1090 1.397 . S
C1095 C1094 1.376 . S
C1096 C1080 1.509 . S
C1096 C1097 1.391 1_565 S
C1096 C1101 1.386 . S
C1097 H1058 0.930 . S
C1097 C1096 1.391 1_545 S
C1097 C1098 1.375 . S
C1098 H1059 0.931 . S
C1098 C1097 1.375 . S
C1098 C1099 1.375 1_545 S
C1099 C1098 1.375 1_565 S
C1099 C1100 1.361 . S
C1100 H1060 0.930 . S
C1100 C1099 1.361 . S
C1100 C1101 1.399 . S
C1101 H1061 0.929 . S
C1101 C1096 1.386 . S
C1101 C1100 1.399 . S
C1102 C1081 1.485 . S
C1102 C1103 1.394 1_565 S
C1102 C1107 1.360 . S
C1103 H1062 0.931 . S
C1103 C1102 1.394 1_545 S
C1103 C1104 1.372 . S
C1104 H1063 0.930 . S
C1104 C1103 1.372 . S
C1104 C1105 1.397 1_545 S
C1105 C1104 1.397 1_565 S
C1105 C1106 1.390 . S
C1105 C1121 1.476 . S
C1106 H1064 0.930 . S
C1106 C1105 1.390 . S
C1106 C1107 1.366 . S
C1107 H1065 0.932 . S
C1107 C1102 1.360 . S
C1107 C1106 1.366 . S
C1108 C1082 1.487 1_545 S
C1108 C1109 1.380 . S
C1108 C1113 1.386 1_545 S
C1109 H1066 0.930 . S
C1109 C1108 1.380 . S
C1109 C1110 1.381 . S
C1110 H1067 0.929 . S
C1110 C1109 1.381 . S
C1110 C1111 1.371 . S
C1111 C1110 1.371 . S
C1111 C1112 1.380 1_545 S
C1112 H1068 0.931 . S
C1112 C1111 1.380 1_565 S
C1112 C1113 1.387 . S
C1113 H1069 0.930 . S
C1113 C1108 1.386 1_565 S
C1113 C1112 1.387 . S
C1114 C1083 1.531 1_545 S
C1114 C1115 1.375 . S
C1114 C1119 1.365 1_545 S
C1115 H1070 0.929 . S
C1115 C1114 1.375 . S
C1115 C1116 1.386 . S
C1116 H1071 0.931 . S
C1116 C1115 1.386 . S
C1116 C1117 1.363 1_545 S
C1117 C1116 1.363 1_565 S
C1117 C1118 1.385 . S
C1118 H1072 0.930 . S
C1118 C1117 1.385 . S
C1118 C1119 1.396 . S
C1119 H1073 0.929 . S
C1119 C1114 1.365 1_565 S
C1119 C1118 1.396 . S
C1120 O1074 1.300 . S
C1120 O1075 1.209 . S
C1120 C1093 1.486 . S
C1121 O1076 1.199 1_565 S
C1121 O1077 1.297 . S
C1121 C1105 1.476 . S
H1122 O1148 0.856 . S
H1123 O1151 0.854 . S
H1124 C1159 0.930 . S
H1125 C1160 0.930 . S
H1126 C1162 0.930 . S
H1127 C1163 0.930 . S
H1128 C1165 0.931 . S
H1129 C1166 0.930 . S
H1130 C1168 0.930 . S
H1131 C1169 0.929 . S
H1132 C1171 0.930 . S
H1133 C1172 0.931 . S
H1134 C1174 0.930 . S
H1135 C1175 0.929 . S
H1136 C1177 0.931 . S
H1137 C1178 0.930 . S
H1138 C1180 0.930 . S
H1139 C1181 0.932 . S
H1140 C1183 0.930 . S
H1141 C1184 0.929 . S
H1142 C1186 0.931 . S
H1143 C1187 0.930 . S
H1144 C1189 0.929 . S
H1145 C1190 0.931 . S
H1146 C1192 0.930 . S
H1147 C1193 0.929 . S
O1148 H1122 0.856 . S
O1148 C1194 1.300 . S
O1149 C1194 1.209 1_565 S
O1150 C1195 1.199 1_545 S
O1151 H1123 0.854 . S
O1151 C1195 1.297 . S
C1152 C1153 1.404 . S
C1152 C1157 1.397 1_545 S
C1152 C1158 1.492 . S
C1153 C1152 1.404 . S
C1153 C1154 1.396 . S
C1153 C1164 1.492 . S
C1154 C1153 1.396 . S
C1154 C1155 1.395 1_545 S
C1154 C1170 1.531 . S
C1155 C1154 1.395 1_565 S
C1155 C1156 1.419 . S
C1155 C1176 1.491 . S
C1156 C1155 1.419 . S
C1156 C1157 1.371 . S
C1156 C1182 1.489 . S
C1157 C1152 1.397 1_565 S
C1157 C1156 1.371 . S
C1157 C1188 1.519 . S
C1158 C1152 1.492 . S
C1158 C1159 1.363 . S
C1158 C1163 1.390 1_545 S
C1159 H1124 0.930 . S
C1159 C1158 1.363 . S
C1159 C1160 1.372 . S
C1160 H1125 0.930 . S
C1160 C1159 1.372 . S
C1160 C1161 1.383 . S
C1161 C1160 1.383 . S
C1161 C1162 1.395 1_545 S
C1162 H1126 0.930 . S
C1162 C1161 1.395 1_565 S
C1162 C1163 1.362 . S
C1163 H1127 0.930 . S
C1163 C1158 1.390 1_565 S
C1163 C1162 1.362 . S
C1164 C1153 1.492 . S
C1164 C1165 1.377 . S
C1164 C1169 1.397 1_545 S
C1165 H1128 0.931 . S
C1165 C1164 1.377 . S
C1165 C1166 1.376 . S
C1166 H1129 0.930 . S
C1166 C1165 1.376 . S
C1166 C1167 1.376 . S
C1167 C1166 1.376 . S
C1167 C1168 1.378 1_545 S
C1167 C1194 1.486 . S
C1168 H1130 0.930 . S
C1168 C1167 1.378 1_565 S
C1168 C1169 1.376 . S
C1169 H1131 0.929 . S
C1169 C1164 1.397 1_565 S
C1169 C1168 1.376 . S
C1170 C1154 1.531 . S
C1170 C1171 1.421 . S
C1170 C1175 1.338 1_545 S
C1171 H1132 0.930 . S
C1171 C1170 1.421 . S
C1171 C1172 1.375 . S
C1172 H1133 0.931 . S
C1172 C1171 1.375 . S
C1172 C1173 1.410 . S
C1173 C1172 1.410 . S
C1173 C1174 1.342 1_545 S
C1174 H1134 0.930 . S
C1174 C1173 1.342 1_565 S
C1174 C1175 1.399 . S
C1175 H1135 0.929 . S
C1175 C1170 1.338 1_565 S
C1175 C1174 1.399 . S
C1176 C1155 1.491 . S
C1176 C1177 1.394 1_565 S
C1176 C1181 1.360 . S
C1177 H1136 0.931 . S
C1177 C1176 1.394 1_545 S
C1177 C1178 1.372 . S
C1178 H1137 0.930 . S
C1178 C1177 1.372 . S
C1178 C1179 1.397 1_545 S
C1179 C1178 1.397 1_565 S
C1179 C1180 1.390 . S
C1179 C1195 1.476 . S
C1180 H1138 0.930 . S
C1180 C1179 1.390 . S
C1180 C1181 1.366 . S
C1181 H1139 0.932 . S
C1181 C1176 1.360 . S
C1181 C1180 1.366 . S
C1182 C1156 1.489 . S
C1182 C1183 1.349 1_565 S
C1182 C1187 1.424 . S
C1183 H1140 0.930 . S
C1183 C1182 1.349 1_545 S
C1183 C1184 1.381 . S
C1184 H1141 0.929 . S
C1184 C1183 1.381 . S
C1184 C1185 1.399 . S
C1185 C1184 1.399 . S
C1185 C1186 1.357 1_545 S
C1186 H1142 0.931 . S
C1186 C1185 1.357 1_565 S
C1186 C1187 1.387 . S
C1187 H1143 0.930 . S
C1187 C1182 1.424 . S
C1187 C1186 1.387 . S
C1188 C1157 1.519 . S
C1188 C1189 1.377 1_565 S
C1188 C1193 1.361 . S
C1189 H1144 0.929 . S
C1189 C1188 1.377 1_545 S
C1189 C1190 1.386 . S
C1190 H1145 0.931 . S
C1190 C1189 1.386 . S
C1190 C1191 1.363 1_545 S
C1191 C1190 1.363 1_565 S
C1191 C1192 1.385 . S
C1192 H1146 0.930 . S
C1192 C1191 1.385 . S
C1192 C1193 1.396 . S
C1193 H1147 0.929 . S
C1193 C1188 1.361 . S
C1193 C1192 1.396 . S
C1194 O1148 1.300 . S
C1194 O1149 1.209 1_545 S
C1194 C1167 1.486 . S
C1195 O1150 1.199 1_565 S
C1195 O1151 1.297 . S
C1195 C1179 1.476 . S
H1196 O1222 0.856 . S
H1197 O1225 0.854 . S
H1198 C1233 0.930 . S
H1199 C1234 0.930 . S
H1200 C1236 0.930 . S
H1201 C1237 0.930 . S
H1202 C1239 0.931 . S
H1203 C1240 0.930 . S
H1204 C1242 0.930 . S
H1205 C1243 0.929 . S
H1206 C1245 0.930 . S
H1207 C1246 0.931 . S
H1208 C1248 0.930 . S
H1209 C1249 0.929 . S
H1210 C1251 0.931 . S
H1211 C1252 0.930 . S
H1212 C1254 0.930 . S
H1213 C1255 0.932 . S
H1214 C1257 0.930 . S
H1215 C1258 0.929 . S
H1216 C1260 0.931 . S
H1217 C1261 0.930 . S
H1218 C1263 0.929 . S
H1219 C1264 0.931 . S
H1220 C1266 0.930 . S
H1221 C1267 0.929 . S
O1222 H1196 0.856 . S
O1222 C1268 1.300 . S
O1223 C1268 1.209 1_455 S
O1224 C1269 1.199 1_655 S
O1225 H1197 0.854 . S
O1225 C1269 1.297 . S
C1226 C1227 1.404 . S
C1226 C1231 1.396 1_655 S
C1226 C1232 1.492 . S
C1227 C1226 1.404 . S
C1227 C1228 1.396 . S
C1227 C1238 1.492 . S
C1228 C1227 1.396 . S
C1228 C1229 1.397 . S
C1228 C1244 1.509 . S
C1229 C1228 1.397 . S
C1229 C1230 1.399 1_655 S
C1229 C1250 1.485 1_655 S
C1230 C1229 1.399 1_455 S
C1230 C1231 1.410 . S
C1230 C1256 1.485 . S
C1231 C1226 1.396 1_455 S
C1231 C1230 1.410 . S
C1231 C1262 1.516 . S
C1232 C1226 1.492 . S
C1232 C1233 1.363 . S
C1232 C1237 1.390 1_655 S
C1233 H1198 0.930 . S
C1233 C1232 1.363 . S
C1233 C1234 1.372 . S
C1234 H1199 0.930 . S
C1234 C1233 1.372 . S
C1234 C1235 1.383 . S
C1235 C1234 1.383 . S
C1235 C1236 1.395 1_655 S
C1236 H1200 0.930 . S
C1236 C1235 1.395 1_455 S
C1236 C1237 1.362 . S
C1237 H1201 0.930 . S
C1237 C1232 1.390 1_455 S
C1237 C1236 1.362 . S
C1238 C1227 1.492 . S
C1238 C1239 1.377 . S
C1238 C1243 1.397 1_655 S
C1239 H1202 0.931 . S
C1239 C1238 1.377 . S
C1239 C1240 1.376 . S
C1240 H1203 0.930 . S
C1240 C1239 1.376 . S
C1240 C1241 1.376 . S
C1241 C1240 1.376 . S
C1241 C1242 1.378 1_655 S
C1241 C1268 1.486 . S
C1242 H1204 0.930 . S
C1242 C1241 1.378 1_455 S
C1242 C1243 1.376 . S
C1243 H1205 0.929 . S
C1243 C1238 1.397 1_455 S
C1243 C1242 1.376 . S
C1244 C1228 1.509 . S
C1244 C1245 1.391 . S
C1244 C1249 1.386 1_655 S
C1245 H1206 0.930 . S
C1245 C1244 1.391 . S
C1245 C1246 1.375 . S
C1246 H1207 0.931 . S
C1246 C1245 1.375 . S
C1246 C1247 1.375 . S
C1247 C1246 1.375 . S
C1247 C1248 1.361 1_655 S
C1248 H1208 0.930 . S
C1248 C1247 1.361 1_455 S
C1248 C1249 1.399 . S
C1249 H1209 0.929 . S
C1249 C1244 1.386 1_455 S
C1249 C1248 1.399 . S
C1250 C1229 1.485 1_455 S
C1250 C1251 1.394 1_455 S
C1250 C1255 1.360 . S
C1251 H1210 0.931 . S
C1251 C1250 1.394 1_655 S
C1251 C1252 1.372 . S
C1252 H1211 0.930 . S
C1252 C1251 1.372 . S
C1252 C1253 1.397 1_655 S
C1253 C1252 1.397 1_455 S
C1253 C1254 1.390 . S
C1253 C1269 1.476 . S
C1254 H1212 0.930 . S
C1254 C1253 1.390 . S
C1254 C1255 1.366 . S
C1255 H1213 0.932 . S
C1255 C1250 1.360 . S
C1255 C1254 1.366 . S
C1256 C1230 1.485 . S
C1256 C1257 1.380 1_455 S
C1256 C1261 1.386 . S
C1257 H1214 0.930 . S
C1257 C1256 1.380 1_655 S
C1257 C1258 1.381 . S
C1258 H1215 0.929 . S
C1258 C1257 1.381 . S
C1258 C1259 1.371 1_655 S
C1259 C1258 1.371 1_455 S
C1259 C1260 1.380 . S
C1260 H1216 0.931 . S
C1260 C1259 1.380 . S
C1260 C1261 1.387 . S
C1261 H1217 0.930 . S
C1261 C1256 1.386 . S
C1261 C1260 1.387 . S
C1262 C1231 1.516 . S
C1262 C1263 1.377 1_455 S
C1262 C1267 1.361 . S
C1263 H1218 0.929 . S
C1263 C1262 1.377 1_655 S
C1263 C1264 1.386 . S
C1264 H1219 0.931 . S
C1264 C1263 1.386 . S
C1264 C1265 1.363 1_655 S
C1265 C1264 1.363 1_455 S
C1265 C1266 1.385 . S
C1266 H1220 0.930 . S
C1266 C1265 1.385 . S
C1266 C1267 1.396 . S
C1267 H1221 0.929 . S
C1267 C1262 1.361 . S
C1267 C1266 1.396 . S
C1268 O1222 1.300 . S
C1268 O1223 1.209 1_655 S
C1268 C1241 1.486 . S
C1269 O1224 1.199 1_455 S
C1269 O1225 1.297 . S
C1269 C1253 1.476 . S
H1270 O1296 0.856 . S
H1271 O1299 0.854 . S
H1272 C1307 0.930 . S
H1273 C1308 0.930 . S
H1274 C1310 0.930 . S
H1275 C1311 0.930 . S
H1276 C1313 0.931 . S
H1277 C1314 0.930 . S
H1278 C1316 0.930 . S
H1279 C1317 0.929 . S
H1280 C1319 0.930 . S
H1281 C1320 0.931 . S
H1282 C1322 0.930 . S
H1283 C1323 0.929 . S
H1284 C1325 0.931 . S
H1285 C1326 0.930 . S
H1286 C1328 0.930 . S
H1287 C1329 0.932 . S
H1288 C1331 0.930 . S
H1289 C1332 0.929 . S
H1290 C1334 0.931 . S
H1291 C1335 0.930 . S
H1292 C1337 0.929 . S
H1293 C1338 0.931 . S
H1294 C1340 0.930 . S
H1295 C1341 0.929 . S
O1296 H1270 0.856 . S
O1296 C1342 1.300 . S
O1297 C1342 1.209 . S
O1298 C1343 1.199 . S
O1299 H1271 0.854 . S
O1299 C1343 1.297 . S
C1300 C1301 1.404 . S
C1300 C1305 1.397 . S
C1300 C1306 1.492 . S
C1301 C1300 1.404 . S
C1301 C1302 1.396 . S
C1301 C1312 1.492 . S
C1302 C1301 1.396 . S
C1302 C1303 1.397 . S
C1302 C1318 1.509 . S
C1303 C1302 1.397 . S
C1303 C1304 1.412 . S
C1303 C1324 1.485 . S
C1304 C1303 1.412 . S
C1304 C1305 1.388 . S
C1304 C1330 1.490 . S
C1305 C1300 1.397 . S
C1305 C1304 1.388 . S
C1305 C1336 1.519 . S
C1306 C1300 1.492 . S
C1306 C1307 1.363 . S
C1306 C1311 1.390 . S
C1307 H1272 0.930 . S
C1307 C1306 1.363 . S
C1307 C1308 1.372 . S
C1308 H1273 0.930 . S
C1308 C1307 1.372 . S
C1308 C1309 1.383 . S
C1309 C1308 1.383 . S
C1309 C1310 1.395 . S
C1310 H1274 0.930 . S
C1310 C1309 1.395 . S
C1310 C1311 1.362 . S
C1311 H1275 0.930 . S
C1311 C1306 1.390 . S
C1311 C1310 1.362 . S
C1312 C1301 1.492 . S
C1312 C1313 1.377 . S
C1312 C1317 1.397 . S
C1313 H1276 0.931 . S
C1313 C1312 1.377 . S
C1313 C1314 1.376 . S
C1314 H1277 0.930 . S
C1314 C1313 1.376 . S
C1314 C1315 1.376 . S
C1315 C1314 1.376 . S
C1315 C1316 1.378 . S
C1315 C1342 1.486 . S
C1316 H1278 0.930 . S
C1316 C1315 1.378 . S
C1316 C1317 1.376 . S
C1317 H1279 0.929 . S
C1317 C1312 1.397 . S
C1317 C1316 1.376 . S
C1318 C1302 1.509 . S
C1318 C1319 1.391 . S
C1318 C1323 1.386 . S
C1319 H1280 0.930 . S
C1319 C1318 1.391 . S
C1319 C1320 1.375 . S
C1320 H1281 0.931 . S
C1320 C1319 1.375 . S
C1320 C1321 1.375 . S
C1321 C1320 1.375 . S
C1321 C1322 1.361 . S
C1322 H1282 0.930 . S
C1322 C1321 1.361 . S
C1322 C1323 1.399 . S
C1323 H1283 0.929 . S
C1323 C1318 1.386 . S
C1323 C1322 1.399 . S
C1324 C1303 1.485 . S
C1324 C1325 1.394 . S
C1324 C1329 1.360 . S
C1325 H1284 0.931 . S
C1325 C1324 1.394 . S
C1325 C1326 1.372 . S
C1326 H1285 0.930 . S
C1326 C1325 1.372 . S
C1326 C1327 1.397 . S
C1327 C1326 1.397 . S
C1327 C1328 1.390 . S
C1327 C1343 1.476 . S
C1328 H1286 0.930 . S
C1328 C1327 1.390 . S
C1328 C1329 1.366 . S
C1329 H1287 0.932 . S
C1329 C1324 1.360 . S
C1329 C1328 1.366 . S
C1330 C1304 1.490 . S
C1330 C1331 1.380 . S
C1330 C1335 1.386 . S
C1331 H1288 0.930 . S
C1331 C1330 1.380 . S
C1331 C1332 1.381 . S
C1332 H1289 0.929 . S
C1332 C1331 1.381 . S
C1332 C1333 1.371 . S
C1333 C1332 1.371 . S
C1333 C1334 1.380 . S
C1334 H1290 0.931 . S
C1334 C1333 1.380 . S
C1334 C1335 1.387 . S
C1335 H1291 0.930 . S
C1335 C1330 1.386 . S
C1335 C1334 1.387 . S
C1336 C1305 1.519 . S
C1336 C1337 1.377 . S
C1336 C1341 1.361 . S
C1337 H1292 0.929 . S
C1337 C1336 1.377 . S
C1337 C1338 1.386 . S
C1338 H1293 0.931 . S
C1338 C1337 1.386 . S
C1338 C1339 1.363 . S
C1339 C1338 1.363 . S
C1339 C1340 1.385 . S
C1340 H1294 0.930 . S
C1340 C1339 1.385 . S
C1340 C1341 1.396 . S
C1341 H1295 0.929 . S
C1341 C1336 1.361 . S
C1341 C1340 1.396 . S
C1342 O1296 1.300 . S
C1342 O1297 1.209 . S
C1342 C1315 1.486 . S
C1343 O1298 1.199 . S
C1343 O1299 1.297 . S
C1343 C1327 1.476 . S
H1344 O1370 0.856 . S
H1345 O1373 0.854 . S
H1346 C1381 0.930 . S
H1347 C1382 0.930 . S
H1348 C1384 0.930 . S
H1349 C1385 0.930 . S
H1350 C1387 0.931 . S
H1351 C1388 0.930 . S
H1352 C1390 0.930 . S
H1353 C1391 0.929 . S
H1354 C1393 0.930 . S
H1355 C1394 0.931 . S
H1356 C1396 0.930 . S
H1357 C1397 0.929 . S
H1358 C1399 0.931 . S
H1359 C1400 0.930 . S
H1360 C1402 0.930 . S
H1361 C1403 0.932 . S
H1362 C1405 0.930 . S
H1363 C1406 0.929 . S
H1364 C1408 0.931 . S
H1365 C1409 0.930 . S
H1366 C1411 0.929 . S
H1367 C1412 0.931 . S
H1368 C1414 0.930 . S
H1369 C1415 0.929 . S
O1370 H1344 0.856 . S
O1370 C1416 1.300 . S
O1371 C1416 1.209 . S
O1372 C1417 1.199 . S
O1373 H1345 0.854 . S
O1373 C1417 1.297 . S
C1374 C1375 1.404 . S
C1374 C1379 1.397 . S
C1374 C1380 1.492 . S
C1375 C1374 1.404 . S
C1375 C1376 1.396 . S
C1375 C1386 1.492 . S
C1376 C1375 1.396 . S
C1376 C1377 1.397 . S
C1376 C1392 1.509 . S
C1377 C1376 1.397 . S
C1377 C1378 1.412 . S
C1377 C1398 1.485 . S
C1378 C1377 1.412 . S
C1378 C1379 1.388 . S
C1378 C1404 1.490 . S
C1379 C1374 1.397 . S
C1379 C1378 1.388 . S
C1379 C1410 1.519 . S
C1380 C1374 1.492 . S
C1380 C1381 1.363 . S
C1380 C1385 1.390 . S
C1381 H1346 0.930 . S
C1381 C1380 1.363 . S
C1381 C1382 1.372 . S
C1382 H1347 0.930 . S
C1382 C1381 1.372 . S
C1382 C1383 1.383 . S
C1383 C1382 1.383 . S
C1383 C1384 1.395 . S
C1384 H1348 0.930 . S
C1384 C1383 1.395 . S
C1384 C1385 1.362 . S
C1385 H1349 0.930 . S
C1385 C1380 1.390 . S
C1385 C1384 1.362 . S
C1386 C1375 1.492 . S
C1386 C1387 1.377 . S
C1386 C1391 1.397 . S
C1387 H1350 0.931 . S
C1387 C1386 1.377 . S
C1387 C1388 1.376 . S
C1388 H1351 0.930 . S
C1388 C1387 1.376 . S
C1388 C1389 1.376 . S
C1389 C1388 1.376 . S
C1389 C1390 1.378 . S
C1389 C1416 1.486 . S
C1390 H1352 0.930 . S
C1390 C1389 1.378 . S
C1390 C1391 1.376 . S
C1391 H1353 0.929 . S
C1391 C1386 1.397 . S
C1391 C1390 1.376 . S
C1392 C1376 1.509 . S
C1392 C1393 1.391 . S
C1392 C1397 1.386 . S
C1393 H1354 0.930 . S
C1393 C1392 1.391 . S
C1393 C1394 1.375 . S
C1394 H1355 0.931 . S
C1394 C1393 1.375 . S
C1394 C1395 1.375 . S
C1395 C1394 1.375 . S
C1395 C1396 1.361 . S
C1396 H1356 0.930 . S
C1396 C1395 1.361 . S
C1396 C1397 1.399 . S
C1397 H1357 0.929 . S
C1397 C1392 1.386 . S
C1397 C1396 1.399 . S
C1398 C1377 1.485 . S
C1398 C1399 1.394 . S
C1398 C1403 1.360 . S
C1399 H1358 0.931 . S
C1399 C1398 1.394 . S
C1399 C1400 1.372 . S
C1400 H1359 0.930 . S
C1400 C1399 1.372 . S
C1400 C1401 1.397 . S
C1401 C1400 1.397 . S
C1401 C1402 1.390 . S
C1401 C1417 1.476 . S
C1402 H1360 0.930 . S
C1402 C1401 1.390 . S
C1402 C1403 1.366 . S
C1403 H1361 0.932 . S
C1403 C1398 1.360 . S
C1403 C1402 1.366 . S
C1404 C1378 1.490 . S
C1404 C1405 1.380 . S
C1404 C1409 1.386 . S
C1405 H1362 0.930 . S
C1405 C1404 1.380 . S
C1405 C1406 1.381 . S
C1406 H1363 0.929 . S
C1406 C1405 1.381 . S
C1406 C1407 1.371 . S
C1407 C1406 1.371 . S
C1407 C1408 1.380 . S
C1408 H1364 0.931 . S
C1408 C1407 1.380 . S
C1408 C1409 1.387 . S
C1409 H1365 0.930 . S
C1409 C1404 1.386 . S
C1409 C1408 1.387 . S
C1410 C1379 1.519 . S
C1410 C1411 1.377 . S
C1410 C1415 1.361 . S
C1411 H1366 0.929 . S
C1411 C1410 1.377 . S
C1411 C1412 1.386 . S
C1412 H1367 0.931 . S
C1412 C1411 1.386 . S
C1412 C1413 1.363 . S
C1413 C1412 1.363 . S
C1413 C1414 1.385 . S
C1414 H1368 0.930 . S
C1414 C1413 1.385 . S
C1414 C1415 1.396 . S
C1415 H1369 0.929 . S
C1415 C1410 1.361 . S
C1415 C1414 1.396 . S
C1416 O1370 1.300 . S
C1416 O1371 1.209 . S
C1416 C1389 1.486 . S
C1417 O1372 1.199 . S
C1417 O1373 1.297 . S
C1417 C1401 1.476 . S
H1418 O1444 0.856 . S
H1419 O1447 0.854 . S
H1420 C1455 0.930 . S
H1421 C1456 0.930 . S
H1422 C1458 0.930 . S
H1423 C1459 0.930 . S
H1424 C1461 0.931 . S
H1425 C1462 0.930 . S
H1426 C1464 0.930 . S
H1427 C1465 0.929 . S
H1428 C1467 0.930 . S
H1429 C1468 0.931 . S
H1430 C1470 0.930 . S
H1431 C1471 0.929 . S
H1432 C1473 0.931 . S
H1433 C1474 0.930 . S
H1434 C1476 0.930 . S
H1435 C1477 0.932 . S
H1436 C1479 0.930 . S
H1437 C1480 0.929 . S
H1438 C1482 0.931 . S
H1439 C1483 0.930 . S
H1440 C1485 0.929 . S
H1441 C1486 0.931 . S
H1442 C1488 0.930 . S
H1443 C1489 0.929 . S
O1444 H1418 0.856 . S
O1444 C1490 1.300 . S
O1445 C1490 1.209 . S
O1446 C1491 1.199 . S
O1447 H1419 0.854 . S
O1447 C1491 1.297 . S
C1448 C1449 1.404 . S
C1448 C1453 1.397 . S
C1448 C1454 1.492 . S
C1449 C1448 1.404 . S
C1449 C1450 1.396 . S
C1449 C1460 1.492 . S
C1450 C1449 1.396 . S
C1450 C1451 1.397 . S
C1450 C1466 1.509 . S
C1451 C1450 1.397 . S
C1451 C1452 1.412 . S
C1451 C1472 1.485 . S
C1452 C1451 1.412 . S
C1452 C1453 1.388 . S
C1452 C1478 1.490 . S
C1453 C1448 1.397 . S
C1453 C1452 1.388 . S
C1453 C1484 1.519 . S
C1454 C1448 1.492 . S
C1454 C1455 1.363 . S
C1454 C1459 1.390 . S
C1455 H1420 0.930 . S
C1455 C1454 1.363 . S
C1455 C1456 1.372 . S
C1456 H1421 0.930 . S
C1456 C1455 1.372 . S
C1456 C1457 1.383 . S
C1457 C1456 1.383 . S
C1457 C1458 1.395 . S
C1458 H1422 0.930 . S
C1458 C1457 1.395 . S
C1458 C1459 1.362 . S
C1459 H1423 0.930 . S
C1459 C1454 1.390 . S
C1459 C1458 1.362 . S
C1460 C1449 1.492 . S
C1460 C1461 1.377 . S
C1460 C1465 1.397 . S
C1461 H1424 0.931 . S
C1461 C1460 1.377 . S
C1461 C1462 1.376 . S
C1462 H1425 0.930 . S
C1462 C1461 1.376 . S
C1462 C1463 1.376 . S
C1463 C1462 1.376 . S
C1463 C1464 1.378 . S
C1463 C1490 1.486 . S
C1464 H1426 0.930 . S
C1464 C1463 1.378 . S
C1464 C1465 1.376 . S
C1465 H1427 0.929 . S
C1465 C1460 1.397 . S
C1465 C1464 1.376 . S
C1466 C1450 1.509 . S
C1466 C1467 1.391 . S
C1466 C1471 1.386 . S
C1467 H1428 0.930 . S
C1467 C1466 1.391 . S
C1467 C1468 1.375 . S
C1468 H1429 0.931 . S
C1468 C1467 1.375 . S
C1468 C1469 1.375 . S
C1469 C1468 1.375 . S
C1469 C1470 1.361 . S
C1470 H1430 0.930 . S
C1470 C1469 1.361 . S
C1470 C1471 1.399 . S
C1471 H1431 0.929 . S
C1471 C1466 1.386 . S
C1471 C1470 1.399 . S
C1472 C1451 1.485 . S
C1472 C1473 1.394 . S
C1472 C1477 1.360 . S
C1473 H1432 0.931 . S
C1473 C1472 1.394 . S
C1473 C1474 1.372 . S
C1474 H1433 0.930 . S
C1474 C1473 1.372 . S
C1474 C1475 1.397 . S
C1475 C1474 1.397 . S
C1475 C1476 1.390 . S
C1475 C1491 1.476 . S
C1476 H1434 0.930 . S
C1476 C1475 1.390 . S
C1476 C1477 1.366 . S
C1477 H1435 0.932 . S
C1477 C1472 1.360 . S
C1477 C1476 1.366 . S
C1478 C1452 1.490 . S
C1478 C1479 1.380 . S
C1478 C1483 1.386 . S
C1479 H1436 0.930 . S
C1479 C1478 1.380 . S
C1479 C1480 1.381 . S
C1480 H1437 0.929 . S
C1480 C1479 1.381 . S
C1480 C1481 1.371 . S
C1481 C1480 1.371 . S
C1481 C1482 1.380 . S
C1482 H1438 0.931 . S
C1482 C1481 1.380 . S
C1482 C1483 1.387 . S
C1483 H1439 0.930 . S
C1483 C1478 1.386 . S
C1483 C1482 1.387 . S
C1484 C1453 1.519 . S
C1484 C1485 1.377 . S
C1484 C1489 1.361 . S
C1485 H1440 0.929 . S
C1485 C1484 1.377 . S
C1485 C1486 1.386 . S
C1486 H1441 0.931 . S
C1486 C1485 1.386 . S
C1486 C1487 1.363 . S
C1487 C1486 1.363 . S
C1487 C1488 1.385 . S
C1488 H1442 0.930 . S
C1488 C1487 1.385 . S
C1488 C1489 1.396 . S
C1489 H1443 0.929 . S
C1489 C1484 1.361 . S
C1489 C1488 1.396 . S
C1490 O1444 1.300 . S
C1490 O1445 1.209 . S
C1490 C1463 1.486 . S
C1491 O1446 1.199 . S
C1491 O1447 1.297 . S
C1491 C1475 1.476 . S
H1492 O1518 0.856 . S
H1493 O1521 0.854 . S
H1494 C1529 0.930 . S
H1495 C1530 0.930 . S
H1496 C1532 0.930 . S
H1497 C1533 0.930 . S
H1498 C1535 0.931 . S
H1499 C1536 0.930 . S
H1500 C1538 0.930 . S
H1501 C1539 0.929 . S
H1502 C1541 0.930 . S
H1503 C1542 0.931 . S
H1504 C1544 0.930 . S
H1505 C1545 0.929 . S
H1506 C1547 0.931 . S
H1507 C1548 0.930 . S
H1508 C1550 0.930 . S
H1509 C1551 0.932 . S
H1510 C1553 0.930 . S
H1511 C1554 0.929 . S
H1512 C1556 0.931 . S
H1513 C1557 0.930 . S
H1514 C1559 0.929 . S
H1515 C1560 0.931 . S
H1516 C1562 0.930 . S
H1517 C1563 0.929 . S
O1518 H1492 0.856 . S
O1518 C1564 1.300 . S
O1519 C1564 1.209 . S
O1520 C1565 1.199 . S
O1521 H1493 0.854 . S
O1521 C1565 1.297 . S
C1522 C1523 1.404 . S
C1522 C1527 1.397 . S
C1522 C1528 1.492 . S
C1523 C1522 1.404 . S
C1523 C1524 1.396 . S
C1523 C1534 1.492 . S
C1524 C1523 1.396 . S
C1524 C1525 1.397 . S
C1524 C1540 1.509 . S
C1525 C1524 1.397 . S
C1525 C1526 1.412 . S
C1525 C1546 1.485 . S
C1526 C1525 1.412 . S
C1526 C1527 1.388 . S
C1526 C1552 1.490 . S
C1527 C1522 1.397 . S
C1527 C1526 1.388 . S
C1527 C1558 1.519 . S
C1528 C1522 1.492 . S
C1528 C1529 1.363 . S
C1528 C1533 1.390 . S
C1529 H1494 0.930 . S
C1529 C1528 1.363 . S
C1529 C1530 1.372 . S
C1530 H1495 0.930 . S
C1530 C1529 1.372 . S
C1530 C1531 1.383 . S
C1531 C1530 1.383 . S
C1531 C1532 1.395 . S
C1532 H1496 0.930 . S
C1532 C1531 1.395 . S
C1532 C1533 1.362 . S
C1533 H1497 0.930 . S
C1533 C1528 1.390 . S
C1533 C1532 1.362 . S
C1534 C1523 1.492 . S
C1534 C1535 1.377 . S
C1534 C1539 1.397 . S
C1535 H1498 0.931 . S
C1535 C1534 1.377 . S
C1535 C1536 1.376 . S
C1536 H1499 0.930 . S
C1536 C1535 1.376 . S
C1536 C1537 1.376 . S
C1537 C1536 1.376 . S
C1537 C1538 1.378 . S
C1537 C1564 1.486 . S
C1538 H1500 0.930 . S
C1538 C1537 1.378 . S
C1538 C1539 1.376 . S
C1539 H1501 0.929 . S
C1539 C1534 1.397 . S
C1539 C1538 1.376 . S
C1540 C1524 1.509 . S
C1540 C1541 1.391 . S
C1540 C1545 1.386 . S
C1541 H1502 0.930 . S
C1541 C1540 1.391 . S
C1541 C1542 1.375 . S
C1542 H1503 0.931 . S
C1542 C1541 1.375 . S
C1542 C1543 1.375 . S
C1543 C1542 1.375 . S
C1543 C1544 1.361 . S
C1544 H1504 0.930 . S
C1544 C1543 1.361 . S
C1544 C1545 1.399 . S
C1545 H1505 0.929 . S
C1545 C1540 1.386 . S
C1545 C1544 1.399 . S
C1546 C1525 1.485 . S
C1546 C1547 1.394 . S
C1546 C1551 1.360 . S
C1547 H1506 0.931 . S
C1547 C1546 1.394 . S
C1547 C1548 1.372 . S
C1548 H1507 0.930 . S
C1548 C1547 1.372 . S
C1548 C1549 1.397 . S
C1549 C1548 1.397 . S
C1549 C1550 1.390 . S
C1549 C1565 1.476 . S
C1550 H1508 0.930 . S
C1550 C1549 1.390 . S
C1550 C1551 1.366 . S
C1551 H1509 0.932 . S
C1551 C1546 1.360 . S
C1551 C1550 1.366 . S
C1552 C1526 1.490 . S
C1552 C1553 1.380 . S
C1552 C1557 1.386 . S
C1553 H1510 0.930 . S
C1553 C1552 1.380 . S
C1553 C1554 1.381 . S
C1554 H1511 0.929 . S
C1554 C1553 1.381 . S
C1554 C1555 1.371 . S
C1555 C1554 1.371 . S
C1555 C1556 1.380 . S
C1556 H1512 0.931 . S
C1556 C1555 1.380 . S
C1556 C1557 1.387 . S
C1557 H1513 0.930 . S
C1557 C1552 1.386 . S
C1557 C1556 1.387 . S
C1558 C1527 1.519 . S
C1558 C1559 1.377 . S
C1558 C1563 1.361 . S
C1559 H1514 0.929 . S
C1559 C1558 1.377 . S
C1559 C1560 1.386 . S
C1560 H1515 0.931 . S
C1560 C1559 1.386 . S
C1560 C1561 1.363 . S
C1561 C1560 1.363 . S
C1561 C1562 1.385 . S
C1562 H1516 0.930 . S
C1562 C1561 1.385 . S
C1562 C1563 1.396 . S
C1563 H1517 0.929 . S
C1563 C1558 1.361 . S
C1563 C1562 1.396 . S
C1564 O1518 1.300 . S
C1564 O1519 1.209 . S
C1564 C1537 1.486 . S
C1565 O1520 1.199 . S
C1565 O1521 1.297 . S
C1565 C1549 1.476 . S
H1566 C1574 0.950 . S
H1567 C1579 0.950 . S
H1568 C1576 0.950 . S
H1569 C1578 0.950 . S
H1570 C1580 0.956 . S
H1571 C1582 0.950 . S
H1572 C1584 0.950 . S
H1573 C1585 0.950 . S
C1574 H1566 0.950 . S
C1574 C1575 1.386 . S
C1574 C1576 1.391 . S
C1575 C1574 1.386 . S
C1575 C1579 1.393 1_655 S
C1576 H1568 0.950 . S
C1576 C1574 1.391 . S
C1576 C1577 1.400 . S
C1577 C1576 1.400 . S
C1577 C1578 1.398 1_655 S
C1577 C1583 1.491 . S
C1578 H1569 0.950 . S
C1578 C1577 1.398 1_455 S
C1578 C1579 1.391 . S
C1579 H1567 0.950 . S
C1579 C1575 1.393 1_455 S
C1579 C1578 1.391 . S
C1580 H1570 0.956 . S
C1580 C1581 1.373 1_455 S
C1580 C1582 1.398 . S
C1581 C1580 1.373 1_655 S
C1581 C1585 1.393 . S
C1582 H1571 0.950 . S
C1582 C1580 1.398 . S
C1582 C1583 1.400 1_455 S
C1583 C1577 1.491 . S
C1583 C1582 1.400 1_655 S
C1583 C1584 1.398 . S
C1584 H1572 0.950 . S
C1584 C1583 1.398 . S
C1584 C1585 1.391 . S
C1585 H1573 0.950 . S
C1585 C1581 1.393 . S
C1585 C1584 1.391 . S
H1586 C1594 0.950 . S
H1587 C1599 0.950 . S
H1588 C1596 0.950 . S
H1589 C1598 0.950 . S
H1590 C1600 0.950 . S
H1591 C1602 0.950 . S
H1592 C1604 0.950 . S
H1593 C1605 0.950 . S
C1594 H1586 0.950 . S
C1594 C1595 1.386 . S
C1594 C1596 1.391 . S
C1595 C1594 1.386 . S
C1595 C1599 1.393 . S
C1596 H1588 0.950 . S
C1596 C1594 1.391 . S
C1596 C1597 1.400 . S
C1597 C1596 1.400 . S
C1597 C1598 1.398 . S
C1597 C1603 1.491 . S
C1598 H1589 0.950 . S
C1598 C1597 1.398 . S
C1598 C1599 1.391 . S
C1599 H1587 0.950 . S
C1599 C1595 1.393 . S
C1599 C1598 1.391 . S
C1600 H1590 0.950 . S
C1600 C1601 1.386 . S
C1600 C1602 1.391 . S
C1601 C1600 1.386 . S
C1601 C1605 1.393 . S
C1602 H1591 0.950 . S
C1602 C1600 1.391 . S
C1602 C1603 1.400 . S
C1603 C1597 1.491 . S
C1603 C1602 1.400 . S
C1603 C1604 1.398 . S
C1604 H1592 0.950 . S
C1604 C1603 1.398 . S
C1604 C1605 1.391 . S
C1605 H1593 0.950 . S
C1605 C1601 1.393 . S
C1605 C1604 1.391 . S
H1606 C1614 0.950 . S
H1607 C1619 0.950 . S
H1608 C1616 0.950 . S
H1609 C1618 0.950 . S
H1610 C1620 0.950 1_565 S
H1611 C1622 0.950 1_565 S
H1612 C1624 0.950 . S
H1613 C1625 0.950 . S
C1614 H1606 0.950 . S
C1614 C1615 1.386 . S
C1614 C1616 1.391 . S
C1615 C1614 1.386 . S
C1615 C1619 1.393 1_545 S
C1616 H1608 0.950 . S
C1616 C1614 1.391 . S
C1616 C1617 1.400 . S
C1617 C1616 1.400 . S
C1617 C1618 1.398 1_545 S
C1617 C1623 1.491 . S
C1618 H1609 0.950 . S
C1618 C1617 1.398 1_565 S
C1618 C1619 1.391 . S
C1619 H1607 0.950 . S
C1619 C1615 1.393 1_565 S
C1619 C1618 1.391 . S
C1620 H1610 0.950 1_545 S
C1620 C1621 1.386 . S
C1620 C1622 1.392 . S
C1621 C1620 1.386 . S
C1621 C1625 1.393 . S
C1622 H1611 0.950 1_545 S
C1622 C1620 1.392 . S
C1622 C1623 1.399 . S
C1623 C1617 1.491 . S
C1623 C1622 1.399 . S
C1623 C1624 1.398 . S
C1624 H1612 0.950 . S
C1624 C1623 1.398 . S
C1624 C1625 1.391 . S
C1625 H1613 0.950 . S
C1625 C1621 1.393 . S
C1625 C1624 1.391 . S
H1626 C1634 0.950 . S
H1627 C1639 0.950 . S
H1628 C1636 0.950 . S
H1629 C1638 0.950 . S
H1630 C1640 0.950 . S
H1631 C1642 0.950 . S
H1632 C1644 0.950 . S
H1633 C1645 0.950 . S
C1634 H1626 0.950 . S
C1634 C1635 1.386 . S
C1634 C1636 1.391 . S
C1635 C1634 1.386 . S
C1635 C1639 1.393 . S
C1636 H1628 0.950 . S
C1636 C1634 1.391 . S
C1636 C1637 1.400 . S
C1637 C1636 1.400 . S
C1637 C1638 1.398 . S
C1637 C1643 1.491 . S
C1638 H1629 0.950 . S
C1638 C1637 1.398 . S
C1638 C1639 1.391 . S
C1639 H1627 0.950 . S
C1639 C1635 1.393 . S
C1639 C1638 1.391 . S
C1640 H1630 0.950 . S
C1640 C1641 1.386 . S
C1640 C1642 1.391 . S
C1641 C1640 1.386 . S
C1641 C1645 1.393 . S
C1642 H1631 0.950 . S
C1642 C1640 1.391 . S
C1642 C1643 1.400 . S
C1643 C1637 1.491 . S
C1643 C1642 1.400 . S
C1643 C1644 1.398 . S
C1644 H1632 0.950 . S
C1644 C1643 1.398 . S
C1644 C1645 1.391 . S
C1645 H1633 0.950 . S
C1645 C1641 1.393 . S
C1645 C1644 1.391 . S
H1646 C1654 0.950 . S
H1647 C1659 0.950 . S
H1648 C1656 0.950 . S
H1649 C1658 0.950 . S
H1650 C1660 0.950 1_655 S
H1651 C1662 0.951 1_655 S
H1652 C1664 0.950 . S
H1653 C1665 0.950 . S
C1654 H1646 0.950 . S
C1654 C1655 1.386 . S
C1654 C1656 1.391 . S
C1655 C1654 1.386 . S
C1655 C1659 1.393 1_455 S
C1656 H1648 0.950 . S
C1656 C1654 1.391 . S
C1656 C1657 1.400 . S
C1657 C1656 1.400 . S
C1657 C1658 1.398 1_455 S
C1657 C1663 1.491 . S
C1658 H1649 0.950 . S
C1658 C1657 1.398 1_655 S
C1658 C1659 1.391 . S
C1659 H1647 0.950 . S
C1659 C1655 1.393 1_655 S
C1659 C1658 1.391 . S
C1660 H1650 0.950 1_455 S
C1660 C1661 1.386 . S
C1660 C1662 1.382 . S
C1661 C1660 1.386 . S
C1661 C1665 1.393 . S
C1662 H1651 0.951 1_455 S
C1662 C1660 1.382 . S
C1662 C1663 1.411 . S
C1663 C1657 1.491 . S
C1663 C1662 1.411 . S
C1663 C1664 1.398 . S
C1664 H1652 0.950 . S
C1664 C1663 1.398 . S
C1664 C1665 1.391 . S
C1665 H1653 0.950 . S
C1665 C1661 1.393 . S
C1665 C1664 1.391 . S
H1666 C1674 0.950 . S
H1667 C1679 0.950 . S
H1668 C1676 0.950 . S
H1669 C1678 0.950 . S
H1670 C1680 0.950 . S
H1671 C1682 0.950 . S
H1672 C1684 0.950 . S
H1673 C1685 0.950 . S
C1674 H1666 0.950 . S
C1674 C1675 1.386 1_556 S
C1674 C1676 1.391 . S
C1675 C1674 1.386 1_554 S
C1675 C1679 1.393 . S
C1676 H1668 0.950 . S
C1676 C1674 1.391 . S
C1676 C1677 1.400 . S
C1677 C1676 1.400 . S
C1677 C1678 1.398 . S
C1677 C1683 1.491 . S
C1678 H1669 0.950 . S
C1678 C1677 1.398 . S
C1678 C1679 1.391 1_556 S
C1679 H1667 0.950 . S
C1679 C1675 1.393 . S
C1679 C1678 1.391 1_554 S
C1680 H1670 0.950 . S
C1680 C1681 1.386 . S
C1680 C1682 1.391 . S
C1681 C1680 1.386 . S
C1681 C1685 1.393 . S
C1682 H1671 0.950 . S
C1682 C1680 1.391 . S
C1682 C1683 1.400 . S
C1683 C1677 1.491 . S
C1683 C1682 1.400 . S
C1683 C1684 1.398 . S
C1684 H1672 0.950 . S
C1684 C1683 1.398 . S
C1684 C1685 1.391 . S
C1685 H1673 0.950 . S
C1685 C1681 1.393 . S
C1685 C1684 1.391 . S
H1686 C1694 0.950 . S
H1687 C1699 0.950 1_554 S
H1688 C1696 0.950 . S
H1689 C1698 0.950 . S
H1690 C1700 0.950 . S
H1691 C1702 0.950 . S
H1692 C1704 0.950 . S
H1693 C1705 0.950 . S
C1694 H1686 0.950 . S
C1694 C1695 1.386 1_655 S
C1694 C1696 1.391 . S
C1695 C1694 1.386 1_455 S
C1695 C1699 1.393 . S
C1696 H1688 0.950 . S
C1696 C1694 1.391 . S
C1696 C1697 1.400 1_655 S
C1697 C1696 1.400 1_455 S
C1697 C1698 1.398 . S
C1697 C1703 1.468 . S
C1698 H1689 0.950 . S
C1698 C1697 1.398 . S
C1698 C1699 1.391 . S
C1699 H1687 0.950 1_556 S
C1699 C1695 1.393 . S
C1699 C1698 1.391 . S
C1700 H1690 0.950 . S
C1700 C1701 1.403 . S
C1700 C1702 1.391 . S
C1701 C1700 1.403 . S
C1701 C1705 1.363 1_455 S
C1702 H1691 0.950 . S
C1702 C1700 1.391 . S
C1702 C1703 1.458 . S
C1703 C1697 1.468 . S
C1703 C1702 1.458 . S
C1703 C1704 1.366 1_455 S
C1704 H1692 0.950 . S
C1704 C1703 1.366 1_655 S
C1704 C1705 1.391 . S
C1705 H1693 0.950 . S
C1705 C1701 1.363 1_655 S
C1705 C1704 1.391 . S
H1706 C1714 0.950 . S
H1707 C1719 0.950 . S
H1708 C1716 0.950 . S
H1709 C1718 0.950 . S
H1710 C1720 0.950 . S
H1711 C1722 0.950 . S
H1712 C1724 0.950 . S
H1713 C1725 0.950 . S
C1714 H1706 0.950 . S
C1714 C1715 1.386 . S
C1714 C1716 1.391 . S
C1715 C1714 1.386 . S
C1715 C1719 1.393 . S
C1716 H1708 0.950 . S
C1716 C1714 1.391 . S
C1716 C1717 1.400 . S
C1717 C1716 1.400 . S
C1717 C1718 1.398 . S
C1717 C1723 1.491 . S
C1718 H1709 0.950 . S
C1718 C1717 1.398 . S
C1718 C1719 1.391 . S
C1719 H1707 0.950 . S
C1719 C1715 1.393 . S
C1719 C1718 1.391 . S
C1720 H1710 0.950 . S
C1720 C1721 1.386 . S
C1720 C1722 1.391 . S
C1721 C1720 1.386 . S
C1721 C1725 1.393 . S
C1722 H1711 0.950 . S
C1722 C1720 1.391 . S
C1722 C1723 1.400 . S
C1723 C1717 1.491 . S
C1723 C1722 1.400 . S
C1723 C1724 1.398 . S
C1724 H1712 0.950 . S
C1724 C1723 1.398 . S
C1724 C1725 1.391 . S
C1725 H1713 0.950 . S
C1725 C1721 1.393 . S
C1725 C1724 1.391 . S
H1726 C1734 0.950 . S
H1727 C1739 0.963 1_554 S
H1728 C1736 0.950 . S
H1729 C1738 0.954 1_545 S
H1730 C1740 0.950 . S
H1731 C1742 0.950 . S
H1732 C1744 0.950 . S
H1733 C1745 0.964 . S
C1734 H1726 0.950 . S
C1734 C1735 1.386 . S
C1734 C1736 1.391 . S
C1735 C1734 1.386 . S
C1735 C1739 1.393 . S
C1736 H1728 0.950 . S
C1736 C1734 1.391 . S
C1736 C1737 1.400 . S
C1737 C1736 1.400 . S
C1737 C1738 1.398 . S
C1737 C1743 1.504 . S
C1738 H1729 0.954 1_565 S
C1738 C1737 1.398 . S
C1738 C1739 1.391 . S
C1739 H1727 0.963 1_556 S
C1739 C1735 1.393 . S
C1739 C1738 1.391 . S
C1740 H1730 0.950 . S
C1740 C1741 1.386 . S
C1740 C1742 1.391 . S
C1741 C1740 1.386 . S
C1741 C1745 1.361 1_545 S
C1742 H1731 0.950 . S
C1742 C1740 1.391 . S
C1742 C1743 1.381 1_545 S
C1743 C1737 1.504 . S
C1743 C1742 1.381 1_565 S
C1743 C1744 1.405 . S
C1744 H1732 0.950 . S
C1744 C1743 1.405 . S
C1744 C1745 1.411 . S
C1745 H1733 0.964 . S
C1745 C1741 1.361 1_565 S
C1745 C1744 1.411 . S
H1746 C1754 0.950 . S
H1747 C1759 0.950 . S
H1748 C1756 0.950 . S
H1749 C1758 0.950 . S
H1750 C1760 0.950 . S
H1751 C1762 0.950 . S
H1752 C1764 0.950 . S
H1753 C1765 0.950 . S
C1754 H1746 0.950 . S
C1754 C1755 1.386 1_565 S
C1754 C1756 1.391 . S
C1755 C1754 1.386 1_545 S
C1755 C1759 1.393 . S
C1756 H1748 0.950 . S
C1756 C1754 1.391 . S
C1756 C1757 1.400 1_565 S
C1757 C1756 1.400 1_545 S
C1757 C1758 1.398 . S
C1757 C1763 1.481 . S
C1758 H1749 0.950 . S
C1758 C1757 1.398 . S
C1758 C1759 1.391 . S
C1759 H1747 0.950 . S
C1759 C1755 1.393 . S
C1759 C1758 1.391 . S
C1760 H1750 0.950 . S
C1760 C1761 1.386 1_545 S
C1760 C1762 1.391 . S
C1761 C1760 1.386 1_565 S
C1761 C1765 1.393 . S
C1762 H1751 0.950 . S
C1762 C1760 1.391 . S
C1762 C1763 1.465 . S
C1763 C1757 1.481 . S
C1763 C1762 1.465 . S
C1763 C1764 1.347 1_545 S
C1764 H1752 0.950 . S
C1764 C1763 1.347 1_565 S
C1764 C1765 1.391 . S
C1765 H1753 0.950 . S
C1765 C1761 1.393 . S
C1765 C1764 1.391 . S
H1766 C1774 0.950 . S
H1767 C1779 0.950 . S
H1768 C1776 0.950 . S
H1769 C1778 0.950 . S
H1770 C1780 0.950 . S
H1771 C1782 0.950 . S
H1772 C1784 0.950 . S
H1773 C1785 0.950 . S
C1774 H1766 0.950 . S
C1774 C1775 1.386 1_455 S
C1774 C1776 1.391 . S
C1775 C1774 1.386 1_655 S
C1775 C1779 1.393 . S
C1776 H1768 0.950 . S
C1776 C1774 1.391 . S
C1776 C1777 1.400 1_455 S
C1777 C1776 1.400 1_655 S
C1777 C1778 1.398 . S
C1777 C1783 1.504 . S
C1778 H1769 0.950 . S
C1778 C1777 1.398 . S
C1778 C1779 1.391 . S
C1779 H1767 0.950 . S
C1779 C1775 1.393 . S
C1779 C1778 1.391 . S
C1780 H1770 0.950 . S
C1780 C1781 1.384 1_655 S
C1780 C1782 1.391 . S
C1781 C1780 1.384 1_455 S
C1781 C1785 1.394 . S
C1782 H1771 0.950 . S
C1782 C1780 1.391 . S
C1782 C1783 1.420 . S
C1783 C1777 1.504 . S
C1783 C1782 1.420 . S
C1783 C1784 1.365 1_655 S
C1784 H1772 0.950 . S
C1784 C1783 1.365 1_455 S
C1784 C1785 1.391 . S
C1785 H1773 0.950 . S
C1785 C1781 1.394 . S
C1785 C1784 1.391 . S
H1786 C1794 0.950 . S
H1787 C1799 0.950 . S
H1788 C1796 0.950 . S
H1789 C1798 0.950 . S
H1790 C1800 0.950 . S
H1791 C1802 0.950 . S
H1792 C1804 0.950 . S
H1793 C1805 0.950 . S
C1794 H1786 0.950 . S
C1794 C1795 1.386 . S
C1794 C1796 1.391 . S
C1795 C1794 1.386 . S
C1795 C1799 1.393 . S
C1796 H1788 0.950 . S
C1796 C1794 1.391 . S
C1796 C1797 1.400 . S
C1797 C1796 1.400 . S
C1797 C1798 1.398 . S
C1797 C1803 1.491 . S
C1798 H1789 0.950 . S
C1798 C1797 1.398 . S
C1798 C1799 1.391 . S
C1799 H1787 0.950 . S
C1799 C1795 1.393 . S
C1799 C1798 1.391 . S
C1800 H1790 0.950 . S
C1800 C1801 1.386 . S
C1800 C1802 1.391 . S
C1801 C1800 1.386 . S
C1801 C1805 1.393 . S
C1802 H1791 0.950 . S
C1802 C1800 1.391 . S
C1802 C1803 1.400 . S
C1803 C1797 1.491 . S
C1803 C1802 1.400 . S
C1803 C1804 1.398 . S
C1804 H1792 0.950 . S
C1804 C1803 1.398 . S
C1804 C1805 1.391 . S
C1805 H1793 0.950 . S
C1805 C1801 1.393 . S
C1805 C1804 1.391 . S
H1806 C1814 0.950 . S
H1807 C1819 0.950 . S
H1808 C1816 0.950 . S
H1809 C1818 0.950 . S
H1810 C1820 0.950 . S
H1811 C1822 0.950 . S
H1812 C1824 0.950 . S
H1813 C1825 0.950 . S
C1814 H1806 0.950 . S
C1814 C1815 1.386 . S
C1814 C1816 1.391 . S
C1815 C1814 1.386 . S
C1815 C1819 1.393 . S
C1816 H1808 0.950 . S
C1816 C1814 1.391 . S
C1816 C1817 1.400 . S
C1817 C1816 1.400 . S
C1817 C1818 1.398 . S
C1817 C1823 1.491 . S
C1818 H1809 0.950 . S
C1818 C1817 1.398 . S
C1818 C1819 1.391 . S
C1819 H1807 0.950 . S
C1819 C1815 1.393 . S
C1819 C1818 1.391 . S
C1820 H1810 0.950 . S
C1820 C1821 1.386 . S
C1820 C1822 1.391 . S
C1821 C1820 1.386 . S
C1821 C1825 1.393 . S
C1822 H1811 0.950 . S
C1822 C1820 1.391 . S
C1822 C1823 1.400 . S
C1823 C1817 1.491 . S
C1823 C1822 1.400 . S
C1823 C1824 1.398 . S
C1824 H1812 0.950 . S
C1824 C1823 1.398 . S
C1824 C1825 1.391 . S
C1825 H1813 0.950 . S
C1825 C1821 1.393 . S
C1825 C1824 1.391 . S
H1826 C1834 0.950 . S
H1827 C1839 0.950 . S
H1828 C1836 0.950 . S
H1829 C1838 0.950 . S
H1830 C1840 0.950 . S
H1831 C1842 0.950 . S
H1832 C1844 0.950 . S
H1833 C1845 0.950 . S
C1834 H1826 0.950 . S
C1834 C1835 1.386 . S
C1834 C1836 1.391 . S
C1835 C1834 1.386 . S
C1835 C1839 1.393 . S
C1836 H1828 0.950 . S
C1836 C1834 1.391 . S
C1836 C1837 1.400 . S
C1837 C1836 1.400 . S
C1837 C1838 1.398 . S
C1837 C1843 1.491 . S
C1838 H1829 0.950 . S
C1838 C1837 1.398 . S
C1838 C1839 1.391 . S
C1839 H1827 0.950 . S
C1839 C1835 1.393 . S
C1839 C1838 1.391 . S
C1840 H1830 0.950 . S
C1840 C1841 1.386 . S
C1840 C1842 1.391 . S
C1841 C1840 1.386 . S
C1841 C1845 1.393 . S
C1842 H1831 0.950 . S
C1842 C1840 1.391 . S
C1842 C1843 1.400 . S
C1843 C1837 1.491 . S
C1843 C1842 1.400 . S
C1843 C1844 1.398 . S
C1844 H1832 0.950 . S
C1844 C1843 1.398 . S
C1844 C1845 1.391 . S
C1845 H1833 0.950 . S
C1845 C1841 1.393 . S
C1845 C1844 1.391 . S
H1846 C1854 0.950 . S
H1847 C1859 0.950 . S
H1848 C1856 0.950 . S
H1849 C1858 0.950 . S
H1850 C1860 0.950 . S
H1851 C1862 0.950 . S
H1852 C1864 0.950 . S
H1853 C1865 0.950 . S
C1854 H1846 0.950 . S
C1854 C1855 1.386 . S
C1854 C1856 1.391 . S
C1855 C1854 1.386 . S
C1855 C1859 1.393 . S
C1856 H1848 0.950 . S
C1856 C1854 1.391 . S
C1856 C1857 1.400 . S
C1857 C1856 1.400 . S
C1857 C1858 1.398 . S
C1857 C1863 1.491 . S
C1858 H1849 0.950 . S
C1858 C1857 1.398 . S
C1858 C1859 1.391 . S
C1859 H1847 0.950 . S
C1859 C1855 1.393 . S
C1859 C1858 1.391 . S
C1860 H1850 0.950 . S
C1860 C1861 1.386 . S
C1860 C1862 1.391 . S
C1861 C1860 1.386 . S
C1861 C1865 1.393 . S
C1862 H1851 0.950 . S
C1862 C1860 1.391 . S
C1862 C1863 1.400 . S
C1863 C1857 1.491 . S
C1863 C1862 1.400 . S
C1863 C1864 1.398 . S
C1864 H1852 0.950 . S
C1864 C1863 1.398 . S
C1864 C1865 1.391 . S
C1865 H1853 0.950 . S
C1865 C1861 1.393 . S
C1865 C1864 1.391 . S
H1866 C1874 0.950 . S
H1867 C1879 0.950 . S
H1868 C1876 0.950 . S
H1869 C1878 0.950 . S
H1870 C1880 0.950 . S
H1871 C1882 0.950 . S
H1872 C1884 0.950 . S
H1873 C1885 0.950 . S
C1874 H1866 0.950 . S
C1874 C1875 1.386 . S
C1874 C1876 1.391 . S
C1875 C1874 1.386 . S
C1875 C1879 1.393 . S
C1876 H1868 0.950 . S
C1876 C1874 1.391 . S
C1876 C1877 1.400 . S
C1877 C1876 1.400 . S
C1877 C1878 1.398 . S
C1877 C1883 1.491 . S
C1878 H1869 0.950 . S
C1878 C1877 1.398 . S
C1878 C1879 1.391 . S
C1879 H1867 0.950 . S
C1879 C1875 1.393 . S
C1879 C1878 1.391 . S
C1880 H1870 0.950 . S
C1880 C1881 1.386 . S
C1880 C1882 1.391 . S
C1881 C1880 1.386 . S
C1881 C1885 1.393 . S
C1882 H1871 0.950 . S
C1882 C1880 1.391 . S
C1882 C1883 1.400 . S
C1883 C1877 1.491 . S
C1883 C1882 1.400 . S
C1883 C1884 1.398 . S
C1884 H1872 0.950 . S
C1884 C1883 1.398 . S
C1884 C1885 1.391 . S
C1885 H1873 0.950 . S
C1885 C1881 1.393 . S
C1885 C1884 1.391 . S
H1886 C1894 0.950 . S
H1887 C1899 0.950 . S
H1888 C1896 0.950 . S
H1889 C1898 0.950 . S
H1890 C1900 0.950 . S
H1891 C1902 0.950 . S
H1892 C1904 0.950 . S
H1893 C1905 0.950 . S
C1894 H1886 0.950 . S
C1894 C1895 1.386 . S
C1894 C1896 1.391 . S
C1895 C1894 1.386 . S
C1895 C1899 1.393 . S
C1896 H1888 0.950 . S
C1896 C1894 1.391 . S
C1896 C1897 1.400 . S
C1897 C1896 1.400 . S
C1897 C1898 1.398 . S
C1897 C1903 1.491 . S
C1898 H1889 0.950 . S
C1898 C1897 1.398 . S
C1898 C1899 1.391 . S
C1899 H1887 0.950 . S
C1899 C1895 1.393 . S
C1899 C1898 1.391 . S
C1900 H1890 0.950 . S
C1900 C1901 1.386 . S
C1900 C1902 1.391 . S
C1901 C1900 1.386 . S
C1901 C1905 1.393 . S
C1902 H1891 0.950 . S
C1902 C1900 1.391 . S
C1902 C1903 1.400 . S
C1903 C1897 1.491 . S
C1903 C1902 1.400 . S
C1903 C1904 1.398 . S
C1904 H1892 0.950 . S
C1904 C1903 1.398 . S
C1904 C1905 1.391 . S
C1905 H1893 0.950 . S
C1905 C1901 1.393 . S
C1905 C1904 1.391 . S
H1906 C1914 0.950 . S
H1907 C1919 0.950 . S
H1908 C1916 0.950 . S
H1909 C1918 0.950 . S
H1910 C1920 0.950 . S
H1911 C1922 0.950 . S
H1912 C1924 0.950 . S
H1913 C1925 0.950 . S
C1914 H1906 0.950 . S
C1914 C1915 1.386 . S
C1914 C1916 1.391 . S
C1915 C1914 1.386 . S
C1915 C1919 1.393 . S
C1916 H1908 0.950 . S
C1916 C1914 1.391 . S
C1916 C1917 1.400 . S
C1917 C1916 1.400 . S
C1917 C1918 1.398 . S
C1917 C1923 1.491 . S
C1918 H1909 0.950 . S
C1918 C1917 1.398 . S
C1918 C1919 1.391 . S
C1919 H1907 0.950 . S
C1919 C1915 1.393 . S
C1919 C1918 1.391 . S
C1920 H1910 0.950 . S
C1920 C1921 1.386 . S
C1920 C1922 1.391 . S
C1921 C1920 1.386 . S
C1921 C1925 1.393 . S
C1922 H1911 0.950 . S
C1922 C1920 1.391 . S
C1922 C1923 1.400 . S
C1923 C1917 1.491 . S
C1923 C1922 1.400 . S
C1923 C1924 1.398 . S
C1924 H1912 0.950 . S
C1924 C1923 1.398 . S
C1924 C1925 1.391 . S
C1925 H1913 0.950 . S
C1925 C1921 1.393 . S
C1925 C1924 1.391 . S
H1926 C1934 0.950 . S
H1927 C1939 0.950 . S
H1928 C1936 0.950 . S
H1929 C1938 0.950 . S
H1930 C1940 0.950 . S
H1931 C1942 0.950 . S
H1932 C1944 0.950 . S
H1933 C1945 0.950 . S
C1934 H1926 0.950 . S
C1934 C1935 1.386 . S
C1934 C1936 1.391 . S
C1935 C1934 1.386 . S
C1935 C1939 1.393 . S
C1936 H1928 0.950 . S
C1936 C1934 1.391 . S
C1936 C1937 1.400 . S
C1937 C1936 1.400 . S
C1937 C1938 1.398 . S
C1937 C1943 1.491 . S
C1938 H1929 0.950 . S
C1938 C1937 1.398 . S
C1938 C1939 1.391 . S
C1939 H1927 0.950 . S
C1939 C1935 1.393 . S
C1939 C1938 1.391 . S
C1940 H1930 0.950 . S
C1940 C1941 1.386 . S
C1940 C1942 1.391 . S
C1941 C1940 1.386 . S
C1941 C1945 1.393 . S
C1942 H1931 0.950 . S
C1942 C1940 1.391 . S
C1942 C1943 1.400 . S
C1943 C1937 1.491 . S
C1943 C1942 1.400 . S
C1943 C1944 1.398 . S
C1944 H1932 0.950 . S
C1944 C1943 1.398 . S
C1944 C1945 1.391 . S
C1945 H1933 0.950 . S
C1945 C1941 1.393 . S
C1945 C1944 1.391 . S
H1946 C1954 0.950 . S
H1947 C1959 0.950 . S
H1948 C1956 0.950 . S
H1949 C1958 0.950 . S
H1950 C1960 0.950 . S
H1951 C1962 0.950 . S
H1952 C1964 0.950 . S
H1953 C1965 0.950 . S
C1954 H1946 0.950 . S
C1954 C1955 1.386 . S
C1954 C1956 1.391 . S
C1955 C1954 1.386 . S
C1955 C1959 1.393 . S
C1956 H1948 0.950 . S
C1956 C1954 1.391 . S
C1956 C1957 1.400 . S
C1957 C1956 1.400 . S
C1957 C1958 1.398 . S
C1957 C1963 1.491 . S
C1958 H1949 0.950 . S
C1958 C1957 1.398 . S
C1958 C1959 1.391 . S
C1959 H1947 0.950 . S
C1959 C1955 1.393 . S
C1959 C1958 1.391 . S
C1960 H1950 0.950 . S
C1960 C1961 1.386 . S
C1960 C1962 1.391 . S
C1961 C1960 1.386 . S
C1961 C1965 1.393 . S
C1962 H1951 0.950 . S
C1962 C1960 1.391 . S
C1962 C1963 1.400 . S
C1963 C1957 1.491 . S
C1963 C1962 1.400 . S
C1963 C1964 1.398 . S
C1964 H1952 0.950 . S
C1964 C1963 1.398 . S
C1964 C1965 1.391 . S
C1965 H1953 0.950 . S
C1965 C1961 1.393 . S
C1965 C1964 1.391 . S
H1966 C1974 0.950 . S
H1967 C1979 0.950 . S
H1968 C1976 0.950 . S
H1969 C1978 0.950 . S
H1970 C1980 0.950 . S
H1971 C1982 0.950 . S
H1972 C1984 0.950 . S
H1973 C1985 0.950 . S
C1974 H1966 0.950 . S
C1974 C1975 1.386 . S
C1974 C1976 1.391 . S
C1975 C1974 1.386 . S
C1975 C1979 1.393 . S
C1976 H1968 0.950 . S
C1976 C1974 1.391 . S
C1976 C1977 1.400 . S
C1977 C1976 1.400 . S
C1977 C1978 1.398 . S
C1977 C1983 1.491 . S
C1978 H1969 0.950 . S
C1978 C1977 1.398 . S
C1978 C1979 1.391 . S
C1979 H1967 0.950 . S
C1979 C1975 1.393 . S
C1979 C1978 1.391 . S
C1980 H1970 0.950 . S
C1980 C1981 1.386 . S
C1980 C1982 1.391 . S
C1981 C1980 1.386 . S
C1981 C1985 1.393 . S
C1982 H1971 0.950 . S
C1982 C1980 1.391 . S
C1982 C1983 1.400 . S
C1983 C1977 1.491 . S
C1983 C1982 1.400 . S
C1983 C1984 1.398 . S
C1984 H1972 0.950 . S
C1984 C1983 1.398 . S
C1984 C1985 1.391 . S
C1985 H1973 0.950 . S
C1985 C1981 1.393 . S
C1985 C1984 1.391 . S
H1986 C1994 0.950 . S
H1987 C1999 0.950 . S
H1988 C1996 0.950 . S
H1989 C1998 0.950 . S
H1990 C2000 0.950 . S
H1991 C2002 0.950 . S
H1992 C2004 0.950 . S
H1993 C2005 0.950 . S
C1994 H1986 0.950 . S
C1994 C1995 1.386 . S
C1994 C1996 1.391 . S
C1995 C1994 1.386 . S
C1995 C1999 1.393 . S
C1996 H1988 0.950 . S
C1996 C1994 1.391 . S
C1996 C1997 1.400 . S
C1997 C1996 1.400 . S
C1997 C1998 1.398 . S
C1997 C2003 1.491 . S
C1998 H1989 0.950 . S
C1998 C1997 1.398 . S
C1998 C1999 1.391 . S
C1999 H1987 0.950 . S
C1999 C1995 1.393 . S
C1999 C1998 1.391 . S
C2000 H1990 0.950 . S
C2000 C2001 1.386 . S
C2000 C2002 1.391 . S
C2001 C2000 1.386 . S
C2001 C2005 1.393 . S
C2002 H1991 0.950 . S
C2002 C2000 1.391 . S
C2002 C2003 1.400 . S
C2003 C1997 1.491 . S
C2003 C2002 1.400 . S
C2003 C2004 1.398 . S
C2004 H1992 0.950 . S
C2004 C2003 1.398 . S
C2004 C2005 1.391 . S
C2005 H1993 0.950 . S
C2005 C2001 1.393 . S
C2005 C2004 1.391 . S
H2006 C2014 0.950 . S
H2007 C2019 0.950 . S
H2008 C2016 0.950 . S
H2009 C2018 0.950 . S
H2010 C2020 0.950 . S
H2011 C2022 0.950 . S
H2012 C2024 0.950 . S
H2013 C2025 0.950 . S
C2014 H2006 0.950 . S
C2014 C2015 1.386 . S
C2014 C2016 1.391 . S
C2015 C2014 1.386 . S
C2015 C2019 1.393 . S
C2016 H2008 0.950 . S
C2016 C2014 1.391 . S
C2016 C2017 1.400 . S
C2017 C2016 1.400 . S
C2017 C2018 1.398 . S
C2017 C2023 1.491 . S
C2018 H2009 0.950 . S
C2018 C2017 1.398 . S
C2018 C2019 1.391 . S
C2019 H2007 0.950 . S
C2019 C2015 1.393 . S
C2019 C2018 1.391 . S
C2020 H2010 0.950 . S
C2020 C2021 1.386 . S
C2020 C2022 1.391 . S
C2021 C2020 1.386 . S
C2021 C2025 1.393 . S
C2022 H2011 0.950 . S
C2022 C2020 1.391 . S
C2022 C2023 1.400 . S
C2023 C2017 1.491 . S
C2023 C2022 1.400 . S
C2023 C2024 1.398 . S
C2024 H2012 0.950 . S
C2024 C2023 1.398 . S
C2024 C2025 1.391 . S
C2025 H2013 0.950 . S
C2025 C2021 1.393 . S
C2025 C2024 1.391 . S
H2026 C2034 0.950 . S
H2027 C2039 0.950 . S
H2028 C2036 0.950 . S
H2029 C2038 0.950 . S
H2030 C2040 0.950 . S
H2031 C2042 0.950 . S
H2032 C2044 0.950 . S
H2033 C2045 0.950 . S
C2034 H2026 0.950 . S
C2034 C2035 1.386 . S
C2034 C2036 1.391 . S
C2035 C2034 1.386 . S
C2035 C2039 1.393 . S
C2036 H2028 0.950 . S
C2036 C2034 1.391 . S
C2036 C2037 1.400 . S
C2037 C2036 1.400 . S
C2037 C2038 1.398 . S
C2037 C2043 1.491 . S
C2038 H2029 0.950 . S
C2038 C2037 1.398 . S
C2038 C2039 1.391 . S
C2039 H2027 0.950 . S
C2039 C2035 1.393 . S
C2039 C2038 1.391 . S
C2040 H2030 0.950 . S
C2040 C2041 1.386 . S
C2040 C2042 1.391 . S
C2041 C2040 1.386 . S
C2041 C2045 1.393 . S
C2042 H2031 0.950 . S
C2042 C2040 1.391 . S
C2042 C2043 1.400 . S
C2043 C2037 1.491 . S
C2043 C2042 1.400 . S
C2043 C2044 1.398 . S
C2044 H2032 0.950 . S
C2044 C2043 1.398 . S
C2044 C2045 1.391 . S
C2045 H2033 0.950 . S
C2045 C2041 1.393 . S
C2045 C2044 1.391 . S
H2046 C2054 0.950 . S
H2047 C2059 0.950 . S
H2048 C2056 0.950 . S
H2049 C2058 0.950 . S
H2050 C2060 0.950 . S
H2051 C2062 0.950 . S
H2052 C2064 0.950 . S
H2053 C2065 0.950 . S
C2054 H2046 0.950 . S
C2054 C2055 1.386 . S
C2054 C2056 1.391 . S
C2055 C2054 1.386 . S
C2055 C2059 1.393 . S
C2056 H2048 0.950 . S
C2056 C2054 1.391 . S
C2056 C2057 1.400 . S
C2057 C2056 1.400 . S
C2057 C2058 1.398 . S
C2057 C2063 1.491 . S
C2058 H2049 0.950 . S
C2058 C2057 1.398 . S
C2058 C2059 1.391 . S
C2059 H2047 0.950 . S
C2059 C2055 1.393 . S
C2059 C2058 1.391 . S
C2060 H2050 0.950 . S
C2060 C2061 1.386 . S
C2060 C2062 1.391 . S
C2061 C2060 1.386 . S
C2061 C2065 1.393 . S
C2062 H2051 0.950 . S
C2062 C2060 1.391 . S
C2062 C2063 1.400 . S
C2063 C2057 1.491 . S
C2063 C2062 1.400 . S
C2063 C2064 1.398 . S
C2064 H2052 0.950 . S
C2064 C2063 1.398 . S
C2064 C2065 1.391 . S
C2065 H2053 0.950 . S
C2065 C2061 1.393 . S
C2065 C2064 1.391 . S
H2066 C2074 0.950 . S
H2067 C2079 0.950 . S
H2068 C2076 0.950 . S
H2069 C2078 0.950 . S
H2070 C2080 0.950 . S
H2071 C2082 0.950 . S
H2072 C2084 0.950 . S
H2073 C2085 0.950 . S
C2074 H2066 0.950 . S
C2074 C2075 1.386 . S
C2074 C2076 1.391 . S
C2075 C2074 1.386 . S
C2075 C2079 1.393 . S
C2076 H2068 0.950 . S
C2076 C2074 1.391 . S
C2076 C2077 1.400 . S
C2077 C2076 1.400 . S
C2077 C2078 1.398 . S
C2077 C2083 1.491 . S
C2078 H2069 0.950 . S
C2078 C2077 1.398 . S
C2078 C2079 1.391 . S
C2079 H2067 0.950 . S
C2079 C2075 1.393 . S
C2079 C2078 1.391 . S
C2080 H2070 0.950 . S
C2080 C2081 1.386 . S
C2080 C2082 1.391 . S
C2081 C2080 1.386 . S
C2081 C2085 1.393 . S
C2082 H2071 0.950 . S
C2082 C2080 1.391 . S
C2082 C2083 1.400 . S
C2083 C2077 1.491 . S
C2083 C2082 1.400 . S
C2083 C2084 1.398 . S
C2084 H2072 0.950 . S
C2084 C2083 1.398 . S
C2084 C2085 1.391 . S
C2085 H2073 0.950 . S
C2085 C2081 1.393 . S
C2085 C2084 1.391 . S
H2086 C2094 0.950 . S
H2087 C2099 0.950 . S
H2088 C2096 0.950 . S
H2089 C2098 0.950 . S
H2090 C2100 0.950 . S
H2091 C2102 0.950 . S
H2092 C2104 0.950 . S
H2093 C2105 0.950 . S
C2094 H2086 0.950 . S
C2094 C2095 1.386 . S
C2094 C2096 1.391 . S
C2095 C2094 1.386 . S
C2095 C2099 1.393 . S
C2096 H2088 0.950 . S
C2096 C2094 1.391 . S
C2096 C2097 1.400 . S
C2097 C2096 1.400 . S
C2097 C2098 1.398 . S
C2097 C2103 1.491 . S
C2098 H2089 0.950 . S
C2098 C2097 1.398 . S
C2098 C2099 1.391 . S
C2099 H2087 0.950 . S
C2099 C2095 1.393 . S
C2099 C2098 1.391 . S
C2100 H2090 0.950 . S
C2100 C2101 1.386 . S
C2100 C2102 1.391 . S
C2101 C2100 1.386 . S
C2101 C2105 1.393 . S
C2102 H2091 0.950 . S
C2102 C2100 1.391 . S
C2102 C2103 1.400 . S
C2103 C2097 1.491 . S
C2103 C2102 1.400 . S
C2103 C2104 1.398 . S
C2104 H2092 0.950 . S
C2104 C2103 1.398 . S
C2104 C2105 1.391 . S
C2105 H2093 0.950 . S
C2105 C2101 1.393 . S
C2105 C2104 1.391 . S
H2106 C2114 0.950 . S
H2107 C2119 0.950 . S
H2108 C2116 0.950 . S
H2109 C2118 0.950 . S
H2110 C2120 0.950 . S
H2111 C2122 0.950 . S
H2112 C2124 0.950 . S
H2113 C2125 0.950 . S
C2114 H2106 0.950 . S
C2114 C2115 1.386 . S
C2114 C2116 1.391 . S
C2115 C2114 1.386 . S
C2115 C2119 1.393 . S
C2116 H2108 0.950 . S
C2116 C2114 1.391 . S
C2116 C2117 1.400 . S
C2117 C2116 1.400 . S
C2117 C2118 1.398 . S
C2117 C2123 1.491 . S
C2118 H2109 0.950 . S
C2118 C2117 1.398 . S
C2118 C2119 1.391 . S
C2119 H2107 0.950 . S
C2119 C2115 1.393 . S
C2119 C2118 1.391 . S
C2120 H2110 0.950 . S
C2120 C2121 1.386 . S
C2120 C2122 1.391 . S
C2121 C2120 1.386 . S
C2121 C2125 1.393 . S
C2122 H2111 0.950 . S
C2122 C2120 1.391 . S
C2122 C2123 1.400 . S
C2123 C2117 1.491 . S
C2123 C2122 1.400 . S
C2123 C2124 1.398 . S
C2124 H2112 0.950 . S
C2124 C2123 1.398 . S
C2124 C2125 1.391 . S
C2125 H2113 0.950 . S
C2125 C2121 1.393 . S
C2125 C2124 1.391 . S
H2126 C2134 0.950 . S
H2127 C2139 0.950 . S
H2128 C2136 0.950 . S
H2129 C2138 0.950 . S
H2130 C2140 0.950 . S
H2131 C2142 0.950 . S
H2132 C2144 0.950 . S
H2133 C2145 0.950 . S
C2134 H2126 0.950 . S
C2134 C2135 1.386 . S
C2134 C2136 1.391 . S
C2135 C2134 1.386 . S
C2135 C2139 1.393 . S
C2136 H2128 0.950 . S
C2136 C2134 1.391 . S
C2136 C2137 1.400 . S
C2137 C2136 1.400 . S
C2137 C2138 1.398 . S
C2137 C2143 1.491 . S
C2138 H2129 0.950 . S
C2138 C2137 1.398 . S
C2138 C2139 1.391 . S
C2139 H2127 0.950 . S
C2139 C2135 1.393 . S
C2139 C2138 1.391 . S
C2140 H2130 0.950 . S
C2140 C2141 1.386 . S
C2140 C2142 1.391 . S
C2141 C2140 1.386 . S
C2141 C2145 1.393 . S
C2142 H2131 0.950 . S
C2142 C2140 1.391 . S
C2142 C2143 1.400 . S
C2143 C2137 1.491 . S
C2143 C2142 1.400 . S
C2143 C2144 1.398 . S
C2144 H2132 0.950 . S
C2144 C2143 1.398 . S
C2144 C2145 1.391 . S
C2145 H2133 0.950 . S
C2145 C2141 1.393 . S
C2145 C2144 1.391 . S
H2146 C2154 0.950 . S
H2147 C2159 0.950 . S
H2148 C2156 0.950 . S
H2149 C2158 0.950 . S
H2150 C2160 0.950 . S
H2151 C2162 0.950 . S
H2152 C2164 0.950 . S
H2153 C2165 0.950 . S
C2154 H2146 0.950 . S
C2154 C2155 1.386 . S
C2154 C2156 1.391 . S
C2155 C2154 1.386 . S
C2155 C2159 1.393 . S
C2156 H2148 0.950 . S
C2156 C2154 1.391 . S
C2156 C2157 1.400 . S
C2157 C2156 1.400 . S
C2157 C2158 1.398 . S
C2157 C2163 1.491 . S
C2158 H2149 0.950 . S
C2158 C2157 1.398 . S
C2158 C2159 1.391 . S
C2159 H2147 0.950 . S
C2159 C2155 1.393 . S
C2159 C2158 1.391 . S
C2160 H2150 0.950 . S
C2160 C2161 1.386 . S
C2160 C2162 1.391 . S
C2161 C2160 1.386 . S
C2161 C2165 1.393 . S
C2162 H2151 0.950 . S
C2162 C2160 1.391 . S
C2162 C2163 1.400 . S
C2163 C2157 1.491 . S
C2163 C2162 1.400 . S
C2163 C2164 1.398 . S
C2164 H2152 0.950 . S
C2164 C2163 1.398 . S
C2164 C2165 1.391 . S
C2165 H2153 0.950 . S
C2165 C2161 1.393 . S
C2165 C2164 1.391 . S
H2166 C2174 0.950 . S
H2167 C2179 0.950 . S
H2168 C2176 0.950 . S
H2169 C2178 0.950 . S
H2170 C2180 0.950 . S
H2171 C2182 0.950 . S
H2172 C2184 0.950 . S
H2173 C2185 0.950 . S
C2174 H2166 0.950 . S
C2174 C2175 1.386 . S
C2174 C2176 1.391 . S
C2175 C2174 1.386 . S
C2175 C2179 1.393 . S
C2176 H2168 0.950 . S
C2176 C2174 1.391 . S
C2176 C2177 1.400 . S
C2177 C2176 1.400 . S
C2177 C2178 1.398 . S
C2177 C2183 1.491 . S
C2178 H2169 0.950 . S
C2178 C2177 1.398 . S
C2178 C2179 1.391 . S
C2179 H2167 0.950 . S
C2179 C2175 1.393 . S
C2179 C2178 1.391 . S
C2180 H2170 0.950 . S
C2180 C2181 1.386 . S
C2180 C2182 1.391 . S
C2181 C2180 1.386 . S
C2181 C2185 1.393 . S
C2182 H2171 0.950 . S
C2182 C2180 1.391 . S
C2182 C2183 1.400 . S
C2183 C2177 1.491 . S
C2183 C2182 1.400 . S
C2183 C2184 1.398 . S
C2184 H2172 0.950 . S
C2184 C2183 1.398 . S
C2184 C2185 1.391 . S
C2185 H2173 0.950 . S
C2185 C2181 1.393 . S
C2185 C2184 1.391 . S
H2186 C2194 0.950 . S
H2187 C2199 0.950 . S
H2188 C2196 0.950 . S
H2189 C2198 0.950 . S
H2190 C2200 0.950 . S
H2191 C2202 0.950 . S
H2192 C2204 0.950 . S
H2193 C2205 0.950 . S
C2194 H2186 0.950 . S
C2194 C2195 1.386 . S
C2194 C2196 1.391 . S
C2195 C2194 1.386 . S
C2195 C2199 1.393 . S
C2196 H2188 0.950 . S
C2196 C2194 1.391 . S
C2196 C2197 1.400 . S
C2197 C2196 1.400 . S
C2197 C2198 1.398 . S
C2197 C2203 1.491 . S
C2198 H2189 0.950 . S
C2198 C2197 1.398 . S
C2198 C2199 1.391 . S
C2199 H2187 0.950 . S
C2199 C2195 1.393 . S
C2199 C2198 1.391 . S
C2200 H2190 0.950 . S
C2200 C2201 1.386 . S
C2200 C2202 1.391 . S
C2201 C2200 1.386 . S
C2201 C2205 1.393 . S
C2202 H2191 0.950 . S
C2202 C2200 1.391 . S
C2202 C2203 1.400 . S
C2203 C2197 1.491 . S
C2203 C2202 1.400 . S
C2203 C2204 1.398 . S
C2204 H2192 0.950 . S
C2204 C2203 1.398 . S
C2204 C2205 1.391 . S
C2205 H2193 0.950 . S
C2205 C2201 1.393 . S
C2205 C2204 1.391 . S
H2206 C2214 0.950 . S
H2207 C2219 0.950 . S
H2208 C2216 0.950 . S
H2209 C2218 0.950 . S
H2210 C2220 0.950 . S
H2211 C2222 0.950 . S
H2212 C2224 0.950 . S
H2213 C2225 0.950 . S
C2214 H2206 0.950 . S
C2214 C2215 1.386 . S
C2214 C2216 1.391 . S
C2215 C2214 1.386 . S
C2215 C2219 1.393 . S
C2216 H2208 0.950 . S
C2216 C2214 1.391 . S
C2216 C2217 1.400 . S
C2217 C2216 1.400 . S
C2217 C2218 1.398 . S
C2217 C2223 1.491 . S
C2218 H2209 0.950 . S
C2218 C2217 1.398 . S
C2218 C2219 1.391 . S
C2219 H2207 0.950 . S
C2219 C2215 1.393 . S
C2219 C2218 1.391 . S
C2220 H2210 0.950 . S
C2220 C2221 1.386 . S
C2220 C2222 1.391 . S
C2221 C2220 1.386 . S
C2221 C2225 1.393 . S
C2222 H2211 0.950 . S
C2222 C2220 1.391 . S
C2222 C2223 1.400 . S
C2223 C2217 1.491 . S
C2223 C2222 1.400 . S
C2223 C2224 1.398 . S
C2224 H2212 0.950 . S
C2224 C2223 1.398 . S
C2224 C2225 1.391 . S
C2225 H2213 0.950 . S
C2225 C2221 1.393 . S
C2225 C2224 1.391 . S
H2226 C2234 0.950 . S
H2227 C2239 0.950 . S
H2228 C2236 0.950 . S
H2229 C2238 0.950 . S
H2230 C2240 0.950 . S
H2231 C2242 0.950 . S
H2232 C2244 0.950 . S
H2233 C2245 0.950 . S
C2234 H2226 0.950 . S
C2234 C2235 1.386 . S
C2234 C2236 1.391 . S
C2235 C2234 1.386 . S
C2235 C2239 1.393 . S
C2236 H2228 0.950 . S
C2236 C2234 1.391 . S
C2236 C2237 1.400 . S
C2237 C2236 1.400 . S
C2237 C2238 1.398 . S
C2237 C2243 1.491 . S
C2238 H2229 0.950 . S
C2238 C2237 1.398 . S
C2238 C2239 1.391 . S
C2239 H2227 0.950 . S
C2239 C2235 1.393 . S
C2239 C2238 1.391 . S
C2240 H2230 0.950 . S
C2240 C2241 1.386 . S
C2240 C2242 1.391 . S
C2241 C2240 1.386 . S
C2241 C2245 1.393 . S
C2242 H2231 0.950 . S
C2242 C2240 1.391 . S
C2242 C2243 1.400 . S
C2243 C2237 1.491 . S
C2243 C2242 1.400 . S
C2243 C2244 1.398 . S
C2244 H2232 0.950 . S
C2244 C2243 1.398 . S
C2244 C2245 1.391 . S
C2245 H2233 0.950 . S
C2245 C2241 1.393 . S
C2245 C2244 1.391 . S
H2246 C2254 0.950 . S
H2247 C2259 0.950 . S
H2248 C2256 0.950 . S
H2249 C2258 0.950 . S
H2250 C2260 0.950 . S
H2251 C2262 0.950 . S
H2252 C2264 0.950 . S
H2253 C2265 0.950 . S
C2254 H2246 0.950 . S
C2254 C2255 1.386 . S
C2254 C2256 1.391 . S
C2255 C2254 1.386 . S
C2255 C2259 1.393 . S
C2256 H2248 0.950 . S
C2256 C2254 1.391 . S
C2256 C2257 1.400 . S
C2257 C2256 1.400 . S
C2257 C2258 1.398 . S
C2257 C2263 1.491 . S
C2258 H2249 0.950 . S
C2258 C2257 1.398 . S
C2258 C2259 1.391 . S
C2259 H2247 0.950 . S
C2259 C2255 1.393 . S
C2259 C2258 1.391 . S
C2260 H2250 0.950 . S
C2260 C2261 1.386 . S
C2260 C2262 1.391 . S
C2261 C2260 1.386 . S
C2261 C2265 1.393 . S
C2262 H2251 0.950 . S
C2262 C2260 1.391 . S
C2262 C2263 1.400 . S
C2263 C2257 1.491 . S
C2263 C2262 1.400 . S
C2263 C2264 1.398 . S
C2264 H2252 0.950 . S
C2264 C2263 1.398 . S
C2264 C2265 1.391 . S
C2265 H2253 0.950 . S
C2265 C2261 1.393 . S
C2265 C2264 1.391 . S
H2266 C2274 0.950 . S
H2267 C2279 0.950 . S
H2268 C2276 0.950 . S
H2269 C2278 0.950 . S
H2270 C2280 0.950 . S
H2271 C2282 0.950 . S
H2272 C2284 0.950 . S
H2273 C2285 0.950 . S
C2274 H2266 0.950 . S
C2274 C2275 1.386 . S
C2274 C2276 1.391 . S
C2275 C2274 1.386 . S
C2275 C2279 1.393 . S
C2276 H2268 0.950 . S
C2276 C2274 1.391 . S
C2276 C2277 1.400 . S
C2277 C2276 1.400 . S
C2277 C2278 1.398 . S
C2277 C2283 1.491 . S
C2278 H2269 0.950 . S
C2278 C2277 1.398 . S
C2278 C2279 1.391 . S
C2279 H2267 0.950 . S
C2279 C2275 1.393 . S
C2279 C2278 1.391 . S
C2280 H2270 0.950 . S
C2280 C2281 1.386 . S
C2280 C2282 1.391 . S
C2281 C2280 1.386 . S
C2281 C2285 1.393 . S
C2282 H2271 0.950 . S
C2282 C2280 1.391 . S
C2282 C2283 1.400 . S
C2283 C2277 1.491 . S
C2283 C2282 1.400 . S
C2283 C2284 1.398 . S
C2284 H2272 0.950 . S
C2284 C2283 1.398 . S
C2284 C2285 1.391 . S
C2285 H2273 0.950 . S
C2285 C2281 1.393 . S
C2285 C2284 1.391 . S
H2286 C2294 0.950 . S
H2287 C2299 0.950 . S
H2288 C2296 0.950 . S
H2289 C2298 0.950 . S
H2290 C2300 0.950 . S
H2291 C2302 0.950 . S
H2292 C2304 0.950 . S
H2293 C2305 0.950 . S
C2294 H2286 0.950 . S
C2294 C2295 1.386 . S
C2294 C2296 1.391 . S
C2295 C2294 1.386 . S
C2295 C2299 1.393 . S
C2296 H2288 0.950 . S
C2296 C2294 1.391 . S
C2296 C2297 1.400 . S
C2297 C2296 1.400 . S
C2297 C2298 1.398 . S
C2297 C2303 1.491 . S
C2298 H2289 0.950 . S
C2298 C2297 1.398 . S
C2298 C2299 1.391 . S
C2299 H2287 0.950 . S
C2299 C2295 1.393 . S
C2299 C2298 1.391 . S
C2300 H2290 0.950 . S
C2300 C2301 1.386 . S
C2300 C2302 1.391 . S
C2301 C2300 1.386 . S
C2301 C2305 1.393 . S
C2302 H2291 0.950 . S
C2302 C2300 1.391 . S
C2302 C2303 1.400 . S
C2303 C2297 1.491 . S
C2303 C2302 1.400 . S
C2303 C2304 1.398 . S
C2304 H2292 0.950 . S
C2304 C2303 1.398 . S
C2304 C2305 1.391 . S
C2305 H2293 0.950 . S
C2305 C2301 1.393 . S
C2305 C2304 1.391 . S
H2306 C2314 0.950 . S
H2307 C2319 0.950 . S
H2308 C2316 0.950 . S
H2309 C2318 0.950 . S
H2310 C2320 0.950 . S
H2311 C2322 0.950 . S
H2312 C2324 0.950 . S
H2313 C2325 0.950 . S
C2314 H2306 0.950 . S
C2314 C2315 1.386 . S
C2314 C2316 1.391 . S
C2315 C2314 1.386 . S
C2315 C2319 1.393 . S
C2316 H2308 0.950 . S
C2316 C2314 1.391 . S
C2316 C2317 1.400 . S
C2317 C2316 1.400 . S
C2317 C2318 1.398 . S
C2317 C2323 1.491 . S
C2318 H2309 0.950 . S
C2318 C2317 1.398 . S
C2318 C2319 1.391 . S
C2319 H2307 0.950 . S
C2319 C2315 1.393 . S
C2319 C2318 1.391 . S
C2320 H2310 0.950 . S
C2320 C2321 1.386 . S
C2320 C2322 1.391 . S
C2321 C2320 1.386 . S
C2321 C2325 1.393 . S
C2322 H2311 0.950 . S
C2322 C2320 1.391 . S
C2322 C2323 1.400 . S
C2323 C2317 1.491 . S
C2323 C2322 1.400 . S
C2323 C2324 1.398 . S
C2324 H2312 0.950 . S
C2324 C2323 1.398 . S
C2324 C2325 1.391 . S
C2325 H2313 0.950 . S
C2325 C2321 1.393 . S
C2325 C2324 1.391 . S
H2326 C2334 0.950 . S
H2327 C2339 0.950 . S
H2328 C2336 0.950 . S
H2329 C2338 0.950 . S
H2330 C2340 0.950 . S
H2331 C2342 0.950 . S
H2332 C2344 0.950 . S
H2333 C2345 0.950 . S
C2334 H2326 0.950 . S
C2334 C2335 1.386 . S
C2334 C2336 1.391 . S
C2335 C2334 1.386 . S
C2335 C2339 1.393 . S
C2336 H2328 0.950 . S
C2336 C2334 1.391 . S
C2336 C2337 1.400 . S
C2337 C2336 1.400 . S
C2337 C2338 1.398 . S
C2337 C2343 1.491 . S
C2338 H2329 0.950 . S
C2338 C2337 1.398 . S
C2338 C2339 1.391 . S
C2339 H2327 0.950 . S
C2339 C2335 1.393 . S
C2339 C2338 1.391 . S
C2340 H2330 0.950 . S
C2340 C2341 1.386 . S
C2340 C2342 1.391 . S
C2341 C2340 1.386 . S
C2341 C2345 1.393 . S
C2342 H2331 0.950 . S
C2342 C2340 1.391 . S
C2342 C2343 1.400 . S
C2343 C2337 1.491 . S
C2343 C2342 1.400 . S
C2343 C2344 1.398 . S
C2344 H2332 0.950 . S
C2344 C2343 1.398 . S
C2344 C2345 1.391 . S
C2345 H2333 0.950 . S
C2345 C2341 1.393 . S
C2345 C2344 1.391 . S
H2346 C2354 0.950 1_554 S
H2347 C2359 0.950 . S
H2348 C2356 0.950 . S
H2349 C2358 0.950 . S
H2350 C2360 0.950 . S
H2351 C2362 0.950 . S
H2352 C2364 0.950 . S
H2353 C2365 0.950 . S
C2354 H2346 0.950 1_556 S
C2354 C2355 1.386 . S
C2354 C2356 1.391 . S
C2355 C2354 1.386 . S
C2355 C2359 1.393 . S
C2356 H2348 0.950 . S
C2356 C2354 1.391 . S
C2356 C2357 1.400 . S
C2357 C2356 1.400 . S
C2357 C2358 1.398 . S
C2357 C2363 1.491 . S
C2358 H2349 0.950 . S
C2358 C2357 1.398 . S
C2358 C2359 1.391 . S
C2359 H2347 0.950 . S
C2359 C2355 1.393 . S
C2359 C2358 1.391 . S
C2360 H2350 0.950 . S
C2360 C2361 1.386 . S
C2360 C2362 1.391 . S
C2361 C2360 1.386 . S
C2361 C2365 1.393 . S
C2362 H2351 0.950 . S
C2362 C2360 1.391 . S
C2362 C2363 1.400 . S
C2363 C2357 1.491 . S
C2363 C2362 1.400 . S
C2363 C2364 1.398 . S
C2364 H2352 0.950 . S
C2364 C2363 1.398 . S
C2364 C2365 1.391 . S
C2365 H2353 0.950 . S
C2365 C2361 1.393 . S
C2365 C2364 1.391 . S
H2366 C2374 0.950 1_554 S
H2367 C2379 0.950 . S
H2368 C2376 0.950 . S
H2369 C2378 0.950 . S
H2370 C2380 0.950 . S
H2371 C2382 0.950 . S
H2372 C2384 0.950 . S
H2373 C2385 0.950 . S
C2374 H2366 0.950 1_556 S
C2374 C2375 1.386 . S
C2374 C2376 1.391 . S
C2375 C2374 1.386 . S
C2375 C2379 1.393 . S
C2376 H2368 0.950 . S
C2376 C2374 1.391 . S
C2376 C2377 1.400 . S
C2377 C2376 1.400 . S
C2377 C2378 1.398 . S
C2377 C2383 1.491 . S
C2378 H2369 0.950 . S
C2378 C2377 1.398 . S
C2378 C2379 1.391 . S
C2379 H2367 0.950 . S
C2379 C2375 1.393 . S
C2379 C2378 1.391 . S
C2380 H2370 0.950 . S
C2380 C2381 1.386 . S
C2380 C2382 1.391 . S
C2381 C2380 1.386 . S
C2381 C2385 1.393 . S
C2382 H2371 0.950 . S
C2382 C2380 1.391 . S
C2382 C2383 1.400 . S
C2383 C2377 1.491 . S
C2383 C2382 1.400 . S
C2383 C2384 1.398 . S
C2384 H2372 0.950 . S
C2384 C2383 1.398 . S
C2384 C2385 1.391 . S
C2385 H2373 0.950 . S
C2385 C2381 1.393 . S
C2385 C2384 1.391 . S
H2386 C2394 0.950 . S
H2387 C2399 0.950 . S
H2388 C2396 0.950 1_556 S
H2389 C2398 0.950 . S
H2390 C2400 0.950 . S
H2391 C2402 0.950 1_554 S
H2392 C2404 0.950 . S
H2393 C2405 0.950 . S
C2394 H2386 0.950 . S
C2394 C2395 1.386 . S
C2394 C2396 1.391 . S
C2395 C2394 1.386 . S
C2395 C2399 1.393 . S
C2396 H2388 0.950 1_554 S
C2396 C2394 1.391 . S
C2396 C2397 1.400 . S
C2397 C2396 1.400 . S
C2397 C2398 1.398 . S
C2397 C2403 1.491 1_554 S
C2398 H2389 0.950 . S
C2398 C2397 1.398 . S
C2398 C2399 1.391 . S
C2399 H2387 0.950 . S
C2399 C2395 1.393 . S
C2399 C2398 1.391 . S
C2400 H2390 0.950 . S
C2400 C2401 1.386 . S
C2400 C2402 1.391 . S
C2401 C2400 1.386 . S
C2401 C2405 1.393 . S
C2402 H2391 0.950 1_556 S
C2402 C2400 1.391 . S
C2402 C2403 1.400 . S
C2403 C2397 1.491 1_556 S
C2403 C2402 1.400 . S
C2403 C2404 1.398 . S
C2404 H2392 0.950 . S
C2404 C2403 1.398 . S
C2404 C2405 1.391 . S
C2405 H2393 0.950 . S
C2405 C2401 1.393 . S
C2405 C2404 1.391 . S
H2406 C2414 0.950 . S
H2407 C2419 0.950 . S
H2408 C2416 0.950 . S
H2409 C2418 0.950 . S
H2410 C2420 0.950 . S
H2411 C2422 0.950 . S
H2412 C2424 0.950 . S
H2413 C2425 0.950 . S
C2414 H2406 0.950 . S
C2414 C2415 1.386 1_556 S
C2414 C2416 1.391 . S
C2415 C2414 1.386 1_554 S
C2415 C2419 1.393 . S
C2416 H2408 0.950 . S
C2416 C2414 1.391 . S
C2416 C2417 1.400 . S
C2417 C2416 1.400 . S
C2417 C2418 1.398 . S
C2417 C2423 1.491 . S
C2418 H2409 0.950 . S
C2418 C2417 1.398 . S
C2418 C2419 1.391 1_556 S
C2419 H2407 0.950 . S
C2419 C2415 1.393 . S
C2419 C2418 1.391 1_554 S
C2420 H2410 0.950 . S
C2420 C2421 1.386 . S
C2420 C2422 1.391 . S
C2421 C2420 1.386 . S
C2421 C2425 1.393 . S
C2422 H2411 0.950 . S
C2422 C2420 1.391 . S
C2422 C2423 1.400 . S
C2423 C2417 1.491 . S
C2423 C2422 1.400 . S
C2423 C2424 1.398 . S
C2424 H2412 0.950 . S
C2424 C2423 1.398 . S
C2424 C2425 1.391 . S
C2425 H2413 0.950 . S
C2425 C2421 1.393 . S
C2425 C2424 1.391 . S
H2426 C2434 0.950 . S
H2427 C2439 0.950 . S
H2428 C2436 0.950 . S
H2429 C2438 0.950 . S
H2430 C2440 0.950 . S
H2431 C2442 0.950 . S
H2432 C2444 0.950 . S
H2433 C2445 0.950 . S
C2434 H2426 0.950 . S
C2434 C2435 1.386 . S
C2434 C2436 1.391 . S
C2435 C2434 1.386 . S
C2435 C2439 1.393 . S
C2436 H2428 0.950 . S
C2436 C2434 1.391 . S
C2436 C2437 1.400 . S
C2437 C2436 1.400 . S
C2437 C2438 1.398 . S
C2437 C2443 1.491 . S
C2438 H2429 0.950 . S
C2438 C2437 1.398 . S
C2438 C2439 1.391 . S
C2439 H2427 0.950 . S
C2439 C2435 1.393 . S
C2439 C2438 1.391 . S
C2440 H2430 0.950 . S
C2440 C2441 1.386 . S
C2440 C2442 1.391 . S
C2441 C2440 1.386 . S
C2441 C2445 1.393 . S
C2442 H2431 0.950 . S
C2442 C2440 1.391 . S
C2442 C2443 1.400 . S
C2443 C2437 1.491 . S
C2443 C2442 1.400 . S
C2443 C2444 1.398 . S
C2444 H2432 0.950 . S
C2444 C2443 1.398 . S
C2444 C2445 1.391 . S
C2445 H2433 0.950 . S
C2445 C2441 1.393 . S
C2445 C2444 1.391 . S
H2446 C2454 0.950 . S
H2447 C2459 0.950 . S
H2448 C2456 0.950 . S
H2449 C2458 0.950 . S
H2450 C2460 0.950 . S
H2451 C2462 0.950 1_554 S
H2452 C2464 0.950 . S
H2453 C2465 0.950 . S
C2454 H2446 0.950 . S
C2454 C2455 1.386 1_556 S
C2454 C2456 1.391 . S
C2455 C2454 1.386 1_554 S
C2455 C2459 1.393 . S
C2456 H2448 0.950 . S
C2456 C2454 1.391 . S
C2456 C2457 1.400 . S
C2457 C2456 1.400 . S
C2457 C2458 1.398 1_556 S
C2457 C2463 1.491 . S
C2458 H2449 0.950 . S
C2458 C2457 1.398 1_554 S
C2458 C2459 1.391 . S
C2459 H2447 0.950 . S
C2459 C2455 1.393 . S
C2459 C2458 1.391 . S
C2460 H2450 0.950 . S
C2460 C2461 1.386 . S
C2460 C2462 1.391 . S
C2461 C2460 1.386 . S
C2461 C2465 1.393 . S
C2462 H2451 0.950 1_556 S
C2462 C2460 1.391 . S
C2462 C2463 1.400 . S
C2463 C2457 1.491 . S
C2463 C2462 1.400 . S
C2463 C2464 1.398 . S
C2464 H2452 0.950 . S
C2464 C2463 1.398 . S
C2464 C2465 1.391 . S
C2465 H2453 0.950 . S
C2465 C2461 1.393 . S
C2465 C2464 1.391 . S
H2466 C2474 0.950 . S
H2467 C2479 0.950 . S
H2468 C2476 0.950 . S
H2469 C2478 0.950 . S
H2470 C2480 0.950 . S
H2471 C2482 0.950 . S
H2472 C2484 0.950 . S
H2473 C2485 0.950 . S
C2474 H2466 0.950 . S
C2474 C2475 1.386 . S
C2474 C2476 1.391 . S
C2475 C2474 1.386 . S
C2475 C2479 1.393 . S
C2476 H2468 0.950 . S
C2476 C2474 1.391 . S
C2476 C2477 1.400 . S
C2477 C2476 1.400 . S
C2477 C2478 1.398 . S
C2477 C2483 1.491 . S
C2478 H2469 0.950 . S
C2478 C2477 1.398 . S
C2478 C2479 1.391 . S
C2479 H2467 0.950 . S
C2479 C2475 1.393 . S
C2479 C2478 1.391 . S
C2480 H2470 0.950 . S
C2480 C2481 1.386 . S
C2480 C2482 1.391 . S
C2481 C2480 1.386 . S
C2481 C2485 1.393 . S
C2482 H2471 0.950 . S
C2482 C2480 1.391 . S
C2482 C2483 1.400 . S
C2483 C2477 1.491 . S
C2483 C2482 1.400 . S
C2483 C2484 1.398 . S
C2484 H2472 0.950 . S
C2484 C2483 1.398 . S
C2484 C2485 1.391 . S
C2485 H2473 0.950 . S
C2485 C2481 1.393 . S
C2485 C2484 1.391 . S
H2486 C2494 0.950 . S
H2487 C2499 0.950 . S
H2488 C2496 0.950 . S
H2489 C2498 0.950 . S
H2490 C2500 0.950 . S
H2491 C2502 0.950 . S
H2492 C2504 0.950 . S
H2493 C2505 0.950 . S
C2494 H2486 0.950 . S
C2494 C2495 1.386 . S
C2494 C2496 1.391 . S
C2495 C2494 1.386 . S
C2495 C2499 1.393 . S
C2496 H2488 0.950 . S
C2496 C2494 1.391 . S
C2496 C2497 1.400 . S
C2497 C2496 1.400 . S
C2497 C2498 1.398 . S
C2497 C2503 1.491 . S
C2498 H2489 0.950 . S
C2498 C2497 1.398 . S
C2498 C2499 1.391 . S
C2499 H2487 0.950 . S
C2499 C2495 1.393 . S
C2499 C2498 1.391 . S
C2500 H2490 0.950 . S
C2500 C2501 1.386 . S
C2500 C2502 1.391 . S
C2501 C2500 1.386 . S
C2501 C2505 1.393 . S
C2502 H2491 0.950 . S
C2502 C2500 1.391 . S
C2502 C2503 1.400 . S
C2503 C2497 1.491 . S
C2503 C2502 1.400 . S
C2503 C2504 1.398 . S
C2504 H2492 0.950 . S
C2504 C2503 1.398 . S
C2504 C2505 1.391 . S
C2505 H2493 0.950 . S
C2505 C2501 1.393 . S
C2505 C2504 1.391 . S
H2506 C2514 0.950 . S
H2507 C2519 0.950 . S
H2508 C2516 0.950 . S
H2509 C2518 0.950 . S
H2510 C2520 0.950 . S
H2511 C2522 0.950 . S
H2512 C2524 0.950 . S
H2513 C2525 0.950 . S
C2514 H2506 0.950 . S
C2514 C2515 1.386 . S
C2514 C2516 1.391 . S
C2515 C2514 1.386 . S
C2515 C2519 1.393 . S
C2516 H2508 0.950 . S
C2516 C2514 1.391 . S
C2516 C2517 1.400 . S
C2517 C2516 1.400 . S
C2517 C2518 1.398 . S
C2517 C2523 1.491 . S
C2518 H2509 0.950 . S
C2518 C2517 1.398 . S
C2518 C2519 1.391 . S
C2519 H2507 0.950 . S
C2519 C2515 1.393 . S
C2519 C2518 1.391 . S
C2520 H2510 0.950 . S
C2520 C2521 1.386 . S
C2520 C2522 1.391 . S
C2521 C2520 1.386 . S
C2521 C2525 1.393 . S
C2522 H2511 0.950 . S
C2522 C2520 1.391 . S
C2522 C2523 1.400 . S
C2523 C2517 1.491 . S
C2523 C2522 1.400 . S
C2523 C2524 1.398 . S
C2524 H2512 0.950 . S
C2524 C2523 1.398 . S
C2524 C2525 1.391 . S
C2525 H2513 0.950 . S
C2525 C2521 1.393 . S
C2525 C2524 1.391 . S
H2526 C2534 0.950 . S
H2527 C2539 0.950 . S
H2528 C2536 0.950 . S
H2529 C2538 0.950 . S
H2530 C2540 0.950 . S
H2531 C2542 0.950 . S
H2532 C2544 0.950 . S
H2533 C2545 0.950 . S
C2534 H2526 0.950 . S
C2534 C2535 1.386 . S
C2534 C2536 1.391 . S
C2535 C2534 1.386 . S
C2535 C2539 1.393 . S
C2536 H2528 0.950 . S
C2536 C2534 1.391 . S
C2536 C2537 1.400 . S
C2537 C2536 1.400 . S
C2537 C2538 1.398 . S
C2537 C2543 1.491 . S
C2538 H2529 0.950 . S
C2538 C2537 1.398 . S
C2538 C2539 1.391 . S
C2539 H2527 0.950 . S
C2539 C2535 1.393 . S
C2539 C2538 1.391 . S
C2540 H2530 0.950 . S
C2540 C2541 1.386 . S
C2540 C2542 1.391 . S
C2541 C2540 1.386 . S
C2541 C2545 1.393 . S
C2542 H2531 0.950 . S
C2542 C2540 1.391 . S
C2542 C2543 1.400 . S
C2543 C2537 1.491 . S
C2543 C2542 1.400 . S
C2543 C2544 1.398 . S
C2544 H2532 0.950 . S
C2544 C2543 1.398 . S
C2544 C2545 1.391 . S
C2545 H2533 0.950 . S
C2545 C2541 1.393 . S
C2545 C2544 1.391 . S
H2546 C2554 0.950 1_565 S
H2547 C2559 0.950 . S
H2548 C2556 0.950 . S
H2549 C2558 0.950 . S
H2550 C2560 0.950 . S
H2551 C2562 0.950 . S
H2552 C2564 0.950 . S
H2553 C2565 0.950 . S
C2554 H2546 0.950 1_545 S
C2554 C2555 1.386 . S
C2554 C2556 1.391 . S
C2555 C2554 1.386 . S
C2555 C2559 1.393 . S
C2556 H2548 0.950 . S
C2556 C2554 1.391 . S
C2556 C2557 1.400 . S
C2557 C2556 1.400 . S
C2557 C2558 1.398 . S
C2557 C2563 1.491 . S
C2558 H2549 0.950 . S
C2558 C2557 1.398 . S
C2558 C2559 1.391 . S
C2559 H2547 0.950 . S
C2559 C2555 1.393 . S
C2559 C2558 1.391 . S
C2560 H2550 0.950 . S
C2560 C2561 1.386 . S
C2560 C2562 1.391 . S
C2561 C2560 1.386 . S
C2561 C2565 1.393 . S
C2562 H2551 0.950 . S
C2562 C2560 1.391 . S
C2562 C2563 1.400 . S
C2563 C2557 1.491 . S
C2563 C2562 1.400 . S
C2563 C2564 1.398 . S
C2564 H2552 0.950 . S
C2564 C2563 1.398 . S
C2564 C2565 1.391 . S
C2565 H2553 0.950 . S
C2565 C2561 1.393 . S
C2565 C2564 1.391 . S
H2566 C2574 0.976 . S
H2567 C2579 0.949 . S
H2568 C2576 0.950 . S
H2569 C2578 0.950 . S
H2570 C2580 0.950 . S
H2571 C2582 0.950 . S
H2572 C2584 0.950 . S
H2573 C2585 0.950 . S
C2574 H2566 0.976 . S
C2574 C2575 1.386 1_655 S
C2574 C2576 1.391 . S
C2575 C2574 1.386 1_455 S
C2575 C2579 1.393 1_455 S
C2576 H2568 0.950 . S
C2576 C2574 1.391 . S
C2576 C2577 1.400 . S
C2577 C2576 1.400 . S
C2577 C2578 1.398 . S
C2577 C2583 1.491 . S
C2578 H2569 0.950 . S
C2578 C2577 1.398 . S
C2578 C2579 1.391 . S
C2579 H2567 0.949 . S
C2579 C2575 1.393 1_655 S
C2579 C2578 1.391 . S
C2580 H2570 0.950 . S
C2580 C2581 1.386 . S
C2580 C2582 1.391 . S
C2581 C2580 1.386 . S
C2581 C2585 1.393 . S
C2582 H2571 0.950 . S
C2582 C2580 1.391 . S
C2582 C2583 1.400 . S
C2583 C2577 1.491 . S
C2583 C2582 1.400 . S
C2583 C2584 1.398 . S
C2584 H2572 0.950 . S
C2584 C2583 1.398 . S
C2584 C2585 1.391 . S
C2585 H2573 0.950 . S
C2585 C2581 1.393 . S
C2585 C2584 1.391 . S
H2586 C2594 0.950 . S
H2587 C2599 0.950 . S
H2588 C2596 0.950 . S
H2589 C2598 0.950 . S
H2590 C2600 0.950 . S
H2591 C2602 0.950 . S
H2592 C2604 0.950 . S
H2593 C2605 0.950 . S
C2594 H2586 0.950 . S
C2594 C2595 1.386 . S
C2594 C2596 1.391 . S
C2595 C2594 1.386 . S
C2595 C2599 1.393 . S
C2596 H2588 0.950 . S
C2596 C2594 1.391 . S
C2596 C2597 1.400 . S
C2597 C2596 1.400 . S
C2597 C2598 1.398 . S
C2597 C2603 1.491 . S
C2598 H2589 0.950 . S
C2598 C2597 1.398 . S
C2598 C2599 1.391 . S
C2599 H2587 0.950 . S
C2599 C2595 1.393 . S
C2599 C2598 1.391 . S
C2600 H2590 0.950 . S
C2600 C2601 1.386 . S
C2600 C2602 1.391 . S
C2601 C2600 1.386 . S
C2601 C2605 1.393 . S
C2602 H2591 0.950 . S
C2602 C2600 1.391 . S
C2602 C2603 1.400 . S
C2603 C2597 1.491 . S
C2603 C2602 1.400 . S
C2603 C2604 1.398 . S
C2604 H2592 0.950 . S
C2604 C2603 1.398 . S
C2604 C2605 1.391 . S
C2605 H2593 0.950 . S
C2605 C2601 1.393 . S
C2605 C2604 1.391 . S
H2606 C2614 0.950 . S
H2607 C2619 0.950 . S
H2608 C2616 0.950 . S
H2609 C2618 0.950 . S
H2610 C2620 0.950 . S
H2611 C2622 0.950 . S
H2612 C2624 0.950 . S
H2613 C2625 0.950 . S
C2614 H2606 0.950 . S
C2614 C2615 1.386 . S
C2614 C2616 1.391 . S
C2615 C2614 1.386 . S
C2615 C2619 1.393 . S
C2616 H2608 0.950 . S
C2616 C2614 1.391 . S
C2616 C2617 1.400 . S
C2617 C2616 1.400 . S
C2617 C2618 1.398 . S
C2617 C2623 1.491 . S
C2618 H2609 0.950 . S
C2618 C2617 1.398 . S
C2618 C2619 1.391 . S
C2619 H2607 0.950 . S
C2619 C2615 1.393 . S
C2619 C2618 1.391 . S
C2620 H2610 0.950 . S
C2620 C2621 1.386 . S
C2620 C2622 1.391 . S
C2621 C2620 1.386 . S
C2621 C2625 1.393 . S
C2622 H2611 0.950 . S
C2622 C2620 1.391 . S
C2622 C2623 1.400 . S
C2623 C2617 1.491 . S
C2623 C2622 1.400 . S
C2623 C2624 1.398 . S
C2624 H2612 0.950 . S
C2624 C2623 1.398 . S
C2624 C2625 1.391 . S
C2625 H2613 0.950 . S
C2625 C2621 1.393 . S
C2625 C2624 1.391 . S
H2626 C2634 0.950 . S
H2627 C2639 0.950 . S
H2628 C2636 0.950 . S
H2629 C2638 0.950 . S
H2630 C2640 0.950 . S
H2631 C2642 0.950 . S
H2632 C2644 0.950 . S
H2633 C2645 0.950 . S
C2634 H2626 0.950 . S
C2634 C2635 1.386 . S
C2634 C2636 1.391 . S
C2635 C2634 1.386 . S
C2635 C2639 1.393 . S
C2636 H2628 0.950 . S
C2636 C2634 1.391 . S
C2636 C2637 1.400 . S
C2637 C2636 1.400 . S
C2637 C2638 1.398 . S
C2637 C2643 1.491 . S
C2638 H2629 0.950 . S
C2638 C2637 1.398 . S
C2638 C2639 1.391 . S
C2639 H2627 0.950 . S
C2639 C2635 1.393 . S
C2639 C2638 1.391 . S
C2640 H2630 0.950 . S
C2640 C2641 1.386 . S
C2640 C2642 1.391 . S
C2641 C2640 1.386 . S
C2641 C2645 1.393 . S
C2642 H2631 0.950 . S
C2642 C2640 1.391 . S
C2642 C2643 1.400 . S
C2643 C2637 1.491 . S
C2643 C2642 1.400 . S
C2643 C2644 1.398 . S
C2644 H2632 0.950 . S
C2644 C2643 1.398 . S
C2644 C2645 1.391 . S
C2645 H2633 0.950 . S
C2645 C2641 1.393 . S
C2645 C2644 1.391 . S
H2646 C2654 0.971 . S
H2647 C2659 0.950 . S
H2648 C2656 0.950 1_545 S
H2649 C2658 0.950 . S
H2650 C2660 0.950 . S
H2651 C2662 0.950 . S
H2652 C2664 0.950 . S
H2653 C2665 0.950 . S
C2654 H2646 0.971 . S
C2654 C2655 1.386 . S
C2654 C2656 1.391 . S
C2655 C2654 1.386 . S
C2655 C2659 1.393 . S
C2656 H2648 0.950 1_565 S
C2656 C2654 1.391 . S
C2656 C2657 1.400 . S
C2657 C2656 1.400 . S
C2657 C2658 1.398 . S
C2657 C2663 1.491 . S
C2658 H2649 0.950 . S
C2658 C2657 1.398 . S
C2658 C2659 1.391 . S
C2659 H2647 0.950 . S
C2659 C2655 1.393 . S
C2659 C2658 1.391 . S
C2660 H2650 0.950 . S
C2660 C2661 1.432 . S
C2660 C2662 1.391 . S
C2661 C2660 1.432 . S
C2661 C2665 1.377 1_565 S
C2662 H2651 0.950 . S
C2662 C2660 1.391 . S
C2662 C2663 1.400 . S
C2663 C2657 1.491 . S
C2663 C2662 1.400 . S
C2663 C2664 1.398 1_565 S
C2664 H2652 0.950 . S
C2664 C2663 1.398 1_545 S
C2664 C2665 1.391 . S
C2665 H2653 0.950 . S
C2665 C2661 1.377 1_545 S
C2665 C2664 1.391 . S
H2666 C2674 0.950 . S
H2667 C2679 0.950 . S
H2668 C2676 0.950 . S
H2669 C2678 0.950 . S
H2670 C2680 0.950 . S
H2671 C2682 0.950 . S
H2672 C2684 0.916 1_655 S
H2673 C2685 0.950 . S
C2674 H2666 0.950 . S
C2674 C2675 1.386 . S
C2674 C2676 1.391 . S
C2675 C2674 1.386 . S
C2675 C2679 1.393 . S
C2676 H2668 0.950 . S
C2676 C2674 1.391 . S
C2676 C2677 1.400 . S
C2677 C2676 1.400 . S
C2677 C2678 1.398 . S
C2677 C2683 1.491 . S
C2678 H2669 0.950 . S
C2678 C2677 1.398 . S
C2678 C2679 1.391 . S
C2679 H2667 0.950 . S
C2679 C2675 1.393 . S
C2679 C2678 1.391 . S
C2680 H2670 0.950 . S
C2680 C2681 1.365 1_455 S
C2680 C2682 1.391 . S
C2681 C2680 1.365 1_655 S
C2681 C2685 1.432 . S
C2682 H2671 0.950 . S
C2682 C2680 1.391 . S
C2682 C2683 1.400 . S
C2683 C2677 1.491 . S
C2683 C2682 1.400 . S
C2683 C2684 1.398 . S
C2684 H2672 0.916 1_455 S
C2684 C2683 1.398 . S
C2684 C2685 1.391 1_455 S
C2685 H2673 0.950 . S
C2685 C2681 1.432 . S
C2685 C2684 1.391 1_655 S
H2686 C2694 0.950 . S
H2687 C2699 0.950 . S
H2688 C2696 0.950 . S
H2689 C2698 0.950 . S
H2690 C2700 0.950 . S
H2691 C2702 0.950 . S
H2692 C2704 0.950 . S
H2693 C2705 0.950 . S
C2694 H2686 0.950 . S
C2694 C2695 1.386 . S
C2694 C2696 1.391 . S
C2695 C2694 1.386 . S
C2695 C2699 1.393 . S
C2696 H2688 0.950 . S
C2696 C2694 1.391 . S
C2696 C2697 1.400 . S
C2697 C2696 1.400 . S
C2697 C2698 1.398 . S
C2697 C2703 1.491 . S
C2698 H2689 0.950 . S
C2698 C2697 1.398 . S
C2698 C2699 1.391 . S
C2699 H2687 0.950 . S
C2699 C2695 1.393 . S
C2699 C2698 1.391 . S
C2700 H2690 0.950 . S
C2700 C2701 1.386 . S
C2700 C2702 1.391 . S
C2701 C2700 1.386 . S
C2701 C2705 1.393 . S
C2702 H2691 0.950 . S
C2702 C2700 1.391 . S
C2702 C2703 1.400 . S
C2703 C2697 1.491 . S
C2703 C2702 1.400 . S
C2703 C2704 1.398 . S
C2704 H2692 0.950 . S
C2704 C2703 1.398 . S
C2704 C2705 1.391 . S
C2705 H2693 0.950 . S
C2705 C2701 1.393 . S
C2705 C2704 1.391 . S
H2706 C2714 0.950 . S
H2707 C2719 0.950 . S
H2708 C2716 0.950 . S
H2709 C2718 0.950 . S
H2710 C2720 0.950 . S
H2711 C2722 0.950 . S
H2712 C2724 0.950 . S
H2713 C2725 0.950 . S
C2714 H2706 0.950 . S
C2714 C2715 1.386 . S
C2714 C2716 1.391 . S
C2715 C2714 1.386 . S
C2715 C2719 1.393 . S
C2716 H2708 0.950 . S
C2716 C2714 1.391 . S
C2716 C2717 1.400 . S
C2717 C2716 1.400 . S
C2717 C2718 1.398 . S
C2717 C2723 1.491 . S
C2718 H2709 0.950 . S
C2718 C2717 1.398 . S
C2718 C2719 1.391 . S
C2719 H2707 0.950 . S
C2719 C2715 1.393 . S
C2719 C2718 1.391 . S
C2720 H2710 0.950 . S
C2720 C2721 1.386 . S
C2720 C2722 1.391 . S
C2721 C2720 1.386 . S
C2721 C2725 1.393 . S
C2722 H2711 0.950 . S
C2722 C2720 1.391 . S
C2722 C2723 1.400 . S
C2723 C2717 1.491 . S
C2723 C2722 1.400 . S
C2723 C2724 1.398 . S
C2724 H2712 0.950 . S
C2724 C2723 1.398 . S
C2724 C2725 1.391 . S
C2725 H2713 0.950 . S
C2725 C2721 1.393 . S
C2725 C2724 1.391 . S
H2726 C2734 0.950 . S
H2727 C2739 0.950 . S
H2728 C2736 0.950 . S
H2729 C2738 0.950 . S
H2730 C2740 0.950 . S
H2731 C2742 0.950 . S
H2732 C2744 0.950 . S
H2733 C2745 0.950 . S
C2734 H2726 0.950 . S
C2734 C2735 1.386 . S
C2734 C2736 1.391 . S
C2735 C2734 1.386 . S
C2735 C2739 1.393 . S
C2736 H2728 0.950 . S
C2736 C2734 1.391 . S
C2736 C2737 1.400 . S
C2737 C2736 1.400 . S
C2737 C2738 1.398 . S
C2737 C2743 1.491 . S
C2738 H2729 0.950 . S
C2738 C2737 1.398 . S
C2738 C2739 1.391 . S
C2739 H2727 0.950 . S
C2739 C2735 1.393 . S
C2739 C2738 1.391 . S
C2740 H2730 0.950 . S
C2740 C2741 1.386 . S
C2740 C2742 1.391 . S
C2741 C2740 1.386 . S
C2741 C2745 1.393 . S
C2742 H2731 0.950 . S
C2742 C2740 1.391 . S
C2742 C2743 1.400 . S
C2743 C2737 1.491 . S
C2743 C2742 1.400 . S
C2743 C2744 1.398 . S
C2744 H2732 0.950 . S
C2744 C2743 1.398 . S
C2744 C2745 1.391 . S
C2745 H2733 0.950 . S
C2745 C2741 1.393 . S
C2745 C2744 1.391 . S
H2746 C2754 0.950 . S
H2747 C2759 0.950 . S
H2748 C2756 0.950 . S
H2749 C2758 0.950 . S
H2750 C2760 0.950 . S
H2751 C2762 0.950 . S
H2752 C2764 0.950 . S
H2753 C2765 0.950 . S
C2754 H2746 0.950 . S
C2754 C2755 1.386 . S
C2754 C2756 1.391 . S
C2755 C2754 1.386 . S
C2755 C2759 1.393 . S
C2756 H2748 0.950 . S
C2756 C2754 1.391 . S
C2756 C2757 1.400 . S
C2757 C2756 1.400 . S
C2757 C2758 1.398 . S
C2757 C2763 1.491 . S
C2758 H2749 0.950 . S
C2758 C2757 1.398 . S
C2758 C2759 1.391 . S
C2759 H2747 0.950 . S
C2759 C2755 1.393 . S
C2759 C2758 1.391 . S
C2760 H2750 0.950 . S
C2760 C2761 1.386 . S
C2760 C2762 1.391 . S
C2761 C2760 1.386 . S
C2761 C2765 1.393 . S
C2762 H2751 0.950 . S
C2762 C2760 1.391 . S
C2762 C2763 1.400 . S
C2763 C2757 1.491 . S
C2763 C2762 1.400 . S
C2763 C2764 1.398 . S
C2764 H2752 0.950 . S
C2764 C2763 1.398 . S
C2764 C2765 1.391 . S
C2765 H2753 0.950 . S
C2765 C2761 1.393 . S
C2765 C2764 1.391 . S
H2766 C2774 0.950 . S
H2767 C2779 0.932 1_565 S
H2768 C2776 0.950 . S
H2769 C2778 0.950 1_565 S
H2770 C2780 0.950 . S
H2771 C2782 0.933 1_565 S
H2772 C2784 0.950 . S
H2773 C2785 0.950 . S
C2774 H2766 0.950 . S
C2774 C2775 1.386 . S
C2774 C2776 1.391 . S
C2775 C2774 1.386 . S
C2775 C2779 1.393 . S
C2776 H2768 0.950 . S
C2776 C2774 1.391 . S
C2776 C2777 1.400 . S
C2777 C2776 1.400 . S
C2777 C2778 1.398 . S
C2777 C2783 1.491 . S
C2778 H2769 0.950 1_545 S
C2778 C2777 1.398 . S
C2778 C2779 1.391 . S
C2779 H2767 0.932 1_545 S
C2779 C2775 1.393 . S
C2779 C2778 1.391 . S
C2780 H2770 0.950 . S
C2780 C2781 1.386 1_565 S
C2780 C2782 1.359 1_565 S
C2781 C2780 1.386 1_545 S
C2781 C2785 1.393 . S
C2782 H2771 0.933 1_545 S
C2782 C2780 1.359 1_545 S
C2782 C2783 1.452 . S
C2783 C2777 1.491 . S
C2783 C2782 1.452 . S
C2783 C2784 1.398 . S
C2784 H2772 0.950 . S
C2784 C2783 1.398 . S
C2784 C2785 1.391 . S
C2785 H2773 0.950 . S
C2785 C2781 1.393 . S
C2785 C2784 1.391 . S
H2786 C2794 0.950 . S
H2787 C2799 0.950 . S
H2788 C2796 0.950 . S
H2789 C2798 0.950 . S
H2790 C2800 0.950 . S
H2791 C2802 0.950 . S
H2792 C2804 0.950 . S
H2793 C2805 0.949 1_455 S
C2794 H2786 0.950 . S
C2794 C2795 1.386 . S
C2794 C2796 1.391 . S
C2795 C2794 1.386 . S
C2795 C2799 1.393 . S
C2796 H2788 0.950 . S
C2796 C2794 1.391 . S
C2796 C2797 1.400 . S
C2797 C2796 1.400 . S
C2797 C2798 1.398 . S
C2797 C2803 1.491 . S
C2798 H2789 0.950 . S
C2798 C2797 1.398 . S
C2798 C2799 1.391 . S
C2799 H2787 0.950 . S
C2799 C2795 1.393 . S
C2799 C2798 1.391 . S
C2800 H2790 0.950 . S
C2800 C2801 1.386 . S
C2800 C2802 1.391 . S
C2801 C2800 1.386 . S
C2801 C2805 1.393 . S
C2802 H2791 0.950 . S
C2802 C2800 1.391 . S
C2802 C2803 1.400 . S
C2803 C2797 1.491 . S
C2803 C2802 1.400 . S
C2803 C2804 1.398 . S
C2804 H2792 0.950 . S
C2804 C2803 1.398 . S
C2804 C2805 1.391 . S
C2805 H2793 0.949 1_655 S
C2805 C2801 1.393 . S
C2805 C2804 1.391 . S
H2806 C2814 0.950 . S
H2807 C2819 0.950 . S
H2808 C2816 0.950 . S
H2809 C2818 0.950 . S
H2810 C2820 0.950 . S
H2811 C2822 0.950 . S
H2812 C2824 0.950 . S
H2813 C2825 0.950 . S
C2814 H2806 0.950 . S
C2814 C2815 1.386 . S
C2814 C2816 1.391 . S
C2815 C2814 1.386 . S
C2815 C2819 1.393 . S
C2816 H2808 0.950 . S
C2816 C2814 1.391 . S
C2816 C2817 1.400 . S
C2817 C2816 1.400 . S
C2817 C2818 1.398 . S
C2817 C2823 1.491 . S
C2818 H2809 0.950 . S
C2818 C2817 1.398 . S
C2818 C2819 1.391 . S
C2819 H2807 0.950 . S
C2819 C2815 1.393 . S
C2819 C2818 1.391 . S
C2820 H2810 0.950 . S
C2820 C2821 1.386 . S
C2820 C2822 1.391 . S
C2821 C2820 1.386 . S
C2821 C2825 1.393 . S
C2822 H2811 0.950 . S
C2822 C2820 1.391 . S
C2822 C2823 1.400 . S
C2823 C2817 1.491 . S
C2823 C2822 1.400 . S
C2823 C2824 1.398 . S
C2824 H2812 0.950 . S
C2824 C2823 1.398 . S
C2824 C2825 1.391 . S
C2825 H2813 0.950 . S
C2825 C2821 1.393 . S
C2825 C2824 1.391 . S
H2826 C2834 0.950 . S
H2827 C2839 0.950 . S
H2828 C2836 0.950 . S
H2829 C2838 0.950 . S
H2830 C2840 0.950 . S
H2831 C2842 0.950 . S
H2832 C2844 0.950 . S
H2833 C2845 0.950 . S
C2834 H2826 0.950 . S
C2834 C2835 1.386 . S
C2834 C2836 1.391 . S
C2835 C2834 1.386 . S
C2835 C2839 1.393 . S
C2836 H2828 0.950 . S
C2836 C2834 1.391 . S
C2836 C2837 1.400 . S
C2837 C2836 1.400 . S
C2837 C2838 1.398 . S
C2837 C2843 1.491 . S
C2838 H2829 0.950 . S
C2838 C2837 1.398 . S
C2838 C2839 1.391 . S
C2839 H2827 0.950 . S
C2839 C2835 1.393 . S
C2839 C2838 1.391 . S
C2840 H2830 0.950 . S
C2840 C2841 1.386 . S
C2840 C2842 1.391 . S
C2841 C2840 1.386 . S
C2841 C2845 1.393 . S
C2842 H2831 0.950 . S
C2842 C2840 1.391 . S
C2842 C2843 1.400 . S
C2843 C2837 1.491 . S
C2843 C2842 1.400 . S
C2843 C2844 1.398 . S
C2844 H2832 0.950 . S
C2844 C2843 1.398 . S
C2844 C2845 1.391 . S
C2845 H2833 0.950 . S
C2845 C2841 1.393 . S
C2845 C2844 1.391 . S
H2846 C2854 0.950 . S
H2847 C2859 0.950 . S
H2848 C2856 0.950 . S
H2849 C2858 0.950 . S
H2850 C2860 0.950 . S
H2851 C2862 0.950 . S
H2852 C2864 0.950 . S
H2853 C2865 0.950 . S
C2854 H2846 0.950 . S
C2854 C2855 1.386 . S
C2854 C2856 1.391 . S
C2855 C2854 1.386 . S
C2855 C2859 1.393 . S
C2856 H2848 0.950 . S
C2856 C2854 1.391 . S
C2856 C2857 1.400 . S
C2857 C2856 1.400 . S
C2857 C2858 1.398 . S
C2857 C2863 1.491 . S
C2858 H2849 0.950 . S
C2858 C2857 1.398 . S
C2858 C2859 1.391 . S
C2859 H2847 0.950 . S
C2859 C2855 1.393 . S
C2859 C2858 1.391 . S
C2860 H2850 0.950 . S
C2860 C2861 1.386 . S
C2860 C2862 1.391 . S
C2861 C2860 1.386 . S
C2861 C2865 1.393 . S
C2862 H2851 0.950 . S
C2862 C2860 1.391 . S
C2862 C2863 1.400 . S
C2863 C2857 1.491 . S
C2863 C2862 1.400 . S
C2863 C2864 1.398 . S
C2864 H2852 0.950 . S
C2864 C2863 1.398 . S
C2864 C2865 1.391 . S
C2865 H2853 0.950 . S
C2865 C2861 1.393 . S
C2865 C2864 1.391 . S
H2866 C2874 0.950 . S
H2867 C2879 0.950 . S
H2868 C2876 0.950 . S
H2869 C2878 0.950 . S
H2870 C2880 0.950 . S
H2871 C2882 0.950 . S
H2872 C2884 0.950 . S
H2873 C2885 0.950 . S
C2874 H2866 0.950 . S
C2874 C2875 1.386 . S
C2874 C2876 1.391 . S
C2875 C2874 1.386 . S
C2875 C2879 1.393 . S
C2876 H2868 0.950 . S
C2876 C2874 1.391 . S
C2876 C2877 1.400 . S
C2877 C2876 1.400 . S
C2877 C2878 1.398 . S
C2877 C2883 1.491 . S
C2878 H2869 0.950 . S
C2878 C2877 1.398 . S
C2878 C2879 1.391 . S
C2879 H2867 0.950 . S
C2879 C2875 1.393 . S
C2879 C2878 1.391 . S
C2880 H2870 0.950 . S
C2880 C2881 1.386 . S
C2880 C2882 1.391 . S
C2881 C2880 1.386 . S
C2881 C2885 1.393 . S
C2882 H2871 0.950 . S
C2882 C2880 1.391 . S
C2882 C2883 1.400 . S
C2883 C2877 1.491 . S
C2883 C2882 1.400 . S
C2883 C2884 1.398 . S
C2884 H2872 0.950 . S
C2884 C2883 1.398 . S
C2884 C2885 1.391 . S
C2885 H2873 0.950 . S
C2885 C2881 1.393 . S
C2885 C2884 1.391 . S
H2886 C2894 0.950 . S
H2887 C2899 0.950 . S
H2888 C2896 0.950 . S
H2889 C2898 0.950 . S
H2890 C2900 0.950 . S
H2891 C2902 0.950 . S
H2892 C2904 0.950 . S
H2893 C2905 0.950 . S
C2894 H2886 0.950 . S
C2894 C2895 1.386 . S
C2894 C2896 1.391 . S
C2895 C2894 1.386 . S
C2895 C2899 1.393 . S
C2896 H2888 0.950 . S
C2896 C2894 1.391 . S
C2896 C2897 1.400 . S
C2897 C2896 1.400 . S
C2897 C2898 1.398 . S
C2897 C2903 1.491 . S
C2898 H2889 0.950 . S
C2898 C2897 1.398 . S
C2898 C2899 1.391 . S
C2899 H2887 0.950 . S
C2899 C2895 1.393 . S
C2899 C2898 1.391 . S
C2900 H2890 0.950 . S
C2900 C2901 1.386 . S
C2900 C2902 1.391 . S
C2901 C2900 1.386 . S
C2901 C2905 1.393 . S
C2902 H2891 0.950 . S
C2902 C2900 1.391 . S
C2902 C2903 1.400 . S
C2903 C2897 1.491 . S
C2903 C2902 1.400 . S
C2903 C2904 1.398 . S
C2904 H2892 0.950 . S
C2904 C2903 1.398 . S
C2904 C2905 1.391 . S
C2905 H2893 0.950 . S
C2905 C2901 1.393 . S
C2905 C2904 1.391 . S
H2906 C2914 0.950 . S
H2907 C2919 0.950 . S
H2908 C2916 0.950 . S
H2909 C2918 0.950 . S
H2910 C2920 0.950 . S
H2911 C2922 0.950 . S
H2912 C2924 0.950 . S
H2913 C2925 0.950 . S
C2914 H2906 0.950 . S
C2914 C2915 1.386 . S
C2914 C2916 1.391 . S
C2915 C2914 1.386 . S
C2915 C2919 1.393 . S
C2916 H2908 0.950 . S
C2916 C2914 1.391 . S
C2916 C2917 1.400 . S
C2917 C2916 1.400 . S
C2917 C2918 1.398 . S
C2917 C2923 1.491 . S
C2918 H2909 0.950 . S
C2918 C2917 1.398 . S
C2918 C2919 1.391 . S
C2919 H2907 0.950 . S
C2919 C2915 1.393 . S
C2919 C2918 1.391 . S
C2920 H2910 0.950 . S
C2920 C2921 1.386 . S
C2920 C2922 1.391 . S
C2921 C2920 1.386 . S
C2921 C2925 1.393 . S
C2922 H2911 0.950 . S
C2922 C2920 1.391 . S
C2922 C2923 1.400 . S
C2923 C2917 1.491 . S
C2923 C2922 1.400 . S
C2923 C2924 1.398 . S
C2924 H2912 0.950 . S
C2924 C2923 1.398 . S
C2924 C2925 1.391 . S
C2925 H2913 0.950 . S
C2925 C2921 1.393 . S
C2925 C2924 1.391 . S
H2926 C2934 0.950 1_655 S
H2927 C2939 0.950 . S
H2928 C2936 0.950 . S
H2929 C2938 0.950 . S
H2930 C2940 0.950 . S
H2931 C2942 0.950 . S
H2932 C2944 0.950 . S
H2933 C2945 0.950 . S
C2934 H2926 0.950 1_455 S
C2934 C2935 1.386 . S
C2934 C2936 1.391 . S
C2935 C2934 1.386 . S
C2935 C2939 1.393 . S
C2936 H2928 0.950 . S
C2936 C2934 1.391 . S
C2936 C2937 1.400 . S
C2937 C2936 1.400 . S
C2937 C2938 1.398 . S
C2937 C2943 1.491 . S
C2938 H2929 0.950 . S
C2938 C2937 1.398 . S
C2938 C2939 1.391 . S
C2939 H2927 0.950 . S
C2939 C2935 1.393 . S
C2939 C2938 1.391 . S
C2940 H2930 0.950 . S
C2940 C2941 1.386 . S
C2940 C2942 1.391 . S
C2941 C2940 1.386 . S
C2941 C2945 1.393 . S
C2942 H2931 0.950 . S
C2942 C2940 1.391 . S
C2942 C2943 1.400 . S
C2943 C2937 1.491 . S
C2943 C2942 1.400 . S
C2943 C2944 1.398 . S
C2944 H2932 0.950 . S
C2944 C2943 1.398 . S
C2944 C2945 1.391 . S
C2945 H2933 0.950 . S
C2945 C2941 1.393 . S
C2945 C2944 1.391 . S
H2946 C2954 0.950 . S
H2947 C2959 0.950 . S
H2948 C2956 0.950 . S
H2949 C2958 0.950 . S
H2950 C2960 0.950 . S
H2951 C2962 0.950 . S
H2952 C2964 0.935 1_455 S
H2953 C2965 0.950 . S
C2954 H2946 0.950 . S
C2954 C2955 1.386 . S
C2954 C2956 1.391 . S
C2955 C2954 1.386 . S
C2955 C2959 1.393 . S
C2956 H2948 0.950 . S
C2956 C2954 1.391 . S
C2956 C2957 1.400 . S
C2957 C2956 1.400 . S
C2957 C2958 1.398 . S
C2957 C2963 1.491 . S
C2958 H2949 0.950 . S
C2958 C2957 1.398 . S
C2958 C2959 1.391 . S
C2959 H2947 0.950 . S
C2959 C2955 1.393 . S
C2959 C2958 1.391 . S
C2960 H2950 0.950 . S
C2960 C2961 1.386 . S
C2960 C2962 1.391 . S
C2961 C2960 1.386 . S
C2961 C2965 1.393 1_655 S
C2962 H2951 0.950 . S
C2962 C2960 1.391 . S
C2962 C2963 1.400 . S
C2963 C2957 1.491 . S
C2963 C2962 1.400 . S
C2963 C2964 1.455 . S
C2964 H2952 0.935 1_655 S
C2964 C2963 1.455 . S
C2964 C2965 1.351 1_655 S
C2965 H2953 0.950 . S
C2965 C2961 1.393 1_455 S
C2965 C2964 1.351 1_455 S
H2966 C2974 0.950 . S
H2967 C2979 0.950 . S
H2968 C2976 0.950 . S
H2969 C2978 0.950 . S
H2970 C2980 0.950 . S
H2971 C2982 0.950 . S
H2972 C2984 0.950 . S
H2973 C2985 0.950 . S
C2974 H2966 0.950 . S
C2974 C2975 1.386 . S
C2974 C2976 1.391 . S
C2975 C2974 1.386 . S
C2975 C2979 1.393 . S
C2976 H2968 0.950 . S
C2976 C2974 1.391 . S
C2976 C2977 1.400 . S
C2977 C2976 1.400 . S
C2977 C2978 1.398 . S
C2977 C2983 1.491 . S
C2978 H2969 0.950 . S
C2978 C2977 1.398 . S
C2978 C2979 1.391 . S
C2979 H2967 0.950 . S
C2979 C2975 1.393 . S
C2979 C2978 1.391 . S
C2980 H2970 0.950 . S
C2980 C2981 1.386 . S
C2980 C2982 1.391 . S
C2981 C2980 1.386 . S
C2981 C2985 1.393 . S
C2982 H2971 0.950 . S
C2982 C2980 1.391 . S
C2982 C2983 1.400 . S
C2983 C2977 1.491 . S
C2983 C2982 1.400 . S
C2983 C2984 1.398 . S
C2984 H2972 0.950 . S
C2984 C2983 1.398 . S
C2984 C2985 1.391 . S
C2985 H2973 0.950 . S
C2985 C2981 1.393 . S
C2985 C2984 1.391 . S
H2986 C2994 0.950 . S
H2987 C2999 0.950 . S
H2988 C2996 0.950 . S
H2989 C2998 0.950 . S
H2990 C3000 0.950 . S
H2991 C3002 0.904 1_565 S
H2992 C3004 0.950 . S
H2993 C3005 0.950 . S
C2994 H2986 0.950 . S
C2994 C2995 1.386 . S
C2994 C2996 1.391 . S
C2995 C2994 1.386 . S
C2995 C2999 1.393 . S
C2996 H2988 0.950 . S
C2996 C2994 1.391 . S
C2996 C2997 1.400 . S
C2997 C2996 1.400 . S
C2997 C2998 1.398 . S
C2997 C3003 1.491 . S
C2998 H2989 0.950 . S
C2998 C2997 1.398 . S
C2998 C2999 1.391 . S
C2999 H2987 0.950 . S
C2999 C2995 1.393 . S
C2999 C2998 1.391 . S
C3000 H2990 0.950 . S
C3000 C3001 1.386 1_565 S
C3000 C3002 1.391 1_565 S
C3001 C3000 1.386 1_545 S
C3001 C3005 1.393 . S
C3002 H2991 0.904 1_545 S
C3002 C3000 1.391 1_545 S
C3002 C3003 1.400 . S
C3003 C2997 1.491 . S
C3003 C3002 1.400 . S
C3003 C3004 1.398 . S
C3004 H2992 0.950 . S
C3004 C3003 1.398 . S
C3004 C3005 1.391 . S
C3005 H2993 0.950 . S
C3005 C3001 1.393 . S
C3005 C3004 1.391 . S
C1575 C10 1.214 1_655 S
C1581 C963 1.174 . S
C1595 C23 1.608 . S
C1601 C1043 1.580 . S
C1621 C1111 1.381 . S
C1615 C29 1.421 . S
C1635 C30 1.829 . S
C1641 C1191 1.804 . S
C1655 C5 1.605 . S
C1661 C1265 1.574 . S
C1675 C18 1.615 . S
C1681 C1333 1.551 . S
C1695 C49 1.148 1_556 S
C1701 C1259 1.113 . S
C1721 C1339 1.493 . S
C1715 C62 1.496 . S
C1741 C1185 1.331 . S
C1735 C70 1.354 1_556 S
C1755 C75 1.776 . S
C1761 C1117 1.760 . S
C1781 C969 1.537 1_455 S
C1775 C44 1.525 . S
C1795 C57 1.461 . S
C1801 C1037 1.453 . S
C1815 C88 1.362 . S
C1821 C1407 1.276 . S
C1835 C101 1.643 . S
C1841 C1487 1.605 . S
C1861 C1555 1.483 . S
C1855 C107 1.551 . S
C1875 C108 1.938 . S
C1881 C303 1.875 . S
C1895 C83 1.714 . S
C1901 C377 1.660 . S
C1915 C96 1.634 . S
C1921 C445 1.568 . S
C1935 C127 1.143 . S
C1941 C371 1.115 . S
C1955 C140 1.524 . S
C1961 C451 1.516 . S
C1981 C297 1.385 . S
C1975 C146 1.401 . S
C2001 C1561 1.851 . S
C1995 C147 1.869 . S
C2021 C1413 1.575 . S
C2015 C122 1.582 . S
C2041 C1481 1.488 . S
C2035 C135 1.499 . S
C2055 C160 1.304 . S
C2061 C519 1.230 . S
C2075 C173 1.645 . S
C2081 C599 1.611 . S
C2095 C185 1.556 . S
C2101 C667 1.502 . S
C2115 C186 1.992 . S
C2121 C747 1.942 . S
C2141 C821 1.672 . S
C2135 C159 1.714 . S
C2161 C889 1.583 . S
C2155 C172 1.661 . S
C2181 C815 1.185 . S
C2175 C205 1.204 . S
C2201 C895 1.519 . S
C2195 C218 1.520 . S
C2215 C224 1.390 . S
C2221 C741 1.384 . S
C2241 C673 1.815 . S
C2235 C225 1.825 . S
C2255 C200 1.590 . S
C2261 C525 1.589 . S
C2281 C593 1.451 . S
C2275 C213 1.470 . S
C2301 C273 1.904 . S
C2295 C4 1.947 . S
C2315 C17 1.458 . S
C2321 C347 1.438 . S
C2341 C433 1.456 . S
C2335 C31 1.464 . S
C2361 C507 1.212 . S
C2355 C36 1.222 1_556 S
C2381 C569 1.594 . S
C2375 C3 1.632 . S
C2401 C655 1.532 . S
C2395 C16 1.529 . S
C2415 C43 2.076 . S
C2421 C643 2.000 . S
C2435 C56 1.599 . S
C2441 C495 1.550 . S
C2455 C68 1.628 . S
C2461 C581 1.600 . S
C2475 C69 1.408 . S
C2481 C359 1.362 . S
C2501 C421 1.696 . S
C2495 C42 1.753 . S
C2515 C55 1.698 . S
C2521 C285 1.659 . S
C2541 C717 1.909 . S
C2535 C82 1.943 . S
C2555 C95 1.542 1_545 S
C2561 C791 1.521 . S
C2575 C109 1.492 . S
C2581 C877 1.491 . S
C2601 C951 1.136 . S
C2595 C114 1.141 . S
C2615 C81 1.588 . S
C2621 C1013 1.576 . S
C2635 C94 1.482 . S
C2641 C1099 1.480 . S
C2655 C121 1.929 . S
C2661 C1087 1.828 1_565 S
C2675 C134 1.504 . S
C2681 C939 1.443 . S
C2701 C1025 1.575 . S
C2695 C148 1.599 . S
C2715 C153 1.397 . S
C2721 C803 1.336 . S
C2735 C120 1.782 1_545 S
C2741 C865 1.719 . S
C2761 C729 1.712 . S
C2755 C133 1.752 1_655 S
C2781 C1161 1.825 . S
C2775 C166 1.865 . S
C2795 C179 1.416 . S
C2801 C1235 1.408 . S
C2815 C187 1.447 . S
C2821 C1321 1.448 . S
C2841 C1395 1.203 . S
C2835 C192 1.221 . S
C2861 C1457 1.623 . S
C2855 C161 1.644 1_565 S
C2875 C174 1.585 1_455 S
C2881 C1543 1.587 . S
C2895 C199 2.065 . S
C2901 C1531 1.979 . S
C2915 C212 1.680 1_565 S
C2921 C1383 1.620 . S
C2941 C1469 1.623 . S
C2935 C226 1.652 1_455 S
C2961 C1247 1.224 . S
C2955 C231 1.246 . S
C2981 C1309 1.655 . S
C2975 C198 1.722 . S
C2995 C211 1.562 . S
C3001 C1173 1.531 . S
