# Generated by pormake.
# Topology hwx, (6,3)-cn, num edge types: 1
# Building blocks:
#     Node 0, Type 0, BuildingBlock: OJICUG_clean_sbu_0, # of connection points: 6
#     Node 1, Type 0, BuildingBlock: OJICUG_clean_sbu_0, # of connection points: 6
#     Node 2, Type 0, BuildingBlock: OJICUG_clean_sbu_0, # of connection points: 6
#     Node 3, Type 0, BuildingBlock: OJICUG_clean_sbu_0, # of connection points: 6
#     Node 4, Type 1, BuildingBlock: MIDCAF_clean_linker_0, # of connection points: 3
#     Node 5, Type 1, BuildingBlock: MIDCAF_clean_linker_0, # of connection points: 3
#     Node 6, Type 1, BuildingBlock: MIDCAF_clean_linker_0, # of connection points: 3
#     Node 7, Type 1, BuildingBlock: MIDCAF_clean_linker_0, # of connection points: 3
#     Node 8, Type 1, BuildingBlock: MIDCAF_clean_linker_0, # of connection points: 3
#     Node 9, Type 1, BuildingBlock: MIDCAF_clean_linker_0, # of connection points: 3
#     Node 10, Type 1, BuildingBlock: MIDCAF_clean_linker_0, # of connection points: 3
#     Node 11, Type 1, BuildingBlock: MIDCAF_clean_linker_0, # of connection points: 3
#     Edge 12, Type (0, 1), BuildingBlock: TEMPAE_clean_linker_10, # of connection points: 2
#     Edge 13, Type (0, 1), BuildingBlock: TEMPAE_clean_linker_10, # of connection points: 2
#     Edge 14, Type (0, 1), BuildingBlock: TEMPAE_clean_linker_10, # of connection points: 2
#     Edge 15, Type (0, 1), BuildingBlock: TEMPAE_clean_linker_10, # of connection points: 2
#     Edge 16, Type (0, 1), BuildingBlock: TEMPAE_clean_linker_10, # of connection points: 2
#     Edge 17, Type (0, 1), BuildingBlock: TEMPAE_clean_linker_10, # of connection points: 2
#     Edge 18, Type (0, 1), BuildingBlock: TEMPAE_clean_linker_10, # of connection points: 2
#     Edge 19, Type (0, 1), BuildingBlock: TEMPAE_clean_linker_10, # of connection points: 2
#     Edge 20, Type (0, 1), BuildingBlock: TEMPAE_clean_linker_10, # of connection points: 2
#     Edge 21, Type (0, 1), BuildingBlock: TEMPAE_clean_linker_10, # of connection points: 2
#     Edge 22, Type (0, 1), BuildingBlock: TEMPAE_clean_linker_10, # of connection points: 2
#     Edge 23, Type (0, 1), BuildingBlock: TEMPAE_clean_linker_10, # of connection points: 2
#     Edge 24, Type (0, 1), BuildingBlock: TEMPAE_clean_linker_10, # of connection points: 2
#     Edge 25, Type (0, 1), BuildingBlock: TEMPAE_clean_linker_10, # of connection points: 2
#     Edge 26, Type (0, 1), BuildingBlock: TEMPAE_clean_linker_10, # of connection points: 2
#     Edge 27, Type (0, 1), BuildingBlock: TEMPAE_clean_linker_10, # of connection points: 2
#     Edge 28, Type (0, 1), BuildingBlock: TEMPAE_clean_linker_10, # of connection points: 2
#     Edge 29, Type (0, 1), BuildingBlock: TEMPAE_clean_linker_10, # of connection points: 2
#     Edge 30, Type (0, 1), BuildingBlock: TEMPAE_clean_linker_10, # of connection points: 2
#     Edge 31, Type (0, 1), BuildingBlock: TEMPAE_clean_linker_10, # of connection points: 2
#     Edge 32, Type (0, 1), BuildingBlock: TEMPAE_clean_linker_10, # of connection points: 2
#     Edge 33, Type (0, 1), BuildingBlock: TEMPAE_clean_linker_10, # of connection points: 2
#     Edge 34, Type (0, 1), BuildingBlock: TEMPAE_clean_linker_10, # of connection points: 2
#     Edge 35, Type (0, 1), BuildingBlock: TEMPAE_clean_linker_10, # of connection points: 2
# Relax obj value: 0.078
# Max RMSD: 0.103
# Mean RMSD: 0.095
data_MOF--net-hwx--node1-OJICUG_clean_sbu_0--node2-MIDCAF_clean_linker_0--edge1-TEMPAE_clean_linker_10
_symmetry_space_group_name_H-M    P1
_symmetry_Int_Tables_number       1
_symmetry_cell_setting            triclinic
loop_
_symmetry_equiv_pos_as_xyz
'x, y, z'
_cell_length_a     61.173849
_cell_length_b     61.210174
_cell_length_c     27.776693
_cell_angle_alpha  89.86412
_cell_angle_beta   90.166146
_cell_angle_gamma 90.008576
loop_
_atom_site_label
_atom_site_type_symbol
_atom_site_fract_x
_atom_site_fract_y
_atom_site_fract_z
_atom_type_partial_charge
Sc0 Sc 0.21072 0.21511 0.06129 0.0
Sc1 Sc 0.175 0.18277 0.99105 0.0
Sc2 Sc 0.21502 0.21585 0.93549 0.0
O3 O 0.20021 0.20456 0.99594 0.0
C4 C 0.2122 0.25892 -0.00079 0.0
C5 C 0.15893 0.21439 0.07484 0.0
C6 C 0.16472 0.21518 0.90396 0.0
C7 C 0.20214 0.16442 0.08066 0.0
C8 C 0.25577 0.20954 0.00575 0.0
C9 C 0.20819 0.16545 0.91158 0.0
O10 O 0.21114 0.2487 0.03899 0.0
O11 O 0.15512 0.20035 0.0422 0.0
O12 O 0.18437 0.22162 0.89974 0.0
O13 O 0.21112 0.18262 0.09033 0.0
O14 O 0.24727 0.21122 0.96419 0.0
O15 O 0.19194 0.16272 0.93936 0.0
O16 O 0.24474 0.21084 0.04429 0.0
O17 O 0.18859 0.16198 0.04628 0.0
O18 O 0.21795 0.1836 0.90654 0.0
O19 O 0.17806 0.22082 0.08551 0.0
O20 O 0.21388 0.24933 0.95885 0.0
O21 O 0.15881 0.20115 0.93512 0.0
Sc22 Sc 0.28019 0.718 0.44458 0.0
Sc23 Sc 0.31526 0.6814 0.50567 0.0
Sc24 Sc 0.28065 0.71684 0.57073 0.0
O25 O 0.29205 0.70538 0.50701 0.0
C26 C 0.28505 0.76057 0.50903 0.0
C27 C 0.33107 0.71288 0.42124 0.0
C28 C 0.33159 0.71142 0.59257 0.0
C29 C 0.28321 0.66729 0.42006 0.0
C30 C 0.23698 0.71526 0.50847 0.0
C31 C 0.28408 0.66551 0.59053 0.0
O32 O 0.28442 0.75098 0.46858 0.0
O33 O 0.33491 0.6985 0.45328 0.0
O34 O 0.31296 0.71995 0.59987 0.0
O35 O 0.27508 0.68623 0.41441 0.0
O36 O 0.24707 0.71478 0.54845 0.0
O37 O 0.29813 0.66171 0.55795 0.0
O38 O 0.24673 0.71697 0.4683 0.0
O39 O 0.29825 0.66319 0.45052 0.0
O40 O 0.27686 0.68453 0.59937 0.0
O41 O 0.31213 0.72068 0.41369 0.0
O42 O 0.28315 0.75054 0.5489 0.0
O43 O 0.33486 0.69693 0.56064 0.0
Sc44 Sc 0.77944 0.77783 0.9276 0.0
Sc45 Sc 0.82191 0.80992 0.97638 0.0
Sc46 Sc 0.78616 0.78091 0.05301 0.0
O47 O 0.79587 0.78957 0.98566 0.0
C48 C 0.74017 0.78631 -0.00011 0.0
C49 C 0.78806 0.82738 0.8977 0.0
C50 C 0.79688 0.83138 0.06572 0.0
C51 C 0.82888 0.77579 0.89116 0.0
C52 C 0.78252 0.73599 0.9961 0.0
C53 C 0.83819 0.78053 0.0639 0.0
O54 O 0.74796 0.78449 0.95784 0.0
O55 O 0.80467 0.82993 0.92474 0.0
O56 O 0.78645 0.81415 0.07703 0.0
O57 O 0.80898 0.76986 0.88991 0.0
O58 O 0.78536 0.74682 0.03463 0.0
O59 O 0.8421 0.79203 0.02675 0.0
O60 O 0.77956 0.74494 0.95522 0.0
O61 O 0.83596 0.79018 0.92021 0.0
O62 O 0.81899 0.776 0.07791 0.0
O63 O 0.77753 0.80954 0.89483 0.0
O64 O 0.75184 0.78478 0.03761 0.0
O65 O 0.81062 0.83211 0.03141 0.0
Sc66 Sc 0.71552 0.27878 0.5765 0.0
Sc67 Sc 0.68062 0.3172 0.52056 0.0
Sc68 Sc 0.71177 0.28063 0.45047 0.0
O69 O 0.70263 0.29225 0.51585 0.0
C70 C 0.75701 0.2813 0.50762 0.0
C71 C 0.71456 0.3294 0.60374 0.0
C72 C 0.70962 0.33201 0.43122 0.0
C73 C 0.66549 0.28532 0.60534 0.0
C74 C 0.70852 0.23661 0.51138 0.0
C75 C 0.66069 0.2881 0.43557 0.0
O76 O 0.74824 0.2803 0.54898 0.0
O77 O 0.69959 0.33456 0.57395 0.0
O78 O 0.71565 0.31274 0.42081 0.0
O79 O 0.68405 0.2762 0.60988 0.0
O80 O 0.70851 0.24712 0.47195 0.0
O81 O 0.6589 0.30273 0.4678 0.0
O82 O 0.71115 0.24575 0.55196 0.0
O83 O 0.6618 0.30053 0.57506 0.0
O84 O 0.6787 0.27881 0.42593 0.0
O85 O 0.72159 0.31 0.60842 0.0
O86 O 0.74602 0.28126 0.46869 0.0
O87 O 0.69731 0.33642 0.4667 0.0
C88 C 0.22287 0.57277 0.1304 0.0
C89 C 0.22777 0.56174 0.17343 0.0
C90 C 0.22444 0.53907 0.1761 0.0
C91 C 0.21747 0.52747 0.13546 0.0
H92 H 0.21023 0.46547 0.08193 0.0
H93 H 0.20969 0.42567 0.08158 0.0
H94 H 0.19187 0.42614 0.9311 0.0
H95 H 0.19236 0.466 0.93108 0.0
H96 H 0.21455 0.50808 0.87153 0.0
H97 H 0.2271 0.52732 0.79928 0.0
H98 H 0.22469 0.58847 0.87612 0.0
H99 H 0.21225 0.5696 0.94785 0.0
H100 H 0.21281 0.57034 0.05714 0.0
H101 H 0.22481 0.59033 0.12771 0.0
H102 H 0.22807 0.5302 0.20897 0.0
H103 H 0.21587 0.50989 0.13801 0.0
N104 N 0.20591 0.50429 0.04738 0.0
N105 N 0.20518 0.50376 0.9628 0.0
N106 N 0.21054 0.53668 0.00377 0.0
C107 C 0.20365 0.49299 0.00555 0.0
C108 C 0.20857 0.52567 0.9617 0.0
C109 C 0.2092 0.52622 0.04671 0.0
C110 C 0.20148 0.46894 0.00642 0.0
C111 C 0.20596 0.45716 0.04883 0.0
C112 C 0.20579 0.43437 0.04865 0.0
C113 C 0.20089 0.42292 0.00626 0.0
C114 C 0.19562 0.43463 0.9643 0.0
C115 C 0.19601 0.45743 0.9643 0.0
C116 C 0.21274 0.53724 0.91578 0.0
C117 C 0.21635 0.52567 0.87277 0.0
C118 C 0.22354 0.53663 0.83143 0.0
C119 C 0.22728 0.55925 0.83263 0.0
C120 C 0.22241 0.57092 0.87466 0.0
C121 C 0.21519 0.56007 0.9157 0.0
C122 C 0.21367 0.53843 0.09161 0.0
C123 C 0.21589 0.56128 0.09001 0.0
C124 C 0.91796 0.71233 0.5867 0.0
C125 C 0.92691 0.71511 0.6329 0.0
C126 C 0.94928 0.71104 0.64008 0.0
C127 C 0.96261 0.70522 0.60139 0.0
H128 H 0.02699 0.70497 0.56193 0.0
H129 H 0.06664 0.70625 0.57114 0.0
H130 H 0.07431 0.68647 0.42308 0.0
H131 H 0.03469 0.68515 0.41354 0.0
H132 H 0.994 0.7132 0.34779 0.0
H133 H 0.97729 0.72325 0.27076 0.0
H134 H 0.91476 0.70038 0.32186 0.0
H135 H 0.93127 0.69059 0.39901 0.0
H136 H 0.92382 0.70498 0.51277 0.0
H137 H 0.90068 0.71498 0.58027 0.0
H138 H 0.95665 0.71315 0.67527 0.0
H139 H 0.97991 0.70285 0.60795 0.0
N140 N 0.9902 0.69761 0.51875 0.0
N141 N 0.99501 0.69653 0.43504 0.0
N142 N 0.95985 0.69994 0.46741 0.0
C143 C 0.00367 0.69591 0.48012 0.0
C144 C 0.9731 0.69843 0.42844 0.0
C145 C 0.96825 0.69954 0.51272 0.0
C146 C 0.02765 0.69507 0.48689 0.0
C147 C 0.03708 0.70068 0.53142 0.0
C148 C 0.05977 0.70154 0.53669 0.0
C149 C 0.07346 0.69655 0.49777 0.0
C150 C 0.06409 0.69026 0.45374 0.0
C151 C 0.04141 0.68963 0.44826 0.0
C152 C 0.96388 0.70128 0.3796 0.0
C153 C 0.97678 0.7099 0.34225 0.0
C154 C 0.96725 0.71572 0.29826 0.0
C155 C 0.94478 0.7126 0.29055 0.0
C156 C 0.93217 0.70277 0.32679 0.0
C157 C 0.94159 0.69732 0.37103 0.0
C158 C 0.95382 0.70331 0.5547 0.0
C159 C 0.93124 0.70648 0.54806 0.0
C160 C 0.77916 0.41993 0.89991 0.0
C161 C 0.77462 0.4304 0.85596 0.0
C162 C 0.77779 0.45307 0.85227 0.0
C163 C 0.78423 0.46518 0.89254 0.0
H164 H 0.80266 0.52762 0.94075 0.0
H165 H 0.80163 0.56748 0.93605 0.0
H166 H 0.78768 0.57074 0.0881 0.0
H167 H 0.78865 0.53108 0.09318 0.0
H168 H 0.77552 0.4886 0.14855 0.0
H169 H 0.7647 0.47 0.2227 0.0
H170 H 0.78745 0.40875 0.16488 0.0
H171 H 0.79799 0.42715 0.0903 0.0
H172 H 0.78832 0.42338 0.97367 0.0
H173 H 0.77733 0.40239 0.90352 0.0
H174 H 0.77439 0.46158 0.81884 0.0
H175 H 0.7857 0.48274 0.88895 0.0
N176 N 0.79358 0.48986 0.9791 0.0
N177 N 0.79322 0.49191 0.06338 0.0
N178 N 0.79017 0.45796 0.02533 0.0
C179 C 0.79469 0.502 0.01993 0.0
C180 C 0.79114 0.4699 0.06638 0.0
C181 C 0.79135 0.46779 0.98151 0.0
C182 C 0.79562 0.52612 0.01728 0.0
C183 C 0.7995 0.53682 0.97326 0.0
C184 C 0.79901 0.55962 0.97054 0.0
C185 C 0.79441 0.57208 0.01165 0.0
C186 C 0.791 0.56145 0.05578 0.0
C187 C 0.79169 0.53872 0.05864 0.0
C188 C 0.78746 0.45928 0.11345 0.0
C189 C 0.77859 0.47124 0.15193 0.0
C190 C 0.77233 0.46064 0.19428 0.0
C191 C 0.77526 0.43802 0.19924 0.0
C192 C 0.7852 0.42626 0.16192 0.0
C193 C 0.79109 0.43676 0.11922 0.0
C194 C 0.78763 0.45482 0.93725 0.0
C195 C 0.78558 0.43198 0.94007 0.0
C196 C 0.06726 0.2828 0.35449 0.0
C197 C 0.05512 0.27626 0.31409 0.0
C198 C 0.03229 0.27858 0.31448 0.0
C199 C 0.02168 0.2859 0.35603 0.0
H200 H 0.96209 0.30981 0.41866 0.0
H201 H 0.9222 0.30846 0.42118 0.0
H202 H 0.92492 0.28769 0.56967 0.0
H203 H 0.96472 0.28907 0.56759 0.0
H204 H 0.01014 0.28824 0.62195 0.0
H205 H 0.03164 0.27633 0.69158 0.0
H206 H 0.09032 0.27864 0.6058 0.0
H207 H 0.06914 0.2904 0.53644 0.0
H208 H 0.06664 0.29428 0.42682 0.0
H209 H 0.08493 0.28163 0.35465 0.0
H210 H 0.0226 0.27371 0.28361 0.0
H211 H 0.00399 0.28648 0.35621 0.0
N212 N 0.00084 0.29735 0.4469 0.0
N213 N 0.00277 0.29657 0.53138 0.0
N214 N 0.03462 0.29332 0.48562 0.0
C215 C 0.99071 0.2984 0.49035 0.0
C216 C 0.0248 0.29418 0.52925 0.0
C217 C 0.02286 0.2949 0.44432 0.0
C218 C 0.9666 0.29943 0.49284 0.0
C219 C 0.9542 0.30513 0.45198 0.0
C220 C 0.93139 0.30446 0.45341 0.0
C221 C 0.9206 0.29782 0.4955 0.0
C222 C 0.93292 0.29264 0.53665 0.0
C223 C 0.95569 0.29357 0.53546 0.0
C224 C 0.03784 0.28998 0.57332 0.0
C225 C 0.02767 0.28652 0.61809 0.0
C226 C 0.03994 0.27972 0.658 0.0
C227 C 0.06254 0.27622 0.65372 0.0
C228 C 0.07283 0.28078 0.60976 0.0
C229 C 0.06066 0.28762 0.57006 0.0
C230 C 0.0338 0.29102 0.39767 0.0
C231 C 0.05674 0.29013 0.39577 0.0
C232 C 0.76921 0.93963 0.34382 0.0
C233 C 0.76426 0.94915 0.29908 0.0
C234 C 0.75159 0.9683 0.29769 0.0
C235 C 0.74398 0.97768 0.34044 0.0
H236 H 0.72165 0.03519 0.40058 0.0
H237 H 0.71328 0.07394 0.40591 0.0
H238 H 0.69883 0.06662 0.55707 0.0
H239 H 0.70716 0.0277 0.55217 0.0
H240 H 0.71402 0.97603 0.60076 0.0
H241 H 0.72013 0.95323 0.67223 0.0
H242 H 0.77459 0.92213 0.60104 0.0
H243 H 0.76798 0.94401 0.52985 0.0
H244 H 0.76565 0.94087 0.41992 0.0
H245 H 0.77854 0.92462 0.34606 0.0
H246 H 0.74752 0.97595 0.26363 0.0
H247 H 0.73416 0.99237 0.33834 0.0
N248 N 0.73085 0.99713 0.43208 0.0
N249 N 0.72648 0.99399 0.5159 0.0
N250 N 0.74313 0.96587 0.47235 0.0
C251 C 0.72381 0.00566 0.4745 0.0
C252 C 0.73618 0.97405 0.5149 0.0
C253 C 0.74046 0.97717 0.43078 0.0
C254 C 0.71545 0.02834 0.47616 0.0
C255 C 0.71637 0.04166 0.43488 0.0
C256 C 0.71164 0.06389 0.43786 0.0
C257 C 0.7057 0.07323 0.48199 0.0
C258 C 0.70335 0.05976 0.52259 0.0
C259 C 0.70824 0.0375 0.51976 0.0
C260 C 0.74029 0.96155 0.5595 0.0
C261 C 0.72728 0.96431 0.60065 0.0
C262 C 0.73084 0.95133 0.64155 0.0
C263 C 0.74762 0.93559 0.64203 0.0
C264 C 0.7611 0.93358 0.60143 0.0
C265 C 0.75736 0.94623 0.5606 0.0
C266 C 0.74875 0.96791 0.38517 0.0
C267 C 0.76157 0.94887 0.38625 0.0
C268 C 0.56882 0.23255 0.89808 0.0
C269 C 0.5582 0.235 0.85355 0.0
C270 C 0.53596 0.22955 0.84972 0.0
C271 C 0.52431 0.22276 0.89042 0.0
H272 H 0.46242 0.211 0.94036 0.0
H273 H 0.42281 0.2071 0.93793 0.0
H274 H 0.42232 0.19205 0.0898 0.0
H275 H 0.46203 0.19597 0.09267 0.0
H276 H 0.50127 0.22265 0.15384 0.0
H277 H 0.51861 0.23678 0.22713 0.0
H278 H 0.58053 0.23982 0.15331 0.0
H279 H 0.56357 0.22588 0.08073 0.0
H280 H 0.56598 0.22453 0.97243 0.0
H281 H 0.58608 0.23614 0.90178 0.0
H282 H 0.52742 0.23126 0.8157 0.0
H283 H 0.50701 0.21939 0.88678 0.0
N284 N 0.50081 0.21117 0.97809 0.0
N285 N 0.49898 0.21198 0.06259 0.0
N286 N 0.53185 0.21987 0.0234 0.0
C287 C 0.4891 0.20858 0.01929 0.0
C288 C 0.52043 0.21758 0.06484 0.0
C289 C 0.52227 0.21668 0.97995 0.0
C290 C 0.4654 0.204 0.01685 0.0
C291 C 0.45397 0.2066 0.9732 0.0
C292 C 0.43129 0.20446 0.97175 0.0
C293 C 0.4196 0.19944 0.01373 0.0
C294 C 0.43102 0.19585 0.05692 0.0
C295 C 0.45372 0.19823 0.05854 0.0
C296 C 0.53095 0.22341 0.11113 0.0
C297 C 0.51863 0.2261 0.15346 0.0
C298 C 0.5285 0.2342 0.19536 0.0
C299 C 0.55075 0.23983 0.19538 0.0
C300 C 0.5632 0.23615 0.15385 0.0
C301 C 0.55345 0.22802 0.1123 0.0
C302 C 0.53477 0.22128 0.93551 0.0
C303 C 0.55727 0.22577 0.93853 0.0
C304 C 0.24425 0.06112 0.61991 0.0
C305 C 0.2567 0.05898 0.6622 0.0
C306 C 0.27411 0.04394 0.66317 0.0
C307 C 0.27936 0.03188 0.62194 0.0
H308 H 0.29967 0.96821 0.57008 0.0
H309 H 0.30496 0.92867 0.5727 0.0
H310 H 0.29328 0.9251 0.41966 0.0
H311 H 0.28804 0.96446 0.41651 0.0
H312 H 0.27549 0.00696 0.35681 0.0
H313 H 0.26128 0.02379 0.28285 0.0
H314 H 0.23691 0.07813 0.3657 0.0
H315 H 0.25079 0.06167 0.4388 0.0
H316 H 0.23984 0.05177 0.54674 0.0
H317 H 0.23029 0.07199 0.61833 0.0
H318 H 0.28404 0.04196 0.69522 0.0
H319 H 0.2931 0.02072 0.62309 0.0
N320 N 0.28233 0.00339 0.53471 0.0
N321 N 0.28046 0.00233 0.45014 0.0
N322 N 0.268 0.03303 0.4916 0.0
C323 C 0.28595 0.99261 0.49262 0.0
C324 C 0.2716 0.02264 0.44941 0.0
C325 C 0.27332 0.02364 0.53422 0.0
C326 C 0.29303 0.9695 0.49324 0.0
C327 C 0.29862 0.95909 0.5368 0.0
C328 C 0.30176 0.93648 0.53835 0.0
C329 C 0.2992 0.92395 0.49649 0.0
C330 C 0.29504 0.93447 0.4525 0.0
C331 C 0.2921 0.95703 0.45081 0.0
C332 C 0.2642 0.03288 0.40387 0.0
C333 C 0.26712 0.02251 0.35915 0.0
C334 C 0.25901 0.03209 0.31686 0.0
C335 C 0.24767 0.05202 0.31881 0.0
C336 C 0.24512 0.06248 0.36331 0.0
C337 C 0.25329 0.05308 0.40523 0.0
C338 C 0.26744 0.03494 0.57916 0.0
C339 C 0.24967 0.04943 0.57885 0.0
C340 C 0.42681 0.77415 0.1357 0.0
C341 C 0.43792 0.76874 0.17834 0.0
C342 C 0.46071 0.77141 0.18054 0.0
C343 C 0.47231 0.77802 0.1396 0.0
H344 H 0.53243 0.80368 0.08272 0.0
H345 H 0.57232 0.80584 0.0841 0.0
H346 H 0.57436 0.78561 0.93544 0.0
H347 H 0.53463 0.78343 0.93366 0.0
H348 H 0.49072 0.77728 0.87477 0.0
H349 H 0.4714 0.76409 0.80312 0.0
H350 H 0.41104 0.76269 0.88315 0.0
H351 H 0.42997 0.7757 0.95424 0.0
H352 H 0.42919 0.78408 0.06236 0.0
H353 H 0.40918 0.77273 0.13343 0.0
H354 H 0.46963 0.76741 0.21312 0.0
H355 H 0.48997 0.77894 0.14158 0.0
N356 N 0.49515 0.7893 0.05033 0.0
N357 N 0.49549 0.78681 0.96588 0.0
N358 N 0.4628 0.78221 0.00804 0.0
C359 C 0.50632 0.79024 0.00807 0.0
C360 C 0.47366 0.7829 0.96564 0.0
C361 C 0.47331 0.78538 0.05047 0.0
C362 C 0.53032 0.79323 0.00818 0.0
C363 C 0.54136 0.79983 0.05021 0.0
C364 C 0.56416 0.80119 0.051 0.0
C365 C 0.57632 0.79573 0.00999 0.0
C366 C 0.56531 0.78967 0.96769 0.0
C367 C 0.54255 0.78854 0.96668 0.0
C368 C 0.46198 0.7773 0.92053 0.0
C369 C 0.47329 0.77437 0.87693 0.0
C370 C 0.46227 0.76683 0.83592 0.0
C371 C 0.43985 0.762 0.838 0.0
C372 C 0.42844 0.76581 0.8809 0.0
C373 C 0.43934 0.77339 0.92161 0.0
C374 C 0.46124 0.78206 0.09599 0.0
C375 C 0.43831 0.78074 0.09504 0.0
C376 C 0.12014 0.21344 0.10414 0.0
C377 C 0.14051 0.22392 0.102 0.0
C378 C 0.10335 0.22165 0.13339 0.0
C379 C 0.10708 0.24081 0.16069 0.0
C380 C 0.12715 0.2521 0.15644 0.0
C381 C 0.14362 0.24349 0.12729 0.0
C382 C 0.0821 0.20924 0.13698 0.0
C383 C 0.13172 0.2727 0.18464 0.0
C384 C 0.06286 0.27255 0.22582 0.0
C385 C 0.06643 0.2657 0.27335 0.0
C386 C 0.07522 0.26377 0.18792 0.0
C387 C 0.09131 0.24775 0.19812 0.0
C388 C 0.09404 0.23996 0.24575 0.0
C389 C 0.08158 0.24905 0.28275 0.0
C390 C 0.07185 0.27241 0.13752 0.0
C391 C 0.11091 0.2228 0.25813 0.0
H392 H 0.11759 0.19839 0.08441 0.0
H393 H 0.15916 0.25196 0.12506 0.0
H394 H 0.08108 0.20118 0.17273 0.0
H395 H 0.06799 0.22055 0.13395 0.0
H396 H 0.08062 0.19651 0.10872 0.0
H397 H 0.14727 0.28063 0.17366 0.0
H398 H 0.11821 0.2846 0.17982 0.0
H399 H 0.13275 0.26874 0.22358 0.0
H400 H 0.05108 0.28538 0.21858 0.0
H401 H 0.08398 0.24341 0.31943 0.0
H402 H 0.07079 0.25876 0.1114 0.0
H403 H 0.08607 0.28261 0.12711 0.0
H404 H 0.05682 0.28251 0.13448 0.0
H405 H 0.10911 0.20844 0.23416 0.0
H406 H 0.10963 0.21719 0.29609 0.0
H407 H 0.12754 0.22955 0.25246 0.0
C408 C 0.2855 0.62649 0.61867 0.0
C409 C 0.27551 0.64713 0.61964 0.0
C410 C 0.27802 0.60947 0.64837 0.0
C411 C 0.26014 0.61322 0.6795 0.0
C412 C 0.24943 0.63369 0.67906 0.0
C413 C 0.25725 0.65037 0.64923 0.0
C414 C 0.28977 0.58779 0.64785 0.0
C415 C 0.23021 0.63832 0.71158 0.0
C416 C 0.22877 0.56872 0.74483 0.0
C417 C 0.23729 0.57082 0.79145 0.0
C418 C 0.23687 0.58161 0.70694 0.0
C419 C 0.25387 0.59676 0.71621 0.0
C420 C 0.26336 0.59792 0.76265 0.0
C421 C 0.25493 0.58494 0.79968 0.0
C422 C 0.22643 0.5799 0.6578 0.0
C423 C 0.28161 0.61374 0.77395 0.0
H424 H 0.29952 0.62378 0.59568 0.0
H425 H 0.24916 0.66613 0.64969 0.0
H426 H 0.29878 0.58555 0.68224 0.0
H427 H 0.27789 0.57416 0.64483 0.0
H428 H 0.30163 0.58663 0.61773 0.0
H429 H 0.22266 0.65448 0.7041 0.0
H430 H 0.21753 0.62551 0.70731 0.0
H431 H 0.23567 0.63799 0.74971 0.0
H432 H 0.21516 0.55773 0.73849 0.0
H433 H 0.26182 0.58621 0.83559 0.0
H434 H 0.23912 0.57901 0.62941 0.0
H435 H 0.21651 0.59474 0.65068 0.0
H436 H 0.21563 0.56538 0.6548 0.0
H437 H 0.29499 0.61211 0.74732 0.0
H438 H 0.2885 0.61117 0.81058 0.0
H439 H 0.27538 0.63073 0.77152 0.0
C440 C 0.8539 0.76818 0.1419 0.0
C441 C 0.85659 0.77174 0.09243 0.0
C442 C 0.87054 0.75876 0.16964 0.0
C443 C 0.89024 0.7523 0.14718 0.0
C444 C 0.89321 0.75604 0.09729 0.0
C445 C 0.87638 0.76598 0.07049 0.0
C446 C 0.8669 0.75549 0.22297 0.0
C447 C 0.91385 0.749 0.07207 0.0
C448 C 0.93648 0.74383 0.23593 0.0
C449 C 0.93388 0.72168 0.24735 0.0
C450 C 0.92328 0.75384 0.20091 0.0
C451 C 0.90735 0.74125 0.17642 0.0
C452 C 0.90586 0.7185 0.18525 0.0
C453 C 0.919 0.70901 0.22107 0.0
C454 C 0.92517 0.77818 0.19308 0.0
C455 C 0.88937 0.70445 0.15917 0.0
H456 H 0.83869 0.77282 0.15903 0.0
H457 H 0.87841 0.76856 0.03214 0.0
H458 H 0.86708 0.73779 0.23167 0.0
H459 H 0.8803 0.76325 0.24379 0.0
H460 H 0.85109 0.76244 0.2352 0.0
H461 H 0.91397 0.75388 0.03352 0.0
H462 H 0.92836 0.75618 0.09009 0.0
H463 H 0.91552 0.73098 0.07438 0.0
H464 H 0.94786 0.75367 0.25659 0.0
H465 H 0.91714 0.69183 0.22973 0.0
H466 H 0.91074 0.78642 0.20899 0.0
H467 H 0.92531 0.78213 0.1541 0.0
H468 H 0.94015 0.78503 0.20996 0.0
H469 H 0.87272 0.70821 0.17251 0.0
H470 H 0.89251 0.68675 0.16475 0.0
H471 H 0.88958 0.70799 0.11998 0.0
C472 C 0.71434 0.36704 0.63965 0.0
C473 C 0.72421 0.34646 0.63505 0.0
C474 C 0.72269 0.38261 0.67193 0.0
C475 C 0.74135 0.37746 0.70001 0.0
C476 C 0.75192 0.35711 0.69398 0.0
C477 C 0.74321 0.34187 0.66168 0.0
C478 C 0.71104 0.4042 0.67737 0.0
C479 C 0.77195 0.35105 0.72304 0.0
C480 C 0.77335 0.42077 0.76813 0.0
C481 C 0.76553 0.41774 0.81508 0.0
C482 C 0.76518 0.40823 0.72978 0.0
C483 C 0.7488 0.3924 0.73878 0.0
C484 C 0.74043 0.38975 0.78586 0.0
C485 C 0.74888 0.40246 0.82338 0.0
C486 C 0.77449 0.41146 0.68001 0.0
C487 C 0.72289 0.3731 0.7969 0.0
H488 H 0.69973 0.37078 0.61906 0.0
H489 H 0.75119 0.32615 0.6579 0.0
H490 H 0.7034 0.40506 0.71349 0.0
H491 H 0.72285 0.41791 0.67478 0.0
H492 H 0.6981 0.40654 0.64971 0.0
H493 H 0.77922 0.33532 0.71128 0.0
H494 H 0.78454 0.36401 0.72004 0.0
H495 H 0.76753 0.34962 0.76163 0.0
H496 H 0.78625 0.43255 0.76161 0.0
H497 H 0.74245 0.40041 0.85944 0.0
H498 H 0.76113 0.41406 0.65351 0.0
H499 H 0.78345 0.39655 0.66893 0.0
H500 H 0.78588 0.42558 0.67828 0.0
H501 H 0.70854 0.37569 0.77307 0.0
H502 H 0.71739 0.37387 0.83493 0.0
H503 H 0.72919 0.35642 0.78977 0.0
C504 C 0.62106 0.29223 0.41258 0.0
C505 C 0.64117 0.28142 0.4075 0.0
C506 C 0.60296 0.28646 0.38398 0.0
C507 C 0.60514 0.2696 0.34952 0.0
C508 C 0.62512 0.25812 0.34559 0.0
C509 C 0.64282 0.26413 0.37459 0.0
C510 C 0.58181 0.29887 0.38942 0.0
C511 C 0.62814 0.24 0.30929 0.0
C512 C 0.55954 0.24037 0.28356 0.0
C513 C 0.56132 0.2499 0.23783 0.0
C514 C 0.57252 0.24782 0.32198 0.0
C515 C 0.58752 0.26509 0.31409 0.0
C516 C 0.588 0.27586 0.26899 0.0
C517 C 0.57485 0.26814 0.23144 0.0
C518 C 0.57138 0.23613 0.36979 0.0
C519 C 0.60368 0.29439 0.25908 0.0
H520 H 0.61955 0.30547 0.43818 0.0
H521 H 0.65814 0.25544 0.37072 0.0
H522 H 0.57915 0.30936 0.35732 0.0
H523 H 0.56779 0.28741 0.39163 0.0
H524 H 0.58184 0.30942 0.42192 0.0
H525 H 0.6443 0.23188 0.31278 0.0
H526 H 0.61519 0.22748 0.31364 0.0
H527 H 0.62666 0.24673 0.27229 0.0
H528 H 0.549 0.22632 0.28857 0.0
H529 H 0.57585 0.27582 0.19628 0.0
H530 H 0.57183 0.24796 0.39997 0.0
H531 H 0.58577 0.22524 0.37371 0.0
H532 H 0.55636 0.22603 0.3729 0.0
H533 H 0.60303 0.30668 0.28831 0.0
H534 H 0.60014 0.30268 0.22429 0.0
H535 H 0.62063 0.28794 0.25785 0.0
C536 C 0.23873 0.14519 0.87337 0.0
C537 C 0.21637 0.14676 0.88364 0.0
C538 C 0.2467 0.12872 0.84326 0.0
C539 C 0.23183 0.11389 0.82196 0.0
C540 C 0.20936 0.11475 0.8341 0.0
C541 C 0.20192 0.13108 0.86538 0.0
C542 C 0.27084 0.12799 0.83217 0.0
C543 C 0.19297 0.09943 0.81146 0.0
C544 C 0.24568 0.09493 0.69644 0.0
C545 C 0.25166 0.07307 0.70414 0.0
C546 C 0.23918 0.10826 0.73455 0.0
C547 C 0.2392 0.09975 0.78192 0.0
C548 C 0.24606 0.07798 0.79044 0.0
C549 C 0.25208 0.0648 0.75129 0.0
C550 C 0.23195 0.1314 0.7239 0.0
C551 C 0.24673 0.06859 0.8407 0.0
H552 H 0.24999 0.15709 0.88831 0.0
H553 H 0.18463 0.13229 0.87347 0.0
H554 H 0.27703 0.11098 0.83425 0.0
H555 H 0.27364 0.13392 0.79492 0.0
H556 H 0.28053 0.13834 0.8572 0.0
H557 H 0.17661 0.10068 0.82849 0.0
H558 H 0.19127 0.10338 0.77261 0.0
H559 H 0.19869 0.08228 0.81417 0.0
H560 H 0.24593 0.10165 0.6603 0.0
H561 H 0.25663 0.04791 0.75748 0.0
H562 H 0.24264 0.14315 0.74315 0.0
H563 H 0.21503 0.13395 0.73701 0.0
H564 H 0.23242 0.1353 0.68483 0.0
H565 H 0.2565 0.0793 0.86469 0.0
H566 H 0.25384 0.05189 0.84156 0.0
H567 H 0.22995 0.06786 0.85565 0.0
C568 C 0.36961 0.71061 0.39058 0.0
C569 C 0.34929 0.72125 0.39143 0.0
C570 C 0.38646 0.71801 0.36039 0.0
C571 C 0.38288 0.73648 0.33065 0.0
C572 C 0.36274 0.74779 0.33286 0.0
C573 C 0.34621 0.74002 0.3631 0.0
C574 C 0.40776 0.70559 0.35896 0.0
C575 C 0.35831 0.76764 0.30187 0.0
C576 C 0.42821 0.76702 0.26599 0.0
C577 C 0.42562 0.75913 0.21901 0.0
C578 C 0.41506 0.75908 0.30358 0.0
C579 C 0.39914 0.74287 0.29367 0.0
C580 C 0.39729 0.73413 0.24674 0.0
C581 C 0.41055 0.74237 0.21002 0.0
C582 C 0.41748 0.76874 0.35324 0.0
C583 C 0.38061 0.71675 0.23472 0.0
H584 H 0.37218 0.69618 0.41257 0.0
H585 H 0.33072 0.7486 0.36405 0.0
H586 H 0.4094 0.69732 0.32366 0.0
H587 H 0.42178 0.71697 0.36263 0.0
H588 H 0.40883 0.69305 0.38786 0.0
H589 H 0.3425 0.77557 0.31073 0.0
H590 H 0.37158 0.77983 0.30626 0.0
H591 H 0.35796 0.7628 0.2634 0.0
H592 H 0.4399 0.77995 0.27294 0.0
H593 H 0.40889 0.73593 0.17386 0.0
H594 H 0.41846 0.7556 0.38076 0.0
H595 H 0.40288 0.77877 0.36164 0.0
H596 H 0.43222 0.77924 0.35634 0.0
H597 H 0.38204 0.70283 0.26016 0.0
H598 H 0.38246 0.7105 0.19744 0.0
H599 H 0.3639 0.72357 0.23853 0.0
C600 C 0.79574 0.86118 0.85023 0.0
C601 C 0.78069 0.84582 0.8675 0.0
C602 C 0.78923 0.87742 0.8175 0.0
C603 C 0.76708 0.87853 0.80269 0.0
C604 C 0.75157 0.86393 0.82249 0.0
C605 C 0.75862 0.84756 0.85424 0.0
C606 C 0.80629 0.89249 0.79656 0.0
C607 C 0.72772 0.86496 0.80847 0.0
C608 C 0.74963 0.92867 0.73129 0.0
C609 C 0.75107 0.92087 0.68394 0.0
C610 C 0.75424 0.91494 0.77065 0.0
C611 C 0.76072 0.89308 0.76224 0.0
C612 C 0.7617 0.88502 0.71462 0.0
C613 C 0.7566 0.89891 0.6762 0.0
C614 C 0.75258 0.9239 0.82109 0.0
C615 C 0.7686 0.8618 0.7041 0.0
H616 H 0.8128 0.85986 0.86049 0.0
H617 H 0.74688 0.83591 0.86826 0.0
H618 H 0.80845 0.8888 0.75776 0.0
H619 H 0.80092 0.90974 0.79926 0.0
H620 H 0.82237 0.89076 0.81487 0.0
H621 H 0.71738 0.85456 0.83205 0.0
H622 H 0.72167 0.88202 0.81017 0.0
H623 H 0.72571 0.85932 0.77079 0.0
H624 H 0.74544 0.94562 0.73757 0.0
H625 H 0.75714 0.89258 0.63982 0.0
H626 H 0.76904 0.92433 0.83795 0.0
H627 H 0.74221 0.91309 0.84359 0.0
H628 H 0.74563 0.94067 0.82167 0.0
H629 H 0.78524 0.85883 0.71868 0.0
H630 H 0.76868 0.85818 0.66493 0.0
H631 H 0.75739 0.85015 0.72212 0.0
C632 C 0.86563 0.77376 0.85154 0.0
C633 C 0.84429 0.76567 0.85663 0.0
C634 C 0.87994 0.76496 0.81726 0.0
C635 C 0.87276 0.74761 0.78754 0.0
C636 C 0.8515 0.73895 0.79342 0.0
C637 C 0.83751 0.7481 0.82779 0.0
C638 C 0.90252 0.77462 0.81192 0.0
C639 C 0.8433 0.72037 0.76255 0.0
C640 C 0.89873 0.74075 0.66482 0.0
C641 C 0.91311 0.72327 0.67284 0.0
C642 C 0.88566 0.74891 0.70199 0.0
C643 C 0.88698 0.73935 0.74834 0.0
C644 C 0.90153 0.72176 0.75681 0.0
C645 C 0.91449 0.71395 0.71892 0.0
C646 C 0.87042 0.76778 0.69162 0.0
C647 C 0.90326 0.71111 0.80575 0.0
H648 H 0.87107 0.78728 0.87368 0.0
H649 H 0.82114 0.74158 0.83167 0.0
H650 H 0.91508 0.7616 0.81463 0.0
H651 H 0.90415 0.78221 0.77579 0.0
H652 H 0.90603 0.78722 0.8396 0.0
H653 H 0.82683 0.71464 0.77362 0.0
H654 H 0.84248 0.72569 0.72437 0.0
H655 H 0.85481 0.70639 0.76446 0.0
H656 H 0.8979 0.74826 0.62948 0.0
H657 H 0.92549 0.70035 0.72516 0.0
H658 H 0.87423 0.78165 0.71589 0.0
H659 H 0.85329 0.76282 0.69876 0.0
H660 H 0.87158 0.77355 0.65377 0.0
H661 H 0.90767 0.72347 0.83326 0.0
H662 H 0.91565 0.69784 0.80661 0.0
H663 H 0.8872 0.70416 0.81617 0.0
C664 C 0.72119 0.34622 0.3515 0.0
C665 C 0.71773 0.34993 0.40061 0.0
C666 C 0.73014 0.36246 0.322 0.0
C667 C 0.73629 0.38273 0.34243 0.0
C668 C 0.73265 0.38668 0.39197 0.0
C669 C 0.72312 0.37027 0.42047 0.0
C670 C 0.73327 0.3578 0.26907 0.0
C671 C 0.73943 0.40793 0.41508 0.0
C672 C 0.77901 0.41161 0.26737 0.0
C673 C 0.76609 0.42626 0.24102 0.0
C674 C 0.76972 0.39834 0.30311 0.0
C675 C 0.74692 0.39943 0.31159 0.0
C676 C 0.734 0.41488 0.28637 0.0
C677 C 0.74381 0.42827 0.25161 0.0
C678 C 0.78411 0.38239 0.33002 0.0
C679 C 0.70959 0.41623 0.2937 0.0
H680 H 0.71686 0.33054 0.33607 0.0
H681 H 0.72062 0.37304 0.4586 0.0
H682 H 0.72526 0.37067 0.24704 0.0
H683 H 0.75094 0.35803 0.26023 0.0
H684 H 0.72646 0.34168 0.25843 0.0
H685 H 0.73481 0.4087 0.45369 0.0
H686 H 0.7574 0.40993 0.41218 0.0
H687 H 0.73181 0.42191 0.39591 0.0
H688 H 0.79627 0.4102 0.25923 0.0
H689 H 0.73381 0.43948 0.23078 0.0
H690 H 0.78038 0.3655 0.31808 0.0
H691 H 0.78083 0.38319 0.36924 0.0
H692 H 0.80176 0.38557 0.32384 0.0
H693 H 0.70176 0.40119 0.27958 0.0
H694 H 0.70228 0.43055 0.275 0.0
H695 H 0.70565 0.41725 0.33257 0.0
C696 C 0.15329 0.24268 0.84218 0.0
C697 C 0.14806 0.22461 0.87113 0.0
C698 C 0.13803 0.25148 0.80986 0.0
C699 C 0.11705 0.24192 0.80611 0.0
C700 C 0.11142 0.22403 0.83597 0.0
C701 C 0.12699 0.21561 0.86826 0.0
C702 C 0.14459 0.27067 0.77877 0.0
C703 C 0.0892 0.21338 0.83276 0.0
C704 C 0.07371 0.27515 0.74063 0.0
C705 C 0.07537 0.26675 0.69391 0.0
C706 C 0.0868 0.26686 0.77808 0.0
C707 C 0.10168 0.24971 0.76838 0.0
C708 C 0.10284 0.24071 0.7216 0.0
C709 C 0.0897 0.24937 0.68494 0.0
C710 C 0.08521 0.27688 0.82755 0.0
C711 C 0.11836 0.22228 0.70993 0.0
H712 H 0.16942 0.24994 0.84448 0.0
H713 H 0.12276 0.20169 0.89056 0.0
H714 H 0.14477 0.26568 0.74039 0.0
H715 H 0.13249 0.28407 0.78226 0.0
H716 H 0.16101 0.27711 0.78833 0.0
H717 H 0.08686 0.20063 0.86081 0.0
H718 H 0.07614 0.22582 0.83652 0.0
H719 H 0.08715 0.20572 0.79687 0.0
H720 H 0.06265 0.28861 0.74754 0.0
H721 H 0.09068 0.24258 0.64899 0.0
H722 H 0.10086 0.28508 0.83669 0.0
H723 H 0.08246 0.26399 0.85501 0.0
H724 H 0.07181 0.28906 0.82995 0.0
H725 H 0.13548 0.22785 0.71485 0.0
H726 H 0.11638 0.21635 0.6724 0.0
H727 H 0.11572 0.20837 0.73492 0.0
C728 C 0.25627 0.65292 0.3603 0.0
C729 C 0.27473 0.64939 0.38943 0.0
C730 C 0.24855 0.63669 0.3292 0.0
C731 C 0.25956 0.6164 0.32699 0.0
C732 C 0.27771 0.61237 0.35744 0.0
C733 C 0.28509 0.62893 0.3884 0.0
C734 C 0.22906 0.64158 0.29738 0.0
C735 C 0.2898 0.59089 0.35604 0.0
C736 C 0.22887 0.57158 0.261 0.0
C737 C 0.23721 0.574 0.21436 0.0
C738 C 0.23665 0.58466 0.29887 0.0
C739 C 0.25315 0.60034 0.2896 0.0
C740 C 0.2623 0.60206 0.24304 0.0
C741 C 0.25421 0.58887 0.20601 0.0
C742 C 0.22656 0.58238 0.34814 0.0
C743 C 0.28001 0.61849 0.23176 0.0
H744 H 0.24794 0.66854 0.36121 0.0
H745 H 0.29928 0.62599 0.41095 0.0
H746 H 0.23423 0.64186 0.25913 0.0
H747 H 0.21655 0.62857 0.30115 0.0
H748 H 0.22139 0.65754 0.306 0.0
H749 H 0.30218 0.58954 0.38525 0.0
H750 H 0.27818 0.57705 0.3592 0.0
H751 H 0.29824 0.58921 0.32093 0.0
H752 H 0.21572 0.56008 0.26746 0.0
H753 H 0.26098 0.59042 0.17012 0.0
H754 H 0.21679 0.59718 0.3563 0.0
H755 H 0.23947 0.58107 0.37612 0.0
H756 H 0.21571 0.56787 0.35072 0.0
H757 H 0.27342 0.63529 0.23553 0.0
H758 H 0.28648 0.61661 0.19467 0.0
H759 H 0.29375 0.6168 0.25763 0.0
C760 C 0.37064 0.70858 0.62039 0.0
C761 C 0.35013 0.71881 0.62293 0.0
C762 C 0.38788 0.71502 0.65072 0.0
C763 C 0.38448 0.73205 0.68426 0.0
C764 C 0.36409 0.7429 0.68584 0.0
C765 C 0.3472 0.73616 0.65523 0.0
C766 C 0.40948 0.70317 0.64798 0.0
C767 C 0.35982 0.76118 0.72107 0.0
C768 C 0.41419 0.73465 0.80336 0.0
C769 C 0.42813 0.75253 0.79631 0.0
C770 C 0.40081 0.72698 0.76614 0.0
C771 C 0.4014 0.73746 0.72071 0.0
C772 C 0.41643 0.75468 0.71246 0.0
C773 C 0.42969 0.76202 0.7505 0.0
C774 C 0.38511 0.70849 0.77634 0.0
C775 C 0.41757 0.76617 0.6644 0.0
H776 H 0.37314 0.69526 0.59537 0.0
H777 H 0.33153 0.74438 0.65719 0.0
H778 H 0.42313 0.71503 0.64516 0.0
H779 H 0.41209 0.69359 0.68147 0.0
H780 H 0.41021 0.69184 0.61683 0.0
H781 H 0.34352 0.76881 0.71565 0.0
H782 H 0.36073 0.75478 0.75843 0.0
H783 H 0.37251 0.77403 0.71752 0.0
H784 H 0.41331 0.72702 0.83858 0.0
H785 H 0.4405 0.77584 0.74503 0.0
H786 H 0.38634 0.69578 0.74809 0.0
H787 H 0.3681 0.71478 0.77577 0.0
H788 H 0.38818 0.70076 0.81195 0.0
H789 H 0.41812 0.75413 0.63464 0.0
H790 H 0.43207 0.77702 0.66175 0.0
H791 H 0.40266 0.77622 0.65919 0.0
C792 C 0.78221 0.84982 0.13873 0.0
C793 C 0.79279 0.85138 0.09414 0.0
C794 C 0.7783 0.8684 0.16663 0.0
C795 C 0.78492 0.88914 0.14936 0.0
C796 C 0.79528 0.89095 0.10406 0.0
C797 C 0.79924 0.87199 0.07704 0.0
C798 C 0.76737 0.86574 0.21504 0.0
C799 C 0.80226 0.91287 0.08435 0.0
C800 C 0.75621 0.93408 0.21731 0.0
C801 C 0.77126 0.93797 0.25446 0.0
C802 C 0.76118 0.91953 0.17995 0.0
C803 C 0.78158 0.9086 0.18021 0.0
C804 C 0.79751 0.91398 0.21524 0.0
C805 C 0.79218 0.92871 0.25184 0.0
C806 C 0.74391 0.91447 0.1427 0.0
C807 C 0.81947 0.90272 0.21676 0.0
H808 H 0.77723 0.83397 0.15233 0.0
H809 H 0.80725 0.87335 0.04241 0.0
H810 H 0.77836 0.87177 0.24395 0.0
H811 H 0.75221 0.87566 0.21631 0.0
H812 H 0.76309 0.84847 0.22297 0.0
H813 H 0.8092 0.9116 0.04756 0.0
H814 H 0.7881 0.92419 0.08331 0.0
H815 H 0.81472 0.92026 0.10839 0.0
H816 H 0.74001 0.94121 0.21916 0.0
H817 H 0.80401 0.93208 0.28001 0.0
H818 H 0.73636 0.89842 0.15102 0.0
H819 H 0.75121 0.91334 0.10629 0.0
H820 H 0.73079 0.92702 0.14209 0.0
H821 H 0.81725 0.88556 0.22883 0.0
H822 H 0.83102 0.91088 0.24188 0.0
H823 H 0.82692 0.90227 0.18044 0.0
C824 C 0.65122 0.26097 0.67037 0.0
C825 C 0.6475 0.27781 0.63695 0.0
C826 C 0.63475 0.25405 0.70177 0.0
C827 C 0.61399 0.26417 0.69976 0.0
C828 C 0.60983 0.28071 0.66527 0.0
C829 C 0.62666 0.28737 0.63425 0.0
C830 C 0.63982 0.23634 0.73813 0.0
C831 C 0.58782 0.29178 0.66205 0.0
C832 C 0.56948 0.23365 0.76689 0.0
C833 C 0.57044 0.24385 0.81197 0.0
C834 C 0.58283 0.24078 0.72892 0.0
C835 C 0.59735 0.25848 0.73646 0.0
C836 C 0.5975 0.26951 0.78114 0.0
C837 C 0.58402 0.26207 0.81832 0.0
C838 C 0.5822 0.2287 0.68162 0.0
C839 C 0.61267 0.28852 0.79053 0.0
H840 H 0.66717 0.25331 0.67261 0.0
H841 H 0.62355 0.30028 0.60834 0.0
H842 H 0.63876 0.24311 0.77508 0.0
H843 H 0.62763 0.22298 0.73543 0.0
H844 H 0.65639 0.22929 0.73317 0.0
H845 H 0.58664 0.30296 0.63059 0.0
H846 H 0.57462 0.27941 0.65942 0.0
H847 H 0.58487 0.30135 0.69526 0.0
H848 H 0.55898 0.21957 0.76195 0.0
H849 H 0.58443 0.27026 0.85288 0.0
H850 H 0.5976 0.21937 0.67704 0.0
H851 H 0.581 0.24038 0.65112 0.0
H852 H 0.56825 0.21711 0.67959 0.0
H853 H 0.62987 0.28276 0.7901 0.0
H854 H 0.60949 0.2964 0.82582 0.0
H855 H 0.61095 0.30101 0.76176 0.0
C856 C 0.22056 0.14811 0.1525 0.0
C857 C 0.20808 0.14524 0.11054 0.0
C858 C 0.22646 0.1303 0.18134 0.0
C859 C 0.21984 0.10901 0.16787 0.0
C860 C 0.20754 0.10587 0.12525 0.0
C861 C 0.20171 0.12406 0.09712 0.0
C862 C 0.2395 0.13434 0.22678 0.0
C863 C 0.20039 0.08335 0.1097 0.0
C864 C 0.25223 0.06592 0.23471 0.0
C865 C 0.23888 0.06261 0.27496 0.0
C866 C 0.24547 0.07974 0.19711 0.0
C867 C 0.22498 0.09041 0.20026 0.0
C868 C 0.21074 0.08561 0.23887 0.0
C869 C 0.21786 0.0717 0.27573 0.0
C870 C 0.26098 0.08427 0.15613 0.0
C871 C 0.18873 0.09659 0.24349 0.0
H872 H 0.22558 0.16437 0.16323 0.0
H873 H 0.19223 0.12166 0.06453 0.0
H874 H 0.22999 0.12891 0.2586 0.0
H875 H 0.25484 0.12468 0.22617 0.0
H876 H 0.24378 0.15185 0.23149 0.0
H877 H 0.19194 0.08355 0.07424 0.0
H878 H 0.21474 0.07232 0.10746 0.0
H879 H 0.18914 0.07631 0.13687 0.0
H880 H 0.26848 0.05888 0.23407 0.0
H881 H 0.20737 0.06878 0.30649 0.0
H882 H 0.26841 0.10066 0.16098 0.0
H883 H 0.25214 0.08438 0.1212 0.0
H884 H 0.27435 0.07201 0.15448 0.0
H885 H 0.19114 0.11406 0.25268 0.0
H886 H 0.17854 0.08895 0.27197 0.0
H887 H 0.17967 0.09596 0.2089 0.0
C888 C 0.2177 0.29543 0.96049 0.0
C889 C 0.21068 0.283 -0.0 0.0
C890 C 0.21607 0.31828 0.96079 0.0
C891 C 0.2069 0.32885 0.00125 0.0
C892 C 0.19959 0.31639 0.04102 0.0
C893 C 0.20171 0.29361 0.04006 0.0
C894 C 0.22428 0.33111 0.918 0.0
C895 C 0.18946 0.32711 0.08451 0.0
C896 C 0.22069 0.38825 0.02398 0.0
C897 C 0.20219 0.39883 0.00532 0.0
C898 C 0.2225 0.36546 0.02252 0.0
C899 C 0.20528 0.353 0.00239 0.0
C900 C 0.1865 0.36359 0.98372 0.0
C901 C 0.18524 0.38645 0.98512 0.0
C902 C 0.24289 0.35472 0.04223 0.0
C903 C 0.16771 0.35077 0.96256 0.0
H904 H 0.22469 0.28732 0.92949 0.0
H905 H 0.19601 0.28409 0.07049 0.0
H906 H 0.2108 0.34098 0.90235 0.0
H907 H 0.23722 0.34267 0.92965 0.0
H908 H 0.23102 0.3204 0.88944 0.0
H909 H 0.18399 0.31501 0.11181 0.0
H910 H 0.20144 0.33829 0.10162 0.0
H911 H 0.17519 0.33712 0.07337 0.0
H912 H 0.23392 0.39787 0.03901 0.0
H913 H 0.17089 0.39467 0.97097 0.0
H914 H 0.25081 0.34485 0.01374 0.0
H915 H 0.23855 0.3434 0.07196 0.0
H916 H 0.25491 0.36681 0.056 0.0
H917 H 0.1735 0.34083 0.93179 0.0
H918 H 0.15422 0.3615 0.94988 0.0
H919 H 0.16114 0.33927 0.98987 0.0
C920 C 0.2022 0.70426 0.54888 0.0
C921 C 0.21291 0.71302 0.50859 0.0
C922 C 0.17948 0.7012 0.54882 0.0
C923 C 0.16717 0.70733 0.50776 0.0
C924 C 0.17782 0.71645 0.46725 0.0
C925 C 0.20059 0.71904 0.46801 0.0
C926 C 0.16869 0.69117 0.59243 0.0
C927 C 0.16516 0.72342 0.42305 0.0
C928 C 0.11134 0.68224 0.4859 0.0
C929 C 0.09745 0.6988 0.50235 0.0
C930 C 0.13411 0.68462 0.48831 0.0
C931 C 0.14313 0.70415 0.50703 0.0
C932 C 0.12917 0.72085 0.52405 0.0
C933 C 0.10646 0.71792 0.52174 0.0
C934 C 0.14852 0.66634 0.47044 0.0
C935 C 0.1382 0.742 0.54372 0.0
H936 H 0.21162 0.69938 0.58021 0.0
H937 H 0.20874 0.7259 0.43685 0.0
H938 H 0.15632 0.70255 0.60719 0.0
H939 H 0.15999 0.67599 0.58198 0.0
H940 H 0.18064 0.68715 0.62133 0.0
H941 H 0.17586 0.73069 0.395 0.0
H942 H 0.15654 0.70916 0.40734 0.0
H943 H 0.15253 0.73559 0.43304 0.0
H944 H 0.10434 0.66739 0.47126 0.0
H945 H 0.09572 0.73084 0.53394 0.0
H946 H 0.16004 0.66119 0.49924 0.0
H947 H 0.15849 0.67215 0.43966 0.0
H948 H 0.13893 0.65188 0.45868 0.0
H949 H 0.14944 0.73863 0.57425 0.0
H950 H 0.12512 0.75319 0.55626 0.0
H951 H 0.14784 0.75047 0.5155 0.0
C952 C 0.79349 0.70155 0.03813 0.0
C953 C 0.78355 0.71188 -0.0014 0.0
C954 C 0.79548 0.67876 0.04003 0.0
C955 C 0.78706 0.66601 0.00181 0.0
C956 C 0.77679 0.67629 0.96208 0.0
C957 C 0.77528 0.69914 0.9608 0.0
C958 C 0.80677 0.66833 0.08272 0.0
C959 C 0.76738 0.66316 0.92098 0.0
C960 C 0.80872 0.60846 0.98551 0.0
C961 C 0.79252 0.5961 0.00846 0.0
C962 C 0.80719 0.63129 0.9831 0.0
C963 C 0.78887 0.64187 0.00361 0.0
C964 C 0.77233 0.62943 0.02627 0.0
C965 C 0.77442 0.60667 0.02863 0.0
C966 C 0.82524 0.64411 0.95914 0.0
C967 C 0.75244 0.64014 0.04798 0.0
H968 H 0.80011 0.71129 0.06726 0.0
H969 H 0.76751 0.70701 0.93022 0.0
H970 H 0.79539 0.65702 0.10131 0.0
H971 H 0.82091 0.6585 0.07035 0.0
H972 H 0.8127 0.6806 0.10912 0.0
H973 H 0.75964 0.67366 0.89306 0.0
H974 H 0.78045 0.65336 0.9038 0.0
H975 H 0.75496 0.65153 0.93478 0.0
H976 H 0.82279 0.60026 0.97022 0.0
H977 H 0.76175 0.59706 0.04584 0.0
H978 H 0.83258 0.6557 0.98523 0.0
H979 H 0.8185 0.65393 0.92895 0.0
H980 H 0.83837 0.63338 0.94495 0.0
H981 H 0.7575 0.65158 0.07686 0.0
H982 H 0.74085 0.62805 0.06343 0.0
H983 H 0.74373 0.64988 0.02018 0.0
C984 C 0.7928 0.29141 0.54456 0.0
C985 C 0.78103 0.28343 0.50491 0.0
C986 C 0.81551 0.29417 0.54234 0.0
C987 C 0.82673 0.28848 0.49972 0.0
C988 C 0.81499 0.28028 0.45966 0.0
C989 C 0.79222 0.27803 0.46259 0.0
C990 C 0.82746 0.30326 0.58554 0.0
C991 C 0.82651 0.27376 0.41389 0.0
C992 C 0.88315 0.31248 0.47954 0.0
C993 C 0.89657 0.29549 0.49605 0.0
C994 C 0.86031 0.31042 0.48041 0.0
C995 C 0.85083 0.29078 0.49749 0.0
C996 C 0.86436 0.27346 0.51349 0.0
C997 C 0.8871 0.2761 0.51287 0.0
C998 C 0.84635 0.32933 0.46373 0.0
C999 C 0.85483 0.25217 0.53129 0.0
H1000 H 0.78422 0.29586 0.57719 0.0
H1001 H 0.7832 0.2718 0.4319 0.0
H1002 H 0.83952 0.29115 0.59901 0.0
H1003 H 0.83669 0.31813 0.57511 0.0
H1004 H 0.8162 0.3075 0.61542 0.0
H1005 H 0.815 0.26757 0.38609 0.0
H1006 H 0.83549 0.28794 0.39882 0.0
H1007 H 0.83876 0.26085 0.42178 0.0
H1008 H 0.89053 0.32751 0.46677 0.0
H1009 H 0.89755 0.26286 0.52502 0.0
H1010 H 0.83569 0.33486 0.49359 0.0
H1011 H 0.83549 0.32408 0.43389 0.0
H1012 H 0.8563 0.34342 0.45122 0.0
H1013 H 0.84455 0.25516 0.56344 0.0
H1014 H 0.86765 0.24007 0.54097 0.0
H1015 H 0.8441 0.24497 0.50322 0.0
C1016 C 0.71283 0.19944 0.54765 0.0
C1017 C 0.70548 0.21269 0.50967 0.0
C1018 C 0.71127 0.17662 0.54494 0.0
C1019 C 0.70183 0.16692 0.50361 0.0
C1020 C 0.69352 0.18024 0.46611 0.0
C1021 C 0.69561 0.20297 0.46941 0.0
C1022 C 0.72056 0.1629 0.58535 0.0
C1023 C 0.68303 0.17045 0.42184 0.0
C1024 C 0.72098 0.11038 0.46894 0.0
C1025 C 0.70404 0.09722 0.48653 0.0
C1026 C 0.72043 0.13308 0.47445 0.0
C1027 C 0.70237 0.14286 0.49768 0.0
C1028 C 0.68507 0.12969 0.51513 0.0
C1029 C 0.68621 0.10691 0.5097 0.0
C1030 C 0.73933 0.14656 0.45593 0.0
C1031 C 0.66543 0.13965 0.53945 0.0
H1032 H 0.72047 0.20687 0.57884 0.0
H1033 H 0.6896 0.21316 0.44025 0.0
H1034 H 0.70819 0.15101 0.59822 0.0
H1035 H 0.73471 0.15337 0.57194 0.0
H1036 H 0.72606 0.17297 0.61632 0.0
H1037 H 0.67554 0.18308 0.39819 0.0
H1038 H 0.6955 0.16147 0.40079 0.0
H1039 H 0.67024 0.15852 0.4323 0.0
H1040 H 0.73495 0.10283 0.45174 0.0
H1041 H 0.67311 0.09669 0.52319 0.0
H1042 H 0.74674 0.15599 0.48589 0.0
H1043 H 0.73341 0.15852 0.4288 0.0
H1044 H 0.75224 0.13636 0.43919 0.0
H1045 H 0.67065 0.14871 0.57205 0.0
H1046 H 0.65319 0.12716 0.55013 0.0
H1047 H 0.65747 0.1516 0.51494 0.0
C1048 C 0.29121 0.21249 0.05018 0.0
C1049 C 0.27958 0.20595 0.00913 0.0
C1050 C 0.314 0.21025 0.0525 0.0
C1051 C 0.32528 0.2009 0.01319 0.0
C1052 C 0.31351 0.19348 0.97247 0.0
C1053 C 0.2908 0.19629 0.97073 0.0
C1054 C 0.32607 0.21862 0.09623 0.0
C1055 C 0.32496 0.18305 0.93024 0.0
C1056 C 0.38422 0.21718 0.99313 0.0
C1057 C 0.39547 0.19938 0.01303 0.0
C1058 C 0.36136 0.21789 0.99325 0.0
C1059 C 0.3495 0.20023 0.01322 0.0
C1060 C 0.36077 0.18209 0.03301 0.0
C1061 C 0.38371 0.18197 0.03306 0.0
C1062 C 0.34991 0.23765 0.97242 0.0
C1063 C 0.34859 0.16283 0.05389 0.0
H1064 H 0.28257 0.21999 0.07989 0.0
H1065 H 0.28182 0.19091 0.9392 0.0
H1066 H 0.33657 0.20557 0.11164 0.0
H1067 H 0.33697 0.23229 0.08561 0.0
H1068 H 0.31479 0.2245 0.12467 0.0
H1069 H 0.31326 0.17643 0.90332 0.0
H1070 H 0.33551 0.1953 0.91216 0.0
H1071 H 0.33572 0.1696 0.94282 0.0
H1072 H 0.39337 0.23078 0.97826 0.0
H1073 H 0.39247 0.16818 0.04825 0.0
H1074 H 0.33936 0.24525 0.00016 0.0
H1075 H 0.33914 0.23265 0.94219 0.0
H1076 H 0.36158 0.25015 0.959 0.0
H1077 H 0.33815 0.16827 0.08416 0.0
H1078 H 0.35981 0.14987 0.06718 0.0
H1079 H 0.33761 0.1557 0.02621 0.0
C1080 C 0.28186 0.79704 0.5487 0.0
C1081 C 0.28867 0.7844 0.50949 0.0
C1082 C 0.28467 0.81978 0.54862 0.0
C1083 C 0.29489 0.82996 0.50878 0.0
C1084 C 0.30246 0.81719 0.46988 0.0
C1085 C 0.29908 0.79457 0.4705 0.0
C1086 C 0.27609 0.83296 0.59038 0.0
C1087 C 0.31374 0.82746 0.42713 0.0
C1088 C 0.28069 0.88867 0.47996 0.0
C1089 C 0.29862 0.89988 0.4993 0.0
C1090 C 0.2792 0.86592 0.48334 0.0
C1091 C 0.29623 0.85411 0.50607 0.0
C1092 C 0.31447 0.86532 0.52551 0.0
C1093 C 0.31535 0.8882 0.52229 0.0
C1094 C 0.25934 0.85455 0.46283 0.0
C1095 C 0.33307 0.85316 0.5493 0.0
H1096 H 0.27381 0.78922 0.5789 0.0
H1097 H 0.30468 0.78482 0.44043 0.0
H1098 H 0.28924 0.84338 0.60551 0.0
H1099 H 0.26289 0.84401 0.57764 0.0
H1100 H 0.26949 0.82246 0.61959 0.0
H1101 H 0.32022 0.81506 0.40176 0.0
H1102 H 0.30208 0.8381 0.40736 0.0
H1103 H 0.32746 0.83795 0.43939 0.0
H1104 H 0.26758 0.89779 0.4629 0.0
H1105 H 0.32921 0.89696 0.53719 0.0
H1106 H 0.25116 0.84483 0.49134 0.0
H1107 H 0.26435 0.84302 0.43416 0.0
H1108 H 0.24729 0.86623 0.44741 0.0
H1109 H 0.32688 0.84352 0.58026 0.0
H1110 H 0.34612 0.86432 0.56233 0.0
H1111 H 0.34034 0.84143 0.52349 0.0
C1112 C 0.70437 0.79859 0.96617 0.0
C1113 C 0.71641 0.78999 0.00485 0.0
C1114 C 0.68166 0.80109 0.96916 0.0
C1115 C 0.6707 0.79453 0.01158 0.0
C1116 C 0.6828 0.78637 0.05124 0.0
C1117 C 0.70558 0.78435 0.04753 0.0
C1118 C 0.66932 0.81018 0.92638 0.0
C1119 C 0.67161 0.77899 0.09685 0.0
C1120 C 0.61215 0.81336 0.02961 0.0
C1121 C 0.60046 0.79544 0.01166 0.0
C1122 C 0.6351 0.81329 0.03016 0.0
C1123 C 0.64646 0.79474 0.01299 0.0
C1124 C 0.63467 0.77645 0.99576 0.0
C1125 C 0.6118 0.77708 0.99505 0.0
C1126 C 0.64718 0.83318 0.04822 0.0
C1127 C 0.64622 0.75625 0.97774 0.0
H1128 H 0.7127 0.80326 0.93331 0.0
H1129 H 0.7148 0.77767 0.07752 0.0
H1130 H 0.65868 0.79731 0.91085 0.0
H1131 H 0.65857 0.8238 0.93779 0.0
H1132 H 0.68045 0.81623 0.89774 0.0
H1133 H 0.68347 0.77431 0.12544 0.0
H1134 H 0.6609 0.79213 0.11082 0.0
H1135 H 0.66102 0.7647 0.089 0.0
H1136 H 0.60334 0.82759 0.04224 0.0
H1137 H 0.60272 0.76311 0.98182 0.0
H1138 H 0.65732 0.84012 0.01887 0.0
H1139 H 0.65844 0.82854 0.0779 0.0
H1140 H 0.6359 0.84606 0.06139 0.0
H1141 H 0.65639 0.76044 0.94602 0.0
H1142 H 0.6346 0.74313 0.96728 0.0
H1143 H 0.65736 0.7498 0.00597 0.0
loop_
_geom_bond_atom_site_label_1
_geom_bond_atom_site_label_2
_geom_bond_distance
_geom_bond_site_symmetry_2
_ccdc_geom_bond_type
Sc0 O3 2.035 . S
Sc0 O10 2.105 . S
Sc0 O13 2.105 . S
Sc0 O16 2.105 . S
Sc0 O19 2.105 . S
Sc1 O3 2.025 . S
Sc1 O11 2.113 . S
Sc1 O15 2.097 1_554 S
Sc1 O17 2.113 . S
Sc1 O21 2.097 1_554 S
Sc2 O3 2.015 1_556 S
Sc2 O12 2.105 . S
Sc2 O14 2.105 . S
Sc2 O18 2.105 . S
Sc2 O20 2.105 . S
O3 Sc0 2.035 . S
O3 Sc1 2.025 . S
O3 Sc2 2.015 1_554 S
C4 O10 1.275 . S
C4 O20 1.261 1_554 S
C5 O11 1.268 . S
C5 O19 1.268 . S
C6 O12 1.268 . S
C6 O21 1.268 . S
C7 O13 1.268 . S
C7 O17 1.268 . S
C8 O14 1.254 1_554 S
C8 O16 1.282 . S
C9 O15 1.268 . S
C9 O18 1.268 . S
O10 Sc0 2.105 . S
O10 C4 1.275 . S
O11 Sc1 2.113 . S
O11 C5 1.268 . S
O12 Sc2 2.105 . S
O12 C6 1.268 . S
O13 Sc0 2.105 . S
O13 C7 1.268 . S
O14 Sc2 2.105 . S
O14 C8 1.254 1_556 S
O15 Sc1 2.097 1_556 S
O15 C9 1.268 . S
O16 Sc0 2.105 . S
O16 C8 1.282 . S
O17 Sc1 2.113 . S
O17 C7 1.268 . S
O18 Sc2 2.105 . S
O18 C9 1.268 . S
O19 Sc0 2.105 . S
O19 C5 1.268 . S
O20 Sc2 2.105 . S
O20 C4 1.261 1_556 S
O21 Sc1 2.097 1_556 S
O21 C6 1.268 . S
Sc22 O25 2.025 . S
Sc22 O32 2.105 . S
Sc22 O35 2.105 . S
Sc22 O38 2.105 . S
Sc22 O41 2.105 . S
Sc23 O25 2.025 . S
Sc23 O33 2.105 . S
Sc23 O37 2.105 . S
Sc23 O39 2.105 . S
Sc23 O43 2.105 . S
Sc24 O25 2.025 . S
Sc24 O34 2.105 . S
Sc24 O36 2.105 . S
Sc24 O40 2.105 . S
Sc24 O42 2.105 . S
O25 Sc22 2.025 . S
O25 Sc23 2.025 . S
O25 Sc24 2.025 . S
C26 O32 1.268 . S
C26 O42 1.268 . S
C27 O33 1.268 . S
C27 O41 1.268 . S
C28 O34 1.268 . S
C28 O43 1.268 . S
C29 O35 1.268 . S
C29 O39 1.268 . S
C30 O36 1.268 . S
C30 O38 1.268 . S
C31 O37 1.268 . S
C31 O40 1.268 . S
O32 Sc22 2.105 . S
O32 C26 1.268 . S
O33 Sc23 2.105 . S
O33 C27 1.268 . S
O34 Sc24 2.105 . S
O34 C28 1.268 . S
O35 Sc22 2.105 . S
O35 C29 1.268 . S
O36 Sc24 2.105 . S
O36 C30 1.268 . S
O37 Sc23 2.105 . S
O37 C31 1.268 . S
O38 Sc22 2.105 . S
O38 C30 1.268 . S
O39 Sc23 2.105 . S
O39 C29 1.268 . S
O40 Sc24 2.105 . S
O40 C31 1.268 . S
O41 Sc22 2.105 . S
O41 C27 1.268 . S
O42 Sc24 2.105 . S
O42 C26 1.268 . S
O43 Sc23 2.105 . S
O43 C28 1.268 . S
Sc44 O47 2.015 1_556 S
Sc44 O54 2.105 . S
Sc44 O57 2.105 . S
Sc44 O60 2.105 . S
Sc44 O63 2.105 . S
Sc45 O47 2.025 . S
Sc45 O55 2.097 1_554 S
Sc45 O59 2.113 . S
Sc45 O61 2.097 1_554 S
Sc45 O65 2.113 . S
Sc46 O47 2.035 . S
Sc46 O56 2.105 . S
Sc46 O58 2.105 . S
Sc46 O62 2.105 . S
Sc46 O64 2.105 . S
O47 Sc44 2.015 1_554 S
O47 Sc45 2.025 . S
O47 Sc46 2.035 . S
C48 O54 1.261 1_554 S
C48 O64 1.275 . S
C49 O55 1.268 . S
C49 O63 1.268 . S
C50 O56 1.268 . S
C50 O65 1.268 . S
C51 O57 1.268 . S
C51 O61 1.268 . S
C52 O58 1.282 . S
C52 O60 1.254 1_554 S
C53 O59 1.268 . S
C53 O62 1.268 . S
O54 Sc44 2.105 . S
O54 C48 1.261 1_556 S
O55 Sc45 2.097 1_556 S
O55 C49 1.268 . S
O56 Sc46 2.105 . S
O56 C50 1.268 . S
O57 Sc44 2.105 . S
O57 C51 1.268 . S
O58 Sc46 2.105 . S
O58 C52 1.282 . S
O59 Sc45 2.113 . S
O59 C53 1.268 . S
O60 Sc44 2.105 . S
O60 C52 1.254 1_556 S
O61 Sc45 2.097 1_556 S
O61 C51 1.268 . S
O62 Sc46 2.105 . S
O62 C53 1.268 . S
O63 Sc44 2.105 . S
O63 C49 1.268 . S
O64 Sc46 2.105 . S
O64 C48 1.275 . S
O65 Sc45 2.113 . S
O65 C50 1.268 . S
Sc66 O69 2.025 . S
Sc66 O76 2.105 . S
Sc66 O79 2.105 . S
Sc66 O82 2.105 . S
Sc66 O85 2.105 . S
Sc67 O69 2.025 . S
Sc67 O77 2.105 . S
Sc67 O81 2.105 . S
Sc67 O83 2.105 . S
Sc67 O87 2.105 . S
Sc68 O69 2.025 . S
Sc68 O78 2.105 . S
Sc68 O80 2.105 . S
Sc68 O84 2.105 . S
Sc68 O86 2.105 . S
O69 Sc66 2.025 . S
O69 Sc67 2.025 . S
O69 Sc68 2.025 . S
C70 O76 1.268 . S
C70 O86 1.268 . S
C71 O77 1.268 . S
C71 O85 1.268 . S
C72 O78 1.268 . S
C72 O87 1.268 . S
C73 O79 1.268 . S
C73 O83 1.268 . S
C74 O80 1.268 . S
C74 O82 1.268 . S
C75 O81 1.268 . S
C75 O84 1.268 . S
O76 Sc66 2.105 . S
O76 C70 1.268 . S
O77 Sc67 2.105 . S
O77 C71 1.268 . S
O78 Sc68 2.105 . S
O78 C72 1.268 . S
O79 Sc66 2.105 . S
O79 C73 1.268 . S
O80 Sc68 2.105 . S
O80 C74 1.268 . S
O81 Sc67 2.105 . S
O81 C75 1.268 . S
O82 Sc66 2.105 . S
O82 C74 1.268 . S
O83 Sc67 2.105 . S
O83 C73 1.268 . S
O84 Sc68 2.105 . S
O84 C75 1.268 . S
O85 Sc66 2.105 . S
O85 C71 1.268 . S
O86 Sc68 2.105 . S
O86 C70 1.268 . S
O87 Sc67 2.105 . S
O87 C72 1.268 . S
C88 C89 1.384 . S
C88 H101 0.947 . S
C88 C123 1.382 . S
C89 C88 1.384 . S
C89 C90 1.378 . S
C90 C89 1.378 . S
C90 C91 1.378 . S
C90 H102 0.952 . S
C91 C90 1.378 . S
C91 H103 0.950 . S
C91 C122 1.383 . S
H92 C111 0.947 . S
H93 C112 0.946 . S
H94 C114 0.953 . S
H95 C115 0.945 . S
H96 C117 0.952 . S
H97 C118 0.949 . S
H98 C120 0.950 . S
H99 C121 0.948 . S
H100 C123 0.951 . S
H101 C88 0.947 . S
H102 C90 0.952 . S
H103 C91 0.950 . S
N104 C107 1.368 1_554 S
N104 C109 1.363 . S
N105 C107 1.386 . S
N105 C108 1.372 . S
N106 C108 1.361 . S
N106 C109 1.377 1_556 S
C107 N104 1.368 1_556 S
C107 N105 1.386 . S
C107 C110 1.480 . S
C108 N105 1.372 . S
C108 N106 1.361 . S
C108 C116 1.457 . S
C109 N104 1.363 . S
C109 N106 1.377 1_554 S
C109 C122 1.479 . S
C110 C107 1.480 . S
C110 C111 1.383 1_556 S
C110 C115 1.385 . S
C111 H92 0.947 . S
C111 C110 1.383 1_554 S
C111 C112 1.388 . S
C112 H93 0.946 . S
C112 C111 1.388 . S
C112 C113 1.384 1_554 S
C113 C112 1.384 1_556 S
C113 C114 1.377 . S
C114 H94 0.953 . S
C114 C113 1.377 . S
C114 C115 1.369 . S
C115 H95 0.945 . S
C115 C110 1.385 . S
C115 C114 1.369 . S
C116 C108 1.457 . S
C116 C117 1.372 . S
C116 C121 1.364 . S
C117 H96 0.952 . S
C117 C116 1.372 . S
C117 C118 1.389 . S
C118 H97 0.949 . S
C118 C117 1.389 . S
C118 C119 1.387 . S
C119 C118 1.387 . S
C119 C120 1.372 . S
C120 H98 0.950 . S
C120 C119 1.372 . S
C120 C121 1.379 . S
C121 H99 0.948 . S
C121 C116 1.364 . S
C121 C120 1.379 . S
C122 C91 1.383 . S
C122 C109 1.479 . S
C122 C123 1.398 . S
C123 C88 1.382 . S
C123 H100 0.951 . S
C123 C122 1.398 . S
C124 C125 1.384 . S
C124 H137 0.947 . S
C124 C159 1.382 . S
C125 C124 1.384 . S
C125 C126 1.378 . S
C126 C125 1.378 . S
C126 C127 1.378 . S
C126 H138 0.952 . S
C127 C126 1.378 . S
C127 H139 0.950 . S
C127 C158 1.383 . S
H128 C147 0.947 . S
H129 C148 0.946 . S
H130 C150 0.953 . S
H131 C151 0.945 . S
H132 C153 0.952 . S
H133 C154 0.949 . S
H134 C156 0.950 . S
H135 C157 0.948 . S
H136 C159 0.951 . S
H137 C124 0.947 . S
H138 C126 0.952 . S
H139 C127 0.950 . S
N140 C143 1.382 1_655 S
N140 C145 1.363 . S
N141 C143 1.371 1_655 S
N141 C144 1.372 . S
N142 C144 1.361 . S
N142 C145 1.377 . S
C143 N140 1.382 1_455 S
C143 N141 1.371 1_455 S
C143 C146 1.480 . S
C144 N141 1.372 . S
C144 N142 1.361 . S
C144 C152 1.457 . S
C145 N140 1.363 . S
C145 N142 1.377 . S
C145 C158 1.479 . S
C146 C143 1.480 . S
C146 C147 1.383 . S
C146 C151 1.385 . S
C147 H128 0.947 . S
C147 C146 1.383 . S
C147 C148 1.388 . S
C148 H129 0.946 . S
C148 C147 1.388 . S
C148 C149 1.384 . S
C149 C148 1.384 . S
C149 C150 1.377 . S
C150 H130 0.953 . S
C150 C149 1.377 . S
C150 C151 1.369 . S
C151 H131 0.945 . S
C151 C146 1.385 . S
C151 C150 1.369 . S
C152 C144 1.457 . S
C152 C153 1.372 . S
C152 C157 1.364 . S
C153 H132 0.952 . S
C153 C152 1.372 . S
C153 C154 1.389 . S
C154 H133 0.949 . S
C154 C153 1.389 . S
C154 C155 1.387 . S
C155 C154 1.387 . S
C155 C156 1.372 . S
C156 H134 0.950 . S
C156 C155 1.372 . S
C156 C157 1.379 . S
C157 H135 0.948 . S
C157 C152 1.364 . S
C157 C156 1.379 . S
C158 C127 1.383 . S
C158 C145 1.479 . S
C158 C159 1.398 . S
C159 C124 1.382 . S
C159 H136 0.951 . S
C159 C158 1.398 . S
C160 C161 1.384 . S
C160 H173 0.947 . S
C160 C195 1.382 . S
C161 C160 1.384 . S
C161 C162 1.378 . S
C162 C161 1.378 . S
C162 C163 1.378 . S
C162 H174 0.952 . S
C163 C162 1.378 . S
C163 H175 0.950 . S
C163 C194 1.383 . S
H164 C183 0.947 . S
H165 C184 0.946 . S
H166 C186 0.953 . S
H167 C187 0.945 . S
H168 C189 0.952 . S
H169 C190 0.949 . S
H170 C192 0.950 . S
H171 C193 0.948 . S
H172 C195 0.951 . S
H173 C160 0.947 . S
H174 C162 0.952 . S
H175 C163 0.950 . S
N176 C179 1.382 1_556 S
N176 C181 1.363 . S
N177 C179 1.371 . S
N177 C180 1.372 . S
N178 C180 1.361 . S
N178 C181 1.377 1_554 S
C179 N176 1.382 1_554 S
C179 N177 1.371 . S
C179 C182 1.480 . S
C180 N177 1.372 . S
C180 N178 1.361 . S
C180 C188 1.457 . S
C181 N176 1.363 . S
C181 N178 1.377 1_556 S
C181 C194 1.479 . S
C182 C179 1.480 . S
C182 C183 1.383 1_554 S
C182 C187 1.385 . S
C183 H164 0.947 . S
C183 C182 1.383 1_556 S
C183 C184 1.388 . S
C184 H165 0.946 . S
C184 C183 1.388 . S
C184 C185 1.384 1_556 S
C185 C184 1.384 1_554 S
C185 C186 1.377 . S
C186 H166 0.953 . S
C186 C185 1.377 . S
C186 C187 1.369 . S
C187 H167 0.945 . S
C187 C182 1.385 . S
C187 C186 1.369 . S
C188 C180 1.457 . S
C188 C189 1.372 . S
C188 C193 1.364 . S
C189 H168 0.952 . S
C189 C188 1.372 . S
C189 C190 1.389 . S
C190 H169 0.949 . S
C190 C189 1.389 . S
C190 C191 1.387 . S
C191 C190 1.387 . S
C191 C192 1.372 . S
C192 H170 0.950 . S
C192 C191 1.372 . S
C192 C193 1.379 . S
C193 H171 0.948 . S
C193 C188 1.364 . S
C193 C192 1.379 . S
C194 C163 1.383 . S
C194 C181 1.479 . S
C194 C195 1.398 . S
C195 C160 1.382 . S
C195 H172 0.951 . S
C195 C194 1.398 . S
C196 C197 1.384 . S
C196 H209 0.947 . S
C196 C231 1.382 . S
C197 C196 1.384 . S
C197 C198 1.378 . S
C198 C197 1.378 . S
C198 C199 1.378 . S
C198 H210 0.952 . S
C199 C198 1.378 . S
C199 H211 0.950 . S
C199 C230 1.383 . S
H200 C219 0.947 . S
H201 C220 0.946 . S
H202 C222 0.953 . S
H203 C223 0.945 . S
H204 C225 0.952 . S
H205 C226 0.949 . S
H206 C228 0.950 . S
H207 C229 0.948 . S
H208 C231 0.951 . S
H209 C196 0.947 . S
H210 C198 0.952 . S
H211 C199 0.950 . S
N212 C215 1.382 1_455 S
N212 C217 1.363 . S
N213 C215 1.371 1_455 S
N213 C216 1.372 . S
N214 C216 1.361 . S
N214 C217 1.377 . S
C215 N212 1.382 1_655 S
C215 N213 1.371 1_655 S
C215 C218 1.480 . S
C216 N213 1.372 . S
C216 N214 1.361 . S
C216 C224 1.457 . S
C217 N212 1.363 . S
C217 N214 1.377 . S
C217 C230 1.479 . S
C218 C215 1.480 . S
C218 C219 1.383 . S
C218 C223 1.385 . S
C219 H200 0.947 . S
C219 C218 1.383 . S
C219 C220 1.388 . S
C220 H201 0.946 . S
C220 C219 1.388 . S
C220 C221 1.384 . S
C221 C220 1.384 . S
C221 C222 1.377 . S
C222 H202 0.953 . S
C222 C221 1.377 . S
C222 C223 1.369 . S
C223 H203 0.945 . S
C223 C218 1.385 . S
C223 C222 1.369 . S
C224 C216 1.457 . S
C224 C225 1.372 . S
C224 C229 1.364 . S
C225 H204 0.952 . S
C225 C224 1.372 . S
C225 C226 1.389 . S
C226 H205 0.949 . S
C226 C225 1.389 . S
C226 C227 1.387 . S
C227 C226 1.387 . S
C227 C228 1.372 . S
C228 H206 0.950 . S
C228 C227 1.372 . S
C228 C229 1.379 . S
C229 H207 0.948 . S
C229 C224 1.364 . S
C229 C228 1.379 . S
C230 C199 1.383 . S
C230 C217 1.479 . S
C230 C231 1.398 . S
C231 C196 1.382 . S
C231 H208 0.951 . S
C231 C230 1.398 . S
C232 C233 1.384 . S
C232 H245 0.947 . S
C232 C267 1.382 . S
C233 C232 1.384 . S
C233 C234 1.378 . S
C234 C233 1.378 . S
C234 C235 1.378 . S
C234 H246 0.952 . S
C235 C234 1.378 . S
C235 H247 0.950 . S
C235 C266 1.383 . S
H236 C255 0.947 . S
H237 C256 0.946 . S
H238 C258 0.953 . S
H239 C259 0.945 . S
H240 C261 0.952 . S
H241 C262 0.949 . S
H242 C264 0.950 . S
H243 C265 0.948 . S
H244 C267 0.951 . S
H245 C232 0.947 . S
H246 C234 0.952 . S
H247 C235 0.950 . S
N248 C251 1.382 1_565 S
N248 C253 1.363 . S
N249 C251 1.371 1_565 S
N249 C252 1.372 . S
N250 C252 1.361 . S
N250 C253 1.377 . S
C251 N248 1.382 1_545 S
C251 N249 1.371 1_545 S
C251 C254 1.480 . S
C252 N249 1.372 . S
C252 N250 1.361 . S
C252 C260 1.457 . S
C253 N248 1.363 . S
C253 N250 1.377 . S
C253 C266 1.479 . S
C254 C251 1.480 . S
C254 C255 1.383 . S
C254 C259 1.385 . S
C255 H236 0.947 . S
C255 C254 1.383 . S
C255 C256 1.388 . S
C256 H237 0.946 . S
C256 C255 1.388 . S
C256 C257 1.384 . S
C257 C256 1.384 . S
C257 C258 1.377 . S
C258 H238 0.953 . S
C258 C257 1.377 . S
C258 C259 1.369 . S
C259 H239 0.945 . S
C259 C254 1.385 . S
C259 C258 1.369 . S
C260 C252 1.457 . S
C260 C261 1.372 . S
C260 C265 1.364 . S
C261 H240 0.952 . S
C261 C260 1.372 . S
C261 C262 1.389 . S
C262 H241 0.949 . S
C262 C261 1.389 . S
C262 C263 1.387 . S
C263 C262 1.387 . S
C263 C264 1.372 . S
C264 H242 0.950 . S
C264 C263 1.372 . S
C264 C265 1.379 . S
C265 H243 0.948 . S
C265 C260 1.364 . S
C265 C264 1.379 . S
C266 C235 1.383 . S
C266 C253 1.479 . S
C266 C267 1.398 . S
C267 C232 1.382 . S
C267 H244 0.951 . S
C267 C266 1.398 . S
C268 C269 1.384 . S
C268 H281 0.947 . S
C268 C303 1.382 . S
C269 C268 1.384 . S
C269 C270 1.378 . S
C270 C269 1.378 . S
C270 C271 1.378 . S
C270 H282 0.952 . S
C271 C270 1.378 . S
C271 H283 0.950 . S
C271 C302 1.383 . S
H272 C291 0.947 . S
H273 C292 0.946 . S
H274 C294 0.953 . S
H275 C295 0.945 . S
H276 C297 0.952 . S
H277 C298 0.949 . S
H278 C300 0.950 . S
H279 C301 0.948 . S
H280 C303 0.951 . S
H281 C268 0.947 . S
H282 C270 0.952 . S
H283 C271 0.950 . S
N284 C287 1.382 1_556 S
N284 C289 1.363 . S
N285 C287 1.371 . S
N285 C288 1.372 . S
N286 C288 1.361 . S
N286 C289 1.377 1_554 S
C287 N284 1.382 1_554 S
C287 N285 1.371 . S
C287 C290 1.480 . S
C288 N285 1.372 . S
C288 N286 1.361 . S
C288 C296 1.457 . S
C289 N284 1.363 . S
C289 N286 1.377 1_556 S
C289 C302 1.479 . S
C290 C287 1.480 . S
C290 C291 1.383 1_554 S
C290 C295 1.385 . S
C291 H272 0.947 . S
C291 C290 1.383 1_556 S
C291 C292 1.388 . S
C292 H273 0.946 . S
C292 C291 1.388 . S
C292 C293 1.384 1_556 S
C293 C292 1.384 1_554 S
C293 C294 1.377 . S
C294 H274 0.953 . S
C294 C293 1.377 . S
C294 C295 1.369 . S
C295 H275 0.945 . S
C295 C290 1.385 . S
C295 C294 1.369 . S
C296 C288 1.457 . S
C296 C297 1.372 . S
C296 C301 1.364 . S
C297 H276 0.952 . S
C297 C296 1.372 . S
C297 C298 1.389 . S
C298 H277 0.949 . S
C298 C297 1.389 . S
C298 C299 1.387 . S
C299 C298 1.387 . S
C299 C300 1.372 . S
C300 H278 0.950 . S
C300 C299 1.372 . S
C300 C301 1.379 . S
C301 H279 0.948 . S
C301 C296 1.364 . S
C301 C300 1.379 . S
C302 C271 1.383 . S
C302 C289 1.479 . S
C302 C303 1.398 . S
C303 C268 1.382 . S
C303 H280 0.951 . S
C303 C302 1.398 . S
C304 C305 1.384 . S
C304 H317 0.947 . S
C304 C339 1.382 . S
C305 C304 1.384 . S
C305 C306 1.378 . S
C306 C305 1.378 . S
C306 C307 1.378 . S
C306 H318 0.952 . S
C307 C306 1.378 . S
C307 H319 0.950 . S
C307 C338 1.383 . S
H308 C327 0.947 . S
H309 C328 0.946 . S
H310 C330 0.953 . S
H311 C331 0.945 . S
H312 C333 0.952 . S
H313 C334 0.949 . S
H314 C336 0.950 . S
H315 C337 0.948 . S
H316 C339 0.951 . S
H317 C304 0.947 . S
H318 C306 0.952 . S
H319 C307 0.950 . S
N320 C323 1.382 1_545 S
N320 C325 1.363 . S
N321 C323 1.371 1_545 S
N321 C324 1.372 . S
N322 C324 1.361 . S
N322 C325 1.377 . S
C323 N320 1.382 1_565 S
C323 N321 1.371 1_565 S
C323 C326 1.480 . S
C324 N321 1.372 . S
C324 N322 1.361 . S
C324 C332 1.457 . S
C325 N320 1.363 . S
C325 N322 1.377 . S
C325 C338 1.479 . S
C326 C323 1.480 . S
C326 C327 1.383 . S
C326 C331 1.385 . S
C327 H308 0.947 . S
C327 C326 1.383 . S
C327 C328 1.388 . S
C328 H309 0.946 . S
C328 C327 1.388 . S
C328 C329 1.384 . S
C329 C328 1.384 . S
C329 C330 1.377 . S
C330 H310 0.953 . S
C330 C329 1.377 . S
C330 C331 1.369 . S
C331 H311 0.945 . S
C331 C326 1.385 . S
C331 C330 1.369 . S
C332 C324 1.457 . S
C332 C333 1.372 . S
C332 C337 1.364 . S
C333 H312 0.952 . S
C333 C332 1.372 . S
C333 C334 1.389 . S
C334 H313 0.949 . S
C334 C333 1.389 . S
C334 C335 1.387 . S
C335 C334 1.387 . S
C335 C336 1.372 . S
C336 H314 0.950 . S
C336 C335 1.372 . S
C336 C337 1.379 . S
C337 H315 0.948 . S
C337 C332 1.364 . S
C337 C336 1.379 . S
C338 C307 1.383 . S
C338 C325 1.479 . S
C338 C339 1.398 . S
C339 C304 1.382 . S
C339 H316 0.951 . S
C339 C338 1.398 . S
C340 C341 1.384 . S
C340 H353 0.947 . S
C340 C375 1.382 . S
C341 C340 1.384 . S
C341 C342 1.378 . S
C342 C341 1.378 . S
C342 C343 1.378 . S
C342 H354 0.952 . S
C343 C342 1.378 . S
C343 H355 0.950 . S
C343 C374 1.383 . S
H344 C363 0.947 . S
H345 C364 0.946 . S
H346 C366 0.953 . S
H347 C367 0.945 . S
H348 C369 0.952 . S
H349 C370 0.949 . S
H350 C372 0.950 . S
H351 C373 0.948 . S
H352 C375 0.951 . S
H353 C340 0.947 . S
H354 C342 0.952 . S
H355 C343 0.950 . S
N356 C359 1.366 1_554 S
N356 C361 1.363 . S
N357 C359 1.387 . S
N357 C360 1.372 . S
N358 C360 1.361 . S
N358 C361 1.377 1_556 S
C359 N356 1.366 1_556 S
C359 N357 1.387 . S
C359 C362 1.480 . S
C360 N357 1.372 . S
C360 N358 1.361 . S
C360 C368 1.457 . S
C361 N356 1.363 . S
C361 N358 1.377 1_554 S
C361 C374 1.479 . S
C362 C359 1.480 . S
C362 C363 1.383 1_556 S
C362 C367 1.385 . S
C363 H344 0.947 . S
C363 C362 1.383 1_554 S
C363 C364 1.388 . S
C364 H345 0.946 . S
C364 C363 1.388 . S
C364 C365 1.384 1_554 S
C365 C364 1.384 1_556 S
C365 C366 1.377 . S
C366 H346 0.953 . S
C366 C365 1.377 . S
C366 C367 1.369 . S
C367 H347 0.945 . S
C367 C362 1.385 . S
C367 C366 1.369 . S
C368 C360 1.457 . S
C368 C369 1.372 . S
C368 C373 1.364 . S
C369 H348 0.952 . S
C369 C368 1.372 . S
C369 C370 1.389 . S
C370 H349 0.949 . S
C370 C369 1.389 . S
C370 C371 1.387 . S
C371 C370 1.387 . S
C371 C372 1.372 . S
C372 H350 0.950 . S
C372 C371 1.372 . S
C372 C373 1.379 . S
C373 H351 0.948 . S
C373 C368 1.364 . S
C373 C372 1.379 . S
C374 C343 1.383 . S
C374 C361 1.479 . S
C374 C375 1.398 . S
C375 C340 1.382 . S
C375 H352 0.951 . S
C375 C374 1.398 . S
C376 C377 1.391 . S
C376 C378 1.394 . S
C376 H392 0.931 . S
C377 C376 1.391 . S
C377 C381 1.376 . S
C378 C376 1.394 . S
C378 C379 1.369 . S
C378 C382 1.531 . S
C379 C378 1.369 . S
C379 C380 1.410 . S
C379 C387 1.503 . S
C380 C379 1.410 . S
C380 C381 1.392 . S
C380 C383 1.511 . S
C381 C377 1.376 . S
C381 C380 1.392 . S
C381 H393 0.929 . S
C382 C378 1.531 . S
C382 H394 0.960 . S
C382 H395 0.962 . S
C382 H396 0.960 . S
C383 C380 1.511 . S
C383 H397 0.961 . S
C383 H398 0.961 . S
C383 H399 0.961 . S
C384 C385 1.370 . S
C384 C386 1.363 . S
C384 H400 0.931 . S
C385 C384 1.370 . S
C385 C389 1.408 . S
C386 C384 1.363 . S
C386 C387 1.370 . S
C386 C390 1.524 . S
C387 C379 1.503 . S
C387 C386 1.370 . S
C387 C388 1.403 . S
C388 C387 1.403 . S
C388 C389 1.404 . S
C388 C391 1.539 . S
C389 C385 1.408 . S
C389 C388 1.404 . S
C389 H401 0.930 . S
C390 C386 1.524 . S
C390 H402 0.956 . S
C390 H403 0.961 . S
C390 H404 0.961 . S
C391 C388 1.539 . S
C391 H405 0.958 . S
C391 H406 0.961 . S
C391 H407 0.960 . S
H392 C376 0.931 . S
H393 C381 0.929 . S
H394 C382 0.960 . S
H395 C382 0.962 . S
H396 C382 0.960 . S
H397 C383 0.961 . S
H398 C383 0.961 . S
H399 C383 0.961 . S
H400 C384 0.931 . S
H401 C389 0.930 . S
H402 C390 0.956 . S
H403 C390 0.961 . S
H404 C390 0.961 . S
H405 C391 0.958 . S
H406 C391 0.961 . S
H407 C391 0.960 . S
C408 C409 1.391 . S
C408 C410 1.394 . S
C408 H424 0.931 . S
C409 C408 1.391 . S
C409 C413 1.376 . S
C410 C408 1.394 . S
C410 C411 1.369 . S
C410 C414 1.531 . S
C411 C410 1.369 . S
C411 C412 1.410 . S
C411 C419 1.503 . S
C412 C411 1.410 . S
C412 C413 1.392 . S
C412 C415 1.511 . S
C413 C409 1.376 . S
C413 C412 1.392 . S
C413 H425 0.929 . S
C414 C410 1.531 . S
C414 H426 0.960 . S
C414 H427 0.962 . S
C414 H428 0.960 . S
C415 C412 1.511 . S
C415 H429 0.961 . S
C415 H430 0.961 . S
C415 H431 0.961 . S
C416 C417 1.370 . S
C416 C418 1.363 . S
C416 H432 0.931 . S
C417 C416 1.370 . S
C417 C421 1.408 . S
C418 C416 1.363 . S
C418 C419 1.370 . S
C418 C422 1.524 . S
C419 C411 1.503 . S
C419 C418 1.370 . S
C419 C420 1.403 . S
C420 C419 1.403 . S
C420 C421 1.404 . S
C420 C423 1.539 . S
C421 C417 1.408 . S
C421 C420 1.404 . S
C421 H433 0.930 . S
C422 C418 1.524 . S
C422 H434 0.956 . S
C422 H435 0.961 . S
C422 H436 0.961 . S
C423 C420 1.539 . S
C423 H437 0.958 . S
C423 H438 0.961 . S
C423 H439 0.960 . S
H424 C408 0.931 . S
H425 C413 0.929 . S
H426 C414 0.960 . S
H427 C414 0.962 . S
H428 C414 0.960 . S
H429 C415 0.961 . S
H430 C415 0.961 . S
H431 C415 0.961 . S
H432 C416 0.931 . S
H433 C421 0.930 . S
H434 C422 0.956 . S
H435 C422 0.961 . S
H436 C422 0.961 . S
H437 C423 0.958 . S
H438 C423 0.961 . S
H439 C423 0.960 . S
C440 C441 1.391 . S
C440 C442 1.394 . S
C440 H456 0.931 . S
C441 C440 1.391 . S
C441 C445 1.376 . S
C442 C440 1.394 . S
C442 C443 1.369 . S
C442 C446 1.531 . S
C443 C442 1.369 . S
C443 C444 1.410 . S
C443 C451 1.503 . S
C444 C443 1.410 . S
C444 C445 1.392 . S
C444 C447 1.511 . S
C445 C441 1.376 . S
C445 C444 1.392 . S
C445 H457 0.929 . S
C446 C442 1.531 . S
C446 H458 0.960 . S
C446 H459 0.962 . S
C446 H460 0.960 . S
C447 C444 1.511 . S
C447 H461 0.961 . S
C447 H462 0.961 . S
C447 H463 0.961 . S
C448 C449 1.370 . S
C448 C450 1.363 . S
C448 H464 0.931 . S
C449 C448 1.370 . S
C449 C453 1.408 . S
C450 C448 1.363 . S
C450 C451 1.370 . S
C450 C454 1.524 . S
C451 C443 1.503 . S
C451 C450 1.370 . S
C451 C452 1.403 . S
C452 C451 1.403 . S
C452 C453 1.404 . S
C452 C455 1.539 . S
C453 C449 1.408 . S
C453 C452 1.404 . S
C453 H465 0.930 . S
C454 C450 1.524 . S
C454 H466 0.956 . S
C454 H467 0.961 . S
C454 H468 0.961 . S
C455 C452 1.539 . S
C455 H469 0.958 . S
C455 H470 0.961 . S
C455 H471 0.960 . S
H456 C440 0.931 . S
H457 C445 0.929 . S
H458 C446 0.960 . S
H459 C446 0.962 . S
H460 C446 0.960 . S
H461 C447 0.961 . S
H462 C447 0.961 . S
H463 C447 0.961 . S
H464 C448 0.931 . S
H465 C453 0.930 . S
H466 C454 0.956 . S
H467 C454 0.961 . S
H468 C454 0.961 . S
H469 C455 0.958 . S
H470 C455 0.961 . S
H471 C455 0.960 . S
C472 C473 1.391 . S
C472 C474 1.394 . S
C472 H488 0.931 . S
C473 C472 1.391 . S
C473 C477 1.376 . S
C474 C472 1.394 . S
C474 C475 1.369 . S
C474 C478 1.531 . S
C475 C474 1.369 . S
C475 C476 1.410 . S
C475 C483 1.503 . S
C476 C475 1.410 . S
C476 C477 1.392 . S
C476 C479 1.511 . S
C477 C473 1.376 . S
C477 C476 1.392 . S
C477 H489 0.929 . S
C478 C474 1.531 . S
C478 H490 0.960 . S
C478 H491 0.962 . S
C478 H492 0.960 . S
C479 C476 1.511 . S
C479 H493 0.961 . S
C479 H494 0.961 . S
C479 H495 0.961 . S
C480 C481 1.370 . S
C480 C482 1.363 . S
C480 H496 0.931 . S
C481 C480 1.370 . S
C481 C485 1.408 . S
C482 C480 1.363 . S
C482 C483 1.370 . S
C482 C486 1.524 . S
C483 C475 1.503 . S
C483 C482 1.370 . S
C483 C484 1.403 . S
C484 C483 1.403 . S
C484 C485 1.404 . S
C484 C487 1.539 . S
C485 C481 1.408 . S
C485 C484 1.404 . S
C485 H497 0.930 . S
C486 C482 1.524 . S
C486 H498 0.956 . S
C486 H499 0.961 . S
C486 H500 0.961 . S
C487 C484 1.539 . S
C487 H501 0.958 . S
C487 H502 0.961 . S
C487 H503 0.960 . S
H488 C472 0.931 . S
H489 C477 0.929 . S
H490 C478 0.960 . S
H491 C478 0.962 . S
H492 C478 0.960 . S
H493 C479 0.961 . S
H494 C479 0.961 . S
H495 C479 0.961 . S
H496 C480 0.931 . S
H497 C485 0.930 . S
H498 C486 0.956 . S
H499 C486 0.961 . S
H500 C486 0.961 . S
H501 C487 0.958 . S
H502 C487 0.961 . S
H503 C487 0.960 . S
C504 C505 1.391 . S
C504 C506 1.394 . S
C504 H520 0.931 . S
C505 C504 1.391 . S
C505 C509 1.376 . S
C506 C504 1.394 . S
C506 C507 1.369 . S
C506 C510 1.531 . S
C507 C506 1.369 . S
C507 C508 1.410 . S
C507 C515 1.503 . S
C508 C507 1.410 . S
C508 C509 1.392 . S
C508 C511 1.511 . S
C509 C505 1.376 . S
C509 C508 1.392 . S
C509 H521 0.929 . S
C510 C506 1.531 . S
C510 H522 0.960 . S
C510 H523 0.962 . S
C510 H524 0.960 . S
C511 C508 1.511 . S
C511 H525 0.961 . S
C511 H526 0.961 . S
C511 H527 0.961 . S
C512 C513 1.370 . S
C512 C514 1.363 . S
C512 H528 0.931 . S
C513 C512 1.370 . S
C513 C517 1.408 . S
C514 C512 1.363 . S
C514 C515 1.370 . S
C514 C518 1.524 . S
C515 C507 1.503 . S
C515 C514 1.370 . S
C515 C516 1.403 . S
C516 C515 1.403 . S
C516 C517 1.404 . S
C516 C519 1.539 . S
C517 C513 1.408 . S
C517 C516 1.404 . S
C517 H529 0.930 . S
C518 C514 1.524 . S
C518 H530 0.956 . S
C518 H531 0.961 . S
C518 H532 0.961 . S
C519 C516 1.539 . S
C519 H533 0.958 . S
C519 H534 0.961 . S
C519 H535 0.960 . S
H520 C504 0.931 . S
H521 C509 0.929 . S
H522 C510 0.960 . S
H523 C510 0.962 . S
H524 C510 0.960 . S
H525 C511 0.961 . S
H526 C511 0.961 . S
H527 C511 0.961 . S
H528 C512 0.931 . S
H529 C517 0.930 . S
H530 C518 0.956 . S
H531 C518 0.961 . S
H532 C518 0.961 . S
H533 C519 0.958 . S
H534 C519 0.961 . S
H535 C519 0.960 . S
C536 C537 1.391 . S
C536 C538 1.394 . S
C536 H552 0.931 . S
C537 C536 1.391 . S
C537 C541 1.376 . S
C538 C536 1.394 . S
C538 C539 1.369 . S
C538 C542 1.531 . S
C539 C538 1.369 . S
C539 C540 1.410 . S
C539 C547 1.503 . S
C540 C539 1.410 . S
C540 C541 1.392 . S
C540 C543 1.511 . S
C541 C537 1.376 . S
C541 C540 1.392 . S
C541 H553 0.929 . S
C542 C538 1.531 . S
C542 H554 0.960 . S
C542 H555 0.962 . S
C542 H556 0.960 . S
C543 C540 1.511 . S
C543 H557 0.961 . S
C543 H558 0.961 . S
C543 H559 0.961 . S
C544 C545 1.370 . S
C544 C546 1.363 . S
C544 H560 0.931 . S
C545 C544 1.370 . S
C545 C549 1.408 . S
C546 C544 1.363 . S
C546 C547 1.370 . S
C546 C550 1.524 . S
C547 C539 1.503 . S
C547 C546 1.370 . S
C547 C548 1.403 . S
C548 C547 1.403 . S
C548 C549 1.404 . S
C548 C551 1.539 . S
C549 C545 1.408 . S
C549 C548 1.404 . S
C549 H561 0.930 . S
C550 C546 1.524 . S
C550 H562 0.956 . S
C550 H563 0.961 . S
C550 H564 0.961 . S
C551 C548 1.539 . S
C551 H565 0.958 . S
C551 H566 0.961 . S
C551 H567 0.960 . S
H552 C536 0.931 . S
H553 C541 0.929 . S
H554 C542 0.960 . S
H555 C542 0.962 . S
H556 C542 0.960 . S
H557 C543 0.961 . S
H558 C543 0.961 . S
H559 C543 0.961 . S
H560 C544 0.931 . S
H561 C549 0.930 . S
H562 C550 0.956 . S
H563 C550 0.961 . S
H564 C550 0.961 . S
H565 C551 0.958 . S
H566 C551 0.961 . S
H567 C551 0.960 . S
C568 C569 1.391 . S
C568 C570 1.394 . S
C568 H584 0.931 . S
C569 C568 1.391 . S
C569 C573 1.376 . S
C570 C568 1.394 . S
C570 C571 1.369 . S
C570 C574 1.531 . S
C571 C570 1.369 . S
C571 C572 1.410 . S
C571 C579 1.503 . S
C572 C571 1.410 . S
C572 C573 1.392 . S
C572 C575 1.511 . S
C573 C569 1.376 . S
C573 C572 1.392 . S
C573 H585 0.929 . S
C574 C570 1.531 . S
C574 H586 0.960 . S
C574 H587 0.962 . S
C574 H588 0.960 . S
C575 C572 1.511 . S
C575 H589 0.961 . S
C575 H590 0.961 . S
C575 H591 0.961 . S
C576 C577 1.370 . S
C576 C578 1.363 . S
C576 H592 0.931 . S
C577 C576 1.370 . S
C577 C581 1.408 . S
C578 C576 1.363 . S
C578 C579 1.370 . S
C578 C582 1.524 . S
C579 C571 1.503 . S
C579 C578 1.370 . S
C579 C580 1.403 . S
C580 C579 1.403 . S
C580 C581 1.404 . S
C580 C583 1.539 . S
C581 C577 1.408 . S
C581 C580 1.404 . S
C581 H593 0.930 . S
C582 C578 1.524 . S
C582 H594 0.956 . S
C582 H595 0.961 . S
C582 H596 0.961 . S
C583 C580 1.539 . S
C583 H597 0.958 . S
C583 H598 0.961 . S
C583 H599 0.960 . S
H584 C568 0.931 . S
H585 C573 0.929 . S
H586 C574 0.960 . S
H587 C574 0.962 . S
H588 C574 0.960 . S
H589 C575 0.961 . S
H590 C575 0.961 . S
H591 C575 0.961 . S
H592 C576 0.931 . S
H593 C581 0.930 . S
H594 C582 0.956 . S
H595 C582 0.961 . S
H596 C582 0.961 . S
H597 C583 0.958 . S
H598 C583 0.961 . S
H599 C583 0.960 . S
C600 C601 1.391 . S
C600 C602 1.394 . S
C600 H616 0.931 . S
C601 C600 1.391 . S
C601 C605 1.376 . S
C602 C600 1.394 . S
C602 C603 1.369 . S
C602 C606 1.531 . S
C603 C602 1.369 . S
C603 C604 1.410 . S
C603 C611 1.503 . S
C604 C603 1.410 . S
C604 C605 1.392 . S
C604 C607 1.511 . S
C605 C601 1.376 . S
C605 C604 1.392 . S
C605 H617 0.929 . S
C606 C602 1.531 . S
C606 H618 0.960 . S
C606 H619 0.962 . S
C606 H620 0.960 . S
C607 C604 1.511 . S
C607 H621 0.961 . S
C607 H622 0.961 . S
C607 H623 0.961 . S
C608 C609 1.370 . S
C608 C610 1.363 . S
C608 H624 0.931 . S
C609 C608 1.370 . S
C609 C613 1.408 . S
C610 C608 1.363 . S
C610 C611 1.370 . S
C610 C614 1.524 . S
C611 C603 1.503 . S
C611 C610 1.370 . S
C611 C612 1.403 . S
C612 C611 1.403 . S
C612 C613 1.404 . S
C612 C615 1.539 . S
C613 C609 1.408 . S
C613 C612 1.404 . S
C613 H625 0.930 . S
C614 C610 1.524 . S
C614 H626 0.956 . S
C614 H627 0.961 . S
C614 H628 0.961 . S
C615 C612 1.539 . S
C615 H629 0.958 . S
C615 H630 0.961 . S
C615 H631 0.960 . S
H616 C600 0.931 . S
H617 C605 0.929 . S
H618 C606 0.960 . S
H619 C606 0.962 . S
H620 C606 0.960 . S
H621 C607 0.961 . S
H622 C607 0.961 . S
H623 C607 0.961 . S
H624 C608 0.931 . S
H625 C613 0.930 . S
H626 C614 0.956 . S
H627 C614 0.961 . S
H628 C614 0.961 . S
H629 C615 0.958 . S
H630 C615 0.961 . S
H631 C615 0.960 . S
C632 C633 1.391 . S
C632 C634 1.394 . S
C632 H648 0.931 . S
C633 C632 1.391 . S
C633 C637 1.376 . S
C634 C632 1.394 . S
C634 C635 1.369 . S
C634 C638 1.531 . S
C635 C634 1.369 . S
C635 C636 1.410 . S
C635 C643 1.503 . S
C636 C635 1.410 . S
C636 C637 1.392 . S
C636 C639 1.511 . S
C637 C633 1.376 . S
C637 C636 1.392 . S
C637 H649 0.929 . S
C638 C634 1.531 . S
C638 H650 0.960 . S
C638 H651 0.962 . S
C638 H652 0.960 . S
C639 C636 1.511 . S
C639 H653 0.961 . S
C639 H654 0.961 . S
C639 H655 0.961 . S
C640 C641 1.370 . S
C640 C642 1.363 . S
C640 H656 0.931 . S
C641 C640 1.370 . S
C641 C645 1.408 . S
C642 C640 1.363 . S
C642 C643 1.370 . S
C642 C646 1.524 . S
C643 C635 1.503 . S
C643 C642 1.370 . S
C643 C644 1.403 . S
C644 C643 1.403 . S
C644 C645 1.404 . S
C644 C647 1.539 . S
C645 C641 1.408 . S
C645 C644 1.404 . S
C645 H657 0.930 . S
C646 C642 1.524 . S
C646 H658 0.956 . S
C646 H659 0.961 . S
C646 H660 0.961 . S
C647 C644 1.539 . S
C647 H661 0.958 . S
C647 H662 0.961 . S
C647 H663 0.960 . S
H648 C632 0.931 . S
H649 C637 0.929 . S
H650 C638 0.960 . S
H651 C638 0.962 . S
H652 C638 0.960 . S
H653 C639 0.961 . S
H654 C639 0.961 . S
H655 C639 0.961 . S
H656 C640 0.931 . S
H657 C645 0.930 . S
H658 C646 0.956 . S
H659 C646 0.961 . S
H660 C646 0.961 . S
H661 C647 0.958 . S
H662 C647 0.961 . S
H663 C647 0.960 . S
C664 C665 1.391 . S
C664 C666 1.394 . S
C664 H680 0.931 . S
C665 C664 1.391 . S
C665 C669 1.376 . S
C666 C664 1.394 . S
C666 C667 1.369 . S
C666 C670 1.531 . S
C667 C666 1.369 . S
C667 C668 1.410 . S
C667 C675 1.503 . S
C668 C667 1.410 . S
C668 C669 1.392 . S
C668 C671 1.511 . S
C669 C665 1.376 . S
C669 C668 1.392 . S
C669 H681 0.929 . S
C670 C666 1.531 . S
C670 H682 0.960 . S
C670 H683 0.962 . S
C670 H684 0.960 . S
C671 C668 1.511 . S
C671 H685 0.961 . S
C671 H686 0.961 . S
C671 H687 0.961 . S
C672 C673 1.370 . S
C672 C674 1.363 . S
C672 H688 0.931 . S
C673 C672 1.370 . S
C673 C677 1.408 . S
C674 C672 1.363 . S
C674 C675 1.370 . S
C674 C678 1.524 . S
C675 C667 1.503 . S
C675 C674 1.370 . S
C675 C676 1.403 . S
C676 C675 1.403 . S
C676 C677 1.404 . S
C676 C679 1.539 . S
C677 C673 1.408 . S
C677 C676 1.404 . S
C677 H689 0.930 . S
C678 C674 1.524 . S
C678 H690 0.956 . S
C678 H691 0.961 . S
C678 H692 0.961 . S
C679 C676 1.539 . S
C679 H693 0.958 . S
C679 H694 0.961 . S
C679 H695 0.960 . S
H680 C664 0.931 . S
H681 C669 0.929 . S
H682 C670 0.960 . S
H683 C670 0.962 . S
H684 C670 0.960 . S
H685 C671 0.961 . S
H686 C671 0.961 . S
H687 C671 0.961 . S
H688 C672 0.931 . S
H689 C677 0.930 . S
H690 C678 0.956 . S
H691 C678 0.961 . S
H692 C678 0.961 . S
H693 C679 0.958 . S
H694 C679 0.961 . S
H695 C679 0.960 . S
C696 C697 1.391 . S
C696 C698 1.394 . S
C696 H712 0.931 . S
C697 C696 1.391 . S
C697 C701 1.376 . S
C698 C696 1.394 . S
C698 C699 1.369 . S
C698 C702 1.531 . S
C699 C698 1.369 . S
C699 C700 1.410 . S
C699 C707 1.503 . S
C700 C699 1.410 . S
C700 C701 1.392 . S
C700 C703 1.511 . S
C701 C697 1.376 . S
C701 C700 1.392 . S
C701 H713 0.929 . S
C702 C698 1.531 . S
C702 H714 0.960 . S
C702 H715 0.962 . S
C702 H716 0.960 . S
C703 C700 1.511 . S
C703 H717 0.961 . S
C703 H718 0.961 . S
C703 H719 0.961 . S
C704 C705 1.370 . S
C704 C706 1.363 . S
C704 H720 0.931 . S
C705 C704 1.370 . S
C705 C709 1.408 . S
C706 C704 1.363 . S
C706 C707 1.370 . S
C706 C710 1.524 . S
C707 C699 1.503 . S
C707 C706 1.370 . S
C707 C708 1.403 . S
C708 C707 1.403 . S
C708 C709 1.404 . S
C708 C711 1.539 . S
C709 C705 1.408 . S
C709 C708 1.404 . S
C709 H721 0.930 . S
C710 C706 1.524 . S
C710 H722 0.956 . S
C710 H723 0.961 . S
C710 H724 0.961 . S
C711 C708 1.539 . S
C711 H725 0.958 . S
C711 H726 0.961 . S
C711 H727 0.960 . S
H712 C696 0.931 . S
H713 C701 0.929 . S
H714 C702 0.960 . S
H715 C702 0.962 . S
H716 C702 0.960 . S
H717 C703 0.961 . S
H718 C703 0.961 . S
H719 C703 0.961 . S
H720 C704 0.931 . S
H721 C709 0.930 . S
H722 C710 0.956 . S
H723 C710 0.961 . S
H724 C710 0.961 . S
H725 C711 0.958 . S
H726 C711 0.961 . S
H727 C711 0.960 . S
C728 C729 1.391 . S
C728 C730 1.394 . S
C728 H744 0.931 . S
C729 C728 1.391 . S
C729 C733 1.376 . S
C730 C728 1.394 . S
C730 C731 1.369 . S
C730 C734 1.531 . S
C731 C730 1.369 . S
C731 C732 1.410 . S
C731 C739 1.503 . S
C732 C731 1.410 . S
C732 C733 1.392 . S
C732 C735 1.511 . S
C733 C729 1.376 . S
C733 C732 1.392 . S
C733 H745 0.929 . S
C734 C730 1.531 . S
C734 H746 0.960 . S
C734 H747 0.962 . S
C734 H748 0.960 . S
C735 C732 1.511 . S
C735 H749 0.961 . S
C735 H750 0.961 . S
C735 H751 0.961 . S
C736 C737 1.370 . S
C736 C738 1.363 . S
C736 H752 0.931 . S
C737 C736 1.370 . S
C737 C741 1.408 . S
C738 C736 1.363 . S
C738 C739 1.370 . S
C738 C742 1.524 . S
C739 C731 1.503 . S
C739 C738 1.370 . S
C739 C740 1.403 . S
C740 C739 1.403 . S
C740 C741 1.404 . S
C740 C743 1.539 . S
C741 C737 1.408 . S
C741 C740 1.404 . S
C741 H753 0.930 . S
C742 C738 1.524 . S
C742 H754 0.956 . S
C742 H755 0.961 . S
C742 H756 0.961 . S
C743 C740 1.539 . S
C743 H757 0.958 . S
C743 H758 0.961 . S
C743 H759 0.960 . S
H744 C728 0.931 . S
H745 C733 0.929 . S
H746 C734 0.960 . S
H747 C734 0.962 . S
H748 C734 0.960 . S
H749 C735 0.961 . S
H750 C735 0.961 . S
H751 C735 0.961 . S
H752 C736 0.931 . S
H753 C741 0.930 . S
H754 C742 0.956 . S
H755 C742 0.961 . S
H756 C742 0.961 . S
H757 C743 0.958 . S
H758 C743 0.961 . S
H759 C743 0.960 . S
C760 C761 1.391 . S
C760 C762 1.394 . S
C760 H776 0.931 . S
C761 C760 1.391 . S
C761 C765 1.376 . S
C762 C760 1.394 . S
C762 C763 1.369 . S
C762 C766 1.531 . S
C763 C762 1.369 . S
C763 C764 1.410 . S
C763 C771 1.503 . S
C764 C763 1.410 . S
C764 C765 1.392 . S
C764 C767 1.511 . S
C765 C761 1.376 . S
C765 C764 1.392 . S
C765 H777 0.929 . S
C766 C762 1.531 . S
C766 H778 0.960 . S
C766 H779 0.962 . S
C766 H780 0.960 . S
C767 C764 1.511 . S
C767 H781 0.961 . S
C767 H782 0.961 . S
C767 H783 0.961 . S
C768 C769 1.370 . S
C768 C770 1.363 . S
C768 H784 0.931 . S
C769 C768 1.370 . S
C769 C773 1.408 . S
C770 C768 1.363 . S
C770 C771 1.370 . S
C770 C774 1.524 . S
C771 C763 1.503 . S
C771 C770 1.370 . S
C771 C772 1.403 . S
C772 C771 1.403 . S
C772 C773 1.404 . S
C772 C775 1.539 . S
C773 C769 1.408 . S
C773 C772 1.404 . S
C773 H785 0.930 . S
C774 C770 1.524 . S
C774 H786 0.956 . S
C774 H787 0.961 . S
C774 H788 0.961 . S
C775 C772 1.539 . S
C775 H789 0.958 . S
C775 H790 0.961 . S
C775 H791 0.960 . S
H776 C760 0.931 . S
H777 C765 0.929 . S
H778 C766 0.960 . S
H779 C766 0.962 . S
H780 C766 0.960 . S
H781 C767 0.961 . S
H782 C767 0.961 . S
H783 C767 0.961 . S
H784 C768 0.931 . S
H785 C773 0.930 . S
H786 C774 0.956 . S
H787 C774 0.961 . S
H788 C774 0.961 . S
H789 C775 0.958 . S
H790 C775 0.961 . S
H791 C775 0.960 . S
C792 C793 1.391 . S
C792 C794 1.394 . S
C792 H808 0.931 . S
C793 C792 1.391 . S
C793 C797 1.376 . S
C794 C792 1.394 . S
C794 C795 1.369 . S
C794 C798 1.531 . S
C795 C794 1.369 . S
C795 C796 1.410 . S
C795 C803 1.503 . S
C796 C795 1.410 . S
C796 C797 1.392 . S
C796 C799 1.511 . S
C797 C793 1.376 . S
C797 C796 1.392 . S
C797 H809 0.929 . S
C798 C794 1.531 . S
C798 H810 0.960 . S
C798 H811 0.962 . S
C798 H812 0.960 . S
C799 C796 1.511 . S
C799 H813 0.961 . S
C799 H814 0.961 . S
C799 H815 0.961 . S
C800 C801 1.370 . S
C800 C802 1.363 . S
C800 H816 0.931 . S
C801 C800 1.370 . S
C801 C805 1.408 . S
C802 C800 1.363 . S
C802 C803 1.370 . S
C802 C806 1.524 . S
C803 C795 1.503 . S
C803 C802 1.370 . S
C803 C804 1.403 . S
C804 C803 1.403 . S
C804 C805 1.404 . S
C804 C807 1.539 . S
C805 C801 1.408 . S
C805 C804 1.404 . S
C805 H817 0.930 . S
C806 C802 1.524 . S
C806 H818 0.956 . S
C806 H819 0.961 . S
C806 H820 0.961 . S
C807 C804 1.539 . S
C807 H821 0.958 . S
C807 H822 0.961 . S
C807 H823 0.960 . S
H808 C792 0.931 . S
H809 C797 0.929 . S
H810 C798 0.960 . S
H811 C798 0.962 . S
H812 C798 0.960 . S
H813 C799 0.961 . S
H814 C799 0.961 . S
H815 C799 0.961 . S
H816 C800 0.931 . S
H817 C805 0.930 . S
H818 C806 0.956 . S
H819 C806 0.961 . S
H820 C806 0.961 . S
H821 C807 0.958 . S
H822 C807 0.961 . S
H823 C807 0.960 . S
C824 C825 1.391 . S
C824 C826 1.394 . S
C824 H840 0.931 . S
C825 C824 1.391 . S
C825 C829 1.376 . S
C826 C824 1.394 . S
C826 C827 1.369 . S
C826 C830 1.531 . S
C827 C826 1.369 . S
C827 C828 1.410 . S
C827 C835 1.503 . S
C828 C827 1.410 . S
C828 C829 1.392 . S
C828 C831 1.511 . S
C829 C825 1.376 . S
C829 C828 1.392 . S
C829 H841 0.929 . S
C830 C826 1.531 . S
C830 H842 0.960 . S
C830 H843 0.962 . S
C830 H844 0.960 . S
C831 C828 1.511 . S
C831 H845 0.961 . S
C831 H846 0.961 . S
C831 H847 0.961 . S
C832 C833 1.370 . S
C832 C834 1.363 . S
C832 H848 0.931 . S
C833 C832 1.370 . S
C833 C837 1.408 . S
C834 C832 1.363 . S
C834 C835 1.370 . S
C834 C838 1.524 . S
C835 C827 1.503 . S
C835 C834 1.370 . S
C835 C836 1.403 . S
C836 C835 1.403 . S
C836 C837 1.404 . S
C836 C839 1.539 . S
C837 C833 1.408 . S
C837 C836 1.404 . S
C837 H849 0.930 . S
C838 C834 1.524 . S
C838 H850 0.956 . S
C838 H851 0.961 . S
C838 H852 0.961 . S
C839 C836 1.539 . S
C839 H853 0.958 . S
C839 H854 0.961 . S
C839 H855 0.960 . S
H840 C824 0.931 . S
H841 C829 0.929 . S
H842 C830 0.960 . S
H843 C830 0.962 . S
H844 C830 0.960 . S
H845 C831 0.961 . S
H846 C831 0.961 . S
H847 C831 0.961 . S
H848 C832 0.931 . S
H849 C837 0.930 . S
H850 C838 0.956 . S
H851 C838 0.961 . S
H852 C838 0.961 . S
H853 C839 0.958 . S
H854 C839 0.961 . S
H855 C839 0.960 . S
C856 C857 1.391 . S
C856 C858 1.394 . S
C856 H872 0.931 . S
C857 C856 1.391 . S
C857 C861 1.376 . S
C858 C856 1.394 . S
C858 C859 1.369 . S
C858 C862 1.531 . S
C859 C858 1.369 . S
C859 C860 1.410 . S
C859 C867 1.503 . S
C860 C859 1.410 . S
C860 C861 1.392 . S
C860 C863 1.511 . S
C861 C857 1.376 . S
C861 C860 1.392 . S
C861 H873 0.929 . S
C862 C858 1.531 . S
C862 H874 0.960 . S
C862 H875 0.962 . S
C862 H876 0.960 . S
C863 C860 1.511 . S
C863 H877 0.961 . S
C863 H878 0.961 . S
C863 H879 0.961 . S
C864 C865 1.370 . S
C864 C866 1.363 . S
C864 H880 0.931 . S
C865 C864 1.370 . S
C865 C869 1.408 . S
C866 C864 1.363 . S
C866 C867 1.370 . S
C866 C870 1.524 . S
C867 C859 1.503 . S
C867 C866 1.370 . S
C867 C868 1.403 . S
C868 C867 1.403 . S
C868 C869 1.404 . S
C868 C871 1.539 . S
C869 C865 1.408 . S
C869 C868 1.404 . S
C869 H881 0.930 . S
C870 C866 1.524 . S
C870 H882 0.956 . S
C870 H883 0.961 . S
C870 H884 0.961 . S
C871 C868 1.539 . S
C871 H885 0.958 . S
C871 H886 0.961 . S
C871 H887 0.960 . S
H872 C856 0.931 . S
H873 C861 0.929 . S
H874 C862 0.960 . S
H875 C862 0.962 . S
H876 C862 0.960 . S
H877 C863 0.961 . S
H878 C863 0.961 . S
H879 C863 0.961 . S
H880 C864 0.931 . S
H881 C869 0.930 . S
H882 C870 0.956 . S
H883 C870 0.961 . S
H884 C870 0.961 . S
H885 C871 0.958 . S
H886 C871 0.961 . S
H887 C871 0.960 . S
C888 C889 1.391 . S
C888 C890 1.394 . S
C888 H904 0.931 . S
C889 C888 1.391 . S
C889 C893 1.376 1_556 S
C890 C888 1.394 . S
C890 C891 1.369 . S
C890 C894 1.531 . S
C891 C890 1.369 . S
C891 C892 1.410 1_556 S
C891 C899 1.503 . S
C892 C891 1.410 1_554 S
C892 C893 1.392 . S
C892 C895 1.511 . S
C893 C889 1.376 1_554 S
C893 C892 1.392 . S
C893 H905 0.929 . S
C894 C890 1.531 . S
C894 H906 0.960 . S
C894 H907 0.962 . S
C894 H908 0.960 . S
C895 C892 1.511 . S
C895 H909 0.961 . S
C895 H910 0.961 . S
C895 H911 0.961 . S
C896 C897 1.358 1_554 S
C896 C898 1.363 . S
C896 H912 0.931 . S
C897 C896 1.358 1_556 S
C897 C901 1.423 . S
C898 C896 1.363 . S
C898 C899 1.370 1_554 S
C898 C902 1.524 . S
C899 C891 1.503 . S
C899 C898 1.370 1_556 S
C899 C900 1.403 . S
C900 C899 1.403 . S
C900 C901 1.404 . S
C900 C903 1.539 . S
C901 C897 1.423 . S
C901 C900 1.404 . S
C901 H913 0.930 . S
C902 C898 1.524 . S
C902 H914 0.956 . S
C902 H915 0.961 . S
C902 H916 0.961 . S
C903 C900 1.539 . S
C903 H917 0.958 . S
C903 H918 0.961 . S
C903 H919 0.960 . S
H904 C888 0.931 . S
H905 C893 0.929 . S
H906 C894 0.960 . S
H907 C894 0.962 . S
H908 C894 0.960 . S
H909 C895 0.961 . S
H910 C895 0.961 . S
H911 C895 0.961 . S
H912 C896 0.931 . S
H913 C901 0.930 . S
H914 C902 0.956 . S
H915 C902 0.961 . S
H916 C902 0.961 . S
H917 C903 0.958 . S
H918 C903 0.961 . S
H919 C903 0.960 . S
C920 C921 1.391 . S
C920 C922 1.394 . S
C920 H936 0.931 . S
C921 C920 1.391 . S
C921 C925 1.376 . S
C922 C920 1.394 . S
C922 C923 1.369 . S
C922 C926 1.531 . S
C923 C922 1.369 . S
C923 C924 1.410 . S
C923 C931 1.503 . S
C924 C923 1.410 . S
C924 C925 1.392 . S
C924 C927 1.511 . S
C925 C921 1.376 . S
C925 C924 1.392 . S
C925 H937 0.929 . S
C926 C922 1.531 . S
C926 H938 0.960 . S
C926 H939 0.962 . S
C926 H940 0.960 . S
C927 C924 1.511 . S
C927 H941 0.961 . S
C927 H942 0.961 . S
C927 H943 0.961 . S
C928 C929 1.370 . S
C928 C930 1.363 . S
C928 H944 0.931 . S
C929 C928 1.370 . S
C929 C933 1.408 . S
C930 C928 1.363 . S
C930 C931 1.370 . S
C930 C934 1.524 . S
C931 C923 1.503 . S
C931 C930 1.370 . S
C931 C932 1.403 . S
C932 C931 1.403 . S
C932 C933 1.404 . S
C932 C935 1.539 . S
C933 C929 1.408 . S
C933 C932 1.404 . S
C933 H945 0.930 . S
C934 C930 1.524 . S
C934 H946 0.956 . S
C934 H947 0.961 . S
C934 H948 0.961 . S
C935 C932 1.539 . S
C935 H949 0.958 . S
C935 H950 0.961 . S
C935 H951 0.960 . S
H936 C920 0.931 . S
H937 C925 0.929 . S
H938 C926 0.960 . S
H939 C926 0.962 . S
H940 C926 0.960 . S
H941 C927 0.961 . S
H942 C927 0.961 . S
H943 C927 0.961 . S
H944 C928 0.931 . S
H945 C933 0.930 . S
H946 C934 0.956 . S
H947 C934 0.961 . S
H948 C934 0.961 . S
H949 C935 0.958 . S
H950 C935 0.961 . S
H951 C935 0.960 . S
C952 C953 1.391 . S
C952 C954 1.394 . S
C952 H968 0.931 . S
C953 C952 1.391 . S
C953 C957 1.376 1_554 S
C954 C952 1.394 . S
C954 C955 1.369 . S
C954 C958 1.531 . S
C955 C954 1.369 . S
C955 C956 1.410 1_554 S
C955 C963 1.503 . S
C956 C955 1.410 1_556 S
C956 C957 1.392 . S
C956 C959 1.511 . S
C957 C953 1.376 1_556 S
C957 C956 1.392 . S
C957 H969 0.929 . S
C958 C954 1.531 . S
C958 H970 0.960 . S
C958 H971 0.962 . S
C958 H972 0.960 . S
C959 C956 1.511 . S
C959 H973 0.961 . S
C959 H974 0.961 . S
C959 H975 0.961 1_556 S
C960 C961 1.370 1_556 S
C960 C962 1.363 . S
C960 H976 0.931 . S
C961 C960 1.370 1_554 S
C961 C965 1.408 . S
C962 C960 1.363 . S
C962 C963 1.370 1_556 S
C962 C966 1.524 . S
C963 C955 1.503 . S
C963 C962 1.370 1_554 S
C963 C964 1.403 . S
C964 C963 1.403 . S
C964 C965 1.404 . S
C964 C967 1.539 . S
C965 C961 1.408 . S
C965 C964 1.404 . S
C965 H977 0.930 . S
C966 C962 1.524 . S
C966 H978 0.956 . S
C966 H979 0.961 . S
C966 H980 0.961 . S
C967 C964 1.539 . S
C967 H981 0.958 . S
C967 H982 0.961 . S
C967 H983 0.960 . S
H968 C952 0.931 . S
H969 C957 0.929 . S
H970 C958 0.960 . S
H971 C958 0.962 . S
H972 C958 0.960 . S
H973 C959 0.961 . S
H974 C959 0.961 . S
H975 C959 0.961 1_554 S
H976 C960 0.931 . S
H977 C965 0.930 . S
H978 C966 0.956 . S
H979 C966 0.961 . S
H980 C966 0.961 . S
H981 C967 0.958 . S
H982 C967 0.961 . S
H983 C967 0.960 . S
C984 C985 1.391 . S
C984 C986 1.394 . S
C984 H1000 0.931 . S
C985 C984 1.391 . S
C985 C989 1.376 . S
C986 C984 1.394 . S
C986 C987 1.369 . S
C986 C990 1.531 . S
C987 C986 1.369 . S
C987 C988 1.410 . S
C987 C995 1.503 . S
C988 C987 1.410 . S
C988 C989 1.392 . S
C988 C991 1.511 . S
C989 C985 1.376 . S
C989 C988 1.392 . S
C989 H1001 0.929 . S
C990 C986 1.531 . S
C990 H1002 0.960 . S
C990 H1003 0.962 . S
C990 H1004 0.960 . S
C991 C988 1.511 . S
C991 H1005 0.961 . S
C991 H1006 0.961 . S
C991 H1007 0.961 . S
C992 C993 1.370 . S
C992 C994 1.363 . S
C992 H1008 0.931 . S
C993 C992 1.370 . S
C993 C997 1.408 . S
C994 C992 1.363 . S
C994 C995 1.370 . S
C994 C998 1.524 . S
C995 C987 1.503 . S
C995 C994 1.370 . S
C995 C996 1.403 . S
C996 C995 1.403 . S
C996 C997 1.404 . S
C996 C999 1.539 . S
C997 C993 1.408 . S
C997 C996 1.404 . S
C997 H1009 0.930 . S
C998 C994 1.524 . S
C998 H1010 0.956 . S
C998 H1011 0.961 . S
C998 H1012 0.961 . S
C999 C996 1.539 . S
C999 H1013 0.958 . S
C999 H1014 0.961 . S
C999 H1015 0.960 . S
H1000 C984 0.931 . S
H1001 C989 0.929 . S
H1002 C990 0.960 . S
H1003 C990 0.962 . S
H1004 C990 0.960 . S
H1005 C991 0.961 . S
H1006 C991 0.961 . S
H1007 C991 0.961 . S
H1008 C992 0.931 . S
H1009 C997 0.930 . S
H1010 C998 0.956 . S
H1011 C998 0.961 . S
H1012 C998 0.961 . S
H1013 C999 0.958 . S
H1014 C999 0.961 . S
H1015 C999 0.960 . S
C1016 C1017 1.391 . S
C1016 C1018 1.394 . S
C1016 H1032 0.931 . S
C1017 C1016 1.391 . S
C1017 C1021 1.376 . S
C1018 C1016 1.394 . S
C1018 C1019 1.369 . S
C1018 C1022 1.531 . S
C1019 C1018 1.369 . S
C1019 C1020 1.410 . S
C1019 C1027 1.503 . S
C1020 C1019 1.410 . S
C1020 C1021 1.392 . S
C1020 C1023 1.511 . S
C1021 C1017 1.376 . S
C1021 C1020 1.392 . S
C1021 H1033 0.929 . S
C1022 C1018 1.531 . S
C1022 H1034 0.960 . S
C1022 H1035 0.962 . S
C1022 H1036 0.960 . S
C1023 C1020 1.511 . S
C1023 H1037 0.961 . S
C1023 H1038 0.961 . S
C1023 H1039 0.961 . S
C1024 C1025 1.370 . S
C1024 C1026 1.363 . S
C1024 H1040 0.931 . S
C1025 C1024 1.370 . S
C1025 C1029 1.408 . S
C1026 C1024 1.363 . S
C1026 C1027 1.370 . S
C1026 C1030 1.524 . S
C1027 C1019 1.503 . S
C1027 C1026 1.370 . S
C1027 C1028 1.403 . S
C1028 C1027 1.403 . S
C1028 C1029 1.404 . S
C1028 C1031 1.539 . S
C1029 C1025 1.408 . S
C1029 C1028 1.404 . S
C1029 H1041 0.930 . S
C1030 C1026 1.524 . S
C1030 H1042 0.956 . S
C1030 H1043 0.961 . S
C1030 H1044 0.961 . S
C1031 C1028 1.539 . S
C1031 H1045 0.958 . S
C1031 H1046 0.961 . S
C1031 H1047 0.960 . S
H1032 C1016 0.931 . S
H1033 C1021 0.929 . S
H1034 C1022 0.960 . S
H1035 C1022 0.962 . S
H1036 C1022 0.960 . S
H1037 C1023 0.961 . S
H1038 C1023 0.961 . S
H1039 C1023 0.961 . S
H1040 C1024 0.931 . S
H1041 C1029 0.930 . S
H1042 C1030 0.956 . S
H1043 C1030 0.961 . S
H1044 C1030 0.961 . S
H1045 C1031 0.958 . S
H1046 C1031 0.961 . S
H1047 C1031 0.960 . S
C1048 C1049 1.391 . S
C1048 C1050 1.394 . S
C1048 H1064 0.931 . S
C1049 C1048 1.391 . S
C1049 C1053 1.376 1_554 S
C1050 C1048 1.394 . S
C1050 C1051 1.369 . S
C1050 C1054 1.531 . S
C1051 C1050 1.369 . S
C1051 C1052 1.408 1_554 S
C1051 C1059 1.503 . S
C1052 C1051 1.408 1_556 S
C1052 C1053 1.393 . S
C1052 C1055 1.512 . S
C1053 C1049 1.376 1_556 S
C1053 C1052 1.393 . S
C1053 H1065 0.929 . S
C1054 C1050 1.531 . S
C1054 H1066 0.960 . S
C1054 H1067 0.962 . S
C1054 H1068 0.960 . S
C1055 C1052 1.512 . S
C1055 H1069 0.961 . S
C1055 H1070 0.961 . S
C1055 H1071 0.961 1_556 S
C1056 C1057 1.370 1_556 S
C1056 C1058 1.363 . S
C1056 H1072 0.931 . S
C1057 C1056 1.370 1_554 S
C1057 C1061 1.408 . S
C1058 C1056 1.363 . S
C1058 C1059 1.370 1_556 S
C1058 C1062 1.524 . S
C1059 C1051 1.503 . S
C1059 C1058 1.370 1_554 S
C1059 C1060 1.403 . S
C1060 C1059 1.403 . S
C1060 C1061 1.404 . S
C1060 C1063 1.539 . S
C1061 C1057 1.408 . S
C1061 C1060 1.404 . S
C1061 H1073 0.930 . S
C1062 C1058 1.524 . S
C1062 H1074 0.956 . S
C1062 H1075 0.961 . S
C1062 H1076 0.961 . S
C1063 C1060 1.539 . S
C1063 H1077 0.958 . S
C1063 H1078 0.961 . S
C1063 H1079 0.960 . S
H1064 C1048 0.931 . S
H1065 C1053 0.929 . S
H1066 C1054 0.960 . S
H1067 C1054 0.962 . S
H1068 C1054 0.960 . S
H1069 C1055 0.961 . S
H1070 C1055 0.961 . S
H1071 C1055 0.961 1_554 S
H1072 C1056 0.931 . S
H1073 C1061 0.930 . S
H1074 C1062 0.956 . S
H1075 C1062 0.961 . S
H1076 C1062 0.961 . S
H1077 C1063 0.958 . S
H1078 C1063 0.961 . S
H1079 C1063 0.960 . S
C1080 C1081 1.391 . S
C1080 C1082 1.394 . S
C1080 H1096 0.931 . S
C1081 C1080 1.391 . S
C1081 C1085 1.376 . S
C1082 C1080 1.394 . S
C1082 C1083 1.369 . S
C1082 C1086 1.531 . S
C1083 C1082 1.369 . S
C1083 C1084 1.410 . S
C1083 C1091 1.503 . S
C1084 C1083 1.410 . S
C1084 C1085 1.392 . S
C1084 C1087 1.511 . S
C1085 C1081 1.376 . S
C1085 C1084 1.392 . S
C1085 H1097 0.929 . S
C1086 C1082 1.531 . S
C1086 H1098 0.960 . S
C1086 H1099 0.962 . S
C1086 H1100 0.960 . S
C1087 C1084 1.511 . S
C1087 H1101 0.961 . S
C1087 H1102 0.961 . S
C1087 H1103 0.961 . S
C1088 C1089 1.370 . S
C1088 C1090 1.363 . S
C1088 H1104 0.931 . S
C1089 C1088 1.370 . S
C1089 C1093 1.408 . S
C1090 C1088 1.363 . S
C1090 C1091 1.370 . S
C1090 C1094 1.524 . S
C1091 C1083 1.503 . S
C1091 C1090 1.370 . S
C1091 C1092 1.403 . S
C1092 C1091 1.403 . S
C1092 C1093 1.404 . S
C1092 C1095 1.539 . S
C1093 C1089 1.408 . S
C1093 C1092 1.404 . S
C1093 H1105 0.930 . S
C1094 C1090 1.524 . S
C1094 H1106 0.956 . S
C1094 H1107 0.961 . S
C1094 H1108 0.961 . S
C1095 C1092 1.539 . S
C1095 H1109 0.958 . S
C1095 H1110 0.961 . S
C1095 H1111 0.960 . S
H1096 C1080 0.931 . S
H1097 C1085 0.929 . S
H1098 C1086 0.960 . S
H1099 C1086 0.962 . S
H1100 C1086 0.960 . S
H1101 C1087 0.961 . S
H1102 C1087 0.961 . S
H1103 C1087 0.961 . S
H1104 C1088 0.931 . S
H1105 C1093 0.930 . S
H1106 C1094 0.956 . S
H1107 C1094 0.961 . S
H1108 C1094 0.961 . S
H1109 C1095 0.958 . S
H1110 C1095 0.961 . S
H1111 C1095 0.960 . S
C1112 C1113 1.391 . S
C1112 C1114 1.394 . S
C1112 H1128 0.931 . S
C1113 C1112 1.391 . S
C1113 C1117 1.376 . S
C1114 C1112 1.394 . S
C1114 C1115 1.369 . S
C1114 C1118 1.531 . S
C1115 C1114 1.369 . S
C1115 C1116 1.410 . S
C1115 C1123 1.503 . S
C1116 C1115 1.410 . S
C1116 C1117 1.392 . S
C1116 C1119 1.511 . S
C1117 C1113 1.376 . S
C1117 C1116 1.392 . S
C1117 H1129 0.930 . S
C1118 C1114 1.531 . S
C1118 H1130 0.960 . S
C1118 H1131 0.962 1_556 S
C1118 H1132 0.960 . S
C1119 C1116 1.511 . S
C1119 H1133 0.961 1_556 S
C1119 H1134 0.961 1_556 S
C1119 H1135 0.961 . S
C1120 C1121 1.370 1_554 S
C1120 C1122 1.363 . S
C1120 H1136 0.931 . S
C1121 C1120 1.370 1_556 S
C1121 C1125 1.408 . S
C1122 C1120 1.363 . S
C1122 C1123 1.370 1_554 S
C1122 C1126 1.524 . S
C1123 C1115 1.503 . S
C1123 C1122 1.370 1_556 S
C1123 C1124 1.403 . S
C1124 C1123 1.403 . S
C1124 C1125 1.404 . S
C1124 C1127 1.539 . S
C1125 C1121 1.408 . S
C1125 C1124 1.404 . S
C1125 H1137 0.930 . S
C1126 C1122 1.524 . S
C1126 H1138 0.956 . S
C1126 H1139 0.961 . S
C1126 H1140 0.961 . S
C1127 C1124 1.539 . S
C1127 H1141 0.958 . S
C1127 H1142 0.961 . S
C1127 H1143 0.960 . S
H1128 C1112 0.931 . S
H1129 C1117 0.930 . S
H1130 C1118 0.960 . S
H1131 C1118 0.962 1_554 S
H1132 C1118 0.960 . S
H1133 C1119 0.961 1_554 S
H1134 C1119 0.961 1_554 S
H1135 C1119 0.961 . S
H1136 C1120 0.931 . S
H1137 C1125 0.930 . S
H1138 C1126 0.956 . S
H1139 C1126 0.961 . S
H1140 C1126 0.961 . S
H1141 C1127 0.958 . S
H1142 C1127 0.961 . S
H1143 C1127 0.960 . S
C377 C5 1.455 . S
C385 C197 1.479 . S
C409 C31 1.464 . S
C417 C119 1.444 . S
C449 C155 1.462 . S
C441 C53 1.478 . S
C473 C71 1.453 . S
C481 C161 1.477 . S
C513 C299 1.444 . S
C505 C75 1.461 . S
C545 C305 1.488 . S
C537 C9 1.488 . S
C577 C341 1.478 . S
C569 C27 1.461 . S
C609 C263 1.449 . S
C601 C49 1.459 . S
C633 C51 1.489 . S
C641 C125 1.476 . S
C665 C72 1.487 . S
C673 C191 1.484 . S
C697 C6 1.456 . S
C705 C227 1.468 . S
C737 C89 1.459 . S
C729 C29 1.453 . S
C761 C28 1.494 . S
C769 C371 1.485 . S
C801 C233 1.459 . S
C793 C50 1.455 . S
C833 C269 1.456 . S
C825 C73 1.458 . S
C857 C7 1.456 . S
C865 C335 1.468 . S
C897 C113 1.490 . S
C889 C4 1.505 1_556 S
C929 C149 1.477 . S
C921 C30 1.489 . S
C953 C52 1.494 . S
C961 C185 1.504 . S
C985 C70 1.487 . S
C993 C221 1.503 . S
C1025 C257 1.488 . S
C1017 C74 1.504 . S
C1049 C8 1.501 . S
C1057 C293 1.485 . S
C1081 C26 1.508 . S
C1089 C329 1.508 . S
C1113 C48 1.495 1_556 S
C1121 C365 1.504 . S
