# Generated by pormake.
# Topology anh, (6,3)-cn, num edge types: 1
# Building blocks:
#     Node 0, Type 0, BuildingBlock: NUHQIS_clean_sbu_0, # of connection points: 6
#     Node 1, Type 0, BuildingBlock: NUHQIS_clean_sbu_0, # of connection points: 6
#     Node 2, Type 0, BuildingBlock: NUHQIS_clean_sbu_0, # of connection points: 6
#     Node 3, Type 1, BuildingBlock: BELTOD_clean_linker_0, # of connection points: 3
#     Node 4, Type 1, BuildingBlock: BELTOD_clean_linker_0, # of connection points: 3
#     Node 5, Type 1, BuildingBlock: BELTOD_clean_linker_0, # of connection points: 3
#     Node 6, Type 1, BuildingBlock: BELTOD_clean_linker_0, # of connection points: 3
#     Node 7, Type 1, BuildingBlock: BELTOD_clean_linker_0, # of connection points: 3
#     Node 8, Type 1, BuildingBlock: BELTOD_clean_linker_0, # of connection points: 3
#     Edge 9, Type (0, 1), BuildingBlock: OJICUG_clean_linker_0, # of connection points: 2
#     Edge 10, Type (0, 1), BuildingBlock: OJICUG_clean_linker_0, # of connection points: 2
#     Edge 11, Type (0, 1), BuildingBlock: OJICUG_clean_linker_0, # of connection points: 2
#     Edge 12, Type (0, 1), BuildingBlock: OJICUG_clean_linker_0, # of connection points: 2
#     Edge 13, Type (0, 1), BuildingBlock: OJICUG_clean_linker_0, # of connection points: 2
#     Edge 14, Type (0, 1), BuildingBlock: OJICUG_clean_linker_0, # of connection points: 2
#     Edge 15, Type (0, 1), BuildingBlock: OJICUG_clean_linker_0, # of connection points: 2
#     Edge 16, Type (0, 1), BuildingBlock: OJICUG_clean_linker_0, # of connection points: 2
#     Edge 17, Type (0, 1), BuildingBlock: OJICUG_clean_linker_0, # of connection points: 2
#     Edge 18, Type (0, 1), BuildingBlock: OJICUG_clean_linker_0, # of connection points: 2
#     Edge 19, Type (0, 1), BuildingBlock: OJICUG_clean_linker_0, # of connection points: 2
#     Edge 20, Type (0, 1), BuildingBlock: OJICUG_clean_linker_0, # of connection points: 2
#     Edge 21, Type (0, 1), BuildingBlock: OJICUG_clean_linker_0, # of connection points: 2
#     Edge 22, Type (0, 1), BuildingBlock: OJICUG_clean_linker_0, # of connection points: 2
#     Edge 23, Type (0, 1), BuildingBlock: OJICUG_clean_linker_0, # of connection points: 2
#     Edge 24, Type (0, 1), BuildingBlock: OJICUG_clean_linker_0, # of connection points: 2
#     Edge 25, Type (0, 1), BuildingBlock: OJICUG_clean_linker_0, # of connection points: 2
#     Edge 26, Type (0, 1), BuildingBlock: OJICUG_clean_linker_0, # of connection points: 2
# Relax obj value: 0.325
# Max RMSD: 0.195
# Mean RMSD: 0.158
data_MOF--net-anh--node1-NUHQIS_clean_sbu_0--node2-BELTOD_clean_linker_0--edge1-OJICUG_clean_linker_0
_symmetry_space_group_name_H-M    P1
_symmetry_Int_Tables_number       1
_symmetry_cell_setting            triclinic
loop_
_symmetry_equiv_pos_as_xyz
'x, y, z'
_cell_length_a     25.747885
_cell_length_b     25.647549
_cell_length_c     47.145098
_cell_angle_alpha  87.791722
_cell_angle_beta   96.019405
_cell_angle_gamma 120.21364
loop_
_atom_site_label
_atom_site_type_symbol
_atom_site_fract_x
_atom_site_fract_y
_atom_site_fract_z
_atom_type_partial_charge
Tb0 Tb 0.16494 0.60481 0.17171 0.0
Eu1 Eu 1.10234 0.68821 0.16965 0.0
C2 C 0.16301 0.66488 0.22428 0.0
C3 C 1.02349 0.54258 0.17448 0.0
C4 C 0.25151 0.51969 0.17485 0.0
C5 C 0.29977 0.46041 0.18691 0.0
C6 C 0.26694 0.48639 0.19464 0.0
C7 C 0.27226 0.52999 0.14773 0.0
C8 C 0.30532 0.50412 0.13999 0.0
C9 C 0.31768 0.46754 0.15925 0.0
C10 C 0.20672 0.535 0.18174 0.0
O11 O 0.16579 0.62877 0.12704 0.0
O12 O 1.08738 0.64777 0.12538 0.0
O13 O 0.20026 0.75691 0.16519 0.0
O14 O 0.24428 0.69758 0.17409 0.0
C15 C 1.1233 0.63574 0.11248 0.0
O16 O 1.07524 0.74806 0.14716 0.0
O17 O 1.04974 0.7189 0.18977 0.0
O18 O 0.16275 0.71007 0.21084 0.0
O19 O 1.13344 0.61291 0.21102 0.0
O20 O 1.0676 0.54054 0.1637 0.0
O21 O 1.03081 0.59452 0.18272 0.0
C22 C 0.24854 0.75115 0.17026 0.0
O23 O 0.2255 0.58445 0.19638 0.0
O24 O 0.16435 0.52609 0.16154 0.0
C25 C 0.97228 0.70549 0.15431 0.0
C26 C 0.86594 0.60205 0.13254 0.0
C27 C 0.90443 0.64476 0.11387 0.0
C28 C 0.95695 0.69639 0.12466 0.0
C29 C 0.92884 0.66775 0.17262 0.0
C30 C 0.87637 0.61606 0.16183 0.0
C31 C 1.03682 0.73862 0.16558 0.0
H32 H 0.30958 0.43327 0.20229 0.0
H33 H 0.25106 0.478 0.21565 0.0
H34 H 0.26041 0.55542 0.13215 0.0
H35 H 0.31838 0.5101 0.11847 0.0
H36 H 0.89719 0.63568 0.09112 0.0
H37 H 0.98875 0.72518 0.10986 0.0
H38 H 0.93846 0.6742 0.19555 0.0
H39 H 0.84624 0.58487 0.17662 0.0
Tb40 Tb 0.77988 0.25895 0.50781 0.0
Eu41 Eu 0.6386 0.19983 0.51814 0.0
C42 C 0.74397 0.24516 0.56834 0.0
C43 C 0.70001 0.11671 0.5179 0.0
C44 C 0.94591 0.33976 0.49032 0.0
C45 C 1.05447 0.38279 0.49393 0.0
C46 C 1.0005 0.35509 0.50658 0.0
C47 C 0.94608 0.35537 0.46147 0.0
C48 C 1.00031 0.38358 0.44878 0.0
C49 C 1.05486 0.396 0.46471 0.0
C50 C 0.88995 0.29869 0.50291 0.0
O51 O 0.73614 0.26313 0.46669 0.0
O52 O 0.6447 0.17997 0.47223 0.0
O53 O 0.66652 0.29624 0.50763 0.0
O54 O 0.76926 0.33699 0.51754 0.0
C55 C 0.68496 0.21798 0.45557 0.0
O56 O 0.54391 0.16439 0.50202 0.0
O57 O 0.56832 0.16465 0.54728 0.0
O58 O 0.69573 0.2481 0.55897 0.0
O59 O 0.76927 0.22836 0.55104 0.0
O60 O 0.74399 0.16084 0.50492 0.0
O61 O 0.65881 0.1245 0.52812 0.0
C62 C 0.72083 0.34313 0.51339 0.0
O63 O 0.8713 0.31934 0.52196 0.0
O64 O 0.84575 0.25733 0.48626 0.0
C65 C 0.48536 1.07525 0.52658 0.0
C66 C 0.44364 0.95378 0.51383 0.0
C67 C 0.42094 0.98563 0.49704 0.0
C68 C 0.4417 1.04619 0.50341 0.0
C69 C 0.50099 1.04046 0.54558 0.0
C70 C 0.48053 0.98023 0.53911 0.0
C71 C 0.52483 0.14155 0.52662 0.0
H72 H 1.09537 0.39106 0.50678 0.0
H73 H 1.00098 0.34254 0.52879 0.0
H74 H 0.90421 0.34356 0.44854 0.0
H75 H 0.99929 0.39434 0.42637 0.0
H76 H 0.39255 0.96589 0.47734 0.0
H77 H 0.42865 1.07183 0.48854 0.0
H78 H 0.53398 1.06103 0.56386 0.0
H79 H 0.49829 0.95615 0.55235 0.0
Tb80 Tb 0.56744 0.62201 0.84444 0.0
Eu81 Eu 0.49611 0.49058 0.81252 0.0
C82 C 0.52615 0.50342 0.87884 0.0
C83 C 0.64279 0.55763 0.83231 0.0
C84 C 0.67879 0.7817 0.86219 0.0
C85 C 0.74603 0.85312 0.82944 0.0
C86 C 0.69653 0.79703 0.83453 0.0
C87 C 0.7137 0.82149 0.88497 0.0
C88 C 0.76394 0.87743 0.87996 0.0
C89 C 0.77957 0.8948 0.85198 0.0
C90 C 0.62239 0.72595 0.8671 0.0
O91 O 0.59491 0.63568 0.80103 0.0
O92 O 0.50883 0.55866 0.77862 0.0
O93 O 0.42361 0.50312 0.82987 0.0
O94 O 0.47595 0.60594 0.83245 0.0
C95 C 0.5601 0.60929 0.77749 0.0
O96 O 0.48294 0.42769 0.77884 0.0
O97 O 0.41999 0.3984 0.81104 0.0
O98 O 0.53022 0.47911 0.85605 0.0
O99 O 0.52583 0.5546 0.87739 0.0
O100 O 0.64012 0.60154 0.84444 0.0
O101 O 0.59489 0.5129 0.81801 0.0
C102 C 0.42487 0.55452 0.83287 0.0
O103 O 0.57919 0.70866 0.84634 0.0
O104 O 0.62769 0.68092 0.87758 0.0
C105 C 0.45655 0.3347 0.80002 0.0
C106 C 0.52456 0.27843 0.81542 0.0
C107 C 0.50135 0.27667 0.78689 0.0
C108 C 0.46777 0.30503 0.7792 0.0
C109 C 0.47365 0.32995 0.82893 0.0
C110 C 0.50774 0.30236 0.83655 0.0
C111 C 0.44133 0.38162 0.79155 0.0
H112 H 0.75575 0.86475 0.80755 0.0
H113 H 0.67064 0.76666 0.81661 0.0
H114 H 0.70111 0.81002 0.90652 0.0
H115 H 0.7894 0.90771 0.89792 0.0
H116 H 0.51427 0.25885 0.7702 0.0
H117 H 0.4554 0.30849 0.75681 0.0
H118 H 0.46547 0.35224 0.8455 0.0
H119 H 0.52511 0.30409 0.85866 0.0
P120 P 0.66524 0.13249 0.23876 0.0
H121 H 0.63374 1.03615 0.19719 0.0
H122 H 0.53803 0.94848 0.17913 0.0
H123 H 0.44132 1.01546 0.22095 0.0
H124 H 0.53754 0.10327 0.23889 0.0
H125 H 0.78315 0.17123 0.21829 0.0
H126 H 0.86147 0.26573 0.20125 0.0
H127 H 0.74386 0.34043 0.20012 0.0
H128 H 0.66468 0.24434 0.21794 0.0
H129 H 0.59699 1.05764 0.28461 0.0
H130 H 0.71455 0.24751 0.2716 0.0
O131 O 0.70165 1.09441 0.24647 0.0
H132 H 0.59707 1.07815 0.33475 0.0
H133 H 0.71235 0.26876 0.32103 0.0
C134 C 0.5935 1.07687 0.21953 0.0
C135 C 0.59199 1.03279 0.20205 0.0
C136 C 0.53688 0.98192 0.19198 0.0
C137 C 0.48122 0.9737 0.1988 0.0
C138 C 0.48282 1.01979 0.21504 0.0
C139 C 0.53813 1.0705 0.22532 0.0
C140 C 0.71729 0.19981 0.21972 0.0
C141 C 0.77315 0.20718 0.21404 0.0
C142 C 0.81851 0.26193 0.20406 0.0
C143 C 0.80997 0.31181 0.19931 0.0
C144 C 0.75292 0.30371 0.20386 0.0
C145 C 0.70707 0.24831 0.21375 0.0
C146 C 0.65478 0.1509 0.27386 0.0
C147 C 0.62123 0.10403 0.29224 0.0
C148 C 0.6213 0.11593 0.32108 0.0
C149 C 0.65511 0.17523 0.33237 0.0
C150 C 0.68666 0.22233 0.31351 0.0
C151 C 0.6871 0.21026 0.28479 0.0
P152 P 0.73493 0.73871 0.57928 0.0
H153 H 0.82883 0.71372 0.56481 0.0
H154 H 0.82728 0.62622 0.54642 0.0
H155 H 0.63209 0.53293 0.5352 0.0
H156 H 0.6347 0.62361 0.55171 0.0
H157 H 0.76929 0.81083 0.52713 0.0
H158 H 0.75627 0.8947 0.50926 0.0
H159 H 0.63734 0.86188 0.57446 0.0
H160 H 0.64683 0.77618 0.59028 0.0
H161 H 0.64558 0.6207 0.60313 0.0
H162 H 0.75213 0.80704 0.6307 0.0
O163 O 0.80816 0.78646 0.58843 0.0
H164 H 0.60438 0.59357 0.64898 0.0
H165 H 0.70965 0.78049 0.67648 0.0
C166 C 0.73177 0.67579 0.56024 0.0
C167 C 0.78544 0.67503 0.55798 0.0
C168 C 0.78444 0.62379 0.54774 0.0
C169 C 0.72954 0.57045 0.53985 0.0
C170 C 0.67568 0.57237 0.54086 0.0
C171 C 0.67691 0.6245 0.55054 0.0
C172 C 0.70917 0.78638 0.56013 0.0
C173 C 0.73857 0.82034 0.53684 0.0
C174 C 0.73203 0.8696 0.52704 0.0
C175 C 0.69672 0.88733 0.54061 0.0
C176 C 0.66467 0.85068 0.56293 0.0
C177 C 0.67041 0.80096 0.5723 0.0
C178 C 0.70249 0.71611 0.61321 0.0
C179 C 0.66005 0.65608 0.61882 0.0
C180 C 0.63599 0.64055 0.64524 0.0
C181 C 0.65344 0.68473 0.66668 0.0
C182 C 0.69569 0.74491 0.66084 0.0
C183 C 0.71991 0.76025 0.63451 0.0
P184 P 1.07071 0.60751 0.88909 0.0
H185 H 1.14075 0.64774 0.83955 0.0
H186 H 0.21928 0.63145 0.82425 0.0
H187 H 0.1807 0.49465 0.88799 0.0
H188 H 1.10121 0.51069 0.9029 0.0
H189 H 1.02636 0.67004 0.84905 0.0
H190 H 0.92646 0.65419 0.83333 0.0
H191 H 0.84548 0.48189 0.8748 0.0
H192 H 0.94707 0.49812 0.8906 0.0
H193 H 0.16754 0.62239 0.93209 0.0
H194 H 0.9825 0.57885 0.93162 0.0
O195 O 1.11076 0.68244 0.88636 0.0
H196 H 0.17901 0.62701 0.98395 0.0
H197 H 0.99264 0.58062 0.98353 0.0
C198 C 1.11501 0.58106 0.87267 0.0
C199 C 1.14802 0.61316 0.84987 0.0
C200 C 0.1938 0.6043 0.84134 0.0
C201 C 0.20799 0.56267 0.85524 0.0
C202 C 0.17165 0.52724 0.87671 0.0
C203 C 1.12578 0.53631 0.88528 0.0
C204 C 0.99512 0.58608 0.87176 0.0
C205 C 0.98751 0.62831 0.85462 0.0
C206 C 0.9298 0.61934 0.8457 0.0
C207 C 0.87726 0.56747 0.85336 0.0
C208 C 0.88462 0.52266 0.86859 0.0
C209 C 0.94291 0.53186 0.87765 0.0
C210 C 1.07336 0.5976 0.92757 0.0
C211 C 1.12848 0.61137 0.9431 0.0
C212 C 1.13507 0.61422 0.97299 0.0
C213 C 1.08674 0.60393 0.98834 0.0
C214 C 1.03123 0.58941 0.97269 0.0
C215 C 1.0249 0.58708 0.94273 0.0
P216 P 0.44727 0.65026 0.37927 0.0
H217 H 0.53176 0.71475 0.4297 0.0
H218 H 0.5278 0.77591 0.46716 0.0
H219 H 0.35853 0.75022 0.42525 0.0
H220 H 0.36143 0.68712 0.38927 0.0
H221 H 0.42704 0.56209 0.42373 0.0
H222 H 0.3335 0.48899 0.44378 0.0
H223 H 0.2297 0.51434 0.37225 0.0
H224 H 0.32165 0.58778 0.35303 0.0
H225 H 0.4529 0.76305 0.35801 0.0
H226 H 0.41702 0.5941 0.32276 0.0
O227 O 0.50961 0.64499 0.38283 0.0
H228 H 0.3922 0.77399 0.31771 0.0
H229 H 0.35869 0.60643 0.28143 0.0
C230 C 0.44795 0.69822 0.40626 0.0
C231 C 0.49404 0.72259 0.42867 0.0
C232 C 0.49154 0.75738 0.45007 0.0
C233 C 0.44293 0.76836 0.44921 0.0
C234 C 0.39615 0.74215 0.42702 0.0
C235 C 0.39833 0.70688 0.40604 0.0
C236 C 0.3819 0.57955 0.38645 0.0
C237 C 0.38412 0.54966 0.41168 0.0
C238 C 0.33075 0.50845 0.42327 0.0
C239 C 0.27453 0.4963 0.40955 0.0
C240 C 0.27234 0.52211 0.38303 0.0
C241 C 0.32549 0.56399 0.3718 0.0
C242 C 0.43582 0.67561 0.34422 0.0
C243 C 0.43364 0.72915 0.34116 0.0
C244 C 0.39935 0.73582 0.31787 0.0
C245 C 0.36832 0.68956 0.29717 0.0
C246 C 0.38034 0.64168 0.29772 0.0
C247 C 0.41435 0.63495 0.32113 0.0
P248 P 0.91732 0.30856 0.77925 0.0
H249 H 0.89264 0.34749 0.83183 0.0
H250 H 0.79815 0.32668 0.84962 0.0
H251 H 0.69829 0.21195 0.77548 0.0
H252 H 0.79166 0.22944 0.75947 0.0
H253 H 0.98024 0.28539 0.82874 0.0
H254 H 0.96788 0.19056 0.84879 0.0
H255 H 0.85508 1.09488 0.77279 0.0
H256 H 0.86495 0.18827 0.75358 0.0
H257 H 0.86079 0.36847 0.74621 0.0
H258 H 0.94846 0.26926 0.72869 0.0
O259 O 0.97593 0.37221 0.79345 0.0
H260 H 0.82353 0.36133 0.69591 0.0
H261 H 0.90931 0.2595 0.67867 0.0
C262 C 0.849 0.29184 0.79382 0.0
C263 C 0.85012 0.31745 0.81971 0.0
C264 C 0.79597 0.3055 0.82977 0.0
C265 C 0.74005 0.26821 0.81386 0.0
C266 C 0.73974 0.24016 0.78872 0.0
C267 C 0.79353 0.25111 0.77913 0.0
C268 C 0.92553 0.24452 0.78913 0.0
C269 C 0.95497 0.24441 0.8159 0.0
C270 C 0.94771 0.1903 0.82741 0.0
C271 C 0.91128 0.13573 0.81213 0.0
C272 C 0.88475 0.13655 0.78467 0.0
C273 C 0.89084 0.19025 0.77353 0.0
C274 C 0.90501 0.31692 0.74137 0.0
C275 C 0.87242 0.34549 0.73147 0.0
C276 C 0.85055 0.34083 0.70274 0.0
C277 C 0.86173 0.30824 0.68334 0.0
C278 C 0.89935 0.28463 0.69297 0.0
C279 C 0.92148 0.2897 0.7217 0.0
P280 P 0.49405 0.25156 0.06022 0.0
H281 H 0.55962 0.2519 0.11514 0.0
H282 H 0.66133 0.32953 0.13258 0.0
H283 H 0.70358 0.37749 0.04568 0.0
H284 H 0.60115 0.30128 0.02853 0.0
H285 H 0.37167 0.2076 0.07561 0.0
H286 H 0.33023 0.25583 0.10255 0.0
H287 H 0.51112 0.40011 0.12807 0.0
H288 H 0.55164 0.35407 0.1005 0.0
H289 H 0.43677 0.21573 0.00125 0.0
H290 H 0.5467 0.38033 0.0507 0.0
O291 O 0.45274 0.17718 0.05441 0.0
H292 H 0.43881 0.27541 0.95896 0.0
H293 H 0.5483 0.43955 0.00899 0.0
C294 C 0.57191 0.27449 0.07076 0.0
C295 C 0.59163 0.27721 0.09981 0.0
C296 C 0.65001 0.32188 0.10977 0.0
C297 C 0.68908 0.36211 0.09046 0.0
C298 C 0.67316 0.34918 0.06108 0.0
C299 C 0.61462 0.30527 0.05124 0.0
C300 C 0.46484 0.27596 0.08664 0.0
C301 C 0.40236 0.2485 0.08782 0.0
C302 C 0.37878 0.27615 0.10316 0.0
C303 C 0.41759 0.33195 0.1172 0.0
C304 C 0.48015 0.35742 0.11724 0.0
C305 C 0.50345 0.33015 0.10185 0.0
C306 C 0.49111 0.29348 0.02916 0.0
C307 C 0.46062 0.26447 0.00312 0.0
C308 C 0.46189 0.29861 0.97904 0.0
C309 C 0.49349 0.36215 0.98079 0.0
C310 C 0.52267 0.39077 0.00711 0.0
C311 C 0.52177 0.35676 0.03099 0.0
C312 C 0.3946 0.4616 0.1335 0.0
C313 C 0.34537 0.43358 0.14987 0.0
H314 H 0.45562 0.45114 0.11019 0.0
C315 C 0.32076 0.37199 0.15613 0.0
H316 H 0.4145 0.509 0.12844 0.0
C317 C 0.34444 0.33881 0.14581 0.0
C318 C 0.39339 0.3668 0.12924 0.0
H319 H 0.28219 0.34907 0.16841 0.0
H320 H 0.32445 0.29133 0.15071 0.0
C321 C 0.41841 0.42857 0.12331 0.0
C322 C 0.16718 0.46231 0.4652 0.0
C323 C 1.11155 0.42004 0.45082 0.0
H324 H 0.26239 0.51871 0.46347 0.0
C325 C 1.11071 0.39978 0.42337 0.0
H326 H 0.16943 0.47947 0.48619 0.0
C327 C 0.16408 0.42252 0.41032 0.0
C328 C 0.21938 0.46542 0.42459 0.0
H329 H 1.06883 0.36624 0.41196 0.0
H330 H 0.1621 0.4072 0.38893 0.0
C331 C 0.22053 0.48453 0.45227 0.0
C332 C 0.85922 0.97074 0.8221 0.0
C333 C 0.82545 0.958 0.84566 0.0
H334 H 0.91345 1.03775 0.79291 0.0
C335 C 0.82988 1.00652 0.86084 0.0
H336 H 0.85835 0.93482 0.81035 0.0
C337 C 0.86294 1.0655 0.8513 0.0
C338 C 0.89156 1.07713 0.82619 0.0
H339 H 0.80419 0.99883 0.87886 0.0
H340 H 0.86184 1.10128 0.86223 0.0
C341 C 0.89134 1.02967 0.81225 0.0
C342 C 0.81434 0.48969 0.13694 0.0
C343 C 0.82012 0.54056 0.12192 0.0
H344 H 0.7701 0.39321 0.13842 0.0
C345 C 0.78489 0.53208 0.09591 0.0
H346 H 0.84179 0.49495 0.15677 0.0
C347 C 0.7442 0.47403 0.08532 0.0
C348 C 0.73806 0.42299 0.10037 0.0
H349 H 0.78806 0.57034 0.08395 0.0
H350 H 0.71602 0.46926 0.06573 0.0
C351 C 0.77376 0.43147 0.1263 0.0
C352 C 0.38831 0.84826 0.49374 0.0
C353 C 0.44255 0.90155 0.50133 0.0
H354 H 0.34604 0.76232 0.47245 0.0
C355 C 0.49699 0.9084 0.49399 0.0
H356 H 0.34583 0.84244 0.4991 0.0
C357 C 0.49738 0.86371 0.47839 0.0
C358 C 0.44307 0.81097 0.46972 0.0
H359 H 0.53899 0.95013 0.49879 0.0
H360 H 0.53996 0.87237 0.4717 0.0
C361 C 0.38863 0.80288 0.47834 0.0
C362 C 0.57353 0.21596 0.81254 0.0
C363 C 0.57621 0.26856 0.82179 0.0
H364 H 0.62306 0.17256 0.8048 0.0
C365 C 0.63175 0.31673 0.83313 0.0
H366 H 0.53097 0.1781 0.80396 0.0
C367 C 0.68476 0.31486 0.83255 0.0
C368 C 0.68318 0.26418 0.8211 0.0
H369 H 0.63492 0.35799 0.84025 0.0
H370 H 0.72711 0.35514 0.83904 0.0
C371 C 0.62646 0.21332 0.81274 0.0
C372 C 0.64853 1.00775 0.53342 0.0
C373 C 0.69796 1.05724 0.52209 0.0
H374 H 0.60704 0.91579 0.54633 0.0
C375 C 0.74611 1.04968 0.51589 0.0
H376 H 0.61063 1.01159 0.53864 0.0
C377 C 0.74536 0.99489 0.52141 0.0
C378 C 0.69587 0.94507 0.53287 0.0
H379 H 0.78539 1.08671 0.50742 0.0
H380 H 0.78476 0.99264 0.51736 0.0
C381 C 0.64698 0.95252 0.53825 0.0
C382 C 0.75542 0.61247 0.84572 0.0
C383 C 0.70232 0.55892 0.83621 0.0
H384 H 0.85032 0.65686 0.85862 0.0
C385 C 0.7072 0.50738 0.83205 0.0
H386 H 0.75409 0.65323 0.8493 0.0
C387 C 0.76334 0.50941 0.8377 0.0
C388 C 0.81639 0.56333 0.84716 0.0
H389 H 0.66748 0.46521 0.82489 0.0
H390 H 0.7653 0.46894 0.83438 0.0
C391 C 0.81117 0.61468 0.85097 0.0
C392 C 0.31386 0.8653 0.17391 0.0
C393 C 0.3093 0.80804 0.17513 0.0
H394 H 0.37014 0.96122 0.18004 0.0
C395 C 0.36259 0.80621 0.18337 0.0
H396 H 0.27425 0.86922 0.16782 0.0
C397 C 0.4181 0.85957 0.19047 0.0
C398 C 0.42229 0.91671 0.18983 0.0
H399 H 0.36131 0.76335 0.18497 0.0
H400 H 0.45751 0.85575 0.19731 0.0
C401 C 0.36914 0.91848 0.1812 0.0
C402 C 0.67941 0.41449 0.50706 0.0
C403 C 0.72593 0.40333 0.51804 0.0
H404 H 0.64458 0.475 0.50411 0.0
C405 C 0.77454 0.44838 0.53545 0.0
H406 H 0.64116 0.38108 0.49351 0.0
C407 C 0.77573 0.50199 0.54233 0.0
C408 C 0.7289 0.5133 0.5316 0.0
H409 H 0.81075 0.44128 0.54473 0.0
H410 H 0.81292 0.53367 0.55687 0.0
C411 C 0.68111 0.46858 0.51348 0.0
C412 C 0.36811 0.61027 0.8375 0.0
C413 C 0.36814 0.55534 0.83739 0.0
H414 H 0.31922 0.65574 0.84322 0.0
C415 C 0.31419 0.5022 0.84272 0.0
H416 H 0.40848 0.65232 0.83365 0.0
C417 C 0.26236 0.50418 0.84834 0.0
C418 C 0.26251 0.5593 0.84851 0.0
H419 H 0.31216 0.45898 0.84295 0.0
H420 H 0.22198 0.46234 0.85239 0.0
C421 C 0.31636 0.61218 0.84285 0.0
C422 C 0.95461 0.42965 0.16717 0.0
C423 C 0.96607 0.48451 0.17898 0.0
H424 H 0.89679 0.3337 0.16336 0.0
C425 C 0.92347 0.48239 0.19622 0.0
H426 H 0.98579 0.42902 0.15364 0.0
C427 C 0.87206 0.42708 0.20204 0.0
C428 C 0.86153 0.37193 0.19088 0.0
H429 H 0.93042 0.52342 0.20578 0.0
H430 H 0.84163 0.4275 0.2161 0.0
C431 C 0.90333 0.37455 0.17292 0.0
C432 C 1.14345 0.60391 0.06678 0.0
C433 C 1.11392 0.62752 0.08079 0.0
H434 H 0.1569 0.57622 0.02724 0.0
C435 C 1.07464 0.6424 0.06419 0.0
H436 H 0.17359 0.59134 0.07881 0.0
C437 C 1.06561 0.63448 0.03443 0.0
C438 C 1.09514 0.61087 0.02031 0.0
H439 H 1.05118 0.66086 0.07415 0.0
H440 H 1.03624 0.64807 0.02248 0.0
C441 C 1.13401 0.59546 0.03705 0.0
C442 C 0.72263 0.24347 0.40703 0.0
C443 C 0.67522 0.20828 0.42395 0.0
H444 H 0.75427 0.26004 0.36573 0.0
C445 C 0.62011 0.16296 0.41038 0.0
H446 H 0.766 0.27847 0.41661 0.0
C447 C 0.61295 0.15286 0.38073 0.0
C448 C 0.66084 0.18755 0.36384 0.0
H449 H 0.58253 0.13502 0.42267 0.0
H450 H 0.56974 0.11782 0.37108 0.0
C451 C 0.71568 0.23311 0.37757 0.0
C452 C 0.64206 0.67914 0.74707 0.0
C453 C 0.58232 0.63241 0.74914 0.0
H454 H 0.71164 0.7313 0.71985 0.0
C455 C 0.54542 0.60489 0.7238 0.0
H456 H 0.67199 0.70118 0.76609 0.0
C457 C 0.56805 0.62252 0.69717 0.0
C458 C 0.62837 0.66801 0.69507 0.0
H459 H 0.4991 0.56892 0.72449 0.0
H460 H 0.53811 0.60025 0.67819 0.0
C461 C 0.6648 0.69657 0.72043 0.0
C462 C 0.8341 0.27869 0.60359 0.0
C463 C 0.77347 0.26392 0.59767 0.0
H464 H 0.90989 0.30631 0.63471 0.0
C465 C 0.74284 0.26729 0.6198 0.0
H466 H 0.85952 0.27779 0.58688 0.0
C467 C 0.77181 0.28296 0.64758 0.0
C468 C 0.83215 0.29628 0.65358 0.0
H469 H 0.6962 0.25634 0.61583 0.0
H470 H 0.74631 0.28285 0.66446 0.0
C471 C 0.86312 0.29499 0.63109 0.0
C472 C 0.50396 0.48572 0.9303 0.0
C473 C 0.51924 0.46968 0.90565 0.0
H474 H 0.48289 0.4635 0.97359 0.0
C475 C 0.52593 0.41842 0.90612 0.0
H476 H 0.49842 0.52485 0.93058 0.0
C477 C 0.51638 0.38327 0.93031 0.0
C478 C 0.50054 0.39868 0.95487 0.0
H479 H 0.53875 0.40515 0.88773 0.0
H480 H 0.52261 0.34456 0.92995 0.0
C481 C 0.49489 0.45055 0.95481 0.0
C482 C 0.26706 0.73087 0.24877 0.0
C483 C 0.2132 0.67479 0.24573 0.0
H484 H 0.35952 0.7794 0.26679 0.0
C485 C 0.21066 0.62487 0.2602 0.0
H486 H 0.27053 0.77002 0.23759 0.0
C487 C 0.26136 0.63003 0.27646 0.0
C488 C 0.31603 0.6853 0.2787 0.0
H489 H 0.16975 0.58113 0.25829 0.0
H490 H 0.25754 0.59055 0.28746 0.0
C491 C 0.31815 0.73609 0.26517 0.0
loop_
_geom_bond_atom_site_label_1
_geom_bond_atom_site_label_2
_geom_bond_distance
_geom_bond_site_symmetry_2
_ccdc_geom_bond_type
Tb0 C10 2.825 . S
Tb0 O11 2.347 . S
Tb0 O14 2.366 . S
Tb0 O19 2.418 . S
Tb0 O20 2.384 1_455 S
Tb0 O23 2.479 . S
Tb0 O24 2.471 . S
Eu1 O12 2.418 . S
Eu1 O13 2.384 1_655 S
Eu1 O16 2.479 . S
Eu1 O17 2.471 . S
Eu1 O18 2.347 1_655 S
Eu1 O21 2.366 . S
Eu1 C31 2.825 . S
C2 O18 1.259 . S
C2 O19 1.265 . S
C3 O20 1.255 . S
C3 O21 1.265 . S
C4 C6 1.380 . S
C4 C7 1.374 . S
C4 C10 1.507 . S
C5 C6 1.384 . S
C5 C9 1.387 . S
C5 H32 0.930 . S
C6 C4 1.380 . S
C6 C5 1.384 . S
C6 H33 0.931 . S
C7 C4 1.374 . S
C7 C8 1.390 . S
C7 H34 0.930 . S
C8 C7 1.390 . S
C8 C9 1.391 . S
C8 H35 0.930 . S
C9 C5 1.387 . S
C9 C8 1.391 . S
C10 Tb0 2.825 . S
C10 C4 1.507 . S
C10 O23 1.238 . S
C10 O24 1.247 . S
O11 Tb0 2.347 . S
O11 C15 1.259 . S
O12 Eu1 2.418 . S
O12 C15 1.265 1_655 S
O13 Eu1 2.384 1_455 S
O13 C22 1.255 . S
O14 Tb0 2.366 . S
O14 C22 1.265 . S
C15 O11 1.259 . S
C15 O12 1.265 1_455 S
O16 Eu1 2.479 . S
O16 C31 1.238 . S
O17 Eu1 2.471 . S
O17 C31 1.247 . S
O18 Eu1 2.347 1_455 S
O18 C2 1.259 . S
O19 Tb0 2.418 . S
O19 C2 1.265 . S
O20 Tb0 2.384 1_655 S
O20 C3 1.255 . S
O21 Eu1 2.366 . S
O21 C3 1.265 . S
C22 O13 1.255 . S
C22 O14 1.265 . S
O23 Tb0 2.479 . S
O23 C10 1.238 . S
O24 Tb0 2.471 . S
O24 C10 1.247 . S
C25 C28 1.380 . S
C25 C29 1.374 . S
C25 C31 1.507 . S
C26 C27 1.387 . S
C26 C30 1.391 . S
C27 C26 1.387 . S
C27 C28 1.384 . S
C27 H36 0.930 . S
C28 C25 1.380 . S
C28 C27 1.384 . S
C28 H37 0.931 . S
C29 C25 1.374 . S
C29 C30 1.390 . S
C29 H38 0.930 . S
C30 C26 1.391 . S
C30 C29 1.390 . S
C30 H39 0.930 . S
C31 Eu1 2.825 . S
C31 O16 1.238 . S
C31 O17 1.247 . S
C31 C25 1.507 . S
H32 C5 0.930 . S
H33 C6 0.931 . S
H34 C7 0.930 . S
H35 C8 0.930 . S
H36 C27 0.930 . S
H37 C28 0.931 . S
H38 C29 0.930 . S
H39 C30 0.930 . S
Tb40 C50 2.825 . S
Tb40 O51 2.347 . S
Tb40 O54 2.366 . S
Tb40 O59 2.418 . S
Tb40 O60 2.384 1_545 S
Tb40 O63 2.479 . S
Tb40 O64 2.471 . S
Eu41 O52 2.418 . S
Eu41 O53 2.384 . S
Eu41 O56 2.479 1_545 S
Eu41 O57 2.471 1_545 S
Eu41 O58 2.347 . S
Eu41 O61 2.366 1_545 S
Eu41 C71 2.825 1_545 S
C42 O58 1.259 . S
C42 O59 1.265 . S
C43 O60 1.255 . S
C43 O61 1.265 . S
C44 C46 1.380 . S
C44 C47 1.374 . S
C44 C50 1.507 . S
C45 C46 1.384 . S
C45 C49 1.387 . S
C45 H72 0.930 . S
C46 C44 1.380 . S
C46 C45 1.384 . S
C46 H73 0.931 . S
C47 C44 1.374 . S
C47 C48 1.390 . S
C47 H74 0.930 . S
C48 C47 1.390 . S
C48 C49 1.391 . S
C48 H75 0.930 . S
C49 C45 1.387 . S
C49 C48 1.391 . S
C50 Tb40 2.825 . S
C50 C44 1.507 . S
C50 O63 1.238 . S
C50 O64 1.247 . S
O51 Tb40 2.347 . S
O51 C55 1.259 . S
O52 Eu41 2.418 . S
O52 C55 1.265 . S
O53 Eu41 2.384 . S
O53 C62 1.255 . S
O54 Tb40 2.366 . S
O54 C62 1.265 . S
C55 O51 1.259 . S
C55 O52 1.265 . S
O56 Eu41 2.479 1_565 S
O56 C71 1.238 . S
O57 Eu41 2.471 1_565 S
O57 C71 1.247 . S
O58 Eu41 2.347 . S
O58 C42 1.259 . S
O59 Tb40 2.418 . S
O59 C42 1.265 . S
O60 Tb40 2.384 1_565 S
O60 C43 1.255 . S
O61 Eu41 2.366 1_565 S
O61 C43 1.265 . S
C62 O53 1.255 . S
C62 O54 1.265 . S
O63 Tb40 2.479 . S
O63 C50 1.238 . S
O64 Tb40 2.471 . S
O64 C50 1.247 . S
C65 C68 1.380 . S
C65 C69 1.374 . S
C65 C71 1.507 . S
C66 C67 1.387 . S
C66 C70 1.391 . S
C67 C66 1.387 . S
C67 C68 1.384 . S
C67 H76 0.930 . S
C68 C65 1.380 . S
C68 C67 1.384 . S
C68 H77 0.931 . S
C69 C65 1.374 . S
C69 C70 1.390 . S
C69 H78 0.930 . S
C70 C66 1.391 . S
C70 C69 1.390 . S
C70 H79 0.930 . S
C71 Eu41 2.825 1_565 S
C71 O56 1.238 . S
C71 O57 1.247 . S
C71 C65 1.507 . S
H72 C45 0.930 . S
H73 C46 0.931 . S
H74 C47 0.930 . S
H75 C48 0.930 . S
H76 C67 0.930 . S
H77 C68 0.931 . S
H78 C69 0.930 . S
H79 C70 0.930 . S
Tb80 C90 2.825 . S
Tb80 O91 2.347 . S
Tb80 O94 2.366 . S
Tb80 O99 2.418 . S
Tb80 O100 2.384 . S
Tb80 O103 2.479 . S
Tb80 O104 2.471 . S
Eu81 O92 2.418 . S
Eu81 O93 2.384 . S
Eu81 O96 2.479 . S
Eu81 O97 2.471 . S
Eu81 O98 2.347 . S
Eu81 O101 2.366 . S
Eu81 C111 2.825 . S
C82 O98 1.259 . S
C82 O99 1.265 . S
C83 O100 1.255 . S
C83 O101 1.265 . S
C84 C86 1.380 . S
C84 C87 1.374 . S
C84 C90 1.507 . S
C85 C86 1.384 . S
C85 C89 1.387 . S
C85 H112 0.930 . S
C86 C84 1.380 . S
C86 C85 1.384 . S
C86 H113 0.931 . S
C87 C84 1.374 . S
C87 C88 1.390 . S
C87 H114 0.930 . S
C88 C87 1.390 . S
C88 C89 1.391 . S
C88 H115 0.930 . S
C89 C85 1.387 . S
C89 C88 1.391 . S
C90 Tb80 2.825 . S
C90 C84 1.507 . S
C90 O103 1.238 . S
C90 O104 1.247 . S
O91 Tb80 2.347 . S
O91 C95 1.259 . S
O92 Eu81 2.418 . S
O92 C95 1.265 . S
O93 Eu81 2.384 . S
O93 C102 1.255 . S
O94 Tb80 2.366 . S
O94 C102 1.265 . S
C95 O91 1.259 . S
C95 O92 1.265 . S
O96 Eu81 2.479 . S
O96 C111 1.238 . S
O97 Eu81 2.471 . S
O97 C111 1.247 . S
O98 Eu81 2.347 . S
O98 C82 1.259 . S
O99 Tb80 2.418 . S
O99 C82 1.265 . S
O100 Tb80 2.384 . S
O100 C83 1.255 . S
O101 Eu81 2.366 . S
O101 C83 1.265 . S
C102 O93 1.255 . S
C102 O94 1.265 . S
O103 Tb80 2.479 . S
O103 C90 1.238 . S
O104 Tb80 2.471 . S
O104 C90 1.247 . S
C105 C108 1.380 . S
C105 C109 1.374 . S
C105 C111 1.507 . S
C106 C107 1.387 . S
C106 C110 1.391 . S
C107 C106 1.387 . S
C107 C108 1.384 . S
C107 H116 0.930 . S
C108 C105 1.380 . S
C108 C107 1.384 . S
C108 H117 0.931 . S
C109 C105 1.374 . S
C109 C110 1.390 . S
C109 H118 0.930 . S
C110 C106 1.391 . S
C110 C109 1.390 . S
C110 H119 0.930 . S
C111 Eu81 2.825 . S
C111 O96 1.238 . S
C111 O97 1.247 . S
C111 C105 1.507 . S
H112 C85 0.930 . S
H113 C86 0.931 . S
H114 C87 0.930 . S
H115 C88 0.930 . S
H116 C107 0.930 . S
H117 C108 0.931 . S
H118 C109 0.930 . S
H119 C110 0.930 . S
P120 O131 1.490 . S
P120 C134 1.812 . S
P120 C140 1.803 1_565 S
P120 C146 1.819 1_565 S
H121 C135 0.941 . S
H122 C136 0.939 . S
H123 C138 0.940 . S
H124 C139 0.940 . S
H125 C141 0.939 . S
H126 C142 0.942 . S
H127 C144 0.940 . S
H128 C145 0.939 . S
H129 C147 0.941 . S
H130 C151 0.939 . S
O131 P120 1.490 . S
H132 C148 0.939 . S
H133 C150 0.940 . S
C134 P120 1.812 . S
C134 C135 1.389 . S
C134 C139 1.391 . S
C135 H121 0.941 . S
C135 C134 1.389 . S
C135 C136 1.397 . S
C136 H122 0.939 . S
C136 C135 1.397 . S
C136 C137 1.378 . S
C137 C136 1.378 . S
C137 C138 1.378 . S
C138 H123 0.940 . S
C138 C137 1.378 . S
C138 C139 1.396 . S
C139 H124 0.940 . S
C139 C134 1.391 . S
C139 C138 1.396 . S
C140 P120 1.803 1_545 S
C140 C141 1.378 . S
C140 C145 1.400 . S
C141 H125 0.939 . S
C141 C140 1.378 . S
C141 C142 1.361 . S
C142 H126 0.942 . S
C142 C141 1.361 . S
C142 C143 1.369 . S
C143 C142 1.369 . S
C143 C144 1.404 . S
C144 H127 0.940 . S
C144 C143 1.404 . S
C144 C145 1.389 . S
C145 H128 0.939 . S
C145 C140 1.400 . S
C145 C144 1.389 . S
C146 P120 1.819 1_545 S
C146 C147 1.391 1_545 S
C146 C151 1.391 . S
C147 H129 0.941 . S
C147 C146 1.391 1_565 S
C147 C148 1.396 . S
C148 H132 0.939 . S
C148 C147 1.396 . S
C148 C149 1.397 1_565 S
C149 C148 1.397 1_545 S
C149 C150 1.385 . S
C150 H133 0.940 . S
C150 C149 1.385 . S
C150 C151 1.388 . S
C151 H130 0.939 . S
C151 C146 1.391 . S
C151 C150 1.388 . S
P152 O163 1.490 . S
P152 C166 1.812 . S
P152 C172 1.803 . S
P152 C178 1.819 . S
H153 C167 0.941 . S
H154 C168 0.939 . S
H155 C170 0.940 . S
H156 C171 0.940 . S
H157 C173 0.939 . S
H158 C174 0.942 . S
H159 C176 0.940 . S
H160 C177 0.939 . S
H161 C179 0.941 . S
H162 C183 0.939 . S
O163 P152 1.490 . S
H164 C180 0.939 . S
H165 C182 0.940 . S
C166 P152 1.812 . S
C166 C167 1.389 . S
C166 C171 1.391 . S
C167 H153 0.941 . S
C167 C166 1.389 . S
C167 C168 1.397 . S
C168 H154 0.939 . S
C168 C167 1.397 . S
C168 C169 1.378 . S
C169 C168 1.378 . S
C169 C170 1.378 . S
C170 H155 0.940 . S
C170 C169 1.378 . S
C170 C171 1.396 . S
C171 H156 0.940 . S
C171 C166 1.391 . S
C171 C170 1.396 . S
C172 P152 1.803 . S
C172 C173 1.378 . S
C172 C177 1.400 . S
C173 H157 0.939 . S
C173 C172 1.378 . S
C173 C174 1.361 . S
C174 H158 0.942 . S
C174 C173 1.361 . S
C174 C175 1.369 . S
C175 C174 1.369 . S
C175 C176 1.404 . S
C176 H159 0.940 . S
C176 C175 1.404 . S
C176 C177 1.389 . S
C177 H160 0.939 . S
C177 C172 1.400 . S
C177 C176 1.389 . S
C178 P152 1.819 . S
C178 C179 1.391 . S
C178 C183 1.391 . S
C179 H161 0.941 . S
C179 C178 1.391 . S
C179 C180 1.396 . S
C180 H164 0.939 . S
C180 C179 1.396 . S
C180 C181 1.397 . S
C181 C180 1.397 . S
C181 C182 1.385 . S
C182 H165 0.940 . S
C182 C181 1.385 . S
C182 C183 1.388 . S
C183 H162 0.939 . S
C183 C178 1.391 . S
C183 C182 1.388 . S
P184 O195 1.490 . S
P184 C198 1.812 . S
P184 C204 1.803 1_455 S
P184 C210 1.819 . S
H185 C199 0.941 . S
H186 C200 0.939 . S
H187 C202 0.940 . S
H188 C203 0.940 . S
H189 C205 0.939 . S
H190 C206 0.942 . S
H191 C208 0.940 . S
H192 C209 0.939 . S
H193 C211 0.941 . S
H194 C215 0.939 . S
O195 P184 1.490 . S
H196 C212 0.939 . S
H197 C214 0.940 . S
C198 P184 1.812 . S
C198 C199 1.389 . S
C198 C203 1.391 . S
C199 H185 0.941 . S
C199 C198 1.389 . S
C199 C200 1.397 . S
C200 H186 0.939 . S
C200 C199 1.397 . S
C200 C201 1.378 . S
C201 C200 1.378 . S
C201 C202 1.378 . S
C202 H187 0.940 . S
C202 C201 1.378 . S
C202 C203 1.396 . S
C203 H188 0.940 . S
C203 C198 1.391 . S
C203 C202 1.396 . S
C204 P184 1.803 1_655 S
C204 C205 1.378 . S
C204 C209 1.400 . S
C205 H189 0.939 . S
C205 C204 1.378 . S
C205 C206 1.361 . S
C206 H190 0.942 . S
C206 C205 1.361 . S
C206 C207 1.369 . S
C207 C206 1.369 . S
C207 C208 1.404 . S
C208 H191 0.940 . S
C208 C207 1.404 . S
C208 C209 1.389 . S
C209 H192 0.939 . S
C209 C204 1.400 . S
C209 C208 1.389 . S
C210 P184 1.819 . S
C210 C211 1.391 . S
C210 C215 1.391 1_455 S
C211 H193 0.941 . S
C211 C210 1.391 . S
C211 C212 1.396 . S
C212 H196 0.939 . S
C212 C211 1.396 . S
C212 C213 1.397 . S
C213 C212 1.397 . S
C213 C214 1.385 1_455 S
C214 H197 0.940 . S
C214 C213 1.385 1_655 S
C214 C215 1.388 . S
C215 H194 0.939 . S
C215 C210 1.391 1_655 S
C215 C214 1.388 . S
P216 O227 1.490 . S
P216 C230 1.812 . S
P216 C236 1.803 1_455 S
P216 C242 1.819 . S
H217 C231 0.941 . S
H218 C232 0.939 . S
H219 C234 0.940 . S
H220 C235 0.940 . S
H221 C237 0.939 . S
H222 C238 0.942 . S
H223 C240 0.940 . S
H224 C241 0.939 . S
H225 C243 0.941 . S
H226 C247 0.939 . S
O227 P216 1.490 . S
H228 C244 0.939 . S
H229 C246 0.940 . S
C230 P216 1.812 . S
C230 C231 1.389 . S
C230 C235 1.391 . S
C231 H217 0.941 . S
C231 C230 1.389 . S
C231 C232 1.397 . S
C232 H218 0.939 . S
C232 C231 1.397 . S
C232 C233 1.378 . S
C233 C232 1.378 . S
C233 C234 1.378 . S
C234 H219 0.940 . S
C234 C233 1.378 . S
C234 C235 1.396 . S
C235 H220 0.940 . S
C235 C230 1.391 . S
C235 C234 1.396 . S
C236 P216 1.803 1_655 S
C236 C237 1.378 . S
C236 C241 1.400 . S
C237 H221 0.939 . S
C237 C236 1.378 . S
C237 C238 1.361 . S
C238 H222 0.942 . S
C238 C237 1.361 . S
C238 C239 1.369 . S
C239 C238 1.369 . S
C239 C240 1.404 . S
C240 H223 0.940 . S
C240 C239 1.404 . S
C240 C241 1.389 . S
C241 H224 0.939 . S
C241 C236 1.400 . S
C241 C240 1.389 . S
C242 P216 1.819 . S
C242 C243 1.391 . S
C242 C247 1.391 1_455 S
C243 H225 0.941 . S
C243 C242 1.391 . S
C243 C244 1.396 . S
C244 H228 0.939 . S
C244 C243 1.396 . S
C244 C245 1.397 . S
C245 C244 1.397 . S
C245 C246 1.385 1_455 S
C246 H229 0.940 . S
C246 C245 1.385 1_655 S
C246 C247 1.388 . S
C247 H226 0.939 . S
C247 C242 1.391 1_655 S
C247 C246 1.388 . S
P248 O259 1.490 . S
P248 C262 1.812 . S
P248 C268 1.803 1_545 S
P248 C274 1.819 . S
H249 C263 0.941 . S
H250 C264 0.939 . S
H251 C266 0.940 . S
H252 C267 0.940 . S
H253 C269 0.939 . S
H254 C270 0.942 . S
H255 C272 0.940 . S
H256 C273 0.939 . S
H257 C275 0.941 . S
H258 C279 0.939 . S
O259 P248 1.490 . S
H260 C276 0.939 . S
H261 C278 0.940 . S
C262 P248 1.812 . S
C262 C263 1.389 . S
C262 C267 1.391 . S
C263 H249 0.941 . S
C263 C262 1.389 . S
C263 C264 1.397 . S
C264 H250 0.939 . S
C264 C263 1.397 . S
C264 C265 1.378 . S
C265 C264 1.378 . S
C265 C266 1.378 . S
C266 H251 0.940 . S
C266 C265 1.378 . S
C266 C267 1.396 . S
C267 H252 0.940 . S
C267 C262 1.391 . S
C267 C266 1.396 . S
C268 P248 1.803 1_565 S
C268 C269 1.378 . S
C268 C273 1.400 . S
C269 H253 0.939 . S
C269 C268 1.378 . S
C269 C270 1.361 . S
C270 H254 0.942 . S
C270 C269 1.361 . S
C270 C271 1.369 . S
C271 C270 1.369 . S
C271 C272 1.404 . S
C272 H255 0.940 . S
C272 C271 1.404 . S
C272 C273 1.389 . S
C273 H256 0.939 . S
C273 C268 1.400 . S
C273 C272 1.389 . S
C274 P248 1.819 . S
C274 C275 1.391 . S
C274 C279 1.391 1_545 S
C275 H257 0.941 . S
C275 C274 1.391 . S
C275 C276 1.396 . S
C276 H260 0.939 . S
C276 C275 1.396 . S
C276 C277 1.397 . S
C277 C276 1.397 . S
C277 C278 1.385 1_545 S
C278 H261 0.940 . S
C278 C277 1.385 1_565 S
C278 C279 1.388 . S
C279 H258 0.939 . S
C279 C274 1.391 1_565 S
C279 C278 1.388 . S
P280 O291 1.490 . S
P280 C294 1.812 . S
P280 C300 1.803 . S
P280 C306 1.819 . S
H281 C295 0.941 . S
H282 C296 0.939 . S
H283 C298 0.940 . S
H284 C299 0.940 . S
H285 C301 0.939 . S
H286 C302 0.942 . S
H287 C304 0.940 . S
H288 C305 0.939 . S
H289 C307 0.941 . S
H290 C311 0.939 . S
O291 P280 1.490 . S
H292 C308 0.934 1_556 S
H293 C310 0.940 . S
C294 P280 1.812 . S
C294 C295 1.389 . S
C294 C299 1.391 . S
C295 H281 0.941 . S
C295 C294 1.389 . S
C295 C296 1.397 . S
C296 H282 0.939 . S
C296 C295 1.397 . S
C296 C297 1.378 . S
C297 C296 1.378 . S
C297 C298 1.378 . S
C298 H283 0.940 . S
C298 C297 1.378 . S
C298 C299 1.396 . S
C299 H284 0.940 . S
C299 C294 1.391 . S
C299 C298 1.396 . S
C300 P280 1.803 . S
C300 C301 1.378 . S
C300 C305 1.400 . S
C301 H285 0.939 . S
C301 C300 1.378 . S
C301 C302 1.361 . S
C302 H286 0.942 . S
C302 C301 1.361 . S
C302 C303 1.369 . S
C303 C302 1.369 . S
C303 C304 1.404 . S
C304 H287 0.940 . S
C304 C303 1.404 . S
C304 C305 1.389 . S
C305 H288 0.939 . S
C305 C300 1.400 . S
C305 C304 1.389 . S
C306 P280 1.819 . S
C306 C307 1.391 . S
C306 C311 1.391 . S
C307 H289 0.941 . S
C307 C306 1.391 . S
C307 C308 1.404 . S
C308 H292 0.934 1_554 S
C308 C307 1.404 . S
C308 C309 1.395 1_554 S
C309 C308 1.395 1_556 S
C309 C310 1.385 1_556 S
C310 H293 0.940 . S
C310 C309 1.385 1_554 S
C310 C311 1.388 . S
C311 H290 0.939 . S
C311 C306 1.391 . S
C311 C310 1.388 . S
C312 C313 1.387 . S
C312 H316 0.950 . S
C312 C321 1.390 . S
C313 C312 1.387 . S
C313 C315 1.387 . S
H314 C321 0.950 . S
C315 C313 1.387 . S
C315 C317 1.390 . S
C315 H319 0.950 . S
H316 C312 0.950 . S
C317 C315 1.390 . S
C317 C318 1.387 . S
C317 H320 0.950 . S
C318 C317 1.387 . S
C318 C321 1.387 . S
H319 C315 0.950 . S
H320 C317 0.950 . S
C321 C312 1.390 . S
C321 H314 0.950 . S
C321 C318 1.387 . S
C322 C323 1.387 . S
C322 H326 0.950 . S
C322 C331 1.390 . S
C323 C322 1.387 . S
C323 C325 1.387 . S
H324 C331 0.950 . S
C325 C323 1.387 . S
C325 C327 1.390 . S
C325 H329 0.950 . S
H326 C322 0.950 . S
C327 C325 1.390 . S
C327 C328 1.387 . S
C327 H330 0.950 . S
C328 C327 1.387 . S
C328 C331 1.387 . S
H329 C325 0.950 . S
H330 C327 0.950 . S
C331 C322 1.390 . S
C331 H324 0.950 . S
C331 C328 1.387 . S
C332 C333 1.387 . S
C332 H336 0.950 . S
C332 C341 1.390 . S
C333 C332 1.387 . S
C333 C335 1.387 . S
H334 C341 0.950 . S
C335 C333 1.387 . S
C335 C337 1.390 . S
C335 H339 0.950 . S
H336 C332 0.950 . S
C337 C335 1.390 . S
C337 C338 1.387 . S
C337 H340 0.950 . S
C338 C337 1.387 . S
C338 C341 1.387 . S
H339 C335 0.950 . S
H340 C337 0.950 . S
C341 C332 1.390 . S
C341 H334 0.950 . S
C341 C338 1.387 . S
C342 C343 1.387 . S
C342 H346 0.950 . S
C342 C351 1.390 . S
C343 C342 1.387 . S
C343 C345 1.387 . S
H344 C351 0.950 . S
C345 C343 1.387 . S
C345 C347 1.390 . S
C345 H349 0.950 . S
H346 C342 0.950 . S
C347 C345 1.390 . S
C347 C348 1.387 . S
C347 H350 0.950 . S
C348 C347 1.387 . S
C348 C351 1.387 . S
H349 C345 0.950 . S
H350 C347 0.950 . S
C351 C342 1.390 . S
C351 H344 0.950 . S
C351 C348 1.387 . S
C352 C353 1.387 . S
C352 H356 0.950 . S
C352 C361 1.390 . S
C353 C352 1.387 . S
C353 C355 1.387 . S
H354 C361 0.950 . S
C355 C353 1.387 . S
C355 C357 1.390 . S
C355 H359 0.950 . S
H356 C352 0.950 . S
C357 C355 1.390 . S
C357 C358 1.387 . S
C357 H360 0.950 . S
C358 C357 1.387 . S
C358 C361 1.387 . S
H359 C355 0.950 . S
H360 C357 0.950 . S
C361 C352 1.390 . S
C361 H354 0.950 . S
C361 C358 1.387 . S
C362 C363 1.387 . S
C362 H366 0.950 . S
C362 C371 1.390 . S
C363 C362 1.387 . S
C363 C365 1.387 . S
H364 C371 0.950 . S
C365 C363 1.387 . S
C365 C367 1.390 . S
C365 H369 0.950 . S
H366 C362 0.950 . S
C367 C365 1.390 . S
C367 C368 1.387 . S
C367 H370 0.950 . S
C368 C367 1.387 . S
C368 C371 1.387 . S
H369 C365 0.950 . S
H370 C367 0.950 . S
C371 C362 1.390 . S
C371 H364 0.950 . S
C371 C368 1.387 . S
C372 C373 1.387 . S
C372 H376 0.950 . S
C372 C381 1.390 . S
C373 C372 1.387 . S
C373 C375 1.387 . S
H374 C381 0.950 . S
C375 C373 1.387 . S
C375 C377 1.390 . S
C375 H379 0.950 . S
H376 C372 0.950 . S
C377 C375 1.390 . S
C377 C378 1.387 . S
C377 H380 0.950 . S
C378 C377 1.387 . S
C378 C381 1.387 . S
H379 C375 0.950 . S
H380 C377 0.950 . S
C381 C372 1.390 . S
C381 H374 0.950 . S
C381 C378 1.387 . S
C382 C383 1.387 . S
C382 H386 0.950 . S
C382 C391 1.390 . S
C383 C382 1.387 . S
C383 C385 1.387 . S
H384 C391 0.950 . S
C385 C383 1.387 . S
C385 C387 1.390 . S
C385 H389 0.950 . S
H386 C382 0.950 . S
C387 C385 1.390 . S
C387 C388 1.387 . S
C387 H390 0.950 . S
C388 C387 1.387 . S
C388 C391 1.387 . S
H389 C385 0.950 . S
H390 C387 0.950 . S
C391 C382 1.390 . S
C391 H384 0.950 . S
C391 C388 1.387 . S
C392 C393 1.387 . S
C392 H396 0.950 . S
C392 C401 1.390 . S
C393 C392 1.387 . S
C393 C395 1.387 . S
H394 C401 0.950 . S
C395 C393 1.387 . S
C395 C397 1.390 . S
C395 H399 0.950 . S
H396 C392 0.950 . S
C397 C395 1.390 . S
C397 C398 1.387 . S
C397 H400 0.950 . S
C398 C397 1.387 . S
C398 C401 1.387 . S
H399 C395 0.950 . S
H400 C397 0.950 . S
C401 C392 1.390 . S
C401 H394 0.950 . S
C401 C398 1.387 . S
C402 C403 1.387 . S
C402 H406 0.950 . S
C402 C411 1.390 . S
C403 C402 1.387 . S
C403 C405 1.387 . S
H404 C411 0.950 . S
C405 C403 1.387 . S
C405 C407 1.390 . S
C405 H409 0.950 . S
H406 C402 0.950 . S
C407 C405 1.390 . S
C407 C408 1.387 . S
C407 H410 0.950 . S
C408 C407 1.387 . S
C408 C411 1.387 . S
H409 C405 0.950 . S
H410 C407 0.950 . S
C411 C402 1.390 . S
C411 H404 0.950 . S
C411 C408 1.387 . S
C412 C413 1.387 . S
C412 H416 0.950 . S
C412 C421 1.390 . S
C413 C412 1.387 . S
C413 C415 1.387 . S
H414 C421 0.950 . S
C415 C413 1.387 . S
C415 C417 1.390 . S
C415 H419 0.950 . S
H416 C412 0.950 . S
C417 C415 1.390 . S
C417 C418 1.387 . S
C417 H420 0.950 . S
C418 C417 1.387 . S
C418 C421 1.387 . S
H419 C415 0.950 . S
H420 C417 0.950 . S
C421 C412 1.390 . S
C421 H414 0.950 . S
C421 C418 1.387 . S
C422 C423 1.387 . S
C422 H426 0.950 . S
C422 C431 1.390 . S
C423 C422 1.387 . S
C423 C425 1.387 . S
H424 C431 0.950 . S
C425 C423 1.387 . S
C425 C427 1.390 . S
C425 H429 0.950 . S
H426 C422 0.950 . S
C427 C425 1.390 . S
C427 C428 1.387 . S
C427 H430 0.950 . S
C428 C427 1.387 . S
C428 C431 1.387 . S
H429 C425 0.950 . S
H430 C427 0.950 . S
C431 C422 1.390 . S
C431 H424 0.950 . S
C431 C428 1.387 . S
C432 C433 1.387 . S
C432 H436 0.950 . S
C432 C441 1.390 . S
C433 C432 1.387 . S
C433 C435 1.387 1_455 S
H434 C441 0.950 . S
C435 C433 1.387 1_655 S
C435 C437 1.390 . S
C435 H439 0.950 . S
H436 C432 0.950 . S
C437 C435 1.390 . S
C437 C438 1.387 1_655 S
C437 H440 0.950 . S
C438 C437 1.387 1_455 S
C438 C441 1.387 . S
H439 C435 0.950 . S
H440 C437 0.950 . S
C441 C432 1.390 . S
C441 H434 0.950 . S
C441 C438 1.387 . S
C442 C443 1.387 . S
C442 H446 0.950 . S
C442 C451 1.390 . S
C443 C442 1.387 . S
C443 C445 1.387 1_545 S
H444 C451 0.950 . S
C445 C443 1.387 1_565 S
C445 C447 1.390 . S
C445 H449 0.950 . S
H446 C442 0.950 . S
C447 C445 1.390 . S
C447 C448 1.387 1_565 S
C447 H450 0.950 . S
C448 C447 1.387 1_545 S
C448 C451 1.387 . S
H449 C445 0.950 . S
H450 C447 0.950 . S
C451 C442 1.390 . S
C451 H444 0.950 . S
C451 C448 1.387 . S
C452 C453 1.387 . S
C452 H456 0.950 . S
C452 C461 1.390 . S
C453 C452 1.387 . S
C453 C455 1.387 . S
H454 C461 0.950 . S
C455 C453 1.387 . S
C455 C457 1.390 . S
C455 H459 0.950 . S
H456 C452 0.950 . S
C457 C455 1.390 . S
C457 C458 1.387 . S
C457 H460 0.950 . S
C458 C457 1.387 . S
C458 C461 1.387 . S
H459 C455 0.950 . S
H460 C457 0.950 . S
C461 C452 1.390 . S
C461 H454 0.950 . S
C461 C458 1.387 . S
C462 C463 1.387 . S
C462 H466 0.950 . S
C462 C471 1.390 . S
C463 C462 1.387 . S
C463 C465 1.387 . S
H464 C471 0.950 . S
C465 C463 1.387 . S
C465 C467 1.390 . S
C465 H469 0.950 . S
H466 C462 0.950 . S
C467 C465 1.390 . S
C467 C468 1.387 . S
C467 H470 0.950 . S
C468 C467 1.387 . S
C468 C471 1.387 . S
H469 C465 0.950 . S
H470 C467 0.950 . S
C471 C462 1.390 . S
C471 H464 0.950 . S
C471 C468 1.387 . S
C472 C473 1.387 . S
C472 H476 0.950 . S
C472 C481 1.390 . S
C473 C472 1.387 . S
C473 C475 1.387 . S
H474 C481 0.950 . S
C475 C473 1.387 . S
C475 C477 1.390 . S
C475 H479 0.950 . S
H476 C472 0.950 . S
C477 C475 1.390 . S
C477 C478 1.387 . S
C477 H480 0.950 . S
C478 C477 1.387 . S
C478 C481 1.387 . S
H479 C475 0.950 . S
H480 C477 0.950 . S
C481 C472 1.390 . S
C481 H474 0.950 . S
C481 C478 1.387 . S
C482 C483 1.387 . S
C482 H486 0.950 . S
C482 C491 1.390 . S
C483 C482 1.387 . S
C483 C485 1.384 1_455 S
H484 C491 0.950 . S
C485 C483 1.384 1_655 S
C485 C487 1.398 . S
C485 H489 0.946 . S
H486 C482 0.950 . S
C487 C485 1.398 . S
C487 C488 1.387 1_655 S
C487 H490 0.950 . S
C488 C487 1.387 1_455 S
C488 C491 1.387 . S
H489 C485 0.946 . S
H490 C487 0.950 . S
C491 C482 1.390 . S
C491 H484 0.950 . S
C491 C488 1.387 . S
C313 C9 0.755 . S
C318 C303 0.763 . S
C323 C49 0.616 . S
C328 C239 0.601 . S
C333 C89 0.610 . S
C338 C271 0.623 . S
C343 C26 0.733 . S
C348 C297 0.727 . S
C358 C233 0.767 . S
C353 C66 0.762 . S
C368 C265 0.817 . S
C363 C106 0.796 . S
C373 C43 3.025 . S
C378 C175 2.955 . S
C383 C83 3.108 . S
C388 C207 3.018 . S
C393 C22 3.156 . S
C398 C137 3.073 . S
C408 C169 3.079 . S
C403 C62 3.158 . S
C418 C201 3.004 . S
C413 C102 3.074 . S
C423 C3 3.027 . S
C428 C143 2.963 . S
C438 C213 1.785 1_554 S
C433 C15 1.755 . S
C443 C55 1.765 . S
C448 C149 1.778 . S
C453 C95 1.760 . S
C458 C181 1.774 . S
C468 C277 0.986 . S
C463 C42 1.027 . S
C478 C309 1.036 . S
C473 C82 1.033 . S
C483 C2 1.014 . S
C488 C245 0.982 . S
