# Generated by pormake.
# Topology anh, (6,3)-cn, num edge types: 1
# Building blocks:
#     Node 0, Type 0, BuildingBlock: VOLQOD_clean_sbu_1, # of connection points: 6
#     Node 1, Type 0, BuildingBlock: VOLQOD_clean_sbu_1, # of connection points: 6
#     Node 2, Type 0, BuildingBlock: VOLQOD_clean_sbu_1, # of connection points: 6
#     Node 3, Type 1, BuildingBlock: BELTOD_clean_linker_0, # of connection points: 3
#     Node 4, Type 1, BuildingBlock: BELTOD_clean_linker_0, # of connection points: 3
#     Node 5, Type 1, BuildingBlock: BELTOD_clean_linker_0, # of connection points: 3
#     Node 6, Type 1, BuildingBlock: BELTOD_clean_linker_0, # of connection points: 3
#     Node 7, Type 1, BuildingBlock: BELTOD_clean_linker_0, # of connection points: 3
#     Node 8, Type 1, BuildingBlock: BELTOD_clean_linker_0, # of connection points: 3
#     Edge 9, Type (0, 1), BuildingBlock: XUDNAN_clean_linker_2, # of connection points: 2
#     Edge 10, Type (0, 1), BuildingBlock: XUDNAN_clean_linker_2, # of connection points: 2
#     Edge 11, Type (0, 1), BuildingBlock: XUDNAN_clean_linker_2, # of connection points: 2
#     Edge 12, Type (0, 1), BuildingBlock: XUDNAN_clean_linker_2, # of connection points: 2
#     Edge 13, Type (0, 1), BuildingBlock: XUDNAN_clean_linker_2, # of connection points: 2
#     Edge 14, Type (0, 1), BuildingBlock: XUDNAN_clean_linker_2, # of connection points: 2
#     Edge 15, Type (0, 1), BuildingBlock: XUDNAN_clean_linker_2, # of connection points: 2
#     Edge 16, Type (0, 1), BuildingBlock: XUDNAN_clean_linker_2, # of connection points: 2
#     Edge 17, Type (0, 1), BuildingBlock: XUDNAN_clean_linker_2, # of connection points: 2
#     Edge 18, Type (0, 1), BuildingBlock: XUDNAN_clean_linker_2, # of connection points: 2
#     Edge 19, Type (0, 1), BuildingBlock: XUDNAN_clean_linker_2, # of connection points: 2
#     Edge 20, Type (0, 1), BuildingBlock: XUDNAN_clean_linker_2, # of connection points: 2
#     Edge 21, Type (0, 1), BuildingBlock: XUDNAN_clean_linker_2, # of connection points: 2
#     Edge 22, Type (0, 1), BuildingBlock: XUDNAN_clean_linker_2, # of connection points: 2
#     Edge 23, Type (0, 1), BuildingBlock: XUDNAN_clean_linker_2, # of connection points: 2
#     Edge 24, Type (0, 1), BuildingBlock: XUDNAN_clean_linker_2, # of connection points: 2
#     Edge 25, Type (0, 1), BuildingBlock: XUDNAN_clean_linker_2, # of connection points: 2
#     Edge 26, Type (0, 1), BuildingBlock: XUDNAN_clean_linker_2, # of connection points: 2
# Relax obj value: 0.161
# Max RMSD: 0.227
# Mean RMSD: 0.107
data_MOF--net-anh--node1-VOLQOD_clean_sbu_1--node2-BELTOD_clean_linker_0--edge1-XUDNAN_clean_linker_2
_symmetry_space_group_name_H-M    P1
_symmetry_Int_Tables_number       1
_symmetry_cell_setting            triclinic
loop_
_symmetry_equiv_pos_as_xyz
'x, y, z'
_cell_length_a     32.265578
_cell_length_b     32.200767
_cell_length_c     68.405928
_cell_angle_alpha  90.383664
_cell_angle_beta   89.743952
_cell_angle_gamma 120.21239
loop_
_atom_site_label
_atom_site_type_symbol
_atom_site_fract_x
_atom_site_fract_y
_atom_site_fract_z
_atom_type_partial_charge
O0 O 0.96773 0.54556 0.21107 0.0
Zn1 Zn 0.96784 0.56014 0.18248 0.0
O2 O 0.97042 0.51029 0.16659 0.0
Zn3 Zn 0.91368 0.47709 0.15047 0.0
Zn4 Zn 0.97335 0.46305 0.18346 0.0
Zn5 Zn 0.02589 0.53963 0.14933 0.0
O6 O 0.92796 0.49075 0.12187 0.0
O7 O 0.0072 0.53563 0.1211 0.0
O8 O 0.90731 0.56335 0.17714 0.0
O9 O 0.86863 0.49926 0.15782 0.0
O10 O 0.87804 0.40596 0.15464 0.0
O11 O 0.91514 0.39731 0.18013 0.0
O12 O 0.03064 0.45655 0.17679 0.0
O13 O 0.02771 0.62478 0.17858 0.0
O14 O 0.06498 0.50735 0.15218 0.0
O15 O 0.0679 0.60925 0.15596 0.0
C16 C 0.97235 0.51419 0.22054 0.0
C17 C 0.96689 0.51488 0.1124 0.0
C18 C 0.88143 0.37972 0.16761 0.0
C19 C 0.87002 0.53355 0.16766 0.0
C20 C 0.06319 0.47571 0.16378 0.0
C21 C 0.06425 0.63821 0.16761 0.0
O22 O 0.97621 0.48126 0.21179 0.0
O23 O 0.49264 0.01688 0.45056 0.0
Zn24 Zn 0.46387 0.02017 0.47673 0.0
O25 O 0.49599 0.00793 0.49855 0.0
Zn26 Zn 0.5229 0.06119 0.51656 0.0
Zn27 Zn 0.54802 -0.00044 0.48888 0.0
Zn28 Zn 0.45062 0.9517 0.51317 0.0
O29 O 0.50734 0.0408 0.54442 0.0
O30 O 0.44964 0.96469 0.54208 0.0
O31 O 0.46746 0.08488 0.48022 0.0
O32 O 0.49738 0.10386 0.51034 0.0
O33 O 0.59432 0.10096 0.51401 0.0
O34 O 0.61287 0.05607 0.49538 0.0
O35 O 0.54219 0.9379 0.49845 0.0
O36 O 0.39364 0.9683 0.47598 0.0
O37 O 0.46894 0.90112 0.51131 0.0
O38 O 0.38495 0.92376 0.50204 0.0
C39 C 0.52404 0.00515 0.44645 0.0
C40 C 0.47634 0.00174 0.55236 0.0
C41 C 0.62529 0.09421 0.50523 0.0
C42 C 0.47888 0.11155 0.49542 0.0
C43 C 0.50683 0.90109 0.5061 0.0
C44 C 0.36754 0.93293 0.48712 0.0
O45 O 0.54575 0.9963 0.45982 0.0
O46 O 0.45102 0.48663 0.7864 0.0
Zn47 Zn 0.43927 0.47163 0.8154 0.0
O48 O 0.49699 0.51508 0.83056 0.0
Zn49 Zn 0.4851 0.55557 0.84766 0.0
Zn50 Zn 0.54824 0.55645 0.81276 0.0
Zn51 Zn 0.51682 0.47893 0.84689 0.0
O52 O 0.48966 0.5432 0.87591 0.0
O53 O 0.50402 0.48278 0.87571 0.0
O54 O 0.38208 0.47852 0.82343 0.0
O55 O 0.41893 0.54174 0.84327 0.0
O56 O 0.52773 0.62547 0.84236 0.0
O57 O 0.56412 0.6257 0.81476 0.0
O58 O 0.60811 0.55534 0.81883 0.0
O59 O 0.42518 0.40293 0.81811 0.0
O60 O 0.58773 0.50466 0.84372 0.0
O61 O 0.48213 0.41005 0.83839 0.0
C62 C 0.48982 0.51012 0.77671 0.0
C63 C 0.49548 0.51215 0.88495 0.0
C64 C 0.5551 0.64785 0.82808 0.0
C65 C 0.38173 0.51092 0.83414 0.0
C66 C 0.61885 0.53402 0.83171 0.0
C67 C 0.44649 0.38461 0.82727 0.0
O68 O 0.53008 0.53553 0.78509 0.0
P69 P 0.52743 0.91774 0.23966 0.0
H70 H 0.48732 0.86911 0.20302 0.0
H71 H 0.41004 0.84071 0.18717 0.0
H72 H 0.36275 0.89075 0.23655 0.0
H73 H 0.44 0.91815 0.25252 0.0
H74 H 0.6311 0.9665 0.23457 0.0
H75 H 0.68817 0.04053 0.21771 0.0
H76 H 0.57221 0.06476 0.20249 0.0
H77 H 0.51556 0.99089 0.21923 0.0
H78 H 0.52827 0.86317 0.27336 0.0
H79 H 0.52755 0.99474 0.26284 0.0
O80 O 0.54494 0.87771 0.23555 0.0
H81 H 0.53462 0.87938 0.30849 0.0
H82 H 0.53351 0.01098 0.29816 0.0
C83 C 0.46901 0.89478 0.22907 0.0
C84 C 0.46013 0.87355 0.21051 0.0
C85 C 0.41616 0.85797 0.20135 0.0
C86 C 0.38032 0.86378 0.21055 0.0
C87 C 0.38949 0.88542 0.22917 0.0
C88 C 0.43364 0.90103 0.23833 0.0
C89 C 0.56908 0.97271 0.22773 0.0
C90 C 0.61805 0.98774 0.22753 0.0
C91 C 0.65059 0.0301 0.218 0.0
C92 C 0.63451 0.05807 0.20858 0.0
C93 C 0.58547 0.04338 0.20925 0.0
C94 C 0.55307 0.0012 0.21886 0.0
C95 C 0.52822 0.92815 0.26553 0.0
C96 C 0.5293 0.89547 0.27862 0.0
C97 C 0.53299 0.90478 0.29867 0.0
C98 C 0.53501 0.94665 0.30598 0.0
C99 C 0.53193 0.97841 0.29288 0.0
C100 C 0.52879 0.96931 0.27276 0.0
P101 P 0.64072 0.56907 0.57624 0.0
H102 H 0.6746 0.53935 0.5424 0.0
H103 H 0.63856 0.46549 0.52284 0.0
H104 H 0.51774 0.40196 0.56254 0.0
H105 H 0.55514 0.47371 0.58245 0.0
H106 H 0.67367 0.67137 0.5772 0.0
H107 H 0.64403 0.71944 0.56144 0.0
H108 H 0.54104 0.59402 0.52911 0.0
H109 H 0.56958 0.54621 0.5452 0.0
H110 H 0.68051 0.58267 0.61582 0.0
H111 H 0.54463 0.54339 0.58932 0.0
O112 O 0.70036 0.59631 0.57772 0.0
H113 H 0.64543 0.57453 0.64812 0.0
H114 H 0.50773 0.53021 0.62138 0.0
C115 C 0.61813 0.51199 0.56409 0.0
C116 C 0.64094 0.50894 0.54711 0.0
C117 C 0.61981 0.46703 0.53574 0.0
C118 C 0.57504 0.42774 0.54103 0.0
C119 C 0.55256 0.43108 0.55814 0.0
C120 C 0.57403 0.47256 0.5696 0.0
C121 C 0.62437 0.60548 0.56221 0.0
C122 C 0.64535 0.65457 0.56643 0.0
C123 C 0.62847 0.68196 0.55738 0.0
C124 C 0.59012 0.66039 0.54408 0.0
C125 C 0.57026 0.61147 0.53946 0.0
C126 C 0.58699 0.58418 0.54855 0.0
C127 C 0.61505 0.56312 0.6002 0.0
C128 C 0.64289 0.57165 0.61698 0.0
C129 C 0.62241 0.56633 0.63551 0.0
C130 C 0.57324 0.55101 0.63763 0.0
C131 C 0.54574 0.54286 0.6206 0.0
C132 C 0.56668 0.54977 0.60213 0.0
P133 P 0.07655 0.6699 0.91263 0.0
H134 H 0.15349 0.70655 0.88396 0.0
H135 H 0.19102 0.66901 0.86556 0.0
H136 H 0.10399 0.53627 0.89675 0.0
H137 H 0.06551 0.57355 0.91453 0.0
H138 H 0.9927 0.67843 0.92107 0.0
H139 H 0.92064 0.65832 0.90222 0.0
H140 H 0.97707 0.61702 0.85317 0.0
H141 H 0.04883 0.63729 0.8719 0.0
H142 H 0.11471 0.70414 0.9519 0.0
H143 H 0.99389 0.58033 0.92586 0.0
O144 O 0.11297 0.72921 0.91449 0.0
H145 H 0.08556 0.67118 0.98443 0.0
H146 H 0.96556 0.54603 0.95819 0.0
C147 C 0.10775 0.64334 0.90101 0.0
C148 C 0.14299 0.66958 0.88701 0.0
C149 C 0.16425 0.64797 0.87645 0.0
C150 C 0.15064 0.59965 0.87975 0.0
C151 C 0.11491 0.57335 0.89369 0.0
C152 C 0.0934 0.59494 0.90413 0.0
C153 C 0.02567 0.65847 0.89807 0.0
C154 C 0.98956 0.66515 0.90624 0.0
C155 C 0.94841 0.65349 0.89551 0.0
C156 C 0.94316 0.63564 0.87633 0.0
C157 C 0.98029 0.63083 0.86791 0.0
C158 C 0.02127 0.64219 0.8787 0.0
C159 C 0.05611 0.64494 0.93655 0.0
C160 C 0.08204 0.66972 0.9532 0.0
C161 C 0.0655 0.65058 0.97178 0.0
C162 C 0.02303 0.60597 0.97396 0.0
C163 C -0.00219 0.58088 0.95711 0.0
C164 C 0.01413 0.60029 0.9386 0.0
P165 P 0.05591 0.47277 0.42353 0.0
H166 H 0.13363 0.53135 0.45084 0.0
H167 H 0.16665 0.61371 0.46265 0.0
H168 H 0.05416 0.62346 0.43267 0.0
H169 H 0.02216 0.54145 0.42051 0.0
H170 H 0.02754 0.37411 0.4341 0.0
H171 H 0.96107 0.31333 0.45362 0.0
H172 H 0.90669 0.41054 0.46153 0.0
H173 H 0.97298 0.47092 0.44214 0.0
H174 H 0.10759 0.54431 0.39395 0.0
H175 H 0.97368 0.41015 0.39797 0.0
O176 O 0.10058 0.46081 0.42376 0.0
H177 H 0.08713 0.55591 0.36088 0.0
H178 H 0.95361 0.42121 0.36447 0.0
C179 C 0.07603 0.53069 0.43456 0.0
C180 C 0.11582 0.55104 0.44699 0.0
C181 C 0.13438 0.59804 0.45386 0.0
C182 C 0.11313 0.62526 0.4485 0.0
C183 C 0.07173 0.6037 0.43683 0.0
C184 C 0.05331 0.55677 0.42995 0.0
C185 C 0.00578 0.4274 0.43704 0.0
C186 C 0.00134 0.38233 0.44007 0.0
C187 C 0.96329 0.34759 0.45116 0.0
C188 C 0.92913 0.3575 0.45934 0.0
C189 C 0.9331 0.4023 0.4558 0.0
C190 C 0.97094 0.43683 0.44463 0.0
C191 C 0.04175 0.47688 0.3985 0.0
C192 C 0.07391 0.51718 0.38765 0.0
C193 C 0.0622 0.52388 0.36882 0.0
C194 C 0.01858 0.48974 0.36034 0.0
C195 C 0.98735 0.44807 0.37082 0.0
C196 C -0.00123 0.4418 0.3899 0.0
P197 P 0.6001 0.08174 0.75554 0.0
H198 H 0.62544 0.16635 0.77974 0.0
H199 H 0.57777 0.198 0.79416 0.0
H200 H 0.44807 0.07235 0.77407 0.0
H201 H 0.49653 0.04167 0.75908 0.0
H202 H 0.6575 0.03637 0.74974 0.0
H203 H 0.66096 0.97145 0.76672 0.0
H204 H 0.55003 0.95759 0.80634 0.0
H205 H 0.54721 0.02262 0.78954 0.0
H206 H 0.59184 0.13465 0.72329 0.0
H207 H 0.55238 0.98785 0.73507 0.0
O208 O 0.65609 0.1276 0.75325 0.0
H209 H 0.55712 0.11132 0.69066 0.0
H210 H 0.51938 0.96448 0.70217 0.0
C211 C 0.5645 0.10211 0.76811 0.0
C212 C 0.58675 0.14546 0.77855 0.0
C213 C 0.5593 0.16328 0.78697 0.0
C214 C 0.50896 0.13774 0.78527 0.0
C215 C 0.48673 0.09323 0.77542 0.0
C216 C 0.51433 0.07558 0.76691 0.0
C217 C 0.60236 0.03447 0.76844 0.0
C218 C 0.63415 0.01944 0.76216 0.0
C219 C 0.63591 0.98224 0.77179 0.0
C220 C 0.60594 0.95959 0.78792 0.0
C221 C 0.57413 0.97487 0.79416 0.0
C222 C 0.57227 0.01192 0.78446 0.0
C223 C 0.57548 0.06324 0.73143 0.0
C224 C 0.57619 0.09747 0.71873 0.0
C225 C 0.55647 0.08406 0.70006 0.0
C226 C 0.53581 0.03605 0.6937 0.0
C227 C 0.53461 0.00166 0.70664 0.0
C228 C 0.55405 0.01511 0.72541 0.0
P229 P 0.42121 0.37859 0.08827 0.0
H230 H 0.44751 0.36137 0.12647 0.0
H231 H 0.51949 0.40507 0.14649 0.0
H232 H 0.58449 0.51294 0.10147 0.0
H233 H 0.5115 0.47018 0.08201 0.0
H234 H 0.32295 0.30903 0.10035 0.0
H235 H 0.26123 0.31842 0.11737 0.0
H236 H 0.35756 0.47201 0.12009 0.0
H237 H 0.41892 0.46235 0.10297 0.0
H238 H 0.48496 0.38209 0.0573 0.0
H239 H 0.37599 0.42115 0.06453 0.0
O240 O 0.40618 0.32086 0.08789 0.0
H241 H 0.49978 0.41354 0.02391 0.0
H242 H 0.39006 0.45184 0.03131 0.0
C243 C 0.47486 0.41164 0.10252 0.0
C244 C 0.47732 0.39444 0.12095 0.0
C245 C 0.51846 0.41952 0.13236 0.0
C246 C 0.55805 0.46223 0.12548 0.0
C247 C 0.55461 0.48037 0.10728 0.0
C248 C 0.51314 0.45544 0.09596 0.0
C249 C 0.37544 0.38501 0.10054 0.0
C250 C 0.33077 0.34467 0.10466 0.0
C251 C 0.29566 0.35005 0.11446 0.0
C252 C 0.30469 0.39593 0.1201 0.0
C253 C 0.34949 0.43627 0.11579 0.0
C254 C 0.3846 0.4308 0.10611 0.0
C255 C 0.42981 0.39973 0.06347 0.0
C256 C 0.46407 0.39717 0.05165 0.0
C257 C 0.47234 0.41494 0.03258 0.0
C258 C 0.44634 0.43552 0.02502 0.0
C259 C 0.41134 0.43707 0.03683 0.0
C260 C 0.40313 0.41931 0.05587 0.0
H261 H 0.1387 0.50974 0.13816 0.0
H262 H 0.06706 0.40435 0.184 0.0
H263 H 0.12289 0.37402 0.1786 0.0
H264 H 0.15738 0.43459 0.10606 0.0
H265 H 0.21543 0.48115 0.09783 0.0
H266 H 0.17171 0.49642 0.1061 0.0
H267 H 0.23232 0.55584 0.13149 0.0
H268 H 0.27635 0.54089 0.12324 0.0
H269 H 0.25968 0.53475 0.1487 0.0
H270 H 0.18364 0.35219 0.16684 0.0
H271 H 0.24679 0.34262 0.15037 0.0
H272 H 0.27801 0.46239 0.11243 0.0
C273 C 0.13494 0.4806 0.14723 0.0
C274 C 0.09844 0.45945 0.16151 0.0
C275 C 0.09478 0.42124 0.17299 0.0
C276 C 0.1263 0.40373 0.17003 0.0
C277 C 0.16139 0.42499 0.15563 0.0
C278 C 0.16607 0.46279 0.14452 0.0
C279 C 0.20593 0.47854 0.12963 0.0
C280 C 0.18642 0.47228 0.10867 0.0
C281 C 0.24594 0.53059 0.13351 0.0
C282 C 0.22256 0.44326 0.13393 0.0
C283 C 0.19651 0.41269 0.14898 0.0
C284 C 0.20449 0.37612 0.15512 0.0
C285 C 0.24014 0.37076 0.14562 0.0
C286 C 0.26732 0.40188 0.1302 0.0
C287 C 0.25832 0.43858 0.12438 0.0
H288 H 0.69536 0.1059 0.47941 0.0
H289 H 0.66824 0.17308 0.52925 0.0
H290 H 0.74809 0.24505 0.52504 0.0
H291 H 0.82765 0.16039 0.48701 0.0
H292 H 0.83918 0.16759 0.46109 0.0
H293 H 0.78362 0.11832 0.47009 0.0
H294 H 0.73626 0.14557 0.4483 0.0
H295 H 0.79147 0.19508 0.43939 0.0
H296 H 0.74723 0.20609 0.45062 0.0
H297 H 0.82533 0.31319 0.51286 0.0
H298 H 0.89567 0.37222 0.49397 0.0
H299 H 0.87177 0.26132 0.45169 0.0
C300 C 0.70683 0.13507 0.48985 0.0
C301 C 0.67572 0.13373 0.50475 0.0
C302 C 0.69157 0.17323 0.51778 0.0
C303 C 0.73691 0.21423 0.51554 0.0
C304 C 0.766 0.21507 0.50025 0.0
C305 C 0.7518 0.17639 0.48772 0.0
C306 C 0.78765 0.18822 0.47132 0.0
C307 C 0.81091 0.15676 0.47246 0.0
C308 C 0.76424 0.18347 0.45123 0.0
C309 C 0.82336 0.24012 0.47619 0.0
C310 C 0.81054 0.25471 0.49308 0.0
C311 C 0.83616 0.30201 0.49979 0.0
C312 C 0.87576 0.33533 0.48888 0.0
C313 C 0.88917 0.32126 0.47141 0.0
C314 C 0.86291 0.27286 0.46519 0.0
H315 H 0.58252 0.70211 0.79476 0.0
H316 H 0.56659 0.71043 0.85746 0.0
H317 H 0.58663 0.79478 0.85425 0.0
H318 H 0.68053 0.82897 0.78766 0.0
H319 H 0.65565 0.83377 0.76482 0.0
H320 H 0.64757 0.77662 0.77236 0.0
H321 H 0.55554 0.73849 0.7689 0.0
H322 H 0.56325 0.79544 0.7615 0.0
H323 H 0.52544 0.7644 0.7821 0.0
H324 H 0.59925 0.87442 0.844 0.0
H325 H 0.60387 0.9444 0.82733 0.0
H326 H 0.60917 0.88364 0.77119 0.0
C327 C 0.58472 0.72217 0.80787 0.0
C328 C 0.57345 0.69993 0.82638 0.0
C329 C 0.57529 0.72688 0.84314 0.0
C330 C 0.58679 0.77484 0.84148 0.0
C331 C 0.59633 0.79531 0.82295 0.0
C332 C 0.59564 0.76997 0.80644 0.0
C333 C 0.60259 0.79882 0.78808 0.0
C334 C 0.64938 0.81023 0.77761 0.0
C335 C 0.55911 0.77273 0.77435 0.0
C336 C 0.60592 0.84372 0.79683 0.0
C337 C 0.60286 0.84121 0.81698 0.0
C338 C 0.60226 0.8771 0.82824 0.0
C339 C 0.60449 0.91648 0.81864 0.0
C340 C 0.60695 0.91947 0.79798 0.0
C341 C 0.60826 0.8828 0.78701 0.0
H342 H 0.78013 0.45934 0.17008 0.0
H343 H 0.86145 0.61426 0.16474 0.0
H344 H 0.78607 0.61468 0.15786 0.0
H345 H 0.70898 0.43756 0.13138 0.0
H346 H 0.65549 0.3881 0.14167 0.0
H347 H 0.71327 0.40135 0.15038 0.0
H348 H 0.68923 0.40928 0.18583 0.0
H349 H 0.63086 0.39543 0.17727 0.0
H350 H 0.66731 0.44981 0.19101 0.0
H351 H 0.70364 0.59526 0.1455 0.0
H352 H 0.62282 0.55906 0.13069 0.0
H353 H 0.59842 0.417 0.14413 0.0
C354 C 0.78181 0.49353 0.16813 0.0
C355 C 0.82617 0.53677 0.16796 0.0
C356 C 0.82747 0.58086 0.16517 0.0
C357 C 0.7849 0.58131 0.16121 0.0
C358 C 0.74172 0.53747 0.16055 0.0
C359 C 0.74 0.49449 0.16432 0.0
C360 C 0.69075 0.45178 0.1607 0.0
C361 C 0.69226 0.41776 0.1451 0.0
C362 C 0.6682 0.42501 0.17984 0.0
C363 C 0.66533 0.47704 0.15329 0.0
C364 C 0.69479 0.52645 0.15356 0.0
C365 C 0.68001 0.55669 0.14564 0.0
C366 C 0.63424 0.53579 0.1371 0.0
C367 C 0.60405 0.48515 0.13641 0.0
C368 C 0.61985 0.4558 0.14494 0.0
H369 H 0.30491 0.85067 0.50619 0.0
H370 H 0.31843 0.9343 0.45457 0.0
H371 H 0.24267 0.86702 0.44187 0.0
H372 H 0.27438 0.74873 0.48285 0.0
H373 H 0.2324 0.70795 0.5006 0.0
H374 H 0.27938 0.76614 0.50823 0.0
H375 H 0.21685 0.78524 0.52317 0.0
H376 H 0.16938 0.72656 0.51579 0.0
H377 H 0.1683 0.77954 0.50826 0.0
H378 H 0.17657 0.78617 0.43172 0.0
H379 H 0.12606 0.69946 0.42505 0.0
H380 H 0.15542 0.66815 0.48327 0.0
C381 C 0.2911 0.85569 0.49256 0.0
C382 C 0.31764 0.89784 0.48139 0.0
C383 C 0.29863 0.9025 0.46346 0.0
C384 C 0.2555 0.86447 0.45615 0.0
C385 C 0.2316 0.82236 0.46706 0.0
C386 C 0.24846 0.81805 0.48503 0.0
C387 C 0.22052 0.76707 0.49257 0.0
C388 C 0.25365 0.74629 0.49626 0.0
C389 C 0.19206 0.76446 0.51104 0.0
C390 C 0.18743 0.74264 0.47545 0.0
C391 C 0.19341 0.77529 0.4611 0.0
C392 C 0.17055 0.76045 0.44306 0.0
C393 C 0.14181 0.71104 0.43943 0.0
C394 C 0.1366 0.67701 0.4537 0.0
C395 C 0.15862 0.6933 0.47211 0.0
H396 H 0.48524 0.33496 0.84388 0.0
H397 H 0.38224 0.32208 0.80018 0.0
H398 H 0.37589 0.24655 0.78834 0.0
H399 H 0.54959 0.30586 0.81462 0.0
H400 H 0.56277 0.27244 0.83208 0.0
H401 H 0.5503 0.31798 0.84043 0.0
H402 H 0.48153 0.25609 0.8624 0.0
H403 H 0.49421 0.21021 0.85431 0.0
H404 H 0.43459 0.20107 0.85181 0.0
H405 H 0.39364 0.18315 0.77693 0.0
H406 H 0.43235 0.13671 0.76749 0.0
H407 H 0.52269 0.18971 0.81901 0.0
C408 C 0.45995 0.31541 0.83229 0.0
C409 C 0.43421 0.33452 0.82298 0.0
C410 C 0.40211 0.30808 0.80766 0.0
C411 C 0.3982 0.26504 0.80084 0.0
C412 C 0.42608 0.24857 0.80969 0.0
C413 C 0.45578 0.27261 0.82532 0.0
C414 C 0.48668 0.2513 0.83064 0.0
C415 C 0.54048 0.28914 0.82935 0.0
C416 C 0.47344 0.22829 0.851 0.0
C417 C 0.47198 0.21352 0.8148 0.0
C418 C 0.43623 0.2117 0.80312 0.0
C419 C 0.42062 0.18325 0.7863 0.0
C420 C 0.44279 0.15684 0.78108 0.0
C421 C 0.4805 0.15936 0.79255 0.0
C422 C 0.49403 0.187 0.80992 0.0
H423 H 0.58773 0.8937 0.50787 0.0
H424 H 0.43244 0.81029 0.51232 0.0
H425 H 0.43704 0.73803 0.51993 0.0
H426 H 0.60516 0.79798 0.48681 0.0
H427 H 0.65884 0.81589 0.5008 0.0
H428 H 0.64324 0.86009 0.49369 0.0
H429 H 0.64675 0.88552 0.52995 0.0
H430 H 0.66214 0.84133 0.53718 0.0
H431 H 0.61068 0.84079 0.54785 0.0
H432 H 0.4582 0.67673 0.52924 0.0
H433 H 0.49485 0.63007 0.54055 0.0
H434 H 0.63657 0.75296 0.53029 0.0
C435 C 0.55468 0.86003 0.51009 0.0
C436 C 0.50973 0.85749 0.50943 0.0
C437 C 0.46728 0.81302 0.51279 0.0
C438 C 0.46948 0.77174 0.51702 0.0
C439 C 0.51437 0.77561 0.51786 0.0
C440 C 0.55623 0.81854 0.51451 0.0
C441 C 0.59996 0.81361 0.5177 0.0
C442 C 0.62847 0.82241 0.49861 0.0
C443 C 0.63173 0.8473 0.53415 0.0
C444 C 0.57607 0.76146 0.52374 0.0
C445 C 0.5267 0.74012 0.5235 0.0
C446 C 0.49681 0.69276 0.52924 0.0
C447 C 0.51797 0.66651 0.53555 0.0
C448 C 0.56854 0.68779 0.53613 0.0
C449 C 0.59783 0.73579 0.53 0.0
H450 H 0.66172 0.51951 0.86324 0.0
H451 H 0.69007 0.57755 0.80444 0.0
H452 H 0.77608 0.60533 0.80869 0.0
H453 H 0.7626 0.61503 0.88463 0.0
H454 H 0.77404 0.57898 0.90137 0.0
H455 H 0.71396 0.55822 0.89296 0.0
H456 H 0.70764 0.47913 0.88037 0.0
H457 H 0.7676 0.49941 0.88894 0.0
H458 H 0.75241 0.48183 0.86373 0.0
H459 H 0.85948 0.63202 0.82018 0.0
H460 H 0.93449 0.65604 0.83828 0.0
H461 H 0.85131 0.58187 0.88965 0.0
C462 C 0.68582 0.53706 0.85109 0.0
C463 C 0.66924 0.54615 0.83348 0.0
C464 C 0.70206 0.57018 0.81806 0.0
C465 C 0.75092 0.58597 0.82031 0.0
C466 C 0.76626 0.57747 0.83804 0.0
C467 C 0.73469 0.55346 0.85315 0.0
C468 C 0.76074 0.552 0.87121 0.0
C469 C 0.75233 0.57759 0.88856 0.0
C470 C 0.74624 0.5 0.87636 0.0
C471 C 0.81196 0.57983 0.86404 0.0
C472 C 0.8144 0.59372 0.8448 0.0
C473 C 0.85804 0.62096 0.83519 0.0
C474 C 0.90036 0.63438 0.84555 0.0
C475 C 0.89853 0.62088 0.86533 0.0
C476 C 0.85372 0.59306 0.87459 0.0
H477 H 0.10227 0.68439 0.20185 0.0
H478 H 0.12298 0.69745 0.13913 0.0
H479 H 0.20297 0.7693 0.14382 0.0
H480 H 0.17816 0.81775 0.21499 0.0
H481 H 0.20146 0.80375 0.23627 0.0
H482 H 0.14124 0.76268 0.22807 0.0
H483 H 0.16126 0.69426 0.22646 0.0
H484 H 0.22141 0.73498 0.23441 0.0
H485 H 0.21132 0.70213 0.21182 0.0
H486 H 0.28456 0.82911 0.15507 0.0
H487 H 0.36273 0.87033 0.17186 0.0
H488 H 0.29125 0.81454 0.2274 0.0
C489 C 0.12278 0.70399 0.18915 0.0
C490 C 0.10633 0.68643 0.17013 0.0
C491 C 0.13488 0.71114 0.15378 0.0
C492 C 0.18021 0.75199 0.15633 0.0
C493 C 0.19651 0.76728 0.17533 0.0
C494 C 0.16861 0.74411 0.19149 0.0
C495 C 0.1974 0.76212 0.2102 0.0
C496 C 0.17843 0.78813 0.22315 0.0
C497 C 0.19788 0.72093 0.22136 0.0
C498 C 0.24637 0.79707 0.20197 0.0
C499 C 0.24476 0.80056 0.18188 0.0
C500 C 0.28615 0.8273 0.17082 0.0
C501 C 0.33043 0.85018 0.18046 0.0
C502 C 0.33309 0.84552 0.20093 0.0
C503 C 0.29031 0.81963 0.21181 0.0
H504 H 0.45936 0.14882 0.52697 0.0
H505 H 0.49375 0.17382 0.46535 0.0
H506 H 0.51083 0.25759 0.46935 0.0
H507 H 0.41139 0.23461 0.53362 0.0
H508 H 0.4388 0.25161 0.55743 0.0
H509 H 0.41654 0.19131 0.54841 0.0
H510 H 0.50018 0.20079 0.5543 0.0
H511 H 0.52304 0.26118 0.56287 0.0
H512 H 0.55214 0.24953 0.54277 0.0
H513 H 0.54041 0.34234 0.4818 0.0
H514 H 0.57451 0.41801 0.50084 0.0
H515 H 0.52476 0.33564 0.55442 0.0
C516 C 0.46844 0.17135 0.51414 0.0
C517 C 0.47508 0.15517 0.49586 0.0
C518 C 0.48772 0.18554 0.47941 0.0
C519 C 0.49768 0.23317 0.4816 0.0
C520 C 0.49399 0.2491 0.50023 0.0
C521 C 0.47867 0.2186 0.51614 0.0
C522 C 0.48405 0.24526 0.53506 0.0
C523 C 0.43476 0.22978 0.54416 0.0
C524 C 0.51681 0.23881 0.54957 0.0
C525 C 0.5074 0.29601 0.52755 0.0
C526 C 0.51196 0.29769 0.50742 0.0
C527 C 0.53612 0.34129 0.49752 0.0
C528 C 0.55596 0.38409 0.50849 0.0
C529 C 0.55217 0.38287 0.52917 0.0
C530 C 0.52718 0.33806 0.53864 0.0
H531 H 0.37875 0.59049 0.84418 0.0
H532 H 0.28683 0.44003 0.82917 0.0
H533 H 0.21527 0.44732 0.83667 0.0
H534 H 0.31565 0.59201 0.88459 0.0
H535 H 0.32589 0.65171 0.8805 0.0
H536 H 0.36836 0.63552 0.87159 0.0
H537 H 0.35953 0.65999 0.83647 0.0
H538 H 0.3171 0.67656 0.8453 0.0
H539 H 0.30083 0.63375 0.82558 0.0
H540 H 0.15469 0.47067 0.84935 0.0
H541 H 0.11133 0.50766 0.86477 0.0
H542 H 0.24599 0.64155 0.87167 0.0
C543 C 0.34359 0.55905 0.84219 0.0
C544 C 0.33819 0.51459 0.83622 0.0
C545 C 0.29161 0.47448 0.83367 0.0
C546 C 0.25091 0.47834 0.83791 0.0
C547 C 0.25779 0.52265 0.84436 0.0
C548 C 0.30314 0.56234 0.84625 0.0
C549 C 0.30187 0.60522 0.85451 0.0
C550 C 0.32956 0.62206 0.87394 0.0
C551 C 0.32095 0.6463 0.83957 0.0
C552 C 0.24869 0.58333 0.8576 0.0
C553 C 0.22357 0.53587 0.85152 0.0
C554 C 0.17403 0.50793 0.85394 0.0
C555 C 0.1498 0.52913 0.86285 0.0
C556 C 0.17527 0.57763 0.86932 0.0
C557 C 0.22526 0.60483 0.86647 0.0
H558 H 0.86798 0.31583 0.1967 0.0
H559 H 0.80872 0.32818 0.1416 0.0
H560 H 0.74167 0.24507 0.14514 0.0
H561 H 0.83303 0.18849 0.19146 0.0
H562 H 0.81896 0.17657 0.21707 0.0
H563 H 0.86474 0.23545 0.20929 0.0
H564 H 0.82045 0.27311 0.22716 0.0
H565 H 0.77445 0.21444 0.2349 0.0
H566 H 0.75853 0.25223 0.22138 0.0
H567 H 0.67804 0.16332 0.15581 0.0
H568 H 0.62275 0.08763 0.1727 0.0
H569 H 0.72298 0.12901 0.22097 0.0
C570 C 0.84144 0.30082 0.18518 0.0
C571 C 0.84374 0.32852 0.16883 0.0
C572 C 0.80781 0.30767 0.15424 0.0
C573 C 0.76961 0.26045 0.15609 0.0
C574 C 0.76794 0.23452 0.17257 0.0
C575 C 0.80299 0.25382 0.18682 0.0
C576 C 0.79133 0.21931 0.20363 0.0
C577 C 0.82928 0.20405 0.20546 0.0
C578 C 0.78585 0.24108 0.2229 0.0
C579 C 0.74377 0.17796 0.19678 0.0
C580 C 0.73108 0.18733 0.17878 0.0
C581 C 0.68775 0.15537 0.16983 0.0
C582 C 0.65646 0.1127 0.17959 0.0
C583 C 0.66864 0.1025 0.19811 0.0
C584 C 0.71307 0.1355 0.20669 0.0
H585 H 0.04267 0.55748 0.08685 0.0
H586 H 0.88716 0.48554 0.0896 0.0
H587 H 0.88453 0.49898 0.05428 0.0
H588 H 0.05927 0.64826 0.05361 0.0
H589 H 0.10799 0.64837 0.04056 0.0
H590 H 0.09772 0.63116 0.06589 0.0
H591 H 0.09177 0.54985 0.05721 0.0
H592 H 0.10232 0.56693 0.03185 0.0
H593 H 0.04964 0.51161 0.03885 0.0
H594 H 0.89902 0.52442 0.01918 0.0
H595 H 0.92942 0.5574 0.98643 0.0
H596 H 0.07524 0.60975 0.00634 0.0
C597 C 0.00799 0.54418 0.08003 0.0
C598 C 0.96512 0.52048 0.09103 0.0
C599 C 0.92051 0.50368 0.08149 0.0
C600 C 0.91861 0.51118 0.06144 0.0
C601 C 0.96158 0.53518 0.05111 0.0
C602 C 0.00541 0.5511 0.06003 0.0
C603 C 0.04634 0.57656 0.04566 0.0
C604 C 0.07979 0.62921 0.0518 0.0
C605 C 0.07414 0.54961 0.04325 0.0
C606 C 0.01869 0.57312 0.02733 0.0
C607 C 0.96987 0.54908 0.03078 0.0
C608 C 0.93714 0.54275 0.01623 0.0
C609 C 0.95479 0.56139 0.99763 0.0
C610 C 0.00475 0.58593 0.9937 0.0
C611 C 0.03691 0.59159 0.00883 0.0
H612 H 0.47854 0.00878 0.41282 0.0
H613 H 0.59542 0.99016 0.43342 0.0
H614 H 0.61254 0.97702 0.39968 0.0
H615 H 0.43681 0.91816 0.37635 0.0
H616 H 0.42264 0.95048 0.35871 0.0
H617 H 0.42092 0.96176 0.38443 0.0
H618 H 0.48072 0.05237 0.37907 0.0
H619 H 0.4825 0.04139 0.35329 0.0
H620 H 0.53733 0.07073 0.36721 0.0
H621 H 0.61433 0.96056 0.3645 0.0
H622 H 0.60199 0.94419 0.32908 0.0
H623 H 0.48515 0.97428 0.33046 0.0
C624 C 0.5081 0.00256 0.4102 0.0
C625 C 0.53553 0.00047 0.42584 0.0
C626 C 0.5737 0.99183 0.42176 0.0
C627 C 0.58388 0.9844 0.40261 0.0
C628 C 0.5558 0.98594 0.38761 0.0
C629 C 0.5189 0.99508 0.39107 0.0
C630 C 0.49341 0.99315 0.3722 0.0
C631 C 0.4403 0.95352 0.37298 0.0
C632 C 0.49883 0.04234 0.36768 0.0
C633 C 0.52132 0.98068 0.35774 0.0
C634 C 0.55719 0.97684 0.367 0.0
C635 C 0.58663 0.96381 0.35701 0.0
C636 C 0.57917 0.9543 0.33696 0.0
C637 C 0.54266 0.95796 0.32711 0.0
C638 C 0.51366 0.97175 0.33763 0.0
H639 H 0.55194 0.50196 0.75239 0.0
H640 H 0.42629 0.51782 0.75289 0.0
H641 H 0.43189 0.52752 0.71685 0.0
H642 H 0.61737 0.58607 0.71664 0.0
H643 H 0.64079 0.55173 0.70502 0.0
H644 H 0.62503 0.543 0.73052 0.0
H645 H 0.56778 0.45197 0.72442 0.0
H646 H 0.58393 0.46025 0.69891 0.0
H647 H 0.52181 0.4328 0.70602 0.0
H648 H 0.45867 0.54642 0.68157 0.0
H649 H 0.49672 0.56173 0.64918 0.0
H650 H 0.5987 0.52287 0.67147 0.0
C651 C 0.52518 0.50669 0.74482 0.0
C652 C 0.48878 0.50936 0.75523 0.0
C653 C 0.4542 0.51539 0.74502 0.0
C654 C 0.45728 0.52114 0.72463 0.0
C655 C 0.4944 0.51945 0.71479 0.0
C656 C 0.52697 0.51113 0.72451 0.0
C657 C 0.56341 0.51084 0.71062 0.0
C658 C 0.61467 0.55026 0.71603 0.0
C659 C 0.55894 0.46099 0.70995 0.0
C660 C 0.54735 0.52199 0.69163 0.0
C661 C 0.50774 0.52715 0.69433 0.0
C662 C 0.48885 0.54109 0.67916 0.0
C663 C 0.51069 0.54941 0.66071 0.0
C664 C 0.55063 0.54296 0.65741 0.0
C665 C 0.56871 0.52876 0.67324 0.0
H666 H 0.53742 0.06902 0.57852 0.0
H667 H 0.40972 0.92774 0.57508 0.0
H668 H 0.40893 0.92193 0.61114 0.0
H669 H 0.59375 0.04139 0.61612 0.0
H670 H 0.61938 0.09952 0.62776 0.0
H671 H 0.60764 0.09379 0.6019 0.0
H672 H 0.55559 0.13377 0.60601 0.0
H673 H 0.5673 0.13978 0.6319 0.0
H674 H 0.50637 0.10892 0.62313 0.0
H675 H 0.42432 0.93089 0.64772 0.0
H676 H 0.4546 0.95365 0.68152 0.0
H677 H 0.57386 0.08738 0.6601 0.0
C678 C 0.50882 0.03705 0.58529 0.0
C679 C 0.47347 -0.00108 0.57395 0.0
C680 C 0.43712 0.95748 0.58347 0.0
C681 C 0.43635 0.95387 0.60393 0.0
C682 C 0.47221 0.99195 0.61462 0.0
C683 C 0.50771 0.03273 0.60559 0.0
C684 C 0.5434 0.06773 0.62021 0.0
C685 C 0.59402 0.07606 0.61626 0.0
C686 C 0.54312 0.11536 0.62031 0.0
C687 C 0.52268 0.04018 0.63891 0.0
C688 C 0.48148 0.99669 0.63546 0.0
C689 C 0.45654 0.96489 0.65058 0.0
C690 C 0.47422 0.97798 0.6697 0.0
C691 C 0.51661 0.02236 0.67351 0.0
C692 C 0.54092 0.05362 0.6578 0.0
H693 H 0.49195 0.44308 0.90968 0.0
H694 H 0.48893 0.57647 0.9091 0.0
H695 H 0.47881 0.57241 0.94483 0.0
H696 H 0.402 0.38531 0.94616 0.0
H697 H 0.43036 0.35581 0.95765 0.0
H698 H 0.43989 0.37013 0.93204 0.0
H699 H 0.53177 0.41765 0.93766 0.0
H700 H 0.52252 0.40342 0.96331 0.0
H701 H 0.5567 0.4652 0.95565 0.0
H702 H 0.46658 0.55326 0.98028 0.0
H703 H 0.45274 0.5197 0.01353 0.0
H704 H 0.46204 0.39794 0.99138 0.0
C705 C 0.48963 0.47167 0.91708 0.0
C706 C 0.49133 0.51013 0.90654 0.0
C707 C 0.48769 0.54658 0.9168 0.0
C708 C 0.48202 0.5447 0.93713 0.0
C709 C 0.48005 0.50616 0.94703 0.0
C710 C 0.48376 0.4703 0.93742 0.0
C711 C 0.479 0.4321 0.95157 0.0
C712 C 0.4352 0.38294 0.94655 0.0
C713 C 0.52526 0.42946 0.95207 0.0
C714 C 0.47162 0.452 0.97058 0.0
C715 C 0.47257 0.49484 0.9676 0.0
C716 C 0.46578 0.51973 0.98282 0.0
C717 C 0.45761 0.5002 0.00163 0.0
C718 C 0.45609 0.4561 0.00505 0.0
C719 C 0.46351 0.43195 0.98928 0.0
H720 H 0.97005 0.44748 0.24601 0.0
H721 H 0.97986 0.58698 0.24397 0.0
H722 H 0.98728 0.59314 0.27987 0.0
H723 H 0.90081 0.40738 0.29151 0.0
H724 H 0.9317 0.37718 0.2998 0.0
H725 H 0.92427 0.38234 0.274 0.0
H726 H 0.01618 0.42283 0.26902 0.0
H727 H 0.02391 0.41781 0.29477 0.0
H728 H 0.05557 0.47567 0.2831 0.0
H729 H 0.00026 0.58736 0.31545 0.0
H730 H 0.01552 0.56862 0.34873 0.0
H731 H 0.99452 0.43187 0.32794 0.0
C732 C 0.97332 0.47915 0.2531 0.0
C733 C 0.9744 0.51677 0.24214 0.0
C734 C 0.97876 0.55761 0.25202 0.0
C735 C 0.98297 0.56145 0.27242 0.0
C736 C 0.98224 0.52394 0.28273 0.0
C737 C 0.97716 0.48341 0.27345 0.0
C738 C 0.97895 0.44893 0.28792 0.0
C739 C 0.93107 0.40113 0.28833 0.0
C740 C 0.02117 0.44087 0.28343 0.0
C741 C 0.98693 0.47694 0.30674 0.0
C742 C 0.98858 0.52007 0.30341 0.0
C743 C -0.00161 0.55344 0.3183 0.0
C744 C 0.00714 0.54261 0.33709 0.0
C745 C 0.00575 0.49874 0.34078 0.0
C746 C 0.99488 0.46525 0.32548 0.0
loop_
_geom_bond_atom_site_label_1
_geom_bond_atom_site_label_2
_geom_bond_distance
_geom_bond_site_symmetry_2
_ccdc_geom_bond_type
O0 Zn1 1.953 . S
O0 C16 1.230 . S
Zn1 O0 1.953 . S
Zn1 O2 1.949 . S
Zn1 O8 1.919 1_455 S
Zn1 O13 1.924 . S
O2 Zn1 1.949 . S
O2 Zn3 1.923 1_455 S
O2 Zn4 1.950 . S
O2 Zn5 1.945 . S
Zn3 O2 1.923 1_655 S
Zn3 O6 1.933 . S
Zn3 O9 1.941 . S
Zn3 O10 1.965 . S
Zn4 O2 1.950 . S
Zn4 O11 1.938 1_455 S
Zn4 O12 1.906 . S
Zn4 O22 1.953 . S
Zn5 O2 1.945 . S
Zn5 O7 1.932 . S
Zn5 O14 1.977 . S
Zn5 O15 1.910 . S
O6 Zn3 1.933 . S
O6 C17 1.226 1_655 S
O7 Zn5 1.932 . S
O7 C17 1.307 . S
O8 Zn1 1.919 1_655 S
O8 C19 1.253 . S
O9 Zn3 1.941 . S
O9 C19 1.283 . S
O10 Zn3 1.965 . S
O10 C18 1.303 . S
O11 Zn4 1.938 1_655 S
O11 C18 1.247 . S
O12 Zn4 1.906 . S
O12 C20 1.304 . S
O13 Zn1 1.924 . S
O13 C21 1.311 . S
O14 Zn5 1.977 . S
O14 C20 1.272 . S
O15 Zn5 1.910 . S
O15 C21 1.231 . S
C16 O0 1.230 . S
C16 O22 1.298 . S
C17 O6 1.226 1_455 S
C17 O7 1.307 . S
C18 O10 1.303 . S
C18 O11 1.247 . S
C19 O8 1.253 . S
C19 O9 1.283 . S
C20 O12 1.304 . S
C20 O14 1.272 . S
C21 O13 1.311 . S
C21 O15 1.231 . S
O22 Zn4 1.953 . S
O22 C16 1.298 . S
O23 Zn24 1.953 . S
O23 C39 1.225 . S
Zn24 O23 1.953 . S
Zn24 O25 1.949 . S
Zn24 O31 1.919 . S
Zn24 O36 1.924 1_545 S
O25 Zn24 1.949 . S
O25 Zn26 1.923 . S
O25 Zn27 1.950 . S
O25 Zn28 1.945 1_545 S
Zn26 O25 1.923 . S
Zn26 O29 1.933 . S
Zn26 O32 1.941 . S
Zn26 O33 1.965 . S
Zn27 O25 1.950 . S
Zn27 O34 1.938 . S
Zn27 O35 1.906 1_545 S
Zn27 O45 1.953 . S
Zn28 O25 1.945 1_565 S
Zn28 O30 1.932 . S
Zn28 O37 1.977 . S
Zn28 O38 1.910 . S
O29 Zn26 1.933 . S
O29 C40 1.226 . S
O30 Zn28 1.932 . S
O30 C40 1.307 1_565 S
O31 Zn24 1.919 . S
O31 C42 1.253 . S
O32 Zn26 1.941 . S
O32 C42 1.283 . S
O33 Zn26 1.965 . S
O33 C41 1.303 . S
O34 Zn27 1.938 . S
O34 C41 1.247 . S
O35 Zn27 1.906 1_565 S
O35 C43 1.304 . S
O36 Zn24 1.924 1_565 S
O36 C44 1.311 . S
O37 Zn28 1.977 . S
O37 C43 1.272 . S
O38 Zn28 1.910 . S
O38 C44 1.231 . S
C39 O23 1.225 . S
C39 O45 1.302 . S
C40 O29 1.226 . S
C40 O30 1.307 1_545 S
C41 O33 1.303 . S
C41 O34 1.247 . S
C42 O31 1.253 . S
C42 O32 1.283 . S
C43 O35 1.304 . S
C43 O37 1.272 . S
C44 O36 1.311 . S
C44 O38 1.231 . S
O45 Zn27 1.953 . S
O45 C39 1.302 . S
O46 Zn47 1.953 . S
O46 C62 1.225 . S
Zn47 O46 1.953 . S
Zn47 O48 1.949 . S
Zn47 O54 1.919 . S
Zn47 O59 1.924 . S
O48 Zn47 1.949 . S
O48 Zn49 1.923 . S
O48 Zn50 1.950 . S
O48 Zn51 1.945 . S
Zn49 O48 1.923 . S
Zn49 O52 1.933 . S
Zn49 O55 1.941 . S
Zn49 O56 1.965 . S
Zn50 O48 1.950 . S
Zn50 O57 1.938 . S
Zn50 O58 1.906 . S
Zn50 O68 1.953 . S
Zn51 O48 1.945 . S
Zn51 O53 1.932 . S
Zn51 O60 1.977 . S
Zn51 O61 1.910 . S
O52 Zn49 1.933 . S
O52 C63 1.226 . S
O53 Zn51 1.932 . S
O53 C63 1.307 . S
O54 Zn47 1.919 . S
O54 C65 1.253 . S
O55 Zn49 1.941 . S
O55 C65 1.283 . S
O56 Zn49 1.965 . S
O56 C64 1.303 . S
O57 Zn50 1.938 . S
O57 C64 1.247 . S
O58 Zn50 1.906 . S
O58 C66 1.304 . S
O59 Zn47 1.924 . S
O59 C67 1.311 . S
O60 Zn51 1.977 . S
O60 C66 1.272 . S
O61 Zn51 1.910 . S
O61 C67 1.231 . S
C62 O46 1.225 . S
C62 O68 1.298 . S
C63 O52 1.226 . S
C63 O53 1.307 . S
C64 O56 1.303 . S
C64 O57 1.247 . S
C65 O54 1.253 . S
C65 O55 1.283 . S
C66 O58 1.304 . S
C66 O60 1.272 . S
C67 O59 1.311 . S
C67 O61 1.231 . S
O68 Zn50 1.953 . S
O68 C62 1.298 . S
P69 O80 1.490 . S
P69 C83 1.812 . S
P69 C89 1.803 1_565 S
P69 C95 1.812 1_565 S
H70 C84 0.941 . S
H71 C85 0.939 . S
H72 C87 0.940 . S
H73 C88 0.940 . S
H74 C90 0.939 . S
H75 C91 0.942 . S
H76 C93 0.940 . S
H77 C94 0.939 . S
H78 C96 0.941 . S
H79 C100 0.939 . S
O80 P69 1.490 . S
H81 C97 0.939 . S
H82 C99 0.940 . S
C83 P69 1.812 . S
C83 C84 1.389 . S
C83 C88 1.391 . S
C84 H70 0.941 . S
C84 C83 1.389 . S
C84 C85 1.397 . S
C85 H71 0.939 . S
C85 C84 1.397 . S
C85 C86 1.378 . S
C86 C85 1.378 . S
C86 C87 1.378 . S
C87 H72 0.940 . S
C87 C86 1.378 . S
C87 C88 1.396 . S
C88 H73 0.940 . S
C88 C83 1.391 . S
C88 C87 1.396 . S
C89 P69 1.803 1_545 S
C89 C90 1.378 . S
C89 C94 1.400 . S
C90 H74 0.939 . S
C90 C89 1.378 . S
C90 C91 1.361 . S
C91 H75 0.942 . S
C91 C90 1.361 . S
C91 C92 1.369 . S
C92 C91 1.369 . S
C92 C93 1.404 . S
C93 H76 0.940 . S
C93 C92 1.404 . S
C93 C94 1.389 . S
C94 H77 0.939 . S
C94 C89 1.400 . S
C94 C93 1.389 . S
C95 P69 1.812 1_545 S
C95 C96 1.378 1_545 S
C95 C100 1.411 . S
C96 H78 0.941 . S
C96 C95 1.378 1_565 S
C96 C97 1.396 . S
C97 H81 0.939 . S
C97 C96 1.396 . S
C97 C98 1.397 1_565 S
C98 C97 1.397 1_545 S
C98 C99 1.385 . S
C99 H82 0.940 . S
C99 C98 1.385 . S
C99 C100 1.388 . S
C100 H79 0.939 . S
C100 C95 1.411 . S
C100 C99 1.388 . S
P101 O112 1.490 . S
P101 C115 1.812 . S
P101 C121 1.803 . S
P101 C127 1.819 . S
H102 C116 0.941 . S
H103 C117 0.939 . S
H104 C119 0.940 . S
H105 C120 0.940 . S
H106 C122 0.939 . S
H107 C123 0.942 . S
H108 C125 0.940 . S
H109 C126 0.939 . S
H110 C128 0.941 . S
H111 C132 0.939 . S
O112 P101 1.490 . S
H113 C129 0.939 . S
H114 C131 0.940 . S
C115 P101 1.812 . S
C115 C116 1.389 . S
C115 C120 1.391 . S
C116 H102 0.941 . S
C116 C115 1.389 . S
C116 C117 1.397 . S
C117 H103 0.939 . S
C117 C116 1.397 . S
C117 C118 1.378 . S
C118 C117 1.378 . S
C118 C119 1.378 . S
C119 H104 0.940 . S
C119 C118 1.378 . S
C119 C120 1.396 . S
C120 H105 0.940 . S
C120 C115 1.391 . S
C120 C119 1.396 . S
C121 P101 1.803 . S
C121 C122 1.378 . S
C121 C126 1.400 . S
C122 H106 0.939 . S
C122 C121 1.378 . S
C122 C123 1.361 . S
C123 H107 0.942 . S
C123 C122 1.361 . S
C123 C124 1.369 . S
C124 C123 1.369 . S
C124 C125 1.404 . S
C125 H108 0.940 . S
C125 C124 1.404 . S
C125 C126 1.389 . S
C126 H109 0.939 . S
C126 C121 1.400 . S
C126 C125 1.389 . S
C127 P101 1.819 . S
C127 C128 1.391 . S
C127 C132 1.391 . S
C128 H110 0.941 . S
C128 C127 1.391 . S
C128 C129 1.396 . S
C129 H113 0.939 . S
C129 C128 1.396 . S
C129 C130 1.397 . S
C130 C129 1.397 . S
C130 C131 1.385 . S
C131 H114 0.940 . S
C131 C130 1.385 . S
C131 C132 1.388 . S
C132 H111 0.939 . S
C132 C127 1.391 . S
C132 C131 1.388 . S
P133 O144 1.490 . S
P133 C147 1.812 . S
P133 C153 1.806 1_455 S
P133 C159 1.819 . S
H134 C148 0.941 . S
H135 C149 0.939 . S
H136 C151 0.940 . S
H137 C152 0.940 . S
H138 C154 0.939 . S
H139 C155 0.942 . S
H140 C157 0.940 . S
H141 C158 0.939 . S
H142 C160 0.941 . S
H143 C164 0.954 . S
O144 P133 1.490 . S
H145 C161 0.939 . S
H146 C163 0.940 . S
C147 P133 1.812 . S
C147 C148 1.389 . S
C147 C152 1.391 . S
C148 H134 0.941 . S
C148 C147 1.389 . S
C148 C149 1.397 . S
C149 H135 0.939 . S
C149 C148 1.397 . S
C149 C150 1.378 . S
C150 C149 1.378 . S
C150 C151 1.378 . S
C151 H136 0.940 . S
C151 C150 1.378 . S
C151 C152 1.396 . S
C152 H137 0.940 . S
C152 C147 1.391 . S
C152 C151 1.396 . S
C153 P133 1.806 1_655 S
C153 C154 1.376 . S
C153 C158 1.400 . S
C154 H138 0.939 . S
C154 C153 1.376 . S
C154 C155 1.361 . S
C155 H139 0.942 . S
C155 C154 1.361 . S
C155 C156 1.369 . S
C156 C155 1.369 . S
C156 C157 1.404 . S
C157 H140 0.940 . S
C157 C156 1.404 . S
C157 C158 1.389 . S
C158 H141 0.939 . S
C158 C153 1.400 . S
C158 C157 1.389 . S
C159 P133 1.819 . S
C159 C160 1.391 . S
C159 C164 1.378 1_455 S
C160 H142 0.941 . S
C160 C159 1.391 . S
C160 C161 1.396 . S
C161 H145 0.939 . S
C161 C160 1.396 . S
C161 C162 1.397 . S
C162 C161 1.397 . S
C162 C163 1.385 1_455 S
C163 H146 0.940 . S
C163 C162 1.385 1_655 S
C163 C164 1.387 . S
C164 H143 0.954 . S
C164 C159 1.378 1_655 S
C164 C163 1.387 . S
P165 O176 1.490 . S
P165 C179 1.812 . S
P165 C185 1.803 1_455 S
P165 C191 1.819 . S
H166 C180 0.941 . S
H167 C181 0.939 . S
H168 C183 0.940 . S
H169 C184 0.940 . S
H170 C186 0.939 . S
H171 C187 0.942 . S
H172 C189 0.940 . S
H173 C190 0.939 . S
H174 C192 0.941 . S
H175 C196 0.939 . S
O176 P165 1.490 . S
H177 C193 0.939 . S
H178 C195 0.940 . S
C179 P165 1.812 . S
C179 C180 1.389 . S
C179 C184 1.391 . S
C180 H166 0.941 . S
C180 C179 1.389 . S
C180 C181 1.397 . S
C181 H167 0.939 . S
C181 C180 1.397 . S
C181 C182 1.378 . S
C182 C181 1.378 . S
C182 C183 1.378 . S
C183 H168 0.940 . S
C183 C182 1.378 . S
C183 C184 1.396 . S
C184 H169 0.940 . S
C184 C179 1.391 . S
C184 C183 1.396 . S
C185 P165 1.803 1_655 S
C185 C186 1.378 . S
C185 C190 1.400 . S
C186 H170 0.939 . S
C186 C185 1.378 . S
C186 C187 1.361 . S
C187 H171 0.942 . S
C187 C186 1.361 . S
C187 C188 1.369 . S
C188 C187 1.369 . S
C188 C189 1.404 . S
C189 H172 0.940 . S
C189 C188 1.404 . S
C189 C190 1.389 . S
C190 H173 0.939 . S
C190 C185 1.400 . S
C190 C189 1.389 . S
C191 P165 1.819 . S
C191 C192 1.391 . S
C191 C196 1.391 1_455 S
C192 H174 0.941 . S
C192 C191 1.391 . S
C192 C193 1.396 . S
C193 H177 0.939 . S
C193 C192 1.396 . S
C193 C194 1.397 . S
C194 C193 1.397 . S
C194 C195 1.385 1_455 S
C195 H178 0.940 . S
C195 C194 1.385 1_655 S
C195 C196 1.388 . S
C196 H175 0.939 . S
C196 C191 1.391 1_655 S
C196 C195 1.388 . S
P197 O208 1.490 . S
P197 C211 1.812 . S
P197 C217 1.803 1_545 S
P197 C223 1.819 . S
H198 C212 0.941 . S
H199 C213 0.939 . S
H200 C215 0.940 . S
H201 C216 0.940 . S
H202 C218 0.939 . S
H203 C219 0.942 . S
H204 C221 0.940 . S
H205 C222 0.939 . S
H206 C224 0.941 . S
H207 C228 0.939 . S
O208 P197 1.490 . S
H209 C225 0.939 . S
H210 C227 0.940 . S
C211 P197 1.812 . S
C211 C212 1.389 . S
C211 C216 1.391 . S
C212 H198 0.941 . S
C212 C211 1.389 . S
C212 C213 1.397 . S
C213 H199 0.939 . S
C213 C212 1.397 . S
C213 C214 1.378 . S
C214 C213 1.378 . S
C214 C215 1.378 . S
C215 H200 0.940 . S
C215 C214 1.378 . S
C215 C216 1.396 . S
C216 H201 0.940 . S
C216 C211 1.391 . S
C216 C215 1.396 . S
C217 P197 1.803 1_565 S
C217 C218 1.378 . S
C217 C222 1.400 . S
C218 H202 0.939 . S
C218 C217 1.378 . S
C218 C219 1.361 . S
C219 H203 0.942 . S
C219 C218 1.361 . S
C219 C220 1.369 . S
C220 C219 1.369 . S
C220 C221 1.404 . S
C221 H204 0.940 . S
C221 C220 1.404 . S
C221 C222 1.389 . S
C222 H205 0.939 . S
C222 C217 1.400 . S
C222 C221 1.389 . S
C223 P197 1.819 . S
C223 C224 1.391 . S
C223 C228 1.391 1_545 S
C224 H206 0.941 . S
C224 C223 1.391 . S
C224 C225 1.396 . S
C225 H209 0.939 . S
C225 C224 1.396 . S
C225 C226 1.397 . S
C226 C225 1.397 . S
C226 C227 1.385 1_545 S
C227 H210 0.940 . S
C227 C226 1.385 1_565 S
C227 C228 1.388 . S
C228 H207 0.939 . S
C228 C223 1.391 1_565 S
C228 C227 1.388 . S
P229 O240 1.490 . S
P229 C243 1.812 . S
P229 C249 1.803 . S
P229 C255 1.819 . S
H230 C244 0.941 . S
H231 C245 0.939 . S
H232 C247 0.940 . S
H233 C248 0.940 . S
H234 C250 0.939 . S
H235 C251 0.942 . S
H236 C253 0.940 . S
H237 C254 0.939 . S
H238 C256 0.941 . S
H239 C260 0.939 . S
O240 P229 1.490 . S
H241 C257 0.939 . S
H242 C259 0.940 . S
C243 P229 1.812 . S
C243 C244 1.389 . S
C243 C248 1.391 . S
C244 H230 0.941 . S
C244 C243 1.389 . S
C244 C245 1.397 . S
C245 H231 0.939 . S
C245 C244 1.397 . S
C245 C246 1.378 . S
C246 C245 1.378 . S
C246 C247 1.378 . S
C247 H232 0.940 . S
C247 C246 1.378 . S
C247 C248 1.396 . S
C248 H233 0.940 . S
C248 C243 1.391 . S
C248 C247 1.396 . S
C249 P229 1.803 . S
C249 C250 1.378 . S
C249 C254 1.400 . S
C250 H234 0.939 . S
C250 C249 1.378 . S
C250 C251 1.361 . S
C251 H235 0.942 . S
C251 C250 1.361 . S
C251 C252 1.369 . S
C252 C251 1.369 . S
C252 C253 1.404 . S
C253 H236 0.940 . S
C253 C252 1.404 . S
C253 C254 1.389 . S
C254 H237 0.939 . S
C254 C249 1.400 . S
C254 C253 1.389 . S
C255 P229 1.819 . S
C255 C256 1.391 . S
C255 C260 1.391 . S
C256 H238 0.941 . S
C256 C255 1.391 . S
C256 C257 1.396 . S
C257 H241 0.939 . S
C257 C256 1.396 . S
C257 C258 1.397 . S
C258 C257 1.397 . S
C258 C259 1.385 . S
C259 H242 0.940 . S
C259 C258 1.385 . S
C259 C260 1.388 . S
C260 H239 0.939 . S
C260 C255 1.391 . S
C260 C259 1.388 . S
H261 C273 0.930 . S
H262 C275 0.930 . S
H263 C276 0.930 . S
H264 C280 0.959 . S
H265 C280 0.959 . S
H266 C280 0.961 . S
H267 C281 0.960 . S
H268 C281 0.961 . S
H269 C281 0.959 . S
H270 C284 0.929 . S
H271 C285 0.931 . S
H272 C287 0.930 . S
C273 H261 0.930 . S
C273 C274 1.399 . S
C273 C278 1.399 . S
C274 C273 1.399 . S
C274 C275 1.376 . S
C275 H262 0.930 . S
C275 C274 1.376 . S
C275 C276 1.388 . S
C276 H263 0.930 . S
C276 C275 1.388 . S
C276 C277 1.390 . S
C277 C276 1.390 . S
C277 C278 1.394 . S
C277 C283 1.465 . S
C278 C273 1.399 . S
C278 C277 1.394 . S
C278 C279 1.516 . S
C279 C278 1.516 . S
C279 C280 1.502 . S
C279 C281 1.561 . S
C279 C282 1.526 . S
C280 H264 0.959 . S
C280 H265 0.959 . S
C280 H266 0.961 . S
C280 C279 1.502 . S
C281 H267 0.960 . S
C281 H268 0.961 . S
C281 H269 0.959 . S
C281 C279 1.561 . S
C282 C279 1.526 . S
C282 C283 1.396 . S
C282 C287 1.390 . S
C283 C277 1.465 . S
C283 C282 1.396 . S
C283 C284 1.399 . S
C284 H270 0.929 . S
C284 C283 1.399 . S
C284 C285 1.385 . S
C285 H271 0.931 . S
C285 C284 1.385 . S
C285 C286 1.389 . S
C286 C285 1.389 . S
C286 C287 1.387 . S
C287 H272 0.930 . S
C287 C282 1.390 . S
C287 C286 1.387 . S
H288 C300 0.930 . S
H289 C302 0.930 . S
H290 C303 0.930 . S
H291 C307 0.959 . S
H292 C307 0.959 . S
H293 C307 0.961 . S
H294 C308 0.960 . S
H295 C308 0.961 . S
H296 C308 0.959 . S
H297 C311 0.929 . S
H298 C312 0.931 . S
H299 C314 0.930 . S
C300 H288 0.930 . S
C300 C301 1.399 . S
C300 C305 1.399 . S
C301 C300 1.399 . S
C301 C302 1.376 . S
C302 H289 0.930 . S
C302 C301 1.376 . S
C302 C303 1.388 . S
C303 H290 0.930 . S
C303 C302 1.388 . S
C303 C304 1.390 . S
C304 C303 1.390 . S
C304 C305 1.394 . S
C304 C310 1.465 . S
C305 C300 1.399 . S
C305 C304 1.394 . S
C305 C306 1.516 . S
C306 C305 1.516 . S
C306 C307 1.502 . S
C306 C308 1.561 . S
C306 C309 1.526 . S
C307 H291 0.959 . S
C307 H292 0.959 . S
C307 H293 0.961 . S
C307 C306 1.502 . S
C308 H294 0.960 . S
C308 H295 0.961 . S
C308 H296 0.959 . S
C308 C306 1.561 . S
C309 C306 1.526 . S
C309 C310 1.396 . S
C309 C314 1.390 . S
C310 C304 1.465 . S
C310 C309 1.396 . S
C310 C311 1.399 . S
C311 H297 0.929 . S
C311 C310 1.399 . S
C311 C312 1.385 . S
C312 H298 0.931 . S
C312 C311 1.385 . S
C312 C313 1.389 . S
C313 C312 1.389 . S
C313 C314 1.387 . S
C314 H299 0.930 . S
C314 C309 1.390 . S
C314 C313 1.387 . S
H315 C327 0.930 . S
H316 C329 0.930 . S
H317 C330 0.930 . S
H318 C334 0.959 . S
H319 C334 0.959 . S
H320 C334 0.961 . S
H321 C335 0.960 . S
H322 C335 0.961 . S
H323 C335 0.959 . S
H324 C338 0.929 . S
H325 C339 0.931 . S
H326 C341 0.930 . S
C327 H315 0.930 . S
C327 C328 1.399 . S
C327 C332 1.399 . S
C328 C327 1.399 . S
C328 C329 1.376 . S
C329 H316 0.930 . S
C329 C328 1.376 . S
C329 C330 1.388 . S
C330 H317 0.930 . S
C330 C329 1.388 . S
C330 C331 1.390 . S
C331 C330 1.390 . S
C331 C332 1.394 . S
C331 C337 1.465 . S
C332 C327 1.399 . S
C332 C331 1.394 . S
C332 C333 1.516 . S
C333 C332 1.516 . S
C333 C334 1.502 . S
C333 C335 1.561 . S
C333 C336 1.526 . S
C334 H318 0.959 . S
C334 H319 0.959 . S
C334 H320 0.961 . S
C334 C333 1.502 . S
C335 H321 0.960 . S
C335 H322 0.961 . S
C335 H323 0.959 . S
C335 C333 1.561 . S
C336 C333 1.526 . S
C336 C337 1.396 . S
C336 C341 1.390 . S
C337 C331 1.465 . S
C337 C336 1.396 . S
C337 C338 1.399 . S
C338 H324 0.929 . S
C338 C337 1.399 . S
C338 C339 1.385 . S
C339 H325 0.931 . S
C339 C338 1.385 . S
C339 C340 1.389 . S
C340 C339 1.389 . S
C340 C341 1.387 . S
C341 H326 0.930 . S
C341 C336 1.390 . S
C341 C340 1.387 . S
H342 C354 0.930 . S
H343 C356 0.930 . S
H344 C357 0.930 . S
H345 C361 0.959 . S
H346 C361 0.959 . S
H347 C361 0.961 . S
H348 C362 0.960 . S
H349 C362 0.961 . S
H350 C362 0.959 . S
H351 C365 0.929 . S
H352 C366 0.931 . S
H353 C368 0.930 . S
C354 H342 0.930 . S
C354 C355 1.399 . S
C354 C359 1.399 . S
C355 C354 1.399 . S
C355 C356 1.376 . S
C356 H343 0.930 . S
C356 C355 1.376 . S
C356 C357 1.388 . S
C357 H344 0.930 . S
C357 C356 1.388 . S
C357 C358 1.390 . S
C358 C357 1.390 . S
C358 C359 1.394 . S
C358 C364 1.465 . S
C359 C354 1.399 . S
C359 C358 1.394 . S
C359 C360 1.516 . S
C360 C359 1.516 . S
C360 C361 1.502 . S
C360 C362 1.561 . S
C360 C363 1.526 . S
C361 H345 0.959 . S
C361 H346 0.959 . S
C361 H347 0.961 . S
C361 C360 1.502 . S
C362 H348 0.960 . S
C362 H349 0.961 . S
C362 H350 0.959 . S
C362 C360 1.561 . S
C363 C360 1.526 . S
C363 C364 1.396 . S
C363 C368 1.390 . S
C364 C358 1.465 . S
C364 C363 1.396 . S
C364 C365 1.399 . S
C365 H351 0.929 . S
C365 C364 1.399 . S
C365 C366 1.385 . S
C366 H352 0.931 . S
C366 C365 1.385 . S
C366 C367 1.389 . S
C367 C366 1.389 . S
C367 C368 1.387 . S
C368 H353 0.930 . S
C368 C363 1.390 . S
C368 C367 1.387 . S
H369 C381 0.930 . S
H370 C383 0.930 . S
H371 C384 0.930 . S
H372 C388 0.959 . S
H373 C388 0.959 . S
H374 C388 0.961 . S
H375 C389 0.960 . S
H376 C389 0.961 . S
H377 C389 0.959 . S
H378 C392 0.929 . S
H379 C393 0.931 . S
H380 C395 0.930 . S
C381 H369 0.930 . S
C381 C382 1.399 . S
C381 C386 1.399 . S
C382 C381 1.399 . S
C382 C383 1.376 . S
C383 H370 0.930 . S
C383 C382 1.376 . S
C383 C384 1.388 . S
C384 H371 0.930 . S
C384 C383 1.388 . S
C384 C385 1.390 . S
C385 C384 1.390 . S
C385 C386 1.394 . S
C385 C391 1.465 . S
C386 C381 1.399 . S
C386 C385 1.394 . S
C386 C387 1.516 . S
C387 C386 1.516 . S
C387 C388 1.502 . S
C387 C389 1.561 . S
C387 C390 1.526 . S
C388 H372 0.959 . S
C388 H373 0.959 . S
C388 H374 0.961 . S
C388 C387 1.502 . S
C389 H375 0.960 . S
C389 H376 0.961 . S
C389 H377 0.959 . S
C389 C387 1.561 . S
C390 C387 1.526 . S
C390 C391 1.396 . S
C390 C395 1.390 . S
C391 C385 1.465 . S
C391 C390 1.396 . S
C391 C392 1.399 . S
C392 H378 0.929 . S
C392 C391 1.399 . S
C392 C393 1.385 . S
C393 H379 0.931 . S
C393 C392 1.385 . S
C393 C394 1.389 . S
C394 C393 1.389 . S
C394 C395 1.387 . S
C395 H380 0.930 . S
C395 C390 1.390 . S
C395 C394 1.387 . S
H396 C408 0.930 . S
H397 C410 0.930 . S
H398 C411 0.930 . S
H399 C415 0.959 . S
H400 C415 0.959 . S
H401 C415 0.961 . S
H402 C416 0.960 . S
H403 C416 0.961 . S
H404 C416 0.959 . S
H405 C419 0.929 . S
H406 C420 0.931 . S
H407 C422 0.930 . S
C408 H396 0.930 . S
C408 C409 1.399 . S
C408 C413 1.399 . S
C409 C408 1.399 . S
C409 C410 1.376 . S
C410 H397 0.930 . S
C410 C409 1.376 . S
C410 C411 1.388 . S
C411 H398 0.930 . S
C411 C410 1.388 . S
C411 C412 1.390 . S
C412 C411 1.390 . S
C412 C413 1.394 . S
C412 C418 1.465 . S
C413 C408 1.399 . S
C413 C412 1.394 . S
C413 C414 1.516 . S
C414 C413 1.516 . S
C414 C415 1.502 . S
C414 C416 1.561 . S
C414 C417 1.526 . S
C415 H399 0.959 . S
C415 H400 0.959 . S
C415 H401 0.961 . S
C415 C414 1.502 . S
C416 H402 0.960 . S
C416 H403 0.961 . S
C416 H404 0.959 . S
C416 C414 1.561 . S
C417 C414 1.526 . S
C417 C418 1.396 . S
C417 C422 1.390 . S
C418 C412 1.465 . S
C418 C417 1.396 . S
C418 C419 1.399 . S
C419 H405 0.929 . S
C419 C418 1.399 . S
C419 C420 1.385 . S
C420 H406 0.931 . S
C420 C419 1.385 . S
C420 C421 1.389 . S
C421 C420 1.389 . S
C421 C422 1.387 . S
C422 H407 0.930 . S
C422 C417 1.390 . S
C422 C421 1.387 . S
H423 C435 0.930 . S
H424 C437 0.930 . S
H425 C438 0.930 . S
H426 C442 0.959 . S
H427 C442 0.959 . S
H428 C442 0.961 . S
H429 C443 0.960 . S
H430 C443 0.961 . S
H431 C443 0.959 . S
H432 C446 0.929 . S
H433 C447 0.931 . S
H434 C449 0.930 . S
C435 H423 0.930 . S
C435 C436 1.399 . S
C435 C440 1.399 . S
C436 C435 1.399 . S
C436 C437 1.376 . S
C437 H424 0.930 . S
C437 C436 1.376 . S
C437 C438 1.388 . S
C438 H425 0.930 . S
C438 C437 1.388 . S
C438 C439 1.390 . S
C439 C438 1.390 . S
C439 C440 1.394 . S
C439 C445 1.465 . S
C440 C435 1.399 . S
C440 C439 1.394 . S
C440 C441 1.516 . S
C441 C440 1.516 . S
C441 C442 1.502 . S
C441 C443 1.561 . S
C441 C444 1.526 . S
C442 H426 0.959 . S
C442 H427 0.959 . S
C442 H428 0.961 . S
C442 C441 1.502 . S
C443 H429 0.960 . S
C443 H430 0.961 . S
C443 H431 0.959 . S
C443 C441 1.561 . S
C444 C441 1.526 . S
C444 C445 1.396 . S
C444 C449 1.390 . S
C445 C439 1.465 . S
C445 C444 1.396 . S
C445 C446 1.399 . S
C446 H432 0.929 . S
C446 C445 1.399 . S
C446 C447 1.385 . S
C447 H433 0.931 . S
C447 C446 1.385 . S
C447 C448 1.389 . S
C448 C447 1.389 . S
C448 C449 1.387 . S
C449 H434 0.930 . S
C449 C444 1.390 . S
C449 C448 1.387 . S
H450 C462 0.930 . S
H451 C464 0.930 . S
H452 C465 0.930 . S
H453 C469 0.959 . S
H454 C469 0.959 . S
H455 C469 0.961 . S
H456 C470 0.960 . S
H457 C470 0.961 . S
H458 C470 0.959 . S
H459 C473 0.929 . S
H460 C474 0.931 . S
H461 C476 0.930 . S
C462 H450 0.930 . S
C462 C463 1.399 . S
C462 C467 1.399 . S
C463 C462 1.399 . S
C463 C464 1.376 . S
C464 H451 0.930 . S
C464 C463 1.376 . S
C464 C465 1.388 . S
C465 H452 0.930 . S
C465 C464 1.388 . S
C465 C466 1.390 . S
C466 C465 1.390 . S
C466 C467 1.394 . S
C466 C472 1.465 . S
C467 C462 1.399 . S
C467 C466 1.394 . S
C467 C468 1.516 . S
C468 C467 1.516 . S
C468 C469 1.502 . S
C468 C470 1.561 . S
C468 C471 1.526 . S
C469 H453 0.959 . S
C469 H454 0.959 . S
C469 H455 0.961 . S
C469 C468 1.502 . S
C470 H456 0.960 . S
C470 H457 0.961 . S
C470 H458 0.959 . S
C470 C468 1.561 . S
C471 C468 1.526 . S
C471 C472 1.396 . S
C471 C476 1.390 . S
C472 C466 1.465 . S
C472 C471 1.396 . S
C472 C473 1.399 . S
C473 H459 0.929 . S
C473 C472 1.399 . S
C473 C474 1.385 . S
C474 H460 0.931 . S
C474 C473 1.385 . S
C474 C475 1.389 . S
C475 C474 1.389 . S
C475 C476 1.387 . S
C476 H461 0.930 . S
C476 C471 1.390 . S
C476 C475 1.387 . S
H477 C489 0.930 . S
H478 C491 0.930 . S
H479 C492 0.930 . S
H480 C496 0.959 . S
H481 C496 0.959 . S
H482 C496 0.961 . S
H483 C497 0.960 . S
H484 C497 0.961 . S
H485 C497 0.959 . S
H486 C500 0.929 . S
H487 C501 0.931 . S
H488 C503 0.930 . S
C489 H477 0.930 . S
C489 C490 1.399 . S
C489 C494 1.399 . S
C490 C489 1.399 . S
C490 C491 1.376 . S
C491 H478 0.930 . S
C491 C490 1.376 . S
C491 C492 1.388 . S
C492 H479 0.930 . S
C492 C491 1.388 . S
C492 C493 1.390 . S
C493 C492 1.390 . S
C493 C494 1.394 . S
C493 C499 1.465 . S
C494 C489 1.399 . S
C494 C493 1.394 . S
C494 C495 1.516 . S
C495 C494 1.516 . S
C495 C496 1.502 . S
C495 C497 1.561 . S
C495 C498 1.526 . S
C496 H480 0.959 . S
C496 H481 0.959 . S
C496 H482 0.961 . S
C496 C495 1.502 . S
C497 H483 0.960 . S
C497 H484 0.961 . S
C497 H485 0.959 . S
C497 C495 1.561 . S
C498 C495 1.526 . S
C498 C499 1.396 . S
C498 C503 1.390 . S
C499 C493 1.465 . S
C499 C498 1.396 . S
C499 C500 1.399 . S
C500 H486 0.929 . S
C500 C499 1.399 . S
C500 C501 1.385 . S
C501 H487 0.931 . S
C501 C500 1.385 . S
C501 C502 1.389 . S
C502 C501 1.389 . S
C502 C503 1.387 . S
C503 H488 0.930 . S
C503 C498 1.390 . S
C503 C502 1.387 . S
H504 C516 0.930 . S
H505 C518 0.930 . S
H506 C519 0.930 . S
H507 C523 0.959 . S
H508 C523 0.959 . S
H509 C523 0.961 . S
H510 C524 0.960 . S
H511 C524 0.961 . S
H512 C524 0.959 . S
H513 C527 0.929 . S
H514 C528 0.931 . S
H515 C530 0.930 . S
C516 H504 0.930 . S
C516 C517 1.399 . S
C516 C521 1.399 . S
C517 C516 1.399 . S
C517 C518 1.376 . S
C518 H505 0.930 . S
C518 C517 1.376 . S
C518 C519 1.388 . S
C519 H506 0.930 . S
C519 C518 1.388 . S
C519 C520 1.390 . S
C520 C519 1.390 . S
C520 C521 1.394 . S
C520 C526 1.465 . S
C521 C516 1.399 . S
C521 C520 1.394 . S
C521 C522 1.516 . S
C522 C521 1.516 . S
C522 C523 1.502 . S
C522 C524 1.561 . S
C522 C525 1.526 . S
C523 H507 0.959 . S
C523 H508 0.959 . S
C523 H509 0.961 . S
C523 C522 1.502 . S
C524 H510 0.960 . S
C524 H511 0.961 . S
C524 H512 0.959 . S
C524 C522 1.561 . S
C525 C522 1.526 . S
C525 C526 1.396 . S
C525 C530 1.390 . S
C526 C520 1.465 . S
C526 C525 1.396 . S
C526 C527 1.399 . S
C527 H513 0.929 . S
C527 C526 1.399 . S
C527 C528 1.385 . S
C528 H514 0.931 . S
C528 C527 1.385 . S
C528 C529 1.389 . S
C529 C528 1.389 . S
C529 C530 1.387 . S
C530 H515 0.930 . S
C530 C525 1.390 . S
C530 C529 1.387 . S
H531 C543 0.930 . S
H532 C545 0.930 . S
H533 C546 0.930 . S
H534 C550 0.959 . S
H535 C550 0.959 . S
H536 C550 0.961 . S
H537 C551 0.960 . S
H538 C551 0.961 . S
H539 C551 0.959 . S
H540 C554 0.929 . S
H541 C555 0.931 . S
H542 C557 0.930 . S
C543 H531 0.930 . S
C543 C544 1.399 . S
C543 C548 1.399 . S
C544 C543 1.399 . S
C544 C545 1.376 . S
C545 H532 0.930 . S
C545 C544 1.376 . S
C545 C546 1.388 . S
C546 H533 0.930 . S
C546 C545 1.388 . S
C546 C547 1.390 . S
C547 C546 1.390 . S
C547 C548 1.394 . S
C547 C553 1.465 . S
C548 C543 1.399 . S
C548 C547 1.394 . S
C548 C549 1.516 . S
C549 C548 1.516 . S
C549 C550 1.502 . S
C549 C551 1.561 . S
C549 C552 1.526 . S
C550 H534 0.959 . S
C550 H535 0.959 . S
C550 H536 0.961 . S
C550 C549 1.502 . S
C551 H537 0.960 . S
C551 H538 0.961 . S
C551 H539 0.959 . S
C551 C549 1.561 . S
C552 C549 1.526 . S
C552 C553 1.396 . S
C552 C557 1.390 . S
C553 C547 1.465 . S
C553 C552 1.396 . S
C553 C554 1.399 . S
C554 H540 0.929 . S
C554 C553 1.399 . S
C554 C555 1.385 . S
C555 H541 0.931 . S
C555 C554 1.385 . S
C555 C556 1.389 . S
C556 C555 1.389 . S
C556 C557 1.387 . S
C557 H542 0.930 . S
C557 C552 1.390 . S
C557 C556 1.387 . S
H558 C570 0.930 . S
H559 C572 0.930 . S
H560 C573 0.930 . S
H561 C577 0.959 . S
H562 C577 0.959 . S
H563 C577 0.961 . S
H564 C578 0.960 . S
H565 C578 0.961 . S
H566 C578 0.959 . S
H567 C581 0.929 . S
H568 C582 0.931 . S
H569 C584 0.930 . S
C570 H558 0.930 . S
C570 C571 1.399 . S
C570 C575 1.399 . S
C571 C570 1.399 . S
C571 C572 1.376 . S
C572 H559 0.930 . S
C572 C571 1.376 . S
C572 C573 1.388 . S
C573 H560 0.930 . S
C573 C572 1.388 . S
C573 C574 1.390 . S
C574 C573 1.390 . S
C574 C575 1.394 . S
C574 C580 1.465 . S
C575 C570 1.399 . S
C575 C574 1.394 . S
C575 C576 1.516 . S
C576 C575 1.516 . S
C576 C577 1.502 . S
C576 C578 1.561 . S
C576 C579 1.526 . S
C577 H561 0.959 . S
C577 H562 0.959 . S
C577 H563 0.961 . S
C577 C576 1.502 . S
C578 H564 0.960 . S
C578 H565 0.961 . S
C578 H566 0.959 . S
C578 C576 1.561 . S
C579 C576 1.526 . S
C579 C580 1.396 . S
C579 C584 1.390 . S
C580 C574 1.465 . S
C580 C579 1.396 . S
C580 C581 1.399 . S
C581 H567 0.929 . S
C581 C580 1.399 . S
C581 C582 1.385 . S
C582 H568 0.931 . S
C582 C581 1.385 . S
C582 C583 1.389 . S
C583 C582 1.389 . S
C583 C584 1.387 . S
C584 H569 0.930 . S
C584 C579 1.390 . S
C584 C583 1.387 . S
H585 C597 0.930 . S
H586 C599 0.922 1_655 S
H587 C600 0.930 . S
H588 C604 0.959 . S
H589 C604 0.959 . S
H590 C604 0.961 . S
H591 C605 0.960 . S
H592 C605 0.961 . S
H593 C605 0.959 . S
H594 C608 0.929 1_655 S
H595 C609 0.931 . S
H596 C611 0.928 . S
C597 H585 0.930 . S
C597 C598 1.399 . S
C597 C602 1.399 . S
C598 C597 1.399 . S
C598 C599 1.387 . S
C599 H586 0.922 1_455 S
C599 C598 1.387 . S
C599 C600 1.386 1_455 S
C600 H587 0.930 . S
C600 C599 1.386 1_655 S
C600 C601 1.390 1_655 S
C601 C600 1.390 1_455 S
C601 C602 1.394 . S
C601 C607 1.465 . S
C602 C597 1.399 . S
C602 C601 1.394 . S
C602 C603 1.516 . S
C603 C602 1.516 . S
C603 C604 1.502 . S
C603 C605 1.561 1_455 S
C603 C606 1.526 . S
C604 H588 0.959 . S
C604 H589 0.959 . S
C604 H590 0.961 . S
C604 C603 1.502 . S
C605 H591 0.960 . S
C605 H592 0.961 . S
C605 H593 0.959 . S
C605 C603 1.561 1_655 S
C606 C603 1.526 . S
C606 C607 1.396 . S
C606 C611 1.390 . S
C607 C601 1.465 . S
C607 C606 1.396 . S
C607 C608 1.399 . S
C608 H594 0.929 1_455 S
C608 C607 1.399 . S
C608 C609 1.385 1_554 S
C609 H595 0.931 . S
C609 C608 1.385 1_556 S
C609 C610 1.389 . S
C610 C609 1.389 . S
C610 C611 1.387 1_556 S
C611 H596 0.928 . S
C611 C606 1.390 . S
C611 C610 1.387 1_554 S
H612 C624 0.930 . S
H613 C626 0.930 . S
H614 C627 0.930 . S
H615 C631 0.959 . S
H616 C631 0.959 . S
H617 C631 0.961 . S
H618 C632 0.960 . S
H619 C632 0.961 . S
H620 C632 0.959 . S
H621 C635 0.929 . S
H622 C636 0.931 . S
H623 C638 0.930 . S
C624 H612 0.930 . S
C624 C625 1.399 . S
C624 C629 1.399 . S
C625 C624 1.399 . S
C625 C626 1.376 1_545 S
C626 H613 0.930 . S
C626 C625 1.376 1_565 S
C626 C627 1.388 . S
C627 H614 0.930 . S
C627 C626 1.388 . S
C627 C628 1.390 . S
C628 C627 1.390 . S
C628 C629 1.394 1_565 S
C628 C634 1.465 . S
C629 C624 1.399 . S
C629 C628 1.394 1_545 S
C629 C630 1.516 . S
C630 C629 1.516 . S
C630 C631 1.502 . S
C630 C632 1.561 . S
C630 C633 1.526 . S
C631 H615 0.959 . S
C631 H616 0.959 . S
C631 H617 0.961 . S
C631 C630 1.502 . S
C632 H618 0.960 . S
C632 H619 0.961 . S
C632 H620 0.959 . S
C632 C630 1.561 . S
C633 C630 1.526 . S
C633 C634 1.396 1_545 S
C633 C638 1.390 . S
C634 C628 1.465 . S
C634 C633 1.396 1_565 S
C634 C635 1.399 . S
C635 H621 0.929 . S
C635 C634 1.399 . S
C635 C636 1.385 . S
C636 H622 0.931 . S
C636 C635 1.385 . S
C636 C637 1.389 1_565 S
C637 C636 1.389 1_545 S
C637 C638 1.387 . S
C638 H623 0.930 . S
C638 C633 1.390 . S
C638 C637 1.387 . S
H639 C651 0.930 . S
H640 C653 0.930 . S
H641 C654 0.930 . S
H642 C658 0.959 . S
H643 C658 0.959 . S
H644 C658 0.961 . S
H645 C659 0.960 . S
H646 C659 0.961 . S
H647 C659 0.959 . S
H648 C662 0.929 . S
H649 C663 0.931 . S
H650 C665 0.930 . S
C651 H639 0.930 . S
C651 C652 1.399 . S
C651 C656 1.399 . S
C652 C651 1.399 . S
C652 C653 1.376 . S
C653 H640 0.930 . S
C653 C652 1.376 . S
C653 C654 1.388 . S
C654 H641 0.930 . S
C654 C653 1.388 . S
C654 C655 1.390 . S
C655 C654 1.390 . S
C655 C656 1.394 . S
C655 C661 1.465 . S
C656 C651 1.399 . S
C656 C655 1.394 . S
C656 C657 1.516 . S
C657 C656 1.516 . S
C657 C658 1.502 . S
C657 C659 1.561 . S
C657 C660 1.526 . S
C658 H642 0.959 . S
C658 H643 0.959 . S
C658 H644 0.961 . S
C658 C657 1.502 . S
C659 H645 0.960 . S
C659 H646 0.961 . S
C659 H647 0.959 . S
C659 C657 1.561 . S
C660 C657 1.526 . S
C660 C661 1.396 . S
C660 C665 1.390 . S
C661 C655 1.465 . S
C661 C660 1.396 . S
C661 C662 1.399 . S
C662 H648 0.929 . S
C662 C661 1.399 . S
C662 C663 1.385 . S
C663 H649 0.931 . S
C663 C662 1.385 . S
C663 C664 1.389 . S
C664 C663 1.389 . S
C664 C665 1.387 . S
C665 H650 0.930 . S
C665 C660 1.390 . S
C665 C664 1.387 . S
H666 C678 0.930 . S
H667 C680 0.930 . S
H668 C681 0.930 . S
H669 C685 0.959 . S
H670 C685 0.959 . S
H671 C685 0.961 . S
H672 C686 0.960 . S
H673 C686 0.961 . S
H674 C686 0.959 . S
H675 C689 0.929 . S
H676 C690 0.931 . S
H677 C692 0.930 . S
C678 H666 0.930 . S
C678 C679 1.399 . S
C678 C683 1.399 . S
C679 C678 1.399 . S
C679 C680 1.376 1_545 S
C680 H667 0.930 . S
C680 C679 1.376 1_565 S
C680 C681 1.388 . S
C681 H668 0.930 . S
C681 C680 1.388 . S
C681 C682 1.390 . S
C682 C681 1.390 . S
C682 C683 1.394 1_565 S
C682 C688 1.465 . S
C683 C678 1.399 . S
C683 C682 1.394 1_545 S
C683 C684 1.516 . S
C684 C683 1.516 . S
C684 C685 1.502 . S
C684 C686 1.561 . S
C684 C687 1.526 . S
C685 H669 0.959 . S
C685 H670 0.959 . S
C685 H671 0.961 . S
C685 C684 1.502 . S
C686 H672 0.960 . S
C686 H673 0.961 . S
C686 H674 0.959 . S
C686 C684 1.561 . S
C687 C684 1.526 . S
C687 C688 1.396 1_545 S
C687 C692 1.390 . S
C688 C682 1.465 . S
C688 C687 1.396 1_565 S
C688 C689 1.399 . S
C689 H675 0.929 . S
C689 C688 1.399 . S
C689 C690 1.385 . S
C690 H676 0.931 . S
C690 C689 1.385 . S
C690 C691 1.389 1_565 S
C691 C690 1.389 1_545 S
C691 C692 1.387 . S
C692 H677 0.930 . S
C692 C687 1.390 . S
C692 C691 1.387 . S
H693 C705 0.930 . S
H694 C707 0.930 . S
H695 C708 0.930 . S
H696 C712 0.959 . S
H697 C712 0.959 . S
H698 C712 0.961 . S
H699 C713 0.960 . S
H700 C713 0.961 . S
H701 C713 0.959 . S
H702 C716 0.929 . S
H703 C717 0.931 . S
H704 C719 0.930 . S
C705 H693 0.930 . S
C705 C706 1.399 . S
C705 C710 1.399 . S
C706 C705 1.399 . S
C706 C707 1.376 . S
C707 H694 0.930 . S
C707 C706 1.376 . S
C707 C708 1.388 . S
C708 H695 0.930 . S
C708 C707 1.388 . S
C708 C709 1.390 . S
C709 C708 1.390 . S
C709 C710 1.394 . S
C709 C715 1.465 . S
C710 C705 1.399 . S
C710 C709 1.394 . S
C710 C711 1.516 . S
C711 C710 1.516 . S
C711 C712 1.502 . S
C711 C713 1.561 . S
C711 C714 1.526 . S
C712 H696 0.959 . S
C712 H697 0.959 . S
C712 H698 0.961 . S
C712 C711 1.502 . S
C713 H699 0.960 . S
C713 H700 0.961 . S
C713 H701 0.959 . S
C713 C711 1.561 . S
C714 C711 1.526 . S
C714 C715 1.396 . S
C714 C719 1.390 . S
C715 C709 1.465 . S
C715 C714 1.396 . S
C715 C716 1.399 . S
C716 H702 0.929 . S
C716 C715 1.399 . S
C716 C717 1.385 1_556 S
C717 H703 0.931 . S
C717 C716 1.385 1_554 S
C717 C718 1.389 . S
C718 C717 1.389 . S
C718 C719 1.387 1_554 S
C719 H704 0.930 . S
C719 C714 1.390 . S
C719 C718 1.387 1_556 S
H720 C732 0.930 . S
H721 C734 0.930 . S
H722 C735 0.930 . S
H723 C739 0.959 . S
H724 C739 0.959 . S
H725 C739 0.961 . S
H726 C740 0.960 . S
H727 C740 0.961 . S
H728 C740 0.959 1_455 S
H729 C743 0.929 . S
H730 C744 0.931 . S
H731 C746 0.930 . S
C732 H720 0.930 . S
C732 C733 1.399 1_655 S
C732 C737 1.399 . S
C733 C732 1.399 1_455 S
C733 C734 1.376 . S
C734 H721 0.930 . S
C734 C733 1.376 . S
C734 C735 1.388 . S
C735 H722 0.930 . S
C735 C734 1.388 . S
C735 C736 1.390 . S
C736 C735 1.390 . S
C736 C737 1.394 1_455 S
C736 C742 1.465 . S
C737 C732 1.399 . S
C737 C736 1.394 1_655 S
C737 C738 1.516 . S
C738 C737 1.516 . S
C738 C739 1.502 . S
C738 C740 1.561 . S
C738 C741 1.526 . S
C739 H723 0.959 . S
C739 H724 0.959 . S
C739 H725 0.961 . S
C739 C738 1.502 . S
C740 H726 0.960 . S
C740 H727 0.961 . S
C740 H728 0.959 1_655 S
C740 C738 1.561 . S
C741 C738 1.526 . S
C741 C742 1.396 1_655 S
C741 C746 1.390 . S
C742 C736 1.465 . S
C742 C741 1.396 1_455 S
C742 C743 1.399 . S
C743 H729 0.929 . S
C743 C742 1.399 . S
C743 C744 1.385 . S
C744 H730 0.931 . S
C744 C743 1.385 . S
C744 C745 1.389 . S
C745 C744 1.389 . S
C745 C746 1.387 1_455 S
C746 H731 0.930 . S
C746 C741 1.390 . S
C746 C745 1.387 1_655 S
C274 C20 1.163 . S
C286 C252 1.158 . S
C301 C41 1.242 . S
C313 C188 1.250 . S
C328 C64 1.264 . S
C340 C220 1.244 . S
C355 C19 1.277 . S
C367 C246 1.309 . S
C394 C182 1.238 . S
C382 C44 1.257 . S
C421 C214 1.210 . S
C409 C67 1.240 . S
C436 C43 1.147 . S
C448 C124 1.229 . S
C463 C66 1.116 . S
C475 C156 1.209 . S
C490 C21 1.207 . S
C502 C86 1.227 . S
C529 C118 1.256 . S
C517 C42 1.166 . S
C556 C150 1.303 . S
C544 C65 1.292 . S
C571 C18 1.244 . S
C583 C92 1.234 . S
C610 C162 1.411 . S
C598 C17 1.463 . S
C625 C39 1.459 . S
C637 C98 1.403 . S
C652 C62 1.474 . S
C664 C130 1.440 . S
C691 C226 1.436 . S
C679 C40 1.446 . S
C718 C258 1.456 . S
C706 C63 1.457 . S
C733 C16 1.457 . S
C745 C194 1.430 . S
