# Generated by pormake.
# Topology ctn, (3,4)-cn, num edge types: 1
# Building blocks:
#     Node 0, Type 0, BuildingBlock: BETDIP_clean_linker_0, # of connection points: 3
#     Node 1, Type 0, BuildingBlock: BETDIP_clean_linker_0, # of connection points: 3
#     Node 2, Type 0, BuildingBlock: BETDIP_clean_linker_0, # of connection points: 3
#     Node 3, Type 0, BuildingBlock: BETDIP_clean_linker_0, # of connection points: 3
#     Node 4, Type 0, BuildingBlock: BETDIP_clean_linker_0, # of connection points: 3
#     Node 5, Type 0, BuildingBlock: BETDIP_clean_linker_0, # of connection points: 3
#     Node 6, Type 0, BuildingBlock: BETDIP_clean_linker_0, # of connection points: 3
#     Node 7, Type 0, BuildingBlock: BETDIP_clean_linker_0, # of connection points: 3
#     Node 8, Type 0, BuildingBlock: BETDIP_clean_linker_0, # of connection points: 3
#     Node 9, Type 0, BuildingBlock: BETDIP_clean_linker_0, # of connection points: 3
#     Node 10, Type 0, BuildingBlock: BETDIP_clean_linker_0, # of connection points: 3
#     Node 11, Type 0, BuildingBlock: BETDIP_clean_linker_0, # of connection points: 3
#     Node 12, Type 0, BuildingBlock: BETDIP_clean_linker_0, # of connection points: 3
#     Node 13, Type 0, BuildingBlock: BETDIP_clean_linker_0, # of connection points: 3
#     Node 14, Type 0, BuildingBlock: BETDIP_clean_linker_0, # of connection points: 3
#     Node 15, Type 0, BuildingBlock: BETDIP_clean_linker_0, # of connection points: 3
#     Node 16, Type 1, BuildingBlock: NAHDIM_clean_sbu_0, # of connection points: 4
#     Node 17, Type 1, BuildingBlock: NAHDIM_clean_sbu_0, # of connection points: 4
#     Node 18, Type 1, BuildingBlock: NAHDIM_clean_sbu_0, # of connection points: 4
#     Node 19, Type 1, BuildingBlock: NAHDIM_clean_sbu_0, # of connection points: 4
#     Node 20, Type 1, BuildingBlock: NAHDIM_clean_sbu_0, # of connection points: 4
#     Node 21, Type 1, BuildingBlock: NAHDIM_clean_sbu_0, # of connection points: 4
#     Node 22, Type 1, BuildingBlock: NAHDIM_clean_sbu_0, # of connection points: 4
#     Node 23, Type 1, BuildingBlock: NAHDIM_clean_sbu_0, # of connection points: 4
#     Node 24, Type 1, BuildingBlock: NAHDIM_clean_sbu_0, # of connection points: 4
#     Node 25, Type 1, BuildingBlock: NAHDIM_clean_sbu_0, # of connection points: 4
#     Node 26, Type 1, BuildingBlock: NAHDIM_clean_sbu_0, # of connection points: 4
#     Node 27, Type 1, BuildingBlock: NAHDIM_clean_sbu_0, # of connection points: 4
#     Edge 28, Type (0, 1), BuildingBlock: MIFKUJ_clean_linker_0, # of connection points: 2
#     Edge 29, Type (0, 1), BuildingBlock: MIFKUJ_clean_linker_0, # of connection points: 2
#     Edge 30, Type (0, 1), BuildingBlock: MIFKUJ_clean_linker_0, # of connection points: 2
#     Edge 31, Type (0, 1), BuildingBlock: MIFKUJ_clean_linker_0, # of connection points: 2
#     Edge 32, Type (0, 1), BuildingBlock: MIFKUJ_clean_linker_0, # of connection points: 2
#     Edge 33, Type (0, 1), BuildingBlock: MIFKUJ_clean_linker_0, # of connection points: 2
#     Edge 34, Type (0, 1), BuildingBlock: MIFKUJ_clean_linker_0, # of connection points: 2
#     Edge 35, Type (0, 1), BuildingBlock: MIFKUJ_clean_linker_0, # of connection points: 2
#     Edge 36, Type (0, 1), BuildingBlock: MIFKUJ_clean_linker_0, # of connection points: 2
#     Edge 37, Type (0, 1), BuildingBlock: MIFKUJ_clean_linker_0, # of connection points: 2
#     Edge 38, Type (0, 1), BuildingBlock: MIFKUJ_clean_linker_0, # of connection points: 2
#     Edge 39, Type (0, 1), BuildingBlock: MIFKUJ_clean_linker_0, # of connection points: 2
#     Edge 40, Type (0, 1), BuildingBlock: MIFKUJ_clean_linker_0, # of connection points: 2
#     Edge 41, Type (0, 1), BuildingBlock: MIFKUJ_clean_linker_0, # of connection points: 2
#     Edge 42, Type (0, 1), BuildingBlock: MIFKUJ_clean_linker_0, # of connection points: 2
#     Edge 43, Type (0, 1), BuildingBlock: MIFKUJ_clean_linker_0, # of connection points: 2
#     Edge 44, Type (0, 1), BuildingBlock: MIFKUJ_clean_linker_0, # of connection points: 2
#     Edge 45, Type (0, 1), BuildingBlock: MIFKUJ_clean_linker_0, # of connection points: 2
#     Edge 46, Type (0, 1), BuildingBlock: MIFKUJ_clean_linker_0, # of connection points: 2
#     Edge 47, Type (0, 1), BuildingBlock: MIFKUJ_clean_linker_0, # of connection points: 2
#     Edge 48, Type (0, 1), BuildingBlock: MIFKUJ_clean_linker_0, # of connection points: 2
#     Edge 49, Type (0, 1), BuildingBlock: MIFKUJ_clean_linker_0, # of connection points: 2
#     Edge 50, Type (0, 1), BuildingBlock: MIFKUJ_clean_linker_0, # of connection points: 2
#     Edge 51, Type (0, 1), BuildingBlock: MIFKUJ_clean_linker_0, # of connection points: 2
#     Edge 52, Type (0, 1), BuildingBlock: MIFKUJ_clean_linker_0, # of connection points: 2
#     Edge 53, Type (0, 1), BuildingBlock: MIFKUJ_clean_linker_0, # of connection points: 2
#     Edge 54, Type (0, 1), BuildingBlock: MIFKUJ_clean_linker_0, # of connection points: 2
#     Edge 55, Type (0, 1), BuildingBlock: MIFKUJ_clean_linker_0, # of connection points: 2
#     Edge 56, Type (0, 1), BuildingBlock: MIFKUJ_clean_linker_0, # of connection points: 2
#     Edge 57, Type (0, 1), BuildingBlock: MIFKUJ_clean_linker_0, # of connection points: 2
#     Edge 58, Type (0, 1), BuildingBlock: MIFKUJ_clean_linker_0, # of connection points: 2
#     Edge 59, Type (0, 1), BuildingBlock: MIFKUJ_clean_linker_0, # of connection points: 2
#     Edge 60, Type (0, 1), BuildingBlock: MIFKUJ_clean_linker_0, # of connection points: 2
#     Edge 61, Type (0, 1), BuildingBlock: MIFKUJ_clean_linker_0, # of connection points: 2
#     Edge 62, Type (0, 1), BuildingBlock: MIFKUJ_clean_linker_0, # of connection points: 2
#     Edge 63, Type (0, 1), BuildingBlock: MIFKUJ_clean_linker_0, # of connection points: 2
#     Edge 64, Type (0, 1), BuildingBlock: MIFKUJ_clean_linker_0, # of connection points: 2
#     Edge 65, Type (0, 1), BuildingBlock: MIFKUJ_clean_linker_0, # of connection points: 2
#     Edge 66, Type (0, 1), BuildingBlock: MIFKUJ_clean_linker_0, # of connection points: 2
#     Edge 67, Type (0, 1), BuildingBlock: MIFKUJ_clean_linker_0, # of connection points: 2
#     Edge 68, Type (0, 1), BuildingBlock: MIFKUJ_clean_linker_0, # of connection points: 2
#     Edge 69, Type (0, 1), BuildingBlock: MIFKUJ_clean_linker_0, # of connection points: 2
#     Edge 70, Type (0, 1), BuildingBlock: MIFKUJ_clean_linker_0, # of connection points: 2
#     Edge 71, Type (0, 1), BuildingBlock: MIFKUJ_clean_linker_0, # of connection points: 2
#     Edge 72, Type (0, 1), BuildingBlock: MIFKUJ_clean_linker_0, # of connection points: 2
#     Edge 73, Type (0, 1), BuildingBlock: MIFKUJ_clean_linker_0, # of connection points: 2
#     Edge 74, Type (0, 1), BuildingBlock: MIFKUJ_clean_linker_0, # of connection points: 2
#     Edge 75, Type (0, 1), BuildingBlock: MIFKUJ_clean_linker_0, # of connection points: 2
# Relax obj value: 0.068
# Max RMSD: 0.191
# Mean RMSD: 0.118
data_MOF--net-ctn--node1-NAHDIM_clean_sbu_0--node2-BETDIP_clean_linker_0--edge1-MIFKUJ_clean_linker_0
_symmetry_space_group_name_H-M    P1
_symmetry_Int_Tables_number       1
_symmetry_cell_setting            triclinic
loop_
_symmetry_equiv_pos_as_xyz
'x, y, z'
_cell_length_a     68.469155
_cell_length_b     69.123418
_cell_length_c     74.950678
_cell_angle_alpha  94.683173
_cell_angle_beta   93.76377
_cell_angle_gamma 95.060268
loop_
_atom_site_label
_atom_site_type_symbol
_atom_site_fract_x
_atom_site_fract_y
_atom_site_fract_z
_atom_type_partial_charge
H0 H 0.0343 0.07398 0.06082 0.0
H1 H 0.07697 0.05044 0.02778 0.0
H2 H 0.06749 0.02811 0.07859 0.0
H3 H 0.07839 0.07929 0.01709 0.0
C4 C 0.06366 0.08393 0.01729 0.0
C5 C 0.04526 0.0638 0.05862 0.0
C6 C 0.04948 0.05083 0.07155 0.0
C7 C 0.05552 0.06426 0.04309 0.0
C8 C 0.0697 0.05104 0.04016 0.0
C9 C 0.07423 0.03804 0.05295 0.0
C10 C 0.06406 0.03806 0.06863 0.0
N11 N 0.05113 0.07804 0.03066 0.0
H12 H 0.26703 0.69706 0.19718 0.0
H13 H 0.32203 0.72883 0.21656 0.0
H14 H 0.29909 0.68055 0.24405 0.0
H15 H 0.32317 0.73281 0.1863 0.0
C16 C 0.30818 0.73597 0.18288 0.0
C17 C 0.27959 0.69926 0.20695 0.0
C18 C 0.28118 0.68696 0.2209 0.0
C19 C 0.29446 0.71399 0.20501 0.0
C20 C 0.31089 0.71692 0.21752 0.0
C21 C 0.31265 0.70494 0.23171 0.0
C22 C 0.29776 0.68994 0.23323 0.0
N23 N 0.29227 0.72587 0.19055 0.0
H24 H 0.95907 0.49123 0.00628 0.0
H25 H 0.99449 0.46291 0.0437 0.0
H26 H 0.96819 0.51452 0.06157 0.0
H27 H 0.00782 0.45126 0.01955 0.0
C28 C 0.99616 0.44943 0.00885 0.0
C29 C 0.96571 0.49071 0.01974 0.0
C30 C 0.96197 0.50459 0.03357 0.0
C31 C 0.97781 0.47595 0.02311 0.0
C32 C 0.98595 0.47481 0.04067 0.0
C33 C 0.98264 0.4887 0.05464 0.0
C34 C 0.97055 0.50352 0.05097 0.0
N35 N 0.98097 0.46219 0.00867 0.0
H36 H 0.71379 0.78781 0.1834 0.0
H37 H 0.73689 0.83533 0.22176 0.0
H38 H 0.76289 0.82661 0.1715 0.0
H39 H 0.70813 0.83136 0.23307 0.0
C40 C 0.70236 0.81624 0.23004 0.0
C41 C 0.72425 0.80041 0.18718 0.0
C42 C 0.73854 0.8059 0.17549 0.0
C43 C 0.72307 0.81124 0.20364 0.0
C44 C 0.73686 0.82743 0.20871 0.0
C45 C 0.75131 0.83308 0.19718 0.0
C46 C 0.75186 0.82234 0.18052 0.0
N47 N 0.7082 0.80504 0.21487 0.0
H48 H 0.03174 0.97424 0.45025 0.0
H49 H 0.08284 0.99347 0.48564 0.0
H50 H 0.07065 0.02325 0.43862 0.0
H51 H 0.06386 0.98059 0.50627 0.0
C52 C 0.05669 0.96741 0.4989 0.0
C53 C 0.04481 0.98423 0.45364 0.0
C54 C 0.04984 0.99894 0.44243 0.0
C55 C 0.05624 0.98255 0.46952 0.0
C56 C 0.07331 0.99534 0.47394 0.0
C57 C 0.07865 0.0101 0.46287 0.0
C58 C 0.06671 0.01188 0.44721 0.0
N59 N 0.05055 0.96743 0.48042 0.0
H60 H 0.22441 0.75192 0.80994 0.0
H61 H 0.24381 0.70235 0.78018 0.0
H62 H 0.2734 0.72372 0.83126 0.0
H63 H 0.21144 0.69882 0.76924 0.0
C64 C 0.20846 0.71379 0.76763 0.0
C65 C 0.2345 0.74073 0.80875 0.0
C66 C 0.24915 0.73948 0.82251 0.0
C67 C 0.23216 0.72719 0.79369 0.0
C68 C 0.24499 0.71247 0.79209 0.0
C69 C 0.25998 0.71123 0.80556 0.0
C70 C 0.26194 0.72473 0.82078 0.0
N71 N 0.21705 0.72912 0.78024 0.0
H72 H -0.00028 0.56748 0.46685 0.0
H73 H 0.96638 0.51197 0.45362 0.0
H74 H 0.95244 0.54925 0.49865 0.0
H75 H 0.99101 0.50472 0.43784 0.0
C76 C 0.99869 0.51814 0.43436 0.0
C77 C 0.98818 0.55672 0.46982 0.0
C78 C 0.97635 0.5607 0.48405 0.0
C79 C 0.98512 0.53904 0.45906 0.0
C80 C 0.96964 0.52528 0.46231 0.0
C81 C 0.95765 0.52899 0.47647 0.0
C82 C 0.96127 0.54661 0.48738 0.0
N83 N 0.99749 0.53606 0.44477 0.0
H84 H 0.79989 0.81847 0.76308 0.0
H85 H 0.82184 0.77513 0.79501 0.0
H86 H 0.77175 0.80413 0.81056 0.0
H87 H 0.84984 0.78259 0.78209 0.0
C88 C 0.84553 0.78658 0.76878 0.0
C89 C 0.79899 0.81017 0.77471 0.0
C90 C 0.78406 0.81282 0.78639 0.0
C91 C 0.81287 0.79695 0.77785 0.0
C92 C 0.81164 0.78593 0.79277 0.0
C93 C 0.79675 0.78834 0.80461 0.0
C94 C 0.78298 0.80179 0.80127 0.0
N95 N 0.82757 0.79495 0.76547 0.0
H96 H 0.29918 0.32226 0.26892 0.0
H97 H 0.32149 0.27836 0.29989 0.0
H98 H 0.27106 0.30659 0.31601 0.0
H99 H 0.34981 0.28784 0.28733 0.0
C100 C 0.34474 0.29032 0.27374 0.0
C101 C 0.29835 0.31367 0.28037 0.0
C102 C 0.28363 0.31617 0.29228 0.0
C103 C 0.31209 0.30022 0.28305 0.0
C104 C 0.31098 0.28889 0.29777 0.0
C105 C 0.29624 0.29111 0.30982 0.0
C106 C 0.28253 0.30474 0.30688 0.0
N107 N 0.32649 0.29815 0.2704 0.0
H108 H 0.45172 0.98725 0.50906 0.0
H109 H 0.49182 0.96372 0.5461 0.0
H110 H 0.46381 0.01459 0.56286 0.0
H111 H 0.50276 0.94962 0.5221 0.0
C112 C 0.49078 0.94734 0.51172 0.0
C113 C 0.45939 0.98802 0.52225 0.0
C114 C 0.45621 0.00281 0.53548 0.0
C115 C 0.47239 0.97407 0.52579 0.0
C116 C 0.48196 0.97455 0.54303 0.0
C117 C 0.47894 0.98912 0.55651 0.0
C118 C 0.4661 0.00323 0.55259 0.0
N119 N 0.4752 0.95965 0.51177 0.0
H120 H 0.2133 0.29298 0.68894 0.0
H121 H 0.23474 0.34221 0.72609 0.0
H122 H 0.26695 0.32731 0.68057 0.0
H123 H 0.21571 0.32828 0.74468 0.0
C124 C 0.20391 0.31898 0.73712 0.0
C125 C 0.22419 0.30516 0.69304 0.0
C126 C 0.2404 0.30869 0.68281 0.0
C127 C 0.22217 0.3168 0.70887 0.0
C128 C 0.23625 0.33268 0.7142 0.0
C129 C 0.25256 0.33636 0.70414 0.0
C130 C 0.25458 0.32425 0.68855 0.0
N131 N 0.20585 0.31199 0.719 0.0
H132 H 0.76367 0.19298 0.69279 0.0
H133 H 0.81617 0.22916 0.71265 0.0
H134 H 0.79803 0.1787 0.73925 0.0
H135 H 0.81413 0.24133 0.68659 0.0
C136 C 0.79895 0.23924 0.68114 0.0
C137 C 0.77637 0.19599 0.70235 0.0
C138 C 0.77914 0.18388 0.71628 0.0
C139 C 0.7897 0.21218 0.70069 0.0
C140 C 0.80602 0.21639 0.71328 0.0
C141 C 0.80903 0.2044 0.72727 0.0
C142 C 0.79552 0.18822 0.7287 0.0
N143 N 0.78577 0.22413 0.68656 0.0
H144 H 0.53138 0.57415 0.55777 0.0
H145 H 0.57812 0.5547 0.52757 0.0
H146 H 0.5674 0.53128 0.57766 0.0
H147 H 0.57936 0.58579 0.51956 0.0
C148 C 0.56384 0.58767 0.51725 0.0
C149 C 0.54353 0.56521 0.55653 0.0
C150 C 0.54783 0.55242 0.56963 0.0
C151 C 0.55481 0.56664 0.5417 0.0
C152 C 0.57007 0.55454 0.53952 0.0
C153 C 0.57459 0.54162 0.55236 0.0
C154 C 0.56352 0.54078 0.56745 0.0
N155 N 0.55016 0.57995 0.52891 0.0
H156 H 0.53549 0.47055 0.95205 0.0
H157 H 0.5908 0.48491 0.98253 0.0
H158 H 0.57683 0.51591 0.93674 0.0
H159 H 0.58664 0.4522 0.98626 0.0
C160 C 0.57119 0.45045 0.98888 0.0
C161 C 0.54959 0.47917 0.95396 0.0
C162 C 0.55451 0.49356 0.94233 0.0
C163 C 0.56278 0.4756 0.96809 0.0
C164 C 0.58077 0.48719 0.97129 0.0
C165 C 0.58582 0.50194 0.96015 0.0
C166 C 0.57277 0.50479 0.94554 0.0
N167 N 0.5574 0.46052 0.97911 0.0
H168 H 0.71853 0.24508 0.3128 0.0
H169 H 0.74514 0.2048 0.27749 0.0
H170 H 0.77208 0.22179 0.33054 0.0
H171 H 0.72905 0.22006 0.25603 0.0
C172 C 0.71529 0.22287 0.26172 0.0
C173 C 0.7304 0.23606 0.31028 0.0
C174 C 0.74548 0.23499 0.32371 0.0
C175 C 0.73035 0.22557 0.29354 0.0
C176 C 0.74527 0.2133 0.29028 0.0
C177 C 0.76036 0.21178 0.30361 0.0
C178 C 0.76043 0.2228 0.32024 0.0
N179 N 0.71472 0.22728 0.28052 0.0
H180 H 0.50115 0.06353 0.97137 0.0
H181 H 0.46687 0.00841 0.95807 0.0
H182 H 0.45655 0.04404 0.00546 0.0
H183 H 0.49312 0.00143 0.94298 0.0
C184 C 0.49839 0.01503 0.93785 0.0
C185 C 0.48973 0.05271 0.9745 0.0
C186 C 0.47951 0.05584 0.98997 0.0
C187 C 0.48565 0.03552 0.96314 0.0
C188 C 0.47071 0.02148 0.96701 0.0
C189 C 0.4604 0.0244 0.98244 0.0
C190 C 0.46495 0.04152 0.99386 0.0
N191 N 0.49652 0.03313 0.94772 0.0
C192 C 0.22946 0.91615 0.01748 0.0
O193 O 0.24455 0.92366 0.00956 0.0
O194 O 0.2473 0.86483 0.99612 0.0
Zn195 Zn 0.25266 0.88329 0.01834 0.0
O196 O 0.27682 0.90096 0.0148 0.0
C197 C 0.27275 0.85812 0.04009 0.0
O198 O 0.28487 0.85903 0.02724 0.0
O199 O 0.22958 0.89896 0.02234 0.0
C200 C 0.28956 0.908 0.02726 0.0
O201 O 0.28713 0.90402 0.04385 0.0
C202 C 0.24727 0.87133 0.98074 0.0
O203 O 0.24974 0.89025 0.97967 0.0
O204 O 0.25766 0.86758 0.0393 0.0
C205 C 0.15902 0.46735 0.25747 0.0
O206 O 0.16653 0.48539 0.26192 0.0
O207 O 0.11074 0.49128 0.26983 0.0
Zn208 Zn 0.12545 0.4871 0.24761 0.0
O209 O 0.14363 0.51085 0.24418 0.0
C210 C 0.08888 0.48634 0.22576 0.0
O211 O 0.08272 0.49417 0.24068 0.0
O212 O 0.14139 0.46426 0.25071 0.0
C213 C 0.13742 0.52641 0.23901 0.0
O214 O 0.11842 0.52731 0.23597 0.0
C215 C 0.11428 0.50599 0.28126 0.0
O216 O 0.12824 0.51959 0.27879 0.0
O217 O 0.10645 0.4817 0.22569 0.0
C218 C 0.82787 0.64465 0.98855 0.0
O219 O 0.82714 0.65097 0.97248 0.0
O220 O 0.79574 0.67798 0.97071 0.0
Zn221 Zn 0.79125 0.66276 0.99218 0.0
O222 O 0.76819 0.64269 0.98624 0.0
C223 C 0.78235 0.69815 0.01334 0.0
O224 O 0.78372 0.70657 0.99833 0.0
O225 O 0.81454 0.64841 0.99898 0.0
C226 C 0.75974 0.63505 0.9989 0.0
O227 O 0.76639 0.64041 0.01558 0.0
C228 C 0.78092 0.68123 0.96065 0.0
O229 O 0.76327 0.67477 0.96468 0.0
O230 O 0.78527 0.68026 0.01358 0.0
C231 C 0.90186 0.07528 0.26511 0.0
O232 O 0.92062 0.07807 0.27054 0.0
O233 O 0.92858 0.03378 0.27475 0.0
Zn234 Zn 0.91119 0.03647 0.25243 0.0
O235 O 0.89212 0.0125 0.24705 0.0
C236 C 0.94574 0.04292 0.23216 0.0
O237 O 0.95541 0.04316 0.24792 0.0
O238 O 0.89505 0.05898 0.257 0.0
C239 C 0.89531 0.99806 0.23638 0.0
O240 O 0.91189 0.99843 0.22846 0.0
C241 C 0.93464 0.01751 0.27814 0.0
O242 O 0.92971 0.00215 0.26673 0.0
O243 O 0.92707 0.04051 0.23105 0.0
C244 C 0.32074 0.14262 0.49191 0.0
O245 O 0.31704 0.14578 0.47503 0.0
O246 O 0.29303 0.18015 0.47562 0.0
Zn247 Zn 0.28793 0.16556 0.49736 0.0
O248 O 0.26375 0.14676 0.49192 0.0
C249 C 0.26743 0.19107 0.52052 0.0
O250 O 0.2528 0.18587 0.50836 0.0
O251 O 0.31046 0.15 0.50375 0.0
C252 C 0.25557 0.13866 0.50449 0.0
O253 O 0.26315 0.14268 0.52108 0.0
C254 C 0.27852 0.18484 0.46596 0.0
O255 O 0.26061 0.18014 0.47046 0.0
O256 O 0.28394 0.1844 0.51851 0.0
C257 C 0.38312 0.55772 0.76723 0.0
O258 O 0.37579 0.53968 0.76836 0.0
O259 O 0.43329 0.53352 0.77644 0.0
Zn260 Zn 0.41562 0.53812 0.7549 0.0
O261 O 0.39647 0.51438 0.7475 0.0
C262 C 0.44498 0.5334 0.72954 0.0
O263 O 0.44865 0.51884 0.73906 0.0
O264 O 0.4002 0.56082 0.76171 0.0
C265 C 0.40092 0.49688 0.74693 0.0
O266 O 0.41914 0.49345 0.75111 0.0
C267 C 0.42703 0.523 0.78839 0.0
O268 O 0.40883 0.51494 0.78658 0.0
O269 O 0.43166 0.54415 0.73402 0.0
C270 C 0.72931 0.41965 0.51469 0.0
O271 O 0.74438 0.42678 0.50652 0.0
O272 O 0.74624 0.36787 0.49352 0.0
Zn273 Zn 0.752 0.38645 0.51582 0.0
O274 O 0.77632 0.40398 0.51262 0.0
C275 C 0.74367 0.36029 0.54295 0.0
O276 O 0.72611 0.35824 0.53445 0.0
O277 O 0.72921 0.40252 0.51972 0.0
C278 C 0.79237 0.39688 0.50949 0.0
O279 O 0.79301 0.3779 0.50866 0.0
C280 C 0.75157 0.35067 0.49274 0.0
O281 O 0.76052 0.3446 0.50699 0.0
O282 O 0.75706 0.37174 0.53743 0.0
C283 C 0.65836 0.96455 0.75646 0.0
O284 O 0.66642 0.98245 0.76053 0.0
O285 O 0.60942 0.98765 0.77221 0.0
Zn286 Zn 0.62412 0.98486 0.74989 0.0
O287 O 0.64209 0.00922 0.74794 0.0
C288 C 0.59702 0.99616 0.7233 0.0
O289 O 0.60174 0.01299 0.73272 0.0
O290 O 0.64018 0.96177 0.75131 0.0
C291 C 0.64965 0.01193 0.7332 0.0
O292 O 0.64566 0.9987 0.71954 0.0
C293 C 0.60613 0.00416 0.77957 0.0
O294 O 0.61257 0.02007 0.77249 0.0
O295 O 0.60469 0.98116 0.72819 0.0
C296 C 0.01445 0.22453 0.89478 0.0
O297 O 0.00089 0.23608 0.89894 0.0
O298 O 0.99425 0.24289 0.8497 0.0
Zn299 Zn 0.01858 0.24987 0.86648 0.0
O300 O 0.01509 0.27337 0.8832 0.0
C301 C 0.04225 0.25038 0.83579 0.0
O302 O 0.02753 0.23854 0.828 0.0
O303 O 0.02409 0.22748 0.88116 0.0
C304 C 0.00633 0.28761 0.87803 0.0
O305 O 0.99909 0.28697 0.86129 0.0
C306 C 0.97695 0.2429 0.85489 0.0
O307 O 0.97455 0.24742 0.87192 0.0
O308 O 0.04168 0.25672 0.85213 0.0
C309 C 0.52368 0.71341 0.37918 0.0
O310 O 0.51456 0.70795 0.36336 0.0
O311 O 0.4999 0.74487 0.35061 0.0
Zn312 Zn 0.52394 0.75269 0.3674 0.0
O313 O 0.51981 0.77661 0.38334 0.0
C314 C 0.55127 0.74749 0.34 0.0
O315 O 0.54032 0.73094 0.33593 0.0
O316 O 0.52913 0.73135 0.38334 0.0
C317 C 0.50808 0.78902 0.37906 0.0
O318 O 0.49801 0.78645 0.36338 0.0
C319 C 0.48331 0.74035 0.35657 0.0
O320 O 0.48199 0.74057 0.374 0.0
O321 O 0.54714 0.75892 0.35308 0.0
C322 C 0.0217 0.79607 0.59325 0.0
O323 O 0.01209 0.78031 0.58484 0.0
O324 O 0.00337 0.77298 0.6392 0.0
Zn325 Zn 0.02476 0.77109 0.62216 0.0
O326 O 0.01905 0.74753 0.60423 0.0
C327 C 0.0511 0.75069 0.64242 0.0
O328 O 0.03684 0.73679 0.63801 0.0
O329 O 0.02843 0.79563 0.60942 0.0
C330 C 0.0022 0.73825 0.60072 0.0
O331 O 0.98712 0.74419 0.60885 0.0
C332 C 0.9875 0.78069 0.63589 0.0
O333 O 0.98432 0.78782 0.62035 0.0
O334 O 0.0495 0.76744 0.63694 0.0
C335 C 0.51363 0.30432 0.10578 0.0
O336 O 0.49554 0.30147 0.11049 0.0
O337 O 0.49844 0.27367 0.14057 0.0
Zn338 Zn 0.51958 0.26915 0.12366 0.0
O339 O 0.51108 0.24617 0.10588 0.0
C340 C 0.54343 0.25792 0.15366 0.0
O341 O 0.52652 0.25657 0.161 0.0
O342 O 0.52608 0.29264 0.11017 0.0
C343 C 0.50676 0.2295 0.11132 0.0
O344 O 0.50733 0.22773 0.12867 0.0
C345 C 0.48015 0.27014 0.1362 0.0
O346 O 0.47418 0.26385 0.11956 0.0
O347 O 0.54407 0.26317 0.13782 0.0
H348 H 0.24776 0.77898 0.82453 0.0
H349 H 0.24777 0.80133 0.85159 0.0
H350 H 0.25369 0.75348 0.88447 0.0
H351 H 0.25338 0.73098 0.85742 0.0
H352 H 0.22457 0.77618 0.89461 0.0
H353 H 0.29227 0.78568 0.88152 0.0
H354 H 0.3197 0.79277 0.86259 0.0
H355 H 0.30053 0.84928 0.8553 0.0
H356 H 0.27281 0.84242 0.87398 0.0
H357 H 0.24651 0.83159 0.97854 0.0
H358 H 0.2467 0.80936 0.95154 0.0
H359 H 0.24536 0.85785 0.91884 0.0
H360 H 0.24559 0.88028 0.94584 0.0
H361 H 0.27215 0.83473 0.90849 0.0
H362 H 0.20448 0.8256 0.92112 0.0
H363 H 0.1766 0.81877 0.93959 0.0
H364 H 0.19496 0.76201 0.9472 0.0
H365 H 0.22312 0.76861 0.92896 0.0
C366 C 0.2491 0.77324 0.83754 0.0
C367 C 0.25057 0.75325 0.83888 0.0
C368 C 0.24923 0.78603 0.85297 0.0
C369 C 0.25083 0.77906 0.87002 0.0
C370 C 0.25247 0.75914 0.87142 0.0
C371 C 0.25245 0.74635 0.85599 0.0
C372 C 0.2502 0.79248 0.88637 0.0
C373 C 0.23513 0.78883 0.89781 0.0
C374 C 0.26365 0.80927 0.89021 0.0
C375 C 0.28035 0.81345 0.87901 0.0
C376 C 0.2938 0.79956 0.87576 0.0
C377 C 0.30942 0.80355 0.8651 0.0
C378 C 0.31183 0.82145 0.85771 0.0
C379 C 0.29864 0.83541 0.86101 0.0
C380 C 0.28298 0.83149 0.87165 0.0
C381 C 0.24609 0.83753 0.9656 0.0
C382 C 0.24602 0.85771 0.96434 0.0
C383 C 0.24613 0.82478 0.95017 0.0
C384 C 0.24586 0.83192 0.93315 0.0
C385 C 0.24558 0.85203 0.93184 0.0
C386 C 0.24564 0.86482 0.94728 0.0
C387 C 0.24649 0.81846 0.91678 0.0
C388 C 0.26156 0.82209 0.90531 0.0
C389 C 0.23297 0.80171 0.91287 0.0
C390 C 0.21602 0.79768 0.92381 0.0
C391 C 0.20266 0.81172 0.92685 0.0
C392 C 0.18679 0.80788 0.93726 0.0
C393 C 0.18404 0.78999 0.9446 0.0
C394 C 0.19713 0.77588 0.94152 0.0
C395 C 0.21303 0.77965 0.93113 0.0
H396 H 0.17174 0.78704 0.95266 0.0
H397 H 0.32393 0.82451 0.84946 0.0
H398 H 0.02268 0.54772 0.4226 0.0
H399 H 0.04279 0.54587 0.3969 0.0
H400 H 0.02244 0.48497 0.38531 0.0
H401 H 0.00257 0.48666 0.41133 0.0
H402 H 0.06094 0.49059 0.38244 0.0
H403 H 0.00426 0.52011 0.36066 0.0
H404 H 0.97968 0.54412 0.36085 0.0
H405 H 0.0253 0.59033 0.35803 0.0
H406 H 0.0502 0.5666 0.35807 0.0
H407 H 0.08816 0.47833 0.29274 0.0
H408 H 0.06934 0.48102 0.31928 0.0
H409 H 0.09544 0.53996 0.3325 0.0
H410 H 0.11441 0.53742 0.30596 0.0
H411 H 0.05474 0.53587 0.33473 0.0
H412 H 0.11129 0.5056 0.35574 0.0
H413 H 0.13535 0.48108 0.35487 0.0
H414 H 0.08915 0.43564 0.35841 0.0
H415 H 0.06475 0.45987 0.35903 0.0
C416 C 0.02247 0.53393 0.41459 0.0
C417 C 0.011 0.51731 0.41889 0.0
C418 C 0.03392 0.53292 0.39985 0.0
C419 C 0.03392 0.51535 0.38903 0.0
C420 C 0.02264 0.49869 0.39345 0.0
C421 C 0.01127 0.49967 0.40826 0.0
C422 C 0.04575 0.51431 0.37316 0.0
C423 C 0.05939 0.50033 0.3719 0.0
C424 C 0.04406 0.52731 0.3596 0.0
C425 C 0.02912 0.5416 0.35955 0.0
C426 C 0.00907 0.53541 0.36023 0.0
C427 C 0.99508 0.54897 0.36027 0.0
C428 C 0.00093 0.56874 0.3595 0.0
C429 C 0.02079 0.575 0.35865 0.0
C430 C 0.03485 0.56151 0.35862 0.0
C431 C 0.08992 0.49188 0.30128 0.0
C432 C 0.10282 0.50766 0.29728 0.0
C433 C 0.07921 0.49336 0.31647 0.0
C434 C 0.08114 0.51063 0.3279 0.0
C435 C 0.09379 0.5265 0.32384 0.0
C436 C 0.10465 0.52499 0.30871 0.0
C437 C 0.0698 0.51213 0.34402 0.0
C438 C 0.05628 0.52618 0.34531 0.0
C439 C 0.07151 0.49913 0.35754 0.0
C440 C 0.08617 0.48453 0.35726 0.0
C441 C 0.10623 0.49036 0.35618 0.0
C442 C 0.11994 0.47652 0.35576 0.0
C443 C 0.11378 0.45681 0.35654 0.0
C444 C 0.0939 0.45091 0.35779 0.0
C445 C 0.08013 0.46469 0.35819 0.0
H446 H 0.12441 0.44612 0.35621 0.0
H447 H 0.99007 0.57922 0.35953 0.0
H448 H 0.82712 0.78089 0.82787 0.0
H449 H 0.82534 0.76272 0.85447 0.0
H450 H 0.76239 0.75225 0.84422 0.0
H451 H 0.76407 0.7704 0.8176 0.0
H452 H 0.77228 0.76372 0.87892 0.0
H453 H 0.79264 0.7164 0.8349 0.0
H454 H 0.81375 0.70403 0.81196 0.0
H455 H 0.86337 0.71117 0.85081 0.0
H456 H 0.8426 0.72384 0.87394 0.0
H457 H 0.75228 0.68956 0.93617 0.0
H458 H 0.75613 0.70798 0.91002 0.0
H459 H 0.81879 0.71667 0.92294 0.0
H460 H 0.8151 0.69793 0.94906 0.0
H461 H 0.81033 0.70692 0.88756 0.0
H462 H 0.79003 0.75339 0.93177 0.0
H463 H 0.76911 0.76585 0.95482 0.0
H464 H 0.71971 0.76063 0.9158 0.0
H465 H 0.74028 0.74786 0.89255 0.0
C466 C 0.81292 0.77453 0.83117 0.0
C467 C 0.79573 0.77703 0.8206 0.0
C468 C 0.81193 0.76418 0.84639 0.0
C469 C 0.79375 0.75597 0.85124 0.0
C470 C 0.77657 0.7585 0.84075 0.0
C471 C 0.77754 0.76889 0.82556 0.0
C472 C 0.79256 0.74501 0.8674 0.0
C473 C 0.78041 0.75115 0.88071 0.0
C474 C 0.80362 0.72896 0.86997 0.0
C475 C 0.8161 0.72125 0.8561 0.0
C476 C 0.80808 0.71547 0.83852 0.0
C477 C 0.81998 0.70838 0.82549 0.0
C478 C 0.8399 0.70686 0.82991 0.0
C479 C 0.84795 0.71238 0.8474 0.0
C480 C 0.83611 0.7195 0.86047 0.0
C481 C 0.7669 0.69538 0.93349 0.0
C482 C 0.78338 0.69235 0.94475 0.0
C483 C 0.76906 0.70598 0.91855 0.0
C484 C 0.78771 0.71393 0.91467 0.0
C485 C 0.80425 0.71071 0.92573 0.0
C486 C 0.80211 0.70004 0.94067 0.0
C487 C 0.78989 0.72551 0.89898 0.0
C488 C 0.80225 0.71952 0.88579 0.0
C489 C 0.77905 0.74173 0.89652 0.0
C490 C 0.76666 0.74951 0.91046 0.0
C491 C 0.77467 0.75476 0.92813 0.0
C492 C 0.76288 0.7619 0.94123 0.0
C493 C 0.74308 0.76399 0.93679 0.0
C494 C 0.73505 0.75898 0.91923 0.0
C495 C 0.74677 0.75181 0.90608 0.0
H496 H 0.73398 0.76952 0.94695 0.0
H497 H 0.84909 0.70137 0.81981 0.0
H498 H 0.03784 0.03223 0.42966 0.0
H499 H 0.01831 0.03529 0.40169 0.0
H500 H 0.01432 0.97292 0.38953 0.0
H501 H 0.03425 0.96979 0.41732 0.0
H502 H 0.02347 0.9925 0.36055 0.0
H503 H 0.97555 0.99421 0.40453 0.0
H504 H 0.96177 0.00598 0.43255 0.0
H505 H 0.96118 0.06324 0.41433 0.0
H506 H 0.97523 0.05187 0.38629 0.0
H507 H 0.94784 0.9845 0.29039 0.0
H508 H 0.96751 0.98159 0.31825 0.0
H509 H 0.969 0.04365 0.33152 0.0
H510 H 0.94899 0.04665 0.30381 0.0
H511 H 0.96128 0.02434 0.35998 0.0
H512 H 0.00911 0.02297 0.31613 0.0
H513 H 0.02319 0.01158 0.28814 0.0
H514 H 0.02439 0.95424 0.30608 0.0
H515 H 0.01005 0.96523 0.33408 0.0
C516 C 0.03289 0.01918 0.42098 0.0
C517 C 0.03757 0.00076 0.42569 0.0
C518 C 0.02161 0.02093 0.40508 0.0
C519 C 0.01473 0.00431 0.39362 0.0
C520 C 0.01945 0.98592 0.39822 0.0
C521 C 0.03069 0.98414 0.41416 0.0
C522 C 0.0028 0.00616 0.37672 0.0
C523 C 0.00973 0.99921 0.36042 0.0
C524 C 0.98515 0.01538 0.37657 0.0
C525 C 0.97662 0.02223 0.39338 0.0
C526 C 0.97263 0.00935 0.40656 0.0
C527 C 0.96475 0.01594 0.42243 0.0
C528 C 0.96065 0.03536 0.42524 0.0
C529 C 0.96439 0.04821 0.41215 0.0
C530 C 0.9723 0.0417 0.39626 0.0
C531 C 0.95239 0.99756 0.2992 0.0
C532 C 0.94689 0.01582 0.29486 0.0
C533 C 0.96371 0.99587 0.31509 0.0
C534 C 0.96992 0.01244 0.32687 0.0
C535 C 0.96438 0.03068 0.32262 0.0
C536 C 0.95299 0.03237 0.30675 0.0
C537 C 0.98193 0.01067 0.34377 0.0
C538 C 0.97502 0.01763 0.36009 0.0
C539 C 0.99964 0.00151 0.34394 0.0
C540 C 0.00833 0.99488 0.32713 0.0
C541 C 0.01223 0.0079 0.31405 0.0
C542 C 0.02028 0.00152 0.29819 0.0
C543 C 0.02463 0.98219 0.29531 0.0
C544 C 0.02099 0.96921 0.30831 0.0
C545 C 0.01292 0.9755 0.32419 0.0
H546 H 0.03087 0.97728 0.28303 0.0
H547 H 0.95454 0.04043 0.43754 0.0
H548 H 0.21229 0.29603 0.65577 0.0
H549 H 0.21633 0.27621 0.6279 0.0
H550 H 0.27751 0.27333 0.64445 0.0
H551 H 0.27358 0.29328 0.67222 0.0
H552 H 0.27352 0.28127 0.61049 0.0
H553 H 0.24275 0.23432 0.64625 0.0
H554 H 0.21729 0.22105 0.6649 0.0
H555 H 0.17352 0.221 0.62115 0.0
H556 H 0.19869 0.23452 0.60231 0.0
H557 H 0.29432 0.20406 0.54848 0.0
H558 H 0.28907 0.22447 0.5756 0.0
H559 H 0.22875 0.22759 0.55638 0.0
H560 H 0.23378 0.20696 0.5293 0.0
H561 H 0.23156 0.21998 0.59111 0.0
H562 H 0.26266 0.26627 0.55516 0.0
H563 H 0.28826 0.2794 0.53658 0.0
H564 H 0.33159 0.28053 0.58083 0.0
H565 H 0.3063 0.26715 0.59961 0.0
C566 C 0.22654 0.29099 0.65352 0.0
C567 C 0.24262 0.29618 0.66616 0.0
C568 C 0.22884 0.27968 0.63761 0.0
C569 C 0.24719 0.27313 0.63416 0.0
C570 C 0.26323 0.27826 0.6468 0.0
C571 C 0.26098 0.28967 0.66264 0.0
C572 C 0.24981 0.26121 0.61726 0.0
C573 C 0.26451 0.26774 0.60637 0.0
C574 C 0.23771 0.24382 0.61165 0.0
C575 C 0.22257 0.23561 0.62293 0.0
C576 C 0.22767 0.23162 0.64065 0.0
C577 C 0.21329 0.22403 0.65125 0.0
C578 C 0.19379 0.22024 0.64423 0.0
C579 C 0.18863 0.22397 0.62658 0.0
C580 C 0.20295 0.23158 0.61593 0.0
C581 C 0.27995 0.20915 0.54997 0.0
C582 C 0.26448 0.20392 0.5367 0.0
C583 C 0.277 0.22087 0.56546 0.0
C584 C 0.25857 0.2277 0.56792 0.0
C585 C 0.24309 0.22249 0.55473 0.0
C586 C 0.24602 0.21075 0.53923 0.0
C587 C 0.25536 0.23999 0.58444 0.0
C588 C 0.24054 0.23354 0.59523 0.0
C589 C 0.26737 0.25743 0.58999 0.0
C590 C 0.28261 0.26554 0.57874 0.0
C591 C 0.27768 0.26918 0.56088 0.0
C592 C 0.29213 0.27669 0.55033 0.0
C593 C 0.31155 0.28075 0.55751 0.0
C594 C 0.31655 0.27736 0.57528 0.0
C595 C 0.30216 0.26983 0.58589 0.0
H596 H 0.32272 0.28657 0.54931 0.0
H597 H 0.18268 0.21436 0.65246 0.0
H598 H 0.53636 0.51994 0.58644 0.0
H599 H 0.51832 0.5182 0.61328 0.0
H600 H 0.51355 0.58017 0.61545 0.0
H601 H 0.53277 0.58225 0.58923 0.0
H602 H 0.52215 0.57081 0.64753 0.0
H603 H 0.47386 0.54566 0.60088 0.0
H604 H 0.45973 0.52485 0.57404 0.0
H605 H 0.4652 0.47377 0.60227 0.0
H606 H 0.47963 0.49425 0.62922 0.0
H607 H 0.44707 0.56574 0.71065 0.0
H608 H 0.46397 0.57028 0.68323 0.0
H609 H 0.48312 0.51256 0.68402 0.0
H610 H 0.46658 0.508 0.71151 0.0
H611 H 0.46546 0.52144 0.65006 0.0
H612 H 0.51526 0.54822 0.69649 0.0
H613 H 0.52813 0.57016 0.72305 0.0
H614 H 0.51754 0.61995 0.69435 0.0
H615 H 0.50433 0.59827 0.66768 0.0
C616 C 0.53169 0.53327 0.5927 0.0
C617 C 0.53608 0.55125 0.58562 0.0
C618 C 0.52109 0.5322 0.60794 0.0
C619 C 0.51425 0.549 0.61625 0.0
C620 C 0.51857 0.56698 0.60923 0.0
C621 C 0.52939 0.56811 0.5941 0.0
C622 C 0.50304 0.54782 0.63252 0.0
C623 C 0.50955 0.56023 0.64795 0.0
C624 C 0.4867 0.53388 0.63321 0.0
C625 C 0.47799 0.52149 0.61703 0.0
C626 C 0.47219 0.52998 0.60133 0.0
C627 C 0.4641 0.51824 0.5861 0.0
C628 C 0.46161 0.498 0.58644 0.0
C629 C 0.46716 0.48945 0.60202 0.0
C630 C 0.47527 0.50112 0.61729 0.0
C631 C 0.45494 0.55405 0.70502 0.0
C632 C 0.45553 0.53652 0.71326 0.0
C633 C 0.4646 0.55668 0.68939 0.0
C634 C 0.47478 0.54174 0.68165 0.0
C635 C 0.47531 0.52423 0.6898 0.0
C636 C 0.46593 0.5217 0.70555 0.0
C637 C 0.48476 0.54423 0.66496 0.0
C638 C 0.47798 0.53209 0.6495 0.0
C639 C 0.50063 0.5586 0.66416 0.0
C640 C 0.5086 0.57163 0.68017 0.0
C641 C 0.5155 0.56384 0.6959 0.0
C642 C 0.52289 0.57623 0.71096 0.0
C643 C 0.52359 0.59644 0.7104 0.0
C644 C 0.51695 0.60429 0.69477 0.0
C645 C 0.50952 0.59197 0.67967 0.0
H646 H 0.52933 0.60601 0.72207 0.0
H647 H 0.45535 0.48894 0.57463 0.0
H648 H 0.76268 0.23783 0.6628 0.0
H649 H 0.75246 0.2589 0.63997 0.0
H650 H 0.81022 0.29017 0.64542 0.0
H651 H 0.82052 0.26917 0.66845 0.0
H652 H 0.78128 0.31478 0.64434 0.0
H653 H 0.79742 0.25725 0.61019 0.0
H654 H 0.7958 0.222 0.60118 0.0
H655 H 0.73398 0.22096 0.58663 0.0
H656 H 0.73518 0.25618 0.59579 0.0
H657 H 0.7781 0.36202 0.56386 0.0
H658 H 0.78603 0.34195 0.58818 0.0
H659 H 0.7276 0.31221 0.58086 0.0
H660 H 0.71955 0.33215 0.55635 0.0
H661 H 0.75566 0.28689 0.58331 0.0
H662 H 0.73982 0.34483 0.61646 0.0
H663 H 0.74166 0.38014 0.62524 0.0
H664 H 0.80301 0.38052 0.64151 0.0
H665 H 0.80161 0.34525 0.63258 0.0
C666 C 0.77322 0.24918 0.65915 0.0
C667 C 0.79245 0.25185 0.66733 0.0
C668 C 0.76737 0.26117 0.64606 0.0
C669 C 0.78064 0.27598 0.64089 0.0
C670 C 0.79976 0.27882 0.64922 0.0
C671 C 0.80564 0.2668 0.66229 0.0
C672 C 0.7746 0.28847 0.62674 0.0
C673 C 0.77589 0.30872 0.63093 0.0
C674 C 0.76712 0.28048 0.6094 0.0
C675 C 0.76635 0.25931 0.60386 0.0
C676 C 0.78345 0.24947 0.60522 0.0
C677 C 0.78261 0.22951 0.60005 0.0
C678 C 0.76478 0.21924 0.59338 0.0
C679 C 0.74777 0.22893 0.59182 0.0
C680 C 0.74852 0.2489 0.59699 0.0
C681 C 0.76688 0.35129 0.56747 0.0
C682 C 0.74818 0.34869 0.55817 0.0
C683 C 0.77142 0.33989 0.58143 0.0
C684 C 0.75734 0.32572 0.58642 0.0
C685 C 0.73865 0.3231 0.57722 0.0
C686 C 0.73407 0.33455 0.56326 0.0
C687 C 0.7624 0.31322 0.60087 0.0
C688 C 0.76094 0.29296 0.59674 0.0
C689 C 0.76975 0.32121 0.61826 0.0
C690 C 0.77064 0.34242 0.62369 0.0
C691 C 0.75374 0.35247 0.62177 0.0
C692 C 0.7547 0.37248 0.6268 0.0
C693 C 0.77245 0.38258 0.63389 0.0
C694 C 0.78928 0.37268 0.636 0.0
C695 C 0.7884 0.35268 0.63097 0.0
H696 H 0.77316 0.39807 0.63778 0.0
H697 H 0.76417 0.20378 0.58939 0.0
H698 H 0.49609 0.02122 0.57756 0.0
H699 H 0.51465 0.02207 0.6066 0.0
H700 H 0.50535 0.95938 0.60495 0.0
H701 H 0.48586 0.95848 0.57635 0.0
H702 H 0.50177 0.97485 0.63771 0.0
H703 H 0.54912 0.98268 0.59401 0.0
H704 H 0.56468 0.99734 0.56892 0.0
H705 H 0.57549 0.05231 0.60065 0.0
H706 H 0.55973 0.03804 0.62585 0.0
H707 H 0.58073 0.96344 0.70263 0.0
H708 H 0.55939 0.96198 0.6749 0.0
H709 H 0.56214 0.02478 0.67891 0.0
H710 H 0.58336 0.02639 0.70658 0.0
H711 H 0.56916 0.00871 0.64507 0.0
H712 H 0.52167 -0.00023 0.68904 0.0
H713 H 0.50679 0.98404 0.71391 0.0
H714 H 0.49734 0.9296 0.68124 0.0
H715 H 0.51242 0.94494 0.65624 0.0
C716 C 0.49769 0.00763 0.5835 0.0
C717 C 0.48959 0.98976 0.57454 0.0
C718 C 0.50852 0.00812 0.60002 0.0
C719 C 0.51172 0.99076 0.60779 0.0
C720 C 0.50319 0.97296 0.59915 0.0
C721 C 0.49222 0.97246 0.58271 0.0
C722 C 0.52426 0.99113 0.62477 0.0
C723 C 0.51659 0.98205 0.63924 0.0
C724 C 0.54353 0.00073 0.62687 0.0
C725 C 0.55307 0.00934 0.61175 0.0
C726 C 0.55468 0.99793 0.59559 0.0
C727 C 0.56355 0.00617 0.58136 0.0
C728 C 0.57102 0.02576 0.58317 0.0
C729 C 0.56967 0.03714 0.59925 0.0
C730 C 0.56078 0.02899 0.61352 0.0
C731 C 0.57672 0.97693 0.69764 0.0
C732 C 0.58371 0.99503 0.70681 0.0
C733 C 0.56449 0.97607 0.68184 0.0
C734 C 0.55913 0.99328 0.67494 0.0
C735 C 0.56611 0.01134 0.68405 0.0
C736 C 0.57818 0.01221 0.69989 0.0
C737 C 0.54661 0.99255 0.65797 0.0
C738 C 0.55433 0.00153 0.64351 0.0
C739 C 0.5275 0.98269 0.65584 0.0
C740 C 0.51836 0.97346 0.67083 0.0
C741 C 0.51657 0.9844 0.68721 0.0
C742 C 0.50807 0.97557 0.70132 0.0
C743 C 0.50117 0.95582 0.69917 0.0
C744 C 0.50271 0.94488 0.68289 0.0
C745 C 0.51122 0.95365 0.66874 0.0
H746 H 0.49459 0.94901 0.71011 0.0
H747 H 0.57789 0.0321 0.57214 0.0
H748 H 0.80983 0.20519 0.76378 0.0
H749 H 0.83856 0.21185 0.78538 0.0
H750 H 0.87595 0.2199 0.74193 0.0
H751 H 0.84727 0.21316 0.72025 0.0
H752 H 0.8904 0.19588 0.76722 0.0
H753 H 0.86528 0.25858 0.7659 0.0
H754 H 0.83985 0.28164 0.76787 0.0
H755 H 0.83185 0.269 0.82221 0.0
H756 H 0.85705 0.24563 0.82047 0.0
H757 H 0.97665 0.23787 0.81831 0.0
H758 H 0.94809 0.23124 0.79671 0.0
H759 H 0.90973 0.2309 0.84014 0.0
H760 H 0.93822 0.23803 0.86184 0.0
H761 H 0.89557 0.25088 0.81468 0.0
H762 H 0.92001 0.18824 0.81654 0.0
H763 H 0.94478 0.16446 0.815 0.0
H764 H 0.9533 0.17583 0.76044 0.0
H765 H 0.92876 0.19989 0.76173 0.0
C766 C 0.82419 0.20833 0.75886 0.0
C767 C 0.82635 0.2087 0.74036 0.0
C768 C 0.84055 0.21223 0.77119 0.0
C769 C 0.85932 0.21647 0.76523 0.0
C770 C 0.86155 0.21669 0.74677 0.0
C771 C 0.84518 0.21297 0.73444 0.0
C772 C 0.87667 0.22055 0.77827 0.0
C773 C 0.8917 0.20805 0.77747 0.0
C774 C 0.87801 0.23611 0.7919 0.0
C775 C 0.86291 0.25021 0.79299 0.0
C776 C 0.85797 0.26059 0.77822 0.0
C777 C 0.84363 0.27374 0.7793 0.0
C778 C 0.8342 0.27674 0.79514 0.0
C779 C 0.83914 0.26663 0.80994 0.0
C780 C 0.85347 0.25345 0.80892 0.0
C781 C 0.96215 0.23632 0.82328 0.0
C782 C 0.9597 0.23842 0.8418 0.0
C783 C 0.94583 0.23245 0.81091 0.0
C784 C 0.92677 0.23032 0.81681 0.0
C785 C 0.9243 0.23247 0.83529 0.0
C786 C 0.9406 0.23649 0.84767 0.0
C787 C 0.9094 0.22619 0.8037 0.0
C788 C 0.89433 0.23868 0.80448 0.0
C789 C 0.90794 0.2105 0.79013 0.0
C790 C 0.92268 0.19601 0.7893 0.0
C791 C 0.92727 0.18579 0.80426 0.0
C792 C 0.94126 0.17223 0.80342 0.0
C793 C 0.95065 0.16867 0.78765 0.0
C794 C 0.94604 0.17862 0.77266 0.0
C795 C 0.93208 0.1922 0.77343 0.0
H796 H 0.96147 0.15817 0.78702 0.0
H797 H 0.8231 0.28694 0.79595 0.0
H798 H 0.51774 0.92119 0.50921 0.0
H799 H 0.5198 0.89536 0.48528 0.0
H800 H 0.46814 0.91293 0.45715 0.0
H801 H 0.46576 0.93852 0.4813 0.0
H802 H 0.4662 0.87437 0.45662 0.0
H803 H 0.51416 0.92434 0.44314 0.0
H804 H 0.54264 0.94898 0.44912 0.0
H805 H 0.57972 0.90434 0.46196 0.0
H806 H 0.55139 0.87945 0.4563 0.0
H807 H 0.48148 0.81615 0.37605 0.0
H808 H 0.47765 0.84416 0.39732 0.0
H809 H 0.52552 0.82845 0.43188 0.0
H810 H 0.5295 0.80052 0.41075 0.0
H811 H 0.52832 0.86764 0.42709 0.0
H812 H 0.47922 0.81809 0.44197 0.0
H813 H 0.45052 0.79379 0.43536 0.0
H814 H 0.41533 0.83849 0.41879 0.0
H815 H 0.44392 0.86302 0.42508 0.0
C816 C 0.50685 0.91953 0.4979 0.0
C817 C 0.49167 0.93187 0.49707 0.0
C818 C 0.50808 0.90485 0.4842 0.0
C819 C 0.4943 0.90241 0.46927 0.0
C820 C 0.47896 0.9146 0.46851 0.0
C821 C 0.47765 0.92924 0.4823 0.0
C822 C 0.49584 0.88695 0.45463 0.0
C823 C 0.47968 0.8731 0.44995 0.0
C824 C 0.5135 0.88513 0.44607 0.0
C825 C 0.53061 0.90005 0.44944 0.0
C826 C 0.52836 0.91979 0.44737 0.0
C827 C 0.54448 0.9338 0.45068 0.0
C828 C 0.56297 0.92824 0.45596 0.0
C829 C 0.56538 0.90864 0.45789 0.0
C830 C 0.5493 0.89457 0.45461 0.0
C831 C 0.49122 0.81868 0.38816 0.0
C832 C 0.50577 0.80609 0.39173 0.0
C833 C 0.48896 0.83464 0.40032 0.0
C834 C 0.50123 0.83828 0.41621 0.0
C835 C 0.51591 0.82588 0.41968 0.0
C836 C 0.51811 0.80989 0.40761 0.0
C837 C 0.49882 0.85496 0.42933 0.0
C838 C 0.51481 0.86904 0.43368 0.0
C839 C 0.48097 0.85706 0.43747 0.0
C840 C 0.46376 0.84235 0.4338 0.0
C841 C 0.4654 0.82271 0.43678 0.0
C842 C 0.44915 0.8089 0.43312 0.0
C843 C 0.43113 0.81458 0.42661 0.0
C844 C 0.42931 0.8341 0.4238 0.0
C845 C 0.44553 0.84796 0.42743 0.0
H846 H 0.41857 0.80387 0.42378 0.0
H847 H 0.57543 0.9391 0.45852 0.0
H848 H 0.19762 0.32792 0.77197 0.0
H849 H 0.1699 0.31598 0.7884 0.0
H850 H 0.14395 0.2824 0.74028 0.0
H851 H 0.17149 0.29449 0.72374 0.0
H852 H 0.11673 0.30087 0.75797 0.0
H853 H 0.16771 0.26031 0.77276 0.0
H854 H 0.20097 0.25329 0.78342 0.0
H855 H 0.19417 0.28305 0.83488 0.0
H856 H 0.16095 0.29048 0.82445 0.0
H857 H 0.04749 0.24073 0.8004 0.0
H858 H 0.0748 0.25215 0.78331 0.0
H859 H 0.10206 0.28619 0.83067 0.0
H860 H 0.07495 0.27469 0.84791 0.0
H861 H 0.12852 0.26691 0.81296 0.0
H862 H 0.07773 0.30782 0.79807 0.0
H863 H 0.04449 0.3149 0.78743 0.0
H864 H 0.05093 0.28452 0.73616 0.0
H865 H 0.08414 0.27702 0.74659 0.0
C866 C 0.18596 0.31803 0.76491 0.0
C867 C 0.18676 0.31205 0.74664 0.0
C868 C 0.17019 0.31116 0.77431 0.0
C869 C 0.155 0.29809 0.76562 0.0
C870 C 0.15556 0.29243 0.74725 0.0
C871 C 0.17133 0.29931 0.73784 0.0
C872 C 0.13859 0.29027 0.77572 0.0
C873 C 0.11928 0.2932 0.76985 0.0
C874 C 0.14196 0.28062 0.79143 0.0
C875 C 0.16191 0.27611 0.79776 0.0
C876 C 0.17336 0.26549 0.7863 0.0
C877 C 0.1922 0.26142 0.79231 0.0
C878 C 0.1997 0.26777 0.8098 0.0
C879 C 0.18835 0.27816 0.82133 0.0
C880 C 0.16951 0.2823 0.81538 0.0
C881 C 0.05931 0.25061 0.8072 0.0
C882 C 0.059 0.25685 0.82551 0.0
C883 C 0.07487 0.25719 0.79739 0.0
C884 C 0.09034 0.2702 0.80567 0.0
C885 C 0.09025 0.27618 0.82401 0.0
C886 C 0.07471 0.26962 0.83383 0.0
C887 C 0.10667 0.27758 0.79525 0.0
C888 C 0.12597 0.27456 0.80106 0.0
C889 C 0.10328 0.28714 0.77949 0.0
C890 C 0.08334 0.29168 0.77317 0.0
C891 C 0.072 0.30251 0.78458 0.0
C892 C 0.05317 0.30663 0.77858 0.0
C893 C 0.04558 0.30012 0.76115 0.0
C894 C 0.05682 0.28953 0.74967 0.0
C895 C 0.07565 0.28535 0.75561 0.0
H896 H 0.031 0.30333 0.75653 0.0
H897 H 0.21429 0.26459 0.81443 0.0
H898 H 0.52651 0.59611 0.50661 0.0
H899 H 0.51704 0.61513 0.48177 0.0
H900 H 0.57784 0.62447 0.47004 0.0
H901 H 0.58731 0.60523 0.49462 0.0
H902 H 0.52618 0.65216 0.47623 0.0
H903 H 0.5813 0.6262 0.42557 0.0
H904 H 0.59735 0.59653 0.41722 0.0
H905 H 0.55018 0.56125 0.43712 0.0
H906 H 0.53371 0.59067 0.44535 0.0
H907 H 0.54234 0.72002 0.41275 0.0
H908 H 0.54645 0.69663 0.43505 0.0
H909 H 0.51596 0.65093 0.39823 0.0
H910 H 0.512 0.67424 0.37566 0.0
H911 H 0.54759 0.63838 0.41485 0.0
H912 H 0.4926 0.6709 0.43256 0.0
H913 H 0.47401 0.69903 0.44021 0.0
H914 H 0.51579 0.71798 0.4848 0.0
H915 H 0.5348 0.6901 0.47727 0.0
C916 C 0.53783 0.60219 0.4987 0.0
C917 C 0.55766 0.59921 0.50248 0.0
C918 C 0.5324 0.61306 0.48453 0.0
C919 C 0.5467 0.62102 0.47391 0.0
C920 C 0.56652 0.61817 0.47783 0.0
C921 C 0.57193 0.60728 0.49193 0.0
C922 C 0.54106 0.63274 0.45899 0.0
C923 C 0.53079 0.6491 0.4628 0.0
C924 C 0.54669 0.6285 0.44135 0.0
C925 C 0.55636 0.61068 0.43621 0.0
C926 C 0.5743 0.61211 0.42808 0.0
C927 C 0.58348 0.59533 0.42339 0.0
C928 C 0.57482 0.57702 0.42669 0.0
C929 C 0.55692 0.57545 0.43463 0.0
C930 C 0.54766 0.59217 0.43933 0.0
C931 C 0.53653 0.70499 0.40934 0.0
C932 C 0.52676 0.69902 0.39243 0.0
C933 C 0.53882 0.69165 0.42215 0.0
C934 C 0.53125 0.6721 0.4184 0.0
C935 C 0.52185 0.66597 0.40142 0.0
C936 C 0.51958 0.67932 0.38855 0.0
C937 C 0.53327 0.65812 0.43226 0.0
C938 C 0.54286 0.64135 0.42825 0.0
C939 C 0.52665 0.66175 0.44961 0.0
C940 C 0.5152 0.67848 0.45426 0.0
C941 C 0.4979 0.68114 0.44393 0.0
C942 C 0.48728 0.69703 0.44825 0.0
C943 C 0.49373 0.7103 0.46296 0.0
C944 C 0.51081 0.70769 0.4734 0.0
C945 C 0.5215 0.69183 0.46912 0.0
H946 H 0.48549 0.72259 0.46628 0.0
H947 H 0.58196 0.56406 0.42306 0.0
H948 H 0.88279 0.77628 0.77239 0.0
H949 H 0.90678 0.77507 0.74953 0.0
H950 H 0.86409 0.79291 0.71076 0.0
H951 H 0.84007 0.79403 0.73347 0.0
H952 H 0.88365 0.76312 0.69672 0.0
H953 H 0.89977 0.82542 0.72982 0.0
H954 H 0.90807 0.84819 0.75686 0.0
H955 H 0.96026 0.82 0.76864 0.0
H956 H 0.95212 0.79687 0.74178 0.0
H957 H 0.94987 0.79098 0.6317 0.0
H958 H 0.92543 0.79154 0.65413 0.0
H959 H 0.96719 0.77234 0.69293 0.0
H960 H 0.99167 0.77171 0.67065 0.0
H961 H 0.94797 0.80295 0.70678 0.0
H962 H 0.93176 0.74065 0.67357 0.0
H963 H 0.92347 0.71806 0.64641 0.0
H964 H 0.87142 0.74649 0.6347 0.0
H965 H 0.87957 0.76945 0.66168 0.0
C966 C 0.87855 0.77989 0.75897 0.0
C967 C 0.85966 0.78536 0.75474 0.0
C968 C 0.89226 0.77926 0.74596 0.0
C969 C 0.88726 0.78411 0.72851 0.0
C970 C 0.86824 0.78916 0.72416 0.0
C971 C 0.85456 0.78987 0.73717 0.0
C972 C 0.90193 0.78407 0.71483 0.0
C973 C 0.89761 0.77202 0.69881 0.0
C974 C 0.92028 0.7954 0.71773 0.0
C975 C 0.92522 0.80928 0.73389 0.0
C976 C 0.91293 0.82397 0.73826 0.0
C977 C 0.91762 0.83696 0.75354 0.0
C978 C 0.93465 0.83551 0.76449 0.0
C979 C 0.94705 0.82109 0.76016 0.0
C980 C 0.94242 0.80804 0.7449 0.0
C981 C 0.95385 0.7869 0.64501 0.0
C982 C 0.97269 0.78126 0.64938 0.0
C983 C 0.93986 0.78716 0.65778 0.0
C984 C 0.94449 0.78185 0.67513 0.0
C985 C 0.96334 0.77647 0.6796 0.0
C986 C 0.97728 0.77606 0.66682 0.0
C987 C 0.92971 0.78198 0.6887 0.0
C988 C 0.93401 0.79406 0.70469 0.0
C989 C 0.91134 0.7707 0.68576 0.0
C990 C 0.90639 0.75691 0.66954 0.0
C991 C 0.91865 0.7422 0.66512 0.0
C992 C 0.91395 0.72931 0.64977 0.0
C993 C 0.89696 0.73088 0.63881 0.0
C994 C 0.8846 0.74532 0.64319 0.0
C995 C 0.88924 0.75827 0.65851 0.0
H996 H 0.89335 0.72087 0.62693 0.0
H997 H 0.93827 0.84559 0.77631 0.0
H998 H 0.03975 0.9312 0.48542 0.0
H999 H 0.03345 0.90253 0.50198 0.0
H1000 H 0.05766 0.9356 0.55098 0.0
H1001 H 0.06433 0.96428 0.53437 0.0
H1002 H 0.07129 0.90055 0.54788 0.0
H1003 H 0.00784 0.92498 0.54233 0.0
H1004 H 0.97902 0.93633 0.52623 0.0
H1005 H 0.96797 0.88079 0.49548 0.0
H1006 H 0.99689 0.86918 0.51124 0.0
H1007 H 0.03794 0.83212 0.60742 0.0
H1008 H 0.0434 0.86156 0.59174 0.0
H1009 H 0.0185 0.82996 0.54227 0.0
H1010 H 0.01259 0.8006 0.55791 0.0
H1011 H 0.00505 0.8647 0.54609 0.0
H1012 H 0.06868 0.84042 0.55104 0.0
H1013 H 0.09762 0.82895 0.56684 0.0
H1014 H 0.10846 0.88405 0.59837 0.0
H1015 H 0.07942 0.89576 0.58291 0.0
C1016 C 0.04367 0.93239 0.49973 0.0
C1017 C 0.05245 0.94998 0.50867 0.0
C1018 C 0.03999 0.91601 0.50919 0.0
C1019 C 0.04486 0.91699 0.52776 0.0
C1020 C 0.05375 0.93453 0.53667 0.0
C1021 C 0.0575 0.95089 0.5272 0.0
C1022 C 0.04098 0.89964 0.53786 0.0
C1023 C 0.05675 0.89287 0.5477 0.0
C1024 C 0.02209 0.88936 0.53729 0.0
C1025 C 0.00464 0.89628 0.52786 0.0
C1026 C 0.99935 0.91523 0.53205 0.0
C1027 C 0.98298 0.92171 0.523 0.0
C1028 C 0.9717 0.90931 0.50981 0.0
C1029 C 0.97673 0.89039 0.50568 0.0
C1030 C 0.9931 0.88385 0.51468 0.0
C1031 C 0.03362 0.83144 0.5932 0.0
C1032 C 0.0249 0.814 0.5839 0.0
C1033 C 0.03682 0.84826 0.58424 0.0
C1034 C 0.0316 0.8479 0.56577 0.0
C1035 C 0.02267 0.83058 0.55652 0.0
C1036 C 0.01934 0.81379 0.56548 0.0
C1037 C 0.03537 0.86558 0.55607 0.0
C1038 C 0.01958 0.8724 0.5463 0.0
C1039 C 0.05425 0.87589 0.55668 0.0
C1040 C 0.07176 0.86889 0.56594 0.0
C1041 C 0.07715 0.85004 0.56144 0.0
C1042 C 0.09359 0.8435 0.57032 0.0
C1043 C 0.10484 0.85574 0.58364 0.0
C1044 C 0.09971 0.87457 0.58807 0.0
C1045 C 0.08328 0.88117 0.57924 0.0
H1046 H 0.11757 0.85066 0.59049 0.0
H1047 H 0.95904 0.91435 0.50282 0.0
H1048 H 0.19994 0.74909 0.75658 0.0
H1049 H 0.17423 0.75524 0.73417 0.0
H1050 H 0.15684 0.69345 0.72523 0.0
H1051 H 0.18309 0.6872 0.74729 0.0
H1052 H 0.1561 0.7089 0.69447 0.0
H1053 H 0.13081 0.72472 0.75136 0.0
H1054 H 0.13096 0.74093 0.78193 0.0
H1055 H 0.13495 0.79691 0.76078 0.0
H1056 H 0.13509 0.78104 0.73008 0.0
H1057 H 0.06024 0.71586 0.65382 0.0
H1058 H 0.08816 0.70982 0.67393 0.0
H1059 H 0.10899 0.77085 0.67753 0.0
H1060 H 0.08102 0.77708 0.65743 0.0
H1061 H 0.1081 0.75599 0.7106 0.0
H1062 H 0.13215 0.73875 0.65305 0.0
H1063 H 0.13059 0.72138 0.62285 0.0
H1064 H 0.12712 0.66643 0.64591 0.0
H1065 H 0.12838 0.68348 0.67626 0.0
C1066 C 0.19065 0.73681 0.74983 0.0
C1067 C 0.19332 0.71765 0.75377 0.0
C1068 C 0.17591 0.74035 0.73707 0.0
C1069 C 0.16334 0.72484 0.72827 0.0
C1070 C 0.16631 0.70565 0.7319 0.0
C1071 C 0.18123 0.70209 0.74451 0.0
C1072 C 0.147 0.72866 0.71541 0.0
C1073 C 0.14546 0.71901 0.69808 0.0
C1074 C 0.13329 0.74211 0.72 0.0
C1075 C 0.13316 0.7517 0.73844 0.0
C1076 C 0.13187 0.74049 0.75324 0.0
C1077 C 0.13188 0.74962 0.77059 0.0
C1078 C 0.13302 0.76994 0.7733 0.0
C1079 C 0.1341 0.78118 0.75866 0.0
C1080 C 0.13411 0.77212 0.74128 0.0
C1081 C 0.0708 0.728 0.65881 0.0
C1082 C 0.06842 0.74696 0.65404 0.0
C1083 C 0.08679 0.7245 0.67024 0.0
C1084 C 0.10069 0.73987 0.67709 0.0
C1085 C 0.09841 0.7588 0.67234 0.0
C1086 C 0.08246 0.76231 0.66082 0.0
C1087 C 0.11727 0.73627 0.68971 0.0
C1088 C 0.1188 0.74593 0.707 0.0
C1089 C 0.13079 0.72267 0.68515 0.0
C1090 C 0.13019 0.7124 0.66692 0.0
C1091 C 0.1309 0.72296 0.65168 0.0
C1092 C 0.1301 0.71317 0.63453 0.0
C1093 C 0.12871 0.69281 0.63246 0.0
C1094 C 0.12818 0.6822 0.64753 0.0
C1095 C 0.12896 0.69192 0.66471 0.0
H1096 H 0.12808 0.68526 0.61917 0.0
H1097 H 0.13302 0.77698 0.78674 0.0
H1098 H 0.94849 0.58283 0.49743 0.0
H1099 H 0.95367 0.61332 0.51659 0.0
H1100 H 0.01644 0.61254 0.51462 0.0
H1101 H 0.01142 0.58137 0.49628 0.0
H1102 H 0.00811 0.62238 0.54747 0.0
H1103 H 0.9897 0.64328 0.49003 0.0
H1104 H 0.96931 0.64367 0.46172 0.0
H1105 H 0.92065 0.65967 0.49125 0.0
H1106 H 0.94068 0.65912 0.51976 0.0
H1107 H 0.03081 0.72073 0.58346 0.0
H1108 H 0.02687 0.69117 0.56284 0.0
H1109 H 0.96435 0.68629 0.56832 0.0
H1110 H 0.9681 0.71595 0.58889 0.0
H1111 H 0.97359 0.67999 0.53312 0.0
H1112 H 0.99275 0.65814 0.5907 0.0
H1113 H 0.01404 0.6584 0.61858 0.0
H1114 H 0.06262 0.64498 0.58783 0.0
H1115 H 0.04167 0.6449 0.55974 0.0
C1116 C 0.96343 0.589 0.50122 0.0
C1117 C 0.97954 0.5796 0.49532 0.0
C1118 C 0.96635 0.6066 0.51199 0.0
C1119 C 0.98543 0.6154 0.51681 0.0
C1120 C 0.00157 0.60607 0.51098 0.0
C1121 C 0.99867 0.58834 0.50035 0.0
C1122 C 0.98852 0.6341 0.5283 0.0
C1123 C 0.0008 0.63507 0.54416 0.0
C1124 C 0.97872 0.65057 0.52417 0.0
C1125 C 0.96665 0.65099 0.50704 0.0
C1126 C 0.97461 0.64674 0.4905 0.0
C1127 C 0.96312 0.64702 0.47441 0.0
C1128 C 0.94368 0.65165 0.47469 0.0
C1129 C 0.93571 0.65607 0.49106 0.0
C1130 C 0.94713 0.65579 0.50718 0.0
C1131 C 0.0162 0.71342 0.58026 0.0
C1132 C -0.00024 0.72064 0.58788 0.0
C1133 C 0.014 0.6965 0.56851 0.0
C1134 C 0.99535 0.68647 0.56421 0.0
C1135 C 0.97887 0.69383 0.5715 0.0
C1136 C 0.98106 0.71074 0.5833 0.0
C1137 C 0.99306 0.66816 0.55225 0.0
C1138 C 0.98094 0.6673 0.53632 0.0
C1139 C 0.00314 0.65185 0.55623 0.0
C1140 C 0.01569 0.6517 0.57311 0.0
C1141 C 0.00801 0.65539 0.58988 0.0
C1142 C 0.02 0.65548 0.60572 0.0
C1143 C 0.03968 0.65176 0.60498 0.0
C1144 C 0.04738 0.64788 0.58838 0.0
C1145 C 0.03545 0.64779 0.5725 0.0
H1146 H 0.04895 0.65185 0.61725 0.0
H1147 H 0.93481 0.65186 0.46222 0.0
H1148 H 0.79068 0.83597 0.19227 0.0
H1149 H 0.81466 0.8641 0.20001 0.0
H1150 H 0.76971 0.89633 0.22275 0.0
H1151 H 0.74535 0.86846 0.21426 0.0
H1152 H 0.79103 0.91836 0.20274 0.0
H1153 H 0.80512 0.8777 0.24953 0.0
H1154 H 0.81256 0.84743 0.26274 0.0
H1155 H 0.86602 0.84725 0.23584 0.0
H1156 H 0.85877 0.87739 0.22226 0.0
H1157 H 0.85787 0.99469 0.24708 0.0
H1158 H 0.83329 0.96663 0.24132 0.0
H1159 H 0.87451 0.93482 0.21245 0.0
H1160 H 0.89923 0.96286 0.21813 0.0
H1161 H 0.85472 0.91301 0.23674 0.0
H1162 H 0.83944 0.95365 0.18942 0.0
H1163 H 0.83169 0.98425 0.17697 0.0
H1164 H 0.77988 0.98477 0.20626 0.0
H1165 H 0.78748 0.95429 0.21909 0.0
C1166 C 0.78583 0.84909 0.19878 0.0
C1167 C 0.76606 0.84999 0.20259 0.0
C1168 C 0.79963 0.86509 0.20341 0.0
C1169 C 0.79405 0.88225 0.21218 0.0
C1170 C 0.77436 0.8832 0.21605 0.0
C1171 C 0.76049 0.86721 0.21133 0.0
C1172 C 0.8087 0.89935 0.21682 0.0
C1173 C 0.80481 0.91725 0.21043 0.0
C1174 C 0.82686 0.89783 0.22657 0.0
C1175 C 0.83131 0.87972 0.23475 0.0
C1176 C 0.81839 0.87113 0.24632 0.0
C1177 C 0.82259 0.85401 0.25389 0.0
C1178 C 0.83973 0.8454 0.2501 0.0
C1179 C 0.85274 0.85393 0.23876 0.0
C1180 C 0.8486 0.87104 0.23113 0.0
C1181 C 0.86174 0.98173 0.23952 0.0
C1182 C 0.88049 0.98102 0.23301 0.0
C1183 C 0.84765 0.96574 0.2362 0.0
C1184 C 0.85206 0.94874 0.22636 0.0
C1185 C 0.87084 0.94785 0.22007 0.0
C1186 C 0.88491 0.9639 0.22326 0.0
C1187 C 0.83703 0.93189 0.22257 0.0
C1188 C 0.84088 0.91407 0.22912 0.0
C1189 C 0.81877 0.93352 0.21311 0.0
C1190 C 0.81414 0.95181 0.20536 0.0
C1191 C 0.82649 0.96038 0.19333 0.0
C1192 C 0.8221 0.97768 0.18618 0.0
C1193 C 0.80533 0.98648 0.19086 0.0
C1194 C 0.79288 0.97795 0.20267 0.0
C1195 C 0.79721 0.96066 0.20987 0.0
H1196 H 0.80197 -0.00013 0.18531 0.0
H1197 H 0.84295 0.83214 0.25598 0.0
H1198 H 0.80002 0.21876 0.31224 0.0
H1199 H 0.82537 0.19657 0.30678 0.0
H1200 H 0.78112 0.15278 0.28154 0.0
H1201 H 0.75567 0.17461 0.28748 0.0
H1202 H 0.80602 0.13726 0.30413 0.0
H1203 H 0.81134 0.18003 0.2567 0.0
H1204 H 0.81566 0.21182 0.24403 0.0
H1205 H 0.87234 0.22398 0.27276 0.0
H1206 H 0.86824 0.19236 0.28581 0.0
H1207 H 0.8623 0.07326 0.25673 0.0
H1208 H 0.83989 0.09766 0.26438 0.0
H1209 H 0.88837 0.13609 0.29027 0.0
H1210 H 0.91107 0.11173 0.28254 0.0
H1211 H 0.86313 0.15536 0.26942 0.0
H1212 H 0.85843 0.11161 0.31553 0.0
H1213 H 0.85405 0.07964 0.32786 0.0
H1214 H 0.79606 0.06924 0.30142 0.0
H1215 H 0.80021 0.10104 0.28872 0.0
C1216 C 0.79569 0.20435 0.30565 0.0
C1217 C 0.77585 0.19847 0.30023 0.0
C1218 C 0.8102 0.19175 0.3024 0.0
C1219 C 0.80515 0.1731 0.29358 0.0
C1220 C 0.78535 0.16713 0.28832 0.0
C1221 C 0.77085 0.17969 0.29158 0.0
C1222 C 0.82042 0.15965 0.28992 0.0
C1223 C 0.81839 0.14115 0.29638 0.0
C1224 C 0.83687 0.16494 0.28025 0.0
C1225 C 0.83938 0.18393 0.27238 0.0
C1226 C 0.82465 0.18955 0.26043 0.0
C1227 C 0.82708 0.20753 0.25316 0.0
C1228 C 0.84424 0.21994 0.25762 0.0
C1229 C 0.85904 0.21437 0.26934 0.0
C1230 C 0.85668 0.19642 0.27666 0.0
C1231 C 0.86827 0.08691 0.26401 0.0
C1232 C 0.88848 0.0905 0.26912 0.0
C1233 C 0.8554 0.10082 0.26842 0.0
C1234 C 0.86244 0.11856 0.27812 0.0
C1235 C 0.88266 0.12244 0.28285 0.0
C1236 C 0.89558 0.10849 0.27845 0.0
C1237 C 0.84852 0.13288 0.28338 0.0
C1238 C 0.85082 0.15154 0.27727 0.0
C1239 C 0.83229 0.12774 0.29335 0.0
C1240 C 0.8297 0.10864 0.30105 0.0
C1241 C 0.8448 0.10244 0.31223 0.0
C1242 C 0.84235 0.08436 0.31931 0.0
C1243 C 0.8248 0.0724 0.3154 0.0
C1244 C 0.80965 0.07851 0.30443 0.0
C1245 C 0.81204 0.09657 0.2973 0.0
H1246 H 0.82293 0.0584 0.32089 0.0
H1247 H 0.84609 0.23384 0.25198 0.0
H1248 H 0.42942 0.00808 0.95982 0.0
H1249 H 0.40097 0.98704 0.9674 0.0
H1250 H 0.42642 0.98773 0.02167 0.0
H1251 H 0.45488 0.00878 0.01416 0.0
H1252 H 0.40918 0.95055 0.00707 0.0
H1253 H 0.39346 0.01683 0.01488 0.0
H1254 H 0.39013 0.04993 0.00578 0.0
H1255 H 0.34832 0.02655 0.96249 0.0
H1256 H 0.35164 0.99325 0.97117 0.0
H1257 H 0.32263 0.92033 0.04916 0.0
H1258 H 0.35234 0.93919 0.04133 0.0
H1259 H 0.32629 0.94149 0.98765 0.0
H1260 H 0.29658 0.9227 0.99534 0.0
H1261 H 0.34415 0.97702 0.0021 0.0
H1262 H 0.35965 0.91059 0.99467 0.0
H1263 H 0.36316 0.87758 0.00391 0.0
H1264 H 0.40541 0.90126 0.04674 0.0
H1265 H 0.40193 0.93447 0.03791 0.0
C1266 C 0.42907 0.00346 0.97326 0.0
C1267 C 0.44426 0.01008 0.98644 0.0
C1268 C 0.41281 0.99156 0.9776 0.0
C1269 C 0.41157 0.98601 0.99513 0.0
C1270 C 0.42712 0.99189 0.00809 0.0
C1271 C 0.44328 0.00396 0.00381 0.0
C1272 C 0.39359 0.97494 0.00019 0.0
C1273 C 0.39498 0.95639 0.00619 0.0
C1274 C 0.37508 0.98252 0.99876 0.0
C1275 C 0.37297 0.00253 0.99355 0.0
C1276 C 0.38369 0.01873 0.00332 0.0
C1277 C 0.38178 0.03753 0.99826 0.0
C1278 C 0.36907 0.04034 0.98354 0.0
C1279 C 0.35819 0.02435 0.97388 0.0
C1280 C 0.36007 0.00551 0.97887 0.0
C1281 C 0.3232 0.92491 0.03572 0.0
C1282 C 0.30728 0.91997 0.02285 0.0
C1283 C 0.34021 0.93561 0.03124 0.0
C1284 C 0.34155 0.94156 0.01387 0.0
C1285 C 0.32554 0.93699 0.00112 0.0
C1286 C 0.30861 0.9262 0.00553 0.0
C1287 C 0.35967 0.95254 0.00891 0.0
C1288 C 0.35832 0.97113 0.00296 0.0
C1289 C 0.3782 0.94499 0.01043 0.0
C1290 C 0.38037 0.92504 0.01575 0.0
C1291 C 0.36956 0.90878 0.00616 0.0
C1292 C 0.37157 0.89003 0.0113 0.0
C1293 C 0.38446 0.88733 0.02594 0.0
C1294 C 0.3954 0.90338 0.03543 0.0
C1295 C 0.39343 0.92217 0.03035 0.0
H1296 H 0.386 0.8728 0.0299 0.0
H1297 H 0.3676 0.05491 0.97964 0.0
H1298 H 0.24351 0.3115 0.29129 0.0
H1299 H 0.22061 0.33625 0.28601 0.0
H1300 H 0.26963 0.37901 0.28218 0.0
H1301 H 0.2925 0.35435 0.28725 0.0
H1302 H 0.23971 0.39161 0.30463 0.0
H1303 H 0.24697 0.36052 0.24537 0.0
H1304 H 0.24576 0.33229 0.22285 0.0
H1305 H 0.18435 0.31903 0.22951 0.0
H1306 H 0.18527 0.34704 0.25229 0.0
H1307 H 0.19845 0.46904 0.26614 0.0
H1308 H 0.21788 0.44222 0.27268 0.0
H1309 H 0.16575 0.40178 0.26369 0.0
H1310 H 0.14626 0.42856 0.25654 0.0
H1311 H 0.19501 0.38626 0.24922 0.0
H1312 H 0.18613 0.41747 0.30667 0.0
H1313 H 0.18624 0.44475 0.33004 0.0
H1314 H 0.24871 0.4565 0.32847 0.0
H1315 H 0.24894 0.42945 0.3049 0.0
C1316 C 0.24933 0.32622 0.2894 0.0
C1317 C 0.26972 0.33106 0.28959 0.0
C1318 C 0.23629 0.34027 0.28633 0.0
C1319 C 0.24348 0.35939 0.28365 0.0
C1320 C 0.26383 0.36432 0.28421 0.0
C1321 C 0.27684 0.35024 0.287 0.0
C1322 C 0.22986 0.37429 0.28001 0.0
C1323 C 0.23003 0.39058 0.29247 0.0
C1324 C 0.21682 0.37251 0.26442 0.0
C1325 C 0.21625 0.35573 0.25068 0.0
C1326 C 0.23325 0.35148 0.24216 0.0
C1327 C 0.23261 0.33554 0.22932 0.0
C1328 C 0.215 0.32383 0.22479 0.0
C1329 C 0.19798 0.32809 0.23306 0.0
C1330 C 0.19856 0.344 0.24592 0.0
C1331 C 0.1911 0.45444 0.26553 0.0
C1332 C 0.17079 0.45094 0.26092 0.0
C1333 C 0.20221 0.43912 0.26937 0.0
C1334 C 0.19321 0.42003 0.26905 0.0
C1335 C 0.173 0.41641 0.26411 0.0
C1336 C 0.16188 0.43172 0.26005 0.0
C1337 C 0.20502 0.40389 0.27373 0.0
C1338 C 0.20452 0.38731 0.2615 0.0
C1339 C 0.21756 0.40527 0.28968 0.0
C1340 C 0.21752 0.42153 0.3039 0.0
C1341 C 0.19987 0.42596 0.31121 0.0
C1342 C 0.19988 0.44137 0.32451 0.0
C1343 C 0.21747 0.45238 0.33071 0.0
C1344 C 0.23509 0.44797 0.32364 0.0
C1345 C 0.23517 0.43259 0.31033 0.0
H1346 H 0.21744 0.4643 0.341 0.0
H1347 H 0.21453 0.3115 0.21485 0.0
H1348 H 0.10562 0.02328 0.44016 0.0
H1349 H 0.13552 0.0451 0.44778 0.0
H1350 H 0.12339 0.04817 0.50366 0.0
H1351 H 0.09292 0.02706 0.49602 0.0
H1352 H 0.13536 0.08317 0.49461 0.0
H1353 H 0.15825 0.01984 0.48727 0.0
H1354 H 0.16174 0.98752 0.47192 0.0
H1355 H 0.18805 0.01466 0.42867 0.0
H1356 H 0.18447 0.04716 0.44364 0.0
H1357 H 0.23163 0.12287 0.52838 0.0
H1358 H 0.20157 0.1009 0.52165 0.0
H1359 H 0.20869 0.10195 0.46498 0.0
H1360 H 0.23875 0.12394 0.47155 0.0
H1361 H 0.19958 0.06458 0.47522 0.0
H1362 H 0.17603 0.12815 0.48314 0.0
H1363 H 0.17296 0.16012 0.49934 0.0
H1364 H 0.14839 0.13179 0.54276 0.0
H1365 H 0.15158 0.09962 0.52692 0.0
C1366 C 0.10916 0.02878 0.45405 0.0
C1367 C 0.09687 0.02339 0.46749 0.0
C1368 C 0.1264 0.04107 0.45841 0.0
C1369 C 0.13185 0.04803 0.47633 0.0
C1370 C 0.11952 0.04289 0.48976 0.0
C1371 C 0.1022 0.03069 0.48539 0.0
C1372 C 0.15036 0.06079 0.48102 0.0
C1373 C 0.14944 0.07897 0.4906 0.0
C1374 C 0.1687 0.05546 0.47553 0.0
C1375 C 0.17091 0.03593 0.4665 0.0
C1376 C 0.16464 0.01892 0.47441 0.0
C1377 C 0.16666 0.00057 0.4658 0.0
C1378 C 0.17506 0.99904 0.44931 0.0
C1379 C 0.18152 0.01586 0.44143 0.0
C1380 C 0.17951 0.03425 0.44998 0.0
C1381 C 0.22683 0.11841 0.51448 0.0
C1382 C 0.23755 0.12518 0.50049 0.0
C1383 C 0.20962 0.10591 0.51067 0.0
C1384 C 0.20287 0.09994 0.49282 0.0
C1385 C 0.21368 0.10643 0.47884 0.0
C1386 C 0.2308 0.11903 0.48263 0.0
C1387 C 0.18451 0.08692 0.48869 0.0
C1388 C 0.18548 0.06871 0.47925 0.0
C1389 C 0.16626 0.09215 0.49443 0.0
C1390 C 0.16423 0.11148 0.50393 0.0
C1391 C 0.17012 0.12873 0.49621 0.0
C1392 C 0.16834 0.14689 0.50531 0.0
C1393 C 0.16054 0.14799 0.52209 0.0
C1394 C 0.15445 0.13092 0.52978 0.0
C1395 C 0.15623 0.11272 0.52074 0.0
H1396 H 0.15916 0.16206 0.52912 0.0
H1397 H 0.17662 0.98482 0.44266 0.0
H1398 H 0.76355 0.17181 0.74658 0.0
H1399 H 0.74117 0.14278 0.74922 0.0
H1400 H 0.74064 0.12786 0.69214 0.0
H1401 H 0.76296 0.15696 0.6894 0.0
H1402 H 0.70441 0.12259 0.70329 0.0
H1403 H 0.7681 0.10451 0.7217 0.0
H1404 H 0.8002 0.10794 0.73917 0.0
H1405 H 0.77116 0.10471 0.78805 0.0
H1406 H 0.73886 0.10154 0.77089 0.0
H1407 H 0.66555 0.02363 0.7029 0.0
H1408 H 0.68708 0.05319 0.70001 0.0
H1409 H 0.68484 0.07012 0.75646 0.0
H1410 H 0.66336 0.04056 0.75952 0.0
H1411 H 0.7224 0.07424 0.74548 0.0
H1412 H 0.65849 0.09201 0.72644 0.0
H1413 H 0.62669 0.08811 0.70848 0.0
H1414 H 0.65665 0.09123 0.66008 0.0
H1415 H 0.68866 0.09486 0.67775 0.0
C1416 C 0.75873 0.16229 0.73461 0.0
C1417 C 0.76509 0.16659 0.7178 0.0
C1418 C 0.74594 0.14572 0.73613 0.0
C1419 C 0.73946 0.13301 0.72091 0.0
C1420 C 0.74547 0.13747 0.70406 0.0
C1421 C 0.75818 0.15411 0.70251 0.0
C1422 C 0.72652 0.11498 0.72261 0.0
C1423 C 0.70845 0.11189 0.71234 0.0
C1424 C 0.73166 0.1012 0.73466 0.0
C1425 C 0.75106 0.10298 0.74502 0.0
C1426 C 0.76855 0.10468 0.73619 0.0
C1427 C 0.78678 0.10655 0.74603 0.0
C1428 C 0.78772 0.10659 0.76471 0.0
C1429 C 0.77041 0.1047 0.77358 0.0
C1430 C 0.75214 0.10285 0.7638 0.0
C1431 C 0.66963 0.03364 0.71471 0.0
C1432 C 0.66271 0.02977 0.73143 0.0
C1433 C 0.68187 0.05055 0.71301 0.0
C1434 C 0.6874 0.0639 0.72799 0.0
C1435 C 0.68071 0.06 0.74474 0.0
C1436 C 0.66839 0.04313 0.74644 0.0
C1437 C 0.7003 0.0819 0.72621 0.0
C1438 C 0.71837 0.08496 0.73645 0.0
C1439 C 0.69521 0.09558 0.71406 0.0
C1440 C 0.67598 0.09351 0.70341 0.0
C1441 C 0.6583 0.0917 0.71196 0.0
C1442 C 0.64024 0.08957 0.70183 0.0
C1443 C 0.63965 0.08937 0.68315 0.0
C1444 C 0.65713 0.09136 0.67456 0.0
C1445 C 0.67524 0.09347 0.68462 0.0
H1446 H 0.62564 0.08771 0.67533 0.0
H1447 H 0.80184 0.10804 0.77231 0.0
H1448 H 0.42986 0.01866 0.55712 0.0
H1449 H 0.40792 0.0435 0.55034 0.0
H1450 H 0.42936 0.04525 0.49758 0.0
H1451 H 0.45209 0.02117 0.50459 0.0
H1452 H 0.426 0.08089 0.51146 0.0
H1453 H 0.38445 0.02076 0.50458 0.0
H1454 H 0.36959 0.98962 0.51369 0.0
H1455 H 0.34489 0.02018 0.55772 0.0
H1456 H 0.35983 0.0515 0.54901 0.0
H1457 H 0.34696 0.12639 0.47053 0.0
H1458 H 0.37091 0.10377 0.4787 0.0
H1459 H 0.35276 0.10688 0.5328 0.0
H1460 H 0.32875 0.12945 0.52478 0.0
H1461 H 0.35451 0.06922 0.51863 0.0
H1462 H 0.39576 0.12965 0.52446 0.0
H1463 H 0.41032 0.16048 0.51447 0.0
H1464 H 0.43512 0.12881 0.47115 0.0
H1465 H 0.42047 0.09778 0.48074 0.0
C1466 C 0.43009 0.02449 0.54415 0.0
C1467 C 0.4427 0.01784 0.53137 0.0
C1468 C 0.41737 0.03854 0.54021 0.0
C1469 C 0.41676 0.04603 0.52334 0.0
C1470 C 0.42949 0.03962 0.51065 0.0
C1471 C 0.44233 0.02568 0.51462 0.0
C1472 C 0.40287 0.06056 0.5189 0.0
C1473 C 0.41033 0.07822 0.51281 0.0
C1474 C 0.38247 0.05727 0.521 0.0
C1475 C 0.37343 0.03846 0.52624 0.0
C1476 C 0.37598 0.02083 0.51628 0.0
C1477 C 0.36752 0.00315 0.52137 0.0
C1478 C 0.35635 0.00292 0.53631 0.0
C1479 C 0.35357 0.02038 0.54617 0.0
C1480 C 0.36202 0.0381 0.54116 0.0
C1481 C 0.34814 0.12236 0.4842 0.0
C1482 C 0.33594 0.12972 0.497 0.0
C1483 C 0.36188 0.10949 0.48886 0.0
C1484 C 0.36366 0.10374 0.50638 0.0
C1485 C 0.3516 0.11114 0.51921 0.0
C1486 C 0.33794 0.1241 0.5146 0.0
C1487 C 0.37765 0.08949 0.51118 0.0
C1488 C 0.37019 0.07188 0.51732 0.0
C1489 C 0.398 0.09277 0.50899 0.0
C1490 C 0.40686 0.1114 0.50322 0.0
C1491 C 0.40418 0.12927 0.51271 0.0
C1492 C 0.41247 0.14678 0.50714 0.0
C1493 C 0.42359 0.14661 0.49216 0.0
C1494 C 0.42648 0.12892 0.48274 0.0
C1495 C 0.4182 0.11136 0.48825 0.0
H1496 H 0.43 0.16018 0.48787 0.0
H1497 H 0.34981 0.98921 0.54022 0.0
H1498 H 0.61092 0.55143 0.54081 0.0
H1499 H 0.63673 0.53001 0.53484 0.0
H1500 H 0.60078 0.48167 0.55223 0.0
H1501 H 0.57478 0.50299 0.55811 0.0
H1502 H 0.63927 0.48271 0.5653 0.0
H1503 H 0.60385 0.48585 0.50833 0.0
H1504 H 0.58903 0.50236 0.48356 0.0
H1505 H 0.64581 0.52972 0.47432 0.0
H1506 H 0.66093 0.51359 0.49922 0.0
H1507 H 0.69482 0.40866 0.52924 0.0
H1508 H 0.66818 0.42882 0.53596 0.0
H1509 H 0.70032 0.47799 0.51585 0.0
H1510 H 0.7268 0.45784 0.50873 0.0
H1511 H 0.66286 0.47572 0.5041 0.0
H1512 H 0.69831 0.47355 0.56131 0.0
H1513 H 0.7134 0.45774 0.5864 0.0
H1514 H 0.6571 0.42919 0.59548 0.0
H1515 H 0.64171 0.44465 0.57027 0.0
C1516 C 0.60847 0.53622 0.5433 0.0
C1517 C 0.59073 0.52886 0.54978 0.0
C1518 C 0.62324 0.52402 0.53992 0.0
C1519 C 0.62054 0.5042 0.54286 0.0
C1520 C 0.60313 0.49692 0.54985 0.0
C1521 C 0.58832 0.50913 0.55325 0.0
C1522 C 0.63578 0.49104 0.5383 0.0
C1523 C 0.64425 0.48095 0.55187 0.0
C1524 C 0.64253 0.48908 0.52085 0.0
C1525 C 0.6335 0.49864 0.50574 0.0
C1526 C 0.61316 0.4955 0.5011 0.0
C1527 C 0.6047 0.50477 0.48702 0.0
C1528 C 0.61646 0.51712 0.4774 0.0
C1529 C 0.63671 0.52017 0.4818 0.0
C1530 C 0.64524 0.51095 0.49588 0.0
C1531 C 0.69621 0.42376 0.52622 0.0
C1532 C 0.71297 0.43167 0.5185 0.0
C1533 C 0.68101 0.43529 0.53015 0.0
C1534 C 0.68238 0.45499 0.52664 0.0
C1535 C 0.69896 0.46283 0.5187 0.0
C1536 C 0.71411 0.45129 0.51467 0.0
C1537 C 0.66652 0.46747 0.53115 0.0
C1538 C 0.65788 0.47743 0.51754 0.0
C1539 C 0.65968 0.46935 0.54858 0.0
C1540 C 0.66889 0.4601 0.56378 0.0
C1541 C 0.68917 0.46379 0.56857 0.0
C1542 C 0.69778 0.45491 0.58282 0.0
C1543 C 0.68623 0.44242 0.5925 0.0
C1544 C 0.66603 0.43884 0.58796 0.0
C1545 C 0.65736 0.44767 0.5737 0.0
H1546 H 0.69292 0.43556 0.60353 0.0
H1547 H 0.60989 0.52429 0.46651 0.0
H1548 H 0.75437 0.22369 0.3573 0.0
H1549 H 0.75451 0.24306 0.3861 0.0
H1550 H 0.7362 0.2917 0.35874 0.0
H1551 H 0.73684 0.27273 0.32987 0.0
H1552 H 0.76452 0.30367 0.3839 0.0
H1553 H 0.70374 0.26299 0.38085 0.0
H1554 H 0.68242 0.23205 0.37718 0.0
H1555 H 0.71329 0.21226 0.42296 0.0
H1556 H 0.73498 0.24299 0.42676 0.0
H1557 H 0.73737 0.36005 0.45987 0.0
H1558 H 0.73516 0.33985 0.43134 0.0
H1559 H 0.75779 0.29283 0.4583 0.0
H1560 H 0.75995 0.31285 0.48693 0.0
H1561 H 0.7269 0.28005 0.4335 0.0
H1562 H 0.78787 0.32088 0.43611 0.0
H1563 H 0.80873 0.3521 0.43978 0.0
H1564 H 0.7768 0.37183 0.39456 0.0
H1565 H 0.75555 0.34082 0.39077 0.0
C1566 C 0.75056 0.23857 0.3574 0.0
C1567 C 0.74554 0.24664 0.34128 0.0
C1568 C 0.75043 0.24955 0.37389 0.0
C1569 C 0.7451 0.26874 0.37459 0.0
C1570 C 0.74027 0.27689 0.35852 0.0
C1571 C 0.74048 0.26596 0.34204 0.0
C1572 C 0.74485 0.28047 0.39204 0.0
C1573 C 0.75607 0.29861 0.39464 0.0
C1574 C 0.73415 0.2737 0.40621 0.0
C1575 C 0.72111 0.25522 0.40398 0.0
C1576 C 0.70608 0.25198 0.39005 0.0
C1577 C 0.69391 0.23449 0.38796 0.0
C1578 C 0.69653 0.22018 0.3998 0.0
C1579 C 0.7113 0.22335 0.41378 0.0
C1580 C 0.72352 0.24081 0.41592 0.0
C1581 C 0.74174 0.34536 0.45977 0.0
C1582 C 0.74897 0.3381 0.47566 0.0
C1583 C 0.74053 0.33387 0.44345 0.0
C1584 C 0.74654 0.31494 0.4427 0.0
C1585 C 0.75312 0.30742 0.4586 0.0
C1586 C 0.75441 0.31891 0.47493 0.0
C1587 C 0.74651 0.3032 0.42526 0.0
C1588 C 0.73529 0.28508 0.4227 0.0
C1589 C 0.75714 0.31 0.41109 0.0
C1590 C 0.76999 0.32861 0.41327 0.0
C1591 C 0.78519 0.33194 0.42703 0.0
C1592 C 0.79711 0.34958 0.42912 0.0
C1593 C 0.79406 0.36396 0.41744 0.0
C1594 C 0.77913 0.36069 0.40361 0.0
C1595 C 0.76715 0.34308 0.40148 0.0
H1596 H 0.8033 0.37761 0.41908 0.0
H1597 H 0.68709 0.20665 0.39816 0.0
H1598 H 0.50824 0.98278 0.91881 0.0
H1599 H 0.52666 0.98114 0.89185 0.0
H1600 H 0.53138 0.04389 0.89301 0.0
H1601 H 0.51293 0.04562 0.91987 0.0
H1602 H 0.52112 0.02625 0.85921 0.0
H1603 H 0.57012 0.02173 0.90706 0.0
H1604 H 0.58471 0.0085 0.9339 0.0
H1605 H 0.5845 0.95248 0.90451 0.0
H1606 H 0.56965 0.96532 0.87755 0.0
H1607 H 0.59543 0.03693 0.79795 0.0
H1608 H 0.57698 0.03885 0.82477 0.0
H1609 H 0.5732 0.97623 0.82482 0.0
H1610 H 0.59181 0.97417 0.79811 0.0
H1611 H 0.58304 0.99402 0.85807 0.0
H1612 H 0.53396 0.9984 0.81026 0.0
H1613 H 0.51939 0.01155 0.78337 0.0
H1614 H 0.51966 0.06767 0.81258 0.0
H1615 H 0.53449 0.05491 0.8396 0.0
C1616 C 0.51323 0.9962 0.91328 0.0
C1617 C 0.50928 0.0143 0.92146 0.0
C1618 C 0.52378 0.99526 0.89795 0.0
C1619 C 0.53054 0.01241 0.89055 0.0
C1620 C 0.52631 0.03049 0.89854 0.0
C1621 C 0.51584 0.03145 0.91392 0.0
C1622 C 0.54204 0.01148 0.87448 0.0
C1623 C 0.5348 0.01944 0.85902 0.0
C1624 C 0.55964 0.0022 0.87415 0.0
C1625 C 0.56858 0.99444 0.89034 0.0
C1626 C 0.57303 0.00655 0.90636 0.0
C1627 C 0.58137 0.99912 0.92159 0.0
C1628 C 0.58548 0.97964 0.92092 0.0
C1629 C 0.58129 0.96756 0.90501 0.0
C1630 C 0.57292 0.9749 0.88975 0.0
C1631 C 0.59068 0.02356 0.80365 0.0
C1632 C 0.59505 0.00539 0.79585 0.0
C1633 C 0.58007 0.02468 0.81894 0.0
C1634 C 0.57355 0.00766 0.82667 0.0
C1635 C 0.57808 0.98953 0.81905 0.0
C1636 C 0.58867 0.98839 0.80375 0.0
C1637 C 0.5621 0.00876 0.84278 0.0
C1638 C 0.56936 0.00083 0.85825 0.0
C1639 C 0.5445 0.01805 0.84311 0.0
C1640 C 0.53552 0.02575 0.8269 0.0
C1641 C 0.53106 0.01358 0.81091 0.0
C1642 C 0.52273 0.02096 0.79565 0.0
C1643 C 0.51865 0.04044 0.79625 0.0
C1644 C 0.52285 0.05258 0.81213 0.0
C1645 C 0.53121 0.04528 0.82743 0.0
H1646 H 0.5122 0.04613 0.78442 0.0
H1647 H 0.59195 0.97393 0.93273 0.0
H1648 H 0.28892 0.30331 0.34421 0.0
H1649 H 0.28752 0.28409 0.3701 0.0
H1650 H 0.30096 0.23345 0.33727 0.0
H1651 H 0.30153 0.25238 0.31111 0.0
H1652 H 0.2729 0.22361 0.3579 0.0
H1653 H 0.33604 0.25927 0.36696 0.0
H1654 H 0.36001 0.28834 0.36958 0.0
H1655 H 0.3321 0.31245 0.41487 0.0
H1656 H 0.30779 0.28363 0.41236 0.0
H1657 H 0.31331 0.19433 0.45121 0.0
H1658 H 0.31808 0.21097 0.42399 0.0
H1659 H 0.2557 0.21584 0.41712 0.0
H1660 H 0.25077 0.19894 0.44402 0.0
H1661 H 0.3115 0.24628 0.4153 0.0
H1662 H 0.24074 0.21205 0.37318 0.0
H1663 H 0.21937 0.18112 0.36966 0.0
H1664 H 0.26746 0.15063 0.38877 0.0
H1665 H 0.28919 0.18131 0.39218 0.0
C1666 C 0.29136 0.28803 0.34244 0.0
C1667 C 0.29536 0.27939 0.32558 0.0
C1668 C 0.29079 0.27711 0.35731 0.0
C1669 C 0.29443 0.25739 0.35569 0.0
C1670 C 0.29821 0.24867 0.33885 0.0
C1671 C 0.2987 0.25955 0.32395 0.0
C1672 C 0.29397 0.24582 0.37152 0.0
C1673 C 0.28137 0.22855 0.37044 0.0
C1674 C 0.30536 0.25202 0.38777 0.0
C1675 C 0.31999 0.26935 0.38937 0.0
C1676 C 0.33493 0.27083 0.37739 0.0
C1677 C 0.34859 0.28725 0.37888 0.0
C1678 C 0.34755 0.30225 0.39236 0.0
C1679 C 0.33287 0.30083 0.40442 0.0
C1680 C 0.31916 0.28444 0.40298 0.0
C1681 C 0.30061 0.19892 0.44388 0.0
C1682 C 0.28164 0.19522 0.44973 0.0
C1683 C 0.30337 0.20846 0.42836 0.0
C1684 C 0.28723 0.21442 0.41839 0.0
C1685 C 0.26834 0.21104 0.42439 0.0
C1686 C 0.26555 0.20144 0.43984 0.0
C1687 C 0.29007 0.22435 0.4018 0.0
C1688 C 0.3031 0.24131 0.40274 0.0
C1689 C 0.27943 0.21761 0.38529 0.0
C1690 C 0.26653 0.19903 0.38308 0.0
C1691 C 0.24677 0.19873 0.37656 0.0
C1692 C 0.23459 0.18124 0.3746 0.0
C1693 C 0.24204 0.16393 0.37904 0.0
C1694 C 0.2617 0.16406 0.3854 0.0
C1695 C 0.27394 0.1815 0.38737 0.0
H1696 H 0.23258 0.15042 0.37752 0.0
H1697 H 0.35814 0.31495 0.39349 0.0
H1698 H 0.52988 0.46617 0.92105 0.0
H1699 H 0.5076 0.47133 0.89562 0.0
H1700 H 0.5267 0.53284 0.90179 0.0
H1701 H 0.54768 0.52811 0.92828 0.0
H1702 H 0.49007 0.52931 0.89377 0.0
H1703 H 0.54326 0.49921 0.86855 0.0
H1704 H 0.56684 0.47454 0.86433 0.0
H1705 H 0.51924 0.43053 0.8485 0.0
H1706 H 0.49534 0.4549 0.85286 0.0
H1707 H 0.45983 0.54585 0.80255 0.0
H1708 H 0.481 0.54083 0.82915 0.0
H1709 H 0.44514 0.48789 0.83609 0.0
H1710 H 0.42358 0.49305 0.80982 0.0
H1711 H 0.49009 0.48733 0.83681 0.0
H1712 H 0.4373 0.52024 0.86269 0.0
H1713 H 0.41577 0.54694 0.86545 0.0
H1714 H 0.46625 0.5884 0.87814 0.0
H1715 H 0.4881 0.56195 0.87517 0.0
C1716 C 0.52912 0.48088 0.91728 0.0
C1717 C 0.54076 0.4967 0.92678 0.0
C1718 C 0.51657 0.48376 0.90247 0.0
C1719 C 0.51578 0.50241 0.89645 0.0
C1720 C 0.52713 0.51827 0.90605 0.0
C1721 C 0.53936 0.51548 0.9211 0.0
C1722 C 0.50308 0.50541 0.88022 0.0
C1723 C 0.49032 0.52025 0.88129 0.0
C1724 C 0.50317 0.49354 0.86388 0.0
C1725 C 0.5175 0.47884 0.8612 0.0
C1726 C 0.53781 0.48424 0.86429 0.0
C1727 C 0.55124 0.47032 0.86186 0.0
C1728 C 0.54454 0.45097 0.85619 0.0
C1729 C 0.5244 0.44552 0.85291 0.0
C1730 C 0.51091 0.45938 0.85534 0.0
C1731 C 0.45648 0.53314 0.80974 0.0
C1732 C 0.44005 0.51985 0.80416 0.0
C1733 C 0.46853 0.53033 0.82491 0.0
C1734 C 0.46454 0.51402 0.83451 0.0
C1735 C 0.44838 0.50056 0.82881 0.0
C1736 C 0.43608 0.50357 0.81387 0.0
C1737 C 0.47724 0.51106 0.85056 0.0
C1738 C 0.48997 0.4963 0.84938 0.0
C1739 C 0.47747 0.52327 0.86663 0.0
C1740 C 0.46434 0.53915 0.8685 0.0
C1741 C 0.44382 0.53507 0.86589 0.0
C1742 C 0.43155 0.55015 0.86753 0.0
C1743 C 0.43964 0.56936 0.87191 0.0
C1744 C 0.46001 0.57352 0.87471 0.0
C1745 C 0.47234 0.55848 0.87306 0.0
H1746 H 0.43012 0.58102 0.87318 0.0
H1747 H 0.55496 0.44021 0.85431 0.0
H1748 H 0.74277 0.81914 0.14249 0.0
H1749 H 0.74818 0.80009 0.11456 0.0
H1750 H 0.7433 0.74732 0.14161 0.0
H1751 H 0.73811 0.76635 0.16967 0.0
H1752 H 0.77619 0.75082 0.12252 0.0
H1753 H 0.70707 0.75594 0.11234 0.0
H1754 H 0.67695 0.77296 0.1103 0.0
H1755 H 0.69981 0.80542 0.06857 0.0
H1756 H 0.73021 0.7888 0.07054 0.0
H1757 H 0.77584 0.68429 0.04574 0.0
H1758 H 0.76684 0.70234 0.07285 0.0
H1759 H 0.76793 0.75495 0.04552 0.0
H1760 H 0.77662 0.73689 0.01816 0.0
H1761 H 0.73638 0.75124 0.06482 0.0
H1762 H 0.80563 0.74737 0.07538 0.0
H1763 H 0.83625 0.73115 0.07745 0.0
H1764 H 0.81382 0.69738 0.11851 0.0
H1765 H 0.78292 0.71322 0.11651 0.0
C1766 C 0.74275 0.80346 0.14244 0.0
C1767 C 0.74007 0.79421 0.15824 0.0
C1768 C 0.74571 0.7926 0.12647 0.0
C1769 C 0.74605 0.7723 0.12602 0.0
C1770 C 0.74305 0.76298 0.1417 0.0
C1771 C 0.73995 0.77383 0.15765 0.0
C1772 C 0.75056 0.76095 0.10941 0.0
C1773 C 0.76731 0.75064 0.10996 0.0
C1774 C 0.73929 0.76124 0.09295 0.0
C1775 C 0.72101 0.77125 0.09171 0.0
C1776 C 0.70576 0.76683 0.10284 0.0
C1777 C 0.68861 0.77638 0.10167 0.0
C1778 C 0.68648 0.7903 0.08934 0.0
C1779 C 0.70148 0.79466 0.07813 0.0
C1780 C 0.71867 0.78516 0.07925 0.0
C1781 C 0.77422 0.69971 0.04547 0.0
C1782 C 0.77707 0.70918 0.02981 0.0
C1783 C 0.76911 0.71002 0.06101 0.0
C1784 C 0.76695 0.73004 0.06128 0.0
C1785 C 0.76955 0.7395 0.04561 0.0
C1786 C 0.77459 0.72918 0.03001 0.0
C1787 C 0.762 0.74107 0.07793 0.0
C1788 C 0.74522 0.75137 0.07739 0.0
C1789 C 0.77331 0.74088 0.09441 0.0
C1790 C 0.79188 0.73134 0.09566 0.0
C1791 C 0.80716 0.73637 0.08475 0.0
C1792 C 0.82458 0.72726 0.08592 0.0
C1793 C 0.82696 0.7132 0.09807 0.0
C1794 C 0.81194 0.70825 0.10909 0.0
C1795 C 0.79448 0.7173 0.10795 0.0
H1796 H 0.84046 0.70617 0.09896 0.0
H1797 H 0.6732 0.79768 0.08846 0.0
H1798 H 0.01 0.05169 0.07471 0.0
H1799 H 0.99252 0.05122 0.10213 0.0
H1800 H 0.04747 0.04948 0.13336 0.0
H1801 H 0.06499 0.04976 0.10596 0.0
H1802 H 0.0204 0.02406 0.14379 0.0
H1803 H 0.02373 0.09154 0.13262 0.0
H1804 H 0.0193 0.11952 0.11484 0.0
H1805 H 0.95696 0.10396 0.10909 0.0
H1806 H 0.96104 0.07572 0.12664 0.0
H1807 H 0.98553 0.04606 0.2295 0.0
H1808 H 0.00314 0.04819 0.20229 0.0
H1809 H 0.94798 0.04603 0.17056 0.0
H1810 H 0.93024 0.04404 0.19771 0.0
H1811 H 0.97519 0.0737 0.16058 0.0
H1812 H 0.97222 0.006 0.17165 0.0
H1813 H 0.97687 0.97827 0.1897 0.0
H1814 H 0.03906 0.99472 0.19592 0.0
H1815 H 0.03473 0.02273 0.17811 0.0
C1816 C 0.01836 0.05137 0.08745 0.0
C1817 C 0.03886 0.05078 0.08819 0.0
C1818 C 0.00836 0.05112 0.10311 0.0
C1819 C 0.01871 0.05054 0.11985 0.0
C1820 C 0.03918 0.04989 0.1206 0.0
C1821 C 0.04916 0.05002 0.10494 0.0
C1822 C 0.00818 0.05026 0.13654 0.0
C1823 C 0.01074 0.03508 0.14758 0.0
C1824 C 0.99522 0.06439 0.14131 0.0
C1825 C 0.99272 0.08141 0.1308 0.0
C1826 C 0.00909 0.094 0.12745 0.0
C1827 C 0.00664 0.10992 0.11743 0.0
C1828 C 0.98787 0.11349 0.1108 0.0
C1829 C 0.97149 0.10117 0.11421 0.0
C1830 C 0.97386 0.08521 0.12421 0.0
C1831 C 0.97713 0.0461 0.21675 0.0
C1832 C 0.95647 0.0448 0.21577 0.0
C1833 C 0.98722 0.04725 0.2012 0.0
C1834 C 0.97685 0.04705 0.18438 0.0
C1835 C 0.95626 0.04617 0.1834 0.0
C1836 C 0.94615 0.04498 0.19893 0.0
C1837 C 0.98748 0.04754 0.16778 0.0
C1838 C 0.9849 0.06272 0.15677 0.0
C1839 C 0.00048 0.03346 0.16307 0.0
C1840 C 0.00312 0.01657 0.1737 0.0
C1841 C 0.98686 0.00379 0.17698 0.0
C1842 C 0.98945 0.98801 0.18715 0.0
C1843 C 0.00824 0.98476 0.19399 0.0
C1844 C 0.0245 0.99727 0.19063 0.0
C1845 C 0.022 0.01309 0.18049 0.0
H1846 H 0.01021 0.97254 0.20186 0.0
H1847 H 0.986 0.12582 0.10304 0.0
H1848 H 0.27373 0.75106 0.1731 0.0
H1849 H 0.26801 0.77242 0.14926 0.0
H1850 H 0.32847 0.77132 0.13639 0.0
H1851 H 0.33441 0.75046 0.16072 0.0
H1852 H 0.31839 0.80665 0.13542 0.0
H1853 H 0.28962 0.74377 0.11058 0.0
H1854 H 0.26828 0.71297 0.10944 0.0
H1855 H 0.21727 0.74485 0.11093 0.0
H1856 H 0.23833 0.77587 0.11232 0.0
H1857 H 0.30588 0.84034 0.04826 0.0
H1858 H 0.31196 0.82024 0.07307 0.0
H1859 H 0.2544 0.82864 0.0908 0.0
H1860 H 0.24819 0.8488 0.06606 0.0
H1861 H 0.26301 0.78982 0.08909 0.0
H1862 H 0.29303 0.85294 0.11333 0.0
H1863 H 0.31516 0.88308 0.11329 0.0
H1864 H 0.36497 0.84952 0.11144 0.0
H1865 H 0.3431 0.81914 0.11121 0.0
C1866 C 0.28579 0.75535 0.16517 0.0
C1867 C 0.30449 0.74899 0.16861 0.0
C1868 C 0.28249 0.7675 0.1515 0.0
C1869 C 0.29771 0.7732 0.14079 0.0
C1870 C 0.31648 0.76708 0.14442 0.0
C1871 C 0.31985 0.75513 0.15826 0.0
C1872 C 0.29409 0.78558 0.12584 0.0
C1873 C 0.30644 0.80281 0.12516 0.0
C1874 C 0.27829 0.78079 0.1126 0.0
C1875 C 0.26557 0.76215 0.11173 0.0
C1876 C 0.27386 0.74422 0.1108 0.0
C1877 C 0.26181 0.72672 0.11009 0.0
C1878 C 0.24144 0.72695 0.11016 0.0
C1879 C 0.23306 0.74469 0.1109 0.0
C1880 C 0.24504 0.76224 0.11163 0.0
C1881 C 0.29452 0.83794 0.05745 0.0
C1882 C 0.27655 0.84617 0.05521 0.0
C1883 C 0.29805 0.82652 0.07165 0.0
C1884 C 0.28367 0.82308 0.08381 0.0
C1885 C 0.26568 0.83116 0.08155 0.0
C1886 C 0.26219 0.84272 0.06745 0.0
C1887 C 0.28728 0.81079 0.09874 0.0
C1888 C 0.27494 0.7936 0.09938 0.0
C1889 C 0.30322 0.81549 0.1118 0.0
C1890 C 0.3164 0.83376 0.11207 0.0
C1891 C 0.30869 0.85198 0.11277 0.0
C1892 C 0.32119 0.86911 0.11282 0.0
C1893 C 0.34145 0.86821 0.11232 0.0
C1894 C 0.34927 0.85019 0.11181 0.0
C1895 C 0.33683 0.83301 0.11173 0.0
H1896 H 0.35111 0.88149 0.11236 0.0
H1897 H 0.23213 0.71339 0.10961 0.0
H1898 H 0.96657 0.49486 0.08701 0.0
H1899 H 0.98239 0.49313 0.11705 0.0
H1900 H 0.03563 0.47841 0.09366 0.0
H1901 H 0.02012 0.48042 0.0637 0.0
H1902 H 0.0256 0.45489 0.12002 0.0
H1903 H 0.03219 0.52374 0.11181 0.0
H1904 H 0.01986 0.5551 0.10542 0.0
H1905 H 0.98442 0.55287 0.15053 0.0
H1906 H 0.99635 0.52134 0.15704 0.0
H1907 H 0.09831 0.47439 0.19198 0.0
H1908 H 0.07771 0.47308 0.16401 0.0
H1909 H 0.02971 0.49211 0.19337 0.0
H1910 H 0.05038 0.49386 0.22143 0.0
H1911 H 0.03402 0.51219 0.16514 0.0
H1912 H 0.02909 0.44474 0.17499 0.0
H1913 H 0.041 0.41325 0.18151 0.0
H1914 H 0.0724 0.41227 0.13376 0.0
H1915 H 0.06091 0.44391 0.12707 0.0
C1916 C 0.9817 0.49143 0.08828 0.0
C1917 C 0.99207 0.48776 0.07295 0.0
C1918 C 0.99068 0.49037 0.10543 0.0
C1919 C 0.01019 0.48569 0.10756 0.0
C1920 C 0.02052 0.48192 0.0923 0.0
C1921 C 0.0116 0.48303 0.07519 0.0
C1922 C 0.02003 0.48487 0.12565 0.0
C1923 C 0.0276 0.46745 0.12985 0.0
C1924 C 0.02208 0.50109 0.13863 0.0
C1925 C 0.01499 0.52008 0.13478 0.0
C1926 C 0.02164 0.52986 0.12027 0.0
C1927 C 0.01475 0.54768 0.11664 0.0
C1928 C 0.00132 0.55595 0.12752 0.0
C1929 C 0.99479 0.54644 0.14209 0.0
C1930 C 0.00162 0.5286 0.14576 0.0
C1931 C 0.08332 0.47814 0.19253 0.0
C1932 C 0.07599 0.48424 0.20895 0.0
C1933 C 0.07152 0.47729 0.17652 0.0
C1934 C 0.05208 0.4823 0.1766 0.0
C1935 C 0.04465 0.48817 0.19299 0.0
C1936 C 0.05648 0.48911 0.20902 0.0
C1937 C 0.03989 0.48226 0.15948 0.0
C1938 C 0.03186 0.49953 0.15542 0.0
C1939 C 0.03734 0.46585 0.14666 0.0
C1940 C 0.04426 0.44679 0.15061 0.0
C1941 C 0.03866 0.43789 0.16595 0.0
C1942 C 0.04531 0.41999 0.16966 0.0
C1943 C 0.05748 0.41078 0.15808 0.0
C1944 C 0.06299 0.41943 0.14273 0.0
C1945 C 0.05639 0.43733 0.13896 0.0
H1946 H 0.06262 0.39693 0.16098 0.0
H1947 H 0.996 0.56975 0.1247 0.0
H1948 H 0.35122 0.71292 0.22507 0.0
H1949 H 0.37977 0.71819 0.24681 0.0
H1950 H 0.3421 0.70879 0.28984 0.0
H1951 H 0.31337 0.70416 0.26821 0.0
H1952 H 0.36862 0.73971 0.29852 0.0
H1953 H 0.36991 0.67346 0.27455 0.0
H1954 H 0.36975 0.64662 0.25074 0.0
H1955 H 0.42321 0.67311 0.23276 0.0
H1956 H 0.42355 0.70027 0.25632 0.0
H1957 H 0.44557 0.73041 0.36475 0.0
H1958 H 0.4163 0.7234 0.34394 0.0
H1959 H 0.45169 0.73267 0.29932 0.0
H1960 H 0.48106 0.73941 0.31997 0.0
H1961 H 0.42579 0.70094 0.2921 0.0
H1962 H 0.42393 0.76763 0.31548 0.0
H1963 H 0.42416 0.79448 0.33929 0.0
H1964 H 0.37172 0.76711 0.35838 0.0
H1965 H 0.37134 0.73993 0.33482 0.0
C1966 C 0.34899 0.71214 0.23917 0.0
C1967 C 0.33003 0.70807 0.24491 0.0
C1968 C 0.36534 0.71497 0.25157 0.0
C1969 C 0.36309 0.71363 0.26992 0.0
C1970 C 0.34417 0.7098 0.27572 0.0
C1971 C 0.3278 0.70699 0.26334 0.0
C1972 C 0.38046 0.71642 0.28307 0.0
C1973 C 0.381 0.73104 0.29728 0.0
C1974 C 0.39677 0.70536 0.28123 0.0
C1975 C 0.39666 0.68899 0.2671 0.0
C1976 C 0.38156 0.67364 0.26543 0.0
C1977 C 0.38144 0.65835 0.252 0.0
C1978 C 0.39643 0.65818 0.24022 0.0
C1979 C 0.4116 0.67327 0.24188 0.0
C1980 C 0.41177 0.68861 0.25529 0.0
C1981 C 0.44714 0.7309 0.35051 0.0
C1982 C 0.46563 0.73556 0.34402 0.0
C1983 C 0.43038 0.72696 0.33864 0.0
C1984 C 0.43179 0.72775 0.3201 0.0
C1985 C 0.45028 0.73201 0.31358 0.0
C1986 C 0.46704 0.73592 0.32541 0.0
C1987 C 0.41399 0.7243 0.30748 0.0
C1988 C 0.41338 0.70956 0.29337 0.0
C1989 C 0.39761 0.73525 0.30942 0.0
C1990 C 0.39773 0.75165 0.3235 0.0
C1991 C 0.41253 0.76726 0.32484 0.0
C1992 C 0.41267 0.78255 0.33828 0.0
C1993 C 0.39799 0.78247 0.35037 0.0
C1994 C 0.3831 0.76713 0.34902 0.0
C1995 C 0.38291 0.75179 0.33562 0.0
H1996 H 0.39813 0.79432 0.36077 0.0
H1997 H 0.39632 0.64633 0.22983 0.0
H1998 H 0.97259 0.44219 0.97743 0.0
H1999 H 0.97387 0.41566 0.95397 0.0
H2000 H 0.02187 0.39432 0.98451 0.0
H2001 H 0.021 0.42119 0.00774 0.0
H2002 H 0.02918 0.3933 0.95069 0.0
H2003 H 0.97377 0.37264 0.98295 0.0
H2004 H 0.94192 0.37551 0.99603 0.0
H2005 H 0.91419 0.38028 0.94371 0.0
H2006 H 0.94595 0.37769 0.93033 0.0
H2007 H 0.02489 0.29621 0.91145 0.0
H2008 H 0.0225 0.32489 0.93223 0.0
H2009 H 0.98149 0.34654 0.89429 0.0
H2010 H 0.98386 0.31788 0.87329 0.0
H2011 H 0.96998 0.34843 0.93001 0.0
H2012 H 0.02609 0.36698 0.89793 0.0
H2013 H 0.05813 0.36287 0.88561 0.0
H2014 H 0.08478 0.36074 0.93881 0.0
H2015 H 0.05281 0.36455 0.95144 0.0
C2016 C 0.98342 0.43185 0.97912 0.0
C2017 C 0.99668 0.43365 0.99442 0.0
C2018 C 0.98408 0.41664 0.96575 0.0
C2019 C 0.99779 0.40283 0.96759 0.0
C2020 C 0.01116 0.40479 0.98279 0.0
C2021 C 0.01062 0.42008 0.99607 0.0
C2022 C 0.99833 0.38634 0.9537 0.0
C2023 C 0.01627 0.38338 0.94632 0.0
C2024 C 0.98138 0.37364 0.94767 0.0
C2025 C 0.96227 0.37519 0.95567 0.0
C2026 C 0.96091 0.37445 0.97425 0.0
C2027 C 0.94287 0.376 0.98172 0.0
C2028 C 0.92605 0.37813 0.97071 0.0
C2029 C 0.92723 0.37866 0.95221 0.0
C2030 C 0.94524 0.37714 0.94469 0.0
C2031 C 0.01534 0.30705 0.9075 0.0
C2032 C 0.00461 0.30482 0.8907 0.0
C2033 C 0.01404 0.32345 0.91937 0.0
C2034 C 0.00194 0.33787 0.9147 0.0
C2035 C 0.99094 0.33556 0.89808 0.0
C2036 C 0.99237 0.31923 0.88611 0.0
C2037 C 0.00084 0.35533 0.92726 0.0
C2038 C 0.98282 0.35846 0.93434 0.0
C2039 C 0.01774 0.36807 0.93316 0.0
C2040 C 0.03701 0.36588 0.92561 0.0
C2041 C 0.03875 0.36547 0.90699 0.0
C2042 C 0.0569 0.36323 0.89996 0.0
C2043 C 0.07347 0.3615 0.91142 0.0
C2044 C 0.07193 0.36206 0.92995 0.0
C2045 C 0.0538 0.36428 0.93705 0.0
H2046 H 0.08752 0.35977 0.90595 0.0
H2047 H 0.9121 0.37932 0.97652 0.0
H2048 H 0.68233 0.77967 0.22608 0.0
H2049 H 0.65738 0.76666 0.24496 0.0
H2050 H 0.66359 0.82107 0.27831 0.0
H2051 H 0.68869 0.83413 0.25952 0.0
H2052 H 0.66247 0.78979 0.29821 0.0
H2053 H 0.62497 0.81054 0.24782 0.0
H2054 H 0.61504 0.8118 0.21574 0.0
H2055 H 0.5987 0.75007 0.2105 0.0
H2056 H 0.60879 0.7484 0.24252 0.0
H2057 H 0.5755 0.7814 0.34398 0.0
H2058 H 0.60197 0.79125 0.32543 0.0
H2059 H 0.5911 0.73641 0.29294 0.0
H2060 H 0.5643 0.72653 0.31129 0.0
H2061 H 0.59521 0.7661 0.27239 0.0
H2062 H 0.63125 0.74545 0.3231 0.0
H2063 H 0.6411 0.74412 0.35518 0.0
H2064 H 0.6603 0.80528 0.35989 0.0
H2065 H 0.6503 0.80704 0.32788 0.0
C2066 C 0.6784 0.78887 0.23743 0.0
C2067 C 0.68738 0.80796 0.24133 0.0
C2068 C 0.6641 0.78143 0.24818 0.0
C2069 C 0.65851 0.79296 0.26294 0.0
C2070 C 0.66768 0.81193 0.26698 0.0
C2071 C 0.68195 0.81938 0.25623 0.0
C2072 C 0.64304 0.78533 0.27416 0.0
C2073 C 0.6477 0.7848 0.29262 0.0
C2074 C 0.62394 0.77833 0.26675 0.0
C2075 C 0.61784 0.77931 0.24751 0.0
C2076 C 0.61942 0.79721 0.23979 0.0
C2077 C 0.61373 0.798 0.22163 0.0
C2078 C 0.6063 0.78102 0.21108 0.0
C2079 C 0.60449 0.76321 0.21868 0.0
C2080 C 0.61018 0.76233 0.23684 0.0
C2081 C 0.57878 0.77136 0.33295 0.0
C2082 C 0.56779 0.75315 0.32913 0.0
C2083 C 0.59399 0.777 0.3224 0.0
C2084 C 0.59868 0.76448 0.30792 0.0
C2085 C 0.58776 0.74628 0.30407 0.0
C2086 C 0.57248 0.74064 0.31461 0.0
C2087 C 0.61458 0.77068 0.2965 0.0
C2088 C 0.61001 0.77096 0.278 0.0
C2089 C 0.63378 0.77741 0.30387 0.0
C2090 C 0.63987 0.7764 0.32312 0.0
C2091 C 0.63743 0.75865 0.33101 0.0
C2092 C 0.64307 0.75781 0.34918 0.0
C2093 C 0.65128 0.77461 0.35958 0.0
C2094 C 0.65392 0.79228 0.35182 0.0
C2095 C 0.64829 0.7932 0.33366 0.0
H2096 H 0.65563 0.77394 0.37364 0.0
H2097 H 0.6019 0.78167 0.19702 0.0
H2098 H 0.08471 0.09705 0.99077 0.0
H2099 H 0.07575 0.12005 0.96919 0.0
H2100 H 0.02044 0.12489 0.99291 0.0
H2101 H 0.0292 0.10157 0.01432 0.0
H2102 H 0.01538 0.12219 0.95697 0.0
H2103 H 0.05823 0.16057 0.00199 0.0
H2104 H 0.08839 0.16917 0.0219 0.0
H2105 H 0.1226 0.17251 0.97606 0.0
H2106 H 0.09266 0.16366 0.95586 0.0
H2107 H 0.99307 0.21098 0.92139 0.0
H2108 H 0.00089 0.18581 0.9411 0.0
H2109 H 0.05352 0.17736 0.91397 0.0
H2110 H 0.04578 0.20251 0.89411 0.0
H2111 H 0.05982 0.18174 0.9513 0.0
H2112 H 0.01601 0.14398 0.90634 0.0
H2113 H 0.98536 0.13607 0.88698 0.0
H2114 H 0.95231 0.13254 0.93354 0.0
H2115 H 0.98275 0.14071 0.9532 0.0
C2116 C 0.07063 0.10301 0.99135 0.0
C2117 C 0.05772 0.09763 0.00425 0.0
C2118 C 0.06556 0.11619 0.97907 0.0
C2119 C 0.04754 0.1244 0.9796 0.0
C2120 C 0.03444 0.11876 0.99229 0.0
C2121 C 0.03949 0.10549 0.00455 0.0
C2122 C 0.04248 0.13894 0.96696 0.0
C2123 C 0.02497 0.13534 0.9559 0.0
C2124 C 0.05519 0.15591 0.96531 0.0
C2125 C 0.07322 0.16126 0.97741 0.0
C2126 C 0.0722 0.16298 0.99615 0.0
C2127 C 0.08925 0.16793 0.00749 0.0
C2128 C 0.1074 0.17133 0.00025 0.0
C2129 C 0.10853 0.16984 0.98165 0.0
C2130 C 0.09152 0.16487 0.97025 0.0
C2131 C 0.00626 0.20371 0.91954 0.0
C2132 C 0.01882 0.20875 0.9062 0.0
C2133 C 0.01066 0.18928 0.93077 0.0
C2134 C 0.02772 0.17967 0.92891 0.0
C2135 C 0.04026 0.18461 0.91559 0.0
C2136 C 0.03578 0.19892 0.90422 0.0
C2137 C 0.03277 0.16495 0.94131 0.0
C2138 C 0.05027 0.16856 0.95235 0.0
C2139 C 0.01998 0.14809 0.94303 0.0
C2140 C 0.00165 0.14315 0.93124 0.0
C2141 C 0.00219 0.14169 0.91246 0.0
C2142 C 0.98486 0.13712 0.90143 0.0
C2143 C 0.96689 0.13386 0.90902 0.0
C2144 C 0.96623 0.1351 0.92767 0.0
C2145 C 0.98353 0.13968 0.93877 0.0
H2146 H 0.95349 0.13032 0.90046 0.0
H2147 H 0.12059 0.17517 0.00905 0.0
H2148 H 0.3831 0.28344 0.27716 0.0
H2149 H 0.40578 0.28009 0.25331 0.0
H2150 H 0.35907 0.28792 0.21382 0.0
H2151 H 0.33641 0.29139 0.23756 0.0
H2152 H 0.38145 0.25676 0.20417 0.0
H2153 H 0.39138 0.32479 0.22561 0.0
H2154 H 0.39849 0.35251 0.24867 0.0
H2155 H 0.45478 0.33285 0.26274 0.0
H2156 H 0.44788 0.30483 0.23993 0.0
H2157 H 0.44031 0.27101 0.13101 0.0
H2158 H 0.41679 0.27462 0.15398 0.0
H2159 H 0.46409 0.27755 0.19541 0.0
H2160 H 0.48769 0.27466 0.17255 0.0
H2161 H 0.44069 0.30354 0.20391 0.0
H2162 H 0.4315 0.23549 0.18372 0.0
H2163 H 0.42495 0.20683 0.16161 0.0
H2164 H 0.36829 0.22495 0.14634 0.0
H2165 H 0.37461 0.25388 0.1682 0.0
C2166 C 0.37772 0.28442 0.26338 0.0
C2167 C 0.3581 0.28782 0.25921 0.0
C2168 C 0.39065 0.28255 0.24981 0.0
C2169 C 0.38409 0.28392 0.23185 0.0
C2170 C 0.36438 0.28686 0.22761 0.0
C2171 C 0.3515 0.28893 0.24119 0.0
C2172 C 0.39787 0.28247 0.21749 0.0
C2173 C 0.39428 0.2671 0.20394 0.0
C2174 C 0.41483 0.29572 0.21752 0.0
C2175 C 0.41903 0.31261 0.23119 0.0
C2176 C 0.40521 0.32628 0.23373 0.0
C2177 C 0.40921 0.34207 0.24673 0.0
C2178 C 0.42705 0.34441 0.2572 0.0
C2179 C 0.44095 0.331 0.25464 0.0
C2180 C 0.43701 0.31517 0.24167 0.0
C2181 C 0.44568 0.27244 0.14502 0.0
C2182 C 0.46584 0.27251 0.14997 0.0
C2183 C 0.43222 0.27441 0.15814 0.0
C2184 C 0.43862 0.27605 0.17645 0.0
C2185 C 0.45878 0.2763 0.18138 0.0
C2186 C 0.47226 0.27462 0.16829 0.0
C2187 C 0.42442 0.27769 0.19053 0.0
C2188 C 0.42788 0.29314 0.20406 0.0
C2189 C 0.40747 0.26436 0.19059 0.0
C2190 C 0.40361 0.24695 0.17747 0.0
C2191 C 0.4177 0.23344 0.17555 0.0
C2192 C 0.41402 0.21714 0.16308 0.0
C2193 C 0.39623 0.2141 0.15254 0.0
C2194 C 0.38207 0.22734 0.15449 0.0
C2195 C 0.38569 0.24368 0.16693 0.0
H2196 H 0.39341 0.20147 0.1429 0.0
H2197 H 0.43013 0.35665 0.26726 0.0
H2198 H 0.53449 0.44339 0.00114 0.0
H2199 H 0.52431 0.41922 0.02167 0.0
H2200 H 0.58298 0.40095 0.02508 0.0
H2201 H 0.59327 0.42515 0.00459 0.0
H2202 H 0.55405 0.37 0.01912 0.0
H2203 H 0.56872 0.42835 0.05896 0.0
H2204 H 0.5662 0.46265 0.0697 0.0
H2205 H 0.50439 0.45005 0.07482 0.0
H2206 H 0.50649 0.4157 0.06386 0.0
H2207 H 0.54944 0.31339 0.09294 0.0
H2208 H 0.55836 0.33893 0.07352 0.0
H2209 H 0.49969 0.35706 0.07389 0.0
H2210 H 0.49064 0.33162 0.09353 0.0
H2211 H 0.52742 0.38815 0.07755 0.0
H2212 H 0.51246 0.32996 0.03822 0.0
H2213 H 0.51452 0.29562 0.02731 0.0
H2214 H 0.57609 0.30785 0.02074 0.0
H2215 H 0.57446 0.34222 0.03187 0.0
C2216 C 0.54521 0.43422 0.00626 0.0
C2217 C 0.56468 0.43606 0.00127 0.0
C2218 C 0.5394 0.42049 0.01804 0.0
C2219 C 0.55293 0.40839 0.02494 0.0
C2220 C 0.57233 0.41016 0.01988 0.0
C2221 C 0.57818 0.42398 0.00824 0.0
C2222 C 0.54683 0.39367 0.03726 0.0
C2223 C 0.54845 0.37397 0.032 0.0
C2224 C 0.53902 0.39886 0.05381 0.0
C2225 C 0.53772 0.4195 0.0604 0.0
C2226 C 0.55456 0.43293 0.06222 0.0
C2227 C 0.55321 0.45237 0.06838 0.0
C2228 C 0.53514 0.45854 0.07289 0.0
C2229 C 0.51837 0.44526 0.07129 0.0
C2230 C 0.51963 0.4258 0.06512 0.0
C2231 C 0.53843 0.32284 0.08897 0.0
C2232 C 0.51928 0.32038 0.09469 0.0
C2233 C 0.54354 0.3374 0.07781 0.0
C2234 C 0.5296 0.3497 0.07206 0.0
C2235 C 0.51064 0.34766 0.07814 0.0
C2236 C 0.50549 0.33308 0.08931 0.0
C2237 C 0.5348 0.36447 0.05949 0.0
C2238 C 0.53297 0.38417 0.06466 0.0
C2239 C 0.54234 0.35928 0.0428 0.0
C2240 C 0.54337 0.33863 0.03605 0.0
C2241 C 0.52648 0.32529 0.03459 0.0
C2242 C 0.52756 0.30583 0.02834 0.0
C2243 C 0.54544 0.29955 0.02338 0.0
C2244 C 0.56226 0.31273 0.02462 0.0
C2245 C 0.56126 0.33221 0.03088 0.0
H2246 H 0.54625 0.28447 0.01854 0.0
H2247 H 0.53413 0.4736 0.07766 0.0
H2248 H 0.67752 0.22666 0.27055 0.0
H2249 H 0.64899 0.23045 0.25024 0.0
H2250 H 0.6849 0.22679 0.20511 0.0
H2251 H 0.71363 0.22292 0.22546 0.0
H2252 H 0.6617 0.25798 0.20537 0.0
H2253 H 0.65361 0.18924 0.21046 0.0
H2254 H 0.6514 0.15932 0.22631 0.0
H2255 H 0.60114 0.17778 0.25206 0.0
H2256 H 0.60323 0.20795 0.23656 0.0
H2257 H 0.57985 0.25479 0.14125 0.0
H2258 H 0.60956 0.24698 0.15802 0.0
H2259 H 0.57764 0.24306 0.20556 0.0
H2260 H 0.5478 0.25036 0.18879 0.0
H2261 H 0.6 0.21402 0.20208 0.0
H2262 H 0.6093 0.28352 0.19938 0.0
H2263 H 0.61146 0.3141 0.18451 0.0
H2264 H 0.65925 0.29502 0.15539 0.0
H2265 H 0.6572 0.2642 0.16992 0.0
C2266 C 0.67936 0.2266 0.25631 0.0
C2267 C 0.6978 0.22457 0.24954 0.0
C2268 C 0.66302 0.22867 0.24471 0.0
C2269 C 0.66483 0.22877 0.22618 0.0
C2270 C 0.68322 0.22672 0.21938 0.0
C2271 C 0.69956 0.22447 0.23097 0.0
C2272 C 0.64758 0.23165 0.21405 0.0
C2273 C 0.64831 0.24819 0.20437 0.0
C2274 C 0.63001 0.2191 0.21314 0.0
C2275 C 0.62869 0.20094 0.22246 0.0
C2276 C 0.64219 0.187 0.21962 0.0
C2277 C 0.64094 0.16998 0.22852 0.0
C2278 C 0.62616 0.16667 0.24021 0.0
C2279 C 0.61259 0.18036 0.24301 0.0
C2280 C 0.61379 0.19742 0.23415 0.0
C2281 C 0.57916 0.25227 0.15528 0.0
C2282 C 0.56148 0.25328 0.16372 0.0
C2283 C 0.59617 0.24787 0.16486 0.0
C2284 C 0.59589 0.24466 0.18311 0.0
C2285 C 0.5782 0.24547 0.19149 0.0
C2286 C 0.56117 0.24971 0.1819 0.0
C2287 C 0.61398 0.24053 0.19356 0.0
C2288 C 0.61343 0.22374 0.20294 0.0
C2289 C 0.63167 0.25294 0.19431 0.0
C2290 C 0.63295 0.27147 0.18558 0.0
C2291 C 0.62016 0.28578 0.1897 0.0
C2292 C 0.62139 0.30317 0.18135 0.0
C2293 C 0.63545 0.30647 0.16897 0.0
C2294 C 0.64835 0.29242 0.16495 0.0
C2295 C 0.64717 0.275 0.17325 0.0
H2296 H 0.63638 0.31994 0.16253 0.0
H2297 H 0.62522 0.15348 0.24709 0.0
H2298 H 0.48258 0.05994 0.02663 0.0
H2299 H 0.48671 0.09021 0.04628 0.0
H2300 H 0.48989 0.12343 0.00011 0.0
H2301 H 0.48554 0.09315 0.98029 0.0
H2302 H 0.51756 0.13758 0.02743 0.0
H2303 H 0.44823 0.11935 0.02025 0.0
H2304 H 0.4181 0.09702 0.02027 0.0
H2305 H 0.42987 0.09171 0.07655 0.0
H2306 H 0.46027 0.11377 0.07681 0.0
H2307 H 0.50477 0.22815 0.07467 0.0
H2308 H 0.49945 0.19923 0.05328 0.0
H2309 H 0.49385 0.16273 0.09703 0.0
H2310 H 0.49887 0.19159 0.11851 0.0
H2311 H 0.46657 0.15099 0.06973 0.0
H2312 H 0.53656 0.16795 0.07658 0.0
H2313 H 0.56706 0.18977 0.07653 0.0
H2314 H 0.55411 0.19725 0.02081 0.0
H2315 H 0.52338 0.17567 0.0206 0.0
C2316 C 0.4841 0.07369 0.02065 0.0
C2317 C 0.48355 0.07416 0.0019 0.0
C2318 C 0.48649 0.09095 0.03189 0.0
C2319 C 0.4883 0.10904 0.02462 0.0
C2320 C 0.48847 0.1096 0.00596 0.0
C2321 C 0.48606 0.0923 0.99468 0.0
C2322 C 0.48964 0.12734 0.03655 0.0
C2323 C 0.50628 0.14068 0.03649 0.0
C2324 C 0.47505 0.13115 0.04856 0.0
C2325 C 0.45663 0.11809 0.04851 0.0
C2326 C 0.44447 0.11332 0.03261 0.0
C2327 C 0.42733 0.10072 0.03257 0.0
C2328 C 0.42209 0.09292 0.04839 0.0
C2329 C 0.43396 0.09775 0.0643 0.0
C2330 C 0.45114 0.11031 0.06441 0.0
C2331 C 0.50229 0.21399 0.07975 0.0
C2332 C 0.50238 0.21215 0.09831 0.0
C2333 C 0.49933 0.19747 0.0675 0.0
C2334 C 0.49654 0.17882 0.07359 0.0
C2335 C 0.49603 0.17699 0.09206 0.0
C2336 C 0.49895 0.1935 0.10432 0.0
C2337 C 0.4946 0.16117 0.06074 0.0
C2338 C 0.47781 0.14795 0.06061 0.0
C2339 C 0.50906 0.15746 0.04855 0.0
C2340 C 0.52757 0.17036 0.04863 0.0
C2341 C 0.54014 0.17437 0.06436 0.0
C2342 C 0.55748 0.18667 0.06437 0.0
C2343 C 0.56249 0.19493 0.04869 0.0
C2344 C 0.55019 0.19086 0.03295 0.0
C2345 C 0.53282 0.17859 0.03288 0.0
H2346 H 0.57592 0.20445 0.04872 0.0
H2347 H 0.40882 0.08316 0.04833 0.0
H2348 H 0.24648 0.37419 0.71387 0.0
H2349 H 0.27145 0.40174 0.72194 0.0
H2350 H 0.31726 0.36334 0.71509 0.0
H2351 H 0.29238 0.33576 0.70705 0.0
H2352 H 0.32351 0.38931 0.7464 0.0
H2353 H 0.30715 0.39046 0.68295 0.0
H2354 H 0.28468 0.39114 0.65597 0.0
H2355 H 0.26585 0.44544 0.67724 0.0
H2356 H 0.28801 0.44493 0.70449 0.0
H2357 H 0.40558 0.45797 0.74218 0.0
H2358 H 0.37993 0.43098 0.73559 0.0
H2359 H 0.33566 0.47171 0.73555 0.0
H2360 H 0.36126 0.49882 0.74175 0.0
H2361 H 0.32785 0.44482 0.70837 0.0
H2362 H 0.34412 0.44466 0.77134 0.0
H2363 H 0.36586 0.44435 0.79886 0.0
H2364 H 0.38381 0.38893 0.7796 0.0
H2365 H 0.36239 0.38903 0.75183 0.0
C2366 C 0.26188 0.37163 0.71426 0.0
C2367 C 0.26754 0.35289 0.70978 0.0
C2368 C 0.27609 0.38735 0.71877 0.0
C2369 C 0.29616 0.38455 0.71898 0.0
C2370 C 0.30183 0.36577 0.71497 0.0
C2371 C 0.28764 0.35009 0.71029 0.0
C2372 C 0.31129 0.40127 0.72298 0.0
C2373 C 0.32463 0.40136 0.738 0.0
C2374 C 0.31235 0.41718 0.71225 0.0
C2375 C 0.29908 0.41754 0.69584 0.0
C2376 C 0.29809 0.40245 0.68195 0.0
C2377 C 0.28543 0.40282 0.66659 0.0
C2378 C 0.2738 0.41829 0.66491 0.0
C2379 C 0.27484 0.43345 0.67857 0.0
C2380 C 0.28746 0.43313 0.69397 0.0
C2381 C 0.39039 0.4612 0.74075 0.0
C2382 C 0.38546 0.48054 0.74254 0.0
C2383 C 0.37573 0.44574 0.73707 0.0
C2384 C 0.35585 0.44931 0.73534 0.0
C2385 C 0.35091 0.46862 0.73686 0.0
C2386 C 0.36556 0.48409 0.74043 0.0
C2387 C 0.34021 0.4329 0.73182 0.0
C2388 C 0.32674 0.43283 0.71686 0.0
C2389 C 0.33893 0.4171 0.74272 0.0
C2390 C 0.35179 0.41695 0.75942 0.0
C2391 C 0.35282 0.43248 0.77291 0.0
C2392 C 0.36507 0.43233 0.78857 0.0
C2393 C 0.37625 0.41665 0.79096 0.0
C2394 C 0.37517 0.40107 0.77772 0.0
C2395 C 0.36296 0.40116 0.76202 0.0
H2396 H 0.38572 0.41656 0.80309 0.0
H2397 H 0.26402 0.41856 0.65301 0.0
H2398 H 0.25071 0.6723 0.79698 0.0
H2399 H 0.27338 0.64711 0.79248 0.0
H2400 H 0.32273 0.69047 0.80478 0.0
H2401 H 0.30007 0.71574 0.80943 0.0
H2402 H 0.32467 0.66545 0.77264 0.0
H2403 H 0.31364 0.66132 0.83486 0.0
H2404 H 0.29351 0.65829 0.86076 0.0
H2405 H 0.26705 0.60257 0.8374 0.0
H2406 H 0.28682 0.60539 0.81121 0.0
H2407 H 0.39582 0.59657 0.77274 0.0
H2408 H 0.37639 0.62351 0.78104 0.0
H2409 H 0.32469 0.58291 0.78069 0.0
H2410 H 0.34414 0.55591 0.77303 0.0
H2411 H 0.32558 0.60813 0.80834 0.0
H2412 H 0.3336 0.61239 0.74557 0.0
H2413 H 0.35193 0.6149 0.71848 0.0
H2414 H 0.38188 0.66943 0.7412 0.0
H2415 H 0.3639 0.66711 0.76854 0.0
C2416 C 0.2664 0.67642 0.79877 0.0
C2417 C 0.27368 0.69592 0.80355 0.0
C2418 C 0.2793 0.66204 0.79628 0.0
C2419 C 0.29969 0.66696 0.79838 0.0
C2420 C 0.30703 0.68642 0.80315 0.0
C2421 C 0.29411 0.70078 0.80589 0.0
C2422 C 0.31329 0.65179 0.79509 0.0
C2423 C 0.32517 0.65306 0.78061 0.0
C2424 C 0.31344 0.63544 0.80522 0.0
C2425 C 0.30159 0.63366 0.82099 0.0
C2426 C 0.30341 0.6485 0.83517 0.0
C2427 C 0.29208 0.6468 0.84991 0.0
C2428 C 0.27898 0.63027 0.8507 0.0
C2429 C 0.2772 0.61537 0.83676 0.0
C2430 C 0.28848 0.61701 0.82197 0.0
C2431 C 0.38031 0.5934 0.77443 0.0
C2432 C 0.3715 0.57412 0.77217 0.0
C2433 C 0.3692 0.60882 0.77911 0.0
C2434 C 0.349 0.60528 0.78125 0.0
C2435 C 0.34024 0.58602 0.77913 0.0
C2436 C 0.35138 0.57059 0.77469 0.0
C2437 C 0.3369 0.62158 0.7857 0.0
C2438 C 0.32526 0.62055 0.80041 0.0
C2439 C 0.33674 0.63803 0.7756 0.0
C2440 C 0.34757 0.63946 0.75918 0.0
C2441 C 0.34421 0.62484 0.74484 0.0
C2442 C 0.35452 0.62624 0.72943 0.0
C2443 C 0.3681 0.64228 0.72814 0.0
C2444 C 0.37137 0.65699 0.74223 0.0
C2445 C 0.36112 0.65564 0.75768 0.0
H2446 H 0.37606 0.64335 0.71619 0.0
H2447 H 0.27022 0.62898 0.86213 0.0
H2448 H 0.95737 0.48928 0.47605 0.0
H2449 H 0.93 0.46588 0.48176 0.0
H2450 H 0.89327 0.51294 0.49007 0.0
H2451 H 0.92047 0.53636 0.48429 0.0
H2452 H 0.89006 0.48815 0.51586 0.0
H2453 H 0.8882 0.48332 0.4513 0.0
H2454 H 0.90185 0.47817 0.42184 0.0
H2455 H 0.91412 0.42039 0.4332 0.0
H2456 H 0.90077 0.4253 0.46286 0.0
H2457 H 0.79581 0.43662 0.51002 0.0
H2458 H 0.82483 0.45796 0.50478 0.0
H2459 H 0.85789 0.40799 0.49707 0.0
H2460 H 0.82881 0.38646 0.50208 0.0
H2461 H 0.8642 0.43296 0.4717 0.0
H2462 H 0.86494 0.43729 0.53578 0.0
H2463 H 0.85128 0.4424 0.56525 0.0
H2464 H 0.84128 0.50104 0.55488 0.0
H2465 H 0.85463 0.49619 0.52523 0.0
C2466 C 0.9434 0.49461 0.47893 0.0
C2467 C 0.94108 0.51467 0.47974 0.0
C2468 C 0.9278 0.48124 0.48222 0.0
C2469 C 0.90957 0.48768 0.48623 0.0
C2470 C 0.90724 0.50768 0.48707 0.0
C2471 C 0.92281 0.52104 0.48381 0.0
C2472 C 0.89292 0.47365 0.48974 0.0
C2473 C 0.88426 0.47621 0.50612 0.0
C2474 C 0.88573 0.45776 0.47723 0.0
C2475 C 0.89368 0.45476 0.45938 0.0
C2476 C 0.89395 0.46957 0.44758 0.0
C2477 C 0.90161 0.46669 0.43083 0.0
C2478 C 0.9089 0.44898 0.42567 0.0
C2479 C 0.90849 0.43411 0.43723 0.0
C2480 C 0.90087 0.43693 0.45401 0.0
C2481 C 0.80925 0.43015 0.50726 0.0
C2482 C 0.81002 0.40984 0.50654 0.0
C2483 C 0.82585 0.44238 0.50432 0.0
C2484 C 0.84358 0.43458 0.50075 0.0
C2485 C 0.84436 0.41431 0.49986 0.0
C2486 C 0.82774 0.40204 0.50278 0.0
C2487 C 0.86121 0.44761 0.49773 0.0
C2488 C 0.87006 0.44485 0.48147 0.0
C2489 C 0.8686 0.46332 0.51035 0.0
C2490 C 0.86063 0.46631 0.52821 0.0
C2491 C 0.85969 0.45123 0.53972 0.0
C2492 C 0.85203 0.45409 0.55647 0.0
C2493 C 0.84537 0.47202 0.56192 0.0
C2494 C 0.84642 0.48715 0.55064 0.0
C2495 C 0.85405 0.48436 0.53387 0.0
H2496 H 0.83945 0.47421 0.57489 0.0
H2497 H 0.91482 0.44678 0.4127 0.0
H2498 H 0.79247 0.85038 0.7788 0.0
H2499 H 0.76941 0.87483 0.77382 0.0
H2500 H 0.72095 0.83304 0.78204 0.0
H2501 H 0.74402 0.80841 0.78702 0.0
H2502 H 0.71493 0.85471 0.7515 0.0
H2503 H 0.73439 0.86572 0.81449 0.0
H2504 H 0.75809 0.87125 0.84103 0.0
H2505 H 0.78292 0.92403 0.82154 0.0
H2506 H 0.75954 0.91866 0.79473 0.0
H2507 H 0.64543 0.92595 0.75706 0.0
H2508 H 0.66537 0.89895 0.76214 0.0
H2509 H 0.71808 0.93857 0.76511 0.0
H2510 H 0.69824 0.96564 0.76067 0.0
H2511 H 0.72028 0.91634 0.79113 0.0
H2512 H 0.70302 0.90517 0.72767 0.0
H2513 H 0.68065 0.89982 0.7002 0.0
H2514 H 0.65311 0.84798 0.71928 0.0
H2515 H 0.67517 0.85317 0.74698 0.0
C2516 C 0.77689 0.84637 0.77943 0.0
C2517 C 0.77 0.82752 0.78329 0.0
C2518 C 0.76376 0.86036 0.77668 0.0
C2519 C 0.74352 0.85574 0.77766 0.0
C2520 C 0.73654 0.83686 0.78125 0.0
C2521 C 0.7497 0.82288 0.7842 0.0
C2522 C 0.72976 0.87079 0.77507 0.0
C2523 C 0.71583 0.86808 0.7603 0.0
C2524 C 0.73133 0.88835 0.78635 0.0
C2525 C 0.74532 0.89169 0.80253 0.0
C2526 C 0.745 0.87842 0.81579 0.0
C2527 C 0.75836 0.88155 0.8309 0.0
C2528 C 0.77203 0.89796 0.83295 0.0
C2529 C 0.77233 0.91132 0.81992 0.0
C2530 C 0.75902 0.90825 0.80478 0.0
C2531 C 0.66127 0.92886 0.75869 0.0
C2532 C 0.67027 0.94792 0.75849 0.0
C2533 C 0.67267 0.9134 0.76152 0.0
C2534 C 0.69326 0.91668 0.76386 0.0
C2535 C 0.70223 0.93568 0.76342 0.0
C2536 C 0.69086 0.95114 0.76083 0.0
C2537 C 0.70556 0.90052 0.76731 0.0
C2538 C 0.71923 0.90297 0.78231 0.0
C2539 C 0.70387 0.88282 0.75611 0.0
C2540 C 0.6906 0.87968 0.73948 0.0
C2541 C 0.69209 0.89272 0.72607 0.0
C2542 C 0.67949 0.8897 0.71045 0.0
C2543 C 0.66543 0.8736 0.70802 0.0
C2544 C 0.66398 0.86046 0.72119 0.0
C2545 C 0.67654 0.86343 0.73685 0.0
H2546 H 0.65569 0.87129 0.69592 0.0
H2547 H 0.78236 0.90035 0.84466 0.0
H2548 H 0.60201 0.51826 0.99281 0.0
H2549 H 0.63232 0.53977 0.99924 0.0
H2550 H 0.64189 0.53658 0.94279 0.0
H2551 H 0.61192 0.51439 0.93631 0.0
H2552 H 0.67566 0.53422 0.9628 0.0
H2553 H 0.62335 0.57603 0.96298 0.0
H2554 H 0.59205 0.58758 0.97191 0.0
H2555 H 0.61549 0.59708 0.0268 0.0
H2556 H 0.64685 0.58532 0.01823 0.0
H2557 H 0.74429 0.61844 0.96605 0.0
H2558 H 0.71542 0.59484 0.95961 0.0
H2559 H 0.70727 0.59532 0.01621 0.0
H2560 H 0.73609 0.61895 0.0228 0.0
H2561 H 0.67301 0.59896 0.99599 0.0
H2562 H 0.7256 0.55749 0.99555 0.0
H2563 H 0.75698 0.54638 0.98634 0.0
H2564 H 0.73307 0.53671 0.9316 0.0
H2565 H 0.70163 0.54805 0.94044 0.0
C2566 C 0.6107 0.5219 0.98178 0.0
C2567 C 0.60452 0.51466 0.96404 0.0
C2568 C 0.62792 0.53435 0.98546 0.0
C2569 C 0.63921 0.54 0.97146 0.0
C2570 C 0.63334 0.53248 0.95378 0.0
C2571 C 0.61613 0.51995 0.95008 0.0
C2572 C 0.65696 0.554 0.97529 0.0
C2573 C 0.67505 0.54848 0.96985 0.0
C2574 C 0.6562 0.57245 0.9848 0.0
C2575 C 0.63738 0.57962 0.98998 0.0
C2576 C 0.62178 0.58044 0.97697 0.0
C2577 C 0.60404 0.58705 0.98197 0.0
C2578 C 0.60177 0.59301 -8e-05 0.0
C2579 C 0.61726 0.59243 0.01291 0.0
C2580 C 0.63503 0.58581 0.00798 0.0
C2581 C 0.73639 0.61349 0.97714 0.0
C2582 C 0.74249 0.62055 0.99495 0.0
C2583 C 0.71995 0.59995 0.97343 0.0
C2584 C 0.70932 0.59325 0.98745 0.0
C2585 C 0.71531 0.60032 0.00522 0.0
C2586 C 0.73181 0.61377 0.00895 0.0
C2587 C 0.69169 0.57916 0.98355 0.0
C2588 C 0.67361 0.58469 0.98896 0.0
C2589 C 0.69247 0.56077 0.97397 0.0
C2590 C 0.71132 0.55381 0.96863 0.0
C2591 C 0.72708 0.55315 0.98152 0.0
C2592 C 0.74487 0.54678 0.97638 0.0
C2593 C 0.74703 0.54089 0.95839 0.0
C2594 C 0.73138 0.5413 0.94552 0.0
C2595 C 0.71357 0.54768 0.9506 0.0
H2596 H 0.76082 0.53597 0.95443 0.0
H2597 H 0.58802 0.59812 0.00376 0.0
H2598 H 0.24121 0.68772 0.21677 0.0
H2599 H 0.21593 0.66086 0.21891 0.0
H2600 H 0.26096 0.62298 0.23089 0.0
H2601 H 0.2863 0.64956 0.22819 0.0
H2602 H 0.23315 0.60505 0.20675 0.0
H2603 H 0.23482 0.64256 0.26388 0.0
H2604 H 0.23337 0.67227 0.28413 0.0
H2605 H 0.17461 0.67761 0.26259 0.0
H2606 H 0.17581 0.64806 0.24202 0.0
H2607 H 0.17753 0.52859 0.24284 0.0
H2608 H 0.20083 0.55642 0.23877 0.0
H2609 H 0.15275 0.5903 0.22561 0.0
H2610 H 0.12925 0.56252 0.22978 0.0
H2611 H 0.1808 0.61084 0.24911 0.0
H2612 H 0.17873 0.57239 0.19284 0.0
H2613 H 0.18028 0.54252 0.17282 0.0
H2614 H 0.2399 0.53884 0.19293 0.0
H2615 H 0.23862 0.56855 0.21327 0.0
C2616 C 0.24572 0.67362 0.21973 0.0
C2617 C 0.26576 0.67079 0.22239 0.0
C2618 C 0.23126 0.65834 0.2211 0.0
C2619 C 0.23656 0.63998 0.22526 0.0
C2620 C 0.25654 0.63705 0.22773 0.0
C2621 C 0.271 0.6523 0.22635 0.0
C2622 C 0.22133 0.62373 0.22695 0.0
C2623 C 0.22183 0.60624 0.21616 0.0
C2624 C 0.20626 0.62548 0.23889 0.0
C2625 C 0.20549 0.64322 0.25128 0.0
C2626 C 0.22165 0.65016 0.26335 0.0
C2627 C 0.22086 0.66696 0.27491 0.0
C2628 C 0.20393 0.67686 0.27461 0.0
C2629 C 0.18773 0.66995 0.26279 0.0
C2630 C 0.18845 0.65317 0.25119 0.0
C2631 C 0.17187 0.54194 0.23907 0.0
C2632 C 0.15152 0.54332 0.23658 0.0
C2633 C 0.18522 0.55781 0.23668 0.0
C2634 C 0.17852 0.57535 0.23169 0.0
C2635 C 0.15822 0.57687 0.22941 0.0
C2636 C 0.14483 0.56097 0.23175 0.0
C2637 C 0.19276 0.59211 0.22905 0.0
C2638 C 0.19206 0.6097 0.23964 0.0
C2639 C 0.20767 0.59045 0.21695 0.0
C2640 C 0.20852 0.5726 0.2047 0.0
C2641 C 0.19212 0.56512 0.1931 0.0
C2642 C 0.19296 0.54824 0.18167 0.0
C2643 C 0.21016 0.53876 0.18163 0.0
C2644 C 0.22658 0.54618 0.19299 0.0
C2645 C 0.22581 0.56306 0.20446 0.0
H2646 H 0.21078 0.52569 0.17277 0.0
H2647 H 0.20334 0.68986 0.28357 0.0
H2648 H 0.96217 0.52707 0.00521 0.0
H2649 H 0.94028 0.55208 0.99851 0.0
H2650 H 0.91098 0.54248 0.04669 0.0
H2651 H 0.93264 0.51719 0.05331 0.0
H2652 H 0.88501 0.54372 0.01762 0.0
H2653 H 0.94198 0.58233 0.04558 0.0
H2654 H 0.97723 0.59373 0.05025 0.0
H2655 H 0.97637 0.61231 0.99694 0.0
H2656 H 0.94115 0.60075 0.99185 0.0
H2657 H 0.83097 0.62614 0.01931 0.0
H2658 H 0.85484 0.60356 0.0275 0.0
H2659 H 0.88317 0.61179 0.9786 0.0
H2660 H 0.85932 0.63451 0.97025 0.0
H2661 H 0.90978 0.61156 0.0083 0.0
H2662 H 0.85298 0.57238 0.98021 0.0
H2663 H 0.81769 0.56112 0.9756 0.0
H2664 H 0.8183 0.54361 0.02928 0.0
H2665 H 0.85356 0.55504 0.03431 0.0
C2666 C 0.95102 0.53025 0.01434 0.0
C2667 C 0.9491 0.52017 0.02978 0.0
C2668 C 0.93864 0.54464 0.01058 0.0
C2669 C 0.92412 0.54923 0.02218 0.0
C2670 C 0.92214 0.53918 0.03759 0.0
C2671 C 0.93459 0.52486 0.04142 0.0
C2672 C 0.91068 0.56418 0.01799 0.0
C2673 C 0.8904 0.55863 0.01585 0.0
C2674 C 0.91779 0.5835 0.01525 0.0
C2675 C 0.93897 0.59049 0.01827 0.0
C2676 C 0.94934 0.58869 0.03479 0.0
C2677 C 0.96931 0.59521 0.03753 0.0
C2678 C 0.97905 0.60369 0.02388 0.0
C2679 C 0.96881 0.60571 0.00749 0.0
C2680 C 0.94884 0.59919 0.00467 0.0
C2681 C 0.84235 0.62328 0.01032 0.0
C2682 C 0.84316 0.63203 0.99405 0.0
C2683 C 0.85594 0.61032 0.01502 0.0
C2684 C 0.8706 0.60584 0.00355 0.0
C2685 C 0.87191 0.61504 0.9876 0.0
C2686 C 0.85824 0.62796 0.98284 0.0
C2687 C 0.88415 0.59108 0.00798 0.0
C2688 C 0.90442 0.59666 0.01012 0.0
C2689 C 0.87705 0.57177 0.01072 0.0
C2690 C 0.85587 0.56475 0.0077 0.0
C2691 C 0.84556 0.56627 0.99109 0.0
C2692 C 0.82556 0.55984 0.98839 0.0
C2693 C 0.81574 0.55171 0.00215 0.0
C2694 C 0.82592 0.54994 0.01864 0.0
C2695 C 0.84591 0.55638 0.02141 0.0
H2696 H 0.80026 0.54674 4e-05 0.0
H2697 H 0.99451 0.60874 0.02603 0.0
H2698 H 0.10995 0.04631 0.0397 0.0
H2699 H 0.13502 0.02411 0.03364 0.0
H2700 H 0.099 0.97736 0.05349 0.0
H2701 H 0.07364 0.99947 0.0594 0.0
H2702 H 0.13782 0.97869 0.06612 0.0
H2703 H 0.10136 0.9787 0.00938 0.0
H2704 H 0.08581 0.99354 0.9839 0.0
H2705 H 0.14204 0.02032 0.97239 0.0
H2706 H 0.1579 0.00587 0.99798 0.0
H2707 H 0.19534 0.9047 0.03246 0.0
H2708 H 0.16797 0.92414 0.03851 0.0
H2709 H 0.19843 0.97322 0.01677 0.0
H2710 H 0.22566 0.95381 0.01038 0.0
H2711 H 0.16068 0.96896 0.00483 0.0
H2712 H 0.19693 0.9706 0.06225 0.0
H2713 H 0.21273 0.9565 0.08805 0.0
H2714 H 0.15725 0.92718 0.09848 0.0
H2715 H 0.14116 0.94091 0.07257 0.0
C2716 C 0.10726 0.03126 0.04264 0.0
C2717 C 0.08972 0.02461 0.04988 0.0
C2718 C 0.12163 0.01861 0.03921 0.0
C2719 C 0.11874 0.99903 0.0429 0.0
C2720 C 0.10148 0.99242 0.05053 0.0
C2721 C 0.08705 0.00508 0.05394 0.0
C2722 C 0.13378 0.98553 0.03868 0.0
C2723 C 0.14261 0.97628 0.05267 0.0
C2724 C 0.14027 0.98274 0.0212 0.0
C2725 C 0.13079 0.99133 0.0057 0.0
C2726 C 0.11039 0.98787 0.0015 0.0
C2727 C 0.10152 0.99619 0.98702 0.0
C2728 C 0.11292 0.0079 0.97656 0.0
C2729 C 0.13323 0.01126 0.98052 0.0
C2730 C 0.14217 0.00299 0.995 0.0
C2731 C 0.19621 0.91963 0.02895 0.0
C2732 C 0.21272 0.92773 0.02099 0.0
C2733 C 0.18058 0.93074 0.03248 0.0
C2734 C 0.18125 0.95021 0.02828 0.0
C2735 C 0.1976 0.95823 0.02013 0.0
C2736 C 0.21319 0.94712 0.01653 0.0
C2737 C 0.16494 0.96227 0.03231 0.0
C2738 C 0.15583 0.97124 0.01827 0.0
C2739 C 0.15825 0.96485 0.04976 0.0
C2740 C 0.16789 0.95661 0.06535 0.0
C2741 C 0.18813 0.96102 0.06995 0.0
C2742 C 0.19713 0.95311 0.08462 0.0
C2743 C 0.18601 0.9409 0.09487 0.0
C2744 C 0.16585 0.93661 0.09051 0.0
C2745 C 0.15678 0.94446 0.07585 0.0
H2746 H 0.19301 0.9348 0.10622 0.0
H2747 H 0.10602 0.01433 0.96536 0.0
loop_
_geom_bond_atom_site_label_1
_geom_bond_atom_site_label_2
_geom_bond_distance
_geom_bond_site_symmetry_2
_ccdc_geom_bond_type
H0 C5 0.930 . S
H1 C8 0.930 . S
H2 C10 0.930 . S
H3 C4 1.016 . S
C4 H3 1.016 . S
C4 N11 1.286 . S
C5 H0 0.930 . S
C5 C6 1.397 . S
C5 C7 1.361 . S
C6 C5 1.397 . S
C6 C10 1.390 . S
C7 C5 1.361 . S
C7 C8 1.393 . S
C7 N11 1.413 . S
C8 H1 0.930 . S
C8 C7 1.393 . S
C8 C9 1.399 . S
C9 C8 1.399 . S
C9 C10 1.381 . S
C10 H2 0.930 . S
C10 C6 1.390 . S
C10 C9 1.381 . S
N11 C4 1.286 . S
N11 C7 1.413 . S
H12 C17 0.930 . S
H13 C20 0.930 . S
H14 C22 0.930 . S
H15 C16 1.016 . S
C16 H15 1.016 . S
C16 N23 1.286 . S
C17 H12 0.930 . S
C17 C18 1.397 . S
C17 C19 1.361 . S
C18 C17 1.397 . S
C18 C22 1.390 . S
C19 C17 1.361 . S
C19 C20 1.393 . S
C19 N23 1.413 . S
C20 H13 0.930 . S
C20 C19 1.393 . S
C20 C21 1.399 . S
C21 C20 1.399 . S
C21 C22 1.381 . S
C22 H14 0.930 . S
C22 C18 1.390 . S
C22 C21 1.381 . S
N23 C16 1.286 . S
N23 C19 1.413 . S
H24 C29 0.930 . S
H25 C32 0.930 . S
H26 C34 0.930 . S
H27 C28 1.016 . S
C28 H27 1.016 . S
C28 N35 1.286 . S
C29 H24 0.930 . S
C29 C30 1.397 . S
C29 C31 1.361 . S
C30 C29 1.397 . S
C30 C34 1.390 . S
C31 C29 1.361 . S
C31 C32 1.393 . S
C31 N35 1.413 . S
C32 H25 0.930 . S
C32 C31 1.393 . S
C32 C33 1.399 . S
C33 C32 1.399 . S
C33 C34 1.381 . S
C34 H26 0.930 . S
C34 C30 1.390 . S
C34 C33 1.381 . S
N35 C28 1.286 . S
N35 C31 1.413 . S
H36 C41 0.930 . S
H37 C44 0.930 . S
H38 C46 0.930 . S
H39 C40 1.016 . S
C40 H39 1.016 . S
C40 N47 1.286 . S
C41 H36 0.930 . S
C41 C42 1.397 . S
C41 C43 1.361 . S
C42 C41 1.397 . S
C42 C46 1.390 . S
C43 C41 1.361 . S
C43 C44 1.393 . S
C43 N47 1.413 . S
C44 H37 0.930 . S
C44 C43 1.393 . S
C44 C45 1.399 . S
C45 C44 1.399 . S
C45 C46 1.381 . S
C46 H38 0.930 . S
C46 C42 1.390 . S
C46 C45 1.381 . S
N47 C40 1.286 . S
N47 C43 1.413 . S
H48 C53 0.930 . S
H49 C56 0.930 . S
H50 C58 0.930 . S
H51 C52 1.016 . S
C52 H51 1.016 . S
C52 N59 1.286 . S
C53 H48 0.930 . S
C53 C54 1.397 . S
C53 C55 1.361 . S
C54 C53 1.397 . S
C54 C58 1.390 1_565 S
C55 C53 1.361 . S
C55 C56 1.393 . S
C55 N59 1.413 . S
C56 H49 0.930 . S
C56 C55 1.393 . S
C56 C57 1.426 . S
C57 C56 1.426 . S
C57 C58 1.373 1_565 S
C58 H50 0.930 . S
C58 C54 1.390 1_545 S
C58 C57 1.373 1_545 S
N59 C52 1.286 . S
N59 C55 1.413 . S
H60 C65 0.930 . S
H61 C68 0.930 . S
H62 C70 0.930 . S
H63 C64 1.016 . S
C64 H63 1.016 . S
C64 N71 1.286 . S
C65 H60 0.930 . S
C65 C66 1.397 . S
C65 C67 1.361 . S
C66 C65 1.397 . S
C66 C70 1.390 . S
C67 C65 1.361 . S
C67 C68 1.393 . S
C67 N71 1.413 . S
C68 H61 0.930 . S
C68 C67 1.393 . S
C68 C69 1.399 . S
C69 C68 1.399 . S
C69 C70 1.381 . S
C70 H62 0.930 . S
C70 C66 1.390 . S
C70 C69 1.381 . S
N71 C64 1.286 . S
N71 C67 1.413 . S
H72 C77 0.930 1_455 S
H73 C80 0.930 . S
H74 C82 0.930 . S
H75 C76 1.007 1_655 S
C76 H75 1.007 1_455 S
C76 N83 1.289 . S
C77 H72 0.930 1_655 S
C77 C78 1.397 . S
C77 C79 1.361 . S
C78 C77 1.397 . S
C78 C82 1.390 . S
C79 C77 1.361 . S
C79 C80 1.393 . S
C79 N83 1.409 1_655 S
C80 H73 0.930 . S
C80 C79 1.393 . S
C80 C81 1.399 . S
C81 C80 1.399 . S
C81 C82 1.381 . S
C82 H74 0.930 . S
C82 C78 1.390 . S
C82 C81 1.381 . S
N83 C76 1.289 . S
N83 C79 1.409 1_455 S
H84 C89 0.930 . S
H85 C92 0.930 . S
H86 C94 0.930 . S
H87 C88 1.016 . S
C88 H87 1.016 . S
C88 N95 1.286 . S
C89 H84 0.930 . S
C89 C90 1.397 . S
C89 C91 1.361 . S
C90 C89 1.397 . S
C90 C94 1.390 . S
C91 C89 1.361 . S
C91 C92 1.393 . S
C91 N95 1.413 . S
C92 H85 0.930 . S
C92 C91 1.393 . S
C92 C93 1.399 . S
C93 C92 1.399 . S
C93 C94 1.381 . S
C94 H86 0.930 . S
C94 C90 1.390 . S
C94 C93 1.381 . S
N95 C88 1.286 . S
N95 C91 1.413 . S
H96 C101 0.930 . S
H97 C104 0.930 . S
H98 C106 0.930 . S
H99 C100 1.016 . S
C100 H99 1.016 . S
C100 N107 1.286 . S
C101 H96 0.930 . S
C101 C102 1.397 . S
C101 C103 1.361 . S
C102 C101 1.397 . S
C102 C106 1.390 . S
C103 C101 1.361 . S
C103 C104 1.393 . S
C103 N107 1.413 . S
C104 H97 0.930 . S
C104 C103 1.393 . S
C104 C105 1.399 . S
C105 C104 1.399 . S
C105 C106 1.381 . S
C106 H98 0.930 . S
C106 C102 1.390 . S
C106 C105 1.381 . S
N107 C100 1.286 . S
N107 C103 1.413 . S
H108 C113 0.930 . S
H109 C116 0.930 . S
H110 C118 0.930 1_545 S
H111 C112 1.016 . S
C112 H111 1.016 . S
C112 N119 1.286 . S
C113 H108 0.930 . S
C113 C114 1.397 . S
C113 C115 1.361 . S
C114 C113 1.397 . S
C114 C118 1.390 . S
C115 C113 1.361 . S
C115 C116 1.393 . S
C115 N119 1.413 . S
C116 H109 0.930 . S
C116 C115 1.393 . S
C116 C117 1.399 . S
C117 C116 1.399 . S
C117 C118 1.381 . S
C118 H110 0.930 1_565 S
C118 C114 1.390 . S
C118 C117 1.381 . S
N119 C112 1.286 . S
N119 C115 1.413 . S
H120 C125 0.930 . S
H121 C128 0.930 . S
H122 C130 0.930 . S
H123 C124 1.016 . S
C124 H123 1.016 . S
C124 N131 1.286 . S
C125 H120 0.930 . S
C125 C126 1.397 . S
C125 C127 1.361 . S
C126 C125 1.397 . S
C126 C130 1.390 . S
C127 C125 1.361 . S
C127 C128 1.393 . S
C127 N131 1.413 . S
C128 H121 0.930 . S
C128 C127 1.393 . S
C128 C129 1.399 . S
C129 C128 1.399 . S
C129 C130 1.381 . S
C130 H122 0.930 . S
C130 C126 1.390 . S
C130 C129 1.381 . S
N131 C124 1.286 . S
N131 C127 1.413 . S
H132 C137 0.930 . S
H133 C140 0.930 . S
H134 C142 0.930 . S
H135 C136 1.016 . S
C136 H135 1.016 . S
C136 N143 1.286 . S
C137 H132 0.930 . S
C137 C138 1.397 . S
C137 C139 1.361 . S
C138 C137 1.397 . S
C138 C142 1.390 . S
C139 C137 1.361 . S
C139 C140 1.393 . S
C139 N143 1.413 . S
C140 H133 0.930 . S
C140 C139 1.393 . S
C140 C141 1.399 . S
C141 C140 1.399 . S
C141 C142 1.381 . S
C142 H134 0.930 . S
C142 C138 1.390 . S
C142 C141 1.381 . S
N143 C136 1.286 . S
N143 C139 1.413 . S
H144 C149 0.930 . S
H145 C152 0.930 . S
H146 C154 0.930 . S
H147 C148 1.016 . S
C148 H147 1.016 . S
C148 N155 1.286 . S
C149 H144 0.930 . S
C149 C150 1.397 . S
C149 C151 1.361 . S
C150 C149 1.397 . S
C150 C154 1.390 . S
C151 C149 1.361 . S
C151 C152 1.393 . S
C151 N155 1.413 . S
C152 H145 0.930 . S
C152 C151 1.393 . S
C152 C153 1.399 . S
C153 C152 1.399 . S
C153 C154 1.381 . S
C154 H146 0.930 . S
C154 C150 1.390 . S
C154 C153 1.381 . S
N155 C148 1.286 . S
N155 C151 1.413 . S
H156 C161 0.930 . S
H157 C164 0.930 . S
H158 C166 0.930 . S
H159 C160 1.016 . S
C160 H159 1.016 . S
C160 N167 1.286 . S
C161 H156 0.930 . S
C161 C162 1.397 . S
C161 C163 1.361 . S
C162 C161 1.397 . S
C162 C166 1.390 . S
C163 C161 1.361 . S
C163 C164 1.393 . S
C163 N167 1.413 . S
C164 H157 0.930 . S
C164 C163 1.393 . S
C164 C165 1.399 . S
C165 C164 1.399 . S
C165 C166 1.381 . S
C166 H158 0.930 . S
C166 C162 1.390 . S
C166 C165 1.381 . S
N167 C160 1.286 . S
N167 C163 1.413 . S
H168 C173 0.930 . S
H169 C176 0.930 . S
H170 C178 0.930 . S
H171 C172 1.016 . S
C172 H171 1.016 . S
C172 N179 1.286 . S
C173 H168 0.930 . S
C173 C174 1.397 . S
C173 C175 1.361 . S
C174 C173 1.397 . S
C174 C178 1.390 . S
C175 C173 1.361 . S
C175 C176 1.393 . S
C175 N179 1.413 . S
C176 H169 0.930 . S
C176 C175 1.393 . S
C176 C177 1.399 . S
C177 C176 1.399 . S
C177 C178 1.381 . S
C178 H170 0.930 . S
C178 C174 1.390 . S
C178 C177 1.381 . S
N179 C172 1.286 . S
N179 C175 1.413 . S
H180 C185 0.930 . S
H181 C188 0.930 . S
H182 C190 0.930 . S
H183 C184 1.016 . S
C184 H183 1.016 . S
C184 N191 1.286 . S
C185 H180 0.930 . S
C185 C186 1.397 . S
C185 C187 1.361 . S
C186 C185 1.397 . S
C186 C190 1.390 . S
C187 C185 1.361 . S
C187 C188 1.393 . S
C187 N191 1.413 . S
C188 H181 0.930 . S
C188 C187 1.393 . S
C188 C189 1.399 . S
C189 C188 1.399 . S
C189 C190 1.381 . S
C190 H182 0.930 . S
C190 C186 1.390 . S
C190 C189 1.381 . S
N191 C184 1.286 . S
N191 C187 1.413 . S
C192 O193 1.160 . S
C192 O199 1.185 . S
O193 C192 1.160 . S
O194 Zn195 1.899 . S
O194 C202 1.284 1_554 S
Zn195 O194 1.899 . S
Zn195 O196 2.032 . S
Zn195 O199 2.086 . S
Zn195 O204 1.977 . S
O196 Zn195 2.032 . S
O196 C200 1.278 . S
C197 O198 1.203 . S
C197 O204 1.267 . S
O198 C197 1.203 . S
O199 C192 1.185 . S
O199 Zn195 2.086 . S
C200 O196 1.278 . S
C200 O201 1.211 . S
O201 C200 1.211 . S
C202 O194 1.284 1_556 S
C202 O203 1.273 . S
O203 C202 1.273 . S
O204 Zn195 1.977 . S
O204 C197 1.267 . S
C205 O206 1.160 . S
C205 O212 1.185 . S
O206 C205 1.160 . S
O207 Zn208 1.899 . S
O207 C215 1.284 . S
Zn208 O207 1.899 . S
Zn208 O209 2.032 . S
Zn208 O212 2.086 . S
Zn208 O217 1.977 . S
O209 Zn208 2.032 . S
O209 C213 1.278 . S
C210 O211 1.203 . S
C210 O217 1.267 . S
O211 C210 1.203 . S
O212 C205 1.185 . S
O212 Zn208 2.086 . S
C213 O209 1.278 . S
C213 O214 1.211 . S
O214 C213 1.211 . S
C215 O207 1.284 . S
C215 O216 1.273 . S
O216 C215 1.273 . S
O217 Zn208 1.977 . S
O217 C210 1.267 . S
C218 O219 1.160 1_554 S
C218 O225 1.185 . S
O219 C218 1.160 1_556 S
O220 Zn221 1.899 1_556 S
O220 C228 1.284 . S
Zn221 O220 1.899 1_554 S
Zn221 O222 2.032 1_554 S
Zn221 O225 2.086 . S
Zn221 O230 1.977 . S
O222 Zn221 2.032 1_556 S
O222 C226 1.278 . S
C223 O224 1.203 . S
C223 O230 1.267 . S
O224 C223 1.203 . S
O225 C218 1.185 . S
O225 Zn221 2.086 . S
C226 O222 1.278 . S
C226 O227 1.211 1_556 S
O227 C226 1.211 1_554 S
C228 O220 1.284 . S
C228 O229 1.273 . S
O229 C228 1.273 . S
O230 Zn221 1.977 . S
O230 C223 1.267 . S
C231 O232 1.160 . S
C231 O238 1.185 . S
O232 C231 1.160 . S
O233 Zn234 1.899 . S
O233 C241 1.284 . S
Zn234 O233 1.899 . S
Zn234 O235 2.032 . S
Zn234 O238 2.086 . S
Zn234 O243 1.977 . S
O235 Zn234 2.032 . S
O235 C239 1.278 . S
C236 O237 1.203 . S
C236 O243 1.267 . S
O237 C236 1.203 . S
O238 C231 1.185 . S
O238 Zn234 2.086 . S
C239 O235 1.278 . S
C239 O240 1.211 1_545 S
O240 C239 1.211 1_565 S
C241 O233 1.284 . S
C241 O242 1.273 . S
O242 C241 1.273 . S
O243 Zn234 1.977 . S
O243 C236 1.267 . S
C244 O245 1.160 . S
C244 O251 1.185 . S
O245 C244 1.160 . S
O246 Zn247 1.899 . S
O246 C254 1.284 . S
Zn247 O246 1.899 . S
Zn247 O248 2.032 . S
Zn247 O251 2.086 . S
Zn247 O256 1.977 . S
O248 Zn247 2.032 . S
O248 C252 1.278 . S
C249 O250 1.203 . S
C249 O256 1.267 . S
O250 C249 1.203 . S
O251 C244 1.185 . S
O251 Zn247 2.086 . S
C252 O248 1.278 . S
C252 O253 1.211 . S
O253 C252 1.211 . S
C254 O246 1.284 . S
C254 O255 1.273 . S
O255 C254 1.273 . S
O256 Zn247 1.977 . S
O256 C249 1.267 . S
C257 O258 1.160 . S
C257 O264 1.185 . S
O258 C257 1.160 . S
O259 Zn260 1.899 . S
O259 C267 1.284 . S
Zn260 O259 1.899 . S
Zn260 O261 2.032 . S
Zn260 O264 2.086 . S
Zn260 O269 1.977 . S
O261 Zn260 2.032 . S
O261 C265 1.278 . S
C262 O263 1.203 . S
C262 O269 1.267 . S
O263 C262 1.203 . S
O264 C257 1.185 . S
O264 Zn260 2.086 . S
C265 O261 1.278 . S
C265 O266 1.211 . S
O266 C265 1.211 . S
C267 O259 1.284 . S
C267 O268 1.273 . S
O268 C267 1.273 . S
O269 Zn260 1.977 . S
O269 C262 1.267 . S
C270 O271 1.160 . S
C270 O277 1.185 . S
O271 C270 1.160 . S
O272 Zn273 1.899 . S
O272 C280 1.284 . S
Zn273 O272 1.899 . S
Zn273 O274 2.032 . S
Zn273 O277 2.086 . S
Zn273 O282 1.977 . S
O274 Zn273 2.032 . S
O274 C278 1.278 . S
C275 O276 1.203 . S
C275 O282 1.267 . S
O276 C275 1.203 . S
O277 C270 1.185 . S
O277 Zn273 2.086 . S
C278 O274 1.278 . S
C278 O279 1.211 . S
O279 C278 1.211 . S
C280 O272 1.284 . S
C280 O281 1.273 . S
O281 C280 1.273 . S
O282 Zn273 1.977 . S
O282 C275 1.267 . S
C283 O284 1.160 . S
C283 O290 1.185 . S
O284 C283 1.160 . S
O285 Zn286 1.899 . S
O285 C293 1.284 1_565 S
Zn286 O285 1.899 . S
Zn286 O287 2.032 1_565 S
Zn286 O290 2.086 . S
Zn286 O295 1.977 . S
O287 Zn286 2.032 1_545 S
O287 C291 1.278 . S
C288 O289 1.203 1_565 S
C288 O295 1.267 . S
O289 C288 1.203 1_545 S
O290 C283 1.185 . S
O290 Zn286 2.086 . S
C291 O287 1.278 . S
C291 O292 1.211 . S
O292 C291 1.211 . S
C293 O285 1.284 1_545 S
C293 O294 1.273 . S
O294 C293 1.273 . S
O295 Zn286 1.977 . S
O295 C288 1.267 . S
C296 O297 1.160 1_455 S
C296 O303 1.185 . S
O297 C296 1.160 1_655 S
O298 Zn299 1.899 1_655 S
O298 C306 1.284 . S
Zn299 O298 1.899 1_455 S
Zn299 O300 2.032 . S
Zn299 O303 2.086 . S
Zn299 O308 1.977 . S
O300 Zn299 2.032 . S
O300 C304 1.278 . S
C301 O302 1.203 . S
C301 O308 1.267 . S
O302 C301 1.203 . S
O303 C296 1.185 . S
O303 Zn299 2.086 . S
C304 O300 1.278 . S
C304 O305 1.211 . S
O305 C304 1.211 . S
C306 O298 1.284 . S
C306 O307 1.273 . S
O307 C306 1.273 . S
O308 Zn299 1.977 . S
O308 C301 1.267 . S
C309 O310 1.160 . S
C309 O316 1.185 . S
O310 C309 1.160 . S
O311 Zn312 1.899 . S
O311 C319 1.284 . S
Zn312 O311 1.899 . S
Zn312 O313 2.032 . S
Zn312 O316 2.086 . S
Zn312 O321 1.977 . S
O313 Zn312 2.032 . S
O313 C317 1.278 . S
C314 O315 1.203 . S
C314 O321 1.267 . S
O315 C314 1.203 . S
O316 C309 1.185 . S
O316 Zn312 2.086 . S
C317 O313 1.278 . S
C317 O318 1.211 . S
O318 C317 1.211 . S
C319 O311 1.284 . S
C319 O320 1.273 . S
O320 C319 1.273 . S
O321 Zn312 1.977 . S
O321 C314 1.267 . S
C322 O323 1.110 1_455 S
C322 O329 1.185 . S
O323 C322 1.110 1_655 S
O324 Zn325 1.899 1_655 S
O324 C332 1.284 . S
Zn325 O324 1.899 1_455 S
Zn325 O326 2.032 . S
Zn325 O329 2.086 . S
Zn325 O334 1.977 . S
O326 Zn325 2.032 . S
O326 C330 1.278 . S
C327 O328 1.203 . S
C327 O334 1.267 . S
O328 C327 1.203 . S
O329 C322 1.185 . S
O329 Zn325 2.086 . S
C330 O326 1.278 . S
C330 O331 1.211 . S
O331 C330 1.211 . S
C332 O324 1.284 . S
C332 O333 1.273 . S
O333 C332 1.273 . S
O334 Zn325 1.977 . S
O334 C327 1.267 . S
C335 O336 1.160 . S
C335 O342 1.185 . S
O336 C335 1.160 . S
O337 Zn338 1.899 . S
O337 C345 1.284 . S
Zn338 O337 1.899 . S
Zn338 O339 2.032 . S
Zn338 O342 2.086 . S
Zn338 O347 1.977 . S
O339 Zn338 2.032 . S
O339 C343 1.278 . S
C340 O341 1.203 . S
C340 O347 1.267 . S
O341 C340 1.203 . S
O342 C335 1.185 . S
O342 Zn338 2.086 . S
C343 O339 1.278 . S
C343 O344 1.211 . S
O344 C343 1.211 . S
C345 O337 1.284 . S
C345 O346 1.273 . S
O346 C345 1.273 . S
O347 Zn338 1.977 . S
O347 C340 1.267 . S
H348 C366 0.951 . S
H349 C368 0.951 . S
H350 C370 0.950 . S
H351 C371 0.950 . S
H352 C373 0.950 . S
H353 C376 0.950 . S
H354 C377 0.950 . S
H355 C379 0.950 . S
H356 C380 0.950 . S
H357 C381 0.951 . S
H358 C383 0.951 . S
H359 C385 0.950 . S
H360 C386 0.950 . S
H361 C388 0.950 . S
H362 C391 0.950 . S
H363 C392 0.950 . S
H364 C394 0.950 . S
H365 C395 0.950 . S
C366 H348 0.951 . S
C366 C367 1.366 . S
C366 C368 1.388 . S
C367 C366 1.366 . S
C367 C371 1.385 . S
C368 H349 0.951 . S
C368 C366 1.388 . S
C368 C369 1.366 . S
C369 C368 1.366 . S
C369 C370 1.414 . S
C369 C372 1.499 . S
C370 H350 0.950 . S
C370 C369 1.414 . S
C370 C371 1.374 . S
C371 H351 0.950 . S
C371 C367 1.385 . S
C371 C370 1.374 . S
C372 C369 1.499 . S
C372 C373 1.373 . S
C372 C374 1.389 . S
C373 H352 0.950 . S
C373 C372 1.373 . S
C373 C389 1.377 . S
C374 C372 1.389 . S
C374 C375 1.524 . S
C374 C388 1.377 . S
C375 C374 1.524 . S
C375 C376 1.397 . S
C375 C380 1.363 . S
C376 H353 0.950 . S
C376 C375 1.397 . S
C376 C377 1.334 . S
C377 H354 0.950 . S
C377 C376 1.334 . S
C377 C378 1.287 . S
C378 C377 1.287 . S
C378 C379 1.524 . S
C378 H397 0.913 . S
C379 H355 0.950 . S
C379 C378 1.524 . S
C379 C380 1.415 . S
C380 H356 0.950 . S
C380 C375 1.363 . S
C380 C379 1.415 . S
C381 H357 0.951 . S
C381 C382 1.366 . S
C381 C383 1.388 . S
C382 C381 1.366 . S
C382 C386 1.385 . S
C383 H358 0.951 . S
C383 C381 1.388 . S
C383 C384 1.366 . S
C384 C383 1.366 . S
C384 C385 1.414 . S
C384 C387 1.499 . S
C385 H359 0.950 . S
C385 C384 1.414 . S
C385 C386 1.374 . S
C386 H360 0.950 . S
C386 C382 1.385 . S
C386 C385 1.374 . S
C387 C384 1.499 . S
C387 C388 1.373 . S
C387 C389 1.389 . S
C388 H361 0.950 . S
C388 C374 1.377 . S
C388 C387 1.373 . S
C389 C373 1.377 . S
C389 C387 1.389 . S
C389 C390 1.524 . S
C390 C389 1.524 . S
C390 C391 1.397 . S
C390 C395 1.363 . S
C391 H362 0.950 . S
C391 C390 1.397 . S
C391 C392 1.334 . S
C392 H363 0.950 . S
C392 C391 1.334 . S
C392 C393 1.287 . S
C393 C392 1.287 . S
C393 C394 1.524 . S
C393 H396 0.999 . S
C394 H364 0.950 . S
C394 C393 1.524 . S
C394 C395 1.415 . S
C395 H365 0.950 . S
C395 C390 1.363 . S
C395 C394 1.415 . S
H396 C393 0.999 . S
H397 C378 0.913 . S
H398 C416 0.951 . S
H399 C418 0.951 . S
H400 C420 0.950 . S
H401 C421 0.950 . S
H402 C423 0.950 . S
H403 C426 0.950 . S
H404 C427 0.950 . S
H405 C429 0.950 . S
H406 C430 0.950 . S
H407 C431 0.951 . S
H408 C433 0.951 . S
H409 C435 0.950 . S
H410 C436 0.950 . S
H411 C438 0.950 . S
H412 C441 0.950 . S
H413 C442 0.950 . S
H414 C444 0.950 . S
H415 C445 0.950 . S
C416 H398 0.951 . S
C416 C417 1.366 . S
C416 C418 1.388 . S
C417 C416 1.366 . S
C417 C421 1.385 . S
C418 H399 0.951 . S
C418 C416 1.388 . S
C418 C419 1.366 . S
C419 C418 1.366 . S
C419 C420 1.414 . S
C419 C422 1.499 . S
C420 H400 0.950 . S
C420 C419 1.414 . S
C420 C421 1.374 . S
C421 H401 0.950 . S
C421 C417 1.385 . S
C421 C420 1.374 . S
C422 C419 1.499 . S
C422 C423 1.373 . S
C422 C424 1.389 . S
C423 H402 0.950 . S
C423 C422 1.373 . S
C423 C439 1.377 . S
C424 C422 1.389 . S
C424 C425 1.524 . S
C424 C438 1.377 . S
C425 C424 1.524 . S
C425 C426 1.397 . S
C425 C430 1.363 . S
C426 H403 0.950 . S
C426 C425 1.397 . S
C426 C427 1.334 1_455 S
C427 H404 0.950 . S
C427 C426 1.334 1_655 S
C427 C428 1.287 . S
C428 C427 1.287 . S
C428 C429 1.524 1_655 S
C428 H447 0.913 . S
C429 H405 0.950 . S
C429 C428 1.524 1_455 S
C429 C430 1.415 . S
C430 H406 0.950 . S
C430 C425 1.363 . S
C430 C429 1.415 . S
C431 H407 0.951 . S
C431 C432 1.366 . S
C431 C433 1.388 . S
C432 C431 1.366 . S
C432 C436 1.385 . S
C433 H408 0.951 . S
C433 C431 1.388 . S
C433 C434 1.366 . S
C434 C433 1.366 . S
C434 C435 1.414 . S
C434 C437 1.499 . S
C435 H409 0.950 . S
C435 C434 1.414 . S
C435 C436 1.374 . S
C436 H410 0.950 . S
C436 C432 1.385 . S
C436 C435 1.374 . S
C437 C434 1.499 . S
C437 C438 1.373 . S
C437 C439 1.389 . S
C438 H411 0.950 . S
C438 C424 1.377 . S
C438 C437 1.373 . S
C439 C423 1.377 . S
C439 C437 1.389 . S
C439 C440 1.524 . S
C440 C439 1.524 . S
C440 C441 1.397 . S
C440 C445 1.363 . S
C441 H412 0.950 . S
C441 C440 1.397 . S
C441 C442 1.334 . S
C442 H413 0.950 . S
C442 C441 1.334 . S
C442 C443 1.287 . S
C443 C442 1.287 . S
C443 C444 1.524 . S
C443 H446 0.999 . S
C444 H414 0.950 . S
C444 C443 1.524 . S
C444 C445 1.415 . S
C445 H415 0.950 . S
C445 C440 1.363 . S
C445 C444 1.415 . S
H446 C443 0.999 . S
H447 C428 0.913 . S
H448 C466 0.951 . S
H449 C468 0.951 . S
H450 C470 0.950 . S
H451 C471 0.950 . S
H452 C473 0.950 . S
H453 C476 0.950 . S
H454 C477 0.950 . S
H455 C479 0.950 . S
H456 C480 0.950 . S
H457 C481 0.951 . S
H458 C483 0.951 . S
H459 C485 0.950 . S
H460 C486 0.950 . S
H461 C488 0.950 . S
H462 C491 0.950 . S
H463 C492 0.950 . S
H464 C494 0.950 . S
H465 C495 0.950 . S
C466 H448 0.951 . S
C466 C467 1.366 . S
C466 C468 1.388 . S
C467 C466 1.366 . S
C467 C471 1.385 . S
C468 H449 0.951 . S
C468 C466 1.388 . S
C468 C469 1.366 . S
C469 C468 1.366 . S
C469 C470 1.414 . S
C469 C472 1.499 . S
C470 H450 0.950 . S
C470 C469 1.414 . S
C470 C471 1.374 . S
C471 H451 0.950 . S
C471 C467 1.385 . S
C471 C470 1.374 . S
C472 C469 1.499 . S
C472 C473 1.373 . S
C472 C474 1.389 . S
C473 H452 0.950 . S
C473 C472 1.373 . S
C473 C489 1.377 . S
C474 C472 1.389 . S
C474 C475 1.524 . S
C474 C488 1.377 . S
C475 C474 1.524 . S
C475 C476 1.397 . S
C475 C480 1.363 . S
C476 H453 0.950 . S
C476 C475 1.397 . S
C476 C477 1.334 . S
C477 H454 0.950 . S
C477 C476 1.334 . S
C477 C478 1.287 . S
C478 C477 1.287 . S
C478 C479 1.524 . S
C478 H497 0.913 . S
C479 H455 0.950 . S
C479 C478 1.524 . S
C479 C480 1.415 . S
C480 H456 0.950 . S
C480 C475 1.363 . S
C480 C479 1.415 . S
C481 H457 0.951 . S
C481 C482 1.366 . S
C481 C483 1.388 . S
C482 C481 1.366 . S
C482 C486 1.385 . S
C483 H458 0.951 . S
C483 C481 1.388 . S
C483 C484 1.366 . S
C484 C483 1.366 . S
C484 C485 1.414 . S
C484 C487 1.499 . S
C485 H459 0.950 . S
C485 C484 1.414 . S
C485 C486 1.374 . S
C486 H460 0.950 . S
C486 C482 1.385 . S
C486 C485 1.374 . S
C487 C484 1.499 . S
C487 C488 1.373 . S
C487 C489 1.389 . S
C488 H461 0.950 . S
C488 C474 1.377 . S
C488 C487 1.373 . S
C489 C473 1.377 . S
C489 C487 1.389 . S
C489 C490 1.524 . S
C490 C489 1.524 . S
C490 C491 1.397 . S
C490 C495 1.363 . S
C491 H462 0.950 . S
C491 C490 1.397 . S
C491 C492 1.334 . S
C492 H463 0.950 . S
C492 C491 1.334 . S
C492 C493 1.287 . S
C493 C492 1.287 . S
C493 C494 1.524 . S
C493 H496 0.999 . S
C494 H464 0.950 . S
C494 C493 1.524 . S
C494 C495 1.415 . S
C495 H465 0.950 . S
C495 C490 1.363 . S
C495 C494 1.415 . S
H496 C493 0.999 . S
H497 C478 0.913 . S
H498 C516 0.951 . S
H499 C518 0.951 . S
H500 C520 0.950 . S
H501 C521 0.950 . S
H502 C523 0.950 . S
H503 C526 0.950 . S
H504 C527 0.950 . S
H505 C529 0.950 . S
H506 C530 0.931 1_455 S
H507 C531 0.951 1_565 S
H508 C533 0.951 1_565 S
H509 C535 0.950 . S
H510 C536 0.950 . S
H511 C538 0.950 . S
H512 C541 0.950 1_545 S
H513 C542 0.950 . S
H514 C544 0.950 . S
H515 C545 0.950 1_655 S
C516 H498 0.951 . S
C516 C517 1.366 1_545 S
C516 C518 1.388 . S
C517 C516 1.366 1_565 S
C517 C521 1.385 . S
C518 H499 0.951 . S
C518 C516 1.388 . S
C518 C519 1.366 . S
C519 C518 1.366 . S
C519 C520 1.414 1_545 S
C519 C522 1.499 . S
C520 H500 0.950 . S
C520 C519 1.414 1_565 S
C520 C521 1.374 . S
C521 H501 0.950 . S
C521 C517 1.385 . S
C521 C520 1.374 . S
C522 C519 1.499 . S
C522 C523 1.373 1_545 S
C522 C524 1.389 1_455 S
C523 H502 0.950 . S
C523 C522 1.373 1_565 S
C523 C539 1.390 . S
C524 C522 1.389 1_655 S
C524 C525 1.524 . S
C524 C538 1.377 . S
C525 C524 1.524 . S
C525 C526 1.397 . S
C525 C530 1.363 . S
C526 H503 0.950 . S
C526 C525 1.397 . S
C526 C527 1.334 . S
C527 H504 0.950 . S
C527 C526 1.334 . S
C527 C528 1.287 . S
C528 C527 1.287 . S
C528 C529 1.524 . S
C528 H547 0.913 . S
C529 H505 0.950 . S
C529 C528 1.524 . S
C529 C530 1.415 . S
C530 H506 0.931 1_655 S
C530 C525 1.363 . S
C530 C529 1.415 . S
C531 H507 0.951 1_545 S
C531 C532 1.366 . S
C531 C533 1.388 . S
C532 C531 1.366 . S
C532 C536 1.385 . S
C533 H508 0.951 1_545 S
C533 C531 1.388 . S
C533 C534 1.366 . S
C534 C533 1.366 . S
C534 C535 1.414 . S
C534 C537 1.499 . S
C535 H509 0.950 . S
C535 C534 1.414 . S
C535 C536 1.374 . S
C536 H510 0.950 . S
C536 C532 1.385 . S
C536 C535 1.374 . S
C537 C534 1.499 . S
C537 C538 1.373 . S
C537 C539 1.356 1_645 S
C538 H511 0.950 . S
C538 C524 1.377 . S
C538 C537 1.373 . S
C539 C523 1.390 . S
C539 C537 1.356 1_465 S
C539 C540 1.546 . S
C540 C539 1.546 . S
C540 C541 1.397 . S
C540 C545 1.363 . S
C541 H512 0.950 1_565 S
C541 C540 1.397 . S
C541 C542 1.334 . S
C542 H513 0.950 . S
C542 C541 1.334 . S
C542 C543 1.287 . S
C543 C542 1.287 . S
C543 C544 1.524 . S
C543 H546 0.999 . S
C544 H514 0.950 . S
C544 C543 1.524 . S
C544 C545 1.415 . S
C545 H515 0.950 1_455 S
C545 C540 1.363 . S
C545 C544 1.415 . S
H546 C543 0.999 . S
H547 C528 0.913 . S
H548 C566 0.951 . S
H549 C568 0.951 . S
H550 C570 0.950 . S
H551 C571 0.950 . S
H552 C573 0.950 . S
H553 C576 0.950 . S
H554 C577 0.950 . S
H555 C579 0.950 . S
H556 C580 0.950 . S
H557 C581 0.951 . S
H558 C583 0.951 . S
H559 C585 0.950 . S
H560 C586 0.950 . S
H561 C588 0.950 . S
H562 C591 0.950 . S
H563 C592 0.950 . S
H564 C594 0.950 . S
H565 C595 0.950 . S
C566 H548 0.951 . S
C566 C567 1.366 . S
C566 C568 1.388 . S
C567 C566 1.366 . S
C567 C571 1.385 . S
C568 H549 0.951 . S
C568 C566 1.388 . S
C568 C569 1.366 . S
C569 C568 1.366 . S
C569 C570 1.414 . S
C569 C572 1.499 . S
C570 H550 0.950 . S
C570 C569 1.414 . S
C570 C571 1.374 . S
C571 H551 0.950 . S
C571 C567 1.385 . S
C571 C570 1.374 . S
C572 C569 1.499 . S
C572 C573 1.373 . S
C572 C574 1.389 . S
C573 H552 0.950 . S
C573 C572 1.373 . S
C573 C589 1.377 . S
C574 C572 1.389 . S
C574 C575 1.524 . S
C574 C588 1.377 . S
C575 C574 1.524 . S
C575 C576 1.397 . S
C575 C580 1.363 . S
C576 H553 0.950 . S
C576 C575 1.397 . S
C576 C577 1.334 . S
C577 H554 0.950 . S
C577 C576 1.334 . S
C577 C578 1.287 . S
C578 C577 1.287 . S
C578 C579 1.524 . S
C578 H597 0.913 . S
C579 H555 0.950 . S
C579 C578 1.524 . S
C579 C580 1.415 . S
C580 H556 0.950 . S
C580 C575 1.363 . S
C580 C579 1.415 . S
C581 H557 0.951 . S
C581 C582 1.366 . S
C581 C583 1.388 . S
C582 C581 1.366 . S
C582 C586 1.385 . S
C583 H558 0.951 . S
C583 C581 1.388 . S
C583 C584 1.366 . S
C584 C583 1.366 . S
C584 C585 1.414 . S
C584 C587 1.499 . S
C585 H559 0.950 . S
C585 C584 1.414 . S
C585 C586 1.374 . S
C586 H560 0.950 . S
C586 C582 1.385 . S
C586 C585 1.374 . S
C587 C584 1.499 . S
C587 C588 1.373 . S
C587 C589 1.389 . S
C588 H561 0.950 . S
C588 C574 1.377 . S
C588 C587 1.373 . S
C589 C573 1.377 . S
C589 C587 1.389 . S
C589 C590 1.524 . S
C590 C589 1.524 . S
C590 C591 1.397 . S
C590 C595 1.363 . S
C591 H562 0.950 . S
C591 C590 1.397 . S
C591 C592 1.334 . S
C592 H563 0.950 . S
C592 C591 1.334 . S
C592 C593 1.287 . S
C593 C592 1.287 . S
C593 C594 1.524 . S
C593 H596 0.999 . S
C594 H564 0.950 . S
C594 C593 1.524 . S
C594 C595 1.415 . S
C595 H565 0.950 . S
C595 C590 1.363 . S
C595 C594 1.415 . S
H596 C593 0.999 . S
H597 C578 0.913 . S
H598 C616 0.951 . S
H599 C618 0.951 . S
H600 C620 0.950 . S
H601 C621 0.950 . S
H602 C623 0.950 . S
H603 C626 0.950 . S
H604 C627 0.950 . S
H605 C629 0.950 . S
H606 C630 0.950 . S
H607 C631 0.951 . S
H608 C633 0.951 . S
H609 C635 0.950 . S
H610 C636 0.950 . S
H611 C638 0.950 . S
H612 C641 0.950 . S
H613 C642 0.950 . S
H614 C644 0.950 . S
H615 C645 0.950 . S
C616 H598 0.951 . S
C616 C617 1.366 . S
C616 C618 1.388 . S
C617 C616 1.366 . S
C617 C621 1.385 . S
C618 H599 0.951 . S
C618 C616 1.388 . S
C618 C619 1.366 . S
C619 C618 1.366 . S
C619 C620 1.414 . S
C619 C622 1.499 . S
C620 H600 0.950 . S
C620 C619 1.414 . S
C620 C621 1.374 . S
C621 H601 0.950 . S
C621 C617 1.385 . S
C621 C620 1.374 . S
C622 C619 1.499 . S
C622 C623 1.373 . S
C622 C624 1.389 . S
C623 H602 0.950 . S
C623 C622 1.373 . S
C623 C639 1.377 . S
C624 C622 1.389 . S
C624 C625 1.524 . S
C624 C638 1.377 . S
C625 C624 1.524 . S
C625 C626 1.397 . S
C625 C630 1.363 . S
C626 H603 0.950 . S
C626 C625 1.397 . S
C626 C627 1.334 . S
C627 H604 0.950 . S
C627 C626 1.334 . S
C627 C628 1.287 . S
C628 C627 1.287 . S
C628 C629 1.524 . S
C628 H647 0.913 . S
C629 H605 0.950 . S
C629 C628 1.524 . S
C629 C630 1.415 . S
C630 H606 0.950 . S
C630 C625 1.363 . S
C630 C629 1.415 . S
C631 H607 0.951 . S
C631 C632 1.366 . S
C631 C633 1.388 . S
C632 C631 1.366 . S
C632 C636 1.385 . S
C633 H608 0.951 . S
C633 C631 1.388 . S
C633 C634 1.366 . S
C634 C633 1.366 . S
C634 C635 1.414 . S
C634 C637 1.499 . S
C635 H609 0.950 . S
C635 C634 1.414 . S
C635 C636 1.374 . S
C636 H610 0.950 . S
C636 C632 1.385 . S
C636 C635 1.374 . S
C637 C634 1.499 . S
C637 C638 1.373 . S
C637 C639 1.389 . S
C638 H611 0.950 . S
C638 C624 1.377 . S
C638 C637 1.373 . S
C639 C623 1.377 . S
C639 C637 1.389 . S
C639 C640 1.524 . S
C640 C639 1.524 . S
C640 C641 1.397 . S
C640 C645 1.363 . S
C641 H612 0.950 . S
C641 C640 1.397 . S
C641 C642 1.334 . S
C642 H613 0.950 . S
C642 C641 1.334 . S
C642 C643 1.287 . S
C643 C642 1.287 . S
C643 C644 1.524 . S
C643 H646 0.999 . S
C644 H614 0.950 . S
C644 C643 1.524 . S
C644 C645 1.415 . S
C645 H615 0.950 . S
C645 C640 1.363 . S
C645 C644 1.415 . S
H646 C643 0.999 . S
H647 C628 0.913 . S
H648 C666 0.951 . S
H649 C668 0.951 . S
H650 C670 0.950 . S
H651 C671 0.950 . S
H652 C673 0.950 . S
H653 C676 0.950 . S
H654 C677 0.950 . S
H655 C679 0.950 . S
H656 C680 0.950 . S
H657 C681 0.951 . S
H658 C683 0.951 . S
H659 C685 0.950 . S
H660 C686 0.950 . S
H661 C688 0.950 . S
H662 C691 0.950 . S
H663 C692 0.950 . S
H664 C694 0.950 . S
H665 C695 0.950 . S
C666 H648 0.951 . S
C666 C667 1.366 . S
C666 C668 1.388 . S
C667 C666 1.366 . S
C667 C671 1.385 . S
C668 H649 0.951 . S
C668 C666 1.388 . S
C668 C669 1.366 . S
C669 C668 1.366 . S
C669 C670 1.414 . S
C669 C672 1.499 . S
C670 H650 0.950 . S
C670 C669 1.414 . S
C670 C671 1.374 . S
C671 H651 0.950 . S
C671 C667 1.385 . S
C671 C670 1.374 . S
C672 C669 1.499 . S
C672 C673 1.373 . S
C672 C674 1.389 . S
C673 H652 0.950 . S
C673 C672 1.373 . S
C673 C689 1.377 . S
C674 C672 1.389 . S
C674 C675 1.524 . S
C674 C688 1.377 . S
C675 C674 1.524 . S
C675 C676 1.397 . S
C675 C680 1.363 . S
C676 H653 0.950 . S
C676 C675 1.397 . S
C676 C677 1.334 . S
C677 H654 0.950 . S
C677 C676 1.334 . S
C677 C678 1.287 . S
C678 C677 1.287 . S
C678 C679 1.524 . S
C678 H697 0.913 . S
C679 H655 0.950 . S
C679 C678 1.524 . S
C679 C680 1.415 . S
C680 H656 0.950 . S
C680 C675 1.363 . S
C680 C679 1.415 . S
C681 H657 0.951 . S
C681 C682 1.366 . S
C681 C683 1.388 . S
C682 C681 1.366 . S
C682 C686 1.385 . S
C683 H658 0.951 . S
C683 C681 1.388 . S
C683 C684 1.366 . S
C684 C683 1.366 . S
C684 C685 1.414 . S
C684 C687 1.499 . S
C685 H659 0.950 . S
C685 C684 1.414 . S
C685 C686 1.374 . S
C686 H660 0.950 . S
C686 C682 1.385 . S
C686 C685 1.374 . S
C687 C684 1.499 . S
C687 C688 1.373 . S
C687 C689 1.389 . S
C688 H661 0.950 . S
C688 C674 1.377 . S
C688 C687 1.373 . S
C689 C673 1.377 . S
C689 C687 1.389 . S
C689 C690 1.524 . S
C690 C689 1.524 . S
C690 C691 1.397 . S
C690 C695 1.363 . S
C691 H662 0.950 . S
C691 C690 1.397 . S
C691 C692 1.334 . S
C692 H663 0.950 . S
C692 C691 1.334 . S
C692 C693 1.287 . S
C693 C692 1.287 . S
C693 C694 1.524 . S
C693 H696 0.999 . S
C694 H664 0.950 . S
C694 C693 1.524 . S
C694 C695 1.415 . S
C695 H665 0.950 . S
C695 C690 1.363 . S
C695 C694 1.415 . S
H696 C693 0.999 . S
H697 C678 0.913 . S
H698 C716 0.951 1_545 S
H699 C718 0.957 . S
H700 C720 0.950 . S
H701 C721 0.950 . S
H702 C723 0.950 . S
H703 C726 0.934 1_565 S
H704 C727 0.950 . S
H705 C729 0.950 . S
H706 C730 0.950 . S
H707 C731 0.951 . S
H708 C733 0.951 . S
H709 C735 0.950 . S
H710 C736 0.950 . S
H711 C738 0.950 . S
H712 C741 0.950 . S
H713 C742 0.950 . S
H714 C744 0.950 . S
H715 C745 0.950 . S
C716 H698 0.951 1_565 S
C716 C717 1.366 . S
C716 C718 1.388 1_565 S
C717 C716 1.366 . S
C717 C721 1.385 . S
C718 H699 0.957 . S
C718 C716 1.388 1_545 S
C718 C719 1.359 1_545 S
C719 C718 1.359 1_565 S
C719 C720 1.414 . S
C719 C722 1.499 . S
C720 H700 0.950 . S
C720 C719 1.414 . S
C720 C721 1.374 . S
C721 H701 0.950 . S
C721 C717 1.385 . S
C721 C720 1.374 . S
C722 C719 1.499 . S
C722 C723 1.373 . S
C722 C724 1.389 1_565 S
C723 H702 0.950 . S
C723 C722 1.373 . S
C723 C739 1.377 . S
C724 C722 1.389 1_545 S
C724 C725 1.524 . S
C724 C738 1.377 . S
C725 C724 1.524 . S
C725 C726 1.397 . S
C725 C730 1.363 . S
C726 H703 0.934 1_545 S
C726 C725 1.397 . S
C726 C727 1.334 . S
C727 H704 0.950 . S
C727 C726 1.334 . S
C727 C728 1.287 . S
C728 C727 1.287 . S
C728 C729 1.524 . S
C728 H747 0.913 . S
C729 H705 0.950 . S
C729 C728 1.524 . S
C729 C730 1.415 . S
C730 H706 0.950 . S
C730 C725 1.363 . S
C730 C729 1.415 . S
C731 H707 0.951 . S
C731 C732 1.366 . S
C731 C733 1.388 . S
C732 C731 1.366 . S
C732 C736 1.385 1_565 S
C733 H708 0.951 . S
C733 C731 1.388 . S
C733 C734 1.366 . S
C734 C733 1.366 . S
C734 C735 1.414 1_565 S
C734 C737 1.499 . S
C735 H709 0.950 . S
C735 C734 1.414 1_545 S
C735 C736 1.374 . S
C736 H710 0.950 . S
C736 C732 1.385 1_545 S
C736 C735 1.374 . S
C737 C734 1.499 . S
C737 C738 1.373 1_565 S
C737 C739 1.389 . S
C738 H711 0.950 . S
C738 C724 1.377 . S
C738 C737 1.373 1_545 S
C739 C723 1.377 . S
C739 C737 1.389 . S
C739 C740 1.524 . S
C740 C739 1.524 . S
C740 C741 1.397 . S
C740 C745 1.363 . S
C741 H712 0.950 . S
C741 C740 1.397 . S
C741 C742 1.334 . S
C742 H713 0.950 . S
C742 C741 1.334 . S
C742 C743 1.287 . S
C743 C742 1.287 . S
C743 C744 1.524 . S
C743 H746 0.999 . S
C744 H714 0.950 . S
C744 C743 1.524 . S
C744 C745 1.415 . S
C745 H715 0.950 . S
C745 C740 1.363 . S
C745 C744 1.415 . S
H746 C743 0.999 . S
H747 C728 0.913 . S
H748 C766 0.951 . S
H749 C768 0.951 . S
H750 C770 0.950 . S
H751 C771 0.950 . S
H752 C773 0.950 . S
H753 C776 0.950 . S
H754 C777 0.950 . S
H755 C779 0.950 . S
H756 C780 0.950 . S
H757 C781 0.951 . S
H758 C783 0.951 . S
H759 C785 0.950 . S
H760 C786 0.950 . S
H761 C788 0.950 . S
H762 C791 0.950 . S
H763 C792 0.950 . S
H764 C794 0.950 . S
H765 C795 0.950 . S
C766 H748 0.951 . S
C766 C767 1.366 . S
C766 C768 1.388 . S
C767 C766 1.366 . S
C767 C771 1.385 . S
C768 H749 0.951 . S
C768 C766 1.388 . S
C768 C769 1.366 . S
C769 C768 1.366 . S
C769 C770 1.414 . S
C769 C772 1.499 . S
C770 H750 0.950 . S
C770 C769 1.414 . S
C770 C771 1.374 . S
C771 H751 0.950 . S
C771 C767 1.385 . S
C771 C770 1.374 . S
C772 C769 1.499 . S
C772 C773 1.373 . S
C772 C774 1.389 . S
C773 H752 0.950 . S
C773 C772 1.373 . S
C773 C789 1.377 . S
C774 C772 1.389 . S
C774 C775 1.524 . S
C774 C788 1.377 . S
C775 C774 1.524 . S
C775 C776 1.397 . S
C775 C780 1.363 . S
C776 H753 0.950 . S
C776 C775 1.397 . S
C776 C777 1.334 . S
C777 H754 0.950 . S
C777 C776 1.334 . S
C777 C778 1.287 . S
C778 C777 1.287 . S
C778 C779 1.524 . S
C778 H797 0.913 . S
C779 H755 0.950 . S
C779 C778 1.524 . S
C779 C780 1.415 . S
C780 H756 0.950 . S
C780 C775 1.363 . S
C780 C779 1.415 . S
C781 H757 0.951 . S
C781 C782 1.366 . S
C781 C783 1.388 . S
C782 C781 1.366 . S
C782 C786 1.385 . S
C783 H758 0.951 . S
C783 C781 1.388 . S
C783 C784 1.366 . S
C784 C783 1.366 . S
C784 C785 1.414 . S
C784 C787 1.499 . S
C785 H759 0.950 . S
C785 C784 1.414 . S
C785 C786 1.374 . S
C786 H760 0.950 . S
C786 C782 1.385 . S
C786 C785 1.374 . S
C787 C784 1.499 . S
C787 C788 1.373 . S
C787 C789 1.389 . S
C788 H761 0.950 . S
C788 C774 1.377 . S
C788 C787 1.373 . S
C789 C773 1.377 . S
C789 C787 1.389 . S
C789 C790 1.524 . S
C790 C789 1.524 . S
C790 C791 1.397 . S
C790 C795 1.363 . S
C791 H762 0.950 . S
C791 C790 1.397 . S
C791 C792 1.334 . S
C792 H763 0.950 . S
C792 C791 1.334 . S
C792 C793 1.287 . S
C793 C792 1.287 . S
C793 C794 1.524 . S
C793 H796 0.999 . S
C794 H764 0.950 . S
C794 C793 1.524 . S
C794 C795 1.415 . S
C795 H765 0.950 . S
C795 C790 1.363 . S
C795 C794 1.415 . S
H796 C793 0.999 . S
H797 C778 0.913 . S
H798 C816 0.951 . S
H799 C818 0.951 . S
H800 C820 0.950 . S
H801 C821 0.950 . S
H802 C823 0.950 . S
H803 C826 0.950 . S
H804 C827 0.950 . S
H805 C829 0.950 . S
H806 C830 0.950 . S
H807 C831 0.951 . S
H808 C833 0.951 . S
H809 C835 0.950 . S
H810 C836 0.950 . S
H811 C838 0.950 . S
H812 C841 0.950 . S
H813 C842 0.950 . S
H814 C844 0.950 . S
H815 C845 0.950 . S
C816 H798 0.951 . S
C816 C817 1.366 . S
C816 C818 1.388 . S
C817 C816 1.366 . S
C817 C821 1.385 . S
C818 H799 0.951 . S
C818 C816 1.388 . S
C818 C819 1.366 . S
C819 C818 1.366 . S
C819 C820 1.414 . S
C819 C822 1.499 . S
C820 H800 0.950 . S
C820 C819 1.414 . S
C820 C821 1.374 . S
C821 H801 0.950 . S
C821 C817 1.385 . S
C821 C820 1.374 . S
C822 C819 1.499 . S
C822 C823 1.373 . S
C822 C824 1.389 . S
C823 H802 0.950 . S
C823 C822 1.373 . S
C823 C839 1.377 . S
C824 C822 1.389 . S
C824 C825 1.524 . S
C824 C838 1.377 . S
C825 C824 1.524 . S
C825 C826 1.397 . S
C825 C830 1.363 . S
C826 H803 0.950 . S
C826 C825 1.397 . S
C826 C827 1.334 . S
C827 H804 0.950 . S
C827 C826 1.334 . S
C827 C828 1.287 . S
C828 C827 1.287 . S
C828 C829 1.524 . S
C828 H847 0.913 . S
C829 H805 0.950 . S
C829 C828 1.524 . S
C829 C830 1.415 . S
C830 H806 0.950 . S
C830 C825 1.363 . S
C830 C829 1.415 . S
C831 H807 0.951 . S
C831 C832 1.366 . S
C831 C833 1.388 . S
C832 C831 1.366 . S
C832 C836 1.385 . S
C833 H808 0.951 . S
C833 C831 1.388 . S
C833 C834 1.366 . S
C834 C833 1.366 . S
C834 C835 1.414 . S
C834 C837 1.499 . S
C835 H809 0.950 . S
C835 C834 1.414 . S
C835 C836 1.374 . S
C836 H810 0.950 . S
C836 C832 1.385 . S
C836 C835 1.374 . S
C837 C834 1.499 . S
C837 C838 1.373 . S
C837 C839 1.389 . S
C838 H811 0.950 . S
C838 C824 1.377 . S
C838 C837 1.373 . S
C839 C823 1.377 . S
C839 C837 1.389 . S
C839 C840 1.524 . S
C840 C839 1.524 . S
C840 C841 1.397 . S
C840 C845 1.363 . S
C841 H812 0.950 . S
C841 C840 1.397 . S
C841 C842 1.334 . S
C842 H813 0.950 . S
C842 C841 1.334 . S
C842 C843 1.287 . S
C843 C842 1.287 . S
C843 C844 1.524 . S
C843 H846 0.999 . S
C844 H814 0.950 . S
C844 C843 1.524 . S
C844 C845 1.415 . S
C845 H815 0.950 . S
C845 C840 1.363 . S
C845 C844 1.415 . S
H846 C843 0.999 . S
H847 C828 0.913 . S
H848 C866 0.951 . S
H849 C868 0.951 . S
H850 C870 0.950 . S
H851 C871 0.950 . S
H852 C873 0.950 . S
H853 C876 0.950 . S
H854 C877 0.950 . S
H855 C879 0.950 . S
H856 C880 0.950 . S
H857 C881 0.951 . S
H858 C883 0.951 . S
H859 C885 0.950 . S
H860 C886 0.950 . S
H861 C888 0.950 . S
H862 C891 0.950 . S
H863 C892 0.950 . S
H864 C894 0.950 . S
H865 C895 0.950 . S
C866 H848 0.951 . S
C866 C867 1.366 . S
C866 C868 1.388 . S
C867 C866 1.366 . S
C867 C871 1.385 . S
C868 H849 0.951 . S
C868 C866 1.388 . S
C868 C869 1.366 . S
C869 C868 1.366 . S
C869 C870 1.414 . S
C869 C872 1.499 . S
C870 H850 0.950 . S
C870 C869 1.414 . S
C870 C871 1.374 . S
C871 H851 0.950 . S
C871 C867 1.385 . S
C871 C870 1.374 . S
C872 C869 1.499 . S
C872 C873 1.373 . S
C872 C874 1.389 . S
C873 H852 0.950 . S
C873 C872 1.373 . S
C873 C889 1.377 . S
C874 C872 1.389 . S
C874 C875 1.524 . S
C874 C888 1.377 . S
C875 C874 1.524 . S
C875 C876 1.397 . S
C875 C880 1.363 . S
C876 H853 0.950 . S
C876 C875 1.397 . S
C876 C877 1.334 . S
C877 H854 0.950 . S
C877 C876 1.334 . S
C877 C878 1.287 . S
C878 C877 1.287 . S
C878 C879 1.524 . S
C878 H897 0.913 . S
C879 H855 0.950 . S
C879 C878 1.524 . S
C879 C880 1.415 . S
C880 H856 0.950 . S
C880 C875 1.363 . S
C880 C879 1.415 . S
C881 H857 0.951 . S
C881 C882 1.366 . S
C881 C883 1.388 . S
C882 C881 1.366 . S
C882 C886 1.385 . S
C883 H858 0.951 . S
C883 C881 1.388 . S
C883 C884 1.366 . S
C884 C883 1.366 . S
C884 C885 1.414 . S
C884 C887 1.499 . S
C885 H859 0.950 . S
C885 C884 1.414 . S
C885 C886 1.374 . S
C886 H860 0.950 . S
C886 C882 1.385 . S
C886 C885 1.374 . S
C887 C884 1.499 . S
C887 C888 1.373 . S
C887 C889 1.389 . S
C888 H861 0.950 . S
C888 C874 1.377 . S
C888 C887 1.373 . S
C889 C873 1.377 . S
C889 C887 1.389 . S
C889 C890 1.524 . S
C890 C889 1.524 . S
C890 C891 1.397 . S
C890 C895 1.363 . S
C891 H862 0.950 . S
C891 C890 1.397 . S
C891 C892 1.334 . S
C892 H863 0.950 . S
C892 C891 1.334 . S
C892 C893 1.287 . S
C893 C892 1.287 . S
C893 C894 1.524 . S
C893 H896 0.999 . S
C894 H864 0.950 . S
C894 C893 1.524 . S
C894 C895 1.415 . S
C895 H865 0.950 . S
C895 C890 1.363 . S
C895 C894 1.415 . S
H896 C893 0.999 . S
H897 C878 0.913 . S
H898 C916 0.951 . S
H899 C918 0.951 . S
H900 C920 0.950 . S
H901 C921 0.950 . S
H902 C923 0.950 . S
H903 C926 0.950 . S
H904 C927 0.950 . S
H905 C929 0.950 . S
H906 C930 0.950 . S
H907 C931 0.951 . S
H908 C933 0.951 . S
H909 C935 0.950 . S
H910 C936 0.950 . S
H911 C938 0.950 . S
H912 C941 0.950 . S
H913 C942 0.950 . S
H914 C944 0.950 . S
H915 C945 0.950 . S
C916 H898 0.951 . S
C916 C917 1.366 . S
C916 C918 1.388 . S
C917 C916 1.366 . S
C917 C921 1.385 . S
C918 H899 0.951 . S
C918 C916 1.388 . S
C918 C919 1.366 . S
C919 C918 1.366 . S
C919 C920 1.414 . S
C919 C922 1.499 . S
C920 H900 0.950 . S
C920 C919 1.414 . S
C920 C921 1.374 . S
C921 H901 0.950 . S
C921 C917 1.385 . S
C921 C920 1.374 . S
C922 C919 1.499 . S
C922 C923 1.373 . S
C922 C924 1.389 . S
C923 H902 0.950 . S
C923 C922 1.373 . S
C923 C939 1.377 . S
C924 C922 1.389 . S
C924 C925 1.524 . S
C924 C938 1.377 . S
C925 C924 1.524 . S
C925 C926 1.397 . S
C925 C930 1.363 . S
C926 H903 0.950 . S
C926 C925 1.397 . S
C926 C927 1.334 . S
C927 H904 0.950 . S
C927 C926 1.334 . S
C927 C928 1.287 . S
C928 C927 1.287 . S
C928 C929 1.524 . S
C928 H947 0.913 . S
C929 H905 0.950 . S
C929 C928 1.524 . S
C929 C930 1.415 . S
C930 H906 0.950 . S
C930 C925 1.363 . S
C930 C929 1.415 . S
C931 H907 0.951 . S
C931 C932 1.366 . S
C931 C933 1.388 . S
C932 C931 1.366 . S
C932 C936 1.385 . S
C933 H908 0.951 . S
C933 C931 1.388 . S
C933 C934 1.366 . S
C934 C933 1.366 . S
C934 C935 1.414 . S
C934 C937 1.499 . S
C935 H909 0.950 . S
C935 C934 1.414 . S
C935 C936 1.374 . S
C936 H910 0.950 . S
C936 C932 1.385 . S
C936 C935 1.374 . S
C937 C934 1.499 . S
C937 C938 1.373 . S
C937 C939 1.389 . S
C938 H911 0.950 . S
C938 C924 1.377 . S
C938 C937 1.373 . S
C939 C923 1.377 . S
C939 C937 1.389 . S
C939 C940 1.524 . S
C940 C939 1.524 . S
C940 C941 1.397 . S
C940 C945 1.363 . S
C941 H912 0.950 . S
C941 C940 1.397 . S
C941 C942 1.334 . S
C942 H913 0.950 . S
C942 C941 1.334 . S
C942 C943 1.287 . S
C943 C942 1.287 . S
C943 C944 1.524 . S
C943 H946 0.999 . S
C944 H914 0.950 . S
C944 C943 1.524 . S
C944 C945 1.415 . S
C945 H915 0.950 . S
C945 C940 1.363 . S
C945 C944 1.415 . S
H946 C943 0.999 . S
H947 C928 0.913 . S
H948 C966 0.951 . S
H949 C968 0.951 . S
H950 C970 0.950 . S
H951 C971 0.950 . S
H952 C973 0.950 . S
H953 C976 0.950 . S
H954 C977 0.950 . S
H955 C979 0.950 . S
H956 C980 0.950 . S
H957 C981 0.951 . S
H958 C983 0.951 . S
H959 C985 0.950 . S
H960 C986 0.950 . S
H961 C988 0.950 . S
H962 C991 0.950 . S
H963 C992 0.950 . S
H964 C994 0.950 . S
H965 C995 0.950 . S
C966 H948 0.951 . S
C966 C967 1.366 . S
C966 C968 1.388 . S
C967 C966 1.366 . S
C967 C971 1.385 . S
C968 H949 0.951 . S
C968 C966 1.388 . S
C968 C969 1.366 . S
C969 C968 1.366 . S
C969 C970 1.414 . S
C969 C972 1.499 . S
C970 H950 0.950 . S
C970 C969 1.414 . S
C970 C971 1.374 . S
C971 H951 0.950 . S
C971 C967 1.385 . S
C971 C970 1.374 . S
C972 C969 1.499 . S
C972 C973 1.373 . S
C972 C974 1.389 . S
C973 H952 0.950 . S
C973 C972 1.373 . S
C973 C989 1.377 . S
C974 C972 1.389 . S
C974 C975 1.524 . S
C974 C988 1.377 . S
C975 C974 1.524 . S
C975 C976 1.397 . S
C975 C980 1.363 . S
C976 H953 0.950 . S
C976 C975 1.397 . S
C976 C977 1.334 . S
C977 H954 0.950 . S
C977 C976 1.334 . S
C977 C978 1.287 . S
C978 C977 1.287 . S
C978 C979 1.524 . S
C978 H997 0.913 . S
C979 H955 0.950 . S
C979 C978 1.524 . S
C979 C980 1.415 . S
C980 H956 0.950 . S
C980 C975 1.363 . S
C980 C979 1.415 . S
C981 H957 0.951 . S
C981 C982 1.366 . S
C981 C983 1.388 . S
C982 C981 1.366 . S
C982 C986 1.385 . S
C983 H958 0.951 . S
C983 C981 1.388 . S
C983 C984 1.366 . S
C984 C983 1.366 . S
C984 C985 1.414 . S
C984 C987 1.499 . S
C985 H959 0.950 . S
C985 C984 1.414 . S
C985 C986 1.374 . S
C986 H960 0.950 . S
C986 C982 1.385 . S
C986 C985 1.374 . S
C987 C984 1.499 . S
C987 C988 1.373 . S
C987 C989 1.389 . S
C988 H961 0.950 . S
C988 C974 1.377 . S
C988 C987 1.373 . S
C989 C973 1.377 . S
C989 C987 1.389 . S
C989 C990 1.524 . S
C990 C989 1.524 . S
C990 C991 1.397 . S
C990 C995 1.363 . S
C991 H962 0.950 . S
C991 C990 1.397 . S
C991 C992 1.334 . S
C992 H963 0.950 . S
C992 C991 1.334 . S
C992 C993 1.287 . S
C993 C992 1.287 . S
C993 C994 1.524 . S
C993 H996 0.999 . S
C994 H964 0.950 . S
C994 C993 1.524 . S
C994 C995 1.415 . S
C995 H965 0.950 . S
C995 C990 1.363 . S
C995 C994 1.415 . S
H996 C993 0.999 . S
H997 C978 0.913 . S
H998 C1016 0.951 . S
H999 C1018 0.951 . S
H1000 C1020 0.950 . S
H1001 C1021 0.950 . S
H1002 C1023 0.950 . S
H1003 C1026 0.950 . S
H1004 C1027 0.950 . S
H1005 C1029 0.950 . S
H1006 C1030 0.950 . S
H1007 C1031 0.951 . S
H1008 C1033 0.951 . S
H1009 C1035 0.950 . S
H1010 C1036 0.950 . S
H1011 C1038 0.950 . S
H1012 C1041 0.950 . S
H1013 C1042 0.950 . S
H1014 C1044 0.950 . S
H1015 C1045 0.950 . S
C1016 H998 0.951 . S
C1016 C1017 1.366 . S
C1016 C1018 1.388 . S
C1017 C1016 1.366 . S
C1017 C1021 1.385 . S
C1018 H999 0.951 . S
C1018 C1016 1.388 . S
C1018 C1019 1.366 . S
C1019 C1018 1.366 . S
C1019 C1020 1.414 . S
C1019 C1022 1.499 . S
C1020 H1000 0.950 . S
C1020 C1019 1.414 . S
C1020 C1021 1.374 . S
C1021 H1001 0.950 . S
C1021 C1017 1.385 . S
C1021 C1020 1.374 . S
C1022 C1019 1.499 . S
C1022 C1023 1.373 . S
C1022 C1024 1.389 . S
C1023 H1002 0.950 . S
C1023 C1022 1.373 . S
C1023 C1039 1.377 . S
C1024 C1022 1.389 . S
C1024 C1025 1.524 . S
C1024 C1038 1.377 . S
C1025 C1024 1.524 . S
C1025 C1026 1.397 . S
C1025 C1030 1.363 . S
C1026 H1003 0.950 . S
C1026 C1025 1.397 . S
C1026 C1027 1.334 1_455 S
C1027 H1004 0.950 . S
C1027 C1026 1.334 1_655 S
C1027 C1028 1.287 . S
C1028 C1027 1.287 . S
C1028 C1029 1.524 . S
C1028 H1047 0.913 . S
C1029 H1005 0.950 . S
C1029 C1028 1.524 . S
C1029 C1030 1.415 1_655 S
C1030 H1006 0.950 . S
C1030 C1025 1.363 . S
C1030 C1029 1.415 1_455 S
C1031 H1007 0.951 . S
C1031 C1032 1.366 . S
C1031 C1033 1.388 . S
C1032 C1031 1.366 . S
C1032 C1036 1.385 . S
C1033 H1008 0.951 . S
C1033 C1031 1.388 . S
C1033 C1034 1.366 . S
C1034 C1033 1.366 . S
C1034 C1035 1.414 . S
C1034 C1037 1.499 . S
C1035 H1009 0.950 . S
C1035 C1034 1.414 . S
C1035 C1036 1.374 . S
C1036 H1010 0.950 . S
C1036 C1032 1.385 . S
C1036 C1035 1.374 . S
C1037 C1034 1.499 . S
C1037 C1038 1.373 . S
C1037 C1039 1.389 . S
C1038 H1011 0.950 . S
C1038 C1024 1.377 . S
C1038 C1037 1.373 . S
C1039 C1023 1.377 . S
C1039 C1037 1.389 . S
C1039 C1040 1.524 . S
C1040 C1039 1.524 . S
C1040 C1041 1.397 . S
C1040 C1045 1.363 . S
C1041 H1012 0.950 . S
C1041 C1040 1.397 . S
C1041 C1042 1.334 . S
C1042 H1013 0.950 . S
C1042 C1041 1.334 . S
C1042 C1043 1.287 . S
C1043 C1042 1.287 . S
C1043 C1044 1.524 . S
C1043 H1046 0.999 . S
C1044 H1014 0.950 . S
C1044 C1043 1.524 . S
C1044 C1045 1.415 . S
C1045 H1015 0.950 . S
C1045 C1040 1.363 . S
C1045 C1044 1.415 . S
H1046 C1043 0.999 . S
H1047 C1028 0.913 . S
H1048 C1066 0.951 . S
H1049 C1068 0.951 . S
H1050 C1070 0.950 . S
H1051 C1071 0.950 . S
H1052 C1073 0.950 . S
H1053 C1076 0.950 . S
H1054 C1077 0.950 . S
H1055 C1079 0.950 . S
H1056 C1080 0.950 . S
H1057 C1081 0.951 . S
H1058 C1083 0.951 . S
H1059 C1085 0.950 . S
H1060 C1086 0.950 . S
H1061 C1088 0.950 . S
H1062 C1091 0.950 . S
H1063 C1092 0.950 . S
H1064 C1094 0.950 . S
H1065 C1095 0.950 . S
C1066 H1048 0.951 . S
C1066 C1067 1.366 . S
C1066 C1068 1.388 . S
C1067 C1066 1.366 . S
C1067 C1071 1.385 . S
C1068 H1049 0.951 . S
C1068 C1066 1.388 . S
C1068 C1069 1.366 . S
C1069 C1068 1.366 . S
C1069 C1070 1.414 . S
C1069 C1072 1.499 . S
C1070 H1050 0.950 . S
C1070 C1069 1.414 . S
C1070 C1071 1.374 . S
C1071 H1051 0.950 . S
C1071 C1067 1.385 . S
C1071 C1070 1.374 . S
C1072 C1069 1.499 . S
C1072 C1073 1.373 . S
C1072 C1074 1.389 . S
C1073 H1052 0.950 . S
C1073 C1072 1.373 . S
C1073 C1089 1.377 . S
C1074 C1072 1.389 . S
C1074 C1075 1.524 . S
C1074 C1088 1.377 . S
C1075 C1074 1.524 . S
C1075 C1076 1.397 . S
C1075 C1080 1.363 . S
C1076 H1053 0.950 . S
C1076 C1075 1.397 . S
C1076 C1077 1.334 . S
C1077 H1054 0.950 . S
C1077 C1076 1.334 . S
C1077 C1078 1.287 . S
C1078 C1077 1.287 . S
C1078 C1079 1.524 . S
C1078 H1097 0.913 . S
C1079 H1055 0.950 . S
C1079 C1078 1.524 . S
C1079 C1080 1.415 . S
C1080 H1056 0.950 . S
C1080 C1075 1.363 . S
C1080 C1079 1.415 . S
C1081 H1057 0.951 . S
C1081 C1082 1.366 . S
C1081 C1083 1.388 . S
C1082 C1081 1.366 . S
C1082 C1086 1.385 . S
C1083 H1058 0.951 . S
C1083 C1081 1.388 . S
C1083 C1084 1.366 . S
C1084 C1083 1.366 . S
C1084 C1085 1.414 . S
C1084 C1087 1.499 . S
C1085 H1059 0.950 . S
C1085 C1084 1.414 . S
C1085 C1086 1.374 . S
C1086 H1060 0.950 . S
C1086 C1082 1.385 . S
C1086 C1085 1.374 . S
C1087 C1084 1.499 . S
C1087 C1088 1.373 . S
C1087 C1089 1.389 . S
C1088 H1061 0.950 . S
C1088 C1074 1.377 . S
C1088 C1087 1.373 . S
C1089 C1073 1.377 . S
C1089 C1087 1.389 . S
C1089 C1090 1.524 . S
C1090 C1089 1.524 . S
C1090 C1091 1.397 . S
C1090 C1095 1.363 . S
C1091 H1062 0.950 . S
C1091 C1090 1.397 . S
C1091 C1092 1.334 . S
C1092 H1063 0.950 . S
C1092 C1091 1.334 . S
C1092 C1093 1.287 . S
C1093 C1092 1.287 . S
C1093 C1094 1.524 . S
C1093 H1096 0.999 . S
C1094 H1064 0.950 . S
C1094 C1093 1.524 . S
C1094 C1095 1.415 . S
C1095 H1065 0.950 . S
C1095 C1090 1.363 . S
C1095 C1094 1.415 . S
H1096 C1093 0.999 . S
H1097 C1078 0.913 . S
H1098 C1116 0.951 . S
H1099 C1118 0.951 . S
H1100 C1120 0.950 . S
H1101 C1121 0.950 . S
H1102 C1123 0.950 . S
H1103 C1126 0.950 . S
H1104 C1127 0.950 . S
H1105 C1129 0.950 . S
H1106 C1130 0.950 . S
H1107 C1131 0.951 . S
H1108 C1133 0.951 . S
H1109 C1135 0.950 . S
H1110 C1136 0.950 . S
H1111 C1138 0.950 . S
H1112 C1141 0.950 . S
H1113 C1142 0.950 . S
H1114 C1144 0.950 . S
H1115 C1145 0.950 . S
C1116 H1098 0.951 . S
C1116 C1117 1.366 . S
C1116 C1118 1.388 . S
C1117 C1116 1.366 . S
C1117 C1121 1.385 1_655 S
C1118 H1099 0.951 . S
C1118 C1116 1.388 . S
C1118 C1119 1.366 . S
C1119 C1118 1.366 . S
C1119 C1120 1.414 1_655 S
C1119 C1122 1.499 . S
C1120 H1100 0.950 . S
C1120 C1119 1.414 1_455 S
C1120 C1121 1.374 . S
C1121 H1101 0.950 . S
C1121 C1117 1.385 1_455 S
C1121 C1120 1.374 . S
C1122 C1119 1.499 . S
C1122 C1123 1.373 1_655 S
C1122 C1124 1.389 . S
C1123 H1102 0.950 . S
C1123 C1122 1.373 1_455 S
C1123 C1139 1.377 . S
C1124 C1122 1.389 . S
C1124 C1125 1.524 . S
C1124 C1138 1.377 . S
C1125 C1124 1.524 . S
C1125 C1126 1.397 . S
C1125 C1130 1.363 . S
C1126 H1103 0.950 . S
C1126 C1125 1.397 . S
C1126 C1127 1.334 . S
C1127 H1104 0.950 . S
C1127 C1126 1.334 . S
C1127 C1128 1.287 . S
C1128 C1127 1.287 . S
C1128 C1129 1.524 . S
C1128 H1147 0.913 . S
C1129 H1105 0.950 . S
C1129 C1128 1.524 . S
C1129 C1130 1.415 . S
C1130 H1106 0.950 . S
C1130 C1125 1.363 . S
C1130 C1129 1.415 . S
C1131 H1107 0.951 . S
C1131 C1132 1.366 . S
C1131 C1133 1.388 . S
C1132 C1131 1.366 . S
C1132 C1136 1.385 1_455 S
C1133 H1108 0.951 . S
C1133 C1131 1.388 . S
C1133 C1134 1.356 1_455 S
C1134 C1133 1.356 1_655 S
C1134 C1135 1.424 . S
C1134 C1137 1.499 . S
C1135 H1109 0.950 . S
C1135 C1134 1.424 . S
C1135 C1136 1.374 . S
C1136 H1110 0.950 . S
C1136 C1132 1.385 1_655 S
C1136 C1135 1.374 . S
C1137 C1134 1.499 . S
C1137 C1138 1.373 . S
C1137 C1139 1.389 1_655 S
C1138 H1111 0.950 . S
C1138 C1124 1.377 . S
C1138 C1137 1.373 . S
C1139 C1123 1.377 . S
C1139 C1137 1.389 1_455 S
C1139 C1140 1.524 . S
C1140 C1139 1.524 . S
C1140 C1141 1.397 . S
C1140 C1145 1.363 . S
C1141 H1112 0.950 . S
C1141 C1140 1.397 . S
C1141 C1142 1.334 . S
C1142 H1113 0.950 . S
C1142 C1141 1.334 . S
C1142 C1143 1.287 . S
C1143 C1142 1.287 . S
C1143 C1144 1.524 . S
C1143 H1146 0.999 . S
C1144 H1114 0.950 . S
C1144 C1143 1.524 . S
C1144 C1145 1.415 . S
C1145 H1115 0.950 . S
C1145 C1140 1.363 . S
C1145 C1144 1.415 . S
H1146 C1143 0.999 . S
H1147 C1128 0.913 . S
H1148 C1166 0.951 . S
H1149 C1168 0.951 . S
H1150 C1170 0.950 . S
H1151 C1171 0.950 . S
H1152 C1173 0.950 . S
H1153 C1176 0.950 . S
H1154 C1177 0.950 . S
H1155 C1179 0.950 . S
H1156 C1180 0.950 . S
H1157 C1181 0.951 1_545 S
H1158 C1183 0.951 . S
H1159 C1185 0.950 . S
H1160 C1186 0.950 . S
H1161 C1188 0.950 . S
H1162 C1191 0.950 . S
H1163 C1192 0.950 . S
H1164 C1194 0.950 . S
H1165 C1195 0.950 . S
C1166 H1148 0.951 . S
C1166 C1167 1.366 . S
C1166 C1168 1.388 . S
C1167 C1166 1.366 . S
C1167 C1171 1.385 . S
C1168 H1149 0.951 . S
C1168 C1166 1.388 . S
C1168 C1169 1.366 . S
C1169 C1168 1.366 . S
C1169 C1170 1.414 . S
C1169 C1172 1.499 . S
C1170 H1150 0.950 . S
C1170 C1169 1.414 . S
C1170 C1171 1.374 . S
C1171 H1151 0.950 . S
C1171 C1167 1.385 . S
C1171 C1170 1.374 . S
C1172 C1169 1.499 . S
C1172 C1173 1.373 . S
C1172 C1174 1.389 . S
C1173 H1152 0.950 . S
C1173 C1172 1.373 . S
C1173 C1189 1.377 . S
C1174 C1172 1.389 . S
C1174 C1175 1.524 . S
C1174 C1188 1.377 . S
C1175 C1174 1.524 . S
C1175 C1176 1.397 . S
C1175 C1180 1.363 . S
C1176 H1153 0.950 . S
C1176 C1175 1.397 . S
C1176 C1177 1.334 . S
C1177 H1154 0.950 . S
C1177 C1176 1.334 . S
C1177 C1178 1.287 . S
C1178 C1177 1.287 . S
C1178 C1179 1.524 . S
C1178 H1197 0.913 . S
C1179 H1155 0.950 . S
C1179 C1178 1.524 . S
C1179 C1180 1.415 . S
C1180 H1156 0.950 . S
C1180 C1175 1.363 . S
C1180 C1179 1.415 . S
C1181 H1157 0.951 1_565 S
C1181 C1182 1.366 . S
C1181 C1183 1.388 . S
C1182 C1181 1.366 . S
C1182 C1186 1.385 . S
C1183 H1158 0.951 . S
C1183 C1181 1.388 . S
C1183 C1184 1.366 . S
C1184 C1183 1.366 . S
C1184 C1185 1.414 . S
C1184 C1187 1.499 . S
C1185 H1159 0.950 . S
C1185 C1184 1.414 . S
C1185 C1186 1.374 . S
C1186 H1160 0.950 . S
C1186 C1182 1.385 . S
C1186 C1185 1.374 . S
C1187 C1184 1.499 . S
C1187 C1188 1.373 . S
C1187 C1189 1.389 . S
C1188 H1161 0.950 . S
C1188 C1174 1.377 . S
C1188 C1187 1.373 . S
C1189 C1173 1.377 . S
C1189 C1187 1.389 . S
C1189 C1190 1.524 . S
C1190 C1189 1.524 . S
C1190 C1191 1.397 . S
C1190 C1195 1.363 . S
C1191 H1162 0.950 . S
C1191 C1190 1.397 . S
C1191 C1192 1.334 . S
C1192 H1163 0.950 . S
C1192 C1191 1.334 . S
C1192 C1193 1.287 . S
C1193 C1192 1.287 . S
C1193 C1194 1.524 . S
C1193 H1196 0.999 . S
C1194 H1164 0.950 . S
C1194 C1193 1.524 . S
C1194 C1195 1.415 . S
C1195 H1165 0.950 . S
C1195 C1190 1.363 . S
C1195 C1194 1.415 . S
H1196 C1193 0.999 . S
H1197 C1178 0.913 . S
H1198 C1216 0.951 . S
H1199 C1218 0.951 . S
H1200 C1220 0.950 . S
H1201 C1221 0.950 . S
H1202 C1223 0.950 . S
H1203 C1226 0.950 . S
H1204 C1227 0.950 . S
H1205 C1229 0.950 . S
H1206 C1230 0.950 . S
H1207 C1231 0.951 . S
H1208 C1233 0.951 . S
H1209 C1235 0.950 . S
H1210 C1236 0.950 . S
H1211 C1238 0.950 . S
H1212 C1241 0.950 . S
H1213 C1242 0.950 . S
H1214 C1244 0.950 . S
H1215 C1245 0.950 . S
C1216 H1198 0.951 . S
C1216 C1217 1.366 . S
C1216 C1218 1.388 . S
C1217 C1216 1.366 . S
C1217 C1221 1.385 . S
C1218 H1199 0.951 . S
C1218 C1216 1.388 . S
C1218 C1219 1.366 . S
C1219 C1218 1.366 . S
C1219 C1220 1.414 . S
C1219 C1222 1.499 . S
C1220 H1200 0.950 . S
C1220 C1219 1.414 . S
C1220 C1221 1.374 . S
C1221 H1201 0.950 . S
C1221 C1217 1.385 . S
C1221 C1220 1.374 . S
C1222 C1219 1.499 . S
C1222 C1223 1.373 . S
C1222 C1224 1.389 . S
C1223 H1202 0.950 . S
C1223 C1222 1.373 . S
C1223 C1239 1.377 . S
C1224 C1222 1.389 . S
C1224 C1225 1.524 . S
C1224 C1238 1.377 . S
C1225 C1224 1.524 . S
C1225 C1226 1.397 . S
C1225 C1230 1.363 . S
C1226 H1203 0.950 . S
C1226 C1225 1.397 . S
C1226 C1227 1.334 . S
C1227 H1204 0.950 . S
C1227 C1226 1.334 . S
C1227 C1228 1.287 . S
C1228 C1227 1.287 . S
C1228 C1229 1.524 . S
C1228 H1247 0.913 . S
C1229 H1205 0.950 . S
C1229 C1228 1.524 . S
C1229 C1230 1.415 . S
C1230 H1206 0.950 . S
C1230 C1225 1.363 . S
C1230 C1229 1.415 . S
C1231 H1207 0.951 . S
C1231 C1232 1.366 . S
C1231 C1233 1.388 . S
C1232 C1231 1.366 . S
C1232 C1236 1.385 . S
C1233 H1208 0.951 . S
C1233 C1231 1.388 . S
C1233 C1234 1.366 . S
C1234 C1233 1.366 . S
C1234 C1235 1.414 . S
C1234 C1237 1.499 . S
C1235 H1209 0.950 . S
C1235 C1234 1.414 . S
C1235 C1236 1.374 . S
C1236 H1210 0.950 . S
C1236 C1232 1.385 . S
C1236 C1235 1.374 . S
C1237 C1234 1.499 . S
C1237 C1238 1.373 . S
C1237 C1239 1.389 . S
C1238 H1211 0.950 . S
C1238 C1224 1.377 . S
C1238 C1237 1.373 . S
C1239 C1223 1.377 . S
C1239 C1237 1.389 . S
C1239 C1240 1.524 . S
C1240 C1239 1.524 . S
C1240 C1241 1.397 . S
C1240 C1245 1.363 . S
C1241 H1212 0.950 . S
C1241 C1240 1.397 . S
C1241 C1242 1.334 . S
C1242 H1213 0.950 . S
C1242 C1241 1.334 . S
C1242 C1243 1.287 . S
C1243 C1242 1.287 . S
C1243 C1244 1.524 . S
C1243 H1246 0.999 . S
C1244 H1214 0.950 . S
C1244 C1243 1.524 . S
C1244 C1245 1.415 . S
C1245 H1215 0.950 . S
C1245 C1240 1.363 . S
C1245 C1244 1.415 . S
H1246 C1243 0.999 . S
H1247 C1228 0.913 . S
H1248 C1266 0.951 . S
H1249 C1268 0.951 . S
H1250 C1270 0.950 . S
H1251 C1271 0.949 1_565 S
H1252 C1273 0.950 . S
H1253 C1276 0.950 . S
H1254 C1277 0.950 . S
H1255 C1279 0.944 1_556 S
H1256 C1280 0.950 . S
H1257 C1281 0.951 . S
H1258 C1283 0.951 . S
H1259 C1285 0.950 . S
H1260 C1286 0.950 1_556 S
H1261 C1288 0.950 1_554 S
H1262 C1291 0.950 . S
H1263 C1292 0.950 . S
H1264 C1294 0.950 . S
H1265 C1295 0.950 . S
C1266 H1248 0.951 . S
C1266 C1267 1.366 . S
C1266 C1268 1.388 . S
C1267 C1266 1.366 . S
C1267 C1271 1.386 . S
C1268 H1249 0.951 . S
C1268 C1266 1.388 . S
C1268 C1269 1.366 1_545 S
C1269 C1268 1.366 1_565 S
C1269 C1270 1.414 . S
C1269 C1272 1.499 . S
C1270 H1250 0.950 . S
C1270 C1269 1.414 . S
C1270 C1271 1.373 1_565 S
C1271 H1251 0.949 1_545 S
C1271 C1267 1.386 . S
C1271 C1270 1.373 1_545 S
C1272 C1269 1.499 . S
C1272 C1273 1.373 . S
C1272 C1274 1.389 . S
C1273 H1252 0.950 . S
C1273 C1272 1.373 . S
C1273 C1289 1.377 . S
C1274 C1272 1.389 . S
C1274 C1275 1.521 1_566 S
C1274 C1288 1.377 . S
C1275 C1274 1.521 1_544 S
C1275 C1276 1.409 . S
C1275 C1280 1.356 1_554 S
C1276 H1253 0.950 . S
C1276 C1275 1.409 . S
C1276 C1277 1.334 . S
C1277 H1254 0.950 . S
C1277 C1276 1.334 . S
C1277 C1278 1.287 . S
C1278 C1277 1.287 . S
C1278 C1279 1.535 . S
C1278 H1297 0.913 . S
C1279 H1255 0.944 1_554 S
C1279 C1278 1.535 . S
C1279 C1280 1.411 1_554 S
C1280 H1256 0.950 . S
C1280 C1275 1.356 1_556 S
C1280 C1279 1.411 1_556 S
C1281 H1257 0.951 . S
C1281 C1282 1.366 . S
C1281 C1283 1.388 . S
C1282 C1281 1.366 . S
C1282 C1286 1.385 . S
C1283 H1258 0.951 . S
C1283 C1281 1.388 . S
C1283 C1284 1.366 . S
C1284 C1283 1.366 . S
C1284 C1285 1.414 1_554 S
C1284 C1287 1.499 1_554 S
C1285 H1259 0.950 . S
C1285 C1284 1.414 1_556 S
C1285 C1286 1.374 1_556 S
C1286 H1260 0.950 1_554 S
C1286 C1282 1.385 . S
C1286 C1285 1.374 1_554 S
C1287 C1284 1.499 1_556 S
C1287 C1288 1.373 . S
C1287 C1289 1.389 . S
C1288 H1261 0.950 1_556 S
C1288 C1274 1.377 . S
C1288 C1287 1.373 . S
C1289 C1273 1.377 . S
C1289 C1287 1.389 . S
C1289 C1290 1.524 . S
C1290 C1289 1.524 . S
C1290 C1291 1.397 . S
C1290 C1295 1.363 . S
C1291 H1262 0.950 . S
C1291 C1290 1.397 . S
C1291 C1292 1.334 . S
C1292 H1263 0.950 . S
C1292 C1291 1.334 . S
C1292 C1293 1.287 . S
C1293 C1292 1.287 . S
C1293 C1294 1.524 . S
C1293 H1296 0.999 . S
C1294 H1264 0.950 . S
C1294 C1293 1.524 . S
C1294 C1295 1.415 . S
C1295 H1265 0.950 . S
C1295 C1290 1.363 . S
C1295 C1294 1.415 . S
H1296 C1293 0.999 . S
H1297 C1278 0.913 . S
H1298 C1316 0.951 . S
H1299 C1318 0.951 . S
H1300 C1320 0.950 . S
H1301 C1321 0.950 . S
H1302 C1323 0.950 . S
H1303 C1326 0.950 . S
H1304 C1327 0.950 . S
H1305 C1329 0.950 . S
H1306 C1330 0.950 . S
H1307 C1331 0.951 . S
H1308 C1333 0.951 . S
H1309 C1335 0.950 . S
H1310 C1336 0.950 . S
H1311 C1338 0.950 . S
H1312 C1341 0.950 . S
H1313 C1342 0.950 . S
H1314 C1344 0.950 . S
H1315 C1345 0.950 . S
C1316 H1298 0.951 . S
C1316 C1317 1.366 . S
C1316 C1318 1.388 . S
C1317 C1316 1.366 . S
C1317 C1321 1.385 . S
C1318 H1299 0.951 . S
C1318 C1316 1.388 . S
C1318 C1319 1.366 . S
C1319 C1318 1.366 . S
C1319 C1320 1.414 . S
C1319 C1322 1.499 . S
C1320 H1300 0.950 . S
C1320 C1319 1.414 . S
C1320 C1321 1.374 . S
C1321 H1301 0.950 . S
C1321 C1317 1.385 . S
C1321 C1320 1.374 . S
C1322 C1319 1.499 . S
C1322 C1323 1.373 . S
C1322 C1324 1.389 . S
C1323 H1302 0.950 . S
C1323 C1322 1.373 . S
C1323 C1339 1.377 . S
C1324 C1322 1.389 . S
C1324 C1325 1.524 . S
C1324 C1338 1.377 . S
C1325 C1324 1.524 . S
C1325 C1326 1.397 . S
C1325 C1330 1.363 . S
C1326 H1303 0.950 . S
C1326 C1325 1.397 . S
C1326 C1327 1.334 . S
C1327 H1304 0.950 . S
C1327 C1326 1.334 . S
C1327 C1328 1.287 . S
C1328 C1327 1.287 . S
C1328 C1329 1.524 . S
C1328 H1347 0.913 . S
C1329 H1305 0.950 . S
C1329 C1328 1.524 . S
C1329 C1330 1.415 . S
C1330 H1306 0.950 . S
C1330 C1325 1.363 . S
C1330 C1329 1.415 . S
C1331 H1307 0.951 . S
C1331 C1332 1.366 . S
C1331 C1333 1.388 . S
C1332 C1331 1.366 . S
C1332 C1336 1.385 . S
C1333 H1308 0.951 . S
C1333 C1331 1.388 . S
C1333 C1334 1.366 . S
C1334 C1333 1.366 . S
C1334 C1335 1.414 . S
C1334 C1337 1.499 . S
C1335 H1309 0.950 . S
C1335 C1334 1.414 . S
C1335 C1336 1.374 . S
C1336 H1310 0.950 . S
C1336 C1332 1.385 . S
C1336 C1335 1.374 . S
C1337 C1334 1.499 . S
C1337 C1338 1.373 . S
C1337 C1339 1.389 . S
C1338 H1311 0.950 . S
C1338 C1324 1.377 . S
C1338 C1337 1.373 . S
C1339 C1323 1.377 . S
C1339 C1337 1.389 . S
C1339 C1340 1.524 . S
C1340 C1339 1.524 . S
C1340 C1341 1.397 . S
C1340 C1345 1.363 . S
C1341 H1312 0.950 . S
C1341 C1340 1.397 . S
C1341 C1342 1.334 . S
C1342 H1313 0.950 . S
C1342 C1341 1.334 . S
C1342 C1343 1.287 . S
C1343 C1342 1.287 . S
C1343 C1344 1.524 . S
C1343 H1346 0.999 . S
C1344 H1314 0.950 . S
C1344 C1343 1.524 . S
C1344 C1345 1.415 . S
C1345 H1315 0.950 . S
C1345 C1340 1.363 . S
C1345 C1344 1.415 . S
H1346 C1343 0.999 . S
H1347 C1328 0.913 . S
H1348 C1366 0.951 . S
H1349 C1368 0.951 . S
H1350 C1370 0.950 . S
H1351 C1371 0.950 . S
H1352 C1373 0.950 . S
H1353 C1376 0.950 . S
H1354 C1377 0.950 1_565 S
H1355 C1379 0.950 . S
H1356 C1380 0.950 . S
H1357 C1381 0.951 . S
H1358 C1383 0.951 . S
H1359 C1385 0.950 . S
H1360 C1386 0.950 . S
H1361 C1388 0.950 . S
H1362 C1391 0.950 . S
H1363 C1392 0.950 . S
H1364 C1394 0.950 . S
H1365 C1395 0.950 . S
C1366 H1348 0.951 . S
C1366 C1367 1.366 . S
C1366 C1368 1.388 . S
C1367 C1366 1.366 . S
C1367 C1371 1.385 . S
C1368 H1349 0.951 . S
C1368 C1366 1.388 . S
C1368 C1369 1.366 . S
C1369 C1368 1.366 . S
C1369 C1370 1.414 . S
C1369 C1372 1.499 . S
C1370 H1350 0.950 . S
C1370 C1369 1.414 . S
C1370 C1371 1.374 . S
C1371 H1351 0.950 . S
C1371 C1367 1.385 . S
C1371 C1370 1.374 . S
C1372 C1369 1.499 . S
C1372 C1373 1.373 . S
C1372 C1374 1.389 . S
C1373 H1352 0.950 . S
C1373 C1372 1.373 . S
C1373 C1389 1.377 . S
C1374 C1372 1.389 . S
C1374 C1375 1.524 . S
C1374 C1388 1.377 . S
C1375 C1374 1.524 . S
C1375 C1376 1.397 . S
C1375 C1380 1.363 . S
C1376 H1353 0.950 . S
C1376 C1375 1.397 . S
C1376 C1377 1.334 . S
C1377 H1354 0.950 1_545 S
C1377 C1376 1.334 . S
C1377 C1378 1.282 1_545 S
C1378 C1377 1.282 1_565 S
C1378 C1379 1.495 1_565 S
C1378 H1397 0.952 . S
C1379 H1355 0.950 . S
C1379 C1378 1.495 1_545 S
C1379 C1380 1.415 . S
C1380 H1356 0.950 . S
C1380 C1375 1.363 . S
C1380 C1379 1.415 . S
C1381 H1357 0.951 . S
C1381 C1382 1.366 . S
C1381 C1383 1.388 . S
C1382 C1381 1.366 . S
C1382 C1386 1.385 . S
C1383 H1358 0.951 . S
C1383 C1381 1.388 . S
C1383 C1384 1.366 . S
C1384 C1383 1.366 . S
C1384 C1385 1.414 . S
C1384 C1387 1.499 . S
C1385 H1359 0.950 . S
C1385 C1384 1.414 . S
C1385 C1386 1.374 . S
C1386 H1360 0.950 . S
C1386 C1382 1.385 . S
C1386 C1385 1.374 . S
C1387 C1384 1.499 . S
C1387 C1388 1.373 . S
C1387 C1389 1.389 . S
C1388 H1361 0.950 . S
C1388 C1374 1.377 . S
C1388 C1387 1.373 . S
C1389 C1373 1.377 . S
C1389 C1387 1.389 . S
C1389 C1390 1.524 . S
C1390 C1389 1.524 . S
C1390 C1391 1.397 . S
C1390 C1395 1.363 . S
C1391 H1362 0.950 . S
C1391 C1390 1.397 . S
C1391 C1392 1.334 . S
C1392 H1363 0.950 . S
C1392 C1391 1.334 . S
C1392 C1393 1.287 . S
C1393 C1392 1.287 . S
C1393 C1394 1.524 . S
C1393 H1396 0.999 . S
C1394 H1364 0.950 . S
C1394 C1393 1.524 . S
C1394 C1395 1.415 . S
C1395 H1365 0.950 . S
C1395 C1390 1.363 . S
C1395 C1394 1.415 . S
H1396 C1393 0.999 . S
H1397 C1378 0.952 . S
H1398 C1416 0.951 . S
H1399 C1418 0.951 . S
H1400 C1420 0.950 . S
H1401 C1421 0.950 . S
H1402 C1423 0.950 . S
H1403 C1426 0.950 . S
H1404 C1427 0.950 . S
H1405 C1429 0.950 . S
H1406 C1430 0.950 . S
H1407 C1431 0.951 . S
H1408 C1433 0.951 . S
H1409 C1435 0.950 . S
H1410 C1436 0.950 . S
H1411 C1438 0.950 . S
H1412 C1441 0.950 . S
H1413 C1442 0.950 . S
H1414 C1444 0.950 . S
H1415 C1445 0.950 . S
C1416 H1398 0.951 . S
C1416 C1417 1.366 . S
C1416 C1418 1.388 . S
C1417 C1416 1.366 . S
C1417 C1421 1.385 . S
C1418 H1399 0.951 . S
C1418 C1416 1.388 . S
C1418 C1419 1.366 . S
C1419 C1418 1.366 . S
C1419 C1420 1.414 . S
C1419 C1422 1.499 . S
C1420 H1400 0.950 . S
C1420 C1419 1.414 . S
C1420 C1421 1.374 . S
C1421 H1401 0.950 . S
C1421 C1417 1.385 . S
C1421 C1420 1.374 . S
C1422 C1419 1.499 . S
C1422 C1423 1.373 . S
C1422 C1424 1.389 . S
C1423 H1402 0.950 . S
C1423 C1422 1.373 . S
C1423 C1439 1.377 . S
C1424 C1422 1.389 . S
C1424 C1425 1.524 . S
C1424 C1438 1.377 . S
C1425 C1424 1.524 . S
C1425 C1426 1.397 . S
C1425 C1430 1.363 . S
C1426 H1403 0.950 . S
C1426 C1425 1.397 . S
C1426 C1427 1.334 . S
C1427 H1404 0.950 . S
C1427 C1426 1.334 . S
C1427 C1428 1.287 . S
C1428 C1427 1.287 . S
C1428 C1429 1.524 . S
C1428 H1447 0.913 . S
C1429 H1405 0.950 . S
C1429 C1428 1.524 . S
C1429 C1430 1.415 . S
C1430 H1406 0.950 . S
C1430 C1425 1.363 . S
C1430 C1429 1.415 . S
C1431 H1407 0.951 . S
C1431 C1432 1.366 . S
C1431 C1433 1.388 . S
C1432 C1431 1.366 . S
C1432 C1436 1.385 . S
C1433 H1408 0.951 . S
C1433 C1431 1.388 . S
C1433 C1434 1.366 . S
C1434 C1433 1.366 . S
C1434 C1435 1.414 . S
C1434 C1437 1.499 . S
C1435 H1409 0.950 . S
C1435 C1434 1.414 . S
C1435 C1436 1.374 . S
C1436 H1410 0.950 . S
C1436 C1432 1.385 . S
C1436 C1435 1.374 . S
C1437 C1434 1.499 . S
C1437 C1438 1.373 . S
C1437 C1439 1.389 . S
C1438 H1411 0.950 . S
C1438 C1424 1.377 . S
C1438 C1437 1.373 . S
C1439 C1423 1.377 . S
C1439 C1437 1.389 . S
C1439 C1440 1.524 . S
C1440 C1439 1.524 . S
C1440 C1441 1.397 . S
C1440 C1445 1.363 . S
C1441 H1412 0.950 . S
C1441 C1440 1.397 . S
C1441 C1442 1.334 . S
C1442 H1413 0.950 . S
C1442 C1441 1.334 . S
C1442 C1443 1.287 . S
C1443 C1442 1.287 . S
C1443 C1444 1.524 . S
C1443 H1446 0.999 . S
C1444 H1414 0.950 . S
C1444 C1443 1.524 . S
C1444 C1445 1.415 . S
C1445 H1415 0.950 . S
C1445 C1440 1.363 . S
C1445 C1444 1.415 . S
H1446 C1443 0.999 . S
H1447 C1428 0.913 . S
H1448 C1466 0.951 . S
H1449 C1468 0.951 . S
H1450 C1470 0.950 . S
H1451 C1471 0.950 . S
H1452 C1473 0.950 . S
H1453 C1476 0.950 . S
H1454 C1477 0.950 1_565 S
H1455 C1479 0.950 . S
H1456 C1480 0.950 . S
H1457 C1481 0.951 . S
H1458 C1483 0.951 . S
H1459 C1485 0.950 . S
H1460 C1486 0.950 . S
H1461 C1488 0.950 . S
H1462 C1491 0.950 . S
H1463 C1492 0.950 . S
H1464 C1494 0.950 . S
H1465 C1495 0.950 . S
C1466 H1448 0.951 . S
C1466 C1467 1.366 . S
C1466 C1468 1.388 . S
C1467 C1466 1.366 . S
C1467 C1471 1.385 . S
C1468 H1449 0.951 . S
C1468 C1466 1.388 . S
C1468 C1469 1.366 . S
C1469 C1468 1.366 . S
C1469 C1470 1.414 . S
C1469 C1472 1.499 . S
C1470 H1450 0.950 . S
C1470 C1469 1.414 . S
C1470 C1471 1.374 . S
C1471 H1451 0.950 . S
C1471 C1467 1.385 . S
C1471 C1470 1.374 . S
C1472 C1469 1.499 . S
C1472 C1473 1.373 . S
C1472 C1474 1.389 . S
C1473 H1452 0.950 . S
C1473 C1472 1.373 . S
C1473 C1489 1.377 . S
C1474 C1472 1.389 . S
C1474 C1475 1.524 . S
C1474 C1488 1.377 . S
C1475 C1474 1.524 . S
C1475 C1476 1.397 . S
C1475 C1480 1.363 . S
C1476 H1453 0.950 . S
C1476 C1475 1.397 . S
C1476 C1477 1.334 . S
C1477 H1454 0.950 1_545 S
C1477 C1476 1.334 . S
C1477 C1478 1.287 . S
C1478 C1477 1.287 . S
C1478 C1479 1.524 . S
C1478 H1497 0.908 1_545 S
C1479 H1455 0.950 . S
C1479 C1478 1.524 . S
C1479 C1480 1.415 . S
C1480 H1456 0.950 . S
C1480 C1475 1.363 . S
C1480 C1479 1.415 . S
C1481 H1457 0.951 . S
C1481 C1482 1.366 . S
C1481 C1483 1.388 . S
C1482 C1481 1.366 . S
C1482 C1486 1.385 . S
C1483 H1458 0.951 . S
C1483 C1481 1.388 . S
C1483 C1484 1.366 . S
C1484 C1483 1.366 . S
C1484 C1485 1.414 . S
C1484 C1487 1.499 . S
C1485 H1459 0.950 . S
C1485 C1484 1.414 . S
C1485 C1486 1.374 . S
C1486 H1460 0.950 . S
C1486 C1482 1.385 . S
C1486 C1485 1.374 . S
C1487 C1484 1.499 . S
C1487 C1488 1.373 . S
C1487 C1489 1.389 . S
C1488 H1461 0.950 . S
C1488 C1474 1.377 . S
C1488 C1487 1.373 . S
C1489 C1473 1.377 . S
C1489 C1487 1.389 . S
C1489 C1490 1.524 . S
C1490 C1489 1.524 . S
C1490 C1491 1.397 . S
C1490 C1495 1.363 . S
C1491 H1462 0.950 . S
C1491 C1490 1.397 . S
C1491 C1492 1.334 . S
C1492 H1463 0.950 . S
C1492 C1491 1.334 . S
C1492 C1493 1.287 . S
C1493 C1492 1.287 . S
C1493 C1494 1.524 . S
C1493 H1496 0.999 . S
C1494 H1464 0.950 . S
C1494 C1493 1.524 . S
C1494 C1495 1.415 . S
C1495 H1465 0.950 . S
C1495 C1490 1.363 . S
C1495 C1494 1.415 . S
H1496 C1493 0.999 . S
H1497 C1478 0.908 1_565 S
H1498 C1516 0.951 . S
H1499 C1518 0.951 . S
H1500 C1520 0.950 . S
H1501 C1521 0.950 . S
H1502 C1523 0.950 . S
H1503 C1526 0.950 . S
H1504 C1527 0.950 . S
H1505 C1529 0.950 . S
H1506 C1530 0.950 . S
H1507 C1531 0.951 . S
H1508 C1533 0.951 . S
H1509 C1535 0.950 . S
H1510 C1536 0.950 . S
H1511 C1538 0.950 . S
H1512 C1541 0.950 . S
H1513 C1542 0.950 . S
H1514 C1544 0.950 . S
H1515 C1545 0.950 . S
C1516 H1498 0.951 . S
C1516 C1517 1.366 . S
C1516 C1518 1.388 . S
C1517 C1516 1.366 . S
C1517 C1521 1.385 . S
C1518 H1499 0.951 . S
C1518 C1516 1.388 . S
C1518 C1519 1.366 . S
C1519 C1518 1.366 . S
C1519 C1520 1.414 . S
C1519 C1522 1.499 . S
C1520 H1500 0.950 . S
C1520 C1519 1.414 . S
C1520 C1521 1.374 . S
C1521 H1501 0.950 . S
C1521 C1517 1.385 . S
C1521 C1520 1.374 . S
C1522 C1519 1.499 . S
C1522 C1523 1.373 . S
C1522 C1524 1.389 . S
C1523 H1502 0.950 . S
C1523 C1522 1.373 . S
C1523 C1539 1.377 . S
C1524 C1522 1.389 . S
C1524 C1525 1.524 . S
C1524 C1538 1.377 . S
C1525 C1524 1.524 . S
C1525 C1526 1.397 . S
C1525 C1530 1.363 . S
C1526 H1503 0.950 . S
C1526 C1525 1.397 . S
C1526 C1527 1.334 . S
C1527 H1504 0.950 . S
C1527 C1526 1.334 . S
C1527 C1528 1.287 . S
C1528 C1527 1.287 . S
C1528 C1529 1.524 . S
C1528 H1547 0.913 . S
C1529 H1505 0.950 . S
C1529 C1528 1.524 . S
C1529 C1530 1.415 . S
C1530 H1506 0.950 . S
C1530 C1525 1.363 . S
C1530 C1529 1.415 . S
C1531 H1507 0.951 . S
C1531 C1532 1.366 . S
C1531 C1533 1.388 . S
C1532 C1531 1.366 . S
C1532 C1536 1.385 . S
C1533 H1508 0.951 . S
C1533 C1531 1.388 . S
C1533 C1534 1.366 . S
C1534 C1533 1.366 . S
C1534 C1535 1.414 . S
C1534 C1537 1.499 . S
C1535 H1509 0.950 . S
C1535 C1534 1.414 . S
C1535 C1536 1.374 . S
C1536 H1510 0.950 . S
C1536 C1532 1.385 . S
C1536 C1535 1.374 . S
C1537 C1534 1.499 . S
C1537 C1538 1.373 . S
C1537 C1539 1.389 . S
C1538 H1511 0.950 . S
C1538 C1524 1.377 . S
C1538 C1537 1.373 . S
C1539 C1523 1.377 . S
C1539 C1537 1.389 . S
C1539 C1540 1.524 . S
C1540 C1539 1.524 . S
C1540 C1541 1.397 . S
C1540 C1545 1.363 . S
C1541 H1512 0.950 . S
C1541 C1540 1.397 . S
C1541 C1542 1.334 . S
C1542 H1513 0.950 . S
C1542 C1541 1.334 . S
C1542 C1543 1.287 . S
C1543 C1542 1.287 . S
C1543 C1544 1.524 . S
C1543 H1546 0.999 . S
C1544 H1514 0.950 . S
C1544 C1543 1.524 . S
C1544 C1545 1.415 . S
C1545 H1515 0.950 . S
C1545 C1540 1.363 . S
C1545 C1544 1.415 . S
H1546 C1543 0.999 . S
H1547 C1528 0.913 . S
H1548 C1566 0.951 . S
H1549 C1568 0.951 . S
H1550 C1570 0.950 . S
H1551 C1571 0.950 . S
H1552 C1573 0.950 . S
H1553 C1576 0.950 . S
H1554 C1577 0.950 . S
H1555 C1579 0.950 . S
H1556 C1580 0.950 . S
H1557 C1581 0.951 . S
H1558 C1583 0.951 . S
H1559 C1585 0.950 . S
H1560 C1586 0.950 . S
H1561 C1588 0.950 . S
H1562 C1591 0.950 . S
H1563 C1592 0.950 . S
H1564 C1594 0.950 . S
H1565 C1595 0.950 . S
C1566 H1548 0.951 . S
C1566 C1567 1.366 . S
C1566 C1568 1.388 . S
C1567 C1566 1.366 . S
C1567 C1571 1.385 . S
C1568 H1549 0.951 . S
C1568 C1566 1.388 . S
C1568 C1569 1.366 . S
C1569 C1568 1.366 . S
C1569 C1570 1.414 . S
C1569 C1572 1.499 . S
C1570 H1550 0.950 . S
C1570 C1569 1.414 . S
C1570 C1571 1.374 . S
C1571 H1551 0.950 . S
C1571 C1567 1.385 . S
C1571 C1570 1.374 . S
C1572 C1569 1.499 . S
C1572 C1573 1.373 . S
C1572 C1574 1.389 . S
C1573 H1552 0.950 . S
C1573 C1572 1.373 . S
C1573 C1589 1.377 . S
C1574 C1572 1.389 . S
C1574 C1575 1.524 . S
C1574 C1588 1.377 . S
C1575 C1574 1.524 . S
C1575 C1576 1.397 . S
C1575 C1580 1.363 . S
C1576 H1553 0.950 . S
C1576 C1575 1.397 . S
C1576 C1577 1.334 . S
C1577 H1554 0.950 . S
C1577 C1576 1.334 . S
C1577 C1578 1.287 . S
C1578 C1577 1.287 . S
C1578 C1579 1.524 . S
C1578 H1597 0.913 . S
C1579 H1555 0.950 . S
C1579 C1578 1.524 . S
C1579 C1580 1.415 . S
C1580 H1556 0.950 . S
C1580 C1575 1.363 . S
C1580 C1579 1.415 . S
C1581 H1557 0.951 . S
C1581 C1582 1.366 . S
C1581 C1583 1.388 . S
C1582 C1581 1.366 . S
C1582 C1586 1.385 . S
C1583 H1558 0.951 . S
C1583 C1581 1.388 . S
C1583 C1584 1.366 . S
C1584 C1583 1.366 . S
C1584 C1585 1.414 . S
C1584 C1587 1.499 . S
C1585 H1559 0.950 . S
C1585 C1584 1.414 . S
C1585 C1586 1.374 . S
C1586 H1560 0.950 . S
C1586 C1582 1.385 . S
C1586 C1585 1.374 . S
C1587 C1584 1.499 . S
C1587 C1588 1.373 . S
C1587 C1589 1.389 . S
C1588 H1561 0.950 . S
C1588 C1574 1.377 . S
C1588 C1587 1.373 . S
C1589 C1573 1.377 . S
C1589 C1587 1.389 . S
C1589 C1590 1.524 . S
C1590 C1589 1.524 . S
C1590 C1591 1.397 . S
C1590 C1595 1.363 . S
C1591 H1562 0.950 . S
C1591 C1590 1.397 . S
C1591 C1592 1.334 . S
C1592 H1563 0.950 . S
C1592 C1591 1.334 . S
C1592 C1593 1.287 . S
C1593 C1592 1.287 . S
C1593 C1594 1.524 . S
C1593 H1596 0.999 . S
C1594 H1564 0.950 . S
C1594 C1593 1.524 . S
C1594 C1595 1.415 . S
C1595 H1565 0.950 . S
C1595 C1590 1.363 . S
C1595 C1594 1.415 . S
H1596 C1593 0.999 . S
H1597 C1578 0.913 . S
H1598 C1616 0.951 . S
H1599 C1618 0.951 . S
H1600 C1620 0.950 . S
H1601 C1621 0.950 . S
H1602 C1623 0.950 . S
H1603 C1626 0.950 . S
H1604 C1627 0.950 . S
H1605 C1629 0.950 . S
H1606 C1630 0.950 . S
H1607 C1631 0.951 . S
H1608 C1633 0.951 . S
H1609 C1635 0.944 1_565 S
H1610 C1636 0.950 1_565 S
H1611 C1638 0.950 . S
H1612 C1641 0.950 . S
H1613 C1642 0.950 . S
H1614 C1644 0.950 . S
H1615 C1645 0.950 . S
C1616 H1598 0.951 . S
C1616 C1617 1.366 . S
C1616 C1618 1.388 . S
C1617 C1616 1.366 . S
C1617 C1621 1.385 . S
C1618 H1599 0.951 . S
C1618 C1616 1.388 . S
C1618 C1619 1.366 . S
C1619 C1618 1.366 . S
C1619 C1620 1.414 . S
C1619 C1622 1.499 . S
C1620 H1600 0.950 . S
C1620 C1619 1.414 . S
C1620 C1621 1.374 . S
C1621 H1601 0.950 . S
C1621 C1617 1.385 . S
C1621 C1620 1.374 . S
C1622 C1619 1.499 . S
C1622 C1623 1.373 . S
C1622 C1624 1.389 . S
C1623 H1602 0.950 . S
C1623 C1622 1.373 . S
C1623 C1639 1.377 . S
C1624 C1622 1.389 . S
C1624 C1625 1.524 . S
C1624 C1638 1.377 . S
C1625 C1624 1.524 . S
C1625 C1626 1.397 . S
C1625 C1630 1.363 . S
C1626 H1603 0.950 . S
C1626 C1625 1.397 . S
C1626 C1627 1.334 . S
C1627 H1604 0.950 . S
C1627 C1626 1.334 . S
C1627 C1628 1.287 . S
C1628 C1627 1.287 . S
C1628 C1629 1.524 . S
C1628 H1647 0.913 . S
C1629 H1605 0.950 . S
C1629 C1628 1.524 . S
C1629 C1630 1.415 . S
C1630 H1606 0.950 . S
C1630 C1625 1.363 . S
C1630 C1629 1.415 . S
C1631 H1607 0.951 . S
C1631 C1632 1.366 . S
C1631 C1633 1.388 . S
C1632 C1631 1.366 . S
C1632 C1636 1.385 . S
C1633 H1608 0.951 . S
C1633 C1631 1.388 . S
C1633 C1634 1.366 . S
C1634 C1633 1.366 . S
C1634 C1635 1.414 . S
C1634 C1637 1.499 . S
C1635 H1609 0.944 1_545 S
C1635 C1634 1.414 . S
C1635 C1636 1.374 . S
C1636 H1610 0.950 1_545 S
C1636 C1632 1.385 . S
C1636 C1635 1.374 . S
C1637 C1634 1.499 . S
C1637 C1638 1.373 . S
C1637 C1639 1.389 . S
C1638 H1611 0.950 . S
C1638 C1624 1.377 . S
C1638 C1637 1.373 . S
C1639 C1623 1.377 . S
C1639 C1637 1.389 . S
C1639 C1640 1.524 1_545 S
C1640 C1639 1.524 1_565 S
C1640 C1641 1.397 . S
C1640 C1645 1.363 1_565 S
C1641 H1612 0.950 . S
C1641 C1640 1.397 . S
C1641 C1642 1.334 . S
C1642 H1613 0.950 . S
C1642 C1641 1.334 . S
C1642 C1643 1.287 . S
C1643 C1642 1.287 . S
C1643 C1644 1.524 . S
C1643 H1646 0.999 . S
C1644 H1614 0.950 . S
C1644 C1643 1.524 . S
C1644 C1645 1.415 1_565 S
C1645 H1615 0.950 . S
C1645 C1640 1.363 1_545 S
C1645 C1644 1.415 1_545 S
H1646 C1643 0.999 . S
H1647 C1628 0.913 . S
H1648 C1666 0.951 . S
H1649 C1668 0.951 . S
H1650 C1670 0.950 . S
H1651 C1671 0.950 . S
H1652 C1673 0.950 . S
H1653 C1676 0.950 . S
H1654 C1677 0.950 . S
H1655 C1679 0.950 . S
H1656 C1680 0.950 . S
H1657 C1681 0.951 . S
H1658 C1683 0.951 . S
H1659 C1685 0.950 . S
H1660 C1686 0.950 . S
H1661 C1688 0.950 . S
H1662 C1691 0.950 . S
H1663 C1692 0.950 . S
H1664 C1694 0.950 . S
H1665 C1695 0.950 . S
C1666 H1648 0.951 . S
C1666 C1667 1.366 . S
C1666 C1668 1.388 . S
C1667 C1666 1.366 . S
C1667 C1671 1.385 . S
C1668 H1649 0.951 . S
C1668 C1666 1.388 . S
C1668 C1669 1.366 . S
C1669 C1668 1.366 . S
C1669 C1670 1.414 . S
C1669 C1672 1.499 . S
C1670 H1650 0.950 . S
C1670 C1669 1.414 . S
C1670 C1671 1.374 . S
C1671 H1651 0.950 . S
C1671 C1667 1.385 . S
C1671 C1670 1.374 . S
C1672 C1669 1.499 . S
C1672 C1673 1.373 . S
C1672 C1674 1.389 . S
C1673 H1652 0.950 . S
C1673 C1672 1.373 . S
C1673 C1689 1.377 . S
C1674 C1672 1.389 . S
C1674 C1675 1.524 . S
C1674 C1688 1.377 . S
C1675 C1674 1.524 . S
C1675 C1676 1.397 . S
C1675 C1680 1.363 . S
C1676 H1653 0.950 . S
C1676 C1675 1.397 . S
C1676 C1677 1.334 . S
C1677 H1654 0.950 . S
C1677 C1676 1.334 . S
C1677 C1678 1.287 . S
C1678 C1677 1.287 . S
C1678 C1679 1.524 . S
C1678 H1697 0.913 . S
C1679 H1655 0.950 . S
C1679 C1678 1.524 . S
C1679 C1680 1.415 . S
C1680 H1656 0.950 . S
C1680 C1675 1.363 . S
C1680 C1679 1.415 . S
C1681 H1657 0.951 . S
C1681 C1682 1.366 . S
C1681 C1683 1.388 . S
C1682 C1681 1.366 . S
C1682 C1686 1.385 . S
C1683 H1658 0.951 . S
C1683 C1681 1.388 . S
C1683 C1684 1.366 . S
C1684 C1683 1.366 . S
C1684 C1685 1.414 . S
C1684 C1687 1.499 . S
C1685 H1659 0.950 . S
C1685 C1684 1.414 . S
C1685 C1686 1.374 . S
C1686 H1660 0.950 . S
C1686 C1682 1.385 . S
C1686 C1685 1.374 . S
C1687 C1684 1.499 . S
C1687 C1688 1.373 . S
C1687 C1689 1.389 . S
C1688 H1661 0.950 . S
C1688 C1674 1.377 . S
C1688 C1687 1.373 . S
C1689 C1673 1.377 . S
C1689 C1687 1.389 . S
C1689 C1690 1.524 . S
C1690 C1689 1.524 . S
C1690 C1691 1.397 . S
C1690 C1695 1.363 . S
C1691 H1662 0.950 . S
C1691 C1690 1.397 . S
C1691 C1692 1.334 . S
C1692 H1663 0.950 . S
C1692 C1691 1.334 . S
C1692 C1693 1.287 . S
C1693 C1692 1.287 . S
C1693 C1694 1.524 . S
C1693 H1696 0.999 . S
C1694 H1664 0.950 . S
C1694 C1693 1.524 . S
C1694 C1695 1.415 . S
C1695 H1665 0.950 . S
C1695 C1690 1.363 . S
C1695 C1694 1.415 . S
H1696 C1693 0.999 . S
H1697 C1678 0.913 . S
H1698 C1716 0.951 . S
H1699 C1718 0.951 . S
H1700 C1720 0.950 . S
H1701 C1721 0.950 . S
H1702 C1723 0.950 . S
H1703 C1726 0.950 . S
H1704 C1727 0.950 . S
H1705 C1729 0.950 . S
H1706 C1730 0.950 . S
H1707 C1731 0.951 . S
H1708 C1733 0.951 . S
H1709 C1735 0.950 . S
H1710 C1736 0.950 . S
H1711 C1738 0.950 . S
H1712 C1741 0.950 . S
H1713 C1742 0.950 . S
H1714 C1744 0.950 . S
H1715 C1745 0.950 . S
C1716 H1698 0.951 . S
C1716 C1717 1.366 . S
C1716 C1718 1.388 . S
C1717 C1716 1.366 . S
C1717 C1721 1.385 . S
C1718 H1699 0.951 . S
C1718 C1716 1.388 . S
C1718 C1719 1.366 . S
C1719 C1718 1.366 . S
C1719 C1720 1.414 . S
C1719 C1722 1.499 . S
C1720 H1700 0.950 . S
C1720 C1719 1.414 . S
C1720 C1721 1.374 . S
C1721 H1701 0.950 . S
C1721 C1717 1.385 . S
C1721 C1720 1.374 . S
C1722 C1719 1.499 . S
C1722 C1723 1.373 . S
C1722 C1724 1.389 . S
C1723 H1702 0.950 . S
C1723 C1722 1.373 . S
C1723 C1739 1.377 . S
C1724 C1722 1.389 . S
C1724 C1725 1.524 . S
C1724 C1738 1.377 . S
C1725 C1724 1.524 . S
C1725 C1726 1.397 . S
C1725 C1730 1.363 . S
C1726 H1703 0.950 . S
C1726 C1725 1.397 . S
C1726 C1727 1.334 . S
C1727 H1704 0.950 . S
C1727 C1726 1.334 . S
C1727 C1728 1.287 . S
C1728 C1727 1.287 . S
C1728 C1729 1.524 . S
C1728 H1747 0.913 . S
C1729 H1705 0.950 . S
C1729 C1728 1.524 . S
C1729 C1730 1.415 . S
C1730 H1706 0.950 . S
C1730 C1725 1.363 . S
C1730 C1729 1.415 . S
C1731 H1707 0.951 . S
C1731 C1732 1.366 . S
C1731 C1733 1.388 . S
C1732 C1731 1.366 . S
C1732 C1736 1.385 . S
C1733 H1708 0.951 . S
C1733 C1731 1.388 . S
C1733 C1734 1.366 . S
C1734 C1733 1.366 . S
C1734 C1735 1.414 . S
C1734 C1737 1.499 . S
C1735 H1709 0.950 . S
C1735 C1734 1.414 . S
C1735 C1736 1.374 . S
C1736 H1710 0.950 . S
C1736 C1732 1.385 . S
C1736 C1735 1.374 . S
C1737 C1734 1.499 . S
C1737 C1738 1.373 . S
C1737 C1739 1.389 . S
C1738 H1711 0.950 . S
C1738 C1724 1.377 . S
C1738 C1737 1.373 . S
C1739 C1723 1.377 . S
C1739 C1737 1.389 . S
C1739 C1740 1.524 . S
C1740 C1739 1.524 . S
C1740 C1741 1.397 . S
C1740 C1745 1.363 . S
C1741 H1712 0.950 . S
C1741 C1740 1.397 . S
C1741 C1742 1.334 . S
C1742 H1713 0.950 . S
C1742 C1741 1.334 . S
C1742 C1743 1.287 . S
C1743 C1742 1.287 . S
C1743 C1744 1.524 . S
C1743 H1746 0.999 . S
C1744 H1714 0.950 . S
C1744 C1743 1.524 . S
C1744 C1745 1.415 . S
C1745 H1715 0.950 . S
C1745 C1740 1.363 . S
C1745 C1744 1.415 . S
H1746 C1743 0.999 . S
H1747 C1728 0.913 . S
H1748 C1766 0.951 . S
H1749 C1768 0.951 . S
H1750 C1770 0.950 . S
H1751 C1771 0.950 . S
H1752 C1773 0.950 . S
H1753 C1776 0.950 . S
H1754 C1777 0.950 . S
H1755 C1779 0.950 . S
H1756 C1780 0.950 . S
H1757 C1781 0.951 . S
H1758 C1783 0.951 . S
H1759 C1785 0.950 . S
H1760 C1786 0.950 . S
H1761 C1788 0.950 . S
H1762 C1791 0.950 . S
H1763 C1792 0.950 . S
H1764 C1794 0.950 . S
H1765 C1795 0.950 . S
C1766 H1748 0.951 . S
C1766 C1767 1.366 . S
C1766 C1768 1.388 . S
C1767 C1766 1.366 . S
C1767 C1771 1.385 . S
C1768 H1749 0.951 . S
C1768 C1766 1.388 . S
C1768 C1769 1.366 . S
C1769 C1768 1.366 . S
C1769 C1770 1.414 . S
C1769 C1772 1.499 . S
C1770 H1750 0.950 . S
C1770 C1769 1.414 . S
C1770 C1771 1.374 . S
C1771 H1751 0.950 . S
C1771 C1767 1.385 . S
C1771 C1770 1.374 . S
C1772 C1769 1.499 . S
C1772 C1773 1.373 . S
C1772 C1774 1.389 . S
C1773 H1752 0.950 . S
C1773 C1772 1.373 . S
C1773 C1789 1.377 . S
C1774 C1772 1.389 . S
C1774 C1775 1.524 . S
C1774 C1788 1.377 . S
C1775 C1774 1.524 . S
C1775 C1776 1.397 . S
C1775 C1780 1.363 . S
C1776 H1753 0.950 . S
C1776 C1775 1.397 . S
C1776 C1777 1.334 . S
C1777 H1754 0.950 . S
C1777 C1776 1.334 . S
C1777 C1778 1.287 . S
C1778 C1777 1.287 . S
C1778 C1779 1.524 . S
C1778 H1797 0.913 . S
C1779 H1755 0.950 . S
C1779 C1778 1.524 . S
C1779 C1780 1.415 . S
C1780 H1756 0.950 . S
C1780 C1775 1.363 . S
C1780 C1779 1.415 . S
C1781 H1757 0.951 . S
C1781 C1782 1.366 . S
C1781 C1783 1.388 . S
C1782 C1781 1.366 . S
C1782 C1786 1.385 . S
C1783 H1758 0.951 . S
C1783 C1781 1.388 . S
C1783 C1784 1.366 . S
C1784 C1783 1.366 . S
C1784 C1785 1.414 . S
C1784 C1787 1.499 . S
C1785 H1759 0.950 . S
C1785 C1784 1.414 . S
C1785 C1786 1.374 . S
C1786 H1760 0.950 . S
C1786 C1782 1.385 . S
C1786 C1785 1.374 . S
C1787 C1784 1.499 . S
C1787 C1788 1.373 . S
C1787 C1789 1.389 . S
C1788 H1761 0.950 . S
C1788 C1774 1.377 . S
C1788 C1787 1.373 . S
C1789 C1773 1.377 . S
C1789 C1787 1.389 . S
C1789 C1790 1.524 . S
C1790 C1789 1.524 . S
C1790 C1791 1.397 . S
C1790 C1795 1.363 . S
C1791 H1762 0.950 . S
C1791 C1790 1.397 . S
C1791 C1792 1.334 . S
C1792 H1763 0.950 . S
C1792 C1791 1.334 . S
C1792 C1793 1.287 . S
C1793 C1792 1.287 . S
C1793 C1794 1.524 . S
C1793 H1796 0.999 . S
C1794 H1764 0.950 . S
C1794 C1793 1.524 . S
C1794 C1795 1.415 . S
C1795 H1765 0.950 . S
C1795 C1790 1.363 . S
C1795 C1794 1.415 . S
H1796 C1793 0.999 . S
H1797 C1778 0.913 . S
H1798 C1816 0.951 . S
H1799 C1818 0.951 1_655 S
H1800 C1820 0.950 . S
H1801 C1821 0.950 . S
H1802 C1823 0.950 . S
H1803 C1826 0.904 1_455 S
H1804 C1827 0.950 . S
H1805 C1829 0.950 . S
H1806 C1830 0.950 . S
H1807 C1831 0.951 . S
H1808 C1833 0.972 . S
H1809 C1835 0.950 . S
H1810 C1836 0.950 . S
H1811 C1838 0.950 . S
H1812 C1841 0.950 1_655 S
H1813 C1842 0.950 . S
H1814 C1844 0.950 . S
H1815 C1845 0.950 . S
C1816 H1798 0.951 . S
C1816 C1817 1.366 . S
C1816 C1818 1.388 . S
C1817 C1816 1.366 . S
C1817 C1821 1.385 . S
C1818 H1799 0.951 1_455 S
C1818 C1816 1.388 . S
C1818 C1819 1.366 . S
C1819 C1818 1.366 . S
C1819 C1820 1.414 . S
C1819 C1822 1.499 . S
C1820 H1800 0.950 . S
C1820 C1819 1.414 . S
C1820 C1821 1.374 . S
C1821 H1801 0.950 . S
C1821 C1817 1.385 . S
C1821 C1820 1.374 . S
C1822 C1819 1.499 . S
C1822 C1823 1.373 . S
C1822 C1824 1.389 1_455 S
C1823 H1802 0.950 . S
C1823 C1822 1.373 . S
C1823 C1839 1.377 . S
C1824 C1822 1.389 1_655 S
C1824 C1825 1.524 . S
C1824 C1838 1.377 . S
C1825 C1824 1.524 . S
C1825 C1826 1.397 . S
C1825 C1830 1.363 . S
C1826 H1803 0.904 1_655 S
C1826 C1825 1.397 . S
C1826 C1827 1.334 . S
C1827 H1804 0.950 . S
C1827 C1826 1.334 . S
C1827 C1828 1.287 . S
C1828 C1827 1.287 . S
C1828 C1829 1.524 . S
C1828 H1847 0.913 . S
C1829 H1805 0.950 . S
C1829 C1828 1.524 . S
C1829 C1830 1.415 . S
C1830 H1806 0.950 . S
C1830 C1825 1.363 . S
C1830 C1829 1.415 . S
C1831 H1807 0.951 . S
C1831 C1832 1.366 . S
C1831 C1833 1.388 . S
C1832 C1831 1.366 . S
C1832 C1836 1.385 . S
C1833 H1808 0.972 . S
C1833 C1831 1.388 . S
C1833 C1834 1.366 . S
C1834 C1833 1.366 . S
C1834 C1835 1.414 . S
C1834 C1837 1.499 . S
C1835 H1809 0.950 . S
C1835 C1834 1.414 . S
C1835 C1836 1.374 . S
C1836 H1810 0.950 . S
C1836 C1832 1.385 . S
C1836 C1835 1.374 . S
C1837 C1834 1.499 . S
C1837 C1838 1.373 . S
C1837 C1839 1.389 1_655 S
C1838 H1811 0.950 . S
C1838 C1824 1.377 . S
C1838 C1837 1.373 . S
C1839 C1823 1.377 . S
C1839 C1837 1.389 1_455 S
C1839 C1840 1.524 . S
C1840 C1839 1.524 . S
C1840 C1841 1.397 . S
C1840 C1845 1.363 . S
C1841 H1812 0.950 1_455 S
C1841 C1840 1.397 . S
C1841 C1842 1.334 1_545 S
C1842 H1813 0.950 . S
C1842 C1841 1.334 1_565 S
C1842 C1843 1.287 . S
C1843 C1842 1.287 . S
C1843 C1844 1.524 1_565 S
C1843 H1846 0.999 . S
C1844 H1814 0.950 . S
C1844 C1843 1.524 1_545 S
C1844 C1845 1.415 . S
C1845 H1815 0.950 . S
C1845 C1840 1.363 . S
C1845 C1844 1.415 . S
H1846 C1843 0.999 . S
H1847 C1828 0.913 . S
H1848 C1866 0.951 . S
H1849 C1868 0.951 . S
H1850 C1870 0.950 . S
H1851 C1871 0.950 . S
H1852 C1873 0.950 . S
H1853 C1876 0.950 . S
H1854 C1877 0.950 . S
H1855 C1879 0.950 . S
H1856 C1880 0.950 . S
H1857 C1881 0.951 . S
H1858 C1883 0.951 . S
H1859 C1885 0.950 . S
H1860 C1886 0.950 . S
H1861 C1888 0.950 . S
H1862 C1891 0.950 . S
H1863 C1892 0.950 . S
H1864 C1894 0.950 . S
H1865 C1895 0.950 . S
C1866 H1848 0.951 . S
C1866 C1867 1.366 . S
C1866 C1868 1.388 . S
C1867 C1866 1.366 . S
C1867 C1871 1.385 . S
C1868 H1849 0.951 . S
C1868 C1866 1.388 . S
C1868 C1869 1.366 . S
C1869 C1868 1.366 . S
C1869 C1870 1.414 . S
C1869 C1872 1.499 . S
C1870 H1850 0.950 . S
C1870 C1869 1.414 . S
C1870 C1871 1.374 . S
C1871 H1851 0.950 . S
C1871 C1867 1.385 . S
C1871 C1870 1.374 . S
C1872 C1869 1.499 . S
C1872 C1873 1.373 . S
C1872 C1874 1.389 . S
C1873 H1852 0.950 . S
C1873 C1872 1.373 . S
C1873 C1889 1.377 . S
C1874 C1872 1.389 . S
C1874 C1875 1.524 . S
C1874 C1888 1.377 . S
C1875 C1874 1.524 . S
C1875 C1876 1.397 . S
C1875 C1880 1.363 . S
C1876 H1853 0.950 . S
C1876 C1875 1.397 . S
C1876 C1877 1.334 . S
C1877 H1854 0.950 . S
C1877 C1876 1.334 . S
C1877 C1878 1.287 . S
C1878 C1877 1.287 . S
C1878 C1879 1.524 . S
C1878 H1897 0.913 . S
C1879 H1855 0.950 . S
C1879 C1878 1.524 . S
C1879 C1880 1.415 . S
C1880 H1856 0.950 . S
C1880 C1875 1.363 . S
C1880 C1879 1.415 . S
C1881 H1857 0.951 . S
C1881 C1882 1.366 . S
C1881 C1883 1.388 . S
C1882 C1881 1.366 . S
C1882 C1886 1.385 . S
C1883 H1858 0.951 . S
C1883 C1881 1.388 . S
C1883 C1884 1.366 . S
C1884 C1883 1.366 . S
C1884 C1885 1.414 . S
C1884 C1887 1.499 . S
C1885 H1859 0.950 . S
C1885 C1884 1.414 . S
C1885 C1886 1.374 . S
C1886 H1860 0.950 . S
C1886 C1882 1.385 . S
C1886 C1885 1.374 . S
C1887 C1884 1.499 . S
C1887 C1888 1.373 . S
C1887 C1889 1.389 . S
C1888 H1861 0.950 . S
C1888 C1874 1.377 . S
C1888 C1887 1.373 . S
C1889 C1873 1.377 . S
C1889 C1887 1.389 . S
C1889 C1890 1.524 . S
C1890 C1889 1.524 . S
C1890 C1891 1.397 . S
C1890 C1895 1.363 . S
C1891 H1862 0.950 . S
C1891 C1890 1.397 . S
C1891 C1892 1.334 . S
C1892 H1863 0.950 . S
C1892 C1891 1.334 . S
C1892 C1893 1.287 . S
C1893 C1892 1.287 . S
C1893 C1894 1.524 . S
C1893 H1896 0.999 . S
C1894 H1864 0.950 . S
C1894 C1893 1.524 . S
C1894 C1895 1.415 . S
C1895 H1865 0.950 . S
C1895 C1890 1.363 . S
C1895 C1894 1.415 . S
H1896 C1893 0.999 . S
H1897 C1878 0.913 . S
H1898 C1916 0.951 . S
H1899 C1918 0.951 . S
H1900 C1920 0.950 . S
H1901 C1921 0.950 . S
H1902 C1923 0.950 . S
H1903 C1926 0.950 . S
H1904 C1927 0.950 . S
H1905 C1929 0.950 . S
H1906 C1930 0.950 . S
H1907 C1931 0.951 . S
H1908 C1933 0.951 . S
H1909 C1935 0.950 . S
H1910 C1936 0.950 . S
H1911 C1938 0.950 . S
H1912 C1941 0.950 . S
H1913 C1942 0.950 . S
H1914 C1944 0.950 . S
H1915 C1945 0.950 . S
C1916 H1898 0.951 . S
C1916 C1917 1.348 1_655 S
C1916 C1918 1.388 1_655 S
C1917 C1916 1.348 1_455 S
C1917 C1921 1.425 . S
C1918 H1899 0.951 . S
C1918 C1916 1.388 1_455 S
C1918 C1919 1.366 . S
C1919 C1918 1.366 . S
C1919 C1920 1.414 . S
C1919 C1922 1.499 . S
C1920 H1900 0.950 . S
C1920 C1919 1.414 . S
C1920 C1921 1.374 . S
C1921 H1901 0.950 . S
C1921 C1917 1.425 . S
C1921 C1920 1.374 . S
C1922 C1919 1.499 . S
C1922 C1923 1.373 . S
C1922 C1924 1.389 . S
C1923 H1902 0.950 . S
C1923 C1922 1.373 . S
C1923 C1939 1.377 . S
C1924 C1922 1.389 . S
C1924 C1925 1.524 . S
C1924 C1938 1.377 . S
C1925 C1924 1.524 . S
C1925 C1926 1.397 . S
C1925 C1930 1.363 . S
C1926 H1903 0.950 . S
C1926 C1925 1.397 . S
C1926 C1927 1.334 . S
C1927 H1904 0.950 . S
C1927 C1926 1.334 . S
C1927 C1928 1.287 . S
C1928 C1927 1.287 . S
C1928 C1929 1.524 . S
C1928 H1947 0.913 . S
C1929 H1905 0.950 . S
C1929 C1928 1.524 . S
C1929 C1930 1.415 . S
C1930 H1906 0.950 . S
C1930 C1925 1.363 . S
C1930 C1929 1.415 . S
C1931 H1907 0.951 . S
C1931 C1932 1.366 . S
C1931 C1933 1.388 . S
C1932 C1931 1.366 . S
C1932 C1936 1.385 . S
C1933 H1908 0.951 . S
C1933 C1931 1.388 . S
C1933 C1934 1.366 . S
C1934 C1933 1.366 . S
C1934 C1935 1.414 . S
C1934 C1937 1.499 . S
C1935 H1909 0.950 . S
C1935 C1934 1.414 . S
C1935 C1936 1.374 . S
C1936 H1910 0.950 . S
C1936 C1932 1.385 . S
C1936 C1935 1.374 . S
C1937 C1934 1.499 . S
C1937 C1938 1.373 . S
C1937 C1939 1.389 . S
C1938 H1911 0.950 . S
C1938 C1924 1.377 . S
C1938 C1937 1.373 . S
C1939 C1923 1.377 . S
C1939 C1937 1.389 . S
C1939 C1940 1.524 . S
C1940 C1939 1.524 . S
C1940 C1941 1.397 . S
C1940 C1945 1.363 . S
C1941 H1912 0.950 . S
C1941 C1940 1.397 . S
C1941 C1942 1.334 . S
C1942 H1913 0.950 . S
C1942 C1941 1.334 . S
C1942 C1943 1.287 . S
C1943 C1942 1.287 . S
C1943 C1944 1.524 . S
C1943 H1946 0.999 . S
C1944 H1914 0.950 . S
C1944 C1943 1.524 . S
C1944 C1945 1.415 . S
C1945 H1915 0.950 . S
C1945 C1940 1.363 . S
C1945 C1944 1.415 . S
H1946 C1943 0.999 . S
H1947 C1928 0.913 . S
H1948 C1966 0.951 . S
H1949 C1968 0.951 . S
H1950 C1970 0.950 . S
H1951 C1971 0.950 . S
H1952 C1973 0.950 . S
H1953 C1976 0.950 . S
H1954 C1977 0.950 . S
H1955 C1979 0.950 . S
H1956 C1980 0.950 . S
H1957 C1981 0.951 . S
H1958 C1983 0.951 . S
H1959 C1985 0.950 . S
H1960 C1986 0.950 . S
H1961 C1988 0.950 . S
H1962 C1991 0.950 . S
H1963 C1992 0.950 . S
H1964 C1994 0.950 . S
H1965 C1995 0.950 . S
C1966 H1948 0.951 . S
C1966 C1967 1.366 . S
C1966 C1968 1.388 . S
C1967 C1966 1.366 . S
C1967 C1971 1.385 . S
C1968 H1949 0.951 . S
C1968 C1966 1.388 . S
C1968 C1969 1.366 . S
C1969 C1968 1.366 . S
C1969 C1970 1.414 . S
C1969 C1972 1.499 . S
C1970 H1950 0.950 . S
C1970 C1969 1.414 . S
C1970 C1971 1.374 . S
C1971 H1951 0.950 . S
C1971 C1967 1.385 . S
C1971 C1970 1.374 . S
C1972 C1969 1.499 . S
C1972 C1973 1.373 . S
C1972 C1974 1.389 . S
C1973 H1952 0.950 . S
C1973 C1972 1.373 . S
C1973 C1989 1.377 . S
C1974 C1972 1.389 . S
C1974 C1975 1.524 . S
C1974 C1988 1.377 . S
C1975 C1974 1.524 . S
C1975 C1976 1.397 . S
C1975 C1980 1.363 . S
C1976 H1953 0.950 . S
C1976 C1975 1.397 . S
C1976 C1977 1.334 . S
C1977 H1954 0.950 . S
C1977 C1976 1.334 . S
C1977 C1978 1.287 . S
C1978 C1977 1.287 . S
C1978 C1979 1.524 . S
C1978 H1997 0.913 . S
C1979 H1955 0.950 . S
C1979 C1978 1.524 . S
C1979 C1980 1.415 . S
C1980 H1956 0.950 . S
C1980 C1975 1.363 . S
C1980 C1979 1.415 . S
C1981 H1957 0.951 . S
C1981 C1982 1.366 . S
C1981 C1983 1.388 . S
C1982 C1981 1.366 . S
C1982 C1986 1.385 . S
C1983 H1958 0.951 . S
C1983 C1981 1.388 . S
C1983 C1984 1.366 . S
C1984 C1983 1.366 . S
C1984 C1985 1.414 . S
C1984 C1987 1.499 . S
C1985 H1959 0.950 . S
C1985 C1984 1.414 . S
C1985 C1986 1.374 . S
C1986 H1960 0.950 . S
C1986 C1982 1.385 . S
C1986 C1985 1.374 . S
C1987 C1984 1.499 . S
C1987 C1988 1.373 . S
C1987 C1989 1.389 . S
C1988 H1961 0.950 . S
C1988 C1974 1.377 . S
C1988 C1987 1.373 . S
C1989 C1973 1.377 . S
C1989 C1987 1.389 . S
C1989 C1990 1.524 . S
C1990 C1989 1.524 . S
C1990 C1991 1.397 . S
C1990 C1995 1.363 . S
C1991 H1962 0.950 . S
C1991 C1990 1.397 . S
C1991 C1992 1.334 . S
C1992 H1963 0.950 . S
C1992 C1991 1.334 . S
C1992 C1993 1.287 . S
C1993 C1992 1.287 . S
C1993 C1994 1.524 . S
C1993 H1996 0.999 . S
C1994 H1964 0.950 . S
C1994 C1993 1.524 . S
C1994 C1995 1.415 . S
C1995 H1965 0.950 . S
C1995 C1990 1.363 . S
C1995 C1994 1.415 . S
H1996 C1993 0.999 . S
H1997 C1978 0.913 . S
H1998 C2016 0.951 . S
H1999 C2018 0.951 . S
H2000 C2020 0.950 . S
H2001 C2021 0.959 1_554 S
H2002 C2023 0.950 . S
H2003 C2026 0.950 . S
H2004 C2027 0.950 1_554 S
H2005 C2029 0.950 . S
H2006 C2030 0.950 . S
H2007 C2031 0.951 . S
H2008 C2033 0.951 . S
H2009 C2035 0.950 . S
H2010 C2036 0.950 . S
H2011 C2038 0.950 . S
H2012 C2041 0.950 . S
H2013 C2042 0.950 . S
H2014 C2044 0.950 . S
H2015 C2045 0.950 . S
C2016 H1998 0.951 . S
C2016 C2017 1.366 . S
C2016 C2018 1.388 . S
C2017 C2016 1.366 . S
C2017 C2021 1.372 1_655 S
C2018 H1999 0.951 . S
C2018 C2016 1.388 . S
C2018 C2019 1.366 . S
C2019 C2018 1.366 . S
C2019 C2020 1.414 1_655 S
C2019 C2022 1.499 . S
C2020 H2000 0.950 . S
C2020 C2019 1.414 1_455 S
C2020 C2021 1.377 . S
C2021 H2001 0.959 1_556 S
C2021 C2017 1.372 1_455 S
C2021 C2020 1.377 . S
C2022 C2019 1.499 . S
C2022 C2023 1.373 1_655 S
C2022 C2024 1.389 . S
C2023 H2002 0.950 . S
C2023 C2022 1.373 1_455 S
C2023 C2039 1.377 . S
C2024 C2022 1.389 . S
C2024 C2025 1.524 . S
C2024 C2038 1.377 . S
C2025 C2024 1.524 . S
C2025 C2026 1.397 . S
C2025 C2030 1.363 . S
C2026 H2003 0.950 . S
C2026 C2025 1.397 . S
C2026 C2027 1.334 . S
C2027 H2004 0.950 1_556 S
C2027 C2026 1.334 . S
C2027 C2028 1.287 . S
C2028 C2027 1.287 . S
C2028 C2029 1.524 . S
C2028 H2047 0.913 . S
C2029 H2005 0.950 . S
C2029 C2028 1.524 . S
C2029 C2030 1.415 . S
C2030 H2006 0.950 . S
C2030 C2025 1.363 . S
C2030 C2029 1.415 . S
C2031 H2007 0.951 . S
C2031 C2032 1.366 . S
C2031 C2033 1.388 . S
C2032 C2031 1.366 . S
C2032 C2036 1.385 1_455 S
C2033 H2008 0.951 . S
C2033 C2031 1.388 . S
C2033 C2034 1.366 1_455 S
C2034 C2033 1.366 1_655 S
C2034 C2035 1.414 . S
C2034 C2037 1.499 . S
C2035 H2009 0.950 . S
C2035 C2034 1.414 . S
C2035 C2036 1.374 . S
C2036 H2010 0.950 . S
C2036 C2032 1.385 1_655 S
C2036 C2035 1.374 . S
C2037 C2034 1.499 . S
C2037 C2038 1.373 . S
C2037 C2039 1.389 1_655 S
C2038 H2011 0.950 . S
C2038 C2024 1.377 . S
C2038 C2037 1.373 . S
C2039 C2023 1.377 . S
C2039 C2037 1.389 1_455 S
C2039 C2040 1.524 . S
C2040 C2039 1.524 . S
C2040 C2041 1.397 . S
C2040 C2045 1.363 . S
C2041 H2012 0.950 . S
C2041 C2040 1.397 . S
C2041 C2042 1.334 . S
C2042 H2013 0.950 . S
C2042 C2041 1.334 . S
C2042 C2043 1.287 . S
C2043 C2042 1.287 . S
C2043 C2044 1.524 . S
C2043 H2046 0.999 . S
C2044 H2014 0.950 . S
C2044 C2043 1.524 . S
C2044 C2045 1.415 . S
C2045 H2015 0.950 . S
C2045 C2040 1.363 . S
C2045 C2044 1.415 . S
H2046 C2043 0.999 . S
H2047 C2028 0.913 . S
H2048 C2066 0.951 . S
H2049 C2068 0.951 . S
H2050 C2070 0.950 . S
H2051 C2071 0.950 . S
H2052 C2073 0.950 . S
H2053 C2076 0.950 . S
H2054 C2077 0.950 . S
H2055 C2079 0.950 . S
H2056 C2080 0.950 . S
H2057 C2081 0.951 . S
H2058 C2083 0.951 . S
H2059 C2085 0.950 . S
H2060 C2086 0.950 . S
H2061 C2088 0.950 . S
H2062 C2091 0.950 . S
H2063 C2092 0.950 . S
H2064 C2094 0.950 . S
H2065 C2095 0.950 . S
C2066 H2048 0.951 . S
C2066 C2067 1.366 . S
C2066 C2068 1.388 . S
C2067 C2066 1.366 . S
C2067 C2071 1.385 . S
C2068 H2049 0.951 . S
C2068 C2066 1.388 . S
C2068 C2069 1.366 . S
C2069 C2068 1.366 . S
C2069 C2070 1.414 . S
C2069 C2072 1.499 . S
C2070 H2050 0.950 . S
C2070 C2069 1.414 . S
C2070 C2071 1.374 . S
C2071 H2051 0.950 . S
C2071 C2067 1.385 . S
C2071 C2070 1.374 . S
C2072 C2069 1.499 . S
C2072 C2073 1.373 . S
C2072 C2074 1.389 . S
C2073 H2052 0.950 . S
C2073 C2072 1.373 . S
C2073 C2089 1.377 . S
C2074 C2072 1.389 . S
C2074 C2075 1.524 . S
C2074 C2088 1.377 . S
C2075 C2074 1.524 . S
C2075 C2076 1.397 . S
C2075 C2080 1.363 . S
C2076 H2053 0.950 . S
C2076 C2075 1.397 . S
C2076 C2077 1.334 . S
C2077 H2054 0.950 . S
C2077 C2076 1.334 . S
C2077 C2078 1.287 . S
C2078 C2077 1.287 . S
C2078 C2079 1.524 . S
C2078 H2097 0.913 . S
C2079 H2055 0.950 . S
C2079 C2078 1.524 . S
C2079 C2080 1.415 . S
C2080 H2056 0.950 . S
C2080 C2075 1.363 . S
C2080 C2079 1.415 . S
C2081 H2057 0.951 . S
C2081 C2082 1.366 . S
C2081 C2083 1.388 . S
C2082 C2081 1.366 . S
C2082 C2086 1.385 . S
C2083 H2058 0.951 . S
C2083 C2081 1.388 . S
C2083 C2084 1.366 . S
C2084 C2083 1.366 . S
C2084 C2085 1.414 . S
C2084 C2087 1.499 . S
C2085 H2059 0.950 . S
C2085 C2084 1.414 . S
C2085 C2086 1.374 . S
C2086 H2060 0.950 . S
C2086 C2082 1.385 . S
C2086 C2085 1.374 . S
C2087 C2084 1.499 . S
C2087 C2088 1.373 . S
C2087 C2089 1.389 . S
C2088 H2061 0.950 . S
C2088 C2074 1.377 . S
C2088 C2087 1.373 . S
C2089 C2073 1.377 . S
C2089 C2087 1.389 . S
C2089 C2090 1.524 . S
C2090 C2089 1.524 . S
C2090 C2091 1.397 . S
C2090 C2095 1.363 . S
C2091 H2062 0.950 . S
C2091 C2090 1.397 . S
C2091 C2092 1.334 . S
C2092 H2063 0.950 . S
C2092 C2091 1.334 . S
C2092 C2093 1.287 . S
C2093 C2092 1.287 . S
C2093 C2094 1.524 . S
C2093 H2096 0.999 . S
C2094 H2064 0.950 . S
C2094 C2093 1.524 . S
C2094 C2095 1.415 . S
C2095 H2065 0.950 . S
C2095 C2090 1.363 . S
C2095 C2094 1.415 . S
H2096 C2093 0.999 . S
H2097 C2078 0.913 . S
H2098 C2116 0.951 . S
H2099 C2118 0.951 . S
H2100 C2120 0.950 . S
H2101 C2121 0.950 1_554 S
H2102 C2123 0.950 . S
H2103 C2126 0.950 . S
H2104 C2127 0.950 . S
H2105 C2129 0.950 . S
H2106 C2130 0.950 . S
H2107 C2131 0.939 1_655 S
H2108 C2133 0.951 1_655 S
H2109 C2135 0.950 . S
H2110 C2136 0.950 . S
H2111 C2138 0.950 . S
H2112 C2141 0.950 . S
H2113 C2142 0.950 1_455 S
H2114 C2144 0.950 . S
H2115 C2145 0.950 . S
C2116 H2098 0.951 . S
C2116 C2117 1.359 1_556 S
C2116 C2118 1.388 . S
C2117 C2116 1.359 1_554 S
C2117 C2121 1.382 1_554 S
C2118 H2099 0.951 . S
C2118 C2116 1.388 . S
C2118 C2119 1.366 . S
C2119 C2118 1.366 . S
C2119 C2120 1.414 . S
C2119 C2122 1.499 . S
C2120 H2100 0.950 . S
C2120 C2119 1.414 . S
C2120 C2121 1.374 . S
C2121 H2101 0.950 1_556 S
C2121 C2117 1.382 1_556 S
C2121 C2120 1.374 . S
C2122 C2119 1.499 . S
C2122 C2123 1.373 . S
C2122 C2124 1.389 . S
C2123 H2102 0.950 . S
C2123 C2122 1.373 . S
C2123 C2139 1.377 . S
C2124 C2122 1.389 . S
C2124 C2125 1.524 . S
C2124 C2138 1.377 . S
C2125 C2124 1.524 . S
C2125 C2126 1.397 . S
C2125 C2130 1.363 . S
C2126 H2103 0.950 . S
C2126 C2125 1.397 . S
C2126 C2127 1.334 1_556 S
C2127 H2104 0.950 . S
C2127 C2126 1.334 1_554 S
C2127 C2128 1.287 . S
C2128 C2127 1.287 . S
C2128 C2129 1.524 1_554 S
C2128 H2147 0.913 . S
C2129 H2105 0.950 . S
C2129 C2128 1.524 1_556 S
C2129 C2130 1.415 . S
C2130 H2106 0.950 . S
C2130 C2125 1.363 . S
C2130 C2129 1.415 . S
C2131 H2107 0.939 1_455 S
C2131 C2132 1.375 . S
C2131 C2133 1.390 . S
C2132 C2131 1.375 . S
C2132 C2136 1.385 . S
C2133 H2108 0.951 1_455 S
C2133 C2131 1.390 . S
C2133 C2134 1.366 . S
C2134 C2133 1.366 . S
C2134 C2135 1.414 . S
C2134 C2137 1.499 . S
C2135 H2109 0.950 . S
C2135 C2134 1.414 . S
C2135 C2136 1.374 . S
C2136 H2110 0.950 . S
C2136 C2132 1.385 . S
C2136 C2135 1.374 . S
C2137 C2134 1.499 . S
C2137 C2138 1.373 . S
C2137 C2139 1.389 . S
C2138 H2111 0.950 . S
C2138 C2124 1.377 . S
C2138 C2137 1.373 . S
C2139 C2123 1.377 . S
C2139 C2137 1.389 . S
C2139 C2140 1.524 . S
C2140 C2139 1.524 . S
C2140 C2141 1.397 . S
C2140 C2145 1.363 1_455 S
C2141 H2112 0.950 . S
C2141 C2140 1.397 . S
C2141 C2142 1.334 1_455 S
C2142 H2113 0.950 1_655 S
C2142 C2141 1.334 1_655 S
C2142 C2143 1.287 . S
C2143 C2142 1.287 . S
C2143 C2144 1.524 . S
C2143 H2146 0.999 . S
C2144 H2114 0.950 . S
C2144 C2143 1.524 . S
C2144 C2145 1.415 . S
C2145 H2115 0.950 . S
C2145 C2140 1.363 1_655 S
C2145 C2144 1.415 . S
H2146 C2143 0.999 . S
H2147 C2128 0.913 . S
H2148 C2166 0.951 . S
H2149 C2168 0.951 . S
H2150 C2170 0.950 . S
H2151 C2171 0.950 . S
H2152 C2173 0.950 . S
H2153 C2176 0.950 . S
H2154 C2177 0.950 . S
H2155 C2179 0.950 . S
H2156 C2180 0.950 . S
H2157 C2181 0.951 . S
H2158 C2183 0.951 . S
H2159 C2185 0.950 . S
H2160 C2186 0.950 . S
H2161 C2188 0.950 . S
H2162 C2191 0.950 . S
H2163 C2192 0.950 . S
H2164 C2194 0.950 . S
H2165 C2195 0.950 . S
C2166 H2148 0.951 . S
C2166 C2167 1.366 . S
C2166 C2168 1.388 . S
C2167 C2166 1.366 . S
C2167 C2171 1.385 . S
C2168 H2149 0.951 . S
C2168 C2166 1.388 . S
C2168 C2169 1.366 . S
C2169 C2168 1.366 . S
C2169 C2170 1.414 . S
C2169 C2172 1.499 . S
C2170 H2150 0.950 . S
C2170 C2169 1.414 . S
C2170 C2171 1.374 . S
C2171 H2151 0.950 . S
C2171 C2167 1.385 . S
C2171 C2170 1.374 . S
C2172 C2169 1.499 . S
C2172 C2173 1.373 . S
C2172 C2174 1.389 . S
C2173 H2152 0.950 . S
C2173 C2172 1.373 . S
C2173 C2189 1.377 . S
C2174 C2172 1.389 . S
C2174 C2175 1.524 . S
C2174 C2188 1.377 . S
C2175 C2174 1.524 . S
C2175 C2176 1.397 . S
C2175 C2180 1.363 . S
C2176 H2153 0.950 . S
C2176 C2175 1.397 . S
C2176 C2177 1.334 . S
C2177 H2154 0.950 . S
C2177 C2176 1.334 . S
C2177 C2178 1.287 . S
C2178 C2177 1.287 . S
C2178 C2179 1.524 . S
C2178 H2197 0.913 . S
C2179 H2155 0.950 . S
C2179 C2178 1.524 . S
C2179 C2180 1.415 . S
C2180 H2156 0.950 . S
C2180 C2175 1.363 . S
C2180 C2179 1.415 . S
C2181 H2157 0.951 . S
C2181 C2182 1.366 . S
C2181 C2183 1.388 . S
C2182 C2181 1.366 . S
C2182 C2186 1.385 . S
C2183 H2158 0.951 . S
C2183 C2181 1.388 . S
C2183 C2184 1.366 . S
C2184 C2183 1.366 . S
C2184 C2185 1.414 . S
C2184 C2187 1.499 . S
C2185 H2159 0.950 . S
C2185 C2184 1.414 . S
C2185 C2186 1.374 . S
C2186 H2160 0.950 . S
C2186 C2182 1.385 . S
C2186 C2185 1.374 . S
C2187 C2184 1.499 . S
C2187 C2188 1.373 . S
C2187 C2189 1.389 . S
C2188 H2161 0.950 . S
C2188 C2174 1.377 . S
C2188 C2187 1.373 . S
C2189 C2173 1.377 . S
C2189 C2187 1.389 . S
C2189 C2190 1.524 . S
C2190 C2189 1.524 . S
C2190 C2191 1.397 . S
C2190 C2195 1.363 . S
C2191 H2162 0.950 . S
C2191 C2190 1.397 . S
C2191 C2192 1.334 . S
C2192 H2163 0.950 . S
C2192 C2191 1.334 . S
C2192 C2193 1.287 . S
C2193 C2192 1.287 . S
C2193 C2194 1.524 . S
C2193 H2196 0.999 . S
C2194 H2164 0.950 . S
C2194 C2193 1.524 . S
C2194 C2195 1.415 . S
C2195 H2165 0.950 . S
C2195 C2190 1.363 . S
C2195 C2194 1.415 . S
H2196 C2193 0.999 . S
H2197 C2178 0.913 . S
H2198 C2216 0.951 . S
H2199 C2218 0.951 . S
H2200 C2220 0.950 . S
H2201 C2221 0.950 . S
H2202 C2223 0.950 . S
H2203 C2226 0.950 . S
H2204 C2227 0.950 . S
H2205 C2229 0.950 . S
H2206 C2230 0.950 . S
H2207 C2231 0.951 . S
H2208 C2233 0.951 . S
H2209 C2235 0.950 . S
H2210 C2236 0.950 . S
H2211 C2238 0.950 . S
H2212 C2241 0.950 . S
H2213 C2242 0.950 . S
H2214 C2244 0.951 1_556 S
H2215 C2245 0.950 . S
C2216 H2198 0.951 . S
C2216 C2217 1.366 . S
C2216 C2218 1.388 . S
C2217 C2216 1.366 . S
C2217 C2221 1.385 1_554 S
C2218 H2199 0.951 . S
C2218 C2216 1.388 . S
C2218 C2219 1.366 . S
C2219 C2218 1.366 . S
C2219 C2220 1.414 . S
C2219 C2222 1.499 . S
C2220 H2200 0.950 . S
C2220 C2219 1.414 . S
C2220 C2221 1.374 1_554 S
C2221 H2201 0.950 . S
C2221 C2217 1.385 1_556 S
C2221 C2220 1.374 1_556 S
C2222 C2219 1.499 . S
C2222 C2223 1.373 . S
C2222 C2224 1.389 . S
C2223 H2202 0.950 . S
C2223 C2222 1.373 . S
C2223 C2239 1.377 . S
C2224 C2222 1.389 . S
C2224 C2225 1.524 . S
C2224 C2238 1.377 . S
C2225 C2224 1.524 . S
C2225 C2226 1.397 . S
C2225 C2230 1.363 . S
C2226 H2203 0.950 . S
C2226 C2225 1.397 . S
C2226 C2227 1.334 . S
C2227 H2204 0.950 . S
C2227 C2226 1.334 . S
C2227 C2228 1.287 . S
C2228 C2227 1.287 . S
C2228 C2229 1.524 . S
C2228 H2247 0.913 . S
C2229 H2205 0.950 . S
C2229 C2228 1.524 . S
C2229 C2230 1.415 . S
C2230 H2206 0.950 . S
C2230 C2225 1.363 . S
C2230 C2229 1.415 . S
C2231 H2207 0.951 . S
C2231 C2232 1.366 . S
C2231 C2233 1.388 . S
C2232 C2231 1.366 . S
C2232 C2236 1.385 . S
C2233 H2208 0.951 . S
C2233 C2231 1.388 . S
C2233 C2234 1.366 . S
C2234 C2233 1.366 . S
C2234 C2235 1.414 . S
C2234 C2237 1.499 . S
C2235 H2209 0.950 . S
C2235 C2234 1.414 . S
C2235 C2236 1.374 . S
C2236 H2210 0.950 . S
C2236 C2232 1.385 . S
C2236 C2235 1.374 . S
C2237 C2234 1.499 . S
C2237 C2238 1.373 . S
C2237 C2239 1.389 . S
C2238 H2211 0.950 . S
C2238 C2224 1.377 . S
C2238 C2237 1.373 . S
C2239 C2223 1.377 . S
C2239 C2237 1.389 . S
C2239 C2240 1.524 . S
C2240 C2239 1.524 . S
C2240 C2241 1.397 . S
C2240 C2245 1.363 . S
C2241 H2212 0.950 . S
C2241 C2240 1.397 . S
C2241 C2242 1.334 . S
C2242 H2213 0.950 . S
C2242 C2241 1.334 . S
C2242 C2243 1.287 . S
C2243 C2242 1.287 . S
C2243 C2244 1.523 . S
C2243 H2246 0.999 . S
C2244 H2214 0.951 1_554 S
C2244 C2243 1.523 . S
C2244 C2245 1.414 . S
C2245 H2215 0.950 . S
C2245 C2240 1.363 . S
C2245 C2244 1.414 . S
H2246 C2243 0.999 . S
H2247 C2228 0.913 . S
H2248 C2266 0.951 . S
H2249 C2268 0.951 . S
H2250 C2270 0.950 . S
H2251 C2271 0.950 . S
H2252 C2273 0.950 . S
H2253 C2276 0.950 . S
H2254 C2277 0.950 . S
H2255 C2279 0.950 . S
H2256 C2280 0.950 . S
H2257 C2281 0.951 . S
H2258 C2283 0.951 . S
H2259 C2285 0.950 . S
H2260 C2286 0.950 . S
H2261 C2288 0.950 . S
H2262 C2291 0.950 . S
H2263 C2292 0.950 . S
H2264 C2294 0.950 . S
H2265 C2295 0.950 . S
C2266 H2248 0.951 . S
C2266 C2267 1.366 . S
C2266 C2268 1.388 . S
C2267 C2266 1.366 . S
C2267 C2271 1.385 . S
C2268 H2249 0.951 . S
C2268 C2266 1.388 . S
C2268 C2269 1.366 . S
C2269 C2268 1.366 . S
C2269 C2270 1.414 . S
C2269 C2272 1.499 . S
C2270 H2250 0.950 . S
C2270 C2269 1.414 . S
C2270 C2271 1.374 . S
C2271 H2251 0.950 . S
C2271 C2267 1.385 . S
C2271 C2270 1.374 . S
C2272 C2269 1.499 . S
C2272 C2273 1.373 . S
C2272 C2274 1.389 . S
C2273 H2252 0.950 . S
C2273 C2272 1.373 . S
C2273 C2289 1.377 . S
C2274 C2272 1.389 . S
C2274 C2275 1.524 . S
C2274 C2288 1.377 . S
C2275 C2274 1.524 . S
C2275 C2276 1.397 . S
C2275 C2280 1.363 . S
C2276 H2253 0.950 . S
C2276 C2275 1.397 . S
C2276 C2277 1.334 . S
C2277 H2254 0.950 . S
C2277 C2276 1.334 . S
C2277 C2278 1.287 . S
C2278 C2277 1.287 . S
C2278 C2279 1.524 . S
C2278 H2297 0.913 . S
C2279 H2255 0.950 . S
C2279 C2278 1.524 . S
C2279 C2280 1.415 . S
C2280 H2256 0.950 . S
C2280 C2275 1.363 . S
C2280 C2279 1.415 . S
C2281 H2257 0.951 . S
C2281 C2282 1.366 . S
C2281 C2283 1.388 . S
C2282 C2281 1.366 . S
C2282 C2286 1.385 . S
C2283 H2258 0.951 . S
C2283 C2281 1.388 . S
C2283 C2284 1.366 . S
C2284 C2283 1.366 . S
C2284 C2285 1.414 . S
C2284 C2287 1.499 . S
C2285 H2259 0.950 . S
C2285 C2284 1.414 . S
C2285 C2286 1.374 . S
C2286 H2260 0.950 . S
C2286 C2282 1.385 . S
C2286 C2285 1.374 . S
C2287 C2284 1.499 . S
C2287 C2288 1.373 . S
C2287 C2289 1.389 . S
C2288 H2261 0.950 . S
C2288 C2274 1.377 . S
C2288 C2287 1.373 . S
C2289 C2273 1.377 . S
C2289 C2287 1.389 . S
C2289 C2290 1.524 . S
C2290 C2289 1.524 . S
C2290 C2291 1.397 . S
C2290 C2295 1.363 . S
C2291 H2262 0.950 . S
C2291 C2290 1.397 . S
C2291 C2292 1.334 . S
C2292 H2263 0.950 . S
C2292 C2291 1.334 . S
C2292 C2293 1.287 . S
C2293 C2292 1.287 . S
C2293 C2294 1.524 . S
C2293 H2296 0.999 . S
C2294 H2264 0.950 . S
C2294 C2293 1.524 . S
C2294 C2295 1.415 . S
C2295 H2265 0.950 . S
C2295 C2290 1.363 . S
C2295 C2294 1.415 . S
H2296 C2293 0.999 . S
H2297 C2278 0.913 . S
H2298 C2316 0.951 . S
H2299 C2318 0.951 . S
H2300 C2320 0.950 . S
H2301 C2321 0.950 . S
H2302 C2323 0.950 . S
H2303 C2326 0.950 . S
H2304 C2327 0.950 1_556 S
H2305 C2329 0.950 . S
H2306 C2330 0.950 . S
H2307 C2331 0.951 . S
H2308 C2333 0.951 . S
H2309 C2335 0.950 . S
H2310 C2336 0.950 . S
H2311 C2338 0.950 . S
H2312 C2341 0.950 . S
H2313 C2342 0.950 . S
H2314 C2344 0.950 . S
H2315 C2345 0.950 . S
C2316 H2298 0.951 . S
C2316 C2317 1.366 1_554 S
C2316 C2318 1.388 . S
C2317 C2316 1.366 1_556 S
C2317 C2321 1.385 . S
C2318 H2299 0.951 . S
C2318 C2316 1.388 . S
C2318 C2319 1.366 . S
C2319 C2318 1.366 . S
C2319 C2320 1.414 1_554 S
C2319 C2322 1.499 . S
C2320 H2300 0.950 . S
C2320 C2319 1.414 1_556 S
C2320 C2321 1.374 . S
C2321 H2301 0.950 . S
C2321 C2317 1.385 . S
C2321 C2320 1.374 . S
C2322 C2319 1.499 . S
C2322 C2323 1.373 . S
C2322 C2324 1.389 . S
C2323 H2302 0.950 . S
C2323 C2322 1.373 . S
C2323 C2339 1.377 . S
C2324 C2322 1.389 . S
C2324 C2325 1.524 . S
C2324 C2338 1.377 . S
C2325 C2324 1.524 . S
C2325 C2326 1.397 . S
C2325 C2330 1.363 . S
C2326 H2303 0.950 . S
C2326 C2325 1.397 . S
C2326 C2327 1.334 . S
C2327 H2304 0.950 1_554 S
C2327 C2326 1.334 . S
C2327 C2328 1.287 . S
C2328 C2327 1.287 . S
C2328 C2329 1.524 . S
C2328 H2347 0.913 . S
C2329 H2305 0.950 . S
C2329 C2328 1.524 . S
C2329 C2330 1.415 . S
C2330 H2306 0.950 . S
C2330 C2325 1.363 . S
C2330 C2329 1.415 . S
C2331 H2307 0.951 . S
C2331 C2332 1.366 . S
C2331 C2333 1.388 . S
C2332 C2331 1.366 . S
C2332 C2336 1.385 . S
C2333 H2308 0.951 . S
C2333 C2331 1.388 . S
C2333 C2334 1.366 . S
C2334 C2333 1.366 . S
C2334 C2335 1.414 . S
C2334 C2337 1.499 . S
C2335 H2309 0.950 . S
C2335 C2334 1.414 . S
C2335 C2336 1.374 . S
C2336 H2310 0.950 . S
C2336 C2332 1.385 . S
C2336 C2335 1.374 . S
C2337 C2334 1.499 . S
C2337 C2338 1.373 . S
C2337 C2339 1.389 . S
C2338 H2311 0.950 . S
C2338 C2324 1.377 . S
C2338 C2337 1.373 . S
C2339 C2323 1.377 . S
C2339 C2337 1.389 . S
C2339 C2340 1.524 . S
C2340 C2339 1.524 . S
C2340 C2341 1.397 . S
C2340 C2345 1.363 . S
C2341 H2312 0.950 . S
C2341 C2340 1.397 . S
C2341 C2342 1.334 . S
C2342 H2313 0.950 . S
C2342 C2341 1.334 . S
C2342 C2343 1.287 . S
C2343 C2342 1.287 . S
C2343 C2344 1.524 . S
C2343 H2346 0.999 . S
C2344 H2314 0.950 . S
C2344 C2343 1.524 . S
C2344 C2345 1.415 . S
C2345 H2315 0.950 . S
C2345 C2340 1.363 . S
C2345 C2344 1.415 . S
H2346 C2343 0.999 . S
H2347 C2328 0.913 . S
H2348 C2366 0.951 . S
H2349 C2368 0.951 . S
H2350 C2370 0.950 . S
H2351 C2371 0.950 . S
H2352 C2373 0.950 . S
H2353 C2376 0.950 . S
H2354 C2377 0.950 . S
H2355 C2379 0.950 . S
H2356 C2380 0.950 . S
H2357 C2381 0.951 . S
H2358 C2383 0.951 . S
H2359 C2385 0.950 . S
H2360 C2386 0.950 . S
H2361 C2388 0.950 . S
H2362 C2391 0.950 . S
H2363 C2392 0.950 . S
H2364 C2394 0.950 . S
H2365 C2395 0.950 . S
C2366 H2348 0.951 . S
C2366 C2367 1.366 . S
C2366 C2368 1.388 . S
C2367 C2366 1.366 . S
C2367 C2371 1.385 . S
C2368 H2349 0.951 . S
C2368 C2366 1.388 . S
C2368 C2369 1.366 . S
C2369 C2368 1.366 . S
C2369 C2370 1.414 . S
C2369 C2372 1.499 . S
C2370 H2350 0.950 . S
C2370 C2369 1.414 . S
C2370 C2371 1.374 . S
C2371 H2351 0.950 . S
C2371 C2367 1.385 . S
C2371 C2370 1.374 . S
C2372 C2369 1.499 . S
C2372 C2373 1.373 . S
C2372 C2374 1.389 . S
C2373 H2352 0.950 . S
C2373 C2372 1.373 . S
C2373 C2389 1.377 . S
C2374 C2372 1.389 . S
C2374 C2375 1.524 . S
C2374 C2388 1.377 . S
C2375 C2374 1.524 . S
C2375 C2376 1.397 . S
C2375 C2380 1.363 . S
C2376 H2353 0.950 . S
C2376 C2375 1.397 . S
C2376 C2377 1.334 . S
C2377 H2354 0.950 . S
C2377 C2376 1.334 . S
C2377 C2378 1.287 . S
C2378 C2377 1.287 . S
C2378 C2379 1.524 . S
C2378 H2397 0.913 . S
C2379 H2355 0.950 . S
C2379 C2378 1.524 . S
C2379 C2380 1.415 . S
C2380 H2356 0.950 . S
C2380 C2375 1.363 . S
C2380 C2379 1.415 . S
C2381 H2357 0.951 . S
C2381 C2382 1.366 . S
C2381 C2383 1.388 . S
C2382 C2381 1.366 . S
C2382 C2386 1.385 . S
C2383 H2358 0.951 . S
C2383 C2381 1.388 . S
C2383 C2384 1.366 . S
C2384 C2383 1.366 . S
C2384 C2385 1.414 . S
C2384 C2387 1.499 . S
C2385 H2359 0.950 . S
C2385 C2384 1.414 . S
C2385 C2386 1.374 . S
C2386 H2360 0.950 . S
C2386 C2382 1.385 . S
C2386 C2385 1.374 . S
C2387 C2384 1.499 . S
C2387 C2388 1.373 . S
C2387 C2389 1.389 . S
C2388 H2361 0.950 . S
C2388 C2374 1.377 . S
C2388 C2387 1.373 . S
C2389 C2373 1.377 . S
C2389 C2387 1.389 . S
C2389 C2390 1.524 . S
C2390 C2389 1.524 . S
C2390 C2391 1.397 . S
C2390 C2395 1.363 . S
C2391 H2362 0.950 . S
C2391 C2390 1.397 . S
C2391 C2392 1.334 . S
C2392 H2363 0.950 . S
C2392 C2391 1.334 . S
C2392 C2393 1.287 . S
C2393 C2392 1.287 . S
C2393 C2394 1.524 . S
C2393 H2396 0.999 . S
C2394 H2364 0.950 . S
C2394 C2393 1.524 . S
C2394 C2395 1.415 . S
C2395 H2365 0.950 . S
C2395 C2390 1.363 . S
C2395 C2394 1.415 . S
H2396 C2393 0.999 . S
H2397 C2378 0.913 . S
H2398 C2416 0.951 . S
H2399 C2418 0.951 . S
H2400 C2420 0.950 . S
H2401 C2421 0.950 . S
H2402 C2423 0.950 . S
H2403 C2426 0.950 . S
H2404 C2427 0.950 . S
H2405 C2429 0.950 . S
H2406 C2430 0.950 . S
H2407 C2431 0.951 . S
H2408 C2433 0.951 . S
H2409 C2435 0.950 . S
H2410 C2436 0.950 . S
H2411 C2438 0.950 . S
H2412 C2441 0.950 . S
H2413 C2442 0.950 . S
H2414 C2444 0.950 . S
H2415 C2445 0.950 . S
C2416 H2398 0.951 . S
C2416 C2417 1.366 . S
C2416 C2418 1.388 . S
C2417 C2416 1.366 . S
C2417 C2421 1.385 . S
C2418 H2399 0.951 . S
C2418 C2416 1.388 . S
C2418 C2419 1.366 . S
C2419 C2418 1.366 . S
C2419 C2420 1.414 . S
C2419 C2422 1.499 . S
C2420 H2400 0.950 . S
C2420 C2419 1.414 . S
C2420 C2421 1.374 . S
C2421 H2401 0.950 . S
C2421 C2417 1.385 . S
C2421 C2420 1.374 . S
C2422 C2419 1.499 . S
C2422 C2423 1.373 . S
C2422 C2424 1.389 . S
C2423 H2402 0.950 . S
C2423 C2422 1.373 . S
C2423 C2439 1.377 . S
C2424 C2422 1.389 . S
C2424 C2425 1.524 . S
C2424 C2438 1.377 . S
C2425 C2424 1.524 . S
C2425 C2426 1.397 . S
C2425 C2430 1.363 . S
C2426 H2403 0.950 . S
C2426 C2425 1.397 . S
C2426 C2427 1.334 . S
C2427 H2404 0.950 . S
C2427 C2426 1.334 . S
C2427 C2428 1.287 . S
C2428 C2427 1.287 . S
C2428 C2429 1.524 . S
C2428 H2447 0.913 . S
C2429 H2405 0.950 . S
C2429 C2428 1.524 . S
C2429 C2430 1.415 . S
C2430 H2406 0.950 . S
C2430 C2425 1.363 . S
C2430 C2429 1.415 . S
C2431 H2407 0.951 . S
C2431 C2432 1.366 . S
C2431 C2433 1.388 . S
C2432 C2431 1.366 . S
C2432 C2436 1.385 . S
C2433 H2408 0.951 . S
C2433 C2431 1.388 . S
C2433 C2434 1.366 . S
C2434 C2433 1.366 . S
C2434 C2435 1.414 . S
C2434 C2437 1.499 . S
C2435 H2409 0.950 . S
C2435 C2434 1.414 . S
C2435 C2436 1.374 . S
C2436 H2410 0.950 . S
C2436 C2432 1.385 . S
C2436 C2435 1.374 . S
C2437 C2434 1.499 . S
C2437 C2438 1.373 . S
C2437 C2439 1.389 . S
C2438 H2411 0.950 . S
C2438 C2424 1.377 . S
C2438 C2437 1.373 . S
C2439 C2423 1.377 . S
C2439 C2437 1.389 . S
C2439 C2440 1.524 . S
C2440 C2439 1.524 . S
C2440 C2441 1.397 . S
C2440 C2445 1.363 . S
C2441 H2412 0.950 . S
C2441 C2440 1.397 . S
C2441 C2442 1.334 . S
C2442 H2413 0.950 . S
C2442 C2441 1.334 . S
C2442 C2443 1.287 . S
C2443 C2442 1.287 . S
C2443 C2444 1.524 . S
C2443 H2446 0.999 . S
C2444 H2414 0.950 . S
C2444 C2443 1.524 . S
C2444 C2445 1.415 . S
C2445 H2415 0.950 . S
C2445 C2440 1.363 . S
C2445 C2444 1.415 . S
H2446 C2443 0.999 . S
H2447 C2428 0.913 . S
H2448 C2466 0.951 . S
H2449 C2468 0.951 . S
H2450 C2470 0.950 . S
H2451 C2471 0.950 . S
H2452 C2473 0.950 . S
H2453 C2476 0.950 . S
H2454 C2477 0.950 . S
H2455 C2479 0.950 . S
H2456 C2480 0.950 . S
H2457 C2481 0.951 . S
H2458 C2483 0.951 . S
H2459 C2485 0.950 . S
H2460 C2486 0.950 . S
H2461 C2488 0.950 . S
H2462 C2491 0.950 . S
H2463 C2492 0.950 . S
H2464 C2494 0.950 . S
H2465 C2495 0.950 . S
C2466 H2448 0.951 . S
C2466 C2467 1.366 . S
C2466 C2468 1.388 . S
C2467 C2466 1.366 . S
C2467 C2471 1.385 . S
C2468 H2449 0.951 . S
C2468 C2466 1.388 . S
C2468 C2469 1.366 . S
C2469 C2468 1.366 . S
C2469 C2470 1.414 . S
C2469 C2472 1.499 . S
C2470 H2450 0.950 . S
C2470 C2469 1.414 . S
C2470 C2471 1.374 . S
C2471 H2451 0.950 . S
C2471 C2467 1.385 . S
C2471 C2470 1.374 . S
C2472 C2469 1.499 . S
C2472 C2473 1.373 . S
C2472 C2474 1.389 . S
C2473 H2452 0.950 . S
C2473 C2472 1.373 . S
C2473 C2489 1.377 . S
C2474 C2472 1.389 . S
C2474 C2475 1.524 . S
C2474 C2488 1.377 . S
C2475 C2474 1.524 . S
C2475 C2476 1.397 . S
C2475 C2480 1.363 . S
C2476 H2453 0.950 . S
C2476 C2475 1.397 . S
C2476 C2477 1.334 . S
C2477 H2454 0.950 . S
C2477 C2476 1.334 . S
C2477 C2478 1.287 . S
C2478 C2477 1.287 . S
C2478 C2479 1.524 . S
C2478 H2497 0.913 . S
C2479 H2455 0.950 . S
C2479 C2478 1.524 . S
C2479 C2480 1.415 . S
C2480 H2456 0.950 . S
C2480 C2475 1.363 . S
C2480 C2479 1.415 . S
C2481 H2457 0.951 . S
C2481 C2482 1.366 . S
C2481 C2483 1.388 . S
C2482 C2481 1.366 . S
C2482 C2486 1.385 . S
C2483 H2458 0.951 . S
C2483 C2481 1.388 . S
C2483 C2484 1.366 . S
C2484 C2483 1.366 . S
C2484 C2485 1.414 . S
C2484 C2487 1.499 . S
C2485 H2459 0.950 . S
C2485 C2484 1.414 . S
C2485 C2486 1.374 . S
C2486 H2460 0.950 . S
C2486 C2482 1.385 . S
C2486 C2485 1.374 . S
C2487 C2484 1.499 . S
C2487 C2488 1.373 . S
C2487 C2489 1.389 . S
C2488 H2461 0.950 . S
C2488 C2474 1.377 . S
C2488 C2487 1.373 . S
C2489 C2473 1.377 . S
C2489 C2487 1.389 . S
C2489 C2490 1.524 . S
C2490 C2489 1.524 . S
C2490 C2491 1.397 . S
C2490 C2495 1.363 . S
C2491 H2462 0.950 . S
C2491 C2490 1.397 . S
C2491 C2492 1.334 . S
C2492 H2463 0.950 . S
C2492 C2491 1.334 . S
C2492 C2493 1.287 . S
C2493 C2492 1.287 . S
C2493 C2494 1.524 . S
C2493 H2496 0.999 . S
C2494 H2464 0.950 . S
C2494 C2493 1.524 . S
C2494 C2495 1.415 . S
C2495 H2465 0.950 . S
C2495 C2490 1.363 . S
C2495 C2494 1.415 . S
H2496 C2493 0.999 . S
H2497 C2478 0.913 . S
H2498 C2516 0.951 . S
H2499 C2518 0.951 . S
H2500 C2520 0.950 . S
H2501 C2521 0.950 . S
H2502 C2523 0.950 . S
H2503 C2526 0.950 . S
H2504 C2527 0.950 . S
H2505 C2529 0.950 . S
H2506 C2530 0.950 . S
H2507 C2531 0.951 . S
H2508 C2533 0.951 . S
H2509 C2535 0.950 . S
H2510 C2536 0.950 . S
H2511 C2538 0.950 . S
H2512 C2541 0.950 . S
H2513 C2542 0.950 . S
H2514 C2544 0.950 . S
H2515 C2545 0.950 . S
C2516 H2498 0.951 . S
C2516 C2517 1.366 . S
C2516 C2518 1.388 . S
C2517 C2516 1.366 . S
C2517 C2521 1.385 . S
C2518 H2499 0.951 . S
C2518 C2516 1.388 . S
C2518 C2519 1.366 . S
C2519 C2518 1.366 . S
C2519 C2520 1.414 . S
C2519 C2522 1.499 . S
C2520 H2500 0.950 . S
C2520 C2519 1.414 . S
C2520 C2521 1.374 . S
C2521 H2501 0.950 . S
C2521 C2517 1.385 . S
C2521 C2520 1.374 . S
C2522 C2519 1.499 . S
C2522 C2523 1.373 . S
C2522 C2524 1.389 . S
C2523 H2502 0.950 . S
C2523 C2522 1.373 . S
C2523 C2539 1.377 . S
C2524 C2522 1.389 . S
C2524 C2525 1.524 . S
C2524 C2538 1.377 . S
C2525 C2524 1.524 . S
C2525 C2526 1.397 . S
C2525 C2530 1.363 . S
C2526 H2503 0.950 . S
C2526 C2525 1.397 . S
C2526 C2527 1.334 . S
C2527 H2504 0.950 . S
C2527 C2526 1.334 . S
C2527 C2528 1.287 . S
C2528 C2527 1.287 . S
C2528 C2529 1.524 . S
C2528 H2547 0.913 . S
C2529 H2505 0.950 . S
C2529 C2528 1.524 . S
C2529 C2530 1.415 . S
C2530 H2506 0.950 . S
C2530 C2525 1.363 . S
C2530 C2529 1.415 . S
C2531 H2507 0.951 . S
C2531 C2532 1.366 . S
C2531 C2533 1.388 . S
C2532 C2531 1.366 . S
C2532 C2536 1.385 . S
C2533 H2508 0.951 . S
C2533 C2531 1.388 . S
C2533 C2534 1.366 . S
C2534 C2533 1.366 . S
C2534 C2535 1.414 . S
C2534 C2537 1.499 . S
C2535 H2509 0.950 . S
C2535 C2534 1.414 . S
C2535 C2536 1.374 . S
C2536 H2510 0.950 . S
C2536 C2532 1.385 . S
C2536 C2535 1.374 . S
C2537 C2534 1.499 . S
C2537 C2538 1.373 . S
C2537 C2539 1.389 . S
C2538 H2511 0.950 . S
C2538 C2524 1.377 . S
C2538 C2537 1.373 . S
C2539 C2523 1.377 . S
C2539 C2537 1.389 . S
C2539 C2540 1.524 . S
C2540 C2539 1.524 . S
C2540 C2541 1.397 . S
C2540 C2545 1.363 . S
C2541 H2512 0.950 . S
C2541 C2540 1.397 . S
C2541 C2542 1.334 . S
C2542 H2513 0.950 . S
C2542 C2541 1.334 . S
C2542 C2543 1.287 . S
C2543 C2542 1.287 . S
C2543 C2544 1.524 . S
C2543 H2546 0.999 . S
C2544 H2514 0.950 . S
C2544 C2543 1.524 . S
C2544 C2545 1.415 . S
C2545 H2515 0.950 . S
C2545 C2540 1.363 . S
C2545 C2544 1.415 . S
H2546 C2543 0.999 . S
H2547 C2528 0.913 . S
H2548 C2566 0.951 . S
H2549 C2568 0.951 1_554 S
H2550 C2570 0.950 . S
H2551 C2571 0.950 . S
H2552 C2573 0.950 . S
H2553 C2576 0.950 . S
H2554 C2577 0.966 . S
H2555 C2579 0.950 . S
H2556 C2580 0.950 . S
H2557 C2581 0.951 . S
H2558 C2583 0.951 . S
H2559 C2585 0.950 . S
H2560 C2586 0.950 . S
H2561 C2588 0.950 1_554 S
H2562 C2591 0.950 . S
H2563 C2592 0.950 . S
H2564 C2594 0.950 . S
H2565 C2595 0.950 . S
C2566 H2548 0.951 . S
C2566 C2567 1.366 . S
C2566 C2568 1.388 . S
C2567 C2566 1.366 . S
C2567 C2571 1.385 . S
C2568 H2549 0.951 1_556 S
C2568 C2566 1.388 . S
C2568 C2569 1.366 . S
C2569 C2568 1.366 . S
C2569 C2570 1.414 . S
C2569 C2572 1.499 . S
C2570 H2550 0.950 . S
C2570 C2569 1.414 . S
C2570 C2571 1.374 . S
C2571 H2551 0.950 . S
C2571 C2567 1.385 . S
C2571 C2570 1.374 . S
C2572 C2569 1.499 . S
C2572 C2573 1.373 . S
C2572 C2574 1.389 . S
C2573 H2552 0.950 . S
C2573 C2572 1.373 . S
C2573 C2589 1.377 . S
C2574 C2572 1.389 . S
C2574 C2575 1.524 1_556 S
C2574 C2588 1.377 . S
C2575 C2574 1.524 1_554 S
C2575 C2576 1.397 1_554 S
C2575 C2580 1.363 . S
C2576 H2553 0.950 . S
C2576 C2575 1.397 1_556 S
C2576 C2577 1.350 . S
C2577 H2554 0.966 . S
C2577 C2576 1.350 . S
C2577 C2578 1.256 1_556 S
C2578 C2577 1.256 1_554 S
C2578 C2579 1.524 . S
C2578 H2597 0.913 . S
C2579 H2555 0.950 . S
C2579 C2578 1.524 . S
C2579 C2580 1.415 . S
C2580 H2556 0.950 . S
C2580 C2575 1.363 . S
C2580 C2579 1.415 . S
C2581 H2557 0.951 . S
C2581 C2582 1.366 . S
C2581 C2583 1.388 . S
C2582 C2581 1.366 . S
C2582 C2586 1.385 1_556 S
C2583 H2558 0.951 . S
C2583 C2581 1.388 . S
C2583 C2584 1.366 . S
C2584 C2583 1.366 . S
C2584 C2585 1.414 1_556 S
C2584 C2587 1.499 . S
C2585 H2559 0.950 . S
C2585 C2584 1.414 1_554 S
C2585 C2586 1.374 . S
C2586 H2560 0.950 . S
C2586 C2582 1.385 1_554 S
C2586 C2585 1.374 . S
C2587 C2584 1.499 . S
C2587 C2588 1.373 . S
C2587 C2589 1.389 . S
C2588 H2561 0.950 1_556 S
C2588 C2574 1.377 . S
C2588 C2587 1.373 . S
C2589 C2573 1.377 . S
C2589 C2587 1.389 . S
C2589 C2590 1.524 . S
C2590 C2589 1.524 . S
C2590 C2591 1.397 . S
C2590 C2595 1.363 . S
C2591 H2562 0.950 . S
C2591 C2590 1.397 . S
C2591 C2592 1.334 . S
C2592 H2563 0.950 . S
C2592 C2591 1.334 . S
C2592 C2593 1.287 . S
C2593 C2592 1.287 . S
C2593 C2594 1.524 . S
C2593 H2596 0.999 . S
C2594 H2564 0.950 . S
C2594 C2593 1.524 . S
C2594 C2595 1.415 . S
C2595 H2565 0.950 . S
C2595 C2590 1.363 . S
C2595 C2594 1.415 . S
H2596 C2593 0.999 . S
H2597 C2578 0.913 . S
H2598 C2616 0.951 . S
H2599 C2618 0.951 . S
H2600 C2620 0.950 . S
H2601 C2621 0.950 . S
H2602 C2623 0.950 . S
H2603 C2626 0.950 . S
H2604 C2627 0.950 . S
H2605 C2629 0.950 . S
H2606 C2630 0.950 . S
H2607 C2631 0.951 . S
H2608 C2633 0.951 . S
H2609 C2635 0.950 . S
H2610 C2636 0.950 . S
H2611 C2638 0.950 . S
H2612 C2641 0.950 . S
H2613 C2642 0.950 . S
H2614 C2644 0.950 . S
H2615 C2645 0.950 . S
C2616 H2598 0.951 . S
C2616 C2617 1.366 . S
C2616 C2618 1.388 . S
C2617 C2616 1.366 . S
C2617 C2621 1.385 . S
C2618 H2599 0.951 . S
C2618 C2616 1.388 . S
C2618 C2619 1.366 . S
C2619 C2618 1.366 . S
C2619 C2620 1.414 . S
C2619 C2622 1.499 . S
C2620 H2600 0.950 . S
C2620 C2619 1.414 . S
C2620 C2621 1.374 . S
C2621 H2601 0.950 . S
C2621 C2617 1.385 . S
C2621 C2620 1.374 . S
C2622 C2619 1.499 . S
C2622 C2623 1.373 . S
C2622 C2624 1.389 . S
C2623 H2602 0.950 . S
C2623 C2622 1.373 . S
C2623 C2639 1.377 . S
C2624 C2622 1.389 . S
C2624 C2625 1.524 . S
C2624 C2638 1.377 . S
C2625 C2624 1.524 . S
C2625 C2626 1.397 . S
C2625 C2630 1.363 . S
C2626 H2603 0.950 . S
C2626 C2625 1.397 . S
C2626 C2627 1.334 . S
C2627 H2604 0.950 . S
C2627 C2626 1.334 . S
C2627 C2628 1.287 . S
C2628 C2627 1.287 . S
C2628 C2629 1.524 . S
C2628 H2647 0.913 . S
C2629 H2605 0.950 . S
C2629 C2628 1.524 . S
C2629 C2630 1.415 . S
C2630 H2606 0.950 . S
C2630 C2625 1.363 . S
C2630 C2629 1.415 . S
C2631 H2607 0.951 . S
C2631 C2632 1.366 . S
C2631 C2633 1.388 . S
C2632 C2631 1.366 . S
C2632 C2636 1.385 . S
C2633 H2608 0.951 . S
C2633 C2631 1.388 . S
C2633 C2634 1.366 . S
C2634 C2633 1.366 . S
C2634 C2635 1.414 . S
C2634 C2637 1.499 . S
C2635 H2609 0.950 . S
C2635 C2634 1.414 . S
C2635 C2636 1.374 . S
C2636 H2610 0.950 . S
C2636 C2632 1.385 . S
C2636 C2635 1.374 . S
C2637 C2634 1.499 . S
C2637 C2638 1.373 . S
C2637 C2639 1.389 . S
C2638 H2611 0.950 . S
C2638 C2624 1.377 . S
C2638 C2637 1.373 . S
C2639 C2623 1.377 . S
C2639 C2637 1.389 . S
C2639 C2640 1.524 . S
C2640 C2639 1.524 . S
C2640 C2641 1.397 . S
C2640 C2645 1.363 . S
C2641 H2612 0.950 . S
C2641 C2640 1.397 . S
C2641 C2642 1.334 . S
C2642 H2613 0.950 . S
C2642 C2641 1.334 . S
C2642 C2643 1.287 . S
C2643 C2642 1.287 . S
C2643 C2644 1.524 . S
C2643 H2646 0.999 . S
C2644 H2614 0.950 . S
C2644 C2643 1.524 . S
C2644 C2645 1.415 . S
C2645 H2615 0.950 . S
C2645 C2640 1.363 . S
C2645 C2644 1.415 . S
H2646 C2643 0.999 . S
H2647 C2628 0.913 . S
H2648 C2666 0.951 . S
H2649 C2668 0.951 . S
H2650 C2670 0.950 . S
H2651 C2671 0.950 . S
H2652 C2673 0.950 . S
H2653 C2676 0.950 . S
H2654 C2677 0.950 . S
H2655 C2679 0.950 . S
H2656 C2680 0.950 . S
H2657 C2681 0.951 . S
H2658 C2683 0.951 . S
H2659 C2685 0.950 . S
H2660 C2686 0.964 . S
H2661 C2688 0.950 . S
H2662 C2691 0.950 . S
H2663 C2692 0.950 . S
H2664 C2694 0.950 . S
H2665 C2695 0.950 . S
C2666 H2648 0.951 . S
C2666 C2667 1.366 . S
C2666 C2668 1.388 . S
C2667 C2666 1.366 . S
C2667 C2671 1.385 . S
C2668 H2649 0.951 . S
C2668 C2666 1.388 . S
C2668 C2669 1.366 . S
C2669 C2668 1.366 . S
C2669 C2670 1.414 . S
C2669 C2672 1.499 . S
C2670 H2650 0.950 . S
C2670 C2669 1.414 . S
C2670 C2671 1.374 . S
C2671 H2651 0.950 . S
C2671 C2667 1.385 . S
C2671 C2670 1.374 . S
C2672 C2669 1.499 . S
C2672 C2673 1.373 . S
C2672 C2674 1.389 . S
C2673 H2652 0.950 . S
C2673 C2672 1.373 . S
C2673 C2689 1.377 . S
C2674 C2672 1.389 . S
C2674 C2675 1.524 . S
C2674 C2688 1.377 . S
C2675 C2674 1.524 . S
C2675 C2676 1.397 . S
C2675 C2680 1.363 . S
C2676 H2653 0.950 . S
C2676 C2675 1.397 . S
C2676 C2677 1.334 . S
C2677 H2654 0.950 . S
C2677 C2676 1.334 . S
C2677 C2678 1.287 . S
C2678 C2677 1.287 . S
C2678 C2679 1.524 . S
C2678 H2697 0.913 . S
C2679 H2655 0.950 . S
C2679 C2678 1.524 . S
C2679 C2680 1.415 . S
C2680 H2656 0.950 . S
C2680 C2675 1.363 . S
C2680 C2679 1.415 . S
C2681 H2657 0.951 . S
C2681 C2682 1.366 . S
C2681 C2683 1.388 . S
C2682 C2681 1.366 . S
C2682 C2686 1.385 . S
C2683 H2658 0.951 . S
C2683 C2681 1.388 . S
C2683 C2684 1.366 . S
C2684 C2683 1.366 . S
C2684 C2685 1.414 . S
C2684 C2687 1.499 . S
C2685 H2659 0.950 . S
C2685 C2684 1.414 . S
C2685 C2686 1.374 . S
C2686 H2660 0.964 . S
C2686 C2682 1.385 . S
C2686 C2685 1.374 . S
C2687 C2684 1.499 . S
C2687 C2688 1.373 . S
C2687 C2689 1.389 . S
C2688 H2661 0.950 . S
C2688 C2674 1.377 . S
C2688 C2687 1.373 . S
C2689 C2673 1.377 . S
C2689 C2687 1.389 . S
C2689 C2690 1.501 1_554 S
C2690 C2689 1.501 1_556 S
C2690 C2691 1.440 . S
C2690 C2695 1.347 1_556 S
C2691 H2662 0.950 . S
C2691 C2690 1.440 . S
C2691 C2692 1.334 . S
C2692 H2663 0.950 . S
C2692 C2691 1.334 . S
C2692 C2693 1.287 . S
C2693 C2692 1.287 . S
C2693 C2694 1.524 . S
C2693 H2696 0.999 . S
C2694 H2664 0.950 . S
C2694 C2693 1.524 . S
C2694 C2695 1.415 1_556 S
C2695 H2665 0.950 . S
C2695 C2690 1.347 1_554 S
C2695 C2694 1.415 1_554 S
H2696 C2693 0.999 . S
H2697 C2678 0.913 . S
H2698 C2716 0.951 . S
H2699 C2718 0.951 . S
H2700 C2720 0.950 . S
H2701 C2721 0.967 . S
H2702 C2723 0.950 . S
H2703 C2726 0.973 . S
H2704 C2727 0.950 . S
H2705 C2729 0.950 . S
H2706 C2730 0.950 . S
H2707 C2731 0.951 . S
H2708 C2733 0.951 . S
H2709 C2735 0.950 . S
H2710 C2736 0.950 . S
H2711 C2738 0.950 . S
H2712 C2741 0.950 . S
H2713 C2742 0.950 . S
H2714 C2744 0.950 . S
H2715 C2745 0.950 . S
C2716 H2698 0.951 . S
C2716 C2717 1.366 . S
C2716 C2718 1.388 . S
C2717 C2716 1.366 . S
C2717 C2721 1.385 . S
C2718 H2699 0.951 . S
C2718 C2716 1.388 . S
C2718 C2719 1.366 . S
C2719 C2718 1.366 . S
C2719 C2720 1.414 1_545 S
C2719 C2722 1.499 1_545 S
C2720 H2700 0.950 . S
C2720 C2719 1.414 1_565 S
C2720 C2721 1.374 1_565 S
C2721 H2701 0.967 . S
C2721 C2717 1.385 . S
C2721 C2720 1.374 1_545 S
C2722 C2719 1.499 1_565 S
C2722 C2723 1.373 . S
C2722 C2724 1.389 . S
C2723 H2702 0.950 . S
C2723 C2722 1.373 . S
C2723 C2739 1.377 . S
C2724 C2722 1.389 . S
C2724 C2725 1.530 1_554 S
C2724 C2738 1.377 . S
C2725 C2724 1.530 1_556 S
C2725 C2726 1.395 . S
C2725 C2730 1.359 1_565 S
C2726 H2703 0.973 . S
C2726 C2725 1.395 . S
C2726 C2727 1.334 . S
C2727 H2704 0.950 . S
C2727 C2726 1.334 . S
C2727 C2728 1.287 1_565 S
C2728 C2727 1.287 1_545 S
C2728 C2729 1.524 . S
C2728 H2747 0.913 . S
C2729 H2705 0.950 . S
C2729 C2728 1.524 . S
C2729 C2730 1.415 . S
C2730 H2706 0.950 . S
C2730 C2725 1.359 1_545 S
C2730 C2729 1.415 . S
C2731 H2707 0.951 . S
C2731 C2732 1.366 . S
C2731 C2733 1.388 . S
C2732 C2731 1.366 . S
C2732 C2736 1.385 . S
C2733 H2708 0.951 . S
C2733 C2731 1.388 . S
C2733 C2734 1.366 . S
C2734 C2733 1.366 . S
C2734 C2735 1.414 . S
C2734 C2737 1.499 . S
C2735 H2709 0.950 . S
C2735 C2734 1.414 . S
C2735 C2736 1.374 . S
C2736 H2710 0.950 . S
C2736 C2732 1.385 . S
C2736 C2735 1.374 . S
C2737 C2734 1.499 . S
C2737 C2738 1.373 . S
C2737 C2739 1.389 . S
C2738 H2711 0.950 . S
C2738 C2724 1.377 . S
C2738 C2737 1.373 . S
C2739 C2723 1.377 . S
C2739 C2737 1.389 . S
C2739 C2740 1.524 . S
C2740 C2739 1.524 . S
C2740 C2741 1.397 . S
C2740 C2745 1.363 . S
C2741 H2712 0.950 . S
C2741 C2740 1.397 . S
C2741 C2742 1.334 . S
C2742 H2713 0.950 . S
C2742 C2741 1.334 . S
C2742 C2743 1.287 . S
C2743 C2742 1.287 . S
C2743 C2744 1.524 . S
C2743 H2746 0.999 . S
C2744 H2714 0.950 . S
C2744 C2743 1.524 . S
C2744 C2745 1.415 . S
C2745 H2715 0.950 . S
C2745 C2740 1.363 . S
C2745 C2744 1.415 . S
H2746 C2743 0.999 . S
H2747 C2728 0.913 . S
C382 C202 1.672 . S
C367 C66 1.696 . S
C432 C215 1.164 . S
C417 C76 1.170 . S
C467 C93 1.839 . S
C482 C228 1.808 . S
C532 C241 1.467 . S
C517 C54 1.494 . S
C582 C249 1.465 . S
C567 C126 1.482 . S
C632 C262 1.779 . S
C617 C150 1.797 . S
C667 C136 1.110 . S
C682 C275 1.098 . S
C732 C288 1.790 . S
C717 C117 1.810 . S
C767 C141 1.169 . S
C782 C306 1.157 . S
C832 C317 1.313 . S
C817 C112 1.327 . S
C867 C124 1.510 . S
C882 C301 1.488 . S
C932 C309 1.216 . S
C917 C148 1.222 . S
C967 C88 1.236 . S
C982 C332 1.234 . S
C1017 C52 1.617 . S
C1032 C322 1.597 . S
C1067 C64 1.225 . S
C1082 C327 1.208 . S
C1117 C78 1.217 . S
C1132 C330 1.195 . S
C1167 C45 1.704 . S
C1182 C239 1.690 1_565 S
C1217 C177 1.846 . S
C1232 C231 1.828 . S
C1282 C200 1.441 . S
C1267 C189 1.448 . S
C1332 C205 1.611 . S
C1317 C102 1.635 . S
C1367 C57 1.771 1_545 S
C1382 C252 1.775 . S
C1432 C291 1.440 . S
C1417 C138 1.478 . S
C1482 C244 1.814 . S
C1467 C114 1.830 1_545 S
C1532 C270 1.676 . S
C1517 C153 1.713 . S
C1582 C280 1.673 . S
C1567 C174 1.696 . S
C1617 C184 1.170 . S
C1632 C293 1.164 . S
C1667 C105 1.839 . S
C1682 C254 1.809 . S
C1732 C267 1.467 . S
C1717 C162 1.494 . S
C1767 C42 1.482 . S
C1782 C223 1.465 . S
C1832 C236 1.779 . S
C1817 C6 1.798 . S
C1882 C197 1.098 . S
C1867 C16 1.110 . S
C1932 C210 1.789 . S
C1917 C33 1.787 1_455 S
C1967 C21 1.169 . S
C1982 C319 1.158 . S
C2017 C28 1.327 1_556 S
C2032 C304 1.314 . S
C2067 C40 1.510 . S
C2082 C314 1.487 . S
C2117 C4 1.230 . S
C2132 C296 1.216 . S
C2182 C345 1.234 . S
C2167 C100 1.236 . S
C2232 C335 1.598 . S
C2217 C160 1.617 1_554 S
C2282 C340 1.208 . S
C2267 C172 1.225 . S
C2317 C186 1.217 . S
C2332 C343 1.195 . S
C2367 C129 1.705 . S
C2382 C265 1.690 . S
C2432 C257 1.827 . S
C2417 C69 1.846 . S
C2482 C278 1.441 . S
C2467 C81 1.448 . S
C2532 C283 1.610 . S
C2517 C90 1.635 . S
C2567 C165 1.793 . S
C2582 C226 1.775 . S
C2632 C213 1.440 . S
C2617 C18 1.478 . S
C2667 C30 1.830 . S
C2682 C218 1.813 . S
C2732 C192 1.676 . S
C2717 C9 1.713 . S
