# Generated by pormake.
# Topology zzz, (3,6)-cn, num edge types: 1
# Building blocks:
#     Node 0, Type 0, BuildingBlock: BETDAH_clean_linker_0, # of connection points: 3
#     Node 1, Type 0, BuildingBlock: BETDAH_clean_linker_0, # of connection points: 3
#     Node 2, Type 0, BuildingBlock: BETDAH_clean_linker_0, # of connection points: 3
#     Node 3, Type 0, BuildingBlock: BETDAH_clean_linker_0, # of connection points: 3
#     Node 4, Type 0, BuildingBlock: BETDAH_clean_linker_0, # of connection points: 3
#     Node 5, Type 0, BuildingBlock: BETDAH_clean_linker_0, # of connection points: 3
#     Node 6, Type 0, BuildingBlock: BETDAH_clean_linker_0, # of connection points: 3
#     Node 7, Type 0, BuildingBlock: BETDAH_clean_linker_0, # of connection points: 3
#     Node 8, Type 1, BuildingBlock: PAMTOO_clean_sbu_0, # of connection points: 6
#     Node 9, Type 1, BuildingBlock: PAMTOO_clean_sbu_0, # of connection points: 6
#     Node 10, Type 1, BuildingBlock: PAMTOO_clean_sbu_0, # of connection points: 6
#     Node 11, Type 1, BuildingBlock: PAMTOO_clean_sbu_0, # of connection points: 6
#     Edge 12, Type (0, 1), BuildingBlock: EZIPEK_clean_linker_0, # of connection points: 2
#     Edge 13, Type (0, 1), BuildingBlock: EZIPEK_clean_linker_0, # of connection points: 2
#     Edge 14, Type (0, 1), BuildingBlock: EZIPEK_clean_linker_0, # of connection points: 2
#     Edge 15, Type (0, 1), BuildingBlock: EZIPEK_clean_linker_0, # of connection points: 2
#     Edge 16, Type (0, 1), BuildingBlock: EZIPEK_clean_linker_0, # of connection points: 2
#     Edge 17, Type (0, 1), BuildingBlock: EZIPEK_clean_linker_0, # of connection points: 2
#     Edge 18, Type (0, 1), BuildingBlock: EZIPEK_clean_linker_0, # of connection points: 2
#     Edge 19, Type (0, 1), BuildingBlock: EZIPEK_clean_linker_0, # of connection points: 2
#     Edge 20, Type (0, 1), BuildingBlock: EZIPEK_clean_linker_0, # of connection points: 2
#     Edge 21, Type (0, 1), BuildingBlock: EZIPEK_clean_linker_0, # of connection points: 2
#     Edge 22, Type (0, 1), BuildingBlock: EZIPEK_clean_linker_0, # of connection points: 2
#     Edge 23, Type (0, 1), BuildingBlock: EZIPEK_clean_linker_0, # of connection points: 2
#     Edge 24, Type (0, 1), BuildingBlock: EZIPEK_clean_linker_0, # of connection points: 2
#     Edge 25, Type (0, 1), BuildingBlock: EZIPEK_clean_linker_0, # of connection points: 2
#     Edge 26, Type (0, 1), BuildingBlock: EZIPEK_clean_linker_0, # of connection points: 2
#     Edge 27, Type (0, 1), BuildingBlock: EZIPEK_clean_linker_0, # of connection points: 2
#     Edge 28, Type (0, 1), BuildingBlock: EZIPEK_clean_linker_0, # of connection points: 2
#     Edge 29, Type (0, 1), BuildingBlock: EZIPEK_clean_linker_0, # of connection points: 2
#     Edge 30, Type (0, 1), BuildingBlock: EZIPEK_clean_linker_0, # of connection points: 2
#     Edge 31, Type (0, 1), BuildingBlock: EZIPEK_clean_linker_0, # of connection points: 2
#     Edge 32, Type (0, 1), BuildingBlock: EZIPEK_clean_linker_0, # of connection points: 2
#     Edge 33, Type (0, 1), BuildingBlock: EZIPEK_clean_linker_0, # of connection points: 2
#     Edge 34, Type (0, 1), BuildingBlock: EZIPEK_clean_linker_0, # of connection points: 2
#     Edge 35, Type (0, 1), BuildingBlock: EZIPEK_clean_linker_0, # of connection points: 2
# Relax obj value: 0.286
# Max RMSD: 0.250
# Mean RMSD: 0.132
data_MOF--net-zzz--node1-PAMTOO_clean_sbu_0--node2-BETDAH_clean_linker_0--edge1-EZIPEK_clean_linker_0
_symmetry_space_group_name_H-M    P1
_symmetry_Int_Tables_number       1
_symmetry_cell_setting            triclinic
loop_
_symmetry_equiv_pos_as_xyz
'x, y, z'
_cell_length_a     44.026213
_cell_length_b     35.993507
_cell_length_c     11.676925
_cell_angle_alpha  93.665198
_cell_angle_beta   76.900637
_cell_angle_gamma 85.092641
loop_
_atom_site_label
_atom_site_type_symbol
_atom_site_fract_x
_atom_site_fract_y
_atom_site_fract_z
_atom_type_partial_charge
H0 H 0.88814 0.45602 0.53715 0.0
H1 H 0.79787 0.46481 0.45326 0.0
H2 H 0.8209 0.55012 0.68717 0.0
C3 C 0.86505 0.47093 0.54773 0.0
C4 C 0.85676 0.50358 0.62429 0.0
C5 C 0.84405 0.45713 0.48506 0.0
C6 C 0.8142 0.47621 0.49945 0.0
C7 C 0.80622 0.51091 0.5664 0.0
C8 C 0.82724 0.52398 0.6321 0.0
N9 N 0.77783 0.53333 0.56574 0.0
C10 C 0.75909 0.52674 0.48528 0.0
H11 H 0.05299 0.80591 0.50367 0.0
H12 H 0.04487 0.69407 0.37083 0.0
H13 H 0.98795 0.73982 0.71001 0.0
C14 C 0.04247 0.77978 0.51483 0.0
C15 C 0.02037 0.77623 0.6191 0.0
C16 C 0.05137 0.75055 0.42475 0.0
C17 C 0.03733 0.71711 0.43831 0.0
C18 C 1.01342 0.71347 0.53884 0.0
C19 C 1.00571 0.74275 0.631 0.0
N20 N 0.99651 0.68119 0.54763 0.0
C21 C 0.99699 0.65544 0.45174 0.0
H22 H 0.67264 0.05039 0.45615 0.0
H23 H 0.77044 0.04106 0.28681 0.0
H24 H 0.73652 0.97062 0.56497 0.0
C25 C 0.69637 0.03816 0.45134 0.0
C26 C 0.70081 0.00926 0.52189 0.0
C27 C 0.72095 0.0487 0.36476 0.0
C28 C 0.75184 0.03307 0.35537 0.0
C29 C 0.7582 0.0057 0.43001 0.0
C30 C 0.73225 0.99316 0.51168 0.0
N31 N 0.78979 0.98927 0.42193 0.0
C32 C 0.81811 0.99679 0.34474 0.0
H33 H 0.48612 0.65446 0.45037 0.0
H34 H 0.50374 0.74658 0.24046 0.0
H35 H 0.52831 0.74674 0.57905 0.0
C36 C 0.49352 0.68243 0.44236 0.0
C37 C 0.50784 0.69762 0.52663 0.0
C38 C 0.49378 0.69852 0.33695 0.0
C39 C 0.50357 0.73444 0.32257 0.0
C40 C 0.51502 0.75303 0.41204 0.0
C41 C 0.51788 0.73382 0.51302 0.0
N42 N 0.52599 0.78936 0.40046 0.0
C43 C 0.52375 0.81398 0.31278 0.0
H44 H 0.16637 0.56701 0.18609 0.0
H45 H 0.25462 0.5448 0.27663 0.0
H46 H 0.23387 0.47864 0.98755 0.0
C47 C 0.18904 0.55066 0.16912 0.0
C48 C 0.19726 0.5222 0.07594 0.0
C49 C 0.20997 0.55898 0.23907 0.0
C50 C 0.23902 0.53798 0.22051 0.0
C51 C 0.24757 0.50801 0.13309 0.0
C52 C 0.227 0.50092 0.058 0.0
N53 N 0.27638 0.48482 0.12125 0.0
C54 C 0.29531 0.48684 0.20331 0.0
H55 H 0.99834 0.20496 0.30843 0.0
H56 H 0.02236 0.31541 0.37019 0.0
H57 H 0.03484 0.26656 0.01256 0.0
C58 C 1.00536 0.23093 0.27322 0.0
C59 C 1.01574 0.23169 0.15125 0.0
C60 C 1.00878 0.26071 0.35096 0.0
C61 C 0.019 0.29355 0.30769 0.0
C62 C 0.02719 0.29694 0.18564 0.0
C63 C 0.0264 0.26533 0.1067 0.0
N64 N 0.03811 0.33094 0.14289 0.0
C65 C 0.03902 0.3625 0.21892 0.0
H66 H 0.34699 0.96539 0.4019 0.0
H67 H 0.24871 0.96689 0.55944 0.0
H68 H 0.27965 0.02429 0.24526 0.0
C69 C 0.32287 0.97447 0.40114 0.0
C70 C 0.31694 0.99601 0.31181 0.0
C71 C 0.29854 0.96412 0.48953 0.0
C72 C 0.26715 0.97529 0.49063 0.0
C73 C 0.25973 0.99739 0.40379 0.0
C74 C 0.28494 0.00762 0.31356 0.0
N75 N 0.22753 0.00944 0.40481 0.0
C76 C 0.20018 1.00287 0.48915 0.0
H77 H 0.50591 0.36092 0.43575 0.0
H78 H 0.5192 0.2536 0.56599 0.0
H79 H 0.49789 0.26197 0.22346 0.0
C80 C 0.50614 0.33067 0.42372 0.0
C81 C 0.50134 0.31457 0.31882 0.0
C82 C 0.51401 0.30901 0.50921 0.0
C83 C 0.51375 0.26997 0.49745 0.0
C84 C 0.50675 0.25253 0.39609 0.0
C85 C 0.50152 0.27508 0.30469 0.0
N86 N 0.50592 0.21276 0.38137 0.0
C87 C 0.50704 0.18702 0.46683 0.0
Dy88 Dy 0.99705 0.00964 0.81444 0.0
Dy89 Dy 0.02412 0.99088 0.04219 0.0
C90 C 0.07257 0.99768 0.78493 0.0
O91 O 0.99681 0.94775 0.80449 0.0
O92 O 0.02302 0.93408 0.94859 0.0
O93 O 0.99916 0.00646 0.62706 0.0
O94 O 0.96179 0.04151 0.74925 0.0
O95 O 0.97166 0.99655 0.11952 0.0
O96 O 0.95274 1.00438 0.95346 0.0
O97 O 1.01132 0.053 0.07417 0.0
O98 O 1.01217 0.06357 0.88309 0.0
O99 O 0.02128 0.96475 0.20479 0.0
O100 O 0.06128 0.99419 0.13498 0.0
C101 C 1.01019 0.92346 0.86164 0.0
O102 O 0.04898 0.99775 0.73313 0.0
O103 O 0.0677 0.99854 0.90087 0.0
C104 C 0.98925 0.06871 0.59066 0.0
C105 C 1.00179 0.14286 0.56411 0.0
C106 C 0.01981 0.11973 0.62048 0.0
C107 C 1.01468 0.08244 0.62763 0.0
C108 C 0.97128 0.09144 0.53291 0.0
C109 C 0.97813 0.1282 0.51675 0.0
C110 C 0.97796 0.03501 0.64045 0.0
C111 C 0.94806 1.00046 0.06746 0.0
C112 C 1.01213 0.07606 0.99117 0.0
C113 C 0.07 0.93677 0.21482 0.0
C114 C 0.09205 0.86125 0.20916 0.0
C115 C 0.10065 0.88053 0.10814 0.0
C116 C 0.08921 0.91809 0.11044 0.0
C117 C 0.0649 0.91869 0.319 0.0
C118 C 0.07581 0.88107 0.31613 0.0
C119 C 0.04971 0.9708 0.20975 0.0
H120 H 0.03788 0.13051 0.65876 0.0
H121 H 0.02936 0.06493 0.66945 0.0
H122 H 0.95133 0.08141 0.50536 0.0
H123 H 0.96401 0.14577 0.47246 0.0
H124 H 0.11343 0.86568 0.02531 0.0
H125 H 0.09323 0.9315 0.02862 0.0
H126 H 0.0501 0.9326 0.40005 0.0
H127 H 0.06929 0.86665 0.39538 0.0
Dy128 Dy 0.5008 0.97494 0.80127 0.0
Dy129 Dy 0.51504 0.03026 0.00722 0.0
C130 C 0.50483 0.06246 0.7673 0.0
O131 O 0.55403 0.96945 0.76035 0.0
O132 O 0.56147 0.02148 0.87148 0.0
O133 O 0.48385 0.96726 0.64331 0.0
O134 O 0.50018 0.91892 0.72227 0.0
O135 O 0.53178 0.97167 0.04079 0.0
O136 O 0.49736 0.94173 0.9596 0.0
O137 O 0.46443 0.0189 0.08 0.0
O138 O 0.45239 0.99847 0.9072 0.0
O139 O 0.52561 0.03978 0.17856 0.0
O140 O 0.52027 0.08613 0.07422 0.0
C141 C 0.57249 0.99401 0.78793 0.0
O142 O 0.51148 0.02826 0.71608 0.0
O143 O 0.49836 0.0684 0.88293 0.0
C144 C 0.45541 0.91561 0.6413 0.0
C145 C 0.392 0.90715 0.65463 0.0
C146 C 0.4057 0.89628 0.74628 0.0
C147 C 0.43733 0.90074 0.73996 0.0
C148 C 0.4424 0.92229 0.54474 0.0
C149 C 0.41092 0.91823 0.55151 0.0
C150 C 0.48506 0.93104 0.64573 0.0
C151 C 0.51636 0.94231 0.03128 0.0
C152 C 0.44356 0.00917 0.02114 0.0
C153 C 0.56013 0.08606 0.17967 0.0
C154 C 0.62154 0.09435 0.20158 0.0
C155 C 0.59793 0.08974 0.30147 0.0
C156 C 0.56737 0.08573 0.29062 0.0
C157 C 0.58335 0.09316 0.08117 0.0
C158 C 0.61378 0.09764 0.09234 0.0
C159 C 0.52974 0.07476 0.16508 0.0
H160 H 0.39144 0.88715 0.82573 0.0
H161 H 0.447 0.89488 0.815 0.0
H162 H 0.45585 0.93354 0.46769 0.0
H163 H 0.40078 0.92631 0.47928 0.0
H164 H 0.60359 0.08695 0.38633 0.0
H165 H 0.54983 0.08031 0.36756 0.0
H166 H 0.57846 0.09334 0.99435 0.0
H167 H 0.63179 0.10088 0.01434 0.0
Dy168 Dy 0.54646 0.50336 0.91731 0.0
Dy169 Dy 0.46996 0.5045 0.90036 0.0
C170 C 0.49737 0.44716 0.05928 0.0
O171 O 0.54508 0.44918 0.81876 0.0
O172 O 0.50139 0.46676 0.75042 0.0
O173 O 0.5676 0.5093 0.06289 0.0
O174 O 0.59829 0.50185 0.88359 0.0
O175 O 0.48955 0.55527 0.82433 0.0
O176 O 0.54289 0.54009 0.76797 0.0
O177 O 0.46733 0.54214 0.0636 0.0
O178 O 0.51845 0.55519 0.0072 0.0
O179 O 0.42826 0.53533 0.86952 0.0
O180 O 0.43042 0.47546 0.87467 0.0
C181 C 0.52458 0.44181 0.75696 0.0
O182 O 0.52564 0.45423 0.00438 0.0
O183 O 0.47239 0.46848 0.04982 0.0
C184 C 0.62272 0.50989 0.05819 0.0
C185 C 0.67139 0.51365 0.1824 0.0
C186 C 0.63986 0.52282 0.24111 0.0
C187 C 0.61596 0.52092 0.18023 0.0
C188 C 0.65438 0.50114 0.99859 0.0
C189 C 0.67847 0.5029 0.06017 0.0
C190 C 0.59622 0.50657 0.99812 0.0
C191 C 0.51741 0.56247 0.76613 0.0
C192 C 0.48989 0.56318 0.07139 0.0
C193 C 0.39937 0.50296 0.75126 0.0
C194 C 0.36744 0.49736 0.56487 0.0
C195 C 0.39625 0.47582 0.55691 0.0
C196 C 0.41208 0.47862 0.64897 0.0
C197 C 0.3708 0.52468 0.75831 0.0
C198 C 0.35507 0.52199 0.66642 0.0
C199 C 0.41455 0.50542 0.85337 0.0
H200 H 0.63368 0.53118 0.33495 0.0
H201 H 0.59197 0.52788 0.22983 0.0
H202 H 0.66049 0.49243 0.90503 0.0
H203 H 0.70262 0.49563 0.01271 0.0
H204 H 0.40632 0.45658 0.47985 0.0
H205 H 0.43406 0.4615 0.64069 0.0
H206 H 0.36037 0.54354 0.83604 0.0
H207 H 0.33294 0.53885 0.67522 0.0
Dy208 Dy 0.03649 0.55007 0.74638 0.0
Dy209 Dy 0.02462 0.47545 0.88488 0.0
C210 C 0.04075 0.4705 0.60836 0.0
O211 O 0.98435 0.54986 0.77782 0.0
O212 O 0.97766 0.49204 0.84474 0.0
O213 O 0.03041 0.61022 0.73982 0.0
O214 O 0.05613 0.57431 0.58617 0.0
O215 O 1.0018 0.52275 0.02062 0.0
O216 O 0.0316 0.56768 0.9379 0.0
O217 O 0.06951 0.49245 0.92171 0.0
O218 O 0.08467 0.52744 0.76569 0.0
O219 O 0.029 0.44065 0.02538 0.0
O220 O 1.01209 0.41878 0.87732 0.0
C221 C 0.96621 0.52335 0.80981 0.0
O222 O 0.02825 0.50516 0.61723 0.0
O223 O 0.05037 0.45756 0.69777 0.0
C224 C 0.0732 0.6331 0.61033 0.0
C225 C 0.13439 0.65375 0.54656 0.0
C226 C 0.11646 0.6495 0.46129 0.0
C227 C 0.08613 0.63925 0.49319 0.0
C228 C 0.08863 0.64361 0.6982 0.0
C229 C 0.1189 0.65464 0.66647 0.0
C230 C 0.0479 0.60864 0.63287 0.0
C231 C 1.01302 0.55534 0.02908 0.0
C232 C 0.09078 0.51041 0.85614 0.0
C233 C 0.98943 0.39966 0.06203 0.0
C234 C 0.93271 0.37891 0.19191 0.0
C235 C 0.94407 0.41227 0.22505 0.0
C236 C 0.97212 0.42263 0.16062 0.0
C237 C 0.9791 0.36514 0.03286 0.0
C238 C 0.95073 0.35477 0.09759 0.0
C239 C 1.01609 0.41338 0.98231 0.0
H240 H 0.12691 0.64932 0.36791 0.0
H241 H 0.07424 0.63195 0.42437 0.0
H242 H 0.07853 0.64028 0.79009 0.0
H243 H 0.13086 0.6605 0.73559 0.0
H244 H 0.93029 0.43135 0.29742 0.0
H245 H 0.97943 0.44942 0.18499 0.0
H246 H 0.99225 0.34711 0.9568 0.0
H247 H 0.94212 0.3291 0.07064 0.0
C248 C 0.15609 0.02705 0.66474 0.0
C249 C 0.16877 0.99974 0.56842 0.0
C250 C 0.11957 0.96888 0.61996 0.0
C251 C 0.10585 0.99814 0.70987 0.0
N252 N 0.10942 0.05946 0.79789 0.0
N253 N 0.16093 0.94681 0.44569 0.0
C254 C 0.12382 0.02827 0.72729 0.0
C255 C 0.14999 0.97125 0.54382 0.0
N256 N 0.175 0.05191 0.69743 0.0
N257 N 0.10397 0.93805 0.60965 0.0
H258 H 0.18327 0.9468 0.39114 0.0
H259 H 0.14726 0.92826 0.41388 0.0
H260 H 0.08194 0.9353 0.66274 0.0
H261 H 0.11376 0.91395 0.55523 0.0
H262 H 0.16837 0.06991 0.77428 0.0
H263 H 0.19838 0.05224 0.65303 0.0
H264 H 0.12007 0.08394 0.80579 0.0
H265 H 0.08559 0.06239 0.83834 0.0
C266 C 0.52911 0.15091 0.61337 0.0
C267 C 0.50657 0.15583 0.54411 0.0
C268 C 0.48186 0.10103 0.62643 0.0
C269 C 0.50513 0.09511 0.69207 0.0
N270 N 0.55349 0.11124 0.736 0.0
N271 N 0.46473 0.13192 0.4692 0.0
C272 C 0.52937 0.11937 0.6827 0.0
C273 C 0.48387 0.12982 0.54641 0.0
N274 N 0.55028 0.17657 0.61318 0.0
N275 N 0.45708 0.07993 0.64385 0.0
H276 H 0.46493 0.15291 0.41151 0.0
H277 H 0.45034 0.11139 0.45561 0.0
H278 H 0.45487 0.05863 0.70084 0.0
H279 H 0.43745 0.08531 0.60953 0.0
H280 H 0.56493 0.17765 0.67158 0.0
H281 H 0.5522 0.19822 0.55761 0.0
H282 H 0.57375 0.12486 0.72269 0.0
H283 H 0.55432 0.08888 0.78806 0.0
C284 C 0.30184 0.47757 0.40746 0.0
C285 C 0.31398 0.48894 0.29323 0.0
C286 C 0.36061 0.50756 0.3576 0.0
C287 C 0.34957 0.49353 0.46922 0.0
N288 N 0.3124 0.45878 0.59193 0.0
N289 N 0.35677 0.50999 0.1534 0.0
C290 C 0.32089 0.47679 0.49172 0.0
C291 C 0.34396 0.50247 0.26649 0.0
N292 N 0.27175 0.46825 0.43665 0.0
N293 N 0.38631 0.52715 0.3402 0.0
H294 H 0.34496 0.50752 0.08566 0.0
H295 H 0.37985 0.51598 0.12461 0.0
H296 H 0.39897 0.53154 0.40442 0.0
H297 H 0.39367 0.54159 0.26607 0.0
H298 H 0.2602 0.46396 0.52226 0.0
H299 H 0.25736 0.46766 0.3769 0.0
H300 H 0.29363 0.44258 0.60778 0.0
H301 H 0.32583 0.45713 0.65478 0.0
C302 C 0.06408 0.41442 0.30443 0.0
C303 C 0.03832 0.3928 0.31046 0.0
C304 C 1.0143 0.42217 0.51011 0.0
C305 C 0.03975 0.44441 0.50406 0.0
N306 N 0.08587 0.46693 0.38787 0.0
N307 N 0.98555 0.38264 0.40593 0.0
C308 C 0.06372 0.44217 0.39856 0.0
C309 C 1.01239 0.39876 0.40931 0.0
N310 N 0.08921 0.4078 0.20991 0.0
N311 N 0.99225 0.42262 0.61353 0.0
H312 H 0.98336 0.36526 0.33392 0.0
H313 H 0.96455 0.38911 0.46901 0.0
H314 H 0.99225 0.44005 0.68793 0.0
H315 H 0.97532 0.40385 0.62859 0.0
H316 H 0.11026 0.41936 0.20564 0.0
H317 H 0.08959 0.38896 0.13772 0.0
H318 H 0.10207 0.46963 0.30946 0.0
H319 H 0.08662 0.48684 0.45589 0.0
C320 C 0.86106 0.03181 0.22641 0.0
C321 C 0.85093 0.99824 0.27392 0.0
C322 C 0.90414 0.96602 0.18392 0.0
C323 C 0.91462 0.99988 0.13998 0.0
N324 N 0.90411 0.06618 0.13158 0.0
N325 N 0.8644 0.93466 0.31191 0.0
C326 C 0.89322 0.03304 0.16407 0.0
C327 C 0.87298 0.96574 0.25625 0.0
N328 N 0.8398 0.06267 0.24065 0.0
N329 N 0.92374 0.93359 0.15294 0.0
H330 H 0.84184 0.93281 0.36225 0.0
H331 H 0.88003 0.91163 0.31559 0.0
H332 H 0.94678 0.93276 0.10392 0.0
H333 H 0.9167 0.90713 0.16831 0.0
H334 H 0.84397 0.08675 0.19734 0.0
H335 H 0.81712 0.0636 0.29281 0.0
H336 H 0.89119 0.09219 0.1557 0.0
H337 H 0.92719 0.06808 0.08654 0.0
C338 C 0.52265 0.88296 0.29101 0.0
C339 C 0.52358 0.84598 0.23868 0.0
C340 C 0.52594 0.87204 0.04622 0.0
C341 C 0.52013 0.90918 0.10237 0.0
N342 N 0.50869 0.94928 0.28399 0.0
N343 N 0.5264 0.80508 0.06461 0.0
C344 C 0.51762 0.91445 0.22621 0.0
C345 C 0.52517 0.84051 0.11575 0.0
N346 N 0.52744 0.88818 0.40221 0.0
N347 N 0.53429 0.86685 0.92573 0.0
H348 H 0.52942 0.78143 0.10923 0.0
H349 H 0.52322 0.7992 0.97988 0.0
H350 H 0.53705 0.88895 0.87205 0.0
H351 H 0.54173 0.84085 0.87887 0.0
H352 H 0.53191 0.91388 0.43766 0.0
H353 H 0.53025 0.86621 0.45422 0.0
H354 H 0.5045 0.95454 0.3752 0.0
H355 H 0.50247 0.97258 0.24259 0.0
C356 C 0.71855 0.49264 0.41437 0.0
C357 C 0.73884 0.52149 0.40209 0.0
C358 C 0.716 0.54457 0.24227 0.0
C359 C 0.69646 0.51487 0.25136 0.0
N360 N 0.68347 0.45649 0.33005 0.0
N361 N 0.76134 0.57041 0.29022 0.0
C362 C 0.69906 0.48768 0.33288 0.0
C363 C 0.73895 0.54601 0.31141 0.0
N364 N 0.71734 0.47052 0.5059 0.0
N365 N 0.71165 0.57243 0.17157 0.0
H366 H 0.77811 0.57258 0.34009 0.0
H367 H 0.76496 0.58623 0.21766 0.0
H368 H 0.69536 0.57228 0.11917 0.0
H369 H 0.72246 0.59705 0.17117 0.0
H370 H 0.70054 0.45192 0.52869 0.0
H371 H 0.73198 0.47249 0.56444 0.0
H372 H 0.68666 0.43375 0.37836 0.0
H373 H 0.66929 0.45182 0.27119 0.0
C374 C 0.99229 0.64342 0.24344 0.0
C375 C 0.99724 0.62943 0.34929 0.0
C376 C 1.01021 0.56594 0.24918 0.0
C377 C 1.00476 0.57968 0.14314 0.0
N378 N 0.98236 0.62952 0.04972 0.0
N379 N 1.0008 0.57633 0.4623 0.0
C380 C 0.99339 0.61792 0.14338 0.0
C381 C 1.00301 0.59033 0.35513 0.0
N382 N 0.98672 0.68114 0.23814 0.0
N383 N 0.02396 0.53036 0.24803 0.0
H384 H 0.99491 0.59342 0.54131 0.0
H385 H 1.00141 0.5478 0.47334 0.0
H386 H 0.03048 0.5118 0.17241 0.0
H387 H 0.03148 0.52037 0.31984 0.0
H388 H 0.98667 0.69352 0.15998 0.0
H389 H 0.98401 0.70041 0.31127 0.0
H390 H 0.97111 0.65609 0.04863 0.0
H391 H 0.98149 0.61134 0.97753 0.0
C392 C 0.03775 0.23176 0.47741 0.0
C393 C 1.00972 0.25246 0.47181 0.0
C394 C 0.98055 0.21017 0.59661 0.0
C395 C 1.00676 0.18277 0.55713 0.0
N396 N 0.06179 0.16843 0.4556 0.0
N397 N 0.95513 0.26862 0.55345 0.0
C398 C 0.03634 0.1939 0.50033 0.0
C399 C 0.98139 0.24473 0.54502 0.0
N400 N 0.06546 0.24669 0.44362 0.0
N401 N 0.95507 0.20256 0.67931 0.0
H402 H 0.95648 0.29396 0.51449 0.0
H403 H 0.93268 0.26288 0.59488 0.0
H404 H 0.95459 0.17744 0.71944 0.0
H405 H 0.93602 0.22229 0.71527 0.0
H406 H 0.08683 0.23304 0.44969 0.0
H407 H 0.06606 0.27429 0.42118 0.0
H408 H 0.08276 0.17576 0.40493 0.0
H409 H 0.06129 0.13965 0.45808 0.0
C410 C 0.31446 0.96065 0.67891 0.0
C411 C 0.30764 0.9414 0.58007 0.0
C412 C 0.34479 0.88839 0.59361 0.0
C413 C 0.35759 0.91201 0.66764 0.0
N414 N 0.35198 0.96754 0.80054 0.0
N415 N 0.30985 0.88433 0.45971 0.0
C416 C 0.34086 0.94669 0.72005 0.0
C417 C 0.3201 0.90377 0.54539 0.0
N418 N 0.29661 0.99307 0.72812 0.0
N419 N 0.35767 0.85219 0.56544 0.0
H420 H 0.29119 0.89545 0.42664 0.0
H421 H 0.31962 0.85786 0.4213 0.0
H422 H 0.37592 0.84127 0.6011 0.0
H423 H 0.34917 0.83259 0.51463 0.0
H424 H 0.29897 0.00783 0.80464 0.0
H425 H 0.27743 1.00346 0.69685 0.0
H426 H 0.34313 0.99488 0.83267 0.0
H427 H 0.37075 0.9575 0.83435 0.0
C428 C 0.55145 0.34783 0.57442 0.0
C429 C 0.52371 0.32985 0.60589 0.0
C430 C 0.4991 0.38195 0.74859 0.0
C431 C 0.52523 0.40249 0.7074 0.0
N432 N 0.57859 0.40303 0.59586 0.0
N433 N 0.47695 0.3223 0.74836 0.0
C434 C 0.55247 0.3845 0.62649 0.0
C435 C 0.49961 0.34445 0.70263 0.0
N436 N 0.57555 0.33055 0.48711 0.0
N437 N 0.4733 0.39859 0.82885 0.0
H438 H 0.47737 0.29472 0.71401 0.0
H439 H 0.45982 0.32964 0.82587 0.0
H440 H 0.4728 0.42466 0.87249 0.0
H441 H 0.45192 0.38732 0.8487 0.0
H442 H 0.59558 0.3427 0.44894 0.0
H443 H 0.57499 0.30326 0.45188 0.0
H444 H 0.60004 0.39074 0.54504 0.0
H445 H 0.57918 0.43102 0.6234 0.0
C446 C 0.19919 0.62768 0.30606 0.0
C447 C 0.2011 0.58978 0.33407 0.0
C448 C 0.18156 0.6116 0.54138 0.0
C449 C 0.16925 0.64543 0.50705 0.0
N450 N 0.17919 0.69203 0.37039 0.0
N451 N 0.19567 0.54569 0.48447 0.0
C452 C 0.18346 0.65579 0.39466 0.0
C453 C 0.19341 0.58166 0.45401 0.0
N454 N 0.21097 0.63755 0.19543 0.0
N455 N 0.18263 0.60863 0.65587 0.0
H456 H 0.2038 0.52267 0.42304 0.0
H457 H 0.18726 0.53872 0.57043 0.0
H458 H 0.1771 0.63196 0.71719 0.0
H459 H 0.1932 0.58499 0.68406 0.0
H460 H 0.22308 0.61854 0.12537 0.0
H461 H 0.22308 0.61854 0.12537 0.0
H462 H 0.18795 0.70097 0.28705 0.0
H463 H 0.16769 0.71255 0.43691 0.0
C464 C 0.1027 0.77121 0.33237 0.0
C465 C 0.07459 0.75761 0.3162 0.0
C466 C 0.07115 0.8009 0.16697 0.0
C467 C 0.09482 0.81985 0.20333 0.0
N468 N 0.14077 0.81625 0.28093 0.0
N469 N 0.04318 0.74552 0.17724 0.0
C470 C 0.11369 0.80201 0.27081 0.0
C471 C 0.06289 0.76741 0.21801 0.0
N472 N 0.11608 0.75761 0.41767 0.0
N473 N 0.05478 0.81653 0.09266 0.0
H474 H 0.0379 0.72034 0.21193 0.0
H475 H 0.03525 0.74989 0.10119 0.0
H476 H 0.06091 0.84026 0.05005 0.0
H477 H 0.03456 0.80664 0.07561 0.0
H478 H 0.13402 0.76948 0.44671 0.0
H479 H 0.10798 0.73472 0.4618 0.0
H480 H 0.1566 0.80376 0.32451 0.0
H481 H 0.14832 0.83932 0.23661 0.0
C482 C 0.70362 0.0485 0.18184 0.0
C483 C 0.71143 0.07046 0.27285 0.0
C484 C 0.66746 0.11683 0.27126 0.0
C485 C 0.65486 0.08926 0.2085 0.0
N486 N 0.66026 0.02647 0.11359 0.0
N487 N 0.70526 0.12881 0.38937 0.0
C488 C 0.67309 0.05478 0.1631 0.0
C489 C 0.69529 0.10646 0.30957 0.0
N490 N 0.72436 0.01974 0.12134 0.0
N491 N 0.65231 0.15211 0.29674 0.0
H492 H 0.72597 0.12107 0.41528 0.0
H493 H 0.69297 0.15385 0.43109 0.0
H494 H 0.6318 0.15989 0.26976 0.0
H495 H 0.6612 0.17414 0.33629 0.0
H496 H 0.72047 1.00399 0.0489 0.0
H497 H 0.74678 0.01472 0.13617 0.0
H498 H 0.67156 0.99942 0.09297 0.0
H499 H 0.63728 0.02888 0.10361 0.0
C500 C 0.51833 0.64205 0.21572 0.0
C501 C 0.49355 0.67103 0.2371 0.0
C502 C 0.46285 0.62891 0.14637 0.0
C503 C 0.48556 0.59846 0.14886 0.0
N504 N 0.52889 0.57612 0.2294 0.0
N505 N 0.44062 0.69168 0.23097 0.0
C506 C 0.51141 0.60515 0.19764 0.0
C507 C 0.46522 0.66446 0.20434 0.0
N508 N 0.54763 0.64954 0.22444 0.0
N509 N 0.43996 0.62459 0.08658 0.0
H510 H 0.44257 0.71819 0.26882 0.0
H511 H 0.41832 0.68722 0.22013 0.0
H512 H 0.43735 0.59914 0.04409 0.0
H513 H 0.42489 0.64697 0.07313 0.0
H514 H 0.56676 0.62909 0.20486 0.0
H515 H 0.55302 0.67683 0.24 0.0
H516 H 0.54676 0.5801 0.27286 0.0
H517 H 0.52277 0.54875 0.22485 0.0
C518 C 0.85818 0.42459 0.27801 0.0
C519 C 0.85471 0.42304 0.40202 0.0
C520 C 0.89285 0.36781 0.36691 0.0
C521 C 0.89984 0.37408 0.24648 0.0
N522 N 0.87894 0.39168 0.08392 0.0
N523 N 0.85822 0.3844 0.56055 0.0
C524 C 0.87792 0.39582 0.20152 0.0
C525 C 0.86809 0.391 0.44493 0.0
N526 N 0.84608 0.45497 0.23237 0.0
N527 N 0.91216 0.34266 0.40655 0.0
H528 H 0.84001 0.40151 0.61799 0.0
H529 H 0.86609 0.36058 0.5959 0.0
H530 H 0.93029 0.3258 0.34769 0.0
H531 H 0.9108 0.33952 0.49554 0.0
H532 H 0.85099 0.45841 0.14236 0.0
H533 H 0.83308 0.47818 0.28313 0.0
H534 H 0.86228 0.40538 0.04627 0.0
H535 H 0.89476 0.37145 0.02775 0.0
C536 C 0.04279 0.16624 0.09644 0.0
C537 C 0.01978 0.19434 0.07957 0.0
C538 C 0.99288 0.14534 0.99652 0.0
C539 C 1.01529 0.11704 0.01755 0.0
N540 N 0.0651 0.10125 0.06517 0.0
N541 N 0.97705 0.21187 0.9917 0.0
C542 C 0.04128 0.12777 0.06092 0.0
C543 C 0.99627 0.18418 0.02166 0.0
N544 N 0.06554 0.17645 0.15127 0.0
N545 N 0.96727 0.13503 0.95931 0.0
H546 H 0.97895 0.24018 0.01068 0.0
H547 H 0.96117 0.2072 0.93988 0.0
H548 H 0.96357 0.10722 0.94224 0.0
H549 H 0.94845 0.15369 0.953 0.0
H550 H 0.0803 0.15762 0.1828 0.0
H551 H 0.06891 0.20436 0.16954 0.0
H552 H 0.0864 0.10739 0.08212 0.0
H553 H 0.06473 0.07283 0.04294 0.0
C554 C 0.36121 0.0365 0.23272 0.0
C555 C 0.34555 1.00406 0.21842 0.0
C556 C 0.39392 0.97503 0.07697 0.0
C557 C 0.40924 0.00816 0.08613 0.0
N558 N 0.40412 0.07335 0.15593 0.0
N559 N 0.34504 0.94607 0.10565 0.0
C560 C 0.39184 0.03975 0.15922 0.0
C561 C 0.36132 0.97472 0.13287 0.0
N562 N 0.34727 0.0638 0.31986 0.0
N563 N 0.41102 0.94267 0.02272 0.0
H564 H 0.3214 0.94504 0.14523 0.0
H565 H 0.35399 0.92563 0.03609 0.0
H566 H 0.43505 0.9408 0.98676 0.0
H567 H 0.40215 0.91675 0.02472 0.0
H568 H 0.35874 0.08589 0.34564 0.0
H569 H 0.32461 0.06311 0.37103 0.0
H570 H 0.3916 0.09828 0.19768 0.0
H571 H 0.42588 0.07698 0.10217 0.0
C572 C 0.52666 0.36107 0.19122 0.0
C573 C 0.50014 0.34123 0.22512 0.0
C574 C 0.46955 0.3897 0.14431 0.0
C575 C 0.49534 0.41241 0.12794 0.0
N576 N 0.54325 0.42293 0.18848 0.0
N577 N 0.44472 0.33949 0.24805 0.0
C578 C 0.52253 0.39888 0.16573 0.0
C579 C 0.47113 0.35624 0.20488 0.0
N580 N 0.55572 0.34452 0.19135 0.0
N581 N 0.44368 0.39901 0.1021 0.0
H582 H 0.44537 0.31437 0.28776 0.0
H583 H 0.42219 0.35164 0.25069 0.0
H584 H 0.43954 0.42354 0.06381 0.0
H585 H 0.42675 0.38072 0.09845 0.0
H586 H 0.55931 0.31681 0.21102 0.0
H587 H 0.57614 0.35714 0.16052 0.0
H588 H 0.56221 0.41467 0.22405 0.0
H589 H 0.53881 0.45189 0.18922 0.0
C590 C 0.16074 0.48232 0.98892 0.0
C591 C 0.17419 0.51664 0.99864 0.0
C592 C 0.13399 0.54717 0.90778 0.0
C593 C 0.12176 0.51232 0.89121 0.0
N594 N 0.12977 0.4451 0.88742 0.0
N595 N 0.17847 0.57899 0.93742 0.0
C596 C 0.13721 0.4794 0.92264 0.0
C597 C 0.16241 0.54806 0.94752 0.0
N598 N 0.16881 0.45308 0.04877 0.0
N599 N 0.11757 0.57985 0.89354 0.0
H600 H 0.20019 0.57973 0.95873 0.0
H601 H 0.17187 0.6025 0.89802 0.0
H602 H 0.09613 0.58102 0.86993 0.0
H603 H 0.12356 0.60618 0.91685 0.0
H604 H 0.15753 0.42876 0.05414 0.0
H605 H 0.18479 0.4543 0.10206 0.0
H606 H 0.1421 0.42006 0.89827 0.0
H607 H 0.1136 0.44183 0.83554 0.0
C608 C 0.03863 0.81947 0.76127 0.0
C609 C 1.01372 0.80887 0.71164 0.0
C610 C 0.98344 0.86876 0.79771 0.0
C611 C 1.01078 0.88244 0.82395 0.0
N612 N 0.06628 0.8704 0.8165 0.0
N613 N 0.96256 0.82506 0.67636 0.0
C614 C 0.03879 0.85751 0.80409 0.0
C615 C 0.98595 0.83376 0.72954 0.0
N616 N 0.0625 0.7931 0.76528 0.0
N617 N 0.95487 0.88882 0.8401 0.0
H618 H 0.96319 0.79962 0.62749 0.0
H619 H 0.94354 0.84412 0.67421 0.0
H620 H 0.95188 0.91378 0.89375 0.0
H621 H 0.93385 0.87866 0.83303 0.0
H622 H 0.0799 0.79809 0.81012 0.0
H623 H 0.06287 0.76515 0.73438 0.0
H624 H 0.08786 0.85423 0.79073 0.0
H625 H 0.06839 0.89814 0.84147 0.0
C626 C 0.64757 0.9855 0.53339 0.0
C627 C 0.67089 0.99551 0.59366 0.0
C628 C 0.63128 0.99377 0.78129 0.0
C629 C 0.60675 0.99168 0.7203 0.0
N630 N 0.59241 0.99106 0.53224 0.0
N631 N 0.68323 0.01214 0.77973 0.0
C632 C 0.61519 0.98855 0.59454 0.0
C633 C 0.66236 1.00002 0.7191 0.0
N634 N 0.65647 0.97328 0.41636 0.0
N635 N 0.62537 0.98816 0.89825 0.0
H636 H 0.70603 0.01668 0.73837 0.0
H637 H 0.67706 0.02007 0.87001 0.0
H638 H 0.60332 0.98318 0.94667 0.0
H639 H 0.64332 0.98357 0.94194 0.0
H640 H 0.64117 0.96262 0.36945 0.0
H641 H 0.67991 0.97008 0.36993 0.0
H642 H 0.59727 0.99316 0.44143 0.0
H643 H 0.56855 0.99504 0.57198 0.0
C644 C 0.48591 0.65521 0.67603 0.0
C645 C 0.51257 0.67202 0.62041 0.0
C646 C 0.54464 0.62034 0.68172 0.0
C647 C 0.51807 0.59923 0.70757 0.0
N648 N 0.46559 0.59564 0.67576 0.0
N649 N 0.56911 0.6668 0.55955 0.0
C650 C 0.48913 0.61649 0.69072 0.0
C651 C 0.54257 0.65367 0.62074 0.0
N652 N 0.45707 0.67505 0.70122 0.0
N653 N 0.57132 0.61015 0.71764 0.0
H654 H 0.56873 0.6912 0.51634 0.0
H655 H 0.59122 0.65199 0.54623 0.0
H656 H 0.57359 0.58815 0.76947 0.0
H657 H 0.58997 0.62661 0.70758 0.0
H658 H 0.43696 0.66394 0.74537 0.0
H659 H 0.45429 0.70343 0.68761 0.0
H660 H 0.44492 0.60743 0.65734 0.0
H661 H 0.46875 0.56649 0.66258 0.0
C662 C 0.88586 0.4938 0.78623 0.0
C663 C 0.87991 0.51531 0.69383 0.0
C664 C 0.92287 0.55266 0.71721 0.0
C665 C 0.93278 0.52654 0.79174 0.0
N666 N 0.91444 0.48498 0.93984 0.0
N667 N 0.89467 0.56368 0.56475 0.0
C668 C 0.91156 0.5006 0.83867 0.0
C669 C 0.89873 0.54458 0.65851 0.0
N670 N 0.86742 0.46599 0.82122 0.0
N671 N 0.93428 0.58676 0.71043 0.0
H672 H 0.87702 0.55925 0.52061 0.0
H673 H 0.91038 0.58176 0.52514 0.0
H674 H 0.94718 0.59676 0.76815 0.0
H675 H 0.92648 0.60763 0.66295 0.0
H676 H 0.87277 0.44577 0.87533 0.0
H677 H 0.84719 0.46208 0.79148 0.0
H678 H 0.89899 0.46746 0.98387 0.0
H679 H 0.93012 0.49348 0.9887 0.0
loop_
_geom_bond_atom_site_label_1
_geom_bond_atom_site_label_2
_geom_bond_distance
_geom_bond_site_symmetry_2
_ccdc_geom_bond_type
H0 C3 0.929 . S
H1 C6 0.929 . S
H2 C8 0.930 . S
C3 H0 0.929 . S
C3 C4 1.398 . S
C3 C5 1.396 . S
C4 C3 1.398 . S
C4 C8 1.407 . S
C5 C3 1.396 . S
C5 C6 1.394 . S
C6 H1 0.929 . S
C6 C5 1.394 . S
C6 C7 1.382 . S
C7 C6 1.382 . S
C7 C8 1.392 . S
C7 N9 1.420 . S
C8 H2 0.930 . S
C8 C4 1.407 . S
C8 C7 1.392 . S
N9 C7 1.420 . S
N9 C10 1.244 . S
C10 N9 1.244 . S
H11 C14 0.929 . S
H12 C17 0.929 . S
H13 C19 0.930 . S
C14 H11 0.929 . S
C14 C15 1.391 1_655 S
C14 C16 1.398 1_655 S
C15 C14 1.391 1_455 S
C15 C19 1.410 . S
C16 C14 1.398 1_455 S
C16 C17 1.395 . S
C17 H12 0.929 . S
C17 C16 1.395 . S
C17 C18 1.382 . S
C18 C17 1.382 . S
C18 C19 1.392 . S
C18 N20 1.420 . S
C19 H13 0.930 . S
C19 C15 1.410 . S
C19 C18 1.392 . S
N20 C18 1.420 . S
N20 C21 1.226 1_455 S
C21 N20 1.226 1_655 S
H22 C25 0.929 . S
H23 C28 0.929 . S
H24 C30 0.930 . S
C25 H22 0.929 . S
C25 C26 1.398 1_565 S
C25 C27 1.392 1_565 S
C26 C25 1.398 1_545 S
C26 C30 1.407 . S
C27 C25 1.392 1_545 S
C27 C28 1.399 . S
C28 H23 0.929 . S
C28 C27 1.399 . S
C28 C29 1.382 . S
C29 C28 1.382 . S
C29 C30 1.392 . S
C29 N31 1.420 . S
C30 H24 0.930 . S
C30 C26 1.407 . S
C30 C29 1.392 . S
N31 C29 1.420 . S
N31 C32 1.235 1_545 S
C32 N31 1.235 1_565 S
H33 C36 0.929 . S
H34 C39 0.929 . S
H35 C41 0.930 . S
C36 H33 0.929 . S
C36 C37 1.398 . S
C36 C38 1.396 . S
C37 C36 1.398 . S
C37 C41 1.407 . S
C38 C36 1.396 . S
C38 C39 1.394 . S
C39 H34 0.929 . S
C39 C38 1.394 . S
C39 C40 1.382 . S
C40 C39 1.382 . S
C40 C41 1.392 . S
C40 N42 1.420 . S
C41 H35 0.930 . S
C41 C37 1.407 . S
C41 C40 1.392 . S
N42 C40 1.420 . S
N42 C43 1.244 . S
C43 N42 1.244 . S
H44 C47 0.929 . S
H45 C50 0.929 . S
H46 C52 0.930 . S
C47 H44 0.929 . S
C47 C48 1.398 . S
C47 C49 1.396 1_556 S
C48 C47 1.398 . S
C48 C52 1.407 . S
C49 C47 1.396 1_554 S
C49 C50 1.394 . S
C50 H45 0.929 . S
C50 C49 1.394 . S
C50 C51 1.382 1_554 S
C51 C50 1.382 1_556 S
C51 C52 1.392 . S
C51 N53 1.420 . S
C52 H46 0.930 . S
C52 C48 1.407 . S
C52 C51 1.392 . S
N53 C51 1.420 . S
N53 C54 1.244 1_556 S
C54 N53 1.244 1_554 S
H55 C58 0.929 . S
H56 C61 0.929 . S
H57 C63 0.930 1_556 S
C58 H55 0.929 . S
C58 C59 1.398 1_655 S
C58 C60 1.388 1_655 S
C59 C58 1.398 1_455 S
C59 C63 1.407 . S
C60 C58 1.388 1_455 S
C60 C61 1.401 . S
C61 H56 0.929 . S
C61 C60 1.401 . S
C61 C62 1.382 . S
C62 C61 1.382 . S
C62 C63 1.392 . S
C62 N64 1.420 . S
C63 H57 0.930 1_554 S
C63 C59 1.407 . S
C63 C62 1.392 . S
N64 C62 1.420 . S
N64 C65 1.240 1_455 S
C65 N64 1.240 1_655 S
H66 C69 0.929 . S
H67 C72 0.929 . S
H68 C74 0.930 . S
C69 H66 0.929 . S
C69 C70 1.398 1_565 S
C69 C71 1.397 1_565 S
C70 C69 1.398 1_545 S
C70 C74 1.407 . S
C71 C69 1.397 1_545 S
C71 C72 1.396 . S
C72 H67 0.929 . S
C72 C71 1.396 . S
C72 C73 1.382 . S
C73 C72 1.382 . S
C73 C74 1.392 . S
C73 N75 1.420 . S
C74 H68 0.930 . S
C74 C70 1.407 . S
C74 C73 1.392 . S
N75 C73 1.420 . S
N75 C76 1.233 1_545 S
C76 N75 1.233 1_565 S
H77 C80 0.929 . S
H78 C83 0.929 . S
H79 C85 0.930 . S
C80 H77 0.929 . S
C80 C81 1.398 . S
C80 C82 1.396 . S
C81 C80 1.398 . S
C81 C85 1.407 . S
C82 C80 1.396 . S
C82 C83 1.394 . S
C83 H78 0.929 . S
C83 C82 1.394 . S
C83 C84 1.382 . S
C84 C83 1.382 . S
C84 C85 1.392 . S
C84 N86 1.420 . S
C85 H79 0.930 . S
C85 C81 1.407 . S
C85 C84 1.392 . S
N86 C84 1.420 . S
N86 C87 1.244 . S
C87 N86 1.244 . S
Dy88 O91 2.307 1_545 S
Dy88 O93 2.395 1_655 S
Dy88 O94 2.379 . S
Dy88 O96 2.339 . S
Dy88 O98 2.298 . S
Dy88 O102 2.275 1_655 S
Dy88 C110 2.738 . S
Dy89 O92 2.298 1_554 S
Dy89 O95 2.275 1_454 S
Dy89 O97 2.307 1_565 S
Dy89 O99 2.395 1_455 S
Dy89 O100 2.379 . S
Dy89 O103 2.339 1_554 S
Dy89 C119 2.738 . S
C90 O102 1.254 1_565 S
C90 O103 1.257 . S
O91 Dy88 2.307 1_565 S
O91 C101 1.266 . S
O92 Dy89 2.298 1_556 S
O92 C101 1.236 1_455 S
O93 Dy88 2.395 1_455 S
O93 C110 1.255 1_455 S
O94 Dy88 2.379 . S
O94 C110 1.249 . S
O95 Dy89 2.275 1_656 S
O95 C111 1.254 1_565 S
O96 Dy88 2.339 . S
O96 C111 1.257 . S
O97 Dy89 2.307 1_545 S
O97 C112 1.266 1_554 S
O98 Dy88 2.298 . S
O98 C112 1.236 1_655 S
O99 Dy89 2.395 1_655 S
O99 C119 1.255 1_655 S
O100 Dy89 2.379 . S
O100 C119 1.249 . S
C101 O91 1.266 . S
C101 O92 1.236 1_655 S
O102 Dy88 2.275 1_455 S
O102 C90 1.254 1_545 S
O103 Dy89 2.339 1_556 S
O103 C90 1.257 . S
C104 C107 1.344 1_655 S
C104 C108 1.328 . S
C104 C110 1.516 . S
C105 C106 1.304 1_655 S
C105 C109 1.323 . S
C106 C105 1.304 1_455 S
C106 C107 1.371 . S
C106 H120 0.930 . S
C107 C104 1.344 1_455 S
C107 C106 1.371 . S
C107 H121 0.931 . S
C108 C104 1.328 . S
C108 C109 1.433 . S
C108 H122 0.931 . S
C109 C105 1.323 . S
C109 C108 1.433 . S
C109 H123 0.933 . S
C110 Dy88 2.738 . S
C110 O93 1.255 1_655 S
C110 O94 1.249 . S
C110 C104 1.516 . S
C111 O95 1.254 1_545 S
C111 O96 1.257 . S
C112 O97 1.266 1_556 S
C112 O98 1.236 1_455 S
C113 C116 1.344 1_455 S
C113 C117 1.328 . S
C113 C119 1.516 . S
C114 C115 1.304 1_455 S
C114 C118 1.323 . S
C115 C114 1.304 1_655 S
C115 C116 1.371 . S
C115 H124 0.930 . S
C116 C113 1.344 1_655 S
C116 C115 1.371 . S
C116 H125 0.931 . S
C117 C113 1.328 . S
C117 C118 1.433 . S
C117 H126 0.931 . S
C118 C114 1.323 . S
C118 C117 1.433 . S
C118 H127 0.933 . S
C119 Dy89 2.738 . S
C119 O99 1.255 1_455 S
C119 O100 1.249 . S
C119 C113 1.516 . S
H120 C106 0.930 . S
H121 C107 0.931 . S
H122 C108 0.931 . S
H123 C109 0.933 . S
H124 C115 0.930 . S
H125 C116 0.931 . S
H126 C117 0.931 . S
H127 C118 0.933 . S
Dy128 O131 2.307 . S
Dy128 O133 2.395 1_565 S
Dy128 O134 2.379 . S
Dy128 O136 2.339 . S
Dy128 O138 2.298 . S
Dy128 O142 2.275 1_565 S
Dy128 C150 2.738 . S
Dy129 O132 2.298 1_554 S
Dy129 O135 2.275 1_544 S
Dy129 O137 2.307 . S
Dy129 O139 2.395 1_545 S
Dy129 O140 2.379 . S
Dy129 O143 2.339 1_554 S
Dy129 C159 2.738 . S
C130 O142 1.254 . S
C130 O143 1.257 . S
O131 Dy128 2.307 . S
O131 C141 1.266 . S
O132 Dy129 2.298 1_556 S
O132 C141 1.236 1_545 S
O133 Dy128 2.395 1_545 S
O133 C150 1.255 1_545 S
O134 Dy128 2.379 . S
O134 C150 1.249 . S
O135 Dy129 2.275 1_566 S
O135 C151 1.254 . S
O136 Dy128 2.339 . S
O136 C151 1.257 . S
O137 Dy129 2.307 . S
O137 C152 1.266 1_554 S
O138 Dy128 2.298 . S
O138 C152 1.236 1_565 S
O139 Dy129 2.395 1_565 S
O139 C159 1.255 1_565 S
O140 Dy129 2.379 . S
O140 C159 1.249 . S
C141 O131 1.266 . S
C141 O132 1.236 1_565 S
O142 Dy128 2.275 1_545 S
O142 C130 1.254 . S
O143 Dy129 2.339 1_556 S
O143 C130 1.257 . S
C144 C147 1.340 1_565 S
C144 C148 1.328 . S
C144 C150 1.516 . S
C145 C146 1.304 . S
C145 C149 1.323 . S
C146 C145 1.304 . S
C146 C147 1.370 1_565 S
C146 H160 0.930 1_565 S
C147 C144 1.340 1_545 S
C147 C146 1.370 1_545 S
C147 H161 0.936 . S
C148 C144 1.328 . S
C148 C149 1.433 . S
C148 H162 0.931 . S
C149 C145 1.323 . S
C149 C148 1.433 . S
C149 H163 0.933 . S
C150 Dy128 2.738 . S
C150 O133 1.255 1_565 S
C150 O134 1.249 . S
C150 C144 1.516 . S
C151 O135 1.254 . S
C151 O136 1.257 . S
C152 O137 1.266 1_556 S
C152 O138 1.236 1_545 S
C153 C156 1.345 1_545 S
C153 C157 1.328 . S
C153 C159 1.516 . S
C154 C155 1.304 . S
C154 C158 1.323 . S
C155 C154 1.304 . S
C155 C156 1.371 1_545 S
C155 H164 0.930 1_545 S
C156 C153 1.345 1_565 S
C156 C155 1.371 1_565 S
C156 H165 0.929 . S
C157 C153 1.328 . S
C157 C158 1.433 . S
C157 H166 0.931 . S
C158 C154 1.323 . S
C158 C157 1.433 . S
C158 H167 0.933 . S
C159 Dy129 2.738 . S
C159 O139 1.255 1_545 S
C159 O140 1.249 . S
C159 C153 1.516 . S
H160 C146 0.930 1_545 S
H161 C147 0.936 . S
H162 C148 0.931 . S
H163 C149 0.933 . S
H164 C155 0.930 1_565 S
H165 C156 0.929 . S
H166 C157 0.931 . S
H167 C158 0.933 . S
Dy168 O171 2.307 . S
Dy168 O173 2.395 1_556 S
Dy168 O174 2.379 . S
Dy168 O176 2.339 . S
Dy168 O178 2.298 . S
Dy168 O182 2.275 . S
Dy168 C190 2.738 1_556 S
Dy169 O172 2.298 . S
Dy169 O175 2.275 . S
Dy169 O177 2.307 1_556 S
Dy169 O179 2.395 . S
Dy169 O180 2.379 . S
Dy169 O183 2.339 1_556 S
Dy169 C199 2.738 . S
C170 O182 1.254 1_554 S
C170 O183 1.257 . S
O171 Dy168 2.307 . S
O171 C181 1.266 . S
O172 Dy169 2.298 . S
O172 C181 1.236 . S
O173 Dy168 2.395 1_554 S
O173 C190 1.255 . S
O174 Dy168 2.379 . S
O174 C190 1.249 1_556 S
O175 Dy169 2.275 . S
O175 C191 1.254 . S
O176 Dy168 2.339 . S
O176 C191 1.257 . S
O177 Dy169 2.307 1_554 S
O177 C192 1.266 . S
O178 Dy168 2.298 . S
O178 C192 1.236 1_556 S
O179 Dy169 2.395 . S
O179 C199 1.255 . S
O180 Dy169 2.379 . S
O180 C199 1.249 . S
C181 O171 1.266 . S
C181 O172 1.236 . S
O182 Dy168 2.275 . S
O182 C170 1.254 1_556 S
O183 Dy169 2.339 1_554 S
O183 C170 1.257 . S
C184 C187 1.344 . S
C184 C188 1.328 . S
C184 C190 1.516 . S
C185 C186 1.304 . S
C185 C189 1.323 . S
C186 C185 1.304 . S
C186 C187 1.371 . S
C186 H200 0.930 . S
C187 C184 1.344 . S
C187 C186 1.371 . S
C187 H201 0.931 . S
C188 C184 1.328 . S
C188 C189 1.433 . S
C188 H202 0.931 1_554 S
C189 C185 1.323 . S
C189 C188 1.433 . S
C189 H203 0.933 . S
C190 Dy168 2.738 1_554 S
C190 O173 1.255 . S
C190 O174 1.249 1_554 S
C190 C184 1.516 . S
C191 O175 1.254 . S
C191 O176 1.257 . S
C192 O177 1.266 . S
C192 O178 1.236 1_554 S
C193 C196 1.344 . S
C193 C197 1.328 . S
C193 C199 1.516 . S
C194 C195 1.304 . S
C194 C198 1.323 . S
C195 C194 1.304 . S
C195 C196 1.371 . S
C195 H204 0.930 . S
C196 C193 1.344 . S
C196 C195 1.371 . S
C196 H205 0.931 . S
C197 C193 1.328 . S
C197 C198 1.433 . S
C197 H206 0.931 . S
C198 C194 1.323 . S
C198 C197 1.433 . S
C198 H207 0.933 . S
C199 Dy169 2.738 . S
C199 O179 1.255 . S
C199 O180 1.249 . S
C199 C193 1.516 . S
H200 C186 0.930 . S
H201 C187 0.931 . S
H202 C188 0.931 1_556 S
H203 C189 0.933 . S
H204 C195 0.930 . S
H205 C196 0.931 . S
H206 C197 0.931 . S
H207 C198 0.933 . S
Dy208 O211 2.307 1_455 S
Dy208 O213 2.395 . S
Dy208 O214 2.379 . S
Dy208 O216 2.339 . S
Dy208 O218 2.298 . S
Dy208 O222 2.275 . S
Dy208 C230 2.738 . S
Dy209 O212 2.298 1_554 S
Dy209 O215 2.275 . S
Dy209 O217 2.307 1_654 S
Dy209 O219 2.395 . S
Dy209 O220 2.379 . S
Dy209 O223 2.339 1_554 S
Dy209 C239 2.738 . S
C210 O222 1.254 1_655 S
C210 O223 1.257 . S
O211 Dy208 2.307 1_655 S
O211 C221 1.266 . S
O212 Dy209 2.298 1_556 S
O212 C221 1.236 . S
O213 Dy208 2.395 . S
O213 C230 1.255 . S
O214 Dy208 2.379 . S
O214 C230 1.249 . S
O215 Dy209 2.275 . S
O215 C231 1.254 1_654 S
O216 Dy208 2.339 . S
O216 C231 1.259 . S
O217 Dy209 2.307 1_456 S
O217 C232 1.266 . S
O218 Dy208 2.298 . S
O218 C232 1.236 . S
O219 Dy209 2.395 . S
O219 C239 1.255 . S
O220 Dy209 2.379 . S
O220 C239 1.249 . S
C221 O211 1.266 . S
C221 O212 1.236 . S
O222 Dy208 2.275 . S
O222 C210 1.254 1_455 S
O223 Dy209 2.339 1_556 S
O223 C210 1.257 . S
C224 C227 1.344 . S
C224 C228 1.328 . S
C224 C230 1.516 . S
C225 C226 1.304 . S
C225 C229 1.323 . S
C226 C225 1.304 . S
C226 C227 1.371 . S
C226 H240 0.930 . S
C227 C224 1.344 . S
C227 C226 1.371 . S
C227 H241 0.931 . S
C228 C224 1.328 . S
C228 C229 1.433 . S
C228 H242 0.931 . S
C229 C225 1.323 . S
C229 C228 1.433 . S
C229 H243 0.933 . S
C230 Dy208 2.738 . S
C230 O213 1.255 . S
C230 O214 1.249 . S
C230 C224 1.516 . S
C231 O215 1.254 1_456 S
C231 O216 1.259 . S
C232 O217 1.266 . S
C232 O218 1.236 . S
C233 C236 1.344 . S
C233 C237 1.328 . S
C233 C239 1.516 . S
C234 C235 1.304 . S
C234 C238 1.323 . S
C235 C234 1.304 . S
C235 C236 1.371 . S
C235 H244 0.930 . S
C236 C233 1.344 . S
C236 C235 1.371 . S
C236 H245 0.931 . S
C237 C233 1.328 . S
C237 C238 1.433 . S
C237 H246 0.931 . S
C238 C234 1.323 . S
C238 C237 1.433 . S
C238 H247 0.933 . S
C239 Dy209 2.738 . S
C239 O219 1.255 . S
C239 O220 1.249 . S
C239 C233 1.516 . S
H240 C226 0.930 . S
H241 C227 0.931 . S
H242 C228 0.931 . S
H243 C229 0.933 . S
H244 C235 0.930 . S
H245 C236 0.931 . S
H246 C237 0.931 . S
H247 C238 0.933 . S
C248 C249 1.370 . S
C248 C254 1.379 . S
C248 N256 1.356 . S
C249 C248 1.370 . S
C249 C255 1.355 1_545 S
C250 C251 1.344 1_565 S
C250 C255 1.379 . S
C250 N257 1.356 . S
C251 C250 1.344 1_545 S
C251 C254 1.386 . S
N252 C254 1.356 . S
N252 H264 0.984 . S
N252 H265 0.985 . S
N253 C255 1.356 . S
N253 H258 0.984 . S
N253 H259 0.985 . S
C254 C248 1.379 . S
C254 C251 1.386 . S
C254 N252 1.356 . S
C255 C249 1.355 1_565 S
C255 C250 1.379 . S
C255 N253 1.356 . S
N256 C248 1.356 . S
N256 H262 0.984 . S
N256 H263 0.984 . S
N257 C250 1.356 . S
N257 H260 0.984 . S
N257 H261 0.985 . S
H258 N253 0.984 . S
H259 N253 0.985 . S
H260 N257 0.984 . S
H261 N257 0.985 . S
H262 N256 0.984 . S
H263 N256 0.984 . S
H264 N252 0.984 . S
H265 N252 0.985 . S
C266 C267 1.363 . S
C266 C272 1.379 . S
C266 N274 1.356 . S
C267 C266 1.363 . S
C267 C273 1.363 . S
C268 C269 1.363 . S
C268 C273 1.379 . S
C268 N275 1.356 . S
C269 C268 1.363 . S
C269 C272 1.363 . S
N270 C272 1.356 . S
N270 H282 0.984 . S
N270 H283 0.985 . S
N271 C273 1.356 . S
N271 H276 0.984 . S
N271 H277 0.985 . S
C272 C266 1.379 . S
C272 C269 1.363 . S
C272 N270 1.356 . S
C273 C267 1.363 . S
C273 C268 1.379 . S
C273 N271 1.356 . S
N274 C266 1.356 . S
N274 H280 0.984 . S
N274 H281 0.984 . S
N275 C268 1.356 . S
N275 H278 0.984 . S
N275 H279 0.985 . S
H276 N271 0.984 . S
H277 N271 0.985 . S
H278 N275 0.984 . S
H279 N275 0.985 . S
H280 N274 0.984 . S
H281 N274 0.984 . S
H282 N270 0.984 . S
H283 N270 0.985 . S
C284 C285 1.363 . S
C284 C290 1.379 . S
C284 N292 1.356 . S
C285 C284 1.363 . S
C285 C291 1.363 . S
C286 C287 1.363 . S
C286 C291 1.379 . S
C286 N293 1.356 . S
C287 C286 1.363 . S
C287 C290 1.363 . S
N288 C290 1.356 . S
N288 H300 0.984 . S
N288 H301 0.985 . S
N289 C291 1.356 . S
N289 H294 0.984 . S
N289 H295 0.985 . S
C290 C284 1.379 . S
C290 C287 1.363 . S
C290 N288 1.356 . S
C291 C285 1.363 . S
C291 C286 1.379 . S
C291 N289 1.356 . S
N292 C284 1.356 . S
N292 H298 0.984 . S
N292 H299 0.984 . S
N293 C286 1.356 . S
N293 H296 0.984 . S
N293 H297 0.985 . S
H294 N289 0.984 . S
H295 N289 0.985 . S
H296 N293 0.984 . S
H297 N293 0.985 . S
H298 N292 0.984 . S
H299 N292 0.984 . S
H300 N288 0.984 . S
H301 N288 0.985 . S
C302 C303 1.386 . S
C302 C308 1.379 . S
C302 N310 1.356 . S
C303 C302 1.386 . S
C303 C309 1.351 1_455 S
C304 C305 1.363 1_655 S
C304 C309 1.379 . S
C304 N311 1.356 . S
C305 C304 1.363 1_455 S
C305 C308 1.363 . S
N306 C308 1.356 . S
N306 H318 0.984 . S
N306 H319 0.985 . S
N307 C309 1.356 . S
N307 H312 0.984 . S
N307 H313 0.985 . S
C308 C302 1.379 . S
C308 C305 1.363 . S
C308 N306 1.356 . S
C309 C303 1.351 1_655 S
C309 C304 1.379 . S
C309 N307 1.356 . S
N310 C302 1.356 . S
N310 H316 0.984 . S
N310 H317 0.984 . S
N311 C304 1.356 . S
N311 H314 0.984 . S
N311 H315 0.985 . S
H312 N307 0.984 . S
H313 N307 0.985 . S
H314 N311 0.984 . S
H315 N311 0.985 . S
H316 N310 0.984 . S
H317 N310 0.984 . S
H318 N306 0.984 . S
H319 N306 0.985 . S
C320 C321 1.360 1_545 S
C320 C326 1.379 . S
C320 N328 1.356 . S
C321 C320 1.360 1_565 S
C321 C327 1.365 . S
C322 C323 1.383 . S
C322 C327 1.379 . S
C322 N329 1.356 . S
C323 C322 1.383 . S
C323 C326 1.346 1_565 S
N324 C326 1.356 . S
N324 H336 0.984 . S
N324 H337 0.985 . S
N325 C327 1.356 . S
N325 H330 0.984 . S
N325 H331 0.985 . S
C326 C320 1.379 . S
C326 C323 1.346 1_545 S
C326 N324 1.356 . S
C327 C321 1.365 . S
C327 C322 1.379 . S
C327 N325 1.356 . S
N328 C320 1.356 . S
N328 H334 0.984 . S
N328 H335 0.984 . S
N329 C322 1.356 . S
N329 H332 0.984 . S
N329 H333 0.985 . S
H330 N325 0.984 . S
H331 N325 0.985 . S
H332 N329 0.984 . S
H333 N329 0.985 . S
H334 N328 0.984 . S
H335 N328 0.984 . S
H336 N324 0.984 . S
H337 N324 0.985 . S
C338 C339 1.363 . S
C338 C344 1.379 . S
C338 N346 1.356 . S
C339 C338 1.363 . S
C339 C345 1.363 . S
C340 C341 1.363 1_556 S
C340 C345 1.379 1_556 S
C340 N347 1.356 . S
C341 C340 1.363 1_554 S
C341 C344 1.363 . S
N342 C344 1.356 . S
N342 H354 0.984 . S
N342 H355 0.985 . S
N343 C345 1.356 . S
N343 H348 0.984 . S
N343 H349 0.985 1_554 S
C344 C338 1.379 . S
C344 C341 1.363 . S
C344 N342 1.356 . S
C345 C339 1.363 . S
C345 C340 1.379 1_554 S
C345 N343 1.356 . S
N346 C338 1.356 . S
N346 H352 0.984 . S
N346 H353 0.984 . S
N347 C340 1.356 . S
N347 H350 0.984 . S
N347 H351 0.985 . S
H348 N343 0.984 . S
H349 N343 0.985 1_556 S
H350 N347 0.984 . S
H351 N347 0.985 . S
H352 N346 0.984 . S
H353 N346 0.984 . S
H354 N342 0.984 . S
H355 N342 0.985 . S
C356 C357 1.363 . S
C356 C362 1.379 . S
C356 N364 1.356 . S
C357 C356 1.363 . S
C357 C363 1.363 . S
C358 C359 1.363 . S
C358 C363 1.379 . S
C358 N365 1.356 . S
C359 C358 1.363 . S
C359 C362 1.363 . S
N360 C362 1.356 . S
N360 H372 0.984 . S
N360 H373 0.985 . S
N361 C363 1.356 . S
N361 H366 0.984 . S
N361 H367 0.985 . S
C362 C356 1.379 . S
C362 C359 1.363 . S
C362 N360 1.356 . S
C363 C357 1.363 . S
C363 C358 1.379 . S
C363 N361 1.356 . S
N364 C356 1.356 . S
N364 H370 0.984 . S
N364 H371 0.984 . S
N365 C358 1.356 . S
N365 H368 0.984 . S
N365 H369 0.985 . S
H366 N361 0.984 . S
H367 N361 0.985 . S
H368 N365 0.984 . S
H369 N365 0.985 . S
H370 N364 0.984 . S
H371 N364 0.984 . S
H372 N360 0.984 . S
H373 N360 0.985 . S
C374 C375 1.385 . S
C374 C380 1.379 . S
C374 N382 1.356 . S
C375 C374 1.385 . S
C375 C381 1.352 1_655 S
C376 C377 1.363 1_455 S
C376 C381 1.379 . S
C376 N383 1.356 . S
C377 C376 1.363 1_655 S
C377 C380 1.363 . S
N378 C380 1.356 . S
N378 H390 0.984 . S
N378 H391 0.985 . S
N379 C381 1.356 . S
N379 H384 0.984 . S
N379 H385 0.985 . S
C380 C374 1.379 . S
C380 C377 1.363 . S
C380 N378 1.356 . S
C381 C375 1.352 1_455 S
C381 C376 1.379 . S
C381 N379 1.356 . S
N382 C374 1.356 . S
N382 H388 0.984 . S
N382 H389 0.984 . S
N383 C376 1.356 . S
N383 H386 0.984 . S
N383 H387 0.985 . S
H384 N379 0.984 . S
H385 N379 0.985 . S
H386 N383 0.984 . S
H387 N383 0.985 . S
H388 N382 0.984 . S
H389 N382 0.984 . S
H390 N378 0.984 . S
H391 N378 0.985 . S
C392 C393 1.363 . S
C392 C398 1.379 . S
C392 N400 1.356 . S
C393 C392 1.363 . S
C393 C399 1.363 1_455 S
C394 C395 1.363 . S
C394 C399 1.379 . S
C394 N401 1.356 . S
C395 C394 1.363 . S
C395 C398 1.363 1_655 S
N396 C398 1.356 . S
N396 H408 0.984 . S
N396 H409 0.985 1_455 S
N397 C399 1.356 . S
N397 H402 0.984 . S
N397 H403 0.985 . S
C398 C392 1.379 . S
C398 C395 1.363 1_455 S
C398 N396 1.356 . S
C399 C393 1.363 1_655 S
C399 C394 1.379 . S
C399 N397 1.356 . S
N400 C392 1.356 . S
N400 H406 0.984 . S
N400 H407 0.984 . S
N401 C394 1.356 . S
N401 H404 0.984 . S
N401 H405 0.985 . S
H402 N397 0.984 . S
H403 N397 0.985 . S
H404 N401 0.984 . S
H405 N401 0.985 . S
H406 N400 0.984 . S
H407 N400 0.984 . S
H408 N396 0.984 . S
H409 N396 0.985 1_655 S
C410 C411 1.363 1_545 S
C410 C416 1.379 . S
C410 N418 1.356 . S
C411 C410 1.363 1_565 S
C411 C417 1.363 . S
C412 C413 1.363 . S
C412 C417 1.379 . S
C412 N419 1.356 . S
C413 C412 1.363 . S
C413 C416 1.363 1_565 S
N414 C416 1.356 . S
N414 H426 0.984 . S
N414 H427 0.985 1_545 S
N415 C417 1.356 . S
N415 H420 0.984 . S
N415 H421 0.985 . S
C416 C410 1.379 . S
C416 C413 1.363 1_545 S
C416 N414 1.356 . S
C417 C411 1.363 . S
C417 C412 1.379 . S
C417 N415 1.356 . S
N418 C410 1.356 . S
N418 H424 0.984 . S
N418 H425 0.984 . S
N419 C412 1.356 . S
N419 H422 0.984 . S
N419 H423 0.985 . S
H420 N415 0.984 . S
H421 N415 0.985 . S
H422 N419 0.984 . S
H423 N419 0.985 . S
H424 N418 0.984 . S
H425 N418 0.984 . S
H426 N414 0.984 . S
H427 N414 0.985 1_565 S
C428 C429 1.363 . S
C428 C434 1.379 . S
C428 N436 1.356 . S
C429 C428 1.363 . S
C429 C435 1.363 . S
C430 C431 1.363 . S
C430 C435 1.379 . S
C430 N437 1.356 . S
C431 C430 1.363 . S
C431 C434 1.363 . S
N432 C434 1.356 . S
N432 H444 0.984 . S
N432 H445 0.985 . S
N433 C435 1.356 . S
N433 H438 0.984 . S
N433 H439 0.985 . S
C434 C428 1.379 . S
C434 C431 1.363 . S
C434 N432 1.356 . S
C435 C429 1.363 . S
C435 C430 1.379 . S
C435 N433 1.356 . S
N436 C428 1.356 . S
N436 H442 0.984 . S
N436 H443 0.984 . S
N437 C430 1.356 . S
N437 H440 0.984 . S
N437 H441 0.985 . S
H438 N433 0.984 . S
H439 N433 0.985 . S
H440 N437 0.984 . S
H441 N437 0.985 . S
H442 N436 0.984 . S
H443 N436 0.984 . S
H444 N432 0.984 . S
H445 N432 0.985 . S
C446 C447 1.363 . S
C446 C452 1.379 . S
C446 N454 1.356 1_554 S
C447 C446 1.363 . S
C447 C453 1.363 . S
C448 C449 1.363 . S
C448 C453 1.379 . S
C448 N455 1.356 . S
C449 C448 1.363 . S
C449 C452 1.363 . S
N450 C452 1.356 . S
N450 H462 0.984 . S
N450 H463 0.985 . S
N451 C453 1.356 . S
N451 H456 0.984 . S
N451 H457 0.985 . S
C452 C446 1.379 . S
C452 C449 1.363 . S
C452 N450 1.356 . S
C453 C447 1.363 . S
C453 C448 1.379 . S
C453 N451 1.356 . S
N454 C446 1.356 1_556 S
N454 H460 0.984 . S
N454 H461 0.984 . S
N455 C448 1.356 . S
N455 H458 0.984 . S
N455 H459 0.985 . S
H456 N451 0.984 . S
H457 N451 0.985 . S
H458 N455 0.984 . S
H459 N455 0.985 . S
H460 N454 0.984 . S
H461 N454 0.984 . S
H462 N450 0.984 . S
H463 N450 0.985 . S
C464 C465 1.363 1_455 S
C464 C470 1.379 . S
C464 N472 1.356 . S
C465 C464 1.363 1_655 S
C465 C471 1.363 . S
C466 C467 1.363 1_655 S
C466 C471 1.379 . S
C466 N473 1.356 . S
C467 C466 1.363 1_455 S
C467 C470 1.363 . S
N468 C470 1.356 . S
N468 H480 0.984 . S
N468 H481 0.985 . S
N469 C471 1.356 . S
N469 H474 0.984 . S
N469 H475 0.985 . S
C470 C464 1.379 . S
C470 C467 1.363 . S
C470 N468 1.356 . S
C471 C465 1.363 . S
C471 C466 1.379 . S
C471 N469 1.356 . S
N472 C464 1.356 . S
N472 H478 0.984 . S
N472 H479 0.984 . S
N473 C466 1.356 . S
N473 H476 0.984 1_655 S
N473 H477 0.985 . S
H474 N469 0.984 . S
H475 N469 0.985 . S
H476 N473 0.984 1_455 S
H477 N473 0.985 . S
H478 N472 0.984 . S
H479 N472 0.984 . S
H480 N468 0.984 . S
H481 N468 0.985 . S
C482 C483 1.363 . S
C482 C488 1.379 . S
C482 N490 1.356 1_545 S
C483 C482 1.363 . S
C483 C489 1.363 . S
C484 C485 1.363 . S
C484 C489 1.379 . S
C484 N491 1.356 . S
C485 C484 1.363 . S
C485 C488 1.363 . S
N486 C488 1.356 . S
N486 H498 0.984 . S
N486 H499 0.985 . S
N487 C489 1.356 . S
N487 H492 0.984 1_545 S
N487 H493 0.985 . S
C488 C482 1.379 . S
C488 C485 1.363 . S
C488 N486 1.356 . S
C489 C483 1.363 . S
C489 C484 1.379 . S
C489 N487 1.356 . S
N490 C482 1.356 1_565 S
N490 H496 0.984 . S
N490 H497 0.984 . S
N491 C484 1.356 . S
N491 H494 0.984 . S
N491 H495 0.985 . S
H492 N487 0.984 1_565 S
H493 N487 0.985 . S
H494 N491 0.984 . S
H495 N491 0.985 . S
H496 N490 0.984 . S
H497 N490 0.984 . S
H498 N486 0.984 . S
H499 N486 0.985 . S
C500 C501 1.363 . S
C500 C506 1.379 . S
C500 N508 1.356 . S
C501 C500 1.363 . S
C501 C507 1.363 . S
C502 C503 1.363 . S
C502 C507 1.379 . S
C502 N509 1.356 . S
C503 C502 1.363 . S
C503 C506 1.363 . S
N504 C506 1.356 . S
N504 H516 0.984 . S
N504 H517 0.985 . S
N505 C507 1.356 . S
N505 H510 0.984 . S
N505 H511 0.985 . S
C506 C500 1.379 . S
C506 C503 1.363 . S
C506 N504 1.356 . S
C507 C501 1.363 . S
C507 C502 1.379 . S
C507 N505 1.356 . S
N508 C500 1.356 . S
N508 H514 0.984 . S
N508 H515 0.984 . S
N509 C502 1.356 . S
N509 H512 0.984 . S
N509 H513 0.985 1_554 S
H510 N505 0.984 . S
H511 N505 0.985 . S
H512 N509 0.984 . S
H513 N509 0.985 1_556 S
H514 N508 0.984 . S
H515 N508 0.984 . S
H516 N504 0.984 . S
H517 N504 0.985 . S
C518 C519 1.363 . S
C518 C524 1.379 . S
C518 N526 1.356 . S
C519 C518 1.363 . S
C519 C525 1.363 . S
C520 C521 1.363 . S
C520 C525 1.379 . S
C520 N527 1.356 . S
C521 C520 1.363 . S
C521 C524 1.363 . S
N522 C524 1.356 . S
N522 H534 0.984 . S
N522 H535 0.985 . S
N523 C525 1.356 . S
N523 H528 0.984 . S
N523 H529 0.985 . S
C524 C518 1.379 . S
C524 C521 1.363 . S
C524 N522 1.356 . S
C525 C519 1.363 . S
C525 C520 1.379 . S
C525 N523 1.356 . S
N526 C518 1.356 . S
N526 H532 0.984 . S
N526 H533 0.984 . S
N527 C520 1.356 . S
N527 H530 0.984 . S
N527 H531 0.985 . S
H528 N523 0.984 . S
H529 N523 0.985 . S
H530 N527 0.984 . S
H531 N527 0.985 . S
H532 N526 0.984 . S
H533 N526 0.984 . S
H534 N522 0.984 . S
H535 N522 0.985 . S
C536 C537 1.363 1_554 S
C536 C542 1.379 . S
C536 N544 1.356 . S
C537 C536 1.363 1_556 S
C537 C543 1.363 1_455 S
C538 C539 1.363 1_655 S
C538 C543 1.379 . S
C538 N545 1.356 . S
C539 C538 1.363 1_455 S
C539 C542 1.363 1_556 S
N540 C542 1.356 . S
N540 H552 0.984 . S
N540 H553 0.985 . S
N541 C543 1.356 . S
N541 H546 0.984 . S
N541 H547 0.985 . S
C542 C536 1.379 . S
C542 C539 1.363 1_554 S
C542 N540 1.356 . S
C543 C537 1.363 1_655 S
C543 C538 1.379 . S
C543 N541 1.356 . S
N544 C536 1.356 . S
N544 H550 0.984 . S
N544 H551 0.984 . S
N545 C538 1.356 . S
N545 H548 0.984 . S
N545 H549 0.985 . S
H546 N541 0.984 . S
H547 N541 0.985 . S
H548 N545 0.984 . S
H549 N545 0.985 . S
H550 N544 0.984 . S
H551 N544 0.984 . S
H552 N540 0.984 . S
H553 N540 0.985 . S
C554 C555 1.363 . S
C554 C560 1.379 . S
C554 N562 1.356 . S
C555 C554 1.363 . S
C555 C561 1.363 1_545 S
C556 C557 1.363 1_566 S
C556 C561 1.379 1_556 S
C556 N563 1.356 . S
C557 C556 1.363 1_544 S
C557 C560 1.363 . S
N558 C560 1.356 . S
N558 H570 0.984 . S
N558 H571 0.985 . S
N559 C561 1.356 1_556 S
N559 H564 0.985 . S
N559 H565 0.985 . S
C560 C554 1.379 . S
C560 C557 1.363 . S
C560 N558 1.356 . S
C561 C555 1.363 1_565 S
C561 C556 1.379 1_554 S
C561 N559 1.356 1_554 S
N562 C554 1.356 . S
N562 H568 0.984 . S
N562 H569 0.984 . S
N563 C556 1.356 . S
N563 H566 0.984 . S
N563 H567 0.985 . S
H564 N559 0.985 . S
H565 N559 0.985 . S
H566 N563 0.984 . S
H567 N563 0.985 . S
H568 N562 0.984 . S
H569 N562 0.984 . S
H570 N558 0.984 . S
H571 N558 0.985 . S
C572 C573 1.363 . S
C572 C578 1.379 . S
C572 N580 1.356 . S
C573 C572 1.363 . S
C573 C579 1.363 . S
C574 C575 1.363 . S
C574 C579 1.379 . S
C574 N581 1.356 1_554 S
C575 C574 1.363 . S
C575 C578 1.363 . S
N576 C578 1.356 . S
N576 H588 0.984 . S
N576 H589 0.985 . S
N577 C579 1.356 . S
N577 H582 0.984 . S
N577 H583 0.985 . S
C578 C572 1.379 . S
C578 C575 1.363 . S
C578 N576 1.356 . S
C579 C573 1.363 . S
C579 C574 1.379 . S
C579 N577 1.356 . S
N580 C572 1.356 . S
N580 H586 0.984 . S
N580 H587 0.984 . S
N581 C574 1.356 1_556 S
N581 H584 0.984 . S
N581 H585 0.985 . S
H582 N577 0.984 . S
H583 N577 0.985 . S
H584 N581 0.984 . S
H585 N581 0.985 . S
H586 N580 0.984 . S
H587 N580 0.984 . S
H588 N576 0.984 . S
H589 N576 0.985 . S
C590 C591 1.363 . S
C590 C596 1.379 . S
C590 N598 1.356 . S
C591 C590 1.363 . S
C591 C597 1.363 . S
C592 C593 1.363 . S
C592 C597 1.379 . S
C592 N599 1.356 . S
C593 C592 1.363 . S
C593 C596 1.363 . S
N594 C596 1.356 . S
N594 H606 0.984 . S
N594 H607 0.985 . S
N595 C597 1.356 . S
N595 H600 0.984 . S
N595 H601 0.985 . S
C596 C590 1.379 . S
C596 C593 1.363 . S
C596 N594 1.356 . S
C597 C591 1.363 . S
C597 C592 1.379 . S
C597 N595 1.356 . S
N598 C590 1.356 . S
N598 H604 0.984 . S
N598 H605 0.984 . S
N599 C592 1.356 . S
N599 H602 0.984 . S
N599 H603 0.985 1_556 S
H600 N595 0.984 . S
H601 N595 0.985 . S
H602 N599 0.984 . S
H603 N599 0.985 1_554 S
H604 N598 0.984 . S
H605 N598 0.984 . S
H606 N594 0.984 . S
H607 N594 0.985 . S
C608 C609 1.363 1_455 S
C608 C614 1.379 . S
C608 N616 1.356 . S
C609 C608 1.363 1_655 S
C609 C615 1.363 . S
C610 C611 1.363 . S
C610 C615 1.379 . S
C610 N617 1.356 . S
C611 C610 1.363 . S
C611 C614 1.363 1_655 S
N612 C614 1.356 . S
N612 H624 0.984 . S
N612 H625 0.985 . S
N613 C615 1.356 . S
N613 H618 0.984 . S
N613 H619 0.985 1_556 S
C614 C608 1.379 . S
C614 C611 1.363 1_455 S
C614 N612 1.356 . S
C615 C609 1.363 . S
C615 C610 1.379 . S
C615 N613 1.356 . S
N616 C608 1.356 . S
N616 H622 0.984 . S
N616 H623 0.984 . S
N617 C610 1.356 . S
N617 H620 0.984 . S
N617 H621 0.985 1_556 S
H618 N613 0.984 . S
H619 N613 0.985 1_554 S
H620 N617 0.984 . S
H621 N617 0.985 1_554 S
H622 N616 0.984 . S
H623 N616 0.984 . S
H624 N612 0.984 . S
H625 N612 0.985 . S
C626 C627 1.363 . S
C626 C632 1.379 . S
C626 N634 1.356 . S
C627 C626 1.363 . S
C627 C633 1.363 1_565 S
C628 C629 1.363 1_545 S
C628 C633 1.379 . S
C628 N635 1.356 . S
C629 C628 1.363 1_565 S
C629 C632 1.363 . S
N630 C632 1.356 . S
N630 H642 0.984 . S
N630 H643 0.985 . S
N631 C633 1.356 . S
N631 H636 0.984 . S
N631 H637 0.985 . S
C632 C626 1.379 . S
C632 C629 1.363 . S
C632 N630 1.356 . S
C633 C627 1.363 1_545 S
C633 C628 1.379 . S
C633 N631 1.356 . S
N634 C626 1.356 . S
N634 H640 0.984 . S
N634 H641 0.984 . S
N635 C628 1.356 . S
N635 H638 0.984 . S
N635 H639 0.985 . S
H636 N631 0.984 . S
H637 N631 0.985 . S
H638 N635 0.984 . S
H639 N635 0.985 . S
H640 N634 0.984 . S
H641 N634 0.984 . S
H642 N630 0.984 . S
H643 N630 0.985 . S
C644 C645 1.363 . S
C644 C650 1.379 . S
C644 N652 1.356 . S
C645 C644 1.363 . S
C645 C651 1.363 . S
C646 C647 1.363 . S
C646 C651 1.379 . S
C646 N653 1.356 . S
C647 C646 1.363 . S
C647 C650 1.363 . S
N648 C650 1.356 . S
N648 H660 0.984 . S
N648 H661 0.985 . S
N649 C651 1.356 . S
N649 H654 0.984 . S
N649 H655 0.985 . S
C650 C644 1.379 . S
C650 C647 1.363 . S
C650 N648 1.356 . S
C651 C645 1.363 . S
C651 C646 1.379 . S
C651 N649 1.356 . S
N652 C644 1.356 . S
N652 H658 0.984 . S
N652 H659 0.984 . S
N653 C646 1.356 . S
N653 H656 0.984 . S
N653 H657 0.985 . S
H654 N649 0.984 . S
H655 N649 0.985 . S
H656 N653 0.984 . S
H657 N653 0.985 . S
H658 N652 0.984 . S
H659 N652 0.984 . S
H660 N648 0.984 . S
H661 N648 0.985 . S
C662 C663 1.363 . S
C662 C668 1.379 . S
C662 N670 1.356 1_556 S
C663 C662 1.363 . S
C663 C669 1.363 . S
C664 C665 1.363 . S
C664 C669 1.379 . S
C664 N671 1.356 . S
C665 C664 1.363 . S
C665 C668 1.363 . S
N666 C668 1.356 . S
N666 H678 0.984 1_556 S
N666 H679 0.985 . S
N667 C669 1.356 . S
N667 H672 0.984 . S
N667 H673 0.985 . S
C668 C662 1.379 . S
C668 C665 1.363 . S
C668 N666 1.356 . S
C669 C663 1.363 . S
C669 C664 1.379 . S
C669 N667 1.356 . S
N670 C662 1.356 1_554 S
N670 H676 0.984 . S
N670 H677 0.984 . S
N671 C664 1.356 . S
N671 H674 0.984 . S
N671 H675 0.985 . S
H672 N667 0.984 . S
H673 N667 0.985 . S
H674 N671 0.984 . S
H675 N671 0.985 . S
H676 N670 0.984 . S
H677 N670 0.984 . S
H678 N666 0.984 1_554 S
H679 N666 0.985 . S
C249 C76 2.097 1_545 S
C251 C90 2.192 1_545 S
C269 C130 2.060 . S
C267 C87 1.990 . S
C287 C194 2.066 . S
C285 C54 1.907 . S
C305 C210 1.972 1_455 S
C303 C65 1.660 1_455 S
C323 C111 2.195 1_564 S
C321 C32 2.094 . S
C339 C43 2.000 . S
C341 C151 2.064 1_554 S
C357 C10 1.915 . S
C359 C185 2.065 . S
C375 C21 1.670 . S
C377 C231 1.968 1_654 S
C395 C105 0.651 . S
C393 C60 0.643 . S
C413 C145 0.928 . S
C411 C71 0.923 1_565 S
C431 C181 1.057 . S
C429 C82 1.061 . S
C447 C49 0.960 . S
C449 C225 0.893 . S
C465 C16 0.640 1_655 S
C467 C114 0.649 . S
C485 C154 0.928 . S
C483 C27 0.923 . S
C503 C192 1.057 . S
C501 C38 1.054 . S
C519 C5 0.946 . S
C521 C234 0.899 . S
C537 C59 1.885 1_556 S
C539 C112 2.201 . S
C555 C70 2.023 . S
C557 C152 2.269 1_554 S
C575 C170 1.779 . S
C573 C81 1.743 . S
C593 C232 2.638 . S
C591 C48 2.283 . S
C609 C15 1.892 1_655 S
C611 C101 2.208 . S
C629 C141 2.270 . S
C627 C26 2.028 1_565 S
C647 C191 1.779 . S
C645 C37 1.738 . S
C663 C4 2.283 . S
C665 C221 2.642 . S
