# Generated by pormake.
# Topology anh, (6,3)-cn, num edge types: 1
# Building blocks:
#     Node 0, Type 0, BuildingBlock: BETFAJ_clean_sbu_0, # of connection points: 6
#     Node 1, Type 0, BuildingBlock: BETFAJ_clean_sbu_0, # of connection points: 6
#     Node 2, Type 0, BuildingBlock: BETFAJ_clean_sbu_0, # of connection points: 6
#     Node 3, Type 1, BuildingBlock: CUQRIR_clean_linker_1, # of connection points: 3
#     Node 4, Type 1, BuildingBlock: CUQRIR_clean_linker_1, # of connection points: 3
#     Node 5, Type 1, BuildingBlock: CUQRIR_clean_linker_1, # of connection points: 3
#     Node 6, Type 1, BuildingBlock: CUQRIR_clean_linker_1, # of connection points: 3
#     Node 7, Type 1, BuildingBlock: CUQRIR_clean_linker_1, # of connection points: 3
#     Node 8, Type 1, BuildingBlock: CUQRIR_clean_linker_1, # of connection points: 3
#     Edge 9, Type (0, 1), BuildingBlock: EZIPEK_clean_linker_0, # of connection points: 2
#     Edge 10, Type (0, 1), BuildingBlock: EZIPEK_clean_linker_0, # of connection points: 2
#     Edge 11, Type (0, 1), BuildingBlock: EZIPEK_clean_linker_0, # of connection points: 2
#     Edge 12, Type (0, 1), BuildingBlock: EZIPEK_clean_linker_0, # of connection points: 2
#     Edge 13, Type (0, 1), BuildingBlock: EZIPEK_clean_linker_0, # of connection points: 2
#     Edge 14, Type (0, 1), BuildingBlock: EZIPEK_clean_linker_0, # of connection points: 2
#     Edge 15, Type (0, 1), BuildingBlock: EZIPEK_clean_linker_0, # of connection points: 2
#     Edge 16, Type (0, 1), BuildingBlock: EZIPEK_clean_linker_0, # of connection points: 2
#     Edge 17, Type (0, 1), BuildingBlock: EZIPEK_clean_linker_0, # of connection points: 2
#     Edge 18, Type (0, 1), BuildingBlock: EZIPEK_clean_linker_0, # of connection points: 2
#     Edge 19, Type (0, 1), BuildingBlock: EZIPEK_clean_linker_0, # of connection points: 2
#     Edge 20, Type (0, 1), BuildingBlock: EZIPEK_clean_linker_0, # of connection points: 2
#     Edge 21, Type (0, 1), BuildingBlock: EZIPEK_clean_linker_0, # of connection points: 2
#     Edge 22, Type (0, 1), BuildingBlock: EZIPEK_clean_linker_0, # of connection points: 2
#     Edge 23, Type (0, 1), BuildingBlock: EZIPEK_clean_linker_0, # of connection points: 2
#     Edge 24, Type (0, 1), BuildingBlock: EZIPEK_clean_linker_0, # of connection points: 2
#     Edge 25, Type (0, 1), BuildingBlock: EZIPEK_clean_linker_0, # of connection points: 2
#     Edge 26, Type (0, 1), BuildingBlock: EZIPEK_clean_linker_0, # of connection points: 2
# Relax obj value: 0.279
# Max RMSD: 0.228
# Mean RMSD: 0.174
data_MOF--net-anh--node1-BETFAJ_clean_sbu_0--node2-CUQRIR_clean_linker_1--edge1-EZIPEK_clean_linker_0
_symmetry_space_group_name_H-M    P1
_symmetry_Int_Tables_number       1
_symmetry_cell_setting            triclinic
loop_
_symmetry_equiv_pos_as_xyz
'x, y, z'
_cell_length_a     21.657812
_cell_length_b     27.06787
_cell_length_c     33.282146
_cell_angle_alpha  87.793151
_cell_angle_beta   90.124024
_cell_angle_gamma 133.58995
loop_
_atom_site_label
_atom_site_type_symbol
_atom_site_fract_x
_atom_site_fract_y
_atom_site_fract_z
_atom_type_partial_charge
Sm0 Sm 0.20941 0.49543 0.15837 0.0
Sm1 Sm 1.09949 0.50578 0.14516 0.0
C2 C 0.35522 0.52945 0.16062 0.0
C3 C 0.42908 0.58867 0.18186 0.0
C4 C 0.51093 0.63413 0.16389 0.0
C5 C 0.58128 0.6805 0.18774 0.0
C6 C 0.56865 0.67177 0.23 0.0
C7 C 0.49008 0.64724 0.2441 0.0
C8 C 0.41881 0.60215 0.22052 0.0
C9 C 0.1359 0.47481 0.23174 0.0
C10 C 0.29179 0.65169 0.16037 0.0
C11 C 0.98936 0.51656 0.13204 0.0
C12 C 0.90842 0.47017 0.11119 0.0
C13 C 0.85559 0.39911 0.11566 0.0
C14 C 0.7729 0.35488 0.10138 0.0
C15 C 0.74099 0.38188 0.08526 0.0
C16 C 0.7995 0.45183 0.07321 0.0
C17 C 0.88253 0.49617 0.08705 0.0
C18 C 0.13796 0.47851 0.0743 0.0
C19 C 1.01477 0.34921 0.1566 0.0
O20 O 0.33368 0.54378 0.12898 0.0
O21 O 0.28954 0.47885 0.18318 0.0
O22 O 0.16119 0.52198 0.20581 0.0
O23 O 0.13648 0.43201 0.21645 0.0
O24 O 0.2995 0.60986 0.17364 0.0
O25 O 0.21842 0.62424 0.14491 0.0
O26 O 0.99194 0.49289 0.1664 0.0
O27 O 1.05765 0.54874 0.10931 0.0
O28 O 0.18991 0.52343 0.09844 0.0
O29 O 1.06194 0.44239 0.08941 0.0
O30 O 1.00249 0.38933 0.16496 0.0
O31 O 1.09336 0.37951 0.1451 0.0
H32 H 0.52037 0.63134 0.13248 0.0
H33 H 0.64452 0.71122 0.17439 0.0
H34 H 0.47982 0.64876 0.27567 0.0
H35 H 0.35618 0.57458 0.23345 0.0
H36 H 0.87553 0.37801 0.13318 0.0
H37 H 0.73007 0.30077 0.10933 0.0
H38 H 0.77729 0.47364 0.05913 0.0
H39 H 0.92383 0.55077 0.08161 0.0
Sm40 Sm 0.78201 0.07064 0.46697 0.0
Sm41 Sm 0.67416 0.09703 0.4617 0.0
C42 C 0.85915 0.03003 0.48982 0.0
C43 C 0.83364 0.96829 0.50961 0.0
C44 C 0.76818 0.92919 0.53956 0.0
C45 C 0.74134 0.86833 0.55601 0.0
C46 C 0.77931 0.84568 0.54252 0.0
C47 C 0.84574 0.88545 0.51321 0.0
C48 C 0.87265 0.94625 0.49688 0.0
C49 C 0.77391 0.10327 0.38839 0.0
C50 C 0.5746 0.93454 0.4595 0.0
C51 C 0.57519 0.12058 0.45089 0.0
C52 C 0.58055 0.17421 0.4653 0.0
C53 C 0.56015 0.20354 0.4399 0.0
C54 C 0.57075 0.25768 0.45261 0.0
C55 C 0.60142 0.28274 0.49096 0.0
C56 C 0.62143 0.25321 0.51638 0.0
C57 C 0.6115 0.19964 0.50361 0.0
C58 C 0.7248 0.10082 0.53963 0.0
C59 C 0.87773 0.23145 0.45837 0.0
O60 O 0.85514 0.06693 0.51175 0.0
O61 O 0.83149 0.02313 0.45364 0.0
O62 O 0.71144 0.06433 0.41333 0.0
O63 O 0.84351 0.12665 0.40504 0.0
O64 O 0.65167 0.95734 0.46238 0.0
O65 O 0.56615 0.97861 0.45859 0.0
O66 O 0.63502 0.14139 0.42482 0.0
O67 O 0.55895 0.07665 0.4783 0.0
O68 O 0.69711 0.05655 0.51462 0.0
O69 O 0.7294 0.14739 0.52303 0.0
O70 O 0.80473 0.20522 0.44307 0.0
O71 O 0.88164 0.18906 0.47643 0.0
H72 H 0.73695 0.94509 0.54974 0.0
H73 H 0.68983 0.83816 0.57853 0.0
H74 H 0.87561 0.86864 0.50241 0.0
H75 H 0.92296 0.97549 0.47375 0.0
H76 H 0.53725 0.18523 0.41008 0.0
H77 H 0.55555 0.28028 0.43255 0.0
H78 H 0.64569 0.27224 0.54595 0.0
H79 H 0.62901 0.17867 0.52355 0.0
Sm80 Sm 0.68633 0.6347 0.85971 0.0
Sm81 Sm 0.56964 0.49088 0.85719 0.0
C82 C 0.77453 0.76634 0.84384 0.0
C83 C 0.75995 0.8079 0.82439 0.0
C84 C 0.70344 0.78357 0.79267 0.0
C85 C 0.6889 0.82304 0.77559 0.0
C86 C 0.73036 0.88752 0.78996 0.0
C87 C 0.78745 0.91198 0.82135 0.0
C88 C 0.80204 0.87262 0.83835 0.0
C89 C 0.65918 0.57448 0.93496 0.0
C90 C 0.47242 0.55501 0.86217 0.0
C91 C 0.46574 0.35634 0.86102 0.0
C92 C 0.47966 0.31338 0.84632 0.0
C93 C 0.44594 0.25324 0.868 0.0
C94 C 0.46519 0.21582 0.85581 0.0
C95 C 0.51871 0.2381 0.82178 0.0
C96 C 0.55204 0.29799 0.80006 0.0
C97 C 0.53275 0.33517 0.81215 0.0
C98 C 0.64428 0.55723 0.78282 0.0
C99 C 0.78077 0.56846 0.86015 0.0
O100 O 0.77704 0.72976 0.82056 0.0
O101 O 0.73346 0.73397 0.87808 0.0
O102 O 0.60211 0.55302 0.91008 0.0
O103 O 0.73324 0.63021 0.92075 0.0
O104 O 0.5556 0.61387 0.86309 0.0
O105 O 0.46087 0.49887 0.85993 0.0
O106 O 0.51259 0.39415 0.891 0.0
O107 O 0.46073 0.38937 0.83354 0.0
O108 O 0.61295 0.56971 0.80729 0.0
O109 O 0.64148 0.51133 0.79829 0.0
O110 O 0.69812 0.51073 0.8675 0.0
O111 O 0.79262 0.62444 0.85263 0.0
H112 H 0.6698 0.73374 0.7814 0.0
H113 H 0.64423 0.80282 0.75161 0.0
H114 H 0.81984 0.96125 0.83312 0.0
H115 H 0.84574 0.89253 0.86276 0.0
H116 H 0.40586 0.23582 0.89472 0.0
H117 H 0.43921 0.16997 0.87315 0.0
H118 H 0.5938 0.31636 0.77389 0.0
H119 H 0.56055 0.38163 0.79505 0.0
C120 C 0.65468 1.00191 0.16309 0.0
N121 N 0.71157 0.05435 0.188 0.0
N122 N 0.58751 0.94273 0.18435 0.0
C123 C 0.66458 1.00803 0.11813 0.0
C124 C 0.60568 0.96119 0.22294 0.0
N125 N 0.68052 0.02741 0.22538 0.0
C126 C 0.55173 0.91285 0.25875 0.0
H127 H 0.62546 1.01694 0.10531 0.0
H128 H 0.64096 0.95987 0.10644 0.0
H129 H 0.73215 0.05132 0.10821 0.0
H130 H 0.56575 0.88086 0.26475 0.0
H131 H 0.48293 0.87816 0.25267 0.0
H132 H 0.56478 0.94068 0.28604 0.0
C133 C 0.68171 0.55814 0.54862 0.0
N134 N 0.68629 0.59214 0.57926 0.0
N135 N 0.655 0.49825 0.56249 0.0
C136 C 0.7022 0.58274 0.50511 0.0
C137 C 0.64404 0.49681 0.60257 0.0
N138 N 0.66431 0.55429 0.61309 0.0
C139 C 0.61704 0.44037 0.63155 0.0
H140 H 0.64225 0.55967 0.49003 0.0
H141 H 0.73058 0.56636 0.48974 0.0
H142 H 0.74665 0.63916 0.50196 0.0
H143 H 0.67338 0.44804 0.63804 0.0
H144 H 0.56869 0.39008 0.61808 0.0
H145 H 0.5907 0.43998 0.66024 0.0
C146 C 0.12974 0.56457 0.85215 0.0
N147 N 0.17223 0.55072 0.87582 0.0
N148 N 1.06687 0.55867 0.87315 0.0
C149 C 0.14867 0.58328 0.80816 0.0
C150 C 1.07494 0.54123 0.91038 0.0
N151 N 0.13334 0.53528 0.9118 0.0
C152 C 1.0223 0.52792 0.94651 0.0
H153 H 0.18666 0.63866 0.80333 0.0
H154 H 1.08823 0.55514 0.79213 0.0
H155 H 0.18528 0.57206 0.79586 0.0
H156 H 0.95738 0.4761 0.94516 0.0
H157 H 1.01558 0.56493 0.9464 0.0
H158 H 1.05046 0.53115 0.97531 0.0
C159 C 0.2183 0.58279 0.45675 0.0
N160 N 0.16777 0.52896 0.43211 0.0
N161 N 0.28118 0.64332 0.43526 0.0
C162 C 0.20574 0.57606 0.50155 0.0
C163 C 0.26625 0.62394 0.39678 0.0
N164 N 0.19791 0.55592 0.39474 0.0
C165 C 0.3194 0.67178 0.36072 0.0
H166 H 0.13744 0.54467 0.50952 0.0
H167 H 0.24546 0.62678 0.51465 0.0
H168 H 0.22333 0.54896 0.51459 0.0
H169 H 0.38521 0.71724 0.36913 0.0
H170 H 0.28937 0.68907 0.34775 0.0
H171 H 0.32259 0.64574 0.3371 0.0
C172 C 0.64365 0.07639 0.7725 0.0
N173 N 0.66705 0.05764 0.74327 0.0
N174 N 0.624 0.11071 0.75643 0.0
C175 C 0.63851 0.06038 0.81681 0.0
C176 C 0.63698 0.11307 0.71641 0.0
N177 N 0.66478 0.08222 0.70817 0.0
C178 C 0.62418 0.14711 0.68544 0.0
H179 H 0.57165 1.0137 0.82569 0.0
H180 H 0.6569 0.10256 0.83444 0.0
H181 H 0.68023 0.05149 0.82432 0.0
H182 H 0.68085 0.20298 0.68434 0.0
H183 H 0.56786 0.13866 0.69377 0.0
H184 H 0.61571 0.12789 0.65512 0.0
C185 C 0.56692 0.46538 0.16688 0.0
N186 N 0.58067 0.45573 0.12931 0.0
N187 N 0.58714 0.52512 0.16761 0.0
C188 C 0.54157 0.41985 0.20385 0.0
C189 C 0.60923 0.54974 0.12882 0.0
N190 N 0.6044 0.50752 0.1056 0.0
C191 C 0.63912 0.61625 0.11303 0.0
H192 H 0.52501 0.37244 0.1963 0.0
H193 H 0.48543 0.40448 0.21974 0.0
H194 H 0.59421 0.44842 0.22531 0.0
H195 H 0.65662 0.65015 0.1372 0.0
H196 H 0.58782 0.6057 0.09551 0.0
H197 H 0.69517 0.64302 0.09218 0.0
C198 C 0.53428 0.5709 0.25745 0.0
C199 C 0.59973 0.64245 0.25098 0.0
C200 C 0.67629 0.62415 0.21169 0.0
C201 C 0.59563 0.55931 0.20242 0.0
N202 N 0.44331 0.47272 0.21718 0.0
N203 N 0.75096 0.73288 0.24085 0.0
C204 C 0.52303 0.53135 0.22655 0.0
C205 C 0.67796 0.66675 0.23621 0.0
N206 N 0.47745 0.54297 0.28894 0.0
N207 N 0.75057 0.64783 0.19551 0.0
H208 H 0.75048 0.76472 0.25732 0.0
H209 H 0.80968 0.75413 0.22855 0.0
H210 H 0.7536 0.61914 0.17717 0.0
H211 H 0.7536 0.61914 0.17717 0.0
H212 H 0.42817 0.49024 0.29435 0.0
H213 H 0.48558 0.57361 0.31078 0.0
H214 H 0.38875 0.45449 0.23283 0.0
H215 H 0.43191 0.44678 0.19157 0.0
C216 C 1.03946 0.33885 0.44744 0.0
C217 C 0.95455 0.30921 0.45516 0.0
C218 C 1.01202 0.42697 0.44914 0.0
C219 C 1.09643 0.45571 0.44332 0.0
N220 N 0.19041 0.43883 0.45383 0.0
N221 N 0.86814 0.33089 0.47555 0.0
C222 C 0.11007 0.41153 0.44756 0.0
C223 C 0.94305 0.35501 0.45928 0.0
N224 N 1.05354 0.29871 0.43771 0.0
N225 N 0.99775 0.46873 0.44563 0.0
H226 H 0.81918 0.28063 0.48666 0.0
H227 H 0.85859 0.36237 0.48266 0.0
H228 H 1.04751 0.52167 0.44194 0.0
H229 H 0.93698 0.45063 0.44454 0.0
H230 H 0.11339 0.31893 0.42834 0.0
H231 H 1.00467 0.24637 0.43442 0.0
H232 H 0.20376 0.40909 0.46042 0.0
H233 H 0.24137 0.49101 0.45735 0.0
C234 C 0.63126 0.90641 0.78281 0.0
C235 C 0.71131 0.92836 0.77378 0.0
C236 C 0.76262 0.03625 0.74367 0.0
C237 C 0.68052 1.01199 0.74957 0.0
N238 N 0.53216 0.91834 0.76876 0.0
N239 N 0.84752 1.0085 0.73817 0.0
C240 C 0.61338 0.94501 0.76698 0.0
C241 C 0.77509 0.99145 0.75169 0.0
N242 N 0.5741 0.85108 0.80871 0.0
N243 N 0.83017 0.10354 0.73334 0.0
H244 H 0.85857 0.97693 0.74346 0.0
H245 H 0.89255 0.05066 0.71867 0.0
H246 H 0.82367 0.1381 0.73029 0.0
H247 H 0.89316 0.12612 0.73223 0.0
H248 H 0.51935 0.8377 0.82026 0.0
H249 H 0.58532 0.8224 0.82185 0.0
H250 H 0.47906 0.86732 0.77688 0.0
H251 H 0.51686 0.94572 0.7589 0.0
C252 C 0.65835 0.36853 0.14005 0.0
C253 C 0.65643 0.35254 0.10011 0.0
C254 C 0.56594 0.37442 0.08627 0.0
C255 C 0.59881 0.41482 0.1205 0.0
N256 N 0.70524 0.46633 0.17195 0.0
N257 N 0.59639 0.33114 0.03516 0.0
C258 C 0.6526 0.41605 0.1458 0.0
C259 C 0.60416 0.35077 0.07331 0.0
N260 N 0.67779 0.3471 0.17083 0.0
N261 N 0.49956 0.35888 0.06675 0.0
H262 H 0.62395 0.31321 0.02616 0.0
H263 H 0.56608 0.33534 0.0129 0.0
H264 H 0.46811 0.37233 0.07787 0.0
H265 H 0.47117 0.32707 0.0426 0.0
H266 H 0.68078 0.36008 0.20039 0.0
H267 H 0.67994 0.31022 0.1672 0.0
H268 H 0.74819 0.46926 0.18891 0.0
H269 H 0.71389 0.50919 0.17257 0.0
C270 C 0.48801 0.80671 0.47735 0.0
C271 C 0.49583 0.85798 0.45609 0.0
C272 C 0.34945 0.76433 0.43241 0.0
C273 C 0.34811 0.71397 0.44773 0.0
N274 N 0.42472 0.68953 0.47957 0.0
N275 N 0.43728 0.87961 0.40411 0.0
C276 C 0.41982 0.73585 0.46886 0.0
C277 C 0.42699 0.83517 0.43136 0.0
N278 N 0.54302 0.82465 0.507 0.0
N279 N 0.27623 0.74411 0.41813 0.0
H280 H 0.49523 0.92973 0.39848 0.0
H281 H 0.39161 0.86409 0.38319 0.0
H282 H 0.21893 0.69279 0.41884 0.0
H283 H 0.27081 0.77842 0.40962 0.0
H284 H 0.53589 0.78896 0.52553 0.0
H285 H 0.58948 0.87431 0.51635 0.0
H286 H 0.47925 0.70341 0.49126 0.0
H287 H 0.37676 0.63801 0.47353 0.0
C288 C 0.48347 0.13885 0.78842 0.0
C289 C 0.5423 0.20029 0.80903 0.0
C290 C 0.65453 0.20088 0.7961 0.0
C291 C 0.59526 0.13854 0.77677 0.0
N292 N 0.45053 0.04078 0.76153 0.0
N293 N 0.67694 0.27965 0.8414 0.0
C294 C 0.50861 0.10513 0.77529 0.0
C295 C 0.62584 0.22824 0.81557 0.0
N296 N 0.40493 0.11427 0.77996 0.0
N297 N 0.73902 0.2354 0.79433 0.0
H298 H 0.65848 0.30144 0.85591 0.0
H299 H 0.73356 0.29552 0.85151 0.0
H300 H 0.7617 0.21646 0.7803 0.0
H301 H 0.78683 0.28473 0.80407 0.0
H302 H 0.36264 0.074 0.76134 0.0
H303 H 0.38411 0.1372 0.78934 0.0
H304 H 0.38493 1.01047 0.76301 0.0
H305 H 0.46801 1.01562 0.75161 0.0
C306 C 0.6718 0.71732 0.54225 0.0
C307 C 0.74782 0.7788 0.55736 0.0
C308 C 0.78265 0.71676 0.58722 0.0
C309 C 0.70403 0.65445 0.57487 0.0
N310 N 0.56877 0.59359 0.54405 0.0
N311 N 0.8659 0.83495 0.60146 0.0
C312 C 0.64673 0.65425 0.55373 0.0
C313 C 0.79975 0.77764 0.58247 0.0
N314 N 0.62625 0.71961 0.51508 0.0
N315 N 0.84426 0.71892 0.59997 0.0
H316 H 0.88017 0.88047 0.59843 0.0
H317 H 0.90109 0.83526 0.62304 0.0
H318 H 0.83662 0.67663 0.59921 0.0
H319 H 0.9059 0.76394 0.60619 0.0
H320 H 0.57647 0.67795 0.49912 0.0
H321 H 0.64191 0.76454 0.50612 0.0
H322 H 0.52023 0.58909 0.53287 0.0
H323 H 0.55011 0.5467 0.54989 0.0
C324 C 0.94191 0.62074 0.87837 0.0
C325 C 0.85912 0.56888 0.86047 0.0
C326 C 0.91809 0.51235 0.84771 0.0
C327 C 1.00183 0.56592 0.86364 0.0
N328 N 1.09142 0.6773 0.88925 0.0
N329 N 0.78218 0.46942 0.82135 0.0
C330 C 1.01201 0.62147 0.87733 0.0
C331 C 0.852 0.51603 0.84357 0.0
N332 N 0.95305 0.66872 0.89913 0.0
N333 N 0.90003 0.45559 0.8369 0.0
H334 H 0.73572 0.47067 0.81655 0.0
H335 H 0.77401 0.43382 0.80446 0.0
H336 H 0.94506 0.45208 0.83858 0.0
H337 H 0.84025 0.4112 0.82847 0.0
H338 H 1.00472 0.70303 0.91718 0.0
H339 H 0.90627 0.67008 0.90134 0.0
H340 H 0.11004 0.72333 0.89535 0.0
H341 H 0.14113 0.67904 0.88942 0.0
C342 C 0.4521 0.75962 0.15194 0.0
C343 C 0.36757 0.72929 0.1621 0.0
C344 C 0.43042 0.84603 0.17518 0.0
C345 C 0.51462 0.87339 0.17141 0.0
N346 N 0.60421 0.85207 0.16201 0.0
N347 N 0.28001 0.74592 0.18938 0.0
C348 C 0.5249 0.82892 0.16131 0.0
C349 C 0.35762 0.77336 0.17487 0.0
N350 N 0.4633 0.7236 0.13124 0.0
N351 N 0.42032 0.89002 0.17961 0.0
H352 H 0.2265 0.69357 0.19175 0.0
H353 H 0.27065 0.77451 0.20284 0.0
H354 H 0.47241 0.9427 0.18033 0.0
H355 H 0.36136 0.87514 0.17883 0.0
H356 H 0.5226 0.74486 0.12004 0.0
H357 H 0.41247 0.67536 0.12091 0.0
H358 H 0.61481 0.82012 0.15953 0.0
H359 H 0.6584 0.90222 0.16832 0.0
C360 C 0.69947 0.40506 0.50903 0.0
C361 C 0.61492 0.34111 0.50471 0.0
C362 C 0.55859 0.38728 0.53104 0.0
C363 C 0.64229 0.44745 0.5402 0.0
N364 N 0.79214 0.51274 0.54193 0.0
N365 N 0.46308 0.26833 0.51497 0.0
C366 C 0.71285 0.4563 0.53007 0.0
C367 C 0.54398 0.33149 0.51624 0.0
N368 N 0.76662 0.41709 0.49226 0.0
N369 N 0.49339 0.38404 0.53658 0.0
H370 H 0.44976 0.22614 0.50441 0.0
H371 H 0.40958 0.25637 0.52703 0.0
H372 H 0.50298 0.42423 0.54794 0.0
H373 H 0.43177 0.34434 0.52702 0.0
H374 H 0.82911 0.46463 0.49122 0.0
H375 H 0.75871 0.38092 0.47603 0.0
H376 H 0.84516 0.51904 0.53942 0.0
H377 H 0.80357 0.55138 0.55697 0.0
C378 C 0.30612 0.49577 0.8798 0.0
C379 C 0.39255 0.55316 0.86377 0.0
C380 C 0.33227 0.61035 0.85516 0.0
C381 C 0.24469 0.55092 0.86788 0.0
N382 N 0.15243 0.43046 0.88097 0.0
N383 N 0.47164 0.66124 0.82675 0.0
C384 C 0.23405 0.4924 0.87711 0.0
C385 C 0.40016 0.60908 0.84917 0.0
N386 N 0.29159 0.4436 0.8999 0.0
N387 N 0.35307 0.67047 0.84949 0.0
H388 H 0.5191 0.66206 0.81966 0.0
H389 H 0.47861 0.69893 0.81103 0.0
H390 H 0.30783 0.67349 0.85253 0.0
H391 H 0.41569 0.71742 0.84546 0.0
H392 H 0.23504 0.40433 0.91616 0.0
H393 H 0.3393 0.44372 0.90424 0.0
H394 H 0.13668 0.38439 0.88387 0.0
H395 H 1.10104 0.4255 0.87547 0.0
C396 C 0.94415 0.22807 0.1839 0.0
C397 C 0.93953 0.27109 0.16092 0.0
C398 C 0.78342 0.17024 0.15597 0.0
C399 C 0.78901 0.12669 0.17696 0.0
N400 N 0.88162 0.1123 0.1984 0.0
N401 N 0.85684 0.2738 0.11414 0.0
C402 C 0.87153 0.15527 0.1874 0.0
C403 C 0.85956 0.23936 0.14391 0.0
N404 N 1.01663 0.25628 0.20366 0.0
N405 N 0.70511 0.14643 0.14833 0.0
H406 H 0.91158 0.32198 0.10259 0.0
H407 H 0.80258 0.25146 0.09779 0.0
H408 H 0.64849 0.09689 0.15683 0.0
H409 H 0.69656 0.17773 0.13697 0.0
H410 H 1.02017 0.22839 0.22427 0.0
H411 H 1.07086 0.30842 0.20209 0.0
H412 H 0.94078 0.12881 0.20349 0.0
H413 H 0.8317 0.05965 0.19684 0.0
C414 C 0.22761 0.54767 0.01056 0.0
C415 C 0.15436 0.48494 0.02974 0.0
C416 C 1.08287 0.4473 0.96538 0.0
C417 C 0.14888 0.51473 0.94829 0.0
N418 N 0.28222 0.63039 0.95497 0.0
N419 N 1.03237 0.366 0.02164 0.0
C420 C 0.22197 0.56482 0.97062 0.0
C421 C 1.08834 0.43165 0.00576 0.0
N422 N 0.30298 0.58943 0.02985 0.0
N423 N 1.01145 0.40018 0.94408 0.0
H424 H 1.03879 0.35369 0.05049 0.0
H425 H 0.98621 0.32355 0.00516 0.0
H426 H 1.00484 0.41053 0.91473 0.0
H427 H 0.95655 0.3527 0.95618 0.0
H428 H 0.36008 0.6337 0.01634 0.0
H429 H 0.31085 0.57463 0.05721 0.0
H430 H 0.33206 0.67118 0.97142 0.0
H431 H 0.27834 0.64489 0.92635 0.0
C432 C 0.74921 0.12706 0.31914 0.0
C433 C 0.76241 0.09187 0.34449 0.0
C434 C 0.74645 0.03025 0.28685 0.0
C435 C 0.72193 0.05847 0.26287 0.0
N436 N 0.68851 0.12652 0.25753 0.0
N437 N 0.76224 1.00283 0.35375 0.0
C438 C 0.72148 0.10584 0.27918 0.0
C439 C 0.75927 0.04224 0.32856 0.0
N440 N 0.76289 0.18052 0.3333 0.0
N441 N 0.75398 0.98941 0.26987 0.0
H442 H 0.76967 1.00858 0.3846 0.0
H443 H 0.74981 0.96032 0.34482 0.0
H444 H 0.73744 0.97435 0.24038 0.0
H445 H 0.78171 0.97406 0.28406 0.0
H446 H 0.76219 0.21238 0.31521 0.0
H447 H 0.78209 0.1965 0.36252 0.0
H448 H 0.6779 0.15542 0.26907 0.0
H449 H 0.66518 0.10979 0.2289 0.0
C450 C 0.73313 0.59879 0.72013 0.0
C451 C 0.65692 0.57396 0.73874 0.0
C452 C 0.59829 0.55815 0.67196 0.0
C453 C 0.66874 0.57233 0.65411 0.0
N454 N 0.79678 0.59487 0.66246 0.0
N455 N 0.51272 0.52497 0.73238 0.0
C456 C 0.73513 0.5906 0.67847 0.0
C457 C 0.58892 0.55382 0.7147 0.0
N458 N 0.80373 0.63003 0.74247 0.0
N459 N 0.53791 0.54517 0.64795 0.0
H460 H 0.50175 0.52001 0.76331 0.0
H461 H 0.45765 0.50139 0.7165 0.0
H462 H 0.53874 0.54074 0.61717 0.0
H463 H 0.49042 0.5428 0.65806 0.0
H464 H 0.8635 0.65469 0.7299 0.0
H465 H 0.80436 0.63759 0.77302 0.0
H466 H 0.84097 0.60009 0.67977 0.0
H467 H 0.79912 0.58691 0.63235 0.0
C468 C 0.66331 0.02672 0.60523 0.0
C469 C 0.72561 0.09169 0.5845 0.0
C470 C 0.76595 0.14662 0.64927 0.0
C471 C 0.69373 0.08294 0.66855 0.0
N472 N 0.56671 0.96448 0.66322 0.0
N473 N 0.85503 0.20969 0.58845 0.0
C474 C 0.64159 0.02332 0.64627 0.0
C475 C 0.78281 0.15062 0.60719 0.0
N476 N 0.62636 0.96817 0.58655 0.0
N477 N 0.81467 0.20408 0.67087 0.0
H478 H 0.87061 0.21255 0.55826 0.0
H479 H 0.90345 0.2539 0.60306 0.0
H480 H 0.80452 0.20279 0.70165 0.0
H481 H 0.86232 0.25347 0.65845 0.0
H482 H 0.58579 0.92018 0.6015 0.0
H483 H 0.6455 0.96788 0.55808 0.0
H484 H 0.52059 0.92127 0.64718 0.0
H485 H 0.54693 0.96143 0.69236 0.0
C486 C 0.5705 0.53346 -0.00038 0.0
C487 C 0.64171 0.55196 0.9786 0.0
C488 C 0.68915 0.54068 0.0426 0.0
C489 C 0.6133 0.5147 0.06214 0.0
N490 N 0.47411 0.47432 0.05803 0.0
N491 N 0.75901 0.55854 0.97958 0.0
C492 C 0.5511 0.5064 0.03994 0.0
C493 C 0.6982 0.55117 -6e-05 0.0
N494 N 0.52583 0.54731 0.98283 0.0
N495 N 0.75433 0.55874 0.06499 0.0
H496 H 0.76603 0.56395 0.94832 0.0
H497 H 0.79651 0.55226 0.99352 0.0
H498 H 0.74944 0.55218 0.09629 0.0
H499 H 0.81497 0.58522 0.05275 0.0
H500 H 0.47841 0.54016 -0.00149 0.0
H501 H 0.54299 0.57441 0.95542 0.0
H502 H 0.4229 0.46067 0.04236 0.0
H503 H 0.45916 0.45568 0.08797 0.0
C504 C 0.1949 0.48282 0.30053 0.0
C505 C 0.14006 0.483 0.27632 0.0
C506 C 0.11256 0.52063 0.3339 0.0
C507 C 0.16695 0.52065 0.35761 0.0
N508 N 0.25712 0.4998 0.36537 0.0
N509 N 1.031 0.48536 0.27339 0.0
C510 C 0.20555 0.49962 0.34157 0.0
C511 C 1.09396 0.49668 0.29419 0.0
N512 N 0.24271 0.47233 0.28407 0.0
N513 N 1.08327 0.54793 0.34858 0.0
H514 H 1.01485 0.46675 0.24459 0.0
H515 H 0.98947 0.48804 0.286 0.0
H516 H 1.09708 0.56666 0.37728 0.0
H517 H 1.05133 0.55695 0.33145 0.0
H518 H 0.29288 0.48228 0.29829 0.0
H519 H 0.23792 0.45763 0.25518 0.0
H520 H 0.27589 0.47426 0.35928 0.0
H521 H 0.2791 0.52414 0.3924 0.0
loop_
_geom_bond_atom_site_label_1
_geom_bond_atom_site_label_2
_geom_bond_distance
_geom_bond_site_symmetry_2
_ccdc_geom_bond_type
Sm0 C2 2.846 . S
Sm0 O20 2.543 . S
Sm0 O21 2.450 . S
Sm0 O22 2.681 1_455 S
Sm0 O23 2.464 . S
Sm0 O24 2.396 . S
Sm0 O28 2.386 . S
Sm0 O31 2.408 1_455 S
Sm1 C11 2.846 . S
Sm1 O22 2.386 . S
Sm1 O25 2.408 1_655 S
Sm1 O26 2.543 . S
Sm1 O27 2.450 . S
Sm1 O28 2.681 1_655 S
Sm1 O29 2.464 . S
Sm1 O30 2.396 . S
C2 Sm0 2.846 . S
C2 C3 1.506 . S
C2 O20 1.261 . S
C2 O21 1.242 . S
C3 C2 1.506 . S
C3 C4 1.358 . S
C3 C8 1.382 . S
C4 C3 1.358 . S
C4 C5 1.385 . S
C4 H32 0.930 . S
C5 C4 1.385 . S
C5 C6 1.395 . S
C5 H33 0.929 . S
C6 C5 1.395 . S
C6 C7 1.335 . S
C7 C6 1.335 . S
C7 C8 1.398 . S
C7 H34 0.930 . S
C8 C3 1.382 . S
C8 C7 1.398 . S
C8 H35 0.929 . S
C9 O22 1.271 1_455 S
C9 O23 1.251 . S
C10 O24 1.252 . S
C10 O25 1.272 . S
C11 Sm1 2.846 . S
C11 C12 1.506 . S
C11 O26 1.261 . S
C11 O27 1.242 . S
C12 C11 1.506 . S
C12 C13 1.358 . S
C12 C17 1.382 . S
C13 C12 1.358 . S
C13 C14 1.385 . S
C13 H36 0.930 . S
C14 C13 1.385 . S
C14 C15 1.395 . S
C14 H37 0.929 . S
C15 C14 1.395 . S
C15 C16 1.335 . S
C16 C15 1.335 . S
C16 C17 1.398 . S
C16 H38 0.930 . S
C17 C12 1.382 . S
C17 C16 1.398 . S
C17 H39 0.929 . S
C18 O28 1.271 . S
C18 O29 1.251 1_455 S
C19 O30 1.252 . S
C19 O31 1.272 . S
O20 Sm0 2.543 . S
O20 C2 1.261 . S
O21 Sm0 2.450 . S
O21 C2 1.242 . S
O22 Sm0 2.681 1_655 S
O22 Sm1 2.386 . S
O22 C9 1.271 1_655 S
O23 Sm0 2.464 . S
O23 C9 1.251 . S
O24 Sm0 2.396 . S
O24 C10 1.252 . S
O25 Sm1 2.408 1_455 S
O25 C10 1.272 . S
O26 Sm1 2.543 . S
O26 C11 1.261 . S
O27 Sm1 2.450 . S
O27 C11 1.242 . S
O28 Sm0 2.386 . S
O28 Sm1 2.681 1_455 S
O28 C18 1.271 . S
O29 Sm1 2.464 . S
O29 C18 1.251 1_655 S
O30 Sm1 2.396 . S
O30 C19 1.252 . S
O31 Sm0 2.408 1_655 S
O31 C19 1.272 . S
H32 C4 0.930 . S
H33 C5 0.929 . S
H34 C7 0.930 . S
H35 C8 0.929 . S
H36 C13 0.930 . S
H37 C14 0.929 . S
H38 C16 0.930 . S
H39 C17 0.929 . S
Sm40 C42 2.846 1_545 S
Sm40 O60 2.543 1_545 S
Sm40 O61 2.450 1_545 S
Sm40 O62 2.681 . S
Sm40 O63 2.464 . S
Sm40 O64 2.396 1_545 S
Sm40 O68 2.386 . S
Sm40 O71 2.408 . S
Sm41 C51 2.846 . S
Sm41 O62 2.386 . S
Sm41 O65 2.408 1_545 S
Sm41 O66 2.543 . S
Sm41 O67 2.450 . S
Sm41 O68 2.681 . S
Sm41 O69 2.464 . S
Sm41 O70 2.396 . S
C42 Sm40 2.846 1_565 S
C42 C43 1.506 . S
C42 O60 1.261 . S
C42 O61 1.242 . S
C43 C42 1.506 . S
C43 C44 1.358 . S
C43 C48 1.382 . S
C44 C43 1.358 . S
C44 C45 1.385 . S
C44 H72 0.930 . S
C45 C44 1.385 . S
C45 C46 1.395 . S
C45 H73 0.929 . S
C46 C45 1.395 . S
C46 C47 1.335 . S
C47 C46 1.335 . S
C47 C48 1.398 . S
C47 H74 0.930 . S
C48 C43 1.382 . S
C48 C47 1.398 . S
C48 H75 0.929 . S
C49 O62 1.271 . S
C49 O63 1.251 . S
C50 O64 1.252 . S
C50 O65 1.272 . S
C51 Sm41 2.846 . S
C51 C52 1.506 . S
C51 O66 1.261 . S
C51 O67 1.242 . S
C52 C51 1.506 . S
C52 C53 1.358 . S
C52 C57 1.382 . S
C53 C52 1.358 . S
C53 C54 1.385 . S
C53 H76 0.930 . S
C54 C53 1.385 . S
C54 C55 1.395 . S
C54 H77 0.929 . S
C55 C54 1.395 . S
C55 C56 1.335 . S
C56 C55 1.335 . S
C56 C57 1.398 . S
C56 H78 0.930 . S
C57 C52 1.382 . S
C57 C56 1.398 . S
C57 H79 0.929 . S
C58 O68 1.271 . S
C58 O69 1.251 . S
C59 O70 1.252 . S
C59 O71 1.272 . S
O60 Sm40 2.543 1_565 S
O60 C42 1.261 . S
O61 Sm40 2.450 1_565 S
O61 C42 1.242 . S
O62 Sm40 2.681 . S
O62 Sm41 2.386 . S
O62 C49 1.271 . S
O63 Sm40 2.464 . S
O63 C49 1.251 . S
O64 Sm40 2.396 1_565 S
O64 C50 1.252 . S
O65 Sm41 2.408 1_565 S
O65 C50 1.272 . S
O66 Sm41 2.543 . S
O66 C51 1.261 . S
O67 Sm41 2.450 . S
O67 C51 1.242 . S
O68 Sm40 2.386 . S
O68 Sm41 2.681 . S
O68 C58 1.271 . S
O69 Sm41 2.464 . S
O69 C58 1.251 . S
O70 Sm41 2.396 . S
O70 C59 1.252 . S
O71 Sm40 2.408 . S
O71 C59 1.272 . S
H72 C44 0.930 . S
H73 C45 0.929 . S
H74 C47 0.930 . S
H75 C48 0.929 . S
H76 C53 0.930 . S
H77 C54 0.929 . S
H78 C56 0.930 . S
H79 C57 0.929 . S
Sm80 C82 2.846 . S
Sm80 O100 2.543 . S
Sm80 O101 2.450 . S
Sm80 O102 2.681 . S
Sm80 O103 2.464 . S
Sm80 O104 2.396 . S
Sm80 O108 2.386 . S
Sm80 O111 2.408 . S
Sm81 C91 2.846 . S
Sm81 O102 2.386 . S
Sm81 O105 2.408 . S
Sm81 O106 2.543 . S
Sm81 O107 2.450 . S
Sm81 O108 2.681 . S
Sm81 O109 2.464 . S
Sm81 O110 2.396 . S
C82 Sm80 2.846 . S
C82 C83 1.506 . S
C82 O100 1.261 . S
C82 O101 1.242 . S
C83 C82 1.506 . S
C83 C84 1.358 . S
C83 C88 1.382 . S
C84 C83 1.358 . S
C84 C85 1.385 . S
C84 H112 0.930 . S
C85 C84 1.385 . S
C85 C86 1.395 . S
C85 H113 0.929 . S
C86 C85 1.395 . S
C86 C87 1.335 . S
C87 C86 1.335 . S
C87 C88 1.398 . S
C87 H114 0.930 . S
C88 C83 1.382 . S
C88 C87 1.398 . S
C88 H115 0.929 . S
C89 O102 1.271 . S
C89 O103 1.251 . S
C90 O104 1.252 . S
C90 O105 1.272 . S
C91 Sm81 2.846 . S
C91 C92 1.506 . S
C91 O106 1.261 . S
C91 O107 1.242 . S
C92 C91 1.506 . S
C92 C93 1.358 . S
C92 C97 1.382 . S
C93 C92 1.358 . S
C93 C94 1.385 . S
C93 H116 0.930 . S
C94 C93 1.385 . S
C94 C95 1.395 . S
C94 H117 0.929 . S
C95 C94 1.395 . S
C95 C96 1.335 . S
C96 C95 1.335 . S
C96 C97 1.398 . S
C96 H118 0.930 . S
C97 C92 1.382 . S
C97 C96 1.398 . S
C97 H119 0.929 . S
C98 O108 1.271 . S
C98 O109 1.251 . S
C99 O110 1.252 . S
C99 O111 1.272 . S
O100 Sm80 2.543 . S
O100 C82 1.261 . S
O101 Sm80 2.450 . S
O101 C82 1.242 . S
O102 Sm80 2.681 . S
O102 Sm81 2.386 . S
O102 C89 1.271 . S
O103 Sm80 2.464 . S
O103 C89 1.251 . S
O104 Sm80 2.396 . S
O104 C90 1.252 . S
O105 Sm81 2.408 . S
O105 C90 1.272 . S
O106 Sm81 2.543 . S
O106 C91 1.261 . S
O107 Sm81 2.450 . S
O107 C91 1.242 . S
O108 Sm80 2.386 . S
O108 Sm81 2.681 . S
O108 C98 1.271 . S
O109 Sm81 2.464 . S
O109 C98 1.251 . S
O110 Sm81 2.396 . S
O110 C99 1.252 . S
O111 Sm80 2.408 . S
O111 C99 1.272 . S
H112 C84 0.930 . S
H113 C85 0.929 . S
H114 C87 0.930 . S
H115 C88 0.929 . S
H116 C93 0.930 . S
H117 C94 0.929 . S
H118 C96 0.930 . S
H119 C97 0.929 . S
C120 N121 1.317 1_565 S
C120 N122 1.348 . S
C120 C123 1.485 1_565 S
N121 C120 1.317 1_545 S
N121 N125 1.370 . S
N122 C120 1.348 . S
N122 C124 1.346 . S
C123 C120 1.485 1_545 S
C123 H127 0.960 . S
C123 H128 0.961 1_545 S
C123 H129 0.960 . S
C124 N122 1.346 . S
C124 N125 1.307 1_565 S
C124 C126 1.486 . S
N125 N121 1.370 . S
N125 C124 1.307 1_545 S
C126 C124 1.486 . S
C126 H130 0.960 . S
C126 H131 0.960 . S
C126 H132 0.959 . S
H127 C123 0.960 . S
H128 C123 0.961 1_565 S
H129 C123 0.960 . S
H130 C126 0.960 . S
H131 C126 0.960 . S
H132 C126 0.959 . S
C133 N134 1.317 . S
C133 N135 1.348 . S
C133 C136 1.485 . S
N134 C133 1.317 . S
N134 N138 1.370 . S
N135 C133 1.348 . S
N135 C137 1.346 . S
C136 C133 1.485 . S
C136 H140 0.960 . S
C136 H141 0.961 . S
C136 H142 0.960 . S
C137 N135 1.346 . S
C137 N138 1.307 . S
C137 C139 1.486 . S
N138 N134 1.370 . S
N138 C137 1.307 . S
C139 C137 1.486 . S
C139 H143 0.960 . S
C139 H144 0.960 . S
C139 H145 0.959 . S
H140 C136 0.960 . S
H141 C136 0.961 . S
H142 C136 0.960 . S
H143 C139 0.960 . S
H144 C139 0.960 . S
H145 C139 0.959 . S
C146 N147 1.317 . S
C146 N148 1.348 . S
C146 C149 1.485 . S
N147 C146 1.317 . S
N147 N151 1.370 . S
N148 C146 1.348 . S
N148 C150 1.346 . S
C149 C146 1.485 . S
C149 H153 0.960 . S
C149 H154 0.961 . S
C149 H155 0.960 . S
C150 N148 1.346 . S
C150 N151 1.307 . S
C150 C152 1.486 1_455 S
N151 N147 1.370 . S
N151 C150 1.307 . S
C152 C150 1.486 1_655 S
C152 H156 0.960 . S
C152 H157 0.960 . S
C152 H158 0.959 . S
H153 C149 0.960 . S
H154 C149 0.961 . S
H155 C149 0.960 . S
H156 C152 0.960 . S
H157 C152 0.960 . S
H158 C152 0.959 . S
C159 N160 1.317 . S
C159 N161 1.348 . S
C159 C162 1.485 . S
N160 C159 1.317 . S
N160 N164 1.370 . S
N161 C159 1.348 . S
N161 C163 1.346 . S
C162 C159 1.485 . S
C162 H166 0.960 . S
C162 H167 0.961 . S
C162 H168 0.960 . S
C163 N161 1.346 . S
C163 N164 1.307 . S
C163 C165 1.486 . S
N164 N160 1.370 . S
N164 C163 1.307 . S
C165 C163 1.486 . S
C165 H169 0.960 . S
C165 H170 0.960 . S
C165 H171 0.959 . S
H166 C162 0.960 . S
H167 C162 0.961 . S
H168 C162 0.960 . S
H169 C165 0.960 . S
H170 C165 0.960 . S
H171 C165 0.959 . S
C172 N173 1.317 . S
C172 N174 1.348 . S
C172 C175 1.485 . S
N173 C172 1.317 . S
N173 N177 1.370 . S
N174 C172 1.348 . S
N174 C176 1.346 . S
C175 C172 1.485 . S
C175 H179 0.960 . S
C175 H180 0.961 . S
C175 H181 0.960 . S
C176 N174 1.346 . S
C176 N177 1.307 . S
C176 C178 1.486 . S
N177 N173 1.370 . S
N177 C176 1.307 . S
C178 C176 1.486 . S
C178 H182 0.960 . S
C178 H183 0.960 . S
C178 H184 0.959 . S
H179 C175 0.960 . S
H180 C175 0.961 . S
H181 C175 0.960 . S
H182 C178 0.960 . S
H183 C178 0.960 . S
H184 C178 0.959 . S
C185 N186 1.317 . S
C185 N187 1.348 . S
C185 C188 1.485 . S
N186 C185 1.317 . S
N186 N190 1.370 . S
N187 C185 1.348 . S
N187 C189 1.346 . S
C188 C185 1.485 . S
C188 H192 0.960 . S
C188 H193 0.961 . S
C188 H194 0.960 . S
C189 N187 1.346 . S
C189 N190 1.307 . S
C189 C191 1.486 . S
N190 N186 1.370 . S
N190 C189 1.307 . S
C191 C189 1.486 . S
C191 H195 0.960 . S
C191 H196 0.960 . S
C191 H197 0.959 . S
H192 C188 0.960 . S
H193 C188 0.961 . S
H194 C188 0.960 . S
H195 C191 0.960 . S
H196 C191 0.960 . S
H197 C191 0.959 . S
C198 C199 1.363 . S
C198 C204 1.379 . S
C198 N206 1.356 . S
C199 C198 1.363 . S
C199 C205 1.363 . S
C200 C201 1.363 . S
C200 C205 1.379 . S
C200 N207 1.356 . S
C201 C200 1.363 . S
C201 C204 1.363 . S
N202 C204 1.356 . S
N202 H214 0.984 . S
N202 H215 0.985 . S
N203 C205 1.356 . S
N203 H208 0.984 . S
N203 H209 0.985 . S
C204 C198 1.379 . S
C204 C201 1.363 . S
C204 N202 1.356 . S
C205 C199 1.363 . S
C205 C200 1.379 . S
C205 N203 1.356 . S
N206 C198 1.356 . S
N206 H212 0.984 . S
N206 H213 0.984 . S
N207 C200 1.356 . S
N207 H210 0.984 . S
N207 H211 0.985 . S
H208 N203 0.984 . S
H209 N203 0.985 . S
H210 N207 0.984 . S
H211 N207 0.985 . S
H212 N206 0.984 . S
H213 N206 0.984 . S
H214 N202 0.984 . S
H215 N202 0.985 . S
C216 C217 1.363 . S
C216 C222 1.379 . S
C216 N224 1.356 . S
C217 C216 1.363 . S
C217 C223 1.363 . S
C218 C219 1.363 . S
C218 C223 1.379 . S
C218 N225 1.356 . S
C219 C218 1.363 . S
C219 C222 1.363 . S
N220 C222 1.356 . S
N220 H232 0.984 . S
N220 H233 0.985 1_655 S
N221 C223 1.356 . S
N221 H226 0.984 . S
N221 H227 0.985 . S
C222 C216 1.379 . S
C222 C219 1.363 . S
C222 N220 1.356 . S
C223 C217 1.363 . S
C223 C218 1.379 . S
C223 N221 1.356 . S
N224 C216 1.356 . S
N224 H230 0.984 . S
N224 H231 0.984 . S
N225 C218 1.356 . S
N225 H228 0.984 . S
N225 H229 0.985 . S
H226 N221 0.984 . S
H227 N221 0.985 . S
H228 N225 0.984 . S
H229 N225 0.985 . S
H230 N224 0.984 . S
H231 N224 0.984 . S
H232 N220 0.984 . S
H233 N220 0.985 1_455 S
C234 C235 1.363 . S
C234 C240 1.379 . S
C234 N242 1.356 . S
C235 C234 1.363 . S
C235 C241 1.363 . S
C236 C237 1.363 . S
C236 C241 1.379 . S
C236 N243 1.356 . S
C237 C236 1.363 . S
C237 C240 1.363 . S
N238 C240 1.356 . S
N238 H250 0.984 . S
N238 H251 0.985 . S
N239 C241 1.356 . S
N239 H244 0.984 . S
N239 H245 0.985 . S
C240 C234 1.379 . S
C240 C237 1.363 . S
C240 N238 1.356 . S
C241 C235 1.363 . S
C241 C236 1.379 . S
C241 N239 1.356 . S
N242 C234 1.356 . S
N242 H248 0.984 . S
N242 H249 0.984 . S
N243 C236 1.356 . S
N243 H246 0.984 . S
N243 H247 0.985 . S
H244 N239 0.984 . S
H245 N239 0.985 . S
H246 N243 0.984 . S
H247 N243 0.985 . S
H248 N242 0.984 . S
H249 N242 0.984 . S
H250 N238 0.984 . S
H251 N238 0.985 . S
C252 C253 1.363 . S
C252 C258 1.379 . S
C252 N260 1.356 . S
C253 C252 1.363 . S
C253 C259 1.363 . S
C254 C255 1.363 . S
C254 C259 1.379 . S
C254 N261 1.356 . S
C255 C254 1.363 . S
C255 C258 1.363 . S
N256 C258 1.356 . S
N256 H268 0.984 . S
N256 H269 0.985 . S
N257 C259 1.356 . S
N257 H262 0.984 . S
N257 H263 0.985 . S
C258 C252 1.379 . S
C258 C255 1.363 . S
C258 N256 1.356 . S
C259 C253 1.363 . S
C259 C254 1.379 . S
C259 N257 1.356 . S
N260 C252 1.356 . S
N260 H266 0.984 . S
N260 H267 0.984 . S
N261 C254 1.356 . S
N261 H264 0.984 . S
N261 H265 0.985 . S
H262 N257 0.984 . S
H263 N257 0.985 . S
H264 N261 0.984 . S
H265 N261 0.985 . S
H266 N260 0.984 . S
H267 N260 0.984 . S
H268 N256 0.984 . S
H269 N256 0.985 . S
C270 C271 1.363 . S
C270 C276 1.379 . S
C270 N278 1.356 . S
C271 C270 1.363 . S
C271 C277 1.363 . S
C272 C273 1.363 . S
C272 C277 1.379 . S
C272 N279 1.356 . S
C273 C272 1.363 . S
C273 C276 1.363 . S
N274 C276 1.356 . S
N274 H286 0.984 . S
N274 H287 0.985 . S
N275 C277 1.356 . S
N275 H280 0.984 . S
N275 H281 0.985 . S
C276 C270 1.379 . S
C276 C273 1.363 . S
C276 N274 1.356 . S
C277 C271 1.363 . S
C277 C272 1.379 . S
C277 N275 1.356 . S
N278 C270 1.356 . S
N278 H284 0.984 . S
N278 H285 0.984 . S
N279 C272 1.356 . S
N279 H282 0.984 . S
N279 H283 0.985 . S
H280 N275 0.984 . S
H281 N275 0.985 . S
H282 N279 0.984 . S
H283 N279 0.985 . S
H284 N278 0.984 . S
H285 N278 0.984 . S
H286 N274 0.984 . S
H287 N274 0.985 . S
C288 C289 1.363 . S
C288 C294 1.379 . S
C288 N296 1.356 . S
C289 C288 1.363 . S
C289 C295 1.363 . S
C290 C291 1.363 . S
C290 C295 1.379 . S
C290 N297 1.356 . S
C291 C290 1.363 . S
C291 C294 1.363 . S
N292 C294 1.356 . S
N292 H304 0.984 . S
N292 H305 0.985 . S
N293 C295 1.356 . S
N293 H298 0.984 . S
N293 H299 0.985 . S
C294 C288 1.379 . S
C294 C291 1.363 . S
C294 N292 1.356 . S
C295 C289 1.363 . S
C295 C290 1.379 . S
C295 N293 1.356 . S
N296 C288 1.356 . S
N296 H302 0.984 . S
N296 H303 0.984 . S
N297 C290 1.356 . S
N297 H300 0.984 . S
N297 H301 0.985 . S
H298 N293 0.984 . S
H299 N293 0.985 . S
H300 N297 0.984 . S
H301 N297 0.985 . S
H302 N296 0.984 . S
H303 N296 0.984 . S
H304 N292 0.984 . S
H305 N292 0.985 . S
C306 C307 1.363 . S
C306 C312 1.379 . S
C306 N314 1.356 . S
C307 C306 1.363 . S
C307 C313 1.363 . S
C308 C309 1.363 . S
C308 C313 1.379 . S
C308 N315 1.356 . S
C309 C308 1.363 . S
C309 C312 1.363 . S
N310 C312 1.356 . S
N310 H322 0.984 . S
N310 H323 0.985 . S
N311 C313 1.356 . S
N311 H316 0.984 . S
N311 H317 0.985 . S
C312 C306 1.379 . S
C312 C309 1.363 . S
C312 N310 1.356 . S
C313 C307 1.363 . S
C313 C308 1.379 . S
C313 N311 1.356 . S
N314 C306 1.356 . S
N314 H320 0.984 . S
N314 H321 0.984 . S
N315 C308 1.356 . S
N315 H318 0.984 . S
N315 H319 0.985 . S
H316 N311 0.984 . S
H317 N311 0.985 . S
H318 N315 0.984 . S
H319 N315 0.985 . S
H320 N314 0.984 . S
H321 N314 0.984 . S
H322 N310 0.984 . S
H323 N310 0.985 . S
C324 C325 1.363 . S
C324 C330 1.379 . S
C324 N332 1.356 . S
C325 C324 1.363 . S
C325 C331 1.363 . S
C326 C327 1.363 . S
C326 C331 1.379 . S
C326 N333 1.356 . S
C327 C326 1.363 . S
C327 C330 1.363 . S
N328 C330 1.356 . S
N328 H340 0.984 1_655 S
N328 H341 0.985 1_655 S
N329 C331 1.356 . S
N329 H334 0.984 . S
N329 H335 0.985 . S
C330 C324 1.379 . S
C330 C327 1.363 . S
C330 N328 1.356 . S
C331 C325 1.363 . S
C331 C326 1.379 . S
C331 N329 1.356 . S
N332 C324 1.356 . S
N332 H338 0.984 . S
N332 H339 0.984 . S
N333 C326 1.356 . S
N333 H336 0.984 . S
N333 H337 0.985 . S
H334 N329 0.984 . S
H335 N329 0.985 . S
H336 N333 0.984 . S
H337 N333 0.985 . S
H338 N332 0.984 . S
H339 N332 0.984 . S
H340 N328 0.984 1_455 S
H341 N328 0.985 1_455 S
C342 C343 1.363 . S
C342 C348 1.379 . S
C342 N350 1.356 . S
C343 C342 1.363 . S
C343 C349 1.363 . S
C344 C345 1.363 . S
C344 C349 1.379 . S
C344 N351 1.356 . S
C345 C344 1.363 . S
C345 C348 1.363 . S
N346 C348 1.356 . S
N346 H358 0.984 . S
N346 H359 0.985 . S
N347 C349 1.356 . S
N347 H352 0.984 . S
N347 H353 0.985 . S
C348 C342 1.379 . S
C348 C345 1.363 . S
C348 N346 1.356 . S
C349 C343 1.363 . S
C349 C344 1.379 . S
C349 N347 1.356 . S
N350 C342 1.356 . S
N350 H356 0.984 . S
N350 H357 0.984 . S
N351 C344 1.356 . S
N351 H354 0.984 . S
N351 H355 0.985 . S
H352 N347 0.984 . S
H353 N347 0.985 . S
H354 N351 0.984 . S
H355 N351 0.985 . S
H356 N350 0.984 . S
H357 N350 0.984 . S
H358 N346 0.984 . S
H359 N346 0.985 . S
C360 C361 1.363 . S
C360 C366 1.379 . S
C360 N368 1.356 . S
C361 C360 1.363 . S
C361 C367 1.363 . S
C362 C363 1.363 . S
C362 C367 1.379 . S
C362 N369 1.356 . S
C363 C362 1.363 . S
C363 C366 1.363 . S
N364 C366 1.356 . S
N364 H376 0.984 . S
N364 H377 0.985 . S
N365 C367 1.356 . S
N365 H370 0.984 . S
N365 H371 0.985 . S
C366 C360 1.379 . S
C366 C363 1.363 . S
C366 N364 1.356 . S
C367 C361 1.363 . S
C367 C362 1.379 . S
C367 N365 1.356 . S
N368 C360 1.356 . S
N368 H374 0.984 . S
N368 H375 0.984 . S
N369 C362 1.356 . S
N369 H372 0.984 . S
N369 H373 0.985 . S
H370 N365 0.984 . S
H371 N365 0.985 . S
H372 N369 0.984 . S
H373 N369 0.985 . S
H374 N368 0.984 . S
H375 N368 0.984 . S
H376 N364 0.984 . S
H377 N364 0.985 . S
C378 C379 1.363 . S
C378 C384 1.379 . S
C378 N386 1.356 . S
C379 C378 1.363 . S
C379 C385 1.363 . S
C380 C381 1.363 . S
C380 C385 1.379 . S
C380 N387 1.356 . S
C381 C380 1.363 . S
C381 C384 1.363 . S
N382 C384 1.356 . S
N382 H394 0.984 . S
N382 H395 0.985 . S
N383 C385 1.356 . S
N383 H388 0.984 . S
N383 H389 0.985 . S
C384 C378 1.379 . S
C384 C381 1.363 . S
C384 N382 1.356 . S
C385 C379 1.363 . S
C385 C380 1.379 . S
C385 N383 1.356 . S
N386 C378 1.356 . S
N386 H392 0.984 . S
N386 H393 0.984 . S
N387 C380 1.356 . S
N387 H390 0.984 . S
N387 H391 0.985 . S
H388 N383 0.984 . S
H389 N383 0.985 . S
H390 N387 0.984 . S
H391 N387 0.985 . S
H392 N386 0.984 . S
H393 N386 0.984 . S
H394 N382 0.984 . S
H395 N382 0.985 . S
C396 C397 1.363 . S
C396 C402 1.379 . S
C396 N404 1.356 . S
C397 C396 1.363 . S
C397 C403 1.363 . S
C398 C399 1.363 . S
C398 C403 1.379 . S
C398 N405 1.356 . S
C399 C398 1.363 . S
C399 C402 1.363 . S
N400 C402 1.356 . S
N400 H412 0.984 . S
N400 H413 0.985 . S
N401 C403 1.356 . S
N401 H406 0.984 . S
N401 H407 0.985 . S
C402 C396 1.379 . S
C402 C399 1.363 . S
C402 N400 1.356 . S
C403 C397 1.363 . S
C403 C398 1.379 . S
C403 N401 1.356 . S
N404 C396 1.356 . S
N404 H410 0.984 . S
N404 H411 0.984 . S
N405 C398 1.356 . S
N405 H408 0.984 . S
N405 H409 0.985 . S
H406 N401 0.984 . S
H407 N401 0.985 . S
H408 N405 0.984 . S
H409 N405 0.985 . S
H410 N404 0.984 . S
H411 N404 0.984 . S
H412 N400 0.984 . S
H413 N400 0.985 . S
C414 C415 1.363 . S
C414 C420 1.379 1_554 S
C414 N422 1.356 . S
C415 C414 1.363 . S
C415 C421 1.363 . S
C416 C417 1.363 . S
C416 C421 1.379 1_556 S
C416 N423 1.356 . S
C417 C416 1.363 . S
C417 C420 1.363 . S
N418 C420 1.356 . S
N418 H430 0.984 . S
N418 H431 0.985 . S
N419 C421 1.356 . S
N419 H424 0.984 . S
N419 H425 0.985 . S
C420 C414 1.379 1_556 S
C420 C417 1.363 . S
C420 N418 1.356 . S
C421 C415 1.363 . S
C421 C416 1.379 1_554 S
C421 N419 1.356 . S
N422 C414 1.356 . S
N422 H428 0.984 . S
N422 H429 0.984 . S
N423 C416 1.356 . S
N423 H426 0.984 . S
N423 H427 0.985 . S
H424 N419 0.984 . S
H425 N419 0.985 . S
H426 N423 0.984 . S
H427 N423 0.985 . S
H428 N422 0.984 . S
H429 N422 0.984 . S
H430 N418 0.984 . S
H431 N418 0.985 . S
C432 C433 1.363 . S
C432 C438 1.379 . S
C432 N440 1.356 . S
C433 C432 1.363 . S
C433 C439 1.363 1_545 S
C434 C435 1.363 1_565 S
C434 C439 1.379 . S
C434 N441 1.356 . S
C435 C434 1.363 1_545 S
C435 C438 1.363 . S
N436 C438 1.356 . S
N436 H448 0.984 . S
N436 H449 0.985 . S
N437 C439 1.356 . S
N437 H442 0.984 . S
N437 H443 0.985 . S
C438 C432 1.379 . S
C438 C435 1.363 . S
C438 N436 1.356 . S
C439 C433 1.363 1_565 S
C439 C434 1.379 . S
C439 N437 1.356 . S
N440 C432 1.356 . S
N440 H446 0.984 . S
N440 H447 0.984 . S
N441 C434 1.356 . S
N441 H444 0.984 . S
N441 H445 0.985 . S
H442 N437 0.984 . S
H443 N437 0.985 . S
H444 N441 0.984 . S
H445 N441 0.985 . S
H446 N440 0.984 . S
H447 N440 0.984 . S
H448 N436 0.984 . S
H449 N436 0.985 . S
C450 C451 1.363 . S
C450 C456 1.379 . S
C450 N458 1.356 . S
C451 C450 1.363 . S
C451 C457 1.363 . S
C452 C453 1.363 . S
C452 C457 1.379 . S
C452 N459 1.356 . S
C453 C452 1.363 . S
C453 C456 1.363 . S
N454 C456 1.356 . S
N454 H466 0.984 . S
N454 H467 0.985 . S
N455 C457 1.356 . S
N455 H460 0.984 . S
N455 H461 0.985 . S
C456 C450 1.379 . S
C456 C453 1.363 . S
C456 N454 1.356 . S
C457 C451 1.363 . S
C457 C452 1.379 . S
C457 N455 1.356 . S
N458 C450 1.356 . S
N458 H464 0.984 . S
N458 H465 0.984 . S
N459 C452 1.356 . S
N459 H462 0.984 . S
N459 H463 0.985 . S
H460 N455 0.984 . S
H461 N455 0.985 . S
H462 N459 0.984 . S
H463 N459 0.985 . S
H464 N458 0.984 . S
H465 N458 0.984 . S
H466 N454 0.984 . S
H467 N454 0.985 . S
C468 C469 1.363 1_565 S
C468 C474 1.379 . S
C468 N476 1.356 . S
C469 C468 1.363 1_545 S
C469 C475 1.363 . S
C470 C471 1.363 . S
C470 C475 1.379 . S
C470 N477 1.356 . S
C471 C470 1.363 . S
C471 C474 1.363 1_545 S
N472 C474 1.356 . S
N472 H484 0.984 . S
N472 H485 0.985 . S
N473 C475 1.356 . S
N473 H478 0.984 . S
N473 H479 0.985 . S
C474 C468 1.379 . S
C474 C471 1.363 1_565 S
C474 N472 1.356 . S
C475 C469 1.363 . S
C475 C470 1.379 . S
C475 N473 1.356 . S
N476 C468 1.356 . S
N476 H482 0.984 . S
N476 H483 0.984 . S
N477 C470 1.356 . S
N477 H480 0.984 . S
N477 H481 0.985 . S
H478 N473 0.984 . S
H479 N473 0.985 . S
H480 N477 0.984 . S
H481 N477 0.985 . S
H482 N476 0.984 . S
H483 N476 0.984 . S
H484 N472 0.984 . S
H485 N472 0.985 . S
C486 C487 1.363 . S
C486 C492 1.379 1_556 S
C486 N494 1.356 . S
C487 C486 1.363 . S
C487 C493 1.363 . S
C488 C489 1.363 . S
C488 C493 1.379 1_554 S
C488 N495 1.356 . S
C489 C488 1.363 . S
C489 C492 1.363 . S
N490 C492 1.356 . S
N490 H502 0.984 . S
N490 H503 0.985 . S
N491 C493 1.356 . S
N491 H496 0.984 . S
N491 H497 0.985 . S
C492 C486 1.379 1_554 S
C492 C489 1.363 . S
C492 N490 1.356 . S
C493 C487 1.363 . S
C493 C488 1.379 1_556 S
C493 N491 1.356 . S
N494 C486 1.356 . S
N494 H500 0.984 . S
N494 H501 0.984 . S
N495 C488 1.356 . S
N495 H498 0.984 . S
N495 H499 0.985 . S
H496 N491 0.984 . S
H497 N491 0.985 . S
H498 N495 0.984 . S
H499 N495 0.985 . S
H500 N494 0.984 . S
H501 N494 0.984 . S
H502 N490 0.984 . S
H503 N490 0.985 . S
C504 C505 1.360 1_455 S
C504 C510 1.379 . S
C504 N512 1.356 . S
C505 C504 1.360 1_655 S
C505 C511 1.366 . S
C506 C507 1.363 1_655 S
C506 C511 1.379 . S
C506 N513 1.356 . S
C507 C506 1.363 1_455 S
C507 C510 1.363 . S
N508 C510 1.356 . S
N508 H520 0.984 . S
N508 H521 0.985 . S
N509 C511 1.356 . S
N509 H514 0.984 . S
N509 H515 0.985 . S
C510 C504 1.379 . S
C510 C507 1.363 . S
C510 N508 1.356 . S
C511 C505 1.366 . S
C511 C506 1.379 . S
C511 N509 1.356 . S
N512 C504 1.356 . S
N512 H518 0.984 . S
N512 H519 0.984 . S
N513 C506 1.356 . S
N513 H516 0.984 . S
N513 H517 0.985 . S
H514 N509 0.984 . S
H515 N509 0.985 . S
H516 N513 0.984 . S
H517 N513 0.985 . S
H518 N512 0.984 . S
H519 N512 0.984 . S
H520 N508 0.984 . S
H521 N508 0.985 . S
C199 C6 0.788 . S
C201 N187 0.810 . S
C217 C59 1.862 . S
C219 N160 1.862 1_655 S
C235 C86 1.369 . S
C237 N173 1.370 1_565 S
C253 C15 1.038 . S
C255 N186 1.160 . S
C273 N161 1.986 . S
C271 C50 1.993 . S
C291 N174 1.505 . S
C289 C95 1.433 . S
C307 C46 1.187 . S
C309 N134 1.189 . S
C325 C99 2.943 . S
C327 N148 2.898 1_655 S
C343 C10 2.024 . S
C345 N122 2.039 . S
C363 N135 1.563 . S
C361 C55 1.474 . S
C381 N147 3.287 . S
C379 C90 3.241 . S
C397 C19 1.870 . S
C399 N121 1.904 . S
C417 N151 1.766 . S
C415 C18 1.774 . S
C433 C49 1.444 . S
C435 N125 1.453 . S
C451 C98 1.471 . S
C453 N138 1.580 . S
C471 N177 1.526 . S
C469 C58 1.442 . S
C489 N190 1.160 . S
C487 C89 1.181 . S
C505 C9 1.390 1_655 S
C507 N164 1.426 . S
