# Generated by pormake.
# Topology pyr, (3,6)-cn, num edge types: 1
# Building blocks:
#     Node 0, Type 0, BuildingBlock: BETDIP_clean_linker_0, # of connection points: 3
#     Node 1, Type 0, BuildingBlock: BETDIP_clean_linker_0, # of connection points: 3
#     Node 2, Type 0, BuildingBlock: BETDIP_clean_linker_0, # of connection points: 3
#     Node 3, Type 0, BuildingBlock: BETDIP_clean_linker_0, # of connection points: 3
#     Node 4, Type 0, BuildingBlock: BETDIP_clean_linker_0, # of connection points: 3
#     Node 5, Type 0, BuildingBlock: BETDIP_clean_linker_0, # of connection points: 3
#     Node 6, Type 0, BuildingBlock: BETDIP_clean_linker_0, # of connection points: 3
#     Node 7, Type 0, BuildingBlock: BETDIP_clean_linker_0, # of connection points: 3
#     Node 8, Type 1, BuildingBlock: MIDCAF_clean_sbu_0, # of connection points: 6
#     Node 9, Type 1, BuildingBlock: MIDCAF_clean_sbu_0, # of connection points: 6
#     Node 10, Type 1, BuildingBlock: MIDCAF_clean_sbu_0, # of connection points: 6
#     Node 11, Type 1, BuildingBlock: MIDCAF_clean_sbu_0, # of connection points: 6
#     Edge 12, Type (0, 1), BuildingBlock: MIFKUJ_clean_linker_0, # of connection points: 2
#     Edge 13, Type (0, 1), BuildingBlock: MIFKUJ_clean_linker_0, # of connection points: 2
#     Edge 14, Type (0, 1), BuildingBlock: MIFKUJ_clean_linker_0, # of connection points: 2
#     Edge 15, Type (0, 1), BuildingBlock: MIFKUJ_clean_linker_0, # of connection points: 2
#     Edge 16, Type (0, 1), BuildingBlock: MIFKUJ_clean_linker_0, # of connection points: 2
#     Edge 17, Type (0, 1), BuildingBlock: MIFKUJ_clean_linker_0, # of connection points: 2
#     Edge 18, Type (0, 1), BuildingBlock: MIFKUJ_clean_linker_0, # of connection points: 2
#     Edge 19, Type (0, 1), BuildingBlock: MIFKUJ_clean_linker_0, # of connection points: 2
#     Edge 20, Type (0, 1), BuildingBlock: MIFKUJ_clean_linker_0, # of connection points: 2
#     Edge 21, Type (0, 1), BuildingBlock: MIFKUJ_clean_linker_0, # of connection points: 2
#     Edge 22, Type (0, 1), BuildingBlock: MIFKUJ_clean_linker_0, # of connection points: 2
#     Edge 23, Type (0, 1), BuildingBlock: MIFKUJ_clean_linker_0, # of connection points: 2
#     Edge 24, Type (0, 1), BuildingBlock: MIFKUJ_clean_linker_0, # of connection points: 2
#     Edge 25, Type (0, 1), BuildingBlock: MIFKUJ_clean_linker_0, # of connection points: 2
#     Edge 26, Type (0, 1), BuildingBlock: MIFKUJ_clean_linker_0, # of connection points: 2
#     Edge 27, Type (0, 1), BuildingBlock: MIFKUJ_clean_linker_0, # of connection points: 2
#     Edge 28, Type (0, 1), BuildingBlock: MIFKUJ_clean_linker_0, # of connection points: 2
#     Edge 29, Type (0, 1), BuildingBlock: MIFKUJ_clean_linker_0, # of connection points: 2
#     Edge 30, Type (0, 1), BuildingBlock: MIFKUJ_clean_linker_0, # of connection points: 2
#     Edge 31, Type (0, 1), BuildingBlock: MIFKUJ_clean_linker_0, # of connection points: 2
#     Edge 32, Type (0, 1), BuildingBlock: MIFKUJ_clean_linker_0, # of connection points: 2
#     Edge 33, Type (0, 1), BuildingBlock: MIFKUJ_clean_linker_0, # of connection points: 2
#     Edge 34, Type (0, 1), BuildingBlock: MIFKUJ_clean_linker_0, # of connection points: 2
#     Edge 35, Type (0, 1), BuildingBlock: MIFKUJ_clean_linker_0, # of connection points: 2
# Relax obj value: 0.086
# Max RMSD: 0.179
# Mean RMSD: 0.138
data_MOF--net-pyr--node1-MIDCAF_clean_sbu_0--node2-BETDIP_clean_linker_0--edge1-MIFKUJ_clean_linker_0
_symmetry_space_group_name_H-M    P1
_symmetry_Int_Tables_number       1
_symmetry_cell_setting            triclinic
loop_
_symmetry_equiv_pos_as_xyz
'x, y, z'
_cell_length_a     45.559696
_cell_length_b     45.111103
_cell_length_c     47.388132
_cell_angle_alpha  93.165969
_cell_angle_beta   85.732758
_cell_angle_gamma 97.145085
loop_
_atom_site_label
_atom_site_type_symbol
_atom_site_fract_x
_atom_site_fract_y
_atom_site_fract_z
_atom_type_partial_charge
H0 H 0.19538 0.23111 0.24605 0.0
H1 H 0.26524 0.22336 0.18122 0.0
H2 H 0.2627 0.17421 0.25659 0.0
H3 H 0.2523 0.26428 0.1653 0.0
C4 C 0.22965 0.26666 0.17296 0.0
C5 C 0.21563 0.22201 0.23861 0.0
C6 C 0.22711 0.20137 0.25472 0.0
C7 C 0.22956 0.23079 0.21253 0.0
C8 C 0.25511 0.21808 0.20195 0.0
C9 C 0.26716 0.19741 0.21762 0.0
C10 C 0.2531 0.18943 0.24408 0.0
N11 N 0.21654 0.25167 0.19732 0.0
H12 H 0.304 0.84601 0.77222 0.0
H13 H 0.29956 0.78173 0.70166 0.0
H14 H 0.36642 0.78129 0.76073 0.0
H15 H 0.27783 0.81579 0.68184 0.0
C16 C 0.26563 0.82751 0.69856 0.0
C17 C 0.3126 0.82736 0.76036 0.0
C18 C 0.33681 0.81495 0.76981 0.0
C19 C 0.29931 0.81607 0.73556 0.0
C20 C 0.30987 0.79127 0.72046 0.0
C21 C 0.33417 0.77871 0.72938 0.0
C22 C 0.3475 0.79074 0.75399 0.0
N23 N 0.27545 0.83016 0.72654 0.0
H24 H 0.76628 0.33995 0.78106 0.0
H25 H 0.69758 0.26723 0.79626 0.0
H26 H 0.7746 0.27794 0.8448 0.0
H27 H 0.68327 0.27633 0.7543 0.0
C28 C 0.6898 0.29997 0.75128 0.0
C29 C 0.75786 0.3199 0.79211 0.0
C30 C 0.77348 0.31088 0.81391 0.0
C31 C 0.73077 0.304 0.78515 0.0
C32 C 0.71922 0.27869 0.80032 0.0
C33 C 0.73491 0.26884 0.82184 0.0
C34 C 0.76209 0.28517 0.82841 0.0
N35 N 0.71505 0.31528 0.76404 0.0
H36 H 0.80638 0.67779 0.30317 0.0
H37 H 0.86935 0.75655 0.30753 0.0
H38 H 0.79494 0.74522 0.36938 0.0
H39 H 0.86911 0.74814 0.25749 0.0
C40 C 0.87087 0.7243 0.25674 0.0
C41 C 0.81371 0.69926 0.31339 0.0
C42 C 0.79777 0.70954 0.33765 0.0
C43 C 0.83866 0.71681 0.30172 0.0
C44 C 0.84881 0.74416 0.31546 0.0
C45 C 0.83348 0.75465 0.34023 0.0
C46 C 0.80743 0.73741 0.35067 0.0
N47 N 0.85389 0.70579 0.27684 0.0
H48 H 0.88299 0.89222 0.94752 0.0
H49 H 0.95675 0.88552 0.88631 0.0
H50 H 0.89203 0.94398 0.87303 0.0
H51 H 0.97841 0.87135 0.92366 0.0
C52 C 0.96063 0.85775 0.9352 0.0
C53 C 0.89514 0.89905 0.92795 0.0
C54 C 0.88444 0.91985 0.91145 0.0
C55 C 0.92166 0.88721 0.91962 0.0
C56 C 0.93717 0.89566 0.8939 0.0
C57 C 0.92656 0.91601 0.87691 0.0
C58 C 0.90038 0.92829 0.88604 0.0
N59 N 0.93127 0.86575 0.93675 0.0
H60 H 0.65854 0.1079 0.36682 0.0
H61 H 0.66184 0.16622 0.44179 0.0
H62 H 0.59998 0.17602 0.37994 0.0
H63 H 0.68544 0.1324 0.45882 0.0
C64 C 0.69647 0.12058 0.44137 0.0
C65 C 0.65036 0.12619 0.37961 0.0
C66 C 0.62761 0.14081 0.3702 0.0
C67 C 0.66253 0.13461 0.40559 0.0
C68 C 0.65223 0.15868 0.42209 0.0
C69 C 0.62937 0.17346 0.41314 0.0
C70 C 0.61704 0.16419 0.3873 0.0
N71 N 0.68558 0.1189 0.41386 0.0
H72 H 0.39187 0.57014 0.16182 0.0
H73 H 0.44698 0.65447 0.15526 0.0
H74 H 0.372 0.63431 0.10448 0.0
H75 H 0.45242 0.64719 0.20157 0.0
C76 C 0.45247 0.62326 0.20306 0.0
C77 C 0.39732 0.59153 0.15214 0.0
C78 C 0.37937 0.59987 0.13192 0.0
C79 C 0.42111 0.61144 0.1614 0.0
C80 C 0.42798 0.63935 0.14903 0.0
C81 C 0.4106 0.64763 0.12811 0.0
C82 C 0.38616 0.62781 0.1199 0.0
N83 N 0.43701 0.60293 0.18371 0.0
H84 H 0.0711 0.40957 0.59489 0.0
H85 H 0.118 0.49233 0.62548 0.0
H86 H 0.16461 0.41568 0.6046 0.0
H87 H 0.04873 0.50787 0.62032 0.0
C88 C 0.0577 0.48987 0.6298 0.0
C89 C 0.09155 0.4224 0.60104 0.0
C90 C 0.11782 0.40903 0.59934 0.0
C91 C 0.09127 0.45209 0.61118 0.0
C92 C 0.11791 0.46903 0.6186 0.0
C93 C 0.14465 0.45617 0.61611 0.0
C94 C 0.14418 0.42587 0.60708 0.0
N95 N 0.06424 0.46486 0.61196 0.0
Zn96 Zn 0.00185 0.06048 0.57507 0.0
Zn97 Zn 0.06758 0.00283 0.50482 0.0
Zn98 Zn 0.03085 0.03121 0.54039 0.0
C99 C 0.08271 0.06296 0.49562 0.0
C100 C 0.0074 0.98582 0.49067 0.0
O101 O 0.0322 0.01382 0.58357 0.0
O102 O 0.9926 0.03114 0.60486 0.0
C103 C 0.04912 0.0994 0.55959 0.0
O104 O 0.0619 0.06442 0.51554 0.0
O105 O 0.09048 0.038 0.48686 0.0
O106 O 0.03385 0.98084 0.48415 0.0
O107 O 1.00156 0.00463 0.51114 0.0
O108 O 0.03248 0.09504 0.58182 0.0
O109 O 0.04921 0.07888 0.53957 0.0
O110 O 0.98502 0.02561 0.52619 0.0
O111 O 0.97067 0.06577 0.54926 0.0
C112 C 0.96632 0.04485 0.53068 0.0
O113 O 0.05345 0.0013 0.56547 0.0
O114 O 0.08626 0.98327 0.53439 0.0
C115 C 0.01295 0.0146 0.60492 0.0
C116 C 0.07501 0.98547 0.55948 0.0
Zn117 Zn 0.50391 0.03567 0.0051 0.0
Zn118 Zn 0.5633 0.97833 0.06321 0.0
Zn119 Zn 0.53576 0.00574 0.03515 0.0
C120 C 0.59992 0.98789 0.01671 0.0
C121 C 0.51358 0.94087 0.05537 0.0
O122 O 0.51299 0.03744 0.0647 0.0
O123 O 0.48831 0.0615 0.03654 0.0
C124 C 0.56344 0.04625 0.98353 0.0
O125 O 0.58252 0.00832 0.01618 0.0
O126 O 0.59357 0.96716 0.03373 0.0
O127 O 0.53097 0.94708 0.07492 0.0
O128 O 0.51444 0.95874 0.03495 0.0
O129 O 0.53781 0.05239 0.97955 0.0
O130 O 0.56733 0.02903 0.0034 0.0
O131 O 0.50339 0.97284 0.01275 0.0
O132 O 0.47733 1.00102 0.98999 0.0
C133 C 0.48286 0.97545 0.99598 0.0
O134 O 0.535 0.02648 0.0792 0.0
O135 O 0.57565 0.01034 0.09164 0.0
C136 C 0.49534 0.05699 0.06107 0.0
C137 C 0.5557 0.02734 0.0965 0.0
Zn138 Zn 0.54914 0.53958 0.56056 0.0
Zn139 Zn 0.47179 0.46778 0.50455 0.0
Zn140 Zn 0.51011 0.50553 0.53243 0.0
C141 C 0.50882 0.43226 0.52604 0.0
C142 C 0.50311 0.50649 0.46508 0.0
O143 O 0.48526 0.53492 0.56288 0.0
O144 O 0.52175 0.567 0.57872 0.0
C145 C 0.55297 0.48221 0.57621 0.0
O146 O 0.5198 0.45825 0.53592 0.0
O147 O 0.4863 0.42982 0.51175 0.0
O148 O 0.48288 0.48469 0.46682 0.0
O149 O 0.51625 0.51716 0.48729 0.0
O150 O 0.56199 0.50895 0.58344 0.0
O151 O 0.53467 0.47658 0.55654 0.0
O152 O 0.54005 0.53223 0.50154 0.0
O153 O 0.57606 0.55281 0.52782 0.0
C154 C 0.56558 0.54769 0.50391 0.0
O155 O 0.46482 0.51389 0.54863 0.0
O156 O 0.43563 0.4786 0.52626 0.0
C157 C 0.4943 0.55872 0.57777 0.0
C158 C 0.43882 0.50056 0.54388 0.0
Zn159 Zn 0.09557 0.54088 0.97126 0.0
Zn160 Zn 0.00671 0.48111 0.0279 0.0
Zn161 Zn 0.0488 0.51239 0.99793 0.0
C162 C 0.05697 0.45755 0.0386 0.0
C163 C 0.99458 0.47181 0.97043 0.0
O164 O 0.04439 0.56057 0.00562 0.0
O165 O 0.08061 0.58071 0.97627 0.0
C166 C 0.1182 0.51195 0.01204 0.0
O167 O 0.06765 0.47975 0.02332 0.0
O168 O 0.02933 0.45201 0.04378 0.0
O169 O 0.98285 0.46798 0.99517 0.0
O170 O 0.02053 0.48664 0.96672 0.0
O171 O 0.12724 0.53143 0.9943 0.0
O172 O 0.09046 0.5017 0.01497 0.0
O173 O 0.04554 0.50232 0.95167 0.0
O174 O 0.09055 0.51931 0.93421 0.0
C175 C 0.06504 0.50586 0.93056 0.0
O176 O 0.0239 0.54452 0.02464 0.0
O177 O 0.99504 0.51443 0.05321 0.0
C178 C 0.0584 0.58352 0.99338 0.0
C179 C 0.00483 0.54053 0.04604 0.0
H180 H 0.22027 0.14562 0.2768 0.0
H181 H 0.19406 0.13 0.32124 0.0
H182 H 0.1709 0.2193 0.33912 0.0
H183 H 0.19871 0.23561 0.2955 0.0
H184 H 0.18344 0.19881 0.38589 0.0
H185 H 0.12039 0.16114 0.31338 0.0
H186 H 0.10625 0.13439 0.26871 0.0
H187 H 0.12566 0.05199 0.30009 0.0
H188 H 0.14032 0.07832 0.34482 0.0
H189 H 0.05267 0.09662 0.46522 0.0
H190 H 0.074 0.13044 0.4282 0.0
H191 H 0.16188 0.12101 0.4517 0.0
H192 H 0.14054 0.08658 0.48826 0.0
H193 H 0.1105 0.10755 0.38455 0.0
H194 H 0.20525 0.18976 0.43369 0.0
H195 H 0.21292 0.22445 0.47532 0.0
H196 H 0.11896 0.22643 0.48883 0.0
H197 H 0.11068 0.1917 0.44739 0.0
C198 C 0.21008 0.16215 0.29034 0.0
C199 C 0.21159 0.19192 0.28231 0.0
C200 C 0.19469 0.15304 0.31565 0.0
C201 C 0.17992 0.17329 0.33338 0.0
C202 C 0.18191 0.20316 0.32578 0.0
C203 C 0.19758 0.21238 0.3006 0.0
C204 C 0.16222 0.16314 0.35962 0.0
C205 C 0.16754 0.17881 0.38559 0.0
C206 C 0.14053 0.13774 0.35922 0.0
C207 C 0.13168 0.12177 0.33237 0.0
C208 C 0.12184 0.13735 0.31068 0.0
C209 C 0.1137 0.12226 0.28536 0.0
C210 C 0.11511 0.09152 0.28154 0.0
C211 C 0.1246 0.0758 0.30307 0.0
C212 C 0.1328 0.0908 0.32842 0.0
C213 C 0.07647 0.10274 0.46317 0.0
C214 C 0.09501 0.08941 0.47976 0.0
C215 C 0.08864 0.12191 0.44195 0.0
C216 C 0.11953 0.1283 0.43721 0.0
C217 C 0.13799 0.11669 0.45519 0.0
C218 C 0.12583 0.09707 0.47607 0.0
C219 C 0.13254 0.14259 0.41087 0.0
C220 C 0.12638 0.12758 0.38484 0.0
C221 C 0.15267 0.16909 0.41118 0.0
C222 C 0.15737 0.18792 0.43751 0.0
C223 C 0.18621 0.19744 0.44565 0.0
C224 C 0.19066 0.21716 0.46918 0.0
C225 C 0.16645 0.22777 0.48458 0.0
C226 C 0.13769 0.21821 0.47685 0.0
C227 C 0.13309 0.19831 0.45346 0.0
H228 H 0.16995 0.24326 0.50263 0.0
H229 H 0.1088 0.07988 0.26192 0.0
H230 H 0.34998 0.874 0.7867 0.0
H231 H 0.37547 0.89464 0.82832 0.0
H232 H 0.38327 0.80545 0.85283 0.0
H233 H 0.35693 0.7846 0.8117 0.0
H234 H 0.36892 0.83966 0.89833 0.0
H235 H 0.44237 0.84746 0.82109 0.0
H236 H 0.46397 0.86119 0.77365 0.0
H237 H 0.45916 0.95401 0.7964 0.0
H238 H 0.43713 0.9408 0.84387 0.0
H239 H 0.5085 0.93192 0.96501 0.0
H240 H 0.48491 0.89614 0.93012 0.0
H241 H 0.40014 0.9259 0.95566 0.0
H242 H 0.42377 0.96187 0.99023 0.0
H243 H 0.45762 0.91469 0.88563 0.0
H244 H 0.34607 0.86694 0.94376 0.0
H245 H 0.32741 0.84812 0.99044 0.0
H246 H 0.41439 0.82795 0.00551 0.0
H247 H 0.4336 0.84668 0.95897 0.0
C248 C 0.35675 0.85873 0.80112 0.0
C249 C 0.35147 0.82761 0.79573 0.0
C250 C 0.37161 0.87059 0.82479 0.0
C251 C 0.3817 0.85163 0.84356 0.0
C252 C 0.37585 0.82055 0.83863 0.0
C253 C 0.36099 0.80867 0.81495 0.0
C254 C 0.39866 0.8643 0.86806 0.0
C255 C 0.38832 0.85606 0.89555 0.0
C256 C 0.42453 0.88504 0.86447 0.0
C257 C 0.43787 0.89311 0.83597 0.0
C258 C 0.44572 0.87078 0.81591 0.0
C259 C 0.45807 0.87847 0.78902 0.0
C260 C 0.46288 0.90844 0.78199 0.0
C261 C 0.4554 0.9308 0.80187 0.0
C262 C 0.44301 0.92322 0.82878 0.0
C263 C 0.48467 0.92999 0.96383 0.0
C264 C 0.46782 0.94924 0.98058 0.0
C265 C 0.47126 0.90976 0.94376 0.0
C266 C 0.44074 0.90828 0.9403 0.0
C267 C 0.42363 0.92636 0.95816 0.0
C268 C 0.43711 0.94687 0.97792 0.0
C269 C 0.42734 0.89076 0.91594 0.0
C270 C 0.43832 0.89817 0.88843 0.0
C271 C 0.40246 0.86886 0.91952 0.0
C272 C 0.39129 0.85843 0.94793 0.0
C273 C 0.36122 0.85854 0.95705 0.0
C274 C 0.35057 0.84793 0.98351 0.0
C275 C 0.36972 0.83692 1.00095 0.0
C276 C 0.39963 0.83666 0.99205 0.0
C277 C 0.41044 0.8474 0.96568 0.0
H278 H 0.36136 0.82851 0.02133 0.0
H279 H 0.47244 0.91435 0.76116 0.0
H280 H 0.64167 0.2766 0.72335 0.0
H281 H 0.61286 0.3023 0.69271 0.0
H282 H 0.67074 0.38423 0.70671 0.0
H283 H 0.69922 0.35887 0.7375 0.0
H284 H 0.61346 0.39392 0.71123 0.0
H285 H 0.67731 0.34077 0.6459 0.0
H286 H 0.6975 0.29487 0.62707 0.0
H287 H 0.61078 0.25649 0.60482 0.0
H288 H 0.58994 0.30201 0.62403 0.0
H289 H 0.60528 0.48525 0.6003 0.0
H290 H 0.62254 0.44826 0.62858 0.0
H291 H 0.54382 0.38756 0.6136 0.0
H292 H 0.52573 0.42523 0.58581 0.0
H293 H 0.60287 0.36164 0.61023 0.0
H294 H 0.54006 0.41789 0.67194 0.0
H295 H 0.52079 0.46381 0.69205 0.0
H296 H 0.60648 0.49664 0.72092 0.0
H297 H 0.6264 0.45112 0.70056 0.0
C298 C 0.64819 0.30009 0.71982 0.0
C299 C 0.67272 0.31567 0.7327 0.0
C300 C 0.63178 0.31472 0.7023 0.0
C301 C 0.63977 0.34514 0.69725 0.0
C302 C 0.66414 0.36076 0.71033 0.0
C303 C 0.68049 0.34618 0.72785 0.0
C304 C 0.62302 0.36097 0.67831 0.0
C305 C 0.61123 0.38687 0.68915 0.0
C306 C 0.61931 0.35129 0.64967 0.0
C307 C 0.63199 0.32457 0.63684 0.0
C308 C 0.66251 0.32248 0.63713 0.0
C309 C 0.67407 0.29653 0.62643 0.0
C310 C 0.65536 0.27266 0.6151 0.0
C311 C 0.62517 0.27491 0.61389 0.0
C312 C 0.61348 0.30079 0.62465 0.0
C313 C 0.59164 0.46395 0.60278 0.0
C314 C 0.56417 0.45807 0.59066 0.0
C315 C 0.60164 0.44282 0.61887 0.0
C316 C 0.5844 0.4153 0.62324 0.0
C317 C 0.55748 0.40868 0.61029 0.0
C318 C 0.54726 0.43008 0.59428 0.0
C319 C 0.59408 0.39487 0.64312 0.0
C320 C 0.60458 0.36825 0.63247 0.0
C321 C 0.5967 0.40386 0.67198 0.0
C322 C 0.58476 0.43117 0.68453 0.0
C323 C 0.55486 0.43501 0.68238 0.0
C324 C 0.54381 0.46095 0.69385 0.0
C325 C 0.56241 0.48315 0.70771 0.0
C326 C 0.59209 0.47943 0.71017 0.0
C327 C 0.60327 0.45354 0.69869 0.0
H328 H 0.55382 0.50322 0.71658 0.0
H329 H 0.66432 0.25245 0.60721 0.0
H330 H 0.88868 0.66841 0.25176 0.0
H331 H 0.9171 0.64664 0.21177 0.0
H332 H 0.9203 0.72801 0.16737 0.0
H333 H 0.89217 0.75024 0.20775 0.0
H334 H 0.90261 0.67275 0.13469 0.0
H335 H 0.9807 0.71773 0.19007 0.0
H336 H 0.00683 0.73037 0.23366 0.0
H337 H 0.01308 0.63736 0.24347 0.0
H338 H 0.98656 0.6241 0.20017 0.0
H339 H 0.99037 0.59429 0.03 0.0
H340 H 0.97443 0.63545 0.06154 0.0
H341 H 0.97823 0.58218 0.13378 0.0
H342 H 0.99642 0.54269 0.10284 0.0
H343 H 0.99875 0.6359 0.14717 0.0
H344 H 0.91123 0.59063 0.09926 0.0
H345 H 0.88187 0.5766 0.0578 0.0
H346 H 0.89184 0.66836 0.0352 0.0
H347 H 0.92148 0.68287 0.0764 0.0
C348 C 0.89543 0.6817 0.23352 0.0
C349 C 0.88817 0.71098 0.23274 0.0
C350 C 0.91176 0.66928 0.21075 0.0
C351 C 0.92087 0.6858 0.18672 0.0
C352 C 0.91348 0.71497 0.18577 0.0
C353 C 0.89752 0.72761 0.20879 0.0
C354 C 0.93766 0.67198 0.16258 0.0
C355 C 0.92396 0.66521 0.13709 0.0
C356 C 0.96536 0.66206 0.16591 0.0
C357 C 0.98147 0.66992 0.19193 0.0
C358 C 0.98744 0.69995 0.20163 0.0
C359 C 0.00236 0.70723 0.22628 0.0
C360 C 0.01157 0.68468 0.24135 0.0
C361 C 0.00593 0.6548 0.23177 0.0
C362 C 0.99098 0.64739 0.20715 0.0
C363 C 0.98877 0.59204 0.0527 0.0
C364 C 0.99546 0.56582 0.06409 0.0
C365 C 0.97905 0.61519 0.07063 0.0
C366 C 0.97492 0.61191 0.10007 0.0
C367 C 0.98148 0.58551 0.11124 0.0
C368 C 0.99166 0.56281 0.0935 0.0
C369 C 0.96296 0.6351 0.1197 0.0
C370 C 0.9777 0.64389 0.14439 0.0
C371 C 0.93606 0.64659 0.11571 0.0
C372 C 0.91875 0.63777 0.09071 0.0
C373 C 0.90731 0.60776 0.08532 0.0
C374 C 0.89055 0.59975 0.06194 0.0
C375 C 0.88489 0.6216 0.04396 0.0
C376 C 0.89611 0.65149 0.04923 0.0
C377 C 0.9129 0.65962 0.07257 0.0
H378 H 0.87194 0.61534 0.02584 0.0
H379 H 0.02312 0.69036 0.26042 0.0
H380 H 0.27866 0.13922 0.22011 0.0
H381 H 0.32179 0.11663 0.19914 0.0
H382 H 0.35946 0.20176 0.16727 0.0
H383 H 0.31673 0.22466 0.18859 0.0
H384 H 0.35971 0.15712 0.12651 0.0
H385 H 0.38815 0.17294 0.22247 0.0
H386 H 0.38149 0.16861 0.27426 0.0
H387 H 0.37357 0.07287 0.26351 0.0
H388 H 0.37976 0.07661 0.21161 0.0
H389 H 0.49457 0.11676 0.06944 0.0
H390 H 0.46057 0.14204 0.10219 0.0
H391 H 0.42653 0.05752 0.13768 0.0
H392 H 0.46141 0.03241 0.10548 0.0
H393 H 0.42496 0.1017 0.17794 0.0
H394 H 0.39316 0.08424 0.08377 0.0
H395 H 0.39781 0.08625 0.03171 0.0
H396 H 0.40893 0.18225 0.0388 0.0
H397 H 0.40478 0.18079 0.09094 0.0
C398 C 0.29634 0.1533 0.20909 0.0
C399 C 0.29409 0.1838 0.20601 0.0
C400 C 0.321 0.14031 0.19705 0.0
C401 C 0.34399 0.15752 0.18174 0.0
C402 C 0.34198 0.18801 0.17893 0.0
C403 C 0.31742 0.20103 0.19102 0.0
C404 C 0.36934 0.14351 0.16731 0.0
C405 C 0.37427 0.14546 0.13786 0.0
C406 C 0.38773 0.12734 0.18193 0.0
C407 C 0.38413 0.12506 0.21313 0.0
C408 C 0.38474 0.15095 0.23113 0.0
C409 C 0.3811 0.14861 0.26051 0.0
C410 C 0.37703 0.12048 0.27216 0.0
C411 C 0.37668 0.09464 0.25445 0.0
C412 C 0.38028 0.09687 0.22506 0.0
C413 C 0.48054 0.10382 0.08494 0.0
C414 C 0.48072 0.07276 0.08521 0.0
C415 C 0.46092 0.11818 0.10347 0.0
C416 C 0.44042 0.10159 0.12194 0.0
C417 C 0.44203 0.07081 0.12359 0.0
C418 C 0.46202 0.05649 0.10529 0.0
C419 C 0.41554 0.11574 0.13721 0.0
C420 C 0.41054 0.11361 0.16668 0.0
C421 C 0.3967 0.13144 0.1226 0.0
C422 C 0.39895 0.1324 0.09125 0.0
C423 C 0.39679 0.10577 0.07422 0.0
C424 C 0.39932 0.10682 0.04471 0.0
C425 C 0.40374 0.13436 0.03196 0.0
C426 C 0.40555 0.16093 0.04871 0.0
C427 C 0.4031 0.16001 0.07824 0.0
H428 H 0.40569 0.13512 0.0091 0.0
H429 H 0.37422 0.11871 0.29491 0.0
H430 H 0.22905 0.86116 0.73268 0.0
H431 H 0.18857 0.88676 0.71794 0.0
H432 H 0.20628 0.85485 0.63158 0.0
H433 H 0.24615 0.82891 0.64628 0.0
H434 H 0.18786 0.93059 0.68385 0.0
H435 H 0.14534 0.84267 0.59638 0.0
H436 H 0.13862 0.78787 0.58821 0.0
H437 H 0.1341 0.77671 0.67789 0.0
H438 H 0.14036 0.83144 0.68664 0.0
H439 H 0.13311 0.98951 0.56808 0.0
H440 H 0.15717 0.9629 0.60162 0.0
H441 H 0.0718 0.92131 0.63385 0.0
H442 H 0.04747 0.94832 0.6001 0.0
H443 H 0.11278 0.8806 0.62058 0.0
H444 H 0.10705 0.96885 0.6766 0.0
H445 H 0.11007 0.02313 0.68765 0.0
H446 H 0.20415 0.03216 0.6676 0.0
H447 H 0.20161 0.97798 0.65592 0.0
C448 C 0.22414 0.85947 0.7106 0.0
C449 C 0.24071 0.84295 0.69059 0.0
C450 C 0.20103 0.87415 0.70219 0.0
C451 C 0.19398 0.87241 0.67369 0.0
C452 C 0.21072 0.85602 0.65378 0.0
C453 C 0.23366 0.84134 0.66217 0.0
C454 C 0.17007 0.88861 0.66423 0.0
C455 C 0.1713 0.91957 0.67023 0.0
C456 C 0.14768 0.87419 0.64723 0.0
C457 C 0.1435 0.84121 0.64214 0.0
C458 C 0.14273 0.82854 0.61437 0.0
C459 C 0.13905 0.79748 0.60964 0.0
C460 C 0.136 0.77882 0.63251 0.0
C461 C 0.13655 0.79119 0.66018 0.0
C462 C 0.14021 0.82224 0.66504 0.0
C463 C 0.11945 0.97501 0.58261 0.0
C464 C 0.08847 0.97118 0.58178 0.0
C465 C 0.13318 0.95991 0.60183 0.0
C466 C 0.11628 0.94029 0.62043 0.0
C467 C 0.08522 0.93649 0.61981 0.0
C468 C 0.07136 0.95203 0.60072 0.0
C469 C 0.13175 0.92264 0.63898 0.0
C470 C 0.12898 0.89145 0.63465 0.0
C471 C 0.15223 0.93672 0.65802 0.0
C472 C 0.1541 0.96933 0.66524 0.0
C473 C 0.12836 0.98244 0.67435 0.0
C474 C 0.12998 0.01319 0.68075 0.0
C475 C 0.15729 0.03109 0.67831 0.0
C476 C 0.18301 0.01826 0.66949 0.0
C477 C 0.1815 0.98751 0.66301 0.0
H478 H 0.15851 0.0549 0.68327 0.0
H479 H 0.13317 0.75478 0.6288 0.0
H480 H 0.78478 0.33257 0.86702 0.0
H481 H 0.8288 0.36448 0.88216 0.0
H482 H 0.86772 0.36273 0.79642 0.0
H483 H 0.82316 0.33114 0.78092 0.0
H484 H 0.90454 0.34963 0.84794 0.0
H485 H 0.85168 0.42177 0.80894 0.0
H486 H 0.80716 0.44544 0.80121 0.0
H487 H 0.79498 0.46655 0.89046 0.0
H488 H 0.83915 0.44257 0.89877 0.0
H489 H 0.01426 0.4491 0.91821 0.0
H490 H 0.98373 0.42825 0.87954 0.0
H491 H 0.90477 0.44281 0.93219 0.0
H492 H 0.93511 0.46602 0.96921 0.0
H493 H 0.89551 0.45419 0.88232 0.0
H494 H 0.9376 0.37196 0.92285 0.0
H495 H 0.97929 0.34553 0.93405 0.0
H496 H 0.00936 0.34144 0.84601 0.0
H497 H 0.96795 0.36808 0.83436 0.0
C498 C 0.80278 0.33885 0.85143 0.0
C499 C 0.80069 0.32937 0.82285 0.0
C500 C 0.82781 0.35712 0.86006 0.0
C501 C 0.85137 0.36592 0.84037 0.0
C502 C 0.84968 0.35612 0.81186 0.0
C503 C 0.8243 0.33823 0.80307 0.0
C504 C 0.87742 0.38557 0.85016 0.0
C505 C 0.90302 0.37276 0.85483 0.0
C506 C 0.87511 0.41553 0.85939 0.0
C507 C 0.84863 0.43019 0.85448 0.0
C508 C 0.83936 0.43123 0.82694 0.0
C509 C 0.81421 0.44475 0.82245 0.0
C510 C 0.79822 0.45745 0.84533 0.0
C511 C 0.80738 0.45671 0.87275 0.0
C512 C 0.8325 0.44318 0.87736 0.0
C513 C 0.99046 0.44887 0.92091 0.0
C514 C 0.97712 0.45986 0.94637 0.0
C515 C 0.97295 0.43638 0.89908 0.0
C516 C 0.94179 0.43364 0.90293 0.0
C517 C 0.92868 0.44483 0.92841 0.0
C518 C 0.94608 0.45786 0.94976 0.0
C519 C 0.92219 0.41783 0.88165 0.0
C520 C 0.89766 0.43138 0.87472 0.0
C521 C 0.92527 0.38836 0.87082 0.0
C522 C 0.94995 0.37223 0.8778 0.0
C523 C 0.9532 0.36551 0.90593 0.0
C524 C 0.97675 0.3505 0.91235 0.0
C525 C 0.99701 0.34189 0.89076 0.0
C526 C 0.99369 0.34817 0.8627 0.0
C527 C 0.97019 0.3632 0.85618 0.0
H528 H 0.01524 0.33028 0.89577 0.0
H529 H 0.77876 0.46791 0.84181 0.0
H530 H 0.79496 0.65254 0.35441 0.0
H531 H 0.75256 0.62245 0.37761 0.0
H532 H 0.69885 0.69389 0.37095 0.0
H533 H 0.74187 0.72456 0.34913 0.0
H534 H 0.68843 0.67489 0.41981 0.0
H535 H 0.69069 0.62442 0.32907 0.0
H536 H 0.71209 0.59892 0.28645 0.0
H537 H 0.73421 0.52997 0.33718 0.0
H538 H 0.7133 0.55528 0.38017 0.0
H539 H 0.55642 0.59134 0.4692 0.0
H540 H 0.59272 0.61551 0.43421 0.0
H541 H 0.65447 0.55433 0.45062 0.0
H542 H 0.61772 0.52957 0.48473 0.0
H543 H 0.65909 0.56752 0.3952 0.0
H544 H 0.65666 0.62209 0.48597 0.0
H545 H 0.63208 0.6479 0.52668 0.0
H546 H 0.60536 0.71026 0.47123 0.0
H547 H 0.62947 0.68454 0.43013 0.0
C548 C 0.77398 0.66162 0.35772 0.0
C549 C 0.77155 0.69076 0.35001 0.0
C550 C 0.74967 0.64436 0.37079 0.0
C551 C 0.7222 0.6556 0.37566 0.0
C552 C 0.71973 0.68465 0.36748 0.0
C553 C 0.74424 0.70215 0.35499 0.0
C554 C 0.69663 0.63783 0.39075 0.0
C555 C 0.68163 0.65161 0.41388 0.0
C556 C 0.68799 0.60719 0.38363 0.0
C557 C 0.70071 0.59193 0.35788 0.0
C558 C 0.70035 0.60396 0.33117 0.0
C559 C 0.71234 0.58951 0.30694 0.0
C560 C 0.72458 0.56289 0.30912 0.0
C561 C 0.72477 0.55062 0.33553 0.0
C562 C 0.71283 0.56499 0.35983 0.0
C563 C 0.57718 0.58225 0.46425 0.0
C564 C 0.58417 0.55829 0.47902 0.0
C565 C 0.59811 0.59633 0.44466 0.0
C566 C 0.6265 0.587 0.44016 0.0
C567 C 0.63276 0.5619 0.45375 0.0
C568 C 0.61181 0.54779 0.47319 0.0
C569 C 0.6506 0.60489 0.42351 0.0
C570 C 0.66566 0.59097 0.40058 0.0
C571 C 0.65879 0.6356 0.43029 0.0
C572 C 0.64468 0.6513 0.455 0.0
C573 C 0.64542 0.64123 0.48247 0.0
C574 C 0.63158 0.65583 0.5056 0.0
C575 C 0.61713 0.68068 0.50154 0.0
C576 C 0.61655 0.69101 0.47434 0.0
C577 C 0.63032 0.67645 0.45113 0.0
H578 H 0.60641 0.69195 0.51947 0.0
H579 H 0.73385 0.55173 0.29033 0.0
H580 H 0.24799 0.29576 0.12498 0.0
H581 H 0.22076 0.3279 0.09919 0.0
H582 H 0.14705 0.31529 0.16178 0.0
H583 H 0.17389 0.28264 0.18716 0.0
H584 H 0.12692 0.3095 0.11212 0.0
H585 H 0.19552 0.38227 0.1571 0.0
H586 H 0.24276 0.40993 0.171 0.0
H587 H 0.26973 0.42513 0.08372 0.0
H588 H 0.22287 0.39703 0.06924 0.0
H589 H 0.04715 0.42783 0.08734 0.0
H590 H 0.07797 0.39389 0.10589 0.0
H591 H 0.14141 0.40848 0.03425 0.0
H592 H 0.1103 0.44247 0.01551 0.0
H593 H 0.16861 0.41014 0.08133 0.0
H594 H 0.09528 0.34245 0.03939 0.0
H595 H 0.0449 0.32053 0.02835 0.0
H596 H 0.0238 0.30147 0.11581 0.0
H597 H 0.07392 0.32369 0.12747 0.0
C598 C 0.22599 0.29996 0.13324 0.0
C599 C 0.21308 0.28665 0.15803 0.0
C600 C 0.21052 0.31849 0.11859 0.0
C601 C 0.1819 0.32434 0.12863 0.0
C602 C 0.16906 0.31113 0.15353 0.0
C603 C 0.18446 0.29248 0.16808 0.0
C604 C 0.16482 0.34325 0.11273 0.0
C605 C 0.1359 0.33182 0.10603 0.0
C606 C 0.17682 0.37194 0.10361 0.0
C607 C 0.2059 0.387 0.11205 0.0
C608 C 0.21176 0.39097 0.14082 0.0
C609 C 0.23842 0.40688 0.14882 0.0
C610 C 0.2593 0.41915 0.12825 0.0
C611 C 0.25361 0.41547 0.09962 0.0
C612 C 0.22704 0.39949 0.09151 0.0
C613 C 0.06767 0.4238 0.07553 0.0
C614 C 0.07658 0.43813 0.05018 0.0
C615 C 0.08518 0.40422 0.08604 0.0
C616 C 0.11175 0.39812 0.0712 0.0
C617 C 0.12093 0.41271 0.04602 0.0
C618 C 0.10337 0.4324 0.0355 0.0
C619 C 0.13033 0.37741 0.08279 0.0
C620 C 0.15968 0.3881 0.08802 0.0
C621 C 0.11849 0.3485 0.09126 0.0
C622 C 0.08833 0.33494 0.08433 0.0
C623 C 0.07984 0.33378 0.05631 0.0
C624 C 0.05133 0.32127 0.04994 0.0
C625 C 0.03114 0.30966 0.07137 0.0
C626 C 0.03945 0.31048 0.09923 0.0
C627 C 0.06793 0.323 0.10573 0.0
H628 H 0.00908 0.29998 0.06639 0.0
H629 H 0.27984 0.43161 0.1345 0.0
H630 H 0.70347 0.21699 0.80184 0.0
H631 H 0.67971 0.17501 0.82899 0.0
H632 H 0.71513 0.21701 0.90513 0.0
H633 H 0.73777 0.25992 0.87857 0.0
H634 H 0.71838 0.15018 0.8945 0.0
H635 H 0.65102 0.22589 0.90102 0.0
H636 H 0.62267 0.26185 0.88093 0.0
H637 H 0.57666 0.19065 0.83142 0.0
H638 H 0.60512 0.15432 0.8509 0.0
H639 H 0.61575 0.07609 0.99981 0.0
H640 H 0.65217 0.10777 0.97032 0.0
H641 H 0.60224 0.08106 0.89733 0.0
H642 H 0.56617 0.04937 0.92668 0.0
H643 H 0.60853 0.13976 0.90613 0.0
H644 H 0.67214 0.06348 0.89882 0.0
H645 H 0.70312 0.02619 0.91235 0.0
H646 H 0.75636 0.09451 0.95885 0.0
H647 H 0.72559 0.13226 0.94574 0.0
C648 C 0.70611 0.21751 0.82439 0.0
C649 C 0.72237 0.24213 0.83798 0.0
C650 C 0.69278 0.19331 0.83979 0.0
C651 C 0.69575 0.19298 0.869 0.0
C652 C 0.71286 0.2168 0.88252 0.0
C653 C 0.72584 0.24128 0.86723 0.0
C654 C 0.67902 0.16885 0.88567 0.0
C655 C 0.69439 0.148 0.89749 0.0
C656 C 0.64774 0.1657 0.8887 0.0
C657 C 0.63043 0.18746 0.87717 0.0
C658 C 0.63506 0.21795 0.88565 0.0
C659 C 0.61893 0.23839 0.87442 0.0
C660 C 0.59794 0.22856 0.85485 0.0
C661 C 0.59297 0.19825 0.84654 0.0
C662 C 0.60908 0.17772 0.85769 0.0
C663 C 0.61342 0.076 0.97723 0.0
C664 C 0.58851 0.06005 0.96536 0.0
C665 C 0.63408 0.09423 0.96042 0.0
C666 C 0.62991 0.09682 0.9316 0.0
C667 C 0.60589 0.07945 0.9195 0.0
C668 C 0.58534 0.06134 0.93625 0.0
C669 C 0.64775 0.12058 0.91506 0.0
C670 C 0.63254 0.14166 0.90331 0.0
C671 C 0.67911 0.12359 0.91188 0.0
C672 C 0.69638 0.10068 0.92148 0.0
C673 C 0.69017 0.07051 0.91228 0.0
C674 C 0.70783 0.04933 0.91969 0.0
C675 C 0.73179 0.05804 0.93629 0.0
C676 C 0.73788 0.08785 0.94587 0.0
C677 C 0.72036 0.10916 0.93843 0.0
H678 H 0.74567 0.0417 0.94167 0.0
H679 H 0.58547 0.24442 0.84618 0.0
H680 H 0.86331 0.80616 0.31838 0.0
H681 H 0.88814 0.84919 0.34442 0.0
H682 H 0.85502 0.81074 0.42349 0.0
H683 H 0.8317 0.76664 0.39789 0.0
H684 H 0.85271 0.88032 0.41337 0.0
H685 H 0.91526 0.79977 0.41445 0.0
H686 H 0.94165 0.75966 0.39089 0.0
H687 H 0.99155 0.82301 0.33594 0.0
H688 H 0.96506 0.86341 0.35892 0.0
H689 H 0.95267 0.96057 0.51063 0.0
H690 H 0.91654 0.9273 0.48402 0.0
H691 H 0.97363 0.93983 0.4077 0.0
H692 H 0.00945 0.97295 0.4342 0.0
H693 H 0.96164 0.88338 0.41625 0.0
H694 H 0.90423 0.96424 0.41397 0.0
H695 H 0.87399 0.00498 0.42812 0.0
H696 H 0.81401 0.94526 0.47892 0.0
H697 H 0.84394 0.90415 0.46517 0.0
C698 C 0.86137 0.80662 0.3413 0.0
C699 C 0.84565 0.78257 0.35591 0.0
C700 C 0.87531 0.83144 0.35611 0.0
C701 C 0.87332 0.83301 0.38579 0.0
C702 C 0.85654 0.80993 0.40054 0.0
C703 C 0.84309 0.78479 0.38577 0.0
C704 C 0.89078 0.85761 0.40131 0.0
C705 C 0.87647 0.88096 0.41452 0.0
C706 C 0.92181 0.85867 0.40176 0.0
C707 C 0.93794 0.8345 0.38816 0.0
C708 C 0.93164 0.80507 0.39715 0.0
C709 C 0.94666 0.7823 0.38395 0.0
C710 C 0.96819 0.78876 0.36186 0.0
C711 C 0.97482 0.81803 0.35301 0.0
C712 C 0.95983 0.84087 0.36612 0.0
C713 C 0.95683 0.95705 0.48798 0.0
C714 C 0.98361 0.96947 0.47438 0.0
C715 C 0.93629 0.93796 0.47279 0.0
C716 C 0.94234 0.93103 0.4438 0.0
C717 C 0.96849 0.94472 0.43003 0.0
C718 C 0.98896 0.9636 0.44518 0.0
C719 C 0.92374 0.9067 0.42865 0.0
C720 C 0.93787 0.88308 0.41545 0.0
C721 C 0.8926 0.90578 0.4279 0.0
C722 C 0.87648 0.93115 0.4387 0.0
C723 C 0.8849 0.9599 0.42856 0.0
C724 C 0.86766 0.983 0.4363 0.0
C725 C 0.84195 0.9776 0.45417 0.0
C726 C 0.83381 0.94932 0.46491 0.0
C727 C 0.8509 0.92612 0.45714 0.0
H728 H 0.82832 0.99529 0.45971 0.0
H729 H 0.9798 0.77111 0.35166 0.0
H730 H 0.39203 0.77396 0.71258 0.0
H731 H 0.41237 0.73315 0.68456 0.0
H732 H 0.32444 0.68592 0.67986 0.0
H733 H 0.30387 0.72688 0.70804 0.0
H734 H 0.36769 0.64911 0.69284 0.0
H735 H 0.35323 0.71747 0.62347 0.0
H736 H 0.35635 0.7666 0.60235 0.0
H737 H 0.45142 0.77387 0.59821 0.0
H738 H 0.44889 0.72498 0.61971 0.0
H739 H 0.43709 0.54322 0.59987 0.0
H740 H 0.40205 0.5768 0.62038 0.0
H741 H 0.47207 0.65072 0.61577 0.0
H742 H 0.50519 0.61805 0.59145 0.0
H743 H 0.42741 0.67072 0.60292 0.0
H744 H 0.44126 0.60649 0.68051 0.0
H745 H 0.43795 0.55767 0.70241 0.0
H746 H 0.34446 0.54282 0.69145 0.0
H747 H 0.3473 0.59136 0.66919 0.0
C748 C 0.37703 0.75481 0.70574 0.0
C749 C 0.34635 0.75363 0.71251 0.0
C750 C 0.38865 0.73159 0.6896 0.0
C751 C 0.3699 0.70658 0.67997 0.0
C752 C 0.33928 0.70504 0.68704 0.0
C753 C 0.32757 0.7285 0.70296 0.0
C754 C 0.38261 0.68234 0.66238 0.0
C755 C 0.38045 0.65364 0.67296 0.0
C756 C 0.39921 0.68825 0.63649 0.0
C757 C 0.40085 0.71762 0.62339 0.0
C758 C 0.37481 0.72964 0.61826 0.0
C759 C 0.37647 0.75743 0.60618 0.0
C760 C 0.40406 0.77337 0.59899 0.0
C761 C 0.43006 0.76151 0.6038 0.0
C762 C 0.42852 0.73373 0.6159 0.0
C763 C 0.44433 0.56685 0.60189 0.0
C764 C 0.47334 0.57807 0.59262 0.0
C765 C 0.42464 0.58601 0.61463 0.0
C766 C 0.43424 0.61659 0.62 0.0
C767 C 0.4637 0.62745 0.61166 0.0
C768 C 0.48284 0.60858 0.59796 0.0
C769 C 0.4143 0.63775 0.6342 0.0
C770 C 0.41468 0.66594 0.62275 0.0
C771 C 0.39626 0.63136 0.65939 0.0
C772 C 0.39455 0.60239 0.67302 0.0
C773 C 0.42004 0.59273 0.6827 0.0
C774 C 0.41824 0.56511 0.69514 0.0
C775 C 0.39102 0.54711 0.69823 0.0
C776 C 0.36552 0.55674 0.68898 0.0
C777 C 0.36721 0.5843 0.67647 0.0
H778 H 0.38968 0.52574 0.70786 0.0
H779 H 0.40531 0.79488 0.58964 0.0
H780 H 0.98606 0.93141 0.86424 0.0
H781 H 0.01113 0.94285 0.8177 0.0
H782 H 0.92692 0.92794 0.78005 0.0
H783 H 0.90185 0.91651 0.82631 0.0
H784 H 0.97216 0.90006 0.74896 0.0
H785 H 0.95668 0.99698 0.7949 0.0
H786 H 0.96293 0.03629 0.833 0.0
H787 H 0.05754 0.04213 0.81794 0.0
H788 H 0.05183 0.00253 0.77998 0.0
H789 H 0.96716 0.97903 0.62861 0.0
H790 H 0.9642 0.95583 0.67413 0.0
H791 H 0.0564 0.98748 0.68386 0.0
H792 H 0.05943 0.01077 0.63767 0.0
H793 H 0.02075 0.00239 0.7302 0.0
H794 H 0.03676 0.91339 0.67835 0.0
H795 H 0.03181 0.87456 0.63971 0.0
H796 H 0.93964 0.85282 0.66552 0.0
H797 H 0.94391 0.89181 0.70406 0.0
C798 C 0.97296 0.9305 0.84598 0.0
C799 C 0.94197 0.92326 0.84892 0.0
C800 C 0.98729 0.93709 0.81947 0.0
C801 C 0.97087 0.93626 0.79544 0.0
C802 C 0.94001 0.92864 0.79831 0.0
C803 C 0.92568 0.92239 0.82478 0.0
C804 C 0.98541 0.94397 0.76727 0.0
C805 C 0.9828 0.92241 0.7448 0.0
C806 C 1.00047 0.97274 0.76213 0.0
C807 C 0.00385 0.99653 0.7849 0.0
C808 C 0.97882 0.00645 0.79991 0.0
C809 C 0.98226 0.02882 0.82143 0.0
C810 C 0.01062 0.04163 0.82796 0.0
C811 C 0.03559 0.03214 0.81291 0.0
C812 C 0.03227 0.00974 0.79139 0.0
C813 C 0.98701 0.98034 0.64011 0.0
C814 C 0.01357 0.99635 0.62963 0.0
C815 C 0.98535 0.96701 0.66609 0.0
C816 C 0.01016 0.96963 0.68233 0.0
C817 C 0.03708 0.98496 0.67155 0.0
C818 C 0.03884 0.99808 0.64519 0.0
C819 C 0.00642 0.95881 0.71159 0.0
C820 C 0.01096 0.97975 0.73436 0.0
C821 C 0.99344 0.92935 0.71707 0.0
C822 C 0.99065 0.90565 0.69405 0.0
C823 C 0.01538 0.90047 0.67567 0.0
C824 C 0.01271 0.87841 0.6538 0.0
C825 C 0.98542 0.86127 0.65015 0.0
C826 C 0.96077 0.86611 0.66839 0.0
C827 C 0.96332 0.88815 0.6903 0.0
H828 H 0.98339 0.8442 0.6332 0.0
H829 H 0.01324 0.05896 0.84463 0.0
H830 H 0.56942 0.13316 0.35698 0.0
H831 H 0.54993 0.12005 0.31044 0.0
H832 H 0.63893 0.11621 0.27364 0.0
H833 H 0.65852 0.12966 0.31989 0.0
H834 H 0.60597 0.14724 0.2415 0.0
H835 H 0.59421 0.05307 0.28881 0.0
H836 H 0.57523 0.01961 0.32721 0.0
H837 H 0.48582 0.03117 0.31149 0.0
H838 H 0.50433 0.06504 0.27322 0.0
H839 H 0.60494 0.05523 0.11901 0.0
H840 H 0.609 0.08147 0.16505 0.0
H841 H 0.51368 0.07012 0.17925 0.0
H842 H 0.50969 0.04286 0.13295 0.0
H843 H 0.53977 0.05313 0.22389 0.0
H844 H 0.55083 0.14003 0.17116 0.0
H845 H 0.56921 0.17311 0.13235 0.0
H846 H 0.65806 0.17652 0.15791 0.0
H847 H 0.64033 0.14307 0.19663 0.0
C848 C 0.58482 0.12964 0.33892 0.0
C849 C 0.61552 0.13232 0.34215 0.0
C850 C 0.57364 0.12202 0.31239 0.0
C851 C 0.59297 0.11704 0.28858 0.0
C852 C 0.62361 0.11997 0.29172 0.0
C853 C 0.63476 0.12738 0.31822 0.0
C854 C 0.58155 0.10848 0.26032 0.0
C855 C 0.59157 0.12662 0.23759 0.0
C856 C 0.56174 0.08224 0.25545 0.0
C857 C 0.55065 0.06188 0.27842 0.0
C858 C 0.57052 0.04869 0.29372 0.0
C859 C 0.55984 0.02961 0.31542 0.0
C860 C 0.52934 0.02335 0.32186 0.0
C861 C 0.50944 0.03609 0.30653 0.0
C862 C 0.52001 0.05522 0.28483 0.0
C863 C 0.58478 0.05883 0.13167 0.0
C864 C 0.55693 0.04736 0.12226 0.0
C865 C 0.58712 0.07401 0.15797 0.0
C866 C 0.56165 0.07816 0.17556 0.0
C867 C 0.53363 0.06743 0.16593 0.0
C868 C 0.5313 0.05224 0.13935 0.0
C869 C 0.56507 0.09136 0.20479 0.0
C870 C 0.55358 0.07413 0.22779 0.0
C871 C 0.58337 0.11858 0.20995 0.0
C872 C 0.59423 0.1389 0.18678 0.0
C873 C 0.57432 0.14767 0.16842 0.0
C874 C 0.58463 0.16651 0.14644 0.0
C875 C 0.61478 0.17689 0.14265 0.0
C876 C 0.6347 0.16848 0.16088 0.0
C877 C 0.62452 0.14961 0.18289 0.0
H878 H 0.62272 0.19148 0.12562 0.0
H879 H 0.52112 0.00856 0.33866 0.0
H880 H 0.46032 0.56572 0.2137 0.0
H881 H 0.47531 0.54768 0.25748 0.0
H882 H 0.4835 0.63775 0.29429 0.0
H883 H 0.46935 0.65603 0.25008 0.0
H884 H 0.52711 0.61014 0.30896 0.0
H885 H 0.42176 0.58657 0.30981 0.0
H886 H 0.37416 0.56531 0.29113 0.0
H887 H 0.40139 0.47736 0.28818 0.0
H888 H 0.44935 0.49815 0.30648 0.0
H889 H 0.51148 0.56585 0.45456 0.0
H890 H 0.51172 0.5879 0.40833 0.0
H891 H 0.50718 0.49974 0.36744 0.0
H892 H 0.50724 0.47789 0.4135 0.0
H893 H 0.46212 0.52785 0.35535 0.0
H894 H 0.56877 0.55263 0.3518 0.0
H895 H 0.61801 0.57536 0.3652 0.0
H896 H 0.58732 0.66185 0.37429 0.0
H897 H 0.53792 0.63961 0.36036 0.0
C898 C 0.46546 0.5817 0.23106 0.0
C899 C 0.46339 0.61225 0.22867 0.0
C900 C 0.4739 0.57134 0.25613 0.0
C901 C 0.47991 0.59126 0.27943 0.0
C902 C 0.47883 0.62194 0.27668 0.0
C903 C 0.4707 0.63235 0.25147 0.0
C904 C 0.48671 0.58 0.30679 0.0
C905 C 0.51268 0.59241 0.31933 0.0
C906 C 0.46815 0.55657 0.32013 0.0
C907 C 0.43926 0.54396 0.30927 0.0
C908 C 0.41768 0.56272 0.30499 0.0
C909 C 0.39063 0.55075 0.2945 0.0
C910 C 0.38478 0.52001 0.28841 0.0
C911 C 0.40596 0.50117 0.29287 0.0
C912 C 0.43307 0.51303 0.30333 0.0
C913 C 0.51203 0.55144 0.43555 0.0
C914 C 0.50979 0.52029 0.43748 0.0
C915 C 0.51192 0.56398 0.40915 0.0
C916 C 0.50945 0.54546 0.38437 0.0
C917 C 0.50905 0.51446 0.38624 0.0
C918 C 0.50912 0.502 0.41254 0.0
C919 C 0.50287 0.55759 0.35732 0.0
C920 C 0.47664 0.54551 0.34498 0.0
C921 C 0.52101 0.5815 0.34439 0.0
C922 C 0.54965 0.59443 0.35531 0.0
C923 C 0.5724 0.57642 0.35708 0.0
C924 C 0.60041 0.58927 0.36459 0.0
C925 C 0.60582 0.62008 0.37062 0.0
C926 C 0.58311 0.63802 0.36953 0.0
C927 C 0.55515 0.62533 0.36172 0.0
H928 H 0.62761 0.63015 0.37593 0.0
H929 H 0.36382 0.51079 0.28029 0.0
H930 H 0.06034 0.44206 0.66331 0.0
H931 H 0.0564 0.44236 0.71506 0.0
H932 H 0.04665 0.53643 0.71885 0.0
H933 H 0.05096 0.53635 0.66702 0.0
H934 H 0.08603 0.52446 0.75447 0.0
H935 H 0.98773 0.48505 0.73222 0.0
H936 H 0.94885 0.45083 0.70974 0.0
H937 H 0.97483 0.37696 0.75129 0.0
H938 H 0.01424 0.41065 0.77366 0.0
H939 H 0.01457 0.51157 0.90453 0.0
H940 H 0.00782 0.50484 0.85343 0.0
H941 H 0.09401 0.47434 0.83973 0.0
H942 H 0.10063 0.48067 0.89051 0.0
H943 H 0.01203 0.45664 0.81 0.0
H944 H 0.13024 0.51609 0.78683 0.0
H945 H 0.16691 0.55214 0.81043 0.0
H946 H 0.0967 0.58985 0.86001 0.0
H947 H 0.05962 0.55438 0.83637 0.0
C948 C 0.0577 0.4629 0.6751 0.0
C949 C 0.05635 0.48937 0.66112 0.0
C950 C 0.05507 0.46293 0.70472 0.0
C951 C 0.05096 0.48935 0.72082 0.0
C952 C 0.04976 0.51577 0.70685 0.0
C953 C 0.05226 0.51572 0.67729 0.0
C954 C 0.04906 0.48984 0.75224 0.0
C955 C 0.0698 0.50963 0.76653 0.0
C956 C 0.02764 0.47073 0.76808 0.0
C957 C 0.0042 0.45035 0.75435 0.0
C958 C 0.9854 0.46146 0.73631 0.0
C959 C 0.96321 0.44216 0.72364 0.0
C960 C 0.95943 0.41173 0.72901 0.0
C961 C 0.97782 0.40053 0.7471 0.0
C962 C 1.00009 0.41972 0.75978 0.0
C963 C 0.03156 0.5025 0.89064 0.0
C964 C 0.058 0.49639 0.90135 0.0
C965 C 0.02774 0.49873 0.86154 0.0
C966 C 0.05057 0.48939 0.84287 0.0
C967 C 0.07623 0.48173 0.85381 0.0
C968 C 0.07998 0.48534 0.88276 0.0
C969 C 0.04935 0.49077 0.81185 0.0
C970 C 0.02815 0.4714 0.79776 0.0
C971 C 0.07009 0.51049 0.79609 0.0
C972 C 0.09219 0.53236 0.81002 0.0
C973 C 0.12263 0.53217 0.80267 0.0
C974 C 0.14349 0.5525 0.81606 0.0
C975 C 0.13414 0.57321 0.83678 0.0
C976 C 0.10391 0.57373 0.84404 0.0
C977 C 0.08298 0.55349 0.83067 0.0
H978 H 0.15032 0.5889 0.84715 0.0
H979 H 0.94221 0.39683 0.71921 0.0
H980 H 0.83128 0.88866 0.92779 0.0
H981 H 0.78401 0.90829 0.94039 0.0
H982 H 0.82615 0.99796 0.92751 0.0
H983 H 0.87358 0.97835 0.91449 0.0
H984 H 0.78729 0.99006 0.97954 0.0
H985 H 0.78632 0.9717 0.87933 0.0
H986 H 0.79217 0.94232 0.83427 0.0
H987 H 0.72318 0.87518 0.86367 0.0
H988 H 0.71724 0.90394 0.90911 0.0
H989 H 0.64238 0.03491 0.0045 0.0
H990 H 0.69156 0.03203 0.98042 0.0
H991 H 0.66957 0.93674 0.96617 0.0
H992 H 0.62039 0.93996 0.98923 0.0
H993 H 0.70126 0.95745 0.92221 0.0
H994 H 0.70819 0.9708 0.02456 0.0
H995 H 0.70266 0.99851 0.07064 0.0
H996 H 0.76035 0.07337 0.03818 0.0
H997 H 0.76602 0.04617 0.99185 0.0
C998 C 0.83052 0.91257 0.92783 0.0
C999 C 0.85609 0.93198 0.92016 0.0
C1000 C 0.8035 0.92374 0.93488 0.0
C1001 C 0.80157 0.95455 0.93472 0.0
C1002 C 0.82718 0.97411 0.9277 0.0
C1003 C 0.85416 0.96288 0.92018 0.0
C1004 C 0.77258 0.96598 0.94168 0.0
C1005 C 0.76856 0.98344 0.96677 0.0
C1006 C 0.74817 0.95716 0.9251 0.0
C1007 C 0.75149 0.93988 0.89772 0.0
C1008 C 0.77255 0.95055 0.87628 0.0
C1009 C 0.77586 0.93403 0.85065 0.0
C1010 C 0.7581 0.90688 0.84613 0.0
C1011 C 0.73694 0.89622 0.86721 0.0
C1012 C 0.73357 0.91264 0.8929 0.0
C1013 C 0.64768 0.01371 0.99505 0.0
C1014 C 0.62746 0.9878 0.99823 0.0
C1015 C 0.67599 0.01191 0.98171 0.0
C1016 C 0.68452 0.98407 0.97162 0.0
C1017 C 0.66365 0.9585 0.97364 0.0
C1018 C 0.63553 0.96033 0.9869 0.0
C1019 C 0.71551 0.98054 0.96076 0.0
C1020 C 0.72001 0.96457 0.93482 0.0
C1021 C 0.74029 0.99047 0.97674 0.0
C1022 C 0.7372 0.00663 0.00467 0.0
C1023 C 0.71956 0.99324 0.02723 0.0
C1024 C 0.71642 0.00883 0.05339 0.0
C1025 C 0.73106 0.03772 0.0573 0.0
C1026 C 0.74897 0.05102 0.0351 0.0
C1027 C 0.75216 0.03553 0.00889 0.0
H1028 H 0.7286 0.04977 0.07757 0.0
H1029 H 0.76069 0.89412 0.82627 0.0
H1030 H 0.72491 0.12588 0.48972 0.0
H1031 H 0.76967 0.10463 0.49957 0.0
H1032 H 0.77174 0.0607 0.41632 0.0
H1033 H 0.72743 0.08282 0.40606 0.0
H1034 H 0.78387 0.05099 0.50355 0.0
H1035 H 0.84389 0.05562 0.39281 0.0
H1036 H 0.84523 0.08304 0.34896 0.0
H1037 H 0.81739 0.15931 0.39711 0.0
H1038 H 0.81622 0.13246 0.44123 0.0
H1039 H 0.92241 0.99883 0.52085 0.0
H1040 H 0.87584 0.00224 0.49914 0.0
H1041 H 0.90477 0.09499 0.4831 0.0
H1042 H 0.95136 0.09118 0.50402 0.0
H1043 H 0.87548 0.07145 0.44085 0.0
H1044 H 0.85945 0.07062 0.54421 0.0
H1045 H 0.85976 0.04749 0.59017 0.0
H1046 H 0.8018 0.97154 0.56058 0.0
H1047 H 0.80136 0.99417 0.51437 0.0
C1048 C 0.73492 0.11166 0.47354 0.0
C1049 C 0.72286 0.10626 0.44708 0.0
C1050 C 0.76041 0.09936 0.47923 0.0
C1051 C 0.77435 0.08124 0.45863 0.0
C1052 C 0.76175 0.07501 0.43241 0.0
C1053 C 0.73637 0.08762 0.42659 0.0
C1054 C 0.80262 0.07004 0.46453 0.0
C1055 C 0.80383 0.0553 0.4897 0.0
C1056 C 0.82877 0.07544 0.44651 0.0
C1057 C 0.8296 0.0919 0.42021 0.0
C1058 C 0.8381 0.07826 0.394 0.0
C1059 C 0.83883 0.0937 0.36912 0.0
C1060 C 0.83128 0.12285 0.37024 0.0
C1061 C 0.8231 0.13668 0.39626 0.0
C1062 C 0.82238 0.12136 0.4212 0.0
C1063 C 0.91925 0.01944 0.51153 0.0
C1064 C 0.94058 0.04456 0.51359 0.0
C1065 C 0.89244 0.02158 0.49948 0.0
C1066 C 0.88658 0.04898 0.48953 0.0
C1067 C 0.90868 0.07357 0.49042 0.0
C1068 C 0.93528 0.07142 0.50245 0.0
C1069 C 0.85693 0.05337 0.48032 0.0
C1070 C 0.85539 0.06666 0.45444 0.0
C1071 C 0.83063 0.04729 0.49799 0.0
C1072 C 0.83059 0.03393 0.52583 0.0
C1073 C 0.84687 0.04895 0.54751 0.0
C1074 C 0.84706 0.03593 0.57358 0.0
C1075 C 0.83087 0.00803 0.57827 0.0
C1076 C 0.81436 0.99313 0.55691 0.0
C1077 C 0.81411 0.00604 0.5308 0.0
H1078 H 0.83106 0.99798 0.59846 0.0
H1079 H 0.83184 0.13475 0.35095 0.0
H1080 H 0.37487 0.54276 0.1089 0.0
H1081 H 0.32958 0.51229 0.09369 0.0
H1082 H 0.27797 0.58287 0.12427 0.0
H1083 H 0.32307 0.61346 0.1388 0.0
H1084 H 0.25171 0.52085 0.13686 0.0
H1085 H 0.29837 0.5832 0.05983 0.0
H1086 H 0.34054 0.59969 0.02633 0.0
H1087 H 0.34214 0.50933 0.99311 0.0
H1088 H 0.30022 0.49228 0.02677 0.0
H1089 H 0.12434 0.53062 0.06649 0.0
H1090 H 0.16817 0.52938 0.09269 0.0
H1091 H 0.20418 0.47234 0.02599 0.0
H1092 H 0.16125 0.47603 0.99875 0.0
H1093 H 0.24236 0.51406 0.03305 0.0
H1094 H 0.19125 0.45199 0.10185 0.0
H1095 H 0.15049 0.43162 0.13548 0.0
H1096 H 0.1588 0.51457 0.18484 0.0
H1097 H 0.19919 0.53528 0.15127 0.0
C1098 C 0.35374 0.55147 0.11259 0.0
C1099 C 0.35225 0.58041 0.12469 0.0
C1100 C 0.328 0.53412 0.10402 0.0
C1101 C 0.30055 0.54539 0.108 0.0
C1102 C 0.29896 0.57376 0.12125 0.0
C1103 C 0.32466 0.59126 0.12929 0.0
C1104 C 0.27379 0.5293 0.0959 0.0
C1105 C 0.24946 0.51917 0.11418 0.0
C1106 C 0.27147 0.5261 0.06634 0.0
C1107 C 0.29648 0.53643 0.04603 0.0
C1108 C 0.3079 0.56683 0.04555 0.0
C1109 C 0.33171 0.57628 0.02651 0.0
C1110 C 0.34408 0.55555 0.00766 0.0
C1111 C 0.33259 0.52535 0.00777 0.0
C1112 C 0.30882 0.51578 0.02682 0.0
C1113 C 0.14121 0.51702 0.05798 0.0
C1114 C 0.13958 0.50333 0.03081 0.0
C1115 C 0.16626 0.51604 0.07307 0.0
C1116 C 0.18976 0.50062 0.06153 0.0
C1117 C 0.18662 0.4846 0.03537 0.0
C1118 C 0.16204 0.4865 0.01986 0.0
C1119 C 0.21922 0.50597 0.07397 0.0
C1120 C 0.24433 0.51447 0.05574 0.0
C1121 C 0.22231 0.50708 0.1036 0.0
C1122 C 0.19789 0.49512 0.12385 0.0
C1123 C 0.184 0.46582 0.1197 0.0
C1124 C 0.1611 0.45424 0.13877 0.0
C1125 C 0.152 0.47183 0.16221 0.0
C1126 C 0.16584 0.50097 0.16665 0.0
C1127 C 0.18878 0.5126 0.14762 0.0
H1128 H 0.13427 0.46286 0.17697 0.0
H1129 H 0.3625 0.56291 0.99293 0.0
H1130 H 0.19162 0.44171 0.64311 0.0
H1131 H 0.24227 0.46676 0.64004 0.0
H1132 H 0.21404 0.53756 0.59488 0.0
H1133 H 0.16341 0.51198 0.59706 0.0
H1134 H 0.25681 0.51483 0.56556 0.0
H1135 H 0.24538 0.55224 0.66 0.0
H1136 H 0.23109 0.55251 0.7112 0.0
H1137 H 0.29106 0.48841 0.72212 0.0
H1138 H 0.30536 0.48734 0.67093 0.0
H1139 H 0.41219 0.55062 0.53846 0.0
H1140 H 0.36329 0.56067 0.55999 0.0
H1141 H 0.35666 0.47938 0.60523 0.0
H1142 H 0.40523 0.46948 0.58381 0.0
H1143 H 0.3319 0.52475 0.63717 0.0
H1144 H 0.32984 0.47789 0.54122 0.0
H1145 H 0.34389 0.47678 0.4899 0.0
H1146 H 0.30833 0.55968 0.48293 0.0
H1147 H 0.2944 0.56143 0.53432 0.0
C1148 C 0.19609 0.46292 0.63302 0.0
C1149 C 0.17358 0.47464 0.62001 0.0
C1150 C 0.22504 0.47747 0.63157 0.0
C1151 C 0.23206 0.50418 0.61729 0.0
C1152 C 0.20917 0.51703 0.60606 0.0
C1153 C 0.18018 0.50245 0.60747 0.0
C1154 C 0.26364 0.5156 0.61018 0.0
C1155 C 0.27307 0.51797 0.5814 0.0
C1156 C 0.28506 0.51937 0.63069 0.0
C1157 C 0.27635 0.51963 0.66152 0.0
C1158 C 0.25535 0.538 0.67326 0.0
C1159 C 0.24727 0.53833 0.70231 0.0
C1160 C 0.26013 0.52047 0.7199 0.0
C1161 C 0.2811 0.50224 0.70847 0.0
C1162 C 0.28922 0.50178 0.67943 0.0
C1163 C 0.40041 0.53539 0.5535 0.0
C1164 C 0.41215 0.50935 0.55966 0.0
C1165 C 0.37263 0.5411 0.56578 0.0
C1166 C 0.35631 0.52067 0.58409 0.0
C1167 C 0.36895 0.49554 0.59134 0.0
C1168 C 0.39653 0.48978 0.579 0.0
C1169 C 0.32467 0.52273 0.59274 0.0
C1170 C 0.31535 0.52275 0.62165 0.0
C1171 C 0.30324 0.52113 0.57243 0.0
C1172 C 0.31145 0.51999 0.54159 0.0
C1173 C 0.32522 0.49598 0.52875 0.0
C1174 C 0.33313 0.49521 0.49967 0.0
C1175 C 0.32709 0.5182 0.48318 0.0
C1176 C 0.31306 0.54194 0.49574 0.0
C1177 C 0.30516 0.54283 0.52483 0.0
H1178 H 0.33322 0.51757 0.46067 0.0
H1179 H 0.25387 0.52078 0.74239 0.0
H1180 H 0.9241 0.81899 0.96932 0.0
H1181 H 0.93698 0.77411 0.99014 0.0
H1182 H 0.02601 0.79096 0.95174 0.0
H1183 H 0.01345 0.8361 0.9317 0.0
H1184 H 0.95203 0.72481 0.96709 0.0
H1185 H 0.07589 0.76547 0.98811 0.0
H1186 H 0.10581 0.81165 0.00458 0.0
H1187 H 0.028 0.84301 0.04671 0.0
H1188 H 0.99767 0.79685 0.03086 0.0
H1189 H 0.03947 0.60952 0.94988 0.0
H1190 H 0.019 0.65702 0.95009 0.0
H1191 H 0.02919 0.67011 0.03992 0.0
H1192 H 0.05056 0.62236 0.03948 0.0
H1193 H 0.0459 0.72136 0.013 0.0
H1194 H 0.96214 0.64943 0.01645 0.0
H1195 H 0.93195 0.60222 0.00336 0.0
H1196 H 0.92427 0.63365 0.92067 0.0
H1197 H 0.95563 0.6805 0.93282 0.0
C1198 C 0.94649 0.81326 0.9656 0.0
C1199 C 0.96785 0.83106 0.94893 0.0
C1200 C 0.95383 0.78758 0.97749 0.0
C1201 C 0.98262 0.77928 0.97292 0.0
C1202 C 0.00387 0.79718 0.95626 0.0
C1203 C 0.99663 0.82288 0.9446 0.0
C1204 C 0.9902 0.751 0.98386 0.0
C1205 C 0.97241 0.72412 0.97737 0.0
C1206 C 0.01626 0.75002 0.99821 0.0
C1207 C 0.03447 0.77772 0.00814 0.0
C1208 C 0.06518 0.78212 1.00104 0.0
C1209 C 0.08221 0.80833 0.01023 0.0
C1210 C 0.06881 0.83028 0.02663 0.0
C1211 C 0.03835 0.82603 0.03394 0.0
C1212 C 0.02122 0.79986 0.02482 0.0
C1213 C 0.03727 0.62254 0.96968 0.0
C1214 C 0.04593 0.61217 0.99477 0.0
C1215 C 0.02545 0.64958 0.96983 0.0
C1216 C 0.02191 0.66686 0.99513 0.0
C1217 C 0.03144 0.657 0.0202 0.0
C1218 C 0.04345 0.62976 0.02001 0.0
C1219 C 0.00862 0.69532 0.99468 0.0
C1220 C 0.02526 0.72216 0.00321 0.0
C1221 C 0.9811 0.6963 0.98284 0.0
C1222 C 0.96144 0.66849 0.97557 0.0
C1223 C 0.95425 0.64619 0.99541 0.0
C1224 C 0.93695 0.61946 0.98813 0.0
C1225 C 0.92608 0.61499 0.96124 0.0
C1226 C 0.93265 0.63718 0.94152 0.0
C1227 C 0.95029 0.66381 0.94858 0.0
H1228 H 0.91259 0.59431 0.95568 0.0
H1229 H 0.08203 0.85056 0.03371 0.0
H1230 H 0.41165 0.66064 0.07226 0.0
H1231 H 0.42099 0.71007 0.05197 0.0
H1232 H 0.43341 0.75096 0.13535 0.0
H1233 H 0.4238 0.70178 0.15576 0.0
H1234 H 0.39699 0.78014 0.10422 0.0
H1235 H 0.49196 0.74016 0.09112 0.0
H1236 H 0.52496 0.70314 0.07263 0.0
H1237 H 0.50442 0.71676 0.98767 0.0
H1238 H 0.47096 0.7536 0.00572 0.0
H1239 H 0.48772 0.91501 0.10237 0.0
H1240 H 0.46096 0.86514 0.106 0.0
H1241 H 0.46733 0.85266 0.01486 0.0
H1242 H 0.49529 0.90268 0.01136 0.0
H1243 H 0.48517 0.80701 0.03868 0.0
H1244 H 0.40096 0.85761 0.05231 0.0
H1245 H 0.36844 0.89486 0.07077 0.0
H1246 H 0.36799 0.86264 0.15439 0.0
H1247 H 0.40077 0.82531 0.13649 0.0
C1248 C 0.41628 0.68022 0.08624 0.0
C1249 C 0.41712 0.67737 0.11559 0.0
C1250 C 0.42168 0.70837 0.07461 0.0
C1251 C 0.42789 0.73413 0.09217 0.0
C1252 C 0.42856 0.73134 0.12146 0.0
C1253 C 0.42338 0.70323 0.13305 0.0
C1254 C 0.43427 0.76413 0.08026 0.0
C1255 C 0.4163 0.78618 0.08996 0.0
C1256 C 0.45863 0.77147 0.06058 0.0
C1257 C 0.47867 0.74929 0.04979 0.0
C1258 C 0.49426 0.73504 0.06852 0.0
C1259 C 0.5131 0.71414 0.05812 0.0
C1260 C 0.5167 0.70752 0.029 0.0
C1261 C 0.50154 0.72185 0.01022 0.0
C1262 C 0.48265 0.74274 0.02052 0.0
C1263 C 0.4829 0.90189 0.08306 0.0
C1264 C 0.49324 0.9128 0.05651 0.0
C1265 C 0.46737 0.87343 0.08513 0.0
C1266 C 0.46165 0.85524 0.0607 0.0
C1267 C 0.47114 0.86644 0.03399 0.0
C1268 C 0.48676 0.89512 0.03193 0.0
C1269 C 0.44875 0.82363 0.06379 0.0
C1270 C 0.46538 0.80108 0.05237 0.0
C1271 C 0.42308 0.81588 0.08189 0.0
C1272 C 0.40332 0.83843 0.09292 0.0
C1273 C 0.39398 0.8584 0.07462 0.0
C1274 C 0.3755 0.87959 0.08501 0.0
C1275 C 0.36611 0.88109 0.11374 0.0
C1276 C 0.37521 0.86139 0.13212 0.0
C1277 C 0.3937 0.84014 0.12182 0.0
H1278 H 0.35181 0.89754 0.12176 0.0
H1279 H 0.5313 0.69135 0.02099 0.0
H1280 H 0.10215 0.38424 0.54813 0.0
H1281 H 0.10038 0.33157 0.53179 0.0
H1282 H 0.13052 0.31036 0.61174 0.0
H1283 H 0.13391 0.36329 0.6273 0.0
H1284 H 0.15376 0.27717 0.57249 0.0
H1285 H 0.05434 0.30223 0.59582 0.0
H1286 H 0.01174 0.33029 0.59207 0.0
H1287 H 0.0092 0.30353 0.50381 0.0
H1288 H 0.05205 0.27561 0.50698 0.0
H1289 H 0.07773 0.13376 0.60013 0.0
H1290 H 0.09944 0.18597 0.59728 0.0
H1291 H 0.07999 0.18418 0.50941 0.0
H1292 H 0.05773 0.13201 0.5125 0.0
H1293 H 0.05673 0.22883 0.54204 0.0
H1294 H 0.14823 0.18889 0.52842 0.0
H1295 H 0.18839 0.15986 0.53746 0.0
H1296 H 0.20304 0.21135 0.61512 0.0
H1297 H 0.1627 0.24068 0.60677 0.0
C1298 C 0.1086 0.36825 0.56201 0.0
C1299 C 0.11783 0.37753 0.58903 0.0
C1300 C 0.10755 0.3382 0.55274 0.0
C1301 C 0.11472 0.31678 0.57074 0.0
C1302 C 0.12488 0.32636 0.59742 0.0
C1303 C 0.12663 0.35652 0.6064 0.0
C1304 C 0.10981 0.28426 0.56277 0.0
C1305 C 0.1325 0.26649 0.56603 0.0
C1306 C 0.08234 0.27043 0.55347 0.0
C1307 C 0.0566 0.28718 0.55155 0.0
C1308 C 0.04481 0.30252 0.57557 0.0
C1309 C 0.02062 0.31837 0.57356 0.0
C1310 C 0.00784 0.31878 0.5477 0.0
C1311 C 0.01917 0.30326 0.52381 0.0
C1312 C 0.0434 0.28742 0.5257 0.0
C1313 C 0.0788 0.14434 0.58004 0.0
C1314 C 0.06657 0.12885 0.55634 0.0
C1315 C 0.09131 0.17407 0.57839 0.0
C1316 C 0.0916 0.18884 0.55306 0.0
C1317 C 0.08032 0.17305 0.52905 0.0
C1318 C 0.06798 0.14319 0.53068 0.0
C1319 C 0.10022 0.22156 0.55295 0.0
C1320 C 0.07822 0.23943 0.54803 0.0
C1321 C 0.128 0.23519 0.56161 0.0
C1322 C 0.15233 0.2173 0.56679 0.0
C1323 C 0.15989 0.19416 0.54745 0.0
C1324 C 0.18275 0.17756 0.55248 0.0
C1325 C 0.19831 0.18378 0.57682 0.0
C1326 C 0.19102 0.20662 0.59621 0.0
C1327 C 0.16819 0.22331 0.59127 0.0
H1328 H 0.21599 0.17089 0.58069 0.0
H1329 H 0.9891 0.33105 0.54618 0.0
H1330 H 0.66255 0.22148 0.43775 0.0
H1331 H 0.64477 0.26486 0.46388 0.0
H1332 H 0.55437 0.22645 0.45374 0.0
H1333 H 0.57208 0.18338 0.42717 0.0
H1334 H 0.56114 0.28246 0.44095 0.0
H1335 H 0.58784 0.22928 0.51876 0.0
H1336 H 0.6226 0.20334 0.54304 0.0
H1337 H 0.68281 0.28433 0.54784 0.0
H1338 H 0.64854 0.31069 0.52328 0.0
H1339 H 0.48307 0.37495 0.52867 0.0
H1340 H 0.50727 0.32997 0.518 0.0
H1341 H 0.59274 0.38323 0.51545 0.0
H1342 H 0.56848 0.42863 0.52636 0.0
H1343 H 0.5913 0.32157 0.53585 0.0
H1344 H 0.56477 0.37408 0.45722 0.0
H1345 H 0.53072 0.39931 0.43136 0.0
H1346 H 0.47033 0.31836 0.42757 0.0
H1347 H 0.50381 0.29279 0.4539 0.0
C1348 C 0.63888 0.22215 0.44142 0.0
C1349 C 0.61869 0.19904 0.43038 0.0
C1350 C 0.62873 0.24693 0.45642 0.0
C1351 C 0.59818 0.24887 0.46108 0.0
C1352 C 0.57803 0.22555 0.45041 0.0
C1353 C 0.58816 0.20096 0.43518 0.0
C1354 C 0.58706 0.27576 0.47577 0.0
C1355 C 0.56749 0.29066 0.46186 0.0
C1356 C 0.59595 0.28716 0.50274 0.0
C1357 C 0.61581 0.27184 0.51886 0.0
C1358 C 0.60854 0.24153 0.52492 0.0
C1359 C 0.62816 0.22674 0.53869 0.0
C1360 C 0.65503 0.24209 0.54667 0.0
C1361 C 0.6621 0.27241 0.54139 0.0
C1362 C 0.64254 0.28731 0.52764 0.0
C1363 C 0.50706 0.37701 0.52679 0.0
C1364 C 0.52388 0.4053 0.528 0.0
C1365 C 0.52087 0.35128 0.52073 0.0
C1366 C 0.55174 0.35335 0.51542 0.0
C1367 C 0.56888 0.38119 0.51944 0.0
C1368 C 0.55499 0.40708 0.52568 0.0
C1369 C 0.56503 0.32759 0.50114 0.0
C1370 C 0.58502 0.31315 0.51499 0.0
C1371 C 0.55658 0.31645 0.47403 0.0
C1372 C 0.53666 0.33162 0.45776 0.0
C1373 C 0.54412 0.36173 0.45106 0.0
C1374 C 0.52494 0.37608 0.4363 0.0
C1375 C 0.49835 0.36047 0.42788 0.0
C1376 C 0.49092 0.33043 0.43414 0.0
C1377 C 0.51 0.316 0.44897 0.0
H1378 H 0.48352 0.37162 0.41645 0.0
H1379 H 0.67031 0.23053 0.55711 0.0
loop_
_geom_bond_atom_site_label_1
_geom_bond_atom_site_label_2
_geom_bond_distance
_geom_bond_site_symmetry_2
_ccdc_geom_bond_type
H0 C5 0.930 . S
H1 C8 0.930 . S
H2 C10 0.930 . S
H3 C4 1.016 . S
C4 H3 1.016 . S
C4 N11 1.286 . S
C5 H0 0.930 . S
C5 C6 1.397 . S
C5 C7 1.361 . S
C6 C5 1.397 . S
C6 C10 1.390 . S
C7 C5 1.361 . S
C7 C8 1.393 . S
C7 N11 1.413 . S
C8 H1 0.930 . S
C8 C7 1.393 . S
C8 C9 1.399 . S
C9 C8 1.399 . S
C9 C10 1.381 . S
C10 H2 0.930 . S
C10 C6 1.390 . S
C10 C9 1.381 . S
N11 C4 1.286 . S
N11 C7 1.413 . S
H12 C17 0.930 . S
H13 C20 0.930 . S
H14 C22 0.930 . S
H15 C16 1.016 . S
C16 H15 1.016 . S
C16 N23 1.286 . S
C17 H12 0.930 . S
C17 C18 1.397 . S
C17 C19 1.361 . S
C18 C17 1.397 . S
C18 C22 1.390 . S
C19 C17 1.361 . S
C19 C20 1.393 . S
C19 N23 1.413 . S
C20 H13 0.930 . S
C20 C19 1.393 . S
C20 C21 1.399 . S
C21 C20 1.399 . S
C21 C22 1.381 . S
C22 H14 0.930 . S
C22 C18 1.390 . S
C22 C21 1.381 . S
N23 C16 1.286 . S
N23 C19 1.413 . S
H24 C29 0.930 . S
H25 C32 0.930 . S
H26 C34 0.930 . S
H27 C28 1.016 . S
C28 H27 1.016 . S
C28 N35 1.286 . S
C29 H24 0.930 . S
C29 C30 1.397 . S
C29 C31 1.361 . S
C30 C29 1.397 . S
C30 C34 1.390 . S
C31 C29 1.361 . S
C31 C32 1.393 . S
C31 N35 1.413 . S
C32 H25 0.930 . S
C32 C31 1.393 . S
C32 C33 1.399 . S
C33 C32 1.399 . S
C33 C34 1.381 . S
C34 H26 0.930 . S
C34 C30 1.390 . S
C34 C33 1.381 . S
N35 C28 1.286 . S
N35 C31 1.413 . S
H36 C41 0.930 . S
H37 C44 0.930 . S
H38 C46 0.930 . S
H39 C40 1.016 . S
C40 H39 1.016 . S
C40 N47 1.286 . S
C41 H36 0.930 . S
C41 C42 1.397 . S
C41 C43 1.361 . S
C42 C41 1.397 . S
C42 C46 1.390 . S
C43 C41 1.361 . S
C43 C44 1.393 . S
C43 N47 1.413 . S
C44 H37 0.930 . S
C44 C43 1.393 . S
C44 C45 1.399 . S
C45 C44 1.399 . S
C45 C46 1.381 . S
C46 H38 0.930 . S
C46 C42 1.390 . S
C46 C45 1.381 . S
N47 C40 1.286 . S
N47 C43 1.413 . S
H48 C53 0.930 . S
H49 C56 0.930 . S
H50 C58 0.930 . S
H51 C52 1.016 . S
C52 H51 1.016 . S
C52 N59 1.286 . S
C53 H48 0.930 . S
C53 C54 1.397 . S
C53 C55 1.361 . S
C54 C53 1.397 . S
C54 C58 1.390 . S
C55 C53 1.361 . S
C55 C56 1.393 . S
C55 N59 1.413 . S
C56 H49 0.930 . S
C56 C55 1.393 . S
C56 C57 1.399 . S
C57 C56 1.399 . S
C57 C58 1.381 . S
C58 H50 0.930 . S
C58 C54 1.390 . S
C58 C57 1.381 . S
N59 C52 1.286 . S
N59 C55 1.413 . S
H60 C65 0.930 . S
H61 C68 0.930 . S
H62 C70 0.930 . S
H63 C64 1.016 . S
C64 H63 1.016 . S
C64 N71 1.286 . S
C65 H60 0.930 . S
C65 C66 1.397 . S
C65 C67 1.361 . S
C66 C65 1.397 . S
C66 C70 1.390 . S
C67 C65 1.361 . S
C67 C68 1.393 . S
C67 N71 1.413 . S
C68 H61 0.930 . S
C68 C67 1.393 . S
C68 C69 1.399 . S
C69 C68 1.399 . S
C69 C70 1.381 . S
C70 H62 0.930 . S
C70 C66 1.390 . S
C70 C69 1.381 . S
N71 C64 1.286 . S
N71 C67 1.413 . S
H72 C77 0.930 . S
H73 C80 0.930 . S
H74 C82 0.930 . S
H75 C76 1.016 . S
C76 H75 1.016 . S
C76 N83 1.286 . S
C77 H72 0.930 . S
C77 C78 1.397 . S
C77 C79 1.361 . S
C78 C77 1.397 . S
C78 C82 1.390 . S
C79 C77 1.361 . S
C79 C80 1.393 . S
C79 N83 1.413 . S
C80 H73 0.930 . S
C80 C79 1.393 . S
C80 C81 1.399 . S
C81 C80 1.399 . S
C81 C82 1.381 . S
C82 H74 0.930 . S
C82 C78 1.390 . S
C82 C81 1.381 . S
N83 C76 1.286 . S
N83 C79 1.413 . S
H84 C89 0.930 . S
H85 C92 0.930 . S
H86 C94 0.930 . S
H87 C88 1.016 . S
C88 H87 1.016 . S
C88 N95 1.286 . S
C89 H84 0.930 . S
C89 C90 1.397 . S
C89 C91 1.361 . S
C90 C89 1.397 . S
C90 C94 1.390 . S
C91 C89 1.361 . S
C91 C92 1.393 . S
C91 N95 1.413 . S
C92 H85 0.930 . S
C92 C91 1.393 . S
C92 C93 1.399 . S
C93 C92 1.399 . S
C93 C94 1.381 . S
C94 H86 0.930 . S
C94 C90 1.390 . S
C94 C93 1.381 . S
N95 C88 1.286 . S
N95 C91 1.413 . S
Zn96 O102 1.920 . S
Zn96 O108 1.898 . S
Zn96 O111 1.905 . S
Zn97 O105 1.905 1_565 S
Zn97 O106 1.898 . S
Zn97 O114 1.920 . S
Zn98 O101 2.080 1_455 S
Zn98 O104 2.114 . S
Zn98 O107 2.120 1_445 S
Zn98 O109 2.120 . S
Zn98 O110 2.114 1_455 S
Zn98 O113 2.080 . S
C99 O104 1.166 . S
C99 O105 1.182 . S
C100 O106 1.167 1_655 S
C100 O107 1.299 . S
O101 Zn98 2.080 1_655 S
O101 C115 1.305 . S
O102 Zn96 1.920 . S
O102 C115 1.234 . S
C103 O108 1.167 1_455 S
C103 O109 1.299 . S
O104 Zn98 2.114 . S
O104 C99 1.166 . S
O105 Zn97 1.905 1_545 S
O105 C99 1.182 . S
O106 Zn97 1.898 . S
O106 C100 1.167 1_455 S
O107 Zn98 2.120 1_665 S
O107 C100 1.299 . S
O108 Zn96 1.898 . S
O108 C103 1.167 1_655 S
O109 Zn98 2.120 . S
O109 C103 1.299 . S
O110 Zn98 2.114 1_655 S
O110 C112 1.166 . S
O111 Zn96 1.905 . S
O111 C112 1.182 . S
C112 O110 1.166 . S
C112 O111 1.182 . S
O113 Zn98 2.080 . S
O113 C116 1.305 1_545 S
O114 Zn97 1.920 . S
O114 C116 1.234 . S
C115 O101 1.305 . S
C115 O102 1.234 . S
C116 O113 1.305 1_565 S
C116 O114 1.234 . S
Zn117 O123 1.920 1_556 S
Zn117 O129 1.898 . S
Zn117 O132 1.905 . S
Zn118 O126 1.905 . S
Zn118 O127 1.898 . S
Zn118 O135 1.920 . S
Zn119 O122 2.080 . S
Zn119 O125 2.114 1_545 S
Zn119 O128 2.120 1_545 S
Zn119 O130 2.120 . S
Zn119 O131 2.114 1_544 S
Zn119 O134 2.080 . S
C120 O125 1.166 . S
C120 O126 1.182 . S
C121 O127 1.167 . S
C121 O128 1.299 . S
O122 Zn119 2.080 . S
O122 C136 1.305 . S
O123 Zn117 1.920 1_554 S
O123 C136 1.234 . S
C124 O129 1.167 . S
C124 O130 1.299 1_556 S
O125 Zn119 2.114 1_565 S
O125 C120 1.166 . S
O126 Zn118 1.905 . S
O126 C120 1.182 . S
O127 Zn118 1.898 . S
O127 C121 1.167 . S
O128 Zn119 2.120 1_565 S
O128 C121 1.299 . S
O129 Zn117 1.898 . S
O129 C124 1.167 . S
O130 Zn119 2.120 . S
O130 C124 1.299 1_554 S
O131 Zn119 2.114 1_566 S
O131 C133 1.166 . S
O132 Zn117 1.905 . S
O132 C133 1.182 1_545 S
C133 O131 1.166 . S
C133 O132 1.182 1_565 S
O134 Zn119 2.080 . S
O134 C137 1.305 . S
O135 Zn118 1.920 . S
O135 C137 1.234 1_565 S
C136 O122 1.305 . S
C136 O123 1.234 . S
C137 O134 1.305 . S
C137 O135 1.234 1_545 S
Zn138 O144 1.920 . S
Zn138 O150 1.898 . S
Zn138 O153 1.905 . S
Zn139 O147 1.905 . S
Zn139 O148 1.898 . S
Zn139 O156 1.920 . S
Zn140 O143 2.080 . S
Zn140 O146 2.114 . S
Zn140 O149 2.120 . S
Zn140 O151 2.120 . S
Zn140 O152 2.114 . S
Zn140 O155 2.080 . S
C141 O146 1.166 . S
C141 O147 1.182 . S
C142 O148 1.167 . S
C142 O149 1.299 . S
O143 Zn140 2.080 . S
O143 C157 1.305 . S
O144 Zn138 1.920 . S
O144 C157 1.234 . S
C145 O150 1.167 . S
C145 O151 1.299 . S
O146 Zn140 2.114 . S
O146 C141 1.166 . S
O147 Zn139 1.905 . S
O147 C141 1.182 . S
O148 Zn139 1.898 . S
O148 C142 1.167 . S
O149 Zn140 2.120 . S
O149 C142 1.299 . S
O150 Zn138 1.898 . S
O150 C145 1.167 . S
O151 Zn140 2.120 . S
O151 C145 1.299 . S
O152 Zn140 2.114 . S
O152 C154 1.166 . S
O153 Zn138 1.905 . S
O153 C154 1.182 . S
C154 O152 1.166 . S
C154 O153 1.182 . S
O155 Zn140 2.080 . S
O155 C158 1.305 . S
O156 Zn139 1.920 . S
O156 C158 1.234 . S
C157 O143 1.305 . S
C157 O144 1.234 . S
C158 O155 1.305 . S
C158 O156 1.234 . S
Zn159 O165 1.920 . S
Zn159 O171 1.898 . S
Zn159 O174 1.905 . S
Zn160 O168 1.872 1_655 S
Zn160 O169 1.914 . S
Zn160 O177 1.929 . S
Zn161 O164 2.080 1_554 S
Zn161 O167 2.114 . S
Zn161 O170 2.120 1_554 S
Zn161 O172 2.120 . S
Zn161 O173 2.114 1_554 S
Zn161 O176 2.080 . S
C162 O167 1.166 . S
C162 O168 1.182 . S
C163 O169 1.167 1_556 S
C163 O170 1.299 1_655 S
O164 Zn161 2.080 1_556 S
O164 C178 1.305 . S
O165 Zn159 1.920 . S
O165 C178 1.234 . S
C166 O171 1.167 1_554 S
C166 O172 1.299 . S
O167 Zn161 2.114 . S
O167 C162 1.166 . S
O168 Zn160 1.872 1_455 S
O168 C162 1.182 . S
O169 Zn160 1.914 . S
O169 C163 1.167 1_554 S
O170 Zn161 2.120 1_556 S
O170 C163 1.299 1_455 S
O171 Zn159 1.898 . S
O171 C166 1.167 1_556 S
O172 Zn161 2.120 . S
O172 C166 1.299 . S
O173 Zn161 2.114 1_556 S
O173 C175 1.166 . S
O174 Zn159 1.905 . S
O174 C175 1.182 . S
C175 O173 1.166 . S
C175 O174 1.182 . S
O176 Zn161 2.080 . S
O176 C179 1.305 . S
O177 Zn160 1.929 . S
O177 C179 1.234 1_655 S
C178 O164 1.305 . S
C178 O165 1.234 . S
C179 O176 1.305 . S
C179 O177 1.234 1_455 S
H180 C198 0.951 . S
H181 C200 0.951 . S
H182 C202 0.950 . S
H183 C203 0.950 . S
H184 C205 0.950 . S
H185 C208 0.950 . S
H186 C209 0.950 . S
H187 C211 0.950 . S
H188 C212 0.950 . S
H189 C213 0.951 . S
H190 C215 0.951 . S
H191 C217 0.950 . S
H192 C218 0.950 . S
H193 C220 0.950 . S
H194 C223 0.950 . S
H195 C224 0.950 . S
H196 C226 0.950 . S
H197 C227 0.950 . S
C198 H180 0.951 . S
C198 C199 1.366 . S
C198 C200 1.388 . S
C199 C198 1.366 . S
C199 C203 1.385 . S
C200 H181 0.951 . S
C200 C198 1.388 . S
C200 C201 1.366 . S
C201 C200 1.366 . S
C201 C202 1.414 . S
C201 C204 1.499 . S
C202 H182 0.950 . S
C202 C201 1.414 . S
C202 C203 1.374 . S
C203 H183 0.950 . S
C203 C199 1.385 . S
C203 C202 1.374 . S
C204 C201 1.499 . S
C204 C205 1.373 . S
C204 C206 1.389 . S
C205 H184 0.950 . S
C205 C204 1.373 . S
C205 C221 1.377 . S
C206 C204 1.389 . S
C206 C207 1.524 . S
C206 C220 1.377 . S
C207 C206 1.524 . S
C207 C208 1.397 . S
C207 C212 1.363 . S
C208 H185 0.950 . S
C208 C207 1.397 . S
C208 C209 1.334 . S
C209 H186 0.950 . S
C209 C208 1.334 . S
C209 C210 1.287 . S
C210 C209 1.287 . S
C210 C211 1.524 . S
C210 H229 0.913 . S
C211 H187 0.950 . S
C211 C210 1.524 . S
C211 C212 1.415 . S
C212 H188 0.950 . S
C212 C207 1.363 . S
C212 C211 1.415 . S
C213 H189 0.951 . S
C213 C214 1.366 . S
C213 C215 1.388 . S
C214 C213 1.366 . S
C214 C218 1.385 . S
C215 H190 0.951 . S
C215 C213 1.388 . S
C215 C216 1.366 . S
C216 C215 1.366 . S
C216 C217 1.414 . S
C216 C219 1.499 . S
C217 H191 0.950 . S
C217 C216 1.414 . S
C217 C218 1.374 . S
C218 H192 0.950 . S
C218 C214 1.385 . S
C218 C217 1.374 . S
C219 C216 1.499 . S
C219 C220 1.373 . S
C219 C221 1.389 . S
C220 H193 0.950 . S
C220 C206 1.377 . S
C220 C219 1.373 . S
C221 C205 1.377 . S
C221 C219 1.389 . S
C221 C222 1.524 . S
C222 C221 1.524 . S
C222 C223 1.397 . S
C222 C227 1.363 . S
C223 H194 0.950 . S
C223 C222 1.397 . S
C223 C224 1.334 . S
C224 H195 0.950 . S
C224 C223 1.334 . S
C224 C225 1.287 . S
C225 C224 1.287 . S
C225 C226 1.524 . S
C225 H228 0.999 . S
C226 H196 0.950 . S
C226 C225 1.524 . S
C226 C227 1.415 . S
C227 H197 0.950 . S
C227 C222 1.363 . S
C227 C226 1.415 . S
H228 C225 0.999 . S
H229 C210 0.913 . S
H230 C248 0.951 . S
H231 C250 0.951 . S
H232 C252 0.950 . S
H233 C253 0.950 . S
H234 C255 0.950 . S
H235 C258 0.950 . S
H236 C259 0.950 . S
H237 C261 0.950 1_545 S
H238 C262 0.950 . S
H239 C263 0.951 . S
H240 C265 0.951 . S
H241 C267 0.950 . S
H242 C268 0.950 1_545 S
H243 C270 0.950 . S
H244 C273 0.950 . S
H245 C274 0.950 . S
H246 C276 0.950 . S
H247 C277 0.950 . S
C248 H230 0.951 . S
C248 C249 1.366 . S
C248 C250 1.388 . S
C249 C248 1.366 . S
C249 C253 1.385 . S
C250 H231 0.951 . S
C250 C248 1.388 . S
C250 C251 1.366 . S
C251 C250 1.366 . S
C251 C252 1.414 . S
C251 C254 1.499 . S
C252 H232 0.950 . S
C252 C251 1.414 . S
C252 C253 1.374 . S
C253 H233 0.950 . S
C253 C249 1.385 . S
C253 C252 1.374 . S
C254 C251 1.499 . S
C254 C255 1.373 . S
C254 C256 1.389 . S
C255 H234 0.950 . S
C255 C254 1.373 . S
C255 C271 1.377 . S
C256 C254 1.389 . S
C256 C257 1.524 . S
C256 C270 1.377 . S
C257 C256 1.524 . S
C257 C258 1.397 . S
C257 C262 1.363 . S
C258 H235 0.950 . S
C258 C257 1.397 . S
C258 C259 1.334 . S
C259 H236 0.950 . S
C259 C258 1.334 . S
C259 C260 1.287 . S
C260 C259 1.287 . S
C260 C261 1.524 . S
C260 H279 0.913 . S
C261 H237 0.950 1_565 S
C261 C260 1.524 . S
C261 C262 1.415 . S
C262 H238 0.950 . S
C262 C257 1.363 . S
C262 C261 1.415 . S
C263 H239 0.951 . S
C263 C264 1.366 . S
C263 C265 1.388 . S
C264 C263 1.366 . S
C264 C268 1.385 . S
C265 H240 0.951 . S
C265 C263 1.388 . S
C265 C266 1.366 . S
C266 C265 1.366 . S
C266 C267 1.414 . S
C266 C269 1.499 . S
C267 H241 0.950 . S
C267 C266 1.414 . S
C267 C268 1.374 . S
C268 H242 0.950 1_565 S
C268 C264 1.385 . S
C268 C267 1.374 . S
C269 C266 1.499 . S
C269 C270 1.373 . S
C269 C271 1.389 . S
C270 H243 0.950 . S
C270 C256 1.377 . S
C270 C269 1.373 . S
C271 C255 1.377 . S
C271 C269 1.389 . S
C271 C272 1.524 . S
C272 C271 1.524 . S
C272 C273 1.397 . S
C272 C277 1.363 . S
C273 H244 0.950 . S
C273 C272 1.397 . S
C273 C274 1.334 . S
C274 H245 0.950 . S
C274 C273 1.334 . S
C274 C275 1.287 . S
C275 C274 1.287 . S
C275 C276 1.524 . S
C275 H278 0.999 . S
C276 H246 0.950 . S
C276 C275 1.524 . S
C276 C277 1.415 . S
C277 H247 0.950 . S
C277 C272 1.363 . S
C277 C276 1.415 . S
H278 C275 0.999 . S
H279 C260 0.913 . S
H280 C298 0.951 . S
H281 C300 0.951 . S
H282 C302 0.950 . S
H283 C303 0.950 . S
H284 C305 0.950 . S
H285 C308 0.950 . S
H286 C309 0.950 . S
H287 C311 0.950 . S
H288 C312 0.950 . S
H289 C313 0.951 . S
H290 C315 0.951 . S
H291 C317 0.950 . S
H292 C318 0.950 . S
H293 C320 0.950 . S
H294 C323 0.950 . S
H295 C324 0.950 . S
H296 C326 0.950 . S
H297 C327 0.950 . S
C298 H280 0.951 . S
C298 C299 1.366 . S
C298 C300 1.388 . S
C299 C298 1.366 . S
C299 C303 1.385 . S
C300 H281 0.951 . S
C300 C298 1.388 . S
C300 C301 1.366 . S
C301 C300 1.366 . S
C301 C302 1.414 . S
C301 C304 1.499 . S
C302 H282 0.950 . S
C302 C301 1.414 . S
C302 C303 1.374 . S
C303 H283 0.950 . S
C303 C299 1.385 . S
C303 C302 1.374 . S
C304 C301 1.499 . S
C304 C305 1.373 . S
C304 C306 1.389 . S
C305 H284 0.950 . S
C305 C304 1.373 . S
C305 C321 1.377 . S
C306 C304 1.389 . S
C306 C307 1.524 . S
C306 C320 1.377 . S
C307 C306 1.524 . S
C307 C308 1.397 . S
C307 C312 1.363 . S
C308 H285 0.950 . S
C308 C307 1.397 . S
C308 C309 1.334 . S
C309 H286 0.950 . S
C309 C308 1.334 . S
C309 C310 1.287 . S
C310 C309 1.287 . S
C310 C311 1.524 . S
C310 H329 0.913 . S
C311 H287 0.950 . S
C311 C310 1.524 . S
C311 C312 1.415 . S
C312 H288 0.950 . S
C312 C307 1.363 . S
C312 C311 1.415 . S
C313 H289 0.951 . S
C313 C314 1.366 . S
C313 C315 1.388 . S
C314 C313 1.366 . S
C314 C318 1.385 . S
C315 H290 0.951 . S
C315 C313 1.388 . S
C315 C316 1.366 . S
C316 C315 1.366 . S
C316 C317 1.414 . S
C316 C319 1.499 . S
C317 H291 0.950 . S
C317 C316 1.414 . S
C317 C318 1.374 . S
C318 H292 0.950 . S
C318 C314 1.385 . S
C318 C317 1.374 . S
C319 C316 1.499 . S
C319 C320 1.373 . S
C319 C321 1.389 . S
C320 H293 0.950 . S
C320 C306 1.377 . S
C320 C319 1.373 . S
C321 C305 1.377 . S
C321 C319 1.389 . S
C321 C322 1.524 . S
C322 C321 1.524 . S
C322 C323 1.397 . S
C322 C327 1.363 . S
C323 H294 0.950 . S
C323 C322 1.397 . S
C323 C324 1.334 . S
C324 H295 0.950 . S
C324 C323 1.334 . S
C324 C325 1.287 . S
C325 C324 1.287 . S
C325 C326 1.524 . S
C325 H328 0.999 . S
C326 H296 0.950 . S
C326 C325 1.524 . S
C326 C327 1.415 . S
C327 H297 0.950 . S
C327 C322 1.363 . S
C327 C326 1.415 . S
H328 C325 0.999 . S
H329 C310 0.913 . S
H330 C348 0.951 . S
H331 C350 0.951 . S
H332 C352 0.950 . S
H333 C353 0.950 . S
H334 C355 0.950 . S
H335 C358 0.950 . S
H336 C359 0.950 . S
H337 C361 0.950 . S
H338 C362 0.950 1_655 S
H339 C363 0.951 . S
H340 C365 0.951 . S
H341 C367 0.950 . S
H342 C368 0.950 . S
H343 C370 0.988 . S
H344 C373 0.950 . S
H345 C374 0.950 . S
H346 C376 0.950 . S
H347 C377 0.950 . S
C348 H330 0.951 . S
C348 C349 1.366 . S
C348 C350 1.388 . S
C349 C348 1.366 . S
C349 C353 1.385 . S
C350 H331 0.951 . S
C350 C348 1.388 . S
C350 C351 1.366 . S
C351 C350 1.366 . S
C351 C352 1.414 . S
C351 C354 1.499 . S
C352 H332 0.950 . S
C352 C351 1.414 . S
C352 C353 1.374 . S
C353 H333 0.950 . S
C353 C349 1.385 . S
C353 C352 1.374 . S
C354 C351 1.499 . S
C354 C355 1.373 . S
C354 C356 1.389 . S
C355 H334 0.950 . S
C355 C354 1.373 . S
C355 C371 1.377 . S
C356 C354 1.389 . S
C356 C357 1.524 . S
C356 C370 1.377 . S
C357 C356 1.524 . S
C357 C358 1.397 . S
C357 C362 1.363 1_655 S
C358 H335 0.950 . S
C358 C357 1.397 . S
C358 C359 1.334 1_655 S
C359 H336 0.950 . S
C359 C358 1.334 1_455 S
C359 C360 1.287 . S
C360 C359 1.287 . S
C360 C361 1.524 . S
C360 H379 0.913 . S
C361 H337 0.950 . S
C361 C360 1.524 . S
C361 C362 1.415 . S
C362 H338 0.950 1_455 S
C362 C357 1.363 1_455 S
C362 C361 1.415 . S
C363 H339 0.951 . S
C363 C364 1.366 1_655 S
C363 C365 1.388 . S
C364 C363 1.366 1_455 S
C364 C368 1.385 . S
C365 H340 0.951 . S
C365 C363 1.388 . S
C365 C366 1.366 . S
C366 C365 1.366 . S
C366 C367 1.414 . S
C366 C369 1.499 . S
C367 H341 0.950 . S
C367 C366 1.414 . S
C367 C368 1.374 1_655 S
C368 H342 0.950 . S
C368 C364 1.385 . S
C368 C367 1.374 1_455 S
C369 C366 1.499 . S
C369 C370 1.373 . S
C369 C371 1.389 . S
C370 H343 0.988 . S
C370 C356 1.377 . S
C370 C369 1.373 . S
C371 C355 1.377 . S
C371 C369 1.389 . S
C371 C372 1.524 . S
C372 C371 1.524 . S
C372 C373 1.397 . S
C372 C377 1.363 . S
C373 H344 0.950 . S
C373 C372 1.397 . S
C373 C374 1.334 . S
C374 H345 0.950 . S
C374 C373 1.334 . S
C374 C375 1.287 . S
C375 C374 1.287 . S
C375 C376 1.524 . S
C375 H378 0.999 . S
C376 H346 0.950 . S
C376 C375 1.524 . S
C376 C377 1.415 . S
C377 H347 0.950 . S
C377 C372 1.363 . S
C377 C376 1.415 . S
H378 C375 0.999 . S
H379 C360 0.913 . S
H380 C398 0.951 . S
H381 C400 0.951 . S
H382 C402 0.950 . S
H383 C403 0.950 . S
H384 C405 0.950 . S
H385 C408 0.950 . S
H386 C409 0.950 . S
H387 C411 0.950 . S
H388 C412 0.950 . S
H389 C413 0.951 . S
H390 C415 0.951 . S
H391 C417 0.950 . S
H392 C418 0.950 . S
H393 C420 0.950 . S
H394 C423 0.950 . S
H395 C424 0.950 . S
H396 C426 0.950 . S
H397 C427 0.950 . S
C398 H380 0.951 . S
C398 C399 1.366 . S
C398 C400 1.388 . S
C399 C398 1.366 . S
C399 C403 1.385 . S
C400 H381 0.951 . S
C400 C398 1.388 . S
C400 C401 1.366 . S
C401 C400 1.366 . S
C401 C402 1.414 . S
C401 C404 1.499 . S
C402 H382 0.950 . S
C402 C401 1.414 . S
C402 C403 1.374 . S
C403 H383 0.950 . S
C403 C399 1.385 . S
C403 C402 1.374 . S
C404 C401 1.499 . S
C404 C405 1.373 . S
C404 C406 1.389 . S
C405 H384 0.950 . S
C405 C404 1.373 . S
C405 C421 1.377 . S
C406 C404 1.389 . S
C406 C407 1.524 . S
C406 C420 1.377 . S
C407 C406 1.524 . S
C407 C408 1.397 . S
C407 C412 1.363 . S
C408 H385 0.950 . S
C408 C407 1.397 . S
C408 C409 1.334 . S
C409 H386 0.950 . S
C409 C408 1.334 . S
C409 C410 1.287 . S
C410 C409 1.287 . S
C410 C411 1.524 . S
C410 H429 0.913 . S
C411 H387 0.950 . S
C411 C410 1.524 . S
C411 C412 1.415 . S
C412 H388 0.950 . S
C412 C407 1.363 . S
C412 C411 1.415 . S
C413 H389 0.951 . S
C413 C414 1.366 . S
C413 C415 1.388 . S
C414 C413 1.366 . S
C414 C418 1.385 . S
C415 H390 0.951 . S
C415 C413 1.388 . S
C415 C416 1.366 . S
C416 C415 1.366 . S
C416 C417 1.414 . S
C416 C419 1.499 . S
C417 H391 0.950 . S
C417 C416 1.414 . S
C417 C418 1.374 . S
C418 H392 0.950 . S
C418 C414 1.385 . S
C418 C417 1.374 . S
C419 C416 1.499 . S
C419 C420 1.373 . S
C419 C421 1.389 . S
C420 H393 0.950 . S
C420 C406 1.377 . S
C420 C419 1.373 . S
C421 C405 1.377 . S
C421 C419 1.389 . S
C421 C422 1.524 . S
C422 C421 1.524 . S
C422 C423 1.397 . S
C422 C427 1.363 . S
C423 H394 0.950 . S
C423 C422 1.397 . S
C423 C424 1.334 . S
C424 H395 0.950 . S
C424 C423 1.334 . S
C424 C425 1.287 . S
C425 C424 1.287 . S
C425 C426 1.524 . S
C425 H428 0.999 1_554 S
C426 H396 0.950 . S
C426 C425 1.524 . S
C426 C427 1.415 . S
C427 H397 0.950 . S
C427 C422 1.363 . S
C427 C426 1.415 . S
H428 C425 0.999 1_556 S
H429 C410 0.913 . S
H430 C448 0.951 . S
H431 C450 0.951 . S
H432 C452 0.950 . S
H433 C453 0.950 . S
H434 C455 0.950 . S
H435 C458 0.950 . S
H436 C459 0.950 . S
H437 C461 0.950 . S
H438 C462 0.950 . S
H439 C463 0.951 1_545 S
H440 C465 0.951 . S
H441 C467 0.950 . S
H442 C468 0.950 . S
H443 C470 0.950 . S
H444 C473 0.950 1_565 S
H445 C474 0.950 . S
H446 C476 0.950 . S
H447 C477 0.950 . S
C448 H430 0.951 . S
C448 C449 1.366 . S
C448 C450 1.388 . S
C449 C448 1.366 . S
C449 C453 1.385 . S
C450 H431 0.951 . S
C450 C448 1.388 . S
C450 C451 1.366 . S
C451 C450 1.366 . S
C451 C452 1.414 . S
C451 C454 1.499 . S
C452 H432 0.950 . S
C452 C451 1.414 . S
C452 C453 1.374 . S
C453 H433 0.950 . S
C453 C449 1.385 . S
C453 C452 1.374 . S
C454 C451 1.499 . S
C454 C455 1.373 . S
C454 C456 1.389 . S
C455 H434 0.950 . S
C455 C454 1.373 . S
C455 C471 1.377 . S
C456 C454 1.389 . S
C456 C457 1.524 . S
C456 C470 1.377 . S
C457 C456 1.524 . S
C457 C458 1.397 . S
C457 C462 1.363 . S
C458 H435 0.950 . S
C458 C457 1.397 . S
C458 C459 1.334 . S
C459 H436 0.950 . S
C459 C458 1.334 . S
C459 C460 1.287 . S
C460 C459 1.287 . S
C460 C461 1.524 . S
C460 H479 0.913 . S
C461 H437 0.950 . S
C461 C460 1.524 . S
C461 C462 1.415 . S
C462 H438 0.950 . S
C462 C457 1.363 . S
C462 C461 1.415 . S
C463 H439 0.951 1_565 S
C463 C464 1.366 . S
C463 C465 1.388 . S
C464 C463 1.366 . S
C464 C468 1.385 . S
C465 H440 0.951 . S
C465 C463 1.388 . S
C465 C466 1.366 . S
C466 C465 1.366 . S
C466 C467 1.414 . S
C466 C469 1.499 . S
C467 H441 0.950 . S
C467 C466 1.414 . S
C467 C468 1.374 . S
C468 H442 0.950 . S
C468 C464 1.385 . S
C468 C467 1.374 . S
C469 C466 1.499 . S
C469 C470 1.373 . S
C469 C471 1.389 . S
C470 H443 0.950 . S
C470 C456 1.377 . S
C470 C469 1.373 . S
C471 C455 1.377 . S
C471 C469 1.389 . S
C471 C472 1.524 . S
C472 C471 1.524 . S
C472 C473 1.397 1_565 S
C472 C477 1.363 1_565 S
C473 H444 0.950 1_545 S
C473 C472 1.397 1_545 S
C473 C474 1.334 . S
C474 H445 0.950 . S
C474 C473 1.334 . S
C474 C475 1.287 . S
C475 C474 1.287 . S
C475 C476 1.524 . S
C475 H478 0.999 . S
C476 H446 0.950 . S
C476 C475 1.524 . S
C476 C477 1.415 . S
C477 H447 0.950 . S
C477 C472 1.363 1_545 S
C477 C476 1.415 . S
H478 C475 0.999 . S
H479 C460 0.913 . S
H480 C498 0.951 . S
H481 C500 0.951 . S
H482 C502 0.950 . S
H483 C503 0.950 . S
H484 C505 0.950 . S
H485 C508 0.950 . S
H486 C509 0.950 . S
H487 C511 0.950 . S
H488 C512 0.950 . S
H489 C513 0.951 . S
H490 C515 0.951 . S
H491 C517 0.950 . S
H492 C518 0.950 1_554 S
H493 C520 0.950 . S
H494 C523 0.950 . S
H495 C524 0.950 . S
H496 C526 0.950 . S
H497 C527 0.950 . S
C498 H480 0.951 . S
C498 C499 1.366 . S
C498 C500 1.388 . S
C499 C498 1.366 . S
C499 C503 1.385 . S
C500 H481 0.951 . S
C500 C498 1.388 . S
C500 C501 1.366 . S
C501 C500 1.366 . S
C501 C502 1.414 . S
C501 C504 1.499 . S
C502 H482 0.950 . S
C502 C501 1.414 . S
C502 C503 1.374 . S
C503 H483 0.950 . S
C503 C499 1.385 . S
C503 C502 1.374 . S
C504 C501 1.499 . S
C504 C505 1.373 . S
C504 C506 1.389 . S
C505 H484 0.950 . S
C505 C504 1.373 . S
C505 C521 1.377 . S
C506 C504 1.389 . S
C506 C507 1.524 . S
C506 C520 1.377 . S
C507 C506 1.524 . S
C507 C508 1.397 . S
C507 C512 1.363 . S
C508 H485 0.950 . S
C508 C507 1.397 . S
C508 C509 1.334 . S
C509 H486 0.950 . S
C509 C508 1.334 . S
C509 C510 1.287 . S
C510 C509 1.287 . S
C510 C511 1.524 . S
C510 H529 0.913 . S
C511 H487 0.950 . S
C511 C510 1.524 . S
C511 C512 1.415 . S
C512 H488 0.950 . S
C512 C507 1.363 . S
C512 C511 1.415 . S
C513 H489 0.951 . S
C513 C514 1.366 . S
C513 C515 1.388 . S
C514 C513 1.366 . S
C514 C518 1.385 . S
C515 H490 0.951 . S
C515 C513 1.388 . S
C515 C516 1.366 . S
C516 C515 1.366 . S
C516 C517 1.414 . S
C516 C519 1.499 . S
C517 H491 0.950 . S
C517 C516 1.414 . S
C517 C518 1.374 . S
C518 H492 0.950 1_556 S
C518 C514 1.385 . S
C518 C517 1.374 . S
C519 C516 1.499 . S
C519 C520 1.373 . S
C519 C521 1.389 . S
C520 H493 0.950 . S
C520 C506 1.377 . S
C520 C519 1.373 . S
C521 C505 1.377 . S
C521 C519 1.389 . S
C521 C522 1.524 . S
C522 C521 1.524 . S
C522 C523 1.397 . S
C522 C527 1.363 . S
C523 H494 0.950 . S
C523 C522 1.397 . S
C523 C524 1.334 . S
C524 H495 0.950 . S
C524 C523 1.334 . S
C524 C525 1.287 . S
C525 C524 1.287 . S
C525 C526 1.524 . S
C525 H528 0.999 . S
C526 H496 0.950 . S
C526 C525 1.524 . S
C526 C527 1.415 . S
C527 H497 0.950 . S
C527 C522 1.363 . S
C527 C526 1.415 . S
H528 C525 0.999 . S
H529 C510 0.913 . S
H530 C548 0.951 . S
H531 C550 0.951 . S
H532 C552 0.950 . S
H533 C553 0.950 . S
H534 C555 0.950 . S
H535 C558 0.950 . S
H536 C559 0.950 . S
H537 C561 0.950 . S
H538 C562 0.950 . S
H539 C563 0.951 . S
H540 C565 0.951 . S
H541 C567 0.950 . S
H542 C568 0.950 . S
H543 C570 0.950 . S
H544 C573 0.950 . S
H545 C574 0.950 . S
H546 C576 0.950 . S
H547 C577 0.950 . S
C548 H530 0.951 . S
C548 C549 1.366 . S
C548 C550 1.388 . S
C549 C548 1.366 . S
C549 C553 1.385 . S
C550 H531 0.951 . S
C550 C548 1.388 . S
C550 C551 1.366 . S
C551 C550 1.366 . S
C551 C552 1.414 . S
C551 C554 1.499 . S
C552 H532 0.950 . S
C552 C551 1.414 . S
C552 C553 1.374 . S
C553 H533 0.950 . S
C553 C549 1.385 . S
C553 C552 1.374 . S
C554 C551 1.499 . S
C554 C555 1.373 . S
C554 C556 1.389 . S
C555 H534 0.950 . S
C555 C554 1.373 . S
C555 C571 1.377 . S
C556 C554 1.389 . S
C556 C557 1.524 . S
C556 C570 1.377 . S
C557 C556 1.524 . S
C557 C558 1.397 . S
C557 C562 1.363 . S
C558 H535 0.950 . S
C558 C557 1.397 . S
C558 C559 1.334 . S
C559 H536 0.950 . S
C559 C558 1.334 . S
C559 C560 1.287 . S
C560 C559 1.287 . S
C560 C561 1.524 . S
C560 H579 0.913 . S
C561 H537 0.950 . S
C561 C560 1.524 . S
C561 C562 1.415 . S
C562 H538 0.950 . S
C562 C557 1.363 . S
C562 C561 1.415 . S
C563 H539 0.951 . S
C563 C564 1.366 . S
C563 C565 1.388 . S
C564 C563 1.366 . S
C564 C568 1.385 . S
C565 H540 0.951 . S
C565 C563 1.388 . S
C565 C566 1.366 . S
C566 C565 1.366 . S
C566 C567 1.414 . S
C566 C569 1.499 . S
C567 H541 0.950 . S
C567 C566 1.414 . S
C567 C568 1.374 . S
C568 H542 0.950 . S
C568 C564 1.385 . S
C568 C567 1.374 . S
C569 C566 1.499 . S
C569 C570 1.373 . S
C569 C571 1.389 . S
C570 H543 0.950 . S
C570 C556 1.377 . S
C570 C569 1.373 . S
C571 C555 1.377 . S
C571 C569 1.389 . S
C571 C572 1.524 . S
C572 C571 1.524 . S
C572 C573 1.397 . S
C572 C577 1.363 . S
C573 H544 0.950 . S
C573 C572 1.397 . S
C573 C574 1.334 . S
C574 H545 0.950 . S
C574 C573 1.334 . S
C574 C575 1.287 . S
C575 C574 1.287 . S
C575 C576 1.524 . S
C575 H578 0.999 . S
C576 H546 0.950 . S
C576 C575 1.524 . S
C576 C577 1.415 . S
C577 H547 0.950 . S
C577 C572 1.363 . S
C577 C576 1.415 . S
H578 C575 0.999 . S
H579 C560 0.913 . S
H580 C598 0.951 . S
H581 C600 0.951 . S
H582 C602 0.950 . S
H583 C603 0.950 . S
H584 C605 0.950 . S
H585 C608 0.950 . S
H586 C609 0.950 . S
H587 C611 0.950 . S
H588 C612 0.950 . S
H589 C613 0.951 . S
H590 C615 0.951 . S
H591 C617 0.950 . S
H592 C618 0.950 . S
H593 C620 0.950 . S
H594 C623 0.950 . S
H595 C624 0.950 . S
H596 C626 0.950 1_655 S
H597 C627 0.950 . S
C598 H580 0.951 . S
C598 C599 1.366 . S
C598 C600 1.388 . S
C599 C598 1.366 . S
C599 C603 1.385 . S
C600 H581 0.951 . S
C600 C598 1.388 . S
C600 C601 1.366 . S
C601 C600 1.366 . S
C601 C602 1.414 . S
C601 C604 1.499 . S
C602 H582 0.950 . S
C602 C601 1.414 . S
C602 C603 1.374 . S
C603 H583 0.950 . S
C603 C599 1.385 . S
C603 C602 1.374 . S
C604 C601 1.499 . S
C604 C605 1.373 . S
C604 C606 1.389 . S
C605 H584 0.950 . S
C605 C604 1.373 . S
C605 C621 1.377 . S
C606 C604 1.389 . S
C606 C607 1.524 . S
C606 C620 1.377 . S
C607 C606 1.524 . S
C607 C608 1.397 . S
C607 C612 1.363 . S
C608 H585 0.950 . S
C608 C607 1.397 . S
C608 C609 1.334 . S
C609 H586 0.950 . S
C609 C608 1.334 . S
C609 C610 1.287 . S
C610 C609 1.287 . S
C610 C611 1.524 . S
C610 H629 0.913 . S
C611 H587 0.950 . S
C611 C610 1.524 . S
C611 C612 1.415 . S
C612 H588 0.950 . S
C612 C607 1.363 . S
C612 C611 1.415 . S
C613 H589 0.951 . S
C613 C614 1.366 . S
C613 C615 1.388 . S
C614 C613 1.366 . S
C614 C618 1.385 . S
C615 H590 0.951 . S
C615 C613 1.388 . S
C615 C616 1.366 . S
C616 C615 1.366 . S
C616 C617 1.414 . S
C616 C619 1.499 . S
C617 H591 0.950 . S
C617 C616 1.414 . S
C617 C618 1.374 . S
C618 H592 0.950 . S
C618 C614 1.385 . S
C618 C617 1.374 . S
C619 C616 1.499 . S
C619 C620 1.373 . S
C619 C621 1.389 . S
C620 H593 0.950 . S
C620 C606 1.377 . S
C620 C619 1.373 . S
C621 C605 1.377 . S
C621 C619 1.389 . S
C621 C622 1.524 . S
C622 C621 1.524 . S
C622 C623 1.397 . S
C622 C627 1.363 . S
C623 H594 0.950 . S
C623 C622 1.397 . S
C623 C624 1.334 . S
C624 H595 0.950 . S
C624 C623 1.334 . S
C624 C625 1.287 . S
C625 C624 1.287 . S
C625 C626 1.524 . S
C625 H628 0.999 1_455 S
C626 H596 0.950 1_455 S
C626 C625 1.524 . S
C626 C627 1.415 . S
C627 H597 0.950 . S
C627 C622 1.363 . S
C627 C626 1.415 . S
H628 C625 0.999 1_655 S
H629 C610 0.913 . S
H630 C648 0.951 . S
H631 C650 0.951 . S
H632 C652 0.950 . S
H633 C653 0.950 . S
H634 C655 0.950 . S
H635 C658 0.950 . S
H636 C659 0.950 . S
H637 C661 0.950 . S
H638 C662 0.950 . S
H639 C663 0.951 1_554 S
H640 C665 0.951 . S
H641 C667 0.950 . S
H642 C668 0.950 . S
H643 C670 0.950 . S
H644 C673 0.950 . S
H645 C674 0.950 . S
H646 C676 0.950 . S
H647 C677 0.950 . S
C648 H630 0.951 . S
C648 C649 1.366 . S
C648 C650 1.388 . S
C649 C648 1.366 . S
C649 C653 1.385 . S
C650 H631 0.951 . S
C650 C648 1.388 . S
C650 C651 1.366 . S
C651 C650 1.366 . S
C651 C652 1.414 . S
C651 C654 1.499 . S
C652 H632 0.950 . S
C652 C651 1.414 . S
C652 C653 1.374 . S
C653 H633 0.950 . S
C653 C649 1.385 . S
C653 C652 1.374 . S
C654 C651 1.499 . S
C654 C655 1.373 . S
C654 C656 1.389 . S
C655 H634 0.950 . S
C655 C654 1.373 . S
C655 C671 1.377 . S
C656 C654 1.389 . S
C656 C657 1.524 . S
C656 C670 1.377 . S
C657 C656 1.524 . S
C657 C658 1.397 . S
C657 C662 1.363 . S
C658 H635 0.950 . S
C658 C657 1.397 . S
C658 C659 1.334 . S
C659 H636 0.950 . S
C659 C658 1.334 . S
C659 C660 1.287 . S
C660 C659 1.287 . S
C660 C661 1.524 . S
C660 H679 0.913 . S
C661 H637 0.950 . S
C661 C660 1.524 . S
C661 C662 1.415 . S
C662 H638 0.950 . S
C662 C657 1.363 . S
C662 C661 1.415 . S
C663 H639 0.951 1_556 S
C663 C664 1.366 . S
C663 C665 1.388 . S
C664 C663 1.366 . S
C664 C668 1.385 . S
C665 H640 0.951 . S
C665 C663 1.388 . S
C665 C666 1.366 . S
C666 C665 1.366 . S
C666 C667 1.414 . S
C666 C669 1.499 . S
C667 H641 0.950 . S
C667 C666 1.414 . S
C667 C668 1.374 . S
C668 H642 0.950 . S
C668 C664 1.385 . S
C668 C667 1.374 . S
C669 C666 1.499 . S
C669 C670 1.373 . S
C669 C671 1.389 . S
C670 H643 0.950 . S
C670 C656 1.377 . S
C670 C669 1.373 . S
C671 C655 1.377 . S
C671 C669 1.389 . S
C671 C672 1.524 . S
C672 C671 1.524 . S
C672 C673 1.397 . S
C672 C677 1.363 . S
C673 H644 0.950 . S
C673 C672 1.397 . S
C673 C674 1.334 . S
C674 H645 0.950 . S
C674 C673 1.334 . S
C674 C675 1.287 . S
C675 C674 1.287 . S
C675 C676 1.524 . S
C675 H678 0.999 . S
C676 H646 0.950 . S
C676 C675 1.524 . S
C676 C677 1.415 . S
C677 H647 0.950 . S
C677 C672 1.363 . S
C677 C676 1.415 . S
H678 C675 0.999 . S
H679 C660 0.913 . S
H680 C698 0.951 . S
H681 C700 0.951 . S
H682 C702 0.950 . S
H683 C703 0.950 . S
H684 C705 0.950 . S
H685 C708 0.950 . S
H686 C709 0.950 . S
H687 C711 0.950 . S
H688 C712 0.950 . S
H689 C713 0.951 . S
H690 C715 0.951 . S
H691 C717 0.950 . S
H692 C718 0.950 1_455 S
H693 C720 0.950 . S
H694 C723 0.950 . S
H695 C724 0.950 . S
H696 C726 0.950 . S
H697 C727 0.950 . S
C698 H680 0.951 . S
C698 C699 1.366 . S
C698 C700 1.388 . S
C699 C698 1.366 . S
C699 C703 1.385 . S
C700 H681 0.951 . S
C700 C698 1.388 . S
C700 C701 1.366 . S
C701 C700 1.366 . S
C701 C702 1.414 . S
C701 C704 1.499 . S
C702 H682 0.950 . S
C702 C701 1.414 . S
C702 C703 1.374 . S
C703 H683 0.950 . S
C703 C699 1.385 . S
C703 C702 1.374 . S
C704 C701 1.499 . S
C704 C705 1.373 . S
C704 C706 1.389 . S
C705 H684 0.950 . S
C705 C704 1.373 . S
C705 C721 1.377 . S
C706 C704 1.389 . S
C706 C707 1.524 . S
C706 C720 1.377 . S
C707 C706 1.524 . S
C707 C708 1.397 . S
C707 C712 1.363 . S
C708 H685 0.950 . S
C708 C707 1.397 . S
C708 C709 1.334 . S
C709 H686 0.950 . S
C709 C708 1.334 . S
C709 C710 1.287 . S
C710 C709 1.287 . S
C710 C711 1.524 1_655 S
C710 H729 0.913 . S
C711 H687 0.950 . S
C711 C710 1.524 1_455 S
C711 C712 1.415 1_455 S
C712 H688 0.950 . S
C712 C707 1.363 . S
C712 C711 1.415 1_655 S
C713 H689 0.951 . S
C713 C714 1.366 . S
C713 C715 1.388 . S
C714 C713 1.366 . S
C714 C718 1.385 . S
C715 H690 0.951 . S
C715 C713 1.388 . S
C715 C716 1.366 . S
C716 C715 1.366 . S
C716 C717 1.414 . S
C716 C719 1.499 . S
C717 H691 0.950 . S
C717 C716 1.414 . S
C717 C718 1.374 . S
C718 H692 0.950 1_655 S
C718 C714 1.385 . S
C718 C717 1.374 . S
C719 C716 1.499 . S
C719 C720 1.373 . S
C719 C721 1.389 . S
C720 H693 0.950 . S
C720 C706 1.377 . S
C720 C719 1.373 . S
C721 C705 1.377 . S
C721 C719 1.389 . S
C721 C722 1.524 . S
C722 C721 1.524 . S
C722 C723 1.397 . S
C722 C727 1.363 . S
C723 H694 0.950 . S
C723 C722 1.397 . S
C723 C724 1.334 . S
C724 H695 0.950 . S
C724 C723 1.334 . S
C724 C725 1.287 . S
C725 C724 1.287 . S
C725 C726 1.524 . S
C725 H728 0.999 . S
C726 H696 0.950 . S
C726 C725 1.524 . S
C726 C727 1.415 . S
C727 H697 0.950 . S
C727 C722 1.363 . S
C727 C726 1.415 . S
H728 C725 0.999 . S
H729 C710 0.913 . S
H730 C748 0.951 . S
H731 C750 0.951 . S
H732 C752 0.950 . S
H733 C753 0.950 . S
H734 C755 0.950 . S
H735 C758 0.950 . S
H736 C759 0.950 . S
H737 C761 0.950 . S
H738 C762 0.950 . S
H739 C763 0.951 . S
H740 C765 0.951 . S
H741 C767 0.950 . S
H742 C768 0.950 . S
H743 C770 0.950 . S
H744 C773 0.950 . S
H745 C774 0.950 . S
H746 C776 0.950 . S
H747 C777 0.950 . S
C748 H730 0.951 . S
C748 C749 1.366 . S
C748 C750 1.388 . S
C749 C748 1.366 . S
C749 C753 1.385 . S
C750 H731 0.951 . S
C750 C748 1.388 . S
C750 C751 1.366 . S
C751 C750 1.366 . S
C751 C752 1.414 . S
C751 C754 1.499 . S
C752 H732 0.950 . S
C752 C751 1.414 . S
C752 C753 1.374 . S
C753 H733 0.950 . S
C753 C749 1.385 . S
C753 C752 1.374 . S
C754 C751 1.499 . S
C754 C755 1.373 . S
C754 C756 1.389 . S
C755 H734 0.950 . S
C755 C754 1.373 . S
C755 C771 1.377 . S
C756 C754 1.389 . S
C756 C757 1.524 . S
C756 C770 1.377 . S
C757 C756 1.524 . S
C757 C758 1.397 . S
C757 C762 1.363 . S
C758 H735 0.950 . S
C758 C757 1.397 . S
C758 C759 1.334 . S
C759 H736 0.950 . S
C759 C758 1.334 . S
C759 C760 1.287 . S
C760 C759 1.287 . S
C760 C761 1.524 . S
C760 H779 0.913 . S
C761 H737 0.950 . S
C761 C760 1.524 . S
C761 C762 1.415 . S
C762 H738 0.950 . S
C762 C757 1.363 . S
C762 C761 1.415 . S
C763 H739 0.951 . S
C763 C764 1.366 . S
C763 C765 1.388 . S
C764 C763 1.366 . S
C764 C768 1.385 . S
C765 H740 0.951 . S
C765 C763 1.388 . S
C765 C766 1.366 . S
C766 C765 1.366 . S
C766 C767 1.414 . S
C766 C769 1.499 . S
C767 H741 0.950 . S
C767 C766 1.414 . S
C767 C768 1.374 . S
C768 H742 0.950 . S
C768 C764 1.385 . S
C768 C767 1.374 . S
C769 C766 1.499 . S
C769 C770 1.373 . S
C769 C771 1.389 . S
C770 H743 0.950 . S
C770 C756 1.377 . S
C770 C769 1.373 . S
C771 C755 1.377 . S
C771 C769 1.389 . S
C771 C772 1.524 . S
C772 C771 1.524 . S
C772 C773 1.397 . S
C772 C777 1.363 . S
C773 H744 0.950 . S
C773 C772 1.397 . S
C773 C774 1.334 . S
C774 H745 0.950 . S
C774 C773 1.334 . S
C774 C775 1.287 . S
C775 C774 1.287 . S
C775 C776 1.524 . S
C775 H778 0.999 . S
C776 H746 0.950 . S
C776 C775 1.524 . S
C776 C777 1.415 . S
C777 H747 0.950 . S
C777 C772 1.363 . S
C777 C776 1.415 . S
H778 C775 0.999 . S
H779 C760 0.913 . S
H780 C798 0.951 1_455 S
H781 C800 0.951 1_455 S
H782 C802 0.950 . S
H783 C803 0.950 . S
H784 C805 0.950 . S
H785 C808 0.989 . S
H786 C809 0.950 . S
H787 C811 0.950 . S
H788 C812 0.950 1_565 S
H789 C813 0.951 . S
H790 C815 0.951 . S
H791 C817 0.950 . S
H792 C818 0.950 . S
H793 C820 0.950 1_545 S
H794 C823 0.950 . S
H795 C824 0.950 . S
H796 C826 0.950 . S
H797 C827 0.950 . S
C798 H780 0.951 1_655 S
C798 C799 1.366 . S
C798 C800 1.388 . S
C799 C798 1.366 . S
C799 C803 1.385 . S
C800 H781 0.951 1_655 S
C800 C798 1.388 . S
C800 C801 1.366 . S
C801 C800 1.366 . S
C801 C802 1.414 . S
C801 C804 1.499 . S
C802 H782 0.950 . S
C802 C801 1.414 . S
C802 C803 1.374 . S
C803 H783 0.950 . S
C803 C799 1.385 . S
C803 C802 1.374 . S
C804 C801 1.499 . S
C804 C805 1.373 . S
C804 C806 1.389 1_655 S
C805 H784 0.950 . S
C805 C804 1.373 . S
C805 C821 1.377 . S
C806 C804 1.389 1_455 S
C806 C807 1.524 1_565 S
C806 C820 1.377 . S
C807 C806 1.524 1_545 S
C807 C808 1.397 . S
C807 C812 1.363 . S
C808 H785 0.989 . S
C808 C807 1.397 . S
C808 C809 1.334 . S
C809 H786 0.950 . S
C809 C808 1.334 . S
C809 C810 1.287 . S
C810 C809 1.287 . S
C810 C811 1.524 . S
C810 H829 0.913 . S
C811 H787 0.950 . S
C811 C810 1.524 . S
C811 C812 1.415 . S
C812 H788 0.950 1_545 S
C812 C807 1.363 . S
C812 C811 1.415 . S
C813 H789 0.951 . S
C813 C814 1.366 . S
C813 C815 1.388 . S
C814 C813 1.366 . S
C814 C818 1.385 1_645 S
C815 H790 0.951 . S
C815 C813 1.388 . S
C815 C816 1.366 1_545 S
C816 C815 1.366 1_565 S
C816 C817 1.414 1_655 S
C816 C819 1.499 . S
C817 H791 0.950 . S
C817 C816 1.414 1_455 S
C817 C818 1.374 . S
C818 H792 0.950 . S
C818 C814 1.385 1_465 S
C818 C817 1.374 . S
C819 C816 1.499 . S
C819 C820 1.373 1_655 S
C819 C821 1.389 . S
C820 H793 0.950 1_565 S
C820 C806 1.377 . S
C820 C819 1.373 1_455 S
C821 C805 1.377 . S
C821 C819 1.389 . S
C821 C822 1.524 . S
C822 C821 1.524 . S
C822 C823 1.397 . S
C822 C827 1.363 . S
C823 H794 0.950 . S
C823 C822 1.397 . S
C823 C824 1.334 . S
C824 H795 0.950 . S
C824 C823 1.334 . S
C824 C825 1.287 . S
C825 C824 1.287 . S
C825 C826 1.524 . S
C825 H828 0.999 . S
C826 H796 0.950 . S
C826 C825 1.524 . S
C826 C827 1.415 . S
C827 H797 0.950 . S
C827 C822 1.363 . S
C827 C826 1.415 . S
H828 C825 0.999 . S
H829 C810 0.913 . S
H830 C848 0.951 . S
H831 C850 0.951 . S
H832 C852 0.950 . S
H833 C853 0.950 . S
H834 C855 0.950 . S
H835 C858 0.950 . S
H836 C859 0.950 . S
H837 C861 0.950 . S
H838 C862 0.950 . S
H839 C863 0.951 . S
H840 C865 0.951 . S
H841 C867 0.950 . S
H842 C868 0.950 . S
H843 C870 0.950 . S
H844 C873 0.950 . S
H845 C874 0.950 . S
H846 C876 0.950 . S
H847 C877 0.950 . S
C848 H830 0.951 . S
C848 C849 1.366 . S
C848 C850 1.388 . S
C849 C848 1.366 . S
C849 C853 1.385 . S
C850 H831 0.951 . S
C850 C848 1.388 . S
C850 C851 1.366 . S
C851 C850 1.366 . S
C851 C852 1.414 . S
C851 C854 1.499 . S
C852 H832 0.950 . S
C852 C851 1.414 . S
C852 C853 1.374 . S
C853 H833 0.950 . S
C853 C849 1.385 . S
C853 C852 1.374 . S
C854 C851 1.499 . S
C854 C855 1.373 . S
C854 C856 1.389 . S
C855 H834 0.950 . S
C855 C854 1.373 . S
C855 C871 1.377 . S
C856 C854 1.389 . S
C856 C857 1.524 . S
C856 C870 1.377 . S
C857 C856 1.524 . S
C857 C858 1.397 . S
C857 C862 1.363 . S
C858 H835 0.950 . S
C858 C857 1.397 . S
C858 C859 1.334 1_545 S
C859 H836 0.950 . S
C859 C858 1.334 1_565 S
C859 C860 1.287 . S
C860 C859 1.287 . S
C860 C861 1.524 1_565 S
C860 H879 0.913 . S
C861 H837 0.950 . S
C861 C860 1.524 1_545 S
C861 C862 1.415 . S
C862 H838 0.950 . S
C862 C857 1.363 . S
C862 C861 1.415 . S
C863 H839 0.951 . S
C863 C864 1.366 . S
C863 C865 1.388 . S
C864 C863 1.366 . S
C864 C868 1.385 . S
C865 H840 0.951 . S
C865 C863 1.388 . S
C865 C866 1.366 . S
C866 C865 1.366 . S
C866 C867 1.414 . S
C866 C869 1.499 . S
C867 H841 0.950 . S
C867 C866 1.414 . S
C867 C868 1.374 . S
C868 H842 0.950 . S
C868 C864 1.385 . S
C868 C867 1.374 . S
C869 C866 1.499 . S
C869 C870 1.373 . S
C869 C871 1.389 . S
C870 H843 0.950 . S
C870 C856 1.377 . S
C870 C869 1.373 . S
C871 C855 1.377 . S
C871 C869 1.389 . S
C871 C872 1.524 . S
C872 C871 1.524 . S
C872 C873 1.397 . S
C872 C877 1.363 . S
C873 H844 0.950 . S
C873 C872 1.397 . S
C873 C874 1.334 . S
C874 H845 0.950 . S
C874 C873 1.334 . S
C874 C875 1.287 . S
C875 C874 1.287 . S
C875 C876 1.524 . S
C875 H878 0.999 . S
C876 H846 0.950 . S
C876 C875 1.524 . S
C876 C877 1.415 . S
C877 H847 0.950 . S
C877 C872 1.363 . S
C877 C876 1.415 . S
H878 C875 0.999 . S
H879 C860 0.913 . S
H880 C898 0.951 . S
H881 C900 0.951 . S
H882 C902 0.950 . S
H883 C903 0.950 . S
H884 C905 0.950 . S
H885 C908 0.950 . S
H886 C909 0.950 . S
H887 C911 0.950 . S
H888 C912 0.950 . S
H889 C913 0.951 . S
H890 C915 0.951 . S
H891 C917 0.950 . S
H892 C918 0.950 . S
H893 C920 0.950 . S
H894 C923 0.950 . S
H895 C924 0.950 . S
H896 C926 0.950 . S
H897 C927 0.950 . S
C898 H880 0.951 . S
C898 C899 1.366 . S
C898 C900 1.388 . S
C899 C898 1.366 . S
C899 C903 1.385 . S
C900 H881 0.951 . S
C900 C898 1.388 . S
C900 C901 1.366 . S
C901 C900 1.366 . S
C901 C902 1.414 . S
C901 C904 1.499 . S
C902 H882 0.950 . S
C902 C901 1.414 . S
C902 C903 1.374 . S
C903 H883 0.950 . S
C903 C899 1.385 . S
C903 C902 1.374 . S
C904 C901 1.499 . S
C904 C905 1.373 . S
C904 C906 1.389 . S
C905 H884 0.950 . S
C905 C904 1.373 . S
C905 C921 1.377 . S
C906 C904 1.389 . S
C906 C907 1.524 . S
C906 C920 1.377 . S
C907 C906 1.524 . S
C907 C908 1.397 . S
C907 C912 1.363 . S
C908 H885 0.950 . S
C908 C907 1.397 . S
C908 C909 1.334 . S
C909 H886 0.950 . S
C909 C908 1.334 . S
C909 C910 1.287 . S
C910 C909 1.287 . S
C910 C911 1.524 . S
C910 H929 0.913 . S
C911 H887 0.950 . S
C911 C910 1.524 . S
C911 C912 1.415 . S
C912 H888 0.950 . S
C912 C907 1.363 . S
C912 C911 1.415 . S
C913 H889 0.951 . S
C913 C914 1.366 . S
C913 C915 1.388 . S
C914 C913 1.366 . S
C914 C918 1.385 . S
C915 H890 0.951 . S
C915 C913 1.388 . S
C915 C916 1.366 . S
C916 C915 1.366 . S
C916 C917 1.414 . S
C916 C919 1.499 . S
C917 H891 0.950 . S
C917 C916 1.414 . S
C917 C918 1.374 . S
C918 H892 0.950 . S
C918 C914 1.385 . S
C918 C917 1.374 . S
C919 C916 1.499 . S
C919 C920 1.373 . S
C919 C921 1.389 . S
C920 H893 0.950 . S
C920 C906 1.377 . S
C920 C919 1.373 . S
C921 C905 1.377 . S
C921 C919 1.389 . S
C921 C922 1.524 . S
C922 C921 1.524 . S
C922 C923 1.397 . S
C922 C927 1.363 . S
C923 H894 0.950 . S
C923 C922 1.397 . S
C923 C924 1.334 . S
C924 H895 0.950 . S
C924 C923 1.334 . S
C924 C925 1.287 . S
C925 C924 1.287 . S
C925 C926 1.524 . S
C925 H928 0.999 . S
C926 H896 0.950 . S
C926 C925 1.524 . S
C926 C927 1.415 . S
C927 H897 0.950 . S
C927 C922 1.363 . S
C927 C926 1.415 . S
H928 C925 0.999 . S
H929 C910 0.913 . S
H930 C948 0.951 . S
H931 C950 0.951 . S
H932 C952 0.950 . S
H933 C953 0.950 . S
H934 C955 0.950 . S
H935 C958 0.950 . S
H936 C959 0.950 1_655 S
H937 C961 0.950 . S
H938 C962 0.950 . S
H939 C963 0.951 . S
H940 C965 0.951 . S
H941 C967 0.950 . S
H942 C968 0.950 . S
H943 C970 0.950 . S
H944 C973 0.950 . S
H945 C974 0.950 . S
H946 C976 0.950 . S
H947 C977 0.950 . S
C948 H930 0.951 . S
C948 C949 1.366 . S
C948 C950 1.388 . S
C949 C948 1.366 . S
C949 C953 1.385 . S
C950 H931 0.951 . S
C950 C948 1.388 . S
C950 C951 1.366 . S
C951 C950 1.366 . S
C951 C952 1.414 . S
C951 C954 1.499 . S
C952 H932 0.950 . S
C952 C951 1.414 . S
C952 C953 1.374 . S
C953 H933 0.950 . S
C953 C949 1.385 . S
C953 C952 1.374 . S
C954 C951 1.499 . S
C954 C955 1.373 . S
C954 C956 1.389 . S
C955 H934 0.950 . S
C955 C954 1.373 . S
C955 C971 1.377 . S
C956 C954 1.389 . S
C956 C957 1.524 . S
C956 C970 1.377 . S
C957 C956 1.524 . S
C957 C958 1.397 . S
C957 C962 1.363 . S
C958 H935 0.950 . S
C958 C957 1.397 . S
C958 C959 1.334 . S
C959 H936 0.950 1_455 S
C959 C958 1.334 . S
C959 C960 1.286 . S
C960 C959 1.286 . S
C960 C961 1.526 . S
C960 H979 0.911 1_455 S
C961 H937 0.950 . S
C961 C960 1.526 . S
C961 C962 1.415 . S
C962 H938 0.950 . S
C962 C957 1.363 . S
C962 C961 1.415 . S
C963 H939 0.951 . S
C963 C964 1.366 . S
C963 C965 1.388 . S
C964 C963 1.366 . S
C964 C968 1.385 . S
C965 H940 0.951 . S
C965 C963 1.388 . S
C965 C966 1.366 . S
C966 C965 1.366 . S
C966 C967 1.414 . S
C966 C969 1.499 . S
C967 H941 0.950 . S
C967 C966 1.414 . S
C967 C968 1.374 . S
C968 H942 0.950 . S
C968 C964 1.385 . S
C968 C967 1.374 . S
C969 C966 1.499 . S
C969 C970 1.373 . S
C969 C971 1.389 . S
C970 H943 0.950 . S
C970 C956 1.377 . S
C970 C969 1.373 . S
C971 C955 1.377 . S
C971 C969 1.389 . S
C971 C972 1.524 . S
C972 C971 1.524 . S
C972 C973 1.397 . S
C972 C977 1.363 . S
C973 H944 0.950 . S
C973 C972 1.397 . S
C973 C974 1.334 . S
C974 H945 0.950 . S
C974 C973 1.334 . S
C974 C975 1.287 . S
C975 C974 1.287 . S
C975 C976 1.524 . S
C975 H978 0.999 . S
C976 H946 0.950 . S
C976 C975 1.524 . S
C976 C977 1.415 . S
C977 H947 0.950 . S
C977 C972 1.363 . S
C977 C976 1.415 . S
H978 C975 0.999 . S
H979 C960 0.911 1_655 S
H980 C998 0.951 . S
H981 C1000 0.951 . S
H982 C1002 0.950 . S
H983 C1003 0.950 1_545 S
H984 C1005 0.952 1_554 S
H985 C1008 0.950 . S
H986 C1009 0.950 . S
H987 C1011 0.950 . S
H988 C1012 0.950 . S
H989 C1013 0.951 . S
H990 C1015 0.951 . S
H991 C1017 0.950 . S
H992 C1018 0.950 . S
H993 C1020 0.950 . S
H994 C1023 0.933 1_565 S
H995 C1024 0.950 . S
H996 C1026 0.950 . S
H997 C1027 0.950 . S
C998 H980 0.951 . S
C998 C999 1.366 . S
C998 C1000 1.388 . S
C999 C998 1.366 . S
C999 C1003 1.385 . S
C1000 H981 0.951 . S
C1000 C998 1.388 . S
C1000 C1001 1.366 . S
C1001 C1000 1.366 . S
C1001 C1002 1.414 1_565 S
C1001 C1004 1.499 . S
C1002 H982 0.950 . S
C1002 C1001 1.414 1_545 S
C1002 C1003 1.374 1_545 S
C1003 H983 0.950 1_565 S
C1003 C999 1.385 . S
C1003 C1002 1.374 1_565 S
C1004 C1001 1.499 . S
C1004 C1005 1.373 1_565 S
C1004 C1006 1.389 . S
C1005 H984 0.952 1_556 S
C1005 C1004 1.373 1_545 S
C1005 C1021 1.377 1_556 S
C1006 C1004 1.389 . S
C1006 C1007 1.524 . S
C1006 C1020 1.377 . S
C1007 C1006 1.524 . S
C1007 C1008 1.397 . S
C1007 C1012 1.363 . S
C1008 H985 0.950 . S
C1008 C1007 1.397 . S
C1008 C1009 1.334 . S
C1009 H986 0.950 . S
C1009 C1008 1.334 . S
C1009 C1010 1.287 . S
C1010 C1009 1.287 . S
C1010 C1011 1.524 . S
C1010 H1029 0.913 . S
C1011 H987 0.950 . S
C1011 C1010 1.524 . S
C1011 C1012 1.415 . S
C1012 H988 0.950 . S
C1012 C1007 1.363 . S
C1012 C1011 1.415 . S
C1013 H989 0.951 . S
C1013 C1014 1.366 1_545 S
C1013 C1015 1.388 1_554 S
C1014 C1013 1.366 1_565 S
C1014 C1018 1.385 . S
C1015 H990 0.951 . S
C1015 C1013 1.388 1_556 S
C1015 C1016 1.366 1_545 S
C1016 C1015 1.366 1_565 S
C1016 C1017 1.414 1_556 S
C1016 C1019 1.499 . S
C1017 H991 0.950 . S
C1017 C1016 1.414 1_554 S
C1017 C1018 1.374 . S
C1018 H992 0.950 . S
C1018 C1014 1.385 . S
C1018 C1017 1.374 . S
C1019 C1016 1.499 . S
C1019 C1020 1.373 . S
C1019 C1021 1.389 1_566 S
C1020 H993 0.950 . S
C1020 C1006 1.377 . S
C1020 C1019 1.373 . S
C1021 C1005 1.377 1_554 S
C1021 C1019 1.389 1_544 S
C1021 C1022 1.524 . S
C1022 C1021 1.524 . S
C1022 C1023 1.397 . S
C1022 C1027 1.363 . S
C1023 H994 0.933 1_545 S
C1023 C1022 1.397 . S
C1023 C1024 1.334 . S
C1024 H995 0.950 . S
C1024 C1023 1.334 . S
C1024 C1025 1.287 . S
C1025 C1024 1.287 . S
C1025 C1026 1.524 . S
C1025 H1028 0.999 . S
C1026 H996 0.950 . S
C1026 C1025 1.524 . S
C1026 C1027 1.415 . S
C1027 H997 0.950 . S
C1027 C1022 1.363 . S
C1027 C1026 1.415 . S
H1028 C1025 0.999 . S
H1029 C1010 0.913 . S
H1030 C1048 0.951 . S
H1031 C1050 0.951 . S
H1032 C1052 0.950 . S
H1033 C1053 0.950 . S
H1034 C1055 0.950 . S
H1035 C1058 0.950 . S
H1036 C1059 0.950 . S
H1037 C1061 0.950 . S
H1038 C1062 0.950 . S
H1039 C1063 0.951 1_565 S
H1040 C1065 0.951 1_565 S
H1041 C1067 0.950 . S
H1042 C1068 0.950 . S
H1043 C1070 0.950 . S
H1044 C1073 0.950 . S
H1045 C1074 0.950 1_545 S
H1046 C1076 0.950 . S
H1047 C1077 0.950 . S
C1048 H1030 0.951 . S
C1048 C1049 1.366 . S
C1048 C1050 1.388 . S
C1049 C1048 1.366 . S
C1049 C1053 1.385 . S
C1050 H1031 0.951 . S
C1050 C1048 1.388 . S
C1050 C1051 1.366 . S
C1051 C1050 1.366 . S
C1051 C1052 1.414 . S
C1051 C1054 1.499 . S
C1052 H1032 0.950 . S
C1052 C1051 1.414 . S
C1052 C1053 1.374 . S
C1053 H1033 0.950 . S
C1053 C1049 1.385 . S
C1053 C1052 1.374 . S
C1054 C1051 1.499 . S
C1054 C1055 1.373 . S
C1054 C1056 1.389 . S
C1055 H1034 0.950 . S
C1055 C1054 1.373 . S
C1055 C1071 1.377 . S
C1056 C1054 1.389 . S
C1056 C1057 1.524 . S
C1056 C1070 1.377 . S
C1057 C1056 1.524 . S
C1057 C1058 1.397 . S
C1057 C1062 1.363 . S
C1058 H1035 0.950 . S
C1058 C1057 1.397 . S
C1058 C1059 1.334 . S
C1059 H1036 0.950 . S
C1059 C1058 1.334 . S
C1059 C1060 1.287 . S
C1060 C1059 1.287 . S
C1060 C1061 1.524 . S
C1060 H1079 0.913 . S
C1061 H1037 0.950 . S
C1061 C1060 1.524 . S
C1061 C1062 1.415 . S
C1062 H1038 0.950 . S
C1062 C1057 1.363 . S
C1062 C1061 1.415 . S
C1063 H1039 0.951 1_545 S
C1063 C1064 1.366 . S
C1063 C1065 1.388 . S
C1064 C1063 1.366 . S
C1064 C1068 1.385 . S
C1065 H1040 0.951 1_545 S
C1065 C1063 1.388 . S
C1065 C1066 1.366 . S
C1066 C1065 1.366 . S
C1066 C1067 1.414 . S
C1066 C1069 1.499 . S
C1067 H1041 0.950 . S
C1067 C1066 1.414 . S
C1067 C1068 1.374 . S
C1068 H1042 0.950 . S
C1068 C1064 1.385 . S
C1068 C1067 1.374 . S
C1069 C1066 1.499 . S
C1069 C1070 1.373 . S
C1069 C1071 1.389 . S
C1070 H1043 0.950 . S
C1070 C1056 1.377 . S
C1070 C1069 1.373 . S
C1071 C1055 1.377 . S
C1071 C1069 1.389 . S
C1071 C1072 1.524 . S
C1072 C1071 1.524 . S
C1072 C1073 1.397 . S
C1072 C1077 1.363 1_545 S
C1073 H1044 0.950 . S
C1073 C1072 1.397 . S
C1073 C1074 1.334 1_545 S
C1074 H1045 0.950 1_565 S
C1074 C1073 1.334 1_565 S
C1074 C1075 1.287 . S
C1075 C1074 1.287 . S
C1075 C1076 1.524 . S
C1075 H1078 0.999 . S
C1076 H1046 0.950 . S
C1076 C1075 1.524 . S
C1076 C1077 1.415 . S
C1077 H1047 0.950 . S
C1077 C1072 1.363 1_565 S
C1077 C1076 1.415 . S
H1078 C1075 0.999 . S
H1079 C1060 0.913 . S
H1080 C1098 0.951 . S
H1081 C1100 0.951 . S
H1082 C1102 0.950 . S
H1083 C1103 0.950 . S
H1084 C1105 0.950 . S
H1085 C1108 0.950 . S
H1086 C1109 0.950 . S
H1087 C1111 0.950 . S
H1088 C1112 0.950 . S
H1089 C1113 0.951 . S
H1090 C1115 0.951 . S
H1091 C1117 0.950 . S
H1092 C1118 0.950 1_556 S
H1093 C1120 0.950 . S
H1094 C1123 0.950 . S
H1095 C1124 0.950 . S
H1096 C1126 0.950 . S
H1097 C1127 0.950 . S
C1098 H1080 0.951 . S
C1098 C1099 1.366 . S
C1098 C1100 1.388 . S
C1099 C1098 1.366 . S
C1099 C1103 1.385 . S
C1100 H1081 0.951 . S
C1100 C1098 1.388 . S
C1100 C1101 1.366 . S
C1101 C1100 1.366 . S
C1101 C1102 1.414 . S
C1101 C1104 1.499 . S
C1102 H1082 0.950 . S
C1102 C1101 1.414 . S
C1102 C1103 1.374 . S
C1103 H1083 0.950 . S
C1103 C1099 1.385 . S
C1103 C1102 1.374 . S
C1104 C1101 1.499 . S
C1104 C1105 1.373 . S
C1104 C1106 1.389 . S
C1105 H1084 0.950 . S
C1105 C1104 1.373 . S
C1105 C1121 1.377 . S
C1106 C1104 1.389 . S
C1106 C1107 1.524 . S
C1106 C1120 1.377 . S
C1107 C1106 1.524 . S
C1107 C1108 1.397 . S
C1107 C1112 1.363 1_554 S
C1108 H1085 0.950 . S
C1108 C1107 1.397 . S
C1108 C1109 1.334 1_554 S
C1109 H1086 0.950 . S
C1109 C1108 1.334 1_556 S
C1109 C1110 1.287 . S
C1110 C1109 1.287 . S
C1110 C1111 1.524 . S
C1110 H1129 0.913 . S
C1111 H1087 0.950 . S
C1111 C1110 1.524 . S
C1111 C1112 1.415 . S
C1112 H1088 0.950 . S
C1112 C1107 1.363 1_556 S
C1112 C1111 1.415 . S
C1113 H1089 0.951 . S
C1113 C1114 1.366 . S
C1113 C1115 1.388 . S
C1114 C1113 1.366 . S
C1114 C1118 1.385 . S
C1115 H1090 0.951 . S
C1115 C1113 1.388 . S
C1115 C1116 1.366 . S
C1116 C1115 1.366 . S
C1116 C1117 1.414 . S
C1116 C1119 1.499 . S
C1117 H1091 0.950 . S
C1117 C1116 1.414 . S
C1117 C1118 1.374 . S
C1118 H1092 0.950 1_554 S
C1118 C1114 1.385 . S
C1118 C1117 1.374 . S
C1119 C1116 1.499 . S
C1119 C1120 1.373 . S
C1119 C1121 1.389 . S
C1120 H1093 0.950 . S
C1120 C1106 1.377 . S
C1120 C1119 1.373 . S
C1121 C1105 1.377 . S
C1121 C1119 1.389 . S
C1121 C1122 1.524 . S
C1122 C1121 1.524 . S
C1122 C1123 1.397 . S
C1122 C1127 1.363 . S
C1123 H1094 0.950 . S
C1123 C1122 1.397 . S
C1123 C1124 1.334 . S
C1124 H1095 0.950 . S
C1124 C1123 1.334 . S
C1124 C1125 1.287 . S
C1125 C1124 1.287 . S
C1125 C1126 1.524 . S
C1125 H1128 0.999 . S
C1126 H1096 0.950 . S
C1126 C1125 1.524 . S
C1126 C1127 1.415 . S
C1127 H1097 0.950 . S
C1127 C1122 1.363 . S
C1127 C1126 1.415 . S
H1128 C1125 0.999 . S
H1129 C1110 0.913 . S
H1130 C1148 0.951 . S
H1131 C1150 0.951 . S
H1132 C1152 0.950 . S
H1133 C1153 0.950 . S
H1134 C1155 0.950 . S
H1135 C1158 0.950 . S
H1136 C1159 0.950 . S
H1137 C1161 0.950 . S
H1138 C1162 0.950 . S
H1139 C1163 0.951 . S
H1140 C1165 0.951 . S
H1141 C1167 0.950 . S
H1142 C1168 0.950 . S
H1143 C1170 0.950 . S
H1144 C1173 0.950 . S
H1145 C1174 0.950 . S
H1146 C1176 0.950 . S
H1147 C1177 0.950 . S
C1148 H1130 0.951 . S
C1148 C1149 1.366 . S
C1148 C1150 1.388 . S
C1149 C1148 1.366 . S
C1149 C1153 1.385 . S
C1150 H1131 0.951 . S
C1150 C1148 1.388 . S
C1150 C1151 1.366 . S
C1151 C1150 1.366 . S
C1151 C1152 1.414 . S
C1151 C1154 1.499 . S
C1152 H1132 0.950 . S
C1152 C1151 1.414 . S
C1152 C1153 1.374 . S
C1153 H1133 0.950 . S
C1153 C1149 1.385 . S
C1153 C1152 1.374 . S
C1154 C1151 1.499 . S
C1154 C1155 1.373 . S
C1154 C1156 1.389 . S
C1155 H1134 0.950 . S
C1155 C1154 1.373 . S
C1155 C1171 1.377 . S
C1156 C1154 1.389 . S
C1156 C1157 1.524 . S
C1156 C1170 1.377 . S
C1157 C1156 1.524 . S
C1157 C1158 1.397 . S
C1157 C1162 1.363 . S
C1158 H1135 0.950 . S
C1158 C1157 1.397 . S
C1158 C1159 1.334 . S
C1159 H1136 0.950 . S
C1159 C1158 1.334 . S
C1159 C1160 1.287 . S
C1160 C1159 1.287 . S
C1160 C1161 1.524 . S
C1160 H1179 0.913 . S
C1161 H1137 0.950 . S
C1161 C1160 1.524 . S
C1161 C1162 1.415 . S
C1162 H1138 0.950 . S
C1162 C1157 1.363 . S
C1162 C1161 1.415 . S
C1163 H1139 0.951 . S
C1163 C1164 1.366 . S
C1163 C1165 1.388 . S
C1164 C1163 1.366 . S
C1164 C1168 1.385 . S
C1165 H1140 0.951 . S
C1165 C1163 1.388 . S
C1165 C1166 1.366 . S
C1166 C1165 1.366 . S
C1166 C1167 1.414 . S
C1166 C1169 1.499 . S
C1167 H1141 0.950 . S
C1167 C1166 1.414 . S
C1167 C1168 1.374 . S
C1168 H1142 0.950 . S
C1168 C1164 1.385 . S
C1168 C1167 1.374 . S
C1169 C1166 1.499 . S
C1169 C1170 1.373 . S
C1169 C1171 1.389 . S
C1170 H1143 0.950 . S
C1170 C1156 1.377 . S
C1170 C1169 1.373 . S
C1171 C1155 1.377 . S
C1171 C1169 1.389 . S
C1171 C1172 1.524 . S
C1172 C1171 1.524 . S
C1172 C1173 1.397 . S
C1172 C1177 1.363 . S
C1173 H1144 0.950 . S
C1173 C1172 1.397 . S
C1173 C1174 1.334 . S
C1174 H1145 0.950 . S
C1174 C1173 1.334 . S
C1174 C1175 1.287 . S
C1175 C1174 1.287 . S
C1175 C1176 1.524 . S
C1175 H1178 0.999 . S
C1176 H1146 0.950 . S
C1176 C1175 1.524 . S
C1176 C1177 1.415 . S
C1177 H1147 0.950 . S
C1177 C1172 1.363 . S
C1177 C1176 1.415 . S
H1178 C1175 0.999 . S
H1179 C1160 0.913 . S
H1180 C1198 0.951 1_554 S
H1181 C1200 0.951 1_554 S
H1182 C1202 0.950 . S
H1183 C1203 0.950 . S
H1184 C1205 0.950 . S
H1185 C1208 0.950 . S
H1186 C1209 0.950 1_556 S
H1187 C1211 0.950 . S
H1188 C1212 0.950 . S
H1189 C1213 0.951 . S
H1190 C1215 0.951 . S
H1191 C1217 0.950 . S
H1192 C1218 0.950 . S
H1193 C1220 0.950 1_554 S
H1194 C1223 0.950 . S
H1195 C1224 0.950 . S
H1196 C1226 0.950 . S
H1197 C1227 0.950 . S
C1198 H1180 0.951 1_556 S
C1198 C1199 1.366 . S
C1198 C1200 1.388 . S
C1199 C1198 1.366 . S
C1199 C1203 1.385 . S
C1200 H1181 0.951 1_556 S
C1200 C1198 1.388 . S
C1200 C1201 1.366 1_655 S
C1201 C1200 1.366 1_455 S
C1201 C1202 1.414 . S
C1201 C1204 1.499 . S
C1202 H1182 0.950 . S
C1202 C1201 1.414 . S
C1202 C1203 1.374 1_455 S
C1203 H1183 0.950 . S
C1203 C1199 1.385 . S
C1203 C1202 1.374 1_655 S
C1204 C1201 1.499 . S
C1204 C1205 1.373 1_455 S
C1204 C1206 1.389 . S
C1205 H1184 0.950 . S
C1205 C1204 1.373 1_655 S
C1205 C1221 1.380 . S
C1206 C1204 1.389 . S
C1206 C1207 1.524 1_556 S
C1206 C1220 1.377 . S
C1207 C1206 1.524 1_554 S
C1207 C1208 1.397 1_554 S
C1207 C1212 1.363 . S
C1208 H1185 0.950 . S
C1208 C1207 1.397 1_556 S
C1208 C1209 1.334 1_556 S
C1209 H1186 0.950 1_554 S
C1209 C1208 1.334 1_554 S
C1209 C1210 1.287 . S
C1210 C1209 1.287 . S
C1210 C1211 1.524 . S
C1210 H1229 0.913 . S
C1211 H1187 0.950 . S
C1211 C1210 1.524 . S
C1211 C1212 1.415 . S
C1212 H1188 0.950 . S
C1212 C1207 1.363 . S
C1212 C1211 1.415 . S
C1213 H1189 0.951 . S
C1213 C1214 1.366 . S
C1213 C1215 1.388 . S
C1214 C1213 1.366 . S
C1214 C1218 1.385 1_556 S
C1215 H1190 0.951 . S
C1215 C1213 1.388 . S
C1215 C1216 1.366 . S
C1216 C1215 1.366 . S
C1216 C1217 1.414 1_556 S
C1216 C1219 1.499 . S
C1217 H1191 0.950 . S
C1217 C1216 1.414 1_554 S
C1217 C1218 1.374 . S
C1218 H1192 0.950 . S
C1218 C1214 1.385 1_554 S
C1218 C1217 1.374 . S
C1219 C1216 1.499 . S
C1219 C1220 1.373 . S
C1219 C1221 1.380 1_455 S
C1220 H1193 0.950 1_556 S
C1220 C1206 1.377 . S
C1220 C1219 1.373 . S
C1221 C1205 1.380 . S
C1221 C1219 1.380 1_655 S
C1221 C1222 1.531 . S
C1222 C1221 1.531 . S
C1222 C1223 1.397 . S
C1222 C1227 1.363 . S
C1223 H1194 0.950 . S
C1223 C1222 1.397 . S
C1223 C1224 1.334 . S
C1224 H1195 0.950 . S
C1224 C1223 1.334 . S
C1224 C1225 1.287 . S
C1225 C1224 1.287 . S
C1225 C1226 1.524 . S
C1225 H1228 0.999 . S
C1226 H1196 0.950 . S
C1226 C1225 1.524 . S
C1226 C1227 1.415 . S
C1227 H1197 0.950 . S
C1227 C1222 1.363 . S
C1227 C1226 1.415 . S
H1228 C1225 0.999 . S
H1229 C1210 0.913 . S
H1230 C1248 0.951 . S
H1231 C1250 0.951 . S
H1232 C1252 0.950 . S
H1233 C1253 0.950 . S
H1234 C1255 0.950 . S
H1235 C1258 0.950 . S
H1236 C1259 0.950 . S
H1237 C1261 0.950 1_556 S
H1238 C1262 0.950 . S
H1239 C1263 0.951 . S
H1240 C1265 0.951 . S
H1241 C1267 0.950 . S
H1242 C1268 0.950 . S
H1243 C1270 0.950 . S
H1244 C1273 0.950 . S
H1245 C1274 0.950 . S
H1246 C1276 0.950 . S
H1247 C1277 0.950 . S
C1248 H1230 0.951 . S
C1248 C1249 1.366 . S
C1248 C1250 1.388 . S
C1249 C1248 1.366 . S
C1249 C1253 1.385 . S
C1250 H1231 0.951 . S
C1250 C1248 1.388 . S
C1250 C1251 1.366 . S
C1251 C1250 1.366 . S
C1251 C1252 1.414 . S
C1251 C1254 1.499 . S
C1252 H1232 0.950 . S
C1252 C1251 1.414 . S
C1252 C1253 1.374 . S
C1253 H1233 0.950 . S
C1253 C1249 1.385 . S
C1253 C1252 1.374 . S
C1254 C1251 1.499 . S
C1254 C1255 1.373 . S
C1254 C1256 1.389 . S
C1255 H1234 0.950 . S
C1255 C1254 1.373 . S
C1255 C1271 1.377 . S
C1256 C1254 1.389 . S
C1256 C1257 1.524 . S
C1256 C1270 1.377 . S
C1257 C1256 1.524 . S
C1257 C1258 1.397 . S
C1257 C1262 1.363 . S
C1258 H1235 0.950 . S
C1258 C1257 1.397 . S
C1258 C1259 1.334 . S
C1259 H1236 0.950 . S
C1259 C1258 1.334 . S
C1259 C1260 1.287 . S
C1260 C1259 1.287 . S
C1260 C1261 1.524 . S
C1260 H1279 0.913 . S
C1261 H1237 0.950 1_554 S
C1261 C1260 1.524 . S
C1261 C1262 1.415 . S
C1262 H1238 0.950 . S
C1262 C1257 1.363 . S
C1262 C1261 1.415 . S
C1263 H1239 0.951 . S
C1263 C1264 1.366 . S
C1263 C1265 1.388 . S
C1264 C1263 1.366 . S
C1264 C1268 1.385 . S
C1265 H1240 0.951 . S
C1265 C1263 1.388 . S
C1265 C1266 1.366 . S
C1266 C1265 1.366 . S
C1266 C1267 1.414 . S
C1266 C1269 1.499 . S
C1267 H1241 0.950 . S
C1267 C1266 1.414 . S
C1267 C1268 1.374 . S
C1268 H1242 0.950 . S
C1268 C1264 1.385 . S
C1268 C1267 1.374 . S
C1269 C1266 1.499 . S
C1269 C1270 1.373 . S
C1269 C1271 1.389 . S
C1270 H1243 0.950 . S
C1270 C1256 1.377 . S
C1270 C1269 1.373 . S
C1271 C1255 1.377 . S
C1271 C1269 1.389 . S
C1271 C1272 1.524 . S
C1272 C1271 1.524 . S
C1272 C1273 1.397 . S
C1272 C1277 1.363 . S
C1273 H1244 0.950 . S
C1273 C1272 1.397 . S
C1273 C1274 1.334 . S
C1274 H1245 0.950 . S
C1274 C1273 1.334 . S
C1274 C1275 1.287 . S
C1275 C1274 1.287 . S
C1275 C1276 1.524 . S
C1275 H1278 0.999 . S
C1276 H1246 0.950 . S
C1276 C1275 1.524 . S
C1276 C1277 1.415 . S
C1277 H1247 0.950 . S
C1277 C1272 1.363 . S
C1277 C1276 1.415 . S
H1278 C1275 0.999 . S
H1279 C1260 0.913 . S
H1280 C1298 0.951 . S
H1281 C1300 0.951 . S
H1282 C1302 0.950 . S
H1283 C1303 0.950 . S
H1284 C1305 0.950 . S
H1285 C1308 0.950 . S
H1286 C1309 0.950 . S
H1287 C1311 0.950 . S
H1288 C1312 0.950 . S
H1289 C1313 0.951 . S
H1290 C1315 0.951 . S
H1291 C1317 0.950 . S
H1292 C1318 0.950 . S
H1293 C1320 0.950 . S
H1294 C1323 0.950 . S
H1295 C1324 0.950 . S
H1296 C1326 0.950 . S
H1297 C1327 0.950 . S
C1298 H1280 0.951 . S
C1298 C1299 1.366 . S
C1298 C1300 1.388 . S
C1299 C1298 1.366 . S
C1299 C1303 1.385 . S
C1300 H1281 0.951 . S
C1300 C1298 1.388 . S
C1300 C1301 1.366 . S
C1301 C1300 1.366 . S
C1301 C1302 1.414 . S
C1301 C1304 1.499 . S
C1302 H1282 0.950 . S
C1302 C1301 1.414 . S
C1302 C1303 1.374 . S
C1303 H1283 0.950 . S
C1303 C1299 1.385 . S
C1303 C1302 1.374 . S
C1304 C1301 1.499 . S
C1304 C1305 1.373 . S
C1304 C1306 1.389 . S
C1305 H1284 0.950 . S
C1305 C1304 1.373 . S
C1305 C1321 1.377 . S
C1306 C1304 1.389 . S
C1306 C1307 1.524 . S
C1306 C1320 1.377 . S
C1307 C1306 1.524 . S
C1307 C1308 1.397 . S
C1307 C1312 1.363 . S
C1308 H1285 0.950 . S
C1308 C1307 1.397 . S
C1308 C1309 1.334 1_455 S
C1309 H1286 0.950 . S
C1309 C1308 1.334 1_655 S
C1309 C1310 1.287 . S
C1310 C1309 1.287 . S
C1310 C1311 1.524 . S
C1310 H1329 0.913 . S
C1311 H1287 0.950 . S
C1311 C1310 1.524 . S
C1311 C1312 1.415 1_655 S
C1312 H1288 0.950 . S
C1312 C1307 1.363 . S
C1312 C1311 1.415 1_455 S
C1313 H1289 0.951 . S
C1313 C1314 1.366 . S
C1313 C1315 1.388 . S
C1314 C1313 1.366 . S
C1314 C1318 1.385 . S
C1315 H1290 0.951 . S
C1315 C1313 1.388 . S
C1315 C1316 1.366 . S
C1316 C1315 1.366 . S
C1316 C1317 1.414 . S
C1316 C1319 1.499 . S
C1317 H1291 0.950 . S
C1317 C1316 1.414 . S
C1317 C1318 1.374 . S
C1318 H1292 0.950 . S
C1318 C1314 1.385 . S
C1318 C1317 1.374 . S
C1319 C1316 1.499 . S
C1319 C1320 1.373 . S
C1319 C1321 1.389 . S
C1320 H1293 0.950 . S
C1320 C1306 1.377 . S
C1320 C1319 1.373 . S
C1321 C1305 1.377 . S
C1321 C1319 1.389 . S
C1321 C1322 1.524 . S
C1322 C1321 1.524 . S
C1322 C1323 1.397 . S
C1322 C1327 1.363 . S
C1323 H1294 0.950 . S
C1323 C1322 1.397 . S
C1323 C1324 1.334 . S
C1324 H1295 0.950 . S
C1324 C1323 1.334 . S
C1324 C1325 1.287 . S
C1325 C1324 1.287 . S
C1325 C1326 1.524 . S
C1325 H1328 0.999 . S
C1326 H1296 0.950 . S
C1326 C1325 1.524 . S
C1326 C1327 1.415 . S
C1327 H1297 0.950 . S
C1327 C1322 1.363 . S
C1327 C1326 1.415 . S
H1328 C1325 0.999 . S
H1329 C1310 0.913 . S
H1330 C1348 0.951 . S
H1331 C1350 0.951 . S
H1332 C1352 0.950 . S
H1333 C1353 0.950 . S
H1334 C1355 0.950 . S
H1335 C1358 0.950 . S
H1336 C1359 0.950 . S
H1337 C1361 0.950 . S
H1338 C1362 0.950 . S
H1339 C1363 0.951 . S
H1340 C1365 0.951 . S
H1341 C1367 0.950 . S
H1342 C1368 0.950 . S
H1343 C1370 0.950 . S
H1344 C1373 0.950 . S
H1345 C1374 0.950 . S
H1346 C1376 0.950 . S
H1347 C1377 0.950 . S
C1348 H1330 0.951 . S
C1348 C1349 1.366 . S
C1348 C1350 1.388 . S
C1349 C1348 1.366 . S
C1349 C1353 1.385 . S
C1350 H1331 0.951 . S
C1350 C1348 1.388 . S
C1350 C1351 1.366 . S
C1351 C1350 1.366 . S
C1351 C1352 1.414 . S
C1351 C1354 1.499 . S
C1352 H1332 0.950 . S
C1352 C1351 1.414 . S
C1352 C1353 1.374 . S
C1353 H1333 0.950 . S
C1353 C1349 1.385 . S
C1353 C1352 1.374 . S
C1354 C1351 1.499 . S
C1354 C1355 1.373 . S
C1354 C1356 1.389 . S
C1355 H1334 0.950 . S
C1355 C1354 1.373 . S
C1355 C1371 1.377 . S
C1356 C1354 1.389 . S
C1356 C1357 1.524 . S
C1356 C1370 1.377 . S
C1357 C1356 1.524 . S
C1357 C1358 1.397 . S
C1357 C1362 1.363 . S
C1358 H1335 0.950 . S
C1358 C1357 1.397 . S
C1358 C1359 1.334 . S
C1359 H1336 0.950 . S
C1359 C1358 1.334 . S
C1359 C1360 1.287 . S
C1360 C1359 1.287 . S
C1360 C1361 1.524 . S
C1360 H1379 0.913 . S
C1361 H1337 0.950 . S
C1361 C1360 1.524 . S
C1361 C1362 1.415 . S
C1362 H1338 0.950 . S
C1362 C1357 1.363 . S
C1362 C1361 1.415 . S
C1363 H1339 0.951 . S
C1363 C1364 1.366 . S
C1363 C1365 1.388 . S
C1364 C1363 1.366 . S
C1364 C1368 1.385 . S
C1365 H1340 0.951 . S
C1365 C1363 1.388 . S
C1365 C1366 1.366 . S
C1366 C1365 1.366 . S
C1366 C1367 1.414 . S
C1366 C1369 1.499 . S
C1367 H1341 0.950 . S
C1367 C1366 1.414 . S
C1367 C1368 1.374 . S
C1368 H1342 0.950 . S
C1368 C1364 1.385 . S
C1368 C1367 1.374 . S
C1369 C1366 1.499 . S
C1369 C1370 1.373 . S
C1369 C1371 1.389 . S
C1370 H1343 0.950 . S
C1370 C1356 1.377 . S
C1370 C1369 1.373 . S
C1371 C1355 1.377 . S
C1371 C1369 1.389 . S
C1371 C1372 1.524 . S
C1372 C1371 1.524 . S
C1372 C1373 1.397 . S
C1372 C1377 1.363 . S
C1373 H1344 0.950 . S
C1373 C1372 1.397 . S
C1373 C1374 1.334 . S
C1374 H1345 0.950 . S
C1374 C1373 1.334 . S
C1374 C1375 1.287 . S
C1375 C1374 1.287 . S
C1375 C1376 1.524 . S
C1375 H1378 0.999 . S
C1376 H1346 0.950 . S
C1376 C1375 1.524 . S
C1376 C1377 1.415 . S
C1377 H1347 0.950 . S
C1377 C1372 1.363 . S
C1377 C1376 1.415 . S
H1378 C1375 0.999 . S
H1379 C1360 0.913 . S
C199 C6 1.761 . S
C214 C99 1.634 . S
C249 C18 1.846 . S
C264 C133 1.710 . S
C314 C145 1.392 . S
C299 C28 1.492 . S
C349 C40 0.900 . S
C364 C179 0.864 . S
C414 C136 1.725 . S
C399 C9 1.866 . S
C464 C116 1.419 . S
C449 C16 1.517 . S
C514 C163 1.409 . S
C499 C30 1.513 . S
C564 C154 1.102 . S
C549 C42 1.176 . S
C599 C4 1.526 . S
C614 C162 1.438 . S
C664 C124 1.460 . S
C649 C33 1.594 . S
C699 C45 1.234 . S
C714 C100 1.140 . S
C749 C21 1.814 . S
C764 C157 1.706 . S
C814 C115 1.702 . S
C799 C57 1.823 . S
C849 C66 1.926 . S
C864 C137 1.785 . S
C899 C76 1.686 . S
C914 C142 1.588 . S
C949 C88 0.999 . S
C964 C175 0.972 . S
C999 C54 1.899 . S
C1014 C120 1.772 . S
C1064 C112 1.557 . S
C1049 C64 1.648 . S
C1114 C166 1.373 . S
C1099 C78 1.432 . S
C1164 C158 1.216 . S
C1149 C93 1.293 . S
C1199 C52 1.463 . S
C1214 C178 1.399 . S
C1264 C121 1.548 . S
C1249 C81 1.673 . S
C1314 C103 1.277 . S
C1299 C90 1.370 . S
C1349 C69 1.860 . S
C1364 C141 1.758 . S
