# Generated by pormake.
# Topology pyr, (3,6)-cn, num edge types: 1
# Building blocks:
#     Node 0, Type 0, BuildingBlock: ESEHIV_clean_linker_0, # of connection points: 3
#     Node 1, Type 0, BuildingBlock: ESEHIV_clean_linker_0, # of connection points: 3
#     Node 2, Type 0, BuildingBlock: ESEHIV_clean_linker_0, # of connection points: 3
#     Node 3, Type 0, BuildingBlock: ESEHIV_clean_linker_0, # of connection points: 3
#     Node 4, Type 0, BuildingBlock: ESEHIV_clean_linker_0, # of connection points: 3
#     Node 5, Type 0, BuildingBlock: ESEHIV_clean_linker_0, # of connection points: 3
#     Node 6, Type 0, BuildingBlock: ESEHIV_clean_linker_0, # of connection points: 3
#     Node 7, Type 0, BuildingBlock: ESEHIV_clean_linker_0, # of connection points: 3
#     Node 8, Type 1, BuildingBlock: FUNLAD_clean_sbu_0, # of connection points: 6
#     Node 9, Type 1, BuildingBlock: FUNLAD_clean_sbu_0, # of connection points: 6
#     Node 10, Type 1, BuildingBlock: FUNLAD_clean_sbu_0, # of connection points: 6
#     Node 11, Type 1, BuildingBlock: FUNLAD_clean_sbu_0, # of connection points: 6
#     Edge 12, Type (0, 1), BuildingBlock: CIFDUS_clean_linker_0, # of connection points: 2
#     Edge 13, Type (0, 1), BuildingBlock: CIFDUS_clean_linker_0, # of connection points: 2
#     Edge 14, Type (0, 1), BuildingBlock: CIFDUS_clean_linker_0, # of connection points: 2
#     Edge 15, Type (0, 1), BuildingBlock: CIFDUS_clean_linker_0, # of connection points: 2
#     Edge 16, Type (0, 1), BuildingBlock: CIFDUS_clean_linker_0, # of connection points: 2
#     Edge 17, Type (0, 1), BuildingBlock: CIFDUS_clean_linker_0, # of connection points: 2
#     Edge 18, Type (0, 1), BuildingBlock: CIFDUS_clean_linker_0, # of connection points: 2
#     Edge 19, Type (0, 1), BuildingBlock: CIFDUS_clean_linker_0, # of connection points: 2
#     Edge 20, Type (0, 1), BuildingBlock: CIFDUS_clean_linker_0, # of connection points: 2
#     Edge 21, Type (0, 1), BuildingBlock: CIFDUS_clean_linker_0, # of connection points: 2
#     Edge 22, Type (0, 1), BuildingBlock: CIFDUS_clean_linker_0, # of connection points: 2
#     Edge 23, Type (0, 1), BuildingBlock: CIFDUS_clean_linker_0, # of connection points: 2
#     Edge 24, Type (0, 1), BuildingBlock: CIFDUS_clean_linker_0, # of connection points: 2
#     Edge 25, Type (0, 1), BuildingBlock: CIFDUS_clean_linker_0, # of connection points: 2
#     Edge 26, Type (0, 1), BuildingBlock: CIFDUS_clean_linker_0, # of connection points: 2
#     Edge 27, Type (0, 1), BuildingBlock: CIFDUS_clean_linker_0, # of connection points: 2
#     Edge 28, Type (0, 1), BuildingBlock: CIFDUS_clean_linker_0, # of connection points: 2
#     Edge 29, Type (0, 1), BuildingBlock: CIFDUS_clean_linker_0, # of connection points: 2
#     Edge 30, Type (0, 1), BuildingBlock: CIFDUS_clean_linker_0, # of connection points: 2
#     Edge 31, Type (0, 1), BuildingBlock: CIFDUS_clean_linker_0, # of connection points: 2
#     Edge 32, Type (0, 1), BuildingBlock: CIFDUS_clean_linker_0, # of connection points: 2
#     Edge 33, Type (0, 1), BuildingBlock: CIFDUS_clean_linker_0, # of connection points: 2
#     Edge 34, Type (0, 1), BuildingBlock: CIFDUS_clean_linker_0, # of connection points: 2
#     Edge 35, Type (0, 1), BuildingBlock: CIFDUS_clean_linker_0, # of connection points: 2
# Relax obj value: 0.114
# Max RMSD: 0.079
# Mean RMSD: 0.041
data_MOF--net-pry--node1-FUNLAD_clean_sbu_0--node2-ESEHIV_clean_linker_0--edge1-CIFDUS_clean_linker_0
_symmetry_space_group_name_H-M    P1
_symmetry_Int_Tables_number       1
_symmetry_cell_setting            triclinic
loop_
_symmetry_equiv_pos_as_xyz
'x, y, z'
_cell_length_a     29.004961
_cell_length_b     31.368348
_cell_length_c     31.118779
_cell_angle_alpha  89.907307
_cell_angle_beta   89.879044
_cell_angle_gamma 81.474526
loop_
_atom_site_label
_atom_site_type_symbol
_atom_site_fract_x
_atom_site_fract_y
_atom_site_fract_z
_atom_type_partial_charge
H0 H 0.07685 0.21648 0.23249 0.0
H1 H 0.19956 0.11971 0.23857 0.0
H2 H 0.18093 0.20933 0.13336 0.0
C3 C 0.1096 0.20114 0.21898 0.0
C4 C 0.12527 0.21658 0.17971 0.0
C5 C 0.13566 0.16546 0.24039 0.0
C6 C 0.17837 0.14605 0.22205 0.0
C7 C 0.19521 0.16246 0.18382 0.0
C8 C 0.16796 0.19689 0.16285 0.0
H9 H 0.34619 0.93805 0.71924 0.0
H10 H 0.45365 0.82802 0.73234 0.0
H11 H 0.35671 0.83427 0.62787 0.0
C12 C 0.36368 0.90736 0.70757 0.0
C13 C 0.34781 0.88973 0.66949 0.0
C14 C 0.40135 0.88506 0.73127 0.0
C15 C 0.42398 0.845 0.71524 0.0
C16 C 0.40892 0.8269 0.6771 0.0
C17 C 0.37038 0.84934 0.65539 0.0
H18 H 0.6498 0.43208 0.05567 0.0
H19 H 0.64286 0.54541 0.97746 0.0
H20 H 0.54043 0.46096 0.96257 0.0
C21 C 0.63068 0.45423 0.03297 0.0
C22 C 0.59125 0.44297 1.01192 0.0
C23 C 0.64898 0.49148 1.02073 0.0
C24 C 0.62714 0.51791 0.98804 0.0
C25 C 0.59006 0.50549 0.96465 0.0
C26 C 0.56982 0.47031 0.97957 0.0
H27 H 0.8646 0.61858 0.57615 0.0
H28 H 0.98042 0.61646 0.48959 0.0
H29 H 0.89214 0.51924 0.48072 0.0
C30 C 0.88777 0.60172 0.55232 0.0
C31 C 0.87543 0.56498 0.53214 0.0
C32 C 0.92611 0.62031 0.5374 0.0
C33 C 0.95367 0.60018 0.50394 0.0
C34 C 0.94072 0.56462 0.48267 0.0
C35 C 0.90325 0.5457 0.49841 0.0
H36 H 0.83411 0.93384 0.82484 0.0
H37 H 0.9559 0.83606 0.82598 0.0
H38 H 0.84843 0.83423 0.92084 0.0
C39 C 0.85459 0.90592 0.83952 0.0
C40 C 0.83634 0.88614 0.87518 0.0
C41 C 0.89768 0.88797 0.82097 0.0
C42 C 0.92281 0.85021 0.8397 0.0
C43 C 0.90567 0.83089 0.87632 0.0
C44 C 0.86256 0.84938 0.89346 0.0
H45 H 0.57737 0.20963 0.32383 0.0
H46 H 0.68945 0.10297 0.32592 0.0
H47 H 0.67748 0.19824 0.42631 0.0
C48 C 0.60823 0.19248 0.33903 0.0
C49 C 0.62481 0.20907 0.37735 0.0
C50 C 0.63085 0.15379 0.32028 0.0
C51 C 0.67073 0.13162 0.34083 0.0
C52 C 0.68819 0.14751 0.37903 0.0
C53 C 0.66439 0.18581 0.39707 0.0
H54 H 0.37054 0.61359 1.00319 0.0
H55 H 0.38132 0.51278 0.0977 0.0
H56 H 0.49273 0.5873 0.08169 0.0
C57 C 0.39156 0.59249 1.02558 0.0
C58 C 0.43569 0.60183 0.03763 0.0
C59 C 0.37205 0.55978 0.04673 0.0
C60 C 0.3975 0.53601 0.07933 0.0
C61 C 0.44074 0.54626 0.09257 0.0
C62 C 0.46095 0.5772 0.06967 0.0
H63 H 0.03151 0.46568 0.59822 0.0
H64 H 0.16266 0.44457 0.53219 0.0
H65 H 0.13885 0.53974 0.63203 0.0
C66 C 0.06459 0.47626 0.59069 0.0
C67 C 0.08128 0.50601 0.61788 0.0
C68 C 0.09413 0.4533 0.56042 0.0
C69 C 0.13882 0.46423 0.55362 0.0
C70 C 0.15501 0.49609 0.57881 0.0
C71 C 0.12546 0.51757 0.61027 0.0
C72 C 0.05628 0.0503 0.45541 0.0
N73 N 0.03276 0.12633 0.56565 0.0
C74 C 0.0773 0.1329 0.55761 0.0
C75 C 0.08969 0.17383 0.56047 0.0
C76 C 0.05596 0.20884 0.57131 0.0
C77 C 1.01025 0.20144 0.58019 0.0
C78 C 0.99932 0.15949 0.57726 0.0
Zn79 Zn 0.01934 0.06639 0.54953 0.0
C80 C 0.93048 0.06916 0.50185 0.0
N81 N 1.00329 0.94172 0.50662 0.0
C82 C 0.03785 0.91071 0.49272 0.0
C83 C 0.96188 0.93157 0.52072 0.0
C84 C 0.95544 0.88878 0.52515 0.0
C85 C 0.9914 0.85562 0.51366 0.0
C86 C 0.03236 0.8672 0.49546 0.0
Zn87 Zn 0.01492 1.00232 0.52175 0.0
O88 O 0.05114 0.07616 0.48719 0.0
C89 C 0.10339 1.00067 0.57046 0.0
O90 O 0.04399 1.01319 0.45987 0.0
H91 H 0.93502 0.95661 0.53215 0.0
H92 H 0.1031 0.10668 0.54684 0.0
H93 H 0.07067 0.91951 0.48197 0.0
O94 O 0.08413 0.03905 0.57726 0.0
O95 O 0.08333 0.97671 0.54597 0.0
H96 H 0.96393 0.1537 0.58273 0.0
O97 O 0.9868 0.99159 0.58436 0.0
O98 O 0.98683 0.05602 0.61103 0.0
O99 O 0.9463 0.02929 0.49724 0.0
O100 O 0.9544 0.09272 0.523 0.0
C101 C 0.97835 1.0175 0.61569 0.0
H102 H 0.12506 0.17824 0.55249 0.0
H103 H 0.9833 0.22777 0.58877 0.0
H104 H 0.92353 0.88217 0.54006 0.0
H105 H 0.06064 0.84302 0.48494 0.0
C106 C 0.60021 0.99519 0.99033 0.0
N107 N 0.51986 0.11783 0.99917 0.0
C108 C 0.56007 0.13111 1.01252 0.0
C109 C 0.56555 0.17433 1.00987 0.0
C110 C 0.52969 0.20413 0.99259 0.0
C111 C 0.48931 0.18954 0.97722 0.0
C112 C 0.48486 0.14589 0.98125 0.0
Zn113 Zn 0.51242 0.05593 1.01404 0.0
C114 C 0.47454 1.00628 0.94493 0.0
N115 N 0.50299 0.9272 0.05141 0.0
C116 C 0.5374 0.89468 0.06259 0.0
C117 C 0.45897 0.91929 0.0432 0.0
C118 C 0.44789 0.87794 0.04615 0.0
C119 C 0.4824 0.84368 0.05715 0.0
C120 C 0.5278 0.85217 0.06549 0.0
Zn121 Zn 0.51258 0.98904 0.0372 0.0
O122 O 0.5805 0.03418 0.98847 0.0
C123 C 0.55065 0.03815 0.10623 0.0
O124 O 0.5796 0.96759 1.00973 0.0
H125 H 0.43237 0.94482 0.03249 0.0
H126 H 0.58755 0.10833 1.02655 0.0
H127 H 0.57241 0.90146 0.06804 0.0
O128 O 0.54103 0.06597 0.07656 0.0
O129 O 0.54363 0.99952 0.0992 0.0
H130 H 0.45307 0.13464 0.97122 0.0
O131 O 0.44556 1.01196 0.0648 0.0
O132 O 0.44472 0.07744 0.04021 0.0
O133 O 0.48254 0.97919 0.9754 0.0
O134 O 0.48298 0.04459 0.9512 0.0
C135 C 0.42518 0.05054 0.06164 0.0
H136 H 0.59749 0.18441 1.02134 0.0
H137 H 0.46105 0.21183 0.96351 0.0
H138 H 0.41277 0.87263 0.03843 0.0
H139 H 0.55537 0.82635 0.07394 0.0
C140 C 0.54122 0.43036 0.50636 0.0
N141 N 0.53263 0.49688 0.62662 0.0
C142 C 0.51018 0.46974 0.65031 0.0
C143 C 0.51115 0.47146 0.69529 0.0
C144 C 0.53519 0.50156 0.71573 0.0
C145 C 0.55892 0.52818 0.69024 0.0
C146 C 0.55741 0.52513 0.64581 0.0
Zn147 Zn 0.52217 0.50674 0.5624 0.0
C148 C 0.60965 0.52787 0.51938 0.0
N149 N 0.50016 0.53911 0.43112 0.0
C150 C 0.47338 0.51207 0.41258 0.0
C151 C 0.51856 0.56909 0.40749 0.0
C152 C 0.50963 0.57283 0.3633 0.0
C153 C 0.48124 0.54572 0.34414 0.0
C154 C 0.46316 0.5151 0.36913 0.0
Zn155 Zn 0.51231 0.52841 0.49486 0.0
O156 O 0.54071 0.43905 0.54644 0.0
C157 C 0.42452 0.50805 0.53667 0.0
O158 O 0.53076 0.46115 0.47986 0.0
H159 H 0.54016 0.5899 0.42284 0.0
H160 H 0.49007 0.44802 0.63441 0.0
H161 H 0.45994 0.48771 0.43144 0.0
O162 O 0.45057 0.49881 0.56918 0.0
O163 O 0.44197 0.52094 0.50257 0.0
H164 H 0.57399 0.54731 0.62668 0.0
O165 O 0.49427 0.59601 0.51081 0.0
O166 O 0.50338 0.5739 0.57736 0.0
O167 O 0.58239 0.53617 0.4876 0.0
O168 O 0.59375 0.51509 0.55446 0.0
C169 C 0.49342 0.60469 0.55086 0.0
H170 H 0.4928 0.44997 0.71377 0.0
H171 H 0.57707 0.55249 0.70434 0.0
H172 H 0.5239 0.5969 0.34453 0.0
H173 H 0.44136 0.49359 0.35507 0.0
C174 C 0.98658 0.61744 1.0165 0.0
N175 N 0.98222 0.56543 0.14239 0.0
C176 C 1.00311 0.59424 0.16525 0.0
C177 C 0.99405 0.59969 0.20934 0.0
C178 C 0.96279 0.57571 0.22926 0.0
C179 C 0.94136 0.54697 0.20475 0.0
C180 C 0.95196 0.54195 0.16148 0.0
Zn181 Zn 0.99913 0.54782 0.0806 0.0
C182 C 0.91685 0.521 0.03503 0.0
N183 N 0.03246 0.49987 0.95565 0.0
C184 C 0.05879 0.52395 0.93229 0.0
C185 C 0.01104 0.46893 0.93692 0.0
C186 C 0.0135 0.46303 0.89248 0.0
C187 C 0.03854 0.48905 0.86737 0.0
C188 C 0.06262 0.5188 0.88802 0.0
Zn189 Zn 0.01722 0.51893 1.01688 0.0
O190 O 0.98298 0.61219 0.05693 0.0
C191 C 0.09988 0.54533 0.06053 0.0
O192 O 0.99976 0.58456 0.99314 0.0
H193 H 0.99007 0.45033 0.95612 0.0
H194 H 0.02772 0.61198 0.14966 0.0
H195 H 0.07507 0.54875 0.94767 0.0
O196 O 0.07034 0.55671 0.09022 0.0
O197 O 0.08658 0.52858 1.02652 0.0
H198 H 0.93721 0.51776 0.14368 0.0
O199 O 0.03429 0.45343 0.04186 0.0
O200 O 0.0157 0.48391 0.10389 0.0
O201 O 0.94801 0.50937 1.00714 0.0
O202 O 0.92804 0.53865 0.06936 0.0
C203 C 0.02969 0.45009 0.08245 0.0
H204 H 0.01129 0.62206 0.22764 0.0
H205 H 0.91778 0.52734 0.21931 0.0
H206 H 0.99435 0.43973 0.87786 0.0
H207 H 0.08337 0.53871 0.87008 0.0
H208 H 0.13346 0.08209 0.26773 0.0
H209 H 0.10172 0.21429 0.30935 0.0
H210 H 0.07615 0.19058 0.37911 0.0
H211 H 0.06221 0.13248 0.42874 0.0
H212 H 0.09024 1.00024 0.38664 0.0
H213 H 0.11796 1.02364 0.31731 0.0
C214 C 0.12109 0.10571 0.29212 0.0
C215 C 0.11953 0.15008 0.28293 0.0
C216 C 0.10579 0.09178 0.33237 0.0
C217 C 0.10288 0.18007 0.31503 0.0
C218 C 0.08844 0.16648 0.35516 0.0
C219 C 0.0746 0.10866 0.40453 0.0
C220 C 0.07431 0.06448 0.41332 0.0
C221 C 0.08965 0.12245 0.36426 0.0
C222 C 0.09003 0.03436 0.38107 0.0
C223 C 0.10592 0.04778 0.34128 0.0
H224 H 0.40876 0.9693 0.75437 0.0
H225 H 0.42559 0.83968 0.80494 0.0
H226 H 0.4484 0.86566 0.87429 0.0
H227 H 0.46395 0.92456 0.92121 0.0
H228 H 0.44855 0.05456 0.87211 0.0
H229 H 0.42436 0.02917 0.80229 0.0
C230 C 0.41717 0.94671 0.78059 0.0
C231 C 0.41565 0.90226 0.77377 0.0
C232 C 0.43042 0.962 0.82099 0.0
C233 C 0.42717 0.87378 0.80845 0.0
C234 C 0.43994 0.8887 0.84846 0.0
C235 C 0.45515 0.9476 0.89541 0.0
C236 C 0.45804 0.99167 0.90238 0.0
C237 C 0.44179 0.93266 0.85515 0.0
C238 C 0.44664 1.02058 0.86806 0.0
C239 C 0.43284 1.00598 0.82797 0.0
H240 H 0.5088 0.5137 0.91726 0.0
H241 H 0.65493 0.52699 0.90761 0.0
H242 H 0.64935 0.5293 0.83042 0.0
H243 H 0.60769 0.51589 0.76558 0.0
H244 H 0.46317 0.49804 0.77263 0.0
H245 H 0.46471 0.50588 0.85086 0.0
C246 C 0.53942 0.51737 0.89839 0.0
C247 C 0.58229 0.51956 0.91902 0.0
C248 C 0.53698 0.51595 0.85332 0.0
C249 C 0.62106 0.52582 0.89357 0.0
C250 C 0.61832 0.52623 0.84896 0.0
C251 C 0.57616 0.51448 0.78399 0.0
C252 C 0.53549 0.50613 0.76321 0.0
C253 C 0.57713 0.51946 0.82861 0.0
C254 C 0.49528 0.50357 0.78787 0.0
C255 C 0.49597 0.50859 0.83254 0.0
H256 H 0.88283 0.57462 0.41607 0.0
H257 H 0.02863 0.54572 0.44783 0.0
H258 H 0.04914 0.54929 0.37125 0.0
H259 H 0.02451 0.56236 0.29529 0.0
H260 H 0.87807 0.59381 0.26625 0.0
H261 H 0.85862 0.58839 0.34218 0.0
C262 C 0.91907 0.56794 0.40611 0.0
C263 C 0.9542 0.55864 0.43709 0.0
C264 C 0.93034 0.57166 0.36279 0.0
C265 C 1.00111 0.5519 0.42415 0.0
C266 C 0.01272 0.55446 0.38059 0.0
C267 C 0.98852 0.56871 0.30594 0.0
C268 C 0.95267 0.57873 0.27562 0.0
C269 C 0.97757 0.56493 0.34967 0.0
C270 C 0.90606 0.58624 0.2893 0.0
C271 C 0.89495 0.58282 0.33253 0.0
H272 H 0.2335 0.0792 0.16431 0.0
H273 H 0.26228 0.21017 0.16217 0.0
H274 H 0.33467 0.18766 0.12305 0.0
H275 H 0.3886 0.13153 0.08672 0.0
H276 H 0.36251 0.99979 0.09033 0.0
H277 H 0.29061 1.02169 0.13106 0.0
C278 C 0.25608 0.10256 0.15585 0.0
C279 C 0.24227 0.14635 0.16584 0.0
C280 C 0.2979 0.08938 0.13295 0.0
C281 C 0.27184 0.17633 0.15446 0.0
C282 C 0.31323 0.16353 0.13197 0.0
C283 C 0.36703 0.10764 0.09616 0.0
C284 C 0.38066 0.06419 0.08496 0.0
C285 C 0.32623 0.12031 0.12033 0.0
C286 C 0.35271 0.03354 0.09826 0.0
C287 C 0.31161 0.04602 0.12171 0.0
H288 H 0.26759 0.93898 0.69987 0.0
H289 H 0.33512 0.89105 0.582 0.0
H290 H 0.2653 0.91819 0.54155 0.0
H291 H 0.18355 0.95428 0.53918 0.0
H292 H 0.11947 1.00979 0.65518 0.0
H293 H 0.18915 0.98156 0.69639 0.0
C294 C 0.26757 0.93508 0.66527 0.0
C295 C 0.3067 0.91181 0.64455 0.0
C296 C 0.22749 0.95202 0.64164 0.0
C297 C 0.3053 0.90735 0.59944 0.0
C298 C 0.26533 0.92318 0.57601 0.0
C299 C 0.18501 0.96007 0.57347 0.0
C300 C 0.14636 0.9836 0.59425 0.0
C301 C 0.2259 0.94501 0.59677 0.0
C302 C 0.14887 0.99164 0.63855 0.0
C303 C 0.1887 0.97551 0.66213 0.0
H304 H 0.72128 0.48754 0.96724 0.0
H305 H 0.68411 0.50635 0.10062 0.0
H306 H 0.76436 0.5179 0.11734 0.0
H307 H 0.84486 0.52383 0.09274 0.0
H308 H 0.87991 0.50243 0.9587 0.0
H309 H 0.80054 0.49097 0.9434 0.0
C310 C 0.73081 0.49431 0.99998 0.0
C311 C 0.69711 0.49676 0.03264 0.0
C312 C 0.77649 0.50056 1.00908 0.0
C313 C 0.70973 0.5046 0.07506 0.0
C314 C 0.75543 0.51128 0.08447 0.0
C315 C 0.83498 0.51676 0.06022 0.0
C316 C 0.86825 0.51422 1.02687 0.0
C317 C 0.78907 0.50963 0.05159 0.0
C318 C 0.8551 0.50457 0.98497 0.0
C319 C 0.80968 0.49802 0.97612 0.0
H320 H 0.81264 0.55822 0.47015 0.0
H321 H 0.83102 0.54933 0.60745 0.0
H322 H 0.75019 0.53563 0.61584 0.0
H323 H 0.67383 0.52809 0.58355 0.0
H324 H 0.65687 0.53981 0.44593 0.0
H325 H 0.73803 0.55007 0.43822 0.0
C326 C 0.7993 0.5524 0.5019 0.0
C327 C 0.82791 0.55385 0.53811 0.0
C328 C 0.75305 0.54532 0.50635 0.0
C329 C 0.80965 0.54789 0.57914 0.0
C330 C 0.76354 0.54015 0.58386 0.0
C331 C 0.68802 0.53266 0.55188 0.0
C332 C 0.65928 0.53317 0.51536 0.0
C333 C 0.73481 0.53907 0.54764 0.0
C334 C 0.67809 0.53943 0.47458 0.0
C335 C 0.72454 0.54524 0.47009 0.0
H336 H 0.08799 0.29532 0.2122 0.0
H337 H 0.1061 0.22357 0.09386 0.0
H338 H 0.07762 0.28861 0.05289 0.0
H339 H 0.0528 0.36764 0.05001 0.0
H340 H 0.03383 0.43861 0.16908 0.0
H341 H 0.05698 0.37279 0.20975 0.0
C342 C 0.08467 0.29373 0.17756 0.0
C343 C 0.09954 0.25455 0.15626 0.0
C344 C 0.06864 0.33153 0.15396 0.0
C345 C 0.09538 0.25334 0.11116 0.0
C346 C 0.07919 0.29062 0.0876 0.0
C347 C 0.0535 0.36865 0.08482 0.0
C348 C 0.04188 0.40842 0.10611 0.0
C349 C 0.06674 0.33024 0.10852 0.0
C350 C 0.0427 0.40876 0.15145 0.0
C351 C 0.05597 0.37096 0.17499 0.0
H352 H 0.56522 0.39137 0.949 0.0
H353 H 0.58909 0.39468 0.08589 0.0
H354 H 0.57144 0.32087 0.09215 0.0
H355 H 0.55075 0.25502 0.05793 0.0
H356 H 0.52147 0.25555 0.9221 0.0
H357 H 0.53775 0.32966 0.91651 0.0
C358 C 0.56511 0.3769 0.98064 0.0
C359 C 0.57781 0.39915 1.0171 0.0
C360 C 0.55377 0.33525 0.98412 0.0
C361 C 0.57958 0.37842 0.05728 0.0
C362 C 0.56928 0.33631 0.06089 0.0
C363 C 0.54765 0.27166 1.02725 0.0
C364 C 0.53521 0.2501 0.99036 0.0
C365 C 0.55663 0.31436 1.02443 0.0
C366 C 0.5308 0.27176 0.95082 0.0
C367 C 0.54035 0.31392 0.94763 0.0
H368 H 1.00421 0.65623 0.55405 0.0
H369 H 0.85544 0.68755 0.53672 0.0
H370 H 0.8627 0.7633 0.52793 0.0
H371 H 0.91187 0.81826 0.51465 0.0
H372 H 0.06062 0.78903 0.53517 0.0
H373 H 0.05287 0.71429 0.55052 0.0
C374 C 0.97332 0.67992 0.54955 0.0
C375 C 0.92943 0.66621 0.54604 0.0
C376 C 0.97785 0.72341 0.5431 0.0
C377 C 0.8896 0.69716 0.54025 0.0
C378 C 0.89379 0.74047 0.53436 0.0
C379 C 0.9427 0.79614 0.5235 0.0
C380 C 0.98686 0.80974 0.5231 0.0
C381 C 0.93789 0.75361 0.53408 0.0
C382 C 0.02624 0.77963 0.53374 0.0
C383 C 0.02181 0.73687 0.54329 0.0
H384 H 0.42519 0.80207 0.59307 0.0
H385 H 0.44277 0.75374 0.72289 0.0
H386 H 0.47216 0.68191 0.69533 0.0
H387 H 0.48855 0.63165 0.63451 0.0
H388 H 0.46809 0.67929 0.50469 0.0
H389 H 0.4434 0.75218 0.53221 0.0
C390 C 0.43523 0.77587 0.6155 0.0
C391 C 0.43127 0.78373 0.66026 0.0
C392 C 0.45121 0.73425 0.59937 0.0
C393 C 0.44569 0.74922 0.68846 0.0
C394 C 0.46214 0.70787 0.67264 0.0
C395 C 0.47887 0.65793 0.61208 0.0
C396 C 0.48007 0.64964 0.56738 0.0
C397 C 0.4644 0.69985 0.62818 0.0
C398 C 0.46747 0.68441 0.53911 0.0
C399 C 0.45332 0.7262 0.55489 0.0
H400 H 0.89961 0.9735 0.79994 0.0
H401 H 0.9339 0.84448 0.7498 0.0
H402 H 0.96073 0.87309 0.68286 0.0
H403 H 0.97443 0.93417 0.63797 0.0
H404 H 0.94315 0.06369 0.68725 0.0
H405 H 0.91508 0.03558 0.7546 0.0
C406 C 0.91288 0.95166 0.77433 0.0
C407 C 0.91483 0.90665 0.78037 0.0
C408 C 0.92875 0.96846 0.73555 0.0
C409 C 0.93253 0.87904 0.74668 0.0
C410 C 0.94767 0.89545 0.70812 0.0
C411 C 0.96138 0.95649 0.6633 0.0
C412 C 0.96078 1.00123 0.65711 0.0
C413 C 0.94596 0.94002 0.70214 0.0
C414 C 0.94406 0.02923 0.6908 0.0
C415 C 0.92797 1.01308 0.72942 0.0
H416 H 0.62478 0.07024 0.29482 0.0
H417 H 0.60046 0.20179 0.24954 0.0
H418 H 0.57448 0.17773 0.18047 0.0
H419 H 0.55862 0.11982 0.13226 0.0
H420 H 0.5816 0.98796 0.1764 0.0
H421 H 0.60847 1.01159 0.24589 0.0
C422 C 0.614 0.09367 0.26981 0.0
C423 C 0.61445 0.13803 0.27799 0.0
C424 C 0.59893 0.07952 0.22964 0.0
C425 C 0.59985 0.16767 0.24493 0.0
C426 C 0.58524 0.15386 0.20509 0.0
C427 C 0.56961 0.09604 0.15693 0.0
C428 C 0.5681 0.05195 0.14866 0.0
C429 C 0.58458 0.10993 0.19703 0.0
C430 C 0.58234 1.02199 0.1815 0.0
C431 C 0.59771 0.03556 0.22139 0.0
H432 H 0.38772 0.55835 0.16299 0.0
H433 H 0.52923 0.5166 0.12183 0.0
H434 H 0.55537 0.51471 0.19701 0.0
H435 H 0.53733 0.52774 0.27451 0.0
H436 H 0.39521 0.57049 0.31312 0.0
H437 H 0.36968 0.56981 0.23843 0.0
C438 C 0.42413 0.54756 0.17046 0.0
C439 C 0.45641 0.53664 0.13715 0.0
C440 C 0.43877 0.54786 0.2131 0.0
C441 C 0.50373 0.52443 0.14719 0.0
C442 C 0.51864 0.5238 0.18999 0.0
C443 C 0.50099 0.53739 0.26616 0.0
C444 C 0.46807 0.5497 0.29866 0.0
C445 C 0.48651 0.5362 0.22317 0.0
C446 C 0.42092 0.56139 0.28818 0.0
C447 C 0.40635 0.56066 0.24571 0.0
H448 H 0.06173 0.44443 0.67144 0.0
H449 H 0.05909 0.58197 0.66234 0.0
H450 H 0.04101 0.58916 0.73938 0.0
H451 H 0.03368 0.55498 0.80978 0.0
H452 H 0.04407 0.41637 0.81824 0.0
H453 H 0.05012 0.41101 0.74027 0.0
C454 C 0.05567 0.47621 0.68596 0.0
C455 C 0.06096 0.51278 0.66131 0.0
C456 C 0.04724 0.4797 0.73008 0.0
C457 C 0.05466 0.55353 0.68079 0.0
C458 C 0.0447 0.55751 0.72473 0.0
C459 C 0.0375 0.52356 0.79459 0.0
C460 C 0.03904 0.48605 0.81988 0.0
C461 C 0.04236 0.5206 0.74985 0.0
C462 C 0.04259 0.44573 0.7996 0.0
C463 C 0.0463 0.44261 0.75504 0.0
H464 H 0.79674 0.96879 0.89585 0.0
H465 H 0.76892 0.83745 0.89427 0.0
H466 H 0.69484 0.85906 0.93081 0.0
H467 H 0.63857 0.91458 0.96536 0.0
H468 H 0.66362 0.04669 0.96495 0.0
H469 H 0.73767 0.02558 0.92737 0.0
C470 C 0.77413 0.94509 0.90302 0.0
C471 C 0.78883 0.90145 0.89284 0.0
C472 C 0.73113 0.95777 0.92418 0.0
C473 C 0.759 0.87113 0.90244 0.0
C474 C 0.71651 0.88344 0.92333 0.0
C475 C 0.66033 0.93874 0.95726 0.0
C476 C 0.64571 0.98207 0.96842 0.0
C477 C 0.70249 0.92651 0.93497 0.0
C478 C 0.67406 1.01304 0.95695 0.0
C479 C 0.71643 1.00101 0.93535 0.0
H480 H 0.75671 0.18465 0.41818 0.0
H481 H 0.7199 0.06023 0.3859 0.0
H482 H 0.79136 1.02484 0.42013 0.0
H483 H 0.8643 0.02923 0.46071 0.0
H484 H 0.89681 0.15456 0.49586 0.0
H485 H 0.82655 0.18912 0.46026 0.0
C486 C 0.76357 0.14975 0.41916 0.0
C487 C 0.73226 0.1254 0.39953 0.0
C488 C 0.80413 0.12955 0.43981 0.0
C489 C 0.74324 0.0801 0.4002 0.0
C490 C 0.78407 0.05973 0.42014 0.0
C491 C 0.8559 0.06408 0.46069 0.0
C492 C 0.8861 0.08909 0.48113 0.0
C493 C 0.81479 0.08412 0.44024 0.0
C494 C 0.87442 0.13428 0.4807 0.0
C495 C 0.83417 0.15423 0.46016 0.0
H496 H 0.30652 0.56653 0.10903 0.0
H497 H 0.32543 0.54714 0.97266 0.0
H498 H 0.24236 0.54133 0.96491 0.0
H499 H 0.16512 0.54066 0.99738 0.0
H500 H 0.14599 0.56254 0.13364 0.0
H501 H 0.22873 0.56855 0.14107 0.0
C502 C 0.29243 0.56067 0.07767 0.0
C503 C 0.32197 0.55646 0.04149 0.0
C504 C 0.24481 0.55795 0.07354 0.0
C505 C 0.30326 0.55011 1.00089 0.0
C506 C 0.25591 0.54679 0.99654 0.0
C507 C 0.17901 0.54673 1.02875 0.0
C508 C 0.14946 0.55083 0.06501 0.0
C509 C 0.22645 0.55048 0.03269 0.0
C510 C 0.16793 0.55925 0.10527 0.0
C511 C 0.21524 0.56257 0.10954 0.0
H512 H 0.21007 0.50245 0.50897 0.0
H513 H 0.2131 0.49773 0.64751 0.0
H514 H 0.29669 0.50024 0.64695 0.0
H515 H 0.36959 0.50253 0.60707 0.0
H516 H 0.36634 0.50739 0.46845 0.0
H517 H 0.28271 0.50535 0.46913 0.0
C518 C 0.22908 0.50212 0.53898 0.0
C519 C 0.20526 0.50051 0.57813 0.0
C520 C 0.27732 0.50312 0.53847 0.0
C521 C 0.23033 0.50004 0.61687 0.0
C522 C 0.27829 0.50099 0.61662 0.0
C523 C 0.35058 0.5029 0.57706 0.0
C524 C 0.37419 0.505 0.53785 0.0
C525 C 0.30223 0.50231 0.57761 0.0
C526 C 0.349 0.50586 0.49917 0.0
C527 C 0.30112 0.50474 0.49946 0.0
H528 H 0.91699 0.81094 0.9616 0.0
H529 H 0.949 0.75799 0.83536 0.0
H530 H 0.9788 0.68795 0.86742 0.0
H531 H 0.99022 0.64012 0.93125 0.0
H532 H 0.95542 0.69358 0.057 0.0
H533 H 0.93168 0.7645 1.02512 0.0
C534 C 0.93056 0.78414 0.94097 0.0
C535 C 0.93025 0.78994 0.89593 0.0
C536 C 0.94665 0.74369 0.95959 0.0
C537 C 0.94902 0.75486 0.87002 0.0
C538 C 0.96565 0.71457 0.88838 0.0
C539 C 0.97767 0.6673 0.95176 0.0
C540 C 0.9744 0.66112 0.99664 0.0
C541 C 0.96377 0.70833 0.93311 0.0
C542 C 0.95822 0.69701 1.02249 0.0
C543 C 0.9446 0.73774 1.00424 0.0
H544 H 0.38963 0.67533 0.06687 0.0
H545 H 0.51182 0.62333 0.99473 0.0
H546 H 0.53874 0.69417 0.99551 0.0
H547 H 0.528 0.77055 1.01966 0.0
H548 H 0.40789 0.81872 0.09701 0.0
H549 H 0.37995 0.74943 0.09211 0.0
C550 C 0.42151 0.67995 0.0503 0.0
C551 C 0.44805 0.645 1.02952 0.0
C552 C 0.4376 0.7197 0.05287 0.0
C553 C 0.49033 0.65044 1.00977 0.0
C554 C 0.50591 0.69064 1.01081 0.0
C555 C 0.49613 0.7655 0.0359 0.0
C556 C 0.4699 0.79966 0.05853 0.0
C557 C 0.48017 0.72536 0.03296 0.0
C558 C 0.42842 0.79296 0.07914 0.0
C559 C 0.41232 0.75347 0.07621 0.0
H560 H 0.14531 0.37912 0.58266 0.0
H561 H 0.01886 0.43127 0.51696 0.0
H562 H 0.99516 0.35924 0.5146 0.0
H563 H 1.00877 0.28225 0.53596 0.0
H564 H 0.1332 0.23328 0.60691 0.0
H565 H 0.15924 0.3035 0.60297 0.0
C566 C 0.11328 0.37441 0.56656 0.0
C567 C 0.08438 0.40992 0.54895 0.0
C568 C 0.09907 0.33376 0.56733 0.0
C569 C 0.04204 0.40396 0.52976 0.0
C570 C 0.02829 0.36302 0.529 0.0
C571 C 0.0413 0.2872 0.5509 0.0
C572 C 0.06905 0.25267 0.57168 0.0
C573 C 0.05605 0.32787 0.54869 0.0
C574 C 0.11144 0.25929 0.59045 0.0
C575 C 0.12641 0.29936 0.58814 0.0
H576 H 0.61206 0.23338 0.46248 0.0
H577 H 0.5892 0.28252 0.33334 0.0
H578 H 0.55976 0.35374 0.36177 0.0
H579 H 0.54419 0.40344 0.42281 0.0
H580 H 0.5694 0.35575 0.55207 0.0
H581 H 0.59482 0.28312 0.52398 0.0
C582 C 0.60087 0.2596 0.44039 0.0
C583 C 0.60315 0.25198 0.39551 0.0
C584 C 0.58468 0.30109 0.45702 0.0
C585 C 0.5874 0.28667 0.36786 0.0
C586 C 0.57091 0.32775 0.38415 0.0
C587 C 0.55507 0.37723 0.44503 0.0
C588 C 0.55494 0.38544 0.48971 0.0
C589 C 0.5699 0.3355 0.42861 0.0
C590 C 0.56911 0.3507 0.51766 0.0
C591 C 0.58371 0.30905 0.50154 0.0
loop_
_geom_bond_atom_site_label_1
_geom_bond_atom_site_label_2
_geom_bond_distance
_geom_bond_site_symmetry_2
_ccdc_geom_bond_type
H0 C3 0.931 . S
H1 C6 0.928 . S
H2 C8 0.930 . S
C3 H0 0.931 . S
C3 C4 1.413 . S
C3 C5 1.360 . S
C4 C3 1.413 . S
C4 C8 1.429 . S
C5 C3 1.360 . S
C5 C6 1.372 . S
C6 H1 0.928 . S
C6 C5 1.372 . S
C6 C7 1.404 . S
C7 C6 1.404 . S
C7 C8 1.391 . S
C8 H2 0.930 . S
C8 C4 1.429 . S
C8 C7 1.391 . S
H9 C12 0.931 . S
H10 C15 0.928 . S
H11 C17 0.930 . S
C12 H9 0.931 . S
C12 C13 1.413 . S
C12 C14 1.360 . S
C13 C12 1.413 . S
C13 C17 1.429 . S
C14 C12 1.360 . S
C14 C15 1.372 . S
C15 H10 0.928 . S
C15 C14 1.372 . S
C15 C16 1.404 . S
C16 C15 1.404 . S
C16 C17 1.391 . S
C17 H11 0.930 . S
C17 C13 1.429 . S
C17 C16 1.391 . S
H18 C21 0.931 . S
H19 C24 0.928 . S
H20 C26 0.930 . S
C21 H18 0.931 . S
C21 C22 1.413 . S
C21 C23 1.360 . S
C22 C21 1.413 . S
C22 C26 1.429 . S
C23 C21 1.360 . S
C23 C24 1.372 . S
C24 H19 0.928 . S
C24 C23 1.372 . S
C24 C25 1.404 . S
C25 C24 1.404 . S
C25 C26 1.391 . S
C26 H20 0.930 . S
C26 C22 1.429 . S
C26 C25 1.391 . S
H27 C30 0.931 . S
H28 C33 0.928 . S
H29 C35 0.930 . S
C30 H27 0.931 . S
C30 C31 1.413 . S
C30 C32 1.360 . S
C31 C30 1.413 . S
C31 C35 1.429 . S
C32 C30 1.360 . S
C32 C33 1.372 . S
C33 H28 0.928 . S
C33 C32 1.372 . S
C33 C34 1.404 . S
C34 C33 1.404 . S
C34 C35 1.391 . S
C35 H29 0.930 . S
C35 C31 1.429 . S
C35 C34 1.391 . S
H36 C39 0.931 . S
H37 C42 0.928 . S
H38 C44 0.930 . S
C39 H36 0.931 . S
C39 C40 1.413 . S
C39 C41 1.360 . S
C40 C39 1.413 . S
C40 C44 1.429 . S
C41 C39 1.360 . S
C41 C42 1.372 . S
C42 H37 0.928 . S
C42 C41 1.372 . S
C42 C43 1.404 . S
C43 C42 1.404 . S
C43 C44 1.391 . S
C44 H38 0.930 . S
C44 C40 1.429 . S
C44 C43 1.391 . S
H45 C48 0.931 . S
H46 C51 0.928 . S
H47 C53 0.930 . S
C48 H45 0.931 . S
C48 C49 1.413 . S
C48 C50 1.360 . S
C49 C48 1.413 . S
C49 C53 1.429 . S
C50 C48 1.360 . S
C50 C51 1.372 . S
C51 H46 0.928 . S
C51 C50 1.372 . S
C51 C52 1.404 . S
C52 C51 1.404 . S
C52 C53 1.391 . S
C53 H47 0.930 . S
C53 C49 1.429 . S
C53 C52 1.391 . S
H54 C57 0.931 . S
H55 C60 0.928 . S
H56 C62 0.930 . S
C57 H54 0.931 . S
C57 C58 1.413 . S
C57 C59 1.360 . S
C58 C57 1.413 . S
C58 C62 1.429 . S
C59 C57 1.360 . S
C59 C60 1.372 . S
C60 H55 0.928 . S
C60 C59 1.372 . S
C60 C61 1.404 . S
C61 C60 1.404 . S
C61 C62 1.391 . S
C62 H56 0.930 . S
C62 C58 1.429 . S
C62 C61 1.391 . S
H63 C66 0.931 . S
H64 C69 0.928 . S
H65 C71 0.930 . S
C66 H63 0.931 . S
C66 C67 1.413 . S
C66 C68 1.360 . S
C67 C66 1.413 . S
C67 C71 1.429 . S
C68 C66 1.360 . S
C68 C69 1.372 . S
C69 H64 0.928 . S
C69 C68 1.372 . S
C69 C70 1.404 . S
C70 C69 1.404 . S
C70 C71 1.391 . S
C71 H65 0.930 . S
C71 C67 1.429 . S
C71 C70 1.391 . S
C72 O88 1.251 . S
C72 O90 1.254 1_545 S
N73 C74 1.333 . S
N73 C78 1.307 . S
N73 Zn79 2.020 . S
C74 N73 1.333 . S
C74 C75 1.379 . S
C74 H92 0.952 . S
C75 C74 1.379 . S
C75 C76 1.390 . S
C75 H102 0.949 . S
C76 C75 1.390 . S
C76 C77 1.357 . S
C77 C76 1.357 . S
C77 C78 1.370 . S
C77 H103 0.950 . S
C78 N73 1.307 . S
C78 C77 1.370 . S
C78 H96 0.948 1_455 S
Zn79 N73 2.020 . S
Zn79 O88 2.039 . S
Zn79 O94 2.034 . S
Zn79 O98 2.025 1_455 S
Zn79 O100 2.024 1_455 S
C80 O99 1.246 1_545 S
C80 O100 1.249 . S
N81 C82 1.307 . S
N81 C83 1.333 . S
N81 Zn87 2.020 . S
C82 N81 1.307 . S
C82 C86 1.370 . S
C82 H93 0.948 1_655 S
C83 N81 1.333 . S
C83 C84 1.379 . S
C83 H91 0.952 . S
C84 C83 1.379 . S
C84 C85 1.390 . S
C84 H104 0.949 . S
C85 C84 1.390 . S
C85 C86 1.357 . S
C86 C82 1.370 . S
C86 C85 1.357 . S
C86 H105 0.945 1_655 S
Zn87 N81 2.020 . S
Zn87 O90 2.025 1_655 S
Zn87 O95 2.024 1_655 S
Zn87 O97 2.039 . S
Zn87 O99 2.034 . S
O88 C72 1.251 . S
O88 Zn79 2.039 . S
C89 O94 1.246 1_565 S
C89 O95 1.249 . S
O90 C72 1.254 1_565 S
O90 Zn87 2.025 1_455 S
H91 C83 0.952 . S
H92 C74 0.952 . S
H93 C82 0.948 1_455 S
O94 Zn79 2.034 . S
O94 C89 1.246 1_545 S
O95 Zn87 2.024 1_455 S
O95 C89 1.249 . S
H96 C78 0.948 1_655 S
O97 Zn87 2.039 . S
O97 C101 1.251 . S
O98 Zn79 2.025 1_655 S
O98 C101 1.254 1_545 S
O99 C80 1.246 1_565 S
O99 Zn87 2.034 . S
O100 Zn79 2.024 1_655 S
O100 C80 1.249 . S
C101 O97 1.251 . S
C101 O98 1.254 1_565 S
H102 C75 0.949 . S
H103 C77 0.950 . S
H104 C84 0.949 . S
H105 C86 0.945 1_455 S
C106 O122 1.251 1_565 S
C106 O124 1.254 . S
N107 C108 1.333 . S
N107 C112 1.307 . S
N107 Zn113 2.020 . S
C108 N107 1.333 . S
C108 C109 1.379 . S
C108 H126 0.952 . S
C109 C108 1.379 . S
C109 C110 1.390 . S
C109 H136 0.949 . S
C110 C109 1.390 . S
C110 C111 1.357 . S
C111 C110 1.357 . S
C111 C112 1.370 . S
C111 H137 0.950 . S
C112 N107 1.307 . S
C112 C111 1.370 . S
C112 H130 0.948 . S
Zn113 N107 2.020 . S
Zn113 O122 2.039 . S
Zn113 O128 2.034 1_556 S
Zn113 O132 2.025 1_556 S
Zn113 O134 2.024 . S
C114 O133 1.246 . S
C114 O134 1.249 1_565 S
N115 C116 1.307 . S
N115 C117 1.333 . S
N115 Zn121 2.020 . S
C116 N115 1.307 . S
C116 C120 1.370 . S
C116 H127 0.948 . S
C117 N115 1.333 . S
C117 C118 1.379 . S
C117 H125 0.952 . S
C118 C117 1.379 . S
C118 C119 1.390 . S
C118 H138 0.949 . S
C119 C118 1.390 . S
C119 C120 1.357 . S
C120 C116 1.370 . S
C120 C119 1.357 . S
C120 H139 0.950 . S
Zn121 N115 2.020 . S
Zn121 O124 2.025 1_554 S
Zn121 O129 2.024 . S
Zn121 O131 2.039 . S
Zn121 O133 2.034 1_554 S
O122 C106 1.251 1_545 S
O122 Zn113 2.039 . S
C123 O128 1.246 . S
C123 O129 1.249 1_545 S
O124 C106 1.254 . S
O124 Zn121 2.025 1_556 S
H125 C117 0.952 . S
H126 C108 0.952 . S
H127 C116 0.948 . S
O128 Zn113 2.034 1_554 S
O128 C123 1.246 . S
O129 Zn121 2.024 . S
O129 C123 1.249 1_565 S
H130 C112 0.948 . S
O131 Zn121 2.039 . S
O131 C135 1.251 1_565 S
O132 Zn113 2.025 1_554 S
O132 C135 1.254 . S
O133 C114 1.246 . S
O133 Zn121 2.034 1_556 S
O134 Zn113 2.024 . S
O134 C114 1.249 1_545 S
C135 O131 1.251 1_545 S
C135 O132 1.254 . S
H136 C109 0.949 . S
H137 C111 0.950 . S
H138 C118 0.949 . S
H139 C120 0.950 . S
C140 O156 1.251 . S
C140 O158 1.254 . S
N141 C142 1.333 . S
N141 C146 1.307 . S
N141 Zn147 2.020 . S
C142 N141 1.333 . S
C142 C143 1.379 . S
C142 H160 0.952 . S
C143 C142 1.379 . S
C143 C144 1.390 . S
C143 H170 0.949 . S
C144 C143 1.390 . S
C144 C145 1.357 . S
C145 C144 1.357 . S
C145 C146 1.370 . S
C145 H171 0.950 . S
C146 N141 1.307 . S
C146 C145 1.370 . S
C146 H164 0.948 . S
Zn147 N141 2.020 . S
Zn147 O156 2.039 . S
Zn147 O162 2.034 . S
Zn147 O166 2.025 . S
Zn147 O168 2.024 . S
C148 O167 1.246 . S
C148 O168 1.249 . S
N149 C150 1.307 . S
N149 C151 1.333 . S
N149 Zn155 2.020 . S
C150 N149 1.307 . S
C150 C154 1.370 . S
C150 H161 0.948 . S
C151 N149 1.333 . S
C151 C152 1.379 . S
C151 H159 0.952 . S
C152 C151 1.379 . S
C152 C153 1.390 . S
C152 H172 0.949 . S
C153 C152 1.390 . S
C153 C154 1.357 . S
C154 C150 1.370 . S
C154 C153 1.357 . S
C154 H173 0.950 . S
Zn155 N149 2.020 . S
Zn155 O158 2.025 . S
Zn155 O163 2.024 . S
Zn155 O165 2.039 . S
Zn155 O167 2.034 . S
O156 C140 1.251 . S
O156 Zn147 2.039 . S
C157 O162 1.246 . S
C157 O163 1.249 . S
O158 C140 1.254 . S
O158 Zn155 2.025 . S
H159 C151 0.952 . S
H160 C142 0.952 . S
H161 C150 0.948 . S
O162 Zn147 2.034 . S
O162 C157 1.246 . S
O163 Zn155 2.024 . S
O163 C157 1.249 . S
H164 C146 0.948 . S
O165 Zn155 2.039 . S
O165 C169 1.251 . S
O166 Zn147 2.025 . S
O166 C169 1.254 . S
O167 C148 1.246 . S
O167 Zn155 2.034 . S
O168 Zn147 2.024 . S
O168 C148 1.249 . S
C169 O165 1.251 . S
C169 O166 1.254 . S
H170 C143 0.949 . S
H171 C145 0.950 . S
H172 C152 0.949 . S
H173 C154 0.950 . S
C174 O190 1.251 1_556 S
C174 O192 1.254 . S
N175 C176 1.333 . S
N175 C180 1.307 . S
N175 Zn181 2.020 . S
C176 N175 1.333 . S
C176 C177 1.379 . S
C176 H194 0.952 . S
C177 C176 1.379 . S
C177 C178 1.390 . S
C177 H204 0.949 . S
C178 C177 1.390 . S
C178 C179 1.357 . S
C179 C178 1.357 . S
C179 C180 1.370 . S
C179 H205 0.950 . S
C180 N175 1.307 . S
C180 C179 1.370 . S
C180 H198 0.948 . S
Zn181 N175 2.020 . S
Zn181 O190 2.039 . S
Zn181 O196 2.034 1_655 S
Zn181 O200 2.025 1_655 S
Zn181 O202 2.024 . S
C182 O201 1.246 . S
C182 O202 1.249 1_556 S
N183 C184 1.307 . S
N183 C185 1.333 . S
N183 Zn189 2.020 . S
C184 N183 1.307 . S
C184 C188 1.370 . S
C184 H195 0.948 . S
C185 N183 1.333 . S
C185 C186 1.379 . S
C185 H193 0.952 . S
C186 C185 1.379 . S
C186 C187 1.390 . S
C186 H206 0.949 . S
C187 C186 1.390 . S
C187 C188 1.357 . S
C188 C184 1.370 . S
C188 C187 1.357 . S
C188 H207 0.950 . S
Zn189 N183 2.020 . S
Zn189 O192 2.025 1_455 S
Zn189 O197 2.024 . S
Zn189 O199 2.039 . S
Zn189 O201 2.034 1_455 S
O190 C174 1.251 1_554 S
O190 Zn181 2.039 . S
C191 O196 1.246 . S
C191 O197 1.249 1_554 S
O192 C174 1.254 . S
O192 Zn189 2.025 1_655 S
H193 C185 0.952 . S
H194 C176 0.952 . S
H195 C184 0.948 . S
O196 Zn181 2.034 1_455 S
O196 C191 1.246 . S
O197 Zn189 2.024 . S
O197 C191 1.249 1_556 S
H198 C180 0.948 . S
O199 Zn189 2.039 . S
O199 C203 1.251 1_556 S
O200 Zn181 2.025 1_455 S
O200 C203 1.254 . S
O201 C182 1.246 . S
O201 Zn189 2.034 1_655 S
O202 Zn181 2.024 . S
O202 C182 1.249 1_554 S
C203 O199 1.251 1_554 S
C203 O200 1.254 . S
H204 C177 0.949 . S
H205 C179 0.950 . S
H206 C186 0.949 . S
H207 C188 0.950 . S
H208 C214 0.930 . S
H209 C217 0.930 . S
H210 C218 0.930 . S
H211 C219 0.930 . S
H212 C222 0.930 1_565 S
H213 C223 0.930 1_565 S
C214 H208 0.930 . S
C214 C215 1.355 . S
C214 C216 1.415 . S
C215 C214 1.355 . S
C215 C217 1.419 . S
C216 C214 1.415 . S
C216 C221 1.425 . S
C216 C223 1.409 . S
C217 H209 0.930 . S
C217 C215 1.419 . S
C217 C218 1.362 . S
C218 H210 0.930 . S
C218 C217 1.362 . S
C218 C221 1.409 . S
C219 H211 0.930 . S
C219 C220 1.355 . S
C219 C221 1.415 . S
C220 C219 1.355 . S
C220 C222 1.419 . S
C221 C216 1.425 . S
C221 C218 1.409 . S
C221 C219 1.415 . S
C222 H212 0.930 1_545 S
C222 C220 1.419 . S
C222 C223 1.362 . S
C223 H213 0.930 1_545 S
C223 C216 1.409 . S
C223 C222 1.362 . S
H224 C230 0.930 . S
H225 C233 0.930 . S
H226 C234 0.930 . S
H227 C235 0.930 . S
H228 C238 0.930 . S
H229 C239 0.930 . S
C230 H224 0.930 . S
C230 C231 1.355 . S
C230 C232 1.415 . S
C231 C230 1.355 . S
C231 C233 1.419 . S
C232 C230 1.415 . S
C232 C237 1.425 . S
C232 C239 1.409 . S
C233 H225 0.930 . S
C233 C231 1.419 . S
C233 C234 1.362 . S
C234 H226 0.930 . S
C234 C233 1.362 . S
C234 C237 1.409 . S
C235 H227 0.930 . S
C235 C236 1.355 . S
C235 C237 1.415 . S
C236 C235 1.355 . S
C236 C238 1.419 . S
C237 C232 1.425 . S
C237 C234 1.409 . S
C237 C235 1.415 . S
C238 H228 0.930 . S
C238 C236 1.419 . S
C238 C239 1.362 . S
C239 H229 0.930 . S
C239 C232 1.409 . S
C239 C238 1.362 . S
H240 C246 0.930 . S
H241 C249 0.930 . S
H242 C250 0.930 . S
H243 C251 0.930 . S
H244 C254 0.930 . S
H245 C255 0.930 . S
C246 H240 0.930 . S
C246 C247 1.355 . S
C246 C248 1.415 . S
C247 C246 1.355 . S
C247 C249 1.419 . S
C248 C246 1.415 . S
C248 C253 1.425 . S
C248 C255 1.409 . S
C249 H241 0.930 . S
C249 C247 1.419 . S
C249 C250 1.362 . S
C250 H242 0.930 . S
C250 C249 1.362 . S
C250 C253 1.409 . S
C251 H243 0.930 . S
C251 C252 1.355 . S
C251 C253 1.415 . S
C252 C251 1.355 . S
C252 C254 1.419 . S
C253 C248 1.425 . S
C253 C250 1.409 . S
C253 C251 1.415 . S
C254 H244 0.930 . S
C254 C252 1.419 . S
C254 C255 1.362 . S
C255 H245 0.930 . S
C255 C248 1.409 . S
C255 C254 1.362 . S
H256 C262 0.930 . S
H257 C265 0.930 . S
H258 C266 0.930 . S
H259 C267 0.930 . S
H260 C270 0.930 . S
H261 C271 0.930 . S
C262 H256 0.930 . S
C262 C263 1.355 . S
C262 C264 1.415 . S
C263 C262 1.355 . S
C263 C265 1.419 . S
C264 C262 1.415 . S
C264 C269 1.425 . S
C264 C271 1.409 . S
C265 H257 0.930 . S
C265 C263 1.419 . S
C265 C266 1.362 . S
C266 H258 0.930 . S
C266 C265 1.362 . S
C266 C269 1.409 . S
C267 H259 0.930 . S
C267 C268 1.355 . S
C267 C269 1.415 . S
C268 C267 1.355 . S
C268 C270 1.419 . S
C269 C264 1.425 . S
C269 C266 1.409 . S
C269 C267 1.415 . S
C270 H260 0.930 . S
C270 C268 1.419 . S
C270 C271 1.362 . S
C271 H261 0.930 . S
C271 C264 1.409 . S
C271 C270 1.362 . S
H272 C278 0.930 . S
H273 C281 0.930 . S
H274 C282 0.930 . S
H275 C283 0.930 . S
H276 C286 0.930 1_565 S
H277 C287 0.930 1_565 S
C278 H272 0.930 . S
C278 C279 1.355 . S
C278 C280 1.415 . S
C279 C278 1.355 . S
C279 C281 1.419 . S
C280 C278 1.415 . S
C280 C285 1.425 . S
C280 C287 1.409 . S
C281 H273 0.930 . S
C281 C279 1.419 . S
C281 C282 1.362 . S
C282 H274 0.930 . S
C282 C281 1.362 . S
C282 C285 1.409 . S
C283 H275 0.930 . S
C283 C284 1.355 . S
C283 C285 1.415 . S
C284 C283 1.355 . S
C284 C286 1.419 . S
C285 C280 1.425 . S
C285 C282 1.409 . S
C285 C283 1.415 . S
C286 H276 0.930 1_545 S
C286 C284 1.419 . S
C286 C287 1.362 . S
C287 H277 0.930 1_545 S
C287 C280 1.409 . S
C287 C286 1.362 . S
H288 C294 0.930 . S
H289 C297 0.930 . S
H290 C298 0.930 . S
H291 C299 0.930 . S
H292 C302 0.930 . S
H293 C303 0.930 . S
C294 H288 0.930 . S
C294 C295 1.355 . S
C294 C296 1.415 . S
C295 C294 1.355 . S
C295 C297 1.419 . S
C296 C294 1.415 . S
C296 C301 1.425 . S
C296 C303 1.409 . S
C297 H289 0.930 . S
C297 C295 1.419 . S
C297 C298 1.362 . S
C298 H290 0.930 . S
C298 C297 1.362 . S
C298 C301 1.409 . S
C299 H291 0.930 . S
C299 C300 1.355 . S
C299 C301 1.415 . S
C300 C299 1.355 . S
C300 C302 1.419 . S
C301 C296 1.425 . S
C301 C298 1.409 . S
C301 C299 1.415 . S
C302 H292 0.930 . S
C302 C300 1.419 . S
C302 C303 1.362 . S
C303 H293 0.930 . S
C303 C296 1.409 . S
C303 C302 1.362 . S
H304 C310 0.930 . S
H305 C313 0.930 . S
H306 C314 0.930 1_554 S
H307 C315 0.930 1_554 S
H308 C318 0.930 . S
H309 C319 0.930 . S
C310 H304 0.930 . S
C310 C311 1.355 . S
C310 C312 1.415 . S
C311 C310 1.355 . S
C311 C313 1.419 . S
C312 C310 1.415 . S
C312 C317 1.425 . S
C312 C319 1.409 . S
C313 H305 0.930 . S
C313 C311 1.419 . S
C313 C314 1.362 . S
C314 H306 0.930 1_556 S
C314 C313 1.362 . S
C314 C317 1.409 . S
C315 H307 0.930 1_556 S
C315 C316 1.355 . S
C315 C317 1.415 . S
C316 C315 1.355 . S
C316 C318 1.419 . S
C317 C312 1.425 . S
C317 C314 1.409 . S
C317 C315 1.415 . S
C318 H308 0.930 . S
C318 C316 1.419 . S
C318 C319 1.362 . S
C319 H309 0.930 . S
C319 C312 1.409 . S
C319 C318 1.362 . S
H320 C326 0.930 . S
H321 C329 0.930 . S
H322 C330 0.930 . S
H323 C331 0.930 . S
H324 C334 0.930 . S
H325 C335 0.930 . S
C326 H320 0.930 . S
C326 C327 1.355 . S
C326 C328 1.415 . S
C327 C326 1.355 . S
C327 C329 1.419 . S
C328 C326 1.415 . S
C328 C333 1.425 . S
C328 C335 1.409 . S
C329 H321 0.930 . S
C329 C327 1.419 . S
C329 C330 1.362 . S
C330 H322 0.930 . S
C330 C329 1.362 . S
C330 C333 1.409 . S
C331 H323 0.930 . S
C331 C332 1.355 . S
C331 C333 1.415 . S
C332 C331 1.355 . S
C332 C334 1.419 . S
C333 C328 1.425 . S
C333 C330 1.409 . S
C333 C331 1.415 . S
C334 H324 0.930 . S
C334 C332 1.419 . S
C334 C335 1.362 . S
C335 H325 0.930 . S
C335 C328 1.409 . S
C335 C334 1.362 . S
H336 C342 0.930 . S
H337 C345 0.930 . S
H338 C346 0.930 . S
H339 C347 0.930 . S
H340 C350 0.930 . S
H341 C351 0.930 . S
C342 H336 0.930 . S
C342 C343 1.355 . S
C342 C344 1.415 . S
C343 C342 1.355 . S
C343 C345 1.419 . S
C344 C342 1.415 . S
C344 C349 1.425 . S
C344 C351 1.409 . S
C345 H337 0.930 . S
C345 C343 1.419 . S
C345 C346 1.362 . S
C346 H338 0.930 . S
C346 C345 1.362 . S
C346 C349 1.409 . S
C347 H339 0.930 . S
C347 C348 1.355 . S
C347 C349 1.415 . S
C348 C347 1.355 . S
C348 C350 1.419 . S
C349 C344 1.425 . S
C349 C346 1.409 . S
C349 C347 1.415 . S
C350 H340 0.930 . S
C350 C348 1.419 . S
C350 C351 1.362 . S
C351 H341 0.930 . S
C351 C344 1.409 . S
C351 C350 1.362 . S
H352 C358 0.930 . S
H353 C361 0.930 . S
H354 C362 0.930 . S
H355 C363 0.930 . S
H356 C366 0.930 . S
H357 C367 0.930 . S
C358 H352 0.930 . S
C358 C359 1.355 . S
C358 C360 1.415 . S
C359 C358 1.355 . S
C359 C361 1.419 . S
C360 C358 1.415 . S
C360 C365 1.425 . S
C360 C367 1.409 . S
C361 H353 0.930 . S
C361 C359 1.419 . S
C361 C362 1.362 . S
C362 H354 0.930 . S
C362 C361 1.362 . S
C362 C365 1.409 . S
C363 H355 0.930 . S
C363 C364 1.355 . S
C363 C365 1.415 . S
C364 C363 1.355 . S
C364 C366 1.419 . S
C365 C360 1.425 . S
C365 C362 1.409 . S
C365 C363 1.415 . S
C366 H356 0.930 . S
C366 C364 1.419 . S
C366 C367 1.362 . S
C367 H357 0.930 . S
C367 C360 1.409 . S
C367 C366 1.362 . S
H368 C374 0.930 . S
H369 C377 0.930 . S
H370 C378 0.930 . S
H371 C379 0.930 . S
H372 C382 0.930 . S
H373 C383 0.930 . S
C374 H368 0.930 . S
C374 C375 1.355 . S
C374 C376 1.415 . S
C375 C374 1.355 . S
C375 C377 1.419 . S
C376 C374 1.415 . S
C376 C381 1.425 . S
C376 C383 1.409 . S
C377 H369 0.930 . S
C377 C375 1.419 . S
C377 C378 1.362 . S
C378 H370 0.930 . S
C378 C377 1.362 . S
C378 C381 1.409 . S
C379 H371 0.930 . S
C379 C380 1.355 . S
C379 C381 1.415 . S
C380 C379 1.355 . S
C380 C382 1.419 . S
C381 C376 1.425 . S
C381 C378 1.409 . S
C381 C379 1.415 . S
C382 H372 0.930 . S
C382 C380 1.419 . S
C382 C383 1.362 . S
C383 H373 0.930 . S
C383 C376 1.409 . S
C383 C382 1.362 . S
H384 C390 0.930 . S
H385 C393 0.930 . S
H386 C394 0.930 . S
H387 C395 0.930 . S
H388 C398 0.930 . S
H389 C399 0.930 . S
C390 H384 0.930 . S
C390 C391 1.355 . S
C390 C392 1.415 . S
C391 C390 1.355 . S
C391 C393 1.419 . S
C392 C390 1.415 . S
C392 C397 1.425 . S
C392 C399 1.409 . S
C393 H385 0.930 . S
C393 C391 1.419 . S
C393 C394 1.362 . S
C394 H386 0.930 . S
C394 C393 1.362 . S
C394 C397 1.409 . S
C395 H387 0.930 . S
C395 C396 1.355 . S
C395 C397 1.415 . S
C396 C395 1.355 . S
C396 C398 1.419 . S
C397 C392 1.425 . S
C397 C394 1.409 . S
C397 C395 1.415 . S
C398 H388 0.930 . S
C398 C396 1.419 . S
C398 C399 1.362 . S
C399 H389 0.930 . S
C399 C392 1.409 . S
C399 C398 1.362 . S
H400 C406 0.930 . S
H401 C409 0.930 . S
H402 C410 0.930 1_455 S
H403 C411 0.930 1_455 S
H404 C414 0.930 . S
H405 C415 0.930 . S
C406 H400 0.930 . S
C406 C407 1.355 . S
C406 C408 1.415 . S
C407 C406 1.355 . S
C407 C409 1.419 . S
C408 C406 1.415 . S
C408 C413 1.425 . S
C408 C415 1.409 . S
C409 H401 0.930 . S
C409 C407 1.419 . S
C409 C410 1.362 . S
C410 H402 0.930 1_655 S
C410 C409 1.362 . S
C410 C413 1.409 . S
C411 H403 0.930 1_655 S
C411 C412 1.355 . S
C411 C413 1.415 . S
C412 C411 1.355 . S
C412 C414 1.419 . S
C413 C408 1.425 . S
C413 C410 1.409 . S
C413 C411 1.415 . S
C414 H404 0.930 . S
C414 C412 1.419 . S
C414 C415 1.362 . S
C415 H405 0.930 . S
C415 C408 1.409 . S
C415 C414 1.362 . S
H416 C422 0.930 . S
H417 C425 0.930 . S
H418 C426 0.930 . S
H419 C427 0.930 . S
H420 C430 0.930 1_565 S
H421 C431 0.930 . S
C422 H416 0.930 . S
C422 C423 1.355 . S
C422 C424 1.415 . S
C423 C422 1.355 . S
C423 C425 1.419 . S
C424 C422 1.415 . S
C424 C429 1.425 . S
C424 C431 1.409 . S
C425 H417 0.930 . S
C425 C423 1.419 . S
C425 C426 1.362 . S
C426 H418 0.930 . S
C426 C425 1.362 . S
C426 C429 1.409 . S
C427 H419 0.930 . S
C427 C428 1.355 . S
C427 C429 1.415 . S
C428 C427 1.355 . S
C428 C430 1.419 . S
C429 C424 1.425 . S
C429 C426 1.409 . S
C429 C427 1.415 . S
C430 H420 0.930 1_545 S
C430 C428 1.419 . S
C430 C431 1.362 . S
C431 H421 0.930 . S
C431 C424 1.409 . S
C431 C430 1.362 . S
H432 C438 0.930 . S
H433 C441 0.930 . S
H434 C442 0.930 . S
H435 C443 0.930 . S
H436 C446 0.930 . S
H437 C447 0.930 . S
C438 H432 0.930 . S
C438 C439 1.355 . S
C438 C440 1.415 . S
C439 C438 1.355 . S
C439 C441 1.419 . S
C440 C438 1.415 . S
C440 C445 1.425 . S
C440 C447 1.409 . S
C441 H433 0.930 . S
C441 C439 1.419 . S
C441 C442 1.362 . S
C442 H434 0.930 . S
C442 C441 1.362 . S
C442 C445 1.409 . S
C443 H435 0.930 . S
C443 C444 1.355 . S
C443 C445 1.415 . S
C444 C443 1.355 . S
C444 C446 1.419 . S
C445 C440 1.425 . S
C445 C442 1.409 . S
C445 C443 1.415 . S
C446 H436 0.930 . S
C446 C444 1.419 . S
C446 C447 1.362 . S
C447 H437 0.930 . S
C447 C440 1.409 . S
C447 C446 1.362 . S
H448 C454 0.930 . S
H449 C457 0.930 . S
H450 C458 0.930 . S
H451 C459 0.930 . S
H452 C462 0.930 . S
H453 C463 0.930 . S
C454 H448 0.930 . S
C454 C455 1.355 . S
C454 C456 1.415 . S
C455 C454 1.355 . S
C455 C457 1.419 . S
C456 C454 1.415 . S
C456 C461 1.425 . S
C456 C463 1.409 . S
C457 H449 0.930 . S
C457 C455 1.419 . S
C457 C458 1.362 . S
C458 H450 0.930 . S
C458 C457 1.362 . S
C458 C461 1.409 . S
C459 H451 0.930 . S
C459 C460 1.355 . S
C459 C461 1.415 . S
C460 C459 1.355 . S
C460 C462 1.419 . S
C461 C456 1.425 . S
C461 C458 1.409 . S
C461 C459 1.415 . S
C462 H452 0.930 . S
C462 C460 1.419 . S
C462 C463 1.362 . S
C463 H453 0.930 . S
C463 C456 1.409 . S
C463 C462 1.362 . S
H464 C470 0.930 . S
H465 C473 0.930 . S
H466 C474 0.930 . S
H467 C475 0.930 . S
H468 C478 0.930 1_545 S
H469 C479 0.930 1_545 S
C470 H464 0.930 . S
C470 C471 1.355 . S
C470 C472 1.415 . S
C471 C470 1.355 . S
C471 C473 1.419 . S
C472 C470 1.415 . S
C472 C477 1.425 . S
C472 C479 1.409 . S
C473 H465 0.930 . S
C473 C471 1.419 . S
C473 C474 1.362 . S
C474 H466 0.930 . S
C474 C473 1.362 . S
C474 C477 1.409 . S
C475 H467 0.930 . S
C475 C476 1.355 . S
C475 C477 1.415 . S
C476 C475 1.355 . S
C476 C478 1.419 . S
C477 C472 1.425 . S
C477 C474 1.409 . S
C477 C475 1.415 . S
C478 H468 0.930 1_565 S
C478 C476 1.419 . S
C478 C479 1.362 . S
C479 H469 0.930 1_565 S
C479 C472 1.409 . S
C479 C478 1.362 . S
H480 C486 0.930 . S
H481 C489 0.930 . S
H482 C490 0.930 . S
H483 C491 0.930 . S
H484 C494 0.930 . S
H485 C495 0.930 . S
C486 H480 0.930 . S
C486 C487 1.355 . S
C486 C488 1.415 . S
C487 C486 1.355 . S
C487 C489 1.419 . S
C488 C486 1.415 . S
C488 C493 1.425 . S
C488 C495 1.409 . S
C489 H481 0.930 . S
C489 C487 1.419 . S
C489 C490 1.362 . S
C490 H482 0.930 . S
C490 C489 1.362 . S
C490 C493 1.409 . S
C491 H483 0.930 . S
C491 C492 1.355 . S
C491 C493 1.415 . S
C492 C491 1.355 . S
C492 C494 1.419 . S
C493 C488 1.425 . S
C493 C490 1.409 . S
C493 C491 1.415 . S
C494 H484 0.930 . S
C494 C492 1.419 . S
C494 C495 1.362 . S
C495 H485 0.930 . S
C495 C488 1.409 . S
C495 C494 1.362 . S
H496 C502 0.930 . S
H497 C505 0.930 . S
H498 C506 0.930 . S
H499 C507 0.930 . S
H500 C510 0.930 . S
H501 C511 0.930 . S
C502 H496 0.930 . S
C502 C503 1.355 . S
C502 C504 1.415 . S
C503 C502 1.355 . S
C503 C505 1.419 . S
C504 C502 1.415 . S
C504 C509 1.425 . S
C504 C511 1.409 . S
C505 H497 0.930 . S
C505 C503 1.419 . S
C505 C506 1.362 . S
C506 H498 0.930 . S
C506 C505 1.362 . S
C506 C509 1.409 . S
C507 H499 0.930 . S
C507 C508 1.355 . S
C507 C509 1.415 . S
C508 C507 1.355 . S
C508 C510 1.419 . S
C509 C504 1.425 . S
C509 C506 1.409 . S
C509 C507 1.415 . S
C510 H500 0.930 . S
C510 C508 1.419 . S
C510 C511 1.362 . S
C511 H501 0.930 . S
C511 C504 1.409 . S
C511 C510 1.362 . S
H512 C518 0.930 . S
H513 C521 0.930 . S
H514 C522 0.930 . S
H515 C523 0.930 . S
H516 C526 0.930 . S
H517 C527 0.930 . S
C518 H512 0.930 . S
C518 C519 1.355 . S
C518 C520 1.415 . S
C519 C518 1.355 . S
C519 C521 1.419 . S
C520 C518 1.415 . S
C520 C525 1.425 . S
C520 C527 1.409 . S
C521 H513 0.930 . S
C521 C519 1.419 . S
C521 C522 1.362 . S
C522 H514 0.930 . S
C522 C521 1.362 . S
C522 C525 1.409 . S
C523 H515 0.930 . S
C523 C524 1.355 . S
C523 C525 1.415 . S
C524 C523 1.355 . S
C524 C526 1.419 . S
C525 C520 1.425 . S
C525 C522 1.409 . S
C525 C523 1.415 . S
C526 H516 0.930 . S
C526 C524 1.419 . S
C526 C527 1.362 . S
C527 H517 0.930 . S
C527 C520 1.409 . S
C527 C526 1.362 . S
H528 C534 0.930 . S
H529 C537 0.930 . S
H530 C538 0.930 . S
H531 C539 0.930 . S
H532 C542 0.930 1_455 S
H533 C543 0.930 1_455 S
C534 H528 0.930 . S
C534 C535 1.355 . S
C534 C536 1.415 . S
C535 C534 1.355 . S
C535 C537 1.419 . S
C536 C534 1.415 . S
C536 C541 1.425 . S
C536 C543 1.409 . S
C537 H529 0.930 . S
C537 C535 1.419 . S
C537 C538 1.362 . S
C538 H530 0.930 . S
C538 C537 1.362 . S
C538 C541 1.409 . S
C539 H531 0.930 . S
C539 C540 1.355 . S
C539 C541 1.415 . S
C540 C539 1.355 . S
C540 C542 1.419 . S
C541 C536 1.425 . S
C541 C538 1.409 . S
C541 C539 1.415 . S
C542 H532 0.930 1_655 S
C542 C540 1.419 . S
C542 C543 1.362 . S
C543 H533 0.930 1_655 S
C543 C536 1.409 . S
C543 C542 1.362 . S
H544 C550 0.930 . S
H545 C553 0.930 . S
H546 C554 0.930 . S
H547 C555 0.930 . S
H548 C558 0.930 . S
H549 C559 0.930 . S
C550 H544 0.930 . S
C550 C551 1.355 . S
C550 C552 1.415 . S
C551 C550 1.355 . S
C551 C553 1.419 . S
C552 C550 1.415 . S
C552 C557 1.425 . S
C552 C559 1.409 . S
C553 H545 0.930 . S
C553 C551 1.419 . S
C553 C554 1.362 . S
C554 H546 0.930 . S
C554 C553 1.362 . S
C554 C557 1.409 . S
C555 H547 0.930 . S
C555 C556 1.355 . S
C555 C557 1.415 . S
C556 C555 1.355 . S
C556 C558 1.419 . S
C557 C552 1.425 . S
C557 C554 1.409 . S
C557 C555 1.415 . S
C558 H548 0.930 . S
C558 C556 1.419 . S
C558 C559 1.362 . S
C559 H549 0.930 . S
C559 C552 1.409 . S
C559 C558 1.362 . S
H560 C566 0.930 . S
H561 C569 0.930 . S
H562 C570 0.930 . S
H563 C571 0.930 . S
H564 C574 0.930 . S
H565 C575 0.930 . S
C566 H560 0.930 . S
C566 C567 1.355 . S
C566 C568 1.415 . S
C567 C566 1.355 . S
C567 C569 1.419 . S
C568 C566 1.415 . S
C568 C573 1.425 . S
C568 C575 1.409 . S
C569 H561 0.930 . S
C569 C567 1.419 . S
C569 C570 1.362 . S
C570 H562 0.930 . S
C570 C569 1.362 . S
C570 C573 1.409 . S
C571 H563 0.930 . S
C571 C572 1.355 . S
C571 C573 1.415 . S
C572 C571 1.355 . S
C572 C574 1.419 . S
C573 C568 1.425 . S
C573 C570 1.409 . S
C573 C571 1.415 . S
C574 H564 0.930 . S
C574 C572 1.419 . S
C574 C575 1.362 . S
C575 H565 0.930 . S
C575 C568 1.409 . S
C575 C574 1.362 . S
H576 C582 0.930 . S
H577 C585 0.930 . S
H578 C586 0.930 . S
H579 C587 0.930 . S
H580 C590 0.930 . S
H581 C591 0.930 . S
C582 H576 0.930 . S
C582 C583 1.355 . S
C582 C584 1.415 . S
C583 C582 1.355 . S
C583 C585 1.419 . S
C584 C582 1.415 . S
C584 C589 1.425 . S
C584 C591 1.409 . S
C585 H577 0.930 . S
C585 C583 1.419 . S
C585 C586 1.362 . S
C586 H578 0.930 . S
C586 C585 1.362 . S
C586 C589 1.409 . S
C587 H579 0.930 . S
C587 C588 1.355 . S
C587 C589 1.415 . S
C588 C587 1.355 . S
C588 C590 1.419 . S
C589 C584 1.425 . S
C589 C586 1.409 . S
C589 C587 1.415 . S
C590 H580 0.930 . S
C590 C588 1.419 . S
C590 C591 1.362 . S
C591 H581 0.930 . S
C591 C584 1.409 . S
C591 C590 1.362 . S
C215 C5 2.278 . S
C220 C72 2.298 . S
C231 C14 2.243 . S
C236 C114 2.259 . S
C252 C144 0.947 . S
C247 C25 0.942 . S
C263 C34 0.989 . S
C268 C178 0.994 . S
C284 C135 1.789 . S
C279 C7 1.766 . S
C300 C89 1.812 . S
C295 C13 1.801 . S
C316 C182 1.274 . S
C311 C23 1.254 . S
C332 C148 1.312 . S
C327 C31 1.295 . S
C343 C4 2.157 . S
C348 C203 2.163 . S
C364 C110 1.107 . S
C359 C22 1.101 . S
C375 C32 1.051 . S
C380 C85 1.097 . S
C391 C16 2.132 . S
C396 C169 2.143 . S
C412 C101 2.286 . S
C407 C41 2.277 . S
C423 C50 2.248 . S
C428 C123 2.266 . S
C439 C61 0.947 . S
C444 C153 0.947 . S
C455 C67 1.037 . S
C460 C187 1.034 . S
C471 C40 1.791 . S
C476 C106 1.804 . S
C492 C80 1.789 . S
C487 C52 1.781 . S
C508 C191 1.256 . S
C503 C59 1.253 . S
C524 C157 1.291 . S
C519 C70 1.247 . S
C535 C43 2.148 . S
C540 C174 2.160 . S
C556 C119 1.117 . S
C551 C58 1.114 . S
C572 C76 1.094 . S
C567 C68 1.097 . S
C583 C49 2.150 . S
C588 C140 2.153 . S
