# Generated by pormake.
# Topology eea, (3,6)-cn, num edge types: 1
# Building blocks:
#     Node 0, Type 0, BuildingBlock: BETDIP_clean_linker_0, # of connection points: 3
#     Node 1, Type 0, BuildingBlock: BETDIP_clean_linker_0, # of connection points: 3
#     Node 2, Type 0, BuildingBlock: BETDIP_clean_linker_0, # of connection points: 3
#     Node 3, Type 0, BuildingBlock: BETDIP_clean_linker_0, # of connection points: 3
#     Node 4, Type 0, BuildingBlock: BETDIP_clean_linker_0, # of connection points: 3
#     Node 5, Type 0, BuildingBlock: BETDIP_clean_linker_0, # of connection points: 3
#     Node 6, Type 0, BuildingBlock: BETDIP_clean_linker_0, # of connection points: 3
#     Node 7, Type 0, BuildingBlock: BETDIP_clean_linker_0, # of connection points: 3
#     Node 8, Type 0, BuildingBlock: BETDIP_clean_linker_0, # of connection points: 3
#     Node 9, Type 0, BuildingBlock: BETDIP_clean_linker_0, # of connection points: 3
#     Node 10, Type 0, BuildingBlock: BETDIP_clean_linker_0, # of connection points: 3
#     Node 11, Type 0, BuildingBlock: BETDIP_clean_linker_0, # of connection points: 3
#     Node 12, Type 0, BuildingBlock: BETDIP_clean_linker_0, # of connection points: 3
#     Node 13, Type 0, BuildingBlock: BETDIP_clean_linker_0, # of connection points: 3
#     Node 14, Type 0, BuildingBlock: BETDIP_clean_linker_0, # of connection points: 3
#     Node 15, Type 0, BuildingBlock: BETDIP_clean_linker_0, # of connection points: 3
#     Node 16, Type 0, BuildingBlock: BETDIP_clean_linker_0, # of connection points: 3
#     Node 17, Type 0, BuildingBlock: BETDIP_clean_linker_0, # of connection points: 3
#     Node 18, Type 1, BuildingBlock: CUWYAW_clean_sbu_0, # of connection points: 6
#     Node 19, Type 1, BuildingBlock: CUWYAW_clean_sbu_0, # of connection points: 6
#     Node 20, Type 1, BuildingBlock: CUWYAW_clean_sbu_0, # of connection points: 6
#     Node 21, Type 1, BuildingBlock: CUWYAW_clean_sbu_0, # of connection points: 6
#     Node 22, Type 1, BuildingBlock: CUWYAW_clean_sbu_0, # of connection points: 6
#     Node 23, Type 1, BuildingBlock: CUWYAW_clean_sbu_0, # of connection points: 6
#     Node 24, Type 1, BuildingBlock: CUWYAW_clean_sbu_0, # of connection points: 6
#     Node 25, Type 1, BuildingBlock: CUWYAW_clean_sbu_0, # of connection points: 6
#     Node 26, Type 1, BuildingBlock: CUWYAW_clean_sbu_0, # of connection points: 6
#     Edge 27, Type (0, 1), BuildingBlock: CIFDUS_clean_linker_0, # of connection points: 2
#     Edge 28, Type (0, 1), BuildingBlock: CIFDUS_clean_linker_0, # of connection points: 2
#     Edge 29, Type (0, 1), BuildingBlock: CIFDUS_clean_linker_0, # of connection points: 2
#     Edge 30, Type (0, 1), BuildingBlock: CIFDUS_clean_linker_0, # of connection points: 2
#     Edge 31, Type (0, 1), BuildingBlock: CIFDUS_clean_linker_0, # of connection points: 2
#     Edge 32, Type (0, 1), BuildingBlock: CIFDUS_clean_linker_0, # of connection points: 2
#     Edge 33, Type (0, 1), BuildingBlock: CIFDUS_clean_linker_0, # of connection points: 2
#     Edge 34, Type (0, 1), BuildingBlock: CIFDUS_clean_linker_0, # of connection points: 2
#     Edge 35, Type (0, 1), BuildingBlock: CIFDUS_clean_linker_0, # of connection points: 2
#     Edge 36, Type (0, 1), BuildingBlock: CIFDUS_clean_linker_0, # of connection points: 2
#     Edge 37, Type (0, 1), BuildingBlock: CIFDUS_clean_linker_0, # of connection points: 2
#     Edge 38, Type (0, 1), BuildingBlock: CIFDUS_clean_linker_0, # of connection points: 2
#     Edge 39, Type (0, 1), BuildingBlock: CIFDUS_clean_linker_0, # of connection points: 2
#     Edge 40, Type (0, 1), BuildingBlock: CIFDUS_clean_linker_0, # of connection points: 2
#     Edge 41, Type (0, 1), BuildingBlock: CIFDUS_clean_linker_0, # of connection points: 2
#     Edge 42, Type (0, 1), BuildingBlock: CIFDUS_clean_linker_0, # of connection points: 2
#     Edge 43, Type (0, 1), BuildingBlock: CIFDUS_clean_linker_0, # of connection points: 2
#     Edge 44, Type (0, 1), BuildingBlock: CIFDUS_clean_linker_0, # of connection points: 2
#     Edge 45, Type (0, 1), BuildingBlock: CIFDUS_clean_linker_0, # of connection points: 2
#     Edge 46, Type (0, 1), BuildingBlock: CIFDUS_clean_linker_0, # of connection points: 2
#     Edge 47, Type (0, 1), BuildingBlock: CIFDUS_clean_linker_0, # of connection points: 2
#     Edge 48, Type (0, 1), BuildingBlock: CIFDUS_clean_linker_0, # of connection points: 2
#     Edge 49, Type (0, 1), BuildingBlock: CIFDUS_clean_linker_0, # of connection points: 2
#     Edge 50, Type (0, 1), BuildingBlock: CIFDUS_clean_linker_0, # of connection points: 2
#     Edge 51, Type (0, 1), BuildingBlock: CIFDUS_clean_linker_0, # of connection points: 2
#     Edge 52, Type (0, 1), BuildingBlock: CIFDUS_clean_linker_0, # of connection points: 2
#     Edge 53, Type (0, 1), BuildingBlock: CIFDUS_clean_linker_0, # of connection points: 2
#     Edge 54, Type (0, 1), BuildingBlock: CIFDUS_clean_linker_0, # of connection points: 2
#     Edge 55, Type (0, 1), BuildingBlock: CIFDUS_clean_linker_0, # of connection points: 2
#     Edge 56, Type (0, 1), BuildingBlock: CIFDUS_clean_linker_0, # of connection points: 2
#     Edge 57, Type (0, 1), BuildingBlock: CIFDUS_clean_linker_0, # of connection points: 2
#     Edge 58, Type (0, 1), BuildingBlock: CIFDUS_clean_linker_0, # of connection points: 2
#     Edge 59, Type (0, 1), BuildingBlock: CIFDUS_clean_linker_0, # of connection points: 2
#     Edge 60, Type (0, 1), BuildingBlock: CIFDUS_clean_linker_0, # of connection points: 2
#     Edge 61, Type (0, 1), BuildingBlock: CIFDUS_clean_linker_0, # of connection points: 2
#     Edge 62, Type (0, 1), BuildingBlock: CIFDUS_clean_linker_0, # of connection points: 2
#     Edge 63, Type (0, 1), BuildingBlock: CIFDUS_clean_linker_0, # of connection points: 2
#     Edge 64, Type (0, 1), BuildingBlock: CIFDUS_clean_linker_0, # of connection points: 2
#     Edge 65, Type (0, 1), BuildingBlock: CIFDUS_clean_linker_0, # of connection points: 2
#     Edge 66, Type (0, 1), BuildingBlock: CIFDUS_clean_linker_0, # of connection points: 2
#     Edge 67, Type (0, 1), BuildingBlock: CIFDUS_clean_linker_0, # of connection points: 2
#     Edge 68, Type (0, 1), BuildingBlock: CIFDUS_clean_linker_0, # of connection points: 2
#     Edge 69, Type (0, 1), BuildingBlock: CIFDUS_clean_linker_0, # of connection points: 2
#     Edge 70, Type (0, 1), BuildingBlock: CIFDUS_clean_linker_0, # of connection points: 2
#     Edge 71, Type (0, 1), BuildingBlock: CIFDUS_clean_linker_0, # of connection points: 2
#     Edge 72, Type (0, 1), BuildingBlock: CIFDUS_clean_linker_0, # of connection points: 2
#     Edge 73, Type (0, 1), BuildingBlock: CIFDUS_clean_linker_0, # of connection points: 2
#     Edge 74, Type (0, 1), BuildingBlock: CIFDUS_clean_linker_0, # of connection points: 2
#     Edge 75, Type (0, 1), BuildingBlock: CIFDUS_clean_linker_0, # of connection points: 2
#     Edge 76, Type (0, 1), BuildingBlock: CIFDUS_clean_linker_0, # of connection points: 2
#     Edge 77, Type (0, 1), BuildingBlock: CIFDUS_clean_linker_0, # of connection points: 2
#     Edge 78, Type (0, 1), BuildingBlock: CIFDUS_clean_linker_0, # of connection points: 2
#     Edge 79, Type (0, 1), BuildingBlock: CIFDUS_clean_linker_0, # of connection points: 2
#     Edge 80, Type (0, 1), BuildingBlock: CIFDUS_clean_linker_0, # of connection points: 2
# Relax obj value: 0.061
# Max RMSD: 0.216
# Mean RMSD: 0.152
data_MOF--net-eea--node1-CUWYAW_clean_sbu_0--node2-BETDIP_clean_linker_0--edge1-CIFDUS_clean_linker_0
_symmetry_space_group_name_H-M    P1
_symmetry_Int_Tables_number       1
_symmetry_cell_setting            triclinic
loop_
_symmetry_equiv_pos_as_xyz
'x, y, z'
_cell_length_a     47.691875
_cell_length_b     47.325493
_cell_length_c     63.11977
_cell_angle_alpha  93.198421
_cell_angle_beta   93.226338
_cell_angle_gamma 119.87377
loop_
_atom_site_label
_atom_site_type_symbol
_atom_site_fract_x
_atom_site_fract_y
_atom_site_fract_z
_atom_type_partial_charge
H0 H 0.21234 0.10182 0.37548 0.0
H1 H 0.25434 0.16405 0.4341 0.0
H2 H 0.2548 0.07376 0.42637 0.0
H3 H 0.26449 0.20392 0.4122 0.0
C4 C 0.2428 0.19315 0.40103 0.0
C5 C 0.22494 0.10662 0.39123 0.0
C6 C 0.23238 0.08363 0.39926 0.0
C7 C 0.23366 0.13613 0.40335 0.0
C8 C 0.24856 0.14202 0.42427 0.0
C9 C 0.25596 0.11939 0.43268 0.0
C10 C 0.24836 0.09072 0.41994 0.0
N11 N 0.22649 0.159 0.39424 0.0
H12 H 0.93027 0.12939 0.37634 0.0
H13 H 0.86168 0.10201 0.42332 0.0
H14 H 0.9527 0.19191 0.43478 0.0
H15 H 0.82707 0.08415 0.39134 0.0
C16 C 0.83655 0.06934 0.38458 0.0
C17 C 0.9237 0.1347 0.3916 0.0
C18 C 0.94566 0.16357 0.40475 0.0
C19 C 0.89306 0.11266 0.39799 0.0
C20 C 0.88474 0.11933 0.4179 0.0
C21 C 0.9061 0.14772 0.43125 0.0
C22 C 0.93656 0.16961 0.42466 0.0
N23 N 0.8709 0.08368 0.38454 0.0
H24 H 0.89519 0.80762 0.39204 0.0
H25 H 0.9245 0.76768 0.44275 0.0
H26 H 0.83381 0.7663 0.44238 0.0
H27 H 0.97383 0.81445 0.43777 0.0
C28 C 0.97323 0.80968 0.42065 0.0
C29 C 0.89033 0.79543 0.40654 0.0
C30 C 0.86169 0.78773 0.41612 0.0
C31 C 0.91366 0.78919 0.41642 0.0
C32 C 0.90712 0.77334 0.43528 0.0
C33 C 0.87847 0.76517 0.4448 0.0
C34 C 0.85607 0.77264 0.43516 0.0
N35 N 0.94383 0.7996 0.4076 0.0
H36 H 0.08575 0.21133 0.6249 0.0
H37 H 0.13376 0.22007 0.56841 0.0
H38 H 0.05234 0.23511 0.567 0.0
H39 H 0.13483 0.17531 0.58083 0.0
C40 C 0.14397 0.18553 0.59725 0.0
C41 C 0.08707 0.21564 0.60823 0.0
C42 C 0.06558 0.22384 0.59758 0.0
C43 C 0.11044 0.21253 0.59746 0.0
C44 C 0.11417 0.22009 0.57627 0.0
C45 C 0.09369 0.22889 0.56537 0.0
C46 C 0.06905 0.22998 0.57594 0.0
N47 N 0.13044 0.20233 0.60822 0.0
H48 H 0.8264 0.88471 0.64693 0.0
H49 H 0.79985 0.91862 0.59195 0.0
H50 H 0.80237 0.82895 0.58562 0.0
H51 H 0.78253 0.94154 0.6175 0.0
C52 C 0.80322 0.95119 0.62946 0.0
C53 C 0.81872 0.88125 0.63003 0.0
C54 C 0.81482 0.85382 0.61744 0.0
C55 C 0.81256 0.9042 0.62112 0.0
C56 C 0.80348 0.90032 0.59917 0.0
C57 C 0.79987 0.87336 0.58621 0.0
C58 C 0.80478 0.84964 0.59552 0.0
N59 N 0.81755 0.93193 0.63436 0.0
H60 H 0.12451 0.91231 0.64614 0.0
H61 H 0.10639 0.849 0.5892 0.0
H62 H 0.1876 0.94732 0.59607 0.0
H63 H 0.05642 0.82016 0.59985 0.0
C64 C 0.05789 0.82487 0.61701 0.0
C65 C 0.13099 0.90846 0.63049 0.0
C66 C 0.15848 0.93359 0.62258 0.0
C67 C 0.11164 0.87815 0.61855 0.0
C68 C 0.12031 0.8726 0.59836 0.0
C69 C 0.14816 0.89738 0.59032 0.0
C70 C 0.16678 0.92782 0.60248 0.0
N71 N 0.08434 0.85393 0.62785 0.0
H72 H 0.87168 0.42451 0.70663 0.0
H73 H 0.90407 0.4798 0.76801 0.0
H74 H 0.90034 0.38714 0.75905 0.0
H75 H 0.91916 0.52306 0.7472 0.0
C76 C 0.8985 0.51294 0.7352 0.0
C77 C 0.88065 0.42699 0.72318 0.0
C78 C 0.88501 0.40224 0.73127 0.0
C79 C 0.8884 0.45539 0.73611 0.0
C80 C 0.89971 0.45871 0.75767 0.0
C81 C 0.90398 0.43409 0.76618 0.0
C82 C 0.89694 0.40615 0.75274 0.0
N83 N 0.88313 0.47943 0.72712 0.0
H84 H 0.58535 0.47738 0.71489 0.0
H85 H 0.5285 0.43425 0.76631 0.0
H86 H 0.62148 0.52146 0.77968 0.0
H87 H 0.48728 0.41299 0.73875 0.0
C88 C 0.49904 0.4052 0.72746 0.0
C89 C 0.58304 0.47787 0.73185 0.0
C90 C 0.6077 0.50307 0.74625 0.0
C91 C 0.5547 0.45301 0.73892 0.0
C92 C 0.55034 0.45344 0.76068 0.0
C93 C 0.57408 0.47847 0.77537 0.0
C94 C 0.60279 0.50301 0.76811 0.0
N95 N 0.53191 0.42682 0.72396 0.0
H96 H 0.56545 0.14914 0.72347 0.0
H97 H 0.58894 0.105 0.77405 0.0
H98 H 0.49447 0.09584 0.7666 0.0
H99 H 0.61125 0.09368 0.73813 0.0
C100 C 0.62613 0.12003 0.73777 0.0
C101 C 0.55826 0.13476 0.73699 0.0
C102 C 0.52697 0.12304 0.74357 0.0
C103 C 0.58041 0.12783 0.74767 0.0
C104 C 0.57163 0.10984 0.76557 0.0
C105 C 0.54064 0.09846 0.7726 0.0
C106 C 0.51848 0.10488 0.76135 0.0
N107 N 0.61169 0.13981 0.74046 0.0
H108 H 0.77355 0.57858 0.97156 0.0
H109 H 0.8211 0.58692 0.91462 0.0
H110 H 0.73966 0.60237 0.91409 0.0
H111 H 0.83067 0.54967 0.92881 0.0
C112 C 0.83656 0.55808 0.94569 0.0
C113 C 0.7757 0.58383 0.95504 0.0
C114 C 0.75372 0.59112 0.94432 0.0
C115 C 0.79942 0.58137 0.94438 0.0
C116 C 0.80202 0.58743 0.92284 0.0
C117 C 0.78053 0.5949 0.91175 0.0
C118 C 0.75647 0.59687 0.92261 0.0
N119 N 0.82021 0.57263 0.95569 0.0
H120 H 0.47853 0.21983 0.98336 0.0
H121 H 0.45492 0.25709 0.92886 0.0
H122 H 0.43964 0.15957 0.92342 0.0
H123 H 0.49467 0.30479 0.94446 0.0
C124 C 0.4913 0.30314 0.96131 0.0
C125 C 0.46949 0.21637 0.96672 0.0
C126 C 0.45883 0.18623 0.95462 0.0
C127 C 0.46905 0.24239 0.95748 0.0
C128 C 0.45684 0.23781 0.93602 0.0
C129 C 0.44633 0.20813 0.92363 0.0
C130 C 0.44706 0.18228 0.93307 0.0
N131 N 0.48078 0.27275 0.97008 0.0
H132 H 0.80669 0.24767 0.9784 0.0
H133 H 0.77148 0.18554 0.91952 0.0
H134 H 0.86293 0.2751 0.92434 0.0
H135 H 0.72484 0.16255 0.93287 0.0
C136 C 0.72849 0.16641 0.95013 0.0
C137 C 0.81018 0.24271 0.9621 0.0
C138 C 0.83831 0.26501 0.95303 0.0
C139 C 0.78574 0.21423 0.95024 0.0
C140 C 0.78948 0.20783 0.92882 0.0
C141 C 0.81713 0.22991 0.91929 0.0
C142 C 0.8415 0.25822 0.93159 0.0
N143 N 0.75804 0.19272 0.96055 0.0
H144 H 0.55284 0.77133 0.03583 0.0
H145 H 0.56869 0.82632 0.09615 0.0
H146 H 0.57385 0.73799 0.09346 0.0
H147 H 0.52221 0.82792 0.07543 0.0
C148 C 0.53708 0.83838 0.06243 0.0
C149 C 0.55844 0.77443 0.05298 0.0
C150 C 0.56282 0.75112 0.06325 0.0
C151 C 0.5596 0.80099 0.06483 0.0
C152 C 0.5666 0.80512 0.08708 0.0
C153 C 0.57243 0.78282 0.09749 0.0
C154 C 0.57 0.75565 0.08548 0.0
N155 N 0.55432 0.8237 0.05403 0.0
H156 H 0.25982 0.81828 0.04765 0.0
H157 H 0.19817 0.77704 0.09715 0.0
H158 H 0.28314 0.87164 0.11019 0.0
H159 H 0.16075 0.75082 0.06792 0.0
C160 C 0.17477 0.74318 0.05867 0.0
C161 C 0.25523 0.82053 0.06406 0.0
C162 C 0.27624 0.84887 0.07796 0.0
C163 C 0.22725 0.79466 0.07082 0.0
C164 C 0.21938 0.7972 0.0916 0.0
C165 C 0.23895 0.82537 0.10557 0.0
C166 C 0.26777 0.85063 0.09893 0.0
N167 N 0.20801 0.76584 0.05666 0.0
H168 H 0.24669 0.4923 0.06093 0.0
H169 H 0.26595 0.44726 0.11262 0.0
H170 H 0.17682 0.44902 0.10671 0.0
H171 H 0.2899 0.43468 0.08197 0.0
C172 C 0.30483 0.46043 0.07961 0.0
C173 C 0.23914 0.47983 0.07519 0.0
C174 C 0.20848 0.47101 0.08202 0.0
C175 C 0.25981 0.47126 0.08611 0.0
C176 C 0.25006 0.45402 0.1042 0.0
C177 C 0.21984 0.4455 0.11144 0.0
C178 C 0.19957 0.45458 0.10052 0.0
N179 N 0.29044 0.4804 0.0787 0.0
H180 H 0.41516 0.87709 0.29528 0.0
H181 H 0.48559 0.91667 0.24996 0.0
H182 H 0.3997 0.92476 0.24317 0.0
H183 H 0.51882 0.92872 0.28514 0.0
C184 C 0.50616 0.90279 0.28744 0.0
C185 C 0.42307 0.89005 0.28122 0.0
C186 C 0.40376 0.90062 0.27042 0.0
C187 C 0.45277 0.89627 0.27413 0.0
C188 C 0.46304 0.91261 0.25577 0.0
C189 C 0.44386 0.92257 0.24432 0.0
C190 C 0.41416 0.9164 0.25168 0.0
N191 N 0.47159 0.88499 0.28519 0.0
H192 H 0.14457 0.55881 0.31317 0.0
H193 H 0.09539 0.57489 0.26036 0.0
H194 H 0.10515 0.48937 0.25703 0.0
H195 H 0.08263 0.59964 0.28774 0.0
C196 C 0.10673 0.61418 0.29619 0.0
C197 C 0.13184 0.5509 0.29731 0.0
C198 C 0.1264 0.52149 0.28635 0.0
C199 C 0.12011 0.56988 0.28829 0.0
C200 C 0.10333 0.55971 0.26786 0.0
C201 C 0.09763 0.53066 0.25655 0.0
C202 C 0.10933 0.51167 0.26582 0.0
N203 N 0.12631 0.59961 0.29969 0.0
H204 H 0.46405 0.58937 0.30729 0.0
H205 H 0.43075 0.53154 0.24645 0.0
H206 H 0.52609 0.6164 0.25622 0.0
H207 H 0.38212 0.52168 0.25623 0.0
C208 C 0.38331 0.51733 0.27288 0.0
C209 C 0.4682 0.58509 0.29103 0.0
C210 C 0.4983 0.60628 0.28339 0.0
C211 C 0.44337 0.55822 0.27777 0.0
C212 C 0.4492 0.55243 0.25671 0.0
C213 C 0.4789 0.57347 0.24873 0.0
C214 C 0.50313 0.60019 0.26223 0.0
N215 N 0.41314 0.53706 0.28602 0.0
C216 C 0.53215 0.02193 0.07102 0.0
Eu217 Eu 0.51351 0.02122 0.0312 0.0
C218 C 0.51671 0.0073 0.09026 0.0
C219 C 0.48435 0.99847 0.09279 0.0
C220 C 0.47051 0.98565 0.11149 0.0
C221 C 0.48874 0.98134 0.12804 0.0
C222 C 0.52098 0.98973 0.12518 0.0
C223 C 0.53478 1.00259 0.10651 0.0
C224 C 0.50388 0.06675 0.01369 0.0
C225 C 0.43372 0.97348 0.02303 0.0
C226 C 0.4601 0.99714 0.94599 0.0
Eu227 Eu 0.47887 1.00023 0.98605 0.0
C228 C 0.47511 0.01155 0.92658 0.0
C229 C 0.46877 0.99081 0.908 0.0
C230 C 0.48253 1.00362 0.88935 0.0
C231 C 0.50279 0.03758 0.88878 0.0
C232 C 0.50941 0.05832 0.90755 0.0
C233 C 0.49581 0.04544 0.92628 0.0
C234 C 0.48994 0.95585 0.00413 0.0
C235 C 0.55825 0.04665 0.99323 0.0
O236 O 0.53171 1.00184 0.0557 0.0
O237 O 0.52606 0.04393 0.06386 0.0
O238 O 0.52926 0.07354 0.02638 0.0
O239 O 0.48351 0.03635 0.01183 0.0
O240 O 0.46076 0.98462 0.03585 0.0
O241 O 0.43386 0.97964 1.00292 0.0
O242 O 0.45863 0.01659 0.96094 0.0
O243 O 0.46791 0.97659 0.95363 0.0
O244 O 0.46346 0.94807 0.99237 0.0
O245 O 0.50958 0.98618 0.00517 0.0
O246 O 0.53086 0.03655 0.98109 0.0
O247 O 0.55854 0.04081 0.01349 0.0
H248 H 0.46987 1.00181 0.08042 0.0
H249 H 0.44574 0.97972 0.11314 0.0
H250 H 0.53558 0.98614 0.13731 0.0
H251 H 0.5597 0.00903 0.10482 0.0
H252 H 0.45312 0.96458 0.90791 0.0
H253 H 0.47735 0.9868 0.87539 0.0
H254 H 0.52459 0.0846 0.90769 0.0
H255 H 0.50133 0.06203 0.94044 0.0
C256 C 0.99833 0.51398 0.07129 0.0
Eu257 Eu 1.00223 0.50114 0.03123 0.0
C258 C 0.01188 0.51104 0.09218 0.0
C259 C 0.99085 0.49493 0.10762 0.0
C260 C 1.00312 0.49255 0.12769 0.0
C261 C 0.0368 0.5065 0.13287 0.0
C262 C 0.05779 0.52214 0.11719 0.0
C263 C 0.04548 0.52429 0.09706 0.0
C264 C 0.96719 0.4437 0.00715 0.0
C265 C 0.06152 0.48493 0.02752 0.0
C266 C 0.03389 0.48668 0.94832 0.0
Eu267 Eu 0.02768 0.49843 0.98804 0.0
C268 C 0.01696 0.48304 0.92722 0.0
C269 C 1.00668 0.50504 0.9217 0.0
C270 C 0.99232 0.50215 0.90117 0.0
C271 C 0.98762 0.477 0.88592 0.0
C272 C 0.99707 0.45447 0.89171 0.0
C273 C 0.01172 0.45757 0.91216 0.0
C274 C 0.06112 0.55662 0.01212 0.0
C275 C 0.9677 0.51317 0.99122 0.0
O276 O 0.01857 0.53578 0.05958 0.0
O277 O 0.97728 0.48658 0.06008 0.0
O278 O 0.95457 0.45556 0.02008 0.0
O279 O 0.99782 0.46094 0.00886 0.0
O280 O 0.04472 0.49337 0.03973 0.0
O281 O 0.05753 0.48219 0.00656 0.0
O282 O 0.01859 0.46352 0.96074 0.0
O283 O 0.04892 0.51597 0.95858 0.0
O284 O 0.07474 0.5445 1.0003 0.0
O285 O 0.03068 0.53836 0.00984 0.0
O286 O 0.98237 0.50127 0.97955 0.0
O287 O 0.97457 0.51981 0.01213 0.0
H288 H 0.96485 0.48431 0.10418 0.0
H289 H 0.98614 0.4798 0.13916 0.0
H290 H 0.08386 0.53353 0.12062 0.0
H291 H 0.06233 0.5367 0.08543 0.0
H292 H 0.01008 0.52468 0.93313 0.0
H293 H 0.98488 0.51958 0.89719 0.0
H294 H 0.99394 0.43499 0.88024 0.0
H295 H 0.01941 0.44032 0.91614 0.0
C296 C 0.48354 0.50008 0.94955 0.0
Eu297 Eu 0.50731 0.51881 0.98922 0.0
C298 C 0.49815 0.50167 0.92942 0.0
C299 C 0.52925 0.52764 0.92677 0.0
C300 C 0.54312 0.52874 0.90769 0.0
C301 C 0.52618 0.50384 0.89095 0.0
C302 C 0.49513 0.47773 0.89375 0.0
C303 C 0.48126 0.47668 0.91284 0.0
C304 C 0.52087 0.57614 0.01006 0.0
C305 C 0.58653 0.54976 0.99174 0.0
C306 C 0.57098 0.56055 0.07214 0.0
Eu307 Eu 0.54747 0.53702 0.03275 0.0
C308 C 0.55892 0.56512 0.09238 0.0
C309 C 0.52704 0.54358 0.09703 0.0
C310 C 0.51651 0.54795 0.11662 0.0
C311 C 0.53756 0.57409 0.13184 0.0
C312 C 0.56932 0.59578 0.12692 0.0
C313 C 0.57985 0.5913 0.10743 0.0
C314 C 0.53415 0.47931 0.0126 0.0
C315 C 0.46765 0.49978 0.02904 0.0
O316 O 0.48528 0.48045 0.96266 0.0
O317 O 0.48998 0.52811 0.95926 0.0
O318 O 0.49292 0.55593 0.9997 0.0
O319 O 0.54039 0.56563 0.00882 0.0
O320 O 0.55771 0.53273 0.98074 0.0
O321 O 0.58974 0.55828 0.01248 0.0
O322 O 0.57125 0.57868 0.05714 0.0
O323 O 0.56125 0.53037 0.06476 0.0
O324 O 0.56058 0.4978 0.02509 0.0
O325 O 0.51508 0.49048 0.01296 0.0
O326 O 0.49545 0.52085 0.04035 0.0
O327 O 0.4663 0.49066 0.00873 0.0
H328 H 0.54287 0.54707 0.93946 0.0
H329 H 0.56723 0.54893 0.90613 0.0
H330 H 0.4813 0.45838 0.88105 0.0
H331 H 0.4573 0.4564 0.91463 0.0
H332 H 0.51034 0.52331 0.08559 0.0
H333 H 0.49181 0.53104 0.11977 0.0
H334 H 0.58629 0.61595 0.13833 0.0
H335 H 0.60451 0.60819 0.10416 0.0
C336 C 0.1929 0.36179 0.40382 0.0
Eu337 Eu 0.17872 0.3539 0.36269 0.0
C338 C 0.17629 0.34563 0.42235 0.0
C339 C 0.14611 0.34219 0.4265 0.0
C340 C 0.13123 0.32746 0.44442 0.0
C341 C 0.14603 0.31555 0.45837 0.0
C342 C 0.17588 0.31846 0.45398 0.0
C343 C 0.19092 0.33348 0.43619 0.0
C344 C 0.16097 0.39067 0.34013 0.0
C345 C 0.10266 0.29534 0.35164 0.0
C346 C 0.13799 0.31792 0.2766 0.0
Eu347 Eu 0.15319 0.32715 0.31761 0.0
C348 C 0.15274 0.33535 0.2582 0.0
C349 C 0.14633 0.31758 0.23833 0.0
C350 C 0.16035 0.33364 0.22063 0.0
C351 C 0.181 0.36783 0.22252 0.0
C352 C 0.18785 0.38552 0.24262 0.0
C353 C 0.17383 0.36938 0.26034 0.0
C354 C 0.16891 0.28899 0.33994 0.0
C355 C 0.22914 0.38606 0.32876 0.0
O356 O 0.20073 0.34485 0.39086 0.0
O357 O 0.1817 0.37808 0.39376 0.0
O358 O 0.18637 0.40297 0.35389 0.0
O359 O 0.14551 0.35987 0.33953 0.0
O360 O 0.12832 0.31042 0.36591 0.0
O361 O 0.10515 0.30105 0.33141 0.0
O362 O 0.12753 0.33215 0.28978 0.0
O363 O 0.15351 0.30539 0.28637 0.0
O364 O 0.14394 0.27785 0.32597 0.0
O365 O 0.18557 0.31992 0.34093 0.0
O366 O 0.20321 0.37144 0.31466 0.0
O367 O 0.22688 0.37989 0.34893 0.0
H368 H 0.13403 0.35099 0.41598 0.0
H369 H 0.10808 0.32525 0.44734 0.0
H370 H 0.18799 0.30978 0.46459 0.0
H371 H 0.21414 0.33582 0.43332 0.0
H372 H 0.13043 0.29124 0.2365 0.0
H373 H 0.15505 0.31927 0.20546 0.0
H374 H 0.20344 0.41189 0.24456 0.0
H375 H 0.17924 0.38349 0.27564 0.0
C376 C 0.6799 0.859 0.40802 0.0
Eu377 Eu 0.67165 0.83748 0.36791 0.0
C378 C 0.69415 0.85535 0.42821 0.0
C379 C 0.69663 0.82741 0.43107 0.0
C380 C 0.70978 0.82431 0.45062 0.0
C381 C 0.721 0.84929 0.46746 0.0
C382 C 0.71876 0.87733 0.46434 0.0
C383 C 0.70542 0.88028 0.44491 0.0
C384 C 0.62339 0.7774 0.35096 0.0
C385 C 0.71868 0.80714 0.3593 0.0
C386 C 0.66948 0.79506 0.28377 0.0
Eu387 Eu 0.67821 0.81915 0.32334 0.0
C388 C 0.66005 0.79868 0.26181 0.0
C389 C 0.68414 0.81383 0.24786 0.0
C390 C 0.67564 0.81405 0.22638 0.0
C391 C 0.64283 0.79887 0.21829 0.0
C392 C 0.6187 0.78468 0.23237 0.0
C393 C 0.62721 0.78448 0.25392 0.0
C394 C 0.72569 0.88025 0.33966 0.0
C395 C 0.6347 0.85386 0.33194 0.0
O396 O 0.70027 0.87489 0.39422 0.0
O397 O 0.65349 0.83313 0.39914 0.0
O398 O 0.61881 0.79771 0.3628 0.0
O399 O 0.65333 0.7891 0.34905 0.0
O400 O 0.71256 0.82615 0.372 0.0
O401 O 0.70338 0.79591 0.34003 0.0
O402 O 0.64699 0.7833 0.29697 0.0
O403 O 0.69742 0.81838 0.29298 0.0
O404 O 0.7307 0.86081 0.32726 0.0
O405 O 0.69584 0.86741 0.34192 0.0
O406 O 0.63941 0.83405 0.31886 0.0
O407 O 0.64927 0.86338 0.3515 0.0
H408 H 0.6883 0.80801 0.41825 0.0
H409 H 0.71145 0.80257 0.45252 0.0
H410 H 0.7268 0.89679 0.47709 0.0
H411 H 0.70372 0.90201 0.44296 0.0
H412 H 0.70963 0.82473 0.25341 0.0
H413 H 0.69481 0.82557 0.21599 0.0
H414 H 0.5932 0.77251 0.22657 0.0
H415 H 0.60804 0.77231 0.2642 0.0
C416 C 0.15665 0.83575 0.28424 0.0
Eu417 Eu 0.17428 0.84959 0.32501 0.0
C418 C 0.17243 0.83795 0.26453 0.0
C419 C 0.16349 0.84949 0.24694 0.0
C420 C 0.17774 0.8516 0.22795 0.0
C421 C 0.20111 0.84195 0.22608 0.0
C422 C 0.21065 0.83112 0.24395 0.0
C423 C 0.19646 0.82918 0.26304 0.0
C424 C 0.18981 0.90649 0.34767 0.0
C425 C 0.25196 0.87446 0.33342 0.0
C426 C 0.22143 0.86725 0.41068 0.0
Eu427 Eu 0.20376 0.85667 0.36975 0.0
C428 C 0.20809 0.86877 0.43093 0.0
C429 C 0.22033 0.86202 0.44945 0.0
C430 C 0.20785 0.86258 0.46886 0.0
C431 C 0.18289 0.87012 0.47023 0.0
C432 C 0.17038 0.87652 0.4515 0.0
C433 C 0.18281 0.87575 0.43201 0.0
C434 C 0.1885 0.80013 0.34658 0.0
C435 C 0.12638 0.8333 0.36073 0.0
O436 O 0.15522 0.8142 0.29693 0.0
O437 O 0.16388 0.86361 0.29453 0.0
O438 O 0.16486 0.89096 0.33365 0.0
O439 O 0.20681 0.89284 0.34814 0.0
O440 O 0.22545 0.86084 0.3199 0.0
O441 O 0.25065 0.87944 0.35409 0.0
O442 O 0.22779 0.89068 0.39837 0.0
O443 O 0.20798 0.83842 0.4 0.0
O444 O 0.21467 0.81714 0.35946 0.0
O445 O 0.17092 0.81318 0.34685 0.0
O446 O 0.15302 0.84813 0.37422 0.0
O447 O 0.12763 0.82645 0.34039 0.0
H448 H 0.14532 0.85678 0.24787 0.0
H449 H 0.17034 0.86075 0.21468 0.0
H450 H 0.22844 0.82334 0.24305 0.0
H451 H 0.20403 0.82052 0.27652 0.0
H452 H 0.23953 0.85612 0.44887 0.0
H453 H 0.21762 0.85679 0.48279 0.0
H454 H 0.15133 0.88263 0.45193 0.0
H455 H 0.17271 0.88062 0.41784 0.0
C456 C 0.8624 0.68439 0.73633 0.0
Eu457 Eu 0.84267 0.67466 0.69576 0.0
C458 C 0.84833 0.67484 0.7568 0.0
C459 C 0.86114 0.69796 0.77469 0.0
C460 C 0.84859 0.68969 0.79436 0.0
C461 C 0.82296 0.658 0.79659 0.0
C462 C 0.80995 0.63488 0.77855 0.0
C463 C 0.82241 0.64325 0.75881 0.0
C464 C 0.82744 0.71336 0.6738 0.0
C465 C 0.76454 0.61969 0.68798 0.0
C466 C 0.7903 0.63783 0.61034 0.0
Eu467 Eu 0.80991 0.6461 0.65069 0.0
C468 C 0.80196 0.65674 0.5919 0.0
C469 C 0.79446 0.64025 0.57144 0.0
C470 C 0.80554 0.65778 0.55372 0.0
C471 C 0.82427 0.69217 0.55616 0.0
C472 C 0.83191 0.70863 0.57676 0.0
C473 C 0.82097 0.69104 0.5945 0.0
C474 C 0.82561 0.60741 0.67225 0.0
C475 C 0.88756 0.69933 0.65793 0.0
O476 O 0.86182 0.66152 0.72333 0.0
O477 O 0.85551 0.70401 0.72641 0.0
O478 O 0.85336 0.72437 0.68695 0.0
O479 O 0.80978 0.68273 0.67373 0.0
O480 O 0.7911 0.63621 0.70141 0.0
O481 O 0.76473 0.62173 0.66725 0.0
O482 O 0.77989 0.64994 0.62507 0.0
O483 O 0.80828 0.62651 0.61826 0.0
O484 O 0.80001 0.59638 0.65881 0.0
O485 O 0.84302 0.63812 0.67258 0.0
O486 O 0.86001 0.68698 0.64558 0.0
O487 O 0.88803 0.69461 0.6784 0.0
H488 H 0.88109 0.72246 0.7735 0.0
H489 H 0.85947 0.70797 0.80795 0.0
H490 H 0.79 0.61037 0.77968 0.0
H491 H 0.81187 0.62504 0.74517 0.0
H492 H 0.77992 0.61377 0.56917 0.0
H493 H 0.79895 0.64444 0.53805 0.0
H494 H 0.84658 0.73507 0.57916 0.0
H495 H 0.82733 0.70422 0.61022 0.0
C496 C 0.32072 0.18355 0.74456 0.0
Eu497 Eu 0.32322 0.16756 0.70483 0.0
C498 C 0.33402 0.18122 0.76561 0.0
C499 C 0.31369 0.17043 0.78211 0.0
C500 C 0.32574 0.16804 0.80222 0.0
C501 C 0.35843 0.17646 0.80622 0.0
C502 C 0.37867 0.18692 0.78955 0.0
C503 C 0.36659 0.18927 0.76943 0.0
C504 C 0.28801 0.10669 0.68449 0.0
C505 C 0.38295 0.15243 0.70099 0.0
C506 C 0.34508 0.14132 0.62158 0.0
Eu507 Eu 0.34336 0.15873 0.6612 0.0
C508 C 0.33228 0.14259 0.60003 0.0
C509 C 0.35359 0.15411 0.58411 0.0
C510 C 0.34213 0.15463 0.56336 0.0
C511 C 0.30896 0.14338 0.55801 0.0
C512 C 0.2877 0.13237 0.57413 0.0
C513 C 0.29925 0.13204 0.59496 0.0
C514 C 0.37796 0.22007 0.68109 0.0
C515 C 0.28466 0.1756 0.66555 0.0
O516 O 0.34138 0.2039 0.73235 0.0
O517 O 0.29893 0.15584 0.73403 0.0
O518 O 0.27565 0.12059 0.6959 0.0
O519 O 0.31842 0.12473 0.68509 0.0
O520 O 0.36876 0.16479 0.71272 0.0
O521 O 0.37427 0.14371 0.68036 0.0
O522 O 0.32427 0.12171 0.63402 0.0
O523 O 0.36703 0.16929 0.63173 0.0
O524 O 0.3905 0.20664 0.66941 0.0
O525 O 0.34772 0.20143 0.68074 0.0
O526 O 0.29783 0.16228 0.65355 0.0
O527 O 0.29426 0.18469 0.68603 0.0
H528 H 0.28849 0.16406 0.77947 0.0
H529 H 0.30964 0.16031 0.81478 0.0
H530 H 0.40386 0.19323 0.79205 0.0
H531 H 0.38275 0.19751 0.75693 0.0
H532 H 0.37919 0.16254 0.58771 0.0
H533 H 0.35933 0.16389 0.55151 0.0
H534 H 0.26197 0.12326 0.57058 0.0
H535 H 0.28227 0.12315 0.60697 0.0
C536 C 0.82075 0.15812 0.60944 0.0
Eu537 Eu 0.83873 0.17767 0.6499 0.0
C538 C 0.83591 0.16105 0.58937 0.0
C539 C 0.8688 0.18392 0.58807 0.0
C540 C 0.8827 0.18582 0.56881 0.0
C541 C 0.86392 0.16484 0.55055 0.0
C542 C 0.83102 0.14186 0.55212 0.0
C543 C 0.81721 0.14005 0.5713 0.0
C544 C 0.85963 0.23815 0.66917 0.0
C545 C 0.91543 0.19975 0.66049 0.0
C546 C 0.88843 0.21125 0.73661 0.0
Eu547 Eu 0.86812 0.19011 0.69654 0.0
C548 C 0.878 0.20974 0.75836 0.0
C549 C 0.89072 0.19804 0.77392 0.0
C550 C 0.88428 0.1994 0.79515 0.0
C551 C 0.86509 0.21272 0.80139 0.0
C552 C 0.85145 0.2235 0.78566 0.0
C553 C 0.85789 0.2221 0.76435 0.0
C554 C 0.84667 0.12921 0.67759 0.0
C555 C 0.79034 0.16395 0.6859 0.0
O556 O 0.82553 0.14082 0.62312 0.0
O557 O 0.82295 0.18478 0.61854 0.0
O558 O 0.83389 0.2226 0.65567 0.0
O559 O 0.87395 0.22196 0.67101 0.0
O560 O 0.8895 0.18642 0.64649 0.0
O561 O 0.9144 0.20747 0.68075 0.0
O562 O 0.88091 0.2271 0.72317 0.0
O563 O 0.88672 0.18484 0.72753 0.0
O564 O 0.87156 0.14409 0.69176 0.0
O565 O 0.83303 0.14592 0.67546 0.0
O566 O 0.81646 0.18011 0.69982 0.0
O567 O 0.79232 0.15579 0.66587 0.0
H568 H 0.8837 0.20026 0.60191 0.0
H569 H 0.90802 0.20392 0.56818 0.0
H570 H 0.81596 0.12482 0.53859 0.0
H571 H 0.79187 0.12204 0.57207 0.0
H572 H 0.90638 0.18851 0.76976 0.0
H573 H 0.89472 0.19036 0.80676 0.0
H574 H 0.83676 0.23411 0.78995 0.0
H575 H 0.84782 0.23143 0.75272 0.0
H576 H 0.31148 0.84644 0.04536 0.0
H577 H 0.31022 0.91493 0.09325 0.0
H578 H 0.35947 0.95868 0.08157 0.0
H579 H 0.40301 0.97839 0.05705 0.0
H580 H 0.3969 0.91175 0.0052 0.0
H581 H 0.34945 0.86685 0.01851 0.0
C582 C 0.3209 0.87088 0.05304 0.0
C583 C 0.30639 0.87648 0.07046 0.0
C584 C 0.34802 0.89669 0.04528 0.0
C585 C 0.32075 0.90881 0.08031 0.0
C586 C 0.34891 0.93431 0.07341 0.0
C587 C 0.39089 0.95407 0.0486 0.0
C588 C 0.40319 0.94818 0.03022 0.0
C589 C 0.36274 0.92858 0.05586 0.0
C590 C 0.38752 0.91675 0.0193 0.0
C591 C 0.36056 0.89107 0.02697 0.0
H592 H 0.14239 0.43358 0.07663 0.0
H593 H 0.22198 0.524 0.05952 0.0
H594 H 0.1835 0.53503 0.03984 0.0
H595 H 0.12681 0.51999 0.02862 0.0
H596 H 0.04794 0.43329 0.04969 0.0
H597 H 0.0866 0.42022 0.06734 0.0
C598 C 0.15154 0.45611 0.06903 0.0
C599 C 0.18525 0.47797 0.06979 0.0
C600 C 0.1293 0.46302 0.05853 0.0
C601 C 0.19631 0.50641 0.05906 0.0
C602 C 0.17427 0.51293 0.04793 0.0
C603 C 0.11833 0.49824 0.03706 0.0
C604 C 0.08489 0.47736 0.03786 0.0
C605 C 0.14072 0.49151 0.04768 0.0
C606 C 0.07374 0.44948 0.04895 0.0
C607 C 0.09578 0.44207 0.05898 0.0
H608 H 0.52888 0.6883 0.07285 0.0
H609 H 0.58834 0.74771 0.02606 0.0
H610 H 0.58205 0.6988 0.00592 0.0
H611 H 0.5587 0.63869 1.00137 0.0
H612 H 0.49758 0.57966 0.04748 0.0
H613 H 0.50587 0.62877 0.06845 0.0
C614 C 0.54071 0.69056 0.05835 0.0
C615 C 0.55914 0.72156 0.05098 0.0
C616 C 0.53677 0.66239 0.04683 0.0
C617 C 0.57384 0.72407 0.03196 0.0
C618 C 0.57039 0.69616 0.02051 0.0
C619 C 0.5475 0.63684 0.01611 0.0
C620 C 0.52768 0.60592 0.02307 0.0
C621 C 0.55182 0.66517 0.02776 0.0
C622 C 0.51286 0.60337 0.04196 0.0
C623 C 0.5176 0.6314 0.05389 0.0
H624 H 0.87573 0.32586 0.93952 0.0
H625 H 0.85896 0.2733 0.99561 0.0
H626 H 0.8979 0.32374 0.01711 0.0
H627 H 0.93538 0.38343 0.02037 0.0
H628 H 0.95462 0.4352 0.96416 0.0
H629 H 0.91692 0.38424 0.94216 0.0
C630 C 0.88098 0.32511 0.95634 0.0
C631 C 0.86388 0.29559 0.96585 0.0
C632 C 0.90411 0.35411 0.96859 0.0
C633 C 0.87091 0.29563 0.98783 0.0
C634 C 0.89347 0.32447 1.00017 0.0
C635 C 0.9316 0.38326 1.00324 0.0
C636 C 0.94791 0.41263 0.99373 0.0
C637 C 0.90993 0.3539 0.99077 0.0
C638 C 0.94279 0.41258 0.97164 0.0
C639 C 0.921 0.38354 0.95914 0.0
H640 H 0.69019 0.56261 0.9292 0.0
H641 H 0.75626 0.61668 0.98498 0.0
H642 H 0.71078 0.60965 0.00465 0.0
H643 H 0.65152 0.58571 0.00647 0.0
H644 H 0.58643 0.53108 0.95019 0.0
H645 H 0.63203 0.54122 0.93041 0.0
C646 C 0.69476 0.57345 0.94552 0.0
C647 C 0.72662 0.59012 0.95555 0.0
C648 C 0.66851 0.56908 0.95679 0.0
C649 C 0.73193 0.60345 0.97689 0.0
C650 C 0.70592 0.59947 0.98816 0.0
C651 C 0.64735 0.57621 0.98986 0.0
C652 C 0.61537 0.55774 0.97997 0.0
C653 C 0.67397 0.58186 0.97838 0.0
C654 C 0.61059 0.54561 0.95836 0.0
C655 C 0.63675 0.55127 0.94693 0.0
H656 H 0.50987 0.19202 0.97961 0.0
H657 H 0.41417 0.12047 0.95078 0.0
H658 H 0.41938 0.07679 0.96628 0.0
H659 H 0.45124 0.05909 0.98859 0.0
H660 H 0.54712 0.13155 0.01681 0.0
H661 H 0.54151 0.17463 1.0013 0.0
C662 C 0.48998 0.16692 0.97691 0.0
C663 C 0.46159 0.15958 0.9642 0.0
C664 C 0.49316 0.14203 0.98581 0.0
C665 C 0.43635 0.12678 0.96044 0.0
C666 C 0.43927 0.10181 0.96936 0.0
C667 C 0.47088 0.08429 0.99122 0.0
C668 C 0.49953 0.0921 0.00384 0.0
C669 C 0.46759 0.10914 0.98211 0.0
C670 C 0.52477 0.12488 0.00722 0.0
C671 C 0.52162 0.14958 0.99834 0.0
H672 H 0.66974 0.11843 0.93362 0.0
H673 H 0.7252 0.16773 0.99374 0.0
H674 H 0.67799 0.13366 0.01274 0.0
H675 H 0.61971 0.09083 0.01201 0.0
H676 H 0.56518 0.04344 0.95113 0.0
H677 H 0.61306 0.07548 0.93286 0.0
C678 C 0.67151 0.12162 0.9509 0.0
C679 C 0.70079 0.14558 0.96222 0.0
C680 C 0.64432 0.1022 0.96164 0.0
C681 C 0.70284 0.14948 0.98461 0.0
C682 C 0.67584 0.12998 0.99549 0.0
C683 C 0.61851 0.08733 0.99479 0.0
C684 C 0.58881 0.06481 0.98301 0.0
C685 C 0.64629 0.10636 0.98416 0.0
C686 C 0.58759 0.06074 0.96065 0.0
C687 C 0.615 0.07906 0.95011 0.0
H688 H 0.86908 0.53031 0.93004 0.0
H689 H 0.85679 0.57234 0.98868 0.0
H690 H 0.89612 0.56186 0.00808 0.0
H691 H 0.93433 0.54087 0.00821 0.0
H692 H 0.94614 0.49922 0.94901 0.0
H693 H 0.90678 0.50944 0.93011 0.0
C694 C 0.87503 0.53714 0.94708 0.0
C695 C 0.86011 0.55201 0.9579 0.0
C696 C 0.89761 0.53112 0.95806 0.0
C697 C 0.86797 0.56082 0.97997 0.0
C698 C 0.89045 0.55483 0.99107 0.0
C699 C 0.92825 0.53398 0.99119 0.0
C700 C 0.9433 0.51931 0.98013 0.0
C701 C 0.90547 0.54 0.98027 0.0
C702 C 0.9351 0.5106 0.95803 0.0
C703 C 0.91251 0.51641 0.94713 0.0
H704 H 0.50554 0.36071 0.94718 0.0
H705 H 0.49367 0.31309 0.00498 0.0
H706 H 0.50647 0.36385 0.02607 0.0
H707 H 0.52104 0.42216 0.02794 0.0
H708 H 0.53223 0.46888 0.9699 0.0
H709 H 0.51955 0.41823 0.94896 0.0
C710 C 0.50578 0.3615 0.96441 0.0
C711 C 0.49876 0.33333 0.97452 0.0
C712 C 0.51289 0.39059 0.97633 0.0
C713 C 0.49898 0.33449 0.99682 0.0
C714 C 0.50633 0.36351 0.00888 0.0
C715 C 0.52063 0.42102 0.0107 0.0
C716 C 0.52693 0.44879 1.00032 0.0
C717 C 0.51332 0.39173 0.9988 0.0
C718 C 0.52659 0.44745 0.97808 0.0
C719 C 0.51962 0.4186 0.96615 0.0
H720 H 0.11192 0.69728 0.05878 0.0
H721 H 0.20169 0.71286 0.03604 0.0
H722 H 0.17452 0.65606 0.02029 0.0
H723 H 0.12505 0.60195 0.01283 0.0
H724 H 0.03496 0.58699 0.03468 0.0
H725 H 0.06244 0.64338 0.05113 0.0
C726 C 0.12545 0.68819 0.05032 0.0
C727 C 0.15865 0.70918 0.04851 0.0
C728 C 0.10966 0.65557 0.04127 0.0
C729 C 0.17604 0.69722 0.03757 0.0
C730 C 0.16054 0.66471 0.02861 0.0
C731 C 0.1115 0.61104 0.02127 0.0
C732 C 0.0781 0.59033 0.02268 0.0
C733 C 0.12736 0.64367 0.03037 0.0
C734 C 0.06076 0.60241 0.03355 0.0
C735 C 0.07642 0.63469 0.04287 0.0
H736 H 0.32658 0.42544 0.05841 0.0
H737 H 0.35658 0.52247 0.08663 0.0
H738 H 0.41118 0.54261 0.07539 0.0
H739 H 0.44947 0.53294 0.05598 0.0
H740 H 0.41712 0.4375 0.02388 0.0
H741 H 0.36442 0.41613 0.03827 0.0
C742 C 0.34522 0.45093 0.06214 0.0
C743 C 0.33785 0.47252 0.07326 0.0
C744 C 0.37604 0.4625 0.05492 0.0
C745 C 0.36185 0.50556 0.07792 0.0
C746 C 0.39301 0.51701 0.07155 0.0
C747 C 0.43095 0.50744 0.05234 0.0
C748 C 0.43703 0.48671 0.03905 0.0
C749 C 0.40027 0.49578 0.05984 0.0
C750 C 0.41279 0.45381 0.03412 0.0
C751 C 0.38272 0.44163 0.04231 0.0
H752 H 0.48514 0.84654 0.05891 0.0
H753 H 0.58263 0.88616 0.04098 0.0
H754 H 0.57756 0.92791 0.02258 0.0
H755 H 0.5446 0.95228 0.01086 0.0
H756 H 0.44501 0.90812 0.02522 0.0
H757 H 0.45148 0.86912 0.04584 0.0
C758 C 0.50522 0.86441 0.05098 0.0
C759 C 0.53418 0.86349 0.05125 0.0
C760 C 0.50166 0.88746 0.03982 0.0
C761 C 0.56003 0.88642 0.04081 0.0
C762 C 0.55716 0.91029 0.03037 0.0
C763 C 0.52447 0.93413 0.01861 0.0
C764 C 0.49444 0.93295 0.0167 0.0
C765 C 0.52802 0.91094 0.02966 0.0
C766 C 0.46828 0.90923 0.02648 0.0
C767 C 0.47199 0.88701 0.03827 0.0
H768 H 0.95913 0.18555 0.36524 0.0
H769 H 1.00463 0.19684 0.4286 0.0
H770 H 0.05656 0.2389 0.41807 0.0
H771 H 0.08928 0.2728 0.39095 0.0
H772 H 0.04406 0.26112 0.32739 0.0
H773 H 0.99215 0.21901 0.33791 0.0
C774 C 0.98048 0.1969 0.37668 0.0
C775 C 0.97776 0.18793 0.39773 0.0
C776 C 0.01044 0.22122 0.37051 0.0
C777 C 1.00574 0.20341 0.41238 0.0
C778 C 0.03556 0.22745 0.40634 0.0
C779 C 0.06809 0.26115 0.37937 0.0
C780 C 0.07078 0.27034 0.35837 0.0
C781 C 0.03819 0.23671 0.38549 0.0
C782 C 0.0429 0.25472 0.34366 0.0
C783 C 0.01311 0.23051 0.34965 0.0
H784 H 0.82755 0.76895 0.37671 0.0
H785 H 0.8419 0.8256 0.43633 0.0
H786 H 0.79869 0.83612 0.42422 0.0
H787 H 0.75591 0.82802 0.39729 0.0
H788 H 0.74011 0.77068 0.33759 0.0
H789 H 0.78443 0.76136 0.34917 0.0
C790 C 0.82143 0.78396 0.38684 0.0
C791 C 0.83792 0.79664 0.40732 0.0
C792 C 0.79602 0.78942 0.37989 0.0
C793 C 0.82952 0.81566 0.42049 0.0
C794 C 0.80475 0.82157 0.41361 0.0
C795 C 0.76201 0.81339 0.38677 0.0
C796 C 0.74451 0.8 0.3666 0.0
C797 C 0.78759 0.80826 0.39346 0.0
C798 C 0.75299 0.78119 0.35324 0.0
C799 C 0.77847 0.77595 0.35981 0.0
H800 H 0.21489 0.02358 0.41322 0.0
H801 H 0.23066 0.07275 0.35566 0.0
H802 H 0.21793 0.02227 0.33468 0.0
H803 H 0.20355 0.96407 0.33262 0.0
H804 H 0.193 0.91715 0.39044 0.0
H805 H 0.20375 0.96714 0.41148 0.0
C806 C 0.21628 0.02374 0.39615 0.0
C807 C 0.22392 0.05242 0.38623 0.0
C808 C 0.21027 0.99498 0.38421 0.0
C809 C 0.22434 0.05121 0.36389 0.0
C810 C 0.2174 0.02234 0.35182 0.0
C811 C 0.20393 0.96508 0.34986 0.0
C812 C 0.19816 0.93734 0.36015 0.0
C813 C 0.21051 0.99412 0.36181 0.0
C814 C 0.19834 0.93857 0.38237 0.0
C815 C 0.20412 0.96703 0.39433 0.0
H816 H 0.49392 0.65168 0.30976 0.0
H817 H 0.56306 0.62622 0.28744 0.0
H818 H 0.60778 0.67647 0.30622 0.0
H819 H 0.62779 0.72914 0.32795 0.0
H820 H 0.5586 0.75424 0.3506 0.0
H821 H 0.51376 0.70298 0.33296 0.0
C822 C 0.51872 0.65686 0.30929 0.0
C823 C 0.52498 0.63519 0.29702 0.0
C824 C 0.54452 0.68603 0.32011 0.0
C825 C 0.55744 0.6426 0.29648 0.0
C826 C 0.58311 0.67137 0.30726 0.0
C827 C 0.60289 0.72328 0.32907 0.0
C828 C 0.59662 0.74557 0.34054 0.0
C829 C 0.57704 0.69356 0.31888 0.0
C830 C 0.56417 0.73756 0.34188 0.0
C831 C 0.53844 0.70819 0.33178 0.0
H832 H 0.39326 0.90921 0.31181 0.0
H833 H 0.34492 0.88027 0.24797 0.0
H834 H 0.29435 0.87085 0.26172 0.0
H835 H 0.2635 0.86949 0.29188 0.0
H836 H 0.31155 0.89798 0.35585 0.0
H837 H 0.36248 0.90879 0.34201 0.0
C838 C 0.37161 0.90062 0.3009 0.0
C839 C 0.37298 0.89534 0.27885 0.0
C840 C 0.34253 0.89518 0.30894 0.0
C841 C 0.34476 0.88481 0.26496 0.0
C842 C 0.31575 0.87926 0.27283 0.0
C843 C 0.28507 0.87816 0.30287 0.0
C844 C 0.28348 0.88279 0.32496 0.0
C845 C 0.31431 0.88423 0.2948 0.0
C846 C 0.3119 0.89419 0.33881 0.0
C847 C 0.34108 0.90031 0.3309 0.0
H848 H 0.0952 0.45463 0.28595 0.0
H849 H 0.18452 0.54244 0.30982 0.0
H850 H 0.20301 0.5099 0.32832 0.0
H851 H 0.19351 0.45658 0.3385 0.0
H852 H 0.10474 0.36862 0.31434 0.0
H853 H 0.08666 0.40098 0.29497 0.0
C854 C 0.1189 0.46665 0.29496 0.0
C855 C 0.13827 0.50109 0.29656 0.0
C856 C 0.12952 0.44771 0.30557 0.0
C857 C 0.16878 0.51611 0.30857 0.0
C858 C 0.17949 0.49748 0.31909 0.0
C859 C 0.17022 0.44451 0.32897 0.0
C860 C 0.15043 0.41026 0.32795 0.0
C861 C 0.15996 0.4633 0.31789 0.0
C862 C 0.12043 0.39495 0.31541 0.0
C863 C 0.11005 0.41347 0.30435 0.0
H864 H 0.37229 0.49673 0.31352 0.0
H865 H 0.32531 0.481 0.25008 0.0
H866 H 0.27404 0.4391 0.26139 0.0
H867 H 0.24215 0.40688 0.28911 0.0
H868 H 0.2881 0.42185 0.35282 0.0
H869 H 0.33979 0.46368 0.34162 0.0
C870 C 0.35082 0.48415 0.30222 0.0
C871 C 0.3527 0.49213 0.28095 0.0
C872 C 0.3211 0.45977 0.30886 0.0
C873 C 0.32458 0.47544 0.26653 0.0
C874 C 0.29518 0.45139 0.27298 0.0
C875 C 0.26341 0.41916 0.30061 0.0
C876 C 0.26098 0.411 0.32183 0.0
C877 C 0.2931 0.44333 0.29408 0.0
C878 C 0.28904 0.42744 0.33638 0.0
C879 C 0.31872 0.45148 0.32998 0.0
H880 H 0.56651 0.93415 0.30758 0.0
H881 H 0.48897 0.83797 0.28328 0.0
H882 H 0.52264 0.81435 0.29376 0.0
H883 H 0.57463 0.82132 0.30999 0.0
H884 H 0.64968 0.91701 0.33729 0.0
H885 H 0.61678 0.94066 0.32548 0.0
C886 C 0.55701 0.908 0.30467 0.0
C887 C 0.52542 0.88782 0.29469 0.0
C888 C 0.57619 0.89459 0.31121 0.0
C889 C 0.51319 0.85395 0.29109 0.0
C890 C 0.53249 0.84048 0.29699 0.0
C891 C 0.5837 0.84735 0.31319 0.0
C892 C 0.61458 0.86755 0.32426 0.0
C893 C 0.56409 0.86058 0.30703 0.0
C894 C 0.62597 0.9011 0.32875 0.0
C895 C 0.60718 0.9146 0.32201 0.0
H896 H 0.16639 0.66075 0.31559 0.0
H897 H 0.07142 0.64449 0.29472 0.0
H898 H 0.08815 0.7009 0.30764 0.0
H899 H 0.12973 0.75486 0.32554 0.0
H900 H 0.22469 0.77068 0.34611 0.0
H901 H 0.20817 0.71479 0.33253 0.0
C902 C 0.14934 0.66952 0.31392 0.0
C903 C 0.11762 0.64843 0.30437 0.0
C904 C 0.15919 0.70205 0.32128 0.0
C905 C 0.09594 0.66029 0.30214 0.0
C906 C 0.1055 0.69254 0.30948 0.0
C907 C 0.14679 0.74606 0.32691 0.0
C908 C 0.17831 0.76682 0.33691 0.0
C909 C 0.13706 0.71367 0.31914 0.0
C910 C 0.2002 0.75513 0.33857 0.0
C911 C 0.19079 0.72313 0.33083 0.0
H912 H 0.84749 0.02196 0.36559 0.0
H913 H 0.77199 0.0389 0.38627 0.0
H914 H 0.73111 0.98214 0.37479 0.0
H915 H 0.7164 0.92745 0.35884 0.0
H916 H 0.79109 0.91 0.33728 0.0
H917 H 0.83246 0.96677 0.34912 0.0
C918 C 0.8221 0.0132 0.36751 0.0
C919 C 0.81279 0.03468 0.37676 0.0
C920 C 0.79848 0.98031 0.36075 0.0
C921 C 0.77977 0.02289 0.37915 0.0
C922 C 0.75633 0.99039 0.37262 0.0
C923 C 0.74174 0.93607 0.35677 0.0
C924 C 0.75065 0.91454 0.3472 0.0
C925 C 0.76536 0.96884 0.36342 0.0
C926 C 0.78359 0.92612 0.34457 0.0
C927 C 0.80728 0.95861 0.35134 0.0
H928 H 0.98358 0.798 0.37929 0.0
H929 H 0.03163 0.83467 0.44289 0.0
H930 H 0.08296 0.84472 0.43028 0.0
H931 H 0.11436 0.84336 0.40132 0.0
H932 H 0.06691 0.80637 0.33755 0.0
H933 H 0.01537 0.79604 0.35008 0.0
C934 C 1.00532 0.80827 0.39033 0.0
C935 C 1.00386 0.81575 0.41199 0.0
C936 C 0.03489 0.81382 0.38296 0.0
C937 C 0.03219 0.82882 0.42613 0.0
C938 C 0.06155 0.83454 0.41894 0.0
C939 C 0.0928 0.83297 0.39012 0.0
C940 C 0.0947 0.82573 0.3685 0.0
C941 C 0.06322 0.82714 0.39741 0.0
C942 C 0.0663 0.81219 0.3543 0.0
C943 C 0.03675 0.80632 0.36144 0.0
H944 H 0.18873 0.17669 0.37415 0.0
H945 H 0.27478 0.25942 0.4069 0.0
H946 H 0.25991 0.29694 0.39129 0.0
H947 H 0.22259 0.30624 0.36767 0.0
H948 H 0.1361 0.22282 0.33574 0.0
H949 H 0.15095 0.18579 0.35161 0.0
C950 C 0.20426 0.20291 0.37786 0.0
C951 C 0.23295 0.21528 0.39155 0.0
C952 C 0.19546 0.22431 0.36892 0.0
C953 C 0.25261 0.24933 0.39633 0.0
C954 C 0.24413 0.2708 0.38741 0.0
C955 C 0.20701 0.27997 0.36429 0.0
C956 C 0.17838 0.26736 0.35045 0.0
C957 C 0.21563 0.25859 0.37359 0.0
C958 C 0.15837 0.23323 0.34625 0.0
C959 C 0.16682 0.21195 0.35532 0.0
H960 H 0.63764 0.49783 0.71157 0.0
H961 H 0.64785 0.56744 0.76315 0.0
H962 H 0.69806 0.60886 0.75057 0.0
H963 H 0.7388 0.62607 0.7242 0.0
H964 H 0.72307 0.55851 0.67 0.0
H965 H 0.67451 0.51602 0.68388 0.0
C966 C 0.65006 0.52217 0.7199 0.0
C967 C 0.6384 0.52898 0.73843 0.0
C968 C 0.67798 0.54655 0.71194 0.0
C969 C 0.65618 0.56076 0.74917 0.0
C970 C 0.68487 0.58478 0.74183 0.0
C971 C 0.72451 0.60207 0.71544 0.0
C972 C 0.73429 0.59533 0.69612 0.0
C973 C 0.69595 0.578 0.72318 0.0
C974 C 0.7157 0.56428 0.6848 0.0
C975 C 0.68808 0.53995 0.69278 0.0
H976 H 0.48653 0.14086 0.76085 0.0
H977 H 0.5132 0.1196 0.70036 0.0
H978 H 0.47119 0.12691 0.68166 0.0
H979 H 0.42555 0.13776 0.68264 0.0
H980 H 0.39893 0.15762 0.74365 0.0
H981 H 0.44177 0.15188 0.76188 0.0
C982 C 0.48305 0.1376 0.74357 0.0
C983 C 0.50287 0.12946 0.73205 0.0
C984 C 0.45864 0.14138 0.73297 0.0
C985 C 0.49848 0.12611 0.70964 0.0
C986 C 0.47427 0.13003 0.69894 0.0
C987 C 0.42908 0.14073 0.69992 0.0
C988 C 0.40895 0.14818 0.71169 0.0
C989 C 0.45398 0.13739 0.71045 0.0
C990 C 0.41406 0.15213 0.73409 0.0
C991 C 0.4386 0.14879 0.74461 0.0
H992 H 0.91944 0.37052 0.72858 0.0
H993 H 0.8312 0.36587 0.70307 0.0
H994 H 0.8161 0.31529 0.68116 0.0
H995 H 0.82713 0.27147 0.67001 0.0
H996 H 0.91501 0.27569 0.69569 0.0
H997 H 0.93089 0.3271 0.717 0.0
C998 C 0.89681 0.35833 0.71832 0.0
C999 C 0.87647 0.37197 0.71751 0.0
C1000 C 0.88815 0.3291 0.70588 0.0
C1001 C 0.84749 0.35614 0.70384 0.0
C1002 C 0.83873 0.32709 0.6914 0.0
C1003 C 0.84982 0.28374 0.68021 0.0
C1004 C 0.86978 0.26977 0.68142 0.0
C1005 C 0.85878 0.31327 0.69237 0.0
C1006 C 0.89913 0.2859 0.69465 0.0
C1007 C 0.90824 0.31529 0.7068 0.0
H1008 H 0.22457 0.97093 0.62843 0.0
H1009 H 0.13711 0.96895 0.64511 0.0
H1010 H 0.16954 0.022 0.66593 0.0
H1011 H 0.22263 0.0692 0.67912 0.0
H1012 H 0.31024 0.07187 0.66224 0.0
H1013 H 0.27787 0.01849 0.64149 0.0
C1014 C 0.21261 0.98224 0.63648 0.0
C1015 C 0.17843 0.96592 0.63523 0.0
C1016 C 0.23142 0.01288 0.64832 0.0
C1017 C 0.16335 0.98072 0.64603 0.0
C1018 C 0.18187 0.01116 0.65784 0.0
C1019 C 0.23463 0.05804 0.67093 0.0
C1020 C 0.26871 0.07437 0.67215 0.0
C1021 C 0.21589 0.02744 0.6591 0.0
C1022 C 0.28398 0.05975 0.66145 0.0
C1023 C 0.2655 0.02925 0.64962 0.0
H1024 H 0.03398 0.19015 0.6311 0.0
H1025 H 0.03735 0.26152 0.58974 0.0
H1026 H 0.9912 0.25989 0.60517 0.0
H1027 H 0.94831 0.23691 0.62972 0.0
H1028 H 0.95002 0.17221 0.67444 0.0
H1029 H 0.99666 0.17361 0.65895 0.0
C1030 C 0.02548 0.20613 0.62568 0.0
C1031 C 0.03919 0.22529 0.60869 0.0
C1032 C 0.99982 0.20649 0.6354 0.0
C1033 C 0.02685 0.24532 0.60204 0.0
C1034 C 1.00056 0.24483 0.61109 0.0
C1035 C 0.95936 0.22362 0.63623 0.0
C1036 C 0.94604 0.20453 0.65312 0.0
C1037 C 0.98659 0.22521 0.62759 0.0
C1038 C 0.96027 0.18731 0.66154 0.0
C1039 C 0.98673 0.18795 0.65259 0.0
H1040 H 0.7773 0.78725 0.61586 0.0
H1041 H 0.87024 0.86885 0.64134 0.0
H1042 H 0.88265 0.83229 0.66035 0.0
H1043 H 0.86626 0.77785 0.67108 0.0
H1044 H 0.77269 0.69591 0.64718 0.0
H1045 H 0.76138 0.73166 0.62604 0.0
C1046 C 0.80037 0.79682 0.62539 0.0
C1047 C 0.82278 0.83067 0.62733 0.0
C1048 C 0.80713 0.77565 0.63661 0.0
C1049 C 0.85252 0.84292 0.63982 0.0
C1050 C 0.85963 0.82205 0.65067 0.0
C1051 C 0.84339 0.76778 0.66122 0.0
C1052 C 0.82034 0.73433 0.66066 0.0
C1053 C 0.83694 0.78851 0.64945 0.0
C1054 C 0.79088 0.72158 0.64776 0.0
C1055 C 0.78439 0.74204 0.63574 0.0
H1056 H 1.00037 0.77488 0.59958 0.0
H1057 H 0.05257 0.82573 0.66024 0.0
H1058 H 1.00517 0.79034 0.67854 0.0
H1059 H 0.94773 0.74579 0.67713 0.0
H1060 H 0.89572 0.69698 0.61589 0.0
H1061 H 0.94392 0.73041 0.59817 0.0
C1062 C 1.00137 0.77807 0.61682 0.0
C1063 C 0.02984 0.80289 0.62848 0.0
C1064 C 0.97392 0.75795 0.62719 0.0
C1065 C 0.03086 0.80687 0.65083 0.0
C1066 C 1.00375 0.7866 0.66132 0.0
C1067 C 0.94711 0.74233 0.65995 0.0
C1068 C 0.91808 0.71891 0.64792 0.0
C1069 C 0.97499 0.76217 0.64966 0.0
C1070 C 0.91761 0.71493 0.6256 0.0
C1071 C 0.94522 0.73404 0.61538 0.0
H1072 H 0.17364 0.20615 0.63806 0.0
H1073 H 0.17297 0.15528 0.579 0.0
H1074 H 0.21677 0.14802 0.59461 0.0
H1075 H 0.25508 0.15596 0.62502 0.0
H1076 H 0.25559 0.20654 0.68427 0.0
H1077 H 0.21213 0.21408 0.6686 0.0
C1078 C 0.18305 0.19344 0.62865 0.0
C1079 C 0.1701 0.18119 0.60743 0.0
C1080 C 0.20824 0.18933 0.63774 0.0
C1081 C 0.18257 0.16483 0.59541 0.0
C1082 C 0.20761 0.16071 0.6043 0.0
C1083 C 0.24579 0.16871 0.63452 0.0
C1084 C 0.25868 0.18066 0.6558 0.0
C1085 C 0.22064 0.17286 0.62545 0.0
C1086 C 0.24617 0.19703 0.66785 0.0
C1087 C 0.22126 0.20137 0.65891 0.0
H1088 H 0.77696 0.98975 0.6258 0.0
H1089 H 0.85696 0.98613 0.65831 0.0
H1090 H 0.87743 0.04102 0.67594 0.0
H1091 H 0.87292 0.09036 0.68184 0.0
H1092 H 0.79213 0.09345 0.65011 0.0
H1093 H 0.77171 0.03859 0.63237 0.0
C1094 C 0.79882 1.00101 0.63681 0.0
C1095 C 0.81538 0.98397 0.64077 0.0
C1096 C 0.81037 0.03252 0.64694 0.0
C1097 C 0.84368 0.9987 0.65504 0.0
C1098 C 0.85545 0.03013 0.6651 0.0
C1099 C 0.85082 0.07896 0.67106 0.0
C1100 C 0.83418 0.09595 0.66712 0.0
C1101 C 0.83904 0.04729 0.66113 0.0
C1102 C 0.80553 0.08094 0.6532 0.0
C1103 C 0.79379 0.04955 0.64312 0.0
H1104 H 0.43574 0.3612 0.72903 0.0
H1105 H 0.52158 0.3742 0.70135 0.0
H1106 H 0.49157 0.31792 0.68478 0.0
H1107 H 0.44117 0.26464 0.67866 0.0
H1108 H 0.35474 0.25193 0.70529 0.0
H1109 H 0.3847 0.30834 0.72188 0.0
C1110 C 0.44774 0.35168 0.71927 0.0
C1111 C 0.48073 0.37176 0.71641 0.0
C1112 C 0.4303 0.31931 0.70973 0.0
C1113 C 0.49615 0.35927 0.70374 0.0
C1114 C 0.47903 0.32704 0.69431 0.0
C1115 C 0.42892 0.27426 0.6881 0.0
C1116 C 0.39593 0.25415 0.69095 0.0
C1117 C 0.44617 0.3068 0.69729 0.0
C1118 C 0.38024 0.26691 0.70306 0.0
C1119 C 0.39732 0.29916 0.71248 0.0
H1120 H 0.64583 0.08957 0.71017 0.0
H1121 H 0.67916 0.18088 0.74827 0.0
H1122 H 0.73354 0.20245 0.73619 0.0
H1123 H 0.77173 0.19497 0.7147 0.0
H1124 H 0.73617 0.1055 0.67384 0.0
H1125 H 0.68262 0.08357 0.6869 0.0
C1126 C 0.66508 0.11419 0.71577 0.0
C1127 C 0.65874 0.13359 0.73014 0.0
C1128 C 0.69583 0.12672 0.7082 0.0
C1129 C 0.68358 0.16559 0.73714 0.0
C1130 C 0.71464 0.17786 0.73028 0.0
C1131 C 0.75217 0.17071 0.70869 0.0
C1132 C 0.75784 0.15177 0.69343 0.0
C1133 C 0.72108 0.15863 0.7158 0.0
C1134 C 0.73229 0.12056 0.68552 0.0
C1135 C 0.70171 0.10796 0.69303 0.0
H1136 H 0.84395 0.49622 0.70925 0.0
H1137 H 0.93181 0.57944 0.73978 0.0
H1138 H 0.91735 0.61663 0.7231 0.0
H1139 H 0.88005 0.62519 0.699 0.0
H1140 H 0.79133 0.5413 0.66988 0.0
H1141 H 0.8059 0.50467 0.68671 0.0
C1142 C 0.85999 0.52248 0.71223 0.0
C1143 C 0.88908 0.53514 0.72552 0.0
C1144 C 0.85137 0.54358 0.70279 0.0
C1145 C 0.90934 0.56921 0.7295 0.0
C1146 C 0.9011 0.59044 0.71996 0.0
C1147 C 0.86386 0.59891 0.69652 0.0
C1148 C 0.83472 0.58597 0.68319 0.0
C1149 C 0.87223 0.57788 0.70647 0.0
C1150 C 0.81398 0.55187 0.68001 0.0
C1151 C 0.82226 0.53088 0.68963 0.0
H1152 H 0.41073 0.90794 0.20479 0.0
H1153 H 0.50327 0.9746 0.23989 0.0
H1154 H 0.52485 0.99934 0.20731 0.0
H1155 H 0.51828 1.0007 0.16869 0.0
H1156 H 0.42666 0.93256 0.13294 0.0
H1157 H 0.40379 0.91025 0.16585 0.0
C1158 C 0.43545 0.92818 0.20529 0.0
C1159 C 0.4554 0.93938 0.22472 0.0
C1160 C 0.44794 0.94197 0.18635 0.0
C1161 C 0.48752 0.9654 0.22512 0.0
C1162 C 0.49988 0.97955 0.20649 0.0
C1163 C 0.49337 0.98079 0.16801 0.0
C1164 C 0.47439 0.96828 0.14823 0.0
C1165 C 0.48049 0.9677 0.18696 0.0
C1166 C 0.44187 0.94296 0.14787 0.0
C1167 C 0.42878 0.93001 0.16671 0.0
H1168 H 0.11478 0.51301 0.21961 0.0
H1169 H 0.04037 0.52752 0.2451 0.0
H1170 H 0.01422 0.51983 0.20923 0.0
H1171 H 0.01503 0.51374 0.17065 0.0
H1172 H 0.08874 0.49852 0.14455 0.0
H1173 H 0.11277 0.50211 0.18054 0.0
C1174 C 0.09249 0.51383 0.21728 0.0
C1175 C 0.07965 0.52105 0.23496 0.0
C1176 C 0.07775 0.50981 0.19649 0.0
C1177 C 0.0509 0.52233 0.23171 0.0
C1178 C 0.03596 0.51798 0.21121 0.0
C1179 C 0.03594 0.51049 0.17274 0.0
C1180 C 0.05007 0.50606 0.15479 0.0
C1181 C 0.04955 0.51243 0.19346 0.0
C1182 C 0.07761 0.50256 0.158 0.0
C1183 C 0.09128 0.50439 0.17861 0.0
H1184 H 0.50871 0.61864 0.22047 0.0
H1185 H 0.46313 0.51501 0.22664 0.0
H1186 H 0.47569 0.50581 0.19077 0.0
H1187 H 0.50216 0.52757 0.15825 0.0
H1188 H 0.54875 0.63144 0.15271 0.0
H1189 H 0.53387 0.64016 0.18783 0.0
C1190 C 0.50166 0.59403 0.21406 0.0
C1191 C 0.4851 0.5676 0.22639 0.0
C1192 C 0.5094 0.58896 0.19353 0.0
C1193 C 0.47559 0.53581 0.21752 0.0
C1194 C 0.48299 0.53054 0.19702 0.0
C1195 C 0.50872 0.55207 0.16462 0.0
C1196 C 0.52676 0.57882 0.15283 0.0
C1197 C 0.50016 0.55697 0.18495 0.0
C1198 C 0.53533 0.61044 0.1615 0.0
C1199 C 0.52669 0.61545 0.18157 0.0
H1200 H 0.94986 0.48906 0.79079 0.0
H1201 H 0.88315 0.38592 0.79339 0.0
H1202 H 0.90305 0.39012 0.83049 0.0
H1203 H 0.93985 0.42286 0.86219 0.0
H1204 H 1.00491 0.52631 0.86016 0.0
H1205 H 0.98451 0.52238 0.82305 0.0
C1206 C 0.93932 0.46757 0.79952 0.0
C1207 C 0.91527 0.43715 0.78913 0.0
C1208 C 0.95046 0.47023 0.82102 0.0
C1209 C 0.90222 0.40951 0.80074 0.0
C1210 C 0.91339 0.41192 0.82205 0.0
C1211 C 0.94953 0.44451 0.85358 0.0
C1212 C 0.9739 0.47478 0.86383 0.0
C1213 C 0.93766 0.44208 0.8323 0.0
C1214 C 0.98595 0.50276 0.85263 0.0
C1215 C 0.97443 0.5005 0.8314 0.0
H1216 H 0.58333 0.5305 0.80165 0.0
H1217 H 0.5511 0.42748 0.80016 0.0
H1218 H 0.53471 0.42657 0.83619 0.0
H1219 H 0.52649 0.45425 0.86724 0.0
H1220 H 0.55792 0.55709 0.8686 0.0
H1221 H 0.57832 0.55904 0.83375 0.0
C1222 C 0.57328 0.50802 0.80938 0.0
C1223 C 0.56815 0.47905 0.79818 0.0
C1224 C 0.56364 0.5076 0.83005 0.0
C1225 C 0.55483 0.45 0.80834 0.0
C1226 C 0.5455 0.44947 0.82894 0.0
C1227 C 0.53777 0.47707 0.85988 0.0
C1228 C 0.54042 0.50539 0.87042 0.0
C1229 C 0.54915 0.47795 0.83976 0.0
C1230 C 0.55572 0.53496 0.86089 0.0
C1231 C 0.56724 0.53606 0.8409 0.0
H1232 H 0.57502 0.11512 0.81174 0.0
H1233 H 0.4845 0.04212 0.77703 0.0
H1234 H 0.46524 0.01649 0.80973 0.0
H1235 H 0.47248 0.01703 0.84842 0.0
H1236 H 0.56319 0.08918 0.88348 0.0
H1237 H 0.58379 0.11312 0.85048 0.0
C1238 C 0.55134 0.09324 0.8113 0.0
C1239 C 0.53114 0.08066 0.79201 0.0
C1240 C 0.54023 0.07878 0.83027 0.0
C1241 C 0.50036 0.05249 0.79173 0.0
C1242 C 0.48932 0.03783 0.81042 0.0
C1243 C 0.497 0.03761 0.84888 0.0
C1244 C 0.51611 0.05128 0.86853 0.0
C1245 C 0.5088 0.05111 0.82984 0.0
C1246 C 0.54763 0.07842 0.8687 0.0
C1247 C 0.55956 0.09202 0.84979 0.0
H1248 H 0.09259 0.27984 0.54803 0.0
H1249 H 0.10722 0.19833 0.53283 0.0
H1250 H 0.12336 0.21721 0.49798 0.0
H1251 H 0.1369 0.25889 0.4728 0.0
H1252 H 0.12178 0.34006 0.48766 0.0
H1253 H 0.10156 0.31893 0.52145 0.0
C1254 C 0.09867 0.26584 0.53693 0.0
C1255 C 0.09911 0.23796 0.54316 0.0
C1256 C 0.10798 0.27685 0.51688 0.0
C1257 C 0.10729 0.22024 0.52861 0.0
C1258 C 0.11645 0.23096 0.50865 0.0
C1259 C 0.12905 0.27184 0.48343 0.0
C1260 C 0.13108 0.3011 0.47788 0.0
C1261 C 0.11758 0.25962 0.50282 0.0
C1262 C 0.12032 0.31739 0.49158 0.0
C1263 C 0.10893 0.30542 0.51093 0.0
H1264 H 0.75234 0.82149 0.56008 0.0
H1265 H 0.8305 0.92108 0.56014 0.0
H1266 H 0.8144 0.92151 0.52285 0.0
H1267 H 0.77566 0.89536 0.49118 0.0
H1268 H 0.6965 0.79627 0.49073 0.0
H1269 H 0.71572 0.79355 0.52696 0.0
C1270 C 0.76609 0.84301 0.55176 0.0
C1271 C 0.79226 0.87136 0.56288 0.0
C1272 C 0.75643 0.84324 0.5303 0.0
C1273 C 0.80992 0.89916 0.55197 0.0
C1274 C 0.80077 0.89942 0.53066 0.0
C1275 C 0.76268 0.87313 0.49901 0.0
C1276 C 0.7345 0.84623 0.48842 0.0
C1277 C 0.7736 0.87193 0.51985 0.0
C1278 C 0.71831 0.81732 0.49855 0.0
C1279 C 0.72918 0.81582 0.51931 0.0
H1280 H 0.11108 0.86964 0.55213 0.0
H1281 H 0.20918 0.91307 0.58178 0.0
H1282 H 0.22835 0.90864 0.54745 0.0
H1283 H 0.21792 0.8945 0.50897 0.0
H1284 H 0.11997 0.84967 0.47879 0.0
H1285 H 0.10024 0.85306 0.51325 0.0
C1286 C 0.13656 0.87773 0.55107 0.0
C1287 C 0.15869 0.8919 0.56948 0.0
C1288 C 0.14755 0.87523 0.53116 0.0
C1289 C 0.19171 0.90251 0.56782 0.0
C1290 C 0.2027 0.89993 0.5482 0.0
C1291 C 0.19215 0.88496 0.50989 0.0
C1292 C 0.17054 0.87179 0.49121 0.0
C1293 C 0.18093 0.88666 0.52974 0.0
C1294 C 0.13731 0.86033 0.4928 0.0
C1295 C 0.12594 0.86203 0.51255 0.0
H1296 H 0.62072 0.7774 0.11789 0.0
H1297 H 0.54584 0.80065 0.12931 0.0
H1298 H 0.56136 0.80841 0.16775 0.0
H1299 H 0.59577 0.80754 0.19816 0.0
H1300 H 0.66978 0.78312 0.18615 0.0
H1301 H 0.65501 0.77686 0.14791 0.0
C1302 C 0.60761 0.7839 0.1288 0.0
C1303 C 0.58201 0.78818 0.12079 0.0
C1304 C 0.61657 0.7882 0.15078 0.0
C1305 C 0.56573 0.79735 0.13509 0.0
C1306 C 0.5745 0.80164 0.15706 0.0
C1307 C 0.60855 0.80074 0.18715 0.0
C1308 C 0.63394 0.79597 0.19502 0.0
C1309 C 0.59979 0.79696 0.1651 0.0
C1310 C 0.65051 0.78747 0.18054 0.0
C1311 C 0.64194 0.78366 0.15866 0.0
H1312 H 0.27471 0.84628 0.14459 0.0
H1313 H 0.17851 0.81151 0.11389 0.0
H1314 H 0.1586 0.81343 0.1483 0.0
H1315 H 0.16778 0.82339 0.18694 0.0
H1316 H 0.2638 0.8598 0.2184 0.0
H1317 H 0.28442 0.85848 0.18391 0.0
C1318 C 0.2495 0.83946 0.14548 0.0
C1319 C 0.22806 0.82846 0.12672 0.0
C1320 C 0.23811 0.84067 0.16542 0.0
C1321 C 0.19538 0.81951 0.12811 0.0
C1322 C 0.18398 0.82072 0.14777 0.0
C1323 C 0.19336 0.83158 0.1863 0.0
C1324 C 0.2142 0.84184 0.20525 0.0
C1325 C 0.20503 0.83103 0.1665 0.0
C1326 C 0.24712 0.8515 0.20408 0.0
C1327 C 0.25897 0.85094 0.18434 0.0
H1328 H 0.25413 0.45595 0.14992 0.0
H1329 H 0.1606 0.39257 0.11479 0.0
H1330 H 0.14063 0.36285 0.14598 0.0
H1331 H 0.14899 0.35607 0.18338 0.0
H1332 H 0.24246 0.41843 0.21883 0.0
H1333 H 0.26319 0.44755 0.18737 0.0
C1334 C 0.22952 0.43539 0.14907 0.0
C1335 C 0.20879 0.42659 0.13016 0.0
C1336 C 0.21814 0.41842 0.16711 0.0
C1337 C 0.17685 0.40009 0.12929 0.0
C1338 C 0.16545 0.38302 0.14707 0.0
C1339 C 0.17406 0.37569 0.18417 0.0
C1340 C 0.19416 0.385 0.20339 0.0
C1341 C 0.18578 0.39216 0.16609 0.0
C1342 C 0.22638 0.41099 0.20426 0.0
C1343 C 0.23829 0.42753 0.18626 0.0
H1344 H 0.78413 0.64598 0.89147 0.0
H1345 H 0.78397 0.55516 0.88051 0.0
H1346 H 0.7949 0.56553 0.84355 0.0
H1347 H 0.8086 0.60228 0.8151 0.0
H1348 H 0.81026 0.69389 0.82603 0.0
H1349 H 0.79475 0.68144 0.86209 0.0
C1350 C 0.78599 0.62828 0.88085 0.0
C1351 C 0.78342 0.59994 0.88874 0.0
C1352 C 0.79291 0.63471 0.85965 0.0
C1353 C 0.78616 0.57731 0.87486 0.0
C1354 C 0.79241 0.58322 0.85373 0.0
C1355 C 0.80504 0.61928 0.82523 0.0
C1356 C 0.81078 0.64906 0.81786 0.0
C1357 C 0.79646 0.61213 0.84605 0.0
C1358 C 0.80645 0.67099 0.83137 0.0
C1359 C 0.79746 0.66384 0.85199 0.0
H1360 H 0.39188 0.15814 0.90113 0.0
H1361 H 0.47686 0.25127 0.8947 0.0
H1362 H 0.45787 0.24896 0.85759 0.0
H1363 H 0.41584 0.22212 0.82762 0.0
H1364 H 0.33041 0.12916 0.83366 0.0
H1365 H 0.35076 0.12975 0.87024 0.0
C1366 C 0.40637 0.17766 0.89148 0.0
C1367 C 0.43558 0.20494 0.90066 0.0
C1368 C 0.39512 0.17634 0.87015 0.0
C1369 C 0.45405 0.23023 0.88805 0.0
C1370 C 0.44326 0.2289 0.86683 0.0
C1371 C 0.4019 0.20172 0.83681 0.0
C1372 C 0.37164 0.17568 0.82793 0.0
C1373 C 0.41364 0.20232 0.85781 0.0
C1374 C 0.35362 0.14971 0.84021 0.0
C1375 C 0.3653 0.14996 0.86109 0.0
H1376 H 0.87116 0.23817 0.90143 0.0
H1377 H 0.77034 0.20793 0.88558 0.0
H1378 H 0.77593 0.19942 0.84786 0.0
H1379 H 0.80982 0.20149 0.8192 0.0
H1380 H 0.91105 0.23344 0.83529 0.0
H1381 H 0.90491 0.24044 0.87297 0.0
C1382 C 0.85045 0.22994 0.88972 0.0
C1383 C 0.8204 0.22377 0.89638 0.0
C1384 C 0.85389 0.22538 0.86804 0.0
C1385 C 0.79368 0.21252 0.88097 0.0
C1386 C 0.7969 0.20785 0.85936 0.0
C1387 C 0.83057 0.21017 0.83094 0.0
C1388 C 0.8608 0.21675 0.82436 0.0
C1389 C 0.82695 0.21436 0.85268 0.0
C1390 C 0.88735 0.22764 0.83987 0.0
C1391 C 0.88394 0.23187 0.86145 0.0
H1392 H 0.23959 0.14032 0.46857 0.0
H1393 H 0.30628 0.11099 0.44672 0.0
H1394 H 0.3285 0.116 0.48341 0.0
H1395 H 0.32756 0.12649 0.52167 0.0
H1396 H 0.26222 0.15752 0.54381 0.0
H1397 H 0.24077 0.15381 0.50704 0.0
C1398 C 0.25932 0.13551 0.47183 0.0
C1399 C 0.2711 0.1251 0.45492 0.0
C1400 C 0.27202 0.13843 0.49302 0.0
C1401 C 0.29642 0.11857 0.45945 0.0
C1402 C 0.30922 0.12153 0.48043 0.0
C1403 C 0.309 0.133 0.5185 0.0
C1404 C 0.29656 0.14225 0.53558 0.0
C1405 C 0.29698 0.1311 0.49734 0.0
C1406 C 0.27198 0.14987 0.53106 0.0
C1407 C 0.25983 0.14796 0.51001 0.0
H1408 H 0.93917 0.16385 0.47092 0.0
H1409 H 0.84952 0.14604 0.43768 0.0
H1410 H 0.82945 0.15169 0.47148 0.0
H1411 H 0.8361 0.15896 0.51044 0.0
H1412 H 0.92445 0.17419 0.54425 0.0
H1413 H 0.94656 0.1731 0.51038 0.0
C1414 C 0.91544 0.16166 0.47113 0.0
C1415 C 0.89576 0.15434 0.45185 0.0
C1416 C 0.90378 0.16442 0.49073 0.0
C1417 C 0.86496 0.15132 0.45233 0.0
C1418 C 0.85349 0.15458 0.47164 0.0
C1419 C 0.86013 0.16185 0.51046 0.0
C1420 C 0.87838 0.16634 0.52996 0.0
C1421 C 0.87243 0.16054 0.49095 0.0
C1422 C 0.90986 0.17091 0.52955 0.0
C1423 C 0.92246 0.17007 0.51016 0.0
H1424 H 0.85732 0.78133 0.48 0.0
H1425 H 0.88503 0.71317 0.45476 0.0
H1426 H 0.87177 0.6852 0.4873 0.0
H1427 H 0.85047 0.67903 0.52242 0.0
H1428 H 0.82228 0.74699 0.54739 0.0
H1429 H 0.83765 0.77621 0.5155 0.0
C1430 C 0.86033 0.76027 0.48161 0.0
C1431 C 0.87191 0.74917 0.46495 0.0
C1432 C 0.85258 0.7443 0.5003 0.0
C1433 C 0.87632 0.72227 0.46741 0.0
C1434 C 0.86858 0.70618 0.48596 0.0
C1435 C 0.84761 0.70018 0.52083 0.0
C1436 C 0.83511 0.71072 0.5372 0.0
C1437 C 0.8564 0.7168 0.50242 0.0
C1438 C 0.83209 0.73853 0.5351 0.0
C1439 C 0.84069 0.75514 0.51682 0.0
loop_
_geom_bond_atom_site_label_1
_geom_bond_atom_site_label_2
_geom_bond_distance
_geom_bond_site_symmetry_2
_ccdc_geom_bond_type
H0 C5 0.930 . S
H1 C8 0.930 . S
H2 C10 0.930 . S
H3 C4 1.016 . S
C4 H3 1.016 . S
C4 N11 1.286 . S
C5 H0 0.930 . S
C5 C6 1.397 . S
C5 C7 1.361 . S
C6 C5 1.397 . S
C6 C10 1.390 . S
C7 C5 1.361 . S
C7 C8 1.393 . S
C7 N11 1.413 . S
C8 H1 0.930 . S
C8 C7 1.393 . S
C8 C9 1.399 . S
C9 C8 1.399 . S
C9 C10 1.381 . S
C10 H2 0.930 . S
C10 C6 1.390 . S
C10 C9 1.381 . S
N11 C4 1.286 . S
N11 C7 1.413 . S
H12 C17 0.930 . S
H13 C20 0.930 . S
H14 C22 0.930 . S
H15 C16 1.016 . S
C16 H15 1.016 . S
C16 N23 1.286 . S
C17 H12 0.930 . S
C17 C18 1.397 . S
C17 C19 1.361 . S
C18 C17 1.397 . S
C18 C22 1.390 . S
C19 C17 1.361 . S
C19 C20 1.393 . S
C19 N23 1.413 . S
C20 H13 0.930 . S
C20 C19 1.393 . S
C20 C21 1.399 . S
C21 C20 1.399 . S
C21 C22 1.381 . S
C22 H14 0.930 . S
C22 C18 1.390 . S
C22 C21 1.381 . S
N23 C16 1.286 . S
N23 C19 1.413 . S
H24 C29 0.930 . S
H25 C32 0.930 . S
H26 C34 0.930 . S
H27 C28 1.016 . S
C28 H27 1.016 . S
C28 N35 1.286 . S
C29 H24 0.930 . S
C29 C30 1.397 . S
C29 C31 1.361 . S
C30 C29 1.397 . S
C30 C34 1.390 . S
C31 C29 1.361 . S
C31 C32 1.393 . S
C31 N35 1.413 . S
C32 H25 0.930 . S
C32 C31 1.393 . S
C32 C33 1.399 . S
C33 C32 1.399 . S
C33 C34 1.381 . S
C34 H26 0.930 . S
C34 C30 1.390 . S
C34 C33 1.381 . S
N35 C28 1.286 . S
N35 C31 1.413 . S
H36 C41 0.930 . S
H37 C44 0.930 . S
H38 C46 0.930 . S
H39 C40 1.016 . S
C40 H39 1.016 . S
C40 N47 1.286 . S
C41 H36 0.930 . S
C41 C42 1.397 . S
C41 C43 1.361 . S
C42 C41 1.397 . S
C42 C46 1.390 . S
C43 C41 1.361 . S
C43 C44 1.393 . S
C43 N47 1.413 . S
C44 H37 0.930 . S
C44 C43 1.393 . S
C44 C45 1.399 . S
C45 C44 1.399 . S
C45 C46 1.381 . S
C46 H38 0.930 . S
C46 C42 1.390 . S
C46 C45 1.381 . S
N47 C40 1.286 . S
N47 C43 1.413 . S
H48 C53 0.930 . S
H49 C56 0.930 . S
H50 C58 0.930 . S
H51 C52 1.016 . S
C52 H51 1.016 . S
C52 N59 1.286 . S
C53 H48 0.930 . S
C53 C54 1.397 . S
C53 C55 1.361 . S
C54 C53 1.397 . S
C54 C58 1.390 . S
C55 C53 1.361 . S
C55 C56 1.393 . S
C55 N59 1.413 . S
C56 H49 0.930 . S
C56 C55 1.393 . S
C56 C57 1.399 . S
C57 C56 1.399 . S
C57 C58 1.381 . S
C58 H50 0.930 . S
C58 C54 1.390 . S
C58 C57 1.381 . S
N59 C52 1.286 . S
N59 C55 1.413 . S
H60 C65 0.930 . S
H61 C68 0.930 . S
H62 C70 0.930 . S
H63 C64 1.016 . S
C64 H63 1.016 . S
C64 N71 1.286 . S
C65 H60 0.930 . S
C65 C66 1.397 . S
C65 C67 1.361 . S
C66 C65 1.397 . S
C66 C70 1.390 . S
C67 C65 1.361 . S
C67 C68 1.393 . S
C67 N71 1.413 . S
C68 H61 0.930 . S
C68 C67 1.393 . S
C68 C69 1.399 . S
C69 C68 1.399 . S
C69 C70 1.381 . S
C70 H62 0.930 . S
C70 C66 1.390 . S
C70 C69 1.381 . S
N71 C64 1.286 . S
N71 C67 1.413 . S
H72 C77 0.930 . S
H73 C80 0.930 . S
H74 C82 0.930 . S
H75 C76 1.016 . S
C76 H75 1.016 . S
C76 N83 1.286 . S
C77 H72 0.930 . S
C77 C78 1.397 . S
C77 C79 1.361 . S
C78 C77 1.397 . S
C78 C82 1.390 . S
C79 C77 1.361 . S
C79 C80 1.393 . S
C79 N83 1.413 . S
C80 H73 0.930 . S
C80 C79 1.393 . S
C80 C81 1.399 . S
C81 C80 1.399 . S
C81 C82 1.381 . S
C82 H74 0.930 . S
C82 C78 1.390 . S
C82 C81 1.381 . S
N83 C76 1.286 . S
N83 C79 1.413 . S
H84 C89 0.930 . S
H85 C92 0.930 . S
H86 C94 0.930 . S
H87 C88 1.016 . S
C88 H87 1.016 . S
C88 N95 1.286 . S
C89 H84 0.930 . S
C89 C90 1.397 . S
C89 C91 1.361 . S
C90 C89 1.397 . S
C90 C94 1.390 . S
C91 C89 1.361 . S
C91 C92 1.393 . S
C91 N95 1.413 . S
C92 H85 0.930 . S
C92 C91 1.393 . S
C92 C93 1.399 . S
C93 C92 1.399 . S
C93 C94 1.381 . S
C94 H86 0.930 . S
C94 C90 1.390 . S
C94 C93 1.381 . S
N95 C88 1.286 . S
N95 C91 1.413 . S
H96 C101 0.930 . S
H97 C104 0.930 . S
H98 C106 0.930 . S
H99 C100 1.016 . S
C100 H99 1.016 . S
C100 N107 1.286 . S
C101 H96 0.930 . S
C101 C102 1.397 . S
C101 C103 1.361 . S
C102 C101 1.397 . S
C102 C106 1.390 . S
C103 C101 1.361 . S
C103 C104 1.393 . S
C103 N107 1.413 . S
C104 H97 0.930 . S
C104 C103 1.393 . S
C104 C105 1.399 . S
C105 C104 1.399 . S
C105 C106 1.381 . S
C106 H98 0.930 . S
C106 C102 1.390 . S
C106 C105 1.381 . S
N107 C100 1.286 . S
N107 C103 1.413 . S
H108 C113 0.930 . S
H109 C116 0.930 . S
H110 C118 0.930 . S
H111 C112 1.016 . S
C112 H111 1.016 . S
C112 N119 1.286 . S
C113 H108 0.930 . S
C113 C114 1.397 . S
C113 C115 1.361 . S
C114 C113 1.397 . S
C114 C118 1.390 . S
C115 C113 1.361 . S
C115 C116 1.393 . S
C115 N119 1.413 . S
C116 H109 0.930 . S
C116 C115 1.393 . S
C116 C117 1.399 . S
C117 C116 1.399 . S
C117 C118 1.381 . S
C118 H110 0.930 . S
C118 C114 1.390 . S
C118 C117 1.381 . S
N119 C112 1.286 . S
N119 C115 1.413 . S
H120 C125 0.930 1_554 S
H121 C128 0.930 . S
H122 C130 0.930 . S
H123 C124 1.016 . S
C124 H123 1.016 . S
C124 N131 1.286 . S
C125 H120 0.930 1_556 S
C125 C126 1.397 . S
C125 C127 1.361 . S
C126 C125 1.397 . S
C126 C130 1.390 . S
C127 C125 1.361 . S
C127 C128 1.393 . S
C127 N131 1.413 . S
C128 H121 0.930 . S
C128 C127 1.393 . S
C128 C129 1.399 . S
C129 C128 1.399 . S
C129 C130 1.381 . S
C130 H122 0.930 . S
C130 C126 1.390 . S
C130 C129 1.381 . S
N131 C124 1.286 . S
N131 C127 1.413 . S
H132 C137 0.930 . S
H133 C140 0.930 . S
H134 C142 0.930 . S
H135 C136 1.016 . S
C136 H135 1.016 . S
C136 N143 1.286 . S
C137 H132 0.930 . S
C137 C138 1.397 . S
C137 C139 1.361 . S
C138 C137 1.397 . S
C138 C142 1.390 . S
C139 C137 1.361 . S
C139 C140 1.393 . S
C139 N143 1.413 . S
C140 H133 0.930 . S
C140 C139 1.393 . S
C140 C141 1.399 . S
C141 C140 1.399 . S
C141 C142 1.381 . S
C142 H134 0.930 . S
C142 C138 1.390 . S
C142 C141 1.381 . S
N143 C136 1.286 . S
N143 C139 1.413 . S
H144 C149 0.930 . S
H145 C152 0.930 . S
H146 C154 0.930 . S
H147 C148 1.016 . S
C148 H147 1.016 . S
C148 N155 1.286 . S
C149 H144 0.930 . S
C149 C150 1.397 . S
C149 C151 1.361 . S
C150 C149 1.397 . S
C150 C154 1.390 . S
C151 C149 1.361 . S
C151 C152 1.393 . S
C151 N155 1.413 . S
C152 H145 0.930 . S
C152 C151 1.393 . S
C152 C153 1.399 . S
C153 C152 1.399 . S
C153 C154 1.381 . S
C154 H146 0.930 . S
C154 C150 1.390 . S
C154 C153 1.381 . S
N155 C148 1.286 . S
N155 C151 1.413 . S
H156 C161 0.930 . S
H157 C164 0.930 . S
H158 C166 0.930 . S
H159 C160 1.016 . S
C160 H159 1.016 . S
C160 N167 1.286 . S
C161 H156 0.930 . S
C161 C162 1.397 . S
C161 C163 1.361 . S
C162 C161 1.397 . S
C162 C166 1.390 . S
C163 C161 1.361 . S
C163 C164 1.393 . S
C163 N167 1.413 . S
C164 H157 0.930 . S
C164 C163 1.393 . S
C164 C165 1.399 . S
C165 C164 1.399 . S
C165 C166 1.381 . S
C166 H158 0.930 . S
C166 C162 1.390 . S
C166 C165 1.381 . S
N167 C160 1.286 . S
N167 C163 1.413 . S
H168 C173 0.930 . S
H169 C176 0.930 . S
H170 C178 0.930 . S
H171 C172 1.016 . S
C172 H171 1.016 . S
C172 N179 1.286 . S
C173 H168 0.930 . S
C173 C174 1.397 . S
C173 C175 1.361 . S
C174 C173 1.397 . S
C174 C178 1.390 . S
C175 C173 1.361 . S
C175 C176 1.393 . S
C175 N179 1.413 . S
C176 H169 0.930 . S
C176 C175 1.393 . S
C176 C177 1.399 . S
C177 C176 1.399 . S
C177 C178 1.381 . S
C178 H170 0.930 . S
C178 C174 1.390 . S
C178 C177 1.381 . S
N179 C172 1.286 . S
N179 C175 1.413 . S
H180 C185 0.930 . S
H181 C188 0.930 . S
H182 C190 0.930 . S
H183 C184 1.016 . S
C184 H183 1.016 . S
C184 N191 1.286 . S
C185 H180 0.930 . S
C185 C186 1.397 . S
C185 C187 1.361 . S
C186 C185 1.397 . S
C186 C190 1.390 . S
C187 C185 1.361 . S
C187 C188 1.393 . S
C187 N191 1.413 . S
C188 H181 0.930 . S
C188 C187 1.393 . S
C188 C189 1.399 . S
C189 C188 1.399 . S
C189 C190 1.381 . S
C190 H182 0.930 . S
C190 C186 1.390 . S
C190 C189 1.381 . S
N191 C184 1.286 . S
N191 C187 1.413 . S
H192 C197 0.930 . S
H193 C200 0.930 . S
H194 C202 0.930 . S
H195 C196 1.016 . S
C196 H195 1.016 . S
C196 N203 1.286 . S
C197 H192 0.930 . S
C197 C198 1.397 . S
C197 C199 1.361 . S
C198 C197 1.397 . S
C198 C202 1.390 . S
C199 C197 1.361 . S
C199 C200 1.393 . S
C199 N203 1.413 . S
C200 H193 0.930 . S
C200 C199 1.393 . S
C200 C201 1.399 . S
C201 C200 1.399 . S
C201 C202 1.381 . S
C202 H194 0.930 . S
C202 C198 1.390 . S
C202 C201 1.381 . S
N203 C196 1.286 . S
N203 C199 1.413 . S
H204 C209 0.930 . S
H205 C212 0.930 . S
H206 C214 0.930 . S
H207 C208 1.016 . S
C208 H207 1.016 . S
C208 N215 1.286 . S
C209 H204 0.930 . S
C209 C210 1.397 . S
C209 C211 1.361 . S
C210 C209 1.397 . S
C210 C214 1.390 . S
C211 C209 1.361 . S
C211 C212 1.393 . S
C211 N215 1.413 . S
C212 H205 0.930 . S
C212 C211 1.393 . S
C212 C213 1.399 . S
C213 C212 1.399 . S
C213 C214 1.381 . S
C214 H206 0.930 . S
C214 C210 1.390 . S
C214 C213 1.381 . S
N215 C208 1.286 . S
N215 C211 1.413 . S
C216 Eu217 2.835 . S
C216 C218 1.500 1_545 S
C216 O236 1.257 1_545 S
C216 O237 1.260 . S
Eu217 C216 2.835 . S
Eu217 O236 2.473 1_545 S
Eu217 O237 2.480 . S
Eu217 O238 2.430 . S
Eu217 O239 2.670 1_554 S
Eu217 O240 2.394 1_545 S
Eu217 O245 2.355 1_545 S
Eu217 O247 2.374 . S
C218 C216 1.500 1_565 S
C218 C219 1.377 1_565 S
C218 C223 1.377 . S
C219 C218 1.377 1_545 S
C219 C220 1.395 . S
C219 H248 0.931 . S
C220 C219 1.395 . S
C220 C221 1.383 1_545 S
C220 H249 0.931 . S
C221 C220 1.383 1_565 S
C221 C222 1.394 . S
C222 C221 1.394 . S
C222 C223 1.378 . S
C222 H250 0.931 . S
C223 C218 1.377 . S
C223 C222 1.378 . S
C223 H251 0.931 . S
C224 O238 1.259 . S
C224 O239 1.270 1_554 S
C225 O240 1.251 . S
C225 O241 1.251 1_554 S
C226 Eu227 2.835 1_545 S
C226 C228 1.500 . S
C226 O242 1.257 . S
C226 O243 1.260 1_545 S
Eu227 C226 2.835 1_565 S
Eu227 O239 2.355 1_565 S
Eu227 O241 2.374 . S
Eu227 O242 2.473 1_565 S
Eu227 O243 2.480 . S
Eu227 O244 2.430 . S
Eu227 O245 2.670 1_556 S
Eu227 O246 2.394 1_565 S
C228 C226 1.500 . S
C228 C229 1.377 . S
C228 C233 1.377 . S
C229 C228 1.377 . S
C229 C230 1.395 . S
C229 H252 0.931 1_545 S
C230 C229 1.395 . S
C230 C231 1.383 . S
C230 H253 0.931 1_545 S
C231 C230 1.383 . S
C231 C232 1.394 . S
C232 C231 1.394 . S
C232 C233 1.378 . S
C232 H254 0.931 . S
C233 C228 1.377 . S
C233 C232 1.378 . S
C233 H255 0.931 . S
C234 O244 1.259 1_554 S
C234 O245 1.270 . S
C235 O246 1.251 . S
C235 O247 1.251 1_556 S
O236 C216 1.257 1_565 S
O236 Eu217 2.473 1_565 S
O237 C216 1.260 . S
O237 Eu217 2.480 . S
O238 Eu217 2.430 . S
O238 C224 1.259 . S
O239 Eu217 2.670 1_556 S
O239 C224 1.270 1_556 S
O239 Eu227 2.355 1_545 S
O240 Eu217 2.394 1_565 S
O240 C225 1.251 . S
O241 C225 1.251 1_556 S
O241 Eu227 2.374 . S
O242 C226 1.257 . S
O242 Eu227 2.473 1_545 S
O243 C226 1.260 1_565 S
O243 Eu227 2.480 . S
O244 Eu227 2.430 . S
O244 C234 1.259 1_556 S
O245 Eu217 2.355 1_565 S
O245 Eu227 2.670 1_554 S
O245 C234 1.270 . S
O246 Eu227 2.394 1_545 S
O246 C235 1.251 . S
O247 Eu217 2.374 . S
O247 C235 1.251 1_554 S
H248 C219 0.931 . S
H249 C220 0.931 . S
H250 C222 0.931 . S
H251 C223 0.931 . S
H252 C229 0.931 1_565 S
H253 C230 0.931 1_565 S
H254 C232 0.931 . S
H255 C233 0.931 . S
C256 Eu257 2.835 1_455 S
C256 C258 1.500 . S
C256 O276 1.257 . S
C256 O277 1.260 1_455 S
Eu257 C256 2.835 1_655 S
Eu257 O276 2.473 1_655 S
Eu257 O277 2.480 . S
Eu257 O278 2.430 . S
Eu257 O279 2.670 1_554 S
Eu257 O280 2.394 1_655 S
Eu257 O285 2.355 1_655 S
Eu257 O287 2.374 . S
C258 C256 1.500 . S
C258 C259 1.377 . S
C258 C263 1.377 . S
C259 C258 1.377 . S
C259 C260 1.395 . S
C259 H288 0.931 1_455 S
C260 C259 1.395 . S
C260 C261 1.383 . S
C260 H289 0.931 . S
C261 C260 1.383 . S
C261 C262 1.394 . S
C262 C261 1.394 . S
C262 C263 1.378 . S
C262 H290 0.931 . S
C263 C258 1.377 . S
C263 C262 1.378 . S
C263 H291 0.931 . S
C264 O278 1.259 . S
C264 O279 1.270 1_554 S
C265 O280 1.251 . S
C265 O281 1.251 . S
C266 Eu267 2.835 1_655 S
C266 C268 1.500 . S
C266 O282 1.257 . S
C266 O283 1.260 1_655 S
Eu267 C266 2.835 1_455 S
Eu267 O279 2.355 1_455 S
Eu267 O281 2.374 1_556 S
Eu267 O282 2.473 1_455 S
Eu267 O283 2.480 . S
Eu267 O284 2.430 . S
Eu267 O285 2.670 1_556 S
Eu267 O286 2.394 1_455 S
C268 C266 1.500 . S
C268 C269 1.377 1_655 S
C268 C273 1.377 . S
C269 C268 1.377 1_455 S
C269 C270 1.395 1_455 S
C269 H292 0.931 . S
C270 C269 1.395 1_655 S
C270 C271 1.383 . S
C270 H293 0.931 1_655 S
C271 C270 1.383 . S
C271 C272 1.394 . S
C272 C271 1.394 . S
C272 C273 1.378 . S
C272 H294 0.931 . S
C273 C268 1.377 . S
C273 C272 1.378 . S
C273 H295 0.931 . S
C274 O284 1.259 1_554 S
C274 O285 1.270 . S
C275 O286 1.251 . S
C275 O287 1.251 1_556 S
O276 C256 1.257 . S
O276 Eu257 2.473 1_455 S
O277 C256 1.260 1_655 S
O277 Eu257 2.480 . S
O278 Eu257 2.430 . S
O278 C264 1.259 . S
O279 Eu257 2.670 1_556 S
O279 C264 1.270 1_556 S
O279 Eu267 2.355 1_655 S
O280 Eu257 2.394 1_455 S
O280 C265 1.251 . S
O281 C265 1.251 . S
O281 Eu267 2.374 1_554 S
O282 C266 1.257 . S
O282 Eu267 2.473 1_655 S
O283 C266 1.260 1_455 S
O283 Eu267 2.480 . S
O284 Eu267 2.430 . S
O284 C274 1.259 1_556 S
O285 Eu257 2.355 1_455 S
O285 Eu267 2.670 1_554 S
O285 C274 1.270 . S
O286 Eu267 2.394 1_655 S
O286 C275 1.251 . S
O287 Eu257 2.374 . S
O287 C275 1.251 1_554 S
H288 C259 0.931 1_655 S
H289 C260 0.931 . S
H290 C262 0.931 . S
H291 C263 0.931 . S
H292 C269 0.931 . S
H293 C270 0.931 1_455 S
H294 C272 0.931 . S
H295 C273 0.931 . S
C296 Eu297 2.835 . S
C296 C298 1.500 . S
C296 O316 1.257 . S
C296 O317 1.260 . S
Eu297 C296 2.835 . S
Eu297 O316 2.473 . S
Eu297 O317 2.480 . S
Eu297 O318 2.430 . S
Eu297 O319 2.670 1_556 S
Eu297 O320 2.394 . S
Eu297 O325 2.351 1_556 S
Eu297 O327 2.374 1_556 S
C298 C296 1.500 . S
C298 C299 1.377 . S
C298 C303 1.377 . S
C299 C298 1.377 . S
C299 C300 1.395 . S
C299 H328 0.931 . S
C300 C299 1.395 . S
C300 C301 1.383 . S
C300 H329 0.931 . S
C301 C300 1.383 . S
C301 C302 1.394 . S
C302 C301 1.394 . S
C302 C303 1.378 . S
C302 H330 0.931 . S
C303 C298 1.377 . S
C303 C302 1.378 . S
C303 H331 0.931 . S
C304 O318 1.259 1_554 S
C304 O319 1.270 . S
C305 O320 1.251 . S
C305 O321 1.251 1_556 S
C306 Eu307 2.835 . S
C306 C308 1.500 . S
C306 O322 1.257 . S
C306 O323 1.260 . S
Eu307 C306 2.835 . S
Eu307 O319 2.355 . S
Eu307 O321 2.374 . S
Eu307 O322 2.473 . S
Eu307 O323 2.480 . S
Eu307 O324 2.430 . S
Eu307 O325 2.676 . S
Eu307 O326 2.394 . S
C308 C306 1.500 . S
C308 C309 1.377 . S
C308 C313 1.377 . S
C309 C308 1.377 . S
C309 C310 1.395 . S
C309 H332 0.931 . S
C310 C309 1.395 . S
C310 C311 1.383 . S
C310 H333 0.931 . S
C311 C310 1.383 . S
C311 C312 1.394 . S
C312 C311 1.394 . S
C312 C313 1.378 . S
C312 H334 0.931 . S
C313 C308 1.377 . S
C313 C312 1.378 . S
C313 H335 0.931 . S
C314 O324 1.259 . S
C314 O325 1.273 . S
C315 O326 1.251 . S
C315 O327 1.251 . S
O316 C296 1.257 . S
O316 Eu297 2.473 . S
O317 C296 1.260 . S
O317 Eu297 2.480 . S
O318 Eu297 2.430 . S
O318 C304 1.259 1_556 S
O319 Eu297 2.670 1_554 S
O319 C304 1.270 . S
O319 Eu307 2.355 . S
O320 Eu297 2.394 . S
O320 C305 1.251 . S
O321 C305 1.251 1_554 S
O321 Eu307 2.374 . S
O322 C306 1.257 . S
O322 Eu307 2.473 . S
O323 C306 1.260 . S
O323 Eu307 2.480 . S
O324 Eu307 2.430 . S
O324 C314 1.259 . S
O325 Eu297 2.351 1_554 S
O325 Eu307 2.676 . S
O325 C314 1.273 . S
O326 Eu307 2.394 . S
O326 C315 1.251 . S
O327 Eu297 2.374 1_554 S
O327 C315 1.251 . S
H328 C299 0.931 . S
H329 C300 0.931 . S
H330 C302 0.931 . S
H331 C303 0.931 . S
H332 C309 0.931 . S
H333 C310 0.931 . S
H334 C312 0.931 . S
H335 C313 0.931 . S
C336 Eu337 2.835 . S
C336 C338 1.500 . S
C336 O356 1.257 . S
C336 O357 1.260 . S
Eu337 C336 2.835 . S
Eu337 O356 2.473 . S
Eu337 O357 2.480 . S
Eu337 O358 2.430 . S
Eu337 O359 2.670 . S
Eu337 O360 2.394 . S
Eu337 O365 2.355 . S
Eu337 O367 2.374 . S
C338 C336 1.500 . S
C338 C339 1.377 . S
C338 C343 1.377 . S
C339 C338 1.377 . S
C339 C340 1.395 . S
C339 H368 0.931 . S
C340 C339 1.395 . S
C340 C341 1.383 . S
C340 H369 0.931 . S
C341 C340 1.383 . S
C341 C342 1.394 . S
C342 C341 1.394 . S
C342 C343 1.378 . S
C342 H370 0.931 . S
C343 C338 1.377 . S
C343 C342 1.378 . S
C343 H371 0.931 . S
C344 O358 1.259 . S
C344 O359 1.270 . S
C345 O360 1.251 . S
C345 O361 1.251 . S
C346 Eu347 2.835 . S
C346 C348 1.500 . S
C346 O362 1.257 . S
C346 O363 1.260 . S
Eu347 C346 2.835 . S
Eu347 O359 2.355 . S
Eu347 O361 2.374 . S
Eu347 O362 2.473 . S
Eu347 O363 2.480 . S
Eu347 O364 2.430 . S
Eu347 O365 2.670 . S
Eu347 O366 2.394 . S
C348 C346 1.500 . S
C348 C349 1.377 . S
C348 C353 1.377 . S
C349 C348 1.377 . S
C349 C350 1.395 . S
C349 H372 0.931 . S
C350 C349 1.395 . S
C350 C351 1.383 . S
C350 H373 0.931 . S
C351 C350 1.383 . S
C351 C352 1.394 . S
C352 C351 1.394 . S
C352 C353 1.378 . S
C352 H374 0.931 . S
C353 C348 1.377 . S
C353 C352 1.378 . S
C353 H375 0.931 . S
C354 O364 1.259 . S
C354 O365 1.270 . S
C355 O366 1.251 . S
C355 O367 1.251 . S
O356 C336 1.257 . S
O356 Eu337 2.473 . S
O357 C336 1.260 . S
O357 Eu337 2.480 . S
O358 Eu337 2.430 . S
O358 C344 1.259 . S
O359 Eu337 2.670 . S
O359 C344 1.270 . S
O359 Eu347 2.355 . S
O360 Eu337 2.394 . S
O360 C345 1.251 . S
O361 C345 1.251 . S
O361 Eu347 2.374 . S
O362 C346 1.257 . S
O362 Eu347 2.473 . S
O363 C346 1.260 . S
O363 Eu347 2.480 . S
O364 Eu347 2.430 . S
O364 C354 1.259 . S
O365 Eu337 2.355 . S
O365 Eu347 2.670 . S
O365 C354 1.270 . S
O366 Eu347 2.394 . S
O366 C355 1.251 . S
O367 Eu337 2.374 . S
O367 C355 1.251 . S
H368 C339 0.931 . S
H369 C340 0.931 . S
H370 C342 0.931 . S
H371 C343 0.931 . S
H372 C349 0.931 . S
H373 C350 0.931 . S
H374 C352 0.931 . S
H375 C353 0.931 . S
C376 Eu377 2.835 . S
C376 C378 1.500 . S
C376 O396 1.257 . S
C376 O397 1.260 . S
Eu377 C376 2.835 . S
Eu377 O396 2.473 . S
Eu377 O397 2.480 . S
Eu377 O398 2.430 . S
Eu377 O399 2.670 . S
Eu377 O400 2.394 . S
Eu377 O405 2.355 . S
Eu377 O407 2.374 . S
C378 C376 1.500 . S
C378 C379 1.377 . S
C378 C383 1.377 . S
C379 C378 1.377 . S
C379 C380 1.395 . S
C379 H408 0.931 . S
C380 C379 1.395 . S
C380 C381 1.383 . S
C380 H409 0.931 . S
C381 C380 1.383 . S
C381 C382 1.394 . S
C382 C381 1.394 . S
C382 C383 1.378 . S
C382 H410 0.931 . S
C383 C378 1.377 . S
C383 C382 1.378 . S
C383 H411 0.931 . S
C384 O398 1.259 . S
C384 O399 1.270 . S
C385 O400 1.251 . S
C385 O401 1.251 . S
C386 Eu387 2.835 . S
C386 C388 1.500 . S
C386 O402 1.257 . S
C386 O403 1.260 . S
Eu387 C386 2.835 . S
Eu387 O399 2.355 . S
Eu387 O401 2.374 . S
Eu387 O402 2.473 . S
Eu387 O403 2.480 . S
Eu387 O404 2.430 . S
Eu387 O405 2.670 . S
Eu387 O406 2.394 . S
C388 C386 1.500 . S
C388 C389 1.377 . S
C388 C393 1.377 . S
C389 C388 1.377 . S
C389 C390 1.395 . S
C389 H412 0.931 . S
C390 C389 1.395 . S
C390 C391 1.383 . S
C390 H413 0.931 . S
C391 C390 1.383 . S
C391 C392 1.394 . S
C392 C391 1.394 . S
C392 C393 1.378 . S
C392 H414 0.931 . S
C393 C388 1.377 . S
C393 C392 1.378 . S
C393 H415 0.931 . S
C394 O404 1.259 . S
C394 O405 1.270 . S
C395 O406 1.251 . S
C395 O407 1.251 . S
O396 C376 1.257 . S
O396 Eu377 2.473 . S
O397 C376 1.260 . S
O397 Eu377 2.480 . S
O398 Eu377 2.430 . S
O398 C384 1.259 . S
O399 Eu377 2.670 . S
O399 C384 1.270 . S
O399 Eu387 2.355 . S
O400 Eu377 2.394 . S
O400 C385 1.251 . S
O401 C385 1.251 . S
O401 Eu387 2.374 . S
O402 C386 1.257 . S
O402 Eu387 2.473 . S
O403 C386 1.260 . S
O403 Eu387 2.480 . S
O404 Eu387 2.430 . S
O404 C394 1.259 . S
O405 Eu377 2.355 . S
O405 Eu387 2.670 . S
O405 C394 1.270 . S
O406 Eu387 2.394 . S
O406 C395 1.251 . S
O407 Eu377 2.374 . S
O407 C395 1.251 . S
H408 C379 0.931 . S
H409 C380 0.931 . S
H410 C382 0.931 . S
H411 C383 0.931 . S
H412 C389 0.931 . S
H413 C390 0.931 . S
H414 C392 0.931 . S
H415 C393 0.931 . S
C416 Eu417 2.835 . S
C416 C418 1.500 . S
C416 O436 1.257 . S
C416 O437 1.260 . S
Eu417 C416 2.835 . S
Eu417 O436 2.473 . S
Eu417 O437 2.480 . S
Eu417 O438 2.430 . S
Eu417 O439 2.670 . S
Eu417 O440 2.394 . S
Eu417 O445 2.355 . S
Eu417 O447 2.374 . S
C418 C416 1.500 . S
C418 C419 1.377 . S
C418 C423 1.377 . S
C419 C418 1.377 . S
C419 C420 1.395 . S
C419 H448 0.931 . S
C420 C419 1.395 . S
C420 C421 1.383 . S
C420 H449 0.931 . S
C421 C420 1.383 . S
C421 C422 1.394 . S
C422 C421 1.394 . S
C422 C423 1.378 . S
C422 H450 0.931 . S
C423 C418 1.377 . S
C423 C422 1.378 . S
C423 H451 0.931 . S
C424 O438 1.259 . S
C424 O439 1.270 . S
C425 O440 1.251 . S
C425 O441 1.251 . S
C426 Eu427 2.835 . S
C426 C428 1.500 . S
C426 O442 1.257 . S
C426 O443 1.260 . S
Eu427 C426 2.835 . S
Eu427 O439 2.355 . S
Eu427 O441 2.374 . S
Eu427 O442 2.473 . S
Eu427 O443 2.480 . S
Eu427 O444 2.430 . S
Eu427 O445 2.670 . S
Eu427 O446 2.394 . S
C428 C426 1.500 . S
C428 C429 1.377 . S
C428 C433 1.377 . S
C429 C428 1.377 . S
C429 C430 1.395 . S
C429 H452 0.931 . S
C430 C429 1.395 . S
C430 C431 1.383 . S
C430 H453 0.931 . S
C431 C430 1.383 . S
C431 C432 1.394 . S
C432 C431 1.394 . S
C432 C433 1.378 . S
C432 H454 0.931 . S
C433 C428 1.377 . S
C433 C432 1.378 . S
C433 H455 0.931 . S
C434 O444 1.259 . S
C434 O445 1.270 . S
C435 O446 1.251 . S
C435 O447 1.251 . S
O436 C416 1.257 . S
O436 Eu417 2.473 . S
O437 C416 1.260 . S
O437 Eu417 2.480 . S
O438 Eu417 2.430 . S
O438 C424 1.259 . S
O439 Eu417 2.670 . S
O439 C424 1.270 . S
O439 Eu427 2.355 . S
O440 Eu417 2.394 . S
O440 C425 1.251 . S
O441 C425 1.251 . S
O441 Eu427 2.374 . S
O442 C426 1.257 . S
O442 Eu427 2.473 . S
O443 C426 1.260 . S
O443 Eu427 2.480 . S
O444 Eu427 2.430 . S
O444 C434 1.259 . S
O445 Eu417 2.355 . S
O445 Eu427 2.670 . S
O445 C434 1.270 . S
O446 Eu427 2.394 . S
O446 C435 1.251 . S
O447 Eu417 2.374 . S
O447 C435 1.251 . S
H448 C419 0.931 . S
H449 C420 0.931 . S
H450 C422 0.931 . S
H451 C423 0.931 . S
H452 C429 0.931 . S
H453 C430 0.931 . S
H454 C432 0.931 . S
H455 C433 0.931 . S
C456 Eu457 2.835 . S
C456 C458 1.500 . S
C456 O476 1.257 . S
C456 O477 1.260 . S
Eu457 C456 2.835 . S
Eu457 O476 2.473 . S
Eu457 O477 2.480 . S
Eu457 O478 2.430 . S
Eu457 O479 2.670 . S
Eu457 O480 2.394 . S
Eu457 O485 2.355 . S
Eu457 O487 2.374 . S
C458 C456 1.500 . S
C458 C459 1.377 . S
C458 C463 1.377 . S
C459 C458 1.377 . S
C459 C460 1.395 . S
C459 H488 0.931 . S
C460 C459 1.395 . S
C460 C461 1.383 . S
C460 H489 0.931 . S
C461 C460 1.383 . S
C461 C462 1.394 . S
C462 C461 1.394 . S
C462 C463 1.378 . S
C462 H490 0.931 . S
C463 C458 1.377 . S
C463 C462 1.378 . S
C463 H491 0.931 . S
C464 O478 1.259 . S
C464 O479 1.270 . S
C465 O480 1.251 . S
C465 O481 1.251 . S
C466 Eu467 2.835 . S
C466 C468 1.500 . S
C466 O482 1.257 . S
C466 O483 1.260 . S
Eu467 C466 2.835 . S
Eu467 O479 2.355 . S
Eu467 O481 2.374 . S
Eu467 O482 2.473 . S
Eu467 O483 2.480 . S
Eu467 O484 2.430 . S
Eu467 O485 2.670 . S
Eu467 O486 2.394 . S
C468 C466 1.500 . S
C468 C469 1.377 . S
C468 C473 1.377 . S
C469 C468 1.377 . S
C469 C470 1.395 . S
C469 H492 0.931 . S
C470 C469 1.395 . S
C470 C471 1.383 . S
C470 H493 0.931 . S
C471 C470 1.383 . S
C471 C472 1.394 . S
C472 C471 1.394 . S
C472 C473 1.378 . S
C472 H494 0.931 . S
C473 C468 1.377 . S
C473 C472 1.378 . S
C473 H495 0.931 . S
C474 O484 1.259 . S
C474 O485 1.270 . S
C475 O486 1.251 . S
C475 O487 1.251 . S
O476 C456 1.257 . S
O476 Eu457 2.473 . S
O477 C456 1.260 . S
O477 Eu457 2.480 . S
O478 Eu457 2.430 . S
O478 C464 1.259 . S
O479 Eu457 2.670 . S
O479 C464 1.270 . S
O479 Eu467 2.355 . S
O480 Eu457 2.394 . S
O480 C465 1.251 . S
O481 C465 1.251 . S
O481 Eu467 2.374 . S
O482 C466 1.257 . S
O482 Eu467 2.473 . S
O483 C466 1.260 . S
O483 Eu467 2.480 . S
O484 Eu467 2.430 . S
O484 C474 1.259 . S
O485 Eu457 2.355 . S
O485 Eu467 2.670 . S
O485 C474 1.270 . S
O486 Eu467 2.394 . S
O486 C475 1.251 . S
O487 Eu457 2.374 . S
O487 C475 1.251 . S
H488 C459 0.931 . S
H489 C460 0.931 . S
H490 C462 0.931 . S
H491 C463 0.931 . S
H492 C469 0.931 . S
H493 C470 0.931 . S
H494 C472 0.931 . S
H495 C473 0.931 . S
C496 Eu497 2.835 . S
C496 C498 1.500 . S
C496 O516 1.257 . S
C496 O517 1.260 . S
Eu497 C496 2.835 . S
Eu497 O516 2.473 . S
Eu497 O517 2.480 . S
Eu497 O518 2.430 . S
Eu497 O519 2.670 . S
Eu497 O520 2.394 . S
Eu497 O525 2.355 . S
Eu497 O527 2.374 . S
C498 C496 1.500 . S
C498 C499 1.377 . S
C498 C503 1.377 . S
C499 C498 1.377 . S
C499 C500 1.395 . S
C499 H528 0.931 . S
C500 C499 1.395 . S
C500 C501 1.383 . S
C500 H529 0.931 . S
C501 C500 1.383 . S
C501 C502 1.394 . S
C502 C501 1.394 . S
C502 C503 1.378 . S
C502 H530 0.931 . S
C503 C498 1.377 . S
C503 C502 1.378 . S
C503 H531 0.931 . S
C504 O518 1.259 . S
C504 O519 1.270 . S
C505 O520 1.251 . S
C505 O521 1.251 . S
C506 Eu507 2.835 . S
C506 C508 1.500 . S
C506 O522 1.257 . S
C506 O523 1.260 . S
Eu507 C506 2.835 . S
Eu507 O519 2.355 . S
Eu507 O521 2.374 . S
Eu507 O522 2.473 . S
Eu507 O523 2.480 . S
Eu507 O524 2.430 . S
Eu507 O525 2.670 . S
Eu507 O526 2.394 . S
C508 C506 1.500 . S
C508 C509 1.377 . S
C508 C513 1.377 . S
C509 C508 1.377 . S
C509 C510 1.395 . S
C509 H532 0.931 . S
C510 C509 1.395 . S
C510 C511 1.383 . S
C510 H533 0.931 . S
C511 C510 1.383 . S
C511 C512 1.394 . S
C512 C511 1.394 . S
C512 C513 1.378 . S
C512 H534 0.931 . S
C513 C508 1.377 . S
C513 C512 1.378 . S
C513 H535 0.931 . S
C514 O524 1.259 . S
C514 O525 1.270 . S
C515 O526 1.251 . S
C515 O527 1.251 . S
O516 C496 1.257 . S
O516 Eu497 2.473 . S
O517 C496 1.260 . S
O517 Eu497 2.480 . S
O518 Eu497 2.430 . S
O518 C504 1.259 . S
O519 Eu497 2.670 . S
O519 C504 1.270 . S
O519 Eu507 2.355 . S
O520 Eu497 2.394 . S
O520 C505 1.251 . S
O521 C505 1.251 . S
O521 Eu507 2.374 . S
O522 C506 1.257 . S
O522 Eu507 2.473 . S
O523 C506 1.260 . S
O523 Eu507 2.480 . S
O524 Eu507 2.430 . S
O524 C514 1.259 . S
O525 Eu497 2.355 . S
O525 Eu507 2.670 . S
O525 C514 1.270 . S
O526 Eu507 2.394 . S
O526 C515 1.251 . S
O527 Eu497 2.374 . S
O527 C515 1.251 . S
H528 C499 0.931 . S
H529 C500 0.931 . S
H530 C502 0.931 . S
H531 C503 0.931 . S
H532 C509 0.931 . S
H533 C510 0.931 . S
H534 C512 0.931 . S
H535 C513 0.931 . S
C536 Eu537 2.835 . S
C536 C538 1.500 . S
C536 O556 1.257 . S
C536 O557 1.260 . S
Eu537 C536 2.835 . S
Eu537 O556 2.473 . S
Eu537 O557 2.480 . S
Eu537 O558 2.430 . S
Eu537 O559 2.670 . S
Eu537 O560 2.394 . S
Eu537 O565 2.355 . S
Eu537 O567 2.374 . S
C538 C536 1.500 . S
C538 C539 1.377 . S
C538 C543 1.377 . S
C539 C538 1.377 . S
C539 C540 1.395 . S
C539 H568 0.931 . S
C540 C539 1.395 . S
C540 C541 1.383 . S
C540 H569 0.931 . S
C541 C540 1.383 . S
C541 C542 1.394 . S
C542 C541 1.394 . S
C542 C543 1.378 . S
C542 H570 0.931 . S
C543 C538 1.377 . S
C543 C542 1.378 . S
C543 H571 0.931 . S
C544 O558 1.259 . S
C544 O559 1.270 . S
C545 O560 1.251 . S
C545 O561 1.251 . S
C546 Eu547 2.835 . S
C546 C548 1.500 . S
C546 O562 1.257 . S
C546 O563 1.260 . S
Eu547 C546 2.835 . S
Eu547 O559 2.355 . S
Eu547 O561 2.374 . S
Eu547 O562 2.473 . S
Eu547 O563 2.480 . S
Eu547 O564 2.430 . S
Eu547 O565 2.670 . S
Eu547 O566 2.394 . S
C548 C546 1.500 . S
C548 C549 1.377 . S
C548 C553 1.377 . S
C549 C548 1.377 . S
C549 C550 1.395 . S
C549 H572 0.931 . S
C550 C549 1.395 . S
C550 C551 1.383 . S
C550 H573 0.931 . S
C551 C550 1.383 . S
C551 C552 1.394 . S
C552 C551 1.394 . S
C552 C553 1.378 . S
C552 H574 0.931 . S
C553 C548 1.377 . S
C553 C552 1.378 . S
C553 H575 0.931 . S
C554 O564 1.259 . S
C554 O565 1.270 . S
C555 O566 1.251 . S
C555 O567 1.251 . S
O556 C536 1.257 . S
O556 Eu537 2.473 . S
O557 C536 1.260 . S
O557 Eu537 2.480 . S
O558 Eu537 2.430 . S
O558 C544 1.259 . S
O559 Eu537 2.670 . S
O559 C544 1.270 . S
O559 Eu547 2.355 . S
O560 Eu537 2.394 . S
O560 C545 1.251 . S
O561 C545 1.251 . S
O561 Eu547 2.374 . S
O562 C546 1.257 . S
O562 Eu547 2.473 . S
O563 C546 1.260 . S
O563 Eu547 2.480 . S
O564 Eu547 2.430 . S
O564 C554 1.259 . S
O565 Eu537 2.355 . S
O565 Eu547 2.670 . S
O565 C554 1.270 . S
O566 Eu547 2.394 . S
O566 C555 1.251 . S
O567 Eu537 2.374 . S
O567 C555 1.251 . S
H568 C539 0.931 . S
H569 C540 0.931 . S
H570 C542 0.931 . S
H571 C543 0.931 . S
H572 C549 0.931 . S
H573 C550 0.931 . S
H574 C552 0.931 . S
H575 C553 0.931 . S
H576 C582 0.930 . S
H577 C585 0.930 . S
H578 C586 0.930 . S
H579 C587 0.930 . S
H580 C590 0.930 . S
H581 C591 0.930 . S
C582 H576 0.930 . S
C582 C583 1.355 . S
C582 C584 1.415 . S
C583 C582 1.355 . S
C583 C585 1.419 . S
C584 C582 1.415 . S
C584 C589 1.425 . S
C584 C591 1.409 . S
C585 H577 0.930 . S
C585 C583 1.419 . S
C585 C586 1.362 . S
C586 H578 0.930 . S
C586 C585 1.362 . S
C586 C589 1.409 . S
C587 H579 0.930 . S
C587 C588 1.355 . S
C587 C589 1.415 . S
C588 C587 1.355 . S
C588 C590 1.419 . S
C589 C584 1.425 . S
C589 C586 1.409 . S
C589 C587 1.415 . S
C590 H580 0.930 . S
C590 C588 1.419 . S
C590 C591 1.362 . S
C591 H581 0.930 . S
C591 C584 1.409 . S
C591 C590 1.362 . S
H592 C598 0.930 . S
H593 C601 0.930 . S
H594 C602 0.930 . S
H595 C603 0.930 . S
H596 C606 0.930 . S
H597 C607 0.930 . S
C598 H592 0.930 . S
C598 C599 1.355 . S
C598 C600 1.415 . S
C599 C598 1.355 . S
C599 C601 1.419 . S
C600 C598 1.415 . S
C600 C605 1.425 . S
C600 C607 1.409 . S
C601 H593 0.930 . S
C601 C599 1.419 . S
C601 C602 1.362 . S
C602 H594 0.930 . S
C602 C601 1.362 . S
C602 C605 1.409 . S
C603 H595 0.930 . S
C603 C604 1.355 . S
C603 C605 1.415 . S
C604 C603 1.355 . S
C604 C606 1.419 . S
C605 C600 1.425 . S
C605 C602 1.409 . S
C605 C603 1.415 . S
C606 H596 0.930 . S
C606 C604 1.419 . S
C606 C607 1.362 . S
C607 H597 0.930 . S
C607 C600 1.409 . S
C607 C606 1.362 . S
H608 C614 0.930 . S
H609 C617 0.930 . S
H610 C618 0.930 . S
H611 C619 0.930 . S
H612 C622 0.930 . S
H613 C623 0.930 . S
C614 H608 0.930 . S
C614 C615 1.355 . S
C614 C616 1.415 . S
C615 C614 1.355 . S
C615 C617 1.419 . S
C616 C614 1.415 . S
C616 C621 1.425 . S
C616 C623 1.409 . S
C617 H609 0.930 . S
C617 C615 1.419 . S
C617 C618 1.362 . S
C618 H610 0.930 . S
C618 C617 1.362 . S
C618 C621 1.409 . S
C619 H611 0.930 . S
C619 C620 1.355 . S
C619 C621 1.415 . S
C620 C619 1.355 . S
C620 C622 1.419 . S
C621 C616 1.425 . S
C621 C618 1.409 . S
C621 C619 1.415 . S
C622 H612 0.930 . S
C622 C620 1.419 . S
C622 C623 1.362 . S
C623 H613 0.930 . S
C623 C616 1.409 . S
C623 C622 1.362 . S
H624 C630 0.930 . S
H625 C633 0.917 1_554 S
H626 C634 0.930 . S
H627 C635 0.971 . S
H628 C638 0.930 . S
H629 C639 0.930 . S
C630 H624 0.930 . S
C630 C631 1.355 . S
C630 C632 1.415 . S
C631 C630 1.355 . S
C631 C633 1.419 . S
C632 C630 1.415 . S
C632 C637 1.425 . S
C632 C639 1.409 . S
C633 H625 0.917 1_556 S
C633 C631 1.419 . S
C633 C634 1.362 1_556 S
C634 H626 0.930 . S
C634 C633 1.362 1_554 S
C634 C637 1.409 1_554 S
C635 H627 0.971 . S
C635 C636 1.328 1_554 S
C635 C637 1.402 1_554 S
C636 C635 1.328 1_556 S
C636 C638 1.419 . S
C637 C632 1.425 . S
C637 C634 1.409 1_556 S
C637 C635 1.402 1_556 S
C638 H628 0.930 . S
C638 C636 1.419 . S
C638 C639 1.362 . S
C639 H629 0.930 . S
C639 C632 1.409 . S
C639 C638 1.362 . S
H640 C646 0.930 . S
H641 C649 0.930 . S
H642 C650 0.930 1_554 S
H643 C651 0.930 1_554 S
H644 C654 0.930 . S
H645 C655 0.930 . S
C646 H640 0.930 . S
C646 C647 1.355 . S
C646 C648 1.415 . S
C647 C646 1.355 . S
C647 C649 1.419 . S
C648 C646 1.415 . S
C648 C653 1.425 . S
C648 C655 1.409 . S
C649 H641 0.930 . S
C649 C647 1.419 . S
C649 C650 1.362 . S
C650 H642 0.930 1_556 S
C650 C649 1.362 . S
C650 C653 1.409 . S
C651 H643 0.930 1_556 S
C651 C652 1.355 . S
C651 C653 1.415 . S
C652 C651 1.355 . S
C652 C654 1.419 . S
C653 C648 1.425 . S
C653 C650 1.409 . S
C653 C651 1.415 . S
C654 H644 0.930 . S
C654 C652 1.419 . S
C654 C655 1.362 . S
C655 H645 0.930 . S
C655 C648 1.409 . S
C655 C654 1.362 . S
H656 C662 0.930 . S
H657 C665 0.930 . S
H658 C666 0.929 1_554 S
H659 C667 0.931 . S
H660 C670 0.930 . S
H661 C671 0.930 . S
C662 H656 0.930 . S
C662 C663 1.355 . S
C662 C664 1.415 . S
C663 C662 1.355 . S
C663 C665 1.419 . S
C664 C662 1.415 . S
C664 C669 1.425 . S
C664 C671 1.409 . S
C665 H657 0.930 . S
C665 C663 1.419 . S
C665 C666 1.362 . S
C666 H658 0.929 1_556 S
C666 C665 1.362 . S
C666 C669 1.409 . S
C667 H659 0.931 . S
C667 C668 1.354 1_554 S
C667 C669 1.414 1_554 S
C668 C667 1.354 1_556 S
C668 C670 1.419 . S
C669 C664 1.425 . S
C669 C666 1.409 . S
C669 C667 1.414 1_556 S
C670 H660 0.930 . S
C670 C668 1.419 . S
C670 C671 1.362 . S
C671 H661 0.930 . S
C671 C664 1.409 . S
C671 C670 1.362 . S
H672 C678 0.930 . S
H673 C681 0.930 . S
H674 C682 0.930 . S
H675 C683 0.930 . S
H676 C686 0.930 . S
H677 C687 0.930 . S
C678 H672 0.930 . S
C678 C679 1.355 . S
C678 C680 1.415 . S
C679 C678 1.355 . S
C679 C681 1.419 . S
C680 C678 1.415 . S
C680 C685 1.425 . S
C680 C687 1.409 . S
C681 H673 0.930 . S
C681 C679 1.419 . S
C681 C682 1.362 . S
C682 H674 0.930 . S
C682 C681 1.362 . S
C682 C685 1.409 . S
C683 H675 0.930 . S
C683 C684 1.355 . S
C683 C685 1.415 . S
C684 C683 1.355 . S
C684 C686 1.419 . S
C685 C680 1.425 . S
C685 C682 1.409 . S
C685 C683 1.415 . S
C686 H676 0.930 . S
C686 C684 1.419 . S
C686 C687 1.362 . S
C687 H677 0.930 . S
C687 C680 1.409 . S
C687 C686 1.362 . S
H688 C694 0.930 . S
H689 C697 0.930 . S
H690 C698 0.930 . S
H691 C699 0.930 . S
H692 C702 0.930 . S
H693 C703 0.930 . S
C694 H688 0.930 . S
C694 C695 1.355 . S
C694 C696 1.415 . S
C695 C694 1.355 . S
C695 C697 1.419 . S
C696 C694 1.415 . S
C696 C701 1.425 . S
C696 C703 1.409 . S
C697 H689 0.930 . S
C697 C695 1.419 . S
C697 C698 1.362 . S
C698 H690 0.930 . S
C698 C697 1.362 . S
C698 C701 1.409 . S
C699 H691 0.930 . S
C699 C700 1.355 . S
C699 C701 1.415 . S
C700 C699 1.355 . S
C700 C702 1.419 . S
C701 C696 1.425 . S
C701 C698 1.409 . S
C701 C699 1.415 . S
C702 H692 0.930 . S
C702 C700 1.419 . S
C702 C703 1.362 . S
C703 H693 0.930 . S
C703 C696 1.409 . S
C703 C702 1.362 . S
H704 C710 0.930 . S
H705 C713 0.930 . S
H706 C714 0.930 . S
H707 C715 0.930 . S
H708 C718 0.930 . S
H709 C719 0.930 . S
C710 H704 0.930 . S
C710 C711 1.355 . S
C710 C712 1.415 . S
C711 C710 1.355 . S
C711 C713 1.419 1_556 S
C712 C710 1.415 . S
C712 C717 1.425 1_556 S
C712 C719 1.409 . S
C713 H705 0.930 . S
C713 C711 1.419 1_554 S
C713 C714 1.362 . S
C714 H706 0.930 . S
C714 C713 1.362 . S
C714 C717 1.409 . S
C715 H707 0.930 . S
C715 C716 1.355 1_554 S
C715 C717 1.415 . S
C716 C715 1.355 1_556 S
C716 C718 1.419 . S
C717 C712 1.425 1_554 S
C717 C714 1.409 . S
C717 C715 1.415 . S
C718 H708 0.930 . S
C718 C716 1.419 . S
C718 C719 1.362 . S
C719 H709 0.930 . S
C719 C712 1.409 . S
C719 C718 1.362 . S
H720 C726 0.930 . S
H721 C729 0.930 . S
H722 C730 0.930 . S
H723 C731 0.930 . S
H724 C734 0.930 . S
H725 C735 0.930 . S
C726 H720 0.930 . S
C726 C727 1.355 . S
C726 C728 1.415 . S
C727 C726 1.355 . S
C727 C729 1.419 . S
C728 C726 1.415 . S
C728 C733 1.425 . S
C728 C735 1.409 . S
C729 H721 0.930 . S
C729 C727 1.419 . S
C729 C730 1.362 . S
C730 H722 0.930 . S
C730 C729 1.362 . S
C730 C733 1.409 . S
C731 H723 0.930 . S
C731 C732 1.355 . S
C731 C733 1.415 . S
C732 C731 1.355 . S
C732 C734 1.419 . S
C733 C728 1.425 . S
C733 C730 1.409 . S
C733 C731 1.415 . S
C734 H724 0.930 . S
C734 C732 1.419 . S
C734 C735 1.362 . S
C735 H725 0.930 . S
C735 C728 1.409 . S
C735 C734 1.362 . S
H736 C742 0.930 . S
H737 C745 0.930 . S
H738 C746 0.930 . S
H739 C747 0.930 . S
H740 C750 0.930 . S
H741 C751 0.930 . S
C742 H736 0.930 . S
C742 C743 1.355 . S
C742 C744 1.415 . S
C743 C742 1.355 . S
C743 C745 1.419 . S
C744 C742 1.415 . S
C744 C749 1.425 . S
C744 C751 1.409 . S
C745 H737 0.930 . S
C745 C743 1.419 . S
C745 C746 1.362 . S
C746 H738 0.930 . S
C746 C745 1.362 . S
C746 C749 1.409 . S
C747 H739 0.930 . S
C747 C748 1.355 . S
C747 C749 1.415 . S
C748 C747 1.355 . S
C748 C750 1.419 . S
C749 C744 1.425 . S
C749 C746 1.409 . S
C749 C747 1.415 . S
C750 H740 0.930 . S
C750 C748 1.419 . S
C750 C751 1.362 . S
C751 H741 0.930 . S
C751 C744 1.409 . S
C751 C750 1.362 . S
H752 C758 0.930 . S
H753 C761 0.930 . S
H754 C762 0.930 . S
H755 C763 0.930 . S
H756 C766 0.930 . S
H757 C767 0.930 . S
C758 H752 0.930 . S
C758 C759 1.355 . S
C758 C760 1.415 . S
C759 C758 1.355 . S
C759 C761 1.419 . S
C760 C758 1.415 . S
C760 C765 1.425 . S
C760 C767 1.409 . S
C761 H753 0.930 . S
C761 C759 1.419 . S
C761 C762 1.362 . S
C762 H754 0.930 . S
C762 C761 1.362 . S
C762 C765 1.409 . S
C763 H755 0.930 . S
C763 C764 1.355 . S
C763 C765 1.415 . S
C764 C763 1.355 . S
C764 C766 1.419 . S
C765 C760 1.425 . S
C765 C762 1.409 . S
C765 C763 1.415 . S
C766 H756 0.930 . S
C766 C764 1.419 . S
C766 C767 1.362 . S
C767 H757 0.930 . S
C767 C760 1.409 . S
C767 C766 1.362 . S
H768 C774 0.930 . S
H769 C777 0.930 . S
H770 C778 0.930 1_455 S
H771 C779 0.930 . S
H772 C782 0.930 . S
H773 C783 0.930 . S
C774 H768 0.930 . S
C774 C775 1.355 . S
C774 C776 1.415 . S
C775 C774 1.355 . S
C775 C777 1.419 . S
C776 C774 1.415 . S
C776 C781 1.413 1_655 S
C776 C783 1.409 . S
C777 H769 0.930 . S
C777 C775 1.419 . S
C777 C778 1.362 . S
C778 H770 0.930 1_655 S
C778 C777 1.362 . S
C778 C781 1.410 1_655 S
C779 H771 0.930 . S
C779 C780 1.355 . S
C779 C781 1.425 . S
C780 C779 1.355 . S
C780 C782 1.419 . S
C781 C776 1.413 1_455 S
C781 C778 1.410 1_455 S
C781 C779 1.425 . S
C782 H772 0.930 . S
C782 C780 1.419 . S
C782 C783 1.362 1_455 S
C783 H773 0.930 . S
C783 C776 1.409 . S
C783 C782 1.362 1_655 S
H784 C790 0.930 . S
H785 C793 0.930 . S
H786 C794 0.930 . S
H787 C795 0.930 . S
H788 C798 0.930 . S
H789 C799 0.930 . S
C790 H784 0.930 . S
C790 C791 1.355 . S
C790 C792 1.415 . S
C791 C790 1.355 . S
C791 C793 1.419 . S
C792 C790 1.415 . S
C792 C797 1.425 . S
C792 C799 1.409 . S
C793 H785 0.930 . S
C793 C791 1.419 . S
C793 C794 1.362 . S
C794 H786 0.930 . S
C794 C793 1.362 . S
C794 C797 1.409 . S
C795 H787 0.930 . S
C795 C796 1.355 . S
C795 C797 1.415 . S
C796 C795 1.355 . S
C796 C798 1.419 . S
C797 C792 1.425 . S
C797 C794 1.409 . S
C797 C795 1.415 . S
C798 H788 0.930 . S
C798 C796 1.419 . S
C798 C799 1.362 . S
C799 H789 0.930 . S
C799 C792 1.409 . S
C799 C798 1.362 . S
H800 C806 0.930 . S
H801 C809 0.930 . S
H802 C810 0.930 . S
H803 C811 0.930 . S
H804 C814 0.930 . S
H805 C815 0.930 . S
C806 H800 0.930 . S
C806 C807 1.355 . S
C806 C808 1.415 . S
C807 C806 1.355 . S
C807 C809 1.419 . S
C808 C806 1.415 . S
C808 C813 1.425 . S
C808 C815 1.409 . S
C809 H801 0.930 . S
C809 C807 1.419 . S
C809 C810 1.362 . S
C810 H802 0.930 . S
C810 C809 1.362 . S
C810 C813 1.409 . S
C811 H803 0.930 . S
C811 C812 1.355 . S
C811 C813 1.415 1_565 S
C812 C811 1.355 . S
C812 C814 1.419 . S
C813 C808 1.425 . S
C813 C810 1.409 . S
C813 C811 1.415 1_545 S
C814 H804 0.930 . S
C814 C812 1.419 . S
C814 C815 1.362 1_565 S
C815 H805 0.930 . S
C815 C808 1.409 . S
C815 C814 1.362 1_545 S
H816 C822 0.930 . S
H817 C825 0.930 . S
H818 C826 0.930 . S
H819 C827 0.930 . S
H820 C830 0.930 . S
H821 C831 0.930 . S
C822 H816 0.930 . S
C822 C823 1.355 . S
C822 C824 1.415 . S
C823 C822 1.355 . S
C823 C825 1.419 . S
C824 C822 1.415 . S
C824 C829 1.425 . S
C824 C831 1.409 . S
C825 H817 0.930 . S
C825 C823 1.419 . S
C825 C826 1.362 . S
C826 H818 0.930 . S
C826 C825 1.362 . S
C826 C829 1.409 . S
C827 H819 0.930 . S
C827 C828 1.355 . S
C827 C829 1.415 . S
C828 C827 1.355 . S
C828 C830 1.419 . S
C829 C824 1.425 . S
C829 C826 1.409 . S
C829 C827 1.415 . S
C830 H820 0.930 . S
C830 C828 1.419 . S
C830 C831 1.362 . S
C831 H821 0.930 . S
C831 C824 1.409 . S
C831 C830 1.362 . S
H832 C838 0.930 . S
H833 C841 0.930 . S
H834 C842 0.930 . S
H835 C843 0.930 . S
H836 C846 0.930 . S
H837 C847 0.930 . S
C838 H832 0.930 . S
C838 C839 1.355 . S
C838 C840 1.415 . S
C839 C838 1.355 . S
C839 C841 1.419 . S
C840 C838 1.415 . S
C840 C845 1.425 . S
C840 C847 1.409 . S
C841 H833 0.930 . S
C841 C839 1.419 . S
C841 C842 1.362 . S
C842 H834 0.930 . S
C842 C841 1.362 . S
C842 C845 1.409 . S
C843 H835 0.930 . S
C843 C844 1.355 . S
C843 C845 1.415 . S
C844 C843 1.355 . S
C844 C846 1.419 . S
C845 C840 1.425 . S
C845 C842 1.409 . S
C845 C843 1.415 . S
C846 H836 0.930 . S
C846 C844 1.419 . S
C846 C847 1.362 . S
C847 H837 0.930 . S
C847 C840 1.409 . S
C847 C846 1.362 . S
H848 C854 0.930 . S
H849 C857 0.930 . S
H850 C858 0.930 . S
H851 C859 0.930 . S
H852 C862 0.930 . S
H853 C863 0.930 . S
C854 H848 0.930 . S
C854 C855 1.355 . S
C854 C856 1.415 . S
C855 C854 1.355 . S
C855 C857 1.419 . S
C856 C854 1.415 . S
C856 C861 1.425 . S
C856 C863 1.409 . S
C857 H849 0.930 . S
C857 C855 1.419 . S
C857 C858 1.362 . S
C858 H850 0.930 . S
C858 C857 1.362 . S
C858 C861 1.409 . S
C859 H851 0.930 . S
C859 C860 1.355 . S
C859 C861 1.415 . S
C860 C859 1.355 . S
C860 C862 1.419 . S
C861 C856 1.425 . S
C861 C858 1.409 . S
C861 C859 1.415 . S
C862 H852 0.930 . S
C862 C860 1.419 . S
C862 C863 1.362 . S
C863 H853 0.930 . S
C863 C856 1.409 . S
C863 C862 1.362 . S
H864 C870 0.930 . S
H865 C873 0.930 . S
H866 C874 0.930 . S
H867 C875 0.930 . S
H868 C878 0.930 . S
H869 C879 0.930 . S
C870 H864 0.930 . S
C870 C871 1.355 . S
C870 C872 1.415 . S
C871 C870 1.355 . S
C871 C873 1.419 . S
C872 C870 1.415 . S
C872 C877 1.425 . S
C872 C879 1.409 . S
C873 H865 0.930 . S
C873 C871 1.419 . S
C873 C874 1.362 . S
C874 H866 0.930 . S
C874 C873 1.362 . S
C874 C877 1.409 . S
C875 H867 0.930 . S
C875 C876 1.355 . S
C875 C877 1.415 . S
C876 C875 1.355 . S
C876 C878 1.419 . S
C877 C872 1.425 . S
C877 C874 1.409 . S
C877 C875 1.415 . S
C878 H868 0.930 . S
C878 C876 1.419 . S
C878 C879 1.362 . S
C879 H869 0.930 . S
C879 C872 1.409 . S
C879 C878 1.362 . S
H880 C886 0.930 . S
H881 C889 0.930 . S
H882 C890 0.930 . S
H883 C891 0.930 . S
H884 C894 0.930 . S
H885 C895 0.930 . S
C886 H880 0.930 . S
C886 C887 1.355 . S
C886 C888 1.415 . S
C887 C886 1.355 . S
C887 C889 1.419 . S
C888 C886 1.415 . S
C888 C893 1.425 . S
C888 C895 1.409 . S
C889 H881 0.930 . S
C889 C887 1.419 . S
C889 C890 1.362 . S
C890 H882 0.930 . S
C890 C889 1.362 . S
C890 C893 1.409 . S
C891 H883 0.930 . S
C891 C892 1.355 . S
C891 C893 1.415 . S
C892 C891 1.355 . S
C892 C894 1.419 . S
C893 C888 1.425 . S
C893 C890 1.409 . S
C893 C891 1.415 . S
C894 H884 0.930 . S
C894 C892 1.419 . S
C894 C895 1.362 . S
C895 H885 0.930 . S
C895 C888 1.409 . S
C895 C894 1.362 . S
H896 C902 0.930 . S
H897 C905 0.930 . S
H898 C906 0.930 . S
H899 C907 0.930 . S
H900 C910 0.930 . S
H901 C911 0.930 . S
C902 H896 0.930 . S
C902 C903 1.355 . S
C902 C904 1.415 . S
C903 C902 1.355 . S
C903 C905 1.419 . S
C904 C902 1.415 . S
C904 C909 1.425 . S
C904 C911 1.409 . S
C905 H897 0.930 . S
C905 C903 1.419 . S
C905 C906 1.362 . S
C906 H898 0.930 . S
C906 C905 1.362 . S
C906 C909 1.409 . S
C907 H899 0.930 . S
C907 C908 1.355 . S
C907 C909 1.415 . S
C908 C907 1.355 . S
C908 C910 1.419 . S
C909 C904 1.425 . S
C909 C906 1.409 . S
C909 C907 1.415 . S
C910 H900 0.930 . S
C910 C908 1.419 . S
C910 C911 1.362 . S
C911 H901 0.930 . S
C911 C904 1.409 . S
C911 C910 1.362 . S
H912 C918 0.930 . S
H913 C921 0.930 . S
H914 C922 0.930 . S
H915 C923 0.930 . S
H916 C926 0.930 . S
H917 C927 0.930 . S
C918 H912 0.930 . S
C918 C919 1.355 . S
C918 C920 1.415 1_545 S
C919 C918 1.355 . S
C919 C921 1.419 . S
C920 C918 1.415 1_565 S
C920 C925 1.425 . S
C920 C927 1.409 . S
C921 H913 0.930 . S
C921 C919 1.419 . S
C921 C922 1.362 1_545 S
C922 H914 0.930 . S
C922 C921 1.362 1_565 S
C922 C925 1.409 . S
C923 H915 0.930 . S
C923 C924 1.355 . S
C923 C925 1.415 . S
C924 C923 1.355 . S
C924 C926 1.419 . S
C925 C920 1.425 . S
C925 C922 1.409 . S
C925 C923 1.415 . S
C926 H916 0.930 . S
C926 C924 1.419 . S
C926 C927 1.362 . S
C927 H917 0.930 . S
C927 C920 1.409 . S
C927 C926 1.362 . S
H928 C934 0.930 1_655 S
H929 C937 0.930 . S
H930 C938 0.930 . S
H931 C939 0.930 . S
H932 C942 0.930 . S
H933 C943 0.930 . S
C934 H928 0.930 1_455 S
C934 C935 1.355 . S
C934 C936 1.415 . S
C935 C934 1.355 . S
C935 C937 1.419 . S
C936 C934 1.415 . S
C936 C941 1.425 . S
C936 C943 1.409 . S
C937 H929 0.930 . S
C937 C935 1.419 . S
C937 C938 1.362 . S
C938 H930 0.930 . S
C938 C937 1.362 . S
C938 C941 1.409 . S
C939 H931 0.930 . S
C939 C940 1.355 . S
C939 C941 1.415 . S
C940 C939 1.355 . S
C940 C942 1.419 . S
C941 C936 1.425 . S
C941 C938 1.409 . S
C941 C939 1.415 . S
C942 H932 0.930 . S
C942 C940 1.419 . S
C942 C943 1.362 . S
C943 H933 0.930 . S
C943 C936 1.409 . S
C943 C942 1.362 . S
H944 C950 0.930 . S
H945 C953 0.930 . S
H946 C954 0.930 . S
H947 C955 0.930 . S
H948 C958 0.930 . S
H949 C959 0.930 . S
C950 H944 0.930 . S
C950 C951 1.355 . S
C950 C952 1.415 . S
C951 C950 1.355 . S
C951 C953 1.419 . S
C952 C950 1.415 . S
C952 C957 1.425 . S
C952 C959 1.409 . S
C953 H945 0.930 . S
C953 C951 1.419 . S
C953 C954 1.362 . S
C954 H946 0.930 . S
C954 C953 1.362 . S
C954 C957 1.409 . S
C955 H947 0.930 . S
C955 C956 1.355 . S
C955 C957 1.415 . S
C956 C955 1.355 . S
C956 C958 1.419 . S
C957 C952 1.425 . S
C957 C954 1.409 . S
C957 C955 1.415 . S
C958 H948 0.930 . S
C958 C956 1.419 . S
C958 C959 1.362 . S
C959 H949 0.930 . S
C959 C952 1.409 . S
C959 C958 1.362 . S
H960 C966 0.930 . S
H961 C969 0.930 . S
H962 C970 0.930 . S
H963 C971 0.930 . S
H964 C974 0.930 . S
H965 C975 0.930 . S
C966 H960 0.930 . S
C966 C967 1.355 . S
C966 C968 1.415 . S
C967 C966 1.355 . S
C967 C969 1.419 . S
C968 C966 1.415 . S
C968 C973 1.425 . S
C968 C975 1.409 . S
C969 H961 0.930 . S
C969 C967 1.419 . S
C969 C970 1.362 . S
C970 H962 0.930 . S
C970 C969 1.362 . S
C970 C973 1.409 . S
C971 H963 0.930 . S
C971 C972 1.355 . S
C971 C973 1.415 . S
C972 C971 1.355 . S
C972 C974 1.419 . S
C973 C968 1.425 . S
C973 C970 1.409 . S
C973 C971 1.415 . S
C974 H964 0.930 . S
C974 C972 1.419 . S
C974 C975 1.362 . S
C975 H965 0.930 . S
C975 C968 1.409 . S
C975 C974 1.362 . S
H976 C982 0.930 . S
H977 C985 0.930 . S
H978 C986 0.930 . S
H979 C987 0.930 . S
H980 C990 0.930 . S
H981 C991 0.930 . S
C982 H976 0.930 . S
C982 C983 1.355 . S
C982 C984 1.415 . S
C983 C982 1.355 . S
C983 C985 1.419 . S
C984 C982 1.415 . S
C984 C989 1.425 . S
C984 C991 1.409 . S
C985 H977 0.930 . S
C985 C983 1.419 . S
C985 C986 1.362 . S
C986 H978 0.930 . S
C986 C985 1.362 . S
C986 C989 1.409 . S
C987 H979 0.930 . S
C987 C988 1.355 . S
C987 C989 1.415 . S
C988 C987 1.355 . S
C988 C990 1.419 . S
C989 C984 1.425 . S
C989 C986 1.409 . S
C989 C987 1.415 . S
C990 H980 0.930 . S
C990 C988 1.419 . S
C990 C991 1.362 . S
C991 H981 0.930 . S
C991 C984 1.409 . S
C991 C990 1.362 . S
H992 C998 0.930 . S
H993 C1001 0.930 . S
H994 C1002 0.930 . S
H995 C1003 0.930 . S
H996 C1006 0.930 . S
H997 C1007 0.930 . S
C998 H992 0.930 . S
C998 C999 1.355 . S
C998 C1000 1.415 . S
C999 C998 1.355 . S
C999 C1001 1.419 . S
C1000 C998 1.415 . S
C1000 C1005 1.425 . S
C1000 C1007 1.409 . S
C1001 H993 0.930 . S
C1001 C999 1.419 . S
C1001 C1002 1.362 . S
C1002 H994 0.930 . S
C1002 C1001 1.362 . S
C1002 C1005 1.409 . S
C1003 H995 0.930 . S
C1003 C1004 1.355 . S
C1003 C1005 1.415 . S
C1004 C1003 1.355 . S
C1004 C1006 1.419 . S
C1005 C1000 1.425 . S
C1005 C1002 1.409 . S
C1005 C1003 1.415 . S
C1006 H996 0.930 . S
C1006 C1004 1.419 . S
C1006 C1007 1.362 . S
C1007 H997 0.930 . S
C1007 C1000 1.409 . S
C1007 C1006 1.362 . S
H1008 C1014 0.930 . S
H1009 C1017 0.930 . S
H1010 C1018 0.930 . S
H1011 C1019 0.930 . S
H1012 C1022 0.930 . S
H1013 C1023 0.930 . S
C1014 H1008 0.930 . S
C1014 C1015 1.355 . S
C1014 C1016 1.415 . S
C1015 C1014 1.355 . S
C1015 C1017 1.419 . S
C1016 C1014 1.415 . S
C1016 C1021 1.425 . S
C1016 C1023 1.409 . S
C1017 H1009 0.930 . S
C1017 C1015 1.419 . S
C1017 C1018 1.362 . S
C1018 H1010 0.930 . S
C1018 C1017 1.362 . S
C1018 C1021 1.409 . S
C1019 H1011 0.930 . S
C1019 C1020 1.355 . S
C1019 C1021 1.415 1_545 S
C1020 C1019 1.355 . S
C1020 C1022 1.419 . S
C1021 C1016 1.425 . S
C1021 C1018 1.409 . S
C1021 C1019 1.415 1_565 S
C1022 H1012 0.930 . S
C1022 C1020 1.419 . S
C1022 C1023 1.362 1_545 S
C1023 H1013 0.930 . S
C1023 C1016 1.409 . S
C1023 C1022 1.362 1_565 S
H1024 C1030 0.930 . S
H1025 C1033 0.930 . S
H1026 C1034 0.930 . S
H1027 C1035 0.930 . S
H1028 C1038 0.930 . S
H1029 C1039 0.930 . S
C1030 H1024 0.930 . S
C1030 C1031 1.355 . S
C1030 C1032 1.415 . S
C1031 C1030 1.355 . S
C1031 C1033 1.419 . S
C1032 C1030 1.415 . S
C1032 C1037 1.425 . S
C1032 C1039 1.409 1_455 S
C1033 H1025 0.930 . S
C1033 C1031 1.419 . S
C1033 C1034 1.362 . S
C1034 H1026 0.930 . S
C1034 C1033 1.362 . S
C1034 C1037 1.409 . S
C1035 H1027 0.930 . S
C1035 C1036 1.355 . S
C1035 C1037 1.415 1_655 S
C1036 C1035 1.355 . S
C1036 C1038 1.419 . S
C1037 C1032 1.425 . S
C1037 C1034 1.409 . S
C1037 C1035 1.415 1_455 S
C1038 H1028 0.930 . S
C1038 C1036 1.419 . S
C1038 C1039 1.362 . S
C1039 H1029 0.930 . S
C1039 C1032 1.409 1_655 S
C1039 C1038 1.362 . S
H1040 C1046 0.930 . S
H1041 C1049 0.930 . S
H1042 C1050 0.930 . S
H1043 C1051 0.930 . S
H1044 C1054 0.930 . S
H1045 C1055 0.930 . S
C1046 H1040 0.930 . S
C1046 C1047 1.355 . S
C1046 C1048 1.415 . S
C1047 C1046 1.355 . S
C1047 C1049 1.419 . S
C1048 C1046 1.415 . S
C1048 C1053 1.425 . S
C1048 C1055 1.409 . S
C1049 H1041 0.930 . S
C1049 C1047 1.419 . S
C1049 C1050 1.362 . S
C1050 H1042 0.930 . S
C1050 C1049 1.362 . S
C1050 C1053 1.409 . S
C1051 H1043 0.930 . S
C1051 C1052 1.355 . S
C1051 C1053 1.415 . S
C1052 C1051 1.355 . S
C1052 C1054 1.419 . S
C1053 C1048 1.425 . S
C1053 C1050 1.409 . S
C1053 C1051 1.415 . S
C1054 H1044 0.930 . S
C1054 C1052 1.419 . S
C1054 C1055 1.362 . S
C1055 H1045 0.930 . S
C1055 C1048 1.409 . S
C1055 C1054 1.362 . S
H1056 C1062 0.948 . S
H1057 C1065 0.930 . S
H1058 C1066 0.930 . S
H1059 C1067 0.930 . S
H1060 C1070 0.930 . S
H1061 C1071 0.930 . S
C1062 H1056 0.948 . S
C1062 C1063 1.355 1_655 S
C1062 C1064 1.415 . S
C1063 C1062 1.355 1_455 S
C1063 C1065 1.419 . S
C1064 C1062 1.415 . S
C1064 C1069 1.425 . S
C1064 C1071 1.409 . S
C1065 H1057 0.930 . S
C1065 C1063 1.419 . S
C1065 C1066 1.362 1_455 S
C1066 H1058 0.930 . S
C1066 C1065 1.362 1_655 S
C1066 C1069 1.409 . S
C1067 H1059 0.930 . S
C1067 C1068 1.355 . S
C1067 C1069 1.415 . S
C1068 C1067 1.355 . S
C1068 C1070 1.419 . S
C1069 C1064 1.425 . S
C1069 C1066 1.409 . S
C1069 C1067 1.415 . S
C1070 H1060 0.930 . S
C1070 C1068 1.419 . S
C1070 C1071 1.362 . S
C1071 H1061 0.930 . S
C1071 C1064 1.409 . S
C1071 C1070 1.362 . S
H1072 C1078 0.930 . S
H1073 C1081 0.930 . S
H1074 C1082 0.930 . S
H1075 C1083 0.930 . S
H1076 C1086 0.930 . S
H1077 C1087 0.930 . S
C1078 H1072 0.930 . S
C1078 C1079 1.355 . S
C1078 C1080 1.415 . S
C1079 C1078 1.355 . S
C1079 C1081 1.419 . S
C1080 C1078 1.415 . S
C1080 C1085 1.425 . S
C1080 C1087 1.409 . S
C1081 H1073 0.930 . S
C1081 C1079 1.419 . S
C1081 C1082 1.362 . S
C1082 H1074 0.930 . S
C1082 C1081 1.362 . S
C1082 C1085 1.409 . S
C1083 H1075 0.930 . S
C1083 C1084 1.355 . S
C1083 C1085 1.415 . S
C1084 C1083 1.355 . S
C1084 C1086 1.419 . S
C1085 C1080 1.425 . S
C1085 C1082 1.409 . S
C1085 C1083 1.415 . S
C1086 H1076 0.930 . S
C1086 C1084 1.419 . S
C1086 C1087 1.362 . S
C1087 H1077 0.930 . S
C1087 C1080 1.409 . S
C1087 C1086 1.362 . S
H1088 C1094 0.930 1_565 S
H1089 C1097 0.930 . S
H1090 C1098 0.930 . S
H1091 C1099 0.930 . S
H1092 C1102 0.930 . S
H1093 C1103 0.930 . S
C1094 H1088 0.930 1_545 S
C1094 C1095 1.355 1_545 S
C1094 C1096 1.415 . S
C1095 C1094 1.355 1_565 S
C1095 C1097 1.419 . S
C1096 C1094 1.415 . S
C1096 C1101 1.425 . S
C1096 C1103 1.409 . S
C1097 H1089 0.930 . S
C1097 C1095 1.419 . S
C1097 C1098 1.362 1_565 S
C1098 H1090 0.930 . S
C1098 C1097 1.362 1_545 S
C1098 C1101 1.409 . S
C1099 H1091 0.930 . S
C1099 C1100 1.355 . S
C1099 C1101 1.415 . S
C1100 C1099 1.355 . S
C1100 C1102 1.419 . S
C1101 C1096 1.425 . S
C1101 C1098 1.409 . S
C1101 C1099 1.415 . S
C1102 H1092 0.930 . S
C1102 C1100 1.419 . S
C1102 C1103 1.362 . S
C1103 H1093 0.930 . S
C1103 C1096 1.409 . S
C1103 C1102 1.362 . S
H1104 C1110 0.930 . S
H1105 C1113 0.930 . S
H1106 C1114 0.930 . S
H1107 C1115 0.930 . S
H1108 C1118 0.930 . S
H1109 C1119 0.930 . S
C1110 H1104 0.930 . S
C1110 C1111 1.355 . S
C1110 C1112 1.415 . S
C1111 C1110 1.355 . S
C1111 C1113 1.419 . S
C1112 C1110 1.415 . S
C1112 C1117 1.425 . S
C1112 C1119 1.409 . S
C1113 H1105 0.930 . S
C1113 C1111 1.419 . S
C1113 C1114 1.362 . S
C1114 H1106 0.930 . S
C1114 C1113 1.362 . S
C1114 C1117 1.409 . S
C1115 H1107 0.930 . S
C1115 C1116 1.355 . S
C1115 C1117 1.415 . S
C1116 C1115 1.355 . S
C1116 C1118 1.419 . S
C1117 C1112 1.425 . S
C1117 C1114 1.409 . S
C1117 C1115 1.415 . S
C1118 H1108 0.930 . S
C1118 C1116 1.419 . S
C1118 C1119 1.362 . S
C1119 H1109 0.930 . S
C1119 C1112 1.409 . S
C1119 C1118 1.362 . S
H1120 C1126 0.930 . S
H1121 C1129 0.930 . S
H1122 C1130 0.930 . S
H1123 C1131 0.930 . S
H1124 C1134 0.930 . S
H1125 C1135 0.930 . S
C1126 H1120 0.930 . S
C1126 C1127 1.355 . S
C1126 C1128 1.415 . S
C1127 C1126 1.355 . S
C1127 C1129 1.419 . S
C1128 C1126 1.415 . S
C1128 C1133 1.425 . S
C1128 C1135 1.409 . S
C1129 H1121 0.930 . S
C1129 C1127 1.419 . S
C1129 C1130 1.362 . S
C1130 H1122 0.930 . S
C1130 C1129 1.362 . S
C1130 C1133 1.409 . S
C1131 H1123 0.930 . S
C1131 C1132 1.355 . S
C1131 C1133 1.415 . S
C1132 C1131 1.355 . S
C1132 C1134 1.419 . S
C1133 C1128 1.425 . S
C1133 C1130 1.409 . S
C1133 C1131 1.415 . S
C1134 H1124 0.930 . S
C1134 C1132 1.419 . S
C1134 C1135 1.362 . S
C1135 H1125 0.930 . S
C1135 C1128 1.409 . S
C1135 C1134 1.362 . S
H1136 C1142 0.930 . S
H1137 C1145 0.930 . S
H1138 C1146 0.930 . S
H1139 C1147 0.930 . S
H1140 C1150 0.930 . S
H1141 C1151 0.930 . S
C1142 H1136 0.930 . S
C1142 C1143 1.355 . S
C1142 C1144 1.415 . S
C1143 C1142 1.355 . S
C1143 C1145 1.419 . S
C1144 C1142 1.415 . S
C1144 C1149 1.425 . S
C1144 C1151 1.409 . S
C1145 H1137 0.930 . S
C1145 C1143 1.419 . S
C1145 C1146 1.362 . S
C1146 H1138 0.930 . S
C1146 C1145 1.362 . S
C1146 C1149 1.409 . S
C1147 H1139 0.930 . S
C1147 C1148 1.355 . S
C1147 C1149 1.415 . S
C1148 C1147 1.355 . S
C1148 C1150 1.419 . S
C1149 C1144 1.425 . S
C1149 C1146 1.409 . S
C1149 C1147 1.415 . S
C1150 H1140 0.930 . S
C1150 C1148 1.419 . S
C1150 C1151 1.362 . S
C1151 H1141 0.930 . S
C1151 C1144 1.409 . S
C1151 C1150 1.362 . S
H1152 C1158 0.930 . S
H1153 C1161 0.930 . S
H1154 C1162 0.930 . S
H1155 C1163 0.930 . S
H1156 C1166 0.930 . S
H1157 C1167 0.930 . S
C1158 H1152 0.930 . S
C1158 C1159 1.355 . S
C1158 C1160 1.415 . S
C1159 C1158 1.355 . S
C1159 C1161 1.419 . S
C1160 C1158 1.415 . S
C1160 C1165 1.425 . S
C1160 C1167 1.409 . S
C1161 H1153 0.930 . S
C1161 C1159 1.419 . S
C1161 C1162 1.362 . S
C1162 H1154 0.930 . S
C1162 C1161 1.362 . S
C1162 C1165 1.409 . S
C1163 H1155 0.930 . S
C1163 C1164 1.355 . S
C1163 C1165 1.415 . S
C1164 C1163 1.355 . S
C1164 C1166 1.419 . S
C1165 C1160 1.425 . S
C1165 C1162 1.409 . S
C1165 C1163 1.415 . S
C1166 H1156 0.930 . S
C1166 C1164 1.419 . S
C1166 C1167 1.362 . S
C1167 H1157 0.930 . S
C1167 C1160 1.409 . S
C1167 C1166 1.362 . S
H1168 C1174 0.930 . S
H1169 C1177 0.930 . S
H1170 C1178 0.930 1_655 S
H1171 C1179 0.930 . S
H1172 C1182 0.930 . S
H1173 C1183 0.930 . S
C1174 H1168 0.930 . S
C1174 C1175 1.355 . S
C1174 C1176 1.415 . S
C1175 C1174 1.355 . S
C1175 C1177 1.419 . S
C1176 C1174 1.415 . S
C1176 C1181 1.425 . S
C1176 C1183 1.409 . S
C1177 H1169 0.930 . S
C1177 C1175 1.419 . S
C1177 C1178 1.362 . S
C1178 H1170 0.930 1_455 S
C1178 C1177 1.362 . S
C1178 C1181 1.409 . S
C1179 H1171 0.930 . S
C1179 C1180 1.355 . S
C1179 C1181 1.415 . S
C1180 C1179 1.355 . S
C1180 C1182 1.419 . S
C1181 C1176 1.425 . S
C1181 C1178 1.409 . S
C1181 C1179 1.415 . S
C1182 H1172 0.930 . S
C1182 C1180 1.419 . S
C1182 C1183 1.362 . S
C1183 H1173 0.930 . S
C1183 C1176 1.409 . S
C1183 C1182 1.362 . S
H1184 C1190 0.930 . S
H1185 C1193 0.930 . S
H1186 C1194 0.930 . S
H1187 C1195 0.930 . S
H1188 C1198 0.930 . S
H1189 C1199 0.930 . S
C1190 H1184 0.930 . S
C1190 C1191 1.355 . S
C1190 C1192 1.415 . S
C1191 C1190 1.355 . S
C1191 C1193 1.419 . S
C1192 C1190 1.415 . S
C1192 C1197 1.425 . S
C1192 C1199 1.409 . S
C1193 H1185 0.930 . S
C1193 C1191 1.419 . S
C1193 C1194 1.362 . S
C1194 H1186 0.930 . S
C1194 C1193 1.362 . S
C1194 C1197 1.409 . S
C1195 H1187 0.930 . S
C1195 C1196 1.355 . S
C1195 C1197 1.415 . S
C1196 C1195 1.355 . S
C1196 C1198 1.419 . S
C1197 C1192 1.425 . S
C1197 C1194 1.409 . S
C1197 C1195 1.415 . S
C1198 H1188 0.930 . S
C1198 C1196 1.419 . S
C1198 C1199 1.362 . S
C1199 H1189 0.930 . S
C1199 C1192 1.409 . S
C1199 C1198 1.362 . S
H1200 C1206 0.930 . S
H1201 C1209 0.930 . S
H1202 C1210 0.930 . S
H1203 C1211 0.930 . S
H1204 C1214 0.930 1_455 S
H1205 C1215 0.930 1_455 S
C1206 H1200 0.930 . S
C1206 C1207 1.355 . S
C1206 C1208 1.415 . S
C1207 C1206 1.355 . S
C1207 C1209 1.419 . S
C1208 C1206 1.415 . S
C1208 C1213 1.425 . S
C1208 C1215 1.409 . S
C1209 H1201 0.930 . S
C1209 C1207 1.419 . S
C1209 C1210 1.362 . S
C1210 H1202 0.930 . S
C1210 C1209 1.362 . S
C1210 C1213 1.409 . S
C1211 H1203 0.930 . S
C1211 C1212 1.355 . S
C1211 C1213 1.415 . S
C1212 C1211 1.355 . S
C1212 C1214 1.419 . S
C1213 C1208 1.425 . S
C1213 C1210 1.409 . S
C1213 C1211 1.415 . S
C1214 H1204 0.930 1_655 S
C1214 C1212 1.419 . S
C1214 C1215 1.362 . S
C1215 H1205 0.930 1_655 S
C1215 C1208 1.409 . S
C1215 C1214 1.362 . S
H1216 C1222 0.930 . S
H1217 C1225 0.930 . S
H1218 C1226 0.930 . S
H1219 C1227 0.930 . S
H1220 C1230 0.930 . S
H1221 C1231 0.930 . S
C1222 H1216 0.930 . S
C1222 C1223 1.355 . S
C1222 C1224 1.415 . S
C1223 C1222 1.355 . S
C1223 C1225 1.419 . S
C1224 C1222 1.415 . S
C1224 C1229 1.425 . S
C1224 C1231 1.409 . S
C1225 H1217 0.930 . S
C1225 C1223 1.419 . S
C1225 C1226 1.362 . S
C1226 H1218 0.930 . S
C1226 C1225 1.362 . S
C1226 C1229 1.409 . S
C1227 H1219 0.930 . S
C1227 C1228 1.355 . S
C1227 C1229 1.415 . S
C1228 C1227 1.355 . S
C1228 C1230 1.419 . S
C1229 C1224 1.425 . S
C1229 C1226 1.409 . S
C1229 C1227 1.415 . S
C1230 H1220 0.930 . S
C1230 C1228 1.419 . S
C1230 C1231 1.362 . S
C1231 H1221 0.930 . S
C1231 C1224 1.409 . S
C1231 C1230 1.362 . S
H1232 C1238 0.930 . S
H1233 C1241 0.930 . S
H1234 C1242 0.930 . S
H1235 C1243 0.930 . S
H1236 C1246 0.930 . S
H1237 C1247 0.930 . S
C1238 H1232 0.930 . S
C1238 C1239 1.355 . S
C1238 C1240 1.415 . S
C1239 C1238 1.355 . S
C1239 C1241 1.419 . S
C1240 C1238 1.415 . S
C1240 C1245 1.425 . S
C1240 C1247 1.409 . S
C1241 H1233 0.930 . S
C1241 C1239 1.419 . S
C1241 C1242 1.362 . S
C1242 H1234 0.930 . S
C1242 C1241 1.362 . S
C1242 C1245 1.409 . S
C1243 H1235 0.930 . S
C1243 C1244 1.355 . S
C1243 C1245 1.415 . S
C1244 C1243 1.355 . S
C1244 C1246 1.419 . S
C1245 C1240 1.425 . S
C1245 C1242 1.409 . S
C1245 C1243 1.415 . S
C1246 H1236 0.930 . S
C1246 C1244 1.419 . S
C1246 C1247 1.362 . S
C1247 H1237 0.930 . S
C1247 C1240 1.409 . S
C1247 C1246 1.362 . S
H1248 C1254 0.930 . S
H1249 C1257 0.930 . S
H1250 C1258 0.930 . S
H1251 C1259 0.930 . S
H1252 C1262 0.930 . S
H1253 C1263 0.930 . S
C1254 H1248 0.930 . S
C1254 C1255 1.355 . S
C1254 C1256 1.415 . S
C1255 C1254 1.355 . S
C1255 C1257 1.419 . S
C1256 C1254 1.415 . S
C1256 C1261 1.425 . S
C1256 C1263 1.409 . S
C1257 H1249 0.930 . S
C1257 C1255 1.419 . S
C1257 C1258 1.362 . S
C1258 H1250 0.930 . S
C1258 C1257 1.362 . S
C1258 C1261 1.409 . S
C1259 H1251 0.930 . S
C1259 C1260 1.355 . S
C1259 C1261 1.415 . S
C1260 C1259 1.355 . S
C1260 C1262 1.419 . S
C1261 C1256 1.425 . S
C1261 C1258 1.409 . S
C1261 C1259 1.415 . S
C1262 H1252 0.930 . S
C1262 C1260 1.419 . S
C1262 C1263 1.362 . S
C1263 H1253 0.930 . S
C1263 C1256 1.409 . S
C1263 C1262 1.362 . S
H1264 C1270 0.930 . S
H1265 C1273 0.930 . S
H1266 C1274 0.930 . S
H1267 C1275 0.930 . S
H1268 C1278 0.930 . S
H1269 C1279 0.930 . S
C1270 H1264 0.930 . S
C1270 C1271 1.355 . S
C1270 C1272 1.415 . S
C1271 C1270 1.355 . S
C1271 C1273 1.419 . S
C1272 C1270 1.415 . S
C1272 C1277 1.425 . S
C1272 C1279 1.409 . S
C1273 H1265 0.930 . S
C1273 C1271 1.419 . S
C1273 C1274 1.362 . S
C1274 H1266 0.930 . S
C1274 C1273 1.362 . S
C1274 C1277 1.409 . S
C1275 H1267 0.930 . S
C1275 C1276 1.355 . S
C1275 C1277 1.415 . S
C1276 C1275 1.355 . S
C1276 C1278 1.419 . S
C1277 C1272 1.425 . S
C1277 C1274 1.409 . S
C1277 C1275 1.415 . S
C1278 H1268 0.930 . S
C1278 C1276 1.419 . S
C1278 C1279 1.362 . S
C1279 H1269 0.930 . S
C1279 C1272 1.409 . S
C1279 C1278 1.362 . S
H1280 C1286 0.930 . S
H1281 C1289 0.930 . S
H1282 C1290 0.930 . S
H1283 C1291 0.930 . S
H1284 C1294 0.930 . S
H1285 C1295 0.930 . S
C1286 H1280 0.930 . S
C1286 C1287 1.355 . S
C1286 C1288 1.415 . S
C1287 C1286 1.355 . S
C1287 C1289 1.419 . S
C1288 C1286 1.415 . S
C1288 C1293 1.425 . S
C1288 C1295 1.409 . S
C1289 H1281 0.930 . S
C1289 C1287 1.419 . S
C1289 C1290 1.362 . S
C1290 H1282 0.930 . S
C1290 C1289 1.362 . S
C1290 C1293 1.409 . S
C1291 H1283 0.930 . S
C1291 C1292 1.355 . S
C1291 C1293 1.415 . S
C1292 C1291 1.355 . S
C1292 C1294 1.419 . S
C1293 C1288 1.425 . S
C1293 C1290 1.409 . S
C1293 C1291 1.415 . S
C1294 H1284 0.930 . S
C1294 C1292 1.419 . S
C1294 C1295 1.362 . S
C1295 H1285 0.930 . S
C1295 C1288 1.409 . S
C1295 C1294 1.362 . S
H1296 C1302 0.930 . S
H1297 C1305 0.930 . S
H1298 C1306 0.930 . S
H1299 C1307 0.930 . S
H1300 C1310 0.930 . S
H1301 C1311 0.930 . S
C1302 H1296 0.930 . S
C1302 C1303 1.355 . S
C1302 C1304 1.415 . S
C1303 C1302 1.355 . S
C1303 C1305 1.419 . S
C1304 C1302 1.415 . S
C1304 C1309 1.425 . S
C1304 C1311 1.409 . S
C1305 H1297 0.930 . S
C1305 C1303 1.419 . S
C1305 C1306 1.362 . S
C1306 H1298 0.930 . S
C1306 C1305 1.362 . S
C1306 C1309 1.409 . S
C1307 H1299 0.930 . S
C1307 C1308 1.355 . S
C1307 C1309 1.415 . S
C1308 C1307 1.355 . S
C1308 C1310 1.419 . S
C1309 C1304 1.425 . S
C1309 C1306 1.409 . S
C1309 C1307 1.415 . S
C1310 H1300 0.930 . S
C1310 C1308 1.419 . S
C1310 C1311 1.362 . S
C1311 H1301 0.930 . S
C1311 C1304 1.409 . S
C1311 C1310 1.362 . S
H1312 C1318 0.930 . S
H1313 C1321 0.930 . S
H1314 C1322 0.930 . S
H1315 C1323 0.930 . S
H1316 C1326 0.930 . S
H1317 C1327 0.930 . S
C1318 H1312 0.930 . S
C1318 C1319 1.355 . S
C1318 C1320 1.415 . S
C1319 C1318 1.355 . S
C1319 C1321 1.419 . S
C1320 C1318 1.415 . S
C1320 C1325 1.425 . S
C1320 C1327 1.409 . S
C1321 H1313 0.930 . S
C1321 C1319 1.419 . S
C1321 C1322 1.362 . S
C1322 H1314 0.930 . S
C1322 C1321 1.362 . S
C1322 C1325 1.409 . S
C1323 H1315 0.930 . S
C1323 C1324 1.355 . S
C1323 C1325 1.415 . S
C1324 C1323 1.355 . S
C1324 C1326 1.419 . S
C1325 C1320 1.425 . S
C1325 C1322 1.409 . S
C1325 C1323 1.415 . S
C1326 H1316 0.930 . S
C1326 C1324 1.419 . S
C1326 C1327 1.362 . S
C1327 H1317 0.930 . S
C1327 C1320 1.409 . S
C1327 C1326 1.362 . S
H1328 C1334 0.930 . S
H1329 C1337 0.930 . S
H1330 C1338 0.930 . S
H1331 C1339 0.930 . S
H1332 C1342 0.930 . S
H1333 C1343 0.930 . S
C1334 H1328 0.930 . S
C1334 C1335 1.355 . S
C1334 C1336 1.415 . S
C1335 C1334 1.355 . S
C1335 C1337 1.419 . S
C1336 C1334 1.415 . S
C1336 C1341 1.425 . S
C1336 C1343 1.409 . S
C1337 H1329 0.930 . S
C1337 C1335 1.419 . S
C1337 C1338 1.362 . S
C1338 H1330 0.930 . S
C1338 C1337 1.362 . S
C1338 C1341 1.409 . S
C1339 H1331 0.930 . S
C1339 C1340 1.355 . S
C1339 C1341 1.415 . S
C1340 C1339 1.355 . S
C1340 C1342 1.419 . S
C1341 C1336 1.425 . S
C1341 C1338 1.409 . S
C1341 C1339 1.415 . S
C1342 H1332 0.930 . S
C1342 C1340 1.419 . S
C1342 C1343 1.362 . S
C1343 H1333 0.930 . S
C1343 C1336 1.409 . S
C1343 C1342 1.362 . S
H1344 C1350 0.930 . S
H1345 C1353 0.930 . S
H1346 C1354 0.930 . S
H1347 C1355 0.930 . S
H1348 C1358 0.930 . S
H1349 C1359 0.930 . S
C1350 H1344 0.930 . S
C1350 C1351 1.355 . S
C1350 C1352 1.415 . S
C1351 C1350 1.355 . S
C1351 C1353 1.419 . S
C1352 C1350 1.415 . S
C1352 C1357 1.425 . S
C1352 C1359 1.409 . S
C1353 H1345 0.930 . S
C1353 C1351 1.419 . S
C1353 C1354 1.362 . S
C1354 H1346 0.930 . S
C1354 C1353 1.362 . S
C1354 C1357 1.409 . S
C1355 H1347 0.930 . S
C1355 C1356 1.355 . S
C1355 C1357 1.415 . S
C1356 C1355 1.355 . S
C1356 C1358 1.419 . S
C1357 C1352 1.425 . S
C1357 C1354 1.409 . S
C1357 C1355 1.415 . S
C1358 H1348 0.930 . S
C1358 C1356 1.419 . S
C1358 C1359 1.362 . S
C1359 H1349 0.930 . S
C1359 C1352 1.409 . S
C1359 C1358 1.362 . S
H1360 C1366 0.930 . S
H1361 C1369 0.930 . S
H1362 C1370 0.930 . S
H1363 C1371 0.930 . S
H1364 C1374 0.930 . S
H1365 C1375 0.930 . S
C1366 H1360 0.930 . S
C1366 C1367 1.355 . S
C1366 C1368 1.415 . S
C1367 C1366 1.355 . S
C1367 C1369 1.419 . S
C1368 C1366 1.415 . S
C1368 C1373 1.425 . S
C1368 C1375 1.409 . S
C1369 H1361 0.930 . S
C1369 C1367 1.419 . S
C1369 C1370 1.362 . S
C1370 H1362 0.930 . S
C1370 C1369 1.362 . S
C1370 C1373 1.409 . S
C1371 H1363 0.930 . S
C1371 C1372 1.355 . S
C1371 C1373 1.415 . S
C1372 C1371 1.355 . S
C1372 C1374 1.419 . S
C1373 C1368 1.425 . S
C1373 C1370 1.409 . S
C1373 C1371 1.415 . S
C1374 H1364 0.930 . S
C1374 C1372 1.419 . S
C1374 C1375 1.362 . S
C1375 H1365 0.930 . S
C1375 C1368 1.409 . S
C1375 C1374 1.362 . S
H1376 C1382 0.930 . S
H1377 C1385 0.930 . S
H1378 C1386 0.930 . S
H1379 C1387 0.930 . S
H1380 C1390 0.930 . S
H1381 C1391 0.930 . S
C1382 H1376 0.930 . S
C1382 C1383 1.355 . S
C1382 C1384 1.415 . S
C1383 C1382 1.355 . S
C1383 C1385 1.419 . S
C1384 C1382 1.415 . S
C1384 C1389 1.425 . S
C1384 C1391 1.409 . S
C1385 H1377 0.930 . S
C1385 C1383 1.419 . S
C1385 C1386 1.362 . S
C1386 H1378 0.930 . S
C1386 C1385 1.362 . S
C1386 C1389 1.409 . S
C1387 H1379 0.930 . S
C1387 C1388 1.355 . S
C1387 C1389 1.415 . S
C1388 C1387 1.355 . S
C1388 C1390 1.419 . S
C1389 C1384 1.425 . S
C1389 C1386 1.409 . S
C1389 C1387 1.415 . S
C1390 H1380 0.930 . S
C1390 C1388 1.419 . S
C1390 C1391 1.362 . S
C1391 H1381 0.930 . S
C1391 C1384 1.409 . S
C1391 C1390 1.362 . S
H1392 C1398 0.930 . S
H1393 C1401 0.930 . S
H1394 C1402 0.930 . S
H1395 C1403 0.930 . S
H1396 C1406 0.930 . S
H1397 C1407 0.930 . S
C1398 H1392 0.930 . S
C1398 C1399 1.355 . S
C1398 C1400 1.415 . S
C1399 C1398 1.355 . S
C1399 C1401 1.419 . S
C1400 C1398 1.415 . S
C1400 C1405 1.425 . S
C1400 C1407 1.409 . S
C1401 H1393 0.930 . S
C1401 C1399 1.419 . S
C1401 C1402 1.362 . S
C1402 H1394 0.930 . S
C1402 C1401 1.362 . S
C1402 C1405 1.409 . S
C1403 H1395 0.930 . S
C1403 C1404 1.355 . S
C1403 C1405 1.415 . S
C1404 C1403 1.355 . S
C1404 C1406 1.419 . S
C1405 C1400 1.425 . S
C1405 C1402 1.409 . S
C1405 C1403 1.415 . S
C1406 H1396 0.930 . S
C1406 C1404 1.419 . S
C1406 C1407 1.362 . S
C1407 H1397 0.930 . S
C1407 C1400 1.409 . S
C1407 C1406 1.362 . S
H1408 C1414 0.930 . S
H1409 C1417 0.930 . S
H1410 C1418 0.930 . S
H1411 C1419 0.930 . S
H1412 C1422 0.930 . S
H1413 C1423 0.930 . S
C1414 H1408 0.930 . S
C1414 C1415 1.355 . S
C1414 C1416 1.415 . S
C1415 C1414 1.355 . S
C1415 C1417 1.419 . S
C1416 C1414 1.415 . S
C1416 C1421 1.425 . S
C1416 C1423 1.409 . S
C1417 H1409 0.930 . S
C1417 C1415 1.419 . S
C1417 C1418 1.362 . S
C1418 H1410 0.930 . S
C1418 C1417 1.362 . S
C1418 C1421 1.409 . S
C1419 H1411 0.930 . S
C1419 C1420 1.355 . S
C1419 C1421 1.415 . S
C1420 C1419 1.355 . S
C1420 C1422 1.419 . S
C1421 C1416 1.425 . S
C1421 C1418 1.409 . S
C1421 C1419 1.415 . S
C1422 H1412 0.930 . S
C1422 C1420 1.419 . S
C1422 C1423 1.362 . S
C1423 H1413 0.930 . S
C1423 C1416 1.409 . S
C1423 C1422 1.362 . S
H1424 C1430 0.930 . S
H1425 C1433 0.930 . S
H1426 C1434 0.930 . S
H1427 C1435 0.930 . S
H1428 C1438 0.930 . S
H1429 C1439 0.930 . S
C1430 H1424 0.930 . S
C1430 C1431 1.355 . S
C1430 C1432 1.415 . S
C1431 C1430 1.355 . S
C1431 C1433 1.419 . S
C1432 C1430 1.415 . S
C1432 C1437 1.425 . S
C1432 C1439 1.409 . S
C1433 H1425 0.930 . S
C1433 C1431 1.419 . S
C1433 C1434 1.362 . S
C1434 H1426 0.930 . S
C1434 C1433 1.362 . S
C1434 C1437 1.409 . S
C1435 H1427 0.930 . S
C1435 C1436 1.355 . S
C1435 C1437 1.415 . S
C1436 C1435 1.355 . S
C1436 C1438 1.419 . S
C1437 C1432 1.425 . S
C1437 C1434 1.409 . S
C1437 C1435 1.415 . S
C1438 H1428 0.930 . S
C1438 C1436 1.419 . S
C1438 C1439 1.362 . S
C1439 H1429 0.930 . S
C1439 C1432 1.409 . S
C1439 C1438 1.362 . S
C583 C162 1.649 . S
C588 C225 1.648 . S
C599 C174 1.762 . S
C604 C265 1.755 . S
C615 C150 1.598 . S
C620 C304 1.538 . S
C631 C138 1.496 . S
C636 C264 1.437 1_556 S
C652 C305 1.509 . S
C647 C114 1.505 . S
C663 C126 1.389 . S
C668 C224 1.337 1_556 S
C684 C235 1.648 . S
C679 C136 1.657 . S
C700 C275 1.640 . S
C695 C112 1.637 . S
C711 C124 1.664 . S
C716 C314 1.685 1_556 S
C727 C160 1.477 . S
C732 C274 1.511 . S
C743 C172 1.439 . S
C748 C315 1.407 . S
C764 C234 1.509 . S
C759 C148 1.499 . S
C780 C345 1.629 . S
C775 C18 1.641 . S
C791 C30 1.751 . S
C796 C385 1.736 . S
C807 C6 1.609 . S
C812 C424 1.568 . S
C823 C210 1.478 . S
C828 C384 1.404 . S
C839 C186 1.503 . S
C844 C425 1.496 . S
C855 C198 1.372 . S
C860 C344 1.382 . S
C871 C208 1.620 . S
C876 C355 1.622 . S
C887 C184 1.605 . S
C892 C395 1.586 . S
C908 C434 1.628 . S
C903 C196 1.599 . S
C919 C16 1.496 . S
C924 C394 1.489 . S
C940 C435 1.435 . S
C935 C28 1.445 1_455 S
C951 C4 1.461 . S
C956 C354 1.478 . S
C972 C465 1.655 . S
C967 C90 1.655 . S
C983 C102 1.755 . S
C988 C505 1.755 . S
C1004 C544 1.584 . S
C999 C78 1.605 . S
C1020 C504 1.471 . S
C1015 C66 1.484 . S
C1036 C545 1.504 . S
C1031 C42 1.503 . S
C1047 C54 1.362 . S
C1052 C464 1.367 . S
C1063 C64 1.615 . S
C1068 C475 1.587 . S
C1079 C40 1.614 . S
C1084 C515 1.619 . S
C1100 C554 1.650 . S
C1095 C52 1.599 . S
C1111 C88 1.469 . S
C1116 C514 1.500 . S
C1127 C100 1.442 . S
C1132 C555 1.407 . S
C1143 C76 1.442 . S
C1148 C474 1.470 . S
C1159 C189 1.569 . S
C1164 C221 1.560 . S
C1180 C261 1.915 . S
C1175 C201 1.924 . S
C1191 C213 1.576 . S
C1196 C311 1.583 . S
C1207 C81 1.724 . S
C1212 C271 1.743 . S
C1223 C93 1.666 . S
C1228 C301 1.667 . S
C1244 C231 1.344 . S
C1239 C105 1.335 . S
C1255 C45 1.542 . S
C1260 C341 1.529 . S
C1271 C57 1.895 . S
C1276 C381 1.888 . S
C1287 C69 1.553 . S
C1292 C431 1.568 . S
C1303 C153 1.741 . S
C1308 C391 1.748 . S
C1324 C421 1.689 . S
C1319 C165 1.692 . S
C1335 C177 1.348 . S
C1340 C351 1.348 . S
C1351 C117 1.565 . S
C1356 C461 1.557 . S
C1367 C129 1.905 . S
C1372 C501 1.900 . S
C1388 C551 1.561 . S
C1383 C141 1.541 . S
C1399 C9 1.754 . S
C1404 C511 1.764 . S
C1415 C21 1.691 . S
C1420 C541 1.692 . S
C1431 C33 1.356 . S
C1436 C471 1.352 . S
