# Generated by pormake.
# Topology pyr, (3,6)-cn, num edge types: 1
# Building blocks:
#     Node 0, Type 0, BuildingBlock: KAKCAD_clean_linker_0, # of connection points: 3
#     Node 1, Type 0, BuildingBlock: KAKCAD_clean_linker_0, # of connection points: 3
#     Node 2, Type 0, BuildingBlock: KAKCAD_clean_linker_0, # of connection points: 3
#     Node 3, Type 0, BuildingBlock: KAKCAD_clean_linker_0, # of connection points: 3
#     Node 4, Type 0, BuildingBlock: KAKCAD_clean_linker_0, # of connection points: 3
#     Node 5, Type 0, BuildingBlock: KAKCAD_clean_linker_0, # of connection points: 3
#     Node 6, Type 0, BuildingBlock: KAKCAD_clean_linker_0, # of connection points: 3
#     Node 7, Type 0, BuildingBlock: KAKCAD_clean_linker_0, # of connection points: 3
#     Node 8, Type 1, BuildingBlock: PAMTOO_clean_sbu_0, # of connection points: 6
#     Node 9, Type 1, BuildingBlock: PAMTOO_clean_sbu_0, # of connection points: 6
#     Node 10, Type 1, BuildingBlock: PAMTOO_clean_sbu_0, # of connection points: 6
#     Node 11, Type 1, BuildingBlock: PAMTOO_clean_sbu_0, # of connection points: 6
#     Edge 12, Type (0, 1), BuildingBlock: AJUNOK_clean_linker_0, # of connection points: 2
#     Edge 13, Type (0, 1), BuildingBlock: AJUNOK_clean_linker_0, # of connection points: 2
#     Edge 14, Type (0, 1), BuildingBlock: AJUNOK_clean_linker_0, # of connection points: 2
#     Edge 15, Type (0, 1), BuildingBlock: AJUNOK_clean_linker_0, # of connection points: 2
#     Edge 16, Type (0, 1), BuildingBlock: AJUNOK_clean_linker_0, # of connection points: 2
#     Edge 17, Type (0, 1), BuildingBlock: AJUNOK_clean_linker_0, # of connection points: 2
#     Edge 18, Type (0, 1), BuildingBlock: AJUNOK_clean_linker_0, # of connection points: 2
#     Edge 19, Type (0, 1), BuildingBlock: AJUNOK_clean_linker_0, # of connection points: 2
#     Edge 20, Type (0, 1), BuildingBlock: AJUNOK_clean_linker_0, # of connection points: 2
#     Edge 21, Type (0, 1), BuildingBlock: AJUNOK_clean_linker_0, # of connection points: 2
#     Edge 22, Type (0, 1), BuildingBlock: AJUNOK_clean_linker_0, # of connection points: 2
#     Edge 23, Type (0, 1), BuildingBlock: AJUNOK_clean_linker_0, # of connection points: 2
#     Edge 24, Type (0, 1), BuildingBlock: AJUNOK_clean_linker_0, # of connection points: 2
#     Edge 25, Type (0, 1), BuildingBlock: AJUNOK_clean_linker_0, # of connection points: 2
#     Edge 26, Type (0, 1), BuildingBlock: AJUNOK_clean_linker_0, # of connection points: 2
#     Edge 27, Type (0, 1), BuildingBlock: AJUNOK_clean_linker_0, # of connection points: 2
#     Edge 28, Type (0, 1), BuildingBlock: AJUNOK_clean_linker_0, # of connection points: 2
#     Edge 29, Type (0, 1), BuildingBlock: AJUNOK_clean_linker_0, # of connection points: 2
#     Edge 30, Type (0, 1), BuildingBlock: AJUNOK_clean_linker_0, # of connection points: 2
#     Edge 31, Type (0, 1), BuildingBlock: AJUNOK_clean_linker_0, # of connection points: 2
#     Edge 32, Type (0, 1), BuildingBlock: AJUNOK_clean_linker_0, # of connection points: 2
#     Edge 33, Type (0, 1), BuildingBlock: AJUNOK_clean_linker_0, # of connection points: 2
#     Edge 34, Type (0, 1), BuildingBlock: AJUNOK_clean_linker_0, # of connection points: 2
#     Edge 35, Type (0, 1), BuildingBlock: AJUNOK_clean_linker_0, # of connection points: 2
# Relax obj value: 0.124
# Max RMSD: 0.173
# Mean RMSD: 0.072
data_MOF--net-pyr--node1-PAMTOO_clean_sbu_0--node2-KAKCAD_clean_linker_0--edge1-AJUNOK_clean_linker_0
_symmetry_space_group_name_H-M    P1
_symmetry_Int_Tables_number       1
_symmetry_cell_setting            triclinic
loop_
_symmetry_equiv_pos_as_xyz
'x, y, z'
_cell_length_a     35.557324
_cell_length_b     37.538041
_cell_length_c     37.055883
_cell_angle_alpha  90.061955
_cell_angle_beta   89.946791
_cell_angle_gamma 103.92739
loop_
_atom_site_label
_atom_site_type_symbol
_atom_site_fract_x
_atom_site_fract_y
_atom_site_fract_z
_atom_type_partial_charge
C0 C 0.29655 0.25674 0.36542 0.0
C1 C 0.32164 0.24269 0.38726 0.0
C2 C 0.30909 0.27289 0.33245 0.0
C3 C 0.34748 0.27623 0.32062 0.0
C4 C 0.37327 0.26387 0.3436 0.0
C5 C 0.36028 0.24675 0.37644 0.0
C6 C 0.3584 0.28848 0.28289 0.0
C7 C 0.3391 0.31208 0.26545 0.0
C8 C 0.33927 0.31495 0.22778 0.0
C9 C 0.36365 0.29835 0.20749 0.0
C10 C 0.38561 0.27665 0.2246 0.0
C11 C 0.38248 0.27162 0.26224 0.0
C12 C 0.407 0.25449 0.20309 0.0
C13 C 0.39003 0.23567 0.1721 0.0
C14 C 0.44266 0.24905 0.2153 0.0
C15 C 0.46007 0.22411 0.19783 0.0
C16 C 0.4422 0.20426 0.16777 0.0
C17 C 0.30796 0.32838 0.21023 0.0
C18 C 0.26959 0.31371 0.22138 0.0
C19 C 0.31532 0.35487 0.18274 0.0
C20 C 0.2847 0.3675 0.16773 0.0
C21 C 0.24643 0.35337 0.17976 0.0
C22 C 0.23926 0.32601 0.20633 0.0
C23 C 0.40747 0.21086 0.15465 0.0
H24 H 0.26633 0.25302 0.37274 0.0
H25 H 0.28763 0.28059 0.31544 0.0
H26 H 0.40311 0.26629 0.33575 0.0
H27 H 0.38 0.23575 0.39287 0.0
H28 H 0.32085 0.32588 0.28082 0.0
H29 H 0.39623 0.25203 0.27484 0.0
H30 H 0.36359 0.30043 0.17832 0.0
H31 H 0.3623 0.23871 0.16227 0.0
H32 H 0.45652 0.26329 0.239 0.0
H33 H 0.48663 0.21924 0.20877 0.0
H34 H 0.26299 0.29253 0.24187 0.0
H35 H 0.34467 0.36635 0.17359 0.0
H36 H 0.3932 0.19601 0.1314 0.0
H37 H 0.21003 0.31415 0.21565 0.0
H38 H 0.29101 0.38886 0.14744 0.0
C39 C 0.17438 0.81556 0.87344 0.0
C40 C 0.21437 0.82596 0.88058 0.0
C41 C 0.16084 0.79924 0.84035 0.0
C42 C 0.18712 0.7931 0.814 0.0
C43 C 0.22693 0.80204 0.82219 0.0
C44 C 0.24028 0.81803 0.85502 0.0
C45 C 0.17457 0.78165 0.77657 0.0
C46 C 0.14813 0.79778 0.75851 0.0
C47 C 0.14417 0.79516 0.72074 0.0
C48 C 0.16681 0.77584 0.70109 0.0
C49 C 0.19332 0.75975 0.71889 0.0
C50 C 0.19514 0.76081 0.75664 0.0
C51 C 0.22456 0.7487 0.6986 0.0
C52 C 0.21674 0.72461 0.66904 0.0
C53 C 0.26323 0.76337 0.70891 0.0
C54 C 0.29345 0.75354 0.69075 0.0
C55 C 0.28582 0.72897 0.66166 0.0
C56 C 0.1221 0.81839 0.70175 0.0
C57 C 0.08568 0.82139 0.71449 0.0
C58 C 0.13943 0.84083 0.673 0.0
C59 C 0.12166 0.86683 0.65844 0.0
C60 C 0.08624 0.87097 0.67228 0.0
C61 C 0.06774 0.84737 0.69967 0.0
C62 C 0.24721 0.71449 0.65089 0.0
H63 H 0.15375 0.82107 0.89291 0.0
H64 H 0.13 0.79245 0.83498 0.0
H65 H 0.24832 0.79885 0.80241 0.0
H66 H 0.27129 0.82632 0.85941 0.0
H67 H 0.13352 0.81545 0.77329 0.0
H68 H 0.21558 0.74814 0.77024 0.0
H69 H 0.16591 0.77564 0.67185 0.0
H70 H 0.18717 0.71315 0.6605 0.0
H71 H 0.27018 0.78255 0.73118 0.0
H72 H 0.32282 0.76453 0.70008 0.0
H73 H 0.07164 0.80435 0.73655 0.0
H74 H 0.16771 0.83967 0.66291 0.0
H75 H 0.24069 0.69531 0.6286 0.0
H76 H 0.04032 0.85012 0.71063 0.0
H77 H 0.13623 0.8846 0.63706 0.0
C78 C 0.77123 0.46633 0.92912 0.0
C79 C 0.79952 0.44758 0.93919 0.0
C80 C 0.73885 0.44881 0.90834 0.0
C81 C 0.73393 0.41208 0.89721 0.0
C82 C 0.76308 0.394 0.90601 0.0
C83 C 0.79541 0.41151 0.92643 0.0
C84 C 0.69764 0.39155 0.87861 0.0
C85 C 0.68147 0.40665 0.84929 0.0
C86 C 0.64743 0.38674 0.83163 0.0
C87 C 0.62934 0.35112 0.84485 0.0
C88 C 0.64533 0.33551 0.87415 0.0
C89 C 0.6793 0.35608 0.89049 0.0
C90 C 0.62769 0.29773 0.88854 0.0
C91 C 0.58927 0.28778 0.90125 0.0
C92 C 0.65099 0.27264 0.89341 0.0
C93 C 0.63692 0.23925 0.91154 0.0
C94 C 0.59923 0.23002 0.92618 0.0
C95 C 0.63176 0.40304 0.79908 0.0
C96 C 0.63469 0.44116 0.79652 0.0
C97 C 0.6148 0.38106 0.76964 0.0
C98 C 0.60191 0.39663 0.73875 0.0
C99 C 0.60561 0.43482 0.736 0.0
C100 C 0.62189 0.45669 0.76567 0.0
C101 C 0.57526 0.25443 0.9199 0.0
H102 H 0.77351 0.49419 0.93823 0.0
H103 H 0.71697 0.46355 0.90213 0.0
H104 H 0.76075 0.366 0.89728 0.0
H105 H 0.81722 0.3966 0.93237 0.0
H106 H 0.69636 0.43351 0.83948 0.0
H107 H 0.69121 0.34453 0.91338 0.0
H108 H 0.60306 0.33539 0.83231 0.0
H109 H 0.57062 0.30654 0.89824 0.0
H110 H 0.6806 0.2792 0.88368 0.0
H111 H 0.65589 0.22079 0.91437 0.0
H112 H 0.64679 0.45925 0.81855 0.0
H113 H 0.61206 0.35171 0.77007 0.0
H114 H 0.54604 0.24839 0.93054 0.0
H115 H 0.62526 0.48613 0.7649 0.0
H116 H 0.58869 0.37854 0.71711 0.0
C117 C 0.90517 0.61161 0.27208 0.0
C118 C 0.92511 0.63287 0.24351 0.0
C119 C 0.89288 0.62805 0.30264 0.0
C120 C 0.89883 0.66655 0.30567 0.0
C121 C 0.91854 0.68786 0.27691 0.0
C122 C 0.93155 0.67138 0.24659 0.0
C123 C 0.88355 0.68396 0.33797 0.0
C124 C 0.84985 0.66461 0.35654 0.0
C125 C 0.83481 0.67989 0.38658 0.0
C126 C 0.85355 0.71567 0.39739 0.0
C127 C 0.88688 0.73616 0.37984 0.0
C128 C 0.90199 0.71984 0.35038 0.0
C129 C 0.90518 0.77433 0.39352 0.0
C130 C 0.88165 0.79718 0.40595 0.0
C131 C 0.9456 0.78727 0.39727 0.0
C132 C 0.96167 0.82106 0.4145 0.0
C133 C 0.93781 0.8428 0.42883 0.0
C134 C 0.79926 0.65925 0.40677 0.0
C135 C 0.76861 0.63461 0.38911 0.0
C136 C 0.79503 0.66509 0.44406 0.0
C137 C 0.76076 0.64869 0.46245 0.0
C138 C 0.72967 0.62499 0.44458 0.0
C139 C 0.73467 0.61739 0.40781 0.0
C140 C 0.89758 0.83052 0.42348 0.0
H141 H 0.89828 0.58196 0.27077 0.0
H142 H 0.8787 0.61012 0.32398 0.0
H143 H 0.92347 0.71744 0.27733 0.0
H144 H 0.94682 0.68902 0.22549 0.0
H145 H 0.83506 0.63746 0.34761 0.0
H146 H 0.92797 0.73523 0.33714 0.0
H147 H 0.84197 0.72796 0.41993 0.0
H148 H 0.85048 0.78894 0.40284 0.0
H149 H 0.96481 0.77073 0.38802 0.0
H150 H 0.99287 0.82996 0.41677 0.0
H151 H 0.77026 0.62908 0.36056 0.0
H152 H 0.81816 0.68265 0.45935 0.0
H153 H 0.87801 0.84617 0.43383 0.0
H154 H 0.71232 0.59812 0.39322 0.0
H155 H 0.75848 0.65526 0.4907 0.0
C156 C 0.70376 0.78167 0.72079 0.0
C157 C 0.70697 0.81833 0.71076 0.0
C158 C 0.68696 0.76863 0.7539 0.0
C159 C 0.67359 0.79223 0.77766 0.0
C160 C 0.67424 0.82805 0.76603 0.0
C161 C 0.6905 0.84082 0.73292 0.0
C162 C 0.66445 0.78201 0.81608 0.0
C163 C 0.68731 0.76274 0.83523 0.0
C164 C 0.6852 0.75996 0.87301 0.0
C165 C 0.65973 0.77677 0.89185 0.0
C166 C 0.63631 0.79584 0.87307 0.0
C167 C 0.63778 0.79696 0.83522 0.0
C168 C 0.6145 0.81894 0.89272 0.0
C169 C 0.59236 0.80591 0.92349 0.0
C170 C 0.61743 0.85529 0.88147 0.0
C171 C 0.59949 0.87838 0.90097 0.0
C172 C 0.57821 0.86575 0.93225 0.0
C173 C 0.71351 0.74363 0.89236 0.0
C174 C 0.72061 0.71026 0.88055 0.0
C175 C 0.73669 0.76328 0.91995 0.0
C176 C 0.7675 0.75063 0.93423 0.0
C177 C 0.77538 0.71791 0.92149 0.0
C178 C 0.75119 0.69748 0.89503 0.0
C179 C 0.57412 0.82903 0.94293 0.0
H180 H 0.71594 0.76371 0.70389 0.0
H181 H 0.68621 0.74066 0.76164 0.0
H182 H 0.66498 0.84741 0.78355 0.0
H183 H 0.69297 0.86934 0.72602 0.0
H184 H 0.70924 0.75244 0.82113 0.0
H185 H 0.61953 0.81143 0.82076 0.0
H186 H 0.6595 0.77644 0.92109 0.0
H187 H 0.58933 0.77794 0.93258 0.0
H188 H 0.63483 0.86641 0.85824 0.0
H189 H 0.60353 0.9066 0.8923 0.0
H190 H 0.7032 0.69461 0.85929 0.0
H191 H 0.73224 0.78933 0.92923 0.0
H192 H 0.55723 0.81834 0.96657 0.0
H193 H 0.75692 0.67241 0.8844 0.0
H194 H 0.78575 0.76685 0.95464 0.0
C195 C 0.84296 0.23167 0.2345 0.0
C196 C 0.82406 0.25313 0.21353 0.0
C197 C 0.85888 0.24434 0.26777 0.0
C198 C 0.85668 0.27902 0.28081 0.0
C199 C 0.84083 0.30182 0.25821 0.0
C200 C 0.82423 0.2888 0.22504 0.0
C201 C 0.86522 0.28836 0.31955 0.0
C202 C 0.89317 0.27465 0.33803 0.0
C203 C 0.89427 0.27426 0.37593 0.0
C204 C 0.86932 0.29121 0.39548 0.0
C205 C 0.84286 0.30731 0.37731 0.0
C206 C 0.84088 0.30544 0.33948 0.0
C207 C 0.8139 0.3225 0.39714 0.0
C208 C 0.79142 0.30239 0.42493 0.0
C209 C 0.80544 0.35529 0.3854 0.0
C210 C 0.77381 0.3666 0.39952 0.0
C211 C 0.74981 0.34528 0.42556 0.0
C212 C 0.91784 0.25203 0.3946 0.0
C213 C 0.91937 0.21753 0.38054 0.0
C214 C 0.93703 0.26371 0.42722 0.0
C215 C 0.95656 0.24101 0.44568 0.0
C216 C 0.95737 0.20631 0.43179 0.0
C217 C 0.93892 0.19502 0.39886 0.0
C218 C 0.75964 0.31375 0.43907 0.0
H219 H 0.84252 0.20375 0.22668 0.0
H220 H 0.87004 0.22551 0.28437 0.0
H221 H 0.83934 0.32898 0.26696 0.0
H222 H 0.80977 0.30582 0.20927 0.0
H223 H 0.91283 0.26229 0.32289 0.0
H224 H 0.81812 0.31488 0.32587 0.0
H225 H 0.86934 0.29063 0.42471 0.0
H226 H 0.79706 0.27686 0.43432 0.0
H227 H 0.82259 0.37158 0.36437 0.0
H228 H 0.76745 0.39156 0.38933 0.0
H229 H 0.90406 0.20711 0.35601 0.0
H230 H 0.93659 0.29016 0.43868 0.0
H231 H 0.74166 0.29693 0.45927 0.0
H232 H 0.93802 0.168 0.38805 0.0
H233 H 0.97044 0.25027 0.47116 0.0
C234 C 0.23189 0.61833 0.20326 0.0
C235 C 0.2277 0.62689 0.16658 0.0
C236 C 0.26631 0.63348 0.22231 0.0
C237 C 0.29822 0.65693 0.20511 0.0
C238 C 0.29466 0.66358 0.16789 0.0
C239 C 0.26001 0.64937 0.14922 0.0
C240 C 0.33454 0.67551 0.22553 0.0
C241 C 0.34789 0.65948 0.25607 0.0
C242 C 0.38246 0.67712 0.27428 0.0
C243 C 0.40404 0.71152 0.26106 0.0
C244 C 0.39115 0.72808 0.2307 0.0
C245 C 0.35625 0.71012 0.21403 0.0
C246 C 0.41323 0.76384 0.21475 0.0
C247 C 0.42282 0.79651 0.23508 0.0
C248 C 0.4202 0.76618 0.17731 0.0
C249 C 0.4342 0.80013 0.16033 0.0
C250 C 0.44142 0.8331 0.1801 0.0
C251 C 0.39585 0.6592 0.3068 0.0
C252 C 0.36981 0.64444 0.33476 0.0
C253 C 0.43442 0.65593 0.31001 0.0
C254 C 0.44635 0.63813 0.33994 0.0
C255 C 0.42038 0.62385 0.36805 0.0
C256 C 0.38197 0.62743 0.36504 0.0
C257 C 0.43681 0.83077 0.21793 0.0
H258 H 0.2086 0.59983 0.21751 0.0
H259 H 0.26743 0.62727 0.25074 0.0
H260 H 0.31865 0.68008 0.15278 0.0
H261 H 0.2585 0.65668 0.1211 0.0
H262 H 0.33202 0.6327 0.26526 0.0
H263 H 0.34574 0.72392 0.19195 0.0
H264 H 0.43074 0.72531 0.2743 0.0
H265 H 0.4176 0.79577 0.2639 0.0
H266 H 0.41354 0.7416 0.16084 0.0
H267 H 0.43849 0.80062 0.13138 0.0
H268 H 0.33997 0.64646 0.33345 0.0
H269 H 0.45527 0.66662 0.28901 0.0
H270 H 0.44232 0.85556 0.23406 0.0
H271 H 0.36114 0.61672 0.38606 0.0
H272 H 0.47615 0.636 0.34138 0.0
C273 C 0.13058 0.24598 0.69827 0.0
C274 C 0.09126 0.23562 0.68845 0.0
C275 C 0.14613 0.27966 0.71522 0.0
C276 C 0.12301 0.30438 0.72294 0.0
C277 C 0.08323 0.2935 0.71469 0.0
C278 C 0.06756 0.25956 0.69753 0.0
C279 C 0.14191 0.3424 0.73606 0.0
C280 C 0.17587 0.36162 0.71872 0.0
C281 C 0.19752 0.39584 0.73118 0.0
C282 C 0.18332 0.41184 0.76129 0.0
C283 C 0.14836 0.3939 0.7789 0.0
C284 C 0.12784 0.35907 0.76573 0.0
C285 C 0.13393 0.41115 0.81146 0.0
C286 C 0.1598 0.42963 0.83806 0.0
C287 C 0.09418 0.40948 0.81631 0.0
C288 C 0.08087 0.42589 0.84648 0.0
C289 C 0.10674 0.44406 0.87318 0.0
C290 C 0.23516 0.4136 0.71255 0.0
C291 C 0.25845 0.39163 0.69784 0.0
C292 C 0.24751 0.4519 0.70762 0.0
C293 C 0.2816 0.46744 0.68807 0.0
C294 C 0.30431 0.44516 0.67285 0.0
C295 C 0.29182 0.40699 0.67788 0.0
C296 C 0.14644 0.44568 0.86839 0.0
H297 H 0.14965 0.22816 0.69231 0.0
H298 H 0.17676 0.2868 0.7216 0.0
H299 H 0.06463 0.31191 0.71997 0.0
H300 H 0.03724 0.25279 0.69005 0.0
H301 H 0.18538 0.34955 0.69486 0.0
H302 H 0.10177 0.34431 0.77936 0.0
H303 H 0.19958 0.4382 0.77117 0.0
H304 H 0.19055 0.43137 0.83572 0.0
H305 H 0.07326 0.39591 0.79645 0.0
H306 H 0.05012 0.42402 0.84909 0.0
H307 H 0.25085 0.36216 0.70146 0.0
H308 H 0.23045 0.46988 0.71815 0.0
H309 H 0.16741 0.45985 0.88794 0.0
H310 H 0.30747 0.38857 0.66582 0.0
H311 H 0.29017 0.49696 0.68489 0.0
Dy312 Dy 0.06007 0.04524 0.5437 0.0
Dy313 Dy 0.972 1.0303 0.57503 0.0
C314 C 0.03912 0.09997 0.60276 0.0
O315 O 0.05823 1.0181 0.59727 0.0
O316 O 0.99608 0.98439 0.59532 0.0
O317 O 0.12138 0.05617 0.55471 0.0
O318 O 0.10013 0.04475 0.50005 0.0
O319 O 0.96818 0.99656 0.52418 0.0
O320 O 0.02971 0.98847 0.52523 0.0
O321 O 0.98056 0.08233 0.54442 0.0
O322 O 0.02974 0.07642 0.50654 0.0
O323 O 0.91092 1.02455 0.56585 0.0
O324 O 0.93236 1.01933 0.61995 0.0
C325 C 0.03162 0.98923 0.60711 0.0
O326 O 0.05988 0.09684 0.57401 0.0
O327 O 1.00817 0.07399 0.61134 0.0
C328 C 0.162 0.08452 0.50779 0.0
C329 C 0.22312 0.14059 0.48138 0.0
C330 C 0.18456 0.14384 0.47917 0.0
C331 C 0.15424 0.11612 0.4925 0.0
C332 C 0.20037 0.08137 0.51059 0.0
C333 C 0.23074 0.10918 0.49744 0.0
C334 C 0.13053 0.05454 0.52081 0.0
C335 C 0.99356 0.97805 0.51437 0.0
C336 C 1.00187 0.09228 0.5156 0.0
C337 C 0.87092 0.98307 0.60531 0.0
C338 C 0.8138 0.91972 0.62319 0.0
C339 C 0.84718 0.91678 0.60421 0.0
C340 C 0.87566 0.94831 0.59539 0.0
C341 C 0.83699 0.98618 0.62277 0.0
C342 C 0.80862 0.95477 0.63163 0.0
C343 C 0.90192 1.01608 0.59941 0.0
H344 H 0.17766 0.16723 0.46605 0.0
H345 H 0.12474 0.11902 0.49024 0.0
H346 H 0.20677 0.05716 0.52255 0.0
H347 H 0.26013 0.10595 0.49938 0.0
H348 H 0.85167 0.89013 0.59705 0.0
H349 H 0.90179 0.94558 0.58173 0.0
H350 H 0.833 1.01286 0.63059 0.0
H351 H 0.7834 0.95785 0.6466 0.0
Dy352 Dy 0.47251 1.02781 1.03757 0.0
Dy353 Dy 0.55747 0.04178 0.07658 0.0
C354 C 0.48739 0.97283 0.09969 0.0
O355 O 0.47032 0.05772 0.08926 0.0
O356 O 0.53333 0.08902 0.09222 0.0
O357 O 0.41098 1.01997 1.0446 0.0
O358 O 0.43559 1.02513 0.9907 0.0
O359 O 0.56745 0.07796 1.02727 0.0
O360 O 0.50539 0.08282 1.01667 0.0
O361 O 0.55195 0.99045 1.04518 0.0
O362 O 0.50495 0.99516 1.00424 0.0
O363 O 0.6188 0.04522 0.07328 0.0
O364 O 0.59246 0.0535 0.12457 0.0
C365 C 0.49692 0.08622 0.10007 0.0
O366 O 0.46973 0.97635 0.06915 0.0
O367 O 0.51736 0.99869 0.11071 0.0
C368 C 0.37172 0.98865 0.99748 0.0
C369 C 0.30901 0.93329 0.9723 0.0
C370 C 0.32782 0.92846 1.00462 0.0
C371 C 0.35893 0.95598 1.01717 0.0
C372 C 0.35295 0.9935 0.96533 0.0
C373 C 0.32205 0.96603 0.95273 0.0
C374 C 0.40398 1.01836 1.01004 0.0
C375 C 0.54301 0.09471 1.01196 0.0
C376 C 0.53222 0.97965 1.01567 0.0
C377 C 0.65568 0.08818 0.11328 0.0
C378 C 0.71452 0.151 0.12908 0.0
C379 C 0.67906 0.15451 0.1146 0.0
C380 C 0.64982 0.12326 0.10669 0.0
C381 C 0.69124 0.08454 0.12684 0.0
C382 C 0.7204 0.11568 0.13481 0.0
C383 C 0.62468 0.05525 0.10693 0.0
H384 H 0.31862 0.90335 1.02002 0.0
H385 H 0.373 0.95167 1.04212 0.0
H386 H 0.36247 1.01846 0.94974 0.0
H387 H 0.30906 0.97005 0.92709 0.0
H388 H 0.67368 0.18137 0.11016 0.0
H389 H 0.62239 0.12643 0.09618 0.0
H390 H 0.69609 0.05762 0.13214 0.0
H391 H 0.74693 0.11207 0.14695 0.0
Dy392 Dy 0.51104 0.49248 0.53072 0.0
Dy393 Dy 0.51685 0.56868 0.57437 0.0
C394 C 0.54994 0.50377 0.60898 0.0
O395 O 0.46224 0.48068 0.57093 0.0
O396 O 0.45418 0.5388 0.57803 0.0
O397 O 0.50486 0.43379 0.53249 0.0
O398 O 0.51326 0.46215 0.48145 0.0
O399 O 0.49625 0.57917 0.51885 0.0
O400 O 0.47288 0.52045 0.49774 0.0
O401 O 0.57753 0.57244 0.55431 0.0
O402 O 0.56083 0.53341 0.50637 0.0
O403 O 0.53126 0.628 0.57593 0.0
O404 O 0.50866 0.59685 0.62349 0.0
C405 C 0.44209 0.5033 0.58304 0.0
O406 O 0.55404 0.49302 0.57567 0.0
O407 O 0.53103 0.52927 0.61505 0.0
C408 C 0.54589 0.41562 0.49035 0.0
C409 C 0.61018 0.38793 0.47149 0.0
C410 C 0.61467 0.4182 0.49479 0.0
C411 C 0.58282 0.43203 0.50401 0.0
C412 C 0.54101 0.38479 0.46794 0.0
C413 C 0.57293 0.37096 0.45861 0.0
C414 C 0.51307 0.43176 0.49842 0.0
C415 C 0.47659 0.55621 0.49484 0.0
C416 C 0.58556 0.56006 0.52272 0.0
C417 C 0.48432 0.64756 0.60977 0.0
C418 C 0.42015 0.67845 0.61738 0.0
C419 C 0.4184 0.64872 0.59394 0.0
C420 C 0.45021 0.6334 0.59022 0.0
C421 C 0.48663 0.67774 0.63258 0.0
C422 C 0.45469 0.69313 0.63639 0.0
C423 C 0.51597 0.62882 0.60781 0.0
H424 H 0.64303 0.43187 0.50498 0.0
H425 H 0.58713 0.456 0.52125 0.0
H426 H 0.51268 0.37176 0.45725 0.0
H427 H 0.56858 0.34721 0.44109 0.0
H428 H 0.39218 0.63691 0.579 0.0
H429 H 0.44787 0.60985 0.57274 0.0
H430 H 0.51265 0.68872 0.64811 0.0
H431 H 0.4565 0.71558 0.65521 0.0
Dy432 Dy 0.01546 0.57857 1.03245 0.0
Dy433 Dy 1.00889 0.5022 0.07606 0.0
C434 C 0.9769 0.56618 0.11313 0.0
O435 O 0.07562 0.58293 0.05461 0.0
O436 O 0.05811 0.5427 0.10158 0.0
O437 O 0.01619 0.63636 1.03299 0.0
O438 O 0.0233 0.60971 0.98275 0.0
O439 O 0.05223 0.50367 1.03127 0.0
O440 O 0.02706 0.53773 0.99174 0.0
O441 O 0.9565 0.4905 1.04027 0.0
O442 O 0.95345 0.54865 1.02362 0.0
O443 O 1.00284 0.44362 0.07338 0.0
O444 O 1.01123 0.47142 0.12489 0.0
C445 C 0.08308 0.56974 0.08603 0.0
O446 O 0.99601 0.58901 0.08872 0.0
O447 O 0.97214 0.53042 0.10979 0.0
C448 C 0.98336 0.65207 0.98277 0.0
C449 C 0.916 0.6742 0.96214 0.0
C450 C 0.9441 0.69691 0.98411 0.0
C451 C 0.97747 0.68593 0.99431 0.0
C452 C 0.95595 0.62994 0.95975 0.0
C453 C 0.92278 0.64103 0.94934 0.0
C454 C 0.01569 0.63849 0.99796 0.0
C455 C 0.04731 0.51335 0.99787 0.0
C456 C 0.93838 0.51304 1.02464 0.0
C457 C 0.04505 0.42626 0.11447 0.0
C458 C 0.11111 0.40088 0.13125 0.0
C459 C 0.1139 0.43049 0.10753 0.0
C460 C 0.08113 0.44317 0.09933 0.0
C461 C 0.04195 0.39632 0.13768 0.0
C462 C 0.07484 0.38374 0.14612 0.0
C463 C 1.01148 0.44141 0.10733 0.0
H464 H 0.93969 0.72264 0.99435 0.0
H465 H 0.99806 0.70335 1.01223 0.0
H466 H 0.95956 0.60359 0.95046 0.0
H467 H 0.90222 0.62342 0.93156 0.0
H468 H 0.14161 0.4446 0.09629 0.0
H469 H 0.08411 0.46674 0.08179 0.0
H470 H 0.01434 0.38315 0.14974 0.0
H471 H 0.07207 0.36086 0.16454 0.0
C472 C 0.30453 0.18166 0.41693 0.0
C473 C 0.30501 0.21917 0.41802 0.0
C474 C 0.27968 0.15654 0.43939 0.0
C475 C 0.25461 0.16819 0.4637 0.0
H476 H 0.32114 0.17128 0.39666 0.0
H477 H 0.27817 0.12758 0.43584 0.0
S478 S 0.25077 0.26447 0.48157 0.0
N479 N 0.28252 0.26748 0.44846 0.0
N480 N 0.23628 0.22035 0.49134 0.0
C481 C 0.25752 0.20605 0.46728 0.0
C482 C 0.28265 0.23154 0.44428 0.0
C483 C 0.26173 0.84139 0.93124 0.0
C484 C 0.23052 0.84912 0.91198 0.0
C485 C 0.28534 0.86794 0.95324 0.0
C486 C 0.27846 0.90312 0.95681 0.0
H487 H 0.26964 0.81553 0.92719 0.0
H488 H 0.3108 0.86175 0.96524 0.0
S489 S 0.1961 0.93471 0.91785 0.0
N490 N 0.191 0.89279 0.90175 0.0
N491 N 0.23465 0.94227 0.94418 0.0
C492 C 0.245 0.90985 0.94079 0.0
C493 C 0.22109 0.88289 0.91819 0.0
C494 C 0.57153 0.4796 0.70655 0.0
C495 C 0.5921 0.45197 0.70288 0.0
C496 C 0.55859 0.49619 0.67631 0.0
C497 C 0.56557 0.48624 0.64058 0.0
H498 H 0.56477 0.48823 0.73318 0.0
H499 H 0.54259 0.51689 0.68118 0.0
S500 S 0.61977 0.41658 0.61547 0.0
N501 N 0.62007 0.41648 0.66004 0.0
N502 N 0.59554 0.44711 0.6036 0.0
C503 C 0.58642 0.45885 0.63643 0.0
C504 C 0.59961 0.4419 0.66731 0.0
C505 C 0.93629 0.62978 0.17561 0.0
C506 C 0.93839 0.6151 0.2105 0.0
C507 C 0.94839 0.61377 0.14446 0.0
C508 C 0.96247 0.58177 0.14638 0.0
H509 H 0.92486 0.65381 0.17215 0.0
H510 H 0.94634 0.62645 0.11852 0.0
S511 S 0.97787 0.53397 0.23069 0.0
N512 N 0.95926 0.56786 0.24463 0.0
N513 N 0.97996 0.5372 0.18628 0.0
C514 C 0.965 0.56684 0.18088 0.0
C515 C 0.95349 0.58353 0.21273 0.0
C516 C 0.43288 0.13979 0.1463 0.0
C517 C 0.4578 0.1746 0.15167 0.0
C518 C 0.44614 0.11124 0.1305 0.0
C519 C 0.48493 0.11631 0.11938 0.0
H520 H 0.40276 0.1345 0.15443 0.0
H521 H 0.42556 0.0851 0.1267 0.0
S522 S 0.56197 0.20259 0.12747 0.0
N523 N 0.52305 0.2128 0.1448 0.0
N524 N 0.54833 0.15909 0.11518 0.0
C525 C 0.51042 0.15092 0.12514 0.0
C526 C 0.49679 0.18007 0.14129 0.0
C527 C 0.03378 0.89501 0.64302 0.0
C528 C 0.07036 0.90165 0.65954 0.0
C529 C 0.02048 0.92383 0.62751 0.0
C530 C 0.04332 0.96017 0.62819 0.0
H531 H 0.01609 0.86724 0.64084 0.0
H532 H 0.99286 0.91731 0.61362 0.0
S533 S 0.13891 0.99208 0.67308 0.0
N534 N 0.12741 0.94719 0.67902 0.0
N535 N 0.10259 1.00139 0.65026 0.0
C536 C 0.07901 0.96723 0.64654 0.0
C537 C 0.09249 0.93795 0.66211 0.0
C538 C 0.85487 0.50123 0.95678 0.0
C539 C 0.83307 0.4651 0.96311 0.0
C540 C 0.888 0.517 0.97752 0.0
C541 C 0.90087 0.49733 1.00548 0.0
H542 H 0.84699 0.51712 0.9349 0.0
H543 H 0.90431 0.54444 0.97075 0.0
S544 S 0.85085 0.40382 1.03652 0.0
N545 N 0.8245 0.41175 1.00217 0.0
N546 N 0.88667 0.44087 1.04042 0.0
C547 C 0.87832 0.46179 1.01306 0.0
C548 C 0.84456 0.44587 0.99213 0.0
C549 C 0.69281 0.5976 0.50081 0.0
C550 C 0.69237 0.60871 0.46434 0.0
C551 C 0.65831 0.58281 0.52001 0.0
C552 C 0.62192 0.57777 0.50337 0.0
H553 H 0.72009 0.59983 0.51463 0.0
H554 H 0.66018 0.57436 0.54776 0.0
S555 S 0.60348 0.60494 0.4101 0.0
N556 N 0.65115 0.61618 0.4138 0.0
N557 N 0.58704 0.58655 0.44921 0.0
C558 C 0.62082 0.58894 0.46727 0.0
C559 C 0.65576 0.60477 0.44795 0.0
C560 C 0.18739 0.37652 0.19095 0.0
C561 C 0.21361 0.36748 0.16611 0.0
C562 C 0.15436 0.38718 0.17934 0.0
C563 C 0.14637 0.38945 0.14243 0.0
H564 H 0.19236 0.37517 0.21971 0.0
H565 H 0.13501 0.39392 0.19943 0.0
S566 S 0.20534 0.36834 0.06639 0.0
N567 N 0.22916 0.36118 0.10288 0.0
N568 N 0.16704 0.38178 0.08096 0.0
C569 C 0.17255 0.38108 0.11721 0.0
C570 C 0.20622 0.37001 0.12907 0.0
C571 C 0.54767 0.17304 0.944 0.0
C572 C 0.58541 0.1955 0.94834 0.0
C573 C 0.53436 0.14063 0.96437 0.0
C574 C 0.5582 0.12884 0.98991 0.0
H575 H 0.52825 0.18034 0.92439 0.0
H576 H 0.50511 0.12452 0.95978 0.0
S577 S 0.65816 0.17923 1.01448 0.0
N578 N 0.64536 0.20461 0.98256 0.0
N579 N 0.6209 0.14366 1.01968 0.0
C580 C 0.59583 0.15121 0.99484 0.0
C581 C 0.60924 0.1844 0.97442 0.0
C582 C 0.93792 0.90847 0.44584 0.0
C583 C 0.95404 0.87773 0.44981 0.0
C584 C 0.95074 0.94059 0.46666 0.0
C585 C 0.98082 0.94392 0.49206 0.0
H586 H 0.91506 0.90781 0.4264 0.0
H587 H 0.93712 0.96318 0.46258 0.0
S588 S 0.03148 0.87127 0.51514 0.0
N589 N 1.00063 0.85259 0.4832 0.0
N590 N 0.02553 0.91317 0.52097 0.0
C591 C 0.99742 0.91366 0.49628 0.0
C592 C 0.98394 0.88067 0.47552 0.0
C593 C 0.31714 0.67905 0.64318 0.0
C594 C 0.31831 0.71669 0.64482 0.0
C595 C 0.34992 0.66691 0.63305 0.0
C596 C 0.38497 0.692 0.6242 0.0
H597 H 0.29135 0.65891 0.65151 0.0
H598 H 0.34828 0.63772 0.63366 0.0
S599 S 0.40119 0.79317 0.61916 0.0
N600 N 0.35594 0.77879 0.63312 0.0
N601 N 0.41763 0.7559 0.61404 0.0
C602 C 0.38585 0.72959 0.62384 0.0
C603 C 0.35248 0.74195 0.63411 0.0
C604 C 0.71973 0.85872 0.65646 0.0
C605 C 0.73262 0.83563 0.68092 0.0
C606 C 0.74607 0.8839 0.63526 0.0
C607 C 0.78619 0.8869 0.63791 0.0
H608 H 0.68936 0.85906 0.65554 0.0
H609 H 0.73519 0.90274 0.61838 0.0
S610 S 0.83426 0.83018 0.69538 0.0
N611 N 0.78765 0.8151 0.70433 0.0
N612 N 0.83721 0.86255 0.66466 0.0
C613 C 0.79912 0.86186 0.66003 0.0
C614 C 0.77227 0.83615 0.68152 0.0
C615 C 0.75841 0.23356 0.18651 0.0
C616 C 0.79826 0.23522 0.18407 0.0
C617 C 0.73143 0.2081 0.16616 0.0
C618 C 0.74346 0.18353 0.14266 0.0
H619 H 0.7477 0.24976 0.2065 0.0
H620 H 0.70089 0.20571 0.17109 0.0
S621 S 0.84502 0.1827 0.12072 0.0
N622 N 0.84884 0.21447 0.15229 0.0
N623 N 0.79811 0.16682 0.11355 0.0
C624 C 0.78342 0.18761 0.13725 0.0
C625 C 0.81085 0.21343 0.15807 0.0
C626 C 0.44867 0.5747 0.39737 0.0
C627 C 0.43339 0.60597 0.40072 0.0
C628 C 0.46105 0.5578 0.42788 0.0
C629 C 0.45968 0.57199 0.46303 0.0
H630 H 0.45094 0.56309 0.37092 0.0
H631 H 0.47291 0.53409 0.42374 0.0
S632 S 0.42227 0.65336 0.4866 0.0
N633 N 0.41714 0.64991 0.44234 0.0
N634 N 0.4414 0.61931 0.49898 0.0
C635 C 0.44449 0.60326 0.4666 0.0
C636 C 0.4311 0.61987 0.43575 0.0
C637 C 0.06657 0.48459 0.90107 0.0
C638 C 0.09235 0.46162 0.90551 0.0
C639 C 0.05284 0.50148 0.93079 0.0
C640 C 0.06374 0.49595 0.96663 0.0
H641 H 0.05715 0.48991 0.87425 0.0
H642 H 0.0331 0.51878 0.9255 0.0
S643 S 0.12962 0.43715 0.99343 0.0
N644 N 0.12757 0.4337 0.949 0.0
N645 N 0.10187 0.46498 1.00447 0.0
C646 C 0.08937 0.47282 0.97146 0.0
C647 C 0.10361 0.45589 0.94113 0.0
C648 C 0.54302 0.91601 0.93844 0.0
C649 C 0.56286 0.89193 0.95467 0.0
C650 C 0.53205 0.94364 0.95849 0.0
C651 C 0.54095 0.94847 0.99541 0.0
H652 H 0.53648 0.91385 0.90986 0.0
H653 H 0.5176 0.96202 0.94468 0.0
S654 S 0.59042 0.89115 1.05116 0.0
N655 N 0.58967 0.8739 1.01012 0.0
N656 N 0.56854 0.9251 1.04794 0.0
C657 C 0.55956 0.92368 1.01221 0.0
C658 C 0.5706 0.89559 0.99183 0.0
C659 C 0.96088 0.17289 0.4892 0.0
C660 C 0.97327 0.18007 0.4534 0.0
C661 C 0.97106 0.14499 0.50905 0.0
C662 C 0.99424 0.12309 0.49402 0.0
H663 H 0.94185 0.188 0.5016 0.0
H664 H 0.96001 0.14028 0.53632 0.0
S665 S 0.03732 0.13334 0.40223 0.0
N666 N 1.0122 0.16502 0.40434 0.0
N667 N 0.03148 0.11234 0.44172 0.0
C668 C 1.00828 0.13104 0.4587 0.0
C669 C 0.99768 0.15949 0.43835 0.0
C670 C 0.19054 0.60285 0.10936 0.0
C671 C 0.1902 0.61277 0.14624 0.0
C672 C 0.15601 0.59021 0.08954 0.0
C673 C 0.11956 0.58616 0.10589 0.0
H674 H 0.21776 0.60426 0.09564 0.0
H675 H 0.15787 0.58249 0.06155 0.0
S676 S 0.10131 0.61049 0.20022 0.0
N677 N 0.14901 0.62005 0.19699 0.0
N678 N 0.08476 0.59427 0.16038 0.0
C679 C 0.11853 0.59607 0.14241 0.0
C680 C 0.15355 0.60978 0.1624 0.0
C681 C 0.34152 0.48969 0.62614 0.0
C682 C 0.34041 0.46112 0.65122 0.0
C683 C 0.37438 0.50344 0.60426 0.0
C684 C 0.40722 0.48869 0.60598 0.0
H685 H 0.31654 0.50112 0.62284 0.0
H686 H 0.37377 0.5253 0.58535 0.0
S687 S 0.42188 0.41763 0.67039 0.0
N688 N 0.37765 0.42193 0.67912 0.0
N689 N 0.43798 0.44636 0.63703 0.0
C690 C 0.40696 0.46092 0.6315 0.0
C691 C 0.37401 0.44751 0.65429 0.0
C692 C 0.84691 0.73147 0.9319 0.0
C693 C 0.81044 0.70651 0.93375 0.0
C694 C 0.88083 0.72087 0.94127 0.0
C695 C 0.87954 0.68494 0.95295 0.0
H696 H 0.84935 0.75919 0.92229 0.0
H697 H 0.90835 0.74079 0.93868 0.0
S698 S 0.79076 0.61028 0.96585 0.0
N699 N 0.77471 0.64503 0.95011 0.0
N700 N 0.83834 0.62516 0.96832 0.0
C701 C 0.84309 0.66 0.95581 0.0
C702 C 0.80859 0.67076 0.94607 0.0
C703 C 0.48375 0.89769 0.17141 0.0
C704 C 0.45183 0.86946 0.16072 0.0
C705 C 0.49474 0.93107 0.15204 0.0
C706 C 0.47414 0.93792 0.12122 0.0
H707 H 0.50097 0.89363 0.19445 0.0
H708 H 0.51999 0.95143 0.16107 0.0
S709 S 0.38583 0.87414 0.08413 0.0
N710 N 0.39811 0.85179 0.11878 0.0
N711 N 0.4185 0.91363 0.08253 0.0
C712 C 0.44143 0.91017 0.11101 0.0
C713 C 0.43039 0.87631 0.13064 0.0
C714 C 0.09786 0.19293 0.63747 0.0
C715 C 0.07633 0.20096 0.66705 0.0
C716 C 0.08556 0.16052 0.61718 0.0
C717 C 0.05107 0.13416 0.62544 0.0
H718 H 0.12456 0.21212 0.62963 0.0
H719 H 0.10352 0.1562 0.59479 0.0
S720 S 0.984 0.14148 0.70065 0.0
N721 N 0.01877 0.17948 0.70382 0.0
N722 N 0.99544 0.11872 0.66579 0.0
C723 C 0.0291 0.14183 0.65497 0.0
C724 C 0.04166 0.17509 0.67561 0.0
C725 C 0.70538 0.35846 0.47383 0.0
C726 C 0.7135 0.35495 0.43702 0.0
C727 C 0.6717 0.36877 0.48485 0.0
C728 C 0.6447 0.37535 0.45947 0.0
H729 H 0.72556 0.3539 0.49418 0.0
H730 H 0.66673 0.37165 0.51344 0.0
S731 S 0.65189 0.36853 0.35994 0.0
N732 N 0.69124 0.35763 0.3753 0.0
N733 N 0.6283 0.37735 0.39596 0.0
C734 C 0.65221 0.37128 0.42264 0.0
C735 C 0.68652 0.36103 0.41144 0.0
loop_
_geom_bond_atom_site_label_1
_geom_bond_atom_site_label_2
_geom_bond_distance
_geom_bond_site_symmetry_2
_ccdc_geom_bond_type
C0 C1 1.386 . S
C0 C2 1.397 . S
C0 H24 0.931 . S
C1 C0 1.386 . S
C1 C5 1.397 . S
C2 C0 1.397 . S
C2 C3 1.384 . S
C2 H25 0.930 . S
C3 C2 1.384 . S
C3 C4 1.377 . S
C3 C6 1.481 . S
C4 C3 1.377 . S
C4 C5 1.389 . S
C4 H26 0.929 . S
C5 C1 1.397 . S
C5 C4 1.389 . S
C5 H27 0.931 . S
C6 C3 1.481 . S
C6 C7 1.387 . S
C6 C11 1.390 . S
C7 C6 1.387 . S
C7 C8 1.401 . S
C7 H28 0.930 . S
C8 C7 1.401 . S
C8 C9 1.376 . S
C8 C17 1.511 . S
C9 C8 1.376 . S
C9 C10 1.392 . S
C9 H30 0.931 . S
C10 C9 1.392 . S
C10 C11 1.361 . S
C10 C12 1.500 . S
C11 C6 1.390 . S
C11 C10 1.361 . S
C11 H29 0.931 . S
C12 C10 1.500 . S
C12 C13 1.371 . S
C12 C14 1.365 . S
C13 C12 1.371 . S
C13 C23 1.386 . S
C13 H31 0.931 . S
C14 C12 1.365 . S
C14 C15 1.409 . S
C14 H32 0.929 . S
C15 C14 1.409 . S
C15 C16 1.380 . S
C15 H33 0.930 . S
C16 C15 1.380 . S
C16 C23 1.357 . S
C17 C8 1.511 . S
C17 C18 1.341 . S
C17 C19 1.371 . S
C18 C17 1.341 . S
C18 C22 1.394 . S
C18 H34 0.930 . S
C19 C17 1.371 . S
C19 C20 1.392 . S
C19 H35 0.931 . S
C20 C19 1.392 . S
C20 C21 1.331 . S
C20 H38 0.932 . S
C21 C20 1.331 . S
C21 C22 1.336 . S
C22 C18 1.394 . S
C22 C21 1.336 . S
C22 H37 0.929 . S
C23 C13 1.386 . S
C23 C16 1.357 . S
C23 H36 0.928 . S
H24 C0 0.931 . S
H25 C2 0.930 . S
H26 C4 0.929 . S
H27 C5 0.931 . S
H28 C7 0.930 . S
H29 C11 0.931 . S
H30 C9 0.931 . S
H31 C13 0.931 . S
H32 C14 0.929 . S
H33 C15 0.930 . S
H34 C18 0.930 . S
H35 C19 0.931 . S
H36 C23 0.928 . S
H37 C22 0.929 . S
H38 C20 0.932 . S
C39 C40 1.386 . S
C39 C41 1.397 . S
C39 H63 0.931 . S
C40 C39 1.386 . S
C40 C44 1.397 . S
C41 C39 1.397 . S
C41 C42 1.384 . S
C41 H64 0.930 . S
C42 C41 1.384 . S
C42 C43 1.377 . S
C42 C45 1.481 . S
C43 C42 1.377 . S
C43 C44 1.389 . S
C43 H65 0.929 . S
C44 C40 1.397 . S
C44 C43 1.389 . S
C44 H66 0.931 . S
C45 C42 1.481 . S
C45 C46 1.387 . S
C45 C50 1.390 . S
C46 C45 1.387 . S
C46 C47 1.401 . S
C46 H67 0.930 . S
C47 C46 1.401 . S
C47 C48 1.376 . S
C47 C56 1.511 . S
C48 C47 1.376 . S
C48 C49 1.392 . S
C48 H69 0.931 . S
C49 C48 1.392 . S
C49 C50 1.361 . S
C49 C51 1.500 . S
C50 C45 1.390 . S
C50 C49 1.361 . S
C50 H68 0.931 . S
C51 C49 1.500 . S
C51 C52 1.371 . S
C51 C53 1.365 . S
C52 C51 1.371 . S
C52 C62 1.386 . S
C52 H70 0.931 . S
C53 C51 1.365 . S
C53 C54 1.409 . S
C53 H71 0.929 . S
C54 C53 1.409 . S
C54 C55 1.380 . S
C54 H72 0.930 . S
C55 C54 1.380 . S
C55 C62 1.357 . S
C56 C47 1.511 . S
C56 C57 1.341 . S
C56 C58 1.371 . S
C57 C56 1.341 . S
C57 C61 1.394 . S
C57 H73 0.930 . S
C58 C56 1.371 . S
C58 C59 1.392 . S
C58 H74 0.931 . S
C59 C58 1.392 . S
C59 C60 1.331 . S
C59 H77 0.932 . S
C60 C59 1.331 . S
C60 C61 1.336 . S
C61 C57 1.394 . S
C61 C60 1.336 . S
C61 H76 0.929 . S
C62 C52 1.386 . S
C62 C55 1.357 . S
C62 H75 0.928 . S
H63 C39 0.931 . S
H64 C41 0.930 . S
H65 C43 0.929 . S
H66 C44 0.931 . S
H67 C46 0.930 . S
H68 C50 0.931 . S
H69 C48 0.931 . S
H70 C52 0.931 . S
H71 C53 0.929 . S
H72 C54 0.930 . S
H73 C57 0.930 . S
H74 C58 0.931 . S
H75 C62 0.928 . S
H76 C61 0.929 . S
H77 C59 0.932 . S
C78 C79 1.386 . S
C78 C80 1.397 . S
C78 H102 0.931 . S
C79 C78 1.386 . S
C79 C83 1.397 . S
C80 C78 1.397 . S
C80 C81 1.384 . S
C80 H103 0.930 . S
C81 C80 1.384 . S
C81 C82 1.377 . S
C81 C84 1.481 . S
C82 C81 1.377 . S
C82 C83 1.389 . S
C82 H104 0.929 . S
C83 C79 1.397 . S
C83 C82 1.389 . S
C83 H105 0.931 . S
C84 C81 1.481 . S
C84 C85 1.387 . S
C84 C89 1.390 . S
C85 C84 1.387 . S
C85 C86 1.401 . S
C85 H106 0.930 . S
C86 C85 1.401 . S
C86 C87 1.376 . S
C86 C95 1.511 . S
C87 C86 1.376 . S
C87 C88 1.392 . S
C87 H108 0.931 . S
C88 C87 1.392 . S
C88 C89 1.361 . S
C88 C90 1.500 . S
C89 C84 1.390 . S
C89 C88 1.361 . S
C89 H107 0.931 . S
C90 C88 1.500 . S
C90 C91 1.371 . S
C90 C92 1.365 . S
C91 C90 1.371 . S
C91 C101 1.386 . S
C91 H109 0.931 . S
C92 C90 1.365 . S
C92 C93 1.409 . S
C92 H110 0.929 . S
C93 C92 1.409 . S
C93 C94 1.380 . S
C93 H111 0.930 . S
C94 C93 1.380 . S
C94 C101 1.357 . S
C95 C86 1.511 . S
C95 C96 1.341 . S
C95 C97 1.371 . S
C96 C95 1.341 . S
C96 C100 1.394 . S
C96 H112 0.930 . S
C97 C95 1.371 . S
C97 C98 1.392 . S
C97 H113 0.931 . S
C98 C97 1.392 . S
C98 C99 1.331 . S
C98 H116 0.932 . S
C99 C98 1.331 . S
C99 C100 1.336 . S
C100 C96 1.394 . S
C100 C99 1.336 . S
C100 H115 0.929 . S
C101 C91 1.386 . S
C101 C94 1.357 . S
C101 H114 0.928 . S
H102 C78 0.931 . S
H103 C80 0.930 . S
H104 C82 0.929 . S
H105 C83 0.931 . S
H106 C85 0.930 . S
H107 C89 0.931 . S
H108 C87 0.931 . S
H109 C91 0.931 . S
H110 C92 0.929 . S
H111 C93 0.930 . S
H112 C96 0.930 . S
H113 C97 0.931 . S
H114 C101 0.928 . S
H115 C100 0.929 . S
H116 C98 0.932 . S
C117 C118 1.386 . S
C117 C119 1.397 . S
C117 H141 0.931 . S
C118 C117 1.386 . S
C118 C122 1.397 . S
C119 C117 1.397 . S
C119 C120 1.384 . S
C119 H142 0.930 . S
C120 C119 1.384 . S
C120 C121 1.377 . S
C120 C123 1.481 . S
C121 C120 1.377 . S
C121 C122 1.389 . S
C121 H143 0.929 . S
C122 C118 1.397 . S
C122 C121 1.389 . S
C122 H144 0.931 . S
C123 C120 1.481 . S
C123 C124 1.387 . S
C123 C128 1.390 . S
C124 C123 1.387 . S
C124 C125 1.401 . S
C124 H145 0.930 . S
C125 C124 1.401 . S
C125 C126 1.376 . S
C125 C134 1.511 . S
C126 C125 1.376 . S
C126 C127 1.392 . S
C126 H147 0.931 . S
C127 C126 1.392 . S
C127 C128 1.361 . S
C127 C129 1.500 . S
C128 C123 1.390 . S
C128 C127 1.361 . S
C128 H146 0.931 . S
C129 C127 1.500 . S
C129 C130 1.371 . S
C129 C131 1.365 . S
C130 C129 1.371 . S
C130 C140 1.386 . S
C130 H148 0.931 . S
C131 C129 1.365 . S
C131 C132 1.409 . S
C131 H149 0.929 . S
C132 C131 1.409 . S
C132 C133 1.380 . S
C132 H150 0.930 . S
C133 C132 1.380 . S
C133 C140 1.357 . S
C134 C125 1.511 . S
C134 C135 1.341 . S
C134 C136 1.371 . S
C135 C134 1.341 . S
C135 C139 1.394 . S
C135 H151 0.930 . S
C136 C134 1.371 . S
C136 C137 1.392 . S
C136 H152 0.931 . S
C137 C136 1.392 . S
C137 C138 1.331 . S
C137 H155 0.932 . S
C138 C137 1.331 . S
C138 C139 1.336 . S
C139 C135 1.394 . S
C139 C138 1.336 . S
C139 H154 0.929 . S
C140 C130 1.386 . S
C140 C133 1.357 . S
C140 H153 0.928 . S
H141 C117 0.931 . S
H142 C119 0.930 . S
H143 C121 0.929 . S
H144 C122 0.931 . S
H145 C124 0.930 . S
H146 C128 0.931 . S
H147 C126 0.931 . S
H148 C130 0.931 . S
H149 C131 0.929 . S
H150 C132 0.930 . S
H151 C135 0.930 . S
H152 C136 0.931 . S
H153 C140 0.928 . S
H154 C139 0.929 . S
H155 C137 0.932 . S
C156 C157 1.386 . S
C156 C158 1.397 . S
C156 H180 0.931 . S
C157 C156 1.386 . S
C157 C161 1.397 . S
C158 C156 1.397 . S
C158 C159 1.384 . S
C158 H181 0.930 . S
C159 C158 1.384 . S
C159 C160 1.377 . S
C159 C162 1.481 . S
C160 C159 1.377 . S
C160 C161 1.389 . S
C160 H182 0.929 . S
C161 C157 1.397 . S
C161 C160 1.389 . S
C161 H183 0.931 . S
C162 C159 1.481 . S
C162 C163 1.387 . S
C162 C167 1.390 . S
C163 C162 1.387 . S
C163 C164 1.401 . S
C163 H184 0.930 . S
C164 C163 1.401 . S
C164 C165 1.376 . S
C164 C173 1.511 . S
C165 C164 1.376 . S
C165 C166 1.392 . S
C165 H186 0.931 . S
C166 C165 1.392 . S
C166 C167 1.361 . S
C166 C168 1.500 . S
C167 C162 1.390 . S
C167 C166 1.361 . S
C167 H185 0.931 . S
C168 C166 1.500 . S
C168 C169 1.371 . S
C168 C170 1.365 . S
C169 C168 1.371 . S
C169 C179 1.386 . S
C169 H187 0.931 . S
C170 C168 1.365 . S
C170 C171 1.409 . S
C170 H188 0.929 . S
C171 C170 1.409 . S
C171 C172 1.380 . S
C171 H189 0.930 . S
C172 C171 1.380 . S
C172 C179 1.357 . S
C173 C164 1.511 . S
C173 C174 1.341 . S
C173 C175 1.371 . S
C174 C173 1.341 . S
C174 C178 1.394 . S
C174 H190 0.930 . S
C175 C173 1.371 . S
C175 C176 1.392 . S
C175 H191 0.931 . S
C176 C175 1.392 . S
C176 C177 1.331 . S
C176 H194 0.932 . S
C177 C176 1.331 . S
C177 C178 1.336 . S
C178 C174 1.394 . S
C178 C177 1.336 . S
C178 H193 0.929 . S
C179 C169 1.386 . S
C179 C172 1.357 . S
C179 H192 0.928 . S
H180 C156 0.931 . S
H181 C158 0.930 . S
H182 C160 0.929 . S
H183 C161 0.931 . S
H184 C163 0.930 . S
H185 C167 0.931 . S
H186 C165 0.931 . S
H187 C169 0.931 . S
H188 C170 0.929 . S
H189 C171 0.930 . S
H190 C174 0.930 . S
H191 C175 0.931 . S
H192 C179 0.928 . S
H193 C178 0.929 . S
H194 C176 0.932 . S
C195 C196 1.386 . S
C195 C197 1.397 . S
C195 H219 0.931 . S
C196 C195 1.386 . S
C196 C200 1.397 . S
C197 C195 1.397 . S
C197 C198 1.384 . S
C197 H220 0.930 . S
C198 C197 1.384 . S
C198 C199 1.377 . S
C198 C201 1.481 . S
C199 C198 1.377 . S
C199 C200 1.389 . S
C199 H221 0.929 . S
C200 C196 1.397 . S
C200 C199 1.389 . S
C200 H222 0.931 . S
C201 C198 1.481 . S
C201 C202 1.387 . S
C201 C206 1.390 . S
C202 C201 1.387 . S
C202 C203 1.401 . S
C202 H223 0.930 . S
C203 C202 1.401 . S
C203 C204 1.376 . S
C203 C212 1.511 . S
C204 C203 1.376 . S
C204 C205 1.392 . S
C204 H225 0.931 . S
C205 C204 1.392 . S
C205 C206 1.361 . S
C205 C207 1.500 . S
C206 C201 1.390 . S
C206 C205 1.361 . S
C206 H224 0.931 . S
C207 C205 1.500 . S
C207 C208 1.371 . S
C207 C209 1.365 . S
C208 C207 1.371 . S
C208 C218 1.386 . S
C208 H226 0.931 . S
C209 C207 1.365 . S
C209 C210 1.409 . S
C209 H227 0.929 . S
C210 C209 1.409 . S
C210 C211 1.380 . S
C210 H228 0.930 . S
C211 C210 1.380 . S
C211 C218 1.357 . S
C212 C203 1.511 . S
C212 C213 1.341 . S
C212 C214 1.371 . S
C213 C212 1.341 . S
C213 C217 1.394 . S
C213 H229 0.930 . S
C214 C212 1.371 . S
C214 C215 1.392 . S
C214 H230 0.931 . S
C215 C214 1.392 . S
C215 C216 1.331 . S
C215 H233 0.932 . S
C216 C215 1.331 . S
C216 C217 1.336 . S
C217 C213 1.394 . S
C217 C216 1.336 . S
C217 H232 0.929 . S
C218 C208 1.386 . S
C218 C211 1.357 . S
C218 H231 0.928 . S
H219 C195 0.931 . S
H220 C197 0.930 . S
H221 C199 0.929 . S
H222 C200 0.931 . S
H223 C202 0.930 . S
H224 C206 0.931 . S
H225 C204 0.931 . S
H226 C208 0.931 . S
H227 C209 0.929 . S
H228 C210 0.930 . S
H229 C213 0.930 . S
H230 C214 0.931 . S
H231 C218 0.928 . S
H232 C217 0.929 . S
H233 C215 0.932 . S
C234 C235 1.386 . S
C234 C236 1.397 . S
C234 H258 0.931 . S
C235 C234 1.386 . S
C235 C239 1.397 . S
C236 C234 1.397 . S
C236 C237 1.384 . S
C236 H259 0.930 . S
C237 C236 1.384 . S
C237 C238 1.377 . S
C237 C240 1.481 . S
C238 C237 1.377 . S
C238 C239 1.389 . S
C238 H260 0.929 . S
C239 C235 1.397 . S
C239 C238 1.389 . S
C239 H261 0.931 . S
C240 C237 1.481 . S
C240 C241 1.387 . S
C240 C245 1.390 . S
C241 C240 1.387 . S
C241 C242 1.401 . S
C241 H262 0.930 . S
C242 C241 1.401 . S
C242 C243 1.376 . S
C242 C251 1.511 . S
C243 C242 1.376 . S
C243 C244 1.392 . S
C243 H264 0.931 . S
C244 C243 1.392 . S
C244 C245 1.361 . S
C244 C246 1.500 . S
C245 C240 1.390 . S
C245 C244 1.361 . S
C245 H263 0.931 . S
C246 C244 1.500 . S
C246 C247 1.371 . S
C246 C248 1.365 . S
C247 C246 1.371 . S
C247 C257 1.386 . S
C247 H265 0.931 . S
C248 C246 1.365 . S
C248 C249 1.409 . S
C248 H266 0.929 . S
C249 C248 1.409 . S
C249 C250 1.380 . S
C249 H267 0.930 . S
C250 C249 1.380 . S
C250 C257 1.357 . S
C251 C242 1.511 . S
C251 C252 1.341 . S
C251 C253 1.371 . S
C252 C251 1.341 . S
C252 C256 1.394 . S
C252 H268 0.930 . S
C253 C251 1.371 . S
C253 C254 1.392 . S
C253 H269 0.931 . S
C254 C253 1.392 . S
C254 C255 1.331 . S
C254 H272 0.932 . S
C255 C254 1.331 . S
C255 C256 1.336 . S
C256 C252 1.394 . S
C256 C255 1.336 . S
C256 H271 0.929 . S
C257 C247 1.386 . S
C257 C250 1.357 . S
C257 H270 0.928 . S
H258 C234 0.931 . S
H259 C236 0.930 . S
H260 C238 0.929 . S
H261 C239 0.931 . S
H262 C241 0.930 . S
H263 C245 0.931 . S
H264 C243 0.931 . S
H265 C247 0.931 . S
H266 C248 0.929 . S
H267 C249 0.930 . S
H268 C252 0.930 . S
H269 C253 0.931 . S
H270 C257 0.928 . S
H271 C256 0.929 . S
H272 C254 0.932 . S
C273 C274 1.386 . S
C273 C275 1.397 . S
C273 H297 0.931 . S
C274 C273 1.386 . S
C274 C278 1.397 . S
C275 C273 1.397 . S
C275 C276 1.384 . S
C275 H298 0.930 . S
C276 C275 1.384 . S
C276 C277 1.377 . S
C276 C279 1.481 . S
C277 C276 1.377 . S
C277 C278 1.389 . S
C277 H299 0.929 . S
C278 C274 1.397 . S
C278 C277 1.389 . S
C278 H300 0.931 . S
C279 C276 1.481 . S
C279 C280 1.387 . S
C279 C284 1.390 . S
C280 C279 1.387 . S
C280 C281 1.401 . S
C280 H301 0.930 . S
C281 C280 1.401 . S
C281 C282 1.376 . S
C281 C290 1.511 . S
C282 C281 1.376 . S
C282 C283 1.392 . S
C282 H303 0.931 . S
C283 C282 1.392 . S
C283 C284 1.361 . S
C283 C285 1.500 . S
C284 C279 1.390 . S
C284 C283 1.361 . S
C284 H302 0.931 . S
C285 C283 1.500 . S
C285 C286 1.371 . S
C285 C287 1.365 . S
C286 C285 1.371 . S
C286 C296 1.386 . S
C286 H304 0.931 . S
C287 C285 1.365 . S
C287 C288 1.409 . S
C287 H305 0.929 . S
C288 C287 1.409 . S
C288 C289 1.380 . S
C288 H306 0.930 . S
C289 C288 1.380 . S
C289 C296 1.357 . S
C290 C281 1.511 . S
C290 C291 1.341 . S
C290 C292 1.371 . S
C291 C290 1.341 . S
C291 C295 1.394 . S
C291 H307 0.930 . S
C292 C290 1.371 . S
C292 C293 1.392 . S
C292 H308 0.931 . S
C293 C292 1.392 . S
C293 C294 1.331 . S
C293 H311 0.932 . S
C294 C293 1.331 . S
C294 C295 1.336 . S
C295 C291 1.394 . S
C295 C294 1.336 . S
C295 H310 0.929 . S
C296 C286 1.386 . S
C296 C289 1.357 . S
C296 H309 0.928 . S
H297 C273 0.931 . S
H298 C275 0.930 . S
H299 C277 0.929 . S
H300 C278 0.931 . S
H301 C280 0.930 . S
H302 C284 0.931 . S
H303 C282 0.931 . S
H304 C286 0.931 . S
H305 C287 0.929 . S
H306 C288 0.930 . S
H307 C291 0.930 . S
H308 C292 0.931 . S
H309 C296 0.928 . S
H310 C295 0.929 . S
H311 C293 0.932 . S
Dy312 O315 2.307 1_545 S
Dy312 O317 2.395 . S
Dy312 O318 2.379 . S
Dy312 O320 2.339 1_545 S
Dy312 O322 2.298 . S
Dy312 O326 2.275 . S
Dy312 C334 2.738 . S
Dy313 O316 2.298 1_645 S
Dy313 O319 2.275 1_545 S
Dy313 O321 2.307 . S
Dy313 O323 2.395 1_545 S
Dy313 O324 2.379 1_545 S
Dy313 O327 2.339 . S
Dy313 C343 2.738 1_545 S
C314 O326 1.254 . S
C314 O327 1.257 1_455 S
O315 Dy312 2.307 1_565 S
O315 C325 1.266 . S
O316 Dy313 2.298 1_465 S
O316 C325 1.236 . S
O317 Dy312 2.395 . S
O317 C334 1.255 . S
O318 Dy312 2.379 . S
O318 C334 1.249 . S
O319 Dy313 2.275 1_565 S
O319 C335 1.254 . S
O320 Dy312 2.339 1_565 S
O320 C335 1.257 1_455 S
O321 Dy313 2.307 . S
O321 C336 1.266 . S
O322 Dy312 2.298 . S
O322 C336 1.236 1_455 S
O323 Dy313 2.395 1_565 S
O323 C343 1.255 . S
O324 Dy313 2.379 1_565 S
O324 C343 1.249 . S
C325 O315 1.266 . S
C325 O316 1.236 . S
O326 Dy312 2.275 . S
O326 C314 1.254 . S
O327 Dy313 2.339 . S
O327 C314 1.257 1_655 S
C328 C331 1.344 . S
C328 C332 1.328 . S
C328 C334 1.516 . S
C329 C330 1.304 . S
C329 C333 1.323 . S
C330 C329 1.304 . S
C330 C331 1.371 . S
C330 H344 0.930 . S
C331 C328 1.344 . S
C331 C330 1.371 . S
C331 H345 0.931 . S
C332 C328 1.328 . S
C332 C333 1.433 . S
C332 H346 0.931 . S
C333 C329 1.323 . S
C333 C332 1.433 . S
C333 H347 0.933 . S
C334 Dy312 2.738 . S
C334 O317 1.255 . S
C334 O318 1.249 . S
C334 C328 1.516 . S
C335 O319 1.254 . S
C335 O320 1.257 1_655 S
C336 O321 1.266 . S
C336 O322 1.236 1_655 S
C337 C340 1.344 . S
C337 C341 1.328 . S
C337 C343 1.516 . S
C338 C339 1.304 . S
C338 C342 1.323 . S
C339 C338 1.304 . S
C339 C340 1.371 . S
C339 H348 0.930 . S
C340 C337 1.344 . S
C340 C339 1.371 . S
C340 H349 0.931 . S
C341 C337 1.328 . S
C341 C342 1.433 . S
C341 H350 0.931 . S
C342 C338 1.323 . S
C342 C341 1.433 . S
C342 H351 0.933 . S
C343 Dy313 2.738 1_565 S
C343 O323 1.255 . S
C343 O324 1.249 . S
C343 C337 1.516 . S
H344 C330 0.930 . S
H345 C331 0.931 . S
H346 C332 0.931 . S
H347 C333 0.933 . S
H348 C339 0.930 . S
H349 C340 0.931 . S
H350 C341 0.931 . S
H351 C342 0.933 . S
Dy352 O355 2.325 1_556 S
Dy352 O357 2.373 1_545 S
Dy352 O358 2.376 1_545 S
Dy352 O360 2.359 . S
Dy352 O362 2.282 1_545 S
Dy352 O366 2.259 1_546 S
Dy352 C374 2.724 1_545 S
Dy353 O356 2.298 . S
Dy353 O359 2.275 1_554 S
Dy353 O361 2.307 1_544 S
Dy353 O363 2.395 . S
Dy353 O364 2.379 . S
Dy353 O367 2.339 1_545 S
Dy353 C383 2.738 . S
C354 O366 1.254 . S
C354 O367 1.257 . S
O355 Dy352 2.325 1_554 S
O355 C365 1.266 . S
O356 Dy353 2.298 . S
O356 C365 1.236 . S
O357 Dy352 2.373 1_565 S
O357 C374 1.255 . S
O358 Dy352 2.376 1_565 S
O358 C374 1.249 . S
O359 Dy353 2.275 1_556 S
O359 C375 1.254 . S
O360 Dy352 2.359 . S
O360 C375 1.257 . S
O361 Dy353 2.307 1_566 S
O361 C376 1.266 . S
O362 Dy352 2.282 1_565 S
O362 C376 1.236 . S
O363 Dy353 2.395 . S
O363 C383 1.255 . S
O364 Dy353 2.379 . S
O364 C383 1.249 . S
C365 O355 1.266 . S
C365 O356 1.236 . S
O366 Dy352 2.259 1_564 S
O366 C354 1.254 . S
O367 Dy353 2.339 1_565 S
O367 C354 1.257 . S
C368 C371 1.344 . S
C368 C372 1.328 . S
C368 C374 1.516 . S
C369 C370 1.304 . S
C369 C373 1.323 . S
C370 C369 1.304 . S
C370 C371 1.371 . S
C370 H384 0.930 . S
C371 C368 1.344 . S
C371 C370 1.371 . S
C371 H385 0.931 . S
C372 C368 1.328 . S
C372 C373 1.433 . S
C372 H386 0.931 . S
C373 C369 1.323 . S
C373 C372 1.433 . S
C373 H387 0.933 . S
C374 Dy352 2.724 1_565 S
C374 O357 1.255 . S
C374 O358 1.249 . S
C374 C368 1.516 . S
C375 O359 1.254 . S
C375 O360 1.257 . S
C376 O361 1.266 . S
C376 O362 1.236 . S
C377 C380 1.344 . S
C377 C381 1.328 . S
C377 C383 1.516 . S
C378 C379 1.304 . S
C378 C382 1.323 . S
C379 C378 1.304 . S
C379 C380 1.371 . S
C379 H388 0.930 . S
C380 C377 1.344 . S
C380 C379 1.371 . S
C380 H389 0.931 . S
C381 C377 1.328 . S
C381 C382 1.433 . S
C381 H390 0.931 . S
C382 C378 1.323 . S
C382 C381 1.433 . S
C382 H391 0.933 . S
C383 Dy353 2.738 . S
C383 O363 1.255 . S
C383 O364 1.249 . S
C383 C377 1.516 . S
H384 C370 0.930 . S
H385 C371 0.931 . S
H386 C372 0.931 . S
H387 C373 0.933 . S
H388 C379 0.930 . S
H389 C380 0.931 . S
H390 C381 0.931 . S
H391 C382 0.933 . S
Dy392 O395 2.307 . S
Dy392 O397 2.395 . S
Dy392 O398 2.379 . S
Dy392 O400 2.339 . S
Dy392 O402 2.298 . S
Dy392 O406 2.275 . S
Dy392 C414 2.738 . S
Dy393 O396 2.298 . S
Dy393 O399 2.275 . S
Dy393 O401 2.307 . S
Dy393 O403 2.395 . S
Dy393 O404 2.379 . S
Dy393 O407 2.339 . S
Dy393 C423 2.738 . S
C394 O406 1.254 . S
C394 O407 1.257 . S
O395 Dy392 2.307 . S
O395 C405 1.266 . S
O396 Dy393 2.298 . S
O396 C405 1.236 . S
O397 Dy392 2.395 . S
O397 C414 1.255 . S
O398 Dy392 2.379 . S
O398 C414 1.249 . S
O399 Dy393 2.275 . S
O399 C415 1.254 . S
O400 Dy392 2.339 . S
O400 C415 1.257 . S
O401 Dy393 2.307 . S
O401 C416 1.266 . S
O402 Dy392 2.298 . S
O402 C416 1.236 . S
O403 Dy393 2.395 . S
O403 C423 1.255 . S
O404 Dy393 2.379 . S
O404 C423 1.249 . S
C405 O395 1.266 . S
C405 O396 1.236 . S
O406 Dy392 2.275 . S
O406 C394 1.254 . S
O407 Dy393 2.339 . S
O407 C394 1.257 . S
C408 C411 1.344 . S
C408 C412 1.328 . S
C408 C414 1.516 . S
C409 C410 1.304 . S
C409 C413 1.323 . S
C410 C409 1.304 . S
C410 C411 1.371 . S
C410 H424 0.930 . S
C411 C408 1.344 . S
C411 C410 1.371 . S
C411 H425 0.931 . S
C412 C408 1.328 . S
C412 C413 1.433 . S
C412 H426 0.931 . S
C413 C409 1.323 . S
C413 C412 1.433 . S
C413 H427 0.933 . S
C414 Dy392 2.738 . S
C414 O397 1.255 . S
C414 O398 1.249 . S
C414 C408 1.516 . S
C415 O399 1.254 . S
C415 O400 1.257 . S
C416 O401 1.266 . S
C416 O402 1.236 . S
C417 C420 1.344 . S
C417 C421 1.328 . S
C417 C423 1.516 . S
C418 C419 1.304 . S
C418 C422 1.323 . S
C419 C418 1.304 . S
C419 C420 1.371 . S
C419 H428 0.930 . S
C420 C417 1.344 . S
C420 C419 1.371 . S
C420 H429 0.931 . S
C421 C417 1.328 . S
C421 C422 1.433 . S
C421 H430 0.931 . S
C422 C418 1.323 . S
C422 C421 1.433 . S
C422 H431 0.933 . S
C423 Dy393 2.738 . S
C423 O403 1.255 . S
C423 O404 1.249 . S
C423 C417 1.516 . S
H424 C410 0.930 . S
H425 C411 0.931 . S
H426 C412 0.931 . S
H427 C413 0.933 . S
H428 C419 0.930 . S
H429 C420 0.931 . S
H430 C421 0.931 . S
H431 C422 0.933 . S
Dy432 O435 2.307 1_656 S
Dy432 O437 2.395 . S
Dy432 O438 2.379 . S
Dy432 O440 2.339 1_655 S
Dy432 O442 2.298 . S
Dy432 O446 2.275 1_556 S
Dy432 C454 2.738 . S
Dy433 O436 2.298 . S
Dy433 O439 2.275 1_554 S
Dy433 O441 2.307 1_455 S
Dy433 O443 2.395 . S
Dy433 O444 2.379 . S
Dy433 O447 2.339 1_455 S
Dy433 C463 2.738 . S
C434 O446 1.254 . S
C434 O447 1.257 . S
O435 Dy432 2.307 1_454 S
O435 C445 1.266 . S
O436 Dy433 2.298 . S
O436 C445 1.236 . S
O437 Dy432 2.395 . S
O437 C454 1.255 . S
O438 Dy432 2.379 . S
O438 C454 1.249 . S
O439 Dy433 2.275 1_556 S
O439 C455 1.254 . S
O440 Dy432 2.339 1_455 S
O440 C455 1.257 . S
O441 Dy433 2.307 1_655 S
O441 C456 1.266 1_554 S
O442 Dy432 2.298 . S
O442 C456 1.236 . S
O443 Dy433 2.395 . S
O443 C463 1.255 . S
O444 Dy433 2.379 . S
O444 C463 1.249 . S
C445 O435 1.266 . S
C445 O436 1.236 . S
O446 Dy432 2.275 1_554 S
O446 C434 1.254 . S
O447 Dy433 2.339 1_655 S
O447 C434 1.257 . S
C448 C451 1.344 . S
C448 C452 1.328 . S
C448 C454 1.516 . S
C449 C450 1.304 . S
C449 C453 1.323 . S
C450 C449 1.304 . S
C450 C451 1.371 . S
C450 H464 0.930 . S
C451 C448 1.344 . S
C451 C450 1.371 . S
C451 H465 0.931 . S
C452 C448 1.328 . S
C452 C453 1.433 . S
C452 H466 0.931 . S
C453 C449 1.323 . S
C453 C452 1.433 . S
C453 H467 0.933 . S
C454 Dy432 2.738 . S
C454 O437 1.255 . S
C454 O438 1.249 . S
C454 C448 1.516 . S
C455 O439 1.254 . S
C455 O440 1.257 . S
C456 O441 1.266 1_556 S
C456 O442 1.236 . S
C457 C460 1.344 . S
C457 C461 1.328 . S
C457 C463 1.516 . S
C458 C459 1.304 . S
C458 C462 1.323 . S
C459 C458 1.304 . S
C459 C460 1.371 . S
C459 H468 0.930 . S
C460 C457 1.344 . S
C460 C459 1.371 . S
C460 H469 0.931 . S
C461 C457 1.328 . S
C461 C462 1.433 . S
C461 H470 0.931 . S
C462 C458 1.323 . S
C462 C461 1.433 . S
C462 H471 0.933 . S
C463 Dy433 2.738 . S
C463 O443 1.255 . S
C463 O444 1.249 . S
C463 C457 1.516 . S
H464 C450 0.930 . S
H465 C451 0.931 . S
H466 C452 0.931 . S
H467 C453 0.933 . S
H468 C459 0.930 . S
H469 C460 0.931 . S
H470 C461 0.931 . S
H471 C462 0.933 . S
C472 C473 1.369 . S
C472 C474 1.419 . S
C472 H476 0.930 . S
C473 C472 1.369 . S
C473 C482 1.429 . S
C474 C472 1.419 . S
C474 C475 1.363 . S
C474 H477 0.929 . S
C475 C474 1.363 . S
C475 C481 1.428 . S
H476 C472 0.930 . S
H477 C474 0.929 . S
S478 N479 1.613 . S
S478 N480 1.610 . S
N479 S478 1.613 . S
N479 C482 1.350 . S
N480 S478 1.610 . S
N480 C481 1.351 . S
C481 C475 1.428 . S
C481 N480 1.351 . S
C481 C482 1.434 . S
C482 C473 1.429 . S
C482 N479 1.350 . S
C482 C481 1.434 . S
C483 C484 1.369 . S
C483 C485 1.419 . S
C483 H487 0.930 . S
C484 C483 1.369 . S
C484 C493 1.429 . S
C485 C483 1.419 . S
C485 C486 1.363 . S
C485 H488 0.929 . S
C486 C485 1.363 . S
C486 C492 1.428 . S
H487 C483 0.930 . S
H488 C485 0.929 . S
S489 N490 1.613 . S
S489 N491 1.610 . S
N490 S489 1.613 . S
N490 C493 1.350 . S
N491 S489 1.610 . S
N491 C492 1.351 . S
C492 C486 1.428 . S
C492 N491 1.351 . S
C492 C493 1.434 . S
C493 C484 1.429 . S
C493 N490 1.350 . S
C493 C492 1.434 . S
C494 C495 1.369 . S
C494 C496 1.419 . S
C494 H498 0.930 . S
C495 C494 1.369 . S
C495 C504 1.429 . S
C496 C494 1.419 . S
C496 C497 1.363 . S
C496 H499 0.929 . S
C497 C496 1.363 . S
C497 C503 1.428 . S
H498 C494 0.930 . S
H499 C496 0.929 . S
S500 N501 1.613 . S
S500 N502 1.610 . S
N501 S500 1.613 . S
N501 C504 1.350 . S
N502 S500 1.610 . S
N502 C503 1.351 . S
C503 C497 1.428 . S
C503 N502 1.351 . S
C503 C504 1.434 . S
C504 C495 1.429 . S
C504 N501 1.350 . S
C504 C503 1.434 . S
C505 C506 1.369 . S
C505 C507 1.419 . S
C505 H509 0.930 . S
C506 C505 1.369 . S
C506 C515 1.429 . S
C507 C505 1.419 . S
C507 C508 1.363 . S
C507 H510 0.929 . S
C508 C507 1.363 . S
C508 C514 1.428 . S
H509 C505 0.930 . S
H510 C507 0.929 . S
S511 N512 1.613 . S
S511 N513 1.610 . S
N512 S511 1.613 . S
N512 C515 1.350 . S
N513 S511 1.610 . S
N513 C514 1.351 . S
C514 C508 1.428 . S
C514 N513 1.351 . S
C514 C515 1.434 . S
C515 C506 1.429 . S
C515 N512 1.350 . S
C515 C514 1.434 . S
C516 C517 1.369 . S
C516 C518 1.419 . S
C516 H520 0.930 . S
C517 C516 1.369 . S
C517 C526 1.429 . S
C518 C516 1.419 . S
C518 C519 1.363 . S
C518 H521 0.929 . S
C519 C518 1.363 . S
C519 C525 1.428 . S
H520 C516 0.930 . S
H521 C518 0.929 . S
S522 N523 1.613 . S
S522 N524 1.610 . S
N523 S522 1.613 . S
N523 C526 1.350 . S
N524 S522 1.610 . S
N524 C525 1.351 . S
C525 C519 1.428 . S
C525 N524 1.351 . S
C525 C526 1.434 . S
C526 C517 1.429 . S
C526 N523 1.350 . S
C526 C525 1.434 . S
C527 C528 1.369 . S
C527 C529 1.419 . S
C527 H531 0.930 1_455 S
C528 C527 1.369 . S
C528 C537 1.429 . S
C529 C527 1.419 . S
C529 C530 1.363 . S
C529 H532 0.929 1_455 S
C530 C529 1.363 . S
C530 C536 1.428 . S
H531 C527 0.930 1_655 S
H532 C529 0.929 1_655 S
S533 N534 1.613 . S
S533 N535 1.610 . S
N534 S533 1.613 . S
N534 C537 1.350 . S
N535 S533 1.610 . S
N535 C536 1.351 . S
C536 C530 1.428 . S
C536 N535 1.351 . S
C536 C537 1.434 . S
C537 C528 1.429 . S
C537 N534 1.350 . S
C537 C536 1.434 . S
C538 C539 1.369 . S
C538 C540 1.419 . S
C538 H542 0.930 . S
C539 C538 1.369 . S
C539 C548 1.429 . S
C540 C538 1.419 . S
C540 C541 1.363 . S
C540 H543 0.929 . S
C541 C540 1.363 . S
C541 C547 1.428 . S
H542 C538 0.930 . S
H543 C540 0.929 . S
S544 N545 1.613 . S
S544 N546 1.610 . S
N545 S544 1.613 . S
N545 C548 1.350 . S
N546 S544 1.610 . S
N546 C547 1.351 . S
C547 C541 1.428 . S
C547 N546 1.351 . S
C547 C548 1.434 . S
C548 C539 1.429 . S
C548 N545 1.350 . S
C548 C547 1.434 . S
C549 C550 1.369 . S
C549 C551 1.419 . S
C549 H553 0.930 . S
C550 C549 1.369 . S
C550 C559 1.429 . S
C551 C549 1.419 . S
C551 C552 1.363 . S
C551 H554 0.929 . S
C552 C551 1.363 . S
C552 C558 1.428 . S
H553 C549 0.930 . S
H554 C551 0.929 . S
S555 N556 1.613 . S
S555 N557 1.610 . S
N556 S555 1.613 . S
N556 C559 1.350 . S
N557 S555 1.610 . S
N557 C558 1.351 . S
C558 C552 1.428 . S
C558 N557 1.351 . S
C558 C559 1.434 . S
C559 C550 1.429 . S
C559 N556 1.350 . S
C559 C558 1.434 . S
C560 C561 1.369 . S
C560 C562 1.419 . S
C560 H564 0.930 . S
C561 C560 1.369 . S
C561 C570 1.429 . S
C562 C560 1.419 . S
C562 C563 1.363 . S
C562 H565 0.929 . S
C563 C562 1.363 . S
C563 C569 1.428 . S
H564 C560 0.930 . S
H565 C562 0.929 . S
S566 N567 1.613 . S
S566 N568 1.610 . S
N567 S566 1.613 . S
N567 C570 1.350 . S
N568 S566 1.610 . S
N568 C569 1.351 . S
C569 C563 1.428 . S
C569 N568 1.351 . S
C569 C570 1.434 . S
C570 C561 1.429 . S
C570 N567 1.350 . S
C570 C569 1.434 . S
C571 C572 1.369 . S
C571 C573 1.419 . S
C571 H575 0.930 . S
C572 C571 1.369 . S
C572 C581 1.429 . S
C573 C571 1.419 . S
C573 C574 1.363 . S
C573 H576 0.929 . S
C574 C573 1.363 . S
C574 C580 1.428 . S
H575 C571 0.930 . S
H576 C573 0.929 . S
S577 N578 1.613 . S
S577 N579 1.610 . S
N578 S577 1.613 . S
N578 C581 1.350 . S
N579 S577 1.610 . S
N579 C580 1.351 . S
C580 C574 1.428 . S
C580 N579 1.351 . S
C580 C581 1.434 . S
C581 C572 1.429 . S
C581 N578 1.350 . S
C581 C580 1.434 . S
C582 C583 1.369 . S
C582 C584 1.419 . S
C582 H586 0.930 . S
C583 C582 1.369 . S
C583 C592 1.429 . S
C584 C582 1.419 . S
C584 C585 1.363 . S
C584 H587 0.929 . S
C585 C584 1.363 . S
C585 C591 1.428 . S
H586 C582 0.930 . S
H587 C584 0.929 . S
S588 N589 1.613 . S
S588 N590 1.610 . S
N589 S588 1.613 . S
N589 C592 1.350 . S
N590 S588 1.610 . S
N590 C591 1.351 . S
C591 C585 1.428 . S
C591 N590 1.351 . S
C591 C592 1.434 . S
C592 C583 1.429 . S
C592 N589 1.350 . S
C592 C591 1.434 . S
C593 C594 1.369 . S
C593 C595 1.419 . S
C593 H597 0.930 . S
C594 C593 1.369 . S
C594 C603 1.429 . S
C595 C593 1.419 . S
C595 C596 1.363 . S
C595 H598 0.929 . S
C596 C595 1.363 . S
C596 C602 1.428 . S
H597 C593 0.930 . S
H598 C595 0.929 . S
S599 N600 1.613 . S
S599 N601 1.610 . S
N600 S599 1.613 . S
N600 C603 1.350 . S
N601 S599 1.610 . S
N601 C602 1.351 . S
C602 C596 1.428 . S
C602 N601 1.351 . S
C602 C603 1.434 . S
C603 C594 1.429 . S
C603 N600 1.350 . S
C603 C602 1.434 . S
C604 C605 1.369 . S
C604 C606 1.419 . S
C604 H608 0.930 . S
C605 C604 1.369 . S
C605 C614 1.429 . S
C606 C604 1.419 . S
C606 C607 1.363 . S
C606 H609 0.929 . S
C607 C606 1.363 . S
C607 C613 1.428 . S
H608 C604 0.930 . S
H609 C606 0.929 . S
S610 N611 1.613 . S
S610 N612 1.610 . S
N611 S610 1.613 . S
N611 C614 1.350 . S
N612 S610 1.610 . S
N612 C613 1.351 . S
C613 C607 1.428 . S
C613 N612 1.351 . S
C613 C614 1.434 . S
C614 C605 1.429 . S
C614 N611 1.350 . S
C614 C613 1.434 . S
C615 C616 1.369 . S
C615 C617 1.419 . S
C615 H619 0.930 . S
C616 C615 1.369 . S
C616 C625 1.429 . S
C617 C615 1.419 . S
C617 C618 1.363 . S
C617 H620 0.929 . S
C618 C617 1.363 . S
C618 C624 1.428 . S
H619 C615 0.930 . S
H620 C617 0.929 . S
S621 N622 1.613 . S
S621 N623 1.610 . S
N622 S621 1.613 . S
N622 C625 1.350 . S
N623 S621 1.610 . S
N623 C624 1.351 . S
C624 C618 1.428 . S
C624 N623 1.351 . S
C624 C625 1.434 . S
C625 C616 1.429 . S
C625 N622 1.350 . S
C625 C624 1.434 . S
C626 C627 1.369 . S
C626 C628 1.419 . S
C626 H630 0.930 . S
C627 C626 1.369 . S
C627 C636 1.429 . S
C628 C626 1.419 . S
C628 C629 1.363 . S
C628 H631 0.929 . S
C629 C628 1.363 . S
C629 C635 1.428 . S
H630 C626 0.930 . S
H631 C628 0.929 . S
S632 N633 1.613 . S
S632 N634 1.610 . S
N633 S632 1.613 . S
N633 C636 1.350 . S
N634 S632 1.610 . S
N634 C635 1.351 . S
C635 C629 1.428 . S
C635 N634 1.351 . S
C635 C636 1.434 . S
C636 C627 1.429 . S
C636 N633 1.350 . S
C636 C635 1.434 . S
C637 C638 1.369 . S
C637 C639 1.419 . S
C637 H641 0.930 . S
C638 C637 1.369 . S
C638 C647 1.429 . S
C639 C637 1.419 . S
C639 C640 1.363 . S
C639 H642 0.929 . S
C640 C639 1.363 . S
C640 C646 1.428 . S
H641 C637 0.930 . S
H642 C639 0.929 . S
S643 N644 1.613 . S
S643 N645 1.610 . S
N644 S643 1.613 . S
N644 C647 1.350 . S
N645 S643 1.610 . S
N645 C646 1.351 . S
C646 C640 1.428 . S
C646 N645 1.351 . S
C646 C647 1.434 . S
C647 C638 1.429 . S
C647 N644 1.350 . S
C647 C646 1.434 . S
C648 C649 1.369 . S
C648 C650 1.419 . S
C648 H652 0.930 . S
C649 C648 1.369 . S
C649 C658 1.429 . S
C650 C648 1.419 . S
C650 C651 1.363 . S
C650 H653 0.929 . S
C651 C650 1.363 . S
C651 C657 1.428 . S
H652 C648 0.930 . S
H653 C650 0.929 . S
S654 N655 1.613 . S
S654 N656 1.610 . S
N655 S654 1.613 . S
N655 C658 1.350 . S
N656 S654 1.610 . S
N656 C657 1.351 . S
C657 C651 1.428 . S
C657 N656 1.351 . S
C657 C658 1.434 . S
C658 C649 1.429 . S
C658 N655 1.350 . S
C658 C657 1.434 . S
C659 C660 1.369 . S
C659 C661 1.419 . S
C659 H663 0.930 . S
C660 C659 1.369 . S
C660 C669 1.440 . S
C661 C659 1.419 . S
C661 C662 1.363 . S
C661 H664 0.929 . S
C662 C661 1.363 . S
C662 C668 1.428 . S
H663 C659 0.930 . S
H664 C661 0.929 . S
S665 N666 1.613 . S
S665 N667 1.610 . S
N666 S665 1.613 . S
N666 C669 1.340 1_455 S
N667 S665 1.610 . S
N667 C668 1.351 1_455 S
C668 C662 1.428 . S
C668 N667 1.351 1_655 S
C668 C669 1.433 . S
C669 C660 1.440 . S
C669 N666 1.340 1_655 S
C669 C668 1.433 . S
C670 C671 1.369 . S
C670 C672 1.419 . S
C670 H674 0.930 . S
C671 C670 1.369 . S
C671 C680 1.429 . S
C672 C670 1.419 . S
C672 C673 1.363 . S
C672 H675 0.929 . S
C673 C672 1.363 . S
C673 C679 1.428 . S
H674 C670 0.930 . S
H675 C672 0.929 . S
S676 N677 1.613 . S
S676 N678 1.610 . S
N677 S676 1.613 . S
N677 C680 1.350 . S
N678 S676 1.610 . S
N678 C679 1.351 . S
C679 C673 1.428 . S
C679 N678 1.351 . S
C679 C680 1.434 . S
C680 C671 1.429 . S
C680 N677 1.350 . S
C680 C679 1.434 . S
C681 C682 1.369 . S
C681 C683 1.419 . S
C681 H685 0.930 . S
C682 C681 1.369 . S
C682 C691 1.429 . S
C683 C681 1.419 . S
C683 C684 1.363 . S
C683 H686 0.929 . S
C684 C683 1.363 . S
C684 C690 1.428 . S
H685 C681 0.930 . S
H686 C683 0.929 . S
S687 N688 1.613 . S
S687 N689 1.610 . S
N688 S687 1.613 . S
N688 C691 1.350 . S
N689 S687 1.610 . S
N689 C690 1.351 . S
C690 C684 1.428 . S
C690 N689 1.351 . S
C690 C691 1.434 . S
C691 C682 1.429 . S
C691 N688 1.350 . S
C691 C690 1.434 . S
C692 C693 1.369 . S
C692 C694 1.419 . S
C692 H696 0.930 . S
C693 C692 1.369 . S
C693 C702 1.429 . S
C694 C692 1.419 . S
C694 C695 1.363 . S
C694 H697 0.929 . S
C695 C694 1.363 . S
C695 C701 1.428 . S
H696 C692 0.930 . S
H697 C694 0.929 . S
S698 N699 1.613 . S
S698 N700 1.610 . S
N699 S698 1.613 . S
N699 C702 1.350 . S
N700 S698 1.610 . S
N700 C701 1.351 . S
C701 C695 1.428 . S
C701 N700 1.351 . S
C701 C702 1.434 . S
C702 C693 1.429 . S
C702 N699 1.350 . S
C702 C701 1.434 . S
C703 C704 1.369 . S
C703 C705 1.419 . S
C703 H707 0.930 . S
C704 C703 1.369 . S
C704 C713 1.429 . S
C705 C703 1.419 . S
C705 C706 1.363 . S
C705 H708 0.929 . S
C706 C705 1.363 . S
C706 C712 1.428 . S
H707 C703 0.930 . S
H708 C705 0.929 . S
S709 N710 1.613 . S
S709 N711 1.610 . S
N710 S709 1.613 . S
N710 C713 1.350 . S
N711 S709 1.610 . S
N711 C712 1.351 . S
C712 C706 1.428 . S
C712 N711 1.351 . S
C712 C713 1.434 . S
C713 C704 1.429 . S
C713 N710 1.350 . S
C713 C712 1.434 . S
C714 C715 1.369 . S
C714 C716 1.419 . S
C714 H718 0.930 . S
C715 C714 1.369 . S
C715 C724 1.429 . S
C716 C714 1.419 . S
C716 C717 1.363 . S
C716 H719 0.929 . S
C717 C716 1.363 . S
C717 C723 1.428 . S
H718 C714 0.930 . S
H719 C716 0.929 . S
S720 N721 1.625 . S
S720 N722 1.610 . S
N721 S720 1.625 . S
N721 C724 1.334 1_655 S
N722 S720 1.610 . S
N722 C723 1.351 1_655 S
C723 C717 1.428 . S
C723 N722 1.351 1_455 S
C723 C724 1.434 . S
C724 C715 1.429 . S
C724 N721 1.334 1_455 S
C724 C723 1.434 . S
C725 C726 1.369 . S
C725 C727 1.419 . S
C725 H729 0.930 . S
C726 C725 1.369 . S
C726 C735 1.429 . S
C727 C725 1.419 . S
C727 C728 1.363 . S
C727 H730 0.929 . S
C728 C727 1.363 . S
C728 C734 1.428 . S
H729 C725 0.930 . S
H730 C727 0.929 . S
S731 N732 1.613 . S
S731 N733 1.610 . S
N732 S731 1.613 . S
N732 C735 1.350 . S
N733 S731 1.610 . S
N733 C734 1.351 . S
C734 C728 1.428 . S
C734 N733 1.351 . S
C734 C735 1.434 . S
C735 C726 1.429 . S
C735 N732 1.350 . S
C735 C734 1.434 . S
C473 C1 1.308 . S
C475 C329 1.382 . S
C484 C40 1.314 . S
C486 C369 1.385 . S
C497 C394 2.434 . S
C495 C99 2.501 . S
C506 C118 2.489 . S
C508 C434 2.428 . S
C519 C365 1.978 . S
C517 C16 1.832 . S
C530 C325 1.990 . S
C528 C60 1.847 . S
C541 C456 1.782 . S
C539 C79 1.815 . S
C552 C416 1.754 . S
C550 C138 1.784 . S
C561 C21 1.567 . S
C563 C458 1.641 . S
C574 C375 2.207 . S
C572 C94 2.255 . S
C583 C133 2.235 . S
C585 C335 2.188 . S
C594 C55 1.565 . S
C596 C418 1.643 . S
C607 C338 1.390 . S
C605 C157 1.313 . S
C616 C196 1.316 . S
C618 C378 1.380 . S
C627 C255 2.496 . S
C629 C415 2.435 . S
C638 C289 2.487 . S
C640 C455 2.425 . S
C649 C172 1.815 . S
C651 C376 1.977 . S
C662 C336 1.989 . S
C660 C216 1.819 . S
C673 C445 1.779 . S
C671 C235 1.819 . S
C684 C405 1.750 . S
C682 C294 1.789 . S
C693 C177 1.597 . S
C695 C449 1.634 . S
C706 C354 2.208 . S
C704 C250 2.258 . S
C717 C314 2.187 . S
C715 C274 2.237 . S
C726 C211 1.579 . S
C728 C409 1.642 . S
