# Generated by pormake.
# Topology eea, (3,6)-cn, num edge types: 1
# Building blocks:
#     Node 0, Type 0, BuildingBlock: PAMTOO_clean_linker_0, # of connection points: 3
#     Node 1, Type 0, BuildingBlock: PAMTOO_clean_linker_0, # of connection points: 3
#     Node 2, Type 0, BuildingBlock: PAMTOO_clean_linker_0, # of connection points: 3
#     Node 3, Type 0, BuildingBlock: PAMTOO_clean_linker_0, # of connection points: 3
#     Node 4, Type 0, BuildingBlock: PAMTOO_clean_linker_0, # of connection points: 3
#     Node 5, Type 0, BuildingBlock: PAMTOO_clean_linker_0, # of connection points: 3
#     Node 6, Type 0, BuildingBlock: PAMTOO_clean_linker_0, # of connection points: 3
#     Node 7, Type 0, BuildingBlock: PAMTOO_clean_linker_0, # of connection points: 3
#     Node 8, Type 0, BuildingBlock: PAMTOO_clean_linker_0, # of connection points: 3
#     Node 9, Type 0, BuildingBlock: PAMTOO_clean_linker_0, # of connection points: 3
#     Node 10, Type 0, BuildingBlock: PAMTOO_clean_linker_0, # of connection points: 3
#     Node 11, Type 0, BuildingBlock: PAMTOO_clean_linker_0, # of connection points: 3
#     Node 12, Type 0, BuildingBlock: PAMTOO_clean_linker_0, # of connection points: 3
#     Node 13, Type 0, BuildingBlock: PAMTOO_clean_linker_0, # of connection points: 3
#     Node 14, Type 0, BuildingBlock: PAMTOO_clean_linker_0, # of connection points: 3
#     Node 15, Type 0, BuildingBlock: PAMTOO_clean_linker_0, # of connection points: 3
#     Node 16, Type 0, BuildingBlock: PAMTOO_clean_linker_0, # of connection points: 3
#     Node 17, Type 0, BuildingBlock: PAMTOO_clean_linker_0, # of connection points: 3
#     Node 18, Type 1, BuildingBlock: CUKXOW_clean_sbu_0, # of connection points: 6
#     Node 19, Type 1, BuildingBlock: CUKXOW_clean_sbu_0, # of connection points: 6
#     Node 20, Type 1, BuildingBlock: CUKXOW_clean_sbu_0, # of connection points: 6
#     Node 21, Type 1, BuildingBlock: CUKXOW_clean_sbu_0, # of connection points: 6
#     Node 22, Type 1, BuildingBlock: CUKXOW_clean_sbu_0, # of connection points: 6
#     Node 23, Type 1, BuildingBlock: CUKXOW_clean_sbu_0, # of connection points: 6
#     Node 24, Type 1, BuildingBlock: CUKXOW_clean_sbu_0, # of connection points: 6
#     Node 25, Type 1, BuildingBlock: CUKXOW_clean_sbu_0, # of connection points: 6
#     Node 26, Type 1, BuildingBlock: CUKXOW_clean_sbu_0, # of connection points: 6
#     Edge 27, Type (0, 1), BuildingBlock: EZIPEK_clean_linker_0, # of connection points: 2
#     Edge 28, Type (0, 1), BuildingBlock: EZIPEK_clean_linker_0, # of connection points: 2
#     Edge 29, Type (0, 1), BuildingBlock: EZIPEK_clean_linker_0, # of connection points: 2
#     Edge 30, Type (0, 1), BuildingBlock: EZIPEK_clean_linker_0, # of connection points: 2
#     Edge 31, Type (0, 1), BuildingBlock: EZIPEK_clean_linker_0, # of connection points: 2
#     Edge 32, Type (0, 1), BuildingBlock: EZIPEK_clean_linker_0, # of connection points: 2
#     Edge 33, Type (0, 1), BuildingBlock: EZIPEK_clean_linker_0, # of connection points: 2
#     Edge 34, Type (0, 1), BuildingBlock: EZIPEK_clean_linker_0, # of connection points: 2
#     Edge 35, Type (0, 1), BuildingBlock: EZIPEK_clean_linker_0, # of connection points: 2
#     Edge 36, Type (0, 1), BuildingBlock: EZIPEK_clean_linker_0, # of connection points: 2
#     Edge 37, Type (0, 1), BuildingBlock: EZIPEK_clean_linker_0, # of connection points: 2
#     Edge 38, Type (0, 1), BuildingBlock: EZIPEK_clean_linker_0, # of connection points: 2
#     Edge 39, Type (0, 1), BuildingBlock: EZIPEK_clean_linker_0, # of connection points: 2
#     Edge 40, Type (0, 1), BuildingBlock: EZIPEK_clean_linker_0, # of connection points: 2
#     Edge 41, Type (0, 1), BuildingBlock: EZIPEK_clean_linker_0, # of connection points: 2
#     Edge 42, Type (0, 1), BuildingBlock: EZIPEK_clean_linker_0, # of connection points: 2
#     Edge 43, Type (0, 1), BuildingBlock: EZIPEK_clean_linker_0, # of connection points: 2
#     Edge 44, Type (0, 1), BuildingBlock: EZIPEK_clean_linker_0, # of connection points: 2
#     Edge 45, Type (0, 1), BuildingBlock: EZIPEK_clean_linker_0, # of connection points: 2
#     Edge 46, Type (0, 1), BuildingBlock: EZIPEK_clean_linker_0, # of connection points: 2
#     Edge 47, Type (0, 1), BuildingBlock: EZIPEK_clean_linker_0, # of connection points: 2
#     Edge 48, Type (0, 1), BuildingBlock: EZIPEK_clean_linker_0, # of connection points: 2
#     Edge 49, Type (0, 1), BuildingBlock: EZIPEK_clean_linker_0, # of connection points: 2
#     Edge 50, Type (0, 1), BuildingBlock: EZIPEK_clean_linker_0, # of connection points: 2
#     Edge 51, Type (0, 1), BuildingBlock: EZIPEK_clean_linker_0, # of connection points: 2
#     Edge 52, Type (0, 1), BuildingBlock: EZIPEK_clean_linker_0, # of connection points: 2
#     Edge 53, Type (0, 1), BuildingBlock: EZIPEK_clean_linker_0, # of connection points: 2
#     Edge 54, Type (0, 1), BuildingBlock: EZIPEK_clean_linker_0, # of connection points: 2
#     Edge 55, Type (0, 1), BuildingBlock: EZIPEK_clean_linker_0, # of connection points: 2
#     Edge 56, Type (0, 1), BuildingBlock: EZIPEK_clean_linker_0, # of connection points: 2
#     Edge 57, Type (0, 1), BuildingBlock: EZIPEK_clean_linker_0, # of connection points: 2
#     Edge 58, Type (0, 1), BuildingBlock: EZIPEK_clean_linker_0, # of connection points: 2
#     Edge 59, Type (0, 1), BuildingBlock: EZIPEK_clean_linker_0, # of connection points: 2
#     Edge 60, Type (0, 1), BuildingBlock: EZIPEK_clean_linker_0, # of connection points: 2
#     Edge 61, Type (0, 1), BuildingBlock: EZIPEK_clean_linker_0, # of connection points: 2
#     Edge 62, Type (0, 1), BuildingBlock: EZIPEK_clean_linker_0, # of connection points: 2
#     Edge 63, Type (0, 1), BuildingBlock: EZIPEK_clean_linker_0, # of connection points: 2
#     Edge 64, Type (0, 1), BuildingBlock: EZIPEK_clean_linker_0, # of connection points: 2
#     Edge 65, Type (0, 1), BuildingBlock: EZIPEK_clean_linker_0, # of connection points: 2
#     Edge 66, Type (0, 1), BuildingBlock: EZIPEK_clean_linker_0, # of connection points: 2
#     Edge 67, Type (0, 1), BuildingBlock: EZIPEK_clean_linker_0, # of connection points: 2
#     Edge 68, Type (0, 1), BuildingBlock: EZIPEK_clean_linker_0, # of connection points: 2
#     Edge 69, Type (0, 1), BuildingBlock: EZIPEK_clean_linker_0, # of connection points: 2
#     Edge 70, Type (0, 1), BuildingBlock: EZIPEK_clean_linker_0, # of connection points: 2
#     Edge 71, Type (0, 1), BuildingBlock: EZIPEK_clean_linker_0, # of connection points: 2
#     Edge 72, Type (0, 1), BuildingBlock: EZIPEK_clean_linker_0, # of connection points: 2
#     Edge 73, Type (0, 1), BuildingBlock: EZIPEK_clean_linker_0, # of connection points: 2
#     Edge 74, Type (0, 1), BuildingBlock: EZIPEK_clean_linker_0, # of connection points: 2
#     Edge 75, Type (0, 1), BuildingBlock: EZIPEK_clean_linker_0, # of connection points: 2
#     Edge 76, Type (0, 1), BuildingBlock: EZIPEK_clean_linker_0, # of connection points: 2
#     Edge 77, Type (0, 1), BuildingBlock: EZIPEK_clean_linker_0, # of connection points: 2
#     Edge 78, Type (0, 1), BuildingBlock: EZIPEK_clean_linker_0, # of connection points: 2
#     Edge 79, Type (0, 1), BuildingBlock: EZIPEK_clean_linker_0, # of connection points: 2
#     Edge 80, Type (0, 1), BuildingBlock: EZIPEK_clean_linker_0, # of connection points: 2
# Relax obj value: 0.033
# Max RMSD: 0.162
# Mean RMSD: 0.087
data_MOF--net-eea--node1-CUKXOW_clean_sbu_0--node2-PAMTOO_clean_linker_0--edge1-EZIPEK_clean_linker_0
_symmetry_space_group_name_H-M    P1
_symmetry_Int_Tables_number       1
_symmetry_cell_setting            triclinic
loop_
_symmetry_equiv_pos_as_xyz
'x, y, z'
_cell_length_a     44.658998
_cell_length_b     40.995352
_cell_length_c     35.30498
_cell_angle_alpha  93.561333
_cell_angle_beta   93.613143
_cell_angle_gamma 120.00913
loop_
_atom_site_label
_atom_site_type_symbol
_atom_site_fract_x
_atom_site_fract_y
_atom_site_fract_z
_atom_type_partial_charge
H0 H 0.27998 0.08667 0.45204 0.0
H1 H 0.26267 0.18051 0.4662 0.0
H2 H 0.22991 0.11077 0.35852 0.0
H3 H 0.26926 0.21127 0.3753 0.0
C4 C 0.24683 0.20482 0.39155 0.0
O5 O 0.22924 0.16697 0.39748 0.0
H6 H 0.25861 0.22243 0.41948 0.0
C7 C 0.27076 0.10422 0.44009 0.0
C8 C 0.25401 0.09437 0.4027 0.0
C9 C 0.27516 0.136 0.46262 0.0
C10 C 0.26111 0.1572 0.44821 0.0
C11 C 0.24519 0.14845 0.41043 0.0
C12 C 0.24278 0.11785 0.38736 0.0
H13 H 0.93514 0.20805 0.46613 0.0
H14 H 0.8549 0.09325 0.47564 0.0
H15 H 0.92529 0.11602 0.3905 0.0
H16 H 0.85324 0.06158 0.35829 0.0
C17 C 0.84163 0.05266 0.38538 0.0
O18 O 0.86776 0.06413 0.41499 0.0
H19 H 0.82698 0.06781 0.38899 0.0
C20 C 0.92178 0.178 0.45655 0.0
C21 C 0.93438 0.16482 0.42751 0.0
C22 C 0.89345 0.15233 0.47485 0.0
C23 C 0.87657 0.1135 0.46178 0.0
C24 C 0.88681 0.10076 0.43014 0.0
C25 C 0.91642 0.12623 0.41383 0.0
H26 H 0.81988 0.71886 0.44625 0.0
H27 H 0.92028 0.7299 0.47057 0.0
H28 H 0.89999 0.77603 0.37284 0.0
H29 H 0.94263 0.7307 0.36828 0.0
C30 C 0.95962 0.74731 0.39486 0.0
O31 O 0.94696 0.76798 0.41286 0.0
H32 H 0.95834 0.72546 0.41289 0.0
C33 C 0.84548 0.727 0.43795 0.0
C34 C 0.85699 0.74748 0.40642 0.0
C35 C 0.86812 0.72039 0.46107 0.0
C36 C 0.90212 0.73341 0.45188 0.0
C37 C 0.91335 0.75266 0.41958 0.0
C38 C 0.89067 0.75941 0.39663 0.0
H39 H 0.08284 0.28941 0.55057 0.0
H40 H 0.179 0.28851 0.55885 0.0
H41 H 0.10924 0.24222 0.64404 0.0
H42 H 0.19582 0.2857 0.66523 0.0
C43 C 0.19817 0.27208 0.63834 0.0
O44 O 0.16595 0.25003 0.61774 0.0
H45 H 0.21527 0.29627 0.62266 0.0
C46 C 0.10115 0.28354 0.56586 0.0
C47 C 0.09308 0.2664 0.60001 0.0
C48 C 0.13258 0.29233 0.55114 0.0
C49 C 0.1552 0.28285 0.57046 0.0
C50 C 0.14662 0.26428 0.60336 0.0
C51 C 0.11599 0.25691 0.61868 0.0
H52 H 0.7493 0.79853 0.57493 0.0
H53 H 0.76766 0.9105 0.56252 0.0
H54 H 0.80759 0.88895 0.66572 0.0
H55 H 0.76838 0.93936 0.66721 0.0
C56 C 0.78136 0.95411 0.64267 0.0
O57 O 0.80211 0.94048 0.6299 0.0
H58 H 0.75944 0.94657 0.62046 0.0
C59 C 0.76046 0.8279 0.58633 0.0
C60 C 0.78089 0.84104 0.62211 0.0
C61 C 0.75476 0.85255 0.56491 0.0
C62 C 0.77079 0.89092 0.57922 0.0
C63 C 0.78869 0.90375 0.61592 0.0
C64 C 0.7931 0.87864 0.63763 0.0
H65 H 0.22826 0.94462 0.57848 0.0
H66 H 0.12269 0.85545 0.55073 0.0
H67 H 0.15077 0.92608 0.65538 0.0
H68 H 0.10612 0.84696 0.66283 0.0
C69 C 0.08973 0.83852 0.63498 0.0
O70 O 0.10097 0.86909 0.61395 0.0
H71 H 0.09384 0.81636 0.62065 0.0
C72 C 0.20249 0.92845 0.5874 0.0
C73 C 0.19514 0.93773 0.6237 0.0
C74 C 0.17687 0.89886 0.56128 0.0
C75 C 0.1427 0.87845 0.57057 0.0
C76 C 0.13412 0.88839 0.60514 0.0
C77 C 0.15977 0.9185 0.63074 0.0
H78 H 0.93897 0.41207 0.78508 0.0
H79 H 0.94275 0.51913 0.79073 0.0
H80 H 0.90078 0.44316 0.68684 0.0
H81 H 0.87819 0.51005 0.75404 0.0
C82 C 0.88247 0.50822 0.72346 0.0
O83 O 0.9133 0.50844 0.72032 0.0
H84 H 0.86007 0.4805 0.71092 0.0
C85 C 0.9339 0.43214 0.77156 0.0
C86 C 0.91851 0.42313 0.73363 0.0
C87 C 0.94332 0.46685 0.79214 0.0
C88 C 0.93608 0.4925 0.77486 0.0
C89 C 0.92032 0.48373 0.73699 0.0
C90 C 0.91228 0.44946 0.71623 0.0
H91 H 0.60544 0.55689 0.7895 0.0
H92 H 0.52322 0.44256 0.79727 0.0
H93 H 0.58791 0.46589 0.70652 0.0
H94 H 0.49838 0.42028 0.69336 0.0
C95 C 0.49728 0.40264 0.71625 0.0
O96 O 0.53078 0.41484 0.73236 0.0
H97 H 0.4826 0.40802 0.7377 0.0
C98 C 0.59087 0.52709 0.77888 0.0
C99 C 0.60165 0.51396 0.74761 0.0
C100 C 0.56257 0.50147 0.79757 0.0
C101 C 0.54461 0.46294 0.78314 0.0
C102 C 0.55191 0.45081 0.74879 0.0
C103 C 0.58094 0.47606 0.73161 0.0
H104 H 0.48915 0.06463 0.80051 0.0
H105 H 0.56718 0.03279 0.7899 0.0
H106 H 0.55563 0.10204 0.71083 0.0
H107 H 0.63189 0.0997 0.78478 0.0
C108 C 0.627 0.10689 0.75605 0.0
O109 O 0.59622 0.07749 0.73731 0.0
H110 H 0.62495 0.13261 0.76225 0.0
C111 C 0.51006 0.06506 0.78609 0.0
C112 C 0.51886 0.08307 0.75273 0.0
C113 C 0.52696 0.04625 0.79988 0.0
C114 C 0.55377 0.04714 0.78018 0.0
C115 C 0.5656 0.06946 0.74997 0.0
C116 C 0.54735 0.08622 0.73531 0.0
H117 H 0.75345 0.6249 0.88816 0.0
H118 H 0.84613 0.6173 0.88722 0.0
H119 H 0.77547 0.56376 0.96997 0.0
H120 H 0.86025 0.60747 0.99221 0.0
C121 C 0.86362 0.59458 0.96543 0.0
O122 O 0.83243 0.57432 0.94258 0.0
H123 H 0.88237 0.61922 0.95136 0.0
C124 C 0.77076 0.61618 0.90074 0.0
C125 C 0.76143 0.59434 0.93173 0.0
C126 C 0.80154 0.6249 0.88475 0.0
C127 C 0.82288 0.61179 0.90013 0.0
C128 C 0.81357 0.58993 0.93077 0.0
C129 C 0.78303 0.58149 0.94679 0.0
H130 H 0.42402 0.13897 0.8965 0.0
H131 H 0.42888 0.24658 0.90845 0.0
H132 H 0.47154 0.21412 1.00083 0.0
H133 H 0.45601 0.27899 0.02647 0.0
C134 C 0.45295 0.28508 0.99673 0.0
O135 O 0.46809 0.27053 0.97337 0.0
H136 H 0.42431 0.27015 0.9897 0.0
C137 C 0.43098 0.16511 0.91368 0.0
C138 C 0.44759 0.1725 0.95112 0.0
C139 C 0.42277 0.19098 0.89854 0.0
C140 C 0.43345 0.22558 0.9204 0.0
C141 C 0.45202 0.23445 0.95648 0.0
C142 C 0.45768 0.2073 0.97253 0.0
H143 H 0.88302 0.2624 0.90967 0.0
H144 H 0.77553 0.17869 0.88468 0.0
H145 H 0.81043 0.24474 0.99287 0.0
H146 H 0.75907 0.15444 0.98509 0.0
C147 C 0.74157 0.15637 0.96271 0.0
O148 O 0.75731 0.19213 0.95058 0.0
H149 H 0.73785 0.13522 0.93884 0.0
C150 C 0.85775 0.24698 0.91994 0.0
C151 C 0.85256 0.25603 0.95745 0.0
C152 C 0.83061 0.21885 0.89413 0.0
C153 C 0.79679 0.20012 0.90464 0.0
C154 C 0.79027 0.20943 0.94084 0.0
C155 C 0.81771 0.23752 0.96665 0.0
H156 H 0.60226 0.73744 0.12005 0.0
H157 H 0.58788 0.83321 0.13852 0.0
H158 H 0.55216 0.76513 0.02987 0.0
H159 H 0.58218 0.84712 0.02397 0.0
C160 C 0.57567 0.85529 0.05152 0.0
O161 O 0.55633 0.8236 0.06986 0.0
H162 H 0.60137 0.87437 0.06827 0.0
C163 C 0.59329 0.7557 0.10944 0.0
C164 C 0.57624 0.74712 0.07232 0.0
C165 C 0.59809 0.78696 0.13341 0.0
C166 C 0.58529 0.80969 0.11995 0.0
C167 C 0.5692 0.80211 0.08246 0.0
C168 C 0.56506 0.77114 0.05859 0.0
H169 H 0.26623 0.87756 0.12132 0.0
H170 H 0.18576 0.76466 0.13629 0.0
H171 H 0.24461 0.78336 0.04041 0.0
H172 H 0.15756 0.73692 0.03024 0.0
C173 C 0.15666 0.72118 0.05497 0.0
O174 O 0.19001 0.73363 0.07152 0.0
H175 H 0.14226 0.72862 0.07512 0.0
C176 C 0.25104 0.84754 0.11163 0.0
C177 C 0.25973 0.8332 0.07949 0.0
C178 C 0.22472 0.82299 0.13291 0.0
C179 C 0.20593 0.78409 0.12019 0.0
C180 C 0.21143 0.77031 0.0856 0.0
C181 C 0.2389 0.79465 0.06574 0.0
H182 H 0.15499 0.39658 0.12598 0.0
H183 H 0.25451 0.40536 0.15125 0.0
H184 H 0.2332 0.4455 0.04903 0.0
H185 H 0.26741 0.39639 0.0438 0.0
C186 C 0.2855 0.40863 0.07053 0.0
O187 O 0.27892 0.43498 0.08834 0.0
H188 H 0.28023 0.38581 0.08914 0.0
C189 C 0.18064 0.40425 0.11816 0.0
C190 C 0.19154 0.42195 0.08506 0.0
C191 C 0.20312 0.39821 0.14236 0.0
C192 C 0.23669 0.40942 0.13261 0.0
C193 C 0.24706 0.42533 0.09832 0.0
C194 C 0.22459 0.43186 0.07471 0.0
H195 H 0.43513 0.98019 0.24133 0.0
H196 H 0.52178 0.96371 0.23361 0.0
H197 H 0.46258 0.92653 0.32743 0.0
H198 H 0.54176 0.95799 0.34481 0.0
C199 C 0.54428 0.94698 0.31637 0.0
O200 O 0.51252 0.92816 0.29439 0.0
H201 H 0.56266 0.9729 0.30367 0.0
C202 C 0.45298 0.973 0.25527 0.0
C203 C 0.44804 0.95947 0.29181 0.0
C204 C 0.47989 0.97545 0.23472 0.0
C205 C 0.50158 0.96288 0.24971 0.0
C206 C 0.49499 0.94556 0.28334 0.0
C207 C 0.46815 0.94316 0.30368 0.0
H208 H 0.09108 0.47279 0.23286 0.0
H209 H 0.10546 0.58357 0.22355 0.0
H210 H 0.15256 0.56317 0.32123 0.0
H211 H 0.11736 0.61605 0.32911 0.0
C212 C 0.12804 0.63012 0.30334 0.0
O213 O 0.14591 0.61465 0.28645 0.0
H214 H 0.10458 0.62355 0.28406 0.0
C215 C 0.09931 0.50113 0.245 0.0
C216 C 0.12173 0.51452 0.27936 0.0
C217 C 0.08837 0.52401 0.22712 0.0
C218 C 0.10788 0.56327 0.2396 0.0
C219 C 0.13015 0.57726 0.27375 0.0
C220 C 0.13586 0.55249 0.29447 0.0
H221 H 0.54622 0.6132 0.23055 0.0
H222 H 0.43979 0.52509 0.20006 0.0
H223 H 0.47146 0.58696 0.31187 0.0
H224 H 0.4237 0.49991 0.30349 0.0
C225 C 0.40611 0.49855 0.27894 0.0
O226 O 0.41892 0.53358 0.26576 0.0
H227 H 0.40621 0.47807 0.25685 0.0
C228 C 0.51992 0.5965 0.23808 0.0
C229 C 0.51193 0.60442 0.27411 0.0
C230 C 0.49434 0.56741 0.21152 0.0
C231 C 0.46002 0.54692 0.22068 0.0
C232 C 0.45194 0.55373 0.25698 0.0
C233 C 0.47797 0.58186 0.2839 0.0
Tb234 Tb 0.53501 0.03527 0.01673 0.0
C235 C 0.51673 0.95026 0.02011 0.0
Tb236 Tb 0.45854 0.9729 0.00834 0.0
O237 O 0.53048 0.05198 0.07594 0.0
O238 O 0.49983 0.99718 0.05233 0.0
O239 O 0.54087 0.98531 0.01516 0.0
C240 C 0.39248 0.93299 0.0251 0.0
O241 O 0.48363 0.94006 0.02256 0.0
C242 C 0.48627 0.98492 0.9436 0.0
C243 C 0.47929 0.05905 1.00086 0.0
O244 O 0.40739 0.9204 1.00279 0.0
O245 O 0.41464 0.96799 0.03747 0.0
O246 O 0.45872 0.95356 0.94934 0.0
O247 O 0.49332 1.00908 0.97172 0.0
O248 O 0.4558 0.02545 0.01053 0.0
O249 O 0.51134 0.06692 0.99594 0.0
C250 C 0.6018 0.08196 0.00632 0.0
O251 O 0.58598 0.08689 0.03381 0.0
O252 O 0.58005 0.05102 0.98499 0.0
C253 C 0.50429 0.0192 0.08114 0.0
Tb254 Tb 0.9828 0.49103 0.01339 0.0
C255 C 0.06185 0.55891 0.01892 0.0
Tb256 Tb 0.0403 0.47303 0.00774 0.0
O257 O 0.97696 0.47741 0.07222 0.0
O258 O 0.02478 0.49763 0.0514 0.0
O259 O 0.02831 0.54831 0.01377 0.0
C260 C 0.08747 0.45256 0.02306 0.0
O261 O 0.07262 0.53419 0.02104 0.0
C262 C 0.01316 0.47966 0.94171 0.0
C263 C 0.9625 0.40544 0.00564 0.0
O264 O 0.08325 0.46536 0.99172 0.0
O265 O 0.06513 0.45114 0.04555 0.0
O266 O 0.0445 0.48544 0.94782 0.0
O267 O 0.99793 0.46625 0.97049 0.0
O268 O 0.99598 0.41696 0.0139 0.0
O269 O 0.95173 0.42962 0.99845 0.0
C270 C 0.9394 0.51644 0.99708 0.0
O271 O 0.93605 0.49381 0.02274 0.0
O272 O 0.96686 0.52414 0.98029 0.0
C273 C 1.00825 0.48324 0.0793 0.0
Tb274 Tb 0.49033 0.51355 0.00462 0.0
C275 C 0.50962 0.44834 1.00005 0.0
Tb276 Tb 0.56742 0.53556 0.00617 0.0
O277 O 0.49195 0.53494 0.94862 0.0
O278 O 0.52393 0.51379 0.96458 0.0
O279 O 0.48504 0.45748 1.00212 0.0
C280 C 0.62883 0.55013 0.98624 0.0
O281 O 0.54322 0.47374 0.99981 0.0
C282 C 0.54698 0.5428 0.07272 0.0
C283 C 0.5472 0.59922 0.01267 0.0
O284 O 0.61659 0.53622 0.01756 0.0
O285 O 0.60658 0.55538 0.96634 0.0
O286 O 0.57918 0.56179 0.06555 0.0
O287 O 0.52966 0.51854 0.04461 0.0
O288 O 0.56862 0.58898 0.99891 0.0
O289 O 0.51649 0.57392 0.02257 0.0
C290 C 0.42601 0.48544 0.02453 0.0
O291 O 0.45448 0.50391 0.04759 0.0
O292 O 0.43385 0.4837 0.9899 0.0
C293 C 0.51753 0.53048 0.93926 0.0
Tb294 Tb 0.20343 0.3719 0.34267 0.0
C295 C 0.1782 0.28498 0.34599 0.0
Tb296 Tb 0.12523 0.31676 0.3472 0.0
O297 O 0.21611 0.36748 0.40265 0.0
O298 O 0.16778 0.35957 0.38356 0.0
O299 O 0.20382 0.31879 0.3394 0.0
C300 C 0.06482 0.26937 0.3725 0.0
O301 O 0.14698 0.27924 0.35264 0.0
C302 C 0.14325 0.33252 0.27847 0.0
C303 C 0.14955 0.40137 0.33766 0.0
O304 O 0.07032 0.27233 0.33687 0.0
O305 O 0.0933 0.29314 0.39385 0.0
O306 O 0.11225 0.32227 0.28776 0.0
O307 O 0.16065 0.32939 0.30602 0.0
O308 O 0.12742 0.37137 0.35403 0.0
O309 O 0.17873 0.40455 0.32633 0.0
C310 C 0.26583 0.41962 0.32189 0.0
O311 O 0.25191 0.42678 0.35008 0.0
O312 O 0.24428 0.38594 0.305 0.0
C313 C 0.18496 0.35682 0.41148 0.0
Tb314 Tb 0.65557 0.83218 0.35205 0.0
C315 C 0.7359 0.89301 0.35798 0.0
Tb316 Tb 0.70708 0.80465 0.34483 0.0
O317 O 0.64378 0.80942 0.40742 0.0
O318 O 0.6927 0.82876 0.39007 0.0
O319 O 0.70357 0.88662 0.35341 0.0
C320 C 0.75659 0.78684 0.35347 0.0
O321 O 0.74338 0.86544 0.35807 0.0
C322 C 0.67278 0.80149 0.27991 0.0
C323 C 0.62776 0.74541 0.34275 0.0
O324 O 0.75598 0.8095 0.32977 0.0
O325 O 0.72985 0.7748 0.37253 0.0
O326 O 0.68568 0.77986 0.28565 0.0
O327 O 0.68308 0.82602 0.30836 0.0
O328 O 0.65946 0.75356 0.35584 0.0
O329 O 0.62139 0.77235 0.3335 0.0
C330 C 0.61566 0.86261 0.3396 0.0
O331 O 0.61868 0.83973 0.31515 0.0
O332 O 0.63474 0.86802 0.37127 0.0
C333 C 0.6742 0.81329 0.4163 0.0
Tb334 Tb 0.16904 0.85767 0.3447 0.0
C335 C 0.18969 0.79295 0.3389 0.0
Tb336 Tb 0.24519 0.8802 0.34916 0.0
O337 O 0.16836 0.87168 0.28594 0.0
O338 O 0.20209 0.85419 0.30618 0.0
O339 O 0.16522 0.80187 0.34365 0.0
C340 C 0.31252 0.90889 0.33859 0.0
O341 O 0.22291 0.81891 0.33765 0.0
C342 C 0.21838 0.87138 0.41537 0.0
C343 C 0.22426 0.9437 0.35116 0.0
O344 O 0.28653 0.89189 0.31214 0.0
O345 O 0.30065 0.90967 0.37098 0.0
O346 O 0.24343 0.86519 0.40824 0.0
O347 O 0.21193 0.88457 0.38683 0.0
O348 O 0.24622 0.9334 0.33913 0.0
O349 O 0.19383 0.9183 0.36167 0.0
C350 C 0.10369 0.82922 0.36177 0.0
O351 O 0.11749 0.85185 0.33577 0.0
O352 O 0.1269 0.8231 0.37843 0.0
C353 C 0.19428 0.86726 0.27827 0.0
Tb354 Tb 0.8791 0.71409 0.68232 0.0
C355 C 0.85915 0.62722 0.67568 0.0
Tb356 Tb 0.80151 0.65055 0.67415 0.0
O357 O 0.87948 0.72654 0.74455 0.0
O358 O 0.84451 0.67473 0.71596 0.0
O359 O 0.88199 0.6625 0.6697 0.0
C360 C 0.73674 0.60507 0.69227 0.0
O361 O 0.82627 0.61637 0.68073 0.0
C362 C 0.83049 0.66808 0.6094 0.0
C363 C 0.82102 0.73611 0.67773 0.0
O364 O 0.76488 0.60673 0.70698 0.0
O365 O 0.74502 0.6283 0.66625 0.0
O366 O 0.80304 0.63563 0.61348 0.0
O367 O 0.83635 0.68959 0.63935 0.0
O368 O 0.80019 0.70279 0.68993 0.0
O369 O 0.85215 0.74468 0.66796 0.0
C370 C 0.94561 0.75757 0.66832 0.0
O371 O 0.92772 0.76936 0.68643 0.0
O372 O 0.92605 0.72148 0.65839 0.0
C373 C 0.85137 0.69449 0.74714 0.0
Tb374 Tb 0.32315 0.17357 0.68245 0.0
C375 C 0.40337 0.2396 0.68137 0.0
Tb376 Tb 0.37965 0.15345 0.67645 0.0
O377 O 0.31879 0.16193 0.74211 0.0
O378 O 0.36576 0.18075 0.71901 0.0
O379 O 0.36998 0.22997 0.68083 0.0
C380 C 0.42536 0.13192 0.69565 0.0
O381 O 0.41341 0.21423 0.68062 0.0
C382 C 0.35085 0.15788 0.61065 0.0
C383 C 0.30219 0.08759 0.67738 0.0
O384 O 0.41506 0.13353 0.66094 0.0
O385 O 0.40992 0.14232 0.71931 0.0
O386 O 0.38218 0.16329 0.61576 0.0
O387 O 0.33651 0.14616 0.64032 0.0
O388 O 0.33541 0.09926 0.6873 0.0
O389 O 0.29187 0.11178 0.66832 0.0
C390 C 0.27937 0.19889 0.66743 0.0
O391 O 0.27699 0.17694 0.69348 0.0
O392 O 0.30617 0.20606 0.64948 0.0
C393 C 0.35022 0.1679 0.74788 0.0
Tb394 Tb 0.82304 0.18439 0.67706 0.0
C395 C 0.84015 0.11708 0.67476 0.0
Tb396 Tb 0.89899 0.20317 0.68128 0.0
O397 O 0.82421 0.19915 0.61809 0.0
O398 O 0.85562 0.17917 0.63952 0.0
O399 O 0.81647 0.12755 0.67679 0.0
C400 C 0.96183 0.22306 0.66008 0.0
O401 O 0.87391 0.14153 0.67483 0.0
C402 C 0.87309 0.19607 0.74732 0.0
C403 C 0.88096 0.26946 0.68308 0.0
O404 O 0.95614 0.23526 0.69217 0.0
O405 O 0.9323 0.19947 0.64062 0.0
O406 O 0.89866 0.19038 0.74098 0.0
O407 O 0.8666 0.20903 0.71855 0.0
O408 O 0.90234 0.25772 0.67218 0.0
O409 O 0.84943 0.24531 0.69213 0.0
C410 C 0.75878 0.15929 0.69562 0.0
O411 O 0.76982 0.17284 0.66378 0.0
O412 O 0.78393 0.16007 0.71693 0.0
C413 C 0.84957 0.19328 0.61147 0.0
C414 C 0.32461 0.87258 0.08817 0.0
C415 C 0.29324 0.85782 0.0638 0.0
C416 C 0.32714 0.89103 0.01231 0.0
C417 C 0.35776 0.90952 0.03862 0.0
N418 N 0.38236 0.92567 0.10492 0.0
N419 N 0.26389 0.85723 1.00385 0.0
C420 C 0.35553 0.90288 0.07759 0.0
C421 C 0.29422 0.8681 0.02603 0.0
N422 N 0.32533 0.85651 0.12072 0.0
N423 N 0.32939 0.89571 0.97442 0.0
H424 H 0.2395 0.84085 0.0132 0.0
H425 H 0.26294 0.86697 0.9775 0.0
H426 H 0.35261 0.91418 0.96378 0.0
H427 H 0.30865 0.87976 0.95337 0.0
H428 H 0.34831 0.86431 0.13776 0.0
H429 H 0.30369 0.83228 0.12795 0.0
H430 H 0.3805 0.92318 0.13401 0.0
H431 H 0.40457 0.95001 0.09931 0.0
C432 C 0.14462 0.40869 0.03303 0.0
C433 C 0.16906 0.43326 0.06394 0.0
C434 C 0.14215 0.4727 0.06515 0.0
C435 C 0.11723 0.4477 0.03469 0.0
N436 N 0.09804 0.39657 0.9846 0.0
N437 N 0.19626 0.49243 0.10438 0.0
C438 C 0.1197 0.4173 0.01681 0.0
C439 C 0.16943 0.46654 0.07837 0.0
N440 N 0.14436 0.37631 0.02046 0.0
N441 N 0.1394 0.50202 0.08177 0.0
H442 H 0.21656 0.48863 0.11481 0.0
H443 H 0.20011 0.519 0.1135 0.0
H444 H 0.1218 0.50966 0.07083 0.0
H445 H 0.15358 0.51807 0.10728 0.0
H446 H 0.12488 0.35484 1.00112 0.0
H447 H 0.16302 0.36996 0.0309 0.0
H448 H 0.10062 0.37644 0.96797 0.0
H449 H 0.07867 0.40124 0.97287 0.0
C450 C 0.53527 0.68227 0.03685 0.0
C451 C 0.56965 0.71213 0.04887 0.0
C452 C 0.59199 0.67002 0.03155 0.0
C453 C 0.55733 0.64021 0.01855 0.0
N454 N 0.49987 0.62561 0.99348 0.0
N455 N 0.63087 0.73795 0.04462 0.0
C456 C 0.53025 0.6489 0.01612 0.0
C457 C 0.59805 0.70716 0.04165 0.0
N458 N 0.50723 0.6844 0.04699 0.0
N459 N 0.61885 0.66322 0.03729 0.0
H460 H 0.63597 0.76553 0.05146 0.0
H461 H 0.65215 0.73645 0.03621 0.0
H462 H 0.61677 0.63694 0.03222 0.0
H463 H 0.64317 0.68353 0.05101 0.0
H464 H 0.48186 0.66148 0.0418 0.0
H465 H 0.50938 0.70742 0.06381 0.0
H466 H 0.48034 0.63227 0.98884 0.0
H467 H 0.49631 0.60242 0.97563 0.0
C468 C 0.91769 0.29908 0.97488 0.0
C469 C 0.88355 0.28749 0.98356 0.0
C470 C 0.9056 0.34969 0.01939 0.0
C471 C 0.93664 0.36402 1.00102 0.0
N472 N 0.97136 0.35075 0.95908 0.0
N473 N 0.85797 0.29334 0.03943 0.0
C474 C 0.94298 0.33819 0.97896 0.0
C475 C 0.88031 0.31028 0.01296 0.0
N476 N 0.92614 0.27234 0.96444 0.0
N477 N 0.90043 0.37331 0.04355 0.0
H478 H 0.84678 0.26432 0.04135 0.0
H479 H 0.85588 0.30812 0.06322 0.0
H480 H 0.91968 0.40122 0.05261 0.0
H481 H 0.8765 0.36528 0.0536 0.0
H482 H 0.9515 0.2789 0.96096 0.0
H483 H 0.90807 0.24344 0.96358 0.0
H484 H 0.9747 0.33278 0.93983 0.0
H485 H 0.98966 0.37921 0.95837 0.0
C486 C 0.69676 0.55153 0.92646 0.0
C487 C 0.72756 0.58226 0.94665 0.0
C488 C 0.69362 0.59098 0.99403 0.0
C489 C 0.66307 0.55944 0.9746 0.0
N490 N 0.63525 0.50596 0.92634 0.0
N491 N 0.75669 0.62833 1.00179 0.0
C492 C 0.66455 0.53868 0.94187 0.0
C493 C 0.7264 0.60103 0.9812 0.0
N494 N 0.69833 0.53494 0.89237 0.0
N495 N 0.69106 0.61247 0.02348 0.0
H496 H 0.78108 0.63797 0.99227 0.0
H497 H 0.758 0.63991 0.02935 0.0
H498 H 0.66756 0.60573 0.03402 0.0
H499 H 0.71171 0.63837 0.03595 0.0
H500 H 0.67653 0.51562 0.87397 0.0
H501 H 0.72162 0.54197 0.88117 0.0
H502 H 0.63499 0.48733 0.90475 0.0
H503 H 0.61125 0.49569 0.93706 0.0
C504 C 0.48918 0.15402 0.98206 0.0
C505 C 0.45498 0.14391 0.96721 0.0
C506 C 0.43625 0.07719 0.97259 0.0
C507 C 0.46933 0.08783 0.99192 0.0
N508 N 0.52291 0.13883 0.02598 0.0
N509 N 0.39386 0.09657 0.96081 0.0
C510 C 0.49446 0.12703 1.00012 0.0
C511 C 0.4278 0.10571 0.9665 0.0
N512 N 0.517 0.18843 0.97731 0.0
N513 N 0.41364 0.04066 0.95754 0.0
H514 H 0.38665 0.11703 0.95872 0.0
H515 H 0.3732 0.06942 0.96294 0.0
H516 H 0.41954 0.01914 0.95755 0.0
H517 H 0.39062 0.0329 0.94059 0.0
H518 H 0.54261 0.19542 0.98499 0.0
H519 H 0.51484 0.20813 0.96182 0.0
H520 H 0.54049 0.1674 0.0347 0.0
H521 H 0.5264 0.12033 0.04219 0.0
C522 C 0.67715 0.13541 0.94865 0.0
C523 C 0.70614 0.14568 0.97586 0.0
C524 C 0.66688 0.11994 0.02554 0.0
C525 C 0.63793 0.10841 0.99802 0.0
N526 N 0.61674 0.11873 0.93826 0.0
N527 N 0.72871 0.16263 0.04249 0.0
C528 C 0.64344 0.12032 0.961 0.0
C529 C 0.7011 0.14277 0.01514 0.0
N530 N 0.68147 0.13898 0.91086 0.0
N531 N 0.66198 0.10777 0.06097 0.0
H532 H 0.75355 0.18199 0.03595 0.0
H533 H 0.72604 0.1637 0.07158 0.0
H534 H 0.63743 0.09105 0.06977 0.0
H535 H 0.68234 0.11189 0.08056 0.0
H536 H 0.6607 0.12739 0.8894 0.0
H537 H 0.70576 0.15191 0.90064 0.0
H538 H 0.62011 0.1309 0.91267 0.0
H539 H 0.59195 0.10866 0.94687 0.0
C540 C 0.87935 0.55669 0.00876 0.0
C541 C 0.87863 0.56907 0.97226 0.0
C542 C 0.90849 0.53605 0.95005 0.0
C543 C 0.91628 0.53197 0.98848 0.0
N544 N 0.91337 0.54495 0.05572 0.0
N545 N 0.89266 0.56991 0.90701 0.0
C546 C 0.90267 0.54375 0.01827 0.0
C547 C 0.89316 0.55847 0.94247 0.0
N548 N 0.8572 0.55613 0.03403 0.0
N549 N 0.91414 0.51707 0.92071 0.0
H550 H 0.87967 0.58402 0.89907 0.0
H551 H 0.90683 0.56716 0.88597 0.0
H552 H 0.92318 0.49841 0.92502 0.0
H553 H 0.90599 0.51625 0.89218 0.0
H554 H 0.85522 0.54459 0.05989 0.0
H555 H 0.83758 0.56215 0.027 0.0
H556 H 0.90638 0.55681 0.078 0.0
H557 H 0.93221 0.53835 0.06453 0.0
C558 C 0.45658 0.34271 0.96709 0.0
C559 C 0.47004 0.3278 0.99448 0.0
C560 C 0.51157 0.39253 0.02385 0.0
C561 C 0.49827 0.40732 0.99655 0.0
N562 N 0.46545 0.39761 0.93597 0.0
N563 N 0.51892 0.34006 0.03896 0.0
C564 C 0.47287 0.3827 0.96634 0.0
C565 C 0.50025 0.35319 0.01974 0.0
N566 N 0.42808 0.31899 0.94191 0.0
N567 N 0.53386 0.41556 0.05476 0.0
H568 H 0.51278 0.31187 0.03545 0.0
H569 H 0.54287 0.3579 0.0549 0.0
H570 H 0.54289 0.44452 0.05905 0.0
H571 H 0.54103 0.40531 0.07781 0.0
H572 H 0.41423 0.32831 0.92547 0.0
H573 H 0.41704 0.28973 0.93834 0.0
H574 H 0.45006 0.38136 0.91103 0.0
H575 H 0.47761 0.42668 0.93392 0.0
C576 C 0.12632 0.65409 0.07499 0.0
C577 C 0.13658 0.67827 0.04527 0.0
C578 C 0.09658 0.62435 0.99877 0.0
C579 C 0.08793 0.59982 0.02787 0.0
N580 N 0.10086 0.5901 0.09235 0.0
N581 N 0.14114 0.68224 0.9776 0.0
C582 C 0.10494 0.61425 0.06552 0.0
C583 C 0.12472 0.66219 0.0067 0.0
N584 N 0.13592 0.66905 0.1124 0.0
N585 N 0.07776 0.61186 0.96368 0.0
H586 H 0.16409 0.70844 0.98224 0.0
H587 H 0.13487 0.67055 0.94917 0.0
H588 H 0.05646 0.58459 0.95712 0.0
H589 H 0.08115 0.62974 0.94257 0.0
H590 H 0.1253 0.6533 0.13502 0.0
H591 H 0.15283 0.6977 0.12107 0.0
H592 H 0.11574 0.59878 0.11882 0.0
H593 H 0.08458 0.56086 0.08729 0.0
C594 C 0.35019 0.45953 0.08315 0.0
C595 C 0.32312 0.42636 0.06123 0.0
C596 C 0.36642 0.42723 0.02089 0.0
C597 C 0.39053 0.46501 0.03688 0.0
N598 N 0.40287 0.51909 0.08076 0.0
N599 N 0.30675 0.37564 0.01094 0.0
C600 C 0.38177 0.48174 0.06738 0.0
C601 C 0.33159 0.40936 0.03047 0.0
N602 N 0.34682 0.46867 0.11985 0.0
N603 N 0.3773 0.40715 0.99912 0.0
H604 H 0.28258 0.35832 0.02029 0.0
H605 H 0.30998 0.3652 0.98479 0.0
H606 H 0.40309 0.41768 0.99401 0.0
H607 H 0.3617 0.37838 0.98991 0.0
H608 H 0.36706 0.4912 0.13769 0.0
H609 H 0.32591 0.45054 0.13403 0.0
H610 H 0.3958 0.53294 0.10095 0.0
H611 H 0.4254 0.53719 0.06882 0.0
C612 C 0.55898 0.90367 0.07454 0.0
C613 C 0.55582 0.87618 0.0455 0.0
C614 C 0.52193 0.89328 1.00195 0.0
C615 C 0.52831 0.92332 0.02949 0.0
N616 N 0.55247 0.95786 0.09196 0.0
N617 N 0.52301 0.83519 0.98806 0.0
C618 C 0.54645 0.9285 0.06593 0.0
C619 C 0.5339 0.86806 0.01104 0.0
N620 N 0.57223 0.9046 0.11087 0.0
N621 N 0.50587 0.88997 0.96647 0.0
H622 H 0.52937 0.81488 0.99499 0.0
H623 H 0.50455 0.82586 0.96437 0.0
H624 H 0.49616 0.90746 0.95911 0.0
H625 H 0.50423 0.87175 0.94351 0.0
H626 H 0.57231 0.92132 0.1343 0.0
H627 H 0.58011 0.88573 0.11871 0.0
H628 H 0.56929 0.96653 0.11699 0.0
H629 H 0.54193 0.97517 0.08774 0.0
C630 C 0.96775 0.21195 0.38224 0.0
C631 C 0.96768 0.19135 0.41304 0.0
C632 C 0.03092 0.21953 0.41521 0.0
C633 C 0.03141 0.24266 0.38661 0.0
N634 N 1.00119 0.26641 0.34839 0.0
N635 N 0.99929 0.17966 0.46318 0.0
C636 C 1.00004 0.24028 0.37143 0.0
C637 C 0.99933 0.19645 0.43088 0.0
N638 N 0.93694 0.20415 0.3631 0.0
N639 N 0.06011 0.21798 0.42599 0.0
H640 H 0.97658 0.16136 0.47477 0.0
H641 H 0.0219 0.18613 0.48016 0.0
H642 H 0.08354 0.23333 0.4144 0.0
H643 H 0.0603 0.19871 0.44374 0.0
H644 H 0.93528 0.21512 0.33773 0.0
H645 H 0.9128 0.18433 0.37094 0.0
H646 H 0.97955 0.26848 0.33968 0.0
H647 H 0.02433 0.28859 0.34098 0.0
C648 C 0.80991 0.73847 0.35675 0.0
C649 C 0.83528 0.76112 0.38776 0.0
C650 C 0.81132 0.80328 0.3932 0.0
C651 C 0.78583 0.7805 0.36236 0.0
N652 N 0.7641 0.7313 0.30993 0.0
N653 N 0.86529 0.81911 0.43032 0.0
C654 C 0.78627 0.74967 0.34246 0.0
C655 C 0.83767 0.79494 0.40424 0.0
N656 N 0.80771 0.7056 0.34204 0.0
N657 N 0.80952 0.83202 0.41278 0.0
H658 H 0.88488 0.81369 0.43946 0.0
H659 H 0.87049 0.84597 0.44062 0.0
H660 H 0.7915 0.84005 0.4045 0.0
H661 H 0.82446 0.84659 0.43849 0.0
H662 H 0.78748 0.68549 0.32238 0.0
H663 H 0.82551 0.69748 0.35099 0.0
H664 H 0.76502 0.71074 0.29204 0.0
H665 H 0.74625 0.7387 0.29918 0.0
C666 C 0.27537 0.05177 0.37765 0.0
C667 C 0.24727 0.05826 0.38122 0.0
C668 C 0.20772 0.99382 0.35083 0.0
C669 C 0.23429 0.98458 0.35646 0.0
N670 N 0.29403 1.00615 0.38185 0.0
N671 N 0.18478 0.03169 0.37636 0.0
C672 C 0.26854 0.01396 0.3711 0.0
C673 C 0.21285 0.02843 0.36883 0.0
N674 N 0.30864 0.08172 0.38096 0.0
N675 N 0.17769 0.96981 0.32793 0.0
H676 H 0.18681 0.05543 0.39154 0.0
H677 H 0.1593 1.00902 0.37094 0.0
H678 H 0.17391 0.94532 0.31234 0.0
H679 H 0.15869 0.97675 0.32084 0.0
H680 H 0.32984 0.07872 0.3754 0.0
H681 H 0.31434 0.10977 0.38506 0.0
H682 H 0.31804 0.02661 0.39612 0.0
H683 H 0.2905 0.97908 0.38082 0.0
C684 C 0.57208 0.63877 0.30906 0.0
C685 C 0.53971 0.63679 0.30071 0.0
C686 C 0.56401 0.69881 0.33727 0.0
C687 C 0.59822 0.70524 0.33556 0.0
N688 N 0.63419 0.67945 0.31496 0.0
N689 N 0.50662 0.66894 0.30332 0.0
C690 C 0.60232 0.67455 0.32092 0.0
C691 C 0.53585 0.66765 0.31429 0.0
N692 N 0.57402 0.60655 0.30516 0.0
N693 N 0.55838 0.72244 0.36083 0.0
H694 H 0.48604 0.64809 0.28449 0.0
H695 H 0.50454 0.69283 0.30993 0.0
H696 H 0.57824 0.74417 0.3798 0.0
H697 H 0.5335 0.71733 0.36478 0.0
H698 H 0.59648 0.606 0.31395 0.0
H699 H 0.5521 0.57986 0.29721 0.0
H700 H 0.63711 0.65853 0.30027 0.0
H701 H 0.65756 0.70483 0.32085 0.0
C702 C 0.39955 0.97474 0.30231 0.0
C703 C 0.41876 0.95734 0.31388 0.0
C704 C 0.37223 0.91733 0.35156 0.0
C705 C 0.34988 0.92771 0.33237 0.0
N706 N 0.34371 0.97135 0.29428 0.0
N707 N 0.43208 0.94026 0.37405 0.0
C708 C 0.36399 0.95807 0.30922 0.0
C709 C 0.40796 0.93635 0.34576 0.0
N710 N 0.41669 0.00993 0.29021 0.0
N711 N 0.35955 0.88885 0.37464 0.0
H712 H 0.45835 0.96061 0.3743 0.0
H713 H 0.42546 0.92802 0.3995 0.0
H714 H 0.33351 0.87398 0.37973 0.0
H715 H 0.37468 0.87835 0.38627 0.0
H716 H 0.40507 0.02593 0.2845 0.0
H717 H 0.44375 0.02492 0.29074 0.0
H718 H 0.35115 0.9899 0.2733 0.0
H719 H 0.31893 0.96284 0.3021 0.0
C720 C 0.10099 0.45373 0.30972 0.0
C721 C 0.12908 0.48779 0.29972 0.0
C722 C 0.16922 0.46939 0.32805 0.0
C723 C 0.14126 0.43181 0.32941 0.0
N724 N 0.07897 0.3874 0.314 0.0
N725 N 0.19072 0.52493 0.29418 0.0
C726 C 0.10657 0.42368 0.31873 0.0
C727 C 0.1635 0.49493 0.3076 0.0
N728 N 0.06892 0.45001 0.31086 0.0
N729 N 0.20106 0.48128 0.34731 0.0
H730 H 0.18768 0.54345 0.27761 0.0
H731 H 0.21576 0.52892 0.29627 0.0
H732 H 0.20549 0.46462 0.36543 0.0
H733 H 0.22148 0.50925 0.34925 0.0
H734 H 0.04838 0.42704 0.32135 0.0
H735 H 0.06409 0.4718 0.30551 0.0
H736 H 0.0542 0.38066 0.30255 0.0
H737 H 0.08088 0.36342 0.31662 0.0
C738 C 0.36383 0.48745 0.32828 0.0
C739 C 0.3694 0.48435 0.28947 0.0
C740 C 0.30612 0.44929 0.27209 0.0
C741 C 0.30125 0.44489 0.3112 0.0
N742 N 0.32676 0.45654 0.37681 0.0
N743 N 0.34548 0.46494 0.22327 0.0
C744 C 0.33035 0.46348 0.33951 0.0
C745 C 0.3404 0.46628 0.26095 0.0
N746 N 0.39023 0.51376 0.3543 0.0
N747 N 0.27813 0.43877 0.24585 0.0
H748 H 0.36979 0.48025 0.21342 0.0
H749 H 0.32561 0.44739 0.20191 0.0
H750 H 0.25286 0.42775 0.25324 0.0
H751 H 0.28031 0.44468 0.21757 0.0
H752 H 0.38659 0.51916 0.38237 0.0
H753 H 0.41449 0.53345 0.34664 0.0
H754 H 0.34795 0.4665 0.39753 0.0
H755 H 0.30322 0.43775 0.38649 0.0
C756 C 0.58085 0.91986 0.29264 0.0
C757 C 0.55892 0.92061 0.31972 0.0
C758 C 0.56849 0.87607 0.35505 0.0
C759 C 0.59508 0.88123 0.33191 0.0
N760 N 0.62936 0.91127 0.28092 0.0
N761 N 0.5276 0.89506 0.37392 0.0
C762 C 0.60181 0.90368 0.30107 0.0
C763 C 0.55134 0.89723 0.35006 0.0
N764 N 0.58081 0.93343 0.25825 0.0
N765 N 0.55858 0.84961 0.38052 0.0
H766 H 0.51089 0.90542 0.3682 0.0
H767 H 0.52458 0.88339 0.39972 0.0
H768 H 0.57018 0.83322 0.38439 0.0
H769 H 0.53719 0.84153 0.39575 0.0
H770 H 0.59371 0.9302 0.23602 0.0
H771 H 0.5646 0.94382 0.25012 0.0
H772 H 0.6378 0.93098 0.26107 0.0
H773 H 0.6459 0.90066 0.28643 0.0
C774 C 0.15739 0.69696 0.28192 0.0
C775 C 0.15077 0.67319 0.31184 0.0
C776 C 0.17101 0.7282 0.35923 0.0
C777 C 0.17832 0.75218 0.32972 0.0
N778 N 0.18514 0.76088 0.2632 0.0
N779 N 0.16508 0.66966 0.37797 0.0
C780 C 0.17383 0.73703 0.2911 0.0
C781 C 0.16199 0.6899 0.35023 0.0
N782 N 0.14703 0.68122 0.24479 0.0
N783 N 0.17143 0.74151 0.39574 0.0
H784 H 0.16158 0.64268 0.37189 0.0
H785 H 0.1756 0.68154 0.40594 0.0
H786 H 0.17662 0.76897 0.40292 0.0
H787 H 0.16312 0.72423 0.41778 0.0
H788 H 0.14669 0.69621 0.22218 0.0
H789 H 0.13724 0.65256 0.23654 0.0
H790 H 0.18598 0.75216 0.23515 0.0
H791 H 0.19626 0.79013 0.26864 0.0
C792 C 0.82099 0.98569 0.3554 0.0
C793 C 0.81697 0.00998 0.38247 0.0
C794 C 0.76442 0.95475 0.39971 0.0
C795 C 0.76469 0.93272 0.36723 0.0
N796 N 0.79187 0.92812 0.31178 0.0
N797 N 0.78525 0.01708 0.4324 0.0
C798 C 0.79275 0.9483 0.34456 0.0
C799 C 0.78889 0.9943 0.40541 0.0
N800 N 0.8521 0.99782 0.34096 0.0
N801 N 0.74185 0.93752 0.42613 0.0
H802 H 0.804 0.04536 0.44027 0.0
H803 H 0.76281 1.0083 0.44597 0.0
H804 H 0.72436 0.90842 0.42361 0.0
H805 H 0.74283 0.95123 0.45241 0.0
H806 H 0.85724 0.98012 0.32357 0.0
H807 H 0.87412 0.02405 0.35016 0.0
H808 H 0.80988 0.93978 0.2921 0.0
H809 H 0.77142 0.90084 0.30249 0.0
C810 C 1.00489 0.78378 0.35016 0.0
C811 C 0.99709 0.7737 0.38749 0.0
C812 C 0.05969 0.80991 0.40932 0.0
C813 C 0.06706 0.81217 0.37067 0.0
N814 N 0.04527 0.79513 0.30354 0.0
N815 N 0.01752 0.77909 0.45398 0.0
C816 C 0.03935 0.79776 0.34081 0.0
C817 C 0.02466 0.78746 0.41757 0.0
N818 N 0.97977 0.78111 0.32385 0.0
N819 N 0.08587 0.83071 0.4381 0.0
H820 H 0.99243 0.7659 0.46219 0.0
H821 H 0.03649 0.78385 0.47585 0.0
H822 H 0.1115 0.84911 0.43318 0.0
H823 H 0.08165 0.83305 0.46657 0.0
H824 H 0.98508 0.79103 0.29719 0.0
H825 H 0.9549 0.77388 0.33044 0.0
H826 H 0.0252 0.78137 0.28134 0.0
H827 H 0.06961 0.80265 0.29506 0.0
C828 C 0.19459 0.21468 0.39326 0.0
C829 C 0.22182 0.21606 0.37327 0.0
C830 C 0.21167 0.25246 0.32669 0.0
C831 C 0.18637 0.25355 0.34853 0.0
N832 N 0.14086 0.21557 0.3873 0.0
N833 N 0.24319 0.22018 0.31157 0.0
C834 C 0.17349 0.22821 0.37693 0.0
C835 C 0.22639 0.22995 0.33695 0.0
N836 N 0.18916 0.20139 0.42821 0.0
N837 N 0.22126 0.27234 0.29575 0.0
H838 H 0.25096 0.20056 0.31654 0.0
H839 H 0.24511 0.2273 0.28366 0.0
H840 H 0.20781 0.28471 0.28422 0.0
H841 H 0.24287 0.27702 0.28209 0.0
H842 H 0.17158 0.20303 0.44512 0.0
H843 H 0.20375 0.19119 0.44171 0.0
H844 H 0.12979 0.19478 0.40581 0.0
H845 H 0.12282 0.22062 0.37283 0.0
C846 C 0.66718 0.55228 0.75787 0.0
C847 C 0.63597 0.53891 0.7334 0.0
C848 C 0.67071 0.56601 0.68041 0.0
C849 C 0.70174 0.58326 0.70616 0.0
N850 N 0.72713 0.60183 0.77217 0.0
N851 N 0.60823 0.53996 0.67302 0.0
C852 C 0.69934 0.57908 0.74573 0.0
C853 C 0.63779 0.54796 0.69514 0.0
N854 N 0.66656 0.53819 0.79206 0.0
N855 N 0.67236 0.56487 0.64189 0.0
H856 H 0.58383 0.52731 0.68307 0.0
H857 H 0.60848 0.54925 0.64617 0.0
H858 H 0.69566 0.57575 0.62965 0.0
H859 H 0.65047 0.54944 0.62206 0.0
H860 H 0.68914 0.54465 0.80914 0.0
H861 H 0.64388 0.51675 0.80114 0.0
H862 H 0.72551 0.60156 0.8015 0.0
H863 H 0.7503 0.62429 0.76524 0.0
C864 C 0.50493 0.13467 0.74546 0.0
C865 C 0.49687 0.09697 0.73522 0.0
C866 C 0.44475 0.08403 0.69431 0.0
C867 C 0.45116 0.12074 0.7071 0.0
N868 N 0.48666 0.18136 0.74466 0.0
N869 N 0.45899 0.03471 0.70205 0.0
C870 C 0.48112 0.1462 0.73261 0.0
C871 C 0.46692 0.07147 0.7099 0.0
N872 N 0.53571 0.15954 0.76689 0.0
N873 N 0.41726 0.06101 0.66758 0.0
H874 H 0.47528 0.02483 0.71158 0.0
H875 H 0.43549 0.01324 0.68786 0.0
H876 H 0.39863 0.06756 0.65774 0.0
H877 H 0.41363 0.03605 0.65345 0.0
H878 H 0.54512 0.18843 0.77244 0.0
H879 H 0.5533 0.15169 0.77738 0.0
H880 H 0.50512 0.19945 0.76692 0.0
H881 H 0.47196 0.19237 0.7331 0.0
C882 C 0.9366 0.37694 0.71114 0.0
C883 C 0.90999 0.38611 0.71281 0.0
C884 C 0.86838 0.32267 0.68146 0.0
C885 C 0.89302 0.31087 0.68873 0.0
N886 N 0.9507 0.32799 0.71774 0.0
N887 N 0.8485 0.36472 0.70374 0.0
C888 C 0.92742 0.33834 0.70502 0.0
C889 C 0.87528 0.35832 0.69876 0.0
N890 N 0.9707 0.4051 0.71582 0.0
N891 N 0.83867 0.30023 0.65747 0.0
H892 H 0.85195 0.38972 0.71764 0.0
H893 H 0.82248 0.34363 0.69728 0.0
H894 H 0.8338 0.2751 0.64229 0.0
H895 H 0.8212 0.30897 0.64912 0.0
H896 H 0.99101 0.40007 0.71165 0.0
H897 H 0.97823 0.43375 0.71958 0.0
H898 H 0.97465 0.34716 0.73302 0.0
H899 H 0.94513 0.30016 0.71747 0.0
C900 C 0.2594 0.98147 0.64565 0.0
C901 C 0.22451 0.96963 0.65107 0.0
C902 C 0.24414 0.03121 0.68701 0.0
C903 C 0.27669 0.04604 0.6717 0.0
N904 N 0.31483 0.03341 0.63464 0.0
N905 N 0.19533 0.97425 0.70419 0.0
C906 C 0.28468 0.02058 0.65139 0.0
C907 C 0.21926 0.99179 0.67935 0.0
N908 N 0.26854 0.95491 0.63709 0.0
N909 N 0.23715 0.05433 0.70959 0.0
H910 H 0.1843 0.94524 0.70609 0.0
H911 H 0.19171 0.98864 0.72717 0.0
H912 H 0.25581 0.08222 0.71963 0.0
H913 H 0.21234 0.04587 0.71729 0.0
H914 H 0.29426 0.96154 0.63627 0.0
H915 H 0.2504 0.92596 0.63534 0.0
H916 H 0.31943 0.01577 0.6164 0.0
H917 H 0.33374 0.0618 0.63522 0.0
C918 C 0.05461 0.2839 0.63459 0.0
C919 C 0.05939 0.25581 0.61508 0.0
C920 C 1.00253 0.20636 0.63023 0.0
C921 C 0.99621 0.23464 0.64646 0.0
N922 N 0.01349 0.30086 0.65686 0.0
N923 N 0.03524 0.19122 0.58748 0.0
C924 C 0.02154 0.27363 0.64687 0.0
C925 C 0.03253 0.21728 0.61086 0.0
N926 N 0.08183 0.32027 0.64204 0.0
N927 N 0.9807 0.16909 0.63474 0.0
H928 H 0.05679 0.19815 0.57267 0.0
H929 H 0.01479 0.16358 0.57997 0.0
H930 H 0.95923 0.15995 0.65015 0.0
H931 H 0.98593 0.14771 0.62675 0.0
H932 H 0.08102 0.341 0.65982 0.0
H933 H 0.10625 0.32899 0.63295 0.0
H934 H 0.02965 0.32942 0.65373 0.0
H935 H 0.98927 0.29471 0.66477 0.0
C936 C 0.76411 0.77811 0.64701 0.0
C937 C 0.79029 0.81557 0.64224 0.0
C938 C 0.83318 0.8027 0.67407 0.0
C939 C 0.80854 0.76326 0.67019 0.0
N940 N 0.75077 0.71337 0.64303 0.0
N941 N 0.85218 0.86022 0.64433 0.0
C942 C 0.77383 0.75075 0.6544 0.0
C943 C 0.82557 0.82721 0.65415 0.0
N944 N 0.72999 0.76847 0.6444 0.0
N945 N 0.86379 0.81699 0.69692 0.0
H946 H 0.84838 0.87764 0.62679 0.0
H947 H 0.8782 0.86782 0.64985 0.0
H948 H 0.86933 0.80027 0.71384 0.0
H949 H 0.88142 0.84599 0.70254 0.0
H950 H 0.71031 0.74213 0.65051 0.0
H951 H 0.72209 0.78818 0.64049 0.0
H952 H 0.72625 0.704 0.62871 0.0
H953 H 0.75741 0.69245 0.64286 0.0
C954 C 0.04221 0.83252 0.67528 0.0
C955 C 0.05149 0.82233 0.64068 0.0
C956 C 0.98968 0.7768 0.62046 0.0
C957 C 0.98174 0.78147 0.65819 0.0
N958 N 1.00205 0.8112 0.72315 0.0
N959 N 0.03364 0.78741 0.578 0.0
C960 C 1.00833 0.80895 0.68596 0.0
C961 C 0.02503 0.7954 0.61246 0.0
N962 N 0.06543 0.86525 0.69753 0.0
N963 N 0.96343 0.75608 0.59176 0.0
H964 H 0.05826 0.80347 0.56908 0.0
H965 H 0.01666 0.76417 0.55856 0.0
H966 H 0.93726 0.74243 0.59596 0.0
H967 H 0.96721 0.75517 0.56301 0.0
H968 H 0.05893 0.87567 0.72137 0.0
H969 H 0.08972 0.88436 0.68948 0.0
H970 H 0.02162 0.82799 0.74513 0.0
H971 H 0.97815 0.79356 0.73288 0.0
C972 C 0.22891 0.23746 0.61426 0.0
C973 C 0.21507 0.24818 0.64476 0.0
C974 C 0.24298 0.22613 0.69007 0.0
C975 C 0.2557 0.21398 0.65961 0.0
N976 N 0.25094 0.19727 0.59177 0.0
N977 N 0.19723 0.23705 0.70821 0.0
C978 C 0.24584 0.21649 0.62136 0.0
C979 C 0.21831 0.23752 0.68159 0.0
N980 N 0.22621 0.24737 0.57852 0.0
N981 N 0.2557 0.22903 0.72712 0.0
H982 H 0.17673 0.24191 0.70216 0.0
H983 H 0.19706 0.22667 0.73447 0.0
H984 H 0.27555 0.22366 0.735 0.0
H985 H 0.24932 0.24114 0.74976 0.0
H986 H 0.23981 0.24472 0.55675 0.0
H987 H 0.21193 0.26013 0.57098 0.0
H988 H 0.24124 0.19515 0.56355 0.0
H989 H 0.26121 0.17966 0.59575 0.0
C990 C 0.81209 0.02082 0.62117 0.0
C991 C 0.80216 0.99723 0.65145 0.0
C992 C 0.81606 0.0521 0.69644 0.0
C993 C 0.82765 0.07601 0.66689 0.0
N994 N 0.84197 0.08448 0.60205 0.0
N995 N 0.80821 0.99435 0.71948 0.0
C996 C 0.82757 0.06081 0.62958 0.0
C997 C 0.80835 0.01405 0.68963 0.0
N998 N 0.80572 1.00501 0.5842 0.0
N999 N 0.81136 0.06524 0.73071 0.0
H1000 H 0.80604 0.96779 0.71571 0.0
H1001 H 0.8151 1.0065 0.74777 0.0
H1002 H 0.81522 0.09243 0.73603 0.0
H1003 H 0.80001 0.04787 0.75206 0.0
H1004 H 0.80774 0.01986 0.56071 0.0
H1005 H 0.79669 0.97642 0.57668 0.0
H1006 H 0.84651 0.07577 0.57577 0.0
H1007 H 0.85157 0.11356 0.60621 0.0
C1008 C 0.47458 0.33452 0.73112 0.0
C1009 C 0.47741 0.35998 0.70409 0.0
C1010 C 0.43113 0.30602 0.66148 0.0
C1011 C 0.43073 0.28056 0.68724 0.0
N1012 N 0.46294 0.27188 0.74014 0.0
N1013 N 0.46646 0.36629 0.6375 0.0
C1014 C 0.45611 0.29504 0.71967 0.0
C1015 C 0.45816 0.34476 0.66737 0.0
N1016 N 0.48766 0.34733 0.76852 0.0
N1017 N 0.40614 0.2935 0.63115 0.0
H1018 H 0.48839 0.39315 0.63888 0.0
H1019 H 0.45461 0.35533 0.60971 0.0
H1020 H 0.3868 0.26521 0.62465 0.0
H1021 H 0.40322 0.31182 0.61411 0.0
H1022 H 0.48296 0.32905 0.78955 0.0
H1023 H 0.49984 0.37563 0.77959 0.0
H1024 H 0.48458 0.28264 0.76043 0.0
H1025 H 0.44926 0.2425 0.73561 0.0
C1026 C 0.67004 0.14658 0.71108 0.0
C1027 C 0.65721 0.11541 0.73304 0.0
C1028 C 0.7061 0.10675 0.71924 0.0
C1029 C 0.72258 0.14285 0.70534 0.0
N1030 N 0.72117 0.19897 0.69073 0.0
N1031 N 0.66082 0.06267 0.7548 0.0
C1032 C 0.70466 0.16309 0.70142 0.0
C1033 C 0.67445 0.09431 0.73588 0.0
N1034 N 0.64897 0.15994 0.69883 0.0
N1035 N 0.71987 0.08368 0.71493 0.0
H1036 H 0.63601 0.0503 0.76377 0.0
H1037 H 0.67451 0.0493 0.76266 0.0
H1038 H 0.74209 0.09109 0.70125 0.0
H1039 H 0.70746 0.0557 0.72124 0.0
H1040 H 0.65615 0.18063 0.68006 0.0
H1041 H 0.62283 0.14705 0.70356 0.0
H1042 H 0.71034 0.21634 0.69153 0.0
H1043 H 0.74689 0.21283 0.68449 0.0
C1044 C 0.90236 0.57867 0.72504 0.0
C1045 C 0.88309 0.54155 0.70551 0.0
C1046 C 0.85334 0.56289 0.66134 0.0
C1047 C 0.87149 0.59973 0.68171 0.0
N1048 N 0.92217 0.64527 0.72513 0.0
N1049 N 0.85237 0.50386 0.6459 0.0
C1050 C 0.89906 0.60859 0.71072 0.0
C1051 C 0.86235 0.53533 0.67071 0.0
N1052 N 0.92282 0.58525 0.75835 0.0
N1053 N 0.8273 0.55399 0.63308 0.0
H1054 H 0.86095 0.48482 0.65043 0.0
H1055 H 0.83951 0.49927 0.61874 0.0
H1056 H 0.82156 0.57395 0.62343 0.0
H1057 H 0.81032 0.52641 0.62062 0.0
H1058 H 0.93292 0.60993 0.77704 0.0
H1059 H 0.92831 0.56532 0.76857 0.0
H1060 H 0.94513 0.65314 0.74219 0.0
H1061 H 0.92042 0.66855 0.71833 0.0
C1062 C 0.47215 0.95799 0.16404 0.0
C1063 C 0.48257 0.98644 0.19503 0.0
C1064 C 0.49835 0.03472 0.15012 0.0
C1065 C 0.49156 1.00701 0.11937 0.0
N1066 N 0.4579 0.94037 0.09633 0.0
N1067 N 0.50812 0.05223 0.21871 0.0
C1068 C 0.47479 0.96804 0.12609 0.0
C1069 C 0.49603 0.02488 0.18837 0.0
N1070 N 0.45941 0.92107 0.17091 0.0
N1071 N 0.50437 0.06965 0.1425 0.0
H1072 H 0.50651 0.04607 0.24699 0.0
H1073 H 0.5221 0.08114 0.21611 0.0
H1074 H 0.50258 0.07642 0.11478 0.0
H1075 H 0.50658 0.09019 0.16318 0.0
H1076 H 0.45709 0.90002 0.15084 0.0
H1077 H 0.45272 0.9115 0.19747 0.0
H1078 H 0.44426 0.91145 0.09874 0.0
H1079 H 0.45141 0.94634 0.07013 0.0
C1080 C 0.04322 0.47119 0.17554 0.0
C1081 C 0.0593 0.50873 0.194 0.0
C1082 C 0.0329 0.52552 0.14122 0.0
C1083 C 0.02516 0.4916 0.11903 0.0
N1084 N 0.02095 0.43044 0.11594 0.0
N1085 N 0.04249 0.55562 0.20527 0.0
C1086 C 0.02982 0.46394 0.13639 0.0
C1087 C 0.04653 0.5318 0.18012 0.0
N1088 N 0.03402 0.44158 0.19679 0.0
N1089 N 0.02792 0.55218 0.12523 0.0
H1090 H 0.04689 0.55604 0.23474 0.0
H1091 H 0.03031 0.57059 0.19737 0.0
H1092 H 0.01759 0.5487 0.09696 0.0
H1093 H 0.03686 0.57908 0.13923 0.0
H1094 H 0.01979 0.41331 0.18518 0.0
H1095 H 0.03518 0.44532 0.22648 0.0
H1096 H 0.02736 0.41119 0.12632 0.0
H1097 H 1.00912 0.42309 0.08793 0.0
C1098 C 0.50207 0.52378 0.16435 0.0
C1099 C 0.50423 0.5591 0.17413 0.0
C1100 C 0.53842 0.58492 0.12094 0.0
C1101 C 0.53292 0.5485 0.10821 0.0
N1102 N 0.50529 0.48159 0.11588 0.0
N1103 N 0.51601 0.61956 0.15527 0.0
C1104 C 0.51299 0.51729 0.12901 0.0
C1105 C 0.51967 0.58844 0.15028 0.0
N1106 N 0.49187 0.49733 0.18981 0.0
N1107 N 0.56231 0.61661 0.10627 0.0
H1108 H 0.50163 0.62261 0.17595 0.0
H1109 H 0.52395 0.64013 0.13629 0.0
H1110 H 0.57818 0.61615 0.08633 0.0
H1111 H 0.56925 0.64397 0.11721 0.0
H1112 H 0.49357 0.47294 0.186 0.0
H1113 H 0.48476 0.50126 0.21652 0.0
H1114 H 0.48712 0.4574 0.12717 0.0
H1115 H 0.51556 0.47572 0.0925 0.0
C1116 C 0.94191 0.45123 0.85954 0.0
C1117 C 0.9605 0.4751 0.83202 0.0
C1118 C 0.01304 0.5058 0.87815 0.0
C1119 C 0.99547 0.47799 0.90344 0.0
N1120 N 0.94609 0.41633 0.90975 0.0
N1121 N 0.01555 0.5218 0.81296 0.0
C1122 C 0.96052 0.4487 0.89213 0.0
C1123 C 0.99656 0.50173 0.84077 0.0
N1124 N 0.90644 0.43023 0.85415 0.0
N1125 N 0.0452 0.53644 0.88972 0.0
H1126 H 1.00457 0.51982 0.78536 0.0
H1127 H 0.0426 0.53816 0.81641 0.0
H1128 H 0.05879 0.5403 0.9162 0.0
H1129 H 0.05723 0.55963 0.87415 0.0
H1130 H 0.89157 0.41474 0.87506 0.0
H1131 H 0.89199 0.43162 0.83053 0.0
H1132 H 0.92146 0.39315 0.90075 0.0
H1133 H 0.96077 0.41019 0.92887 0.0
C1134 C 0.51448 0.4995 0.83398 0.0
C1135 C 0.55072 0.51409 0.83167 0.0
C1136 C 0.56191 0.55207 0.89261 0.0
C1137 C 0.52692 0.52938 0.89961 0.0
N1138 N 0.46916 0.47808 0.87615 0.0
N1139 N 0.60893 0.54986 0.86557 0.0
C1140 C 0.50279 0.50218 0.86999 0.0
C1141 C 0.57465 0.5395 0.86272 0.0
N1142 N 0.49136 0.48439 0.80182 0.0
N1143 N 0.58259 0.58635 0.91328 0.0
H1144 H 0.61888 0.53773 0.84722 0.0
H1145 H 0.62632 0.56688 0.88917 0.0
H1146 H 0.5724 0.59783 0.93214 0.0
H1147 H 0.60798 0.60486 0.90758 0.0
H1148 H 0.46512 0.47587 0.80201 0.0
H1149 H 0.49923 0.48482 0.77455 0.0
H1150 H 0.45181 0.45536 0.85629 0.0
H1151 H 0.45943 0.47894 0.90201 0.0
C1152 C 0.48056 1.00314 0.83953 0.0
C1153 C 0.51645 0.0262 0.83505 0.0
C1154 C 0.53015 0.0095 0.89659 0.0
C1155 C 0.49556 0.99557 0.90486 0.0
N1156 N 0.43784 0.98385 0.88447 0.0
N1157 N 0.5761 0.05642 0.86472 0.0
C1158 C 0.47059 0.99351 0.87639 0.0
C1159 C 0.54163 0.03061 0.86492 0.0
N1160 N 0.45606 0.98923 0.80857 0.0
N1161 N 0.55174 1.00178 0.91825 0.0
H1162 H 0.58545 0.07677 0.84558 0.0
H1163 H 0.59492 0.06042 0.8864 0.0
H1164 H 0.54326 0.98475 0.94048 0.0
H1165 H 0.57647 1.00873 0.91135 0.0
H1166 H 0.42986 0.97003 0.81038 0.0
H1167 H 0.46258 0.99315 0.78069 0.0
H1168 H 0.42014 0.9856 0.8652 0.0
H1169 H 0.42946 0.97775 0.91135 0.0
C1170 C 0.14964 0.28796 0.48598 0.0
C1171 C 0.14116 0.30771 0.5135 0.0
C1172 C 0.15675 0.35797 0.47113 0.0
C1173 C 0.17086 0.34092 0.44732 0.0
N1174 N 0.18945 0.29475 0.44044 0.0
N1175 N 0.14171 0.3652 0.53476 0.0
C1176 C 0.16995 0.30746 0.45712 0.0
C1177 C 0.1457 0.34365 0.50668 0.0
N1178 N 0.13791 0.25027 0.48707 0.0
N1179 N 0.1548 0.38839 0.46053 0.0
H1180 H 0.13482 0.35637 0.56151 0.0
H1181 H 0.14823 0.39318 0.5327 0.0
H1182 H 0.1649 0.40147 0.43629 0.0
H1183 H 0.14128 0.39916 0.47466 0.0
H1184 H 0.1414 0.23415 0.46575 0.0
H1185 H 0.12131 0.23444 0.50669 0.0
H1186 H 0.19232 0.27302 0.45057 0.0
H1187 H 0.20596 0.30849 0.42009 0.0
C1188 C 0.73511 0.81687 0.49806 0.0
C1189 C 0.73115 0.83862 0.52813 0.0
C1190 C 0.6885 0.84354 0.48513 0.0
C1191 C 0.68998 0.81859 0.45646 0.0
N1192 N 0.70487 0.77045 0.44341 0.0
N1193 N 0.69414 0.86037 0.55305 0.0
C1194 C 0.7103 0.80184 0.46527 0.0
C1195 C 0.70466 0.84806 0.52259 0.0
N1196 N 0.76321 0.81198 0.49948 0.0
N1197 N 0.67351 0.8646 0.47675 0.0
H1198 H 0.70366 0.86172 0.58121 0.0
H1199 H 0.67304 0.86473 0.55049 0.0
H1200 H 0.66293 0.8642 0.4495 0.0
H1201 H 0.67508 0.88568 0.4963 0.0
H1202 H 0.76802 0.79851 0.47661 0.0
H1203 H 0.78357 0.82497 0.52144 0.0
H1204 H 0.71742 0.7556 0.45035 0.0
H1205 H 0.68458 0.75683 0.42147 0.0
C1206 C 0.19052 0.85834 0.51684 0.0
C1207 C 0.18641 0.89035 0.5237 0.0
C1208 C 0.21182 0.91359 0.46484 0.0
C1209 C 0.2109 0.87902 0.45469 0.0
N1210 N 0.20068 0.81858 0.47187 0.0
N1211 N 0.18773 0.94529 0.50096 0.0
C1212 C 0.20071 0.85141 0.48103 0.0
C1213 C 0.19529 0.91691 0.49659 0.0
N1214 N 0.18611 0.83551 0.54514 0.0
N1215 N 0.23118 0.94449 0.44622 0.0
H1216 H 0.17543 0.94859 0.52383 0.0
H1217 H 0.19064 0.96316 0.47998 0.0
H1218 H 0.24762 0.94457 0.42653 0.0
H1219 H 0.23491 0.97128 0.45425 0.0
H1220 H 0.19236 0.81421 0.54369 0.0
H1221 H 0.17842 0.83953 0.57148 0.0
H1222 H 0.18894 0.79504 0.48699 0.0
H1223 H 0.21182 0.81459 0.44835 0.0
C1224 C 0.60057 0.76488 0.19736 0.0
C1225 C 0.61517 0.79406 0.17318 0.0
C1226 C 0.66444 0.83163 0.22263 0.0
C1227 C 0.65251 0.79968 0.24376 0.0
N1228 N 0.61223 0.73261 0.24556 0.0
N1229 N 0.66385 0.85356 0.1605 0.0
C1230 C 0.62144 0.76536 0.22955 0.0
C1231 C 0.64769 0.8273 0.18535 0.0
N1232 N 0.56654 0.73675 0.18973 0.0
N1233 N 0.69239 0.8658 0.2373 0.0
H1234 H 0.65306 0.85113 0.1327 0.0
H1235 H 0.68932 0.87608 0.16624 0.0
H1236 H 0.70764 0.86979 0.26262 0.0
H1237 H 0.69923 0.89087 0.2253 0.0
H1238 H 0.55364 0.71665 0.20842 0.0
H1239 H 0.55021 0.73607 0.16682 0.0
H1240 H 0.59156 0.7063 0.23387 0.0
H1241 H 0.62736 0.73074 0.26783 0.0
C1242 C 0.24362 0.86223 0.19774 0.0
C1243 C 0.21671 0.83748 0.16868 0.0
C1244 C 0.17372 0.83187 0.21174 0.0
C1245 C 0.20081 0.85979 0.23879 0.0
N1246 N 0.25991 0.91159 0.24889 0.0
N1247 N 0.15605 0.80995 0.14463 0.0
C1248 C 0.23527 0.87819 0.2291 0.0
C1249 C 0.18164 0.82577 0.17455 0.0
N1250 N 0.27667 0.86874 0.19723 0.0
N1251 N 0.14091 0.80981 0.22161 0.0
H1252 H 0.16114 0.80746 0.11649 0.0
H1253 H 0.13063 0.80365 0.14733 0.0
H1254 H 0.13402 0.81176 0.24893 0.0
H1255 H 0.12146 0.78683 0.20349 0.0
H1256 H 0.29617 0.88464 0.21961 0.0
H1257 H 0.28335 0.85444 0.17724 0.0
H1258 H 0.2847 0.92755 0.2403 0.0
H1259 H 0.25403 0.92508 0.27067 0.0
C1260 C 0.1858 0.34584 0.18554 0.0
C1261 C 0.19128 0.38215 0.17884 0.0
C1262 C 0.15835 0.38102 0.23175 0.0
C1263 C 0.15697 0.34748 0.24215 0.0
N1264 N 0.17069 0.29816 0.22961 0.0
N1265 N 0.19125 0.43861 0.20258 0.0
C1266 C 0.17157 0.33022 0.21951 0.0
C1267 C 0.18037 0.40115 0.20433 0.0
N1268 N 0.19217 0.32532 0.15858 0.0
N1269 N 0.13744 0.39289 0.24629 0.0
H1270 H 0.20839 0.45465 0.18348 0.0
H1271 H 0.18634 0.45447 0.22285 0.0
H1272 H 0.11827 0.37695 0.26333 0.0
H1273 H 0.13592 0.41579 0.2372 0.0
H1274 H 0.18514 0.29712 0.15994 0.0
H1275 H 0.20196 0.33541 0.1331 0.0
H1276 H 0.18451 0.28691 0.21702 0.0
H1277 H 0.15721 0.2836 0.25175 0.0
C1278 C 0.81994 0.68151 0.84677 0.0
C1279 C 0.8096 0.64277 0.84855 0.0
C1280 C 0.83176 0.64111 0.78798 0.0
C1281 C 0.83851 0.6782 0.78331 0.0
N1282 N 0.83327 0.73169 0.80598 0.0
N1283 N 0.7952 0.58302 0.81444 0.0
C1284 C 0.83086 0.69793 0.81204 0.0
C1285 C 0.81171 0.62164 0.81679 0.0
N1286 N 0.82064 0.70291 0.87838 0.0
N1287 N 0.84752 0.62581 0.76767 0.0
H1288 H 0.77939 0.56763 0.83483 0.0
H1289 H 0.79427 0.56653 0.79017 0.0
H1290 H 0.86746 0.64224 0.75167 0.0
H1291 H 0.84505 0.59966 0.77192 0.0
H1292 H 0.83134 0.73216 0.87981 0.0
H1293 H 0.8128 0.6918 0.90412 0.0
H1294 H 0.82479 0.74546 0.82443 0.0
H1295 H 0.84107 0.74433 0.78092 0.0
C1296 C 0.37167 0.14971 0.84795 0.0
C1297 C 0.40445 0.18319 0.85912 0.0
C1298 C 0.3973 0.20858 0.80064 0.0
C1299 C 0.36814 0.17303 0.78649 0.0
N1300 N 0.32978 0.10746 0.79518 0.0
N1301 N 0.4524 0.23979 0.83958 0.0
C1302 C 0.35601 0.14277 0.80965 0.0
C1303 C 0.41853 0.21116 0.83341 0.0
N1304 N 0.35435 0.12579 0.8742 0.0
N1305 N 0.40338 0.24056 0.7848 0.0
H1306 H 0.46977 0.24115 0.86167 0.0
H1307 H 0.46393 0.25958 0.82022 0.0
H1308 H 0.38707 0.2404 0.76222 0.0
H1309 H 0.42224 0.26757 0.79726 0.0
H1310 H 0.32907 0.1029 0.86813 0.0
H1311 H 0.36354 0.13123 0.90306 0.0
H1312 H 0.32237 0.08361 0.80967 0.0
H1313 H 0.31746 0.10149 0.76746 0.0
C1314 C 0.84677 0.23763 0.82914 0.0
C1315 C 0.83846 0.21049 0.85551 0.0
C1316 C 0.85329 0.17315 0.81133 0.0
C1317 C 0.86373 0.20179 0.78612 0.0
N1318 N 0.88245 0.26726 0.77923 0.0
N1319 N 0.83845 0.15512 0.87483 0.0
C1320 C 0.86363 0.23566 0.79714 0.0
C1321 C 0.84287 0.17884 0.84743 0.0
N1322 N 0.83869 0.26549 0.83474 0.0
N1323 N 0.85305 0.1404 0.80073 0.0
H1324 H 0.83012 0.15794 0.90114 0.0
H1325 H 0.84514 0.13418 0.87261 0.0
H1326 H 0.86304 0.13644 0.77613 0.0
H1327 H 0.84151 0.11649 0.81534 0.0
H1328 H 0.84118 0.28383 0.8144 0.0
H1329 H 0.82634 0.26785 0.85801 0.0
H1330 H 0.88549 0.2936 0.78795 0.0
H1331 H 0.89918 0.26847 0.75941 0.0
C1332 C 0.27758 0.11963 0.52926 0.0
C1333 C 0.29332 0.1453 0.50201 0.0
C1334 C 0.34603 0.18189 0.54739 0.0
C1335 C 0.33167 0.15337 0.57261 0.0
N1336 N 0.2879 0.08907 0.58024 0.0
N1337 N 0.34432 0.19853 0.48279 0.0
C1338 C 0.29838 0.1207 0.56181 0.0
C1339 C 0.32802 0.176 0.51048 0.0
N1340 N 0.24275 0.09383 0.52381 0.0
N1341 N 0.37654 0.21486 0.55879 0.0
H1342 H 0.33191 0.19546 0.45568 0.0
H1343 H 0.3708 0.21848 0.48575 0.0
H1344 H 0.39111 0.21978 0.58492 0.0
H1345 H 0.38613 0.23839 0.54354 0.0
H1346 H 0.22942 0.07671 0.5446 0.0
H1347 H 0.22668 0.09239 0.5002 0.0
H1348 H 0.26501 0.0635 0.5716 0.0
H1349 H 0.30453 0.08671 0.60031 0.0
C1350 C 0.90609 0.19102 0.53879 0.0
C1351 C 0.88168 0.16586 0.50801 0.0
C1352 C 0.83437 0.16004 0.54419 0.0
C1353 C 0.85918 0.18799 0.57296 0.0
N1354 N 0.91747 0.24074 0.58763 0.0
N1355 N 0.82284 0.13716 0.47709 0.0
C1356 C 0.89472 0.20692 0.5671 0.0
C1357 C 0.84581 0.15363 0.50927 0.0
N1358 N 0.93954 0.19824 0.54257 0.0
N1359 N 0.80031 0.13845 0.55037 0.0
H1360 H 0.83056 0.13435 0.45039 0.0
H1361 H 0.79699 0.13051 0.47621 0.0
H1362 H 0.79069 0.14161 0.5756 0.0
H1363 H 0.78229 0.11517 0.5315 0.0
H1364 H 0.95726 0.21481 0.5661 0.0
H1365 H 0.9483 0.18417 0.52491 0.0
H1366 H 0.94351 0.25668 0.58275 0.0
H1367 H 0.90884 0.25476 0.60547 0.0
C1368 C 0.86428 0.73193 0.53009 0.0
C1369 C 0.85838 0.70585 0.49846 0.0
C1370 C 0.83799 0.6544 0.53996 0.0
C1371 C 0.84474 0.68104 0.57201 0.0
N1372 N 0.88049 0.74693 0.59729 0.0
N1373 N 0.84399 0.64339 0.47289 0.0
C1374 C 0.86225 0.72034 0.56708 0.0
C1375 C 0.84643 0.6673 0.50326 0.0
N1376 N 0.87269 0.76826 0.52513 0.0
N1377 N 0.82457 0.61701 0.54475 0.0
H1378 H 0.84879 0.65178 0.44555 0.0
H1379 H 0.83896 0.61592 0.47483 0.0
H1380 H 0.8244 0.60761 0.57146 0.0
H1381 H 0.81408 0.59534 0.52237 0.0
H1382 H 0.87295 0.7868 0.54693 0.0
H1383 H 0.87658 0.77902 0.49877 0.0
H1384 H 0.89532 0.77589 0.59506 0.0
H1385 H 0.88691 0.73944 0.62259 0.0
loop_
_geom_bond_atom_site_label_1
_geom_bond_atom_site_label_2
_geom_bond_distance
_geom_bond_site_symmetry_2
_ccdc_geom_bond_type
H0 C7 0.929 . S
H1 C10 0.930 . S
H2 C12 0.929 . S
H3 C4 0.969 . S
C4 H3 0.969 . S
C4 O5 1.550 . S
C4 H6 0.973 . S
O5 C4 1.550 . S
O5 C11 1.412 . S
H6 C4 0.973 . S
C7 H0 0.929 . S
C7 C8 1.400 . S
C7 C9 1.364 . S
C8 C7 1.400 . S
C8 C12 1.377 . S
C9 C7 1.364 . S
C9 C10 1.374 . S
C10 H1 0.930 . S
C10 C9 1.374 . S
C10 C11 1.383 . S
C11 O5 1.412 . S
C11 C10 1.383 . S
C11 C12 1.394 . S
C12 H2 0.929 . S
C12 C8 1.377 . S
C12 C11 1.394 . S
H13 C20 0.929 . S
H14 C23 0.930 . S
H15 C25 0.929 . S
H16 C17 0.969 . S
C17 H16 0.969 . S
C17 O18 1.550 . S
C17 H19 0.973 . S
O18 C17 1.550 . S
O18 C24 1.412 . S
H19 C17 0.973 . S
C20 H13 0.929 . S
C20 C21 1.400 . S
C20 C22 1.364 . S
C21 C20 1.400 . S
C21 C25 1.377 . S
C22 C20 1.364 . S
C22 C23 1.374 . S
C23 H14 0.930 . S
C23 C22 1.374 . S
C23 C24 1.383 . S
C24 O18 1.412 . S
C24 C23 1.383 . S
C24 C25 1.394 . S
C25 H15 0.929 . S
C25 C21 1.377 . S
C25 C24 1.394 . S
H26 C33 0.929 . S
H27 C36 0.930 . S
H28 C38 0.929 . S
H29 C30 0.969 . S
C30 H29 0.969 . S
C30 O31 1.550 . S
C30 H32 0.973 . S
O31 C30 1.550 . S
O31 C37 1.412 . S
H32 C30 0.973 . S
C33 H26 0.929 . S
C33 C34 1.400 . S
C33 C35 1.364 . S
C34 C33 1.400 . S
C34 C38 1.377 . S
C35 C33 1.364 . S
C35 C36 1.374 . S
C36 H27 0.930 . S
C36 C35 1.374 . S
C36 C37 1.383 . S
C37 O31 1.412 . S
C37 C36 1.383 . S
C37 C38 1.394 . S
C38 H28 0.929 . S
C38 C34 1.377 . S
C38 C37 1.394 . S
H39 C46 0.929 . S
H40 C49 0.930 . S
H41 C51 0.929 . S
H42 C43 0.969 . S
C43 H42 0.969 . S
C43 O44 1.550 . S
C43 H45 0.973 . S
O44 C43 1.550 . S
O44 C50 1.412 . S
H45 C43 0.973 . S
C46 H39 0.929 . S
C46 C47 1.400 . S
C46 C48 1.364 . S
C47 C46 1.400 . S
C47 C51 1.377 . S
C48 C46 1.364 . S
C48 C49 1.374 . S
C49 H40 0.930 . S
C49 C48 1.374 . S
C49 C50 1.383 . S
C50 O44 1.412 . S
C50 C49 1.383 . S
C50 C51 1.394 . S
C51 H41 0.929 . S
C51 C47 1.377 . S
C51 C50 1.394 . S
H52 C59 0.929 . S
H53 C62 0.930 . S
H54 C64 0.929 . S
H55 C56 0.969 . S
C56 H55 0.969 . S
C56 O57 1.550 . S
C56 H58 0.973 . S
O57 C56 1.550 . S
O57 C63 1.412 . S
H58 C56 0.973 . S
C59 H52 0.929 . S
C59 C60 1.400 . S
C59 C61 1.364 . S
C60 C59 1.400 . S
C60 C64 1.377 . S
C61 C59 1.364 . S
C61 C62 1.374 . S
C62 H53 0.930 . S
C62 C61 1.374 . S
C62 C63 1.383 . S
C63 O57 1.412 . S
C63 C62 1.383 . S
C63 C64 1.394 . S
C64 H54 0.929 . S
C64 C60 1.377 . S
C64 C63 1.394 . S
H65 C72 0.929 . S
H66 C75 0.930 . S
H67 C77 0.929 . S
H68 C69 0.969 . S
C69 H68 0.969 . S
C69 O70 1.550 . S
C69 H71 0.973 . S
O70 C69 1.550 . S
O70 C76 1.412 . S
H71 C69 0.973 . S
C72 H65 0.929 . S
C72 C73 1.400 . S
C72 C74 1.364 . S
C73 C72 1.400 . S
C73 C77 1.377 . S
C74 C72 1.364 . S
C74 C75 1.374 . S
C75 H66 0.930 . S
C75 C74 1.374 . S
C75 C76 1.383 . S
C76 O70 1.412 . S
C76 C75 1.383 . S
C76 C77 1.394 . S
C77 H67 0.929 . S
C77 C73 1.377 . S
C77 C76 1.394 . S
H78 C85 0.929 . S
H79 C88 0.930 . S
H80 C90 0.929 . S
H81 C82 0.969 . S
C82 H81 0.969 . S
C82 O83 1.550 . S
C82 H84 0.973 . S
O83 C82 1.550 . S
O83 C89 1.412 . S
H84 C82 0.973 . S
C85 H78 0.929 . S
C85 C86 1.400 . S
C85 C87 1.364 . S
C86 C85 1.400 . S
C86 C90 1.377 . S
C87 C85 1.364 . S
C87 C88 1.374 . S
C88 H79 0.930 . S
C88 C87 1.374 . S
C88 C89 1.383 . S
C89 O83 1.412 . S
C89 C88 1.383 . S
C89 C90 1.394 . S
C90 H80 0.929 . S
C90 C86 1.377 . S
C90 C89 1.394 . S
H91 C98 0.929 . S
H92 C101 0.930 . S
H93 C103 0.929 . S
H94 C95 0.969 . S
C95 H94 0.969 . S
C95 O96 1.550 . S
C95 H97 0.973 . S
O96 C95 1.550 . S
O96 C102 1.412 . S
H97 C95 0.973 . S
C98 H91 0.929 . S
C98 C99 1.400 . S
C98 C100 1.364 . S
C99 C98 1.400 . S
C99 C103 1.377 . S
C100 C98 1.364 . S
C100 C101 1.374 . S
C101 H92 0.930 . S
C101 C100 1.374 . S
C101 C102 1.383 . S
C102 O96 1.412 . S
C102 C101 1.383 . S
C102 C103 1.394 . S
C103 H93 0.929 . S
C103 C99 1.377 . S
C103 C102 1.394 . S
H104 C111 0.929 . S
H105 C114 0.930 . S
H106 C116 0.929 . S
H107 C108 0.969 . S
C108 H107 0.969 . S
C108 O109 1.550 . S
C108 H110 0.973 . S
O109 C108 1.550 . S
O109 C115 1.412 . S
H110 C108 0.973 . S
C111 H104 0.929 . S
C111 C112 1.400 . S
C111 C113 1.364 . S
C112 C111 1.400 . S
C112 C116 1.377 . S
C113 C111 1.364 . S
C113 C114 1.374 . S
C114 H105 0.930 . S
C114 C113 1.374 . S
C114 C115 1.383 . S
C115 O109 1.412 . S
C115 C114 1.383 . S
C115 C116 1.394 . S
C116 H106 0.929 . S
C116 C112 1.377 . S
C116 C115 1.394 . S
H117 C124 0.929 . S
H118 C127 0.930 . S
H119 C129 0.929 . S
H120 C121 0.969 . S
C121 H120 0.969 . S
C121 O122 1.550 . S
C121 H123 0.973 . S
O122 C121 1.550 . S
O122 C128 1.412 . S
H123 C121 0.973 . S
C124 H117 0.929 . S
C124 C125 1.400 . S
C124 C126 1.364 . S
C125 C124 1.400 . S
C125 C129 1.377 . S
C126 C124 1.364 . S
C126 C127 1.374 . S
C127 H118 0.930 . S
C127 C126 1.374 . S
C127 C128 1.383 . S
C128 O122 1.412 . S
C128 C127 1.383 . S
C128 C129 1.394 . S
C129 H119 0.929 . S
C129 C125 1.377 . S
C129 C128 1.394 . S
H130 C137 0.929 . S
H131 C140 0.930 . S
H132 C142 0.929 1_554 S
H133 C134 0.969 . S
C134 H133 0.969 . S
C134 O135 1.550 . S
C134 H136 0.973 . S
O135 C134 1.550 . S
O135 C141 1.412 . S
H136 C134 0.973 . S
C137 H130 0.929 . S
C137 C138 1.400 . S
C137 C139 1.364 . S
C138 C137 1.400 . S
C138 C142 1.377 . S
C139 C137 1.364 . S
C139 C140 1.374 . S
C140 H131 0.930 . S
C140 C139 1.374 . S
C140 C141 1.383 . S
C141 O135 1.412 . S
C141 C140 1.383 . S
C141 C142 1.394 . S
C142 H132 0.929 1_556 S
C142 C138 1.377 . S
C142 C141 1.394 . S
H143 C150 0.929 . S
H144 C153 0.930 . S
H145 C155 0.929 . S
H146 C147 0.969 . S
C147 H146 0.969 . S
C147 O148 1.550 . S
C147 H149 0.973 . S
O148 C147 1.550 . S
O148 C154 1.412 . S
H149 C147 0.973 . S
C150 H143 0.929 . S
C150 C151 1.400 . S
C150 C152 1.364 . S
C151 C150 1.400 . S
C151 C155 1.377 . S
C152 C150 1.364 . S
C152 C153 1.374 . S
C153 H144 0.930 . S
C153 C152 1.374 . S
C153 C154 1.383 . S
C154 O148 1.412 . S
C154 C153 1.383 . S
C154 C155 1.394 . S
C155 H145 0.929 . S
C155 C151 1.377 . S
C155 C154 1.394 . S
H156 C163 0.929 . S
H157 C166 0.930 . S
H158 C168 0.929 . S
H159 C160 0.969 . S
C160 H159 0.969 . S
C160 O161 1.550 . S
C160 H162 0.973 . S
O161 C160 1.550 . S
O161 C167 1.412 . S
H162 C160 0.973 . S
C163 H156 0.929 . S
C163 C164 1.400 . S
C163 C165 1.364 . S
C164 C163 1.400 . S
C164 C168 1.377 . S
C165 C163 1.364 . S
C165 C166 1.374 . S
C166 H157 0.930 . S
C166 C165 1.374 . S
C166 C167 1.383 . S
C167 O161 1.412 . S
C167 C166 1.383 . S
C167 C168 1.394 . S
C168 H158 0.929 . S
C168 C164 1.377 . S
C168 C167 1.394 . S
H169 C176 0.929 . S
H170 C179 0.930 . S
H171 C181 0.929 . S
H172 C173 0.969 . S
C173 H172 0.969 . S
C173 O174 1.550 . S
C173 H175 0.973 . S
O174 C173 1.550 . S
O174 C180 1.412 . S
H175 C173 0.973 . S
C176 H169 0.929 . S
C176 C177 1.400 . S
C176 C178 1.364 . S
C177 C176 1.400 . S
C177 C181 1.377 . S
C178 C176 1.364 . S
C178 C179 1.374 . S
C179 H170 0.930 . S
C179 C178 1.374 . S
C179 C180 1.383 . S
C180 O174 1.412 . S
C180 C179 1.383 . S
C180 C181 1.394 . S
C181 H171 0.929 . S
C181 C177 1.377 . S
C181 C180 1.394 . S
H182 C189 0.929 . S
H183 C192 0.930 . S
H184 C194 0.929 . S
H185 C186 0.969 . S
C186 H185 0.969 . S
C186 O187 1.550 . S
C186 H188 0.973 . S
O187 C186 1.550 . S
O187 C193 1.412 . S
H188 C186 0.973 . S
C189 H182 0.929 . S
C189 C190 1.400 . S
C189 C191 1.364 . S
C190 C189 1.400 . S
C190 C194 1.377 . S
C191 C189 1.364 . S
C191 C192 1.374 . S
C192 H183 0.930 . S
C192 C191 1.374 . S
C192 C193 1.383 . S
C193 O187 1.412 . S
C193 C192 1.383 . S
C193 C194 1.394 . S
C194 H184 0.929 . S
C194 C190 1.377 . S
C194 C193 1.394 . S
H195 C202 0.929 . S
H196 C205 0.930 . S
H197 C207 0.929 . S
H198 C199 0.969 . S
C199 H198 0.969 . S
C199 O200 1.550 . S
C199 H201 0.973 . S
O200 C199 1.550 . S
O200 C206 1.412 . S
H201 C199 0.973 . S
C202 H195 0.929 . S
C202 C203 1.400 . S
C202 C204 1.364 . S
C203 C202 1.400 . S
C203 C207 1.377 . S
C204 C202 1.364 . S
C204 C205 1.374 . S
C205 H196 0.930 . S
C205 C204 1.374 . S
C205 C206 1.383 . S
C206 O200 1.412 . S
C206 C205 1.383 . S
C206 C207 1.394 . S
C207 H197 0.929 . S
C207 C203 1.377 . S
C207 C206 1.394 . S
H208 C215 0.929 . S
H209 C218 0.930 . S
H210 C220 0.929 . S
H211 C212 0.969 . S
C212 H211 0.969 . S
C212 O213 1.550 . S
C212 H214 0.973 . S
O213 C212 1.550 . S
O213 C219 1.412 . S
H214 C212 0.973 . S
C215 H208 0.929 . S
C215 C216 1.400 . S
C215 C217 1.364 . S
C216 C215 1.400 . S
C216 C220 1.377 . S
C217 C215 1.364 . S
C217 C218 1.374 . S
C218 H209 0.930 . S
C218 C217 1.374 . S
C218 C219 1.383 . S
C219 O213 1.412 . S
C219 C218 1.383 . S
C219 C220 1.394 . S
C220 H210 0.929 . S
C220 C216 1.377 . S
C220 C219 1.394 . S
H221 C228 0.929 . S
H222 C231 0.930 . S
H223 C233 0.929 . S
H224 C225 0.969 . S
C225 H224 0.969 . S
C225 O226 1.550 . S
C225 H227 0.973 . S
O226 C225 1.550 . S
O226 C232 1.412 . S
H227 C225 0.973 . S
C228 H221 0.929 . S
C228 C229 1.400 . S
C228 C230 1.364 . S
C229 C228 1.400 . S
C229 C233 1.377 . S
C230 C228 1.364 . S
C230 C231 1.374 . S
C231 H222 0.930 . S
C231 C230 1.374 . S
C231 C232 1.383 . S
C232 O226 1.412 . S
C232 C231 1.383 . S
C232 C233 1.394 . S
C233 H223 0.929 . S
C233 C229 1.377 . S
C233 C232 1.394 . S
Tb234 O237 2.453 . S
Tb234 O238 2.596 1_545 S
Tb234 O239 2.374 1_545 S
Tb234 O247 2.343 1_554 S
Tb234 O249 2.353 . S
Tb234 O251 2.427 . S
Tb234 O252 2.513 1_554 S
C235 O239 1.251 . S
C235 O241 1.263 1_554 S
Tb236 O238 2.343 1_556 S
Tb236 O241 2.353 . S
Tb236 O244 2.427 1_556 S
Tb236 O245 2.513 1_556 S
Tb236 O246 2.453 . S
Tb236 O247 2.596 1_565 S
Tb236 O248 2.374 1_565 S
O237 Tb234 2.453 . S
O237 C253 1.245 1_545 S
O238 Tb234 2.596 1_565 S
O238 Tb236 2.343 1_554 S
O238 C253 1.259 . S
O239 Tb234 2.374 1_565 S
O239 C235 1.251 . S
C240 O244 1.275 . S
C240 O245 1.246 . S
O241 C235 1.263 1_556 S
O241 Tb236 2.353 . S
C242 O246 1.245 1_545 S
C242 O247 1.259 . S
C243 O248 1.250 1_554 S
C243 O249 1.263 . S
O244 Tb236 2.427 1_554 S
O244 C240 1.275 . S
O245 Tb236 2.513 1_554 S
O245 C240 1.246 . S
O246 Tb236 2.453 . S
O246 C242 1.245 1_565 S
O247 Tb234 2.343 1_556 S
O247 Tb236 2.596 1_545 S
O247 C242 1.259 . S
O248 Tb236 2.374 1_545 S
O248 C243 1.250 1_556 S
O249 Tb234 2.353 . S
O249 C243 1.263 . S
C250 O251 1.275 1_556 S
C250 O252 1.246 . S
O251 Tb234 2.427 . S
O251 C250 1.275 1_554 S
O252 Tb234 2.513 1_556 S
O252 C250 1.246 . S
C253 O237 1.245 1_565 S
C253 O238 1.259 . S
Tb254 O257 2.453 . S
Tb254 O258 2.596 1_655 S
Tb254 O259 2.374 1_655 S
Tb254 O267 2.343 1_554 S
Tb254 O269 2.353 . S
Tb254 O271 2.427 1_554 S
Tb254 O272 2.513 1_554 S
C255 O259 1.251 . S
C255 O261 1.263 1_554 S
Tb256 O258 2.343 1_556 S
Tb256 O261 2.353 . S
Tb256 O264 2.427 1_556 S
Tb256 O265 2.513 1_556 S
Tb256 O266 2.453 . S
Tb256 O267 2.596 1_455 S
Tb256 O268 2.374 1_455 S
O257 Tb254 2.453 . S
O257 C273 1.245 1_655 S
O258 Tb254 2.596 1_455 S
O258 Tb256 2.343 1_554 S
O258 C273 1.259 . S
O259 Tb254 2.374 1_455 S
O259 C255 1.251 . S
C260 O264 1.275 . S
C260 O265 1.246 . S
O261 C255 1.263 1_556 S
O261 Tb256 2.353 . S
C262 O266 1.245 1_655 S
C262 O267 1.259 . S
C263 O268 1.250 . S
C263 O269 1.263 1_556 S
O264 Tb256 2.427 1_554 S
O264 C260 1.275 . S
O265 Tb256 2.513 1_554 S
O265 C260 1.246 . S
O266 Tb256 2.453 . S
O266 C262 1.245 1_455 S
O267 Tb254 2.343 1_556 S
O267 Tb256 2.596 1_655 S
O267 C262 1.259 . S
O268 Tb256 2.374 1_655 S
O268 C263 1.250 . S
O269 Tb254 2.353 . S
O269 C263 1.263 1_554 S
C270 O271 1.275 . S
C270 O272 1.246 . S
O271 Tb254 2.427 1_556 S
O271 C270 1.275 . S
O272 Tb254 2.513 1_556 S
O272 C270 1.246 . S
C273 O257 1.245 1_455 S
C273 O258 1.259 . S
Tb274 O277 2.453 . S
Tb274 O278 2.596 . S
Tb274 O279 2.374 . S
Tb274 O287 2.343 1_556 S
Tb274 O289 2.353 . S
Tb274 O291 2.427 1_556 S
Tb274 O292 2.513 1_556 S
C275 O279 1.251 1_554 S
C275 O281 1.263 . S
Tb276 O278 2.343 1_554 S
Tb276 O281 2.353 . S
Tb276 O284 2.410 1_554 S
Tb276 O285 2.513 1_554 S
Tb276 O286 2.453 . S
Tb276 O287 2.596 . S
Tb276 O288 2.374 . S
O277 Tb274 2.453 . S
O277 C293 1.245 . S
O278 Tb274 2.596 . S
O278 Tb276 2.343 1_556 S
O278 C293 1.259 . S
O279 Tb274 2.374 . S
O279 C275 1.251 1_556 S
C280 O284 1.290 . S
C280 O285 1.246 . S
O281 C275 1.263 . S
O281 Tb276 2.353 . S
C282 O286 1.245 . S
C282 O287 1.259 . S
C283 O288 1.250 . S
C283 O289 1.263 1_554 S
O284 Tb276 2.410 1_556 S
O284 C280 1.290 . S
O285 Tb276 2.513 1_556 S
O285 C280 1.246 . S
O286 Tb276 2.453 . S
O286 C282 1.245 . S
O287 Tb274 2.343 1_554 S
O287 Tb276 2.596 . S
O287 C282 1.259 . S
O288 Tb276 2.374 . S
O288 C283 1.250 . S
O289 Tb274 2.353 . S
O289 C283 1.263 1_556 S
C290 O291 1.275 . S
C290 O292 1.246 . S
O291 Tb274 2.427 1_554 S
O291 C290 1.275 . S
O292 Tb274 2.513 1_554 S
O292 C290 1.246 . S
C293 O277 1.245 . S
C293 O278 1.259 . S
Tb294 O297 2.453 . S
Tb294 O298 2.596 . S
Tb294 O299 2.374 . S
Tb294 O307 2.343 . S
Tb294 O309 2.353 . S
Tb294 O311 2.427 . S
Tb294 O312 2.513 . S
C295 O299 1.251 . S
C295 O301 1.263 . S
Tb296 O298 2.343 . S
Tb296 O301 2.353 . S
Tb296 O304 2.427 . S
Tb296 O305 2.513 . S
Tb296 O306 2.453 . S
Tb296 O307 2.596 . S
Tb296 O308 2.374 . S
O297 Tb294 2.453 . S
O297 C313 1.245 . S
O298 Tb294 2.596 . S
O298 Tb296 2.343 . S
O298 C313 1.259 . S
O299 Tb294 2.374 . S
O299 C295 1.251 . S
C300 O304 1.275 . S
C300 O305 1.246 . S
O301 C295 1.263 . S
O301 Tb296 2.353 . S
C302 O306 1.245 . S
C302 O307 1.259 . S
C303 O308 1.250 . S
C303 O309 1.263 . S
O304 Tb296 2.427 . S
O304 C300 1.275 . S
O305 Tb296 2.513 . S
O305 C300 1.246 . S
O306 Tb296 2.453 . S
O306 C302 1.245 . S
O307 Tb294 2.343 . S
O307 Tb296 2.596 . S
O307 C302 1.259 . S
O308 Tb296 2.374 . S
O308 C303 1.250 . S
O309 Tb294 2.353 . S
O309 C303 1.263 . S
C310 O311 1.275 . S
C310 O312 1.246 . S
O311 Tb294 2.427 . S
O311 C310 1.275 . S
O312 Tb294 2.513 . S
O312 C310 1.246 . S
C313 O297 1.245 . S
C313 O298 1.259 . S
Tb314 O317 2.453 . S
Tb314 O318 2.596 . S
Tb314 O319 2.374 . S
Tb314 O327 2.343 . S
Tb314 O329 2.353 . S
Tb314 O331 2.427 . S
Tb314 O332 2.513 . S
C315 O319 1.251 . S
C315 O321 1.263 . S
Tb316 O318 2.343 . S
Tb316 O321 2.353 . S
Tb316 O324 2.427 . S
Tb316 O325 2.513 . S
Tb316 O326 2.453 . S
Tb316 O327 2.596 . S
Tb316 O328 2.374 . S
O317 Tb314 2.453 . S
O317 C333 1.245 . S
O318 Tb314 2.596 . S
O318 Tb316 2.343 . S
O318 C333 1.259 . S
O319 Tb314 2.374 . S
O319 C315 1.251 . S
C320 O324 1.275 . S
C320 O325 1.246 . S
O321 C315 1.263 . S
O321 Tb316 2.353 . S
C322 O326 1.245 . S
C322 O327 1.259 . S
C323 O328 1.250 . S
C323 O329 1.263 . S
O324 Tb316 2.427 . S
O324 C320 1.275 . S
O325 Tb316 2.513 . S
O325 C320 1.246 . S
O326 Tb316 2.453 . S
O326 C322 1.245 . S
O327 Tb314 2.343 . S
O327 Tb316 2.596 . S
O327 C322 1.259 . S
O328 Tb316 2.374 . S
O328 C323 1.250 . S
O329 Tb314 2.353 . S
O329 C323 1.263 . S
C330 O331 1.275 . S
C330 O332 1.246 . S
O331 Tb314 2.427 . S
O331 C330 1.275 . S
O332 Tb314 2.513 . S
O332 C330 1.246 . S
C333 O317 1.245 . S
C333 O318 1.259 . S
Tb334 O337 2.453 . S
Tb334 O338 2.596 . S
Tb334 O339 2.374 . S
Tb334 O347 2.343 . S
Tb334 O349 2.353 . S
Tb334 O351 2.427 . S
Tb334 O352 2.513 . S
C335 O339 1.251 . S
C335 O341 1.263 . S
Tb336 O338 2.343 . S
Tb336 O341 2.353 . S
Tb336 O344 2.427 . S
Tb336 O345 2.513 . S
Tb336 O346 2.453 . S
Tb336 O347 2.596 . S
Tb336 O348 2.374 . S
O337 Tb334 2.453 . S
O337 C353 1.245 . S
O338 Tb334 2.596 . S
O338 Tb336 2.343 . S
O338 C353 1.259 . S
O339 Tb334 2.374 . S
O339 C335 1.251 . S
C340 O344 1.275 . S
C340 O345 1.246 . S
O341 C335 1.263 . S
O341 Tb336 2.353 . S
C342 O346 1.245 . S
C342 O347 1.259 . S
C343 O348 1.250 . S
C343 O349 1.263 . S
O344 Tb336 2.427 . S
O344 C340 1.275 . S
O345 Tb336 2.513 . S
O345 C340 1.246 . S
O346 Tb336 2.453 . S
O346 C342 1.245 . S
O347 Tb334 2.343 . S
O347 Tb336 2.596 . S
O347 C342 1.259 . S
O348 Tb336 2.374 . S
O348 C343 1.250 . S
O349 Tb334 2.353 . S
O349 C343 1.263 . S
C350 O351 1.275 . S
C350 O352 1.246 . S
O351 Tb334 2.427 . S
O351 C350 1.275 . S
O352 Tb334 2.513 . S
O352 C350 1.246 . S
C353 O337 1.245 . S
C353 O338 1.259 . S
Tb354 O357 2.453 . S
Tb354 O358 2.596 . S
Tb354 O359 2.374 . S
Tb354 O367 2.343 . S
Tb354 O369 2.353 . S
Tb354 O371 2.427 . S
Tb354 O372 2.513 . S
C355 O359 1.251 . S
C355 O361 1.263 . S
Tb356 O358 2.343 . S
Tb356 O361 2.353 . S
Tb356 O364 2.427 . S
Tb356 O365 2.513 . S
Tb356 O366 2.453 . S
Tb356 O367 2.596 . S
Tb356 O368 2.374 . S
O357 Tb354 2.453 . S
O357 C373 1.245 . S
O358 Tb354 2.596 . S
O358 Tb356 2.343 . S
O358 C373 1.259 . S
O359 Tb354 2.374 . S
O359 C355 1.251 . S
C360 O364 1.275 . S
C360 O365 1.246 . S
O361 C355 1.263 . S
O361 Tb356 2.353 . S
C362 O366 1.245 . S
C362 O367 1.259 . S
C363 O368 1.250 . S
C363 O369 1.263 . S
O364 Tb356 2.427 . S
O364 C360 1.275 . S
O365 Tb356 2.513 . S
O365 C360 1.246 . S
O366 Tb356 2.453 . S
O366 C362 1.245 . S
O367 Tb354 2.343 . S
O367 Tb356 2.596 . S
O367 C362 1.259 . S
O368 Tb356 2.374 . S
O368 C363 1.250 . S
O369 Tb354 2.353 . S
O369 C363 1.263 . S
C370 O371 1.275 . S
C370 O372 1.246 . S
O371 Tb354 2.427 . S
O371 C370 1.275 . S
O372 Tb354 2.513 . S
O372 C370 1.246 . S
C373 O357 1.245 . S
C373 O358 1.259 . S
Tb374 O377 2.453 . S
Tb374 O378 2.596 . S
Tb374 O379 2.374 . S
Tb374 O387 2.343 . S
Tb374 O389 2.353 . S
Tb374 O391 2.427 . S
Tb374 O392 2.513 . S
C375 O379 1.251 . S
C375 O381 1.263 . S
Tb376 O378 2.343 . S
Tb376 O381 2.353 . S
Tb376 O384 2.427 . S
Tb376 O385 2.513 . S
Tb376 O386 2.453 . S
Tb376 O387 2.596 . S
Tb376 O388 2.374 . S
O377 Tb374 2.453 . S
O377 C393 1.245 . S
O378 Tb374 2.596 . S
O378 Tb376 2.343 . S
O378 C393 1.259 . S
O379 Tb374 2.374 . S
O379 C375 1.251 . S
C380 O384 1.275 . S
C380 O385 1.246 . S
O381 C375 1.263 . S
O381 Tb376 2.353 . S
C382 O386 1.245 . S
C382 O387 1.259 . S
C383 O388 1.250 . S
C383 O389 1.263 . S
O384 Tb376 2.427 . S
O384 C380 1.275 . S
O385 Tb376 2.513 . S
O385 C380 1.246 . S
O386 Tb376 2.453 . S
O386 C382 1.245 . S
O387 Tb374 2.343 . S
O387 Tb376 2.596 . S
O387 C382 1.259 . S
O388 Tb376 2.374 . S
O388 C383 1.250 . S
O389 Tb374 2.353 . S
O389 C383 1.263 . S
C390 O391 1.275 . S
C390 O392 1.246 . S
O391 Tb374 2.427 . S
O391 C390 1.275 . S
O392 Tb374 2.513 . S
O392 C390 1.246 . S
C393 O377 1.245 . S
C393 O378 1.259 . S
Tb394 O397 2.453 . S
Tb394 O398 2.596 . S
Tb394 O399 2.374 . S
Tb394 O407 2.343 . S
Tb394 O409 2.353 . S
Tb394 O411 2.427 . S
Tb394 O412 2.513 . S
C395 O399 1.251 . S
C395 O401 1.263 . S
Tb396 O398 2.343 . S
Tb396 O401 2.353 . S
Tb396 O404 2.427 . S
Tb396 O405 2.513 . S
Tb396 O406 2.453 . S
Tb396 O407 2.596 . S
Tb396 O408 2.374 . S
O397 Tb394 2.453 . S
O397 C413 1.245 . S
O398 Tb394 2.596 . S
O398 Tb396 2.343 . S
O398 C413 1.259 . S
O399 Tb394 2.374 . S
O399 C395 1.251 . S
C400 O404 1.275 . S
C400 O405 1.246 . S
O401 C395 1.263 . S
O401 Tb396 2.353 . S
C402 O406 1.245 . S
C402 O407 1.259 . S
C403 O408 1.250 . S
C403 O409 1.263 . S
O404 Tb396 2.427 . S
O404 C400 1.275 . S
O405 Tb396 2.513 . S
O405 C400 1.246 . S
O406 Tb396 2.453 . S
O406 C402 1.245 . S
O407 Tb394 2.343 . S
O407 Tb396 2.596 . S
O407 C402 1.259 . S
O408 Tb396 2.374 . S
O408 C403 1.250 . S
O409 Tb394 2.353 . S
O409 C403 1.263 . S
C410 O411 1.275 . S
C410 O412 1.246 . S
O411 Tb394 2.427 . S
O411 C410 1.275 . S
O412 Tb394 2.513 . S
O412 C410 1.246 . S
C413 O397 1.245 . S
C413 O398 1.259 . S
C414 C415 1.363 . S
C414 C420 1.379 . S
C414 N422 1.356 . S
C415 C414 1.363 . S
C415 C421 1.363 . S
C416 C417 1.363 . S
C416 C421 1.379 . S
C416 N423 1.356 1_554 S
C417 C416 1.363 . S
C417 C420 1.363 . S
N418 C420 1.356 . S
N418 H430 0.984 . S
N418 H431 0.985 . S
N419 C421 1.356 . S
N419 H424 0.984 . S
N419 H425 0.985 1_554 S
C420 C414 1.379 . S
C420 C417 1.363 . S
C420 N418 1.356 . S
C421 C415 1.363 . S
C421 C416 1.379 . S
C421 N419 1.356 . S
N422 C414 1.356 . S
N422 H428 0.984 . S
N422 H429 0.984 . S
N423 C416 1.356 1_556 S
N423 H426 0.984 . S
N423 H427 0.985 . S
H424 N419 0.984 . S
H425 N419 0.985 1_556 S
H426 N423 0.984 . S
H427 N423 0.985 . S
H428 N422 0.984 . S
H429 N422 0.984 . S
H430 N418 0.984 . S
H431 N418 0.985 . S
C432 C433 1.363 . S
C432 C438 1.379 . S
C432 N440 1.356 . S
C433 C432 1.363 . S
C433 C439 1.363 . S
C434 C435 1.363 . S
C434 C439 1.379 . S
C434 N441 1.356 . S
C435 C434 1.363 . S
C435 C438 1.363 . S
N436 C438 1.356 1_556 S
N436 H448 0.984 . S
N436 H449 0.985 . S
N437 C439 1.356 . S
N437 H442 0.984 . S
N437 H443 0.985 . S
C438 C432 1.379 . S
C438 C435 1.363 . S
C438 N436 1.356 1_554 S
C439 C433 1.363 . S
C439 C434 1.379 . S
C439 N437 1.356 . S
N440 C432 1.356 . S
N440 H446 0.984 1_554 S
N440 H447 0.984 . S
N441 C434 1.356 . S
N441 H444 0.984 . S
N441 H445 0.985 . S
H442 N437 0.984 . S
H443 N437 0.985 . S
H444 N441 0.984 . S
H445 N441 0.985 . S
H446 N440 0.984 1_556 S
H447 N440 0.984 . S
H448 N436 0.984 . S
H449 N436 0.985 . S
C450 C451 1.363 . S
C450 C456 1.379 . S
C450 N458 1.356 . S
C451 C450 1.363 . S
C451 C457 1.363 . S
C452 C453 1.363 . S
C452 C457 1.379 . S
C452 N459 1.356 . S
C453 C452 1.363 . S
C453 C456 1.363 . S
N454 C456 1.356 1_556 S
N454 H466 0.984 . S
N454 H467 0.985 . S
N455 C457 1.356 . S
N455 H460 0.984 . S
N455 H461 0.985 . S
C456 C450 1.379 . S
C456 C453 1.363 . S
C456 N454 1.356 1_554 S
C457 C451 1.363 . S
C457 C452 1.379 . S
C457 N455 1.356 . S
N458 C450 1.356 . S
N458 H464 0.984 1_554 S
N458 H465 0.984 . S
N459 C452 1.356 . S
N459 H462 0.984 . S
N459 H463 0.985 . S
H460 N455 0.984 . S
H461 N455 0.985 . S
H462 N459 0.984 . S
H463 N459 0.985 . S
H464 N458 0.984 1_556 S
H465 N458 0.984 . S
H466 N454 0.984 . S
H467 N454 0.985 . S
C468 C469 1.363 . S
C468 C474 1.379 . S
C468 N476 1.356 . S
C469 C468 1.363 . S
C469 C475 1.363 . S
C470 C471 1.363 1_554 S
C470 C475 1.379 1_554 S
C470 N477 1.356 . S
C471 C470 1.363 1_556 S
C471 C474 1.363 . S
N472 C474 1.356 . S
N472 H484 0.984 . S
N472 H485 0.985 . S
N473 C475 1.356 1_554 S
N473 H478 0.984 1_554 S
N473 H479 0.985 . S
C474 C468 1.379 . S
C474 C471 1.363 . S
C474 N472 1.356 . S
C475 C469 1.363 . S
C475 C470 1.379 1_556 S
C475 N473 1.356 1_556 S
N476 C468 1.356 . S
N476 H482 0.984 . S
N476 H483 0.984 . S
N477 C470 1.356 . S
N477 H480 0.984 . S
N477 H481 0.985 . S
H478 N473 0.984 1_556 S
H479 N473 0.985 . S
H480 N477 0.984 . S
H481 N477 0.985 . S
H482 N476 0.984 . S
H483 N476 0.984 . S
H484 N472 0.984 . S
H485 N472 0.985 . S
C486 C487 1.363 . S
C486 C492 1.379 . S
C486 N494 1.356 . S
C487 C486 1.363 . S
C487 C493 1.363 . S
C488 C489 1.363 . S
C488 C493 1.379 . S
C488 N495 1.356 1_556 S
C489 C488 1.363 . S
C489 C492 1.363 . S
N490 C492 1.356 . S
N490 H502 0.984 . S
N490 H503 0.985 . S
N491 C493 1.356 . S
N491 H496 0.984 . S
N491 H497 0.985 1_556 S
C492 C486 1.379 . S
C492 C489 1.363 . S
C492 N490 1.356 . S
C493 C487 1.363 . S
C493 C488 1.379 . S
C493 N491 1.356 . S
N494 C486 1.356 . S
N494 H500 0.984 . S
N494 H501 0.984 . S
N495 C488 1.356 1_554 S
N495 H498 0.984 . S
N495 H499 0.985 . S
H496 N491 0.984 . S
H497 N491 0.985 1_554 S
H498 N495 0.984 . S
H499 N495 0.985 . S
H500 N494 0.984 . S
H501 N494 0.984 . S
H502 N490 0.984 . S
H503 N490 0.985 . S
C504 C505 1.363 1_554 S
C504 C510 1.379 . S
C504 N512 1.356 . S
C505 C504 1.363 1_556 S
C505 C511 1.363 . S
C506 C507 1.363 . S
C506 C511 1.379 . S
C506 N513 1.356 . S
C507 C506 1.363 . S
C507 C510 1.363 1_556 S
N508 C510 1.356 . S
N508 H520 0.984 . S
N508 H521 0.985 . S
N509 C511 1.356 . S
N509 H514 0.984 . S
N509 H515 0.985 . S
C510 C504 1.379 . S
C510 C507 1.363 1_554 S
C510 N508 1.356 . S
C511 C505 1.363 . S
C511 C506 1.379 . S
C511 N509 1.356 . S
N512 C504 1.356 . S
N512 H518 0.984 . S
N512 H519 0.984 . S
N513 C506 1.356 . S
N513 H516 0.984 . S
N513 H517 0.985 . S
H514 N509 0.984 . S
H515 N509 0.985 . S
H516 N513 0.984 . S
H517 N513 0.985 . S
H518 N512 0.984 . S
H519 N512 0.984 . S
H520 N508 0.984 . S
H521 N508 0.985 . S
C522 C523 1.363 . S
C522 C528 1.379 . S
C522 N530 1.356 . S
C523 C522 1.363 . S
C523 C529 1.363 . S
C524 C525 1.354 1_554 S
C524 C529 1.375 1_554 S
C524 N531 1.367 . S
C525 C524 1.354 1_556 S
C525 C528 1.363 . S
N526 C528 1.356 . S
N526 H538 0.984 . S
N526 H539 0.985 . S
N527 C529 1.356 1_554 S
N527 H532 0.984 . S
N527 H533 0.985 . S
C528 C522 1.379 . S
C528 C525 1.363 . S
C528 N526 1.356 . S
C529 C523 1.363 . S
C529 C524 1.375 1_556 S
C529 N527 1.356 1_556 S
N530 C522 1.356 . S
N530 H536 0.984 . S
N530 H537 0.984 . S
N531 C524 1.367 . S
N531 H534 0.984 . S
N531 H535 0.985 . S
H532 N527 0.984 . S
H533 N527 0.985 . S
H534 N531 0.984 . S
H535 N531 0.985 . S
H536 N530 0.984 . S
H537 N530 0.984 . S
H538 N526 0.984 . S
H539 N526 0.985 . S
C540 C541 1.363 . S
C540 C546 1.379 . S
C540 N548 1.356 1_556 S
C541 C540 1.363 . S
C541 C547 1.363 . S
C542 C543 1.363 . S
C542 C547 1.379 . S
C542 N549 1.356 . S
C543 C542 1.363 . S
C543 C546 1.363 . S
N544 C546 1.356 1_554 S
N544 H556 0.984 . S
N544 H557 0.985 . S
N545 C547 1.356 . S
N545 H550 0.984 . S
N545 H551 0.985 . S
C546 C540 1.379 . S
C546 C543 1.363 . S
C546 N544 1.356 1_556 S
C547 C541 1.363 . S
C547 C542 1.379 . S
C547 N545 1.356 . S
N548 C540 1.356 1_554 S
N548 H554 0.984 . S
N548 H555 0.984 1_554 S
N549 C542 1.356 . S
N549 H552 0.984 . S
N549 H553 0.985 . S
H550 N545 0.984 . S
H551 N545 0.985 . S
H552 N549 0.984 . S
H553 N549 0.985 . S
H554 N548 0.984 . S
H555 N548 0.984 1_556 S
H556 N544 0.984 . S
H557 N544 0.985 . S
C558 C559 1.363 . S
C558 C564 1.379 . S
C558 N566 1.356 . S
C559 C558 1.363 . S
C559 C565 1.363 1_556 S
C560 C561 1.363 1_554 S
C560 C565 1.379 . S
C560 N567 1.356 . S
C561 C560 1.363 1_556 S
C561 C564 1.363 . S
N562 C564 1.356 . S
N562 H574 0.984 . S
N562 H575 0.985 . S
N563 C565 1.356 . S
N563 H568 0.984 . S
N563 H569 0.985 . S
C564 C558 1.379 . S
C564 C561 1.363 . S
C564 N562 1.356 . S
C565 C559 1.363 1_554 S
C565 C560 1.379 . S
C565 N563 1.356 . S
N566 C558 1.356 . S
N566 H572 0.984 . S
N566 H573 0.984 . S
N567 C560 1.356 . S
N567 H570 0.984 . S
N567 H571 0.985 . S
H568 N563 0.984 . S
H569 N563 0.985 . S
H570 N567 0.984 . S
H571 N567 0.985 . S
H572 N566 0.984 . S
H573 N566 0.984 . S
H574 N562 0.984 . S
H575 N562 0.985 . S
C576 C577 1.363 . S
C576 C582 1.379 . S
C576 N584 1.356 . S
C577 C576 1.363 . S
C577 C583 1.363 . S
C578 C579 1.363 . S
C578 C583 1.379 . S
C578 N585 1.356 1_554 S
C579 C578 1.363 . S
C579 C582 1.363 . S
N580 C582 1.356 . S
N580 H592 0.984 . S
N580 H593 0.985 . S
N581 C583 1.356 1_556 S
N581 H586 0.984 1_556 S
N581 H587 0.985 . S
C582 C576 1.379 . S
C582 C579 1.363 . S
C582 N580 1.356 . S
C583 C577 1.363 . S
C583 C578 1.379 . S
C583 N581 1.356 1_554 S
N584 C576 1.356 . S
N584 H590 0.984 . S
N584 H591 0.984 . S
N585 C578 1.356 1_556 S
N585 H588 0.984 . S
N585 H589 0.985 . S
H586 N581 0.984 1_554 S
H587 N581 0.985 . S
H588 N585 0.984 . S
H589 N585 0.985 . S
H590 N584 0.984 . S
H591 N584 0.984 . S
H592 N580 0.984 . S
H593 N580 0.985 . S
C594 C595 1.363 . S
C594 C600 1.379 . S
C594 N602 1.356 . S
C595 C594 1.363 . S
C595 C601 1.363 . S
C596 C597 1.363 . S
C596 C601 1.379 . S
C596 N603 1.356 . S
C597 C596 1.363 . S
C597 C600 1.363 . S
N598 C600 1.356 . S
N598 H610 0.984 . S
N598 H611 0.985 . S
N599 C601 1.356 . S
N599 H604 0.984 . S
N599 H605 0.985 . S
C600 C594 1.379 . S
C600 C597 1.363 . S
C600 N598 1.356 . S
C601 C595 1.363 . S
C601 C596 1.379 . S
C601 N599 1.356 . S
N602 C594 1.356 . S
N602 H608 0.984 . S
N602 H609 0.984 . S
N603 C596 1.356 . S
N603 H606 0.984 . S
N603 H607 0.985 . S
H604 N599 0.984 . S
H605 N599 0.985 . S
H606 N603 0.984 . S
H607 N603 0.985 . S
H608 N602 0.984 . S
H609 N602 0.984 . S
H610 N598 0.984 . S
H611 N598 0.985 . S
C612 C613 1.363 . S
C612 C618 1.379 . S
C612 N620 1.356 . S
C613 C612 1.363 . S
C613 C619 1.386 . S
C614 C615 1.363 1_556 S
C614 C619 1.375 1_556 S
C614 N621 1.356 . S
C615 C614 1.363 1_554 S
C615 C618 1.363 . S
N616 C618 1.356 . S
N616 H628 0.984 . S
N616 H629 0.985 . S
N617 C619 1.343 1_556 S
N617 H622 0.984 . S
N617 H623 0.985 . S
C618 C612 1.379 . S
C618 C615 1.363 . S
C618 N616 1.356 . S
C619 C613 1.386 . S
C619 C614 1.375 1_554 S
C619 N617 1.343 1_554 S
N620 C612 1.356 . S
N620 H626 0.984 . S
N620 H627 0.984 . S
N621 C614 1.356 . S
N621 H624 0.984 . S
N621 H625 0.985 . S
H622 N617 0.984 . S
H623 N617 0.985 . S
H624 N621 0.984 . S
H625 N621 0.985 . S
H626 N620 0.984 . S
H627 N620 0.984 . S
H628 N616 0.984 . S
H629 N616 0.985 . S
C630 C631 1.363 . S
C630 C636 1.379 . S
C630 N638 1.356 . S
C631 C630 1.363 . S
C631 C637 1.363 . S
C632 C633 1.363 . S
C632 C637 1.379 1_455 S
C632 N639 1.356 . S
C633 C632 1.363 . S
C633 C636 1.363 1_455 S
N634 C636 1.356 1_455 S
N634 H646 0.984 1_455 S
N634 H647 0.985 . S
N635 C637 1.356 . S
N635 H640 0.984 . S
N635 H641 0.985 . S
C636 C630 1.379 . S
C636 C633 1.363 1_655 S
C636 N634 1.356 1_655 S
C637 C631 1.363 . S
C637 C632 1.379 1_655 S
C637 N635 1.356 . S
N638 C630 1.356 . S
N638 H644 0.984 . S
N638 H645 0.984 . S
N639 C632 1.356 . S
N639 H642 0.984 . S
N639 H643 0.985 . S
H640 N635 0.984 . S
H641 N635 0.985 . S
H642 N639 0.984 . S
H643 N639 0.985 . S
H644 N638 0.984 . S
H645 N638 0.984 . S
H646 N634 0.984 1_655 S
H647 N634 0.985 . S
C648 C649 1.363 . S
C648 C654 1.379 . S
C648 N656 1.356 . S
C649 C648 1.363 . S
C649 C655 1.363 . S
C650 C651 1.363 . S
C650 C655 1.379 . S
C650 N657 1.356 . S
C651 C650 1.363 . S
C651 C654 1.363 . S
N652 C654 1.356 . S
N652 H664 0.984 . S
N652 H665 0.985 . S
N653 C655 1.356 . S
N653 H658 0.984 . S
N653 H659 0.985 . S
C654 C648 1.379 . S
C654 C651 1.363 . S
C654 N652 1.356 . S
C655 C649 1.363 . S
C655 C650 1.379 . S
C655 N653 1.356 . S
N656 C648 1.356 . S
N656 H662 0.984 . S
N656 H663 0.984 . S
N657 C650 1.356 . S
N657 H660 0.984 . S
N657 H661 0.985 . S
H658 N653 0.984 . S
H659 N653 0.985 . S
H660 N657 0.984 . S
H661 N657 0.985 . S
H662 N656 0.984 . S
H663 N656 0.984 . S
H664 N652 0.984 . S
H665 N652 0.985 . S
C666 C667 1.363 . S
C666 C672 1.379 1_545 S
C666 N674 1.356 . S
C667 C666 1.363 . S
C667 C673 1.363 . S
C668 C669 1.363 . S
C668 C673 1.379 1_565 S
C668 N675 1.356 . S
C669 C668 1.363 . S
C669 C672 1.363 . S
N670 C672 1.356 . S
N670 H682 0.984 . S
N670 H683 0.985 . S
N671 C673 1.356 . S
N671 H676 0.984 . S
N671 H677 0.985 . S
C672 C666 1.379 1_565 S
C672 C669 1.363 . S
C672 N670 1.356 . S
C673 C667 1.363 . S
C673 C668 1.379 1_545 S
C673 N671 1.356 . S
N674 C666 1.356 . S
N674 H680 0.984 . S
N674 H681 0.984 . S
N675 C668 1.356 . S
N675 H678 0.984 . S
N675 H679 0.985 . S
H676 N671 0.984 . S
H677 N671 0.985 . S
H678 N675 0.984 . S
H679 N675 0.985 . S
H680 N674 0.984 . S
H681 N674 0.984 . S
H682 N670 0.984 . S
H683 N670 0.985 . S
C684 C685 1.363 . S
C684 C690 1.379 . S
C684 N692 1.356 . S
C685 C684 1.363 . S
C685 C691 1.363 . S
C686 C687 1.363 . S
C686 C691 1.379 . S
C686 N693 1.356 . S
C687 C686 1.363 . S
C687 C690 1.363 . S
N688 C690 1.356 . S
N688 H700 0.984 . S
N688 H701 0.985 . S
N689 C691 1.356 . S
N689 H694 0.984 . S
N689 H695 0.985 . S
C690 C684 1.379 . S
C690 C687 1.363 . S
C690 N688 1.356 . S
C691 C685 1.363 . S
C691 C686 1.379 . S
C691 N689 1.356 . S
N692 C684 1.356 . S
N692 H698 0.984 . S
N692 H699 0.984 . S
N693 C686 1.356 . S
N693 H696 0.984 . S
N693 H697 0.985 . S
H694 N689 0.984 . S
H695 N689 0.985 . S
H696 N693 0.984 . S
H697 N693 0.985 . S
H698 N692 0.984 . S
H699 N692 0.984 . S
H700 N688 0.984 . S
H701 N688 0.985 . S
C702 C703 1.363 . S
C702 C708 1.379 . S
C702 N710 1.356 . S
C703 C702 1.363 . S
C703 C709 1.363 . S
C704 C705 1.363 . S
C704 C709 1.379 . S
C704 N711 1.356 . S
C705 C704 1.363 . S
C705 C708 1.363 . S
N706 C708 1.356 . S
N706 H718 0.984 . S
N706 H719 0.985 . S
N707 C709 1.356 . S
N707 H712 0.984 . S
N707 H713 0.985 . S
C708 C702 1.379 . S
C708 C705 1.363 . S
C708 N706 1.356 . S
C709 C703 1.363 . S
C709 C704 1.379 . S
C709 N707 1.356 . S
N710 C702 1.356 . S
N710 H716 0.984 . S
N710 H717 0.984 . S
N711 C704 1.356 . S
N711 H714 0.984 . S
N711 H715 0.985 . S
H712 N707 0.984 . S
H713 N707 0.985 . S
H714 N711 0.984 . S
H715 N711 0.985 . S
H716 N710 0.984 . S
H717 N710 0.984 . S
H718 N706 0.984 . S
H719 N706 0.985 . S
C720 C721 1.363 . S
C720 C726 1.379 . S
C720 N728 1.356 . S
C721 C720 1.363 . S
C721 C727 1.363 . S
C722 C723 1.363 . S
C722 C727 1.379 . S
C722 N729 1.356 . S
C723 C722 1.363 . S
C723 C726 1.363 . S
N724 C726 1.356 . S
N724 H736 0.984 . S
N724 H737 0.985 . S
N725 C727 1.356 . S
N725 H730 0.984 . S
N725 H731 0.985 . S
C726 C720 1.379 . S
C726 C723 1.363 . S
C726 N724 1.356 . S
C727 C721 1.363 . S
C727 C722 1.379 . S
C727 N725 1.356 . S
N728 C720 1.356 . S
N728 H734 0.984 . S
N728 H735 0.984 . S
N729 C722 1.356 . S
N729 H732 0.984 . S
N729 H733 0.985 . S
H730 N725 0.984 . S
H731 N725 0.985 . S
H732 N729 0.984 . S
H733 N729 0.985 . S
H734 N728 0.984 . S
H735 N728 0.984 . S
H736 N724 0.984 . S
H737 N724 0.985 . S
C738 C739 1.363 . S
C738 C744 1.379 . S
C738 N746 1.356 . S
C739 C738 1.363 . S
C739 C745 1.363 . S
C740 C741 1.363 . S
C740 C745 1.379 . S
C740 N747 1.356 . S
C741 C740 1.363 . S
C741 C744 1.363 . S
N742 C744 1.356 . S
N742 H754 0.984 . S
N742 H755 0.985 . S
N743 C745 1.356 . S
N743 H748 0.984 . S
N743 H749 0.985 . S
C744 C738 1.379 . S
C744 C741 1.363 . S
C744 N742 1.356 . S
C745 C739 1.363 . S
C745 C740 1.379 . S
C745 N743 1.356 . S
N746 C738 1.356 . S
N746 H752 0.984 . S
N746 H753 0.984 . S
N747 C740 1.356 . S
N747 H750 0.984 . S
N747 H751 0.985 . S
H748 N743 0.984 . S
H749 N743 0.985 . S
H750 N747 0.984 . S
H751 N747 0.985 . S
H752 N746 0.984 . S
H753 N746 0.984 . S
H754 N742 0.984 . S
H755 N742 0.985 . S
C756 C757 1.363 . S
C756 C762 1.379 . S
C756 N764 1.356 . S
C757 C756 1.363 . S
C757 C763 1.363 . S
C758 C759 1.363 . S
C758 C763 1.379 . S
C758 N765 1.356 . S
C759 C758 1.363 . S
C759 C762 1.363 . S
N760 C762 1.356 . S
N760 H772 0.984 . S
N760 H773 0.985 . S
N761 C763 1.356 . S
N761 H766 0.984 . S
N761 H767 0.985 . S
C762 C756 1.379 . S
C762 C759 1.363 . S
C762 N760 1.356 . S
C763 C757 1.363 . S
C763 C758 1.379 . S
C763 N761 1.356 . S
N764 C756 1.356 . S
N764 H770 0.984 . S
N764 H771 0.984 . S
N765 C758 1.356 . S
N765 H768 0.984 . S
N765 H769 0.985 . S
H766 N761 0.984 . S
H767 N761 0.985 . S
H768 N765 0.984 . S
H769 N765 0.985 . S
H770 N764 0.984 . S
H771 N764 0.984 . S
H772 N760 0.984 . S
H773 N760 0.985 . S
C774 C775 1.363 . S
C774 C780 1.379 . S
C774 N782 1.356 . S
C775 C774 1.363 . S
C775 C781 1.363 . S
C776 C777 1.363 . S
C776 C781 1.379 . S
C776 N783 1.356 . S
C777 C776 1.363 . S
C777 C780 1.363 . S
N778 C780 1.356 . S
N778 H790 0.984 . S
N778 H791 0.985 . S
N779 C781 1.356 . S
N779 H784 0.984 . S
N779 H785 0.985 . S
C780 C774 1.379 . S
C780 C777 1.363 . S
C780 N778 1.356 . S
C781 C775 1.363 . S
C781 C776 1.379 . S
C781 N779 1.356 . S
N782 C774 1.356 . S
N782 H788 0.984 . S
N782 H789 0.984 . S
N783 C776 1.356 . S
N783 H786 0.984 . S
N783 H787 0.985 . S
H784 N779 0.984 . S
H785 N779 0.985 . S
H786 N783 0.984 . S
H787 N783 0.985 . S
H788 N782 0.984 . S
H789 N782 0.984 . S
H790 N778 0.984 . S
H791 N778 0.985 . S
C792 C793 1.363 . S
C792 C798 1.379 . S
C792 N800 1.356 1_565 S
C793 C792 1.363 . S
C793 C799 1.363 . S
C794 C795 1.363 . S
C794 C799 1.379 . S
C794 N801 1.356 . S
C795 C794 1.363 . S
C795 C798 1.363 . S
N796 C798 1.356 . S
N796 H808 0.984 . S
N796 H809 0.985 . S
N797 C799 1.356 . S
N797 H802 0.984 1_565 S
N797 H803 0.985 . S
C798 C792 1.379 . S
C798 C795 1.363 . S
C798 N796 1.356 . S
C799 C793 1.363 . S
C799 C794 1.379 . S
C799 N797 1.356 . S
N800 C792 1.356 1_545 S
N800 H806 0.984 . S
N800 H807 0.984 . S
N801 C794 1.356 . S
N801 H804 0.984 . S
N801 H805 0.985 . S
H802 N797 0.984 1_545 S
H803 N797 0.985 . S
H804 N801 0.984 . S
H805 N801 0.985 . S
H806 N800 0.984 . S
H807 N800 0.984 . S
H808 N796 0.984 . S
H809 N796 0.985 . S
C810 C811 1.363 1_455 S
C810 C816 1.379 . S
C810 N818 1.356 1_455 S
C811 C810 1.363 1_655 S
C811 C817 1.363 1_655 S
C812 C813 1.363 . S
C812 C817 1.379 . S
C812 N819 1.356 . S
C813 C812 1.363 . S
C813 C816 1.363 . S
N814 C816 1.356 . S
N814 H826 0.984 . S
N814 H827 0.985 . S
N815 C817 1.356 1_655 S
N815 H820 0.984 . S
N815 H821 0.985 1_655 S
C816 C810 1.379 . S
C816 C813 1.363 . S
C816 N814 1.356 . S
C817 C811 1.363 1_455 S
C817 C812 1.379 . S
C817 N815 1.356 1_455 S
N818 C810 1.356 1_655 S
N818 H824 0.984 . S
N818 H825 0.984 . S
N819 C812 1.356 . S
N819 H822 0.984 . S
N819 H823 0.985 . S
H820 N815 0.984 . S
H821 N815 0.985 1_455 S
H822 N819 0.984 . S
H823 N819 0.985 . S
H824 N818 0.984 . S
H825 N818 0.984 . S
H826 N814 0.984 . S
H827 N814 0.985 . S
C828 C829 1.363 . S
C828 C834 1.379 . S
C828 N836 1.356 . S
C829 C828 1.363 . S
C829 C835 1.363 . S
C830 C831 1.363 . S
C830 C835 1.379 . S
C830 N837 1.356 . S
C831 C830 1.363 . S
C831 C834 1.363 . S
N832 C834 1.356 . S
N832 H844 0.984 . S
N832 H845 0.985 . S
N833 C835 1.356 . S
N833 H838 0.984 . S
N833 H839 0.985 . S
C834 C828 1.379 . S
C834 C831 1.363 . S
C834 N832 1.356 . S
C835 C829 1.363 . S
C835 C830 1.379 . S
C835 N833 1.356 . S
N836 C828 1.356 . S
N836 H842 0.984 . S
N836 H843 0.984 . S
N837 C830 1.356 . S
N837 H840 0.984 . S
N837 H841 0.985 . S
H838 N833 0.984 . S
H839 N833 0.985 . S
H840 N837 0.984 . S
H841 N837 0.985 . S
H842 N836 0.984 . S
H843 N836 0.984 . S
H844 N832 0.984 . S
H845 N832 0.985 . S
C846 C847 1.363 . S
C846 C852 1.379 . S
C846 N854 1.356 . S
C847 C846 1.363 . S
C847 C853 1.363 . S
C848 C849 1.363 . S
C848 C853 1.379 . S
C848 N855 1.356 . S
C849 C848 1.363 . S
C849 C852 1.363 . S
N850 C852 1.356 . S
N850 H862 0.984 . S
N850 H863 0.985 . S
N851 C853 1.356 . S
N851 H856 0.984 . S
N851 H857 0.985 . S
C852 C846 1.379 . S
C852 C849 1.363 . S
C852 N850 1.356 . S
C853 C847 1.363 . S
C853 C848 1.379 . S
C853 N851 1.356 . S
N854 C846 1.356 . S
N854 H860 0.984 . S
N854 H861 0.984 . S
N855 C848 1.356 . S
N855 H858 0.984 . S
N855 H859 0.985 . S
H856 N851 0.984 . S
H857 N851 0.985 . S
H858 N855 0.984 . S
H859 N855 0.985 . S
H860 N854 0.984 . S
H861 N854 0.984 . S
H862 N850 0.984 . S
H863 N850 0.985 . S
C864 C865 1.363 . S
C864 C870 1.379 . S
C864 N872 1.356 . S
C865 C864 1.363 . S
C865 C871 1.363 . S
C866 C867 1.363 . S
C866 C871 1.379 . S
C866 N873 1.356 . S
C867 C866 1.363 . S
C867 C870 1.363 . S
N868 C870 1.356 . S
N868 H880 0.984 . S
N868 H881 0.985 . S
N869 C871 1.356 . S
N869 H874 0.984 . S
N869 H875 0.985 . S
C870 C864 1.379 . S
C870 C867 1.363 . S
C870 N868 1.356 . S
C871 C865 1.363 . S
C871 C866 1.379 . S
C871 N869 1.356 . S
N872 C864 1.356 . S
N872 H878 0.984 . S
N872 H879 0.984 . S
N873 C866 1.356 . S
N873 H876 0.984 . S
N873 H877 0.985 . S
H874 N869 0.984 . S
H875 N869 0.985 . S
H876 N873 0.984 . S
H877 N873 0.985 . S
H878 N872 0.984 . S
H879 N872 0.984 . S
H880 N868 0.984 . S
H881 N868 0.985 . S
C882 C883 1.363 . S
C882 C888 1.379 . S
C882 N890 1.356 . S
C883 C882 1.363 . S
C883 C889 1.363 . S
C884 C885 1.363 . S
C884 C889 1.379 . S
C884 N891 1.356 . S
C885 C884 1.363 . S
C885 C888 1.363 . S
N886 C888 1.356 . S
N886 H898 0.984 . S
N886 H899 0.985 . S
N887 C889 1.356 . S
N887 H892 0.984 . S
N887 H893 0.985 . S
C888 C882 1.379 . S
C888 C885 1.363 . S
C888 N886 1.356 . S
C889 C883 1.363 . S
C889 C884 1.379 . S
C889 N887 1.356 . S
N890 C882 1.356 . S
N890 H896 0.984 . S
N890 H897 0.984 . S
N891 C884 1.356 . S
N891 H894 0.984 . S
N891 H895 0.985 . S
H892 N887 0.984 . S
H893 N887 0.985 . S
H894 N891 0.984 . S
H895 N891 0.985 . S
H896 N890 0.984 . S
H897 N890 0.984 . S
H898 N886 0.984 . S
H899 N886 0.985 . S
C900 C901 1.363 . S
C900 C906 1.379 1_565 S
C900 N908 1.356 . S
C901 C900 1.363 . S
C901 C907 1.363 . S
C902 C903 1.363 . S
C902 C907 1.379 1_545 S
C902 N909 1.356 . S
C903 C902 1.363 . S
C903 C906 1.363 . S
N904 C906 1.356 . S
N904 H916 0.984 . S
N904 H917 0.985 . S
N905 C907 1.356 . S
N905 H910 0.984 . S
N905 H911 0.985 . S
C906 C900 1.379 1_545 S
C906 C903 1.363 . S
C906 N904 1.356 . S
C907 C901 1.363 . S
C907 C902 1.379 1_565 S
C907 N905 1.356 . S
N908 C900 1.356 . S
N908 H914 0.984 . S
N908 H915 0.984 . S
N909 C902 1.356 . S
N909 H912 0.984 . S
N909 H913 0.985 . S
H910 N905 0.984 . S
H911 N905 0.985 . S
H912 N909 0.984 . S
H913 N909 0.985 . S
H914 N908 0.984 . S
H915 N908 0.984 . S
H916 N904 0.984 . S
H917 N904 0.985 . S
C918 C919 1.363 . S
C918 C924 1.379 . S
C918 N926 1.356 . S
C919 C918 1.363 . S
C919 C925 1.363 . S
C920 C921 1.363 . S
C920 C925 1.379 1_655 S
C920 N927 1.356 . S
C921 C920 1.363 . S
C921 C924 1.363 1_655 S
N922 C924 1.356 . S
N922 H934 0.984 . S
N922 H935 0.985 1_455 S
N923 C925 1.356 . S
N923 H928 0.984 . S
N923 H929 0.985 . S
C924 C918 1.379 . S
C924 C921 1.363 1_455 S
C924 N922 1.356 . S
C925 C919 1.363 . S
C925 C920 1.379 1_455 S
C925 N923 1.356 . S
N926 C918 1.356 . S
N926 H932 0.984 . S
N926 H933 0.984 . S
N927 C920 1.356 . S
N927 H930 0.984 . S
N927 H931 0.985 . S
H928 N923 0.984 . S
H929 N923 0.985 . S
H930 N927 0.984 . S
H931 N927 0.985 . S
H932 N926 0.984 . S
H933 N926 0.984 . S
H934 N922 0.984 . S
H935 N922 0.985 1_655 S
C936 C937 1.363 . S
C936 C942 1.379 . S
C936 N944 1.356 . S
C937 C936 1.363 . S
C937 C943 1.363 . S
C938 C939 1.363 . S
C938 C943 1.379 . S
C938 N945 1.356 . S
C939 C938 1.363 . S
C939 C942 1.363 . S
N940 C942 1.356 . S
N940 H952 0.984 . S
N940 H953 0.985 . S
N941 C943 1.356 . S
N941 H946 0.984 . S
N941 H947 0.985 . S
C942 C936 1.379 . S
C942 C939 1.363 . S
C942 N940 1.356 . S
C943 C937 1.363 . S
C943 C938 1.379 . S
C943 N941 1.356 . S
N944 C936 1.356 . S
N944 H950 0.984 . S
N944 H951 0.984 . S
N945 C938 1.356 . S
N945 H948 0.984 . S
N945 H949 0.985 . S
H946 N941 0.984 . S
H947 N941 0.985 . S
H948 N945 0.984 . S
H949 N945 0.985 . S
H950 N944 0.984 . S
H951 N944 0.984 . S
H952 N940 0.984 . S
H953 N940 0.985 . S
C954 C955 1.363 . S
C954 C960 1.379 1_455 S
C954 N962 1.356 . S
C955 C954 1.363 . S
C955 C961 1.363 1_455 S
C956 C957 1.363 . S
C956 C961 1.379 . S
C956 N963 1.356 . S
C957 C956 1.363 . S
C957 C960 1.363 . S
N958 C960 1.356 . S
N958 H970 0.984 . S
N958 H971 0.985 . S
N959 C961 1.356 1_455 S
N959 H964 0.984 . S
N959 H965 0.985 . S
C960 C954 1.379 1_655 S
C960 C957 1.363 . S
C960 N958 1.356 . S
C961 C955 1.363 1_655 S
C961 C956 1.379 . S
C961 N959 1.356 1_655 S
N962 C954 1.356 . S
N962 H968 0.984 . S
N962 H969 0.984 . S
N963 C956 1.356 . S
N963 H966 0.984 . S
N963 H967 0.985 . S
H964 N959 0.984 . S
H965 N959 0.985 . S
H966 N963 0.984 . S
H967 N963 0.985 . S
H968 N962 0.984 . S
H969 N962 0.984 . S
H970 N958 0.984 . S
H971 N958 0.985 . S
C972 C973 1.363 . S
C972 C978 1.379 . S
C972 N980 1.356 . S
C973 C972 1.363 . S
C973 C979 1.363 . S
C974 C975 1.363 . S
C974 C979 1.379 . S
C974 N981 1.356 . S
C975 C974 1.363 . S
C975 C978 1.363 . S
N976 C978 1.356 . S
N976 H988 0.984 . S
N976 H989 0.985 . S
N977 C979 1.356 . S
N977 H982 0.984 . S
N977 H983 0.985 . S
C978 C972 1.379 . S
C978 C975 1.363 . S
C978 N976 1.356 . S
C979 C973 1.363 . S
C979 C974 1.379 . S
C979 N977 1.356 . S
N980 C972 1.356 . S
N980 H986 0.984 . S
N980 H987 0.984 . S
N981 C974 1.356 . S
N981 H984 0.984 . S
N981 H985 0.985 . S
H982 N977 0.984 . S
H983 N977 0.985 . S
H984 N981 0.984 . S
H985 N981 0.985 . S
H986 N980 0.984 . S
H987 N980 0.984 . S
H988 N976 0.984 . S
H989 N976 0.985 . S
C990 C991 1.363 1_545 S
C990 C996 1.379 . S
C990 N998 1.356 1_545 S
C991 C990 1.363 1_565 S
C991 C997 1.363 1_565 S
C992 C993 1.363 . S
C992 C997 1.379 . S
C992 N999 1.356 . S
C993 C992 1.363 . S
C993 C996 1.363 . S
N994 C996 1.356 . S
N994 H1006 0.984 . S
N994 H1007 0.985 . S
N995 C997 1.356 1_565 S
N995 H1000 0.984 . S
N995 H1001 0.985 . S
C996 C990 1.379 . S
C996 C993 1.363 . S
C996 N994 1.356 . S
C997 C991 1.363 1_545 S
C997 C992 1.379 . S
C997 N995 1.356 1_545 S
N998 C990 1.356 1_565 S
N998 H1004 0.984 1_565 S
N998 H1005 0.984 . S
N999 C992 1.356 . S
N999 H1002 0.984 . S
N999 H1003 0.985 . S
H1000 N995 0.984 . S
H1001 N995 0.985 . S
H1002 N999 0.984 . S
H1003 N999 0.985 . S
H1004 N998 0.984 1_545 S
H1005 N998 0.984 . S
H1006 N994 0.984 . S
H1007 N994 0.985 . S
C1008 C1009 1.363 . S
C1008 C1014 1.379 . S
C1008 N1016 1.356 . S
C1009 C1008 1.363 . S
C1009 C1015 1.363 . S
C1010 C1011 1.363 . S
C1010 C1015 1.379 . S
C1010 N1017 1.356 . S
C1011 C1010 1.363 . S
C1011 C1014 1.363 . S
N1012 C1014 1.356 . S
N1012 H1024 0.984 . S
N1012 H1025 0.985 . S
N1013 C1015 1.356 . S
N1013 H1018 0.984 . S
N1013 H1019 0.985 . S
C1014 C1008 1.379 . S
C1014 C1011 1.363 . S
C1014 N1012 1.356 . S
C1015 C1009 1.363 . S
C1015 C1010 1.379 . S
C1015 N1013 1.356 . S
N1016 C1008 1.356 . S
N1016 H1022 0.984 . S
N1016 H1023 0.984 . S
N1017 C1010 1.356 . S
N1017 H1020 0.984 . S
N1017 H1021 0.985 . S
H1018 N1013 0.984 . S
H1019 N1013 0.985 . S
H1020 N1017 0.984 . S
H1021 N1017 0.985 . S
H1022 N1016 0.984 . S
H1023 N1016 0.984 . S
H1024 N1012 0.984 . S
H1025 N1012 0.985 . S
C1026 C1027 1.363 . S
C1026 C1032 1.379 . S
C1026 N1034 1.356 . S
C1027 C1026 1.363 . S
C1027 C1033 1.363 . S
C1028 C1029 1.363 . S
C1028 C1033 1.379 . S
C1028 N1035 1.356 . S
C1029 C1028 1.363 . S
C1029 C1032 1.363 . S
N1030 C1032 1.356 . S
N1030 H1042 0.984 . S
N1030 H1043 0.985 . S
N1031 C1033 1.356 . S
N1031 H1036 0.984 . S
N1031 H1037 0.985 . S
C1032 C1026 1.379 . S
C1032 C1029 1.363 . S
C1032 N1030 1.356 . S
C1033 C1027 1.363 . S
C1033 C1028 1.379 . S
C1033 N1031 1.356 . S
N1034 C1026 1.356 . S
N1034 H1040 0.984 . S
N1034 H1041 0.984 . S
N1035 C1028 1.356 . S
N1035 H1038 0.984 . S
N1035 H1039 0.985 . S
H1036 N1031 0.984 . S
H1037 N1031 0.985 . S
H1038 N1035 0.984 . S
H1039 N1035 0.985 . S
H1040 N1034 0.984 . S
H1041 N1034 0.984 . S
H1042 N1030 0.984 . S
H1043 N1030 0.985 . S
C1044 C1045 1.363 . S
C1044 C1050 1.379 . S
C1044 N1052 1.356 . S
C1045 C1044 1.363 . S
C1045 C1051 1.363 . S
C1046 C1047 1.363 . S
C1046 C1051 1.379 . S
C1046 N1053 1.356 . S
C1047 C1046 1.363 . S
C1047 C1050 1.363 . S
N1048 C1050 1.356 . S
N1048 H1060 0.984 . S
N1048 H1061 0.985 . S
N1049 C1051 1.356 . S
N1049 H1054 0.984 . S
N1049 H1055 0.985 . S
C1050 C1044 1.379 . S
C1050 C1047 1.363 . S
C1050 N1048 1.356 . S
C1051 C1045 1.363 . S
C1051 C1046 1.379 . S
C1051 N1049 1.356 . S
N1052 C1044 1.356 . S
N1052 H1058 0.984 . S
N1052 H1059 0.984 . S
N1053 C1046 1.356 . S
N1053 H1056 0.984 . S
N1053 H1057 0.985 . S
H1054 N1049 0.984 . S
H1055 N1049 0.985 . S
H1056 N1053 0.984 . S
H1057 N1053 0.985 . S
H1058 N1052 0.984 . S
H1059 N1052 0.984 . S
H1060 N1048 0.984 . S
H1061 N1048 0.985 . S
C1062 C1063 1.363 . S
C1062 C1068 1.379 . S
C1062 N1070 1.356 . S
C1063 C1062 1.363 . S
C1063 C1069 1.363 . S
C1064 C1065 1.363 . S
C1064 C1069 1.379 . S
C1064 N1071 1.356 1_565 S
C1065 C1064 1.363 . S
C1065 C1068 1.363 . S
N1066 C1068 1.356 . S
N1066 H1078 0.984 . S
N1066 H1079 0.985 . S
N1067 C1069 1.356 . S
N1067 H1072 0.984 . S
N1067 H1073 0.985 1_565 S
C1068 C1062 1.379 . S
C1068 C1065 1.363 . S
C1068 N1066 1.356 . S
C1069 C1063 1.363 . S
C1069 C1064 1.379 . S
C1069 N1067 1.356 . S
N1070 C1062 1.356 . S
N1070 H1076 0.984 . S
N1070 H1077 0.984 . S
N1071 C1064 1.356 1_545 S
N1071 H1074 0.984 . S
N1071 H1075 0.985 . S
H1072 N1067 0.984 . S
H1073 N1067 0.985 1_545 S
H1074 N1071 0.984 . S
H1075 N1071 0.985 . S
H1076 N1070 0.984 . S
H1077 N1070 0.984 . S
H1078 N1066 0.984 . S
H1079 N1066 0.985 . S
C1080 C1081 1.363 . S
C1080 C1086 1.379 . S
C1080 N1088 1.356 . S
C1081 C1080 1.363 . S
C1081 C1087 1.363 . S
C1082 C1083 1.363 . S
C1082 C1087 1.379 . S
C1082 N1089 1.356 . S
C1083 C1082 1.363 . S
C1083 C1086 1.363 . S
N1084 C1086 1.356 . S
N1084 H1096 0.984 . S
N1084 H1097 0.985 . S
N1085 C1087 1.356 . S
N1085 H1090 0.984 . S
N1085 H1091 0.985 . S
C1086 C1080 1.379 . S
C1086 C1083 1.363 . S
C1086 N1084 1.356 . S
C1087 C1081 1.363 . S
C1087 C1082 1.379 . S
C1087 N1085 1.356 . S
N1088 C1080 1.356 . S
N1088 H1094 0.984 . S
N1088 H1095 0.984 . S
N1089 C1082 1.356 . S
N1089 H1092 0.984 . S
N1089 H1093 0.985 . S
H1090 N1085 0.984 . S
H1091 N1085 0.985 . S
H1092 N1089 0.984 . S
H1093 N1089 0.985 . S
H1094 N1088 0.984 . S
H1095 N1088 0.984 . S
H1096 N1084 0.984 . S
H1097 N1084 0.985 . S
C1098 C1099 1.363 . S
C1098 C1104 1.379 . S
C1098 N1106 1.356 . S
C1099 C1098 1.363 . S
C1099 C1105 1.363 . S
C1100 C1101 1.363 . S
C1100 C1105 1.379 . S
C1100 N1107 1.356 . S
C1101 C1100 1.363 . S
C1101 C1104 1.363 . S
N1102 C1104 1.356 . S
N1102 H1114 0.984 . S
N1102 H1115 0.985 . S
N1103 C1105 1.356 . S
N1103 H1108 0.984 . S
N1103 H1109 0.985 . S
C1104 C1098 1.379 . S
C1104 C1101 1.363 . S
C1104 N1102 1.356 . S
C1105 C1099 1.363 . S
C1105 C1100 1.379 . S
C1105 N1103 1.356 . S
N1106 C1098 1.356 . S
N1106 H1112 0.984 . S
N1106 H1113 0.984 . S
N1107 C1100 1.356 . S
N1107 H1110 0.984 . S
N1107 H1111 0.985 . S
H1108 N1103 0.984 . S
H1109 N1103 0.985 . S
H1110 N1107 0.984 . S
H1111 N1107 0.985 . S
H1112 N1106 0.984 . S
H1113 N1106 0.984 . S
H1114 N1102 0.984 . S
H1115 N1102 0.985 . S
C1116 C1117 1.363 . S
C1116 C1122 1.379 . S
C1116 N1124 1.356 . S
C1117 C1116 1.363 . S
C1117 C1123 1.363 . S
C1118 C1119 1.363 . S
C1118 C1123 1.379 . S
C1118 N1125 1.356 1_655 S
C1119 C1118 1.363 . S
C1119 C1122 1.363 . S
N1120 C1122 1.356 . S
N1120 H1132 0.984 . S
N1120 H1133 0.985 . S
N1121 C1123 1.356 . S
N1121 H1126 0.984 . S
N1121 H1127 0.985 1_655 S
C1122 C1116 1.379 . S
C1122 C1119 1.363 . S
C1122 N1120 1.356 . S
C1123 C1117 1.363 . S
C1123 C1118 1.379 . S
C1123 N1121 1.356 . S
N1124 C1116 1.356 . S
N1124 H1130 0.984 . S
N1124 H1131 0.984 . S
N1125 C1118 1.356 1_455 S
N1125 H1128 0.984 . S
N1125 H1129 0.985 . S
H1126 N1121 0.984 . S
H1127 N1121 0.985 1_455 S
H1128 N1125 0.984 . S
H1129 N1125 0.985 . S
H1130 N1124 0.984 . S
H1131 N1124 0.984 . S
H1132 N1120 0.984 . S
H1133 N1120 0.985 . S
C1134 C1135 1.363 . S
C1134 C1140 1.379 . S
C1134 N1142 1.356 . S
C1135 C1134 1.363 . S
C1135 C1141 1.363 . S
C1136 C1137 1.363 . S
C1136 C1141 1.379 . S
C1136 N1143 1.356 . S
C1137 C1136 1.363 . S
C1137 C1140 1.363 . S
N1138 C1140 1.356 . S
N1138 H1150 0.984 . S
N1138 H1151 0.985 . S
N1139 C1141 1.356 . S
N1139 H1144 0.984 . S
N1139 H1145 0.985 . S
C1140 C1134 1.379 . S
C1140 C1137 1.363 . S
C1140 N1138 1.356 . S
C1141 C1135 1.363 . S
C1141 C1136 1.379 . S
C1141 N1139 1.356 . S
N1142 C1134 1.356 . S
N1142 H1148 0.984 . S
N1142 H1149 0.984 . S
N1143 C1136 1.356 . S
N1143 H1146 0.984 . S
N1143 H1147 0.985 . S
H1144 N1139 0.984 . S
H1145 N1139 0.985 . S
H1146 N1143 0.984 . S
H1147 N1143 0.985 . S
H1148 N1142 0.984 . S
H1149 N1142 0.984 . S
H1150 N1138 0.984 . S
H1151 N1138 0.985 . S
C1152 C1153 1.363 . S
C1152 C1158 1.379 . S
C1152 N1160 1.356 . S
C1153 C1152 1.363 . S
C1153 C1159 1.363 . S
C1154 C1155 1.363 . S
C1154 C1159 1.379 . S
C1154 N1161 1.356 . S
C1155 C1154 1.363 . S
C1155 C1158 1.363 . S
N1156 C1158 1.356 . S
N1156 H1168 0.984 . S
N1156 H1169 0.985 . S
N1157 C1159 1.356 . S
N1157 H1162 0.984 . S
N1157 H1163 0.985 . S
C1158 C1152 1.379 . S
C1158 C1155 1.363 . S
C1158 N1156 1.356 . S
C1159 C1153 1.363 . S
C1159 C1154 1.379 . S
C1159 N1157 1.356 . S
N1160 C1152 1.356 . S
N1160 H1166 0.984 . S
N1160 H1167 0.984 . S
N1161 C1154 1.356 . S
N1161 H1164 0.984 . S
N1161 H1165 0.985 . S
H1162 N1157 0.984 . S
H1163 N1157 0.985 . S
H1164 N1161 0.984 . S
H1165 N1161 0.985 . S
H1166 N1160 0.984 . S
H1167 N1160 0.984 . S
H1168 N1156 0.984 . S
H1169 N1156 0.985 . S
C1170 C1171 1.363 . S
C1170 C1176 1.379 . S
C1170 N1178 1.356 . S
C1171 C1170 1.363 . S
C1171 C1177 1.363 . S
C1172 C1173 1.363 . S
C1172 C1177 1.379 . S
C1172 N1179 1.356 . S
C1173 C1172 1.363 . S
C1173 C1176 1.363 . S
N1174 C1176 1.356 . S
N1174 H1186 0.984 . S
N1174 H1187 0.985 . S
N1175 C1177 1.356 . S
N1175 H1180 0.984 . S
N1175 H1181 0.985 . S
C1176 C1170 1.379 . S
C1176 C1173 1.363 . S
C1176 N1174 1.356 . S
C1177 C1171 1.363 . S
C1177 C1172 1.379 . S
C1177 N1175 1.356 . S
N1178 C1170 1.356 . S
N1178 H1184 0.984 . S
N1178 H1185 0.984 . S
N1179 C1172 1.356 . S
N1179 H1182 0.984 . S
N1179 H1183 0.985 . S
H1180 N1175 0.984 . S
H1181 N1175 0.985 . S
H1182 N1179 0.984 . S
H1183 N1179 0.985 . S
H1184 N1178 0.984 . S
H1185 N1178 0.984 . S
H1186 N1174 0.984 . S
H1187 N1174 0.985 . S
C1188 C1189 1.363 . S
C1188 C1194 1.379 . S
C1188 N1196 1.356 . S
C1189 C1188 1.363 . S
C1189 C1195 1.363 . S
C1190 C1191 1.363 . S
C1190 C1195 1.379 . S
C1190 N1197 1.356 . S
C1191 C1190 1.363 . S
C1191 C1194 1.363 . S
N1192 C1194 1.356 . S
N1192 H1204 0.984 . S
N1192 H1205 0.985 . S
N1193 C1195 1.356 . S
N1193 H1198 0.984 . S
N1193 H1199 0.985 . S
C1194 C1188 1.379 . S
C1194 C1191 1.363 . S
C1194 N1192 1.356 . S
C1195 C1189 1.363 . S
C1195 C1190 1.379 . S
C1195 N1193 1.356 . S
N1196 C1188 1.356 . S
N1196 H1202 0.984 . S
N1196 H1203 0.984 . S
N1197 C1190 1.356 . S
N1197 H1200 0.984 . S
N1197 H1201 0.985 . S
H1198 N1193 0.984 . S
H1199 N1193 0.985 . S
H1200 N1197 0.984 . S
H1201 N1197 0.985 . S
H1202 N1196 0.984 . S
H1203 N1196 0.984 . S
H1204 N1192 0.984 . S
H1205 N1192 0.985 . S
C1206 C1207 1.363 . S
C1206 C1212 1.379 . S
C1206 N1214 1.356 . S
C1207 C1206 1.363 . S
C1207 C1213 1.363 . S
C1208 C1209 1.363 . S
C1208 C1213 1.379 . S
C1208 N1215 1.356 . S
C1209 C1208 1.363 . S
C1209 C1212 1.363 . S
N1210 C1212 1.356 . S
N1210 H1222 0.984 . S
N1210 H1223 0.985 . S
N1211 C1213 1.356 . S
N1211 H1216 0.984 . S
N1211 H1217 0.985 . S
C1212 C1206 1.379 . S
C1212 C1209 1.363 . S
C1212 N1210 1.356 . S
C1213 C1207 1.363 . S
C1213 C1208 1.379 . S
C1213 N1211 1.356 . S
N1214 C1206 1.356 . S
N1214 H1220 0.984 . S
N1214 H1221 0.984 . S
N1215 C1208 1.356 . S
N1215 H1218 0.984 . S
N1215 H1219 0.985 . S
H1216 N1211 0.984 . S
H1217 N1211 0.985 . S
H1218 N1215 0.984 . S
H1219 N1215 0.985 . S
H1220 N1214 0.984 . S
H1221 N1214 0.984 . S
H1222 N1210 0.984 . S
H1223 N1210 0.985 . S
C1224 C1225 1.363 . S
C1224 C1230 1.379 . S
C1224 N1232 1.356 . S
C1225 C1224 1.363 . S
C1225 C1231 1.363 . S
C1226 C1227 1.363 . S
C1226 C1231 1.379 . S
C1226 N1233 1.356 . S
C1227 C1226 1.363 . S
C1227 C1230 1.363 . S
N1228 C1230 1.356 . S
N1228 H1240 0.984 . S
N1228 H1241 0.985 . S
N1229 C1231 1.356 . S
N1229 H1234 0.984 . S
N1229 H1235 0.985 . S
C1230 C1224 1.379 . S
C1230 C1227 1.363 . S
C1230 N1228 1.356 . S
C1231 C1225 1.363 . S
C1231 C1226 1.379 . S
C1231 N1229 1.356 . S
N1232 C1224 1.356 . S
N1232 H1238 0.984 . S
N1232 H1239 0.984 . S
N1233 C1226 1.356 . S
N1233 H1236 0.984 . S
N1233 H1237 0.985 . S
H1234 N1229 0.984 . S
H1235 N1229 0.985 . S
H1236 N1233 0.984 . S
H1237 N1233 0.985 . S
H1238 N1232 0.984 . S
H1239 N1232 0.984 . S
H1240 N1228 0.984 . S
H1241 N1228 0.985 . S
C1242 C1243 1.363 . S
C1242 C1248 1.379 . S
C1242 N1250 1.356 . S
C1243 C1242 1.363 . S
C1243 C1249 1.363 . S
C1244 C1245 1.363 . S
C1244 C1249 1.379 . S
C1244 N1251 1.356 . S
C1245 C1244 1.363 . S
C1245 C1248 1.363 . S
N1246 C1248 1.356 . S
N1246 H1258 0.984 . S
N1246 H1259 0.985 . S
N1247 C1249 1.356 . S
N1247 H1252 0.984 . S
N1247 H1253 0.985 . S
C1248 C1242 1.379 . S
C1248 C1245 1.363 . S
C1248 N1246 1.356 . S
C1249 C1243 1.363 . S
C1249 C1244 1.379 . S
C1249 N1247 1.356 . S
N1250 C1242 1.356 . S
N1250 H1256 0.984 . S
N1250 H1257 0.984 . S
N1251 C1244 1.356 . S
N1251 H1254 0.984 . S
N1251 H1255 0.985 . S
H1252 N1247 0.984 . S
H1253 N1247 0.985 . S
H1254 N1251 0.984 . S
H1255 N1251 0.985 . S
H1256 N1250 0.984 . S
H1257 N1250 0.984 . S
H1258 N1246 0.984 . S
H1259 N1246 0.985 . S
C1260 C1261 1.363 . S
C1260 C1266 1.379 . S
C1260 N1268 1.356 . S
C1261 C1260 1.363 . S
C1261 C1267 1.363 . S
C1262 C1263 1.363 . S
C1262 C1267 1.379 . S
C1262 N1269 1.356 . S
C1263 C1262 1.363 . S
C1263 C1266 1.363 . S
N1264 C1266 1.356 . S
N1264 H1276 0.984 . S
N1264 H1277 0.985 . S
N1265 C1267 1.356 . S
N1265 H1270 0.984 . S
N1265 H1271 0.985 . S
C1266 C1260 1.379 . S
C1266 C1263 1.363 . S
C1266 N1264 1.356 . S
C1267 C1261 1.363 . S
C1267 C1262 1.379 . S
C1267 N1265 1.356 . S
N1268 C1260 1.356 . S
N1268 H1274 0.984 . S
N1268 H1275 0.984 . S
N1269 C1262 1.356 . S
N1269 H1272 0.984 . S
N1269 H1273 0.985 . S
H1270 N1265 0.984 . S
H1271 N1265 0.985 . S
H1272 N1269 0.984 . S
H1273 N1269 0.985 . S
H1274 N1268 0.984 . S
H1275 N1268 0.984 . S
H1276 N1264 0.984 . S
H1277 N1264 0.985 . S
C1278 C1279 1.363 . S
C1278 C1284 1.379 . S
C1278 N1286 1.356 . S
C1279 C1278 1.363 . S
C1279 C1285 1.363 . S
C1280 C1281 1.363 . S
C1280 C1285 1.379 . S
C1280 N1287 1.356 . S
C1281 C1280 1.363 . S
C1281 C1284 1.363 . S
N1282 C1284 1.356 . S
N1282 H1294 0.984 . S
N1282 H1295 0.985 . S
N1283 C1285 1.356 . S
N1283 H1288 0.984 . S
N1283 H1289 0.985 . S
C1284 C1278 1.379 . S
C1284 C1281 1.363 . S
C1284 N1282 1.356 . S
C1285 C1279 1.363 . S
C1285 C1280 1.379 . S
C1285 N1283 1.356 . S
N1286 C1278 1.356 . S
N1286 H1292 0.984 . S
N1286 H1293 0.984 . S
N1287 C1280 1.356 . S
N1287 H1290 0.984 . S
N1287 H1291 0.985 . S
H1288 N1283 0.984 . S
H1289 N1283 0.985 . S
H1290 N1287 0.984 . S
H1291 N1287 0.985 . S
H1292 N1286 0.984 . S
H1293 N1286 0.984 . S
H1294 N1282 0.984 . S
H1295 N1282 0.985 . S
C1296 C1297 1.363 . S
C1296 C1302 1.379 . S
C1296 N1304 1.356 . S
C1297 C1296 1.363 . S
C1297 C1303 1.363 . S
C1298 C1299 1.363 . S
C1298 C1303 1.379 . S
C1298 N1305 1.356 . S
C1299 C1298 1.363 . S
C1299 C1302 1.363 . S
N1300 C1302 1.356 . S
N1300 H1312 0.984 . S
N1300 H1313 0.985 . S
N1301 C1303 1.356 . S
N1301 H1306 0.984 . S
N1301 H1307 0.985 . S
C1302 C1296 1.379 . S
C1302 C1299 1.363 . S
C1302 N1300 1.356 . S
C1303 C1297 1.363 . S
C1303 C1298 1.379 . S
C1303 N1301 1.356 . S
N1304 C1296 1.356 . S
N1304 H1310 0.984 . S
N1304 H1311 0.984 . S
N1305 C1298 1.356 . S
N1305 H1308 0.984 . S
N1305 H1309 0.985 . S
H1306 N1301 0.984 . S
H1307 N1301 0.985 . S
H1308 N1305 0.984 . S
H1309 N1305 0.985 . S
H1310 N1304 0.984 . S
H1311 N1304 0.984 . S
H1312 N1300 0.984 . S
H1313 N1300 0.985 . S
C1314 C1315 1.363 . S
C1314 C1320 1.379 . S
C1314 N1322 1.356 . S
C1315 C1314 1.363 . S
C1315 C1321 1.363 . S
C1316 C1317 1.363 . S
C1316 C1321 1.379 . S
C1316 N1323 1.356 . S
C1317 C1316 1.363 . S
C1317 C1320 1.363 . S
N1318 C1320 1.356 . S
N1318 H1330 0.984 . S
N1318 H1331 0.985 . S
N1319 C1321 1.356 . S
N1319 H1324 0.984 . S
N1319 H1325 0.985 . S
C1320 C1314 1.379 . S
C1320 C1317 1.363 . S
C1320 N1318 1.356 . S
C1321 C1315 1.363 . S
C1321 C1316 1.379 . S
C1321 N1319 1.356 . S
N1322 C1314 1.356 . S
N1322 H1328 0.984 . S
N1322 H1329 0.984 . S
N1323 C1316 1.356 . S
N1323 H1326 0.984 . S
N1323 H1327 0.985 . S
H1324 N1319 0.984 . S
H1325 N1319 0.985 . S
H1326 N1323 0.984 . S
H1327 N1323 0.985 . S
H1328 N1322 0.984 . S
H1329 N1322 0.984 . S
H1330 N1318 0.984 . S
H1331 N1318 0.985 . S
C1332 C1333 1.363 . S
C1332 C1338 1.379 . S
C1332 N1340 1.356 . S
C1333 C1332 1.363 . S
C1333 C1339 1.363 . S
C1334 C1335 1.363 . S
C1334 C1339 1.379 . S
C1334 N1341 1.356 . S
C1335 C1334 1.363 . S
C1335 C1338 1.363 . S
N1336 C1338 1.356 . S
N1336 H1348 0.984 . S
N1336 H1349 0.985 . S
N1337 C1339 1.356 . S
N1337 H1342 0.984 . S
N1337 H1343 0.985 . S
C1338 C1332 1.379 . S
C1338 C1335 1.363 . S
C1338 N1336 1.356 . S
C1339 C1333 1.363 . S
C1339 C1334 1.379 . S
C1339 N1337 1.356 . S
N1340 C1332 1.356 . S
N1340 H1346 0.984 . S
N1340 H1347 0.984 . S
N1341 C1334 1.356 . S
N1341 H1344 0.984 . S
N1341 H1345 0.985 . S
H1342 N1337 0.984 . S
H1343 N1337 0.985 . S
H1344 N1341 0.984 . S
H1345 N1341 0.985 . S
H1346 N1340 0.984 . S
H1347 N1340 0.984 . S
H1348 N1336 0.984 . S
H1349 N1336 0.985 . S
C1350 C1351 1.363 . S
C1350 C1356 1.379 . S
C1350 N1358 1.356 . S
C1351 C1350 1.363 . S
C1351 C1357 1.363 . S
C1352 C1353 1.363 . S
C1352 C1357 1.379 . S
C1352 N1359 1.356 . S
C1353 C1352 1.363 . S
C1353 C1356 1.363 . S
N1354 C1356 1.356 . S
N1354 H1366 0.984 . S
N1354 H1367 0.985 . S
N1355 C1357 1.356 . S
N1355 H1360 0.984 . S
N1355 H1361 0.985 . S
C1356 C1350 1.379 . S
C1356 C1353 1.363 . S
C1356 N1354 1.356 . S
C1357 C1351 1.363 . S
C1357 C1352 1.379 . S
C1357 N1355 1.356 . S
N1358 C1350 1.356 . S
N1358 H1364 0.984 . S
N1358 H1365 0.984 . S
N1359 C1352 1.356 . S
N1359 H1362 0.984 . S
N1359 H1363 0.985 . S
H1360 N1355 0.984 . S
H1361 N1355 0.985 . S
H1362 N1359 0.984 . S
H1363 N1359 0.985 . S
H1364 N1358 0.984 . S
H1365 N1358 0.984 . S
H1366 N1354 0.984 . S
H1367 N1354 0.985 . S
C1368 C1369 1.363 . S
C1368 C1374 1.379 . S
C1368 N1376 1.356 . S
C1369 C1368 1.363 . S
C1369 C1375 1.363 . S
C1370 C1371 1.363 . S
C1370 C1375 1.379 . S
C1370 N1377 1.356 . S
C1371 C1370 1.363 . S
C1371 C1374 1.363 . S
N1372 C1374 1.356 . S
N1372 H1384 0.984 . S
N1372 H1385 0.985 . S
N1373 C1375 1.356 . S
N1373 H1378 0.984 . S
N1373 H1379 0.985 . S
C1374 C1368 1.379 . S
C1374 C1371 1.363 . S
C1374 N1372 1.356 . S
C1375 C1369 1.363 . S
C1375 C1370 1.379 . S
C1375 N1373 1.356 . S
N1376 C1368 1.356 . S
N1376 H1382 0.984 . S
N1376 H1383 0.984 . S
N1377 C1370 1.356 . S
N1377 H1380 0.984 . S
N1377 H1381 0.985 . S
H1378 N1373 0.984 . S
H1379 N1373 0.985 . S
H1380 N1377 0.984 . S
H1381 N1377 0.985 . S
H1382 N1376 0.984 . S
H1383 N1376 0.984 . S
H1384 N1372 0.984 . S
H1385 N1372 0.985 . S
C415 C177 1.550 . S
C417 C240 1.531 . S
C433 C190 1.490 . S
C435 C260 1.468 . S
C451 C164 1.506 . S
C453 C283 1.513 . S
C469 C151 1.444 . S
C471 C263 1.447 . S
C489 C280 1.452 . S
C487 C125 1.468 . S
C505 C138 1.506 . S
C507 C243 1.505 1_556 S
C525 C250 1.540 . S
C523 C147 1.550 . S
C543 C270 1.424 . S
C541 C121 1.408 . S
C559 C134 1.476 . S
C561 C275 1.547 1_556 S
C577 C173 1.414 . S
C579 C255 1.475 . S
C595 C186 1.455 . S
C597 C290 1.448 . S
C615 C235 1.557 . S
C613 C160 1.521 . S
C633 C300 1.531 . S
C631 C21 1.550 . S
C649 C34 1.491 . S
C651 C320 1.468 . S
C667 C8 1.506 . S
C669 C343 1.513 . S
C685 C229 1.444 . S
C687 C323 1.447 . S
C703 C203 1.468 . S
C705 C340 1.452 . S
C721 C216 1.506 . S
C723 C303 1.505 . S
C739 C225 1.550 . S
C741 C310 1.540 . S
C757 C199 1.408 . S
C759 C330 1.424 . S
C777 C335 1.547 . S
C775 C212 1.476 . S
C793 C17 1.414 1_565 S
C795 C315 1.475 . S
C813 C350 1.447 . S
C811 C30 1.455 . S
C829 C4 1.521 . S
C831 C295 1.557 . S
C849 C360 1.531 . S
C847 C99 1.550 . S
C865 C112 1.491 . S
C867 C380 1.468 . S
C885 C403 1.513 . S
C883 C86 1.506 . S
C903 C383 1.447 . S
C901 C73 1.444 . S
C921 C400 1.452 . S
C919 C47 1.468 . S
C937 C60 1.506 . S
C939 C363 1.505 . S
C955 C69 1.550 . S
C957 C370 1.540 . S
C973 C43 1.408 . S
C975 C390 1.424 . S
C993 C395 1.547 . S
C991 C56 1.476 . S
C1009 C95 1.414 . S
C1011 C375 1.475 . S
C1027 C108 1.455 . S
C1029 C410 1.447 . S
C1045 C82 1.521 . S
C1047 C355 1.557 . S
C1063 C204 1.407 . S
C1065 C253 1.354 . S
C1083 C273 1.586 . S
C1081 C217 1.668 . S
C1099 C230 1.512 . S
C1101 C282 1.479 . S
C1117 C87 1.630 . S
C1119 C262 1.583 . S
C1135 C100 1.573 . S
C1137 C293 1.504 . S
C1155 C242 1.355 . S
C1153 C113 1.378 . S
C1171 C48 1.407 . S
C1173 C313 1.354 . S
C1189 C61 1.667 . S
C1191 C333 1.586 . S
C1207 C74 1.512 . S
C1209 C342 1.479 . S
C1225 C165 1.630 . S
C1227 C322 1.583 . S
C1245 C353 1.504 . S
C1243 C178 1.573 . S
C1261 C191 1.378 . S
C1263 C302 1.355 . S
C1279 C126 1.407 . S
C1281 C373 1.354 . S
C1297 C139 1.667 . S
C1299 C393 1.586 . S
C1317 C402 1.479 . S
C1315 C152 1.512 . S
C1333 C9 1.629 . S
C1335 C382 1.583 . S
C1351 C22 1.573 . S
C1353 C413 1.504 . S
C1369 C35 1.378 . S
C1371 C362 1.355 . S
