# Generated by pormake.
# Topology pth, (4,4)-cn, num edge types: 1
# Building blocks:
#     Node 0, Type 0, BuildingBlock: UXUYUI_clean_sbu_0, # of connection points: 4
#     Node 1, Type 0, BuildingBlock: UXUYUI_clean_sbu_0, # of connection points: 4
#     Node 2, Type 0, BuildingBlock: UXUYUI_clean_sbu_0, # of connection points: 4
#     Node 3, Type 1, BuildingBlock: NAHDIM_clean_linker_0, # of connection points: 4
#     Node 4, Type 1, BuildingBlock: NAHDIM_clean_linker_0, # of connection points: 4
#     Node 5, Type 1, BuildingBlock: NAHDIM_clean_linker_0, # of connection points: 4
#     Edge 6, Type (0, 1), BuildingBlock: CIFDUS_clean_linker_0, # of connection points: 2
#     Edge 7, Type (0, 1), BuildingBlock: CIFDUS_clean_linker_0, # of connection points: 2
#     Edge 8, Type (0, 1), BuildingBlock: CIFDUS_clean_linker_0, # of connection points: 2
#     Edge 9, Type (0, 1), BuildingBlock: CIFDUS_clean_linker_0, # of connection points: 2
#     Edge 10, Type (0, 1), BuildingBlock: CIFDUS_clean_linker_0, # of connection points: 2
#     Edge 11, Type (0, 1), BuildingBlock: CIFDUS_clean_linker_0, # of connection points: 2
#     Edge 12, Type (0, 1), BuildingBlock: CIFDUS_clean_linker_0, # of connection points: 2
#     Edge 13, Type (0, 1), BuildingBlock: CIFDUS_clean_linker_0, # of connection points: 2
#     Edge 14, Type (0, 1), BuildingBlock: CIFDUS_clean_linker_0, # of connection points: 2
#     Edge 15, Type (0, 1), BuildingBlock: CIFDUS_clean_linker_0, # of connection points: 2
#     Edge 16, Type (0, 1), BuildingBlock: CIFDUS_clean_linker_0, # of connection points: 2
#     Edge 17, Type (0, 1), BuildingBlock: CIFDUS_clean_linker_0, # of connection points: 2
# Relax obj value: 0.093
# Max RMSD: 0.220
# Mean RMSD: 0.135
data_MOF--net-pth--node1-UXUYUI_clean_sbu_0--node2-NAHDIM_clean_linker_0--edge1-CIFDUS_clean_linker_0
_symmetry_space_group_name_H-M    P1
_symmetry_Int_Tables_number       1
_symmetry_cell_setting            triclinic
loop_
_symmetry_equiv_pos_as_xyz
'x, y, z'
_cell_length_a     34.140343
_cell_length_b     34.124594
_cell_length_c     86.901622
_cell_angle_alpha  89.749574
_cell_angle_beta   90.285857
_cell_angle_gamma 120.00397
loop_
_atom_site_label
_atom_site_type_symbol
_atom_site_fract_x
_atom_site_fract_y
_atom_site_fract_z
_atom_type_partial_charge
Li0 Li 0.0578 0.06626 0.06861 0.0
Li1 Li 0.00637 0.06348 0.08848 0.0
Li2 Li 0.03098 0.00544 0.08783 0.0
Li3 Li 0.97641 0.0025 0.06909 0.0
C4 C 0.11347 0.09763 0.09393 0.0
N5 N 0.20559 0.15057 0.09883 0.0
C6 C 0.13144 0.14102 0.10015 0.0
C7 C 0.14234 0.08096 0.09048 0.0
C8 C 0.17809 0.16734 0.10246 0.0
C9 C 0.1888 0.10825 0.09297 0.0
C10 C 0.9811 0.09399 0.06246 0.0
C11 C 0.91465 0.10015 0.05771 0.0
N12 N 0.9414 0.14544 0.05543 0.0
C13 C 0.00791 0.14047 0.05979 0.0
C14 C 0.93408 0.07357 0.06117 0.0
C15 C 0.98723 0.16594 0.05638 0.0
C16 C 0.1169 0.0968 0.04253 0.0
N17 N 0.10545 0.10889 0.05592 0.0
C18 C 0.15488 0.18719 0.05043 0.0
C19 C 0.12419 0.15298 0.06008 0.0
C20 C 0.16683 0.17608 0.03632 0.0
C21 C 0.1481 0.13 0.03259 0.0
H22 H 0.10075 0.06152 0.03931 0.0
H23 H 0.11354 0.16172 0.07057 0.0
C24 C 0.97123 0.0884 0.11435 0.0
N25 N 0.9979 0.10311 0.10164 0.0
C26 C 0.97272 0.11945 0.12512 0.0
C27 C 0.02911 0.18 0.10953 0.0
C28 C 0.02579 0.14792 0.09895 0.0
C29 C 0.00312 0.16601 0.12306 0.0
H30 H 0.95044 0.05258 0.11656 0.0
H31 H 0.04791 0.15863 0.08908 0.0
C32 C 0.04949 0.97214 0.06188 0.0
N33 N 0.08275 0.91485 0.05553 0.0
C34 C 0.01991 0.92571 0.06011 0.0
C35 C 0.09595 0.9895 0.06005 0.0
C36 C 0.03737 0.89728 0.05701 0.0
C37 C 0.11213 0.95999 0.05694 0.0
C38 C 0.92493 0.974 0.09586 0.0
C39 C 0.90583 0.93087 0.10244 0.0
C40 C 0.89802 0.99368 0.0935 0.0
C41 C 0.85992 0.90778 0.1062 0.0
C42 C 0.85227 0.96958 0.09743 0.0
N43 N 0.83429 0.92742 0.10362 0.0
C44 C 0.07319 0.98046 0.11173 0.0
C45 C 0.01016 0.92132 0.09887 0.0
C46 C 0.07325 0.94977 0.12244 0.0
N47 N 0.04148 0.9658 0.10038 0.0
C48 C 0.00843 0.88969 0.10943 0.0
C49 C 0.03953 0.90381 0.12171 0.0
H50 H 0.09694 0.01614 0.11302 0.0
H51 H 0.98448 0.91079 0.09004 0.0
C52 C 0.91712 0.97244 0.04311 0.0
N53 N 0.9269 0.96031 0.0569 0.0
C54 C 0.88469 0.93957 0.03339 0.0
C55 C 0.87319 0.88255 0.05225 0.0
C56 C 0.90525 0.91652 0.06166 0.0
C57 C 0.86297 0.89366 0.03774 0.0
H58 H 0.93556 0.0074 0.03944 0.0
H59 H 0.91474 0.90758 0.07242 0.0
O60 O 0.0679 0.07161 0.09132 0.0
O61 O 0.00085 0.06842 0.0657 0.0
O62 O 0.03294 0.00053 0.06491 0.0
O63 O 0.96977 0.99691 0.09189 0.0
H64 H 0.10971 0.15438 0.10311 0.0
H65 H 0.12893 0.04704 0.08614 0.0
H66 H 0.19243 0.20107 0.10716 0.0
H67 H 0.21147 0.09572 0.0903 0.0
H68 H 0.87829 0.08474 0.05677 0.0
H69 H 0.04432 0.15686 0.06039 0.0
H70 H 0.91269 0.03749 0.0627 0.0
H71 H 0.00764 0.202 0.05443 0.0
H72 H 0.16728 0.22201 0.05372 0.0
H73 H 0.15656 0.11962 0.02195 0.0
H74 H 0.95154 0.10685 0.13522 0.0
H75 H 0.054 0.21513 0.10751 0.0
H76 H 0.98385 0.91164 0.06119 0.0
H77 H 0.11937 0.02542 0.06088 0.0
H78 H 0.01482 0.86124 0.05576 0.0
H79 H 0.14804 0.97302 0.05558 0.0
H80 H 0.92609 0.91521 0.1046 0.0
H81 H 0.91252 0.02758 0.08897 0.0
H82 H 0.84469 0.87427 0.1112 0.0
H83 H 0.83113 0.9845 0.09563 0.0
H84 H 0.0983 0.96231 0.13156 0.0
H85 H 0.98103 0.8551 0.10849 0.0
H86 H 0.87763 0.94996 0.02243 0.0
H87 H 0.85842 0.84775 0.05602 0.0
Li88 Li 0.02876 0.00536 0.39812 0.0
Li89 Li 0.08186 0.061 0.41639 0.0
Li90 Li 0.0001 0.03058 0.41892 0.0
Li91 Li 0.04299 0.08343 0.39844 0.0
C92 C 0.01428 0.97126 0.43288 0.0
N93 N 0.9728 0.9191 0.45855 0.0
C94 C 0.03584 0.98349 0.4472 0.0
C95 C 0.97174 0.93241 0.43159 0.0
C96 C 0.01428 0.95668 0.46005 0.0
C97 C 0.95129 0.90653 0.44472 0.0
C98 C 0.1298 0.0751 0.3909 0.0
C99 C 0.20902 0.13135 0.39177 0.0
N100 N 0.21943 0.10004 0.38666 0.0
C101 C 0.14121 0.04353 0.38557 0.0
C102 C 0.16388 0.11944 0.39393 0.0
C103 C 0.18675 0.05679 0.38353 0.0
C104 C 0.01615 0.95381 0.37055 0.0
N105 N 0.01961 0.95479 0.38617 0.0
C106 C 0.01695 0.88354 0.38637 0.0
C107 C 0.02012 0.92067 0.39411 0.0
C108 C 0.01324 0.88142 0.37027 0.0
C109 C 0.01233 0.91688 0.36232 0.0
H110 H 0.01725 0.98202 0.36446 0.0
H111 H 0.02393 0.92265 0.40647 0.0
C112 C 0.14648 0.10563 0.43995 0.0
N113 N 0.13406 0.07557 0.42819 0.0
C114 C 0.17796 0.10849 0.45088 0.0
C115 C 0.18507 0.0514 0.4368 0.0
C116 C 0.15303 0.04916 0.42632 0.0
C117 C 0.19661 0.08004 0.44964 0.0
H118 H 0.12974 0.12515 0.44142 0.0
H119 H 0.14132 0.02442 0.41718 0.0
C120 C 0.95654 0.00145 0.38523 0.0
N121 N 0.90262 0.95025 0.36105 0.0
C122 C 0.9618 0.02081 0.37063 0.0
C123 C 0.92376 0.95614 0.38755 0.0
C124 C 0.93418 0.99435 0.35856 0.0
C125 C 0.89691 0.93078 0.37517 0.0
C126 C 0.05402 0.13516 0.42261 0.0
C127 C 0.016 0.13879 0.42605 0.0
C128 C 0.09578 0.17431 0.42033 0.0
C129 C 0.02035 0.18165 0.42699 0.0
C130 C 0.09872 0.21655 0.42135 0.0
N131 N 0.06126 0.21931 0.42462 0.0
C132 C 0.96543 0.03172 0.44792 0.0
C133 C 0.91008 -2e-05 0.42818 0.0
C134 C 0.93368 0.03113 0.4581 0.0
N135 N 0.95332 0.01715 0.43321 0.0
C136 C 0.87719 0.99874 0.43798 0.0
C137 C 0.88921 0.01577 0.45302 0.0
H138 H 0.00035 0.04613 0.45147 0.0
H139 H 0.90171 0.98969 0.41631 0.0
C140 C 0.08011 0.16177 0.37856 0.0
N141 N 0.04416 0.13135 0.38699 0.0
C142 C 0.07829 0.19701 0.37089 0.0
C143 C 0.00278 0.16867 0.38086 0.0
C144 C 0.00585 0.13392 0.38813 0.0
C145 C 0.03932 0.20085 0.37215 0.0
H146 H 0.11012 0.15879 0.37783 0.0
H147 H 0.97772 0.10895 0.39483 0.0
O148 O 0.0345 0.99734 0.42018 0.0
O149 O 0.08544 0.0627 0.39306 0.0
O150 O 0.9833 0.02671 0.39719 0.0
O151 O 0.0503 0.0935 0.42132 0.0
H152 H 0.06871 0.01349 0.44842 0.0
H153 H 0.95463 0.92252 0.42058 0.0
H154 H 0.0305 0.9658 0.47122 0.0
H155 H 0.9183 0.87646 0.4439 0.0
H156 H 0.23578 0.16548 0.39416 0.0
H157 H 0.11523 0.0091 0.38312 0.0
H158 H 0.15557 0.14428 0.39802 0.0
H159 H 0.19613 0.03268 0.37947 0.0
H160 H 0.01745 0.85673 0.39293 0.0
H161 H 0.00999 0.91664 0.34988 0.0
H162 H 0.18524 0.13055 0.46069 0.0
H163 H 0.19901 0.02932 0.43525 0.0
H164 H 0.98714 0.05575 0.3686 0.0
H165 H 0.91932 0.94064 0.39877 0.0
H166 H 0.93795 0.00883 0.34719 0.0
H167 H 0.87155 0.89561 0.37678 0.0
H168 H 0.98333 0.10887 0.42775 0.0
H169 H 0.12554 0.17208 0.41771 0.0
H170 H 0.99115 0.18496 0.42954 0.0
H171 H 0.13078 0.24713 0.41953 0.0
H172 H 0.94424 0.04422 0.46963 0.0
H173 H 0.8435 0.98723 0.43352 0.0
H174 H 0.10706 0.22121 0.36423 0.0
H175 H 0.97188 0.17006 0.38188 0.0
Li176 Li 0.04966 0.02795 0.72954 0.0
Li177 Li 0.05259 0.08232 0.74973 0.0
Li178 Li 0.99182 0.00519 0.74915 0.0
Li179 Li 0.99306 0.05614 0.73004 0.0
C180 C 0.0563 0.99864 0.76313 0.0
N181 N 0.05142 0.93959 0.78586 0.0
C182 C 0.05444 0.00864 0.77859 0.0
C183 C 0.05587 0.95876 0.75921 0.0
C184 C 0.05192 0.9783 0.78992 0.0
C185 C 0.05336 0.92931 0.77088 0.0
C186 C 0.09373 0.13269 0.72271 0.0
C187 C 0.12181 0.21201 0.71789 0.0
N188 N 0.16285 0.21731 0.7142 0.0
C189 C 0.13601 0.13881 0.71866 0.0
C190 C 0.08638 0.16946 0.72215 0.0
C191 C 0.17059 0.1819 0.71447 0.0
C192 C 0.07819 0.00356 0.70223 0.0
N193 N 0.08688 0.01416 0.71739 0.0
C194 C 0.15445 0.00995 0.71611 0.0
C195 C 0.124 0.0174 0.72442 0.0
C196 C 0.14678 0.99928 0.70039 0.0
C197 C 0.10783 0.99574 0.69346 0.0
H198 H 0.04853 0.00167 0.69695 0.0
H199 H 0.1302 0.02634 0.73646 0.0
C200 C 0.0787 0.13617 0.77656 0.0
N201 N 0.09394 0.12863 0.76309 0.0
C202 C 0.10931 0.16404 0.78777 0.0
C203 C 0.17063 0.1765 0.77091 0.0
C204 C 0.13887 0.1483 0.76007 0.0
C205 C 0.15596 0.18372 0.78514 0.0
H206 H 0.04284 0.11865 0.77894 0.0
H207 H 0.15017 0.1402 0.74961 0.0
C208 C 0.95114 0.94963 0.72499 0.0
N209 N 0.88634 0.85939 0.7221 0.0
C210 C 0.90574 0.93536 0.72793 0.0
C211 C 0.96358 0.91813 0.72045 0.0
C212 C 0.8735 0.88954 0.72646 0.0
C213 C 0.9303 0.87263 0.71907 0.0
C214 C 0.96972 0.08735 0.75535 0.0
C215 C 0.92453 0.06859 0.75982 0.0
C216 C 0.99634 0.13419 0.75356 0.0
C217 C 0.90666 0.097 0.76226 0.0
C218 C 0.97727 0.16148 0.75613 0.0
N219 N 0.93318 0.14248 0.76037 0.0
C220 C 0.93366 0.96901 0.77416 0.0
C221 C 0.94207 0.91321 0.76089 0.0
C222 C 0.90077 0.93623 0.78367 0.0
N223 N 0.95228 0.95693 0.76265 0.0
C224 C 0.90934 0.87919 0.77019 0.0
C225 C 0.88732 0.8905 0.78146 0.0
H226 H 0.94382 0.00416 0.77581 0.0
H227 H 0.95843 0.90447 0.75205 0.0
C228 C 0.97502 0.09905 0.70497 0.0
N229 N 0.95725 0.07172 0.71746 0.0
C230 C 0.94835 0.11121 0.69617 0.0
C231 C 0.88555 0.06613 0.7131 0.0
C232 C 0.9132 0.05441 0.7214 0.0
C233 C 0.903 0.0951 0.7003 0.0
H234 H 0.00991 0.11145 0.70186 0.0
H235 H 0.89958 0.03183 0.73112 0.0
O236 O 0.05793 0.02748 0.75187 0.0
O237 O 0.05941 0.09063 0.72674 0.0
O238 O 0.98324 0.9943 0.72632 0.0
O239 O 0.98758 0.05988 0.75272 0.0
H240 H 0.05455 0.03931 0.78178 0.0
H241 H 0.0569 0.95038 0.74727 0.0
H242 H 0.05027 0.98548 0.80193 0.0
H243 H 0.05276 0.89819 0.76802 0.0
H244 H 0.1166 0.24077 0.71746 0.0
H245 H 0.1422 0.11067 0.71887 0.0
H246 H 0.05356 0.16517 0.7248 0.0
H247 H 0.20358 0.18718 0.71142 0.0
H248 H 0.18364 0.01235 0.72198 0.0
H249 H 0.10087 0.98796 0.68134 0.0
H250 H 0.09661 0.16803 0.7987 0.0
H251 H 0.20631 0.19107 0.76844 0.0
H252 H 0.8956 0.95929 0.7315 0.0
H253 H 0.99859 0.92864 0.71813 0.0
H254 H 0.83828 0.87793 0.72882 0.0
H255 H 0.93944 0.84782 0.71563 0.0
H256 H 0.90319 0.03237 0.76115 0.0
H257 H 0.03145 0.14937 0.75033 0.0
H258 H 0.87167 0.08287 0.76561 0.0
H259 H 0.99754 0.19779 0.75476 0.0
H260 H 0.88547 0.94647 0.7925 0.0
H261 H 0.90007 0.84431 0.76817 0.0
H262 H 0.96309 0.13287 0.68623 0.0
H263 H 0.85113 0.05327 0.71693 0.0
C264 C 0.91428 0.61499 0.33622 0.0
C265 C 0.95296 0.65196 0.32682 0.0
C266 C 0.96028 0.62919 0.30118 0.0
C267 C 0.00727 0.64989 0.29946 0.0
C268 C 0.02621 0.6316 0.28951 0.0
C269 C 0.99743 0.59149 0.2813 0.0
C270 C 0.94987 0.57114 0.2828 0.0
C271 C 0.93191 0.59092 0.29252 0.0
C272 C 0.07695 0.65465 0.28799 0.0
C273 C 0.91801 0.52782 0.27452 0.0
C274 C 0.06138 0.34794 0.32995 0.0
C275 C 0.0553 0.38413 0.32263 0.0
C276 C 0.07194 0.42818 0.29937 0.0
C277 C 0.02988 0.41307 0.29225 0.0
C278 C 0.02209 0.44211 0.28294 0.0
C279 C 0.05734 0.48713 0.28059 0.0
C280 C 0.10039 0.50201 0.28727 0.0
C281 C 0.10727 0.47207 0.29652 0.0
C282 C 0.97594 0.42486 0.27579 0.0
C283 C 0.13872 0.54965 0.28481 0.0
C284 C 0.09683 0.44505 0.18193 0.0
C285 C 0.05282 0.42368 0.18791 0.0
C286 C 0.0365 0.44883 0.19552 0.0
C287 C 0.06509 0.49613 0.19733 0.0
C288 C 0.10884 0.51786 0.19078 0.0
C289 C 0.12389 0.49199 0.18297 0.0
C290 C 0.98899 0.42481 0.20181 0.0
C291 C 0.14004 0.56822 0.19236 0.0
C292 C 0.89307 0.69763 0.18416 0.0
C293 C 0.9382 0.6995 0.18148 0.0
C294 C 0.9526 0.63652 0.18411 0.0
C295 C 0.9291 0.58975 0.18632 0.0
C296 C 0.94995 0.56782 0.19335 0.0
C297 C 0.99589 0.5934 0.19787 0.0
C298 C 0.02072 0.64039 0.19474 0.0
C299 C 0.99869 0.66161 0.18798 0.0
C300 C 0.92253 0.51757 0.19637 0.0
C301 C 0.07016 0.6683 0.19889 0.0
C302 C 0.01705 0.56928 0.27192 0.0
C303 C 0.03183 0.54305 0.27967 0.0
C304 C 0.04815 0.5188 0.27165 0.0
C305 C 0.05078 0.52131 0.25543 0.0
C306 C 0.06763 0.49783 0.24704 0.0
C307 C 0.06828 0.49896 0.23103 0.0
C308 C 0.05145 0.52305 0.22281 0.0
C309 C 0.04988 0.52259 0.20653 0.0
C310 C 0.03269 0.54668 0.19872 0.0
C311 C 0.01683 0.57135 0.20675 0.0
C312 C 0.01839 0.57249 0.22303 0.0
C313 C 0.00276 0.59704 0.23147 0.0
C314 C 0.0034 0.59704 0.24747 0.0
C315 C 0.01866 0.57161 0.25567 0.0
C316 C 0.03535 0.54729 0.2474 0.0
C317 C 0.0354 0.5479 0.23106 0.0
C318 C 0.15214 0.38219 0.182 0.0
C319 C 0.10638 0.37907 0.17922 0.0
O320 O 0.94168 0.64517 0.31133 0.0
O321 O 0.92965 0.65617 0.17829 0.0
O322 O 0.1141 0.42156 0.17495 0.0
O323 O 0.07892 0.40083 0.30898 0.0
H324 H 0.98352 0.64899 0.32917 0.0
H325 H 0.90874 0.58128 0.33277 0.0
H326 H 0.88241 0.61563 0.33426 0.0
H327 H 0.92272 0.61971 0.34869 0.0
H328 H 0.02901 0.68022 0.30597 0.0
H329 H 0.89563 0.57551 0.29391 0.0
H330 H 0.08923 0.63328 0.29344 0.0
H331 H 0.09426 0.68844 0.29356 0.0
H332 H 0.0866 0.65866 0.27565 0.0
H333 H 0.8824 0.51372 0.2783 0.0
H334 H 0.92822 0.50201 0.27653 0.0
H335 H 0.91963 0.53428 0.26196 0.0
H336 H 0.0588 0.41149 0.33049 0.0
H337 H 0.99589 0.29005 0.32889 0.0
H338 H 0.07927 0.36295 0.34116 0.0
H339 H 0.09181 0.34941 0.32435 0.0
H340 H 0.003 0.37857 0.29389 0.0
H341 H 0.13985 0.48317 0.3019 0.0
H342 H 0.97906 0.42849 0.26309 0.0
H343 H 0.96113 0.44541 0.27988 0.0
H344 H 0.95226 0.38878 0.27864 0.0
H345 H 0.1707 0.55547 0.29027 0.0
H346 H 0.12953 0.57397 0.28971 0.0
H347 H 0.14448 0.55681 0.2723 0.0
H348 H 0.08745 0.36803 0.19027 0.0
H349 H 0.03116 0.38748 0.18656 0.0
H350 H 0.15752 0.50814 0.17805 0.0
H351 H 0.99029 0.42456 0.21458 0.0
H352 H 0.96923 0.38926 0.19775 0.0
H353 H 0.97096 0.44303 0.19839 0.0
H354 H 0.17377 0.57965 0.18719 0.0
H355 H 0.14462 0.57779 0.20471 0.0
H356 H 0.12466 0.58646 0.18663 0.0
H357 H 0.95809 0.71216 0.19234 0.0
H358 H 0.89869 0.73169 0.18718 0.0
H359 H 0.87488 0.67421 0.19384 0.0
H360 H 0.87144 0.68531 0.17369 0.0
H361 H 0.89374 0.57069 0.18304 0.0
H362 H 0.01743 0.69768 0.18575 0.0
H363 H 0.92326 0.51073 0.20885 0.0
H364 H 0.93767 0.50006 0.19014 0.0
H365 H 0.88673 0.5029 0.19265 0.0
H366 H 0.08598 0.70302 0.19399 0.0
H367 H 0.0888 0.65152 0.19469 0.0
H368 H 0.07386 0.67092 0.2116 0.0
H369 H 0.02917 0.54025 0.29211 0.0
H370 H 0.08038 0.47819 0.25276 0.0
H371 H 0.08159 0.48016 0.2252 0.0
H372 H 0.03095 0.54562 0.18625 0.0
H373 H 0.9897 0.61648 0.22582 0.0
H374 H 0.99107 0.61663 0.25335 0.0
H375 H 0.17253 0.39239 0.17127 0.0
H376 H 0.14745 0.34913 0.18598 0.0
H377 H 0.17116 0.4078 0.19102 0.0
C378 C 0.3487 0.93839 0.67404 0.0
C379 C 0.35326 0.98 0.66567 0.0
C380 C 0.37951 0.98855 0.63951 0.0
C381 C 0.40691 0.03543 0.63776 0.0
C382 C 0.44351 0.05351 0.62751 0.0
C383 C 0.45326 0.02389 0.61914 0.0
C384 C 0.42479 0.9764 0.62068 0.0
C385 C 0.38759 0.9594 0.63064 0.0
C386 C 0.4722 0.1042 0.62588 0.0
C387 C 0.43444 0.9435 0.61229 0.0
C388 C 0.71826 0.18259 0.67714 0.0
C389 C 0.71159 0.14285 0.66715 0.0
C390 C 0.68904 0.13538 0.64036 0.0
C391 C 0.66394 0.08806 0.6393 0.0
C392 C 0.62916 0.06692 0.62839 0.0
C393 C 0.619 0.09378 0.61852 0.0
C394 C 0.64616 0.14157 0.61898 0.0
C395 C 0.68149 0.16172 0.62975 0.0
C396 C 0.60205 0.01593 0.62787 0.0
C397 C 0.63624 0.17147 0.60876 0.0
C398 C 0.67879 0.06398 0.51653 0.0
C399 C 0.64652 0.02209 0.52248 0.0
C400 C 0.61154 0.01798 0.53196 0.0
C401 C 0.60874 0.05691 0.53551 0.0
C402 C 0.64179 0.09967 0.52981 0.0
C403 C 0.6768 0.10289 0.5205 0.0
C404 C 0.5771 0.97189 0.53796 0.0
C405 C 0.63967 0.1418 0.53339 0.0
C406 C 0.26428 0.98827 0.53323 0.0
C407 C 0.3011 0.01412 0.52122 0.0
C408 C 0.36567 0.00181 0.52318 0.0
C409 C 0.37406 0.96703 0.52723 0.0
C410 C 0.4158 0.97664 0.53357 0.0
C411 C 0.44987 0.02223 0.53576 0.0
C412 C 0.44271 0.05757 0.53064 0.0
C413 C 0.40075 0.04697 0.52426 0.0
C414 C 0.42287 0.93819 0.53851 0.0
C415 C 0.47893 0.10653 0.53238 0.0
C416 C 0.49497 0.04222 0.6097 0.0
C417 C 0.53621 0.05884 0.61742 0.0
C418 C 0.57644 0.07249 0.60942 0.0
C419 C 0.57536 0.06731 0.59327 0.0
C420 C 0.61423 0.07628 0.58497 0.0
C421 C 0.61254 0.07086 0.56905 0.0
C422 C 0.57221 0.05752 0.56082 0.0
C423 C 0.57006 0.05232 0.54464 0.0
C424 C 0.52986 0.04076 0.53678 0.0
C425 C 0.49116 0.03309 0.5447 0.0
C426 C 0.49203 0.03617 0.56092 0.0
C427 C 0.45311 0.02695 0.56928 0.0
C428 C 0.45396 0.02891 0.58526 0.0
C429 C 0.49398 0.0411 0.59346 0.0
C430 C 0.53408 0.05248 0.58524 0.0
C431 C 0.53281 0.04881 0.56898 0.0
C432 C 0.72121 0.11272 0.48507 0.0
C433 C 0.74299 0.1013 0.49857 0.0
O434 O 0.34598 0.97088 0.65007 0.0
O435 O 0.32354 0.99051 0.51823 0.0
O436 O 0.71048 0.06484 0.50689 0.0
O437 O 0.7193 0.15639 0.65188 0.0
H438 H 0.38839 0.00823 0.66782 0.0
H439 H 0.37444 0.93042 0.66966 0.0
H440 H 0.31462 0.90849 0.67213 0.0
H441 H 0.3543 0.94501 0.6866 0.0
H442 H 0.39978 0.05773 0.64452 0.0
H443 H 0.36587 0.9232 0.63209 0.0
H444 H 0.50479 0.11599 0.63202 0.0
H445 H 0.45538 0.12197 0.63082 0.0
H446 H 0.47991 0.11386 0.61358 0.0
H447 H 0.41318 0.90825 0.61652 0.0
H448 H 0.47058 0.95332 0.6136 0.0
H449 H 0.42754 0.94413 0.59983 0.0
H450 H 0.67563 0.11597 0.66887 0.0
H451 H 0.71369 0.17278 0.68949 0.0
H452 H 0.69278 0.19241 0.67394 0.0
H453 H 0.75242 0.21253 0.67549 0.0
H454 H 0.67092 0.06768 0.64722 0.0
H455 H 0.70161 0.19825 0.63057 0.0
H456 H 0.59515 0.00389 0.61578 0.0
H457 H 0.56903 0.00415 0.63362 0.0
H458 H 0.61973 0.00029 0.63384 0.0
H459 H 0.65896 0.20801 0.61119 0.0
H460 H 0.60067 0.16328 0.61033 0.0
H461 H 0.64038 0.16518 0.59652 0.0
H462 H 0.76068 0.13124 0.50625 0.0
H463 H 0.64849 0.99234 0.51946 0.0
H464 H 0.70194 0.13578 0.51625 0.0
H465 H 0.57421 0.97308 0.55065 0.0
H466 H 0.58589 0.94553 0.53508 0.0
H467 H 0.54343 0.9619 0.53293 0.0
H468 H 0.66753 0.17248 0.52789 0.0
H469 H 0.64155 0.14709 0.54603 0.0
H470 H 0.60685 0.13759 0.52939 0.0
H471 H 0.32411 0.04786 0.52631 0.0
H472 H 0.24514 0.00609 0.53549 0.0
H473 H 0.28007 0.98626 0.54419 0.0
H474 H 0.24037 0.95326 0.52932 0.0
H475 H 0.34714 0.93225 0.52595 0.0
H476 H 0.3955 0.07405 0.52022 0.0
H477 H 0.42539 0.93795 0.55125 0.0
H478 H 0.45514 0.94307 0.53376 0.0
H479 H 0.39479 0.90479 0.53471 0.0
H480 H 0.46877 0.13002 0.52727 0.0
H481 H 0.51058 0.11237 0.52679 0.0
H482 H 0.48648 0.11469 0.54478 0.0
H483 H 0.53699 0.06111 0.62989 0.0
H484 H 0.64617 0.08699 0.59075 0.0
H485 H 0.64334 0.07776 0.56325 0.0
H486 H 0.5286 0.03741 0.52435 0.0
H487 H 0.42133 0.01753 0.5636 0.0
H488 H 0.42295 0.02104 0.59112 0.0
H489 H 0.70233 0.08286 0.47747 0.0
H490 H 0.74765 0.14108 0.47819 0.0
H491 H 0.69727 0.12328 0.48925 0.0
C492 C 0.67535 0.63028 0.81407 0.0
C493 C 0.69154 0.67225 0.8242 0.0
C494 C 0.66682 0.64484 0.85006 0.0
C495 C 0.64034 0.66441 0.85361 0.0
C496 C 0.6042 0.64326 0.86396 0.0
C497 C 0.59456 0.6018 0.87089 0.0
C498 C 0.62284 0.58334 0.86796 0.0
C499 C 0.65909 0.60553 0.85768 0.0
C500 C 0.57542 0.6644 0.86714 0.0
C501 C 0.61358 0.53921 0.87516 0.0
C502 C 0.28612 0.32553 0.82617 0.0
C503 C 0.32437 0.3511 0.83696 0.0
C504 C 0.36478 0.42297 0.8505 0.0
C505 C 0.39171 0.41037 0.85916 0.0
C506 C 0.42627 0.44151 0.86876 0.0
C507 C 0.43369 0.48603 0.86997 0.0
C508 C 0.40591 0.49856 0.86166 0.0
C509 C 0.37176 0.46677 0.85199 0.0
C510 C 0.45544 0.42696 0.87738 0.0
C511 C 0.41273 0.54565 0.86285 0.0
C512 C 0.34502 0.4245 0.9675 0.0
C513 C 0.37228 0.40928 0.96085 0.0
C514 C 0.41326 0.43983 0.95374 0.0
C515 C 0.42662 0.48638 0.95306 0.0
C516 C 0.39975 0.50189 0.96022 0.0
C517 C 0.35951 0.47068 0.96758 0.0
C518 C 0.44197 0.42225 0.94683 0.0
C519 C 0.41303 0.55121 0.95981 0.0
C520 C 0.7855 0.69459 0.96678 0.0
C521 C 0.75111 0.70946 0.97052 0.0
C522 C 0.67277 0.6496 0.97008 0.0
C523 C 0.65325 0.60285 0.96856 0.0
C524 C 0.61234 0.57754 0.96058 0.0
C525 C 0.58984 0.59962 0.95451 0.0
C526 C 0.60827 0.64667 0.95688 0.0
C527 C 0.65001 0.67133 0.96447 0.0
C528 C 0.59377 0.52745 0.95834 0.0
C529 C 0.58428 0.671 0.9512 0.0
C530 C 0.55247 0.57559 0.87991 0.0
C531 C 0.51293 0.54735 0.87174 0.0
C532 C 0.4722 0.51982 0.87932 0.0
C533 C 0.47026 0.52122 0.89553 0.0
C534 C 0.42953 0.49476 0.90348 0.0
C535 C 0.42844 0.49449 0.91947 0.0
C536 C 0.46812 0.52042 0.92813 0.0
C537 C 0.46782 0.5184 0.94439 0.0
C538 C 0.50764 0.54537 0.95265 0.0
C539 C 0.54829 0.5738 0.94508 0.0
C540 C 0.54948 0.57549 0.9288 0.0
C541 C 0.59004 0.60265 0.92078 0.0
C542 C 0.59098 0.60348 0.90477 0.0
C543 C 0.55158 0.57655 0.89616 0.0
C544 C 0.51027 0.54917 0.90399 0.0
C545 C 0.50921 0.54868 0.92032 0.0
C546 C 0.23361 0.36572 0.96208 0.0
C547 C 0.27102 0.3564 0.96741 0.0
O548 O 0.6992 0.66262 0.83906 0.0
O549 O 0.71351 0.67312 0.9771 0.0
O550 O 0.30505 0.39541 0.97421 0.0
O551 O 0.33242 0.39408 0.84053 0.0
H552 H 0.66415 0.68093 0.82405 0.0
H553 H 0.64248 0.6026 0.8184 0.0
H554 H 0.70009 0.61815 0.81421 0.0
H555 H 0.67042 0.63803 0.80202 0.0
H556 H 0.64759 0.69591 0.84814 0.0
H557 H 0.68025 0.59114 0.855 0.0
H558 H 0.5412 0.64288 0.86214 0.0
H559 H 0.59012 0.69895 0.86217 0.0
H560 H 0.57135 0.66624 0.87975 0.0
H561 H 0.63919 0.52977 0.87188 0.0
H562 H 0.57967 0.51173 0.87152 0.0
H563 H 0.61326 0.54165 0.88788 0.0
H564 H 0.35583 0.35044 0.83402 0.0
H565 H 0.30197 0.32075 0.81553 0.0
H566 H 0.27854 0.35101 0.82067 0.0
H567 H 0.2385 0.27072 0.83961 0.0
H568 H 0.38635 0.37641 0.85839 0.0
H569 H 0.35069 0.47617 0.84539 0.0
H570 H 0.45063 0.42826 0.88995 0.0
H571 H 0.4917 0.45051 0.87485 0.0
H572 H 0.44728 0.39207 0.87436 0.0
H573 H 0.38587 0.54895 0.85672 0.0
H574 H 0.446 0.57028 0.85784 0.0
H575 H 0.41319 0.55477 0.87513 0.0
H576 H 0.28378 0.34712 0.95707 0.0
H577 H 0.36166 0.3736 0.96133 0.0
H578 H 0.33842 0.48201 0.97301 0.0
H579 H 0.44006 0.42314 0.93409 0.0
H580 H 0.43061 0.38689 0.95043 0.0
H581 H 0.47795 0.44405 0.95022 0.0
H582 H 0.38705 0.55736 0.96511 0.0
H583 H 0.41841 0.56346 0.94772 0.0
H584 H 0.44546 0.57146 0.96607 0.0
H585 H 0.7419 0.71981 0.95951 0.0
H586 H 0.8154 0.72206 0.96081 0.0
H587 H 0.76977 0.6647 0.95905 0.0
H588 H 0.79689 0.68523 0.97748 0.0
H589 H 0.67105 0.58651 0.97316 0.0
H590 H 0.66492 0.70749 0.9661 0.0
H591 H 0.58654 0.51866 0.94596 0.0
H592 H 0.56142 0.50824 0.96468 0.0
H593 H 0.61748 0.51633 0.96253 0.0
H594 H 0.599 0.70548 0.95616 0.0
H595 H 0.54777 0.6514 0.95413 0.0
H596 H 0.587 0.67415 0.93848 0.0
H597 H 0.51424 0.54564 0.8593 0.0
H598 H 0.39811 0.47373 0.8974 0.0
H599 H 0.39614 0.47328 0.92497 0.0
H600 H 0.50719 0.54348 0.96512 0.0
H601 H 0.62165 0.62346 0.92677 0.0
H602 H 0.62311 0.62499 0.89921 0.0
H603 H 0.2185 0.37346 0.97209 0.0
H604 H 0.20659 0.33616 0.95582 0.0
H605 H 0.24792 0.39519 0.95412 0.0
H606 H 0.02667 0.25523 0.12019 0.0
H607 H -0.00028 0.15229 0.15433 0.0
H608 H 0.02331 0.20842 0.17461 0.0
H609 H 0.06014 0.28802 0.18253 0.0
H610 H 0.0962 0.39196 0.14813 0.0
H611 H 0.06145 0.33446 0.12818 0.0
C612 C 0.02604 0.2449 0.13204 0.0
C613 C 0.01161 0.1993 0.13556 0.0
C614 C 0.04185 0.2778 0.14368 0.0
C615 C 0.0099 0.18675 0.15112 0.0
C616 C 0.02399 0.21903 0.16279 0.0
C617 C 0.05969 0.29793 0.17069 0.0
C618 C 0.08026 0.34414 0.16691 0.0
C619 C 0.04118 0.26479 0.15917 0.0
C620 C 0.08015 0.35668 0.15146 0.0
C621 C 0.06046 0.32378 0.14 0.0
H622 H 0.90685 0.08929 0.47002 0.0
H623 H 0.79887 0.9566 0.45732 0.0
H624 H 0.7445 0.97045 0.47099 0.0
H625 H 0.72717 0.02216 0.48519 0.0
H626 H 0.83519 0.15516 0.49745 0.0
H627 H 0.89027 0.1391 0.48544 0.0
C628 C 0.87159 0.06298 0.47052 0.0
C629 C 0.85694 0.02193 0.46268 0.0
C630 C 0.84056 0.07134 0.47826 0.0
C631 C 0.81094 0.98861 0.46316 0.0
C632 C 0.77987 0.99649 0.47099 0.0
C633 C 0.76288 0.04729 0.48544 0.0
C634 C 0.77722 0.08957 0.49238 0.0
C635 C 0.79421 0.03801 0.47836 0.0
C636 C 0.82345 0.12221 0.49235 0.0
C637 C 0.85488 0.1131 0.48545 0.0
H638 H 0.8806 0.81543 0.79532 0.0
H639 H 0.80668 0.88551 0.78691 0.0
H640 H 0.74074 0.8255 0.79996 0.0
H641 H 0.70275 0.75151 0.81263 0.0
H642 H 0.776 0.68114 0.82151 0.0
H643 H 0.84347 0.74268 0.80935 0.0
C644 C 0.85002 0.81746 0.79637 0.0
C645 C 0.84851 0.8548 0.79015 0.0
C646 C 0.81208 0.78272 0.80389 0.0
C647 C 0.80888 0.85735 0.79174 0.0
C648 C 0.77104 0.82292 0.79912 0.0
C649 C 0.73359 0.7498 0.812 0.0
C650 C 0.73431 0.71168 0.8178 0.0
C651 C 0.77212 0.78528 0.80509 0.0
C652 C 0.7746 0.71004 0.817 0.0
C653 C 0.8131 0.74517 0.81005 0.0
H654 H 0.00885 0.81285 0.11991 0.0
H655 H 0.05458 0.9224 0.15257 0.0
H656 H 0.03292 0.86888 0.17375 0.0
H657 H 0.99199 0.79047 0.18309 0.0
H658 H 0.93812 0.68074 0.15046 0.0
H659 H 0.97099 0.73462 0.12927 0.0
C660 C 0.01412 0.82517 0.13164 0.0
C661 C 0.03303 0.87182 0.1345 0.0
C662 C 0.99952 0.79398 0.14385 0.0
C663 C 0.04071 0.88696 0.14986 0.0
C664 C 0.02775 0.85624 0.16206 0.0
C665 C 0.98826 0.77845 0.17134 0.0
C666 C 0.96327 0.73175 0.16839 0.0
C667 C 0.00588 0.80964 0.15918 0.0
C668 C 0.9578 0.71648 0.1531 0.0
C669 C 0.97639 0.7473 0.14096 0.0
H670 H 0.19261 0.00366 0.46077 0.0
H671 H 0.26067 0.14823 0.46767 0.0
H672 H 0.29947 0.14065 0.49024 0.0
H673 H 0.31171 0.09239 0.50855 0.0
H674 H 0.24528 0.94838 0.50089 0.0
H675 H 0.20874 0.95647 0.4778 0.0
C676 C 0.21672 0.03376 0.46694 0.0
C677 C 0.2237 0.07649 0.46247 0.0
C678 C 0.23903 0.02921 0.4798 0.0
C679 C 0.25425 0.11486 0.47093 0.0
C680 C 0.27656 0.11058 0.48381 0.0
C681 C 0.28944 0.06288 0.50175 0.0
C682 C 0.28083 0.0198 0.50647 0.0
C683 C 0.26876 0.06784 0.48846 0.0
C684 C 0.25211 0.98181 0.49753 0.0
C685 C 0.23128 0.98644 0.48435 0.0
H686 H 0.15854 0.24819 0.80395 0.0
H687 H 0.22331 0.16984 0.79366 0.0
H688 H 0.27841 0.20178 0.81422 0.0
H689 H 0.32188 0.26226 0.83935 0.0
H690 H 0.24425 0.35336 0.8537 0.0
H691 H 0.1804 0.30799 0.82878 0.0
C692 C 0.18462 0.23994 0.80659 0.0
C693 C 0.18892 0.20768 0.79771 0.0
C694 C 0.21333 0.26127 0.81887 0.0
C695 C 0.22239 0.19542 0.80074 0.0
C696 C 0.2542 0.21314 0.81266 0.0
C697 C 0.2943 0.26905 0.83799 0.0
C698 C 0.29486 0.3182 0.84736 0.0
C699 C 0.25452 0.24477 0.82248 0.0
C700 C 0.24517 0.32718 0.847 0.0
C701 C 0.20711 0.30043 0.83105 0.0
H702 H 0.81274 0.04457 0.69396 0.0
H703 H 0.92845 0.1779 0.68733 0.0
H704 H 0.88026 0.20287 0.6751 0.0
H705 H 0.80437 0.18861 0.66802 0.0
H706 H 0.68815 0.05764 0.67709 0.0
H707 H 0.73738 0.03012 0.68672 0.0
C708 C 0.82752 0.07925 0.68998 0.0
C709 C 0.87425 0.10931 0.69173 0.0
C710 C 0.7994 0.09393 0.68347 0.0
C711 C 0.89277 0.15373 0.68603 0.0
C712 C 0.86513 0.16824 0.67914 0.0
C713 C 0.7899 0.1541 0.67215 0.0
C714 C 0.74267 0.12544 0.67211 0.0
C715 C 0.8183 0.13889 0.67807 0.0
C716 C 0.72437 0.0805 0.67718 0.0
C717 C 0.75248 0.06476 0.68269 0.0
H718 H 0.87119 0.89227 0.00653 0.0
H719 H 0.78711 0.81228 0.04434 0.0
H720 H 0.74465 0.74862 0.02704 0.0
H721 H 0.73461 0.71417 0.00157 0.0
H722 H 0.81491 0.79584 0.96343 0.0
H723 H 0.85519 0.86076 0.98054 0.0
C724 C 0.84288 0.86144 0.011 0.0
C725 C 0.83298 0.85716 0.02684 0.0
C726 C 0.81806 0.8251 0.00094 0.0
C727 C 0.7964 0.81639 0.03231 0.0
C728 C 0.77187 0.77994 0.02239 0.0
C729 C 0.76044 0.74624 0.9969 0.0
C730 C 0.77196 0.75001 0.9812 0.0
C731 C 0.78301 0.78362 0.00675 0.0
C732 C 0.80561 0.79205 0.97547 0.0
C733 C 0.82864 0.82913 0.98524 0.0
H734 H 0.95455 0.83086 0.34757 0.0
H735 H 0.06719 0.84478 0.37455 0.0
H736 H 0.06025 0.77683 0.36273 0.0
H737 H 0.01923 0.71087 0.34599 0.0
H738 H 0.90534 0.69512 0.31941 0.0
H739 H 0.9158 0.76648 0.32967 0.0
C740 C 0.97791 0.81929 0.35066 0.0
C741 C 0.01107 0.8425 0.362 0.0
C742 C 0.9734 0.77983 0.34393 0.0
C743 C 0.04096 0.82703 0.36602 0.0
C744 C 0.0371 0.78829 0.35924 0.0
C745 C 0.99717 0.72347 0.34228 0.0
C746 C 0.96199 0.69816 0.33182 0.0
C747 C 0.00299 0.76402 0.34839 0.0
C748 C 0.93308 0.71442 0.32729 0.0
C749 C 0.93892 0.75505 0.33321 0.0
H750 H 0.2384 0.04877 0.70162 0.0
H751 H 0.1287 0.93382 0.67889 0.0
H752 H 0.1829 0.91952 0.66532 0.0
H753 H 0.26149 0.93703 0.66117 0.0
H754 H 0.37045 0.05041 0.68473 0.0
H755 H 0.31651 0.06776 0.69684 0.0
C756 C 0.22631 0.02045 0.69375 0.0
C757 C 0.17957 0.99216 0.69139 0.0
C758 C 0.25755 0.0121 0.68617 0.0
C759 C 0.16451 0.95627 0.68086 0.0
C760 C 0.19546 0.9479 0.67317 0.0
C761 C 0.27331 0.96581 0.66882 0.0
C762 C 0.31985 0.99261 0.67198 0.0
C763 C 0.24204 0.97525 0.67589 0.0
C764 C 0.33483 0.02953 0.68204 0.0
C765 C 0.30402 0.03937 0.689 0.0
H766 H 0.15996 0.17415 0.00494 0.0
H767 H 0.23867 0.26061 0.04254 0.0
H768 H 0.27821 0.32365 0.02472 0.0
H769 H 0.28691 0.35549 0.99882 0.0
H770 H 0.21277 0.26775 0.96092 0.0
H771 H 0.17553 0.20363 0.97859 0.0
C772 C 0.18652 0.20635 0.00926 0.0
C773 C 0.19557 0.21252 0.02518 0.0
C774 C 0.20978 0.24241 0.99892 0.0
C775 C 0.22992 0.25496 0.03044 0.0
C776 C 0.25282 0.29109 0.02024 0.0
C777 C 0.26304 0.32235 0.99433 0.0
C778 C 0.25216 0.31666 0.97852 0.0
C779 C 0.24233 0.28545 0.0045 0.0
C780 C 0.22131 0.27314 0.97304 0.0
C781 C 0.20006 0.23648 0.98313 0.0
H782 H 0.05466 0.22233 0.34206 0.0
H783 H 0.01541 0.25676 0.38496 0.0
H784 H 0.99662 0.31029 0.37348 0.0
H785 H 0.98606 0.35773 0.34792 0.0
H786 H 0.02572 0.31317 0.29614 0.0
H787 H 0.04824 0.25355 0.313 0.0
C788 C 0.04365 0.24275 0.34814 0.0
C789 C 0.0355 0.23718 0.36413 0.0
C790 C 0.03418 0.27157 0.33977 0.0
C791 C 0.02011 0.26229 0.37266 0.0
C792 C 0.0091 0.29323 0.36623 0.0
C793 C 0.99552 0.33692 0.34133 0.0
C794 C 0.01123 0.34801 0.32065 0.0
C795 C 0.01267 0.30085 0.35059 0.0
C796 C 0.02092 0.30876 0.30845 0.0
C797 C 0.03713 0.27379 0.3191 0.0
loop_
_geom_bond_atom_site_label_1
_geom_bond_atom_site_label_2
_geom_bond_distance
_geom_bond_site_symmetry_2
_ccdc_geom_bond_type
Li0 N17 1.990 . S
Li0 O60 1.956 . S
Li0 O61 1.970 . S
Li0 O62 1.961 1_545 S
Li1 N25 1.990 1_455 S
Li1 O60 1.970 . S
Li1 O61 1.956 . S
Li1 O63 1.961 1_445 S
Li2 N47 1.990 . S
Li2 O60 1.961 1_565 S
Li2 O62 1.956 . S
Li2 O63 1.970 1_455 S
Li3 N53 1.990 . S
Li3 O61 1.961 1_665 S
Li3 O62 1.970 1_655 S
Li3 O63 1.956 . S
C4 C6 1.348 . S
C4 C7 1.356 . S
C4 O60 1.325 . S
N5 C8 1.314 . S
N5 C9 1.279 . S
C6 C4 1.348 . S
C6 C8 1.353 . S
C6 H64 0.929 . S
C7 C4 1.356 . S
C7 C9 1.358 . S
C7 H65 0.930 . S
C8 N5 1.314 . S
C8 C6 1.353 . S
C8 H66 0.930 . S
C9 N5 1.279 . S
C9 C7 1.358 . S
C9 H67 0.930 . S
C10 C13 1.348 1_655 S
C10 C14 1.356 . S
C10 O61 1.325 1_655 S
C11 N12 1.279 . S
C11 C14 1.358 . S
C11 H68 0.930 . S
N12 C11 1.279 . S
N12 C15 1.314 1_655 S
C13 C10 1.348 1_455 S
C13 C15 1.353 . S
C13 H69 0.929 . S
C14 C10 1.356 . S
C14 C11 1.358 . S
C14 H70 0.930 . S
C15 N12 1.314 1_455 S
C15 C13 1.353 . S
C15 H71 0.930 . S
C16 N17 1.314 . S
C16 C21 1.353 . S
C16 H22 0.930 . S
N17 Li0 1.990 . S
N17 C16 1.314 . S
N17 C19 1.279 . S
C18 C19 1.358 . S
C18 C20 1.356 . S
C18 H72 0.930 . S
C19 N17 1.279 . S
C19 C18 1.358 . S
C19 H23 0.930 . S
C20 C18 1.356 . S
C20 C21 1.348 . S
C21 C16 1.353 . S
C21 C20 1.348 . S
C21 H73 0.929 . S
H22 C16 0.930 . S
H23 C19 0.930 . S
C24 N25 1.314 . S
C24 C26 1.353 . S
C24 H30 0.930 . S
N25 Li1 1.990 1_655 S
N25 C24 1.314 . S
N25 C28 1.279 . S
C26 C24 1.353 . S
C26 C29 1.348 . S
C26 H74 0.929 . S
C27 C28 1.358 . S
C27 C29 1.356 . S
C27 H75 0.930 . S
C28 N25 1.279 . S
C28 C27 1.358 . S
C28 H31 0.930 . S
C29 C26 1.348 . S
C29 C27 1.356 . S
H30 C24 0.930 . S
H31 C28 0.930 . S
C32 C34 1.348 . S
C32 C35 1.356 . S
C32 O62 1.325 . S
N33 C36 1.314 . S
N33 C37 1.279 . S
C34 C32 1.348 . S
C34 C36 1.353 . S
C34 H76 0.929 1_455 S
C35 C32 1.356 . S
C35 C37 1.358 . S
C35 H77 0.928 1_565 S
C36 N33 1.314 . S
C36 C34 1.353 . S
C36 H78 0.930 1_455 S
C37 N33 1.279 . S
C37 C35 1.358 . S
C37 H79 0.930 . S
C38 C39 1.348 . S
C38 C40 1.356 . S
C38 O63 1.325 . S
C39 C38 1.348 . S
C39 C41 1.353 . S
C39 H80 0.929 . S
C40 C38 1.356 . S
C40 C42 1.358 . S
C40 H81 0.932 1_565 S
C41 C39 1.353 . S
C41 N43 1.314 . S
C41 H82 0.930 . S
C42 C40 1.358 . S
C42 N43 1.279 . S
C42 H83 0.930 . S
N43 C41 1.314 . S
N43 C42 1.279 . S
C44 C46 1.353 . S
C44 N47 1.314 . S
C44 H50 0.930 . S
C45 N47 1.279 . S
C45 C48 1.358 . S
C45 H51 0.930 . S
C46 C44 1.353 . S
C46 C49 1.348 . S
C46 H84 0.929 . S
N47 Li2 1.990 . S
N47 C44 1.314 . S
N47 C45 1.279 . S
C48 C45 1.358 . S
C48 C49 1.356 . S
C48 H85 0.930 . S
C49 C46 1.348 . S
C49 C48 1.356 . S
H50 C44 0.930 . S
H51 C45 0.930 . S
C52 N53 1.314 . S
C52 C54 1.353 . S
C52 H58 0.930 . S
N53 Li3 1.990 . S
N53 C52 1.314 . S
N53 C56 1.279 . S
C54 C52 1.353 . S
C54 C57 1.348 . S
C54 H86 0.929 . S
C55 C56 1.358 . S
C55 C57 1.356 . S
C55 H87 0.930 . S
C56 N53 1.279 . S
C56 C55 1.358 . S
C56 H59 0.930 . S
C57 C54 1.348 . S
C57 C55 1.356 . S
H58 C52 0.930 . S
H59 C56 0.930 . S
O60 Li0 1.956 . S
O60 Li1 1.970 . S
O60 Li2 1.961 1_545 S
O60 C4 1.325 . S
O61 Li0 1.970 . S
O61 Li1 1.956 . S
O61 Li3 1.961 1_445 S
O61 C10 1.325 1_455 S
O62 Li0 1.961 1_565 S
O62 Li2 1.956 . S
O62 Li3 1.970 1_455 S
O62 C32 1.325 . S
O63 Li1 1.961 1_665 S
O63 Li2 1.970 1_655 S
O63 Li3 1.956 . S
O63 C38 1.325 . S
H64 C6 0.929 . S
H65 C7 0.930 . S
H66 C8 0.930 . S
H67 C9 0.930 . S
H68 C11 0.930 . S
H69 C13 0.929 . S
H70 C14 0.930 . S
H71 C15 0.930 . S
H72 C18 0.930 . S
H73 C21 0.929 . S
H74 C26 0.929 . S
H75 C27 0.930 . S
H76 C34 0.929 1_655 S
H77 C35 0.928 1_545 S
H78 C36 0.930 1_655 S
H79 C37 0.930 . S
H80 C39 0.929 . S
H81 C40 0.932 1_545 S
H82 C41 0.930 . S
H83 C42 0.930 . S
H84 C46 0.929 . S
H85 C48 0.930 . S
H86 C54 0.929 . S
H87 C55 0.930 . S
Li88 N105 1.990 1_455 S
Li88 O148 1.956 . S
Li88 O149 1.970 1_565 S
Li88 O150 1.961 1_465 S
Li89 N113 1.990 . S
Li89 O148 1.970 1_545 S
Li89 O149 1.956 . S
Li89 O151 1.961 . S
Li90 N135 1.990 . S
Li90 O148 1.961 1_645 S
Li90 O150 1.956 . S
Li90 O151 1.970 1_655 S
Li91 N141 1.990 . S
Li91 O149 1.961 . S
Li91 O150 1.970 1_455 S
Li91 O151 1.956 . S
C92 C94 1.348 . S
C92 C95 1.356 1_455 S
C92 O148 1.325 . S
N93 C96 1.314 1_655 S
N93 C97 1.279 . S
C94 C92 1.348 . S
C94 C96 1.353 . S
C94 H152 0.929 . S
C95 C92 1.356 1_655 S
C95 C97 1.358 . S
C95 H153 0.930 . S
C96 N93 1.314 1_455 S
C96 C94 1.353 . S
C96 H154 0.930 . S
C97 N93 1.279 . S
C97 C95 1.358 . S
C97 H155 0.930 . S
C98 C101 1.348 . S
C98 C102 1.356 . S
C98 O149 1.325 . S
C99 N100 1.279 . S
C99 C102 1.358 . S
C99 H156 0.930 . S
N100 C99 1.279 . S
N100 C103 1.314 . S
C101 C98 1.348 . S
C101 C103 1.353 . S
C101 H157 0.951 . S
C102 C98 1.356 . S
C102 C99 1.358 . S
C102 H158 0.930 . S
C103 N100 1.314 . S
C103 C101 1.353 . S
C103 H159 0.930 . S
C104 N105 1.314 . S
C104 C109 1.353 . S
C104 H110 0.930 . S
N105 Li88 1.990 1_655 S
N105 C104 1.314 . S
N105 C107 1.279 . S
C106 C107 1.358 . S
C106 C108 1.356 . S
C106 H160 0.930 . S
C107 N105 1.279 . S
C107 C106 1.358 . S
C107 H111 0.930 1_655 S
C108 C106 1.356 . S
C108 C109 1.348 . S
C109 C104 1.353 . S
C109 C108 1.348 . S
C109 H161 0.929 . S
H110 C104 0.930 . S
H111 C107 0.930 1_455 S
C112 N113 1.314 . S
C112 C114 1.353 . S
C112 H118 0.930 . S
N113 Li89 1.990 . S
N113 C112 1.314 . S
N113 C116 1.279 . S
C114 C112 1.353 . S
C114 C117 1.348 . S
C114 H162 0.929 . S
C115 C116 1.358 . S
C115 C117 1.356 . S
C115 H163 0.930 . S
C116 N113 1.279 . S
C116 C115 1.358 . S
C116 H119 0.930 . S
C117 C114 1.348 . S
C117 C115 1.356 . S
H118 C112 0.930 . S
H119 C116 0.930 . S
C120 C122 1.348 . S
C120 C123 1.356 1_545 S
C120 O150 1.325 . S
N121 C124 1.314 1_565 S
N121 C125 1.279 . S
C122 C120 1.348 . S
C122 C124 1.353 . S
C122 H164 0.929 . S
C123 C120 1.356 1_565 S
C123 C125 1.358 . S
C123 H165 0.930 . S
C124 N121 1.314 1_545 S
C124 C122 1.353 . S
C124 H166 0.930 . S
C125 N121 1.279 . S
C125 C123 1.358 . S
C125 H167 0.930 . S
C126 C127 1.348 . S
C126 C128 1.356 . S
C126 O151 1.325 . S
C127 C126 1.348 . S
C127 C129 1.353 . S
C127 H168 0.929 1_455 S
C128 C126 1.356 . S
C128 C130 1.358 . S
C128 H169 0.930 . S
C129 C127 1.353 . S
C129 N131 1.314 . S
C129 H170 0.930 . S
C130 C128 1.358 . S
C130 N131 1.279 . S
C130 H171 0.930 . S
N131 C129 1.314 . S
N131 C130 1.279 . S
C132 C134 1.353 1_545 S
C132 N135 1.314 . S
C132 H138 0.930 . S
C133 N135 1.279 . S
C133 C136 1.358 . S
C133 H139 0.930 . S
C134 C132 1.353 1_565 S
C134 C137 1.348 . S
C134 H172 0.929 . S
N135 Li90 1.990 . S
N135 C132 1.314 . S
N135 C133 1.279 . S
C136 C133 1.358 . S
C136 C137 1.356 1_545 S
C136 H173 0.930 . S
C137 C134 1.348 . S
C137 C136 1.356 1_565 S
H138 C132 0.930 . S
H139 C133 0.930 . S
C140 N141 1.314 . S
C140 C142 1.353 . S
C140 H146 0.930 . S
N141 Li91 1.990 . S
N141 C140 1.314 . S
N141 C144 1.279 . S
C142 C140 1.353 . S
C142 C145 1.348 . S
C142 H174 0.929 . S
C143 C144 1.358 . S
C143 C145 1.356 . S
C143 H175 0.930 . S
C144 N141 1.279 . S
C144 C143 1.358 . S
C144 H147 0.930 . S
C145 C142 1.348 . S
C145 C143 1.356 . S
H146 C140 0.930 . S
H147 C144 0.930 . S
O148 Li88 1.956 . S
O148 Li89 1.970 1_565 S
O148 Li90 1.961 1_465 S
O148 C92 1.325 . S
O149 Li88 1.970 1_545 S
O149 Li89 1.956 . S
O149 Li91 1.961 . S
O149 C98 1.325 . S
O150 Li88 1.961 1_645 S
O150 Li90 1.956 . S
O150 Li91 1.970 1_655 S
O150 C120 1.325 . S
O151 Li89 1.961 . S
O151 Li90 1.970 1_455 S
O151 Li91 1.956 . S
O151 C126 1.325 . S
H152 C94 0.929 . S
H153 C95 0.930 . S
H154 C96 0.930 . S
H155 C97 0.930 . S
H156 C99 0.930 . S
H157 C101 0.951 . S
H158 C102 0.930 . S
H159 C103 0.930 . S
H160 C106 0.930 . S
H161 C109 0.929 . S
H162 C114 0.929 . S
H163 C115 0.930 . S
H164 C122 0.929 . S
H165 C123 0.930 . S
H166 C124 0.930 . S
H167 C125 0.930 . S
H168 C127 0.929 1_655 S
H169 C128 0.930 . S
H170 C129 0.930 . S
H171 C130 0.930 . S
H172 C134 0.929 . S
H173 C136 0.930 . S
H174 C142 0.929 . S
H175 C143 0.930 . S
Li176 N193 1.990 . S
Li176 O236 1.956 . S
Li176 O237 1.970 . S
Li176 O238 1.961 1_445 S
Li177 N201 1.990 . S
Li177 O236 1.970 . S
Li177 O237 1.956 . S
Li177 O239 1.961 1_455 S
Li178 N223 1.990 . S
Li178 O236 1.961 1_665 S
Li178 O238 1.956 . S
Li178 O239 1.970 1_565 S
Li179 N229 1.990 . S
Li179 O237 1.961 1_655 S
Li179 O238 1.970 1_545 S
Li179 O239 1.956 . S
C180 C182 1.348 . S
C180 C183 1.356 1_545 S
C180 O236 1.325 . S
N181 C184 1.314 1_565 S
N181 C185 1.279 . S
C182 C180 1.348 . S
C182 C184 1.353 . S
C182 H240 0.929 . S
C183 C180 1.356 1_565 S
C183 C185 1.358 . S
C183 H241 0.930 . S
C184 N181 1.314 1_545 S
C184 C182 1.353 . S
C184 H242 0.930 . S
C185 N181 1.279 . S
C185 C183 1.358 . S
C185 H243 0.930 . S
C186 C189 1.348 . S
C186 C190 1.356 . S
C186 O237 1.325 . S
C187 N188 1.279 . S
C187 C190 1.358 . S
C187 H244 0.930 . S
N188 C187 1.279 . S
N188 C191 1.314 . S
C189 C186 1.348 . S
C189 C191 1.353 . S
C189 H245 0.929 . S
C190 C186 1.356 . S
C190 C187 1.358 . S
C190 H246 0.930 . S
C191 N188 1.314 . S
C191 C189 1.353 . S
C191 H247 0.930 . S
C192 N193 1.314 . S
C192 C197 1.353 1_545 S
C192 H198 0.930 . S
N193 Li176 1.990 . S
N193 C192 1.314 . S
N193 C195 1.279 . S
C194 C195 1.358 . S
C194 C196 1.356 1_545 S
C194 H248 0.930 . S
C195 N193 1.279 . S
C195 C194 1.358 . S
C195 H199 0.930 . S
C196 C194 1.356 1_565 S
C196 C197 1.348 . S
C197 C192 1.353 1_565 S
C197 C196 1.348 . S
C197 H249 0.929 . S
H198 C192 0.930 . S
H199 C195 0.930 . S
C200 N201 1.314 . S
C200 C202 1.353 . S
C200 H206 0.930 . S
N201 Li177 1.990 . S
N201 C200 1.314 . S
N201 C204 1.279 . S
C202 C200 1.353 . S
C202 C205 1.348 . S
C202 H250 0.929 . S
C203 C204 1.358 . S
C203 C205 1.356 . S
C203 H251 0.930 . S
C204 N201 1.279 . S
C204 C203 1.358 . S
C204 H207 0.930 . S
C205 C202 1.348 . S
C205 C203 1.356 . S
H206 C200 0.930 . S
H207 C204 0.930 . S
C208 C210 1.348 . S
C208 C211 1.356 . S
C208 O238 1.325 . S
N209 C212 1.314 . S
N209 C213 1.279 . S
C210 C208 1.348 . S
C210 C212 1.353 . S
C210 H252 0.929 . S
C211 C208 1.356 . S
C211 C213 1.358 . S
C211 H253 0.930 . S
C212 N209 1.314 . S
C212 C210 1.353 . S
C212 H254 0.930 . S
C213 N209 1.279 . S
C213 C211 1.358 . S
C213 H255 0.930 . S
C214 C215 1.348 . S
C214 C216 1.356 . S
C214 O239 1.325 . S
C215 C214 1.348 . S
C215 C217 1.353 . S
C215 H256 0.929 . S
C216 C214 1.356 . S
C216 C218 1.358 . S
C216 H257 0.930 . S
C217 C215 1.353 . S
C217 N219 1.314 . S
C217 H258 0.930 . S
C218 C216 1.358 . S
C218 N219 1.279 . S
C218 H259 0.930 . S
N219 C217 1.314 . S
N219 C218 1.279 . S
C220 C222 1.353 . S
C220 N223 1.314 . S
C220 H226 0.930 . S
C221 N223 1.279 . S
C221 C224 1.358 . S
C221 H227 0.930 . S
C222 C220 1.353 . S
C222 C225 1.348 . S
C222 H260 0.929 . S
N223 Li178 1.990 . S
N223 C220 1.314 . S
N223 C221 1.279 . S
C224 C221 1.358 . S
C224 C225 1.356 . S
C224 H261 0.930 . S
C225 C222 1.348 . S
C225 C224 1.356 . S
H226 C220 0.930 . S
H227 C221 0.930 . S
C228 N229 1.314 . S
C228 C230 1.353 . S
C228 H234 0.930 . S
N229 Li179 1.990 . S
N229 C228 1.314 . S
N229 C232 1.279 . S
C230 C228 1.353 . S
C230 C233 1.348 . S
C230 H262 0.929 . S
C231 C232 1.358 . S
C231 C233 1.356 . S
C231 H263 0.930 . S
C232 N229 1.279 . S
C232 C231 1.358 . S
C232 H235 0.930 . S
C233 C230 1.348 . S
C233 C231 1.356 . S
H234 C228 0.930 . S
H235 C232 0.930 . S
O236 Li176 1.956 . S
O236 Li177 1.970 . S
O236 Li178 1.961 1_445 S
O236 C180 1.325 . S
O237 Li176 1.970 . S
O237 Li177 1.956 . S
O237 Li179 1.961 1_455 S
O237 C186 1.325 . S
O238 Li176 1.961 1_665 S
O238 Li178 1.956 . S
O238 Li179 1.970 1_565 S
O238 C208 1.325 . S
O239 Li177 1.961 1_655 S
O239 Li178 1.970 1_545 S
O239 Li179 1.956 . S
O239 C214 1.325 . S
H240 C182 0.929 . S
H241 C183 0.930 . S
H242 C184 0.930 . S
H243 C185 0.930 . S
H244 C187 0.930 . S
H245 C189 0.929 . S
H246 C190 0.930 . S
H247 C191 0.930 . S
H248 C194 0.930 . S
H249 C197 0.929 . S
H250 C202 0.929 . S
H251 C203 0.930 . S
H252 C210 0.929 . S
H253 C211 0.930 . S
H254 C212 0.930 . S
H255 C213 0.930 . S
H256 C215 0.929 . S
H257 C216 0.930 . S
H258 C217 0.930 . S
H259 C218 0.930 . S
H260 C222 0.929 . S
H261 C224 0.930 . S
H262 C230 0.929 . S
H263 C231 0.930 . S
C264 C265 1.560 . S
C264 H325 0.959 . S
C264 H326 0.959 . S
C264 H327 0.960 . S
C265 C264 1.560 . S
C265 O320 1.426 . S
C265 H324 0.980 1_655 S
C266 C267 1.407 1_655 S
C266 C271 1.418 . S
C266 O320 1.334 . S
C267 C266 1.407 1_455 S
C267 C268 1.360 . S
C267 H328 0.929 . S
C268 C267 1.360 . S
C268 C269 1.401 . S
C268 C272 1.527 . S
C269 C268 1.401 . S
C269 C270 1.405 1_455 S
C269 C302 1.587 . S
C270 C269 1.405 1_655 S
C270 C271 1.332 . S
C270 C273 1.496 . S
C271 C266 1.418 . S
C271 C270 1.332 . S
C271 H329 0.929 . S
C272 C268 1.527 . S
C272 H330 0.959 . S
C272 H331 0.961 . S
C272 H332 0.961 . S
C273 C270 1.496 . S
C273 H333 0.960 . S
C273 H334 0.960 . S
C273 H335 0.961 . S
C274 C275 1.517 . S
C274 H337 0.961 . S
C274 H338 0.960 . S
C274 H339 0.959 . S
C275 C274 1.517 . S
C275 O323 1.468 . S
C275 H336 0.980 . S
C276 C277 1.349 . S
C276 C281 1.367 . S
C276 O323 1.408 . S
C277 C276 1.349 . S
C277 C278 1.407 . S
C277 H340 0.930 . S
C278 C277 1.407 . S
C278 C279 1.449 . S
C278 C282 1.535 1_455 S
C279 C278 1.449 . S
C279 C280 1.384 . S
C279 C304 1.553 . S
C280 C279 1.384 . S
C280 C281 1.364 . S
C280 C283 1.450 . S
C281 C276 1.367 . S
C281 C280 1.364 . S
C281 H341 0.931 . S
C282 C278 1.535 1_655 S
C282 H342 0.959 . S
C282 H343 0.961 . S
C282 H344 0.959 . S
C283 C280 1.450 . S
C283 H345 0.960 . S
C283 H346 0.960 . S
C283 H347 0.960 . S
C284 C285 1.309 . S
C284 C289 1.304 . S
C284 O322 1.435 . S
C285 C284 1.309 . S
C285 C286 1.476 . S
C285 H349 0.930 1_455 S
C286 C285 1.476 . S
C286 C287 1.400 . S
C286 C290 1.567 1_455 S
C287 C286 1.400 . S
C287 C288 1.373 . S
C287 C309 1.432 . S
C288 C287 1.373 . S
C288 C289 1.339 . S
C288 C291 1.530 . S
C289 C284 1.304 . S
C289 C288 1.339 . S
C289 H350 0.930 . S
C290 C286 1.567 1_655 S
C290 H351 0.961 . S
C290 H352 0.960 . S
C290 H353 0.958 . S
C291 C288 1.530 . S
C291 H354 0.961 . S
C291 H355 0.960 . S
C291 H356 0.960 . S
C292 C293 1.530 1_655 S
C292 H358 0.961 . S
C292 H359 0.961 . S
C292 H360 0.959 . S
C293 C292 1.530 1_455 S
C293 O321 1.412 1_455 S
C293 H357 0.980 . S
C294 C295 1.288 . S
C294 C299 1.377 1_655 S
C294 O321 1.393 . S
C295 C294 1.288 . S
C295 C296 1.369 . S
C295 H361 0.932 . S
C296 C295 1.369 . S
C296 C297 1.398 1_655 S
C296 C300 1.527 . S
C297 C296 1.398 1_455 S
C297 C298 1.380 . S
C297 C311 1.497 . S
C298 C297 1.380 . S
C298 C299 1.383 . S
C298 C301 1.603 . S
C299 C294 1.377 1_455 S
C299 C298 1.383 . S
C299 H362 0.929 . S
C300 C296 1.527 . S
C300 H363 0.961 . S
C300 H364 0.959 . S
C300 H365 0.959 . S
C301 C298 1.603 . S
C301 H366 0.960 . S
C301 H367 0.962 . S
C301 H368 0.961 . S
C302 C269 1.587 . S
C302 C303 1.360 . S
C302 C315 1.412 . S
C303 C302 1.360 . S
C303 C304 1.365 . S
C303 H369 0.929 . S
C304 C279 1.553 . S
C304 C303 1.365 . S
C304 C305 1.404 . S
C305 C304 1.404 . S
C305 C306 1.395 . S
C305 C316 1.451 . S
C306 C305 1.395 . S
C306 C307 1.322 . S
C306 H370 0.930 . S
C307 C306 1.322 . S
C307 C308 1.459 . S
C307 H371 0.929 . S
C308 C307 1.459 . S
C308 C309 1.445 . S
C308 C317 1.395 . S
C309 C287 1.432 . S
C309 C308 1.445 . S
C309 C310 1.370 . S
C310 C309 1.370 . S
C310 C311 1.438 . S
C310 H372 0.930 . S
C311 C297 1.497 . S
C311 C310 1.438 . S
C311 C312 1.360 . S
C312 C311 1.360 . S
C312 C313 1.401 . S
C312 C317 1.446 . S
C313 C312 1.401 . S
C313 C314 1.347 . S
C313 H373 0.929 . S
C314 C313 1.347 . S
C314 C315 1.455 . S
C314 H374 0.930 . S
C315 C302 1.412 . S
C315 C314 1.455 . S
C315 C316 1.331 . S
C316 C305 1.451 . S
C316 C315 1.331 . S
C316 C317 1.497 . S
C317 C308 1.395 . S
C317 C312 1.446 . S
C317 C316 1.497 . S
C318 C319 1.582 . S
C318 H375 0.962 . S
C318 H376 0.959 . S
C318 H377 0.958 . S
C319 C318 1.582 . S
C319 O322 1.458 . S
C319 H348 0.980 . S
O320 C265 1.426 . S
O320 C266 1.334 . S
O321 C293 1.412 1_655 S
O321 C294 1.393 . S
O322 C284 1.435 . S
O322 C319 1.458 . S
O323 C275 1.468 . S
O323 C276 1.408 . S
H324 C265 0.980 1_455 S
H325 C264 0.959 . S
H326 C264 0.959 . S
H327 C264 0.960 . S
H328 C267 0.929 . S
H329 C271 0.929 . S
H330 C272 0.959 . S
H331 C272 0.961 . S
H332 C272 0.961 . S
H333 C273 0.960 . S
H334 C273 0.960 . S
H335 C273 0.961 . S
H336 C275 0.980 . S
H337 C274 0.961 . S
H338 C274 0.960 . S
H339 C274 0.959 . S
H340 C277 0.930 . S
H341 C281 0.931 . S
H342 C282 0.959 . S
H343 C282 0.961 . S
H344 C282 0.959 . S
H345 C283 0.960 . S
H346 C283 0.960 . S
H347 C283 0.960 . S
H348 C319 0.980 . S
H349 C285 0.930 1_655 S
H350 C289 0.930 . S
H351 C290 0.961 . S
H352 C290 0.960 . S
H353 C290 0.958 . S
H354 C291 0.961 . S
H355 C291 0.960 . S
H356 C291 0.960 . S
H357 C293 0.980 . S
H358 C292 0.961 . S
H359 C292 0.961 . S
H360 C292 0.959 . S
H361 C295 0.932 . S
H362 C299 0.929 . S
H363 C300 0.961 . S
H364 C300 0.959 . S
H365 C300 0.959 . S
H366 C301 0.960 . S
H367 C301 0.962 . S
H368 C301 0.961 . S
H369 C303 0.929 . S
H370 C306 0.930 . S
H371 C307 0.929 . S
H372 C310 0.930 . S
H373 C313 0.929 . S
H374 C314 0.930 . S
H375 C318 0.962 . S
H376 C318 0.959 . S
H377 C318 0.958 . S
C378 C379 1.560 1_565 S
C378 H439 0.959 . S
C378 H440 0.959 . S
C378 H441 0.969 . S
C379 C378 1.560 1_545 S
C379 O434 1.426 1_545 S
C379 H438 0.980 . S
C380 C381 1.407 . S
C380 C385 1.418 1_545 S
C380 O434 1.334 1_545 S
C381 C380 1.407 . S
C381 C382 1.360 . S
C381 H442 0.929 . S
C382 C381 1.360 . S
C382 C383 1.401 . S
C382 C386 1.527 . S
C383 C382 1.401 . S
C383 C384 1.403 . S
C383 C416 1.587 . S
C384 C383 1.403 . S
C384 C385 1.332 1_545 S
C384 C387 1.498 1_545 S
C385 C380 1.418 1_565 S
C385 C384 1.332 1_565 S
C385 H443 0.929 . S
C386 C382 1.527 . S
C386 H444 0.959 . S
C386 H445 0.961 . S
C386 H446 0.961 . S
C387 C384 1.498 1_565 S
C387 H447 0.960 . S
C387 H448 0.960 . S
C387 H449 0.961 . S
C388 C389 1.517 . S
C388 H451 0.961 . S
C388 H452 0.960 . S
C388 H453 0.959 . S
C389 C388 1.517 . S
C389 O437 1.468 . S
C389 H450 0.980 . S
C390 C391 1.349 . S
C390 C395 1.367 . S
C390 O437 1.408 . S
C391 C390 1.349 . S
C391 C392 1.407 . S
C391 H454 0.930 . S
C392 C391 1.407 . S
C392 C393 1.449 . S
C392 C396 1.544 . S
C393 C392 1.449 . S
C393 C394 1.384 . S
C393 C418 1.553 . S
C394 C393 1.384 . S
C394 C395 1.364 . S
C394 C397 1.450 . S
C395 C390 1.367 . S
C395 C394 1.364 . S
C395 H455 0.931 . S
C396 C392 1.544 . S
C396 H456 0.966 . S
C396 H457 0.956 1_545 S
C396 H458 0.949 1_545 S
C397 C394 1.450 . S
C397 H459 0.960 . S
C397 H460 0.960 . S
C397 H461 0.960 . S
C398 C399 1.309 . S
C398 C403 1.304 . S
C398 O436 1.435 . S
C399 C398 1.309 . S
C399 C400 1.476 . S
C399 H463 0.930 . S
C400 C399 1.476 . S
C400 C401 1.400 . S
C400 C404 1.567 1_545 S
C401 C400 1.400 . S
C401 C402 1.373 . S
C401 C423 1.432 . S
C402 C401 1.373 . S
C402 C403 1.339 . S
C402 C405 1.530 . S
C403 C398 1.304 . S
C403 C402 1.339 . S
C403 H464 0.930 . S
C404 C400 1.567 1_565 S
C404 H465 0.961 . S
C404 H466 0.960 . S
C404 H467 0.958 . S
C405 C402 1.530 . S
C405 H468 0.961 . S
C405 H469 0.960 . S
C405 H470 0.960 . S
C406 C407 1.530 . S
C406 H472 0.961 . S
C406 H473 0.961 1_545 S
C406 H474 0.959 1_545 S
C407 C406 1.530 . S
C407 O435 1.412 . S
C407 H471 0.980 . S
C408 C409 1.288 1_545 S
C408 C413 1.377 . S
C408 O435 1.393 . S
C409 C408 1.288 1_565 S
C409 C410 1.369 . S
C409 H475 0.932 . S
C410 C409 1.369 . S
C410 C411 1.398 1_565 S
C410 C414 1.527 . S
C411 C410 1.398 1_545 S
C411 C412 1.380 . S
C411 C425 1.497 . S
C412 C411 1.380 . S
C412 C413 1.383 . S
C412 C415 1.603 . S
C413 C408 1.377 . S
C413 C412 1.383 . S
C413 H476 0.929 . S
C414 C410 1.527 . S
C414 H477 0.961 . S
C414 H478 0.959 . S
C414 H479 0.959 . S
C415 C412 1.603 . S
C415 H480 0.960 . S
C415 H481 0.962 . S
C415 H482 0.961 . S
C416 C383 1.587 . S
C416 C417 1.360 . S
C416 C429 1.412 . S
C417 C416 1.360 . S
C417 C418 1.365 . S
C417 H483 0.929 . S
C418 C393 1.553 . S
C418 C417 1.365 . S
C418 C419 1.404 . S
C419 C418 1.404 . S
C419 C420 1.395 . S
C419 C430 1.451 . S
C420 C419 1.395 . S
C420 C421 1.322 . S
C420 H484 0.930 . S
C421 C420 1.322 . S
C421 C422 1.459 . S
C421 H485 0.929 . S
C422 C421 1.459 . S
C422 C423 1.445 . S
C422 C431 1.395 . S
C423 C401 1.432 . S
C423 C422 1.445 . S
C423 C424 1.370 . S
C424 C423 1.370 . S
C424 C425 1.438 . S
C424 H486 0.930 . S
C425 C411 1.497 . S
C425 C424 1.438 . S
C425 C426 1.360 . S
C426 C425 1.360 . S
C426 C427 1.401 . S
C426 C431 1.446 . S
C427 C426 1.401 . S
C427 C428 1.347 . S
C427 H487 0.929 . S
C428 C427 1.347 . S
C428 C429 1.455 . S
C428 H488 0.930 . S
C429 C416 1.412 . S
C429 C428 1.455 . S
C429 C430 1.331 . S
C430 C419 1.451 . S
C430 C429 1.331 . S
C430 C431 1.497 . S
C431 C422 1.395 . S
C431 C426 1.446 . S
C431 C430 1.497 . S
C432 C433 1.582 . S
C432 H489 0.962 . S
C432 H490 0.959 . S
C432 H491 0.958 . S
C433 C432 1.582 . S
C433 O436 1.458 . S
C433 H462 0.980 . S
O434 C379 1.426 1_565 S
O434 C380 1.334 1_565 S
O435 C407 1.412 . S
O435 C408 1.393 . S
O436 C398 1.435 . S
O436 C433 1.458 . S
O437 C389 1.468 . S
O437 C390 1.408 . S
H438 C379 0.980 . S
H439 C378 0.959 . S
H440 C378 0.959 . S
H441 C378 0.969 . S
H442 C381 0.929 . S
H443 C385 0.929 . S
H444 C386 0.959 . S
H445 C386 0.961 . S
H446 C386 0.961 . S
H447 C387 0.960 . S
H448 C387 0.960 . S
H449 C387 0.961 . S
H450 C389 0.980 . S
H451 C388 0.961 . S
H452 C388 0.960 . S
H453 C388 0.959 . S
H454 C391 0.930 . S
H455 C395 0.931 . S
H456 C396 0.966 . S
H457 C396 0.956 1_565 S
H458 C396 0.949 1_565 S
H459 C397 0.960 . S
H460 C397 0.960 . S
H461 C397 0.960 . S
H462 C433 0.980 . S
H463 C399 0.930 . S
H464 C403 0.930 . S
H465 C404 0.961 . S
H466 C404 0.960 . S
H467 C404 0.958 . S
H468 C405 0.961 . S
H469 C405 0.960 . S
H470 C405 0.960 . S
H471 C407 0.980 . S
H472 C406 0.961 . S
H473 C406 0.961 1_565 S
H474 C406 0.959 1_565 S
H475 C409 0.932 . S
H476 C413 0.929 . S
H477 C414 0.961 . S
H478 C414 0.959 . S
H479 C414 0.959 . S
H480 C415 0.960 . S
H481 C415 0.962 . S
H482 C415 0.961 . S
H483 C417 0.929 . S
H484 C420 0.930 . S
H485 C421 0.929 . S
H486 C424 0.930 . S
H487 C427 0.929 . S
H488 C428 0.930 . S
H489 C432 0.962 . S
H490 C432 0.959 . S
H491 C432 0.958 . S
C492 C493 1.560 . S
C492 H553 0.959 . S
C492 H554 0.959 . S
C492 H555 0.960 . S
C493 C492 1.560 . S
C493 O548 1.426 . S
C493 H552 0.980 . S
C494 C495 1.407 . S
C494 C499 1.418 . S
C494 O548 1.334 . S
C495 C494 1.407 . S
C495 C496 1.360 . S
C495 H556 0.929 . S
C496 C495 1.360 . S
C496 C497 1.401 . S
C496 C500 1.527 . S
C497 C496 1.401 . S
C497 C498 1.405 . S
C497 C530 1.587 . S
C498 C497 1.405 . S
C498 C499 1.332 . S
C498 C501 1.496 . S
C499 C494 1.418 . S
C499 C498 1.332 . S
C499 H557 0.929 . S
C500 C496 1.527 . S
C500 H558 0.959 . S
C500 H559 0.961 . S
C500 H560 0.961 . S
C501 C498 1.496 . S
C501 H561 0.960 . S
C501 H562 0.960 . S
C501 H563 0.961 . S
C502 C503 1.517 . S
C502 H565 0.961 . S
C502 H566 0.960 . S
C502 H567 0.959 . S
C503 C502 1.517 . S
C503 O551 1.468 . S
C503 H564 0.980 . S
C504 C505 1.349 . S
C504 C509 1.367 . S
C504 O551 1.408 . S
C505 C504 1.349 . S
C505 C506 1.407 . S
C505 H568 0.930 . S
C506 C505 1.407 . S
C506 C507 1.449 . S
C506 C510 1.535 . S
C507 C506 1.449 . S
C507 C508 1.384 . S
C507 C532 1.553 . S
C508 C507 1.384 . S
C508 C509 1.364 . S
C508 C511 1.450 . S
C509 C504 1.367 . S
C509 C508 1.364 . S
C509 H569 0.931 . S
C510 C506 1.535 . S
C510 H570 0.959 . S
C510 H571 0.961 . S
C510 H572 0.959 . S
C511 C508 1.450 . S
C511 H573 0.960 . S
C511 H574 0.960 . S
C511 H575 0.960 . S
C512 C513 1.309 . S
C512 C517 1.304 . S
C512 O550 1.435 . S
C513 C512 1.309 . S
C513 C514 1.476 . S
C513 H577 0.930 . S
C514 C513 1.476 . S
C514 C515 1.400 . S
C514 C518 1.567 . S
C515 C514 1.400 . S
C515 C516 1.373 . S
C515 C537 1.432 . S
C516 C515 1.373 . S
C516 C517 1.339 . S
C516 C519 1.530 . S
C517 C512 1.304 . S
C517 C516 1.339 . S
C517 H578 0.930 . S
C518 C514 1.567 . S
C518 H579 0.961 . S
C518 H580 0.960 . S
C518 H581 0.958 . S
C519 C516 1.530 . S
C519 H582 0.961 . S
C519 H583 0.960 . S
C519 H584 0.960 . S
C520 C521 1.530 . S
C520 H586 0.961 . S
C520 H587 0.961 . S
C520 H588 0.959 . S
C521 C520 1.530 . S
C521 O549 1.412 . S
C521 H585 0.980 . S
C522 C523 1.288 . S
C522 C527 1.377 . S
C522 O549 1.393 . S
C523 C522 1.288 . S
C523 C524 1.369 . S
C523 H589 0.932 . S
C524 C523 1.369 . S
C524 C525 1.398 . S
C524 C528 1.527 . S
C525 C524 1.398 . S
C525 C526 1.380 . S
C525 C539 1.497 . S
C526 C525 1.380 . S
C526 C527 1.383 . S
C526 C529 1.603 . S
C527 C522 1.377 . S
C527 C526 1.383 . S
C527 H590 0.929 . S
C528 C524 1.527 . S
C528 H591 0.961 . S
C528 H592 0.959 . S
C528 H593 0.959 . S
C529 C526 1.603 . S
C529 H594 0.960 . S
C529 H595 0.962 . S
C529 H596 0.961 . S
C530 C497 1.587 . S
C530 C531 1.360 . S
C530 C543 1.412 . S
C531 C530 1.360 . S
C531 C532 1.365 . S
C531 H597 0.929 . S
C532 C507 1.553 . S
C532 C531 1.365 . S
C532 C533 1.404 . S
C533 C532 1.404 . S
C533 C534 1.395 . S
C533 C544 1.451 . S
C534 C533 1.395 . S
C534 C535 1.322 . S
C534 H598 0.930 . S
C535 C534 1.322 . S
C535 C536 1.459 . S
C535 H599 0.929 . S
C536 C535 1.459 . S
C536 C537 1.445 . S
C536 C545 1.395 . S
C537 C515 1.432 . S
C537 C536 1.445 . S
C537 C538 1.370 . S
C538 C537 1.370 . S
C538 C539 1.438 . S
C538 H600 0.930 . S
C539 C525 1.497 . S
C539 C538 1.438 . S
C539 C540 1.360 . S
C540 C539 1.360 . S
C540 C541 1.401 . S
C540 C545 1.446 . S
C541 C540 1.401 . S
C541 C542 1.347 . S
C541 H601 0.929 . S
C542 C541 1.347 . S
C542 C543 1.455 . S
C542 H602 0.930 . S
C543 C530 1.412 . S
C543 C542 1.455 . S
C543 C544 1.331 . S
C544 C533 1.451 . S
C544 C543 1.331 . S
C544 C545 1.497 . S
C545 C536 1.395 . S
C545 C540 1.446 . S
C545 C544 1.497 . S
C546 C547 1.582 . S
C546 H603 0.962 . S
C546 H604 0.959 . S
C546 H605 0.958 . S
C547 C546 1.582 . S
C547 O550 1.458 . S
C547 H576 0.980 . S
O548 C493 1.426 . S
O548 C494 1.334 . S
O549 C521 1.412 . S
O549 C522 1.393 . S
O550 C512 1.435 . S
O550 C547 1.458 . S
O551 C503 1.468 . S
O551 C504 1.408 . S
H552 C493 0.980 . S
H553 C492 0.959 . S
H554 C492 0.959 . S
H555 C492 0.960 . S
H556 C495 0.929 . S
H557 C499 0.929 . S
H558 C500 0.959 . S
H559 C500 0.961 . S
H560 C500 0.961 . S
H561 C501 0.960 . S
H562 C501 0.960 . S
H563 C501 0.961 . S
H564 C503 0.980 . S
H565 C502 0.961 . S
H566 C502 0.960 . S
H567 C502 0.959 . S
H568 C505 0.930 . S
H569 C509 0.931 . S
H570 C510 0.959 . S
H571 C510 0.961 . S
H572 C510 0.959 . S
H573 C511 0.960 . S
H574 C511 0.960 . S
H575 C511 0.960 . S
H576 C547 0.980 . S
H577 C513 0.930 . S
H578 C517 0.930 . S
H579 C518 0.961 . S
H580 C518 0.960 . S
H581 C518 0.958 . S
H582 C519 0.961 . S
H583 C519 0.960 . S
H584 C519 0.960 . S
H585 C521 0.980 . S
H586 C520 0.961 . S
H587 C520 0.961 . S
H588 C520 0.959 . S
H589 C523 0.932 . S
H590 C527 0.929 . S
H591 C528 0.961 . S
H592 C528 0.959 . S
H593 C528 0.959 . S
H594 C529 0.960 . S
H595 C529 0.962 . S
H596 C529 0.961 . S
H597 C531 0.929 . S
H598 C534 0.930 . S
H599 C535 0.929 . S
H600 C538 0.930 . S
H601 C541 0.929 . S
H602 C542 0.930 . S
H603 C546 0.962 . S
H604 C546 0.959 . S
H605 C546 0.958 . S
H606 C612 0.930 . S
H607 C615 0.930 . S
H608 C616 0.930 . S
H609 C617 0.930 . S
H610 C620 0.930 . S
H611 C621 0.930 . S
C612 H606 0.930 . S
C612 C613 1.355 . S
C612 C614 1.415 . S
C613 C612 1.355 . S
C613 C615 1.419 1_655 S
C614 C612 1.415 . S
C614 C619 1.425 1_655 S
C614 C621 1.409 . S
C615 H607 0.930 . S
C615 C613 1.419 1_455 S
C615 C616 1.362 . S
C616 H608 0.930 . S
C616 C615 1.362 . S
C616 C619 1.409 . S
C617 H609 0.930 . S
C617 C618 1.355 1_455 S
C617 C619 1.415 . S
C618 C617 1.355 1_655 S
C618 C620 1.419 . S
C619 C614 1.425 1_455 S
C619 C616 1.409 . S
C619 C617 1.415 . S
C620 H610 0.930 . S
C620 C618 1.419 . S
C620 C621 1.362 . S
C621 H611 0.930 . S
C621 C614 1.409 . S
C621 C620 1.362 . S
H622 C628 0.930 . S
H623 C631 0.930 . S
H624 C632 0.930 . S
H625 C633 0.930 . S
H626 C636 0.930 . S
H627 C637 0.930 . S
C628 H622 0.930 . S
C628 C629 1.355 1_545 S
C628 C630 1.415 . S
C629 C628 1.355 1_565 S
C629 C631 1.419 . S
C630 C628 1.415 . S
C630 C635 1.425 1_545 S
C630 C637 1.409 . S
C631 H623 0.930 . S
C631 C629 1.419 . S
C631 C632 1.362 . S
C632 H624 0.930 . S
C632 C631 1.362 . S
C632 C635 1.409 . S
C633 H625 0.930 . S
C633 C634 1.355 1_565 S
C633 C635 1.415 . S
C634 C633 1.355 1_545 S
C634 C636 1.419 . S
C635 C630 1.425 1_565 S
C635 C632 1.409 . S
C635 C633 1.415 . S
C636 H626 0.930 . S
C636 C634 1.419 . S
C636 C637 1.362 . S
C637 H627 0.930 . S
C637 C630 1.409 . S
C637 C636 1.362 . S
H638 C644 0.930 . S
H639 C647 0.930 . S
H640 C648 0.930 . S
H641 C649 0.930 . S
H642 C652 0.930 . S
H643 C653 0.930 . S
C644 H638 0.930 . S
C644 C645 1.355 . S
C644 C646 1.415 . S
C645 C644 1.355 . S
C645 C647 1.419 . S
C646 C644 1.415 . S
C646 C651 1.425 . S
C646 C653 1.409 . S
C647 H639 0.930 . S
C647 C645 1.419 . S
C647 C648 1.362 . S
C648 H640 0.930 . S
C648 C647 1.362 . S
C648 C651 1.409 . S
C649 H641 0.930 . S
C649 C650 1.355 . S
C649 C651 1.415 . S
C650 C649 1.355 . S
C650 C652 1.419 . S
C651 C646 1.425 . S
C651 C648 1.409 . S
C651 C649 1.415 . S
C652 H642 0.930 . S
C652 C650 1.419 . S
C652 C653 1.362 . S
C653 H643 0.930 . S
C653 C646 1.409 . S
C653 C652 1.362 . S
H654 C660 0.930 . S
H655 C663 0.930 . S
H656 C664 0.945 . S
H657 C665 0.930 . S
H658 C668 0.930 . S
H659 C669 0.930 . S
C660 H654 0.930 . S
C660 C661 1.355 . S
C660 C662 1.415 . S
C661 C660 1.355 . S
C661 C663 1.419 . S
C662 C660 1.415 . S
C662 C667 1.425 . S
C662 C669 1.409 . S
C663 H655 0.930 . S
C663 C661 1.419 . S
C663 C664 1.362 . S
C664 H656 0.945 . S
C664 C663 1.362 . S
C664 C667 1.409 . S
C665 H657 0.930 . S
C665 C666 1.355 . S
C665 C667 1.415 . S
C666 C665 1.355 . S
C666 C668 1.419 . S
C667 C662 1.425 . S
C667 C664 1.409 . S
C667 C665 1.415 . S
C668 H658 0.930 . S
C668 C666 1.419 . S
C668 C669 1.362 . S
C669 H659 0.930 . S
C669 C662 1.409 . S
C669 C668 1.362 . S
H670 C676 0.930 . S
H671 C679 0.930 . S
H672 C680 0.930 . S
H673 C681 0.930 . S
H674 C684 0.930 1_565 S
H675 C685 0.930 1_565 S
C676 H670 0.930 . S
C676 C677 1.355 . S
C676 C678 1.415 . S
C677 C676 1.355 . S
C677 C679 1.419 . S
C678 C676 1.415 . S
C678 C683 1.425 . S
C678 C685 1.409 . S
C679 H671 0.930 . S
C679 C677 1.419 . S
C679 C680 1.362 . S
C680 H672 0.930 . S
C680 C679 1.362 . S
C680 C683 1.409 . S
C681 H673 0.930 . S
C681 C682 1.355 . S
C681 C683 1.415 . S
C682 C681 1.355 . S
C682 C684 1.419 . S
C683 C678 1.425 . S
C683 C680 1.409 . S
C683 C681 1.415 . S
C684 H674 0.930 1_545 S
C684 C682 1.419 . S
C684 C685 1.362 . S
C685 H675 0.930 1_545 S
C685 C678 1.409 . S
C685 C684 1.362 . S
H686 C692 0.930 . S
H687 C695 0.930 . S
H688 C696 0.930 . S
H689 C697 0.930 . S
H690 C700 0.930 . S
H691 C701 0.930 . S
C692 H686 0.930 . S
C692 C693 1.355 . S
C692 C694 1.415 . S
C693 C692 1.355 . S
C693 C695 1.419 . S
C694 C692 1.415 . S
C694 C699 1.425 . S
C694 C701 1.409 . S
C695 H687 0.930 . S
C695 C693 1.419 . S
C695 C696 1.362 . S
C696 H688 0.930 . S
C696 C695 1.362 . S
C696 C699 1.409 . S
C697 H689 0.930 . S
C697 C698 1.355 . S
C697 C699 1.415 . S
C698 C697 1.355 . S
C698 C700 1.419 . S
C699 C694 1.425 . S
C699 C696 1.409 . S
C699 C697 1.415 . S
C700 H690 0.930 . S
C700 C698 1.419 . S
C700 C701 1.362 . S
C701 H691 0.930 . S
C701 C694 1.409 . S
C701 C700 1.362 . S
H702 C708 0.930 . S
H703 C711 0.930 . S
H704 C712 0.930 . S
H705 C713 0.930 . S
H706 C716 0.930 1_565 S
H707 C717 0.930 . S
C708 H702 0.930 . S
C708 C709 1.355 . S
C708 C710 1.415 . S
C709 C708 1.355 . S
C709 C711 1.419 . S
C710 C708 1.415 . S
C710 C715 1.425 . S
C710 C717 1.409 . S
C711 H703 0.930 . S
C711 C709 1.419 . S
C711 C712 1.362 . S
C712 H704 0.930 . S
C712 C711 1.362 . S
C712 C715 1.409 . S
C713 H705 0.930 . S
C713 C714 1.355 . S
C713 C715 1.415 . S
C714 C713 1.355 . S
C714 C716 1.419 . S
C715 C710 1.425 . S
C715 C712 1.409 . S
C715 C713 1.415 . S
C716 H706 0.930 1_545 S
C716 C714 1.419 . S
C716 C717 1.362 . S
C717 H707 0.930 . S
C717 C710 1.409 . S
C717 C716 1.362 . S
H718 C724 0.930 . S
H719 C727 0.930 . S
H720 C728 0.930 . S
H721 C729 0.930 . S
H722 C732 0.930 . S
H723 C733 0.930 . S
C724 H718 0.930 . S
C724 C725 1.355 . S
C724 C726 1.415 . S
C725 C724 1.355 . S
C725 C727 1.419 . S
C726 C724 1.415 . S
C726 C731 1.425 . S
C726 C733 1.409 1_554 S
C727 H719 0.930 . S
C727 C725 1.419 . S
C727 C728 1.362 . S
C728 H720 0.930 . S
C728 C727 1.362 . S
C728 C731 1.409 . S
C729 H721 0.930 . S
C729 C730 1.355 1_554 S
C729 C731 1.415 . S
C730 C729 1.355 1_556 S
C730 C732 1.419 . S
C731 C726 1.425 . S
C731 C728 1.409 . S
C731 C729 1.415 . S
C732 H722 0.930 . S
C732 C730 1.419 . S
C732 C733 1.362 . S
C733 H723 0.930 . S
C733 C726 1.409 1_556 S
C733 C732 1.362 . S
H734 C740 0.930 . S
H735 C743 0.930 . S
H736 C744 0.930 . S
H737 C745 0.930 . S
H738 C748 0.930 . S
H739 C749 0.930 . S
C740 H734 0.930 . S
C740 C741 1.355 . S
C740 C742 1.415 . S
C741 C740 1.355 . S
C741 C743 1.419 1_655 S
C742 C740 1.415 . S
C742 C747 1.425 1_655 S
C742 C749 1.409 . S
C743 H735 0.930 . S
C743 C741 1.419 1_455 S
C743 C744 1.362 . S
C744 H736 0.930 . S
C744 C743 1.362 . S
C744 C747 1.409 . S
C745 H737 0.930 . S
C745 C746 1.355 . S
C745 C747 1.415 . S
C746 C745 1.355 . S
C746 C748 1.419 1_455 S
C747 C742 1.425 1_455 S
C747 C744 1.409 . S
C747 C745 1.415 . S
C748 H738 0.930 . S
C748 C746 1.419 1_655 S
C748 C749 1.362 . S
C749 H739 0.930 . S
C749 C742 1.409 . S
C749 C748 1.362 . S
H750 C756 0.930 . S
H751 C759 0.930 . S
H752 C760 0.930 . S
H753 C761 0.930 . S
H754 C764 0.930 . S
H755 C765 0.930 . S
C756 H750 0.930 . S
C756 C757 1.355 1_545 S
C756 C758 1.415 . S
C757 C756 1.355 1_565 S
C757 C759 1.419 . S
C758 C756 1.415 . S
C758 C763 1.425 . S
C758 C765 1.409 . S
C759 H751 0.930 . S
C759 C757 1.419 . S
C759 C760 1.362 . S
C760 H752 0.930 . S
C760 C759 1.362 . S
C760 C763 1.409 1_565 S
C761 H753 0.930 . S
C761 C762 1.355 . S
C761 C763 1.415 . S
C762 C761 1.355 . S
C762 C764 1.419 . S
C763 C758 1.425 . S
C763 C760 1.409 1_545 S
C763 C761 1.415 . S
C764 H754 0.930 . S
C764 C762 1.419 . S
C764 C765 1.362 . S
C765 H755 0.930 . S
C765 C758 1.409 . S
C765 C764 1.362 . S
H766 C772 0.930 . S
H767 C775 0.930 . S
H768 C776 0.930 . S
H769 C777 0.930 1_554 S
H770 C780 0.930 . S
H771 C781 0.930 . S
C772 H766 0.930 . S
C772 C773 1.355 . S
C772 C774 1.440 . S
C773 C772 1.355 . S
C773 C775 1.419 . S
C774 C772 1.440 . S
C774 C779 1.445 . S
C774 C781 1.365 1_554 S
C775 H767 0.930 . S
C775 C773 1.419 . S
C775 C776 1.362 . S
C776 H768 0.930 . S
C776 C775 1.362 . S
C776 C779 1.409 . S
C777 H769 0.930 1_556 S
C777 C778 1.355 . S
C777 C779 1.415 1_556 S
C778 C777 1.355 . S
C778 C780 1.419 . S
C779 C774 1.445 . S
C779 C776 1.409 . S
C779 C777 1.415 1_554 S
C780 H770 0.930 . S
C780 C778 1.419 . S
C780 C781 1.362 . S
C781 H771 0.930 . S
C781 C774 1.365 1_556 S
C781 C780 1.362 . S
H782 C788 0.930 . S
H783 C791 0.930 . S
H784 C792 0.930 . S
H785 C793 0.930 . S
H786 C796 0.930 . S
H787 C797 0.930 . S
C788 H782 0.930 . S
C788 C789 1.355 . S
C788 C790 1.415 . S
C789 C788 1.355 . S
C789 C791 1.419 . S
C790 C788 1.415 . S
C790 C795 1.425 . S
C790 C797 1.409 . S
C791 H783 0.930 . S
C791 C789 1.419 . S
C791 C792 1.362 . S
C792 H784 0.930 . S
C792 C791 1.362 . S
C792 C795 1.409 . S
C793 H785 0.930 . S
C793 C794 1.355 . S
C793 C795 1.415 . S
C794 C793 1.355 . S
C794 C796 1.419 . S
C795 C790 1.425 . S
C795 C792 1.409 . S
C795 C793 1.415 . S
C796 H786 0.930 . S
C796 C794 1.419 . S
C796 C797 1.362 . S
C797 H787 0.930 . S
C797 C790 1.409 . S
C797 C796 1.362 . S
C618 C319 1.298 1_655 S
C613 C29 1.487 . S
C629 C137 1.537 . S
C634 C433 1.156 . S
C645 C225 1.238 . S
C650 C493 0.899 . S
C661 C49 1.329 . S
C666 C293 1.242 . S
C682 C407 1.108 . S
C677 C117 1.379 . S
C693 C205 1.424 . S
C698 C503 0.819 . S
C714 C389 0.747 . S
C709 C233 1.438 . S
C725 C57 1.370 . S
C730 C521 1.080 . S
C746 C265 0.924 1_455 S
C741 C108 1.232 . S
C762 C379 0.877 . S
C757 C196 1.261 . S
C778 C547 1.148 . S
C773 C20 1.532 . S
C789 C145 1.458 . S
C794 C275 0.897 . S
