# Generated by pormake.
# Topology zzz, (3,6)-cn, num edge types: 1
# Building blocks:
#     Node 0, Type 0, BuildingBlock: KAKCAD_clean_linker_0, # of connection points: 3
#     Node 1, Type 0, BuildingBlock: KAKCAD_clean_linker_0, # of connection points: 3
#     Node 2, Type 0, BuildingBlock: KAKCAD_clean_linker_0, # of connection points: 3
#     Node 3, Type 0, BuildingBlock: KAKCAD_clean_linker_0, # of connection points: 3
#     Node 4, Type 0, BuildingBlock: KAKCAD_clean_linker_0, # of connection points: 3
#     Node 5, Type 0, BuildingBlock: KAKCAD_clean_linker_0, # of connection points: 3
#     Node 6, Type 0, BuildingBlock: KAKCAD_clean_linker_0, # of connection points: 3
#     Node 7, Type 0, BuildingBlock: KAKCAD_clean_linker_0, # of connection points: 3
#     Node 8, Type 1, BuildingBlock: JUFBIX_clean_sbu_0, # of connection points: 6
#     Node 9, Type 1, BuildingBlock: JUFBIX_clean_sbu_0, # of connection points: 6
#     Node 10, Type 1, BuildingBlock: JUFBIX_clean_sbu_0, # of connection points: 6
#     Node 11, Type 1, BuildingBlock: JUFBIX_clean_sbu_0, # of connection points: 6
#     Edge 12, Type (0, 1), BuildingBlock: ZUJKAS_clean_linker_0, # of connection points: 2
#     Edge 13, Type (0, 1), BuildingBlock: ZUJKAS_clean_linker_0, # of connection points: 2
#     Edge 14, Type (0, 1), BuildingBlock: ZUJKAS_clean_linker_0, # of connection points: 2
#     Edge 15, Type (0, 1), BuildingBlock: ZUJKAS_clean_linker_0, # of connection points: 2
#     Edge 16, Type (0, 1), BuildingBlock: ZUJKAS_clean_linker_0, # of connection points: 2
#     Edge 17, Type (0, 1), BuildingBlock: ZUJKAS_clean_linker_0, # of connection points: 2
#     Edge 18, Type (0, 1), BuildingBlock: ZUJKAS_clean_linker_0, # of connection points: 2
#     Edge 19, Type (0, 1), BuildingBlock: ZUJKAS_clean_linker_0, # of connection points: 2
#     Edge 20, Type (0, 1), BuildingBlock: ZUJKAS_clean_linker_0, # of connection points: 2
#     Edge 21, Type (0, 1), BuildingBlock: ZUJKAS_clean_linker_0, # of connection points: 2
#     Edge 22, Type (0, 1), BuildingBlock: ZUJKAS_clean_linker_0, # of connection points: 2
#     Edge 23, Type (0, 1), BuildingBlock: ZUJKAS_clean_linker_0, # of connection points: 2
#     Edge 24, Type (0, 1), BuildingBlock: ZUJKAS_clean_linker_0, # of connection points: 2
#     Edge 25, Type (0, 1), BuildingBlock: ZUJKAS_clean_linker_0, # of connection points: 2
#     Edge 26, Type (0, 1), BuildingBlock: ZUJKAS_clean_linker_0, # of connection points: 2
#     Edge 27, Type (0, 1), BuildingBlock: ZUJKAS_clean_linker_0, # of connection points: 2
#     Edge 28, Type (0, 1), BuildingBlock: ZUJKAS_clean_linker_0, # of connection points: 2
#     Edge 29, Type (0, 1), BuildingBlock: ZUJKAS_clean_linker_0, # of connection points: 2
#     Edge 30, Type (0, 1), BuildingBlock: ZUJKAS_clean_linker_0, # of connection points: 2
#     Edge 31, Type (0, 1), BuildingBlock: ZUJKAS_clean_linker_0, # of connection points: 2
#     Edge 32, Type (0, 1), BuildingBlock: ZUJKAS_clean_linker_0, # of connection points: 2
#     Edge 33, Type (0, 1), BuildingBlock: ZUJKAS_clean_linker_0, # of connection points: 2
#     Edge 34, Type (0, 1), BuildingBlock: ZUJKAS_clean_linker_0, # of connection points: 2
#     Edge 35, Type (0, 1), BuildingBlock: ZUJKAS_clean_linker_0, # of connection points: 2
# Relax obj value: 0.295
# Max RMSD: 0.219
# Mean RMSD: 0.189
data_MOF--net-zzz--node1-JUFBIX_clean_sbu_0--node2-KAKCAD_clean_linker_0--edge1-ZUJKAS_clean_linker_0
_symmetry_space_group_name_H-M    P1
_symmetry_Int_Tables_number       1
_symmetry_cell_setting            triclinic
loop_
_symmetry_equiv_pos_as_xyz
'x, y, z'
_cell_length_a     71.237549
_cell_length_b     73.52658
_cell_length_c     28.177304
_cell_angle_alpha  83.925564
_cell_angle_beta   90.139866
_cell_angle_gamma 86.864684
loop_
_atom_site_label
_atom_site_type_symbol
_atom_site_fract_x
_atom_site_fract_y
_atom_site_fract_z
_atom_type_partial_charge
C0 C 0.80807 0.54943 0.14064 0.0
C1 C 0.82227 0.53613 0.15649 0.0
C2 C 0.79366 0.55421 0.17134 0.0
C3 C 0.79311 0.54571 0.2184 0.0
C4 C 0.80728 0.53233 0.23399 0.0
C5 C 0.82172 0.52765 0.20347 0.0
C6 C 0.77775 0.5505 0.25121 0.0
C7 C 0.75908 0.55326 0.23495 0.0
C8 C 0.74439 0.55652 0.26668 0.0
C9 C 0.74843 0.55718 0.31538 0.0
C10 C 0.76715 0.55478 0.33173 0.0
C11 C 0.78162 0.55155 0.29958 0.0
C12 C 0.77235 0.555 0.38233 0.0
C13 C 0.77512 0.57168 0.40055 0.0
C14 C 0.77889 0.53859 0.40846 0.0
C15 C 0.78926 0.53887 0.45046 0.0
C16 C 0.79342 0.55561 0.467 0.0
C17 C 0.72491 0.55812 0.24797 0.0
C18 C 0.71983 0.57166 0.21062 0.0
C19 C 0.71241 0.54446 0.2616 0.0
C20 C 0.69566 0.5436 0.23597 0.0
C21 C 0.69107 0.55651 0.19648 0.0
C22 C 0.70301 0.57098 0.18548 0.0
C23 C 0.78554 0.57199 0.44266 0.0
H24 H 0.80825 0.55629 0.1047 0.0
H25 H 0.78307 0.56471 0.15839 0.0
H26 H 0.80707 0.52521 0.26964 0.0
H27 H 0.83228 0.51712 0.2164 0.0
H28 H 0.75581 0.5521 0.19782 0.0
H29 H 0.79602 0.54981 0.31259 0.0
H30 H 0.73716 0.55944 0.34023 0.0
H31 H 0.77043 0.58451 0.38043 0.0
H32 H 0.7772 0.5256 0.39444 0.0
H33 H 0.79525 0.52599 0.46772 0.0
H34 H 0.7293 0.58233 0.19956 0.0
H35 H 0.71619 0.53374 0.28995 0.0
H36 H 0.78827 0.5851 0.45474 0.0
H37 H 0.69973 0.58145 0.15619 0.0
H38 H 0.68691 0.5322 0.24534 0.0
C39 C 0.02787 0.80108 0.08593 0.0
C40 C 0.03917 0.81575 0.09203 0.0
C41 C 0.0243 0.78815 0.12432 0.0
C42 C 0.03202 0.78956 0.16966 0.0
C43 C 0.04399 0.80378 0.17525 0.0
C44 C 0.04751 0.81674 0.13688 0.0
C45 C 0.0268 0.77683 0.21139 0.0
C46 C 0.02528 0.75818 0.20717 0.0
C47 C 0.01924 0.74628 0.2456 0.0
C48 C 0.01481 0.7531 0.28937 0.0
C49 C 0.01689 0.77177 0.29464 0.0
C50 C 0.02261 0.78346 0.25517 0.0
C51 C 0.01309 0.77972 0.34038 0.0
C52 C 0.99646 0.77661 0.36597 0.0
C53 C 0.02534 0.79231 0.35567 0.0
C54 C 0.02053 0.80254 0.3932 0.0
C55 C 0.0034 0.80031 0.41732 0.0
C56 C 0.01766 0.72686 0.23775 0.0
C57 C 1.00003 0.72031 0.22843 0.0
C58 C 0.03398 0.71635 0.22822 0.0
C59 C 0.03276 0.70021 0.20659 0.0
C60 C 0.01519 0.69434 0.1935 0.0
C61 C 0.99879 0.70414 0.20655 0.0
C62 C 0.99166 0.7868 0.40409 0.0
H63 H 0.02142 0.79981 0.05167 0.0
H64 H 0.01493 0.77743 0.11884 0.0
H65 H 0.05038 0.80508 0.20957 0.0
H66 H 0.05616 0.82796 0.14291 0.0
H67 H 0.02869 0.75284 0.17361 0.0
H68 H 0.02328 0.79798 0.2582 0.0
H69 H 0.01024 0.7439 0.31918 0.0
H70 H 0.98674 0.767 0.35506 0.0
H71 H 0.03841 0.79486 0.33713 0.0
H72 H 0.02991 0.81288 0.40146 0.0
H73 H 0.98728 0.72842 0.23462 0.0
H74 H 0.04772 0.72128 0.23464 0.0
H75 H 0.97852 0.78441 0.4223 0.0
H76 H 0.98504 0.70008 0.19678 0.0
H77 H 0.04565 0.6928 0.19792 0.0
C78 C 0.71099 0.96671 0.09446 0.0
C79 C 0.69683 0.98025 0.10113 0.0
C80 C 0.72547 0.96261 0.12813 0.0
C81 C 0.72609 0.97205 0.16894 0.0
C82 C 0.71216 0.98592 0.17479 0.0
C83 C 0.69767 0.98991 0.14138 0.0
C84 C 0.74098 0.96738 0.20585 0.0
C85 C 0.75969 0.96376 0.19309 0.0
C86 C 0.77387 0.96015 0.22809 0.0
C87 C 0.76923 0.96003 0.27672 0.0
C88 C 0.75042 0.96347 0.28987 0.0
C89 C 0.73649 0.96697 0.25428 0.0
C90 C 0.74449 0.96353 0.34019 0.0
C91 C 0.74639 0.94754 0.37213 0.0
C92 C 0.73351 0.9786 0.35332 0.0
C93 C 0.72324 0.97721 0.39548 0.0
C94 C 0.72376 0.96071 0.42585 0.0
C95 C 0.79349 0.95769 0.21199 0.0
C96 C 0.79833 0.94374 0.1832 0.0
C97 C 0.80628 0.97116 0.21748 0.0
C98 C 0.82307 0.97145 0.19168 0.0
C99 C 0.82739 0.95818 0.16016 0.0
C100 C 0.81517 0.94387 0.15793 0.0
C101 C 0.73611 0.94614 0.41468 0.0
H102 H 0.71059 0.95897 0.06387 0.0
H103 H 0.7359 0.95176 0.1228 0.0
H104 H 0.71247 0.99375 0.20522 0.0
H105 H 0.68712 0.00065 0.14695 0.0
H106 H 0.7634 0.96441 0.15567 0.0
H107 H 0.72196 0.96921 0.26457 0.0
H108 H 0.78013 0.95746 0.30388 0.0
H109 H 0.7547 0.9357 0.36263 0.0
H110 H 0.7318 0.99107 0.32916 0.0
H111 H 0.71382 0.9887 0.40216 0.0
H112 H 0.7886 0.93324 0.17839 0.0
H113 H 0.80268 0.98221 0.23896 0.0
H114 H 0.73715 0.93334 0.43762 0.0
H115 H 0.81823 0.93316 0.13505 0.0
H116 H 0.83203 0.98275 0.19414 0.0
C117 C 0.48695 0.72065 0.37539 0.0
C118 C 0.502 0.70739 0.38264 0.0
C119 C 0.48443 0.73124 0.33126 0.0
C120 C 0.49685 0.72862 0.29373 0.0
C121 C 0.51267 0.71645 0.30213 0.0
C122 C 0.51527 0.706 0.34618 0.0
C123 C 0.49149 0.73547 0.2441 0.0
C124 C 0.48903 0.75426 0.22861 0.0
C125 C 0.48366 0.7601 0.18094 0.0
C126 C 0.48042 0.74689 0.14956 0.0
C127 C 0.48287 0.72816 0.16487 0.0
C128 C 0.48844 0.7226 0.21204 0.0
C129 C 0.47998 0.71423 0.13171 0.0
C130 C 0.46349 0.71487 0.10398 0.0
C131 C 0.4935 0.69976 0.12907 0.0
C132 C 0.49051 0.68603 0.09982 0.0
C133 C 0.47386 0.68641 0.07283 0.0
C134 C 0.48248 0.77981 0.16233 0.0
C135 C 0.46796 0.78684 0.13059 0.0
C136 C 0.49684 0.79127 0.17222 0.0
C137 C 0.4972 0.80901 0.14883 0.0
C138 C 0.48318 0.8157 0.11517 0.0
C139 C 0.4683 0.80455 0.10727 0.0
C140 C 0.46039 0.70098 0.07501 0.0
H141 H 0.4766 0.72217 0.403 0.0
H142 H 0.47205 0.74045 0.32539 0.0
H143 H 0.52236 0.71415 0.2735 0.0
H144 H 0.52691 0.69583 0.35029 0.0
H145 H 0.49143 0.76424 0.25336 0.0
H146 H 0.49007 0.7081 0.22424 0.0
H147 H 0.47672 0.75114 0.11256 0.0
H148 H 0.45282 0.72586 0.10563 0.0
H149 H 0.50639 0.69902 0.14986 0.0
H150 H 0.50105 0.67487 0.09918 0.0
H151 H 0.45658 0.77841 0.12265 0.0
H152 H 0.50828 0.78623 0.1963 0.0
H153 H 0.44749 0.70163 0.05433 0.0
H154 H 0.45733 0.80917 0.08141 0.0
H155 H 0.50869 0.81735 0.1563 0.0
C156 C 0.17825 0.50094 0.4121 0.0
C157 C 0.1623 0.49087 0.42297 0.0
C158 C 0.19227 0.4944 0.3826 0.0
C159 C 0.19058 0.47771 0.36323 0.0
C160 C 0.17487 0.46747 0.37492 0.0
C161 C 0.16092 0.47394 0.40457 0.0
C162 C 0.20476 0.47136 0.32934 0.0
C163 C 0.22401 0.47211 0.33854 0.0
C164 C 0.2375 0.4667 0.30565 0.0
C165 C 0.23144 0.46051 0.26275 0.0
C166 C 0.21211 0.4596 0.25337 0.0
C167 C 0.19897 0.46495 0.28692 0.0
C168 C 0.20498 0.45426 0.2077 0.0
C169 C 0.20902 0.46449 0.16439 0.0
C170 C 0.19142 0.44107 0.20827 0.0
C171 C 0.18107 0.4391 0.16715 0.0
C172 C 0.18395 0.45041 0.12465 0.0
C173 C 0.25778 0.46743 0.31745 0.0
C174 C 0.26415 0.4826 0.33795 0.0
C175 C 0.27047 0.45242 0.31283 0.0
C176 C 0.28886 0.45218 0.3309 0.0
C177 C 0.29491 0.467 0.35373 0.0
C178 C 0.28242 0.48237 0.35598 0.0
C179 C 0.19853 0.46264 0.12322 0.0
H180 H 0.17967 0.5141 0.42531 0.0
H181 H 0.20415 0.50267 0.37379 0.0
H182 H 0.17335 0.45443 0.36108 0.0
H183 H 0.14906 0.46562 0.41312 0.0
H184 H 0.22849 0.47661 0.37199 0.0
H185 H 0.18407 0.46481 0.27902 0.0
H186 H 0.24165 0.45656 0.23675 0.0
H187 H 0.21931 0.47484 0.16317 0.0
H188 H 0.18805 0.43305 0.24133 0.0
H189 H 0.16989 0.42965 0.16967 0.0
H190 H 0.25476 0.49447 0.3415 0.0
H191 H 0.26594 0.44051 0.29729 0.0
H192 H 0.20122 0.47139 0.09084 0.0
H193 H 0.28641 0.49396 0.37371 0.0
H194 H 0.29818 0.44023 0.32795 0.0
C195 C 0.96448 0.2143 0.40557 0.0
C196 C 0.96971 0.19556 0.40634 0.0
C197 C 0.97218 0.22713 0.37196 0.0
C198 C 0.9853 0.22146 0.33854 0.0
C199 C 0.99032 0.20269 0.33902 0.0
C200 C 0.98261 0.18991 0.37246 0.0
C201 C 0.99426 0.235 0.30415 0.0
C202 C 0.00063 0.25121 0.31896 0.0
C203 C 0.01014 0.26358 0.28736 0.0
C204 C 0.01335 0.25957 0.24012 0.0
C205 C 0.00702 0.2433 0.22505 0.0
C206 C 0.99736 0.23129 0.25697 0.0
C207 C 0.01121 0.23754 0.17738 0.0
C208 C 0.99663 0.23761 0.14383 0.0
C209 C 0.02828 0.22785 0.1701 0.0
C210 C 0.03027 0.21726 0.13174 0.0
C211 C 0.01517 0.21618 0.09992 0.0
C212 C 0.01661 0.28045 0.30522 0.0
C213 C 0.00982 0.29781 0.28475 0.0
C214 C 0.0275 0.27912 0.34719 0.0
C215 C 0.03069 0.29469 0.36979 0.0
C216 C 0.0229 0.31196 0.35119 0.0
C217 C 0.01284 0.31343 0.30771 0.0
C218 C 0.99865 0.22719 0.1052 0.0
H219 H 0.95446 0.21905 0.431 0.0
H220 H 0.96787 0.24148 0.37212 0.0
H221 H 0.00065 0.19789 0.31443 0.0
H222 H 0.98727 0.17563 0.37273 0.0
H223 H 0.99845 0.25414 0.35552 0.0
H224 H 0.99252 0.21878 0.24502 0.0
H225 H 0.02096 0.26883 0.21568 0.0
H226 H 0.98324 0.24479 0.14922 0.0
H227 H 0.03954 0.22728 0.19622 0.0
H228 H 0.04313 0.20888 0.12927 0.0
H229 H 0.00128 0.29916 0.25259 0.0
H230 H 0.03285 0.26586 0.36368 0.0
H231 H 0.98688 0.22702 0.0809 0.0
H232 H 0.0068 0.32658 0.29227 0.0
H233 H 0.03834 0.29301 0.40338 0.0
C234 C 0.29123 0.05124 0.43993 0.0
C235 C 0.30665 0.0621 0.43027 0.0
C236 C 0.27613 0.05235 0.408 0.0
C237 C 0.27604 0.06446 0.36585 0.0
C238 C 0.29101 0.07607 0.35758 0.0
C239 C 0.30622 0.07483 0.38938 0.0
C240 C 0.26134 0.06355 0.32881 0.0
C241 C 0.2428 0.06016 0.34177 0.0
C242 C 0.22951 0.05631 0.30781 0.0
C243 C 0.23476 0.05649 0.25957 0.0
C244 C 0.25322 0.06046 0.24596 0.0
C245 C 0.2663 0.06401 0.28066 0.0
C246 C 0.26025 0.05901 0.19711 0.0
C247 C 0.26303 0.0417 0.18079 0.0
C248 C 0.26852 0.07407 0.17231 0.0
C249 C 0.28057 0.07164 0.13415 0.0
C250 C 0.28478 0.05403 0.12053 0.0
C251 C 0.21064 0.05121 0.32483 0.0
C252 C 0.20929 0.03803 0.3644 0.0
C253 C 0.19421 0.06089 0.30638 0.0
C254 C 0.17694 0.05832 0.3294 0.0
C255 C 0.17596 0.04607 0.37114 0.0
C256 C 0.19218 0.03551 0.3873 0.0
C257 C 0.27526 0.03921 0.14288 0.0
H258 H 0.2913 0.04114 0.47085 0.0
H259 H 0.26503 0.04297 0.4152 0.0
H260 H 0.29122 0.08576 0.32587 0.0
H261 H 0.31785 0.08352 0.38143 0.0
H262 H 0.23874 0.06013 0.37884 0.0
H263 H 0.28077 0.06596 0.2703 0.0
H264 H 0.22477 0.05312 0.23322 0.0
H265 H 0.25704 0.02984 0.19988 0.0
H266 H 0.26678 0.0875 0.18481 0.0
H267 H 0.28775 0.08331 0.11798 0.0
H268 H 0.22171 0.0302 0.37891 0.0
H269 H 0.19492 0.07117 0.27601 0.0
H270 H 0.27809 0.02551 0.13283 0.0
H271 H 0.19176 0.02567 0.4187 0.0
H272 H 0.16462 0.0666 0.31612 0.0
C273 C 0.49044 0.31953 0.16556 0.0
C274 C 0.50228 0.31782 0.12624 0.0
C275 C 0.49433 0.30909 0.20911 0.0
C276 C 0.51 0.29659 0.21414 0.0
C277 C 0.521 0.29378 0.17409 0.0
C278 C 0.51722 0.30437 0.13046 0.0
C279 C 0.51676 0.28942 0.26247 0.0
C280 C 0.5182 0.27059 0.27786 0.0
C281 C 0.52461 0.26441 0.32449 0.0
C282 C 0.5299 0.27731 0.35488 0.0
C283 C 0.52863 0.29613 0.33964 0.0
C284 C 0.52191 0.302 0.29348 0.0
C285 C 0.5335 0.30984 0.37218 0.0
C286 C 0.5281 0.30783 0.4203 0.0
C287 C 0.54263 0.32561 0.35456 0.0
C288 C 0.54543 0.33947 0.38364 0.0
C289 C 0.53934 0.33782 0.43124 0.0
C290 C 0.52493 0.24471 0.34313 0.0
C291 C 0.50945 0.2342 0.33611 0.0
C292 C 0.53995 0.23677 0.37203 0.0
C293 C 0.53912 0.21911 0.39538 0.0
C294 C 0.52325 0.2089 0.3903 0.0
C295 C 0.50862 0.21649 0.35949 0.0
C296 C 0.53106 0.32163 0.44955 0.0
H297 H 0.47895 0.32986 0.16374 0.0
H298 H 0.48576 0.31156 0.23974 0.0
H299 H 0.53327 0.28434 0.17738 0.0
H300 H 0.52647 0.30263 0.10065 0.0
H301 H 0.51416 0.26086 0.25388 0.0
H302 H 0.52046 0.31653 0.28153 0.0
H303 H 0.53474 0.2727 0.39084 0.0
H304 H 0.52095 0.29591 0.43501 0.0
H305 H 0.54728 0.32745 0.31789 0.0
H306 H 0.55171 0.35178 0.36813 0.0
H307 H 0.49761 0.23995 0.31426 0.0
H308 H 0.55218 0.24443 0.37769 0.0
H309 H 0.5265 0.31975 0.48629 0.0
H310 H 0.49632 0.20889 0.35417 0.0
H311 H 0.5506 0.21379 0.41902 0.0
Co312 Co 0.00338 0.01628 0.77924 0.0
C313 C 0.97063 0.99943 0.8113 0.0
Co314 Co 0.98984 0.00055 0.72665 0.0
C315 C 0.01485 0.04774 0.82511 0.0
C316 C 0.01995 0.02239 0.86908 0.0
N317 N 0.01366 0.0294 0.82539 0.0
N318 N 0.02155 0.05239 0.86688 0.0
C319 C 0.02485 0.03641 0.89445 0.0
H320 H 0.0105 0.05753 0.7952 0.0
H321 H 0.02023 0.00805 0.88256 0.0
C322 C 0.02259 0.01733 0.6946 0.0
N323 N 0.97978 0.98742 0.68017 0.0
C324 C 0.97893 0.96907 0.67976 0.0
C325 C 0.97485 0.99448 0.63542 0.0
N326 N 0.97404 0.96448 0.63636 0.0
C327 C 0.97135 0.98047 0.60855 0.0
C328 C 0.97717 0.03702 0.72031 0.0
O329 O 0.02287 0.02304 0.73571 0.0
O330 O 0.00951 0.00732 0.68413 0.0
O331 O 0.97532 0.02207 0.70237 0.0
O332 O 0.98856 0.03735 0.75487 0.0
O333 O 0.97026 0.99394 0.76991 0.0
H334 H 0.97493 0.00882 0.62218 0.0
H335 H 0.98307 0.95918 0.70965 0.0
O336 O 0.98381 0.00931 0.82209 0.0
O337 O 0.01805 0.99492 0.80297 0.0
O338 O 0.0045 0.97936 0.75165 0.0
C339 C 0.01607 0.97986 0.78577 0.0
H340 H 0.02956 0.03497 0.93128 0.0
H341 H 0.96786 0.98191 0.57088 0.0
Co342 Co 0.49671 0.02023 0.78159 0.0
C343 C 0.49818 0.98208 0.8021 0.0
Co344 Co 0.51058 0.00492 0.72637 0.0
C345 C 0.46636 0.02909 0.84332 0.0
C346 C 0.48958 0.04571 0.85225 0.0
N347 N 0.48397 0.03212 0.82787 0.0
N348 N 0.46067 0.04028 0.87608 0.0
C349 C 0.4753 0.05071 0.88207 0.0
H350 H 0.45787 0.01877 0.83081 0.0
H351 H 0.50306 0.05176 0.84811 0.0
C352 C 0.50911 0.04304 0.70568 0.0
N353 N 0.52316 0.99317 0.67887 0.0
C354 C 0.54083 0.98533 0.67975 0.0
C355 C 0.51746 0.99343 0.63306 0.0
N356 N 0.54643 0.98107 0.63629 0.0
C357 C 0.53165 0.98601 0.60698 0.0
C358 C 0.47259 0.01177 0.71024 0.0
O359 O 0.50104 0.0431 0.74591 0.0
O360 O 0.51443 0.02782 0.69109 0.0
O361 O 0.48721 0.004 0.69406 0.0
O362 O 0.47383 0.01948 0.74818 0.0
O363 O 0.5066 0.98207 0.76227 0.0
H364 H 0.50425 0.99957 0.61862 0.0
H365 H 0.5499 0.98382 0.71088 0.0
O366 O 0.49256 0.99727 0.81647 0.0
O367 O 0.51981 0.02092 0.81478 0.0
O368 O 0.53357 0.00617 0.75956 0.0
C369 C 0.5346 0.01361 0.79809 0.0
H370 H 0.47549 0.0615 0.90537 0.0
H371 H 0.53134 0.985 0.56894 0.0
Co372 Co 0.51375 0.51296 0.76557 0.0
C373 C 0.49571 0.48307 0.80959 0.0
Co374 Co 0.48452 0.51106 0.74035 0.0
C375 C 0.54412 0.51631 0.83218 0.0
C376 C 0.55384 0.51527 0.76069 0.0
N377 N 0.53819 0.51447 0.78742 0.0
N378 N 0.56283 0.51842 0.8344 0.0
C379 C 0.56897 0.51765 0.78937 0.0
H380 H 0.53474 0.51677 0.86222 0.0
H381 H 0.55419 0.51461 0.72254 0.0
C382 C 0.50255 0.54094 0.69623 0.0
N383 N 0.46006 0.51012 0.71772 0.0
C384 C 0.45243 0.49739 0.69341 0.0
C385 C 0.44649 0.52363 0.71798 0.0
N386 N 0.43467 0.50249 0.6784 0.0
C387 C 0.43094 0.51899 0.69411 0.0
C388 C 0.48727 0.5319 0.81617 0.0
O389 O 0.51641 0.53441 0.72233 0.0
O390 O 0.48732 0.53268 0.69845 0.0
O391 O 0.4757 0.52561 0.78858 0.0
O392 O 0.5047 0.52786 0.81222 0.0
O393 O 0.48197 0.48938 0.7826 0.0
H394 H 0.44806 0.53647 0.73271 0.0
H395 H 0.45992 0.48483 0.6859 0.0
O396 O 0.51084 0.49155 0.80837 0.0
O397 O 0.52253 0.49796 0.71864 0.0
O398 O 0.49369 0.4966 0.69253 0.0
C399 C 0.51111 0.49212 0.68987 0.0
H400 H 0.58334 0.51889 0.77768 0.0
H401 H 0.41823 0.52759 0.6868 0.0
Co402 Co 0.98942 0.51452 0.81774 0.0
C403 C 0.01827 0.48483 0.84072 0.0
Co404 Co 0.98712 0.4805 0.77416 0.0
C405 C 0.99903 0.54562 0.85879 0.0
C406 C 0.00201 0.55101 0.78315 0.0
N407 N 0.99794 0.53776 0.81787 0.0
N408 N 0.00369 0.56324 0.85146 0.0
C409 C 0.00573 0.56666 0.80381 0.0
H410 H 0.99602 0.53854 0.89335 0.0
H411 H 0.00161 0.54965 0.74532 0.0
C412 C 0.95941 0.51126 0.74809 0.0
N413 N 0.9854 0.45951 0.74321 0.0
C414 C 0.99808 0.45008 0.71811 0.0
C415 C 0.96906 0.45155 0.73764 0.0
N416 N 0.99019 0.43648 0.69748 0.0
C417 C 0.97195 0.43742 0.70998 0.0
C418 C 0.96974 0.48271 0.84568 0.0
O419 O 0.96753 0.52161 0.77645 0.0
O420 O 0.96531 0.49437 0.74299 0.0
O421 O 0.97067 0.46858 0.82513 0.0
O422 O 0.98009 0.49439 0.82702 0.0
O423 O 0.01014 0.47395 0.81356 0.0
H424 H 0.95567 0.45619 0.75139 0.0
H425 H 0.01264 0.45342 0.71409 0.0
O426 O 0.01162 0.50145 0.84707 0.0
O427 O 0.00391 0.51378 0.7602 0.0
O428 O 0.00181 0.48933 0.72466 0.0
C429 C 0.00831 0.50468 0.72596 0.0
H430 H 0.00883 0.57975 0.78502 0.0
H431 H 0.9612 0.42904 0.69808 0.0
H432 H 0.17316 0.04714 0.46693 0.0
H433 H 0.14512 0.04417 0.51637 0.0
H434 H 0.11144 0.04006 0.39105 0.0
H435 H 0.13962 0.04302 0.34098 0.0
H436 H 0.10799 0.06719 0.50346 0.0
H437 H 0.10415 0.99237 0.49029 0.0
H438 H 0.12571 0.00395 0.4798 0.0
H439 H 0.10712 0.00735 0.43627 0.0
C440 C 0.15979 0.04556 0.44984 0.0
C441 C 0.1586 0.04508 0.40014 0.0
C442 C 0.14379 0.04399 0.47811 0.0
C443 C 0.1263 0.04178 0.45736 0.0
C444 C 0.12489 0.04167 0.40765 0.0
H445 H 0.02248 0.01202 0.60029 0.0
H446 H 0.04665 0.01935 0.54118 0.0
C447 C 0.14093 0.04342 0.37915 0.0
C448 C 0.10973 0.03907 0.4884 0.0
H449 H 0.08206 0.00602 0.53912 0.0
C450 C 0.10218 0.05387 0.51108 0.0
C451 C 0.10227 0.02168 0.49812 0.0
C452 C 0.1102 0.00532 0.47516 0.0
C453 C 0.08727 0.05172 0.54342 0.0
C454 C 0.08015 0.03417 0.55434 0.0
C455 C 0.08755 0.01945 0.53091 0.0
C456 C 0.06514 0.03064 0.59018 0.0
C457 C 0.07917 0.06833 0.56501 0.0
C458 C 0.06748 0.03447 0.63761 0.0
C459 C 0.05357 0.03043 0.67154 0.0
C460 C 0.0372 0.02218 0.65883 0.0
C461 C 0.03494 0.01832 0.61136 0.0
C462 C 0.04875 0.02251 0.57745 0.0
H463 H 0.08198 0.0812 0.5424 0.0
H464 H 0.06376 0.06771 0.57001 0.0
H465 H 0.08584 0.06895 0.60038 0.0
H466 H 0.08022 0.04028 0.64865 0.0
H467 H 0.05579 0.03345 0.70787 0.0
H468 H 0.55074 0.18158 0.41199 0.0
H469 H 0.54838 0.15324 0.46512 0.0
H470 H 0.48976 0.16718 0.48779 0.0
H471 H 0.49202 0.19568 0.43549 0.0
H472 H 0.53721 0.15049 0.56307 0.0
H473 H 0.49053 0.11402 0.45126 0.0
H474 H 0.50339 0.13338 0.42727 0.0
H475 H 0.48229 0.1369 0.46064 0.0
C476 C 0.53733 0.17863 0.42823 0.0
C477 C 0.52156 0.19093 0.41933 0.0
C478 C 0.53601 0.1624 0.45846 0.0
C479 C 0.51887 0.15806 0.48004 0.0
C480 C 0.50304 0.17013 0.47083 0.0
H481 H 0.49961 0.07825 0.72457 0.0
H482 H 0.50236 0.10648 0.67093 0.0
C483 C 0.50435 0.18639 0.44073 0.0
C484 C 0.51772 0.14121 0.51355 0.0
H485 H 0.49667 0.10043 0.53024 0.0
C486 C 0.52837 0.13951 0.55593 0.0
C487 C 0.50627 0.1269 0.5039 0.0
C488 C 0.49507 0.12773 0.45814 0.0
C489 C 0.52774 0.12393 0.58922 0.0
C490 C 0.51602 0.10978 0.57997 0.0
C491 C 0.50552 0.11139 0.53737 0.0
C492 C 0.51488 0.09288 0.61332 0.0
C493 C 0.53984 0.12256 0.63361 0.0
C494 C 0.52087 0.07592 0.59854 0.0
C495 C 0.51933 0.05981 0.62898 0.0
C496 C 0.51161 0.06033 0.67478 0.0
C497 C 0.5057 0.07738 0.68964 0.0
C498 C 0.50731 0.09353 0.65912 0.0
H499 H 0.55092 0.13268 0.63056 0.0
H500 H 0.53088 0.12524 0.66455 0.0
H501 H 0.54666 0.1086 0.64105 0.0
H502 H 0.52671 0.07513 0.56329 0.0
H503 H 0.52397 0.04693 0.61627 0.0
H504 H 0.31897 0.49465 0.35897 0.0
H505 H 0.34642 0.49449 0.41063 0.0
H506 H 0.34113 0.43706 0.45529 0.0
H507 H 0.31288 0.43738 0.40579 0.0
H508 H 0.34447 0.45462 0.5298 0.0
H509 H 0.40007 0.4771 0.40509 0.0
H510 H 0.38014 0.49311 0.39783 0.0
H511 H 0.37793 0.46985 0.3846 0.0
C512 C 0.32368 0.48192 0.37948 0.0
C513 C 0.31354 0.46607 0.37845 0.0
C514 C 0.33963 0.48178 0.40851 0.0
C515 C 0.34608 0.4657 0.43648 0.0
C516 C 0.33651 0.44962 0.43386 0.0
H517 H 0.44542 0.47856 0.6147 0.0
H518 H 0.42511 0.46561 0.55813 0.0
C519 C 0.32042 0.44979 0.40514 0.0
C520 C 0.3614 0.46631 0.47223 0.0
H521 H 0.40432 0.48349 0.48745 0.0
C522 C 0.35772 0.4606 0.52032 0.0
C523 C 0.3789 0.47371 0.46012 0.0
C524 C 0.38456 0.47858 0.40899 0.0
C525 C 0.37046 0.46321 0.55673 0.0
C526 C 0.38711 0.47229 0.54496 0.0
C527 C 0.39141 0.47684 0.49668 0.0
C528 C 0.39935 0.47859 0.58208 0.0
C529 C 0.36578 0.45644 0.60751 0.0
C530 C 0.39167 0.4901 0.61454 0.0
C531 C 0.40317 0.49732 0.64719 0.0
C532 C 0.42273 0.49347 0.64774 0.0
C533 C 0.43041 0.48165 0.61575 0.0
C534 C 0.41883 0.47434 0.58311 0.0
H535 H 0.35706 0.44432 0.60882 0.0
H536 H 0.37867 0.45267 0.62939 0.0
H537 H 0.3575 0.46738 0.62373 0.0
H538 H 0.37677 0.49397 0.61379 0.0
H539 H 0.39672 0.50618 0.67155 0.0
H540 H 0.05306 0.32281 0.4 0.0
H541 H 0.0529 0.3462 0.45589 0.0
H542 H 0.99426 0.35991 0.42423 0.0
H543 H 0.99437 0.33676 0.36807 0.0
H544 H 0.01392 0.39045 0.43373 0.0
H545 H 0.02914 0.33733 0.58645 0.0
H546 H 0.04643 0.33812 0.54014 0.0
H547 H 0.02309 0.33163 0.52785 0.0
C548 C 0.04018 0.33094 0.40465 0.0
C549 C 0.02369 0.32783 0.37981 0.0
C550 C 0.0401 0.34425 0.43673 0.0
C551 C 0.02346 0.35454 0.44507 0.0
C552 C 0.00725 0.35211 0.41851 0.0
H553 H 0.98006 0.40246 0.68495 0.0
H554 H 0.99095 0.38358 0.62338 0.0
C555 C 0.00736 0.33891 0.38621 0.0
C556 C 0.02249 0.36712 0.48315 0.0
H557 H 0.02528 0.36783 0.60405 0.0
C558 C 0.01659 0.38557 0.47095 0.0
C559 C 0.02581 0.36068 0.53179 0.0
C560 C 0.03131 0.34084 0.54759 0.0
C561 C 0.01343 0.39762 0.50606 0.0
C562 C 0.01661 0.39113 0.5547 0.0
C563 C 0.02303 0.37283 0.56675 0.0
C564 C 0.01127 0.40241 0.59391 0.0
C565 C 0.00582 0.41693 0.49096 0.0
C566 C 0.01941 0.41911 0.59883 0.0
C567 C 0.01306 0.43007 0.63406 0.0
C568 C 0.99848 0.42447 0.66494 0.0
C569 C 0.99104 0.40735 0.66119 0.0
C570 C 0.99735 0.39647 0.62616 0.0
H571 H 0.00072 0.41867 0.45338 0.0
H572 H 0.99408 0.42083 0.51435 0.0
H573 H 0.01713 0.42654 0.49414 0.0
H574 H 0.03045 0.42381 0.57496 0.0
H575 H 0.01906 0.44319 0.63593 0.0
H576 H 0.82838 0.95129 0.06661 0.0
H577 H 0.85366 0.95633 0.00956 0.0
H578 H 0.88753 0.97618 0.11807 0.0
H579 H 0.86257 0.97032 0.17635 0.0
H580 H 0.8679 0.98872 0.97893 0.0
H581 H 0.92482 0.94113 0.06144 0.0
H582 H 0.90066 0.94003 0.08013 0.0
H583 H 0.91522 0.95687 0.10073 0.0
C584 C 0.84138 0.95624 0.07894 0.0
C585 C 0.84344 0.96021 0.12643 0.0
C586 C 0.85578 0.9593 0.04599 0.0
C587 C 0.8726 0.96643 0.05956 0.0
C588 C 0.87483 0.97032 0.10695 0.0
H589 H 0.96933 0.00667 0.90437 0.0
H590 H 0.94545 0.99836 0.96365 0.0
C591 C 0.86044 0.96716 0.14012 0.0
C592 C 0.88724 0.97078 0.02324 0.0
H593 H 0.93343 0.96227 0.99626 0.0
C594 C 0.8822 0.98283 0.98259 0.0
C595 C 0.9059 0.96311 0.02805 0.0
C596 C 0.91197 0.94943 0.0697 0.0
C597 C 0.89534 0.98765 0.94705 0.0
C598 C 0.914 0.98007 0.95201 0.0
C599 C 0.91909 0.96804 0.9926 0.0
C600 C 0.92852 0.98478 0.91582 0.0
C601 C 0.88929 0.00113 0.90495 0.0
C602 C 0.92701 0.97973 0.86934 0.0
C603 C 0.94068 0.98444 0.83524 0.0
C604 C 0.95609 0.9943 0.84709 0.0
C605 C 0.9576 0.99917 0.89389 0.0
C606 C 0.944 0.99439 0.92793 0.0
H607 H 0.87571 0.00859 0.91141 0.0
H608 H 0.90012 0.01127 0.8966 0.0
H609 H 0.88754 0.99364 0.87317 0.0
H610 H 0.91529 0.97209 0.85948 0.0
H611 H 0.93913 0.9804 0.79964 0.0
H612 H 0.45492 0.84167 0.08809 0.0
H613 H 0.45719 0.86992 0.03451 0.0
H614 H 0.51691 0.85863 0.02249 0.0
H615 H 0.51478 0.83028 0.07546 0.0
H616 H 0.50666 0.89524 0.03718 0.0
H617 H 0.46575 0.8718 0.88919 0.0
H618 H 0.45414 0.8702 0.94591 0.0
H619 H 0.47523 0.85628 0.93844 0.0
C620 C 0.46853 0.84516 0.07394 0.0
C621 C 0.48466 0.83365 0.08596 0.0
C622 C 0.46979 0.8613 0.04329 0.0
C623 C 0.48716 0.8662 0.02393 0.0
C624 C 0.50336 0.85506 0.03694 0.0
H625 H 0.50932 0.94708 0.78477 0.0
H626 H 0.50665 0.91883 0.83837 0.0
C627 C 0.50212 0.83892 0.06752 0.0
C628 C 0.4885 0.88292 0.99003 0.0
H629 H 0.47387 0.90284 0.88015 0.0
C630 C 0.49951 0.89691 0.00284 0.0
C631 C 0.47938 0.88492 0.94496 0.0
C632 C 0.46809 0.86996 0.92844 0.0
C633 C 0.50136 0.91302 0.9721 0.0
C634 C 0.49179 0.91525 0.92764 0.0
C635 C 0.48106 0.90113 0.91444 0.0
C636 C 0.49273 0.93221 0.89448 0.0
C637 C 0.51376 0.92742 0.98717 0.0
C638 C 0.48542 0.94899 0.9079 0.0
C639 C 0.48687 0.9651 0.87743 0.0
C640 C 0.49565 0.96476 0.8328 0.0
C641 C 0.50253 0.94783 0.81891 0.0
C642 C 0.50102 0.93169 0.84946 0.0
H643 H 0.52358 0.92181 0.01648 0.0
H644 H 0.52209 0.93333 0.95661 0.0
H645 H 0.50482 0.93868 1.00014 0.0
H646 H 0.47866 0.94963 0.94213 0.0
H647 H 0.48132 0.97787 0.88919 0.0
H648 H 0.68979 0.56271 0.09911 0.0
H649 H 0.66436 0.55732 0.04544 0.0
H650 H 0.63078 0.53812 0.16557 0.0
H651 H 0.65611 0.54397 0.22023 0.0
H652 H 0.63382 0.51448 0.08958 0.0
H653 H 0.61307 0.58628 0.02163 0.0
H654 H 0.63794 0.58093 0.02003 0.0
H655 H 0.62619 0.58028 0.07654 0.0
C656 C 0.67685 0.5578 0.11448 0.0
C657 C 0.67498 0.55401 0.16424 0.0
C658 C 0.66234 0.55463 0.08358 0.0
C659 C 0.6456 0.54757 0.10154 0.0
C660 C 0.64358 0.54369 0.15105 0.0
H661 H 0.55482 0.5099 0.92834 0.0
H662 H 0.57307 0.51694 0.99716 0.0
C663 C 0.6581 0.54697 0.18218 0.0
C664 C 0.63074 0.54345 0.06794 0.0
H665 H 0.60314 0.56309 0.97517 0.0
C666 C 0.62683 0.52509 0.06504 0.0
C667 C 0.6217 0.55735 0.03603 0.0
C668 C 0.62478 0.57734 0.03888 0.0
C669 C 0.61487 0.52018 0.02928 0.0
C670 C 0.60638 0.53406 0.99619 0.0
C671 C 0.60973 0.55246 1.0004 0.0
C672 C 0.59502 0.52977 0.95497 0.0
C673 C 0.61219 0.50016 0.02571 0.0
C674 C 0.60107 0.53498 0.90843 0.0
C675 C 0.59058 0.53118 0.86908 0.0
C676 C 0.57374 0.52209 0.87531 0.0
C677 C 0.56764 0.51698 0.9221 0.0
C678 C 0.57816 0.52083 0.96155 0.0
H679 H 0.6227 0.49115 0.04751 0.0
H680 H 0.59798 0.49678 0.03878 0.0
H681 H 0.61322 0.49704 0.98807 0.0
H682 H 0.61398 0.54199 0.90251 0.0
H683 H 0.59559 0.53565 0.8338 0.0
H684 H 0.9906 0.66654 0.19769 0.0
H685 H 0.988 0.64337 0.14161 0.0
H686 H 0.03452 0.66547 0.06138 0.0
H687 H 0.03701 0.68873 0.11639 0.0
H688 H 0.00143 0.66029 0.00604 0.0
H689 H 0.02465 0.59803 0.12584 0.0
H690 H 0.00658 0.61288 0.14813 0.0
H691 H 0.02977 0.62084 0.13847 0.0
C692 C 1.00032 0.66639 0.16824 0.0
C693 C 0.01413 0.6794 0.16188 0.0
C694 C 0.9989 0.65308 0.13642 0.0
C695 C 0.0112 0.6526 0.09762 0.0
C696 C 0.02498 0.66552 0.09127 0.0
H697 H 0.02524 0.59261 0.8487 0.0
H698 H 0.0268 0.61437 0.90848 0.0
C699 C 0.02648 0.67871 0.12307 0.0
C700 C 0.00937 0.63915 0.06233 0.0
H701 H 0.01483 0.59361 0.04806 0.0
C702 C 0.00434 0.6457 0.01516 0.0
C703 C 0.0131 0.62014 0.07444 0.0
C704 C 0.01896 0.61246 0.12435 0.0
C705 C 0.00281 0.63375 0.97977 0.0
C706 C 0.00693 0.61474 0.99156 0.0
C707 C 0.01176 0.60818 0.03894 0.0
C708 C 0.00625 0.60143 0.95536 0.0
C709 C 0.99642 0.64159 0.93034 0.0
C710 C 0.99465 0.58657 0.96239 0.0
C711 C 0.99389 0.57402 0.92851 0.0
C712 C 0.00474 0.57604 0.88678 0.0
C713 C 0.0165 0.59084 0.88004 0.0
C714 C 0.01736 0.60331 0.91415 0.0
H715 H 0.98861 0.65507 0.93082 0.0
H716 H 0.0089 0.64369 0.90734 0.0
H717 H 0.98726 0.63218 0.914 0.0
H718 H 0.98598 0.58479 0.9939 0.0
H719 H 0.98452 0.56294 0.93463 0.0
H720 H 0.96565 0.19891 0.50167 0.0
H721 H 0.95887 0.17476 0.5649 0.0
H722 H 0.9521 0.13708 0.45961 0.0
H723 H 0.95824 0.16128 0.39606 0.0
H724 H 0.92635 0.13307 0.53888 0.0
H725 H 0.00132 0.13446 0.59445 0.0
H726 H 0.98754 0.15572 0.59325 0.0
H727 H 0.99246 0.14596 0.53851 0.0
C728 C 0.9622 0.18564 0.49185 0.0
C729 C 0.96277 0.18191 0.44391 0.0
C730 C 0.95846 0.17183 0.52805 0.0
C731 C 0.95533 0.15409 0.51687 0.0
C732 C 0.95459 0.15067 0.46892 0.0
H733 H 0.95919 0.0431 0.63383 0.0
H734 H 0.94995 0.07276 0.59053 0.0
C735 C 0.95827 0.16446 0.43273 0.0
C736 C 0.95493 0.1386 0.5548 0.0
H737 H 0.98346 0.11209 0.63469 0.0
C738 C 0.93873 0.12857 0.56034 0.0
C739 C 0.97114 0.13278 0.58257 0.0
C740 C 0.98918 0.14266 0.57687 0.0
C741 C 0.93842 0.11263 0.59255 0.0
C742 C 0.95487 0.10647 0.61905 0.0
C743 C 0.97082 0.11689 0.61458 0.0
C744 C 0.95669 0.0885 0.64846 0.0
C745 C 0.92057 0.10251 0.59764 0.0
C746 C 0.96336 0.08743 0.69564 0.0
C747 C 0.96895 0.0705 0.7202 0.0
C748 C 0.96795 0.05433 0.69801 0.0
C749 C 0.96007 0.05531 0.65197 0.0
C750 C 0.95463 0.07227 0.62726 0.0
H751 H 0.90801 0.1119 0.5887 0.0
H752 H 0.92088 0.09186 0.57247 0.0
H753 H 0.91906 0.0957 0.63442 0.0
H754 H 0.96513 0.09979 0.71262 0.0
H755 H 0.97487 0.0702 0.75575 0.0
H756 H 0.34285 0.05826 0.40059 0.0
H757 H 0.37075 0.04894 0.44973 0.0
H758 H 0.33712 0.04895 0.57686 0.0
H759 H 0.30905 0.05805 0.52776 0.0
H760 H 0.38816 0.06434 0.52071 0.0
H761 H 0.36122 0.99732 0.59042 0.0
H762 H 0.35008 0.01176 0.54142 0.0
H763 H 0.34606 0.01664 0.6019 0.0
C764 C 0.34145 0.05657 0.43906 0.0
C765 C 0.32379 0.05878 0.46041 0.0
C766 C 0.35737 0.05113 0.46704 0.0
C767 C 0.35589 0.04784 0.51679 0.0
C768 C 0.33844 0.05092 0.5384 0.0
H769 H 0.43809 0.0227 0.74168 0.0
H770 H 0.40947 0.03013 0.69391 0.0
C771 C 0.32247 0.05622 0.5104 0.0
C772 C 0.37261 0.04095 0.54583 0.0
H773 H 0.38977 0.00536 0.6246 0.0
C774 C 0.38855 0.05141 0.54323 0.0
C775 C 0.37309 0.02399 0.57492 0.0
C776 C 0.35677 0.01167 0.57709 0.0
C777 C 0.40485 0.04551 0.56966 0.0
C778 C 0.40518 0.02873 0.59916 0.0
C779 C 0.38934 0.01822 0.60179 0.0
C780 C 0.4218 0.02224 0.6286 0.0
C781 C 0.42157 0.05731 0.56657 0.0
C782 C 0.43792 0.01485 0.60769 0.0
C783 C 0.45428 0.01045 0.6349 0.0
C784 C 0.45471 0.01357 0.68324 0.0
C785 C 0.43822 0.02023 0.70445 0.0
C786 C 0.42186 0.02447 0.67732 0.0
H787 H 0.41836 0.07084 0.54581 0.0
H788 H 0.42636 0.05955 0.60293 0.0
H789 H 0.43337 0.05018 0.54911 0.0
H790 H 0.43799 0.01301 0.57004 0.0
H791 H 0.46677 0.00539 0.61758 0.0
H792 H 0.56762 0.36173 0.43394 0.0
H793 H 0.56771 0.38907 0.47668 0.0
H794 H 0.51391 0.37648 0.53758 0.0
H795 H 0.5133 0.3496 0.49396 0.0
H796 H 0.53714 0.41871 0.4674 0.0
H797 H 0.54908 0.3858 0.65252 0.0
H798 H 0.55554 0.3745 0.60051 0.0
H799 H 0.53144 0.37597 0.61894 0.0
C800 C 0.55579 0.36477 0.4564 0.0
C801 C 0.54045 0.35342 0.46048 0.0
C802 C 0.55594 0.38033 0.48094 0.0
C803 C 0.5409 0.38463 0.51047 0.0
C804 C 0.52578 0.37318 0.51547 0.0
H805 H 0.49077 0.47815 0.62122 0.0
H806 H 0.50078 0.45346 0.57371 0.0
C807 C 0.52552 0.35775 0.49068 0.0
C808 C 0.54031 0.40161 0.53417 0.0
H809 H 0.53799 0.41717 0.64388 0.0
C810 C 0.5376 0.41845 0.50595 0.0
C811 C 0.54107 0.40115 0.58436 0.0
C812 C 0.5446 0.38341 0.616 0.0
C813 C 0.53471 0.43485 0.52689 0.0
C814 C 0.53446 0.43427 0.57716 0.0
C815 C 0.53809 0.41752 0.60529 0.0
C816 C 0.52925 0.45063 0.60149 0.0
C817 C 0.53163 0.45263 0.49519 0.0
C818 C 0.54201 0.45724 0.6326 0.0
C819 C 0.53636 0.47138 0.65975 0.0
C820 C 0.51776 0.47894 0.65668 0.0
C821 C 0.50519 0.47264 0.62434 0.0
C822 C 0.5109 0.4586 0.597 0.0
H823 H 0.53703 0.45146 0.45862 0.0
H824 H 0.51633 0.45637 0.49237 0.0
H825 H 0.53859 0.46388 0.5104 0.0
H826 H 0.55619 0.45116 0.63669 0.0
H827 H 0.54637 0.47589 0.68441 0.0
H828 H 0.12443 0.48921 0.4101 0.0
H829 H 0.09927 0.49921 0.4613 0.0
H830 H 0.13997 0.51955 0.55322 0.0
H831 H 0.16543 0.50874 0.50321 0.0
H832 H 0.11569 0.4989 0.60308 0.0
H833 H 0.07529 0.54885 0.47691 0.0
H834 H 0.07898 0.5274 0.45259 0.0
H835 H 0.09886 0.54042 0.46446 0.0
C836 C 0.12808 0.49577 0.44124 0.0
C837 C 0.14697 0.49806 0.4527 0.0
C838 C 0.11363 0.50179 0.47004 0.0
C839 C 0.11769 0.51051 0.51051 0.0
C840 C 0.13651 0.51307 0.52179 0.0
H841 H 0.03451 0.53012 0.73421 0.0
H842 H 0.06157 0.53592 0.68203 0.0
C843 C 0.15103 0.50695 0.49307 0.0
C844 C 0.10234 0.51528 0.54318 0.0
H845 H 0.05782 0.535 0.54428 0.0
C846 C 0.10324 0.5072 0.59061 0.0
C847 C 0.08613 0.5262 0.52694 0.0
C848 C 0.08485 0.53636 0.47755 0.0
C849 C 0.08784 0.50864 0.62115 0.0
C850 C 0.0712 0.51847 0.60377 0.0
C851 C 0.07063 0.52742 0.5573 0.0
C852 C 0.05365 0.5175 0.63139 0.0
C853 C 0.08899 0.49871 0.67087 0.0
C854 C 0.04007 0.5057 0.61912 0.0
C855 C 0.02474 0.5023 0.64875 0.0
C856 C 0.02265 0.51078 0.691 0.0
C857 C 0.03569 0.52349 0.70172 0.0
C858 C 0.05117 0.52676 0.67215 0.0
H859 H 0.10259 0.49073 0.67788 0.0
H860 H 0.08734 0.50878 0.69747 0.0
H861 H 0.07739 0.48924 0.67635 0.0
H862 H 0.04182 0.49843 0.58778 0.0
H863 H 0.0149 0.49249 0.63949 0.0
H864 H 0.01152 0.83166 0.03196 0.0
H865 H 0.0133 0.85842 0.97354 0.0
H866 H 0.07204 0.86151 0.00706 0.0
H867 H 0.07056 0.83428 0.06499 0.0
H868 H 0.02409 0.89257 0.00221 0.0
H869 H 0.06904 0.86847 0.85741 0.0
H870 H 0.05673 0.85293 0.89878 0.0
H871 H 0.07744 0.86302 0.91784 0.0
C872 C 0.02497 0.83767 0.02605 0.0
C873 C 0.04091 0.83081 0.05311 0.0
C874 C 0.02592 0.85304 0.99285 0.0
C875 C 0.04281 0.86183 0.98587 0.0
C876 C 0.05894 0.85475 0.01158 0.0
H877 H 0.04023 0.9758 0.86223 0.0
H878 H 0.05057 0.94712 0.90929 0.0
C879 C 0.05801 0.83933 0.04494 0.0
C880 C 0.04287 0.87938 0.95511 0.0
H881 H 0.05861 0.89974 0.84919 0.0
C882 C 0.03174 0.89421 0.96892 0.0
C883 C 0.05284 0.88134 0.91175 0.0
C884 C 0.06463 0.86561 0.89514 0.0
C885 C 0.02998 0.91091 0.94003 0.0
C886 C 0.03988 0.91291 0.89651 0.0
C887 C 0.05124 0.89817 0.88289 0.0
C888 C 0.03722 0.92981 0.86332 0.0
C889 C 0.01695 0.92606 0.95545 0.0
C890 C 0.02717 0.92942 0.82064 0.0
C891 C 0.02129 0.94576 0.79357 0.0
C892 C 0.02536 0.96272 0.80888 0.0
C893 C 0.0367 0.96297 0.84972 0.0
C894 C 0.04261 0.94661 0.87668 0.0
H895 H 0.00773 0.9211 0.98527 0.0
H896 H 0.02542 0.93693 0.96767 0.0
H897 H 0.00794 0.93231 0.92517 0.0
H898 H 0.02292 0.91655 0.80976 0.0
H899 H 0.01271 0.94508 0.76209 0.0
H900 H 0.69819 0.98492 0.00354 0.0
H901 H 0.67161 0.99173 0.94758 0.0
H902 H 0.63325 0.99097 0.0658 0.0
H903 H 0.65962 0.98408 0.12181 0.0
H904 H 0.62469 0.96894 0.98467 0.0
H905 H 0.63813 0.04229 0.93223 0.0
H906 H 0.6577 0.02568 0.93235 0.0
H907 H 0.64687 0.0301 0.98764 0.0
C908 C 0.68407 0.98613 0.01749 0.0
C909 C 0.68094 0.98408 0.06696 0.0
C910 C 0.66898 0.99013 0.9856 0.0
C911 C 0.65059 0.992 0.00279 0.0
C912 C 0.6474 0.98969 0.05204 0.0
H913 H 0.54199 0.02789 0.88164 0.0
H914 H 0.57105 0.02335 0.9292 0.0
C915 C 0.66245 0.98585 0.0839 0.0
C916 C 0.63453 0.99609 0.9696 0.0
H917 H 0.61231 0.03039 0.89551 0.0
C918 C 0.622 0.98233 0.96495 0.0
C919 C 0.6311 0.01363 0.94441 0.0
C920 C 0.64405 0.02889 0.94935 0.0
C921 C 0.60604 0.98566 0.9355 0.0
C922 C 0.60262 0.00318 0.91026 0.0
C923 C 0.61512 0.01697 0.91491 0.0
C924 C 0.58586 0.00737 0.8795 0.0
C925 C 0.59273 0.97056 0.93202 0.0
C926 C 0.58488 1.00021 0.83551 0.0
C927 C 0.5684 0.00282 0.80822 0.0
C928 C 0.5526 0.01257 0.82467 0.0
C929 C 0.55389 0.02028 0.86808 0.0
C930 C 0.57045 0.01773 0.89524 0.0
H931 H 0.5961 0.95855 0.9586 0.0
H932 H 0.57802 0.9757 0.93741 0.0
H933 H 0.59357 0.96596 0.89578 0.0
H934 H 0.59673 0.99225 0.82284 0.0
H935 H 0.56792 0.99676 0.77489 0.0
H936 H 0.44204 0.66744 0.06805 0.0
H937 H 0.43782 0.64056 0.02504 0.0
H938 H 0.49402 0.6443 0.96978 0.0
H939 H 0.49829 0.67117 0.01216 0.0
H940 H 0.4637 0.63801 0.90136 0.0
H941 H 0.46743 0.58977 0.06814 0.0
H942 H 0.45137 0.60964 0.06588 0.0
H943 H 0.47621 0.61242 0.06557 0.0
C944 C 0.45336 0.66267 0.04611 0.0
C945 C 0.47054 0.67128 0.04362 0.0
C946 C 0.45098 0.64729 0.02191 0.0
C947 C 0.46569 0.64042 0.99476 0.0
C948 C 0.48255 0.6494 0.99077 0.0
H949 H 0.5078 0.54511 0.88536 0.0
H950 H 0.49877 0.57054 0.9312 0.0
C951 C 0.48499 0.66466 0.01512 0.0
C952 C 0.46403 0.62345 0.97173 0.0
H953 H 0.46681 0.57688 0.99537 0.0
C954 C 0.46401 0.62462 0.92176 0.0
C955 C 0.4646 0.6061 0.99874 0.0
C956 C 0.46499 0.60423 0.05258 0.0
C957 C 0.46523 0.6088 0.89794 0.0
C958 C 0.46639 0.59143 0.92497 0.0
C959 C 0.46576 0.59026 0.97493 0.0
C960 C 0.47056 0.57454 0.90202 0.0
C961 C 0.4663 0.61074 0.84416 0.0
C962 C 0.45742 0.56804 0.87169 0.0
C963 C 0.46251 0.55344 0.84547 0.0
C964 C 0.48085 0.54525 0.84912 0.0
C965 C 0.49361 0.5512 0.88152 0.0
C966 C 0.48848 0.56569 0.90783 0.0
H967 H 0.46756 0.62519 0.82898 0.0
H968 H 0.47853 0.60236 0.83239 0.0
H969 H 0.45341 0.60564 0.82922 0.0
H970 H 0.44347 0.57464 0.86716 0.0
H971 H 0.45236 0.54914 0.82086 0.0
H972 H 0.81916 0.52901 0.0636 0.0
H973 H 0.8443 0.51887 0.01168 0.0
H974 H 0.88488 0.52144 0.12433 0.0
H975 H 0.85982 0.53141 0.17647 0.0
H976 H 0.87599 0.53542 0.97985 0.0
H977 H 0.89504 0.4697 0.08879 0.0
H978 H 0.87379 0.4833 0.09836 0.0
H979 H 0.89589 0.48921 0.12183 0.0
C980 C 0.83346 0.52751 0.07714 0.0
C981 C 0.83753 0.53085 0.12418 0.0
C982 C 0.84778 0.52165 0.04757 0.0
C983 C 0.86638 0.51903 0.06454 0.0
C984 C 0.87055 0.52287 0.11101 0.0
H985 H 0.96668 0.51277 0.89401 0.0
H986 H 0.9416 0.52101 0.94812 0.0
C987 C 0.85624 0.52862 0.14067 0.0
C988 C 0.88148 0.51258 0.03337 0.0
H989 H 0.91613 0.47902 0.02641 0.0
C990 C 0.88471 0.52304 0.98989 0.0
C991 C 0.89263 0.49626 0.04624 0.0
C992 C 0.88907 0.48386 0.09112 0.0
C993 C 0.8991 0.51786 0.95937 0.0
C994 C 0.91081 0.50202 0.97331 0.0
C995 C 0.90729 0.4913 0.0162 0.0
C996 C 0.92673 0.49634 0.94362 0.0
C997 C 0.90148 0.52929 0.91222 0.0
C998 C 0.92714 0.47935 0.92506 0.0
C999 C 0.94159 0.47449 0.89457 0.0
C1000 C 0.95583 0.48658 0.88236 0.0
C1001 C 0.95581 0.50324 0.90263 0.0
C1002 C 0.94143 0.50803 0.93321 0.0
H1003 H 0.88847 0.53773 0.90128 0.0
H1004 H 0.91294 0.53872 0.9156 0.0
H1005 H 0.90529 0.52052 0.88356 0.0
H1006 H 0.91598 0.47009 0.93303 0.0
H1007 H 0.94128 0.46158 0.87937 0.0
H1008 H 0.04515 0.20461 0.04657 0.0
H1009 H 0.04687 0.17853 0.99909 0.0
H1010 H 0.98846 0.16966 0.02755 0.0
H1011 H 0.98679 0.19504 0.07652 0.0
H1012 H 0.01074 0.13873 0.04794 0.0
H1013 H 0.02695 0.17117 0.86696 0.0
H1014 H 0.04266 0.17643 0.91293 0.0
H1015 H 0.01832 0.18421 0.91399 0.0
C1016 C 0.03262 0.1972 0.04244 0.0
C1017 C 0.01582 0.20204 0.06547 0.0
C1018 C 0.03358 0.18241 0.01478 0.0
C1019 C 0.01773 0.17223 0.00928 0.0
C1020 C 0.00084 0.17737 0.03099 0.0
H1021 H 0.00068 0.08339 0.83466 0.0
H1022 H 0.00064 0.11309 0.86674 0.0
C1023 C 0.99988 0.19206 0.05869 0.0
C1024 C 0.01904 0.15528 0.98466 0.0
H1025 H 0.0293 0.13853 0.87842 0.0
C1026 C 0.01475 0.13872 0.01083 0.0
C1027 C 0.02413 0.15527 0.93611 0.0
C1028 C 0.02812 0.17273 0.90563 0.0
C1029 C 0.01555 0.12217 0.99007 0.0
C1030 C 0.02115 0.12206 0.94196 0.0
C1031 C 0.02521 0.13863 0.91544 0.0
C1032 C 0.02263 0.10478 0.91885 0.0
C1033 C 0.01009 0.10498 0.01971 0.0
C1034 C 0.03544 0.09046 0.93639 0.0
C1035 C 0.03551 0.0735 0.91814 0.0
C1036 C 0.02285 0.07051 0.88172 0.0
C1037 C 0.01068 0.08521 0.86249 0.0
C1038 C 0.0106 0.10219 0.8809 0.0
H1039 H 0.00178 0.10811 0.05145 0.0
H1040 H 0.00172 0.09645 0.99823 0.0
H1041 H 0.023 0.09677 0.03248 0.0
H1042 H 0.04511 0.09227 0.96502 0.0
H1043 H 0.04532 0.06263 0.93307 0.0
H1044 H 0.31298 0.02734 0.13288 0.0
H1045 H 0.34179 0.02471 0.0868 0.0
H1046 H 0.32209 0.07107 0.98934 0.0
H1047 H 0.29329 0.074 0.03605 0.0
H1048 H 0.34999 0.01911 0.99668 0.0
H1049 H 0.3718 0.08777 0.03161 0.0
H1050 H 0.35224 0.07713 0.06157 0.0
H1051 H 0.34946 0.08834 0.00183 0.0
C1052 C 0.3146 0.03678 0.10112 0.0
C1053 C 0.30086 0.05093 0.0882 0.0
C1054 C 0.33115 0.03532 0.07494 0.0
C1055 C 0.33434 0.04794 0.03521 0.0
C1056 C 0.3202 0.06149 0.02066 0.0
H1057 H 0.42721 0.03345 0.83775 0.0
H1058 H 0.39636 0.03522 0.87528 0.0
C1059 C 0.3037 0.06308 0.04716 0.0
C1060 C 0.35268 0.04713 0.01016 0.0
H1061 H 0.3908 0.0719 0.97891 0.0
C1062 C 0.35891 0.03066 0.99273 0.0
C1063 C 0.36451 0.06209 0.00584 0.0
C1064 C 0.35929 0.07977 0.0266 0.0
C1065 C 0.37654 0.02875 0.97098 0.0
C1066 C 0.38809 0.0439 0.96528 0.0
C1067 C 0.3819 0.06034 0.98286 0.0
C1068 C 0.40683 0.0429 0.94214 0.0
C1069 C 0.38282 0.01033 0.95569 0.0
C1070 C 0.42296 0.04723 0.96649 0.0
C1071 C 0.44061 0.04646 0.9448 0.0
C1072 C 0.44249 0.04126 0.89839 0.0
C1073 C 0.42629 0.03711 0.87391 0.0
C1074 C 0.40864 0.03808 0.8954 0.0
H1075 H 0.37512 0.99909 0.975 0.0
H1076 H 0.37991 0.01032 0.91699 0.0
H1077 H 0.39813 0.00735 0.96199 0.0
H1078 H 0.42193 0.05106 0.00251 0.0
H1079 H 0.45282 0.04964 0.96462 0.0
H1080 H 0.46997 0.33152 0.07884 0.0
H1081 H 0.46673 0.35758 0.01697 0.0
H1082 H 0.52687 0.36189 0.0176 0.0
H1083 H 0.5302 0.33587 0.07882 0.0
H1084 H 0.47609 0.39183 0.02757 0.0
H1085 H 0.51617 0.36751 0.87656 0.0
H1086 H 0.50894 0.35211 0.92653 0.0
H1087 H 0.5298 0.36466 0.93067 0.0
C1088 C 0.48252 0.33782 0.06509 0.0
C1089 C 0.50035 0.33156 0.08359 0.0
C1090 C 0.48066 0.3527 0.02974 0.0
C1091 C 0.49657 0.36158 0.01216 0.0
C1092 C 0.51442 0.35499 0.02956 0.0
H1093 H 0.52365 0.46431 0.86412 0.0
H1094 H 0.5223 0.43463 0.91169 0.0
C1095 C 0.51631 0.34007 0.06465 0.0
C1096 C 0.49448 0.37875 0.97924 0.0
H1097 H 0.51095 0.4002 0.87535 0.0
C1098 C 0.48346 0.39356 0.9939 0.0
C1099 C 0.50411 0.38103 0.93531 0.0
C1100 C 0.51526 0.36541 0.91611 0.0
C1101 C 0.48244 0.41076 0.96682 0.0
C1102 C 0.49263 0.41318 0.92389 0.0
C1103 C 0.50325 0.39829 0.90851 0.0
C1104 C 0.49309 0.43127 0.89544 0.0
C1105 C 0.47107 0.42644 0.98512 0.0
C1106 C 0.47708 0.4392 0.87059 0.0
C1107 C 0.47779 0.45618 0.8432 0.0
C1108 C 0.49454 0.46552 0.84033 0.0
C1109 C 0.5105 0.45755 0.86567 0.0
C1110 C 0.50979 0.44055 0.89275 0.0
H1111 H 0.46632 0.42302 0.02237 0.0
H1112 H 0.47944 0.43879 0.98365 0.0
H1113 H 0.45847 0.42991 0.96205 0.0
H1114 H 0.4641 0.43214 0.87194 0.0
H1115 H 0.46528 0.46189 0.82397 0.0
H1116 H 0.16787 0.48071 0.07283 0.0
H1117 H 0.14177 0.48218 0.01611 0.0
H1118 H 0.1424 0.42318 0.02933 0.0
H1119 H 0.1685 0.42159 0.0868 0.0
H1120 H 0.13611 0.46914 0.93007 0.0
H1121 H 0.08902 0.43664 0.06761 0.0
H1122 H 0.11175 0.44424 0.08232 0.0
H1123 H 0.10996 0.42317 0.05598 0.0
C1124 C 0.16276 0.46801 0.06294 0.0
C1125 C 0.17021 0.45103 0.08457 0.0
C1126 C 0.14774 0.46888 0.03066 0.0
C1127 C 0.13984 0.45281 0.01924 0.0
C1128 C 0.14794 0.43578 0.03857 0.0
H1129 H 0.03487 0.44987 0.85232 0.0
H1130 H 0.0651 0.43992 0.89158 0.0
C1131 C 0.16291 0.43489 0.0712 0.0
C1132 C 0.12258 0.45415 0.98901 0.0
H1133 H 0.07576 0.44601 0.99193 0.0
C1134 C 0.12297 0.4639 0.94342 0.0
C1135 C 0.1054 0.44732 0.00646 0.0
C1136 C 0.10386 0.43738 0.05589 0.0
C1137 C 0.10658 0.46744 0.91543 0.0
C1138 C 0.08935 0.46116 0.93357 0.0
C1139 C 0.08905 0.45073 0.97816 0.0
C1140 C 0.07125 0.46692 0.90906 0.0
C1141 C 0.1077 0.47824 0.86702 0.0
C1142 C 0.06463 0.48529 0.90665 0.0
C1143 C 0.04739 0.49097 0.88487 0.0
C1144 C 0.03635 0.47839 0.86479 0.0
C1145 C 0.04301 0.45992 0.86732 0.0
C1146 C 0.06026 0.45421 0.88967 0.0
H1147 H 0.12231 0.47814 0.85333 0.0
H1148 H 0.09848 0.4727 0.84081 0.0
H1149 H 0.10282 0.49268 0.86983 0.0
H1150 H 0.07279 0.49526 0.922 0.0
H1151 H 0.04283 0.50531 0.88348 0.0
H1152 H 0.02544 0.81584 0.48092 0.0
H1153 H 0.01661 0.84101 0.52701 0.0
H1154 H 0.95868 0.83847 0.48449 0.0
H1155 H 0.96769 0.81438 0.43451 0.0
H1156 H 0.96679 0.87143 0.47193 0.0
H1157 H 0.99383 0.84656 0.65138 0.0
H1158 H 0.01264 0.84529 0.60968 0.0
H1159 H 0.99258 0.83158 0.6049 0.0
C1160 C 0.01079 0.82057 0.48121 0.0
C1161 C 0.99738 0.81313 0.45307 0.0
C1162 C 0.00567 0.83481 0.50861 0.0
C1163 C 0.98689 0.84161 0.51007 0.0
C1164 C 0.97328 0.83351 0.48421 0.0
H1165 H 0.96335 0.93308 0.68574 0.0
H1166 H 0.96395 0.9025 0.65753 0.0
C1167 C 0.97845 0.81951 0.45592 0.0
C1168 C 0.98192 0.85842 0.53393 0.0
H1169 H 0.99075 0.87976 0.63311 0.0
C1170 C 0.97176 0.87305 0.50757 0.0
C1171 C 0.98794 0.86064 0.58089 0.0
C1172 C 0.99715 0.84507 0.61343 0.0
C1173 C 0.96836 0.89 0.52564 0.0
C1174 C 0.97602 0.89277 0.57059 0.0
C1175 C 0.98523 0.87786 0.59817 0.0
C1176 C 0.97546 0.91122 0.58826 0.0
C1177 C 0.95652 0.9047 0.49612 0.0
C1178 C 0.98208 0.92624 0.55936 0.0
C1179 C 0.98143 0.94364 0.57507 0.0
C1180 C 0.9746 0.94642 0.62063 0.0
C1181 C 0.96859 0.93131 0.6504 0.0
C1182 C 0.96894 0.91387 0.63427 0.0
H1183 H 0.94622 0.89861 0.47359 0.0
H1184 H 0.9487 0.91392 0.51887 0.0
H1185 H 0.96575 0.91299 0.47179 0.0
H1186 H 0.98792 0.9245 0.52458 0.0
H1187 H 0.98664 0.9549 0.55184 0.0
H1188 H 0.71002 0.98596 0.4844 0.0
H1189 H 0.68192 0.98408 0.5331 0.0
H1190 H 0.67767 0.92769 0.50691 0.0
H1191 H 0.7049 0.92991 0.45493 0.0
H1192 H 0.64614 0.9447 0.48731 0.0
H1193 H 0.66723 0.96414 0.66222 0.0
H1194 H 0.67364 0.98143 0.6165 0.0
H1195 H 0.68432 0.95854 0.6181 0.0
C1196 C 0.70325 0.97307 0.48928 0.0
C1197 C 0.70966 0.9582 0.46488 0.0
C1198 C 0.68729 0.97191 0.518 0.0
C1199 C 0.67765 0.95568 0.52423 0.0
C1200 C 0.68483 0.94038 0.50279 0.0
H1201 H 0.57242 0.95951 0.68993 0.0
H1202 H 0.60447 0.95044 0.66619 0.0
C1203 C 0.7006 0.94162 0.47336 0.0
C1204 C 0.65882 0.95553 0.54724 0.0
H1205 H 0.63405 0.97022 0.64102 0.0
C1206 C 0.64363 0.94993 0.52144 0.0
C1207 C 0.65537 0.96202 0.59217 0.0
C1208 C 0.67108 0.96665 0.62399 0.0
C1209 C 0.62511 0.95165 0.53784 0.0
C1210 C 0.6215 0.95981 0.58044 0.0
C1211 C 0.63673 0.96433 0.60782 0.0
C1212 C 0.60203 0.96486 0.59519 0.0
C1213 C 0.60959 0.94484 0.50894 0.0
C1214 C 0.59012 0.9762 0.56359 0.0
C1215 C 0.57187 0.98123 0.57687 0.0
C1216 C 0.56514 0.97531 0.62247 0.0
C1217 C 0.57719 0.96425 0.65456 0.0
C1218 C 0.59548 0.95906 0.64101 0.0
H1219 H 0.61491 0.93341 0.48888 0.0
H1220 H 0.59783 0.94004 0.53191 0.0
H1221 H 0.60409 0.95612 0.48244 0.0
H1222 H 0.59503 0.98142 0.52869 0.0
H1223 H 0.56318 0.99017 0.55175 0.0
H1224 H 0.47263 0.68909 0.42227 0.0
H1225 H 0.47409 0.66227 0.48148 0.0
H1226 H 0.53399 0.66608 0.49535 0.0
H1227 H 0.53263 0.69321 0.43656 0.0
H1228 H 0.49734 0.63003 0.46381 0.0
H1229 H 0.51485 0.65626 0.63583 0.0
H1230 H 0.50408 0.67078 0.5863 0.0
H1231 H 0.5286 0.66389 0.58477 0.0
C1232 C 0.48604 0.68464 0.43902 0.0
C1233 C 0.50253 0.69332 0.4247 0.0
C1234 C 0.48686 0.6692 0.47258 0.0
C1235 C 0.50412 0.66224 0.49285 0.0
C1236 C 0.52049 0.67136 0.4805 0.0
H1237 H 0.5331 0.56188 0.68023 0.0
H1238 H 0.53443 0.59112 0.62996 0.0
C1239 C 0.5197 0.68678 0.44671 0.0
C1240 C 0.50518 0.64442 0.52287 0.0
H1241 H 0.51406 0.62415 0.63597 0.0
C1242 C 0.50097 0.62873 0.50148 0.0
C1243 C 0.51018 0.64278 0.57175 0.0
C1244 C 0.51459 0.6593 0.59635 0.0
C1245 C 0.50154 0.6114 0.5277 0.0
C1246 C 0.50601 0.60978 0.57698 0.0
C1247 C 0.51059 0.62543 0.59823 0.0
C1248 C 0.50532 0.59205 0.60728 0.0
C1249 C 0.4976 0.59496 0.50216 0.0
C1250 C 0.48848 0.58299 0.61155 0.0
C1251 C 0.48771 0.56628 0.63986 0.0
C1252 C 0.50372 0.55836 0.66499 0.0
C1253 C 0.52055 0.56756 0.66112 0.0
C1254 C 0.52132 0.58429 0.63256 0.0
H1255 H 0.50012 0.59759 0.4632 0.0
H1256 H 0.50647 0.58272 0.51658 0.0
H1257 H 0.48263 0.59181 0.50711 0.0
H1258 H 0.47585 0.58893 0.59326 0.0
H1259 H 0.47446 0.55969 0.64243 0.0
H1260 H 0.82149 0.57947 0.47035 0.0
H1261 H 0.84865 0.57651 0.5241 0.0
H1262 H 0.82639 0.52882 0.60157 0.0
H1263 H 0.79871 0.53209 0.54913 0.0
H1264 H 0.84471 0.55135 0.66063 0.0
H1265 H 0.88826 0.5353 0.50534 0.0
H1266 H 0.87531 0.55708 0.49789 0.0
H1267 H 0.86291 0.53632 0.50348 0.0
C1268 C 0.822 0.56869 0.49972 0.0
C1269 C 0.80796 0.55588 0.50501 0.0
C1270 C 0.8377 0.5669 0.53009 0.0
C1271 C 0.83975 0.55219 0.56607 0.0
C1272 C 0.82516 0.54018 0.57372 0.0
H1273 H 0.93821 0.49391 0.68762 0.0
H1274 H 0.90936 0.50545 0.64571 0.0
C1275 C 0.80941 0.542 0.5435 0.0
C1276 C 0.85774 0.54833 0.59288 0.0
H1277 H 0.90402 0.53554 0.57867 0.0
C1278 C 0.85773 0.54802 0.64279 0.0
C1279 C 0.87464 0.54375 0.56946 0.0
C1280 C 0.87536 0.54294 0.51616 0.0
C1281 C 0.87417 0.54311 0.66997 0.0
C1282 C 0.89106 0.5386 0.64646 0.0
C1283 C 0.89109 0.53914 0.59654 0.0
C1284 C 0.90857 0.53191 0.6729 0.0
C1285 C 0.87319 0.54211 0.72365 0.0
C1286 C 0.91786 0.54303 0.70187 0.0
C1287 C 0.93447 0.53646 0.72613 0.0
C1288 C 0.94212 0.51865 0.72161 0.0
C1289 C 0.93281 0.50768 0.69208 0.0
C1290 C 0.91626 0.51425 0.66801 0.0
H1291 H 0.85845 0.54233 0.73649 0.0
H1292 H 0.88084 0.52949 0.74046 0.0
H1293 H 0.87995 0.55406 0.73581 0.0
H1294 H 0.91235 0.55684 0.70545 0.0
H1295 H 0.94127 0.54531 0.74842 0.0
loop_
_geom_bond_atom_site_label_1
_geom_bond_atom_site_label_2
_geom_bond_distance
_geom_bond_site_symmetry_2
_ccdc_geom_bond_type
C0 C1 1.386 . S
C0 C2 1.397 1_556 S
C0 H24 0.931 . S
C1 C0 1.386 . S
C1 C5 1.397 1_556 S
C2 C0 1.397 1_554 S
C2 C3 1.384 . S
C2 H25 0.930 . S
C3 C2 1.384 . S
C3 C4 1.377 . S
C3 C6 1.481 . S
C4 C3 1.377 . S
C4 C5 1.389 . S
C4 H26 0.929 . S
C5 C1 1.397 1_554 S
C5 C4 1.389 . S
C5 H27 0.931 . S
C6 C3 1.481 . S
C6 C7 1.387 . S
C6 C11 1.390 . S
C7 C6 1.387 . S
C7 C8 1.401 . S
C7 H28 0.930 . S
C8 C7 1.401 . S
C8 C9 1.376 . S
C8 C17 1.511 . S
C9 C8 1.376 . S
C9 C10 1.392 . S
C9 H30 0.931 . S
C10 C9 1.392 . S
C10 C11 1.361 . S
C10 C12 1.500 . S
C11 C6 1.390 . S
C11 C10 1.361 . S
C11 H29 0.931 . S
C12 C10 1.500 . S
C12 C13 1.371 . S
C12 C14 1.365 . S
C13 C12 1.371 . S
C13 C23 1.386 . S
C13 H31 0.931 . S
C14 C12 1.365 . S
C14 C15 1.409 . S
C14 H32 0.929 . S
C15 C14 1.409 . S
C15 C16 1.380 . S
C15 H33 0.930 . S
C16 C15 1.380 . S
C16 C23 1.357 . S
C17 C8 1.511 . S
C17 C18 1.341 . S
C17 C19 1.371 . S
C18 C17 1.341 . S
C18 C22 1.394 . S
C18 H34 0.930 . S
C19 C17 1.371 . S
C19 C20 1.392 . S
C19 H35 0.931 . S
C20 C19 1.392 . S
C20 C21 1.331 . S
C20 H38 0.932 . S
C21 C20 1.331 . S
C21 C22 1.336 . S
C22 C18 1.394 . S
C22 C21 1.336 . S
C22 H37 0.929 . S
C23 C13 1.386 . S
C23 C16 1.357 . S
C23 H36 0.928 . S
H24 C0 0.931 . S
H25 C2 0.930 . S
H26 C4 0.929 . S
H27 C5 0.931 . S
H28 C7 0.930 . S
H29 C11 0.931 . S
H30 C9 0.931 . S
H31 C13 0.931 . S
H32 C14 0.929 . S
H33 C15 0.930 . S
H34 C18 0.930 . S
H35 C19 0.931 . S
H36 C23 0.928 . S
H37 C22 0.929 . S
H38 C20 0.932 . S
C39 C40 1.395 . S
C39 C41 1.397 1_556 S
C39 H63 0.931 . S
C40 C39 1.395 . S
C40 C44 1.389 1_656 S
C41 C39 1.397 1_554 S
C41 C42 1.389 . S
C41 H64 0.930 . S
C42 C41 1.389 . S
C42 C43 1.372 1_655 S
C42 C45 1.479 . S
C43 C42 1.372 1_455 S
C43 C44 1.389 . S
C43 H65 0.929 . S
C44 C40 1.389 1_454 S
C44 C43 1.389 . S
C44 H66 0.931 . S
C45 C42 1.479 . S
C45 C46 1.390 . S
C45 C50 1.390 . S
C46 C45 1.390 . S
C46 C47 1.401 . S
C46 H67 0.930 . S
C47 C46 1.401 . S
C47 C48 1.376 . S
C47 C56 1.514 . S
C48 C47 1.376 . S
C48 C49 1.389 . S
C48 H69 0.936 . S
C49 C48 1.389 . S
C49 C50 1.362 . S
C49 C51 1.499 1_655 S
C50 C45 1.390 . S
C50 C49 1.362 . S
C50 H68 0.931 . S
C51 C49 1.499 1_455 S
C51 C52 1.363 1_455 S
C51 C53 1.374 . S
C52 C51 1.363 1_655 S
C52 C62 1.386 . S
C52 H70 0.931 . S
C53 C51 1.374 . S
C53 C54 1.409 . S
C53 H71 0.929 . S
C54 C53 1.409 . S
C54 C55 1.378 . S
C54 H72 0.930 . S
C55 C54 1.378 . S
C55 C62 1.360 1_455 S
C56 C47 1.514 . S
C56 C57 1.341 . S
C56 C58 1.371 1_655 S
C57 C56 1.341 . S
C57 C61 1.394 . S
C57 H73 0.930 . S
C58 C56 1.371 1_455 S
C58 C59 1.392 . S
C58 H74 0.931 . S
C59 C58 1.392 . S
C59 C60 1.322 1_455 S
C59 H77 0.932 . S
C60 C59 1.322 1_655 S
C60 C61 1.344 . S
C61 C57 1.394 . S
C61 C60 1.344 . S
C61 H76 0.929 . S
C62 C52 1.386 . S
C62 C55 1.360 1_655 S
C62 H75 0.928 . S
H63 C39 0.931 . S
H64 C41 0.930 . S
H65 C43 0.929 . S
H66 C44 0.931 . S
H67 C46 0.930 . S
H68 C50 0.931 . S
H69 C48 0.936 . S
H70 C52 0.931 . S
H71 C53 0.929 . S
H72 C54 0.930 . S
H73 C57 0.930 . S
H74 C58 0.931 . S
H75 C62 0.928 . S
H76 C61 0.929 . S
H77 C59 0.932 . S
C78 C79 1.386 . S
C78 C80 1.397 1_556 S
C78 H102 0.931 . S
C79 C78 1.386 . S
C79 C83 1.397 1_556 S
C80 C78 1.397 1_554 S
C80 C81 1.384 . S
C80 H103 0.930 . S
C81 C80 1.384 . S
C81 C82 1.377 . S
C81 C84 1.481 . S
C82 C81 1.377 . S
C82 C83 1.389 . S
C82 H104 0.929 . S
C83 C79 1.397 1_554 S
C83 C82 1.389 . S
C83 H105 0.931 . S
C84 C81 1.481 . S
C84 C85 1.387 . S
C84 C89 1.390 . S
C85 C84 1.387 . S
C85 C86 1.401 . S
C85 H106 0.930 . S
C86 C85 1.401 . S
C86 C87 1.376 . S
C86 C95 1.511 . S
C87 C86 1.376 . S
C87 C88 1.392 . S
C87 H108 0.931 . S
C88 C87 1.392 . S
C88 C89 1.361 . S
C88 C90 1.500 . S
C89 C84 1.390 . S
C89 C88 1.361 . S
C89 H107 0.931 . S
C90 C88 1.500 . S
C90 C91 1.371 . S
C90 C92 1.365 . S
C91 C90 1.371 . S
C91 C101 1.386 . S
C91 H109 0.931 . S
C92 C90 1.365 . S
C92 C93 1.409 . S
C92 H110 0.929 . S
C93 C92 1.409 . S
C93 C94 1.380 . S
C93 H111 0.930 . S
C94 C93 1.380 . S
C94 C101 1.357 . S
C95 C86 1.511 . S
C95 C96 1.341 . S
C95 C97 1.371 . S
C96 C95 1.341 . S
C96 C100 1.394 . S
C96 H112 0.930 . S
C97 C95 1.371 . S
C97 C98 1.392 . S
C97 H113 0.931 . S
C98 C97 1.392 . S
C98 C99 1.331 . S
C98 H116 0.932 . S
C99 C98 1.331 . S
C99 C100 1.336 . S
C100 C96 1.394 . S
C100 C99 1.336 . S
C100 H115 0.929 . S
C101 C91 1.386 . S
C101 C94 1.357 . S
C101 H114 0.928 . S
H102 C78 0.931 . S
H103 C80 0.930 . S
H104 C82 0.929 . S
H105 C83 0.931 . S
H106 C85 0.930 . S
H107 C89 0.931 . S
H108 C87 0.931 . S
H109 C91 0.931 . S
H110 C92 0.929 . S
H111 C93 0.930 . S
H112 C96 0.930 . S
H113 C97 0.931 . S
H114 C101 0.928 . S
H115 C100 0.929 . S
H116 C98 0.932 . S
C117 C118 1.386 . S
C117 C119 1.397 . S
C117 H141 0.931 . S
C118 C117 1.386 . S
C118 C122 1.397 . S
C119 C117 1.397 . S
C119 C120 1.384 . S
C119 H142 0.930 . S
C120 C119 1.384 . S
C120 C121 1.377 . S
C120 C123 1.481 . S
C121 C120 1.377 . S
C121 C122 1.389 . S
C121 H143 0.929 . S
C122 C118 1.397 . S
C122 C121 1.389 . S
C122 H144 0.931 . S
C123 C120 1.481 . S
C123 C124 1.387 . S
C123 C128 1.390 . S
C124 C123 1.387 . S
C124 C125 1.401 . S
C124 H145 0.930 . S
C125 C124 1.401 . S
C125 C126 1.376 . S
C125 C134 1.511 . S
C126 C125 1.376 . S
C126 C127 1.392 . S
C126 H147 0.931 . S
C127 C126 1.392 . S
C127 C128 1.361 . S
C127 C129 1.500 . S
C128 C123 1.390 . S
C128 C127 1.361 . S
C128 H146 0.931 . S
C129 C127 1.500 . S
C129 C130 1.371 . S
C129 C131 1.365 . S
C130 C129 1.371 . S
C130 C140 1.386 1_554 S
C130 H148 0.931 . S
C131 C129 1.365 . S
C131 C132 1.409 . S
C131 H149 0.929 . S
C132 C131 1.409 . S
C132 C133 1.380 1_554 S
C132 H150 0.930 . S
C133 C132 1.380 1_556 S
C133 C140 1.357 . S
C134 C125 1.511 . S
C134 C135 1.341 . S
C134 C136 1.371 . S
C135 C134 1.341 . S
C135 C139 1.394 . S
C135 H151 0.930 . S
C136 C134 1.371 . S
C136 C137 1.392 . S
C136 H152 0.931 . S
C137 C136 1.392 . S
C137 C138 1.331 . S
C137 H155 0.932 . S
C138 C137 1.331 . S
C138 C139 1.336 . S
C139 C135 1.394 . S
C139 C138 1.336 . S
C139 H154 0.929 . S
C140 C130 1.386 1_556 S
C140 C133 1.357 . S
C140 H153 0.928 . S
H141 C117 0.931 . S
H142 C119 0.930 . S
H143 C121 0.929 . S
H144 C122 0.931 . S
H145 C124 0.930 . S
H146 C128 0.931 . S
H147 C126 0.931 . S
H148 C130 0.931 . S
H149 C131 0.929 . S
H150 C132 0.930 . S
H151 C135 0.930 . S
H152 C136 0.931 . S
H153 C140 0.928 . S
H154 C139 0.929 . S
H155 C137 0.932 . S
C156 C157 1.386 . S
C156 C158 1.397 . S
C156 H180 0.931 . S
C157 C156 1.386 . S
C157 C161 1.397 . S
C158 C156 1.397 . S
C158 C159 1.384 . S
C158 H181 0.930 . S
C159 C158 1.384 . S
C159 C160 1.377 . S
C159 C162 1.481 . S
C160 C159 1.377 . S
C160 C161 1.389 . S
C160 H182 0.929 . S
C161 C157 1.397 . S
C161 C160 1.389 . S
C161 H183 0.931 . S
C162 C159 1.481 . S
C162 C163 1.387 . S
C162 C167 1.390 . S
C163 C162 1.387 . S
C163 C164 1.401 . S
C163 H184 0.930 . S
C164 C163 1.401 . S
C164 C165 1.376 . S
C164 C173 1.511 . S
C165 C164 1.376 . S
C165 C166 1.392 . S
C165 H186 0.931 . S
C166 C165 1.392 . S
C166 C167 1.361 . S
C166 C168 1.500 . S
C167 C162 1.390 . S
C167 C166 1.361 . S
C167 H185 0.931 . S
C168 C166 1.500 . S
C168 C169 1.371 . S
C168 C170 1.365 . S
C169 C168 1.371 . S
C169 C179 1.386 . S
C169 H187 0.931 . S
C170 C168 1.365 . S
C170 C171 1.409 . S
C170 H188 0.929 . S
C171 C170 1.409 . S
C171 C172 1.380 . S
C171 H189 0.930 . S
C172 C171 1.380 . S
C172 C179 1.357 . S
C173 C164 1.511 . S
C173 C174 1.341 . S
C173 C175 1.371 . S
C174 C173 1.341 . S
C174 C178 1.394 . S
C174 H190 0.930 . S
C175 C173 1.371 . S
C175 C176 1.392 . S
C175 H191 0.931 . S
C176 C175 1.392 . S
C176 C177 1.331 . S
C176 H194 0.932 . S
C177 C176 1.331 . S
C177 C178 1.336 . S
C178 C174 1.394 . S
C178 C177 1.336 . S
C178 H193 0.929 . S
C179 C169 1.386 . S
C179 C172 1.357 . S
C179 H192 0.928 . S
H180 C156 0.931 . S
H181 C158 0.930 . S
H182 C160 0.929 . S
H183 C161 0.931 . S
H184 C163 0.930 . S
H185 C167 0.931 . S
H186 C165 0.931 . S
H187 C169 0.931 . S
H188 C170 0.929 . S
H189 C171 0.930 . S
H190 C174 0.930 . S
H191 C175 0.931 . S
H192 C179 0.928 . S
H193 C178 0.929 . S
H194 C176 0.932 . S
C195 C196 1.386 . S
C195 C197 1.397 . S
C195 H219 0.931 . S
C196 C195 1.386 . S
C196 C200 1.397 1_655 S
C197 C195 1.397 . S
C197 C198 1.380 . S
C197 H220 0.930 . S
C198 C197 1.380 . S
C198 C199 1.381 1_655 S
C198 C201 1.482 . S
C199 C198 1.381 1_455 S
C199 C200 1.389 . S
C199 H221 0.929 . S
C200 C196 1.397 1_455 S
C200 C199 1.389 . S
C200 H222 0.931 . S
C201 C198 1.482 . S
C201 C202 1.389 . S
C201 C206 1.390 . S
C202 C201 1.389 . S
C202 C203 1.399 . S
C202 H223 0.935 . S
C203 C202 1.399 . S
C203 C204 1.376 . S
C203 C212 1.511 . S
C204 C203 1.376 . S
C204 C205 1.393 1_655 S
C204 H225 0.932 . S
C205 C204 1.393 1_455 S
C205 C206 1.361 1_455 S
C205 C207 1.499 . S
C206 C201 1.390 . S
C206 C205 1.361 1_655 S
C206 H224 0.931 1_655 S
C207 C205 1.499 . S
C207 C208 1.358 1_455 S
C207 C209 1.379 . S
C208 C207 1.358 1_655 S
C208 C218 1.386 . S
C208 H226 0.931 . S
C209 C207 1.379 . S
C209 C210 1.409 . S
C209 H227 0.929 . S
C210 C209 1.409 . S
C210 C211 1.384 . S
C210 H228 0.930 . S
C211 C210 1.384 . S
C211 C218 1.354 1_455 S
C212 C203 1.511 . S
C212 C213 1.341 . S
C212 C214 1.371 1_655 S
C213 C212 1.341 . S
C213 C217 1.394 . S
C213 H229 0.930 . S
C214 C212 1.371 1_455 S
C214 C215 1.392 . S
C214 H230 0.931 . S
C215 C214 1.392 . S
C215 C216 1.326 1_455 S
C215 H233 0.932 . S
C216 C215 1.326 1_655 S
C216 C217 1.341 . S
C217 C213 1.394 . S
C217 C216 1.341 . S
C217 H232 0.929 . S
C218 C208 1.386 . S
C218 C211 1.354 1_655 S
C218 H231 0.928 . S
H219 C195 0.931 . S
H220 C197 0.930 . S
H221 C199 0.929 . S
H222 C200 0.931 . S
H223 C202 0.935 . S
H224 C206 0.931 1_455 S
H225 C204 0.932 . S
H226 C208 0.931 . S
H227 C209 0.929 . S
H228 C210 0.930 . S
H229 C213 0.930 . S
H230 C214 0.931 . S
H231 C218 0.928 . S
H232 C217 0.929 . S
H233 C215 0.932 . S
C234 C235 1.386 . S
C234 C236 1.397 . S
C234 H258 0.931 . S
C235 C234 1.386 . S
C235 C239 1.397 . S
C236 C234 1.397 . S
C236 C237 1.384 . S
C236 H259 0.930 . S
C237 C236 1.384 . S
C237 C238 1.377 . S
C237 C240 1.481 . S
C238 C237 1.377 . S
C238 C239 1.389 . S
C238 H260 0.929 . S
C239 C235 1.397 . S
C239 C238 1.389 . S
C239 H261 0.931 . S
C240 C237 1.481 . S
C240 C241 1.387 . S
C240 C245 1.390 . S
C241 C240 1.387 . S
C241 C242 1.401 . S
C241 H262 0.930 . S
C242 C241 1.401 . S
C242 C243 1.376 . S
C242 C251 1.511 . S
C243 C242 1.376 . S
C243 C244 1.392 . S
C243 H264 0.931 . S
C244 C243 1.392 . S
C244 C245 1.361 . S
C244 C246 1.500 . S
C245 C240 1.390 . S
C245 C244 1.361 . S
C245 H263 0.931 . S
C246 C244 1.500 . S
C246 C247 1.371 . S
C246 C248 1.365 . S
C247 C246 1.371 . S
C247 C257 1.386 . S
C247 H265 0.931 . S
C248 C246 1.365 . S
C248 C249 1.409 . S
C248 H266 0.929 . S
C249 C248 1.409 . S
C249 C250 1.380 . S
C249 H267 0.930 . S
C250 C249 1.380 . S
C250 C257 1.357 . S
C251 C242 1.511 . S
C251 C252 1.341 . S
C251 C253 1.371 . S
C252 C251 1.341 . S
C252 C256 1.394 . S
C252 H268 0.930 . S
C253 C251 1.371 . S
C253 C254 1.392 . S
C253 H269 0.931 . S
C254 C253 1.392 . S
C254 C255 1.331 . S
C254 H272 0.932 . S
C255 C254 1.331 . S
C255 C256 1.336 . S
C256 C252 1.394 . S
C256 C255 1.336 . S
C256 H271 0.929 . S
C257 C247 1.386 . S
C257 C250 1.357 . S
C257 H270 0.928 . S
H258 C234 0.931 . S
H259 C236 0.930 . S
H260 C238 0.929 . S
H261 C239 0.931 . S
H262 C241 0.930 . S
H263 C245 0.931 . S
H264 C243 0.931 . S
H265 C247 0.931 . S
H266 C248 0.929 . S
H267 C249 0.930 . S
H268 C252 0.930 . S
H269 C253 0.931 . S
H270 C257 0.928 . S
H271 C256 0.929 . S
H272 C254 0.932 . S
C273 C274 1.386 . S
C273 C275 1.397 . S
C273 H297 0.931 . S
C274 C273 1.386 . S
C274 C278 1.397 . S
C275 C273 1.397 . S
C275 C276 1.384 . S
C275 H298 0.930 . S
C276 C275 1.384 . S
C276 C277 1.377 . S
C276 C279 1.481 . S
C277 C276 1.377 . S
C277 C278 1.389 . S
C277 H299 0.929 . S
C278 C274 1.397 . S
C278 C277 1.389 . S
C278 H300 0.931 . S
C279 C276 1.481 . S
C279 C280 1.387 . S
C279 C284 1.390 . S
C280 C279 1.387 . S
C280 C281 1.401 . S
C280 H301 0.930 . S
C281 C280 1.401 . S
C281 C282 1.376 . S
C281 C290 1.511 . S
C282 C281 1.376 . S
C282 C283 1.392 . S
C282 H303 0.931 . S
C283 C282 1.392 . S
C283 C284 1.361 . S
C283 C285 1.500 . S
C284 C279 1.390 . S
C284 C283 1.361 . S
C284 H302 0.931 . S
C285 C283 1.500 . S
C285 C286 1.371 . S
C285 C287 1.365 . S
C286 C285 1.371 . S
C286 C296 1.386 . S
C286 H304 0.931 . S
C287 C285 1.365 . S
C287 C288 1.409 . S
C287 H305 0.929 . S
C288 C287 1.409 . S
C288 C289 1.380 . S
C288 H306 0.930 . S
C289 C288 1.380 . S
C289 C296 1.357 . S
C290 C281 1.511 . S
C290 C291 1.341 . S
C290 C292 1.371 . S
C291 C290 1.341 . S
C291 C295 1.394 . S
C291 H307 0.930 . S
C292 C290 1.371 . S
C292 C293 1.392 . S
C292 H308 0.931 . S
C293 C292 1.392 . S
C293 C294 1.331 . S
C293 H311 0.932 . S
C294 C293 1.331 . S
C294 C295 1.336 . S
C295 C291 1.394 . S
C295 C294 1.336 . S
C295 H310 0.929 . S
C296 C286 1.386 . S
C296 C289 1.357 . S
C296 H309 0.928 . S
H297 C273 0.931 . S
H298 C275 0.930 . S
H299 C277 0.929 . S
H300 C278 0.931 . S
H301 C280 0.930 . S
H302 C284 0.931 . S
H303 C282 0.931 . S
H304 C286 0.931 . S
H305 C287 0.929 . S
H306 C288 0.930 . S
H307 C291 0.930 . S
H308 C292 0.931 . S
H309 C296 0.928 . S
H310 C295 0.929 . S
H311 C293 0.932 . S
Co312 N317 2.057 . S
Co312 O329 2.021 . S
Co312 O332 2.062 1_455 S
Co312 O336 2.117 1_455 S
Co312 O337 2.020 1_545 S
C313 O333 1.259 1_545 S
C313 O336 1.258 . S
Co314 N323 2.057 . S
Co314 O330 2.117 1_665 S
Co314 O331 2.020 1_565 S
Co314 O333 2.021 . S
Co314 O338 2.062 1_655 S
C315 N317 1.316 . S
C315 N318 1.347 . S
C315 H320 0.931 . S
C316 N317 1.375 1_655 S
C316 C319 1.350 . S
C316 H321 0.930 . S
N317 Co312 2.057 . S
N317 C315 1.316 . S
N317 C316 1.375 1_455 S
N318 C315 1.347 . S
N318 C319 1.373 1_455 S
C319 C316 1.350 . S
C319 N318 1.373 1_655 S
C319 H340 0.931 . S
H320 C315 0.931 . S
H321 C316 0.930 . S
C322 O329 1.259 . S
C322 O330 1.258 . S
N323 Co314 2.057 . S
N323 C324 1.316 . S
N323 C325 1.375 1_655 S
C324 N323 1.316 . S
C324 N326 1.347 . S
C324 H335 0.931 . S
C325 N323 1.375 1_455 S
C325 C327 1.350 . S
C325 H334 0.930 . S
N326 C324 1.347 . S
N326 C327 1.373 1_655 S
C327 C325 1.350 . S
C327 N326 1.373 1_455 S
C327 H341 0.931 . S
C328 O331 1.256 . S
C328 O332 1.255 . S
O329 Co312 2.021 . S
O329 C322 1.259 . S
O330 Co314 2.117 1_445 S
O330 C322 1.258 . S
O331 Co314 2.020 1_545 S
O331 C328 1.256 . S
O332 Co312 2.062 1_655 S
O332 C328 1.255 . S
O333 C313 1.259 1_565 S
O333 Co314 2.021 . S
H334 C325 0.930 . S
H335 C324 0.931 . S
O336 Co312 2.117 1_655 S
O336 C313 1.258 . S
O337 Co312 2.020 1_565 S
O337 C339 1.256 . S
O338 Co314 2.062 1_455 S
O338 C339 1.255 . S
C339 O337 1.256 . S
C339 O338 1.255 . S
H340 C319 0.931 . S
H341 C327 0.931 . S
Co342 N347 2.057 . S
Co342 O359 2.021 . S
Co342 O362 2.062 . S
Co342 O366 2.117 1_545 S
Co342 O367 2.020 . S
C343 O363 1.259 . S
C343 O366 1.258 . S
Co344 N353 2.053 1_545 S
Co344 O360 2.149 . S
Co344 O361 2.023 . S
Co344 O363 1.991 1_545 S
Co344 O368 2.063 1_545 S
C345 N347 1.316 . S
C345 N348 1.347 . S
C345 H350 0.931 . S
C346 N347 1.375 . S
C346 C349 1.350 . S
C346 H351 0.930 1_545 S
N347 Co342 2.057 . S
N347 C345 1.316 . S
N347 C346 1.375 . S
N348 C345 1.347 . S
N348 C349 1.373 . S
C349 C346 1.350 . S
C349 N348 1.373 . S
C349 H370 0.931 . S
H350 C345 0.931 . S
H351 C346 0.930 1_565 S
C352 O359 1.259 . S
C352 O360 1.258 . S
N353 Co344 2.053 1_565 S
N353 C354 1.316 . S
N353 C355 1.375 1_565 S
C354 N353 1.316 . S
C354 N356 1.347 . S
C354 H365 0.931 . S
C355 N353 1.375 1_545 S
C355 C357 1.350 . S
C355 H364 0.930 . S
N356 C354 1.347 . S
N356 C357 1.373 1_565 S
C357 C355 1.350 . S
C357 N356 1.373 1_545 S
C357 H371 0.931 . S
C358 O361 1.256 . S
C358 O362 1.255 . S
O359 Co342 2.021 . S
O359 C352 1.259 . S
O360 Co344 2.149 . S
O360 C352 1.258 . S
O361 Co344 2.023 . S
O361 C358 1.256 . S
O362 Co342 2.062 . S
O362 C358 1.255 . S
O363 C343 1.259 . S
O363 Co344 1.991 1_565 S
H364 C355 0.930 . S
H365 C354 0.931 . S
O366 Co342 2.117 1_565 S
O366 C343 1.258 . S
O367 Co342 2.020 . S
O367 C369 1.256 . S
O368 Co344 2.063 1_565 S
O368 C369 1.255 1_565 S
C369 O367 1.256 . S
C369 O368 1.255 1_545 S
H370 C349 0.931 . S
H371 C357 0.931 . S
Co372 N377 2.057 . S
Co372 O389 2.021 . S
Co372 O392 2.062 . S
Co372 O396 2.117 . S
Co372 O397 2.020 . S
C373 O393 1.259 . S
C373 O396 1.258 . S
Co374 N383 2.057 . S
Co374 O390 2.117 . S
Co374 O391 2.020 . S
Co374 O393 2.021 . S
Co374 O398 2.062 . S
C375 N377 1.316 . S
C375 N378 1.347 . S
C375 H380 0.931 . S
C376 N377 1.375 . S
C376 C379 1.350 . S
C376 H381 0.930 . S
N377 Co372 2.057 . S
N377 C375 1.316 . S
N377 C376 1.375 . S
N378 C375 1.347 . S
N378 C379 1.373 . S
C379 C376 1.350 . S
C379 N378 1.373 . S
C379 H400 0.931 . S
H380 C375 0.931 . S
H381 C376 0.930 . S
C382 O389 1.259 . S
C382 O390 1.258 . S
N383 Co374 2.057 . S
N383 C384 1.316 . S
N383 C385 1.375 . S
C384 N383 1.316 . S
C384 N386 1.347 . S
C384 H395 0.931 . S
C385 N383 1.375 . S
C385 C387 1.350 . S
C385 H394 0.930 . S
N386 C384 1.347 . S
N386 C387 1.373 . S
C387 C385 1.350 . S
C387 N386 1.373 . S
C387 H401 0.931 . S
C388 O391 1.256 . S
C388 O392 1.255 . S
O389 Co372 2.021 . S
O389 C382 1.259 . S
O390 Co374 2.117 . S
O390 C382 1.258 . S
O391 Co374 2.020 . S
O391 C388 1.256 . S
O392 Co372 2.062 . S
O392 C388 1.255 . S
O393 C373 1.259 . S
O393 Co374 2.021 . S
H394 C385 0.930 . S
H395 C384 0.931 . S
O396 Co372 2.117 . S
O396 C373 1.258 . S
O397 Co372 2.020 . S
O397 C399 1.256 . S
O398 Co374 2.062 . S
O398 C399 1.255 . S
C399 O397 1.256 . S
C399 O398 1.255 . S
H400 C379 0.931 . S
H401 C387 0.931 . S
Co402 N407 2.057 . S
Co402 O419 2.021 1_455 S
Co402 O422 2.062 1_455 S
Co402 O426 2.117 . S
Co402 O427 2.020 . S
C403 O423 1.259 . S
C403 O426 1.258 . S
Co404 N413 2.057 . S
Co404 O420 2.117 . S
Co404 O421 2.020 . S
Co404 O423 2.021 1_655 S
Co404 O428 2.062 1_655 S
C405 N407 1.316 . S
C405 N408 1.347 . S
C405 H410 0.931 1_455 S
C406 N407 1.375 . S
C406 C409 1.350 . S
C406 H411 0.930 . S
N407 Co402 2.057 . S
N407 C405 1.316 . S
N407 C406 1.375 . S
N408 C405 1.347 . S
N408 C409 1.373 . S
C409 C406 1.350 . S
C409 N408 1.373 . S
C409 H430 0.931 . S
H410 C405 0.931 1_655 S
H411 C406 0.930 . S
C412 O419 1.259 . S
C412 O420 1.258 . S
N413 Co404 2.057 . S
N413 C414 1.316 . S
N413 C415 1.375 . S
C414 N413 1.316 . S
C414 N416 1.347 . S
C414 H425 0.931 1_655 S
C415 N413 1.375 . S
C415 C417 1.350 . S
C415 H424 0.930 . S
N416 C414 1.347 . S
N416 C417 1.373 . S
C417 C415 1.350 . S
C417 N416 1.373 . S
C417 H431 0.931 . S
C418 O421 1.256 . S
C418 O422 1.255 . S
O419 Co402 2.021 1_655 S
O419 C412 1.259 . S
O420 Co404 2.117 . S
O420 C412 1.258 . S
O421 Co404 2.020 . S
O421 C418 1.256 . S
O422 Co402 2.062 1_655 S
O422 C418 1.255 . S
O423 C403 1.259 . S
O423 Co404 2.021 1_455 S
H424 C415 0.930 . S
H425 C414 0.931 1_455 S
O426 Co402 2.117 . S
O426 C403 1.258 . S
O427 Co402 2.020 . S
O427 C429 1.256 . S
O428 Co404 2.062 1_455 S
O428 C429 1.255 . S
C429 O427 1.256 . S
C429 O428 1.255 . S
H430 C409 0.931 . S
H431 C417 0.931 . S
H432 C440 0.929 . S
H433 C442 0.930 . S
H434 C444 0.930 . S
H435 C447 0.929 . S
H436 C450 0.930 . S
H437 C452 0.960 . S
H438 C452 0.960 . S
H439 C452 0.960 . S
C440 H432 0.929 . S
C440 C441 1.377 . S
C440 C442 1.384 . S
C441 C440 1.377 . S
C441 C447 1.390 . S
C442 H433 0.930 . S
C442 C440 1.384 . S
C442 C443 1.372 . S
C443 C442 1.372 . S
C443 C444 1.400 . S
C443 C448 1.490 . S
C444 H434 0.930 . S
C444 C443 1.400 . S
C444 C447 1.386 . S
H445 C461 0.930 . S
H446 C462 0.931 . S
C447 H435 0.929 . S
C447 C441 1.390 . S
C447 C444 1.386 . S
C448 C443 1.490 . S
C448 C450 1.395 . S
C448 C451 1.403 . S
H449 C455 0.930 . S
C450 H436 0.930 . S
C450 C448 1.395 . S
C450 C453 1.403 . S
C451 C448 1.403 . S
C451 C452 1.524 . S
C451 C455 1.400 . S
C452 H437 0.960 . S
C452 H438 0.960 . S
C452 H439 0.960 . S
C452 C451 1.524 . S
C453 C450 1.403 . S
C453 C454 1.392 . S
C453 C457 1.495 . S
C454 C453 1.392 . S
C454 C455 1.385 . S
C454 C456 1.478 . S
C455 H449 0.930 . S
C455 C451 1.400 . S
C455 C454 1.385 . S
C456 C454 1.478 . S
C456 C458 1.381 . S
C456 C462 1.383 . S
C457 C453 1.495 . S
C457 H463 0.959 . S
C457 H464 0.961 . S
C457 H465 0.960 . S
C458 C456 1.381 . S
C458 C459 1.394 . S
C458 H466 0.930 . S
C459 C458 1.394 . S
C459 C460 1.383 . S
C459 H467 0.929 . S
C460 C459 1.383 . S
C460 C461 1.377 . S
C461 H445 0.930 . S
C461 C460 1.377 . S
C461 C462 1.379 . S
C462 H446 0.931 . S
C462 C456 1.383 . S
C462 C461 1.379 . S
H463 C457 0.959 . S
H464 C457 0.961 . S
H465 C457 0.960 . S
H466 C458 0.930 . S
H467 C459 0.929 . S
H468 C476 0.929 . S
H469 C478 0.930 . S
H470 C480 0.930 . S
H471 C483 0.929 . S
H472 C486 0.930 . S
H473 C488 0.960 . S
H474 C488 0.960 . S
H475 C488 0.960 . S
C476 H468 0.929 . S
C476 C477 1.377 . S
C476 C478 1.384 . S
C477 C476 1.377 . S
C477 C483 1.390 . S
C478 H469 0.930 . S
C478 C476 1.384 . S
C478 C479 1.372 . S
C479 C478 1.372 . S
C479 C480 1.400 . S
C479 C484 1.490 . S
C480 H470 0.930 . S
C480 C479 1.400 . S
C480 C483 1.386 . S
H481 C497 0.930 . S
H482 C498 0.931 . S
C483 H471 0.929 . S
C483 C477 1.390 . S
C483 C480 1.386 . S
C484 C479 1.490 . S
C484 C486 1.395 . S
C484 C487 1.403 . S
H485 C491 0.930 . S
C486 H472 0.930 . S
C486 C484 1.395 . S
C486 C489 1.403 . S
C487 C484 1.403 . S
C487 C488 1.524 . S
C487 C491 1.400 . S
C488 H473 0.960 . S
C488 H474 0.960 . S
C488 H475 0.960 . S
C488 C487 1.524 . S
C489 C486 1.403 . S
C489 C490 1.392 . S
C489 C493 1.495 . S
C490 C489 1.392 . S
C490 C491 1.385 . S
C490 C492 1.478 . S
C491 H485 0.930 . S
C491 C487 1.400 . S
C491 C490 1.385 . S
C492 C490 1.478 . S
C492 C494 1.381 . S
C492 C498 1.383 . S
C493 C489 1.495 . S
C493 H499 0.959 . S
C493 H500 0.961 . S
C493 H501 0.960 . S
C494 C492 1.381 . S
C494 C495 1.394 . S
C494 H502 0.930 . S
C495 C494 1.394 . S
C495 C496 1.383 . S
C495 H503 0.929 . S
C496 C495 1.383 . S
C496 C497 1.377 . S
C497 H481 0.930 . S
C497 C496 1.377 . S
C497 C498 1.379 . S
C498 H482 0.931 . S
C498 C492 1.383 . S
C498 C497 1.379 . S
H499 C493 0.959 . S
H500 C493 0.961 . S
H501 C493 0.960 . S
H502 C494 0.930 . S
H503 C495 0.929 . S
H504 C512 0.929 . S
H505 C514 0.930 . S
H506 C516 0.930 . S
H507 C519 0.929 . S
H508 C522 0.930 . S
H509 C524 0.960 . S
H510 C524 0.960 . S
H511 C524 0.960 . S
C512 H504 0.929 . S
C512 C513 1.377 . S
C512 C514 1.384 . S
C513 C512 1.377 . S
C513 C519 1.390 . S
C514 H505 0.930 . S
C514 C512 1.384 . S
C514 C515 1.372 . S
C515 C514 1.372 . S
C515 C516 1.400 . S
C515 C520 1.490 . S
C516 H506 0.930 . S
C516 C515 1.400 . S
C516 C519 1.386 . S
H517 C533 0.930 . S
H518 C534 0.931 . S
C519 H507 0.929 . S
C519 C513 1.390 . S
C519 C516 1.386 . S
C520 C515 1.490 . S
C520 C522 1.395 . S
C520 C523 1.403 . S
H521 C527 0.930 . S
C522 H508 0.930 . S
C522 C520 1.395 . S
C522 C525 1.403 . S
C523 C520 1.403 . S
C523 C524 1.524 . S
C523 C527 1.400 . S
C524 H509 0.960 . S
C524 H510 0.960 . S
C524 H511 0.960 . S
C524 C523 1.524 . S
C525 C522 1.403 . S
C525 C526 1.392 . S
C525 C529 1.495 . S
C526 C525 1.392 . S
C526 C527 1.385 . S
C526 C528 1.478 . S
C527 H521 0.930 . S
C527 C523 1.400 . S
C527 C526 1.385 . S
C528 C526 1.478 . S
C528 C530 1.381 . S
C528 C534 1.383 . S
C529 C525 1.495 . S
C529 H535 0.959 . S
C529 H536 0.961 . S
C529 H537 0.960 . S
C530 C528 1.381 . S
C530 C531 1.394 . S
C530 H538 0.930 . S
C531 C530 1.394 . S
C531 C532 1.383 . S
C531 H539 0.929 . S
C532 C531 1.383 . S
C532 C533 1.377 . S
C533 H517 0.930 . S
C533 C532 1.377 . S
C533 C534 1.379 . S
C534 H518 0.931 . S
C534 C528 1.383 . S
C534 C533 1.379 . S
H535 C529 0.959 . S
H536 C529 0.961 . S
H537 C529 0.960 . S
H538 C530 0.930 . S
H539 C531 0.929 . S
H540 C548 0.929 . S
H541 C550 0.930 . S
H542 C552 0.933 . S
H543 C555 0.929 . S
H544 C558 0.930 . S
H545 C560 0.960 . S
H546 C560 0.960 . S
H547 C560 0.960 . S
C548 H540 0.929 . S
C548 C549 1.378 . S
C548 C550 1.384 . S
C549 C548 1.378 . S
C549 C555 1.389 1_655 S
C550 H541 0.930 . S
C550 C548 1.384 . S
C550 C551 1.372 . S
C551 C550 1.372 . S
C551 C552 1.397 1_655 S
C551 C556 1.490 . S
C552 H542 0.933 . S
C552 C551 1.397 1_455 S
C552 C555 1.387 . S
H553 C569 0.930 . S
H554 C570 0.931 . S
C555 H543 0.929 . S
C555 C549 1.389 1_455 S
C555 C552 1.387 . S
C556 C551 1.490 . S
C556 C558 1.395 . S
C556 C559 1.403 1_655 S
H557 C563 0.930 . S
C558 H544 0.930 . S
C558 C556 1.395 . S
C558 C561 1.403 . S
C559 C556 1.403 1_455 S
C559 C560 1.524 . S
C559 C563 1.400 . S
C560 H545 0.960 . S
C560 H546 0.960 . S
C560 H547 0.960 . S
C560 C559 1.524 . S
C561 C558 1.403 . S
C561 C562 1.392 . S
C561 C565 1.495 . S
C562 C561 1.392 . S
C562 C563 1.385 1_655 S
C562 C564 1.478 . S
C563 H557 0.930 . S
C563 C559 1.400 . S
C563 C562 1.385 1_455 S
C564 C562 1.478 . S
C564 C566 1.381 . S
C564 C570 1.383 . S
C565 C561 1.495 . S
C565 H571 0.959 . S
C565 H572 0.961 . S
C565 H573 0.960 . S
C566 C564 1.381 . S
C566 C567 1.394 . S
C566 H574 0.930 . S
C567 C566 1.394 . S
C567 C568 1.383 . S
C567 H575 0.929 . S
C568 C567 1.383 . S
C568 C569 1.377 . S
C569 H553 0.930 . S
C569 C568 1.377 . S
C569 C570 1.379 . S
C570 H554 0.931 . S
C570 C564 1.383 . S
C570 C569 1.379 . S
H571 C565 0.959 . S
H572 C565 0.961 . S
H573 C565 0.960 . S
H574 C566 0.930 . S
H575 C567 0.929 . S
H576 C584 0.929 . S
H577 C586 0.930 . S
H578 C588 0.930 . S
H579 C591 0.929 . S
H580 C594 0.930 . S
H581 C596 0.960 . S
H582 C596 0.960 . S
H583 C596 0.960 1_554 S
C584 H576 0.929 . S
C584 C585 1.377 1_556 S
C584 C586 1.384 . S
C585 C584 1.377 1_554 S
C585 C591 1.390 . S
C586 H577 0.930 . S
C586 C584 1.384 . S
C586 C587 1.372 . S
C587 C586 1.372 . S
C587 C588 1.400 1_556 S
C587 C592 1.490 . S
C588 H578 0.930 . S
C588 C587 1.400 1_554 S
C588 C591 1.386 . S
H589 C605 0.930 . S
H590 C606 0.931 . S
C591 H579 0.929 . S
C591 C585 1.390 . S
C591 C588 1.386 . S
C592 C587 1.490 . S
C592 C594 1.395 . S
C592 C595 1.403 . S
H593 C599 0.930 . S
C594 H580 0.930 . S
C594 C592 1.395 . S
C594 C597 1.403 . S
C595 C592 1.403 . S
C595 C596 1.524 . S
C595 C599 1.400 . S
C596 H581 0.960 . S
C596 H582 0.960 . S
C596 H583 0.960 1_556 S
C596 C595 1.524 . S
C597 C594 1.403 . S
C597 C598 1.392 . S
C597 C601 1.495 1_565 S
C598 C597 1.392 . S
C598 C599 1.385 . S
C598 C600 1.478 . S
C599 H593 0.930 . S
C599 C595 1.400 . S
C599 C598 1.385 . S
C600 C598 1.478 . S
C600 C602 1.381 . S
C600 C606 1.383 . S
C601 C597 1.495 1_545 S
C601 H607 0.959 . S
C601 H608 0.961 . S
C601 H609 0.960 . S
C602 C600 1.381 . S
C602 C603 1.394 . S
C602 H610 0.930 . S
C603 C602 1.394 . S
C603 C604 1.383 . S
C603 H611 0.929 . S
C604 C603 1.383 . S
C604 C605 1.377 . S
C605 H589 0.930 . S
C605 C604 1.377 . S
C605 C606 1.379 . S
C606 H590 0.931 . S
C606 C600 1.383 . S
C606 C605 1.379 . S
H607 C601 0.959 . S
H608 C601 0.961 . S
H609 C601 0.960 . S
H610 C602 0.930 . S
H611 C603 0.929 . S
H612 C620 0.929 . S
H613 C622 0.930 . S
H614 C624 0.930 . S
H615 C627 0.929 . S
H616 C630 0.930 . S
H617 C632 0.960 . S
H618 C632 0.960 . S
H619 C632 0.960 . S
C620 H612 0.929 . S
C620 C621 1.377 . S
C620 C622 1.384 . S
C621 C620 1.377 . S
C621 C627 1.390 1_554 S
C622 H613 0.930 . S
C622 C620 1.384 . S
C622 C623 1.372 1_554 S
C623 C622 1.372 1_556 S
C623 C624 1.400 . S
C623 C628 1.490 . S
C624 H614 0.930 . S
C624 C623 1.400 . S
C624 C627 1.386 . S
H625 C641 0.930 . S
H626 C642 0.931 . S
C627 H615 0.929 . S
C627 C621 1.390 1_556 S
C627 C624 1.386 . S
C628 C623 1.490 . S
C628 C630 1.395 . S
C628 C631 1.403 . S
H629 C635 0.930 . S
C630 H616 0.930 . S
C630 C628 1.395 . S
C630 C633 1.403 . S
C631 C628 1.403 . S
C631 C632 1.524 . S
C631 C635 1.400 . S
C632 H617 0.960 . S
C632 H618 0.960 . S
C632 H619 0.960 . S
C632 C631 1.524 . S
C633 C630 1.403 . S
C633 C634 1.392 . S
C633 C637 1.495 . S
C634 C633 1.392 . S
C634 C635 1.385 . S
C634 C636 1.478 . S
C635 H629 0.930 . S
C635 C631 1.400 . S
C635 C634 1.385 . S
C636 C634 1.478 . S
C636 C638 1.381 . S
C636 C642 1.383 . S
C637 C633 1.495 . S
C637 H643 0.959 . S
C637 H644 0.961 . S
C637 H645 0.960 . S
C638 C636 1.381 . S
C638 C639 1.394 . S
C638 H646 0.930 . S
C639 C638 1.394 . S
C639 C640 1.383 . S
C639 H647 0.929 . S
C640 C639 1.383 . S
C640 C641 1.377 . S
C641 H625 0.930 . S
C641 C640 1.377 . S
C641 C642 1.379 . S
C642 H626 0.931 . S
C642 C636 1.383 . S
C642 C641 1.379 . S
H643 C637 0.959 . S
H644 C637 0.961 . S
H645 C637 0.960 . S
H646 C638 0.930 . S
H647 C639 0.929 . S
H648 C656 0.929 1_556 S
H649 C658 0.930 . S
H650 C660 0.930 . S
H651 C663 0.929 . S
H652 C666 0.930 . S
H653 C668 0.960 . S
H654 C668 0.960 . S
H655 C668 0.960 1_554 S
C656 H648 0.929 1_554 S
C656 C657 1.377 . S
C656 C658 1.384 1_554 S
C657 C656 1.377 . S
C657 C663 1.390 . S
C658 H649 0.930 . S
C658 C656 1.384 1_556 S
C658 C659 1.368 1_556 S
C659 C658 1.368 1_554 S
C659 C660 1.409 . S
C659 C664 1.484 1_554 S
C660 H650 0.930 . S
C660 C659 1.409 . S
C660 C663 1.386 . S
H661 C677 0.930 . S
H662 C678 0.931 . S
C663 H651 0.929 . S
C663 C657 1.390 . S
C663 C660 1.386 . S
C664 C659 1.484 1_556 S
C664 C666 1.395 . S
C664 C667 1.403 . S
H665 C671 0.930 . S
C666 H652 0.930 . S
C666 C664 1.395 . S
C666 C669 1.403 . S
C667 C664 1.403 . S
C667 C668 1.524 . S
C667 C671 1.400 . S
C668 H653 0.960 . S
C668 H654 0.960 . S
C668 H655 0.960 1_556 S
C668 C667 1.524 . S
C669 C666 1.403 . S
C669 C670 1.392 . S
C669 C673 1.495 . S
C670 C669 1.392 . S
C670 C671 1.385 . S
C670 C672 1.478 . S
C671 H665 0.930 . S
C671 C667 1.400 . S
C671 C670 1.385 . S
C672 C670 1.478 . S
C672 C674 1.381 . S
C672 C678 1.383 . S
C673 C669 1.495 . S
C673 H679 0.959 . S
C673 H680 0.961 . S
C673 H681 0.960 . S
C674 C672 1.381 . S
C674 C675 1.394 . S
C674 H682 0.930 . S
C675 C674 1.394 . S
C675 C676 1.383 . S
C675 H683 0.929 . S
C676 C675 1.383 . S
C676 C677 1.377 . S
C677 H661 0.930 . S
C677 C676 1.377 . S
C677 C678 1.379 . S
C678 H662 0.931 . S
C678 C672 1.383 . S
C678 C677 1.379 . S
H679 C673 0.959 . S
H680 C673 0.961 . S
H681 C673 0.960 . S
H682 C674 0.930 . S
H683 C675 0.929 . S
H684 C692 0.929 . S
H685 C694 0.930 1_556 S
H686 C696 0.930 . S
H687 C699 0.929 . S
H688 C702 0.930 . S
H689 C704 0.960 . S
H690 C704 0.960 . S
H691 C704 0.960 1_455 S
C692 H684 0.929 . S
C692 C693 1.377 1_655 S
C692 C694 1.384 . S
C693 C692 1.377 1_455 S
C693 C699 1.390 . S
C694 H685 0.930 1_554 S
C694 C692 1.384 . S
C694 C695 1.372 1_655 S
C695 C694 1.372 1_455 S
C695 C696 1.400 . S
C695 C700 1.490 1_554 S
C696 H686 0.930 . S
C696 C695 1.400 . S
C696 C699 1.386 . S
H697 C713 0.930 . S
H698 C714 0.931 . S
C699 H687 0.929 . S
C699 C693 1.390 . S
C699 C696 1.386 . S
C700 C695 1.490 1_556 S
C700 C702 1.395 . S
C700 C703 1.403 . S
H701 C707 0.930 . S
C702 H688 0.930 . S
C702 C700 1.395 . S
C702 C705 1.403 . S
C703 C700 1.403 . S
C703 C704 1.524 1_456 S
C703 C707 1.400 . S
C704 H689 0.960 . S
C704 H690 0.960 . S
C704 H691 0.960 1_655 S
C704 C703 1.524 1_654 S
C705 C702 1.403 . S
C705 C706 1.392 . S
C705 C709 1.495 . S
C706 C705 1.392 . S
C706 C707 1.385 . S
C706 C708 1.478 . S
C707 H701 0.930 . S
C707 C703 1.400 . S
C707 C706 1.385 . S
C708 C706 1.478 . S
C708 C710 1.381 1_455 S
C708 C714 1.383 . S
C709 C705 1.495 . S
C709 H715 0.959 . S
C709 H716 0.961 . S
C709 H717 0.928 1_455 S
C710 C708 1.381 1_655 S
C710 C711 1.394 . S
C710 H718 0.930 . S
C711 C710 1.394 . S
C711 C712 1.383 1_655 S
C711 H719 0.929 . S
C712 C711 1.383 1_455 S
C712 C713 1.377 . S
C713 H697 0.930 . S
C713 C712 1.377 . S
C713 C714 1.379 . S
C714 H698 0.931 . S
C714 C708 1.383 . S
C714 C713 1.379 . S
H715 C709 0.959 . S
H716 C709 0.961 . S
H717 C709 0.928 1_655 S
H718 C710 0.930 . S
H719 C711 0.929 . S
H720 C728 0.929 . S
H721 C730 0.930 . S
H722 C732 0.930 . S
H723 C735 0.929 . S
H724 C738 0.930 . S
H725 C740 0.960 . S
H726 C740 0.960 . S
H727 C740 0.960 . S
C728 H720 0.929 . S
C728 C729 1.377 . S
C728 C730 1.384 . S
C729 C728 1.377 . S
C729 C735 1.390 1_455 S
C730 H721 0.930 . S
C730 C728 1.384 . S
C730 C731 1.372 1_455 S
C731 C730 1.372 1_655 S
C731 C732 1.400 . S
C731 C736 1.490 . S
C732 H722 0.930 . S
C732 C731 1.400 . S
C732 C735 1.386 . S
H733 C749 0.930 . S
H734 C750 0.931 . S
C735 H723 0.929 . S
C735 C729 1.390 1_655 S
C735 C732 1.386 . S
C736 C731 1.490 . S
C736 C738 1.395 . S
C736 C739 1.403 1_655 S
H737 C743 0.930 . S
C738 H724 0.930 . S
C738 C736 1.395 . S
C738 C741 1.403 . S
C739 C736 1.403 1_455 S
C739 C740 1.524 . S
C739 C743 1.400 . S
C740 H725 0.960 . S
C740 H726 0.960 . S
C740 H727 0.960 . S
C740 C739 1.524 . S
C741 C738 1.403 . S
C741 C742 1.392 . S
C741 C745 1.495 . S
C742 C741 1.392 . S
C742 C743 1.385 1_655 S
C742 C744 1.478 . S
C743 H737 0.930 . S
C743 C739 1.400 . S
C743 C742 1.385 1_455 S
C744 C742 1.478 . S
C744 C746 1.381 . S
C744 C750 1.383 . S
C745 C741 1.495 . S
C745 H751 0.959 . S
C745 H752 0.961 . S
C745 H753 0.960 . S
C746 C744 1.381 . S
C746 C747 1.394 . S
C746 H754 0.930 . S
C747 C746 1.394 . S
C747 C748 1.383 . S
C747 H755 0.929 . S
C748 C747 1.383 . S
C748 C749 1.377 . S
C749 H733 0.930 . S
C749 C748 1.377 . S
C749 C750 1.379 . S
C750 H734 0.931 . S
C750 C744 1.383 . S
C750 C749 1.379 . S
H751 C745 0.959 . S
H752 C745 0.961 . S
H753 C745 0.960 . S
H754 C746 0.930 . S
H755 C747 0.929 . S
H756 C764 0.929 . S
H757 C766 0.930 . S
H758 C768 0.930 . S
H759 C771 0.929 . S
H760 C774 0.930 . S
H761 C776 0.960 . S
H762 C776 0.960 . S
H763 C776 0.960 . S
C764 H756 0.929 . S
C764 C765 1.377 . S
C764 C766 1.384 . S
C765 C764 1.377 . S
C765 C771 1.390 . S
C766 H757 0.930 . S
C766 C764 1.384 . S
C766 C767 1.372 . S
C767 C766 1.372 . S
C767 C768 1.400 . S
C767 C772 1.490 . S
C768 H758 0.930 . S
C768 C767 1.400 . S
C768 C771 1.386 . S
H769 C785 0.930 . S
H770 C786 0.931 . S
C771 H759 0.929 . S
C771 C765 1.390 . S
C771 C768 1.386 . S
C772 C767 1.490 . S
C772 C774 1.395 . S
C772 C775 1.403 . S
H773 C779 0.930 . S
C774 H760 0.930 . S
C774 C772 1.395 . S
C774 C777 1.403 . S
C775 C772 1.403 . S
C775 C776 1.524 . S
C775 C779 1.400 . S
C776 H761 0.960 . S
C776 H762 0.960 . S
C776 H763 0.960 . S
C776 C775 1.524 . S
C777 C774 1.403 . S
C777 C778 1.392 . S
C777 C781 1.495 . S
C778 C777 1.392 . S
C778 C779 1.385 . S
C778 C780 1.478 . S
C779 H773 0.930 . S
C779 C775 1.400 . S
C779 C778 1.385 . S
C780 C778 1.478 . S
C780 C782 1.381 . S
C780 C786 1.383 . S
C781 C777 1.495 . S
C781 H787 0.959 . S
C781 H788 0.961 . S
C781 H789 0.960 . S
C782 C780 1.381 . S
C782 C783 1.394 . S
C782 H790 0.930 . S
C783 C782 1.394 . S
C783 C784 1.383 . S
C783 H791 0.929 . S
C784 C783 1.383 . S
C784 C785 1.377 . S
C785 H769 0.930 . S
C785 C784 1.377 . S
C785 C786 1.379 . S
C786 H770 0.931 . S
C786 C780 1.383 . S
C786 C785 1.379 . S
H787 C781 0.959 . S
H788 C781 0.961 . S
H789 C781 0.960 . S
H790 C782 0.930 . S
H791 C783 0.929 . S
H792 C800 0.929 . S
H793 C802 0.930 . S
H794 C804 0.930 . S
H795 C807 0.929 . S
H796 C810 0.930 . S
H797 C812 0.960 . S
H798 C812 0.960 . S
H799 C812 0.960 . S
C800 H792 0.929 . S
C800 C801 1.377 . S
C800 C802 1.384 . S
C801 C800 1.377 . S
C801 C807 1.390 . S
C802 H793 0.930 . S
C802 C800 1.384 . S
C802 C803 1.372 . S
C803 C802 1.372 . S
C803 C804 1.400 . S
C803 C808 1.490 . S
C804 H794 0.930 . S
C804 C803 1.400 . S
C804 C807 1.386 . S
H805 C821 0.930 . S
H806 C822 0.931 . S
C807 H795 0.929 . S
C807 C801 1.390 . S
C807 C804 1.386 . S
C808 C803 1.490 . S
C808 C810 1.395 . S
C808 C811 1.403 . S
H809 C815 0.930 . S
C810 H796 0.930 . S
C810 C808 1.395 . S
C810 C813 1.403 . S
C811 C808 1.403 . S
C811 C812 1.524 . S
C811 C815 1.400 . S
C812 H797 0.960 . S
C812 H798 0.960 . S
C812 H799 0.960 . S
C812 C811 1.524 . S
C813 C810 1.403 . S
C813 C814 1.392 . S
C813 C817 1.495 . S
C814 C813 1.392 . S
C814 C815 1.385 . S
C814 C816 1.478 . S
C815 H809 0.930 . S
C815 C811 1.400 . S
C815 C814 1.385 . S
C816 C814 1.478 . S
C816 C818 1.381 . S
C816 C822 1.383 . S
C817 C813 1.495 . S
C817 H823 0.959 . S
C817 H824 0.961 . S
C817 H825 0.960 . S
C818 C816 1.381 . S
C818 C819 1.394 . S
C818 H826 0.930 . S
C819 C818 1.394 . S
C819 C820 1.383 . S
C819 H827 0.929 . S
C820 C819 1.383 . S
C820 C821 1.377 . S
C821 H805 0.930 . S
C821 C820 1.377 . S
C821 C822 1.379 . S
C822 H806 0.931 . S
C822 C816 1.383 . S
C822 C821 1.379 . S
H823 C817 0.959 . S
H824 C817 0.961 . S
H825 C817 0.960 . S
H826 C818 0.930 . S
H827 C819 0.929 . S
H828 C836 0.929 . S
H829 C838 0.930 . S
H830 C840 0.930 . S
H831 C843 0.929 . S
H832 C846 0.930 . S
H833 C848 0.960 . S
H834 C848 0.960 . S
H835 C848 0.960 . S
C836 H828 0.929 . S
C836 C837 1.377 . S
C836 C838 1.384 . S
C837 C836 1.377 . S
C837 C843 1.390 . S
C838 H829 0.930 . S
C838 C836 1.384 . S
C838 C839 1.372 . S
C839 C838 1.372 . S
C839 C840 1.400 . S
C839 C844 1.490 . S
C840 H830 0.930 . S
C840 C839 1.400 . S
C840 C843 1.386 . S
H841 C857 0.930 . S
H842 C858 0.931 . S
C843 H831 0.929 . S
C843 C837 1.390 . S
C843 C840 1.386 . S
C844 C839 1.490 . S
C844 C846 1.395 . S
C844 C847 1.403 . S
H845 C851 0.930 . S
C846 H832 0.930 . S
C846 C844 1.395 . S
C846 C849 1.403 . S
C847 C844 1.403 . S
C847 C848 1.524 . S
C847 C851 1.400 . S
C848 H833 0.960 . S
C848 H834 0.960 . S
C848 H835 0.960 . S
C848 C847 1.524 . S
C849 C846 1.403 . S
C849 C850 1.392 . S
C849 C853 1.495 . S
C850 C849 1.392 . S
C850 C851 1.385 . S
C850 C852 1.478 . S
C851 H845 0.930 . S
C851 C847 1.400 . S
C851 C850 1.385 . S
C852 C850 1.478 . S
C852 C854 1.381 . S
C852 C858 1.383 . S
C853 C849 1.495 . S
C853 H859 0.959 . S
C853 H860 0.961 . S
C853 H861 0.960 . S
C854 C852 1.381 . S
C854 C855 1.394 . S
C854 H862 0.930 . S
C855 C854 1.394 . S
C855 C856 1.383 . S
C855 H863 0.929 . S
C856 C855 1.383 . S
C856 C857 1.377 . S
C857 H841 0.930 . S
C857 C856 1.377 . S
C857 C858 1.379 . S
C858 H842 0.931 . S
C858 C852 1.383 . S
C858 C857 1.379 . S
H859 C853 0.959 . S
H860 C853 0.961 . S
H861 C853 0.960 . S
H862 C854 0.930 . S
H863 C855 0.929 . S
H864 C872 0.929 . S
H865 C874 0.930 . S
H866 C876 0.930 . S
H867 C879 0.929 1_554 S
H868 C882 0.930 . S
H869 C884 0.960 . S
H870 C884 0.960 . S
H871 C884 0.960 . S
C872 H864 0.929 . S
C872 C873 1.377 . S
C872 C874 1.384 . S
C873 C872 1.377 . S
C873 C879 1.390 1_655 S
C874 H865 0.930 . S
C874 C872 1.384 . S
C874 C875 1.331 1_655 S
C875 C874 1.331 1_455 S
C875 C876 1.436 . S
C875 C880 1.497 . S
C876 H866 0.930 . S
C876 C875 1.436 . S
C876 C879 1.386 . S
H877 C893 0.930 . S
H878 C894 0.931 . S
C879 H867 0.929 1_556 S
C879 C873 1.390 1_455 S
C879 C876 1.386 . S
C880 C875 1.497 . S
C880 C882 1.395 1_455 S
C880 C883 1.403 . S
H881 C887 0.930 . S
C882 H868 0.930 . S
C882 C880 1.395 1_655 S
C882 C885 1.403 . S
C883 C880 1.403 . S
C883 C884 1.524 . S
C883 C887 1.400 . S
C884 H869 0.960 . S
C884 H870 0.960 . S
C884 H871 0.960 . S
C884 C883 1.524 . S
C885 C882 1.403 . S
C885 C886 1.392 1_655 S
C885 C889 1.495 . S
C886 C885 1.392 1_455 S
C886 C887 1.385 . S
C886 C888 1.478 . S
C887 H881 0.930 . S
C887 C883 1.400 . S
C887 C886 1.385 . S
C888 C886 1.478 . S
C888 C890 1.381 1_455 S
C888 C894 1.383 . S
C889 C885 1.495 . S
C889 H895 0.959 . S
C889 H896 0.961 . S
C889 H897 0.960 . S
C890 C888 1.381 1_655 S
C890 C891 1.394 . S
C890 H898 0.930 . S
C891 C890 1.394 . S
C891 C892 1.383 1_655 S
C891 H899 0.929 . S
C892 C891 1.383 1_455 S
C892 C893 1.377 . S
C893 H877 0.930 . S
C893 C892 1.377 . S
C893 C894 1.379 . S
C894 H878 0.931 . S
C894 C888 1.383 . S
C894 C893 1.379 . S
H895 C889 0.959 . S
H896 C889 0.961 . S
H897 C889 0.960 . S
H898 C890 0.930 . S
H899 C891 0.929 . S
H900 C908 0.929 . S
H901 C910 0.930 . S
H902 C912 0.930 . S
H903 C915 0.929 . S
H904 C918 0.930 . S
H905 C920 0.960 . S
H906 C920 0.960 . S
H907 C920 0.960 . S
C908 H900 0.929 . S
C908 C909 1.377 . S
C908 C910 1.384 . S
C909 C908 1.377 . S
C909 C915 1.390 . S
C910 H901 0.930 . S
C910 C908 1.384 . S
C910 C911 1.372 . S
C911 C910 1.372 . S
C911 C912 1.400 . S
C911 C916 1.490 . S
C912 H902 0.930 . S
C912 C911 1.400 . S
C912 C915 1.386 . S
H913 C929 0.930 . S
H914 C930 0.931 . S
C915 H903 0.929 . S
C915 C909 1.390 . S
C915 C912 1.386 . S
C916 C911 1.490 . S
C916 C918 1.395 . S
C916 C919 1.403 . S
H917 C923 0.930 . S
C918 H904 0.930 . S
C918 C916 1.395 . S
C918 C921 1.403 . S
C919 C916 1.403 . S
C919 C920 1.524 . S
C919 C923 1.400 . S
C920 H905 0.960 . S
C920 H906 0.960 . S
C920 H907 0.960 . S
C920 C919 1.524 . S
C921 C918 1.403 . S
C921 C922 1.392 . S
C921 C925 1.495 . S
C922 C921 1.392 . S
C922 C923 1.385 . S
C922 C924 1.478 . S
C923 H917 0.930 . S
C923 C919 1.400 . S
C923 C922 1.385 . S
C924 C922 1.478 . S
C924 C926 1.381 1_565 S
C924 C930 1.383 . S
C925 C921 1.495 . S
C925 H931 0.960 . S
C925 H932 0.961 . S
C925 H933 0.960 1_565 S
C926 C924 1.381 1_545 S
C926 C927 1.394 . S
C926 H934 0.930 . S
C927 C926 1.394 . S
C927 C928 1.383 . S
C927 H935 0.929 . S
C928 C927 1.383 . S
C928 C929 1.377 1_545 S
C929 H913 0.930 . S
C929 C928 1.377 1_565 S
C929 C930 1.379 . S
C930 H914 0.931 . S
C930 C924 1.383 . S
C930 C929 1.379 . S
H931 C925 0.960 . S
H932 C925 0.961 . S
H933 C925 0.960 1_545 S
H934 C926 0.930 . S
H935 C927 0.929 . S
H936 C944 0.929 . S
H937 C946 0.930 . S
H938 C948 0.930 . S
H939 C951 0.929 . S
H940 C954 0.930 . S
H941 C956 0.960 1_554 S
H942 C956 0.960 1_554 S
H943 C956 0.960 . S
C944 H936 0.929 . S
C944 C945 1.377 . S
C944 C946 1.384 . S
C945 C944 1.377 . S
C945 C951 1.390 . S
C946 H937 0.930 . S
C946 C944 1.384 . S
C946 C947 1.372 . S
C947 C946 1.372 . S
C947 C948 1.400 . S
C947 C952 1.490 . S
C948 H938 0.930 . S
C948 C947 1.400 . S
C948 C951 1.386 . S
H949 C965 0.930 . S
H950 C966 0.931 . S
C951 H939 0.929 . S
C951 C945 1.390 . S
C951 C948 1.386 . S
C952 C947 1.490 . S
C952 C954 1.395 . S
C952 C955 1.403 . S
H953 C959 0.930 . S
C954 H940 0.930 . S
C954 C952 1.395 . S
C954 C957 1.403 . S
C955 C952 1.403 . S
C955 C956 1.524 . S
C955 C959 1.400 . S
C956 H941 0.960 1_556 S
C956 H942 0.960 1_556 S
C956 H943 0.960 . S
C956 C955 1.524 . S
C957 C954 1.403 . S
C957 C958 1.392 . S
C957 C961 1.495 . S
C958 C957 1.392 . S
C958 C959 1.385 . S
C958 C960 1.478 . S
C959 H953 0.930 . S
C959 C955 1.400 . S
C959 C958 1.385 . S
C960 C958 1.478 . S
C960 C962 1.381 . S
C960 C966 1.383 . S
C961 C957 1.495 . S
C961 H967 0.959 . S
C961 H968 0.961 . S
C961 H969 0.960 . S
C962 C960 1.381 . S
C962 C963 1.394 . S
C962 H970 0.930 . S
C963 C962 1.394 . S
C963 C964 1.383 . S
C963 H971 0.929 . S
C964 C963 1.383 . S
C964 C965 1.377 . S
C965 H949 0.930 . S
C965 C964 1.377 . S
C965 C966 1.379 . S
C966 H950 0.931 . S
C966 C960 1.383 . S
C966 C965 1.379 . S
H967 C961 0.959 . S
H968 C961 0.961 . S
H969 C961 0.960 . S
H970 C962 0.930 . S
H971 C963 0.929 . S
H972 C980 0.929 . S
H973 C982 0.930 . S
H974 C984 0.930 . S
H975 C987 0.929 . S
H976 C990 0.930 . S
H977 C992 0.960 . S
H978 C992 0.960 1_554 S
H979 C992 0.960 . S
C980 H972 0.929 . S
C980 C981 1.377 . S
C980 C982 1.384 . S
C981 C980 1.377 . S
C981 C987 1.390 . S
C982 H973 0.930 . S
C982 C980 1.384 . S
C982 C983 1.372 . S
C983 C982 1.372 . S
C983 C984 1.400 . S
C983 C988 1.490 . S
C984 H974 0.930 . S
C984 C983 1.400 . S
C984 C987 1.386 . S
H985 C1001 0.930 . S
H986 C1002 0.931 . S
C987 H975 0.929 . S
C987 C981 1.390 . S
C987 C984 1.386 . S
C988 C983 1.490 . S
C988 C990 1.395 . S
C988 C991 1.403 . S
H989 C995 0.930 . S
C990 H976 0.930 . S
C990 C988 1.395 . S
C990 C993 1.403 . S
C991 C988 1.403 . S
C991 C992 1.524 . S
C991 C995 1.400 . S
C992 H977 0.960 . S
C992 H978 0.960 1_556 S
C992 H979 0.960 . S
C992 C991 1.524 . S
C993 C990 1.403 . S
C993 C994 1.392 . S
C993 C997 1.495 . S
C994 C993 1.392 . S
C994 C995 1.385 . S
C994 C996 1.478 . S
C995 H989 0.930 . S
C995 C991 1.400 . S
C995 C994 1.385 . S
C996 C994 1.478 . S
C996 C998 1.381 . S
C996 C1002 1.383 . S
C997 C993 1.495 . S
C997 H1003 0.959 . S
C997 H1004 0.961 . S
C997 H1005 0.960 . S
C998 C996 1.381 . S
C998 C999 1.394 . S
C998 H1006 0.930 . S
C999 C998 1.394 . S
C999 C1000 1.383 . S
C999 H1007 0.929 . S
C1000 C999 1.383 . S
C1000 C1001 1.377 . S
C1001 H985 0.930 . S
C1001 C1000 1.377 . S
C1001 C1002 1.379 . S
C1002 H986 0.931 . S
C1002 C996 1.383 . S
C1002 C1001 1.379 . S
H1003 C997 0.959 . S
H1004 C997 0.961 . S
H1005 C997 0.960 . S
H1006 C998 0.930 . S
H1007 C999 0.929 . S
H1008 C1016 0.929 . S
H1009 C1018 0.930 . S
H1010 C1020 0.930 . S
H1011 C1023 0.929 . S
H1012 C1026 0.922 1_655 S
H1013 C1028 0.960 1_556 S
H1014 C1028 0.960 . S
H1015 C1028 0.960 . S
C1016 H1008 0.929 . S
C1016 C1017 1.377 . S
C1016 C1018 1.384 . S
C1017 C1016 1.377 . S
C1017 C1023 1.390 1_455 S
C1018 H1009 0.930 . S
C1018 C1016 1.384 . S
C1018 C1019 1.372 . S
C1019 C1018 1.372 . S
C1019 C1020 1.400 1_455 S
C1019 C1024 1.490 . S
C1020 H1010 0.930 . S
C1020 C1019 1.400 1_655 S
C1020 C1023 1.386 . S
H1021 C1037 0.930 . S
H1022 C1038 0.931 . S
C1023 H1011 0.929 . S
C1023 C1017 1.390 1_655 S
C1023 C1020 1.386 . S
C1024 C1019 1.490 . S
C1024 C1026 1.404 . S
C1024 C1027 1.403 . S
H1025 C1031 0.930 1_556 S
C1026 H1012 0.922 1_455 S
C1026 C1024 1.404 . S
C1026 C1029 1.404 . S
C1027 C1024 1.403 . S
C1027 C1028 1.524 . S
C1027 C1031 1.400 . S
C1028 H1013 0.960 1_554 S
C1028 H1014 0.960 . S
C1028 H1015 0.960 . S
C1028 C1027 1.524 . S
C1029 C1026 1.404 . S
C1029 C1030 1.409 . S
C1029 C1033 1.479 1_455 S
C1030 C1029 1.409 . S
C1030 C1031 1.385 . S
C1030 C1032 1.490 . S
C1031 H1025 0.930 1_554 S
C1031 C1027 1.400 . S
C1031 C1030 1.385 . S
C1032 C1030 1.490 . S
C1032 C1034 1.383 . S
C1032 C1038 1.368 1_454 S
C1033 C1029 1.479 1_655 S
C1033 H1039 0.959 . S
C1033 H1040 0.961 . S
C1033 H1041 0.960 1_655 S
C1034 C1032 1.383 . S
C1034 C1035 1.394 1_554 S
C1034 H1042 0.930 . S
C1035 C1034 1.394 1_556 S
C1035 C1036 1.383 . S
C1035 H1043 0.929 . S
C1036 C1035 1.383 . S
C1036 C1037 1.377 1_455 S
C1037 H1021 0.930 . S
C1037 C1036 1.377 1_655 S
C1037 C1038 1.379 . S
C1038 H1022 0.931 . S
C1038 C1032 1.368 1_656 S
C1038 C1037 1.379 . S
H1039 C1033 0.959 . S
H1040 C1033 0.961 . S
H1041 C1033 0.960 1_455 S
H1042 C1034 0.930 . S
H1043 C1035 0.929 . S
H1044 C1052 0.929 . S
H1045 C1054 0.930 . S
H1046 C1056 0.930 . S
H1047 C1059 0.929 . S
H1048 C1062 0.930 . S
H1049 C1064 0.960 . S
H1050 C1064 0.960 . S
H1051 C1064 0.960 . S
C1052 H1044 0.929 . S
C1052 C1053 1.377 . S
C1052 C1054 1.384 . S
C1053 C1052 1.377 . S
C1053 C1059 1.390 . S
C1054 H1045 0.930 . S
C1054 C1052 1.384 . S
C1054 C1055 1.372 . S
C1055 C1054 1.372 . S
C1055 C1056 1.400 . S
C1055 C1060 1.490 . S
C1056 H1046 0.930 . S
C1056 C1055 1.400 . S
C1056 C1059 1.386 . S
H1057 C1073 0.930 . S
H1058 C1074 0.931 . S
C1059 H1047 0.929 . S
C1059 C1053 1.390 . S
C1059 C1056 1.386 . S
C1060 C1055 1.490 . S
C1060 C1062 1.395 . S
C1060 C1063 1.403 . S
H1061 C1067 0.930 . S
C1062 H1048 0.930 . S
C1062 C1060 1.395 . S
C1062 C1065 1.403 . S
C1063 C1060 1.403 . S
C1063 C1064 1.524 . S
C1063 C1067 1.400 . S
C1064 H1049 0.960 . S
C1064 H1050 0.960 . S
C1064 H1051 0.960 . S
C1064 C1063 1.524 . S
C1065 C1062 1.403 . S
C1065 C1066 1.392 . S
C1065 C1069 1.495 1_554 S
C1066 C1065 1.392 . S
C1066 C1067 1.385 . S
C1066 C1068 1.476 . S
C1067 H1061 0.930 . S
C1067 C1063 1.400 . S
C1067 C1066 1.385 . S
C1068 C1066 1.476 . S
C1068 C1070 1.381 . S
C1068 C1074 1.384 1_554 S
C1069 C1065 1.495 1_556 S
C1069 H1075 0.959 . S
C1069 H1076 0.961 . S
C1069 H1077 0.960 . S
C1070 C1068 1.381 . S
C1070 C1071 1.394 1_554 S
C1070 H1078 0.930 . S
C1071 C1070 1.394 1_556 S
C1071 C1072 1.383 . S
C1071 H1079 0.929 . S
C1072 C1071 1.383 . S
C1072 C1073 1.377 . S
C1073 H1057 0.930 . S
C1073 C1072 1.377 . S
C1073 C1074 1.379 . S
C1074 H1058 0.931 . S
C1074 C1068 1.384 1_556 S
C1074 C1073 1.379 . S
H1075 C1069 0.959 . S
H1076 C1069 0.961 . S
H1077 C1069 0.960 . S
H1078 C1070 0.930 . S
H1079 C1071 0.929 . S
H1080 C1088 0.929 . S
H1081 C1090 0.930 . S
H1082 C1092 0.930 . S
H1083 C1095 0.929 . S
H1084 C1098 0.930 . S
H1085 C1100 0.960 . S
H1086 C1100 0.960 . S
H1087 C1100 0.960 . S
C1088 H1080 0.929 . S
C1088 C1089 1.377 . S
C1088 C1090 1.384 . S
C1089 C1088 1.377 . S
C1089 C1095 1.390 . S
C1090 H1081 0.930 . S
C1090 C1088 1.384 . S
C1090 C1091 1.372 . S
C1091 C1090 1.372 . S
C1091 C1092 1.400 . S
C1091 C1096 1.490 . S
C1092 H1082 0.930 . S
C1092 C1091 1.400 . S
C1092 C1095 1.386 . S
H1093 C1109 0.930 . S
H1094 C1110 0.931 . S
C1095 H1083 0.929 . S
C1095 C1089 1.390 . S
C1095 C1092 1.386 . S
C1096 C1091 1.490 . S
C1096 C1098 1.395 . S
C1096 C1099 1.403 . S
H1097 C1103 0.930 . S
C1098 H1084 0.930 . S
C1098 C1096 1.395 . S
C1098 C1101 1.403 1_554 S
C1099 C1096 1.403 . S
C1099 C1100 1.524 . S
C1099 C1103 1.400 . S
C1100 H1085 0.960 . S
C1100 H1086 0.960 . S
C1100 H1087 0.960 . S
C1100 C1099 1.524 . S
C1101 C1098 1.403 1_556 S
C1101 C1102 1.392 . S
C1101 C1105 1.495 . S
C1102 C1101 1.392 . S
C1102 C1103 1.385 1_556 S
C1102 C1104 1.478 . S
C1103 H1097 0.930 . S
C1103 C1099 1.400 . S
C1103 C1102 1.385 1_554 S
C1104 C1102 1.478 . S
C1104 C1106 1.381 . S
C1104 C1110 1.383 . S
C1105 C1101 1.495 . S
C1105 H1111 0.959 . S
C1105 H1112 0.961 . S
C1105 H1113 0.960 . S
C1106 C1104 1.381 . S
C1106 C1107 1.394 . S
C1106 H1114 0.930 . S
C1107 C1106 1.394 . S
C1107 C1108 1.383 . S
C1107 H1115 0.929 . S
C1108 C1107 1.383 . S
C1108 C1109 1.377 . S
C1109 H1093 0.930 . S
C1109 C1108 1.377 . S
C1109 C1110 1.379 . S
C1110 H1094 0.931 . S
C1110 C1104 1.383 . S
C1110 C1109 1.379 . S
H1111 C1105 0.959 . S
H1112 C1105 0.961 . S
H1113 C1105 0.960 . S
H1114 C1106 0.930 . S
H1115 C1107 0.929 . S
H1116 C1124 0.929 . S
H1117 C1126 0.930 . S
H1118 C1128 0.930 . S
H1119 C1131 0.929 . S
H1120 C1134 0.930 . S
H1121 C1136 0.960 . S
H1122 C1136 0.960 . S
H1123 C1136 0.960 . S
C1124 H1116 0.929 . S
C1124 C1125 1.377 . S
C1124 C1126 1.384 . S
C1125 C1124 1.377 . S
C1125 C1131 1.390 . S
C1126 H1117 0.930 . S
C1126 C1124 1.384 . S
C1126 C1127 1.372 . S
C1127 C1126 1.372 . S
C1127 C1128 1.400 . S
C1127 C1132 1.490 . S
C1128 H1118 0.930 . S
C1128 C1127 1.400 . S
C1128 C1131 1.386 . S
H1129 C1145 0.930 . S
H1130 C1146 0.931 . S
C1131 H1119 0.929 . S
C1131 C1125 1.390 . S
C1131 C1128 1.386 . S
C1132 C1127 1.490 . S
C1132 C1134 1.395 . S
C1132 C1135 1.403 . S
H1133 C1139 0.930 . S
C1134 H1120 0.930 . S
C1134 C1132 1.395 . S
C1134 C1137 1.403 1_554 S
C1135 C1132 1.403 . S
C1135 C1136 1.524 . S
C1135 C1139 1.400 . S
C1136 H1121 0.960 . S
C1136 H1122 0.960 . S
C1136 H1123 0.960 . S
C1136 C1135 1.524 . S
C1137 C1134 1.403 1_556 S
C1137 C1138 1.392 . S
C1137 C1141 1.495 . S
C1138 C1137 1.392 . S
C1138 C1139 1.385 1_556 S
C1138 C1140 1.478 . S
C1139 H1133 0.930 . S
C1139 C1135 1.400 . S
C1139 C1138 1.385 1_554 S
C1140 C1138 1.478 . S
C1140 C1142 1.381 . S
C1140 C1146 1.383 . S
C1141 C1137 1.495 . S
C1141 H1147 0.959 . S
C1141 H1148 0.961 . S
C1141 H1149 0.960 . S
C1142 C1140 1.381 . S
C1142 C1143 1.394 . S
C1142 H1150 0.930 . S
C1143 C1142 1.394 . S
C1143 C1144 1.383 . S
C1143 H1151 0.929 . S
C1144 C1143 1.383 . S
C1144 C1145 1.377 . S
C1145 H1129 0.930 . S
C1145 C1144 1.377 . S
C1145 C1146 1.379 . S
C1146 H1130 0.931 . S
C1146 C1140 1.383 . S
C1146 C1145 1.379 . S
H1147 C1141 0.959 . S
H1148 C1141 0.961 . S
H1149 C1141 0.960 . S
H1150 C1142 0.930 . S
H1151 C1143 0.929 . S
H1152 C1160 0.929 . S
H1153 C1162 0.930 . S
H1154 C1164 0.930 . S
H1155 C1167 0.929 . S
H1156 C1170 0.938 . S
H1157 C1172 0.960 . S
H1158 C1172 0.960 1_455 S
H1159 C1172 0.960 . S
C1160 H1152 0.929 . S
C1160 C1161 1.352 1_455 S
C1160 C1162 1.384 . S
C1161 C1160 1.352 1_655 S
C1161 C1167 1.415 . S
C1162 H1153 0.930 . S
C1162 C1160 1.384 . S
C1162 C1163 1.372 1_455 S
C1163 C1162 1.372 1_655 S
C1163 C1164 1.400 . S
C1163 C1168 1.490 . S
C1164 H1154 0.930 . S
C1164 C1163 1.400 . S
C1164 C1167 1.386 . S
H1165 C1181 0.930 . S
H1166 C1182 0.931 . S
C1167 H1155 0.929 . S
C1167 C1161 1.415 . S
C1167 C1164 1.386 . S
C1168 C1163 1.490 . S
C1168 C1170 1.395 . S
C1168 C1171 1.403 . S
H1169 C1175 0.930 . S
C1170 H1156 0.938 . S
C1170 C1168 1.395 . S
C1170 C1173 1.403 . S
C1171 C1168 1.403 . S
C1171 C1172 1.524 . S
C1171 C1175 1.400 . S
C1172 H1157 0.960 . S
C1172 H1158 0.960 1_655 S
C1172 H1159 0.960 . S
C1172 C1171 1.524 . S
C1173 C1170 1.403 . S
C1173 C1174 1.392 . S
C1173 C1177 1.495 . S
C1174 C1173 1.392 . S
C1174 C1175 1.385 . S
C1174 C1176 1.478 . S
C1175 H1169 0.930 . S
C1175 C1171 1.400 . S
C1175 C1174 1.385 . S
C1176 C1174 1.478 . S
C1176 C1178 1.381 1_655 S
C1176 C1182 1.383 . S
C1177 C1173 1.495 . S
C1177 H1183 0.959 . S
C1177 H1184 0.961 . S
C1177 H1185 0.960 1_655 S
C1178 C1176 1.381 1_455 S
C1178 C1179 1.394 . S
C1178 H1186 0.930 . S
C1179 C1178 1.394 . S
C1179 C1180 1.383 1_455 S
C1179 H1187 0.929 . S
C1180 C1179 1.383 1_655 S
C1180 C1181 1.377 . S
C1181 H1165 0.930 . S
C1181 C1180 1.377 . S
C1181 C1182 1.379 . S
C1182 H1166 0.931 . S
C1182 C1176 1.383 . S
C1182 C1181 1.379 . S
H1183 C1177 0.959 . S
H1184 C1177 0.961 . S
H1185 C1177 0.960 1_455 S
H1186 C1178 0.930 . S
H1187 C1179 0.929 . S
H1188 C1196 0.929 . S
H1189 C1198 0.930 . S
H1190 C1200 0.930 . S
H1191 C1203 0.929 . S
H1192 C1206 0.930 . S
H1193 C1208 0.960 . S
H1194 C1208 0.960 . S
H1195 C1208 0.960 . S
C1196 H1188 0.929 . S
C1196 C1197 1.377 . S
C1196 C1198 1.384 . S
C1197 C1196 1.377 . S
C1197 C1203 1.390 . S
C1198 H1189 0.930 . S
C1198 C1196 1.384 . S
C1198 C1199 1.372 . S
C1199 C1198 1.372 . S
C1199 C1200 1.400 . S
C1199 C1204 1.490 . S
C1200 H1190 0.930 . S
C1200 C1199 1.400 . S
C1200 C1203 1.386 . S
H1201 C1217 0.930 . S
H1202 C1218 0.931 . S
C1203 H1191 0.929 . S
C1203 C1197 1.390 . S
C1203 C1200 1.386 . S
C1204 C1199 1.490 . S
C1204 C1206 1.395 . S
C1204 C1207 1.403 . S
H1205 C1211 0.930 . S
C1206 H1192 0.930 . S
C1206 C1204 1.395 . S
C1206 C1209 1.403 . S
C1207 C1204 1.403 . S
C1207 C1208 1.524 . S
C1207 C1211 1.400 . S
C1208 H1193 0.960 . S
C1208 H1194 0.960 . S
C1208 H1195 0.960 . S
C1208 C1207 1.524 . S
C1209 C1206 1.403 . S
C1209 C1210 1.392 . S
C1209 C1213 1.495 . S
C1210 C1209 1.392 . S
C1210 C1211 1.385 . S
C1210 C1212 1.478 . S
C1211 H1205 0.930 . S
C1211 C1207 1.400 . S
C1211 C1210 1.385 . S
C1212 C1210 1.478 . S
C1212 C1214 1.381 . S
C1212 C1218 1.383 . S
C1213 C1209 1.495 . S
C1213 H1219 0.959 . S
C1213 H1220 0.961 . S
C1213 H1221 0.960 . S
C1214 C1212 1.381 . S
C1214 C1215 1.394 . S
C1214 H1222 0.930 . S
C1215 C1214 1.394 . S
C1215 C1216 1.383 . S
C1215 H1223 0.936 . S
C1216 C1215 1.383 . S
C1216 C1217 1.377 . S
C1217 H1201 0.930 . S
C1217 C1216 1.377 . S
C1217 C1218 1.379 . S
C1218 H1202 0.931 . S
C1218 C1212 1.383 . S
C1218 C1217 1.379 . S
H1219 C1213 0.959 . S
H1220 C1213 0.961 . S
H1221 C1213 0.960 . S
H1222 C1214 0.930 . S
H1223 C1215 0.936 . S
H1224 C1232 0.929 . S
H1225 C1234 0.930 . S
H1226 C1236 0.930 . S
H1227 C1239 0.929 . S
H1228 C1242 0.930 . S
H1229 C1244 0.960 . S
H1230 C1244 0.960 . S
H1231 C1244 0.960 . S
C1232 H1224 0.929 . S
C1232 C1233 1.377 . S
C1232 C1234 1.384 . S
C1233 C1232 1.377 . S
C1233 C1239 1.390 . S
C1234 H1225 0.930 . S
C1234 C1232 1.384 . S
C1234 C1235 1.372 . S
C1235 C1234 1.372 . S
C1235 C1236 1.400 . S
C1235 C1240 1.490 . S
C1236 H1226 0.930 . S
C1236 C1235 1.400 . S
C1236 C1239 1.386 . S
H1237 C1253 0.930 . S
H1238 C1254 0.931 . S
C1239 H1227 0.929 . S
C1239 C1233 1.390 . S
C1239 C1236 1.386 . S
C1240 C1235 1.490 . S
C1240 C1242 1.395 . S
C1240 C1243 1.403 . S
H1241 C1247 0.930 . S
C1242 H1228 0.930 . S
C1242 C1240 1.395 . S
C1242 C1245 1.403 . S
C1243 C1240 1.403 . S
C1243 C1244 1.524 . S
C1243 C1247 1.400 . S
C1244 H1229 0.960 . S
C1244 H1230 0.960 . S
C1244 H1231 0.960 . S
C1244 C1243 1.524 . S
C1245 C1242 1.403 . S
C1245 C1246 1.392 . S
C1245 C1249 1.495 . S
C1246 C1245 1.392 . S
C1246 C1247 1.385 . S
C1246 C1248 1.478 . S
C1247 H1241 0.930 . S
C1247 C1243 1.400 . S
C1247 C1246 1.385 . S
C1248 C1246 1.478 . S
C1248 C1250 1.381 . S
C1248 C1254 1.383 . S
C1249 C1245 1.495 . S
C1249 H1255 0.959 . S
C1249 H1256 0.961 . S
C1249 H1257 0.960 . S
C1250 C1248 1.381 . S
C1250 C1251 1.394 . S
C1250 H1258 0.930 . S
C1251 C1250 1.394 . S
C1251 C1252 1.383 . S
C1251 H1259 0.929 . S
C1252 C1251 1.383 . S
C1252 C1253 1.377 . S
C1253 H1237 0.930 . S
C1253 C1252 1.377 . S
C1253 C1254 1.379 . S
C1254 H1238 0.931 . S
C1254 C1248 1.383 . S
C1254 C1253 1.379 . S
H1255 C1249 0.959 . S
H1256 C1249 0.961 . S
H1257 C1249 0.960 . S
H1258 C1250 0.930 . S
H1259 C1251 0.929 . S
H1260 C1268 0.929 . S
H1261 C1270 0.930 . S
H1262 C1272 0.930 . S
H1263 C1275 0.929 . S
H1264 C1278 0.930 . S
H1265 C1280 0.960 . S
H1266 C1280 0.960 . S
H1267 C1280 0.960 . S
C1268 H1260 0.929 . S
C1268 C1269 1.377 . S
C1268 C1270 1.384 . S
C1269 C1268 1.377 . S
C1269 C1275 1.390 . S
C1270 H1261 0.930 . S
C1270 C1268 1.384 . S
C1270 C1271 1.372 . S
C1271 C1270 1.372 . S
C1271 C1272 1.400 . S
C1271 C1276 1.490 . S
C1272 H1262 0.930 . S
C1272 C1271 1.400 . S
C1272 C1275 1.386 . S
H1273 C1289 0.930 . S
H1274 C1290 0.931 . S
C1275 H1263 0.929 . S
C1275 C1269 1.390 . S
C1275 C1272 1.386 . S
C1276 C1271 1.490 . S
C1276 C1278 1.395 . S
C1276 C1279 1.403 . S
H1277 C1283 0.930 . S
C1278 H1264 0.930 . S
C1278 C1276 1.395 . S
C1278 C1281 1.403 . S
C1279 C1276 1.403 . S
C1279 C1280 1.524 . S
C1279 C1283 1.400 . S
C1280 H1265 0.960 . S
C1280 H1266 0.960 . S
C1280 H1267 0.960 . S
C1280 C1279 1.524 . S
C1281 C1278 1.403 . S
C1281 C1282 1.392 . S
C1281 C1285 1.495 . S
C1282 C1281 1.392 . S
C1282 C1283 1.385 . S
C1282 C1284 1.478 . S
C1283 H1277 0.930 . S
C1283 C1279 1.400 . S
C1283 C1282 1.385 . S
C1284 C1282 1.478 . S
C1284 C1286 1.381 . S
C1284 C1290 1.383 . S
C1285 C1281 1.495 . S
C1285 H1291 0.959 . S
C1285 H1292 0.961 . S
C1285 H1293 0.960 . S
C1286 C1284 1.381 . S
C1286 C1287 1.394 . S
C1286 H1294 0.930 . S
C1287 C1286 1.394 . S
C1287 C1288 1.383 . S
C1287 H1295 0.929 . S
C1288 C1287 1.383 . S
C1288 C1289 1.377 . S
C1289 H1273 0.930 . S
C1289 C1288 1.377 . S
C1289 C1290 1.379 . S
C1290 H1274 0.931 . S
C1290 C1284 1.383 . S
C1290 C1289 1.379 . S
H1291 C1285 0.959 . S
H1292 C1285 0.961 . S
H1293 C1285 0.960 . S
H1294 C1286 0.930 . S
H1295 C1287 0.929 . S
C441 C255 1.750 . S
C460 C322 1.768 . S
C496 C352 1.688 . S
C477 C294 1.663 . S
C532 N386 1.717 . S
C513 C177 1.694 . S
C568 N416 1.242 . S
C549 C216 1.312 . S
C604 C313 1.796 1_565 S
C585 C99 1.773 . S
C621 C138 1.667 . S
C640 C343 1.678 . S
C657 C21 1.709 . S
C676 N378 1.695 . S
C693 C60 1.311 1_455 S
C712 N408 1.298 . S
C748 C328 0.756 . S
C729 C196 0.745 1_455 S
C784 C358 0.259 . S
C765 C235 0.449 . S
C820 C399 0.266 . S
C801 C289 0.274 . S
C837 C157 0.467 . S
C856 C429 0.408 . S
C873 C40 0.747 . S
C892 C339 0.712 . S
C928 C369 0.348 . S
C909 C79 0.430 . S
C964 C388 0.170 . S
C945 C133 0.260 . S
C981 C1 0.435 . S
C1000 C418 0.388 . S
C1017 C211 1.603 . S
C1036 N318 1.624 . S
C1053 C250 1.739 . S
C1072 N348 1.774 . S
C1108 C373 1.804 . S
C1089 C274 1.746 . S
C1144 C403 2.095 . S
C1125 C172 2.001 . S
C1161 C55 1.606 1_655 S
C1180 N326 1.634 . S
C1216 N356 1.787 . S
C1197 C94 1.741 . S
C1252 C382 1.811 . S
C1233 C118 1.749 . S
C1269 C16 2.006 . S
C1288 C412 2.099 . S
