# Generated by pormake.
# Topology zzz, (3,6)-cn, num edge types: 1
# Building blocks:
#     Node 0, Type 0, BuildingBlock: BETDIP_clean_linker_0, # of connection points: 3
#     Node 1, Type 0, BuildingBlock: BETDIP_clean_linker_0, # of connection points: 3
#     Node 2, Type 0, BuildingBlock: BETDIP_clean_linker_0, # of connection points: 3
#     Node 3, Type 0, BuildingBlock: BETDIP_clean_linker_0, # of connection points: 3
#     Node 4, Type 0, BuildingBlock: BETDIP_clean_linker_0, # of connection points: 3
#     Node 5, Type 0, BuildingBlock: BETDIP_clean_linker_0, # of connection points: 3
#     Node 6, Type 0, BuildingBlock: BETDIP_clean_linker_0, # of connection points: 3
#     Node 7, Type 0, BuildingBlock: BETDIP_clean_linker_0, # of connection points: 3
#     Node 8, Type 1, BuildingBlock: PAMTUU_clean_sbu_0, # of connection points: 6
#     Node 9, Type 1, BuildingBlock: PAMTUU_clean_sbu_0, # of connection points: 6
#     Node 10, Type 1, BuildingBlock: PAMTUU_clean_sbu_0, # of connection points: 6
#     Node 11, Type 1, BuildingBlock: PAMTUU_clean_sbu_0, # of connection points: 6
#     Edge 12, Type (0, 1), BuildingBlock: CIFDUS_clean_linker_0, # of connection points: 2
#     Edge 13, Type (0, 1), BuildingBlock: CIFDUS_clean_linker_0, # of connection points: 2
#     Edge 14, Type (0, 1), BuildingBlock: CIFDUS_clean_linker_0, # of connection points: 2
#     Edge 15, Type (0, 1), BuildingBlock: CIFDUS_clean_linker_0, # of connection points: 2
#     Edge 16, Type (0, 1), BuildingBlock: CIFDUS_clean_linker_0, # of connection points: 2
#     Edge 17, Type (0, 1), BuildingBlock: CIFDUS_clean_linker_0, # of connection points: 2
#     Edge 18, Type (0, 1), BuildingBlock: CIFDUS_clean_linker_0, # of connection points: 2
#     Edge 19, Type (0, 1), BuildingBlock: CIFDUS_clean_linker_0, # of connection points: 2
#     Edge 20, Type (0, 1), BuildingBlock: CIFDUS_clean_linker_0, # of connection points: 2
#     Edge 21, Type (0, 1), BuildingBlock: CIFDUS_clean_linker_0, # of connection points: 2
#     Edge 22, Type (0, 1), BuildingBlock: CIFDUS_clean_linker_0, # of connection points: 2
#     Edge 23, Type (0, 1), BuildingBlock: CIFDUS_clean_linker_0, # of connection points: 2
#     Edge 24, Type (0, 1), BuildingBlock: CIFDUS_clean_linker_0, # of connection points: 2
#     Edge 25, Type (0, 1), BuildingBlock: CIFDUS_clean_linker_0, # of connection points: 2
#     Edge 26, Type (0, 1), BuildingBlock: CIFDUS_clean_linker_0, # of connection points: 2
#     Edge 27, Type (0, 1), BuildingBlock: CIFDUS_clean_linker_0, # of connection points: 2
#     Edge 28, Type (0, 1), BuildingBlock: CIFDUS_clean_linker_0, # of connection points: 2
#     Edge 29, Type (0, 1), BuildingBlock: CIFDUS_clean_linker_0, # of connection points: 2
#     Edge 30, Type (0, 1), BuildingBlock: CIFDUS_clean_linker_0, # of connection points: 2
#     Edge 31, Type (0, 1), BuildingBlock: CIFDUS_clean_linker_0, # of connection points: 2
#     Edge 32, Type (0, 1), BuildingBlock: CIFDUS_clean_linker_0, # of connection points: 2
#     Edge 33, Type (0, 1), BuildingBlock: CIFDUS_clean_linker_0, # of connection points: 2
#     Edge 34, Type (0, 1), BuildingBlock: CIFDUS_clean_linker_0, # of connection points: 2
#     Edge 35, Type (0, 1), BuildingBlock: CIFDUS_clean_linker_0, # of connection points: 2
# Relax obj value: 0.238
# Max RMSD: 0.235
# Mean RMSD: 0.117
data_MOF--net-zzz--node1-PAMTUU_clean_sbu_0--node2-BETDIP_clean_linker_0--edge1-CIFDUS_clean_linker_0
_symmetry_space_group_name_H-M    P1
_symmetry_Int_Tables_number       1
_symmetry_cell_setting            triclinic
loop_
_symmetry_equiv_pos_as_xyz
'x, y, z'
_cell_length_a     43.340703
_cell_length_b     48.074704
_cell_length_c     13.718153
_cell_angle_alpha  101.83299
_cell_angle_beta   89.587975
_cell_angle_gamma 90.736746
loop_
_atom_site_label
_atom_site_type_symbol
_atom_site_fract_x
_atom_site_fract_y
_atom_site_fract_z
_atom_type_partial_charge
H0 H 0.77772 0.53903 0.58151 0.0
H1 H 0.75276 0.47397 0.32761 0.0
H2 H 0.83551 0.46632 0.49006 0.0
H3 H 0.74881 0.52974 0.28989 0.0
C4 C 0.72915 0.52821 0.3383 0.0
C5 C 0.78197 0.51855 0.53363 0.0
C6 C 0.80863 0.50312 0.5478 0.0
C7 C 0.76148 0.5078 0.45427 0.0
C8 C 0.76798 0.48184 0.38977 0.0
C9 C 0.79446 0.46659 0.40233 0.0
C10 C 0.81407 0.47711 0.48286 0.0
N11 N 0.73502 0.52329 0.43572 0.0
H12 H 1.00689 0.77354 0.49485 0.0
H13 H 0.05861 0.75676 0.21926 0.0
H14 H 0.07132 0.83573 0.42705 0.0
H15 H 1.00111 0.74095 0.18271 0.0
C16 C 1.00609 0.72505 0.22638 0.0
C17 C 1.02436 0.7798 0.44644 0.0
C18 C 1.03897 0.80665 0.47284 0.0
C19 C 1.03161 0.76153 0.35494 0.0
C20 C 0.05334 0.77041 0.29046 0.0
C21 C 0.06809 0.79693 0.31692 0.0
C22 C 0.06108 0.81459 0.40855 0.0
N23 N 1.01655 0.73462 0.32593 0.0
H24 H 0.81821 0.03225 0.58822 0.0
H25 H 0.83869 0.96437 0.33936 0.0
H26 H 0.75118 0.96637 0.48893 0.0
H27 H 0.88976 0.97309 0.46446 0.0
C28 C 0.88969 0.99261 0.43599 0.0
C29 C 0.81204 0.01204 0.54103 0.0
C30 C 0.78261 0.99966 0.55098 0.0
C31 C 0.83338 0.99806 0.46879 0.0
C32 C 0.82386 0.9733 0.40158 0.0
C33 C 0.79385 0.96235 0.40577 0.0
C34 C 0.77466 0.97428 0.48587 0.0
N35 N 0.86306 0.01015 0.45551 0.0
H36 H 0.55067 0.81453 0.38929 0.0
H37 H 0.52582 0.76808 0.09586 0.0
H38 H 0.51316 0.73025 0.35061 0.0
H39 H 0.54128 0.8064 0.04378 0.0
C40 C 0.54195 0.82477 0.10466 0.0
C41 C 0.54071 0.79587 0.34147 0.0
C42 C 0.53292 0.77203 0.38116 0.0
C43 C 0.53619 0.79552 0.23952 0.0
C44 C 0.52689 0.76973 0.17543 0.0
C45 C 0.52007 0.74547 0.21506 0.0
C46 C 0.51997 0.74826 0.3187 0.0
N47 N 0.5419 0.82126 0.20535 0.0
H48 H 0.28898 0.52932 0.17046 0.0
H49 H 0.31273 0.46256 0.32228 0.0
H50 H 0.22797 0.45802 0.1596 0.0
H51 H 0.31367 0.51386 0.44749 0.0
C52 C 0.33408 0.51623 0.40309 0.0
C53 C 0.28415 0.50863 0.18706 0.0
C54 C 0.25688 0.4935 0.1502 0.0
C55 C 0.30438 0.49732 0.24975 0.0
C56 C 0.29734 0.4709 0.2737 0.0
C57 C 0.26937 0.45679 0.24475 0.0
C58 C 0.25029 0.46777 0.17947 0.0
N59 N 0.33008 0.51333 0.29791 0.0
H60 H 1.02383 0.26231 0.17021 0.0
H61 H 0.96345 0.26695 0.42467 0.0
H62 H 0.98484 0.18614 0.23945 0.0
H63 H 0.9499 0.30911 0.35936 0.0
C64 C 0.97363 0.31676 0.36946 0.0
C65 C 1.00892 0.25202 0.21616 0.0
C66 C 1.00511 0.22226 0.19388 0.0
C67 C 0.99328 0.26843 0.29849 0.0
C68 C 0.97462 0.25464 0.35928 0.0
C69 C 0.97121 0.22496 0.33835 0.0
C70 C 0.98636 0.20917 0.25499 0.0
N71 N 0.99756 0.29853 0.32336 0.0
H72 H 0.30851 0.03567 0.2143 0.0
H73 H 0.28655 0.96618 0.35876 0.0
H74 H 0.36878 0.96407 0.18143 0.0
H75 H 0.23431 0.98081 0.29011 0.0
C76 C 0.23831 1.00081 0.34236 0.0
C77 C 0.31363 0.01482 0.22801 0.0
C78 C 0.34038 1.00041 0.1852 0.0
C79 C 0.29326 1.00188 0.28751 0.0
C80 C 0.30095 0.97537 0.30842 0.0
C81 C 0.32829 0.96173 0.27155 0.0
C82 C 0.34706 0.97395 0.20745 0.0
N83 N 0.26631 0.01612 0.33248 0.0
H84 H 0.52189 0.24704 0.44125 0.0
H85 H 0.56919 0.28624 0.71289 0.0
H86 H 0.54788 0.33509 0.49451 0.0
H87 H 0.54931 0.25075 0.77075 0.0
C88 C 0.54774 0.23231 0.71024 0.0
C89 C 0.53323 0.26521 0.48753 0.0
C90 C 0.53477 0.29126 0.45603 0.0
C91 C 0.54568 0.26287 0.58043 0.0
C92 C 0.55945 0.28722 0.64142 0.0
C93 C 0.56056 0.31337 0.61039 0.0
C94 C 0.54861 0.31477 0.51726 0.0
N95 N 0.54369 0.23609 0.61056 0.0
Tb96 Tb 1.02641 0.01874 0.79511 0.0
Tb97 Tb 0.08189 0.01122 0.94547 0.0
C98 C 1.01265 0.01718 0.01749 0.0
C99 C 0.96891 0.05131 0.65674 0.0
C100 C 0.94339 0.09849 0.5953 0.0
C101 C 0.92796 0.07195 0.57587 0.0
C102 C 0.94073 0.04851 0.6062 0.0
C103 C 0.98325 0.07806 0.68219 0.0
C104 C 0.97076 0.10135 0.65149 0.0
C105 C 0.98468 0.02612 0.67555 0.0
O106 O 0.04502 0.06184 0.84707 0.0
O107 O 0.07147 0.05604 0.98679 0.0
O108 O 0.10284 0.02612 0.81952 0.0
O109 O 0.06759 1.00425 0.70758 0.0
O110 O 0.09848 0.00867 0.08734 0.0
O111 O 0.12894 1.00345 0.96042 0.0
O112 O 0.07348 0.96932 0.85397 0.0
O113 O 1.02382 0.97384 0.80348 0.0
O114 O 1.00741 0.03049 0.94491 0.0
O115 O 1.03832 1.00281 0.01856 0.0
C116 C 0.05915 0.07237 0.93179 0.0
O117 O 1.01404 0.02511 0.65433 0.0
O118 O 0.97908 0.01915 0.76088 0.0
C119 C 0.09545 0.01483 0.72732 0.0
C120 C 0.13557 0.9727 0.07178 0.0
C121 C 0.14503 0.91857 0.11477 0.0
C122 C 0.1443 0.94296 0.19151 0.0
C123 C 0.13956 0.96977 0.17026 0.0
C124 C 0.13812 0.94859 0.99426 0.0
C125 C 0.1428 0.92177 0.01559 0.0
C126 C 0.12546 1.00011 0.05161 0.0
C127 C 0.04735 0.95797 0.8163 0.0
H128 H 0.90663 0.069 0.53419 0.0
H129 H 0.92921 0.02802 0.58719 0.0
H130 H 1.00505 0.08062 0.72123 0.0
H131 H 0.98381 0.1211 0.66658 0.0
H132 H 0.14541 0.94107 0.26856 0.0
H133 H 0.13746 0.98802 0.23104 0.0
H134 H 0.13517 0.95021 0.91732 0.0
H135 H 0.14342 0.90342 0.95479 0.0
Tb136 Tb 0.54812 1.00308 0.71705 0.0
Tb137 Tb 0.56252 0.03285 0.94535 0.0
C138 C 0.55511 0.96638 0.88166 0.0
C139 C 0.51977 0.95105 0.49806 0.0
C140 C 0.47366 0.91134 0.41906 0.0
C141 C 0.49104 0.92555 0.35649 0.0
C142 C 0.51378 0.94536 0.39597 0.0
C143 C 0.50522 0.93464 0.55898 0.0
C144 C 0.48245 0.9147 0.51949 0.0
C145 C 0.53753 0.97664 0.54167 0.0
O146 O 0.5055 1.00041 0.80353 0.0
O147 O 0.51284 0.03777 0.93578 0.0
O148 O 0.55981 0.06901 0.87162 0.0
O149 O 0.54124 0.04767 0.71686 0.0
O150 O 0.55719 0.03682 0.10029 0.0
O151 O 0.59235 0.06069 0.03962 0.0
O152 O 0.60412 0.01261 0.87369 0.0
O153 O 0.59511 0.0205 0.72004 0.0
O154 O 0.56026 0.96827 0.78885 0.0
O155 O 0.55058 0.98911 0.95116 0.0
C156 C 0.49465 0.01859 0.88165 0.0
O157 O 0.52109 0.99781 0.58851 0.0
O158 O 0.56205 0.97289 0.5916 0.0
C159 C 0.54933 0.07041 0.78282 0.0
C160 C 0.60851 0.03479 0.15498 0.0
C161 C 0.66284 1.00374 0.16203 0.0
C162 C 0.66327 0.03366 0.18832 0.0
C163 C 0.63635 0.04904 0.18456 0.0
C164 C 0.60763 1.00486 0.1368 0.0
C165 C 0.63453 0.98949 0.14015 0.0
C166 C 0.58376 0.05004 0.11577 0.0
C167 C 0.61475 0.01686 0.78827 0.0
H168 H 0.48497 0.92381 0.27903 0.0
H169 H 0.52493 0.95784 0.34809 0.0
H170 H 0.50983 0.9387 0.63822 0.0
H171 H 0.46988 0.9038 0.56935 0.0
H172 H 0.68464 0.04524 0.20877 0.0
H173 H 0.63772 0.07203 0.19776 0.0
H174 H 0.5866 0.99319 0.1129 0.0
H175 H 0.63339 0.9665 0.1204 0.0
Tb176 Tb 0.50974 0.5127 0.97184 0.0
Tb177 Tb 0.54624 0.54193 0.80508 0.0
C178 C 0.47755 0.52284 0.77828 0.0
C179 C 0.48843 0.45767 0.11136 0.0
C180 C 0.50113 0.40286 0.14719 0.0
C181 C 0.47092 0.41027 0.12599 0.0
C182 C 0.46467 0.43738 0.10846 0.0
C183 C 0.5186 0.45035 0.13203 0.0
C184 C 0.52481 0.42343 0.15045 0.0
C185 C 0.48195 0.48549 0.08573 0.0
O186 O 0.52724 0.47818 0.85983 0.0
O187 O 0.56467 0.49899 0.77686 0.0
O188 O 0.57422 0.54904 0.94043 0.0
O189 O 0.55849 0.51154 0.00921 0.0
O190 O 0.54561 0.55645 0.67044 0.0
O191 O 0.58519 0.56387 0.76558 0.0
O192 O 0.51611 0.57388 0.89 0.0
O193 O 0.51296 0.55791 0.03606 0.0
O194 O 0.47563 0.52673 0.876 0.0
O195 O 0.50469 0.52091 0.73421 0.0
C196 C 0.55182 0.47657 0.80269 0.0
O197 O 0.50156 0.5062 0.11695 0.0
O198 O 0.47415 0.48439 0.99349 0.0
C199 C 0.57893 0.53133 1.00037 0.0
C200 C 0.57045 0.60088 0.6871 0.0
C201 C 0.56267 0.65831 0.67443 0.0
C202 C 0.57783 0.63925 0.59789 0.0
C203 C 0.58153 0.61074 0.60399 0.0
C204 C 0.5566 0.62014 0.76564 0.0
C205 C 0.55253 0.64853 0.75913 0.0
C206 C 0.57156 0.57034 0.68919 0.0
C207 C 0.51234 0.57864 0.98675 0.0
H208 H 0.45211 0.39503 0.12165 0.0
H209 H 0.44129 0.44239 0.09123 0.0
H210 H 0.53752 0.46538 0.13358 0.0
H211 H 0.54825 0.41896 0.16867 0.0
H212 H 0.5855 0.64604 0.53106 0.0
H213 H 0.59224 0.59623 0.54256 0.0
H214 H 0.54825 0.61307 0.83101 0.0
H215 H 0.5409 0.66271 0.81936 0.0
Tb216 Tb 0.0399 0.51939 0.78694 0.0
Tb217 Tb 1.02049 0.49222 0.97377 0.0
C218 C 1.02376 0.55911 0.98895 0.0
C219 C 0.08534 0.50957 0.57477 0.0
C220 C 0.12553 0.46658 0.48029 0.0
C221 C 0.12139 0.47194 0.58385 0.0
C222 C 0.10201 0.49342 0.63037 0.0
C223 C 0.08853 0.50393 0.471 0.0
C224 C 0.10883 0.48279 0.42404 0.0
C225 C 0.06105 0.52807 0.62627 0.0
O226 O 0.08049 0.52534 0.88352 0.0
O227 O 0.07032 0.48675 0.95026 0.0
O228 O 1.00727 0.46157 0.84096 0.0
O229 O 0.04831 0.47377 0.75787 0.0
O230 O 0.99832 0.49198 0.11036 0.0
O231 O 1.02961 0.45858 0.04459 0.0
O232 O 0.97548 0.49988 0.91383 0.0
O233 O 0.98941 0.5189 0.7777 0.0
O234 O 1.02213 0.55566 0.89143 0.0
O235 O 1.02904 0.53762 0.03284 0.0
C236 C 0.08985 0.50596 0.93066 0.0
O237 O 1.03504 0.51461 0.63213 0.0
O238 O 0.06884 0.54379 0.71225 0.0
C239 C 1.02629 0.45562 0.76581 0.0
C240 C 0.98624 0.44553 0.12789 0.0
C241 C 0.93591 0.41096 0.15972 0.0
C242 C 0.94425 0.41336 0.06246 0.0
C243 C 0.96909 0.43074 0.04676 0.0
C244 C 0.97991 0.4411 0.22358 0.0
C245 C 0.95498 0.42391 0.23951 0.0
C246 C 1.0092 0.46701 0.11417 0.0
C247 C 0.9683 0.51024 0.83496 0.0
H248 H 0.13334 0.45966 0.62954 0.0
H249 H 0.09951 0.4969 0.71035 0.0
H250 H 0.07525 0.51563 0.42654 0.0
H251 H 0.11187 0.47958 0.34412 0.0
H252 H 0.93028 0.40346 0.99939 0.0
H253 H 0.97394 0.43373 0.97199 0.0
H254 H 0.99313 0.45221 0.28677 0.0
H255 H 0.94917 0.4229 0.31562 0.0
H256 H 0.18091 0.98002 0.34634 0.0
H257 H 0.243 0.04089 0.51955 0.0
H258 H 0.2045 0.05086 0.6547 0.0
H259 H 0.15315 0.04063 0.72587 0.0
H260 H 0.09107 0.9811 0.54331 0.0
H261 H 0.12899 0.97273 0.41033 0.0
C262 C 0.1858 0.9958 0.41303 0.0
C263 C 0.21469 0.00974 0.42235 0.0
C264 C 0.16345 1.00158 0.48934 0.0
C265 C 0.22087 0.02999 0.50981 0.0
C266 C 0.19886 0.03556 0.58736 0.0
C267 C 0.14794 0.02588 0.65679 0.0
C268 C 0.1191 0.0114 0.64569 0.0
C269 C 0.17008 0.02125 0.57848 0.0
C270 C 0.11284 0.99259 0.55492 0.0
C271 C 0.13469 0.98765 0.47827 0.0
H272 H 0.53808 0.17936 0.59012 0.0
H273 H 0.55973 0.22138 0.89106 0.0
H274 H 0.56214 0.17555 0.94112 0.0
H275 H 0.55836 0.12338 0.89991 0.0
H276 H 0.53563 0.08119 0.59956 0.0
H277 H 0.53331 0.12693 0.54956 0.0
C278 C 0.54334 0.17846 0.66654 0.0
C279 C 0.54883 0.20381 0.73672 0.0
C280 C 0.54446 0.15189 0.69527 0.0
C281 C 0.55545 0.2022 0.83558 0.0
C282 C 0.55684 0.17597 0.86435 0.0
C283 C 0.55286 0.12412 0.8235 0.0
C284 C 0.54723 0.09865 0.75396 0.0
C285 C 0.55142 0.15064 0.79491 0.0
C286 C 0.54004 0.10028 0.65526 0.0
C287 C 0.53875 0.12653 0.62625 0.0
H288 H 0.34294 0.51962 0.59811 0.0
H289 H 0.39357 0.51744 0.32536 0.0
H290 H 0.44249 0.51904 0.41657 0.0
H291 H 0.47087 0.52061 0.57583 0.0
H292 H 0.41839 0.52256 0.8461 0.0
H293 H 0.37053 0.52142 0.75407 0.0
C294 C 0.36469 0.51964 0.55847 0.0
C295 C 0.36452 0.51853 0.45505 0.0
C296 C 0.39254 0.5204 0.61127 0.0
C297 C 0.39294 0.51843 0.40492 0.0
C298 C 0.42093 0.51926 0.45723 0.0
C299 C 0.44897 0.52073 0.61457 0.0
C300 C 0.44855 0.52166 0.71851 0.0
C301 C 0.42106 0.52015 0.56066 0.0
C302 C 0.41976 0.52189 0.76679 0.0
C303 C 0.3922 0.52125 0.71406 0.0
H304 H 1.02832 0.34679 0.41424 0.0
H305 H 0.93186 0.34613 0.49337 0.0
H306 H 0.93967 0.38809 0.62513 0.0
H307 H 0.97375 0.42476 0.71974 0.0
H308 H 0.06951 0.42824 0.63529 0.0
H309 H 0.06226 0.38555 0.5046 0.0
C310 C 1.00908 0.35591 0.46028 0.0
C311 C 0.97957 0.34321 0.44469 0.0
C312 C 1.01365 0.38048 0.53551 0.0
C313 C 0.95479 0.35546 0.50419 0.0
C314 C 0.95923 0.37943 0.57976 0.0
C315 C 0.9931 0.41605 0.67323 0.0
C316 C 1.02221 0.42939 0.68823 0.0
C317 C 0.98856 0.39201 0.59664 0.0
C318 C 0.04689 0.41822 0.62578 0.0
C319 C 0.04274 0.39383 0.55088 0.0
H320 H 0.89492 0.02924 0.304 0.0
H321 H 0.94496 0.96744 0.42573 0.0
H322 H 0.98804 0.97037 0.31257 0.0
H323 H 1.01044 0.98787 0.17033 0.0
H324 H 0.9599 0.04866 0.04432 0.0
H325 H 0.91871 0.04871 0.16639 0.0
C326 C 0.91542 0.01674 0.30655 0.0
C327 C 0.91661 0.99807 0.37337 0.0
C328 C 0.94013 0.01806 0.23917 0.0
C329 C 0.94336 0.98191 0.37496 0.0
C330 C 0.96805 0.9835 0.30991 0.0
C331 C 0.99054 1.00128 0.16981 0.0
C332 C 0.98847 0.01804 0.09697 0.0
C333 C 0.96652 1.00105 0.24015 0.0
C334 C 0.96231 0.03529 0.09843 0.0
C335 C 0.93858 0.0354 0.16862 0.0
H336 H 0.54918 0.83734 0.92239 0.0
H337 H 0.54001 0.87687 0.23308 0.0
H338 H 0.54366 0.92385 0.19135 0.0
H339 H 0.54848 0.95386 0.06672 0.0
H340 H 0.55844 0.91433 0.7559 0.0
H341 H 0.55522 0.86743 0.79772 0.0
C342 C 0.54799 0.85628 0.98092 0.0
C343 C 0.54439 0.85353 0.08057 0.0
C344 C 0.55011 0.88331 0.95647 0.0
C345 C 0.5429 0.87826 0.15573 0.0
C346 C 0.54488 0.9052 0.13193 0.0
C347 C 0.55014 0.93505 1.00799 0.0
C348 C 0.55383 0.93783 0.90816 0.0
C349 C 0.5484 0.908 0.03256 0.0
C350 C 0.55573 0.91302 0.83339 0.0
C351 C 0.55383 0.88609 0.8572 0.0
H352 H 0.71424 0.54829 0.17614 0.0
H353 H 0.67355 0.50921 0.40288 0.0
H354 H 0.62343 0.50637 0.31843 0.0
H355 H 0.59154 0.51346 0.17479 0.0
H356 H 0.63295 0.55495 0.95445 0.0
H357 H 0.68211 0.55835 0.04126 0.0
C358 C 0.69429 0.53942 0.20769 0.0
C359 C 0.69766 0.52899 0.29567 0.0
C360 C 0.66562 0.53809 0.15915 0.0
C361 C 0.6716 0.51758 0.3357 0.0
C362 C 0.64296 0.5158 0.28694 0.0
C363 C 0.61133 0.52327 0.14596 0.0
C364 C 0.60843 0.53376 0.05743 0.0
C365 C 0.63973 0.52569 0.19775 0.0
C366 C 0.63431 0.54672 0.02212 0.0
C367 C 0.66256 0.54865 0.07174 0.0
H368 H 1.02245 0.67743 0.29757 0.0
H369 H 0.98902 0.7048 0.03749 0.0
H370 H 0.99094 0.65617 0.94174 0.0
H371 H 1.00368 0.60625 0.92926 0.0
H372 H 1.0368 0.57777 0.18767 0.0
H373 H 1.03335 0.62622 0.28631 0.0
C374 C 1.01537 0.67265 0.22025 0.0
C375 C 1.00563 0.69473 0.17456 0.0
C376 C 1.01663 0.64443 0.165 0.0
C377 C 0.99658 0.68818 0.07428 0.0
C378 C 0.99774 0.66038 0.01932 0.0
C379 C 1.01016 0.61054 1.00717 0.0
C380 C 1.02071 0.58831 0.05047 0.0
C381 C 1.00803 0.63839 0.06349 0.0
C382 C 1.02864 0.59439 0.15204 0.0
C383 C 1.02671 0.62216 0.20862 0.0
H384 H 0.93429 0.17796 0.29185 0.0
H385 H 0.97267 0.23711 0.54251 0.0
H386 H 0.9594 0.20466 0.65191 0.0
H387 H 0.94755 0.15585 0.66841 0.0
H388 H 0.91856 0.09403 0.40929 0.0
H389 H 0.9167 0.13103 0.31277 0.0
C390 C 0.93938 0.18392 0.37075 0.0
C391 C 0.95523 0.20959 0.40823 0.0
C392 C 0.93366 0.16436 0.43186 0.0
C393 C 0.96061 0.21748 0.51124 0.0
C394 C 0.95336 0.19873 0.57379 0.0
C395 C 0.94056 0.15046 0.59102 0.0
C396 C 0.93404 0.12194 0.546 0.0
C397 C 0.94161 0.17149 0.53365 0.0
C398 C 0.92375 0.11567 0.44668 0.0
C399 C 0.92305 0.13682 0.39066 0.0
H400 H 0.35883 0.91424 0.17699 0.0
H401 H 0.32778 0.9578 0.46717 0.0
H402 H 0.36786 0.93541 0.54559 0.0
H403 H 0.42066 0.91876 0.52676 0.0
H404 H 0.45573 0.87993 0.2362 0.0
H405 H 0.40531 0.88472 0.16343 0.0
C406 C 0.36019 0.91796 0.25757 0.0
C407 C 0.34127 0.93865 0.31574 0.0
C408 C 0.38476 0.90656 0.3021 0.0
C409 C 0.34235 0.94242 0.42009 0.0
C410 C 0.36567 0.92989 0.46524 0.0
C411 C 0.41705 0.90993 0.44833 0.0
C412 C 0.44237 0.90033 0.38613 0.0
C413 C 0.38855 0.91415 0.40644 0.0
C414 C 0.43687 0.88846 0.28509 0.0
C415 C 0.40807 0.89139 0.24331 0.0
H416 H 0.5945 0.35734 0.56597 0.0
H417 H 0.54469 0.33121 0.80621 0.0
H418 H 0.5419 0.3806 0.89493 0.0
H419 H 0.54386 0.43094 0.88705 0.0
H420 H 0.58869 0.45764 0.63895 0.0
H421 H 0.60272 0.40827 0.56934 0.0
C422 C 0.58364 0.36244 0.63887 0.0
C423 C 0.56914 0.34065 0.67822 0.0
C424 C 0.58029 0.39103 0.68618 0.0
C425 C 0.55596 0.34745 0.7739 0.0
C426 C 0.55387 0.37579 0.82388 0.0
C427 C 0.55692 0.42606 0.81797 0.0
C428 C 0.56445 0.44781 0.76649 0.0
C429 C 0.56428 0.39772 0.77778 0.0
C430 C 0.58223 0.44124 0.67907 0.0
C431 C 0.59022 0.41303 0.63938 0.0
H432 H 0.22661 0.41322 0.18665 0.0
H433 H 0.2805 0.45312 0.44115 0.0
H434 H 0.23671 0.45143 0.54916 0.0
H435 H 0.18142 0.45913 0.55751 0.0
H436 H 0.12505 0.42969 0.29763 0.0
H437 H 0.1705 0.4091 0.20478 0.0
C438 C 0.2289 0.42099 0.26632 0.0
C439 C 0.25554 0.43665 0.30351 0.0
C440 C 0.20229 0.42388 0.32612 0.0
C441 C 0.25957 0.4431 0.40768 0.0
C442 C 0.23414 0.44274 0.47019 0.0
C443 C 0.17858 0.44714 0.482 0.0
C444 C 0.15005 0.44689 0.43342 0.0
C445 C 0.20486 0.43659 0.42814 0.0
C446 C 0.14704 0.43115 0.33547 0.0
C447 C 0.17298 0.41918 0.28263 0.0
H448 H 0.12431 0.82227 0.34912 0.0
H449 H 0.05408 0.79882 0.12549 0.0
H450 H 0.07665 0.8315 0.02908 0.0
H451 H 0.10842 0.87406 0.03021 0.0
H452 H 0.17715 0.89928 0.25848 0.0
H453 H 0.16319 0.85853 0.33125 0.0
C454 C 0.11462 0.82371 0.27763 0.0
C455 C 0.08734 0.80864 0.24509 0.0
C456 C 0.12699 0.84333 0.22481 0.0
C457 C 0.07508 0.81027 0.15198 0.0
C458 C 0.08776 0.82922 0.09749 0.0
C459 C 0.12121 0.87008 0.09354 0.0
C460 C 0.14329 0.89005 0.14031 0.0
C461 C 0.11259 0.847 0.13623 0.0
C462 C 0.15954 0.88457 0.22259 0.0
C463 C 0.15156 0.86129 0.26424 0.0
H464 H 0.79784 0.97485 0.22326 0.0
H465 H 0.75337 0.91639 0.38003 0.0
H466 H 0.70502 0.92083 0.29475 0.0
H467 H 0.67321 0.95487 0.22815 0.0
H468 H 0.71785 0.01618 0.08257 0.0
H469 H 0.76821 0.99767 0.11268 0.0
C470 C 0.77809 0.96178 0.23478 0.0
C471 C 0.77828 0.94717 0.31368 0.0
C472 C 0.7499 0.96645 0.19201 0.0
C473 C 0.75324 0.92892 0.32277 0.0
C474 C 0.72531 0.93209 0.27601 0.0
C475 C 0.69387 0.96353 0.2 0.0
C476 C 0.69201 0.98778 0.15779 0.0
C477 C 0.72282 0.95307 0.21896 0.0
C478 C 0.7189 0.99839 0.11977 0.0
C479 C 0.74767 0.98763 0.13597 0.0
H480 H 0.54167 0.69676 0.25744 0.0
H481 H 0.49253 0.72766 0.02897 0.0
H482 H 0.48577 0.67845 0.93632 0.0
H483 H 0.49244 0.62626 0.9254 0.0
H484 H 0.53498 0.5978 0.17102 0.0
H485 H 0.54364 0.64679 0.25592 0.0
C486 C 0.52836 0.69308 0.18927 0.0
C487 C 0.51666 0.71616 0.15253 0.0
C488 C 0.52281 0.66505 0.14064 0.0
C489 C 0.50159 0.71048 0.05994 0.0
C490 C 0.49744 0.6823 1.0075 0.0
C491 C 0.50314 0.6309 0.99824 0.0
C492 C 0.51291 0.6084 0.04221 0.0
C493 C 0.50758 0.65936 0.04808 0.0
C494 C 0.52684 0.61463 0.13628 0.0
C495 C 0.53213 0.64265 0.18438 0.0
H496 H 0.82239 0.41732 0.42038 0.0
H497 H 0.79272 0.4642 0.20186 0.0
H498 H 0.83107 0.44068 0.0849 0.0
H499 H 0.88293 0.42176 0.07204 0.0
H500 H 0.91733 0.38016 0.29913 0.0
H501 H 0.86749 0.3863 0.38447 0.0
C502 C 0.82365 0.42155 0.34573 0.0
C503 C 0.80578 0.44343 0.32166 0.0
C504 C 0.84743 0.40958 0.28145 0.0
C505 C 0.80658 0.4479 0.2235 0.0
C506 C 0.82892 0.43471 0.15672 0.0
C507 C 0.87921 0.41267 0.13734 0.0
C508 C 0.90424 0.40172 0.18178 0.0
C509 C 0.85116 0.4177 0.18869 0.0
C510 C 0.89869 0.38965 0.26551 0.0
C511 C 0.87023 0.39331 0.31464 0.0
H512 H 0.05758 0.19409 0.20524 0.0
H513 H 0.98571 0.20529 1.00274 0.0
H514 H 0.99903 0.16008 0.89265 0.0
H515 H 1.02445 0.11344 0.87263 0.0
H516 H 0.09431 0.10181 0.08308 0.0
H517 H 0.08866 0.15087 0.17064 0.0
C518 C 0.04593 0.18723 0.13446 0.0
C519 C 1.02109 0.20314 0.11108 0.0
C520 C 0.05273 0.16059 0.07451 0.0
C521 C 1.0054 0.19369 0.0209 0.0
C522 C 1.01266 0.16757 0.95902 0.0
C523 C 1.03895 0.1218 0.93615 0.0
C524 C 0.05935 0.10362 0.97202 0.0
C525 C 1.03524 0.15015 0.98776 0.0
C526 C 0.078 0.11501 0.05454 0.0
C527 C 0.07485 0.14318 0.10483 0.0
H528 H 0.3635 0.9764 1.00316 0.0
H529 H 0.37193 0.0512 0.23596 0.0
H530 H 0.41969 0.06475 0.15923 0.0
H531 H 0.46242 0.05207 0.03641 0.0
H532 H 0.4532 0.97659 0.80508 0.0
H533 H 0.40277 0.96671 0.8705 0.0
C534 C 0.37535 0.99611 0.0356 0.0
C535 C 0.36396 0.01282 0.12517 0.0
C536 C 0.40316 1.00336 0.99221 0.0
C537 C 0.37978 0.03816 0.16648 0.0
C538 C 0.4074 0.04568 0.12319 0.0
C539 C 0.44924 0.03365 0.99939 0.0
C540 C 0.46211 0.01499 0.91598 0.0
C541 C 0.41987 0.02796 0.03773 0.0
C542 C 0.44431 0.99135 0.86927 0.0
C543 C 0.41531 0.9856 0.90684 0.0
H544 H 0.56142 0.29976 0.2862 0.0
H545 H 0.47369 0.29907 0.43436 0.0
H546 H 0.45331 0.33258 0.3395 0.0
H547 H 0.46488 0.3701 0.24601 0.0
H548 H 0.55304 0.37076 0.09752 0.0
H549 H 0.56892 0.32959 0.16183 0.0
C550 C 0.53732 0.30571 0.29323 0.0
C551 C 0.51904 0.29693 0.36683 0.0
C552 C 0.52632 0.32607 0.24197 0.0
C553 C 0.48802 0.30518 0.37701 0.0
C554 C 0.47662 0.3249 0.3244 0.0
C555 C 0.48721 0.36082 0.22491 0.0
C556 C 0.5081 0.3744 0.1698 0.0
C557 C 0.49621 0.33682 0.2615 0.0
C558 C 0.5369 0.36169 0.14334 0.0
C559 C 0.54594 0.33787 0.17922 0.0
H560 H 0.22497 0.46521 0.98947 0.0
H561 H 0.23073 0.54685 0.1893 0.0
H562 H 0.18032 0.55946 0.13111 0.0
H563 H 0.13085 0.54422 0.04055 0.0
H564 H 0.12406 0.45983 0.85929 0.0
H565 H 0.17791 0.45113 0.89403 0.0
C566 C 0.21553 0.48606 0.01898 0.0
C567 C 0.23181 0.50496 0.09428 0.0
C568 C 0.18569 0.49233 0.99015 0.0
C569 C 0.21913 0.53192 0.13076 0.0
C570 C 0.18993 0.53893 0.09862 0.0
C571 C 0.14141 0.52412 1.00787 0.0
C572 C 0.12342 0.5026 0.94754 0.0
C573 C 0.1724 0.51887 0.03121 0.0
C574 C 0.13729 0.47658 0.9064 0.0
C575 C 0.16814 0.47164 0.92605 0.0
H576 H 0.0739 0.8297 0.63149 0.0
H577 H 0.98464 0.83493 0.50171 0.0
H578 H 0.97743 0.88235 0.60595 0.0
H579 H 1.00077 0.92536 0.71232 0.0
H580 H 0.09094 0.91941 0.83804 0.0
H581 H 0.09342 0.86952 0.75822 0.0
C582 C 0.05233 0.84077 0.62941 0.0
C583 C 1.02973 0.8288 0.55983 0.0
C584 C 0.0489 0.86835 0.6869 0.0
C585 C 1.0021 0.84352 0.55609 0.0
C586 C 0.99826 0.87086 0.61446 0.0
C587 C 1.02072 0.91305 0.72367 0.0
C588 C 0.04594 0.92654 0.77949 0.0
C589 C 1.02215 0.88404 0.67671 0.0
C590 C 0.07141 0.90998 0.79411 0.0
C591 C 0.07287 0.88128 0.74854 0.0
H592 H 0.75602 0.98581 0.71561 0.0
H593 H 0.74876 0.04347 0.51503 0.0
H594 H 0.69562 0.05434 0.57051 0.0
H595 H 0.64886 0.04268 0.66108 0.0
H596 H 0.65721 0.98676 0.86815 0.0
H597 H 0.71185 0.98007 0.82583 0.0
C598 C 0.74327 1.00177 0.6876 0.0
C599 C 0.75672 0.0143 0.61275 0.0
C600 C 0.71242 0.00756 0.71893 0.0
C601 C 0.73942 0.0342 0.57477 0.0
C602 C 0.70873 0.03997 0.60512 0.0
C603 C 0.66271 0.02918 0.69735 0.0
C604 C 0.64862 0.01477 0.76627 0.0
C605 C 0.69458 0.02597 0.67447 0.0
C606 C 0.66719 0.99787 0.8141 0.0
C607 C 0.69856 0.99405 0.79 0.0
H608 H 0.49974 0.75913 0.53507 0.0
H609 H 0.59253 0.77182 0.43765 0.0
H610 H 0.61177 0.73891 0.53629 0.0
H611 H 0.60001 0.69764 0.61268 0.0
H612 H 0.50659 0.68353 0.70312 0.0
H613 H 0.48981 0.72563 0.64548 0.0
C614 C 0.52436 0.75589 0.54022 0.0
C615 C 0.54462 0.76749 0.47797 0.0
C616 C 0.53498 0.73564 0.59253 0.0
C617 C 0.57647 0.76318 0.48494 0.0
C618 C 0.5874 0.74378 0.53954 0.0
C619 C 0.57614 0.70422 0.62176 0.0
C620 C 0.55447 0.68715 0.66012 0.0
C621 C 0.56655 0.72837 0.58743 0.0
C622 C 0.52371 0.69618 0.67334 0.0
C623 C 0.51405 0.72024 0.64002 0.0
H624 H 0.83033 0.48046 0.69961 0.0
H625 H 0.84553 0.54955 0.54835 0.0
H626 H 0.89632 0.55899 0.62691 0.0
H627 H 0.93912 0.54358 0.723 0.0
H628 H 0.92263 0.47504 0.87724 0.0
H629 H 0.87001 0.46948 0.81376 0.0
C630 C 0.84432 0.49826 0.68683 0.0
C631 C 0.8339 0.51453 0.61912 0.0
C632 C 0.87371 0.50324 0.73119 0.0
C633 C 0.85261 0.53713 0.6017 0.0
C634 C 0.88192 0.54221 0.64548 0.0
C635 C 0.92388 0.52767 0.74372 0.0
C636 C 0.93515 0.50959 0.8044 0.0
C637 C 0.89319 0.52478 0.70777 0.0
C638 C 0.91481 0.4893 0.83106 0.0
C639 C 0.88461 0.48603 0.79445 0.0
loop_
_geom_bond_atom_site_label_1
_geom_bond_atom_site_label_2
_geom_bond_distance
_geom_bond_site_symmetry_2
_ccdc_geom_bond_type
H0 C5 0.930 . S
H1 C8 0.930 . S
H2 C10 0.930 . S
H3 C4 1.016 . S
C4 H3 1.016 . S
C4 N11 1.286 . S
C5 H0 0.930 . S
C5 C6 1.397 . S
C5 C7 1.361 . S
C6 C5 1.397 . S
C6 C10 1.390 . S
C7 C5 1.361 . S
C7 C8 1.393 . S
C7 N11 1.413 . S
C8 H1 0.930 . S
C8 C7 1.393 . S
C8 C9 1.399 . S
C9 C8 1.399 . S
C9 C10 1.381 . S
C10 H2 0.930 . S
C10 C6 1.390 . S
C10 C9 1.381 . S
N11 C4 1.286 . S
N11 C7 1.413 . S
H12 C17 0.930 . S
H13 C20 0.930 . S
H14 C22 0.930 . S
H15 C16 1.029 . S
C16 H15 1.029 . S
C16 N23 1.268 1_655 S
C17 H12 0.930 . S
C17 C18 1.397 . S
C17 C19 1.361 . S
C18 C17 1.397 . S
C18 C22 1.390 1_455 S
C19 C17 1.361 . S
C19 C20 1.393 . S
C19 N23 1.413 . S
C20 H13 0.930 . S
C20 C19 1.393 . S
C20 C21 1.403 . S
C21 C20 1.403 . S
C21 C22 1.379 1_455 S
C22 H14 0.930 . S
C22 C18 1.390 1_655 S
C22 C21 1.379 1_655 S
N23 C16 1.268 1_455 S
N23 C19 1.413 . S
H24 C29 0.930 . S
H25 C32 0.930 . S
H26 C34 0.930 . S
H27 C28 1.021 . S
C28 H27 1.021 . S
C28 N35 1.275 1_565 S
C29 H24 0.930 . S
C29 C30 1.397 . S
C29 C31 1.361 . S
C30 C29 1.397 . S
C30 C34 1.390 1_545 S
C31 C29 1.361 . S
C31 C32 1.393 . S
C31 N35 1.413 . S
C32 H25 0.930 . S
C32 C31 1.393 . S
C32 C33 1.403 . S
C33 C32 1.403 . S
C33 C34 1.374 1_545 S
C34 H26 0.930 . S
C34 C30 1.390 1_565 S
C34 C33 1.374 1_565 S
N35 C28 1.275 1_545 S
N35 C31 1.413 . S
H36 C41 0.930 . S
H37 C44 0.930 . S
H38 C46 0.930 . S
H39 C40 1.016 . S
C40 H39 1.016 . S
C40 N47 1.286 1_556 S
C41 H36 0.930 . S
C41 C42 1.397 . S
C41 C43 1.361 . S
C42 C41 1.397 . S
C42 C46 1.390 . S
C43 C41 1.361 . S
C43 C44 1.393 1_554 S
C43 N47 1.413 . S
C44 H37 0.930 . S
C44 C43 1.393 1_556 S
C44 C45 1.399 . S
C45 C44 1.399 . S
C45 C46 1.381 1_556 S
C46 H38 0.930 . S
C46 C42 1.390 . S
C46 C45 1.381 1_554 S
N47 C40 1.286 1_554 S
N47 C43 1.413 . S
H48 C53 0.930 . S
H49 C56 0.930 . S
H50 C58 0.930 . S
H51 C52 1.016 . S
C52 H51 1.016 . S
C52 N59 1.286 . S
C53 H48 0.930 . S
C53 C54 1.397 . S
C53 C55 1.361 . S
C54 C53 1.397 . S
C54 C58 1.390 . S
C55 C53 1.361 . S
C55 C56 1.393 . S
C55 N59 1.413 . S
C56 H49 0.930 . S
C56 C55 1.393 . S
C56 C57 1.399 . S
C57 C56 1.399 . S
C57 C58 1.381 . S
C58 H50 0.930 . S
C58 C54 1.390 . S
C58 C57 1.381 . S
N59 C52 1.286 . S
N59 C55 1.413 . S
H60 C65 0.930 . S
H61 C68 0.930 . S
H62 C70 0.930 . S
H63 C64 1.026 . S
C64 H63 1.026 . S
C64 N71 1.272 1_655 S
C65 H60 0.930 . S
C65 C66 1.397 . S
C65 C67 1.361 . S
C66 C65 1.397 . S
C66 C70 1.390 1_455 S
C67 C65 1.361 . S
C67 C68 1.393 . S
C67 N71 1.413 . S
C68 H61 0.930 . S
C68 C67 1.393 . S
C68 C69 1.404 . S
C69 C68 1.404 . S
C69 C70 1.378 1_455 S
C70 H62 0.930 . S
C70 C66 1.390 1_655 S
C70 C69 1.378 1_655 S
N71 C64 1.272 1_455 S
N71 C67 1.413 . S
H72 C77 0.930 . S
H73 C80 0.930 . S
H74 C82 0.930 . S
H75 C76 1.033 . S
C76 H75 1.033 . S
C76 N83 1.267 1_565 S
C77 H72 0.930 . S
C77 C78 1.397 . S
C77 C79 1.361 . S
C78 C77 1.397 . S
C78 C82 1.390 1_545 S
C79 C77 1.361 . S
C79 C80 1.393 . S
C79 N83 1.413 . S
C80 H73 0.930 . S
C80 C79 1.393 . S
C80 C81 1.404 . S
C81 C80 1.404 . S
C81 C82 1.385 1_545 S
C82 H74 0.930 . S
C82 C78 1.390 1_565 S
C82 C81 1.385 1_565 S
N83 C76 1.267 1_545 S
N83 C79 1.413 . S
H84 C89 0.930 . S
H85 C92 0.930 . S
H86 C94 0.930 . S
H87 C88 1.016 . S
C88 H87 1.016 . S
C88 N95 1.286 . S
C89 H84 0.930 . S
C89 C90 1.397 . S
C89 C91 1.361 . S
C90 C89 1.397 . S
C90 C94 1.390 . S
C91 C89 1.361 . S
C91 C92 1.393 . S
C91 N95 1.413 . S
C92 H85 0.930 . S
C92 C91 1.393 . S
C92 C93 1.399 . S
C93 C92 1.399 . S
C93 C94 1.381 . S
C94 H86 0.930 . S
C94 C90 1.390 . S
C94 C93 1.381 . S
N95 C88 1.286 . S
N95 C91 1.413 . S
Tb96 C105 2.764 . S
Tb96 O106 2.325 . S
Tb96 O109 2.303 1_655 S
Tb96 O113 2.322 1_545 S
Tb96 O114 2.349 . S
Tb96 O117 2.415 . S
Tb96 O118 2.399 . S
Tb97 O107 2.322 1_565 S
Tb97 O108 2.349 . S
Tb97 O110 2.415 1_556 S
Tb97 O111 2.399 . S
Tb97 O112 2.325 . S
Tb97 O115 2.303 1_455 S
Tb97 C126 2.764 1_556 S
C98 O114 1.277 . S
C98 O115 1.253 1_545 S
C99 C102 1.358 . S
C99 C103 1.332 . S
C99 C105 1.504 . S
C100 C101 1.373 . S
C100 C104 1.308 . S
C101 C100 1.373 . S
C101 C102 1.429 . S
C101 H128 0.932 . S
C102 C99 1.358 . S
C102 C101 1.429 . S
C102 H129 0.930 . S
C103 C99 1.332 . S
C103 C104 1.394 . S
C103 H130 0.932 1_655 S
C104 C100 1.308 . S
C104 C103 1.394 . S
C104 H131 0.929 . S
C105 Tb96 2.764 . S
C105 C99 1.504 . S
C105 O117 1.239 . S
C105 O118 1.263 . S
O106 Tb96 2.325 . S
O106 C116 1.236 1_655 S
O107 Tb97 2.322 1_545 S
O107 C116 1.257 . S
O108 Tb97 2.349 . S
O108 C119 1.271 . S
O109 Tb96 2.303 1_455 S
O109 C119 1.254 1_545 S
O110 Tb97 2.415 1_554 S
O110 C126 1.239 . S
O111 Tb97 2.399 . S
O111 C126 1.263 1_556 S
O112 Tb97 2.325 . S
O112 C127 1.236 1_455 S
O113 Tb96 2.322 1_565 S
O113 C127 1.257 . S
O114 Tb96 2.349 . S
O114 C98 1.277 . S
O115 Tb97 2.303 1_655 S
O115 C98 1.253 1_565 S
C116 O106 1.236 1_455 S
C116 O107 1.257 . S
O117 Tb96 2.415 . S
O117 C105 1.239 . S
O118 Tb96 2.399 . S
O118 C105 1.263 . S
C119 O108 1.271 . S
C119 O109 1.254 1_565 S
C120 C123 1.358 . S
C120 C124 1.332 . S
C120 C126 1.504 . S
C121 C122 1.373 . S
C121 C125 1.308 . S
C122 C121 1.373 . S
C122 C123 1.429 . S
C122 H132 0.932 . S
C123 C120 1.358 . S
C123 C122 1.429 . S
C123 H133 0.930 . S
C124 C120 1.332 . S
C124 C125 1.394 . S
C124 H134 0.932 1_455 S
C125 C121 1.308 . S
C125 C124 1.394 . S
C125 H135 0.929 . S
C126 Tb97 2.764 1_554 S
C126 O110 1.239 . S
C126 O111 1.263 1_554 S
C126 C120 1.504 . S
C127 O112 1.236 1_655 S
C127 O113 1.257 . S
H128 C101 0.932 . S
H129 C102 0.930 . S
H130 C103 0.932 1_455 S
H131 C104 0.929 . S
H132 C122 0.932 . S
H133 C123 0.930 . S
H134 C124 0.932 1_655 S
H135 C125 0.929 . S
Tb136 C145 2.764 . S
Tb136 O146 2.325 . S
Tb136 O149 2.303 1_565 S
Tb136 O153 2.322 . S
Tb136 O154 2.349 . S
Tb136 O157 2.415 1_565 S
Tb136 O158 2.399 . S
Tb137 O147 2.322 . S
Tb137 O148 2.349 . S
Tb137 O150 2.415 1_546 S
Tb137 O151 2.399 1_556 S
Tb137 O152 2.325 . S
Tb137 O155 2.303 1_545 S
Tb137 C166 2.764 1_556 S
C138 O154 1.261 . S
C138 O155 1.257 . S
C139 C142 1.358 . S
C139 C143 1.332 1_565 S
C139 C145 1.504 . S
C140 C141 1.373 . S
C140 C144 1.308 1_565 S
C141 C140 1.373 . S
C141 C142 1.429 . S
C141 H168 0.932 . S
C142 C139 1.358 . S
C142 C141 1.429 . S
C142 H169 0.930 . S
C143 C139 1.332 1_545 S
C143 C144 1.394 . S
C143 H170 0.932 . S
C144 C140 1.308 1_545 S
C144 C143 1.394 . S
C144 H171 0.929 . S
C145 Tb136 2.764 . S
C145 C139 1.504 . S
C145 O157 1.239 1_565 S
C145 O158 1.263 . S
O146 Tb136 2.325 . S
O146 C156 1.236 1_565 S
O147 Tb137 2.322 . S
O147 C156 1.257 . S
O148 Tb137 2.349 . S
O148 C159 1.261 . S
O149 Tb136 2.303 1_545 S
O149 C159 1.257 . S
O150 Tb137 2.415 1_564 S
O150 C166 1.239 1_565 S
O151 Tb137 2.399 1_554 S
O151 C166 1.263 . S
O152 Tb137 2.325 . S
O152 C167 1.236 1_545 S
O153 Tb136 2.322 . S
O153 C167 1.257 . S
O154 Tb136 2.349 . S
O154 C138 1.261 . S
O155 Tb137 2.303 1_565 S
O155 C138 1.257 . S
C156 O146 1.236 1_545 S
C156 O147 1.257 . S
O157 Tb136 2.415 1_545 S
O157 C145 1.239 1_545 S
O158 Tb136 2.399 . S
O158 C145 1.263 . S
C159 O148 1.261 . S
C159 O149 1.257 . S
C160 C163 1.358 . S
C160 C164 1.332 1_545 S
C160 C166 1.504 . S
C161 C162 1.373 . S
C161 C165 1.308 1_545 S
C162 C161 1.373 . S
C162 C163 1.429 . S
C162 H172 0.932 . S
C163 C160 1.358 . S
C163 C162 1.429 . S
C163 H173 0.930 . S
C164 C160 1.332 1_565 S
C164 C165 1.394 . S
C164 H174 0.932 . S
C165 C161 1.308 1_565 S
C165 C164 1.394 . S
C165 H175 0.929 . S
C166 Tb137 2.764 1_554 S
C166 O150 1.239 1_545 S
C166 O151 1.263 . S
C166 C160 1.504 . S
C167 O152 1.236 1_565 S
C167 O153 1.257 . S
H168 C141 0.932 . S
H169 C142 0.930 . S
H170 C143 0.932 . S
H171 C144 0.929 . S
H172 C162 0.932 . S
H173 C163 0.930 . S
H174 C164 0.932 . S
H175 C165 0.929 . S
Tb176 C185 2.764 1_556 S
Tb176 O186 2.325 . S
Tb176 O189 2.303 . S
Tb176 O193 2.322 . S
Tb176 O194 2.349 . S
Tb176 O197 2.415 1_556 S
Tb176 O198 2.399 1_556 S
Tb177 O187 2.322 . S
Tb177 O188 2.349 . S
Tb177 O190 2.415 . S
Tb177 O191 2.399 . S
Tb177 O192 2.325 . S
Tb177 O195 2.303 . S
Tb177 C206 2.764 . S
C178 O194 1.261 . S
C178 O195 1.257 . S
C179 C182 1.358 . S
C179 C183 1.332 . S
C179 C185 1.504 . S
C180 C181 1.373 . S
C180 C184 1.308 . S
C181 C180 1.373 . S
C181 C182 1.429 . S
C181 H208 0.932 . S
C182 C179 1.358 . S
C182 C181 1.429 . S
C182 H209 0.930 . S
C183 C179 1.332 . S
C183 C184 1.394 . S
C183 H210 0.932 . S
C184 C180 1.308 . S
C184 C183 1.394 . S
C184 H211 0.929 . S
C185 Tb176 2.764 1_554 S
C185 C179 1.504 . S
C185 O197 1.239 . S
C185 O198 1.263 . S
O186 Tb176 2.325 . S
O186 C196 1.236 . S
O187 Tb177 2.322 . S
O187 C196 1.257 . S
O188 Tb177 2.349 . S
O188 C199 1.261 . S
O189 Tb176 2.303 . S
O189 C199 1.257 . S
O190 Tb177 2.415 . S
O190 C206 1.239 . S
O191 Tb177 2.399 . S
O191 C206 1.263 . S
O192 Tb177 2.325 . S
O192 C207 1.236 . S
O193 Tb176 2.322 . S
O193 C207 1.257 . S
O194 Tb176 2.349 . S
O194 C178 1.261 . S
O195 Tb177 2.303 . S
O195 C178 1.257 . S
C196 O186 1.236 . S
C196 O187 1.257 . S
O197 Tb176 2.415 1_554 S
O197 C185 1.239 . S
O198 Tb176 2.399 1_554 S
O198 C185 1.263 . S
C199 O188 1.261 . S
C199 O189 1.257 . S
C200 C203 1.358 . S
C200 C204 1.332 . S
C200 C206 1.504 . S
C201 C202 1.373 . S
C201 C205 1.308 . S
C202 C201 1.373 . S
C202 C203 1.429 . S
C202 H212 0.932 . S
C203 C200 1.358 . S
C203 C202 1.429 . S
C203 H213 0.930 . S
C204 C200 1.332 . S
C204 C205 1.394 . S
C204 H214 0.932 . S
C205 C201 1.308 . S
C205 C204 1.394 . S
C205 H215 0.929 . S
C206 Tb177 2.764 . S
C206 O190 1.239 . S
C206 O191 1.263 . S
C206 C200 1.504 . S
C207 O192 1.236 . S
C207 O193 1.257 . S
H208 C181 0.932 . S
H209 C182 0.930 . S
H210 C183 0.932 . S
H211 C184 0.929 . S
H212 C202 0.932 . S
H213 C203 0.930 . S
H214 C204 0.932 . S
H215 C205 0.929 . S
Tb216 C225 2.764 . S
Tb216 O226 2.325 . S
Tb216 O229 2.303 . S
Tb216 O233 2.322 1_455 S
Tb216 O234 2.349 . S
Tb216 O237 2.415 . S
Tb216 O238 2.399 . S
Tb217 O227 2.322 1_655 S
Tb217 O228 2.349 . S
Tb217 O230 2.415 1_556 S
Tb217 O231 2.395 1_556 S
Tb217 O232 2.325 . S
Tb217 O235 2.303 . S
Tb217 C246 2.764 1_556 S
C218 O234 1.261 . S
C218 O235 1.257 1_455 S
C219 C222 1.358 . S
C219 C223 1.332 . S
C219 C225 1.504 . S
C220 C221 1.373 . S
C220 C224 1.308 . S
C221 C220 1.373 . S
C221 C222 1.429 . S
C221 H248 0.932 . S
C222 C219 1.358 . S
C222 C221 1.429 . S
C222 H249 0.930 . S
C223 C219 1.332 . S
C223 C224 1.394 . S
C223 H250 0.932 . S
C224 C220 1.308 . S
C224 C223 1.394 . S
C224 H251 0.929 . S
C225 Tb216 2.764 . S
C225 C219 1.504 . S
C225 O237 1.239 . S
C225 O238 1.263 . S
O226 Tb216 2.325 . S
O226 C236 1.236 . S
O227 Tb217 2.322 1_455 S
O227 C236 1.257 . S
O228 Tb217 2.349 . S
O228 C239 1.261 . S
O229 Tb216 2.303 . S
O229 C239 1.257 1_455 S
O230 Tb217 2.415 1_554 S
O230 C246 1.239 . S
O231 Tb217 2.395 1_554 S
O231 C246 1.266 . S
O232 Tb217 2.325 . S
O232 C247 1.236 . S
O233 Tb216 2.322 1_655 S
O233 C247 1.257 . S
O234 Tb216 2.349 . S
O234 C218 1.261 . S
O235 Tb217 2.303 . S
O235 C218 1.257 1_655 S
C236 O226 1.236 . S
C236 O227 1.257 . S
O237 Tb216 2.415 . S
O237 C225 1.239 . S
O238 Tb216 2.399 . S
O238 C225 1.263 . S
C239 O228 1.261 . S
C239 O229 1.257 1_655 S
C240 C243 1.358 . S
C240 C244 1.332 . S
C240 C246 1.504 . S
C241 C242 1.373 . S
C241 C245 1.308 . S
C242 C241 1.373 . S
C242 C243 1.429 . S
C242 H252 0.932 . S
C243 C240 1.358 . S
C243 C242 1.429 . S
C243 H253 0.930 . S
C244 C240 1.332 . S
C244 C245 1.394 . S
C244 H254 0.932 . S
C245 C241 1.308 . S
C245 C244 1.394 . S
C245 H255 0.929 . S
C246 Tb217 2.764 1_554 S
C246 O230 1.239 . S
C246 O231 1.266 . S
C246 C240 1.504 . S
C247 O232 1.236 . S
C247 O233 1.257 . S
H248 C221 0.932 . S
H249 C222 0.930 . S
H250 C223 0.932 . S
H251 C224 0.929 . S
H252 C242 0.932 . S
H253 C243 0.930 . S
H254 C244 0.932 . S
H255 C245 0.929 . S
H256 C262 0.930 . S
H257 C265 0.930 . S
H258 C266 0.930 . S
H259 C267 0.930 . S
H260 C270 0.930 . S
H261 C271 0.930 . S
C262 H256 0.930 . S
C262 C263 1.355 1_565 S
C262 C264 1.415 . S
C263 C262 1.355 1_545 S
C263 C265 1.419 . S
C264 C262 1.415 . S
C264 C269 1.425 1_565 S
C264 C271 1.409 . S
C265 H257 0.930 . S
C265 C263 1.419 . S
C265 C266 1.362 . S
C266 H258 0.930 . S
C266 C265 1.362 . S
C266 C269 1.409 . S
C267 H259 0.930 . S
C267 C268 1.353 . S
C267 C269 1.415 . S
C268 C267 1.353 . S
C268 C270 1.421 1_545 S
C269 C264 1.425 1_545 S
C269 C266 1.409 . S
C269 C267 1.415 . S
C270 H260 0.930 . S
C270 C268 1.421 1_565 S
C270 C271 1.362 . S
C271 H261 0.930 . S
C271 C264 1.409 . S
C271 C270 1.362 . S
H272 C278 0.930 . S
H273 C281 0.930 . S
H274 C282 0.930 . S
H275 C283 0.930 . S
H276 C286 0.930 . S
H277 C287 0.930 . S
C278 H272 0.930 . S
C278 C279 1.355 . S
C278 C280 1.415 . S
C279 C278 1.355 . S
C279 C281 1.419 . S
C280 C278 1.415 . S
C280 C285 1.425 . S
C280 C287 1.409 . S
C281 H273 0.930 . S
C281 C279 1.419 . S
C281 C282 1.362 . S
C282 H274 0.930 . S
C282 C281 1.362 . S
C282 C285 1.409 . S
C283 H275 0.930 . S
C283 C284 1.355 . S
C283 C285 1.415 . S
C284 C283 1.355 . S
C284 C286 1.419 . S
C285 C280 1.425 . S
C285 C282 1.409 . S
C285 C283 1.415 . S
C286 H276 0.930 . S
C286 C284 1.419 . S
C286 C287 1.362 . S
C287 H277 0.930 . S
C287 C280 1.409 . S
C287 C286 1.362 . S
H288 C294 0.930 . S
H289 C297 0.930 . S
H290 C298 0.930 . S
H291 C299 0.930 . S
H292 C302 0.930 . S
H293 C303 0.930 . S
C294 H288 0.930 . S
C294 C295 1.355 . S
C294 C296 1.415 . S
C295 C294 1.355 . S
C295 C297 1.419 . S
C296 C294 1.415 . S
C296 C301 1.425 . S
C296 C303 1.409 . S
C297 H289 0.930 . S
C297 C295 1.419 . S
C297 C298 1.362 . S
C298 H290 0.930 . S
C298 C297 1.362 . S
C298 C301 1.409 . S
C299 H291 0.930 . S
C299 C300 1.355 . S
C299 C301 1.415 . S
C300 C299 1.355 . S
C300 C302 1.419 . S
C301 C296 1.425 . S
C301 C298 1.409 . S
C301 C299 1.415 . S
C302 H292 0.930 . S
C302 C300 1.419 . S
C302 C303 1.362 . S
C303 H293 0.930 . S
C303 C296 1.409 . S
C303 C302 1.362 . S
H304 C310 0.930 . S
H305 C313 0.930 . S
H306 C314 0.930 . S
H307 C315 0.930 . S
H308 C318 0.930 . S
H309 C319 0.930 . S
C310 H304 0.930 . S
C310 C311 1.355 1_455 S
C310 C312 1.415 . S
C311 C310 1.355 1_655 S
C311 C313 1.419 . S
C312 C310 1.415 . S
C312 C317 1.425 1_455 S
C312 C319 1.409 . S
C313 H305 0.930 . S
C313 C311 1.419 . S
C313 C314 1.362 . S
C314 H306 0.930 . S
C314 C313 1.362 . S
C314 C317 1.409 . S
C315 H307 0.930 . S
C315 C316 1.355 1_655 S
C315 C317 1.415 . S
C316 C315 1.355 1_455 S
C316 C318 1.419 . S
C317 C312 1.425 1_655 S
C317 C314 1.409 . S
C317 C315 1.415 . S
C318 H308 0.930 . S
C318 C316 1.419 . S
C318 C319 1.362 . S
C319 H309 0.930 . S
C319 C312 1.409 . S
C319 C318 1.362 . S
H320 C326 0.930 . S
H321 C329 0.927 . S
H322 C330 0.932 . S
H323 C331 0.930 1_545 S
H324 C334 0.930 1_556 S
H325 C335 0.930 . S
C326 H320 0.930 . S
C326 C327 1.355 . S
C326 C328 1.415 . S
C327 C326 1.355 . S
C327 C329 1.419 1_565 S
C328 C326 1.415 . S
C328 C333 1.426 . S
C328 C335 1.409 . S
C329 H321 0.927 . S
C329 C327 1.419 1_545 S
C329 C330 1.364 . S
C330 H322 0.932 . S
C330 C329 1.364 . S
C330 C333 1.417 1_545 S
C331 H323 0.930 1_565 S
C331 C332 1.355 . S
C331 C333 1.409 . S
C332 C331 1.355 . S
C332 C334 1.419 . S
C333 C328 1.426 . S
C333 C330 1.417 1_565 S
C333 C331 1.409 . S
C334 H324 0.930 1_554 S
C334 C332 1.419 . S
C334 C335 1.362 . S
C335 H325 0.930 . S
C335 C328 1.409 . S
C335 C334 1.362 . S
H336 C342 0.930 . S
H337 C345 0.930 . S
H338 C346 0.930 . S
H339 C347 0.930 1_554 S
H340 C350 0.930 . S
H341 C351 0.930 . S
C342 H336 0.930 . S
C342 C343 1.355 . S
C342 C344 1.415 . S
C343 C342 1.355 . S
C343 C345 1.419 1_556 S
C344 C342 1.415 . S
C344 C349 1.425 . S
C344 C351 1.409 . S
C345 H337 0.930 . S
C345 C343 1.419 1_554 S
C345 C346 1.362 . S
C346 H338 0.930 . S
C346 C345 1.362 . S
C346 C349 1.409 1_554 S
C347 H339 0.930 1_556 S
C347 C348 1.355 . S
C347 C349 1.415 . S
C348 C347 1.355 . S
C348 C350 1.419 . S
C349 C344 1.425 . S
C349 C346 1.409 1_556 S
C349 C347 1.415 . S
C350 H340 0.930 . S
C350 C348 1.419 . S
C350 C351 1.362 . S
C351 H341 0.930 . S
C351 C344 1.409 . S
C351 C350 1.362 . S
H352 C358 0.930 . S
H353 C361 0.930 . S
H354 C362 0.930 . S
H355 C363 0.930 . S
H356 C366 0.930 . S
H357 C367 0.930 . S
C358 H352 0.930 . S
C358 C359 1.355 . S
C358 C360 1.415 . S
C359 C358 1.355 . S
C359 C361 1.419 . S
C360 C358 1.415 . S
C360 C365 1.425 . S
C360 C367 1.409 . S
C361 H353 0.930 . S
C361 C359 1.419 . S
C361 C362 1.362 . S
C362 H354 0.930 . S
C362 C361 1.362 . S
C362 C365 1.409 . S
C363 H355 0.930 . S
C363 C364 1.355 . S
C363 C365 1.415 . S
C364 C363 1.355 . S
C364 C366 1.419 . S
C365 C360 1.425 . S
C365 C362 1.409 . S
C365 C363 1.415 . S
C366 H356 0.930 . S
C366 C364 1.419 . S
C366 C367 1.362 . S
C367 H357 0.930 . S
C367 C360 1.409 . S
C367 C366 1.362 . S
H368 C374 0.930 . S
H369 C377 0.930 . S
H370 C378 0.930 . S
H371 C379 0.928 1_456 S
H372 C382 0.930 . S
H373 C383 0.930 . S
C374 H368 0.930 . S
C374 C375 1.352 1_655 S
C374 C376 1.415 . S
C375 C374 1.352 1_455 S
C375 C377 1.423 . S
C376 C374 1.415 . S
C376 C381 1.423 1_655 S
C376 C383 1.409 . S
C377 H369 0.930 . S
C377 C375 1.423 . S
C377 C378 1.362 . S
C378 H370 0.930 . S
C378 C377 1.362 . S
C378 C381 1.412 . S
C379 H371 0.928 1_654 S
C379 C380 1.355 . S
C379 C381 1.415 1_655 S
C380 C379 1.355 . S
C380 C382 1.419 . S
C381 C376 1.423 1_455 S
C381 C378 1.412 . S
C381 C379 1.415 1_455 S
C382 H372 0.930 . S
C382 C380 1.419 . S
C382 C383 1.362 . S
C383 H373 0.930 . S
C383 C376 1.409 . S
C383 C382 1.362 . S
H384 C390 0.930 . S
H385 C393 0.930 . S
H386 C394 0.930 . S
H387 C395 0.930 . S
H388 C398 0.930 . S
H389 C399 0.930 . S
C390 H384 0.930 . S
C390 C391 1.355 . S
C390 C392 1.415 . S
C391 C390 1.355 . S
C391 C393 1.419 1_655 S
C392 C390 1.415 . S
C392 C397 1.425 . S
C392 C399 1.409 . S
C393 H385 0.930 . S
C393 C391 1.419 1_455 S
C393 C394 1.362 1_455 S
C394 H386 0.930 . S
C394 C393 1.362 1_655 S
C394 C397 1.409 . S
C395 H387 0.930 . S
C395 C396 1.355 . S
C395 C397 1.415 . S
C396 C395 1.355 . S
C396 C398 1.419 . S
C397 C392 1.425 . S
C397 C394 1.409 . S
C397 C395 1.415 . S
C398 H388 0.930 . S
C398 C396 1.419 . S
C398 C399 1.362 . S
C399 H389 0.930 . S
C399 C392 1.409 . S
C399 C398 1.362 . S
H400 C406 0.930 . S
H401 C409 0.930 . S
H402 C410 0.930 . S
H403 C411 0.930 1_545 S
H404 C414 0.930 . S
H405 C415 0.930 . S
C406 H400 0.930 . S
C406 C407 1.355 1_565 S
C406 C408 1.415 . S
C407 C406 1.355 1_545 S
C407 C409 1.419 . S
C408 C406 1.415 . S
C408 C413 1.425 . S
C408 C415 1.409 . S
C409 H401 0.930 . S
C409 C407 1.419 . S
C409 C410 1.362 . S
C410 H402 0.930 . S
C410 C409 1.362 . S
C410 C413 1.409 1_545 S
C411 H403 0.930 1_565 S
C411 C412 1.355 . S
C411 C413 1.415 . S
C412 C411 1.355 . S
C412 C414 1.419 . S
C413 C408 1.425 . S
C413 C410 1.409 1_565 S
C413 C411 1.415 . S
C414 H404 0.930 . S
C414 C412 1.419 . S
C414 C415 1.362 . S
C415 H405 0.930 . S
C415 C408 1.409 . S
C415 C414 1.362 . S
H416 C422 0.930 . S
H417 C425 0.930 . S
H418 C426 0.930 . S
H419 C427 0.930 . S
H420 C430 0.930 . S
H421 C431 0.930 . S
C422 H416 0.930 . S
C422 C423 1.355 . S
C422 C424 1.415 . S
C423 C422 1.355 . S
C423 C425 1.419 . S
C424 C422 1.415 . S
C424 C429 1.425 . S
C424 C431 1.409 . S
C425 H417 0.930 . S
C425 C423 1.419 . S
C425 C426 1.362 . S
C426 H418 0.930 . S
C426 C425 1.362 . S
C426 C429 1.409 . S
C427 H419 0.930 . S
C427 C428 1.355 . S
C427 C429 1.415 . S
C428 C427 1.355 . S
C428 C430 1.419 . S
C429 C424 1.425 . S
C429 C426 1.409 . S
C429 C427 1.415 . S
C430 H420 0.930 . S
C430 C428 1.419 . S
C430 C431 1.362 . S
C431 H421 0.930 . S
C431 C424 1.409 . S
C431 C430 1.362 . S
H432 C438 0.930 . S
H433 C441 0.930 . S
H434 C442 0.930 . S
H435 C443 0.930 . S
H436 C446 0.930 . S
H437 C447 0.930 . S
C438 H432 0.930 . S
C438 C439 1.355 . S
C438 C440 1.415 . S
C439 C438 1.355 . S
C439 C441 1.419 . S
C440 C438 1.415 . S
C440 C445 1.425 . S
C440 C447 1.409 . S
C441 H433 0.930 . S
C441 C439 1.419 . S
C441 C442 1.362 . S
C442 H434 0.930 . S
C442 C441 1.362 . S
C442 C445 1.409 . S
C443 H435 0.930 . S
C443 C444 1.355 . S
C443 C445 1.415 . S
C444 C443 1.355 . S
C444 C446 1.419 . S
C445 C440 1.425 . S
C445 C442 1.409 . S
C445 C443 1.415 . S
C446 H436 0.930 . S
C446 C444 1.419 . S
C446 C447 1.362 . S
C447 H437 0.930 . S
C447 C440 1.409 . S
C447 C446 1.362 . S
H448 C454 0.930 . S
H449 C457 0.930 . S
H450 C458 0.930 . S
H451 C459 0.930 . S
H452 C462 0.930 . S
H453 C463 0.930 . S
C454 H448 0.930 . S
C454 C455 1.356 1_455 S
C454 C456 1.415 . S
C455 C454 1.356 1_655 S
C455 C457 1.418 . S
C456 C454 1.415 . S
C456 C461 1.425 . S
C456 C463 1.409 . S
C457 H449 0.930 . S
C457 C455 1.418 . S
C457 C458 1.362 . S
C458 H450 0.930 . S
C458 C457 1.362 . S
C458 C461 1.409 1_655 S
C459 H451 0.930 . S
C459 C460 1.355 . S
C459 C461 1.415 . S
C460 C459 1.355 . S
C460 C462 1.419 . S
C461 C456 1.425 . S
C461 C458 1.409 1_455 S
C461 C459 1.415 . S
C462 H452 0.930 . S
C462 C460 1.419 . S
C462 C463 1.362 . S
C463 H453 0.930 . S
C463 C456 1.409 . S
C463 C462 1.362 . S
H464 C470 0.930 . S
H465 C473 0.930 . S
H466 C474 0.930 . S
H467 C475 0.930 . S
H468 C478 0.930 . S
H469 C479 0.930 . S
C470 H464 0.930 . S
C470 C471 1.355 1_545 S
C470 C472 1.415 . S
C471 C470 1.355 1_565 S
C471 C473 1.419 . S
C472 C470 1.415 . S
C472 C477 1.425 . S
C472 C479 1.409 . S
C473 H465 0.930 . S
C473 C471 1.419 . S
C473 C474 1.362 . S
C474 H466 0.930 . S
C474 C473 1.362 . S
C474 C477 1.409 1_565 S
C475 H467 0.930 . S
C475 C476 1.355 . S
C475 C477 1.415 . S
C476 C475 1.355 . S
C476 C478 1.419 . S
C477 C472 1.425 . S
C477 C474 1.409 1_545 S
C477 C475 1.415 . S
C478 H468 0.930 . S
C478 C476 1.419 . S
C478 C479 1.362 . S
C479 H469 0.930 . S
C479 C472 1.409 . S
C479 C478 1.362 . S
H480 C486 0.930 1_554 S
H481 C489 0.930 . S
H482 C490 0.930 . S
H483 C491 0.930 . S
H484 C494 0.930 1_554 S
H485 C495 0.930 . S
C486 H480 0.930 1_556 S
C486 C487 1.355 . S
C486 C488 1.415 . S
C487 C486 1.355 . S
C487 C489 1.419 . S
C488 C486 1.415 . S
C488 C493 1.425 . S
C488 C495 1.409 1_556 S
C489 H481 0.930 . S
C489 C487 1.419 . S
C489 C490 1.362 . S
C490 H482 0.930 . S
C490 C489 1.362 . S
C490 C493 1.409 . S
C491 H483 0.930 . S
C491 C492 1.355 . S
C491 C493 1.415 . S
C492 C491 1.355 . S
C492 C494 1.419 . S
C493 C488 1.425 . S
C493 C490 1.409 . S
C493 C491 1.415 . S
C494 H484 0.930 1_556 S
C494 C492 1.419 . S
C494 C495 1.362 1_556 S
C495 H485 0.930 . S
C495 C488 1.409 1_554 S
C495 C494 1.362 1_554 S
H496 C502 0.930 . S
H497 C505 0.930 . S
H498 C506 0.930 . S
H499 C507 0.930 . S
H500 C510 0.930 . S
H501 C511 0.930 . S
C502 H496 0.930 . S
C502 C503 1.355 . S
C502 C504 1.415 . S
C503 C502 1.355 . S
C503 C505 1.419 . S
C504 C502 1.415 . S
C504 C509 1.425 . S
C504 C511 1.409 . S
C505 H497 0.930 . S
C505 C503 1.419 . S
C505 C506 1.362 . S
C506 H498 0.930 . S
C506 C505 1.362 . S
C506 C509 1.409 . S
C507 H499 0.930 . S
C507 C508 1.355 . S
C507 C509 1.415 . S
C508 C507 1.355 . S
C508 C510 1.419 . S
C509 C504 1.425 . S
C509 C506 1.409 . S
C509 C507 1.415 . S
C510 H500 0.930 . S
C510 C508 1.419 . S
C510 C511 1.362 . S
C511 H501 0.930 . S
C511 C504 1.409 . S
C511 C510 1.362 . S
H512 C518 0.930 . S
H513 C521 0.930 1_556 S
H514 C522 0.930 . S
H515 C523 0.930 . S
H516 C526 0.930 . S
H517 C527 0.930 . S
C518 H512 0.930 . S
C518 C519 1.356 . S
C518 C520 1.415 . S
C519 C518 1.356 . S
C519 C521 1.417 1_455 S
C520 C518 1.415 . S
C520 C525 1.425 1_454 S
C520 C527 1.409 . S
C521 H513 0.930 1_554 S
C521 C519 1.417 1_655 S
C521 C522 1.362 1_554 S
C522 H514 0.930 . S
C522 C521 1.362 1_556 S
C522 C525 1.409 . S
C523 H515 0.930 . S
C523 C524 1.355 1_655 S
C523 C525 1.415 . S
C524 C523 1.355 1_455 S
C524 C526 1.419 1_556 S
C525 C520 1.425 1_656 S
C525 C522 1.409 . S
C525 C523 1.415 . S
C526 H516 0.930 . S
C526 C524 1.419 1_554 S
C526 C527 1.362 . S
C527 H517 0.930 . S
C527 C520 1.409 . S
C527 C526 1.362 . S
H528 C534 0.930 . S
H529 C537 0.930 . S
H530 C538 0.930 . S
H531 C539 0.930 . S
H532 C542 0.930 . S
H533 C543 0.930 . S
C534 H528 0.930 . S
C534 C535 1.355 1_566 S
C534 C536 1.415 . S
C535 C534 1.355 1_544 S
C535 C537 1.419 . S
C536 C534 1.415 . S
C536 C541 1.425 1_566 S
C536 C543 1.409 . S
C537 H529 0.930 . S
C537 C535 1.419 . S
C537 C538 1.362 . S
C538 H530 0.930 . S
C538 C537 1.362 . S
C538 C541 1.409 . S
C539 H531 0.930 . S
C539 C540 1.355 1_554 S
C539 C541 1.415 . S
C540 C539 1.355 1_556 S
C540 C542 1.419 1_545 S
C541 C536 1.425 1_544 S
C541 C538 1.409 . S
C541 C539 1.415 . S
C542 H532 0.930 . S
C542 C540 1.419 1_565 S
C542 C543 1.362 . S
C543 H533 0.930 . S
C543 C536 1.409 . S
C543 C542 1.362 . S
H544 C550 0.930 . S
H545 C553 0.930 . S
H546 C554 0.930 . S
H547 C555 0.930 . S
H548 C558 0.930 . S
H549 C559 0.930 . S
C550 H544 0.930 . S
C550 C551 1.355 . S
C550 C552 1.415 . S
C551 C550 1.355 . S
C551 C553 1.419 . S
C552 C550 1.415 . S
C552 C557 1.425 . S
C552 C559 1.409 . S
C553 H545 0.930 . S
C553 C551 1.419 . S
C553 C554 1.362 . S
C554 H546 0.930 . S
C554 C553 1.362 . S
C554 C557 1.409 . S
C555 H547 0.930 . S
C555 C556 1.355 . S
C555 C557 1.415 . S
C556 C555 1.355 . S
C556 C558 1.419 . S
C557 C552 1.425 . S
C557 C554 1.409 . S
C557 C555 1.415 . S
C558 H548 0.930 . S
C558 C556 1.419 . S
C558 C559 1.362 . S
C559 H549 0.930 . S
C559 C552 1.409 . S
C559 C558 1.362 . S
H560 C566 0.930 . S
H561 C569 0.930 1_554 S
H562 C570 0.930 . S
H563 C571 0.930 . S
H564 C574 0.930 . S
H565 C575 0.930 . S
C566 H560 0.930 . S
C566 C567 1.355 . S
C566 C568 1.415 . S
C567 C566 1.355 . S
C567 C569 1.418 . S
C568 C566 1.415 . S
C568 C573 1.425 . S
C568 C575 1.409 . S
C569 H561 0.930 1_556 S
C569 C567 1.418 . S
C569 C570 1.364 . S
C570 H562 0.930 . S
C570 C569 1.364 . S
C570 C573 1.409 . S
C571 H563 0.930 . S
C571 C572 1.355 . S
C571 C573 1.415 . S
C572 C571 1.355 . S
C572 C574 1.419 . S
C573 C568 1.425 . S
C573 C570 1.409 . S
C573 C571 1.415 . S
C574 H564 0.930 . S
C574 C572 1.419 . S
C574 C575 1.362 . S
C575 H565 0.930 . S
C575 C568 1.409 . S
C575 C574 1.362 . S
H576 C582 0.930 . S
H577 C585 0.930 . S
H578 C586 0.930 . S
H579 C587 0.930 . S
H580 C590 0.930 . S
H581 C591 0.930 . S
C582 H576 0.930 . S
C582 C583 1.355 1_455 S
C582 C584 1.415 . S
C583 C582 1.355 1_655 S
C583 C585 1.419 . S
C584 C582 1.415 . S
C584 C589 1.425 1_455 S
C584 C591 1.409 . S
C585 H577 0.930 . S
C585 C583 1.419 . S
C585 C586 1.362 . S
C586 H578 0.930 . S
C586 C585 1.362 . S
C586 C589 1.409 . S
C587 H579 0.930 . S
C587 C588 1.355 . S
C587 C589 1.415 . S
C588 C587 1.355 . S
C588 C590 1.419 1_655 S
C589 C584 1.425 1_655 S
C589 C586 1.409 . S
C589 C587 1.415 . S
C590 H580 0.930 . S
C590 C588 1.419 1_455 S
C590 C591 1.362 . S
C591 H581 0.930 . S
C591 C584 1.409 . S
C591 C590 1.362 . S
H592 C598 0.930 . S
H593 C601 0.930 . S
H594 C602 0.930 . S
H595 C603 0.930 . S
H596 C606 0.930 . S
H597 C607 0.930 . S
C598 H592 0.930 . S
C598 C599 1.352 1_565 S
C598 C600 1.415 . S
C599 C598 1.352 1_545 S
C599 C601 1.421 . S
C600 C598 1.415 . S
C600 C605 1.425 1_565 S
C600 C607 1.409 . S
C601 H593 0.930 . S
C601 C599 1.421 . S
C601 C602 1.362 . S
C602 H594 0.930 . S
C602 C601 1.362 . S
C602 C605 1.409 . S
C603 H595 0.930 . S
C603 C604 1.355 1_545 S
C603 C605 1.415 . S
C604 C603 1.355 1_565 S
C604 C606 1.419 . S
C605 C600 1.425 1_545 S
C605 C602 1.409 . S
C605 C603 1.415 . S
C606 H596 0.930 . S
C606 C604 1.419 . S
C606 C607 1.362 . S
C607 H597 0.930 . S
C607 C600 1.409 . S
C607 C606 1.362 . S
H608 C614 0.930 . S
H609 C617 0.930 . S
H610 C618 0.930 . S
H611 C619 0.930 . S
H612 C622 0.930 . S
H613 C623 0.930 . S
C614 H608 0.930 . S
C614 C615 1.355 . S
C614 C616 1.415 . S
C615 C614 1.355 . S
C615 C617 1.419 . S
C616 C614 1.415 . S
C616 C621 1.425 . S
C616 C623 1.409 . S
C617 H609 0.930 . S
C617 C615 1.419 . S
C617 C618 1.362 . S
C618 H610 0.930 . S
C618 C617 1.362 . S
C618 C621 1.409 . S
C619 H611 0.930 . S
C619 C620 1.355 . S
C619 C621 1.415 . S
C620 C619 1.355 . S
C620 C622 1.419 . S
C621 C616 1.425 . S
C621 C618 1.409 . S
C621 C619 1.415 . S
C622 H612 0.930 . S
C622 C620 1.419 . S
C622 C623 1.362 . S
C623 H613 0.930 . S
C623 C616 1.409 . S
C623 C622 1.362 . S
H624 C630 0.930 . S
H625 C633 0.930 . S
H626 C634 0.930 . S
H627 C635 0.930 . S
H628 C638 0.930 . S
H629 C639 0.930 . S
C630 H624 0.930 . S
C630 C631 1.355 . S
C630 C632 1.415 . S
C631 C630 1.355 . S
C631 C633 1.419 . S
C632 C630 1.415 . S
C632 C637 1.425 . S
C632 C639 1.409 . S
C633 H625 0.930 . S
C633 C631 1.419 . S
C633 C634 1.362 . S
C634 H626 0.930 . S
C634 C633 1.362 . S
C634 C637 1.409 . S
C635 H627 0.930 . S
C635 C636 1.355 . S
C635 C637 1.415 . S
C636 C635 1.355 . S
C636 C638 1.419 . S
C637 C632 1.425 . S
C637 C634 1.409 . S
C637 C635 1.415 . S
C638 H628 0.930 . S
C638 C636 1.419 . S
C638 C639 1.362 . S
C639 H629 0.930 . S
C639 C632 1.409 . S
C639 C638 1.362 . S
C263 C76 1.910 1_545 S
C268 C119 2.096 1_545 S
C284 C159 1.778 . S
C279 C88 1.736 . S
C300 C178 2.133 . S
C295 C52 1.966 . S
C316 C239 1.498 1_455 S
C311 C64 1.366 . S
C332 C98 2.111 1_564 S
C327 C28 1.953 . S
C343 C40 1.781 . S
C348 C138 1.750 . S
C359 C4 1.939 . S
C364 C199 2.141 1_554 S
C375 C16 1.302 1_455 S
C380 C218 1.484 1_654 S
C396 C100 0.975 . S
C391 C69 1.017 1_655 S
C412 C140 0.520 . S
C407 C81 0.469 . S
C428 C196 1.082 . S
C423 C93 1.054 . S
C439 C57 0.432 . S
C444 C220 0.461 . S
C455 C21 0.989 1_655 S
C460 C121 1.015 . S
C476 C161 0.420 . S
C471 C33 0.371 1_565 S
C492 C207 1.116 . S
C487 C45 1.085 . S
C503 C9 0.649 . S
C508 C241 0.632 . S
C519 C66 1.584 . S
C524 C116 1.733 . S
C535 C78 2.203 . S
C540 C156 2.446 . S
C556 C180 1.518 . S
C551 C90 1.510 . S
C572 C236 2.462 . S
C567 C54 2.246 1_556 S
C583 C18 1.535 1_655 S
C588 C127 1.695 . S
C604 C167 2.471 . S
C599 C30 2.260 . S
C620 C201 1.542 . S
C615 C42 1.585 . S
C631 C6 2.255 . S
C636 C247 2.463 . S
