# Generated by pormake.
# Topology tsx, (6,3)-cn, num edge types: 1
# Building blocks:
#     Node 0, Type 0, BuildingBlock: VOLQOD_clean_sbu_1, # of connection points: 6
#     Node 1, Type 0, BuildingBlock: VOLQOD_clean_sbu_1, # of connection points: 6
#     Node 2, Type 1, BuildingBlock: BETDIP_clean_linker_0, # of connection points: 3
#     Node 3, Type 1, BuildingBlock: BETDIP_clean_linker_0, # of connection points: 3
#     Node 4, Type 1, BuildingBlock: BETDIP_clean_linker_0, # of connection points: 3
#     Node 5, Type 1, BuildingBlock: BETDIP_clean_linker_0, # of connection points: 3
#     Edge 6, Type (0, 1), BuildingBlock: CIFDUS_clean_linker_0, # of connection points: 2
#     Edge 7, Type (0, 1), BuildingBlock: CIFDUS_clean_linker_0, # of connection points: 2
#     Edge 8, Type (0, 1), BuildingBlock: CIFDUS_clean_linker_0, # of connection points: 2
#     Edge 9, Type (0, 1), BuildingBlock: CIFDUS_clean_linker_0, # of connection points: 2
#     Edge 10, Type (0, 1), BuildingBlock: CIFDUS_clean_linker_0, # of connection points: 2
#     Edge 11, Type (0, 1), BuildingBlock: CIFDUS_clean_linker_0, # of connection points: 2
#     Edge 12, Type (0, 1), BuildingBlock: CIFDUS_clean_linker_0, # of connection points: 2
#     Edge 13, Type (0, 1), BuildingBlock: CIFDUS_clean_linker_0, # of connection points: 2
#     Edge 14, Type (0, 1), BuildingBlock: CIFDUS_clean_linker_0, # of connection points: 2
#     Edge 15, Type (0, 1), BuildingBlock: CIFDUS_clean_linker_0, # of connection points: 2
#     Edge 16, Type (0, 1), BuildingBlock: CIFDUS_clean_linker_0, # of connection points: 2
#     Edge 17, Type (0, 1), BuildingBlock: CIFDUS_clean_linker_0, # of connection points: 2
# Relax obj value: 0.058
# Max RMSD: 0.116
# Mean RMSD: 0.104
data_MOF--net-tsx--node1-VOLQOD_clean_sbu_1--node2-BETDIP_clean_linker_0--edge1-CIFDUS_clean_linker_0
_symmetry_space_group_name_H-M    P1
_symmetry_Int_Tables_number       1
_symmetry_cell_setting            triclinic
loop_
_symmetry_equiv_pos_as_xyz
'x, y, z'
_cell_length_a     18.523812
_cell_length_b     19.278922
_cell_length_c     33.254261
_cell_angle_alpha  90.158192
_cell_angle_beta   98.767165
_cell_angle_gamma 89.793511
loop_
_atom_site_label
_atom_site_type_symbol
_atom_site_fract_x
_atom_site_fract_y
_atom_site_fract_z
_atom_type_partial_charge
O0 O 0.0535 0.97943 0.09709 0.0
Zn1 Zn 0.08121 0.98022 0.04065 0.0
O2 O 0.99736 0.99236 -0.00179 0.0
Zn3 Zn 0.98661 0.90673 0.9658 0.0
Zn4 Zn 0.91259 0.00759 0.02484 0.0
Zn5 Zn 0.00811 0.074 0.96399 0.0
O6 O 0.98585 0.93014 0.90677 0.0
O7 O 0.00729 0.0436 0.9053 0.0
O8 O 0.1384 0.89397 0.03328 0.0
O9 O 0.07288 0.84135 0.9808 0.0
O10 O 0.89407 0.85534 0.97348 0.0
O11 O 0.84527 0.92763 0.01405 0.0
O12 O 0.85714 0.09291 0.00558 0.0
O13 O 0.15013 0.0578 0.03739 0.0
O14 O 0.92496 0.14415 0.96497 0.0
O15 O 0.10423 0.1222 0.98411 0.0
C16 C 0.9952 0.99853 0.10989 0.0
C17 C 0.99674 0.98511 0.88731 0.0
C18 C 0.84345 0.87131 0.99393 0.0
C19 C 0.12903 0.84379 0.00818 0.0
C20 C 0.86849 0.14307 0.98268 0.0
C21 C 0.15445 0.10905 0.01388 0.0
O22 O 0.9382 0.01524 0.0855 0.0
O23 O 0.61113 0.52502 0.58928 0.0
Zn24 Zn 0.62705 0.5221 0.53067 0.0
O25 O 0.53282 0.52906 0.49457 0.0
Zn26 Zn 0.51445 0.44458 0.46151 0.0
Zn27 Zn 0.45246 0.54133 0.52601 0.0
Zn28 Zn 0.5366 0.6097 0.45977 0.0
O29 O 0.50387 0.4676 0.40141 0.0
O30 O 0.52408 0.58118 0.40121 0.0
O31 O 0.67845 0.43187 0.52133 0.0
O32 O 0.59965 0.37924 0.47404 0.0
O33 O 0.42458 0.39215 0.47345 0.0
O34 O 0.38209 0.46151 0.51777 0.0
O35 O 0.39503 0.62955 0.51141 0.0
O36 O 0.69425 0.60236 0.52281 0.0
O37 O 0.4558 0.67621 0.46575 0.0
O38 O 0.63043 0.66325 0.47315 0.0
C39 C 0.55466 0.53426 0.60626 0.0
C40 C 0.51044 0.52403 0.38236 0.0
C41 C 0.37771 0.40599 0.49674 0.0
C42 C 0.66028 0.3802 0.49799 0.0
C43 C 0.40403 0.6782 0.48685 0.0
C44 C 0.68788 0.65444 0.49897 0.0
O45 O 0.49156 0.54252 0.58551 0.0
H46 H 0.99646 0.93724 0.46489 0.0
H47 H 0.89646 0.99216 0.34407 0.0
H48 H 0.10325 0.88509 0.36305 0.0
H49 H 0.9469 0.04786 0.47665 0.0
C50 C 0.89377 0.04643 0.45769 0.0
C51 C 0.99779 0.93833 0.43251 0.0
C52 C 0.0561 0.90702 0.41691 0.0
C53 C 0.94141 0.97095 0.40611 0.0
C54 C 0.94161 0.96872 0.36402 0.0
C55 C 1.00002 0.93818 0.34786 0.0
C56 C 0.05729 0.90818 0.3748 0.0
N57 N 0.88441 0.00781 0.42083 0.0
H58 H 0.0106 0.98078 0.53176 0.0
H59 H 0.06177 0.10537 0.63968 0.0
H60 H 0.94924 0.91158 0.64435 0.0
H61 H 0.02542 0.19136 0.58728 0.0
C62 C 0.06404 0.17331 0.56796 0.0
C63 C 0.00877 0.98884 0.56376 0.0
C64 C 0.97755 0.93832 0.58607 0.0
C65 C 0.03714 0.05021 0.58264 0.0
C66 C 0.0367 0.05964 0.62467 0.0
C67 C 0.00647 0.00918 0.64759 0.0
C68 C 0.97602 0.9494 0.62765 0.0
N69 N 0.06761 0.10119 0.55931 0.0
H70 H 0.54305 0.46506 0.95934 0.0
H71 H 0.4232 0.54062 0.84731 0.0
H72 H 0.63127 0.44134 0.84743 0.0
H73 H 0.47555 0.57572 0.97817 0.0
C74 C 0.42209 0.56427 0.96116 0.0
C75 C 0.53954 0.47395 0.92694 0.0
C76 C 0.59603 0.45095 0.90605 0.0
C77 C 0.47719 0.50622 0.90532 0.0
C78 C 0.47153 0.51541 0.86333 0.0
C79 C 0.52754 0.49377 0.84219 0.0
C80 C 0.58949 0.46158 0.86385 0.0
N81 N 0.41689 0.52694 0.92408 0.0
H82 H 0.4606 0.46592 0.024 0.0
H83 H 0.54863 0.55519 0.13948 0.0
H84 H 0.4117 0.37498 0.13462 0.0
H85 H 0.5096 0.65586 0.0961 0.0
C86 C 0.54157 0.64019 0.07274 0.0
C87 C 0.46635 0.46541 0.05689 0.0
C88 C 0.43195 0.41392 0.07666 0.0
C89 C 0.50665 0.51734 0.0794 0.0
C90 C 0.51521 0.51621 0.12213 0.0
C91 C 0.48216 0.4642 0.14245 0.0
C92 C 0.4402 0.41354 0.11937 0.0
N93 N 0.53803 0.57067 0.05863 0.0
H94 H 0.17225 0.23941 0.98469 0.0
H95 H 0.28179 0.08064 0.06312 0.0
H96 H 0.38232 0.15911 0.08536 0.0
H97 H 0.43269 0.27588 0.08854 0.0
H98 H 0.32312 0.4372 0.01277 0.0
H99 H 0.23015 0.35436 0.98269 0.0
C100 C 0.2186 0.22177 0.00619 0.0
C101 C 0.21874 0.15474 0.02279 0.0
C102 C 0.2762 0.26762 0.01942 0.0
C103 C 0.27952 0.13242 0.05041 0.0
C104 C 0.33725 0.17716 0.06314 0.0
C105 C 0.3888 0.29257 0.0651 0.0
C106 C 0.38381 0.36234 0.05329 0.0
C107 C 0.33504 0.24536 0.04881 0.0
C108 C 0.32782 0.38348 0.02234 0.0
C109 C 0.27442 0.33633 0.0054 0.0
H110 H 0.12544 0.72317 0.96462 0.0
H111 H 0.26524 0.84549 0.05337 0.0
H112 H 0.36665 0.76627 0.04914 0.0
H113 H 0.41886 0.66836 0.01552 0.0
H114 H 0.27915 0.54553 0.92743 0.0
H115 H 0.17481 0.61848 0.93624 0.0
C116 C 0.17782 0.73216 0.98337 0.0
C117 C 0.18761 0.79078 0.0089 0.0
C118 C 0.23628 0.68648 0.98073 0.0
C119 C 0.25591 0.80106 0.03327 0.0
C120 C 0.3142 0.75584 0.03083 0.0
C121 C 0.36529 0.65678 -0.00103 0.0
C122 C 0.35705 0.60217 0.97067 0.0
C123 C 0.30545 0.69923 0.00403 0.0
C124 C 0.28731 0.58788 0.9491 0.0
C125 C 0.22749 0.6296 0.95409 0.0
H126 H 0.72553 0.89417 0.031 0.0
H127 H 0.82816 0.7368 0.96609 0.0
H128 H 0.7388 0.65161 0.98176 0.0
H129 H 0.63923 0.61987 0.01976 0.0
H130 H 0.54247 0.77738 0.08728 0.0
H131 H 0.62226 0.86489 0.06462 0.0
C132 C 0.72826 0.84142 0.01987 0.0
C133 C 0.78413 0.82173 -0.00216 0.0
C134 C 0.67818 0.79269 0.02981 0.0
C135 C 0.78595 0.75331 0.98328 0.0
C136 C 0.7351 0.70451 0.9924 0.0
C137 C 0.63521 0.67348 0.02914 0.0
C138 C 0.58575 0.69242 0.05547 0.0
C139 C 0.68221 0.72325 0.01658 0.0
C140 C 0.58073 0.76188 0.06729 0.0
C141 C 0.62622 0.81178 0.05436 0.0
H142 H 0.88049 0.27007 0.9476 0.0
H143 H 0.7317 0.14325 0.00341 0.0
H144 H 0.63719 0.23163 0.98953 0.0
H145 H 0.59251 0.34014 0.95592 0.0
H146 H 0.74024 0.4674 0.90006 0.0
H147 H 0.8393 0.38457 0.92016 0.0
C148 C 0.82755 0.26194 0.9569 0.0
C149 C 0.81323 0.19955 0.97603 0.0
C150 C 0.77301 0.31327 0.94893 0.0
C151 C 0.74444 0.19045 0.98839 0.0
C152 C 0.6901 0.24107 0.9805 0.0
C153 C 0.6469 0.35064 0.94917 0.0
C154 C 0.6589 0.40947 0.9263 0.0
C155 C 0.70328 0.30214 0.96016 0.0
C156 C 0.72955 0.42205 0.91737 0.0
C157 C 0.78611 0.37455 0.92867 0.0
H158 H 0.81788 0.65405 0.5501 0.0
H159 H 0.68678 0.77832 0.4586 0.0
H160 H 0.77174 0.87477 0.47332 0.0
H161 H 0.87441 0.92897 0.51851 0.0
H162 H 0.00248 0.80529 0.61117 0.0
H163 H 0.92848 0.70352 0.58929 0.0
C164 C 0.80826 0.70183 0.53294 0.0
C165 C 0.74519 0.709 0.50376 0.0
C166 C 0.85679 0.75759 0.54194 0.0
C167 C 0.73437 0.77128 0.48155 0.0
C168 C 0.78294 0.82671 0.48999 0.0
C169 C 0.88716 0.87924 0.53311 0.0
C170 C 0.94318 0.87468 0.56667 0.0
C171 C 0.84311 0.82122 0.521 0.0
C172 C 0.95902 0.81007 0.58553 0.0
C173 C 0.91658 0.75198 0.57314 0.0
H174 H 0.6368 0.26106 0.45427 0.0
H175 H 0.79713 0.36389 0.54213 0.0
H176 H 0.88146 0.26663 0.53976 0.0
H177 H 0.91198 0.15491 0.50983 0.0
H178 H 0.75182 0.05491 0.42081 0.0
H179 H 0.66481 0.14818 0.42695 0.0
C180 C 0.69004 0.26234 0.47307 0.0
C181 C 0.71064 0.32014 0.49809 0.0
C182 C 0.73833 0.20661 0.47138 0.0
C183 C 0.77983 0.32033 0.52241 0.0
C184 C 0.82813 0.26469 0.52111 0.0
C185 C 0.8577 0.15341 0.49216 0.0
C186 C 0.83849 0.09866 0.46467 0.0
C187 C 0.80827 0.20792 0.49533 0.0
C188 C 0.76812 0.09691 0.44191 0.0
C189 C 0.71835 0.15026 0.44536 0.0
H190 H 0.25926 0.42683 0.53442 0.0
H191 H 0.36534 0.27036 0.47081 0.0
H192 H 0.27593 0.18443 0.48541 0.0
H193 H 0.17147 0.15214 0.52009 0.0
H194 H 0.067 0.31016 0.58334 0.0
H195 H 0.15176 0.3969 0.56495 0.0
C196 C 0.26276 0.37406 0.52346 0.0
C197 C 0.3195 0.35516 0.5018 0.0
C198 C 0.21151 0.32494 0.53212 0.0
C199 C 0.32239 0.28655 0.48756 0.0
C200 C 0.27138 0.23722 0.49605 0.0
C201 C 0.16703 0.20565 0.52955 0.0
C202 C 0.11337 0.22472 0.55334 0.0
C203 C 0.21632 0.25553 0.51889 0.0
C204 C 0.10807 0.29426 0.56518 0.0
C205 C 0.15655 0.34388 0.55472 0.0
H206 H 0.26774 0.68583 0.50879 0.0
H207 H 0.4213 0.80112 0.4497 0.0
H208 H 0.3288 0.88896 0.42859 0.0
H209 H 0.2008 0.92454 0.41873 0.0
H210 H 0.0443 0.80787 0.4742 0.0
H211 H 0.14169 0.73033 0.50599 0.0
C212 C 0.2813 0.73082 0.49195 0.0
C213 C 0.35096 0.73614 0.48018 0.0
C214 C 0.22722 0.78079 0.47912 0.0
C215 C 0.36777 0.79502 0.45856 0.0
C216 C 0.31493 0.84543 0.44648 0.0
C217 C 0.18837 0.88273 0.43834 0.0
C218 C 0.11568 0.87088 0.44357 0.0
C219 C 0.24393 0.83748 0.4553 0.0
C220 C 0.10005 0.81766 0.46966 0.0
C221 C 0.15557 0.77302 0.48749 0.0
H222 H 0.04838 0.90094 0.1646 0.0
H223 H 0.9333 0.09622 0.1529 0.0
H224 H 0.92535 0.09565 0.22577 0.0
H225 H 0.95201 0.03968 0.2926 0.0
H226 H 0.05379 0.83705 0.30208 0.0
H227 H 0.06684 0.84093 0.23048 0.0
C228 C 0.02206 0.94348 0.17821 0.0
C229 C 0.99228 0.99894 0.15385 0.0
C230 C 0.01534 0.94149 0.21966 0.0
C231 C 0.95683 0.05316 0.17134 0.0
C232 C 0.95223 0.05278 0.21289 0.0
C233 C 0.97588 0.99569 0.27902 0.0
C234 C 0.00277 0.93865 0.30324 0.0
C235 C 0.98103 0.99701 0.23732 0.0
C236 C 0.0344 0.88269 0.28477 0.0
C237 C 0.04144 0.88448 0.24362 0.0
H238 H 0.98653 0.08939 0.8309 0.0
H239 H 0.01612 0.86789 0.84448 0.0
H240 H 0.0253 0.85689 0.77252 0.0
H241 H 0.02569 0.90924 0.70602 0.0
H242 H 0.98698 0.12915 0.69002 0.0
H243 H 0.98301 0.14177 0.7628 0.0
C244 C 0.99497 0.03875 0.81808 0.0
C245 C 1.00048 0.97959 0.84317 0.0
C246 C 0.99933 0.03248 0.77631 0.0
C247 C 0.01111 0.91431 0.82596 0.0
C248 C 0.0167 0.90791 0.78478 0.0
C249 C 0.01525 0.95995 0.71814 0.0
C250 C 0.00625 0.01801 0.69222 0.0
C251 C 0.01072 0.96653 0.75968 0.0
C252 C 0.99502 0.08351 0.7091 0.0
C253 C 0.99206 0.09073 0.75074 0.0
H254 H 0.44717 0.51102 0.65122 0.0
H255 H 0.67809 0.55282 0.66178 0.0
H256 H 0.68947 0.54664 0.73593 0.0
H257 H 0.63387 0.528 0.79745 0.0
H258 H 0.40451 0.47774 0.78591 0.0
H259 H 0.39231 0.49022 0.71236 0.0
C260 C 0.49995 0.51929 0.66972 0.0
C261 C 0.56164 0.5326 0.65106 0.0
C262 C 0.50632 0.51444 0.71212 0.0
C263 C 0.62979 0.54233 0.67544 0.0
C264 C 0.63631 0.53888 0.7178 0.0
C265 C 0.58133 0.5191 0.77887 0.0
C266 C 0.5202 0.50224 0.79736 0.0
C267 C 0.575 0.52449 0.73642 0.0
C268 C 0.45227 0.49207 0.77272 0.0
C269 C 0.44529 0.4986 0.73056 0.0
H270 H 0.51246 0.41241 0.33199 0.0
H271 H 0.49171 0.63562 0.33163 0.0
H272 H 0.48137 0.63669 0.25772 0.0
H273 H 0.47756 0.57465 0.19311 0.0
H274 H 0.50285 0.352 0.1932 0.0
H275 H 0.51119 0.3504 0.26718 0.0
C276 C 0.50539 0.46125 0.31574 0.0
C277 C 0.50281 0.52376 0.33739 0.0
C278 C 0.50021 0.4617 0.27315 0.0
C279 C 0.49416 0.58667 0.31581 0.0
C280 C 0.48817 0.58742 0.27349 0.0
C281 C 0.48585 0.52583 0.20932 0.0
C282 C 0.48953 0.46359 0.18758 0.0
C283 C 0.49138 0.52531 0.25186 0.0
C284 C 0.49892 0.40065 0.2091 0.0
C285 C 0.50404 0.39968 0.25144 0.0
loop_
_geom_bond_atom_site_label_1
_geom_bond_atom_site_label_2
_geom_bond_distance
_geom_bond_site_symmetry_2
_ccdc_geom_bond_type
O0 Zn1 1.953 . S
O0 C16 1.225 1_565 S
Zn1 O0 1.953 . S
Zn1 O2 1.949 1_565 S
Zn1 O8 1.919 . S
Zn1 O13 1.924 1_565 S
O2 Zn1 1.949 1_545 S
O2 Zn3 1.923 1_444 S
O2 Zn4 1.950 1_455 S
O2 Zn5 1.945 1_554 S
Zn3 O2 1.923 1_666 S
Zn3 O6 1.933 . S
Zn3 O9 1.941 1_655 S
Zn3 O10 1.965 . S
Zn4 O2 1.950 1_655 S
Zn4 O11 1.938 1_545 S
Zn4 O12 1.906 . S
Zn4 O22 1.953 . S
Zn5 O2 1.945 1_556 S
Zn5 O7 1.932 . S
Zn5 O14 1.977 1_455 S
Zn5 O15 1.910 . S
O6 Zn3 1.933 . S
O6 C17 1.226 1_565 S
O7 Zn5 1.932 . S
O7 C17 1.307 1_455 S
O8 Zn1 1.919 . S
O8 C19 1.253 1_554 S
O9 Zn3 1.941 1_455 S
O9 C19 1.283 . S
O10 Zn3 1.965 . S
O10 C18 1.303 1_556 S
O11 Zn4 1.938 1_565 S
O11 C18 1.247 . S
O12 Zn4 1.906 . S
O12 C20 1.304 1_554 S
O13 Zn1 1.924 1_545 S
O13 C21 1.311 . S
O14 Zn5 1.977 1_655 S
O14 C20 1.272 . S
O15 Zn5 1.910 . S
O15 C21 1.231 1_556 S
C16 O0 1.225 1_545 S
C16 O22 1.298 1_455 S
C17 O6 1.226 1_545 S
C17 O7 1.307 1_655 S
C18 O10 1.303 1_554 S
C18 O11 1.247 . S
C19 O8 1.253 1_556 S
C19 O9 1.283 . S
C20 O12 1.304 1_556 S
C20 O14 1.272 . S
C21 O13 1.311 . S
C21 O15 1.231 1_554 S
O22 Zn4 1.953 . S
O22 C16 1.298 1_655 S
O23 Zn24 1.953 . S
O23 C39 1.225 . S
Zn24 O23 1.953 . S
Zn24 O25 1.949 . S
Zn24 O31 1.919 . S
Zn24 O36 1.924 . S
O25 Zn24 1.949 . S
O25 Zn26 1.923 . S
O25 Zn27 1.950 . S
O25 Zn28 1.945 . S
Zn26 O25 1.923 . S
Zn26 O29 1.933 . S
Zn26 O32 1.941 . S
Zn26 O33 1.965 . S
Zn27 O25 1.950 . S
Zn27 O34 1.938 . S
Zn27 O35 1.906 . S
Zn27 O45 1.953 . S
Zn28 O25 1.945 . S
Zn28 O30 1.932 . S
Zn28 O37 1.977 . S
Zn28 O38 1.910 . S
O29 Zn26 1.933 . S
O29 C40 1.226 . S
O30 Zn28 1.932 . S
O30 C40 1.307 . S
O31 Zn24 1.919 . S
O31 C42 1.253 . S
O32 Zn26 1.941 . S
O32 C42 1.283 . S
O33 Zn26 1.965 . S
O33 C41 1.303 . S
O34 Zn27 1.938 . S
O34 C41 1.247 . S
O35 Zn27 1.906 . S
O35 C43 1.304 . S
O36 Zn24 1.924 . S
O36 C44 1.311 . S
O37 Zn28 1.977 . S
O37 C43 1.272 . S
O38 Zn28 1.910 . S
O38 C44 1.231 . S
C39 O23 1.225 . S
C39 O45 1.298 . S
C40 O29 1.226 . S
C40 O30 1.307 . S
C41 O33 1.303 . S
C41 O34 1.247 . S
C42 O31 1.253 . S
C42 O32 1.283 . S
C43 O35 1.304 . S
C43 O37 1.272 . S
C44 O36 1.311 . S
C44 O38 1.231 . S
O45 Zn27 1.953 . S
O45 C39 1.298 . S
H46 C51 0.930 . S
H47 C54 0.930 . S
H48 C56 0.930 . S
H49 C50 1.016 . S
C50 H49 1.016 . S
C50 N57 1.286 . S
C51 H46 0.930 . S
C51 C52 1.397 . S
C51 C53 1.361 1_465 S
C52 C51 1.397 . S
C52 C56 1.390 . S
C53 C51 1.361 1_645 S
C53 C54 1.393 . S
C53 N57 1.413 . S
C54 H47 0.930 . S
C54 C53 1.393 . S
C54 C55 1.399 1_645 S
C55 C54 1.399 1_465 S
C55 C56 1.381 . S
C56 H48 0.930 . S
C56 C52 1.390 . S
C56 C55 1.381 . S
N57 C50 1.286 . S
N57 C53 1.413 . S
H58 C63 0.930 . S
H59 C66 0.930 . S
H60 C68 0.930 . S
H61 C62 1.016 . S
C62 H61 1.016 . S
C62 N69 1.286 . S
C63 H58 0.930 . S
C63 C64 1.397 . S
C63 C65 1.361 1_665 S
C64 C63 1.397 . S
C64 C68 1.390 . S
C65 C63 1.361 1_445 S
C65 C66 1.393 . S
C65 N69 1.413 . S
C66 H59 0.930 . S
C66 C65 1.393 . S
C66 C67 1.399 1_445 S
C67 C66 1.399 1_665 S
C67 C68 1.381 . S
C68 H60 0.930 . S
C68 C64 1.390 . S
C68 C67 1.381 . S
N69 C62 1.286 . S
N69 C65 1.413 . S
H70 C75 0.930 . S
H71 C78 0.930 . S
H72 C80 0.930 . S
H73 C74 1.016 . S
C74 H73 1.016 . S
C74 N81 1.286 . S
C75 H70 0.930 . S
C75 C76 1.397 . S
C75 C77 1.361 . S
C76 C75 1.397 . S
C76 C80 1.390 . S
C77 C75 1.361 . S
C77 C78 1.393 . S
C77 N81 1.413 . S
C78 H71 0.930 . S
C78 C77 1.393 . S
C78 C79 1.399 . S
C79 C78 1.399 . S
C79 C80 1.381 . S
C80 H72 0.930 . S
C80 C76 1.390 . S
C80 C79 1.381 . S
N81 C74 1.286 . S
N81 C77 1.413 . S
H82 C87 0.930 . S
H83 C90 0.930 . S
H84 C92 0.930 . S
H85 C86 1.016 . S
C86 H85 1.016 . S
C86 N93 1.286 . S
C87 H82 0.930 . S
C87 C88 1.397 . S
C87 C89 1.361 . S
C88 C87 1.397 . S
C88 C92 1.390 . S
C89 C87 1.361 . S
C89 C90 1.393 . S
C89 N93 1.413 . S
C90 H83 0.930 . S
C90 C89 1.393 . S
C90 C91 1.399 . S
C91 C90 1.399 . S
C91 C92 1.381 . S
C92 H84 0.930 . S
C92 C88 1.390 . S
C92 C91 1.381 . S
N93 C86 1.286 . S
N93 C89 1.413 . S
H94 C100 0.930 . S
H95 C103 0.930 . S
H96 C104 0.930 . S
H97 C105 0.930 . S
H98 C108 0.930 . S
H99 C109 0.930 . S
C100 H94 0.930 . S
C100 C101 1.355 . S
C100 C102 1.415 . S
C101 C100 1.355 . S
C101 C103 1.419 . S
C102 C100 1.415 . S
C102 C107 1.425 . S
C102 C109 1.409 . S
C103 H95 0.930 . S
C103 C101 1.419 . S
C103 C104 1.362 . S
C104 H96 0.930 . S
C104 C103 1.362 . S
C104 C107 1.409 . S
C105 H97 0.930 . S
C105 C106 1.355 . S
C105 C107 1.415 . S
C106 C105 1.355 . S
C106 C108 1.419 . S
C107 C102 1.425 . S
C107 C104 1.409 . S
C107 C105 1.415 . S
C108 H98 0.930 . S
C108 C106 1.419 . S
C108 C109 1.362 . S
C109 H99 0.930 . S
C109 C102 1.409 . S
C109 C108 1.362 . S
H110 C116 0.930 1_554 S
H111 C119 0.930 . S
H112 C120 0.930 . S
H113 C121 0.930 . S
H114 C124 0.930 . S
H115 C125 0.930 1_554 S
C116 H110 0.930 1_556 S
C116 C117 1.355 . S
C116 C118 1.415 . S
C117 C116 1.355 . S
C117 C119 1.419 . S
C118 C116 1.415 . S
C118 C123 1.425 . S
C118 C125 1.409 . S
C119 H111 0.930 . S
C119 C117 1.419 . S
C119 C120 1.362 . S
C120 H112 0.930 . S
C120 C119 1.362 . S
C120 C123 1.409 . S
C121 H113 0.930 . S
C121 C122 1.355 . S
C121 C123 1.415 . S
C122 C121 1.355 . S
C122 C124 1.419 . S
C123 C118 1.425 . S
C123 C120 1.409 . S
C123 C121 1.415 . S
C124 H114 0.930 . S
C124 C122 1.419 . S
C124 C125 1.362 . S
C125 H115 0.930 1_556 S
C125 C118 1.409 . S
C125 C124 1.362 . S
H126 C132 0.930 . S
H127 C135 0.930 . S
H128 C136 0.930 . S
H129 C137 0.930 1_556 S
H130 C140 0.930 . S
H131 C141 0.930 . S
C132 H126 0.930 . S
C132 C133 1.355 . S
C132 C134 1.415 . S
C133 C132 1.355 . S
C133 C135 1.419 1_554 S
C134 C132 1.415 . S
C134 C139 1.425 . S
C134 C141 1.409 . S
C135 H127 0.930 . S
C135 C133 1.419 1_556 S
C135 C136 1.362 . S
C136 H128 0.930 . S
C136 C135 1.362 . S
C136 C139 1.409 1_556 S
C137 H129 0.930 1_554 S
C137 C138 1.355 . S
C137 C139 1.415 . S
C138 C137 1.355 . S
C138 C140 1.419 . S
C139 C134 1.425 . S
C139 C136 1.409 1_554 S
C139 C137 1.415 . S
C140 H130 0.930 . S
C140 C138 1.419 . S
C140 C141 1.362 . S
C141 H131 0.930 . S
C141 C134 1.409 . S
C141 C140 1.362 . S
H142 C148 0.930 . S
H143 C151 0.930 1_554 S
H144 C152 0.930 1_554 S
H145 C153 0.930 . S
H146 C156 0.930 . S
H147 C157 0.930 . S
C148 H142 0.930 . S
C148 C149 1.355 . S
C148 C150 1.415 . S
C149 C148 1.355 . S
C149 C151 1.419 . S
C150 C148 1.415 . S
C150 C155 1.425 . S
C150 C157 1.409 . S
C151 H143 0.930 1_556 S
C151 C149 1.419 . S
C151 C152 1.362 . S
C152 H144 0.930 1_556 S
C152 C151 1.362 . S
C152 C155 1.409 . S
C153 H145 0.930 . S
C153 C154 1.355 . S
C153 C155 1.415 . S
C154 C153 1.355 . S
C154 C156 1.419 . S
C155 C150 1.425 . S
C155 C152 1.409 . S
C155 C153 1.415 . S
C156 H146 0.930 . S
C156 C154 1.419 . S
C156 C157 1.362 . S
C157 H147 0.930 . S
C157 C150 1.409 . S
C157 C156 1.362 . S
H158 C164 0.930 . S
H159 C167 0.930 . S
H160 C168 0.930 . S
H161 C169 0.930 . S
H162 C172 0.930 . S
H163 C173 0.930 . S
C164 H158 0.930 . S
C164 C165 1.355 . S
C164 C166 1.415 . S
C165 C164 1.355 . S
C165 C167 1.419 . S
C166 C164 1.415 . S
C166 C171 1.425 . S
C166 C173 1.409 . S
C167 H159 0.930 . S
C167 C165 1.419 . S
C167 C168 1.362 . S
C168 H160 0.930 . S
C168 C167 1.362 . S
C168 C171 1.409 . S
C169 H161 0.930 . S
C169 C170 1.355 . S
C169 C171 1.415 . S
C170 C169 1.355 . S
C170 C172 1.419 . S
C171 C166 1.425 . S
C171 C168 1.409 . S
C171 C169 1.415 . S
C172 H162 0.930 . S
C172 C170 1.419 . S
C172 C173 1.362 . S
C173 H163 0.930 . S
C173 C166 1.409 . S
C173 C172 1.362 . S
H174 C180 0.930 . S
H175 C183 0.930 . S
H176 C184 0.930 . S
H177 C185 0.930 . S
H178 C188 0.930 . S
H179 C189 0.930 . S
C180 H174 0.930 . S
C180 C181 1.355 . S
C180 C182 1.415 . S
C181 C180 1.355 . S
C181 C183 1.419 . S
C182 C180 1.415 . S
C182 C187 1.425 . S
C182 C189 1.409 . S
C183 H175 0.930 . S
C183 C181 1.419 . S
C183 C184 1.362 . S
C184 H176 0.930 . S
C184 C183 1.362 . S
C184 C187 1.409 . S
C185 H177 0.930 . S
C185 C186 1.355 . S
C185 C187 1.415 . S
C186 C185 1.355 . S
C186 C188 1.419 . S
C187 C182 1.425 . S
C187 C184 1.409 . S
C187 C185 1.415 . S
C188 H178 0.930 . S
C188 C186 1.419 . S
C188 C189 1.362 . S
C189 H179 0.930 . S
C189 C182 1.409 . S
C189 C188 1.362 . S
H190 C196 0.930 . S
H191 C199 0.930 . S
H192 C200 0.930 . S
H193 C201 0.930 . S
H194 C204 0.930 . S
H195 C205 0.930 . S
C196 H190 0.930 . S
C196 C197 1.355 . S
C196 C198 1.415 . S
C197 C196 1.355 . S
C197 C199 1.419 . S
C198 C196 1.415 . S
C198 C203 1.425 . S
C198 C205 1.409 . S
C199 H191 0.930 . S
C199 C197 1.419 . S
C199 C200 1.362 . S
C200 H192 0.930 . S
C200 C199 1.362 . S
C200 C203 1.409 . S
C201 H193 0.930 . S
C201 C202 1.355 . S
C201 C203 1.415 . S
C202 C201 1.355 . S
C202 C204 1.419 . S
C203 C198 1.425 . S
C203 C200 1.409 . S
C203 C201 1.415 . S
C204 H194 0.930 . S
C204 C202 1.419 . S
C204 C205 1.362 . S
C205 H195 0.930 . S
C205 C198 1.409 . S
C205 C204 1.362 . S
H206 C212 0.930 . S
H207 C215 0.930 . S
H208 C216 0.930 . S
H209 C217 0.930 . S
H210 C220 0.930 . S
H211 C221 0.930 . S
C212 H206 0.930 . S
C212 C213 1.355 . S
C212 C214 1.415 . S
C213 C212 1.355 . S
C213 C215 1.419 . S
C214 C212 1.415 . S
C214 C219 1.425 . S
C214 C221 1.409 . S
C215 H207 0.930 . S
C215 C213 1.419 . S
C215 C216 1.362 . S
C216 H208 0.930 . S
C216 C215 1.362 . S
C216 C219 1.409 . S
C217 H209 0.930 . S
C217 C218 1.355 . S
C217 C219 1.415 . S
C218 C217 1.355 . S
C218 C220 1.419 . S
C219 C214 1.425 . S
C219 C216 1.409 . S
C219 C217 1.415 . S
C220 H210 0.930 . S
C220 C218 1.419 . S
C220 C221 1.362 . S
C221 H211 0.930 . S
C221 C214 1.409 . S
C221 C220 1.362 . S
H222 C228 0.930 . S
H223 C231 0.930 . S
H224 C232 0.930 . S
H225 C233 0.930 . S
H226 C236 0.930 . S
H227 C237 0.930 . S
C228 H222 0.930 . S
C228 C229 1.355 1_565 S
C228 C230 1.415 . S
C229 C228 1.355 1_545 S
C229 C231 1.419 . S
C230 C228 1.415 . S
C230 C235 1.425 1_565 S
C230 C237 1.409 . S
C231 H223 0.930 . S
C231 C229 1.419 . S
C231 C232 1.362 . S
C232 H224 0.930 . S
C232 C231 1.362 . S
C232 C235 1.409 . S
C233 H225 0.930 . S
C233 C234 1.355 1_545 S
C233 C235 1.415 . S
C234 C233 1.355 1_565 S
C234 C236 1.419 . S
C235 C230 1.425 1_545 S
C235 C232 1.409 . S
C235 C233 1.415 . S
C236 H226 0.930 . S
C236 C234 1.419 . S
C236 C237 1.362 . S
C237 H227 0.930 . S
C237 C230 1.409 . S
C237 C236 1.362 . S
H238 C244 0.930 . S
H239 C247 0.930 . S
H240 C248 0.930 . S
H241 C249 0.930 . S
H242 C252 0.930 . S
H243 C253 0.930 . S
C244 H238 0.930 . S
C244 C245 1.355 1_545 S
C244 C246 1.415 . S
C245 C244 1.355 1_565 S
C245 C247 1.419 . S
C246 C244 1.415 . S
C246 C251 1.425 1_545 S
C246 C253 1.409 . S
C247 H239 0.930 . S
C247 C245 1.419 . S
C247 C248 1.362 . S
C248 H240 0.930 . S
C248 C247 1.362 . S
C248 C251 1.409 . S
C249 H241 0.930 . S
C249 C250 1.355 1_565 S
C249 C251 1.415 . S
C250 C249 1.355 1_545 S
C250 C252 1.419 . S
C251 C246 1.425 1_565 S
C251 C248 1.409 . S
C251 C249 1.415 . S
C252 H242 0.930 . S
C252 C250 1.419 . S
C252 C253 1.362 . S
C253 H243 0.930 . S
C253 C246 1.409 . S
C253 C252 1.362 . S
H254 C260 0.930 . S
H255 C263 0.930 . S
H256 C264 0.930 . S
H257 C265 0.930 . S
H258 C268 0.930 . S
H259 C269 0.930 . S
C260 H254 0.930 . S
C260 C261 1.355 . S
C260 C262 1.415 . S
C261 C260 1.355 . S
C261 C263 1.419 . S
C262 C260 1.415 . S
C262 C267 1.425 . S
C262 C269 1.409 . S
C263 H255 0.930 . S
C263 C261 1.419 . S
C263 C264 1.362 . S
C264 H256 0.930 . S
C264 C263 1.362 . S
C264 C267 1.409 . S
C265 H257 0.930 . S
C265 C266 1.355 . S
C265 C267 1.415 . S
C266 C265 1.355 . S
C266 C268 1.419 . S
C267 C262 1.425 . S
C267 C264 1.409 . S
C267 C265 1.415 . S
C268 H258 0.930 . S
C268 C266 1.419 . S
C268 C269 1.362 . S
C269 H259 0.930 . S
C269 C262 1.409 . S
C269 C268 1.362 . S
H270 C276 0.930 . S
H271 C279 0.930 . S
H272 C280 0.930 . S
H273 C281 0.930 . S
H274 C284 0.930 . S
H275 C285 0.930 . S
C276 H270 0.930 . S
C276 C277 1.355 . S
C276 C278 1.415 . S
C277 C276 1.355 . S
C277 C279 1.419 . S
C278 C276 1.415 . S
C278 C283 1.425 . S
C278 C285 1.409 . S
C279 H271 0.930 . S
C279 C277 1.419 . S
C279 C280 1.362 . S
C280 H272 0.930 . S
C280 C279 1.362 . S
C280 C283 1.409 . S
C281 H273 0.930 . S
C281 C282 1.355 . S
C281 C283 1.415 . S
C282 C281 1.355 . S
C282 C284 1.419 . S
C283 C278 1.425 . S
C283 C280 1.409 . S
C283 C281 1.415 . S
C284 H274 0.930 . S
C284 C282 1.419 . S
C284 C285 1.362 . S
C285 H275 0.930 . S
C285 C278 1.409 . S
C285 C284 1.362 . S
C106 C88 1.506 . S
C101 C21 1.495 . S
C117 C19 1.431 . S
C122 C74 1.409 . S
C133 C18 1.387 . S
C138 C86 1.347 . S
C149 C20 1.493 . S
C154 C76 1.490 . S
C165 C44 1.500 . S
C170 C64 1.494 . S
C181 C42 1.418 . S
C186 C50 1.380 . S
C202 C62 1.347 . S
C197 C41 1.379 . S
C218 C52 1.502 . S
C213 C43 1.486 . S
C229 C16 1.526 . S
C234 C55 1.512 . S
C245 C17 1.489 1_565 S
C250 C67 1.496 1_545 S
C266 C79 1.517 . S
C261 C39 1.528 . S
C277 C40 1.491 . S
C282 C91 1.479 . S
