# Generated by pormake.
# Topology tsx, (6,3)-cn, num edge types: 1
# Building blocks:
#     Node 0, Type 0, BuildingBlock: CIFDUS_clean_sbu_1, # of connection points: 6
#     Node 1, Type 0, BuildingBlock: CIFDUS_clean_sbu_1, # of connection points: 6
#     Node 2, Type 1, BuildingBlock: ESEHIV_clean_linker_0, # of connection points: 3
#     Node 3, Type 1, BuildingBlock: ESEHIV_clean_linker_0, # of connection points: 3
#     Node 4, Type 1, BuildingBlock: ESEHIV_clean_linker_0, # of connection points: 3
#     Node 5, Type 1, BuildingBlock: ESEHIV_clean_linker_0, # of connection points: 3
#     Edge 6, Type (0, 1), BuildingBlock: UVAHIK_clean_linker_0, # of connection points: 2
#     Edge 7, Type (0, 1), BuildingBlock: UVAHIK_clean_linker_0, # of connection points: 2
#     Edge 8, Type (0, 1), BuildingBlock: UVAHIK_clean_linker_0, # of connection points: 2
#     Edge 9, Type (0, 1), BuildingBlock: UVAHIK_clean_linker_0, # of connection points: 2
#     Edge 10, Type (0, 1), BuildingBlock: UVAHIK_clean_linker_0, # of connection points: 2
#     Edge 11, Type (0, 1), BuildingBlock: UVAHIK_clean_linker_0, # of connection points: 2
#     Edge 12, Type (0, 1), BuildingBlock: UVAHIK_clean_linker_0, # of connection points: 2
#     Edge 13, Type (0, 1), BuildingBlock: UVAHIK_clean_linker_0, # of connection points: 2
#     Edge 14, Type (0, 1), BuildingBlock: UVAHIK_clean_linker_0, # of connection points: 2
#     Edge 15, Type (0, 1), BuildingBlock: UVAHIK_clean_linker_0, # of connection points: 2
#     Edge 16, Type (0, 1), BuildingBlock: UVAHIK_clean_linker_0, # of connection points: 2
#     Edge 17, Type (0, 1), BuildingBlock: UVAHIK_clean_linker_0, # of connection points: 2
# Relax obj value: 0.128
# Max RMSD: 0.156
# Mean RMSD: 0.118
data_MOF--net-tsx--node1-CIFDUS_clean_sbu_1--node2-ESEHIV_clean_linker_0--edge1-UVAHIK_clean_linker_0
_symmetry_space_group_name_H-M    P1
_symmetry_Int_Tables_number       1
_symmetry_cell_setting            triclinic
loop_
_symmetry_equiv_pos_as_xyz
'x, y, z'
_cell_length_a     22.206537
_cell_length_b     27.190657
_cell_length_c     45.309158
_cell_angle_alpha  97.312465
_cell_angle_beta   91.728234
_cell_angle_gamma 91.384248
loop_
_atom_site_label
_atom_site_type_symbol
_atom_site_fract_x
_atom_site_fract_y
_atom_site_fract_z
_atom_type_partial_charge
O0 O 1.00229 0.11253 0.01107 0.0
Mn1 Mn 0.05628 0.05002 0.01103 0.0
O2 O 0.91857 0.08748 0.98312 0.0
Mn3 Mn 0.94745 0.0276 0.96605 0.0
O4 O 0.10952 0.98759 0.01126 0.0
O5 O 0.12665 0.09514 0.02628 0.0
Mn6 Mn 0.16214 0.07244 0.05695 0.0
O7 O 0.0293 0.04302 0.0545 0.0
O8 O 0.18808 0.00964 0.0431 0.0
O9 O 0.0831 0.05592 0.96749 0.0
O10 O 1.00313 0.03073 0.93685 0.0
O11 O 0.2062 0.1283 0.05086 0.0
O12 O 0.10506 0.07474 0.08586 0.0
C13 C 0.94989 0.96703 0.99201 0.0
C14 C 0.94913 0.11985 0.00062 0.0
C15 C 0.15921 0.97788 0.0244 0.0
C16 C 0.16729 0.13039 0.02925 0.0
C17 C 0.05165 0.05693 0.08088 0.0
C18 C 0.05803 0.04507 0.94141 0.0
O19 O 0.9869 0.00466 0.99537 0.0
O20 O 0.90961 0.96799 0.97089 0.0
O21 O 0.50114 0.60619 0.51046 0.0
Mn22 Mn 0.55416 0.54303 0.5108 0.0
O23 O 0.41395 0.58054 0.48578 0.0
Mn24 Mn 0.44068 0.5198 0.4688 0.0
O25 O 0.60666 0.47995 0.51111 0.0
O26 O 0.62604 0.58804 0.52398 0.0
Mn27 Mn 0.66321 0.56594 0.55446 0.0
O28 O 0.5303 0.53872 0.555 0.0
O29 O 0.68783 0.50265 0.54106 0.0
O30 O 0.577 0.54614 0.46644 0.0
O31 O 0.49367 0.52093 0.43813 0.0
O32 O 0.70744 0.6209 0.54721 0.0
O33 O 0.60873 0.56999 0.58463 0.0
C34 C 0.44649 0.46045 0.49562 0.0
C35 C 0.44688 0.61365 0.50149 0.0
C36 C 0.65729 0.47037 0.52345 0.0
C37 C 0.66709 0.62301 0.52623 0.0
C38 C 0.55473 0.55307 0.58086 0.0
C39 C 0.54915 0.53441 0.44109 0.0
O40 O 0.48334 0.49801 0.49742 0.0
O41 O 0.40355 0.46087 0.47576 0.0
H42 H 0.9229 0.04506 0.39094 0.0
H43 H 0.06961 0.94556 0.38209 0.0
H44 H 1.00337 0.99596 0.46915 0.0
C45 C 0.95532 0.02264 0.40112 0.0
C46 C 0.95829 0.02382 0.43219 0.0
C47 C 0.99482 0.99418 0.38296 0.0
C48 C 0.03778 0.96608 0.39617 0.0
C49 C 0.04182 0.96642 0.42736 0.0
C50 C 1.00154 0.99551 0.4452 0.0
H51 H 1.00249 0.98687 0.62331 0.0
H52 H 0.13851 0.1025 0.63175 0.0
H53 H 0.0629 0.04688 0.54507 0.0
C54 C 0.03151 0.01177 0.61291 0.0
C55 C 0.02787 0.01207 0.58175 0.0
C56 C 0.07106 0.04439 0.63104 0.0
C57 C 0.10683 0.078 0.6179 0.0
C58 C 0.10388 0.07951 0.58707 0.0
C59 C 0.06469 0.04616 0.56894 0.0
H60 H 0.41726 0.54784 0.89055 0.0
H61 H 0.55351 0.43822 0.88314 0.0
H62 H 0.49185 0.4971 0.96961 0.0
C63 C 0.44721 0.52382 0.90103 0.0
C64 C 0.44947 0.52582 0.93216 0.0
C65 C 0.48436 0.49235 0.88321 0.0
C66 C 0.52377 0.46178 0.89682 0.0
C67 C 0.52731 0.46354 0.92807 0.0
C68 C 0.48993 0.49576 0.94558 0.0
H69 H 0.50374 0.48748 0.1209 0.0
H70 H 0.63555 0.6066 0.13337 0.0
H71 H 0.55849 0.55901 0.04585 0.0
C72 C 0.53151 0.51461 0.11161 0.0
C73 C 0.52697 0.51844 0.08085 0.0
C74 C 0.57002 0.54666 0.13073 0.0
C75 C 0.60432 0.58275 0.11886 0.0
C76 C 0.60009 0.58794 0.08847 0.0
C77 C 0.56158 0.55542 0.0694 0.0
C78 C 0.13927 0.21287 0.01653 0.0
C79 C 0.17314 0.17015 0.01033 0.0
C80 C 0.16275 0.25902 0.01093 0.0
C81 C 0.29986 0.32186 0.98325 0.0
H82 H 0.29376 0.40272 0.05996 0.0
C83 C 0.44615 0.50158 0.03993 0.0
C84 C 0.48481 0.48416 0.06135 0.0
C85 C 0.40094 0.47016 0.02481 0.0
C86 C 0.29494 0.38122 0.03814 0.0
H87 H 0.25402 0.14071 0.99041 0.0
H88 H 0.29472 0.22024 0.98037 0.0
H89 H 0.2196 0.33573 0.04672 0.0
H90 H 0.50954 0.41906 0.0816 0.0
H91 H 0.43026 0.36501 0.05571 0.0
H92 H 0.37884 0.3658 0.97616 0.0
C93 C 0.25015 0.21903 0.98934 0.0
C94 C 0.25217 0.3429 0.03036 0.0
C95 C 0.22669 0.17312 0.99496 0.0
C96 C 0.47971 0.43401 0.06582 0.0
C97 C 0.43469 0.40294 0.05088 0.0
C98 C 0.34278 0.36042 0.9911 0.0
C99 C 0.22062 0.263 0.99926 0.0
C100 C 0.25548 0.31126 0.00335 0.0
C101 C 0.39407 0.42101 0.03086 0.0
C102 C 0.34174 0.38913 0.01907 0.0
H103 H 0.09822 0.21155 0.02878 0.0
H104 H 0.13808 0.292 0.01824 0.0
H105 H 0.30347 0.29863 0.96215 0.0
H106 H 0.44883 0.54 0.03596 0.0
H107 H 0.36993 0.48476 0.0094 0.0
C108 C 0.23851 0.91688 0.03283 0.0
C109 C 0.18455 0.92772 0.0182 0.0
C110 C 0.26331 0.87015 0.02731 0.0
C111 C 0.2291 0.73951 0.9969 0.0
H112 H 0.40191 0.73606 0.98713 0.0
C113 C 0.35244 0.56966 0.94089 0.0
C114 C 0.41213 0.56216 0.95018 0.0
C115 C 0.32097 0.61016 0.95396 0.0
C116 C 0.3538 0.73617 0.9904 0.0
H117 H 0.11381 0.89713 0.98658 0.0
H118 H 0.15793 0.81532 0.97657 0.0
H119 H 0.35427 0.81524 0.999 0.0
H120 H 0.48374 0.58874 0.98224 0.0
H121 H 0.42825 0.65902 0.00557 0.0
H122 H 0.2288 0.66019 0.98766 0.0
C123 C 0.18057 0.84319 0.99257 0.0
C124 C 0.32638 0.78168 0.99708 0.0
C125 C 0.15556 0.89018 0.99813 0.0
C126 C 0.4379 0.59362 0.97451 0.0
C127 C 0.40634 0.63419 0.98764 0.0
C128 C 0.25662 0.69382 0.99019 0.0
C129 C 0.23505 0.83285 0.00694 0.0
C130 C 0.26369 0.78398 0.00025 0.0
C131 C 0.3484 0.64399 0.97672 0.0
C132 C 0.31929 0.69168 0.98666 0.0
H133 H 0.262 0.94455 0.04865 0.0
H134 H 0.30471 0.8632 0.03915 0.0
H135 H 0.18082 0.74 0.9996 0.0
H136 H 0.33102 0.54545 0.92253 0.0
H137 H 0.27651 0.61652 0.94496 0.0
C138 C 0.92693 0.93557 0.03933 0.0
C139 C 0.94877 0.92667 0.01052 0.0
C140 C 0.9009 0.89663 0.05244 0.0
C141 C 0.86814 0.76017 0.04331 0.0
H142 H 0.70789 0.80073 0.06575 0.0
C143 C 0.6739 0.6174 0.05298 0.0
C144 C 0.637 0.62764 0.07752 0.0
C145 C 0.71534 0.65346 0.04587 0.0
C146 C 0.75266 0.78872 0.05998 0.0
H147 H 0.96589 0.87042 0.97378 0.0
H148 H 0.92172 0.80231 0.99671 0.0
H149 H 0.78281 0.8628 0.0563 0.0
H150 H 0.61192 0.6843 0.11273 0.0
H151 H 0.68423 0.7465 0.10077 0.0
H152 H 0.83748 0.68584 0.04676 0.0
C153 C 0.92462 0.83888 0.00941 0.0
C154 C 0.79583 0.82444 0.05474 0.0
C155 C 0.95018 0.87783 0.99629 0.0
C156 C 0.64022 0.67522 0.09385 0.0
C157 C 0.68148 0.71102 0.08684 0.0
C158 C 0.82494 0.72433 0.04877 0.0
C159 C 0.89635 0.84841 0.03679 0.0
C160 C 0.85394 0.81063 0.04612 0.0
C161 C 0.72036 0.70043 0.0631 0.0
C162 C 0.76648 0.73817 0.05696 0.0
H163 H 0.92411 0.97318 0.05034 0.0
H164 H 0.88022 0.90494 0.07379 0.0
H165 H 0.91253 0.7484 0.03667 0.0
H166 H 0.67249 0.58097 0.04009 0.0
H167 H 0.74387 0.64438 0.0271 0.0
C168 C 0.93683 0.20854 0.99419 0.0
C169 C 0.92033 0.16757 0.00839 0.0
C170 C 0.89746 0.24793 0.99342 0.0
C171 C 0.80677 0.3318 0.99794 0.0
H172 H 0.64485 0.27838 0.97839 0.0
C173 C 0.60646 0.45266 0.96756 0.0
C174 C 0.57124 0.43265 0.94232 0.0
C175 C 0.64943 0.42393 0.98014 0.0
C176 C 0.68978 0.29395 0.98383 0.0
H177 H 0.85304 0.13684 0.03485 0.0
H178 H 0.78554 0.20632 0.03473 0.0
H179 H 0.72197 0.22474 0.99422 0.0
H180 H 0.55253 0.3665 0.91103 0.0
H181 H 0.62747 0.31661 0.93278 0.0
H182 H 0.77438 0.40072 0.98621 0.0
C183 C 0.82784 0.20785 0.02354 0.0
C184 C 0.73396 0.26335 0.99334 0.0
C185 C 0.86676 0.16839 0.02399 0.0
C186 C 0.57929 0.38314 0.93027 0.0
C187 C 0.62185 0.35441 0.94293 0.0
C188 C 0.76228 0.36259 0.98848 0.0
C189 C 0.84112 0.24676 0.00687 0.0
C190 C 0.7933 0.28158 1.0001 0.0
C191 C 0.65761 0.37447 0.96792 0.0
C192 C 0.7036 0.34365 0.98074 0.0
H193 H 0.97753 0.20812 0.98157 0.0
H194 H 0.90907 0.27715 0.98027 0.0
H195 H 0.8519 0.34708 0.00311 0.0
H196 H 0.60167 0.49083 0.97724 0.0
H197 H 0.67601 0.44032 0.9995 0.0
C198 C 0.72299 0.66811 0.49178 0.0
C199 C 0.67059 0.66371 0.50789 0.0
C200 C 0.74583 0.7148 0.48724 0.0
C201 C 0.79433 0.81967 0.48436 0.0
H202 H 0.79566 0.88964 0.56448 0.0
C203 C 0.94986 0.99205 0.53958 0.0
C204 C 0.98469 0.97707 0.56326 0.0
C205 C 0.90405 0.96054 0.52503 0.0
C206 C 0.7949 0.87115 0.54181 0.0
H207 H 0.59678 0.70363 0.52863 0.0
H208 H 0.63558 0.78542 0.52007 0.0
H209 H 0.72062 0.82398 0.54963 0.0
H210 H 1.00199 0.9154 0.58813 0.0
H211 H 0.92122 0.86181 0.56362 0.0
H212 H 0.87183 0.86562 0.47765 0.0
C213 C 0.65973 0.75293 0.51127 0.0
C214 C 0.75152 0.83371 0.53313 0.0
C215 C 0.63684 0.70602 0.51575 0.0
C216 C 0.97495 0.92892 0.57073 0.0
C217 C 0.92898 0.898 0.55658 0.0
C218 C 0.83762 0.85768 0.49306 0.0
C219 C 0.71684 0.75803 0.49902 0.0
C220 C 0.75211 0.80596 0.50471 0.0
C221 C 0.89221 0.91389 0.53415 0.0
C222 C 0.83957 0.88225 0.52227 0.0
H223 H 0.75027 0.63601 0.48593 0.0
H224 H 0.78982 0.717 0.47772 0.0
H225 H 0.79588 0.79928 0.46226 0.0
H226 H 0.95609 0.02882 0.53318 0.0
H227 H 0.87631 0.97341 0.50765 0.0
C228 C 0.73583 0.40912 0.53245 0.0
C229 C 0.68212 0.41992 0.51758 0.0
C230 C 0.76091 0.36251 0.52698 0.0
C231 C 0.72947 0.23176 0.496 0.0
H232 H 0.90257 0.2313 0.48691 0.0
C233 C 0.85872 0.06364 0.44137 0.0
C234 C 0.91898 0.05812 0.45057 0.0
C235 C 0.82556 0.10329 0.45428 0.0
C236 C 0.8544 0.23053 0.49 0.0
H237 H 0.6119 0.38921 0.48573 0.0
H238 H 0.65655 0.30744 0.4758 0.0
H239 H 0.85283 0.30954 0.49846 0.0
H240 H 0.9897 0.08709 0.48255 0.0
H241 H 0.93127 0.15565 0.50567 0.0
H242 H 0.73129 0.15245 0.48696 0.0
C243 C 0.67879 0.33535 0.49193 0.0
C244 C 0.82575 0.27553 0.49648 0.0
C245 C 0.65344 0.38229 0.49746 0.0
C246 C 0.94349 0.09042 0.47486 0.0
C247 C 0.91022 0.13007 0.48785 0.0
C248 C 0.75826 0.18654 0.48951 0.0
C249 C 0.7333 0.32522 0.50638 0.0
C250 C 0.76296 0.2768 0.49951 0.0
C251 C 0.85181 0.13821 0.47682 0.0
C252 C 0.8211 0.18543 0.48631 0.0
H253 H 0.75903 0.43677 0.54839 0.0
H254 H 0.80221 0.35572 0.53896 0.0
H255 H 0.68113 0.23145 0.49853 0.0
H256 H 0.83821 0.03874 0.42306 0.0
H257 H 0.78076 0.10827 0.44522 0.0
C258 C 0.41854 0.42378 0.54038 0.0
C259 C 0.4497 0.4198 0.51381 0.0
C260 C 0.39702 0.3811 0.55133 0.0
C261 C 0.34111 0.25811 0.51859 0.0
H262 H 0.30304 0.24426 0.60004 0.0
C263 C 0.18317 0.101 0.55199 0.0
C264 C 0.14339 0.116 0.57472 0.0
C265 C 0.22787 0.13412 0.54448 0.0
C266 C 0.31316 0.24774 0.57715 0.0
H267 H 0.48777 0.36903 0.47916 0.0
H268 H 0.45229 0.29423 0.49877 0.0
H269 H 0.37697 0.30748 0.59014 0.0
H270 H 0.11609 0.17801 0.60585 0.0
H271 H 0.19304 0.23574 0.59251 0.0
H272 H 0.27605 0.19927 0.50559 0.0
C273 C 0.44338 0.33007 0.51097 0.0
C274 C 0.35569 0.28382 0.57151 0.0
C275 C 0.46461 0.37279 0.50001 0.0
C276 C 0.14677 0.16532 0.58852 0.0
C277 C 0.1912 0.19821 0.58109 0.0
C278 C 0.29867 0.22195 0.52424 0.0
C279 C 0.40611 0.33383 0.53567 0.0
C280 C 0.36913 0.29029 0.54213 0.0
C281 C 0.23338 0.18266 0.55962 0.0
C282 C 0.28301 0.21728 0.55355 0.0
H283 H 0.40531 0.45976 0.55091 0.0
H284 H 0.36835 0.38552 0.57034 0.0
H285 H 0.34947 0.26252 0.49563 0.0
H286 H 0.1817 0.06308 0.54115 0.0
H287 H 0.25959 0.12114 0.52773 0.0
C288 C 0.4503 0.70524 0.49961 0.0
C289 C 0.4207 0.66305 0.50775 0.0
C290 C 0.41851 0.7488 0.49782 0.0
C291 C 0.27493 0.81214 0.51598 0.0
H292 H 0.28084 0.84729 0.43579 0.0
C293 C 0.1183 0.95573 0.46852 0.0
C294 C 0.0892 0.93749 0.44107 0.0
C295 C 0.1645 0.92925 0.48049 0.0
C296 C 0.27906 0.83821 0.45835 0.0
H297 H 0.33688 0.63413 0.52271 0.0
H298 H 0.28208 0.71019 0.52047 0.0
H299 H 0.35513 0.79148 0.45278 0.0
H300 H 0.0848 0.87566 0.40555 0.0
H301 H 0.16633 0.8308 0.42591 0.0
H302 H 0.19733 0.85771 0.52105 0.0
C303 C 0.32939 0.70996 0.51529 0.0
C304 C 0.32199 0.8067 0.46821 0.0
C305 C 0.36069 0.66634 0.51652 0.0
C306 C 0.10703 0.89175 0.42625 0.0
C307 C 0.1537 0.86584 0.43796 0.0
C308 C 0.23242 0.8443 0.50624 0.0
C309 C 0.35709 0.75094 0.50468 0.0
C310 C 0.31933 0.79209 0.4968 0.0
C311 C 0.18323 0.88442 0.46506 0.0
C312 C 0.23295 0.85632 0.47699 0.0
H313 H 0.49635 0.70333 0.49239 0.0
H314 H 0.44104 0.77993 0.48968 0.0
H315 H 0.27186 0.80157 0.53815 0.0
H316 H 0.10652 0.99103 0.4805 0.0
H317 H 0.18653 0.94439 0.50145 0.0
C318 C 0.01508 0.08626 0.13104 0.0
C319 C 0.01773 0.04814 0.10719 0.0
C320 C 0.99711 0.0759 0.15891 0.0
C321 C 0.00793 0.97717 0.20504 0.0
H322 H 0.91355 0.06332 0.25939 0.0
C323 C 0.99159 0.95204 0.3301 0.0
C324 C 0.99222 0.99581 0.35029 0.0
C325 C 0.98603 0.95404 0.29938 0.0
C326 C 0.94048 0.03907 0.24459 0.0
H327 H 1.00255 0.96958 0.09335 0.0
H328 H 0.97112 0.95116 0.14234 0.0
H329 H 0.91408 0.07477 0.20688 0.0
H330 H 0.99002 0.07598 0.35414 0.0
H331 H 0.98188 0.07969 0.30085 0.0
H332 H 0.03683 0.94301 0.24287 0.0
C333 C 0.98219 0.98918 0.13932 0.0
C334 C 0.94033 0.04545 0.21446 0.0
C335 C 0.99927 -0.00022 0.11123 0.0
C336 C 0.98855 0.04157 0.33914 0.0
C337 C 0.98348 0.04362 0.30855 0.0
C338 C 0.00857 0.97108 0.23527 0.0
C339 C 0.98265 0.02696 0.16364 0.0
C340 C 0.97505 0.01526 0.19448 0.0
C341 C 0.98148 -9e-05 0.28821 0.0
C342 C 0.97599 0.00276 0.25557 0.0
H343 H 0.03005 0.12368 0.12851 0.0
H344 H 0.99855 0.1057 0.17724 0.0
H345 H 0.03577 0.95374 0.19024 0.0
H346 H 0.99396 0.91624 0.33811 0.0
H347 H 0.98426 0.9196 0.28443 0.0
C348 C 0.0947 0.09218 0.90187 0.0
C349 C 0.09272 0.04788 0.91465 0.0
C350 C 0.10712 0.09143 0.8717 0.0
C351 C 0.08133 0.00574 0.8035 0.0
H352 H 0.16217 0.10748 0.76543 0.0
C353 C 0.0819 -0.00176 0.67544 0.0
C354 C 0.07622 0.04335 0.66371 0.0
C355 C 0.0909 0.99771 0.70609 0.0
C356 C 0.13892 0.07898 0.77574 0.0
H357 H 0.10565 0.96879 0.90701 0.0
H358 H 0.12911 0.96745 0.85457 0.0
H359 H 0.17219 0.10915 0.81942 0.0
H360 H 0.07353 0.12315 0.67495 0.0
H361 H 0.08782 0.12226 0.72841 0.0
H362 H 0.0463 0.97642 0.76023 0.0
C363 C 0.12053 0.00269 0.86757 0.0
C364 C 0.14499 0.07984 0.80665 0.0
C365 C 0.10803 0.0035 0.89764 0.0
C366 C 0.07854 0.08784 0.68332 0.0
C367 C 0.08713 0.08732 0.71395 0.0
C368 C 0.07498 0.00504 0.7727 0.0
C369 C 0.11718 0.04622 0.85391 0.0
C370 C 0.11591 0.04339 0.8209 0.0
C371 C 0.09395 0.04229 0.72574 0.0
C372 C 0.10319 0.04189 0.75842 0.0
H373 H 0.08152 0.12658 0.91449 0.0
H374 H 0.10386 0.12555 0.86183 0.0
H375 H 0.05716 0.97772 0.81382 0.0
H376 H 0.08107 0.96344 0.66082 0.0
H377 H 0.09663 0.96237 0.71431 0.0
C378 C 0.49614 0.49972 0.61144 0.0
C379 C 0.52217 0.54613 0.60794 0.0
C380 C 0.47812 0.48983 0.63954 0.0
C381 C 0.44307 0.54778 0.71499 0.0
H382 H 0.52483 0.43714 0.74292 0.0
C383 C 0.48594 0.53971 0.83943 0.0
C384 C 0.48353 0.49382 0.85054 0.0
C385 C 0.48242 0.54204 0.80885 0.0
C386 C 0.50059 0.46759 0.73543 0.0
H387 H 0.54671 0.61932 0.63027 0.0
H388 H 0.51335 0.6028 0.67897 0.0
H389 H 0.52689 0.44843 0.69035 0.0
H390 H 0.47631 0.41425 0.83834 0.0
H391 H 0.46915 0.41815 0.78461 0.0
H392 H 0.41705 0.56741 0.75988 0.0
C393 C 0.50715 0.57392 0.66024 0.0
C394 C 0.50177 0.47401 0.70527 0.0
C395 C 0.52626 0.58341 0.63241 0.0
C396 C 0.47855 0.45011 0.83034 0.0
C397 C 0.47448 0.45242 0.7996 0.0
C398 C 0.44127 0.54109 0.74502 0.0
C399 C 0.48477 0.52658 0.66433 0.0
C400 C 0.47445 0.51496 0.69494 0.0
C401 C 0.47584 0.49852 0.78847 0.0
C402 C 0.47163 0.50182 0.75585 0.0
H403 H 0.49367 0.47012 0.593 0.0
H404 H 0.46091 0.45305 0.64211 0.0
H405 H 0.42111 0.57939 0.70755 0.0
H406 H 0.49091 0.574 0.85446 0.0
H407 H 0.48553 0.57813 0.80122 0.0
C408 C 0.58939 0.58006 0.4015 0.0
C409 C 0.5813 0.53532 0.41337 0.0
C410 C 0.60169 0.57959 0.37132 0.0
C411 C 0.56978 0.49789 0.30135 0.0
H412 H 0.66095 0.59748 0.2661 0.0
C413 C 0.57912 0.49691 0.17378 0.0
C414 C 0.57482 0.54313 0.1632 0.0
C415 C 0.58673 0.49417 0.2043 0.0
C416 C 0.63498 0.56957 0.27565 0.0
H417 H 0.58327 0.4554 0.40416 0.0
H418 H 0.60713 0.45437 0.35184 0.0
H419 H 0.66807 0.59602 0.31991 0.0
H420 H 0.57312 0.6226 0.17647 0.0
H421 H 0.58594 0.6178 0.22957 0.0
H422 H 0.53563 0.47207 0.25733 0.0
C423 C 0.60286 0.48981 0.36541 0.0
C424 C 0.6392 0.56869 0.30646 0.0
C425 C 0.5901 0.49033 0.39542 0.0
C426 C 0.57734 0.58644 0.18385 0.0
C427 C 0.58493 0.58371 0.21429 0.0
C428 C 0.56559 0.49877 0.27062 0.0
C429 C 0.6059 0.5343 0.35266 0.0
C430 C 0.60619 0.53309 0.31972 0.0
C431 C 0.59009 0.53759 0.2249 0.0
C432 C 0.59755 0.53496 0.25741 0.0
H433 H 0.58145 0.61509 0.4149 0.0
H434 H 0.60337 0.61453 0.36222 0.0
H435 H 0.54262 0.47062 0.31082 0.0
H436 H 0.57801 0.46293 0.15841 0.0
H437 H 0.59102 0.45806 0.21172 0.0
loop_
_geom_bond_atom_site_label_1
_geom_bond_atom_site_label_2
_geom_bond_distance
_geom_bond_site_symmetry_2
_ccdc_geom_bond_type
O0 Mn1 2.163 . S
O0 C14 1.244 1_455 S
Mn1 O0 2.163 . S
Mn1 O4 2.159 1_544 S
Mn1 O5 2.221 . S
Mn1 O7 2.163 . S
Mn1 O9 2.160 1_554 S
Mn1 O19 2.221 1_444 S
O2 Mn3 2.087 . S
O2 C14 1.256 1_556 S
Mn3 O2 2.087 . S
Mn3 O10 2.089 . S
Mn3 O19 2.290 1_545 S
Mn3 O20 2.220 1_546 S
O4 Mn1 2.159 1_566 S
O4 C15 1.225 1_556 S
O5 Mn1 2.221 . S
O5 Mn6 2.290 . S
O5 C16 1.278 . S
Mn6 O5 2.290 . S
Mn6 O8 2.089 1_545 S
Mn6 O11 2.251 . S
Mn6 O12 2.087 . S
O7 Mn1 2.163 . S
O7 C17 1.244 . S
O8 Mn6 2.089 1_565 S
O8 C15 1.256 . S
O9 Mn1 2.160 1_556 S
O9 C18 1.239 . S
O10 Mn3 2.089 . S
O10 C18 1.256 1_655 S
O11 Mn6 2.251 . S
O11 C16 1.241 . S
O12 Mn6 2.087 . S
O12 C17 1.256 . S
C13 O19 1.278 1_554 S
C13 O20 1.250 . S
C14 O0 1.244 1_655 S
C14 O2 1.256 1_554 S
C15 O4 1.225 1_554 S
C15 O8 1.256 . S
C16 O5 1.278 . S
C16 O11 1.241 . S
C17 O7 1.244 . S
C17 O12 1.256 . S
C18 O9 1.239 . S
C18 O10 1.256 1_455 S
O19 Mn1 2.221 1_666 S
O19 Mn3 2.290 1_565 S
O19 C13 1.278 1_556 S
O20 Mn3 2.220 1_564 S
O20 C13 1.250 . S
O21 Mn22 2.163 . S
O21 C35 1.244 . S
Mn22 O21 2.163 . S
Mn22 O25 2.160 . S
Mn22 O26 2.221 . S
Mn22 O28 2.163 . S
Mn22 O30 2.160 . S
Mn22 O40 2.221 . S
O23 Mn24 2.087 . S
O23 C35 1.256 . S
Mn24 O23 2.087 . S
Mn24 O31 2.089 . S
Mn24 O40 2.290 . S
Mn24 O41 2.251 . S
O25 Mn22 2.160 . S
O25 C36 1.239 . S
O26 Mn22 2.221 . S
O26 Mn27 2.290 . S
O26 C37 1.278 . S
Mn27 O26 2.290 . S
Mn27 O29 2.089 . S
Mn27 O32 2.251 . S
Mn27 O33 2.087 . S
O28 Mn22 2.163 . S
O28 C38 1.244 . S
O29 Mn27 2.089 . S
O29 C36 1.256 . S
O30 Mn22 2.160 . S
O30 C39 1.239 . S
O31 Mn24 2.089 . S
O31 C39 1.256 . S
O32 Mn27 2.251 . S
O32 C37 1.241 . S
O33 Mn27 2.087 . S
O33 C38 1.256 . S
C34 O40 1.278 . S
C34 O41 1.241 . S
C35 O21 1.244 . S
C35 O23 1.256 . S
C36 O25 1.239 . S
C36 O29 1.256 . S
C37 O26 1.278 . S
C37 O32 1.241 . S
C38 O28 1.244 . S
C38 O33 1.256 . S
C39 O30 1.239 . S
C39 O31 1.256 . S
O40 Mn22 2.221 . S
O40 Mn24 2.290 . S
O40 C34 1.278 . S
O41 Mn24 2.251 . S
O41 C34 1.241 . S
H42 C45 0.931 1_655 S
H43 C48 0.928 . S
H44 C50 0.930 . S
C45 H42 0.931 1_455 S
C45 C46 1.413 . S
C45 C47 1.359 1_545 S
C46 C45 1.413 . S
C46 C50 1.429 . S
C47 C45 1.359 1_565 S
C47 C48 1.373 . S
C48 H43 0.928 . S
C48 C47 1.373 . S
C48 C49 1.404 . S
C49 C48 1.404 . S
C49 C50 1.391 1_565 S
C50 H44 0.930 . S
C50 C46 1.429 . S
C50 C49 1.391 1_545 S
H51 C54 0.931 . S
H52 C57 0.928 . S
H53 C59 0.930 . S
C54 H51 0.931 . S
C54 C55 1.413 . S
C54 C56 1.360 1_655 S
C55 C54 1.413 . S
C55 C59 1.438 . S
C56 C54 1.360 1_455 S
C56 C57 1.372 . S
C57 H52 0.928 . S
C57 C56 1.372 . S
C57 C58 1.404 . S
C58 C57 1.404 . S
C58 C59 1.382 1_455 S
C59 H53 0.930 . S
C59 C55 1.438 . S
C59 C58 1.382 1_655 S
H60 C63 0.931 . S
H61 C66 0.928 . S
H62 C68 0.930 . S
C63 H60 0.931 . S
C63 C64 1.413 . S
C63 C65 1.360 . S
C64 C63 1.413 . S
C64 C68 1.429 . S
C65 C63 1.360 . S
C65 C66 1.372 . S
C66 H61 0.928 . S
C66 C65 1.372 . S
C66 C67 1.404 . S
C67 C66 1.404 . S
C67 C68 1.391 . S
C68 H62 0.930 . S
C68 C64 1.429 . S
C68 C67 1.391 . S
H69 C72 0.931 . S
H70 C75 0.928 . S
H71 C77 0.930 . S
C72 H69 0.931 . S
C72 C73 1.413 . S
C72 C74 1.360 . S
C73 C72 1.413 . S
C73 C77 1.429 . S
C74 C72 1.360 . S
C74 C75 1.372 . S
C75 H70 0.928 . S
C75 C74 1.372 . S
C75 C76 1.404 . S
C76 C75 1.404 . S
C76 C77 1.391 . S
C77 H71 0.930 . S
C77 C73 1.429 . S
C77 C76 1.391 . S
C78 C79 1.349 . S
C78 C80 1.327 . S
C78 H103 0.950 . S
C79 C78 1.349 . S
C79 C95 1.349 1_554 S
C80 C78 1.327 . S
C80 C99 1.429 . S
C80 H104 0.950 . S
C81 C98 1.574 . S
C81 C100 1.368 . S
C81 H105 0.949 1_554 S
H82 C86 0.949 . S
C83 C84 1.349 . S
C83 C85 1.327 . S
C83 H106 0.950 . S
C84 C83 1.349 . S
C84 C96 1.349 . S
C85 C83 1.327 . S
C85 C101 1.429 . S
C85 H107 0.950 . S
C86 H82 0.949 . S
C86 C94 1.574 . S
C86 C102 1.368 . S
H87 C95 0.950 . S
H88 C93 0.945 1_556 S
H89 C94 0.949 . S
H90 C96 0.950 . S
H91 C97 0.950 . S
H92 C98 0.949 . S
C93 H88 0.945 1_554 S
C93 C95 1.327 1_554 S
C93 C99 1.434 . S
C94 C86 1.574 . S
C94 H89 0.949 . S
C94 C100 1.368 . S
C95 C79 1.349 1_556 S
C95 H87 0.950 . S
C95 C93 1.327 1_556 S
C96 C84 1.349 . S
C96 H90 0.950 . S
C96 C97 1.327 . S
C97 H91 0.950 . S
C97 C96 1.327 . S
C97 C101 1.429 . S
C98 C81 1.574 . S
C98 H92 0.949 . S
C98 C102 1.368 . S
C99 C80 1.429 . S
C99 C93 1.434 . S
C99 C100 1.523 . S
C100 C81 1.368 . S
C100 C94 1.368 . S
C100 C99 1.523 . S
C101 C85 1.429 . S
C101 C97 1.429 . S
C101 C102 1.523 . S
C102 C86 1.368 . S
C102 C98 1.368 . S
C102 C101 1.523 . S
H103 C78 0.950 . S
H104 C80 0.950 . S
H105 C81 0.949 1_556 S
H106 C83 0.950 . S
H107 C85 0.950 . S
C108 C109 1.349 1_556 S
C108 C110 1.327 . S
C108 H133 0.950 . S
C109 C108 1.349 1_554 S
C109 C125 1.349 . S
C110 C108 1.327 . S
C110 C129 1.429 . S
C110 H134 0.950 . S
C111 C128 1.574 . S
C111 C130 1.368 . S
C111 H135 0.949 1_556 S
H112 C116 0.949 . S
C113 C114 1.349 . S
C113 C115 1.327 . S
C113 H136 0.950 . S
C114 C113 1.349 . S
C114 C126 1.349 . S
C115 C113 1.327 . S
C115 C131 1.429 . S
C115 H137 0.950 . S
C116 H112 0.949 . S
C116 C124 1.574 . S
C116 C132 1.368 . S
H117 C125 0.950 . S
H118 C123 0.950 . S
H119 C124 0.949 . S
H120 C126 0.950 . S
H121 C127 0.950 . S
H122 C128 0.949 . S
C123 H118 0.950 . S
C123 C125 1.327 . S
C123 C129 1.429 1_554 S
C124 C116 1.574 . S
C124 H119 0.949 . S
C124 C130 1.368 . S
C125 C109 1.349 . S
C125 H117 0.950 . S
C125 C123 1.327 . S
C126 C114 1.349 . S
C126 H120 0.950 . S
C126 C127 1.327 . S
C127 H121 0.950 . S
C127 C126 1.327 . S
C127 C131 1.429 . S
C128 C111 1.574 . S
C128 H122 0.949 . S
C128 C132 1.368 . S
C129 C110 1.429 . S
C129 C123 1.429 1_556 S
C129 C130 1.523 . S
C130 C111 1.368 . S
C130 C124 1.368 . S
C130 C129 1.523 . S
C131 C115 1.429 . S
C131 C127 1.429 . S
C131 C132 1.523 . S
C132 C116 1.368 . S
C132 C128 1.368 . S
C132 C131 1.523 . S
H133 C108 0.950 . S
H134 C110 0.950 . S
H135 C111 0.949 1_554 S
H136 C113 0.950 . S
H137 C115 0.950 . S
C138 C139 1.349 . S
C138 C140 1.327 . S
C138 H163 0.950 . S
C139 C138 1.349 . S
C139 C155 1.349 . S
C140 C138 1.327 . S
C140 C159 1.429 . S
C140 H164 0.950 . S
C141 C158 1.574 . S
C141 C160 1.368 . S
C141 H165 0.949 . S
H142 C146 0.949 . S
C143 C144 1.349 . S
C143 C145 1.327 . S
C143 H166 0.950 . S
C144 C143 1.349 . S
C144 C156 1.349 . S
C145 C143 1.327 . S
C145 C161 1.429 . S
C145 H167 0.950 . S
C146 H142 0.949 . S
C146 C154 1.574 . S
C146 C162 1.368 . S
H147 C155 0.950 . S
H148 C153 0.950 . S
H149 C154 0.949 . S
H150 C156 0.950 . S
H151 C157 0.950 . S
H152 C158 0.949 . S
C153 H148 0.950 . S
C153 C155 1.327 . S
C153 C159 1.429 . S
C154 C146 1.574 . S
C154 H149 0.949 . S
C154 C160 1.368 . S
C155 C139 1.349 . S
C155 H147 0.950 . S
C155 C153 1.327 . S
C156 C144 1.349 . S
C156 H150 0.950 . S
C156 C157 1.327 . S
C157 H151 0.950 . S
C157 C156 1.327 . S
C157 C161 1.429 . S
C158 C141 1.574 . S
C158 H152 0.949 . S
C158 C162 1.368 . S
C159 C140 1.429 . S
C159 C153 1.429 . S
C159 C160 1.523 . S
C160 C141 1.368 . S
C160 C154 1.368 . S
C160 C159 1.523 . S
C161 C145 1.429 . S
C161 C157 1.429 . S
C161 C162 1.523 . S
C162 C146 1.368 . S
C162 C158 1.368 . S
C162 C161 1.523 . S
H163 C138 0.950 . S
H164 C140 0.950 . S
H165 C141 0.949 . S
H166 C143 0.950 . S
H167 C145 0.950 . S
C168 C169 1.349 1_556 S
C168 C170 1.327 . S
C168 H193 0.950 . S
C169 C168 1.349 1_554 S
C169 C185 1.349 . S
C170 C168 1.327 . S
C170 C189 1.429 . S
C170 H194 0.950 . S
C171 C188 1.574 . S
C171 C190 1.368 . S
C171 H195 0.949 1_556 S
H172 C176 0.949 . S
C173 C174 1.349 . S
C173 C175 1.327 . S
C173 H196 0.950 . S
C174 C173 1.349 . S
C174 C186 1.349 . S
C175 C173 1.327 . S
C175 C191 1.429 . S
C175 H197 0.950 . S
C176 H172 0.949 . S
C176 C184 1.574 . S
C176 C192 1.368 . S
H177 C185 0.950 . S
H178 C183 0.950 . S
H179 C184 0.949 . S
H180 C186 0.950 . S
H181 C187 0.950 . S
H182 C188 0.949 . S
C183 H178 0.950 . S
C183 C185 1.327 . S
C183 C189 1.429 1_554 S
C184 C176 1.574 . S
C184 H179 0.949 . S
C184 C190 1.368 . S
C185 C169 1.349 . S
C185 H177 0.950 . S
C185 C183 1.327 . S
C186 C174 1.349 . S
C186 H180 0.950 . S
C186 C187 1.327 . S
C187 H181 0.950 . S
C187 C186 1.327 . S
C187 C191 1.429 . S
C188 C171 1.574 . S
C188 H182 0.949 . S
C188 C192 1.368 . S
C189 C170 1.429 . S
C189 C183 1.429 1_556 S
C189 C190 1.523 . S
C190 C171 1.368 . S
C190 C184 1.368 . S
C190 C189 1.523 . S
C191 C175 1.429 . S
C191 C187 1.429 . S
C191 C192 1.523 . S
C192 C176 1.368 . S
C192 C188 1.368 . S
C192 C191 1.523 . S
H193 C168 0.950 . S
H194 C170 0.950 . S
H195 C171 0.949 1_554 S
H196 C173 0.950 . S
H197 C175 0.950 . S
C198 C199 1.349 . S
C198 C200 1.327 . S
C198 H223 0.950 . S
C199 C198 1.349 . S
C199 C215 1.349 . S
C200 C198 1.327 . S
C200 C219 1.429 . S
C200 H224 0.950 . S
C201 C218 1.574 . S
C201 C220 1.368 . S
C201 H225 0.949 . S
H202 C206 0.949 . S
C203 C204 1.349 . S
C203 C205 1.327 1_545 S
C203 H226 0.950 . S
C204 C203 1.349 . S
C204 C216 1.349 1_545 S
C205 C203 1.327 1_565 S
C205 C221 1.429 . S
C205 H227 0.950 . S
C206 H202 0.949 . S
C206 C214 1.574 . S
C206 C222 1.368 . S
H207 C215 0.950 . S
H208 C213 0.950 . S
H209 C214 0.949 . S
H210 C216 0.950 . S
H211 C217 0.950 . S
H212 C218 0.949 . S
C213 H208 0.950 . S
C213 C215 1.327 . S
C213 C219 1.429 . S
C214 C206 1.574 . S
C214 H209 0.949 . S
C214 C220 1.368 . S
C215 C199 1.349 . S
C215 H207 0.950 . S
C215 C213 1.327 . S
C216 C204 1.349 1_565 S
C216 H210 0.950 . S
C216 C217 1.327 . S
C217 H211 0.950 . S
C217 C216 1.327 . S
C217 C221 1.429 . S
C218 C201 1.574 . S
C218 H212 0.949 . S
C218 C222 1.368 . S
C219 C200 1.429 . S
C219 C213 1.429 . S
C219 C220 1.523 . S
C220 C201 1.368 . S
C220 C214 1.368 . S
C220 C219 1.523 . S
C221 C205 1.429 . S
C221 C217 1.429 . S
C221 C222 1.523 . S
C222 C206 1.368 . S
C222 C218 1.368 . S
C222 C221 1.523 . S
H223 C198 0.950 . S
H224 C200 0.950 . S
H225 C201 0.949 . S
H226 C203 0.950 . S
H227 C205 0.950 . S
C228 C229 1.349 . S
C228 C230 1.327 . S
C228 H253 0.950 . S
C229 C228 1.349 . S
C229 C245 1.349 . S
C230 C228 1.327 . S
C230 C249 1.429 . S
C230 H254 0.950 . S
C231 C248 1.574 . S
C231 C250 1.368 . S
C231 H255 0.949 . S
H232 C236 0.949 . S
C233 C234 1.349 . S
C233 C235 1.327 . S
C233 H256 0.950 . S
C234 C233 1.349 . S
C234 C246 1.349 . S
C235 C233 1.327 . S
C235 C251 1.429 . S
C235 H257 0.950 . S
C236 H232 0.949 . S
C236 C244 1.574 . S
C236 C252 1.368 . S
H237 C245 0.950 . S
H238 C243 0.950 . S
H239 C244 0.949 . S
H240 C246 0.950 1_455 S
H241 C247 0.950 . S
H242 C248 0.949 . S
C243 H238 0.950 . S
C243 C245 1.327 . S
C243 C249 1.429 . S
C244 C236 1.574 . S
C244 H239 0.949 . S
C244 C250 1.368 . S
C245 C229 1.349 . S
C245 H237 0.950 . S
C245 C243 1.327 . S
C246 C234 1.349 . S
C246 H240 0.950 1_655 S
C246 C247 1.327 . S
C247 H241 0.950 . S
C247 C246 1.327 . S
C247 C251 1.429 . S
C248 C231 1.574 . S
C248 H242 0.949 . S
C248 C252 1.368 . S
C249 C230 1.429 . S
C249 C243 1.429 . S
C249 C250 1.523 . S
C250 C231 1.368 . S
C250 C244 1.368 . S
C250 C249 1.523 . S
C251 C235 1.429 . S
C251 C247 1.429 . S
C251 C252 1.523 . S
C252 C236 1.368 . S
C252 C248 1.368 . S
C252 C251 1.523 . S
H253 C228 0.950 . S
H254 C230 0.950 . S
H255 C231 0.949 . S
H256 C233 0.950 . S
H257 C235 0.950 . S
C258 C259 1.349 . S
C258 C260 1.327 . S
C258 H283 0.950 . S
C259 C258 1.349 . S
C259 C275 1.349 . S
C260 C258 1.327 . S
C260 C279 1.429 . S
C260 H284 0.950 . S
C261 C278 1.574 . S
C261 C280 1.368 . S
C261 H285 0.949 . S
H262 C266 0.949 . S
C263 C264 1.349 . S
C263 C265 1.327 . S
C263 H286 0.950 . S
C264 C263 1.349 . S
C264 C276 1.349 . S
C265 C263 1.327 . S
C265 C281 1.429 . S
C265 H287 0.950 . S
C266 H262 0.949 . S
C266 C274 1.574 . S
C266 C282 1.368 . S
H267 C275 0.950 . S
H268 C273 0.950 . S
H269 C274 0.949 . S
H270 C276 0.950 . S
H271 C277 0.950 . S
H272 C278 0.949 . S
C273 H268 0.950 . S
C273 C275 1.327 . S
C273 C279 1.429 . S
C274 C266 1.574 . S
C274 H269 0.949 . S
C274 C280 1.368 . S
C275 C259 1.349 . S
C275 H267 0.950 . S
C275 C273 1.327 . S
C276 C264 1.349 . S
C276 H270 0.950 . S
C276 C277 1.327 . S
C277 H271 0.950 . S
C277 C276 1.327 . S
C277 C281 1.429 . S
C278 C261 1.574 . S
C278 H272 0.949 . S
C278 C282 1.368 . S
C279 C260 1.429 . S
C279 C273 1.429 . S
C279 C280 1.523 . S
C280 C261 1.368 . S
C280 C274 1.368 . S
C280 C279 1.523 . S
C281 C265 1.429 . S
C281 C277 1.429 . S
C281 C282 1.523 . S
C282 C266 1.368 . S
C282 C278 1.368 . S
C282 C281 1.523 . S
H283 C258 0.950 . S
H284 C260 0.950 . S
H285 C261 0.949 . S
H286 C263 0.950 . S
H287 C265 0.950 . S
C288 C289 1.349 . S
C288 C290 1.327 . S
C288 H313 0.950 . S
C289 C288 1.349 . S
C289 C305 1.349 . S
C290 C288 1.327 . S
C290 C309 1.429 . S
C290 H314 0.950 . S
C291 C308 1.574 . S
C291 C310 1.368 . S
C291 H315 0.949 . S
H292 C296 0.949 . S
C293 C294 1.349 . S
C293 C295 1.327 . S
C293 H316 0.950 . S
C294 C293 1.349 . S
C294 C306 1.349 . S
C295 C293 1.327 . S
C295 C311 1.429 . S
C295 H317 0.950 . S
C296 H292 0.949 . S
C296 C304 1.574 . S
C296 C312 1.368 . S
H297 C305 0.950 . S
H298 C303 0.950 . S
H299 C304 0.949 . S
H300 C306 0.950 . S
H301 C307 0.950 . S
H302 C308 0.949 . S
C303 H298 0.950 . S
C303 C305 1.327 . S
C303 C309 1.429 . S
C304 C296 1.574 . S
C304 H299 0.949 . S
C304 C310 1.368 . S
C305 C289 1.349 . S
C305 H297 0.950 . S
C305 C303 1.327 . S
C306 C294 1.349 . S
C306 H300 0.950 . S
C306 C307 1.327 . S
C307 H301 0.950 . S
C307 C306 1.327 . S
C307 C311 1.429 . S
C308 C291 1.574 . S
C308 H302 0.949 . S
C308 C312 1.368 . S
C309 C290 1.429 . S
C309 C303 1.429 . S
C309 C310 1.523 . S
C310 C291 1.368 . S
C310 C304 1.368 . S
C310 C309 1.523 . S
C311 C295 1.429 . S
C311 C307 1.429 . S
C311 C312 1.523 . S
C312 C296 1.368 . S
C312 C308 1.368 . S
C312 C311 1.523 . S
H313 C288 0.950 . S
H314 C290 0.950 . S
H315 C291 0.949 . S
H316 C293 0.950 . S
H317 C295 0.950 . S
C318 C319 1.349 . S
C318 C320 1.327 . S
C318 H343 0.950 . S
C319 C318 1.349 . S
C319 C335 1.349 1_545 S
C320 C318 1.327 . S
C320 C339 1.429 . S
C320 H344 0.950 . S
C321 C338 1.574 . S
C321 C340 1.368 1_565 S
C321 H345 0.949 . S
H322 C326 0.949 1_655 S
C323 C324 1.338 1_565 S
C323 C325 1.327 . S
C323 H346 0.950 . S
C324 C323 1.338 1_545 S
C324 C336 1.362 . S
C325 C323 1.327 . S
C325 C341 1.429 1_565 S
C325 H347 0.950 . S
C326 H322 0.949 1_455 S
C326 C334 1.574 . S
C326 C342 1.368 . S
H327 C335 0.950 . S
H328 C333 0.950 . S
H329 C334 0.952 . S
H330 C336 0.950 1_655 S
H331 C337 0.950 1_655 S
H332 C338 0.949 . S
C333 H328 0.950 . S
C333 C335 1.327 . S
C333 C339 1.429 1_565 S
C334 C326 1.574 . S
C334 H329 0.952 . S
C334 C340 1.368 . S
C335 C319 1.349 1_565 S
C335 H327 0.950 . S
C335 C333 1.327 . S
C336 C324 1.362 . S
C336 H330 0.950 1_455 S
C336 C337 1.327 . S
C337 H331 0.950 1_455 S
C337 C336 1.327 . S
C337 C341 1.429 . S
C338 C321 1.574 . S
C338 H332 0.949 . S
C338 C342 1.368 1_565 S
C339 C320 1.429 . S
C339 C333 1.429 1_545 S
C339 C340 1.523 . S
C340 C321 1.368 1_545 S
C340 C334 1.368 . S
C340 C339 1.523 . S
C341 C325 1.429 1_545 S
C341 C337 1.429 . S
C341 C342 1.523 . S
C342 C326 1.368 . S
C342 C338 1.368 1_545 S
C342 C341 1.523 . S
H343 C318 0.950 . S
H344 C320 0.950 . S
H345 C321 0.949 . S
H346 C323 0.950 . S
H347 C325 0.950 . S
C348 C349 1.349 . S
C348 C350 1.327 . S
C348 H373 0.950 . S
C349 C348 1.349 . S
C349 C365 1.349 . S
C350 C348 1.327 . S
C350 C369 1.429 . S
C350 H374 0.950 . S
C351 C368 1.574 . S
C351 C370 1.368 1_655 S
C351 H375 0.949 1_545 S
H352 C356 0.949 . S
C353 C354 1.349 1_655 S
C353 C355 1.327 . S
C353 H376 0.950 . S
C354 C353 1.349 1_455 S
C354 C366 1.349 . S
C355 C353 1.327 . S
C355 C371 1.429 1_655 S
C355 H377 0.950 . S
C356 H352 0.949 . S
C356 C364 1.574 . S
C356 C372 1.368 . S
H357 C365 0.950 1_665 S
H358 C363 0.950 1_665 S
H359 C364 0.949 . S
H360 C366 0.950 . S
H361 C367 0.950 . S
H362 C368 0.949 . S
C363 H358 0.950 1_445 S
C363 C365 1.327 . S
C363 C369 1.429 . S
C364 C356 1.574 . S
C364 H359 0.949 . S
C364 C370 1.368 . S
C365 C349 1.349 . S
C365 H357 0.950 1_445 S
C365 C363 1.327 . S
C366 C354 1.349 . S
C366 H360 0.950 . S
C366 C367 1.327 . S
C367 H361 0.950 . S
C367 C366 1.327 . S
C367 C371 1.429 . S
C368 C351 1.574 . S
C368 H362 0.949 . S
C368 C372 1.368 1_655 S
C369 C350 1.429 . S
C369 C363 1.429 . S
C369 C370 1.523 . S
C370 C351 1.368 1_455 S
C370 C364 1.368 . S
C370 C369 1.523 . S
C371 C355 1.429 1_455 S
C371 C367 1.429 . S
C371 C372 1.523 . S
C372 C356 1.368 . S
C372 C368 1.368 1_455 S
C372 C371 1.523 . S
H373 C348 0.950 . S
H374 C350 0.950 . S
H375 C351 0.949 1_565 S
H376 C353 0.950 . S
H377 C355 0.950 . S
C378 C379 1.349 . S
C378 C380 1.327 . S
C378 H403 0.950 . S
C379 C378 1.349 . S
C379 C395 1.349 . S
C380 C378 1.327 . S
C380 C399 1.429 . S
C380 H404 0.950 . S
C381 C398 1.574 . S
C381 C400 1.368 . S
C381 H405 0.949 . S
H382 C386 0.949 . S
C383 C384 1.349 . S
C383 C385 1.327 . S
C383 H406 0.950 . S
C384 C383 1.349 . S
C384 C396 1.349 . S
C385 C383 1.327 . S
C385 C401 1.429 . S
C385 H407 0.950 . S
C386 H382 0.949 . S
C386 C394 1.574 . S
C386 C402 1.368 . S
H387 C395 0.950 . S
H388 C393 0.950 . S
H389 C394 0.949 . S
H390 C396 0.950 . S
H391 C397 0.950 . S
H392 C398 0.949 . S
C393 H388 0.950 . S
C393 C395 1.327 . S
C393 C399 1.429 . S
C394 C386 1.574 . S
C394 H389 0.949 . S
C394 C400 1.368 . S
C395 C379 1.349 . S
C395 H387 0.950 . S
C395 C393 1.327 . S
C396 C384 1.349 . S
C396 H390 0.950 . S
C396 C397 1.327 . S
C397 H391 0.950 . S
C397 C396 1.327 . S
C397 C401 1.429 . S
C398 C381 1.574 . S
C398 H392 0.949 . S
C398 C402 1.368 . S
C399 C380 1.429 . S
C399 C393 1.429 . S
C399 C400 1.523 . S
C400 C381 1.368 . S
C400 C394 1.368 . S
C400 C399 1.523 . S
C401 C385 1.429 . S
C401 C397 1.429 . S
C401 C402 1.523 . S
C402 C386 1.368 . S
C402 C398 1.368 . S
C402 C401 1.523 . S
H403 C378 0.950 . S
H404 C380 0.950 . S
H405 C381 0.949 . S
H406 C383 0.950 . S
H407 C385 0.950 . S
C408 C409 1.349 . S
C408 C410 1.327 . S
C408 H433 0.950 . S
C409 C408 1.349 . S
C409 C425 1.349 . S
C410 C408 1.327 . S
C410 C429 1.429 . S
C410 H434 0.950 . S
C411 C428 1.574 . S
C411 C430 1.368 . S
C411 H435 0.949 . S
H412 C416 0.949 . S
C413 C414 1.349 . S
C413 C415 1.327 . S
C413 H436 0.950 . S
C414 C413 1.349 . S
C414 C426 1.349 . S
C415 C413 1.327 . S
C415 C431 1.429 . S
C415 H437 0.950 . S
C416 H412 0.949 . S
C416 C424 1.574 . S
C416 C432 1.368 . S
H417 C425 0.950 . S
H418 C423 0.950 . S
H419 C424 0.949 . S
H420 C426 0.950 . S
H421 C427 0.950 . S
H422 C428 0.949 . S
C423 H418 0.950 . S
C423 C425 1.327 . S
C423 C429 1.429 . S
C424 C416 1.574 . S
C424 H419 0.949 . S
C424 C430 1.368 . S
C425 C409 1.349 . S
C425 H417 0.950 . S
C425 C423 1.327 . S
C426 C414 1.349 . S
C426 H420 0.950 . S
C426 C427 1.327 . S
C427 H421 0.950 . S
C427 C426 1.327 . S
C427 C431 1.429 . S
C428 C411 1.574 . S
C428 H422 0.949 . S
C428 C432 1.368 . S
C429 C410 1.429 . S
C429 C423 1.429 . S
C429 C430 1.523 . S
C430 C411 1.368 . S
C430 C424 1.368 . S
C430 C429 1.523 . S
C431 C415 1.429 . S
C431 C427 1.429 . S
C431 C432 1.523 . S
C432 C416 1.368 . S
C432 C428 1.368 . S
C432 C431 1.523 . S
H433 C408 0.950 . S
H434 C410 0.950 . S
H435 C411 0.949 . S
H436 C413 0.950 . S
H437 C415 0.950 . S
C84 C73 1.311 . S
C79 C16 1.126 . S
C109 C15 1.381 . S
C114 C64 1.385 . S
C139 C13 1.235 . S
C144 C76 1.378 . S
C169 C14 1.242 . S
C174 C67 1.293 . S
C199 C37 1.126 . S
C204 C55 1.312 . S
C229 C36 1.381 . S
C234 C46 1.385 1_655 S
C264 C58 1.378 . S
C259 C34 1.234 . S
C294 C49 1.293 . S
C289 C35 1.242 . S
C319 C17 1.507 . S
C324 C47 1.551 1_545 S
C349 C18 1.361 . S
C354 C56 1.411 . S
C384 C65 1.553 . S
C379 C38 1.506 . S
C409 C39 1.361 . S
C414 C74 1.411 . S
