# Generated by pormake.
# Topology bwt, (3,3)-cn, num edge types: 1
# Building blocks:
#     Node 0, Type 0, BuildingBlock: WUSLED_clean_sbu_0, # of connection points: 3
#     Node 1, Type 0, BuildingBlock: WUSLED_clean_sbu_0, # of connection points: 3
#     Node 2, Type 0, BuildingBlock: WUSLED_clean_sbu_0, # of connection points: 3
#     Node 3, Type 0, BuildingBlock: WUSLED_clean_sbu_0, # of connection points: 3
#     Node 4, Type 0, BuildingBlock: WUSLED_clean_sbu_0, # of connection points: 3
#     Node 5, Type 0, BuildingBlock: WUSLED_clean_sbu_0, # of connection points: 3
#     Node 6, Type 0, BuildingBlock: WUSLED_clean_sbu_0, # of connection points: 3
#     Node 7, Type 0, BuildingBlock: WUSLED_clean_sbu_0, # of connection points: 3
#     Node 8, Type 0, BuildingBlock: WUSLED_clean_sbu_0, # of connection points: 3
#     Node 9, Type 0, BuildingBlock: WUSLED_clean_sbu_0, # of connection points: 3
#     Node 10, Type 0, BuildingBlock: WUSLED_clean_sbu_0, # of connection points: 3
#     Node 11, Type 0, BuildingBlock: WUSLED_clean_sbu_0, # of connection points: 3
#     Node 12, Type 0, BuildingBlock: WUSLED_clean_sbu_0, # of connection points: 3
#     Node 13, Type 0, BuildingBlock: WUSLED_clean_sbu_0, # of connection points: 3
#     Node 14, Type 0, BuildingBlock: WUSLED_clean_sbu_0, # of connection points: 3
#     Node 15, Type 0, BuildingBlock: WUSLED_clean_sbu_0, # of connection points: 3
#     Node 16, Type 0, BuildingBlock: WUSLED_clean_sbu_0, # of connection points: 3
#     Node 17, Type 0, BuildingBlock: WUSLED_clean_sbu_0, # of connection points: 3
#     Node 18, Type 0, BuildingBlock: WUSLED_clean_sbu_0, # of connection points: 3
#     Node 19, Type 0, BuildingBlock: WUSLED_clean_sbu_0, # of connection points: 3
#     Node 20, Type 0, BuildingBlock: WUSLED_clean_sbu_0, # of connection points: 3
#     Node 21, Type 0, BuildingBlock: WUSLED_clean_sbu_0, # of connection points: 3
#     Node 22, Type 0, BuildingBlock: WUSLED_clean_sbu_0, # of connection points: 3
#     Node 23, Type 0, BuildingBlock: WUSLED_clean_sbu_0, # of connection points: 3
#     Node 24, Type 1, BuildingBlock: CUQRIR_clean_linker_1, # of connection points: 3
#     Node 25, Type 1, BuildingBlock: CUQRIR_clean_linker_1, # of connection points: 3
#     Node 26, Type 1, BuildingBlock: CUQRIR_clean_linker_1, # of connection points: 3
#     Node 27, Type 1, BuildingBlock: CUQRIR_clean_linker_1, # of connection points: 3
#     Node 28, Type 1, BuildingBlock: CUQRIR_clean_linker_1, # of connection points: 3
#     Node 29, Type 1, BuildingBlock: CUQRIR_clean_linker_1, # of connection points: 3
#     Node 30, Type 1, BuildingBlock: CUQRIR_clean_linker_1, # of connection points: 3
#     Node 31, Type 1, BuildingBlock: CUQRIR_clean_linker_1, # of connection points: 3
#     Node 32, Type 1, BuildingBlock: CUQRIR_clean_linker_1, # of connection points: 3
#     Node 33, Type 1, BuildingBlock: CUQRIR_clean_linker_1, # of connection points: 3
#     Node 34, Type 1, BuildingBlock: CUQRIR_clean_linker_1, # of connection points: 3
#     Node 35, Type 1, BuildingBlock: CUQRIR_clean_linker_1, # of connection points: 3
#     Node 36, Type 1, BuildingBlock: CUQRIR_clean_linker_1, # of connection points: 3
#     Node 37, Type 1, BuildingBlock: CUQRIR_clean_linker_1, # of connection points: 3
#     Node 38, Type 1, BuildingBlock: CUQRIR_clean_linker_1, # of connection points: 3
#     Node 39, Type 1, BuildingBlock: CUQRIR_clean_linker_1, # of connection points: 3
#     Node 40, Type 1, BuildingBlock: CUQRIR_clean_linker_1, # of connection points: 3
#     Node 41, Type 1, BuildingBlock: CUQRIR_clean_linker_1, # of connection points: 3
#     Node 42, Type 1, BuildingBlock: CUQRIR_clean_linker_1, # of connection points: 3
#     Node 43, Type 1, BuildingBlock: CUQRIR_clean_linker_1, # of connection points: 3
#     Node 44, Type 1, BuildingBlock: CUQRIR_clean_linker_1, # of connection points: 3
#     Node 45, Type 1, BuildingBlock: CUQRIR_clean_linker_1, # of connection points: 3
#     Node 46, Type 1, BuildingBlock: CUQRIR_clean_linker_1, # of connection points: 3
#     Node 47, Type 1, BuildingBlock: CUQRIR_clean_linker_1, # of connection points: 3
#     Edge 48, Type (0, 1), BuildingBlock: KIFKEQ_clean_linker_1, # of connection points: 2
#     Edge 49, Type (0, 1), BuildingBlock: KIFKEQ_clean_linker_1, # of connection points: 2
#     Edge 50, Type (0, 1), BuildingBlock: KIFKEQ_clean_linker_1, # of connection points: 2
#     Edge 51, Type (0, 1), BuildingBlock: KIFKEQ_clean_linker_1, # of connection points: 2
#     Edge 52, Type (0, 1), BuildingBlock: KIFKEQ_clean_linker_1, # of connection points: 2
#     Edge 53, Type (0, 1), BuildingBlock: KIFKEQ_clean_linker_1, # of connection points: 2
#     Edge 54, Type (0, 1), BuildingBlock: KIFKEQ_clean_linker_1, # of connection points: 2
#     Edge 55, Type (0, 1), BuildingBlock: KIFKEQ_clean_linker_1, # of connection points: 2
#     Edge 56, Type (0, 1), BuildingBlock: KIFKEQ_clean_linker_1, # of connection points: 2
#     Edge 57, Type (0, 1), BuildingBlock: KIFKEQ_clean_linker_1, # of connection points: 2
#     Edge 58, Type (0, 1), BuildingBlock: KIFKEQ_clean_linker_1, # of connection points: 2
#     Edge 59, Type (0, 1), BuildingBlock: KIFKEQ_clean_linker_1, # of connection points: 2
#     Edge 60, Type (0, 1), BuildingBlock: KIFKEQ_clean_linker_1, # of connection points: 2
#     Edge 61, Type (0, 1), BuildingBlock: KIFKEQ_clean_linker_1, # of connection points: 2
#     Edge 62, Type (0, 1), BuildingBlock: KIFKEQ_clean_linker_1, # of connection points: 2
#     Edge 63, Type (0, 1), BuildingBlock: KIFKEQ_clean_linker_1, # of connection points: 2
#     Edge 64, Type (0, 1), BuildingBlock: KIFKEQ_clean_linker_1, # of connection points: 2
#     Edge 65, Type (0, 1), BuildingBlock: KIFKEQ_clean_linker_1, # of connection points: 2
#     Edge 66, Type (0, 1), BuildingBlock: KIFKEQ_clean_linker_1, # of connection points: 2
#     Edge 67, Type (0, 1), BuildingBlock: KIFKEQ_clean_linker_1, # of connection points: 2
#     Edge 68, Type (0, 1), BuildingBlock: KIFKEQ_clean_linker_1, # of connection points: 2
#     Edge 69, Type (0, 1), BuildingBlock: KIFKEQ_clean_linker_1, # of connection points: 2
#     Edge 70, Type (0, 1), BuildingBlock: KIFKEQ_clean_linker_1, # of connection points: 2
#     Edge 71, Type (0, 1), BuildingBlock: KIFKEQ_clean_linker_1, # of connection points: 2
#     Edge 72, Type (0, 1), BuildingBlock: KIFKEQ_clean_linker_1, # of connection points: 2
#     Edge 73, Type (0, 1), BuildingBlock: KIFKEQ_clean_linker_1, # of connection points: 2
#     Edge 74, Type (0, 1), BuildingBlock: KIFKEQ_clean_linker_1, # of connection points: 2
#     Edge 75, Type (0, 1), BuildingBlock: KIFKEQ_clean_linker_1, # of connection points: 2
#     Edge 76, Type (0, 1), BuildingBlock: KIFKEQ_clean_linker_1, # of connection points: 2
#     Edge 77, Type (0, 1), BuildingBlock: KIFKEQ_clean_linker_1, # of connection points: 2
#     Edge 78, Type (0, 1), BuildingBlock: KIFKEQ_clean_linker_1, # of connection points: 2
#     Edge 79, Type (0, 1), BuildingBlock: KIFKEQ_clean_linker_1, # of connection points: 2
#     Edge 80, Type (0, 1), BuildingBlock: KIFKEQ_clean_linker_1, # of connection points: 2
#     Edge 81, Type (0, 1), BuildingBlock: KIFKEQ_clean_linker_1, # of connection points: 2
#     Edge 82, Type (0, 1), BuildingBlock: KIFKEQ_clean_linker_1, # of connection points: 2
#     Edge 83, Type (0, 1), BuildingBlock: KIFKEQ_clean_linker_1, # of connection points: 2
#     Edge 84, Type (0, 1), BuildingBlock: KIFKEQ_clean_linker_1, # of connection points: 2
#     Edge 85, Type (0, 1), BuildingBlock: KIFKEQ_clean_linker_1, # of connection points: 2
#     Edge 86, Type (0, 1), BuildingBlock: KIFKEQ_clean_linker_1, # of connection points: 2
#     Edge 87, Type (0, 1), BuildingBlock: KIFKEQ_clean_linker_1, # of connection points: 2
#     Edge 88, Type (0, 1), BuildingBlock: KIFKEQ_clean_linker_1, # of connection points: 2
#     Edge 89, Type (0, 1), BuildingBlock: KIFKEQ_clean_linker_1, # of connection points: 2
#     Edge 90, Type (0, 1), BuildingBlock: KIFKEQ_clean_linker_1, # of connection points: 2
#     Edge 91, Type (0, 1), BuildingBlock: KIFKEQ_clean_linker_1, # of connection points: 2
#     Edge 92, Type (0, 1), BuildingBlock: KIFKEQ_clean_linker_1, # of connection points: 2
#     Edge 93, Type (0, 1), BuildingBlock: KIFKEQ_clean_linker_1, # of connection points: 2
#     Edge 94, Type (0, 1), BuildingBlock: KIFKEQ_clean_linker_1, # of connection points: 2
#     Edge 95, Type (0, 1), BuildingBlock: KIFKEQ_clean_linker_1, # of connection points: 2
#     Edge 96, Type (0, 1), BuildingBlock: KIFKEQ_clean_linker_1, # of connection points: 2
#     Edge 97, Type (0, 1), BuildingBlock: KIFKEQ_clean_linker_1, # of connection points: 2
#     Edge 98, Type (0, 1), BuildingBlock: KIFKEQ_clean_linker_1, # of connection points: 2
#     Edge 99, Type (0, 1), BuildingBlock: KIFKEQ_clean_linker_1, # of connection points: 2
#     Edge 100, Type (0, 1), BuildingBlock: KIFKEQ_clean_linker_1, # of connection points: 2
#     Edge 101, Type (0, 1), BuildingBlock: KIFKEQ_clean_linker_1, # of connection points: 2
#     Edge 102, Type (0, 1), BuildingBlock: KIFKEQ_clean_linker_1, # of connection points: 2
#     Edge 103, Type (0, 1), BuildingBlock: KIFKEQ_clean_linker_1, # of connection points: 2
#     Edge 104, Type (0, 1), BuildingBlock: KIFKEQ_clean_linker_1, # of connection points: 2
#     Edge 105, Type (0, 1), BuildingBlock: KIFKEQ_clean_linker_1, # of connection points: 2
#     Edge 106, Type (0, 1), BuildingBlock: KIFKEQ_clean_linker_1, # of connection points: 2
#     Edge 107, Type (0, 1), BuildingBlock: KIFKEQ_clean_linker_1, # of connection points: 2
#     Edge 108, Type (0, 1), BuildingBlock: KIFKEQ_clean_linker_1, # of connection points: 2
#     Edge 109, Type (0, 1), BuildingBlock: KIFKEQ_clean_linker_1, # of connection points: 2
#     Edge 110, Type (0, 1), BuildingBlock: KIFKEQ_clean_linker_1, # of connection points: 2
#     Edge 111, Type (0, 1), BuildingBlock: KIFKEQ_clean_linker_1, # of connection points: 2
#     Edge 112, Type (0, 1), BuildingBlock: KIFKEQ_clean_linker_1, # of connection points: 2
#     Edge 113, Type (0, 1), BuildingBlock: KIFKEQ_clean_linker_1, # of connection points: 2
#     Edge 114, Type (0, 1), BuildingBlock: KIFKEQ_clean_linker_1, # of connection points: 2
#     Edge 115, Type (0, 1), BuildingBlock: KIFKEQ_clean_linker_1, # of connection points: 2
#     Edge 116, Type (0, 1), BuildingBlock: KIFKEQ_clean_linker_1, # of connection points: 2
#     Edge 117, Type (0, 1), BuildingBlock: KIFKEQ_clean_linker_1, # of connection points: 2
#     Edge 118, Type (0, 1), BuildingBlock: KIFKEQ_clean_linker_1, # of connection points: 2
#     Edge 119, Type (0, 1), BuildingBlock: KIFKEQ_clean_linker_1, # of connection points: 2
# Relax obj value: 0.125
# Max RMSD: 0.182
# Mean RMSD: 0.087
data_MOF--net-bwt--node1-WUSLED_clean_sbu_0--node2-CUQRIR_clean_linker_1--edge1-KIFKEQ_clean_linker_1
_symmetry_space_group_name_H-M    P1
_symmetry_Int_Tables_number       1
_symmetry_cell_setting            triclinic
loop_
_symmetry_equiv_pos_as_xyz
'x, y, z'
_cell_length_a     64.760128
_cell_length_b     64.792472
_cell_length_c     64.824374
_cell_angle_alpha  96.339212
_cell_angle_beta   96.305757
_cell_angle_gamma 96.362329
loop_
_atom_site_label
_atom_site_type_symbol
_atom_site_fract_x
_atom_site_fract_y
_atom_site_fract_z
_atom_type_partial_charge
C0 C 0.32187 0.66816 0.36759 0.0
C1 C 0.33558 0.6606 0.38245 0.0
C2 C 0.36417 0.66597 0.36136 0.0
C3 C 0.35649 0.65963 0.37945 0.0
C4 C 0.35057 0.67437 0.34689 0.0
C5 C 0.32957 0.67541 0.34998 0.0
U6 U 0.28011 0.65328 0.40029 0.0
O7 O 0.25222 0.66699 0.40925 0.0
O8 O 0.24889 0.63508 0.39281 0.0
C9 C 0.23929 0.6504 0.40072 0.0
C10 C 0.29944 0.66717 0.37015 0.0
C11 C 0.21981 0.65418 0.38842 0.0
C12 C 0.20055 0.66435 0.35748 0.0
C13 C 0.21959 0.66134 0.36874 0.0
C14 C 0.18193 0.65303 0.38547 0.0
C15 C 0.18144 0.66027 0.36575 0.0
C16 C 0.20087 0.65007 0.39664 0.0
C17 C 0.30432 0.63095 0.44985 0.0
C18 C 0.28747 0.61908 0.47891 0.0
C19 C 0.32276 0.61183 0.4746 0.0
C20 C 0.32226 0.62229 0.45692 0.0
C21 C 0.30531 0.60984 0.48567 0.0
C22 C 0.28693 0.6295 0.46101 0.0
C23 C 0.30436 0.64073 0.43046 0.0
O24 O 0.28977 0.64806 0.36884 0.0
O25 O 0.29494 0.6796 0.38604 0.0
O26 O 0.29941 0.6599 0.43101 0.0
O27 O 0.2964 0.62864 0.41318 0.0
H28 H 0.32999 0.65509 0.39627 0.0
H29 H 0.36656 0.6535 0.39114 0.0
H30 H 0.35588 0.67931 0.33274 0.0
H31 H 0.31923 0.68131 0.33834 0.0
H32 H 0.20082 0.67009 0.34244 0.0
H33 H 0.23407 0.66458 0.36211 0.0
H34 H 0.1676 0.6493 0.39221 0.0
H35 H 0.20069 0.64438 0.41173 0.0
H36 H 0.27376 0.61775 0.48709 0.0
H37 H 0.33691 0.60534 0.47965 0.0
H38 H 0.33589 0.62344 0.4486 0.0
H39 H 0.27293 0.63612 0.45573 0.0
C40 C 0.18085 0.3171 0.76316 0.0
C41 C 0.16572 0.32971 0.76922 0.0
C42 C 0.13765 0.30119 0.75629 0.0
C43 C 0.14437 0.32186 0.76581 0.0
C44 C 0.153 0.28852 0.75075 0.0
C45 C 0.17431 0.2964 0.75413 0.0
U46 U 0.22835 0.35642 0.78821 0.0
O47 O 0.26106 0.35159 0.79797 0.0
O48 O 0.25411 0.37202 0.77385 0.0
C49 C 0.26859 0.36373 0.78489 0.0
C50 C 0.20337 0.32536 0.76549 0.0
C51 C 0.28659 0.35748 0.77452 0.0
C52 C 0.30333 0.34799 0.74351 0.0
C53 C 0.28518 0.35113 0.75292 0.0
C54 C 0.32433 0.35717 0.7772 0.0
C55 C 0.32324 0.35126 0.7555 0.0
C56 C 0.30627 0.36016 0.78653 0.0
C57 C 0.22249 0.40003 0.83088 0.0
C58 C 0.25227 0.42508 0.84684 0.0
C59 C 0.21814 0.42743 0.85827 0.0
C60 C 0.20974 0.41001 0.84388 0.0
C61 C 0.23953 0.43522 0.85995 0.0
C62 C 0.24383 0.40764 0.83245 0.0
C63 C 0.21341 0.3817 0.81583 0.0
O64 O 0.20787 0.34377 0.75918 0.0
O65 O 0.2144 0.32332 0.78326 0.0
O66 O 0.21972 0.36382 0.81985 0.0
O67 O 0.21294 0.38441 0.796 0.0
H68 H 0.17039 0.34574 0.77626 0.0
H69 H 0.1331 0.33223 0.77006 0.0
H70 H 0.14856 0.27247 0.74371 0.0
H71 H 0.18571 0.28635 0.74943 0.0
H72 H 0.30176 0.34318 0.72683 0.0
H73 H 0.27017 0.34905 0.74327 0.0
H74 H 0.33926 0.3603 0.78699 0.0
H75 H 0.30779 0.36534 0.80317 0.0
H76 H 0.26883 0.43046 0.84786 0.0
H77 H 0.2078 0.43498 0.86787 0.0
H78 H 0.19322 0.40437 0.84286 0.0
H79 H 0.25395 0.40007 0.82258 0.0
C80 C 0.68428 0.97818 0.63995 0.0
C81 C 0.70004 0.96927 0.63011 0.0
C82 C 0.7263 0.98598 0.65853 0.0
C83 C 0.72084 0.97302 0.6394 0.0
C84 C 0.71045 0.99476 0.66839 0.0
C85 C 0.68961 0.99084 0.65919 0.0
U86 U 0.64631 0.97126 0.59039 0.0
O87 O 0.61562 0.95232 0.58134 0.0
O88 O 0.6184 0.98649 0.5822 0.0
C89 C 0.60573 0.96889 0.58012 0.0
C90 C 0.66257 0.97554 0.62968 0.0
C91 C 0.58769 0.96958 0.59191 0.0
C92 C 0.57331 0.97435 0.62491 0.0
C93 C 0.59053 0.97267 0.61384 0.0
C94 C 0.55027 0.96946 0.59218 0.0
C95 C 0.55299 0.97292 0.61419 0.0
C96 C 0.5675 0.96783 0.58115 0.0
C97 C 0.66986 0.97043 0.53854 0.0
C98 C 0.65265 0.95799 0.50337 0.0
C99 C 0.68376 0.98339 0.50855 0.0
C100 C 0.68486 0.98312 0.5301 0.0
C101 C 0.66764 0.9709 0.49494 0.0
C102 C 0.65366 0.95787 0.52507 0.0
C103 C 0.67152 0.97101 0.56141 0.0
O104 O 0.65741 0.99136 0.62003 0.0
O105 O 0.65588 0.95722 0.61875 0.0
O106 O 0.66407 0.95394 0.56876 0.0
O107 O 0.66685 0.98828 0.57145 0.0
H108 H 0.69632 0.95971 0.61507 0.0
H109 H 0.73275 0.96627 0.63132 0.0
H110 H 0.71418 0.00469 0.68322 0.0
H111 H 0.67769 0.99797 0.66693 0.0
H112 H 0.5759 0.97679 0.64184 0.0
H113 H 0.60608 0.97404 0.62237 0.0
H114 H 0.53489 0.9686 0.58345 0.0
H115 H 0.56509 0.96553 0.56421 0.0
H116 H 0.64005 0.94825 0.49322 0.0
H117 H 0.69576 0.9932 0.50251 0.0
H118 H 0.69748 0.99289 0.54023 0.0
H119 H 0.64181 0.94805 0.53129 0.0
C120 C 0.81596 0.00807 0.28465 0.0
C121 C 0.79741 0.9997 0.27176 0.0
C122 C 0.77793 0.00186 0.30167 0.0
C123 C 0.77856 0.99669 0.2802 0.0
C124 C 0.79644 0.01085 0.31447 0.0
C125 C 0.81537 0.01381 0.30601 0.0
U126 U 0.84231 0.00232 0.2366 0.0
O127 O 0.86885 0.02017 0.22535 0.0
O128 O 0.86965 0.987 0.22922 0.0
C129 C 0.88013 0.00447 0.22543 0.0
C130 C 0.83581 0.0101 0.27566 0.0
C131 C 0.90207 0.00906 0.23554 0.0
C132 C 0.93305 0.03374 0.24892 0.0
C133 C 0.91182 0.02975 0.24097 0.0
C134 C 0.93509 0.99649 0.24653 0.0
C135 C 0.94497 0.01714 0.25158 0.0
C136 C 0.91394 0.9925 0.23851 0.0
C137 C 0.80394 0.98267 0.18682 0.0
C138 C 0.81265 0.97829 0.1512 0.0
C139 C 0.77975 0.96148 0.15949 0.0
C140 C 0.78483 0.97015 0.18029 0.0
C141 C 0.79369 0.96522 0.14479 0.0
C142 C 0.81784 0.98687 0.17219 0.0
C143 C 0.80916 0.99019 0.20914 0.0
O144 O 0.8412 0.99222 0.26774 0.0
O145 O 0.83785 0.02481 0.26332 0.0
O146 O 0.81712 0.00991 0.21411 0.0
O147 O 0.81854 0.97738 0.22025 0.0
H148 H 0.79758 0.99526 0.25517 0.0
H149 H 0.76449 0.98997 0.27 0.0
H150 H 0.79631 0.01586 0.33093 0.0
H151 H 0.82951 0.02049 0.31613 0.0
H152 H 0.9402 0.04982 0.25278 0.0
H153 H 0.9032 0.04289 0.23873 0.0
H154 H 0.9439 0.98335 0.24802 0.0
H155 H 0.907 0.97639 0.23418 0.0
H156 H 0.82366 0.98134 0.14015 0.0
H157 H 0.7649 0.95171 0.15489 0.0
H158 H 0.77395 0.96678 0.1914 0.0
H159 H 0.83275 0.99645 0.17706 0.0
C160 C 0.36111 0.31608 0.65629 0.0
C161 C 0.37481 0.32989 0.6474 0.0
C162 C 0.35366 0.35799 0.65457 0.0
C163 C 0.37117 0.35061 0.6466 0.0
C164 C 0.34021 0.34427 0.66397 0.0
C165 C 0.34393 0.32343 0.66483 0.0
U166 U 0.39849 0.27753 0.64712 0.0
O167 O 0.40751 0.25059 0.66238 0.0
O168 O 0.39505 0.24624 0.62907 0.0
C169 C 0.40129 0.23723 0.64544 0.0
C170 C 0.3651 0.29415 0.6564 0.0
C171 C 0.38849 0.21763 0.64812 0.0
C172 C 0.36059 0.19827 0.66308 0.0
C173 C 0.37222 0.21731 0.66078 0.0
C174 C 0.38124 0.17981 0.63996 0.0
C175 C 0.36496 0.17927 0.65266 0.0
C176 C 0.39285 0.19877 0.63774 0.0
C177 C 0.44972 0.30465 0.63046 0.0
C178 C 0.47945 0.28827 0.61975 0.0
C179 C 0.47688 0.32459 0.61532 0.0
C180 C 0.45816 0.32343 0.62415 0.0
C181 C 0.48769 0.30698 0.61277 0.0
C182 C 0.46053 0.28709 0.62846 0.0
C183 C 0.42903 0.30375 0.63779 0.0
O184 O 0.36657 0.28442 0.63783 0.0
O185 O 0.38008 0.29104 0.67072 0.0
O186 O 0.42772 0.29889 0.6568 0.0
O187 O 0.41329 0.29469 0.62411 0.0
H188 H 0.38835 0.32461 0.64101 0.0
H189 H 0.38201 0.36087 0.6396 0.0
H190 H 0.32658 0.34952 0.6702 0.0
H191 H 0.33329 0.31304 0.67191 0.0
H192 H 0.34804 0.19845 0.67282 0.0
H193 H 0.36852 0.23173 0.66885 0.0
H194 H 0.38528 0.16551 0.63197 0.0
H195 H 0.40537 0.19868 0.62794 0.0
H196 H 0.48749 0.2745 0.6183 0.0
H197 H 0.4825 0.33915 0.60989 0.0
H198 H 0.44996 0.33712 0.62555 0.0
H199 H 0.45418 0.27245 0.63329 0.0
C200 C 0.2852 0.80757 0.00159 0.0
C201 C 0.27214 0.79127 0.98878 0.0
C202 C 0.29799 0.7674 0.99479 0.0
C203 C 0.27853 0.77141 0.98531 0.0
C204 C 0.31083 0.78368 0.00799 0.0
C205 C 0.30449 0.80361 0.01133 0.0
U206 U 0.24044 0.83898 0.00208 0.0
O207 O 0.2336 0.86616 0.02256 0.0
O208 O 0.23394 0.86773 0.98892 0.0
C209 C 0.23262 0.87799 0.00732 0.0
C210 C 0.27837 0.82847 0.00507 0.0
C211 C 0.24372 0.89957 0.01188 0.0
C212 C 0.25397 0.9314 0.03625 0.0
C213 C 0.24621 0.91014 0.03231 0.0
C214 C 0.25746 0.9319 0.99952 0.0
C215 C 0.25926 0.94265 0.01983 0.0
C216 C 0.24972 0.91065 0.99558 0.0
C217 C 0.18674 0.80501 0.98851 0.0
C218 C 0.15408 0.81201 0.96992 0.0
C219 C 0.15457 0.78245 0.98978 0.0
C220 C 0.176 0.78784 0.99577 0.0
C221 C 0.1435 0.79408 0.97626 0.0
C222 C 0.17557 0.81745 0.97602 0.0
C223 C 0.2097 0.80834 0.99269 0.0
O224 O 0.26943 0.83507 0.98822 0.0
O225 O 0.26822 0.83161 0.02139 0.0
O226 O 0.21772 0.81533 0.01203 0.0
O227 O 0.21964 0.81702 0.97859 0.0
H228 H 0.25704 0.79394 0.98128 0.0
H229 H 0.26841 0.75934 0.97484 0.0
H230 H 0.32583 0.78108 0.0157 0.0
H231 H 0.31466 0.81592 0.02146 0.0
H232 H 0.25537 0.93916 0.05211 0.0
H233 H 0.24154 0.90216 0.0452 0.0
H234 H 0.26109 0.94013 0.98645 0.0
H235 H 0.24773 0.90312 0.97959 0.0
H236 H 0.14601 0.82122 0.95943 0.0
H237 H 0.14677 0.76878 0.99523 0.0
H238 H 0.18435 0.77813 0.00551 0.0
H239 H 0.18356 0.83087 0.97032 0.0
C240 C 0.78746 0.20688 0.34907 0.0
C241 C 0.80149 0.19445 0.35813 0.0
C242 C 0.77894 0.16279 0.34214 0.0
C243 C 0.79727 0.17261 0.3547 0.0
C244 C 0.76516 0.17539 0.33277 0.0
C245 C 0.76939 0.19724 0.33624 0.0
U246 U 0.82046 0.25596 0.37725 0.0
O247 O 0.82802 0.2873 0.36771 0.0
O248 O 0.81142 0.28361 0.39513 0.0
C249 C 0.8188 0.2965 0.38264 0.0
C250 C 0.79108 0.22982 0.35375 0.0
C251 C 0.80556 0.31254 0.3769 0.0
C252 C 0.77156 0.32393 0.3676 0.0
C253 C 0.78394 0.30779 0.37058 0.0
C254 C 0.80241 0.34948 0.37655 0.0
C255 C 0.78063 0.34499 0.37106 0.0
C256 C 0.81472 0.33342 0.37942 0.0
C257 C 0.87001 0.25157 0.4125 0.0
C258 C 0.88656 0.28141 0.43698 0.0
C259 C 0.9017 0.24878 0.4353 0.0
C260 C 0.88576 0.23986 0.41943 0.0
C261 C 0.90197 0.26951 0.44457 0.0
C262 C 0.87074 0.27253 0.42106 0.0
C263 C 0.85218 0.24159 0.39736 0.0
O264 O 0.78964 0.23704 0.37323 0.0
O265 O 0.80734 0.2391 0.3464 0.0
O266 O 0.8522 0.24653 0.37823 0.0
O267 O 0.83385 0.24195 0.40419 0.0
H268 H 0.81554 0.20166 0.3681 0.0
H269 H 0.80835 0.1634 0.36194 0.0
H270 H 0.75077 0.1684 0.32324 0.0
H271 H 0.75833 0.20661 0.32921 0.0
H272 H 0.75481 0.32 0.36343 0.0
H273 H 0.77659 0.29172 0.36858 0.0
H274 H 0.8099 0.3655 0.37899 0.0
H275 H 0.83138 0.33738 0.38425 0.0
H276 H 0.88651 0.29749 0.44364 0.0
H277 H 0.91326 0.23919 0.44093 0.0
H278 H 0.8854 0.22364 0.41298 0.0
H279 H 0.85874 0.28183 0.41581 0.0
C280 C 0.63347 0.6775 0.97919 0.0
C281 C 0.6213 0.69411 0.98003 0.0
C282 C 0.65125 0.71826 0.97472 0.0
C283 C 0.6301 0.7143 0.97785 0.0
C284 C 0.66336 0.70149 0.97371 0.0
C285 C 0.65452 0.68126 0.97596 0.0
U286 U 0.58485 0.64163 0.98271 0.0
O287 O 0.57351 0.60937 0.9685 0.0
O288 O 0.5777 0.61717 0.00267 0.0
C289 C 0.57321 0.60233 0.98674 0.0
C290 C 0.62397 0.6563 0.98134 0.0
C291 C 0.58319 0.58335 0.98901 0.0
C292 C 0.61421 0.56584 0.9945 0.0
C293 C 0.60504 0.58404 0.99166 0.0
C294 C 0.57973 0.54614 0.99179 0.0
C295 C 0.60163 0.5467 0.99468 0.0
C296 C 0.5706 0.56433 0.989 0.0
C297 C 0.53345 0.6656 0.98006 0.0
C298 C 0.49805 0.65072 0.96537 0.0
C299 C 0.50356 0.67946 0.99345 0.0
C300 C 0.52518 0.67966 0.99398 0.0
C301 C 0.48974 0.66533 0.9788 0.0
C302 C 0.51971 0.65082 0.96603 0.0
C303 C 0.55632 0.66718 0.98005 0.0
O304 O 0.61599 0.65448 0.99895 0.0
O305 O 0.61151 0.6469 0.96481 0.0
O306 O 0.56305 0.65757 0.96361 0.0
O307 O 0.56717 0.66489 0.99784 0.0
H308 H 0.60494 0.69143 0.98233 0.0
H309 H 0.62027 0.72678 0.97842 0.0
H310 H 0.67975 0.70407 0.97152 0.0
H311 H 0.66411 0.66858 0.97522 0.0
H312 H 0.63112 0.56672 0.99642 0.0
H313 H 0.61496 0.59865 0.99165 0.0
H314 H 0.56962 0.53172 0.99211 0.0
H315 H 0.55369 0.5636 0.98704 0.0
H316 H 0.48787 0.63974 0.95381 0.0
H317 H 0.49768 0.69063 0.00433 0.0
H318 H 0.53548 0.69107 0.00504 0.0
H319 H 0.52566 0.63964 0.95522 0.0
C320 C 0.65971 0.36442 0.31616 0.0
C321 C 0.6582 0.38041 0.33221 0.0
C322 C 0.65797 0.35535 0.35762 0.0
C323 C 0.65741 0.37594 0.35276 0.0
C324 C 0.66001 0.33949 0.34153 0.0
C325 C 0.66086 0.344 0.32098 0.0
U326 U 0.64714 0.40116 0.27698 0.0
O327 O 0.66157 0.41002 0.24945 0.0
O328 O 0.62875 0.39592 0.24585 0.0
C329 C 0.64468 0.40266 0.23641 0.0
C330 C 0.65839 0.36875 0.29425 0.0
C331 C 0.64793 0.38967 0.21714 0.0
C332 C 0.65121 0.35613 0.19754 0.0
C333 C 0.64864 0.36802 0.21634 0.0
C334 C 0.65248 0.38744 0.18026 0.0
C335 C 0.6532 0.36572 0.17924 0.0
C336 C 0.64989 0.39924 0.19898 0.0
C337 C 0.6297 0.45264 0.3024 0.0
C338 C 0.61215 0.47844 0.28501 0.0
C339 C 0.62048 0.48325 0.32273 0.0
C340 C 0.62965 0.46473 0.32168 0.0
C341 C 0.61134 0.49018 0.30447 0.0
C342 C 0.62118 0.45971 0.28399 0.0
C343 C 0.63741 0.43215 0.30234 0.0
O344 O 0.63928 0.36954 0.28544 0.0
O345 O 0.67192 0.38411 0.29042 0.0
O346 O 0.65646 0.43099 0.29749 0.0
O347 O 0.62398 0.4159 0.29395 0.0
H348 H 0.65712 0.39626 0.32876 0.0
H349 H 0.65564 0.38849 0.36469 0.0
H350 H 0.66072 0.32353 0.34478 0.0
H351 H 0.66193 0.33146 0.30878 0.0
H352 H 0.65189 0.33949 0.19739 0.0
H353 H 0.64717 0.36033 0.23022 0.0
H354 H 0.65361 0.39534 0.16648 0.0
H355 H 0.64926 0.41591 0.19924 0.0
H356 H 0.60511 0.48332 0.2707 0.0
H357 H 0.62038 0.49209 0.33791 0.0
H358 H 0.63626 0.45955 0.33604 0.0
H359 H 0.62106 0.45051 0.26896 0.0
C360 C 0.03616 0.3122 0.81685 0.0
C361 C 0.01783 0.30099 0.80594 0.0
C362 C 0.01988 0.32185 0.777 0.0
C363 C 0.00979 0.30581 0.78673 0.0
C364 C 0.03866 0.33306 0.78776 0.0
C365 C 0.04673 0.32828 0.80763 0.0
U366 U 0.03596 0.26805 0.84749 0.0
O367 O 0.02173 0.26181 0.87542 0.0
O368 O 0.05509 0.25852 0.8746 0.0
C369 C 0.03923 0.25805 0.88576 0.0
C370 C 0.04346 0.30598 0.83745 0.0
C371 C 0.04293 0.2666 0.9082 0.0
C372 C 0.06047 0.26429 0.94296 0.0
C373 C 0.05976 0.26101 0.92114 0.0
C374 C 0.02808 0.2797 0.93926 0.0
C375 C 0.04415 0.27287 0.9521 0.0
C376 C 0.02753 0.27675 0.91755 0.0
C377 C 0.00872 0.21747 0.81302 0.0
C378 C 0.00961 0.18 0.81314 0.0
C379 C 0.97812 0.19284 0.79863 0.0
C380 C 0.98798 0.21334 0.80332 0.0
C381 C 0.9888 0.17591 0.80338 0.0
C382 C 0.01948 0.20062 0.81798 0.0
C383 C 0.01869 0.23942 0.81672 0.0
O384 O 0.02808 0.30022 0.84806 0.0
O385 O 0.0576 0.29286 0.83737 0.0
O386 O 0.03903 0.24299 0.82248 0.0
O387 O 0.00818 0.25265 0.82674 0.0
H388 H 0.00937 0.28835 0.81236 0.0
H389 H 0.99548 0.29635 0.77967 0.0
H390 H 0.0469 0.34566 0.7811 0.0
H391 H 0.06106 0.3371 0.81571 0.0
H392 H 0.07297 0.25884 0.95262 0.0
H393 H 0.07168 0.25293 0.9144 0.0
H394 H 0.01539 0.28645 0.94601 0.0
H395 H 0.01427 0.28124 0.90816 0.0
H396 H 0.01821 0.16726 0.81707 0.0
H397 H 0.96224 0.19024 0.79075 0.0
H398 H 0.97943 0.22603 0.7991 0.0
H399 H 0.03552 0.20333 0.82541 0.0
C400 C 0.33751 0.77159 0.19718 0.0
C401 C 0.34807 0.78375 0.18407 0.0
C402 C 0.32954 0.76151 0.15334 0.0
C403 C 0.34412 0.77877 0.16233 0.0
C404 C 0.31862 0.74973 0.16662 0.0
C405 C 0.32261 0.75472 0.18835 0.0
U406 U 0.3682 0.80407 0.24546 0.0
O407 O 0.35935 0.81236 0.277 0.0
O408 O 0.38582 0.79447 0.27285 0.0
C409 C 0.37343 0.80187 0.28584 0.0
C410 C 0.34272 0.77569 0.22001 0.0
C411 C 0.36646 0.78795 0.30096 0.0
C412 C 0.36487 0.75425 0.31434 0.0
C413 C 0.36844 0.76646 0.29829 0.0
C414 C 0.35591 0.78446 0.33539 0.0
C415 C 0.35907 0.76326 0.33325 0.0
C416 C 0.35968 0.79671 0.31942 0.0
C417 C 0.40691 0.85081 0.2401 0.0
C418 C 0.42811 0.87001 0.27095 0.0
C419 C 0.4369 0.87549 0.23642 0.0
C420 C 0.41978 0.86105 0.22741 0.0
C421 C 0.44146 0.87994 0.25831 0.0
C422 C 0.41102 0.85551 0.26192 0.0
C423 C 0.39041 0.83403 0.23054 0.0
O424 O 0.36196 0.77306 0.22696 0.0
O425 O 0.33668 0.79283 0.22903 0.0
O426 O 0.37156 0.83569 0.23579 0.0
O427 O 0.39575 0.8151 0.23089 0.0
H428 H 0.35971 0.79681 0.19067 0.0
H429 H 0.35297 0.78804 0.15261 0.0
H430 H 0.30708 0.73654 0.16022 0.0
H431 H 0.31429 0.7452 0.19826 0.0
H432 H 0.3672 0.73789 0.3122 0.0
H433 H 0.37351 0.75921 0.28416 0.0
H434 H 0.35162 0.79187 0.34986 0.0
H435 H 0.35812 0.81326 0.32185 0.0
H436 H 0.43098 0.87326 0.28784 0.0
H437 H 0.447 0.88259 0.22621 0.0
H438 H 0.41693 0.85743 0.21055 0.0
H439 H 0.40128 0.84763 0.27196 0.0
C440 C 0.97461 0.63347 0.68013 0.0
C441 C 0.97314 0.62096 0.69636 0.0
C442 C 0.97384 0.65191 0.72147 0.0
C443 C 0.97276 0.63007 0.71682 0.0
C444 C 0.97519 0.66441 0.70509 0.0
C445 C 0.97559 0.65523 0.68456 0.0
U446 U 0.97235 0.58376 0.64457 0.0
O447 O 0.95616 0.57284 0.61298 0.0
O448 O 0.99034 0.57421 0.61903 0.0
C449 C 0.97376 0.57133 0.60489 0.0
C450 C 0.97504 0.62354 0.65872 0.0
C451 C 0.97597 0.58212 0.58632 0.0
C452 C 0.98014 0.61415 0.5701 0.0
C453 C 0.97785 0.60403 0.58785 0.0
C454 C 0.97861 0.58053 0.54913 0.0
C455 C 0.98063 0.60252 0.55052 0.0
C456 C 0.97631 0.57044 0.56688 0.0
C457 C 0.96607 0.53492 0.67426 0.0
C458 C 0.96699 0.49858 0.66074 0.0
C459 C 0.96065 0.50766 0.69659 0.0
C460 C 0.96204 0.52871 0.69358 0.0
C461 C 0.96332 0.49235 0.6803 0.0
C462 C 0.96841 0.51978 0.65775 0.0
C463 C 0.96817 0.55734 0.6722 0.0
O464 O 0.99152 0.61384 0.6561 0.0
O465 O 0.95738 0.61239 0.65014 0.0
O466 O 0.9522 0.56411 0.66184 0.0
O467 O 0.98642 0.56563 0.66793 0.0
H468 H 0.97226 0.60409 0.69318 0.0
H469 H 0.97139 0.61996 0.72897 0.0
H470 H 0.97625 0.68129 0.70821 0.0
H471 H 0.97675 0.6651 0.67218 0.0
H472 H 0.98191 0.63109 0.57179 0.0
H473 H 0.97767 0.61329 0.6028 0.0
H474 H 0.97864 0.57108 0.53427 0.0
H475 H 0.97481 0.5535 0.56543 0.0
H476 H 0.96926 0.48716 0.64794 0.0
H477 H 0.95747 0.50336 0.71171 0.0
H478 H 0.96011 0.54023 0.70646 0.0
H479 H 0.97156 0.52437 0.64272 0.0
C480 C 0.67459 0.32914 0.63707 0.0
C481 C 0.66214 0.34174 0.62607 0.0
C482 C 0.63249 0.33138 0.64449 0.0
C483 C 0.64136 0.34281 0.62969 0.0
C484 C 0.64479 0.31818 0.65496 0.0
C485 C 0.66566 0.31711 0.6513 0.0
U486 U 0.71722 0.34214 0.60388 0.0
O487 O 0.74986 0.35687 0.61122 0.0
O488 O 0.74295 0.32549 0.59344 0.0
C489 C 0.7575 0.34059 0.60235 0.0
C490 C 0.69683 0.32886 0.63373 0.0
C491 C 0.77687 0.33443 0.61314 0.0
C492 C 0.80377 0.33768 0.64316 0.0
C493 C 0.78394 0.34138 0.63431 0.0
C494 C 0.80952 0.31952 0.61003 0.0
C495 C 0.817 0.32702 0.63101 0.0
C496 C 0.78974 0.32319 0.60123 0.0
C497 C 0.69598 0.3677 0.55524 0.0
C498 C 0.71448 0.3791 0.52699 0.0
C499 C 0.67861 0.38578 0.52879 0.0
C500 C 0.67827 0.37591 0.54684 0.0
C501 C 0.69668 0.38752 0.51853 0.0
C502 C 0.71413 0.36928 0.54523 0.0
C503 C 0.69479 0.35785 0.57453 0.0
O504 O 0.7002 0.31642 0.61733 0.0
O505 O 0.70789 0.34739 0.63549 0.0
O506 O 0.70396 0.36899 0.59194 0.0
O507 O 0.6975 0.33798 0.57349 0.0
H508 H 0.66858 0.3509 0.61474 0.0
H509 H 0.63227 0.35278 0.621 0.0
H510 H 0.63851 0.30917 0.66647 0.0
H511 H 0.6749 0.30713 0.65982 0.0
H512 H 0.80902 0.34386 0.65932 0.0
H513 H 0.77446 0.35022 0.64388 0.0
H514 H 0.81907 0.31097 0.60027 0.0
H515 H 0.78472 0.31777 0.58484 0.0
H516 H 0.72859 0.37991 0.51942 0.0
H517 H 0.66474 0.39238 0.52313 0.0
H518 H 0.66412 0.37486 0.55439 0.0
H519 H 0.72796 0.36295 0.55151 0.0
C520 C 0.79634 0.66192 0.22446 0.0
C521 C 0.80842 0.6532 0.20984 0.0
C522 C 0.84041 0.66695 0.23286 0.0
C523 C 0.83027 0.65573 0.21397 0.0
C524 C 0.8282 0.67614 0.24717 0.0
C525 C 0.80635 0.67361 0.24301 0.0
U526 U 0.74803 0.63376 0.19134 0.0
O527 O 0.7203 0.6153 0.19957 0.0
O528 O 0.71655 0.64273 0.18301 0.0
C529 C 0.70742 0.62798 0.19254 0.0
C530 C 0.77339 0.6576 0.22099 0.0
C531 C 0.69188 0.63425 0.20632 0.0
C532 C 0.67892 0.6371 0.24027 0.0
C533 C 0.69496 0.63341 0.22801 0.0
C534 C 0.65689 0.64347 0.20954 0.0
C535 C 0.65951 0.64175 0.23111 0.0
C536 C 0.67287 0.63968 0.1973 0.0
C537 C 0.75764 0.59871 0.1425 0.0
C538 C 0.73073 0.57326 0.122 0.0
C539 C 0.76666 0.57472 0.11443 0.0
C540 C 0.77251 0.59135 0.13037 0.0
C541 C 0.74581 0.56516 0.1104 0.0
C542 C 0.73662 0.58989 0.13801 0.0
C543 C 0.76471 0.61424 0.16085 0.0
O544 O 0.76426 0.66485 0.20462 0.0
O545 O 0.76602 0.6382 0.22259 0.0
O546 O 0.76317 0.60721 0.17892 0.0
O547 O 0.7586 0.63286 0.1601 0.0
H548 H 0.80091 0.64399 0.19547 0.0
H549 H 0.83916 0.64827 0.20272 0.0
H550 H 0.83553 0.68514 0.26172 0.0
H551 H 0.79725 0.68043 0.25445 0.0
H552 H 0.68146 0.63549 0.25678 0.0
H553 H 0.70951 0.6293 0.2354 0.0
H554 H 0.64234 0.64743 0.20201 0.0
H555 H 0.67017 0.64049 0.18063 0.0
H556 H 0.71458 0.5661 0.11938 0.0
H557 H 0.77856 0.56899 0.10559 0.0
H558 H 0.7888 0.59802 0.13366 0.0
H559 H 0.72497 0.59537 0.14735 0.0
C560 C 0.32269 0.02476 0.3675 0.0
C561 C 0.30608 0.02442 0.37969 0.0
C562 C 0.2815 0.02563 0.34877 0.0
C563 C 0.28565 0.02482 0.3704 0.0
C564 C 0.29826 0.02594 0.33663 0.0
C565 C 0.31871 0.02551 0.34595 0.0
U566 U 0.36018 0.02744 0.4166 0.0
O567 O 0.3863 0.00958 0.42444 0.0
O568 O 0.39197 0.04379 0.4258 0.0
C569 C 0.40029 0.02626 0.42669 0.0
C570 C 0.34415 0.0246 0.37735 0.0
C571 C 0.41801 0.02435 0.41469 0.0
C572 C 0.43197 0.02032 0.38144 0.0
C573 C 0.41492 0.02177 0.39276 0.0
C574 C 0.45529 0.02405 0.41393 0.0
C575 C 0.45236 0.02151 0.39192 0.0
C576 C 0.43822 0.02547 0.42521 0.0
C577 C 0.33875 0.03357 0.46895 0.0
C578 C 0.35512 0.02379 0.50139 0.0
C579 C 0.32804 0.04678 0.50209 0.0
C580 C 0.3263 0.04577 0.48033 0.0
C581 C 0.34217 0.03548 0.51279 0.0
C582 C 0.35352 0.02295 0.47963 0.0
C583 C 0.33577 0.03176 0.44601 0.0
O584 O 0.35273 0.04236 0.38828 0.0
O585 O 0.34712 0.00818 0.38703 0.0
O586 O 0.33827 0.01348 0.43622 0.0
O587 O 0.34454 0.0477 0.43785 0.0
H588 H 0.30894 0.02384 0.39639 0.0
H589 H 0.27308 0.02426 0.38013 0.0
H590 H 0.29562 0.0268 0.31998 0.0
H591 H 0.33141 0.02586 0.33637 0.0
H592 H 0.42925 0.01854 0.36452 0.0
H593 H 0.39934 0.02098 0.38443 0.0
H594 H 0.47075 0.02468 0.42244 0.0
H595 H 0.44081 0.02743 0.44216 0.0
H596 H 0.36621 0.01503 0.50928 0.0
H597 H 0.31767 0.05568 0.51045 0.0
H598 H 0.31489 0.05413 0.47234 0.0
H599 H 0.36348 0.01366 0.47113 0.0
C600 C 0.18867 0.00424 0.7183 0.0
C601 C 0.20663 0.01592 0.72984 0.0
C602 C 0.22725 0.00695 0.70178 0.0
C603 C 0.22569 0.01739 0.7216 0.0
C604 C 0.20925 0.99511 0.69032 0.0
C605 C 0.1901 0.99378 0.69853 0.0
U606 U 0.16299 0.00629 0.76682 0.0
O607 O 0.13689 0.02202 0.77707 0.0
O608 O 0.13588 0.98794 0.77662 0.0
C609 C 0.12593 0.00441 0.77978 0.0
C610 C 0.16881 0.00241 0.7274 0.0
C611 C 0.10375 0.00186 0.77122 0.0
C612 C 0.07609 0.00127 0.74255 0.0
C613 C 0.0974 0.00234 0.74989 0.0
C614 C 0.06746 0.99884 0.77773 0.0
C615 C 0.06088 0.99969 0.75645 0.0
C616 C 0.08868 0.99989 0.785 0.0
C617 C 0.20119 0.01745 0.81725 0.0
C618 C 0.19405 0.03379 0.85083 0.0
C619 C 0.22565 0.01729 0.84831 0.0
C620 C 0.21974 0.01171 0.82689 0.0
C621 C 0.21315 0.02888 0.86042 0.0
C622 C 0.18808 0.02806 0.8294 0.0
C623 C 0.19649 0.01332 0.79441 0.0
O624 O 0.16568 0.98621 0.73774 0.0
O625 O 0.16449 0.01991 0.73738 0.0
O626 O 0.18827 0.02816 0.78529 0.0
O627 O 0.18758 0.99439 0.78686 0.0
H628 H 0.20592 0.02396 0.74527 0.0
H629 H 0.23914 0.0269 0.73067 0.0
H630 H 0.20994 0.98676 0.67506 0.0
H631 H 0.17647 0.9845 0.68951 0.0
H632 H 0.07153 0.00178 0.72605 0.0
H633 H 0.10891 0.00386 0.73905 0.0
H634 H 0.05628 0.99804 0.78895 0.0
H635 H 0.09336 0.99963 0.80153 0.0
H636 H 0.18414 0.04282 0.85967 0.0
H637 H 0.24024 0.01291 0.8553 0.0
H638 H 0.22995 0.00336 0.81775 0.0
H639 H 0.17359 0.0325 0.82222 0.0
C640 C 0.64131 0.68014 0.34201 0.0
C641 C 0.62722 0.66692 0.35111 0.0
C642 C 0.64799 0.63815 0.34528 0.0
C643 C 0.63057 0.64619 0.35282 0.0
C644 C 0.6616 0.65119 0.33534 0.0
C645 C 0.65833 0.67206 0.33383 0.0
U646 U 0.60706 0.72227 0.35157 0.0
O647 O 0.61313 0.75392 0.36902 0.0
O648 O 0.60009 0.74966 0.33588 0.0
C649 C 0.60678 0.76299 0.35271 0.0
C650 C 0.63855 0.70246 0.34195 0.0
C651 C 0.61916 0.78279 0.34984 0.0
C652 C 0.65003 0.80296 0.34045 0.0
C653 C 0.63899 0.7836 0.34289 0.0
C654 C 0.62159 0.82071 0.352 0.0
C655 C 0.64138 0.82179 0.34486 0.0
C656 C 0.61065 0.80148 0.35442 0.0
C657 C 0.55391 0.70054 0.36847 0.0
C658 C 0.52899 0.71991 0.3854 0.0
C659 C 0.52108 0.68246 0.37553 0.0
C660 C 0.54014 0.68212 0.36743 0.0
C661 C 0.5153 0.70131 0.38485 0.0
C662 C 0.54817 0.71953 0.37726 0.0
C663 C 0.57458 0.69904 0.36147 0.0
O664 O 0.62387 0.70649 0.32781 0.0
O665 O 0.63793 0.7126 0.36055 0.0
O666 O 0.59082 0.70717 0.37501 0.0
O667 O 0.57658 0.70284 0.34225 0.0
H668 H 0.61383 0.67278 0.35733 0.0
H669 H 0.61959 0.63648 0.36021 0.0
H670 H 0.67519 0.6455 0.32943 0.0
H671 H 0.66932 0.68198 0.32665 0.0
H672 H 0.66518 0.80316 0.33482 0.0
H673 H 0.64585 0.76932 0.33932 0.0
H674 H 0.61457 0.83481 0.35597 0.0
H675 H 0.59544 0.80121 0.35996 0.0
H676 H 0.52497 0.73472 0.39225 0.0
H677 H 0.51123 0.66776 0.37515 0.0
H678 H 0.54437 0.6673 0.36079 0.0
H679 H 0.55865 0.73393 0.37818 0.0
C680 C 0.72129 0.18707 0.00186 0.0
C681 C 0.73265 0.20411 0.01517 0.0
C682 C 0.70554 0.226 0.00654 0.0
C683 C 0.72478 0.22334 0.01759 0.0
C684 C 0.69436 0.20896 0.99299 0.0
C685 C 0.70217 0.18965 0.9907 0.0
U686 U 0.76813 0.15776 0.00293 0.0
O687 O 0.77545 0.12966 0.01687 0.0
O688 O 0.77565 0.13039 0.98306 0.0
C689 C 0.77708 0.1191 0.9987 0.0
C690 C 0.72961 0.16681 0.99928 0.0
C691 C 0.76647 0.09741 0.99461 0.0
C692 C 0.7431 0.06878 0.00395 0.0
C693 C 0.75103 0.09003 0.00658 0.0
C694 C 0.76521 0.06217 0.97676 0.0
C695 C 0.75037 0.05455 0.98924 0.0
C696 C 0.7732 0.08336 0.97947 0.0
C697 C 0.82136 0.1916 0.01604 0.0
C698 C 0.8537 0.17968 0.02998 0.0
C699 C 0.85424 0.21423 0.01886 0.0
C700 C 0.83261 0.21055 0.0131 0.0
C701 C 0.86496 0.199 0.02777 0.0
C702 C 0.83205 0.17597 0.02408 0.0
C703 C 0.79842 0.18895 0.01176 0.0
O704 O 0.74007 0.16383 0.98315 0.0
O705 O 0.7389 0.16121 0.01649 0.0
O706 O 0.78841 0.18065 0.02602 0.0
O707 O 0.79047 0.18146 0.99252 0.0
H708 H 0.74757 0.20252 0.02379 0.0
H709 H 0.73363 0.23602 0.02837 0.0
H710 H 0.67961 0.21053 0.98406 0.0
H711 H 0.69329 0.17676 0.9802 0.0
H712 H 0.73149 0.06343 0.01363 0.0
H713 H 0.74546 0.10053 0.01833 0.0
H714 H 0.77132 0.05162 0.96547 0.0
H715 H 0.78518 0.08867 0.97015 0.0
H716 H 0.86157 0.16758 0.03659 0.0
H717 H 0.86242 0.22935 0.01719 0.0
H718 H 0.82457 0.22277 0.00691 0.0
H719 H 0.82361 0.16115 0.02631 0.0
C720 C 0.22482 0.79885 0.66809 0.0
C721 C 0.20962 0.80985 0.65868 0.0
C722 C 0.22989 0.84296 0.67387 0.0
C723 C 0.21212 0.83171 0.66154 0.0
C724 C 0.24476 0.83182 0.6838 0.0
C725 C 0.24226 0.80992 0.68088 0.0
U726 U 0.19611 0.74973 0.63729 0.0
O727 O 0.2071 0.72392 0.61843 0.0
O728 O 0.18957 0.71736 0.64464 0.0
C729 C 0.20043 0.70989 0.63015 0.0
C730 C 0.2232 0.77602 0.66321 0.0
C731 C 0.21508 0.695 0.63614 0.0
C732 C 0.2482 0.68095 0.63378 0.0
C733 C 0.23574 0.69697 0.63109 0.0
C734 C 0.2201 0.66128 0.64779 0.0
C735 C 0.24031 0.6627 0.64165 0.0
C736 C 0.20758 0.67723 0.64495 0.0
C737 C 0.14843 0.75538 0.5996 0.0
C738 C 0.13092 0.72573 0.57541 0.0
C739 C 0.12282 0.76078 0.57115 0.0
C740 C 0.13695 0.76877 0.5888 0.0
C741 C 0.11996 0.73923 0.56403 0.0
C742 C 0.14515 0.73377 0.59303 0.0
C743 C 0.16509 0.76433 0.61637 0.0
O744 O 0.20685 0.7654 0.66918 0.0
O745 O 0.22634 0.76968 0.64398 0.0
O746 O 0.18402 0.76513 0.61081 0.0
O747 O 0.16379 0.75766 0.63468 0.0
H748 H 0.19606 0.80151 0.64869 0.0
H749 H 0.20028 0.83981 0.65389 0.0
H750 H 0.25873 0.84002 0.6932 0.0
H751 H 0.2542 0.80165 0.68812 0.0
H752 H 0.2638 0.68255 0.62913 0.0
H753 H 0.24204 0.7105 0.62432 0.0
H754 H 0.21352 0.64733 0.65372 0.0
H755 H 0.19168 0.67527 0.64883 0.0
H756 H 0.12916 0.70909 0.57018 0.0
H757 H 0.11438 0.7715 0.56284 0.0
H758 H 0.13937 0.7855 0.59366 0.0
H759 H 0.15407 0.72324 0.60113 0.0
C760 C 0.37431 0.32018 0.02584 0.0
C761 C 0.38655 0.30376 0.02757 0.0
C762 C 0.35535 0.2796 0.02928 0.0
C763 C 0.37716 0.28363 0.02927 0.0
C764 C 0.34322 0.29624 0.02778 0.0
C765 C 0.35264 0.31635 0.02606 0.0
U766 U 0.42282 0.35831 0.02481 0.0
O767 O 0.42939 0.38166 0.00344 0.0
O768 O 0.43057 0.39157 0.0371 0.0
C769 C 0.43107 0.39745 0.01837 0.0
C770 C 0.38399 0.34121 0.02344 0.0
C771 C 0.41831 0.4141 0.01389 0.0
C772 C 0.38458 0.42719 0.01015 0.0
C773 C 0.39655 0.41104 0.01401 0.0
C774 C 0.41604 0.44947 0.00578 0.0
C775 C 0.39421 0.44663 0.00609 0.0
C776 C 0.42798 0.43332 0.00967 0.0
C777 C 0.4766 0.34044 0.03405 0.0
C778 C 0.50806 0.35812 0.02342 0.0
C779 C 0.51073 0.33182 0.04711 0.0
C780 C 0.48896 0.32897 0.04644 0.0
C781 C 0.52048 0.34614 0.03529 0.0
C782 C 0.48628 0.35538 0.0229 0.0
C783 C 0.45369 0.33627 0.03254 0.0
O784 O 0.39475 0.35175 0.04046 0.0
O785 O 0.39365 0.34236 0.00673 0.0
O786 O 0.44357 0.33603 0.01376 0.0
O787 O 0.44513 0.34644 0.04738 0.0
H788 H 0.40335 0.30648 0.02739 0.0
H789 H 0.38692 0.27114 0.03012 0.0
H790 H 0.32644 0.29374 0.02802 0.0
H791 H 0.34299 0.3289 0.02479 0.0
H792 H 0.36785 0.42458 0.01071 0.0
H793 H 0.38887 0.39623 0.01727 0.0
H794 H 0.42389 0.46412 0.00237 0.0
H795 H 0.44477 0.43586 0.00943 0.0
H796 H 0.51517 0.36933 0.01425 0.0
H797 H 0.51986 0.32214 0.05614 0.0
H798 H 0.48174 0.31744 0.0552 0.0
H799 H 0.47698 0.36458 0.01343 0.0
C800 C 0.33297 0.62681 0.6699 0.0
C801 C 0.34204 0.61242 0.65701 0.0
C802 C 0.33441 0.63141 0.62722 0.0
C803 C 0.3427 0.61466 0.6359 0.0
C804 C 0.32425 0.6451 0.63994 0.0
C805 C 0.32358 0.64283 0.66113 0.0
U806 U 0.34936 0.59783 0.71471 0.0
O807 O 0.36643 0.60828 0.74599 0.0
O808 O 0.335 0.5907 0.74281 0.0
C809 C 0.35067 0.6014 0.75562 0.0
C810 C 0.33441 0.6256 0.69258 0.0
C811 C 0.34513 0.61567 0.77314 0.0
C812 C 0.35216 0.64804 0.79719 0.0
C813 C 0.35607 0.63582 0.77915 0.0
C814 C 0.32588 0.62052 0.8032 0.0
C815 C 0.33722 0.64042 0.80961 0.0
C816 C 0.32985 0.60828 0.78525 0.0
C817 C 0.3741 0.54758 0.69725 0.0
C818 C 0.37704 0.5149 0.71199 0.0
C819 C 0.40062 0.52583 0.68763 0.0
C820 C 0.39084 0.54381 0.68597 0.0
C821 C 0.39388 0.51111 0.70064 0.0
C822 C 0.36724 0.533 0.71034 0.0
C823 C 0.36374 0.56635 0.69409 0.0
O824 O 0.32256 0.60988 0.69816 0.0
O825 O 0.35363 0.62801 0.70219 0.0
O826 O 0.37509 0.58445 0.7006 0.0
O827 O 0.34414 0.56596 0.69779 0.0
H828 H 0.34911 0.59975 0.66344 0.0
H829 H 0.35025 0.60358 0.62649 0.0
H830 H 0.31773 0.65819 0.63382 0.0
H831 H 0.31634 0.65397 0.67081 0.0
H832 H 0.36102 0.66338 0.80156 0.0
H833 H 0.368 0.64202 0.77024 0.0
H834 H 0.31447 0.61403 0.81253 0.0
H835 H 0.32137 0.59273 0.78116 0.0
H836 H 0.37155 0.50396 0.72226 0.0
H837 H 0.41322 0.52327 0.67833 0.0
H838 H 0.39623 0.55473 0.67561 0.0
H839 H 0.3543 0.53553 0.71918 0.0
C840 C 0.99572 0.71958 0.19076 0.0
C841 C 0.00676 0.73187 0.20864 0.0
C842 C 1.00116 0.70294 0.22917 0.0
C843 C 0.00951 0.7236 0.22767 0.0
C844 C 0.98963 0.69093 0.2113 0.0
C845 C 0.98697 0.69917 0.19228 0.0
U846 U 0.99966 0.76635 0.16153 0.0
O847 O 0.01319 0.77241 0.13283 0.0
O848 O 0.98003 0.77561 0.13499 0.0
C849 C 0.99533 0.77629 0.12324 0.0
C850 C 0.99347 0.72795 0.17055 0.0
C851 C 0.98997 0.76705 0.10129 0.0
C852 C 0.9866 0.73797 0.07349 0.0
C853 C 0.99067 0.74576 0.09481 0.0
C854 C 0.98086 0.7726 0.06519 0.0
C855 C 0.98176 0.75137 0.0584 0.0
C856 C 0.98488 0.78031 0.08638 0.0
C857 C 0.01635 0.81914 0.19474 0.0
C858 C 0.03126 0.85061 0.18191 0.0
C859 C 0.01932 0.85269 0.21616 0.0
C860 C 0.01325 0.83112 0.21321 0.0
C861 C 0.02869 0.86261 0.20068 0.0
C862 C 0.02503 0.82902 0.17891 0.0
C863 C 0.011 0.79634 0.19258 0.0
O864 O 0.97824 0.7396 0.16791 0.0
O865 O 0.0111 0.73604 0.16468 0.0
O866 O 0.02431 0.78535 0.1838 0.0
O867 O 0.99132 0.78935 0.18587 0.0
H868 H 0.01355 0.74776 0.20777 0.0
H869 H 0.01867 0.73317 0.24102 0.0
H870 H 0.98282 0.67503 0.21186 0.0
H871 H 0.97826 0.68952 0.17871 0.0
H872 H 0.98728 0.72152 0.06883 0.0
H873 H 0.99458 0.73529 0.10616 0.0
H874 H 0.97765 0.7835 0.05408 0.0
H875 H 0.98442 0.79681 0.0911 0.0
H876 H 0.03829 0.85788 0.16967 0.0
H877 H 0.0174 0.86147 0.23089 0.0
H878 H 0.00654 0.82371 0.22555 0.0
H879 H 0.02734 0.82001 0.16442 0.0
C880 C 0.67054 0.22956 0.79935 0.0
C881 C 0.65989 0.21614 0.81133 0.0
C882 C 0.67856 0.23584 0.84341 0.0
C883 C 0.66386 0.21924 0.83317 0.0
C884 C 0.6897 0.24879 0.83123 0.0
C885 C 0.68568 0.24569 0.80939 0.0
U886 U 0.63815 0.20115 0.75042 0.0
O887 O 0.61927 0.21287 0.72513 0.0
O888 O 0.64501 0.19498 0.71784 0.0
C889 C 0.63069 0.20624 0.71079 0.0
C890 C 0.66487 0.22765 0.77659 0.0
C891 C 0.63667 0.22107 0.696 0.0
C892 C 0.6325 0.2534 0.68092 0.0
C893 C 0.62988 0.24102 0.69702 0.0
C894 C 0.64987 0.22677 0.66305 0.0
C895 C 0.64201 0.24615 0.6635 0.0
C896 C 0.64711 0.2143 0.67908 0.0
C897 C 0.59978 0.15371 0.75606 0.0
C898 C 0.57666 0.13468 0.72636 0.0
C899 C 0.57 0.12975 0.76167 0.0
C900 C 0.58771 0.14384 0.76964 0.0
C901 C 0.56409 0.12528 0.73997 0.0
C902 C 0.59433 0.14891 0.73436 0.0
C903 C 0.61688 0.17018 0.76483 0.0
O904 O 0.67033 0.21114 0.76581 0.0
O905 O 0.64561 0.23109 0.77073 0.0
O906 O 0.61162 0.18923 0.76595 0.0
O907 O 0.63505 0.16868 0.75788 0.0
H908 H 0.64807 0.20363 0.8038 0.0
H909 H 0.65484 0.20912 0.84202 0.0
H910 H 0.70135 0.26152 0.83859 0.0
H911 H 0.69406 0.25617 0.80037 0.0
H912 H 0.62647 0.26837 0.68175 0.0
H913 H 0.62177 0.24678 0.7098 0.0
H914 H 0.6571 0.2207 0.64973 0.0
H915 H 0.65231 0.19893 0.67778 0.0
H916 H 0.57238 0.13164 0.70958 0.0
H917 H 0.56074 0.12255 0.77251 0.0
H918 H 0.59168 0.14743 0.78643 0.0
H919 H 0.6034 0.15658 0.72366 0.0
C920 C 0.0091 0.36703 0.32029 0.0
C921 C 0.01331 0.37864 0.30388 0.0
C922 C 0.01421 0.34658 0.28085 0.0
C923 C 0.01579 0.36853 0.28434 0.0
C924 C 0.01032 0.33498 0.29745 0.0
C925 C 0.00772 0.34516 0.31705 0.0
U926 U 0.01211 0.41819 0.3536 0.0
O927 O 0.99078 0.43132 0.3743 0.0
O928 O 0.02341 0.42925 0.38654 0.0
C929 C 0.00494 0.43384 0.39082 0.0
C930 C 0.00622 0.37802 0.34063 0.0
C931 C 0.998 0.42623 0.4097 0.0
C932 C 0.99378 0.39895 0.43221 0.0
C933 C 0.99883 0.40539 0.41331 0.0
C934 C 0.98626 0.43394 0.44364 0.0
C935 C 0.98777 0.41326 0.44774 0.0
C936 C 0.99138 0.44036 0.42478 0.0
C937 C 0.0308 0.46666 0.3301 0.0
C938 C 0.03407 0.50088 0.35047 0.0
C939 C 0.04 0.49783 0.31403 0.0
C940 C 0.03597 0.47609 0.31267 0.0
C941 C 0.03897 0.5105 0.3329 0.0
C942 C 0.02999 0.4791 0.34907 0.0
C943 C 0.0258 0.44389 0.32825 0.0
O944 O 0.02357 0.38737 0.35182 0.0
O945 O 0.99103 0.38991 0.3399 0.0
O946 O 0.00586 0.43716 0.32805 0.0
O947 O 0.03826 0.43448 0.34047 0.0
H948 H 0.01459 0.39558 0.30617 0.0
H949 H 0.01909 0.37792 0.27199 0.0
H950 H 0.00889 0.31804 0.29517 0.0
H951 H 0.00453 0.33599 0.32959 0.0
H952 H 0.99534 0.38298 0.43496 0.0
H953 H 0.0039 0.39428 0.40176 0.0
H954 H 0.98138 0.44524 0.45513 0.0
H955 H 0.99056 0.4565 0.42214 0.0
H956 H 0.03325 0.51018 0.36524 0.0
H957 H 0.04326 0.50471 0.30007 0.0
H958 H 0.03655 0.46665 0.29791 0.0
H959 H 0.02599 0.47196 0.36269 0.0
C960 C 0.31226 0.51636 0.63779 0.0
N961 N 0.30924 0.53209 0.62605 0.0
N962 N 0.3223 0.50182 0.62761 0.0
C963 C 0.30386 0.51425 0.65828 0.0
C964 C 0.32534 0.50934 0.60934 0.0
N965 N 0.31739 0.5277 0.60835 0.0
C966 C 0.33691 0.49917 0.59289 0.0
H967 H 0.31604 0.52155 0.67119 0.0
H968 H 0.29999 0.49755 0.66034 0.0
H969 H 0.2897 0.52231 0.65936 0.0
H970 H 0.32558 0.48848 0.58135 0.0
H971 H 0.34858 0.48987 0.59999 0.0
H972 H 0.34497 0.5111 0.58451 0.0
C973 C 0.31605 0.58528 0.9852 0.0
N974 N 0.31202 0.56502 0.97658 0.0
N975 N 0.3029 0.59703 0.97557 0.0
C976 C 0.33326 0.59387 0.00251 0.0
C977 C 0.29077 0.58322 0.96066 0.0
N978 N 0.29616 0.56369 0.96142 0.0
C979 C 0.2748 0.589 0.94436 0.0
H980 H 0.33702 0.58171 0.01262 0.0
H981 H 0.32873 0.60746 0.01218 0.0
H982 H 0.34749 0.5993 0.99555 0.0
H983 H 0.27793 0.58259 0.92857 0.0
H984 H 0.27477 0.60618 0.94516 0.0
H985 H 0.25901 0.58181 0.94673 0.0
C986 C 0.72435 0.97541 0.31982 0.0
N987 N 0.71056 0.96771 0.33673 0.0
N988 N 0.72948 0.00806 0.3326 0.0
C989 C 0.72982 0.95997 0.30184 0.0
C990 C 0.71673 0.00759 0.35251 0.0
N991 N 0.7071 0.98444 0.35342 0.0
C992 C 0.71559 0.02618 0.36828 0.0
H993 H 0.74685 0.9599 0.30137 0.0
H994 H 0.72235 0.96283 0.28636 0.0
H995 H 0.72385 0.94374 0.30382 0.0
H996 H 0.71191 0.03975 0.36015 0.0
H997 H 0.73108 0.03054 0.37779 0.0
H998 H 0.70353 0.02287 0.37874 0.0
C999 C 0.71893 0.88233 0.97276 0.0
N1000 N 0.72882 0.89879 0.98627 0.0
N1001 N 0.72151 0.86409 0.98057 0.0
C1002 C 0.7052 0.88418 0.953 0.0
C1003 C 0.73312 0.87011 0.99937 0.0
N1004 N 0.73747 0.89118 0.00287 0.0
C1005 C 0.73861 0.85546 0.01505 0.0
H1006 H 0.69024 0.88936 0.95712 0.0
H1007 H 0.7018 0.86897 0.94283 0.0
H1008 H 0.71276 0.89615 0.94434 0.0
H1009 H 0.74396 0.84128 0.00722 0.0
H1010 H 0.72442 0.85042 0.02226 0.0
H1011 H 0.75112 0.86303 0.02751 0.0
C1012 C 0.63766 0.31617 0.51597 0.0
N1013 N 0.62585 0.31282 0.53154 0.0
N1014 N 0.62683 0.32486 0.50075 0.0
C1015 C 0.6597 0.31095 0.51576 0.0
C1016 C 0.60802 0.32668 0.5077 0.0
N1017 N 0.60745 0.31934 0.52641 0.0
C1018 C 0.58993 0.33474 0.49582 0.0
H1019 H 0.67024 0.32207 0.52765 0.0
H1020 H 0.66536 0.31211 0.50037 0.0
H1021 H 0.66067 0.29496 0.52011 0.0
H1022 H 0.58047 0.32147 0.48547 0.0
H1023 H 0.59534 0.34658 0.48589 0.0
H1024 H 0.57976 0.34171 0.50668 0.0
C1025 C 0.97521 0.71456 0.88736 0.0
N1026 N 0.98669 0.7252 0.90476 0.0
N1027 N 0.98508 0.71732 0.87029 0.0
C1028 C 0.95426 0.70192 0.88695 0.0
C1029 C 0.00306 0.72982 0.87801 0.0
N1030 N 0.00393 0.73477 0.89893 0.0
C1031 C 0.02074 0.73523 0.86549 0.0
H1032 H 0.95669 0.68581 0.89008 0.0
H1033 H 0.94486 0.70101 0.87142 0.0
H1034 H 0.94554 0.70879 0.89928 0.0
H1035 H 0.01907 0.75057 0.85982 0.0
H1036 H 0.02048 0.72332 0.85175 0.0
H1037 H 0.03614 0.73646 0.87519 0.0
C1038 C 0.99543 0.35686 0.60141 0.0
N1039 N 0.99115 0.35161 0.58049 0.0
N1040 N 0.99955 0.33983 0.61092 0.0
C1041 C 0.99316 0.37799 0.61252 0.0
C1042 C 0.99777 0.32421 0.59472 0.0
N1043 N 0.99245 0.33132 0.5763 0.0
C1044 C 0.0026 0.30223 0.59643 0.0
H1045 H 0.00893 0.3869 0.61717 0.0
H1046 H 0.98547 0.37631 0.62682 0.0
H1047 H 0.98386 0.38709 0.60226 0.0
H1048 H 0.98786 0.29181 0.5967 0.0
H1049 H 0.01338 0.30155 0.61081 0.0
H1050 H 0.00982 0.29627 0.58256 0.0
C1051 C 0.31116 0.71545 0.96529 0.0
N1052 N 0.32649 0.70042 0.95668 0.0
N1053 N 0.32209 0.71599 0.99803 0.0
C1054 C 0.29518 0.7245 0.95025 0.0
C1055 C 0.34013 0.70076 0.99672 0.0
N1056 N 0.34143 0.69327 0.97307 0.0
C1057 C 0.35485 0.6963 0.01488 0.0
H1058 H 0.29818 0.74175 0.95098 0.0
H1059 H 0.2787 0.71991 0.95265 0.0
H1060 H 0.29631 0.71841 0.93384 0.0
H1061 H 0.35101 0.67978 0.01756 0.0
H1062 H 0.35375 0.70641 0.02951 0.0
H1063 H 0.37121 0.69847 0.01119 0.0
C1064 C 0.52089 0.64515 0.31644 0.0
N1065 N 0.53669 0.63377 0.31252 0.0
N1066 N 0.50578 0.63368 0.32482 0.0
C1067 C 0.52091 0.66779 0.31329 0.0
C1068 C 0.51307 0.61489 0.32575 0.0
N1069 N 0.53182 0.61502 0.31838 0.0
C1070 C 0.50105 0.59579 0.33197 0.0
H1071 H 0.53716 0.67584 0.31509 0.0
H1072 H 0.51191 0.6759 0.32461 0.0
H1073 H 0.51353 0.66879 0.29722 0.0
H1074 H 0.48393 0.59602 0.32845 0.0
H1075 H 0.50492 0.59549 0.34902 0.0
H1076 H 0.50537 0.58126 0.32371 0.0
C1077 C 0.89358 0.01227 0.71865 0.0
N1078 N 0.91094 0.02356 0.7296 0.0
N1079 N 0.87658 0.02235 0.72103 0.0
C1080 C 0.89339 0.99176 0.70525 0.0
C1081 C 0.88425 0.04012 0.73389 0.0
N1082 N 0.90512 0.04076 0.73923 0.0
C1083 C 0.87154 0.05705 0.74102 0.0
H1084 H 0.89839 0.99492 0.68995 0.0
H1085 H 0.87758 0.98273 0.70235 0.0
H1086 H 0.90463 0.98224 0.7127 0.0
H1087 H 0.87057 0.05717 0.75801 0.0
H1088 H 0.8554 0.05471 0.73277 0.0
H1089 H 0.87945 0.07254 0.73864 0.0
C1090 C 0.5979 0.99792 0.32663 0.0
N1091 N 0.57757 0.98959 0.32359 0.0
N1092 N 0.61018 0.98392 0.319 0.0
C1093 C 0.60536 0.02034 0.33534 0.0
C1094 C 0.59636 0.96681 0.31108 0.0
N1095 N 0.5766 0.97034 0.31381 0.0
C1096 C 0.60218 0.94598 0.30252 0.0
H1097 H 0.61938 0.02635 0.32837 0.0
H1098 H 0.60944 0.02138 0.35253 0.0
H1099 H 0.59283 0.03039 0.33226 0.0
H1100 H 0.6178 0.94342 0.30997 0.0
H1101 H 0.60261 0.94559 0.28542 0.0
H1102 H 0.59042 0.93301 0.30511 0.0
C1103 C 0.97644 0.30527 0.70136 0.0
N1104 N 0.96573 0.32539 0.69742 0.0
N1105 N 0.99542 0.31146 0.72016 0.0
C1106 C 0.96727 0.28305 0.6937 0.0
C1107 C 0.99332 0.3447 0.72741 0.0
N1108 N 0.97441 0.34569 0.71031 0.0
C1109 C 0.00394 0.36482 0.74155 0.0
H1110 H 0.95191 0.28204 0.6841 0.0
H1111 H 0.96544 0.27442 0.70738 0.0
H1112 H 0.9783 0.27523 0.68449 0.0
H1113 H 0.00492 0.37794 0.73193 0.0
H1114 H 0.01966 0.36549 0.75031 0.0
H1115 H 0.99349 0.36876 0.75346 0.0
C1116 C 0.6919 0.48111 0.36547 0.0
N1117 N 0.69487 0.46491 0.37656 0.0
N1118 N 0.68278 0.49586 0.37656 0.0
C1119 C 0.69909 0.48313 0.34443 0.0
C1120 C 0.68054 0.488 0.39488 0.0
N1121 N 0.68798 0.4693 0.3949 0.0
C1122 C 0.67033 0.49814 0.41244 0.0
H1123 H 0.70463 0.4997 0.3431 0.0
H1124 H 0.68566 0.47776 0.33214 0.0
H1125 H 0.71176 0.47336 0.34159 0.0
H1126 H 0.6586 0.50798 0.40645 0.0
H1127 H 0.68249 0.50821 0.42365 0.0
H1128 H 0.66259 0.48612 0.42096 0.0
C1129 C 0.67138 0.40113 0.01297 0.0
N1130 N 0.6756 0.42209 0.0182 0.0
N1131 N 0.68852 0.39167 0.01831 0.0
C1132 C 0.65006 0.38984 0.00451 0.0
C1133 C 0.70327 0.40772 0.02693 0.0
N1134 N 0.69538 0.42619 0.02696 0.0
C1135 C 0.72579 0.40556 0.03389 0.0
H1136 H 0.64751 0.37454 0.01061 0.0
H1137 H 0.64893 0.38695 0.98721 0.0
H1138 H 0.63753 0.39933 0.00868 0.0
H1139 H 0.73073 0.3917 0.02499 0.0
H1140 H 0.72765 0.40359 0.05075 0.0
H1141 H 0.73615 0.41979 0.03175 0.0
C1142 C 0.28028 0.02981 0.68442 0.0
N1143 N 0.29504 0.03588 0.66774 0.0
N1144 N 0.27517 0.99665 0.67403 0.0
C1145 C 0.27434 0.04658 0.70091 0.0
C1146 C 0.28891 0.99533 0.65482 0.0
N1147 N 0.29899 0.01803 0.65256 0.0
C1148 C 0.29002 0.97569 0.6404 0.0
H1149 H 0.28046 0.04448 0.7171 0.0
H1150 H 0.25728 0.04744 0.69994 0.0
H1151 H 0.28131 0.06233 0.6984 0.0
H1152 H 0.27449 0.97072 0.63113 0.0
H1153 H 0.29373 0.96292 0.64971 0.0
H1154 H 0.302 0.97794 0.62965 0.0
C1155 C 0.29047 0.11475 0.03032 0.0
N1156 N 0.27983 0.09743 0.01866 0.0
N1157 N 0.28776 0.13195 0.02067 0.0
C1158 C 0.30308 0.11499 0.05123 0.0
C1159 C 0.2753 0.12442 0.00264 0.0
N1160 N 0.27034 0.10347 0.00152 0.0
C1161 C 0.26991 0.13718 0.98518 0.0
H1162 H 0.29629 0.10247 0.05977 0.0
H1163 H 0.30384 0.13042 0.0608 0.0
H1164 H 0.31926 0.11211 0.04879 0.0
H1165 H 0.28177 0.151 0.98563 0.0
H1166 H 0.25452 0.14274 0.98691 0.0
H1167 H 0.26873 0.12766 0.96969 0.0
C1168 C 0.36118 0.68635 0.4765 0.0
N1169 N 0.37296 0.69072 0.46113 0.0
N1170 N 0.37114 0.67486 0.48981 0.0
C1171 C 0.34084 0.69476 0.4795 0.0
C1172 C 0.38934 0.67231 0.48183 0.0
N1173 N 0.39052 0.68203 0.46446 0.0
C1174 C 0.40519 0.65898 0.49009 0.0
H1175 H 0.33899 0.6976 0.49635 0.0
H1176 H 0.32772 0.68307 0.47167 0.0
H1177 H 0.33988 0.70955 0.47251 0.0
H1178 H 0.39758 0.64624 0.49783 0.0
H1179 H 0.41708 0.66883 0.50178 0.0
H1180 H 0.4133 0.65205 0.4773 0.0
C1181 C 0.02991 0.28017 0.11996 0.0
N1182 N 0.02001 0.26955 0.10172 0.0
N1183 N 0.01881 0.27643 0.136 0.0
C1184 C 0.05081 0.29341 0.12239 0.0
C1185 C 0.00179 0.26323 0.12687 0.0
N1186 N 0.00264 0.25887 0.10612 0.0
C1187 C 0.98323 0.25652 0.13779 0.0
H1188 H 0.05912 0.29361 0.13833 0.0
H1189 H 0.04838 0.30971 0.12002 0.0
H1190 H 0.06065 0.28748 0.11063 0.0
H1191 H 0.96853 0.25361 0.12681 0.0
H1192 H 0.98134 0.26854 0.15078 0.0
H1193 H 0.98577 0.24178 0.14439 0.0
C1194 C 0.0036 0.67271 0.40596 0.0
N1195 N 0.01177 0.67502 0.42633 0.0
N1196 N 0.0171 0.68237 0.39431 0.0
C1197 C 0.98171 0.66264 0.39798 0.0
C1198 C 0.03374 0.69067 0.40856 0.0
N1199 N 0.03038 0.68632 0.42792 0.0
C1200 C 0.05418 0.70112 0.40346 0.0
H1201 H 0.98195 0.6457 0.39321 0.0
H1202 H 0.97517 0.66982 0.38433 0.0
H1203 H 0.97134 0.66423 0.41046 0.0
H1204 H 0.05335 0.71815 0.40371 0.0
H1205 H 0.05748 0.69469 0.38774 0.0
H1206 H 0.06734 0.699 0.4152 0.0
C1207 C 0.68741 0.27763 0.03191 0.0
N1208 N 0.67074 0.29258 0.03767 0.0
N1209 N 0.6795 0.27509 0.99823 0.0
C1210 C 0.70212 0.26959 0.04897 0.0
C1211 C 0.6609 0.28958 0.99667 0.0
N1212 N 0.65733 0.29831 0.01932 0.0
C1213 C 0.6478 0.2926 0.97682 0.0
H1214 H 0.71829 0.27768 0.05003 0.0
H1215 H 0.70263 0.25249 0.04733 0.0
H1216 H 0.69679 0.27296 0.06446 0.0
H1217 H 0.63542 0.27908 0.97256 0.0
H1218 H 0.65741 0.29328 0.96372 0.0
H1219 H 0.64035 0.30717 0.9789 0.0
C1220 C 0.47454 0.35002 0.69043 0.0
N1221 N 0.45949 0.36235 0.69456 0.0
N1222 N 0.49113 0.36128 0.684 0.0
C1223 C 0.47362 0.32742 0.69392 0.0
C1224 C 0.48541 0.38086 0.68433 0.0
N1225 N 0.46634 0.3815 0.69087 0.0
C1226 C 0.49781 0.39906 0.67692 0.0
H1227 H 0.48938 0.32373 0.69975 0.0
H1228 H 0.46825 0.31751 0.6788 0.0
H1229 H 0.46248 0.32352 0.70516 0.0
H1230 H 0.50777 0.39358 0.66508 0.0
H1231 H 0.50803 0.40823 0.69045 0.0
H1232 H 0.48723 0.40955 0.67008 0.0
C1233 C 0.11655 0.02698 0.28513 0.0
N1234 N 0.09922 0.0165 0.27338 0.0
N1235 N 0.13361 0.01746 0.2814 0.0
C1236 C 0.11694 0.0467 0.29978 0.0
C1237 C 0.12599 1.00072 0.26714 0.0
N1238 N 0.10512 1.00025 0.26214 0.0
C1239 C 0.13852 0.98367 0.25986 0.0
H1240 H 0.10464 0.05607 0.29409 0.0
H1241 H 0.1325 0.05624 0.30155 0.0
H1242 H 0.11379 0.04248 0.31537 0.0
H1243 H 0.1521 0.98268 0.27157 0.0
H1244 H 0.14446 0.9872 0.24506 0.0
H1245 H 0.12872 0.96824 0.25683 0.0
C1246 C 0.40785 0.00438 0.67749 0.0
N1247 N 0.42822 0.01261 0.67976 0.0
N1248 N 0.39581 0.0188 0.68479 0.0
C1249 C 0.40021 0.98173 0.66997 0.0
C1250 C 0.4098 0.03607 0.69163 0.0
N1251 N 0.42942 0.03221 0.68869 0.0
C1252 C 0.40425 0.05729 0.69932 0.0
H1253 H 0.39572 0.97984 0.65279 0.0
H1254 H 0.38642 0.97625 0.67757 0.0
H1255 H 0.41277 0.97179 0.67332 0.0
H1256 H 0.40431 0.05863 0.71654 0.0
H1257 H 0.3885 0.05961 0.69202 0.0
H1258 H 0.41591 0.06989 0.69579 0.0
C1259 C 0.02871 0.68499 0.28013 0.0
N1260 N 0.03685 0.66823 0.2937 0.0
N1261 N 0.99608 0.67168 0.27542 0.0
C1262 C 0.04371 0.70344 0.27483 0.0
C1263 C 0.99719 0.65176 0.28804 0.0
N1264 N 0.0205 0.65129 0.29731 0.0
C1265 C 0.97913 0.63516 0.28862 0.0
H1266 H 0.04067 0.71871 0.28265 0.0
H1267 H 0.04352 0.70426 0.25784 0.0
H1268 H 0.06008 0.70165 0.28053 0.0
H1269 H 0.97469 0.6265 0.27273 0.0
H1270 H 0.96538 0.64255 0.29314 0.0
H1271 H 0.98307 0.62401 0.29978 0.0
H1272 H 0.16846 0.65143 0.32345 0.0
H1273 H 0.14788 0.67592 0.38139 0.0
H1274 H 0.13444 0.65499 0.30475 0.0
H1275 H 0.11369 0.67848 0.36298 0.0
H1276 H 0.05923 0.69741 0.32271 0.0
H1277 H 0.09505 0.69711 0.33914 0.0
H1278 H 0.09873 0.6393 0.30021 0.0
H1279 H 0.06311 0.6403 0.28345 0.0
C1280 C 0.15676 0.65769 0.33221 0.0
C1281 C 0.16099 0.66328 0.354 0.0
C1282 C 0.13711 0.65948 0.32151 0.0
C1283 C 0.12116 0.66695 0.3323 0.0
C1284 C 0.12556 0.67289 0.35402 0.0
C1285 C 0.14517 0.67114 0.36468 0.0
C1286 C 0.0679 0.68484 0.31761 0.0
C1287 C 0.05854 0.66885 0.30197 0.0
C1288 C 0.08834 0.68451 0.32709 0.0
C1289 C 0.09987 0.66807 0.32118 0.0
C1290 C 0.09053 0.65234 0.30505 0.0
C1291 C 0.07011 0.65278 0.29552 0.0
H1292 H 0.33206 0.36199 0.71708 0.0
H1293 H 0.35947 0.33693 0.77139 0.0
H1294 H 0.36531 0.3621 0.70254 0.0
H1295 H 0.39275 0.33776 0.75695 0.0
H1296 H 0.45264 0.37415 0.73393 0.0
H1297 H 0.41927 0.36907 0.7486 0.0
H1298 H 0.39027 0.3346 0.69006 0.0
H1299 H 0.42379 0.33968 0.67544 0.0
C1300 C 0.34495 0.35616 0.7258 0.0
C1301 C 0.34294 0.34958 0.74557 0.0
C1302 C 0.36402 0.35628 0.71742 0.0
C1303 C 0.38157 0.34994 0.7286 0.0
C1304 C 0.37952 0.34293 0.74808 0.0
C1305 C 0.36043 0.34257 0.75637 0.0
C1306 C 0.43915 0.36514 0.72443 0.0
C1307 C 0.44065 0.35704 0.70375 0.0
C1308 C 0.42013 0.36225 0.73274 0.0
C1309 C 0.40216 0.35151 0.72034 0.0
C1310 C 0.40383 0.34308 0.69975 0.0
C1311 C 0.42295 0.34573 0.69153 0.0
H1312 H 0.51381 0.95079 0.60679 0.0
H1313 H 0.55094 0.00186 0.64771 0.0
H1314 H 0.4832 0.95748 0.62414 0.0
H1315 H 0.52038 0.00857 0.665 0.0
H1316 H 0.46474 0.00715 0.70166 0.0
H1317 H 0.49531 0.99487 0.68723 0.0
H1318 H 0.46044 0.98497 0.62541 0.0
H1319 H 0.43013 0.9972 0.64004 0.0
C1320 C 0.51544 0.96342 0.61951 0.0
C1321 C 0.53478 0.97587 0.62579 0.0
C1322 C 0.49792 0.96724 0.62946 0.0
C1323 C 0.49933 0.9836 0.64591 0.0
C1324 C 0.51882 0.99564 0.6526 0.0
C1325 C 0.53635 0.99181 0.64266 0.0
C1326 C 0.46371 0.00209 0.68505 0.0
C1327 C 0.44527 0.00307 0.67187 0.0
C1328 C 0.48113 0.99516 0.67677 0.0
C1329 C 0.48033 0.98901 0.65515 0.0
C1330 C 0.46151 0.98929 0.64215 0.0
C1331 C 0.44417 0.99626 0.65045 0.0
H1332 H 0.97345 0.04569 0.23857 0.0
H1333 H 0.96834 0.99747 0.27939 0.0
H1334 H 0.0115 0.04955 0.24633 0.0
H1335 H 0.00644 0.00094 0.2867 0.0
H1336 H 0.07607 0.02052 0.30542 0.0
H1337 H 0.03857 0.02434 0.30281 0.0
H1338 H 0.03743 0.02633 0.23627 0.0
H1339 H 0.0748 0.02279 0.23918 0.0
C1340 C 0.98043 0.03618 0.24949 0.0
C1341 C 0.96789 0.02117 0.25825 0.0
C1342 C 0.00223 0.03826 0.25378 0.0
C1343 C 0.01197 0.02545 0.267 0.0
C1344 C 0.99941 0.01115 0.27657 0.0
C1345 C 0.9776 0.00901 0.27221 0.0
C1346 C 0.06777 0.02233 0.29043 0.0
C1347 C 0.0781 0.02153 0.2725 0.0
C1348 C 0.04636 0.02429 0.28885 0.0
C1349 C 0.03505 0.02564 0.26933 0.0
C1350 C 0.04573 0.02563 0.25157 0.0
C1351 C 0.06703 0.02352 0.25316 0.0
H1352 H 0.3518 0.16599 0.6884 0.0
H1353 H 0.35076 0.14627 0.6224 0.0
H1354 H 0.33327 0.13202 0.69248 0.0
H1355 H 0.33298 0.11213 0.6266 0.0
H1356 H 0.28447 0.05908 0.63716 0.0
H1357 H 0.30001 0.09461 0.63367 0.0
H1358 H 0.33994 0.09584 0.69192 0.0
H1359 H 0.32392 0.06052 0.69531 0.0
C1360 C 0.3475 0.15447 0.67473 0.0
C1361 C 0.35285 0.15888 0.65509 0.0
C1362 C 0.33708 0.1349 0.67711 0.0
C1363 C 0.33167 0.11926 0.65988 0.0
C1364 C 0.33669 0.12383 0.64018 0.0
C1365 C 0.34713 0.14335 0.63782 0.0
C1366 C 0.29647 0.06714 0.64919 0.0
C1367 C 0.30319 0.05722 0.66641 0.0
C1368 C 0.30547 0.08738 0.64719 0.0
C1369 C 0.32133 0.09811 0.66247 0.0
C1370 C 0.32764 0.08819 0.67997 0.0
C1371 C 0.31863 0.06796 0.6819 0.0
H1372 H 0.24166 0.97117 0.04441 0.0
H1373 H 0.28948 0.9665 0.0032 0.0
H1374 H 0.24848 0.00919 0.04781 0.0
H1375 H 0.29581 0.00463 0.00607 0.0
H1376 H 0.31174 0.07476 0.02648 0.0
H1377 H 0.30875 0.0372 0.02999 0.0
H1378 H 0.24135 0.03477 0.02359 0.0
H1379 H 0.24461 0.07221 0.02045 0.0
C1380 C 0.25387 0.97823 0.03634 0.0
C1381 C 0.26498 0.96576 0.02347 0.0
C1382 C 0.25762 1.00004 0.03812 0.0
C1383 C 0.27258 0.00993 0.0271 0.0
C1384 C 0.28429 0.9975 0.01489 0.0
C1385 C 0.2805 0.97565 0.01306 0.0
C1386 C 0.2964 0.06616 0.02638 0.0
C1387 C 0.27839 0.07618 0.02339 0.0
C1388 C 0.29464 0.0447 0.02813 0.0
C1389 C 0.27481 0.03301 0.02707 0.0
C1390 C 0.25686 0.04334 0.02477 0.0
C1391 C 0.25866 0.06469 0.0229 0.0
H1392 H 0.74827 0.34951 0.34127 0.0
H1393 H 0.78314 0.37964 0.39937 0.0
H1394 H 0.72762 0.37892 0.34006 0.0
H1395 H 0.76239 0.40855 0.39856 0.0
H1396 H 0.73641 0.46696 0.38476 0.0
H1397 H 0.75741 0.43792 0.38128 0.0
H1398 H 0.70151 0.396 0.35596 0.0
H1399 H 0.68094 0.42563 0.35854 0.0
C1400 C 0.75142 0.36235 0.35382 0.0
C1401 C 0.76751 0.3624 0.37027 0.0
C1402 C 0.73958 0.3792 0.35317 0.0
C1403 C 0.7435 0.39634 0.36906 0.0
C1404 C 0.7593 0.39602 0.3857 0.0
C1405 C 0.77118 0.37936 0.38623 0.0
C1406 C 0.72887 0.45156 0.37805 0.0
C1407 C 0.70726 0.44831 0.37191 0.0
C1408 C 0.74073 0.43486 0.37629 0.0
C1409 C 0.73112 0.41444 0.36868 0.0
C1410 C 0.70948 0.41146 0.36175 0.0
C1411 C 0.69767 0.42831 0.36327 0.0
H1412 H 0.58984 0.50704 0.97454 0.0
H1413 H 0.63516 0.54278 0.02287 0.0
H1414 H 0.60529 0.47528 0.98087 0.0
H1415 H 0.65105 0.5112 0.02869 0.0
H1416 H 0.65722 0.4306 0.98153 0.0
H1417 H 0.63775 0.46024 0.9758 0.0
H1418 H 0.64341 0.47796 0.04265 0.0
H1419 H 0.66295 0.44831 0.04808 0.0
C1420 C 0.60307 0.5081 0.98654 0.0
C1421 C 0.61128 0.52743 0.99821 0.0
C1422 C 0.61202 0.48994 0.99004 0.0
C1423 C 0.62933 0.49071 0.00533 0.0
C1424 C 0.63753 0.51003 0.017 0.0
C1425 C 0.62861 0.52818 0.01347 0.0
C1426 C 0.65382 0.44066 0.99489 0.0
C1427 C 0.66154 0.43746 0.01518 0.0
C1428 C 0.64275 0.45759 0.99168 0.0
C1429 C 0.63925 0.47158 0.00878 0.0
C1430 C 0.64619 0.46769 0.02916 0.0
C1431 C 0.65719 0.45072 0.03231 0.0
H1432 H 0.67904 0.37684 0.15055 0.0
H1433 H 0.63389 0.32656 0.16223 0.0
H1434 H 0.68277 0.35769 0.11705 0.0
H1435 H 0.63827 0.3069 0.12887 0.0
H1436 H 0.6352 0.28973 0.05663 0.0
H1437 H 0.63071 0.30676 0.09123 0.0
H1438 H 0.69713 0.32753 0.10264 0.0
H1439 H 0.70127 0.31098 0.06813 0.0
C1440 C 0.6699 0.36166 0.146 0.0
C1441 C 0.65608 0.35333 0.15913 0.0
C1442 C 0.67224 0.35053 0.12683 0.0
C1443 C 0.66089 0.33066 0.12021 0.0
C1444 C 0.64714 0.32222 0.13337 0.0
C1445 C 0.64481 0.3334 0.15262 0.0
C1446 C 0.64874 0.29822 0.06646 0.0
C1447 C 0.6684 0.30014 0.05909 0.0
C1448 C 0.64624 0.30774 0.08641 0.0
C1449 C 0.66349 0.31905 0.0996 0.0
C1450 C 0.68335 0.31969 0.09268 0.0
C1451 C 0.68574 0.31029 0.07278 0.0
H1452 H 0.01241 0.25293 0.96888 0.0
H1453 H 0.07186 0.29154 0.98574 0.0
H1454 H 0.00868 0.25177 0.00587 0.0
H1455 H 0.06792 0.29078 0.02303 0.0
H1456 H 0.03162 0.30376 0.08328 0.0
H1457 H 0.03993 0.30443 0.04734 0.0
H1458 H 0.02928 0.23694 0.03717 0.0
H1459 H 0.02193 0.23632 0.07342 0.0
C1460 C 0.02463 0.26123 0.98058 0.0
C1461 C 0.04237 0.27241 0.97459 0.0
C1462 C 0.02257 0.26045 0.00168 0.0
C1463 C 0.03803 0.27114 0.01723 0.0
C1464 C 0.05577 0.28244 0.01128 0.0
C1465 C 0.05806 0.28285 0.99006 0.0
C1466 C 0.03166 0.2891 0.07352 0.0
C1467 C 0.02627 0.26998 0.08107 0.0
C1468 C 0.0363 0.28948 0.05298 0.0
C1469 C 0.03522 0.27074 0.03955 0.0
C1470 C 0.03012 0.25161 0.04721 0.0
C1471 C 0.02586 0.25124 0.06784 0.0
H1472 H 0.32912 0.76072 0.36003 0.0
H1473 H 0.38779 0.73898 0.34767 0.0
H1474 H 0.33035 0.74368 0.39211 0.0
H1475 H 0.38899 0.72221 0.37965 0.0
H1476 H 0.39669 0.72456 0.45197 0.0
H1477 H 0.39161 0.74154 0.42014 0.0
H1478 H 0.33235 0.70305 0.40186 0.0
H1479 H 0.33833 0.68478 0.43291 0.0
C1480 C 0.34215 0.75219 0.36409 0.0
C1481 C 0.35839 0.75122 0.3514 0.0
C1482 C 0.3428 0.74244 0.38234 0.0
C1483 C 0.35991 0.73198 0.38837 0.0
C1484 C 0.37579 0.73046 0.3754 0.0
C1485 C 0.37498 0.73987 0.35703 0.0
C1486 C 0.38262 0.71976 0.4411 0.0
C1487 C 0.3681 0.70313 0.44453 0.0
C1488 C 0.3797 0.72943 0.42299 0.0
C1489 C 0.36179 0.72319 0.40845 0.0
C1490 C 0.3464 0.70781 0.41275 0.0
C1491 C 0.34969 0.69758 0.43052 0.0
H1492 H 0.00502 0.59274 0.51987 0.0
H1493 H 0.96298 0.63666 0.53859 0.0
H1494 H 0.01015 0.6103 0.48919 0.0
H1495 H 0.96813 0.65429 0.50779 0.0
H1496 H 0.00418 0.69354 0.4637 0.0
H1497 H 0.99529 0.67592 0.49371 0.0
H1498 H 0.99183 0.61598 0.45604 0.0
H1499 H 0.00147 0.63378 0.42648 0.0
C1500 C 0.99666 0.60599 0.51731 0.0
C1501 C 0.98354 0.61324 0.53169 0.0
C1502 C 0.99958 0.61606 0.49969 0.0
C1503 C 0.98945 0.63364 0.49594 0.0
C1504 C 0.97633 0.64092 0.51031 0.0
C1505 C 0.9734 0.63083 0.52798 0.0
C1506 C 0.00127 0.67662 0.46193 0.0
C1507 C 0.00352 0.66493 0.44294 0.0
C1508 C 0.99609 0.66651 0.479 0.0
C1509 C 0.99304 0.64451 0.47734 0.0
C1510 C 0.99442 0.63292 0.45797 0.0
C1511 C 0.99963 0.64305 0.44096 0.0
H1512 H 0.83046 0.3176 0.67016 0.0
H1513 H 0.85301 0.33073 0.61212 0.0
H1514 H 0.86616 0.31525 0.68526 0.0
H1515 H 0.88876 0.32844 0.62727 0.0
H1516 H 0.9328 0.33987 0.71351 0.0
H1517 H 0.89738 0.33888 0.69695 0.0
H1518 H 0.91371 0.30578 0.6407 0.0
H1519 H 0.94955 0.30709 0.65732 0.0
C1520 C 0.84302 0.32005 0.66062 0.0
C1521 C 0.83876 0.32448 0.63994 0.0
C1522 C 0.86354 0.31869 0.66928 0.0
C1523 C 0.88046 0.32181 0.65756 0.0
C1524 C 0.87616 0.3257 0.6367 0.0
C1525 C 0.8556 0.32703 0.62802 0.0
C1526 C 0.929 0.33232 0.6976 0.0
C1527 C 0.94441 0.32368 0.68688 0.0
C1528 C 0.90849 0.3316 0.68812 0.0
C1529 C 0.9025 0.32211 0.66749 0.0
C1530 C 0.91778 0.31338 0.65659 0.0
C1531 C 0.93847 0.3141 0.66619 0.0
H1532 H 0.61829 0.62684 0.21917 0.0
H1533 H 0.66023 0.66031 0.27162 0.0
H1534 H 0.58918 0.62834 0.23967 0.0
H1535 H 0.63088 0.6617 0.29227 0.0
H1536 H 0.57709 0.63325 0.32766 0.0
H1537 H 0.60743 0.63763 0.30835 0.0
H1538 H 0.56734 0.65216 0.25545 0.0
H1539 H 0.53707 0.64704 0.2747 0.0
C1540 C 0.62127 0.63487 0.23496 0.0
C1541 C 0.64166 0.64357 0.24365 0.0
C1542 C 0.60452 0.63572 0.24675 0.0
C1543 C 0.60764 0.64526 0.26759 0.0
C1544 C 0.62798 0.65408 0.27631 0.0
C1545 C 0.6448 0.65327 0.26447 0.0
C1546 C 0.57496 0.63767 0.31201 0.0
C1547 C 0.55487 0.63977 0.30255 0.0
C1548 C 0.59229 0.64031 0.30099 0.0
C1549 C 0.5898 0.64506 0.28027 0.0
C1550 C 0.56976 0.64818 0.27126 0.0
C1551 C 0.55248 0.64554 0.2823 0.0
H1552 H 0.45488 0.99433 0.35714 0.0
H1553 H 0.49085 0.04478 0.39983 0.0
H1554 H 0.48549 0.98988 0.33909 0.0
H1555 H 0.52147 0.04033 0.38176 0.0
H1556 H 0.57546 0.00272 0.36381 0.0
H1557 H 0.54488 0.01331 0.37912 0.0
H1558 H 0.51005 0.0062 0.31739 0.0
H1559 H 0.54096 0.99565 0.30223 0.0
C1560 C 0.46923 0.00471 0.36244 0.0
C1561 C 0.47051 0.01978 0.38002 0.0
C1562 C 0.48675 0.00219 0.35207 0.0
C1563 C 0.50591 0.01471 0.35906 0.0
C1564 C 0.507 0.03024 0.37621 0.0
C1565 C 0.48949 0.03275 0.38658 0.0
C1566 C 0.56139 0.00399 0.35358 0.0
C1567 C 0.5604 0.99845 0.33195 0.0
C1568 C 0.54389 0.01 0.36227 0.0
C1569 C 0.52502 0.01053 0.34946 0.0
C1570 C 0.52431 0.00571 0.32767 0.0
C1571 C 0.54191 0.99978 0.31898 0.0
H1572 H 0.02713 0.97664 0.76832 0.0
H1573 H 0.04347 0.02361 0.72846 0.0
H1574 H 0.99021 0.9806 0.76027 0.0
H1575 H 0.00644 0.02721 0.72011 0.0
H1576 H 0.9351 0.01624 0.69889 0.0
H1577 H 0.97136 0.00794 0.70311 0.0
H1578 H 0.96977 0.01036 0.76979 0.0
H1579 H 0.93363 0.01851 0.76533 0.0
C1580 C 0.02285 0.98772 0.75774 0.0
C1581 C 0.03831 1.00001 0.74926 0.0
C1582 C 0.00171 0.98994 0.75311 0.0
C1583 C 0.99549 0.00437 0.73975 0.0
C1584 C 0.01078 0.01587 0.73037 0.0
C1585 C 0.03199 0.01376 0.73512 0.0
C1586 C 0.94257 0.01469 0.71433 0.0
C1587 C 0.93179 0.01781 0.73181 0.0
C1588 C 0.96325 0.01012 0.71679 0.0
C1589 C 0.97333 0.00839 0.73676 0.0
C1590 C 0.96232 0.01129 0.75418 0.0
C1591 C 0.94177 0.01606 0.75171 0.0
H1592 H 0.68346 0.83595 0.35435 0.0
H1593 H 0.62492 0.85485 0.32917 0.0
H1594 H 0.70135 0.87052 0.35121 0.0
H1595 H 0.64252 0.88949 0.32688 0.0
H1596 H 0.6823 0.9443 0.30748 0.0
H1597 H 0.66649 0.90836 0.30818 0.0
H1598 H 0.70444 0.90648 0.36697 0.0
H1599 H 0.72048 0.94235 0.3657 0.0
C1600 C 0.67441 0.8474 0.34804 0.0
C1601 C 0.65269 0.84255 0.34212 0.0
C1602 C 0.68463 0.86734 0.34647 0.0
C1603 C 0.67342 0.88293 0.33885 0.0
C1604 C 0.65178 0.87791 0.3326 0.0
C1605 C 0.6416 0.85804 0.33418 0.0
C1606 C 0.68722 0.93609 0.32045 0.0
C1607 C 0.70237 0.94606 0.33663 0.0
C1608 C 0.67814 0.91555 0.32096 0.0
C1609 C 0.68402 0.90445 0.33773 0.0
C1610 C 0.69963 0.91438 0.3537 0.0
C1611 C 0.70873 0.93495 0.35311 0.0
H1612 H 0.73996 0.02621 0.95394 0.0
H1613 H 0.74591 0.03109 0.02136 0.0
H1614 H 0.73195 0.98826 0.95186 0.0
H1615 H 0.73814 0.99325 0.01934 0.0
H1616 H 0.70946 0.92565 0.00968 0.0
H1617 H 0.71173 0.96363 0.00942 0.0
H1618 H 0.75039 0.95897 0.95918 0.0
H1619 H 0.74761 0.92098 0.95947 0.0
C1620 C 0.73951 0.01918 0.96831 0.0
C1621 C 0.74362 0.03168 0.98781 0.0
C1622 C 0.73496 0.99743 0.96713 0.0
C1623 C 0.73448 0.98765 0.98543 0.0
C1624 C 0.73804 1.00024 0.00491 0.0
C1625 C 0.74251 0.02197 0.00608 0.0
C1626 C 0.71816 0.93289 0.99847 0.0
C1627 C 0.72831 0.92066 0.98454 0.0
C1628 C 0.7196 0.95457 0.99836 0.0
C1629 C 0.73133 0.96441 0.98434 0.0
C1630 C 0.74098 0.95193 0.96998 0.0
C1631 C 0.73947 0.93024 0.97011 0.0
H1632 H 0.24648 0.63742 0.67248 0.0
H1633 H 0.26065 0.64641 0.61025 0.0
H1634 H 0.26277 0.60495 0.67025 0.0
H1635 H 0.27689 0.61415 0.60812 0.0
H1636 H 0.27638 0.54271 0.60198 0.0
H1637 H 0.26065 0.57527 0.60689 0.0
H1638 H 0.29912 0.5925 0.66615 0.0
H1639 H 0.3162 0.56066 0.66041 0.0
C1640 C 0.2532 0.63254 0.65843 0.0
C1641 C 0.2522 0.64439 0.64151 0.0
C1642 C 0.26255 0.61405 0.65719 0.0
C1643 C 0.27072 0.60693 0.63888 0.0
C1644 C 0.27035 0.61913 0.62227 0.0
C1645 C 0.26128 0.63771 0.6236 0.0
C1646 C 0.28158 0.55359 0.61596 0.0
C1647 C 0.29779 0.54953 0.63061 0.0
C1648 C 0.2726 0.57214 0.61878 0.0
C1649 C 0.27915 0.5866 0.6367 0.0
C1650 C 0.2942 0.58176 0.6521 0.0
C1651 C 0.30373 0.56352 0.64894 0.0
H1652 H 0.40408 0.48812 0.02089 0.0
H1653 H 0.35583 0.44435 0.98289 0.0
H1654 H 0.38384 0.51674 0.01421 0.0
H1655 H 0.33551 0.47303 0.97633 0.0
H1656 H 0.29642 0.52785 0.98695 0.0
H1657 H 0.31599 0.49868 0.99461 0.0
H1658 H 0.37315 0.53518 0.98435 0.0
H1659 H 0.35343 0.56406 0.97666 0.0
C1660 C 0.38922 0.48462 0.01099 0.0
C1661 C 0.38162 0.46397 0.00233 0.0
C1662 C 0.37761 0.50102 0.0072 0.0
C1663 C 0.35812 0.49714 0.99469 0.0
C1664 C 0.35037 0.47647 0.98624 0.0
C1665 C 0.36201 0.46005 0.99 0.0
C1666 C 0.31317 0.52947 0.98641 0.0
C1667 C 0.32357 0.54813 0.98154 0.0
C1668 C 0.32434 0.51286 0.99069 0.0
C1669 C 0.34613 0.51469 0.9902 0.0
C1670 C 0.35645 0.53343 0.98524 0.0
C1671 C 0.34525 0.54995 0.98088 0.0
H1672 H 0.30043 0.64597 0.82562 0.0
H1673 H 0.36741 0.66212 0.8394 0.0
H1674 H 0.29595 0.66341 0.85988 0.0
H1675 H 0.36301 0.6793 0.87369 0.0
H1676 H 0.34831 0.72065 0.92981 0.0
H1677 H 0.35023 0.70843 0.89304 0.0
H1678 H 0.30142 0.65787 0.89544 0.0
H1679 H 0.29966 0.6706 0.93194 0.0
C1680 C 0.3142 0.65327 0.83596 0.0
C1681 C 0.33428 0.65255 0.82977 0.0
C1682 C 0.31164 0.66325 0.85563 0.0
C1683 C 0.32912 0.6727 0.86968 0.0
C1684 C 0.34915 0.67251 0.86321 0.0
C1685 C 0.35169 0.6626 0.84352 0.0
C1686 C 0.33888 0.7063 0.92268 0.0
C1687 C 0.32613 0.69459 0.93444 0.0
C1688 C 0.33959 0.69955 0.90151 0.0
C1689 C 0.32672 0.6815 0.89144 0.0
C1690 C 0.31202 0.67146 0.90269 0.0
C1691 C 0.31138 0.67835 0.92379 0.0
H1692 H 0.00316 0.72356 0.03676 0.0
H1693 H 0.95323 0.76205 0.02823 0.0
H1694 H 1.00089 0.71485 0.99886 0.0
H1695 H 0.95143 0.75375 0.99041 0.0
H1696 H 0.98219 0.76036 0.92871 0.0
H1697 H 0.97789 0.76416 0.96595 0.0
H1698 H 0.97655 0.69734 0.96583 0.0
H1699 H 0.98067 0.69374 0.92833 0.0
C1700 C 0.99142 0.72983 0.02688 0.0
C1701 C 0.97858 0.74376 0.03559 0.0
C1702 C 0.99015 0.72486 0.00516 0.0
C1703 C 0.97613 0.73381 0.99171 0.0
C1704 C 0.9626 0.74688 1.00041 0.0
C1705 C 0.96372 0.75169 0.02208 0.0
C1706 C 0.98052 0.74653 0.93666 0.0
C1707 C 0.98153 0.72679 0.92585 0.0
C1708 C 0.97805 0.74863 0.95787 0.0
C1709 C 0.97684 0.73103 0.96877 0.0
C1710 C 0.97746 0.71116 0.95781 0.0
C1711 C 0.97961 0.70905 0.93643 0.0
H1712 H 0.67404 0.25563 0.64028 0.0
H1713 H 0.60895 0.26218 0.64451 0.0
H1714 H 0.67194 0.27181 0.60769 0.0
H1715 H 0.60691 0.27826 0.61219 0.0
H1716 H 0.60443 0.27803 0.54124 0.0
H1717 H 0.60966 0.26266 0.574 0.0
H1718 H 0.66414 0.3078 0.59452 0.0
H1719 H 0.65795 0.32395 0.56221 0.0
C1720 C 0.65937 0.26064 0.63432 0.0
C1721 C 0.64166 0.25764 0.64491 0.0
C1722 C 0.6582 0.26994 0.61577 0.0
C1723 C 0.63919 0.27597 0.60734 0.0
C1724 C 0.62167 0.27344 0.61821 0.0
C1725 C 0.62291 0.26445 0.63682 0.0
C1726 C 0.61755 0.28454 0.5528 0.0
C1727 C 0.63087 0.30209 0.54938 0.0
C1728 C 0.62052 0.27585 0.57149 0.0
C1729 C 0.63717 0.28427 0.58692 0.0
C1730 C 0.65118 0.30111 0.58297 0.0
C1731 C 0.64786 0.31015 0.56445 0.0
H1732 H 1.00052 0.43583 0.48605 0.0
H1733 H 0.96766 0.37638 0.4566 0.0
H1734 H 0.99776 0.42449 0.52033 0.0
H1735 H 0.96574 0.3647 0.49089 0.0
H1736 H 0.95511 0.35162 0.55538 0.0
H1737 H 0.95098 0.36947 0.52398 0.0
H1738 H 0.0148 0.39934 0.53907 0.0
H1739 H 0.01853 0.38153 0.57036 0.0
C1740 C 0.99242 0.42046 0.48688 0.0
C1741 C 0.98439 0.40696 0.46857 0.0
C1742 C 0.99103 0.4139 0.50653 0.0
C1743 C 0.98162 0.39368 0.50833 0.0
C1744 C 0.97287 0.38047 0.49006 0.0
C1745 C 0.97423 0.38705 0.47039 0.0
C1746 C 0.96794 0.36247 0.5521 0.0
C1747 C 0.98715 0.36529 0.56496 0.0
C1748 C 0.9657 0.37253 0.53415 0.0
C1749 C 0.98264 0.38565 0.52893 0.0
C1750 C 0.00138 0.38952 0.54273 0.0
C1751 C 0.00358 0.37941 0.56061 0.0
H1752 H 0.32002 0.57234 0.48833 0.0
H1753 H 0.2915 0.61944 0.52388 0.0
H1754 H 0.32309 0.55298 0.51842 0.0
H1755 H 0.29497 0.60008 0.55429 0.0
H1756 H 0.32995 0.56898 0.60874 0.0
H1757 H 0.32573 0.58956 0.57919 0.0
H1758 H 0.29771 0.53353 0.53906 0.0
H1759 H 0.30137 0.51334 0.56869 0.0
C1760 C 0.31451 0.57864 0.50262 0.0
C1761 C 0.30584 0.59762 0.50381 0.0
C1762 C 0.31617 0.56747 0.51981 0.0
C1763 C 0.30939 0.5751 0.5387 0.0
C1764 C 0.3005 0.59396 0.53994 0.0
C1765 C 0.29842 0.60495 0.52252 0.0
C1766 C 0.32295 0.56121 0.59355 0.0
C1767 C 0.31625 0.53959 0.59081 0.0
C1768 C 0.32041 0.57292 0.57674 0.0
C1769 C 0.31145 0.56309 0.55685 0.0
C1770 C 0.30489 0.54145 0.55416 0.0
C1771 C 0.30715 0.52986 0.571 0.0
H1772 H 0.23092 0.44492 0.90015 0.0
H1773 H 0.26826 0.46793 0.85431 0.0
H1774 H 0.24478 0.47585 0.92474 0.0
H1775 H 0.28216 0.49883 0.87893 0.0
H1776 H 0.31802 0.54147 0.93588 0.0
H1777 H 0.30481 0.50983 0.91168 0.0
H1778 H 0.2429 0.51331 0.92983 0.0
H1779 H 0.25652 0.54457 0.95444 0.0
C1780 C 0.24197 0.45664 0.89524 0.0
C1781 C 0.2484 0.45391 0.87518 0.0
C1782 C 0.24993 0.47439 0.90937 0.0
C1783 C 0.26455 0.4899 0.90383 0.0
C1784 C 0.27114 0.48708 0.88385 0.0
C1785 C 0.26317 0.46933 0.86971 0.0
C1786 C 0.30164 0.5353 0.93466 0.0
C1787 C 0.28822 0.54532 0.9469 0.0
C1788 C 0.294 0.51733 0.92073 0.0
C1789 C 0.27276 0.50899 0.91875 0.0
C1790 C 0.25938 0.51913 0.93109 0.0
C1791 C 0.26705 0.53712 0.945 0.0
H1792 H 0.66196 0.93759 0.46391 0.0
H1793 H 0.67231 0.00514 0.4744 0.0
H1794 H 0.66808 0.93862 0.42724 0.0
H1795 H 0.67864 0.00605 0.4381 0.0
H1796 H 0.72683 0.99384 0.3924 0.0
H1797 H 0.7126 0.98902 0.42489 0.0
H1798 H 0.655 0.95737 0.39025 0.0
H1799 H 0.66936 0.9625 0.35721 0.0
C1800 C 0.66495 0.95262 0.45824 0.0
C1801 C 0.6671 0.97129 0.47206 0.0
C1802 C 0.66841 0.95318 0.43732 0.0
C1803 C 0.67404 0.97239 0.43008 0.0
C1804 C 0.6745 0.99104 0.44346 0.0
C1805 C 0.671 0.99051 0.46421 0.0
C1806 C 0.71113 0.98588 0.39163 0.0
C1807 C 0.69893 0.97927 0.37231 0.0
C1808 C 0.703 0.98313 0.41022 0.0
C1809 C 0.68258 0.97329 0.40997 0.0
C1810 C 0.67072 0.96526 0.39073 0.0
C1811 C 0.67888 0.96825 0.37193 0.0
H1812 H 0.78034 0.92417 0.13248 0.0
H1813 H 0.7952 0.98275 0.10824 0.0
H1814 H 0.76787 0.90721 0.09727 0.0
H1815 H 0.78235 0.96574 0.07269 0.0
H1816 H 0.77237 0.91914 0.01007 0.0
H1817 H 0.78815 0.93818 0.04417 0.0
H1818 H 0.73685 0.90979 0.07303 0.0
H1819 H 0.72157 0.89088 0.03918 0.0
C1820 C 0.78094 0.9334 0.11955 0.0
C1821 C 0.78839 0.95482 0.12306 0.0
C1822 C 0.77375 0.92372 0.0994 0.0
C1823 C 0.77372 0.93525 0.08228 0.0
C1824 C 0.78218 0.95647 0.08561 0.0
C1825 C 0.78951 0.96619 0.10589 0.0
C1826 C 0.76463 0.91718 0.02383 0.0
C1827 C 0.74614 0.90334 0.02238 0.0
C1828 C 0.77352 0.92804 0.04323 0.0
C1829 C 0.76394 0.92513 0.06133 0.0
C1830 C 0.74491 0.91191 0.0595 0.0
C1831 C 0.73613 0.90115 0.04022 0.0
H1832 H 0.51917 0.33966 0.61569 0.0
H1833 H 0.49953 0.27681 0.58492 0.0
H1834 H 0.54827 0.34278 0.59509 0.0
H1835 H 0.52924 0.2796 0.56499 0.0
H1836 H 0.56798 0.30058 0.51462 0.0
H1837 H 0.53968 0.29722 0.53657 0.0
H1838 H 0.58113 0.33128 0.58915 0.0
H1839 H 0.60889 0.33549 0.56667 0.0
C1840 C 0.52113 0.32642 0.60466 0.0
C1841 C 0.50684 0.30803 0.6019 0.0
C1842 C 0.538 0.32814 0.59297 0.0
C1843 C 0.54102 0.31152 0.57818 0.0
C1844 C 0.52717 0.29286 0.57595 0.0
C1845 C 0.51028 0.29115 0.58763 0.0
C1846 C 0.57076 0.30769 0.53075 0.0
C1847 C 0.59039 0.31852 0.53895 0.0
C1848 C 0.55474 0.30547 0.54345 0.0
C1849 C 0.55812 0.31389 0.5647 0.0
C1850 C 0.57785 0.32483 0.57282 0.0
C1851 C 0.59377 0.32718 0.56004 0.0
H1852 H 0.12727 0.75399 0.9617 0.0
H1853 H 0.11037 0.81676 0.97008 0.0
H1854 H 0.09208 0.74103 0.94532 0.0
H1855 H 0.07476 0.80367 0.95365 0.0
H1856 H 0.02392 0.77337 0.89804 0.0
H1857 H 0.05688 0.78906 0.91902 0.0
H1858 H 0.0565 0.73494 0.95255 0.0
H1859 H 0.0243 0.71907 0.9308 0.0
C1860 C 0.11589 0.76498 0.96044 0.0
C1861 C 0.12156 0.78638 0.96736 0.0
C1862 C 0.09567 0.75754 0.95104 0.0
C1863 C 0.08054 0.77128 0.94834 0.0
C1864 C 0.08611 0.79271 0.95538 0.0
C1865 C 0.10646 0.8002 0.9648 0.0
C1866 C 0.03094 0.76506 0.91005 0.0
C1867 C 0.02179 0.74509 0.91288 0.0
C1868 C 0.04964 0.77404 0.92217 0.0
C1869 C 0.0594 0.76316 0.93734 0.0
C1870 C 0.04957 0.74358 0.94077 0.0
C1871 C 0.03102 0.73459 0.92855 0.0
H1872 H 0.94436 0.26736 0.45067 0.0
H1873 H 0.89385 0.29097 0.48061 0.0
H1874 H 0.96875 0.28041 0.48238 0.0
H1875 H 0.91806 0.30402 0.51193 0.0
H1876 H 0.95879 0.30266 0.57186 0.0
H1877 H 0.93841 0.28629 0.53907 0.0
H1878 H 0.98385 0.31646 0.50448 0.0
H1879 H 0.00447 0.3326 0.53766 0.0
C1880 C 0.93851 0.27537 0.46397 0.0
C1881 C 0.9172 0.27818 0.46315 0.0
C1882 C 0.95245 0.2829 0.48202 0.0
C1883 C 0.94523 0.29302 0.49965 0.0
C1884 C 0.92401 0.29603 0.49867 0.0
C1885 C 0.91019 0.28875 0.48065 0.0
C1886 C 0.96475 0.30516 0.55725 0.0
C1887 C 0.98318 0.31868 0.55716 0.0
C1888 C 0.95299 0.29607 0.53851 0.0
C1889 C 0.95943 0.30033 0.51925 0.0
C1890 C 0.97858 0.31286 0.51912 0.0
C1891 C 0.99036 0.32204 0.53799 0.0
H1892 H 0.47095 0.70089 0.98087 0.0
H1893 H 0.45686 0.63348 0.97137 0.0
H1894 H 0.43394 0.70419 0.97664 0.0
H1895 H 0.41938 0.63687 0.96603 0.0
H1896 H 0.35558 0.65816 0.98613 0.0
H1897 H 0.39091 0.64875 0.98549 0.0
H1898 H 0.40554 0.69916 0.94912 0.0
H1899 H 0.37139 0.70947 0.95144 0.0
C1900 C 0.45994 0.68673 0.97796 0.0
C1901 C 0.46691 0.66692 0.97656 0.0
C1902 C 0.43866 0.68862 0.97513 0.0
C1903 C 0.4237 0.67078 0.97058 0.0
C1904 C 0.43055 0.6509 0.96945 0.0
C1905 C 0.45199 0.64898 0.97235 0.0
C1906 C 0.36603 0.66674 0.97729 0.0
C1907 C 0.36001 0.68418 0.96802 0.0
C1908 C 0.38637 0.66136 0.97701 0.0
C1909 C 0.40112 0.67338 0.96747 0.0
C1910 C 0.39464 0.68971 0.95686 0.0
C1911 C 0.37456 0.69526 0.95751 0.0
H1912 H 0.61323 0.52272 0.28063 0.0
H1913 H 0.58381 0.49994 0.33175 0.0
H1914 H 0.59485 0.55373 0.28392 0.0
H1915 H 0.56514 0.53042 0.33476 0.0
H1916 H 0.54964 0.59618 0.34928 0.0
H1917 H 0.57015 0.56674 0.34583 0.0
H1918 H 0.56105 0.56531 0.27853 0.0
H1919 H 0.54119 0.59532 0.28242 0.0
C1920 C 0.60272 0.52428 0.29246 0.0
C1921 C 0.6001 0.50898 0.30604 0.0
C1922 C 0.59215 0.54201 0.29433 0.0
C1923 C 0.57858 0.54472 0.30971 0.0
C1924 C 0.57583 0.5292 0.32307 0.0
C1925 C 0.58649 0.51165 0.32131 0.0
C1926 C 0.55215 0.58946 0.33384 0.0
C1927 C 0.54391 0.59775 0.31612 0.0
C1928 C 0.56377 0.57258 0.33177 0.0
C1929 C 0.56715 0.56345 0.31186 0.0
C1930 C 0.55901 0.57204 0.29411 0.0
C1931 C 0.54754 0.58908 0.29625 0.0
H1932 H 0.94872 0.16058 0.8078 0.0
H1933 H 0.00504 0.1421 0.78514 0.0
H1934 H 0.93004 0.12628 0.79403 0.0
H1935 H 0.9865 0.10743 0.77192 0.0
H1936 H 0.93719 0.06248 0.72501 0.0
H1937 H 0.95937 0.09368 0.74307 0.0
H1938 H 0.92661 0.08913 0.79733 0.0
H1939 H 0.90449 0.0579 0.77898 0.0
C1940 C 0.95717 0.14908 0.80008 0.0
C1941 C 0.9783 0.15414 0.79737 0.0
C1942 C 0.94653 0.12933 0.79238 0.0
C1943 C 0.95674 0.11412 0.78176 0.0
C1944 C 0.97811 0.11888 0.77979 0.0
C1945 C 0.98879 0.13867 0.78756 0.0
C1946 C 0.93504 0.06808 0.7409 0.0
C1947 C 0.9191 0.05811 0.75061 0.0
C1948 C 0.94774 0.08585 0.75129 0.0
C1949 C 0.9447 0.09399 0.77162 0.0
C1950 C 0.92913 0.08348 0.78156 0.0
C1951 C 0.91647 0.06568 0.77113 0.0
H1952 H 0.46853 0.87524 0.29258 0.0
H1953 H 0.45799 0.91654 0.24553 0.0
H1954 H 0.50117 0.89712 0.30679 0.0
H1955 H 0.49081 0.9382 0.25959 0.0
H1956 H 0.56204 0.95567 0.27406 0.0
H1957 H 0.52864 0.93406 0.26123 0.0
H1958 H 0.51497 0.93281 0.32489 0.0
H1959 H 0.54864 0.95421 0.3375 0.0
C1960 C 0.47299 0.88914 0.28545 0.0
C1961 C 0.46064 0.89406 0.26783 0.0
C1962 C 0.49174 0.90163 0.29357 0.0
C1963 C 0.49864 0.91926 0.2842 0.0
C1964 C 0.48609 0.92448 0.26691 0.0
C1965 C 0.46729 0.91206 0.25885 0.0
C1966 C 0.5519 0.95049 0.28518 0.0
C1967 C 0.55769 0.95641 0.30665 0.0
C1968 C 0.53275 0.93838 0.27792 0.0
C1969 C 0.51911 0.93187 0.29205 0.0
C1970 C 0.52519 0.93749 0.31363 0.0
C1971 C 0.54434 0.94971 0.32087 0.0
H1972 H 0.94404 0.45735 0.65471 0.0
H1973 H 0.98145 0.47709 0.71444 0.0
H1974 H 0.94279 0.42089 0.6616 0.0
H1975 H 0.98034 0.44088 0.72126 0.0
H1976 H 0.96206 0.37626 0.73656 0.0
H1977 H 0.95691 0.41163 0.7289 0.0
H1978 H 0.96547 0.39398 0.66441 0.0
H1979 H 0.97007 0.35878 0.67219 0.0
C1980 C 0.95207 0.45389 0.66925 0.0
C1981 C 0.96274 0.47011 0.68408 0.0
C1982 C 0.95132 0.43303 0.67322 0.0
C1983 C 0.96127 0.42797 0.69209 0.0
C1984 C 0.97203 0.44422 0.70681 0.0
C1985 C 0.97275 0.465 0.70286 0.0
C1986 C 0.963 0.38012 0.72086 0.0
C1987 C 0.96785 0.3653 0.70527 0.0
C1988 C 0.95997 0.40027 0.7164 0.0
C1989 C 0.96144 0.40584 0.69617 0.0
C1990 C 0.96442 0.39035 0.6802 0.0
C1991 C 0.96736 0.37023 0.6847 0.0
H1992 H 0.66455 0.38657 0.48718 0.0
H1993 H 0.72887 0.41304 0.50614 0.0
H1994 H 0.66326 0.40593 0.45726 0.0
H1995 H 0.72793 0.43179 0.47544 0.0
H1996 H 0.70956 0.48156 0.43305 0.0
H1997 H 0.71288 0.46091 0.46245 0.0
H1998 H 0.67498 0.4084 0.42422 0.0
H1999 H 0.67105 0.42953 0.39541 0.0
C2000 C 0.67851 0.39638 0.48489 0.0
C2001 C 0.69675 0.39823 0.49925 0.0
C2002 C 0.67785 0.40734 0.46752 0.0
C2003 C 0.69548 0.42047 0.46383 0.0
C2004 C 0.71395 0.42202 0.47789 0.0
C2005 C 0.71458 0.41103 0.49538 0.0
C2006 C 0.70192 0.46562 0.43114 0.0
C2007 C 0.69006 0.45705 0.4121 0.0
C2008 C 0.704 0.45368 0.44781 0.0
C2009 C 0.69425 0.43289 0.44575 0.0
C2010 C 0.68256 0.42436 0.4265 0.0
C2011 C 0.68045 0.43634 0.4099 0.0
H2012 H 0.76739 0.53149 0.10672 0.0
H2013 H 0.71146 0.55477 0.08073 0.0
H2014 H 0.75714 0.4983 0.08446 0.0
H2015 H 0.70105 0.52126 0.05854 0.0
H2016 H 0.69938 0.4625 0.0099 0.0
H2017 H 0.71279 0.4974 0.0284 0.0
H2018 H 0.72719 0.46977 0.0851 0.0
H2019 H 0.71316 0.43525 0.06677 0.0
C2020 C 0.75307 0.52964 0.09599 0.0
C2021 C 0.74022 0.54574 0.09548 0.0
C2022 C 0.74714 0.51057 0.08338 0.0
C2023 C 0.72828 0.50721 0.06986 0.0
C2024 C 0.71575 0.52352 0.06874 0.0
C2025 C 0.7216 0.54259 0.08154 0.0
C2026 C 0.70555 0.46403 0.02628 0.0
C2027 C 0.70538 0.44631 0.03697 0.0
C2028 C 0.71315 0.48389 0.03684 0.0
C2029 C 0.72107 0.48624 0.05815 0.0
C2030 C 0.72146 0.46838 0.06861 0.0
C2031 C 0.71357 0.44865 0.05814 0.0
H2032 H 0.34059 1.00043 0.53228 0.0
H2033 H 0.3421 0.06756 0.54411 0.0
H2034 H 0.33351 0.99735 0.5681 0.0
H2035 H 0.33508 0.06435 0.58016 0.0
H2036 H 0.33649 0.04056 0.64922 0.0
H2037 H 0.35134 0.04616 0.61666 0.0
H2038 H 0.29648 0.01005 0.58099 0.0
H2039 H 0.28137 0.00523 0.61309 0.0
C2040 C 0.34006 0.01457 0.54272 0.0
C2041 C 0.34175 0.03422 0.5354 0.0
C2042 C 0.33595 0.01278 0.56315 0.0
C2043 C 0.33375 0.03062 0.5767 0.0
C2044 C 0.33688 0.05043 0.56994 0.0
C2045 C 0.34072 0.05222 0.54935 0.0
C2046 C 0.32765 0.03386 0.63441 0.0
C2047 C 0.30803 0.02187 0.63371 0.0
C2048 C 0.33614 0.03707 0.61587 0.0
C2049 C 0.32517 0.02811 0.59651 0.0
C2050 C 0.3054 0.01668 0.59582 0.0
C2051 C 0.29681 0.01387 0.61419 0.0
H2052 H 0.25285 0.04546 0.87664 0.0
H2053 H 0.19075 0.03159 0.89409 0.0
H2054 H 0.26545 0.06087 0.91223 0.0
H2055 H 0.20346 0.04732 0.92996 0.0
H2056 H 0.23161 0.10357 0.98157 0.0
H2057 H 0.21655 0.08293 0.94821 0.0
H2058 H 0.27213 0.05167 0.94767 0.0
H2059 H 0.28721 0.07286 0.98051 0.0
C2060 C 0.24195 0.04532 0.88818 0.0
C2061 C 0.22081 0.03716 0.88254 0.0
C2062 C 0.24919 0.05419 0.90861 0.0
C2063 C 0.23548 0.05519 0.92393 0.0
C2064 C 0.21435 0.04688 0.91842 0.0
C2065 C 0.20709 0.03791 0.89791 0.0
C2066 C 0.24035 0.09208 0.97429 0.0
C2067 C 0.26048 0.08971 0.98336 0.0
C2068 C 0.23175 0.08019 0.95537 0.0
C2069 C 0.24324 0.06579 0.94526 0.0
C2070 C 0.26302 0.06283 0.95494 0.0
C2071 C 0.27158 0.07475 0.97378 0.0
H2072 H 0.47744 0.6786 0.37079 0.0
H2073 H 0.5084 0.72391 0.42143 0.0
H2074 H 0.44743 0.67289 0.38975 0.0
H2075 H 0.47746 0.72045 0.43938 0.0
H2076 H 0.43097 0.69465 0.47934 0.0
H2077 H 0.46032 0.69985 0.4594 0.0
H2078 H 0.41816 0.68188 0.40195 0.0
H2079 H 0.38949 0.67437 0.42241 0.0
C2080 C 0.47772 0.68739 0.38598 0.0
C2081 C 0.49561 0.70103 0.39487 0.0
C2082 C 0.46027 0.68452 0.39675 0.0
C2083 C 0.45989 0.69584 0.41652 0.0
C2084 C 0.47727 0.71075 0.42465 0.0
C2085 C 0.49497 0.71312 0.41411 0.0
C2086 C 0.42821 0.69126 0.46248 0.0
C2087 C 0.40802 0.68399 0.45243 0.0
C2088 C 0.44495 0.69476 0.45089 0.0
C2089 C 0.44187 0.69168 0.42883 0.0
C2090 C 0.42152 0.68422 0.41883 0.0
C2091 C 0.40492 0.68008 0.43051 0.0
H2092 H 0.89674 0.21879 0.00977 0.0
H2093 H 0.88372 0.19101 0.06525 0.0
H2094 H 0.93261 0.23076 0.02583 0.0
H2095 H 0.91926 0.20315 0.08139 0.0
H2096 H 0.98723 0.21838 0.10378 0.0
H2097 H 0.95582 0.20056 0.08163 0.0
H2098 H 0.94878 0.2573 0.05353 0.0
H2099 H 0.98049 0.27463 0.07539 0.0
C2100 C 0.90161 0.21512 0.02533 0.0
C2101 C 0.8874 0.20404 0.03628 0.0
C2102 C 0.92212 0.22199 0.03454 0.0
C2103 C 0.92882 0.21803 0.05495 0.0
C2104 C 0.9148 0.2062 0.06553 0.0
C2105 C 0.89437 0.19925 0.05628 0.0
C2106 C 0.97907 0.22673 0.0925 0.0
C2107 C 0.98602 0.24773 0.09115 0.0
C2108 C 0.96108 0.21667 0.07995 0.0
C2109 C 0.94963 0.22755 0.06593 0.0
C2110 C 0.95731 0.24835 0.06393 0.0
C2111 C 0.97538 0.25833 0.07644 0.0
H2112 H 0.09095 0.70426 0.55574 0.0
H2113 H 0.11918 0.75574 0.5272 0.0
H2114 H 0.06927 0.69106 0.52261 0.0
H2115 H 0.09799 0.74244 0.49412 0.0
H2116 H 0.04149 0.7261 0.4446 0.0
H2117 H 0.06279 0.73881 0.47803 0.0
H2118 H 0.07091 0.67501 0.48758 0.0
H2119 H 0.04901 0.66257 0.45424 0.0
C2120 C 0.09259 0.71266 0.54235 0.0
C2121 C 0.1066 0.73112 0.54409 0.0
C2122 C 0.08025 0.70508 0.52336 0.0
C2123 C 0.08182 0.71573 0.5057 0.0
C2124 C 0.09603 0.73408 0.50748 0.0
C2125 C 0.1082 0.74171 0.52645 0.0
C2126 C 0.04804 0.71495 0.4539 0.0
C2127 C 0.04384 0.69349 0.44707 0.0
C2128 C 0.06024 0.72213 0.47297 0.0
C2129 C 0.06865 0.70793 0.48549 0.0
C2130 C 0.06447 0.68636 0.47847 0.0
C2131 C 0.05213 0.67921 0.4594 0.0
H2132 H 0.53946 0.3455 0.99986 0.0
H2133 H 0.55262 0.34742 0.06689 0.0
H2134 H 0.57531 0.33887 0.99614 0.0
H2135 H 0.58863 0.34076 0.06303 0.0
H2136 H 0.65673 0.33729 0.03983 0.0
H2137 H 0.62542 0.35503 0.04425 0.0
H2138 H 0.58673 0.30162 0.00866 0.0
H2139 H 0.61753 0.28383 0.00506 0.0
C2140 C 0.5502 0.34526 0.01385 0.0
C2141 C 0.54319 0.34674 0.03366 0.0
C2142 C 0.57068 0.34144 0.0117 0.0
C2143 C 0.58457 0.33931 0.02931 0.0
C2144 C 0.57819 0.34255 0.04927 0.0
C2145 C 0.55758 0.34613 0.05143 0.0
C2146 C 0.64152 0.32951 0.03294 0.0
C2147 C 0.63948 0.30932 0.02188 0.0
C2148 C 0.62371 0.3396 0.03544 0.0
C2149 C 0.60384 0.32973 0.02647 0.0
C2150 C 0.60195 0.30967 0.01536 0.0
C2151 C 0.61954 0.29951 0.0133 0.0
H2152 H 0.4357 0.50756 0.7022 0.0
H2153 H 0.37574 0.47097 0.7021 0.0
H2154 H 0.45255 0.47584 0.70089 0.0
H2155 H 0.39273 0.43911 0.70144 0.0
H2156 H 0.42776 0.38601 0.67305 0.0
H2157 H 0.40953 0.41708 0.67744 0.0
H2158 H 0.46217 0.44855 0.72057 0.0
H2159 H 0.48026 0.41746 0.71577 0.0
C2160 C 0.42609 0.49272 0.70196 0.0
C2161 C 0.40429 0.49181 0.70191 0.0
C2162 C 0.43581 0.47451 0.70147 0.0
C2163 C 0.42402 0.45485 0.70099 0.0
C2164 C 0.40227 0.45395 0.70152 0.0
C2165 C 0.39254 0.47224 0.70208 0.0
C2166 C 0.43523 0.39959 0.68355 0.0
C2167 C 0.4554 0.39958 0.69394 0.0
C2168 C 0.42482 0.41734 0.68617 0.0
C2169 C 0.43442 0.43542 0.69928 0.0
C2170 C 0.45447 0.43509 0.71004 0.0
C2171 C 0.46484 0.41736 0.70736 0.0
H2172 H 0.00987 0.89497 0.21792 0.0
H2173 H 0.06675 0.88082 0.19339 0.0
H2174 H 0.02591 0.93085 0.22964 0.0
H2175 H 0.08288 0.91648 0.20531 0.0
H2176 H 0.10524 0.98505 0.22178 0.0
H2177 H 0.08386 0.95361 0.20281 0.0
H2178 H 0.05294 0.94547 0.25773 0.0
H2179 H 0.07418 0.97687 0.27625 0.0
C2180 C 0.02573 0.89961 0.21486 0.0
C2181 C 0.03714 0.88507 0.20494 0.0
C2182 C 0.03492 0.92012 0.22158 0.0
C2183 C 0.05575 0.92646 0.21862 0.0
C2184 C 0.06673 0.91221 0.20763 0.0
C2185 C 0.0575 0.89174 0.20082 0.0
C2186 C 0.09361 0.97657 0.2295 0.0
C2187 C 0.09119 0.98317 0.25033 0.0
C2188 C 0.08145 0.95862 0.21877 0.0
C2189 C 0.06672 0.947 0.22877 0.0
C2190 C 0.06385 0.95422 0.24942 0.0
C2191 C 0.076 0.97212 0.26008 0.0
H2192 H 0.55741 0.09332 0.7076 0.0
H2193 H 0.52598 0.12693 0.75355 0.0
H2194 H 0.52466 0.07081 0.69463 0.0
H2195 H 0.49327 0.10495 0.74037 0.0
H2196 H 0.44421 0.04796 0.72803 0.0
H2197 H 0.4772 0.07027 0.74014 0.0
H2198 H 0.49027 0.0701 0.6761 0.0
H2199 H 0.45734 0.04719 0.66432 0.0
C2200 C 0.54345 0.09598 0.71479 0.0
C2201 C 0.54428 0.11172 0.73171 0.0
C2202 C 0.52468 0.08316 0.70733 0.0
C2203 C 0.50632 0.08597 0.71653 0.0
C2204 C 0.50717 0.102 0.73321 0.0
C2205 C 0.52592 0.11464 0.74076 0.0
C2206 C 0.45417 0.05292 0.71667 0.0
C2207 C 0.44842 0.04612 0.69535 0.0
C2208 C 0.473 0.0657 0.7235 0.0
C2209 C 0.48639 0.07212 0.70909 0.0
C2210 C 0.48048 0.06528 0.68765 0.0
C2211 C 0.46165 0.05234 0.68085 0.0
H2212 H 0.01617 0.53835 0.35224 0.0
H2213 H 0.06731 0.53497 0.31483 0.0
H2214 H 0.01603 0.57527 0.34764 0.0
H2215 H 0.06645 0.5717 0.30971 0.0
H2216 H 0.04173 0.64844 0.33542 0.0
H2217 H 0.05038 0.616 0.34909 0.0
H2218 H 0.02261 0.58033 0.2906 0.0
H2219 H 0.01332 0.61223 0.27736 0.0
C2220 C 0.02782 0.5456 0.34363 0.0
C2221 C 0.04155 0.53363 0.3336 0.0
C2222 C 0.02772 0.56672 0.34107 0.0
C2223 C 0.04129 0.57611 0.32843 0.0
C2224 C 0.05599 0.56468 0.31965 0.0
C2225 C 0.05626 0.54365 0.32237 0.0
C2226 C 0.03731 0.63361 0.32566 0.0
C2227 C 0.02637 0.63271 0.30553 0.0
C2228 C 0.04237 0.6152 0.3334 0.0
C2229 C 0.03709 0.59591 0.32078 0.0
C2230 C 0.02683 0.59514 0.30051 0.0
C2231 C 0.02148 0.61334 0.29299 0.0
H2232 H 0.38439 0.6321 0.36847 0.0
H2233 H 0.39279 0.69147 0.34408 0.0
H2234 H 0.41875 0.62507 0.36007 0.0
H2235 H 0.42741 0.68436 0.3356 0.0
H2236 H 0.47738 0.65244 0.30202 0.0
H2237 H 0.44359 0.6613 0.31147 0.0
H2238 H 0.45553 0.63591 0.3699 0.0
H2239 H 0.48959 0.62799 0.36073 0.0
C2240 C 0.39369 0.64384 0.3616 0.0
C2241 C 0.38574 0.66239 0.35699 0.0
C2242 C 0.41345 0.63977 0.35673 0.0
C2243 C 0.42589 0.65409 0.34706 0.0
C2244 C 0.41811 0.6728 0.34269 0.0
C2245 C 0.39827 0.6769 0.34758 0.0
C2246 C 0.4729 0.64918 0.31705 0.0
C2247 C 0.48613 0.63957 0.33066 0.0
C2248 C 0.45352 0.65416 0.32245 0.0
C2249 C 0.44676 0.64932 0.34146 0.0
C2250 C 0.46 0.63955 0.35498 0.0
C2251 C 0.47955 0.63502 0.34977 0.0
H2252 H 0.10548 0.30873 0.77959 0.0
H2253 H 0.11767 0.27573 0.72142 0.0
H2254 H 0.06796 0.29952 0.76922 0.0
H2255 H 0.08024 0.2658 0.71148 0.0
H2256 H 0.01907 0.29571 0.69052 0.0
H2257 H 0.05316 0.28508 0.69962 0.0
H2258 H 0.03593 0.27294 0.76003 0.0
H2259 H 1.00067 0.28238 0.74925 0.0
C2260 C 0.10023 0.29926 0.76472 0.0
C2261 C 0.11476 0.2933 0.75125 0.0
C2262 C 0.07864 0.29362 0.75892 0.0
C2263 C 0.07094 0.28189 0.73945 0.0
C2264 C 0.08552 0.27495 0.72651 0.0
C2265 C 0.10709 0.28057 0.73231 0.0
C2266 C 0.0224 0.2906 0.70573 0.0
C2267 C 0.00938 0.29448 0.72145 0.0
C2268 C 0.04207 0.28428 0.71093 0.0
C2269 C 0.04816 0.28018 0.73142 0.0
C2270 C 0.03245 0.27789 0.74475 0.0
C2271 C 0.01257 0.28388 0.73904 0.0
H2272 H 0.75549 0.95882 0.66309 0.0
H2273 H 0.74731 0.02416 0.67477 0.0
H2274 H 0.79235 0.96711 0.6777 0.0
H2275 H 0.78404 0.03239 0.68956 0.0
H2276 H 0.85577 0.04141 0.69205 0.0
H2277 H 0.81914 0.0322 0.67653 0.0
H2278 H 0.81344 0.9802 0.71278 0.0
H2279 H 0.85008 0.98975 0.72831 0.0
C2280 C 0.76159 0.97494 0.66878 0.0
C2281 C 0.74853 0.99084 0.66783 0.0
C2282 C 0.78262 0.97965 0.67726 0.0
C2283 C 0.79106 1.00039 0.68472 0.0
C2284 C 0.778 0.01628 0.68375 0.0
C2285 C 0.75694 0.01155 0.67548 0.0
C2286 C 0.84656 0.02802 0.69654 0.0
C2287 C 0.85546 0.01625 0.71127 0.0
C2288 C 0.82568 0.02279 0.68781 0.0
C2289 C 0.81342 0.00553 0.69352 0.0
C2290 C 0.82256 0.99348 0.70797 0.0
C2291 C 0.8434 0.99888 0.71685 0.0
H2292 H 0.74526 0.99971 0.30459 0.0
H2293 H 0.77558 0.98819 0.34104 0.0
H2294 H 0.69816 0.00401 0.28658 0.0
H2295 H 0.74394 0.98053 0.36427 0.0
H2296 H 0.63869 0.00161 0.35164 0.0
H2297 H 0.67612 0.00807 0.35206 0.0
H2298 H 0.67069 0.97551 0.28949 0.0
H2299 H 0.63275 0.97236 0.28789 0.0
C2300 C 0.73365 0.00219 0.29543 0.0
C2301 C 0.7563 0.99819 0.31071 0.0
C2302 C 0.70912 1.00071 0.29926 0.0
C2303 C 0.70006 0.99451 0.32051 0.0
C2304 C 0.74174 0.9863 0.34915 0.0
C2305 C 0.76004 0.99071 0.33471 0.0
C2306 C 0.64547 0.99621 0.33783 0.0
C2307 C 0.63268 0.98643 0.31974 0.0
C2308 C 0.66721 0.99929 0.3383 0.0
C2309 C 0.67683 0.99121 0.32127 0.0
C2310 C 0.66394 0.98146 0.30317 0.0
C2311 C 0.64216 0.97936 0.3023 0.0
H2312 H 0.34197 0.3874 0.68357 0.0
H2313 H 0.35489 0.3773 0.61952 0.0
H2314 H 0.33397 0.4228 0.67838 0.0
H2315 H 0.34722 0.41242 0.61447 0.0
H2316 H 0.30793 0.46494 0.60481 0.0
H2317 H 0.31531 0.43026 0.61254 0.0
H2318 H 0.35163 0.45788 0.67084 0.0
H2319 H 0.34426 0.49283 0.66283 0.0
C2320 C 0.34309 0.39273 0.66842 0.0
C2321 C 0.34903 0.37957 0.65194 0.0
C2322 C 0.33868 0.41301 0.66551 0.0
C2323 C 0.33982 0.42032 0.64597 0.0
C2324 C 0.34593 0.40717 0.62962 0.0
C2325 C 0.35051 0.38709 0.63258 0.0
C2326 C 0.31757 0.46354 0.61921 0.0
C2327 C 0.3258 0.48143 0.63309 0.0
C2328 C 0.32179 0.44375 0.62367 0.0
C2329 C 0.33428 0.44138 0.6422 0.0
C2330 C 0.34194 0.45926 0.65649 0.0
C2331 C 0.33777 0.47917 0.65194 0.0
H2332 H 0.27282 0.73096 0.99609 0.0
H2333 H 0.33779 0.76364 0.98438 0.0
H2334 H 0.29687 0.6925 0.98434 0.0
H2335 H 0.35782 0.72988 0.97594 0.0
H2336 H 0.32197 0.62106 0.95069 0.0
H2337 H 0.32543 0.65858 0.95285 0.0
H2338 H 0.29186 0.66151 0.00686 0.0
H2339 H 0.28882 0.62315 0.0046 0.0
C2340 C 0.28743 0.72646 0.99156 0.0
C2341 C 0.3052 0.7466 0.99019 0.0
C2342 C 0.28654 0.70099 0.98797 0.0
C2343 C 0.30744 0.6887 0.98117 0.0
C2344 C 0.34153 0.72861 0.97874 0.0
C2345 C 0.32927 0.74831 0.98442 0.0
C2346 C 0.31545 0.62989 0.96304 0.0
C2347 C 0.30502 0.61946 0.97735 0.0
C2348 C 0.31738 0.65167 0.96439 0.0
C2349 C 0.30911 0.66368 0.98025 0.0
C2350 C 0.2988 0.65292 0.99468 0.0
C2351 C 0.2969 0.63106 0.99337 0.0
H2352 H 0.7839 0.13614 0.3718 0.0
H2353 H 0.7621 0.13685 0.3065 0.0
H2354 H 0.77372 0.09848 0.36803 0.0
H2355 H 0.75189 0.09908 0.30272 0.0
H2356 H 0.71126 0.0389 0.31404 0.0
H2357 H 0.72504 0.07514 0.31466 0.0
H2358 H 0.7811 0.06491 0.3526 0.0
H2359 H 0.76713 0.02862 0.35227 0.0
C2360 C 0.77726 0.12822 0.35654 0.0
C2361 C 0.77378 0.13958 0.33946 0.0
C2362 C 0.77142 0.10657 0.35437 0.0
C2363 C 0.76196 0.09571 0.33506 0.0
C2364 C 0.75887 0.10699 0.31788 0.0
C2365 C 0.7647 0.12865 0.32005 0.0
C2366 C 0.72711 0.04378 0.32131 0.0
C2367 C 0.73905 0.0297 0.3309 0.0
C2368 C 0.73489 0.06488 0.32202 0.0
C2369 C 0.75448 0.07289 0.33314 0.0
C2370 C 0.76611 0.05921 0.34352 0.0
C2371 C 0.7583 0.03809 0.3428 0.0
H2372 H 0.67803 0.73089 0.94728 0.0
H2373 H 0.64576 0.75453 0.99806 0.0
H2374 H 0.69367 0.76646 0.94469 0.0
H2375 H 0.66143 0.78992 0.9956 0.0
H2376 H 0.68003 0.85353 0.9786 0.0
H2377 H 0.6615 0.81794 0.97402 0.0
H2378 H 0.71954 0.79317 0.96462 0.0
H2379 H 0.73762 0.82889 0.96854 0.0
C2380 C 0.67434 0.74367 0.95793 0.0
C2381 C 0.66064 0.73988 0.97286 0.0
C2382 C 0.68326 0.76405 0.95642 0.0
C2383 C 0.67872 0.78109 0.96985 0.0
C2384 C 0.66492 0.77726 0.98468 0.0
C2385 C 0.65598 0.75693 0.98615 0.0
C2386 C 0.68853 0.8404 0.9749 0.0
C2387 C 0.71012 0.84371 0.97387 0.0
C2388 C 0.67808 0.82006 0.97257 0.0
C2389 C 0.68909 0.80267 0.96927 0.0
C2390 C 0.71052 0.80616 0.96701 0.0
C2391 C 0.72092 0.82652 0.96928 0.0
H2392 H 0.63408 0.32179 0.36861 0.0
H2393 H 0.67539 0.37754 0.39523 0.0
H2394 H 0.62787 0.31429 0.40353 0.0
H2395 H 0.66923 0.36995 0.43034 0.0
H2396 H 0.63222 0.36243 0.48687 0.0
H2397 H 0.64085 0.36963 0.45223 0.0
H2398 H 0.64438 0.3038 0.43545 0.0
H2399 H 0.63491 0.29681 0.46984 0.0
C2400 C 0.64211 0.33228 0.38194 0.0
C2401 C 0.65523 0.35027 0.3791 0.0
C2402 C 0.63854 0.32798 0.402 0.0
C2403 C 0.64801 0.34154 0.41978 0.0
C2404 C 0.66141 0.35938 0.41697 0.0
C2405 C 0.66496 0.36371 0.39687 0.0
C2406 C 0.63491 0.34964 0.47567 0.0
C2407 C 0.63295 0.32914 0.48082 0.0
C2408 C 0.64003 0.35371 0.45596 0.0
C2409 C 0.64341 0.33731 0.44106 0.0
C2410 C 0.64168 0.31678 0.44644 0.0
C2411 C 0.63644 0.31275 0.46611 0.0
H2412 H 0.97688 0.31921 0.7669 0.0
H2413 H 0.04347 0.33307 0.74527 0.0
H2414 H 0.9528 0.31777 0.7305 0.0
H2415 H 0.03865 0.33829 0.70665 0.0
H2416 H 0.02154 0.36633 0.64369 0.0
H2417 H 0.02098 0.36323 0.68103 0.0
H2418 H 0.98391 0.30305 0.66434 0.0
H2419 H 0.98028 0.30836 0.62846 0.0
C2420 C 0.98479 0.32157 0.75335 0.0
C2421 C 0.01041 0.32596 0.75577 0.0
C2422 C 0.96975 0.32117 0.73209 0.0
C2423 C 0.00199 0.33148 0.69895 0.0
C2424 C 0.02457 0.33467 0.71379 0.0
C2425 C 0.02718 0.33157 0.7388 0.0
C2426 C 0.01236 0.35297 0.64822 0.0
C2427 C 1.00071 0.33771 0.63297 0.0
C2428 C 0.01222 0.35107 0.66957 0.0
C2429 C 1.00087 0.33366 0.67606 0.0
C2430 C 0.99081 0.31777 0.66064 0.0
C2431 C 0.98975 0.32027 0.63957 0.0
H2432 H 0.32511 0.72199 0.1323 0.0
H2433 H 0.32715 0.78694 0.12217 0.0
H2434 H 0.3216 0.71171 0.09472 0.0
H2435 H 0.32364 0.77661 0.08443 0.0
H2436 H 0.34546 0.74995 0.02223 0.0
H2437 H 0.34497 0.76171 0.05883 0.0
H2438 H 0.29849 0.70963 0.06263 0.0
H2439 H 0.29913 0.69776 0.02603 0.0
C2440 C 0.32446 0.73407 0.12205 0.0
C2441 C 0.3264 0.7553 0.13029 0.0
C2442 C 0.32244 0.72817 0.10045 0.0
C2443 C 0.3223 0.74333 0.08652 0.0
C2444 C 0.32395 0.76455 0.09474 0.0
C2445 C 0.32598 0.77047 0.11636 0.0
C2446 C 0.334 0.74176 0.0303 0.0
C2447 C 0.32026 0.72432 0.02001 0.0
C2448 C 0.33408 0.74832 0.05158 0.0
C2449 C 0.32119 0.73704 0.06359 0.0
C2450 C 0.3083 0.71899 0.05377 0.0
C2451 C 0.30821 0.71248 0.03246 0.0
H2452 H 0.95281 0.68411 0.73553 0.0
H2453 H 0.99469 0.64134 0.757 0.0
H2454 H 0.95257 0.69952 0.77164 0.0
H2455 H 0.99445 0.65667 0.79296 0.0
H2456 H 0.97689 0.67607 0.85692 0.0
H2457 H 0.97181 0.65965 0.82052 0.0
H2458 H 0.97647 0.7209 0.7996 0.0
H2459 H 0.98096 0.73703 0.83603 0.0
C2460 C 0.96205 0.67808 0.74793 0.0
C2461 C 0.97373 0.66147 0.74338 0.0
C2462 C 0.96187 0.68686 0.76861 0.0
C2463 C 0.97337 0.67922 0.7852 0.0
C2464 C 0.98504 0.66262 0.78061 0.0
C2465 C 0.98523 0.65387 0.75998 0.0
C2466 C 0.97627 0.68588 0.84444 0.0
C2467 C 0.97924 0.70772 0.84908 0.0
C2468 C 0.97364 0.67657 0.82365 0.0
C2469 C 0.97394 0.68898 0.80715 0.0
C2470 C 0.97599 0.71088 0.81189 0.0
C2471 C 0.97863 0.72014 0.83267 0.0
H2472 H 0.61532 0.36797 0.64959 0.0
H2473 H 0.60096 0.3016 0.65164 0.0
H2474 H 0.58093 0.37349 0.65918 0.0
H2475 H 0.56639 0.30723 0.66168 0.0
H2476 H 0.49798 0.32736 0.65819 0.0
H2477 H 0.53191 0.31844 0.64867 0.0
H2478 H 0.56318 0.37194 0.69054 0.0
H2479 H 0.52947 0.38031 0.7003 0.0
C2480 C 0.60476 0.35448 0.65192 0.0
C2481 C 0.611 0.33431 0.64979 0.0
C2482 C 0.58507 0.35769 0.65767 0.0
C2483 C 0.57091 0.34084 0.66145 0.0
C2484 C 0.57688 0.32056 0.65888 0.0
C2485 C 0.59676 0.31735 0.65327 0.0
C2486 C 0.51216 0.337 0.66546 0.0
C2487 C 0.51106 0.3548 0.67962 0.0
C2488 C 0.53159 0.33195 0.66002 0.0
C2489 C 0.55028 0.34478 0.66843 0.0
C2490 C 0.54911 0.36205 0.68327 0.0
C2491 C 0.5298 0.36689 0.68887 0.0
H2492 H 0.86205 0.66261 0.27031 0.0
H2493 H 0.87102 0.67354 0.20718 0.0
H2494 H 0.89966 0.6643 0.27926 0.0
H2495 H 0.90896 0.67534 0.21623 0.0
H2496 H 0.97379 0.65337 0.2381 0.0
H2497 H 0.93669 0.65317 0.2265 0.0
H2498 H 0.93 0.68959 0.2847 0.0
H2499 H 0.96638 0.68905 0.2964 0.0
C2500 C 0.87208 0.66567 0.2584 0.0
C2501 C 0.86351 0.66819 0.2381 0.0
C2502 C 0.89369 0.66662 0.26352 0.0
C2503 C 0.90737 0.67021 0.24852 0.0
C2504 C 0.89884 0.67244 0.2281 0.0
C2505 C 0.87712 0.67144 0.22295 0.0
C2506 C 0.96478 0.66249 0.24785 0.0
C2507 C 0.97413 0.67365 0.26713 0.0
C2508 C 0.94333 0.66202 0.24135 0.0
C2509 C 0.93042 0.67182 0.25444 0.0
C2510 C 0.93948 0.68216 0.27402 0.0
C2511 C 0.96077 0.68254 0.28046 0.0
H2512 H 0.25143 0.04767 0.36377 0.0
H2513 H 0.26237 0.00451 0.31152 0.0
H2514 H 0.21559 0.04804 0.34771 0.0
H2515 H 0.22664 0.00494 0.29547 0.0
H2516 H 0.16819 0.02447 0.26268 0.0
H2517 H 0.20451 0.02827 0.27916 0.0
H2518 H 0.18261 0.02444 0.33943 0.0
H2519 H 0.14635 0.02087 0.32271 0.0
C2520 C 0.24616 0.03818 0.34892 0.0
C2521 C 0.25977 0.02608 0.33891 0.0
C2522 C 0.22565 0.03842 0.33971 0.0
C2523 C 0.21832 0.02662 0.32027 0.0
C2524 C 0.23194 0.01454 0.31026 0.0
C2525 C 0.25242 0.01428 0.31947 0.0
C2526 C 0.17132 0.02478 0.27948 0.0
C2527 C 0.15472 0.02245 0.29152 0.0
C2528 C 0.192 0.02678 0.2889 0.0
C2529 C 0.19643 0.02644 0.31058 0.0
C2530 C 0.17972 0.02495 0.32273 0.0
C2531 C 0.15902 0.02296 0.31325 0.0
H2532 H 0.22971 0.01613 0.66137 0.0
H2533 H 0.26389 0.00204 0.72465 0.0
H2534 H 0.26263 0.02128 0.63917 0.0
H2535 H 0.30108 0.00821 0.69766 0.0
H2536 H 0.37439 0.03244 0.71621 0.0
H2537 H 0.33643 0.03007 0.71559 0.0
H2538 H 0.32902 0.99368 0.65489 0.0
H2539 H 0.36622 0.9993 0.65387 0.0
C2540 C 0.24504 0.01412 0.66876 0.0
C2541 C 0.24749 0.00884 0.69297 0.0
C2542 C 0.26408 0.01706 0.655 0.0
C2543 C 0.30447 0.01045 0.68664 0.0
C2544 C 0.29305 0.00598 0.70869 0.0
C2545 C 0.2679 0.00557 0.70956 0.0
C2546 C 0.36453 0.02488 0.70228 0.0
C2547 C 0.37338 0.01654 0.68487 0.0
C2548 C 0.34282 0.02336 0.70199 0.0
C2549 C 0.32934 0.01309 0.68455 0.0
C2550 C 0.33832 0.00332 0.66786 0.0
C2551 C 0.35998 0.00584 0.6676 0.0
H2552 H 0.66022 0.60778 0.31771 0.0
H2553 H 0.64619 0.62002 0.38117 0.0
H2554 H 0.66875 0.573 0.32448 0.0
H2555 H 0.6544 0.58537 0.38782 0.0
H2556 H 0.6949 0.53337 0.39962 0.0
H2557 H 0.68609 0.56748 0.39136 0.0
H2558 H 0.65208 0.53828 0.33242 0.0
H2559 H 0.66098 0.50409 0.34095 0.0
C2560 C 0.65893 0.60303 0.33307 0.0
C2561 C 0.65252 0.61668 0.34889 0.0
C2562 C 0.66365 0.58307 0.3369 0.0
C2563 C 0.66236 0.57643 0.35673 0.0
C2564 C 0.6558 0.59005 0.37245 0.0
C2565 C 0.65088 0.60985 0.36857 0.0
C2566 C 0.68538 0.53426 0.38501 0.0
C2567 C 0.67828 0.51607 0.37108 0.0
C2568 C 0.68034 0.55377 0.38025 0.0
C2569 C 0.6682 0.55562 0.36131 0.0
C2570 C 0.66156 0.53745 0.34709 0.0
C2571 C 0.66656 0.51788 0.35195 0.0
H2572 H 0.72973 0.26345 0.00636 0.0
H2573 H 0.66403 0.22813 0.01311 0.0
H2574 H 0.7275 0.30258 0.01008 0.0
H2575 H 0.64195 0.26153 0.01843 0.0
H2576 H 0.70445 0.37088 0.04901 0.0
H2577 H 0.7077 0.33363 0.04666 0.0
H2578 H 0.67907 0.3251 0.98277 0.0
H2579 H 0.67708 0.3627 0.98452 0.0
C2580 C 0.71431 0.26715 0.0091 0.0
C2581 C 0.69695 0.2463 0.00953 0.0
C2582 C 0.71336 0.29244 0.01129 0.0
C2583 C 0.69228 0.30309 0.01465 0.0
C2584 C 0.65844 0.26293 0.01622 0.0
C2585 C 0.67205 0.24366 0.01295 0.0
C2586 C 0.69878 0.36102 0.03448 0.0
C2587 C 0.69009 0.36958 0.01705 0.0
C2588 C 0.70005 0.33957 0.03338 0.0
C2589 C 0.69157 0.32613 0.01532 0.0
C2590 C 0.68395 0.3348 0.99751 0.0
C2591 C 0.68307 0.35634 0.99841 0.0
H2592 H 0.22384 0.8673 0.64245 0.0
H2593 H 0.24437 0.87106 0.70859 0.0
H2594 H 0.2323 0.90503 0.64412 0.0
H2595 H 0.25273 0.90895 0.71033 0.0
H2596 H 0.29308 0.96768 0.69559 0.0
H2597 H 0.27949 0.93193 0.69744 0.0
H2598 H 0.22399 0.93908 0.65689 0.0
H2599 H 0.23788 0.97499 0.65474 0.0
C2600 C 0.22977 0.87624 0.65745 0.0
C2601 C 0.23351 0.86616 0.67538 0.0
C2602 C 0.23458 0.89792 0.65842 0.0
C2603 C 0.24323 0.91004 0.67736 0.0
C2604 C 0.24637 0.90003 0.69543 0.0
C2605 C 0.2416 0.87833 0.69444 0.0
C2606 C 0.27731 0.96236 0.68831 0.0
C2607 C 0.26546 0.97554 0.67725 0.0
C2608 C 0.26966 0.94151 0.68903 0.0
C2609 C 0.25029 0.93276 0.67792 0.0
C2610 C 0.23877 0.94544 0.66606 0.0
C2611 C 0.24649 0.96636 0.66533 0.0
H2612 H 0.31885 0.25981 0.00717 0.0
H2613 H 0.36905 0.25055 0.05359 0.0
H2614 H 0.30253 0.22434 0.00818 0.0
H2615 H 0.35268 0.2149 0.05457 0.0
H2616 H 0.32912 0.14501 0.02774 0.0
H2617 H 0.34572 0.18136 0.03204 0.0
H2618 H 0.28469 0.20268 0.03066 0.0
H2619 H 0.26836 0.16626 0.02605 0.0
C2620 C 0.32626 0.25031 0.01782 0.0
C2621 C 0.34523 0.25806 0.03034 0.0
C2622 C 0.31689 0.22995 0.01842 0.0
C2623 C 0.32624 0.21681 0.03156 0.0
C2624 C 0.34518 0.22456 0.04415 0.0
C2625 C 0.35457 0.24497 0.04356 0.0
C2626 C 0.31943 0.15758 0.0289 0.0
C2627 C 0.29757 0.15307 0.02661 0.0
C2628 C 0.32885 0.17835 0.03132 0.0
C2629 C 0.3165 0.19492 0.03147 0.0
C2630 C 0.29462 0.19028 0.03022 0.0
C2631 C 0.28527 0.16954 0.02777 0.0
H2632 H 0.37015 0.62821 0.60904 0.0
H2633 H 0.30752 0.64469 0.59679 0.0
H2634 H 0.37785 0.63768 0.57528 0.0
H2635 H 0.31556 0.655 0.56306 0.0
H2636 H 0.33372 0.65466 0.49557 0.0
H2637 H 0.32348 0.64332 0.52819 0.0
H2638 H 0.38423 0.66966 0.56018 0.0
H2639 H 0.39413 0.68128 0.52771 0.0
C2640 C 0.35789 0.63363 0.59904 0.0
C2641 C 0.33821 0.63573 0.60573 0.0
C2642 C 0.36244 0.63938 0.57975 0.0
C2643 C 0.34748 0.64749 0.56655 0.0
C2644 C 0.32748 0.64886 0.57283 0.0
C2645 C 0.32292 0.64311 0.59224 0.0
C2646 C 0.34479 0.65796 0.50962 0.0
C2647 C 0.36485 0.66844 0.50906 0.0
C2648 C 0.33896 0.65145 0.52829 0.0
C2649 C 0.35316 0.65506 0.54674 0.0
C2650 C 0.37308 0.66601 0.54617 0.0
C2651 C 0.3788 0.67267 0.52759 0.0
H2652 H 0.01485 0.66403 0.22895 0.0
H2653 H 0.99648 0.72312 0.26768 0.0
H2654 H 0.02356 0.64049 0.26017 0.0
H2655 H 0.99972 0.7178 0.30608 0.0
H2656 H 0.02755 0.71525 0.37322 0.0
H2657 H 0.02615 0.71492 0.33548 0.0
H2658 H 0.99621 0.65107 0.32735 0.0
H2659 H 0.00139 0.65032 0.36434 0.0
C2660 C 0.01287 0.67021 0.24471 0.0
C2661 C 0.00535 0.69349 0.24886 0.0
C2662 C 0.01795 0.65567 0.26268 0.0
C2663 C 0.00988 0.68399 0.30462 0.0
C2664 C 0.00333 0.70511 0.29531 0.0
C2665 C 0.00157 0.70821 0.27043 0.0
C2666 C 0.02154 0.70087 0.36324 0.0
C2667 C 0.01493 0.68269 0.3719 0.0
C2668 C 0.02043 0.70073 0.34154 0.0
C2669 C 0.01202 0.68267 0.32785 0.0
C2670 C 0.00413 0.66497 0.33669 0.0
C2671 C 0.00637 0.66471 0.35831 0.0
H2672 H 0.67995 0.20802 0.87253 0.0
H2673 H 0.6829 0.27407 0.8669 0.0
H2674 H 0.6826 0.21584 0.91059 0.0
H2675 H 0.68556 0.28183 0.90467 0.0
H2676 H 0.70552 0.29299 0.97249 0.0
H2677 H 0.70824 0.28171 0.93639 0.0
H2678 H 0.661 0.2294 0.93693 0.0
H2679 H 0.65876 0.24032 0.97349 0.0
C2680 C 0.68119 0.22419 0.87939 0.0
C2681 C 0.68132 0.24042 0.86664 0.0
C2682 C 0.68271 0.22867 0.90119 0.0
C2683 C 0.68443 0.24947 0.91071 0.0
C2684 C 0.68474 0.26566 0.89793 0.0
C2685 C 0.68322 0.2612 0.87622 0.0
C2686 C 0.69683 0.2782 0.96566 0.0
C2687 C 0.68369 0.26629 0.97715 0.0
C2688 C 0.69789 0.27208 0.94452 0.0
C2689 C 0.68511 0.25441 0.93377 0.0
C2690 C 0.67166 0.24265 0.94489 0.0
C2691 C 0.67064 0.24876 0.96611 0.0
H2692 H 0.03623 0.3138 0.27109 0.0
H2693 H 0.99692 0.35544 0.24308 0.0
H2694 H 0.04021 0.29708 0.23628 0.0
H2695 H 1.00066 0.3387 0.20845 0.0
H2696 H 0.02472 0.31789 0.14843 0.0
H2697 H 0.0259 0.33518 0.1841 0.0
H2698 H 0.0201 0.27477 0.2068 0.0
H2699 H 0.01983 0.25774 0.1711 0.0
C2700 C 0.02833 0.31926 0.2575 0.0
C2701 C 0.01635 0.33599 0.25981 0.0
C2702 C 0.03062 0.30972 0.23757 0.0
C2703 C 0.02091 0.31666 0.21955 0.0
C2704 C 0.00878 0.33328 0.22194 0.0
C2705 C 0.00656 0.34283 0.24181 0.0
C2706 C 0.02429 0.30845 0.16119 0.0
C2707 C 0.02224 0.28657 0.15719 0.0
C2708 C 0.02464 0.31826 0.18155 0.0
C2709 C 0.02282 0.30635 0.1983 0.0
C2710 C 0.02168 0.28443 0.19432 0.0
C2711 C 0.02142 0.27466 0.17395 0.0
loop_
_geom_bond_atom_site_label_1
_geom_bond_atom_site_label_2
_geom_bond_distance
_geom_bond_site_symmetry_2
_ccdc_geom_bond_type
C0 C1 1.264 . S
C0 C5 1.479 . S
C0 C10 1.465 . S
C1 C0 1.264 . S
C1 C3 1.339 . S
C1 H28 0.931 . S
C2 C3 1.395 . S
C2 C4 1.320 . S
C3 C1 1.339 . S
C3 C2 1.395 . S
C3 H29 0.929 . S
C4 C2 1.320 . S
C4 C5 1.405 . S
C4 H30 0.930 . S
C5 C0 1.479 . S
C5 C4 1.405 . S
C5 H31 0.931 . S
U6 O7 2.454 . S
U6 O8 2.458 . S
U6 C9 2.984 . S
U6 C10 2.847 . S
U6 C23 2.882 . S
U6 O24 2.441 . S
U6 O25 2.420 . S
U6 O26 2.455 . S
U6 O27 2.449 . S
O7 U6 2.454 . S
O7 C9 1.353 . S
O8 U6 2.458 . S
O8 C9 1.286 . S
C9 U6 2.984 . S
C9 O7 1.353 . S
C9 O8 1.286 . S
C9 C11 1.363 . S
C10 C0 1.465 . S
C10 U6 2.847 . S
C10 O24 1.249 . S
C10 O25 1.202 . S
C11 C9 1.363 . S
C11 C13 1.408 . S
C11 C16 1.342 . S
C12 C13 1.310 . S
C12 C15 1.461 . S
C12 H32 0.932 . S
C13 C11 1.408 . S
C13 C12 1.310 . S
C13 H33 0.930 . S
C14 C15 1.474 . S
C14 C16 1.285 . S
C14 H34 0.929 . S
C15 C12 1.461 . S
C15 C14 1.474 . S
C16 C11 1.342 . S
C16 C14 1.285 . S
C16 H35 0.930 . S
C17 C20 1.424 . S
C17 C22 1.245 . S
C17 C23 1.428 . S
C18 C21 1.260 . S
C18 C22 1.477 . S
C18 H36 0.932 . S
C19 C20 1.384 . S
C19 C21 1.479 . S
C19 H37 0.929 . S
C20 C17 1.424 . S
C20 C19 1.384 . S
C20 H38 0.928 . S
C21 C18 1.260 . S
C21 C19 1.479 . S
C22 C17 1.245 . S
C22 C18 1.477 . S
C22 H39 0.932 . S
C23 U6 2.882 . S
C23 C17 1.428 . S
C23 O26 1.301 . S
C23 O27 1.282 . S
O24 U6 2.441 . S
O24 C10 1.249 . S
O25 U6 2.420 . S
O25 C10 1.202 . S
O26 U6 2.455 . S
O26 C23 1.301 . S
O27 U6 2.449 . S
O27 C23 1.282 . S
H28 C1 0.931 . S
H29 C3 0.929 . S
H30 C4 0.930 . S
H31 C5 0.931 . S
H32 C12 0.932 . S
H33 C13 0.930 . S
H34 C14 0.929 . S
H35 C16 0.930 . S
H36 C18 0.932 . S
H37 C19 0.929 . S
H38 C20 0.928 . S
H39 C22 0.932 . S
C40 C41 1.264 . S
C40 C45 1.479 . S
C40 C50 1.465 . S
C41 C40 1.264 . S
C41 C43 1.339 . S
C41 H68 0.931 . S
C42 C43 1.395 . S
C42 C44 1.320 . S
C43 C41 1.339 . S
C43 C42 1.395 . S
C43 H69 0.929 . S
C44 C42 1.320 . S
C44 C45 1.405 . S
C44 H70 0.930 . S
C45 C40 1.479 . S
C45 C44 1.405 . S
C45 H71 0.931 . S
U46 O47 2.454 . S
U46 O48 2.458 . S
U46 C49 2.984 . S
U46 C50 2.847 . S
U46 C63 2.882 . S
U46 O64 2.441 . S
U46 O65 2.420 . S
U46 O66 2.455 . S
U46 O67 2.449 . S
O47 U46 2.454 . S
O47 C49 1.353 . S
O48 U46 2.458 . S
O48 C49 1.286 . S
C49 U46 2.984 . S
C49 O47 1.353 . S
C49 O48 1.286 . S
C49 C51 1.363 . S
C50 C40 1.465 . S
C50 U46 2.847 . S
C50 O64 1.249 . S
C50 O65 1.202 . S
C51 C49 1.363 . S
C51 C53 1.408 . S
C51 C56 1.342 . S
C52 C53 1.310 . S
C52 C55 1.461 . S
C52 H72 0.932 . S
C53 C51 1.408 . S
C53 C52 1.310 . S
C53 H73 0.930 . S
C54 C55 1.474 . S
C54 C56 1.285 . S
C54 H74 0.929 . S
C55 C52 1.461 . S
C55 C54 1.474 . S
C56 C51 1.342 . S
C56 C54 1.285 . S
C56 H75 0.930 . S
C57 C60 1.424 . S
C57 C62 1.245 . S
C57 C63 1.428 . S
C58 C61 1.260 . S
C58 C62 1.477 . S
C58 H76 0.932 . S
C59 C60 1.384 . S
C59 C61 1.479 . S
C59 H77 0.929 . S
C60 C57 1.424 . S
C60 C59 1.384 . S
C60 H78 0.928 . S
C61 C58 1.260 . S
C61 C59 1.479 . S
C62 C57 1.245 . S
C62 C58 1.477 . S
C62 H79 0.932 . S
C63 U46 2.882 . S
C63 C57 1.428 . S
C63 O66 1.301 . S
C63 O67 1.282 . S
O64 U46 2.441 . S
O64 C50 1.249 . S
O65 U46 2.420 . S
O65 C50 1.202 . S
O66 U46 2.455 . S
O66 C63 1.301 . S
O67 U46 2.449 . S
O67 C63 1.282 . S
H68 C41 0.931 . S
H69 C43 0.929 . S
H70 C44 0.930 . S
H71 C45 0.931 . S
H72 C52 0.932 . S
H73 C53 0.930 . S
H74 C54 0.929 . S
H75 C56 0.930 . S
H76 C58 0.932 . S
H77 C59 0.929 . S
H78 C60 0.928 . S
H79 C62 0.932 . S
C80 C81 1.264 . S
C80 C85 1.479 . S
C80 C90 1.465 . S
C81 C80 1.264 . S
C81 C83 1.339 . S
C81 H108 0.931 . S
C82 C83 1.395 . S
C82 C84 1.320 . S
C83 C81 1.339 . S
C83 C82 1.395 . S
C83 H109 0.929 . S
C84 C82 1.320 . S
C84 C85 1.405 . S
C84 H110 0.926 1_565 S
C85 C80 1.479 . S
C85 C84 1.405 . S
C85 H111 0.931 . S
U86 O87 2.454 . S
U86 O88 2.458 . S
U86 C89 2.984 . S
U86 C90 2.847 . S
U86 C103 2.882 . S
U86 O104 2.441 . S
U86 O105 2.420 . S
U86 O106 2.455 . S
U86 O107 2.449 . S
O87 U86 2.454 . S
O87 C89 1.353 . S
O88 U86 2.458 . S
O88 C89 1.286 . S
C89 U86 2.984 . S
C89 O87 1.353 . S
C89 O88 1.286 . S
C89 C91 1.363 . S
C90 C80 1.465 . S
C90 U86 2.847 . S
C90 O104 1.249 . S
C90 O105 1.202 . S
C91 C89 1.363 . S
C91 C93 1.408 . S
C91 C96 1.342 . S
C92 C93 1.310 . S
C92 C95 1.461 . S
C92 H112 0.932 . S
C93 C91 1.408 . S
C93 C92 1.310 . S
C93 H113 0.930 . S
C94 C95 1.473 1_545 S
C94 C96 1.284 1_545 S
C94 H114 0.932 . S
C95 C92 1.461 . S
C95 C94 1.473 1_565 S
C96 C91 1.342 . S
C96 C94 1.284 1_565 S
C96 H115 0.936 . S
C97 C100 1.424 . S
C97 C102 1.245 . S
C97 C103 1.428 . S
C98 C101 1.260 . S
C98 C102 1.477 . S
C98 H116 0.932 . S
C99 C100 1.384 . S
C99 C101 1.479 . S
C99 H117 0.929 . S
C100 C97 1.424 . S
C100 C99 1.384 . S
C100 H118 0.928 . S
C101 C98 1.260 . S
C101 C99 1.479 . S
C102 C97 1.245 . S
C102 C98 1.477 . S
C102 H119 0.932 . S
C103 U86 2.882 . S
C103 C97 1.428 . S
C103 O106 1.301 . S
C103 O107 1.282 . S
O104 U86 2.441 . S
O104 C90 1.249 . S
O105 U86 2.420 . S
O105 C90 1.202 . S
O106 U86 2.455 . S
O106 C103 1.301 . S
O107 U86 2.449 . S
O107 C103 1.282 . S
H108 C81 0.931 . S
H109 C83 0.929 . S
H110 C84 0.926 1_545 S
H111 C85 0.931 . S
H112 C92 0.932 . S
H113 C93 0.930 . S
H114 C94 0.932 . S
H115 C96 0.936 . S
H116 C98 0.932 . S
H117 C99 0.929 . S
H118 C100 0.928 . S
H119 C102 0.932 . S
C120 C121 1.264 . S
C120 C125 1.479 . S
C120 C130 1.465 . S
C121 C120 1.264 . S
C121 C123 1.339 . S
C121 H148 0.931 . S
C122 C123 1.395 . S
C122 C124 1.320 . S
C123 C121 1.339 . S
C123 C122 1.395 . S
C123 H149 0.929 . S
C124 C122 1.320 . S
C124 C125 1.405 . S
C124 H150 0.930 . S
C125 C120 1.479 . S
C125 C124 1.405 . S
C125 H151 0.931 . S
U126 O127 2.454 . S
U126 O128 2.458 . S
U126 C129 2.984 . S
U126 C130 2.847 . S
U126 C143 2.882 1_545 S
U126 O144 2.441 . S
U126 O145 2.420 . S
U126 O146 2.455 . S
U126 O147 2.449 . S
O127 U126 2.454 . S
O127 C129 1.353 . S
O128 U126 2.458 . S
O128 C129 1.286 . S
C129 U126 2.984 . S
C129 O127 1.353 . S
C129 O128 1.286 . S
C129 C131 1.363 . S
C130 C120 1.465 . S
C130 U126 2.847 . S
C130 O144 1.249 . S
C130 O145 1.202 . S
C131 C129 1.363 . S
C131 C133 1.408 . S
C131 C136 1.342 . S
C132 C133 1.310 . S
C132 C135 1.461 . S
C132 H152 0.932 . S
C133 C131 1.408 . S
C133 C132 1.310 . S
C133 H153 0.930 . S
C134 C135 1.474 . S
C134 C136 1.285 . S
C134 H154 0.929 . S
C135 C132 1.461 . S
C135 C134 1.474 . S
C136 C131 1.342 . S
C136 C134 1.285 . S
C136 H155 0.930 . S
C137 C140 1.424 . S
C137 C142 1.245 . S
C137 C143 1.428 . S
C138 C141 1.260 . S
C138 C142 1.477 . S
C138 H156 0.932 . S
C139 C140 1.384 . S
C139 C141 1.479 . S
C139 H157 0.929 . S
C140 C137 1.424 . S
C140 C139 1.384 . S
C140 H158 0.928 . S
C141 C138 1.260 . S
C141 C139 1.479 . S
C142 C137 1.245 . S
C142 C138 1.477 . S
C142 H159 0.932 . S
C143 U126 2.882 1_565 S
C143 C137 1.428 . S
C143 O146 1.301 1_565 S
C143 O147 1.282 1_565 S
O144 U126 2.441 . S
O144 C130 1.249 . S
O145 U126 2.420 . S
O145 C130 1.202 . S
O146 U126 2.455 . S
O146 C143 1.301 1_545 S
O147 U126 2.449 . S
O147 C143 1.282 1_545 S
H148 C121 0.931 . S
H149 C123 0.929 . S
H150 C124 0.930 . S
H151 C125 0.931 . S
H152 C132 0.932 . S
H153 C133 0.930 . S
H154 C134 0.929 . S
H155 C136 0.930 . S
H156 C138 0.932 . S
H157 C139 0.929 . S
H158 C140 0.928 . S
H159 C142 0.932 . S
C160 C161 1.264 . S
C160 C165 1.479 . S
C160 C170 1.465 . S
C161 C160 1.264 . S
C161 C163 1.339 . S
C161 H188 0.931 . S
C162 C163 1.395 . S
C162 C164 1.320 . S
C163 C161 1.339 . S
C163 C162 1.395 . S
C163 H189 0.929 . S
C164 C162 1.320 . S
C164 C165 1.405 . S
C164 H190 0.930 . S
C165 C160 1.479 . S
C165 C164 1.405 . S
C165 H191 0.931 . S
U166 O167 2.454 . S
U166 O168 2.458 . S
U166 C169 2.984 . S
U166 C170 2.847 . S
U166 C183 2.882 . S
U166 O184 2.441 . S
U166 O185 2.420 . S
U166 O186 2.455 . S
U166 O187 2.449 . S
O167 U166 2.454 . S
O167 C169 1.353 . S
O168 U166 2.458 . S
O168 C169 1.286 . S
C169 U166 2.984 . S
C169 O167 1.353 . S
C169 O168 1.286 . S
C169 C171 1.363 . S
C170 C160 1.465 . S
C170 U166 2.847 . S
C170 O184 1.249 . S
C170 O185 1.202 . S
C171 C169 1.363 . S
C171 C173 1.408 . S
C171 C176 1.342 . S
C172 C173 1.310 . S
C172 C175 1.461 . S
C172 H192 0.932 . S
C173 C171 1.408 . S
C173 C172 1.310 . S
C173 H193 0.930 . S
C174 C175 1.474 . S
C174 C176 1.285 . S
C174 H194 0.929 . S
C175 C172 1.461 . S
C175 C174 1.474 . S
C176 C171 1.342 . S
C176 C174 1.285 . S
C176 H195 0.930 . S
C177 C180 1.424 . S
C177 C182 1.245 . S
C177 C183 1.428 . S
C178 C181 1.260 . S
C178 C182 1.477 . S
C178 H196 0.932 . S
C179 C180 1.384 . S
C179 C181 1.479 . S
C179 H197 0.929 . S
C180 C177 1.424 . S
C180 C179 1.384 . S
C180 H198 0.928 . S
C181 C178 1.260 . S
C181 C179 1.479 . S
C182 C177 1.245 . S
C182 C178 1.477 . S
C182 H199 0.932 . S
C183 U166 2.882 . S
C183 C177 1.428 . S
C183 O186 1.301 . S
C183 O187 1.282 . S
O184 U166 2.441 . S
O184 C170 1.249 . S
O185 U166 2.420 . S
O185 C170 1.202 . S
O186 U166 2.455 . S
O186 C183 1.301 . S
O187 U166 2.449 . S
O187 C183 1.282 . S
H188 C161 0.931 . S
H189 C163 0.929 . S
H190 C164 0.930 . S
H191 C165 0.931 . S
H192 C172 0.932 . S
H193 C173 0.930 . S
H194 C174 0.929 . S
H195 C176 0.930 . S
H196 C178 0.932 . S
H197 C179 0.929 . S
H198 C180 0.928 . S
H199 C182 0.932 . S
C200 C201 1.264 . S
C200 C205 1.479 . S
C200 C210 1.465 . S
C201 C200 1.264 . S
C201 C203 1.339 . S
C201 H228 0.931 . S
C202 C203 1.395 . S
C202 C204 1.320 . S
C203 C201 1.339 . S
C203 C202 1.395 . S
C203 H229 0.929 . S
C204 C202 1.320 . S
C204 C205 1.405 . S
C204 H230 0.930 . S
C205 C200 1.479 . S
C205 C204 1.405 . S
C205 H231 0.931 . S
U206 O207 2.454 . S
U206 O208 2.458 . S
U206 C209 2.984 . S
U206 C210 2.847 . S
U206 C223 2.882 1_554 S
U206 O224 2.441 . S
U206 O225 2.420 . S
U206 O226 2.455 . S
U206 O227 2.449 . S
O207 U206 2.454 . S
O207 C209 1.353 . S
O208 U206 2.458 . S
O208 C209 1.286 . S
C209 U206 2.984 . S
C209 O207 1.353 . S
C209 O208 1.286 . S
C209 C211 1.363 . S
C210 C200 1.465 . S
C210 U206 2.847 . S
C210 O224 1.249 . S
C210 O225 1.202 . S
C211 C209 1.363 . S
C211 C213 1.408 . S
C211 C216 1.342 . S
C212 C213 1.310 . S
C212 C215 1.461 . S
C212 H232 0.932 . S
C213 C211 1.408 . S
C213 C212 1.310 . S
C213 H233 0.930 . S
C214 C215 1.474 . S
C214 C216 1.285 . S
C214 H234 0.929 . S
C215 C212 1.461 . S
C215 C214 1.474 . S
C216 C211 1.342 . S
C216 C214 1.285 . S
C216 H235 0.930 . S
C217 C220 1.424 . S
C217 C222 1.245 . S
C217 C223 1.428 . S
C218 C221 1.260 . S
C218 C222 1.477 . S
C218 H236 0.932 . S
C219 C220 1.384 . S
C219 C221 1.479 . S
C219 H237 0.929 . S
C220 C217 1.424 . S
C220 C219 1.384 . S
C220 H238 0.928 . S
C221 C218 1.260 . S
C221 C219 1.479 . S
C222 C217 1.245 . S
C222 C218 1.477 . S
C222 H239 0.932 . S
C223 U206 2.882 1_556 S
C223 C217 1.428 . S
C223 O226 1.301 1_556 S
C223 O227 1.282 1_556 S
O224 U206 2.441 . S
O224 C210 1.249 . S
O225 U206 2.420 . S
O225 C210 1.202 . S
O226 U206 2.455 . S
O226 C223 1.301 1_554 S
O227 U206 2.449 . S
O227 C223 1.282 1_554 S
H228 C201 0.931 . S
H229 C203 0.929 . S
H230 C204 0.930 . S
H231 C205 0.931 . S
H232 C212 0.932 . S
H233 C213 0.930 . S
H234 C214 0.929 . S
H235 C216 0.930 . S
H236 C218 0.932 . S
H237 C219 0.929 . S
H238 C220 0.928 . S
H239 C222 0.932 . S
C240 C241 1.264 . S
C240 C245 1.479 . S
C240 C250 1.465 . S
C241 C240 1.264 . S
C241 C243 1.339 . S
C241 H268 0.931 . S
C242 C243 1.395 . S
C242 C244 1.320 . S
C243 C241 1.339 . S
C243 C242 1.395 . S
C243 H269 0.929 . S
C244 C242 1.320 . S
C244 C245 1.405 . S
C244 H270 0.930 . S
C245 C240 1.479 . S
C245 C244 1.405 . S
C245 H271 0.931 . S
U246 O247 2.454 . S
U246 O248 2.458 . S
U246 C249 2.984 . S
U246 C250 2.847 . S
U246 C263 2.882 . S
U246 O264 2.441 . S
U246 O265 2.420 . S
U246 O266 2.455 . S
U246 O267 2.449 . S
O247 U246 2.454 . S
O247 C249 1.353 . S
O248 U246 2.458 . S
O248 C249 1.286 . S
C249 U246 2.984 . S
C249 O247 1.353 . S
C249 O248 1.286 . S
C249 C251 1.363 . S
C250 C240 1.465 . S
C250 U246 2.847 . S
C250 O264 1.249 . S
C250 O265 1.202 . S
C251 C249 1.363 . S
C251 C253 1.408 . S
C251 C256 1.342 . S
C252 C253 1.310 . S
C252 C255 1.461 . S
C252 H272 0.932 . S
C253 C251 1.408 . S
C253 C252 1.310 . S
C253 H273 0.930 . S
C254 C255 1.474 . S
C254 C256 1.285 . S
C254 H274 0.929 . S
C255 C252 1.461 . S
C255 C254 1.474 . S
C256 C251 1.342 . S
C256 C254 1.285 . S
C256 H275 0.930 . S
C257 C260 1.424 . S
C257 C262 1.245 . S
C257 C263 1.428 . S
C258 C261 1.260 . S
C258 C262 1.477 . S
C258 H276 0.932 . S
C259 C260 1.384 . S
C259 C261 1.479 . S
C259 H277 0.929 . S
C260 C257 1.424 . S
C260 C259 1.384 . S
C260 H278 0.928 . S
C261 C258 1.260 . S
C261 C259 1.479 . S
C262 C257 1.245 . S
C262 C258 1.477 . S
C262 H279 0.932 . S
C263 U246 2.882 . S
C263 C257 1.428 . S
C263 O266 1.301 . S
C263 O267 1.282 . S
O264 U246 2.441 . S
O264 C250 1.249 . S
O265 U246 2.420 . S
O265 C250 1.202 . S
O266 U246 2.455 . S
O266 C263 1.301 . S
O267 U246 2.449 . S
O267 C263 1.282 . S
H268 C241 0.931 . S
H269 C243 0.929 . S
H270 C244 0.930 . S
H271 C245 0.931 . S
H272 C252 0.932 . S
H273 C253 0.930 . S
H274 C254 0.929 . S
H275 C256 0.930 . S
H276 C258 0.932 . S
H277 C259 0.929 . S
H278 C260 0.928 . S
H279 C262 0.932 . S
C280 C281 1.264 . S
C280 C285 1.479 . S
C280 C290 1.465 . S
C281 C280 1.264 . S
C281 C283 1.339 . S
C281 H308 0.931 . S
C282 C283 1.395 . S
C282 C284 1.320 . S
C283 C281 1.339 . S
C283 C282 1.395 . S
C283 H309 0.929 . S
C284 C282 1.320 . S
C284 C285 1.405 . S
C284 H310 0.926 1_556 S
C285 C280 1.479 . S
C285 C284 1.405 . S
C285 H311 0.931 . S
U286 O287 2.454 . S
U286 O288 2.458 . S
U286 C289 2.984 . S
U286 C290 2.847 . S
U286 C303 2.882 . S
U286 O304 2.441 . S
U286 O305 2.420 . S
U286 O306 2.455 . S
U286 O307 2.449 . S
O287 U286 2.454 . S
O287 C289 1.353 . S
O288 U286 2.458 . S
O288 C289 1.286 . S
C289 U286 2.984 . S
C289 O287 1.353 . S
C289 O288 1.286 . S
C289 C291 1.363 . S
C290 C280 1.465 . S
C290 U286 2.847 . S
C290 O304 1.249 . S
C290 O305 1.202 . S
C291 C289 1.363 . S
C291 C293 1.408 . S
C291 C296 1.342 . S
C292 C293 1.310 . S
C292 C295 1.461 . S
C292 H312 0.932 . S
C293 C291 1.408 . S
C293 C292 1.310 . S
C293 H313 0.930 . S
C294 C295 1.473 1_554 S
C294 C296 1.284 1_554 S
C294 H314 0.932 . S
C295 C292 1.461 . S
C295 C294 1.473 1_556 S
C296 C291 1.342 . S
C296 C294 1.284 1_556 S
C296 H315 0.936 . S
C297 C300 1.424 . S
C297 C302 1.245 . S
C297 C303 1.428 . S
C298 C301 1.260 . S
C298 C302 1.477 . S
C298 H316 0.932 . S
C299 C300 1.384 . S
C299 C301 1.479 . S
C299 H317 0.929 . S
C300 C297 1.424 . S
C300 C299 1.384 . S
C300 H318 0.928 . S
C301 C298 1.260 . S
C301 C299 1.479 . S
C302 C297 1.245 . S
C302 C298 1.477 . S
C302 H319 0.932 . S
C303 U286 2.882 . S
C303 C297 1.428 . S
C303 O306 1.301 . S
C303 O307 1.282 . S
O304 U286 2.441 . S
O304 C290 1.249 . S
O305 U286 2.420 . S
O305 C290 1.202 . S
O306 U286 2.455 . S
O306 C303 1.301 . S
O307 U286 2.449 . S
O307 C303 1.282 . S
H308 C281 0.931 . S
H309 C283 0.929 . S
H310 C284 0.926 1_554 S
H311 C285 0.931 . S
H312 C292 0.932 . S
H313 C293 0.930 . S
H314 C294 0.932 . S
H315 C296 0.936 . S
H316 C298 0.932 . S
H317 C299 0.929 . S
H318 C300 0.928 . S
H319 C302 0.932 . S
C320 C321 1.264 . S
C320 C325 1.479 . S
C320 C330 1.465 . S
C321 C320 1.264 . S
C321 C323 1.339 . S
C321 H348 0.931 . S
C322 C323 1.395 . S
C322 C324 1.320 . S
C323 C321 1.339 . S
C323 C322 1.395 . S
C323 H349 0.929 . S
C324 C322 1.320 . S
C324 C325 1.405 . S
C324 H350 0.930 . S
C325 C320 1.479 . S
C325 C324 1.405 . S
C325 H351 0.931 . S
U326 O327 2.454 . S
U326 O328 2.458 . S
U326 C329 2.984 . S
U326 C330 2.847 . S
U326 C343 2.882 . S
U326 O344 2.441 . S
U326 O345 2.420 . S
U326 O346 2.455 . S
U326 O347 2.449 . S
O327 U326 2.454 . S
O327 C329 1.353 . S
O328 U326 2.458 . S
O328 C329 1.286 . S
C329 U326 2.984 . S
C329 O327 1.353 . S
C329 O328 1.286 . S
C329 C331 1.363 . S
C330 C320 1.465 . S
C330 U326 2.847 . S
C330 O344 1.249 . S
C330 O345 1.202 . S
C331 C329 1.363 . S
C331 C333 1.408 . S
C331 C336 1.342 . S
C332 C333 1.310 . S
C332 C335 1.461 . S
C332 H352 0.932 . S
C333 C331 1.408 . S
C333 C332 1.310 . S
C333 H353 0.930 . S
C334 C335 1.474 . S
C334 C336 1.285 . S
C334 H354 0.929 . S
C335 C332 1.461 . S
C335 C334 1.474 . S
C336 C331 1.342 . S
C336 C334 1.285 . S
C336 H355 0.930 . S
C337 C340 1.424 . S
C337 C342 1.245 . S
C337 C343 1.428 . S
C338 C341 1.260 . S
C338 C342 1.477 . S
C338 H356 0.932 . S
C339 C340 1.384 . S
C339 C341 1.479 . S
C339 H357 0.929 . S
C340 C337 1.424 . S
C340 C339 1.384 . S
C340 H358 0.928 . S
C341 C338 1.260 . S
C341 C339 1.479 . S
C342 C337 1.245 . S
C342 C338 1.477 . S
C342 H359 0.932 . S
C343 U326 2.882 . S
C343 C337 1.428 . S
C343 O346 1.301 . S
C343 O347 1.282 . S
O344 U326 2.441 . S
O344 C330 1.249 . S
O345 U326 2.420 . S
O345 C330 1.202 . S
O346 U326 2.455 . S
O346 C343 1.301 . S
O347 U326 2.449 . S
O347 C343 1.282 . S
H348 C321 0.931 . S
H349 C323 0.929 . S
H350 C324 0.930 . S
H351 C325 0.931 . S
H352 C332 0.932 . S
H353 C333 0.930 . S
H354 C334 0.929 . S
H355 C336 0.930 . S
H356 C338 0.932 . S
H357 C339 0.929 . S
H358 C340 0.928 . S
H359 C342 0.932 . S
C360 C361 1.264 . S
C360 C365 1.479 . S
C360 C370 1.465 . S
C361 C360 1.264 . S
C361 C363 1.339 . S
C361 H388 0.931 . S
C362 C363 1.395 . S
C362 C364 1.320 . S
C363 C361 1.339 . S
C363 C362 1.395 . S
C363 H389 0.929 . S
C364 C362 1.320 . S
C364 C365 1.405 . S
C364 H390 0.930 . S
C365 C360 1.479 . S
C365 C364 1.405 . S
C365 H391 0.931 . S
U366 O367 2.454 . S
U366 O368 2.458 . S
U366 C369 2.984 . S
U366 C370 2.847 . S
U366 C383 2.882 1_455 S
U366 O384 2.441 . S
U366 O385 2.420 . S
U366 O386 2.455 . S
U366 O387 2.449 . S
O367 U366 2.454 . S
O367 C369 1.353 . S
O368 U366 2.458 . S
O368 C369 1.286 . S
C369 U366 2.984 . S
C369 O367 1.353 . S
C369 O368 1.286 . S
C369 C371 1.363 . S
C370 C360 1.465 . S
C370 U366 2.847 . S
C370 O384 1.249 . S
C370 O385 1.202 . S
C371 C369 1.363 . S
C371 C373 1.408 . S
C371 C376 1.342 . S
C372 C373 1.310 . S
C372 C375 1.461 . S
C372 H392 0.932 . S
C373 C371 1.408 . S
C373 C372 1.310 . S
C373 H393 0.930 . S
C374 C375 1.474 . S
C374 C376 1.285 . S
C374 H394 0.929 . S
C375 C372 1.461 . S
C375 C374 1.474 . S
C376 C371 1.342 . S
C376 C374 1.285 . S
C376 H395 0.930 . S
C377 C380 1.424 . S
C377 C382 1.245 . S
C377 C383 1.428 . S
C378 C381 1.260 . S
C378 C382 1.477 . S
C378 H396 0.932 . S
C379 C380 1.384 . S
C379 C381 1.479 . S
C379 H397 0.929 . S
C380 C377 1.424 . S
C380 C379 1.384 . S
C380 H398 0.928 . S
C381 C378 1.260 . S
C381 C379 1.479 . S
C382 C377 1.245 . S
C382 C378 1.477 . S
C382 H399 0.932 . S
C383 U366 2.882 1_655 S
C383 C377 1.428 . S
C383 O386 1.301 1_655 S
C383 O387 1.282 1_655 S
O384 U366 2.441 . S
O384 C370 1.249 . S
O385 U366 2.420 . S
O385 C370 1.202 . S
O386 U366 2.455 . S
O386 C383 1.301 1_455 S
O387 U366 2.449 . S
O387 C383 1.282 1_455 S
H388 C361 0.931 . S
H389 C363 0.929 . S
H390 C364 0.930 . S
H391 C365 0.931 . S
H392 C372 0.932 . S
H393 C373 0.930 . S
H394 C374 0.929 . S
H395 C376 0.930 . S
H396 C378 0.932 . S
H397 C379 0.929 . S
H398 C380 0.928 . S
H399 C382 0.932 . S
C400 C401 1.264 . S
C400 C405 1.479 . S
C400 C410 1.465 . S
C401 C400 1.264 . S
C401 C403 1.339 . S
C401 H428 0.931 . S
C402 C403 1.395 . S
C402 C404 1.320 . S
C403 C401 1.339 . S
C403 C402 1.395 . S
C403 H429 0.929 . S
C404 C402 1.320 . S
C404 C405 1.405 . S
C404 H430 0.930 . S
C405 C400 1.479 . S
C405 C404 1.405 . S
C405 H431 0.931 . S
U406 O407 2.454 . S
U406 O408 2.458 . S
U406 C409 2.984 . S
U406 C410 2.847 . S
U406 C423 2.882 . S
U406 O424 2.441 . S
U406 O425 2.420 . S
U406 O426 2.455 . S
U406 O427 2.449 . S
O407 U406 2.454 . S
O407 C409 1.353 . S
O408 U406 2.458 . S
O408 C409 1.286 . S
C409 U406 2.984 . S
C409 O407 1.353 . S
C409 O408 1.286 . S
C409 C411 1.363 . S
C410 C400 1.465 . S
C410 U406 2.847 . S
C410 O424 1.249 . S
C410 O425 1.202 . S
C411 C409 1.363 . S
C411 C413 1.408 . S
C411 C416 1.342 . S
C412 C413 1.310 . S
C412 C415 1.461 . S
C412 H432 0.932 . S
C413 C411 1.408 . S
C413 C412 1.310 . S
C413 H433 0.930 . S
C414 C415 1.474 . S
C414 C416 1.285 . S
C414 H434 0.929 . S
C415 C412 1.461 . S
C415 C414 1.474 . S
C416 C411 1.342 . S
C416 C414 1.285 . S
C416 H435 0.930 . S
C417 C420 1.424 . S
C417 C422 1.245 . S
C417 C423 1.428 . S
C418 C421 1.260 . S
C418 C422 1.477 . S
C418 H436 0.932 . S
C419 C420 1.384 . S
C419 C421 1.479 . S
C419 H437 0.929 . S
C420 C417 1.424 . S
C420 C419 1.384 . S
C420 H438 0.928 . S
C421 C418 1.260 . S
C421 C419 1.479 . S
C422 C417 1.245 . S
C422 C418 1.477 . S
C422 H439 0.932 . S
C423 U406 2.882 . S
C423 C417 1.428 . S
C423 O426 1.301 . S
C423 O427 1.282 . S
O424 U406 2.441 . S
O424 C410 1.249 . S
O425 U406 2.420 . S
O425 C410 1.202 . S
O426 U406 2.455 . S
O426 C423 1.301 . S
O427 U406 2.449 . S
O427 C423 1.282 . S
H428 C401 0.931 . S
H429 C403 0.929 . S
H430 C404 0.930 . S
H431 C405 0.931 . S
H432 C412 0.932 . S
H433 C413 0.930 . S
H434 C414 0.929 . S
H435 C416 0.930 . S
H436 C418 0.932 . S
H437 C419 0.929 . S
H438 C420 0.928 . S
H439 C422 0.932 . S
C440 C441 1.264 . S
C440 C445 1.479 . S
C440 C450 1.465 . S
C441 C440 1.264 . S
C441 C443 1.339 . S
C441 H468 0.931 . S
C442 C443 1.395 . S
C442 C444 1.320 . S
C443 C441 1.339 . S
C443 C442 1.395 . S
C443 H469 0.929 . S
C444 C442 1.320 . S
C444 C445 1.405 . S
C444 H470 0.926 1_655 S
C445 C440 1.479 . S
C445 C444 1.405 . S
C445 H471 0.931 . S
U446 O447 2.454 . S
U446 O448 2.458 . S
U446 C449 2.984 . S
U446 C450 2.847 . S
U446 C463 2.882 . S
U446 O464 2.441 . S
U446 O465 2.420 . S
U446 O466 2.455 . S
U446 O467 2.449 . S
O447 U446 2.454 . S
O447 C449 1.353 . S
O448 U446 2.458 . S
O448 C449 1.286 . S
C449 U446 2.984 . S
C449 O447 1.353 . S
C449 O448 1.286 . S
C449 C451 1.363 . S
C450 C440 1.465 . S
C450 U446 2.847 . S
C450 O464 1.249 . S
C450 O465 1.202 . S
C451 C449 1.363 . S
C451 C453 1.408 . S
C451 C456 1.342 . S
C452 C453 1.310 . S
C452 C455 1.461 . S
C452 H472 0.932 . S
C453 C451 1.408 . S
C453 C452 1.310 . S
C453 H473 0.930 . S
C454 C455 1.473 1_455 S
C454 C456 1.284 1_455 S
C454 H474 0.932 . S
C455 C452 1.461 . S
C455 C454 1.473 1_655 S
C456 C451 1.342 . S
C456 C454 1.284 1_655 S
C456 H475 0.936 . S
C457 C460 1.424 . S
C457 C462 1.245 . S
C457 C463 1.428 . S
C458 C461 1.260 . S
C458 C462 1.477 . S
C458 H476 0.932 . S
C459 C460 1.384 . S
C459 C461 1.479 . S
C459 H477 0.929 . S
C460 C457 1.424 . S
C460 C459 1.384 . S
C460 H478 0.928 . S
C461 C458 1.260 . S
C461 C459 1.479 . S
C462 C457 1.245 . S
C462 C458 1.477 . S
C462 H479 0.932 . S
C463 U446 2.882 . S
C463 C457 1.428 . S
C463 O466 1.301 . S
C463 O467 1.282 . S
O464 U446 2.441 . S
O464 C450 1.249 . S
O465 U446 2.420 . S
O465 C450 1.202 . S
O466 U446 2.455 . S
O466 C463 1.301 . S
O467 U446 2.449 . S
O467 C463 1.282 . S
H468 C441 0.931 . S
H469 C443 0.929 . S
H470 C444 0.926 1_455 S
H471 C445 0.931 . S
H472 C452 0.932 . S
H473 C453 0.930 . S
H474 C454 0.932 . S
H475 C456 0.936 . S
H476 C458 0.932 . S
H477 C459 0.929 . S
H478 C460 0.928 . S
H479 C462 0.932 . S
C480 C481 1.264 . S
C480 C485 1.479 . S
C480 C490 1.465 . S
C481 C480 1.264 . S
C481 C483 1.339 . S
C481 H508 0.931 . S
C482 C483 1.395 . S
C482 C484 1.320 . S
C483 C481 1.339 . S
C483 C482 1.395 . S
C483 H509 0.929 . S
C484 C482 1.320 . S
C484 C485 1.405 . S
C484 H510 0.930 . S
C485 C480 1.479 . S
C485 C484 1.405 . S
C485 H511 0.931 . S
U486 O487 2.454 . S
U486 O488 2.458 . S
U486 C489 2.984 . S
U486 C490 2.847 . S
U486 C503 2.882 . S
U486 O504 2.441 . S
U486 O505 2.420 . S
U486 O506 2.455 . S
U486 O507 2.449 . S
O487 U486 2.454 . S
O487 C489 1.353 . S
O488 U486 2.458 . S
O488 C489 1.286 . S
C489 U486 2.984 . S
C489 O487 1.353 . S
C489 O488 1.286 . S
C489 C491 1.363 . S
C490 C480 1.465 . S
C490 U486 2.847 . S
C490 O504 1.249 . S
C490 O505 1.202 . S
C491 C489 1.363 . S
C491 C493 1.408 . S
C491 C496 1.342 . S
C492 C493 1.310 . S
C492 C495 1.461 . S
C492 H512 0.932 . S
C493 C491 1.408 . S
C493 C492 1.310 . S
C493 H513 0.930 . S
C494 C495 1.474 . S
C494 C496 1.285 . S
C494 H514 0.929 . S
C495 C492 1.461 . S
C495 C494 1.474 . S
C496 C491 1.342 . S
C496 C494 1.285 . S
C496 H515 0.930 . S
C497 C500 1.424 . S
C497 C502 1.245 . S
C497 C503 1.428 . S
C498 C501 1.260 . S
C498 C502 1.477 . S
C498 H516 0.932 . S
C499 C500 1.384 . S
C499 C501 1.479 . S
C499 H517 0.929 . S
C500 C497 1.424 . S
C500 C499 1.384 . S
C500 H518 0.928 . S
C501 C498 1.260 . S
C501 C499 1.479 . S
C502 C497 1.245 . S
C502 C498 1.477 . S
C502 H519 0.932 . S
C503 U486 2.882 . S
C503 C497 1.428 . S
C503 O506 1.301 . S
C503 O507 1.282 . S
O504 U486 2.441 . S
O504 C490 1.249 . S
O505 U486 2.420 . S
O505 C490 1.202 . S
O506 U486 2.455 . S
O506 C503 1.301 . S
O507 U486 2.449 . S
O507 C503 1.282 . S
H508 C481 0.931 . S
H509 C483 0.929 . S
H510 C484 0.930 . S
H511 C485 0.931 . S
H512 C492 0.932 . S
H513 C493 0.930 . S
H514 C494 0.929 . S
H515 C496 0.930 . S
H516 C498 0.932 . S
H517 C499 0.929 . S
H518 C500 0.928 . S
H519 C502 0.932 . S
C520 C521 1.264 . S
C520 C525 1.479 . S
C520 C530 1.465 . S
C521 C520 1.264 . S
C521 C523 1.339 . S
C521 H548 0.931 . S
C522 C523 1.395 . S
C522 C524 1.320 . S
C523 C521 1.339 . S
C523 C522 1.395 . S
C523 H549 0.929 . S
C524 C522 1.320 . S
C524 C525 1.405 . S
C524 H550 0.930 . S
C525 C520 1.479 . S
C525 C524 1.405 . S
C525 H551 0.931 . S
U526 O527 2.454 . S
U526 O528 2.458 . S
U526 C529 2.984 . S
U526 C530 2.847 . S
U526 C543 2.882 . S
U526 O544 2.441 . S
U526 O545 2.420 . S
U526 O546 2.455 . S
U526 O547 2.449 . S
O527 U526 2.454 . S
O527 C529 1.353 . S
O528 U526 2.458 . S
O528 C529 1.286 . S
C529 U526 2.984 . S
C529 O527 1.353 . S
C529 O528 1.286 . S
C529 C531 1.363 . S
C530 C520 1.465 . S
C530 U526 2.847 . S
C530 O544 1.249 . S
C530 O545 1.202 . S
C531 C529 1.363 . S
C531 C533 1.408 . S
C531 C536 1.342 . S
C532 C533 1.310 . S
C532 C535 1.461 . S
C532 H552 0.932 . S
C533 C531 1.408 . S
C533 C532 1.310 . S
C533 H553 0.930 . S
C534 C535 1.474 . S
C534 C536 1.285 . S
C534 H554 0.929 . S
C535 C532 1.461 . S
C535 C534 1.474 . S
C536 C531 1.342 . S
C536 C534 1.285 . S
C536 H555 0.930 . S
C537 C540 1.424 . S
C537 C542 1.245 . S
C537 C543 1.428 . S
C538 C541 1.260 . S
C538 C542 1.477 . S
C538 H556 0.932 . S
C539 C540 1.384 . S
C539 C541 1.479 . S
C539 H557 0.929 . S
C540 C537 1.424 . S
C540 C539 1.384 . S
C540 H558 0.928 . S
C541 C538 1.260 . S
C541 C539 1.479 . S
C542 C537 1.245 . S
C542 C538 1.477 . S
C542 H559 0.932 . S
C543 U526 2.882 . S
C543 C537 1.428 . S
C543 O546 1.301 . S
C543 O547 1.282 . S
O544 U526 2.441 . S
O544 C530 1.249 . S
O545 U526 2.420 . S
O545 C530 1.202 . S
O546 U526 2.455 . S
O546 C543 1.301 . S
O547 U526 2.449 . S
O547 C543 1.282 . S
H548 C521 0.931 . S
H549 C523 0.929 . S
H550 C524 0.930 . S
H551 C525 0.931 . S
H552 C532 0.932 . S
H553 C533 0.930 . S
H554 C534 0.929 . S
H555 C536 0.930 . S
H556 C538 0.932 . S
H557 C539 0.929 . S
H558 C540 0.928 . S
H559 C542 0.932 . S
C560 C561 1.264 . S
C560 C565 1.479 . S
C560 C570 1.465 . S
C561 C560 1.264 . S
C561 C563 1.339 . S
C561 H588 0.931 . S
C562 C563 1.395 . S
C562 C564 1.320 . S
C563 C561 1.339 . S
C563 C562 1.395 . S
C563 H589 0.929 . S
C564 C562 1.320 . S
C564 C565 1.405 . S
C564 H590 0.919 1_565 S
C565 C560 1.479 . S
C565 C564 1.405 . S
C565 H591 0.931 . S
U566 O567 2.454 . S
U566 O568 2.458 . S
U566 C569 2.984 . S
U566 C570 2.847 . S
U566 C583 2.882 . S
U566 O584 2.441 . S
U566 O585 2.420 . S
U566 O586 2.455 . S
U566 O587 2.449 . S
O567 U566 2.454 . S
O567 C569 1.353 . S
O568 U566 2.458 . S
O568 C569 1.286 . S
C569 U566 2.984 . S
C569 O567 1.353 . S
C569 O568 1.286 . S
C569 C571 1.363 . S
C570 C560 1.465 . S
C570 U566 2.847 . S
C570 O584 1.249 . S
C570 O585 1.202 . S
C571 C569 1.363 . S
C571 C573 1.408 . S
C571 C576 1.342 . S
C572 C573 1.310 . S
C572 C575 1.459 . S
C572 H592 0.932 . S
C573 C571 1.408 . S
C573 C572 1.310 . S
C573 H593 0.930 . S
C574 C575 1.475 1_545 S
C574 C576 1.285 1_545 S
C574 H594 0.930 . S
C575 C572 1.459 . S
C575 C574 1.475 1_565 S
C576 C571 1.342 . S
C576 C574 1.285 1_565 S
C576 H595 0.929 . S
C577 C580 1.424 . S
C577 C582 1.245 . S
C577 C583 1.428 . S
C578 C581 1.260 . S
C578 C582 1.477 . S
C578 H596 0.932 . S
C579 C580 1.384 . S
C579 C581 1.479 . S
C579 H597 0.929 . S
C580 C577 1.424 . S
C580 C579 1.384 . S
C580 H598 0.928 . S
C581 C578 1.260 . S
C581 C579 1.479 . S
C582 C577 1.245 . S
C582 C578 1.477 . S
C582 H599 0.932 . S
C583 U566 2.882 . S
C583 C577 1.428 . S
C583 O586 1.301 . S
C583 O587 1.282 . S
O584 U566 2.441 . S
O584 C570 1.249 . S
O585 U566 2.420 . S
O585 C570 1.202 . S
O586 U566 2.455 . S
O586 C583 1.301 . S
O587 U566 2.449 . S
O587 C583 1.282 . S
H588 C561 0.931 . S
H589 C563 0.929 . S
H590 C564 0.919 1_545 S
H591 C565 0.931 . S
H592 C572 0.932 . S
H593 C573 0.930 . S
H594 C574 0.930 . S
H595 C576 0.929 . S
H596 C578 0.932 . S
H597 C579 0.929 . S
H598 C580 0.928 . S
H599 C582 0.932 . S
C600 C601 1.262 1_565 S
C600 C605 1.479 . S
C600 C610 1.465 1_565 S
C601 C600 1.262 1_545 S
C601 C603 1.326 1_545 S
C601 H628 0.947 . S
C602 C603 1.395 . S
C602 C604 1.320 . S
C603 C601 1.326 1_565 S
C603 C602 1.395 . S
C603 H629 0.929 . S
C604 C602 1.320 . S
C604 C605 1.405 . S
C604 H630 0.930 . S
C605 C600 1.479 . S
C605 C604 1.405 . S
C605 H631 0.931 . S
U606 O607 2.454 1_545 S
U606 O608 2.458 . S
U606 C609 2.984 1_545 S
U606 C610 2.847 . S
U606 C623 2.882 . S
U606 O624 2.441 1_545 S
U606 O625 2.420 . S
U606 O626 2.455 . S
U606 O627 2.449 . S
O607 U606 2.454 1_565 S
O607 C609 1.353 . S
O608 U606 2.458 . S
O608 C609 1.286 1_545 S
C609 U606 2.984 1_565 S
C609 O607 1.353 . S
C609 O608 1.286 1_565 S
C609 C611 1.363 . S
C610 C600 1.465 1_545 S
C610 U606 2.847 . S
C610 O624 1.249 1_545 S
C610 O625 1.202 . S
C611 C609 1.363 . S
C611 C613 1.408 . S
C611 C616 1.342 . S
C612 C613 1.310 . S
C612 C615 1.461 . S
C612 H632 0.932 . S
C613 C611 1.408 . S
C613 C612 1.310 . S
C613 H633 0.930 . S
C614 C615 1.474 . S
C614 C616 1.285 . S
C614 H634 0.929 . S
C615 C612 1.461 . S
C615 C614 1.474 . S
C616 C611 1.342 . S
C616 C614 1.285 . S
C616 H635 0.930 . S
C617 C620 1.424 . S
C617 C622 1.245 . S
C617 C623 1.428 . S
C618 C621 1.260 . S
C618 C622 1.477 . S
C618 H636 0.932 . S
C619 C620 1.384 . S
C619 C621 1.479 . S
C619 H637 0.929 . S
C620 C617 1.424 . S
C620 C619 1.384 . S
C620 H638 0.928 . S
C621 C618 1.260 . S
C621 C619 1.479 . S
C622 C617 1.245 . S
C622 C618 1.477 . S
C622 H639 0.932 . S
C623 U606 2.882 . S
C623 C617 1.428 . S
C623 O626 1.301 . S
C623 O627 1.282 . S
O624 U606 2.441 1_565 S
O624 C610 1.249 1_565 S
O625 U606 2.420 . S
O625 C610 1.202 . S
O626 U606 2.455 . S
O626 C623 1.301 . S
O627 U606 2.449 . S
O627 C623 1.282 . S
H628 C601 0.947 . S
H629 C603 0.929 . S
H630 C604 0.930 . S
H631 C605 0.931 . S
H632 C612 0.932 . S
H633 C613 0.930 . S
H634 C614 0.929 . S
H635 C616 0.930 . S
H636 C618 0.932 . S
H637 C619 0.929 . S
H638 C620 0.928 . S
H639 C622 0.932 . S
C640 C641 1.264 . S
C640 C645 1.479 . S
C640 C650 1.465 . S
C641 C640 1.264 . S
C641 C643 1.339 . S
C641 H668 0.931 . S
C642 C643 1.395 . S
C642 C644 1.320 . S
C643 C641 1.339 . S
C643 C642 1.395 . S
C643 H669 0.929 . S
C644 C642 1.320 . S
C644 C645 1.405 . S
C644 H670 0.930 . S
C645 C640 1.479 . S
C645 C644 1.405 . S
C645 H671 0.931 . S
U646 O647 2.454 . S
U646 O648 2.458 . S
U646 C649 2.984 . S
U646 C650 2.847 . S
U646 C663 2.882 . S
U646 O664 2.441 . S
U646 O665 2.420 . S
U646 O666 2.455 . S
U646 O667 2.449 . S
O647 U646 2.454 . S
O647 C649 1.353 . S
O648 U646 2.458 . S
O648 C649 1.286 . S
C649 U646 2.984 . S
C649 O647 1.353 . S
C649 O648 1.286 . S
C649 C651 1.363 . S
C650 C640 1.465 . S
C650 U646 2.847 . S
C650 O664 1.249 . S
C650 O665 1.202 . S
C651 C649 1.363 . S
C651 C653 1.408 . S
C651 C656 1.342 . S
C652 C653 1.310 . S
C652 C655 1.461 . S
C652 H672 0.932 . S
C653 C651 1.408 . S
C653 C652 1.310 . S
C653 H673 0.930 . S
C654 C655 1.474 . S
C654 C656 1.285 . S
C654 H674 0.929 . S
C655 C652 1.461 . S
C655 C654 1.474 . S
C656 C651 1.342 . S
C656 C654 1.285 . S
C656 H675 0.930 . S
C657 C660 1.424 . S
C657 C662 1.245 . S
C657 C663 1.428 . S
C658 C661 1.260 . S
C658 C662 1.477 . S
C658 H676 0.932 . S
C659 C660 1.384 . S
C659 C661 1.479 . S
C659 H677 0.929 . S
C660 C657 1.424 . S
C660 C659 1.384 . S
C660 H678 0.928 . S
C661 C658 1.260 . S
C661 C659 1.479 . S
C662 C657 1.245 . S
C662 C658 1.477 . S
C662 H679 0.932 . S
C663 U646 2.882 . S
C663 C657 1.428 . S
C663 O666 1.301 . S
C663 O667 1.282 . S
O664 U646 2.441 . S
O664 C650 1.249 . S
O665 U646 2.420 . S
O665 C650 1.202 . S
O666 U646 2.455 . S
O666 C663 1.301 . S
O667 U646 2.449 . S
O667 C663 1.282 . S
H668 C641 0.931 . S
H669 C643 0.929 . S
H670 C644 0.930 . S
H671 C645 0.931 . S
H672 C652 0.932 . S
H673 C653 0.930 . S
H674 C654 0.929 . S
H675 C656 0.930 . S
H676 C658 0.932 . S
H677 C659 0.929 . S
H678 C660 0.928 . S
H679 C662 0.932 . S
C680 C681 1.262 1_556 S
C680 C685 1.479 . S
C680 C690 1.465 1_556 S
C681 C680 1.262 1_554 S
C681 C683 1.326 1_554 S
C681 H708 0.947 . S
C682 C683 1.395 . S
C682 C684 1.320 . S
C683 C681 1.326 1_556 S
C683 C682 1.395 . S
C683 H709 0.929 . S
C684 C682 1.320 . S
C684 C685 1.405 . S
C684 H710 0.930 . S
C685 C680 1.479 . S
C685 C684 1.405 . S
C685 H711 0.931 . S
U686 O687 2.454 1_554 S
U686 O688 2.458 . S
U686 C689 2.984 1_554 S
U686 C690 2.847 . S
U686 C703 2.882 . S
U686 O704 2.441 1_554 S
U686 O705 2.420 . S
U686 O706 2.455 . S
U686 O707 2.449 . S
O687 U686 2.454 1_556 S
O687 C689 1.353 . S
O688 U686 2.458 . S
O688 C689 1.286 1_554 S
C689 U686 2.984 1_556 S
C689 O687 1.353 . S
C689 O688 1.286 1_556 S
C689 C691 1.363 . S
C690 C680 1.465 1_554 S
C690 U686 2.847 . S
C690 O704 1.249 1_554 S
C690 O705 1.202 . S
C691 C689 1.363 . S
C691 C693 1.408 . S
C691 C696 1.342 . S
C692 C693 1.310 . S
C692 C695 1.461 . S
C692 H712 0.932 . S
C693 C691 1.408 . S
C693 C692 1.310 . S
C693 H713 0.930 . S
C694 C695 1.474 . S
C694 C696 1.285 . S
C694 H714 0.929 . S
C695 C692 1.461 . S
C695 C694 1.474 . S
C696 C691 1.342 . S
C696 C694 1.285 . S
C696 H715 0.930 . S
C697 C700 1.424 . S
C697 C702 1.245 . S
C697 C703 1.428 . S
C698 C701 1.260 . S
C698 C702 1.477 . S
C698 H716 0.932 . S
C699 C700 1.384 . S
C699 C701 1.479 . S
C699 H717 0.929 . S
C700 C697 1.424 . S
C700 C699 1.384 . S
C700 H718 0.928 . S
C701 C698 1.260 . S
C701 C699 1.479 . S
C702 C697 1.245 . S
C702 C698 1.477 . S
C702 H719 0.932 . S
C703 U686 2.882 . S
C703 C697 1.428 . S
C703 O706 1.301 . S
C703 O707 1.282 . S
O704 U686 2.441 1_556 S
O704 C690 1.249 1_556 S
O705 U686 2.420 . S
O705 C690 1.202 . S
O706 U686 2.455 . S
O706 C703 1.301 . S
O707 U686 2.449 . S
O707 C703 1.282 . S
H708 C681 0.947 . S
H709 C683 0.929 . S
H710 C684 0.930 . S
H711 C685 0.931 . S
H712 C692 0.932 . S
H713 C693 0.930 . S
H714 C694 0.929 . S
H715 C696 0.930 . S
H716 C698 0.932 . S
H717 C699 0.929 . S
H718 C700 0.928 . S
H719 C702 0.932 . S
C720 C721 1.264 . S
C720 C725 1.479 . S
C720 C730 1.465 . S
C721 C720 1.264 . S
C721 C723 1.339 . S
C721 H748 0.931 . S
C722 C723 1.395 . S
C722 C724 1.320 . S
C723 C721 1.339 . S
C723 C722 1.395 . S
C723 H749 0.929 . S
C724 C722 1.320 . S
C724 C725 1.405 . S
C724 H750 0.930 . S
C725 C720 1.479 . S
C725 C724 1.405 . S
C725 H751 0.931 . S
U726 O727 2.454 . S
U726 O728 2.458 . S
U726 C729 2.984 . S
U726 C730 2.847 . S
U726 C743 2.882 . S
U726 O744 2.441 . S
U726 O745 2.420 . S
U726 O746 2.455 . S
U726 O747 2.449 . S
O727 U726 2.454 . S
O727 C729 1.353 . S
O728 U726 2.458 . S
O728 C729 1.286 . S
C729 U726 2.984 . S
C729 O727 1.353 . S
C729 O728 1.286 . S
C729 C731 1.363 . S
C730 C720 1.465 . S
C730 U726 2.847 . S
C730 O744 1.249 . S
C730 O745 1.202 . S
C731 C729 1.363 . S
C731 C733 1.408 . S
C731 C736 1.342 . S
C732 C733 1.310 . S
C732 C735 1.461 . S
C732 H752 0.932 . S
C733 C731 1.408 . S
C733 C732 1.310 . S
C733 H753 0.930 . S
C734 C735 1.474 . S
C734 C736 1.285 . S
C734 H754 0.929 . S
C735 C732 1.461 . S
C735 C734 1.474 . S
C736 C731 1.342 . S
C736 C734 1.285 . S
C736 H755 0.930 . S
C737 C740 1.424 . S
C737 C742 1.245 . S
C737 C743 1.428 . S
C738 C741 1.260 . S
C738 C742 1.477 . S
C738 H756 0.932 . S
C739 C740 1.384 . S
C739 C741 1.479 . S
C739 H757 0.929 . S
C740 C737 1.424 . S
C740 C739 1.384 . S
C740 H758 0.928 . S
C741 C738 1.260 . S
C741 C739 1.479 . S
C742 C737 1.245 . S
C742 C738 1.477 . S
C742 H759 0.932 . S
C743 U726 2.882 . S
C743 C737 1.428 . S
C743 O746 1.301 . S
C743 O747 1.282 . S
O744 U726 2.441 . S
O744 C730 1.249 . S
O745 U726 2.420 . S
O745 C730 1.202 . S
O746 U726 2.455 . S
O746 C743 1.301 . S
O747 U726 2.449 . S
O747 C743 1.282 . S
H748 C721 0.931 . S
H749 C723 0.929 . S
H750 C724 0.930 . S
H751 C725 0.931 . S
H752 C732 0.932 . S
H753 C733 0.930 . S
H754 C734 0.929 . S
H755 C736 0.930 . S
H756 C738 0.932 . S
H757 C739 0.929 . S
H758 C740 0.928 . S
H759 C742 0.932 . S
C760 C761 1.264 . S
C760 C765 1.479 . S
C760 C770 1.465 . S
C761 C760 1.264 . S
C761 C763 1.339 . S
C761 H788 0.931 . S
C762 C763 1.395 . S
C762 C764 1.320 . S
C763 C761 1.339 . S
C763 C762 1.395 . S
C763 H789 0.929 . S
C764 C762 1.320 . S
C764 C765 1.405 . S
C764 H790 0.919 1_556 S
C765 C760 1.479 . S
C765 C764 1.405 . S
C765 H791 0.931 . S
U766 O767 2.454 . S
U766 O768 2.458 . S
U766 C769 2.984 . S
U766 C770 2.847 . S
U766 C783 2.882 . S
U766 O784 2.441 . S
U766 O785 2.420 . S
U766 O786 2.455 . S
U766 O787 2.449 . S
O767 U766 2.454 . S
O767 C769 1.353 . S
O768 U766 2.458 . S
O768 C769 1.286 . S
C769 U766 2.984 . S
C769 O767 1.353 . S
C769 O768 1.286 . S
C769 C771 1.363 . S
C770 C760 1.465 . S
C770 U766 2.847 . S
C770 O784 1.249 . S
C770 O785 1.202 . S
C771 C769 1.363 . S
C771 C773 1.408 . S
C771 C776 1.342 . S
C772 C773 1.310 . S
C772 C775 1.459 . S
C772 H792 0.932 . S
C773 C771 1.408 . S
C773 C772 1.310 . S
C773 H793 0.930 . S
C774 C775 1.475 1_554 S
C774 C776 1.285 1_554 S
C774 H794 0.930 . S
C775 C772 1.459 . S
C775 C774 1.475 1_556 S
C776 C771 1.342 . S
C776 C774 1.285 1_556 S
C776 H795 0.929 . S
C777 C780 1.424 . S
C777 C782 1.245 . S
C777 C783 1.428 . S
C778 C781 1.260 . S
C778 C782 1.477 . S
C778 H796 0.932 . S
C779 C780 1.384 . S
C779 C781 1.479 . S
C779 H797 0.929 . S
C780 C777 1.424 . S
C780 C779 1.384 . S
C780 H798 0.928 . S
C781 C778 1.260 . S
C781 C779 1.479 . S
C782 C777 1.245 . S
C782 C778 1.477 . S
C782 H799 0.932 . S
C783 U766 2.882 . S
C783 C777 1.428 . S
C783 O786 1.301 . S
C783 O787 1.282 . S
O784 U766 2.441 . S
O784 C770 1.249 . S
O785 U766 2.420 . S
O785 C770 1.202 . S
O786 U766 2.455 . S
O786 C783 1.301 . S
O787 U766 2.449 . S
O787 C783 1.282 . S
H788 C761 0.931 . S
H789 C763 0.929 . S
H790 C764 0.919 1_554 S
H791 C765 0.931 . S
H792 C772 0.932 . S
H793 C773 0.930 . S
H794 C774 0.930 . S
H795 C776 0.929 . S
H796 C778 0.932 . S
H797 C779 0.929 . S
H798 C780 0.928 . S
H799 C782 0.932 . S
C800 C801 1.264 . S
C800 C805 1.479 . S
C800 C810 1.465 . S
C801 C800 1.264 . S
C801 C803 1.339 . S
C801 H828 0.931 . S
C802 C803 1.395 . S
C802 C804 1.320 . S
C803 C801 1.339 . S
C803 C802 1.395 . S
C803 H829 0.929 . S
C804 C802 1.320 . S
C804 C805 1.405 . S
C804 H830 0.930 . S
C805 C800 1.479 . S
C805 C804 1.405 . S
C805 H831 0.931 . S
U806 O807 2.454 . S
U806 O808 2.458 . S
U806 C809 2.984 . S
U806 C810 2.847 . S
U806 C823 2.882 . S
U806 O824 2.441 . S
U806 O825 2.420 . S
U806 O826 2.455 . S
U806 O827 2.449 . S
O807 U806 2.454 . S
O807 C809 1.353 . S
O808 U806 2.458 . S
O808 C809 1.286 . S
C809 U806 2.984 . S
C809 O807 1.353 . S
C809 O808 1.286 . S
C809 C811 1.363 . S
C810 C800 1.465 . S
C810 U806 2.847 . S
C810 O824 1.249 . S
C810 O825 1.202 . S
C811 C809 1.363 . S
C811 C813 1.408 . S
C811 C816 1.342 . S
C812 C813 1.310 . S
C812 C815 1.461 . S
C812 H832 0.932 . S
C813 C811 1.408 . S
C813 C812 1.310 . S
C813 H833 0.930 . S
C814 C815 1.474 . S
C814 C816 1.285 . S
C814 H834 0.929 . S
C815 C812 1.461 . S
C815 C814 1.474 . S
C816 C811 1.342 . S
C816 C814 1.285 . S
C816 H835 0.930 . S
C817 C820 1.424 . S
C817 C822 1.245 . S
C817 C823 1.428 . S
C818 C821 1.260 . S
C818 C822 1.477 . S
C818 H836 0.932 . S
C819 C820 1.384 . S
C819 C821 1.479 . S
C819 H837 0.929 . S
C820 C817 1.424 . S
C820 C819 1.384 . S
C820 H838 0.928 . S
C821 C818 1.260 . S
C821 C819 1.479 . S
C822 C817 1.245 . S
C822 C818 1.477 . S
C822 H839 0.932 . S
C823 U806 2.882 . S
C823 C817 1.428 . S
C823 O826 1.301 . S
C823 O827 1.282 . S
O824 U806 2.441 . S
O824 C810 1.249 . S
O825 U806 2.420 . S
O825 C810 1.202 . S
O826 U806 2.455 . S
O826 C823 1.301 . S
O827 U806 2.449 . S
O827 C823 1.282 . S
H828 C801 0.931 . S
H829 C803 0.929 . S
H830 C804 0.930 . S
H831 C805 0.931 . S
H832 C812 0.932 . S
H833 C813 0.930 . S
H834 C814 0.929 . S
H835 C816 0.930 . S
H836 C818 0.932 . S
H837 C819 0.929 . S
H838 C820 0.928 . S
H839 C822 0.932 . S
C840 C841 1.262 1_655 S
C840 C845 1.479 . S
C840 C850 1.465 1_655 S
C841 C840 1.262 1_455 S
C841 C843 1.326 1_455 S
C841 H868 0.947 . S
C842 C843 1.395 . S
C842 C844 1.320 . S
C843 C841 1.326 1_655 S
C843 C842 1.395 . S
C843 H869 0.929 . S
C844 C842 1.320 . S
C844 C845 1.405 . S
C844 H870 0.930 . S
C845 C840 1.479 . S
C845 C844 1.405 . S
C845 H871 0.931 . S
U846 O847 2.454 1_455 S
U846 O848 2.458 . S
U846 C849 2.984 1_455 S
U846 C850 2.847 . S
U846 C863 2.882 . S
U846 O864 2.441 1_455 S
U846 O865 2.420 . S
U846 O866 2.455 . S
U846 O867 2.449 . S
O847 U846 2.454 1_655 S
O847 C849 1.353 . S
O848 U846 2.458 . S
O848 C849 1.286 1_455 S
C849 U846 2.984 1_655 S
C849 O847 1.353 . S
C849 O848 1.286 1_655 S
C849 C851 1.363 . S
C850 C840 1.465 1_455 S
C850 U846 2.847 . S
C850 O864 1.249 1_455 S
C850 O865 1.202 . S
C851 C849 1.363 . S
C851 C853 1.408 . S
C851 C856 1.342 . S
C852 C853 1.310 . S
C852 C855 1.461 . S
C852 H872 0.932 . S
C853 C851 1.408 . S
C853 C852 1.310 . S
C853 H873 0.930 . S
C854 C855 1.474 . S
C854 C856 1.285 . S
C854 H874 0.929 . S
C855 C852 1.461 . S
C855 C854 1.474 . S
C856 C851 1.342 . S
C856 C854 1.285 . S
C856 H875 0.930 . S
C857 C860 1.424 . S
C857 C862 1.245 . S
C857 C863 1.428 . S
C858 C861 1.260 . S
C858 C862 1.477 . S
C858 H876 0.932 . S
C859 C860 1.384 . S
C859 C861 1.479 . S
C859 H877 0.929 . S
C860 C857 1.424 . S
C860 C859 1.384 . S
C860 H878 0.928 . S
C861 C858 1.260 . S
C861 C859 1.479 . S
C862 C857 1.245 . S
C862 C858 1.477 . S
C862 H879 0.932 . S
C863 U846 2.882 . S
C863 C857 1.428 . S
C863 O866 1.301 . S
C863 O867 1.282 . S
O864 U846 2.441 1_655 S
O864 C850 1.249 1_655 S
O865 U846 2.420 . S
O865 C850 1.202 . S
O866 U846 2.455 . S
O866 C863 1.301 . S
O867 U846 2.449 . S
O867 C863 1.282 . S
H868 C841 0.947 . S
H869 C843 0.929 . S
H870 C844 0.930 . S
H871 C845 0.931 . S
H872 C852 0.932 . S
H873 C853 0.930 . S
H874 C854 0.929 . S
H875 C856 0.930 . S
H876 C858 0.932 . S
H877 C859 0.929 . S
H878 C860 0.928 . S
H879 C862 0.932 . S
C880 C881 1.264 . S
C880 C885 1.479 . S
C880 C890 1.465 . S
C881 C880 1.264 . S
C881 C883 1.339 . S
C881 H908 0.931 . S
C882 C883 1.395 . S
C882 C884 1.320 . S
C883 C881 1.339 . S
C883 C882 1.395 . S
C883 H909 0.929 . S
C884 C882 1.320 . S
C884 C885 1.405 . S
C884 H910 0.930 . S
C885 C880 1.479 . S
C885 C884 1.405 . S
C885 H911 0.931 . S
U886 O887 2.454 . S
U886 O888 2.458 . S
U886 C889 2.984 . S
U886 C890 2.847 . S
U886 C903 2.882 . S
U886 O904 2.441 . S
U886 O905 2.420 . S
U886 O906 2.455 . S
U886 O907 2.449 . S
O887 U886 2.454 . S
O887 C889 1.353 . S
O888 U886 2.458 . S
O888 C889 1.286 . S
C889 U886 2.984 . S
C889 O887 1.353 . S
C889 O888 1.286 . S
C889 C891 1.363 . S
C890 C880 1.465 . S
C890 U886 2.847 . S
C890 O904 1.249 . S
C890 O905 1.202 . S
C891 C889 1.363 . S
C891 C893 1.408 . S
C891 C896 1.342 . S
C892 C893 1.310 . S
C892 C895 1.461 . S
C892 H912 0.932 . S
C893 C891 1.408 . S
C893 C892 1.310 . S
C893 H913 0.930 . S
C894 C895 1.474 . S
C894 C896 1.285 . S
C894 H914 0.929 . S
C895 C892 1.461 . S
C895 C894 1.474 . S
C896 C891 1.342 . S
C896 C894 1.285 . S
C896 H915 0.930 . S
C897 C900 1.424 . S
C897 C902 1.245 . S
C897 C903 1.428 . S
C898 C901 1.260 . S
C898 C902 1.477 . S
C898 H916 0.932 . S
C899 C900 1.384 . S
C899 C901 1.479 . S
C899 H917 0.929 . S
C900 C897 1.424 . S
C900 C899 1.384 . S
C900 H918 0.928 . S
C901 C898 1.260 . S
C901 C899 1.479 . S
C902 C897 1.245 . S
C902 C898 1.477 . S
C902 H919 0.932 . S
C903 U886 2.882 . S
C903 C897 1.428 . S
C903 O906 1.301 . S
C903 O907 1.282 . S
O904 U886 2.441 . S
O904 C890 1.249 . S
O905 U886 2.420 . S
O905 C890 1.202 . S
O906 U886 2.455 . S
O906 C903 1.301 . S
O907 U886 2.449 . S
O907 C903 1.282 . S
H908 C881 0.931 . S
H909 C883 0.929 . S
H910 C884 0.930 . S
H911 C885 0.931 . S
H912 C892 0.932 . S
H913 C893 0.930 . S
H914 C894 0.929 . S
H915 C896 0.930 . S
H916 C898 0.932 . S
H917 C899 0.929 . S
H918 C900 0.928 . S
H919 C902 0.932 . S
C920 C921 1.264 . S
C920 C925 1.479 . S
C920 C930 1.465 . S
C921 C920 1.264 . S
C921 C923 1.339 . S
C921 H948 0.931 . S
C922 C923 1.395 . S
C922 C924 1.320 . S
C923 C921 1.339 . S
C923 C922 1.395 . S
C923 H949 0.929 . S
C924 C922 1.320 . S
C924 C925 1.405 . S
C924 H950 0.919 1_655 S
C925 C920 1.479 . S
C925 C924 1.405 . S
C925 H951 0.931 . S
U926 O927 2.454 . S
U926 O928 2.458 . S
U926 C929 2.984 . S
U926 C930 2.847 . S
U926 C943 2.882 . S
U926 O944 2.441 . S
U926 O945 2.420 . S
U926 O946 2.455 . S
U926 O947 2.449 . S
O927 U926 2.454 . S
O927 C929 1.353 . S
O928 U926 2.458 . S
O928 C929 1.286 . S
C929 U926 2.984 . S
C929 O927 1.353 . S
C929 O928 1.286 . S
C929 C931 1.363 . S
C930 C920 1.465 . S
C930 U926 2.847 . S
C930 O944 1.249 . S
C930 O945 1.202 . S
C931 C929 1.363 . S
C931 C933 1.408 . S
C931 C936 1.342 . S
C932 C933 1.310 . S
C932 C935 1.459 . S
C932 H952 0.932 . S
C933 C931 1.408 . S
C933 C932 1.310 . S
C933 H953 0.930 . S
C934 C935 1.475 1_455 S
C934 C936 1.285 1_455 S
C934 H954 0.930 . S
C935 C932 1.459 . S
C935 C934 1.475 1_655 S
C936 C931 1.342 . S
C936 C934 1.285 1_655 S
C936 H955 0.929 . S
C937 C940 1.424 . S
C937 C942 1.245 . S
C937 C943 1.428 . S
C938 C941 1.260 . S
C938 C942 1.477 . S
C938 H956 0.932 . S
C939 C940 1.384 . S
C939 C941 1.479 . S
C939 H957 0.929 . S
C940 C937 1.424 . S
C940 C939 1.384 . S
C940 H958 0.928 . S
C941 C938 1.260 . S
C941 C939 1.479 . S
C942 C937 1.245 . S
C942 C938 1.477 . S
C942 H959 0.932 . S
C943 U926 2.882 . S
C943 C937 1.428 . S
C943 O946 1.301 . S
C943 O947 1.282 . S
O944 U926 2.441 . S
O944 C930 1.249 . S
O945 U926 2.420 . S
O945 C930 1.202 . S
O946 U926 2.455 . S
O946 C943 1.301 . S
O947 U926 2.449 . S
O947 C943 1.282 . S
H948 C921 0.931 . S
H949 C923 0.929 . S
H950 C924 0.919 1_455 S
H951 C925 0.931 . S
H952 C932 0.932 . S
H953 C933 0.930 . S
H954 C934 0.930 . S
H955 C936 0.929 . S
H956 C938 0.932 . S
H957 C939 0.929 . S
H958 C940 0.928 . S
H959 C942 0.932 . S
C960 N961 1.317 . S
C960 N962 1.348 . S
C960 C963 1.485 . S
N961 C960 1.317 . S
N961 N965 1.370 . S
N962 C960 1.348 . S
N962 C964 1.346 . S
C963 C960 1.485 . S
C963 H967 0.960 . S
C963 H968 0.961 . S
C963 H969 0.960 . S
C964 N962 1.346 . S
C964 N965 1.307 . S
C964 C966 1.486 . S
N965 N961 1.370 . S
N965 C964 1.307 . S
C966 C964 1.486 . S
C966 H970 0.960 . S
C966 H971 0.960 . S
C966 H972 0.959 . S
H967 C963 0.960 . S
H968 C963 0.961 . S
H969 C963 0.960 . S
H970 C966 0.960 . S
H971 C966 0.960 . S
H972 C966 0.959 . S
C973 N974 1.317 . S
C973 N975 1.348 . S
C973 C976 1.485 . S
N974 C973 1.317 . S
N974 N978 1.370 1_554 S
N975 C973 1.348 . S
N975 C977 1.346 1_554 S
C976 C973 1.485 . S
C976 H980 0.960 . S
C976 H981 0.961 . S
C976 H982 0.960 . S
C977 N975 1.346 1_556 S
C977 N978 1.307 . S
C977 C979 1.486 . S
N978 N974 1.370 1_556 S
N978 C977 1.307 . S
C979 C977 1.486 . S
C979 H983 0.960 . S
C979 H984 0.960 . S
C979 H985 0.959 . S
H980 C976 0.960 . S
H981 C976 0.961 . S
H982 C976 0.960 . S
H983 C979 0.960 . S
H984 C979 0.960 . S
H985 C979 0.959 . S
C986 N987 1.317 . S
C986 N988 1.348 1_565 S
C986 C989 1.485 . S
N987 C986 1.317 . S
N987 N991 1.359 1_565 S
N988 C986 1.348 1_545 S
N988 C990 1.346 . S
C989 C986 1.485 . S
C989 H993 0.960 . S
C989 H994 0.964 1_565 S
C989 H995 0.960 . S
C990 N988 1.346 . S
C990 N991 1.325 . S
C990 C992 1.486 . S
N991 N987 1.359 1_545 S
N991 C990 1.325 . S
C992 C990 1.486 . S
C992 H996 0.960 . S
C992 H997 0.960 . S
C992 H998 0.959 . S
H993 C989 0.960 . S
H994 C989 0.964 1_545 S
H995 C989 0.960 . S
H996 C992 0.960 . S
H997 C992 0.960 . S
H998 C992 0.959 . S
C999 N1000 1.317 . S
C999 N1001 1.348 . S
C999 C1002 1.485 . S
N1000 C999 1.317 . S
N1000 N1004 1.370 1_556 S
N1001 C999 1.348 . S
N1001 C1003 1.346 1_556 S
C1002 C999 1.485 . S
C1002 H1006 0.960 . S
C1002 H1007 0.961 . S
C1002 H1008 0.960 . S
C1003 N1001 1.346 1_554 S
C1003 N1004 1.307 . S
C1003 C1005 1.486 . S
N1004 N1000 1.370 1_554 S
N1004 C1003 1.307 . S
C1005 C1003 1.486 . S
C1005 H1009 0.960 . S
C1005 H1010 0.960 . S
C1005 H1011 0.959 . S
H1006 C1002 0.960 . S
H1007 C1002 0.961 . S
H1008 C1002 0.960 . S
H1009 C1005 0.960 . S
H1010 C1005 0.960 . S
H1011 C1005 0.959 . S
C1012 N1013 1.317 . S
C1012 N1014 1.348 . S
C1012 C1015 1.485 . S
N1013 C1012 1.317 . S
N1013 N1017 1.370 . S
N1014 C1012 1.348 . S
N1014 C1016 1.346 . S
C1015 C1012 1.485 . S
C1015 H1019 0.960 . S
C1015 H1020 0.961 . S
C1015 H1021 0.960 . S
C1016 N1014 1.346 . S
C1016 N1017 1.307 . S
C1016 C1018 1.486 . S
N1017 N1013 1.370 . S
N1017 C1016 1.307 . S
C1018 C1016 1.486 . S
C1018 H1022 0.960 . S
C1018 H1023 0.960 . S
C1018 H1024 0.959 . S
H1019 C1015 0.960 . S
H1020 C1015 0.961 . S
H1021 C1015 0.960 . S
H1022 C1018 0.960 . S
H1023 C1018 0.960 . S
H1024 C1018 0.959 . S
C1025 N1026 1.317 . S
C1025 N1027 1.348 . S
C1025 C1028 1.485 . S
N1026 C1025 1.317 . S
N1026 N1030 1.370 1_655 S
N1027 C1025 1.348 . S
N1027 C1029 1.346 1_655 S
C1028 C1025 1.485 . S
C1028 H1032 0.960 . S
C1028 H1033 0.961 . S
C1028 H1034 0.960 . S
C1029 N1027 1.346 1_455 S
C1029 N1030 1.307 . S
C1029 C1031 1.486 . S
N1030 N1026 1.370 1_455 S
N1030 C1029 1.307 . S
C1031 C1029 1.486 . S
C1031 H1035 0.960 . S
C1031 H1036 0.960 . S
C1031 H1037 0.959 . S
H1032 C1028 0.960 . S
H1033 C1028 0.961 . S
H1034 C1028 0.960 . S
H1035 C1031 0.960 . S
H1036 C1031 0.960 . S
H1037 C1031 0.959 . S
C1038 N1039 1.317 . S
C1038 N1040 1.348 . S
C1038 C1041 1.485 . S
N1039 C1038 1.317 . S
N1039 N1043 1.370 1_455 S
N1040 C1038 1.348 . S
N1040 C1042 1.346 1_455 S
C1041 C1038 1.485 . S
C1041 H1045 0.960 . S
C1041 H1046 0.961 . S
C1041 H1047 0.960 . S
C1042 N1040 1.346 1_655 S
C1042 N1043 1.307 . S
C1042 C1044 1.486 . S
N1043 N1039 1.370 1_655 S
N1043 C1042 1.307 . S
C1044 C1042 1.486 . S
C1044 H1048 0.960 . S
C1044 H1049 0.960 . S
C1044 H1050 0.959 . S
H1045 C1041 0.960 . S
H1046 C1041 0.961 . S
H1047 C1041 0.960 . S
H1048 C1044 0.960 . S
H1049 C1044 0.960 . S
H1050 C1044 0.959 . S
C1051 N1052 1.317 . S
C1051 N1053 1.348 1_556 S
C1051 C1054 1.485 . S
N1052 C1051 1.317 . S
N1052 N1056 1.359 1_556 S
N1053 C1051 1.348 1_554 S
N1053 C1055 1.346 . S
C1054 C1051 1.485 . S
C1054 H1058 0.960 . S
C1054 H1059 0.964 1_556 S
C1054 H1060 0.960 . S
C1055 N1053 1.346 . S
C1055 N1056 1.325 . S
C1055 C1057 1.486 . S
N1056 N1052 1.359 1_554 S
N1056 C1055 1.325 . S
C1057 C1055 1.486 . S
C1057 H1061 0.960 . S
C1057 H1062 0.960 . S
C1057 H1063 0.959 . S
H1058 C1054 0.960 . S
H1059 C1054 0.964 1_554 S
H1060 C1054 0.960 . S
H1061 C1057 0.960 . S
H1062 C1057 0.960 . S
H1063 C1057 0.959 . S
C1064 N1065 1.317 . S
C1064 N1066 1.348 . S
C1064 C1067 1.485 . S
N1065 C1064 1.317 . S
N1065 N1069 1.370 . S
N1066 C1064 1.348 . S
N1066 C1068 1.346 . S
C1067 C1064 1.485 . S
C1067 H1071 0.960 . S
C1067 H1072 0.961 . S
C1067 H1073 0.960 . S
C1068 N1066 1.346 . S
C1068 N1069 1.307 . S
C1068 C1070 1.486 . S
N1069 N1065 1.370 . S
N1069 C1068 1.307 . S
C1070 C1068 1.486 . S
C1070 H1074 0.960 . S
C1070 H1075 0.960 . S
C1070 H1076 0.959 . S
H1071 C1067 0.960 . S
H1072 C1067 0.961 . S
H1073 C1067 0.960 . S
H1074 C1070 0.960 . S
H1075 C1070 0.960 . S
H1076 C1070 0.959 . S
C1077 N1078 1.317 . S
C1077 N1079 1.348 . S
C1077 C1080 1.485 . S
N1078 C1077 1.317 . S
N1078 N1082 1.370 1_565 S
N1079 C1077 1.348 . S
N1079 C1081 1.346 1_565 S
C1080 C1077 1.485 . S
C1080 H1084 0.960 . S
C1080 H1085 0.961 . S
C1080 H1086 0.960 . S
C1081 N1079 1.346 1_545 S
C1081 N1082 1.307 . S
C1081 C1083 1.486 . S
N1082 N1078 1.370 1_545 S
N1082 C1081 1.307 . S
C1083 C1081 1.486 . S
C1083 H1087 0.960 . S
C1083 H1088 0.960 . S
C1083 H1089 0.959 . S
H1084 C1080 0.960 . S
H1085 C1080 0.961 . S
H1086 C1080 0.960 . S
H1087 C1083 0.960 . S
H1088 C1083 0.960 . S
H1089 C1083 0.959 . S
C1090 N1091 1.317 . S
C1090 N1092 1.348 . S
C1090 C1093 1.485 . S
N1091 C1090 1.317 . S
N1091 N1095 1.370 1_545 S
N1092 C1090 1.348 . S
N1092 C1094 1.346 1_545 S
C1093 C1090 1.485 . S
C1093 H1097 0.960 . S
C1093 H1098 0.961 . S
C1093 H1099 0.960 . S
C1094 N1092 1.346 1_565 S
C1094 N1095 1.307 . S
C1094 C1096 1.486 . S
N1095 N1091 1.370 1_565 S
N1095 C1094 1.307 . S
C1096 C1094 1.486 . S
C1096 H1100 0.960 . S
C1096 H1101 0.960 . S
C1096 H1102 0.959 . S
H1097 C1093 0.960 . S
H1098 C1093 0.961 . S
H1099 C1093 0.960 . S
H1100 C1096 0.960 . S
H1101 C1096 0.960 . S
H1102 C1096 0.959 . S
C1103 N1104 1.317 . S
C1103 N1105 1.348 1_655 S
C1103 C1106 1.485 . S
N1104 C1103 1.317 . S
N1104 N1108 1.359 1_655 S
N1105 C1103 1.348 1_455 S
N1105 C1107 1.346 . S
C1106 C1103 1.485 . S
C1106 H1110 0.960 . S
C1106 H1111 0.964 1_655 S
C1106 H1112 0.960 . S
C1107 N1105 1.346 . S
C1107 N1108 1.325 . S
C1107 C1109 1.486 . S
N1108 N1104 1.359 1_455 S
N1108 C1107 1.325 . S
C1109 C1107 1.486 . S
C1109 H1113 0.960 . S
C1109 H1114 0.960 . S
C1109 H1115 0.959 . S
H1110 C1106 0.960 . S
H1111 C1106 0.964 1_455 S
H1112 C1106 0.960 . S
H1113 C1109 0.960 . S
H1114 C1109 0.960 . S
H1115 C1109 0.959 . S
C1116 N1117 1.317 . S
C1116 N1118 1.348 . S
C1116 C1119 1.485 . S
N1117 C1116 1.317 . S
N1117 N1121 1.370 . S
N1118 C1116 1.348 . S
N1118 C1120 1.346 . S
C1119 C1116 1.485 . S
C1119 H1123 0.960 . S
C1119 H1124 0.961 . S
C1119 H1125 0.960 . S
C1120 N1118 1.346 . S
C1120 N1121 1.307 . S
C1120 C1122 1.486 . S
N1121 N1117 1.370 . S
N1121 C1120 1.307 . S
C1122 C1120 1.486 . S
C1122 H1126 0.960 . S
C1122 H1127 0.960 . S
C1122 H1128 0.959 . S
H1123 C1119 0.960 . S
H1124 C1119 0.961 . S
H1125 C1119 0.960 . S
H1126 C1122 0.960 . S
H1127 C1122 0.960 . S
H1128 C1122 0.959 . S
C1129 N1130 1.317 . S
C1129 N1131 1.348 . S
C1129 C1132 1.485 . S
N1130 C1129 1.317 . S
N1130 N1134 1.370 1_556 S
N1131 C1129 1.348 . S
N1131 C1133 1.346 1_556 S
C1132 C1129 1.485 . S
C1132 H1136 0.960 . S
C1132 H1137 0.961 . S
C1132 H1138 0.960 . S
C1133 N1131 1.346 1_554 S
C1133 N1134 1.307 . S
C1133 C1135 1.486 . S
N1134 N1130 1.370 1_554 S
N1134 C1133 1.307 . S
C1135 C1133 1.486 . S
C1135 H1139 0.960 . S
C1135 H1140 0.960 . S
C1135 H1141 0.959 . S
H1136 C1132 0.960 . S
H1137 C1132 0.961 . S
H1138 C1132 0.960 . S
H1139 C1135 0.960 . S
H1140 C1135 0.960 . S
H1141 C1135 0.959 . S
C1142 N1143 1.317 . S
C1142 N1144 1.348 1_545 S
C1142 C1145 1.485 . S
N1143 C1142 1.317 . S
N1143 N1147 1.362 1_545 S
N1144 C1142 1.348 1_565 S
N1144 C1146 1.346 . S
C1145 C1142 1.485 . S
C1145 H1149 0.960 . S
C1145 H1150 0.961 . S
C1145 H1151 0.960 . S
C1146 N1144 1.346 . S
C1146 N1147 1.320 . S
C1146 C1148 1.486 . S
N1147 N1143 1.362 1_565 S
N1147 C1146 1.320 . S
C1148 C1146 1.486 . S
C1148 H1152 0.960 . S
C1148 H1153 0.960 . S
C1148 H1154 0.959 . S
H1149 C1145 0.960 . S
H1150 C1145 0.961 . S
H1151 C1145 0.960 . S
H1152 C1148 0.960 . S
H1153 C1148 0.960 . S
H1154 C1148 0.959 . S
C1155 N1156 1.317 . S
C1155 N1157 1.348 . S
C1155 C1158 1.485 . S
N1156 C1155 1.317 . S
N1156 N1160 1.370 1_554 S
N1157 C1155 1.348 . S
N1157 C1159 1.346 1_554 S
C1158 C1155 1.485 . S
C1158 H1162 0.960 . S
C1158 H1163 0.961 . S
C1158 H1164 0.960 . S
C1159 N1157 1.346 1_556 S
C1159 N1160 1.307 . S
C1159 C1161 1.486 . S
N1160 N1156 1.370 1_556 S
N1160 C1159 1.307 . S
C1161 C1159 1.486 . S
C1161 H1165 0.960 . S
C1161 H1166 0.960 . S
C1161 H1167 0.959 . S
H1162 C1158 0.960 . S
H1163 C1158 0.961 . S
H1164 C1158 0.960 . S
H1165 C1161 0.960 . S
H1166 C1161 0.960 . S
H1167 C1161 0.959 . S
C1168 N1169 1.317 . S
C1168 N1170 1.348 . S
C1168 C1171 1.485 . S
N1169 C1168 1.317 . S
N1169 N1173 1.370 . S
N1170 C1168 1.348 . S
N1170 C1172 1.346 . S
C1171 C1168 1.485 . S
C1171 H1175 0.960 . S
C1171 H1176 0.961 . S
C1171 H1177 0.960 . S
C1172 N1170 1.346 . S
C1172 N1173 1.307 . S
C1172 C1174 1.486 . S
N1173 N1169 1.370 . S
N1173 C1172 1.307 . S
C1174 C1172 1.486 . S
C1174 H1178 0.960 . S
C1174 H1179 0.960 . S
C1174 H1180 0.959 . S
H1175 C1171 0.960 . S
H1176 C1171 0.961 . S
H1177 C1171 0.960 . S
H1178 C1174 0.960 . S
H1179 C1174 0.960 . S
H1180 C1174 0.959 . S
C1181 N1182 1.317 . S
C1181 N1183 1.348 . S
C1181 C1184 1.485 . S
N1182 C1181 1.317 . S
N1182 N1186 1.370 1_455 S
N1183 C1181 1.348 . S
N1183 C1185 1.346 1_455 S
C1184 C1181 1.485 . S
C1184 H1188 0.960 . S
C1184 H1189 0.961 . S
C1184 H1190 0.960 . S
C1185 N1183 1.346 1_655 S
C1185 N1186 1.307 . S
C1185 C1187 1.486 . S
N1186 N1182 1.370 1_655 S
N1186 C1185 1.307 . S
C1187 C1185 1.486 . S
C1187 H1191 0.960 . S
C1187 H1192 0.960 . S
C1187 H1193 0.959 . S
H1188 C1184 0.960 . S
H1189 C1184 0.961 . S
H1190 C1184 0.960 . S
H1191 C1187 0.960 . S
H1192 C1187 0.960 . S
H1193 C1187 0.959 . S
C1194 N1195 1.317 . S
C1194 N1196 1.348 . S
C1194 C1197 1.485 . S
N1195 C1194 1.317 . S
N1195 N1199 1.370 1_655 S
N1196 C1194 1.348 . S
N1196 C1198 1.346 1_655 S
C1197 C1194 1.485 . S
C1197 H1201 0.960 . S
C1197 H1202 0.961 . S
C1197 H1203 0.960 . S
C1198 N1196 1.346 1_455 S
C1198 N1199 1.307 . S
C1198 C1200 1.486 . S
N1199 N1195 1.370 1_455 S
N1199 C1198 1.307 . S
C1200 C1198 1.486 . S
C1200 H1204 0.960 . S
C1200 H1205 0.960 . S
C1200 H1206 0.959 . S
H1201 C1197 0.960 . S
H1202 C1197 0.961 . S
H1203 C1197 0.960 . S
H1204 C1200 0.960 . S
H1205 C1200 0.960 . S
H1206 C1200 0.959 . S
C1207 N1208 1.317 . S
C1207 N1209 1.348 1_554 S
C1207 C1210 1.485 . S
N1208 C1207 1.317 . S
N1208 N1212 1.362 1_554 S
N1209 C1207 1.348 1_556 S
N1209 C1211 1.346 . S
C1210 C1207 1.485 . S
C1210 H1214 0.960 . S
C1210 H1215 0.961 . S
C1210 H1216 0.960 . S
C1211 N1209 1.346 . S
C1211 N1212 1.320 . S
C1211 C1213 1.486 . S
N1212 N1208 1.362 1_556 S
N1212 C1211 1.320 . S
C1213 C1211 1.486 . S
C1213 H1217 0.960 . S
C1213 H1218 0.960 . S
C1213 H1219 0.959 . S
H1214 C1210 0.960 . S
H1215 C1210 0.961 . S
H1216 C1210 0.960 . S
H1217 C1213 0.960 . S
H1218 C1213 0.960 . S
H1219 C1213 0.959 . S
C1220 N1221 1.317 . S
C1220 N1222 1.348 . S
C1220 C1223 1.485 . S
N1221 C1220 1.317 . S
N1221 N1225 1.370 . S
N1222 C1220 1.348 . S
N1222 C1224 1.346 . S
C1223 C1220 1.485 . S
C1223 H1227 0.960 . S
C1223 H1228 0.961 . S
C1223 H1229 0.960 . S
C1224 N1222 1.346 . S
C1224 N1225 1.307 . S
C1224 C1226 1.486 . S
N1225 N1221 1.370 . S
N1225 C1224 1.307 . S
C1226 C1224 1.486 . S
C1226 H1230 0.960 . S
C1226 H1231 0.960 . S
C1226 H1232 0.959 . S
H1227 C1223 0.960 . S
H1228 C1223 0.961 . S
H1229 C1223 0.960 . S
H1230 C1226 0.960 . S
H1231 C1226 0.960 . S
H1232 C1226 0.959 . S
C1233 N1234 1.317 . S
C1233 N1235 1.348 . S
C1233 C1236 1.485 . S
N1234 C1233 1.317 . S
N1234 N1238 1.370 1_545 S
N1235 C1233 1.348 . S
N1235 C1237 1.346 1_545 S
C1236 C1233 1.485 . S
C1236 H1240 0.960 . S
C1236 H1241 0.961 . S
C1236 H1242 0.960 . S
C1237 N1235 1.346 1_565 S
C1237 N1238 1.307 . S
C1237 C1239 1.486 . S
N1238 N1234 1.370 1_565 S
N1238 C1237 1.307 . S
C1239 C1237 1.486 . S
C1239 H1243 0.960 . S
C1239 H1244 0.960 . S
C1239 H1245 0.959 . S
H1240 C1236 0.960 . S
H1241 C1236 0.961 . S
H1242 C1236 0.960 . S
H1243 C1239 0.960 . S
H1244 C1239 0.960 . S
H1245 C1239 0.959 . S
C1246 N1247 1.317 . S
C1246 N1248 1.348 . S
C1246 C1249 1.485 . S
N1247 C1246 1.317 . S
N1247 N1251 1.370 1_565 S
N1248 C1246 1.348 . S
N1248 C1250 1.346 1_565 S
C1249 C1246 1.485 . S
C1249 H1253 0.960 . S
C1249 H1254 0.961 . S
C1249 H1255 0.960 . S
C1250 N1248 1.346 1_545 S
C1250 N1251 1.307 . S
C1250 C1252 1.486 . S
N1251 N1247 1.370 1_545 S
N1251 C1250 1.307 . S
C1252 C1250 1.486 . S
C1252 H1256 0.960 . S
C1252 H1257 0.960 . S
C1252 H1258 0.959 . S
H1253 C1249 0.960 . S
H1254 C1249 0.961 . S
H1255 C1249 0.960 . S
H1256 C1252 0.960 . S
H1257 C1252 0.960 . S
H1258 C1252 0.959 . S
C1259 N1260 1.317 . S
C1259 N1261 1.348 1_455 S
C1259 C1262 1.485 . S
N1260 C1259 1.317 . S
N1260 N1264 1.362 1_455 S
N1261 C1259 1.348 1_655 S
N1261 C1263 1.346 . S
C1262 C1259 1.485 . S
C1262 H1266 0.960 . S
C1262 H1267 0.961 . S
C1262 H1268 0.960 . S
C1263 N1261 1.346 . S
C1263 N1264 1.320 . S
C1263 C1265 1.486 . S
N1264 N1260 1.362 1_655 S
N1264 C1263 1.320 . S
C1265 C1263 1.486 . S
C1265 H1269 0.960 . S
C1265 H1270 0.960 . S
C1265 H1271 0.959 . S
H1266 C1262 0.960 . S
H1267 C1262 0.961 . S
H1268 C1262 0.960 . S
H1269 C1265 0.960 . S
H1270 C1265 0.960 . S
H1271 C1265 0.959 . S
H1272 C1280 0.950 . S
H1273 C1285 0.950 . S
H1274 C1282 0.950 . S
H1275 C1284 0.950 . S
H1276 C1286 0.950 . S
H1277 C1288 0.950 . S
H1278 C1290 0.950 . S
H1279 C1291 0.950 . S
C1280 H1272 0.950 . S
C1280 C1281 1.386 . S
C1280 C1282 1.391 . S
C1281 C1280 1.386 . S
C1281 C1285 1.393 . S
C1282 H1274 0.950 . S
C1282 C1280 1.391 . S
C1282 C1283 1.400 . S
C1283 C1282 1.400 . S
C1283 C1284 1.398 . S
C1283 C1289 1.491 . S
C1284 H1275 0.950 . S
C1284 C1283 1.398 . S
C1284 C1285 1.391 . S
C1285 H1273 0.950 . S
C1285 C1281 1.393 . S
C1285 C1284 1.391 . S
C1286 H1276 0.950 . S
C1286 C1287 1.386 . S
C1286 C1288 1.391 . S
C1287 C1286 1.386 . S
C1287 C1291 1.393 . S
C1288 H1277 0.950 . S
C1288 C1286 1.391 . S
C1288 C1289 1.400 . S
C1289 C1283 1.491 . S
C1289 C1288 1.400 . S
C1289 C1290 1.398 . S
C1290 H1278 0.950 . S
C1290 C1289 1.398 . S
C1290 C1291 1.391 . S
C1291 H1279 0.950 . S
C1291 C1287 1.393 . S
C1291 C1290 1.391 . S
H1292 C1300 0.950 . S
H1293 C1305 0.950 . S
H1294 C1302 0.950 . S
H1295 C1304 0.950 . S
H1296 C1306 0.950 . S
H1297 C1308 0.950 . S
H1298 C1310 0.950 . S
H1299 C1311 0.950 . S
C1300 H1292 0.950 . S
C1300 C1301 1.386 . S
C1300 C1302 1.391 . S
C1301 C1300 1.386 . S
C1301 C1305 1.393 . S
C1302 H1294 0.950 . S
C1302 C1300 1.391 . S
C1302 C1303 1.400 . S
C1303 C1302 1.400 . S
C1303 C1304 1.398 . S
C1303 C1309 1.491 . S
C1304 H1295 0.950 . S
C1304 C1303 1.398 . S
C1304 C1305 1.391 . S
C1305 H1293 0.950 . S
C1305 C1301 1.393 . S
C1305 C1304 1.391 . S
C1306 H1296 0.950 . S
C1306 C1307 1.386 . S
C1306 C1308 1.391 . S
C1307 C1306 1.386 . S
C1307 C1311 1.393 . S
C1308 H1297 0.950 . S
C1308 C1306 1.391 . S
C1308 C1309 1.400 . S
C1309 C1303 1.491 . S
C1309 C1308 1.400 . S
C1309 C1310 1.398 . S
C1310 H1298 0.950 . S
C1310 C1309 1.398 . S
C1310 C1311 1.391 . S
C1311 H1299 0.950 . S
C1311 C1307 1.393 . S
C1311 C1310 1.391 . S
H1312 C1320 0.950 . S
H1313 C1325 0.950 . S
H1314 C1322 0.950 . S
H1315 C1324 0.950 . S
H1316 C1326 0.947 1_545 S
H1317 C1328 0.950 . S
H1318 C1330 0.950 . S
H1319 C1331 0.950 . S
C1320 H1312 0.950 . S
C1320 C1321 1.392 . S
C1320 C1322 1.391 . S
C1321 C1320 1.392 . S
C1321 C1325 1.388 1_565 S
C1322 H1314 0.950 . S
C1322 C1320 1.391 . S
C1322 C1323 1.400 . S
C1323 C1322 1.400 . S
C1323 C1324 1.398 1_565 S
C1323 C1329 1.491 . S
C1324 H1315 0.950 . S
C1324 C1323 1.398 1_545 S
C1324 C1325 1.391 . S
C1325 H1313 0.950 . S
C1325 C1321 1.388 1_545 S
C1325 C1324 1.391 . S
C1326 H1316 0.947 1_565 S
C1326 C1327 1.388 . S
C1326 C1328 1.391 1_565 S
C1327 C1326 1.388 . S
C1327 C1331 1.393 . S
C1328 H1317 0.950 . S
C1328 C1326 1.391 1_545 S
C1328 C1329 1.400 1_545 S
C1329 C1323 1.491 . S
C1329 C1328 1.400 1_565 S
C1329 C1330 1.398 . S
C1330 H1318 0.950 . S
C1330 C1329 1.398 . S
C1330 C1331 1.391 . S
C1331 H1319 0.950 . S
C1331 C1327 1.393 . S
C1331 C1330 1.391 . S
H1332 C1340 0.950 . S
H1333 C1345 0.957 . S
H1334 C1342 0.950 . S
H1335 C1344 0.950 1_455 S
H1336 C1346 0.950 . S
H1337 C1348 0.950 . S
H1338 C1350 0.950 . S
H1339 C1351 0.950 . S
C1340 H1332 0.950 . S
C1340 C1341 1.386 . S
C1340 C1342 1.391 1_655 S
C1341 C1340 1.386 . S
C1341 C1345 1.384 1_545 S
C1342 H1334 0.950 . S
C1342 C1340 1.391 1_455 S
C1342 C1343 1.400 . S
C1343 C1342 1.400 . S
C1343 C1344 1.398 1_445 S
C1343 C1349 1.491 . S
C1344 H1335 0.950 1_655 S
C1344 C1343 1.398 1_665 S
C1344 C1345 1.392 . S
C1345 H1333 0.957 . S
C1345 C1341 1.384 1_565 S
C1345 C1344 1.392 . S
C1346 H1336 0.950 . S
C1346 C1347 1.386 1_565 S
C1346 C1348 1.391 . S
C1347 C1346 1.386 1_545 S
C1347 C1351 1.393 . S
C1348 H1337 0.950 . S
C1348 C1346 1.391 . S
C1348 C1349 1.400 1_565 S
C1349 C1343 1.491 . S
C1349 C1348 1.400 1_545 S
C1349 C1350 1.398 . S
C1350 H1338 0.950 . S
C1350 C1349 1.398 . S
C1350 C1351 1.391 . S
C1351 H1339 0.950 . S
C1351 C1347 1.393 . S
C1351 C1350 1.391 . S
H1352 C1360 0.950 . S
H1353 C1365 0.950 . S
H1354 C1362 0.950 . S
H1355 C1364 0.950 . S
H1356 C1366 0.950 . S
H1357 C1368 0.950 . S
H1358 C1370 0.950 . S
H1359 C1371 0.950 . S
C1360 H1352 0.950 . S
C1360 C1361 1.386 . S
C1360 C1362 1.391 . S
C1361 C1360 1.386 . S
C1361 C1365 1.393 . S
C1362 H1354 0.950 . S
C1362 C1360 1.391 . S
C1362 C1363 1.400 . S
C1363 C1362 1.400 . S
C1363 C1364 1.398 . S
C1363 C1369 1.491 . S
C1364 H1355 0.950 . S
C1364 C1363 1.398 . S
C1364 C1365 1.391 . S
C1365 H1353 0.950 . S
C1365 C1361 1.393 . S
C1365 C1364 1.391 . S
C1366 H1356 0.950 . S
C1366 C1367 1.386 . S
C1366 C1368 1.391 . S
C1367 C1366 1.386 . S
C1367 C1371 1.393 . S
C1368 H1357 0.950 . S
C1368 C1366 1.391 . S
C1368 C1369 1.400 . S
C1369 C1363 1.491 . S
C1369 C1368 1.400 . S
C1369 C1370 1.398 . S
C1370 H1358 0.950 . S
C1370 C1369 1.398 . S
C1370 C1371 1.391 . S
C1371 H1359 0.950 . S
C1371 C1367 1.393 . S
C1371 C1370 1.391 . S
H1372 C1380 0.950 . S
H1373 C1385 0.970 . S
H1374 C1382 0.950 . S
H1375 C1384 0.953 . S
H1376 C1386 0.950 . S
H1377 C1388 0.950 . S
H1378 C1390 0.950 . S
H1379 C1391 0.950 . S
C1380 H1372 0.950 . S
C1380 C1381 1.386 . S
C1380 C1382 1.391 1_565 S
C1381 C1380 1.386 . S
C1381 C1385 1.369 1_554 S
C1382 H1374 0.950 . S
C1382 C1380 1.391 1_545 S
C1382 C1383 1.400 . S
C1383 C1382 1.400 . S
C1383 C1384 1.402 1_554 S
C1383 C1389 1.491 . S
C1384 H1375 0.953 . S
C1384 C1383 1.402 1_556 S
C1384 C1385 1.388 1_545 S
C1385 H1373 0.970 . S
C1385 C1381 1.369 1_556 S
C1385 C1384 1.388 1_565 S
C1386 H1376 0.950 . S
C1386 C1387 1.386 1_556 S
C1386 C1388 1.391 . S
C1387 C1386 1.386 1_554 S
C1387 C1391 1.393 . S
C1388 H1377 0.950 . S
C1388 C1386 1.391 . S
C1388 C1389 1.400 1_556 S
C1389 C1383 1.491 . S
C1389 C1388 1.400 1_554 S
C1389 C1390 1.398 . S
C1390 H1378 0.950 . S
C1390 C1389 1.398 . S
C1390 C1391 1.391 . S
C1391 H1379 0.950 . S
C1391 C1387 1.393 . S
C1391 C1390 1.391 . S
H1392 C1400 0.950 . S
H1393 C1405 0.950 . S
H1394 C1402 0.950 . S
H1395 C1404 0.950 . S
H1396 C1406 0.950 . S
H1397 C1408 0.950 . S
H1398 C1410 0.950 . S
H1399 C1411 0.950 . S
C1400 H1392 0.950 . S
C1400 C1401 1.386 . S
C1400 C1402 1.391 . S
C1401 C1400 1.386 . S
C1401 C1405 1.393 . S
C1402 H1394 0.950 . S
C1402 C1400 1.391 . S
C1402 C1403 1.400 . S
C1403 C1402 1.400 . S
C1403 C1404 1.398 . S
C1403 C1409 1.491 . S
C1404 H1395 0.950 . S
C1404 C1403 1.398 . S
C1404 C1405 1.391 . S
C1405 H1393 0.950 . S
C1405 C1401 1.393 . S
C1405 C1404 1.391 . S
C1406 H1396 0.950 . S
C1406 C1407 1.386 . S
C1406 C1408 1.391 . S
C1407 C1406 1.386 . S
C1407 C1411 1.393 . S
C1408 H1397 0.950 . S
C1408 C1406 1.391 . S
C1408 C1409 1.400 . S
C1409 C1403 1.491 . S
C1409 C1408 1.400 . S
C1409 C1410 1.398 . S
C1410 H1398 0.950 . S
C1410 C1409 1.398 . S
C1410 C1411 1.391 . S
C1411 H1399 0.950 . S
C1411 C1407 1.393 . S
C1411 C1410 1.391 . S
H1412 C1420 0.950 . S
H1413 C1425 0.950 . S
H1414 C1422 0.950 . S
H1415 C1424 0.950 . S
H1416 C1426 0.950 . S
H1417 C1428 0.950 . S
H1418 C1430 0.950 . S
H1419 C1431 0.950 . S
C1420 H1412 0.950 . S
C1420 C1421 1.393 . S
C1420 C1422 1.391 . S
C1421 C1420 1.393 . S
C1421 C1425 1.387 1_556 S
C1422 H1414 0.950 . S
C1422 C1420 1.391 . S
C1422 C1423 1.400 . S
C1423 C1422 1.400 . S
C1423 C1424 1.398 1_556 S
C1423 C1429 1.491 . S
C1424 H1415 0.950 . S
C1424 C1423 1.398 1_554 S
C1424 C1425 1.391 . S
C1425 H1413 0.950 . S
C1425 C1421 1.387 1_554 S
C1425 C1424 1.391 . S
C1426 H1416 0.950 . S
C1426 C1427 1.386 1_554 S
C1426 C1428 1.391 . S
C1427 C1426 1.386 1_556 S
C1427 C1431 1.393 . S
C1428 H1417 0.950 . S
C1428 C1426 1.391 . S
C1428 C1429 1.400 1_554 S
C1429 C1423 1.491 . S
C1429 C1428 1.400 1_556 S
C1429 C1430 1.398 . S
C1430 H1418 0.950 . S
C1430 C1429 1.398 . S
C1430 C1431 1.391 . S
C1431 H1419 0.950 . S
C1431 C1427 1.393 . S
C1431 C1430 1.391 . S
H1432 C1440 0.950 . S
H1433 C1445 0.950 . S
H1434 C1442 0.950 . S
H1435 C1444 0.950 . S
H1436 C1446 0.950 . S
H1437 C1448 0.950 . S
H1438 C1450 0.950 . S
H1439 C1451 0.950 . S
C1440 H1432 0.950 . S
C1440 C1441 1.386 . S
C1440 C1442 1.391 . S
C1441 C1440 1.386 . S
C1441 C1445 1.393 . S
C1442 H1434 0.950 . S
C1442 C1440 1.391 . S
C1442 C1443 1.400 . S
C1443 C1442 1.400 . S
C1443 C1444 1.398 . S
C1443 C1449 1.491 . S
C1444 H1435 0.950 . S
C1444 C1443 1.398 . S
C1444 C1445 1.391 . S
C1445 H1433 0.950 . S
C1445 C1441 1.393 . S
C1445 C1444 1.391 . S
C1446 H1436 0.950 . S
C1446 C1447 1.386 . S
C1446 C1448 1.391 . S
C1447 C1446 1.386 . S
C1447 C1451 1.393 . S
C1448 H1437 0.950 . S
C1448 C1446 1.391 . S
C1448 C1449 1.400 . S
C1449 C1443 1.491 . S
C1449 C1448 1.400 . S
C1449 C1450 1.398 . S
C1450 H1438 0.950 . S
C1450 C1449 1.398 . S
C1450 C1451 1.391 . S
C1451 H1439 0.950 . S
C1451 C1447 1.393 . S
C1451 C1450 1.391 . S
H1452 C1460 0.950 . S
H1453 C1465 0.950 . S
H1454 C1462 0.936 1_554 S
H1455 C1464 0.950 . S
H1456 C1466 0.950 . S
H1457 C1468 0.950 . S
H1458 C1470 0.953 . S
H1459 C1471 0.950 1_655 S
C1460 H1452 0.950 . S
C1460 C1461 1.386 . S
C1460 C1462 1.391 . S
C1461 C1460 1.386 . S
C1461 C1465 1.393 . S
C1462 H1454 0.936 1_556 S
C1462 C1460 1.391 . S
C1462 C1463 1.400 1_556 S
C1463 C1462 1.400 1_554 S
C1463 C1464 1.398 . S
C1463 C1469 1.491 . S
C1464 H1455 0.950 . S
C1464 C1463 1.398 . S
C1464 C1465 1.391 1_554 S
C1465 H1453 0.950 . S
C1465 C1461 1.393 . S
C1465 C1464 1.391 1_556 S
C1466 H1456 0.950 . S
C1466 C1467 1.386 . S
C1466 C1468 1.391 . S
C1467 C1466 1.386 . S
C1467 C1471 1.393 . S
C1468 H1457 0.950 . S
C1468 C1466 1.391 . S
C1468 C1469 1.400 . S
C1469 C1463 1.491 . S
C1469 C1468 1.400 . S
C1469 C1470 1.398 . S
C1470 H1458 0.953 . S
C1470 C1469 1.398 . S
C1470 C1471 1.391 . S
C1471 H1459 0.950 1_455 S
C1471 C1467 1.393 . S
C1471 C1470 1.391 . S
H1472 C1480 0.950 . S
H1473 C1485 0.950 . S
H1474 C1482 0.950 . S
H1475 C1484 0.950 . S
H1476 C1486 0.950 . S
H1477 C1488 0.950 . S
H1478 C1490 0.950 . S
H1479 C1491 0.950 . S
C1480 H1472 0.950 . S
C1480 C1481 1.386 . S
C1480 C1482 1.391 . S
C1481 C1480 1.386 . S
C1481 C1485 1.393 . S
C1482 H1474 0.950 . S
C1482 C1480 1.391 . S
C1482 C1483 1.400 . S
C1483 C1482 1.400 . S
C1483 C1484 1.398 . S
C1483 C1489 1.491 . S
C1484 H1475 0.950 . S
C1484 C1483 1.398 . S
C1484 C1485 1.391 . S
C1485 H1473 0.950 . S
C1485 C1481 1.393 . S
C1485 C1484 1.391 . S
C1486 H1476 0.950 . S
C1486 C1487 1.386 . S
C1486 C1488 1.391 . S
C1487 C1486 1.386 . S
C1487 C1491 1.393 . S
C1488 H1477 0.950 . S
C1488 C1486 1.391 . S
C1488 C1489 1.400 . S
C1489 C1483 1.491 . S
C1489 C1488 1.400 . S
C1489 C1490 1.398 . S
C1490 H1478 0.950 . S
C1490 C1489 1.398 . S
C1490 C1491 1.391 . S
C1491 H1479 0.950 . S
C1491 C1487 1.393 . S
C1491 C1490 1.391 . S
H1492 C1500 0.950 . S
H1493 C1505 0.950 . S
H1494 C1502 0.950 . S
H1495 C1504 0.950 . S
H1496 C1506 0.950 . S
H1497 C1508 0.950 . S
H1498 C1510 0.950 . S
H1499 C1511 0.950 . S
C1500 H1492 0.950 . S
C1500 C1501 1.388 . S
C1500 C1502 1.391 . S
C1501 C1500 1.388 . S
C1501 C1505 1.390 1_455 S
C1502 H1494 0.950 . S
C1502 C1500 1.391 . S
C1502 C1503 1.400 1_455 S
C1503 C1502 1.400 1_655 S
C1503 C1504 1.398 . S
C1503 C1509 1.491 . S
C1504 H1495 0.950 . S
C1504 C1503 1.398 . S
C1504 C1505 1.391 . S
C1505 H1493 0.950 . S
C1505 C1501 1.390 1_655 S
C1505 C1504 1.391 . S
C1506 H1496 0.950 . S
C1506 C1507 1.386 . S
C1506 C1508 1.391 . S
C1507 C1506 1.386 . S
C1507 C1511 1.393 1_655 S
C1508 H1497 0.950 . S
C1508 C1506 1.391 . S
C1508 C1509 1.400 . S
C1509 C1503 1.491 . S
C1509 C1508 1.400 . S
C1509 C1510 1.398 1_655 S
C1510 H1498 0.950 . S
C1510 C1509 1.398 1_455 S
C1510 C1511 1.391 . S
C1511 H1499 0.950 . S
C1511 C1507 1.393 1_455 S
C1511 C1510 1.391 . S
H1512 C1520 0.950 . S
H1513 C1525 0.950 . S
H1514 C1522 0.950 . S
H1515 C1524 0.950 . S
H1516 C1526 0.950 . S
H1517 C1528 0.950 . S
H1518 C1530 0.950 . S
H1519 C1531 0.950 . S
C1520 H1512 0.950 . S
C1520 C1521 1.386 . S
C1520 C1522 1.391 . S
C1521 C1520 1.386 . S
C1521 C1525 1.393 . S
C1522 H1514 0.950 . S
C1522 C1520 1.391 . S
C1522 C1523 1.400 . S
C1523 C1522 1.400 . S
C1523 C1524 1.398 . S
C1523 C1529 1.491 . S
C1524 H1515 0.950 . S
C1524 C1523 1.398 . S
C1524 C1525 1.391 . S
C1525 H1513 0.950 . S
C1525 C1521 1.393 . S
C1525 C1524 1.391 . S
C1526 H1516 0.950 . S
C1526 C1527 1.386 . S
C1526 C1528 1.391 . S
C1527 C1526 1.386 . S
C1527 C1531 1.393 . S
C1528 H1517 0.950 . S
C1528 C1526 1.391 . S
C1528 C1529 1.400 . S
C1529 C1523 1.491 . S
C1529 C1528 1.400 . S
C1529 C1530 1.398 . S
C1530 H1518 0.950 . S
C1530 C1529 1.398 . S
C1530 C1531 1.391 . S
C1531 H1519 0.950 . S
C1531 C1527 1.393 . S
C1531 C1530 1.391 . S
H1532 C1540 0.950 . S
H1533 C1545 0.950 . S
H1534 C1542 0.950 . S
H1535 C1544 0.950 . S
H1536 C1546 0.950 . S
H1537 C1548 0.950 . S
H1538 C1550 0.950 . S
H1539 C1551 0.950 . S
C1540 H1532 0.950 . S
C1540 C1541 1.386 . S
C1540 C1542 1.391 . S
C1541 C1540 1.386 . S
C1541 C1545 1.393 . S
C1542 H1534 0.950 . S
C1542 C1540 1.391 . S
C1542 C1543 1.400 . S
C1543 C1542 1.400 . S
C1543 C1544 1.398 . S
C1543 C1549 1.491 . S
C1544 H1535 0.950 . S
C1544 C1543 1.398 . S
C1544 C1545 1.391 . S
C1545 H1533 0.950 . S
C1545 C1541 1.393 . S
C1545 C1544 1.391 . S
C1546 H1536 0.950 . S
C1546 C1547 1.386 . S
C1546 C1548 1.391 . S
C1547 C1546 1.386 . S
C1547 C1551 1.393 . S
C1548 H1537 0.950 . S
C1548 C1546 1.391 . S
C1548 C1549 1.400 . S
C1549 C1543 1.491 . S
C1549 C1548 1.400 . S
C1549 C1550 1.398 . S
C1550 H1538 0.950 . S
C1550 C1549 1.398 . S
C1550 C1551 1.391 . S
C1551 H1539 0.950 . S
C1551 C1547 1.393 . S
C1551 C1550 1.391 . S
H1552 C1560 0.950 . S
H1553 C1565 0.950 . S
H1554 C1562 0.955 . S
H1555 C1564 0.950 . S
H1556 C1566 0.950 . S
H1557 C1568 0.950 . S
H1558 C1570 0.950 1_565 S
H1559 C1571 0.950 . S
C1560 H1552 0.950 . S
C1560 C1561 1.384 1_565 S
C1560 C1562 1.393 . S
C1561 C1560 1.384 1_545 S
C1561 C1565 1.396 . S
C1562 H1554 0.955 . S
C1562 C1560 1.393 . S
C1562 C1563 1.397 1_565 S
C1563 C1562 1.397 1_545 S
C1563 C1564 1.398 . S
C1563 C1569 1.491 . S
C1564 H1555 0.950 . S
C1564 C1563 1.398 . S
C1564 C1565 1.391 . S
C1565 H1553 0.950 . S
C1565 C1561 1.396 . S
C1565 C1564 1.391 . S
C1566 H1556 0.950 . S
C1566 C1567 1.386 . S
C1566 C1568 1.391 . S
C1567 C1566 1.386 . S
C1567 C1571 1.393 . S
C1568 H1557 0.950 . S
C1568 C1566 1.391 . S
C1568 C1569 1.400 . S
C1569 C1563 1.491 . S
C1569 C1568 1.400 . S
C1569 C1570 1.398 . S
C1570 H1558 0.950 1_545 S
C1570 C1569 1.398 . S
C1570 C1571 1.391 . S
C1571 H1559 0.950 . S
C1571 C1567 1.393 . S
C1571 C1570 1.391 . S
H1572 C1580 0.950 . S
H1573 C1585 0.948 1_545 S
H1574 C1582 0.950 . S
H1575 C1584 0.950 1_655 S
H1576 C1586 0.950 . S
H1577 C1588 0.950 . S
H1578 C1590 0.950 . S
H1579 C1591 0.950 . S
C1580 H1572 0.950 . S
C1580 C1581 1.386 . S
C1580 C1582 1.391 1_455 S
C1581 C1580 1.386 . S
C1581 C1585 1.395 . S
C1582 H1574 0.950 . S
C1582 C1580 1.391 1_655 S
C1582 C1583 1.400 . S
C1583 C1582 1.400 . S
C1583 C1584 1.398 1_665 S
C1583 C1589 1.491 . S
C1584 H1575 0.950 1_455 S
C1584 C1583 1.398 1_445 S
C1584 C1585 1.390 1_545 S
C1585 H1573 0.948 1_565 S
C1585 C1581 1.395 . S
C1585 C1584 1.390 1_565 S
C1586 H1576 0.950 . S
C1586 C1587 1.386 1_545 S
C1586 C1588 1.391 . S
C1587 C1586 1.386 1_565 S
C1587 C1591 1.393 . S
C1588 H1577 0.950 . S
C1588 C1586 1.391 . S
C1588 C1589 1.400 1_545 S
C1589 C1583 1.491 . S
C1589 C1588 1.400 1_565 S
C1589 C1590 1.398 . S
C1590 H1578 0.950 . S
C1590 C1589 1.398 . S
C1590 C1591 1.391 . S
C1591 H1579 0.950 . S
C1591 C1587 1.393 . S
C1591 C1590 1.391 . S
H1592 C1600 0.950 . S
H1593 C1605 0.950 . S
H1594 C1602 0.950 . S
H1595 C1604 0.950 . S
H1596 C1606 0.950 . S
H1597 C1608 0.950 . S
H1598 C1610 0.950 . S
H1599 C1611 0.950 . S
C1600 H1592 0.950 . S
C1600 C1601 1.386 . S
C1600 C1602 1.391 . S
C1601 C1600 1.386 . S
C1601 C1605 1.393 . S
C1602 H1594 0.950 . S
C1602 C1600 1.391 . S
C1602 C1603 1.400 . S
C1603 C1602 1.400 . S
C1603 C1604 1.398 . S
C1603 C1609 1.491 . S
C1604 H1595 0.950 . S
C1604 C1603 1.398 . S
C1604 C1605 1.391 . S
C1605 H1593 0.950 . S
C1605 C1601 1.393 . S
C1605 C1604 1.391 . S
C1606 H1596 0.950 . S
C1606 C1607 1.386 . S
C1606 C1608 1.391 . S
C1607 C1606 1.386 . S
C1607 C1611 1.393 . S
C1608 H1597 0.950 . S
C1608 C1606 1.391 . S
C1608 C1609 1.400 . S
C1609 C1603 1.491 . S
C1609 C1608 1.400 . S
C1609 C1610 1.398 . S
C1610 H1598 0.950 . S
C1610 C1609 1.398 . S
C1610 C1611 1.391 . S
C1611 H1599 0.950 . S
C1611 C1607 1.393 . S
C1611 C1610 1.391 . S
H1612 C1620 0.950 . S
H1613 C1625 0.950 1_554 S
H1614 C1622 0.950 . S
H1615 C1624 0.928 1_564 S
H1616 C1626 0.950 . S
H1617 C1628 0.950 . S
H1618 C1630 0.950 . S
H1619 C1631 0.950 . S
C1620 H1612 0.950 . S
C1620 C1621 1.386 . S
C1620 C1622 1.391 1_545 S
C1621 C1620 1.386 . S
C1621 C1625 1.393 . S
C1622 H1614 0.950 . S
C1622 C1620 1.391 1_565 S
C1622 C1623 1.400 . S
C1623 C1622 1.400 . S
C1623 C1624 1.406 1_565 S
C1623 C1629 1.491 . S
C1624 H1615 0.928 1_546 S
C1624 C1623 1.406 1_545 S
C1624 C1625 1.393 . S
C1625 H1613 0.950 1_556 S
C1625 C1621 1.393 . S
C1625 C1624 1.393 . S
C1626 H1616 0.950 . S
C1626 C1627 1.386 1_554 S
C1626 C1628 1.391 . S
C1627 C1626 1.386 1_556 S
C1627 C1631 1.393 . S
C1628 H1617 0.950 . S
C1628 C1626 1.391 . S
C1628 C1629 1.400 1_554 S
C1629 C1623 1.491 . S
C1629 C1628 1.400 1_556 S
C1629 C1630 1.398 . S
C1630 H1618 0.950 . S
C1630 C1629 1.398 . S
C1630 C1631 1.391 . S
C1631 H1619 0.950 . S
C1631 C1627 1.393 . S
C1631 C1630 1.391 . S
H1632 C1640 0.950 . S
H1633 C1645 0.950 . S
H1634 C1642 0.950 . S
H1635 C1644 0.950 . S
H1636 C1646 0.950 . S
H1637 C1648 0.950 . S
H1638 C1650 0.950 . S
H1639 C1651 0.950 . S
C1640 H1632 0.950 . S
C1640 C1641 1.386 . S
C1640 C1642 1.391 . S
C1641 C1640 1.386 . S
C1641 C1645 1.393 . S
C1642 H1634 0.950 . S
C1642 C1640 1.391 . S
C1642 C1643 1.400 . S
C1643 C1642 1.400 . S
C1643 C1644 1.398 . S
C1643 C1649 1.491 . S
C1644 H1635 0.950 . S
C1644 C1643 1.398 . S
C1644 C1645 1.391 . S
C1645 H1633 0.950 . S
C1645 C1641 1.393 . S
C1645 C1644 1.391 . S
C1646 H1636 0.950 . S
C1646 C1647 1.386 . S
C1646 C1648 1.391 . S
C1647 C1646 1.386 . S
C1647 C1651 1.393 . S
C1648 H1637 0.950 . S
C1648 C1646 1.391 . S
C1648 C1649 1.400 . S
C1649 C1643 1.491 . S
C1649 C1648 1.400 . S
C1649 C1650 1.398 . S
C1650 H1638 0.950 . S
C1650 C1649 1.398 . S
C1650 C1651 1.391 . S
C1651 H1639 0.950 . S
C1651 C1647 1.393 . S
C1651 C1650 1.391 . S
H1652 C1660 0.950 . S
H1653 C1665 0.950 . S
H1654 C1662 0.950 . S
H1655 C1664 0.950 . S
H1656 C1666 0.950 . S
H1657 C1668 0.950 . S
H1658 C1670 0.950 . S
H1659 C1671 0.950 . S
C1660 H1652 0.950 . S
C1660 C1661 1.363 1_554 S
C1660 C1662 1.391 . S
C1661 C1660 1.363 1_556 S
C1661 C1665 1.415 . S
C1662 H1654 0.950 . S
C1662 C1660 1.391 . S
C1662 C1663 1.400 . S
C1663 C1662 1.400 . S
C1663 C1664 1.398 1_554 S
C1663 C1669 1.491 . S
C1664 H1655 0.950 . S
C1664 C1663 1.398 1_556 S
C1664 C1665 1.391 . S
C1665 H1653 0.950 . S
C1665 C1661 1.415 . S
C1665 C1664 1.391 . S
C1666 H1656 0.950 . S
C1666 C1667 1.386 1_556 S
C1666 C1668 1.391 . S
C1667 C1666 1.386 1_554 S
C1667 C1671 1.393 . S
C1668 H1657 0.950 . S
C1668 C1666 1.391 . S
C1668 C1669 1.400 1_556 S
C1669 C1663 1.491 . S
C1669 C1668 1.400 1_554 S
C1669 C1670 1.398 . S
C1670 H1658 0.950 . S
C1670 C1669 1.398 . S
C1670 C1671 1.391 . S
C1671 H1659 0.950 . S
C1671 C1667 1.393 . S
C1671 C1670 1.391 . S
H1672 C1680 0.950 . S
H1673 C1685 0.950 . S
H1674 C1682 0.950 . S
H1675 C1684 0.950 . S
H1676 C1686 0.950 . S
H1677 C1688 0.950 . S
H1678 C1690 0.950 . S
H1679 C1691 0.950 . S
C1680 H1672 0.950 . S
C1680 C1681 1.386 . S
C1680 C1682 1.391 . S
C1681 C1680 1.386 . S
C1681 C1685 1.393 . S
C1682 H1674 0.950 . S
C1682 C1680 1.391 . S
C1682 C1683 1.400 . S
C1683 C1682 1.400 . S
C1683 C1684 1.398 . S
C1683 C1689 1.491 . S
C1684 H1675 0.950 . S
C1684 C1683 1.398 . S
C1684 C1685 1.391 . S
C1685 H1673 0.950 . S
C1685 C1681 1.393 . S
C1685 C1684 1.391 . S
C1686 H1676 0.950 . S
C1686 C1687 1.386 . S
C1686 C1688 1.391 . S
C1687 C1686 1.386 . S
C1687 C1691 1.393 . S
C1688 H1677 0.950 . S
C1688 C1686 1.391 . S
C1688 C1689 1.400 . S
C1689 C1683 1.491 . S
C1689 C1688 1.400 . S
C1689 C1690 1.398 . S
C1690 H1678 0.950 . S
C1690 C1689 1.398 . S
C1690 C1691 1.391 . S
C1691 H1679 0.950 . S
C1691 C1687 1.393 . S
C1691 C1690 1.391 . S
H1692 C1700 0.950 1_455 S
H1693 C1705 0.950 . S
H1694 C1702 0.913 1_455 S
H1695 C1704 0.950 . S
H1696 C1706 0.950 . S
H1697 C1708 0.950 . S
H1698 C1710 0.950 . S
H1699 C1711 0.950 . S
C1700 H1692 0.950 1_655 S
C1700 C1701 1.386 . S
C1700 C1702 1.400 1_554 S
C1701 C1700 1.386 . S
C1701 C1705 1.393 . S
C1702 H1694 0.913 1_655 S
C1702 C1700 1.400 1_556 S
C1702 C1703 1.429 . S
C1703 C1702 1.429 . S
C1703 C1704 1.398 . S
C1703 C1709 1.491 . S
C1704 H1695 0.950 . S
C1704 C1703 1.398 . S
C1704 C1705 1.391 1_556 S
C1705 H1693 0.950 . S
C1705 C1701 1.393 . S
C1705 C1704 1.391 1_554 S
C1706 H1696 0.950 . S
C1706 C1707 1.386 . S
C1706 C1708 1.391 . S
C1707 C1706 1.386 . S
C1707 C1711 1.393 1_655 S
C1708 H1697 0.950 . S
C1708 C1706 1.391 . S
C1708 C1709 1.400 . S
C1709 C1703 1.491 . S
C1709 C1708 1.400 . S
C1709 C1710 1.398 1_655 S
C1710 H1698 0.950 . S
C1710 C1709 1.398 1_455 S
C1710 C1711 1.391 . S
C1711 H1699 0.950 . S
C1711 C1707 1.393 1_455 S
C1711 C1710 1.391 . S
H1712 C1720 0.950 . S
H1713 C1725 0.950 . S
H1714 C1722 0.950 . S
H1715 C1724 0.950 . S
H1716 C1726 0.950 . S
H1717 C1728 0.950 . S
H1718 C1730 0.950 . S
H1719 C1731 0.950 . S
C1720 H1712 0.950 . S
C1720 C1721 1.386 . S
C1720 C1722 1.391 . S
C1721 C1720 1.386 . S
C1721 C1725 1.393 . S
C1722 H1714 0.950 . S
C1722 C1720 1.391 . S
C1722 C1723 1.400 . S
C1723 C1722 1.400 . S
C1723 C1724 1.398 . S
C1723 C1729 1.491 . S
C1724 H1715 0.950 . S
C1724 C1723 1.398 . S
C1724 C1725 1.391 . S
C1725 H1713 0.950 . S
C1725 C1721 1.393 . S
C1725 C1724 1.391 . S
C1726 H1716 0.950 . S
C1726 C1727 1.386 . S
C1726 C1728 1.391 . S
C1727 C1726 1.386 . S
C1727 C1731 1.393 . S
C1728 H1717 0.950 . S
C1728 C1726 1.391 . S
C1728 C1729 1.400 . S
C1729 C1723 1.491 . S
C1729 C1728 1.400 . S
C1729 C1730 1.398 . S
C1730 H1718 0.950 . S
C1730 C1729 1.398 . S
C1730 C1731 1.391 . S
C1731 H1719 0.950 . S
C1731 C1727 1.393 . S
C1731 C1730 1.391 . S
H1732 C1740 0.950 . S
H1733 C1745 0.950 . S
H1734 C1742 0.950 . S
H1735 C1744 0.950 . S
H1736 C1746 0.950 . S
H1737 C1748 0.950 . S
H1738 C1750 0.950 . S
H1739 C1751 0.950 . S
C1740 H1732 0.950 . S
C1740 C1741 1.388 1_455 S
C1740 C1742 1.391 . S
C1741 C1740 1.388 1_655 S
C1741 C1745 1.391 . S
C1742 H1734 0.950 . S
C1742 C1740 1.391 . S
C1742 C1743 1.400 . S
C1743 C1742 1.400 . S
C1743 C1744 1.398 1_455 S
C1743 C1749 1.491 . S
C1744 H1735 0.950 . S
C1744 C1743 1.398 1_655 S
C1744 C1745 1.391 . S
C1745 H1733 0.950 . S
C1745 C1741 1.391 . S
C1745 C1744 1.391 . S
C1746 H1736 0.950 . S
C1746 C1747 1.386 1_655 S
C1746 C1748 1.391 . S
C1747 C1746 1.386 1_455 S
C1747 C1751 1.393 . S
C1748 H1737 0.950 . S
C1748 C1746 1.391 . S
C1748 C1749 1.400 1_655 S
C1749 C1743 1.491 . S
C1749 C1748 1.400 1_455 S
C1749 C1750 1.398 . S
C1750 H1738 0.950 . S
C1750 C1749 1.398 . S
C1750 C1751 1.391 . S
C1751 H1739 0.950 . S
C1751 C1747 1.393 . S
C1751 C1750 1.391 . S
H1752 C1760 0.950 . S
H1753 C1765 0.950 . S
H1754 C1762 0.950 . S
H1755 C1764 0.950 . S
H1756 C1766 0.950 . S
H1757 C1768 0.950 . S
H1758 C1770 0.950 . S
H1759 C1771 0.950 . S
C1760 H1752 0.950 . S
C1760 C1761 1.386 . S
C1760 C1762 1.391 . S
C1761 C1760 1.386 . S
C1761 C1765 1.393 . S
C1762 H1754 0.950 . S
C1762 C1760 1.391 . S
C1762 C1763 1.400 . S
C1763 C1762 1.400 . S
C1763 C1764 1.398 . S
C1763 C1769 1.491 . S
C1764 H1755 0.950 . S
C1764 C1763 1.398 . S
C1764 C1765 1.391 . S
C1765 H1753 0.950 . S
C1765 C1761 1.393 . S
C1765 C1764 1.391 . S
C1766 H1756 0.950 . S
C1766 C1767 1.386 . S
C1766 C1768 1.391 . S
C1767 C1766 1.386 . S
C1767 C1771 1.393 . S
C1768 H1757 0.950 . S
C1768 C1766 1.391 . S
C1768 C1769 1.400 . S
C1769 C1763 1.491 . S
C1769 C1768 1.400 . S
C1769 C1770 1.398 . S
C1770 H1758 0.950 . S
C1770 C1769 1.398 . S
C1770 C1771 1.391 . S
C1771 H1759 0.950 . S
C1771 C1767 1.393 . S
C1771 C1770 1.391 . S
H1772 C1780 0.950 . S
H1773 C1785 0.950 . S
H1774 C1782 0.950 . S
H1775 C1784 0.950 . S
H1776 C1786 0.950 . S
H1777 C1788 0.950 . S
H1778 C1790 0.950 . S
H1779 C1791 0.950 . S
C1780 H1772 0.950 . S
C1780 C1781 1.386 . S
C1780 C1782 1.391 . S
C1781 C1780 1.386 . S
C1781 C1785 1.393 . S
C1782 H1774 0.950 . S
C1782 C1780 1.391 . S
C1782 C1783 1.400 . S
C1783 C1782 1.400 . S
C1783 C1784 1.398 . S
C1783 C1789 1.491 . S
C1784 H1775 0.950 . S
C1784 C1783 1.398 . S
C1784 C1785 1.391 . S
C1785 H1773 0.950 . S
C1785 C1781 1.393 . S
C1785 C1784 1.391 . S
C1786 H1776 0.950 . S
C1786 C1787 1.386 . S
C1786 C1788 1.391 . S
C1787 C1786 1.386 . S
C1787 C1791 1.393 . S
C1788 H1777 0.950 . S
C1788 C1786 1.391 . S
C1788 C1789 1.400 . S
C1789 C1783 1.491 . S
C1789 C1788 1.400 . S
C1789 C1790 1.398 . S
C1790 H1778 0.950 . S
C1790 C1789 1.398 . S
C1790 C1791 1.391 . S
C1791 H1779 0.950 . S
C1791 C1787 1.393 . S
C1791 C1790 1.391 . S
H1792 C1800 0.950 . S
H1793 C1805 0.950 . S
H1794 C1802 0.950 . S
H1795 C1804 0.950 . S
H1796 C1806 0.950 . S
H1797 C1808 0.950 . S
H1798 C1810 0.950 . S
H1799 C1811 0.950 . S
C1800 H1792 0.950 . S
C1800 C1801 1.370 1_565 S
C1800 C1802 1.391 . S
C1801 C1800 1.370 1_545 S
C1801 C1805 1.411 . S
C1802 H1794 0.950 . S
C1802 C1800 1.391 . S
C1802 C1803 1.416 . S
C1803 C1802 1.416 . S
C1803 C1804 1.384 1_565 S
C1803 C1809 1.491 . S
C1804 H1795 0.950 . S
C1804 C1803 1.384 1_545 S
C1804 C1805 1.391 . S
C1805 H1793 0.950 . S
C1805 C1801 1.411 . S
C1805 C1804 1.391 . S
C1806 H1796 0.950 . S
C1806 C1807 1.386 1_545 S
C1806 C1808 1.391 . S
C1807 C1806 1.386 1_565 S
C1807 C1811 1.393 . S
C1808 H1797 0.950 . S
C1808 C1806 1.391 . S
C1808 C1809 1.400 1_545 S
C1809 C1803 1.491 . S
C1809 C1808 1.400 1_565 S
C1809 C1810 1.398 . S
C1810 H1798 0.950 . S
C1810 C1809 1.398 . S
C1810 C1811 1.391 . S
C1811 H1799 0.950 . S
C1811 C1807 1.393 . S
C1811 C1810 1.391 . S
H1812 C1820 0.950 . S
H1813 C1825 0.950 . S
H1814 C1822 0.950 . S
H1815 C1824 0.950 . S
H1816 C1826 0.950 . S
H1817 C1828 0.950 . S
H1818 C1830 0.950 . S
H1819 C1831 0.950 . S
C1820 H1812 0.950 . S
C1820 C1821 1.386 . S
C1820 C1822 1.391 . S
C1821 C1820 1.386 . S
C1821 C1825 1.393 . S
C1822 H1814 0.950 . S
C1822 C1820 1.391 . S
C1822 C1823 1.400 . S
C1823 C1822 1.400 . S
C1823 C1824 1.398 . S
C1823 C1829 1.491 . S
C1824 H1815 0.950 . S
C1824 C1823 1.398 . S
C1824 C1825 1.391 . S
C1825 H1813 0.950 . S
C1825 C1821 1.393 . S
C1825 C1824 1.391 . S
C1826 H1816 0.950 . S
C1826 C1827 1.386 . S
C1826 C1828 1.391 . S
C1827 C1826 1.386 . S
C1827 C1831 1.393 . S
C1828 H1817 0.950 . S
C1828 C1826 1.391 . S
C1828 C1829 1.400 . S
C1829 C1823 1.491 . S
C1829 C1828 1.400 . S
C1829 C1830 1.398 . S
C1830 H1818 0.950 . S
C1830 C1829 1.398 . S
C1830 C1831 1.391 . S
C1831 H1819 0.950 . S
C1831 C1827 1.393 . S
C1831 C1830 1.391 . S
H1832 C1840 0.950 . S
H1833 C1845 0.950 . S
H1834 C1842 0.950 . S
H1835 C1844 0.950 . S
H1836 C1846 0.950 . S
H1837 C1848 0.950 . S
H1838 C1850 0.950 . S
H1839 C1851 0.950 . S
C1840 H1832 0.950 . S
C1840 C1841 1.386 . S
C1840 C1842 1.391 . S
C1841 C1840 1.386 . S
C1841 C1845 1.393 . S
C1842 H1834 0.950 . S
C1842 C1840 1.391 . S
C1842 C1843 1.400 . S
C1843 C1842 1.400 . S
C1843 C1844 1.398 . S
C1843 C1849 1.491 . S
C1844 H1835 0.950 . S
C1844 C1843 1.398 . S
C1844 C1845 1.391 . S
C1845 H1833 0.950 . S
C1845 C1841 1.393 . S
C1845 C1844 1.391 . S
C1846 H1836 0.950 . S
C1846 C1847 1.386 . S
C1846 C1848 1.391 . S
C1847 C1846 1.386 . S
C1847 C1851 1.393 . S
C1848 H1837 0.950 . S
C1848 C1846 1.391 . S
C1848 C1849 1.400 . S
C1849 C1843 1.491 . S
C1849 C1848 1.400 . S
C1849 C1850 1.398 . S
C1850 H1838 0.950 . S
C1850 C1849 1.398 . S
C1850 C1851 1.391 . S
C1851 H1839 0.950 . S
C1851 C1847 1.393 . S
C1851 C1850 1.391 . S
H1852 C1860 0.950 . S
H1853 C1865 0.950 . S
H1854 C1862 0.950 . S
H1855 C1864 0.950 . S
H1856 C1866 0.950 . S
H1857 C1868 0.950 . S
H1858 C1870 0.950 . S
H1859 C1871 0.950 . S
C1860 H1852 0.950 . S
C1860 C1861 1.386 . S
C1860 C1862 1.391 . S
C1861 C1860 1.386 . S
C1861 C1865 1.393 . S
C1862 H1854 0.950 . S
C1862 C1860 1.391 . S
C1862 C1863 1.400 . S
C1863 C1862 1.400 . S
C1863 C1864 1.398 . S
C1863 C1869 1.491 . S
C1864 H1855 0.950 . S
C1864 C1863 1.398 . S
C1864 C1865 1.391 . S
C1865 H1853 0.950 . S
C1865 C1861 1.393 . S
C1865 C1864 1.391 . S
C1866 H1856 0.950 . S
C1866 C1867 1.386 . S
C1866 C1868 1.391 . S
C1867 C1866 1.386 . S
C1867 C1871 1.393 . S
C1868 H1857 0.950 . S
C1868 C1866 1.391 . S
C1868 C1869 1.400 . S
C1869 C1863 1.491 . S
C1869 C1868 1.400 . S
C1869 C1870 1.398 . S
C1870 H1858 0.950 . S
C1870 C1869 1.398 . S
C1870 C1871 1.391 . S
C1871 H1859 0.950 . S
C1871 C1867 1.393 . S
C1871 C1870 1.391 . S
H1872 C1880 0.950 . S
H1873 C1885 0.950 . S
H1874 C1882 0.950 . S
H1875 C1884 0.950 . S
H1876 C1886 0.950 . S
H1877 C1888 0.950 . S
H1878 C1890 0.950 . S
H1879 C1891 0.950 1_455 S
C1880 H1872 0.950 . S
C1880 C1881 1.386 . S
C1880 C1882 1.391 . S
C1881 C1880 1.386 . S
C1881 C1885 1.393 . S
C1882 H1874 0.950 . S
C1882 C1880 1.391 . S
C1882 C1883 1.400 . S
C1883 C1882 1.400 . S
C1883 C1884 1.398 . S
C1883 C1889 1.491 . S
C1884 H1875 0.950 . S
C1884 C1883 1.398 . S
C1884 C1885 1.391 . S
C1885 H1873 0.950 . S
C1885 C1881 1.393 . S
C1885 C1884 1.391 . S
C1886 H1876 0.950 . S
C1886 C1887 1.386 . S
C1886 C1888 1.391 . S
C1887 C1886 1.386 . S
C1887 C1891 1.393 . S
C1888 H1877 0.950 . S
C1888 C1886 1.391 . S
C1888 C1889 1.400 . S
C1889 C1883 1.491 . S
C1889 C1888 1.400 . S
C1889 C1890 1.398 . S
C1890 H1878 0.950 . S
C1890 C1889 1.398 . S
C1890 C1891 1.391 . S
C1891 H1879 0.950 1_655 S
C1891 C1887 1.393 . S
C1891 C1890 1.391 . S
H1892 C1900 0.950 . S
H1893 C1905 0.950 . S
H1894 C1902 0.950 . S
H1895 C1904 0.950 . S
H1896 C1906 0.950 . S
H1897 C1908 0.950 . S
H1898 C1910 0.950 . S
H1899 C1911 0.950 . S
C1900 H1892 0.950 . S
C1900 C1901 1.402 . S
C1900 C1902 1.391 . S
C1901 C1900 1.402 . S
C1901 C1905 1.376 1_556 S
C1902 H1894 0.950 . S
C1902 C1900 1.391 . S
C1902 C1903 1.400 . S
C1903 C1902 1.400 . S
C1903 C1904 1.398 1_556 S
C1903 C1909 1.491 . S
C1904 H1895 0.950 . S
C1904 C1903 1.398 1_554 S
C1904 C1905 1.391 . S
C1905 H1893 0.950 . S
C1905 C1901 1.376 1_554 S
C1905 C1904 1.391 . S
C1906 H1896 0.950 . S
C1906 C1907 1.386 1_554 S
C1906 C1908 1.391 . S
C1907 C1906 1.386 1_556 S
C1907 C1911 1.393 . S
C1908 H1897 0.950 . S
C1908 C1906 1.391 . S
C1908 C1909 1.400 1_554 S
C1909 C1903 1.491 . S
C1909 C1908 1.400 1_556 S
C1909 C1910 1.398 . S
C1910 H1898 0.950 . S
C1910 C1909 1.398 . S
C1910 C1911 1.391 . S
C1911 H1899 0.950 . S
C1911 C1907 1.393 . S
C1911 C1910 1.391 . S
H1912 C1920 0.950 . S
H1913 C1925 0.950 . S
H1914 C1922 0.950 . S
H1915 C1924 0.950 . S
H1916 C1926 0.950 . S
H1917 C1928 0.950 . S
H1918 C1930 0.950 . S
H1919 C1931 0.950 . S
C1920 H1912 0.950 . S
C1920 C1921 1.386 . S
C1920 C1922 1.391 . S
C1921 C1920 1.386 . S
C1921 C1925 1.393 . S
C1922 H1914 0.950 . S
C1922 C1920 1.391 . S
C1922 C1923 1.400 . S
C1923 C1922 1.400 . S
C1923 C1924 1.398 . S
C1923 C1929 1.491 . S
C1924 H1915 0.950 . S
C1924 C1923 1.398 . S
C1924 C1925 1.391 . S
C1925 H1913 0.950 . S
C1925 C1921 1.393 . S
C1925 C1924 1.391 . S
C1926 H1916 0.950 . S
C1926 C1927 1.386 . S
C1926 C1928 1.391 . S
C1927 C1926 1.386 . S
C1927 C1931 1.393 . S
C1928 H1917 0.950 . S
C1928 C1926 1.391 . S
C1928 C1929 1.400 . S
C1929 C1923 1.491 . S
C1929 C1928 1.400 . S
C1929 C1930 1.398 . S
C1930 H1918 0.950 . S
C1930 C1929 1.398 . S
C1930 C1931 1.391 . S
C1931 H1919 0.950 . S
C1931 C1927 1.393 . S
C1931 C1930 1.391 . S
H1932 C1940 0.950 . S
H1933 C1945 0.950 . S
H1934 C1942 0.950 . S
H1935 C1944 0.950 . S
H1936 C1946 0.950 . S
H1937 C1948 0.950 . S
H1938 C1950 0.950 . S
H1939 C1951 0.950 . S
C1940 H1932 0.950 . S
C1940 C1941 1.386 . S
C1940 C1942 1.391 . S
C1941 C1940 1.386 . S
C1941 C1945 1.393 . S
C1942 H1934 0.950 . S
C1942 C1940 1.391 . S
C1942 C1943 1.400 . S
C1943 C1942 1.400 . S
C1943 C1944 1.398 . S
C1943 C1949 1.491 . S
C1944 H1935 0.950 . S
C1944 C1943 1.398 . S
C1944 C1945 1.391 . S
C1945 H1933 0.950 . S
C1945 C1941 1.393 . S
C1945 C1944 1.391 . S
C1946 H1936 0.950 . S
C1946 C1947 1.386 . S
C1946 C1948 1.391 . S
C1947 C1946 1.386 . S
C1947 C1951 1.393 . S
C1948 H1937 0.950 . S
C1948 C1946 1.391 . S
C1948 C1949 1.400 . S
C1949 C1943 1.491 . S
C1949 C1948 1.400 . S
C1949 C1950 1.398 . S
C1950 H1938 0.950 . S
C1950 C1949 1.398 . S
C1950 C1951 1.391 . S
C1951 H1939 0.950 . S
C1951 C1947 1.393 . S
C1951 C1950 1.391 . S
H1952 C1960 0.950 . S
H1953 C1965 0.950 . S
H1954 C1962 0.950 . S
H1955 C1964 0.950 . S
H1956 C1966 0.950 1_545 S
H1957 C1968 0.950 . S
H1958 C1970 0.950 . S
H1959 C1971 0.950 . S
C1960 H1952 0.950 . S
C1960 C1961 1.386 . S
C1960 C1962 1.391 . S
C1961 C1960 1.386 . S
C1961 C1965 1.393 . S
C1962 H1954 0.950 . S
C1962 C1960 1.391 . S
C1962 C1963 1.400 . S
C1963 C1962 1.400 . S
C1963 C1964 1.398 . S
C1963 C1969 1.491 . S
C1964 H1955 0.950 . S
C1964 C1963 1.398 . S
C1964 C1965 1.391 . S
C1965 H1953 0.950 . S
C1965 C1961 1.393 . S
C1965 C1964 1.391 . S
C1966 H1956 0.950 1_565 S
C1966 C1967 1.386 . S
C1966 C1968 1.391 . S
C1967 C1966 1.386 . S
C1967 C1971 1.393 . S
C1968 H1957 0.950 . S
C1968 C1966 1.391 . S
C1968 C1969 1.400 . S
C1969 C1963 1.491 . S
C1969 C1968 1.400 . S
C1969 C1970 1.398 . S
C1970 H1958 0.950 . S
C1970 C1969 1.398 . S
C1970 C1971 1.391 . S
C1971 H1959 0.950 . S
C1971 C1967 1.393 . S
C1971 C1970 1.391 . S
H1972 C1980 0.950 . S
H1973 C1985 0.950 . S
H1974 C1982 0.950 . S
H1975 C1984 0.950 . S
H1976 C1986 0.950 . S
H1977 C1988 0.950 . S
H1978 C1990 0.950 . S
H1979 C1991 0.950 . S
C1980 H1972 0.950 . S
C1980 C1981 1.373 1_655 S
C1980 C1982 1.391 . S
C1981 C1980 1.373 1_455 S
C1981 C1985 1.408 . S
C1982 H1974 0.950 . S
C1982 C1980 1.391 . S
C1982 C1983 1.410 . S
C1983 C1982 1.410 . S
C1983 C1984 1.389 1_655 S
C1983 C1989 1.491 . S
C1984 H1975 0.950 . S
C1984 C1983 1.389 1_455 S
C1984 C1985 1.391 . S
C1985 H1973 0.950 . S
C1985 C1981 1.408 . S
C1985 C1984 1.391 . S
C1986 H1976 0.950 . S
C1986 C1987 1.386 1_455 S
C1986 C1988 1.391 . S
C1987 C1986 1.386 1_655 S
C1987 C1991 1.393 . S
C1988 H1977 0.950 . S
C1988 C1986 1.391 . S
C1988 C1989 1.400 1_455 S
C1989 C1983 1.491 . S
C1989 C1988 1.400 1_655 S
C1989 C1990 1.398 . S
C1990 H1978 0.950 . S
C1990 C1989 1.398 . S
C1990 C1991 1.391 . S
C1991 H1979 0.950 . S
C1991 C1987 1.393 . S
C1991 C1990 1.391 . S
H1992 C2000 0.950 . S
H1993 C2005 0.950 . S
H1994 C2002 0.950 . S
H1995 C2004 0.950 . S
H1996 C2006 0.950 . S
H1997 C2008 0.950 . S
H1998 C2010 0.950 . S
H1999 C2011 0.950 . S
C2000 H1992 0.950 . S
C2000 C2001 1.386 . S
C2000 C2002 1.391 . S
C2001 C2000 1.386 . S
C2001 C2005 1.393 . S
C2002 H1994 0.950 . S
C2002 C2000 1.391 . S
C2002 C2003 1.400 . S
C2003 C2002 1.400 . S
C2003 C2004 1.398 . S
C2003 C2009 1.491 . S
C2004 H1995 0.950 . S
C2004 C2003 1.398 . S
C2004 C2005 1.391 . S
C2005 H1993 0.950 . S
C2005 C2001 1.393 . S
C2005 C2004 1.391 . S
C2006 H1996 0.950 . S
C2006 C2007 1.386 . S
C2006 C2008 1.391 . S
C2007 C2006 1.386 . S
C2007 C2011 1.393 . S
C2008 H1997 0.950 . S
C2008 C2006 1.391 . S
C2008 C2009 1.400 . S
C2009 C2003 1.491 . S
C2009 C2008 1.400 . S
C2009 C2010 1.398 . S
C2010 H1998 0.950 . S
C2010 C2009 1.398 . S
C2010 C2011 1.391 . S
C2011 H1999 0.950 . S
C2011 C2007 1.393 . S
C2011 C2010 1.391 . S
H2012 C2020 0.950 . S
H2013 C2025 0.950 . S
H2014 C2022 0.950 . S
H2015 C2024 0.950 . S
H2016 C2026 0.922 1_556 S
H2017 C2028 0.950 . S
H2018 C2030 0.950 . S
H2019 C2031 0.950 . S
C2020 H2012 0.950 . S
C2020 C2021 1.386 . S
C2020 C2022 1.391 . S
C2021 C2020 1.386 . S
C2021 C2025 1.393 . S
C2022 H2014 0.950 . S
C2022 C2020 1.391 . S
C2022 C2023 1.400 . S
C2023 C2022 1.400 . S
C2023 C2024 1.398 . S
C2023 C2029 1.491 . S
C2024 H2015 0.950 . S
C2024 C2023 1.398 . S
C2024 C2025 1.391 . S
C2025 H2013 0.950 . S
C2025 C2021 1.393 . S
C2025 C2024 1.391 . S
C2026 H2016 0.922 1_554 S
C2026 C2027 1.386 . S
C2026 C2028 1.391 . S
C2027 C2026 1.386 . S
C2027 C2031 1.393 . S
C2028 H2017 0.950 . S
C2028 C2026 1.391 . S
C2028 C2029 1.400 . S
C2029 C2023 1.491 . S
C2029 C2028 1.400 . S
C2029 C2030 1.398 . S
C2030 H2018 0.950 . S
C2030 C2029 1.398 . S
C2030 C2031 1.391 . S
C2031 H2019 0.950 . S
C2031 C2027 1.393 . S
C2031 C2030 1.391 . S
H2032 C2040 0.950 . S
H2033 C2045 0.950 . S
H2034 C2042 0.950 . S
H2035 C2044 0.950 . S
H2036 C2046 0.950 . S
H2037 C2048 0.950 . S
H2038 C2050 0.950 . S
H2039 C2051 0.950 . S
C2040 H2032 0.950 . S
C2040 C2041 1.400 . S
C2040 C2042 1.391 . S
C2041 C2040 1.400 . S
C2041 C2045 1.381 1_565 S
C2042 H2034 0.950 . S
C2042 C2040 1.391 . S
C2042 C2043 1.386 1_565 S
C2043 C2042 1.386 1_545 S
C2043 C2044 1.414 . S
C2043 C2049 1.490 . S
C2044 H2035 0.950 . S
C2044 C2043 1.414 . S
C2044 C2045 1.391 . S
C2045 H2033 0.950 . S
C2045 C2041 1.381 1_545 S
C2045 C2044 1.391 . S
C2046 H2036 0.950 . S
C2046 C2047 1.386 . S
C2046 C2048 1.391 . S
C2047 C2046 1.386 . S
C2047 C2051 1.393 1_545 S
C2048 H2037 0.950 . S
C2048 C2046 1.391 . S
C2048 C2049 1.400 . S
C2049 C2043 1.490 . S
C2049 C2048 1.400 . S
C2049 C2050 1.398 1_545 S
C2050 H2038 0.950 . S
C2050 C2049 1.398 1_565 S
C2050 C2051 1.391 . S
C2051 H2039 0.950 . S
C2051 C2047 1.393 1_565 S
C2051 C2050 1.391 . S
H2052 C2060 0.950 . S
H2053 C2065 0.950 . S
H2054 C2062 0.950 . S
H2055 C2064 0.950 . S
H2056 C2066 0.950 . S
H2057 C2068 0.950 . S
H2058 C2070 0.950 . S
H2059 C2071 0.950 . S
C2060 H2052 0.950 . S
C2060 C2061 1.386 . S
C2060 C2062 1.391 . S
C2061 C2060 1.386 . S
C2061 C2065 1.393 . S
C2062 H2054 0.950 . S
C2062 C2060 1.391 . S
C2062 C2063 1.400 . S
C2063 C2062 1.400 . S
C2063 C2064 1.398 . S
C2063 C2069 1.491 . S
C2064 H2055 0.950 . S
C2064 C2063 1.398 . S
C2064 C2065 1.391 . S
C2065 H2053 0.950 . S
C2065 C2061 1.393 . S
C2065 C2064 1.391 . S
C2066 H2056 0.950 . S
C2066 C2067 1.386 . S
C2066 C2068 1.391 . S
C2067 C2066 1.386 . S
C2067 C2071 1.393 . S
C2068 H2057 0.950 . S
C2068 C2066 1.391 . S
C2068 C2069 1.400 . S
C2069 C2063 1.491 . S
C2069 C2068 1.400 . S
C2069 C2070 1.398 . S
C2070 H2058 0.950 . S
C2070 C2069 1.398 . S
C2070 C2071 1.391 . S
C2071 H2059 0.950 . S
C2071 C2067 1.393 . S
C2071 C2070 1.391 . S
H2072 C2080 0.950 . S
H2073 C2085 0.950 . S
H2074 C2082 0.950 . S
H2075 C2084 0.950 . S
H2076 C2086 0.950 . S
H2077 C2088 0.950 . S
H2078 C2090 0.950 . S
H2079 C2091 0.950 . S
C2080 H2072 0.950 . S
C2080 C2081 1.386 . S
C2080 C2082 1.391 . S
C2081 C2080 1.386 . S
C2081 C2085 1.393 . S
C2082 H2074 0.950 . S
C2082 C2080 1.391 . S
C2082 C2083 1.400 . S
C2083 C2082 1.400 . S
C2083 C2084 1.398 . S
C2083 C2089 1.491 . S
C2084 H2075 0.950 . S
C2084 C2083 1.398 . S
C2084 C2085 1.391 . S
C2085 H2073 0.950 . S
C2085 C2081 1.393 . S
C2085 C2084 1.391 . S
C2086 H2076 0.950 . S
C2086 C2087 1.386 . S
C2086 C2088 1.391 . S
C2087 C2086 1.386 . S
C2087 C2091 1.393 . S
C2088 H2077 0.950 . S
C2088 C2086 1.391 . S
C2088 C2089 1.400 . S
C2089 C2083 1.491 . S
C2089 C2088 1.400 . S
C2089 C2090 1.398 . S
C2090 H2078 0.950 . S
C2090 C2089 1.398 . S
C2090 C2091 1.391 . S
C2091 H2079 0.950 . S
C2091 C2087 1.393 . S
C2091 C2090 1.391 . S
H2092 C2100 0.950 . S
H2093 C2105 0.950 . S
H2094 C2102 0.950 . S
H2095 C2104 0.950 . S
H2096 C2106 0.950 . S
H2097 C2108 0.950 . S
H2098 C2110 0.950 . S
H2099 C2111 0.950 . S
C2100 H2092 0.950 . S
C2100 C2101 1.386 . S
C2100 C2102 1.391 . S
C2101 C2100 1.386 . S
C2101 C2105 1.393 . S
C2102 H2094 0.950 . S
C2102 C2100 1.391 . S
C2102 C2103 1.400 . S
C2103 C2102 1.400 . S
C2103 C2104 1.398 . S
C2103 C2109 1.491 . S
C2104 H2095 0.950 . S
C2104 C2103 1.398 . S
C2104 C2105 1.391 . S
C2105 H2093 0.950 . S
C2105 C2101 1.393 . S
C2105 C2104 1.391 . S
C2106 H2096 0.950 . S
C2106 C2107 1.386 . S
C2106 C2108 1.391 . S
C2107 C2106 1.386 . S
C2107 C2111 1.393 . S
C2108 H2097 0.950 . S
C2108 C2106 1.391 . S
C2108 C2109 1.400 . S
C2109 C2103 1.491 . S
C2109 C2108 1.400 . S
C2109 C2110 1.398 . S
C2110 H2098 0.950 . S
C2110 C2109 1.398 . S
C2110 C2111 1.391 . S
C2111 H2099 0.950 . S
C2111 C2107 1.393 . S
C2111 C2110 1.391 . S
H2112 C2120 0.950 . S
H2113 C2125 0.950 . S
H2114 C2122 0.950 . S
H2115 C2124 0.950 . S
H2116 C2126 0.950 . S
H2117 C2128 0.950 . S
H2118 C2130 0.950 . S
H2119 C2131 0.950 . S
C2120 H2112 0.950 . S
C2120 C2121 1.386 . S
C2120 C2122 1.391 . S
C2121 C2120 1.386 . S
C2121 C2125 1.393 . S
C2122 H2114 0.950 . S
C2122 C2120 1.391 . S
C2122 C2123 1.400 . S
C2123 C2122 1.400 . S
C2123 C2124 1.398 . S
C2123 C2129 1.491 . S
C2124 H2115 0.950 . S
C2124 C2123 1.398 . S
C2124 C2125 1.391 . S
C2125 H2113 0.950 . S
C2125 C2121 1.393 . S
C2125 C2124 1.391 . S
C2126 H2116 0.950 . S
C2126 C2127 1.386 . S
C2126 C2128 1.391 . S
C2127 C2126 1.386 . S
C2127 C2131 1.393 . S
C2128 H2117 0.950 . S
C2128 C2126 1.391 . S
C2128 C2129 1.400 . S
C2129 C2123 1.491 . S
C2129 C2128 1.400 . S
C2129 C2130 1.398 . S
C2130 H2118 0.950 . S
C2130 C2129 1.398 . S
C2130 C2131 1.391 . S
C2131 H2119 0.950 . S
C2131 C2127 1.393 . S
C2131 C2130 1.391 . S
H2132 C2140 0.950 . S
H2133 C2145 0.950 . S
H2134 C2142 0.950 . S
H2135 C2144 0.950 . S
H2136 C2146 0.950 . S
H2137 C2148 0.950 . S
H2138 C2150 0.950 . S
H2139 C2151 0.950 . S
C2140 H2132 0.950 . S
C2140 C2141 1.393 . S
C2140 C2142 1.391 . S
C2141 C2140 1.393 . S
C2141 C2145 1.388 1_556 S
C2142 H2134 0.950 . S
C2142 C2140 1.391 . S
C2142 C2143 1.397 1_556 S
C2143 C2142 1.397 1_554 S
C2143 C2144 1.403 . S
C2143 C2149 1.491 . S
C2144 H2135 0.950 . S
C2144 C2143 1.403 . S
C2144 C2145 1.391 . S
C2145 H2133 0.950 . S
C2145 C2141 1.388 1_554 S
C2145 C2144 1.391 . S
C2146 H2136 0.950 . S
C2146 C2147 1.386 . S
C2146 C2148 1.391 . S
C2147 C2146 1.386 . S
C2147 C2151 1.393 1_554 S
C2148 H2137 0.950 . S
C2148 C2146 1.391 . S
C2148 C2149 1.400 . S
C2149 C2143 1.491 . S
C2149 C2148 1.400 . S
C2149 C2150 1.398 1_554 S
C2150 H2138 0.950 . S
C2150 C2149 1.398 1_556 S
C2150 C2151 1.391 . S
C2151 H2139 0.950 . S
C2151 C2147 1.393 1_556 S
C2151 C2150 1.391 . S
H2152 C2160 0.950 . S
H2153 C2165 0.950 . S
H2154 C2162 0.950 . S
H2155 C2164 0.950 . S
H2156 C2166 0.950 . S
H2157 C2168 0.950 . S
H2158 C2170 0.950 . S
H2159 C2171 0.950 . S
C2160 H2152 0.950 . S
C2160 C2161 1.386 . S
C2160 C2162 1.391 . S
C2161 C2160 1.386 . S
C2161 C2165 1.393 . S
C2162 H2154 0.950 . S
C2162 C2160 1.391 . S
C2162 C2163 1.400 . S
C2163 C2162 1.400 . S
C2163 C2164 1.398 . S
C2163 C2169 1.491 . S
C2164 H2155 0.950 . S
C2164 C2163 1.398 . S
C2164 C2165 1.391 . S
C2165 H2153 0.950 . S
C2165 C2161 1.393 . S
C2165 C2164 1.391 . S
C2166 H2156 0.950 . S
C2166 C2167 1.386 . S
C2166 C2168 1.391 . S
C2167 C2166 1.386 . S
C2167 C2171 1.393 . S
C2168 H2157 0.950 . S
C2168 C2166 1.391 . S
C2168 C2169 1.400 . S
C2169 C2163 1.491 . S
C2169 C2168 1.400 . S
C2169 C2170 1.398 . S
C2170 H2158 0.950 . S
C2170 C2169 1.398 . S
C2170 C2171 1.391 . S
C2171 H2159 0.950 . S
C2171 C2167 1.393 . S
C2171 C2170 1.391 . S
H2172 C2180 0.950 . S
H2173 C2185 0.950 . S
H2174 C2182 0.950 . S
H2175 C2184 0.950 . S
H2176 C2186 0.950 . S
H2177 C2188 0.950 . S
H2178 C2190 0.950 . S
H2179 C2191 0.950 . S
C2180 H2172 0.950 . S
C2180 C2181 1.386 . S
C2180 C2182 1.391 . S
C2181 C2180 1.386 . S
C2181 C2185 1.393 . S
C2182 H2174 0.950 . S
C2182 C2180 1.391 . S
C2182 C2183 1.400 . S
C2183 C2182 1.400 . S
C2183 C2184 1.398 . S
C2183 C2189 1.491 . S
C2184 H2175 0.950 . S
C2184 C2183 1.398 . S
C2184 C2185 1.391 . S
C2185 H2173 0.950 . S
C2185 C2181 1.393 . S
C2185 C2184 1.391 . S
C2186 H2176 0.950 . S
C2186 C2187 1.386 . S
C2186 C2188 1.391 . S
C2187 C2186 1.386 . S
C2187 C2191 1.393 . S
C2188 H2177 0.950 . S
C2188 C2186 1.391 . S
C2188 C2189 1.400 . S
C2189 C2183 1.491 . S
C2189 C2188 1.400 . S
C2189 C2190 1.398 . S
C2190 H2178 0.950 . S
C2190 C2189 1.398 . S
C2190 C2191 1.391 . S
C2191 H2179 0.950 . S
C2191 C2187 1.393 . S
C2191 C2190 1.391 . S
H2192 C2200 0.950 . S
H2193 C2205 0.950 . S
H2194 C2202 0.950 . S
H2195 C2204 0.950 . S
H2196 C2206 0.950 . S
H2197 C2208 0.950 . S
H2198 C2210 0.950 . S
H2199 C2211 0.950 . S
C2200 H2192 0.950 . S
C2200 C2201 1.386 . S
C2200 C2202 1.391 . S
C2201 C2200 1.386 . S
C2201 C2205 1.393 . S
C2202 H2194 0.950 . S
C2202 C2200 1.391 . S
C2202 C2203 1.400 . S
C2203 C2202 1.400 . S
C2203 C2204 1.398 . S
C2203 C2209 1.491 . S
C2204 H2195 0.950 . S
C2204 C2203 1.398 . S
C2204 C2205 1.391 . S
C2205 H2193 0.950 . S
C2205 C2201 1.393 . S
C2205 C2204 1.391 . S
C2206 H2196 0.950 . S
C2206 C2207 1.386 . S
C2206 C2208 1.391 . S
C2207 C2206 1.386 . S
C2207 C2211 1.393 . S
C2208 H2197 0.950 . S
C2208 C2206 1.391 . S
C2208 C2209 1.400 . S
C2209 C2203 1.491 . S
C2209 C2208 1.400 . S
C2209 C2210 1.398 . S
C2210 H2198 0.950 . S
C2210 C2209 1.398 . S
C2210 C2211 1.391 . S
C2211 H2199 0.950 . S
C2211 C2207 1.393 . S
C2211 C2210 1.391 . S
H2212 C2220 0.950 . S
H2213 C2225 0.950 . S
H2214 C2222 0.950 . S
H2215 C2224 0.950 . S
H2216 C2226 0.950 . S
H2217 C2228 0.950 . S
H2218 C2230 0.950 . S
H2219 C2231 0.950 . S
C2220 H2212 0.950 . S
C2220 C2221 1.390 . S
C2220 C2222 1.391 . S
C2221 C2220 1.390 . S
C2221 C2225 1.392 1_655 S
C2222 H2214 0.950 . S
C2222 C2220 1.391 . S
C2222 C2223 1.399 1_655 S
C2223 C2222 1.399 1_455 S
C2223 C2224 1.400 . S
C2223 C2229 1.491 . S
C2224 H2215 0.950 . S
C2224 C2223 1.400 . S
C2224 C2225 1.391 . S
C2225 H2213 0.950 . S
C2225 C2221 1.392 1_455 S
C2225 C2224 1.391 . S
C2226 H2216 0.950 . S
C2226 C2227 1.386 . S
C2226 C2228 1.391 . S
C2227 C2226 1.386 . S
C2227 C2231 1.393 1_455 S
C2228 H2217 0.950 . S
C2228 C2226 1.391 . S
C2228 C2229 1.400 . S
C2229 C2223 1.491 . S
C2229 C2228 1.400 . S
C2229 C2230 1.398 1_455 S
C2230 H2218 0.950 . S
C2230 C2229 1.398 1_655 S
C2230 C2231 1.391 . S
C2231 H2219 0.950 . S
C2231 C2227 1.393 1_655 S
C2231 C2230 1.391 . S
H2232 C2240 0.950 . S
H2233 C2245 0.950 . S
H2234 C2242 0.950 . S
H2235 C2244 0.950 . S
H2236 C2246 0.950 . S
H2237 C2248 0.950 . S
H2238 C2250 0.950 . S
H2239 C2251 0.950 . S
C2240 H2232 0.950 . S
C2240 C2241 1.386 . S
C2240 C2242 1.391 . S
C2241 C2240 1.386 . S
C2241 C2245 1.393 . S
C2242 H2234 0.950 . S
C2242 C2240 1.391 . S
C2242 C2243 1.400 . S
C2243 C2242 1.400 . S
C2243 C2244 1.398 . S
C2243 C2249 1.491 . S
C2244 H2235 0.950 . S
C2244 C2243 1.398 . S
C2244 C2245 1.391 . S
C2245 H2233 0.950 . S
C2245 C2241 1.393 . S
C2245 C2244 1.391 . S
C2246 H2236 0.950 . S
C2246 C2247 1.386 . S
C2246 C2248 1.391 . S
C2247 C2246 1.386 . S
C2247 C2251 1.393 . S
C2248 H2237 0.950 . S
C2248 C2246 1.391 . S
C2248 C2249 1.400 . S
C2249 C2243 1.491 . S
C2249 C2248 1.400 . S
C2249 C2250 1.398 . S
C2250 H2238 0.950 . S
C2250 C2249 1.398 . S
C2250 C2251 1.391 . S
C2251 H2239 0.950 . S
C2251 C2247 1.393 . S
C2251 C2250 1.391 . S
H2252 C2260 0.950 . S
H2253 C2265 0.950 . S
H2254 C2262 0.950 . S
H2255 C2264 0.950 . S
H2256 C2266 0.950 . S
H2257 C2268 0.950 . S
H2258 C2270 0.950 . S
H2259 C2271 0.950 . S
C2260 H2252 0.950 . S
C2260 C2261 1.386 . S
C2260 C2262 1.391 . S
C2261 C2260 1.386 . S
C2261 C2265 1.393 . S
C2262 H2254 0.950 . S
C2262 C2260 1.391 . S
C2262 C2263 1.400 . S
C2263 C2262 1.400 . S
C2263 C2264 1.398 . S
C2263 C2269 1.491 . S
C2264 H2255 0.950 . S
C2264 C2263 1.398 . S
C2264 C2265 1.391 . S
C2265 H2253 0.950 . S
C2265 C2261 1.393 . S
C2265 C2264 1.391 . S
C2266 H2256 0.950 . S
C2266 C2267 1.386 . S
C2266 C2268 1.391 . S
C2267 C2266 1.386 . S
C2267 C2271 1.393 . S
C2268 H2257 0.950 . S
C2268 C2266 1.391 . S
C2268 C2269 1.400 . S
C2269 C2263 1.491 . S
C2269 C2268 1.400 . S
C2269 C2270 1.398 . S
C2270 H2258 0.950 . S
C2270 C2269 1.398 . S
C2270 C2271 1.391 . S
C2271 H2259 0.950 . S
C2271 C2267 1.393 . S
C2271 C2270 1.391 . S
H2272 C2280 0.950 . S
H2273 C2285 0.950 . S
H2274 C2282 0.950 . S
H2275 C2284 0.950 . S
H2276 C2286 0.950 . S
H2277 C2288 0.950 . S
H2278 C2290 0.950 . S
H2279 C2291 0.950 . S
C2280 H2272 0.950 . S
C2280 C2281 1.435 . S
C2280 C2282 1.391 . S
C2281 C2280 1.435 . S
C2281 C2285 1.357 1_565 S
C2282 H2274 0.950 . S
C2282 C2280 1.391 . S
C2282 C2283 1.400 . S
C2283 C2282 1.400 . S
C2283 C2284 1.398 1_565 S
C2283 C2289 1.491 . S
C2284 H2275 0.950 . S
C2284 C2283 1.398 1_545 S
C2284 C2285 1.391 . S
C2285 H2273 0.950 . S
C2285 C2281 1.357 1_545 S
C2285 C2284 1.391 . S
C2286 H2276 0.950 . S
C2286 C2287 1.386 1_545 S
C2286 C2288 1.391 . S
C2287 C2286 1.386 1_565 S
C2287 C2291 1.393 . S
C2288 H2277 0.950 . S
C2288 C2286 1.391 . S
C2288 C2289 1.400 1_545 S
C2289 C2283 1.491 . S
C2289 C2288 1.400 1_565 S
C2289 C2290 1.398 . S
C2290 H2278 0.950 . S
C2290 C2289 1.398 . S
C2290 C2291 1.391 . S
C2291 H2279 0.950 . S
C2291 C2287 1.393 . S
C2291 C2290 1.391 . S
H2292 C2300 0.950 . S
H2293 C2305 0.950 . S
H2294 C2302 0.950 . S
H2295 C2304 0.951 . S
H2296 C2306 0.950 1_565 S
H2297 C2308 0.950 1_565 S
H2298 C2310 0.950 . S
H2299 C2311 0.950 . S
C2300 H2292 0.950 . S
C2300 C2301 1.386 . S
C2300 C2302 1.391 . S
C2301 C2300 1.386 . S
C2301 C2305 1.393 . S
C2302 H2294 0.950 . S
C2302 C2300 1.391 . S
C2302 C2303 1.400 . S
C2303 C2302 1.400 . S
C2303 C2304 1.398 . S
C2303 C2309 1.491 . S
C2304 H2295 0.951 . S
C2304 C2303 1.398 . S
C2304 C2305 1.391 . S
C2305 H2293 0.950 . S
C2305 C2301 1.393 . S
C2305 C2304 1.391 . S
C2306 H2296 0.950 1_545 S
C2306 C2307 1.386 . S
C2306 C2308 1.391 . S
C2307 C2306 1.386 . S
C2307 C2311 1.393 . S
C2308 H2297 0.950 1_545 S
C2308 C2306 1.391 . S
C2308 C2309 1.400 . S
C2309 C2303 1.491 . S
C2309 C2308 1.400 . S
C2309 C2310 1.398 . S
C2310 H2298 0.950 . S
C2310 C2309 1.398 . S
C2310 C2311 1.391 . S
C2311 H2299 0.950 . S
C2311 C2307 1.393 . S
C2311 C2310 1.391 . S
H2312 C2320 0.950 . S
H2313 C2325 0.950 . S
H2314 C2322 0.950 . S
H2315 C2324 0.950 . S
H2316 C2326 0.950 . S
H2317 C2328 0.950 . S
H2318 C2330 0.950 . S
H2319 C2331 0.950 . S
C2320 H2312 0.950 . S
C2320 C2321 1.386 . S
C2320 C2322 1.391 . S
C2321 C2320 1.386 . S
C2321 C2325 1.393 . S
C2322 H2314 0.950 . S
C2322 C2320 1.391 . S
C2322 C2323 1.400 . S
C2323 C2322 1.400 . S
C2323 C2324 1.398 . S
C2323 C2329 1.491 . S
C2324 H2315 0.950 . S
C2324 C2323 1.398 . S
C2324 C2325 1.391 . S
C2325 H2313 0.950 . S
C2325 C2321 1.393 . S
C2325 C2324 1.391 . S
C2326 H2316 0.950 . S
C2326 C2327 1.386 . S
C2326 C2328 1.391 . S
C2327 C2326 1.386 . S
C2327 C2331 1.393 . S
C2328 H2317 0.950 . S
C2328 C2326 1.391 . S
C2328 C2329 1.400 . S
C2329 C2323 1.491 . S
C2329 C2328 1.400 . S
C2329 C2330 1.398 . S
C2330 H2318 0.950 . S
C2330 C2329 1.398 . S
C2330 C2331 1.391 . S
C2331 H2319 0.950 . S
C2331 C2327 1.393 . S
C2331 C2330 1.391 . S
H2332 C2340 0.950 . S
H2333 C2345 0.950 . S
H2334 C2342 0.950 . S
H2335 C2344 0.950 . S
H2336 C2346 0.938 1_556 S
H2337 C2348 0.950 . S
H2338 C2350 0.950 . S
H2339 C2351 0.950 . S
C2340 H2332 0.950 . S
C2340 C2341 1.386 . S
C2340 C2342 1.391 . S
C2341 C2340 1.386 . S
C2341 C2345 1.393 . S
C2342 H2334 0.950 . S
C2342 C2340 1.391 . S
C2342 C2343 1.400 . S
C2343 C2342 1.400 . S
C2343 C2344 1.398 . S
C2343 C2349 1.491 . S
C2344 H2335 0.950 . S
C2344 C2343 1.398 . S
C2344 C2345 1.391 . S
C2345 H2333 0.950 . S
C2345 C2341 1.393 . S
C2345 C2344 1.391 . S
C2346 H2336 0.938 1_554 S
C2346 C2347 1.386 . S
C2346 C2348 1.391 . S
C2347 C2346 1.386 . S
C2347 C2351 1.393 . S
C2348 H2337 0.950 . S
C2348 C2346 1.391 . S
C2348 C2349 1.400 . S
C2349 C2343 1.491 . S
C2349 C2348 1.400 . S
C2349 C2350 1.398 . S
C2350 H2338 0.950 . S
C2350 C2349 1.398 . S
C2350 C2351 1.391 . S
C2351 H2339 0.950 . S
C2351 C2347 1.393 . S
C2351 C2350 1.391 . S
H2352 C2360 0.950 . S
H2353 C2365 0.950 . S
H2354 C2362 0.950 . S
H2355 C2364 0.950 . S
H2356 C2366 0.950 . S
H2357 C2368 0.950 . S
H2358 C2370 0.950 . S
H2359 C2371 0.950 . S
C2360 H2352 0.950 . S
C2360 C2361 1.386 . S
C2360 C2362 1.391 . S
C2361 C2360 1.386 . S
C2361 C2365 1.393 . S
C2362 H2354 0.950 . S
C2362 C2360 1.391 . S
C2362 C2363 1.400 . S
C2363 C2362 1.400 . S
C2363 C2364 1.398 . S
C2363 C2369 1.491 . S
C2364 H2355 0.950 . S
C2364 C2363 1.398 . S
C2364 C2365 1.391 . S
C2365 H2353 0.950 . S
C2365 C2361 1.393 . S
C2365 C2364 1.391 . S
C2366 H2356 0.950 . S
C2366 C2367 1.386 . S
C2366 C2368 1.391 . S
C2367 C2366 1.386 . S
C2367 C2371 1.393 . S
C2368 H2357 0.950 . S
C2368 C2366 1.391 . S
C2368 C2369 1.400 . S
C2369 C2363 1.491 . S
C2369 C2368 1.400 . S
C2369 C2370 1.398 . S
C2370 H2358 0.950 . S
C2370 C2369 1.398 . S
C2370 C2371 1.391 . S
C2371 H2359 0.950 . S
C2371 C2367 1.393 . S
C2371 C2370 1.391 . S
H2372 C2380 0.950 . S
H2373 C2385 0.950 . S
H2374 C2382 0.950 . S
H2375 C2384 0.950 . S
H2376 C2386 0.950 . S
H2377 C2388 0.950 . S
H2378 C2390 0.950 . S
H2379 C2391 0.950 . S
C2380 H2372 0.950 . S
C2380 C2381 1.386 . S
C2380 C2382 1.391 . S
C2381 C2380 1.386 . S
C2381 C2385 1.393 1_556 S
C2382 H2374 0.950 . S
C2382 C2380 1.391 . S
C2382 C2383 1.400 . S
C2383 C2382 1.400 . S
C2383 C2384 1.398 1_556 S
C2383 C2389 1.491 . S
C2384 H2375 0.950 . S
C2384 C2383 1.398 1_554 S
C2384 C2385 1.391 . S
C2385 H2373 0.950 . S
C2385 C2381 1.393 1_554 S
C2385 C2384 1.391 . S
C2386 H2376 0.950 . S
C2386 C2387 1.386 1_554 S
C2386 C2388 1.391 . S
C2387 C2386 1.386 1_556 S
C2387 C2391 1.393 . S
C2388 H2377 0.950 . S
C2388 C2386 1.391 . S
C2388 C2389 1.400 1_554 S
C2389 C2383 1.491 . S
C2389 C2388 1.400 1_556 S
C2389 C2390 1.398 . S
C2390 H2378 0.950 . S
C2390 C2389 1.398 . S
C2390 C2391 1.391 . S
C2391 H2379 0.950 . S
C2391 C2387 1.393 . S
C2391 C2390 1.391 . S
H2392 C2400 0.950 . S
H2393 C2405 0.950 . S
H2394 C2402 0.950 . S
H2395 C2404 0.950 . S
H2396 C2406 0.950 . S
H2397 C2408 0.950 . S
H2398 C2410 0.950 . S
H2399 C2411 0.950 . S
C2400 H2392 0.950 . S
C2400 C2401 1.386 . S
C2400 C2402 1.391 . S
C2401 C2400 1.386 . S
C2401 C2405 1.393 . S
C2402 H2394 0.950 . S
C2402 C2400 1.391 . S
C2402 C2403 1.400 . S
C2403 C2402 1.400 . S
C2403 C2404 1.398 . S
C2403 C2409 1.491 . S
C2404 H2395 0.950 . S
C2404 C2403 1.398 . S
C2404 C2405 1.391 . S
C2405 H2393 0.950 . S
C2405 C2401 1.393 . S
C2405 C2404 1.391 . S
C2406 H2396 0.950 . S
C2406 C2407 1.386 . S
C2406 C2408 1.391 . S
C2407 C2406 1.386 . S
C2407 C2411 1.393 . S
C2408 H2397 0.950 . S
C2408 C2406 1.391 . S
C2408 C2409 1.400 . S
C2409 C2403 1.491 . S
C2409 C2408 1.400 . S
C2409 C2410 1.398 . S
C2410 H2398 0.950 . S
C2410 C2409 1.398 . S
C2410 C2411 1.391 . S
C2411 H2399 0.950 . S
C2411 C2407 1.393 . S
C2411 C2410 1.391 . S
H2412 C2420 0.950 1_655 S
H2413 C2425 0.950 . S
H2414 C2422 0.979 . S
H2415 C2424 0.950 . S
H2416 C2426 0.950 . S
H2417 C2428 0.950 . S
H2418 C2430 0.950 . S
H2419 C2431 0.950 . S
C2420 H2412 0.950 1_455 S
C2420 C2421 1.386 . S
C2420 C2422 1.391 1_455 S
C2421 C2420 1.386 . S
C2421 C2425 1.393 . S
C2422 H2414 0.979 . S
C2422 C2420 1.391 1_655 S
C2422 C2423 1.373 1_655 S
C2423 C2422 1.373 1_455 S
C2423 C2424 1.398 . S
C2423 C2429 1.491 . S
C2424 H2415 0.950 . S
C2424 C2423 1.398 . S
C2424 C2425 1.391 . S
C2425 H2413 0.950 . S
C2425 C2421 1.393 . S
C2425 C2424 1.391 . S
C2426 H2416 0.950 . S
C2426 C2427 1.386 . S
C2426 C2428 1.391 . S
C2427 C2426 1.386 . S
C2427 C2431 1.393 1_455 S
C2428 H2417 0.950 . S
C2428 C2426 1.391 . S
C2428 C2429 1.400 . S
C2429 C2423 1.491 . S
C2429 C2428 1.400 . S
C2429 C2430 1.398 1_455 S
C2430 H2418 0.950 . S
C2430 C2429 1.398 1_655 S
C2430 C2431 1.391 . S
C2431 H2419 0.950 . S
C2431 C2427 1.393 1_655 S
C2431 C2430 1.391 . S
H2432 C2440 0.950 . S
H2433 C2445 0.950 . S
H2434 C2442 0.950 . S
H2435 C2444 0.950 . S
H2436 C2446 0.950 . S
H2437 C2448 0.950 . S
H2438 C2450 0.950 . S
H2439 C2451 0.950 . S
C2440 H2432 0.950 . S
C2440 C2441 1.386 . S
C2440 C2442 1.391 . S
C2441 C2440 1.386 . S
C2441 C2445 1.393 . S
C2442 H2434 0.950 . S
C2442 C2440 1.391 . S
C2442 C2443 1.400 . S
C2443 C2442 1.400 . S
C2443 C2444 1.398 . S
C2443 C2449 1.491 . S
C2444 H2435 0.950 . S
C2444 C2443 1.398 . S
C2444 C2445 1.391 . S
C2445 H2433 0.950 . S
C2445 C2441 1.393 . S
C2445 C2444 1.391 . S
C2446 H2436 0.950 . S
C2446 C2447 1.386 . S
C2446 C2448 1.391 . S
C2447 C2446 1.386 . S
C2447 C2451 1.393 . S
C2448 H2437 0.950 . S
C2448 C2446 1.391 . S
C2448 C2449 1.400 . S
C2449 C2443 1.491 . S
C2449 C2448 1.400 . S
C2449 C2450 1.398 . S
C2450 H2438 0.950 . S
C2450 C2449 1.398 . S
C2450 C2451 1.391 . S
C2451 H2439 0.950 . S
C2451 C2447 1.393 . S
C2451 C2450 1.391 . S
H2452 C2460 0.950 . S
H2453 C2465 0.950 . S
H2454 C2462 0.950 . S
H2455 C2464 0.950 . S
H2456 C2466 0.950 . S
H2457 C2468 0.950 . S
H2458 C2470 0.950 . S
H2459 C2471 0.950 . S
C2460 H2452 0.950 . S
C2460 C2461 1.386 . S
C2460 C2462 1.391 . S
C2461 C2460 1.386 . S
C2461 C2465 1.393 1_655 S
C2462 H2454 0.950 . S
C2462 C2460 1.391 . S
C2462 C2463 1.400 . S
C2463 C2462 1.400 . S
C2463 C2464 1.398 1_655 S
C2463 C2469 1.491 . S
C2464 H2455 0.950 . S
C2464 C2463 1.398 1_455 S
C2464 C2465 1.391 . S
C2465 H2453 0.950 . S
C2465 C2461 1.393 1_455 S
C2465 C2464 1.391 . S
C2466 H2456 0.950 . S
C2466 C2467 1.386 1_455 S
C2466 C2468 1.391 . S
C2467 C2466 1.386 1_655 S
C2467 C2471 1.393 . S
C2468 H2457 0.950 . S
C2468 C2466 1.391 . S
C2468 C2469 1.400 1_455 S
C2469 C2463 1.491 . S
C2469 C2468 1.400 1_655 S
C2469 C2470 1.398 . S
C2470 H2458 0.950 . S
C2470 C2469 1.398 . S
C2470 C2471 1.391 . S
C2471 H2459 0.950 . S
C2471 C2467 1.393 . S
C2471 C2470 1.391 . S
H2472 C2480 0.950 . S
H2473 C2485 0.950 . S
H2474 C2482 0.950 . S
H2475 C2484 0.950 . S
H2476 C2486 0.950 . S
H2477 C2488 0.950 . S
H2478 C2490 0.950 . S
H2479 C2491 0.950 . S
C2480 H2472 0.950 . S
C2480 C2481 1.386 . S
C2480 C2482 1.391 . S
C2481 C2480 1.386 . S
C2481 C2485 1.393 . S
C2482 H2474 0.950 . S
C2482 C2480 1.391 . S
C2482 C2483 1.400 . S
C2483 C2482 1.400 . S
C2483 C2484 1.398 . S
C2483 C2489 1.491 . S
C2484 H2475 0.950 . S
C2484 C2483 1.398 . S
C2484 C2485 1.391 . S
C2485 H2473 0.950 . S
C2485 C2481 1.393 . S
C2485 C2484 1.391 . S
C2486 H2476 0.950 . S
C2486 C2487 1.386 . S
C2486 C2488 1.391 . S
C2487 C2486 1.386 . S
C2487 C2491 1.393 . S
C2488 H2477 0.950 . S
C2488 C2486 1.391 . S
C2488 C2489 1.400 . S
C2489 C2483 1.491 . S
C2489 C2488 1.400 . S
C2489 C2490 1.398 . S
C2490 H2478 0.950 . S
C2490 C2489 1.398 . S
C2490 C2491 1.391 . S
C2491 H2479 0.950 . S
C2491 C2487 1.393 . S
C2491 C2490 1.391 . S
H2492 C2500 0.950 . S
H2493 C2505 0.950 . S
H2494 C2502 0.950 . S
H2495 C2504 0.950 . S
H2496 C2506 0.950 . S
H2497 C2508 0.950 . S
H2498 C2510 0.950 . S
H2499 C2511 0.950 . S
C2500 H2492 0.950 . S
C2500 C2501 1.386 . S
C2500 C2502 1.391 . S
C2501 C2500 1.386 . S
C2501 C2505 1.393 . S
C2502 H2494 0.950 . S
C2502 C2500 1.391 . S
C2502 C2503 1.400 . S
C2503 C2502 1.400 . S
C2503 C2504 1.398 . S
C2503 C2509 1.491 . S
C2504 H2495 0.950 . S
C2504 C2503 1.398 . S
C2504 C2505 1.391 . S
C2505 H2493 0.950 . S
C2505 C2501 1.393 . S
C2505 C2504 1.391 . S
C2506 H2496 0.950 . S
C2506 C2507 1.386 . S
C2506 C2508 1.391 . S
C2507 C2506 1.386 . S
C2507 C2511 1.393 . S
C2508 H2497 0.950 . S
C2508 C2506 1.391 . S
C2508 C2509 1.400 . S
C2509 C2503 1.491 . S
C2509 C2508 1.400 . S
C2509 C2510 1.398 . S
C2510 H2498 0.950 . S
C2510 C2509 1.398 . S
C2510 C2511 1.391 . S
C2511 H2499 0.950 . S
C2511 C2507 1.393 . S
C2511 C2510 1.391 . S
H2512 C2520 0.950 . S
H2513 C2525 0.950 1_565 S
H2514 C2522 0.950 . S
H2515 C2524 0.950 . S
H2516 C2526 0.950 . S
H2517 C2528 0.950 . S
H2518 C2530 0.950 . S
H2519 C2531 0.950 . S
C2520 H2512 0.950 . S
C2520 C2521 1.386 . S
C2520 C2522 1.391 . S
C2521 C2520 1.386 . S
C2521 C2525 1.393 . S
C2522 H2514 0.950 . S
C2522 C2520 1.391 . S
C2522 C2523 1.400 . S
C2523 C2522 1.400 . S
C2523 C2524 1.398 . S
C2523 C2529 1.491 . S
C2524 H2515 0.950 . S
C2524 C2523 1.398 . S
C2524 C2525 1.391 . S
C2525 H2513 0.950 1_545 S
C2525 C2521 1.393 . S
C2525 C2524 1.391 . S
C2526 H2516 0.950 . S
C2526 C2527 1.386 . S
C2526 C2528 1.391 . S
C2527 C2526 1.386 . S
C2527 C2531 1.393 . S
C2528 H2517 0.950 . S
C2528 C2526 1.391 . S
C2528 C2529 1.400 . S
C2529 C2523 1.491 . S
C2529 C2528 1.400 . S
C2529 C2530 1.398 . S
C2530 H2518 0.950 . S
C2530 C2529 1.398 . S
C2530 C2531 1.391 . S
C2531 H2519 0.950 . S
C2531 C2527 1.393 . S
C2531 C2530 1.391 . S
H2532 C2540 0.950 . S
H2533 C2545 0.950 . S
H2534 C2542 0.950 . S
H2535 C2544 0.946 1_545 S
H2536 C2546 0.950 1_545 S
H2537 C2548 0.950 1_545 S
H2538 C2550 0.950 . S
H2539 C2551 0.950 . S
C2540 H2532 0.950 . S
C2540 C2541 1.386 . S
C2540 C2542 1.391 . S
C2541 C2540 1.386 . S
C2541 C2545 1.393 . S
C2542 H2534 0.950 . S
C2542 C2540 1.391 . S
C2542 C2543 1.400 . S
C2543 C2542 1.400 . S
C2543 C2544 1.398 . S
C2543 C2549 1.491 . S
C2544 H2535 0.946 1_565 S
C2544 C2543 1.398 . S
C2544 C2545 1.391 . S
C2545 H2533 0.950 . S
C2545 C2541 1.393 . S
C2545 C2544 1.391 . S
C2546 H2536 0.950 1_565 S
C2546 C2547 1.386 . S
C2546 C2548 1.391 . S
C2547 C2546 1.386 . S
C2547 C2551 1.393 . S
C2548 H2537 0.950 1_565 S
C2548 C2546 1.391 . S
C2548 C2549 1.400 . S
C2549 C2543 1.491 . S
C2549 C2548 1.400 . S
C2549 C2550 1.398 . S
C2550 H2538 0.950 . S
C2550 C2549 1.398 . S
C2550 C2551 1.391 . S
C2551 H2539 0.950 . S
C2551 C2547 1.393 . S
C2551 C2550 1.391 . S
H2552 C2560 0.950 . S
H2553 C2565 0.950 . S
H2554 C2562 0.950 . S
H2555 C2564 0.950 . S
H2556 C2566 0.950 . S
H2557 C2568 0.950 . S
H2558 C2570 0.950 . S
H2559 C2571 0.950 . S
C2560 H2552 0.950 . S
C2560 C2561 1.386 . S
C2560 C2562 1.391 . S
C2561 C2560 1.386 . S
C2561 C2565 1.393 . S
C2562 H2554 0.950 . S
C2562 C2560 1.391 . S
C2562 C2563 1.400 . S
C2563 C2562 1.400 . S
C2563 C2564 1.398 . S
C2563 C2569 1.491 . S
C2564 H2555 0.950 . S
C2564 C2563 1.398 . S
C2564 C2565 1.391 . S
C2565 H2553 0.950 . S
C2565 C2561 1.393 . S
C2565 C2564 1.391 . S
C2566 H2556 0.950 . S
C2566 C2567 1.386 . S
C2566 C2568 1.391 . S
C2567 C2566 1.386 . S
C2567 C2571 1.393 . S
C2568 H2557 0.950 . S
C2568 C2566 1.391 . S
C2568 C2569 1.400 . S
C2569 C2563 1.491 . S
C2569 C2568 1.400 . S
C2569 C2570 1.398 . S
C2570 H2558 0.950 . S
C2570 C2569 1.398 . S
C2570 C2571 1.391 . S
C2571 H2559 0.950 . S
C2571 C2567 1.393 . S
C2571 C2570 1.391 . S
H2572 C2580 0.950 . S
H2573 C2585 0.950 1_554 S
H2574 C2582 0.950 . S
H2575 C2584 0.950 1_554 S
H2576 C2586 0.950 . S
H2577 C2588 0.950 . S
H2578 C2590 0.950 . S
H2579 C2591 0.950 . S
C2580 H2572 0.950 . S
C2580 C2581 1.386 . S
C2580 C2582 1.391 . S
C2581 C2580 1.386 . S
C2581 C2585 1.393 . S
C2582 H2574 0.950 . S
C2582 C2580 1.391 . S
C2582 C2583 1.400 . S
C2583 C2582 1.400 . S
C2583 C2584 1.398 . S
C2583 C2589 1.491 . S
C2584 H2575 0.950 1_556 S
C2584 C2583 1.398 . S
C2584 C2585 1.391 . S
C2585 H2573 0.950 1_556 S
C2585 C2581 1.393 . S
C2585 C2584 1.391 . S
C2586 H2576 0.950 . S
C2586 C2587 1.386 1_554 S
C2586 C2588 1.391 . S
C2587 C2586 1.386 1_556 S
C2587 C2591 1.393 . S
C2588 H2577 0.950 . S
C2588 C2586 1.391 . S
C2588 C2589 1.400 1_554 S
C2589 C2583 1.491 . S
C2589 C2588 1.400 1_556 S
C2589 C2590 1.398 . S
C2590 H2578 0.950 . S
C2590 C2589 1.398 . S
C2590 C2591 1.391 . S
C2591 H2579 0.950 . S
C2591 C2587 1.393 . S
C2591 C2590 1.391 . S
H2592 C2600 0.950 . S
H2593 C2605 0.950 . S
H2594 C2602 0.950 . S
H2595 C2604 0.950 . S
H2596 C2606 0.950 . S
H2597 C2608 0.950 . S
H2598 C2610 0.950 . S
H2599 C2611 0.950 . S
C2600 H2592 0.950 . S
C2600 C2601 1.386 . S
C2600 C2602 1.391 . S
C2601 C2600 1.386 . S
C2601 C2605 1.393 . S
C2602 H2594 0.950 . S
C2602 C2600 1.391 . S
C2602 C2603 1.400 . S
C2603 C2602 1.400 . S
C2603 C2604 1.398 . S
C2603 C2609 1.491 . S
C2604 H2595 0.950 . S
C2604 C2603 1.398 . S
C2604 C2605 1.391 . S
C2605 H2593 0.950 . S
C2605 C2601 1.393 . S
C2605 C2604 1.391 . S
C2606 H2596 0.950 . S
C2606 C2607 1.386 . S
C2606 C2608 1.391 . S
C2607 C2606 1.386 . S
C2607 C2611 1.393 . S
C2608 H2597 0.950 . S
C2608 C2606 1.391 . S
C2608 C2609 1.400 . S
C2609 C2603 1.491 . S
C2609 C2608 1.400 . S
C2609 C2610 1.398 . S
C2610 H2598 0.950 . S
C2610 C2609 1.398 . S
C2610 C2611 1.391 . S
C2611 H2599 0.950 . S
C2611 C2607 1.393 . S
C2611 C2610 1.391 . S
H2612 C2620 0.950 . S
H2613 C2625 0.950 . S
H2614 C2622 0.950 . S
H2615 C2624 0.950 . S
H2616 C2626 0.950 . S
H2617 C2628 0.950 . S
H2618 C2630 0.950 . S
H2619 C2631 0.950 . S
C2620 H2612 0.950 . S
C2620 C2621 1.377 1_556 S
C2620 C2622 1.391 . S
C2621 C2620 1.377 1_554 S
C2621 C2625 1.407 . S
C2622 H2614 0.950 . S
C2622 C2620 1.391 . S
C2622 C2623 1.400 1_556 S
C2623 C2622 1.400 1_554 S
C2623 C2624 1.398 . S
C2623 C2629 1.491 . S
C2624 H2615 0.950 . S
C2624 C2623 1.398 . S
C2624 C2625 1.391 . S
C2625 H2613 0.950 . S
C2625 C2621 1.407 . S
C2625 C2624 1.391 . S
C2626 H2616 0.950 . S
C2626 C2627 1.386 . S
C2626 C2628 1.391 . S
C2627 C2626 1.386 . S
C2627 C2631 1.393 1_554 S
C2628 H2617 0.950 . S
C2628 C2626 1.391 . S
C2628 C2629 1.400 . S
C2629 C2623 1.491 . S
C2629 C2628 1.400 . S
C2629 C2630 1.398 1_554 S
C2630 H2618 0.950 . S
C2630 C2629 1.398 1_556 S
C2630 C2631 1.391 . S
C2631 H2619 0.950 . S
C2631 C2627 1.393 1_556 S
C2631 C2630 1.391 . S
H2632 C2640 0.950 . S
H2633 C2645 0.950 . S
H2634 C2642 0.950 . S
H2635 C2644 0.950 . S
H2636 C2646 0.950 . S
H2637 C2648 0.950 . S
H2638 C2650 0.950 . S
H2639 C2651 0.950 . S
C2640 H2632 0.950 . S
C2640 C2641 1.386 . S
C2640 C2642 1.391 . S
C2641 C2640 1.386 . S
C2641 C2645 1.393 . S
C2642 H2634 0.950 . S
C2642 C2640 1.391 . S
C2642 C2643 1.400 . S
C2643 C2642 1.400 . S
C2643 C2644 1.398 . S
C2643 C2649 1.491 . S
C2644 H2635 0.950 . S
C2644 C2643 1.398 . S
C2644 C2645 1.391 . S
C2645 H2633 0.950 . S
C2645 C2641 1.393 . S
C2645 C2644 1.391 . S
C2646 H2636 0.950 . S
C2646 C2647 1.386 . S
C2646 C2648 1.391 . S
C2647 C2646 1.386 . S
C2647 C2651 1.393 . S
C2648 H2637 0.950 . S
C2648 C2646 1.391 . S
C2648 C2649 1.400 . S
C2649 C2643 1.491 . S
C2649 C2648 1.400 . S
C2649 C2650 1.398 . S
C2650 H2638 0.950 . S
C2650 C2649 1.398 . S
C2650 C2651 1.391 . S
C2651 H2639 0.950 . S
C2651 C2647 1.393 . S
C2651 C2650 1.391 . S
H2652 C2660 0.950 . S
H2653 C2665 0.950 . S
H2654 C2662 0.950 . S
H2655 C2664 0.950 . S
H2656 C2666 0.950 . S
H2657 C2668 0.950 . S
H2658 C2670 0.950 . S
H2659 C2671 0.948 . S
C2660 H2652 0.950 . S
C2660 C2661 1.386 . S
C2660 C2662 1.391 . S
C2661 C2660 1.386 . S
C2661 C2665 1.393 . S
C2662 H2654 0.950 . S
C2662 C2660 1.391 . S
C2662 C2663 1.400 . S
C2663 C2662 1.400 . S
C2663 C2664 1.398 . S
C2663 C2669 1.491 . S
C2664 H2655 0.950 . S
C2664 C2663 1.398 . S
C2664 C2665 1.391 . S
C2665 H2653 0.950 . S
C2665 C2661 1.393 . S
C2665 C2664 1.391 . S
C2666 H2656 0.950 . S
C2666 C2667 1.386 . S
C2666 C2668 1.391 . S
C2667 C2666 1.386 . S
C2667 C2671 1.393 . S
C2668 H2657 0.950 . S
C2668 C2666 1.391 . S
C2668 C2669 1.400 . S
C2669 C2663 1.491 . S
C2669 C2668 1.400 . S
C2669 C2670 1.398 . S
C2670 H2658 0.950 . S
C2670 C2669 1.398 . S
C2670 C2671 1.391 . S
C2671 H2659 0.948 . S
C2671 C2667 1.393 . S
C2671 C2670 1.391 . S
H2672 C2680 0.950 . S
H2673 C2685 0.950 . S
H2674 C2682 0.950 . S
H2675 C2684 0.950 . S
H2676 C2686 0.950 . S
H2677 C2688 0.950 . S
H2678 C2690 0.950 . S
H2679 C2691 0.950 . S
C2680 H2672 0.950 . S
C2680 C2681 1.386 . S
C2680 C2682 1.391 . S
C2681 C2680 1.386 . S
C2681 C2685 1.393 . S
C2682 H2674 0.950 . S
C2682 C2680 1.391 . S
C2682 C2683 1.400 . S
C2683 C2682 1.400 . S
C2683 C2684 1.398 . S
C2683 C2689 1.491 . S
C2684 H2675 0.950 . S
C2684 C2683 1.398 . S
C2684 C2685 1.391 . S
C2685 H2673 0.950 . S
C2685 C2681 1.393 . S
C2685 C2684 1.391 . S
C2686 H2676 0.950 . S
C2686 C2687 1.386 . S
C2686 C2688 1.391 . S
C2687 C2686 1.386 . S
C2687 C2691 1.393 . S
C2688 H2677 0.950 . S
C2688 C2686 1.391 . S
C2688 C2689 1.400 . S
C2689 C2683 1.491 . S
C2689 C2688 1.400 . S
C2689 C2690 1.398 . S
C2690 H2678 0.950 . S
C2690 C2689 1.398 . S
C2690 C2691 1.391 . S
C2691 H2679 0.950 . S
C2691 C2687 1.393 . S
C2691 C2690 1.391 . S
H2692 C2700 0.950 . S
H2693 C2705 0.950 . S
H2694 C2702 0.950 . S
H2695 C2704 0.950 . S
H2696 C2706 0.950 . S
H2697 C2708 0.950 . S
H2698 C2710 0.950 . S
H2699 C2711 0.950 . S
C2700 H2692 0.950 . S
C2700 C2701 1.421 . S
C2700 C2702 1.391 . S
C2701 C2700 1.421 . S
C2701 C2705 1.367 1_455 S
C2702 H2694 0.950 . S
C2702 C2700 1.391 . S
C2702 C2703 1.400 . S
C2703 C2702 1.400 . S
C2703 C2704 1.398 1_455 S
C2703 C2709 1.491 . S
C2704 H2695 0.950 . S
C2704 C2703 1.398 1_655 S
C2704 C2705 1.391 . S
C2705 H2693 0.950 . S
C2705 C2701 1.367 1_655 S
C2705 C2704 1.391 . S
C2706 H2696 0.950 . S
C2706 C2707 1.386 1_655 S
C2706 C2708 1.391 . S
C2707 C2706 1.386 1_455 S
C2707 C2711 1.393 . S
C2708 H2697 0.950 . S
C2708 C2706 1.391 . S
C2708 C2709 1.400 1_655 S
C2709 C2703 1.491 . S
C2709 C2708 1.400 1_455 S
C2709 C2710 1.398 . S
C2710 H2698 0.950 . S
C2710 C2709 1.398 . S
C2710 C2711 1.391 . S
C2711 H2699 0.950 . S
C2711 C2707 1.393 . S
C2711 C2710 1.391 . S
C1287 N1260 1.689 . S
C1281 C15 1.694 . S
C1307 N1221 1.564 . S
C1301 C55 1.475 . S
C1327 N1247 0.696 . S
C1321 C95 0.687 . S
C1347 N1234 1.491 . S
C1341 C135 1.488 . S
C1367 N1143 1.696 . S
C1361 C175 1.698 . S
C1381 C215 1.491 . S
C1387 N1156 1.490 . S
C1407 N1117 1.567 . S
C1401 C255 1.471 . S
C1421 C295 0.687 . S
C1427 N1130 0.699 . S
C1447 N1208 1.686 . S
C1441 C335 1.704 . S
C1461 C375 1.483 . S
C1467 N1182 1.472 . S
C1481 C415 1.481 . S
C1487 N1169 1.569 . S
C1507 N1195 0.679 . S
C1501 C455 0.691 1_455 S
C1527 N1104 1.699 . S
C1521 C495 1.696 . S
C1541 C535 1.460 . S
C1547 N1065 1.565 . S
C1567 N1091 0.678 . S
C1561 C575 0.688 1_545 S
C1581 C615 1.470 . S
C1587 N1078 1.501 . S
C1607 N987 1.697 . S
C1601 C655 1.701 . S
C1627 N1000 1.501 . S
C1621 C695 1.472 . S
C1641 C735 1.471 . S
C1647 N961 1.569 . S
C1661 C775 0.692 . S
C1667 N974 0.712 . S
C1681 C815 1.684 . S
C1687 N1052 1.709 . S
C1701 C855 1.491 . S
C1707 N1026 1.512 . S
C1727 N1013 1.569 . S
C1721 C895 1.475 . S
C1741 C935 0.693 . S
C1747 N1039 0.684 . S
C1767 N965 1.689 . S
C1761 C21 1.686 . S
C1787 N978 1.904 . S
C1781 C61 1.880 . S
C1801 C101 0.944 1_545 S
C1807 N991 0.948 1_565 S
C1821 C141 1.011 . S
C1827 N1004 1.010 . S
C1847 N1017 1.689 . S
C1841 C181 1.689 . S
C1861 C221 1.012 . S
C1867 N1030 1.006 . S
C1887 N1043 1.898 . S
C1881 C261 1.871 . S
C1907 N1056 0.933 1_556 S
C1901 C301 0.948 . S
C1927 N1069 1.690 . S
C1921 C341 1.688 . S
C1941 C381 1.011 . S
C1947 N1082 1.014 . S
C1961 C421 1.874 . S
C1967 N1095 1.895 . S
C1981 C461 0.942 1_455 S
C1987 N1108 0.949 1_655 S
C2001 C501 1.631 . S
C2007 N1121 1.689 . S
C2021 C541 1.721 . S
C2027 N1134 1.889 . S
C2041 C581 0.947 . S
C2047 N1147 0.947 1_545 S
C2061 C621 0.988 . S
C2067 N1160 1.001 . S
C2081 C661 1.636 . S
C2087 N1173 1.690 . S
C2107 N1186 1.021 . S
C2101 C701 0.984 . S
C2127 N1199 1.901 . S
C2121 C741 1.745 . S
C2147 N1212 0.950 1_554 S
C2141 C781 0.942 . S
C2167 N1225 1.689 . S
C2161 C821 1.641 . S
C2181 C861 0.993 . S
C2187 N1238 1.014 . S
C2201 C901 1.743 . S
C2207 N1251 1.898 . S
C2221 C941 0.941 . S
C2227 N1264 0.951 1_455 S
C2241 C2 1.646 . S
C2247 N1066 1.644 . S
C2267 N1105 1.887 . S
C2261 C42 1.869 . S
C2281 C82 1.526 . S
C2287 N1079 1.522 . S
C2307 N1092 1.627 . S
C2301 C122 1.589 . S
C2321 C162 1.642 . S
C2327 N962 1.639 . S
C2341 C202 1.591 . S
C2347 N975 1.628 . S
C2361 C242 1.875 . S
C2367 N988 1.875 . S
C2381 C282 1.523 . S
C2387 N1001 1.515 . S
C2407 N1014 1.637 . S
C2401 C322 1.643 . S
C2427 N1040 1.628 . S
C2421 C362 1.602 . S
C2441 C402 1.880 . S
C2447 N1053 1.872 . S
C2461 C442 1.523 . S
C2467 N1027 1.515 . S
C2487 N1222 1.643 . S
C2481 C482 1.617 . S
C2507 N1261 1.881 . S
C2501 C522 1.764 . S
C2521 C562 1.547 1_545 S
C2527 N1235 1.502 . S
C2547 N1248 1.630 . S
C2541 C602 1.564 . S
C2561 C642 1.608 . S
C2567 N1118 1.644 . S
C2581 C682 1.582 . S
C2587 N1131 1.630 . S
C2601 C722 1.779 . S
C2607 N1144 1.874 . S
C2627 N1157 1.520 . S
C2621 C762 1.535 1_554 S
C2647 N1170 1.643 . S
C2641 C802 1.616 . S
C2667 N1196 1.629 . S
C2661 C842 1.560 . S
C2681 C882 1.785 . S
C2687 N1209 1.863 . S
C2707 N1183 1.514 . S
C2701 C922 1.532 1_455 S
