# Generated by pormake.
# Topology zzz, (3,6)-cn, num edge types: 1
# Building blocks:
#     Node 0, Type 0, BuildingBlock: VETTIZ_charged_linker_0, # of connection points: 3
#     Node 1, Type 0, BuildingBlock: VETTIZ_charged_linker_0, # of connection points: 3
#     Node 2, Type 0, BuildingBlock: VETTIZ_charged_linker_0, # of connection points: 3
#     Node 3, Type 0, BuildingBlock: VETTIZ_charged_linker_0, # of connection points: 3
#     Node 4, Type 0, BuildingBlock: VETTIZ_charged_linker_0, # of connection points: 3
#     Node 5, Type 0, BuildingBlock: VETTIZ_charged_linker_0, # of connection points: 3
#     Node 6, Type 0, BuildingBlock: VETTIZ_charged_linker_0, # of connection points: 3
#     Node 7, Type 0, BuildingBlock: VETTIZ_charged_linker_0, # of connection points: 3
#     Node 8, Type 1, BuildingBlock: PAMTUU_clean_sbu_0, # of connection points: 6
#     Node 9, Type 1, BuildingBlock: PAMTUU_clean_sbu_0, # of connection points: 6
#     Node 10, Type 1, BuildingBlock: PAMTUU_clean_sbu_0, # of connection points: 6
#     Node 11, Type 1, BuildingBlock: PAMTUU_clean_sbu_0, # of connection points: 6
#     Edge 12, Type (0, 1), BuildingBlock: MIFKUJ_clean_linker_0, # of connection points: 2
#     Edge 13, Type (0, 1), BuildingBlock: MIFKUJ_clean_linker_0, # of connection points: 2
#     Edge 14, Type (0, 1), BuildingBlock: MIFKUJ_clean_linker_0, # of connection points: 2
#     Edge 15, Type (0, 1), BuildingBlock: MIFKUJ_clean_linker_0, # of connection points: 2
#     Edge 16, Type (0, 1), BuildingBlock: MIFKUJ_clean_linker_0, # of connection points: 2
#     Edge 17, Type (0, 1), BuildingBlock: MIFKUJ_clean_linker_0, # of connection points: 2
#     Edge 18, Type (0, 1), BuildingBlock: MIFKUJ_clean_linker_0, # of connection points: 2
#     Edge 19, Type (0, 1), BuildingBlock: MIFKUJ_clean_linker_0, # of connection points: 2
#     Edge 20, Type (0, 1), BuildingBlock: MIFKUJ_clean_linker_0, # of connection points: 2
#     Edge 21, Type (0, 1), BuildingBlock: MIFKUJ_clean_linker_0, # of connection points: 2
#     Edge 22, Type (0, 1), BuildingBlock: MIFKUJ_clean_linker_0, # of connection points: 2
#     Edge 23, Type (0, 1), BuildingBlock: MIFKUJ_clean_linker_0, # of connection points: 2
#     Edge 24, Type (0, 1), BuildingBlock: MIFKUJ_clean_linker_0, # of connection points: 2
#     Edge 25, Type (0, 1), BuildingBlock: MIFKUJ_clean_linker_0, # of connection points: 2
#     Edge 26, Type (0, 1), BuildingBlock: MIFKUJ_clean_linker_0, # of connection points: 2
#     Edge 27, Type (0, 1), BuildingBlock: MIFKUJ_clean_linker_0, # of connection points: 2
#     Edge 28, Type (0, 1), BuildingBlock: MIFKUJ_clean_linker_0, # of connection points: 2
#     Edge 29, Type (0, 1), BuildingBlock: MIFKUJ_clean_linker_0, # of connection points: 2
#     Edge 30, Type (0, 1), BuildingBlock: MIFKUJ_clean_linker_0, # of connection points: 2
#     Edge 31, Type (0, 1), BuildingBlock: MIFKUJ_clean_linker_0, # of connection points: 2
#     Edge 32, Type (0, 1), BuildingBlock: MIFKUJ_clean_linker_0, # of connection points: 2
#     Edge 33, Type (0, 1), BuildingBlock: MIFKUJ_clean_linker_0, # of connection points: 2
#     Edge 34, Type (0, 1), BuildingBlock: MIFKUJ_clean_linker_0, # of connection points: 2
#     Edge 35, Type (0, 1), BuildingBlock: MIFKUJ_clean_linker_0, # of connection points: 2
# Relax obj value: 0.365
# Max RMSD: 0.263
# Mean RMSD: 0.222
data_MOF--net-zzz--node1-PAMTUU_clean_sbu_0--node2-VETTIZ_charged_linker_0--edge1-MIFKUJ_clean_linker_0
_symmetry_space_group_name_H-M    P1
_symmetry_Int_Tables_number       1
_symmetry_cell_setting            triclinic
loop_
_symmetry_equiv_pos_as_xyz
'x, y, z'
_cell_length_a     72.265319
_cell_length_b     75.225914
_cell_length_c     25.415988
_cell_angle_alpha  97.038529
_cell_angle_beta   90.19477
_cell_angle_gamma 90.363861
loop_
_atom_site_label
_atom_site_type_symbol
_atom_site_fract_x
_atom_site_fract_y
_atom_site_fract_z
_atom_type_partial_charge
C0 C 0.80723 0.4828 0.33704 0.0
C1 C 0.82409 0.47525 0.35236 0.0
C2 C 0.83118 0.46029 0.32044 0.0
C3 C 0.80526 0.46018 0.25988 0.0
C4 C 0.79788 0.47484 0.29065 0.0
C5 C 0.77944 0.48009 0.26773 0.0
H6 H 0.71561 0.46225 0.06493 0.0
C7 C 0.79266 0.45467 0.21494 0.0
C8 C 0.77715 0.46602 0.21899 0.0
H9 H 0.71234 0.50534 0.19299 0.0
H10 H 0.74087 0.49495 0.23154 0.0
H11 H 0.75755 0.46671 0.04313 0.0
H12 H 0.72667 0.43232 0.13383 0.0
H13 H 0.74506 0.41921 0.10644 0.0
H14 H 0.72844 0.42795 0.06308 0.0
H15 H 0.7436 0.44831 0.01354 0.0
H16 H 0.76754 0.4455 0.03006 0.0
C17 C 0.78136 0.49917 0.25206 0.0
C18 C 0.76415 0.47842 0.30898 0.0
C19 C 0.81386 0.40639 0.07099 0.0
C20 C 0.8057 0.39835 0.02339 0.0
C21 C 0.78689 0.40183 0.01391 0.0
C22 C 0.77696 0.41411 0.04875 0.0
C23 C 0.78583 0.42302 0.09395 0.0
C24 C 0.80367 0.41846 0.10558 0.0
C25 C 0.81057 0.4285 0.15673 0.0
C26 C 0.79431 0.44078 0.17205 0.0
C27 C 0.78004 0.43766 0.13479 0.0
C28 C 0.82815 0.43919 0.14448 0.0
C29 C 0.81359 0.4147 0.19668 0.0
C30 C 0.72097 0.46957 0.10124 0.0
C31 C 0.71186 0.48477 0.12529 0.0
C32 C 0.71917 0.4936 0.17335 0.0
C33 C 0.73576 0.48762 0.19546 0.0
C34 C 0.74502 0.47257 0.16946 0.0
C35 C 0.73724 0.46382 0.12344 0.0
C36 C 0.7484 0.44829 0.09955 0.0
C37 C 0.7644 0.44898 0.13809 0.0
C38 C 0.76271 0.4632 0.17961 0.0
C39 C 0.75457 0.45219 0.04354 0.0
C40 C 0.7366 0.431 0.10023 0.0
H41 H 0.82845 0.44158 0.25253 0.0
H42 H 0.80141 0.49431 0.36091 0.0
H43 H 0.76502 0.46526 0.32455 0.0
H44 H 0.75016 0.47917 0.29198 0.0
H45 H 0.7656 0.48914 0.34297 0.0
H46 H 0.79403 0.5003 0.22796 0.0
H47 H 0.78242 0.5092 0.28789 0.0
H48 H 0.76962 0.50279 0.22779 0.0
H49 H 0.82824 0.40421 0.08016 0.0
H50 H 0.77994 0.39547 0.97867 0.0
H51 H 0.76294 0.41664 0.03807 0.0
H52 H 0.82643 0.44506 0.10665 0.0
H53 H 0.84048 0.4304 0.14043 0.0
H54 H 0.83116 0.45071 0.17457 0.0
H55 H 0.8057 0.40205 0.18526 0.0
H56 H 0.80849 0.41963 0.23689 0.0
H57 H 0.82841 0.41106 0.19926 0.0
H58 H 0.84414 0.45438 0.33074 0.0
C59 C 0.82197 0.45281 0.27476 0.0
C60 C 0.93699 0.79122 0.13144 0.0
C61 C 0.92927 0.80806 0.14932 0.0
C62 C 0.92013 0.81031 0.1987 0.0
C63 C 0.93188 0.78191 0.21775 0.0
C64 C 0.93774 0.77813 0.16618 0.0
C65 C 0.94594 0.75969 0.15604 0.0
H66 H 0.99088 0.69209 0.23952 0.0
C67 C 0.93902 0.76813 0.24835 0.0
C68 C 0.94509 0.75394 0.21189 0.0
H69 H 0.95022 0.68734 0.11278 0.0
H70 H 0.93832 0.71669 0.14639 0.0
H71 H 1.00132 0.73777 0.2424 0.0
H72 H 0.9598 0.71044 0.32662 0.0
H73 H 0.97292 0.72609 0.36956 0.0
H74 H 0.98412 0.70677 0.33561 0.0
H75 H 0.00771 0.72276 0.28917 0.0
H76 H 1.00118 0.74552 0.31087 0.0
C77 C 0.96613 0.76087 0.13705 0.0
C78 C 0.93395 0.74827 0.11426 0.0
C79 C 0.96315 0.79323 0.42922 0.0
C80 C 0.97825 0.78903 0.46 0.0
C81 C 0.9879 0.77296 0.44467 0.0
C82 C 0.98251 0.76141 0.39907 0.0
C83 C 0.96772 0.76626 0.36761 0.0
C84 C 0.95854 0.78214 0.38279 0.0
C85 C 0.94446 0.78647 0.34286 0.0
C86 C 0.94664 0.77051 0.30047 0.0
C87 C 0.95999 0.75841 0.31555 0.0
C88 C 0.94967 0.80471 0.32337 0.0
C89 C 0.92516 0.7865 0.36879 0.0
C90 C 0.98018 0.69778 0.21692 0.0
C91 C 0.97208 0.68763 0.17196 0.0
C92 C 0.9572 0.69502 0.14597 0.0
C93 C 0.95094 0.71227 0.16287 0.0
C94 C 0.96028 0.72267 0.20384 0.0
C95 C 0.97359 0.71522 0.23315 0.0
C96 C 0.97779 0.7274 0.28413 0.0
C97 C 0.96421 0.74274 0.28011 0.0
C98 C 0.95537 0.74015 0.23072 0.0
C99 C 0.99811 0.7337 0.28202 0.0
C100 C 0.97354 0.71719 0.3318 0.0
H101 H 0.91449 0.79935 0.27061 0.0
H102 H 0.94359 0.78874 0.09312 0.0
H103 H 0.92952 0.75618 0.0823 0.0
H104 H 0.92127 0.74328 0.13249 0.0
H105 H 0.94188 0.73692 0.09379 0.0
H106 H 0.97449 0.76987 0.16608 0.0
H107 H 0.96676 0.76608 0.09804 0.0
H108 H 0.97263 0.74743 0.13241 0.0
H109 H 0.95573 0.80566 0.43913 0.0
H110 H 0.99969 0.76946 0.46766 0.0
H111 H 0.9903 0.74937 0.3893 0.0
H112 H 0.9571 0.80276 0.28491 0.0
H113 H 0.95897 0.81309 0.35121 0.0
H114 H 0.93737 0.81318 0.31965 0.0
H115 H 0.92349 0.77484 0.39143 0.0
H116 H 0.91388 0.78538 0.3391 0.0
H117 H 0.92315 0.79892 0.39664 0.0
H118 H 0.91313 0.82272 0.21221 0.0
C119 C 0.92126 0.79712 0.23288 0.0
C120 C 0.82521 0.98624 0.2051 0.0
C121 C 0.83256 0.99022 0.15584 0.0
C122 C 0.82025 0.99438 0.11627 0.0
C123 C 0.79432 0.9862 0.16772 0.0
C124 C 0.80566 0.98492 0.21073 0.0
C125 C 0.79402 0.98074 0.25802 0.0
H126 H 0.70933 0.95117 0.33622 0.0
C127 C 0.77581 0.97963 0.17884 0.0
C128 C 0.77445 0.97863 0.23351 0.0
H129 H 0.73535 0.99899 0.41596 0.0
H130 H 0.75946 0.99684 0.34743 0.0
H131 H 0.70947 0.9689 0.23316 0.0
H132 H 0.74626 0.92845 0.27995 0.0
H133 H 0.74094 0.92322 0.21217 0.0
H134 H 0.7227 0.92338 0.26069 0.0
H135 H 0.70163 0.94684 0.24324 0.0
H136 H 0.71114 0.95118 0.18145 0.0
C137 C 0.79547 0.99633 0.30295 0.0
C138 C 0.80048 0.96313 0.27703 0.0
C139 C 0.74215 0.94665 0.02058 0.0
C140 C 0.72808 0.93356 0.01522 0.0
C141 C 0.72249 0.9259 0.06072 0.0
C142 C 0.72964 0.93233 0.11098 0.0
C143 C 0.74229 0.94672 0.11585 0.0
C144 C 0.74917 0.95282 0.07077 0.0
C145 C 0.76355 0.96725 0.08262 0.0
C146 C 0.76391 0.96905 0.14296 0.0
C147 C 0.75092 0.95751 0.16211 0.0
C148 C 0.75631 0.98456 0.06264 0.0
C149 C 0.78207 0.96049 0.0565 0.0
C150 C 0.72038 0.96101 0.3407 0.0
C151 C 0.7202 0.97515 0.38258 0.0
C152 C 0.73519 0.98757 0.38559 0.0
C153 C 0.74939 0.98619 0.34676 0.0
C154 C 0.7489 0.97212 0.30486 0.0
C155 C 0.734 0.96035 0.30121 0.0
C156 C 0.732 0.95033 0.24635 0.0
C157 C 0.74748 0.95874 0.21736 0.0
C158 C 0.75848 0.97014 0.25275 0.0
C159 C 0.71258 0.95437 0.22459 0.0
C160 C 0.73551 0.93024 0.24962 0.0
H161 H 0.79235 0.99597 0.09115 0.0
H162 H 0.83435 0.98365 0.23707 0.0
H163 H 0.79995 0.95199 0.24396 0.0
H164 H 0.79142 0.9595 0.30938 0.0
H165 H 0.8149 0.96445 0.29236 0.0
H166 H 0.78811 0.00832 0.29219 0.0
H167 H 0.81019 1.00005 0.31124 0.0
H168 H 0.78964 0.99246 0.34022 0.0
H169 H 0.74685 0.95299 0.98697 0.0
H170 H 0.712 0.91547 0.0578 0.0
H171 H 0.72448 0.92643 0.14442 0.0
H172 H 0.74125 0.98626 0.07072 0.0
H173 H 0.7584 0.98418 0.01922 0.0
H174 H 0.76303 0.99676 0.083 0.0
H175 H 0.79164 0.95565 0.08587 0.0
H176 H 0.78915 0.97093 0.03666 0.0
H177 H 0.78001 0.94913 0.02466 0.0
H178 H 0.82547 0.99824 0.07934 0.0
C179 C 0.80119 0.99262 0.12234 0.0
C180 C 0.55158 0.74723 0.29903 0.0
C181 C 0.54755 0.72951 0.30883 0.0
C182 C 0.53877 0.7177 0.26936 0.0
C183 C 0.53944 0.74023 0.20948 0.0
C184 C 0.54706 0.75241 0.24888 0.0
C185 C 0.54936 0.77069 0.23004 0.0
H186 H 0.54404 0.8199 0.02061 0.0
C187 C 0.5376 0.74887 0.16087 0.0
C188 C 0.54307 0.7669 0.17215 0.0
H189 H 0.55831 0.84 0.18224 0.0
H190 H 0.55448 0.81 0.20791 0.0
H191 H 0.56798 0.78451 0.01561 0.0
H192 H 0.51052 0.79585 0.04683 0.0
H193 H 0.51142 0.77541 0.00525 0.0
H194 H 0.5205 0.79543 0.9821 0.0
H195 H 0.55191 0.78794 0.96394 0.0
H196 H 0.55547 0.76609 0.98452 0.0
C197 C 0.56994 0.77625 0.23483 0.0
C198 C 0.53632 0.78387 0.26295 0.0
C199 C 0.52292 0.70944 0.99008 0.0
C200 C 0.52224 0.7125 0.93684 0.0
C201 C 0.52375 0.73013 0.9241 0.0
C202 C 0.52687 0.74445 0.96422 0.0
C203 C 0.52841 0.74101 0.01739 0.0
C204 C 0.52608 0.72374 0.02936 0.0
C205 C 0.52825 0.72229 0.0873 0.0
C206 C 0.53287 0.74154 0.10847 0.0
C207 C 0.53295 0.75241 0.06759 0.0
C208 C 0.54464 0.70946 0.09372 0.0
C209 C 0.50938 0.71615 0.10834 0.0
C210 C 0.5466 0.81792 0.06151 0.0
C211 C 0.55173 0.83232 0.09919 0.0
C212 C 0.55435 0.82911 0.15234 0.0
C213 C 0.55209 0.81172 0.16716 0.0
C214 C 0.54692 0.79747 0.12856 0.0
C215 C 0.54427 0.80087 0.07679 0.0
C216 C 0.53866 0.78456 0.0404 0.0
C217 C 0.53784 0.77074 0.0787 0.0
C218 C 0.54284 0.77813 0.13058 0.0
C219 C 0.55415 0.78051 0.99856 0.0
C220 C 0.51933 0.78789 0.01691 0.0
H221 H 0.5284 0.71305 0.19169 0.0
H222 H 0.5581 0.75663 0.32925 0.0
H223 H 0.5227 0.7774 0.26868 0.0
H224 H 0.53317 0.79577 0.24325 0.0
H225 H 0.54231 0.78828 0.30276 0.0
H226 H 0.57886 0.7651 0.21712 0.0
H227 H 0.57404 0.77963 0.27706 0.0
H228 H 0.57316 0.78784 0.2137 0.0
H229 H 0.52142 0.69601 1.00093 0.0
H230 H 0.52314 0.73271 0.88313 0.0
H231 H 0.52831 0.75757 0.95219 0.0
H232 H 0.55606 0.71181 0.06606 0.0
H233 H 0.54022 0.69524 0.0848 0.0
H234 H 0.55107 0.71137 0.13339 0.0
H235 H 0.49764 0.71911 0.08239 0.0
H236 H 0.50593 0.72336 0.14774 0.0
H237 H 0.50915 0.7015 0.11066 0.0
H238 H 0.53554 0.70408 0.27627 0.0
C239 C 0.53469 0.72294 0.22008 0.0
C240 C 0.32326 0.50396 0.28729 0.0
C241 C 0.32895 0.50232 0.34014 0.0
C242 C 0.31522 0.50128 0.37899 0.0
C243 C 0.2919 0.50906 0.31849 0.0
C244 C 0.30424 0.50684 0.27709 0.0
C245 C 0.29446 0.50962 0.22542 0.0
H246 H 0.21353 0.54028 0.12483 0.0
C247 C 0.27484 0.51682 0.30086 0.0
C248 C 0.27485 0.5149 0.24502 0.0
H249 H 0.23899 0.49057 0.05913 0.0
H250 H 0.26109 0.49363 0.13313 0.0
H251 H 0.21361 0.53165 0.24447 0.0
H252 H 0.24702 0.56373 0.15462 0.0
H253 H 0.25427 0.57051 0.22071 0.0
H254 H 0.23066 0.57394 0.20116 0.0
H255 H 0.20678 0.55036 0.21103 0.0
H256 H 0.21638 0.55408 0.27554 0.0
C257 C 0.29477 0.49212 0.18722 0.0
C258 C 0.30383 0.52497 0.20032 0.0
C259 C 0.24476 0.56382 0.43494 0.0
C260 C 0.23517 0.57973 0.42859 0.0
C261 C 0.23362 0.58486 0.37708 0.0
C262 C 0.2397 0.57356 0.33278 0.0
C263 C 0.24745 0.55703 0.33987 0.0
C264 C 0.25129 0.55302 0.39013 0.0
C265 C 0.26278 0.53631 0.38929 0.0
C266 C 0.26443 0.53076 0.32951 0.0
C267 C 0.25451 0.54252 0.30165 0.0
C268 C 0.2517 0.52232 0.41615 0.0
C269 C 0.28157 0.54141 0.41715 0.0
C270 C 0.22435 0.53043 0.12326 0.0
C271 C 0.22436 0.51545 0.08403 0.0
C272 C 0.23841 0.50247 0.0876 0.0
C273 C 0.25169 0.50443 0.12927 0.0
C274 C 0.25148 0.51979 0.1667 0.0
C275 C 0.23759 0.53222 0.16391 0.0
C276 C 0.23695 0.54586 0.21237 0.0
C277 C 0.25158 0.53843 0.24655 0.0
C278 C 0.26108 0.52409 0.21852 0.0
C279 C 0.21742 0.54551 0.23735 0.0
C280 C 0.24245 0.56447 0.19659 0.0
H281 H 0.28664 0.5036 0.39868 0.0
H282 H 0.33336 0.50399 0.25595 0.0
H283 H 0.30415 0.53744 0.22875 0.0
H284 H 0.29613 0.52775 0.16432 0.0
H285 H 0.31827 0.52143 0.18857 0.0
H286 H 0.28514 0.48202 0.20061 0.0
H287 H 0.30891 0.48636 0.18493 0.0
H288 H 0.29103 0.49459 0.14644 0.0
H289 H 0.24666 0.55944 0.47356 0.0
H290 H 0.22732 0.59744 0.37069 0.0
H291 H 0.23789 0.57786 0.29445 0.0
H292 H 0.23714 0.5215 0.40167 0.0
H293 H 0.25153 0.52593 0.45987 0.0
H294 H 0.25747 0.50872 0.40723 0.0
H295 H 0.29237 0.5441 0.38805 0.0
H296 H 0.28652 0.53096 0.44077 0.0
H297 H 0.28057 0.55366 0.44624 0.0
H298 H 0.31899 0.49886 0.4188 0.0
C299 C 0.2967 0.50444 0.36812 0.0
C300 C 0.10455 0.21977 0.41522 0.0
C301 C 0.10877 0.2014 0.4077 0.0
C302 C 0.11112 0.19285 0.35563 0.0
C303 C 0.10105 0.21959 0.32024 0.0
C304 C 0.10074 0.22859 0.37092 0.0
C305 C 0.09427 0.2476 0.3715 0.0
H306 H 0.0508 0.31055 0.24909 0.0
C307 C 0.09272 0.23127 0.2841 0.0
C308 C 0.08886 0.24775 0.31353 0.0
H309 H 0.07718 0.31569 0.4033 0.0
H310 H 0.08707 0.28522 0.38811 0.0
H311 H 0.08526 0.28648 0.18461 0.0
H312 H 0.03466 0.26847 0.25341 0.0
H313 H 0.03831 0.25701 0.18955 0.0
H314 H 0.03422 0.28079 0.19711 0.0
H315 H 0.0628 0.29242 0.16185 0.0
H316 H 0.07276 0.27103 0.13937 0.0
C317 C 0.11091 0.26027 0.38797 0.0
C318 C 0.07732 0.25042 0.40875 0.0
C319 C 0.07506 0.20298 0.10054 0.0
C320 C 0.06337 0.20784 0.06071 0.0
C321 C 0.05536 0.22505 0.06746 0.0
C322 C 0.05909 0.23716 0.11341 0.0
C323 C 0.07061 0.23184 0.15347 0.0
C324 C 0.07823 0.21489 0.14627 0.0
C325 C 0.08854 0.21038 0.19395 0.0
C326 C 0.08628 0.22751 0.23115 0.0
C327 C 0.076 0.2403 0.20753 0.0
C328 C 0.10907 0.20722 0.17826 0.0
C329 C 0.07873 0.19407 0.21445 0.0
C330 C 0.05871 0.30497 0.27931 0.0
C331 C 0.06335 0.31557 0.32742 0.0
C332 C 0.07369 0.30791 0.36579 0.0
C333 C 0.07942 0.29016 0.35697 0.0
C334 C 0.07481 0.2797 0.30924 0.0
C335 C 0.06488 0.28706 0.27072 0.0
C336 C 0.06217 0.27364 0.22164 0.0
C337 C 0.07263 0.25743 0.23693 0.0
C338 C 0.07948 0.26111 0.28906 0.0
C339 C 0.07113 0.28124 0.17402 0.0
C340 C 0.04124 0.26976 0.21453 0.0
H341 H 0.1085 0.19435 0.27348 0.0
H342 H 0.10305 0.22677 0.45481 0.0
H343 H 0.06747 0.23896 0.40099 0.0
H344 H 0.06931 0.26248 0.40326 0.0
H345 H 0.08166 0.25144 0.45099 0.0
H346 H 0.12436 0.25311 0.38476 0.0
H347 H 0.10964 0.26657 0.42966 0.0
H348 H 0.11237 0.27095 0.36174 0.0
H349 H 0.08091 0.18966 0.09764 0.0
H350 H 0.04615 0.22906 0.03739 0.0
H351 H 0.05263 0.25006 0.1165 0.0
H352 H 0.11375 0.21699 0.15145 0.0
H353 H 0.11106 0.19356 0.15709 0.0
H354 H 0.11859 0.20923 0.21264 0.0
H355 H 0.06434 0.19212 0.19896 0.0
H356 H 0.07704 0.19576 0.258 0.0
H357 H 0.08627 0.18142 0.20229 0.0
H358 H 0.11436 0.17872 0.34847 0.0
C359 C 0.10737 0.20187 0.31194 0.0
C360 C 0.30522 0.02046 0.14039 0.0
C361 C 0.32296 0.02799 0.13189 0.0
C362 C 0.32879 0.04306 0.16639 0.0
C363 C 0.30171 0.04123 0.22121 0.0
C364 C 0.2947 0.02746 0.1856 0.0
C365 C 0.2755 0.0219 0.2031 0.0
H366 H 0.21097 0.03055 0.4062 0.0
C367 C 0.28902 0.0446 0.26669 0.0
C368 C 0.27316 0.03363 0.25666 0.0
H369 H 0.20347 0.99854 0.25513 0.0
H370 H 0.23407 0.00819 0.22647 0.0
H371 H 0.25007 0.0193 0.42378 0.0
H372 H 0.22709 0.0649 0.36277 0.0
H373 H 0.24547 0.07322 0.40423 0.0
H374 H 0.22657 0.06156 0.43145 0.0
H375 H 0.24271 0.03856 0.46685 0.0
H376 H 0.26615 0.03632 0.44286 0.0
C377 C 0.2755 0.00181 0.20948 0.0
C378 C 0.26123 0.02662 0.16194 0.0
C379 C 0.31423 0.07887 0.43668 0.0
C380 C 0.30824 0.07921 0.48971 0.0
C381 C 0.28931 0.07554 0.49802 0.0
C382 C 0.27766 0.06922 0.45574 0.0
C383 C 0.28495 0.06589 0.4044 0.0
C384 C 0.30272 0.07138 0.39515 0.0
C385 C 0.30858 0.06574 0.33881 0.0
C386 C 0.29161 0.05514 0.31663 0.0
C387 C 0.2779 0.0554 0.35528 0.0
C388 C 0.32588 0.05367 0.34059 0.0
C389 C 0.31179 0.08289 0.31166 0.0
C390 C 0.21579 0.02566 0.36674 0.0
C391 C 0.20487 0.01384 0.33311 0.0
C392 C 0.21169 0.00775 0.28191 0.0
C393 C 0.22937 0.01338 0.26535 0.0
C394 C 0.24021 0.02534 0.30017 0.0
C395 C 0.23302 0.03121 0.34976 0.0
C396 C 0.24574 0.04355 0.38307 0.0
C397 C 0.26161 0.04498 0.34529 0.0
C398 C 0.25885 0.03415 0.29635 0.0
C399 C 0.25144 0.03413 0.43187 0.0
C400 C 0.23578 0.06176 0.39664 0.0
H401 H 0.32392 0.06099 0.23498 0.0
H402 H 0.30001 0.00922 0.11366 0.0
H403 H 0.26321 0.0407 0.15371 0.0
H404 H 0.24688 0.02553 0.17584 0.0
H405 H 0.26277 0.01771 0.124 0.0
H406 H 0.287 0.99875 0.23603 0.0
H407 H 0.27733 0.99358 0.17049 0.0
H408 H 0.26249 0.99759 0.2271 0.0
H409 H 0.32813 0.08273 0.4273 0.0
H410 H 0.28355 0.07592 0.53726 0.0
H411 H 0.26375 0.06597 0.46557 0.0
H412 H 0.3239 0.04399 0.36989 0.0
H413 H 0.33841 0.06183 0.35249 0.0
H414 H 0.32885 0.0454 0.30287 0.0
H415 H 0.30506 0.09483 0.33358 0.0
H416 H 0.30562 0.08171 0.27136 0.0
H417 H 0.32677 0.08607 0.30908 0.0
H418 H 0.34186 0.0496 0.15998 0.0
C419 C 0.31831 0.04972 0.21021 0.0
C420 C 0.48241 0.25905 0.16939 0.0
C421 C 0.47603 0.27598 0.1584 0.0
C422 C 0.46297 0.28515 0.19225 0.0
C423 C 0.46597 0.26313 0.25287 0.0
C424 C 0.47658 0.25258 0.21662 0.0
C425 C 0.4801 0.23449 0.23548 0.0
H426 H 0.47865 0.18631 0.44772 0.0
C427 C 0.46487 0.25472 0.30176 0.0
C428 C 0.47242 0.23747 0.29196 0.0
H429 H 0.4907 0.16536 0.28567 0.0
H430 H 0.4865 0.19516 0.25879 0.0
H431 H 0.50158 0.22007 0.44925 0.0
H432 H 0.44367 0.20983 0.42529 0.0
H433 H 0.44613 0.22973 0.46943 0.0
H434 H 0.45583 0.20926 0.48683 0.0
H435 H 0.48591 0.22188 0.50395 0.0
H436 H 0.49137 0.24086 0.46946 0.0
C437 C 0.50105 0.23075 0.23484 0.0
C438 C 0.46877 0.22027 0.19973 0.0
C439 C 0.45849 0.29629 0.47225 0.0
C440 C 0.46253 0.29402 0.52508 0.0
C441 C 0.46418 0.27655 0.539 0.0
C442 C 0.46322 0.26167 0.49999 0.0
C443 C 0.46107 0.26435 0.44645 0.0
C444 C 0.45819 0.28141 0.43358 0.0
C445 C 0.45728 0.28203 0.37476 0.0
C446 C 0.46113 0.26251 0.35427 0.0
C447 C 0.46333 0.25233 0.39637 0.0
C448 C 0.47284 0.29482 0.35996 0.0
C449 C 0.43753 0.28792 0.36024 0.0
C450 C 0.47997 0.18789 0.4061 0.0
C451 C 0.48445 0.17329 0.36868 0.0
C452 C 0.48699 0.17633 0.31534 0.0
C453 C 0.48431 0.19354 0.29966 0.0
C454 C 0.47899 0.2078 0.33769 0.0
C455 C 0.47712 0.20472 0.38996 0.0
C456 C 0.47189 0.22113 0.42598 0.0
C457 C 0.46929 0.23434 0.38639 0.0
C458 C 0.47381 0.22677 0.33456 0.0
C459 C 0.4884 0.22629 0.46442 0.0
C460 C 0.45347 0.21738 0.45379 0.0
H461 H 0.44814 0.28642 0.26413 0.0
H462 H 0.49181 0.25136 0.14258 0.0
H463 H 0.45501 0.22562 0.19004 0.0
H464 H 0.46572 0.20826 0.21912 0.0
H465 H 0.47606 0.2162 0.16178 0.0
H466 H 0.5087 0.24223 0.25683 0.0
H467 H 0.50633 0.22874 0.19355 0.0
H468 H 0.50448 0.21874 0.25381 0.0
H469 H 0.45731 0.30956 0.46028 0.0
H470 H 0.46709 0.27447 0.57963 0.0
H471 H 0.46503 0.24874 0.51279 0.0
H472 H 0.48639 0.29101 0.37604 0.0
H473 H 0.46992 0.30888 0.37642 0.0
H474 H 0.47462 0.29483 0.31707 0.0
H475 H 0.42789 0.28879 0.39447 0.0
H476 H 0.43103 0.27817 0.32917 0.0
H477 H 0.43773 0.30134 0.34625 0.0
H478 H 0.45755 0.29792 0.18385 0.0
C479 C 0.45776 0.2787 0.2391 0.0
Tb480 Tb 1.00711 0.00517 0.71199 0.0
Tb481 Tb 0.03661 0.99315 0.79742 0.0
C482 C 0.99314 0.99539 0.82186 0.0
C483 C 0.99207 0.03385 0.61808 0.0
C484 C 0.01123 0.06304 0.58396 0.0
C485 C 0.01084 0.04637 0.5523 0.0
C486 C 1.00122 0.03194 0.56901 0.0
C487 C 0.99093 0.05101 0.64701 0.0
C488 C 1.00045 0.06547 0.6301 0.0
C489 C 0.98756 0.01774 0.64373 0.0
O490 O 0.01257 0.02843 0.76976 0.0
O491 O 0.04175 0.02163 0.79488 0.0
O492 O 0.05152 0.9914 0.72219 0.0
O493 O 0.03457 0.0117 0.68303 0.0
O494 O 0.04847 0.99741 0.87358 0.0
O495 O 0.05783 0.97601 0.81585 0.0
O496 O 0.02131 0.96879 0.76959 0.0
O497 O 0.01049 0.97646 0.69052 0.0
O498 O 0.98941 0.99484 0.77092 0.0
O499 O 0.01026 0.99744 0.84 0.0
C500 C 0.02863 0.03339 0.79097 0.0
O501 O 0.99876 0.00429 0.63248 0.0
O502 O 0.98409 0.02039 0.69441 0.0
C503 C 0.04959 0.00203 0.68518 0.0
C504 C 0.05391 0.96912 0.9027 0.0
C505 C 0.04029 0.94087 0.95504 0.0
C506 C 0.05482 0.93791 0.91851 0.0
C507 C 0.06165 0.95195 0.8928 0.0
C508 C 0.0404 0.97235 0.94238 0.0
C509 C 0.03368 0.95836 0.96834 0.0
C510 C 0.05767 0.98244 0.86585 0.0
C511 C 0.01438 0.96435 0.72195 0.0
H512 H 0.01876 0.04427 0.51597 0.0
H513 H 1.0022 0.01894 0.54557 0.0
H514 H 0.9839 0.05304 0.68482 0.0
H515 H 1.0005 0.07818 0.65526 0.0
H516 H 0.06028 0.92458 0.90802 0.0
H517 H 0.07215 0.94912 0.86264 0.0
H518 H 0.03413 0.98541 0.95111 0.0
H519 H 0.02238 0.96101 0.99605 0.0
Tb520 Tb 0.50546 0.98675 0.69496 0.0
Tb521 Tb 0.52502 0.01808 0.77659 0.0
C522 C 0.52333 0.97884 0.80158 0.0
C523 C 0.4673 0.95894 0.64366 0.0
C524 C 0.42911 0.96565 0.65 0.0
C525 C 0.43707 0.95781 0.60209 0.0
C526 C 0.45612 0.95481 0.59876 0.0
C527 C 0.45894 0.96351 0.69319 0.0
C528 C 0.43997 0.96674 0.69642 0.0
C529 C 0.48684 0.9636 0.63712 0.0
O530 O 0.48274 0.00107 0.7388 0.0
O531 O 0.49818 0.01399 0.81309 0.0
O532 O 0.50768 0.03068 0.72179 0.0
O533 O 0.51183 0.00931 0.65182 0.0
O534 O 0.53458 0.02861 0.85239 0.0
O535 O 0.53765 0.04351 0.78572 0.0
O536 O 0.54625 0.0096 0.71763 0.0
O537 O 0.53485 0.9827 0.67651 0.0
O538 O 0.50875 0.97647 0.77068 0.0
O539 O 0.53424 0.99274 0.80001 0.0
C540 C 0.48269 0.00847 0.78864 0.0
O541 O 0.48925 0.98 0.6269 0.0
O542 O 0.49829 0.95962 0.67361 0.0
C543 C 0.50829 0.02594 0.67047 0.0
C544 C 0.56386 0.04129 0.84036 0.0
C545 C 0.59991 0.02734 0.84238 0.0
C546 C 0.58923 0.02986 0.88896 0.0
C547 C 0.57131 0.0367 0.88787 0.0
C548 C 0.57559 0.04144 0.79629 0.0
C549 C 0.59346 0.03455 0.79735 0.0
C550 C 0.54353 0.04149 0.83321 0.0
C551 C 0.54838 0.99454 0.68582 0.0
H552 H 0.42897 0.95556 0.56596 0.0
H553 H 0.46229 0.95101 0.56025 0.0
H554 H 0.4673 0.96655 0.72866 0.0
H555 H 0.43445 0.97196 0.73461 0.0
H556 H 0.59413 0.02529 0.92528 0.0
H557 H 0.56272 0.03679 0.92277 0.0
H558 H 0.57046 0.04519 0.75914 0.0
H559 H 0.60134 0.03325 0.76097 0.0
Tb560 Tb 0.51094 0.4931 0.76515 0.0
Tb561 Tb 0.53876 0.50712 0.67475 0.0
C562 C 0.49623 0.50053 0.65118 0.0
C563 C 0.49252 0.46621 0.86899 0.0
C564 C 0.49437 0.43589 0.92472 0.0
C565 C 0.4772 0.44266 0.9103 0.0
C566 C 0.47632 0.45759 0.88267 0.0
C567 C 0.50969 0.46023 0.88577 0.0
C568 C 0.5106 0.44532 0.91393 0.0
C569 C 0.4911 0.48036 0.83375 0.0
O570 O 0.52872 0.47102 0.7348 0.0
O571 O 0.53402 0.4787 0.65154 0.0
O572 O 0.55641 0.49743 0.73517 0.0
O573 O 0.53654 0.50265 0.8052 0.0
O574 O 0.56298 0.52157 0.66176 0.0
O575 O 0.54623 0.5098 0.59611 0.0
O576 O 0.52951 0.5303 0.72611 0.0
O577 O 0.50226 0.52044 0.75954 0.0
O578 O 0.49505 0.49081 0.6909 0.0
O579 O 0.51088 0.5105 0.64454 0.0
C580 C 0.53244 0.46662 0.68443 0.0
O581 O 0.50169 0.49447 0.84408 0.0
O582 O 0.49066 0.47473 0.78324 0.0
C583 C 0.5534 0.50013 0.78659 0.0
C584 C 0.55967 0.53849 0.59044 0.0
C585 C 0.56008 0.57304 0.55643 0.0
C586 C 0.57654 0.56509 0.57173 0.0
C587 C 0.57632 0.54803 0.58837 0.0
C588 C 0.54315 0.54637 0.57571 0.0
C589 C 0.54337 0.5634 0.55866 0.0
C590 C 0.55969 0.52094 0.61118 0.0
C591 C 0.51303 0.5333 0.74645 0.0
H592 H 0.46438 0.43613 0.91914 0.0
H593 H 0.46293 0.46207 0.87038 0.0
H594 H 0.52241 0.46666 0.87545 0.0
H595 H 0.52408 0.44056 0.92417 0.0
H596 H 0.58963 0.57219 0.57199 0.0
H597 H 0.58919 0.54237 0.60045 0.0
H598 H 0.53004 0.53942 0.57764 0.0
H599 H 0.53042 0.5689 0.54677 0.0
Tb600 Tb 0.02442 0.51729 0.69801 0.0
Tb601 Tb 0.0101 0.48923 0.77752 0.0
C602 C 0.01193 0.53095 0.8139 0.0
C603 C 0.04985 0.55394 0.64586 0.0
C604 C 0.07922 0.57887 0.65846 0.0
C605 C 0.06912 0.57481 0.70273 0.0
C606 C 0.05462 0.56236 0.69651 0.0
C607 C 0.05935 0.55844 0.60149 0.0
C608 C 0.07394 0.57075 0.60767 0.0
C609 C 0.03592 0.53958 0.63914 0.0
O610 O 0.04943 0.50823 0.73633 0.0
O611 O 0.03657 0.49901 0.81101 0.0
O612 O 0.02439 0.4737 0.71193 0.0
O613 O 0.01996 0.49206 0.64789 0.0
O614 O 0.99023 0.4815 0.83017 0.0
O615 O 0.01454 0.46545 0.81152 0.0
O616 O 0.98848 0.48908 0.7171 0.0
O617 O 0.99422 0.51668 0.69123 0.0
O618 O 0.02359 0.53285 0.77555 0.0
O619 O 1.00293 0.51582 0.81641 0.0
C620 C 0.05107 0.50378 0.78478 0.0
O621 O 0.04237 0.52338 0.63783 0.0
O622 O 0.02129 0.542 0.66896 0.0
C623 C 0.02351 0.47621 0.66177 0.0
C624 C 0.98657 0.45014 0.82279 0.0
C625 C 0.96271 0.42011 0.80819 0.0
C626 C 0.97871 0.41996 0.8399 0.0
C627 C 0.99049 0.43489 0.84728 0.0
C628 C 0.97119 0.44999 0.78882 0.0
C629 C 0.95932 0.43519 0.78188 0.0
C630 C 0.9983 0.46623 0.83374 0.0
C631 C 0.98328 0.50272 0.69292 0.0
H632 H 0.07274 0.58089 0.74231 0.0
H633 H 0.04746 0.55897 0.73135 0.0
H634 H 0.05593 0.55194 0.5622 0.0
H635 H 0.08164 0.57321 0.57278 0.0
H636 H 0.98187 0.40849 0.86015 0.0
H637 H 1.00244 0.43467 0.87306 0.0
H638 H 0.96799 0.46154 0.76893 0.0
H639 H 0.947 0.43599 0.75793 0.0
H640 H 0.17028 0.02612 0.31262 0.0
H641 H 0.14205 0.02297 0.36464 0.0
H642 H 0.17079 0.98745 0.45738 0.0
H643 H 0.19888 0.99058 0.40528 0.0
H644 H 0.13515 0.97648 0.44113 0.0
H645 H 0.16635 0.03203 0.50243 0.0
H646 H 0.18055 0.06114 0.49031 0.0
H647 H 0.12871 0.07922 0.43425 0.0
H648 H 0.11416 0.05017 0.44598 0.0
H649 H 0.08274 0.98416 0.67751 0.0
H650 H 0.10706 0.98523 0.61151 0.0
H651 H 0.07529 0.0231 0.53491 0.0
H652 H 0.05093 0.02231 0.60156 0.0
H653 H 0.11067 0.03285 0.53678 0.0
H654 H 0.07869 0.97794 0.48259 0.0
H655 H 0.06483 0.94853 0.49284 0.0
H656 H 0.11805 0.92885 0.53297 0.0
H657 H 0.1322 0.95823 0.52369 0.0
C658 C 0.17033 0.01714 0.34283 0.0
C659 C 0.18669 0.00828 0.35404 0.0
C660 C 0.15426 0.01554 0.37317 0.0
C661 C 0.15422 0.00515 0.41577 0.0
C662 C 0.1703 0.99553 0.42492 0.0
C663 C 0.18636 0.99721 0.39482 0.0
C664 C 0.13801 0.00517 0.45295 0.0
C665 C 0.12991 0.98881 0.46232 0.0
C666 C 0.13075 0.02122 0.4801 0.0
C667 C 0.13923 0.03889 0.47463 0.0
C668 C 0.15798 0.04221 0.48745 0.0
C669 C 0.16607 0.0587 0.48074 0.0
C670 C 0.15551 0.07203 0.46159 0.0
C671 C 0.13681 0.06891 0.44931 0.0
C672 C 0.12863 0.05244 0.45605 0.0
C673 C 0.08085 0.99276 0.64673 0.0
C674 C 0.06469 0.00308 0.6451 0.0
C675 C 0.09481 0.99328 0.60858 0.0
C676 C 0.09305 0.004 0.56716 0.0
C677 C 0.0771 0.01462 0.56602 0.0
C678 C 0.06309 0.01412 0.60429 0.0
C679 C 0.10787 0.0041 0.52547 0.0
C680 C 0.11574 0.0205 0.51532 0.0
C681 C 0.11491 0.98807 0.49751 0.0
C682 C 0.10648 0.97034 0.50289 0.0
C683 C 0.08742 0.96738 0.49397 0.0
C684 C 0.07951 0.95071 0.49955 0.0
C685 C 0.09054 0.93684 0.51366 0.0
C686 C 0.10952 0.93961 0.52209 0.0
C687 C 0.11749 0.95627 0.51662 0.0
H688 H 0.0844 0.92395 0.51797 0.0
H689 H 0.1618 0.08477 0.45625 0.0
H690 H 0.51061 0.14716 0.34056 0.0
H691 H 0.51556 0.11957 0.38183 0.0
H692 H 0.46786 0.1316 0.48071 0.0
H693 H 0.46232 0.15848 0.43856 0.0
H694 H 0.50752 0.1262 0.53033 0.0
H695 H 0.4592 0.10125 0.40596 0.0
H696 H 0.44667 0.09311 0.31579 0.0
H697 H 0.49415 0.06033 0.27468 0.0
H698 H 0.50708 0.06851 0.36449 0.0
H699 H 0.49149 0.05848 0.6903 0.0
H700 H 0.48828 0.08137 0.63063 0.0
H701 H 0.51706 0.04759 0.50828 0.0
H702 H 0.51953 0.02428 0.56721 0.0
H703 H 0.49098 0.06335 0.46356 0.0
H704 H 0.53842 0.08451 0.58544 0.0
H705 H 0.55338 0.09249 0.67255 0.0
H706 H 0.51207 0.13244 0.71456 0.0
H707 H 0.49669 0.12453 0.62799 0.0
C708 C 0.50092 0.14367 0.37009 0.0
C709 C 0.48626 0.15523 0.38687 0.0
C710 C 0.50382 0.12798 0.39382 0.0
C711 C 0.49216 0.1237 0.43465 0.0
C712 C 0.47709 0.13475 0.44959 0.0
C713 C 0.47403 0.15018 0.42556 0.0
C714 C 0.49621 0.10854 0.46506 0.0
C715 C 0.50385 0.11245 0.51596 0.0
C716 C 0.492 0.09059 0.44545 0.0
C717 C 0.48422 0.0857 0.39162 0.0
C718 C 0.46707 0.09249 0.3775 0.0
C719 C 0.45987 0.08782 0.32651 0.0
C720 C 0.46964 0.07627 0.28946 0.0
C721 C 0.48661 0.06931 0.30338 0.0
C722 C 0.49388 0.07395 0.35431 0.0
C723 C 0.49709 0.0559 0.65064 0.0
C724 C 0.50585 0.0396 0.63363 0.0
C725 C 0.49535 0.06906 0.61655 0.0
C726 C 0.50282 0.06647 0.56513 0.0
C727 C 0.51124 0.05001 0.5477 0.0
C728 C 0.51266 0.03669 0.5815 0.0
C729 C 0.50188 0.08099 0.52999 0.0
C730 C 0.49489 0.07702 0.47808 0.0
C731 C 0.50706 0.09891 0.54831 0.0
C732 C 0.51632 0.10382 0.60034 0.0
C733 C 0.53246 0.09492 0.61338 0.0
C734 C 0.54102 0.09944 0.66265 0.0
C735 C 0.53366 0.11294 0.6991 0.0
C736 C 0.51774 0.12198 0.6863 0.0
C737 C 0.50911 0.1175 0.6371 0.0
H738 H 0.5403 0.11642 0.73724 0.0
H739 H 0.46404 0.07266 0.25001 0.0
H740 H 0.35912 0.48196 0.30161 0.0
H741 H 0.39002 0.48149 0.34311 0.0
H742 H 0.37353 0.524 0.46302 0.0
H743 H 0.34331 0.52483 0.42112 0.0
H744 H 0.40725 0.52964 0.44184 0.0
H745 H 0.37265 0.47754 0.48036 0.0
H746 H 0.35562 0.44909 0.45783 0.0
H747 H 0.40351 0.42563 0.37812 0.0
H748 H 0.42075 0.45404 0.39967 0.0
H749 H 0.46167 0.48546 0.65789 0.0
H750 H 0.43572 0.48563 0.59599 0.0
H751 H 0.46917 0.51444 0.49408 0.0
H752 H 0.49497 0.51484 0.55667 0.0
H753 H 0.42879 0.47251 0.4988 0.0
H754 H 0.44265 0.54139 0.42804 0.0
H755 H 0.45751 0.57032 0.46044 0.0
H756 H 0.44707 0.56126 0.62127 0.0
H757 H 0.43193 0.53241 0.58979 0.0
C758 C 0.36231 0.49143 0.33611 0.0
C759 C 0.34869 0.50331 0.35833 0.0
C760 C 0.37991 0.49105 0.36025 0.0
C761 C 0.38416 0.50251 0.40709 0.0
C762 C 0.3708 0.51497 0.42722 0.0
C763 C 0.35341 0.51538 0.40325 0.0
C764 C 0.40196 0.50127 0.43727 0.0
C765 C 0.41202 0.51708 0.45372 0.0
C766 C 0.40823 0.48502 0.45396 0.0
C767 C 0.3979 0.46796 0.44105 0.0
C768 C 0.3795 0.46635 0.45771 0.0
C769 C 0.36981 0.45023 0.44517 0.0
C770 C 0.37846 0.43558 0.41642 0.0
C771 C 0.39682 0.43701 0.40028 0.0
C772 C 0.40655 0.45311 0.41265 0.0
C773 C 0.46354 0.49188 0.62238 0.0
C774 C 0.48046 0.50029 0.61278 0.0
C775 C 0.44865 0.49188 0.58671 0.0
C776 C 0.45024 0.50023 0.54029 0.0
C777 C 0.46731 0.50822 0.52994 0.0
C778 C 0.48214 0.50839 0.56587 0.0
C779 C 0.43393 0.50091 0.50374 0.0
C780 C 0.42418 0.48502 0.48616 0.0
C781 C 0.42762 0.51717 0.48718 0.0
C782 C 0.43636 0.53466 0.50653 0.0
C783 C 0.44347 0.54561 0.47029 0.0
C784 C 0.45194 0.56199 0.4885 0.0
C785 C 0.45329 0.56759 0.54288 0.0
C786 C 0.44607 0.55688 0.57917 0.0
C787 C 0.43756 0.54051 0.56116 0.0
H788 H 0.45989 0.58026 0.55689 0.0
H789 H 0.37094 0.42311 0.40676 0.0
H790 H 0.08538 0.34433 0.35769 0.0
H791 H 0.07584 0.37349 0.40143 0.0
H792 H 0.01861 0.35883 0.37141 0.0
H793 H 0.02824 0.32928 0.32837 0.0
H794 H 0.05725 0.40221 0.3844 0.0
H795 H 0.99389 0.37392 0.48312 0.0
H796 H 0.98175 0.34495 0.50482 0.0
H797 H 0.03715 0.32514 0.51321 0.0
H798 H 0.04959 0.35406 0.49232 0.0
H799 H 0.01738 0.47465 0.55462 0.0
H800 H 0.02146 0.44898 0.48678 0.0
H801 H 0.04016 0.4172 0.60662 0.0
H802 H 0.03562 0.44262 0.6747 0.0
H803 H 0.01809 0.39782 0.54229 0.0
H804 H 0.07042 0.43613 0.52004 0.0
H805 H 0.08604 0.46427 0.50473 0.0
H806 H 0.05855 0.4629 0.35421 0.0
H807 H 0.04258 0.43484 0.36896 0.0
C808 C 0.07078 0.34751 0.35918 0.0
C809 C 0.05754 0.33451 0.34007 0.0
C810 C 0.06532 0.36422 0.38414 0.0
C811 C 0.04648 0.36829 0.39075 0.0
C812 C 0.03323 0.3559 0.36755 0.0
C813 C 0.03872 0.33909 0.34248 0.0
C814 C 0.04103 0.38456 0.42682 0.0
C815 C 0.04848 0.40129 0.41853 0.0
C816 C 0.02993 0.38339 0.47215 0.0
C817 C 0.02263 0.36605 0.48549 0.0
C818 C 1.00346 0.36339 0.48974 0.0
C819 C 0.99653 0.34698 0.50191 0.0
C820 C 0.00866 0.33319 0.51019 0.0
C821 C 0.02776 0.3358 0.5066 0.0
C822 C 0.03475 0.35219 0.49459 0.0
C823 C 0.0224 0.46221 0.56655 0.0
C824 C 0.02627 0.46076 0.62019 0.0
C825 C 0.02477 0.44753 0.52761 0.0
C826 C 0.03131 0.43113 0.5413 0.0
C827 C 0.03505 0.42965 0.59489 0.0
C828 C 0.03253 0.44426 0.63385 0.0
C829 C 0.03442 0.4155 0.50016 0.0
C830 C 0.02653 0.39887 0.50758 0.0
C831 C 0.04554 0.41668 0.45486 0.0
C832 C 0.05516 0.43351 0.44587 0.0
C833 C 0.06761 0.4419 0.48386 0.0
C834 C 0.07654 0.45782 0.47525 0.0
C835 C 0.07325 0.4654 0.4286 0.0
C836 C 0.06106 0.45703 0.39038 0.0
C837 C 0.05207 0.44112 0.39882 0.0
H838 H 0.08018 0.47772 0.42201 0.0
H839 H 1.00327 0.3205 0.51951 0.0
H840 H 0.84938 0.96211 0.09944 0.0
H841 H 0.87836 0.96251 0.05039 0.0
H842 H 0.88933 0.01629 0.12435 0.0
H843 H 0.85977 0.01601 0.17191 0.0
H844 H 0.89535 0.01624 0.02679 0.0
H845 H 0.9157 0.97643 0.14689 0.0
H846 H 0.91579 0.95016 0.19616 0.0
H847 H 0.91758 0.91508 0.04974 0.0
H848 H 0.91711 0.94111 0.99952 0.0
H849 H 0.99522 0.98977 0.92684 0.0
H850 H 0.96991 0.98856 0.99023 0.0
H851 H 0.93041 0.99684 0.86828 0.0
H852 H 0.95564 0.99803 0.80466 0.0
H853 H 0.94041 0.96683 0.99473 0.0
H854 H 0.89397 0.0215 0.9249 0.0
H855 H 0.89705 0.04902 0.88174 0.0
H856 H 0.95243 0.05677 0.94231 0.0
H857 H 0.9496 0.02946 0.98643 0.0
C858 C 0.85836 0.97374 0.10691 0.0
C859 C 0.85253 0.98882 0.14094 0.0
C860 C 0.87499 0.97402 0.0785 0.0
C861 C 0.88643 0.98937 0.08352 0.0
C862 C 0.88094 0.00422 0.11941 0.0
C863 C 0.86416 0.00398 0.14747 0.0
C864 C 0.90312 0.99044 0.04826 0.0
C865 C 0.90525 0.00543 0.02046 0.0
C866 C 0.91635 0.97648 0.03935 0.0
C867 C 0.9161 0.96075 0.06941 0.0
C868 C 0.91584 0.96311 0.12516 0.0
C869 C 0.91599 0.94826 0.15326 0.0
C870 C 0.91655 0.93096 0.12609 0.0
C871 C 0.917 0.92848 0.07073 0.0
C872 C 0.91678 0.94328 0.04243 0.0
C873 C 0.98116 0.99135 0.91335 0.0
C874 C 0.9776 0.99409 0.86037 0.0
C875 C 0.96664 0.99059 0.94978 0.0
C876 C 0.94812 0.99283 0.93461 0.0
C877 C 0.94451 0.99533 0.88154 0.0
C878 C 0.95901 0.99591 0.84496 0.0
C879 C 0.93267 0.99256 0.9742 0.0
C880 C 0.93066 0.97768 1.00215 0.0
C881 C 0.91986 0.00675 0.98428 0.0
C882 C 0.92162 0.02333 0.9585 0.0
C883 C 0.90678 0.02912 0.92917 0.0
C884 C 0.90848 0.04467 0.90452 0.0
C885 C 0.92494 0.0546 0.90914 0.0
C886 C 0.93971 0.04903 0.93859 0.0
C887 C 0.93807 0.0335 0.96338 0.0
H888 H 0.92624 0.06663 0.88998 0.0
H889 H 0.91679 0.91948 0.14793 0.0
H890 H 0.53869 0.86446 0.14819 0.0
H891 H 0.53672 0.89282 0.11 0.0
H892 H 0.56592 0.86909 0.97132 0.0
H893 H 0.56873 0.84124 0.0103 0.0
H894 H 0.57503 0.90229 0.9867 0.0
H895 H 0.51727 0.86976 0.97968 0.0
H896 H 0.49054 0.85498 0.01651 0.0
H897 H 0.47573 0.90456 0.10836 0.0
H898 H 0.50254 0.91959 0.07255 0.0
H899 H 0.50711 0.94609 0.80488 0.0
H900 H 0.51368 0.92428 0.86594 0.0
H901 H 0.55406 0.9604 0.94685 0.0
H902 H 0.548 0.98208 0.88462 0.0
H903 H 0.51064 0.92322 0.96758 0.0
H904 H 0.58857 0.93817 0.98983 0.0
H905 H 0.61295 0.95138 0.93841 0.0
H906 H 0.58524 0.93143 0.79323 0.0
H907 H 0.56083 0.91801 0.84368 0.0
C908 C 0.54518 0.8655 0.11032 0.0
C909 C 0.55356 0.85048 0.08186 0.0
C910 C 0.54387 0.88166 0.0882 0.0
C911 C 0.55073 0.88301 0.03702 0.0
C912 C 0.56037 0.86845 0.01059 0.0
C913 C 0.56183 0.85243 0.03279 0.0
C914 C 0.54653 0.89876 0.00857 0.0
C915 C 0.56097 0.90697 0.98316 0.0
C916 C 0.52815 0.90471 1.00246 0.0
C917 C 0.51202 0.89573 0.02398 0.0
C918 C 0.50838 0.87747 0.00802 0.0
C919 C 0.49322 0.86906 0.02867 0.0
C920 C 0.48148 0.87881 0.06489 0.0
C921 C 0.48486 0.89702 0.08041 0.0
C922 C 0.50004 0.90549 0.05996 0.0
C923 C 0.51741 0.94942 0.83562 0.0
C924 C 0.52717 0.96578 0.83947 0.0
C925 C 0.52107 0.93696 0.87079 0.0
C926 C 0.53448 0.94057 0.91085 0.0
C927 C 0.54388 0.95713 0.91576 0.0
C928 C 0.54039 0.96953 0.88013 0.0
C929 C 0.53909 0.92665 0.9458 0.0
C930 C 0.52475 0.91878 0.97219 0.0
C931 C 0.55742 0.92052 0.95105 0.0
C932 C 0.57283 0.92725 0.92053 0.0
C933 C 0.58781 0.93646 0.94693 0.0
C934 C 0.60156 0.94406 0.91797 0.0
C935 C 0.60051 0.94239 0.86264 0.0
C936 C 0.58594 0.93282 0.83608 0.0
C937 C 0.57217 0.92522 0.86481 0.0
H938 H 0.61101 0.94844 0.84025 0.0
H939 H 0.46974 0.87228 0.08082 0.0
H940 H 0.70911 0.49067 0.02226 0.0
H941 H 0.68134 0.49588 0.97192 0.0
H942 H 0.64879 0.49797 0.11445 0.0
H943 H 0.67685 0.49235 0.16522 0.0
H944 H 0.63197 0.47702 0.03502 0.0
H945 H 0.65705 0.53599 0.05348 0.0
H946 H 0.68082 0.55953 0.05132 0.0
H947 H 0.68739 0.54497 0.88378 0.0
H948 H 0.66383 0.52116 0.88502 0.0
H949 H 0.5521 0.50254 0.89524 0.0
H950 H 0.57788 0.50251 0.95773 0.0
H951 H 0.61641 0.49758 0.82771 0.0
H952 H 0.59067 0.49778 0.76482 0.0
H953 H 0.62856 0.52199 0.90799 0.0
H954 H 0.60455 0.46158 0.89243 0.0
H955 H 0.57985 0.43895 0.89534 0.0
H956 H 0.57053 0.4573 0.05974 0.0
H957 H 0.59499 0.48024 0.05759 0.0
C958 C 0.69609 0.49252 0.04317 0.0
C959 C 0.69524 0.49112 0.09786 0.0
C960 C 0.68016 0.49557 0.01427 0.0
C961 C 0.66283 0.49746 0.03912 0.0
C962 C 0.66195 0.49658 0.09417 0.0
C963 C 0.67802 0.49356 0.12334 0.0
C964 C 0.64574 0.49946 0.00662 0.0
C965 C 0.63111 0.4871 0.00805 0.0
C966 C 0.64457 0.51237 0.97045 0.0
C967 C 0.65876 0.52669 0.96944 0.0
C968 C 0.66366 0.53771 0.01623 0.0
C969 C 0.67708 0.55112 0.01516 0.0
C970 C 0.68564 0.55372 0.96746 0.0
C971 C 0.68076 0.54293 0.92071 0.0
C972 C 0.66735 0.52949 0.92156 0.0
C973 C 0.56605 0.50146 0.87974 0.0
C974 C 0.56922 0.50011 0.8247 0.0
C975 C 0.58082 0.50137 0.91569 0.0
C976 C 0.59919 0.49986 0.89767 0.0
C977 C 0.60241 0.49874 0.8428 0.0
C978 C 0.58763 0.49879 0.80677 0.0
C979 C 0.61501 0.49939 0.9358 0.0
C980 C 0.62939 0.51203 0.93533 0.0
C981 C 0.61588 0.48682 0.97303 0.0
C982 C 0.60148 0.47275 0.97471 0.0
C983 C 0.59716 0.46086 0.92913 0.0
C984 C 0.58321 0.44797 0.93064 0.0
C985 C 0.57358 0.44672 0.97765 0.0
C986 C 0.57797 0.4583 0.02333 0.0
C987 C 0.59189 0.47124 0.022 0.0
H988 H 0.56275 0.43677 0.97871 0.0
H989 H 0.69603 0.56411 0.96672 0.0
H990 H 0.00759 0.6762 0.15048 0.0
H991 H 0.01682 0.64799 0.09803 0.0
H992 H 0.96006 0.62988 0.0931 0.0
H993 H 0.95085 0.65776 0.14563 0.0
H994 H 0.01164 0.60925 0.10239 0.0
H995 H 0.95052 0.61699 0.9617 0.0
H996 H 0.9303 0.64083 0.93596 0.0
H997 H 0.9738 0.67956 0.97266 0.0
H998 H 0.99436 0.65592 0.99765 0.0
H999 H 0.99638 0.53089 0.91252 0.0
H1000 H 0.99213 0.55658 0.98077 0.0
H1001 H 0.01678 0.59148 0.87771 0.0
H1002 H 0.02128 0.56598 0.80978 0.0
H1003 H 0.98358 0.60446 0.92255 0.0
H1004 H 0.04134 0.58138 0.97639 0.0
H1005 H 0.06238 0.55812 1.00148 0.0
H1006 H 0.0281 0.55116 0.13521 0.0
H1007 H 1.00669 0.57419 0.11041 0.0
C1008 C 0.99721 0.66595 0.13963 0.0
C1009 C 0.97846 0.66931 0.15143 0.0
C1010 C 1.00249 0.64985 0.10961 0.0
C1011 C 0.98907 0.63696 0.09096 0.0
C1012 C 0.97061 0.63971 0.10653 0.0
C1013 C 0.96536 0.65569 0.13643 0.0
C1014 C 0.99374 0.62176 0.05015 0.0
C1015 C 1.00551 0.60816 0.06311 0.0
C1016 C 0.98595 0.62047 0.99859 0.0
C1017 C 0.9739 0.63471 0.98203 0.0
C1018 C 0.95579 0.63058 0.96395 0.0
C1019 C 0.94427 0.64406 0.94953 0.0
C1020 C 0.95074 0.66171 0.95284 0.0
C1021 C 0.96878 0.6659 0.97028 0.0
C1022 C 0.98037 0.65247 0.98459 0.0
C1023 C 1.0009 0.54404 0.90441 0.0
C1024 C 0.00915 0.54636 0.85561 0.0
C1025 C 0.99855 0.55869 0.94356 0.0
C1026 C 1.00421 0.57595 0.93442 0.0
C1027 C 0.01233 0.5783 0.88566 0.0
C1028 C 0.01492 0.56366 0.84689 0.0
C1029 C 1.00122 0.59169 0.97492 0.0
C1030 C 0.98971 0.60546 0.96183 0.0
C1031 C 0.0094 0.59315 0.02602 0.0
C1032 C 0.02231 0.57938 0.04123 0.0
C1033 C 0.0382 0.57478 0.01088 0.0
C1034 C 0.05021 0.56166 0.0251 0.0
C1035 C 0.04655 0.55313 0.06983 0.0
C1036 C 0.0309 0.55775 0.10052 0.0
C1037 C 0.01883 0.57085 0.08643 0.0
H1038 H 0.05587 0.54298 0.08078 0.0
H1039 H 0.94178 0.67213 0.94179 0.0
H1040 H 0.08206 0.20364 0.48307 0.0
H1041 H 0.07273 0.18004 0.53447 0.0
H1042 H 0.12126 0.14977 0.48243 0.0
H1043 H 0.13064 0.1735 0.43004 0.0
H1044 H 0.09199 0.13162 0.45256 0.0
H1045 H 0.11144 0.16131 0.61723 0.0
H1046 H 0.11618 0.18576 0.68996 0.0
H1047 H 0.05745 0.18997 0.7125 0.0
H1048 H 0.0523 0.16575 0.63933 0.0
H1049 H 0.04756 0.059 0.55799 0.0
H1050 H 0.07005 0.08239 0.54465 0.0
H1051 H 0.02744 0.12234 0.57226 0.0
H1052 H 1.00485 0.09895 0.5862 0.0
H1053 H 0.05957 0.13286 0.62454 0.0
H1054 H 0.04163 0.10691 0.44617 0.0
H1055 H 0.0377 0.08183 0.37469 0.0
H1056 H 0.0957 0.07022 0.38175 0.0
H1057 H 0.09988 0.09514 0.4538 0.0
C1058 C 0.09126 0.1924 0.48449 0.0
C1059 C 0.10695 0.1903 0.45179 0.0
C1060 C 0.08589 0.17884 0.51411 0.0
C1061 C 0.0962 0.16302 0.51209 0.0
C1062 C 0.11301 0.16181 0.48428 0.0
C1063 C 0.11835 0.17535 0.45433 0.0
C1064 C 0.08749 0.14676 0.52919 0.0
C1065 C 0.0854 0.13175 0.49089 0.0
C1066 C 0.07853 0.14696 0.57872 0.0
C1067 C 0.08149 0.16174 0.62243 0.0
C1068 C 0.09951 0.16755 0.63732 0.0
C1069 C 0.10228 0.18135 0.67873 0.0
C1070 C 0.08713 0.18943 0.70579 0.0
C1071 C 0.06917 0.1837 0.69151 0.0
C1072 C 0.06633 0.16991 0.65009 0.0
C1073 C 0.04292 0.07274 0.56035 0.0
C1074 C 0.0244 0.07716 0.57233 0.0
C1075 C 0.05581 0.08609 0.55308 0.0
C1076 C 0.05037 0.10407 0.55706 0.0
C1077 C 0.03191 0.10854 0.56918 0.0
C1078 C 0.01902 0.09519 0.57684 0.0
C1079 C 0.0638 0.11822 0.54739 0.0
C1080 C 0.06664 0.13272 0.58693 0.0
C1081 C 0.0736 0.11755 0.49921 0.0
C1082 C 0.07105 0.10273 0.4556 0.0
C1083 C 0.05351 0.09893 0.43267 0.0
C1084 C 0.05124 0.08477 0.39206 0.0
C1085 C 0.06643 0.07441 0.3738 0.0
C1086 C 0.08394 0.07823 0.396 0.0
C1087 C 0.08627 0.09237 0.43665 0.0
H1088 H 0.06464 0.06344 0.34237 0.0
H1089 H 0.0893 0.2001 0.73787 0.0
H1090 H 0.34614 0.07259 0.48327 0.0
H1091 H 0.3635 0.05847 0.54635 0.0
H1092 H 0.32013 0.06869 0.66133 0.0
H1093 H 0.3029 0.08486 0.60007 0.0
H1094 H 0.36457 0.06082 0.69321 0.0
H1095 H 0.30762 0.03546 0.60428 0.0
H1096 H 0.28672 0.03422 0.52687 0.0
H1097 H 0.33139 0.01585 0.42365 0.0
H1098 H 0.35258 0.01722 0.50041 0.0
H1099 H 0.40382 0.9742 0.73132 0.0
H1100 H 0.37911 0.99634 0.73423 0.0
H1101 H 0.38978 0.00304 0.57105 0.0
H1102 H 0.41475 0.98199 0.56829 0.0
H1103 H 0.35263 0.00103 0.59228 0.0
H1104 H 0.40915 0.03207 0.66909 0.0
H1105 H 0.4335 0.03921 0.73693 0.0
H1106 H 0.39207 0.04816 0.85788 0.0
H1107 H 0.36751 0.04108 0.79065 0.0
C1108 C 0.34029 0.07299 0.52239 0.0
C1109 C 0.32201 0.0787 0.53408 0.0
C1110 C 0.35055 0.0648 0.55895 0.0
C1111 C 0.34268 0.06184 0.60734 0.0
C1112 C 0.3262 0.07047 0.62341 0.0
C1113 C 0.31613 0.0793 0.58734 0.0
C1114 C 0.34875 0.04585 0.63083 0.0
C1115 C 0.36149 0.04761 0.67276 0.0
C1116 C 0.34473 0.0287 0.60365 0.0
C1117 C 0.33165 0.02642 0.55807 0.0
C1118 C 0.31294 0.03108 0.56507 0.0
C1119 C 0.30106 0.0304 0.5213 0.0
C1120 C 0.30773 0.02498 0.47034 0.0
C1121 C 0.32624 0.02004 0.46314 0.0
C1122 C 0.33817 0.0207 0.50677 0.0
C1123 C 0.40085 0.98021 0.69589 0.0
C1124 C 0.41149 0.97599 0.64959 0.0
C1125 C 0.38666 0.99289 0.6977 0.0
C1126 C 0.38268 0.00136 0.6529 0.0
C1127 C 0.39253 0.99654 0.60602 0.0
C1128 C 0.40679 0.98417 0.60441 0.0
C1129 C 0.36902 0.01594 0.65378 0.0
C1130 C 0.35487 0.01395 0.61559 0.0
C1131 C 0.37178 0.03279 0.6845 0.0
C1132 C 0.38655 0.03588 0.72506 0.0
C1133 C 0.40527 0.03538 0.71024 0.0
C1134 C 0.41909 0.03955 0.74849 0.0
C1135 C 0.41432 0.04425 0.80161 0.0
C1136 C 0.39574 0.04459 0.8167 0.0
C1137 C 0.38187 0.04052 0.77856 0.0
H1138 H 0.42504 0.04751 0.83114 0.0
H1139 H 0.29858 0.02461 0.43642 0.0
H1140 H 0.44629 0.32697 0.54097 0.0
H1141 H 0.46198 0.35491 0.57522 0.0
H1142 H 0.50823 0.32502 0.62492 0.0
H1143 H 0.4929 0.29703 0.58951 0.0
H1144 H 0.49882 0.3583 0.69379 0.0
H1145 H 0.51278 0.33571 0.5134 0.0
H1146 H 0.50437 0.32318 0.42221 0.0
H1147 H 0.47416 0.3709 0.40245 0.0
H1148 H 0.48203 0.38355 0.49403 0.0
H1149 H 0.55098 0.43842 0.71714 0.0
H1150 H 0.54431 0.40653 0.691 0.0
H1151 H 0.50192 0.42079 0.58361 0.0
H1152 H 0.50996 0.45232 0.60581 0.0
H1153 H 0.51442 0.39186 0.54321 0.0
H1154 H 0.49581 0.41222 0.72581 0.0
H1155 H 0.50248 0.42475 0.81757 0.0
H1156 H 0.53952 0.38134 0.83474 0.0
H1157 H 0.53325 0.3687 0.74205 0.0
C1158 C 0.45955 0.32633 0.56064 0.0
C1159 C 0.46852 0.30985 0.56167 0.0
C1160 C 0.46849 0.34227 0.58008 0.0
C1161 C 0.4864 0.34191 0.60128 0.0
C1162 C 0.49444 0.32548 0.60829 0.0
C1163 C 0.48558 0.3095 0.58839 0.0
C1164 C 0.49749 0.35854 0.60946 0.0
C1165 C 0.50249 0.36558 0.66097 0.0
C1166 C 0.50222 0.36789 0.56637 0.0
C1167 C 0.49788 0.36052 0.51076 0.0
C1168 C 0.50423 0.34348 0.48976 0.0
C1169 C 0.49956 0.33636 0.43799 0.0
C1170 C 0.48872 0.34623 0.40657 0.0
C1171 C 0.48255 0.36326 0.42685 0.0
C1172 C 0.48712 0.37042 0.47869 0.0
C1173 C 0.54067 0.43457 0.68676 0.0
C1174 C 0.53099 0.44765 0.66322 0.0
C1175 C 0.53666 0.4164 0.67233 0.0
C1176 C 0.52211 0.41116 0.63666 0.0
C1177 C 0.51316 0.42433 0.61129 0.0
C1178 C 0.51774 0.44239 0.62396 0.0
C1179 C 0.51506 0.39235 0.62829 0.0
C1180 C 0.51096 0.38465 0.57633 0.0
C1181 C 0.51098 0.38246 0.67107 0.0
C1182 C 0.51428 0.3897 0.72701 0.0
C1183 C 0.50541 0.40538 0.74916 0.0
C1184 C 0.50916 0.41251 0.80139 0.0
C1185 C 0.52155 0.40391 0.83213 0.0
C1186 C 0.53002 0.38803 0.8108 0.0
C1187 C 0.52639 0.38089 0.7584 0.0
H1188 H 0.52464 0.4095 0.87241 0.0
H1189 H 0.48513 0.3407 0.36648 0.0
H1190 H 0.20275 0.59833 0.42584 0.0
H1191 H 0.18345 0.6096 0.49954 0.0
H1192 H 0.2241 0.59408 0.60935 0.0
H1193 H 0.2445 0.58381 0.5354 0.0
H1194 H 0.18939 0.57651 0.60977 0.0
H1195 H 0.21204 0.6356 0.63 0.0
H1196 H 0.22349 0.66394 0.60235 0.0
H1197 H 0.17066 0.67269 0.53249 0.0
H1198 H 0.15896 0.64427 0.55893 0.0
H1199 H 0.10546 0.57881 0.73595 0.0
H1200 H 0.13697 0.59055 0.73433 0.0
H1201 H 0.1242 0.61366 0.59153 0.0
H1202 H 0.0923 0.60323 0.59537 0.0
H1203 H 0.15204 0.63182 0.64349 0.0
H1204 H 0.13504 0.56932 0.59079 0.0
H1205 H 0.12296 0.53973 0.60682 0.0
H1206 H 0.1654 0.53586 0.72344 0.0
H1207 H 0.17733 0.56573 0.7094 0.0
C1208 C 0.20822 0.59804 0.4654 0.0
C1209 C 0.22523 0.58981 0.47411 0.0
C1210 C 0.19702 0.60453 0.50779 0.0
C1211 C 0.20236 0.6027 0.55987 0.0
C1212 C 0.2198 0.59566 0.56933 0.0
C1213 C 0.23129 0.58952 0.52682 0.0
C1214 C 0.18804 0.60461 0.60147 0.0
C1215 C 0.1816 0.58878 0.61917 0.0
C1216 C 0.17775 0.62053 0.61246 0.0
C1217 C 0.18461 0.63775 0.59656 0.0
C1218 C 0.20288 0.6435 0.6085 0.0
C1219 C 0.20942 0.6596 0.59305 0.0
C1220 C 0.19781 0.67011 0.56571 0.0
C1221 C 0.17963 0.66455 0.55378 0.0
C1222 C 0.17302 0.64846 0.56912 0.0
C1223 C 0.10906 0.5872 0.70588 0.0
C1224 C 0.0965 0.58972 0.66508 0.0
C1225 C 0.12715 0.59378 0.70476 0.0
C1226 C 0.13308 0.60243 0.66189 0.0
C1227 C 0.11999 0.60682 0.62472 0.0
C1228 C 0.10181 0.6006 0.62647 0.0
C1229 C 0.153 0.60351 0.64906 0.0
C1230 C 0.16035 0.61981 0.63662 0.0
C1231 C 0.16401 0.58787 0.64144 0.0
C1232 C 0.15683 0.56991 0.64989 0.0
C1233 C 0.14165 0.56225 0.62033 0.0
C1234 C 0.13482 0.54544 0.62911 0.0
C1235 C 0.14331 0.53598 0.66648 0.0
C1236 C 0.15873 0.54327 0.69487 0.0
C1237 C 0.16549 0.56017 0.68669 0.0
H1238 H 0.13802 0.52296 0.67321 0.0
H1239 H 0.2029 0.68257 0.55376 0.0
H1240 H 0.93097 0.81023 0.0418 0.0
H1241 H 0.94629 0.83393 0.99968 0.0
H1242 H 0.95351 0.86503 0.15263 0.0
H1243 H 0.93854 0.8416 0.19483 0.0
H1244 H 0.94843 0.88664 0.07608 0.0
H1245 H 0.98564 0.83523 0.10543 0.0
H1246 H 0.99261 0.80294 0.0948 0.0
H1247 H 0.99551 0.80267 0.92595 0.0
H1248 H 0.98816 0.83491 0.93557 0.0
H1249 H 0.02888 0.93749 0.05591 0.0
H1250 H 0.00798 0.91458 0.0831 0.0
H1251 H 0.00781 0.88743 0.92354 0.0
H1252 H 0.02877 0.91012 0.89617 0.0
H1253 H 1.00716 0.86385 0.99314 0.0
H1254 H 0.97375 0.91715 0.96727 0.0
H1255 H 0.96959 0.94984 0.98265 0.0
H1256 H 0.96054 0.94693 0.14827 0.0
H1257 H 0.96521 0.91423 0.13415 0.0
C1258 C 0.93545 0.8223 0.06627 0.0
C1259 C 0.93375 0.82386 0.12178 0.0
C1260 C 0.94414 0.83584 0.04215 0.0
C1261 C 0.95137 0.85105 0.07324 0.0
C1262 C 0.94805 0.85341 0.1279 0.0
C1263 C 0.93938 0.83994 0.15198 0.0
C1264 C 0.9646 0.86319 0.05092 0.0
C1265 C 0.96125 0.88168 0.05786 0.0
C1266 C 0.9813 0.85668 0.02687 0.0
C1267 C 0.98613 0.83741 0.02116 0.0
C1268 C 0.98765 0.82826 0.06602 0.0
C1269 C 0.99167 0.80997 0.06019 0.0
C1270 C 0.99446 0.80075 0.00972 0.0
C1271 C 0.9933 0.80982 0.96501 0.0
C1272 C 0.98919 0.82809 0.97062 0.0
C1273 C 0.02457 0.92648 0.02688 0.0
C1274 C 0.03033 0.92564 0.97392 0.0
C1275 C 0.01259 0.91345 0.04233 0.0
C1276 C 1.00591 0.89961 0.00483 0.0
C1277 C 0.01261 0.89811 0.95282 0.0
C1278 C 0.02469 0.91103 0.9374 0.0
C1279 C 0.99112 0.88732 0.01894 0.0
C1280 C 0.9942 0.86881 0.01044 0.0
C1281 C 0.97424 0.89383 0.04182 0.0
C1282 C 0.96999 0.91326 0.04971 0.0
C1283 C 0.97088 0.92348 0.00698 0.0
C1284 C 0.9685 0.94202 0.01553 0.0
C1285 C 0.96486 0.95047 0.06648 0.0
C1286 C 0.96345 0.94037 0.1089 0.0
C1287 C 0.96596 0.92182 0.10064 0.0
H1288 H 0.96305 0.96484 0.07307 0.0
H1289 H 0.99756 0.78659 0.00527 0.0
H1290 H 0.69074 0.92873 0.00388 0.0
H1291 H 0.67247 0.93579 0.92962 0.0
H1292 H 0.72205 0.9406 0.83833 0.0
H1293 H 0.74064 0.93262 0.91238 0.0
H1294 H 0.70421 0.97239 0.86295 0.0
H1295 H 0.68607 0.91617 0.77144 0.0
H1296 H 0.67662 0.88435 0.76247 0.0
H1297 H 0.6279 0.89816 0.85444 0.0
H1298 H 0.63734 0.92996 0.86487 0.0
H1299 H 0.63188 0.02861 0.7828 0.0
H1300 H 0.65627 0.00606 0.77041 0.0
H1301 H 0.62887 0.97562 0.8809 0.0
H1302 H 0.60391 0.99701 0.89019 0.0
H1303 H 0.6414 0.95356 0.79908 0.0
H1304 H 0.66541 0.00565 0.91688 0.0
H1305 H 0.67491 0.03735 0.93658 0.0
H1306 H 0.71286 0.03102 0.80605 0.0
H1307 H 0.70345 0.99932 0.78539 0.0
C1308 C 0.69783 0.93019 0.9672 0.0
C1309 C 0.71726 0.93071 0.96492 0.0
C1310 C 0.68727 0.93426 0.92436 0.0
C1311 C 0.69591 0.93897 0.87858 0.0
C1312 C 0.71512 0.93712 0.87343 0.0
C1313 C 0.72572 0.93273 0.91607 0.0
C1314 C 0.68544 0.95008 0.84469 0.0
C1315 C 0.69075 0.96814 0.84682 0.0
C1316 C 0.66789 0.9446 0.82405 0.0
C1317 C 0.66221 0.92548 0.81811 0.0
C1318 C 0.67334 0.9124 0.78972 0.0
C1319 C 0.66803 0.89436 0.78448 0.0
C1320 C 0.65162 0.88924 0.80761 0.0
C1321 C 0.64053 0.90214 0.83618 0.0
C1322 C 0.64581 0.92018 0.84154 0.0
C1323 C 0.63093 0.01702 0.80406 0.0
C1324 C 0.61595 0.01488 0.83821 0.0
C1325 C 0.64492 0.00416 0.79695 0.0
C1326 C 0.64435 0.9891 0.82455 0.0
C1327 C 0.62949 0.98698 0.85856 0.0
C1328 C 0.61541 0.99958 0.86495 0.0
C1329 C 0.65964 0.97598 0.82196 0.0
C1330 C 0.65521 0.95764 0.81247 0.0
C1331 C 0.67794 0.98122 0.83683 0.0
C1332 C 0.6835 1.00026 0.84904 0.0
C1333 C 0.67566 0.01109 0.89214 0.0
C1334 C 0.68106 0.02903 0.90354 0.0
C1335 C 0.69441 0.03622 0.87242 0.0
C1336 C 0.70245 0.02546 0.82996 0.0
C1337 C 0.69709 0.00751 0.81837 0.0
H1338 H 0.69858 0.05011 0.88133 0.0
H1339 H 0.64754 0.87527 0.80354 0.0
H1340 H 0.49704 0.70619 0.85553 0.0
H1341 H 0.49189 0.67752 0.79922 0.0
H1342 H 0.53902 0.65518 0.87216 0.0
H1343 H 0.5444 0.68364 0.92661 0.0
H1344 H 0.53739 0.64201 0.77352 0.0
H1345 H 0.49428 0.65199 0.92051 0.0
H1346 H 0.46942 0.66838 0.97161 0.0
H1347 H 0.43359 0.6605 0.83548 0.0
H1348 H 0.45836 0.64425 0.78339 0.0
H1349 H 0.4984 0.55316 0.83348 0.0
H1350 H 0.4951 0.58589 0.84557 0.0
H1351 H 0.50975 0.58755 0.68164 0.0
H1352 H 0.51376 0.55509 0.67035 0.0
H1353 H 0.47764 0.61273 0.80789 0.0
H1354 H 0.54259 0.62261 0.67865 0.0
H1355 H 0.5705 0.60625 0.64533 0.0
H1356 H 0.56638 0.57255 0.76937 0.0
H1357 H 0.53916 0.58936 0.8054 0.0
C1358 C 0.50654 0.69525 0.85813 0.0
C1359 C 0.52093 0.69691 0.89572 0.0
C1360 C 0.50355 0.6789 0.82635 0.0
C1361 C 0.51488 0.66413 0.8322 0.0
C1362 C 0.53007 0.66634 0.86693 0.0
C1363 C 0.53307 0.68257 0.8983 0.0
C1364 C 0.5102 0.64582 0.80712 0.0
C1365 C 0.52419 0.63568 0.77996 0.0
C1366 C 0.49312 0.63749 0.81665 0.0
C1367 C 0.47821 0.64712 0.84794 0.0
C1368 C 0.48113 0.65386 0.90143 0.0
C1369 C 0.46706 0.66311 0.93056 0.0
C1370 C 0.44995 0.66553 0.90676 0.0
C1371 C 0.44686 0.65866 0.85381 0.0
C1372 C 0.46091 0.64943 0.82447 0.0
C1373 C 0.50039 0.56054 0.79989 0.0
C1374 C 0.50661 0.55185 0.75138 0.0
C1375 C 0.49847 0.57918 0.80664 0.0
C1376 C 0.50258 0.58917 0.76474 0.0
C1377 C 0.50685 0.58015 0.71471 0.0
C1378 C 0.50914 0.56165 0.70833 0.0
C1379 C 0.50502 0.60884 0.7754 0.0
C1380 C 0.49061 0.61918 0.79967 0.0
C1381 C 0.52206 0.61722 0.76525 0.0
C1382 C 0.5385 0.60698 0.74394 0.0
C1383 C 0.54764 0.61172 0.69886 0.0
C1384 C 0.56339 0.60241 0.6796 0.0
C1385 C 0.57002 0.58819 0.70466 0.0
C1386 C 0.56113 0.58346 0.74968 0.0
C1387 C 0.54559 0.59294 0.76973 0.0
H1388 H 0.58215 0.58094 0.68948 0.0
H1389 H 0.43907 0.6727 0.92937 0.0
H1390 H 0.80227 0.39692 0.91504 0.0
H1391 H 0.82521 0.38674 0.84893 0.0
H1392 H 0.85974 0.36895 0.97096 0.0
H1393 H 0.83596 0.37713 0.03608 0.0
H1394 H 0.85452 0.40265 0.84538 0.0
H1395 H 0.89518 0.34484 0.93171 0.0
H1396 H 0.88806 0.31599 0.96398 0.0
H1397 H 0.83664 0.31267 0.87814 0.0
H1398 H 0.84354 0.34136 0.8446 0.0
H1399 H 0.95184 0.40254 0.89093 0.0
H1400 H 0.92346 0.3855 0.89697 0.0
H1401 H 0.91184 0.38886 0.73202 0.0
H1402 H 0.9407 0.40559 0.72495 0.0
H1403 H 0.90221 0.35555 0.84538 0.0
H1404 H 0.86756 0.4061 0.73363 0.0
H1405 H 0.87403 0.43467 0.69833 0.0
H1406 H 0.91072 0.45058 0.82916 0.0
H1407 H 0.90419 0.42227 0.86563 0.0
C1408 C 0.81426 0.38999 0.92766 0.0
C1409 C 0.81739 0.38834 0.98159 0.0
C1410 C 0.82755 0.38432 0.88957 0.0
C1411 C 0.84443 0.37725 0.9046 0.0
C1412 C 0.84683 0.37411 0.95759 0.0
C1413 C 0.83331 0.37925 0.99538 0.0
C1414 C 0.86068 0.3766 0.86852 0.0
C1415 C 0.86454 0.39193 0.84381 0.0
C1416 C 0.87399 0.36274 0.86604 0.0
C1417 C 0.86989 0.34533 0.88566 0.0
C1418 C 0.88242 0.3379 0.91928 0.0
C1419 C 0.8784 0.32158 0.93793 0.0
C1420 C 0.8619 0.31251 0.92316 0.0
C1421 C 0.8494 0.31973 0.88965 0.0
C1422 C 0.85335 0.33604 0.87087 0.0
C1423 C 0.94378 0.39899 0.85514 0.0
C1424 C 0.94836 0.40584 0.80773 0.0
C1425 C 0.9275 0.38918 0.85871 0.0
C1426 C 0.91544 0.38618 0.81519 0.0
C1427 C 0.92094 0.39118 0.76617 0.0
C1428 C 0.93732 0.40092 0.76243 0.0
C1429 C 0.8959 0.38175 0.82507 0.0
C1430 C 0.89159 0.36565 0.84501 0.0
C1431 C 0.88195 0.3947 0.82238 0.0
C1432 C 0.88558 0.412 0.80185 0.0
C1433 C 0.87695 0.41574 0.75489 0.0
C1434 C 0.88061 0.43188 0.73472 0.0
C1435 C 0.89283 0.4444 0.76137 0.0
C1436 C 0.9013 0.44086 0.80848 0.0
C1437 C 0.89761 0.42478 0.82893 0.0
H1438 H 0.8957 0.45685 0.74558 0.0
H1439 H 0.85881 0.29989 0.93768 0.0
H1440 H 0.02904 0.19754 0.0214 0.0
H1441 H 0.02144 0.17009 0.9626 0.0
H1442 H 0.0796 0.15888 0.94181 0.0
H1443 H 0.0872 0.18643 0.99923 0.0
H1444 H 0.06114 0.14729 0.85247 0.0
H1445 H 0.05483 0.14208 0.03861 0.0
H1446 H 0.04269 0.15038 0.12877 0.0
H1447 H 0.98731 0.13917 0.07177 0.0
H1448 H 0.99912 0.13109 0.98102 0.0
H1449 H 0.06151 0.05093 0.81701 0.0
H1450 H 0.06602 0.08262 0.85128 0.0
H1451 H 1.00709 0.0908 0.84647 0.0
H1452 H 1.00247 0.05934 0.8115 0.0
H1453 H 0.02388 0.10468 0.94347 0.0
H1454 H 0.03194 0.10547 0.7578 0.0
H1455 H 0.04537 0.09605 0.67023 0.0
H1456 H 0.09879 0.11519 0.72678 0.0
H1457 H 0.08583 0.12405 0.81572 0.0
C1458 C 0.04018 0.18954 1.00276 0.0
C1459 C 0.05871 0.19404 0.01538 0.0
C1460 C 0.03584 0.17375 0.96959 0.0
C1461 C 0.04995 0.16215 0.94873 0.0
C1462 C 0.06845 0.16748 0.95761 0.0
C1463 C 0.07279 0.18323 0.9906 0.0
C1464 C 0.04564 0.14371 0.92265 0.0
C1465 C 0.05308 0.13794 0.87246 0.0
C1466 C 0.03495 0.1315 0.94839 0.0
C1467 C 0.02783 0.13619 1.00296 0.0
C1468 C 0.04005 0.14151 0.04525 0.0
C1469 C 0.03323 0.14616 0.09645 0.0
C1470 C 0.01423 0.14535 0.10597 0.0
C1471 C 1.00202 0.13983 0.06431 0.0
C1472 C 0.00877 0.13522 0.01299 0.0
C1473 C 0.04952 0.05948 0.82316 0.0
C1474 C 0.03163 0.05256 0.81157 0.0
C1475 C 0.05212 0.07761 0.84253 0.0
C1476 C 0.03689 0.0891 0.85126 0.0
C1477 C 0.01904 0.0822 0.84001 0.0
C1478 C 0.01645 0.06419 0.81989 0.0
C1479 C 0.03948 0.10822 0.87348 0.0
C1480 C 0.03177 0.11407 0.92313 0.0
C1481 C 0.05009 0.12038 0.84742 0.0
C1482 C 0.05794 0.1152 0.7938 0.0
C1483 C 0.04661 0.10746 0.7519 0.0
C1484 C 0.05414 0.10223 0.70189 0.0
C1485 C 0.07294 0.10499 0.69285 0.0
C1486 C 0.08424 0.113 0.73387 0.0
C1487 C 0.07681 0.11808 0.78419 0.0
H1488 H 0.07874 0.10097 0.65404 0.0
H1489 H 0.00897 0.14895 0.14564 0.0
H1490 H 0.35879 0.0191 0.146 0.0
H1491 H 0.38314 0.01425 0.07963 0.0
H1492 H 0.34277 0.01583 0.95528 0.0
H1493 H 0.31808 0.02117 0.02247 0.0
H1494 H 0.3747 0.98771 0.93793 0.0
H1495 H 0.36328 0.05097 0.97723 0.0
H1496 H 0.35798 0.07873 0.03747 0.0
H1497 H 0.411 0.07331 0.11041 0.0
H1498 H 0.41647 0.04534 0.05115 0.0
H1499 H 0.44714 0.00198 0.75073 0.0
H1500 H 0.41821 0.00249 0.80105 0.0
H1501 H 0.44842 0.0198 0.94499 0.0
H1502 H 0.47732 0.01877 0.89516 0.0
H1503 H 0.4188 0.03874 0.94471 0.0
H1504 H 0.43123 0.97632 0.90647 0.0
H1505 H 0.4366 0.9473 0.85276 0.0
H1506 H 0.38231 0.94895 0.78452 0.0
H1507 H 0.37691 0.97841 0.83594 0.0
C1508 C 0.35494 0.01806 0.10448 0.0
C1509 C 0.3364 0.02062 0.08977 0.0
C1510 C 0.36896 0.01532 0.06648 0.0
C1511 C 0.36495 0.01485 0.01228 0.0
C1512 C 0.34627 0.01613 0.99684 0.0
C1513 C 0.33212 0.01907 0.03526 0.0
C1514 C 0.38061 0.01455 0.97332 0.0
C1515 C 0.38415 0.99899 0.93838 0.0
C1516 C 0.39331 0.02903 0.97497 0.0
C1517 C 0.39021 0.04599 0.01007 0.0
C1518 C 0.37374 0.05563 0.0064 0.0
C1519 C 0.37072 0.0714 0.04032 0.0
C1520 C 0.38413 0.07775 0.07783 0.0
C1521 C 0.40062 0.06836 0.08137 0.0
C1522 C 0.4037 0.05255 0.04759 0.0
C1523 C 0.44768 0.0056 0.79323 0.0
C1524 C 0.46475 0.01001 0.8187 0.0
C1525 C 0.43105 0.00591 0.82213 0.0
C1526 C 0.43092 0.01099 0.87737 0.0
C1527 C 0.44793 0.01583 0.90258 0.0
C1528 C 0.46455 0.01526 0.87384 0.0
C1529 C 0.41322 0.01175 0.90905 0.0
C1530 C 0.40931 0.02746 0.94316 0.0
C1531 C 0.40031 0.99728 0.9067 0.0
C1532 C 0.40378 0.97978 0.8745 0.0
C1533 C 0.42055 0.97069 0.87929 0.0
C1534 C 0.4236 0.95413 0.84925 0.0
C1535 C 0.40983 0.94631 0.81509 0.0
C1536 C 0.39297 0.95502 0.81097 0.0
C1537 C 0.38996 0.97173 0.84025 0.0
H1538 H 0.4122 0.93347 0.79197 0.0
H1539 H 0.38176 0.08997 0.10407 0.0
H1540 H 0.45872 0.28447 0.06964 0.0
H1541 H 0.46731 0.30926 0.02019 0.0
H1542 H 0.51852 0.31617 0.10808 0.0
H1543 H 0.51004 0.29113 0.15687 0.0
H1544 H 0.49623 0.34662 0.11809 0.0
H1545 H 0.52061 0.30508 0.97867 0.0
H1546 H 0.52042 0.27841 0.91183 0.0
H1547 H 0.4743 0.29943 0.83284 0.0
H1548 H 0.47402 0.32611 0.89969 0.0
H1549 H 0.51838 0.4252 0.9996 0.0
H1550 H 0.52027 0.39574 0.03078 0.0
H1551 H 0.47424 0.37717 0.92982 0.0
H1552 H 0.47298 0.40605 0.89633 0.0
H1553 H 0.49814 0.35183 0.92559 0.0
H1554 H 0.47009 0.39022 0.06787 0.0
H1555 H 0.46772 0.41654 0.13555 0.0
H1556 H 0.51755 0.4011 0.20996 0.0
H1557 H 0.52034 0.37479 0.14225 0.0
C1558 C 0.47223 0.29068 0.0763 0.0
C1559 C 0.48388 0.28568 0.11628 0.0
C1560 C 0.47707 0.30495 0.04841 0.0
C1561 C 0.49354 0.31465 0.06055 0.0
C1562 C 0.50578 0.30887 0.09794 0.0
C1563 C 0.50105 0.29441 0.12528 0.0
C1564 C 0.49665 0.33209 0.03967 0.0
C1565 C 0.49708 0.34774 0.076 0.0
C1566 C 0.4971 0.3336 0.98476 0.0
C1567 C 0.4972 0.31755 0.94451 0.0
C1568 C 0.51031 0.30395 0.94735 0.0
C1569 C 0.51031 0.28884 0.90938 0.0
C1570 C 0.49733 0.28721 0.86818 0.0
C1571 C 0.48434 0.3007 0.8648 0.0
C1572 C 0.48427 0.31583 0.90269 0.0
C1573 C 0.50871 0.41483 0.98384 0.0
C1574 C 0.49528 0.41824 0.94611 0.0
C1575 C 0.50972 0.39799 1.00201 0.0
C1576 C 0.4972 0.38421 0.98339 0.0
C1577 C 0.48402 0.38751 0.94514 0.0
C1578 C 0.48311 0.40423 0.92665 0.0
C1579 C 0.49749 0.36643 0.00402 0.0
C1580 C 0.49759 0.35072 0.96771 0.0
C1581 C 0.49716 0.36484 0.059 0.0
C1582 C 0.49555 0.38067 0.09963 0.0
C1583 C 0.48062 0.39252 0.09841 0.0
C1584 C 0.47919 0.40742 0.13681 0.0
C1585 C 0.49251 0.41053 0.17692 0.0
C1586 C 0.50727 0.3987 0.17879 0.0
C1587 C 0.50878 0.38379 0.14042 0.0
H1588 H 0.49137 0.42207 0.20664 0.0
H1589 H 0.49736 0.2755 0.83881 0.0
H1590 H 0.2027 0.5416 0.04627 0.0
H1591 H 0.17446 0.538 0.99651 0.0
H1592 H 0.18367 0.48102 0.96641 0.0
H1593 H 0.21035 0.48416 0.02547 0.0
H1594 H 0.16269 0.53185 0.91291 0.0
H1595 H 0.1459 0.45707 0.92591 0.0
H1596 H 0.15013 0.43439 0.98728 0.0
H1597 H 0.15382 0.47596 0.11878 0.0
H1598 H 0.14942 0.49886 0.05824 0.0
H1599 H 0.08528 0.5111 0.74371 0.0
H1600 H 0.11548 0.51192 0.7881 0.0
H1601 H 0.08924 0.4991 0.93105 0.0
H1602 H 0.05923 0.49782 0.88667 0.0
H1603 H 0.11865 0.4818 0.92411 0.0
H1604 H 0.10512 0.54149 0.91432 0.0
H1605 H 0.09757 0.5704 0.88374 0.0
H1606 H 0.1473 0.56816 0.79145 0.0
H1607 H 0.15487 0.53887 0.81993 0.0
C1608 C 0.19854 0.52809 0.03143 0.0
C1609 C 0.2088 0.51314 0.04333 0.0
C1610 C 0.18232 0.52607 1.00099 0.0
C1611 C 0.1761 0.50911 0.97804 0.0
C1612 C 0.18727 0.49425 0.98539 0.0
C1613 C 0.20305 0.49616 0.01852 0.0
C1614 C 0.15803 0.50735 0.94719 0.0
C1615 C 0.15317 0.52084 0.91577 0.0
C1616 C 0.14498 0.49331 0.95081 0.0
C1617 C 0.14758 0.47966 0.98748 0.0
C1618 C 0.14759 0.46135 0.96794 0.0
C1619 C 0.15002 0.44847 1.00256 0.0
C1620 C 0.15232 0.45374 0.05686 0.0
C1621 C 0.15211 0.4719 0.07669 0.0
C1622 C 0.14966 0.48484 0.04225 0.0
C1623 C 0.08592 0.50841 0.78456 0.0
C1624 C 0.06968 0.50437 0.81135 0.0
C1625 C 0.10327 0.50896 0.81013 0.0
C1626 C 0.10486 0.50566 0.8634 0.0
C1627 C 0.08863 0.50156 0.88998 0.0
C1628 C 0.07134 0.50092 0.86443 0.0
C1629 C 0.12329 0.50657 0.89161 0.0
C1630 C 0.12826 0.4928 0.92168 0.0
C1631 C 0.13579 0.52111 0.89035 0.0
C1632 C 0.13042 0.53779 0.86857 0.0
C1633 C 0.11422 0.5469 0.88638 0.0
C1634 C 0.10997 0.56341 0.86957 0.0
C1635 C 0.12192 0.57109 0.83556 0.0
C1636 C 0.13798 0.56212 0.81745 0.0
C1637 C 0.14223 0.54553 0.83375 0.0
H1638 H 0.11884 0.58408 0.82375 0.0
H1639 H 0.15421 0.44374 0.08359 0.0
H1640 H 0.95735 0.80726 0.5378 0.0
H1641 H 0.96582 0.83501 0.59305 0.0
H1642 H 0.02198 0.82972 0.53663 0.0
H1643 H 0.01338 0.80214 0.4799 0.0
H1644 H 0.98882 0.84815 0.66979 0.0
H1645 H 0.03695 0.87078 0.50947 0.0
H1646 H 0.04222 0.86418 0.41316 0.0
H1647 H 0.98547 0.84772 0.38981 0.0
H1648 H 0.9798 0.85451 0.48577 0.0
H1649 H 0.02646 0.93483 0.76577 0.0
H1650 H 0.02217 0.90326 0.73105 0.0
H1651 H 0.99018 0.91872 0.60057 0.0
H1652 H 0.9949 0.95021 0.63404 0.0
H1653 H 0.01268 0.89439 0.56368 0.0
H1654 H 0.97168 0.90148 0.71237 0.0
H1655 H 0.9622 0.90824 0.80572 0.0
H1656 H 0.9972 0.86635 0.84854 0.0
H1657 H 0.00746 0.85981 0.75592 0.0
C1658 C 0.97162 0.81179 0.53811 0.0
C1659 C 0.98464 0.80264 0.50393 0.0
C1660 C 0.97646 0.82765 0.5699 0.0
C1661 C 0.99444 0.83472 0.5682 0.0
C1662 C 0.00793 0.8247 0.53795 0.0
C1663 C 1.00306 0.80882 0.50593 0.0
C1664 C 0.99832 0.85339 0.59303 0.0
C1665 C 0.99424 0.85825 0.64685 0.0
C1666 C 1.00487 0.86672 0.56276 0.0
C1667 C 0.00804 0.86293 0.50485 0.0
C1668 C 0.0256 0.86581 0.48372 0.0
C1669 C 0.02865 0.86204 0.4292 0.0
C1670 C 0.01421 0.85547 0.39541 0.0
C1671 C 0.99666 0.85275 0.41603 0.0
C1672 C 0.99352 0.85656 0.47047 0.0
C1673 C 0.01842 0.93151 0.72981 0.0
C1674 C 0.01104 0.94511 0.70268 0.0
C1675 C 0.01593 0.91341 0.71006 0.0
C1676 C 1.00573 0.90849 0.66325 0.0
C1677 C 0.99819 0.92208 0.63657 0.0
C1678 C 1.00085 0.94014 0.65591 0.0
C1679 C 1.00324 0.8893 0.64086 0.0
C1680 C 0.00756 0.88432 0.58721 0.0
C1681 C 0.9964 0.87603 0.6711 0.0
C1682 C 0.99057 0.88033 0.72719 0.0
C1683 C 0.97761 0.89391 0.74182 0.0
C1684 C 0.97209 0.89771 0.79467 0.0
C1685 C 0.97919 0.88784 0.83317 0.0
C1686 C 0.99183 0.87413 0.81886 0.0
C1687 C 0.99755 0.8704 0.76621 0.0
H1688 H 0.97484 0.89075 0.87402 0.0
H1689 H 0.01661 0.85253 0.35325 0.0
H1690 H 0.71784 0.98984 0.48895 0.0
H1691 H 0.69014 0.99378 0.54477 0.0
H1692 H 0.65675 0.96952 0.41409 0.0
H1693 H 0.68366 0.96695 0.35773 0.0
H1694 H 0.63844 0.99471 0.45601 0.0
H1695 H 0.67249 0.94937 0.53324 0.0
H1696 H 0.69766 0.93565 0.57973 0.0
H1697 H 0.69142 0.97556 0.71432 0.0
H1698 H 0.6666 0.98986 0.66812 0.0
H1699 H 0.55606 0.97406 0.59065 0.0
H1700 H 0.58581 0.97109 0.54392 0.0
H1701 H 0.6119 0.00493 0.6726 0.0
H1702 H 0.58223 0.0078 0.71913 0.0
H1703 H 0.6342 0.97682 0.63683 0.0
H1704 H 0.60035 0.02172 0.55974 0.0
H1705 H 0.57344 0.03399 0.5168 0.0
H1706 H 0.57843 0.99314 0.38406 0.0
H1707 H 0.60521 0.98045 0.42662 0.0
C1708 C 0.70459 0.98545 0.4719 0.0
C1709 C 0.70341 0.97769 0.41849 0.0
C1710 C 0.68867 0.9875 0.5043 0.0
C1711 C 0.67107 0.98166 0.48454 0.0
C1712 C 0.66994 0.97412 0.43117 0.0
C1713 C 0.68566 0.97235 0.39881 0.0
C1714 C 0.65363 0.98375 0.51767 0.0
C1715 C 0.63763 0.99049 0.49524 0.0
C1716 C 0.65227 0.97895 0.57004 0.0
C1717 C 0.66789 0.97089 0.5967 0.0
C1718 C 0.67671 0.95543 0.57233 0.0
C1719 C 0.6909 0.94752 0.59873 0.0
C1720 C 0.69622 0.95479 0.64982 0.0
C1721 C 0.68739 0.97002 0.6746 0.0
C1722 C 0.6733 0.97807 0.64825 0.0
C1723 C 0.56816 0.98075 0.60918 0.0
C1724 C 0.56665 0.9914 0.65852 0.0
C1725 C 0.58519 0.97914 0.58224 0.0
C1726 C 0.60123 0.98799 0.60413 0.0
C1727 C 0.59986 0.99803 0.65437 0.0
C1728 C 0.58281 0.9998 0.6809 0.0
C1729 C 0.61923 0.98718 0.57422 0.0
C1730 C 0.63522 0.98091 0.59746 0.0
C1731 C 0.62064 0.9923 0.52257 0.0
C1732 C 0.60468 1.00004 0.4966 0.0
C1733 C 0.59563 0.01528 0.52156 0.0
C1734 C 0.58041 0.02232 0.49727 0.0
C1735 C 0.5742 0.01433 0.44779 0.0
C1736 C 0.58324 0.99931 0.42242 0.0
C1737 C 0.59845 0.99219 0.44659 0.0
H1738 H 0.56241 0.01979 0.42905 0.0
H1739 H 0.70711 0.94858 0.67031 0.0
H1740 H 0.52555 0.72271 0.39041 0.0
H1741 H 0.53122 0.69943 0.44786 0.0
H1742 H 0.58706 0.69387 0.38913 0.0
H1743 H 0.58136 0.71726 0.3319 0.0
H1744 H 0.56685 0.66301 0.36936 0.0
H1745 H 0.57947 0.70618 0.51947 0.0
H1746 H 0.57378 0.73276 0.58411 0.0
H1747 H 0.52378 0.7087 0.63381 0.0
H1748 H 0.529 0.68208 0.56887 0.0
H1749 H 0.58706 0.58803 0.49926 0.0
H1750 H 0.58786 0.61782 0.47125 0.0
H1751 H 0.53441 0.62919 0.542 0.0
H1752 H 0.53399 0.59975 0.57323 0.0
H1753 H 0.55532 0.65802 0.55923 0.0
H1754 H 0.5401 0.61703 0.40566 0.0
H1755 H 0.54392 0.5905 0.33937 0.0
H1756 H 0.59642 0.61075 0.29386 0.0
H1757 H 0.59302 0.6373 0.36041 0.0
C1758 C 0.53935 0.71724 0.39218 0.0
C1759 C 0.55314 0.72199 0.35753 0.0
C1760 C 0.54254 0.70381 0.42467 0.0
C1761 C 0.55955 0.6948 0.42267 0.0
C1762 C 0.57385 0.70064 0.39143 0.0
C1763 C 0.57069 0.71418 0.35929 0.0
C1764 C 0.56131 0.67762 0.44589 0.0
C1765 C 0.56475 0.662 0.41115 0.0
C1766 C 0.55778 0.67615 0.49995 0.0
C1767 C 0.55455 0.69218 0.5389 0.0
C1768 C 0.56716 0.70662 0.5438 0.0
C1769 C 0.56404 0.72169 0.58059 0.0
C1770 C 0.54841 0.72244 0.61296 0.0
C1771 C 0.53588 0.70811 0.60867 0.0
C1772 C 0.53892 0.69302 0.57191 0.0
C1773 C 0.57555 0.59689 0.5097 0.0
C1774 C 0.5604 0.59127 0.53839 0.0
C1775 C 0.57595 0.61393 0.49302 0.0
C1776 C 0.56105 0.62573 0.50357 0.0
C1777 C 0.54604 0.62034 0.53299 0.0
C1778 C 0.5457 0.60333 0.55016 0.0
C1779 C 0.56094 0.64345 0.48266 0.0
C1780 C 0.55766 0.6591 0.51761 0.0
C1781 C 0.56432 0.64499 0.42851 0.0
C1782 C 0.5664 0.62905 0.38841 0.0
C1783 C 0.55253 0.61575 0.38179 0.0
C1784 C 0.5546 0.60073 0.34413 0.0
C1785 C 0.57042 0.59892 0.31253 0.0
C1786 C 0.58418 0.61216 0.31843 0.0
C1787 C 0.58219 0.6272 0.35609 0.0
H1788 H 0.572 0.58728 0.28339 0.0
H1789 H 0.54603 0.73411 0.64144 0.0
H1790 H 0.83406 0.45706 0.43375 0.0
H1791 H 0.85855 0.46481 0.49893 0.0
H1792 H 0.86469 0.51652 0.4438 0.0
H1793 H 0.84025 0.50848 0.37721 0.0
H1794 H 0.89727 0.50159 0.44766 0.0
H1795 H 0.84769 0.51026 0.57189 0.0
H1796 H 0.81926 0.50279 0.61805 0.0
H1797 H 0.84609 0.45736 0.67094 0.0
H1798 H 0.87459 0.46436 0.6244 0.0
H1799 H 0.96759 0.52828 0.6384 0.0
H1800 H 0.9385 0.52648 0.5886 0.0
H1801 H 0.92852 0.47359 0.63171 0.0
H1802 H 0.95746 0.47541 0.68236 0.0
H1803 H 0.89709 0.49167 0.63697 0.0
H1804 H 0.94499 0.48075 0.50715 0.0
H1805 H 0.97375 0.48723 0.46095 0.0
H1806 H 0.95015 0.53576 0.41837 0.0
H1807 H 0.92132 0.52968 0.465 0.0
C1808 C 0.8402 0.47032 0.43667 0.0
C1809 C 0.83504 0.48223 0.40062 0.0
C1810 C 0.85429 0.47477 0.47409 0.0
C1811 C 0.86358 0.49134 0.47698 0.0
C1812 C 0.85779 0.50365 0.4427 0.0
C1813 C 0.84363 0.49917 0.40505 0.0
C1814 C 0.88032 0.49498 0.51216 0.0
C1815 C 0.89705 0.4998 0.48936 0.0
C1816 C 0.88043 0.49208 0.56636 0.0
C1817 C 0.86325 0.48776 0.59418 0.0
C1818 C 0.84749 0.49858 0.59294 0.0
C1819 C 0.83136 0.49444 0.61926 0.0
C1820 C 0.83085 0.47959 0.64728 0.0
C1821 C 0.84648 0.46885 0.64914 0.0
C1822 C 0.86264 0.47291 0.62282 0.0
C1823 C 0.95921 0.51627 0.63759 0.0
C1824 C 0.96505 0.50196 0.66444 0.0
C1825 C 0.94254 0.51522 0.60873 0.0
C1826 C 0.93129 0.49978 0.60543 0.0
C1827 C 0.93686 0.48566 0.63332 0.0
C1828 C 0.95352 0.48671 0.66229 0.0
C1829 C 0.91394 0.4982 0.57233 0.0
C1830 C 0.89718 0.49367 0.59543 0.0
C1831 C 0.9138 0.50122 0.51831 0.0
C1832 C 0.93108 0.50486 0.49005 0.0
C1833 C 0.94598 0.49287 0.48827 0.0
C1834 C 0.96229 0.49646 0.46196 0.0
C1835 C 0.9638 0.51192 0.43687 0.0
C1836 C 0.94897 0.5238 0.43791 0.0
C1837 C 0.93265 0.52029 0.46425 0.0
H1838 H 0.97643 0.51468 0.41651 0.0
H1839 H 0.81835 0.47642 0.66766 0.0
loop_
_geom_bond_atom_site_label_1
_geom_bond_atom_site_label_2
_geom_bond_distance
_geom_bond_site_symmetry_2
_ccdc_geom_bond_type
C0 C1 1.391 . S
C0 C4 1.391 . S
C0 H42 0.948 . S
C1 C0 1.391 . S
C1 C2 1.391 . S
C2 C1 1.391 . S
C2 H58 0.947 . S
C2 C59 1.392 . S
C3 C4 1.391 . S
C3 C7 1.397 . S
C3 C59 1.419 . S
C4 C0 1.391 . S
C4 C3 1.391 . S
C4 C5 1.399 . S
C5 C4 1.399 . S
C5 C8 1.396 . S
C5 C17 1.453 . S
C5 C18 1.684 . S
H6 C30 0.948 . S
C7 C3 1.397 . S
C7 C8 1.394 . S
C7 C26 1.723 . S
C8 C5 1.396 . S
C8 C7 1.394 . S
C8 C38 1.723 . S
H9 C32 0.947 . S
H10 C33 0.948 . S
H11 C39 0.982 . S
H12 C40 0.979 . S
H13 C40 0.980 . S
H14 C40 0.983 . S
H15 C39 0.979 . S
H16 C39 0.977 . S
C17 C5 1.453 . S
C17 H46 0.982 . S
C17 H47 0.979 . S
C17 H48 0.977 . S
C18 C5 1.684 . S
C18 H43 0.979 . S
C18 H44 0.980 . S
C18 H45 0.983 . S
C19 C20 1.391 . S
C19 C24 1.391 . S
C19 H49 0.948 . S
C20 C19 1.391 . S
C20 C21 1.391 . S
C21 C20 1.391 . S
C21 C22 1.392 . S
C21 H50 0.947 . S
C22 C21 1.392 . S
C22 C23 1.419 . S
C22 H51 0.948 . S
C23 C22 1.419 . S
C23 C24 1.391 . S
C23 C27 1.397 . S
C24 C19 1.391 . S
C24 C23 1.391 . S
C24 C25 1.399 . S
C25 C24 1.399 . S
C25 C26 1.396 . S
C25 C28 1.453 . S
C25 C29 1.684 . S
C26 C7 1.723 . S
C26 C25 1.396 . S
C26 C27 1.394 . S
C27 C23 1.397 . S
C27 C26 1.394 . S
C27 C37 1.723 . S
C28 C25 1.453 . S
C28 H52 0.982 . S
C28 H53 0.979 . S
C28 H54 0.977 . S
C29 C25 1.684 . S
C29 H55 0.979 . S
C29 H56 0.980 . S
C29 H57 0.983 . S
C30 H6 0.948 . S
C30 C31 1.391 . S
C30 C35 1.391 . S
C31 C30 1.391 . S
C31 C32 1.391 . S
C32 H9 0.947 . S
C32 C31 1.391 . S
C32 C33 1.392 . S
C33 H10 0.948 . S
C33 C32 1.392 . S
C33 C34 1.419 . S
C34 C33 1.419 . S
C34 C35 1.391 . S
C34 C38 1.397 . S
C35 C30 1.391 . S
C35 C34 1.391 . S
C35 C36 1.399 . S
C36 C35 1.399 . S
C36 C37 1.396 . S
C36 C39 1.453 . S
C36 C40 1.684 . S
C37 C27 1.723 . S
C37 C36 1.396 . S
C37 C38 1.394 . S
C38 C8 1.723 . S
C38 C34 1.397 . S
C38 C37 1.394 . S
C39 H11 0.982 . S
C39 H15 0.979 . S
C39 H16 0.977 . S
C39 C36 1.453 . S
C40 H12 0.979 . S
C40 H13 0.980 . S
C40 H14 0.983 . S
C40 C36 1.684 . S
H41 C59 0.948 . S
H42 C0 0.948 . S
H43 C18 0.979 . S
H44 C18 0.980 . S
H45 C18 0.983 . S
H46 C17 0.982 . S
H47 C17 0.979 . S
H48 C17 0.977 . S
H49 C19 0.948 . S
H50 C21 0.947 . S
H51 C22 0.948 . S
H52 C28 0.982 . S
H53 C28 0.979 . S
H54 C28 0.977 . S
H55 C29 0.979 . S
H56 C29 0.980 . S
H57 C29 0.983 . S
H58 C2 0.947 . S
C59 C2 1.392 . S
C59 C3 1.419 . S
C59 H41 0.948 . S
C60 C61 1.391 . S
C60 C64 1.391 . S
C60 H102 0.948 . S
C61 C60 1.391 . S
C61 C62 1.391 . S
C62 C61 1.391 . S
C62 H118 0.947 . S
C62 C119 1.392 . S
C63 C64 1.391 . S
C63 C67 1.397 . S
C63 C119 1.419 . S
C64 C60 1.391 . S
C64 C63 1.391 . S
C64 C65 1.399 . S
C65 C64 1.399 . S
C65 C68 1.396 . S
C65 C77 1.453 . S
C65 C78 1.684 . S
H66 C90 0.948 . S
C67 C63 1.397 . S
C67 C68 1.394 . S
C67 C86 1.723 . S
C68 C65 1.396 . S
C68 C67 1.394 . S
C68 C98 1.723 . S
H69 C92 0.947 . S
H70 C93 0.948 . S
H71 C99 0.982 . S
H72 C100 0.979 . S
H73 C100 0.980 . S
H74 C100 0.983 . S
H75 C99 0.979 . S
H76 C99 0.977 . S
C77 C65 1.453 . S
C77 H106 0.982 . S
C77 H107 0.979 . S
C77 H108 0.977 . S
C78 C65 1.684 . S
C78 H103 0.979 . S
C78 H104 0.980 . S
C78 H105 0.983 . S
C79 C80 1.391 . S
C79 C84 1.391 . S
C79 H109 0.948 . S
C80 C79 1.391 . S
C80 C81 1.391 . S
C81 C80 1.391 . S
C81 C82 1.392 . S
C81 H110 0.947 . S
C82 C81 1.392 . S
C82 C83 1.419 . S
C82 H111 0.948 . S
C83 C82 1.419 . S
C83 C84 1.391 . S
C83 C87 1.397 . S
C84 C79 1.391 . S
C84 C83 1.391 . S
C84 C85 1.399 . S
C85 C84 1.399 . S
C85 C86 1.396 . S
C85 C88 1.453 . S
C85 C89 1.684 . S
C86 C67 1.723 . S
C86 C85 1.396 . S
C86 C87 1.394 . S
C87 C83 1.397 . S
C87 C86 1.394 . S
C87 C97 1.723 . S
C88 C85 1.453 . S
C88 H112 0.982 . S
C88 H113 0.979 . S
C88 H114 0.977 . S
C89 C85 1.684 . S
C89 H115 0.979 . S
C89 H116 0.980 . S
C89 H117 0.983 . S
C90 H66 0.948 . S
C90 C91 1.391 . S
C90 C95 1.391 . S
C91 C90 1.391 . S
C91 C92 1.391 . S
C92 H69 0.947 . S
C92 C91 1.391 . S
C92 C93 1.392 . S
C93 H70 0.948 . S
C93 C92 1.392 . S
C93 C94 1.419 . S
C94 C93 1.419 . S
C94 C95 1.391 . S
C94 C98 1.397 . S
C95 C90 1.391 . S
C95 C94 1.391 . S
C95 C96 1.399 . S
C96 C95 1.399 . S
C96 C97 1.396 . S
C96 C99 1.453 . S
C96 C100 1.684 . S
C97 C87 1.723 . S
C97 C96 1.396 . S
C97 C98 1.394 . S
C98 C68 1.723 . S
C98 C94 1.397 . S
C98 C97 1.394 . S
C99 H71 0.982 . S
C99 H75 0.979 . S
C99 H76 0.977 . S
C99 C96 1.453 . S
C100 H72 0.979 . S
C100 H73 0.980 . S
C100 H74 0.983 . S
C100 C96 1.684 . S
H101 C119 0.948 . S
H102 C60 0.948 . S
H103 C78 0.979 . S
H104 C78 0.980 . S
H105 C78 0.983 . S
H106 C77 0.982 . S
H107 C77 0.979 . S
H108 C77 0.977 . S
H109 C79 0.948 . S
H110 C81 0.947 . S
H111 C82 0.948 . S
H112 C88 0.982 . S
H113 C88 0.979 . S
H114 C88 0.977 . S
H115 C89 0.979 . S
H116 C89 0.980 . S
H117 C89 0.983 . S
H118 C62 0.947 . S
C119 C62 1.392 . S
C119 C63 1.419 . S
C119 H101 0.948 . S
C120 C121 1.391 . S
C120 C124 1.391 . S
C120 H162 0.948 . S
C121 C120 1.391 . S
C121 C122 1.391 . S
C122 C121 1.391 . S
C122 H178 0.947 . S
C122 C179 1.392 . S
C123 C124 1.406 . S
C123 C127 1.397 1_565 S
C123 C179 1.418 . S
C124 C120 1.391 . S
C124 C123 1.406 . S
C124 C125 1.399 . S
C125 C124 1.399 . S
C125 C128 1.386 1_565 S
C125 C137 1.453 1_565 S
C125 C138 1.684 . S
H126 C150 0.948 . S
C127 C123 1.397 1_545 S
C127 C128 1.401 . S
C127 C146 1.717 . S
C128 C125 1.386 1_545 S
C128 C127 1.401 . S
C128 C158 1.719 . S
H129 C152 0.947 . S
H130 C153 0.948 . S
H131 C159 0.982 . S
H132 C160 0.979 . S
H133 C160 0.980 . S
H134 C160 0.983 . S
H135 C159 0.979 . S
H136 C159 0.977 . S
C137 C125 1.453 1_545 S
C137 H166 0.982 . S
C137 H167 0.979 . S
C137 H168 0.977 . S
C138 C125 1.684 . S
C138 H163 0.979 . S
C138 H164 0.980 . S
C138 H165 0.983 . S
C139 C140 1.391 . S
C139 C144 1.391 . S
C139 H169 0.948 . S
C140 C139 1.391 . S
C140 C141 1.391 . S
C141 C140 1.391 . S
C141 C142 1.392 . S
C141 H170 0.947 . S
C142 C141 1.392 . S
C142 C143 1.426 . S
C142 H171 0.948 . S
C143 C142 1.426 . S
C143 C144 1.392 . S
C143 C147 1.400 1_565 S
C144 C139 1.391 . S
C144 C143 1.392 . S
C144 C145 1.399 . S
C145 C144 1.399 . S
C145 C146 1.395 1_565 S
C145 C148 1.453 1_565 S
C145 C149 1.684 . S
C146 C127 1.717 . S
C146 C145 1.395 1_545 S
C146 C147 1.389 . S
C147 C143 1.400 1_545 S
C147 C146 1.389 . S
C147 C157 1.729 . S
C148 C145 1.453 1_545 S
C148 H172 0.982 . S
C148 H173 0.979 . S
C148 H174 0.977 . S
C149 C145 1.684 . S
C149 H175 0.979 . S
C149 H176 0.980 . S
C149 H177 0.983 . S
C150 H126 0.948 . S
C150 C151 1.391 . S
C150 C155 1.391 . S
C151 C150 1.391 . S
C151 C152 1.391 . S
C152 H129 0.947 . S
C152 C151 1.391 . S
C152 C153 1.392 . S
C153 H130 0.948 . S
C153 C152 1.392 . S
C153 C154 1.432 . S
C154 C153 1.432 . S
C154 C155 1.401 . S
C154 C158 1.387 1_565 S
C155 C150 1.391 . S
C155 C154 1.401 . S
C155 C156 1.399 . S
C156 C155 1.399 . S
C156 C157 1.384 1_565 S
C156 C159 1.453 1_565 S
C156 C160 1.684 . S
C157 C147 1.729 . S
C157 C156 1.384 1_545 S
C157 C158 1.389 . S
C158 C128 1.719 . S
C158 C154 1.387 1_545 S
C158 C157 1.389 . S
C159 H131 0.982 . S
C159 H135 0.979 . S
C159 H136 0.977 . S
C159 C156 1.453 1_545 S
C160 H132 0.979 . S
C160 H133 0.980 . S
C160 H134 0.983 . S
C160 C156 1.684 . S
H161 C179 0.948 . S
H162 C120 0.948 . S
H163 C138 0.979 . S
H164 C138 0.980 . S
H165 C138 0.983 . S
H166 C137 0.982 . S
H167 C137 0.979 . S
H168 C137 0.977 . S
H169 C139 0.948 . S
H170 C141 0.947 . S
H171 C142 0.948 . S
H172 C148 0.982 . S
H173 C148 0.979 . S
H174 C148 0.977 . S
H175 C149 0.979 . S
H176 C149 0.980 . S
H177 C149 0.983 . S
H178 C122 0.947 . S
C179 C122 1.392 . S
C179 C123 1.418 . S
C179 H161 0.948 . S
C180 C181 1.391 . S
C180 C184 1.391 . S
C180 H222 0.948 . S
C181 C180 1.391 . S
C181 C182 1.391 . S
C182 C181 1.391 . S
C182 H238 0.947 . S
C182 C239 1.392 . S
C183 C184 1.391 . S
C183 C187 1.397 . S
C183 C239 1.419 . S
C184 C180 1.391 . S
C184 C183 1.391 . S
C184 C185 1.399 . S
C185 C184 1.399 . S
C185 C188 1.396 . S
C185 C197 1.453 . S
C185 C198 1.684 . S
H186 C210 0.948 . S
C187 C183 1.397 . S
C187 C188 1.394 . S
C187 C206 1.723 1_554 S
C188 C185 1.396 . S
C188 C187 1.394 . S
C188 C218 1.733 . S
H189 C212 0.947 . S
H190 C213 0.948 . S
H191 C219 0.982 . S
H192 C220 0.979 . S
H193 C220 0.980 . S
H194 C220 0.983 . S
H195 C219 0.979 . S
H196 C219 0.977 . S
C197 C185 1.453 . S
C197 H226 0.982 . S
C197 H227 0.979 . S
C197 H228 0.977 . S
C198 C185 1.684 . S
C198 H223 0.979 . S
C198 H224 0.980 . S
C198 H225 0.983 . S
C199 C200 1.391 . S
C199 C204 1.391 . S
C199 H229 0.948 . S
C200 C199 1.391 . S
C200 C201 1.391 . S
C201 C200 1.391 . S
C201 C202 1.392 . S
C201 H230 0.947 . S
C202 C201 1.392 . S
C202 C203 1.419 . S
C202 H231 0.948 . S
C203 C202 1.419 . S
C203 C204 1.391 . S
C203 C207 1.397 . S
C204 C199 1.391 . S
C204 C203 1.391 . S
C204 C205 1.399 . S
C205 C204 1.399 . S
C205 C206 1.396 . S
C205 C208 1.453 . S
C205 C209 1.684 1_556 S
C206 C187 1.723 1_556 S
C206 C205 1.396 . S
C206 C207 1.394 . S
C207 C203 1.397 . S
C207 C206 1.394 . S
C207 C217 1.723 . S
C208 C205 1.453 . S
C208 H232 0.982 . S
C208 H233 0.979 . S
C208 H234 0.977 1_556 S
C209 C205 1.684 1_554 S
C209 H235 0.979 1_554 S
C209 H236 0.980 . S
C209 H237 0.983 1_554 S
C210 H186 0.948 . S
C210 C211 1.391 . S
C210 C215 1.391 . S
C211 C210 1.391 . S
C211 C212 1.391 1_556 S
C212 H189 0.947 . S
C212 C211 1.391 1_554 S
C212 C213 1.392 . S
C213 H190 0.948 . S
C213 C212 1.392 . S
C213 C214 1.419 1_554 S
C214 C213 1.419 1_556 S
C214 C215 1.391 . S
C214 C218 1.395 1_556 S
C215 C210 1.391 . S
C215 C214 1.391 . S
C215 C216 1.399 . S
C216 C215 1.399 . S
C216 C217 1.396 . S
C216 C219 1.453 . S
C216 C220 1.684 . S
C217 C207 1.723 . S
C217 C216 1.396 . S
C217 C218 1.384 1_556 S
C218 C188 1.733 . S
C218 C214 1.395 1_554 S
C218 C217 1.384 1_554 S
C219 H191 0.982 . S
C219 H195 0.979 . S
C219 H196 0.977 . S
C219 C216 1.453 . S
C220 H192 0.979 . S
C220 H193 0.980 . S
C220 H194 0.983 . S
C220 C216 1.684 . S
H221 C239 0.948 . S
H222 C180 0.948 . S
H223 C198 0.979 . S
H224 C198 0.980 . S
H225 C198 0.983 . S
H226 C197 0.982 . S
H227 C197 0.979 . S
H228 C197 0.977 . S
H229 C199 0.948 . S
H230 C201 0.947 . S
H231 C202 0.948 . S
H232 C208 0.982 . S
H233 C208 0.979 . S
H234 C208 0.977 1_554 S
H235 C209 0.979 1_556 S
H236 C209 0.980 . S
H237 C209 0.983 1_556 S
H238 C182 0.947 . S
C239 C182 1.392 . S
C239 C183 1.419 . S
C239 H221 0.948 . S
C240 C241 1.391 . S
C240 C244 1.391 . S
C240 H282 0.948 . S
C241 C240 1.391 . S
C241 C242 1.391 . S
C242 C241 1.391 . S
C242 H298 0.947 . S
C242 C299 1.392 . S
C243 C244 1.391 . S
C243 C247 1.397 . S
C243 C299 1.419 . S
C244 C240 1.391 . S
C244 C243 1.391 . S
C244 C245 1.399 . S
C245 C244 1.399 . S
C245 C248 1.396 . S
C245 C257 1.453 . S
C245 C258 1.684 . S
H246 C270 0.948 1_556 S
C247 C243 1.397 . S
C247 C248 1.394 . S
C247 C266 1.723 . S
C248 C245 1.396 . S
C248 C247 1.394 . S
C248 C278 1.723 . S
H249 C272 0.947 . S
H250 C273 0.948 . S
H251 C279 0.982 . S
H252 C280 0.979 . S
H253 C280 0.980 . S
H254 C280 0.983 . S
H255 C279 0.979 . S
H256 C279 0.977 . S
C257 C245 1.453 . S
C257 H286 0.982 . S
C257 H287 0.979 . S
C257 H288 0.977 . S
C258 C245 1.684 . S
C258 H283 0.979 . S
C258 H284 0.980 . S
C258 H285 0.983 . S
C259 C260 1.391 . S
C259 C264 1.391 . S
C259 H289 0.948 . S
C260 C259 1.391 . S
C260 C261 1.391 . S
C261 C260 1.391 . S
C261 C262 1.392 . S
C261 H290 0.947 . S
C262 C261 1.392 . S
C262 C263 1.419 . S
C262 H291 0.948 . S
C263 C262 1.419 . S
C263 C264 1.391 . S
C263 C267 1.397 . S
C264 C259 1.391 . S
C264 C263 1.391 . S
C264 C265 1.399 . S
C265 C264 1.399 . S
C265 C266 1.396 . S
C265 C268 1.453 . S
C265 C269 1.684 . S
C266 C247 1.723 . S
C266 C265 1.396 . S
C266 C267 1.394 . S
C267 C263 1.397 . S
C267 C266 1.394 . S
C267 C277 1.723 . S
C268 C265 1.453 . S
C268 H292 0.982 . S
C268 H293 0.979 . S
C268 H294 0.977 . S
C269 C265 1.684 . S
C269 H295 0.979 . S
C269 H296 0.980 . S
C269 H297 0.983 . S
C270 H246 0.948 1_554 S
C270 C271 1.391 1_554 S
C270 C275 1.391 . S
C271 C270 1.391 1_556 S
C271 C272 1.391 . S
C272 H249 0.947 . S
C272 C271 1.391 . S
C272 C273 1.392 1_556 S
C273 H250 0.948 . S
C273 C272 1.392 1_554 S
C273 C274 1.419 . S
C274 C273 1.419 . S
C274 C275 1.391 . S
C274 C278 1.397 . S
C275 C270 1.391 . S
C275 C274 1.391 . S
C275 C276 1.399 . S
C276 C275 1.399 . S
C276 C277 1.396 . S
C276 C279 1.453 . S
C276 C280 1.684 . S
C277 C267 1.723 . S
C277 C276 1.396 . S
C277 C278 1.394 . S
C278 C248 1.723 . S
C278 C274 1.397 . S
C278 C277 1.394 . S
C279 H251 0.982 . S
C279 H255 0.979 . S
C279 H256 0.977 . S
C279 C276 1.453 . S
C280 H252 0.979 . S
C280 H253 0.980 . S
C280 H254 0.983 . S
C280 C276 1.684 . S
H281 C299 0.948 . S
H282 C240 0.948 . S
H283 C258 0.979 . S
H284 C258 0.980 . S
H285 C258 0.983 . S
H286 C257 0.982 . S
H287 C257 0.979 . S
H288 C257 0.977 . S
H289 C259 0.948 . S
H290 C261 0.947 . S
H291 C262 0.948 . S
H292 C268 0.982 . S
H293 C268 0.979 . S
H294 C268 0.977 . S
H295 C269 0.979 . S
H296 C269 0.980 . S
H297 C269 0.983 . S
H298 C242 0.947 . S
C299 C242 1.392 . S
C299 C243 1.419 . S
C299 H281 0.948 . S
C300 C301 1.391 . S
C300 C304 1.391 . S
C300 H342 0.948 . S
C301 C300 1.391 . S
C301 C302 1.391 . S
C302 C301 1.391 . S
C302 H358 0.947 . S
C302 C359 1.392 . S
C303 C304 1.391 . S
C303 C307 1.397 . S
C303 C359 1.419 . S
C304 C300 1.391 . S
C304 C303 1.391 . S
C304 C305 1.399 . S
C305 C304 1.399 . S
C305 C308 1.396 . S
C305 C317 1.453 . S
C305 C318 1.684 . S
H306 C330 0.948 . S
C307 C303 1.397 . S
C307 C308 1.394 . S
C307 C326 1.723 . S
C308 C305 1.396 . S
C308 C307 1.394 . S
C308 C338 1.723 . S
H309 C332 0.947 . S
H310 C333 0.948 . S
H311 C339 0.982 . S
H312 C340 0.979 . S
H313 C340 0.980 . S
H314 C340 0.983 . S
H315 C339 0.979 . S
H316 C339 0.977 . S
C317 C305 1.453 . S
C317 H346 0.982 . S
C317 H347 0.979 . S
C317 H348 0.977 . S
C318 C305 1.684 . S
C318 H343 0.979 . S
C318 H344 0.980 . S
C318 H345 0.983 . S
C319 C320 1.391 . S
C319 C324 1.391 . S
C319 H349 0.948 . S
C320 C319 1.391 . S
C320 C321 1.391 . S
C321 C320 1.391 . S
C321 C322 1.392 . S
C321 H350 0.947 1_554 S
C322 C321 1.392 . S
C322 C323 1.419 . S
C322 H351 0.948 . S
C323 C322 1.419 . S
C323 C324 1.391 . S
C323 C327 1.397 . S
C324 C319 1.391 . S
C324 C323 1.391 . S
C324 C325 1.399 . S
C325 C324 1.399 . S
C325 C326 1.396 . S
C325 C328 1.453 . S
C325 C329 1.684 . S
C326 C307 1.723 . S
C326 C325 1.396 . S
C326 C327 1.394 . S
C327 C323 1.397 . S
C327 C326 1.394 . S
C327 C337 1.723 . S
C328 C325 1.453 . S
C328 H352 0.982 . S
C328 H353 0.979 . S
C328 H354 0.977 . S
C329 C325 1.684 . S
C329 H355 0.979 . S
C329 H356 0.980 . S
C329 H357 0.983 . S
C330 H306 0.948 . S
C330 C331 1.391 . S
C330 C335 1.391 . S
C331 C330 1.391 . S
C331 C332 1.391 . S
C332 H309 0.947 . S
C332 C331 1.391 . S
C332 C333 1.392 . S
C333 H310 0.948 . S
C333 C332 1.392 . S
C333 C334 1.419 . S
C334 C333 1.419 . S
C334 C335 1.391 . S
C334 C338 1.397 . S
C335 C330 1.391 . S
C335 C334 1.391 . S
C335 C336 1.399 . S
C336 C335 1.399 . S
C336 C337 1.396 . S
C336 C339 1.453 . S
C336 C340 1.684 . S
C337 C327 1.723 . S
C337 C336 1.396 . S
C337 C338 1.394 . S
C338 C308 1.723 . S
C338 C334 1.397 . S
C338 C337 1.394 . S
C339 H311 0.982 . S
C339 H315 0.979 . S
C339 H316 0.977 . S
C339 C336 1.453 . S
C340 H312 0.979 . S
C340 H313 0.980 . S
C340 H314 0.983 . S
C340 C336 1.684 . S
H341 C359 0.948 . S
H342 C300 0.948 . S
H343 C318 0.979 . S
H344 C318 0.980 . S
H345 C318 0.983 . S
H346 C317 0.982 . S
H347 C317 0.979 . S
H348 C317 0.977 . S
H349 C319 0.948 . S
H350 C321 0.947 1_556 S
H351 C322 0.948 . S
H352 C328 0.982 . S
H353 C328 0.979 . S
H354 C328 0.977 . S
H355 C329 0.979 . S
H356 C329 0.980 . S
H357 C329 0.983 . S
H358 C302 0.947 . S
C359 C302 1.392 . S
C359 C303 1.419 . S
C359 H341 0.948 . S
C360 C361 1.391 . S
C360 C364 1.391 1_556 S
C360 H402 0.948 . S
C361 C360 1.391 . S
C361 C362 1.391 . S
C362 C361 1.391 . S
C362 H418 0.947 . S
C362 C419 1.392 1_556 S
C363 C364 1.406 . S
C363 C367 1.388 1_545 S
C363 C419 1.428 . S
C364 C360 1.391 1_554 S
C364 C363 1.406 . S
C364 C365 1.399 . S
C365 C364 1.399 . S
C365 C368 1.382 1_545 S
C365 C377 1.453 1_545 S
C365 C378 1.684 . S
H366 C390 0.948 . S
C367 C363 1.388 1_565 S
C367 C368 1.394 . S
C367 C386 1.715 . S
C368 C365 1.382 1_565 S
C368 C367 1.394 . S
C368 C398 1.728 . S
H369 C392 0.947 . S
H370 C393 0.948 . S
H371 C399 0.982 . S
H372 C400 0.979 . S
H373 C400 0.980 . S
H374 C400 0.983 . S
H375 C399 0.979 . S
H376 C399 0.977 . S
C377 C365 1.453 1_565 S
C377 H406 0.982 . S
C377 H407 0.979 . S
C377 H408 0.977 . S
C378 C365 1.684 . S
C378 H403 0.979 . S
C378 H404 0.980 . S
C378 H405 0.983 . S
C379 C380 1.391 . S
C379 C384 1.391 . S
C379 H409 0.948 . S
C380 C379 1.391 . S
C380 C381 1.391 . S
C381 C380 1.391 . S
C381 C382 1.392 . S
C381 H410 0.947 . S
C382 C381 1.392 . S
C382 C383 1.417 . S
C382 H411 0.948 . S
C383 C382 1.417 . S
C383 C384 1.402 . S
C383 C387 1.401 1_545 S
C384 C379 1.391 . S
C384 C383 1.402 . S
C384 C385 1.399 . S
C385 C384 1.399 . S
C385 C386 1.391 1_545 S
C385 C388 1.453 1_545 S
C385 C389 1.684 . S
C386 C367 1.715 . S
C386 C385 1.391 1_565 S
C386 C387 1.399 . S
C387 C383 1.401 1_565 S
C387 C386 1.399 . S
C387 C397 1.722 . S
C388 C385 1.453 1_565 S
C388 H412 0.982 . S
C388 H413 0.979 . S
C388 H414 0.977 . S
C389 C385 1.684 . S
C389 H415 0.979 . S
C389 H416 0.980 . S
C389 H417 0.983 . S
C390 H366 0.948 . S
C390 C391 1.391 . S
C390 C395 1.391 . S
C391 C390 1.391 . S
C391 C392 1.391 . S
C392 H369 0.947 . S
C392 C391 1.391 . S
C392 C393 1.392 . S
C393 H370 0.948 . S
C393 C392 1.392 . S
C393 C394 1.431 . S
C394 C393 1.431 . S
C394 C395 1.392 . S
C394 C398 1.395 1_545 S
C395 C390 1.391 . S
C395 C394 1.392 . S
C395 C396 1.399 . S
C396 C395 1.399 . S
C396 C397 1.393 1_545 S
C396 C399 1.453 1_545 S
C396 C400 1.684 . S
C397 C387 1.722 . S
C397 C396 1.393 1_565 S
C397 C398 1.386 . S
C398 C368 1.728 . S
C398 C394 1.395 1_565 S
C398 C397 1.386 . S
C399 H371 0.982 . S
C399 H375 0.979 . S
C399 H376 0.977 . S
C399 C396 1.453 1_565 S
C400 H372 0.979 . S
C400 H373 0.980 . S
C400 H374 0.983 . S
C400 C396 1.684 . S
H401 C419 0.948 . S
H402 C360 0.948 . S
H403 C378 0.979 . S
H404 C378 0.980 . S
H405 C378 0.983 . S
H406 C377 0.982 . S
H407 C377 0.979 . S
H408 C377 0.977 . S
H409 C379 0.948 . S
H410 C381 0.947 . S
H411 C382 0.948 . S
H412 C388 0.982 . S
H413 C388 0.979 . S
H414 C388 0.977 . S
H415 C389 0.979 . S
H416 C389 0.980 . S
H417 C389 0.983 . S
H418 C362 0.947 . S
C419 C362 1.392 1_554 S
C419 C363 1.428 . S
C419 H401 0.948 . S
C420 C421 1.391 . S
C420 C424 1.391 . S
C420 H462 0.948 . S
C421 C420 1.391 . S
C421 C422 1.391 . S
C422 C421 1.391 . S
C422 H478 0.947 . S
C422 C479 1.392 . S
C423 C424 1.391 . S
C423 C427 1.397 . S
C423 C479 1.419 . S
C424 C420 1.391 . S
C424 C423 1.391 . S
C424 C425 1.399 . S
C425 C424 1.399 . S
C425 C428 1.396 . S
C425 C437 1.453 . S
C425 C438 1.684 . S
H426 C450 0.948 . S
C427 C423 1.397 . S
C427 C428 1.394 . S
C427 C446 1.723 . S
C428 C425 1.396 . S
C428 C427 1.394 . S
C428 C458 1.723 . S
H429 C452 0.947 . S
H430 C453 0.948 . S
H431 C459 0.982 . S
H432 C460 0.979 . S
H433 C460 0.980 . S
H434 C460 0.983 . S
H435 C459 0.979 . S
H436 C459 0.977 . S
C437 C425 1.453 . S
C437 H466 0.982 . S
C437 H467 0.979 . S
C437 H468 0.977 . S
C438 C425 1.684 . S
C438 H463 0.979 . S
C438 H464 0.980 . S
C438 H465 0.983 . S
C439 C440 1.391 . S
C439 C444 1.391 . S
C439 H469 0.948 . S
C440 C439 1.391 . S
C440 C441 1.391 . S
C441 C440 1.391 . S
C441 C442 1.392 . S
C441 H470 0.947 . S
C442 C441 1.392 . S
C442 C443 1.419 . S
C442 H471 0.948 . S
C443 C442 1.419 . S
C443 C444 1.391 . S
C443 C447 1.397 . S
C444 C439 1.391 . S
C444 C443 1.391 . S
C444 C445 1.399 . S
C445 C444 1.399 . S
C445 C446 1.396 . S
C445 C448 1.453 . S
C445 C449 1.684 . S
C446 C427 1.723 . S
C446 C445 1.396 . S
C446 C447 1.394 . S
C447 C443 1.397 . S
C447 C446 1.394 . S
C447 C457 1.723 . S
C448 C445 1.453 . S
C448 H472 0.982 . S
C448 H473 0.979 . S
C448 H474 0.977 . S
C449 C445 1.684 . S
C449 H475 0.979 . S
C449 H476 0.980 . S
C449 H477 0.983 . S
C450 H426 0.948 . S
C450 C451 1.391 . S
C450 C455 1.391 . S
C451 C450 1.391 . S
C451 C452 1.391 . S
C452 H429 0.947 . S
C452 C451 1.391 . S
C452 C453 1.392 . S
C453 H430 0.948 . S
C453 C452 1.392 . S
C453 C454 1.419 . S
C454 C453 1.419 . S
C454 C455 1.391 . S
C454 C458 1.397 . S
C455 C450 1.391 . S
C455 C454 1.391 . S
C455 C456 1.399 . S
C456 C455 1.399 . S
C456 C457 1.396 . S
C456 C459 1.453 . S
C456 C460 1.684 . S
C457 C447 1.723 . S
C457 C456 1.396 . S
C457 C458 1.394 . S
C458 C428 1.723 . S
C458 C454 1.397 . S
C458 C457 1.394 . S
C459 H431 0.982 . S
C459 H435 0.979 . S
C459 H436 0.977 . S
C459 C456 1.453 . S
C460 H432 0.979 . S
C460 H433 0.980 . S
C460 H434 0.983 . S
C460 C456 1.684 . S
H461 C479 0.948 . S
H462 C420 0.948 . S
H463 C438 0.979 . S
H464 C438 0.980 . S
H465 C438 0.983 . S
H466 C437 0.982 . S
H467 C437 0.979 . S
H468 C437 0.977 . S
H469 C439 0.948 . S
H470 C441 0.947 . S
H471 C442 0.948 . S
H472 C448 0.982 . S
H473 C448 0.979 . S
H474 C448 0.977 . S
H475 C449 0.979 . S
H476 C449 0.980 . S
H477 C449 0.983 . S
H478 C422 0.947 . S
C479 C422 1.392 . S
C479 C423 1.419 . S
C479 H461 0.948 . S
Tb480 C489 2.764 1_655 S
Tb480 O490 2.327 1_655 S
Tb480 O493 2.307 1_655 S
Tb480 O497 2.321 1_545 S
Tb480 O498 2.346 . S
Tb480 O501 2.417 1_655 S
Tb480 O502 2.397 . S
Tb481 O491 2.322 1_565 S
Tb481 O492 2.349 . S
Tb481 O494 2.415 . S
Tb481 O495 2.399 . S
Tb481 O496 2.325 . S
Tb481 O499 2.303 1_455 S
Tb481 C510 2.764 . S
C482 O498 1.261 . S
C482 O499 1.257 1_545 S
C483 C486 1.358 1_455 S
C483 C487 1.332 . S
C483 C489 1.504 . S
C484 C485 1.373 1_455 S
C484 C488 1.308 . S
C485 C484 1.373 1_655 S
C485 C486 1.429 . S
C485 H512 0.932 . S
C486 C483 1.358 1_655 S
C486 C485 1.429 . S
C486 H513 0.930 . S
C487 C483 1.332 . S
C487 C488 1.394 . S
C487 H514 0.932 . S
C488 C484 1.308 . S
C488 C487 1.394 . S
C488 H515 0.929 . S
C489 Tb480 2.764 1_455 S
C489 C483 1.504 . S
C489 O501 1.239 . S
C489 O502 1.263 1_455 S
O490 Tb480 2.327 1_455 S
O490 C500 1.236 . S
O491 Tb481 2.322 1_545 S
O491 C500 1.257 . S
O492 Tb481 2.349 . S
O492 C503 1.261 . S
O493 Tb480 2.307 1_455 S
O493 C503 1.257 1_545 S
O494 Tb481 2.415 . S
O494 C510 1.239 . S
O495 Tb481 2.399 . S
O495 C510 1.263 . S
O496 Tb481 2.325 . S
O496 C511 1.236 1_455 S
O497 Tb480 2.321 1_565 S
O497 C511 1.257 . S
O498 Tb480 2.346 . S
O498 C482 1.261 . S
O499 Tb481 2.303 1_655 S
O499 C482 1.257 1_565 S
C500 O490 1.236 . S
C500 O491 1.257 . S
O501 Tb480 2.417 1_455 S
O501 C489 1.239 . S
O502 Tb480 2.397 . S
O502 C489 1.263 1_655 S
C503 O492 1.261 . S
C503 O493 1.257 1_565 S
C504 C507 1.358 . S
C504 C508 1.332 . S
C504 C510 1.504 . S
C505 C506 1.373 . S
C505 C509 1.308 . S
C506 C505 1.373 . S
C506 C507 1.429 . S
C506 H516 0.932 . S
C507 C504 1.358 . S
C507 C506 1.429 . S
C507 H517 0.930 . S
C508 C504 1.332 . S
C508 C509 1.394 . S
C508 H518 0.932 1_455 S
C509 C505 1.308 . S
C509 C508 1.394 . S
C509 H519 0.929 1_455 S
C510 Tb481 2.764 . S
C510 O494 1.239 . S
C510 O495 1.263 . S
C510 C504 1.504 . S
C511 O496 1.236 1_655 S
C511 O497 1.257 . S
H512 C485 0.932 . S
H513 C486 0.930 . S
H514 C487 0.932 . S
H515 C488 0.929 . S
H516 C506 0.932 . S
H517 C507 0.930 . S
H518 C508 0.932 1_655 S
H519 C509 0.929 1_655 S
Tb520 C529 2.764 . S
Tb520 O530 2.325 . S
Tb520 O533 2.303 1_565 S
Tb520 O537 2.322 . S
Tb520 O538 2.349 . S
Tb520 O541 2.415 1_565 S
Tb520 O542 2.399 . S
Tb521 O531 2.322 . S
Tb521 O532 2.349 . S
Tb521 O534 2.415 1_545 S
Tb521 O535 2.399 . S
Tb521 O536 2.325 . S
Tb521 O539 2.303 1_545 S
Tb521 C550 2.764 . S
C522 O538 1.261 . S
C522 O539 1.257 . S
C523 C526 1.358 . S
C523 C527 1.332 . S
C523 C529 1.504 . S
C524 C525 1.373 . S
C524 C528 1.308 . S
C525 C524 1.373 . S
C525 C526 1.429 . S
C525 H552 0.932 . S
C526 C523 1.358 . S
C526 C525 1.429 . S
C526 H553 0.930 . S
C527 C523 1.332 . S
C527 C528 1.394 . S
C527 H554 0.932 1_565 S
C528 C524 1.308 . S
C528 C527 1.394 . S
C528 H555 0.929 1_565 S
C529 Tb520 2.764 . S
C529 C523 1.504 . S
C529 O541 1.239 1_565 S
C529 O542 1.263 . S
O530 Tb520 2.325 . S
O530 C540 1.236 1_565 S
O531 Tb521 2.322 . S
O531 C540 1.257 . S
O532 Tb521 2.349 . S
O532 C543 1.261 . S
O533 Tb520 2.303 1_545 S
O533 C543 1.257 . S
O534 Tb521 2.415 1_565 S
O534 C550 1.239 1_565 S
O535 Tb521 2.399 . S
O535 C550 1.263 . S
O536 Tb521 2.325 . S
O536 C551 1.236 1_545 S
O537 Tb520 2.322 . S
O537 C551 1.257 . S
O538 Tb520 2.349 . S
O538 C522 1.261 . S
O539 Tb521 2.303 1_565 S
O539 C522 1.257 . S
C540 O530 1.236 1_545 S
C540 O531 1.257 . S
O541 Tb520 2.415 1_545 S
O541 C529 1.239 1_545 S
O542 Tb520 2.399 . S
O542 C529 1.263 . S
C543 O532 1.261 . S
C543 O533 1.257 . S
C544 C547 1.358 . S
C544 C548 1.332 . S
C544 C550 1.504 . S
C545 C546 1.373 . S
C545 C549 1.308 . S
C546 C545 1.373 . S
C546 C547 1.429 . S
C546 H556 0.932 . S
C547 C544 1.358 . S
C547 C546 1.429 . S
C547 H557 0.930 . S
C548 C544 1.332 . S
C548 C549 1.394 . S
C548 H558 0.932 1_545 S
C549 C545 1.308 . S
C549 C548 1.394 . S
C549 H559 0.929 1_545 S
C550 Tb521 2.764 . S
C550 O534 1.239 1_545 S
C550 O535 1.263 . S
C550 C544 1.504 . S
C551 O536 1.236 1_565 S
C551 O537 1.257 . S
H552 C525 0.932 . S
H553 C526 0.930 . S
H554 C527 0.932 1_545 S
H555 C528 0.929 1_545 S
H556 C546 0.932 . S
H557 C547 0.930 . S
H558 C548 0.932 1_565 S
H559 C549 0.929 1_565 S
Tb560 C569 2.764 . S
Tb560 O570 2.325 . S
Tb560 O573 2.303 . S
Tb560 O577 2.322 . S
Tb560 O578 2.349 . S
Tb560 O581 2.415 . S
Tb560 O582 2.399 . S
Tb561 O571 2.322 . S
Tb561 O572 2.349 . S
Tb561 O574 2.415 . S
Tb561 O575 2.399 . S
Tb561 O576 2.325 . S
Tb561 O579 2.303 . S
Tb561 C590 2.764 . S
C562 O578 1.261 . S
C562 O579 1.257 . S
C563 C566 1.358 . S
C563 C567 1.332 . S
C563 C569 1.504 . S
C564 C565 1.373 . S
C564 C568 1.308 . S
C565 C564 1.373 . S
C565 C566 1.429 . S
C565 H592 0.932 . S
C566 C563 1.358 . S
C566 C565 1.429 . S
C566 H593 0.930 . S
C567 C563 1.332 . S
C567 C568 1.394 . S
C567 H594 0.932 . S
C568 C564 1.308 . S
C568 C567 1.394 . S
C568 H595 0.929 . S
C569 Tb560 2.764 . S
C569 C563 1.504 . S
C569 O581 1.239 . S
C569 O582 1.263 . S
O570 Tb560 2.325 . S
O570 C580 1.236 . S
O571 Tb561 2.322 . S
O571 C580 1.257 . S
O572 Tb561 2.349 . S
O572 C583 1.261 . S
O573 Tb560 2.303 . S
O573 C583 1.257 . S
O574 Tb561 2.415 . S
O574 C590 1.239 . S
O575 Tb561 2.399 . S
O575 C590 1.263 . S
O576 Tb561 2.325 . S
O576 C591 1.236 . S
O577 Tb560 2.322 . S
O577 C591 1.257 . S
O578 Tb560 2.349 . S
O578 C562 1.261 . S
O579 Tb561 2.303 . S
O579 C562 1.257 . S
C580 O570 1.236 . S
C580 O571 1.257 . S
O581 Tb560 2.415 . S
O581 C569 1.239 . S
O582 Tb560 2.399 . S
O582 C569 1.263 . S
C583 O572 1.261 . S
C583 O573 1.257 . S
C584 C587 1.358 . S
C584 C588 1.332 . S
C584 C590 1.504 . S
C585 C586 1.373 . S
C585 C589 1.308 . S
C586 C585 1.373 . S
C586 C587 1.429 . S
C586 H596 0.932 . S
C587 C584 1.358 . S
C587 C586 1.429 . S
C587 H597 0.930 . S
C588 C584 1.332 . S
C588 C589 1.394 . S
C588 H598 0.932 . S
C589 C585 1.308 . S
C589 C588 1.394 . S
C589 H599 0.929 . S
C590 Tb561 2.764 . S
C590 O574 1.239 . S
C590 O575 1.263 . S
C590 C584 1.504 . S
C591 O576 1.236 . S
C591 O577 1.257 . S
H592 C565 0.932 . S
H593 C566 0.930 . S
H594 C567 0.932 . S
H595 C568 0.929 . S
H596 C586 0.932 . S
H597 C587 0.930 . S
H598 C588 0.932 . S
H599 C589 0.929 . S
Tb600 C609 2.764 . S
Tb600 O610 2.325 . S
Tb600 O613 2.303 . S
Tb600 O617 2.322 1_455 S
Tb600 O618 2.349 . S
Tb600 O621 2.415 . S
Tb600 O622 2.399 . S
Tb601 O611 2.322 . S
Tb601 O612 2.349 . S
Tb601 O614 2.415 1_455 S
Tb601 O615 2.399 1_455 S
Tb601 O616 2.325 1_455 S
Tb601 O619 2.303 . S
Tb601 C630 2.764 1_455 S
C602 O618 1.261 . S
C602 O619 1.257 . S
C603 C606 1.358 . S
C603 C607 1.332 . S
C603 C609 1.504 . S
C604 C605 1.373 . S
C604 C608 1.308 . S
C605 C604 1.373 . S
C605 C606 1.429 . S
C605 H632 0.932 . S
C606 C603 1.358 . S
C606 C605 1.429 . S
C606 H633 0.930 . S
C607 C603 1.332 . S
C607 C608 1.394 . S
C607 H634 0.932 . S
C608 C604 1.308 . S
C608 C607 1.394 . S
C608 H635 0.929 . S
C609 Tb600 2.764 . S
C609 C603 1.504 . S
C609 O621 1.239 . S
C609 O622 1.263 . S
O610 Tb600 2.325 . S
O610 C620 1.236 . S
O611 Tb601 2.322 . S
O611 C620 1.257 . S
O612 Tb601 2.349 . S
O612 C623 1.261 . S
O613 Tb600 2.303 . S
O613 C623 1.257 . S
O614 Tb601 2.415 1_655 S
O614 C630 1.239 . S
O615 Tb601 2.399 1_655 S
O615 C630 1.263 . S
O616 Tb601 2.325 1_655 S
O616 C631 1.236 . S
O617 Tb600 2.322 1_655 S
O617 C631 1.257 . S
O618 Tb600 2.349 . S
O618 C602 1.261 . S
O619 Tb601 2.303 . S
O619 C602 1.257 . S
C620 O610 1.236 . S
C620 O611 1.257 . S
O621 Tb600 2.415 . S
O621 C609 1.239 . S
O622 Tb600 2.399 . S
O622 C609 1.263 . S
C623 O612 1.261 . S
C623 O613 1.257 . S
C624 C627 1.358 . S
C624 C628 1.332 . S
C624 C630 1.504 . S
C625 C626 1.373 . S
C625 C629 1.308 . S
C626 C625 1.373 . S
C626 C627 1.429 . S
C626 H636 0.932 . S
C627 C624 1.358 . S
C627 C626 1.429 . S
C627 H637 0.930 . S
C628 C624 1.332 . S
C628 C629 1.394 . S
C628 H638 0.932 . S
C629 C625 1.308 . S
C629 C628 1.394 . S
C629 H639 0.929 . S
C630 Tb601 2.764 1_655 S
C630 O614 1.239 . S
C630 O615 1.263 . S
C630 C624 1.504 . S
C631 O616 1.236 . S
C631 O617 1.257 . S
H632 C605 0.932 . S
H633 C606 0.930 . S
H634 C607 0.932 . S
H635 C608 0.929 . S
H636 C626 0.932 . S
H637 C627 0.930 . S
H638 C628 0.932 . S
H639 C629 0.929 . S
H640 C658 0.949 . S
H641 C660 0.951 . S
H642 C662 0.952 . S
H643 C663 0.952 . S
H644 C665 0.950 . S
H645 C668 0.950 . S
H646 C669 0.950 . S
H647 C671 0.950 . S
H648 C672 0.950 . S
H649 C673 0.949 . S
H650 C675 0.954 . S
H651 C677 0.950 . S
H652 C678 0.950 . S
H653 C680 0.950 . S
H654 C683 0.950 . S
H655 C684 0.950 . S
H656 C686 0.950 . S
H657 C687 0.950 . S
C658 H640 0.949 . S
C658 C659 1.366 . S
C658 C660 1.389 . S
C659 C658 1.366 . S
C659 C663 1.388 1_565 S
C660 H641 0.951 . S
C660 C658 1.389 . S
C660 C661 1.370 1_565 S
C661 C660 1.370 1_545 S
C661 C662 1.414 . S
C661 C664 1.498 . S
C662 H642 0.952 . S
C662 C661 1.414 . S
C662 C663 1.374 . S
C663 H643 0.952 . S
C663 C659 1.388 1_545 S
C663 C662 1.374 . S
C664 C661 1.498 . S
C664 C665 1.358 1_545 S
C664 C666 1.401 . S
C665 H644 0.950 . S
C665 C664 1.358 1_565 S
C665 C681 1.377 . S
C666 C664 1.401 . S
C666 C667 1.524 . S
C666 C680 1.377 . S
C667 C666 1.524 . S
C667 C668 1.397 . S
C667 C672 1.363 . S
C668 H645 0.950 . S
C668 C667 1.397 . S
C668 C669 1.334 . S
C669 H646 0.950 . S
C669 C668 1.334 . S
C669 C670 1.287 . S
C670 C669 1.287 . S
C670 C671 1.524 . S
C670 H689 0.913 . S
C671 H647 0.950 . S
C671 C670 1.524 . S
C671 C672 1.415 . S
C672 H648 0.950 . S
C672 C667 1.363 . S
C672 C671 1.415 . S
C673 H649 0.949 . S
C673 C674 1.366 . S
C673 C675 1.388 . S
C674 C673 1.366 . S
C674 C678 1.385 . S
C675 H650 0.954 . S
C675 C673 1.388 . S
C675 C676 1.366 . S
C676 C675 1.366 . S
C676 C677 1.414 . S
C676 C679 1.499 . S
C677 H651 0.950 . S
C677 C676 1.414 . S
C677 C678 1.374 . S
C678 H652 0.950 . S
C678 C674 1.385 . S
C678 C677 1.374 . S
C679 C676 1.499 . S
C679 C680 1.373 1_565 S
C679 C681 1.389 . S
C680 H653 0.950 . S
C680 C666 1.377 . S
C680 C679 1.373 1_545 S
C681 C665 1.377 . S
C681 C679 1.389 . S
C681 C682 1.524 . S
C682 C681 1.524 . S
C682 C683 1.397 . S
C682 C687 1.363 . S
C683 H654 0.950 . S
C683 C682 1.397 . S
C683 C684 1.334 . S
C684 H655 0.950 . S
C684 C683 1.334 . S
C684 C685 1.287 . S
C685 C684 1.287 . S
C685 C686 1.524 . S
C685 H688 0.999 . S
C686 H656 0.950 . S
C686 C685 1.524 . S
C686 C687 1.415 . S
C687 H657 0.950 . S
C687 C682 1.363 . S
C687 C686 1.415 . S
H688 C685 0.999 . S
H689 C670 0.913 . S
H690 C708 0.951 . S
H691 C710 0.951 . S
H692 C712 0.950 . S
H693 C713 0.950 . S
H694 C715 0.950 . S
H695 C718 0.950 . S
H696 C719 0.950 . S
H697 C721 0.950 . S
H698 C722 0.950 . S
H699 C723 0.951 . S
H700 C725 0.951 . S
H701 C727 0.950 . S
H702 C728 0.950 . S
H703 C730 0.950 . S
H704 C733 0.950 . S
H705 C734 0.950 . S
H706 C736 0.950 . S
H707 C737 0.950 . S
C708 H690 0.951 . S
C708 C709 1.366 . S
C708 C710 1.388 . S
C709 C708 1.366 . S
C709 C713 1.385 . S
C710 H691 0.951 . S
C710 C708 1.388 . S
C710 C711 1.366 . S
C711 C710 1.366 . S
C711 C712 1.414 . S
C711 C714 1.499 . S
C712 H692 0.950 . S
C712 C711 1.414 . S
C712 C713 1.374 . S
C713 H693 0.950 . S
C713 C709 1.385 . S
C713 C712 1.374 . S
C714 C711 1.499 . S
C714 C715 1.373 . S
C714 C716 1.389 . S
C715 H694 0.950 . S
C715 C714 1.373 . S
C715 C731 1.377 . S
C716 C714 1.389 . S
C716 C717 1.524 . S
C716 C730 1.377 . S
C717 C716 1.524 . S
C717 C718 1.397 . S
C717 C722 1.363 . S
C718 H695 0.950 . S
C718 C717 1.397 . S
C718 C719 1.334 . S
C719 H696 0.950 . S
C719 C718 1.334 . S
C719 C720 1.287 . S
C720 C719 1.287 . S
C720 C721 1.524 . S
C720 H739 0.913 . S
C721 H697 0.950 . S
C721 C720 1.524 . S
C721 C722 1.415 . S
C722 H698 0.950 . S
C722 C717 1.363 . S
C722 C721 1.415 . S
C723 H699 0.951 . S
C723 C724 1.366 . S
C723 C725 1.388 . S
C724 C723 1.366 . S
C724 C728 1.385 . S
C725 H700 0.951 . S
C725 C723 1.388 . S
C725 C726 1.366 . S
C726 C725 1.366 . S
C726 C727 1.414 . S
C726 C729 1.499 . S
C727 H701 0.950 . S
C727 C726 1.414 . S
C727 C728 1.374 . S
C728 H702 0.950 . S
C728 C724 1.385 . S
C728 C727 1.374 . S
C729 C726 1.499 . S
C729 C730 1.373 . S
C729 C731 1.389 . S
C730 H703 0.950 . S
C730 C716 1.377 . S
C730 C729 1.373 . S
C731 C715 1.377 . S
C731 C729 1.389 . S
C731 C732 1.524 . S
C732 C731 1.524 . S
C732 C733 1.397 . S
C732 C737 1.363 . S
C733 H704 0.950 . S
C733 C732 1.397 . S
C733 C734 1.334 . S
C734 H705 0.950 . S
C734 C733 1.334 . S
C734 C735 1.287 . S
C735 C734 1.287 . S
C735 C736 1.524 . S
C735 H738 0.999 . S
C736 H706 0.950 . S
C736 C735 1.524 . S
C736 C737 1.415 . S
C737 H707 0.950 . S
C737 C732 1.363 . S
C737 C736 1.415 . S
H738 C735 0.999 . S
H739 C720 0.913 . S
H740 C758 0.951 . S
H741 C760 0.951 . S
H742 C762 0.950 . S
H743 C763 0.950 . S
H744 C765 0.950 . S
H745 C768 0.950 . S
H746 C769 0.950 . S
H747 C771 0.950 . S
H748 C772 0.950 . S
H749 C773 0.951 . S
H750 C775 0.951 . S
H751 C777 0.950 . S
H752 C778 0.950 . S
H753 C780 0.950 . S
H754 C783 0.950 . S
H755 C784 0.950 . S
H756 C786 0.950 . S
H757 C787 0.950 . S
C758 H740 0.951 . S
C758 C759 1.366 . S
C758 C760 1.388 . S
C759 C758 1.366 . S
C759 C763 1.385 . S
C760 H741 0.951 . S
C760 C758 1.388 . S
C760 C761 1.366 . S
C761 C760 1.366 . S
C761 C762 1.414 . S
C761 C764 1.499 . S
C762 H742 0.950 . S
C762 C761 1.414 . S
C762 C763 1.374 . S
C763 H743 0.950 . S
C763 C759 1.385 . S
C763 C762 1.374 . S
C764 C761 1.499 . S
C764 C765 1.373 . S
C764 C766 1.389 . S
C765 H744 0.950 . S
C765 C764 1.373 . S
C765 C781 1.377 . S
C766 C764 1.389 . S
C766 C767 1.524 . S
C766 C780 1.377 . S
C767 C766 1.524 . S
C767 C768 1.397 . S
C767 C772 1.363 . S
C768 H745 0.950 . S
C768 C767 1.397 . S
C768 C769 1.334 . S
C769 H746 0.950 . S
C769 C768 1.334 . S
C769 C770 1.287 . S
C770 C769 1.287 . S
C770 C771 1.524 . S
C770 H789 0.913 . S
C771 H747 0.950 . S
C771 C770 1.524 . S
C771 C772 1.415 . S
C772 H748 0.950 . S
C772 C767 1.363 . S
C772 C771 1.415 . S
C773 H749 0.951 . S
C773 C774 1.366 . S
C773 C775 1.388 . S
C774 C773 1.366 . S
C774 C778 1.385 . S
C775 H750 0.951 . S
C775 C773 1.388 . S
C775 C776 1.366 . S
C776 C775 1.366 . S
C776 C777 1.414 . S
C776 C779 1.499 . S
C777 H751 0.950 . S
C777 C776 1.414 . S
C777 C778 1.374 . S
C778 H752 0.950 . S
C778 C774 1.385 . S
C778 C777 1.374 . S
C779 C776 1.499 . S
C779 C780 1.373 . S
C779 C781 1.389 . S
C780 H753 0.950 . S
C780 C766 1.377 . S
C780 C779 1.373 . S
C781 C765 1.377 . S
C781 C779 1.389 . S
C781 C782 1.524 . S
C782 C781 1.524 . S
C782 C783 1.397 . S
C782 C787 1.363 . S
C783 H754 0.950 . S
C783 C782 1.397 . S
C783 C784 1.334 . S
C784 H755 0.950 . S
C784 C783 1.334 . S
C784 C785 1.287 . S
C785 C784 1.287 . S
C785 C786 1.524 . S
C785 H788 0.999 . S
C786 H756 0.950 . S
C786 C785 1.524 . S
C786 C787 1.415 . S
C787 H757 0.950 . S
C787 C782 1.363 . S
C787 C786 1.415 . S
H788 C785 0.999 . S
H789 C770 0.913 . S
H790 C808 0.951 . S
H791 C810 0.951 . S
H792 C812 0.950 . S
H793 C813 0.950 . S
H794 C815 0.950 . S
H795 C818 0.950 . S
H796 C819 0.950 . S
H797 C821 0.950 . S
H798 C822 0.950 . S
H799 C823 0.951 . S
H800 C825 0.951 . S
H801 C827 0.950 . S
H802 C828 0.950 . S
H803 C830 0.950 . S
H804 C833 0.950 . S
H805 C834 0.950 . S
H806 C836 0.950 . S
H807 C837 0.950 . S
C808 H790 0.951 . S
C808 C809 1.366 . S
C808 C810 1.388 . S
C809 C808 1.366 . S
C809 C813 1.385 . S
C810 H791 0.951 . S
C810 C808 1.388 . S
C810 C811 1.366 . S
C811 C810 1.366 . S
C811 C812 1.414 . S
C811 C814 1.499 . S
C812 H792 0.950 . S
C812 C811 1.414 . S
C812 C813 1.374 . S
C813 H793 0.950 . S
C813 C809 1.385 . S
C813 C812 1.374 . S
C814 C811 1.499 . S
C814 C815 1.373 . S
C814 C816 1.389 . S
C815 H794 0.950 . S
C815 C814 1.373 . S
C815 C831 1.377 . S
C816 C814 1.389 . S
C816 C817 1.524 . S
C816 C830 1.377 . S
C817 C816 1.524 . S
C817 C818 1.397 . S
C817 C822 1.363 . S
C818 H795 0.950 . S
C818 C817 1.397 . S
C818 C819 1.334 . S
C819 H796 0.950 . S
C819 C818 1.334 . S
C819 C820 1.287 . S
C820 C819 1.287 . S
C820 C821 1.524 . S
C820 H839 0.913 . S
C821 H797 0.950 . S
C821 C820 1.524 . S
C821 C822 1.415 . S
C822 H798 0.950 . S
C822 C817 1.363 . S
C822 C821 1.415 . S
C823 H799 0.951 . S
C823 C824 1.366 . S
C823 C825 1.388 . S
C824 C823 1.366 . S
C824 C828 1.385 . S
C825 H800 0.951 . S
C825 C823 1.388 . S
C825 C826 1.366 . S
C826 C825 1.366 . S
C826 C827 1.414 . S
C826 C829 1.499 . S
C827 H801 0.950 . S
C827 C826 1.414 . S
C827 C828 1.374 . S
C828 H802 0.950 . S
C828 C824 1.385 . S
C828 C827 1.374 . S
C829 C826 1.499 . S
C829 C830 1.373 . S
C829 C831 1.389 . S
C830 H803 0.950 . S
C830 C816 1.377 . S
C830 C829 1.373 . S
C831 C815 1.377 . S
C831 C829 1.389 . S
C831 C832 1.524 . S
C832 C831 1.524 . S
C832 C833 1.397 . S
C832 C837 1.363 . S
C833 H804 0.950 . S
C833 C832 1.397 . S
C833 C834 1.334 . S
C834 H805 0.950 . S
C834 C833 1.334 . S
C834 C835 1.287 . S
C835 C834 1.287 . S
C835 C836 1.524 . S
C835 H838 0.999 . S
C836 H806 0.950 . S
C836 C835 1.524 . S
C836 C837 1.415 . S
C837 H807 0.950 . S
C837 C832 1.363 . S
C837 C836 1.415 . S
H838 C835 0.999 . S
H839 C820 0.913 . S
H840 C858 0.951 . S
H841 C860 0.951 . S
H842 C862 0.950 . S
H843 C863 0.950 . S
H844 C865 0.950 . S
H845 C868 0.950 . S
H846 C869 0.950 . S
H847 C871 0.950 . S
H848 C872 0.950 . S
H849 C873 0.951 . S
H850 C875 0.951 . S
H851 C877 0.950 . S
H852 C878 0.950 . S
H853 C880 0.950 1_556 S
H854 C883 0.950 . S
H855 C884 0.950 . S
H856 C886 0.950 . S
H857 C887 0.950 1_554 S
C858 H840 0.951 . S
C858 C859 1.355 1_565 S
C858 C860 1.388 . S
C859 C858 1.355 1_545 S
C859 C863 1.397 . S
C860 H841 0.951 . S
C860 C858 1.388 . S
C860 C861 1.354 1_565 S
C861 C860 1.354 1_545 S
C861 C862 1.424 . S
C861 C864 1.493 . S
C862 H842 0.950 . S
C862 C861 1.424 . S
C862 C863 1.374 . S
C863 H843 0.950 . S
C863 C859 1.397 . S
C863 C862 1.374 . S
C864 C861 1.493 . S
C864 C865 1.430 . S
C864 C866 1.342 1_545 S
C865 H844 0.950 . S
C865 C864 1.430 . S
C865 C881 1.394 . S
C866 C864 1.342 1_565 S
C866 C867 1.524 . S
C866 C880 1.377 . S
C867 C866 1.524 . S
C867 C868 1.397 . S
C867 C872 1.363 . S
C868 H845 0.950 . S
C868 C867 1.397 . S
C868 C869 1.334 . S
C869 H846 0.950 . S
C869 C868 1.334 . S
C869 C870 1.287 . S
C870 C869 1.287 . S
C870 C871 1.524 . S
C870 H889 0.913 . S
C871 H847 0.950 . S
C871 C870 1.524 . S
C871 C872 1.415 . S
C872 H848 0.950 . S
C872 C867 1.363 . S
C872 C871 1.415 . S
C873 H849 0.951 . S
C873 C874 1.366 . S
C873 C875 1.388 . S
C874 C873 1.366 . S
C874 C878 1.385 1_545 S
C875 H850 0.951 . S
C875 C873 1.388 . S
C875 C876 1.366 . S
C876 C875 1.366 . S
C876 C877 1.414 1_545 S
C876 C879 1.499 . S
C877 H851 0.950 . S
C877 C876 1.414 1_565 S
C877 C878 1.374 . S
C878 H852 0.950 . S
C878 C874 1.385 1_565 S
C878 C877 1.374 . S
C879 C876 1.499 . S
C879 C880 1.373 1_546 S
C879 C881 1.383 1_556 S
C880 H853 0.950 1_554 S
C880 C866 1.377 . S
C880 C879 1.373 1_564 S
C881 C865 1.394 . S
C881 C879 1.383 1_554 S
C881 C882 1.513 1_554 S
C882 C881 1.513 1_556 S
C882 C883 1.397 . S
C882 C887 1.363 . S
C883 H854 0.950 . S
C883 C882 1.397 . S
C883 C884 1.334 . S
C884 H855 0.950 . S
C884 C883 1.334 . S
C884 C885 1.287 . S
C885 C884 1.287 . S
C885 C886 1.524 . S
C885 H888 0.999 . S
C886 H856 0.950 . S
C886 C885 1.524 . S
C886 C887 1.415 . S
C887 H857 0.950 1_556 S
C887 C882 1.363 . S
C887 C886 1.415 . S
H888 C885 0.999 . S
H889 C870 0.913 . S
H890 C908 0.951 1_554 S
H891 C910 0.951 . S
H892 C912 0.950 . S
H893 C913 0.950 . S
H894 C915 0.950 . S
H895 C918 0.950 . S
H896 C919 0.950 . S
H897 C921 0.950 . S
H898 C922 0.950 . S
H899 C923 0.951 . S
H900 C925 0.951 . S
H901 C927 0.950 . S
H902 C928 0.950 . S
H903 C930 0.950 . S
H904 C933 0.950 . S
H905 C934 0.950 . S
H906 C936 0.950 . S
H907 C937 0.950 . S
C908 H890 0.951 1_556 S
C908 C909 1.366 . S
C908 C910 1.388 . S
C909 C908 1.366 . S
C909 C913 1.385 . S
C910 H891 0.951 . S
C910 C908 1.388 . S
C910 C911 1.366 . S
C911 C910 1.366 . S
C911 C912 1.414 . S
C911 C914 1.499 . S
C912 H892 0.950 . S
C912 C911 1.414 . S
C912 C913 1.374 . S
C913 H893 0.950 . S
C913 C909 1.385 . S
C913 C912 1.374 . S
C914 C911 1.499 . S
C914 C915 1.373 . S
C914 C916 1.389 . S
C915 H894 0.950 . S
C915 C914 1.373 . S
C915 C931 1.377 . S
C916 C914 1.389 . S
C916 C917 1.524 . S
C916 C930 1.377 . S
C917 C916 1.524 . S
C917 C918 1.397 . S
C917 C922 1.363 . S
C918 H895 0.950 . S
C918 C917 1.397 . S
C918 C919 1.334 . S
C919 H896 0.950 . S
C919 C918 1.334 . S
C919 C920 1.287 . S
C920 C919 1.287 . S
C920 C921 1.524 . S
C920 H939 0.913 . S
C921 H897 0.950 . S
C921 C920 1.524 . S
C921 C922 1.415 . S
C922 H898 0.950 . S
C922 C917 1.363 . S
C922 C921 1.415 . S
C923 H899 0.951 . S
C923 C924 1.366 . S
C923 C925 1.388 . S
C924 C923 1.366 . S
C924 C928 1.385 . S
C925 H900 0.951 . S
C925 C923 1.388 . S
C925 C926 1.366 . S
C926 C925 1.366 . S
C926 C927 1.414 . S
C926 C929 1.499 . S
C927 H901 0.950 . S
C927 C926 1.414 . S
C927 C928 1.374 . S
C928 H902 0.950 . S
C928 C924 1.385 . S
C928 C927 1.374 . S
C929 C926 1.499 . S
C929 C930 1.373 . S
C929 C931 1.389 . S
C930 H903 0.950 . S
C930 C916 1.377 . S
C930 C929 1.373 . S
C931 C915 1.377 . S
C931 C929 1.389 . S
C931 C932 1.524 . S
C932 C931 1.524 . S
C932 C933 1.397 . S
C932 C937 1.363 . S
C933 H904 0.950 . S
C933 C932 1.397 . S
C933 C934 1.334 . S
C934 H905 0.950 . S
C934 C933 1.334 . S
C934 C935 1.287 . S
C935 C934 1.287 . S
C935 C936 1.524 . S
C935 H938 0.999 . S
C936 H906 0.950 . S
C936 C935 1.524 . S
C936 C937 1.415 . S
C937 H907 0.950 . S
C937 C932 1.363 . S
C937 C936 1.415 . S
H938 C935 0.999 . S
H939 C920 0.913 . S
H940 C958 0.951 . S
H941 C960 0.951 . S
H942 C962 0.950 . S
H943 C963 0.950 . S
H944 C965 0.950 . S
H945 C968 0.950 . S
H946 C969 0.950 . S
H947 C971 0.950 . S
H948 C972 0.950 . S
H949 C973 0.951 . S
H950 C975 0.951 . S
H951 C977 0.950 . S
H952 C978 0.950 . S
H953 C980 0.950 . S
H954 C983 0.950 . S
H955 C984 0.950 . S
H956 C986 0.950 . S
H957 C987 0.950 1_554 S
C958 H940 0.951 . S
C958 C959 1.366 . S
C958 C960 1.388 . S
C959 C958 1.366 . S
C959 C963 1.385 . S
C960 H941 0.951 . S
C960 C958 1.388 . S
C960 C961 1.366 . S
C961 C960 1.366 . S
C961 C962 1.414 . S
C961 C964 1.499 . S
C962 H942 0.950 . S
C962 C961 1.414 . S
C962 C963 1.374 . S
C963 H943 0.950 . S
C963 C959 1.385 . S
C963 C962 1.374 . S
C964 C961 1.499 . S
C964 C965 1.373 . S
C964 C966 1.389 . S
C965 H944 0.950 . S
C965 C964 1.373 . S
C965 C981 1.377 1_554 S
C966 C964 1.389 . S
C966 C967 1.524 . S
C966 C980 1.377 . S
C967 C966 1.524 . S
C967 C968 1.397 . S
C967 C972 1.363 . S
C968 H945 0.950 . S
C968 C967 1.397 . S
C968 C969 1.334 . S
C969 H946 0.950 . S
C969 C968 1.334 . S
C969 C970 1.287 . S
C970 C969 1.287 . S
C970 C971 1.524 . S
C970 H989 0.913 . S
C971 H947 0.950 . S
C971 C970 1.524 . S
C971 C972 1.415 . S
C972 H948 0.950 . S
C972 C967 1.363 . S
C972 C971 1.415 . S
C973 H949 0.951 . S
C973 C974 1.366 . S
C973 C975 1.388 . S
C974 C973 1.366 . S
C974 C978 1.385 . S
C975 H950 0.951 . S
C975 C973 1.388 . S
C975 C976 1.366 . S
C976 C975 1.366 . S
C976 C977 1.414 . S
C976 C979 1.499 . S
C977 H951 0.950 . S
C977 C976 1.414 . S
C977 C978 1.374 . S
C978 H952 0.950 . S
C978 C974 1.385 . S
C978 C977 1.374 . S
C979 C976 1.499 . S
C979 C980 1.373 1_556 S
C979 C981 1.389 . S
C980 H953 0.950 . S
C980 C966 1.377 . S
C980 C979 1.373 1_554 S
C981 C965 1.377 1_556 S
C981 C979 1.389 . S
C981 C982 1.524 . S
C982 C981 1.524 . S
C982 C983 1.397 . S
C982 C987 1.363 . S
C983 H954 0.950 . S
C983 C982 1.397 . S
C983 C984 1.334 . S
C984 H955 0.950 . S
C984 C983 1.334 . S
C984 C985 1.287 . S
C985 C984 1.287 . S
C985 C986 1.524 . S
C985 H988 0.999 . S
C986 H956 0.950 . S
C986 C985 1.524 . S
C986 C987 1.415 . S
C987 H957 0.950 1_556 S
C987 C982 1.363 . S
C987 C986 1.415 . S
H988 C985 0.999 . S
H989 C970 0.913 . S
H990 C1008 0.951 . S
H991 C1010 0.951 . S
H992 C1012 0.950 . S
H993 C1013 0.950 . S
H994 C1015 0.950 . S
H995 C1018 0.956 . S
H996 C1019 0.950 1_554 S
H997 C1021 0.950 . S
H998 C1022 0.950 . S
H999 C1023 0.951 . S
H1000 C1025 0.951 . S
H1001 C1027 0.950 . S
H1002 C1028 0.950 1_455 S
H1003 C1030 0.950 . S
H1004 C1033 0.950 . S
H1005 C1034 0.950 1_556 S
H1006 C1036 0.950 . S
H1007 C1037 0.950 1_655 S
C1008 H990 0.951 . S
C1008 C1009 1.366 . S
C1008 C1010 1.388 . S
C1009 C1008 1.366 . S
C1009 C1013 1.385 . S
C1010 H991 0.951 . S
C1010 C1008 1.388 . S
C1010 C1011 1.366 . S
C1011 C1010 1.366 . S
C1011 C1012 1.414 . S
C1011 C1014 1.499 . S
C1012 H992 0.950 . S
C1012 C1011 1.414 . S
C1012 C1013 1.374 . S
C1013 H993 0.950 . S
C1013 C1009 1.385 . S
C1013 C1012 1.374 . S
C1014 C1011 1.499 . S
C1014 C1015 1.373 . S
C1014 C1016 1.389 1_554 S
C1015 H994 0.950 . S
C1015 C1014 1.373 . S
C1015 C1031 1.377 . S
C1016 C1014 1.389 1_556 S
C1016 C1017 1.524 . S
C1016 C1030 1.377 . S
C1017 C1016 1.524 . S
C1017 C1018 1.392 1_556 S
C1017 C1022 1.363 . S
C1018 H995 0.956 . S
C1018 C1017 1.392 1_554 S
C1018 C1019 1.332 1_554 S
C1019 H996 0.950 1_556 S
C1019 C1018 1.332 1_556 S
C1019 C1020 1.287 . S
C1020 C1019 1.287 . S
C1020 C1021 1.524 . S
C1020 H1039 0.913 . S
C1021 H997 0.950 . S
C1021 C1020 1.524 . S
C1021 C1022 1.415 . S
C1022 H998 0.950 . S
C1022 C1017 1.363 . S
C1022 C1021 1.415 . S
C1023 H999 0.951 . S
C1023 C1024 1.366 . S
C1023 C1025 1.388 . S
C1024 C1023 1.366 . S
C1024 C1028 1.385 . S
C1025 H1000 0.951 . S
C1025 C1023 1.388 . S
C1025 C1026 1.366 . S
C1026 C1025 1.366 . S
C1026 C1027 1.414 . S
C1026 C1029 1.499 . S
C1027 H1001 0.950 . S
C1027 C1026 1.414 . S
C1027 C1028 1.374 . S
C1028 H1002 0.950 1_655 S
C1028 C1024 1.385 . S
C1028 C1027 1.374 . S
C1029 C1026 1.499 . S
C1029 C1030 1.373 . S
C1029 C1031 1.389 1_556 S
C1030 H1003 0.950 . S
C1030 C1016 1.377 . S
C1030 C1029 1.373 . S
C1031 C1015 1.377 . S
C1031 C1029 1.389 1_554 S
C1031 C1032 1.524 1_655 S
C1032 C1031 1.524 1_455 S
C1032 C1033 1.397 1_554 S
C1032 C1037 1.363 . S
C1033 H1004 0.950 . S
C1033 C1032 1.397 1_556 S
C1033 C1034 1.334 1_556 S
C1034 H1005 0.950 1_554 S
C1034 C1033 1.334 1_554 S
C1034 C1035 1.287 . S
C1035 C1034 1.287 . S
C1035 C1036 1.524 . S
C1035 H1038 0.999 . S
C1036 H1006 0.950 . S
C1036 C1035 1.524 . S
C1036 C1037 1.415 . S
C1037 H1007 0.950 1_455 S
C1037 C1032 1.363 . S
C1037 C1036 1.415 . S
H1038 C1035 0.999 . S
H1039 C1020 0.913 . S
H1040 C1058 0.951 . S
H1041 C1060 0.951 . S
H1042 C1062 0.950 . S
H1043 C1063 0.950 . S
H1044 C1065 0.950 . S
H1045 C1068 0.950 . S
H1046 C1069 0.950 . S
H1047 C1071 0.950 . S
H1048 C1072 0.950 . S
H1049 C1073 0.951 . S
H1050 C1075 0.951 . S
H1051 C1077 0.942 1_655 S
H1052 C1078 0.950 . S
H1053 C1080 0.950 . S
H1054 C1083 0.990 . S
H1055 C1084 0.950 1_655 S
H1056 C1086 0.950 . S
H1057 C1087 0.950 . S
C1058 H1040 0.951 . S
C1058 C1059 1.366 . S
C1058 C1060 1.388 . S
C1059 C1058 1.366 . S
C1059 C1063 1.385 . S
C1060 H1041 0.951 . S
C1060 C1058 1.388 . S
C1060 C1061 1.366 . S
C1061 C1060 1.366 . S
C1061 C1062 1.414 . S
C1061 C1064 1.499 . S
C1062 H1042 0.950 . S
C1062 C1061 1.414 . S
C1062 C1063 1.374 . S
C1063 H1043 0.950 . S
C1063 C1059 1.385 . S
C1063 C1062 1.374 . S
C1064 C1061 1.499 . S
C1064 C1065 1.373 . S
C1064 C1066 1.389 . S
C1065 H1044 0.950 . S
C1065 C1064 1.373 . S
C1065 C1081 1.377 . S
C1066 C1064 1.389 . S
C1066 C1067 1.524 . S
C1066 C1080 1.377 . S
C1067 C1066 1.524 . S
C1067 C1068 1.397 . S
C1067 C1072 1.363 . S
C1068 H1045 0.950 . S
C1068 C1067 1.397 . S
C1068 C1069 1.334 . S
C1069 H1046 0.950 . S
C1069 C1068 1.334 . S
C1069 C1070 1.287 . S
C1070 C1069 1.287 . S
C1070 C1071 1.524 . S
C1070 H1089 0.913 . S
C1071 H1047 0.950 . S
C1071 C1070 1.524 . S
C1071 C1072 1.415 . S
C1072 H1048 0.950 . S
C1072 C1067 1.363 . S
C1072 C1071 1.415 . S
C1073 H1049 0.951 . S
C1073 C1074 1.366 . S
C1073 C1075 1.388 . S
C1074 C1073 1.366 . S
C1074 C1078 1.385 1_455 S
C1075 H1050 0.951 . S
C1075 C1073 1.388 . S
C1075 C1076 1.366 . S
C1076 C1075 1.366 . S
C1076 C1077 1.414 . S
C1076 C1079 1.499 . S
C1077 H1051 0.942 1_455 S
C1077 C1076 1.414 . S
C1077 C1078 1.374 1_455 S
C1078 H1052 0.950 . S
C1078 C1074 1.385 1_655 S
C1078 C1077 1.374 1_655 S
C1079 C1076 1.499 . S
C1079 C1080 1.373 . S
C1079 C1081 1.389 . S
C1080 H1053 0.950 . S
C1080 C1066 1.377 . S
C1080 C1079 1.373 . S
C1081 C1065 1.377 . S
C1081 C1079 1.389 . S
C1081 C1082 1.524 . S
C1082 C1081 1.524 . S
C1082 C1083 1.397 . S
C1082 C1087 1.363 . S
C1083 H1054 0.990 . S
C1083 C1082 1.397 . S
C1083 C1084 1.334 . S
C1084 H1055 0.950 1_455 S
C1084 C1083 1.334 . S
C1084 C1085 1.287 . S
C1085 C1084 1.287 . S
C1085 C1086 1.524 . S
C1085 H1088 0.999 . S
C1086 H1056 0.950 . S
C1086 C1085 1.524 . S
C1086 C1087 1.415 . S
C1087 H1057 0.950 . S
C1087 C1082 1.363 . S
C1087 C1086 1.415 . S
H1088 C1085 0.999 . S
H1089 C1070 0.913 . S
H1090 C1108 0.956 . S
H1091 C1110 0.951 . S
H1092 C1112 0.950 . S
H1093 C1113 0.951 . S
H1094 C1115 0.950 . S
H1095 C1118 0.950 . S
H1096 C1119 0.950 . S
H1097 C1121 0.950 . S
H1098 C1122 0.950 . S
H1099 C1123 0.951 . S
H1100 C1125 0.951 . S
H1101 C1127 0.950 . S
H1102 C1128 0.950 . S
H1103 C1130 0.950 . S
H1104 C1133 0.950 . S
H1105 C1134 0.950 . S
H1106 C1136 0.950 . S
H1107 C1137 0.950 . S
C1108 H1090 0.956 . S
C1108 C1109 1.367 . S
C1108 C1110 1.382 1_545 S
C1109 C1108 1.367 . S
C1109 C1113 1.391 . S
C1110 H1091 0.951 . S
C1110 C1108 1.382 1_565 S
C1110 C1111 1.366 . S
C1111 C1110 1.366 . S
C1111 C1112 1.414 . S
C1111 C1114 1.499 . S
C1112 H1092 0.950 . S
C1112 C1111 1.414 . S
C1112 C1113 1.367 1_565 S
C1113 H1093 0.951 . S
C1113 C1109 1.391 . S
C1113 C1112 1.367 1_545 S
C1114 C1111 1.499 . S
C1114 C1115 1.373 1_565 S
C1114 C1116 1.389 . S
C1115 H1094 0.950 . S
C1115 C1114 1.373 1_545 S
C1115 C1131 1.377 . S
C1116 C1114 1.389 . S
C1116 C1117 1.524 . S
C1116 C1130 1.377 . S
C1117 C1116 1.524 . S
C1117 C1118 1.397 . S
C1117 C1122 1.363 . S
C1118 H1095 0.950 . S
C1118 C1117 1.397 . S
C1118 C1119 1.334 . S
C1119 H1096 0.950 . S
C1119 C1118 1.334 . S
C1119 C1120 1.287 . S
C1120 C1119 1.287 . S
C1120 C1121 1.524 . S
C1120 H1139 0.913 . S
C1121 H1097 0.950 . S
C1121 C1120 1.524 . S
C1121 C1122 1.415 . S
C1122 H1098 0.950 . S
C1122 C1117 1.363 . S
C1122 C1121 1.415 . S
C1123 H1099 0.951 . S
C1123 C1124 1.366 . S
C1123 C1125 1.388 . S
C1124 C1123 1.366 . S
C1124 C1128 1.385 . S
C1125 H1100 0.951 . S
C1125 C1123 1.388 . S
C1125 C1126 1.366 . S
C1126 C1125 1.366 . S
C1126 C1127 1.414 . S
C1126 C1129 1.499 . S
C1127 H1101 0.950 . S
C1127 C1126 1.414 . S
C1127 C1128 1.374 . S
C1128 H1102 0.950 . S
C1128 C1124 1.385 . S
C1128 C1127 1.374 . S
C1129 C1126 1.499 . S
C1129 C1130 1.373 . S
C1129 C1131 1.389 1_565 S
C1130 H1103 0.950 . S
C1130 C1116 1.377 . S
C1130 C1129 1.373 . S
C1131 C1115 1.377 . S
C1131 C1129 1.389 1_545 S
C1131 C1132 1.524 . S
C1132 C1131 1.524 . S
C1132 C1133 1.397 . S
C1132 C1137 1.363 . S
C1133 H1104 0.950 . S
C1133 C1132 1.397 . S
C1133 C1134 1.334 . S
C1134 H1105 0.950 . S
C1134 C1133 1.334 . S
C1134 C1135 1.287 . S
C1135 C1134 1.287 . S
C1135 C1136 1.524 . S
C1135 H1138 0.999 . S
C1136 H1106 0.950 . S
C1136 C1135 1.524 . S
C1136 C1137 1.415 . S
C1137 H1107 0.950 . S
C1137 C1132 1.363 . S
C1137 C1136 1.415 . S
H1138 C1135 0.999 . S
H1139 C1120 0.913 . S
H1140 C1158 0.951 . S
H1141 C1160 0.951 . S
H1142 C1162 0.950 . S
H1143 C1163 0.950 . S
H1144 C1165 0.950 . S
H1145 C1168 0.950 . S
H1146 C1169 0.950 . S
H1147 C1171 0.950 . S
H1148 C1172 0.950 . S
H1149 C1173 0.951 . S
H1150 C1175 0.951 . S
H1151 C1177 0.950 . S
H1152 C1178 0.950 . S
H1153 C1180 0.950 . S
H1154 C1183 0.950 . S
H1155 C1184 0.950 . S
H1156 C1186 0.950 . S
H1157 C1187 0.950 . S
C1158 H1140 0.951 . S
C1158 C1159 1.366 . S
C1158 C1160 1.388 . S
C1159 C1158 1.366 . S
C1159 C1163 1.385 . S
C1160 H1141 0.951 . S
C1160 C1158 1.388 . S
C1160 C1161 1.366 . S
C1161 C1160 1.366 . S
C1161 C1162 1.414 . S
C1161 C1164 1.499 . S
C1162 H1142 0.950 . S
C1162 C1161 1.414 . S
C1162 C1163 1.374 . S
C1163 H1143 0.950 . S
C1163 C1159 1.385 . S
C1163 C1162 1.374 . S
C1164 C1161 1.499 . S
C1164 C1165 1.373 . S
C1164 C1166 1.389 . S
C1165 H1144 0.950 . S
C1165 C1164 1.373 . S
C1165 C1181 1.377 . S
C1166 C1164 1.389 . S
C1166 C1167 1.524 . S
C1166 C1180 1.377 . S
C1167 C1166 1.524 . S
C1167 C1168 1.397 . S
C1167 C1172 1.363 . S
C1168 H1145 0.950 . S
C1168 C1167 1.397 . S
C1168 C1169 1.334 . S
C1169 H1146 0.950 . S
C1169 C1168 1.334 . S
C1169 C1170 1.287 . S
C1170 C1169 1.287 . S
C1170 C1171 1.524 . S
C1170 H1189 0.913 . S
C1171 H1147 0.950 . S
C1171 C1170 1.524 . S
C1171 C1172 1.415 . S
C1172 H1148 0.950 . S
C1172 C1167 1.363 . S
C1172 C1171 1.415 . S
C1173 H1149 0.951 . S
C1173 C1174 1.366 . S
C1173 C1175 1.388 . S
C1174 C1173 1.366 . S
C1174 C1178 1.385 . S
C1175 H1150 0.951 . S
C1175 C1173 1.388 . S
C1175 C1176 1.366 . S
C1176 C1175 1.366 . S
C1176 C1177 1.414 . S
C1176 C1179 1.499 . S
C1177 H1151 0.950 . S
C1177 C1176 1.414 . S
C1177 C1178 1.374 . S
C1178 H1152 0.950 . S
C1178 C1174 1.385 . S
C1178 C1177 1.374 . S
C1179 C1176 1.499 . S
C1179 C1180 1.373 . S
C1179 C1181 1.389 . S
C1180 H1153 0.950 . S
C1180 C1166 1.377 . S
C1180 C1179 1.373 . S
C1181 C1165 1.377 . S
C1181 C1179 1.389 . S
C1181 C1182 1.524 . S
C1182 C1181 1.524 . S
C1182 C1183 1.397 . S
C1182 C1187 1.363 . S
C1183 H1154 0.950 . S
C1183 C1182 1.397 . S
C1183 C1184 1.334 . S
C1184 H1155 0.950 . S
C1184 C1183 1.334 . S
C1184 C1185 1.287 . S
C1185 C1184 1.287 . S
C1185 C1186 1.524 . S
C1185 H1188 0.999 . S
C1186 H1156 0.950 . S
C1186 C1185 1.524 . S
C1186 C1187 1.415 . S
C1187 H1157 0.950 . S
C1187 C1182 1.363 . S
C1187 C1186 1.415 . S
H1188 C1185 0.999 . S
H1189 C1170 0.913 . S
H1190 C1208 0.951 . S
H1191 C1210 0.951 . S
H1192 C1212 0.950 . S
H1193 C1213 0.950 . S
H1194 C1215 0.950 . S
H1195 C1218 0.950 . S
H1196 C1219 0.950 . S
H1197 C1221 0.950 . S
H1198 C1222 0.950 . S
H1199 C1223 0.951 . S
H1200 C1225 0.951 . S
H1201 C1227 0.950 . S
H1202 C1228 0.950 . S
H1203 C1230 0.950 . S
H1204 C1233 0.950 . S
H1205 C1234 0.950 . S
H1206 C1236 0.950 . S
H1207 C1237 0.950 . S
C1208 H1190 0.951 . S
C1208 C1209 1.366 . S
C1208 C1210 1.388 . S
C1209 C1208 1.366 . S
C1209 C1213 1.385 . S
C1210 H1191 0.951 . S
C1210 C1208 1.388 . S
C1210 C1211 1.366 . S
C1211 C1210 1.366 . S
C1211 C1212 1.414 . S
C1211 C1214 1.499 . S
C1212 H1192 0.950 . S
C1212 C1211 1.414 . S
C1212 C1213 1.374 . S
C1213 H1193 0.950 . S
C1213 C1209 1.385 . S
C1213 C1212 1.374 . S
C1214 C1211 1.499 . S
C1214 C1215 1.373 . S
C1214 C1216 1.389 . S
C1215 H1194 0.950 . S
C1215 C1214 1.373 . S
C1215 C1231 1.377 . S
C1216 C1214 1.389 . S
C1216 C1217 1.524 . S
C1216 C1230 1.377 . S
C1217 C1216 1.524 . S
C1217 C1218 1.397 . S
C1217 C1222 1.363 . S
C1218 H1195 0.950 . S
C1218 C1217 1.397 . S
C1218 C1219 1.334 . S
C1219 H1196 0.950 . S
C1219 C1218 1.334 . S
C1219 C1220 1.287 . S
C1220 C1219 1.287 . S
C1220 C1221 1.524 . S
C1220 H1239 0.913 . S
C1221 H1197 0.950 . S
C1221 C1220 1.524 . S
C1221 C1222 1.415 . S
C1222 H1198 0.950 . S
C1222 C1217 1.363 . S
C1222 C1221 1.415 . S
C1223 H1199 0.951 . S
C1223 C1224 1.366 . S
C1223 C1225 1.388 . S
C1224 C1223 1.366 . S
C1224 C1228 1.385 . S
C1225 H1200 0.951 . S
C1225 C1223 1.388 . S
C1225 C1226 1.366 . S
C1226 C1225 1.366 . S
C1226 C1227 1.414 . S
C1226 C1229 1.499 . S
C1227 H1201 0.950 . S
C1227 C1226 1.414 . S
C1227 C1228 1.374 . S
C1228 H1202 0.950 . S
C1228 C1224 1.385 . S
C1228 C1227 1.374 . S
C1229 C1226 1.499 . S
C1229 C1230 1.373 . S
C1229 C1231 1.389 . S
C1230 H1203 0.950 . S
C1230 C1216 1.377 . S
C1230 C1229 1.373 . S
C1231 C1215 1.377 . S
C1231 C1229 1.389 . S
C1231 C1232 1.524 . S
C1232 C1231 1.524 . S
C1232 C1233 1.397 . S
C1232 C1237 1.363 . S
C1233 H1204 0.950 . S
C1233 C1232 1.397 . S
C1233 C1234 1.334 . S
C1234 H1205 0.950 . S
C1234 C1233 1.334 . S
C1234 C1235 1.287 . S
C1235 C1234 1.287 . S
C1235 C1236 1.524 . S
C1235 H1238 0.999 . S
C1236 H1206 0.950 . S
C1236 C1235 1.524 . S
C1236 C1237 1.415 . S
C1237 H1207 0.950 . S
C1237 C1232 1.363 . S
C1237 C1236 1.415 . S
H1238 C1235 0.999 . S
H1239 C1220 0.913 . S
H1240 C1258 0.951 . S
H1241 C1260 0.951 1_556 S
H1242 C1262 0.950 . S
H1243 C1263 0.950 . S
H1244 C1265 0.950 . S
H1245 C1268 0.950 . S
H1246 C1269 0.950 . S
H1247 C1271 0.950 . S
H1248 C1272 0.950 . S
H1249 C1273 0.951 . S
H1250 C1275 0.951 1_554 S
H1251 C1277 0.950 . S
H1252 C1278 0.950 . S
H1253 C1280 0.938 1_455 S
H1254 C1283 0.950 . S
H1255 C1284 0.950 . S
H1256 C1286 0.950 . S
H1257 C1287 0.950 . S
C1258 H1240 0.951 . S
C1258 C1259 1.366 . S
C1258 C1260 1.388 . S
C1259 C1258 1.366 . S
C1259 C1263 1.385 . S
C1260 H1241 0.951 1_554 S
C1260 C1258 1.388 . S
C1260 C1261 1.366 . S
C1261 C1260 1.366 . S
C1261 C1262 1.414 . S
C1261 C1264 1.499 . S
C1262 H1242 0.950 . S
C1262 C1261 1.414 . S
C1262 C1263 1.374 . S
C1263 H1243 0.950 . S
C1263 C1259 1.385 . S
C1263 C1262 1.374 . S
C1264 C1261 1.499 . S
C1264 C1265 1.373 . S
C1264 C1266 1.389 1_554 S
C1265 H1244 0.950 . S
C1265 C1264 1.373 . S
C1265 C1281 1.377 . S
C1266 C1264 1.389 1_556 S
C1266 C1267 1.497 1_655 S
C1266 C1280 1.383 . S
C1267 C1266 1.497 1_455 S
C1267 C1268 1.417 1_556 S
C1267 C1272 1.378 . S
C1268 H1245 0.950 . S
C1268 C1267 1.417 1_554 S
C1268 C1269 1.334 . S
C1269 H1246 0.950 . S
C1269 C1268 1.334 . S
C1269 C1270 1.287 1_554 S
C1270 C1269 1.287 1_556 S
C1270 C1271 1.524 . S
C1270 H1289 0.913 . S
C1271 H1247 0.950 . S
C1271 C1270 1.524 . S
C1271 C1272 1.415 . S
C1272 H1248 0.950 . S
C1272 C1267 1.378 . S
C1272 C1271 1.415 . S
C1273 H1249 0.951 . S
C1273 C1274 1.366 . S
C1273 C1275 1.388 . S
C1274 C1273 1.366 . S
C1274 C1278 1.385 . S
C1275 H1250 0.951 1_556 S
C1275 C1273 1.388 . S
C1275 C1276 1.366 . S
C1276 C1275 1.366 . S
C1276 C1277 1.414 . S
C1276 C1279 1.499 1_455 S
C1277 H1251 0.950 . S
C1277 C1276 1.414 . S
C1277 C1278 1.374 . S
C1278 H1252 0.950 . S
C1278 C1274 1.385 . S
C1278 C1277 1.374 . S
C1279 C1276 1.499 1_655 S
C1279 C1280 1.379 . S
C1279 C1281 1.389 1_556 S
C1280 H1253 0.938 1_655 S
C1280 C1266 1.383 . S
C1280 C1279 1.379 . S
C1281 C1265 1.377 . S
C1281 C1279 1.389 1_554 S
C1281 C1282 1.524 . S
C1282 C1281 1.524 . S
C1282 C1283 1.397 1_554 S
C1282 C1287 1.363 . S
C1283 H1254 0.950 . S
C1283 C1282 1.397 1_556 S
C1283 C1284 1.334 . S
C1284 H1255 0.950 . S
C1284 C1283 1.334 . S
C1284 C1285 1.287 1_556 S
C1285 C1284 1.287 1_554 S
C1285 C1286 1.524 . S
C1285 H1288 0.999 . S
C1286 H1256 0.950 . S
C1286 C1285 1.524 . S
C1286 C1287 1.415 . S
C1287 H1257 0.950 . S
C1287 C1282 1.363 . S
C1287 C1286 1.415 . S
H1288 C1285 0.999 . S
H1289 C1270 0.913 . S
H1290 C1308 0.951 . S
H1291 C1310 0.951 . S
H1292 C1312 0.954 . S
H1293 C1313 0.950 . S
H1294 C1315 0.950 . S
H1295 C1318 0.950 . S
H1296 C1319 0.950 . S
H1297 C1321 0.950 . S
H1298 C1322 0.950 . S
H1299 C1323 0.951 . S
H1300 C1325 0.951 . S
H1301 C1327 0.950 . S
H1302 C1328 0.950 1_554 S
H1303 C1330 0.950 1_565 S
H1304 C1333 0.950 1_554 S
H1305 C1334 0.950 . S
H1306 C1336 0.950 . S
H1307 C1337 0.950 . S
C1308 H1290 0.951 . S
C1308 C1309 1.366 1_545 S
C1308 C1310 1.388 . S
C1309 C1308 1.366 1_565 S
C1309 C1313 1.385 . S
C1310 H1291 0.951 . S
C1310 C1308 1.388 . S
C1310 C1311 1.366 . S
C1311 C1310 1.366 . S
C1311 C1312 1.412 1_545 S
C1311 C1314 1.499 . S
C1312 H1292 0.954 . S
C1312 C1311 1.412 1_565 S
C1312 C1313 1.376 . S
C1313 H1293 0.950 . S
C1313 C1309 1.385 . S
C1313 C1312 1.376 . S
C1314 C1311 1.499 . S
C1314 C1315 1.373 . S
C1314 C1316 1.389 1_545 S
C1315 H1294 0.950 . S
C1315 C1314 1.373 . S
C1315 C1331 1.377 . S
C1316 C1314 1.389 1_565 S
C1316 C1317 1.524 . S
C1316 C1330 1.377 1_565 S
C1317 C1316 1.524 . S
C1317 C1318 1.397 . S
C1317 C1322 1.363 . S
C1318 H1295 0.950 . S
C1318 C1317 1.397 . S
C1318 C1319 1.334 . S
C1319 H1296 0.950 . S
C1319 C1318 1.334 . S
C1319 C1320 1.287 . S
C1320 C1319 1.287 . S
C1320 C1321 1.524 . S
C1320 H1339 0.913 . S
C1321 H1297 0.950 . S
C1321 C1320 1.524 . S
C1321 C1322 1.415 . S
C1322 H1298 0.950 . S
C1322 C1317 1.363 . S
C1322 C1321 1.415 . S
C1323 H1299 0.951 . S
C1323 C1324 1.366 . S
C1323 C1325 1.388 . S
C1324 C1323 1.366 . S
C1324 C1328 1.385 . S
C1325 H1300 0.951 . S
C1325 C1323 1.388 . S
C1325 C1326 1.366 . S
C1326 C1325 1.366 . S
C1326 C1327 1.414 1_556 S
C1326 C1329 1.499 1_556 S
C1327 H1301 0.950 . S
C1327 C1326 1.414 1_554 S
C1327 C1328 1.374 1_554 S
C1328 H1302 0.950 1_556 S
C1328 C1324 1.385 . S
C1328 C1327 1.374 1_556 S
C1329 C1326 1.499 1_554 S
C1329 C1330 1.373 . S
C1329 C1331 1.389 . S
C1330 H1303 0.950 1_545 S
C1330 C1316 1.377 1_545 S
C1330 C1329 1.373 . S
C1331 C1315 1.377 . S
C1331 C1329 1.389 . S
C1331 C1332 1.524 1_554 S
C1332 C1331 1.524 1_556 S
C1332 C1333 1.397 . S
C1332 C1337 1.363 . S
C1333 H1304 0.950 1_556 S
C1333 C1332 1.397 . S
C1333 C1334 1.334 . S
C1334 H1305 0.950 . S
C1334 C1333 1.334 . S
C1334 C1335 1.287 . S
C1335 C1334 1.287 . S
C1335 C1336 1.524 . S
C1335 H1338 0.999 . S
C1336 H1306 0.950 . S
C1336 C1335 1.524 . S
C1336 C1337 1.415 . S
C1337 H1307 0.950 . S
C1337 C1332 1.363 . S
C1337 C1336 1.415 . S
H1338 C1335 0.999 . S
H1339 C1320 0.913 . S
H1340 C1358 0.951 . S
H1341 C1360 0.951 . S
H1342 C1362 0.950 . S
H1343 C1363 0.950 . S
H1344 C1365 0.950 . S
H1345 C1368 0.950 . S
H1346 C1369 0.950 . S
H1347 C1371 0.950 . S
H1348 C1372 0.950 . S
H1349 C1373 0.951 . S
H1350 C1375 0.951 . S
H1351 C1377 0.950 . S
H1352 C1378 0.950 . S
H1353 C1380 0.950 . S
H1354 C1383 0.950 . S
H1355 C1384 0.950 . S
H1356 C1386 0.950 . S
H1357 C1387 0.950 . S
C1358 H1340 0.951 . S
C1358 C1359 1.366 . S
C1358 C1360 1.388 . S
C1359 C1358 1.366 . S
C1359 C1363 1.385 . S
C1360 H1341 0.951 . S
C1360 C1358 1.388 . S
C1360 C1361 1.366 . S
C1361 C1360 1.366 . S
C1361 C1362 1.414 . S
C1361 C1364 1.499 . S
C1362 H1342 0.950 . S
C1362 C1361 1.414 . S
C1362 C1363 1.374 . S
C1363 H1343 0.950 . S
C1363 C1359 1.385 . S
C1363 C1362 1.374 . S
C1364 C1361 1.499 . S
C1364 C1365 1.373 . S
C1364 C1366 1.389 . S
C1365 H1344 0.950 . S
C1365 C1364 1.373 . S
C1365 C1381 1.377 . S
C1366 C1364 1.389 . S
C1366 C1367 1.524 . S
C1366 C1380 1.377 . S
C1367 C1366 1.524 . S
C1367 C1368 1.397 . S
C1367 C1372 1.363 . S
C1368 H1345 0.950 . S
C1368 C1367 1.397 . S
C1368 C1369 1.334 . S
C1369 H1346 0.950 . S
C1369 C1368 1.334 . S
C1369 C1370 1.287 . S
C1370 C1369 1.287 . S
C1370 C1371 1.524 . S
C1370 H1389 0.913 . S
C1371 H1347 0.950 . S
C1371 C1370 1.524 . S
C1371 C1372 1.415 . S
C1372 H1348 0.950 . S
C1372 C1367 1.363 . S
C1372 C1371 1.415 . S
C1373 H1349 0.951 . S
C1373 C1374 1.366 . S
C1373 C1375 1.388 . S
C1374 C1373 1.366 . S
C1374 C1378 1.385 . S
C1375 H1350 0.951 . S
C1375 C1373 1.388 . S
C1375 C1376 1.366 . S
C1376 C1375 1.366 . S
C1376 C1377 1.414 . S
C1376 C1379 1.499 . S
C1377 H1351 0.950 . S
C1377 C1376 1.414 . S
C1377 C1378 1.374 . S
C1378 H1352 0.950 . S
C1378 C1374 1.385 . S
C1378 C1377 1.374 . S
C1379 C1376 1.499 . S
C1379 C1380 1.373 . S
C1379 C1381 1.389 . S
C1380 H1353 0.950 . S
C1380 C1366 1.377 . S
C1380 C1379 1.373 . S
C1381 C1365 1.377 . S
C1381 C1379 1.389 . S
C1381 C1382 1.524 . S
C1382 C1381 1.524 . S
C1382 C1383 1.397 . S
C1382 C1387 1.363 . S
C1383 H1354 0.950 . S
C1383 C1382 1.397 . S
C1383 C1384 1.334 . S
C1384 H1355 0.950 . S
C1384 C1383 1.334 . S
C1384 C1385 1.287 . S
C1385 C1384 1.287 . S
C1385 C1386 1.524 . S
C1385 H1388 0.999 . S
C1386 H1356 0.950 . S
C1386 C1385 1.524 . S
C1386 C1387 1.415 . S
C1387 H1357 0.950 . S
C1387 C1382 1.363 . S
C1387 C1386 1.415 . S
H1388 C1385 0.999 . S
H1389 C1370 0.913 . S
H1390 C1408 0.951 . S
H1391 C1410 0.951 . S
H1392 C1412 0.950 . S
H1393 C1413 0.950 . S
H1394 C1415 0.950 . S
H1395 C1418 0.950 1_554 S
H1396 C1419 0.950 . S
H1397 C1421 0.950 . S
H1398 C1422 0.950 . S
H1399 C1423 0.951 . S
H1400 C1425 0.951 1_554 S
H1401 C1427 0.950 . S
H1402 C1428 0.950 . S
H1403 C1430 0.950 . S
H1404 C1433 0.950 . S
H1405 C1434 0.950 . S
H1406 C1436 0.950 . S
H1407 C1437 0.950 . S
C1408 H1390 0.951 . S
C1408 C1409 1.366 . S
C1408 C1410 1.388 . S
C1409 C1408 1.366 . S
C1409 C1413 1.385 . S
C1410 H1391 0.951 . S
C1410 C1408 1.388 . S
C1410 C1411 1.366 . S
C1411 C1410 1.366 . S
C1411 C1412 1.414 . S
C1411 C1414 1.499 . S
C1412 H1392 0.950 . S
C1412 C1411 1.414 . S
C1412 C1413 1.374 . S
C1413 H1393 0.950 . S
C1413 C1409 1.385 . S
C1413 C1412 1.374 . S
C1414 C1411 1.499 . S
C1414 C1415 1.373 . S
C1414 C1416 1.389 . S
C1415 H1394 0.950 . S
C1415 C1414 1.373 . S
C1415 C1431 1.377 . S
C1416 C1414 1.389 . S
C1416 C1417 1.524 1_554 S
C1416 C1430 1.377 1_554 S
C1417 C1416 1.524 1_556 S
C1417 C1418 1.397 . S
C1417 C1422 1.363 . S
C1418 H1395 0.950 1_556 S
C1418 C1417 1.397 . S
C1418 C1419 1.334 . S
C1419 H1396 0.950 . S
C1419 C1418 1.334 . S
C1419 C1420 1.287 . S
C1420 C1419 1.287 . S
C1420 C1421 1.524 . S
C1420 H1439 0.913 . S
C1421 H1397 0.950 . S
C1421 C1420 1.524 . S
C1421 C1422 1.415 . S
C1422 H1398 0.950 . S
C1422 C1417 1.363 . S
C1422 C1421 1.415 . S
C1423 H1399 0.951 . S
C1423 C1424 1.366 . S
C1423 C1425 1.388 . S
C1424 C1423 1.366 . S
C1424 C1428 1.385 . S
C1425 H1400 0.951 1_556 S
C1425 C1423 1.388 . S
C1425 C1426 1.366 . S
C1426 C1425 1.366 . S
C1426 C1427 1.414 . S
C1426 C1429 1.499 . S
C1427 H1401 0.950 . S
C1427 C1426 1.414 . S
C1427 C1428 1.374 . S
C1428 H1402 0.950 . S
C1428 C1424 1.385 . S
C1428 C1427 1.374 . S
C1429 C1426 1.499 . S
C1429 C1430 1.373 . S
C1429 C1431 1.389 1_556 S
C1430 H1403 0.950 . S
C1430 C1416 1.377 1_556 S
C1430 C1429 1.373 . S
C1431 C1415 1.377 . S
C1431 C1429 1.389 1_554 S
C1431 C1432 1.524 . S
C1432 C1431 1.524 . S
C1432 C1433 1.397 . S
C1432 C1437 1.363 . S
C1433 H1404 0.950 . S
C1433 C1432 1.397 . S
C1433 C1434 1.334 . S
C1434 H1405 0.950 . S
C1434 C1433 1.334 . S
C1434 C1435 1.287 . S
C1435 C1434 1.287 . S
C1435 C1436 1.524 . S
C1435 H1438 0.999 . S
C1436 H1406 0.950 . S
C1436 C1435 1.524 . S
C1436 C1437 1.415 . S
C1437 H1407 0.950 . S
C1437 C1432 1.363 . S
C1437 C1436 1.415 . S
H1438 C1435 0.999 . S
H1439 C1420 0.913 . S
H1440 C1458 0.951 . S
H1441 C1460 0.951 . S
H1442 C1462 0.950 . S
H1443 C1463 0.950 1_554 S
H1444 C1465 0.950 . S
H1445 C1468 0.950 1_554 S
H1446 C1469 0.950 . S
H1447 C1471 0.950 . S
H1448 C1472 0.950 . S
H1449 C1473 0.951 . S
H1450 C1475 0.951 . S
H1451 C1477 0.950 . S
H1452 C1478 0.950 . S
H1453 C1480 0.950 . S
H1454 C1483 0.950 . S
H1455 C1484 0.950 . S
H1456 C1486 0.950 . S
H1457 C1487 0.950 . S
C1458 H1440 0.951 . S
C1458 C1459 1.366 . S
C1458 C1460 1.388 . S
C1459 C1458 1.366 . S
C1459 C1463 1.385 . S
C1460 H1441 0.951 . S
C1460 C1458 1.388 . S
C1460 C1461 1.366 . S
C1461 C1460 1.366 . S
C1461 C1462 1.414 . S
C1461 C1464 1.499 . S
C1462 H1442 0.950 . S
C1462 C1461 1.414 . S
C1462 C1463 1.374 . S
C1463 H1443 0.950 1_556 S
C1463 C1459 1.385 . S
C1463 C1462 1.374 . S
C1464 C1461 1.499 . S
C1464 C1465 1.373 . S
C1464 C1466 1.389 . S
C1465 H1444 0.950 . S
C1465 C1464 1.373 . S
C1465 C1481 1.377 . S
C1466 C1464 1.389 . S
C1466 C1467 1.524 . S
C1466 C1480 1.377 . S
C1467 C1466 1.524 . S
C1467 C1468 1.397 . S
C1467 C1472 1.363 . S
C1468 H1445 0.950 1_556 S
C1468 C1467 1.397 . S
C1468 C1469 1.334 1_556 S
C1469 H1446 0.950 . S
C1469 C1468 1.334 1_554 S
C1469 C1470 1.287 1_454 S
C1470 C1469 1.287 1_656 S
C1470 C1471 1.524 . S
C1470 H1489 0.913 1_556 S
C1471 H1447 0.950 . S
C1471 C1470 1.524 . S
C1471 C1472 1.415 1_655 S
C1472 H1448 0.950 . S
C1472 C1467 1.363 . S
C1472 C1471 1.415 1_455 S
C1473 H1449 0.951 . S
C1473 C1474 1.366 . S
C1473 C1475 1.388 . S
C1474 C1473 1.366 . S
C1474 C1478 1.385 . S
C1475 H1450 0.951 . S
C1475 C1473 1.388 . S
C1475 C1476 1.366 . S
C1476 C1475 1.366 . S
C1476 C1477 1.414 . S
C1476 C1479 1.499 . S
C1477 H1451 0.950 . S
C1477 C1476 1.414 . S
C1477 C1478 1.374 . S
C1478 H1452 0.950 . S
C1478 C1474 1.385 . S
C1478 C1477 1.374 . S
C1479 C1476 1.499 . S
C1479 C1480 1.373 . S
C1479 C1481 1.389 . S
C1480 H1453 0.950 . S
C1480 C1466 1.377 . S
C1480 C1479 1.373 . S
C1481 C1465 1.377 . S
C1481 C1479 1.389 . S
C1481 C1482 1.524 . S
C1482 C1481 1.524 . S
C1482 C1483 1.397 . S
C1482 C1487 1.363 . S
C1483 H1454 0.950 . S
C1483 C1482 1.397 . S
C1483 C1484 1.334 . S
C1484 H1455 0.950 . S
C1484 C1483 1.334 . S
C1484 C1485 1.287 . S
C1485 C1484 1.287 . S
C1485 C1486 1.524 . S
C1485 H1488 0.999 . S
C1486 H1456 0.950 . S
C1486 C1485 1.524 . S
C1486 C1487 1.415 . S
C1487 H1457 0.950 . S
C1487 C1482 1.363 . S
C1487 C1486 1.415 . S
H1488 C1485 0.999 . S
H1489 C1470 0.913 1_554 S
H1490 C1508 0.966 . S
H1491 C1510 0.950 . S
H1492 C1512 0.950 . S
H1493 C1513 0.950 . S
H1494 C1515 0.950 . S
H1495 C1518 0.950 . S
H1496 C1519 0.950 . S
H1497 C1521 0.950 . S
H1498 C1522 0.950 . S
H1499 C1523 0.951 . S
H1500 C1525 0.951 . S
H1501 C1527 0.937 1_565 S
H1502 C1528 0.953 . S
H1503 C1530 0.950 . S
H1504 C1533 0.950 . S
H1505 C1534 0.950 . S
H1506 C1536 0.950 . S
H1507 C1537 0.950 . S
C1508 H1490 0.966 . S
C1508 C1509 1.352 1_565 S
C1508 C1510 1.385 . S
C1509 C1508 1.352 1_545 S
C1509 C1513 1.395 . S
C1510 H1491 0.950 . S
C1510 C1508 1.385 . S
C1510 C1511 1.367 1_565 S
C1511 C1510 1.367 1_545 S
C1511 C1512 1.414 . S
C1511 C1514 1.499 . S
C1512 H1492 0.950 . S
C1512 C1511 1.414 . S
C1512 C1513 1.374 . S
C1513 H1493 0.950 . S
C1513 C1509 1.395 . S
C1513 C1512 1.374 . S
C1514 C1511 1.499 . S
C1514 C1515 1.373 1_545 S
C1514 C1516 1.389 . S
C1515 H1494 0.950 . S
C1515 C1514 1.373 1_565 S
C1515 C1531 1.377 . S
C1516 C1514 1.389 . S
C1516 C1517 1.524 . S
C1516 C1530 1.377 . S
C1517 C1516 1.524 . S
C1517 C1518 1.397 . S
C1517 C1522 1.363 1_556 S
C1518 H1495 0.950 . S
C1518 C1517 1.397 . S
C1518 C1519 1.334 . S
C1519 H1496 0.950 . S
C1519 C1518 1.334 . S
C1519 C1520 1.287 1_556 S
C1520 C1519 1.287 1_554 S
C1520 C1521 1.524 . S
C1520 H1539 0.913 . S
C1521 H1497 0.950 . S
C1521 C1520 1.524 . S
C1521 C1522 1.415 . S
C1522 H1498 0.950 . S
C1522 C1517 1.363 1_554 S
C1522 C1521 1.415 . S
C1523 H1499 0.951 . S
C1523 C1524 1.366 . S
C1523 C1525 1.388 . S
C1524 C1523 1.366 . S
C1524 C1528 1.385 . S
C1525 H1500 0.951 . S
C1525 C1523 1.388 . S
C1525 C1526 1.366 . S
C1526 C1525 1.366 . S
C1526 C1527 1.423 . S
C1526 C1529 1.499 . S
C1527 H1501 0.937 1_545 S
C1527 C1526 1.423 . S
C1527 C1528 1.378 . S
C1528 H1502 0.953 . S
C1528 C1524 1.385 . S
C1528 C1527 1.378 . S
C1529 C1526 1.499 . S
C1529 C1530 1.373 . S
C1529 C1531 1.389 1_545 S
C1530 H1503 0.950 . S
C1530 C1516 1.377 . S
C1530 C1529 1.373 . S
C1531 C1515 1.377 . S
C1531 C1529 1.389 1_565 S
C1531 C1532 1.524 . S
C1532 C1531 1.524 . S
C1532 C1533 1.397 . S
C1532 C1537 1.363 . S
C1533 H1504 0.950 . S
C1533 C1532 1.397 . S
C1533 C1534 1.334 . S
C1534 H1505 0.950 . S
C1534 C1533 1.334 . S
C1534 C1535 1.287 . S
C1535 C1534 1.287 . S
C1535 C1536 1.524 . S
C1535 H1538 0.999 . S
C1536 H1506 0.950 . S
C1536 C1535 1.524 . S
C1536 C1537 1.415 . S
C1537 H1507 0.950 . S
C1537 C1532 1.363 . S
C1537 C1536 1.415 . S
H1538 C1535 0.999 . S
H1539 C1520 0.913 . S
H1540 C1558 0.951 . S
H1541 C1560 0.951 . S
H1542 C1562 0.950 . S
H1543 C1563 0.950 . S
H1544 C1565 0.950 . S
H1545 C1568 0.950 . S
H1546 C1569 0.950 . S
H1547 C1571 0.950 . S
H1548 C1572 0.950 1_556 S
H1549 C1573 0.951 . S
H1550 C1575 0.951 . S
H1551 C1577 0.950 1_556 S
H1552 C1578 0.950 . S
H1553 C1580 0.950 . S
H1554 C1583 0.950 . S
H1555 C1584 0.950 . S
H1556 C1586 0.950 . S
H1557 C1587 0.950 . S
C1558 H1540 0.951 . S
C1558 C1559 1.366 . S
C1558 C1560 1.388 . S
C1559 C1558 1.366 . S
C1559 C1563 1.385 . S
C1560 H1541 0.951 . S
C1560 C1558 1.388 . S
C1560 C1561 1.366 . S
C1561 C1560 1.366 . S
C1561 C1562 1.414 . S
C1561 C1564 1.499 . S
C1562 H1542 0.950 . S
C1562 C1561 1.414 . S
C1562 C1563 1.374 . S
C1563 H1543 0.950 . S
C1563 C1559 1.385 . S
C1563 C1562 1.374 . S
C1564 C1561 1.499 . S
C1564 C1565 1.373 . S
C1564 C1566 1.389 . S
C1565 H1544 0.950 . S
C1565 C1564 1.373 . S
C1565 C1581 1.377 . S
C1566 C1564 1.389 . S
C1566 C1567 1.524 . S
C1566 C1580 1.377 . S
C1567 C1566 1.524 . S
C1567 C1568 1.397 . S
C1567 C1572 1.363 . S
C1568 H1545 0.950 . S
C1568 C1567 1.397 . S
C1568 C1569 1.334 . S
C1569 H1546 0.950 . S
C1569 C1568 1.334 . S
C1569 C1570 1.287 . S
C1570 C1569 1.287 . S
C1570 C1571 1.524 1_554 S
C1570 H1589 0.913 1_554 S
C1571 H1547 0.950 . S
C1571 C1570 1.524 1_556 S
C1571 C1572 1.415 1_556 S
C1572 H1548 0.950 1_554 S
C1572 C1567 1.363 . S
C1572 C1571 1.415 1_554 S
C1573 H1549 0.951 . S
C1573 C1574 1.366 1_554 S
C1573 C1575 1.388 . S
C1574 C1573 1.366 1_556 S
C1574 C1578 1.385 . S
C1575 H1550 0.951 . S
C1575 C1573 1.388 . S
C1575 C1576 1.366 . S
C1576 C1575 1.366 . S
C1576 C1577 1.414 . S
C1576 C1579 1.499 . S
C1577 H1551 0.950 1_554 S
C1577 C1576 1.414 . S
C1577 C1578 1.374 1_554 S
C1578 H1552 0.950 . S
C1578 C1574 1.385 . S
C1578 C1577 1.374 1_556 S
C1579 C1576 1.499 . S
C1579 C1580 1.373 . S
C1579 C1581 1.389 . S
C1580 H1553 0.950 . S
C1580 C1566 1.377 . S
C1580 C1579 1.373 . S
C1581 C1565 1.377 . S
C1581 C1579 1.389 . S
C1581 C1582 1.524 . S
C1582 C1581 1.524 . S
C1582 C1583 1.397 . S
C1582 C1587 1.363 . S
C1583 H1554 0.950 . S
C1583 C1582 1.397 . S
C1583 C1584 1.334 . S
C1584 H1555 0.950 . S
C1584 C1583 1.334 . S
C1584 C1585 1.287 . S
C1585 C1584 1.287 . S
C1585 C1586 1.524 . S
C1585 H1588 0.999 . S
C1586 H1556 0.950 . S
C1586 C1585 1.524 . S
C1586 C1587 1.415 . S
C1587 H1557 0.950 . S
C1587 C1582 1.363 . S
C1587 C1586 1.415 . S
H1588 C1585 0.999 . S
H1589 C1570 0.913 1_556 S
H1590 C1608 0.951 . S
H1591 C1610 0.951 . S
H1592 C1612 0.950 . S
H1593 C1613 0.950 . S
H1594 C1615 0.950 . S
H1595 C1618 0.950 . S
H1596 C1619 0.950 . S
H1597 C1621 0.950 . S
H1598 C1622 0.950 . S
H1599 C1623 0.951 . S
H1600 C1625 0.951 . S
H1601 C1627 0.950 . S
H1602 C1628 0.950 . S
H1603 C1630 0.950 . S
H1604 C1633 0.950 . S
H1605 C1634 0.950 . S
H1606 C1636 0.950 . S
H1607 C1637 0.950 . S
C1608 H1590 0.951 . S
C1608 C1609 1.366 . S
C1608 C1610 1.388 . S
C1609 C1608 1.366 . S
C1609 C1613 1.385 . S
C1610 H1591 0.951 . S
C1610 C1608 1.388 . S
C1610 C1611 1.366 . S
C1611 C1610 1.366 . S
C1611 C1612 1.414 . S
C1611 C1614 1.499 . S
C1612 H1592 0.950 . S
C1612 C1611 1.414 . S
C1612 C1613 1.374 . S
C1613 H1593 0.950 . S
C1613 C1609 1.385 . S
C1613 C1612 1.374 . S
C1614 C1611 1.499 . S
C1614 C1615 1.373 . S
C1614 C1616 1.389 . S
C1615 H1594 0.950 . S
C1615 C1614 1.373 . S
C1615 C1631 1.377 . S
C1616 C1614 1.389 . S
C1616 C1617 1.524 . S
C1616 C1630 1.377 . S
C1617 C1616 1.524 . S
C1617 C1618 1.397 . S
C1617 C1622 1.363 1_556 S
C1618 H1595 0.950 . S
C1618 C1617 1.397 . S
C1618 C1619 1.334 . S
C1619 H1596 0.950 . S
C1619 C1618 1.334 . S
C1619 C1620 1.287 1_556 S
C1620 C1619 1.287 1_554 S
C1620 C1621 1.524 . S
C1620 H1639 0.913 . S
C1621 H1597 0.950 . S
C1621 C1620 1.524 . S
C1621 C1622 1.415 . S
C1622 H1598 0.950 . S
C1622 C1617 1.363 1_554 S
C1622 C1621 1.415 . S
C1623 H1599 0.951 . S
C1623 C1624 1.366 . S
C1623 C1625 1.388 . S
C1624 C1623 1.366 . S
C1624 C1628 1.385 . S
C1625 H1600 0.951 . S
C1625 C1623 1.388 . S
C1625 C1626 1.366 . S
C1626 C1625 1.366 . S
C1626 C1627 1.414 . S
C1626 C1629 1.499 . S
C1627 H1601 0.950 . S
C1627 C1626 1.414 . S
C1627 C1628 1.374 . S
C1628 H1602 0.950 . S
C1628 C1624 1.385 . S
C1628 C1627 1.374 . S
C1629 C1626 1.499 . S
C1629 C1630 1.373 . S
C1629 C1631 1.389 . S
C1630 H1603 0.950 . S
C1630 C1616 1.377 . S
C1630 C1629 1.373 . S
C1631 C1615 1.377 . S
C1631 C1629 1.389 . S
C1631 C1632 1.524 . S
C1632 C1631 1.524 . S
C1632 C1633 1.397 . S
C1632 C1637 1.363 . S
C1633 H1604 0.950 . S
C1633 C1632 1.397 . S
C1633 C1634 1.334 . S
C1634 H1605 0.950 . S
C1634 C1633 1.334 . S
C1634 C1635 1.287 . S
C1635 C1634 1.287 . S
C1635 C1636 1.524 . S
C1635 H1638 0.999 . S
C1636 H1606 0.950 . S
C1636 C1635 1.524 . S
C1636 C1637 1.415 . S
C1637 H1607 0.950 . S
C1637 C1632 1.363 . S
C1637 C1636 1.415 . S
H1638 C1635 0.999 . S
H1639 C1620 0.913 . S
H1640 C1658 0.951 . S
H1641 C1660 0.951 . S
H1642 C1662 0.950 . S
H1643 C1663 0.950 . S
H1644 C1665 0.950 . S
H1645 C1668 0.950 . S
H1646 C1669 0.963 . S
H1647 C1671 0.950 . S
H1648 C1672 0.950 . S
H1649 C1673 0.951 1_455 S
H1650 C1675 0.951 . S
H1651 C1677 0.950 . S
H1652 C1678 0.950 . S
H1653 C1680 0.950 . S
H1654 C1683 0.950 . S
H1655 C1684 0.950 . S
H1656 C1686 0.950 . S
H1657 C1687 0.950 . S
C1658 H1640 0.951 . S
C1658 C1659 1.366 . S
C1658 C1660 1.388 . S
C1659 C1658 1.366 . S
C1659 C1663 1.385 . S
C1660 H1641 0.951 . S
C1660 C1658 1.388 . S
C1660 C1661 1.366 . S
C1661 C1660 1.366 . S
C1661 C1662 1.414 . S
C1661 C1664 1.499 . S
C1662 H1642 0.950 . S
C1662 C1661 1.414 . S
C1662 C1663 1.374 . S
C1663 H1643 0.950 . S
C1663 C1659 1.385 . S
C1663 C1662 1.374 . S
C1664 C1661 1.499 . S
C1664 C1665 1.373 . S
C1664 C1666 1.389 . S
C1665 H1644 0.950 . S
C1665 C1664 1.373 . S
C1665 C1681 1.377 . S
C1666 C1664 1.389 . S
C1666 C1667 1.524 . S
C1666 C1680 1.377 . S
C1667 C1666 1.524 . S
C1667 C1668 1.397 . S
C1667 C1672 1.363 . S
C1668 H1645 0.950 . S
C1668 C1667 1.397 . S
C1668 C1669 1.334 . S
C1669 H1646 0.963 . S
C1669 C1668 1.334 . S
C1669 C1670 1.287 . S
C1670 C1669 1.287 . S
C1670 C1671 1.524 . S
C1670 H1689 0.913 . S
C1671 H1647 0.950 . S
C1671 C1670 1.524 . S
C1671 C1672 1.415 . S
C1672 H1648 0.950 . S
C1672 C1667 1.363 . S
C1672 C1671 1.415 . S
C1673 H1649 0.951 1_655 S
C1673 C1674 1.366 . S
C1673 C1675 1.388 . S
C1674 C1673 1.366 . S
C1674 C1678 1.385 . S
C1675 H1650 0.951 . S
C1675 C1673 1.388 . S
C1675 C1676 1.366 . S
C1676 C1675 1.366 . S
C1676 C1677 1.414 . S
C1676 C1679 1.499 . S
C1677 H1651 0.950 . S
C1677 C1676 1.414 . S
C1677 C1678 1.374 . S
C1678 H1652 0.950 . S
C1678 C1674 1.385 . S
C1678 C1677 1.374 . S
C1679 C1676 1.499 . S
C1679 C1680 1.373 . S
C1679 C1681 1.389 . S
C1680 H1653 0.950 . S
C1680 C1666 1.377 . S
C1680 C1679 1.373 . S
C1681 C1665 1.377 . S
C1681 C1679 1.389 . S
C1681 C1682 1.524 . S
C1682 C1681 1.524 . S
C1682 C1683 1.397 . S
C1682 C1687 1.363 . S
C1683 H1654 0.950 . S
C1683 C1682 1.397 . S
C1683 C1684 1.334 . S
C1684 H1655 0.950 . S
C1684 C1683 1.334 . S
C1684 C1685 1.287 . S
C1685 C1684 1.287 . S
C1685 C1686 1.524 . S
C1685 H1688 0.999 . S
C1686 H1656 0.950 . S
C1686 C1685 1.524 . S
C1686 C1687 1.415 . S
C1687 H1657 0.950 . S
C1687 C1682 1.363 . S
C1687 C1686 1.415 . S
H1688 C1685 0.999 . S
H1689 C1670 0.913 . S
H1690 C1708 0.953 1_545 S
H1691 C1710 0.947 . S
H1692 C1712 0.950 . S
H1693 C1713 0.950 . S
H1694 C1715 0.950 . S
H1695 C1718 0.950 . S
H1696 C1719 0.950 . S
H1697 C1721 0.950 . S
H1698 C1722 0.950 . S
H1699 C1723 0.951 . S
H1700 C1725 0.951 . S
H1701 C1727 0.950 . S
H1702 C1728 0.950 . S
H1703 C1730 0.950 . S
H1704 C1733 0.950 . S
H1705 C1734 0.950 . S
H1706 C1736 0.950 . S
H1707 C1737 0.950 . S
C1708 H1690 0.953 1_565 S
C1708 C1709 1.368 . S
C1708 C1710 1.388 . S
C1709 C1708 1.368 . S
C1709 C1713 1.384 . S
C1710 H1691 0.947 . S
C1710 C1708 1.388 . S
C1710 C1711 1.366 . S
C1711 C1710 1.366 . S
C1711 C1712 1.414 . S
C1711 C1714 1.499 . S
C1712 H1692 0.950 . S
C1712 C1711 1.414 . S
C1712 C1713 1.374 . S
C1713 H1693 0.950 . S
C1713 C1709 1.384 . S
C1713 C1712 1.374 . S
C1714 C1711 1.499 . S
C1714 C1715 1.373 1_565 S
C1714 C1716 1.389 . S
C1715 H1694 0.950 . S
C1715 C1714 1.373 1_545 S
C1715 C1731 1.377 . S
C1716 C1714 1.389 . S
C1716 C1717 1.524 . S
C1716 C1730 1.377 . S
C1717 C1716 1.524 . S
C1717 C1718 1.397 . S
C1717 C1722 1.363 . S
C1718 H1695 0.950 . S
C1718 C1717 1.397 . S
C1718 C1719 1.334 . S
C1719 H1696 0.950 . S
C1719 C1718 1.334 . S
C1719 C1720 1.287 . S
C1720 C1719 1.287 . S
C1720 C1721 1.524 . S
C1720 H1739 0.913 . S
C1721 H1697 0.950 . S
C1721 C1720 1.524 . S
C1721 C1722 1.415 . S
C1722 H1698 0.950 . S
C1722 C1717 1.363 . S
C1722 C1721 1.415 . S
C1723 H1699 0.951 . S
C1723 C1724 1.366 . S
C1723 C1725 1.388 . S
C1724 C1723 1.366 . S
C1724 C1728 1.385 . S
C1725 H1700 0.951 . S
C1725 C1723 1.388 . S
C1725 C1726 1.366 . S
C1726 C1725 1.366 . S
C1726 C1727 1.414 . S
C1726 C1729 1.499 . S
C1727 H1701 0.950 . S
C1727 C1726 1.414 . S
C1727 C1728 1.374 . S
C1728 H1702 0.950 . S
C1728 C1724 1.385 . S
C1728 C1727 1.374 . S
C1729 C1726 1.499 . S
C1729 C1730 1.373 . S
C1729 C1731 1.389 1_565 S
C1730 H1703 0.950 . S
C1730 C1716 1.377 . S
C1730 C1729 1.373 . S
C1731 C1715 1.377 . S
C1731 C1729 1.389 1_545 S
C1731 C1732 1.524 . S
C1732 C1731 1.524 . S
C1732 C1733 1.397 . S
C1732 C1737 1.363 . S
C1733 H1704 0.950 . S
C1733 C1732 1.397 . S
C1733 C1734 1.334 . S
C1734 H1705 0.950 . S
C1734 C1733 1.334 . S
C1734 C1735 1.287 . S
C1735 C1734 1.287 . S
C1735 C1736 1.524 . S
C1735 H1738 0.999 . S
C1736 H1706 0.950 . S
C1736 C1735 1.524 . S
C1736 C1737 1.415 . S
C1737 H1707 0.950 . S
C1737 C1732 1.363 . S
C1737 C1736 1.415 . S
H1738 C1735 0.999 . S
H1739 C1720 0.913 . S
H1740 C1758 0.951 . S
H1741 C1760 0.951 . S
H1742 C1762 0.950 . S
H1743 C1763 0.950 . S
H1744 C1765 0.950 . S
H1745 C1768 0.950 . S
H1746 C1769 0.950 . S
H1747 C1771 0.950 . S
H1748 C1772 0.950 . S
H1749 C1773 0.951 . S
H1750 C1775 0.951 . S
H1751 C1777 0.950 . S
H1752 C1778 0.950 . S
H1753 C1780 0.950 . S
H1754 C1783 0.950 . S
H1755 C1784 0.950 . S
H1756 C1786 0.950 . S
H1757 C1787 0.950 . S
C1758 H1740 0.951 . S
C1758 C1759 1.366 . S
C1758 C1760 1.388 . S
C1759 C1758 1.366 . S
C1759 C1763 1.385 . S
C1760 H1741 0.951 . S
C1760 C1758 1.388 . S
C1760 C1761 1.366 . S
C1761 C1760 1.366 . S
C1761 C1762 1.414 . S
C1761 C1764 1.499 . S
C1762 H1742 0.950 . S
C1762 C1761 1.414 . S
C1762 C1763 1.374 . S
C1763 H1743 0.950 . S
C1763 C1759 1.385 . S
C1763 C1762 1.374 . S
C1764 C1761 1.499 . S
C1764 C1765 1.373 . S
C1764 C1766 1.389 . S
C1765 H1744 0.950 . S
C1765 C1764 1.373 . S
C1765 C1781 1.377 . S
C1766 C1764 1.389 . S
C1766 C1767 1.524 . S
C1766 C1780 1.377 . S
C1767 C1766 1.524 . S
C1767 C1768 1.397 . S
C1767 C1772 1.363 . S
C1768 H1745 0.950 . S
C1768 C1767 1.397 . S
C1768 C1769 1.334 . S
C1769 H1746 0.950 . S
C1769 C1768 1.334 . S
C1769 C1770 1.287 . S
C1770 C1769 1.287 . S
C1770 C1771 1.524 . S
C1770 H1789 0.913 . S
C1771 H1747 0.950 . S
C1771 C1770 1.524 . S
C1771 C1772 1.415 . S
C1772 H1748 0.950 . S
C1772 C1767 1.363 . S
C1772 C1771 1.415 . S
C1773 H1749 0.951 . S
C1773 C1774 1.366 . S
C1773 C1775 1.388 . S
C1774 C1773 1.366 . S
C1774 C1778 1.385 . S
C1775 H1750 0.951 . S
C1775 C1773 1.388 . S
C1775 C1776 1.366 . S
C1776 C1775 1.366 . S
C1776 C1777 1.414 . S
C1776 C1779 1.499 . S
C1777 H1751 0.950 . S
C1777 C1776 1.414 . S
C1777 C1778 1.374 . S
C1778 H1752 0.950 . S
C1778 C1774 1.385 . S
C1778 C1777 1.374 . S
C1779 C1776 1.499 . S
C1779 C1780 1.373 . S
C1779 C1781 1.389 . S
C1780 H1753 0.950 . S
C1780 C1766 1.377 . S
C1780 C1779 1.373 . S
C1781 C1765 1.377 . S
C1781 C1779 1.389 . S
C1781 C1782 1.524 . S
C1782 C1781 1.524 . S
C1782 C1783 1.397 . S
C1782 C1787 1.363 . S
C1783 H1754 0.950 . S
C1783 C1782 1.397 . S
C1783 C1784 1.334 . S
C1784 H1755 0.950 . S
C1784 C1783 1.334 . S
C1784 C1785 1.287 . S
C1785 C1784 1.287 . S
C1785 C1786 1.524 . S
C1785 H1788 0.999 . S
C1786 H1756 0.950 . S
C1786 C1785 1.524 . S
C1786 C1787 1.415 . S
C1787 H1757 0.950 . S
C1787 C1782 1.363 . S
C1787 C1786 1.415 . S
H1788 C1785 0.999 . S
H1789 C1770 0.913 . S
H1790 C1808 0.951 . S
H1791 C1810 0.951 . S
H1792 C1812 0.950 . S
H1793 C1813 0.950 . S
H1794 C1815 0.950 . S
H1795 C1818 0.950 . S
H1796 C1819 0.950 . S
H1797 C1821 0.950 . S
H1798 C1822 0.950 . S
H1799 C1823 0.951 . S
H1800 C1825 0.951 . S
H1801 C1827 0.950 . S
H1802 C1828 0.950 . S
H1803 C1830 0.950 . S
H1804 C1833 0.950 . S
H1805 C1834 0.950 . S
H1806 C1836 0.950 . S
H1807 C1837 0.950 . S
C1808 H1790 0.951 . S
C1808 C1809 1.366 . S
C1808 C1810 1.388 . S
C1809 C1808 1.366 . S
C1809 C1813 1.385 . S
C1810 H1791 0.951 . S
C1810 C1808 1.388 . S
C1810 C1811 1.366 . S
C1811 C1810 1.366 . S
C1811 C1812 1.414 . S
C1811 C1814 1.499 . S
C1812 H1792 0.950 . S
C1812 C1811 1.414 . S
C1812 C1813 1.374 . S
C1813 H1793 0.950 . S
C1813 C1809 1.385 . S
C1813 C1812 1.374 . S
C1814 C1811 1.499 . S
C1814 C1815 1.373 . S
C1814 C1816 1.389 . S
C1815 H1794 0.950 . S
C1815 C1814 1.373 . S
C1815 C1831 1.377 . S
C1816 C1814 1.389 . S
C1816 C1817 1.524 . S
C1816 C1830 1.377 . S
C1817 C1816 1.524 . S
C1817 C1818 1.397 . S
C1817 C1822 1.363 . S
C1818 H1795 0.950 . S
C1818 C1817 1.397 . S
C1818 C1819 1.334 . S
C1819 H1796 0.950 . S
C1819 C1818 1.334 . S
C1819 C1820 1.287 . S
C1820 C1819 1.287 . S
C1820 C1821 1.524 . S
C1820 H1839 0.913 . S
C1821 H1797 0.950 . S
C1821 C1820 1.524 . S
C1821 C1822 1.415 . S
C1822 H1798 0.950 . S
C1822 C1817 1.363 . S
C1822 C1821 1.415 . S
C1823 H1799 0.951 . S
C1823 C1824 1.366 . S
C1823 C1825 1.388 . S
C1824 C1823 1.366 . S
C1824 C1828 1.385 . S
C1825 H1800 0.951 . S
C1825 C1823 1.388 . S
C1825 C1826 1.366 . S
C1826 C1825 1.366 . S
C1826 C1827 1.414 . S
C1826 C1829 1.499 . S
C1827 H1801 0.950 . S
C1827 C1826 1.414 . S
C1827 C1828 1.374 . S
C1828 H1802 0.950 . S
C1828 C1824 1.385 . S
C1828 C1827 1.374 . S
C1829 C1826 1.499 . S
C1829 C1830 1.373 . S
C1829 C1831 1.389 . S
C1830 H1803 0.950 . S
C1830 C1816 1.377 . S
C1830 C1829 1.373 . S
C1831 C1815 1.377 . S
C1831 C1829 1.389 . S
C1831 C1832 1.524 . S
C1832 C1831 1.524 . S
C1832 C1833 1.397 . S
C1832 C1837 1.363 . S
C1833 H1804 0.950 . S
C1833 C1832 1.397 . S
C1833 C1834 1.334 . S
C1834 H1805 0.950 . S
C1834 C1833 1.334 . S
C1834 C1835 1.287 . S
C1835 C1834 1.287 . S
C1835 C1836 1.524 . S
C1835 H1838 0.999 . S
C1836 H1806 0.950 . S
C1836 C1835 1.524 . S
C1836 C1837 1.415 . S
C1837 H1807 0.950 . S
C1837 C1832 1.363 . S
C1837 C1836 1.415 . S
H1838 C1835 0.999 . S
H1839 C1820 0.913 . S
C659 C391 1.972 1_565 S
C674 C503 2.006 . S
C724 C543 1.565 . S
C709 C451 1.557 . S
C774 C562 2.084 . S
C759 C241 1.833 . S
C824 C623 1.642 . S
C809 C331 1.424 . S
C874 C482 2.007 . S
C859 C121 1.756 1_545 S
C909 C211 1.515 . S
C924 C522 1.571 . S
C959 C31 2.049 . S
C974 C583 2.084 . S
C1009 C91 1.472 . S
C1024 C602 1.642 1_655 S
C1074 C484 0.522 . S
C1059 C301 0.596 . S
C1124 C524 0.358 . S
C1109 C380 0.186 . S
C1174 C580 0.539 . S
C1159 C440 0.539 . S
C1209 C260 0.493 . S
C1224 C604 0.278 . S
C1259 C61 0.526 . S
C1274 C505 0.531 . S
C1324 C545 0.355 . S
C1309 C140 0.517 . S
C1374 C591 0.540 . S
C1359 C200 0.596 . S
C1409 C20 0.188 . S
C1424 C625 0.277 . S
C1459 C320 2.262 1_556 S
C1474 C500 2.392 . S
C1509 C361 2.431 . S
C1524 C540 2.896 . S
C1574 C564 1.854 . S
C1559 C421 1.672 . S
C1624 C620 2.853 . S
C1609 C271 2.737 . S
C1659 C80 2.305 . S
C1674 C511 2.405 . S
C1724 C551 2.896 . S
C1709 C151 2.757 . S
C1774 C585 1.855 . S
C1759 C181 1.654 . S
C1809 C1 2.418 . S
C1824 C631 2.854 . S
