# Generated by pormake.
# Topology zzz, (3,6)-cn, num edge types: 1
# Building blocks:
#     Node 0, Type 0, BuildingBlock: CUQRIR_clean_linker_1, # of connection points: 3
#     Node 1, Type 0, BuildingBlock: CUQRIR_clean_linker_1, # of connection points: 3
#     Node 2, Type 0, BuildingBlock: CUQRIR_clean_linker_1, # of connection points: 3
#     Node 3, Type 0, BuildingBlock: CUQRIR_clean_linker_1, # of connection points: 3
#     Node 4, Type 0, BuildingBlock: CUQRIR_clean_linker_1, # of connection points: 3
#     Node 5, Type 0, BuildingBlock: CUQRIR_clean_linker_1, # of connection points: 3
#     Node 6, Type 0, BuildingBlock: CUQRIR_clean_linker_1, # of connection points: 3
#     Node 7, Type 0, BuildingBlock: CUQRIR_clean_linker_1, # of connection points: 3
#     Node 8, Type 1, BuildingBlock: INOVEN_clean_sbu_0, # of connection points: 6
#     Node 9, Type 1, BuildingBlock: INOVEN_clean_sbu_0, # of connection points: 6
#     Node 10, Type 1, BuildingBlock: INOVEN_clean_sbu_0, # of connection points: 6
#     Node 11, Type 1, BuildingBlock: INOVEN_clean_sbu_0, # of connection points: 6
#     Edge 12, Type (0, 1), BuildingBlock: AJUNOK_clean_linker_0, # of connection points: 2
#     Edge 13, Type (0, 1), BuildingBlock: AJUNOK_clean_linker_0, # of connection points: 2
#     Edge 14, Type (0, 1), BuildingBlock: AJUNOK_clean_linker_0, # of connection points: 2
#     Edge 15, Type (0, 1), BuildingBlock: AJUNOK_clean_linker_0, # of connection points: 2
#     Edge 16, Type (0, 1), BuildingBlock: AJUNOK_clean_linker_0, # of connection points: 2
#     Edge 17, Type (0, 1), BuildingBlock: AJUNOK_clean_linker_0, # of connection points: 2
#     Edge 18, Type (0, 1), BuildingBlock: AJUNOK_clean_linker_0, # of connection points: 2
#     Edge 19, Type (0, 1), BuildingBlock: AJUNOK_clean_linker_0, # of connection points: 2
#     Edge 20, Type (0, 1), BuildingBlock: AJUNOK_clean_linker_0, # of connection points: 2
#     Edge 21, Type (0, 1), BuildingBlock: AJUNOK_clean_linker_0, # of connection points: 2
#     Edge 22, Type (0, 1), BuildingBlock: AJUNOK_clean_linker_0, # of connection points: 2
#     Edge 23, Type (0, 1), BuildingBlock: AJUNOK_clean_linker_0, # of connection points: 2
#     Edge 24, Type (0, 1), BuildingBlock: AJUNOK_clean_linker_0, # of connection points: 2
#     Edge 25, Type (0, 1), BuildingBlock: AJUNOK_clean_linker_0, # of connection points: 2
#     Edge 26, Type (0, 1), BuildingBlock: AJUNOK_clean_linker_0, # of connection points: 2
#     Edge 27, Type (0, 1), BuildingBlock: AJUNOK_clean_linker_0, # of connection points: 2
#     Edge 28, Type (0, 1), BuildingBlock: AJUNOK_clean_linker_0, # of connection points: 2
#     Edge 29, Type (0, 1), BuildingBlock: AJUNOK_clean_linker_0, # of connection points: 2
#     Edge 30, Type (0, 1), BuildingBlock: AJUNOK_clean_linker_0, # of connection points: 2
#     Edge 31, Type (0, 1), BuildingBlock: AJUNOK_clean_linker_0, # of connection points: 2
#     Edge 32, Type (0, 1), BuildingBlock: AJUNOK_clean_linker_0, # of connection points: 2
#     Edge 33, Type (0, 1), BuildingBlock: AJUNOK_clean_linker_0, # of connection points: 2
#     Edge 34, Type (0, 1), BuildingBlock: AJUNOK_clean_linker_0, # of connection points: 2
#     Edge 35, Type (0, 1), BuildingBlock: AJUNOK_clean_linker_0, # of connection points: 2
# Relax obj value: 0.427
# Max RMSD: 0.217
# Mean RMSD: 0.154
data_MOF--net-zzz--node1-INOVEN_clean_sbu_0--node2-CUQRIR_clean_linker_1--edge1-AJUNOK_clean_linker_0
_symmetry_space_group_name_H-M    P1
_symmetry_Int_Tables_number       1
_symmetry_cell_setting            triclinic
loop_
_symmetry_equiv_pos_as_xyz
'x, y, z'
_cell_length_a     34.489001
_cell_length_b     34.418872
_cell_length_c     9.0475437
_cell_angle_alpha  89.597457
_cell_angle_beta   89.186679
_cell_angle_gamma 90.461457
loop_
_atom_site_label
_atom_site_type_symbol
_atom_site_fract_x
_atom_site_fract_y
_atom_site_fract_z
_atom_type_partial_charge
C0 C 0.7635 0.54759 0.4393 0.0
N1 N 0.78933 0.52003 0.48577 0.0
N2 N 0.73454 0.53153 0.35619 0.0
C3 C 0.7686 0.59029 0.46264 0.0
C4 C 0.74425 0.49367 0.35159 0.0
N5 N 0.77665 0.48661 0.42971 0.0
C6 C 0.72553 0.46473 0.25016 0.0
H7 H 0.78174 0.59575 0.57191 0.0
H8 H 0.74038 0.60538 0.45454 0.0
H9 H 0.78856 0.60208 0.37582 0.0
H10 H 0.73905 0.46705 0.13857 0.0
H11 H 0.69447 0.47134 0.23673 0.0
H12 H 0.72941 0.43459 0.29122 0.0
C13 C 1.02105 0.7703 0.39363 0.0
N14 N 0.0348 0.80789 0.38573 0.0
N15 N 1.02149 0.75288 0.25667 0.0
C16 C 1.01003 0.75003 0.53515 0.0
C17 C 0.03424 0.78208 0.16734 0.0
N18 N 0.04416 0.81384 0.24461 0.0
C19 C 0.03778 0.77997 1.00094 0.0
H20 H 1.02415 0.76423 0.6304 0.0
H21 H 1.01822 0.71893 0.53053 0.0
H22 H 0.97814 0.75168 0.55119 0.0
H23 H 1.01894 0.7568 0.95558 0.0
H24 H 0.06841 0.77457 0.96856 0.0
H25 H 1.02941 0.80812 0.95066 0.0
C26 C 0.80675 1.02055 0.44304 0.0
N27 N 0.76787 1.02787 0.42878 0.0
N28 N 0.82465 1.01662 0.30674 0.0
C29 C 0.82741 1.021 0.58727 0.0
C30 C 0.79456 1.01986 0.21356 0.0
N31 N 0.76189 1.03046 0.2846 0.0
C32 C 0.79692 1.01488 0.04796 0.0
H33 H 0.82861 0.05129 0.6283 0.0
H34 H 0.85736 1.00984 0.57479 0.0
H35 H 0.81092 1.00338 0.67035 0.0
H36 H 0.8237 0.99953 1.01342 0.0
H37 H 0.79575 0.04359 0.99177 0.0
H38 H 0.77127 0.99807 1.01099 0.0
C39 C 0.54033 0.79762 0.41511 0.0
N40 N 0.51478 0.77171 0.48021 0.0
N41 N 0.52144 0.8252 0.33305 0.0
C42 C 0.58353 0.79372 0.42045 0.0
C43 C 0.48372 0.81442 0.35038 0.0
N44 N 0.47967 0.78267 0.43821 0.0
C45 C 0.45037 0.83276 0.27126 0.0
H46 H 0.59396 0.80666 0.52472 0.0
H47 H 0.59778 0.80897 0.32561 0.0
H48 H 0.59177 0.76262 0.42029 0.0
H49 H 0.4454 0.81772 0.16524 0.0
H50 H 0.45696 0.86328 0.24445 0.0
H51 H 0.42334 0.83048 0.33895 0.0
C52 C 0.3132 0.52886 0.25134 0.0
N53 N 0.27511 0.53844 0.23298 0.0
N54 N 0.32217 0.52485 0.3978 0.0
C55 C 0.34223 0.52814 0.12623 0.0
C56 C 0.28779 0.53164 0.46728 0.0
N57 N 0.25968 0.54277 0.37249 0.0
C58 C 0.28071 0.52421 0.62952 0.0
H59 H 0.33548 0.50326 0.0534 0.0
H60 H 0.37231 0.52548 0.16576 0.0
H61 H 0.33973 0.55502 0.0586 0.0
H62 H 0.29298 0.54789 0.69712 0.0
H63 H 0.29513 0.49686 0.66288 0.0
H64 H 0.24917 0.5221 0.65347 0.0
C65 C 0.04192 0.29706 0.29024 0.0
N66 N 1.01555 0.27028 0.24037 0.0
N67 N 1.02413 0.32594 0.36927 0.0
C68 C 0.08489 0.29374 0.27021 0.0
C69 C 0.98634 0.31526 0.36688 0.0
N70 N 0.98092 0.28256 0.28709 0.0
C71 C 0.95599 0.33141 0.47031 0.0
H72 H 0.09635 0.27516 0.36001 0.0
H73 H 0.09899 0.32278 0.2763 0.0
H74 H 0.09193 0.27988 0.16284 0.0
H75 H 0.96241 0.36201 0.49792 0.0
H76 H 0.95595 0.31444 0.57503 0.0
H77 H 0.92673 0.32857 0.42205 0.0
C78 C 0.26446 0.05589 0.2286 0.0
N79 N 0.2919 1.02867 0.19252 0.0
N80 N 0.23559 0.04019 0.31682 0.0
C81 C 0.26636 0.09783 0.18423 0.0
C82 C 0.24651 1.00287 0.33305 0.0
N83 N 0.27983 0.99587 0.25801 0.0
C84 C 0.23055 0.97586 0.45205 0.0
H85 H 0.27609 0.11524 0.27977 0.0
H86 H 0.23701 0.10799 0.15439 0.0
H87 H 0.28679 0.10246 0.08977 0.0
H88 H 0.19983 0.98188 0.47942 0.0
H89 H 0.24737 0.97997 0.55445 0.0
H90 H 0.23398 0.94513 0.41859 0.0
C91 C 0.51354 0.27223 0.30291 0.0
N92 N 0.53996 0.29858 0.24638 0.0
N93 N 0.53144 0.23962 0.3558 0.0
C94 C 0.47085 0.27921 0.31341 0.0
C95 C 0.56931 0.24774 0.33085 0.0
N96 N 0.57472 0.28313 0.268 0.0
C97 C 0.60137 0.22151 0.37678 0.0
H98 H 0.46504 0.29962 0.40538 0.0
H99 H 0.45476 0.25165 0.33506 0.0
H100 H 0.46068 0.29298 0.20982 0.0
H101 H 0.6301 0.23125 0.33328 0.0
H102 H 0.59437 0.19289 0.33295 0.0
H103 H 0.6018 0.21857 0.49894 0.0
Gd104 Gd 0.0596 1.02939 0.93089 0.0
Gd105 Gd 1.00958 0.04348 0.72681 0.0
C106 C 0.03828 0.95668 0.71068 0.0
C107 C 0.10671 1.00757 0.13327 0.0
C108 C 0.14023 0.98227 0.13267 0.0
C109 C 0.14932 0.96271 0.26292 0.0
C110 C 0.15729 0.97065 0.99816 0.0
C111 C 0.17209 0.90983 0.11531 0.0
C112 C 0.17533 0.93447 0.9911 0.0
C113 C 0.16878 0.92753 0.25428 0.0
C114 C 0.0993 0.0588 0.68886 0.0
C115 C 1.02696 0.11468 0.95849 0.0
C116 C 0.96857 0.06278 0.5007 0.0
C117 C 0.93899 0.08853 0.44301 0.0
C118 C 0.94626 0.10604 0.30575 0.0
C119 C 0.9058 0.09853 0.52534 0.0
C120 C 0.89526 0.15204 0.35543 0.0
C121 C 0.88339 0.12996 0.47981 0.0
C122 C 0.92388 0.13703 0.26022 0.0
C123 C 0.97084 1.01637 0.97912 0.0
O124 O 0.05148 0.96572 0.84367 0.0
O125 O 1.02494 0.98528 0.63068 0.0
O126 O 0.11092 0.03947 0.05711 0.0
O127 O 0.07339 0.99029 0.11133 0.0
O128 O 0.10068 0.07212 0.8211 0.0
O129 O 0.07308 1.03256 0.68659 0.0
O130 O 1.01572 0.10641 0.82167 0.0
O131 O 0.04022 0.0856 0.0376 0.0
O132 O 0.95768 0.03674 0.59794 0.0
O133 O 1.00217 0.07861 0.52987 0.0
O134 O 0.96635 1.0036 0.8466 0.0
O135 O 0.99733 0.04191 0.97209 0.0
H136 H 0.13741 0.97197 0.36831 0.0
H137 H 0.15155 0.98622 0.89639 0.0
H138 H 0.18126 0.92234 0.88303 0.0
H139 H 0.17013 0.9102 0.35455 0.0
H140 H 0.97121 0.09783 0.23912 0.0
H141 H 0.89933 0.08464 0.63068 0.0
H142 H 0.86151 0.14104 0.5552 0.0
H143 H 0.93366 0.15326 0.16331 0.0
Gd144 Gd 0.54186 0.05403 0.96143 0.0
Gd145 Gd 0.52813 1.01073 0.73521 0.0
C146 C 0.6162 0.03744 0.73889 0.0
C147 C 0.56469 0.08954 0.19426 0.0
C148 C 0.59262 0.12068 0.21178 0.0
C149 C 0.60296 0.14398 0.08878 0.0
C150 C 0.615 0.12158 0.33926 0.0
C151 C 0.66565 0.15265 0.19513 0.0
C152 C 0.65069 0.14074 0.33409 0.0
C153 C 0.63954 0.1614 0.08277 0.0
C154 C 0.51876 0.10197 0.73415 0.0
C155 C 0.4539 1.02849 0.95625 0.0
C156 C 0.50949 0.97432 0.49718 0.0
C157 C 0.48158 0.94565 0.44848 0.0
C158 C 0.46686 0.94969 0.30645 0.0
C159 C 0.46451 0.91929 0.54944 0.0
C160 C 0.41039 0.91299 0.38582 0.0
C161 C 0.42893 0.9023 0.51682 0.0
C162 C 0.43129 0.93305 0.27431 0.0
C163 C 0.55008 0.964 0.96984 0.0
O164 O 0.60594 0.04754 0.87541 0.0
O165 O 0.58835 1.02638 0.65128 0.0
O166 O 0.53371 0.09902 0.12266 0.0
O167 O 0.57956 0.05671 0.15032 0.0
O168 O 0.50594 0.1026 0.86839 0.0
O169 O 0.54277 0.07421 0.72235 0.0
O170 O 0.46415 1.01856 0.81921 0.0
O171 O 0.48188 0.03808 0.04589 0.0
O172 O 0.53476 0.96196 0.59101 0.0
O173 O 0.49534 1.00818 0.5326 0.0
O174 O 0.56426 0.96299 0.83745 0.0
O175 O 0.52571 0.99135 0.97361 0.0
H176 H 0.5854 0.14421 0.99038 0.0
H177 H 0.60676 0.1047 0.43649 0.0
H178 H 0.66991 0.13654 0.42654 0.0
H179 H 0.65011 0.17269 0.97749 0.0
H180 H 0.48034 0.96946 0.22713 0.0
H181 H 0.4761 0.91555 0.65923 0.0
H182 H 0.4131 0.88684 0.60352 0.0
H183 H 0.41752 0.94132 0.17193 0.0
Gd184 Gd 0.508 0.545 0.99297 0.0
Gd185 Gd 0.55263 0.52853 0.76025 0.0
C186 C 0.52666 0.61681 0.76331 0.0
C187 C 0.47325 0.56406 0.23661 0.0
C188 C 0.44391 0.58846 0.3051 0.0
C189 C 0.4106 0.60032 0.2309 0.0
C190 C 0.45112 0.60213 0.4465 0.0
C191 C 0.39944 0.64867 0.42049 0.0
C192 C 0.42875 0.63165 0.50544 0.0
C193 C 0.38736 0.62935 0.29188 0.0
C194 C 0.46284 0.52197 0.75634 0.0
C195 C 0.5332 0.45713 0.99014 0.0
C196 C 0.58612 0.50559 0.51975 0.0
C197 C 0.61247 0.4767 0.46019 0.0
C198 C 0.64282 0.46119 0.54248 0.0
C199 C 0.60576 0.46346 0.31786 0.0
C200 C 0.65203 0.41167 0.35476 0.0
C201 C 0.62508 0.43117 0.26534 0.0
C202 C 0.66319 0.42932 0.48819 0.0
C203 C 0.59956 0.55288 0.98613 0.0
O204 O 0.51757 0.60817 0.90328 0.0
O205 O 0.53603 0.58788 0.67623 0.0
O206 O 0.4611 0.53654 0.15054 0.0
O207 O 0.50482 0.58139 0.18732 0.0
O208 O 0.45889 0.50993 0.89103 0.0
O209 O 0.4909 0.54581 0.75339 0.0
O210 O 0.54159 0.46589 0.85014 0.0
O211 O 0.52522 0.48604 0.07851 0.0
O212 O 0.60086 0.53158 0.60681 0.0
O213 O 0.552 0.493 0.56365 0.0
O214 O 0.60147 0.56479 0.85076 0.0
O215 O 0.57101 0.52931 0.9989 0.0
H216 H 0.40436 0.58953 0.12161 0.0
H217 H 0.47586 0.59189 0.50699 0.0
H218 H 0.43861 0.64462 0.607 0.0
H219 H 0.36421 0.64113 0.22588 0.0
H220 H 0.64958 0.4725 0.65065 0.0
H221 H 0.58369 0.47666 0.25086 0.0
H222 H 0.61596 0.41984 0.16008 0.0
H223 H 0.68597 0.41724 0.55489 0.0
Gd224 Gd 1.02028 0.51092 0.9625 0.0
Gd225 Gd 0.03512 0.55517 0.74138 0.0
C226 C 0.94857 0.52684 0.73407 0.0
C227 C 0.99873 0.47544 0.20265 0.0
C228 C 0.97189 0.44614 0.25988 0.0
C229 C 0.95728 0.41649 0.17067 0.0
C230 C 0.95785 0.45062 0.40382 0.0
C231 C 0.90613 0.405 0.35283 0.0
C232 C 0.92513 0.43025 0.45062 0.0
C233 C 0.92488 0.39519 0.21887 0.0
C234 C 0.04486 0.46365 0.73431 0.0
C235 C 0.10743 0.53766 0.95761 0.0
C236 C 0.05867 0.59837 0.52327 0.0
C237 C 0.08576 0.63079 0.50615 0.0
C238 C 0.09256 0.64579 0.36527 0.0
C239 C 0.10918 0.6428 0.62254 0.0
C240 C 0.15555 0.6673 0.44015 0.0
C241 C 0.14359 0.663 0.58989 0.0
C242 C 0.12588 0.6678 0.33509 0.0
C243 C 1.01083 0.59981 0.97917 0.0
O244 O 0.95702 0.51923 0.87456 0.0
O245 O 0.97803 0.53574 0.64664 0.0
O246 O 1.02667 0.46343 0.11693 0.0
O247 O 0.98327 0.50778 0.15685 0.0
O248 O 0.05725 0.46294 0.86804 0.0
O249 O 1.02115 0.49161 0.72269 0.0
O250 O 0.0983 0.54393 0.81779 0.0
O251 O 0.07842 0.53116 0.0496 0.0
O252 O 1.02748 0.60539 0.60014 0.0
O253 O 0.07413 0.56489 0.55536 0.0
O254 O 0.99566 0.59982 0.85 0.0
O255 O 0.03626 0.57354 0.97884 0.0
H256 H 0.9688 0.41201 0.06011 0.0
H257 H 0.97002 0.47251 0.47525 0.0
H258 H 0.9122 0.43852 0.55533 0.0
H259 H 0.91138 0.37514 0.14307 0.0
H260 H 0.07497 0.63575 0.2764 0.0
H261 H 0.10338 0.63278 0.73452 0.0
H262 H 0.1637 0.66712 0.67924 0.0
H263 H 0.13252 0.6748 0.22059 0.0
C264 C 0.16672 0.05955 0.34288 0.0
C265 C 0.20415 0.05776 0.40221 0.0
C266 C 0.13279 0.06028 0.4341 0.0
C267 C 0.13505 0.06037 0.58967 0.0
H268 H 0.16406 0.05813 0.22457 0.0
H269 H 0.10463 0.06012 0.38272 0.0
S270 S 0.22696 0.06148 0.80093 0.0
N271 N 0.24147 0.05993 0.62635 0.0
N272 N 0.17912 0.06272 0.79766 0.0
C273 C 0.17273 0.06208 0.64979 0.0
C274 C 0.20686 0.06075 0.55664 0.0
C275 C 0.51836 0.1686 0.38722 0.0
C276 C 0.51768 0.20658 0.44559 0.0
C277 C 0.51801 0.13494 0.47954 0.0
C278 C 0.51708 0.13762 0.63484 0.0
H279 H 0.52122 0.16515 0.26888 0.0
H280 H 0.51886 0.10654 0.4296 0.0
S281 S 0.51212 0.22994 0.84438 0.0
N282 N 0.51414 0.24431 0.66976 0.0
N283 N 0.51263 0.18203 0.84184 0.0
C284 C 0.51422 0.17543 0.69408 0.0
C285 C 0.5148 0.20951 0.60028 0.0
C286 C 0.36767 0.55391 0.57971 0.0
C287 C 0.35985 0.52535 0.47205 0.0
C288 C 0.40065 0.55242 0.67043 0.0
C289 C 0.42889 0.5235 0.65328 0.0
H290 H 0.34763 0.57759 0.59564 0.0
H291 H 0.40426 0.57447 0.75412 0.0
S292 S 0.42468 0.44285 0.38351 0.0
N293 N 0.38417 0.46699 0.35466 0.0
N294 N 0.4476 0.46613 0.51602 0.0
C295 C 0.42251 0.49554 0.54264 0.0
C296 C 0.38799 0.49618 0.45353 0.0
C297 C 0.04476 0.39527 0.39523 0.0
C298 C 0.03952 0.35787 0.45787 0.0
C299 C 0.04754 0.42917 0.48397 0.0
C300 C 0.04476 0.42734 0.63967 0.0
H301 H 0.04468 0.39843 0.27619 0.0
H302 H 0.05097 0.4572 0.43024 0.0
S303 S 0.03351 0.33613 0.85974 0.0
N304 N 0.03392 0.32119 0.68657 0.0
N305 N 0.03892 0.38383 0.85195 0.0
C306 C 0.04161 0.38979 0.70352 0.0
C307 C 0.03897 0.35549 0.61339 0.0
C308 C 0.89232 0.99126 0.27457 0.0
C309 C 0.86511 1.02131 0.25713 0.0
C310 C 0.92743 0.99047 0.1898 0.0
C311 C 0.93642 1.01931 0.08235 0.0
H312 H 0.88538 0.9671 0.34768 0.0
H313 H 0.9469 0.96626 0.20379 0.0
S314 S 0.87461 0.10324 0.98774 0.0
N315 N 0.85122 0.08146 0.12603 0.0
N316 N 0.91442 0.07779 0.96062 0.0
C317 C 0.90982 0.04959 0.06561 0.0
C318 C 0.87518 0.05129 0.15503 0.0
C319 C 0.52172 0.86036 0.08999 0.0
C320 C 0.53575 0.8567 0.23565 0.0
C321 C 0.52639 0.89495 1.00636 0.0
C322 C 0.54653 0.92737 0.06161 0.0
H323 H 0.50534 0.83673 0.04241 0.0
H324 H 0.51352 0.89652 0.89798 0.0
S325 S 0.60067 0.92843 0.41264 0.0
N326 N 0.57739 0.88627 0.41787 0.0
N327 N 0.58826 0.95012 0.25694 0.0
C328 C 0.56443 0.9227 0.19968 0.0
C329 C 0.55883 0.88766 0.28686 0.0
C330 C 0.66592 0.55229 0.32867 0.0
C331 C 0.7036 0.54844 0.26792 0.0
C332 C 0.63253 0.55479 0.23831 0.0
C333 C 0.63522 0.55306 0.08274 0.0
H334 H 0.66218 0.55111 0.44745 0.0
H335 H 0.60425 0.55721 0.29052 0.0
S336 S 0.72755 0.54551 0.86719 0.0
N337 N 0.74148 0.5454 0.04113 0.0
N338 N 0.67987 0.54966 0.87259 0.0
C339 C 0.67307 0.55141 0.02073 0.0
C340 C 0.70682 0.54919 0.11255 0.0
C341 C 0.04962 0.69739 0.11688 0.0
C342 C 1.01987 0.71206 0.2102 0.0
C343 C 0.04625 0.66155 0.04304 0.0
C344 C 1.01392 0.63701 0.06522 0.0
H345 H 0.0758 0.71433 0.09803 0.0
H346 H 0.06968 0.65264 0.9702 0.0
S347 S 0.9275 0.66025 0.29671 0.0
N348 N 0.95609 0.69863 0.31594 0.0
N349 N 0.95097 0.63011 0.18629 0.0
C350 C 0.98416 0.65058 0.16011 0.0
C351 C 0.98704 0.68795 0.23189 0.0
C352 C 0.95017 0.23556 0.44964 0.0
C353 C 0.94922 0.25665 0.31822 0.0
C354 C 0.9232 0.20638 0.47974 0.0
C355 C 0.89738 0.19438 0.36997 0.0
H356 H 0.97403 0.24025 0.5234 0.0
H357 H 0.92779 0.18843 0.57659 0.0
S358 S 0.87597 0.24835 0.02582 0.0
N359 N 0.91276 0.27242 0.09813 0.0
N360 N 0.86614 0.21168 0.13982 0.0
C361 C 0.89272 0.21858 0.24583 0.0
C362 C 0.91842 0.25071 0.22151 0.0
C363 C 0.3132 0.93311 0.23971 0.0
C364 C 0.30649 0.96822 0.31243 0.0
C365 C 0.34484 0.91028 0.27958 0.0
C366 C 0.36939 0.92233 0.39365 0.0
H367 H 0.29592 0.92511 0.14552 0.0
H368 H 0.35252 0.8856 0.21182 0.0
S369 S 0.36105 1.01209 0.61562 0.0
N370 N 0.32395 1.01314 0.50366 0.0
N371 N 0.38305 0.97062 0.58223 0.0
C372 C 0.35996 0.95558 0.47574 0.0
C373 C 0.32859 0.9787 0.43315 0.0
C374 C 0.62649 0.32494 0.16123 0.0
C375 C 0.60951 0.30579 0.28329 0.0
C376 C 0.65259 0.35573 0.18281 0.0
C377 C 0.65909 0.36971 0.32694 0.0
H378 H 0.61716 0.31829 0.05051 0.0
H379 H 0.66134 0.37307 0.08744 0.0
S380 S 0.63866 0.31532 0.67482 0.0
N381 N 0.61286 0.2932 0.54798 0.0
N382 N 0.66278 0.34996 0.58569 0.0
C383 C 0.65098 0.34399 0.44487 0.0
C384 C 0.62438 0.31301 0.42432 0.0
C385 C 0.2365 0.60045 0.51439 0.0
C386 C 0.22696 0.56869 0.42195 0.0
C387 C 0.21864 0.63717 0.50625 0.0
C388 C 0.19248 0.6478 0.39429 0.0
H389 H 0.26035 0.59828 0.58966 0.0
H390 H 0.22526 0.6579 0.59198 0.0
S391 S 0.20092 0.59473 0.94065 0.0
N392 N 0.19706 0.54618 0.19677 0.0
N393 N 0.19328 0.63526 0.10544 0.0
C394 C 0.19008 0.62185 0.27683 0.0
C395 C 0.19463 0.57431 0.32818 0.0
C396 C 0.07431 0.8657 0.09705 0.0
C397 C 0.07757 0.83576 0.20025 0.0
C398 C 0.10724 0.88582 0.04785 0.0
C399 C 0.1444 0.87717 0.10371 0.0
H400 H 0.04608 0.87416 0.05763 0.0
H401 H 0.10271 0.9109 0.97775 0.0
S402 S 0.16788 0.79515 0.35225 0.0
N403 N 0.12025 0.79307 0.33616 0.0
N404 N 0.18256 0.83258 0.24993 0.0
C405 C 0.14809 0.84459 0.19583 0.0
C406 C 0.11451 0.82378 0.24412 0.0
C407 C 0.71046 0.05898 0.13761 0.0
C408 C 0.74242 0.06355 0.22786 0.0
C409 C 0.68905 0.09136 0.09759 0.0
C410 C 0.69861 0.12875 0.1513 0.0
H411 H 0.70065 1.03023 0.10676 0.0
H412 H 0.66171 0.0861 0.04374 0.0
S413 S 0.78671 0.15594 0.35348 0.0
N414 N 0.78874 0.10819 0.33825 0.0
N415 N 0.74661 0.16914 0.26976 0.0
C416 C 0.73378 0.13401 0.22247 0.0
C417 C 0.75596 0.10117 0.26104 0.0
C418 C 0.43499 0.74199 0.29991 0.0
C419 C 0.44648 0.75733 0.43554 0.0
C420 C 0.4093 0.71082 0.2944 0.0
C421 C 0.3973 0.6916 0.42547 0.0
H422 H 0.44881 0.7516 0.1979 0.0
H423 H 0.40509 0.69785 0.18702 0.0
S424 S 0.408 0.72966 0.80504 0.0
N425 N 0.43447 0.75949 0.70013 0.0
N426 N 0.38846 0.69776 0.69168 0.0
C427 C 0.40272 0.71115 0.56001 0.0
C428 C 0.42791 0.7441 0.56505 0.0
C429 C 0.81456 0.44579 0.26417 0.0
C430 C 0.80049 0.45334 0.40695 0.0
C431 C 0.84433 0.41956 0.24158 0.0
C432 C 0.86344 0.40322 0.36325 0.0
H433 H 0.80524 0.46304 0.17099 0.0
H434 H 0.85673 0.41839 0.13104 0.0
S435 S 0.8282 0.40351 0.75193 0.0
N436 N 0.79925 0.43388 0.66505 0.0
N437 N 0.85826 0.38636 0.62459 0.0
C438 C 0.84485 0.40484 0.50261 0.0
C439 C 0.81338 0.43069 0.52493 0.0
C440 C 0.04186 0.20164 0.22939 0.0
C441 C 1.02185 0.23289 0.16411 0.0
C442 C 0.04338 0.16413 0.16251 0.0
C443 C 1.02487 0.15553 0.02669 0.0
H444 H 0.05562 0.20587 0.33491 0.0
H445 H 0.05909 0.14149 0.21916 0.0
S446 S 0.96695 0.22694 0.81763 0.0
N447 N 0.98325 0.25234 0.95735 0.0
N448 N 0.98432 0.18266 0.83595 0.0
C449 C 1.00467 0.1867 0.9621 0.0
C450 C 1.00359 0.22482 0.02948 0.0
C451 C 0.3437 1.00558 1.01554 0.0
C452 C 0.33086 0.03281 0.12219 0.0
C453 C 0.38287 1.00411 0.96322 0.0
C454 C 0.41165 1.03024 1.01187 0.0
H455 H 0.3233 0.98426 0.97493 0.0
H456 H 0.39098 0.98137 0.88724 0.0
S457 S 0.39532 0.10469 0.30273 0.0
N458 N 0.35214 0.08432 0.28418 0.0
N459 N 0.42429 0.08291 0.18288 0.0
C460 C 0.39939 0.05718 0.12081 0.0
C461 C 0.3596 0.05835 0.17547 0.0
C462 C 0.52905 0.37049 0.26906 0.0
C463 C 0.53375 0.33727 0.18068 0.0
C464 C 0.52816 0.40852 0.20648 0.0
C465 C 0.53294 0.41564 0.05223 0.0
H466 H 0.52687 0.36712 0.38797 0.0
H467 H 0.52441 0.43271 0.28105 0.0
S468 S 0.54303 0.33817 0.77133 0.0
N469 N 0.54114 0.31409 0.92995 0.0
N470 N 0.53987 0.38464 0.81343 0.0
C471 C 0.53675 0.3824 0.96301 0.0
C472 C 0.5372 0.34372 0.02673 0.0
C473 C 0.23773 0.58839 0.14035 0.0
C474 C 0.25732 0.55196 0.09226 0.0
C475 C 0.15541 0.58144 0.11423 0.0
C476 C 0.1482 0.54412 1.01552 0.0
H477 H 0.25549 0.61112 0.19154 0.0
H478 H 0.13174 0.60082 0.14429 0.0
S479 S 0.2184 0.4646 0.85973 0.0
N480 N 0.25193 0.4911 0.94174 0.0
N481 N 0.17635 0.48673 0.88093 0.0
C482 C 0.18494 0.51867 0.96113 0.0
C483 C 0.23236 0.52214 0.99425 0.0
C484 C 0.06478 0.85128 0.58082 0.0
C485 C 0.03284 0.84015 0.49274 0.0
C486 C 0.06602 0.88761 0.65778 0.0
C487 C 0.03576 0.91521 0.64818 0.0
H488 H 0.08971 0.83247 0.58581 0.0
H489 H 0.09184 0.89494 0.7184 0.0
S490 S 0.94537 0.89994 0.43515 0.0
N491 N 0.97019 0.85989 0.40502 0.0
N492 N 0.97223 0.92689 0.54477 0.0
C493 C 1.00355 0.90371 0.56264 0.0
C494 C 1.00221 0.86685 0.4866 0.0
C495 C 0.70682 0.99852 0.53116 0.0
C496 C 0.73516 1.02832 0.53636 0.0
C497 C 0.66996 1.00147 0.60226 0.0
C498 C 0.65835 0.0347 0.68213 0.0
H499 H 0.7127 0.97301 0.46544 0.0
H500 H 0.64978 0.97753 0.59154 0.0
S501 S 0.72029 0.12274 0.72516 0.0
N502 N 0.74824 0.09302 0.62926 0.0
N503 N 0.67895 0.0992 0.75636 0.0
C504 C 0.68648 0.06484 0.68985 0.0
C505 C 0.72453 0.06158 0.61851 0.0
C506 C 0.52658 0.70014 0.47211 0.0
C507 C 0.52267 0.73447 0.55439 0.0
C508 C 0.52848 0.66308 0.54113 0.0
C509 C 0.52532 0.65783 0.69677 0.0
H510 H 0.52737 0.70193 0.35255 0.0
H511 H 0.53169 0.63809 0.47016 0.0
S512 S 0.51578 0.73893 0.964 0.0
N513 N 0.5173 0.76107 0.80119 0.0
N514 N 0.51911 0.6919 0.93031 0.0
C515 C 0.52172 0.69221 0.78045 0.0
C516 C 0.52075 0.73016 0.70976 0.0
C517 C 0.83538 0.51796 0.70176 0.0
C518 C 0.82814 0.52549 0.55042 0.0
C519 C 0.8737 0.51835 0.76073 0.0
C520 C 0.90708 0.52625 0.67166 0.0
H521 H 0.81122 0.51095 0.775 0.0
H522 H 0.87712 0.51212 0.87727 0.0
S523 S 0.90365 0.54686 0.26622 0.0
N524 N 0.85772 0.54002 0.31335 0.0
N525 N 0.92851 0.54195 0.41987 0.0
C526 C 0.89971 0.53406 0.51981 0.0
C527 C 0.86086 0.53334 0.46071 0.0
loop_
_geom_bond_atom_site_label_1
_geom_bond_atom_site_label_2
_geom_bond_distance
_geom_bond_site_symmetry_2
_ccdc_geom_bond_type
C0 N1 1.317 . S
C0 N2 1.348 . S
C0 C3 1.485 . S
N1 C0 1.317 . S
N1 N5 1.370 . S
N2 C0 1.348 . S
N2 C4 1.346 . S
C3 C0 1.485 . S
C3 H7 0.960 . S
C3 H8 0.961 . S
C3 H9 0.960 . S
C4 N2 1.346 . S
C4 N5 1.307 . S
C4 C6 1.486 . S
N5 N1 1.370 . S
N5 C4 1.307 . S
C6 C4 1.486 . S
C6 H10 0.960 . S
C6 H11 0.960 . S
C6 H12 0.959 . S
H7 C3 0.960 . S
H8 C3 0.961 . S
H9 C3 0.960 . S
H10 C6 0.960 . S
H11 C6 0.960 . S
H12 C6 0.959 . S
C13 N14 1.317 . S
C13 N15 1.348 . S
C13 C16 1.485 . S
N14 C13 1.317 . S
N14 N18 1.371 . S
N15 C13 1.348 . S
N15 C17 1.346 1_655 S
C16 C13 1.485 . S
C16 H20 0.960 1_655 S
C16 H21 0.961 . S
C16 H22 0.960 . S
C17 N15 1.346 1_455 S
C17 N18 1.307 1_455 S
C17 C19 1.486 . S
N18 N14 1.371 . S
N18 C17 1.307 1_655 S
C19 C17 1.486 . S
C19 H23 0.960 1_455 S
C19 H24 0.960 . S
C19 H25 0.959 . S
H20 C16 0.960 1_455 S
H21 C16 0.961 . S
H22 C16 0.960 . S
H23 C19 0.960 1_655 S
H24 C19 0.960 . S
H25 C19 0.959 . S
C26 N27 1.317 . S
C26 N28 1.348 . S
C26 C29 1.485 . S
N27 C26 1.317 . S
N27 N31 1.371 . S
N28 C26 1.348 . S
N28 C30 1.346 1_565 S
C29 C26 1.485 . S
C29 H33 0.960 1_565 S
C29 H34 0.961 . S
C29 H35 0.960 . S
C30 N28 1.346 1_545 S
C30 N31 1.307 1_545 S
C30 C32 1.486 . S
N31 N27 1.371 . S
N31 C30 1.307 1_565 S
C32 C30 1.486 . S
C32 H36 0.960 1_545 S
C32 H37 0.960 . S
C32 H38 0.959 . S
H33 C29 0.960 1_545 S
H34 C29 0.961 . S
H35 C29 0.960 . S
H36 C32 0.960 1_565 S
H37 C32 0.960 . S
H38 C32 0.959 . S
C39 N40 1.317 . S
C39 N41 1.348 . S
C39 C42 1.485 . S
N40 C39 1.317 . S
N40 N44 1.370 . S
N41 C39 1.348 . S
N41 C43 1.346 . S
C42 C39 1.485 . S
C42 H46 0.960 . S
C42 H47 0.961 . S
C42 H48 0.960 . S
C43 N41 1.346 . S
C43 N44 1.307 . S
C43 C45 1.486 . S
N44 N40 1.370 . S
N44 C43 1.307 . S
C45 C43 1.486 . S
C45 H49 0.960 . S
C45 H50 0.960 . S
C45 H51 0.959 . S
H46 C42 0.960 . S
H47 C42 0.961 . S
H48 C42 0.960 . S
H49 C45 0.960 . S
H50 C45 0.960 . S
H51 C45 0.959 . S
C52 N53 1.317 . S
C52 N54 1.348 1_556 S
C52 C55 1.485 . S
N53 C52 1.317 . S
N53 N57 1.370 1_556 S
N54 C52 1.348 1_554 S
N54 C56 1.346 . S
C55 C52 1.485 . S
C55 H59 0.960 . S
C55 H60 0.961 . S
C55 H61 0.960 . S
C56 N54 1.346 . S
C56 N57 1.307 . S
C56 C58 1.486 . S
N57 N53 1.370 1_554 S
N57 C56 1.307 . S
C58 C56 1.486 . S
C58 H62 0.960 . S
C58 H63 0.960 . S
C58 H64 0.959 . S
H59 C55 0.960 . S
H60 C55 0.961 . S
H61 C55 0.960 . S
H62 C58 0.960 . S
H63 C58 0.960 . S
H64 C58 0.959 . S
C65 N66 1.317 . S
C65 N67 1.350 1_556 S
C65 C68 1.485 . S
N66 C65 1.317 . S
N66 N70 1.371 1_556 S
N67 C65 1.350 1_554 S
N67 C69 1.345 1_655 S
C68 C65 1.485 . S
C68 H72 0.960 1_655 S
C68 H73 0.961 . S
C68 H74 0.960 . S
C69 N67 1.345 1_455 S
C69 N70 1.307 1_455 S
C69 C71 1.486 . S
N70 N66 1.371 1_554 S
N70 C69 1.307 1_655 S
C71 C69 1.486 . S
C71 H75 0.960 1_455 S
C71 H76 0.960 . S
C71 H77 0.959 . S
H72 C68 0.960 1_455 S
H73 C68 0.961 . S
H74 C68 0.960 . S
H75 C71 0.960 1_655 S
H76 C71 0.960 . S
H77 C71 0.959 . S
C78 N79 1.317 . S
C78 N80 1.350 1_556 S
C78 C81 1.485 . S
N79 C78 1.317 . S
N79 N83 1.371 1_556 S
N80 C78 1.350 1_554 S
N80 C82 1.345 1_565 S
C81 C78 1.485 . S
C81 H85 0.960 1_565 S
C81 H86 0.961 . S
C81 H87 0.960 . S
C82 N80 1.345 1_545 S
C82 N83 1.307 1_545 S
C82 C84 1.487 . S
N83 N79 1.371 1_554 S
N83 C82 1.307 1_565 S
C84 C82 1.487 . S
C84 H88 0.960 1_545 S
C84 H89 0.960 . S
C84 H90 0.959 . S
H85 C81 0.960 1_545 S
H86 C81 0.961 . S
H87 C81 0.960 . S
H88 C84 0.960 1_565 S
H89 C84 0.960 . S
H90 C84 0.959 . S
C91 N92 1.317 . S
C91 N93 1.348 1_556 S
C91 C94 1.485 . S
N92 C91 1.317 . S
N92 N96 1.370 1_556 S
N93 C91 1.348 1_554 S
N93 C95 1.346 . S
C94 C91 1.485 . S
C94 H98 0.960 . S
C94 H99 0.961 . S
C94 H100 0.960 . S
C95 N93 1.346 . S
C95 N96 1.307 . S
C95 C97 1.486 . S
N96 N92 1.370 1_554 S
N96 C95 1.307 . S
C97 C95 1.486 . S
C97 H101 0.960 . S
C97 H102 0.960 . S
C97 H103 0.959 . S
H98 C94 0.960 . S
H99 C94 0.961 . S
H100 C94 0.960 . S
H101 C97 0.960 . S
H102 C97 0.960 . S
H103 C97 0.959 . S
Gd104 C107 2.818 1_556 S
Gd104 O124 2.377 . S
Gd104 O126 2.448 1_556 S
Gd104 O127 2.506 1_556 S
Gd104 O128 2.435 . S
Gd104 O129 2.717 1_565 S
Gd104 O131 2.395 1_565 S
Gd104 O135 2.327 1_455 S
Gd105 C116 2.818 . S
Gd105 O125 2.395 1_545 S
Gd105 O129 2.327 1_655 S
Gd105 O130 2.377 . S
Gd105 O132 2.448 . S
Gd105 O133 2.506 . S
Gd105 O134 2.435 . S
Gd105 O135 2.717 1_545 S
C106 O124 1.240 1_655 S
C106 O125 1.240 . S
C107 Gd104 2.818 1_554 S
C107 C108 1.510 . S
C107 O126 1.249 . S
C107 O127 1.252 . S
C108 C107 1.510 . S
C108 C109 1.404 . S
C108 C110 1.352 . S
C109 C108 1.404 . S
C109 C113 1.389 . S
C109 H136 0.930 . S
C110 C108 1.352 . S
C110 C112 1.374 . S
C110 H137 0.931 1_455 S
C111 C112 1.359 . S
C111 C113 1.364 . S
C112 C110 1.374 . S
C112 C111 1.359 . S
C112 H138 0.931 . S
C113 C109 1.389 . S
C113 C111 1.364 . S
C113 H139 0.931 . S
C114 O128 1.256 . S
C114 O129 1.257 1_565 S
C115 O130 1.240 1_455 S
C115 O131 1.240 . S
C116 Gd105 2.818 . S
C116 C117 1.510 . S
C116 O132 1.249 . S
C116 O133 1.252 . S
C117 C116 1.510 . S
C117 C118 1.404 . S
C117 C119 1.352 . S
C118 C117 1.404 . S
C118 C122 1.389 . S
C118 H140 0.930 . S
C119 C117 1.352 . S
C119 C121 1.374 . S
C119 H141 0.931 1_655 S
C120 C121 1.359 . S
C120 C122 1.364 . S
C121 C119 1.374 . S
C121 C120 1.359 . S
C121 H142 0.931 . S
C122 C118 1.389 . S
C122 C120 1.364 . S
C122 H143 0.931 . S
C123 O134 1.256 . S
C123 O135 1.257 1_545 S
O124 Gd104 2.377 . S
O124 C106 1.240 1_455 S
O125 Gd105 2.395 1_565 S
O125 C106 1.240 . S
O126 Gd104 2.448 1_554 S
O126 C107 1.249 . S
O127 Gd104 2.506 1_554 S
O127 C107 1.252 . S
O128 Gd104 2.435 . S
O128 C114 1.256 . S
O129 Gd104 2.717 1_545 S
O129 Gd105 2.327 1_455 S
O129 C114 1.257 1_545 S
O130 Gd105 2.377 . S
O130 C115 1.240 1_655 S
O131 Gd104 2.395 1_545 S
O131 C115 1.240 . S
O132 Gd105 2.448 . S
O132 C116 1.249 . S
O133 Gd105 2.506 . S
O133 C116 1.252 . S
O134 Gd105 2.435 . S
O134 C123 1.256 . S
O135 Gd104 2.327 1_655 S
O135 Gd105 2.717 1_565 S
O135 C123 1.257 1_565 S
H136 C109 0.930 . S
H137 C110 0.931 1_655 S
H138 C112 0.931 . S
H139 C113 0.931 . S
H140 C118 0.930 . S
H141 C119 0.931 1_455 S
H142 C121 0.931 . S
H143 C122 0.931 . S
Gd144 C147 2.818 1_556 S
Gd144 O164 2.377 . S
Gd144 O166 2.448 1_556 S
Gd144 O167 2.506 1_556 S
Gd144 O168 2.435 . S
Gd144 O169 2.717 . S
Gd144 O171 2.395 . S
Gd144 O175 2.327 1_545 S
Gd145 C156 2.818 . S
Gd145 O165 2.395 . S
Gd145 O169 2.327 1_565 S
Gd145 O170 2.377 . S
Gd145 O172 2.448 . S
Gd145 O173 2.506 . S
Gd145 O174 2.435 . S
Gd145 O175 2.717 . S
C146 O164 1.240 1_565 S
C146 O165 1.240 . S
C147 Gd144 2.818 1_554 S
C147 C148 1.510 . S
C147 O166 1.249 . S
C147 O167 1.252 . S
C148 C147 1.510 . S
C148 C149 1.404 . S
C148 C150 1.352 . S
C149 C148 1.404 . S
C149 C153 1.389 . S
C149 H176 0.930 . S
C150 C148 1.352 . S
C150 C152 1.374 . S
C150 H177 0.931 1_545 S
C151 C152 1.359 . S
C151 C153 1.364 . S
C152 C150 1.374 . S
C152 C151 1.359 . S
C152 H178 0.928 1_545 S
C153 C149 1.389 . S
C153 C151 1.364 . S
C153 H179 0.931 . S
C154 O168 1.256 . S
C154 O169 1.257 . S
C155 O170 1.240 1_545 S
C155 O171 1.240 . S
C156 Gd145 2.818 . S
C156 C157 1.510 . S
C156 O172 1.249 . S
C156 O173 1.252 . S
C157 C156 1.510 . S
C157 C158 1.404 . S
C157 C159 1.352 . S
C158 C157 1.404 . S
C158 C162 1.389 . S
C158 H180 0.930 . S
C159 C157 1.352 . S
C159 C161 1.374 . S
C159 H181 0.931 1_565 S
C160 C161 1.359 . S
C160 C162 1.364 . S
C161 C159 1.374 . S
C161 C160 1.359 . S
C161 H182 0.923 1_565 S
C162 C158 1.389 . S
C162 C160 1.364 . S
C162 H183 0.931 . S
C163 O174 1.256 . S
C163 O175 1.257 . S
O164 Gd144 2.377 . S
O164 C146 1.240 1_545 S
O165 Gd145 2.395 . S
O165 C146 1.240 . S
O166 Gd144 2.448 1_554 S
O166 C147 1.249 . S
O167 Gd144 2.506 1_554 S
O167 C147 1.252 . S
O168 Gd144 2.435 . S
O168 C154 1.256 . S
O169 Gd144 2.717 . S
O169 Gd145 2.327 1_545 S
O169 C154 1.257 . S
O170 Gd145 2.377 . S
O170 C155 1.240 1_565 S
O171 Gd144 2.395 . S
O171 C155 1.240 . S
O172 Gd145 2.448 . S
O172 C156 1.249 . S
O173 Gd145 2.506 . S
O173 C156 1.252 . S
O174 Gd145 2.435 . S
O174 C163 1.256 . S
O175 Gd144 2.327 1_565 S
O175 Gd145 2.717 . S
O175 C163 1.257 . S
H176 C149 0.930 . S
H177 C150 0.931 1_565 S
H178 C152 0.928 1_565 S
H179 C153 0.931 . S
H180 C158 0.930 . S
H181 C159 0.931 1_545 S
H182 C161 0.923 1_545 S
H183 C162 0.931 . S
Gd184 C187 2.818 1_556 S
Gd184 O204 2.377 . S
Gd184 O206 2.448 1_556 S
Gd184 O207 2.506 1_556 S
Gd184 O208 2.435 . S
Gd184 O209 2.717 . S
Gd184 O211 2.395 . S
Gd184 O215 2.327 . S
Gd185 C196 2.818 . S
Gd185 O205 2.395 . S
Gd185 O209 2.327 . S
Gd185 O210 2.377 . S
Gd185 O212 2.448 . S
Gd185 O213 2.506 . S
Gd185 O214 2.435 . S
Gd185 O215 2.717 . S
C186 O204 1.240 . S
C186 O205 1.240 . S
C187 Gd184 2.818 1_554 S
C187 C188 1.510 . S
C187 O206 1.249 . S
C187 O207 1.252 . S
C188 C187 1.510 . S
C188 C189 1.404 . S
C188 C190 1.352 . S
C189 C188 1.404 . S
C189 C193 1.389 . S
C189 H216 0.930 . S
C190 C188 1.352 . S
C190 C192 1.374 . S
C190 H217 0.931 . S
C191 C192 1.359 . S
C191 C193 1.364 . S
C192 C190 1.374 . S
C192 C191 1.359 . S
C192 H218 0.931 . S
C193 C189 1.389 . S
C193 C191 1.364 . S
C193 H219 0.931 . S
C194 O208 1.256 . S
C194 O209 1.257 . S
C195 O210 1.240 . S
C195 O211 1.240 . S
C196 Gd185 2.818 . S
C196 C197 1.510 . S
C196 O212 1.249 . S
C196 O213 1.252 . S
C197 C196 1.510 . S
C197 C198 1.404 . S
C197 C199 1.352 . S
C198 C197 1.404 . S
C198 C202 1.389 . S
C198 H220 0.930 . S
C199 C197 1.352 . S
C199 C201 1.374 . S
C199 H221 0.931 . S
C200 C201 1.359 . S
C200 C202 1.364 . S
C201 C199 1.374 . S
C201 C200 1.359 . S
C201 H222 0.931 . S
C202 C198 1.389 . S
C202 C200 1.364 . S
C202 H223 0.931 . S
C203 O214 1.256 . S
C203 O215 1.257 . S
O204 Gd184 2.377 . S
O204 C186 1.240 . S
O205 Gd185 2.395 . S
O205 C186 1.240 . S
O206 Gd184 2.448 1_554 S
O206 C187 1.249 . S
O207 Gd184 2.506 1_554 S
O207 C187 1.252 . S
O208 Gd184 2.435 . S
O208 C194 1.256 . S
O209 Gd184 2.717 . S
O209 Gd185 2.327 . S
O209 C194 1.257 . S
O210 Gd185 2.377 . S
O210 C195 1.240 . S
O211 Gd184 2.395 . S
O211 C195 1.240 . S
O212 Gd185 2.448 . S
O212 C196 1.249 . S
O213 Gd185 2.506 . S
O213 C196 1.252 . S
O214 Gd185 2.435 . S
O214 C203 1.256 . S
O215 Gd184 2.327 . S
O215 Gd185 2.717 . S
O215 C203 1.257 . S
H216 C189 0.930 . S
H217 C190 0.931 . S
H218 C192 0.931 . S
H219 C193 0.931 . S
H220 C198 0.930 . S
H221 C199 0.931 . S
H222 C201 0.931 . S
H223 C202 0.931 . S
Gd224 C227 2.818 1_556 S
Gd224 O244 2.377 . S
Gd224 O246 2.448 1_556 S
Gd224 O247 2.506 1_556 S
Gd224 O248 2.435 . S
Gd224 O249 2.717 1_655 S
Gd224 O251 2.395 1_655 S
Gd224 O255 2.327 . S
Gd225 C236 2.818 . S
Gd225 O245 2.395 1_455 S
Gd225 O249 2.327 . S
Gd225 O250 2.377 . S
Gd225 O252 2.448 . S
Gd225 O253 2.506 . S
Gd225 O254 2.435 . S
Gd225 O255 2.717 1_455 S
C226 O244 1.240 . S
C226 O245 1.240 . S
C227 Gd224 2.818 1_554 S
C227 C228 1.510 . S
C227 O246 1.249 . S
C227 O247 1.252 . S
C228 C227 1.510 . S
C228 C229 1.404 . S
C228 C230 1.352 . S
C229 C228 1.404 . S
C229 C233 1.389 . S
C229 H256 0.930 . S
C230 C228 1.352 . S
C230 C232 1.374 . S
C230 H257 0.931 . S
C231 C232 1.359 . S
C231 C233 1.364 . S
C232 C230 1.374 . S
C232 C231 1.359 . S
C232 H258 0.931 . S
C233 C229 1.389 . S
C233 C231 1.364 . S
C233 H259 0.931 . S
C234 O248 1.269 . S
C234 O249 1.250 1_655 S
C235 O250 1.240 . S
C235 O251 1.240 . S
C236 Gd225 2.818 . S
C236 C237 1.510 . S
C236 O252 1.249 . S
C236 O253 1.252 . S
C237 C236 1.510 . S
C237 C238 1.404 . S
C237 C239 1.352 . S
C238 C237 1.404 . S
C238 C242 1.389 . S
C238 H260 0.930 . S
C239 C237 1.352 . S
C239 C241 1.374 . S
C239 H261 0.931 . S
C240 C241 1.359 . S
C240 C242 1.364 . S
C241 C239 1.374 . S
C241 C240 1.359 . S
C241 H262 0.931 . S
C242 C238 1.389 . S
C242 C240 1.364 . S
C242 H263 0.931 . S
C243 O254 1.256 . S
C243 O255 1.257 1_455 S
O244 Gd224 2.377 . S
O244 C226 1.240 . S
O245 Gd225 2.395 1_655 S
O245 C226 1.240 . S
O246 Gd224 2.448 1_554 S
O246 C227 1.249 . S
O247 Gd224 2.506 1_554 S
O247 C227 1.252 . S
O248 Gd224 2.435 . S
O248 C234 1.269 . S
O249 Gd224 2.717 1_455 S
O249 Gd225 2.327 . S
O249 C234 1.250 1_455 S
O250 Gd225 2.377 . S
O250 C235 1.240 . S
O251 Gd224 2.395 1_455 S
O251 C235 1.240 . S
O252 Gd225 2.448 . S
O252 C236 1.249 . S
O253 Gd225 2.506 . S
O253 C236 1.252 . S
O254 Gd225 2.435 . S
O254 C243 1.256 . S
O255 Gd224 2.327 . S
O255 Gd225 2.717 1_655 S
O255 C243 1.257 1_655 S
H256 C229 0.930 . S
H257 C230 0.931 . S
H258 C232 0.931 . S
H259 C233 0.931 . S
H260 C238 0.930 . S
H261 C239 0.931 . S
H262 C241 0.931 . S
H263 C242 0.931 . S
C264 C265 1.369 1_565 S
C264 C266 1.419 . S
C264 H268 0.930 . S
C265 C264 1.369 1_545 S
C265 C274 1.429 . S
C266 C264 1.419 . S
C266 C267 1.363 1_565 S
C266 H269 0.929 . S
C267 C266 1.363 1_545 S
C267 C273 1.428 . S
H268 C264 0.930 . S
H269 C266 0.929 . S
S270 N271 1.613 . S
S270 N272 1.610 . S
N271 S270 1.613 . S
N271 C274 1.350 . S
N272 S270 1.610 . S
N272 C273 1.351 . S
C273 C267 1.428 . S
C273 N272 1.351 . S
C273 C274 1.434 . S
C274 C265 1.429 . S
C274 N271 1.350 . S
C274 C273 1.434 . S
C275 C276 1.369 . S
C275 C277 1.419 . S
C275 H279 0.930 . S
C276 C275 1.369 . S
C276 C285 1.429 . S
C277 C275 1.419 . S
C277 C278 1.363 . S
C277 H280 0.929 . S
C278 C277 1.363 . S
C278 C284 1.428 . S
H279 C275 0.930 . S
H280 C277 0.929 . S
S281 N282 1.613 . S
S281 N283 1.610 . S
N282 S281 1.613 . S
N282 C285 1.350 . S
N283 S281 1.610 . S
N283 C284 1.351 . S
C284 C278 1.428 . S
C284 N283 1.351 . S
C284 C285 1.434 . S
C285 C276 1.429 . S
C285 N282 1.350 . S
C285 C284 1.434 . S
C286 C287 1.369 . S
C286 C288 1.419 . S
C286 H290 0.930 . S
C287 C286 1.369 . S
C287 C296 1.429 . S
C288 C286 1.419 . S
C288 C289 1.363 . S
C288 H291 0.929 . S
C289 C288 1.363 . S
C289 C295 1.428 . S
H290 C286 0.930 . S
H291 C288 0.929 . S
S292 N293 1.613 . S
S292 N294 1.610 . S
N293 S292 1.613 . S
N293 C296 1.350 . S
N294 S292 1.610 . S
N294 C295 1.351 . S
C295 C289 1.428 . S
C295 N294 1.351 . S
C295 C296 1.434 . S
C296 C287 1.429 . S
C296 N293 1.350 . S
C296 C295 1.434 . S
C297 C298 1.362 1_655 S
C297 C299 1.419 . S
C297 H301 0.930 . S
C298 C297 1.362 1_455 S
C298 C307 1.437 . S
C299 C297 1.419 . S
C299 C300 1.363 1_655 S
C299 H302 0.929 . S
C300 C299 1.363 1_455 S
C300 C306 1.428 . S
H301 C297 0.930 . S
H302 C299 0.929 . S
S303 N304 1.613 . S
S303 N305 1.610 . S
N304 S303 1.613 . S
N304 C307 1.350 . S
N305 S303 1.610 . S
N305 C306 1.351 . S
C306 C300 1.428 . S
C306 N305 1.351 . S
C306 C307 1.434 . S
C307 C298 1.437 . S
C307 N304 1.350 . S
C307 C306 1.434 . S
C308 C309 1.372 . S
C308 C310 1.419 . S
C308 H312 0.930 . S
C309 C308 1.372 . S
C309 C318 1.426 1_565 S
C310 C308 1.419 . S
C310 C311 1.363 . S
C310 H313 0.929 . S
C311 C310 1.363 . S
C311 C317 1.428 1_565 S
H312 C308 0.930 . S
H313 C310 0.929 . S
S314 N315 1.613 . S
S314 N316 1.610 . S
N315 S314 1.613 . S
N315 C318 1.350 . S
N316 S314 1.610 . S
N316 C317 1.351 . S
C317 C311 1.428 1_545 S
C317 N316 1.351 . S
C317 C318 1.434 . S
C318 C309 1.426 1_545 S
C318 N315 1.350 . S
C318 C317 1.434 . S
C319 C320 1.369 . S
C319 C321 1.419 . S
C319 H323 0.930 . S
C320 C319 1.369 . S
C320 C329 1.429 . S
C321 C319 1.419 . S
C321 C322 1.363 . S
C321 H324 0.929 . S
C322 C321 1.363 . S
C322 C328 1.428 . S
H323 C319 0.930 . S
H324 C321 0.929 . S
S325 N326 1.613 . S
S325 N327 1.610 . S
N326 S325 1.613 . S
N326 C329 1.350 . S
N327 S325 1.610 . S
N327 C328 1.351 . S
C328 C322 1.428 . S
C328 N327 1.351 . S
C328 C329 1.434 . S
C329 C320 1.429 . S
C329 N326 1.350 . S
C329 C328 1.434 . S
C330 C331 1.369 . S
C330 C332 1.419 . S
C330 H334 0.930 . S
C331 C330 1.369 . S
C331 C340 1.429 . S
C332 C330 1.419 . S
C332 C333 1.363 . S
C332 H335 0.929 . S
C333 C332 1.363 . S
C333 C339 1.428 . S
H334 C330 0.930 . S
H335 C332 0.929 . S
S336 N337 1.613 . S
S336 N338 1.610 . S
N337 S336 1.613 . S
N337 C340 1.350 . S
N338 S336 1.610 . S
N338 C339 1.351 . S
C339 C333 1.428 . S
C339 N338 1.351 . S
C339 C340 1.434 . S
C340 C331 1.429 . S
C340 N337 1.350 . S
C340 C339 1.434 . S
C341 C342 1.369 1_455 S
C341 C343 1.419 . S
C341 H345 0.930 . S
C342 C341 1.369 1_655 S
C342 C351 1.429 . S
C343 C341 1.419 . S
C343 C344 1.363 1_455 S
C343 H346 0.929 . S
C344 C343 1.363 1_655 S
C344 C350 1.428 . S
H345 C341 0.930 . S
H346 C343 0.929 . S
S347 N348 1.613 . S
S347 N349 1.610 . S
N348 S347 1.613 . S
N348 C351 1.350 . S
N349 S347 1.610 . S
N349 C350 1.351 . S
C350 C344 1.428 . S
C350 N349 1.351 . S
C350 C351 1.434 . S
C351 C342 1.429 . S
C351 N348 1.350 . S
C351 C350 1.434 . S
C352 C353 1.369 1_455 S
C352 C354 1.419 1_455 S
C352 H356 0.930 . S
C353 C352 1.369 1_655 S
C353 C362 1.429 . S
C354 C352 1.419 1_655 S
C354 C355 1.363 . S
C354 H357 0.929 . S
C355 C354 1.363 . S
C355 C361 1.428 . S
H356 C352 0.930 . S
H357 C354 0.929 . S
S358 N359 1.613 . S
S358 N360 1.610 . S
N359 S358 1.613 . S
N359 C362 1.350 . S
N360 S358 1.610 . S
N360 C361 1.351 . S
C361 C355 1.428 . S
C361 N360 1.351 . S
C361 C362 1.434 . S
C362 C353 1.429 . S
C362 N359 1.350 . S
C362 C361 1.434 . S
C363 C364 1.369 . S
C363 C365 1.419 . S
C363 H367 0.930 . S
C364 C363 1.369 . S
C364 C373 1.429 1_565 S
C365 C363 1.419 . S
C365 C366 1.363 . S
C365 H368 0.929 . S
C366 C365 1.363 . S
C366 C372 1.428 . S
H367 C363 0.930 . S
H368 C365 0.929 . S
S369 N370 1.613 . S
S369 N371 1.610 1_545 S
N370 S369 1.613 . S
N370 C373 1.350 . S
N371 S369 1.610 1_565 S
N371 C372 1.351 . S
C372 C366 1.428 . S
C372 N371 1.351 . S
C372 C373 1.434 1_565 S
C373 C364 1.429 1_545 S
C373 N370 1.350 . S
C373 C372 1.434 1_545 S
C374 C375 1.369 . S
C374 C376 1.419 . S
C374 H378 0.930 1_554 S
C375 C374 1.369 . S
C375 C384 1.429 . S
C376 C374 1.419 . S
C376 C377 1.363 . S
C376 H379 0.929 . S
C377 C376 1.363 . S
C377 C383 1.428 . S
H378 C374 0.930 1_556 S
H379 C376 0.929 . S
S380 N381 1.613 . S
S380 N382 1.610 . S
N381 S380 1.613 . S
N381 C384 1.350 . S
N382 S380 1.610 . S
N382 C383 1.351 . S
C383 C377 1.428 . S
C383 N382 1.351 . S
C383 C384 1.434 . S
C384 C375 1.429 . S
C384 N381 1.350 . S
C384 C383 1.434 . S
C385 C386 1.369 . S
C385 C387 1.419 . S
C385 H389 0.930 . S
C386 C385 1.369 . S
C386 C395 1.429 . S
C387 C385 1.419 . S
C387 C388 1.363 . S
C387 H390 0.929 . S
C388 C387 1.363 . S
C388 C394 1.428 . S
H389 C385 0.930 . S
H390 C387 0.929 . S
S391 N392 1.613 . S
S391 N393 1.610 1_556 S
N392 S391 1.613 . S
N392 C395 1.350 1_556 S
N393 S391 1.610 1_554 S
N393 C394 1.351 . S
C394 C388 1.428 . S
C394 N393 1.351 . S
C394 C395 1.434 . S
C395 C386 1.429 . S
C395 N392 1.350 1_554 S
C395 C394 1.434 . S
C396 C397 1.369 1_655 S
C396 C398 1.419 1_655 S
C396 H400 0.930 . S
C397 C396 1.369 1_455 S
C397 C406 1.429 . S
C398 C396 1.419 1_455 S
C398 C399 1.363 . S
C398 H401 0.929 . S
C399 C398 1.363 . S
C399 C405 1.428 . S
H400 C396 0.930 . S
H401 C398 0.929 . S
S402 N403 1.613 . S
S402 N404 1.610 . S
N403 S402 1.613 . S
N403 C406 1.350 . S
N404 S402 1.610 . S
N404 C405 1.351 . S
C405 C399 1.428 . S
C405 N404 1.351 . S
C405 C406 1.434 . S
C406 C397 1.429 . S
C406 N403 1.350 . S
C406 C405 1.434 . S
C407 C408 1.369 . S
C407 C409 1.419 . S
C407 H411 0.930 . S
C408 C407 1.369 . S
C408 C417 1.429 . S
C409 C407 1.419 . S
C409 C410 1.363 . S
C409 H412 0.929 . S
C410 C409 1.363 . S
C410 C416 1.428 . S
H411 C407 0.930 . S
H412 C409 0.929 . S
S413 N414 1.613 . S
S413 N415 1.610 . S
N414 S413 1.613 . S
N414 C417 1.350 . S
N415 S413 1.610 . S
N415 C416 1.351 . S
C416 C410 1.428 . S
C416 N415 1.351 . S
C416 C417 1.434 . S
C417 C408 1.429 . S
C417 N414 1.350 . S
C417 C416 1.434 . S
C418 C419 1.369 . S
C418 C420 1.419 . S
C418 H422 0.930 . S
C419 C418 1.369 . S
C419 C428 1.429 . S
C420 C418 1.419 . S
C420 C421 1.363 . S
C420 H423 0.929 . S
C421 C420 1.363 . S
C421 C427 1.428 . S
H422 C418 0.930 . S
H423 C420 0.929 . S
S424 N425 1.613 . S
S424 N426 1.610 . S
N425 S424 1.613 . S
N425 C428 1.350 . S
N426 S424 1.610 . S
N426 C427 1.351 . S
C427 C421 1.428 . S
C427 N426 1.351 . S
C427 C428 1.434 . S
C428 C419 1.429 . S
C428 N425 1.350 . S
C428 C427 1.434 . S
C429 C430 1.369 . S
C429 C431 1.419 . S
C429 H433 0.930 . S
C430 C429 1.369 . S
C430 C439 1.429 . S
C431 C429 1.419 . S
C431 C432 1.363 . S
C431 H434 0.929 . S
C432 C431 1.363 . S
C432 C438 1.428 . S
H433 C429 0.930 . S
H434 C431 0.929 . S
S435 N436 1.613 . S
S435 N437 1.610 . S
N436 S435 1.613 . S
N436 C439 1.350 . S
N437 S435 1.610 . S
N437 C438 1.351 . S
C438 C432 1.428 . S
C438 N437 1.351 . S
C438 C439 1.434 . S
C439 C430 1.429 . S
C439 N436 1.350 . S
C439 C438 1.434 . S
C440 C441 1.369 . S
C440 C442 1.419 . S
C440 H444 0.930 . S
C441 C440 1.369 . S
C441 C450 1.429 1_456 S
C442 C440 1.419 . S
C442 C443 1.363 . S
C442 H445 0.929 . S
C443 C442 1.363 . S
C443 C449 1.428 1_556 S
H444 C440 0.930 . S
H445 C442 0.929 . S
S446 N447 1.613 . S
S446 N448 1.610 . S
N447 S446 1.613 . S
N447 C450 1.350 . S
N448 S446 1.610 . S
N448 C449 1.351 1_655 S
C449 C443 1.428 1_554 S
C449 N448 1.351 1_455 S
C449 C450 1.434 1_455 S
C450 C441 1.429 1_654 S
C450 N447 1.350 . S
C450 C449 1.434 1_655 S
C451 C452 1.369 1_564 S
C451 C453 1.419 1_565 S
C451 H455 0.930 . S
C452 C451 1.369 1_546 S
C452 C461 1.429 . S
C453 C451 1.419 1_545 S
C453 C454 1.363 1_554 S
C453 H456 0.926 1_545 S
C454 C453 1.363 1_556 S
C454 C460 1.428 . S
H455 C451 0.930 . S
H456 C453 0.926 1_565 S
S457 N458 1.613 . S
S457 N459 1.610 . S
N458 S457 1.613 . S
N458 C461 1.350 . S
N459 S457 1.610 . S
N459 C460 1.351 . S
C460 C454 1.428 . S
C460 N459 1.351 . S
C460 C461 1.434 . S
C461 C452 1.429 . S
C461 N458 1.350 . S
C461 C460 1.434 . S
C462 C463 1.369 1_554 S
C462 C464 1.419 . S
C462 H466 0.930 . S
C463 C462 1.369 1_556 S
C463 C472 1.429 . S
C464 C462 1.419 . S
C464 C465 1.363 1_554 S
C464 H467 0.929 . S
C465 C464 1.363 1_556 S
C465 C471 1.428 . S
H466 C462 0.930 . S
H467 C464 0.929 . S
S468 N469 1.613 . S
S468 N470 1.610 . S
N469 S468 1.613 . S
N469 C472 1.350 . S
N470 S468 1.610 . S
N470 C471 1.351 . S
C471 C465 1.428 . S
C471 N470 1.351 . S
C471 C472 1.434 . S
C472 C463 1.429 . S
C472 N469 1.350 . S
C472 C471 1.434 . S
C473 C474 1.369 . S
C473 C475 1.419 . S
C473 H477 0.930 . S
C474 C473 1.369 . S
C474 C483 1.429 . S
C475 C473 1.419 . S
C475 C476 1.363 . S
C475 H478 0.929 . S
C476 C475 1.363 . S
C476 C482 1.428 . S
H477 C473 0.930 . S
H478 C475 0.929 . S
S479 N480 1.613 . S
S479 N481 1.610 . S
N480 S479 1.613 . S
N480 C483 1.350 . S
N481 S479 1.610 . S
N481 C482 1.351 . S
C482 C476 1.428 . S
C482 N481 1.351 . S
C482 C483 1.434 . S
C483 C474 1.429 . S
C483 N480 1.350 . S
C483 C482 1.434 . S
C484 C485 1.369 . S
C484 C486 1.419 . S
C484 H488 0.934 . S
C485 C484 1.369 . S
C485 C494 1.429 . S
C486 C484 1.419 . S
C486 C487 1.363 . S
C486 H489 0.929 . S
C487 C486 1.363 . S
C487 C493 1.428 . S
H488 C484 0.934 . S
H489 C486 0.929 . S
S490 N491 1.613 . S
S490 N492 1.610 . S
N491 S490 1.613 . S
N491 C494 1.350 . S
N492 S490 1.610 . S
N492 C493 1.351 . S
C493 C487 1.428 . S
C493 N492 1.351 . S
C493 C494 1.434 . S
C494 C485 1.429 . S
C494 N491 1.350 . S
C494 C493 1.434 . S
C495 C496 1.369 . S
C495 C497 1.419 . S
C495 H499 0.930 . S
C496 C495 1.369 . S
C496 C505 1.429 1_565 S
C497 C495 1.419 . S
C497 C498 1.363 . S
C497 H500 0.929 . S
C498 C497 1.363 . S
C498 C504 1.428 1_565 S
H499 C495 0.930 . S
H500 C497 0.929 . S
S501 N502 1.613 . S
S501 N503 1.610 . S
N502 S501 1.613 . S
N502 C505 1.350 . S
N503 S501 1.610 . S
N503 C504 1.351 . S
C504 C498 1.428 1_545 S
C504 N503 1.351 . S
C504 C505 1.434 . S
C505 C496 1.429 1_545 S
C505 N502 1.350 . S
C505 C504 1.434 . S
C506 C507 1.369 . S
C506 C508 1.419 . S
C506 H510 0.930 . S
C507 C506 1.369 . S
C507 C516 1.429 . S
C508 C506 1.419 . S
C508 C509 1.363 . S
C508 H511 0.929 . S
C509 C508 1.363 . S
C509 C515 1.428 . S
H510 C506 0.930 . S
H511 C508 0.929 . S
S512 N513 1.613 . S
S512 N514 1.610 . S
N513 S512 1.613 . S
N513 C516 1.350 . S
N514 S512 1.610 . S
N514 C515 1.351 . S
C515 C509 1.428 . S
C515 N514 1.351 . S
C515 C516 1.434 . S
C516 C507 1.429 . S
C516 N513 1.350 . S
C516 C515 1.434 . S
C517 C518 1.369 . S
C517 C519 1.419 . S
C517 H521 0.930 . S
C518 C517 1.369 . S
C518 C527 1.429 . S
C519 C517 1.419 . S
C519 C520 1.363 . S
C519 H522 0.929 . S
C520 C519 1.363 . S
C520 C526 1.428 . S
H521 C517 0.930 . S
H522 C519 0.929 . S
S523 N524 1.613 . S
S523 N525 1.610 . S
N524 S523 1.613 . S
N524 C527 1.350 . S
N525 S523 1.610 . S
N525 C526 1.351 . S
C526 C520 1.428 . S
C526 N525 1.351 . S
C526 C527 1.434 . S
C527 C518 1.429 . S
C527 N524 1.350 . S
C527 C526 1.434 . S
C265 N80 2.006 1_545 S
C267 C114 2.171 1_545 S
C278 C154 2.183 . S
C276 N93 2.014 . S
C289 C194 2.190 . S
C287 N54 2.035 . S
C300 C234 2.179 1_455 S
C298 N67 2.011 1_455 S
C311 C123 2.173 1_564 S
C309 N28 2.004 . S
C320 N41 2.021 . S
C322 C163 2.183 1_554 S
C331 N2 2.031 . S
C333 C203 2.191 1_554 S
C342 N15 2.020 . S
C344 C243 2.182 1_654 S
C355 C120 0.821 . S
C353 N70 0.816 . S
C366 C160 0.806 . S
C364 N83 0.834 . S
C377 C200 0.804 . S
C375 N96 0.828 . S
C386 N57 0.825 . S
C388 C240 0.806 . S
C397 N18 0.819 1_455 S
C399 C111 0.824 . S
C410 C151 0.810 . S
C408 N31 0.832 1_545 S
C421 C191 0.817 . S
C419 N44 0.819 . S
C430 N5 0.831 . S
C432 C231 0.810 . S
C441 N66 2.377 1_455 S
C443 C115 2.502 . S
C452 N79 2.358 1_545 S
C454 C155 2.477 . S
C465 C195 2.466 . S
C463 N92 2.350 . S
C476 C235 2.498 . S
C474 N53 2.373 . S
C485 N14 2.365 . S
C487 C106 2.510 . S
C498 C146 2.475 . S
C496 N27 2.342 . S
C509 C186 2.465 . S
C507 N40 2.327 . S
C518 N1 2.353 . S
C520 C226 2.499 . S
