# Generated by pormake.
# Topology ptr, (4,4)-cn, num edge types: 1
# Building blocks:
#     Node 0, Type 0, BuildingBlock: CEKHIL_clean_sbu_0, # of connection points: 4
#     Node 1, Type 0, BuildingBlock: CEKHIL_clean_sbu_0, # of connection points: 4
#     Node 2, Type 0, BuildingBlock: CEKHIL_clean_sbu_0, # of connection points: 4
#     Node 3, Type 0, BuildingBlock: CEKHIL_clean_sbu_0, # of connection points: 4
#     Node 4, Type 0, BuildingBlock: CEKHIL_clean_sbu_0, # of connection points: 4
#     Node 5, Type 0, BuildingBlock: CEKHIL_clean_sbu_0, # of connection points: 4
#     Node 6, Type 0, BuildingBlock: CEKHIL_clean_sbu_0, # of connection points: 4
#     Node 7, Type 0, BuildingBlock: CEKHIL_clean_sbu_0, # of connection points: 4
#     Node 8, Type 0, BuildingBlock: CEKHIL_clean_sbu_0, # of connection points: 4
#     Node 9, Type 0, BuildingBlock: CEKHIL_clean_sbu_0, # of connection points: 4
#     Node 10, Type 0, BuildingBlock: CEKHIL_clean_sbu_0, # of connection points: 4
#     Node 11, Type 0, BuildingBlock: CEKHIL_clean_sbu_0, # of connection points: 4
#     Node 12, Type 0, BuildingBlock: CEKHIL_clean_sbu_0, # of connection points: 4
#     Node 13, Type 0, BuildingBlock: CEKHIL_clean_sbu_0, # of connection points: 4
#     Node 14, Type 0, BuildingBlock: CEKHIL_clean_sbu_0, # of connection points: 4
#     Node 15, Type 0, BuildingBlock: CEKHIL_clean_sbu_0, # of connection points: 4
#     Node 16, Type 0, BuildingBlock: CEKHIL_clean_sbu_0, # of connection points: 4
#     Node 17, Type 0, BuildingBlock: CEKHIL_clean_sbu_0, # of connection points: 4
#     Node 18, Type 1, BuildingBlock: MUDLON_clean_linker_0, # of connection points: 4
#     Node 19, Type 1, BuildingBlock: MUDLON_clean_linker_0, # of connection points: 4
#     Node 20, Type 1, BuildingBlock: MUDLON_clean_linker_0, # of connection points: 4
#     Node 21, Type 1, BuildingBlock: MUDLON_clean_linker_0, # of connection points: 4
#     Node 22, Type 1, BuildingBlock: MUDLON_clean_linker_0, # of connection points: 4
#     Node 23, Type 1, BuildingBlock: MUDLON_clean_linker_0, # of connection points: 4
#     Node 24, Type 1, BuildingBlock: MUDLON_clean_linker_0, # of connection points: 4
#     Node 25, Type 1, BuildingBlock: MUDLON_clean_linker_0, # of connection points: 4
#     Node 26, Type 1, BuildingBlock: MUDLON_clean_linker_0, # of connection points: 4
#     Node 27, Type 1, BuildingBlock: MUDLON_clean_linker_0, # of connection points: 4
#     Node 28, Type 1, BuildingBlock: MUDLON_clean_linker_0, # of connection points: 4
#     Node 29, Type 1, BuildingBlock: MUDLON_clean_linker_0, # of connection points: 4
#     Node 30, Type 1, BuildingBlock: MUDLON_clean_linker_0, # of connection points: 4
#     Node 31, Type 1, BuildingBlock: MUDLON_clean_linker_0, # of connection points: 4
#     Node 32, Type 1, BuildingBlock: MUDLON_clean_linker_0, # of connection points: 4
#     Node 33, Type 1, BuildingBlock: MUDLON_clean_linker_0, # of connection points: 4
#     Node 34, Type 1, BuildingBlock: MUDLON_clean_linker_0, # of connection points: 4
#     Node 35, Type 1, BuildingBlock: MUDLON_clean_linker_0, # of connection points: 4
#     Edge 36, Type (0, 1), BuildingBlock: UVAHIK_clean_linker_0, # of connection points: 2
#     Edge 37, Type (0, 1), BuildingBlock: UVAHIK_clean_linker_0, # of connection points: 2
#     Edge 38, Type (0, 1), BuildingBlock: UVAHIK_clean_linker_0, # of connection points: 2
#     Edge 39, Type (0, 1), BuildingBlock: UVAHIK_clean_linker_0, # of connection points: 2
#     Edge 40, Type (0, 1), BuildingBlock: UVAHIK_clean_linker_0, # of connection points: 2
#     Edge 41, Type (0, 1), BuildingBlock: UVAHIK_clean_linker_0, # of connection points: 2
#     Edge 42, Type (0, 1), BuildingBlock: UVAHIK_clean_linker_0, # of connection points: 2
#     Edge 43, Type (0, 1), BuildingBlock: UVAHIK_clean_linker_0, # of connection points: 2
#     Edge 44, Type (0, 1), BuildingBlock: UVAHIK_clean_linker_0, # of connection points: 2
#     Edge 45, Type (0, 1), BuildingBlock: UVAHIK_clean_linker_0, # of connection points: 2
#     Edge 46, Type (0, 1), BuildingBlock: UVAHIK_clean_linker_0, # of connection points: 2
#     Edge 47, Type (0, 1), BuildingBlock: UVAHIK_clean_linker_0, # of connection points: 2
#     Edge 48, Type (0, 1), BuildingBlock: UVAHIK_clean_linker_0, # of connection points: 2
#     Edge 49, Type (0, 1), BuildingBlock: UVAHIK_clean_linker_0, # of connection points: 2
#     Edge 50, Type (0, 1), BuildingBlock: UVAHIK_clean_linker_0, # of connection points: 2
#     Edge 51, Type (0, 1), BuildingBlock: UVAHIK_clean_linker_0, # of connection points: 2
#     Edge 52, Type (0, 1), BuildingBlock: UVAHIK_clean_linker_0, # of connection points: 2
#     Edge 53, Type (0, 1), BuildingBlock: UVAHIK_clean_linker_0, # of connection points: 2
#     Edge 54, Type (0, 1), BuildingBlock: UVAHIK_clean_linker_0, # of connection points: 2
#     Edge 55, Type (0, 1), BuildingBlock: UVAHIK_clean_linker_0, # of connection points: 2
#     Edge 56, Type (0, 1), BuildingBlock: UVAHIK_clean_linker_0, # of connection points: 2
#     Edge 57, Type (0, 1), BuildingBlock: UVAHIK_clean_linker_0, # of connection points: 2
#     Edge 58, Type (0, 1), BuildingBlock: UVAHIK_clean_linker_0, # of connection points: 2
#     Edge 59, Type (0, 1), BuildingBlock: UVAHIK_clean_linker_0, # of connection points: 2
#     Edge 60, Type (0, 1), BuildingBlock: UVAHIK_clean_linker_0, # of connection points: 2
#     Edge 61, Type (0, 1), BuildingBlock: UVAHIK_clean_linker_0, # of connection points: 2
#     Edge 62, Type (0, 1), BuildingBlock: UVAHIK_clean_linker_0, # of connection points: 2
#     Edge 63, Type (0, 1), BuildingBlock: UVAHIK_clean_linker_0, # of connection points: 2
#     Edge 64, Type (0, 1), BuildingBlock: UVAHIK_clean_linker_0, # of connection points: 2
#     Edge 65, Type (0, 1), BuildingBlock: UVAHIK_clean_linker_0, # of connection points: 2
#     Edge 66, Type (0, 1), BuildingBlock: UVAHIK_clean_linker_0, # of connection points: 2
#     Edge 67, Type (0, 1), BuildingBlock: UVAHIK_clean_linker_0, # of connection points: 2
#     Edge 68, Type (0, 1), BuildingBlock: UVAHIK_clean_linker_0, # of connection points: 2
#     Edge 69, Type (0, 1), BuildingBlock: UVAHIK_clean_linker_0, # of connection points: 2
#     Edge 70, Type (0, 1), BuildingBlock: UVAHIK_clean_linker_0, # of connection points: 2
#     Edge 71, Type (0, 1), BuildingBlock: UVAHIK_clean_linker_0, # of connection points: 2
#     Edge 72, Type (0, 1), BuildingBlock: UVAHIK_clean_linker_0, # of connection points: 2
#     Edge 73, Type (0, 1), BuildingBlock: UVAHIK_clean_linker_0, # of connection points: 2
#     Edge 74, Type (0, 1), BuildingBlock: UVAHIK_clean_linker_0, # of connection points: 2
#     Edge 75, Type (0, 1), BuildingBlock: UVAHIK_clean_linker_0, # of connection points: 2
#     Edge 76, Type (0, 1), BuildingBlock: UVAHIK_clean_linker_0, # of connection points: 2
#     Edge 77, Type (0, 1), BuildingBlock: UVAHIK_clean_linker_0, # of connection points: 2
#     Edge 78, Type (0, 1), BuildingBlock: UVAHIK_clean_linker_0, # of connection points: 2
#     Edge 79, Type (0, 1), BuildingBlock: UVAHIK_clean_linker_0, # of connection points: 2
#     Edge 80, Type (0, 1), BuildingBlock: UVAHIK_clean_linker_0, # of connection points: 2
#     Edge 81, Type (0, 1), BuildingBlock: UVAHIK_clean_linker_0, # of connection points: 2
#     Edge 82, Type (0, 1), BuildingBlock: UVAHIK_clean_linker_0, # of connection points: 2
#     Edge 83, Type (0, 1), BuildingBlock: UVAHIK_clean_linker_0, # of connection points: 2
#     Edge 84, Type (0, 1), BuildingBlock: UVAHIK_clean_linker_0, # of connection points: 2
#     Edge 85, Type (0, 1), BuildingBlock: UVAHIK_clean_linker_0, # of connection points: 2
#     Edge 86, Type (0, 1), BuildingBlock: UVAHIK_clean_linker_0, # of connection points: 2
#     Edge 87, Type (0, 1), BuildingBlock: UVAHIK_clean_linker_0, # of connection points: 2
#     Edge 88, Type (0, 1), BuildingBlock: UVAHIK_clean_linker_0, # of connection points: 2
#     Edge 89, Type (0, 1), BuildingBlock: UVAHIK_clean_linker_0, # of connection points: 2
#     Edge 90, Type (0, 1), BuildingBlock: UVAHIK_clean_linker_0, # of connection points: 2
#     Edge 91, Type (0, 1), BuildingBlock: UVAHIK_clean_linker_0, # of connection points: 2
#     Edge 92, Type (0, 1), BuildingBlock: UVAHIK_clean_linker_0, # of connection points: 2
#     Edge 93, Type (0, 1), BuildingBlock: UVAHIK_clean_linker_0, # of connection points: 2
#     Edge 94, Type (0, 1), BuildingBlock: UVAHIK_clean_linker_0, # of connection points: 2
#     Edge 95, Type (0, 1), BuildingBlock: UVAHIK_clean_linker_0, # of connection points: 2
#     Edge 96, Type (0, 1), BuildingBlock: UVAHIK_clean_linker_0, # of connection points: 2
#     Edge 97, Type (0, 1), BuildingBlock: UVAHIK_clean_linker_0, # of connection points: 2
#     Edge 98, Type (0, 1), BuildingBlock: UVAHIK_clean_linker_0, # of connection points: 2
#     Edge 99, Type (0, 1), BuildingBlock: UVAHIK_clean_linker_0, # of connection points: 2
#     Edge 100, Type (0, 1), BuildingBlock: UVAHIK_clean_linker_0, # of connection points: 2
#     Edge 101, Type (0, 1), BuildingBlock: UVAHIK_clean_linker_0, # of connection points: 2
#     Edge 102, Type (0, 1), BuildingBlock: UVAHIK_clean_linker_0, # of connection points: 2
#     Edge 103, Type (0, 1), BuildingBlock: UVAHIK_clean_linker_0, # of connection points: 2
#     Edge 104, Type (0, 1), BuildingBlock: UVAHIK_clean_linker_0, # of connection points: 2
#     Edge 105, Type (0, 1), BuildingBlock: UVAHIK_clean_linker_0, # of connection points: 2
#     Edge 106, Type (0, 1), BuildingBlock: UVAHIK_clean_linker_0, # of connection points: 2
#     Edge 107, Type (0, 1), BuildingBlock: UVAHIK_clean_linker_0, # of connection points: 2
# Relax obj value: 0.034
# Max RMSD: 0.096
# Mean RMSD: 0.063
data_MOF--net-ptr--node1-CEKHIL_clean_sbu_0--node2-MUDLON_clean_linker_0--edge1-UVAHIK_clean_linker_0
_symmetry_space_group_name_H-M    P1
_symmetry_Int_Tables_number       1
_symmetry_cell_setting            triclinic
loop_
_symmetry_equiv_pos_as_xyz
'x, y, z'
_cell_length_a     127.9863
_cell_length_b     126.81761
_cell_length_c     78.335443
_cell_angle_alpha  90.792494
_cell_angle_beta   89.59925
_cell_angle_gamma 120.83615
loop_
_atom_site_label
_atom_site_type_symbol
_atom_site_fract_x
_atom_site_fract_y
_atom_site_fract_z
_atom_type_partial_charge
Co0 Co 0.00085 0.35462 0.0153 0.0
O1 O 0.00617 0.34724 0.03171 0.0
O2 O 0.01844 0.3637 0.01663 0.0
C3 C 0.98739 0.33686 0.00211 0.0
O4 O 0.99883 0.36459 0.99683 0.0
Co5 Co 0.97415 0.34858 0.01426 0.0
O6 O 0.97892 0.35691 0.99186 0.0
C7 C 0.99075 0.36531 0.04105 0.0
C8 C 0.0172 0.35563 0.02779 0.0
C9 C 0.99008 0.36406 0.9881 0.0
O10 O 0.99976 0.36529 0.0337 0.0
O11 O 0.9797 0.35853 0.03606 0.0
O12 O 0.99887 0.34242 0.99819 0.0
O13 O 0.98457 0.34167 0.01464 0.0
Co14 Co 0.6491 0.64796 0.01155 0.0
O15 O 0.66023 0.65526 0.99281 0.0
O16 O 0.65767 0.63929 0.00743 0.0
C17 C 0.6544 0.6659 0.02487 0.0
O18 O 0.63903 0.63817 0.03203 0.0
Co19 Co 0.62834 0.6532 0.01884 0.0
O20 O 0.62695 0.64518 0.04092 0.0
C21 C 0.62552 0.63574 0.99121 0.0
C22 C 0.66341 0.64721 0.99542 0.0
C23 C 0.63152 0.63841 0.04284 0.0
O24 O 0.6357 0.6367 0.9953 0.0
O25 O 0.62142 0.64202 0.9984 0.0
O26 O 0.66084 0.66075 0.0269 0.0
O27 O 0.64553 0.66053 0.01411 0.0
Co28 Co 0.35481 0.00118 0.01148 0.0
O29 O 0.34821 0.00702 0.99463 0.0
O30 O 0.3641 0.01895 0.01103 0.0
C31 C 0.33673 0.98758 0.02319 0.0
O32 O 0.36392 0.99851 0.03069 0.0
Co33 Co 0.34802 0.97386 0.01154 0.0
O34 O 0.35651 0.97829 0.03382 0.0
C35 C 0.36543 0.99088 0.98599 0.0
C36 C 0.35654 0.01804 -0.00074 0.0
C37 C 0.36341 0.98942 0.03862 0.0
O38 O 0.36574 9e-05 0.99364 0.0
O39 O 0.35825 0.97972 0.9904 0.0
O40 O 0.34218 0.9991 0.02767 0.0
O41 O 0.34183 0.98489 0.01101 0.0
Co42 Co 0.99828 0.648 0.0103 0.0
O43 O 0.99126 0.65361 0.99374 0.0
O44 O 0.98074 0.63768 0.01068 0.0
C45 C 0.01121 0.6667 0.02164 0.0
O46 O 0.00224 0.63971 0.02921 0.0
Co47 Co 0.02574 0.65653 0.00933 0.0
O48 O 0.02247 0.64801 0.03148 0.0
C49 C 0.00889 0.63816 0.98419 0.0
C50 C 0.98075 0.64479 -0.00114 0.0
C51 C 0.01166 0.64073 0.03667 0.0
O52 O 0.99969 0.63719 0.99241 0.0
O53 O 0.01993 0.6461 0.98805 0.0
O54 O 0.99994 0.66056 0.02659 0.0
O55 O 0.01402 0.66183 0.00921 0.0
Co56 Co 0.35278 0.35534 0.01174 0.0
O57 O 0.34014 0.34755 0.02857 0.0
O58 O 0.34479 0.36466 0.01508 0.0
C59 C 0.3477 0.33802 0.99682 0.0
O60 O 0.36477 0.36589 0.99326 0.0
Co61 Co 0.37292 0.34874 0.00769 0.0
O62 O 0.37828 0.35991 0.98796 0.0
C63 C 0.37368 0.36415 0.03687 0.0
C64 C 0.33787 0.35628 0.02597 0.0
C65 C 0.37386 0.3667 0.98494 0.0
O66 O 0.365 0.36508 0.03029 0.0
O67 O 0.37731 0.35721 0.03055 0.0
O68 O 0.34195 0.34383 0.99429 0.0
O69 O 0.35559 0.34227 0.00903 0.0
Co70 Co 0.64433 0.99838 0.01315 0.0
O71 O 0.65192 0.99332 0.02954 0.0
O72 O 0.63563 0.98062 0.01434 0.0
C73 C 0.66187 0.01216 0.00035 0.0
O74 O 0.63426 0.00014 0.99461 0.0
Co75 Co 0.64991 0.02519 0.01205 0.0
O76 O 0.64206 0.02018 0.98923 0.0
C77 C 0.63366 0.00848 0.03883 0.0
C78 C 0.64377 0.9821 0.0255 0.0
C79 C 0.63493 0.00886 0.98558 0.0
O80 O 0.63373 0.99937 0.0315 0.0
O81 O 0.64022 0.01959 0.03381 0.0
O82 O 0.6565 0.0006 0.99613 0.0
O83 O 0.65695 0.01487 0.01278 0.0
Co84 Co 0.66762 0.68981 0.34753 0.0
O85 O 0.67199 0.68161 0.36394 0.0
O86 O 0.68515 0.69822 0.34982 0.0
C87 C 0.65402 0.67261 0.33336 0.0
O88 O 0.6666 0.70049 0.3292 0.0
Co89 Co 0.64132 0.68491 0.34556 0.0
O90 O 0.647 0.6942 0.32397 0.0
C91 C 0.65756 0.7004 0.37346 0.0
C92 C 0.68324 0.68977 0.36074 0.0
C93 C 0.65829 0.70086 0.32051 0.0
O94 O 0.66658 0.70035 0.36618 0.0
O95 O 0.64659 0.69399 0.36803 0.0
O96 O 0.66557 0.67778 0.33007 0.0
O97 O 0.65118 0.67739 0.34592 0.0
Co98 Co 0.31343 0.98028 0.34868 0.0
O99 O 0.32623 0.98871 0.3322 0.0
O100 O 0.32201 0.97156 0.34524 0.0
C101 C 0.31765 0.99732 0.3637 0.0
O102 O 0.30157 0.96923 0.36685 0.0
Co103 Co 0.29232 0.98533 0.35325 0.0
O104 O 0.28918 0.97609 0.37481 0.0
C105 C 0.29224 0.97036 0.32387 0.0
C106 C 0.32889 0.98025 0.3347 0.0
C107 C 0.29342 0.96903 0.37676 0.0
O108 O 0.3015 0.97031 0.33006 0.0
O109 O 0.28785 0.97657 0.33049 0.0
O110 O 0.32379 0.9919 0.36636 0.0
O111 O 0.3098 0.99277 0.35145 0.0
Co112 Co 0.02408 0.33573 0.34512 0.0
O113 O 0.01753 0.3415 0.32802 0.0
O114 O 0.03347 0.35348 0.34432 0.0
C115 C 0.00599 0.32225 0.35695 0.0
O116 O 0.03321 0.33329 0.36447 0.0
Co117 Co 0.01732 0.30843 0.34597 0.0
O118 O 0.02652 0.31322 0.36772 0.0
C119 C 0.03404 0.32497 0.31952 0.0
C120 C 0.02596 0.35253 0.33246 0.0
C121 C 0.03317 0.32442 0.37236 0.0
O122 O 0.03495 0.33437 0.32747 0.0
O123 O 0.02659 0.31388 0.32397 0.0
O124 O 0.01143 0.33381 0.3612 0.0
O125 O 0.01112 0.31946 0.34494 0.0
Co126 Co 0.66705 0.97902 0.34552 0.0
O127 O 0.66227 0.98611 0.32782 0.0
O128 O 0.64969 0.96929 0.34204 0.0
C129 C 0.67911 0.99688 0.35958 0.0
O130 O 0.6682 0.96912 0.36494 0.0
Co131 Co 0.69382 0.98608 0.35116 0.0
O132 O 0.68764 0.976 0.37197 0.0
C133 C 0.67974 0.96959 0.32239 0.0
C134 C 0.65118 0.9773 0.33064 0.0
C135 C 0.67627 0.96893 0.37442 0.0
O136 O 0.66994 0.96897 0.32796 0.0
O137 O 0.69021 0.97661 0.32911 0.0
O138 O 0.66741 0.99091 0.36199 0.0
O139 O 0.68302 0.99237 0.34805 0.0
Co140 Co 0.02012 0.6897 0.34746 0.0
O141 O 0.00833 0.68253 0.36553 0.0
O142 O 0.01179 0.69869 0.3505 0.0
C143 C 0.01495 0.6718 0.33404 0.0
O144 O 0.03108 0.69948 0.32761 0.0
Co145 Co 0.04064 0.68369 0.34233 0.0
O146 O 0.04398 0.693 0.32092 0.0
C147 C 0.04239 0.70044 0.37038 0.0
C148 C 0.00555 0.69082 0.36233 0.0
C149 C 0.03943 0.69969 0.3181 0.0
O150 O 0.03307 0.7006 0.3646 0.0
O151 O 0.04609 0.69355 0.36407 0.0
O152 O 0.00872 0.67712 0.33146 0.0
O153 O 0.02338 0.6769 0.34546 0.0
Co154 Co 0.31197 0.33464 0.34551 0.0
O155 O 0.31916 0.33019 0.36336 0.0
O156 O 0.30307 0.31698 0.34821 0.0
C157 C 0.32977 0.3477 0.33261 0.0
O158 O 0.30225 0.33562 0.32565 0.0
Co159 Co 0.31806 0.36153 0.34113 0.0
O160 O 0.30902 0.35534 0.3194 0.0
C161 C 0.30095 0.3461 0.36821 0.0
C162 C 0.31099 0.31885 0.35997 0.0
C163 C 0.30225 0.34389 0.31627 0.0
O164 O 0.3012 0.33661 0.3627 0.0
O165 O 0.3076 0.35686 0.36205 0.0
O166 O 0.32438 0.33597 0.32954 0.0
O167 O 0.32472 0.35103 0.34408 0.0
Co168 Co 0.33384 0.02364 0.68017 0.0
O169 O 0.33896 0.01552 0.69567 0.0
O170 O 0.35143 0.03234 0.68138 0.0
C171 C 0.31995 0.00638 0.6664 0.0
O172 O 0.33216 0.03432 0.66255 0.0
Co173 Co 0.3074 0.01842 0.67961 0.0
O174 O 0.31246 0.02792 0.65813 0.0
C175 C 0.32406 0.03361 0.70739 0.0
C176 C 0.35005 0.02389 0.69193 0.0
C177 C 0.32368 0.03469 0.65434 0.0
O178 O 0.33308 0.03393 0.69949 0.0
O179 O 0.31302 0.02708 0.70229 0.0
O180 O 0.33137 0.01174 0.66218 0.0
O181 O 0.31745 0.01108 0.67938 0.0
Co182 Co 0.9807 0.31337 0.67693 0.0
O183 O 0.99242 0.32089 0.65883 0.0
O184 O 0.98986 0.30523 0.67429 0.0
C185 C 0.9848 0.33106 0.68983 0.0
O186 O 0.97015 0.30341 0.69695 0.0
Co187 Co 0.95897 0.31745 0.68203 0.0
O188 O 0.95754 0.31005 0.70468 0.0
C189 C 0.95801 0.30057 0.65474 0.0
C190 C 0.99583 0.31311 0.66236 0.0
C191 C 0.96236 0.30357 0.70726 0.0
O192 O 0.96807 0.30176 0.66002 0.0
O193 O 0.95333 0.30656 0.66117 0.0
O194 O 0.99164 0.32646 0.69264 0.0
O195 O 0.97636 0.3254 0.67852 0.0
Co196 Co 0.69243 0.66927 0.67829 0.0
O197 O 0.68427 0.67295 0.66085 0.0
O198 O 0.70047 0.68681 0.67527 0.0
C199 C 0.67526 0.65569 0.69196 0.0
O200 O 0.70297 0.66929 0.69777 0.0
Co201 Co 0.68847 0.6433 0.68316 0.0
O202 O 0.6966 0.64993 0.70541 0.0
C203 C 0.70462 0.65901 0.65554 0.0
C204 C 0.69211 0.68444 0.664 0.0
C205 C 0.70312 0.66147 0.70793 0.0
O206 O 0.70329 0.66795 0.66064 0.0
O207 O 0.69906 0.64835 0.66229 0.0
O208 O 0.68012 0.6674 0.69473 0.0
O209 O 0.68041 0.65258 0.68031 0.0
Co210 Co 0.33135 0.31193 0.67678 0.0
O211 O 0.32568 0.31869 0.65993 0.0
O212 O 0.31377 0.30219 0.67522 0.0
C213 C 0.34425 0.33005 0.68967 0.0
O214 O 0.33383 0.30253 0.69567 0.0
Co215 Co 0.35855 0.31937 0.67822 0.0
O216 O 0.35379 0.30985 0.69964 0.0
C217 C 0.34271 0.3032 0.65051 0.0
C218 C 0.31476 0.30996 0.66371 0.0
C219 C 0.34268 0.3028 0.7038 0.0
O220 O 0.3332 0.30155 0.6586 0.0
O221 O 0.35359 0.31092 0.65535 0.0
O222 O 0.33276 0.32419 0.69355 0.0
O223 O 0.34732 0.32526 0.67743 0.0
Co224 Co 0.68857 0.02241 0.6782 0.0
O225 O 0.67597 0.01518 0.69514 0.0
O226 O 0.68037 0.03165 0.6802 0.0
C227 C 0.68379 0.00455 0.66503 0.0
O228 O 0.70047 0.03224 0.65926 0.0
Co229 Co 0.70905 0.01625 0.67617 0.0
O230 O 0.71361 0.02572 0.6547 0.0
C231 C 0.70956 0.03277 0.70346 0.0
C232 C 0.67359 0.02371 0.69168 0.0
C233 C 0.70925 0.03243 0.65084 0.0
O234 O 0.70074 0.03311 0.69623 0.0
O235 O 0.71344 0.02576 0.69829 0.0
O236 O 0.67792 0.01009 0.66139 0.0
O237 O 0.69163 0.00945 0.67724 0.0
Co238 Co 0.97416 0.66719 0.67784 0.0
O239 O 0.98081 0.66239 0.69615 0.0
O240 O 0.9654 0.64955 0.67962 0.0
C241 C 0.9923 0.68083 0.66626 0.0
O242 O 0.965 0.66821 0.65733 0.0
Co243 Co 0.97943 0.69369 0.67315 0.0
O244 O 0.9718 0.68779 0.65044 0.0
C245 C 0.96146 0.67761 0.699 0.0
C246 C 0.97282 0.65112 0.69195 0.0
C247 C 0.96526 0.67632 0.64734 0.0
O248 O 0.96263 0.6685 0.69428 0.0
O249 O 0.96768 0.68838 0.69271 0.0
O250 O 0.98726 0.66918 0.66277 0.0
O251 O 0.98666 0.68377 0.67731 0.0
H252 H 0.21373 0.33469 0.15256 0.0
N253 N 0.19625 0.31343 0.13697 0.0
H254 H 0.22476 0.3363 0.17835 0.0
H255 H 0.19135 0.29552 0.15879 0.0
H256 H 0.20208 0.2971 0.18541 0.0
H257 H 0.20487 0.3014 0.11965 0.0
H258 H 0.22214 0.31001 0.09993 0.0
H259 H 0.2076 0.33665 0.12387 0.0
H260 H 0.22494 0.34537 0.10423 0.0
H261 H 0.19283 0.33071 0.15401 0.0
H262 H 0.17712 0.30128 0.1167 0.0
H263 H 0.17515 0.33293 0.1521 0.0
H264 H 0.15968 0.304 0.11379 0.0
H265 H 0.12812 0.3425 0.1501 0.0
H266 H 0.11923 0.34469 0.17658 0.0
H267 H 0.09981 0.30525 0.18258 0.0
H268 H 0.10817 0.30319 0.15546 0.0
H269 H 0.10209 0.30703 0.11603 0.0
H270 H 0.09252 0.31393 0.09566 0.0
H271 H 0.12326 0.35094 0.10004 0.0
H272 H 0.13274 0.34393 0.12038 0.0
H273 H 0.14541 0.34026 0.13731 0.0
H274 H 0.16399 0.33928 0.13629 0.0
H275 H 0.14223 0.29993 0.12839 0.0
N276 N 0.12215 0.32088 0.13394 0.0
H277 H 0.12389 0.30125 0.12829 0.0
C278 C 0.20171 0.31491 0.1536 0.0
C279 C 0.21101 0.32642 0.15964 0.0
C280 C 0.21728 0.32735 0.1746 0.0
C281 C 0.21437 0.31682 0.18403 0.0
C282 C 0.20471 0.30538 0.17835 0.0
C283 C 0.19847 0.30446 0.16326 0.0
C284 C 0.20501 0.31835 0.1233 0.0
C285 C 0.20903 0.31092 0.11598 0.0
C286 C 0.21887 0.31585 0.1047 0.0
C287 C 0.22494 0.32839 0.10064 0.0
C288 C 0.22051 0.33571 0.10728 0.0
C289 C 0.21058 0.33073 0.11845 0.0
C290 C 0.18621 0.31556 0.13574 0.0
C291 C 0.18564 0.32474 0.1453 0.0
C292 C 0.17551 0.32613 0.14401 0.0
C293 C 0.16585 0.31858 0.13288 0.0
C294 C 0.16674 0.30978 0.12285 0.0
C295 C 0.17674 0.30825 0.12438 0.0
C296 C 0.11855 0.32262 0.15066 0.0
C297 C 0.12197 0.33434 0.15713 0.0
C298 C 0.11694 0.33558 0.17241 0.0
C299 C 0.10859 0.32513 0.18163 0.0
C300 C 0.10589 0.31349 0.1756 0.0
C301 C 0.11076 0.31227 0.16022 0.0
C302 C 0.11805 0.32492 0.11978 0.0
C303 C 0.10688 0.31656 0.11222 0.0
C304 C 0.10146 0.32053 0.10057 0.0
C305 C 0.1071 0.33302 0.09633 0.0
C306 C 0.11863 0.3413 0.10323 0.0
C307 C 0.12409 0.33728 0.11481 0.0
C308 C 0.13331 0.32082 0.13253 0.0
C309 C 0.14471 0.3315 0.13491 0.0
C310 C 0.15532 0.33087 0.13459 0.0
C311 C 0.15469 0.31951 0.13224 0.0
C312 C 0.14319 0.30889 0.12983 0.0
C313 C 0.13266 0.30958 0.12988 0.0
H314 H 0.7105 0.80459 0.15885 0.0
N315 N 0.69548 0.80942 0.14229 0.0
H316 H 0.70643 0.79286 0.18501 0.0
H317 H 0.67574 0.80212 0.16323 0.0
H318 H 0.67172 0.79072 0.18974 0.0
H319 H 0.67287 0.78925 0.13669 0.0
H320 H 0.66787 0.7726 0.11644 0.0
H321 H 0.70971 0.8089 0.11784 0.0
H322 H 0.70474 0.79217 0.09733 0.0
H323 H 0.71034 0.83269 0.15098 0.0
H324 H 0.67489 0.80836 0.12935 0.0
H325 H 0.70708 0.84991 0.14822 0.0
H326 H 0.67183 0.82556 0.12558 0.0
H327 H 0.70112 0.90171 0.14801 0.0
H328 H 0.69969 0.91141 0.17442 0.0
H329 H 0.66293 0.88116 0.18173 0.0
H330 H 0.6644 0.87174 0.15513 0.0
H331 H 0.65999 0.87315 0.12588 0.0
H332 H 0.65286 0.88265 0.10564 0.0
H333 H 0.68978 0.90585 0.08784 0.0
H334 H 0.6968 0.89668 0.1087 0.0
H335 H 0.70378 0.88067 0.12716 0.0
H336 H 0.70632 0.86288 0.12807 0.0
H337 H 0.66802 0.83973 0.13965 0.0
N338 N 0.68374 0.88129 0.13325 0.0
H339 H 0.66553 0.85753 0.1375 0.0
C340 C 0.69349 0.80425 0.15911 0.0
C341 C 0.70213 0.80178 0.16575 0.0
C342 C 0.69979 0.7951 0.18074 0.0
C343 C 0.68871 0.79077 0.18947 0.0
C344 C 0.68026 0.79374 0.1832 0.0
C345 C 0.68259 0.80038 0.16812 0.0
C346 C 0.69171 0.80039 0.12873 0.0
C347 C 0.67982 0.79014 0.1279 0.0
C348 C 0.67695 0.78061 0.11626 0.0
C349 C 0.68593 0.78105 0.10534 0.0
C350 C 0.69767 0.79153 0.1057 0.0
C351 C 0.7005 0.80111 0.11728 0.0
C352 C 0.69302 0.81925 0.14021 0.0
C353 C 0.70192 0.8311 0.14545 0.0
C354 C 0.70005 0.84095 0.14369 0.0
C355 C 0.68924 0.83921 0.13642 0.0
C356 C 0.68023 0.82727 0.13134 0.0
C357 C 0.68204 0.81737 0.13335 0.0
C358 C 0.68294 0.88603 0.14966 0.0
C359 C 0.69284 0.89713 0.15548 0.0
C360 C 0.69199 0.90261 0.17059 0.0
C361 C 0.68118 0.89706 0.1802 0.0
C362 C 0.67134 0.88575 0.17452 0.0
C363 C 0.6722 0.88029 0.15937 0.0
C364 C 0.67896 0.88442 0.11893 0.0
C365 C 0.66648 0.88012 0.1174 0.0
C366 C 0.66242 0.88552 0.10574 0.0
C367 C 0.6708 0.89522 0.09539 0.0
C368 C 0.68313 0.89864 0.09594 0.0
C369 C 0.68716 0.89333 0.10768 0.0
C370 C 0.68456 0.87043 0.13253 0.0
C371 C 0.69594 0.8717 0.12968 0.0
C372 C 0.69737 0.86153 0.13042 0.0
C373 C 0.68743 0.84984 0.13431 0.0
C374 C 0.67589 0.84854 0.13658 0.0
C375 C 0.67445 0.85874 0.13555 0.0
H376 H 0.11497 0.78657 0.14938 0.0
N377 N 0.11647 0.80811 0.14016 0.0
H378 H 0.10566 0.77492 0.17502 0.0
H379 H 0.10731 0.81442 0.16632 0.0
H380 H 0.09809 0.80281 0.19249 0.0
H381 H 0.09524 0.80242 0.12661 0.0
H382 H 0.08334 0.78614 0.10566 0.0
H383 H 0.12514 0.79616 0.1198 0.0
H384 H 0.11341 0.78013 0.09902 0.0
H385 H 0.13486 0.80337 0.14594 0.0
H386 H 0.12748 0.83206 0.13439 0.0
H387 H 0.15646 0.81791 0.14483 0.0
H388 H 0.14929 0.84711 0.13482 0.0
H389 H 0.22697 0.87105 0.15454 0.0
H390 H 0.23721 0.88334 0.17994 0.0
H391 H 0.2078 0.89038 0.18751 0.0
H392 H 0.19797 0.87855 0.16163 0.0
H393 H 0.21018 0.89053 0.1346 0.0
H394 H 0.2237 0.90506 0.11359 0.0
H395 H 0.22873 0.87672 0.09063 0.0
H396 H 0.21598 0.86255 0.11288 0.0
H397 H 0.19431 0.84737 0.15816 0.0
H398 H 0.17245 0.83333 0.15905 0.0
H399 H 0.16772 0.85507 0.12116 0.0
N400 N 0.20674 0.86766 0.14012 0.0
H401 H 0.18945 0.86964 0.12159 0.0
C402 C 0.11186 0.80145 0.15589 0.0
C403 C 0.11147 0.79031 0.15874 0.0
C404 C 0.10615 0.78364 0.17352 0.0
C405 C 0.10112 0.78793 0.18585 0.0
C406 C 0.10175 0.79919 0.18315 0.0
C407 C 0.10708 0.80587 0.16831 0.0
C408 C 0.11106 0.80056 0.12506 0.0
C409 C 0.09939 0.79783 0.12025 0.0
C410 C 0.09261 0.78853 0.10828 0.0
C411 C 0.0974 0.78174 0.10091 0.0
C412 C 0.10942 0.78507 0.10474 0.0
C413 C 0.11619 0.79437 0.11666 0.0
C414 C 0.12946 0.81657 0.13989 0.0
C415 C 0.13786 0.81283 0.14321 0.0
C416 C 0.15034 0.82129 0.14285 0.0
C417 C 0.15479 0.83382 0.13983 0.0
C418 C 0.14633 0.83755 0.13683 0.0
C419 C 0.13382 0.82898 0.13671 0.0
C420 C 0.21171 0.8738 0.15626 0.0
C421 C 0.2227 0.87514 0.16185 0.0
C422 C 0.22849 0.88212 0.17642 0.0
C423 C 0.22335 0.88789 0.18582 0.0
C424 C 0.21212 0.88624 0.18046 0.0
C425 C 0.2064 0.87934 0.16577 0.0
C426 C 0.2124 0.87553 0.12564 0.0
C427 C 0.21416 0.88742 0.12503 0.0
C428 C 0.22182 0.89572 0.11276 0.0
C429 C 0.22763 0.89223 0.10052 0.0
C430 C 0.22484 0.87993 0.1002 0.0
C431 C 0.21741 0.87173 0.11275 0.0
C432 C 0.19366 0.85955 0.13981 0.0
C433 C 0.18853 0.84913 0.15013 0.0
C434 C 0.17598 0.84102 0.15045 0.0
C435 C 0.16818 0.84287 0.13998 0.0
C436 C 0.17333 0.85335 0.1296 0.0
C437 C 0.18589 0.86169 0.12967 0.0
H438 H 0.33256 0.21735 0.87491 0.0
N439 N 0.31221 0.19521 0.88193 0.0
H440 H 0.33638 0.22931 0.8492 0.0
H441 H 0.29914 0.18812 0.85326 0.0
H442 H 0.30299 0.20005 0.82715 0.0
H443 H 0.29728 0.2036 0.88738 0.0
H444 H 0.30039 0.22023 0.9065 0.0
H445 H 0.32864 0.20447 0.9091 0.0
H446 H 0.33132 0.22044 0.92883 0.0
H447 H 0.33622 0.20154 0.8814 0.0
H448 H 0.29955 0.17114 0.88724 0.0
H449 H 0.34405 0.18788 0.88486 0.0
H450 H 0.30726 0.15711 0.88969 0.0
H451 H 0.36209 0.13658 0.8729 0.0
H452 H 0.35931 0.12367 0.84792 0.0
H453 H 0.32125 0.11261 0.84628 0.0
H454 H 0.32409 0.12521 0.87173 0.0
H455 H 0.32506 0.11771 0.90101 0.0
H456 H 0.32498 0.10357 0.92182 0.0
H457 H 0.36316 0.12892 0.93176 0.0
H458 H 0.36295 0.14323 0.91141 0.0
H459 H 0.354 0.15926 0.87253 0.0
H460 H 0.34595 0.17291 0.87063 0.0
H461 H 0.31763 0.15032 0.90658 0.0
N462 N 0.34522 0.13868 0.88981 0.0
H463 H 0.32529 0.13634 0.90756 0.0
C464 C 0.31554 0.20176 0.86599 0.0
C465 C 0.3262 0.21334 0.86442 0.0
C466 C 0.32837 0.2202 0.84965 0.0
C467 C 0.31997 0.21566 0.83611 0.0
C468 C 0.30957 0.20388 0.83744 0.0
C469 C 0.3074 0.197 0.85225 0.0
C470 C 0.31279 0.20283 0.8963 0.0
C471 C 0.3046 0.20709 0.89663 0.0
C472 C 0.30639 0.21661 0.90768 0.0
C473 C 0.3163 0.22194 0.91905 0.0
C474 C 0.32385 0.2169 0.91983 0.0
C475 C 0.32222 0.20757 0.9085 0.0
C476 C 0.31723 0.18737 0.88417 0.0
C477 C 0.32981 0.19189 0.88329 0.0
C478 C 0.33429 0.18399 0.88515 0.0
C479 C 0.32632 0.17131 0.88745 0.0
C480 C 0.31372 0.16682 0.88825 0.0
C481 C 0.30927 0.1748 0.88672 0.0
C482 C 0.34337 0.13191 0.87408 0.0
C483 C 0.3532 0.13146 0.86699 0.0
C484 C 0.35158 0.12412 0.85266 0.0
C485 C 0.34005 0.11709 0.84502 0.0
C486 C 0.33022 0.11776 0.85195 0.0
C487 C 0.33184 0.12505 0.86641 0.0
C488 C 0.34405 0.1316 0.90472 0.0
C489 C 0.33328 0.12044 0.90814 0.0
C490 C 0.33331 0.11227 0.91991 0.0
C491 C 0.34412 0.11498 0.92826 0.0
C492 C 0.35463 0.12654 0.92571 0.0
C493 C 0.35455 0.13475 0.91407 0.0
C494 C 0.34038 0.14678 0.89017 0.0
C495 C 0.34607 0.15729 0.88003 0.0
C496 C 0.34148 0.16514 0.87908 0.0
C497 C 0.33115 0.16283 0.88855 0.0
C498 C 0.32549 0.15233 0.89889 0.0
C499 C 0.32997 0.14433 0.89959 0.0
H500 H 0.77546 0.13394 0.87058 0.0
N501 N 0.79403 0.13515 0.88716 0.0
H502 H 0.7659 0.12248 0.84435 0.0
H503 H 0.8027 0.12369 0.86648 0.0
H504 H 0.7936 0.1127 0.83987 0.0
H505 H 0.79198 0.11305 0.89423 0.0
H506 H 0.77712 0.09759 0.91349 0.0
H507 H 0.78081 0.1384 0.91046 0.0
H508 H 0.7658 0.12289 0.92974 0.0
H509 H 0.80558 0.15906 0.8819 0.0
H510 H 0.81168 0.12996 0.89626 0.0
H511 H 0.82754 0.17361 0.88225 0.0
H512 H 0.83361 0.14436 0.8964 0.0
H513 H 0.88112 0.21187 0.87176 0.0
H514 H 0.89166 0.22501 0.84774 0.0
H515 H 0.91007 0.2049 0.8382 0.0
H516 H 0.89896 0.19135 0.86204 0.0
H517 H 0.90442 0.19792 0.89986 0.0
H518 H 0.91651 0.21446 0.92035 0.0
H519 H 0.88868 0.22415 0.92121 0.0
H520 H 0.8765 0.20732 0.90128 0.0
H521 H 0.86608 0.19047 0.86133 0.0
H522 H 0.84455 0.17655 0.86409 0.0
H523 H 0.85026 0.16283 0.91106 0.0
N524 N 0.88422 0.19354 0.88414 0.0
H525 H 0.87221 0.17703 0.90846 0.0
C526 C 0.7898 0.12976 0.87046 0.0
C527 C 0.77955 0.12947 0.86375 0.0
C528 C 0.77413 0.12295 0.84871 0.0
C529 C 0.77894 0.1166 0.83997 0.0
C530 C 0.78952 0.1173 0.8464 0.0
C531 C 0.79485 0.12372 0.86156 0.0
C532 C 0.78755 0.12696 0.90099 0.0
C533 C 0.78667 0.11547 0.9024 0.0
C534 C 0.77812 0.1066 0.91338 0.0
C535 C 0.77023 0.109 0.92295 0.0
C536 C 0.77169 0.12075 0.92235 0.0
C537 C 0.7803 0.12965 0.9115 0.0
C538 C 0.80695 0.14346 0.88902 0.0
C539 C 0.81167 0.15585 0.88527 0.0
C540 C 0.8242 0.1641 0.88537 0.0
C541 C 0.83232 0.16011 0.88922 0.0
C542 C 0.82758 0.14774 0.89352 0.0
C543 C 0.815 0.13946 0.89338 0.0
C544 C 0.88916 0.20049 0.86865 0.0
C545 C 0.8873 0.21015 0.86441 0.0
C546 C 0.89344 0.21777 0.8507 0.0
C547 C 0.90189 0.21617 0.84114 0.0
C548 C 0.90356 0.20634 0.84515 0.0
C549 C 0.89723 0.19859 0.85877 0.0
C550 C 0.88966 0.20145 0.89889 0.0
C551 C 0.90079 0.20339 0.9049 0.0
C552 C 0.90773 0.21293 0.91644 0.0
C553 C 0.90369 0.2208 0.92213 0.0
C554 C 0.89208 0.21826 0.91712 0.0
C555 C 0.88511 0.20866 0.90564 0.0
C556 C 0.87108 0.18535 0.88515 0.0
C557 C 0.86297 0.18484 0.87256 0.0
C558 C 0.85047 0.17673 0.87405 0.0
C559 C 0.84566 0.16873 0.88793 0.0
C560 C 0.85368 0.16892 0.90023 0.0
C561 C 0.86622 0.1771 0.89881 0.0
H562 H 0.80517 0.71003 0.87461 0.0
N563 N 0.80823 0.69272 0.88805 0.0
H564 H 0.79383 0.70842 0.84871 0.0
H565 H 0.80059 0.67451 0.86351 0.0
H566 H 0.78964 0.67299 0.83755 0.0
H567 H 0.79081 0.66842 0.89153 0.0
H568 H 0.7728 0.66034 0.90962 0.0
H569 H 0.80418 0.70464 0.91279 0.0
H570 H 0.78611 0.69659 0.93103 0.0
H571 H 0.83039 0.71101 0.89532 0.0
H572 H 0.81 0.67198 0.88574 0.0
H573 H 0.84892 0.71024 0.89864 0.0
H574 H 0.8285 0.67122 0.88745 0.0
H575 H 0.90777 0.70192 0.88385 0.0
H576 H 0.91596 0.69952 0.85683 0.0
H577 H 0.87948 0.67295 0.83999 0.0
H578 H 0.87152 0.67493 0.86748 0.0
H579 H 0.87688 0.66496 0.89261 0.0
H580 H 0.8838 0.65411 0.91056 0.0
H581 H 0.90361 0.68656 0.94224 0.0
H582 H 0.89684 0.6975 0.92395 0.0
H583 H 0.88212 0.70795 0.88509 0.0
H584 H 0.86344 0.70854 0.88361 0.0
H585 H 0.84345 0.67194 0.90444 0.0
N586 N 0.88486 0.68954 0.89451 0.0
H587 H 0.86196 0.6711 0.90458 0.0
C588 C 0.80379 0.69246 0.87109 0.0
C589 C 0.80206 0.70207 0.86631 0.0
C590 C 0.79559 0.70113 0.8515 0.0
C591 C 0.79069 0.6905 0.84116 0.0
C592 C 0.79309 0.6812 0.84541 0.0
C593 C 0.79951 0.68213 0.86026 0.0
C594 C 0.79889 0.68719 0.90086 0.0
C595 C 0.79011 0.67458 0.90049 0.0
C596 C 0.77977 0.66995 0.91085 0.0
C597 C 0.77799 0.67786 0.92161 0.0
C598 C 0.78717 0.69031 0.92271 0.0
C599 C 0.79752 0.6949 0.91244 0.0
C600 C 0.81885 0.69167 0.8899 0.0
C601 C 0.82997 0.7023 0.89367 0.0
C602 C 0.84057 0.70183 0.8954 0.0
C603 C 0.84036 0.69069 0.89307 0.0
C604 C 0.82911 0.67997 0.88952 0.0
C605 C 0.81845 0.68043 0.8882 0.0
C606 C 0.88908 0.68875 0.87765 0.0
C607 C 0.90157 0.69569 0.87422 0.0
C608 C 0.9062 0.69432 0.85871 0.0
C609 C 0.8984 0.68605 0.84611 0.0
C610 C 0.8858 0.67927 0.84944 0.0
C611 C 0.8812 0.68052 0.8651 0.0
C612 C 0.88651 0.68214 0.90684 0.0
C613 C 0.88251 0.66969 0.90358 0.0
C614 C 0.88647 0.6635 0.91383 0.0
C615 C 0.89432 0.66955 0.92765 0.0
C616 C 0.89751 0.68167 0.9317 0.0
C617 C 0.89367 0.68792 0.9213 0.0
C618 C 0.87359 0.68959 0.89501 0.0
C619 C 0.87369 0.70007 0.88935 0.0
C620 C 0.86297 0.70041 0.88867 0.0
C621 C 0.85183 0.69031 0.894 0.0
C622 C 0.85176 0.67983 0.89993 0.0
C623 C 0.86247 0.6794 0.90023 0.0
H624 H 0.76069 0.63407 0.47777 0.0
N625 N 0.78291 0.64651 0.46466 0.0
H626 H 0.75321 0.63892 0.50392 0.0
H627 H 0.79678 0.66457 0.48804 0.0
H628 H 0.78936 0.66921 0.51451 0.0
H629 H 0.79052 0.6707 0.45961 0.0
H630 H 0.78104 0.67834 0.44033 0.0
H631 H 0.76812 0.63418 0.43886 0.0
H632 H 0.75866 0.64177 0.4193 0.0
H633 H 0.78652 0.62931 0.4769 0.0
H634 H 0.80516 0.66433 0.45181 0.0
H635 H 0.80536 0.62898 0.47767 0.0
H636 H 0.82384 0.66372 0.45144 0.0
H637 H 0.86658 0.62816 0.47728 0.0
H638 H 0.87797 0.62987 0.50316 0.0
H639 H 0.87455 0.66049 0.5203 0.0
H640 H 0.86348 0.65891 0.49441 0.0
H641 H 0.87951 0.66689 0.46972 0.0
H642 H 0.89732 0.67568 0.45147 0.0
H643 H 0.87865 0.64467 0.41672 0.0
H644 H 0.86123 0.63545 0.43606 0.0
H645 H 0.83714 0.62512 0.46278 0.0
H646 H 0.81859 0.62601 0.46101 0.0
H647 H 0.83989 0.6655 0.46771 0.0
N648 N 0.85973 0.64355 0.46692 0.0
H649 H 0.85843 0.66449 0.46818 0.0
C650 C 0.77927 0.64884 0.48107 0.0
C651 C 0.76702 0.64164 0.48586 0.0
C652 C 0.76277 0.64444 0.50067 0.0
C653 C 0.77076 0.6544 0.51107 0.0
C654 C 0.7831 0.66145 0.50662 0.0
C655 C 0.78733 0.65877 0.4916 0.0
C656 C 0.77996 0.65182 0.45069 0.0
C657 C 0.78388 0.66441 0.45046 0.0
C658 C 0.77845 0.66877 0.4394 0.0
C659 C 0.76898 0.66062 0.42848 0.0
C660 C 0.76581 0.64824 0.42776 0.0
C661 C 0.77127 0.6439 0.43879 0.0
C662 C 0.79429 0.64671 0.46419 0.0
C663 C 0.79466 0.63685 0.47134 0.0
C664 C 0.80545 0.63665 0.47161 0.0
C665 C 0.81619 0.64626 0.46443 0.0
C666 C 0.81583 0.65621 0.45728 0.0
C667 C 0.80504 0.6565 0.45731 0.0
C668 C 0.86415 0.64336 0.48377 0.0
C669 C 0.86803 0.63503 0.48685 0.0
C670 C 0.87453 0.63602 0.50165 0.0
C671 C 0.8773 0.64542 0.5137 0.0
C672 C 0.87275 0.65328 0.51112 0.0
C673 C 0.86627 0.6523 0.49631 0.0
C674 C 0.86915 0.65028 0.4545 0.0
C675 C 0.8792 0.66201 0.45813 0.0
C676 C 0.8894 0.66711 0.44748 0.0
C677 C 0.88965 0.66078 0.43271 0.0
C678 C 0.87904 0.64963 0.42828 0.0
C679 C 0.86897 0.6444 0.43917 0.0
C680 C 0.8491 0.64465 0.46588 0.0
C681 C 0.83775 0.63395 0.46379 0.0
C682 C 0.82715 0.6345 0.46294 0.0
C683 C 0.82763 0.64582 0.46448 0.0
C684 C 0.8391 0.65662 0.46632 0.0
C685 C 0.84974 0.65605 0.46683 0.0
H686 H 0.37502 0.13907 0.49278 0.0
N687 N 0.35939 0.14299 0.47621 0.0
H688 H 0.37134 0.12735 0.51888 0.0
H689 H 0.33992 0.13576 0.49792 0.0
H690 H 0.33636 0.12453 0.52426 0.0
H691 H 0.33617 0.12424 0.46987 0.0
H692 H 0.33043 0.10651 0.45126 0.0
H693 H 0.37345 0.14053 0.45347 0.0
H694 H 0.36776 0.12283 0.43459 0.0
H695 H 0.37746 0.16577 0.47188 0.0
H696 H 0.33834 0.14369 0.47289 0.0
H697 H 0.37626 0.18402 0.46673 0.0
H698 H 0.33696 0.16196 0.46932 0.0
H699 H 0.37046 0.23958 0.47856 0.0
H700 H 0.36739 0.2486 0.50443 0.0
H701 H 0.33088 0.21725 0.50881 0.0
H702 H 0.33447 0.20797 0.48353 0.0
H703 H 0.33056 0.20978 0.4548 0.0
H704 H 0.32314 0.21949 0.43565 0.0
H705 H 0.36002 0.24483 0.41967 0.0
H706 H 0.3674 0.23514 0.43917 0.0
H707 H 0.37163 0.2163 0.47737 0.0
H708 H 0.37244 0.19771 0.48042 0.0
H709 H 0.33893 0.17742 0.45172 0.0
N710 N 0.3545 0.21887 0.46295 0.0
H711 H 0.33777 0.19595 0.4499 0.0
C712 C 0.35783 0.13836 0.49332 0.0
C713 C 0.36669 0.13616 0.49985 0.0
C714 C 0.36456 0.12947 0.5148 0.0
C715 C 0.35348 0.12486 0.52362 0.0
C716 C 0.34489 0.12772 0.51761 0.0
C717 C 0.347 0.13432 0.50256 0.0
C718 C 0.35528 0.13372 0.46301 0.0
C719 C 0.34306 0.1242 0.46185 0.0
C720 C 0.33978 0.11404 0.4512 0.0
C721 C 0.34867 0.11321 0.44161 0.0
C722 C 0.36075 0.12312 0.44203 0.0
C723 C 0.36399 0.13327 0.45264 0.0
C724 C 0.35807 0.15343 0.47324 0.0
C725 C 0.36861 0.16492 0.47128 0.0
C726 C 0.36787 0.17536 0.46848 0.0
C727 C 0.3565 0.17461 0.46794 0.0
C728 C 0.34589 0.16297 0.46955 0.0
C729 C 0.34666 0.15247 0.47194 0.0
C730 C 0.35266 0.22327 0.47905 0.0
C731 C 0.36187 0.23463 0.4853 0.0
C732 C 0.36002 0.2398 0.49996 0.0
C733 C 0.34876 0.23381 0.50854 0.0
C734 C 0.33966 0.22214 0.50258 0.0
C735 C 0.34163 0.21687 0.48802 0.0
C736 C 0.3496 0.22179 0.44847 0.0
C737 C 0.33703 0.21713 0.44678 0.0
C738 C 0.33278 0.22271 0.43577 0.0
C739 C 0.34102 0.23307 0.42636 0.0
C740 C 0.35347 0.23698 0.42696 0.0
C741 C 0.3577 0.23138 0.43793 0.0
C742 C 0.35472 0.20762 0.46341 0.0
C743 C 0.36446 0.20782 0.47175 0.0
C744 C 0.36495 0.19716 0.47331 0.0
C745 C 0.35582 0.18596 0.46617 0.0
C746 C 0.34606 0.18578 0.45762 0.0
C747 C 0.34544 0.19647 0.45641 0.0
H748 H 0.78228 0.12011 0.47907 0.0
N749 N 0.78352 0.14188 0.47258 0.0
H750 H 0.77442 0.10796 0.50481 0.0
H751 H 0.77702 0.14828 0.50151 0.0
H752 H 0.76923 0.13619 0.52762 0.0
H753 H 0.75984 0.13212 0.4675 0.0
H754 H 0.74685 0.11546 0.44801 0.0
H755 H 0.79155 0.13407 0.44449 0.0
H756 H 0.77872 0.11797 0.42455 0.0
H757 H 0.80167 0.13637 0.47158 0.0
H758 H 0.79468 0.16615 0.4698 0.0
H759 H 0.82331 0.15076 0.46915 0.0
H760 H 0.81656 0.18089 0.4687 0.0
H761 H 0.89213 0.2006 0.48401 0.0
H762 H 0.90242 0.21157 0.51027 0.0
H763 H 0.87749 0.22496 0.51493 0.0
H764 H 0.86692 0.21339 0.48923 0.0
H765 H 0.87708 0.22347 0.46306 0.0
H766 H 0.89101 0.23836 0.4428 0.0
H767 H 0.89676 0.21052 0.4197 0.0
H768 H 0.88354 0.19594 0.44126 0.0
H769 H 0.8617 0.17894 0.48312 0.0
H770 H 0.83983 0.16491 0.48431 0.0
H771 H 0.83449 0.1897 0.45318 0.0
N772 N 0.8738 0.2006 0.46832 0.0
H773 H 0.85633 0.20412 0.45332 0.0
C774 C 0.78027 0.13517 0.48839 0.0
C775 C 0.77972 0.12383 0.48972 0.0
C776 C 0.7752 0.11687 0.50449 0.0
C777 C 0.77114 0.12107 0.51828 0.0
C778 C 0.77212 0.13261 0.51715 0.0
C779 C 0.77665 0.13958 0.50233 0.0
C780 C 0.7767 0.13425 0.45807 0.0
C781 C 0.76404 0.12922 0.45794 0.0
C782 C 0.75661 0.11969 0.44668 0.0
C783 C 0.76168 0.1151 0.43488 0.0
C784 C 0.77444 0.12093 0.43387 0.0
C785 C 0.78187 0.13031 0.44539 0.0
C786 C 0.79647 0.15017 0.47062 0.0
C787 C 0.80479 0.14604 0.47075 0.0
C788 C 0.81727 0.15437 0.46956 0.0
C789 C 0.82184 0.16711 0.46888 0.0
C790 C 0.81347 0.1712 0.46887 0.0
C791 C 0.80094 0.16279 0.46962 0.0
C792 C 0.87886 0.20624 0.48465 0.0
C793 C 0.88881 0.20575 0.49092 0.0
C794 C 0.89474 0.21215 0.50581 0.0
C795 C 0.89091 0.21932 0.51465 0.0
C796 C 0.88065 0.21946 0.5086 0.0
C797 C 0.87463 0.21292 0.49382 0.0
C798 C 0.87956 0.20864 0.45403 0.0
C799 C 0.88129 0.22052 0.45363 0.0
C800 C 0.8892 0.22905 0.44178 0.0
C801 C 0.89534 0.22581 0.42974 0.0
C802 C 0.8926 0.21354 0.42914 0.0
C803 C 0.88489 0.2051 0.44128 0.0
C804 C 0.86075 0.19252 0.46804 0.0
C805 C 0.85578 0.18134 0.47659 0.0
C806 C 0.84324 0.17325 0.47708 0.0
C807 C 0.83526 0.176 0.46862 0.0
C808 C 0.84026 0.18727 0.46002 0.0
C809 C 0.85285 0.19552 0.45991 0.0
H810 H 0.01084 0.5569 0.20552 0.0
N811 N 0.99065 0.53471 0.21287 0.0
H812 H 0.01391 0.56909 0.18023 0.0
H813 H 0.97716 0.52758 0.18466 0.0
H814 H 0.98028 0.53966 0.15895 0.0
H815 H 0.97417 0.54085 0.21987 0.0
H816 H 0.97608 0.5567 0.23964 0.0
H817 H 0.00807 0.54573 0.23838 0.0
H818 H 0.00963 0.56091 0.25888 0.0
H819 H 0.0146 0.54086 0.21165 0.0
H820 H 0.97792 0.51076 0.21865 0.0
H821 H 0.0223 0.52704 0.21501 0.0
H822 H 0.98545 0.4966 0.22101 0.0
H823 H 0.03736 0.47286 0.20119 0.0
H824 H 0.03292 0.45934 0.17641 0.0
H825 H 0.99574 0.45131 0.17673 0.0
H826 H 1.00021 0.46445 0.202 0.0
H827 H 0.00138 0.45627 0.23083 0.0
H828 H 0.00082 0.44179 0.25145 0.0
H829 H 0.03946 0.46549 0.25998 0.0
H830 H 0.03978 0.4802 0.23983 0.0
H831 H 0.03112 0.49742 0.20203 0.0
H832 H 0.02374 0.51167 0.20082 0.0
H833 H 0.99587 0.48984 0.23775 0.0
N834 N 0.02191 0.47668 0.21911 0.0
H835 H 0.00285 0.47532 0.23812 0.0
C836 C 0.99372 0.54128 0.19698 0.0
C837 C 0.00426 0.55293 0.19527 0.0
C838 C 0.00601 0.55992 0.18074 0.0
C839 C 0.99729 0.55541 0.16759 0.0
C840 C 0.98707 0.5435 0.16897 0.0
C841 C 0.98532 0.53653 0.18354 0.0
C842 C 0.99094 0.54206 0.22737 0.0
C843 C 0.98181 0.54504 0.22861 0.0
C844 C 0.98292 0.55411 0.24002 0.0
C845 C 0.99313 0.5603 0.25079 0.0
C846 C 0.00182 0.55664 0.25046 0.0
C847 C 0.00084 0.54775 0.23876 0.0
C848 C 0.99562 0.52685 0.21504 0.0
C849 C 0.00817 0.53125 0.21385 0.0
C850 C 0.01256 0.52326 0.21563 0.0
C851 C 0.00453 0.51062 0.21822 0.0
C852 C 0.99197 0.50627 0.21936 0.0
C853 C 0.98761 0.51432 0.21788 0.0
C854 C 0.01919 0.46974 0.20335 0.0
C855 C 0.02831 0.46829 0.19573 0.0
C856 C 0.02574 0.46059 0.18152 0.0
C857 C 0.01395 0.4542 0.1745 0.0
C858 C 0.00487 0.45593 0.18191 0.0
C859 C 0.00743 0.46355 0.19627 0.0
C860 C 0.02066 0.46942 0.23387 0.0
C861 C 0.00964 0.45859 0.2376 0.0
C862 C 0.00937 0.45021 0.24925 0.0
C863 C 0.02013 0.45234 0.25717 0.0
C864 C 0.03097 0.46356 0.25426 0.0
C865 C 0.03119 0.472 0.24274 0.0
C866 C 0.01765 0.48526 0.22009 0.0
C867 C 0.02345 0.49575 0.20991 0.0
C868 C 0.01924 0.50395 0.20935 0.0
C869 C 0.00918 0.50198 0.21922 0.0
C870 C 0.0035 0.49158 0.22972 0.0
C871 C 0.0076 0.48325 0.23005 0.0
H872 H 0.57306 0.5316 0.20245 0.0
N873 N 0.55284 0.52813 0.21717 0.0
H874 H 0.58303 0.54379 0.17712 0.0
H875 H 0.54266 0.53673 0.19462 0.0
H876 H 0.55233 0.54857 0.16916 0.0
H877 H 0.54686 0.54568 0.22344 0.0
H878 H 0.55758 0.56323 0.24286 0.0
H879 H 0.56856 0.53097 0.2412 0.0
H880 H 0.57929 0.54848 0.26088 0.0
H881 H 0.54858 0.50564 0.22133 0.0
H882 H 0.5304 0.52616 0.21688 0.0
H883 H 0.52895 0.48663 0.22337 0.0
H884 H 0.51072 0.50718 0.21756 0.0
H885 H 0.46557 0.42802 0.20493 0.0
H886 H 0.45293 0.41958 0.17949 0.0
H887 H 0.45247 0.45324 0.17417 0.0
H888 H 0.46498 0.46148 0.20005 0.0
H889 H 0.45546 0.45527 0.22886 0.0
H890 H 0.43907 0.44446 0.24948 0.0
H891 H 0.45537 0.42362 0.26542 0.0
H892 H 0.47161 0.43433 0.2444 0.0
H893 H 0.49345 0.45367 0.20724 0.0
H894 H 0.51273 0.47307 0.20644 0.0
H895 H 0.49625 0.49074 0.23381 0.0
N896 N 0.47255 0.44929 0.22032 0.0
H897 H 0.47679 0.47142 0.23347 0.0
C898 C 0.55714 0.53321 0.20049 0.0
C899 C 0.56838 0.53504 0.19496 0.0
C900 C 0.57404 0.542 0.18048 0.0
C901 C 0.56854 0.54728 0.17121 0.0
C902 C 0.55692 0.54482 0.17619 0.0
C903 C 0.55129 0.53791 0.19073 0.0
C904 C 0.55696 0.53702 0.23088 0.0
C905 C 0.55364 0.546 0.23192 0.0
C906 C 0.5598 0.55606 0.24305 0.0
C907 C 0.56939 0.55731 0.25323 0.0
C908 C 0.57207 0.54785 0.253 0.0
C909 C 0.56589 0.53781 0.24191 0.0
C910 C 0.541 0.51727 0.21859 0.0
C911 C 0.54032 0.506 0.22058 0.0
C912 C 0.52906 0.49513 0.22158 0.0
C913 C 0.51816 0.49526 0.2203 0.0
C914 C 0.51888 0.50667 0.21867 0.0
C915 C 0.53019 0.51758 0.218 0.0
C916 C 0.46623 0.44532 0.20426 0.0
C917 C 0.46288 0.43361 0.19809 0.0
C918 C 0.4557 0.42886 0.18352 0.0
C919 C 0.45173 0.43576 0.17471 0.0
C920 C 0.4553 0.44765 0.18074 0.0
C921 C 0.4625 0.45241 0.19542 0.0
C922 C 0.46472 0.44552 0.23505 0.0
C923 C 0.45571 0.44865 0.23713 0.0
C924 C 0.44634 0.44245 0.24897 0.0
C925 C 0.44581 0.43303 0.25889 0.0
C926 C 0.4554 0.43067 0.25774 0.0
C927 C 0.46475 0.43686 0.24589 0.0
C928 C 0.48373 0.46101 0.22056 0.0
C929 C 0.49403 0.46176 0.21304 0.0
C930 C 0.50508 0.47286 0.21276 0.0
C931 C 0.50618 0.48352 0.22031 0.0
C932 C 0.49577 0.48278 0.22775 0.0
C933 C 0.48461 0.47166 0.22773 0.0
H934 H 0.52941 0.96316 0.2002 0.0
N935 N 0.52599 0.97902 0.21818 0.0
H936 H 0.54235 0.96729 0.17517 0.0
H937 H 0.53774 0.00066 0.20081 0.0
H938 H 0.55033 0.00482 0.17529 0.0
H939 H 0.54574 0.00036 0.22984 0.0
H940 H 0.56098 0.00188 0.24987 0.0
H941 H 0.52399 0.96142 0.2383 0.0
H942 H 0.53938 0.96271 0.25786 0.0
H943 H 0.50666 0.97149 0.1984 0.0
H944 H 0.52568 0.9961 0.24064 0.0
H945 H 0.4921 0.9784 0.19839 0.0
H946 H 0.51082 0.00251 0.24129 0.0
H947 H 0.44462 0.98744 0.20725 0.0
H948 H 0.43333 0.98602 0.18166 0.0
H949 H 0.46201 0.02226 0.16703 0.0
H950 H 0.47313 0.02371 0.19316 0.0
H951 H 0.45895 0.02275 0.23009 0.0
H952 H 0.4427 0.01829 0.25027 0.0
H953 H 0.4386 0.98285 0.2599 0.0
H954 H 0.45428 0.98708 0.23902 0.0
H955 H 0.46122 0.98424 0.21148 0.0
H956 H 0.47571 0.97732 0.21282 0.0
H957 H 0.50407 0.01408 0.22707 0.0
N958 N 0.4658 0.00755 0.21834 0.0
H959 H 0.48919 0.02072 0.22667 0.0
C960 C 0.53256 0.98153 0.20228 0.0
C961 C 0.53384 0.97222 0.19464 0.0
C962 C 0.54121 0.97461 0.18029 0.0
C963 C 0.54741 0.9864 0.17315 0.0
C964 C 0.54584 0.99568 0.18058 0.0
C965 C 0.53855 0.9933 0.19507 0.0
C966 C 0.53366 0.98074 0.23265 0.0
C967 C 0.5441 0.99218 0.23633 0.0
C968 C 0.55289 0.993 0.24766 0.0
C969 C 0.55153 0.98239 0.2553 0.0
C970 C 0.54071 0.9711 0.25239 0.0
C971 C 0.53188 0.97032 0.2412 0.0
C972 C 0.51743 0.98328 0.21928 0.0
C973 C 0.50766 0.97832 0.20775 0.0
C974 C 0.49925 0.98221 0.20789 0.0
C975 C 0.5002 0.99103 0.21988 0.0
C976 C 0.50989 0.99588 0.23165 0.0
C977 C 0.51845 0.99213 0.23132 0.0
C978 C 0.45976 0.00574 0.20214 0.0
C979 C 0.44861 0.995 0.19842 0.0
C980 C 0.44215 0.99419 0.18369 0.0
C981 C 0.44671 0.00406 0.17227 0.0
C982 C 0.45813 0.01457 0.17567 0.0
C983 C 0.46456 0.01538 0.19047 0.0
C984 C 0.45793 0.00535 0.23287 0.0
C985 C 0.4547 0.01412 0.23682 0.0
C986 C 0.44539 0.01154 0.24845 0.0
C987 C 0.43918 0.00012 0.25669 0.0
C988 C 0.44295 0.99162 0.25352 0.0
C989 C 0.45212 0.99413 0.24164 0.0
C990 C 0.47411 0.00304 0.21912 0.0
C991 C 0.47051 0.9908 0.21505 0.0
C992 C 0.4789 0.98687 0.21566 0.0
C993 C 0.49115 0.99513 0.21996 0.0
C994 C 0.4947 0.00738 0.22399 0.0
C995 C 0.48624 0.01124 0.22365 0.0
H996 H 0.43629 0.97725 0.81389 0.0
N997 N 0.45755 0.99363 0.8008 0.0
H998 H 0.42688 0.97911 0.84006 0.0
H999 H 0.46815 0.01258 0.82382 0.0
H1000 H 0.45891 0.01452 0.85042 0.0
H1001 H 0.46267 0.01699 0.79511 0.0
H1002 H 0.45213 0.02276 0.77472 0.0
H1003 H 0.44419 0.98015 0.77454 0.0
H1004 H 0.43391 0.98589 0.75364 0.0
H1005 H 0.46113 0.97611 0.8117 0.0
H1006 H 0.47987 0.01235 0.7903 0.0
H1007 H 0.48008 0.97604 0.81252 0.0
H1008 H 0.49886 0.0121 0.78988 0.0
H1009 H 0.54326 0.97675 0.81052 0.0
H1010 H 0.55411 0.97734 0.83616 0.0
H1011 H 0.54633 0.00398 0.85862 0.0
H1012 H 0.53652 0.0041 0.83235 0.0
H1013 H 0.55359 0.01455 0.803 0.0
H1014 H 0.57146 0.02252 0.78431 0.0
H1015 H 0.55389 0.98851 0.75539 0.0
H1016 H 0.53613 0.98063 0.77418 0.0
H1017 H 0.51196 0.97287 0.79686 0.0
H1018 H 0.49353 0.97396 0.79521 0.0
H1019 H 0.51473 0.01302 0.80587 0.0
N1020 N 0.53443 0.99096 0.80286 0.0
H1021 H 0.53323 0.01185 0.80622 0.0
C1022 C 0.45286 0.99471 0.81704 0.0
C1023 C 0.4413 0.98532 0.82195 0.0
C1024 C 0.43599 0.9864 0.83694 0.0
C1025 C 0.44217 0.99694 0.84742 0.0
C1026 C 0.45388 0.00633 0.84257 0.0
C1027 C 0.4592 0.00522 0.82748 0.0
C1028 C 0.45406 0.99807 0.78642 0.0
C1029 C 0.45664 0.01025 0.78582 0.0
C1030 C 0.45062 0.01354 0.7741 0.0
C1031 C 0.44198 0.00471 0.76277 0.0
C1032 C 0.44029 0.99284 0.76245 0.0
C1033 C 0.44625 0.98956 0.77422 0.0
C1034 C 0.46903 0.99411 0.80077 0.0
C1035 C 0.46936 0.984 0.80696 0.0
C1036 C 0.48022 0.98395 0.80724 0.0
C1037 C 0.49106 0.99397 0.80097 0.0
C1038 C 0.49075 0.00424 0.79493 0.0
C1039 C 0.47985 0.00436 0.79498 0.0
C1040 C 0.53902 0.99031 0.81936 0.0
C1041 C 0.54381 0.98261 0.82108 0.0
C1042 C 0.54995 0.98292 0.8359 0.0
C1043 C 0.55123 0.99075 0.84967 0.0
C1044 C 0.54587 0.99804 0.84823 0.0
C1045 C 0.54003 0.99799 0.83316 0.0
C1046 C 0.54358 0.99697 0.78994 0.0
C1047 C 0.55343 0.00901 0.79226 0.0
C1048 C 0.56363 0.01354 0.78159 0.0
C1049 C 0.56411 0.00605 0.76857 0.0
C1050 C 0.55382 0.99441 0.76547 0.0
C1051 C 0.54365 0.98993 0.77607 0.0
C1052 C 0.52387 0.99218 0.80198 0.0
C1053 C 0.51258 0.98165 0.79878 0.0
C1054 C 0.50205 0.98231 0.79801 0.0
C1055 C 0.50252 0.99355 0.80075 0.0
C1056 C 0.51396 0.0042 0.8036 0.0
C1057 C 0.52456 0.00355 0.80401 0.0
H1058 H 0.98258 0.54063 0.81471 0.0
N1059 N 0.00267 0.54191 0.79985 0.0
H1060 H 0.98218 0.55065 0.84118 0.0
H1061 H 0.02066 0.55368 0.82214 0.0
H1062 H 0.02024 0.56327 0.84924 0.0
H1063 H 0.01711 0.56207 0.78259 0.0
H1064 H 0.01098 0.57285 0.76313 0.0
H1065 H 0.9799 0.53221 0.78537 0.0
H1066 H 0.97374 0.54289 0.76603 0.0
H1067 H 0.98085 0.52114 0.80706 0.0
H1068 H 0.0182 0.53443 0.79345 0.0
H1069 H 0.97711 0.50041 0.80902 0.0
H1070 H 0.01489 0.51383 0.79686 0.0
H1071 H 0.97048 0.43833 0.8338 0.0
H1072 H 0.97459 0.43076 0.86003 0.0
H1073 H 0.01221 0.4599 0.85797 0.0
H1074 H 0.0079 0.46775 0.83208 0.0
H1075 H 0.0082 0.4579 0.80647 0.0
H1076 H 0.01097 0.44446 0.78673 0.0
H1077 H 0.97359 0.42787 0.77064 0.0
H1078 H 0.97063 0.44099 0.79111 0.0
H1079 H 0.97676 0.46764 0.83082 0.0
H1080 H 0.98066 0.48833 0.82681 0.0
H1081 H 0.00643 0.49391 0.78683 0.0
N1082 N 0.98649 0.45636 0.81419 0.0
H1083 H 0.00321 0.47365 0.79183 0.0
C1084 C 0.00177 0.54661 0.81629 0.0
C1085 C 0.99084 0.54551 0.82214 0.0
C1086 C 0.99059 0.55118 0.83744 0.0
C1087 C 0.00121 0.55791 0.84731 0.0
C1088 C 0.01196 0.55843 0.84179 0.0
C1089 C 0.01222 0.55289 0.8264 0.0
C1090 C 0.99904 0.54639 0.78559 0.0
C1091 C 0.00769 0.55767 0.77859 0.0
C1092 C 0.00416 0.56381 0.76748 0.0
C1093 C 0.99184 0.55878 0.76322 0.0
C1094 C 0.98328 0.54708 0.7693 0.0
C1095 C 0.98683 0.54091 0.78034 0.0
C1096 C 0.99978 0.52933 0.79963 0.0
C1097 C 0.98822 0.51959 0.80418 0.0
C1098 C 0.98617 0.5077 0.80571 0.0
C1099 C 0.99572 0.50535 0.8033 0.0
C1100 C 0.00723 0.51515 0.79854 0.0
C1101 C 0.00918 0.52697 0.79663 0.0
C1102 C 0.98888 0.45346 0.83092 0.0
C1103 C 0.97952 0.44326 0.83928 0.0
C1104 C 0.98189 0.43897 0.85421 0.0
C1105 C 0.99374 0.44471 0.86089 0.0
C1106 C 0.00303 0.45528 0.85296 0.0
C1107 C 1.00058 0.45974 0.8382 0.0
C1108 C 0.98906 0.45024 0.80055 0.0
C1109 C 1.00058 0.45142 0.79873 0.0
C1110 C 0.0022 0.44381 0.78737 0.0
C1111 C 0.99247 0.43514 0.77733 0.0
C1112 C 0.98122 0.43454 0.77825 0.0
C1113 C 0.97953 0.442 0.78989 0.0
C1114 C 0.98962 0.46894 0.81177 0.0
C1115 C 0.98338 0.4734 0.82135 0.0
C1116 C 0.9855 0.48521 0.81882 0.0
C1117 C 0.99375 0.49284 0.80628 0.0
C1118 C 1.00012 0.48842 0.79675 0.0
C1119 C 0.99819 0.47667 0.79956 0.0
H1120 H 0.46727 0.45142 0.8313 0.0
N1121 N 0.46309 0.46303 0.80687 0.0
H1122 H 0.45573 0.44311 0.8576 0.0
H1123 H 0.44526 0.46703 0.81915 0.0
H1124 H 0.43419 0.45948 0.84579 0.0
H1125 H 0.44764 0.46771 0.78905 0.0
H1126 H 0.43236 0.45378 0.76825 0.0
H1127 H 0.46116 0.44296 0.79308 0.0
H1128 H 0.44609 0.42907 0.77222 0.0
H1129 H 0.48541 0.46989 0.79664 0.0
H1130 H 0.46234 0.48423 0.81016 0.0
H1131 H 0.50255 0.49077 0.79279 0.0
H1132 H 0.47947 0.50507 0.80743 0.0
H1133 H 0.55166 0.54693 0.81407 0.0
H1134 H 0.56253 0.55428 0.84102 0.0
H1135 H 0.53896 0.56797 0.85577 0.0
H1136 H 0.52772 0.55994 0.82903 0.0
H1137 H 0.54107 0.57206 0.79256 0.0
H1138 H 0.55779 0.58373 0.77292 0.0
H1139 H 0.55961 0.55116 0.76201 0.0
H1140 H 0.54334 0.53979 0.78255 0.0
H1141 H 0.53313 0.52848 0.81053 0.0
H1142 H 0.51597 0.50764 0.80969 0.0
H1143 H 0.49337 0.52071 0.78929 0.0
N1144 N 0.53274 0.54945 0.80323 0.0
H1145 H 0.51063 0.54181 0.79115 0.0
C1146 C 0.45728 0.45994 0.82334 0.0
C1147 C 0.46019 0.45336 0.8346 0.0
C1148 C 0.45359 0.44868 0.84967 0.0
C1149 C 0.44396 0.45058 0.85389 0.0
C1150 C 0.4414 0.45765 0.84288 0.0
C1151 C 0.44789 0.46217 0.82768 0.0
C1152 C 0.45543 0.45624 0.79267 0.0
C1153 C 0.44743 0.45937 0.78526 0.0
C1154 C 0.43871 0.4514 0.77342 0.0
C1155 C 0.438 0.44031 0.76868 0.0
C1156 C 0.44648 0.4376 0.77546 0.0
C1157 C 0.45507 0.44549 0.78738 0.0
C1158 C 0.47268 0.47547 0.80399 0.0
C1159 C 0.48408 0.47757 0.79884 0.0
C1160 C 0.49387 0.48952 0.79679 0.0
C1161 C 0.49249 0.49968 0.80005 0.0
C1162 C 0.4809 0.49752 0.80466 0.0
C1163 C 0.47106 0.48553 0.80647 0.0
C1164 C 0.53875 0.55279 0.81961 0.0
C1165 C 0.54864 0.55124 0.82325 0.0
C1166 C 0.55497 0.55561 0.83863 0.0
C1167 C 0.55171 0.56181 0.85059 0.0
C1168 C 0.54164 0.56308 0.84703 0.0
C1169 C 0.53522 0.55857 0.83173 0.0
C1170 C 0.54091 0.55509 0.78904 0.0
C1171 C 0.54493 0.5674 0.78563 0.0
C1172 C 0.55448 0.57403 0.7743 0.0
C1173 C 0.56018 0.56844 0.76584 0.0
C1174 C 0.55564 0.55586 0.76851 0.0
C1175 C 0.54618 0.54927 0.78013 0.0
C1176 C 0.52313 0.53681 0.80118 0.0
C1177 C 0.52454 0.52695 0.8059 0.0
C1178 C 0.51466 0.51493 0.80521 0.0
C1179 C 0.50319 0.51242 0.79952 0.0
C1180 C 0.50197 0.52228 0.79409 0.0
C1181 C 0.51184 0.53433 0.79499 0.0
H1182 H 0.6643 0.88096 0.53853 0.0
N1183 N 0.64387 0.86042 0.55048 0.0
H1184 H 0.66605 0.89188 0.5126 0.0
H1185 H 0.62723 0.8537 0.52583 0.0
H1186 H 0.62906 0.86455 0.49919 0.0
H1187 H 0.62885 0.86647 0.56518 0.0
H1188 H 0.63428 0.88369 0.58486 0.0
H1189 H 0.66563 0.87377 0.56742 0.0
H1190 H 0.67111 0.89094 0.58707 0.0
H1191 H 0.66343 0.86123 0.53355 0.0
H1192 H 0.6352 0.84099 0.57068 0.0
H1193 H 0.67061 0.84717 0.53656 0.0
H1194 H 0.64295 0.8271 0.57455 0.0
H1195 H 0.6939 0.80162 0.5421 0.0
H1196 H 0.69248 0.78973 0.51649 0.0
H1197 H 0.65539 0.78092 0.50912 0.0
H1198 H 0.6567 0.79223 0.53502 0.0
H1199 H 0.6578 0.77962 0.56176 0.0
H1200 H 0.65835 0.76528 0.58142 0.0
H1201 H 0.69046 0.79525 0.60534 0.0
H1202 H 0.69037 0.80932 0.58446 0.0
H1203 H 0.68886 0.82757 0.55455 0.0
H1204 H 0.68123 0.84168 0.55457 0.0
H1205 H 0.64465 0.81107 0.56206 0.0
N1206 N 0.6762 0.80339 0.55711 0.0
H1207 H 0.65261 0.79719 0.56322 0.0
C1208 C 0.64556 0.86643 0.53424 0.0
C1209 C 0.65653 0.87722 0.53009 0.0
C1210 C 0.65757 0.88343 0.51507 0.0
C1211 C 0.64771 0.87908 0.50374 0.0
C1212 C 0.6368 0.8682 0.50771 0.0
C1213 C 0.63576 0.86194 0.52282 0.0
C1214 C 0.64678 0.86884 0.56473 0.0
C1215 C 0.63799 0.87156 0.57032 0.0
C1216 C 0.64111 0.8814 0.58155 0.0
C1217 C 0.65316 0.88875 0.58733 0.0
C1218 C 0.66179 0.88553 0.58263 0.0
C1219 C 0.65864 0.87565 0.57149 0.0
C1220 C 0.64856 0.8522 0.55183 0.0
C1221 C 0.65873 0.85384 0.54248 0.0
C1222 C 0.663 0.84578 0.54438 0.0
C1223 C 0.65748 0.836 0.55594 0.0
C1224 C 0.64737 0.83441 0.56536 0.0
C1225 C 0.64296 0.84238 0.56324 0.0
C1226 C 0.67551 0.79794 0.54052 0.0
C1227 C 0.68555 0.79729 0.53475 0.0
C1228 C 0.68471 0.79051 0.52007 0.0
C1229 C 0.67378 0.78427 0.51076 0.0
C1230 C 0.66388 0.7854 0.51614 0.0
C1231 C 0.66468 0.79206 0.53092 0.0
C1232 C 0.67431 0.7955 0.57132 0.0
C1233 C 0.66487 0.78313 0.57137 0.0
C1234 C 0.66516 0.77492 0.5828 0.0
C1235 C 0.67468 0.77897 0.59476 0.0
C1236 C 0.68327 0.79165 0.5959 0.0
C1237 C 0.68315 0.79978 0.58416 0.0
C1238 C 0.67132 0.81138 0.55858 0.0
C1239 C 0.67922 0.82397 0.5564 0.0
C1240 C 0.67479 0.83199 0.55623 0.0
C1241 C 0.66225 0.82753 0.5579 0.0
C1242 C 0.65436 0.81488 0.56077 0.0
C1243 C 0.65887 0.80689 0.56129 0.0
H1244 H 0.24213 0.87272 0.54669 0.0
N1245 N 0.21873 0.86106 0.55488 0.0
H1246 H 0.25149 0.88359 0.52052 0.0
H1247 H 0.20656 0.85856 0.52446 0.0
H1248 H 0.2158 0.86851 0.49788 0.0
H1249 H 0.21522 0.88028 0.54932 0.0
H1250 H 0.22437 0.89945 0.56597 0.0
H1251 H 0.22852 0.86479 0.58582 0.0
H1252 H 0.23742 0.88386 0.60279 0.0
H1253 H 0.21372 0.83858 0.56195 0.0
H1254 H 0.19669 0.85961 0.55177 0.0
H1255 H 0.19376 0.82001 0.56459 0.0
H1256 H 0.17666 0.841 0.55326 0.0
H1257 H 0.13067 0.76324 0.54174 0.0
H1258 H 0.11946 0.75563 0.51494 0.0
H1259 H 0.11911 0.78937 0.51007 0.0
H1260 H 0.13036 0.79687 0.53708 0.0
H1261 H 0.121 0.79201 0.56516 0.0
H1262 H 0.10372 0.78222 0.58458 0.0
H1263 H 0.11531 0.75728 0.60039 0.0
H1264 H 0.13283 0.76746 0.5813 0.0
H1265 H 0.15795 0.78702 0.54827 0.0
H1266 H 0.17771 0.8059 0.54786 0.0
H1267 H 0.16153 0.82561 0.57016 0.0
N1268 N 0.13682 0.78405 0.55796 0.0
H1269 H 0.14168 0.8068 0.56948 0.0
C1270 C 0.22365 0.86491 0.53787 0.0
C1271 C 0.23634 0.8716 0.53596 0.0
C1272 C 0.24168 0.87779 0.52085 0.0
C1273 C 0.23444 0.87717 0.50698 0.0
C1274 C 0.22171 0.86961 0.50842 0.0
C1275 C 0.21636 0.86371 0.52373 0.0
C1276 C 0.22136 0.87116 0.56628 0.0
C1277 C 0.21977 0.88086 0.5612 0.0
C1278 C 0.22504 0.89182 0.57065 0.0
C1279 C 0.23168 0.89313 0.58553 0.0
C1280 C 0.2323 0.88305 0.59139 0.0
C1281 C 0.22723 0.87217 0.58176 0.0
C1282 C 0.20671 0.8504 0.55645 0.0
C1283 C 0.20563 0.83913 0.56014 0.0
C1284 C 0.19419 0.82851 0.56149 0.0
C1285 C 0.1835 0.82889 0.55889 0.0
C1286 C 0.18462 0.84031 0.55553 0.0
C1287 C 0.1961 0.85098 0.55451 0.0
C1288 C 0.13131 0.78055 0.54133 0.0
C1289 C 0.12832 0.76904 0.53472 0.0
C1290 C 0.12196 0.76475 0.5194 0.0
C1291 C 0.11842 0.77192 0.51035 0.0
C1292 C 0.12163 0.78361 0.51683 0.0
C1293 C 0.12808 0.78792 0.53219 0.0
C1294 C 0.12828 0.78049 0.57186 0.0
C1295 C 0.12009 0.78474 0.57324 0.0
C1296 C 0.11009 0.77901 0.58421 0.0
C1297 C 0.108 0.76882 0.59386 0.0
C1298 C 0.11667 0.76515 0.59329 0.0
C1299 C 0.1267 0.77095 0.58239 0.0
C1300 C 0.14835 0.7954 0.55903 0.0
C1301 C 0.15871 0.79543 0.55313 0.0
C1302 C 0.17003 0.80625 0.55304 0.0
C1303 C 0.17134 0.81735 0.55915 0.0
C1304 C 0.1609 0.8173 0.56518 0.0
C1305 C 0.1495 0.80646 0.56497 0.0
H1306 H 0.20882 0.32911 0.54087 0.0
N1307 N 0.21463 0.35077 0.55692 0.0
H1308 H 0.21744 0.32675 0.5143 0.0
H1309 H 0.22974 0.36847 0.53604 0.0
H1310 H 0.23878 0.36626 0.50961 0.0
H1311 H 0.2351 0.36395 0.57421 0.0
H1312 H 0.24478 0.35624 0.59302 0.0
H1313 H 0.20333 0.32775 0.57054 0.0
H1314 H 0.21312 0.31979 0.58896 0.0
H1315 H 0.19385 0.33551 0.53817 0.0
H1316 H 0.20821 0.36265 0.57874 0.0
H1317 H 0.17526 0.33601 0.53821 0.0
H1318 H 0.18907 0.36249 0.57983 0.0
H1319 H 0.121 0.33271 0.53956 0.0
H1320 H 0.10964 0.32975 0.5135 0.0
H1321 H 0.13253 0.36837 0.50238 0.0
H1322 H 0.14356 0.37133 0.52912 0.0
H1323 H 0.13071 0.36822 0.56789 0.0
H1324 H 0.11351 0.36119 0.58755 0.0
H1325 H 0.11008 0.32552 0.58911 0.0
H1326 H 0.12712 0.33253 0.56952 0.0
H1327 H 0.13955 0.33379 0.54702 0.0
H1328 H 0.15711 0.33147 0.55055 0.0
H1329 H 0.17892 0.36994 0.56461 0.0
N1330 N 0.1387 0.35476 0.55304 0.0
H1331 H 0.16095 0.37182 0.56236 0.0
C1332 C 0.21861 0.34902 0.5404 0.0
C1333 C 0.21523 0.33726 0.53403 0.0
C1334 C 0.22025 0.33593 0.51886 0.0
C1335 C 0.22888 0.34631 0.50983 0.0
C1336 C 0.23204 0.35805 0.51606 0.0
C1337 C 0.22692 0.35936 0.53118 0.0
C1338 C 0.21863 0.34641 0.57083 0.0
C1339 C 0.23012 0.35438 0.57783 0.0
C1340 C 0.23566 0.34993 0.58842 0.0
C1341 C 0.22982 0.33735 0.59212 0.0
C1342 C 0.21785 0.32952 0.58629 0.0
C1343 C 0.21227 0.33403 0.57571 0.0
C1344 C 0.20267 0.34928 0.55829 0.0
C1345 C 0.193 0.34144 0.54737 0.0
C1346 C 0.18218 0.34163 0.54752 0.0
C1347 C 0.18062 0.34943 0.55886 0.0
C1348 C 0.19002 0.35664 0.57053 0.0
C1349 C 0.20093 0.35664 0.5701 0.0
C1350 C 0.13311 0.35233 0.53641 0.0
C1351 C 0.12372 0.34054 0.53147 0.0
C1352 C 0.11723 0.33884 0.51641 0.0
C1353 C 0.12006 0.34884 0.50583 0.0
C1354 C 0.12991 0.3605 0.51036 0.0
C1355 C 0.13632 0.3622 0.52553 0.0
C1356 C 0.13023 0.35097 0.56709 0.0
C1357 C 0.12644 0.35899 0.57285 0.0
C1358 C 0.11664 0.35496 0.58409 0.0
C1359 C 0.11037 0.34276 0.58971 0.0
C1360 C 0.11464 0.33493 0.58479 0.0
C1361 C 0.12448 0.33898 0.57361 0.0
C1362 C 0.1489 0.35299 0.55471 0.0
C1363 C 0.14803 0.34166 0.55119 0.0
C1364 C 0.15819 0.3404 0.55301 0.0
C1365 C 0.16954 0.3505 0.55792 0.0
C1366 C 0.17034 0.36184 0.56124 0.0
C1367 C 0.16011 0.36301 0.55978 0.0
C1368 C 0.00504 0.38409 0.05817 0.0
C1369 C 0.99326 0.37398 0.05548 0.0
C1370 C 0.00723 0.39273 0.07106 0.0
C1371 C 0.99549 0.39711 0.11164 0.0
H1372 H 0.01312 0.43161 0.09995 0.0
C1373 C 0.99991 0.43422 0.15935 0.0
C1374 C 0.01109 0.44539 0.16001 0.0
C1375 C 0.99751 0.42563 0.14632 0.0
C1376 C 0.00833 0.42204 0.10353 0.0
H1377 H 0.97461 0.36482 0.06459 0.0
H1378 H 0.9785 0.3798 0.08725 0.0
H1379 H 0.00978 0.41621 0.07827 0.0
H1380 H 0.02836 0.45641 0.14704 0.0
H1381 H 0.02441 0.44126 0.12482 0.0
H1382 H 0.99426 0.40286 0.13697 0.0
C1383 C 0.98601 0.38106 0.0793 0.0
C1384 C 0.0064 0.41322 0.09107 0.0
C1385 C 0.98378 0.37252 0.06627 0.0
C1386 C 0.01972 0.44783 0.14712 0.0
C1387 C 0.01738 0.43919 0.13419 0.0
C1388 C 0.99754 0.40593 0.12417 0.0
C1389 C 0.99772 0.39133 0.08168 0.0
C1390 C 0.99994 0.40067 0.095 0.0
C1391 C 0.00628 0.42792 0.13369 0.0
C1392 C 0.00397 0.41852 0.12028 0.0
H1393 H 0.01254 0.38551 0.05008 0.0
H1394 H 0.01636 0.4005 0.07274 0.0
H1395 H 0.99058 0.38749 0.11505 0.0
H1396 H 0.99308 0.43194 0.16914 0.0
H1397 H 0.98878 0.41716 0.14621 0.0
C1398 C 0.62 0.6307 0.07025 0.0
C1399 C 0.62723 0.62981 0.05737 0.0
C1400 C 0.61497 0.62196 0.0831 0.0
C1401 C 0.60519 0.58985 0.09162 0.0
H1402 H 0.60275 0.59895 0.13829 0.0
C1403 C 0.58271 0.55426 0.1459 0.0
C1404 C 0.57533 0.55617 0.15741 0.0
C1405 C 0.58974 0.56313 0.13376 0.0
C1406 C 0.60326 0.59625 0.12528 0.0
H1407 H 0.63515 0.61918 0.04829 0.0
H1408 H 0.62634 0.6039 0.07083 0.0
H1409 H 0.61435 0.61493 0.11749 0.0
H1410 H 0.56957 0.56892 0.1651 0.0
H1411 H 0.58151 0.58415 0.14371 0.0
H1412 H 0.59391 0.57116 0.09936 0.0
C1413 C 0.6245 0.61134 0.07082 0.0
C1414 C 0.60994 0.60541 0.11338 0.0
C1415 C 0.62962 0.62015 0.05799 0.0
C1416 C 0.575 0.56705 0.1563 0.0
C1417 C 0.58201 0.57589 0.1442 0.0
C1418 C 0.59848 0.58067 0.10353 0.0
C1419 C 0.617 0.61207 0.08339 0.0
C1420 C 0.61082 0.60232 0.09636 0.0
C1421 C 0.58957 0.57411 0.13291 0.0
C1422 C 0.59728 0.58378 0.12044 0.0
H1423 H 0.61799 0.63802 0.07022 0.0
H1424 H 0.60913 0.62272 0.09249 0.0
H1425 H 0.60559 0.58718 0.07855 0.0
H1426 H 0.5831 0.54594 0.14634 0.0
H1427 H 0.5955 0.5615 0.12529 0.0
C1428 C 0.3721 0.98206 0.0608 0.0
C1429 C 0.37164 0.99184 0.05333 0.0
C1430 C 0.38026 0.98419 0.07395 0.0
C1431 C 0.40896 0.00841 0.09361 0.0
H1432 H 0.39935 0.98431 0.1294 0.0
C1433 C 0.4387 0.01404 0.15296 0.0
C1434 C 0.43921 0.0036 0.1575 0.0
C1435 C 0.43084 0.01332 0.14007 0.0
C1436 C 0.40219 0.99108 0.11941 0.0
H1437 H 0.37933 0.01157 0.05419 0.0
H1438 H 0.39345 0.01527 0.07753 0.0
H1439 H 0.38449 0.98197 0.10817 0.0
H1440 H 0.43226 0.98439 0.15137 0.0
H1441 H 0.41841 0.98311 0.12914 0.0
H1442 H 0.42667 0.01757 0.10516 0.0
C1443 C 0.3876 0.00595 0.07292 0.0
C1444 C 0.39368 0.98973 0.10722 0.0
C1445 C 0.37944 0.00382 0.05961 0.0
C1446 C 0.43193 0.99254 0.14848 0.0
C1447 C 0.424 0.9918 0.13572 0.0
C1448 C 0.41746 0.00981 0.10595 0.0
C1449 C 0.38814 0.99615 0.08019 0.0
C1450 C 0.397 0.99825 0.09397 0.0
C1451 C 0.42324 0.00213 0.13156 0.0
C1452 C 0.4142 0.00104 0.11881 0.0
H1453 H 0.36632 0.9727 0.05627 0.0
H1454 H 0.38056 0.97643 0.07896 0.0
H1455 H 0.41187 0.01508 0.0835 0.0
H1456 H 0.44404 0.02267 0.15977 0.0
H1457 H 0.43038 0.0214 0.13719 0.0
C1458 C 0.38161 0.00491 0.9651 0.0
C1459 C 0.37387 0.99306 0.97155 0.0
C1460 C 0.38948 0.0067 0.95144 0.0
C1461 C 0.39364 0.98946 0.91607 0.0
H1462 H 0.42732 0.01605 0.9162 0.0
C1463 C 0.4289 0.98783 0.87312 0.0
C1464 C 0.43609 0.99814 0.86295 0.0
C1465 C 0.42196 0.98843 0.88647 0.0
C1466 C 0.4179 0.00866 0.91595 0.0
H1467 H 0.36856 0.97387 0.96881 0.0
H1468 H 0.38224 0.97701 0.94545 0.0
H1469 H 0.41358 0.01491 0.93906 0.0
H1470 H 0.44209 0.01737 0.85945 0.0
H1471 H 0.43006 0.01846 0.88314 0.0
H1472 H 0.39798 0.98301 0.89331 0.0
C1473 C 0.3821 0.9849 0.95061 0.0
C1474 C 0.41003 0.00802 0.92898 0.0
C1475 C 0.37427 0.98312 0.96413 0.0
C1476 C 0.4367 0.00928 0.86709 0.0
C1477 C 0.42979 0.00991 0.8806 0.0
C1478 C 0.40149 0.99004 0.90322 0.0
C1479 C 0.38973 0.99667 0.94398 0.0
C1480 C 0.39787 0.99825 0.92936 0.0
C1481 C 0.42211 0.99938 0.8901 0.0
C1482 C 0.41375 0.99948 0.9032 0.0
H1483 H 0.38155 0.01278 0.97051 0.0
H1484 H 0.39523 0.01588 0.94656 0.0
H1485 H 0.38426 0.982 0.91572 0.0
H1486 H 0.42845 0.97919 0.87056 0.0
H1487 H 0.41631 0.98025 0.89383 0.0
C1488 C 0.9847 0.36984 0.96053 0.0
C1489 C 0.99302 0.37273 0.97392 0.0
C1490 C 0.98696 0.37844 0.94791 0.0
C1491 C 0.00091 0.41095 0.94189 0.0
H1492 H 0.99791 0.40325 0.89342 0.0
C1493 C 0.00539 0.43573 0.87319 0.0
C1494 C 0.99646 0.43897 0.87515 0.0
C1495 C 0.00684 0.42876 0.88559 0.0
C1496 C 0.99888 0.40556 0.90691 0.0
H1497 H 0.01032 0.38681 0.98447 0.0
H1498 H 0.01407 0.40199 0.9626 0.0
H1499 H 0.99692 0.38833 0.91391 0.0
H1500 H 0.98245 0.43799 0.89185 0.0
H1501 H 0.98523 0.42608 0.91385 0.0
H1502 H 0.0023 0.42793 0.93492 0.0
C1503 C 0.0059 0.39301 0.96182 0.0
C1504 C 0.99826 0.39702 0.91859 0.0
C1505 C 0.00378 0.3843 0.97425 0.0
C1506 C 0.9894 0.43561 0.89009 0.0
C1507 C 0.99102 0.42885 0.90265 0.0
C1508 C 0.00128 0.41938 0.93022 0.0
C1509 C 0.99745 0.39017 0.94864 0.0
C1510 C 0.99915 0.3996 0.93619 0.0
C1511 C 0.99955 0.42512 0.90032 0.0
C1512 C 1.00017 0.41671 0.91264 0.0
H1513 H 0.97636 0.36098 0.95992 0.0
H1514 H 0.98027 0.37607 0.93792 0.0
H1515 H 0.00153 0.4131 0.95541 0.0
H1516 H 0.01086 0.43811 0.86169 0.0
H1517 H 0.01349 0.42601 0.88354 0.0
C1518 C 0.60537 0.62211 0.97742 0.0
C1519 C 0.61798 0.62685 0.97771 0.0
C1520 C 0.59816 0.61402 0.9645 0.0
C1521 C 0.59795 0.59385 0.92929 0.0
H1522 H 0.57147 0.59749 0.9128 0.0
C1523 C 0.57191 0.57315 0.86566 0.0
C1524 C 0.55915 0.56751 0.86624 0.0
C1525 C 0.57898 0.57929 0.87999 0.0
C1526 C 0.57874 0.59627 0.9174 0.0
H1527 H 0.63292 0.62667 0.9648 0.0
H1528 H 0.62039 0.61286 0.94176 0.0
H1529 H 0.58421 0.61058 0.93601 0.0
H1530 H 0.54384 0.56346 0.88269 0.0
H1531 H 0.55626 0.57452 0.90751 0.0
H1532 H 0.59262 0.5798 0.91004 0.0
C1533 C 0.61601 0.61517 0.95177 0.0
C1534 C 0.58605 0.60375 0.93076 0.0
C1535 C 0.62322 0.62315 0.96492 0.0
C1536 C 0.55364 0.5679 0.88165 0.0
C1537 C 0.56074 0.57418 0.89589 0.0
C1538 C 0.59072 0.58647 0.91572 0.0
C1539 C 0.60339 0.6106 0.95131 0.0
C1540 C 0.59571 0.6026 0.93697 0.0
C1541 C 0.57348 0.58006 0.89512 0.0
C1542 C 0.58102 0.58759 0.90972 0.0
H1543 H 0.60103 0.62462 0.98727 0.0
H1544 H 0.58846 0.61044 0.96489 0.0
H1545 H 0.60519 0.59258 0.93386 0.0
H1546 H 0.5765 0.57322 0.85397 0.0
H1547 H 0.5888 0.58385 0.87901 0.0
C1548 C 0.99546 0.61858 0.96775 0.0
C1549 C 0.00681 0.62941 0.97004 0.0
C1550 C 0.99396 0.60993 0.9552 0.0
C1551 C 0.01217 0.60048 0.9293 0.0
H1552 H 0.98341 0.5836 0.90077 0.0
C1553 C 0.01139 0.5766 0.8663 0.0
C1554 C 0.00126 0.56492 0.86274 0.0
C1555 C 0.0114 0.58344 0.88038 0.0
C1556 C 0.99142 0.58813 0.90881 0.0
H1557 H 0.02528 0.63991 0.96032 0.0
H1558 H 0.02259 0.62506 0.93838 0.0
H1559 H 0.98451 0.59773 0.92325 0.0
H1560 H 0.9832 0.55125 0.87146 0.0
H1561 H 0.98315 0.56342 0.89593 0.0
H1562 H 0.01921 0.59115 0.91461 0.0
C1563 C 0.01494 0.62303 0.94658 0.0
C1564 C 0.99205 0.59621 0.92168 0.0
C1565 C 0.01646 0.6316 0.95911 0.0
C1566 C 0.99111 0.56027 0.87368 0.0
C1567 C 0.99107 0.5672 0.88771 0.0
C1568 C 0.01157 0.59249 0.91641 0.0
C1569 C 0.00376 0.61198 0.94467 0.0
C1570 C 0.00255 0.60267 0.93184 0.0
C1571 C 0.00123 0.57885 0.89119 0.0
C1572 C 0.00129 0.58641 0.90584 0.0
H1573 H 0.98784 0.61661 0.97596 0.0
H1574 H 0.98524 0.6015 0.95408 0.0
H1575 H 0.02025 0.60504 0.9372 0.0
H1576 H 0.01926 0.58063 0.85797 0.0
H1577 H 0.01928 0.59249 0.88259 0.0
C1578 C 0.37379 0.3813 0.9636 0.0
C1579 C 0.38001 0.37642 0.97205 0.0
C1580 C 0.37983 0.39063 0.95161 0.0
C1581 C 0.40981 0.41583 0.93982 0.0
H1582 H 0.39833 0.40997 0.89305 0.0
C1583 C 0.44113 0.44282 0.88398 0.0
C1584 C 0.43615 0.44451 0.86906 0.0
C1585 C 0.43362 0.43595 0.89747 0.0
C1586 C 0.40156 0.41195 0.9061 0.0
H1587 H 0.39748 0.37768 0.97483 0.0
H1588 H 0.40802 0.39411 0.95426 0.0
H1589 H 0.38612 0.39527 0.91501 0.0
H1590 H 0.41928 0.44066 0.85706 0.0
H1591 H 0.40632 0.42932 0.88088 0.0
H1592 H 0.42518 0.43252 0.93114 0.0
C1593 C 0.39847 0.39063 0.95679 0.0
C1594 C 0.39455 0.40347 0.91865 0.0
C1595 C 0.3924 0.38116 0.96844 0.0
C1596 C 0.4235 0.43967 0.86836 0.0
C1597 C 0.41601 0.43296 0.88196 0.0
C1598 C 0.41671 0.42443 0.92736 0.0
C1599 C 0.39225 0.39543 0.94824 0.0
C1600 C 0.39878 0.40519 0.93551 0.0
C1601 C 0.42092 0.43075 0.89654 0.0
C1602 C 0.41286 0.42244 0.91022 0.0
H1603 H 0.36424 0.37782 0.96613 0.0
H1604 H 0.37487 0.3942 0.94512 0.0
H1605 H 0.41318 0.4174 0.95281 0.0
H1606 H 0.45084 0.44659 0.88515 0.0
H1607 H 0.43779 0.43438 0.90836 0.0
C1608 C 0.61429 0.99627 0.97258 0.0
C1609 C 0.62647 0.00574 0.97113 0.0
C1610 C 0.60595 0.99414 0.9596 0.0
C1611 C 0.60241 0.00928 0.92107 0.0
H1612 H 0.57356 0.97726 0.9144 0.0
C1613 C 0.56532 0.003 0.87396 0.0
C1614 C 0.55869 0.9918 0.86494 0.0
C1615 C 0.57297 0.00425 0.88747 0.0
C1616 C 0.58164 0.98624 0.91583 0.0
H1617 H 0.6397 0.01998 0.95472 0.0
H1618 H 0.62549 0.01573 0.93152 0.0
H1619 H 0.58854 0.97985 0.93533 0.0
H1620 H 0.55466 0.97294 0.86391 0.0
H1621 H 0.56867 0.97541 0.88627 0.0
H1622 H 0.59603 0.01547 0.90072 0.0
C1623 C 0.62208 0.01032 0.94298 0.0
C1624 C 0.59019 0.9878 0.92817 0.0
C1625 C 0.63031 0.0127 0.95619 0.0
C1626 C 0.5598 0.98183 0.87013 0.0
C1627 C 0.56772 0.98318 0.88333 0.0
C1628 C 0.59405 0.00764 0.90842 0.0
C1629 C 0.60969 0.00121 0.94463 0.0
C1630 C 0.60069 0.99937 0.93108 0.0
C1631 C 0.57453 0.99446 0.89211 0.0
C1632 C 0.58347 0.99613 0.90567 0.0
H1633 H 0.61109 0.99087 0.98408 0.0
H1634 H 0.59652 0.98719 0.96164 0.0
H1635 H 0.61017 0.01842 0.92303 0.0
H1636 H 0.56493 0.011 0.87037 0.0
H1637 H 0.57772 0.013 0.89414 0.0
C1638 C 0.62681 0.01566 0.06415 0.0
C1639 C 0.62524 0.00603 0.05332 0.0
C1640 C 0.61851 0.01353 0.07724 0.0
C1641 C 0.59343 0.9886 0.10239 0.0
H1642 H 0.58527 0.01363 0.11195 0.0
C1643 C 0.55322 0.98016 0.14569 0.0
C1644 C 0.55588 0.98908 0.15852 0.0
C1645 C 0.56158 0.98232 0.13267 0.0
C1646 C 0.58752 0.0066 0.10948 0.0
H1647 H 0.61375 0.98654 0.04788 0.0
H1648 H 0.59908 0.98288 0.07038 0.0
H1649 H 0.60012 0.01705 0.0898 0.0
H1650 H 0.56942 0.00735 0.16743 0.0
H1651 H 0.58381 0.0112 0.14438 0.0
H1652 H 0.58057 0.97806 0.12187 0.0
C1653 C 0.60688 0.99205 0.06903 0.0
C1654 C 0.59608 0.00857 0.09684 0.0
C1655 C 0.61527 0.99416 0.05606 0.0
C1656 C 0.56696 0.00034 0.15766 0.0
C1657 C 0.57524 0.00255 0.1445 0.0
C1658 C 0.58476 0.98658 0.11488 0.0
C1659 C 0.60833 0.00174 0.07971 0.0
C1660 C 0.59919 0.99961 0.09317 0.0
C1661 C 0.57271 0.99349 0.13202 0.0
C1662 C 0.58175 0.99558 0.11857 0.0
H1663 H 0.63446 0.0249 0.06252 0.0
H1664 H 0.6201 0.02116 0.08543 0.0
H1665 H 0.59573 0.98158 0.10015 0.0
H1666 H 0.54469 0.97148 0.14572 0.0
H1667 H 0.55931 0.97525 0.12305 0.0
C1668 C 0.99819 0.62424 0.05739 0.0
C1669 C 0.00991 0.63258 0.0512 0.0
C1670 C 0.99656 0.616 0.07028 0.0
C1671 C 0.01317 0.61015 0.10404 0.0
H1672 H 0.98638 0.57652 0.09991 0.0
C1673 C 0.00988 0.57153 0.14592 0.0
C1674 C 0.99845 0.56345 0.15314 0.0
C1675 C 0.01107 0.57977 0.13331 0.0
C1676 C 0.99384 0.5859 0.10132 0.0
H1677 H 0.02911 0.63887 0.05404 0.0
H1678 H 0.02624 0.62445 0.07623 0.0
H1679 H 0.98874 0.59157 0.07883 0.0
H1680 H 0.97929 0.55768 0.1526 0.0
H1681 H 0.98137 0.57194 0.13046 0.0
H1682 H 0.01834 0.60443 0.12642 0.0
C1683 C 0.01831 0.62438 0.07132 0.0
C1684 C 0.99518 0.59455 0.08927 0.0
C1685 C 0.01995 0.63263 0.05849 0.0
C1686 C 0.9882 0.56361 0.14713 0.0
C1687 C 0.98939 0.57182 0.13447 0.0
C1688 C 0.01187 0.60149 0.11602 0.0
C1689 C 0.00659 0.61588 0.07728 0.0
C1690 C 0.00489 0.60677 0.09044 0.0
C1691 C 0.00086 0.5801 0.12757 0.0
C1692 C 0.00222 0.58926 0.11477 0.0
H1693 H 0.99025 0.62397 0.05214 0.0
H1694 H 0.98742 0.60971 0.07476 0.0
H1695 H 0.02063 0.61952 0.10552 0.0
H1696 H 0.01793 0.57153 0.15006 0.0
H1697 H 0.02001 0.5859 0.12803 0.0
C1698 C 0.38976 0.37082 0.05923 0.0
C1699 C 0.38014 0.37166 0.05218 0.0
C1700 C 0.39622 0.37805 0.07324 0.0
C1701 C 0.4043 0.40661 0.09648 0.0
H1702 H 0.41554 0.39247 0.13008 0.0
C1703 C 0.43339 0.43168 0.15757 0.0
C1704 C 0.44349 0.43022 0.15975 0.0
C1705 C 0.42488 0.42521 0.14462 0.0
C1706 C 0.41248 0.39654 0.12078 0.0
H1707 H 0.36973 0.38077 0.05457 0.0
H1708 H 0.38105 0.39339 0.07934 0.0
H1709 H 0.40134 0.37936 0.10802 0.0
H1710 H 0.45303 0.42156 0.14924 0.0
H1711 H 0.43809 0.41013 0.12702 0.0
H1712 H 0.41556 0.42385 0.10948 0.0
C1713 C 0.3836 0.38716 0.07379 0.0
C1714 C 0.40436 0.38905 0.10812 0.0
C1715 C 0.37709 0.37989 0.05966 0.0
C1716 C 0.4452 0.42265 0.14821 0.0
C1717 C 0.43667 0.41612 0.13546 0.0
C1718 C 0.41237 0.41412 0.10932 0.0
C1719 C 0.39324 0.38629 0.08074 0.0
C1720 C 0.40047 0.39405 0.09549 0.0
C1721 C 0.4263 0.41712 0.13378 0.0
C1722 C 0.41679 0.40918 0.12126 0.0
H1723 H 0.39245 0.36466 0.05382 0.0
H1724 H 0.40375 0.37732 0.07801 0.0
H1725 H 0.4015 0.41075 0.08691 0.0
H1726 H 0.43176 0.43737 0.1663 0.0
H1727 H 0.41695 0.42612 0.14356 0.0
C1728 C 0.67179 0.71839 0.39197 0.0
C1729 C 0.65996 0.7086 0.38844 0.0
C1730 C 0.67387 0.72657 0.40547 0.0
C1731 C 0.66104 0.72971 0.44597 0.0
H1732 H 0.67941 0.76466 0.437 0.0
C1733 C 0.66154 0.76475 0.49378 0.0
C1734 C 0.67246 0.77602 0.49617 0.0
C1735 C 0.66042 0.75669 0.48064 0.0
C1736 C 0.67442 0.75495 0.43983 0.0
H1737 H 0.64111 0.69955 0.39667 0.0
H1738 H 0.64479 0.71373 0.42031 0.0
H1739 H 0.67705 0.75008 0.41452 0.0
H1740 H 0.69071 0.78768 0.48627 0.0
H1741 H 0.68889 0.77342 0.46371 0.0
H1742 H 0.65849 0.73449 0.47128 0.0
C1743 C 0.65243 0.71509 0.41259 0.0
C1744 C 0.67305 0.7466 0.42692 0.0
C1745 C 0.65032 0.707 0.39898 0.0
C1746 C 0.6822 0.77904 0.48495 0.0
C1747 C 0.68111 0.77091 0.47186 0.0
C1748 C 0.66249 0.73804 0.45892 0.0
C1749 C 0.66419 0.72503 0.41586 0.0
C1750 C 0.66624 0.7339 0.42982 0.0
C1751 C 0.67022 0.75959 0.46962 0.0
C1752 C 0.66908 0.75077 0.45596 0.0
H1753 H 0.67941 0.7199 0.38409 0.0
H1754 H 0.68304 0.73411 0.40781 0.0
H1755 H 0.65587 0.71998 0.44862 0.0
H1756 H 0.65389 0.762 0.5023 0.0
H1757 H 0.65182 0.74816 0.47914 0.0
C1758 C 0.28397 0.96202 0.40557 0.0
C1759 C 0.28816 0.95966 0.39022 0.0
C1760 C 0.27856 0.95295 0.41799 0.0
C1761 C 0.27347 0.92207 0.42999 0.0
H1762 H 0.2485 0.92184 0.45846 0.0
C1763 C 0.25201 0.88873 0.48655 0.0
C1764 C 0.2401 0.88515 0.49177 0.0
C1765 C 0.25779 0.89737 0.47366 0.0
C1766 C 0.25528 0.92156 0.45045 0.0
H1767 H 0.28989 0.94598 0.37569 0.0
H1768 H 0.27985 0.92994 0.39679 0.0
H1769 H 0.25846 0.93748 0.43713 0.0
H1770 H 0.22485 0.8877 0.48671 0.0
H1771 H 0.23446 0.90178 0.46348 0.0
H1772 H 0.26967 0.90563 0.44254 0.0
C1773 C 0.28115 0.9389 0.39972 0.0
C1774 C 0.26124 0.93078 0.43838 0.0
C1775 C 0.28686 0.94809 0.38752 0.0
C1776 C 0.23394 0.89001 0.48305 0.0
C1777 C 0.23961 0.89839 0.46988 0.0
C1778 C 0.26728 0.91265 0.44178 0.0
C1779 C 0.27688 0.94117 0.41515 0.0
C1780 C 0.2705 0.93125 0.42803 0.0
C1781 C 0.25174 0.90247 0.46529 0.0
C1782 C 0.25813 0.91229 0.45227 0.0
H1783 H 0.28497 0.97092 0.40803 0.0
H1784 H 0.27574 0.95524 0.42983 0.0
H1785 H 0.28065 0.92215 0.42253 0.0
H1786 H 0.25701 0.88503 0.49259 0.0
H1787 H 0.26715 0.90028 0.47068 0.0
C1788 C 0.04368 0.31818 0.39326 0.0
C1789 C 0.04171 0.32732 0.3868 0.0
C1790 C 0.05223 0.32094 0.40612 0.0
C1791 C 0.07934 0.34708 0.42678 0.0
H1792 H 0.07329 0.3226 0.46073 0.0
C1793 C 0.1094 0.35627 0.48684 0.0
C1794 C 0.11224 0.34722 0.49083 0.0
C1795 C 0.10123 0.35431 0.4737 0.0
C1796 C 0.07515 0.32949 0.45124 0.0
H1797 H 0.04706 0.3465 0.38917 0.0
H1798 H 0.06174 0.35124 0.41202 0.0
H1799 H 0.05774 0.31837 0.43955 0.0
H1800 H 0.10907 0.32924 0.48346 0.0
H1801 H 0.09459 0.32574 0.46085 0.0
H1802 H 0.09669 0.35828 0.43887 0.0
C1803 C 0.05686 0.34199 0.40682 0.0
C1804 C 0.06625 0.32706 0.43906 0.0
C1805 C 0.04837 0.33925 0.39379 0.0
C1806 C 0.10693 0.33631 0.48102 0.0
C1807 C 0.09865 0.33431 0.46803 0.0
C1808 C 0.0882 0.34956 0.43911 0.0
C1809 C 0.05897 0.33288 0.41306 0.0
C1810 C 0.06826 0.33577 0.42654 0.0
C1811 C 0.0956 0.34322 0.46439 0.0
C1812 C 0.08623 0.34073 0.45136 0.0
H1813 H 0.03882 0.30891 0.38811 0.0
H1814 H 0.05373 0.31373 0.41033 0.0
H1815 H 0.0813 0.35394 0.41722 0.0
H1816 H 0.11314 0.3647 0.49426 0.0
H1817 H 0.09898 0.3613 0.47126 0.0
C1818 C 0.03909 0.31706 0.29337 0.0
C1819 C 0.04222 0.32678 0.30497 0.0
C1820 C 0.04716 0.31807 0.2806 0.0
C1821 C 0.07478 0.3398 0.25666 0.0
H1822 H 0.07598 0.31025 0.24788 0.0
C1823 C 0.10796 0.33624 0.20834 0.0
C1824 C 0.10213 0.32624 0.19683 0.0
C1825 C 0.10164 0.33725 0.22234 0.0
C1826 C 0.07574 0.31857 0.25019 0.0
H1827 H 0.05613 0.3454 0.31183 0.0
H1828 H 0.07042 0.34709 0.28952 0.0
H1829 H 0.06313 0.31051 0.2707 0.0
H1830 H 0.0849 0.3097 0.19087 0.0
H1831 H 0.07414 0.31128 0.21547 0.0
H1832 H 0.08752 0.34781 0.23601 0.0
C1833 C 0.06163 0.33872 0.29029 0.0
C1834 C 0.06833 0.31871 0.26319 0.0
C1835 C 0.05346 0.33775 0.30307 0.0
C1836 C 0.08984 0.31733 0.19968 0.0
C1837 C 0.08361 0.31827 0.21373 0.0
C1838 C 0.08231 0.33969 0.24368 0.0
C1839 C 0.05866 0.32876 0.27916 0.0
C1840 C 0.06749 0.3292 0.26631 0.0
C1841 C 0.08943 0.32821 0.22521 0.0
C1842 C 0.08262 0.32896 0.24008 0.0
H1843 H 0.03042 0.30856 0.29427 0.0
H1844 H 0.0444 0.31036 0.27192 0.0
H1845 H 0.07433 0.34802 0.25871 0.0
H1846 H 0.11744 0.34321 0.20667 0.0
H1847 H 0.10634 0.34498 0.23108 0.0
C1848 C 0.67413 0.71935 0.30467 0.0
C1849 C 0.66195 0.70986 0.30654 0.0
C1850 C 0.67735 0.72837 0.2923 0.0
C1851 C 0.66381 0.74233 0.26581 0.0
H1852 H 0.69393 0.7556 0.24027 0.0
C1853 C 0.67387 0.77225 0.20618 0.0
C1854 C 0.68568 0.78248 0.20431 0.0
C1855 C 0.6712 0.76391 0.21932 0.0
C1856 C 0.68555 0.75208 0.24745 0.0
H1857 H 0.6437 0.70214 0.29634 0.0
H1858 H 0.64935 0.71765 0.27462 0.0
H1859 H 0.68891 0.7397 0.26137 0.0
H1860 H 0.70382 0.79212 0.21525 0.0
H1861 H 0.69916 0.77744 0.23809 0.0
H1862 H 0.66037 0.75457 0.25168 0.0
C1863 C 0.65637 0.71835 0.283 0.0
C1864 C 0.68267 0.74297 0.25955 0.0
C1865 C 0.65315 0.70939 0.2954 0.0
C1866 C 0.69469 0.78425 0.21614 0.0
C1867 C 0.69202 0.77585 0.22923 0.0
C1868 C 0.66665 0.75138 0.25366 0.0
C1869 C 0.66847 0.72806 0.28146 0.0
C1870 C 0.67172 0.73793 0.2688 0.0
C1871 C 0.68028 0.76553 0.23087 0.0
C1872 C 0.67752 0.7563 0.24428 0.0
H1873 H 0.68114 0.72002 0.31305 0.0
H1874 H 0.68674 0.73577 0.29157 0.0
H1875 H 0.65543 0.73886 0.27296 0.0
H1876 H 0.66676 0.77044 0.19713 0.0
H1877 H 0.6621 0.75596 0.22012 0.0
C1878 C 0.28777 0.95276 0.30417 0.0
C1879 C 0.28596 0.96245 0.30882 0.0
C1880 C 0.28114 0.94476 0.29075 0.0
C1881 C 0.25295 0.93412 0.26547 0.0
H1882 H 0.2673 0.92037 0.2355 0.0
C1883 C 0.22992 0.90697 0.20353 0.0
C1884 C 0.22997 0.89601 0.20066 0.0
C1885 C 0.23659 0.9149 0.21697 0.0
C1886 C 0.26316 0.92407 0.24388 0.0
H1887 H 0.27614 0.97164 0.30254 0.0
H1888 H 0.2649 0.95797 0.27886 0.0
H1889 H 0.27966 0.93496 0.2579 0.0
H1890 H 0.23686 0.8847 0.21007 0.0
H1891 H 0.24873 0.89873 0.23328 0.0
H1892 H 0.23653 0.9234 0.25114 0.0
C1893 C 0.27114 0.95628 0.2859 0.0
C1894 C 0.27022 0.9324 0.25674 0.0
C1895 C 0.27766 0.96419 0.29942 0.0
C1896 C 0.23677 0.89315 0.21169 0.0
C1897 C 0.24355 0.90116 0.22501 0.0
C1898 C 0.24595 0.92589 0.2525 0.0
C1899 C 0.27265 0.94634 0.28155 0.0
C1900 C 0.2652 0.93754 0.26772 0.0
C1901 C 0.24356 0.91213 0.22773 0.0
C1902 C 0.25097 0.92077 0.24159 0.0
H1903 H 0.29405 0.95112 0.31121 0.0
H1904 H 0.28245 0.93713 0.28792 0.0
H1905 H 0.2487 0.93767 0.27389 0.0
H1906 H 0.22498 0.90961 0.19513 0.0
H1907 H 0.23654 0.92337 0.21867 0.0
C1908 C 0.66819 0.95474 0.29834 0.0
C1909 C 0.67901 0.96171 0.30771 0.0
C1910 C 0.66773 0.9474 0.28448 0.0
C1911 C 0.68795 0.94372 0.25398 0.0
H1912 H 0.66012 0.91103 0.24656 0.0
C1913 C 0.68991 0.90968 0.20695 0.0
C1914 C 0.68005 0.90334 0.19567 0.0
C1915 C 0.68919 0.91635 0.22077 0.0
C1916 C 0.6679 0.92018 0.24841 0.0
H1917 H 0.69776 0.96616 0.31 0.0
H1918 H 0.69689 0.95333 0.28623 0.0
H1919 H 0.65987 0.92373 0.27017 0.0
H1920 H 0.6616 0.89887 0.19031 0.0
H1921 H 0.66031 0.91042 0.2146 0.0
H1922 H 0.69604 0.94015 0.2324 0.0
C1923 C 0.68882 0.95372 0.28927 0.0
C1924 C 0.66776 0.92747 0.26189 0.0
C1925 C 0.68929 0.96105 0.30301 0.0
C1926 C 0.66931 0.90352 0.19886 0.0
C1927 C 0.66857 0.91016 0.21276 0.0
C1928 C 0.68812 0.93643 0.24061 0.0
C1929 C 0.67808 0.94687 0.27975 0.0
C1930 C 0.67784 0.93928 0.26494 0.0
C1931 C 0.67858 0.9168 0.22369 0.0
C1932 C 0.67816 0.92454 0.23776 0.0
H1933 H 0.6601 0.95503 0.3016 0.0
H1934 H 0.65934 0.94231 0.27733 0.0
H1935 H 0.69576 0.95287 0.25571 0.0
H1936 H 0.69823 0.90954 0.20506 0.0
H1937 H 0.69697 0.92119 0.22918 0.0
C1938 C 0.03968 0.71593 0.29963 0.0
C1939 C 0.0447 0.70873 0.3041 0.0
C1940 C 0.04532 0.72511 0.28734 0.0
C1941 C 0.07527 0.74538 0.26839 0.0
H1942 H 0.05763 0.74868 0.23083 0.0
C1943 C 0.09973 0.77405 0.20941 0.0
C1944 C 0.09494 0.78042 0.20113 0.0
C1945 C 0.09348 0.76623 0.22292 0.0
C1946 C 0.06267 0.74804 0.24141 0.0
H1947 H 0.05945 0.70539 0.29877 0.0
H1948 H 0.06923 0.72136 0.27752 0.0
H1949 H 0.04659 0.73301 0.25237 0.0
H1950 H 0.07991 0.78373 0.20086 0.0
H1951 H 0.06916 0.77032 0.2248 0.0
H1952 H 0.09133 0.76038 0.25762 0.0
C1953 C 0.06099 0.71996 0.28361 0.0
C1954 C 0.05634 0.73903 0.2537 0.0
C1955 C 0.05531 0.71074 0.29571 0.0
C1956 C 0.08391 0.77904 0.20704 0.0
C1957 C 0.07766 0.77123 0.22062 0.0
C1958 C 0.08158 0.75444 0.25623 0.0
C1959 C 0.05616 0.72735 0.27945 0.0
C1960 C 0.06262 0.73746 0.26711 0.0
C1961 C 0.08231 0.76462 0.2286 0.0
C1962 C 0.07541 0.75573 0.24239 0.0
H1963 H 0.0315 0.71462 0.3058 0.0
H1964 H 0.04141 0.73068 0.28436 0.0
H1965 H 0.08032 0.74453 0.2788 0.0
H1966 H 0.10828 0.77502 0.20534 0.0
H1967 H 0.09728 0.76119 0.2286 0.0
C1968 C 0.2869 0.32782 0.29609 0.0
C1969 C 0.29351 0.34009 0.30189 0.0
C1970 C 0.2783 0.32433 0.28297 0.0
C1971 C 0.26859 0.33767 0.24868 0.0
H1972 H 0.23805 0.30662 0.25087 0.0
C1973 C 0.22689 0.32827 0.20979 0.0
C1974 C 0.22192 0.31781 0.19907 0.0
C1975 C 0.23523 0.33001 0.22251 0.0
C1976 C 0.24658 0.31528 0.25009 0.0
H1977 H 0.29613 0.35826 0.29851 0.0
H1978 H 0.28105 0.35218 0.27628 0.0
H1979 H 0.25381 0.31161 0.27231 0.0
H1980 H 0.22146 0.30069 0.194 0.0
H1981 H 0.23573 0.3036 0.21672 0.0
H1982 H 0.26116 0.34151 0.22687 0.0
C1983 C 0.28269 0.34526 0.28137 0.0
C1984 C 0.25564 0.31812 0.26228 0.0
C1985 C 0.29134 0.34875 0.29427 0.0
C1986 C 0.22498 0.3088 0.20209 0.0
C1987 C 0.23321 0.31047 0.21503 0.0
C1988 C 0.25948 0.33491 0.23673 0.0
C1989 C 0.27605 0.33302 0.2755 0.0
C1990 C 0.26671 0.32945 0.26187 0.0
C1991 C 0.23864 0.32125 0.22503 0.0
C1992 C 0.24835 0.32377 0.23743 0.0
H1993 H 0.28836 0.32091 0.30166 0.0
H1994 H 0.27347 0.31485 0.27866 0.0
H1995 H 0.27709 0.34632 0.24761 0.0
H1996 H 0.22452 0.33526 0.20816 0.0
H1997 H 0.23915 0.33831 0.23026 0.0
C1998 C 0.28785 0.33484 0.39351 0.0
C1999 C 0.29247 0.34472 0.38213 0.0
C2000 C 0.28036 0.33414 0.40713 0.0
C2001 C 0.2726 0.35409 0.43261 0.0
H2002 H 0.24507 0.32337 0.44796 0.0
C2003 C 0.23783 0.35285 0.4805 0.0
C2004 C 0.23496 0.34494 0.49441 0.0
C2005 C 0.24426 0.35208 0.46652 0.0
C2006 C 0.25278 0.332 0.44384 0.0
H2007 H 0.2923 0.36121 0.37558 0.0
H2008 H 0.27909 0.3598 0.39881 0.0
H2009 H 0.25746 0.3233 0.42405 0.0
H2010 H 0.23647 0.32987 0.50435 0.0
H2011 H 0.24749 0.32841 0.47978 0.0
H2012 H 0.26784 0.3628 0.45219 0.0
C2013 C 0.28155 0.35283 0.3977 0.0
C2014 C 0.2599 0.33197 0.43021 0.0
C2015 C 0.28911 0.3536 0.3843 0.0
C2016 C 0.23836 0.336 0.49376 0.0
C2017 C 0.2447 0.33516 0.47971 0.0
C2018 C 0.26544 0.35413 0.44608 0.0
C2019 C 0.27726 0.34324 0.4095 0.0
C2020 C 0.26984 0.34304 0.42434 0.0
C2021 C 0.24788 0.34333 0.46608 0.0
C2022 C 0.25541 0.34311 0.45177 0.0
H2023 H 0.29028 0.32785 0.39216 0.0
H2024 H 0.27726 0.32666 0.41603 0.0
H2025 H 0.28037 0.36276 0.42876 0.0
H2026 H 0.23516 0.35968 0.48041 0.0
H2027 H 0.24643 0.35837 0.45606 0.0
C2028 C 0.65992 0.95251 0.39269 0.0
C2029 C 0.67224 0.95953 0.38791 0.0
C2030 C 0.65608 0.94305 0.40454 0.0
C2031 C 0.66452 0.92164 0.42135 0.0
H2032 H 0.6445 0.91876 0.46042 0.0
C2033 C 0.65975 0.89199 0.47893 0.0
C2034 C 0.64883 0.88624 0.48824 0.0
C2035 C 0.66138 0.89982 0.46552 0.0
C2036 C 0.64989 0.91926 0.4494 0.0
H2037 H 0.6902 0.9622 0.39213 0.0
H2038 H 0.68347 0.94569 0.4126 0.0
H2039 H 0.64968 0.93486 0.43956 0.0
H2040 H 0.63084 0.88387 0.49029 0.0
H2041 H 0.63353 0.89726 0.46646 0.0
H2042 H 0.66473 0.90607 0.43097 0.0
C2043 C 0.67679 0.94748 0.40713 0.0
C2044 C 0.65289 0.92853 0.43751 0.0
C2045 C 0.68065 0.95701 0.39549 0.0
C2046 C 0.63935 0.8881 0.48332 0.0
C2047 C 0.64095 0.89591 0.46981 0.0
C2048 C 0.66142 0.91231 0.4331 0.0
C2049 C 0.66446 0.94033 0.41164 0.0
C2050 C 0.66045 0.92996 0.42357 0.0
C2051 C 0.65208 0.90204 0.46093 0.0
C2052 C 0.65428 0.91115 0.44749 0.0
H2053 H 0.6532 0.95422 0.38713 0.0
H2054 H 0.64652 0.93766 0.4078 0.0
H2055 H 0.67017 0.9224 0.41053 0.0
H2056 H 0.66718 0.89062 0.48221 0.0
H2057 H 0.67012 0.90446 0.45915 0.0
C2058 C 0.04567 0.71598 0.39346 0.0
C2059 C 0.04944 0.70866 0.38486 0.0
C2060 C 0.05246 0.72354 0.40724 0.0
C2061 C 0.07503 0.72671 0.43919 0.0
H2062 H 0.08313 0.76056 0.44401 0.0
C2063 C 0.11355 0.76004 0.48286 0.0
C2064 C 0.11095 0.76684 0.49464 0.0
C2065 C 0.10567 0.75381 0.46932 0.0
C2066 C 0.08083 0.75109 0.44288 0.0
H2067 H 0.06349 0.70387 0.38382 0.0
H2068 H 0.07519 0.71699 0.40744 0.0
H2069 H 0.0695 0.74763 0.42093 0.0
H2070 H 0.09836 0.77297 0.50089 0.0
H2071 H 0.08459 0.76213 0.47695 0.0
H2072 H 0.08647 0.73013 0.4608 0.0
C2073 C 0.0669 0.71674 0.40385 0.0
C2074 C 0.07301 0.74368 0.42973 0.0
C2075 C 0.06018 0.70923 0.39019 0.0
C2076 C 0.10064 0.76786 0.49197 0.0
C2077 C 0.09275 0.76163 0.47832 0.0
C2078 C 0.08285 0.73408 0.45217 0.0
C2079 C 0.06308 0.72388 0.41268 0.0
C2080 C 0.07026 0.73149 0.42754 0.0
C2081 C 0.09502 0.75426 0.46717 0.0
C2082 C 0.08605 0.74641 0.45395 0.0
H2083 H 0.03746 0.71579 0.38967 0.0
H2084 H 0.04927 0.72894 0.41383 0.0
H2085 H 0.07284 0.71726 0.43813 0.0
H2086 H 0.12156 0.7593 0.48434 0.0
H2087 H 0.10778 0.74841 0.46068 0.0
C2088 C 0.33804 0.05197 0.72548 0.0
C2089 C 0.32647 0.04157 0.72263 0.0
C2090 C 0.33993 0.06006 0.73904 0.0
C2091 C 0.3277 0.06253 0.78049 0.0
H2092 H 0.34291 0.09715 0.77013 0.0
C2093 C 0.3277 0.09707 0.82907 0.0
C2094 C 0.33827 0.10875 0.83033 0.0
C2095 C 0.32636 0.08896 0.81584 0.0
C2096 C 0.33881 0.08755 0.77334 0.0
H2097 H 0.30796 0.03123 0.73221 0.0
H2098 H 0.31133 0.04523 0.75596 0.0
H2099 H 0.34101 0.08265 0.74784 0.0
H2100 H 0.35553 0.12118 0.81821 0.0
H2101 H 0.35342 0.10691 0.79559 0.0
H2102 H 0.32563 0.06736 0.80602 0.0
C2103 C 0.3189 0.04718 0.74765 0.0
C2104 C 0.33772 0.07925 0.76055 0.0
C2105 C 0.31697 0.03919 0.73399 0.0
C2106 C 0.34735 0.11219 0.81782 0.0
C2107 C 0.34606 0.10405 0.80468 0.0
C2108 C 0.3289 0.07084 0.79334 0.0
C2109 C 0.33034 0.05779 0.75016 0.0
C2110 C 0.33208 0.06665 0.76397 0.0
C2111 C 0.33559 0.09228 0.80359 0.0
C2112 C 0.3344 0.08345 0.78991 0.0
H2113 H 0.34554 0.05408 0.71695 0.0
H2114 H 0.34887 0.06814 0.74079 0.0
H2115 H 0.32341 0.05288 0.78352 0.0
H2116 H 0.32056 0.09404 0.83855 0.0
H2117 H 0.31807 0.08006 0.81526 0.0
C2118 C 0.95287 0.29767 0.73619 0.0
C2119 C 0.95804 0.29519 0.72198 0.0
C2120 C 0.94776 0.28924 0.74942 0.0
C2121 C 0.9453 0.26086 0.76726 0.0
H2122 H 0.91617 0.25761 0.78793 0.0
C2123 C 0.91219 0.22115 0.8123 0.0
C2124 C 0.90918 0.22505 0.82751 0.0
C2125 C 0.91878 0.22958 0.79944 0.0
C2126 C 0.92433 0.25846 0.78231 0.0
H2127 H 0.96217 0.28205 0.71064 0.0
H2128 H 0.95285 0.26711 0.7334 0.0
H2129 H 0.92655 0.27259 0.76559 0.0
H2130 H 0.91136 0.24102 0.84137 0.0
H2131 H 0.92241 0.25551 0.81874 0.0
H2132 H 0.94269 0.24634 0.78381 0.0
C2133 C 0.95299 0.2757 0.73459 0.0
C2134 C 0.93035 0.26712 0.76959 0.0
C2135 C 0.95831 0.28425 0.72149 0.0
C2136 C 0.91316 0.23759 0.82966 0.0
C2137 C 0.91957 0.24593 0.81675 0.0
C2138 C 0.93913 0.25205 0.77985 0.0
C2139 C 0.94746 0.27799 0.74861 0.0
C2140 C 0.94101 0.26856 0.76201 0.0
C2141 C 0.92236 0.242 0.80148 0.0
C2142 C 0.92867 0.25088 0.78761 0.0
H2143 H 0.95267 0.3061 0.73703 0.0
H2144 H 0.94393 0.29152 0.76021 0.0
H2145 H 0.95353 0.26177 0.76187 0.0
H2146 H 0.90921 0.21157 0.81015 0.0
H2147 H 0.92079 0.22633 0.78772 0.0
C2148 C 0.71087 0.6577 0.73505 0.0
C2149 C 0.71168 0.66596 0.72259 0.0
C2150 C 0.71933 0.66164 0.7483 0.0
C2151 C 0.75062 0.68525 0.75936 0.0
H2152 H 0.74038 0.67262 0.80506 0.0
C2153 C 0.78431 0.69831 0.81622 0.0
C2154 C 0.78222 0.68862 0.82696 0.0
C2155 C 0.77586 0.69657 0.80358 0.0
C2156 C 0.74341 0.67616 0.79233 0.0
H2157 H 0.72193 0.68496 0.71456 0.0
H2158 H 0.73675 0.69183 0.73781 0.0
H2159 H 0.72513 0.66795 0.78318 0.0
H2160 H 0.76954 0.6695 0.83284 0.0
H2161 H 0.75504 0.66639 0.81066 0.0
H2162 H 0.76893 0.69327 0.76849 0.0
C2163 C 0.72957 0.68228 0.73718 0.0
C2164 C 0.73466 0.6735 0.77981 0.0
C2165 C 0.72103 0.67834 0.72393 0.0
C2166 C 0.77156 0.67712 0.82465 0.0
C2167 C 0.76313 0.67539 0.81208 0.0
C2168 C 0.7594 0.6879 0.77192 0.0
C2169 C 0.72885 0.67394 0.74944 0.0
C2170 C 0.73816 0.67782 0.7631 0.0
C2171 C 0.76511 0.68511 0.80151 0.0
C2172 C 0.75588 0.68318 0.78846 0.0
H2173 H 0.70378 0.6481 0.73447 0.0
H2174 H 0.7186 0.65494 0.75742 0.0
H2175 H 0.75361 0.68863 0.74657 0.0
H2176 H 0.79247 0.70726 0.81761 0.0
H2177 H 0.77763 0.70425 0.79568 0.0
C2178 C 0.71898 0.6543 0.64034 0.0
C2179 C 0.71303 0.66102 0.64126 0.0
C2180 C 0.7266 0.65576 0.62661 0.0
C2181 C 0.73043 0.66221 0.58185 0.0
H2182 H 0.76299 0.66793 0.58799 0.0
C2183 C 0.75885 0.66296 0.52406 0.0
C2184 C 0.76599 0.65761 0.52615 0.0
C2185 C 0.75355 0.66523 0.5382 0.0
C2186 C 0.75387 0.66618 0.58603 0.0
H2187 H 0.71047 0.67463 0.62862 0.0
H2188 H 0.72354 0.67686 0.60417 0.0
H2189 H 0.75152 0.66844 0.61271 0.0
H2190 H 0.77336 0.65049 0.54435 0.0
H2191 H 0.76374 0.65396 0.56911 0.0
H2192 H 0.73234 0.65922 0.55544 0.0
C2193 C 0.72239 0.67061 0.61427 0.0
C2194 C 0.74736 0.66658 0.60019 0.0
C2195 C 0.71496 0.66936 0.62824 0.0
C2196 C 0.76794 0.65472 0.54256 0.0
C2197 C 0.76248 0.6568 0.55671 0.0
C2198 C 0.73684 0.66159 0.56773 0.0
C2199 C 0.72824 0.66379 0.61334 0.0
C2200 C 0.73555 0.66449 0.59823 0.0
C2201 C 0.7551 0.66198 0.55471 0.0
C2202 C 0.74861 0.66344 0.56963 0.0
H2203 H 0.71773 0.64787 0.65024 0.0
H2204 H 0.73094 0.65034 0.62611 0.0
H2205 H 0.72127 0.66041 0.58007 0.0
H2206 H 0.75728 0.66527 0.51144 0.0
H2207 H 0.74817 0.66947 0.53613 0.0
C2208 C 0.31819 0.04327 0.62958 0.0
C2209 C 0.32711 0.04371 0.64044 0.0
C2210 C 0.32135 0.05205 0.61691 0.0
C2211 C 0.3446 0.08356 0.60569 0.0
H2212 H 0.33088 0.07378 0.56025 0.0
C2213 C 0.3595 0.11786 0.5498 0.0
C2214 C 0.3505 0.11628 0.53811 0.0
C2215 C 0.35685 0.10919 0.56253 0.0
C2216 C 0.33467 0.07671 0.57294 0.0
H2217 H 0.34643 0.05372 0.6463 0.0
H2218 H 0.35191 0.06907 0.62419 0.0
H2219 H 0.32594 0.05817 0.58168 0.0
H2220 H 0.33159 0.10434 0.53084 0.0
H2221 H 0.32688 0.08959 0.55334 0.0
H2222 H 0.35318 0.10211 0.59706 0.0
C2223 C 0.34245 0.06194 0.62559 0.0
C2224 C 0.33186 0.06774 0.5852 0.0
C2225 C 0.33931 0.05309 0.63818 0.0
C2226 C 0.33872 0.10598 0.53974 0.0
C2227 C 0.33606 0.09738 0.55249 0.0
C2228 C 0.34735 0.09255 0.59346 0.0
C2229 C 0.3335 0.06154 0.61486 0.0
C2230 C 0.33676 0.07107 0.60172 0.0
C2231 C 0.34513 0.09877 0.5639 0.0
C2232 C 0.34237 0.08924 0.57694 0.0
H2233 H 0.30871 0.03617 0.63092 0.0
H2234 H 0.31424 0.05156 0.60892 0.0
H2235 H 0.3484 0.08641 0.61839 0.0
H2236 H 0.36864 0.12574 0.54905 0.0
H2237 H 0.36409 0.11053 0.57101 0.0
C2238 C 0.95729 0.28783 0.6294 0.0
C2239 C 0.95135 0.29178 0.64065 0.0
C2240 C 0.95095 0.27981 0.61583 0.0
C2241 C 0.92253 0.26803 0.5904 0.0
H2242 H 0.92956 0.24295 0.57592 0.0
C2243 C 0.89189 0.22883 0.5435 0.0
C2244 C 0.89788 0.22699 0.52967 0.0
C2245 C 0.89852 0.23652 0.55717 0.0
C2246 C 0.92756 0.24996 0.5798 0.0
H2247 H 0.93399 0.29006 0.64683 0.0
H2248 H 0.9229 0.27583 0.62368 0.0
H2249 H 0.94096 0.25675 0.59961 0.0
H2250 H 0.91564 0.2319 0.51951 0.0
H2251 H 0.92711 0.24497 0.54364 0.0
H2252 H 0.90894 0.26101 0.57081 0.0
C2253 C 0.93254 0.27922 0.62488 0.0
C2254 C 0.93412 0.25791 0.59331 0.0
C2255 C 0.9389 0.28734 0.63825 0.0
C2256 C 0.91067 0.23287 0.53006 0.0
C2257 C 0.91728 0.24042 0.54384 0.0
C2258 C 0.91588 0.25998 0.57707 0.0
C2259 C 0.93849 0.27544 0.61336 0.0
C2260 C 0.93168 0.26704 0.59881 0.0
C2261 C 0.91127 0.24242 0.55743 0.0
C2262 C 0.91832 0.25086 0.57166 0.0
H2263 H 0.9669 0.29114 0.63087 0.0
H2264 H 0.95588 0.27722 0.60711 0.0
H2265 H 0.92057 0.27512 0.59397 0.0
H2266 H 0.88206 0.2243 0.54382 0.0
H2267 H 0.89367 0.2378 0.5676 0.0
C2268 C 0.35002 0.30059 0.62218 0.0
C2269 C 0.34127 0.29567 0.63519 0.0
C2270 C 0.34957 0.29328 0.60844 0.0
C2271 C 0.33024 0.26324 0.58616 0.0
H2272 H 0.36172 0.26999 0.56968 0.0
C2273 C 0.33939 0.23325 0.5373 0.0
C2274 C 0.34651 0.23998 0.52324 0.0
C2275 C 0.33765 0.23926 0.5512 0.0
C2276 C 0.35288 0.26802 0.57417 0.0
H2277 H 0.32493 0.27936 0.6438 0.0
H2278 H 0.32437 0.26635 0.62001 0.0
H2279 H 0.36069 0.28189 0.59352 0.0
H2280 H 0.3568 0.25827 0.51252 0.0
H2281 H 0.3542 0.26868 0.53703 0.0
H2282 H 0.32254 0.24905 0.56685 0.0
C2283 C 0.33146 0.27595 0.62024 0.0
C2284 C 0.35226 0.2749 0.58773 0.0
C2285 C 0.33177 0.28338 0.63389 0.0
C2286 C 0.35159 0.25279 0.52329 0.0
C2287 C 0.35002 0.25878 0.53725 0.0
C2288 C 0.33088 0.25619 0.5727 0.0
C2289 C 0.34053 0.28076 0.60753 0.0
C2290 C 0.34095 0.27281 0.59368 0.0
C2291 C 0.34314 0.25209 0.55136 0.0
C2292 C 0.34222 0.2587 0.56643 0.0
H2293 H 0.35732 0.3101 0.62272 0.0
H2294 H 0.35646 0.29745 0.59862 0.0
H2295 H 0.32139 0.2614 0.59033 0.0
H2296 H 0.33541 0.22339 0.53778 0.0
H2297 H 0.33234 0.23394 0.56202 0.0
C2298 C 0.71048 0.04886 0.63182 0.0
C2299 C 0.71501 0.04132 0.63674 0.0
C2300 C 0.71641 0.05776 0.61928 0.0
C2301 C 0.74642 0.07638 0.59901 0.0
H2302 H 0.72846 0.08128 0.56347 0.0
C2303 C 0.76988 0.106 0.5399 0.0
C2304 C 0.76532 0.1131 0.53331 0.0
C2305 C 0.76386 0.0978 0.55317 0.0
C2306 C 0.73361 0.08016 0.57346 0.0
H2307 H 0.72922 0.0371 0.63195 0.0
H2308 H 0.73947 0.05255 0.6101 0.0
H2309 H 0.71748 0.06566 0.58502 0.0
H2310 H 0.75091 0.11727 0.53573 0.0
H2311 H 0.74058 0.1032 0.55917 0.0
H2312 H 0.76254 0.09087 0.58752 0.0
C2313 C 0.73142 0.05167 0.6161 0.0
C2314 C 0.72731 0.07119 0.58578 0.0
C2315 C 0.72547 0.04275 0.62856 0.0
C2316 C 0.75475 0.11203 0.54061 0.0
C2317 C 0.74873 0.10384 0.5539 0.0
C2318 C 0.75272 0.08538 0.58675 0.0
C2319 C 0.72704 0.05936 0.61144 0.0
C2320 C 0.73366 0.06912 0.5986 0.0
C2321 C 0.75313 0.09651 0.56021 0.0
C2322 C 0.7464 0.08732 0.57373 0.0
H2323 H 0.70244 0.04802 0.63783 0.0
H2324 H 0.71284 0.06359 0.61602 0.0
H2325 H 0.75156 0.07516 0.60892 0.0
H2326 H 0.77807 0.10669 0.5347 0.0
H2327 H 0.76745 0.09223 0.55761 0.0
C2328 C 0.94857 0.65965 0.62943 0.0
C2329 C 0.95701 0.6722 0.63233 0.0
C2330 C 0.94016 0.6559 0.61605 0.0
C2331 C 0.9339 0.66651 0.57559 0.0
H2332 H 0.90023 0.64209 0.58503 0.0
C2333 C 0.89507 0.65979 0.53198 0.0
C2334 C 0.88582 0.64772 0.52799 0.0
C2335 C 0.90369 0.66206 0.54453 0.0
C2336 C 0.90962 0.6488 0.58213 0.0
H2337 H 0.9634 0.69058 0.62306 0.0
H2338 H 0.94876 0.68405 0.59993 0.0
H2339 H 0.91574 0.64724 0.60683 0.0
H2340 H 0.87823 0.62857 0.53438 0.0
H2341 H 0.89338 0.63254 0.55633 0.0
H2342 H 0.92779 0.66821 0.551 0.0
C2343 C 0.94868 0.67709 0.60788 0.0
C2344 C 0.91851 0.65175 0.5946 0.0
C2345 C 0.95705 0.68085 0.62125 0.0
C2346 C 0.88528 0.63797 0.53709 0.0
C2347 C 0.8939 0.64024 0.54973 0.0
C2348 C 0.92503 0.66359 0.56316 0.0
C2349 C 0.94005 0.66459 0.60523 0.0
C2350 C 0.93073 0.66076 0.59156 0.0
C2351 C 0.90329 0.65232 0.55343 0.0
C2352 C 0.91276 0.65484 0.56636 0.0
H2353 H 0.94828 0.65273 0.63768 0.0
H2354 H 0.93373 0.64619 0.61421 0.0
H2355 H 0.94327 0.67332 0.5727 0.0
H2356 H 0.89588 0.66751 0.52506 0.0
H2357 H 0.91069 0.67147 0.54724 0.0
C2358 C 0.94574 0.68158 0.71091 0.0
C2359 C 0.95256 0.67582 0.71238 0.0
C2360 C 0.93829 0.68119 0.72426 0.0
C2361 C 0.92534 0.6669 0.76661 0.0
H2362 H 0.92468 0.6969 0.77318 0.0
C2363 C 0.89833 0.67265 0.82195 0.0
C2364 C 0.90346 0.68431 0.82981 0.0
C2365 C 0.90337 0.67098 0.80699 0.0
C2366 C 0.92486 0.68849 0.77171 0.0
H2367 H 0.95672 0.6648 0.72865 0.0
H2368 H 0.94419 0.66462 0.75248 0.0
H2369 H 0.9352 0.69486 0.74881 0.0
H2370 H 0.91781 0.70341 0.82769 0.0
H2371 H 0.92694 0.7004 0.80234 0.0
H2372 H 0.91565 0.66091 0.79022 0.0
C2373 C 0.94425 0.66914 0.74082 0.0
C2374 C 0.93072 0.6872 0.75745 0.0
C2375 C 0.95148 0.66927 0.72722 0.0
C2376 C 0.9137 0.69425 0.82222 0.0
C2377 C 0.91884 0.69255 0.80743 0.0
C2378 C 0.91964 0.66828 0.78107 0.0
C2379 C 0.93776 0.67534 0.73966 0.0
C2380 C 0.93108 0.6764 0.75467 0.0
C2381 C 0.91376 0.6809 0.79958 0.0
C2382 C 0.91939 0.67914 0.78388 0.0
H2383 H 0.94628 0.68653 0.69946 0.0
H2384 H 0.93313 0.6857 0.72257 0.0
H2385 H 0.92527 0.65838 0.76485 0.0
H2386 H 0.89054 0.66473 0.8275 0.0
H2387 H 0.89908 0.66191 0.80122 0.0
C2388 C 0.3493 0.29346 0.72613 0.0
C2389 C 0.33988 0.29415 0.71806 0.0
C2390 C 0.34672 0.28491 0.73892 0.0
C2391 C 0.32195 0.25552 0.75584 0.0
H2392 H 0.34365 0.26435 0.79464 0.0
C2393 C 0.3119 0.2241 0.81438 0.0
C2394 C 0.32175 0.22357 0.82121 0.0
C2395 C 0.31375 0.23236 0.80141 0.0
C2396 C 0.33758 0.2617 0.78379 0.0
H2397 H 0.32034 0.28646 0.71746 0.0
H2398 H 0.31586 0.27165 0.74003 0.0
H2399 H 0.3474 0.27976 0.77343 0.0
H2400 H 0.34118 0.2309 0.81917 0.0
H2401 H 0.34441 0.24533 0.79662 0.0
H2402 H 0.31209 0.23745 0.76636 0.0
C2403 C 0.32524 0.27762 0.7362 0.0
C2404 C 0.33971 0.27054 0.77163 0.0
C2405 C 0.32782 0.28617 0.72334 0.0
C2406 C 0.33343 0.23122 0.81441 0.0
C2407 C 0.33528 0.2395 0.8015 0.0
C2408 C 0.31978 0.24668 0.76808 0.0
C2409 C 0.33466 0.27684 0.74408 0.0
C2410 C 0.332 0.26754 0.75742 0.0
C2411 C 0.3255 0.2403 0.79504 0.0
C2412 C 0.32763 0.24965 0.7821 0.0
H2413 H 0.3587 0.2994 0.72238 0.0
H2414 H 0.35419 0.28445 0.7445 0.0
H2415 H 0.31592 0.25285 0.74495 0.0
H2416 H 0.30281 0.21847 0.81948 0.0
H2417 H 0.30604 0.23283 0.79679 0.0
C2418 C 0.71483 0.05157 0.72106 0.0
C2419 C 0.71596 0.04125 0.71798 0.0
C2420 C 0.72163 0.06004 0.73398 0.0
C2421 C 0.74925 0.07027 0.76045 0.0
H2422 H 0.73596 0.08635 0.78785 0.0
C2423 C 0.77176 0.09735 0.82244 0.0
C2424 C 0.77251 0.10873 0.82483 0.0
C2425 C 0.76518 0.08962 0.8088 0.0
C2426 C 0.73982 0.08201 0.78017 0.0
H2427 H 0.7247 0.03145 0.72656 0.0
H2428 H 0.73622 0.04594 0.74932 0.0
H2429 H 0.72343 0.07155 0.76572 0.0
H2430 H 0.76712 0.121 0.81434 0.0
H2431 H 0.75539 0.10733 0.79074 0.0
H2432 H 0.76553 0.08053 0.77523 0.0
C2433 C 0.73041 0.04776 0.74144 0.0
C2434 C 0.73266 0.07355 0.76747 0.0
C2435 C 0.72372 0.03938 0.72844 0.0
C2436 C 0.76659 0.11223 0.81308 0.0
C2437 C 0.75989 0.10442 0.79954 0.0
C2438 C 0.75635 0.07863 0.77325 0.0
C2439 C 0.72962 0.0583 0.7442 0.0
C2440 C 0.73726 0.06751 0.75752 0.0
C2441 C 0.75908 0.09302 0.79732 0.0
C2442 C 0.75169 0.08453 0.78329 0.0
H2443 H 0.70897 0.05331 0.71318 0.0
H2444 H 0.72086 0.0681 0.73563 0.0
H2445 H 0.75321 0.06603 0.75279 0.0
H2446 H 0.77597 0.09421 0.83139 0.0
H2447 H 0.76458 0.08081 0.80751 0.0
C2448 C 0.02586 0.34674 0.04744 0.0
C2449 C 0.02773 0.35535 0.0349 0.0
C2450 C 0.03547 0.34548 0.05306 0.0
C2451 C 0.06896 0.36053 0.0547 0.0
H2452 H 0.06154 0.32707 0.06069 0.0
C2453 C 0.10002 0.34786 0.09145 0.0
C2454 C 0.1004 0.33744 0.08609 0.0
C2455 C 0.09234 0.35105 0.08335 0.0
C2456 C 0.06384 0.33648 0.05886 0.0
H2457 H 0.04127 0.3697 0.01882 0.0
H2458 H 0.05814 0.36743 0.0286 0.0
H2459 H 0.04581 0.33078 0.05061 0.0
H2460 H 0.09367 0.32269 0.06731 0.0
H2461 H 0.08038 0.32833 0.05303 0.0
H2462 H 0.08706 0.36618 0.06288 0.0
C2463 C 0.04921 0.36171 0.03414 0.0
C2464 C 0.05476 0.33861 0.05332 0.0
C2465 C 0.03955 0.36299 0.02852 0.0
C2466 C 0.09343 0.33066 0.07189 0.0
C2467 C 0.08579 0.33388 0.06375 0.0
C2468 C 0.07808 0.35839 0.06028 0.0
C2469 C 0.04721 0.35276 0.04623 0.0
C2470 C 0.05714 0.35065 0.0514 0.0
C2471 C 0.08491 0.34392 0.06968 0.0
C2472 C 0.07559 0.34633 0.06257 0.0
H2473 H 0.01689 0.34078 0.05273 0.0
H2474 H 0.03368 0.3387 0.06268 0.0
H2475 H 0.07108 0.36991 0.05339 0.0
H2476 H 0.10516 0.35318 0.10249 0.0
H2477 H 0.0918 0.35876 0.08838 0.0
C2478 C 0.66808 0.68414 0.04317 0.0
C2479 C 0.65732 0.67747 0.03363 0.0
C2480 C 0.6712 0.6955 0.05049 0.0
C2481 C 0.65839 0.71439 0.06438 0.0
H2482 H 0.69152 0.74158 0.05937 0.0
C2483 C 0.67217 0.76345 0.08594 0.0
C2484 C 0.68326 0.77016 0.09475 0.0
C2485 C 0.66918 0.7525 0.07743 0.0
C2486 C 0.68226 0.73406 0.06103 0.0
H2487 H 0.64126 0.67732 0.02458 0.0
H2488 H 0.64668 0.6971 0.03745 0.0
H2489 H 0.68582 0.72145 0.04746 0.0
H2490 H 0.69997 0.77074 0.10135 0.0
H2491 H 0.69474 0.75163 0.08664 0.0
H2492 H 0.65484 0.72689 0.07817 0.0
C2493 C 0.65269 0.69355 0.03929 0.0
C2494 C 0.67901 0.72253 0.05421 0.0
C2495 C 0.64961 0.68224 0.03188 0.0
C2496 C 0.69144 0.76588 0.09445 0.0
C2497 C 0.68843 0.75491 0.08602 0.0
C2498 C 0.66166 0.72589 0.07128 0.0
C2499 C 0.66358 0.70036 0.04852 0.0
C2500 C 0.66705 0.71258 0.05585 0.0
C2501 C 0.67719 0.74798 0.07762 0.0
C2502 C 0.67364 0.73587 0.06972 0.0
H2503 H 0.67419 0.68068 0.04474 0.0
H2504 H 0.67958 0.70048 0.05772 0.0
H2505 H 0.64914 0.70685 0.066 0.0
H2506 H 0.66575 0.7666 0.08579 0.0
H2507 H 0.66055 0.74752 0.0708 0.0
C2508 C 0.31752 0.9814 0.0393 0.0
C2509 C 0.32524 0.97815 0.03103 0.0
C2510 C 0.30622 0.97231 0.0456 0.0
C2511 C 0.28405 0.93852 0.04212 0.0
H2512 H 0.27072 0.94412 0.08351 0.0
C2513 C 0.24758 0.90066 0.08499 0.0
C2514 C 0.23739 0.90161 0.08934 0.0
C2515 C 0.25736 0.91 0.07609 0.0
C2516 C 0.2743 0.94252 0.07182 0.0
H2517 H 0.3275 0.96295 0.02342 0.0
H2518 H 0.30822 0.94718 0.03516 0.0
H2519 H 0.29004 0.96055 0.07236 0.0
H2520 H 0.22944 0.9131 0.08684 0.0
H2521 H 0.24689 0.9297 0.07207 0.0
H2522 H 0.26857 0.92021 0.04229 0.0
C2523 C 0.31052 0.95665 0.03619 0.0
C2524 C 0.28535 0.95192 0.06537 0.0
C2525 C 0.32166 0.96571 0.0296 0.0
C2526 C 0.23718 0.9121 0.08411 0.0
C2527 C 0.24712 0.92159 0.07554 0.0
C2528 C 0.27315 0.92905 0.04878 0.0
C2529 C 0.30253 0.95979 0.04403 0.0
C2530 C 0.29046 0.95001 0.05052 0.0
C2531 C 0.25732 0.92064 0.07163 0.0
C2532 C 0.26824 0.93095 0.06374 0.0
H2533 H 0.32003 0.99094 0.04045 0.0
H2534 H 0.3003 0.97512 0.05135 0.0
H2535 H 0.28747 0.93676 0.0304 0.0
H2536 H 0.24832 0.89294 0.08906 0.0
H2537 H 0.2652 0.90914 0.07333 0.0
C2538 C 0.34936 0.02739 0.97802 0.0
C2539 C 0.35686 0.02889 0.99196 0.0
C2540 C 0.34891 0.03737 0.97166 0.0
C2541 C 0.35377 0.06757 0.98383 0.0
H2542 H 0.35251 0.0711 0.93492 0.0
C2543 C 0.35231 0.10817 0.95227 0.0
C2544 C 0.34487 0.10529 0.93775 0.0
C2545 C 0.35411 0.09926 0.95978 0.0
C2546 C 0.35271 0.07017 0.94862 0.0
H2547 H 0.36989 0.04207 0.01008 0.0
H2548 H 0.36909 0.05961 -0.00109 0.0
H2549 H 0.35569 0.05511 0.94593 0.0
H2550 H 0.33327 0.09061 0.92004 0.0
H2551 H 0.33605 0.07509 0.93342 0.0
H2552 H 0.35061 0.08257 0.98648 0.0
C2553 C 0.36353 0.05065 0.99298 0.0
C2554 C 0.35458 0.06104 0.95492 0.0
C2555 C 0.36406 0.04064 -0.00072 0.0
C2556 C 0.33893 0.09317 0.93133 0.0
C2557 C 0.34069 0.08429 0.93884 0.0
C2558 C 0.35186 0.07673 0.97751 0.0
C2559 C 0.35591 0.04909 0.97913 0.0
C2560 C 0.35495 0.0595 0.97258 0.0
C2561 C 0.34852 0.08729 0.9529 0.0
C2562 C 0.35111 0.078 0.95982 0.0
H2563 H 0.34368 0.01845 0.97211 0.0
H2564 H 0.34283 0.03582 0.96113 0.0
H2565 H 0.35391 0.06654 0.99751 0.0
H2566 H 0.35693 0.11738 0.95765 0.0
H2567 H 0.3602 0.10187 0.9706 0.0
C2568 C 0.98172 0.32037 0.98003 0.0
C2569 C 0.97823 0.32545 0.99335 0.0
C2570 C 0.9732 0.30923 0.97236 0.0
C2571 C 0.94375 0.28107 0.98036 0.0
H2572 H 0.94426 0.27623 0.93146 0.0
C2573 C 0.9077 0.23674 0.94486 0.0
C2574 C 0.91202 0.2323 0.93172 0.0
C2575 C 0.91546 0.24808 0.95279 0.0
C2576 C 0.94408 0.27739 0.94516 0.0
H2577 H 0.96306 0.32298 0.00887 0.0
H2578 H 0.94816 0.30354 0.99539 0.0
H2579 H 0.95826 0.29625 0.94411 0.0
H2580 H 0.92795 0.23633 0.9167 0.0
H2581 H 0.94147 0.25584 0.93078 0.0
H2582 H 0.92961 0.26215 0.9814 0.0
C2583 C 0.9575 0.3081 0.99102 0.0
C2584 C 0.95209 0.28887 0.9524 0.0
C2585 C 0.96602 0.31927 -0.00134 0.0
C2586 C 0.92433 0.23935 0.92694 0.0
C2587 C 0.93206 0.25065 0.93484 0.0
C2588 C 0.93573 0.26956 0.97311 0.0
C2589 C 0.96102 0.30291 0.97786 0.0
C2590 C 0.9521 0.29083 0.9701 0.0
C2591 C 0.9277 0.25524 0.94769 0.0
C2592 C 0.93588 0.26755 0.95544 0.0
H2593 H 0.99107 0.3249 0.97568 0.0
H2594 H 0.97624 0.30541 0.96239 0.0
H2595 H 0.94363 0.28224 0.99407 0.0
H2596 H 0.89829 0.2315 0.94892 0.0
H2597 H 0.9118 0.25138 0.96261 0.0
C2598 C 0.68012 0.65698 0.97398 0.0
C2599 C 0.67375 0.64776 0.98607 0.0
C2600 C 0.69063 0.65843 0.9663 0.0
C2601 C 0.71527 0.65195 0.9732 0.0
H2602 H 0.72352 0.66344 0.92667 0.0
C2603 C 0.76001 0.66214 0.93849 0.0
C2604 C 0.76608 0.67347 0.93007 0.0
C2605 C 0.74837 0.65775 0.94534 0.0
C2606 C 0.72134 0.66025 0.9397 0.0
H2607 H 0.67318 0.63252 -0.00085 0.0
H2608 H 0.6915 0.6349 0.98546 0.0
H2609 H 0.7034 0.65734 0.93779 0.0
H2610 H 0.7647 0.68903 0.92216 0.0
H2611 H 0.74448 0.6814 0.93406 0.0
H2612 H 0.73331 0.65492 0.97498 0.0
C2613 C 0.68845 0.64116 0.98215 0.0
C2614 C 0.70983 0.65678 0.94609 0.0
C2615 C 0.67791 0.63973 0.9899 0.0
C2616 C 0.76034 0.68035 0.92877 0.0
C2617 C 0.7487 0.67592 0.9354 0.0
C2618 C 0.72678 0.65532 0.96672 0.0
C2619 C 0.69503 0.65064 0.97042 0.0
C2620 C 0.70674 0.65288 0.96306 0.0
C2621 C 0.74254 0.66453 0.94359 0.0
C2622 C 0.73001 0.65978 0.95004 0.0
H2623 H 0.67719 0.66336 0.97078 0.0
H2624 H 0.69555 0.66595 0.95755 0.0
H2625 H 0.71325 0.6491 0.98637 0.0
H2626 H 0.76424 0.65666 0.9397 0.0
H2627 H 0.74381 0.64894 0.95159 0.0
C2628 C 0.95912 0.63936 0.00263 0.0
C2629 C 0.96943 0.64353 0.99215 0.0
C2630 C 0.94899 0.63976 0.9969 0.0
C2631 C 0.93207 0.63921 0.96016 0.0
H2632 H 0.92729 0.66399 0.98216 0.0
C2633 C 0.9063 0.65907 0.92681 0.0
C2634 C 0.90032 0.66381 0.93647 0.0
C2635 C 0.91301 0.65469 0.93481 0.0
C2636 C 0.92821 0.6568 0.97608 0.0
H2637 H 0.97706 0.65079 0.96729 0.0
H2638 H 0.95913 0.65096 0.95703 0.0
H2639 H 0.94182 0.65908 0.99406 0.0
H2640 H 0.89632 0.66733 0.96207 0.0
H2641 H 0.90758 0.65913 0.97622 0.0
H2642 H 0.91842 0.63669 0.94231 0.0
C2643 C 0.95899 0.6476 0.96973 0.0
C2644 C 0.9366 0.65405 0.98289 0.0
C2645 C 0.96922 0.64752 0.9756 0.0
C2646 C 0.90088 0.66375 0.95435 0.0
C2647 C 0.90742 0.65913 0.96241 0.0
C2648 C 0.92347 0.64173 0.95356 0.0
C2649 C 0.94892 0.64397 0.98045 0.0
C2650 C 0.93879 0.64546 0.97473 0.0
C2651 C 0.91375 0.65472 0.95274 0.0
C2652 C 0.92168 0.65084 0.96111 0.0
H2653 H 0.95912 0.63634 0.0155 0.0
H2654 H 0.9413 0.63696 0.00536 0.0
H2655 H 0.93362 0.63251 0.95372 0.0
H2656 H 0.90621 0.65923 0.91298 0.0
H2657 H 0.91797 0.65171 0.92683 0.0
C2658 C 0.35313 0.32263 0.98699 0.0
C2659 C 0.3448 0.32672 0.98733 0.0
C2660 C 0.35007 0.31146 0.97909 0.0
C2661 C 0.32451 0.28133 0.97008 0.0
H2662 H 0.3449 0.27877 0.93544 0.0
C2663 C 0.31023 0.23562 0.93445 0.0
C2664 C 0.31938 0.23337 0.92882 0.0
C2665 C 0.31323 0.24693 0.94186 0.0
C2666 C 0.3392 0.27924 0.94533 0.0
H2667 H 0.32681 0.32247 0.97958 0.0
H2668 H 0.32132 0.30271 0.96615 0.0
H2669 H 0.35048 0.29884 0.94735 0.0
H2670 H 0.33897 0.24132 0.92716 0.0
H2671 H 0.34414 0.26053 0.94108 0.0
H2672 H 0.31348 0.26176 0.96872 0.0
C2673 C 0.33025 0.30824 0.97185 0.0
C2674 C 0.34237 0.29077 0.95201 0.0
C2675 C 0.33342 0.31954 0.97942 0.0
C2676 C 0.33161 0.24256 0.9315 0.0
C2677 C 0.33461 0.25375 0.93919 0.0
C2678 C 0.32146 0.26975 0.96366 0.0
C2679 C 0.33853 0.30408 0.97172 0.0
C2680 C 0.33504 0.29191 0.96439 0.0
C2681 C 0.32548 0.25623 0.94413 0.0
C2682 C 0.32875 0.26854 0.95117 0.0
H2683 H 0.36198 0.328 0.99296 0.0
H2684 H 0.35658 0.30842 0.97917 0.0
H2685 H 0.3188 0.28199 0.97979 0.0
H2686 H 0.3007 0.22873 0.93291 0.0
H2687 H 0.30592 0.24846 0.94536 0.0
C2688 C 0.67751 0.01882 0.97714 0.0
C2689 C 0.67314 0.0216 0.99201 0.0
C2690 C 0.68838 0.02776 0.96961 0.0
C2691 C 0.71704 0.05631 0.97914 0.0
H2692 H 0.71787 0.06258 0.9307 0.0
C2693 C 0.76092 0.09068 0.94224 0.0
C2694 C 0.75964 0.09891 0.93189 0.0
C2695 C 0.7507 0.08079 0.94978 0.0
C2696 C 0.71777 0.0609 0.94423 0.0
H2697 H 0.67672 0.03585 0.01069 0.0
H2698 H 0.69572 0.05137 0.99764 0.0
H2699 H 0.69928 0.04597 0.94345 0.0
H2700 H 0.74668 0.10316 0.9211 0.0
H2701 H 0.72888 0.08591 0.93418 0.0
H2702 H 0.73551 0.07133 0.97993 0.0
C2703 C 0.69077 0.04231 0.99183 0.0
C2704 C 0.70718 0.05135 0.95149 0.0
C2705 C 0.67984 0.03344 -0.00079 0.0
C2706 C 0.74797 0.09707 0.92922 0.0
C2707 C 0.73777 0.08712 0.93654 0.0
C2708 C 0.72769 0.06576 0.97184 0.0
C2709 C 0.69515 0.03956 0.97697 0.0
C2710 C 0.70665 0.0491 0.96906 0.0
C2711 C 0.73902 0.07885 0.94682 0.0
C2712 C 0.72808 0.06827 0.95437 0.0
H2713 H 0.67253 0.00976 0.97133 0.0
H2714 H 0.69158 0.02539 0.95818 0.0
H2715 H 0.71691 0.05468 0.99271 0.0
H2716 H 0.76982 0.09189 0.94447 0.0
H2717 H 0.75189 0.07452 0.95763 0.0
C2718 C 0.63605 0.95947 0.02764 0.0
C2719 C 0.6445 0.97169 0.03236 0.0
C2720 C 0.63764 0.94986 0.033 0.0
C2721 C 0.66194 0.94447 0.04539 0.0
H2722 H 0.63724 0.91518 0.06815 0.0
C2723 C 0.67447 0.91554 0.08572 0.0
C2724 C 0.66703 0.90267 0.08556 0.0
C2725 C 0.67091 0.9228 0.07733 0.0
C2726 C 0.64416 0.92319 0.06152 0.0
H2727 H 0.66095 0.98335 0.04692 0.0
H2728 H 0.6637 0.96671 0.05608 0.0
H2729 H 0.63212 0.93003 0.05724 0.0
H2730 H 0.64993 0.88736 0.0764 0.0
H2731 H 0.64367 0.90015 0.06159 0.0
H2732 H 0.67403 0.93784 0.04967 0.0
C2733 C 0.65593 0.96454 0.04814 0.0
C2734 C 0.64123 0.93169 0.05533 0.0
C2735 C 0.6543 0.97406 0.04296 0.0
C2736 C 0.65586 0.89724 0.07678 0.0
C2737 C 0.65227 0.90456 0.06833 0.0
C2738 C 0.66484 0.93598 0.05141 0.0
C2739 C 0.64776 0.95238 0.04297 0.0
C2740 C 0.65022 0.94257 0.04767 0.0
C2741 C 0.65979 0.91743 0.06851 0.0
C2742 C 0.6561 0.92544 0.06002 0.0
H2743 H 0.6284 0.95736 0.01949 0.0
H2744 H 0.6312 0.94055 0.02888 0.0
H2745 H 0.66898 0.95266 0.0392 0.0
H2746 H 0.68295 0.92007 0.09277 0.0
H2747 H 0.67678 0.93268 0.07813 0.0
C2748 C 0.03184 0.68563 0.02225 0.0
C2749 C 0.02025 0.67852 0.02957 0.0
C2750 C 0.04032 0.69699 0.02943 0.0
C2751 C 0.05307 0.72379 0.04154 0.0
H2752 H 0.05856 0.72641 0.09044 0.0
C2753 C 0.08136 0.77004 0.07857 0.0
C2754 C 0.08947 0.77039 0.09088 0.0
C2755 C 0.07322 0.75899 0.07026 0.0
C2756 C 0.05716 0.7258 0.07676 0.0
H2757 H 0.00846 0.67763 0.05021 0.0
H2758 H 0.02335 0.69744 0.06289 0.0
H2759 H 0.04362 0.70668 0.07773 0.0
H2760 H 0.09544 0.75947 0.10409 0.0
H2761 H 0.0813 0.74027 0.08958 0.0
H2762 H 0.06664 0.74294 0.04061 0.0
C2763 C 0.02586 0.69422 0.05158 0.0
C2764 C 0.04854 0.71455 0.06952 0.0
C2765 C 0.01733 0.68291 0.0443 0.0
C2766 C 0.08942 0.75954 0.0945 0.0
C2767 C 0.08123 0.74851 0.08634 0.0
C2768 C 0.06161 0.7351 0.04882 0.0
C2769 C 0.03741 0.7014 0.04416 0.0
C2770 C 0.04644 0.71341 0.05184 0.0
C2771 C 0.07294 0.74809 0.0743 0.0
C2772 C 0.06379 0.73619 0.06649 0.0
H2773 H 0.03435 0.68248 0.01089 0.0
H2774 H 0.0492 0.70227 0.02356 0.0
H2775 H 0.05157 0.72318 0.02788 0.0
H2776 H 0.08123 0.77827 0.0755 0.0
H2777 H 0.06689 0.75891 0.06107 0.0
C2778 C 0.32277 0.36323 0.02795 0.0
C2779 C 0.32742 0.35615 0.0343 0.0
C2780 C 0.31214 0.36214 0.03487 0.0
C2781 C 0.29255 0.35205 0.0729 0.0
H2782 H 0.26641 0.34541 0.04166 0.0
C2783 C 0.23771 0.32798 0.07644 0.0
C2784 C 0.23651 0.33395 0.09091 0.0
C2785 C 0.24904 0.33247 0.0686 0.0
C2786 C 0.27365 0.34731 0.05051 0.0
H2787 H 0.32489 0.3427 0.05321 0.0
H2788 H 0.30651 0.34096 0.06544 0.0
H2789 H 0.28623 0.35016 0.03036 0.0
H2790 H 0.24617 0.34949 0.10823 0.0
H2791 H 0.26594 0.35732 0.09452 0.0
H2792 H 0.27994 0.34894 0.09304 0.0
C2793 C 0.31102 0.34732 0.0551 0.0
C2794 C 0.28501 0.35012 0.04407 0.0
C2795 C 0.32151 0.34828 0.04805 0.0
C2796 C 0.24678 0.34475 0.097 0.0
C2797 C 0.25812 0.34917 0.08926 0.0
C2798 C 0.28126 0.34939 0.07934 0.0
C2799 C 0.30612 0.35409 0.04842 0.0
C2800 C 0.29449 0.35231 0.05521 0.0
C2801 C 0.25941 0.34294 0.07519 0.0
C2802 C 0.27164 0.3468 0.06822 0.0
H2803 H 0.32711 0.36934 0.01731 0.0
H2804 H 0.30859 0.36752 0.02956 0.0
H2805 H 0.29972 0.35376 0.08177 0.0
H2806 H 0.22993 0.31967 0.07143 0.0
H2807 H 0.24977 0.32743 0.05783 0.0
C2808 C 0.7055 0.69725 0.3644 0.0
C2809 C 0.69328 0.68895 0.36857 0.0
C2810 C 0.71481 0.69581 0.37113 0.0
C2811 C 0.72099 0.67987 0.40563 0.0
H2812 H 0.74671 0.68307 0.37569 0.0
C2813 C 0.74861 0.65732 0.4208 0.0
C2814 C 0.76135 0.66461 0.41973 0.0
C2815 C 0.74125 0.66147 0.41432 0.0
C2816 C 0.73966 0.68228 0.38423 0.0
H2817 H 0.68126 0.67273 0.3832 0.0
H2818 H 0.69733 0.67013 0.39464 0.0
H2819 H 0.73213 0.68856 0.36533 0.0
H2820 H 0.77635 0.68182 0.41055 0.0
H2821 H 0.76338 0.68906 0.39895 0.0
H2822 H 0.72825 0.6732 0.4243 0.0
C2823 C 0.69983 0.67789 0.38645 0.0
C2824 C 0.73134 0.68546 0.37834 0.0
C2825 C 0.69058 0.67933 0.37978 0.0
C2826 C 0.76656 0.67603 0.41157 0.0
C2827 C 0.75916 0.68014 0.4049 0.0
C2828 C 0.72922 0.6766 0.41143 0.0
C2829 C 0.71206 0.68606 0.38217 0.0
C2830 C 0.72174 0.68403 0.38887 0.0
C2831 C 0.74644 0.67299 0.40654 0.0
C2832 C 0.73848 0.67753 0.40069 0.0
H2833 H 0.70786 0.70475 0.35577 0.0
H2834 H 0.72415 0.70233 0.36769 0.0
H2835 H 0.71391 0.67894 0.41423 0.0
H2836 H 0.7443 0.64857 0.42722 0.0
H2837 H 0.73147 0.65571 0.41558 0.0
C2838 C 0.31253 0.01342 0.37059 0.0
C2839 C 0.31999 0.00846 0.37319 0.0
C2840 C 0.31524 0.02449 0.37842 0.0
C2841 C 0.33346 0.04633 0.41311 0.0
H2842 H 0.32976 0.06954 0.38589 0.0
C2843 C 0.35322 0.09673 0.43412 0.0
C2844 C 0.34559 0.10162 0.43254 0.0
C2845 C 0.34998 0.08537 0.42676 0.0
C2846 C 0.33073 0.06311 0.3937 0.0
H2847 H 0.336 0.01104 0.38633 0.0
H2848 H 0.34088 0.03051 0.39982 0.0
H2849 H 0.32416 0.0495 0.37381 0.0
H2850 H 0.32872 0.09856 0.42165 0.0
H2851 H 0.32303 0.07864 0.40874 0.0
H2852 H 0.3402 0.06005 0.43291 0.0
C2853 C 0.33282 0.02576 0.39191 0.0
C2854 C 0.32749 0.05161 0.38681 0.0
C2855 C 0.33006 0.01463 0.38414 0.0
C2856 C 0.33475 0.095 0.42314 0.0
C2857 C 0.33154 0.08365 0.41567 0.0
C2858 C 0.33676 0.05786 0.41996 0.0
C2859 C 0.32553 0.03091 0.38896 0.0
C2860 C 0.32882 0.04308 0.39643 0.0
C2861 C 0.33905 0.07865 0.41759 0.0
C2862 C 0.33545 0.06638 0.41032 0.0
H2863 H 0.30465 0.00883 0.3623 0.0
H2864 H 0.30929 0.02806 0.37614 0.0
H2865 H 0.33443 0.03993 0.42097 0.0
H2866 H 0.36155 0.10152 0.44148 0.0
H2867 H 0.35602 0.08182 0.42829 0.0
C2868 C 0.99099 0.30043 0.36359 0.0
C2869 C 0.99446 0.31285 0.36474 0.0
C2870 C 0.97974 0.29134 0.36984 0.0
C2871 C 0.95376 0.28632 0.39746 0.0
H2872 H 0.93778 0.25477 0.37391 0.0
C2873 C 0.90527 0.246 0.41405 0.0
C2874 C 0.90538 0.23543 0.41914 0.0
C2875 C 0.91541 0.25567 0.40605 0.0
C2876 C 0.94213 0.26356 0.38053 0.0
H2877 H 0.98897 0.32558 0.37344 0.0
H2878 H 0.96906 0.30968 0.38379 0.0
H2879 H 0.95692 0.27148 0.36291 0.0
H2880 H 0.91636 0.22683 0.41922 0.0
H2881 H 0.93361 0.24335 0.40447 0.0
H2882 H 0.93867 0.27829 0.41485 0.0
C2883 C 0.97514 0.30692 0.37848 0.0
C2884 C 0.95317 0.27312 0.37438 0.0
C2885 C 0.98654 0.31605 0.37251 0.0
C2886 C 0.9157 0.23461 0.41523 0.0
C2887 C 0.92569 0.24414 0.4069 0.0
C2888 C 0.94258 0.27681 0.40341 0.0
C2889 C 0.97153 0.29441 0.37706 0.0
C2890 C 0.9593 0.28456 0.38298 0.0
C2891 C 0.92573 0.25484 0.40256 0.0
C2892 C 0.93681 0.26529 0.39518 0.0
H2893 H 0.99698 0.2977 0.35783 0.0
H2894 H 0.97752 0.28188 0.36899 0.0
H2895 H 0.95822 0.29491 0.40456 0.0
H2896 H 0.89744 0.24693 0.41645 0.0
H2897 H 0.91523 0.26383 0.40266 0.0
C2898 C 0.03436 0.37528 0.3314 0.0
C2899 C 0.02656 0.36341 0.32477 0.0
C2900 C 0.03433 0.38542 0.32459 0.0
C2901 C 0.02573 0.39562 0.28603 0.0
H2902 H 0.02453 0.41941 0.31636 0.0
C2903 C 0.01363 0.43018 0.26077 0.0
C2904 C 0.02035 0.44239 0.26677 0.0
C2905 C 0.01465 0.42094 0.26858 0.0
C2906 C 0.02501 0.41293 0.30771 0.0
H2907 H 0.01275 0.3529 0.30566 0.0
H2908 H 0.01274 0.37053 0.2938 0.0
H2909 H 0.0264 0.40273 0.32828 0.0
H2910 H 0.03313 0.45431 0.28618 0.0
H2911 H 0.03511 0.43815 0.29963 0.0
H2912 H 0.02437 0.40574 0.26546 0.0
C2913 C 0.01893 0.37204 0.30418 0.0
C2914 C 0.02609 0.40339 0.31455 0.0
C2915 C 0.01889 0.36192 0.31104 0.0
C2916 C 0.0279 0.44503 0.28112 0.0
C2917 C 0.02896 0.43575 0.28892 0.0
C2918 C 0.0247 0.40515 0.27921 0.0
C2919 C 0.02659 0.3839 0.31093 0.0
C2920 C 0.02629 0.39453 0.30377 0.0
C2921 C 0.0225 0.42363 0.28253 0.0
C2922 C 0.02414 0.41383 0.28996 0.0
H2923 H 0.04035 0.37671 0.34201 0.0
H2924 H 0.04041 0.39446 0.32996 0.0
H2925 H 0.0261 0.38908 0.27737 0.0
H2926 H 0.00786 0.42779 0.24962 0.0
H2927 H 0.00936 0.41166 0.26352 0.0
C2928 C 0.64834 0.65555 0.31228 0.0
C2929 C 0.64477 0.66157 0.32403 0.0
C2930 C 0.63964 0.64464 0.30429 0.0
C2931 C 0.60799 0.61883 0.30931 0.0
H2932 H 0.61251 0.61146 0.26259 0.0
C2933 C 0.57259 0.57511 0.27178 0.0
C2934 C 0.57742 0.56899 0.26254 0.0
C2935 C 0.58034 0.58655 0.27947 0.0
C2936 C 0.61117 0.61337 0.27569 0.0
H2937 H 0.62931 0.66113 0.33626 0.0
H2938 H 0.61409 0.64223 0.32202 0.0
H2939 H 0.62681 0.63147 0.27505 0.0
H2940 H 0.59412 0.5701 0.25405 0.0
H2941 H 0.60757 0.58995 0.26752 0.0
H2942 H 0.59228 0.60068 0.30981 0.0
C2943 C 0.62362 0.64577 0.31925 0.0
C2944 C 0.61937 0.62483 0.28285 0.0
C2945 C 0.63233 0.65665 0.32732 0.0
C2946 C 0.59012 0.57448 0.26129 0.0
C2947 C 0.59783 0.58593 0.26882 0.0
C2948 C 0.59972 0.60739 0.30208 0.0
C2949 C 0.62717 0.63955 0.30778 0.0
C2950 C 0.61799 0.62765 0.29983 0.0
C2951 C 0.59303 0.59214 0.27784 0.0
C2952 C 0.60134 0.60449 0.28528 0.0
H2953 H 0.65787 0.6591 0.30954 0.0
H2954 H 0.64274 0.64003 0.29573 0.0
H2955 H 0.60673 0.62062 0.32249 0.0
H2956 H 0.56284 0.57108 0.27298 0.0
H2957 H 0.5764 0.59116 0.28632 0.0
C2958 C 0.34102 0.97065 0.3257 0.0
C2959 C 0.33977 0.98102 0.32683 0.0
C2960 C 0.35166 0.97166 0.31895 0.0
C2961 C 0.38385 0.99275 0.3149 0.0
H2962 H 0.38326 0.97488 0.27402 0.0
C2963 C 0.42752 0.00585 0.27712 0.0
C2964 C 0.42829 0.99683 0.26747 0.0
C2965 C 0.4168 0.00304 0.28567 0.0
C2966 C 0.38363 0.97975 0.28567 0.0
H2967 H 0.3486 0.00053 0.32189 0.0
H2968 H 0.36729 0.00232 0.3106 0.0
H2969 H 0.36418 0.97132 0.28639 0.0
H2970 H 0.41831 0.97756 0.25991 0.0
H2971 H 0.4 0.97252 0.27569 0.0
H2972 H 0.40317 0.00099 0.31462 0.0
C2973 C 0.36 0.99343 0.31473 0.0
C2974 C 0.37267 0.97774 0.29266 0.0
C2975 C 0.34929 0.99237 0.32108 0.0
C2976 C 0.41819 0.98477 0.26732 0.0
C2977 C 0.40754 0.98191 0.27614 0.0
C2978 C 0.39478 0.99458 0.30816 0.0
C2979 C 0.36128 0.9831 0.31366 0.0
C2980 C 0.37273 0.9844 0.30712 0.0
C2981 C 0.40659 0.99106 0.28513 0.0
C2982 C 0.39486 0.9883 0.29323 0.0
H2983 H 0.33381 0.96179 0.33003 0.0
H2984 H 0.35248 0.96358 0.31821 0.0
H2985 H 0.38406 0.99789 0.32619 0.0
H2986 H 0.43515 0.01519 0.27785 0.0
H2987 H 0.41645 0.01041 0.29226 0.0
C2988 C 0.62877 0.96871 0.32751 0.0
C2989 C 0.64073 0.97693 0.32212 0.0
C2990 C 0.61897 0.96911 0.32044 0.0
C2991 C 0.60979 0.97976 0.28304 0.0
H2992 H 0.58552 0.97915 0.31361 0.0
C2993 C 0.57383 0.99019 0.2588 0.0
C2994 C 0.56182 0.98282 0.26472 0.0
C2995 C 0.5834 0.98971 0.2664 0.0
C2996 C 0.59213 0.97919 0.30487 0.0
H2997 H 0.65177 0.99179 0.3048 0.0
H2998 H 0.63468 0.99241 0.29239 0.0
H2999 H 0.60212 0.97723 0.32517 0.0
H3000 H 0.55062 0.9695 0.28383 0.0
H3001 H 0.56728 0.96839 0.29679 0.0
H3002 H 0.5998 0.98158 0.26271 0.0
C3003 C 0.63286 0.98565 0.30205 0.0
C3004 C 0.60164 0.97809 0.3115 0.0
C3005 C 0.64266 0.98533 0.30921 0.0
C3006 C 0.55971 0.9752 0.2788 0.0
C3007 C 0.5693 0.97466 0.28635 0.0
C3008 C 0.60026 0.98079 0.2764 0.0
C3009 C 0.62093 0.97765 0.30774 0.0
C3010 C 0.61061 0.97843 0.30066 0.0
C3011 C 0.58124 0.98175 0.28004 0.0
C3012 C 0.59134 0.98059 0.28723 0.0
H3013 H 0.62699 0.96215 0.33745 0.0
H3014 H 0.60986 0.96273 0.32493 0.0
H3015 H 0.61647 0.97988 0.27434 0.0
H3016 H 0.57582 0.99605 0.24785 0.0
H3017 H 0.5925 0.99548 0.26141 0.0
C3018 C 0.00114 0.65271 0.3173 0.0
C3019 C 0.01258 0.66062 0.32468 0.0
C3020 C 0.99873 0.64172 0.30938 0.0
C3021 C 0.01283 0.62707 0.28709 0.0
H3022 H 0.98635 0.59615 0.30384 0.0
C3023 C 0.00704 0.58131 0.26345 0.0
C3024 C 0.99519 0.57118 0.26114 0.0
C3025 C 0.00897 0.59196 0.27179 0.0
C3026 C 0.99366 0.60467 0.29877 0.0
H3027 H 0.03054 0.66344 0.3292 0.0
H3028 H 0.02644 0.64447 0.31481 0.0
H3029 H 0.9898 0.61546 0.31619 0.0
H3030 H 0.97612 0.56431 0.26661 0.0
H3031 H 0.97942 0.58309 0.28019 0.0
H3032 H 0.01651 0.61652 0.26926 0.0
C3033 C 0.01932 0.64669 0.31539 0.0
C3034 C 0.99563 0.61572 0.30592 0.0
C3035 C 0.02164 0.65751 0.32364 0.0
C3036 C 0.98536 0.57196 0.26781 0.0
C3037 C 0.98728 0.58272 0.27588 0.0
C3038 C 0.01071 0.61606 0.27969 0.0
C3039 C 0.00781 0.63864 0.30837 0.0
C3040 C 0.00531 0.62699 0.30024 0.0
C3041 C 0.99911 0.59294 0.27778 0.0
C3042 C 0.00118 0.60468 0.28555 0.0
H3043 H 0.99399 0.65487 0.318 0.0
H3044 H 0.9898 0.63565 0.30397 0.0
H3045 H 0.02028 0.63567 0.28241 0.0
H3046 H 0.01487 0.58122 0.25833 0.0
H3047 H 0.01824 0.59948 0.27336 0.0
C3048 C 0.34771 0.35271 0.31408 0.0
C3049 C 0.3413 0.35667 0.32433 0.0
C3050 C 0.35909 0.36122 0.30738 0.0
C3051 C 0.37889 0.39393 0.29699 0.0
H3052 H 0.40486 0.38683 0.30076 0.0
C3053 C 0.42842 0.42936 0.27809 0.0
C3054 C 0.43466 0.42475 0.26874 0.0
C3055 C 0.4173 0.42134 0.28595 0.0
C3056 C 0.39769 0.38891 0.29946 0.0
H3057 H 0.3416 0.37265 0.33522 0.0
H3058 H 0.36142 0.38748 0.32345 0.0
H3059 H 0.38461 0.37212 0.31134 0.0
H3060 H 0.43409 0.4081 0.26029 0.0
H3061 H 0.4148 0.39419 0.27387 0.0
H3062 H 0.3919 0.41064 0.28487 0.0
C3063 C 0.35766 0.37782 0.32057 0.0
C3064 C 0.38609 0.38047 0.30551 0.0
C3065 C 0.34633 0.36931 0.32736 0.0
C3066 C 0.42966 0.41197 0.26771 0.0
C3067 C 0.41857 0.40398 0.27549 0.0
C3068 C 0.39048 0.40236 0.29085 0.0
C3069 C 0.36423 0.37386 0.31071 0.0
C3070 C 0.37655 0.38286 0.30426 0.0
C3071 C 0.41217 0.40854 0.28455 0.0
C3072 C 0.40001 0.39991 0.29192 0.0
H3073 H 0.34405 0.34303 0.31152 0.0
H3074 H 0.36389 0.35791 0.29963 0.0
H3075 H 0.37169 0.39597 0.29573 0.0
H3076 H 0.43208 0.43917 0.27921 0.0
H3077 H 0.4127 0.42517 0.29306 0.0
C3078 C 0.32033 0.31126 0.38061 0.0
C3079 C 0.31143 0.30865 0.3682 0.0
C3080 C 0.32172 0.30191 0.38728 0.0
C3081 C 0.31592 0.2709 0.37706 0.0
H3082 H 0.32606 0.2726 0.42405 0.0
C3083 C 0.32601 0.23543 0.40852 0.0
C3084 C 0.33688 0.24074 0.41799 0.0
C3085 C 0.32169 0.24277 0.40213 0.0
C3086 C 0.32326 0.27202 0.41088 0.0
H3087 H 0.29675 0.29409 0.3534 0.0
H3088 H 0.29905 0.27764 0.36529 0.0
H3089 H 0.32 0.28684 0.41428 0.0
H3090 H 0.35171 0.25789 0.42816 0.0
H3091 H 0.34423 0.2706 0.41698 0.0
H3092 H 0.31927 0.25604 0.37377 0.0
C3093 C 0.30507 0.28699 0.36967 0.0
C3094 C 0.3198 0.28019 0.40526 0.0
C3095 C 0.30368 0.29639 0.36296 0.0
C3096 C 0.34341 0.25352 0.4207 0.0
C3097 C 0.33904 0.2608 0.41449 0.0
C3098 C 0.3193 0.26263 0.38274 0.0
C3099 C 0.31421 0.28967 0.38177 0.0
C3100 C 0.31639 0.27995 0.38817 0.0
C3101 C 0.32807 0.2555 0.40535 0.0
C3102 C 0.3233 0.26333 0.3996 0.0
H3103 H 0.32649 0.32061 0.38489 0.0
H3104 H 0.32898 0.30437 0.39635 0.0
H3105 H 0.31345 0.27051 0.36378 0.0
H3106 H 0.32079 0.22561 0.40623 0.0
H3107 H 0.3132 0.23845 0.39512 0.0
C3108 C 0.69996 0.01307 0.3688 0.0
C3109 C 0.68739 0.00856 0.36846 0.0
C3110 C 0.70795 0.02454 0.37614 0.0
C3111 C 0.71172 0.05446 0.38412 0.0
H3112 H 0.73541 0.05858 0.41814 0.0
C3113 C 0.74205 0.10071 0.41949 0.0
C3114 C 0.75371 0.10363 0.42488 0.0
C3115 C 0.73406 0.08928 0.412 0.0
C3116 C 0.72903 0.05767 0.40841 0.0
H3117 H 0.67328 0.01242 0.37561 0.0
H3118 H 0.68734 0.03267 0.38811 0.0
H3119 H 0.72123 0.03816 0.40676 0.0
H3120 H 0.76616 0.09679 0.42592 0.0
H3121 H 0.75263 0.07735 0.41194 0.0
H3122 H 0.71971 0.07395 0.38521 0.0
C3123 C 0.69095 0.02725 0.38281 0.0
C3124 C 0.72084 0.04594 0.40202 0.0
C3125 C 0.68293 0.01566 0.37578 0.0
C3126 C 0.75735 0.09502 0.4218 0.0
C3127 C 0.74944 0.08369 0.41406 0.0
C3128 C 0.72005 0.06624 0.39027 0.0
C3129 C 0.70353 0.03181 0.38296 0.0
C3130 C 0.71209 0.04422 0.38988 0.0
C3131 C 0.73758 0.08053 0.40944 0.0
C3132 C 0.72882 0.06802 0.40254 0.0
H3133 H 0.70365 0.00779 0.36327 0.0
H3134 H 0.71762 0.02788 0.37607 0.0
H3135 H 0.70513 0.05337 0.37458 0.0
H3136 H 0.73896 0.10716 0.42133 0.0
H3137 H 0.72499 0.0872 0.40873 0.0
C3138 C 0.98848 0.69503 0.36246 0.0
C3139 C 0.99507 0.69054 0.37077 0.0
C3140 C 0.97752 0.69311 0.36933 0.0
C3141 C 0.95345 0.67238 0.39972 0.0
H3142 H 0.94085 0.69391 0.39175 0.0
C3143 C 0.90395 0.65651 0.41594 0.0
C3144 C 0.90125 0.66509 0.4231 0.0
C3145 C 0.91531 0.66032 0.40868 0.0
C3146 C 0.94426 0.68784 0.39427 0.0
H3147 H 0.99592 0.68134 0.39334 0.0
H3148 H 0.97724 0.6786 0.40585 0.0
H3149 H 0.96139 0.70005 0.38252 0.0
H3150 H 0.9084 0.68459 0.4272 0.0
H3151 H 0.92843 0.69115 0.41549 0.0
H3152 H 0.93667 0.66046 0.41219 0.0
C3153 C 0.98013 0.68308 0.39363 0.0
C3154 C 0.95602 0.6913 0.38875 0.0
C3155 C 0.99092 0.68476 0.38656 0.0
C3156 C 0.91016 0.67765 0.42219 0.0
C3157 C 0.92165 0.68146 0.41521 0.0
C3158 C 0.94182 0.66903 0.40545 0.0
C3159 C 0.97305 0.68685 0.38485 0.0
C3160 C 0.96076 0.68357 0.39132 0.0
C3161 C 0.92446 0.67281 0.40869 0.0
C3162 C 0.93698 0.67662 0.40265 0.0
H3163 H 0.99145 0.69946 0.35019 0.0
H3164 H 0.97232 0.69605 0.36207 0.0
H3165 H 0.95659 0.66602 0.40168 0.0
H3166 H 0.89749 0.64674 0.41651 0.0
H3167 H 0.91696 0.65338 0.40336 0.0
C3168 C 0.37256 0.03263 0.69536 0.0
C3169 C 0.36051 0.0233 0.69867 0.0
C3170 C 0.38234 0.03155 0.70098 0.0
C3171 C 0.3897 0.00813 0.71233 0.0
H3172 H 0.41712 0.03414 0.73717 0.0
C3173 C 0.42126 0.99863 0.75201 0.0
C3174 C 0.43376 0.00739 0.75281 0.0
C3175 C 0.41324 0.00121 0.74373 0.0
C3176 C 0.40964 0.02686 0.72998 0.0
H3177 H 0.34928 0.00566 0.71075 0.0
H3178 H 0.36627 0.00377 0.72041 0.0
H3179 H 0.40137 0.0377 0.72605 0.0
H3180 H 0.44765 0.02574 0.74535 0.0
H3181 H 0.43356 0.03026 0.73069 0.0
H3182 H 0.39783 0.99725 0.71619 0.0
C3183 C 0.36817 0.01187 0.71339 0.0
C3184 C 0.40062 0.0289 0.72367 0.0
C3185 C 0.35844 0.013 0.70794 0.0
C3186 C 0.43806 0.01881 0.745 0.0
C3187 C 0.42999 0.0214 0.73665 0.0
C3188 C 0.39873 0.00612 0.71849 0.0
C3189 C 0.38022 0.02105 0.70981 0.0
C3190 C 0.39041 0.01944 0.71514 0.0
C3191 C 0.41747 0.01263 0.73598 0.0
C3192 C 0.40866 0.01535 0.72777 0.0
H3193 H 0.37443 0.04068 0.68825 0.0
H3194 H 0.39154 0.03875 0.69804 0.0
H3195 H 0.38206 0.00075 0.70549 0.0
H3196 H 0.41757 0.98986 0.75828 0.0
H3197 H 0.40363 0.99434 0.74386 0.0
C3198 C 0.97669 0.34405 0.70062 0.0
C3199 C 0.98646 0.34206 0.69895 0.0
C3200 C 0.97829 0.35465 0.70869 0.0
C3201 C 0.99984 0.38107 0.73642 0.0
H3202 H 0.97977 0.39394 0.72156 0.0
C3203 C 0.99642 0.4179 0.77555 0.0
C3204 C 0.99367 0.42591 0.76725 0.0
C3205 C 0.99662 0.40847 0.76648 0.0
C3206 C 0.98565 0.39067 0.72572 0.0
H3207 H 0.00559 0.34955 0.70427 0.0
H3208 H 0.00861 0.36842 0.71758 0.0
H3209 H 0.97833 0.37634 0.70695 0.0
H3210 H 0.98944 0.43076 0.743 0.0
H3211 H 0.99048 0.41472 0.72679 0.0
H3212 H 0.00768 0.39586 0.75453 0.0
C3213 C 0.99957 0.36163 0.71324 0.0
C3214 C 0.98462 0.38034 0.71753 0.0
C3215 C 0.99788 0.35084 0.70553 0.0
C3216 C 0.99151 0.42461 0.74963 0.0
C3217 C 0.992 0.41534 0.74043 0.0
C3218 C 0.00108 0.39159 0.74435 0.0
C3219 C 0.98979 0.36371 0.71488 0.0
C3220 C 0.9915 0.37521 0.72298 0.0
C3221 C 0.99434 0.40698 0.74879 0.0
C3222 C 0.99382 0.39641 0.73935 0.0
H3223 H 0.96775 0.33735 0.69581 0.0
H3224 H 0.97043 0.35567 0.71013 0.0
H3225 H 0.00525 0.3774 0.74113 0.0
H3226 H 0.99797 0.41868 0.78922 0.0
H3227 H 0.99818 0.40212 0.77353 0.0
C3228 C 0.66076 0.63417 0.70102 0.0
C3229 C 0.66396 0.64652 0.70046 0.0
C3230 C 0.64966 0.62535 0.7081 0.0
C3231 C 0.62363 0.62207 0.73445 0.0
H3232 H 0.60696 0.5892 0.71477 0.0
C3233 C 0.57303 0.58632 0.74658 0.0
C3234 C 0.57139 0.57602 0.75554 0.0
C3235 C 0.5842 0.59443 0.73902 0.0
C3236 C 0.61156 0.59835 0.72034 0.0
H3237 H 0.65814 0.6594 0.70682 0.0
H3238 H 0.63857 0.64403 0.71838 0.0
H3239 H 0.62686 0.60459 0.70373 0.0
H3240 H 0.58026 0.56599 0.76273 0.0
H3241 H 0.59951 0.57987 0.74871 0.0
H3242 H 0.60796 0.61584 0.75052 0.0
C3243 C 0.64473 0.6411 0.71398 0.0
C3244 C 0.62302 0.60716 0.71417 0.0
C3245 C 0.65594 0.64994 0.70726 0.0
C3246 C 0.58103 0.57367 0.75578 0.0
C3247 C 0.59212 0.58166 0.74788 0.0
C3248 C 0.61208 0.61335 0.74031 0.0
C3249 C 0.64138 0.62865 0.71444 0.0
C3250 C 0.62924 0.61916 0.72116 0.0
C3251 C 0.59387 0.59226 0.73985 0.0
C3252 C 0.60598 0.60144 0.73332 0.0
H3253 H 0.66683 0.63131 0.69596 0.0
H3254 H 0.64759 0.61594 0.70857 0.0
H3255 H 0.62818 0.63106 0.74048 0.0
H3256 H 0.56576 0.58829 0.7457 0.0
H3257 H 0.58535 0.60251 0.73271 0.0
C3258 C 0.6798 0.69154 0.64873 0.0
C3259 C 0.69088 0.6943 0.65621 0.0
C3260 C 0.67816 0.70092 0.64272 0.0
C3261 C 0.69402 0.7319 0.62629 0.0
H3262 H 0.66624 0.73365 0.64254 0.0
C3263 C 0.68822 0.7723 0.60793 0.0
C3264 C 0.67642 0.76995 0.60456 0.0
C3265 C 0.69001 0.76342 0.61541 0.0
C3266 C 0.67395 0.73322 0.63765 0.0
H3267 H 0.70906 0.70898 0.66283 0.0
H3268 H 0.70631 0.72539 0.65177 0.0
H3269 H 0.66932 0.71726 0.65234 0.0
H3270 H 0.6572 0.7564 0.6073 0.0
H3271 H 0.66033 0.74069 0.61937 0.0
H3272 H 0.69845 0.74746 0.61103 0.0
C3273 C 0.69887 0.71596 0.65079 0.0
C3274 C 0.67573 0.72386 0.64335 0.0
C3275 C 0.70043 0.70659 0.65711 0.0
C3276 C 0.66644 0.75853 0.60937 0.0
C3277 C 0.66824 0.74954 0.61657 0.0
C3278 C 0.69213 0.74113 0.62033 0.0
C3279 C 0.68765 0.71321 0.64378 0.0
C3280 C 0.68579 0.72314 0.63775 0.0
C3281 C 0.68007 0.75179 0.61943 0.0
C3282 C 0.68209 0.74197 0.62597 0.0
H3283 H 0.67225 0.68216 0.64794 0.0
H3284 H 0.66947 0.69857 0.63723 0.0
H3285 H 0.70177 0.73146 0.62164 0.0
H3286 H 0.69619 0.78084 0.60422 0.0
H3287 H 0.69926 0.76566 0.61779 0.0
C3288 C 0.29915 0.98781 0.66553 0.0
C3289 C 0.31038 0.99534 0.65746 0.0
C3290 C 0.2902 0.97705 0.65758 0.0
C3291 C 0.27829 0.96221 0.61687 0.0
H3292 H 0.26634 0.93155 0.64082 0.0
C3293 C 0.24757 0.91531 0.58386 0.0
C3294 C 0.2392 0.90534 0.59371 0.0
C3295 C 0.25571 0.92655 0.59161 0.0
C3296 C 0.26934 0.94002 0.63405 0.0
H3297 H 0.32096 0.99772 0.6346 0.0
H3298 H 0.30505 0.97897 0.6204 0.0
H3299 H 0.28159 0.95077 0.65422 0.0
H3300 H 0.23241 0.89934 0.61925 0.0
H3301 H 0.24617 0.91917 0.63283 0.0
H3302 H 0.2658 0.95166 0.59696 0.0
C3303 C 0.30331 0.98139 0.63298 0.0
C3304 C 0.27817 0.95101 0.6417 0.0
C3305 C 0.31239 0.99205 0.64111 0.0
C3306 C 0.23883 0.90691 0.61141 0.0
C3307 C 0.24681 0.91824 0.61916 0.0
C3308 C 0.26926 0.95125 0.60934 0.0
C3309 C 0.2922 0.97374 0.64126 0.0
C3310 C 0.28278 0.96217 0.63313 0.0
C3311 C 0.25553 0.92817 0.60941 0.0
C3312 C 0.26472 0.93996 0.61776 0.0
H3313 H 0.29736 0.99011 0.67816 0.0
H3314 H 0.28167 0.97131 0.66416 0.0
H3315 H 0.28163 0.97075 0.61011 0.0
H3316 H 0.24818 0.91426 0.5702 0.0
H3317 H 0.26241 0.93382 0.58365 0.0
C3318 C 0.01187 0.32128 0.63977 0.0
C3319 C 0.0066 0.31387 0.65413 0.0
C3320 C 0.0227 0.32292 0.6329 0.0
C3321 C 0.04235 0.31934 0.61623 0.0
H3322 H 0.06911 0.32901 0.64775 0.0
C3323 C 0.08852 0.3267 0.594 0.0
C3324 C 0.09874 0.3379 0.59915 0.0
C3325 C 0.07718 0.32267 0.60149 0.0
C3326 C 0.06171 0.3263 0.63883 0.0
H3327 H 0.00838 0.30217 0.67238 0.0
H3328 H 0.02742 0.30517 0.66046 0.0
H3329 H 0.04907 0.32373 0.65874 0.0
H3330 H 0.1052 0.35339 0.61663 0.0
H3331 H 0.08532 0.34628 0.62982 0.0
H3332 H 0.05499 0.32206 0.59631 0.0
C3333 C 0.02314 0.30969 0.65454 0.0
C3334 C 0.05024 0.32319 0.64511 0.0
C3335 C 0.01221 0.30791 0.66127 0.0
C3336 C 0.09747 0.34476 0.61237 0.0
C3337 C 0.08612 0.34065 0.61998 0.0
C3338 C 0.05377 0.32231 0.60998 0.0
C3339 C 0.02855 0.31731 0.6404 0.0
C3340 C 0.04048 0.31981 0.63384 0.0
C3341 C 0.07582 0.32969 0.61436 0.0
C3342 C 0.06359 0.32593 0.6212 0.0
H3343 H 0.00775 0.32599 0.634 0.0
H3344 H 0.02672 0.32891 0.62206 0.0
H3345 H 0.03497 0.31672 0.60729 0.0
H3346 H 0.08917 0.32128 0.58371 0.0
H3347 H 0.06941 0.31413 0.59702 0.0
C3348 C 0.30567 0.31661 0.6414 0.0
C3349 C 0.30406 0.30938 0.65571 0.0
C3350 C 0.29586 0.31695 0.63443 0.0
C3351 C 0.26656 0.31341 0.6457 0.0
H3352 H 0.26386 0.31508 0.59665 0.0
C3353 C 0.23163 0.32332 0.61292 0.0
C3354 C 0.23679 0.33232 0.60022 0.0
C3355 C 0.23833 0.31848 0.61995 0.0
C3356 C 0.26449 0.31463 0.61038 0.0
H3357 H 0.29085 0.29664 0.67377 0.0
H3358 H 0.2736 0.29732 0.66156 0.0
H3359 H 0.27822 0.30984 0.60824 0.0
H3360 H 0.25286 0.34309 0.58469 0.0
H3361 H 0.26449 0.33484 0.59701 0.0
H3362 H 0.25307 0.31861 0.64777 0.0
C3363 C 0.2825 0.30271 0.65579 0.0
C3364 C 0.2727 0.31162 0.61701 0.0
C3365 C 0.29235 0.30227 0.6627 0.0
C3366 C 0.24869 0.33632 0.59465 0.0
C3367 C 0.2553 0.33145 0.60153 0.0
C3368 C 0.25831 0.31644 0.63904 0.0
C3369 C 0.2842 0.31013 0.64164 0.0
C3370 C 0.2741 0.31135 0.63473 0.0
C3371 C 0.2502 0.32244 0.61418 0.0
C3372 C 0.25749 0.31746 0.62131 0.0
H3373 H 0.31458 0.3222 0.63572 0.0
H3374 H 0.29751 0.3229 0.62368 0.0
H3375 H 0.26749 0.31334 0.65942 0.0
H3376 H 0.22248 0.32008 0.61746 0.0
H3377 H 0.23417 0.31154 0.62968 0.0
C3378 C 0.67328 0.98825 0.64248 0.0
C3379 C 0.68122 0.99299 0.65652 0.0
C3380 C 0.67045 0.977 0.63502 0.0
C3381 C 0.67219 0.95656 0.61629 0.0
H3382 H 0.6637 0.92908 0.64605 0.0
C3383 C 0.66743 0.9113 0.59162 0.0
C3384 C 0.65694 0.90041 0.59671 0.0
C3385 C 0.67049 0.92253 0.59927 0.0
C3386 C 0.66601 0.93666 0.6376 0.0
H3387 H 0.69252 0.98976 0.67363 0.0
H3388 H 0.68751 0.97012 0.66068 0.0
H3389 H 0.6688 0.94899 0.6584 0.0
H3390 H 0.64163 0.89269 0.61415 0.0
H3391 H 0.64707 0.91238 0.62769 0.0
H3392 H 0.66942 0.94425 0.59549 0.0
C3393 C 0.68344 0.97506 0.6555 0.0
C3394 C 0.66902 0.94806 0.64465 0.0
C3395 C 0.68636 0.98635 0.66283 0.0
C3396 C 0.64974 0.90094 0.60994 0.0
C3397 C 0.65289 0.91218 0.61773 0.0
C3398 C 0.66931 0.9452 0.60925 0.0
C3399 C 0.67541 0.97023 0.64159 0.0
C3400 C 0.67214 0.95813 0.63407 0.0
C3401 C 0.66319 0.92311 0.61228 0.0
C3402 C 0.6662 0.93514 0.61983 0.0
H3403 H 0.66918 0.99317 0.63735 0.0
H3404 H 0.66418 0.97347 0.62435 0.0
H3405 H 0.67463 0.96417 0.60784 0.0
H3406 H 0.67307 0.91121 0.58131 0.0
H3407 H 0.67855 0.93079 0.59494 0.0
C3408 C 0.00867 0.70271 0.66226 0.0
C3409 C 0.00388 0.69019 0.65846 0.0
C3410 C 0.01989 0.71159 0.6556 0.0
C3411 C 0.04052 0.7288 0.63215 0.0
H3412 H 0.06719 0.72257 0.63184 0.0
C3413 C 0.08528 0.75876 0.59537 0.0
C3414 C 0.09625 0.76126 0.60299 0.0
C3415 C 0.07411 0.75069 0.60295 0.0
C3416 C 0.05987 0.7245 0.632 0.0
H3417 H 0.007 0.67718 0.64451 0.0
H3418 H 0.02661 0.69273 0.63276 0.0
H3419 H 0.0474 0.70712 0.64308 0.0
H3420 H 0.10404 0.75755 0.62495 0.0
H3421 H 0.08448 0.74338 0.63817 0.0
H3422 H 0.053 0.74622 0.62118 0.0
C3423 C 0.02173 0.69564 0.64105 0.0
C3424 C 0.04849 0.71558 0.63822 0.0
C3425 C 0.01047 0.68675 0.64768 0.0
C3426 C 0.09577 0.75571 0.61863 0.0
C3427 C 0.08457 0.74759 0.62619 0.0
C3428 C 0.05188 0.7377 0.62586 0.0
C3429 C 0.0266 0.70816 0.64502 0.0
C3430 C 0.03868 0.71762 0.63833 0.0
C3431 C 0.07361 0.74487 0.61831 0.0
C3432 C 0.06167 0.73564 0.62567 0.0
H3433 H 0.00383 0.70565 0.67057 0.0
H3434 H 0.02344 0.72113 0.65904 0.0
H3435 H 0.03312 0.73062 0.63195 0.0
H3436 H 0.08526 0.76265 0.58315 0.0
H3437 H 0.06583 0.74866 0.59643 0.0
C3438 C 0.9802 0.64247 0.7142 0.0
C3439 C 0.97277 0.64062 0.7 0.0
C3440 C 0.9809 0.63271 0.72096 0.0
C3441 C 0.97737 0.60308 0.70878 0.0
H3442 H 0.97751 0.59857 0.75762 0.0
C3443 C 0.99452 0.57355 0.7401 0.0
C3444 C 0.98786 0.5663 0.75404 0.0
C3445 C 0.99151 0.58164 0.73276 0.0
C3446 C 0.97738 0.59964 0.74394 0.0
H3447 H 0.96008 0.62702 0.68195 0.0
H3448 H 0.96137 0.60998 0.69373 0.0
H3449 H 0.97421 0.61459 0.74679 0.0
H3450 H 0.97268 0.56171 0.77101 0.0
H3451 H 0.96739 0.57575 0.75814 0.0
H3452 H 0.98069 0.5882 0.70595 0.0
C3453 C 0.96667 0.619 0.69957 0.0
C3454 C 0.9756 0.60888 0.73776 0.0
C3455 C 0.96587 0.62874 0.69291 0.0
C3456 C 0.97791 0.56706 0.76016 0.0
C3457 C 0.97496 0.5752 0.75292 0.0
C3458 C 0.97927 0.5939 0.71497 0.0
C3459 C 0.97428 0.62091 0.71357 0.0
C3460 C 0.97564 0.61074 0.72012 0.0
C3461 C 0.98184 0.58273 0.73933 0.0
C3462 C 0.97934 0.59212 0.73263 0.0
H3463 H 0.98563 0.65152 0.71993 0.0
H3464 H 0.98691 0.63448 0.73167 0.0
H3465 H 0.97755 0.60437 0.69512 0.0
H3466 H 0.0022 0.57313 0.73507 0.0
H3467 H 0.99702 0.58737 0.72236 0.0
C3468 C 0.36561 0.34727 0.69364 0.0
C3469 C 0.35325 0.34172 0.698 0.0
C3470 C 0.37414 0.35864 0.70063 0.0
C3471 C 0.37935 0.37992 0.73651 0.0
H3472 H 0.40533 0.40339 0.70738 0.0
C3473 C 0.41582 0.42783 0.76142 0.0
C3474 C 0.42788 0.43104 0.7579 0.0
C3475 C 0.40612 0.41789 0.75298 0.0
C3476 C 0.39815 0.39692 0.71568 0.0
H3477 H 0.34013 0.34365 0.71327 0.0
H3478 H 0.35506 0.36365 0.72545 0.0
H3479 H 0.38942 0.38391 0.69534 0.0
H3480 H 0.43925 0.42681 0.74211 0.0
H3481 H 0.42233 0.40943 0.72738 0.0
H3482 H 0.38819 0.3929 0.75689 0.0
C3483 C 0.35816 0.35913 0.71672 0.0
C3484 C 0.38905 0.38574 0.70881 0.0
C3485 C 0.34961 0.34769 0.70973 0.0
C3486 C 0.43005 0.42448 0.74517 0.0
C3487 C 0.42036 0.41459 0.73665 0.0
C3488 C 0.38844 0.39112 0.74337 0.0
C3489 C 0.37051 0.36479 0.7121 0.0
C3490 C 0.37966 0.37702 0.7192 0.0
C3491 C 0.40828 0.41101 0.74075 0.0
C3492 C 0.39804 0.39966 0.73309 0.0
H3493 H 0.36872 0.34286 0.68471 0.0
H3494 H 0.38361 0.3626 0.69709 0.0
H3495 H 0.37233 0.37336 0.7449 0.0
H3496 H 0.41386 0.43265 0.77128 0.0
H3497 H 0.39691 0.41542 0.75626 0.0
C3498 C 0.66093 0.03342 0.69693 0.0
C3499 C 0.66339 0.02403 0.70017 0.0
C3500 C 0.65101 0.03335 0.70477 0.0
C3501 C 0.62934 0.01924 0.74094 0.0
H3502 H 0.60835 0.02651 0.71445 0.0
C3503 C 0.57979 0.00118 0.75901 0.0
C3504 C 0.57575 0.0096 0.75983 0.0
C3505 C 0.59108 0.00453 0.75196 0.0
C3506 C 0.61423 0.02463 0.72204 0.0
H3507 H 0.65739 0.00721 0.71411 0.0
H3508 H 0.64011 0.00695 0.72741 0.0
H3509 H 0.62726 0.02957 0.70185 0.0
H3510 H 0.58029 0.02807 0.75364 0.0
H3511 H 0.60013 0.03389 0.74084 0.0
H3512 H 0.61607 0.0138 0.76081 0.0
C3513 C 0.64592 0.01453 0.71917 0.0
C3514 C 0.62507 0.0264 0.71487 0.0
C3515 C 0.65581 0.01463 0.71142 0.0
C3516 C 0.58319 0.02142 0.75315 0.0
C3517 C 0.59448 0.02472 0.74581 0.0
C3518 C 0.61849 0.01736 0.74799 0.0
C3519 C 0.64338 0.02388 0.71599 0.0
C3520 C 0.63261 0.02343 0.72411 0.0
C3521 C 0.59858 0.01634 0.74541 0.0
C3522 C 0.6107 0.01977 0.73849 0.0
H3523 H 0.66663 0.04079 0.68832 0.0
H3524 H 0.64937 0.04074 0.70214 0.0
H3525 H 0.63507 0.01718 0.74859 0.0
H3526 H 0.57435 0.99207 0.76428 0.0
H3527 H 0.59398 0.99786 0.75167 0.0
loop_
_geom_bond_atom_site_label_1
_geom_bond_atom_site_label_2
_geom_bond_distance
_geom_bond_site_symmetry_2
_ccdc_geom_bond_type
Co0 O1 2.216 . S
Co0 O2 2.091 . S
Co0 O4 2.004 1_554 S
Co0 O10 2.021 . S
Co0 O12 2.137 1_454 S
Co0 O13 2.244 1_455 S
O1 Co0 2.216 . S
O1 C8 1.247 . S
O2 Co0 2.091 . S
O2 C8 1.261 . S
C3 O12 1.247 1_554 S
C3 O13 1.272 . S
O4 Co0 2.004 1_556 S
O4 C9 1.268 1_455 S
Co5 O6 2.061 1_554 S
Co5 O11 2.052 . S
Co5 O13 2.135 . S
O6 Co5 2.061 1_556 S
O6 C9 1.226 . S
C7 O10 1.238 1_655 S
C7 O11 1.241 . S
C8 O1 1.247 . S
C8 O2 1.261 . S
C9 O4 1.268 1_655 S
C9 O6 1.226 . S
O10 Co0 2.021 . S
O10 C7 1.238 1_455 S
O11 Co5 2.052 . S
O11 C7 1.241 . S
O12 Co0 2.137 1_656 S
O12 C3 1.247 1_556 S
O13 Co0 2.244 1_655 S
O13 C3 1.272 . S
O13 Co5 2.135 . S
Co14 O15 2.216 1_554 S
Co14 O16 2.091 . S
Co14 O18 2.004 . S
Co14 O24 1.974 1_554 S
Co14 O26 2.137 . S
Co14 O27 2.244 . S
O15 Co14 2.216 1_556 S
O15 C22 1.247 1_556 S
O16 Co14 2.091 . S
O16 C22 1.261 . S
C17 O26 1.247 . S
C17 O27 1.272 . S
O18 Co14 2.004 . S
O18 C23 1.259 . S
Co19 O20 2.061 . S
Co19 O25 2.052 1_554 S
Co19 O27 2.135 . S
O20 Co19 2.061 . S
O20 C23 1.235 . S
C21 O24 1.272 . S
C21 O25 1.241 . S
C22 O15 1.247 1_554 S
C22 O16 1.261 . S
C23 O18 1.259 . S
C23 O20 1.235 . S
O24 Co14 1.974 1_556 S
O24 C21 1.272 . S
O25 Co19 2.052 1_556 S
O25 C21 1.241 . S
O26 Co14 2.137 . S
O26 C17 1.247 . S
O27 Co14 2.244 . S
O27 C17 1.272 . S
O27 Co19 2.135 . S
Co28 O29 2.216 1_554 S
Co28 O30 2.091 . S
Co28 O32 2.004 . S
Co28 O38 2.001 1_554 S
Co28 O40 2.137 1_545 S
Co28 O41 2.244 1_545 S
O29 Co28 2.216 1_556 S
O29 C36 1.247 1_556 S
O30 Co28 2.091 . S
O30 C36 1.261 . S
C31 O40 1.247 . S
C31 O41 1.272 . S
O32 Co28 2.004 . S
O32 C37 1.259 . S
Co33 O34 2.061 . S
Co33 O39 2.052 1_554 S
Co33 O41 2.135 . S
O34 Co33 2.061 . S
O34 C37 1.235 1_565 S
C35 O38 1.280 . S
C35 O39 1.214 1_545 S
C36 O29 1.247 1_554 S
C36 O30 1.261 . S
C37 O32 1.259 . S
C37 O34 1.235 1_545 S
O38 Co28 2.001 1_556 S
O38 C35 1.280 . S
O39 Co33 2.052 1_556 S
O39 C35 1.214 1_565 S
O40 Co28 2.137 1_565 S
O40 C31 1.247 . S
O41 Co28 2.244 1_565 S
O41 C31 1.272 . S
O41 Co33 2.135 . S
Co42 O43 2.216 1_554 S
Co42 O44 2.091 . S
Co42 O46 2.004 . S
Co42 O52 2.021 1_554 S
Co42 O54 2.137 1_655 S
Co42 O55 2.244 1_655 S
O43 Co42 2.216 1_556 S
O43 C50 1.249 1_556 S
O44 Co42 2.091 . S
O44 C50 1.257 . S
C45 O54 1.247 . S
C45 O55 1.272 . S
O46 Co42 2.004 . S
O46 C51 1.259 1_655 S
Co47 O48 2.061 . S
Co47 O53 2.052 1_554 S
Co47 O55 2.135 . S
O48 Co47 2.061 . S
O48 C51 1.235 . S
C49 O52 1.238 1_455 S
C49 O53 1.241 . S
C50 O43 1.249 1_554 S
C50 O44 1.257 . S
C51 O46 1.259 1_455 S
C51 O48 1.235 . S
O52 Co42 2.021 1_556 S
O52 C49 1.238 1_655 S
O53 Co47 2.052 1_556 S
O53 C49 1.241 . S
O54 Co42 2.137 1_455 S
O54 C45 1.247 . S
O55 Co42 2.244 1_455 S
O55 C45 1.272 . S
O55 Co47 2.135 . S
Co56 O57 2.216 . S
Co56 O58 2.091 . S
Co56 O60 2.004 1_554 S
Co56 O66 2.021 . S
Co56 O68 2.137 1_554 S
Co56 O69 2.244 . S
O57 Co56 2.216 . S
O57 C64 1.247 . S
O58 Co56 2.091 . S
O58 C64 1.261 . S
C59 O68 1.247 . S
C59 O69 1.272 1_556 S
O60 Co56 2.004 1_556 S
O60 C65 1.259 . S
Co61 O62 2.061 1_554 S
Co61 O67 2.052 . S
Co61 O69 2.135 . S
O62 Co61 2.061 1_556 S
O62 C65 1.235 . S
C63 O66 1.238 . S
C63 O67 1.241 . S
C64 O57 1.247 . S
C64 O58 1.261 . S
C65 O60 1.259 . S
C65 O62 1.235 . S
O66 Co56 2.021 . S
O66 C63 1.238 . S
O67 Co61 2.052 . S
O67 C63 1.241 . S
O68 Co56 2.137 1_556 S
O68 C59 1.247 . S
O69 Co56 2.244 . S
O69 C59 1.272 1_554 S
O69 Co61 2.135 . S
Co70 O71 2.216 . S
Co70 O72 2.091 . S
Co70 O74 2.004 1_554 S
Co70 O80 2.021 . S
Co70 O82 2.137 1_564 S
Co70 O83 2.244 1_565 S
O71 Co70 2.216 . S
O71 C78 1.247 . S
O72 Co70 2.091 . S
O72 C78 1.261 . S
C73 O82 1.247 1_554 S
C73 O83 1.272 . S
O74 Co70 2.004 1_556 S
O74 C79 1.259 1_565 S
Co75 O76 2.061 1_554 S
Co75 O81 2.052 . S
Co75 O83 2.135 . S
O76 Co75 2.061 1_556 S
O76 C79 1.235 . S
C77 O80 1.238 1_545 S
C77 O81 1.241 . S
C78 O71 1.247 . S
C78 O72 1.261 . S
C79 O74 1.259 1_545 S
C79 O76 1.235 . S
O80 Co70 2.021 . S
O80 C77 1.238 1_565 S
O81 Co75 2.052 . S
O81 C77 1.241 . S
O82 Co70 2.137 1_546 S
O82 C73 1.247 1_556 S
O83 Co70 2.244 1_545 S
O83 C73 1.272 . S
O83 Co75 2.135 . S
Co84 O85 2.216 . S
Co84 O86 2.091 . S
Co84 O88 2.004 . S
Co84 O94 2.021 . S
Co84 O96 2.137 . S
Co84 O97 2.244 . S
O85 Co84 2.216 . S
O85 C92 1.247 . S
O86 Co84 2.091 . S
O86 C92 1.261 . S
C87 O96 1.247 . S
C87 O97 1.272 . S
O88 Co84 2.004 . S
O88 C93 1.259 . S
Co89 O90 2.061 . S
Co89 O95 2.052 . S
Co89 O97 2.135 . S
O90 Co89 2.061 . S
O90 C93 1.235 . S
C91 O94 1.238 . S
C91 O95 1.241 . S
C92 O85 1.247 . S
C92 O86 1.261 . S
C93 O88 1.259 . S
C93 O90 1.235 . S
O94 Co84 2.021 . S
O94 C91 1.238 . S
O95 Co89 2.052 . S
O95 C91 1.241 . S
O96 Co84 2.137 . S
O96 C87 1.247 . S
O97 Co84 2.244 . S
O97 C87 1.272 . S
O97 Co89 2.135 . S
Co98 O99 2.216 . S
Co98 O100 2.091 . S
Co98 O102 2.004 . S
Co98 O108 2.021 . S
Co98 O110 2.137 . S
Co98 O111 2.244 . S
O99 Co98 2.216 . S
O99 C106 1.247 . S
O100 Co98 2.091 . S
O100 C106 1.261 . S
C101 O110 1.247 . S
C101 O111 1.272 . S
O102 Co98 2.004 . S
O102 C107 1.259 . S
Co103 O104 2.061 . S
Co103 O109 2.052 . S
Co103 O111 2.135 . S
O104 Co103 2.061 . S
O104 C107 1.235 . S
C105 O108 1.238 . S
C105 O109 1.241 . S
C106 O99 1.247 . S
C106 O100 1.261 . S
C107 O102 1.259 . S
C107 O104 1.235 . S
O108 Co98 2.021 . S
O108 C105 1.238 . S
O109 Co103 2.052 . S
O109 C105 1.241 . S
O110 Co98 2.137 . S
O110 C101 1.247 . S
O111 Co98 2.244 . S
O111 C101 1.272 . S
O111 Co103 2.135 . S
Co112 O113 2.216 . S
Co112 O114 2.091 . S
Co112 O116 2.004 . S
Co112 O122 2.021 . S
Co112 O124 2.137 . S
Co112 O125 2.244 . S
O113 Co112 2.216 . S
O113 C120 1.247 . S
O114 Co112 2.091 . S
O114 C120 1.261 . S
C115 O124 1.247 . S
C115 O125 1.272 . S
O116 Co112 2.004 . S
O116 C121 1.259 . S
Co117 O118 2.061 . S
Co117 O123 2.052 . S
Co117 O125 2.135 . S
O118 Co117 2.061 . S
O118 C121 1.235 . S
C119 O122 1.238 . S
C119 O123 1.241 . S
C120 O113 1.247 . S
C120 O114 1.261 . S
C121 O116 1.259 . S
C121 O118 1.235 . S
O122 Co112 2.021 . S
O122 C119 1.238 . S
O123 Co117 2.052 . S
O123 C119 1.241 . S
O124 Co112 2.137 . S
O124 C115 1.247 . S
O125 Co112 2.244 . S
O125 C115 1.272 . S
O125 Co117 2.135 . S
Co126 O127 2.216 . S
Co126 O128 2.091 . S
Co126 O130 2.004 . S
Co126 O136 2.021 . S
Co126 O138 2.137 . S
Co126 O139 2.244 . S
O127 Co126 2.216 . S
O127 C134 1.247 . S
O128 Co126 2.091 . S
O128 C134 1.261 . S
C129 O138 1.247 . S
C129 O139 1.272 . S
O130 Co126 2.004 . S
O130 C135 1.259 . S
Co131 O132 2.061 . S
Co131 O137 2.052 . S
Co131 O139 2.135 . S
O132 Co131 2.061 . S
O132 C135 1.235 . S
C133 O136 1.238 . S
C133 O137 1.241 . S
C134 O127 1.247 . S
C134 O128 1.261 . S
C135 O130 1.259 . S
C135 O132 1.235 . S
O136 Co126 2.021 . S
O136 C133 1.238 . S
O137 Co131 2.052 . S
O137 C133 1.241 . S
O138 Co126 2.137 . S
O138 C129 1.247 . S
O139 Co126 2.244 . S
O139 C129 1.272 . S
O139 Co131 2.135 . S
Co140 O141 2.216 . S
Co140 O142 2.091 . S
Co140 O144 2.004 . S
Co140 O150 2.021 . S
Co140 O152 2.137 . S
Co140 O153 2.244 . S
O141 Co140 2.216 . S
O141 C148 1.236 1_455 S
O142 Co140 2.091 . S
O142 C148 1.262 1_455 S
C143 O152 1.247 . S
C143 O153 1.272 . S
O144 Co140 2.004 . S
O144 C149 1.259 . S
Co145 O146 2.061 . S
Co145 O151 2.052 . S
Co145 O153 2.135 . S
O146 Co145 2.061 . S
O146 C149 1.235 . S
C147 O150 1.238 . S
C147 O151 1.241 . S
C148 O141 1.236 1_655 S
C148 O142 1.262 1_655 S
C149 O144 1.259 . S
C149 O146 1.235 . S
O150 Co140 2.021 . S
O150 C147 1.238 . S
O151 Co145 2.052 . S
O151 C147 1.241 . S
O152 Co140 2.137 . S
O152 C143 1.247 . S
O153 Co140 2.244 . S
O153 C143 1.272 . S
O153 Co145 2.135 . S
Co154 O155 2.216 . S
Co154 O156 2.091 . S
Co154 O158 2.004 . S
Co154 O164 2.021 . S
Co154 O166 2.137 . S
Co154 O167 2.244 . S
O155 Co154 2.216 . S
O155 C162 1.247 . S
O156 Co154 2.091 . S
O156 C162 1.261 . S
C157 O166 1.247 . S
C157 O167 1.272 . S
O158 Co154 2.004 . S
O158 C163 1.259 . S
Co159 O160 2.061 . S
Co159 O165 2.052 . S
Co159 O167 2.135 . S
O160 Co159 2.061 . S
O160 C163 1.235 . S
C161 O164 1.238 . S
C161 O165 1.241 . S
C162 O155 1.247 . S
C162 O156 1.261 . S
C163 O158 1.259 . S
C163 O160 1.235 . S
O164 Co154 2.021 . S
O164 C161 1.238 . S
O165 Co159 2.052 . S
O165 C161 1.241 . S
O166 Co154 2.137 . S
O166 C157 1.247 . S
O167 Co154 2.244 . S
O167 C157 1.272 . S
O167 Co159 2.135 . S
Co168 O169 2.216 . S
Co168 O170 2.091 . S
Co168 O172 2.004 . S
Co168 O178 2.021 . S
Co168 O180 2.137 . S
Co168 O181 2.244 . S
O169 Co168 2.216 . S
O169 C176 1.247 . S
O170 Co168 2.091 . S
O170 C176 1.261 . S
C171 O180 1.247 . S
C171 O181 1.272 . S
O172 Co168 2.004 . S
O172 C177 1.259 . S
Co173 O174 2.061 . S
Co173 O179 2.052 . S
Co173 O181 2.135 . S
O174 Co173 2.061 . S
O174 C177 1.235 . S
C175 O178 1.238 . S
C175 O179 1.241 . S
C176 O169 1.247 . S
C176 O170 1.261 . S
C177 O172 1.259 . S
C177 O174 1.235 . S
O178 Co168 2.021 . S
O178 C175 1.238 . S
O179 Co173 2.052 . S
O179 C175 1.241 . S
O180 Co168 2.137 . S
O180 C171 1.247 . S
O181 Co168 2.244 . S
O181 C171 1.272 . S
O181 Co173 2.135 . S
Co182 O183 2.216 . S
Co182 O184 2.091 . S
Co182 O186 2.004 . S
Co182 O192 2.021 . S
Co182 O194 2.137 . S
Co182 O195 2.244 . S
O183 Co182 2.216 . S
O183 C190 1.199 1_655 S
O184 Co182 2.091 . S
O184 C190 1.263 1_655 S
C185 O194 1.247 . S
C185 O195 1.272 . S
O186 Co182 2.004 . S
O186 C191 1.259 . S
Co187 O188 2.061 . S
Co187 O193 2.052 . S
Co187 O195 2.135 . S
O188 Co187 2.061 . S
O188 C191 1.235 . S
C189 O192 1.238 . S
C189 O193 1.241 . S
C190 O183 1.199 1_455 S
C190 O184 1.263 1_455 S
C191 O186 1.259 . S
C191 O188 1.235 . S
O192 Co182 2.021 . S
O192 C189 1.238 . S
O193 Co187 2.052 . S
O193 C189 1.241 . S
O194 Co182 2.137 . S
O194 C185 1.247 . S
O195 Co182 2.244 . S
O195 C185 1.272 . S
O195 Co187 2.135 . S
Co196 O197 2.216 . S
Co196 O198 2.091 . S
Co196 O200 2.004 . S
Co196 O206 2.021 . S
Co196 O208 2.137 . S
Co196 O209 2.244 . S
O197 Co196 2.216 . S
O197 C204 1.247 . S
O198 Co196 2.091 . S
O198 C204 1.261 . S
C199 O208 1.247 . S
C199 O209 1.272 . S
O200 Co196 2.004 . S
O200 C205 1.259 . S
Co201 O202 2.061 . S
Co201 O207 2.052 . S
Co201 O209 2.135 . S
O202 Co201 2.061 . S
O202 C205 1.235 . S
C203 O206 1.238 . S
C203 O207 1.241 . S
C204 O197 1.247 . S
C204 O198 1.261 . S
C205 O200 1.259 . S
C205 O202 1.235 . S
O206 Co196 2.021 . S
O206 C203 1.238 . S
O207 Co201 2.052 . S
O207 C203 1.241 . S
O208 Co196 2.137 . S
O208 C199 1.247 . S
O209 Co196 2.244 . S
O209 C199 1.272 . S
O209 Co201 2.135 . S
Co210 O211 2.216 . S
Co210 O212 2.091 . S
Co210 O214 2.004 . S
Co210 O220 2.021 . S
Co210 O222 2.137 . S
Co210 O223 2.244 . S
O211 Co210 2.216 . S
O211 C218 1.247 . S
O212 Co210 2.091 . S
O212 C218 1.261 . S
C213 O222 1.247 . S
C213 O223 1.272 . S
O214 Co210 2.004 . S
O214 C219 1.259 . S
Co215 O216 2.061 . S
Co215 O221 2.052 . S
Co215 O223 2.135 . S
O216 Co215 2.061 . S
O216 C219 1.235 . S
C217 O220 1.238 . S
C217 O221 1.241 . S
C218 O211 1.247 . S
C218 O212 1.261 . S
C219 O214 1.259 . S
C219 O216 1.235 . S
O220 Co210 2.021 . S
O220 C217 1.238 . S
O221 Co215 2.052 . S
O221 C217 1.241 . S
O222 Co210 2.137 . S
O222 C213 1.247 . S
O223 Co210 2.244 . S
O223 C213 1.272 . S
O223 Co215 2.135 . S
Co224 O225 2.216 . S
Co224 O226 2.091 . S
Co224 O228 2.004 . S
Co224 O234 2.021 . S
Co224 O236 2.137 . S
Co224 O237 2.244 . S
O225 Co224 2.216 . S
O225 C232 1.247 . S
O226 Co224 2.091 . S
O226 C232 1.261 . S
C227 O236 1.247 . S
C227 O237 1.272 . S
O228 Co224 2.004 . S
O228 C233 1.259 . S
Co229 O230 2.061 . S
Co229 O235 2.052 . S
Co229 O237 2.135 . S
O230 Co229 2.061 . S
O230 C233 1.235 . S
C231 O234 1.238 . S
C231 O235 1.241 . S
C232 O225 1.247 . S
C232 O226 1.261 . S
C233 O228 1.259 . S
C233 O230 1.235 . S
O234 Co224 2.021 . S
O234 C231 1.238 . S
O235 Co229 2.052 . S
O235 C231 1.241 . S
O236 Co224 2.137 . S
O236 C227 1.247 . S
O237 Co224 2.244 . S
O237 C227 1.272 . S
O237 Co229 2.135 . S
Co238 O239 2.216 . S
Co238 O240 2.091 . S
Co238 O242 2.004 . S
Co238 O248 2.021 . S
Co238 O250 2.137 . S
Co238 O251 2.244 . S
O239 Co238 2.216 . S
O239 C246 1.247 . S
O240 Co238 2.091 . S
O240 C246 1.261 . S
C241 O250 1.247 . S
C241 O251 1.272 . S
O242 Co238 2.004 . S
O242 C247 1.259 . S
Co243 O244 2.061 . S
Co243 O249 2.052 . S
Co243 O251 2.135 . S
O244 Co243 2.061 . S
O244 C247 1.235 . S
C245 O248 1.238 . S
C245 O249 1.241 . S
C246 O239 1.247 . S
C246 O240 1.261 . S
C247 O242 1.259 . S
C247 O244 1.235 . S
O248 Co238 2.021 . S
O248 C245 1.238 . S
O249 Co243 2.052 . S
O249 C245 1.241 . S
O250 Co238 2.137 . S
O250 C241 1.247 . S
O251 Co238 2.244 . S
O251 C241 1.272 . S
O251 Co243 2.135 . S
H252 C279 0.929 . S
N253 C278 1.433 . S
N253 C284 1.435 . S
N253 C290 1.423 . S
H254 C280 0.930 . S
H255 C283 0.931 . S
H256 C282 0.929 . S
H257 C285 0.930 . S
H258 C286 0.932 . S
H259 C289 0.929 . S
H260 C288 0.931 . S
H261 C291 0.929 . S
H262 C295 0.932 . S
H263 C292 0.931 . S
H264 C294 0.929 . S
H265 C297 0.929 . S
H266 C298 0.930 . S
H267 C300 0.929 . S
H268 C301 0.931 . S
H269 C303 0.930 . S
H270 C304 0.932 . S
H271 C306 0.931 . S
H272 C307 0.929 . S
H273 C309 0.929 . S
H274 C310 0.931 . S
H275 C312 0.929 . S
N276 C296 1.433 . S
N276 C302 1.435 . S
N276 C308 1.423 . S
H277 C313 0.932 . S
C278 N253 1.433 . S
C278 C279 1.363 . S
C278 C283 1.370 . S
C279 H252 0.929 . S
C279 C278 1.363 . S
C279 C280 1.385 . S
C280 H254 0.930 . S
C280 C279 1.385 . S
C280 C281 1.357 . S
C281 C280 1.357 . S
C281 C282 1.406 . S
C282 H256 0.929 . S
C282 C281 1.406 . S
C282 C283 1.391 . S
C283 H255 0.931 . S
C283 C278 1.370 . S
C283 C282 1.391 . S
C284 N253 1.435 . S
C284 C285 1.358 . S
C284 C289 1.371 . S
C285 H257 0.930 . S
C285 C284 1.358 . S
C285 C286 1.405 . S
C286 H258 0.932 . S
C286 C285 1.405 . S
C286 C287 1.383 . S
C287 C286 1.383 . S
C287 C288 1.393 . S
C288 H260 0.931 . S
C288 C287 1.393 . S
C288 C289 1.382 . S
C289 H259 0.929 . S
C289 C284 1.371 . S
C289 C288 1.382 . S
C290 N253 1.423 . S
C290 C291 1.362 . S
C290 C295 1.388 . S
C291 H261 0.929 . S
C291 C290 1.362 . S
C291 C292 1.376 . S
C292 H263 0.931 . S
C292 C291 1.376 . S
C292 C293 1.396 . S
C293 C292 1.396 . S
C293 C294 1.348 . S
C293 C311 1.472 . S
C294 H264 0.929 . S
C294 C293 1.348 . S
C294 C295 1.443 . S
C295 H262 0.932 . S
C295 C290 1.388 . S
C295 C294 1.443 . S
C296 N276 1.433 . S
C296 C297 1.363 . S
C296 C301 1.370 . S
C297 H265 0.929 . S
C297 C296 1.363 . S
C297 C298 1.385 . S
C298 H266 0.930 . S
C298 C297 1.385 . S
C298 C299 1.357 . S
C299 C298 1.357 . S
C299 C300 1.406 . S
C300 H267 0.929 . S
C300 C299 1.406 . S
C300 C301 1.391 . S
C301 H268 0.931 . S
C301 C296 1.370 . S
C301 C300 1.391 . S
C302 N276 1.435 . S
C302 C303 1.358 . S
C302 C307 1.371 . S
C303 H269 0.930 . S
C303 C302 1.358 . S
C303 C304 1.405 . S
C304 H270 0.932 . S
C304 C303 1.405 . S
C304 C305 1.383 . S
C305 C304 1.383 . S
C305 C306 1.393 . S
C306 H271 0.931 . S
C306 C305 1.393 . S
C306 C307 1.382 . S
C307 H272 0.929 . S
C307 C302 1.371 . S
C307 C306 1.382 . S
C308 N276 1.423 . S
C308 C309 1.362 . S
C308 C313 1.388 . S
C309 H273 0.929 . S
C309 C308 1.362 . S
C309 C310 1.376 . S
C310 H274 0.931 . S
C310 C309 1.376 . S
C310 C311 1.396 . S
C311 C293 1.472 . S
C311 C310 1.396 . S
C311 C312 1.348 . S
C312 H275 0.929 . S
C312 C311 1.348 . S
C312 C313 1.443 . S
C313 H277 0.932 . S
C313 C308 1.388 . S
C313 C312 1.443 . S
H314 C341 0.929 . S
N315 C340 1.433 . S
N315 C346 1.435 . S
N315 C352 1.423 . S
H316 C342 0.930 . S
H317 C345 0.931 . S
H318 C344 0.929 . S
H319 C347 0.930 . S
H320 C348 0.932 . S
H321 C351 0.929 . S
H322 C350 0.931 . S
H323 C353 0.929 . S
H324 C357 0.932 . S
H325 C354 0.931 . S
H326 C356 0.929 . S
H327 C359 0.929 . S
H328 C360 0.930 . S
H329 C362 0.929 . S
H330 C363 0.931 . S
H331 C365 0.930 . S
H332 C366 0.932 . S
H333 C368 0.931 . S
H334 C369 0.929 . S
H335 C371 0.929 . S
H336 C372 0.931 . S
H337 C374 0.929 . S
N338 C358 1.433 . S
N338 C364 1.435 . S
N338 C370 1.423 . S
H339 C375 0.932 . S
C340 N315 1.433 . S
C340 C341 1.363 . S
C340 C345 1.370 . S
C341 H314 0.929 . S
C341 C340 1.363 . S
C341 C342 1.385 . S
C342 H316 0.930 . S
C342 C341 1.385 . S
C342 C343 1.357 . S
C343 C342 1.357 . S
C343 C344 1.406 . S
C344 H318 0.929 . S
C344 C343 1.406 . S
C344 C345 1.391 . S
C345 H317 0.931 . S
C345 C340 1.370 . S
C345 C344 1.391 . S
C346 N315 1.435 . S
C346 C347 1.358 . S
C346 C351 1.371 . S
C347 H319 0.930 . S
C347 C346 1.358 . S
C347 C348 1.405 . S
C348 H320 0.932 . S
C348 C347 1.405 . S
C348 C349 1.383 . S
C349 C348 1.383 . S
C349 C350 1.393 . S
C350 H322 0.931 . S
C350 C349 1.393 . S
C350 C351 1.382 . S
C351 H321 0.929 . S
C351 C346 1.371 . S
C351 C350 1.382 . S
C352 N315 1.423 . S
C352 C353 1.362 . S
C352 C357 1.388 . S
C353 H323 0.929 . S
C353 C352 1.362 . S
C353 C354 1.376 . S
C354 H325 0.931 . S
C354 C353 1.376 . S
C354 C355 1.396 . S
C355 C354 1.396 . S
C355 C356 1.348 . S
C355 C373 1.472 . S
C356 H326 0.929 . S
C356 C355 1.348 . S
C356 C357 1.443 . S
C357 H324 0.932 . S
C357 C352 1.388 . S
C357 C356 1.443 . S
C358 N338 1.433 . S
C358 C359 1.363 . S
C358 C363 1.370 . S
C359 H327 0.929 . S
C359 C358 1.363 . S
C359 C360 1.385 . S
C360 H328 0.930 . S
C360 C359 1.385 . S
C360 C361 1.357 . S
C361 C360 1.357 . S
C361 C362 1.406 . S
C362 H329 0.929 . S
C362 C361 1.406 . S
C362 C363 1.391 . S
C363 H330 0.931 . S
C363 C358 1.370 . S
C363 C362 1.391 . S
C364 N338 1.435 . S
C364 C365 1.358 . S
C364 C369 1.371 . S
C365 H331 0.930 . S
C365 C364 1.358 . S
C365 C366 1.405 . S
C366 H332 0.932 . S
C366 C365 1.405 . S
C366 C367 1.383 . S
C367 C366 1.383 . S
C367 C368 1.393 . S
C368 H333 0.931 . S
C368 C367 1.393 . S
C368 C369 1.382 . S
C369 H334 0.929 . S
C369 C364 1.371 . S
C369 C368 1.382 . S
C370 N338 1.423 . S
C370 C371 1.362 . S
C370 C375 1.388 . S
C371 H335 0.929 . S
C371 C370 1.362 . S
C371 C372 1.376 . S
C372 H336 0.931 . S
C372 C371 1.376 . S
C372 C373 1.396 . S
C373 C355 1.472 . S
C373 C372 1.396 . S
C373 C374 1.348 . S
C374 H337 0.929 . S
C374 C373 1.348 . S
C374 C375 1.443 . S
C375 H339 0.932 . S
C375 C370 1.388 . S
C375 C374 1.443 . S
H376 C403 0.929 . S
N377 C402 1.433 . S
N377 C408 1.435 . S
N377 C414 1.423 . S
H378 C404 0.930 . S
H379 C407 0.931 . S
H380 C406 0.929 . S
H381 C409 0.930 . S
H382 C410 0.932 . S
H383 C413 0.929 . S
H384 C412 0.931 . S
H385 C415 0.929 . S
H386 C419 0.932 . S
H387 C416 0.931 . S
H388 C418 0.929 . S
H389 C421 0.929 . S
H390 C422 0.930 . S
H391 C424 0.929 . S
H392 C425 0.931 . S
H393 C427 0.930 . S
H394 C428 0.932 . S
H395 C430 0.931 . S
H396 C431 0.929 . S
H397 C433 0.929 . S
H398 C434 0.931 . S
H399 C436 0.929 . S
N400 C420 1.433 . S
N400 C426 1.435 . S
N400 C432 1.423 . S
H401 C437 0.932 . S
C402 N377 1.433 . S
C402 C403 1.363 . S
C402 C407 1.370 . S
C403 H376 0.929 . S
C403 C402 1.363 . S
C403 C404 1.385 . S
C404 H378 0.930 . S
C404 C403 1.385 . S
C404 C405 1.357 . S
C405 C404 1.357 . S
C405 C406 1.406 . S
C406 H380 0.929 . S
C406 C405 1.406 . S
C406 C407 1.391 . S
C407 H379 0.931 . S
C407 C402 1.370 . S
C407 C406 1.391 . S
C408 N377 1.435 . S
C408 C409 1.358 . S
C408 C413 1.371 . S
C409 H381 0.930 . S
C409 C408 1.358 . S
C409 C410 1.405 . S
C410 H382 0.932 . S
C410 C409 1.405 . S
C410 C411 1.383 . S
C411 C410 1.383 . S
C411 C412 1.393 . S
C412 H384 0.931 . S
C412 C411 1.393 . S
C412 C413 1.382 . S
C413 H383 0.929 . S
C413 C408 1.371 . S
C413 C412 1.382 . S
C414 N377 1.423 . S
C414 C415 1.362 . S
C414 C419 1.388 . S
C415 H385 0.929 . S
C415 C414 1.362 . S
C415 C416 1.376 . S
C416 H387 0.931 . S
C416 C415 1.376 . S
C416 C417 1.396 . S
C417 C416 1.396 . S
C417 C418 1.348 . S
C417 C435 1.472 . S
C418 H388 0.929 . S
C418 C417 1.348 . S
C418 C419 1.443 . S
C419 H386 0.932 . S
C419 C414 1.388 . S
C419 C418 1.443 . S
C420 N400 1.433 . S
C420 C421 1.363 . S
C420 C425 1.370 . S
C421 H389 0.929 . S
C421 C420 1.363 . S
C421 C422 1.385 . S
C422 H390 0.930 . S
C422 C421 1.385 . S
C422 C423 1.357 . S
C423 C422 1.357 . S
C423 C424 1.406 . S
C424 H391 0.929 . S
C424 C423 1.406 . S
C424 C425 1.391 . S
C425 H392 0.931 . S
C425 C420 1.370 . S
C425 C424 1.391 . S
C426 N400 1.435 . S
C426 C427 1.358 . S
C426 C431 1.371 . S
C427 H393 0.930 . S
C427 C426 1.358 . S
C427 C428 1.405 . S
C428 H394 0.932 . S
C428 C427 1.405 . S
C428 C429 1.383 . S
C429 C428 1.383 . S
C429 C430 1.393 . S
C430 H395 0.931 . S
C430 C429 1.393 . S
C430 C431 1.382 . S
C431 H396 0.929 . S
C431 C426 1.371 . S
C431 C430 1.382 . S
C432 N400 1.423 . S
C432 C433 1.362 . S
C432 C437 1.388 . S
C433 H397 0.929 . S
C433 C432 1.362 . S
C433 C434 1.376 . S
C434 H398 0.931 . S
C434 C433 1.376 . S
C434 C435 1.396 . S
C435 C417 1.472 . S
C435 C434 1.396 . S
C435 C436 1.348 . S
C436 H399 0.929 . S
C436 C435 1.348 . S
C436 C437 1.443 . S
C437 H401 0.932 . S
C437 C432 1.388 . S
C437 C436 1.443 . S
H438 C465 0.929 . S
N439 C464 1.433 . S
N439 C470 1.435 . S
N439 C476 1.423 . S
H440 C466 0.930 . S
H441 C469 0.931 . S
H442 C468 0.929 . S
H443 C471 0.930 . S
H444 C472 0.932 . S
H445 C475 0.929 . S
H446 C474 0.931 . S
H447 C477 0.929 . S
H448 C481 0.932 . S
H449 C478 0.931 . S
H450 C480 0.929 . S
H451 C483 0.929 . S
H452 C484 0.930 . S
H453 C486 0.929 . S
H454 C487 0.931 . S
H455 C489 0.930 . S
H456 C490 0.932 . S
H457 C492 0.931 . S
H458 C493 0.929 . S
H459 C495 0.929 . S
H460 C496 0.931 . S
H461 C498 0.929 . S
N462 C482 1.433 . S
N462 C488 1.435 . S
N462 C494 1.423 . S
H463 C499 0.932 . S
C464 N439 1.433 . S
C464 C465 1.363 . S
C464 C469 1.370 . S
C465 H438 0.929 . S
C465 C464 1.363 . S
C465 C466 1.385 . S
C466 H440 0.930 . S
C466 C465 1.385 . S
C466 C467 1.357 . S
C467 C466 1.357 . S
C467 C468 1.406 . S
C468 H442 0.929 . S
C468 C467 1.406 . S
C468 C469 1.391 . S
C469 H441 0.931 . S
C469 C464 1.370 . S
C469 C468 1.391 . S
C470 N439 1.435 . S
C470 C471 1.358 . S
C470 C475 1.371 . S
C471 H443 0.930 . S
C471 C470 1.358 . S
C471 C472 1.405 . S
C472 H444 0.932 . S
C472 C471 1.405 . S
C472 C473 1.383 . S
C473 C472 1.383 . S
C473 C474 1.393 . S
C474 H446 0.931 . S
C474 C473 1.393 . S
C474 C475 1.382 . S
C475 H445 0.929 . S
C475 C470 1.371 . S
C475 C474 1.382 . S
C476 N439 1.423 . S
C476 C477 1.362 . S
C476 C481 1.388 . S
C477 H447 0.929 . S
C477 C476 1.362 . S
C477 C478 1.376 . S
C478 H449 0.931 . S
C478 C477 1.376 . S
C478 C479 1.396 . S
C479 C478 1.396 . S
C479 C480 1.348 . S
C479 C497 1.472 . S
C480 H450 0.929 . S
C480 C479 1.348 . S
C480 C481 1.443 . S
C481 H448 0.932 . S
C481 C476 1.388 . S
C481 C480 1.443 . S
C482 N462 1.433 . S
C482 C483 1.363 . S
C482 C487 1.370 . S
C483 H451 0.929 . S
C483 C482 1.363 . S
C483 C484 1.385 . S
C484 H452 0.930 . S
C484 C483 1.385 . S
C484 C485 1.357 . S
C485 C484 1.357 . S
C485 C486 1.406 . S
C486 H453 0.929 . S
C486 C485 1.406 . S
C486 C487 1.391 . S
C487 H454 0.931 . S
C487 C482 1.370 . S
C487 C486 1.391 . S
C488 N462 1.435 . S
C488 C489 1.358 . S
C488 C493 1.371 . S
C489 H455 0.930 . S
C489 C488 1.358 . S
C489 C490 1.405 . S
C490 H456 0.932 . S
C490 C489 1.405 . S
C490 C491 1.383 . S
C491 C490 1.383 . S
C491 C492 1.393 . S
C492 H457 0.931 . S
C492 C491 1.393 . S
C492 C493 1.382 . S
C493 H458 0.929 . S
C493 C488 1.371 . S
C493 C492 1.382 . S
C494 N462 1.423 . S
C494 C495 1.362 . S
C494 C499 1.388 . S
C495 H459 0.929 . S
C495 C494 1.362 . S
C495 C496 1.376 . S
C496 H460 0.931 . S
C496 C495 1.376 . S
C496 C497 1.396 . S
C497 C479 1.472 . S
C497 C496 1.396 . S
C497 C498 1.348 . S
C498 H461 0.929 . S
C498 C497 1.348 . S
C498 C499 1.443 . S
C499 H463 0.932 . S
C499 C494 1.388 . S
C499 C498 1.443 . S
H500 C527 0.929 . S
N501 C526 1.433 . S
N501 C532 1.435 . S
N501 C538 1.423 . S
H502 C528 0.930 . S
H503 C531 0.931 . S
H504 C530 0.929 . S
H505 C533 0.930 . S
H506 C534 0.932 . S
H507 C537 0.929 . S
H508 C536 0.931 . S
H509 C539 0.929 . S
H510 C543 0.932 . S
H511 C540 0.931 . S
H512 C542 0.929 . S
H513 C545 0.929 . S
H514 C546 0.930 . S
H515 C548 0.929 . S
H516 C549 0.931 . S
H517 C551 0.930 . S
H518 C552 0.932 . S
H519 C554 0.931 . S
H520 C555 0.929 . S
H521 C557 0.929 . S
H522 C558 0.931 . S
H523 C560 0.929 . S
N524 C544 1.433 . S
N524 C550 1.435 . S
N524 C556 1.423 . S
H525 C561 0.932 . S
C526 N501 1.433 . S
C526 C527 1.363 . S
C526 C531 1.370 . S
C527 H500 0.929 . S
C527 C526 1.363 . S
C527 C528 1.385 . S
C528 H502 0.930 . S
C528 C527 1.385 . S
C528 C529 1.357 . S
C529 C528 1.357 . S
C529 C530 1.406 . S
C530 H504 0.929 . S
C530 C529 1.406 . S
C530 C531 1.391 . S
C531 H503 0.931 . S
C531 C526 1.370 . S
C531 C530 1.391 . S
C532 N501 1.435 . S
C532 C533 1.358 . S
C532 C537 1.371 . S
C533 H505 0.930 . S
C533 C532 1.358 . S
C533 C534 1.405 . S
C534 H506 0.932 . S
C534 C533 1.405 . S
C534 C535 1.383 . S
C535 C534 1.383 . S
C535 C536 1.393 . S
C536 H508 0.931 . S
C536 C535 1.393 . S
C536 C537 1.382 . S
C537 H507 0.929 . S
C537 C532 1.371 . S
C537 C536 1.382 . S
C538 N501 1.423 . S
C538 C539 1.362 . S
C538 C543 1.388 . S
C539 H509 0.929 . S
C539 C538 1.362 . S
C539 C540 1.376 . S
C540 H511 0.931 . S
C540 C539 1.376 . S
C540 C541 1.396 . S
C541 C540 1.396 . S
C541 C542 1.348 . S
C541 C559 1.472 . S
C542 H512 0.929 . S
C542 C541 1.348 . S
C542 C543 1.443 . S
C543 H510 0.932 . S
C543 C538 1.388 . S
C543 C542 1.443 . S
C544 N524 1.433 . S
C544 C545 1.363 . S
C544 C549 1.370 . S
C545 H513 0.929 . S
C545 C544 1.363 . S
C545 C546 1.385 . S
C546 H514 0.930 . S
C546 C545 1.385 . S
C546 C547 1.357 . S
C547 C546 1.357 . S
C547 C548 1.406 . S
C548 H515 0.929 . S
C548 C547 1.406 . S
C548 C549 1.391 . S
C549 H516 0.931 . S
C549 C544 1.370 . S
C549 C548 1.391 . S
C550 N524 1.435 . S
C550 C551 1.358 . S
C550 C555 1.371 . S
C551 H517 0.930 . S
C551 C550 1.358 . S
C551 C552 1.405 . S
C552 H518 0.932 . S
C552 C551 1.405 . S
C552 C553 1.383 . S
C553 C552 1.383 . S
C553 C554 1.393 . S
C554 H519 0.931 . S
C554 C553 1.393 . S
C554 C555 1.382 . S
C555 H520 0.929 . S
C555 C550 1.371 . S
C555 C554 1.382 . S
C556 N524 1.423 . S
C556 C557 1.362 . S
C556 C561 1.388 . S
C557 H521 0.929 . S
C557 C556 1.362 . S
C557 C558 1.376 . S
C558 H522 0.931 . S
C558 C557 1.376 . S
C558 C559 1.396 . S
C559 C541 1.472 . S
C559 C558 1.396 . S
C559 C560 1.348 . S
C560 H523 0.929 . S
C560 C559 1.348 . S
C560 C561 1.443 . S
C561 H525 0.932 . S
C561 C556 1.388 . S
C561 C560 1.443 . S
H562 C589 0.929 . S
N563 C588 1.433 . S
N563 C594 1.435 . S
N563 C600 1.423 . S
H564 C590 0.930 . S
H565 C593 0.931 . S
H566 C592 0.929 . S
H567 C595 0.930 . S
H568 C596 0.932 . S
H569 C599 0.929 . S
H570 C598 0.931 . S
H571 C601 0.929 . S
H572 C605 0.932 . S
H573 C602 0.931 . S
H574 C604 0.929 . S
H575 C607 0.929 . S
H576 C608 0.930 . S
H577 C610 0.929 . S
H578 C611 0.931 . S
H579 C613 0.930 . S
H580 C614 0.932 . S
H581 C616 0.931 . S
H582 C617 0.929 . S
H583 C619 0.929 . S
H584 C620 0.931 . S
H585 C622 0.929 . S
N586 C606 1.433 . S
N586 C612 1.435 . S
N586 C618 1.423 . S
H587 C623 0.932 . S
C588 N563 1.433 . S
C588 C589 1.363 . S
C588 C593 1.370 . S
C589 H562 0.929 . S
C589 C588 1.363 . S
C589 C590 1.385 . S
C590 H564 0.930 . S
C590 C589 1.385 . S
C590 C591 1.357 . S
C591 C590 1.357 . S
C591 C592 1.406 . S
C592 H566 0.929 . S
C592 C591 1.406 . S
C592 C593 1.391 . S
C593 H565 0.931 . S
C593 C588 1.370 . S
C593 C592 1.391 . S
C594 N563 1.435 . S
C594 C595 1.358 . S
C594 C599 1.371 . S
C595 H567 0.930 . S
C595 C594 1.358 . S
C595 C596 1.405 . S
C596 H568 0.932 . S
C596 C595 1.405 . S
C596 C597 1.383 . S
C597 C596 1.383 . S
C597 C598 1.393 . S
C598 H570 0.931 . S
C598 C597 1.393 . S
C598 C599 1.382 . S
C599 H569 0.929 . S
C599 C594 1.371 . S
C599 C598 1.382 . S
C600 N563 1.423 . S
C600 C601 1.362 . S
C600 C605 1.388 . S
C601 H571 0.929 . S
C601 C600 1.362 . S
C601 C602 1.376 . S
C602 H573 0.931 . S
C602 C601 1.376 . S
C602 C603 1.396 . S
C603 C602 1.396 . S
C603 C604 1.348 . S
C603 C621 1.472 . S
C604 H574 0.929 . S
C604 C603 1.348 . S
C604 C605 1.443 . S
C605 H572 0.932 . S
C605 C600 1.388 . S
C605 C604 1.443 . S
C606 N586 1.433 . S
C606 C607 1.363 . S
C606 C611 1.370 . S
C607 H575 0.929 . S
C607 C606 1.363 . S
C607 C608 1.385 . S
C608 H576 0.930 . S
C608 C607 1.385 . S
C608 C609 1.357 . S
C609 C608 1.357 . S
C609 C610 1.406 . S
C610 H577 0.929 . S
C610 C609 1.406 . S
C610 C611 1.391 . S
C611 H578 0.931 . S
C611 C606 1.370 . S
C611 C610 1.391 . S
C612 N586 1.435 . S
C612 C613 1.358 . S
C612 C617 1.371 . S
C613 H579 0.930 . S
C613 C612 1.358 . S
C613 C614 1.405 . S
C614 H580 0.932 . S
C614 C613 1.405 . S
C614 C615 1.383 . S
C615 C614 1.383 . S
C615 C616 1.393 . S
C616 H581 0.931 . S
C616 C615 1.393 . S
C616 C617 1.382 . S
C617 H582 0.929 . S
C617 C612 1.371 . S
C617 C616 1.382 . S
C618 N586 1.423 . S
C618 C619 1.362 . S
C618 C623 1.388 . S
C619 H583 0.929 . S
C619 C618 1.362 . S
C619 C620 1.376 . S
C620 H584 0.931 . S
C620 C619 1.376 . S
C620 C621 1.396 . S
C621 C603 1.472 . S
C621 C620 1.396 . S
C621 C622 1.348 . S
C622 H585 0.929 . S
C622 C621 1.348 . S
C622 C623 1.443 . S
C623 H587 0.932 . S
C623 C618 1.388 . S
C623 C622 1.443 . S
H624 C651 0.929 . S
N625 C650 1.433 . S
N625 C656 1.435 . S
N625 C662 1.423 . S
H626 C652 0.930 . S
H627 C655 0.931 . S
H628 C654 0.929 . S
H629 C657 0.930 . S
H630 C658 0.932 . S
H631 C661 0.929 . S
H632 C660 0.931 . S
H633 C663 0.929 . S
H634 C667 0.932 . S
H635 C664 0.931 . S
H636 C666 0.929 . S
H637 C669 0.929 . S
H638 C670 0.930 . S
H639 C672 0.929 . S
H640 C673 0.931 . S
H641 C675 0.930 . S
H642 C676 0.932 . S
H643 C678 0.931 . S
H644 C679 0.929 . S
H645 C681 0.929 . S
H646 C682 0.931 . S
H647 C684 0.929 . S
N648 C668 1.433 . S
N648 C674 1.435 . S
N648 C680 1.423 . S
H649 C685 0.932 . S
C650 N625 1.433 . S
C650 C651 1.363 . S
C650 C655 1.370 . S
C651 H624 0.929 . S
C651 C650 1.363 . S
C651 C652 1.385 . S
C652 H626 0.930 . S
C652 C651 1.385 . S
C652 C653 1.357 . S
C653 C652 1.357 . S
C653 C654 1.406 . S
C654 H628 0.929 . S
C654 C653 1.406 . S
C654 C655 1.391 . S
C655 H627 0.931 . S
C655 C650 1.370 . S
C655 C654 1.391 . S
C656 N625 1.435 . S
C656 C657 1.358 . S
C656 C661 1.371 . S
C657 H629 0.930 . S
C657 C656 1.358 . S
C657 C658 1.405 . S
C658 H630 0.932 . S
C658 C657 1.405 . S
C658 C659 1.383 . S
C659 C658 1.383 . S
C659 C660 1.393 . S
C660 H632 0.931 . S
C660 C659 1.393 . S
C660 C661 1.382 . S
C661 H631 0.929 . S
C661 C656 1.371 . S
C661 C660 1.382 . S
C662 N625 1.423 . S
C662 C663 1.362 . S
C662 C667 1.388 . S
C663 H633 0.929 . S
C663 C662 1.362 . S
C663 C664 1.376 . S
C664 H635 0.931 . S
C664 C663 1.376 . S
C664 C665 1.396 . S
C665 C664 1.396 . S
C665 C666 1.348 . S
C665 C683 1.472 . S
C666 H636 0.929 . S
C666 C665 1.348 . S
C666 C667 1.443 . S
C667 H634 0.932 . S
C667 C662 1.388 . S
C667 C666 1.443 . S
C668 N648 1.433 . S
C668 C669 1.363 . S
C668 C673 1.370 . S
C669 H637 0.929 . S
C669 C668 1.363 . S
C669 C670 1.385 . S
C670 H638 0.930 . S
C670 C669 1.385 . S
C670 C671 1.357 . S
C671 C670 1.357 . S
C671 C672 1.406 . S
C672 H639 0.929 . S
C672 C671 1.406 . S
C672 C673 1.391 . S
C673 H640 0.931 . S
C673 C668 1.370 . S
C673 C672 1.391 . S
C674 N648 1.435 . S
C674 C675 1.358 . S
C674 C679 1.371 . S
C675 H641 0.930 . S
C675 C674 1.358 . S
C675 C676 1.405 . S
C676 H642 0.932 . S
C676 C675 1.405 . S
C676 C677 1.383 . S
C677 C676 1.383 . S
C677 C678 1.393 . S
C678 H643 0.931 . S
C678 C677 1.393 . S
C678 C679 1.382 . S
C679 H644 0.929 . S
C679 C674 1.371 . S
C679 C678 1.382 . S
C680 N648 1.423 . S
C680 C681 1.362 . S
C680 C685 1.388 . S
C681 H645 0.929 . S
C681 C680 1.362 . S
C681 C682 1.376 . S
C682 H646 0.931 . S
C682 C681 1.376 . S
C682 C683 1.396 . S
C683 C665 1.472 . S
C683 C682 1.396 . S
C683 C684 1.348 . S
C684 H647 0.929 . S
C684 C683 1.348 . S
C684 C685 1.443 . S
C685 H649 0.932 . S
C685 C680 1.388 . S
C685 C684 1.443 . S
H686 C713 0.929 . S
N687 C712 1.433 . S
N687 C718 1.435 . S
N687 C724 1.423 . S
H688 C714 0.930 . S
H689 C717 0.931 . S
H690 C716 0.929 . S
H691 C719 0.930 . S
H692 C720 0.932 . S
H693 C723 0.929 . S
H694 C722 0.931 . S
H695 C725 0.929 . S
H696 C729 0.932 . S
H697 C726 0.931 . S
H698 C728 0.929 . S
H699 C731 0.929 . S
H700 C732 0.930 . S
H701 C734 0.929 . S
H702 C735 0.931 . S
H703 C737 0.930 . S
H704 C738 0.932 . S
H705 C740 0.931 . S
H706 C741 0.929 . S
H707 C743 0.929 . S
H708 C744 0.931 . S
H709 C746 0.929 . S
N710 C730 1.433 . S
N710 C736 1.435 . S
N710 C742 1.423 . S
H711 C747 0.932 . S
C712 N687 1.433 . S
C712 C713 1.363 . S
C712 C717 1.370 . S
C713 H686 0.929 . S
C713 C712 1.363 . S
C713 C714 1.385 . S
C714 H688 0.930 . S
C714 C713 1.385 . S
C714 C715 1.357 . S
C715 C714 1.357 . S
C715 C716 1.406 . S
C716 H690 0.929 . S
C716 C715 1.406 . S
C716 C717 1.391 . S
C717 H689 0.931 . S
C717 C712 1.370 . S
C717 C716 1.391 . S
C718 N687 1.435 . S
C718 C719 1.358 . S
C718 C723 1.371 . S
C719 H691 0.930 . S
C719 C718 1.358 . S
C719 C720 1.405 . S
C720 H692 0.932 . S
C720 C719 1.405 . S
C720 C721 1.383 . S
C721 C720 1.383 . S
C721 C722 1.393 . S
C722 H694 0.931 . S
C722 C721 1.393 . S
C722 C723 1.382 . S
C723 H693 0.929 . S
C723 C718 1.371 . S
C723 C722 1.382 . S
C724 N687 1.423 . S
C724 C725 1.362 . S
C724 C729 1.388 . S
C725 H695 0.929 . S
C725 C724 1.362 . S
C725 C726 1.376 . S
C726 H697 0.931 . S
C726 C725 1.376 . S
C726 C727 1.396 . S
C727 C726 1.396 . S
C727 C728 1.348 . S
C727 C745 1.472 . S
C728 H698 0.929 . S
C728 C727 1.348 . S
C728 C729 1.443 . S
C729 H696 0.932 . S
C729 C724 1.388 . S
C729 C728 1.443 . S
C730 N710 1.433 . S
C730 C731 1.363 . S
C730 C735 1.370 . S
C731 H699 0.929 . S
C731 C730 1.363 . S
C731 C732 1.385 . S
C732 H700 0.930 . S
C732 C731 1.385 . S
C732 C733 1.357 . S
C733 C732 1.357 . S
C733 C734 1.406 . S
C734 H701 0.929 . S
C734 C733 1.406 . S
C734 C735 1.391 . S
C735 H702 0.931 . S
C735 C730 1.370 . S
C735 C734 1.391 . S
C736 N710 1.435 . S
C736 C737 1.358 . S
C736 C741 1.371 . S
C737 H703 0.930 . S
C737 C736 1.358 . S
C737 C738 1.405 . S
C738 H704 0.932 . S
C738 C737 1.405 . S
C738 C739 1.383 . S
C739 C738 1.383 . S
C739 C740 1.393 . S
C740 H705 0.931 . S
C740 C739 1.393 . S
C740 C741 1.382 . S
C741 H706 0.929 . S
C741 C736 1.371 . S
C741 C740 1.382 . S
C742 N710 1.423 . S
C742 C743 1.362 . S
C742 C747 1.388 . S
C743 H707 0.929 . S
C743 C742 1.362 . S
C743 C744 1.376 . S
C744 H708 0.931 . S
C744 C743 1.376 . S
C744 C745 1.396 . S
C745 C727 1.472 . S
C745 C744 1.396 . S
C745 C746 1.348 . S
C746 H709 0.929 . S
C746 C745 1.348 . S
C746 C747 1.443 . S
C747 H711 0.932 . S
C747 C742 1.388 . S
C747 C746 1.443 . S
H748 C775 0.929 . S
N749 C774 1.433 . S
N749 C780 1.435 . S
N749 C786 1.423 . S
H750 C776 0.930 . S
H751 C779 0.931 . S
H752 C778 0.929 . S
H753 C781 0.930 . S
H754 C782 0.932 . S
H755 C785 0.929 . S
H756 C784 0.931 . S
H757 C787 0.929 . S
H758 C791 0.932 . S
H759 C788 0.931 . S
H760 C790 0.929 . S
H761 C793 0.929 . S
H762 C794 0.930 . S
H763 C796 0.929 . S
H764 C797 0.931 . S
H765 C799 0.930 . S
H766 C800 0.932 . S
H767 C802 0.931 . S
H768 C803 0.929 . S
H769 C805 0.929 . S
H770 C806 0.931 . S
H771 C808 0.929 . S
N772 C792 1.433 . S
N772 C798 1.435 . S
N772 C804 1.423 . S
H773 C809 0.932 . S
C774 N749 1.433 . S
C774 C775 1.363 . S
C774 C779 1.370 . S
C775 H748 0.929 . S
C775 C774 1.363 . S
C775 C776 1.385 . S
C776 H750 0.930 . S
C776 C775 1.385 . S
C776 C777 1.357 . S
C777 C776 1.357 . S
C777 C778 1.406 . S
C778 H752 0.929 . S
C778 C777 1.406 . S
C778 C779 1.391 . S
C779 H751 0.931 . S
C779 C774 1.370 . S
C779 C778 1.391 . S
C780 N749 1.435 . S
C780 C781 1.358 . S
C780 C785 1.371 . S
C781 H753 0.930 . S
C781 C780 1.358 . S
C781 C782 1.405 . S
C782 H754 0.932 . S
C782 C781 1.405 . S
C782 C783 1.383 . S
C783 C782 1.383 . S
C783 C784 1.393 . S
C784 H756 0.931 . S
C784 C783 1.393 . S
C784 C785 1.382 . S
C785 H755 0.929 . S
C785 C780 1.371 . S
C785 C784 1.382 . S
C786 N749 1.423 . S
C786 C787 1.362 . S
C786 C791 1.388 . S
C787 H757 0.929 . S
C787 C786 1.362 . S
C787 C788 1.376 . S
C788 H759 0.931 . S
C788 C787 1.376 . S
C788 C789 1.396 . S
C789 C788 1.396 . S
C789 C790 1.348 . S
C789 C807 1.472 . S
C790 H760 0.929 . S
C790 C789 1.348 . S
C790 C791 1.443 . S
C791 H758 0.932 . S
C791 C786 1.388 . S
C791 C790 1.443 . S
C792 N772 1.433 . S
C792 C793 1.363 . S
C792 C797 1.370 . S
C793 H761 0.929 . S
C793 C792 1.363 . S
C793 C794 1.385 . S
C794 H762 0.930 . S
C794 C793 1.385 . S
C794 C795 1.357 . S
C795 C794 1.357 . S
C795 C796 1.406 . S
C796 H763 0.929 . S
C796 C795 1.406 . S
C796 C797 1.391 . S
C797 H764 0.931 . S
C797 C792 1.370 . S
C797 C796 1.391 . S
C798 N772 1.435 . S
C798 C799 1.358 . S
C798 C803 1.371 . S
C799 H765 0.930 . S
C799 C798 1.358 . S
C799 C800 1.405 . S
C800 H766 0.932 . S
C800 C799 1.405 . S
C800 C801 1.383 . S
C801 C800 1.383 . S
C801 C802 1.393 . S
C802 H767 0.931 . S
C802 C801 1.393 . S
C802 C803 1.382 . S
C803 H768 0.929 . S
C803 C798 1.371 . S
C803 C802 1.382 . S
C804 N772 1.423 . S
C804 C805 1.362 . S
C804 C809 1.388 . S
C805 H769 0.929 . S
C805 C804 1.362 . S
C805 C806 1.376 . S
C806 H770 0.931 . S
C806 C805 1.376 . S
C806 C807 1.396 . S
C807 C789 1.472 . S
C807 C806 1.396 . S
C807 C808 1.348 . S
C808 H771 0.929 . S
C808 C807 1.348 . S
C808 C809 1.443 . S
C809 H773 0.932 . S
C809 C804 1.388 . S
C809 C808 1.443 . S
H810 C837 0.929 . S
N811 C836 1.433 . S
N811 C842 1.435 . S
N811 C848 1.423 . S
H812 C838 0.930 . S
H813 C841 0.931 . S
H814 C840 0.929 . S
H815 C843 0.930 . S
H816 C844 0.932 . S
H817 C847 0.929 . S
H818 C846 0.931 . S
H819 C849 0.929 . S
H820 C853 0.932 1_655 S
H821 C850 0.931 . S
H822 C852 0.935 . S
H823 C855 0.929 . S
H824 C856 0.930 . S
H825 C858 0.929 . S
H826 C859 0.931 . S
H827 C861 0.930 . S
H828 C862 0.932 . S
H829 C864 0.931 . S
H830 C865 0.929 . S
H831 C867 0.929 . S
H832 C868 0.931 . S
H833 C870 0.971 . S
N834 C854 1.433 . S
N834 C860 1.435 . S
N834 C866 1.423 . S
H835 C871 0.932 1_655 S
C836 N811 1.433 . S
C836 C837 1.363 . S
C836 C841 1.370 1_455 S
C837 H810 0.929 . S
C837 C836 1.363 . S
C837 C838 1.385 . S
C838 H812 0.930 . S
C838 C837 1.385 . S
C838 C839 1.357 1_455 S
C839 C838 1.357 1_655 S
C839 C840 1.406 . S
C840 H814 0.929 . S
C840 C839 1.406 . S
C840 C841 1.391 . S
C841 H813 0.931 . S
C841 C836 1.370 1_655 S
C841 C840 1.391 . S
C842 N811 1.435 . S
C842 C843 1.358 1_455 S
C842 C847 1.371 . S
C843 H815 0.930 . S
C843 C842 1.358 1_655 S
C843 C844 1.405 . S
C844 H816 0.932 . S
C844 C843 1.405 . S
C844 C845 1.383 1_655 S
C845 C844 1.383 1_455 S
C845 C846 1.393 . S
C846 H818 0.931 . S
C846 C845 1.393 . S
C846 C847 1.382 . S
C847 H817 0.929 . S
C847 C842 1.371 . S
C847 C846 1.382 . S
C848 N811 1.423 . S
C848 C849 1.362 . S
C848 C853 1.388 . S
C849 H819 0.929 . S
C849 C848 1.362 . S
C849 C850 1.376 . S
C850 H821 0.931 . S
C850 C849 1.376 . S
C850 C851 1.396 . S
C851 C850 1.396 . S
C851 C852 1.348 . S
C851 C869 1.472 . S
C852 H822 0.935 . S
C852 C851 1.348 . S
C852 C853 1.443 . S
C853 H820 0.932 1_455 S
C853 C848 1.388 . S
C853 C852 1.443 . S
C854 N834 1.433 . S
C854 C855 1.363 . S
C854 C859 1.370 1_455 S
C855 H823 0.929 . S
C855 C854 1.363 . S
C855 C856 1.385 . S
C856 H824 0.930 . S
C856 C855 1.385 . S
C856 C857 1.357 1_455 S
C857 C856 1.357 1_655 S
C857 C858 1.406 . S
C858 H825 0.929 . S
C858 C857 1.406 . S
C858 C859 1.391 . S
C859 H826 0.931 . S
C859 C854 1.370 1_655 S
C859 C858 1.391 . S
C860 N834 1.435 . S
C860 C861 1.358 1_455 S
C860 C865 1.371 . S
C861 H827 0.930 . S
C861 C860 1.358 1_655 S
C861 C862 1.405 . S
C862 H828 0.932 . S
C862 C861 1.405 . S
C862 C863 1.383 1_655 S
C863 C862 1.383 1_455 S
C863 C864 1.393 . S
C864 H829 0.931 . S
C864 C863 1.393 . S
C864 C865 1.382 . S
C865 H830 0.929 . S
C865 C860 1.371 . S
C865 C864 1.382 . S
C866 N834 1.423 . S
C866 C867 1.362 . S
C866 C871 1.388 . S
C867 H831 0.929 . S
C867 C866 1.362 . S
C867 C868 1.376 . S
C868 H832 0.931 . S
C868 C867 1.376 . S
C868 C869 1.396 . S
C869 C851 1.472 . S
C869 C868 1.396 . S
C869 C870 1.348 . S
C870 H833 0.971 . S
C870 C869 1.348 . S
C870 C871 1.443 . S
C871 H835 0.932 1_455 S
C871 C866 1.388 . S
C871 C870 1.443 . S
H872 C899 0.929 . S
N873 C898 1.433 . S
N873 C904 1.435 . S
N873 C910 1.423 . S
H874 C900 0.930 . S
H875 C903 0.931 . S
H876 C902 0.929 . S
H877 C905 0.930 . S
H878 C906 0.932 . S
H879 C909 0.929 . S
H880 C908 0.931 . S
H881 C911 0.929 . S
H882 C915 0.932 . S
H883 C912 0.931 . S
H884 C914 0.929 . S
H885 C917 0.929 . S
H886 C918 0.930 . S
H887 C920 0.929 . S
H888 C921 0.931 . S
H889 C923 0.930 . S
H890 C924 0.932 . S
H891 C926 0.931 . S
H892 C927 0.929 . S
H893 C929 0.929 . S
H894 C930 0.931 . S
H895 C932 0.929 . S
N896 C916 1.433 . S
N896 C922 1.435 . S
N896 C928 1.423 . S
H897 C933 0.932 . S
C898 N873 1.433 . S
C898 C899 1.363 . S
C898 C903 1.370 . S
C899 H872 0.929 . S
C899 C898 1.363 . S
C899 C900 1.385 . S
C900 H874 0.930 . S
C900 C899 1.385 . S
C900 C901 1.357 . S
C901 C900 1.357 . S
C901 C902 1.406 . S
C902 H876 0.929 . S
C902 C901 1.406 . S
C902 C903 1.391 . S
C903 H875 0.931 . S
C903 C898 1.370 . S
C903 C902 1.391 . S
C904 N873 1.435 . S
C904 C905 1.358 . S
C904 C909 1.371 . S
C905 H877 0.930 . S
C905 C904 1.358 . S
C905 C906 1.405 . S
C906 H878 0.932 . S
C906 C905 1.405 . S
C906 C907 1.383 . S
C907 C906 1.383 . S
C907 C908 1.393 . S
C908 H880 0.931 . S
C908 C907 1.393 . S
C908 C909 1.382 . S
C909 H879 0.929 . S
C909 C904 1.371 . S
C909 C908 1.382 . S
C910 N873 1.423 . S
C910 C911 1.362 . S
C910 C915 1.388 . S
C911 H881 0.929 . S
C911 C910 1.362 . S
C911 C912 1.376 . S
C912 H883 0.931 . S
C912 C911 1.376 . S
C912 C913 1.396 . S
C913 C912 1.396 . S
C913 C914 1.348 . S
C913 C931 1.472 . S
C914 H884 0.929 . S
C914 C913 1.348 . S
C914 C915 1.443 . S
C915 H882 0.932 . S
C915 C910 1.388 . S
C915 C914 1.443 . S
C916 N896 1.433 . S
C916 C917 1.363 . S
C916 C921 1.370 . S
C917 H885 0.929 . S
C917 C916 1.363 . S
C917 C918 1.385 . S
C918 H886 0.930 . S
C918 C917 1.385 . S
C918 C919 1.357 . S
C919 C918 1.357 . S
C919 C920 1.406 . S
C920 H887 0.929 . S
C920 C919 1.406 . S
C920 C921 1.391 . S
C921 H888 0.931 . S
C921 C916 1.370 . S
C921 C920 1.391 . S
C922 N896 1.435 . S
C922 C923 1.358 . S
C922 C927 1.371 . S
C923 H889 0.930 . S
C923 C922 1.358 . S
C923 C924 1.405 . S
C924 H890 0.932 . S
C924 C923 1.405 . S
C924 C925 1.383 . S
C925 C924 1.383 . S
C925 C926 1.393 . S
C926 H891 0.931 . S
C926 C925 1.393 . S
C926 C927 1.382 . S
C927 H892 0.929 . S
C927 C922 1.371 . S
C927 C926 1.382 . S
C928 N896 1.423 . S
C928 C929 1.362 . S
C928 C933 1.388 . S
C929 H893 0.929 . S
C929 C928 1.362 . S
C929 C930 1.376 . S
C930 H894 0.931 . S
C930 C929 1.376 . S
C930 C931 1.396 . S
C931 C913 1.472 . S
C931 C930 1.396 . S
C931 C932 1.348 . S
C932 H895 0.929 . S
C932 C931 1.348 . S
C932 C933 1.443 . S
C933 H897 0.932 . S
C933 C928 1.388 . S
C933 C932 1.443 . S
H934 C961 0.929 . S
N935 C960 1.433 . S
N935 C966 1.435 . S
N935 C972 1.423 . S
H936 C962 0.930 . S
H937 C965 0.931 . S
H938 C964 0.929 . S
H939 C967 0.930 . S
H940 C968 0.932 . S
H941 C971 0.929 . S
H942 C970 0.931 . S
H943 C973 0.929 . S
H944 C977 0.932 1_545 S
H945 C974 0.931 . S
H946 C976 0.978 . S
H947 C979 0.929 . S
H948 C980 0.930 . S
H949 C982 0.929 . S
H950 C983 0.931 . S
H951 C985 0.930 . S
H952 C986 0.932 . S
H953 C988 0.931 . S
H954 C989 0.929 . S
H955 C991 0.929 . S
H956 C992 0.931 . S
H957 C994 0.936 . S
N958 C978 1.433 . S
N958 C984 1.435 . S
N958 C990 1.423 . S
H959 C995 0.932 1_545 S
C960 N935 1.433 . S
C960 C961 1.363 . S
C960 C965 1.370 1_565 S
C961 H934 0.929 . S
C961 C960 1.363 . S
C961 C962 1.385 . S
C962 H936 0.930 . S
C962 C961 1.385 . S
C962 C963 1.357 1_565 S
C963 C962 1.357 1_545 S
C963 C964 1.406 . S
C964 H938 0.929 . S
C964 C963 1.406 . S
C964 C965 1.391 . S
C965 H937 0.931 . S
C965 C960 1.370 1_545 S
C965 C964 1.391 . S
C966 N935 1.435 . S
C966 C967 1.358 1_565 S
C966 C971 1.371 . S
C967 H939 0.930 . S
C967 C966 1.358 1_545 S
C967 C968 1.405 . S
C968 H940 0.932 . S
C968 C967 1.405 . S
C968 C969 1.383 1_545 S
C969 C968 1.383 1_565 S
C969 C970 1.393 . S
C970 H942 0.931 . S
C970 C969 1.393 . S
C970 C971 1.382 . S
C971 H941 0.929 . S
C971 C966 1.371 . S
C971 C970 1.382 . S
C972 N935 1.423 . S
C972 C973 1.362 . S
C972 C977 1.388 . S
C973 H943 0.929 . S
C973 C972 1.362 . S
C973 C974 1.376 . S
C974 H945 0.931 . S
C974 C973 1.376 . S
C974 C975 1.396 . S
C975 C974 1.396 . S
C975 C976 1.348 . S
C975 C993 1.472 . S
C976 H946 0.978 . S
C976 C975 1.348 . S
C976 C977 1.443 . S
C977 H944 0.932 1_565 S
C977 C972 1.388 . S
C977 C976 1.443 . S
C978 N958 1.433 . S
C978 C979 1.363 . S
C978 C983 1.370 1_565 S
C979 H947 0.929 . S
C979 C978 1.363 . S
C979 C980 1.385 . S
C980 H948 0.930 . S
C980 C979 1.385 . S
C980 C981 1.357 1_565 S
C981 C980 1.357 1_545 S
C981 C982 1.406 . S
C982 H949 0.929 . S
C982 C981 1.406 . S
C982 C983 1.391 . S
C983 H950 0.931 . S
C983 C978 1.370 1_545 S
C983 C982 1.391 . S
C984 N958 1.435 . S
C984 C985 1.358 1_565 S
C984 C989 1.371 . S
C985 H951 0.930 . S
C985 C984 1.358 1_545 S
C985 C986 1.405 . S
C986 H952 0.932 . S
C986 C985 1.405 . S
C986 C987 1.383 1_545 S
C987 C986 1.383 1_565 S
C987 C988 1.393 . S
C988 H953 0.931 . S
C988 C987 1.393 . S
C988 C989 1.382 . S
C989 H954 0.929 . S
C989 C984 1.371 . S
C989 C988 1.382 . S
C990 N958 1.423 . S
C990 C991 1.362 . S
C990 C995 1.388 . S
C991 H955 0.929 . S
C991 C990 1.362 . S
C991 C992 1.376 . S
C992 H956 0.931 . S
C992 C991 1.376 . S
C992 C993 1.396 . S
C993 C975 1.472 . S
C993 C992 1.396 . S
C993 C994 1.348 . S
C994 H957 0.936 . S
C994 C993 1.348 . S
C994 C995 1.443 . S
C995 H959 0.932 1_565 S
C995 C990 1.388 . S
C995 C994 1.443 . S
H996 C1023 0.929 . S
N997 C1022 1.433 . S
N997 C1028 1.435 . S
N997 C1034 1.423 . S
H998 C1024 0.930 . S
H999 C1027 0.931 . S
H1000 C1026 0.929 . S
H1001 C1029 0.930 . S
H1002 C1030 0.932 . S
H1003 C1033 0.929 . S
H1004 C1032 0.931 . S
H1005 C1035 0.929 . S
H1006 C1039 1.011 . S
H1007 C1036 0.931 . S
H1008 C1038 0.918 1_545 S
H1009 C1041 0.929 . S
H1010 C1042 0.930 . S
H1011 C1044 0.929 . S
H1012 C1045 0.995 . S
H1013 C1047 0.930 . S
H1014 C1048 0.932 . S
H1015 C1050 0.931 . S
H1016 C1051 0.929 . S
H1017 C1053 0.929 . S
H1018 C1054 0.931 . S
H1019 C1056 0.873 1_545 S
N1020 C1040 1.433 . S
N1020 C1046 1.435 . S
N1020 C1052 1.423 . S
H1021 C1057 0.953 . S
C1022 N997 1.433 . S
C1022 C1023 1.363 . S
C1022 C1027 1.370 1_565 S
C1023 H996 0.929 . S
C1023 C1022 1.363 . S
C1023 C1024 1.385 . S
C1024 H998 0.930 . S
C1024 C1023 1.385 . S
C1024 C1025 1.357 . S
C1025 C1024 1.357 . S
C1025 C1026 1.406 1_565 S
C1026 H1000 0.929 . S
C1026 C1025 1.406 1_545 S
C1026 C1027 1.391 . S
C1027 H999 0.931 . S
C1027 C1022 1.370 1_545 S
C1027 C1026 1.391 . S
C1028 N997 1.435 . S
C1028 C1029 1.358 1_565 S
C1028 C1033 1.371 . S
C1029 H1001 0.930 . S
C1029 C1028 1.358 1_545 S
C1029 C1030 1.405 . S
C1030 H1002 0.932 . S
C1030 C1029 1.405 . S
C1030 C1031 1.383 . S
C1031 C1030 1.383 . S
C1031 C1032 1.393 1_545 S
C1032 H1004 0.931 . S
C1032 C1031 1.393 1_565 S
C1032 C1033 1.382 . S
C1033 H1003 0.929 . S
C1033 C1028 1.371 . S
C1033 C1032 1.382 . S
C1034 N997 1.423 . S
C1034 C1035 1.362 . S
C1034 C1039 1.367 1_565 S
C1035 H1005 0.929 . S
C1035 C1034 1.362 . S
C1035 C1036 1.376 . S
C1036 H1007 0.931 . S
C1036 C1035 1.376 . S
C1036 C1037 1.396 . S
C1037 C1036 1.396 . S
C1037 C1038 1.399 . S
C1037 C1055 1.472 . S
C1038 H1008 0.918 1_565 S
C1038 C1037 1.399 . S
C1038 C1039 1.355 1_565 S
C1039 H1006 1.011 . S
C1039 C1034 1.367 1_545 S
C1039 C1038 1.355 1_545 S
C1040 N1020 1.433 . S
C1040 C1041 1.363 . S
C1040 C1045 1.321 1_565 S
C1041 H1009 0.929 . S
C1041 C1040 1.363 . S
C1041 C1042 1.385 . S
C1042 H1010 0.930 . S
C1042 C1041 1.385 . S
C1042 C1043 1.357 . S
C1043 C1042 1.357 . S
C1043 C1044 1.406 1_565 S
C1044 H1011 0.929 . S
C1044 C1043 1.406 1_545 S
C1044 C1045 1.381 . S
C1045 H1012 0.995 . S
C1045 C1040 1.321 1_545 S
C1045 C1044 1.381 . S
C1046 N1020 1.435 . S
C1046 C1047 1.358 1_565 S
C1046 C1051 1.371 . S
C1047 H1013 0.930 . S
C1047 C1046 1.358 1_545 S
C1047 C1048 1.405 . S
C1048 H1014 0.932 . S
C1048 C1047 1.405 . S
C1048 C1049 1.383 . S
C1049 C1048 1.383 . S
C1049 C1050 1.393 1_545 S
C1050 H1015 0.931 . S
C1050 C1049 1.393 1_565 S
C1050 C1051 1.382 . S
C1051 H1016 0.929 . S
C1051 C1046 1.371 . S
C1051 C1050 1.382 . S
C1052 N1020 1.423 . S
C1052 C1053 1.362 . S
C1052 C1057 1.343 1_565 S
C1053 H1017 0.929 . S
C1053 C1052 1.362 . S
C1053 C1054 1.376 . S
C1054 H1018 0.931 . S
C1054 C1053 1.376 . S
C1054 C1055 1.396 . S
C1055 C1037 1.472 . S
C1055 C1054 1.396 . S
C1055 C1056 1.371 . S
C1056 H1019 0.873 1_565 S
C1056 C1055 1.371 . S
C1056 C1057 1.508 1_565 S
C1057 H1021 0.953 . S
C1057 C1052 1.343 1_545 S
C1057 C1056 1.508 1_545 S
H1058 C1085 0.929 . S
N1059 C1084 1.433 . S
N1059 C1090 1.435 . S
N1059 C1096 1.423 . S
H1060 C1086 0.930 . S
H1061 C1089 0.931 . S
H1062 C1088 0.929 . S
H1063 C1091 0.930 . S
H1064 C1092 0.932 . S
H1065 C1095 0.929 . S
H1066 C1094 0.931 . S
H1067 C1097 0.929 . S
H1068 C1101 0.932 1_455 S
H1069 C1098 0.931 . S
H1070 C1100 0.978 . S
H1071 C1103 0.929 . S
H1072 C1104 0.930 . S
H1073 C1106 0.929 . S
H1074 C1107 0.931 . S
H1075 C1109 0.930 . S
H1076 C1110 0.932 . S
H1077 C1112 0.931 . S
H1078 C1113 0.929 . S
H1079 C1115 0.929 . S
H1080 C1116 0.931 . S
H1081 C1118 0.936 . S
N1082 C1102 1.433 . S
N1082 C1108 1.435 . S
N1082 C1114 1.423 . S
H1083 C1119 0.932 1_455 S
C1084 N1059 1.433 . S
C1084 C1085 1.363 . S
C1084 C1089 1.370 1_655 S
C1085 H1058 0.929 . S
C1085 C1084 1.363 . S
C1085 C1086 1.385 . S
C1086 H1060 0.930 . S
C1086 C1085 1.385 . S
C1086 C1087 1.357 1_655 S
C1087 C1086 1.357 1_455 S
C1087 C1088 1.406 . S
C1088 H1062 0.929 . S
C1088 C1087 1.406 . S
C1088 C1089 1.391 . S
C1089 H1061 0.931 . S
C1089 C1084 1.370 1_455 S
C1089 C1088 1.391 . S
C1090 N1059 1.435 . S
C1090 C1091 1.358 1_655 S
C1090 C1095 1.371 . S
C1091 H1063 0.930 . S
C1091 C1090 1.358 1_455 S
C1091 C1092 1.405 . S
C1092 H1064 0.932 . S
C1092 C1091 1.405 . S
C1092 C1093 1.383 1_455 S
C1093 C1092 1.383 1_655 S
C1093 C1094 1.393 . S
C1094 H1066 0.931 . S
C1094 C1093 1.393 . S
C1094 C1095 1.382 . S
C1095 H1065 0.929 . S
C1095 C1090 1.371 . S
C1095 C1094 1.382 . S
C1096 N1059 1.423 . S
C1096 C1097 1.362 . S
C1096 C1101 1.388 . S
C1097 H1067 0.929 . S
C1097 C1096 1.362 . S
C1097 C1098 1.376 . S
C1098 H1069 0.931 . S
C1098 C1097 1.376 . S
C1098 C1099 1.396 . S
C1099 C1098 1.396 . S
C1099 C1100 1.348 . S
C1099 C1117 1.472 . S
C1100 H1070 0.978 . S
C1100 C1099 1.348 . S
C1100 C1101 1.443 . S
C1101 H1068 0.932 1_655 S
C1101 C1096 1.388 . S
C1101 C1100 1.443 . S
C1102 N1082 1.433 . S
C1102 C1103 1.363 . S
C1102 C1107 1.370 1_655 S
C1103 H1071 0.929 . S
C1103 C1102 1.363 . S
C1103 C1104 1.385 . S
C1104 H1072 0.930 . S
C1104 C1103 1.385 . S
C1104 C1105 1.357 1_655 S
C1105 C1104 1.357 1_455 S
C1105 C1106 1.406 . S
C1106 H1073 0.929 . S
C1106 C1105 1.406 . S
C1106 C1107 1.391 . S
C1107 H1074 0.931 . S
C1107 C1102 1.370 1_455 S
C1107 C1106 1.391 . S
C1108 N1082 1.435 . S
C1108 C1109 1.358 1_655 S
C1108 C1113 1.371 . S
C1109 H1075 0.930 . S
C1109 C1108 1.358 1_455 S
C1109 C1110 1.405 . S
C1110 H1076 0.932 . S
C1110 C1109 1.405 . S
C1110 C1111 1.383 1_455 S
C1111 C1110 1.383 1_655 S
C1111 C1112 1.393 . S
C1112 H1077 0.931 . S
C1112 C1111 1.393 . S
C1112 C1113 1.382 . S
C1113 H1078 0.929 . S
C1113 C1108 1.371 . S
C1113 C1112 1.382 . S
C1114 N1082 1.423 . S
C1114 C1115 1.362 . S
C1114 C1119 1.388 . S
C1115 H1079 0.929 . S
C1115 C1114 1.362 . S
C1115 C1116 1.376 . S
C1116 H1080 0.931 . S
C1116 C1115 1.376 . S
C1116 C1117 1.396 . S
C1117 C1099 1.472 . S
C1117 C1116 1.396 . S
C1117 C1118 1.348 . S
C1118 H1081 0.936 . S
C1118 C1117 1.348 . S
C1118 C1119 1.443 . S
C1119 H1083 0.932 1_655 S
C1119 C1114 1.388 . S
C1119 C1118 1.443 . S
H1120 C1147 0.929 . S
N1121 C1146 1.433 . S
N1121 C1152 1.435 . S
N1121 C1158 1.423 . S
H1122 C1148 0.930 . S
H1123 C1151 0.931 . S
H1124 C1150 0.929 . S
H1125 C1153 0.930 . S
H1126 C1154 0.932 . S
H1127 C1157 0.929 . S
H1128 C1156 0.931 . S
H1129 C1159 0.929 . S
H1130 C1163 0.932 . S
H1131 C1160 0.931 . S
H1132 C1162 0.929 . S
H1133 C1165 0.929 . S
H1134 C1166 0.930 . S
H1135 C1168 0.929 . S
H1136 C1169 0.931 . S
H1137 C1171 0.930 . S
H1138 C1172 0.932 . S
H1139 C1174 0.931 . S
H1140 C1175 0.929 . S
H1141 C1177 0.929 . S
H1142 C1178 0.931 . S
H1143 C1180 0.929 . S
N1144 C1164 1.433 . S
N1144 C1170 1.435 . S
N1144 C1176 1.423 . S
H1145 C1181 0.932 . S
C1146 N1121 1.433 . S
C1146 C1147 1.363 . S
C1146 C1151 1.370 . S
C1147 H1120 0.929 . S
C1147 C1146 1.363 . S
C1147 C1148 1.385 . S
C1148 H1122 0.930 . S
C1148 C1147 1.385 . S
C1148 C1149 1.357 . S
C1149 C1148 1.357 . S
C1149 C1150 1.406 . S
C1150 H1124 0.929 . S
C1150 C1149 1.406 . S
C1150 C1151 1.391 . S
C1151 H1123 0.931 . S
C1151 C1146 1.370 . S
C1151 C1150 1.391 . S
C1152 N1121 1.435 . S
C1152 C1153 1.358 . S
C1152 C1157 1.371 . S
C1153 H1125 0.930 . S
C1153 C1152 1.358 . S
C1153 C1154 1.405 . S
C1154 H1126 0.932 . S
C1154 C1153 1.405 . S
C1154 C1155 1.383 . S
C1155 C1154 1.383 . S
C1155 C1156 1.393 . S
C1156 H1128 0.931 . S
C1156 C1155 1.393 . S
C1156 C1157 1.382 . S
C1157 H1127 0.929 . S
C1157 C1152 1.371 . S
C1157 C1156 1.382 . S
C1158 N1121 1.423 . S
C1158 C1159 1.362 . S
C1158 C1163 1.388 . S
C1159 H1129 0.929 . S
C1159 C1158 1.362 . S
C1159 C1160 1.376 . S
C1160 H1131 0.931 . S
C1160 C1159 1.376 . S
C1160 C1161 1.396 . S
C1161 C1160 1.396 . S
C1161 C1162 1.348 . S
C1161 C1179 1.472 . S
C1162 H1132 0.929 . S
C1162 C1161 1.348 . S
C1162 C1163 1.443 . S
C1163 H1130 0.932 . S
C1163 C1158 1.388 . S
C1163 C1162 1.443 . S
C1164 N1144 1.433 . S
C1164 C1165 1.363 . S
C1164 C1169 1.370 . S
C1165 H1133 0.929 . S
C1165 C1164 1.363 . S
C1165 C1166 1.385 . S
C1166 H1134 0.930 . S
C1166 C1165 1.385 . S
C1166 C1167 1.357 . S
C1167 C1166 1.357 . S
C1167 C1168 1.406 . S
C1168 H1135 0.929 . S
C1168 C1167 1.406 . S
C1168 C1169 1.391 . S
C1169 H1136 0.931 . S
C1169 C1164 1.370 . S
C1169 C1168 1.391 . S
C1170 N1144 1.435 . S
C1170 C1171 1.358 . S
C1170 C1175 1.371 . S
C1171 H1137 0.930 . S
C1171 C1170 1.358 . S
C1171 C1172 1.405 . S
C1172 H1138 0.932 . S
C1172 C1171 1.405 . S
C1172 C1173 1.383 . S
C1173 C1172 1.383 . S
C1173 C1174 1.393 . S
C1174 H1139 0.931 . S
C1174 C1173 1.393 . S
C1174 C1175 1.382 . S
C1175 H1140 0.929 . S
C1175 C1170 1.371 . S
C1175 C1174 1.382 . S
C1176 N1144 1.423 . S
C1176 C1177 1.362 . S
C1176 C1181 1.388 . S
C1177 H1141 0.929 . S
C1177 C1176 1.362 . S
C1177 C1178 1.376 . S
C1178 H1142 0.931 . S
C1178 C1177 1.376 . S
C1178 C1179 1.396 . S
C1179 C1161 1.472 . S
C1179 C1178 1.396 . S
C1179 C1180 1.348 . S
C1180 H1143 0.929 . S
C1180 C1179 1.348 . S
C1180 C1181 1.443 . S
C1181 H1145 0.932 . S
C1181 C1176 1.388 . S
C1181 C1180 1.443 . S
H1182 C1209 0.929 . S
N1183 C1208 1.433 . S
N1183 C1214 1.435 . S
N1183 C1220 1.423 . S
H1184 C1210 0.930 . S
H1185 C1213 0.931 . S
H1186 C1212 0.929 . S
H1187 C1215 0.930 . S
H1188 C1216 0.932 . S
H1189 C1219 0.929 . S
H1190 C1218 0.931 . S
H1191 C1221 0.929 . S
H1192 C1225 0.932 . S
H1193 C1222 0.931 . S
H1194 C1224 0.929 . S
H1195 C1227 0.929 . S
H1196 C1228 0.930 . S
H1197 C1230 0.929 . S
H1198 C1231 0.931 . S
H1199 C1233 0.930 . S
H1200 C1234 0.932 . S
H1201 C1236 0.931 . S
H1202 C1237 0.929 . S
H1203 C1239 0.929 . S
H1204 C1240 0.931 . S
H1205 C1242 0.929 . S
N1206 C1226 1.433 . S
N1206 C1232 1.435 . S
N1206 C1238 1.423 . S
H1207 C1243 0.932 . S
C1208 N1183 1.433 . S
C1208 C1209 1.363 . S
C1208 C1213 1.370 . S
C1209 H1182 0.929 . S
C1209 C1208 1.363 . S
C1209 C1210 1.385 . S
C1210 H1184 0.930 . S
C1210 C1209 1.385 . S
C1210 C1211 1.357 . S
C1211 C1210 1.357 . S
C1211 C1212 1.406 . S
C1212 H1186 0.929 . S
C1212 C1211 1.406 . S
C1212 C1213 1.391 . S
C1213 H1185 0.931 . S
C1213 C1208 1.370 . S
C1213 C1212 1.391 . S
C1214 N1183 1.435 . S
C1214 C1215 1.358 . S
C1214 C1219 1.371 . S
C1215 H1187 0.930 . S
C1215 C1214 1.358 . S
C1215 C1216 1.405 . S
C1216 H1188 0.932 . S
C1216 C1215 1.405 . S
C1216 C1217 1.383 . S
C1217 C1216 1.383 . S
C1217 C1218 1.393 . S
C1218 H1190 0.931 . S
C1218 C1217 1.393 . S
C1218 C1219 1.382 . S
C1219 H1189 0.929 . S
C1219 C1214 1.371 . S
C1219 C1218 1.382 . S
C1220 N1183 1.423 . S
C1220 C1221 1.362 . S
C1220 C1225 1.388 . S
C1221 H1191 0.929 . S
C1221 C1220 1.362 . S
C1221 C1222 1.376 . S
C1222 H1193 0.931 . S
C1222 C1221 1.376 . S
C1222 C1223 1.396 . S
C1223 C1222 1.396 . S
C1223 C1224 1.348 . S
C1223 C1241 1.472 . S
C1224 H1194 0.929 . S
C1224 C1223 1.348 . S
C1224 C1225 1.443 . S
C1225 H1192 0.932 . S
C1225 C1220 1.388 . S
C1225 C1224 1.443 . S
C1226 N1206 1.433 . S
C1226 C1227 1.363 . S
C1226 C1231 1.370 . S
C1227 H1195 0.929 . S
C1227 C1226 1.363 . S
C1227 C1228 1.385 . S
C1228 H1196 0.930 . S
C1228 C1227 1.385 . S
C1228 C1229 1.357 . S
C1229 C1228 1.357 . S
C1229 C1230 1.406 . S
C1230 H1197 0.929 . S
C1230 C1229 1.406 . S
C1230 C1231 1.391 . S
C1231 H1198 0.931 . S
C1231 C1226 1.370 . S
C1231 C1230 1.391 . S
C1232 N1206 1.435 . S
C1232 C1233 1.358 . S
C1232 C1237 1.371 . S
C1233 H1199 0.930 . S
C1233 C1232 1.358 . S
C1233 C1234 1.405 . S
C1234 H1200 0.932 . S
C1234 C1233 1.405 . S
C1234 C1235 1.383 . S
C1235 C1234 1.383 . S
C1235 C1236 1.393 . S
C1236 H1201 0.931 . S
C1236 C1235 1.393 . S
C1236 C1237 1.382 . S
C1237 H1202 0.929 . S
C1237 C1232 1.371 . S
C1237 C1236 1.382 . S
C1238 N1206 1.423 . S
C1238 C1239 1.362 . S
C1238 C1243 1.388 . S
C1239 H1203 0.929 . S
C1239 C1238 1.362 . S
C1239 C1240 1.376 . S
C1240 H1204 0.931 . S
C1240 C1239 1.376 . S
C1240 C1241 1.396 . S
C1241 C1223 1.472 . S
C1241 C1240 1.396 . S
C1241 C1242 1.348 . S
C1242 H1205 0.929 . S
C1242 C1241 1.348 . S
C1242 C1243 1.443 . S
C1243 H1207 0.932 . S
C1243 C1238 1.388 . S
C1243 C1242 1.443 . S
H1244 C1271 0.929 . S
N1245 C1270 1.433 . S
N1245 C1276 1.435 . S
N1245 C1282 1.423 . S
H1246 C1272 0.930 . S
H1247 C1275 0.931 . S
H1248 C1274 0.929 . S
H1249 C1277 0.930 . S
H1250 C1278 0.932 . S
H1251 C1281 0.929 . S
H1252 C1280 0.931 . S
H1253 C1283 0.929 . S
H1254 C1287 0.932 . S
H1255 C1284 0.931 . S
H1256 C1286 0.929 . S
H1257 C1289 0.929 . S
H1258 C1290 0.930 . S
H1259 C1292 0.929 . S
H1260 C1293 0.931 . S
H1261 C1295 0.930 . S
H1262 C1296 0.932 . S
H1263 C1298 0.931 . S
H1264 C1299 0.929 . S
H1265 C1301 0.929 . S
H1266 C1302 0.931 . S
H1267 C1304 0.929 . S
N1268 C1288 1.433 . S
N1268 C1294 1.435 . S
N1268 C1300 1.423 . S
H1269 C1305 0.932 . S
C1270 N1245 1.433 . S
C1270 C1271 1.363 . S
C1270 C1275 1.370 . S
C1271 H1244 0.929 . S
C1271 C1270 1.363 . S
C1271 C1272 1.385 . S
C1272 H1246 0.930 . S
C1272 C1271 1.385 . S
C1272 C1273 1.357 . S
C1273 C1272 1.357 . S
C1273 C1274 1.406 . S
C1274 H1248 0.929 . S
C1274 C1273 1.406 . S
C1274 C1275 1.391 . S
C1275 H1247 0.931 . S
C1275 C1270 1.370 . S
C1275 C1274 1.391 . S
C1276 N1245 1.435 . S
C1276 C1277 1.358 . S
C1276 C1281 1.371 . S
C1277 H1249 0.930 . S
C1277 C1276 1.358 . S
C1277 C1278 1.405 . S
C1278 H1250 0.932 . S
C1278 C1277 1.405 . S
C1278 C1279 1.383 . S
C1279 C1278 1.383 . S
C1279 C1280 1.393 . S
C1280 H1252 0.931 . S
C1280 C1279 1.393 . S
C1280 C1281 1.382 . S
C1281 H1251 0.929 . S
C1281 C1276 1.371 . S
C1281 C1280 1.382 . S
C1282 N1245 1.423 . S
C1282 C1283 1.362 . S
C1282 C1287 1.388 . S
C1283 H1253 0.929 . S
C1283 C1282 1.362 . S
C1283 C1284 1.376 . S
C1284 H1255 0.931 . S
C1284 C1283 1.376 . S
C1284 C1285 1.396 . S
C1285 C1284 1.396 . S
C1285 C1286 1.348 . S
C1285 C1303 1.472 . S
C1286 H1256 0.929 . S
C1286 C1285 1.348 . S
C1286 C1287 1.443 . S
C1287 H1254 0.932 . S
C1287 C1282 1.388 . S
C1287 C1286 1.443 . S
C1288 N1268 1.433 . S
C1288 C1289 1.363 . S
C1288 C1293 1.370 . S
C1289 H1257 0.929 . S
C1289 C1288 1.363 . S
C1289 C1290 1.385 . S
C1290 H1258 0.930 . S
C1290 C1289 1.385 . S
C1290 C1291 1.357 . S
C1291 C1290 1.357 . S
C1291 C1292 1.406 . S
C1292 H1259 0.929 . S
C1292 C1291 1.406 . S
C1292 C1293 1.391 . S
C1293 H1260 0.931 . S
C1293 C1288 1.370 . S
C1293 C1292 1.391 . S
C1294 N1268 1.435 . S
C1294 C1295 1.358 . S
C1294 C1299 1.371 . S
C1295 H1261 0.930 . S
C1295 C1294 1.358 . S
C1295 C1296 1.405 . S
C1296 H1262 0.932 . S
C1296 C1295 1.405 . S
C1296 C1297 1.383 . S
C1297 C1296 1.383 . S
C1297 C1298 1.393 . S
C1298 H1263 0.931 . S
C1298 C1297 1.393 . S
C1298 C1299 1.382 . S
C1299 H1264 0.929 . S
C1299 C1294 1.371 . S
C1299 C1298 1.382 . S
C1300 N1268 1.423 . S
C1300 C1301 1.362 . S
C1300 C1305 1.388 . S
C1301 H1265 0.929 . S
C1301 C1300 1.362 . S
C1301 C1302 1.376 . S
C1302 H1266 0.931 . S
C1302 C1301 1.376 . S
C1302 C1303 1.396 . S
C1303 C1285 1.472 . S
C1303 C1302 1.396 . S
C1303 C1304 1.348 . S
C1304 H1267 0.929 . S
C1304 C1303 1.348 . S
C1304 C1305 1.443 . S
C1305 H1269 0.932 . S
C1305 C1300 1.388 . S
C1305 C1304 1.443 . S
H1306 C1333 0.929 . S
N1307 C1332 1.433 . S
N1307 C1338 1.435 . S
N1307 C1344 1.423 . S
H1308 C1334 0.930 . S
H1309 C1337 0.931 . S
H1310 C1336 0.929 . S
H1311 C1339 0.930 . S
H1312 C1340 0.932 . S
H1313 C1343 0.929 . S
H1314 C1342 0.931 . S
H1315 C1345 0.929 . S
H1316 C1349 0.932 . S
H1317 C1346 0.931 . S
H1318 C1348 0.929 . S
H1319 C1351 0.929 . S
H1320 C1352 0.930 . S
H1321 C1354 0.929 . S
H1322 C1355 0.931 . S
H1323 C1357 0.930 . S
H1324 C1358 0.932 . S
H1325 C1360 0.931 . S
H1326 C1361 0.929 . S
H1327 C1363 0.929 . S
H1328 C1364 0.931 . S
H1329 C1366 0.929 . S
N1330 C1350 1.433 . S
N1330 C1356 1.435 . S
N1330 C1362 1.423 . S
H1331 C1367 0.932 . S
C1332 N1307 1.433 . S
C1332 C1333 1.363 . S
C1332 C1337 1.370 . S
C1333 H1306 0.929 . S
C1333 C1332 1.363 . S
C1333 C1334 1.385 . S
C1334 H1308 0.930 . S
C1334 C1333 1.385 . S
C1334 C1335 1.357 . S
C1335 C1334 1.357 . S
C1335 C1336 1.406 . S
C1336 H1310 0.929 . S
C1336 C1335 1.406 . S
C1336 C1337 1.391 . S
C1337 H1309 0.931 . S
C1337 C1332 1.370 . S
C1337 C1336 1.391 . S
C1338 N1307 1.435 . S
C1338 C1339 1.358 . S
C1338 C1343 1.371 . S
C1339 H1311 0.930 . S
C1339 C1338 1.358 . S
C1339 C1340 1.405 . S
C1340 H1312 0.932 . S
C1340 C1339 1.405 . S
C1340 C1341 1.383 . S
C1341 C1340 1.383 . S
C1341 C1342 1.393 . S
C1342 H1314 0.931 . S
C1342 C1341 1.393 . S
C1342 C1343 1.382 . S
C1343 H1313 0.929 . S
C1343 C1338 1.371 . S
C1343 C1342 1.382 . S
C1344 N1307 1.423 . S
C1344 C1345 1.362 . S
C1344 C1349 1.388 . S
C1345 H1315 0.929 . S
C1345 C1344 1.362 . S
C1345 C1346 1.376 . S
C1346 H1317 0.931 . S
C1346 C1345 1.376 . S
C1346 C1347 1.396 . S
C1347 C1346 1.396 . S
C1347 C1348 1.348 . S
C1347 C1365 1.472 . S
C1348 H1318 0.929 . S
C1348 C1347 1.348 . S
C1348 C1349 1.443 . S
C1349 H1316 0.932 . S
C1349 C1344 1.388 . S
C1349 C1348 1.443 . S
C1350 N1330 1.433 . S
C1350 C1351 1.363 . S
C1350 C1355 1.370 . S
C1351 H1319 0.929 . S
C1351 C1350 1.363 . S
C1351 C1352 1.385 . S
C1352 H1320 0.930 . S
C1352 C1351 1.385 . S
C1352 C1353 1.357 . S
C1353 C1352 1.357 . S
C1353 C1354 1.406 . S
C1354 H1321 0.929 . S
C1354 C1353 1.406 . S
C1354 C1355 1.391 . S
C1355 H1322 0.931 . S
C1355 C1350 1.370 . S
C1355 C1354 1.391 . S
C1356 N1330 1.435 . S
C1356 C1357 1.358 . S
C1356 C1361 1.371 . S
C1357 H1323 0.930 . S
C1357 C1356 1.358 . S
C1357 C1358 1.405 . S
C1358 H1324 0.932 . S
C1358 C1357 1.405 . S
C1358 C1359 1.383 . S
C1359 C1358 1.383 . S
C1359 C1360 1.393 . S
C1360 H1325 0.931 . S
C1360 C1359 1.393 . S
C1360 C1361 1.382 . S
C1361 H1326 0.929 . S
C1361 C1356 1.371 . S
C1361 C1360 1.382 . S
C1362 N1330 1.423 . S
C1362 C1363 1.362 . S
C1362 C1367 1.388 . S
C1363 H1327 0.929 . S
C1363 C1362 1.362 . S
C1363 C1364 1.376 . S
C1364 H1328 0.931 . S
C1364 C1363 1.376 . S
C1364 C1365 1.396 . S
C1365 C1347 1.472 . S
C1365 C1364 1.396 . S
C1365 C1366 1.348 . S
C1366 H1329 0.929 . S
C1366 C1365 1.348 . S
C1366 C1367 1.443 . S
C1367 H1331 0.932 . S
C1367 C1362 1.388 . S
C1367 C1366 1.443 . S
C1368 C1369 1.342 . S
C1368 C1370 1.309 . S
C1368 H1393 0.952 . S
C1369 C1368 1.342 . S
C1369 C1385 1.353 . S
C1370 C1368 1.309 . S
C1370 C1389 1.424 . S
C1370 H1394 0.945 . S
C1371 C1388 1.574 . S
C1371 C1390 1.368 . S
C1371 H1395 0.949 . S
H1372 C1376 0.949 . S
C1373 C1374 1.349 . S
C1373 C1375 1.327 . S
C1373 H1396 0.950 . S
C1374 C1373 1.349 . S
C1374 C1386 1.349 . S
C1375 C1373 1.327 . S
C1375 C1391 1.429 . S
C1375 H1397 0.950 . S
C1376 H1372 0.949 . S
C1376 C1384 1.574 . S
C1376 C1392 1.368 . S
H1377 C1385 0.944 . S
H1378 C1383 0.942 . S
H1379 C1384 0.949 . S
H1380 C1386 0.950 . S
H1381 C1387 0.950 . S
H1382 C1388 0.949 . S
C1383 H1378 0.942 . S
C1383 C1385 1.310 . S
C1383 C1389 1.482 . S
C1384 C1376 1.574 . S
C1384 H1379 0.949 . S
C1384 C1390 1.368 . S
C1385 C1369 1.353 . S
C1385 H1377 0.944 . S
C1385 C1383 1.310 . S
C1386 C1374 1.349 . S
C1386 H1380 0.950 . S
C1386 C1387 1.327 . S
C1387 H1381 0.950 . S
C1387 C1386 1.327 . S
C1387 C1391 1.429 . S
C1388 C1371 1.574 . S
C1388 H1382 0.949 . S
C1388 C1392 1.368 . S
C1389 C1370 1.424 . S
C1389 C1383 1.482 . S
C1389 C1390 1.523 . S
C1390 C1371 1.368 . S
C1390 C1384 1.368 . S
C1390 C1389 1.523 . S
C1391 C1375 1.429 . S
C1391 C1387 1.429 . S
C1391 C1392 1.523 . S
C1392 C1376 1.368 . S
C1392 C1388 1.368 . S
C1392 C1391 1.523 . S
H1393 C1368 0.952 . S
H1394 C1370 0.945 . S
H1395 C1371 0.949 . S
H1396 C1373 0.950 . S
H1397 C1375 0.950 . S
C1398 C1399 1.349 . S
C1398 C1400 1.327 . S
C1398 H1423 0.950 . S
C1399 C1398 1.349 . S
C1399 C1415 1.349 . S
C1400 C1398 1.327 . S
C1400 C1419 1.429 . S
C1400 H1424 0.950 . S
C1401 C1418 1.574 . S
C1401 C1420 1.368 . S
C1401 H1425 0.949 . S
H1402 C1406 0.949 . S
C1403 C1404 1.349 . S
C1403 C1405 1.327 . S
C1403 H1426 0.950 . S
C1404 C1403 1.349 . S
C1404 C1416 1.349 . S
C1405 C1403 1.327 . S
C1405 C1421 1.429 . S
C1405 H1427 0.950 . S
C1406 H1402 0.949 . S
C1406 C1414 1.574 . S
C1406 C1422 1.368 . S
H1407 C1415 0.950 . S
H1408 C1413 0.950 . S
H1409 C1414 0.949 . S
H1410 C1416 0.950 . S
H1411 C1417 0.950 . S
H1412 C1418 0.949 . S
C1413 H1408 0.950 . S
C1413 C1415 1.327 . S
C1413 C1419 1.429 . S
C1414 C1406 1.574 . S
C1414 H1409 0.949 . S
C1414 C1420 1.368 . S
C1415 C1399 1.349 . S
C1415 H1407 0.950 . S
C1415 C1413 1.327 . S
C1416 C1404 1.349 . S
C1416 H1410 0.950 . S
C1416 C1417 1.327 . S
C1417 H1411 0.950 . S
C1417 C1416 1.327 . S
C1417 C1421 1.429 . S
C1418 C1401 1.574 . S
C1418 H1412 0.949 . S
C1418 C1422 1.368 . S
C1419 C1400 1.429 . S
C1419 C1413 1.429 . S
C1419 C1420 1.523 . S
C1420 C1401 1.368 . S
C1420 C1414 1.368 . S
C1420 C1419 1.523 . S
C1421 C1405 1.429 . S
C1421 C1417 1.429 . S
C1421 C1422 1.523 . S
C1422 C1406 1.368 . S
C1422 C1418 1.368 . S
C1422 C1421 1.523 . S
H1423 C1398 0.950 . S
H1424 C1400 0.950 . S
H1425 C1401 0.949 . S
H1426 C1403 0.950 . S
H1427 C1405 0.950 . S
C1428 C1429 1.349 1_565 S
C1428 C1430 1.327 . S
C1428 H1453 0.950 . S
C1429 C1428 1.349 1_545 S
C1429 C1445 1.349 . S
C1430 C1428 1.327 . S
C1430 C1449 1.429 1_565 S
C1430 H1454 0.950 . S
C1431 C1448 1.574 . S
C1431 C1450 1.368 . S
C1431 H1455 0.949 . S
H1432 C1436 0.949 . S
C1433 C1434 1.349 . S
C1433 C1435 1.327 . S
C1433 H1456 0.950 . S
C1434 C1433 1.349 . S
C1434 C1446 1.349 1_545 S
C1435 C1433 1.327 . S
C1435 C1451 1.429 . S
C1435 H1457 0.950 . S
C1436 H1432 0.949 . S
C1436 C1444 1.574 . S
C1436 C1452 1.368 1_565 S
H1437 C1445 0.950 . S
H1438 C1443 0.950 . S
H1439 C1444 0.949 . S
H1440 C1446 0.950 . S
H1441 C1447 0.950 . S
H1442 C1448 0.949 . S
C1443 H1438 0.950 . S
C1443 C1445 1.327 . S
C1443 C1449 1.429 . S
C1444 C1436 1.574 . S
C1444 H1439 0.949 . S
C1444 C1450 1.368 1_565 S
C1445 C1429 1.349 . S
C1445 H1437 0.950 . S
C1445 C1443 1.327 . S
C1446 C1434 1.349 1_565 S
C1446 H1440 0.950 . S
C1446 C1447 1.327 . S
C1447 H1441 0.950 . S
C1447 C1446 1.327 . S
C1447 C1451 1.429 1_565 S
C1448 C1431 1.574 . S
C1448 H1442 0.949 . S
C1448 C1452 1.368 . S
C1449 C1430 1.429 1_545 S
C1449 C1443 1.429 . S
C1449 C1450 1.523 . S
C1450 C1431 1.368 . S
C1450 C1444 1.368 1_545 S
C1450 C1449 1.523 . S
C1451 C1435 1.429 . S
C1451 C1447 1.429 1_545 S
C1451 C1452 1.523 . S
C1452 C1436 1.368 1_545 S
C1452 C1448 1.368 . S
C1452 C1451 1.523 . S
H1453 C1428 0.950 . S
H1454 C1430 0.950 . S
H1455 C1431 0.949 . S
H1456 C1433 0.950 . S
H1457 C1435 0.950 . S
C1458 C1459 1.349 . S
C1458 C1460 1.327 . S
C1458 H1483 0.950 . S
C1459 C1458 1.349 . S
C1459 C1475 1.349 1_545 S
C1460 C1458 1.327 . S
C1460 C1479 1.461 . S
C1460 H1484 0.950 . S
C1461 C1478 1.574 . S
C1461 C1480 1.376 . S
C1461 H1485 0.949 . S
H1462 C1466 0.949 . S
C1463 C1464 1.349 . S
C1463 C1465 1.327 . S
C1463 H1486 0.950 . S
C1464 C1463 1.349 . S
C1464 C1476 1.349 1_565 S
C1465 C1463 1.327 . S
C1465 C1481 1.429 . S
C1465 H1487 0.950 . S
C1466 H1462 0.949 . S
C1466 C1474 1.574 . S
C1466 C1482 1.368 1_545 S
H1467 C1475 0.950 . S
H1468 C1473 0.950 . S
H1469 C1474 0.949 . S
H1470 C1476 0.950 . S
H1471 C1477 0.950 . S
H1472 C1478 0.949 . S
C1473 H1468 0.950 . S
C1473 C1475 1.327 . S
C1473 C1479 1.419 1_565 S
C1474 C1466 1.574 . S
C1474 H1469 0.949 . S
C1474 C1480 1.365 1_545 S
C1475 C1459 1.349 1_565 S
C1475 H1467 0.950 . S
C1475 C1473 1.327 . S
C1476 C1464 1.349 1_545 S
C1476 H1470 0.950 . S
C1476 C1477 1.327 . S
C1477 H1471 0.950 . S
C1477 C1476 1.327 . S
C1477 C1481 1.429 1_545 S
C1478 C1461 1.574 . S
C1478 H1472 0.949 . S
C1478 C1482 1.368 . S
C1479 C1460 1.461 . S
C1479 C1473 1.419 1_545 S
C1479 C1480 1.499 1_545 S
C1480 C1461 1.376 . S
C1480 C1474 1.365 1_565 S
C1480 C1479 1.499 1_565 S
C1481 C1465 1.429 . S
C1481 C1477 1.429 1_565 S
C1481 C1482 1.523 . S
C1482 C1466 1.368 1_565 S
C1482 C1478 1.368 . S
C1482 C1481 1.523 . S
H1483 C1458 0.950 . S
H1484 C1460 0.950 . S
H1485 C1461 0.949 . S
H1486 C1463 0.950 . S
H1487 C1465 0.950 . S
C1488 C1489 1.349 1_655 S
C1488 C1490 1.327 . S
C1488 H1513 0.950 . S
C1489 C1488 1.349 1_455 S
C1489 C1505 1.349 . S
C1490 C1488 1.327 . S
C1490 C1509 1.429 1_655 S
C1490 H1514 0.950 . S
C1491 C1508 1.574 . S
C1491 C1510 1.368 . S
C1491 H1515 0.949 . S
H1492 C1496 0.949 . S
C1493 C1494 1.349 . S
C1493 C1495 1.327 . S
C1493 H1516 0.950 . S
C1494 C1493 1.349 . S
C1494 C1506 1.349 1_455 S
C1495 C1493 1.327 . S
C1495 C1511 1.429 . S
C1495 H1517 0.950 . S
C1496 H1492 0.949 . S
C1496 C1504 1.574 . S
C1496 C1512 1.368 1_655 S
H1497 C1505 0.950 . S
H1498 C1503 0.950 . S
H1499 C1504 0.949 . S
H1500 C1506 0.950 . S
H1501 C1507 0.950 . S
H1502 C1508 0.949 . S
C1503 H1498 0.950 . S
C1503 C1505 1.327 . S
C1503 C1509 1.429 . S
C1504 C1496 1.574 . S
C1504 H1499 0.949 . S
C1504 C1510 1.368 1_655 S
C1505 C1489 1.349 . S
C1505 H1497 0.950 . S
C1505 C1503 1.327 . S
C1506 C1494 1.349 1_655 S
C1506 H1500 0.950 . S
C1506 C1507 1.327 . S
C1507 H1501 0.950 . S
C1507 C1506 1.327 . S
C1507 C1511 1.429 1_655 S
C1508 C1491 1.574 . S
C1508 H1502 0.949 . S
C1508 C1512 1.368 . S
C1509 C1490 1.429 1_455 S
C1509 C1503 1.429 . S
C1509 C1510 1.523 . S
C1510 C1491 1.368 . S
C1510 C1504 1.368 1_455 S
C1510 C1509 1.523 . S
C1511 C1495 1.429 . S
C1511 C1507 1.429 1_455 S
C1511 C1512 1.523 . S
C1512 C1496 1.368 1_455 S
C1512 C1508 1.368 . S
C1512 C1511 1.523 . S
H1513 C1488 0.950 . S
H1514 C1490 0.950 . S
H1515 C1491 0.949 . S
H1516 C1493 0.950 . S
H1517 C1495 0.950 . S
C1518 C1519 1.349 . S
C1518 C1520 1.327 . S
C1518 H1543 0.950 . S
C1519 C1518 1.349 . S
C1519 C1535 1.349 . S
C1520 C1518 1.327 . S
C1520 C1539 1.429 . S
C1520 H1544 0.950 . S
C1521 C1538 1.574 . S
C1521 C1540 1.368 . S
C1521 H1545 0.949 . S
H1522 C1526 0.949 . S
C1523 C1524 1.349 . S
C1523 C1525 1.327 . S
C1523 H1546 0.950 . S
C1524 C1523 1.349 . S
C1524 C1536 1.349 . S
C1525 C1523 1.327 . S
C1525 C1541 1.429 . S
C1525 H1547 0.950 . S
C1526 H1522 0.949 . S
C1526 C1534 1.574 . S
C1526 C1542 1.368 . S
H1527 C1535 0.950 . S
H1528 C1533 0.950 . S
H1529 C1534 0.949 . S
H1530 C1536 0.950 . S
H1531 C1537 0.950 . S
H1532 C1538 0.949 . S
C1533 H1528 0.950 . S
C1533 C1535 1.327 . S
C1533 C1539 1.429 . S
C1534 C1526 1.574 . S
C1534 H1529 0.949 . S
C1534 C1540 1.368 . S
C1535 C1519 1.349 . S
C1535 H1527 0.950 . S
C1535 C1533 1.327 . S
C1536 C1524 1.349 . S
C1536 H1530 0.950 . S
C1536 C1537 1.327 . S
C1537 H1531 0.950 . S
C1537 C1536 1.327 . S
C1537 C1541 1.429 . S
C1538 C1521 1.574 . S
C1538 H1532 0.949 . S
C1538 C1542 1.368 . S
C1539 C1520 1.429 . S
C1539 C1533 1.429 . S
C1539 C1540 1.523 . S
C1540 C1521 1.368 . S
C1540 C1534 1.368 . S
C1540 C1539 1.523 . S
C1541 C1525 1.429 . S
C1541 C1537 1.429 . S
C1541 C1542 1.523 . S
C1542 C1526 1.368 . S
C1542 C1538 1.368 . S
C1542 C1541 1.523 . S
H1543 C1518 0.950 . S
H1544 C1520 0.950 . S
H1545 C1521 0.949 . S
H1546 C1523 0.950 . S
H1547 C1525 0.950 . S
C1548 C1549 1.349 1_655 S
C1548 C1550 1.327 . S
C1548 H1573 0.950 . S
C1549 C1548 1.349 1_455 S
C1549 C1565 1.349 . S
C1550 C1548 1.327 . S
C1550 C1569 1.429 1_655 S
C1550 H1574 0.950 . S
C1551 C1568 1.574 . S
C1551 C1570 1.368 . S
C1551 H1575 0.949 . S
H1552 C1556 0.949 . S
C1553 C1554 1.349 . S
C1553 C1555 1.327 . S
C1553 H1576 0.950 . S
C1554 C1553 1.349 . S
C1554 C1566 1.349 1_455 S
C1555 C1553 1.327 . S
C1555 C1571 1.429 . S
C1555 H1577 0.950 . S
C1556 H1552 0.949 . S
C1556 C1564 1.574 . S
C1556 C1572 1.368 1_655 S
H1557 C1565 0.950 . S
H1558 C1563 0.950 . S
H1559 C1564 0.949 . S
H1560 C1566 0.950 . S
H1561 C1567 0.950 . S
H1562 C1568 0.949 . S
C1563 H1558 0.950 . S
C1563 C1565 1.327 . S
C1563 C1569 1.429 . S
C1564 C1556 1.574 . S
C1564 H1559 0.949 . S
C1564 C1570 1.368 1_655 S
C1565 C1549 1.349 . S
C1565 H1557 0.950 . S
C1565 C1563 1.327 . S
C1566 C1554 1.349 1_655 S
C1566 H1560 0.950 . S
C1566 C1567 1.327 . S
C1567 H1561 0.950 . S
C1567 C1566 1.327 . S
C1567 C1571 1.429 1_655 S
C1568 C1551 1.574 . S
C1568 H1562 0.949 . S
C1568 C1572 1.368 . S
C1569 C1550 1.429 1_455 S
C1569 C1563 1.429 . S
C1569 C1570 1.523 . S
C1570 C1551 1.368 . S
C1570 C1564 1.368 1_455 S
C1570 C1569 1.523 . S
C1571 C1555 1.429 . S
C1571 C1567 1.429 1_455 S
C1571 C1572 1.523 . S
C1572 C1556 1.368 1_455 S
C1572 C1568 1.368 . S
C1572 C1571 1.523 . S
H1573 C1548 0.950 . S
H1574 C1550 0.950 . S
H1575 C1551 0.949 . S
H1576 C1553 0.950 . S
H1577 C1555 0.950 . S
C1578 C1579 1.349 . S
C1578 C1580 1.327 . S
C1578 H1603 0.950 . S
C1579 C1578 1.349 . S
C1579 C1595 1.349 . S
C1580 C1578 1.327 . S
C1580 C1599 1.429 . S
C1580 H1604 0.950 . S
C1581 C1598 1.574 . S
C1581 C1600 1.368 . S
C1581 H1605 0.949 . S
H1582 C1586 0.949 . S
C1583 C1584 1.349 . S
C1583 C1585 1.327 . S
C1583 H1606 0.950 . S
C1584 C1583 1.349 . S
C1584 C1596 1.349 . S
C1585 C1583 1.327 . S
C1585 C1601 1.429 . S
C1585 H1607 0.950 . S
C1586 H1582 0.949 . S
C1586 C1594 1.574 . S
C1586 C1602 1.368 . S
H1587 C1595 0.950 . S
H1588 C1593 0.950 . S
H1589 C1594 0.949 . S
H1590 C1596 0.950 . S
H1591 C1597 0.950 . S
H1592 C1598 0.949 . S
C1593 H1588 0.950 . S
C1593 C1595 1.327 . S
C1593 C1599 1.429 . S
C1594 C1586 1.574 . S
C1594 H1589 0.949 . S
C1594 C1600 1.368 . S
C1595 C1579 1.349 . S
C1595 H1587 0.950 . S
C1595 C1593 1.327 . S
C1596 C1584 1.349 . S
C1596 H1590 0.950 . S
C1596 C1597 1.327 . S
C1597 H1591 0.950 . S
C1597 C1596 1.327 . S
C1597 C1601 1.429 . S
C1598 C1581 1.574 . S
C1598 H1592 0.949 . S
C1598 C1602 1.368 . S
C1599 C1580 1.429 . S
C1599 C1593 1.429 . S
C1599 C1600 1.523 . S
C1600 C1581 1.368 . S
C1600 C1594 1.368 . S
C1600 C1599 1.523 . S
C1601 C1585 1.429 . S
C1601 C1597 1.429 . S
C1601 C1602 1.523 . S
C1602 C1586 1.368 . S
C1602 C1598 1.368 . S
C1602 C1601 1.523 . S
H1603 C1578 0.950 . S
H1604 C1580 0.950 . S
H1605 C1581 0.949 . S
H1606 C1583 0.950 . S
H1607 C1585 0.950 . S
C1608 C1609 1.380 . S
C1608 C1610 1.327 . S
C1608 H1633 0.950 . S
C1609 C1608 1.380 . S
C1609 C1625 1.286 1_565 S
C1610 C1608 1.327 . S
C1610 C1629 1.429 . S
C1610 H1634 0.950 . S
C1611 C1628 1.574 . S
C1611 C1630 1.368 1_545 S
C1611 H1635 0.949 . S
H1612 C1616 0.949 . S
C1613 C1614 1.349 1_545 S
C1613 C1615 1.327 . S
C1613 H1636 0.950 . S
C1614 C1613 1.349 1_565 S
C1614 C1626 1.349 . S
C1615 C1613 1.327 . S
C1615 C1631 1.429 1_545 S
C1615 H1637 0.950 . S
C1616 H1612 0.949 . S
C1616 C1624 1.574 . S
C1616 C1632 1.368 . S
H1617 C1625 0.950 . S
H1618 C1623 0.950 . S
H1619 C1624 0.949 . S
H1620 C1626 0.950 . S
H1621 C1627 0.950 . S
H1622 C1628 0.949 . S
C1623 H1618 0.950 . S
C1623 C1625 1.327 . S
C1623 C1629 1.429 1_545 S
C1624 C1616 1.574 . S
C1624 H1619 0.949 . S
C1624 C1630 1.368 . S
C1625 C1609 1.286 1_545 S
C1625 H1617 0.950 . S
C1625 C1623 1.327 . S
C1626 C1614 1.349 . S
C1626 H1620 0.950 . S
C1626 C1627 1.327 . S
C1627 H1621 0.950 . S
C1627 C1626 1.327 . S
C1627 C1631 1.429 . S
C1628 C1611 1.574 . S
C1628 H1622 0.949 . S
C1628 C1632 1.368 1_545 S
C1629 C1610 1.429 . S
C1629 C1623 1.429 1_565 S
C1629 C1630 1.523 . S
C1630 C1611 1.368 1_565 S
C1630 C1624 1.368 . S
C1630 C1629 1.523 . S
C1631 C1615 1.429 1_565 S
C1631 C1627 1.429 . S
C1631 C1632 1.523 . S
C1632 C1616 1.368 . S
C1632 C1628 1.368 1_565 S
C1632 C1631 1.523 . S
H1633 C1608 0.950 . S
H1634 C1610 0.950 . S
H1635 C1611 0.949 . S
H1636 C1613 0.950 . S
H1637 C1615 0.950 . S
C1638 C1639 1.349 . S
C1638 C1640 1.327 . S
C1638 H1663 0.950 . S
C1639 C1638 1.349 . S
C1639 C1655 1.349 1_545 S
C1640 C1638 1.327 . S
C1640 C1659 1.429 . S
C1640 H1664 0.950 . S
C1641 C1658 1.574 . S
C1641 C1660 1.368 1_565 S
C1641 H1665 0.949 . S
H1642 C1646 0.949 . S
C1643 C1644 1.349 1_565 S
C1643 C1645 1.327 . S
C1643 H1666 0.950 . S
C1644 C1643 1.349 1_545 S
C1644 C1656 1.349 . S
C1645 C1643 1.327 . S
C1645 C1661 1.429 1_565 S
C1645 H1667 0.950 . S
C1646 H1642 0.949 . S
C1646 C1654 1.574 . S
C1646 C1662 1.368 . S
H1647 C1655 0.950 . S
H1648 C1653 0.950 . S
H1649 C1654 0.949 . S
H1650 C1656 0.950 . S
H1651 C1657 0.950 . S
H1652 C1658 0.949 . S
C1653 H1648 0.950 . S
C1653 C1655 1.327 . S
C1653 C1659 1.429 1_565 S
C1654 C1646 1.574 . S
C1654 H1649 0.949 . S
C1654 C1660 1.368 . S
C1655 C1639 1.349 1_565 S
C1655 H1647 0.950 . S
C1655 C1653 1.327 . S
C1656 C1644 1.349 . S
C1656 H1650 0.950 . S
C1656 C1657 1.327 . S
C1657 H1651 0.950 . S
C1657 C1656 1.327 . S
C1657 C1661 1.429 . S
C1658 C1641 1.574 . S
C1658 H1652 0.949 . S
C1658 C1662 1.368 1_565 S
C1659 C1640 1.429 . S
C1659 C1653 1.429 1_545 S
C1659 C1660 1.523 . S
C1660 C1641 1.368 1_545 S
C1660 C1654 1.368 . S
C1660 C1659 1.523 . S
C1661 C1645 1.429 1_545 S
C1661 C1657 1.429 . S
C1661 C1662 1.523 . S
C1662 C1646 1.368 . S
C1662 C1658 1.368 1_545 S
C1662 C1661 1.523 . S
H1663 C1638 0.950 . S
H1664 C1640 0.950 . S
H1665 C1641 0.949 . S
H1666 C1643 0.950 . S
H1667 C1645 0.950 . S
C1668 C1669 1.409 . S
C1668 C1670 1.327 . S
C1668 H1693 0.950 . S
C1669 C1668 1.409 . S
C1669 C1685 1.257 1_655 S
C1670 C1668 1.327 . S
C1670 C1689 1.429 . S
C1670 H1694 0.950 . S
C1671 C1688 1.574 . S
C1671 C1690 1.368 1_455 S
C1671 H1695 0.949 . S
H1672 C1676 0.949 . S
C1673 C1674 1.349 1_455 S
C1673 C1675 1.327 . S
C1673 H1696 0.950 . S
C1674 C1673 1.349 1_655 S
C1674 C1686 1.349 . S
C1675 C1673 1.327 . S
C1675 C1691 1.429 1_455 S
C1675 H1697 0.950 . S
C1676 H1672 0.949 . S
C1676 C1684 1.574 . S
C1676 C1692 1.368 . S
H1677 C1685 0.950 . S
H1678 C1683 0.950 . S
H1679 C1684 0.949 . S
H1680 C1686 0.950 . S
H1681 C1687 0.950 . S
H1682 C1688 0.949 . S
C1683 H1678 0.950 . S
C1683 C1685 1.327 . S
C1683 C1689 1.429 1_455 S
C1684 C1676 1.574 . S
C1684 H1679 0.949 . S
C1684 C1690 1.368 . S
C1685 C1669 1.257 1_455 S
C1685 H1677 0.950 . S
C1685 C1683 1.327 . S
C1686 C1674 1.349 . S
C1686 H1680 0.950 . S
C1686 C1687 1.327 . S
C1687 H1681 0.950 . S
C1687 C1686 1.327 . S
C1687 C1691 1.429 . S
C1688 C1671 1.574 . S
C1688 H1682 0.949 . S
C1688 C1692 1.368 1_455 S
C1689 C1670 1.429 . S
C1689 C1683 1.429 1_655 S
C1689 C1690 1.523 . S
C1690 C1671 1.368 1_655 S
C1690 C1684 1.368 . S
C1690 C1689 1.523 . S
C1691 C1675 1.429 1_655 S
C1691 C1687 1.429 . S
C1691 C1692 1.523 . S
C1692 C1676 1.368 . S
C1692 C1688 1.368 1_655 S
C1692 C1691 1.523 . S
H1693 C1668 0.950 . S
H1694 C1670 0.950 . S
H1695 C1671 0.949 . S
H1696 C1673 0.950 . S
H1697 C1675 0.950 . S
C1698 C1699 1.349 . S
C1698 C1700 1.327 . S
C1698 H1723 0.950 . S
C1699 C1698 1.349 . S
C1699 C1715 1.349 . S
C1700 C1698 1.327 . S
C1700 C1719 1.429 . S
C1700 H1724 0.950 . S
C1701 C1718 1.574 . S
C1701 C1720 1.368 . S
C1701 H1725 0.949 . S
H1702 C1706 0.949 . S
C1703 C1704 1.349 . S
C1703 C1705 1.327 . S
C1703 H1726 0.950 . S
C1704 C1703 1.349 . S
C1704 C1716 1.349 . S
C1705 C1703 1.327 . S
C1705 C1721 1.429 . S
C1705 H1727 0.950 . S
C1706 H1702 0.949 . S
C1706 C1714 1.574 . S
C1706 C1722 1.368 . S
H1707 C1715 0.950 . S
H1708 C1713 0.950 . S
H1709 C1714 0.949 . S
H1710 C1716 0.950 . S
H1711 C1717 0.950 . S
H1712 C1718 0.949 . S
C1713 H1708 0.950 . S
C1713 C1715 1.327 . S
C1713 C1719 1.429 . S
C1714 C1706 1.574 . S
C1714 H1709 0.949 . S
C1714 C1720 1.368 . S
C1715 C1699 1.349 . S
C1715 H1707 0.950 . S
C1715 C1713 1.327 . S
C1716 C1704 1.349 . S
C1716 H1710 0.950 . S
C1716 C1717 1.327 . S
C1717 H1711 0.950 . S
C1717 C1716 1.327 . S
C1717 C1721 1.429 . S
C1718 C1701 1.574 . S
C1718 H1712 0.949 . S
C1718 C1722 1.368 . S
C1719 C1700 1.429 . S
C1719 C1713 1.429 . S
C1719 C1720 1.523 . S
C1720 C1701 1.368 . S
C1720 C1714 1.368 . S
C1720 C1719 1.523 . S
C1721 C1705 1.429 . S
C1721 C1717 1.429 . S
C1721 C1722 1.523 . S
C1722 C1706 1.368 . S
C1722 C1718 1.368 . S
C1722 C1721 1.523 . S
H1723 C1698 0.950 . S
H1724 C1700 0.950 . S
H1725 C1701 0.949 . S
H1726 C1703 0.950 . S
H1727 C1705 0.950 . S
C1728 C1729 1.349 . S
C1728 C1730 1.327 . S
C1728 H1753 0.950 . S
C1729 C1728 1.349 . S
C1729 C1745 1.349 . S
C1730 C1728 1.327 . S
C1730 C1749 1.429 . S
C1730 H1754 0.950 . S
C1731 C1748 1.574 . S
C1731 C1750 1.368 . S
C1731 H1755 0.949 . S
H1732 C1736 0.949 . S
C1733 C1734 1.349 . S
C1733 C1735 1.327 . S
C1733 H1756 0.950 . S
C1734 C1733 1.349 . S
C1734 C1746 1.349 . S
C1735 C1733 1.327 . S
C1735 C1751 1.429 . S
C1735 H1757 0.950 . S
C1736 H1732 0.949 . S
C1736 C1744 1.574 . S
C1736 C1752 1.368 . S
H1737 C1745 0.950 . S
H1738 C1743 0.950 . S
H1739 C1744 0.949 . S
H1740 C1746 0.950 . S
H1741 C1747 0.950 . S
H1742 C1748 0.949 . S
C1743 H1738 0.950 . S
C1743 C1745 1.327 . S
C1743 C1749 1.429 . S
C1744 C1736 1.574 . S
C1744 H1739 0.949 . S
C1744 C1750 1.368 . S
C1745 C1729 1.349 . S
C1745 H1737 0.950 . S
C1745 C1743 1.327 . S
C1746 C1734 1.349 . S
C1746 H1740 0.950 . S
C1746 C1747 1.327 . S
C1747 H1741 0.950 . S
C1747 C1746 1.327 . S
C1747 C1751 1.429 . S
C1748 C1731 1.574 . S
C1748 H1742 0.949 . S
C1748 C1752 1.368 . S
C1749 C1730 1.429 . S
C1749 C1743 1.429 . S
C1749 C1750 1.523 . S
C1750 C1731 1.368 . S
C1750 C1744 1.368 . S
C1750 C1749 1.523 . S
C1751 C1735 1.429 . S
C1751 C1747 1.429 . S
C1751 C1752 1.523 . S
C1752 C1736 1.368 . S
C1752 C1748 1.368 . S
C1752 C1751 1.523 . S
H1753 C1728 0.950 . S
H1754 C1730 0.950 . S
H1755 C1731 0.949 . S
H1756 C1733 0.950 . S
H1757 C1735 0.950 . S
C1758 C1759 1.349 . S
C1758 C1760 1.327 . S
C1758 H1783 0.950 . S
C1759 C1758 1.349 . S
C1759 C1775 1.349 . S
C1760 C1758 1.327 . S
C1760 C1779 1.429 . S
C1760 H1784 0.950 . S
C1761 C1778 1.574 . S
C1761 C1780 1.368 . S
C1761 H1785 0.949 . S
H1762 C1766 0.949 . S
C1763 C1764 1.349 . S
C1763 C1765 1.327 . S
C1763 H1786 0.950 . S
C1764 C1763 1.349 . S
C1764 C1776 1.349 . S
C1765 C1763 1.327 . S
C1765 C1781 1.429 . S
C1765 H1787 0.950 . S
C1766 H1762 0.949 . S
C1766 C1774 1.574 . S
C1766 C1782 1.368 . S
H1767 C1775 0.950 . S
H1768 C1773 0.950 . S
H1769 C1774 0.949 . S
H1770 C1776 0.950 . S
H1771 C1777 0.950 . S
H1772 C1778 0.949 . S
C1773 H1768 0.950 . S
C1773 C1775 1.327 . S
C1773 C1779 1.429 . S
C1774 C1766 1.574 . S
C1774 H1769 0.949 . S
C1774 C1780 1.368 . S
C1775 C1759 1.349 . S
C1775 H1767 0.950 . S
C1775 C1773 1.327 . S
C1776 C1764 1.349 . S
C1776 H1770 0.950 . S
C1776 C1777 1.327 . S
C1777 H1771 0.950 . S
C1777 C1776 1.327 . S
C1777 C1781 1.429 . S
C1778 C1761 1.574 . S
C1778 H1772 0.949 . S
C1778 C1782 1.368 . S
C1779 C1760 1.429 . S
C1779 C1773 1.429 . S
C1779 C1780 1.523 . S
C1780 C1761 1.368 . S
C1780 C1774 1.368 . S
C1780 C1779 1.523 . S
C1781 C1765 1.429 . S
C1781 C1777 1.429 . S
C1781 C1782 1.523 . S
C1782 C1766 1.368 . S
C1782 C1778 1.368 . S
C1782 C1781 1.523 . S
H1783 C1758 0.950 . S
H1784 C1760 0.950 . S
H1785 C1761 0.949 . S
H1786 C1763 0.950 . S
H1787 C1765 0.950 . S
C1788 C1789 1.349 . S
C1788 C1790 1.327 . S
C1788 H1813 0.950 . S
C1789 C1788 1.349 . S
C1789 C1805 1.349 . S
C1790 C1788 1.327 . S
C1790 C1809 1.429 . S
C1790 H1814 0.950 . S
C1791 C1808 1.574 . S
C1791 C1810 1.368 . S
C1791 H1815 0.949 . S
H1792 C1796 0.949 . S
C1793 C1794 1.349 . S
C1793 C1795 1.327 . S
C1793 H1816 0.950 . S
C1794 C1793 1.349 . S
C1794 C1806 1.349 . S
C1795 C1793 1.327 . S
C1795 C1811 1.429 . S
C1795 H1817 0.950 . S
C1796 H1792 0.949 . S
C1796 C1804 1.574 . S
C1796 C1812 1.368 . S
H1797 C1805 0.950 . S
H1798 C1803 0.950 . S
H1799 C1804 0.949 . S
H1800 C1806 0.950 . S
H1801 C1807 0.950 . S
H1802 C1808 0.949 . S
C1803 H1798 0.950 . S
C1803 C1805 1.327 . S
C1803 C1809 1.429 . S
C1804 C1796 1.574 . S
C1804 H1799 0.949 . S
C1804 C1810 1.368 . S
C1805 C1789 1.349 . S
C1805 H1797 0.950 . S
C1805 C1803 1.327 . S
C1806 C1794 1.349 . S
C1806 H1800 0.950 . S
C1806 C1807 1.327 . S
C1807 H1801 0.950 . S
C1807 C1806 1.327 . S
C1807 C1811 1.429 . S
C1808 C1791 1.574 . S
C1808 H1802 0.949 . S
C1808 C1812 1.368 . S
C1809 C1790 1.429 . S
C1809 C1803 1.429 . S
C1809 C1810 1.523 . S
C1810 C1791 1.368 . S
C1810 C1804 1.368 . S
C1810 C1809 1.523 . S
C1811 C1795 1.429 . S
C1811 C1807 1.429 . S
C1811 C1812 1.523 . S
C1812 C1796 1.368 . S
C1812 C1808 1.368 . S
C1812 C1811 1.523 . S
H1813 C1788 0.950 . S
H1814 C1790 0.950 . S
H1815 C1791 0.949 . S
H1816 C1793 0.950 . S
H1817 C1795 0.950 . S
C1818 C1819 1.349 . S
C1818 C1820 1.327 . S
C1818 H1843 0.950 . S
C1819 C1818 1.349 . S
C1819 C1835 1.349 . S
C1820 C1818 1.327 . S
C1820 C1839 1.429 . S
C1820 H1844 0.950 . S
C1821 C1838 1.574 . S
C1821 C1840 1.368 . S
C1821 H1845 0.949 . S
H1822 C1826 0.949 . S
C1823 C1824 1.349 . S
C1823 C1825 1.327 . S
C1823 H1846 0.950 . S
C1824 C1823 1.349 . S
C1824 C1836 1.349 . S
C1825 C1823 1.327 . S
C1825 C1841 1.429 . S
C1825 H1847 0.950 . S
C1826 H1822 0.949 . S
C1826 C1834 1.574 . S
C1826 C1842 1.368 . S
H1827 C1835 0.950 . S
H1828 C1833 0.950 . S
H1829 C1834 0.949 . S
H1830 C1836 0.950 . S
H1831 C1837 0.950 . S
H1832 C1838 0.949 . S
C1833 H1828 0.950 . S
C1833 C1835 1.327 . S
C1833 C1839 1.429 . S
C1834 C1826 1.574 . S
C1834 H1829 0.949 . S
C1834 C1840 1.368 . S
C1835 C1819 1.349 . S
C1835 H1827 0.950 . S
C1835 C1833 1.327 . S
C1836 C1824 1.349 . S
C1836 H1830 0.950 . S
C1836 C1837 1.327 . S
C1837 H1831 0.950 . S
C1837 C1836 1.327 . S
C1837 C1841 1.429 . S
C1838 C1821 1.574 . S
C1838 H1832 0.949 . S
C1838 C1842 1.368 . S
C1839 C1820 1.429 . S
C1839 C1833 1.429 . S
C1839 C1840 1.523 . S
C1840 C1821 1.368 . S
C1840 C1834 1.368 . S
C1840 C1839 1.523 . S
C1841 C1825 1.429 . S
C1841 C1837 1.429 . S
C1841 C1842 1.523 . S
C1842 C1826 1.368 . S
C1842 C1838 1.368 . S
C1842 C1841 1.523 . S
H1843 C1818 0.950 . S
H1844 C1820 0.950 . S
H1845 C1821 0.949 . S
H1846 C1823 0.950 . S
H1847 C1825 0.950 . S
C1848 C1849 1.349 . S
C1848 C1850 1.327 . S
C1848 H1873 0.950 . S
C1849 C1848 1.349 . S
C1849 C1865 1.349 . S
C1850 C1848 1.327 . S
C1850 C1869 1.429 . S
C1850 H1874 0.950 . S
C1851 C1868 1.574 . S
C1851 C1870 1.368 . S
C1851 H1875 0.949 . S
H1852 C1856 0.949 . S
C1853 C1854 1.349 . S
C1853 C1855 1.327 . S
C1853 H1876 0.950 . S
C1854 C1853 1.349 . S
C1854 C1866 1.349 . S
C1855 C1853 1.327 . S
C1855 C1871 1.429 . S
C1855 H1877 0.950 . S
C1856 H1852 0.949 . S
C1856 C1864 1.574 . S
C1856 C1872 1.368 . S
H1857 C1865 0.950 . S
H1858 C1863 0.950 . S
H1859 C1864 0.949 . S
H1860 C1866 0.950 . S
H1861 C1867 0.950 . S
H1862 C1868 0.949 . S
C1863 H1858 0.950 . S
C1863 C1865 1.327 . S
C1863 C1869 1.429 . S
C1864 C1856 1.574 . S
C1864 H1859 0.949 . S
C1864 C1870 1.368 . S
C1865 C1849 1.349 . S
C1865 H1857 0.950 . S
C1865 C1863 1.327 . S
C1866 C1854 1.349 . S
C1866 H1860 0.950 . S
C1866 C1867 1.327 . S
C1867 H1861 0.950 . S
C1867 C1866 1.327 . S
C1867 C1871 1.429 . S
C1868 C1851 1.574 . S
C1868 H1862 0.949 . S
C1868 C1872 1.368 . S
C1869 C1850 1.429 . S
C1869 C1863 1.429 . S
C1869 C1870 1.523 . S
C1870 C1851 1.368 . S
C1870 C1864 1.368 . S
C1870 C1869 1.523 . S
C1871 C1855 1.429 . S
C1871 C1867 1.429 . S
C1871 C1872 1.523 . S
C1872 C1856 1.368 . S
C1872 C1868 1.368 . S
C1872 C1871 1.523 . S
H1873 C1848 0.950 . S
H1874 C1850 0.950 . S
H1875 C1851 0.949 . S
H1876 C1853 0.950 . S
H1877 C1855 0.950 . S
C1878 C1879 1.349 . S
C1878 C1880 1.327 . S
C1878 H1903 0.950 . S
C1879 C1878 1.349 . S
C1879 C1895 1.349 . S
C1880 C1878 1.327 . S
C1880 C1899 1.429 . S
C1880 H1904 0.950 . S
C1881 C1898 1.574 . S
C1881 C1900 1.368 . S
C1881 H1905 0.949 . S
H1882 C1886 0.949 . S
C1883 C1884 1.349 . S
C1883 C1885 1.327 . S
C1883 H1906 0.950 . S
C1884 C1883 1.349 . S
C1884 C1896 1.349 . S
C1885 C1883 1.327 . S
C1885 C1901 1.429 . S
C1885 H1907 0.950 . S
C1886 H1882 0.949 . S
C1886 C1894 1.574 . S
C1886 C1902 1.368 . S
H1887 C1895 0.950 . S
H1888 C1893 0.950 . S
H1889 C1894 0.949 . S
H1890 C1896 0.950 . S
H1891 C1897 0.950 . S
H1892 C1898 0.949 . S
C1893 H1888 0.950 . S
C1893 C1895 1.327 . S
C1893 C1899 1.429 . S
C1894 C1886 1.574 . S
C1894 H1889 0.949 . S
C1894 C1900 1.368 . S
C1895 C1879 1.349 . S
C1895 H1887 0.950 . S
C1895 C1893 1.327 . S
C1896 C1884 1.349 . S
C1896 H1890 0.950 . S
C1896 C1897 1.327 . S
C1897 H1891 0.950 . S
C1897 C1896 1.327 . S
C1897 C1901 1.429 . S
C1898 C1881 1.574 . S
C1898 H1892 0.949 . S
C1898 C1902 1.368 . S
C1899 C1880 1.429 . S
C1899 C1893 1.429 . S
C1899 C1900 1.523 . S
C1900 C1881 1.368 . S
C1900 C1894 1.368 . S
C1900 C1899 1.523 . S
C1901 C1885 1.429 . S
C1901 C1897 1.429 . S
C1901 C1902 1.523 . S
C1902 C1886 1.368 . S
C1902 C1898 1.368 . S
C1902 C1901 1.523 . S
H1903 C1878 0.950 . S
H1904 C1880 0.950 . S
H1905 C1881 0.949 . S
H1906 C1883 0.950 . S
H1907 C1885 0.950 . S
C1908 C1909 1.349 . S
C1908 C1910 1.327 . S
C1908 H1933 0.950 . S
C1909 C1908 1.349 . S
C1909 C1925 1.349 . S
C1910 C1908 1.327 . S
C1910 C1929 1.429 . S
C1910 H1934 0.950 . S
C1911 C1928 1.574 . S
C1911 C1930 1.368 . S
C1911 H1935 0.949 . S
H1912 C1916 0.949 . S
C1913 C1914 1.349 . S
C1913 C1915 1.327 . S
C1913 H1936 0.950 . S
C1914 C1913 1.349 . S
C1914 C1926 1.349 . S
C1915 C1913 1.327 . S
C1915 C1931 1.429 . S
C1915 H1937 0.950 . S
C1916 H1912 0.949 . S
C1916 C1924 1.574 . S
C1916 C1932 1.368 . S
H1917 C1925 0.950 . S
H1918 C1923 0.950 . S
H1919 C1924 0.949 . S
H1920 C1926 0.950 . S
H1921 C1927 0.950 . S
H1922 C1928 0.949 . S
C1923 H1918 0.950 . S
C1923 C1925 1.327 . S
C1923 C1929 1.429 . S
C1924 C1916 1.574 . S
C1924 H1919 0.949 . S
C1924 C1930 1.368 . S
C1925 C1909 1.349 . S
C1925 H1917 0.950 . S
C1925 C1923 1.327 . S
C1926 C1914 1.349 . S
C1926 H1920 0.950 . S
C1926 C1927 1.327 . S
C1927 H1921 0.950 . S
C1927 C1926 1.327 . S
C1927 C1931 1.429 . S
C1928 C1911 1.574 . S
C1928 H1922 0.949 . S
C1928 C1932 1.368 . S
C1929 C1910 1.429 . S
C1929 C1923 1.429 . S
C1929 C1930 1.523 . S
C1930 C1911 1.368 . S
C1930 C1924 1.368 . S
C1930 C1929 1.523 . S
C1931 C1915 1.429 . S
C1931 C1927 1.429 . S
C1931 C1932 1.523 . S
C1932 C1916 1.368 . S
C1932 C1928 1.368 . S
C1932 C1931 1.523 . S
H1933 C1908 0.950 . S
H1934 C1910 0.950 . S
H1935 C1911 0.949 . S
H1936 C1913 0.950 . S
H1937 C1915 0.950 . S
C1938 C1939 1.349 . S
C1938 C1940 1.327 . S
C1938 H1963 0.950 . S
C1939 C1938 1.349 . S
C1939 C1955 1.349 . S
C1940 C1938 1.327 . S
C1940 C1959 1.429 . S
C1940 H1964 0.950 . S
C1941 C1958 1.574 . S
C1941 C1960 1.368 . S
C1941 H1965 0.949 . S
H1942 C1946 0.949 . S
C1943 C1944 1.349 . S
C1943 C1945 1.327 . S
C1943 H1966 0.950 . S
C1944 C1943 1.349 . S
C1944 C1956 1.349 . S
C1945 C1943 1.327 . S
C1945 C1961 1.429 . S
C1945 H1967 0.950 . S
C1946 H1942 0.949 . S
C1946 C1954 1.574 . S
C1946 C1962 1.368 . S
H1947 C1955 0.950 . S
H1948 C1953 0.950 . S
H1949 C1954 0.949 . S
H1950 C1956 0.950 . S
H1951 C1957 0.950 . S
H1952 C1958 0.949 . S
C1953 H1948 0.950 . S
C1953 C1955 1.327 . S
C1953 C1959 1.429 . S
C1954 C1946 1.574 . S
C1954 H1949 0.949 . S
C1954 C1960 1.368 . S
C1955 C1939 1.349 . S
C1955 H1947 0.950 . S
C1955 C1953 1.327 . S
C1956 C1944 1.349 . S
C1956 H1950 0.950 . S
C1956 C1957 1.327 . S
C1957 H1951 0.950 . S
C1957 C1956 1.327 . S
C1957 C1961 1.429 . S
C1958 C1941 1.574 . S
C1958 H1952 0.949 . S
C1958 C1962 1.368 . S
C1959 C1940 1.429 . S
C1959 C1953 1.429 . S
C1959 C1960 1.523 . S
C1960 C1941 1.368 . S
C1960 C1954 1.368 . S
C1960 C1959 1.523 . S
C1961 C1945 1.429 . S
C1961 C1957 1.429 . S
C1961 C1962 1.523 . S
C1962 C1946 1.368 . S
C1962 C1958 1.368 . S
C1962 C1961 1.523 . S
H1963 C1938 0.950 . S
H1964 C1940 0.950 . S
H1965 C1941 0.949 . S
H1966 C1943 0.950 . S
H1967 C1945 0.950 . S
C1968 C1969 1.349 . S
C1968 C1970 1.327 . S
C1968 H1993 0.950 . S
C1969 C1968 1.349 . S
C1969 C1985 1.349 . S
C1970 C1968 1.327 . S
C1970 C1989 1.429 . S
C1970 H1994 0.950 . S
C1971 C1988 1.574 . S
C1971 C1990 1.368 . S
C1971 H1995 0.949 . S
H1972 C1976 0.949 . S
C1973 C1974 1.349 . S
C1973 C1975 1.327 . S
C1973 H1996 0.950 . S
C1974 C1973 1.349 . S
C1974 C1986 1.349 . S
C1975 C1973 1.327 . S
C1975 C1991 1.429 . S
C1975 H1997 0.950 . S
C1976 H1972 0.949 . S
C1976 C1984 1.574 . S
C1976 C1992 1.368 . S
H1977 C1985 0.950 . S
H1978 C1983 0.950 . S
H1979 C1984 0.949 . S
H1980 C1986 0.950 . S
H1981 C1987 0.950 . S
H1982 C1988 0.949 . S
C1983 H1978 0.950 . S
C1983 C1985 1.327 . S
C1983 C1989 1.429 . S
C1984 C1976 1.574 . S
C1984 H1979 0.949 . S
C1984 C1990 1.368 . S
C1985 C1969 1.349 . S
C1985 H1977 0.950 . S
C1985 C1983 1.327 . S
C1986 C1974 1.349 . S
C1986 H1980 0.950 . S
C1986 C1987 1.327 . S
C1987 H1981 0.950 . S
C1987 C1986 1.327 . S
C1987 C1991 1.429 . S
C1988 C1971 1.574 . S
C1988 H1982 0.949 . S
C1988 C1992 1.368 . S
C1989 C1970 1.429 . S
C1989 C1983 1.429 . S
C1989 C1990 1.523 . S
C1990 C1971 1.368 . S
C1990 C1984 1.368 . S
C1990 C1989 1.523 . S
C1991 C1975 1.429 . S
C1991 C1987 1.429 . S
C1991 C1992 1.523 . S
C1992 C1976 1.368 . S
C1992 C1988 1.368 . S
C1992 C1991 1.523 . S
H1993 C1968 0.950 . S
H1994 C1970 0.950 . S
H1995 C1971 0.949 . S
H1996 C1973 0.950 . S
H1997 C1975 0.950 . S
C1998 C1999 1.349 . S
C1998 C2000 1.327 . S
C1998 H2023 0.950 . S
C1999 C1998 1.349 . S
C1999 C2015 1.349 . S
C2000 C1998 1.327 . S
C2000 C2019 1.429 . S
C2000 H2024 0.950 . S
C2001 C2018 1.574 . S
C2001 C2020 1.368 . S
C2001 H2025 0.949 . S
H2002 C2006 0.949 . S
C2003 C2004 1.349 . S
C2003 C2005 1.327 . S
C2003 H2026 0.950 . S
C2004 C2003 1.349 . S
C2004 C2016 1.349 . S
C2005 C2003 1.327 . S
C2005 C2021 1.429 . S
C2005 H2027 0.950 . S
C2006 H2002 0.949 . S
C2006 C2014 1.574 . S
C2006 C2022 1.368 . S
H2007 C2015 0.950 . S
H2008 C2013 0.950 . S
H2009 C2014 0.949 . S
H2010 C2016 0.950 . S
H2011 C2017 0.950 . S
H2012 C2018 0.949 . S
C2013 H2008 0.950 . S
C2013 C2015 1.327 . S
C2013 C2019 1.429 . S
C2014 C2006 1.574 . S
C2014 H2009 0.949 . S
C2014 C2020 1.368 . S
C2015 C1999 1.349 . S
C2015 H2007 0.950 . S
C2015 C2013 1.327 . S
C2016 C2004 1.349 . S
C2016 H2010 0.950 . S
C2016 C2017 1.327 . S
C2017 H2011 0.950 . S
C2017 C2016 1.327 . S
C2017 C2021 1.429 . S
C2018 C2001 1.574 . S
C2018 H2012 0.949 . S
C2018 C2022 1.368 . S
C2019 C2000 1.429 . S
C2019 C2013 1.429 . S
C2019 C2020 1.523 . S
C2020 C2001 1.368 . S
C2020 C2014 1.368 . S
C2020 C2019 1.523 . S
C2021 C2005 1.429 . S
C2021 C2017 1.429 . S
C2021 C2022 1.523 . S
C2022 C2006 1.368 . S
C2022 C2018 1.368 . S
C2022 C2021 1.523 . S
H2023 C1998 0.950 . S
H2024 C2000 0.950 . S
H2025 C2001 0.949 . S
H2026 C2003 0.950 . S
H2027 C2005 0.950 . S
C2028 C2029 1.349 . S
C2028 C2030 1.327 . S
C2028 H2053 0.950 . S
C2029 C2028 1.349 . S
C2029 C2045 1.349 . S
C2030 C2028 1.327 . S
C2030 C2049 1.429 . S
C2030 H2054 0.950 . S
C2031 C2048 1.574 . S
C2031 C2050 1.368 . S
C2031 H2055 0.949 . S
H2032 C2036 0.949 . S
C2033 C2034 1.349 . S
C2033 C2035 1.327 . S
C2033 H2056 0.950 . S
C2034 C2033 1.349 . S
C2034 C2046 1.349 . S
C2035 C2033 1.327 . S
C2035 C2051 1.429 . S
C2035 H2057 0.950 . S
C2036 H2032 0.949 . S
C2036 C2044 1.574 . S
C2036 C2052 1.368 . S
H2037 C2045 0.950 . S
H2038 C2043 0.950 . S
H2039 C2044 0.949 . S
H2040 C2046 0.950 . S
H2041 C2047 0.950 . S
H2042 C2048 0.949 . S
C2043 H2038 0.950 . S
C2043 C2045 1.327 . S
C2043 C2049 1.429 . S
C2044 C2036 1.574 . S
C2044 H2039 0.949 . S
C2044 C2050 1.368 . S
C2045 C2029 1.349 . S
C2045 H2037 0.950 . S
C2045 C2043 1.327 . S
C2046 C2034 1.349 . S
C2046 H2040 0.950 . S
C2046 C2047 1.327 . S
C2047 H2041 0.950 . S
C2047 C2046 1.327 . S
C2047 C2051 1.429 . S
C2048 C2031 1.574 . S
C2048 H2042 0.949 . S
C2048 C2052 1.368 . S
C2049 C2030 1.429 . S
C2049 C2043 1.429 . S
C2049 C2050 1.523 . S
C2050 C2031 1.368 . S
C2050 C2044 1.368 . S
C2050 C2049 1.523 . S
C2051 C2035 1.429 . S
C2051 C2047 1.429 . S
C2051 C2052 1.523 . S
C2052 C2036 1.368 . S
C2052 C2048 1.368 . S
C2052 C2051 1.523 . S
H2053 C2028 0.950 . S
H2054 C2030 0.950 . S
H2055 C2031 0.949 . S
H2056 C2033 0.950 . S
H2057 C2035 0.950 . S
C2058 C2059 1.349 . S
C2058 C2060 1.327 . S
C2058 H2083 0.950 . S
C2059 C2058 1.349 . S
C2059 C2075 1.349 . S
C2060 C2058 1.327 . S
C2060 C2079 1.429 . S
C2060 H2084 0.950 . S
C2061 C2078 1.574 . S
C2061 C2080 1.368 . S
C2061 H2085 0.949 . S
H2062 C2066 0.949 . S
C2063 C2064 1.349 . S
C2063 C2065 1.327 . S
C2063 H2086 0.950 . S
C2064 C2063 1.349 . S
C2064 C2076 1.349 . S
C2065 C2063 1.327 . S
C2065 C2081 1.429 . S
C2065 H2087 0.950 . S
C2066 H2062 0.949 . S
C2066 C2074 1.574 . S
C2066 C2082 1.368 . S
H2067 C2075 0.950 . S
H2068 C2073 0.950 . S
H2069 C2074 0.949 . S
H2070 C2076 0.950 . S
H2071 C2077 0.950 . S
H2072 C2078 0.949 . S
C2073 H2068 0.950 . S
C2073 C2075 1.327 . S
C2073 C2079 1.429 . S
C2074 C2066 1.574 . S
C2074 H2069 0.949 . S
C2074 C2080 1.368 . S
C2075 C2059 1.349 . S
C2075 H2067 0.950 . S
C2075 C2073 1.327 . S
C2076 C2064 1.349 . S
C2076 H2070 0.950 . S
C2076 C2077 1.327 . S
C2077 H2071 0.950 . S
C2077 C2076 1.327 . S
C2077 C2081 1.429 . S
C2078 C2061 1.574 . S
C2078 H2072 0.949 . S
C2078 C2082 1.368 . S
C2079 C2060 1.429 . S
C2079 C2073 1.429 . S
C2079 C2080 1.523 . S
C2080 C2061 1.368 . S
C2080 C2074 1.368 . S
C2080 C2079 1.523 . S
C2081 C2065 1.429 . S
C2081 C2077 1.429 . S
C2081 C2082 1.523 . S
C2082 C2066 1.368 . S
C2082 C2078 1.368 . S
C2082 C2081 1.523 . S
H2083 C2058 0.950 . S
H2084 C2060 0.950 . S
H2085 C2061 0.949 . S
H2086 C2063 0.950 . S
H2087 C2065 0.950 . S
C2088 C2089 1.349 . S
C2088 C2090 1.327 . S
C2088 H2113 0.950 . S
C2089 C2088 1.349 . S
C2089 C2105 1.349 . S
C2090 C2088 1.327 . S
C2090 C2109 1.429 . S
C2090 H2114 0.950 . S
C2091 C2108 1.574 . S
C2091 C2110 1.368 . S
C2091 H2115 0.949 . S
H2092 C2096 0.949 . S
C2093 C2094 1.349 . S
C2093 C2095 1.327 . S
C2093 H2116 0.950 . S
C2094 C2093 1.349 . S
C2094 C2106 1.349 . S
C2095 C2093 1.327 . S
C2095 C2111 1.429 . S
C2095 H2117 0.950 . S
C2096 H2092 0.949 . S
C2096 C2104 1.574 . S
C2096 C2112 1.368 . S
H2097 C2105 0.950 . S
H2098 C2103 0.950 . S
H2099 C2104 0.949 . S
H2100 C2106 0.950 . S
H2101 C2107 0.950 . S
H2102 C2108 0.949 . S
C2103 H2098 0.950 . S
C2103 C2105 1.327 . S
C2103 C2109 1.429 . S
C2104 C2096 1.574 . S
C2104 H2099 0.949 . S
C2104 C2110 1.368 . S
C2105 C2089 1.349 . S
C2105 H2097 0.950 . S
C2105 C2103 1.327 . S
C2106 C2094 1.349 . S
C2106 H2100 0.950 . S
C2106 C2107 1.327 . S
C2107 H2101 0.950 . S
C2107 C2106 1.327 . S
C2107 C2111 1.429 . S
C2108 C2091 1.574 . S
C2108 H2102 0.949 . S
C2108 C2112 1.368 . S
C2109 C2090 1.429 . S
C2109 C2103 1.429 . S
C2109 C2110 1.523 . S
C2110 C2091 1.368 . S
C2110 C2104 1.368 . S
C2110 C2109 1.523 . S
C2111 C2095 1.429 . S
C2111 C2107 1.429 . S
C2111 C2112 1.523 . S
C2112 C2096 1.368 . S
C2112 C2108 1.368 . S
C2112 C2111 1.523 . S
H2113 C2088 0.950 . S
H2114 C2090 0.950 . S
H2115 C2091 0.949 . S
H2116 C2093 0.950 . S
H2117 C2095 0.950 . S
C2118 C2119 1.349 . S
C2118 C2120 1.327 . S
C2118 H2143 0.950 . S
C2119 C2118 1.349 . S
C2119 C2135 1.349 . S
C2120 C2118 1.327 . S
C2120 C2139 1.429 . S
C2120 H2144 0.950 . S
C2121 C2138 1.574 . S
C2121 C2140 1.368 . S
C2121 H2145 0.949 . S
H2122 C2126 0.949 . S
C2123 C2124 1.349 . S
C2123 C2125 1.327 . S
C2123 H2146 0.950 . S
C2124 C2123 1.349 . S
C2124 C2136 1.349 . S
C2125 C2123 1.327 . S
C2125 C2141 1.429 . S
C2125 H2147 0.950 . S
C2126 H2122 0.949 . S
C2126 C2134 1.574 . S
C2126 C2142 1.368 . S
H2127 C2135 0.950 . S
H2128 C2133 0.950 . S
H2129 C2134 0.949 . S
H2130 C2136 0.950 . S
H2131 C2137 0.950 . S
H2132 C2138 0.949 . S
C2133 H2128 0.950 . S
C2133 C2135 1.327 . S
C2133 C2139 1.429 . S
C2134 C2126 1.574 . S
C2134 H2129 0.949 . S
C2134 C2140 1.368 . S
C2135 C2119 1.349 . S
C2135 H2127 0.950 . S
C2135 C2133 1.327 . S
C2136 C2124 1.349 . S
C2136 H2130 0.950 . S
C2136 C2137 1.327 . S
C2137 H2131 0.950 . S
C2137 C2136 1.327 . S
C2137 C2141 1.429 . S
C2138 C2121 1.574 . S
C2138 H2132 0.949 . S
C2138 C2142 1.368 . S
C2139 C2120 1.429 . S
C2139 C2133 1.429 . S
C2139 C2140 1.523 . S
C2140 C2121 1.368 . S
C2140 C2134 1.368 . S
C2140 C2139 1.523 . S
C2141 C2125 1.429 . S
C2141 C2137 1.429 . S
C2141 C2142 1.523 . S
C2142 C2126 1.368 . S
C2142 C2138 1.368 . S
C2142 C2141 1.523 . S
H2143 C2118 0.950 . S
H2144 C2120 0.950 . S
H2145 C2121 0.949 . S
H2146 C2123 0.950 . S
H2147 C2125 0.950 . S
C2148 C2149 1.349 . S
C2148 C2150 1.327 . S
C2148 H2173 0.950 . S
C2149 C2148 1.349 . S
C2149 C2165 1.349 . S
C2150 C2148 1.327 . S
C2150 C2169 1.429 . S
C2150 H2174 0.950 . S
C2151 C2168 1.574 . S
C2151 C2170 1.368 . S
C2151 H2175 0.949 . S
H2152 C2156 0.949 . S
C2153 C2154 1.349 . S
C2153 C2155 1.327 . S
C2153 H2176 0.950 . S
C2154 C2153 1.349 . S
C2154 C2166 1.349 . S
C2155 C2153 1.327 . S
C2155 C2171 1.429 . S
C2155 H2177 0.950 . S
C2156 H2152 0.949 . S
C2156 C2164 1.574 . S
C2156 C2172 1.368 . S
H2157 C2165 0.950 . S
H2158 C2163 0.950 . S
H2159 C2164 0.949 . S
H2160 C2166 0.950 . S
H2161 C2167 0.950 . S
H2162 C2168 0.949 . S
C2163 H2158 0.950 . S
C2163 C2165 1.327 . S
C2163 C2169 1.429 . S
C2164 C2156 1.574 . S
C2164 H2159 0.949 . S
C2164 C2170 1.368 . S
C2165 C2149 1.349 . S
C2165 H2157 0.950 . S
C2165 C2163 1.327 . S
C2166 C2154 1.349 . S
C2166 H2160 0.950 . S
C2166 C2167 1.327 . S
C2167 H2161 0.950 . S
C2167 C2166 1.327 . S
C2167 C2171 1.429 . S
C2168 C2151 1.574 . S
C2168 H2162 0.949 . S
C2168 C2172 1.368 . S
C2169 C2150 1.429 . S
C2169 C2163 1.429 . S
C2169 C2170 1.523 . S
C2170 C2151 1.368 . S
C2170 C2164 1.368 . S
C2170 C2169 1.523 . S
C2171 C2155 1.429 . S
C2171 C2167 1.429 . S
C2171 C2172 1.523 . S
C2172 C2156 1.368 . S
C2172 C2168 1.368 . S
C2172 C2171 1.523 . S
H2173 C2148 0.950 . S
H2174 C2150 0.950 . S
H2175 C2151 0.949 . S
H2176 C2153 0.950 . S
H2177 C2155 0.950 . S
C2178 C2179 1.349 . S
C2178 C2180 1.327 . S
C2178 H2203 0.950 . S
C2179 C2178 1.349 . S
C2179 C2195 1.349 . S
C2180 C2178 1.327 . S
C2180 C2199 1.429 . S
C2180 H2204 0.950 . S
C2181 C2198 1.574 . S
C2181 C2200 1.368 . S
C2181 H2205 0.949 . S
H2182 C2186 0.949 . S
C2183 C2184 1.349 . S
C2183 C2185 1.327 . S
C2183 H2206 0.950 . S
C2184 C2183 1.349 . S
C2184 C2196 1.349 . S
C2185 C2183 1.327 . S
C2185 C2201 1.429 . S
C2185 H2207 0.950 . S
C2186 H2182 0.949 . S
C2186 C2194 1.574 . S
C2186 C2202 1.368 . S
H2187 C2195 0.950 . S
H2188 C2193 0.950 . S
H2189 C2194 0.949 . S
H2190 C2196 0.950 . S
H2191 C2197 0.950 . S
H2192 C2198 0.949 . S
C2193 H2188 0.950 . S
C2193 C2195 1.327 . S
C2193 C2199 1.429 . S
C2194 C2186 1.574 . S
C2194 H2189 0.949 . S
C2194 C2200 1.368 . S
C2195 C2179 1.349 . S
C2195 H2187 0.950 . S
C2195 C2193 1.327 . S
C2196 C2184 1.349 . S
C2196 H2190 0.950 . S
C2196 C2197 1.327 . S
C2197 H2191 0.950 . S
C2197 C2196 1.327 . S
C2197 C2201 1.429 . S
C2198 C2181 1.574 . S
C2198 H2192 0.949 . S
C2198 C2202 1.368 . S
C2199 C2180 1.429 . S
C2199 C2193 1.429 . S
C2199 C2200 1.523 . S
C2200 C2181 1.368 . S
C2200 C2194 1.368 . S
C2200 C2199 1.523 . S
C2201 C2185 1.429 . S
C2201 C2197 1.429 . S
C2201 C2202 1.523 . S
C2202 C2186 1.368 . S
C2202 C2198 1.368 . S
C2202 C2201 1.523 . S
H2203 C2178 0.950 . S
H2204 C2180 0.950 . S
H2205 C2181 0.949 . S
H2206 C2183 0.950 . S
H2207 C2185 0.950 . S
C2208 C2209 1.349 . S
C2208 C2210 1.327 . S
C2208 H2233 0.950 . S
C2209 C2208 1.349 . S
C2209 C2225 1.349 . S
C2210 C2208 1.327 . S
C2210 C2229 1.429 . S
C2210 H2234 0.950 . S
C2211 C2228 1.574 . S
C2211 C2230 1.368 . S
C2211 H2235 0.949 . S
H2212 C2216 0.949 . S
C2213 C2214 1.349 . S
C2213 C2215 1.327 . S
C2213 H2236 0.950 . S
C2214 C2213 1.349 . S
C2214 C2226 1.349 . S
C2215 C2213 1.327 . S
C2215 C2231 1.429 . S
C2215 H2237 0.950 . S
C2216 H2212 0.949 . S
C2216 C2224 1.574 . S
C2216 C2232 1.368 . S
H2217 C2225 0.950 . S
H2218 C2223 0.950 . S
H2219 C2224 0.949 . S
H2220 C2226 0.950 . S
H2221 C2227 0.950 . S
H2222 C2228 0.949 . S
C2223 H2218 0.950 . S
C2223 C2225 1.327 . S
C2223 C2229 1.429 . S
C2224 C2216 1.574 . S
C2224 H2219 0.949 . S
C2224 C2230 1.368 . S
C2225 C2209 1.349 . S
C2225 H2217 0.950 . S
C2225 C2223 1.327 . S
C2226 C2214 1.349 . S
C2226 H2220 0.950 . S
C2226 C2227 1.327 . S
C2227 H2221 0.950 . S
C2227 C2226 1.327 . S
C2227 C2231 1.429 . S
C2228 C2211 1.574 . S
C2228 H2222 0.949 . S
C2228 C2232 1.368 . S
C2229 C2210 1.429 . S
C2229 C2223 1.429 . S
C2229 C2230 1.523 . S
C2230 C2211 1.368 . S
C2230 C2224 1.368 . S
C2230 C2229 1.523 . S
C2231 C2215 1.429 . S
C2231 C2227 1.429 . S
C2231 C2232 1.523 . S
C2232 C2216 1.368 . S
C2232 C2228 1.368 . S
C2232 C2231 1.523 . S
H2233 C2208 0.950 . S
H2234 C2210 0.950 . S
H2235 C2211 0.949 . S
H2236 C2213 0.950 . S
H2237 C2215 0.950 . S
C2238 C2239 1.349 . S
C2238 C2240 1.327 . S
C2238 H2263 0.950 . S
C2239 C2238 1.349 . S
C2239 C2255 1.349 . S
C2240 C2238 1.327 . S
C2240 C2259 1.429 . S
C2240 H2264 0.950 . S
C2241 C2258 1.574 . S
C2241 C2260 1.368 . S
C2241 H2265 0.949 . S
H2242 C2246 0.949 . S
C2243 C2244 1.349 . S
C2243 C2245 1.327 . S
C2243 H2266 0.950 . S
C2244 C2243 1.349 . S
C2244 C2256 1.349 . S
C2245 C2243 1.327 . S
C2245 C2261 1.429 . S
C2245 H2267 0.950 . S
C2246 H2242 0.949 . S
C2246 C2254 1.574 . S
C2246 C2262 1.368 . S
H2247 C2255 0.950 . S
H2248 C2253 0.950 . S
H2249 C2254 0.949 . S
H2250 C2256 0.950 . S
H2251 C2257 0.950 . S
H2252 C2258 0.949 . S
C2253 H2248 0.950 . S
C2253 C2255 1.327 . S
C2253 C2259 1.429 . S
C2254 C2246 1.574 . S
C2254 H2249 0.949 . S
C2254 C2260 1.368 . S
C2255 C2239 1.349 . S
C2255 H2247 0.950 . S
C2255 C2253 1.327 . S
C2256 C2244 1.349 . S
C2256 H2250 0.950 . S
C2256 C2257 1.327 . S
C2257 H2251 0.950 . S
C2257 C2256 1.327 . S
C2257 C2261 1.429 . S
C2258 C2241 1.574 . S
C2258 H2252 0.949 . S
C2258 C2262 1.368 . S
C2259 C2240 1.429 . S
C2259 C2253 1.429 . S
C2259 C2260 1.523 . S
C2260 C2241 1.368 . S
C2260 C2254 1.368 . S
C2260 C2259 1.523 . S
C2261 C2245 1.429 . S
C2261 C2257 1.429 . S
C2261 C2262 1.523 . S
C2262 C2246 1.368 . S
C2262 C2258 1.368 . S
C2262 C2261 1.523 . S
H2263 C2238 0.950 . S
H2264 C2240 0.950 . S
H2265 C2241 0.949 . S
H2266 C2243 0.950 . S
H2267 C2245 0.950 . S
C2268 C2269 1.349 . S
C2268 C2270 1.327 . S
C2268 H2293 0.950 . S
C2269 C2268 1.349 . S
C2269 C2285 1.349 . S
C2270 C2268 1.327 . S
C2270 C2289 1.429 . S
C2270 H2294 0.950 . S
C2271 C2288 1.574 . S
C2271 C2290 1.368 . S
C2271 H2295 0.949 . S
H2272 C2276 0.949 . S
C2273 C2274 1.349 . S
C2273 C2275 1.327 . S
C2273 H2296 0.950 . S
C2274 C2273 1.349 . S
C2274 C2286 1.349 . S
C2275 C2273 1.327 . S
C2275 C2291 1.429 . S
C2275 H2297 0.950 . S
C2276 H2272 0.949 . S
C2276 C2284 1.574 . S
C2276 C2292 1.368 . S
H2277 C2285 0.950 . S
H2278 C2283 0.950 . S
H2279 C2284 0.949 . S
H2280 C2286 0.950 . S
H2281 C2287 0.950 . S
H2282 C2288 0.949 . S
C2283 H2278 0.950 . S
C2283 C2285 1.327 . S
C2283 C2289 1.429 . S
C2284 C2276 1.574 . S
C2284 H2279 0.949 . S
C2284 C2290 1.368 . S
C2285 C2269 1.349 . S
C2285 H2277 0.950 . S
C2285 C2283 1.327 . S
C2286 C2274 1.349 . S
C2286 H2280 0.950 . S
C2286 C2287 1.327 . S
C2287 H2281 0.950 . S
C2287 C2286 1.327 . S
C2287 C2291 1.429 . S
C2288 C2271 1.574 . S
C2288 H2282 0.949 . S
C2288 C2292 1.368 . S
C2289 C2270 1.429 . S
C2289 C2283 1.429 . S
C2289 C2290 1.523 . S
C2290 C2271 1.368 . S
C2290 C2284 1.368 . S
C2290 C2289 1.523 . S
C2291 C2275 1.429 . S
C2291 C2287 1.429 . S
C2291 C2292 1.523 . S
C2292 C2276 1.368 . S
C2292 C2288 1.368 . S
C2292 C2291 1.523 . S
H2293 C2268 0.950 . S
H2294 C2270 0.950 . S
H2295 C2271 0.949 . S
H2296 C2273 0.950 . S
H2297 C2275 0.950 . S
C2298 C2299 1.349 . S
C2298 C2300 1.327 . S
C2298 H2323 0.950 . S
C2299 C2298 1.349 . S
C2299 C2315 1.349 . S
C2300 C2298 1.327 . S
C2300 C2319 1.429 . S
C2300 H2324 0.950 . S
C2301 C2318 1.574 . S
C2301 C2320 1.368 . S
C2301 H2325 0.949 . S
H2302 C2306 0.949 . S
C2303 C2304 1.349 . S
C2303 C2305 1.327 . S
C2303 H2326 0.950 . S
C2304 C2303 1.349 . S
C2304 C2316 1.349 . S
C2305 C2303 1.327 . S
C2305 C2321 1.429 . S
C2305 H2327 0.950 . S
C2306 H2302 0.949 . S
C2306 C2314 1.574 . S
C2306 C2322 1.368 . S
H2307 C2315 0.950 . S
H2308 C2313 0.950 . S
H2309 C2314 0.949 . S
H2310 C2316 0.950 . S
H2311 C2317 0.950 . S
H2312 C2318 0.949 . S
C2313 H2308 0.950 . S
C2313 C2315 1.327 . S
C2313 C2319 1.429 . S
C2314 C2306 1.574 . S
C2314 H2309 0.949 . S
C2314 C2320 1.368 . S
C2315 C2299 1.349 . S
C2315 H2307 0.950 . S
C2315 C2313 1.327 . S
C2316 C2304 1.349 . S
C2316 H2310 0.950 . S
C2316 C2317 1.327 . S
C2317 H2311 0.950 . S
C2317 C2316 1.327 . S
C2317 C2321 1.429 . S
C2318 C2301 1.574 . S
C2318 H2312 0.949 . S
C2318 C2322 1.368 . S
C2319 C2300 1.429 . S
C2319 C2313 1.429 . S
C2319 C2320 1.523 . S
C2320 C2301 1.368 . S
C2320 C2314 1.368 . S
C2320 C2319 1.523 . S
C2321 C2305 1.429 . S
C2321 C2317 1.429 . S
C2321 C2322 1.523 . S
C2322 C2306 1.368 . S
C2322 C2318 1.368 . S
C2322 C2321 1.523 . S
H2323 C2298 0.950 . S
H2324 C2300 0.950 . S
H2325 C2301 0.949 . S
H2326 C2303 0.950 . S
H2327 C2305 0.950 . S
C2328 C2329 1.349 . S
C2328 C2330 1.327 . S
C2328 H2353 0.950 . S
C2329 C2328 1.349 . S
C2329 C2345 1.349 . S
C2330 C2328 1.327 . S
C2330 C2349 1.429 . S
C2330 H2354 0.950 . S
C2331 C2348 1.574 . S
C2331 C2350 1.368 . S
C2331 H2355 0.949 . S
H2332 C2336 0.949 . S
C2333 C2334 1.349 . S
C2333 C2335 1.327 . S
C2333 H2356 0.950 . S
C2334 C2333 1.349 . S
C2334 C2346 1.349 . S
C2335 C2333 1.327 . S
C2335 C2351 1.429 . S
C2335 H2357 0.950 . S
C2336 H2332 0.949 . S
C2336 C2344 1.574 . S
C2336 C2352 1.368 . S
H2337 C2345 0.950 . S
H2338 C2343 0.950 . S
H2339 C2344 0.949 . S
H2340 C2346 0.950 . S
H2341 C2347 0.950 . S
H2342 C2348 0.949 . S
C2343 H2338 0.950 . S
C2343 C2345 1.327 . S
C2343 C2349 1.429 . S
C2344 C2336 1.574 . S
C2344 H2339 0.949 . S
C2344 C2350 1.368 . S
C2345 C2329 1.349 . S
C2345 H2337 0.950 . S
C2345 C2343 1.327 . S
C2346 C2334 1.349 . S
C2346 H2340 0.950 . S
C2346 C2347 1.327 . S
C2347 H2341 0.950 . S
C2347 C2346 1.327 . S
C2347 C2351 1.429 . S
C2348 C2331 1.574 . S
C2348 H2342 0.949 . S
C2348 C2352 1.368 . S
C2349 C2330 1.429 . S
C2349 C2343 1.429 . S
C2349 C2350 1.523 . S
C2350 C2331 1.368 . S
C2350 C2344 1.368 . S
C2350 C2349 1.523 . S
C2351 C2335 1.429 . S
C2351 C2347 1.429 . S
C2351 C2352 1.523 . S
C2352 C2336 1.368 . S
C2352 C2348 1.368 . S
C2352 C2351 1.523 . S
H2353 C2328 0.950 . S
H2354 C2330 0.950 . S
H2355 C2331 0.949 . S
H2356 C2333 0.950 . S
H2357 C2335 0.950 . S
C2358 C2359 1.349 . S
C2358 C2360 1.327 . S
C2358 H2383 0.950 . S
C2359 C2358 1.349 . S
C2359 C2375 1.349 . S
C2360 C2358 1.327 . S
C2360 C2379 1.429 . S
C2360 H2384 0.950 . S
C2361 C2378 1.574 . S
C2361 C2380 1.368 . S
C2361 H2385 0.949 . S
H2362 C2366 0.949 . S
C2363 C2364 1.349 . S
C2363 C2365 1.327 . S
C2363 H2386 0.950 . S
C2364 C2363 1.349 . S
C2364 C2376 1.349 . S
C2365 C2363 1.327 . S
C2365 C2381 1.429 . S
C2365 H2387 0.950 . S
C2366 H2362 0.949 . S
C2366 C2374 1.574 . S
C2366 C2382 1.368 . S
H2367 C2375 0.950 . S
H2368 C2373 0.950 . S
H2369 C2374 0.949 . S
H2370 C2376 0.950 . S
H2371 C2377 0.950 . S
H2372 C2378 0.949 . S
C2373 H2368 0.950 . S
C2373 C2375 1.327 . S
C2373 C2379 1.429 . S
C2374 C2366 1.574 . S
C2374 H2369 0.949 . S
C2374 C2380 1.368 . S
C2375 C2359 1.349 . S
C2375 H2367 0.950 . S
C2375 C2373 1.327 . S
C2376 C2364 1.349 . S
C2376 H2370 0.950 . S
C2376 C2377 1.327 . S
C2377 H2371 0.950 . S
C2377 C2376 1.327 . S
C2377 C2381 1.429 . S
C2378 C2361 1.574 . S
C2378 H2372 0.949 . S
C2378 C2382 1.368 . S
C2379 C2360 1.429 . S
C2379 C2373 1.429 . S
C2379 C2380 1.523 . S
C2380 C2361 1.368 . S
C2380 C2374 1.368 . S
C2380 C2379 1.523 . S
C2381 C2365 1.429 . S
C2381 C2377 1.429 . S
C2381 C2382 1.523 . S
C2382 C2366 1.368 . S
C2382 C2378 1.368 . S
C2382 C2381 1.523 . S
H2383 C2358 0.950 . S
H2384 C2360 0.950 . S
H2385 C2361 0.949 . S
H2386 C2363 0.950 . S
H2387 C2365 0.950 . S
C2388 C2389 1.349 . S
C2388 C2390 1.327 . S
C2388 H2413 0.950 . S
C2389 C2388 1.349 . S
C2389 C2405 1.349 . S
C2390 C2388 1.327 . S
C2390 C2409 1.429 . S
C2390 H2414 0.950 . S
C2391 C2408 1.574 . S
C2391 C2410 1.368 . S
C2391 H2415 0.949 . S
H2392 C2396 0.949 . S
C2393 C2394 1.349 . S
C2393 C2395 1.327 . S
C2393 H2416 0.950 . S
C2394 C2393 1.349 . S
C2394 C2406 1.349 . S
C2395 C2393 1.327 . S
C2395 C2411 1.429 . S
C2395 H2417 0.950 . S
C2396 H2392 0.949 . S
C2396 C2404 1.574 . S
C2396 C2412 1.368 . S
H2397 C2405 0.950 . S
H2398 C2403 0.950 . S
H2399 C2404 0.949 . S
H2400 C2406 0.950 . S
H2401 C2407 0.950 . S
H2402 C2408 0.949 . S
C2403 H2398 0.950 . S
C2403 C2405 1.327 . S
C2403 C2409 1.429 . S
C2404 C2396 1.574 . S
C2404 H2399 0.949 . S
C2404 C2410 1.368 . S
C2405 C2389 1.349 . S
C2405 H2397 0.950 . S
C2405 C2403 1.327 . S
C2406 C2394 1.349 . S
C2406 H2400 0.950 . S
C2406 C2407 1.327 . S
C2407 H2401 0.950 . S
C2407 C2406 1.327 . S
C2407 C2411 1.429 . S
C2408 C2391 1.574 . S
C2408 H2402 0.949 . S
C2408 C2412 1.368 . S
C2409 C2390 1.429 . S
C2409 C2403 1.429 . S
C2409 C2410 1.523 . S
C2410 C2391 1.368 . S
C2410 C2404 1.368 . S
C2410 C2409 1.523 . S
C2411 C2395 1.429 . S
C2411 C2407 1.429 . S
C2411 C2412 1.523 . S
C2412 C2396 1.368 . S
C2412 C2408 1.368 . S
C2412 C2411 1.523 . S
H2413 C2388 0.950 . S
H2414 C2390 0.950 . S
H2415 C2391 0.949 . S
H2416 C2393 0.950 . S
H2417 C2395 0.950 . S
C2418 C2419 1.349 . S
C2418 C2420 1.327 . S
C2418 H2443 0.950 . S
C2419 C2418 1.349 . S
C2419 C2435 1.349 . S
C2420 C2418 1.327 . S
C2420 C2439 1.429 . S
C2420 H2444 0.950 . S
C2421 C2438 1.574 . S
C2421 C2440 1.368 . S
C2421 H2445 0.949 . S
H2422 C2426 0.949 . S
C2423 C2424 1.349 . S
C2423 C2425 1.327 . S
C2423 H2446 0.950 . S
C2424 C2423 1.349 . S
C2424 C2436 1.349 . S
C2425 C2423 1.327 . S
C2425 C2441 1.429 . S
C2425 H2447 0.950 . S
C2426 H2422 0.949 . S
C2426 C2434 1.574 . S
C2426 C2442 1.368 . S
H2427 C2435 0.950 . S
H2428 C2433 0.950 . S
H2429 C2434 0.949 . S
H2430 C2436 0.950 . S
H2431 C2437 0.950 . S
H2432 C2438 0.949 . S
C2433 H2428 0.950 . S
C2433 C2435 1.327 . S
C2433 C2439 1.429 . S
C2434 C2426 1.574 . S
C2434 H2429 0.949 . S
C2434 C2440 1.368 . S
C2435 C2419 1.349 . S
C2435 H2427 0.950 . S
C2435 C2433 1.327 . S
C2436 C2424 1.349 . S
C2436 H2430 0.950 . S
C2436 C2437 1.327 . S
C2437 H2431 0.950 . S
C2437 C2436 1.327 . S
C2437 C2441 1.429 . S
C2438 C2421 1.574 . S
C2438 H2432 0.949 . S
C2438 C2442 1.368 . S
C2439 C2420 1.429 . S
C2439 C2433 1.429 . S
C2439 C2440 1.523 . S
C2440 C2421 1.368 . S
C2440 C2434 1.368 . S
C2440 C2439 1.523 . S
C2441 C2425 1.429 . S
C2441 C2437 1.429 . S
C2441 C2442 1.523 . S
C2442 C2426 1.368 . S
C2442 C2438 1.368 . S
C2442 C2441 1.523 . S
H2443 C2418 0.950 . S
H2444 C2420 0.950 . S
H2445 C2421 0.949 . S
H2446 C2423 0.950 . S
H2447 C2425 0.950 . S
C2448 C2449 1.349 . S
C2448 C2450 1.327 . S
C2448 H2473 0.950 . S
C2449 C2448 1.349 . S
C2449 C2465 1.349 . S
C2450 C2448 1.327 . S
C2450 C2469 1.429 . S
C2450 H2474 0.950 . S
C2451 C2468 1.574 . S
C2451 C2470 1.368 . S
C2451 H2475 0.949 . S
H2452 C2456 0.949 . S
C2453 C2454 1.349 . S
C2453 C2455 1.327 . S
C2453 H2476 0.950 . S
C2454 C2453 1.349 . S
C2454 C2466 1.349 . S
C2455 C2453 1.327 . S
C2455 C2471 1.429 . S
C2455 H2477 0.950 . S
C2456 H2452 0.949 . S
C2456 C2464 1.574 . S
C2456 C2472 1.368 . S
H2457 C2465 0.950 . S
H2458 C2463 0.950 . S
H2459 C2464 0.949 . S
H2460 C2466 0.950 . S
H2461 C2467 0.950 . S
H2462 C2468 0.949 . S
C2463 H2458 0.950 . S
C2463 C2465 1.327 . S
C2463 C2469 1.429 . S
C2464 C2456 1.574 . S
C2464 H2459 0.949 . S
C2464 C2470 1.368 . S
C2465 C2449 1.349 . S
C2465 H2457 0.950 . S
C2465 C2463 1.327 . S
C2466 C2454 1.349 . S
C2466 H2460 0.950 . S
C2466 C2467 1.327 . S
C2467 H2461 0.950 . S
C2467 C2466 1.327 . S
C2467 C2471 1.429 . S
C2468 C2451 1.574 . S
C2468 H2462 0.949 . S
C2468 C2472 1.368 . S
C2469 C2450 1.429 . S
C2469 C2463 1.429 . S
C2469 C2470 1.523 . S
C2470 C2451 1.368 . S
C2470 C2464 1.368 . S
C2470 C2469 1.523 . S
C2471 C2455 1.429 . S
C2471 C2467 1.429 . S
C2471 C2472 1.523 . S
C2472 C2456 1.368 . S
C2472 C2468 1.368 . S
C2472 C2471 1.523 . S
H2473 C2448 0.950 . S
H2474 C2450 0.950 . S
H2475 C2451 0.949 . S
H2476 C2453 0.950 . S
H2477 C2455 0.950 . S
C2478 C2479 1.349 . S
C2478 C2480 1.327 . S
C2478 H2503 0.950 . S
C2479 C2478 1.349 . S
C2479 C2495 1.349 . S
C2480 C2478 1.327 . S
C2480 C2499 1.429 . S
C2480 H2504 0.950 . S
C2481 C2498 1.574 . S
C2481 C2500 1.368 . S
C2481 H2505 0.949 . S
H2482 C2486 0.949 . S
C2483 C2484 1.349 . S
C2483 C2485 1.327 . S
C2483 H2506 0.950 . S
C2484 C2483 1.349 . S
C2484 C2496 1.349 . S
C2485 C2483 1.327 . S
C2485 C2501 1.429 . S
C2485 H2507 0.950 . S
C2486 H2482 0.949 . S
C2486 C2494 1.574 . S
C2486 C2502 1.368 . S
H2487 C2495 0.950 . S
H2488 C2493 0.950 . S
H2489 C2494 0.949 . S
H2490 C2496 0.950 . S
H2491 C2497 0.950 . S
H2492 C2498 0.949 . S
C2493 H2488 0.950 . S
C2493 C2495 1.327 . S
C2493 C2499 1.429 . S
C2494 C2486 1.574 . S
C2494 H2489 0.949 . S
C2494 C2500 1.368 . S
C2495 C2479 1.349 . S
C2495 H2487 0.950 . S
C2495 C2493 1.327 . S
C2496 C2484 1.349 . S
C2496 H2490 0.950 . S
C2496 C2497 1.327 . S
C2497 H2491 0.950 . S
C2497 C2496 1.327 . S
C2497 C2501 1.429 . S
C2498 C2481 1.574 . S
C2498 H2492 0.949 . S
C2498 C2502 1.368 . S
C2499 C2480 1.429 . S
C2499 C2493 1.429 . S
C2499 C2500 1.523 . S
C2500 C2481 1.368 . S
C2500 C2494 1.368 . S
C2500 C2499 1.523 . S
C2501 C2485 1.429 . S
C2501 C2497 1.429 . S
C2501 C2502 1.523 . S
C2502 C2486 1.368 . S
C2502 C2498 1.368 . S
C2502 C2501 1.523 . S
H2503 C2478 0.950 . S
H2504 C2480 0.950 . S
H2505 C2481 0.949 . S
H2506 C2483 0.950 . S
H2507 C2485 0.950 . S
C2508 C2509 1.349 . S
C2508 C2510 1.327 . S
C2508 H2533 0.950 . S
C2509 C2508 1.349 . S
C2509 C2525 1.349 . S
C2510 C2508 1.327 . S
C2510 C2529 1.429 . S
C2510 H2534 0.950 . S
C2511 C2528 1.574 . S
C2511 C2530 1.368 . S
C2511 H2535 0.949 . S
H2512 C2516 0.949 . S
C2513 C2514 1.349 . S
C2513 C2515 1.327 . S
C2513 H2536 0.950 . S
C2514 C2513 1.349 . S
C2514 C2526 1.349 . S
C2515 C2513 1.327 . S
C2515 C2531 1.429 . S
C2515 H2537 0.950 . S
C2516 H2512 0.949 . S
C2516 C2524 1.574 . S
C2516 C2532 1.368 . S
H2517 C2525 0.950 . S
H2518 C2523 0.950 . S
H2519 C2524 0.949 . S
H2520 C2526 0.950 . S
H2521 C2527 0.950 . S
H2522 C2528 0.949 . S
C2523 H2518 0.950 . S
C2523 C2525 1.327 . S
C2523 C2529 1.429 . S
C2524 C2516 1.574 . S
C2524 H2519 0.949 . S
C2524 C2530 1.368 . S
C2525 C2509 1.349 . S
C2525 H2517 0.950 . S
C2525 C2523 1.327 . S
C2526 C2514 1.349 . S
C2526 H2520 0.950 . S
C2526 C2527 1.327 . S
C2527 H2521 0.950 . S
C2527 C2526 1.327 . S
C2527 C2531 1.429 . S
C2528 C2511 1.574 . S
C2528 H2522 0.949 . S
C2528 C2532 1.368 . S
C2529 C2510 1.429 . S
C2529 C2523 1.429 . S
C2529 C2530 1.523 . S
C2530 C2511 1.368 . S
C2530 C2524 1.368 . S
C2530 C2529 1.523 . S
C2531 C2515 1.429 . S
C2531 C2527 1.429 . S
C2531 C2532 1.523 . S
C2532 C2516 1.368 . S
C2532 C2528 1.368 . S
C2532 C2531 1.523 . S
H2533 C2508 0.950 . S
H2534 C2510 0.950 . S
H2535 C2511 0.949 . S
H2536 C2513 0.950 . S
H2537 C2515 0.950 . S
C2538 C2539 1.349 . S
C2538 C2540 1.327 . S
C2538 H2563 0.950 . S
C2539 C2538 1.349 . S
C2539 C2555 1.349 . S
C2540 C2538 1.327 . S
C2540 C2559 1.429 . S
C2540 H2564 0.950 . S
C2541 C2558 1.574 . S
C2541 C2560 1.368 . S
C2541 H2565 0.949 . S
H2542 C2546 0.949 . S
C2543 C2544 1.349 . S
C2543 C2545 1.327 . S
C2543 H2566 0.950 . S
C2544 C2543 1.349 . S
C2544 C2556 1.349 . S
C2545 C2543 1.327 . S
C2545 C2561 1.429 . S
C2545 H2567 0.950 . S
C2546 H2542 0.949 . S
C2546 C2554 1.574 . S
C2546 C2562 1.368 . S
H2547 C2555 0.950 1_554 S
H2548 C2553 0.950 . S
H2549 C2554 0.949 . S
H2550 C2556 0.950 . S
H2551 C2557 0.950 . S
H2552 C2558 0.949 . S
C2553 H2548 0.950 . S
C2553 C2555 1.327 . S
C2553 C2559 1.429 . S
C2554 C2546 1.574 . S
C2554 H2549 0.949 . S
C2554 C2560 1.368 . S
C2555 C2539 1.349 . S
C2555 H2547 0.950 1_556 S
C2555 C2553 1.327 . S
C2556 C2544 1.349 . S
C2556 H2550 0.950 . S
C2556 C2557 1.327 . S
C2557 H2551 0.950 . S
C2557 C2556 1.327 . S
C2557 C2561 1.429 . S
C2558 C2541 1.574 . S
C2558 H2552 0.949 . S
C2558 C2562 1.368 . S
C2559 C2540 1.429 . S
C2559 C2553 1.429 . S
C2559 C2560 1.523 . S
C2560 C2541 1.368 . S
C2560 C2554 1.368 . S
C2560 C2559 1.523 . S
C2561 C2545 1.429 . S
C2561 C2557 1.429 . S
C2561 C2562 1.523 . S
C2562 C2546 1.368 . S
C2562 C2558 1.368 . S
C2562 C2561 1.523 . S
H2563 C2538 0.950 . S
H2564 C2540 0.950 . S
H2565 C2541 0.949 . S
H2566 C2543 0.950 . S
H2567 C2545 0.950 . S
C2568 C2569 1.349 . S
C2568 C2570 1.327 . S
C2568 H2593 0.950 . S
C2569 C2568 1.349 . S
C2569 C2585 1.349 1_556 S
C2570 C2568 1.327 . S
C2570 C2589 1.429 . S
C2570 H2594 0.950 . S
C2571 C2588 1.574 . S
C2571 C2590 1.368 . S
C2571 H2595 0.949 . S
H2572 C2576 0.949 . S
C2573 C2574 1.349 . S
C2573 C2575 1.327 . S
C2573 H2596 0.950 . S
C2574 C2573 1.349 . S
C2574 C2586 1.349 . S
C2575 C2573 1.327 . S
C2575 C2591 1.429 . S
C2575 H2597 0.950 . S
C2576 H2572 0.949 . S
C2576 C2584 1.574 . S
C2576 C2592 1.368 . S
H2577 C2585 0.950 . S
H2578 C2583 0.950 1_554 S
H2579 C2584 0.949 . S
H2580 C2586 0.950 . S
H2581 C2587 0.950 . S
H2582 C2588 0.949 . S
C2583 H2578 0.950 1_556 S
C2583 C2585 1.327 1_556 S
C2583 C2589 1.429 . S
C2584 C2576 1.574 . S
C2584 H2579 0.949 . S
C2584 C2590 1.368 . S
C2585 C2569 1.349 1_554 S
C2585 H2577 0.950 . S
C2585 C2583 1.327 1_554 S
C2586 C2574 1.349 . S
C2586 H2580 0.950 . S
C2586 C2587 1.327 . S
C2587 H2581 0.950 . S
C2587 C2586 1.327 . S
C2587 C2591 1.429 . S
C2588 C2571 1.574 . S
C2588 H2582 0.949 . S
C2588 C2592 1.368 . S
C2589 C2570 1.429 . S
C2589 C2583 1.429 . S
C2589 C2590 1.523 . S
C2590 C2571 1.368 . S
C2590 C2584 1.368 . S
C2590 C2589 1.523 . S
C2591 C2575 1.429 . S
C2591 C2587 1.429 . S
C2591 C2592 1.523 . S
C2592 C2576 1.368 . S
C2592 C2588 1.368 . S
C2592 C2591 1.523 . S
H2593 C2568 0.950 . S
H2594 C2570 0.950 . S
H2595 C2571 0.949 . S
H2596 C2573 0.950 . S
H2597 C2575 0.950 . S
C2598 C2599 1.349 . S
C2598 C2600 1.327 . S
C2598 H2623 0.950 . S
C2599 C2598 1.349 . S
C2599 C2615 1.349 . S
C2600 C2598 1.327 . S
C2600 C2619 1.429 . S
C2600 H2624 0.950 . S
C2601 C2618 1.574 . S
C2601 C2620 1.368 . S
C2601 H2625 0.949 . S
H2602 C2606 0.949 . S
C2603 C2604 1.349 . S
C2603 C2605 1.327 . S
C2603 H2626 0.950 . S
C2604 C2603 1.349 . S
C2604 C2616 1.349 . S
C2605 C2603 1.327 . S
C2605 C2621 1.429 . S
C2605 H2627 0.950 . S
C2606 H2602 0.949 . S
C2606 C2614 1.574 . S
C2606 C2622 1.368 . S
H2607 C2615 0.950 1_554 S
H2608 C2613 0.950 . S
H2609 C2614 0.949 . S
H2610 C2616 0.950 . S
H2611 C2617 0.950 . S
H2612 C2618 0.949 . S
C2613 H2608 0.950 . S
C2613 C2615 1.327 . S
C2613 C2619 1.429 . S
C2614 C2606 1.574 . S
C2614 H2609 0.949 . S
C2614 C2620 1.368 . S
C2615 C2599 1.349 . S
C2615 H2607 0.950 1_556 S
C2615 C2613 1.327 . S
C2616 C2604 1.349 . S
C2616 H2610 0.950 . S
C2616 C2617 1.327 . S
C2617 H2611 0.950 . S
C2617 C2616 1.327 . S
C2617 C2621 1.429 . S
C2618 C2601 1.574 . S
C2618 H2612 0.949 . S
C2618 C2622 1.368 . S
C2619 C2600 1.429 . S
C2619 C2613 1.429 . S
C2619 C2620 1.523 . S
C2620 C2601 1.368 . S
C2620 C2614 1.368 . S
C2620 C2619 1.523 . S
C2621 C2605 1.429 . S
C2621 C2617 1.429 . S
C2621 C2622 1.523 . S
C2622 C2606 1.368 . S
C2622 C2618 1.368 . S
C2622 C2621 1.523 . S
H2623 C2598 0.950 . S
H2624 C2600 0.950 . S
H2625 C2601 0.949 . S
H2626 C2603 0.950 . S
H2627 C2605 0.950 . S
C2628 C2629 1.349 1_554 S
C2628 C2630 1.327 1_554 S
C2628 H2653 0.950 . S
C2629 C2628 1.349 1_556 S
C2629 C2645 1.349 . S
C2630 C2628 1.327 1_556 S
C2630 C2649 1.429 . S
C2630 H2654 0.950 1_556 S
C2631 C2648 1.574 . S
C2631 C2650 1.368 . S
C2631 H2655 0.949 . S
H2632 C2636 0.949 . S
C2633 C2634 1.349 . S
C2633 C2635 1.327 . S
C2633 H2656 0.950 . S
C2634 C2633 1.349 . S
C2634 C2646 1.349 . S
C2635 C2633 1.327 . S
C2635 C2651 1.429 . S
C2635 H2657 0.950 . S
C2636 H2632 0.949 . S
C2636 C2644 1.574 . S
C2636 C2652 1.368 . S
H2637 C2645 0.950 . S
H2638 C2643 0.950 . S
H2639 C2644 0.949 . S
H2640 C2646 0.950 . S
H2641 C2647 0.950 . S
H2642 C2648 0.949 . S
C2643 H2638 0.950 . S
C2643 C2645 1.327 . S
C2643 C2649 1.429 . S
C2644 C2636 1.574 . S
C2644 H2639 0.949 . S
C2644 C2650 1.368 . S
C2645 C2629 1.349 . S
C2645 H2637 0.950 . S
C2645 C2643 1.327 . S
C2646 C2634 1.349 . S
C2646 H2640 0.950 . S
C2646 C2647 1.327 . S
C2647 H2641 0.950 . S
C2647 C2646 1.327 . S
C2647 C2651 1.429 . S
C2648 C2631 1.574 . S
C2648 H2642 0.949 . S
C2648 C2652 1.368 . S
C2649 C2630 1.429 . S
C2649 C2643 1.429 . S
C2649 C2650 1.523 . S
C2650 C2631 1.368 . S
C2650 C2644 1.368 . S
C2650 C2649 1.523 . S
C2651 C2635 1.429 . S
C2651 C2647 1.429 . S
C2651 C2652 1.523 . S
C2652 C2636 1.368 . S
C2652 C2648 1.368 . S
C2652 C2651 1.523 . S
H2653 C2628 0.950 . S
H2654 C2630 0.950 1_554 S
H2655 C2631 0.949 . S
H2656 C2633 0.950 . S
H2657 C2635 0.950 . S
C2658 C2659 1.349 . S
C2658 C2660 1.327 . S
C2658 H2683 0.950 . S
C2659 C2658 1.349 . S
C2659 C2675 1.349 1_556 S
C2660 C2658 1.327 . S
C2660 C2679 1.429 . S
C2660 H2684 0.950 . S
C2661 C2678 1.574 . S
C2661 C2680 1.368 . S
C2661 H2685 0.949 . S
H2662 C2666 0.949 . S
C2663 C2664 1.349 . S
C2663 C2665 1.327 . S
C2663 H2686 0.950 . S
C2664 C2663 1.349 . S
C2664 C2676 1.349 . S
C2665 C2663 1.327 . S
C2665 C2681 1.429 . S
C2665 H2687 0.950 . S
C2666 H2662 0.949 . S
C2666 C2674 1.574 . S
C2666 C2682 1.368 . S
H2667 C2675 0.950 . S
H2668 C2673 0.950 1_554 S
H2669 C2674 0.949 . S
H2670 C2676 0.950 . S
H2671 C2677 0.950 . S
H2672 C2678 0.949 . S
C2673 H2668 0.950 1_556 S
C2673 C2675 1.327 1_556 S
C2673 C2679 1.429 . S
C2674 C2666 1.574 . S
C2674 H2669 0.949 . S
C2674 C2680 1.368 . S
C2675 C2659 1.349 1_554 S
C2675 H2667 0.950 . S
C2675 C2673 1.327 1_554 S
C2676 C2664 1.349 . S
C2676 H2670 0.950 . S
C2676 C2677 1.327 . S
C2677 H2671 0.950 . S
C2677 C2676 1.327 . S
C2677 C2681 1.429 . S
C2678 C2661 1.574 . S
C2678 H2672 0.949 . S
C2678 C2682 1.368 . S
C2679 C2660 1.429 . S
C2679 C2673 1.429 . S
C2679 C2680 1.523 . S
C2680 C2661 1.368 . S
C2680 C2674 1.368 . S
C2680 C2679 1.523 . S
C2681 C2665 1.429 . S
C2681 C2677 1.429 . S
C2681 C2682 1.523 . S
C2682 C2666 1.368 . S
C2682 C2678 1.368 . S
C2682 C2681 1.523 . S
H2683 C2658 0.950 . S
H2684 C2660 0.950 . S
H2685 C2661 0.949 . S
H2686 C2663 0.950 . S
H2687 C2665 0.950 . S
C2688 C2689 1.349 . S
C2688 C2690 1.327 . S
C2688 H2713 0.950 . S
C2689 C2688 1.349 . S
C2689 C2705 1.349 1_556 S
C2690 C2688 1.327 . S
C2690 C2709 1.429 . S
C2690 H2714 0.950 . S
C2691 C2708 1.574 . S
C2691 C2710 1.368 . S
C2691 H2715 0.949 . S
H2692 C2696 0.949 . S
C2693 C2694 1.349 . S
C2693 C2695 1.327 . S
C2693 H2716 0.950 . S
C2694 C2693 1.349 . S
C2694 C2706 1.349 . S
C2695 C2693 1.327 . S
C2695 C2711 1.429 . S
C2695 H2717 0.950 . S
C2696 H2692 0.949 . S
C2696 C2704 1.574 . S
C2696 C2712 1.368 . S
H2697 C2705 0.950 . S
H2698 C2703 0.950 1_554 S
H2699 C2704 0.949 . S
H2700 C2706 0.950 . S
H2701 C2707 0.950 . S
H2702 C2708 0.949 . S
C2703 H2698 0.950 1_556 S
C2703 C2705 1.327 1_556 S
C2703 C2709 1.429 . S
C2704 C2696 1.574 . S
C2704 H2699 0.949 . S
C2704 C2710 1.368 . S
C2705 C2689 1.349 1_554 S
C2705 H2697 0.950 . S
C2705 C2703 1.327 1_554 S
C2706 C2694 1.349 . S
C2706 H2700 0.950 . S
C2706 C2707 1.327 . S
C2707 H2701 0.950 . S
C2707 C2706 1.327 . S
C2707 C2711 1.429 . S
C2708 C2691 1.574 . S
C2708 H2702 0.949 . S
C2708 C2712 1.368 . S
C2709 C2690 1.429 . S
C2709 C2703 1.429 . S
C2709 C2710 1.523 . S
C2710 C2691 1.368 . S
C2710 C2704 1.368 . S
C2710 C2709 1.523 . S
C2711 C2695 1.429 . S
C2711 C2707 1.429 . S
C2711 C2712 1.523 . S
C2712 C2696 1.368 . S
C2712 C2708 1.368 . S
C2712 C2711 1.523 . S
H2713 C2688 0.950 . S
H2714 C2690 0.950 . S
H2715 C2691 0.949 . S
H2716 C2693 0.950 . S
H2717 C2695 0.950 . S
C2718 C2719 1.349 . S
C2718 C2720 1.327 . S
C2718 H2743 0.950 . S
C2719 C2718 1.349 . S
C2719 C2735 1.349 . S
C2720 C2718 1.327 . S
C2720 C2739 1.429 . S
C2720 H2744 0.950 . S
C2721 C2738 1.574 . S
C2721 C2740 1.368 . S
C2721 H2745 0.949 . S
H2722 C2726 0.949 . S
C2723 C2724 1.349 . S
C2723 C2725 1.327 . S
C2723 H2746 0.950 . S
C2724 C2723 1.349 . S
C2724 C2736 1.349 . S
C2725 C2723 1.327 . S
C2725 C2741 1.429 . S
C2725 H2747 0.950 . S
C2726 H2722 0.949 . S
C2726 C2734 1.574 . S
C2726 C2742 1.368 . S
H2727 C2735 0.950 . S
H2728 C2733 0.950 . S
H2729 C2734 0.949 . S
H2730 C2736 0.950 . S
H2731 C2737 0.950 . S
H2732 C2738 0.949 . S
C2733 H2728 0.950 . S
C2733 C2735 1.327 . S
C2733 C2739 1.429 . S
C2734 C2726 1.574 . S
C2734 H2729 0.949 . S
C2734 C2740 1.368 . S
C2735 C2719 1.349 . S
C2735 H2727 0.950 . S
C2735 C2733 1.327 . S
C2736 C2724 1.349 . S
C2736 H2730 0.950 . S
C2736 C2737 1.327 . S
C2737 H2731 0.950 . S
C2737 C2736 1.327 . S
C2737 C2741 1.429 . S
C2738 C2721 1.574 . S
C2738 H2732 0.949 . S
C2738 C2742 1.368 . S
C2739 C2720 1.429 . S
C2739 C2733 1.429 . S
C2739 C2740 1.523 . S
C2740 C2721 1.368 . S
C2740 C2734 1.368 . S
C2740 C2739 1.523 . S
C2741 C2725 1.429 . S
C2741 C2737 1.429 . S
C2741 C2742 1.523 . S
C2742 C2726 1.368 . S
C2742 C2738 1.368 . S
C2742 C2741 1.523 . S
H2743 C2718 0.950 . S
H2744 C2720 0.950 . S
H2745 C2721 0.949 . S
H2746 C2723 0.950 . S
H2747 C2725 0.950 . S
C2748 C2749 1.349 . S
C2748 C2750 1.327 . S
C2748 H2773 0.950 . S
C2749 C2748 1.349 . S
C2749 C2765 1.349 . S
C2750 C2748 1.327 . S
C2750 C2769 1.429 . S
C2750 H2774 0.950 . S
C2751 C2768 1.574 . S
C2751 C2770 1.368 . S
C2751 H2775 0.949 . S
H2752 C2756 0.949 . S
C2753 C2754 1.349 . S
C2753 C2755 1.327 . S
C2753 H2776 0.950 . S
C2754 C2753 1.349 . S
C2754 C2766 1.349 . S
C2755 C2753 1.327 . S
C2755 C2771 1.429 . S
C2755 H2777 0.950 . S
C2756 H2752 0.949 . S
C2756 C2764 1.574 . S
C2756 C2772 1.368 . S
H2757 C2765 0.950 . S
H2758 C2763 0.950 . S
H2759 C2764 0.949 . S
H2760 C2766 0.950 . S
H2761 C2767 0.950 . S
H2762 C2768 0.949 . S
C2763 H2758 0.950 . S
C2763 C2765 1.327 . S
C2763 C2769 1.429 . S
C2764 C2756 1.574 . S
C2764 H2759 0.949 . S
C2764 C2770 1.368 . S
C2765 C2749 1.349 . S
C2765 H2757 0.950 . S
C2765 C2763 1.327 . S
C2766 C2754 1.349 . S
C2766 H2760 0.950 . S
C2766 C2767 1.327 . S
C2767 H2761 0.950 . S
C2767 C2766 1.327 . S
C2767 C2771 1.429 . S
C2768 C2751 1.574 . S
C2768 H2762 0.949 . S
C2768 C2772 1.368 . S
C2769 C2750 1.429 . S
C2769 C2763 1.429 . S
C2769 C2770 1.523 . S
C2770 C2751 1.368 . S
C2770 C2764 1.368 . S
C2770 C2769 1.523 . S
C2771 C2755 1.429 . S
C2771 C2767 1.429 . S
C2771 C2772 1.523 . S
C2772 C2756 1.368 . S
C2772 C2768 1.368 . S
C2772 C2771 1.523 . S
H2773 C2748 0.950 . S
H2774 C2750 0.950 . S
H2775 C2751 0.949 . S
H2776 C2753 0.950 . S
H2777 C2755 0.950 . S
C2778 C2779 1.349 . S
C2778 C2780 1.327 . S
C2778 H2803 0.950 . S
C2779 C2778 1.349 . S
C2779 C2795 1.349 . S
C2780 C2778 1.327 . S
C2780 C2799 1.429 . S
C2780 H2804 0.950 . S
C2781 C2798 1.574 . S
C2781 C2800 1.368 . S
C2781 H2805 0.949 . S
H2782 C2786 0.949 . S
C2783 C2784 1.349 . S
C2783 C2785 1.327 . S
C2783 H2806 0.950 . S
C2784 C2783 1.349 . S
C2784 C2796 1.349 . S
C2785 C2783 1.327 . S
C2785 C2801 1.429 . S
C2785 H2807 0.950 . S
C2786 H2782 0.949 . S
C2786 C2794 1.574 . S
C2786 C2802 1.368 . S
H2787 C2795 0.950 . S
H2788 C2793 0.950 . S
H2789 C2794 0.949 . S
H2790 C2796 0.950 . S
H2791 C2797 0.950 . S
H2792 C2798 0.949 . S
C2793 H2788 0.950 . S
C2793 C2795 1.327 . S
C2793 C2799 1.429 . S
C2794 C2786 1.574 . S
C2794 H2789 0.949 . S
C2794 C2800 1.368 . S
C2795 C2779 1.349 . S
C2795 H2787 0.950 . S
C2795 C2793 1.327 . S
C2796 C2784 1.349 . S
C2796 H2790 0.950 . S
C2796 C2797 1.327 . S
C2797 H2791 0.950 . S
C2797 C2796 1.327 . S
C2797 C2801 1.429 . S
C2798 C2781 1.574 . S
C2798 H2792 0.949 . S
C2798 C2802 1.368 . S
C2799 C2780 1.429 . S
C2799 C2793 1.429 . S
C2799 C2800 1.523 . S
C2800 C2781 1.368 . S
C2800 C2794 1.368 . S
C2800 C2799 1.523 . S
C2801 C2785 1.429 . S
C2801 C2797 1.429 . S
C2801 C2802 1.523 . S
C2802 C2786 1.368 . S
C2802 C2798 1.368 . S
C2802 C2801 1.523 . S
H2803 C2778 0.950 . S
H2804 C2780 0.950 . S
H2805 C2781 0.949 . S
H2806 C2783 0.950 . S
H2807 C2785 0.950 . S
C2808 C2809 1.349 . S
C2808 C2810 1.327 . S
C2808 H2833 0.950 . S
C2809 C2808 1.349 . S
C2809 C2825 1.349 . S
C2810 C2808 1.327 . S
C2810 C2829 1.429 . S
C2810 H2834 0.950 . S
C2811 C2828 1.574 . S
C2811 C2830 1.368 . S
C2811 H2835 0.949 . S
H2812 C2816 0.949 . S
C2813 C2814 1.349 . S
C2813 C2815 1.327 . S
C2813 H2836 0.950 . S
C2814 C2813 1.349 . S
C2814 C2826 1.349 . S
C2815 C2813 1.327 . S
C2815 C2831 1.429 . S
C2815 H2837 0.950 . S
C2816 H2812 0.949 . S
C2816 C2824 1.574 . S
C2816 C2832 1.368 . S
H2817 C2825 0.950 . S
H2818 C2823 0.950 . S
H2819 C2824 0.949 . S
H2820 C2826 0.950 . S
H2821 C2827 0.950 . S
H2822 C2828 0.949 . S
C2823 H2818 0.950 . S
C2823 C2825 1.327 . S
C2823 C2829 1.429 . S
C2824 C2816 1.574 . S
C2824 H2819 0.949 . S
C2824 C2830 1.368 . S
C2825 C2809 1.349 . S
C2825 H2817 0.950 . S
C2825 C2823 1.327 . S
C2826 C2814 1.349 . S
C2826 H2820 0.950 . S
C2826 C2827 1.327 . S
C2827 H2821 0.950 . S
C2827 C2826 1.327 . S
C2827 C2831 1.429 . S
C2828 C2811 1.574 . S
C2828 H2822 0.949 . S
C2828 C2832 1.368 . S
C2829 C2810 1.429 . S
C2829 C2823 1.429 . S
C2829 C2830 1.523 . S
C2830 C2811 1.368 . S
C2830 C2824 1.368 . S
C2830 C2829 1.523 . S
C2831 C2815 1.429 . S
C2831 C2827 1.429 . S
C2831 C2832 1.523 . S
C2832 C2816 1.368 . S
C2832 C2828 1.368 . S
C2832 C2831 1.523 . S
H2833 C2808 0.950 . S
H2834 C2810 0.950 . S
H2835 C2811 0.949 . S
H2836 C2813 0.950 . S
H2837 C2815 0.950 . S
C2838 C2839 1.349 . S
C2838 C2840 1.327 . S
C2838 H2863 0.950 . S
C2839 C2838 1.349 . S
C2839 C2855 1.349 . S
C2840 C2838 1.327 . S
C2840 C2859 1.429 . S
C2840 H2864 0.950 . S
C2841 C2858 1.574 . S
C2841 C2860 1.368 . S
C2841 H2865 0.949 . S
H2842 C2846 0.949 . S
C2843 C2844 1.349 . S
C2843 C2845 1.327 . S
C2843 H2866 0.950 . S
C2844 C2843 1.349 . S
C2844 C2856 1.349 . S
C2845 C2843 1.327 . S
C2845 C2861 1.429 . S
C2845 H2867 0.950 . S
C2846 H2842 0.949 . S
C2846 C2854 1.574 . S
C2846 C2862 1.368 . S
H2847 C2855 0.950 . S
H2848 C2853 0.950 . S
H2849 C2854 0.949 . S
H2850 C2856 0.950 . S
H2851 C2857 0.950 . S
H2852 C2858 0.949 . S
C2853 H2848 0.950 . S
C2853 C2855 1.327 . S
C2853 C2859 1.429 . S
C2854 C2846 1.574 . S
C2854 H2849 0.949 . S
C2854 C2860 1.368 . S
C2855 C2839 1.349 . S
C2855 H2847 0.950 . S
C2855 C2853 1.327 . S
C2856 C2844 1.349 . S
C2856 H2850 0.950 . S
C2856 C2857 1.327 . S
C2857 H2851 0.950 . S
C2857 C2856 1.327 . S
C2857 C2861 1.429 . S
C2858 C2841 1.574 . S
C2858 H2852 0.949 . S
C2858 C2862 1.368 . S
C2859 C2840 1.429 . S
C2859 C2853 1.429 . S
C2859 C2860 1.523 . S
C2860 C2841 1.368 . S
C2860 C2854 1.368 . S
C2860 C2859 1.523 . S
C2861 C2845 1.429 . S
C2861 C2857 1.429 . S
C2861 C2862 1.523 . S
C2862 C2846 1.368 . S
C2862 C2858 1.368 . S
C2862 C2861 1.523 . S
H2863 C2838 0.950 . S
H2864 C2840 0.950 . S
H2865 C2841 0.949 . S
H2866 C2843 0.950 . S
H2867 C2845 0.950 . S
C2868 C2869 1.349 . S
C2868 C2870 1.327 . S
C2868 H2893 0.950 . S
C2869 C2868 1.349 . S
C2869 C2885 1.349 . S
C2870 C2868 1.327 . S
C2870 C2889 1.429 . S
C2870 H2894 0.950 . S
C2871 C2888 1.574 . S
C2871 C2890 1.368 . S
C2871 H2895 0.949 . S
H2872 C2876 0.949 . S
C2873 C2874 1.349 . S
C2873 C2875 1.327 . S
C2873 H2896 0.950 . S
C2874 C2873 1.349 . S
C2874 C2886 1.349 . S
C2875 C2873 1.327 . S
C2875 C2891 1.429 . S
C2875 H2897 0.950 . S
C2876 H2872 0.949 . S
C2876 C2884 1.574 . S
C2876 C2892 1.368 . S
H2877 C2885 0.950 . S
H2878 C2883 0.950 . S
H2879 C2884 0.949 . S
H2880 C2886 0.950 . S
H2881 C2887 0.950 . S
H2882 C2888 0.949 . S
C2883 H2878 0.950 . S
C2883 C2885 1.327 . S
C2883 C2889 1.429 . S
C2884 C2876 1.574 . S
C2884 H2879 0.949 . S
C2884 C2890 1.368 . S
C2885 C2869 1.349 . S
C2885 H2877 0.950 . S
C2885 C2883 1.327 . S
C2886 C2874 1.349 . S
C2886 H2880 0.950 . S
C2886 C2887 1.327 . S
C2887 H2881 0.950 . S
C2887 C2886 1.327 . S
C2887 C2891 1.429 . S
C2888 C2871 1.574 . S
C2888 H2882 0.949 . S
C2888 C2892 1.368 . S
C2889 C2870 1.429 . S
C2889 C2883 1.429 . S
C2889 C2890 1.523 . S
C2890 C2871 1.368 . S
C2890 C2884 1.368 . S
C2890 C2889 1.523 . S
C2891 C2875 1.429 . S
C2891 C2887 1.429 . S
C2891 C2892 1.523 . S
C2892 C2876 1.368 . S
C2892 C2888 1.368 . S
C2892 C2891 1.523 . S
H2893 C2868 0.950 . S
H2894 C2870 0.950 . S
H2895 C2871 0.949 . S
H2896 C2873 0.950 . S
H2897 C2875 0.950 . S
C2898 C2899 1.349 . S
C2898 C2900 1.327 . S
C2898 H2923 0.950 . S
C2899 C2898 1.349 . S
C2899 C2915 1.349 . S
C2900 C2898 1.327 . S
C2900 C2919 1.429 . S
C2900 H2924 0.950 . S
C2901 C2918 1.574 . S
C2901 C2920 1.368 . S
C2901 H2925 0.949 . S
H2902 C2906 0.949 . S
C2903 C2904 1.349 . S
C2903 C2905 1.327 . S
C2903 H2926 0.950 . S
C2904 C2903 1.349 . S
C2904 C2916 1.349 . S
C2905 C2903 1.327 . S
C2905 C2921 1.429 . S
C2905 H2927 0.950 . S
C2906 H2902 0.949 . S
C2906 C2914 1.574 . S
C2906 C2922 1.368 . S
H2907 C2915 0.950 . S
H2908 C2913 0.950 . S
H2909 C2914 0.949 . S
H2910 C2916 0.950 . S
H2911 C2917 0.950 . S
H2912 C2918 0.949 . S
C2913 H2908 0.950 . S
C2913 C2915 1.327 . S
C2913 C2919 1.429 . S
C2914 C2906 1.574 . S
C2914 H2909 0.949 . S
C2914 C2920 1.368 . S
C2915 C2899 1.349 . S
C2915 H2907 0.950 . S
C2915 C2913 1.327 . S
C2916 C2904 1.349 . S
C2916 H2910 0.950 . S
C2916 C2917 1.327 . S
C2917 H2911 0.950 . S
C2917 C2916 1.327 . S
C2917 C2921 1.429 . S
C2918 C2901 1.574 . S
C2918 H2912 0.949 . S
C2918 C2922 1.368 . S
C2919 C2900 1.429 . S
C2919 C2913 1.429 . S
C2919 C2920 1.523 . S
C2920 C2901 1.368 . S
C2920 C2914 1.368 . S
C2920 C2919 1.523 . S
C2921 C2905 1.429 . S
C2921 C2917 1.429 . S
C2921 C2922 1.523 . S
C2922 C2906 1.368 . S
C2922 C2918 1.368 . S
C2922 C2921 1.523 . S
H2923 C2898 0.950 . S
H2924 C2900 0.950 . S
H2925 C2901 0.949 . S
H2926 C2903 0.950 . S
H2927 C2905 0.950 . S
C2928 C2929 1.349 . S
C2928 C2930 1.327 . S
C2928 H2953 0.950 . S
C2929 C2928 1.349 . S
C2929 C2945 1.349 . S
C2930 C2928 1.327 . S
C2930 C2949 1.429 . S
C2930 H2954 0.950 . S
C2931 C2948 1.574 . S
C2931 C2950 1.368 . S
C2931 H2955 0.949 . S
H2932 C2936 0.949 . S
C2933 C2934 1.349 . S
C2933 C2935 1.327 . S
C2933 H2956 0.950 . S
C2934 C2933 1.349 . S
C2934 C2946 1.349 . S
C2935 C2933 1.327 . S
C2935 C2951 1.429 . S
C2935 H2957 0.950 . S
C2936 H2932 0.949 . S
C2936 C2944 1.574 . S
C2936 C2952 1.368 . S
H2937 C2945 0.950 . S
H2938 C2943 0.950 . S
H2939 C2944 0.949 . S
H2940 C2946 0.950 . S
H2941 C2947 0.950 . S
H2942 C2948 0.949 . S
C2943 H2938 0.950 . S
C2943 C2945 1.327 . S
C2943 C2949 1.429 . S
C2944 C2936 1.574 . S
C2944 H2939 0.949 . S
C2944 C2950 1.368 . S
C2945 C2929 1.349 . S
C2945 H2937 0.950 . S
C2945 C2943 1.327 . S
C2946 C2934 1.349 . S
C2946 H2940 0.950 . S
C2946 C2947 1.327 . S
C2947 H2941 0.950 . S
C2947 C2946 1.327 . S
C2947 C2951 1.429 . S
C2948 C2931 1.574 . S
C2948 H2942 0.949 . S
C2948 C2952 1.368 . S
C2949 C2930 1.429 . S
C2949 C2943 1.429 . S
C2949 C2950 1.523 . S
C2950 C2931 1.368 . S
C2950 C2944 1.368 . S
C2950 C2949 1.523 . S
C2951 C2935 1.429 . S
C2951 C2947 1.429 . S
C2951 C2952 1.523 . S
C2952 C2936 1.368 . S
C2952 C2948 1.368 . S
C2952 C2951 1.523 . S
H2953 C2928 0.950 . S
H2954 C2930 0.950 . S
H2955 C2931 0.949 . S
H2956 C2933 0.950 . S
H2957 C2935 0.950 . S
C2958 C2959 1.349 . S
C2958 C2960 1.327 . S
C2958 H2983 0.950 . S
C2959 C2958 1.349 . S
C2959 C2975 1.349 . S
C2960 C2958 1.327 . S
C2960 C2979 1.429 . S
C2960 H2984 0.950 . S
C2961 C2978 1.574 . S
C2961 C2980 1.368 . S
C2961 H2985 0.987 . S
H2962 C2966 0.949 . S
C2963 C2964 1.349 1_545 S
C2963 C2965 1.325 1_545 S
C2963 H2986 0.950 . S
C2964 C2963 1.349 1_565 S
C2964 C2976 1.349 . S
C2965 C2963 1.325 1_565 S
C2965 C2981 1.428 . S
C2965 H2987 0.953 1_565 S
C2966 H2962 0.949 . S
C2966 C2974 1.574 . S
C2966 C2982 1.368 . S
H2967 C2975 0.950 . S
H2968 C2973 0.950 . S
H2969 C2974 0.949 . S
H2970 C2976 0.950 . S
H2971 C2977 0.950 . S
H2972 C2978 0.949 1_545 S
C2973 H2968 0.950 . S
C2973 C2975 1.327 . S
C2973 C2979 1.429 . S
C2974 C2966 1.574 . S
C2974 H2969 0.949 . S
C2974 C2980 1.368 . S
C2975 C2959 1.349 . S
C2975 H2967 0.950 . S
C2975 C2973 1.327 . S
C2976 C2964 1.349 . S
C2976 H2970 0.950 . S
C2976 C2977 1.327 . S
C2977 H2971 0.950 . S
C2977 C2976 1.327 . S
C2977 C2981 1.429 . S
C2978 C2961 1.574 . S
C2978 H2972 0.949 1_565 S
C2978 C2982 1.368 . S
C2979 C2960 1.429 . S
C2979 C2973 1.429 . S
C2979 C2980 1.523 . S
C2980 C2961 1.368 . S
C2980 C2974 1.368 . S
C2980 C2979 1.523 . S
C2981 C2965 1.428 . S
C2981 C2977 1.429 . S
C2981 C2982 1.523 . S
C2982 C2966 1.368 . S
C2982 C2978 1.368 . S
C2982 C2981 1.523 . S
H2983 C2958 0.950 . S
H2984 C2960 0.950 . S
H2985 C2961 0.987 . S
H2986 C2963 0.950 . S
H2987 C2965 0.953 1_545 S
C2988 C2989 1.349 . S
C2988 C2990 1.327 . S
C2988 H3013 0.950 . S
C2989 C2988 1.349 . S
C2989 C3005 1.349 . S
C2990 C2988 1.327 . S
C2990 C3009 1.429 . S
C2990 H3014 0.950 . S
C2991 C3008 1.574 . S
C2991 C3010 1.368 . S
C2991 H3015 0.949 1_565 S
H2992 C2996 0.949 . S
C2993 C2994 1.349 1_545 S
C2993 C2995 1.327 . S
C2993 H3016 0.950 . S
C2994 C2993 1.349 1_565 S
C2994 C3006 1.349 . S
C2995 C2993 1.327 . S
C2995 C3011 1.429 1_545 S
C2995 H3017 0.950 . S
C2996 H2992 0.949 . S
C2996 C3004 1.574 . S
C2996 C3012 1.368 . S
H2997 C3005 0.950 . S
H2998 C3003 0.942 . S
H2999 C3004 0.949 . S
H3000 C3006 0.950 . S
H3001 C3007 0.950 . S
H3002 C3008 0.949 1_545 S
C3003 H2998 0.942 . S
C3003 C3005 1.327 . S
C3003 C3009 1.429 . S
C3004 C2996 1.574 . S
C3004 H2999 0.949 . S
C3004 C3010 1.368 . S
C3005 C2989 1.349 . S
C3005 H2997 0.950 . S
C3005 C3003 1.327 . S
C3006 C2994 1.349 . S
C3006 H3000 0.950 . S
C3006 C3007 1.327 . S
C3007 H3001 0.950 . S
C3007 C3006 1.327 . S
C3007 C3011 1.429 . S
C3008 C2991 1.574 . S
C3008 H3002 0.949 1_565 S
C3008 C3012 1.368 . S
C3009 C2990 1.429 . S
C3009 C3003 1.429 . S
C3009 C3010 1.523 . S
C3010 C2991 1.368 . S
C3010 C3004 1.368 . S
C3010 C3009 1.523 . S
C3011 C2995 1.429 1_565 S
C3011 C3007 1.429 . S
C3011 C3012 1.523 . S
C3012 C2996 1.368 . S
C3012 C3008 1.368 . S
C3012 C3011 1.523 . S
H3013 C2988 0.950 . S
H3014 C2990 0.950 . S
H3015 C2991 0.949 1_545 S
H3016 C2993 0.950 . S
H3017 C2995 0.950 . S
C3018 C3019 1.349 . S
C3018 C3020 1.327 . S
C3018 H3043 0.950 . S
C3019 C3018 1.349 . S
C3019 C3035 1.349 . S
C3020 C3018 1.327 . S
C3020 C3039 1.429 . S
C3020 H3044 0.950 . S
C3021 C3038 1.574 . S
C3021 C3040 1.368 . S
C3021 H3045 0.949 . S
H3022 C3026 0.949 1_655 S
C3023 C3024 1.349 . S
C3023 C3025 1.327 . S
C3023 H3046 0.950 . S
C3024 C3023 1.349 . S
C3024 C3036 1.349 1_455 S
C3025 C3023 1.327 . S
C3025 C3041 1.429 . S
C3025 H3047 0.950 . S
C3026 H3022 0.949 1_455 S
C3026 C3034 1.574 . S
C3026 C3042 1.368 . S
H3027 C3035 0.950 . S
H3028 C3033 0.950 . S
H3029 C3034 0.947 . S
H3030 C3036 0.950 . S
H3031 C3037 0.977 . S
H3032 C3038 0.949 . S
C3033 H3028 0.950 . S
C3033 C3035 1.327 . S
C3033 C3039 1.429 . S
C3034 C3026 1.574 . S
C3034 H3029 0.947 . S
C3034 C3040 1.368 . S
C3035 C3019 1.349 . S
C3035 H3027 0.950 . S
C3035 C3033 1.327 . S
C3036 C3024 1.349 1_655 S
C3036 H3030 0.950 . S
C3036 C3037 1.310 . S
C3037 H3031 0.977 . S
C3037 C3036 1.310 . S
C3037 C3041 1.421 1_655 S
C3038 C3021 1.574 . S
C3038 H3032 0.949 . S
C3038 C3042 1.368 . S
C3039 C3020 1.429 . S
C3039 C3033 1.429 . S
C3039 C3040 1.523 . S
C3040 C3021 1.368 . S
C3040 C3034 1.368 . S
C3040 C3039 1.523 . S
C3041 C3025 1.429 . S
C3041 C3037 1.421 1_455 S
C3041 C3042 1.523 . S
C3042 C3026 1.368 . S
C3042 C3038 1.368 . S
C3042 C3041 1.523 . S
H3043 C3018 0.950 . S
H3044 C3020 0.950 . S
H3045 C3021 0.949 . S
H3046 C3023 0.950 . S
H3047 C3025 0.950 . S
C3048 C3049 1.349 . S
C3048 C3050 1.327 . S
C3048 H3073 0.950 . S
C3049 C3048 1.349 . S
C3049 C3065 1.349 . S
C3050 C3048 1.327 . S
C3050 C3069 1.429 . S
C3050 H3074 0.950 . S
C3051 C3068 1.574 . S
C3051 C3070 1.368 . S
C3051 H3075 0.949 . S
H3052 C3056 0.949 . S
C3053 C3054 1.349 . S
C3053 C3055 1.327 . S
C3053 H3076 0.950 . S
C3054 C3053 1.349 . S
C3054 C3066 1.349 . S
C3055 C3053 1.327 . S
C3055 C3071 1.429 . S
C3055 H3077 0.950 . S
C3056 H3052 0.949 . S
C3056 C3064 1.574 . S
C3056 C3072 1.368 . S
H3057 C3065 0.950 . S
H3058 C3063 0.950 . S
H3059 C3064 0.949 . S
H3060 C3066 0.950 . S
H3061 C3067 0.950 . S
H3062 C3068 0.949 . S
C3063 H3058 0.950 . S
C3063 C3065 1.327 . S
C3063 C3069 1.429 . S
C3064 C3056 1.574 . S
C3064 H3059 0.949 . S
C3064 C3070 1.368 . S
C3065 C3049 1.349 . S
C3065 H3057 0.950 . S
C3065 C3063 1.327 . S
C3066 C3054 1.349 . S
C3066 H3060 0.950 . S
C3066 C3067 1.327 . S
C3067 H3061 0.950 . S
C3067 C3066 1.327 . S
C3067 C3071 1.429 . S
C3068 C3051 1.574 . S
C3068 H3062 0.949 . S
C3068 C3072 1.368 . S
C3069 C3050 1.429 . S
C3069 C3063 1.429 . S
C3069 C3070 1.523 . S
C3070 C3051 1.368 . S
C3070 C3064 1.368 . S
C3070 C3069 1.523 . S
C3071 C3055 1.429 . S
C3071 C3067 1.429 . S
C3071 C3072 1.523 . S
C3072 C3056 1.368 . S
C3072 C3068 1.368 . S
C3072 C3071 1.523 . S
H3073 C3048 0.950 . S
H3074 C3050 0.950 . S
H3075 C3051 0.949 . S
H3076 C3053 0.950 . S
H3077 C3055 0.950 . S
C3078 C3079 1.349 . S
C3078 C3080 1.327 . S
C3078 H3103 0.950 . S
C3079 C3078 1.349 . S
C3079 C3095 1.349 . S
C3080 C3078 1.327 . S
C3080 C3099 1.429 . S
C3080 H3104 0.950 . S
C3081 C3098 1.574 . S
C3081 C3100 1.368 . S
C3081 H3105 0.949 . S
H3082 C3086 0.949 . S
C3083 C3084 1.349 . S
C3083 C3085 1.327 . S
C3083 H3106 0.950 . S
C3084 C3083 1.349 . S
C3084 C3096 1.349 . S
C3085 C3083 1.327 . S
C3085 C3101 1.429 . S
C3085 H3107 0.950 . S
C3086 H3082 0.949 . S
C3086 C3094 1.574 . S
C3086 C3102 1.368 . S
H3087 C3095 0.950 . S
H3088 C3093 0.950 . S
H3089 C3094 0.949 . S
H3090 C3096 0.950 . S
H3091 C3097 0.950 . S
H3092 C3098 0.949 . S
C3093 H3088 0.950 . S
C3093 C3095 1.327 . S
C3093 C3099 1.429 . S
C3094 C3086 1.574 . S
C3094 H3089 0.949 . S
C3094 C3100 1.368 . S
C3095 C3079 1.349 . S
C3095 H3087 0.950 . S
C3095 C3093 1.327 . S
C3096 C3084 1.349 . S
C3096 H3090 0.950 . S
C3096 C3097 1.327 . S
C3097 H3091 0.950 . S
C3097 C3096 1.327 . S
C3097 C3101 1.429 . S
C3098 C3081 1.574 . S
C3098 H3092 0.949 . S
C3098 C3102 1.368 . S
C3099 C3080 1.429 . S
C3099 C3093 1.429 . S
C3099 C3100 1.523 . S
C3100 C3081 1.368 . S
C3100 C3094 1.368 . S
C3100 C3099 1.523 . S
C3101 C3085 1.429 . S
C3101 C3097 1.429 . S
C3101 C3102 1.523 . S
C3102 C3086 1.368 . S
C3102 C3098 1.368 . S
C3102 C3101 1.523 . S
H3103 C3078 0.950 . S
H3104 C3080 0.950 . S
H3105 C3081 0.949 . S
H3106 C3083 0.950 . S
H3107 C3085 0.950 . S
C3108 C3109 1.349 . S
C3108 C3110 1.327 . S
C3108 H3133 0.950 . S
C3109 C3108 1.349 . S
C3109 C3125 1.349 . S
C3110 C3108 1.327 . S
C3110 C3129 1.429 . S
C3110 H3134 0.950 . S
C3111 C3128 1.574 . S
C3111 C3130 1.368 . S
C3111 H3135 0.949 . S
H3112 C3116 0.949 . S
C3113 C3114 1.349 . S
C3113 C3115 1.327 . S
C3113 H3136 0.950 . S
C3114 C3113 1.349 . S
C3114 C3126 1.349 . S
C3115 C3113 1.327 . S
C3115 C3131 1.429 . S
C3115 H3137 0.950 . S
C3116 H3112 0.949 . S
C3116 C3124 1.574 . S
C3116 C3132 1.368 . S
H3117 C3125 0.950 . S
H3118 C3123 0.950 . S
H3119 C3124 0.949 . S
H3120 C3126 0.950 . S
H3121 C3127 0.950 . S
H3122 C3128 0.949 . S
C3123 H3118 0.950 . S
C3123 C3125 1.327 . S
C3123 C3129 1.429 . S
C3124 C3116 1.574 . S
C3124 H3119 0.949 . S
C3124 C3130 1.368 . S
C3125 C3109 1.349 . S
C3125 H3117 0.950 . S
C3125 C3123 1.327 . S
C3126 C3114 1.349 . S
C3126 H3120 0.950 . S
C3126 C3127 1.327 . S
C3127 H3121 0.950 . S
C3127 C3126 1.327 . S
C3127 C3131 1.429 . S
C3128 C3111 1.574 . S
C3128 H3122 0.949 . S
C3128 C3132 1.368 . S
C3129 C3110 1.429 . S
C3129 C3123 1.429 . S
C3129 C3130 1.523 . S
C3130 C3111 1.368 . S
C3130 C3124 1.368 . S
C3130 C3129 1.523 . S
C3131 C3115 1.429 . S
C3131 C3127 1.429 . S
C3131 C3132 1.523 . S
C3132 C3116 1.368 . S
C3132 C3128 1.368 . S
C3132 C3131 1.523 . S
H3133 C3108 0.950 . S
H3134 C3110 0.950 . S
H3135 C3111 0.949 . S
H3136 C3113 0.950 . S
H3137 C3115 0.950 . S
C3138 C3139 1.349 . S
C3138 C3140 1.327 . S
C3138 H3163 0.950 . S
C3139 C3138 1.349 . S
C3139 C3155 1.349 . S
C3140 C3138 1.327 . S
C3140 C3159 1.429 . S
C3140 H3164 0.950 . S
C3141 C3158 1.574 . S
C3141 C3160 1.368 . S
C3141 H3165 0.949 . S
H3142 C3146 0.949 . S
C3143 C3144 1.349 . S
C3143 C3145 1.327 . S
C3143 H3166 0.950 . S
C3144 C3143 1.349 . S
C3144 C3156 1.349 . S
C3145 C3143 1.327 . S
C3145 C3161 1.429 . S
C3145 H3167 0.950 . S
C3146 H3142 0.949 . S
C3146 C3154 1.574 . S
C3146 C3162 1.368 . S
H3147 C3155 0.950 . S
H3148 C3153 0.950 . S
H3149 C3154 0.949 . S
H3150 C3156 0.950 . S
H3151 C3157 0.950 . S
H3152 C3158 0.949 . S
C3153 H3148 0.950 . S
C3153 C3155 1.327 . S
C3153 C3159 1.429 . S
C3154 C3146 1.574 . S
C3154 H3149 0.949 . S
C3154 C3160 1.368 . S
C3155 C3139 1.349 . S
C3155 H3147 0.950 . S
C3155 C3153 1.327 . S
C3156 C3144 1.349 . S
C3156 H3150 0.950 . S
C3156 C3157 1.327 . S
C3157 H3151 0.950 . S
C3157 C3156 1.327 . S
C3157 C3161 1.429 . S
C3158 C3141 1.574 . S
C3158 H3152 0.949 . S
C3158 C3162 1.368 . S
C3159 C3140 1.429 . S
C3159 C3153 1.429 . S
C3159 C3160 1.523 . S
C3160 C3141 1.368 . S
C3160 C3154 1.368 . S
C3160 C3159 1.523 . S
C3161 C3145 1.429 . S
C3161 C3157 1.429 . S
C3161 C3162 1.523 . S
C3162 C3146 1.368 . S
C3162 C3158 1.368 . S
C3162 C3161 1.523 . S
H3163 C3138 0.950 . S
H3164 C3140 0.950 . S
H3165 C3141 0.949 . S
H3166 C3143 0.950 . S
H3167 C3145 0.950 . S
C3168 C3169 1.349 . S
C3168 C3170 1.327 . S
C3168 H3193 0.950 . S
C3169 C3168 1.349 . S
C3169 C3185 1.349 . S
C3170 C3168 1.327 . S
C3170 C3189 1.429 . S
C3170 H3194 0.950 . S
C3171 C3188 1.574 . S
C3171 C3190 1.368 . S
C3171 H3195 0.974 . S
H3172 C3176 0.949 . S
C3173 C3174 1.349 1_565 S
C3173 C3175 1.322 1_565 S
C3173 H3196 0.950 . S
C3174 C3173 1.349 1_545 S
C3174 C3186 1.349 . S
C3175 C3173 1.322 1_545 S
C3175 C3191 1.436 . S
C3175 H3197 0.947 1_545 S
C3176 H3172 0.949 . S
C3176 C3184 1.574 . S
C3176 C3192 1.368 . S
H3177 C3185 0.950 . S
H3178 C3183 0.950 . S
H3179 C3184 0.949 . S
H3180 C3186 0.950 . S
H3181 C3187 0.950 . S
H3182 C3188 0.949 1_565 S
C3183 H3178 0.950 . S
C3183 C3185 1.327 . S
C3183 C3189 1.429 . S
C3184 C3176 1.574 . S
C3184 H3179 0.949 . S
C3184 C3190 1.368 . S
C3185 C3169 1.349 . S
C3185 H3177 0.950 . S
C3185 C3183 1.327 . S
C3186 C3174 1.349 . S
C3186 H3180 0.950 . S
C3186 C3187 1.327 . S
C3187 H3181 0.950 . S
C3187 C3186 1.327 . S
C3187 C3191 1.429 . S
C3188 C3171 1.574 . S
C3188 H3182 0.949 1_545 S
C3188 C3192 1.368 . S
C3189 C3170 1.429 . S
C3189 C3183 1.429 . S
C3189 C3190 1.523 . S
C3190 C3171 1.368 . S
C3190 C3184 1.368 . S
C3190 C3189 1.523 . S
C3191 C3175 1.436 . S
C3191 C3187 1.429 . S
C3191 C3192 1.523 . S
C3192 C3176 1.368 . S
C3192 C3188 1.368 . S
C3192 C3191 1.523 . S
H3193 C3168 0.950 . S
H3194 C3170 0.950 . S
H3195 C3171 0.974 . S
H3196 C3173 0.950 . S
H3197 C3175 0.947 1_565 S
C3198 C3199 1.349 . S
C3198 C3200 1.327 . S
C3198 H3223 0.950 . S
C3199 C3198 1.349 . S
C3199 C3215 1.349 . S
C3200 C3198 1.327 . S
C3200 C3219 1.429 . S
C3200 H3224 0.950 . S
C3201 C3218 1.574 . S
C3201 C3220 1.368 . S
C3201 H3225 0.949 . S
H3202 C3206 0.949 . S
C3203 C3204 1.349 . S
C3203 C3205 1.327 . S
C3203 H3226 0.950 . S
C3204 C3203 1.349 . S
C3204 C3216 1.349 . S
C3205 C3203 1.327 . S
C3205 C3221 1.429 . S
C3205 H3227 0.950 . S
C3206 H3202 0.949 . S
C3206 C3214 1.574 . S
C3206 C3222 1.368 . S
H3207 C3215 0.950 . S
H3208 C3213 0.950 . S
H3209 C3214 0.949 . S
H3210 C3216 0.950 . S
H3211 C3217 0.950 . S
H3212 C3218 0.949 . S
C3213 H3208 0.950 . S
C3213 C3215 1.327 . S
C3213 C3219 1.429 . S
C3214 C3206 1.574 . S
C3214 H3209 0.949 . S
C3214 C3220 1.368 . S
C3215 C3199 1.349 . S
C3215 H3207 0.950 . S
C3215 C3213 1.327 . S
C3216 C3204 1.349 . S
C3216 H3210 0.950 . S
C3216 C3217 1.327 . S
C3217 H3211 0.950 . S
C3217 C3216 1.327 . S
C3217 C3221 1.429 . S
C3218 C3201 1.574 . S
C3218 H3212 0.949 . S
C3218 C3222 1.368 . S
C3219 C3200 1.429 . S
C3219 C3213 1.429 . S
C3219 C3220 1.523 . S
C3220 C3201 1.368 . S
C3220 C3214 1.368 . S
C3220 C3219 1.523 . S
C3221 C3205 1.429 . S
C3221 C3217 1.429 . S
C3221 C3222 1.523 . S
C3222 C3206 1.368 . S
C3222 C3218 1.368 . S
C3222 C3221 1.523 . S
H3223 C3198 0.950 . S
H3224 C3200 0.950 . S
H3225 C3201 0.949 . S
H3226 C3203 0.950 . S
H3227 C3205 0.950 . S
C3228 C3229 1.349 . S
C3228 C3230 1.327 . S
C3228 H3253 0.950 . S
C3229 C3228 1.349 . S
C3229 C3245 1.349 . S
C3230 C3228 1.327 . S
C3230 C3249 1.429 . S
C3230 H3254 0.950 . S
C3231 C3248 1.574 . S
C3231 C3250 1.368 . S
C3231 H3255 0.949 . S
H3232 C3236 0.949 . S
C3233 C3234 1.349 . S
C3233 C3235 1.327 . S
C3233 H3256 0.950 . S
C3234 C3233 1.349 . S
C3234 C3246 1.349 . S
C3235 C3233 1.327 . S
C3235 C3251 1.429 . S
C3235 H3257 0.950 . S
C3236 H3232 0.949 . S
C3236 C3244 1.574 . S
C3236 C3252 1.368 . S
H3237 C3245 0.950 . S
H3238 C3243 0.950 . S
H3239 C3244 0.949 . S
H3240 C3246 0.950 . S
H3241 C3247 0.950 . S
H3242 C3248 0.949 . S
C3243 H3238 0.950 . S
C3243 C3245 1.327 . S
C3243 C3249 1.429 . S
C3244 C3236 1.574 . S
C3244 H3239 0.949 . S
C3244 C3250 1.368 . S
C3245 C3229 1.349 . S
C3245 H3237 0.950 . S
C3245 C3243 1.327 . S
C3246 C3234 1.349 . S
C3246 H3240 0.950 . S
C3246 C3247 1.327 . S
C3247 H3241 0.950 . S
C3247 C3246 1.327 . S
C3247 C3251 1.429 . S
C3248 C3231 1.574 . S
C3248 H3242 0.949 . S
C3248 C3252 1.368 . S
C3249 C3230 1.429 . S
C3249 C3243 1.429 . S
C3249 C3250 1.523 . S
C3250 C3231 1.368 . S
C3250 C3244 1.368 . S
C3250 C3249 1.523 . S
C3251 C3235 1.429 . S
C3251 C3247 1.429 . S
C3251 C3252 1.523 . S
C3252 C3236 1.368 . S
C3252 C3248 1.368 . S
C3252 C3251 1.523 . S
H3253 C3228 0.950 . S
H3254 C3230 0.950 . S
H3255 C3231 0.949 . S
H3256 C3233 0.950 . S
H3257 C3235 0.950 . S
C3258 C3259 1.349 . S
C3258 C3260 1.327 . S
C3258 H3283 0.950 . S
C3259 C3258 1.349 . S
C3259 C3275 1.349 . S
C3260 C3258 1.327 . S
C3260 C3279 1.429 . S
C3260 H3284 0.950 . S
C3261 C3278 1.574 . S
C3261 C3280 1.368 . S
C3261 H3285 0.949 . S
H3262 C3266 0.949 . S
C3263 C3264 1.349 . S
C3263 C3265 1.327 . S
C3263 H3286 0.950 . S
C3264 C3263 1.349 . S
C3264 C3276 1.349 . S
C3265 C3263 1.327 . S
C3265 C3281 1.429 . S
C3265 H3287 0.950 . S
C3266 H3262 0.949 . S
C3266 C3274 1.574 . S
C3266 C3282 1.368 . S
H3267 C3275 0.950 . S
H3268 C3273 0.950 . S
H3269 C3274 0.949 . S
H3270 C3276 0.950 . S
H3271 C3277 0.950 . S
H3272 C3278 0.949 . S
C3273 H3268 0.950 . S
C3273 C3275 1.327 . S
C3273 C3279 1.429 . S
C3274 C3266 1.574 . S
C3274 H3269 0.949 . S
C3274 C3280 1.368 . S
C3275 C3259 1.349 . S
C3275 H3267 0.950 . S
C3275 C3273 1.327 . S
C3276 C3264 1.349 . S
C3276 H3270 0.950 . S
C3276 C3277 1.327 . S
C3277 H3271 0.950 . S
C3277 C3276 1.327 . S
C3277 C3281 1.429 . S
C3278 C3261 1.574 . S
C3278 H3272 0.949 . S
C3278 C3282 1.368 . S
C3279 C3260 1.429 . S
C3279 C3273 1.429 . S
C3279 C3280 1.523 . S
C3280 C3261 1.368 . S
C3280 C3274 1.368 . S
C3280 C3279 1.523 . S
C3281 C3265 1.429 . S
C3281 C3277 1.429 . S
C3281 C3282 1.523 . S
C3282 C3266 1.368 . S
C3282 C3278 1.368 . S
C3282 C3281 1.523 . S
H3283 C3258 0.950 . S
H3284 C3260 0.950 . S
H3285 C3261 0.949 . S
H3286 C3263 0.950 . S
H3287 C3265 0.950 . S
C3288 C3289 1.349 . S
C3288 C3290 1.327 . S
C3288 H3313 0.950 . S
C3289 C3288 1.349 . S
C3289 C3305 1.349 . S
C3290 C3288 1.327 . S
C3290 C3309 1.429 . S
C3290 H3314 0.950 . S
C3291 C3308 1.574 . S
C3291 C3310 1.368 . S
C3291 H3315 0.949 . S
H3292 C3296 0.949 . S
C3293 C3294 1.349 . S
C3293 C3295 1.327 . S
C3293 H3316 0.950 . S
C3294 C3293 1.349 . S
C3294 C3306 1.349 . S
C3295 C3293 1.327 . S
C3295 C3311 1.429 . S
C3295 H3317 0.950 . S
C3296 H3292 0.949 . S
C3296 C3304 1.574 . S
C3296 C3312 1.368 . S
H3297 C3305 0.950 . S
H3298 C3303 0.950 . S
H3299 C3304 0.949 . S
H3300 C3306 0.950 . S
H3301 C3307 0.950 . S
H3302 C3308 0.949 . S
C3303 H3298 0.950 . S
C3303 C3305 1.327 . S
C3303 C3309 1.429 . S
C3304 C3296 1.574 . S
C3304 H3299 0.949 . S
C3304 C3310 1.368 . S
C3305 C3289 1.349 . S
C3305 H3297 0.950 . S
C3305 C3303 1.327 . S
C3306 C3294 1.349 . S
C3306 H3300 0.950 . S
C3306 C3307 1.327 . S
C3307 H3301 0.950 . S
C3307 C3306 1.327 . S
C3307 C3311 1.429 . S
C3308 C3291 1.574 . S
C3308 H3302 0.949 . S
C3308 C3312 1.368 . S
C3309 C3290 1.429 . S
C3309 C3303 1.429 . S
C3309 C3310 1.523 . S
C3310 C3291 1.368 . S
C3310 C3304 1.368 . S
C3310 C3309 1.523 . S
C3311 C3295 1.429 . S
C3311 C3307 1.429 . S
C3311 C3312 1.523 . S
C3312 C3296 1.368 . S
C3312 C3308 1.368 . S
C3312 C3311 1.523 . S
H3313 C3288 0.950 . S
H3314 C3290 0.950 . S
H3315 C3291 0.949 . S
H3316 C3293 0.950 . S
H3317 C3295 0.950 . S
C3318 C3319 1.349 . S
C3318 C3320 1.327 . S
C3318 H3343 0.950 . S
C3319 C3318 1.349 . S
C3319 C3335 1.349 . S
C3320 C3318 1.327 . S
C3320 C3339 1.429 . S
C3320 H3344 0.950 . S
C3321 C3338 1.574 . S
C3321 C3340 1.368 . S
C3321 H3345 0.949 . S
H3322 C3326 0.949 . S
C3323 C3324 1.349 . S
C3323 C3325 1.327 . S
C3323 H3346 0.950 . S
C3324 C3323 1.349 . S
C3324 C3336 1.349 . S
C3325 C3323 1.327 . S
C3325 C3341 1.429 . S
C3325 H3347 0.950 . S
C3326 H3322 0.949 . S
C3326 C3334 1.574 . S
C3326 C3342 1.368 . S
H3327 C3335 0.950 . S
H3328 C3333 0.950 . S
H3329 C3334 0.949 . S
H3330 C3336 0.950 . S
H3331 C3337 0.950 . S
H3332 C3338 0.949 . S
C3333 H3328 0.950 . S
C3333 C3335 1.327 . S
C3333 C3339 1.429 . S
C3334 C3326 1.574 . S
C3334 H3329 0.949 . S
C3334 C3340 1.368 . S
C3335 C3319 1.349 . S
C3335 H3327 0.950 . S
C3335 C3333 1.327 . S
C3336 C3324 1.349 . S
C3336 H3330 0.950 . S
C3336 C3337 1.327 . S
C3337 H3331 0.950 . S
C3337 C3336 1.327 . S
C3337 C3341 1.429 . S
C3338 C3321 1.574 . S
C3338 H3332 0.949 . S
C3338 C3342 1.368 . S
C3339 C3320 1.429 . S
C3339 C3333 1.429 . S
C3339 C3340 1.523 . S
C3340 C3321 1.368 . S
C3340 C3334 1.368 . S
C3340 C3339 1.523 . S
C3341 C3325 1.429 . S
C3341 C3337 1.429 . S
C3341 C3342 1.523 . S
C3342 C3326 1.368 . S
C3342 C3338 1.368 . S
C3342 C3341 1.523 . S
H3343 C3318 0.950 . S
H3344 C3320 0.950 . S
H3345 C3321 0.949 . S
H3346 C3323 0.950 . S
H3347 C3325 0.950 . S
C3348 C3349 1.349 . S
C3348 C3350 1.327 . S
C3348 H3373 0.950 . S
C3349 C3348 1.349 . S
C3349 C3365 1.349 . S
C3350 C3348 1.327 . S
C3350 C3369 1.429 . S
C3350 H3374 0.950 . S
C3351 C3368 1.574 . S
C3351 C3370 1.368 . S
C3351 H3375 0.949 . S
H3352 C3356 0.949 . S
C3353 C3354 1.349 . S
C3353 C3355 1.327 . S
C3353 H3376 0.950 . S
C3354 C3353 1.349 . S
C3354 C3366 1.349 . S
C3355 C3353 1.327 . S
C3355 C3371 1.429 . S
C3355 H3377 0.950 . S
C3356 H3352 0.949 . S
C3356 C3364 1.574 . S
C3356 C3372 1.368 . S
H3357 C3365 0.950 . S
H3358 C3363 0.950 . S
H3359 C3364 0.949 . S
H3360 C3366 0.950 . S
H3361 C3367 0.950 . S
H3362 C3368 0.949 . S
C3363 H3358 0.950 . S
C3363 C3365 1.327 . S
C3363 C3369 1.429 . S
C3364 C3356 1.574 . S
C3364 H3359 0.949 . S
C3364 C3370 1.368 . S
C3365 C3349 1.349 . S
C3365 H3357 0.950 . S
C3365 C3363 1.327 . S
C3366 C3354 1.349 . S
C3366 H3360 0.950 . S
C3366 C3367 1.327 . S
C3367 H3361 0.950 . S
C3367 C3366 1.327 . S
C3367 C3371 1.429 . S
C3368 C3351 1.574 . S
C3368 H3362 0.949 . S
C3368 C3372 1.368 . S
C3369 C3350 1.429 . S
C3369 C3363 1.429 . S
C3369 C3370 1.523 . S
C3370 C3351 1.368 . S
C3370 C3364 1.368 . S
C3370 C3369 1.523 . S
C3371 C3355 1.429 . S
C3371 C3367 1.429 . S
C3371 C3372 1.523 . S
C3372 C3356 1.368 . S
C3372 C3368 1.368 . S
C3372 C3371 1.523 . S
H3373 C3348 0.950 . S
H3374 C3350 0.950 . S
H3375 C3351 0.949 . S
H3376 C3353 0.950 . S
H3377 C3355 0.950 . S
C3378 C3379 1.349 . S
C3378 C3380 1.327 . S
C3378 H3403 0.950 . S
C3379 C3378 1.349 . S
C3379 C3395 1.349 . S
C3380 C3378 1.327 . S
C3380 C3399 1.429 . S
C3380 H3404 0.950 . S
C3381 C3398 1.574 . S
C3381 C3400 1.368 . S
C3381 H3405 0.949 . S
H3382 C3386 0.949 . S
C3383 C3384 1.349 . S
C3383 C3385 1.327 . S
C3383 H3406 0.950 . S
C3384 C3383 1.349 . S
C3384 C3396 1.349 . S
C3385 C3383 1.327 . S
C3385 C3401 1.429 . S
C3385 H3407 0.950 . S
C3386 H3382 0.949 . S
C3386 C3394 1.574 . S
C3386 C3402 1.368 . S
H3387 C3395 0.958 . S
H3388 C3393 0.950 . S
H3389 C3394 0.949 . S
H3390 C3396 0.950 . S
H3391 C3397 0.950 . S
H3392 C3398 0.949 . S
C3393 H3388 0.950 . S
C3393 C3395 1.327 . S
C3393 C3399 1.429 . S
C3394 C3386 1.574 . S
C3394 H3389 0.949 . S
C3394 C3400 1.368 . S
C3395 C3379 1.349 . S
C3395 H3387 0.958 . S
C3395 C3393 1.327 . S
C3396 C3384 1.349 . S
C3396 H3390 0.950 . S
C3396 C3397 1.327 . S
C3397 H3391 0.950 . S
C3397 C3396 1.327 . S
C3397 C3401 1.429 . S
C3398 C3381 1.574 . S
C3398 H3392 0.949 . S
C3398 C3402 1.368 . S
C3399 C3380 1.429 . S
C3399 C3393 1.429 . S
C3399 C3400 1.523 . S
C3400 C3381 1.368 . S
C3400 C3394 1.368 . S
C3400 C3399 1.523 . S
C3401 C3385 1.429 . S
C3401 C3397 1.429 . S
C3401 C3402 1.523 . S
C3402 C3386 1.368 . S
C3402 C3398 1.368 . S
C3402 C3401 1.523 . S
H3403 C3378 0.950 . S
H3404 C3380 0.950 . S
H3405 C3381 0.949 . S
H3406 C3383 0.950 . S
H3407 C3385 0.950 . S
C3408 C3409 1.349 . S
C3408 C3410 1.327 . S
C3408 H3433 0.950 . S
C3409 C3408 1.349 . S
C3409 C3425 1.349 . S
C3410 C3408 1.327 . S
C3410 C3429 1.429 . S
C3410 H3434 0.950 . S
C3411 C3428 1.574 . S
C3411 C3430 1.368 . S
C3411 H3435 0.949 . S
H3412 C3416 0.949 . S
C3413 C3414 1.349 . S
C3413 C3415 1.327 . S
C3413 H3436 0.950 . S
C3414 C3413 1.349 . S
C3414 C3426 1.349 . S
C3415 C3413 1.327 . S
C3415 C3431 1.429 . S
C3415 H3437 0.950 . S
C3416 H3412 0.949 . S
C3416 C3424 1.574 . S
C3416 C3432 1.368 . S
H3417 C3425 0.979 . S
H3418 C3423 0.950 . S
H3419 C3424 0.949 . S
H3420 C3426 0.950 . S
H3421 C3427 0.950 . S
H3422 C3428 0.949 . S
C3423 H3418 0.950 . S
C3423 C3425 1.327 . S
C3423 C3429 1.429 . S
C3424 C3416 1.574 . S
C3424 H3419 0.949 . S
C3424 C3430 1.368 . S
C3425 C3409 1.349 . S
C3425 H3417 0.979 . S
C3425 C3423 1.327 . S
C3426 C3414 1.349 . S
C3426 H3420 0.950 . S
C3426 C3427 1.327 . S
C3427 H3421 0.950 . S
C3427 C3426 1.327 . S
C3427 C3431 1.429 . S
C3428 C3411 1.574 . S
C3428 H3422 0.949 . S
C3428 C3432 1.368 . S
C3429 C3410 1.429 . S
C3429 C3423 1.429 . S
C3429 C3430 1.523 . S
C3430 C3411 1.368 . S
C3430 C3424 1.368 . S
C3430 C3429 1.523 . S
C3431 C3415 1.429 . S
C3431 C3427 1.429 . S
C3431 C3432 1.523 . S
C3432 C3416 1.368 . S
C3432 C3428 1.368 . S
C3432 C3431 1.523 . S
H3433 C3408 0.950 . S
H3434 C3410 0.950 . S
H3435 C3411 0.949 . S
H3436 C3413 0.950 . S
H3437 C3415 0.950 . S
C3438 C3439 1.349 . S
C3438 C3440 1.327 . S
C3438 H3463 0.950 . S
C3439 C3438 1.349 . S
C3439 C3455 1.349 . S
C3440 C3438 1.327 . S
C3440 C3459 1.429 . S
C3440 H3464 0.950 . S
C3441 C3458 1.574 . S
C3441 C3460 1.368 . S
C3441 H3465 0.949 . S
H3442 C3446 0.949 . S
C3443 C3444 1.349 . S
C3443 C3445 1.327 . S
C3443 H3466 0.950 1_655 S
C3444 C3443 1.349 . S
C3444 C3456 1.349 . S
C3445 C3443 1.327 . S
C3445 C3461 1.429 . S
C3445 H3467 0.952 . S
C3446 H3442 0.949 . S
C3446 C3454 1.574 . S
C3446 C3462 1.368 . S
H3447 C3455 0.950 . S
H3448 C3453 0.950 . S
H3449 C3454 0.949 . S
H3450 C3456 0.950 . S
H3451 C3457 0.950 . S
H3452 C3458 0.949 . S
C3453 H3448 0.950 . S
C3453 C3455 1.327 . S
C3453 C3459 1.429 . S
C3454 C3446 1.574 . S
C3454 H3449 0.949 . S
C3454 C3460 1.368 . S
C3455 C3439 1.349 . S
C3455 H3447 0.950 . S
C3455 C3453 1.327 . S
C3456 C3444 1.349 . S
C3456 H3450 0.950 . S
C3456 C3457 1.327 . S
C3457 H3451 0.950 . S
C3457 C3456 1.327 . S
C3457 C3461 1.429 . S
C3458 C3441 1.574 . S
C3458 H3452 0.949 . S
C3458 C3462 1.368 . S
C3459 C3440 1.429 . S
C3459 C3453 1.429 . S
C3459 C3460 1.523 . S
C3460 C3441 1.368 . S
C3460 C3454 1.368 . S
C3460 C3459 1.523 . S
C3461 C3445 1.429 . S
C3461 C3457 1.429 . S
C3461 C3462 1.523 . S
C3462 C3446 1.368 . S
C3462 C3458 1.368 . S
C3462 C3461 1.523 . S
H3463 C3438 0.950 . S
H3464 C3440 0.950 . S
H3465 C3441 0.949 . S
H3466 C3443 0.950 1_455 S
H3467 C3445 0.952 . S
C3468 C3469 1.349 . S
C3468 C3470 1.327 . S
C3468 H3493 0.950 . S
C3469 C3468 1.349 . S
C3469 C3485 1.349 . S
C3470 C3468 1.327 . S
C3470 C3489 1.429 . S
C3470 H3494 0.950 . S
C3471 C3488 1.574 . S
C3471 C3490 1.368 . S
C3471 H3495 0.949 . S
H3472 C3476 0.949 . S
C3473 C3474 1.349 . S
C3473 C3475 1.327 . S
C3473 H3496 0.950 . S
C3474 C3473 1.349 . S
C3474 C3486 1.349 . S
C3475 C3473 1.327 . S
C3475 C3491 1.429 . S
C3475 H3497 0.950 . S
C3476 H3472 0.949 . S
C3476 C3484 1.574 . S
C3476 C3492 1.368 . S
H3477 C3485 0.950 . S
H3478 C3483 0.950 . S
H3479 C3484 0.949 . S
H3480 C3486 0.950 . S
H3481 C3487 0.950 . S
H3482 C3488 0.949 . S
C3483 H3478 0.950 . S
C3483 C3485 1.327 . S
C3483 C3489 1.429 . S
C3484 C3476 1.574 . S
C3484 H3479 0.949 . S
C3484 C3490 1.368 . S
C3485 C3469 1.349 . S
C3485 H3477 0.950 . S
C3485 C3483 1.327 . S
C3486 C3474 1.349 . S
C3486 H3480 0.950 . S
C3486 C3487 1.327 . S
C3487 H3481 0.950 . S
C3487 C3486 1.327 . S
C3487 C3491 1.429 . S
C3488 C3471 1.574 . S
C3488 H3482 0.949 . S
C3488 C3492 1.368 . S
C3489 C3470 1.429 . S
C3489 C3483 1.429 . S
C3489 C3490 1.523 . S
C3490 C3471 1.368 . S
C3490 C3484 1.368 . S
C3490 C3489 1.523 . S
C3491 C3475 1.429 . S
C3491 C3487 1.429 . S
C3491 C3492 1.523 . S
C3492 C3476 1.368 . S
C3492 C3488 1.368 . S
C3492 C3491 1.523 . S
H3493 C3468 0.950 . S
H3494 C3470 0.950 . S
H3495 C3471 0.949 . S
H3496 C3473 0.950 . S
H3497 C3475 0.950 . S
C3498 C3499 1.349 . S
C3498 C3500 1.327 . S
C3498 H3523 0.950 . S
C3499 C3498 1.349 . S
C3499 C3515 1.349 . S
C3500 C3498 1.327 . S
C3500 C3519 1.429 . S
C3500 H3524 0.950 . S
C3501 C3518 1.574 . S
C3501 C3520 1.368 . S
C3501 H3525 0.949 1_545 S
H3502 C3506 0.949 . S
C3503 C3504 1.349 1_565 S
C3503 C3505 1.327 . S
C3503 H3526 0.950 . S
C3504 C3503 1.349 1_545 S
C3504 C3516 1.349 . S
C3505 C3503 1.327 . S
C3505 C3521 1.429 1_565 S
C3505 H3527 0.950 . S
C3506 H3502 0.949 . S
C3506 C3514 1.574 . S
C3506 C3522 1.368 . S
H3507 C3515 0.950 . S
H3508 C3513 0.962 . S
H3509 C3514 0.949 . S
H3510 C3516 0.950 . S
H3511 C3517 0.950 . S
H3512 C3518 0.949 1_565 S
C3513 H3508 0.962 . S
C3513 C3515 1.327 . S
C3513 C3519 1.429 . S
C3514 C3506 1.574 . S
C3514 H3509 0.949 . S
C3514 C3520 1.368 . S
C3515 C3499 1.349 . S
C3515 H3507 0.950 . S
C3515 C3513 1.327 . S
C3516 C3504 1.349 . S
C3516 H3510 0.950 . S
C3516 C3517 1.327 . S
C3517 H3511 0.950 . S
C3517 C3516 1.327 . S
C3517 C3521 1.429 . S
C3518 C3501 1.574 . S
C3518 H3512 0.949 1_545 S
C3518 C3522 1.368 . S
C3519 C3500 1.429 . S
C3519 C3513 1.429 . S
C3519 C3520 1.523 . S
C3520 C3501 1.368 . S
C3520 C3514 1.368 . S
C3520 C3519 1.523 . S
C3521 C3505 1.429 1_545 S
C3521 C3517 1.429 . S
C3521 C3522 1.523 . S
C3522 C3506 1.368 . S
C3522 C3518 1.368 . S
C3522 C3521 1.523 . S
H3523 C3498 0.950 . S
H3524 C3500 0.950 . S
H3525 C3501 0.949 1_565 S
H3526 C3503 0.950 . S
H3527 C3505 0.950 . S
C1369 C7 1.539 . S
C1374 C857 1.516 . S
C1399 C23 1.621 . S
C1404 C901 1.585 . S
C1434 C981 1.531 . S
C1429 C37 1.577 . S
C1459 C35 1.554 . S
C1464 C1025 1.545 . S
C1489 C9 1.578 1_455 S
C1494 C1105 1.539 . S
C1519 C21 1.598 . S
C1524 C1167 1.568 . S
C1549 C49 1.537 . S
C1554 C1087 1.506 . S
C1584 C1149 1.560 . S
C1579 C65 1.620 . S
C1614 C1043 1.566 . S
C1609 C79 1.626 1_565 S
C1639 C77 1.540 . S
C1644 C963 1.508 . S
C1674 C839 1.545 . S
C1669 C51 1.618 1_655 S
C1699 C63 1.595 . S
C1704 C919 1.592 . S
C1729 C91 1.649 . S
C1734 C1229 1.618 . S
C1759 C107 1.665 . S
C1764 C1273 1.628 . S
C1794 C1353 1.616 . S
C1789 C121 1.690 . S
C1819 C119 1.646 . S
C1824 C299 1.608 . S
C1849 C93 1.689 . S
C1854 C343 1.650 . S
C1879 C105 1.630 . S
C1884 C423 1.597 . S
C1909 C133 1.598 . S
C1914 C361 1.594 . S
C1939 C149 1.656 . S
C1944 C405 1.594 . S
C1974 C281 1.616 . S
C1969 C163 1.689 . S
C2004 C1335 1.655 . S
C1999 C161 1.691 . S
C2034 C1211 1.602 . S
C2029 C135 1.674 . S
C2064 C1291 1.652 . S
C2059 C147 1.650 . S
C2089 C175 1.603 . S
C2094 C485 1.570 . S
C2119 C191 1.648 . S
C2124 C547 1.587 . S
C2149 C205 1.685 . S
C2154 C591 1.645 . S
C2179 C203 1.688 . S
C2184 C653 1.687 . S
C2214 C715 1.645 . S
C2209 C177 1.685 . S
C2244 C795 1.625 . S
C2239 C189 1.652 . S
C2274 C733 1.656 . S
C2269 C217 1.657 . S
C2304 C777 1.608 . S
C2299 C233 1.673 . S
C2329 C247 1.685 . S
C2334 C671 1.643 . S
C2364 C609 1.635 . S
C2359 C245 1.639 . S
C2389 C219 1.684 . S
C2394 C467 1.615 . S
C2424 C529 1.603 . S
C2419 C231 1.635 . S
C2454 C305 1.509 . S
C2449 C8 1.578 . S
C2479 C17 1.526 . S
C2484 C349 1.470 . S
C2514 C429 1.508 . S
C2509 C31 1.575 . S
C2544 C491 1.521 . S
C2539 C36 1.592 1_556 S
C2574 C553 1.484 . S
C2569 C3 1.554 1_556 S
C2604 C597 1.480 . S
C2599 C22 1.535 1_556 S
C2629 C50 1.588 1_556 S
C2634 C615 1.541 . S
C2659 C59 1.521 . S
C2664 C473 1.452 . S
C2689 C73 1.549 1_556 S
C2694 C535 1.481 . S
C2719 C78 1.617 . S
C2724 C367 1.569 . S
C2754 C411 1.478 . S
C2749 C45 1.543 . S
C2779 C64 1.536 . S
C2784 C287 1.464 . S
C2814 C659 1.519 . S
C2809 C92 1.573 . S
C2839 C101 1.616 1_545 S
C2844 C721 1.556 . S
C2869 C115 1.630 1_655 S
C2874 C801 1.557 . S
C2904 C863 1.435 . S
C2899 C120 1.486 . S
C2929 C87 1.557 . S
C2934 C907 1.500 . S
C2959 C106 1.441 . S
C2964 C987 1.391 . S
C2989 C134 1.461 . S
C2994 C969 1.401 . S
C3019 C143 1.471 . S
C3024 C845 1.415 . S
C3054 C925 1.517 . S
C3049 C157 1.572 . S
C3079 C162 1.588 . S
C3084 C739 1.532 . S
C3109 C129 1.624 1_545 S
C3114 C783 1.547 . S
C3144 C677 1.555 . S
C3139 C148 1.624 . S
C3174 C1031 1.428 . S
C3169 C176 1.470 . S
C3199 C185 1.465 . S
C3204 C1111 1.411 . S
C3229 C199 1.568 . S
C3234 C1173 1.501 . S
C3264 C1235 1.504 . S
C3259 C204 1.574 . S
C3294 C1279 1.563 . S
C3289 C171 1.625 1_565 S
C3319 C190 1.666 . S
C3324 C1359 1.541 . S
C3349 C218 1.580 . S
C3354 C1341 1.511 . S
C3379 C227 1.611 1_565 S
C3384 C1217 1.538 . S
C3414 C1297 1.558 . S
C3409 C241 1.618 1_455 S
C3444 C1093 1.425 . S
C3439 C246 1.475 . S
C3474 C1155 1.492 . S
C3469 C213 1.562 . S
C3499 C232 1.457 . S
C3504 C1049 1.410 . S
