# Generated by pormake.
# Topology anh, (6,3)-cn, num edge types: 1
# Building blocks:
#     Node 0, Type 0, BuildingBlock: HISSIN_clean_sbu_0, # of connection points: 6
#     Node 1, Type 0, BuildingBlock: HISSIN_clean_sbu_0, # of connection points: 6
#     Node 2, Type 0, BuildingBlock: HISSIN_clean_sbu_0, # of connection points: 6
#     Node 3, Type 1, BuildingBlock: QEWDON_clean_linker_0, # of connection points: 3
#     Node 4, Type 1, BuildingBlock: QEWDON_clean_linker_0, # of connection points: 3
#     Node 5, Type 1, BuildingBlock: QEWDON_clean_linker_0, # of connection points: 3
#     Node 6, Type 1, BuildingBlock: QEWDON_clean_linker_0, # of connection points: 3
#     Node 7, Type 1, BuildingBlock: QEWDON_clean_linker_0, # of connection points: 3
#     Node 8, Type 1, BuildingBlock: QEWDON_clean_linker_0, # of connection points: 3
#     Edge 9, Type (0, 1), BuildingBlock: TEMPAE_clean_linker_10, # of connection points: 2
#     Edge 10, Type (0, 1), BuildingBlock: TEMPAE_clean_linker_10, # of connection points: 2
#     Edge 11, Type (0, 1), BuildingBlock: TEMPAE_clean_linker_10, # of connection points: 2
#     Edge 12, Type (0, 1), BuildingBlock: TEMPAE_clean_linker_10, # of connection points: 2
#     Edge 13, Type (0, 1), BuildingBlock: TEMPAE_clean_linker_10, # of connection points: 2
#     Edge 14, Type (0, 1), BuildingBlock: TEMPAE_clean_linker_10, # of connection points: 2
#     Edge 15, Type (0, 1), BuildingBlock: TEMPAE_clean_linker_10, # of connection points: 2
#     Edge 16, Type (0, 1), BuildingBlock: TEMPAE_clean_linker_10, # of connection points: 2
#     Edge 17, Type (0, 1), BuildingBlock: TEMPAE_clean_linker_10, # of connection points: 2
#     Edge 18, Type (0, 1), BuildingBlock: TEMPAE_clean_linker_10, # of connection points: 2
#     Edge 19, Type (0, 1), BuildingBlock: TEMPAE_clean_linker_10, # of connection points: 2
#     Edge 20, Type (0, 1), BuildingBlock: TEMPAE_clean_linker_10, # of connection points: 2
#     Edge 21, Type (0, 1), BuildingBlock: TEMPAE_clean_linker_10, # of connection points: 2
#     Edge 22, Type (0, 1), BuildingBlock: TEMPAE_clean_linker_10, # of connection points: 2
#     Edge 23, Type (0, 1), BuildingBlock: TEMPAE_clean_linker_10, # of connection points: 2
#     Edge 24, Type (0, 1), BuildingBlock: TEMPAE_clean_linker_10, # of connection points: 2
#     Edge 25, Type (0, 1), BuildingBlock: TEMPAE_clean_linker_10, # of connection points: 2
#     Edge 26, Type (0, 1), BuildingBlock: TEMPAE_clean_linker_10, # of connection points: 2
# Relax obj value: 0.213
# Max RMSD: 0.135
# Mean RMSD: 0.120
data_MOF--net-anh--node1-HISSIN_clean_sbu_0--node2-QEWDON_clean_linker_0--edge1-TEMPAE_clean_linker_10
_symmetry_space_group_name_H-M    P1
_symmetry_Int_Tables_number       1
_symmetry_cell_setting            triclinic
loop_
_symmetry_equiv_pos_as_xyz
'x, y, z'
_cell_length_a     34.127406
_cell_length_b     34.178066
_cell_length_c     49.448931
_cell_angle_alpha  97.038636
_cell_angle_beta   93.312235
_cell_angle_gamma 120.09005
loop_
_atom_site_label
_atom_site_type_symbol
_atom_site_fract_x
_atom_site_fract_y
_atom_site_fract_z
_atom_type_partial_charge
Eu0 Eu 0.08475 0.53146 0.15495 0.0
Eu1 Eu 0.14062 0.63867 0.16845 0.0
C2 C 0.11513 0.58189 0.21793 0.0
C3 C 0.97974 0.41921 0.13143 0.0
C4 C 0.95444 0.43787 0.14244 0.0
C5 C 0.91121 0.36041 0.10087 0.0
C6 C 0.90867 0.41898 0.13244 0.0
C7 C 0.95791 0.38033 0.11049 0.0
C8 C 0.88665 0.38024 0.11157 0.0
C9 C 1.02931 0.44313 0.14061 0.0
O10 O 0.2006 0.6227 0.16821 0.0
O11 O 0.15961 0.54472 0.1536 0.0
C12 C 0.20029 0.5836 0.16037 0.0
O13 O 0.08466 0.55809 0.11512 0.0
O14 O 0.18882 0.70279 0.19564 0.0
O15 O 0.15511 0.7037 0.15719 0.0
O16 O 0.15503 0.62061 0.12695 0.0
C17 C 0.12238 0.59 0.108 0.0
O18 O 1.02717 0.54928 0.16189 0.0
O19 O 1.06574 0.62351 0.15594 0.0
O20 O 0.1181 0.61746 0.20875 0.0
O21 O 1.0551 0.46874 0.12403 0.0
O22 O 1.04243 0.46419 0.16614 0.0
O23 O 0.11014 0.54688 0.20063 0.0
C24 C 0.23067 0.76275 0.17195 0.0
C25 C 0.25815 0.75018 0.1576 0.0
C26 C 0.28872 0.84267 0.17633 0.0
C27 C 0.30128 0.78396 0.15297 0.0
C28 C 0.24578 0.80901 0.18091 0.0
C29 C 0.31718 0.83041 0.16282 0.0
C30 C 0.18676 0.72786 0.17831 0.0
C31 C 1.02597 0.58654 0.15798 0.0
H32 H 0.96988 0.46709 0.15897 0.0
H33 H 0.89437 0.32984 0.08515 0.0
H34 H 0.89 0.43392 0.14163 0.0
H35 H 0.97687 0.36553 0.10165 0.0
H36 H 0.24656 0.71433 0.15048 0.0
H37 H 0.30003 0.87838 0.18371 0.0
H38 H 0.32269 0.7738 0.14256 0.0
H39 H 0.22469 0.81906 0.19182 0.0
Eu40 Eu 0.65416 0.06079 0.49102 0.0
Eu41 Eu 0.60498 0.11514 0.50615 0.0
C42 C 0.64384 0.08405 0.55296 0.0
C43 C 0.66067 0.96083 0.46122 0.0
C44 C 0.61512 0.94294 0.44982 0.0
C45 C 0.64973 0.88454 0.45174 0.0
C46 C 0.58645 0.89594 0.44064 0.0
C47 C 0.67833 0.93171 0.46131 0.0
C48 C 0.60292 0.86591 0.44249 0.0
C49 C 0.68666 1.00816 0.47623 0.0
O50 O 0.68202 0.17535 0.50784 0.0
O51 O 0.71356 0.13519 0.48878 0.0
C52 C 0.71777 0.17567 0.49776 0.0
O53 O 0.61591 0.05693 0.45088 0.0
O54 O 0.60054 0.16436 0.53619 0.0
O55 O 0.55231 0.1321 0.49841 0.0
O56 O 0.61591 0.12311 0.46284 0.0
C57 C 0.61217 0.09084 0.44401 0.0
O58 O 0.58006 1.00134 0.49525 0.0
O59 O 0.54154 1.03967 0.49362 0.0
O60 O 0.60705 0.08238 0.54245 0.0
O61 O 0.68901 1.03928 0.46247 0.0
O62 O 0.67596 1.01348 0.50076 0.0
O63 O 0.67469 0.08771 0.53718 0.0
C64 C 0.57848 0.20925 0.5151 0.0
C65 C 0.61676 0.23632 0.50252 0.0
C66 C 0.55874 0.26813 0.51768 0.0
C67 C 0.62626 0.27946 0.49778 0.0
C68 C 0.54939 0.22515 0.52248 0.0
C69 C 0.59751 0.29592 0.50555 0.0
C70 C 0.5686 0.16424 0.5202 0.0
C71 C 0.54019 0.99991 0.49339 0.0
H72 H 0.60088 0.96501 0.44961 0.0
H73 H 0.66366 0.86237 0.45297 0.0
H74 H 0.55062 0.88298 0.43403 0.0
H75 H 0.71344 0.94503 0.47002 0.0
H76 H 0.63935 0.22414 0.49651 0.0
H77 H 0.53543 0.27955 0.52335 0.0
H78 H 0.65639 0.30019 0.48849 0.0
H79 H 0.51949 0.20434 0.53194 0.0
Eu80 Eu 0.55806 0.53255 0.82415 0.0
Eu81 Eu 0.665 0.58642 0.82887 0.0
C82 C 0.61656 0.569 0.88335 0.0
C83 C 0.44825 0.52102 0.80543 0.0
C84 C 0.47447 0.55907 0.79288 0.0
C85 C 0.38963 0.54124 0.80641 0.0
C86 C 0.45972 0.58938 0.78854 0.0
C87 C 0.40507 0.51142 0.8114 0.0
C88 C 0.41782 0.58186 0.79618 0.0
C89 C 0.47027 0.49772 0.81655 0.0
O90 O 0.64908 0.51094 0.82987 0.0
O91 O 0.57162 0.47069 0.81706 0.0
C92 C 0.61032 0.47036 0.82259 0.0
O93 O 0.57588 0.55529 0.78387 0.0
O94 O 0.73028 0.61093 0.85359 0.0
O95 O 0.72879 0.62834 0.81298 0.0
O96 O 0.64181 0.55478 0.78401 0.0
C97 C 0.60675 0.55308 0.77061 0.0
O98 O 0.57613 0.60991 0.83023 0.0
O99 O 0.65009 0.64504 0.82187 0.0
O100 O 0.64866 0.59996 0.87159 0.0
O101 O 0.49149 0.48525 0.79949 0.0
O102 O 0.49524 0.51889 0.84048 0.0
O103 O 0.58075 0.53364 0.8681 0.0
C104 C 0.78767 0.61616 0.82822 0.0
C105 C 0.77406 0.57181 0.81459 0.0
C106 C 0.86573 0.63382 0.83574 0.0
C107 C 0.80635 0.5583 0.81188 0.0
C108 C 0.83365 0.64729 0.8383 0.0
C109 C 0.8522 0.58896 0.82309 0.0
C110 C 0.75396 0.62919 0.83415 0.0
C111 C 0.61294 0.64761 0.82534 0.0
H112 H 0.50796 0.56725 0.7881 0.0
H113 H 0.35651 0.53356 0.81181 0.0
H114 H 0.48276 0.62026 0.78094 0.0
H115 H 0.38436 0.4823 0.82114 0.0
H116 H 0.7384 0.54735 0.80683 0.0
H117 H 0.90112 0.65818 0.8442 0.0
H118 H 0.79533 0.5236 0.80208 0.0
H119 H 0.84453 0.68156 0.84888 0.0
H120 H 0.60114 0.21758 0.26398 0.0
C121 C 0.59194 0.19069 0.2465 0.0
C122 C 0.58613 0.14832 0.25083 0.0
C123 C 0.58514 0.19799 0.21967 0.0
H124 H 0.56876 0.08066 0.23164 0.0
C125 C 0.57446 0.11375 0.22818 0.0
C126 C 0.56741 0.12044 0.20133 0.0
C127 C 0.5728 0.16256 0.19726 0.0
C128 C 0.59099 0.24235 0.21453 0.0
H129 H 0.56599 0.1672 0.17657 0.0
C130 C 0.61305 0.26107 0.19237 0.0
C131 C 0.61968 0.30298 0.18689 0.0
C132 C 0.57504 0.26622 0.23126 0.0
H133 H 0.55737 0.25236 0.24835 0.0
C134 C 0.58153 0.3082 0.2258 0.0
H135 H 0.62712 0.24399 0.17991 0.0
C136 C 0.60425 0.32689 0.20383 0.0
H137 H 0.6103 0.36001 0.20028 0.0
H138 H 0.5694 0.32654 0.23884 0.0
H139 H 0.49326 0.5676 0.57683 0.0
C140 C 0.51214 0.56175 0.56154 0.0
C141 C 0.55072 0.55927 0.57 0.0
C142 C 0.49697 0.55495 0.53337 0.0
H143 H 0.60318 0.5472 0.55683 0.0
C144 C 0.57462 0.55103 0.55018 0.0
C145 C 0.55968 0.54363 0.52201 0.0
C146 C 0.52122 0.54626 0.51379 0.0
C147 C 0.45485 0.55487 0.52392 0.0
H148 H 0.50875 0.53906 0.49204 0.0
C149 C 0.45432 0.57647 0.50171 0.0
C150 C 0.41489 0.5763 0.49175 0.0
C151 C 0.41499 0.53273 0.53631 0.0
H152 H 0.41414 0.5152 0.55329 0.0
C153 C 0.37552 0.53248 0.52652 0.0
H154 H 0.48547 0.59518 0.49276 0.0
C155 C 0.37545 0.55443 0.50443 0.0
H156 H 0.34495 0.55472 0.49743 0.0
H157 H 0.34498 0.51545 0.5362 0.0
H158 H 0.24232 0.72475 0.93056 0.0
C159 C 0.21542 0.70263 0.91364 0.0
C160 C 0.17698 0.66207 0.9181 0.0
C161 C 0.21965 0.71384 0.88715 0.0
H162 H 0.11142 0.60406 0.90014 0.0
C163 C 0.14225 0.63368 0.89614 0.0
C164 C 0.14524 0.64535 0.8698 0.0
C165 C 0.18463 0.68485 0.86537 0.0
C166 C 0.26076 0.75507 0.88151 0.0
H167 H 0.18737 0.694 0.84504 0.0
C168 C 0.28237 0.75049 0.85916 0.0
C169 C 0.32095 0.78856 0.85252 0.0
C170 C 0.27819 0.79859 0.89763 0.0
H171 H 0.26191 0.80303 0.91495 0.0
C172 C 0.31652 0.83688 0.89112 0.0
H173 H 0.27003 0.71645 0.84757 0.0
C174 C 0.33804 0.83196 0.86875 0.0
H175 H 0.36816 0.86178 0.86434 0.0
H176 H 0.32982 0.87039 0.90358 0.0
H177 H 0.1034 0.55952 0.4338 0.0
C178 C 0.13445 0.5907 0.44335 0.0
C179 C 0.16414 0.61879 0.42614 0.0
C180 C 0.14361 0.60226 0.47229 0.0
H181 H 0.22459 0.68199 0.42355 0.0
C182 C 0.20467 0.66032 0.43763 0.0
C183 C 0.2197 0.67551 0.46611 0.0
C184 C 0.18767 0.6457 0.48348 0.0
C185 C 0.10577 0.56968 0.48965 0.0
H186 H 0.19773 0.65618 0.50545 0.0
C187 C 1.06519 0.52239 0.48007 0.0
C188 C 1.03166 0.49624 0.49826 0.0
C189 C 0.10944 0.58815 0.51727 0.0
H190 H 0.13666 0.62249 0.5261 0.0
C191 C 0.07774 0.56411 0.53438 0.0
H192 H 1.06008 0.50569 0.45908 0.0
C193 C 1.0403 0.51995 0.52526 0.0
H194 H 1.01722 0.50418 0.53993 0.0
H195 H 0.08218 0.5804 0.55544 0.0
H196 H 0.6187 1.04153 0.76325 0.0
C197 C 0.61951 0.07207 0.77299 0.0
C198 C 0.62435 0.10513 0.7567 0.0
C199 C 0.61336 0.07629 0.80091 0.0
H200 H 0.62761 0.16906 0.75521 0.0
C201 C 0.62383 0.14475 0.76841 0.0
C202 C 0.61828 0.15413 0.79605 0.0
C203 C 0.61254 0.11848 0.81222 0.0
C204 C 0.60523 1.03503 0.81665 0.0
H205 H 0.60842 0.12439 0.83354 0.0
C206 C 0.61356 0.99642 0.80817 0.0
C207 C 0.60322 0.9593 0.82443 0.0
C208 C 0.58596 1.03316 0.84112 0.0
H209 H 0.57743 0.05855 0.84873 0.0
C210 C 0.57555 0.99811 0.85628 0.0
H211 H 0.62863 0.9956 0.78964 0.0
C212 C 0.58379 0.96257 0.84827 0.0
H213 H 0.57422 0.93665 0.86121 0.0
H214 H 0.5603 0.99834 0.87486 0.0
H215 H 0.5956 0.5815 0.09815 0.0
C216 C 0.62611 0.58369 0.10773 0.0
C217 C 0.65888 0.58529 0.09095 0.0
C218 C 0.63039 0.58202 0.13599 0.0
H219 H 0.72362 0.58989 0.08906 0.0
C220 C 0.69843 0.5864 0.10243 0.0
C221 C 0.70694 0.58363 0.13018 0.0
C222 C 0.67215 0.58221 0.14708 0.0
C223 C 0.58877 0.5755 0.15212 0.0
H224 H 0.67758 0.58067 0.16856 0.0
C225 C 0.55116 0.58433 0.14424 0.0
C226 C 0.51286 0.57435 0.1605 0.0
C227 C 0.58501 0.55629 0.17601 0.0
H228 H 0.60963 0.54744 0.18307 0.0
C229 C 0.54866 0.54576 0.191 0.0
H230 H 0.552 0.5994 0.12614 0.0
C231 C 0.51384 0.5541 0.18348 0.0
H232 H 0.4866 0.54372 0.19613 0.0
H233 H 0.54714 0.53011 0.20897 0.0
C234 C 0.25013 0.54359 0.15819 0.0
C235 C 0.24689 0.58364 0.15865 0.0
C236 C 0.29254 0.5434 0.15701 0.0
C237 C 0.33524 0.58389 0.15525 0.0
C238 C 0.33194 0.6242 0.15507 0.0
C239 C 0.28937 0.62374 0.15713 0.0
C240 C 0.2916 0.49911 0.15811 0.0
C241 C 0.37396 0.6687 0.15246 0.0
C242 C 0.45545 0.59684 0.18038 0.0
C243 C 0.47092 0.58306 0.15677 0.0
C244 C 0.41313 0.59702 0.18005 0.0
C245 C 0.38274 0.58459 0.15523 0.0
C246 C 0.39873 0.57265 0.13093 0.0
C247 C 0.44109 0.5715 0.13196 0.0
C248 C 0.40023 0.60945 0.20705 0.0
C249 C 0.37039 0.5601 0.10338 0.0
H250 H 0.21913 0.51177 0.15931 0.0
H251 H 0.28943 0.65547 0.15714 0.0
H252 H 0.30201 0.48869 0.13899 0.0
H253 H 0.31659 0.50415 0.17556 0.0
H254 H 0.25721 0.47079 0.1605 0.0
H255 H 0.36573 0.69526 0.14851 0.0
H256 H 0.39836 0.68209 0.17172 0.0
H257 H 0.39144 0.66296 0.1355 0.0
H258 H 0.4765 0.60683 0.20007 0.0
H259 H 0.44999 0.56009 0.11314 0.0
H260 H 0.36611 0.58119 0.20988 0.0
H261 H 0.39769 0.64053 0.20696 0.0
H262 H 0.42536 0.61617 0.2249 0.0
H263 H 0.33919 0.52582 0.10181 0.0
H264 H 0.38941 0.55895 0.08611 0.0
H265 H 0.35923 0.58513 0.10122 0.0
C266 C 0.77264 0.2668 0.50765 0.0
C267 C 0.76379 0.22235 0.49617 0.0
C268 C 0.81467 0.3093 0.50626 0.0
C269 C 0.85113 0.31017 0.49261 0.0
C270 C 0.84209 0.26546 0.48067 0.0
C271 C 0.80006 0.22349 0.48267 0.0
C272 C 0.82019 0.35399 0.51988 0.0
C273 C 0.87734 0.26169 0.46542 0.0
C274 C 0.94972 0.4279 0.47186 0.0
C275 C 0.98786 0.44531 0.49272 0.0
C276 C 0.90661 0.38494 0.47118 0.0
C277 C 0.89864 0.3566 0.49199 0.0
C278 C 0.93727 0.37366 0.51263 0.0
C279 C 0.97978 0.41602 0.51262 0.0
C280 C 0.86869 0.37032 0.44814 0.0
C281 C 0.93342 0.3475 0.53574 0.0
H282 H 0.74648 0.26863 0.51818 0.0
H283 H 0.79561 0.19094 0.47327 0.0
H284 H 0.85071 0.37196 0.53587 0.0
H285 H 0.826 0.37675 0.5045 0.0
H286 H 0.78982 0.34896 0.5296 0.0
H287 H 0.86535 0.22576 0.45575 0.0
H288 H 0.88612 0.28331 0.44918 0.0
H289 H 0.90918 0.27481 0.47979 0.0
H290 H 0.95273 0.44872 0.45637 0.0
H291 H 1.00714 0.42713 0.52928 0.0
H292 H 0.84011 0.37222 0.45653 0.0
H293 H 0.85512 0.33407 0.43847 0.0
H294 H 0.88017 0.39227 0.43209 0.0
H295 H 0.90552 0.34497 0.54727 0.0
H296 H 0.96562 0.36401 0.55034 0.0
H297 H 0.92438 0.31196 0.52728 0.0
C298 C 0.57471 0.69901 0.82904 0.0
C299 C 0.6124 0.69366 0.82354 0.0
C300 C 0.57384 0.74082 0.82768 0.0
C301 C 0.61112 0.78077 0.81991 0.0
C302 C 0.6489 0.77519 0.81379 0.0
C303 C 0.64923 0.73324 0.81582 0.0
C304 C 0.53173 0.74143 0.83435 0.0
C305 C 0.68968 0.81405 0.80471 0.0
C306 C 0.59238 0.88067 0.79677 0.0
C307 C 0.61142 0.9168 0.82005 0.0
C308 C 0.5925 0.83782 0.79619 0.0
C309 C 0.61162 0.82805 0.81942 0.0
C310 C 0.63107 0.86451 0.84271 0.0
C311 C 0.63091 0.9068 0.84265 0.0
C312 C 0.57114 0.80215 0.77041 0.0
C313 C 0.6509 0.85818 0.8687 0.0
H314 H 0.54517 0.67009 0.83472 0.0
H315 H 0.67896 0.73151 0.81105 0.0
H316 H 0.54077 0.77537 0.84605 0.0
H317 H 0.50998 0.73483 0.81483 0.0
H318 H 0.51124 0.71442 0.84643 0.0
H319 H 0.71505 0.80452 0.79867 0.0
H320 H 0.67839 0.82481 0.787 0.0
H321 H 0.70675 0.84417 0.82163 0.0
H322 H 0.57567 0.88498 0.77905 0.0
H323 H 0.64535 0.9323 0.86132 0.0
H324 H 0.54355 0.76936 0.77519 0.0
H325 H 0.5972 0.79534 0.7623 0.0
H326 H 0.55665 0.81293 0.75418 0.0
H327 H 0.62412 0.8277 0.87612 0.0
H328 H 0.6646 0.88858 0.88534 0.0
H329 H 0.67883 0.85159 0.86447 0.0
C330 C 0.97397 0.62141 0.14587 0.0
C331 C 0.97914 0.58664 0.15585 0.0
C332 C 0.93117 0.62124 0.14334 0.0
C333 C 0.89004 0.58601 0.15142 0.0
C334 C 0.89531 0.5513 0.16194 0.0
C335 C 0.93821 0.55172 0.16369 0.0
C336 C 0.92995 0.65921 0.1315 0.0
C337 C 0.85503 0.51313 0.17175 0.0
C338 C 0.78358 0.6048 0.16298 0.0
C339 C 0.75183 0.58118 0.13841 0.0
C340 C 0.82705 0.60624 0.16763 0.0
C341 C 0.84191 0.58402 0.1475 0.0
C342 C 0.80954 0.55937 0.12313 0.0
C343 C 0.7665 0.55802 0.11918 0.0
C344 C 0.85779 0.63259 0.1944 0.0
C345 C 0.82096 0.53494 0.10027 0.0
H346 H 1.00369 0.64907 0.13944 0.0
H347 H 0.93962 0.52425 0.17165 0.0
H348 H 0.90434 0.6444 0.11269 0.0
H349 H 0.91904 0.67754 0.14647 0.0
H350 H 0.96369 0.68442 0.12617 0.0
H351 H 0.86336 0.48863 0.1795 0.0
H352 H 0.84332 0.52772 0.1885 0.0
H353 H 0.82613 0.49424 0.15473 0.0
H354 H 0.77519 0.62353 0.17854 0.0
H355 H 0.74395 0.53843 0.10013 0.0
H356 H 0.88967 0.66262 0.19041 0.0
H357 H 0.86772 0.61066 0.20413 0.0
H358 H 0.84127 0.64497 0.20905 0.0
H359 H 0.84993 0.5607 0.09116 0.0
H360 H 0.79158 0.51355 0.08371 0.0
H361 H 0.83208 0.51271 0.10841 0.0
C362 C 0.49077 0.91245 0.49846 0.0
C363 C 0.49317 0.9526 0.49132 0.0
C364 C 0.44842 0.86908 0.49706 0.0
C365 C 0.40448 0.86233 0.48734 0.0
C366 C 0.40679 0.90269 0.47976 0.0
C367 C 0.44964 0.94616 0.48223 0.0
C368 C 0.45228 0.83075 0.50647 0.0
C369 C 0.36346 0.89998 0.46838 0.0
C370 C 0.30349 0.73393 0.45718 0.0
C371 C 0.26858 0.72207 0.47466 0.0
C372 C 0.34565 0.77778 0.4609 0.0
C373 C 0.35753 0.81367 0.48365 0.0
C374 C 0.32386 0.80156 0.50238 0.0
C375 C 0.28081 0.75747 0.49763 0.0
C376 C 0.37719 0.78626 0.43935 0.0
C377 C 0.33254 0.8354 0.52782 0.0
H378 H 0.52259 0.91481 0.5057 0.0
H379 H 0.44889 0.97532 0.47637 0.0
H380 H 0.41883 0.79909 0.50607 0.0
H381 H 0.47332 0.82259 0.49323 0.0
H382 H 0.47071 0.84247 0.52777 0.0
H383 H 0.37037 0.93084 0.45955 0.0
H384 H 0.34321 0.86903 0.45219 0.0
H385 H 0.34225 0.8969 0.48506 0.0
H386 H 0.2978 0.70847 0.43967 0.0
H387 H 0.25625 0.75136 0.5119 0.0
H388 H 0.41192 0.79671 0.44897 0.0
H389 H 0.38032 0.81504 0.42952 0.0
H390 H 0.36487 0.75557 0.42312 0.0
H391 H 0.36963 0.85904 0.53492 0.0
H392 H 0.31622 0.81734 0.54482 0.0
H393 H 0.31712 0.85614 0.52324 0.0
C394 C 0.64829 0.42117 0.83268 0.0
C395 C 0.61072 0.42352 0.82069 0.0
C396 C 0.6494 0.37902 0.83143 0.0
C397 C 0.6127 0.33529 0.81681 0.0
C398 C 0.57485 0.33761 0.80433 0.0
C399 C 0.57401 0.38009 0.80681 0.0
C400 C 0.69105 0.38255 0.84644 0.0
C401 C 0.53444 0.29485 0.7877 0.0
C402 C 0.64678 0.241 0.793 0.0
C403 C 0.6192 0.20154 0.80506 0.0
C404 C 0.64435 0.28236 0.79619 0.0
C405 C 0.61494 0.2889 0.81336 0.0
C406 C 0.58841 0.25028 0.82687 0.0
C407 C 0.59033 0.20817 0.8224 0.0
C408 C 0.67384 0.31912 0.7803 0.0
C409 C 0.55698 0.25237 0.84636 0.0
H410 H 0.67751 0.45285 0.84372 0.0
H411 H 0.5442 0.37916 0.79711 0.0
H412 H 0.68549 0.34883 0.85001 0.0
H413 H 0.71986 0.39813 0.83431 0.0
H414 H 0.70161 0.40575 0.86663 0.0
H415 H 0.51501 0.30321 0.77302 0.0
H416 H 0.54525 0.27285 0.77599 0.0
H417 H 0.51101 0.27479 0.80182 0.0
H418 H 0.67096 0.23974 0.78022 0.0
H419 H 0.56809 0.17992 0.83232 0.0
H420 H 0.70698 0.34366 0.79332 0.0
H421 H 0.65755 0.33843 0.77423 0.0
H422 H 0.68127 0.30429 0.76141 0.0
H423 H 0.56573 0.28806 0.8541 0.0
H424 H 0.55799 0.23591 0.86421 0.0
H425 H 0.52136 0.23266 0.83559 0.0
C426 C 0.53077 0.79374 0.41931 0.0
C427 C 0.56998 0.81574 0.43915 0.0
C428 C 0.49551 0.74857 0.41959 0.0
C429 C 0.4997 0.72514 0.44021 0.0
C430 C 0.54037 0.74622 0.45921 0.0
C431 C 0.57485 0.79116 0.45845 0.0
C432 C 0.45295 0.72722 0.39884 0.0
C433 C 0.54661 0.72235 0.48147 0.0
C434 C 0.41128 0.64121 0.47697 0.0
C435 C 0.41841 0.60445 0.4706 0.0
C436 C 0.4324 0.67929 0.46376 0.0
C437 C 0.46107 0.68013 0.44395 0.0
C438 C 0.46132 0.63966 0.43408 0.0
C439 C 0.44002 0.6021 0.44769 0.0
C440 C 0.42995 0.72111 0.4744 0.0
C441 C 0.4897 0.63836 0.41209 0.0
H442 H 0.52695 0.81234 0.40412 0.0
H443 H 0.6045 0.80795 0.47415 0.0
H444 H 0.43901 0.68991 0.39222 0.0
H445 H 0.42631 0.73136 0.40838 0.0
H446 H 0.45961 0.74402 0.3804 0.0
H447 H 0.58104 0.74294 0.49388 0.0
H448 H 0.5206 0.71579 0.49554 0.0
H449 H 0.54171 0.68868 0.47225 0.0
H450 H 0.39412 0.64286 0.49448 0.0
H451 H 0.44454 0.573 0.44237 0.0
H452 H 0.43375 0.74196 0.4582 0.0
H453 H 0.4582 0.74267 0.49155 0.0
H454 H 0.39711 0.71143 0.48243 0.0
H455 H 0.48926 0.65853 0.39624 0.0
H456 H 0.4773 0.60255 0.40196 0.0
H457 H 0.5257 0.65375 0.4216 0.0
C458 C 0.89609 0.55811 0.79884 0.0
C459 C 0.88626 0.57455 0.82331 0.0
C460 C 0.93536 0.55453 0.79881 0.0
C461 C 0.96517 0.56843 0.82373 0.0
C462 C 0.95217 0.57989 0.84884 0.0
C463 C 0.9127 0.58257 0.84826 0.0
C464 C 0.94646 0.53954 0.77182 0.0
C465 C 0.9823 0.5942 0.87611 0.0
C466 C 0.07397 0.57344 0.84592 0.0
C467 C 0.10409 0.62101 0.84869 0.0
C468 C 1.0287 0.55309 0.83319 0.0
C469 C 1.01358 0.58129 0.8237 0.0
C470 C 1.04583 0.62753 0.82235 0.0
C471 C 0.09079 0.6469 0.83496 0.0
C472 C 0.99596 0.50279 0.83298 0.0
C473 C 1.03151 0.65857 0.81147 0.0
H474 H 0.87498 0.55106 0.77956 0.0
H475 H 0.90405 0.594 0.86723 0.0
H476 H 0.96289 0.56916 0.76089 0.0
H477 H 0.96998 0.52638 0.77473 0.0
H478 H 0.91469 0.5124 0.7584 0.0
H479 H 0.96569 0.59938 0.89376 0.0
H480 H 0.99108 0.56786 0.87943 0.0
H481 H 1.01474 0.62686 0.87613 0.0
H482 H 0.08463 0.55284 0.85558 0.0
H483 H 0.11386 0.68356 0.83665 0.0
H484 H 0.9684 0.48767 0.81517 0.0
H485 H 0.97982 0.49861 0.85208 0.0
H486 H 1.01412 0.48338 0.83225 0.0
H487 H 1.00901 0.64143 0.79149 0.0
H488 H 1.06138 0.69157 0.80859 0.0
H489 H 1.01193 0.66632 0.82618 0.0
C490 C 0.38125 0.87027 0.13533 0.0
C491 C 0.36408 0.86652 0.16056 0.0
C492 C 0.42332 0.90874 0.13278 0.0
C493 C 0.44788 0.94401 0.15594 0.0
C494 C 0.43214 0.93819 0.18194 0.0
C495 C 0.39063 0.89933 0.18387 0.0
C496 C 0.43962 0.9123 0.105 0.0
C497 C 0.45736 0.97436 0.20753 0.0
C498 C 0.56087 0.04848 0.17691 0.0
C499 C 0.54653 0.08055 0.17862 0.0
C500 C 0.53093 1.00296 0.16386 0.0
C501 C 0.48592 0.98987 0.15325 0.0
C502 C 0.47515 1.02407 0.14987 0.0
C503 C 0.50577 0.06938 0.16278 0.0
C504 C 0.54483 0.96777 0.16547 0.0
C505 C 0.42828 1.01176 0.13713 0.0
H506 H 0.3609 0.84439 0.11734 0.0
H507 H 0.37784 0.89545 0.20354 0.0
H508 H 0.42091 0.92359 0.092 0.0
H509 H 0.47685 0.937 0.10644 0.0
H510 H 0.43193 0.87813 0.09439 0.0
H511 H 0.44037 0.96388 0.22603 0.0
H512 H 0.49274 0.98135 0.21179 0.0
H513 H 0.45948 1.00697 0.2045 0.0
H514 H 0.59334 0.05763 0.1882 0.0
H515 H 0.49492 0.09431 0.16342 0.0
H516 H 0.52723 0.93914 0.14765 0.0
H517 H 0.53513 0.95322 0.18454 0.0
H518 H 0.58242 0.98354 0.16614 0.0
H519 H 0.41645 0.98552 0.11824 0.0
H520 H 0.42793 1.04227 0.13185 0.0
H521 H 0.40358 0.99709 0.15191 0.0
C522 C 0.60204 0.36975 0.52217 0.0
C523 C 0.60756 0.342 0.50139 0.0
C524 C 0.6046 0.4104 0.51762 0.0
C525 C 0.61387 0.42418 0.49166 0.0
C526 C 0.62373 0.39852 0.47143 0.0
C527 C 0.62 0.35729 0.47645 0.0
C528 C 0.5945 0.43691 0.54018 0.0
C529 C 0.63582 0.41276 0.44399 0.0
C530 C 0.54731 0.4809 0.48523 0.0
C531 C 0.57803 0.52299 0.50223 0.0
C532 C 0.56116 0.44976 0.47657 0.0
C533 C 0.6065 0.46144 0.4853 0.0
C534 C 0.63957 0.5074 0.49685 0.0
C535 C 0.62482 0.5379 0.50554 0.0
C536 C 0.52533 0.40174 0.46264 0.0
C537 C 0.68908 0.52212 0.50409 0.0
H538 H 0.59406 0.35875 0.54181 0.0
H539 H 0.62484 0.33613 0.46039 0.0
H540 H 0.62358 0.47277 0.54576 0.0
H541 H 0.56381 0.43814 0.53293 0.0
H542 H 0.58822 0.42139 0.55911 0.0
H543 H 0.66205 0.40499 0.43726 0.0
H544 H 0.605 0.39263 0.4283 0.0
H545 H 0.64885 0.44986 0.4445 0.0
H546 H 0.51122 0.46948 0.48193 0.0
H547 H 0.64904 0.57129 0.51771 0.0
H548 H 0.51529 0.37851 0.47804 0.0
H549 H 0.53905 0.38863 0.44643 0.0
H550 H 0.49421 0.40036 0.45321 0.0
H551 H 0.69419 0.51421 0.52466 0.0
H552 H 0.71165 0.55968 0.50495 0.0
H553 H 0.69941 0.50342 0.48895 0.0
C554 C 0.38529 0.62699 0.81818 0.0
C555 C 0.40641 0.6187 0.79655 0.0
C556 C 0.37718 0.66341 0.82046 0.0
C557 C 0.39147 0.69335 0.80096 0.0
C558 C 0.41292 0.68552 0.77904 0.0
C559 C 0.41982 0.64804 0.77697 0.0
C560 C 0.35371 0.67005 0.84415 0.0
C561 C 0.42962 0.71722 0.75824 0.0
C562 C 0.32064 0.74729 0.8073 0.0
C563 C 0.34569 0.78018 0.83104 0.0
C564 C 0.33829 0.72233 0.79376 0.0
C565 C 0.38229 0.73172 0.80392 0.0
C566 C 0.41099 0.77161 0.82381 0.0
C567 C 0.39209 0.79524 0.83752 0.0
C568 C 0.30683 0.6811 0.77197 0.0
C569 C 0.45939 0.78505 0.83357 0.0
H570 H 0.3761 0.60574 0.83395 0.0
H571 H 0.43604 0.64199 0.76007 0.0
H572 H 0.37698 0.70365 0.85765 0.0
H573 H 0.32267 0.67019 0.83629 0.0
H574 H 0.34337 0.6427 0.85689 0.0
H575 H 0.43891 0.70249 0.74018 0.0
H576 H 0.40342 0.7251 0.75097 0.0
H577 H 0.46034 0.75023 0.76808 0.0
H578 H 0.28516 0.73689 0.80157 0.0
H579 H 0.4121 0.82159 0.85537 0.0
H580 H 0.29029 0.65012 0.78177 0.0
H581 H 0.32592 0.6752 0.75616 0.0
H582 H 0.27949 0.68507 0.76172 0.0
H583 H 0.45897 0.76066 0.8466 0.0
H584 H 0.47915 0.82031 0.84586 0.0
H585 H 0.47707 0.78341 0.81573 0.0
C586 C 0.80823 0.31797 0.11352 0.0
C587 C 0.8369 0.35874 0.10423 0.0
C588 C 0.76426 0.30716 0.11864 0.0
C589 C 0.74902 0.33778 0.11397 0.0
C590 C 0.77502 0.3747 0.10023 0.0
C591 C 0.81921 0.38519 0.09581 0.0
C592 C 0.73712 0.26679 0.13276 0.0
C593 C 0.75906 0.40694 0.09396 0.0
C594 C 0.63462 0.30157 0.13834 0.0
C595 C 0.6489 0.32338 0.16593 0.0
C596 C 0.66663 0.30946 0.11997 0.0
C597 C 0.71375 0.33834 0.12994 0.0
C598 C 0.72773 0.36324 0.15727 0.0
C599 C 0.69491 0.35591 0.17481 0.0
C600 C 0.65008 0.28349 0.09082 0.0
C601 C 0.77755 0.39314 0.16929 0.0
H602 H 0.82208 0.29761 0.12 0.0
H603 H 0.84156 0.41671 0.08849 0.0
H604 H 0.73925 0.27943 0.15489 0.0
H605 H 0.70055 0.24757 0.12379 0.0
H606 H 0.75022 0.2428 0.13118 0.0
H607 H 0.77754 0.42703 0.07816 0.0
H608 H 0.72178 0.38774 0.08668 0.0
H609 H 0.76548 0.43133 0.11302 0.0
H610 H 0.59886 0.27591 0.13168 0.0
H611 H 0.70577 0.37187 0.19634 0.0
H612 H 0.6489 0.25031 0.0898 0.0
H613 H 0.67317 0.30294 0.07635 0.0
H614 H 0.61499 0.2758 0.08391 0.0
H615 H 0.79076 0.37092 0.17475 0.0
H616 H 0.78254 0.41725 0.18821 0.0
H617 H 0.79833 0.41322 0.15427 0.0
C618 C 0.09151 0.58056 0.05898 0.0
C619 C 0.12856 0.59368 0.07901 0.0
C620 C 0.09867 0.58959 0.03215 0.0
C621 C 0.14375 0.61122 0.02526 0.0
C622 C 0.1809 0.62237 0.04515 0.0
C623 C 0.17289 0.61391 0.07185 0.0
C624 C 1.05831 0.57781 0.01154 0.0
C625 C 0.22932 0.64442 0.03846 0.0
C626 C 0.16049 0.60611 0.94997 0.0
C627 C 0.17114 0.65005 0.94588 0.0
C628 C 0.15163 0.59297 0.97575 0.0
C629 C 0.15259 0.62428 -0.00228 0.0
C630 C 0.16337 0.66874 -0.00635 0.0
C631 C 0.17296 0.68126 0.96779 0.0
C632 C 0.14136 0.5457 0.97949 0.0
C633 C 0.1642 0.70288 0.01652 0.0
H634 H 1.05729 0.56517 0.06459 0.0
H635 H 0.20155 0.62366 0.08731 0.0
H636 H 1.06211 0.60979 0.00575 0.0
H637 H 1.05711 0.55622 -0.00753 0.0
H638 H 1.02531 0.55929 0.01974 0.0
H639 H 0.25377 0.64752 0.05561 0.0
H640 H 0.23106 0.62409 0.01977 0.0
H641 H 0.24047 0.67926 0.03401 0.0
H642 H 0.15915 0.58205 0.93293 0.0
H643 H 0.18056 0.71499 0.96443 0.0
H644 H 0.107 0.52627 0.98591 0.0
H645 H 0.16648 0.54862 -0.0039 0.0
H646 H 0.14245 0.52567 0.96038 0.0
H647 H 0.13068 0.68783 0.02433 0.0
H648 H 0.17177 0.73548 0.00972 0.0
H649 H 0.19046 0.71088 0.03398 0.0
C650 C 0.58622 0.12071 0.40797 0.0
C651 C 0.60478 0.09419 0.41489 0.0
C652 C 0.58219 0.12789 0.38094 0.0
C653 C 0.59779 0.10868 0.36036 0.0
C654 C 0.61583 0.08113 0.36707 0.0
C655 C 0.61874 0.07384 0.3943 0.0
C656 C 0.56185 0.15664 0.37451 0.0
C657 C 0.63321 0.0605 0.34566 0.0
C658 C 0.55385 0.09878 0.28617 0.0
C659 C 0.58942 0.1386 0.27895 0.0
C660 C 0.55637 0.08829 0.3125 0.0
C661 C 0.59565 0.11812 0.33194 0.0
C662 C 0.63188 0.15821 0.32466 0.0
C663 C 0.62815 0.1682 0.29826 0.0
C664 C 0.51665 1.04575 0.31965 0.0
C665 C 0.67449 0.19057 0.3448 0.0
H666 H 0.57502 0.13621 0.42381 0.0
H667 H 0.63338 0.05359 0.39964 0.0
H668 H 0.58782 0.18792 0.36739 0.0
H669 H 0.53282 0.1371 0.35759 0.0
H670 H 0.54947 0.16736 0.39263 0.0
H671 H 0.64527 1.03909 0.35406 0.0
H672 H 0.60585 1.03897 0.32807 0.0
H673 H 0.66191 0.0883 0.3375 0.0
H674 H 0.52369 0.0761 0.27126 0.0
H675 H 0.65577 0.19876 0.29253 0.0
H676 H 0.50194 0.0556 0.33678 0.0
H677 H 0.52852 1.02345 0.32683 0.0
H678 H 0.48916 1.02549 0.3019 0.0
H679 H 0.66558 0.20565 0.36285 0.0
H680 H 0.70046 0.21898 0.33549 0.0
H681 H 0.68994 0.17148 0.3525 0.0
C682 C 0.55856 0.53336 0.72598 0.0
C683 C 0.60219 0.55153 0.74062 0.0
C684 C 0.55277 0.53494 0.69799 0.0
C685 C 0.59168 0.55596 0.68435 0.0
C686 C 0.63589 0.57375 0.69887 0.0
C687 C 0.64063 0.57092 0.7269 0.0
C688 C 0.50497 0.51464 0.68313 0.0
C689 C 0.67813 0.59692 0.68501 0.0
C690 C 0.56833 0.52425 0.60663 0.0
C691 C 0.56344 0.56008 0.59927 0.0
C692 C 0.57906 0.52326 0.63421 0.0
C693 C 0.5855 0.55924 0.65489 0.0
C694 C 0.58186 0.5962 0.6475 0.0
C695 C 0.57037 0.59593 0.61971 0.0
C696 C 0.5817 0.4828 0.64127 0.0
C697 C 0.5891 0.63546 0.66899 0.0
H698 H 0.52873 0.51808 0.73654 0.0
H699 H 0.6744 0.58536 0.73828 0.0
H700 H 0.50111 0.54198 0.67563 0.0
H701 H 0.49877 0.48889 0.66487 0.0
H702 H 0.4783 0.49783 0.6965 0.0
H703 H 0.7099 0.60792 0.69896 0.0
H704 H 0.67577 0.57338 0.66659 0.0
H705 H 0.68071 0.62755 0.67783 0.0
H706 H 0.56251 0.49625 0.5908 0.0
H707 H 0.56693 0.62377 0.61393 0.0
H708 H 0.55355 0.46303 0.65308 0.0
H709 H 0.61433 0.49479 0.65452 0.0
H710 H 0.579 0.45935 0.62265 0.0
H711 H 0.56152 0.62279 0.68219 0.0
H712 H 0.58918 0.66349 0.65969 0.0
H713 H 0.62201 0.6498 0.68254 0.0
C714 C 0.61337 1.04557 0.59278 0.0
C715 C 0.64889 0.08158 0.58258 0.0
C716 C 0.61243 1.04624 0.62124 0.0
C717 C 0.64697 0.08477 0.6401 0.0
C718 C 0.68389 0.12054 0.62986 0.0
C719 C 0.68468 0.11823 0.60119 0.0
C720 C 0.5731 1.0067 0.63103 0.0
C721 C 0.72086 0.16276 0.64906 0.0
C722 C 0.60883 0.11199 0.70734 0.0
C723 C 0.62946 0.09842 0.72666 0.0
C724 C 0.61524 0.10871 0.67949 0.0
C725 C 0.64162 0.08975 0.67007 0.0
C726 C 0.66148 0.07465 0.68915 0.0
C727 C 0.65565 0.07964 0.71717 0.0
C728 C 0.59369 0.12573 0.66009 0.0
C729 C 0.6888 0.05308 0.67992 0.0
H730 H 0.58548 1.01734 0.57838 0.0
H731 H 0.71168 0.14653 0.59333 0.0
H732 H 0.58584 0.99565 0.64794 0.0
H733 H 0.55002 1.01782 0.63927 0.0
H734 H 0.55284 0.97673 0.6142 0.0
H735 H 0.74929 0.18539 0.63825 0.0
H736 H 0.70602 0.18263 0.65853 0.0
H737 H 0.73496 0.15297 0.66601 0.0
H738 H 0.58733 0.12522 0.71392 0.0
H739 H 0.67217 0.0693 0.73169 0.0
H740 H 0.56793 0.09667 0.6442 0.0
H741 H 0.62007 0.15096 0.64927 0.0
H742 H 0.57663 0.14222 0.67092 0.0
H743 H 0.66764 1.02289 0.66341 0.0
H744 H 0.70093 1.04185 0.69705 0.0
H745 H 0.71888 0.0779 0.67116 0.0
C746 C 0.6619 0.60796 0.93052 0.0
C747 C 0.62118 0.5736 0.91401 0.0
C748 C 0.66747 0.61129 0.95935 0.0
C749 C 0.63139 0.57973 0.97221 0.0
C750 C 0.58986 0.5456 0.95572 0.0
C751 C 0.58532 0.54285 0.92692 0.0
C752 C 0.71244 0.64804 0.97601 0.0
C753 C 0.55036 0.51142 0.96847 0.0
C754 C 0.66129 0.55665 0.04187 0.0
C755 C 0.65114 0.5838 0.06049 0.0
C756 C 0.65514 0.55517 0.01329 0.0
C757 C 0.63786 0.58108 0.0027 0.0
C758 C 0.62695 0.60812 0.02127 0.0
C759 C 0.63377 0.60923 0.04985 0.0
C760 C 0.66725 0.52582 -0.0056 0.0
C761 C 0.60825 0.6361 0.01093 0.0
H762 H 0.68992 0.63189 0.92088 0.0
H763 H 0.55363 0.51625 0.9145 0.0
H764 H 0.7066 0.6692 -0.00772 0.0
H765 H 0.72879 0.63184 0.98644 0.0
H766 H 0.73653 0.67102 0.96312 0.0
H767 H 0.51959 0.48846 0.95306 0.0
H768 H 0.5605 0.48995 0.97855 0.0
H769 H 0.54119 0.5297 0.98465 0.0
H770 H 0.6738 0.53605 0.04965 0.0
H771 H 0.62608 0.6306 0.06392 0.0
H772 H 0.69336 0.54737 0.98196 0.0
H773 H 0.63662 0.49955 0.97984 0.0
H774 H 0.68075 0.50808 0.00585 0.0
H775 H 0.63329 0.66161 -0.00038 0.0
H776 H 0.60055 0.6546 0.02789 0.0
H777 H 0.5765 0.61344 -0.00376 0.0
C778 C 0.11123 0.54371 0.25928 0.0
C779 C 0.11848 0.58245 0.24828 0.0
C780 C 0.11547 0.5449 0.288 0.0
C781 C 0.1277 0.58591 0.30625 0.0
C782 C 0.13461 0.6249 0.29522 0.0
C783 C 0.12976 0.62264 0.26654 0.0
C784 C 0.10736 0.50241 0.29882 0.0
C785 C 0.14808 0.6695 0.31377 0.0
C786 C 0.10891 0.58904 0.38189 0.0
C787 C 0.15309 0.60554 0.39536 0.0
C788 C 0.09963 0.58065 0.3529 0.0
C789 C 0.13537 0.58915 0.33686 0.0
C790 C 0.17958 0.60416 0.35033 0.0
C791 C 0.18778 0.61187 0.37924 0.0
C792 C 1.05192 0.56428 0.33947 0.0
C793 C 0.21882 0.61381 0.33423 0.0
H794 H 0.10233 0.51241 0.24545 0.0
H795 H 0.13557 0.6529 0.25844 0.0
H796 H 0.13934 0.50929 0.3108 0.0
H797 H 0.08124 0.49315 0.31302 0.0
H798 H 0.09579 0.47258 0.28206 0.0
H799 H 0.15118 0.6964 0.30202 0.0
H800 H 0.12241 0.66377 0.32795 0.0
H801 H 0.18135 0.68253 0.32662 0.0
H802 H 0.08186 0.58423 0.39401 0.0
H803 H 0.22183 0.6237 0.38933 0.0
H804 H 1.0402 0.53404 0.32303 0.0
H805 H 1.05195 0.59177 0.32962 0.0
H806 H 1.027 0.55489 0.35447 0.0
H807 H 0.20951 0.58345 0.31843 0.0
H808 H 0.25048 0.62283 0.34762 0.0
H809 H 0.22622 0.64273 0.32326 0.0
loop_
_geom_bond_atom_site_label_1
_geom_bond_atom_site_label_2
_geom_bond_distance
_geom_bond_site_symmetry_2
_ccdc_geom_bond_type
Eu0 C9 2.828 . S
Eu0 O11 2.392 1_655 S
Eu0 O13 2.418 . S
Eu0 O18 2.373 . S
Eu0 O21 2.488 . S
Eu0 O22 2.471 . S
Eu0 O23 2.349 1_655 S
Eu1 O10 2.373 . S
Eu1 O14 2.488 . S
Eu1 O15 2.471 . S
Eu1 O16 2.349 . S
Eu1 O19 2.392 1_455 S
Eu1 O20 2.418 . S
Eu1 C30 2.828 . S
C2 O20 1.244 . S
C2 O23 1.265 . S
C3 C4 1.379 . S
C3 C7 1.373 . S
C3 C9 1.505 . S
C4 C3 1.379 . S
C4 C6 1.369 . S
C4 H32 0.930 . S
C5 C7 1.383 . S
C5 C8 1.382 . S
C5 H33 0.930 . S
C6 C4 1.369 . S
C6 C8 1.392 . S
C6 H34 0.930 . S
C7 C3 1.373 . S
C7 C5 1.383 . S
C7 H35 0.931 . S
C8 C5 1.382 . S
C8 C6 1.392 . S
C9 Eu0 2.828 . S
C9 C3 1.505 . S
C9 O21 1.249 . S
C9 O22 1.244 . S
O10 Eu1 2.373 . S
O10 C12 1.258 . S
O11 Eu0 2.392 1_455 S
O11 C12 1.242 . S
C12 O10 1.258 . S
C12 O11 1.242 . S
O13 Eu0 2.418 . S
O13 C17 1.244 1_655 S
O14 Eu1 2.488 . S
O14 C30 1.249 . S
O15 Eu1 2.471 . S
O15 C30 1.244 . S
O16 Eu1 2.349 . S
O16 C17 1.265 . S
C17 O13 1.244 1_455 S
C17 O16 1.265 . S
O18 Eu0 2.373 . S
O18 C31 1.258 . S
O19 Eu1 2.392 1_655 S
O19 C31 1.242 . S
O20 Eu1 2.418 . S
O20 C2 1.244 . S
O21 Eu0 2.488 . S
O21 C9 1.249 . S
O22 Eu0 2.471 . S
O22 C9 1.244 . S
O23 Eu0 2.349 1_455 S
O23 C2 1.265 . S
C24 C25 1.379 . S
C24 C28 1.373 . S
C24 C30 1.505 . S
C25 C24 1.379 . S
C25 C27 1.369 . S
C25 H36 0.930 . S
C26 C28 1.383 . S
C26 C29 1.382 . S
C26 H37 0.930 . S
C27 C25 1.369 . S
C27 C29 1.392 . S
C27 H38 0.930 . S
C28 C24 1.373 . S
C28 C26 1.383 . S
C28 H39 0.931 . S
C29 C26 1.382 . S
C29 C27 1.392 . S
C30 Eu1 2.828 . S
C30 O14 1.249 . S
C30 O15 1.244 . S
C30 C24 1.505 . S
C31 O18 1.258 . S
C31 O19 1.242 . S
H32 C4 0.930 . S
H33 C5 0.930 . S
H34 C6 0.930 . S
H35 C7 0.931 . S
H36 C25 0.930 . S
H37 C26 0.930 . S
H38 C27 0.930 . S
H39 C28 0.931 . S
Eu40 C49 2.828 1_545 S
Eu40 O51 2.392 . S
Eu40 O53 2.418 . S
Eu40 O58 2.373 1_545 S
Eu40 O61 2.488 1_545 S
Eu40 O62 2.471 1_545 S
Eu40 O63 2.349 . S
Eu41 O50 2.373 . S
Eu41 O54 2.488 . S
Eu41 O55 2.471 . S
Eu41 O56 2.349 . S
Eu41 O59 2.392 1_545 S
Eu41 O60 2.418 . S
Eu41 C70 2.828 . S
C42 O60 1.244 . S
C42 O63 1.265 . S
C43 C44 1.379 . S
C43 C47 1.373 . S
C43 C49 1.505 . S
C44 C43 1.379 . S
C44 C46 1.369 . S
C44 H72 0.930 . S
C45 C47 1.383 . S
C45 C48 1.382 . S
C45 H73 0.930 . S
C46 C44 1.369 . S
C46 C48 1.392 . S
C46 H74 0.930 . S
C47 C43 1.373 . S
C47 C45 1.383 . S
C47 H75 0.931 . S
C48 C45 1.382 . S
C48 C46 1.392 . S
C49 Eu40 2.828 1_565 S
C49 C43 1.505 . S
C49 O61 1.249 . S
C49 O62 1.244 . S
O50 Eu41 2.373 . S
O50 C52 1.258 . S
O51 Eu40 2.392 . S
O51 C52 1.242 . S
C52 O50 1.258 . S
C52 O51 1.242 . S
O53 Eu40 2.418 . S
O53 C57 1.244 . S
O54 Eu41 2.488 . S
O54 C70 1.249 . S
O55 Eu41 2.471 . S
O55 C70 1.244 . S
O56 Eu41 2.349 . S
O56 C57 1.265 . S
C57 O53 1.244 . S
C57 O56 1.265 . S
O58 Eu40 2.373 1_565 S
O58 C71 1.258 . S
O59 Eu41 2.392 1_565 S
O59 C71 1.242 . S
O60 Eu41 2.418 . S
O60 C42 1.244 . S
O61 Eu40 2.488 1_565 S
O61 C49 1.249 . S
O62 Eu40 2.471 1_565 S
O62 C49 1.244 . S
O63 Eu40 2.349 . S
O63 C42 1.265 . S
C64 C65 1.379 . S
C64 C68 1.373 . S
C64 C70 1.505 . S
C65 C64 1.379 . S
C65 C67 1.369 . S
C65 H76 0.930 . S
C66 C68 1.383 . S
C66 C69 1.382 . S
C66 H77 0.930 . S
C67 C65 1.369 . S
C67 C69 1.392 . S
C67 H78 0.930 . S
C68 C64 1.373 . S
C68 C66 1.383 . S
C68 H79 0.931 . S
C69 C66 1.382 . S
C69 C67 1.392 . S
C70 Eu41 2.828 . S
C70 O54 1.249 . S
C70 O55 1.244 . S
C70 C64 1.505 . S
C71 O58 1.258 . S
C71 O59 1.242 . S
H72 C44 0.930 . S
H73 C45 0.930 . S
H74 C46 0.930 . S
H75 C47 0.931 . S
H76 C65 0.930 . S
H77 C66 0.930 . S
H78 C67 0.930 . S
H79 C68 0.931 . S
Eu80 C89 2.828 . S
Eu80 O91 2.392 . S
Eu80 O93 2.418 . S
Eu80 O98 2.373 . S
Eu80 O101 2.488 . S
Eu80 O102 2.471 . S
Eu80 O103 2.349 . S
Eu81 O90 2.373 . S
Eu81 O94 2.488 . S
Eu81 O95 2.471 . S
Eu81 O96 2.349 . S
Eu81 O99 2.392 . S
Eu81 O100 2.418 . S
Eu81 C110 2.828 . S
C82 O100 1.244 . S
C82 O103 1.265 . S
C83 C84 1.379 . S
C83 C87 1.373 . S
C83 C89 1.505 . S
C84 C83 1.379 . S
C84 C86 1.369 . S
C84 H112 0.930 . S
C85 C87 1.383 . S
C85 C88 1.382 . S
C85 H113 0.930 . S
C86 C84 1.369 . S
C86 C88 1.392 . S
C86 H114 0.930 . S
C87 C83 1.373 . S
C87 C85 1.383 . S
C87 H115 0.931 . S
C88 C85 1.382 . S
C88 C86 1.392 . S
C89 Eu80 2.828 . S
C89 C83 1.505 . S
C89 O101 1.249 . S
C89 O102 1.244 . S
O90 Eu81 2.373 . S
O90 C92 1.258 . S
O91 Eu80 2.392 . S
O91 C92 1.242 . S
C92 O90 1.258 . S
C92 O91 1.242 . S
O93 Eu80 2.418 . S
O93 C97 1.244 . S
O94 Eu81 2.488 . S
O94 C110 1.249 . S
O95 Eu81 2.471 . S
O95 C110 1.244 . S
O96 Eu81 2.349 . S
O96 C97 1.265 . S
C97 O93 1.244 . S
C97 O96 1.265 . S
O98 Eu80 2.373 . S
O98 C111 1.258 . S
O99 Eu81 2.392 . S
O99 C111 1.242 . S
O100 Eu81 2.418 . S
O100 C82 1.244 . S
O101 Eu80 2.488 . S
O101 C89 1.249 . S
O102 Eu80 2.471 . S
O102 C89 1.244 . S
O103 Eu80 2.349 . S
O103 C82 1.265 . S
C104 C105 1.379 . S
C104 C108 1.373 . S
C104 C110 1.505 . S
C105 C104 1.379 . S
C105 C107 1.369 . S
C105 H116 0.930 . S
C106 C108 1.383 . S
C106 C109 1.382 . S
C106 H117 0.930 . S
C107 C105 1.369 . S
C107 C109 1.392 . S
C107 H118 0.930 . S
C108 C104 1.373 . S
C108 C106 1.383 . S
C108 H119 0.931 . S
C109 C106 1.382 . S
C109 C107 1.392 . S
C110 Eu81 2.828 . S
C110 O94 1.249 . S
C110 O95 1.244 . S
C110 C104 1.505 . S
C111 O98 1.258 . S
C111 O99 1.242 . S
H112 C84 0.930 . S
H113 C85 0.930 . S
H114 C86 0.930 . S
H115 C87 0.931 . S
H116 C105 0.930 . S
H117 C106 0.930 . S
H118 C107 0.930 . S
H119 C108 0.931 . S
H120 C121 0.949 . S
C121 H120 0.949 . S
C121 C122 1.395 . S
C121 C123 1.391 . S
C122 C121 1.395 . S
C122 C125 1.390 . S
C123 C121 1.391 . S
C123 C127 1.387 . S
C123 C128 1.491 . S
H124 C125 0.950 1_565 S
C125 C122 1.390 . S
C125 H124 0.950 1_545 S
C125 C126 1.378 1_545 S
C126 C125 1.378 1_565 S
C126 C127 1.409 1_565 S
C127 C123 1.387 . S
C127 C126 1.409 1_545 S
C127 H129 0.951 . S
C128 C123 1.491 . S
C128 C130 1.382 . S
C128 C132 1.404 . S
H129 C127 0.951 . S
C130 C128 1.382 . S
C130 C131 1.390 . S
C130 H135 0.949 . S
C131 C130 1.390 . S
C131 C136 1.399 . S
C132 C128 1.404 . S
C132 H133 0.950 . S
C132 C134 1.375 . S
H133 C132 0.950 . S
C134 C132 1.375 . S
C134 C136 1.382 . S
C134 H138 0.950 . S
H135 C130 0.949 . S
C136 C131 1.399 . S
C136 C134 1.382 . S
C136 H137 0.952 . S
H137 C136 0.952 . S
H138 C134 0.950 . S
H139 C140 0.949 . S
C140 H139 0.949 . S
C140 C141 1.395 . S
C140 C142 1.391 . S
C141 C140 1.395 . S
C141 C144 1.390 . S
C142 C140 1.391 . S
C142 C146 1.387 . S
C142 C147 1.491 . S
H143 C144 0.950 . S
C144 C141 1.390 . S
C144 H143 0.950 . S
C144 C145 1.378 . S
C145 C144 1.378 . S
C145 C146 1.409 . S
C146 C142 1.387 . S
C146 C145 1.409 . S
C146 H148 0.951 . S
C147 C142 1.491 . S
C147 C149 1.382 . S
C147 C151 1.404 . S
H148 C146 0.951 . S
C149 C147 1.382 . S
C149 C150 1.390 . S
C149 H154 0.949 . S
C150 C149 1.390 . S
C150 C155 1.399 . S
C151 C147 1.404 . S
C151 H152 0.950 . S
C151 C153 1.375 . S
H152 C151 0.950 . S
C153 C151 1.375 . S
C153 C155 1.382 . S
C153 H157 0.950 . S
H154 C149 0.949 . S
C155 C150 1.399 . S
C155 C153 1.382 . S
C155 H156 0.952 . S
H156 C155 0.952 . S
H157 C153 0.950 . S
H158 C159 0.949 . S
C159 H158 0.949 . S
C159 C160 1.395 . S
C159 C161 1.391 . S
C160 C159 1.395 . S
C160 C163 1.390 . S
C161 C159 1.391 . S
C161 C165 1.387 . S
C161 C166 1.491 . S
H162 C163 0.950 1_655 S
C163 C160 1.390 . S
C163 H162 0.950 1_455 S
C163 C164 1.378 1_455 S
C164 C163 1.378 1_655 S
C164 C165 1.409 1_655 S
C165 C161 1.387 . S
C165 C164 1.409 1_455 S
C165 H167 0.951 . S
C166 C161 1.491 . S
C166 C168 1.382 . S
C166 C170 1.404 . S
H167 C165 0.951 . S
C168 C166 1.382 . S
C168 C169 1.390 . S
C168 H173 0.949 . S
C169 C168 1.390 . S
C169 C174 1.399 . S
C170 C166 1.404 . S
C170 H171 0.950 . S
C170 C172 1.375 . S
H171 C170 0.950 . S
C172 C170 1.375 . S
C172 C174 1.382 . S
C172 H176 0.950 . S
H173 C168 0.949 . S
C174 C169 1.399 . S
C174 C172 1.382 . S
C174 H175 0.952 . S
H175 C174 0.952 . S
H176 C172 0.950 . S
H177 C178 0.949 1_655 S
C178 H177 0.949 1_455 S
C178 C179 1.395 . S
C178 C180 1.391 . S
C179 C178 1.395 . S
C179 C182 1.390 . S
C180 C178 1.391 . S
C180 C184 1.387 . S
C180 C185 1.491 1_455 S
H181 C182 0.950 . S
C182 C179 1.390 . S
C182 H181 0.950 . S
C182 C183 1.378 . S
C183 C182 1.378 . S
C183 C184 1.409 . S
C184 C180 1.387 . S
C184 C183 1.409 . S
C184 H186 0.951 . S
C185 C180 1.491 1_655 S
C185 C187 1.382 . S
C185 C189 1.404 . S
H186 C184 0.951 . S
C187 C185 1.382 . S
C187 C188 1.390 . S
C187 H192 0.949 . S
C188 C187 1.390 . S
C188 C193 1.399 . S
C189 C185 1.404 . S
C189 H190 0.950 . S
C189 C191 1.375 . S
H190 C189 0.950 . S
C191 C189 1.375 . S
C191 C193 1.382 . S
C191 H195 0.950 . S
H192 C187 0.949 . S
C193 C188 1.399 . S
C193 C191 1.382 . S
C193 H194 0.952 . S
H194 C193 0.952 . S
H195 C191 0.950 . S
H196 C197 0.949 . S
C197 H196 0.949 . S
C197 C198 1.395 . S
C197 C199 1.391 . S
C198 C197 1.395 . S
C198 C201 1.390 . S
C199 C197 1.391 . S
C199 C203 1.387 . S
C199 C204 1.491 . S
H200 C201 0.950 . S
C201 C198 1.390 . S
C201 H200 0.950 . S
C201 C202 1.378 . S
C202 C201 1.378 . S
C202 C203 1.409 . S
C203 C199 1.387 . S
C203 C202 1.409 . S
C203 H205 0.951 . S
C204 C199 1.491 . S
C204 C206 1.382 1_545 S
C204 C208 1.404 1_545 S
H205 C203 0.951 . S
C206 C204 1.382 1_565 S
C206 C207 1.390 . S
C206 H211 0.949 . S
C207 C206 1.390 . S
C207 C212 1.399 . S
C208 C204 1.404 1_565 S
C208 H209 0.950 1_565 S
C208 C210 1.375 . S
H209 C208 0.950 1_545 S
C210 C208 1.375 . S
C210 C212 1.382 . S
C210 H214 0.950 . S
H211 C206 0.949 . S
C212 C207 1.399 . S
C212 C210 1.382 . S
C212 H213 0.952 . S
H213 C212 0.952 . S
H214 C210 0.950 . S
H215 C216 0.949 . S
C216 H215 0.949 . S
C216 C217 1.395 . S
C216 C218 1.391 . S
C217 C216 1.395 . S
C217 C220 1.390 . S
C218 C216 1.391 . S
C218 C222 1.387 . S
C218 C223 1.491 . S
H219 C220 0.950 . S
C220 C217 1.390 . S
C220 H219 0.950 . S
C220 C221 1.378 . S
C221 C220 1.378 . S
C221 C222 1.409 . S
C222 C218 1.387 . S
C222 C221 1.409 . S
C222 H224 0.951 . S
C223 C218 1.491 . S
C223 C225 1.382 . S
C223 C227 1.404 . S
H224 C222 0.951 . S
C225 C223 1.382 . S
C225 C226 1.390 . S
C225 H230 0.949 . S
C226 C225 1.390 . S
C226 C231 1.399 . S
C227 C223 1.404 . S
C227 H228 0.950 . S
C227 C229 1.375 . S
H228 C227 0.950 . S
C229 C227 1.375 . S
C229 C231 1.382 . S
C229 H233 0.950 . S
H230 C225 0.949 . S
C231 C226 1.399 . S
C231 C229 1.382 . S
C231 H232 0.952 . S
H232 C231 0.952 . S
H233 C229 0.950 . S
C234 C235 1.391 . S
C234 C236 1.394 . S
C234 H250 0.931 . S
C235 C234 1.391 . S
C235 C239 1.376 . S
C236 C234 1.394 . S
C236 C237 1.369 . S
C236 C240 1.531 . S
C237 C236 1.369 . S
C237 C238 1.410 . S
C237 C245 1.503 . S
C238 C237 1.410 . S
C238 C239 1.392 . S
C238 C241 1.511 . S
C239 C235 1.376 . S
C239 C238 1.392 . S
C239 H251 0.929 . S
C240 C236 1.531 . S
C240 H252 0.960 . S
C240 H253 0.962 . S
C240 H254 0.960 . S
C241 C238 1.511 . S
C241 H255 0.961 . S
C241 H256 0.961 . S
C241 H257 0.961 . S
C242 C243 1.370 . S
C242 C244 1.363 . S
C242 H258 0.931 . S
C243 C242 1.370 . S
C243 C247 1.408 . S
C244 C242 1.363 . S
C244 C245 1.370 . S
C244 C248 1.524 . S
C245 C237 1.503 . S
C245 C244 1.370 . S
C245 C246 1.403 . S
C246 C245 1.403 . S
C246 C247 1.404 . S
C246 C249 1.539 . S
C247 C243 1.408 . S
C247 C246 1.404 . S
C247 H259 0.930 . S
C248 C244 1.524 . S
C248 H260 0.956 . S
C248 H261 0.961 . S
C248 H262 0.961 . S
C249 C246 1.539 . S
C249 H263 0.958 . S
C249 H264 0.961 . S
C249 H265 0.960 . S
H250 C234 0.931 . S
H251 C239 0.929 . S
H252 C240 0.960 . S
H253 C240 0.962 . S
H254 C240 0.960 . S
H255 C241 0.961 . S
H256 C241 0.961 . S
H257 C241 0.961 . S
H258 C242 0.931 . S
H259 C247 0.930 . S
H260 C248 0.956 . S
H261 C248 0.961 . S
H262 C248 0.961 . S
H263 C249 0.958 . S
H264 C249 0.961 . S
H265 C249 0.960 . S
C266 C267 1.391 . S
C266 C268 1.394 . S
C266 H282 0.931 . S
C267 C266 1.391 . S
C267 C271 1.376 . S
C268 C266 1.394 . S
C268 C269 1.369 . S
C268 C272 1.531 . S
C269 C268 1.369 . S
C269 C270 1.410 . S
C269 C277 1.503 . S
C270 C269 1.410 . S
C270 C271 1.392 . S
C270 C273 1.511 . S
C271 C267 1.376 . S
C271 C270 1.392 . S
C271 H283 0.929 . S
C272 C268 1.531 . S
C272 H284 0.960 . S
C272 H285 0.962 . S
C272 H286 0.960 . S
C273 C270 1.511 . S
C273 H287 0.961 . S
C273 H288 0.961 . S
C273 H289 0.961 . S
C274 C275 1.370 . S
C274 C276 1.363 . S
C274 H290 0.931 . S
C275 C274 1.370 . S
C275 C279 1.408 . S
C276 C274 1.363 . S
C276 C277 1.370 . S
C276 C280 1.524 . S
C277 C269 1.503 . S
C277 C276 1.370 . S
C277 C278 1.403 . S
C278 C277 1.403 . S
C278 C279 1.404 . S
C278 C281 1.539 . S
C279 C275 1.408 . S
C279 C278 1.404 . S
C279 H291 0.930 . S
C280 C276 1.524 . S
C280 H292 0.956 . S
C280 H293 0.961 . S
C280 H294 0.961 . S
C281 C278 1.539 . S
C281 H295 0.958 . S
C281 H296 0.961 . S
C281 H297 0.960 . S
H282 C266 0.931 . S
H283 C271 0.929 . S
H284 C272 0.960 . S
H285 C272 0.962 . S
H286 C272 0.960 . S
H287 C273 0.961 . S
H288 C273 0.961 . S
H289 C273 0.961 . S
H290 C274 0.931 . S
H291 C279 0.930 . S
H292 C280 0.956 . S
H293 C280 0.961 . S
H294 C280 0.961 . S
H295 C281 0.958 . S
H296 C281 0.961 . S
H297 C281 0.960 . S
C298 C299 1.391 . S
C298 C300 1.394 . S
C298 H314 0.931 . S
C299 C298 1.391 . S
C299 C303 1.376 . S
C300 C298 1.394 . S
C300 C301 1.369 . S
C300 C304 1.531 . S
C301 C300 1.369 . S
C301 C302 1.410 . S
C301 C309 1.503 . S
C302 C301 1.410 . S
C302 C303 1.392 . S
C302 C305 1.511 . S
C303 C299 1.376 . S
C303 C302 1.392 . S
C303 H315 0.929 . S
C304 C300 1.531 . S
C304 H316 0.960 . S
C304 H317 0.962 . S
C304 H318 0.960 . S
C305 C302 1.511 . S
C305 H319 0.961 . S
C305 H320 0.961 . S
C305 H321 0.961 . S
C306 C307 1.370 . S
C306 C308 1.363 . S
C306 H322 0.931 . S
C307 C306 1.370 . S
C307 C311 1.408 . S
C308 C306 1.363 . S
C308 C309 1.370 . S
C308 C312 1.524 . S
C309 C301 1.503 . S
C309 C308 1.370 . S
C309 C310 1.403 . S
C310 C309 1.403 . S
C310 C311 1.404 . S
C310 C313 1.539 . S
C311 C307 1.408 . S
C311 C310 1.404 . S
C311 H323 0.930 . S
C312 C308 1.524 . S
C312 H324 0.956 . S
C312 H325 0.961 . S
C312 H326 0.961 . S
C313 C310 1.539 . S
C313 H327 0.958 . S
C313 H328 0.961 . S
C313 H329 0.960 . S
H314 C298 0.931 . S
H315 C303 0.929 . S
H316 C304 0.960 . S
H317 C304 0.962 . S
H318 C304 0.960 . S
H319 C305 0.961 . S
H320 C305 0.961 . S
H321 C305 0.961 . S
H322 C306 0.931 . S
H323 C311 0.930 . S
H324 C312 0.956 . S
H325 C312 0.961 . S
H326 C312 0.961 . S
H327 C313 0.958 . S
H328 C313 0.961 . S
H329 C313 0.960 . S
C330 C331 1.391 . S
C330 C332 1.394 . S
C330 H346 0.931 . S
C331 C330 1.391 . S
C331 C335 1.376 . S
C332 C330 1.394 . S
C332 C333 1.369 . S
C332 C336 1.531 . S
C333 C332 1.369 . S
C333 C334 1.410 . S
C333 C341 1.503 . S
C334 C333 1.410 . S
C334 C335 1.392 . S
C334 C337 1.511 . S
C335 C331 1.376 . S
C335 C334 1.392 . S
C335 H347 0.929 . S
C336 C332 1.531 . S
C336 H348 0.960 . S
C336 H349 0.962 . S
C336 H350 0.960 . S
C337 C334 1.511 . S
C337 H351 0.961 . S
C337 H352 0.961 . S
C337 H353 0.961 . S
C338 C339 1.370 . S
C338 C340 1.363 . S
C338 H354 0.931 . S
C339 C338 1.370 . S
C339 C343 1.408 . S
C340 C338 1.363 . S
C340 C341 1.370 . S
C340 C344 1.524 . S
C341 C333 1.503 . S
C341 C340 1.370 . S
C341 C342 1.403 . S
C342 C341 1.403 . S
C342 C343 1.404 . S
C342 C345 1.539 . S
C343 C339 1.408 . S
C343 C342 1.404 . S
C343 H355 0.930 . S
C344 C340 1.524 . S
C344 H356 0.956 . S
C344 H357 0.961 . S
C344 H358 0.961 . S
C345 C342 1.539 . S
C345 H359 0.958 . S
C345 H360 0.961 . S
C345 H361 0.960 . S
H346 C330 0.931 . S
H347 C335 0.929 . S
H348 C336 0.960 . S
H349 C336 0.962 . S
H350 C336 0.960 . S
H351 C337 0.961 . S
H352 C337 0.961 . S
H353 C337 0.961 . S
H354 C338 0.931 . S
H355 C343 0.930 . S
H356 C344 0.956 . S
H357 C344 0.961 . S
H358 C344 0.961 . S
H359 C345 0.958 . S
H360 C345 0.961 . S
H361 C345 0.960 . S
C362 C363 1.391 . S
C362 C364 1.394 . S
C362 H378 0.931 . S
C363 C362 1.391 . S
C363 C367 1.376 . S
C364 C362 1.394 . S
C364 C365 1.369 . S
C364 C368 1.531 . S
C365 C364 1.369 . S
C365 C366 1.410 . S
C365 C373 1.503 . S
C366 C365 1.410 . S
C366 C367 1.392 . S
C366 C369 1.511 . S
C367 C363 1.376 . S
C367 C366 1.392 . S
C367 H379 0.929 . S
C368 C364 1.531 . S
C368 H380 0.960 . S
C368 H381 0.962 . S
C368 H382 0.960 . S
C369 C366 1.511 . S
C369 H383 0.961 . S
C369 H384 0.961 . S
C369 H385 0.961 . S
C370 C371 1.370 . S
C370 C372 1.363 . S
C370 H386 0.931 . S
C371 C370 1.370 . S
C371 C375 1.408 . S
C372 C370 1.363 . S
C372 C373 1.370 . S
C372 C376 1.524 . S
C373 C365 1.503 . S
C373 C372 1.370 . S
C373 C374 1.403 . S
C374 C373 1.403 . S
C374 C375 1.404 . S
C374 C377 1.539 . S
C375 C371 1.408 . S
C375 C374 1.404 . S
C375 H387 0.930 . S
C376 C372 1.524 . S
C376 H388 0.956 . S
C376 H389 0.961 . S
C376 H390 0.961 . S
C377 C374 1.539 . S
C377 H391 0.958 . S
C377 H392 0.961 . S
C377 H393 0.960 . S
H378 C362 0.931 . S
H379 C367 0.929 . S
H380 C368 0.960 . S
H381 C368 0.962 . S
H382 C368 0.960 . S
H383 C369 0.961 . S
H384 C369 0.961 . S
H385 C369 0.961 . S
H386 C370 0.931 . S
H387 C375 0.930 . S
H388 C376 0.956 . S
H389 C376 0.961 . S
H390 C376 0.961 . S
H391 C377 0.958 . S
H392 C377 0.961 . S
H393 C377 0.960 . S
C394 C395 1.391 . S
C394 C396 1.394 . S
C394 H410 0.931 . S
C395 C394 1.391 . S
C395 C399 1.376 . S
C396 C394 1.394 . S
C396 C397 1.369 . S
C396 C400 1.531 . S
C397 C396 1.369 . S
C397 C398 1.410 . S
C397 C405 1.503 . S
C398 C397 1.410 . S
C398 C399 1.392 . S
C398 C401 1.511 . S
C399 C395 1.376 . S
C399 C398 1.392 . S
C399 H411 0.929 . S
C400 C396 1.531 . S
C400 H412 0.960 . S
C400 H413 0.962 . S
C400 H414 0.960 . S
C401 C398 1.511 . S
C401 H415 0.961 . S
C401 H416 0.961 . S
C401 H417 0.961 . S
C402 C403 1.370 . S
C402 C404 1.363 . S
C402 H418 0.931 . S
C403 C402 1.370 . S
C403 C407 1.408 . S
C404 C402 1.363 . S
C404 C405 1.370 . S
C404 C408 1.524 . S
C405 C397 1.503 . S
C405 C404 1.370 . S
C405 C406 1.403 . S
C406 C405 1.403 . S
C406 C407 1.404 . S
C406 C409 1.539 . S
C407 C403 1.408 . S
C407 C406 1.404 . S
C407 H419 0.930 . S
C408 C404 1.524 . S
C408 H420 0.956 . S
C408 H421 0.961 . S
C408 H422 0.961 . S
C409 C406 1.539 . S
C409 H423 0.958 . S
C409 H424 0.961 . S
C409 H425 0.960 . S
H410 C394 0.931 . S
H411 C399 0.929 . S
H412 C400 0.960 . S
H413 C400 0.962 . S
H414 C400 0.960 . S
H415 C401 0.961 . S
H416 C401 0.961 . S
H417 C401 0.961 . S
H418 C402 0.931 . S
H419 C407 0.930 . S
H420 C408 0.956 . S
H421 C408 0.961 . S
H422 C408 0.961 . S
H423 C409 0.958 . S
H424 C409 0.961 . S
H425 C409 0.960 . S
C426 C427 1.391 . S
C426 C428 1.394 . S
C426 H442 0.931 . S
C427 C426 1.391 . S
C427 C431 1.376 . S
C428 C426 1.394 . S
C428 C429 1.369 . S
C428 C432 1.531 . S
C429 C428 1.369 . S
C429 C430 1.410 . S
C429 C437 1.503 . S
C430 C429 1.410 . S
C430 C431 1.392 . S
C430 C433 1.511 . S
C431 C427 1.376 . S
C431 C430 1.392 . S
C431 H443 0.929 . S
C432 C428 1.531 . S
C432 H444 0.960 . S
C432 H445 0.962 . S
C432 H446 0.960 . S
C433 C430 1.511 . S
C433 H447 0.961 . S
C433 H448 0.961 . S
C433 H449 0.961 . S
C434 C435 1.370 . S
C434 C436 1.363 . S
C434 H450 0.931 . S
C435 C434 1.370 . S
C435 C439 1.408 . S
C436 C434 1.363 . S
C436 C437 1.370 . S
C436 C440 1.524 . S
C437 C429 1.503 . S
C437 C436 1.370 . S
C437 C438 1.403 . S
C438 C437 1.403 . S
C438 C439 1.404 . S
C438 C441 1.539 . S
C439 C435 1.408 . S
C439 C438 1.404 . S
C439 H451 0.930 . S
C440 C436 1.524 . S
C440 H452 0.956 . S
C440 H453 0.961 . S
C440 H454 0.961 . S
C441 C438 1.539 . S
C441 H455 0.958 . S
C441 H456 0.961 . S
C441 H457 0.960 . S
H442 C426 0.931 . S
H443 C431 0.929 . S
H444 C432 0.960 . S
H445 C432 0.962 . S
H446 C432 0.960 . S
H447 C433 0.961 . S
H448 C433 0.961 . S
H449 C433 0.961 . S
H450 C434 0.931 . S
H451 C439 0.930 . S
H452 C440 0.956 . S
H453 C440 0.961 . S
H454 C440 0.961 . S
H455 C441 0.958 . S
H456 C441 0.961 . S
H457 C441 0.960 . S
C458 C459 1.391 . S
C458 C460 1.394 . S
C458 H474 0.931 . S
C459 C458 1.391 . S
C459 C463 1.376 . S
C460 C458 1.394 . S
C460 C461 1.369 . S
C460 C464 1.531 . S
C461 C460 1.369 . S
C461 C462 1.410 . S
C461 C469 1.503 . S
C462 C461 1.410 . S
C462 C463 1.392 . S
C462 C465 1.511 . S
C463 C459 1.376 . S
C463 C462 1.392 . S
C463 H475 0.929 . S
C464 C460 1.531 . S
C464 H476 0.960 . S
C464 H477 0.962 . S
C464 H478 0.960 . S
C465 C462 1.511 . S
C465 H479 0.961 . S
C465 H480 0.961 . S
C465 H481 0.961 . S
C466 C467 1.370 . S
C466 C468 1.363 . S
C466 H482 0.931 . S
C467 C466 1.370 . S
C467 C471 1.407 1_655 S
C468 C466 1.363 . S
C468 C469 1.370 . S
C468 C472 1.524 . S
C469 C461 1.503 . S
C469 C468 1.370 . S
C469 C470 1.403 . S
C470 C469 1.403 . S
C470 C471 1.407 1_655 S
C470 C473 1.539 . S
C471 C467 1.407 1_455 S
C471 C470 1.407 1_455 S
C471 H483 0.928 . S
C472 C468 1.524 . S
C472 H484 0.956 . S
C472 H485 0.961 . S
C472 H486 0.961 . S
C473 C470 1.539 . S
C473 H487 0.958 . S
C473 H488 0.961 . S
C473 H489 0.960 . S
H474 C458 0.931 . S
H475 C463 0.929 . S
H476 C464 0.960 . S
H477 C464 0.962 . S
H478 C464 0.960 . S
H479 C465 0.961 . S
H480 C465 0.961 . S
H481 C465 0.961 . S
H482 C466 0.931 . S
H483 C471 0.928 . S
H484 C472 0.956 . S
H485 C472 0.961 . S
H486 C472 0.961 . S
H487 C473 0.958 . S
H488 C473 0.961 . S
H489 C473 0.960 . S
C490 C491 1.391 . S
C490 C492 1.394 . S
C490 H506 0.931 . S
C491 C490 1.391 . S
C491 C495 1.376 . S
C492 C490 1.394 . S
C492 C493 1.369 . S
C492 C496 1.531 . S
C493 C492 1.369 . S
C493 C494 1.410 . S
C493 C501 1.503 . S
C494 C493 1.410 . S
C494 C495 1.392 . S
C494 C497 1.511 . S
C495 C491 1.376 . S
C495 C494 1.392 . S
C495 H507 0.929 . S
C496 C492 1.531 . S
C496 H508 0.960 . S
C496 H509 0.962 . S
C496 H510 0.960 . S
C497 C494 1.511 . S
C497 H511 0.961 . S
C497 H512 0.961 . S
C497 H513 0.961 . S
C498 C499 1.370 . S
C498 C500 1.363 . S
C498 H514 0.931 . S
C499 C498 1.370 . S
C499 C503 1.408 . S
C500 C498 1.363 . S
C500 C501 1.370 . S
C500 C504 1.524 . S
C501 C493 1.503 . S
C501 C500 1.370 . S
C501 C502 1.403 . S
C502 C501 1.403 . S
C502 C503 1.404 . S
C502 C505 1.539 . S
C503 C499 1.408 . S
C503 C502 1.404 . S
C503 H515 0.930 1_565 S
C504 C500 1.524 . S
C504 H516 0.956 . S
C504 H517 0.961 . S
C504 H518 0.961 . S
C505 C502 1.539 . S
C505 H519 0.958 . S
C505 H520 0.961 . S
C505 H521 0.960 . S
H506 C490 0.931 . S
H507 C495 0.929 . S
H508 C496 0.960 . S
H509 C496 0.962 . S
H510 C496 0.960 . S
H511 C497 0.961 . S
H512 C497 0.961 . S
H513 C497 0.961 . S
H514 C498 0.931 . S
H515 C503 0.930 1_545 S
H516 C504 0.956 . S
H517 C504 0.961 . S
H518 C504 0.961 . S
H519 C505 0.958 . S
H520 C505 0.961 . S
H521 C505 0.960 . S
C522 C523 1.391 . S
C522 C524 1.394 . S
C522 H538 0.931 . S
C523 C522 1.391 . S
C523 C527 1.376 . S
C524 C522 1.394 . S
C524 C525 1.369 . S
C524 C528 1.531 . S
C525 C524 1.369 . S
C525 C526 1.410 . S
C525 C533 1.503 . S
C526 C525 1.410 . S
C526 C527 1.392 . S
C526 C529 1.511 . S
C527 C523 1.376 . S
C527 C526 1.392 . S
C527 H539 0.929 . S
C528 C524 1.531 . S
C528 H540 0.960 . S
C528 H541 0.962 . S
C528 H542 0.960 . S
C529 C526 1.511 . S
C529 H543 0.961 . S
C529 H544 0.961 . S
C529 H545 0.961 . S
C530 C531 1.370 . S
C530 C532 1.363 . S
C530 H546 0.931 . S
C531 C530 1.370 . S
C531 C535 1.408 . S
C532 C530 1.363 . S
C532 C533 1.370 . S
C532 C536 1.524 . S
C533 C525 1.503 . S
C533 C532 1.370 . S
C533 C534 1.403 . S
C534 C533 1.403 . S
C534 C535 1.404 . S
C534 C537 1.539 . S
C535 C531 1.408 . S
C535 C534 1.404 . S
C535 H547 0.930 . S
C536 C532 1.524 . S
C536 H548 0.956 . S
C536 H549 0.961 . S
C536 H550 0.961 . S
C537 C534 1.539 . S
C537 H551 0.958 . S
C537 H552 0.961 . S
C537 H553 0.960 . S
H538 C522 0.931 . S
H539 C527 0.929 . S
H540 C528 0.960 . S
H541 C528 0.962 . S
H542 C528 0.960 . S
H543 C529 0.961 . S
H544 C529 0.961 . S
H545 C529 0.961 . S
H546 C530 0.931 . S
H547 C535 0.930 . S
H548 C536 0.956 . S
H549 C536 0.961 . S
H550 C536 0.961 . S
H551 C537 0.958 . S
H552 C537 0.961 . S
H553 C537 0.960 . S
C554 C555 1.391 . S
C554 C556 1.394 . S
C554 H570 0.931 . S
C555 C554 1.391 . S
C555 C559 1.376 . S
C556 C554 1.394 . S
C556 C557 1.369 . S
C556 C560 1.531 . S
C557 C556 1.369 . S
C557 C558 1.410 . S
C557 C565 1.503 . S
C558 C557 1.410 . S
C558 C559 1.392 . S
C558 C561 1.511 . S
C559 C555 1.376 . S
C559 C558 1.392 . S
C559 H571 0.929 . S
C560 C556 1.531 . S
C560 H572 0.960 . S
C560 H573 0.962 . S
C560 H574 0.960 . S
C561 C558 1.511 . S
C561 H575 0.961 . S
C561 H576 0.961 . S
C561 H577 0.961 . S
C562 C563 1.370 . S
C562 C564 1.363 . S
C562 H578 0.931 . S
C563 C562 1.370 . S
C563 C567 1.408 . S
C564 C562 1.363 . S
C564 C565 1.370 . S
C564 C568 1.524 . S
C565 C557 1.503 . S
C565 C564 1.370 . S
C565 C566 1.403 . S
C566 C565 1.403 . S
C566 C567 1.404 . S
C566 C569 1.539 . S
C567 C563 1.408 . S
C567 C566 1.404 . S
C567 H579 0.930 . S
C568 C564 1.524 . S
C568 H580 0.956 . S
C568 H581 0.961 . S
C568 H582 0.961 . S
C569 C566 1.539 . S
C569 H583 0.958 . S
C569 H584 0.961 . S
C569 H585 0.960 . S
H570 C554 0.931 . S
H571 C559 0.929 . S
H572 C560 0.960 . S
H573 C560 0.962 . S
H574 C560 0.960 . S
H575 C561 0.961 . S
H576 C561 0.961 . S
H577 C561 0.961 . S
H578 C562 0.931 . S
H579 C567 0.930 . S
H580 C568 0.956 . S
H581 C568 0.961 . S
H582 C568 0.961 . S
H583 C569 0.958 . S
H584 C569 0.961 . S
H585 C569 0.960 . S
C586 C587 1.391 . S
C586 C588 1.394 . S
C586 H602 0.931 . S
C587 C586 1.391 . S
C587 C591 1.376 . S
C588 C586 1.394 . S
C588 C589 1.369 . S
C588 C592 1.531 . S
C589 C588 1.369 . S
C589 C590 1.410 . S
C589 C597 1.503 . S
C590 C589 1.410 . S
C590 C591 1.392 . S
C590 C593 1.511 . S
C591 C587 1.376 . S
C591 C590 1.392 . S
C591 H603 0.929 . S
C592 C588 1.531 . S
C592 H604 0.960 . S
C592 H605 0.962 . S
C592 H606 0.960 . S
C593 C590 1.511 . S
C593 H607 0.961 . S
C593 H608 0.961 . S
C593 H609 0.961 . S
C594 C595 1.370 . S
C594 C596 1.363 . S
C594 H610 0.931 . S
C595 C594 1.370 . S
C595 C599 1.408 . S
C596 C594 1.363 . S
C596 C597 1.370 . S
C596 C600 1.524 . S
C597 C589 1.503 . S
C597 C596 1.370 . S
C597 C598 1.403 . S
C598 C597 1.403 . S
C598 C599 1.404 . S
C598 C601 1.539 . S
C599 C595 1.408 . S
C599 C598 1.404 . S
C599 H611 0.930 . S
C600 C596 1.524 . S
C600 H612 0.956 . S
C600 H613 0.961 . S
C600 H614 0.961 . S
C601 C598 1.539 . S
C601 H615 0.958 . S
C601 H616 0.961 . S
C601 H617 0.960 . S
H602 C586 0.931 . S
H603 C591 0.929 . S
H604 C592 0.960 . S
H605 C592 0.962 . S
H606 C592 0.960 . S
H607 C593 0.961 . S
H608 C593 0.961 . S
H609 C593 0.961 . S
H610 C594 0.931 . S
H611 C599 0.930 . S
H612 C600 0.956 . S
H613 C600 0.961 . S
H614 C600 0.961 . S
H615 C601 0.958 . S
H616 C601 0.961 . S
H617 C601 0.960 . S
C618 C619 1.391 . S
C618 C620 1.394 . S
C618 H634 0.931 . S
C619 C618 1.391 . S
C619 C623 1.376 . S
C620 C618 1.394 . S
C620 C621 1.369 . S
C620 C624 1.531 . S
C621 C620 1.369 . S
C621 C622 1.410 . S
C621 C629 1.473 1_554 S
C622 C621 1.410 . S
C622 C623 1.392 . S
C622 C625 1.511 . S
C623 C619 1.376 . S
C623 C622 1.392 . S
C623 H635 0.929 . S
C624 C620 1.531 . S
C624 H636 0.960 . S
C624 H637 0.962 1_455 S
C624 H638 0.960 . S
C625 C622 1.511 . S
C625 H639 0.961 . S
C625 H640 0.961 . S
C625 H641 0.961 . S
C626 C627 1.370 . S
C626 C628 1.363 . S
C626 H642 0.931 1_455 S
C627 C626 1.370 . S
C627 C631 1.408 . S
C628 C626 1.363 . S
C628 C629 1.385 . S
C628 C632 1.524 1_455 S
C629 C621 1.473 1_556 S
C629 C628 1.385 . S
C629 C630 1.419 . S
C630 C629 1.419 . S
C630 C631 1.404 . S
C630 C633 1.539 1_556 S
C631 C627 1.408 . S
C631 C630 1.404 . S
C631 H643 0.930 . S
C632 C628 1.524 1_655 S
C632 H644 0.956 . S
C632 H645 0.961 1_556 S
C632 H646 0.961 . S
C633 C630 1.539 1_554 S
C633 H647 0.958 . S
C633 H648 0.961 . S
C633 H649 0.960 . S
H634 C618 0.931 . S
H635 C623 0.929 . S
H636 C624 0.960 . S
H637 C624 0.962 1_655 S
H638 C624 0.960 . S
H639 C625 0.961 . S
H640 C625 0.961 . S
H641 C625 0.961 . S
H642 C626 0.931 1_655 S
H643 C631 0.930 . S
H644 C632 0.956 . S
H645 C632 0.961 1_554 S
H646 C632 0.961 . S
H647 C633 0.958 . S
H648 C633 0.961 . S
H649 C633 0.960 . S
C650 C651 1.391 . S
C650 C652 1.394 . S
C650 H666 0.931 . S
C651 C650 1.391 . S
C651 C655 1.376 . S
C652 C650 1.394 . S
C652 C653 1.369 . S
C652 C656 1.531 . S
C653 C652 1.369 . S
C653 C654 1.410 . S
C653 C661 1.503 . S
C654 C653 1.410 . S
C654 C655 1.392 . S
C654 C657 1.511 . S
C655 C651 1.376 . S
C655 C654 1.392 . S
C655 H667 0.929 . S
C656 C652 1.531 . S
C656 H668 0.960 . S
C656 H669 0.962 . S
C656 H670 0.960 . S
C657 C654 1.511 . S
C657 H671 0.961 . S
C657 H672 0.961 . S
C657 H673 0.961 . S
C658 C659 1.370 . S
C658 C660 1.363 . S
C658 H674 0.931 1_545 S
C659 C658 1.370 . S
C659 C663 1.408 . S
C660 C658 1.363 . S
C660 C661 1.370 . S
C660 C664 1.524 1_545 S
C661 C653 1.503 . S
C661 C660 1.370 . S
C661 C662 1.403 . S
C662 C661 1.403 . S
C662 C663 1.404 . S
C662 C665 1.539 . S
C663 C659 1.408 . S
C663 C662 1.404 . S
C663 H675 0.930 . S
C664 C660 1.524 1_565 S
C664 H676 0.956 . S
C664 H677 0.961 . S
C664 H678 0.961 . S
C665 C662 1.539 . S
C665 H679 0.958 . S
C665 H680 0.961 . S
C665 H681 0.960 . S
H666 C650 0.931 . S
H667 C655 0.929 . S
H668 C656 0.960 . S
H669 C656 0.962 . S
H670 C656 0.960 . S
H671 C657 0.961 . S
H672 C657 0.961 . S
H673 C657 0.961 . S
H674 C658 0.931 1_565 S
H675 C663 0.930 . S
H676 C664 0.956 . S
H677 C664 0.961 . S
H678 C664 0.961 . S
H679 C665 0.958 . S
H680 C665 0.961 . S
H681 C665 0.960 . S
C682 C683 1.391 . S
C682 C684 1.394 . S
C682 H698 0.931 . S
C683 C682 1.391 . S
C683 C687 1.376 . S
C684 C682 1.394 . S
C684 C685 1.369 . S
C684 C688 1.531 . S
C685 C684 1.369 . S
C685 C686 1.410 . S
C685 C693 1.503 . S
C686 C685 1.410 . S
C686 C687 1.392 . S
C686 C689 1.511 . S
C687 C683 1.376 . S
C687 C686 1.392 . S
C687 H699 0.929 . S
C688 C684 1.531 . S
C688 H700 0.960 . S
C688 H701 0.962 . S
C688 H702 0.960 . S
C689 C686 1.511 . S
C689 H703 0.961 . S
C689 H704 0.961 . S
C689 H705 0.961 . S
C690 C691 1.370 . S
C690 C692 1.363 . S
C690 H706 0.931 . S
C691 C690 1.370 . S
C691 C695 1.408 . S
C692 C690 1.363 . S
C692 C693 1.370 . S
C692 C696 1.524 . S
C693 C685 1.503 . S
C693 C692 1.370 . S
C693 C694 1.403 . S
C694 C693 1.403 . S
C694 C695 1.404 . S
C694 C697 1.539 . S
C695 C691 1.408 . S
C695 C694 1.404 . S
C695 H707 0.930 . S
C696 C692 1.524 . S
C696 H708 0.956 . S
C696 H709 0.961 . S
C696 H710 0.961 . S
C697 C694 1.539 . S
C697 H711 0.958 . S
C697 H712 0.961 . S
C697 H713 0.960 . S
H698 C682 0.931 . S
H699 C687 0.929 . S
H700 C688 0.960 . S
H701 C688 0.962 . S
H702 C688 0.960 . S
H703 C689 0.961 . S
H704 C689 0.961 . S
H705 C689 0.961 . S
H706 C690 0.931 . S
H707 C695 0.930 . S
H708 C696 0.956 . S
H709 C696 0.961 . S
H710 C696 0.961 . S
H711 C697 0.958 . S
H712 C697 0.961 . S
H713 C697 0.960 . S
C714 C715 1.391 . S
C714 C716 1.394 . S
C714 H730 0.931 . S
C715 C714 1.391 . S
C715 C719 1.376 . S
C716 C714 1.394 . S
C716 C717 1.369 . S
C716 C720 1.531 . S
C717 C716 1.369 . S
C717 C718 1.410 . S
C717 C725 1.503 . S
C718 C717 1.410 . S
C718 C719 1.392 . S
C718 C721 1.511 . S
C719 C715 1.376 . S
C719 C718 1.392 . S
C719 H731 0.929 . S
C720 C716 1.531 . S
C720 H732 0.960 1_545 S
C720 H733 0.962 . S
C720 H734 0.960 1_545 S
C721 C718 1.511 . S
C721 H735 0.961 . S
C721 H736 0.961 . S
C721 H737 0.961 . S
C722 C723 1.370 . S
C722 C724 1.363 . S
C722 H738 0.931 . S
C723 C722 1.370 . S
C723 C727 1.408 . S
C724 C722 1.363 . S
C724 C725 1.370 . S
C724 C728 1.524 . S
C725 C717 1.503 . S
C725 C724 1.370 . S
C725 C726 1.403 . S
C726 C725 1.403 . S
C726 C727 1.404 . S
C726 C729 1.539 1_545 S
C727 C723 1.408 . S
C727 C726 1.404 . S
C727 H739 0.930 1_545 S
C728 C724 1.524 . S
C728 H740 0.956 . S
C728 H741 0.961 . S
C728 H742 0.961 . S
C729 C726 1.539 1_565 S
C729 H743 0.958 . S
C729 H744 0.961 . S
C729 H745 0.960 . S
H730 C714 0.931 . S
H731 C719 0.929 . S
H732 C720 0.960 1_565 S
H733 C720 0.962 . S
H734 C720 0.960 1_565 S
H735 C721 0.961 . S
H736 C721 0.961 . S
H737 C721 0.961 . S
H738 C722 0.931 . S
H739 C727 0.930 1_565 S
H740 C728 0.956 . S
H741 C728 0.961 . S
H742 C728 0.961 . S
H743 C729 0.958 . S
H744 C729 0.961 . S
H745 C729 0.960 . S
C746 C747 1.391 . S
C746 C748 1.394 . S
C746 H762 0.931 . S
C747 C746 1.391 . S
C747 C751 1.376 . S
C748 C746 1.394 . S
C748 C749 1.369 . S
C748 C752 1.531 . S
C749 C748 1.369 . S
C749 C750 1.410 . S
C749 C757 1.503 1_556 S
C750 C749 1.410 . S
C750 C751 1.392 . S
C750 C753 1.511 . S
C751 C747 1.376 . S
C751 C750 1.392 . S
C751 H763 0.929 . S
C752 C748 1.531 . S
C752 H764 0.940 1_556 S
C752 H765 0.962 . S
C752 H766 0.960 . S
C753 C750 1.511 . S
C753 H767 0.961 . S
C753 H768 0.961 . S
C753 H769 0.961 . S
C754 C755 1.370 . S
C754 C756 1.363 . S
C754 H770 0.931 . S
C755 C754 1.370 . S
C755 C759 1.408 . S
C756 C754 1.363 . S
C756 C757 1.370 . S
C756 C760 1.524 . S
C757 C749 1.503 1_554 S
C757 C756 1.370 . S
C757 C758 1.403 . S
C758 C757 1.403 . S
C758 C759 1.404 . S
C758 C761 1.539 1_554 S
C759 C755 1.408 . S
C759 C758 1.404 . S
C759 H771 0.930 . S
C760 C756 1.524 . S
C760 H772 0.956 . S
C760 H773 0.961 1_554 S
C760 H774 0.961 . S
C761 C758 1.539 1_556 S
C761 H775 0.958 . S
C761 H776 0.961 1_556 S
C761 H777 0.960 . S
H762 C746 0.931 . S
H763 C751 0.929 . S
H764 C752 0.940 1_554 S
H765 C752 0.962 . S
H766 C752 0.960 . S
H767 C753 0.961 . S
H768 C753 0.961 . S
H769 C753 0.961 . S
H770 C754 0.931 . S
H771 C759 0.930 . S
H772 C760 0.956 . S
H773 C760 0.961 1_556 S
H774 C760 0.961 . S
H775 C761 0.958 . S
H776 C761 0.961 1_554 S
H777 C761 0.960 . S
C778 C779 1.391 1_655 S
C778 C780 1.394 . S
C778 H794 0.931 . S
C779 C778 1.391 1_455 S
C779 C783 1.376 . S
C780 C778 1.394 . S
C780 C781 1.369 1_655 S
C780 C784 1.531 . S
C781 C780 1.369 1_455 S
C781 C782 1.410 . S
C781 C789 1.503 . S
C782 C781 1.410 . S
C782 C783 1.392 . S
C782 C785 1.511 . S
C783 C779 1.376 . S
C783 C782 1.392 . S
C783 H795 0.929 . S
C784 C780 1.531 . S
C784 H796 0.960 . S
C784 H797 0.962 . S
C784 H798 0.960 . S
C785 C782 1.511 . S
C785 H799 0.961 . S
C785 H800 0.961 . S
C785 H801 0.961 . S
C786 C787 1.370 . S
C786 C788 1.363 . S
C786 H802 0.931 . S
C787 C786 1.370 . S
C787 C791 1.408 . S
C788 C786 1.363 . S
C788 C789 1.370 . S
C788 C792 1.524 . S
C789 C781 1.503 . S
C789 C788 1.370 . S
C789 C790 1.403 . S
C790 C789 1.403 . S
C790 C791 1.404 . S
C790 C793 1.539 . S
C791 C787 1.408 . S
C791 C790 1.404 . S
C791 H803 0.930 . S
C792 C788 1.524 . S
C792 H804 0.956 1_455 S
C792 H805 0.961 . S
C792 H806 0.961 . S
C793 C790 1.539 . S
C793 H807 0.958 . S
C793 H808 0.961 . S
C793 H809 0.960 . S
H794 C778 0.931 . S
H795 C783 0.929 . S
H796 C784 0.960 . S
H797 C784 0.962 . S
H798 C784 0.960 . S
H799 C785 0.961 . S
H800 C785 0.961 . S
H801 C785 0.961 . S
H802 C786 0.931 . S
H803 C791 0.930 . S
H804 C792 0.956 1_655 S
H805 C792 0.961 . S
H806 C792 0.961 . S
H807 C793 0.958 . S
H808 C793 0.961 . S
H809 C793 0.960 . S
C235 C12 3.081 . S
C243 C226 3.008 . S
C267 C52 3.086 . S
C275 C188 3.002 . S
C299 C111 3.107 . S
C307 C207 3.027 . S
C331 C31 3.037 . S
C339 C221 2.989 . S
C371 C183 2.998 . S
C363 C71 3.038 . S
C403 C202 2.960 . S
C395 C92 2.998 . S
C427 C48 0.695 . S
C435 C150 0.663 . S
C459 C109 0.251 . S
C467 C164 0.184 . S
C491 C29 0.142 . S
C499 C126 0.161 . S
C531 C145 0.320 . S
C523 C69 0.249 . S
C563 C169 0.454 . S
C555 C88 0.427 . S
C587 C8 0.422 . S
C595 C131 0.568 . S
C627 C160 1.348 . S
C619 C17 1.320 . S
C651 C57 1.273 . S
C659 C122 1.321 . S
C683 C97 1.330 . S
C691 C141 1.348 . S
C723 C198 1.724 . S
C715 C42 1.719 . S
C755 C217 1.744 . S
C747 C82 1.726 . S
C779 C2 1.746 . S
C787 C179 1.745 . S
