# Generated by pormake.
# Topology eea, (3,6)-cn, num edge types: 1
# Building blocks:
#     Node 0, Type 0, BuildingBlock: QEWDON_clean_linker_0, # of connection points: 3
#     Node 1, Type 0, BuildingBlock: QEWDON_clean_linker_0, # of connection points: 3
#     Node 2, Type 0, BuildingBlock: QEWDON_clean_linker_0, # of connection points: 3
#     Node 3, Type 0, BuildingBlock: QEWDON_clean_linker_0, # of connection points: 3
#     Node 4, Type 0, BuildingBlock: QEWDON_clean_linker_0, # of connection points: 3
#     Node 5, Type 0, BuildingBlock: QEWDON_clean_linker_0, # of connection points: 3
#     Node 6, Type 0, BuildingBlock: QEWDON_clean_linker_0, # of connection points: 3
#     Node 7, Type 0, BuildingBlock: QEWDON_clean_linker_0, # of connection points: 3
#     Node 8, Type 0, BuildingBlock: QEWDON_clean_linker_0, # of connection points: 3
#     Node 9, Type 0, BuildingBlock: QEWDON_clean_linker_0, # of connection points: 3
#     Node 10, Type 0, BuildingBlock: QEWDON_clean_linker_0, # of connection points: 3
#     Node 11, Type 0, BuildingBlock: QEWDON_clean_linker_0, # of connection points: 3
#     Node 12, Type 0, BuildingBlock: QEWDON_clean_linker_0, # of connection points: 3
#     Node 13, Type 0, BuildingBlock: QEWDON_clean_linker_0, # of connection points: 3
#     Node 14, Type 0, BuildingBlock: QEWDON_clean_linker_0, # of connection points: 3
#     Node 15, Type 0, BuildingBlock: QEWDON_clean_linker_0, # of connection points: 3
#     Node 16, Type 0, BuildingBlock: QEWDON_clean_linker_0, # of connection points: 3
#     Node 17, Type 0, BuildingBlock: QEWDON_clean_linker_0, # of connection points: 3
#     Node 18, Type 1, BuildingBlock: LEVNOQ01_clean_sbu_1, # of connection points: 6
#     Node 19, Type 1, BuildingBlock: LEVNOQ01_clean_sbu_1, # of connection points: 6
#     Node 20, Type 1, BuildingBlock: LEVNOQ01_clean_sbu_1, # of connection points: 6
#     Node 21, Type 1, BuildingBlock: LEVNOQ01_clean_sbu_1, # of connection points: 6
#     Node 22, Type 1, BuildingBlock: LEVNOQ01_clean_sbu_1, # of connection points: 6
#     Node 23, Type 1, BuildingBlock: LEVNOQ01_clean_sbu_1, # of connection points: 6
#     Node 24, Type 1, BuildingBlock: LEVNOQ01_clean_sbu_1, # of connection points: 6
#     Node 25, Type 1, BuildingBlock: LEVNOQ01_clean_sbu_1, # of connection points: 6
#     Node 26, Type 1, BuildingBlock: LEVNOQ01_clean_sbu_1, # of connection points: 6
#     Edge 27, Type (0, 1), BuildingBlock: OJICUG_clean_linker_0, # of connection points: 2
#     Edge 28, Type (0, 1), BuildingBlock: OJICUG_clean_linker_0, # of connection points: 2
#     Edge 29, Type (0, 1), BuildingBlock: OJICUG_clean_linker_0, # of connection points: 2
#     Edge 30, Type (0, 1), BuildingBlock: OJICUG_clean_linker_0, # of connection points: 2
#     Edge 31, Type (0, 1), BuildingBlock: OJICUG_clean_linker_0, # of connection points: 2
#     Edge 32, Type (0, 1), BuildingBlock: OJICUG_clean_linker_0, # of connection points: 2
#     Edge 33, Type (0, 1), BuildingBlock: OJICUG_clean_linker_0, # of connection points: 2
#     Edge 34, Type (0, 1), BuildingBlock: OJICUG_clean_linker_0, # of connection points: 2
#     Edge 35, Type (0, 1), BuildingBlock: OJICUG_clean_linker_0, # of connection points: 2
#     Edge 36, Type (0, 1), BuildingBlock: OJICUG_clean_linker_0, # of connection points: 2
#     Edge 37, Type (0, 1), BuildingBlock: OJICUG_clean_linker_0, # of connection points: 2
#     Edge 38, Type (0, 1), BuildingBlock: OJICUG_clean_linker_0, # of connection points: 2
#     Edge 39, Type (0, 1), BuildingBlock: OJICUG_clean_linker_0, # of connection points: 2
#     Edge 40, Type (0, 1), BuildingBlock: OJICUG_clean_linker_0, # of connection points: 2
#     Edge 41, Type (0, 1), BuildingBlock: OJICUG_clean_linker_0, # of connection points: 2
#     Edge 42, Type (0, 1), BuildingBlock: OJICUG_clean_linker_0, # of connection points: 2
#     Edge 43, Type (0, 1), BuildingBlock: OJICUG_clean_linker_0, # of connection points: 2
#     Edge 44, Type (0, 1), BuildingBlock: OJICUG_clean_linker_0, # of connection points: 2
#     Edge 45, Type (0, 1), BuildingBlock: OJICUG_clean_linker_0, # of connection points: 2
#     Edge 46, Type (0, 1), BuildingBlock: OJICUG_clean_linker_0, # of connection points: 2
#     Edge 47, Type (0, 1), BuildingBlock: OJICUG_clean_linker_0, # of connection points: 2
#     Edge 48, Type (0, 1), BuildingBlock: OJICUG_clean_linker_0, # of connection points: 2
#     Edge 49, Type (0, 1), BuildingBlock: OJICUG_clean_linker_0, # of connection points: 2
#     Edge 50, Type (0, 1), BuildingBlock: OJICUG_clean_linker_0, # of connection points: 2
#     Edge 51, Type (0, 1), BuildingBlock: OJICUG_clean_linker_0, # of connection points: 2
#     Edge 52, Type (0, 1), BuildingBlock: OJICUG_clean_linker_0, # of connection points: 2
#     Edge 53, Type (0, 1), BuildingBlock: OJICUG_clean_linker_0, # of connection points: 2
#     Edge 54, Type (0, 1), BuildingBlock: OJICUG_clean_linker_0, # of connection points: 2
#     Edge 55, Type (0, 1), BuildingBlock: OJICUG_clean_linker_0, # of connection points: 2
#     Edge 56, Type (0, 1), BuildingBlock: OJICUG_clean_linker_0, # of connection points: 2
#     Edge 57, Type (0, 1), BuildingBlock: OJICUG_clean_linker_0, # of connection points: 2
#     Edge 58, Type (0, 1), BuildingBlock: OJICUG_clean_linker_0, # of connection points: 2
#     Edge 59, Type (0, 1), BuildingBlock: OJICUG_clean_linker_0, # of connection points: 2
#     Edge 60, Type (0, 1), BuildingBlock: OJICUG_clean_linker_0, # of connection points: 2
#     Edge 61, Type (0, 1), BuildingBlock: OJICUG_clean_linker_0, # of connection points: 2
#     Edge 62, Type (0, 1), BuildingBlock: OJICUG_clean_linker_0, # of connection points: 2
#     Edge 63, Type (0, 1), BuildingBlock: OJICUG_clean_linker_0, # of connection points: 2
#     Edge 64, Type (0, 1), BuildingBlock: OJICUG_clean_linker_0, # of connection points: 2
#     Edge 65, Type (0, 1), BuildingBlock: OJICUG_clean_linker_0, # of connection points: 2
#     Edge 66, Type (0, 1), BuildingBlock: OJICUG_clean_linker_0, # of connection points: 2
#     Edge 67, Type (0, 1), BuildingBlock: OJICUG_clean_linker_0, # of connection points: 2
#     Edge 68, Type (0, 1), BuildingBlock: OJICUG_clean_linker_0, # of connection points: 2
#     Edge 69, Type (0, 1), BuildingBlock: OJICUG_clean_linker_0, # of connection points: 2
#     Edge 70, Type (0, 1), BuildingBlock: OJICUG_clean_linker_0, # of connection points: 2
#     Edge 71, Type (0, 1), BuildingBlock: OJICUG_clean_linker_0, # of connection points: 2
#     Edge 72, Type (0, 1), BuildingBlock: OJICUG_clean_linker_0, # of connection points: 2
#     Edge 73, Type (0, 1), BuildingBlock: OJICUG_clean_linker_0, # of connection points: 2
#     Edge 74, Type (0, 1), BuildingBlock: OJICUG_clean_linker_0, # of connection points: 2
#     Edge 75, Type (0, 1), BuildingBlock: OJICUG_clean_linker_0, # of connection points: 2
#     Edge 76, Type (0, 1), BuildingBlock: OJICUG_clean_linker_0, # of connection points: 2
#     Edge 77, Type (0, 1), BuildingBlock: OJICUG_clean_linker_0, # of connection points: 2
#     Edge 78, Type (0, 1), BuildingBlock: OJICUG_clean_linker_0, # of connection points: 2
#     Edge 79, Type (0, 1), BuildingBlock: OJICUG_clean_linker_0, # of connection points: 2
#     Edge 80, Type (0, 1), BuildingBlock: OJICUG_clean_linker_0, # of connection points: 2
# Relax obj value: 0.096
# Max RMSD: 0.140
# Mean RMSD: 0.116
data_MOF--net-eea--node1-LEVNOQ01_clean_sbu_1--node2-QEWDON_clean_linker_0--edge1-OJICUG_clean_linker_0
_symmetry_space_group_name_H-M    P1
_symmetry_Int_Tables_number       1
_symmetry_cell_setting            triclinic
loop_
_symmetry_equiv_pos_as_xyz
'x, y, z'
_cell_length_a     45.944367
_cell_length_b     46.060328
_cell_length_c     29.219389
_cell_angle_alpha  89.96426
_cell_angle_beta   89.868173
_cell_angle_gamma 119.8317
loop_
_atom_site_label
_atom_site_type_symbol
_atom_site_fract_x
_atom_site_fract_y
_atom_site_fract_z
_atom_type_partial_charge
H0 H 0.1824 0.09949 0.43046 0.0
C1 C 0.17803 0.07619 0.41532 0.0
C2 C 0.19807 0.06237 0.4287 0.0
C3 C 0.1518 0.05951 0.38353 0.0
H4 H 0.20758 0.02146 0.41895 0.0
C5 C 0.19163 0.03176 0.41 0.0
C6 C 0.16643 0.01549 0.37725 0.0
C7 C 0.14673 0.02943 0.36394 0.0
C8 C 0.12928 0.07293 0.37107 0.0
H9 H 0.12774 0.01702 0.33787 0.0
C10 C 0.14214 0.10728 0.36235 0.0
C11 C 0.12057 0.11966 0.35021 0.0
C12 C 0.09448 0.05111 0.3676 0.0
H13 H 0.08372 0.02461 0.37443 0.0
C14 C 0.07305 0.06326 0.35592 0.0
H15 H 0.16893 0.12432 0.36457 0.0
C16 C 0.08593 0.09728 0.34733 0.0
H17 H 0.06883 0.10597 0.33747 0.0
H18 H 0.04633 0.04618 0.35333 0.0
H19 H 0.87269 0.06754 0.40228 0.0
C20 C 0.89298 0.08866 0.38471 0.0
C21 C 0.90005 0.12104 0.39597 0.0
C22 C 0.9121 0.08336 0.3515 0.0
H23 H 0.9333 0.17354 0.3841 0.0
C24 C 0.92677 0.14841 0.37387 0.0
C25 C 0.94663 0.14389 0.3411 0.0
C26 C 0.93917 0.11118 0.33009 0.0
C27 C 0.90345 0.04857 0.33979 0.0
H28 H 0.95414 0.10744 0.30459 0.0
C29 C 0.86961 0.02356 0.33605 0.0
C30 C 0.86051 -0.00986 0.32698 0.0
C31 C 0.92844 0.03981 0.33366 0.0
H32 H 0.95474 0.05844 0.33671 0.0
C33 C 0.91961 0.00659 0.32474 0.0
H34 H 0.85016 0.03013 0.34024 0.0
C35 C 0.88584 0.9818 0.32163 0.0
H36 H 0.87959 0.95632 0.31411 0.0
H37 H 0.93902 3e-05 0.32027 0.0
H38 H 0.90469 0.77426 0.39636 0.0
C39 C 0.88381 0.77286 0.37731 0.0
C40 C 0.85088 0.75053 0.39163 0.0
C41 C 0.88971 0.79371 0.33894 0.0
H42 H 0.79864 0.7326 0.38012 0.0
C43 C 0.82393 0.74906 0.36774 0.0
C44 C 0.82929 0.77018 0.33026 0.0
C45 C 0.86217 0.79233 0.31585 0.0
C46 C 0.92449 0.8177 0.3238 0.0
H47 H 0.86621 0.80851 0.28672 0.0
C48 C 0.94911 0.80804 0.32208 0.0
C49 C 0.98239 0.83097 0.30881 0.0
C50 C 0.9333 0.85052 0.31119 0.0
H51 H 0.91506 0.85888 0.31272 0.0
C52 C 0.96597 0.87319 0.29735 0.0
H53 H 0.94218 0.78252 0.33066 0.0
C54 C -0.0096 0.86364 0.29633 0.0
H55 H 0.01578 0.88221 0.28698 0.0
H56 H 0.97253 0.89849 0.28809 0.0
H57 H 0.12527 0.20261 0.61757 0.0
C58 C 0.1043 0.20403 0.63212 0.0
C59 C 0.09496 0.22588 0.61237 0.0
C60 C 0.0867 0.18414 0.67034 0.0
H61 H 0.05901 0.24283 0.61332 0.0
C62 C 0.06712 0.227 0.62991 0.0
C63 C 0.0486 0.20676 0.66692 0.0
C64 C 0.05864 0.18555 0.68723 0.0
C65 C 0.09752 0.16175 0.69195 0.0
H66 H 0.04477 0.17053 0.71649 0.0
C67 C 0.13177 0.17152 0.69396 0.0
C68 C 0.14242 0.14938 0.70949 0.0
C69 C 0.0739 0.13006 0.70906 0.0
H70 H 0.04728 0.12141 0.70765 0.0
C71 C 0.08435 0.10863 0.72693 0.0
H72 H 0.15027 0.1964 0.68271 0.0
C73 C 0.11831 0.11796 0.72671 0.0
H74 H 0.12542 0.10007 0.73846 0.0
H75 H 0.06593 0.0842 0.73966 0.0
H76 H 0.80648 0.91959 0.5927 0.0
C77 C 0.80699 0.89864 0.60875 0.0
C78 C 0.78244 0.86597 0.59668 0.0
C79 C 0.8323 0.90424 0.64078 0.0
H80 H 0.76579 0.81344 0.60569 0.0
C81 C 0.78393 0.83877 0.61579 0.0
C82 C 0.80908 0.84376 0.64692 0.0
C83 C 0.83274 0.87634 0.66013 0.0
C84 C 0.85878 0.93908 0.65274 0.0
H85 H 0.85153 0.87977 0.68517 0.0
C86 C 0.85131 0.96528 0.65465 0.0
C87 C 0.87646 -0.00154 0.66396 0.0
C88 C 0.89194 0.9466 0.66144 0.0
H89 H 0.89897 0.92742 0.65956 0.0
C90 C 0.91681 0.97926 0.67164 0.0
H91 H 0.82569 0.95977 0.64987 0.0
C92 C 0.90925 0.00508 0.67276 0.0
H93 H 0.92915 0.03027 0.67997 0.0
H94 H 0.9422 0.98466 0.67818 0.0
H95 H 0.07683 0.87069 0.5926 0.0
C96 C 0.0959 0.89447 0.60619 0.0
C97 C 0.12791 0.91089 0.58534 0.0
C98 C 0.08852 0.90898 0.64383 0.0
H99 H 0.17714 0.95463 0.58665 0.0
C100 C 0.15218 0.94233 0.60154 0.0
C101 C 0.1456 0.95674 0.63939 0.0
C102 C 0.11412 0.93982 0.66074 0.0
C103 C 0.05437 0.89275 0.66549 0.0
H104 H 0.10992 0.95072 0.6911 0.0
C105 C 0.0336 0.85758 0.66766 0.0
C106 C 0.00116 0.8429 0.68744 0.0
C107 C 0.04212 0.91288 0.68401 0.0
H108 H 0.05654 0.9399 0.68188 0.0
C109 C 0.01069 0.89858 0.70476 0.0
H110 H 0.04267 0.84161 0.65429 0.0
C111 C -0.00971 0.86398 0.70634 0.0
H112 H 0.96542 0.85388 0.7209 0.0
H113 H 0.00173 0.91448 0.71875 0.0
H114 H 0.85156 0.43187 0.76563 0.0
C115 C 0.84619 0.40833 0.75023 0.0
C116 C 0.86546 0.39355 0.76288 0.0
C117 C 0.81954 0.39239 0.7189 0.0
H118 H 0.87301 0.35145 0.753 0.0
C119 C 0.85767 0.36251 0.74439 0.0
C120 C 0.83192 0.34676 0.71223 0.0
C121 C 0.81318 0.36186 0.69923 0.0
C122 C 0.7979 0.40705 0.70733 0.0
H123 H 0.79389 0.34991 0.67343 0.0
C124 C 0.81153 0.44188 0.70168 0.0
C125 C 0.79069 0.45543 0.69113 0.0
C126 C 0.76307 0.38599 0.70228 0.0
H127 H 0.75163 0.3592 0.70701 0.0
C128 C 0.74242 0.39924 0.69182 0.0
H129 H 0.83832 0.45841 0.70513 0.0
C130 C 0.75603 0.43365 0.68629 0.0
H131 H 0.73944 0.44313 0.67721 0.0
H132 H 0.71569 0.38272 0.68785 0.0
H133 H 0.54802 0.41031 0.74523 0.0
C134 C 0.56525 0.43037 0.72289 0.0
C135 C 0.57557 0.46363 0.7345 0.0
C136 C 0.57912 0.42302 0.68457 0.0
H137 H 0.60681 0.51526 0.71496 0.0
C138 C 0.59856 0.48948 0.70596 0.0
C139 C 0.61319 0.48278 0.66822 0.0
C140 C 0.60346 0.44946 0.65773 0.0
C141 C 0.56924 0.38778 0.67401 0.0
H142 H 0.61489 0.44419 0.62879 0.0
C143 C 0.53526 0.36277 0.67498 0.0
C144 C 0.52541 0.32933 0.66418 0.0
C145 C 0.59358 0.37893 0.66294 0.0
H146 H 0.61998 0.39761 0.6624 0.0
C147 C 0.58408 0.34571 0.65312 0.0
H148 H 0.51639 0.3695 0.68335 0.0
C149 C 0.55024 0.32102 0.65363 0.0
H150 H 0.54348 0.29566 0.64447 0.0
H151 H 0.60301 0.33914 0.64459 0.0
H152 H 0.56943 0.1061 0.7332 0.0
C153 C 0.54902 0.1056 0.71401 0.0
C154 C 0.51576 0.08434 0.72815 0.0
C155 C 0.5559 0.12664 0.67565 0.0
H156 H 0.46393 0.06816 0.71569 0.0
C157 C 0.48949 0.08393 0.70372 0.0
C158 C 0.49589 0.10522 0.6661 0.0
C159 C 0.52911 0.12655 0.6522 0.0
C160 C 0.59102 0.14978 0.66117 0.0
H161 H 0.53404 0.14306 0.62319 0.0
C162 C 0.61429 0.13847 0.6569 0.0
C163 C 0.64797 0.16067 0.64428 0.0
C164 C 0.60145 0.18346 0.65181 0.0
H165 H 0.58415 0.19289 0.65515 0.0
C166 C 0.63453 0.20552 0.63904 0.0
H167 H 0.60585 0.11225 0.66286 0.0
C168 C 0.65768 0.19439 0.6356 0.0
H169 H 0.68339 0.21257 0.62721 0.0
H170 H 0.64241 0.23154 0.63245 0.0
H171 H 0.78402 0.53452 0.94035 0.0
C172 C 0.76501 0.53671 0.95961 0.0
C173 C 0.75116 0.55541 0.94133 0.0
C174 C 0.75243 0.51872 1.00094 0.0
H175 H 0.71463 0.57127 0.95183 0.0
C176 C 0.7257 0.55715 0.96579 0.0
C177 C 0.71275 0.53919 0.00649 0.0
C178 C 0.72623 0.52018 0.024 0.0
C179 C 0.76464 0.49639 0.01856 0.0
H180 H 0.71601 0.5063 0.0555 0.0
C181 C 0.799 0.50643 0.01784 0.0
C182 C 0.81037 0.4848 0.03355 0.0
C183 C 0.74168 0.46454 0.0359 0.0
H184 H 0.71499 0.45573 0.03616 0.0
C185 C 0.75276 0.4433 0.05227 0.0
H186 H 0.81684 0.53118 0.00535 0.0
C187 C 0.78677 0.45319 0.05098 0.0
H188 H 0.79435 0.43558 0.06237 0.0
H189 H 0.7348 0.41877 0.06525 0.0
H190 H 0.47662 0.25421 0.92251 0.0
C191 C 0.47771 0.23303 0.93661 0.0
C192 C 0.45387 0.20067 0.92245 0.0
C193 C 0.50276 0.23795 0.96867 0.0
H194 H 0.43811 0.14815 0.9273 0.0
C195 C 0.45607 0.17317 0.93878 0.0
C196 C 0.48095 0.17744 0.96998 0.0
C197 C 0.50366 0.2097 0.98574 0.0
C198 C 0.52817 0.27244 0.98371 0.0
H199 H 0.52206 0.21262 0.01114 0.0
C200 C 0.51966 0.29782 0.98773 0.0
C201 C 0.54379 0.33069 1.00028 0.0
C202 C 0.56134 0.28044 0.99357 0.0
H203 H 0.56919 0.26194 0.99017 0.0
C204 C 0.58516 0.31275 0.00703 0.0
H205 H 0.49399 0.29189 0.9821 0.0
C206 C 0.57657 0.33777 0.01025 0.0
H207 H 0.5957 0.36277 0.01997 0.0
H208 H 0.61056 0.31852 0.01447 0.0
H209 H 0.74286 0.20148 0.926 0.0
C210 C 0.76244 0.22513 0.93925 0.0
C211 C 0.79464 0.24021 0.919 0.0
C212 C 0.75539 0.2407 0.97584 0.0
H213 H 0.84455 0.28316 0.92034 0.0
C214 C 0.81945 0.27167 0.93467 0.0
C215 C 0.81293 0.28731 0.97118 0.0
C216 C 0.78123 0.27156 0.99191 0.0
C217 C 0.72139 0.22525 0.99757 0.0
H218 H 0.77705 0.28338 0.02129 0.0
C219 C 0.70077 0.19021 1.00121 0.0
C220 C 0.66836 0.17593 0.02071 0.0
C221 C 0.70922 0.24578 0.01484 0.0
H222 H 0.72367 0.27274 0.01169 0.0
C223 C 0.67782 0.23186 0.03569 0.0
H224 H 0.7099 0.17399 0.98902 0.0
C225 C 0.65743 0.19727 0.03844 0.0
H226 H 0.63254 0.18737 0.05289 0.0
H227 H 0.66887 0.24801 0.04875 0.0
H228 H 0.52154 0.76642 0.09564 0.0
C229 C 0.51737 0.74378 0.07859 0.0
C230 C 0.53724 0.72953 0.09048 0.0
C231 C 0.49146 0.72827 0.04608 0.0
H232 H 0.54665 0.68885 0.07797 0.0
C233 C 0.5311 0.69972 0.06959 0.0
C234 C 0.50612 0.6846 0.0363 0.0
C235 C 0.48653 0.6989 0.02433 0.0
C236 C 0.46898 0.74207 0.03565 0.0
H237 H 0.46762 0.68718 0.99799 0.0
C238 C 0.48178 0.77679 0.03116 0.0
C239 C 0.4603 0.78967 0.02136 0.0
C240 C 0.43431 0.72034 0.03037 0.0
H241 H 0.42357 0.69354 0.03413 0.0
C242 C 0.41295 0.73295 0.0209 0.0
H243 H 0.50848 0.79377 0.0348 0.0
C244 C 0.42576 0.76733 0.01642 0.0
H245 H 0.4087 0.77636 0.00798 0.0
H246 H 0.38632 0.71595 0.01678 0.0
H247 H 0.20728 0.73494 0.06868 0.0
C248 C 0.22685 0.75634 0.05061 0.0
C249 C 0.23336 0.78844 0.06252 0.0
C250 C 0.24548 0.75174 0.01584 0.0
H251 H 0.26543 0.84112 0.05092 0.0
C252 C 0.25924 0.81621 0.04 0.0
C253 C 0.27874 0.81242 0.00596 0.0
C254 C 0.27166 0.78001 0.99391 0.0
C255 C 0.23705 0.71727 0.00252 0.0
H256 H 0.28626 0.77688 0.96722 0.0
C257 C 0.2033 0.69189 1.00014 0.0
C258 C 0.19443 0.65894 0.98831 0.0
C259 C 0.26221 0.7093 0.99255 0.0
H260 H 0.28848 0.72821 0.99439 0.0
C261 C 0.25361 0.67653 0.98098 0.0
H262 H 0.18369 0.69784 0.0072 0.0
C263 C 0.21993 0.6514 0.979 0.0
H264 H 0.21384 0.62633 0.9692 0.0
H265 H 0.27314 0.6706 0.97341 0.0
H266 H 0.24097 0.43823 0.05509 0.0
C267 C 0.21924 0.43768 0.03988 0.0
C268 C 0.18751 0.41867 0.06071 0.0
C269 C 0.22337 0.45685 1.00021 0.0
H270 H 0.13545 0.40524 0.05702 0.0
C271 C 0.15979 0.4185 0.0405 0.0
C272 C 0.1633 0.4369 1.00056 0.0
C273 C 0.19507 0.45619 0.98074 0.0
C274 C 0.25747 0.47902 0.98085 0.0
H275 H 0.19765 0.47063 0.95017 0.0
C276 C 0.28145 0.46847 0.97905 0.0
C277 C 0.31481 0.49049 0.96495 0.0
C278 C 0.26676 0.51155 0.96615 0.0
H279 H 0.24914 0.52069 0.96765 0.0
C280 C 0.29931 0.53316 0.9508 0.0
H281 H 0.27394 0.44302 0.9888 0.0
C282 C 0.32327 0.52297 0.95064 0.0
H283 H 0.34864 0.54103 0.9406 0.0
H284 H 0.30626 0.55831 0.9401 0.0
H285 H 0.4594 0.87048 0.28519 0.0
C286 C 0.43878 0.87222 0.30033 0.0
C287 C 0.42936 0.8941 0.28079 0.0
C288 C 0.42162 0.85269 0.33906 0.0
H289 H 0.39365 0.91134 0.28255 0.0
C290 C 0.40189 0.89556 0.29901 0.0
C291 C 0.38382 0.87572 0.33652 0.0
C292 C 0.39398 0.85457 0.3567 0.0
C293 C 0.4323 0.83007 0.36049 0.0
H294 H 0.38045 0.83992 0.38637 0.0
C295 C 0.4664 0.83905 0.36117 0.0
C296 C 0.47667 0.81678 0.37749 0.0
C297 C 0.40857 0.79897 0.37915 0.0
H298 H 0.38204 0.79081 0.37869 0.0
C299 C 0.41872 0.77746 0.39756 0.0
H300 H 0.48508 0.86343 0.34855 0.0
C301 C 0.45246 0.78606 0.39639 0.0
H302 H 0.45929 0.7681 0.40878 0.0
H303 H 0.4002 0.75352 0.41158 0.0
H304 H 0.13962 0.58452 0.25813 0.0
C305 C 0.14131 0.56354 0.27176 0.0
C306 C 0.11874 0.53136 0.25594 0.0
C307 C 0.16554 0.56857 0.30517 0.0
H308 H 0.10439 0.47916 0.25898 0.0
C309 C 0.12158 0.50408 0.27159 0.0
C310 C 0.14601 0.50849 0.30376 0.0
C311 C 0.16738 0.54061 0.32131 0.0
C312 C 0.18861 0.6029 0.32307 0.0
H313 H 0.18528 0.54364 0.34756 0.0
C314 C 0.17761 0.62639 0.32723 0.0
C315 C 0.19942 0.65931 0.34201 0.0
C316 C 0.22187 0.61275 0.3353 0.0
H317 H 0.23152 0.59566 0.33215 0.0
C318 C 0.24349 0.64523 0.35077 0.0
H319 H 0.15196 0.61918 0.31881 0.0
C320 C 0.23249 0.66848 0.35384 0.0
H321 H 0.24966 0.69345 0.36613 0.0
H322 H 0.269 0.65248 0.36013 0.0
H323 H 0.40765 0.5327 0.26739 0.0
C324 C 0.42744 0.55668 0.27948 0.0
C325 C 0.45949 0.5711 0.25903 0.0
C326 C 0.4206 0.57356 0.31444 0.0
H327 H 0.50962 0.61364 0.25917 0.0
C328 C 0.4846 0.60276 0.27365 0.0
C329 C 0.47838 0.61947 0.30908 0.0
C330 C 0.44652 0.60474 0.32938 0.0
C331 C 0.38637 0.55936 0.33469 0.0
H332 H 0.44209 0.61754 0.35735 0.0
C333 C 0.36652 0.52487 0.34394 0.0
C334 C 0.33321 0.51116 0.36033 0.0
C335 C 0.37313 0.58045 0.34403 0.0
H336 H 0.3875 0.60702 0.33691 0.0
C337 C 0.34078 0.56742 0.3615 0.0
H338 H 0.37723 0.50889 0.33839 0.0
C339 C 0.32081 0.53313 0.36907 0.0
H340 H 0.29527 0.52397 0.38034 0.0
H341 H 0.33077 0.58391 0.36807 0.0
O342 O 0.49624 0.97921 0.88082 0.0
Mg343 Mg 0.52194 0.97879 0.93922 0.0
O344 O 0.48507 0.00938 0.92796 0.0
Mg345 Mg 0.48055 -0.0123 0.00318 0.0
O346 O 0.49406 0.94499 0.9885 0.0
O347 O 0.52968 0.93972 0.94077 0.0
O348 O 0.47642 0.96771 0.07905 0.0
O349 O 0.42548 0.94499 0.98648 0.0
Mg350 Mg 0.42875 -0.00571 0.05623 0.0
O351 O 0.46775 0.0307 0.01993 0.0
O352 O 0.44188 0.97964 0.11654 0.0
O353 O 0.3894 0.95786 0.01691 0.0
O354 O 0.43086 0.03873 0.0612 0.0
C355 C 0.56272 0.03975 0.99588 0.0
C356 C 0.488 0.00119 0.88716 0.0
C357 C 0.50737 0.92762 0.97285 0.0
C358 C 0.46167 0.96805 0.11601 0.0
C359 C 0.39535 0.93873 0.99251 0.0
C360 C 0.45647 0.05021 0.03413 0.0
O361 O 0.56348 0.02419 0.96061 0.0
O362 O 0.53554 0.02928 0.01861 0.0
O363 O -0.00441 0.49539 0.88029 0.0
Mg364 Mg 0.001 0.52186 0.94001 0.0
O365 O 0.97013 0.4556 0.931 0.0
Mg366 Mg -0.0039 0.47631 0.00382 0.0
O367 O 0.03953 0.53119 0.98316 0.0
O368 O 0.03892 0.5685 0.93387 0.0
O369 O 0.02119 0.49563 0.07712 0.0
O370 O 0.03651 0.46127 0.98448 0.0
Mg371 Mg -0.00994 0.42145 0.06346 0.0
O372 O 0.95356 0.4224 0.02602 0.0
O373 O 0.00638 0.45152 0.12106 0.0
O374 O 0.02481 0.41579 0.02393 0.0
O375 O 0.94573 0.38011 0.07257 0.0
C376 C 0.94396 0.50703 1.00053 0.0
C377 C 0.9745 0.46539 0.88928 0.0
C378 C 0.05453 0.56065 0.96367 0.0
C379 C 0.02103 0.48285 0.11609 0.0
C380 C 0.04228 0.43757 0.99421 0.0
C381 C 0.93406 0.39273 0.04334 0.0
O382 O 0.95809 0.52184 0.96381 0.0
O383 O 0.95533 0.49098 0.02284 0.0
O384 O 0.46667 0.46611 0.11969 0.0
Mg385 Mg 0.45442 0.43644 0.06024 0.0
O386 O 0.49857 0.5122 0.07999 0.0
Mg387 Mg 0.50805 0.49962 0.00543 0.0
O388 O 0.49558 0.44566 0.02259 0.0
O389 O 0.46246 0.39663 0.05703 0.0
O390 O 0.51785 0.48808 0.93007 0.0
O391 O 0.56344 0.51217 0.02652 0.0
Mg392 Mg 0.56271 0.55811 0.97677 0.0
O393 O 0.51745 0.55386 0.98876 0.0
O394 O 0.568 0.53232 0.92138 0.0
O395 O 0.59293 0.56639 0.03397 0.0
O396 O 0.56106 0.59884 0.95617 0.0
C397 C 0.42266 0.46177 0.99421 0.0
C398 C 0.48362 0.49776 0.11718 0.0
C399 C 0.48849 0.41531 0.03231 0.0
C400 C 0.54504 0.5043 0.90718 0.0
C401 C 0.59047 0.53811 0.03933 0.0
C402 C 0.53114 0.5844 0.97318 0.0
O403 O 0.41703 0.43744 0.02014 0.0
O404 O 0.45268 0.48506 0.98587 0.0
O405 O 0.19899 0.33936 0.23115 0.0
Mg406 Mg 0.20539 0.31745 0.29014 0.0
O407 O 0.15437 0.3394 0.25976 0.0
Mg408 Mg 0.14956 0.31998 0.33566 0.0
O409 O 0.16365 0.27817 0.3186 0.0
O410 O 0.20414 0.27365 0.28149 0.0
O411 O 0.14542 0.30046 0.41178 0.0
O412 O 0.09458 0.27592 0.31903 0.0
Mg413 Mg 0.09702 0.32561 0.38695 0.0
O414 O 0.13585 0.36262 0.35146 0.0
O415 O 0.10966 0.31138 0.44786 0.0
O416 O 0.05815 0.28904 0.34752 0.0
O417 O 0.09779 0.36932 0.39204 0.0
C418 C 0.23479 0.3707 0.35263 0.0
C419 C 0.17543 0.34585 0.22731 0.0
C420 C 0.17652 0.25996 0.30473 0.0
C421 C 0.13001 0.30048 0.44823 0.0
C422 C 0.06432 0.26955 0.32436 0.0
C423 C 0.12373 0.38147 0.3655 0.0
O424 O 0.24223 0.35034 0.33465 0.0
O425 O 0.20428 0.3642 0.35298 0.0
O426 O 0.66193 0.82889 0.21755 0.0
Mg427 Mg 0.6666 0.85436 0.27785 0.0
O428 O 0.63612 0.78788 0.2665 0.0
Mg429 Mg 0.66225 0.80803 0.33989 0.0
O430 O 0.70528 0.8633 0.32017 0.0
O431 O 0.70423 0.90134 0.27284 0.0
O432 O 0.68741 0.82691 0.41324 0.0
O433 O 0.70278 0.79394 0.31864 0.0
Mg434 Mg 0.65771 0.75222 0.39804 0.0
O435 O 0.62076 0.75386 0.36215 0.0
O436 O 0.67528 0.78266 0.45571 0.0
O437 O 0.69194 0.74769 0.35547 0.0
O438 O 0.61303 0.71078 0.40681 0.0
C439 C 0.60922 0.83738 0.3391 0.0
C440 C 0.64097 0.79863 0.22518 0.0
C441 C 0.72014 0.89306 0.30155 0.0
C442 C 0.68848 0.814 0.45157 0.0
C443 C 0.70884 0.77019 0.32626 0.0
C444 C 0.60125 0.72393 0.3786 0.0
O445 O 0.62316 0.85281 0.30263 0.0
O446 O 0.62107 0.82151 0.3607 0.0
O447 O 0.15473 0.81488 0.45228 0.0
Mg448 Mg 0.13497 0.79008 0.39142 0.0
O449 O 0.17052 0.85687 0.40484 0.0
Mg450 Mg 0.17653 0.83842 0.33038 0.0
O451 O 0.16583 0.78313 0.3484 0.0
O452 O 0.12726 0.7437 0.39507 0.0
O453 O 0.18218 0.82159 0.25576 0.0
O454 O 0.23255 0.85374 0.34785 0.0
Mg455 Mg 0.22707 0.89763 0.27159 0.0
O456 O 0.18749 0.892 0.30928 0.0
O457 O 0.21284 0.867 0.21408 0.0
O458 O 0.26643 0.90117 0.31201 0.0
O459 O 0.22053 0.93774 0.2676 0.0
C460 C 0.0932 0.80657 0.33327 0.0
C461 C 0.16389 0.84523 0.44569 0.0
C462 C 0.15159 0.75306 0.36617 0.0
C463 C 0.19521 0.83554 0.21746 0.0
C464 C 0.26204 0.87796 0.33932 0.0
C465 C 0.19553 0.92197 0.29531 0.0
O466 O 0.09192 0.78973 0.36806 0.0
O467 O 0.12106 0.82417 0.31246 0.0
O468 O 0.83128 0.64494 0.54559 0.0
Mg469 Mg 0.85535 0.64476 0.60593 0.0
O470 O 0.81961 0.67565 0.59092 0.0
Mg471 Mg 0.81279 0.65421 0.6665 0.0
O472 O 0.82633 0.61109 0.65484 0.0
O473 O 0.86311 0.6057 0.60969 0.0
O474 O 0.80522 0.63446 0.74268 0.0
O475 O 0.75813 0.61004 0.64634 0.0
Mg476 Mg 0.75778 0.65624 0.69662 0.0
O477 O 0.80127 0.69891 0.68094 0.0
O478 O 0.7546 0.62709 0.75365 0.0
O479 O 0.72491 0.63114 0.64281 0.0
O480 O 0.75683 0.69756 0.71598 0.0
C481 C 0.89517 0.70639 0.66218 0.0
C482 C 0.82336 0.66727 0.55064 0.0
C483 C 0.84002 0.59368 0.64075 0.0
C484 C 0.77851 0.623 0.76675 0.0
C485 C 0.72978 0.60693 0.63542 0.0
C486 C 0.78597 0.71431 0.69698 0.0
O487 O 0.89641 0.69051 0.62758 0.0
O488 O 0.86767 0.69596 0.68422 0.0
O489 O 0.32701 0.16513 0.54853 0.0
Mg490 Mg 0.33319 0.19127 0.60897 0.0
O491 O 0.30264 0.12452 0.59846 0.0
Mg492 Mg 0.32943 0.14435 0.67125 0.0
O493 O 0.37155 0.20002 0.65208 0.0
O494 O 0.37109 0.23827 0.60453 0.0
O495 O 0.3552 0.16304 0.74409 0.0
O496 O 0.37035 0.13065 0.6492 0.0
Mg497 Mg 0.32522 0.08861 0.72885 0.0
O498 O 0.28811 0.09002 0.69337 0.0
O499 O 0.34267 0.11878 0.78671 0.0
O500 O 0.35958 0.08448 0.68626 0.0
O501 O 0.28086 0.0469 0.73757 0.0
C502 C 0.2762 0.17337 0.67194 0.0
C503 C 0.30626 0.13492 0.55705 0.0
C504 C 0.3865 0.23 0.63413 0.0
C505 C 0.35627 0.15014 0.78239 0.0
C506 C 0.37649 0.10695 0.65702 0.0
C507 C 0.26879 0.06001 0.70975 0.0
O508 O 0.28991 0.18914 0.63556 0.0
O509 O 0.28822 0.15741 0.69294 0.0
O510 O 0.80313 0.13691 0.7787 0.0
Mg511 Mg 0.78923 0.10571 0.72098 0.0
O512 O 0.83412 0.18301 0.73829 0.0
Mg513 Mg 0.84054 0.16826 0.66293 0.0
O514 O 0.82968 0.11498 0.68205 0.0
O515 O 0.79819 0.06653 0.7188 0.0
O516 O 0.84591 0.15262 0.58747 0.0
O517 O 0.89694 0.18392 0.67876 0.0
Mg518 Mg 0.89039 0.22835 0.60579 0.0
O519 O 0.8505 0.22189 0.64351 0.0
O520 O 0.87698 0.19874 0.54738 0.0
O521 O 0.93032 0.23252 0.64541 0.0
O522 O 0.88338 0.26812 0.60247 0.0
C523 C 0.75459 0.12897 0.65768 0.0
C524 C 0.82001 0.16855 0.77598 0.0
C525 C 0.82351 0.08506 0.69285 0.0
C526 C 0.85926 0.16724 0.54964 0.0
C527 C 0.92629 0.20864 0.67107 0.0
C528 C 0.85837 0.25193 0.63003 0.0
O529 O 0.74999 0.10461 0.68283 0.0
O530 O 0.78425 0.15257 0.64834 0.0
C531 C 0.34004 0.84548 0.9861 0.0
C532 C 0.30822 0.84288 0.98705 0.0
H533 H 0.39331 0.87854 0.98591 0.0
C534 C 0.30585 0.87162 0.97797 0.0
H535 H 0.3427 0.82379 0.99286 0.0
C536 C 0.33475 0.90293 0.97456 0.0
C537 C 0.36658 0.90604 0.9794 0.0
H538 H 0.28163 0.87028 0.97731 0.0
H539 H 0.33211 0.92498 0.97186 0.0
C540 C 0.36907 0.87688 0.98208 0.0
C541 C 0.13381 0.46822 0.97938 0.0
C542 C 0.13364 0.4377 0.98278 0.0
H543 H 0.10397 0.49215 0.97919 0.0
C544 C 0.10327 0.40759 0.97779 0.0
H545 H 0.15699 0.49175 0.98325 0.0
C546 C 0.07311 0.4078 0.97548 0.0
C547 C 0.07289 0.43812 0.97806 0.0
H548 H 0.10264 0.38378 0.97972 0.0
H549 H 0.0498 0.38411 0.97601 0.0
C550 C 0.10349 0.46844 0.97689 0.0
C551 C 0.51996 0.65946 0.97116 0.0
C552 C 0.50271 0.65506 0.01244 0.0
H553 H 0.54205 0.63958 0.92553 0.0
C554 C 0.48873 0.62422 0.03533 0.0
H555 H 0.53112 0.68326 0.95333 0.0
C556 C 0.4946 0.59902 0.01926 0.0
C557 C 0.51523 0.60491 0.98082 0.0
H558 H 0.47555 0.62064 0.06748 0.0
H559 H 0.48584 0.57643 0.03944 0.0
C560 C 0.52626 0.63454 0.95546 0.0
C561 C 0.86151 0.34579 0.96355 0.0
C562 C 0.84047 0.31815 0.99118 0.0
H563 H 0.90743 0.39289 0.95986 0.0
C564 C 0.84765 0.31868 0.03786 0.0
H565 H 0.8561 0.34605 0.92753 0.0
C566 C 0.87697 0.3449 0.05576 0.0
C567 C 0.89948 0.37122 0.02742 0.0
H568 H 0.83181 0.2977 0.05987 0.0
H569 H 0.88304 0.34351 0.09122 0.0
C570 C 0.89066 0.37251 0.98189 0.0
C571 C 0.68282 0.56729 0.03865 0.0
C572 C 0.68266 0.53767 0.02729 0.0
H573 H 0.65366 0.59044 0.05388 0.0
C574 C 0.65232 0.50713 0.0292 0.0
H575 H 0.70599 0.59109 0.03759 0.0
C576 C 0.62209 0.50664 0.03788 0.0
C577 C 0.62185 0.53673 0.04506 0.0
H578 H 0.65166 0.48397 0.02035 0.0
H579 H 0.5988 0.48306 0.0354 0.0
C580 C 0.65277 0.56679 0.04806 0.0
C581 C 0.47796 0.14027 0.0342 0.0
C582 C 0.48177 0.1476 0.98728 0.0
H583 H 0.46715 0.10324 0.08582 0.0
C584 C 0.48248 0.1244 0.9566 0.0
H585 H 0.47711 0.15762 0.05845 0.0
C586 C 0.47754 0.09352 0.97235 0.0
C587 C 0.47104 0.08521 0.01884 0.0
H588 H 0.48543 0.12961 0.9202 0.0
H589 H 0.47622 0.07527 0.94784 0.0
C590 C 0.4723 0.1092 0.04977 0.0
C591 C 0.64385 0.12099 0.97971 0.0
C592 C 0.64464 0.13918 0.01872 0.0
H593 H 0.6178 0.0754 0.94239 0.0
C594 C 0.62028 0.12271 0.05314 0.0
H595 H 0.66178 0.13275 0.95217 0.0
C596 C 0.59432 0.08974 0.04699 0.0
C597 C 0.59257 0.07239 0.00666 0.0
H598 H 0.62058 0.13566 0.0842 0.0
H599 H 0.57509 0.07827 0.07309 0.0
C600 C 0.61832 0.08799 0.97394 0.0
C601 C 0.86475 0.51205 0.99028 0.0
C602 C 0.84627 0.49404 0.02883 0.0
H603 H 0.90995 0.5308 0.95184 0.0
C604 C 0.8617 0.48302 0.06074 0.0
H605 H 0.85373 0.52047 0.96446 0.0
C606 C 0.8941 0.48833 0.0529 0.0
C607 C 0.91189 0.50522 0.01335 0.0
H608 H 0.8485 0.46964 0.09135 0.0
H609 H 0.90478 0.47842 0.0771 0.0
C610 C 0.89713 0.51779 0.98286 0.0
C611 C 0.51246 0.35891 0.97189 0.0
C612 C 0.53436 0.35717 0.00396 0.0
H613 H 0.48127 0.37992 0.95534 0.0
C614 C 0.54544 0.37955 0.04109 0.0
H615 H 0.50394 0.34245 0.94249 0.0
C616 C 0.53295 0.40141 0.04775 0.0
C617 C 0.50945 0.40143 0.01728 0.0
H618 H 0.56209 0.37874 0.06659 0.0
H619 H 0.53986 0.41662 0.0784 0.0
C620 C 0.49995 0.38073 0.97868 0.0
C621 C 0.14567 0.60054 1.00079 0.0
C622 C 0.15849 0.63326 0.98366 0.0
H623 H 0.10227 0.55167 0.00879 0.0
C624 C 0.13659 0.64181 0.96192 0.0
H625 H 0.16197 0.59336 0.01804 0.0
C626 C 0.10281 0.61838 0.95713 0.0
C627 C 0.08987 0.58553 0.97354 0.0
H628 H 0.14568 0.66659 0.94774 0.0
H629 H 0.08692 0.62604 0.93975 0.0
C630 C 0.11151 0.57683 0.99594 0.0
C631 C 0.3391 0.45824 0.00284 0.0
C632 C 0.34117 0.4805 0.96833 0.0
H633 H 0.36243 0.43435 0.03689 0.0
C634 C 0.3696 0.49448 0.93932 0.0
H635 H 0.31841 0.44755 0.02688 0.0
C636 C 0.39586 0.4877 0.94629 0.0
C637 C 0.39377 0.46598 0.98149 0.0
H638 H 0.37197 0.51114 0.91165 0.0
H639 H 0.41794 0.49982 0.92468 0.0
C640 C 0.36471 0.45075 0.00884 0.0
C641 C 0.50318 0.84416 0.98709 0.0
C642 C 0.47397 0.82606 0.01339 0.0
H643 H 0.53662 0.89023 0.9542 0.0
C644 C 0.45697 0.84248 0.02935 0.0
H645 H 0.51667 0.83225 0.97378 0.0
C646 C 0.46834 0.87598 0.0178 0.0
C647 C 0.49683 0.89355 0.98995 0.0
H648 H 0.43458 0.82928 0.05019 0.0
H649 H 0.45428 0.88773 0.02951 0.0
C650 C 0.51445 0.87743 0.97556 0.0
C651 C 0.97469 0.20254 0.31076 0.0
C652 C 0.97664 0.17389 0.32214 0.0
H653 H 0.00144 0.25564 0.30147 0.0
C654 C 0.00834 0.17617 0.32269 0.0
H655 H 0.9506 0.20143 0.30899 0.0
C656 C 0.03762 0.20731 0.31758 0.0
C657 C 0.03552 0.23655 0.31222 0.0
H658 H 0.01067 0.15453 0.33124 0.0
H659 H 0.06171 0.20886 0.32252 0.0
C660 C 0.00381 0.23356 0.30612 0.0
C661 C 0.77012 0.74153 0.30337 0.0
C662 C 0.80026 0.77147 0.31095 0.0
H663 H 0.71661 0.71781 0.3014 0.0
C664 C 0.80022 0.80196 0.31031 0.0
H665 H 0.76964 0.71777 0.30302 0.0
C666 C 0.76983 0.80202 0.30875 0.0
C667 C 0.73939 0.77157 0.30826 0.0
H668 H 0.82316 0.82538 0.31616 0.0
H669 H 0.77009 0.82548 0.31351 0.0
C670 C 0.73983 0.74156 0.30231 0.0
C671 C 0.15886 0.95782 0.37755 0.0
C672 C 0.16417 -0.01364 0.35313 0.0
H673 H 0.16271 0.91322 0.37662 0.0
C674 C 0.17333 -0.01037 0.30687 0.0
H675 H 0.15162 0.95485 0.4133 0.0
C676 C 0.18072 0.96664 0.28673 0.0
C677 C 0.1785 0.93975 0.31234 0.0
H678 H 0.17762 0.01148 0.28748 0.0
H679 H 0.19033 0.97118 0.25199 0.0
C680 C 0.16534 0.93421 0.35683 0.0
C681 C 0.51364 0.65153 0.37506 0.0
C682 C 0.50633 0.65042 0.32833 0.0
H683 H 0.54969 0.67641 0.42778 0.0
C684 C 0.52791 0.67727 0.29989 0.0
H685 H 0.49743 0.63113 0.39765 0.0
C686 C 0.55761 0.70372 0.31751 0.0
C687 C 0.56643 0.70293 0.36319 0.0
H688 H 0.5225 0.67704 0.26377 0.0
H689 H 0.5748 0.72334 0.29482 0.0
C690 C 0.54354 0.67744 0.39225 0.0
C691 C 0.35317 0.90632 0.35518 0.0
C692 C 0.353 0.87583 0.35156 0.0
H693 H 0.32402 0.93079 0.35536 0.0
C694 C 0.32223 0.84573 0.35467 0.0
H695 H 0.37658 0.92987 0.35368 0.0
C696 C 0.29197 0.84623 0.3561 0.0
C697 C 0.29221 0.87685 0.35418 0.0
H698 H 0.32138 0.82187 0.35188 0.0
H699 H 0.26854 0.82274 0.3542 0.0
C700 C 0.32309 0.90682 0.35635 0.0
C701 C 0.1435 0.47099 0.36729 0.0
C702 C 0.14746 0.47883 0.32051 0.0
H703 H 0.13312 0.4336 0.41819 0.0
C704 C 0.14894 0.45625 0.28942 0.0
H705 H 0.14206 0.48783 0.39188 0.0
C706 C 0.14455 0.42544 0.30459 0.0
C707 C 0.13787 0.41657 0.35089 0.0
H708 H 0.15204 0.46185 0.25313 0.0
H709 H 0.14381 0.40763 0.27973 0.0
C710 C 0.13841 0.44 0.38227 0.0
C711 C 0.31495 0.45212 0.33575 0.0
C712 C 0.31052 0.47408 0.3646 0.0
H713 H 0.29517 0.40242 0.3107 0.0
C714 C 0.2825 0.46032 0.39441 0.0
H715 H 0.33548 0.4612 0.31153 0.0
C716 C 0.25825 0.42628 0.39234 0.0
C717 C 0.26226 0.40501 0.36191 0.0
H718 H 0.27857 0.4759 0.41845 0.0
H719 H 0.23605 0.41678 0.41368 0.0
C720 C 0.29149 0.41808 0.335 0.0
C721 C 0.52919 0.84084 0.33063 0.0
C722 C 0.51194 0.82443 0.37076 0.0
H723 H 0.57315 0.85826 0.28992 0.0
C724 C 0.52801 0.81393 0.40234 0.0
H725 H 0.5175 0.84849 0.30479 0.0
C726 C 0.56019 0.81894 0.39318 0.0
C727 C 0.57698 0.8349 0.35256 0.0
H728 H 0.51561 0.80151 0.43384 0.0
H729 H 0.5716 0.80982 0.41742 0.0
C730 C 0.56126 0.84626 0.3219 0.0
C731 C 0.15531 0.67317 0.36464 0.0
C732 C 0.18717 0.68358 0.34601 0.0
H733 H 0.11902 0.68664 0.38448 0.0
C734 C 0.2069 0.71704 0.33143 0.0
H735 H 0.13963 0.64776 0.37672 0.0
C736 C 0.19504 0.7397 0.33606 0.0
C737 C 0.16341 0.72924 0.35571 0.0
H738 H 0.23144 0.72568 0.31646 0.0
H739 H 0.21093 0.76545 0.32544 0.0
C740 C 0.14357 0.69563 0.36928 0.0
C741 C 0.81073 0.93268 0.3415 0.0
C742 C 0.82456 0.96468 0.3215 0.0
H743 H 0.76647 0.88474 0.35167 0.0
C744 C 0.80363 0.9728 0.29633 0.0
H745 H 0.82628 0.92585 0.36142 0.0
C746 C 0.76976 0.94971 0.29125 0.0
C747 C 0.75574 0.91762 0.31083 0.0
H748 H 0.81354 -0.00301 0.27988 0.0
H749 H 0.75466 0.95707 0.27124 0.0
C750 C 0.77651 0.90931 0.33632 0.0
C751 C 0.00859 0.80043 0.34587 0.0
C752 C 0.0091 0.82158 0.31083 0.0
H753 H 0.03401 0.77852 0.37948 0.0
C754 C 0.03636 0.83516 0.27991 0.0
H755 H 0.98852 0.78992 0.3709 0.0
C756 C 0.06322 0.82916 0.28551 0.0
C757 C 0.06312 0.80907 0.32176 0.0
H758 H 0.03732 0.851 0.25189 0.0
H759 H 0.08444 0.84106 0.26237 0.0
C760 C 0.03501 0.79404 0.35097 0.0
C761 C 0.11871 0.17348 0.35441 0.0
C762 C 0.13428 0.15558 0.33867 0.0
H763 H 0.11984 0.22069 0.35632 0.0
C764 C 0.16284 0.17204 0.3108 0.0
H765 H 0.09664 0.16143 0.37605 0.0
C766 C 0.17588 0.20563 0.29939 0.0
C767 C 0.16083 0.22383 0.31568 0.0
H768 H 0.17499 0.15884 0.29732 0.0
H769 H 0.19804 0.21734 0.27788 0.0
C770 C 0.13195 0.20737 0.34315 0.0
C771 C 0.63927 0.5393 0.63157 0.0
C772 C 0.64177 0.51129 0.64467 0.0
H773 H 0.66543 0.59164 0.61655 0.0
C774 C 0.67339 0.51349 0.64384 0.0
H775 H 0.61513 0.53814 0.63149 0.0
C776 C 0.7024 0.54427 0.63559 0.0
C777 C 0.70016 0.57327 0.62798 0.0
H778 H 0.676 0.49226 0.65389 0.0
H779 H 0.7266 0.54585 0.63935 0.0
C780 C 0.66816 0.56995 0.62301 0.0
C781 C 0.46797 0.13798 0.64508 0.0
C782 C 0.46757 0.10727 0.64565 0.0
H783 H 0.4383 0.16206 0.6469 0.0
C784 C 0.43744 0.07769 0.63648 0.0
H785 H 0.49092 0.16113 0.65217 0.0
C786 C 0.40745 0.07821 0.63364 0.0
C787 C 0.40723 0.10834 0.63966 0.0
H788 H 0.43663 0.05377 0.63613 0.0
H789 H 0.3841 0.05464 0.63153 0.0
C790 C 0.43786 0.13853 0.64192 0.0
C791 C 0.82378 0.28888 0.71352 0.0
C792 C 0.82814 0.31685 0.68846 0.0
H793 H 0.82821 0.24462 0.71316 0.0
C794 C 0.83537 0.31892 0.64159 0.0
H795 H 0.81803 0.28681 0.74977 0.0
C796 C 0.8421 0.2955 0.62132 0.0
C797 C 0.84114 0.2694 0.64747 0.0
H798 H 0.83893 0.3403 0.62166 0.0
H799 H 0.85046 0.29924 0.586 0.0
C800 C 0.82968 0.26489 0.6928 0.0
C801 C 0.19399 0.01539 0.63262 0.0
C802 C 0.17324 -0.01265 0.65984 0.0
H803 H 0.24042 0.06198 0.62843 0.0
C804 C 0.18153 -0.01315 0.70584 0.0
H805 H 0.18783 0.0164 0.59709 0.0
C806 C 0.21162 0.01236 0.72315 0.0
C807 C 0.23379 0.03901 0.69495 0.0
H808 H 0.16602 0.96552 0.72749 0.0
H809 H 0.21848 0.01014 0.7579 0.0
C810 C 0.22392 0.04139 0.65039 0.0
C811 C 0.98688 0.17657 0.68457 0.0
C812 C 0.01761 0.20673 0.68153 0.0
H813 H 0.93318 0.15344 0.68457 0.0
C814 C 0.01769 0.23715 0.68535 0.0
H815 H 0.98611 0.15275 0.68165 0.0
C816 C 0.98756 0.23756 0.68688 0.0
C817 C 0.9567 0.20755 0.68483 0.0
H818 H 0.04106 0.26075 0.68396 0.0
H819 H 0.98844 0.26151 0.68628 0.0
C820 C 0.95657 0.17697 0.68633 0.0
C821 C 0.82214 0.79763 0.6367 0.0
C822 C 0.81024 0.81432 0.66467 0.0
H823 H 0.82469 0.75285 0.62582 0.0
C824 C 0.79486 0.79997 0.7065 0.0
H825 H 0.83375 0.80824 0.60401 0.0
C826 C 0.78934 0.76827 0.71874 0.0
C827 C 0.79937 0.75053 0.68949 0.0
H828 H 0.78525 0.81234 0.72831 0.0
H829 H 0.77561 0.75687 0.74998 0.0
C830 C 0.81708 0.76608 0.64926 0.0
C831 C 0.953 0.78944 0.71955 0.0
C832 C 0.9773 0.80609 0.68504 0.0
H833 H 0.90779 0.74494 0.73952 0.0
C834 C 0.97623 0.78803 0.64575 0.0
H835 H 0.95348 0.8022 0.75088 0.0
C836 C 0.95056 0.75504 0.63987 0.0
C837 C 0.92494 0.73926 0.67279 0.0
H838 H -0.00592 0.79988 0.61815 0.0
H839 H 0.94989 0.74256 0.60815 0.0
C840 C 0.92689 0.75651 0.71327 0.0
C841 C 0.19401 0.14694 0.73425 0.0
C842 C 0.17803 0.15799 0.70335 0.0
H843 H 0.23785 0.1432 0.7489 0.0
C844 C 0.19576 0.17596 0.6643 0.0
H845 H 0.18125 0.13332 0.76493 0.0
C846 C 0.22818 0.18232 0.65591 0.0
C847 C 0.24378 0.17031 0.68571 0.0
H848 H 0.18421 0.1841 0.63891 0.0
H849 H 0.24041 0.1955 0.6247 0.0
C850 C 0.22655 0.15287 0.72535 0.0
C851 C 0.84516 0.02643 0.63441 0.0
C852 C 0.86806 0.02577 0.66571 0.0
H853 H 0.81365 0.04706 0.6179 0.0
C854 C 0.88096 0.04998 0.70063 0.0
H855 H 0.83526 0.00859 0.60659 0.0
C856 C 0.86908 0.07243 0.70633 0.0
C857 C 0.84436 0.07121 0.67709 0.0
H858 H 0.89848 0.05011 0.72547 0.0
H859 H 0.87728 0.08897 0.73568 0.0
C860 C 0.83326 0.04883 0.64025 0.0
C861 C 0.46717 0.31256 0.63957 0.0
C862 C 0.48925 0.30387 0.66046 0.0
H863 H 0.41773 0.29637 0.61573 0.0
C864 C 0.47671 0.27066 0.67555 0.0
H865 H 0.47596 0.33769 0.62692 0.0
C866 C 0.44291 0.24654 0.66876 0.0
C867 C 0.42128 0.25525 0.6464 0.0
H868 H 0.49307 0.26329 0.6922 0.0
H869 H 0.43402 0.22101 0.67975 0.0
C870 C 0.43371 0.28866 0.63276 0.0
C871 C 0.70145 0.16475 0.61312 0.0
C872 C 0.67336 0.14934 0.64259 0.0
H873 H 0.74934 0.17056 0.59459 0.0
C874 C 0.67086 0.12437 0.6727 0.0
H875 H 0.70397 0.1834 0.58844 0.0
C876 C 0.69619 0.1161 0.67473 0.0
C877 C 0.72526 0.13312 0.6476 0.0
H878 H 0.65018 0.11221 0.69661 0.0
H879 H 0.69381 0.09774 0.69986 0.0
C880 C 0.72733 0.15708 0.61606 0.0
C881 C 0.83445 0.50958 0.65666 0.0
C882 C 0.80501 0.49191 0.68266 0.0
H883 H 0.86855 0.55533 0.62351 0.0
C884 C 0.78831 0.50886 0.69782 0.0
H885 H 0.84773 0.4973 0.64394 0.0
C886 C 0.80016 0.54237 0.68577 0.0
C887 C 0.8289 0.55952 0.65825 0.0
H888 H 0.76577 0.49605 0.71845 0.0
H889 H 0.7863 0.55447 0.69688 0.0
C890 C 0.84622 0.5429 0.64464 0.0
C891 C 0.44976 0.90074 0.1993 0.0
C892 C 0.44695 0.91512 0.24038 0.0
H893 H 0.45756 0.90698 0.12648 0.0
C894 C 0.45629 0.94912 0.24084 0.0
H895 H 0.44255 0.87451 0.19809 0.0
C896 C 0.46475 0.96747 0.2003 0.0
C897 C 0.46433 0.95231 0.15849 0.0
H898 H 0.45472 0.96087 0.27215 0.0
H899 H 0.46917 -0.00712 0.20116 0.0
C900 C 0.45849 0.91932 0.15844 0.0
C901 C 0.05868 0.501 0.23287 0.0
C902 C 0.09185 0.52555 0.22312 0.0
H903 H 0.00951 0.46929 0.20648 0.0
C904 C 0.09943 0.54145 0.18014 0.0
H905 H 0.05209 0.48885 0.26605 0.0
C906 C 0.07491 0.53027 0.14577 0.0
C907 C 0.04262 0.50314 0.15424 0.0
H908 H 0.12487 0.56061 0.17202 0.0
H909 H 0.08212 0.54066 0.11163 0.0
C910 C 0.03428 0.49004 0.19886 0.0
C911 C 0.48573 0.56941 0.18402 0.0
C912 C 0.46725 0.55283 0.22346 0.0
H913 H 0.50589 0.56525 0.11972 0.0
C914 C 0.45676 0.51876 0.22919 0.0
H915 H 0.49408 0.59568 0.17857 0.0
C916 C 0.46378 0.50141 0.19577 0.0
C917 C 0.4813 0.51764 0.15556 0.0
H918 H 0.44307 0.50544 0.25959 0.0
H919 H 0.45463 0.47497 0.20099 0.0
C920 C 0.49265 0.55201 0.1504 0.0
C921 C 0.91835 0.44477 0.78616 0.0
C922 C 0.89467 0.41104 0.79384 0.0
H923 H 0.96269 0.48797 0.8093 0.0
C924 C 0.89962 0.39406 0.83041 0.0
H925 H 0.91566 0.45823 0.75755 0.0
C926 C 0.92687 0.41106 0.8601 0.0
C927 C 0.94963 0.44528 0.85371 0.0
H928 H 0.88194 0.36786 0.83673 0.0
H929 H 0.92979 0.39762 0.88841 0.0
C930 C 0.94561 0.46162 0.81552 0.0
C931 C 0.53339 0.45562 0.79654 0.0
C932 C 0.56647 0.47216 0.77936 0.0
H933 H 0.50022 0.45276 0.8509 0.0
C934 C 0.59191 0.4974 0.80574 0.0
H935 H 0.51333 0.43586 0.777 0.0
C936 C 0.58454 0.50694 0.84722 0.0
C937 C 0.55147 0.49146 0.86405 0.0
H938 H 0.6178 0.5099 0.79435 0.0
H939 H 0.6051 0.52676 0.86608 0.0
C940 C 0.52591 0.46525 0.83871 0.0
C941 C 0.48815 0.02825 0.76559 0.0
C942 C 0.5078 0.06315 0.76938 0.0
H943 H 0.46615 0.98105 0.80054 0.0
C944 C 0.51791 0.07767 0.81284 0.0
H945 H 0.47974 0.01664 0.73237 0.0
C946 C 0.50903 0.05743 0.85195 0.0
C947 C 0.49058 0.0224 0.84793 0.0
H948 H 0.53264 0.10461 0.81647 0.0
H949 H 0.51808 0.06908 0.88501 0.0
C950 C 0.48003 0.00801 0.80448 0.0
C951 C 0.11711 0.23315 0.53178 0.0
C952 C 0.11312 0.24718 0.57245 0.0
H953 H 0.12661 0.23983 0.45932 0.0
C954 C 0.12219 0.28111 0.5729 0.0
H955 H 0.11018 0.20698 0.5306 0.0
C956 C 0.13158 0.29971 0.53256 0.0
C957 C 0.13228 0.28484 0.49099 0.0
H958 H 0.11977 0.29261 0.60393 0.0
H959 H 0.13575 0.32503 0.53324 0.0
C960 C 0.12671 0.25196 0.49113 0.0
C961 C 0.72285 0.83416 0.57055 0.0
C962 C 0.75605 0.85943 0.56228 0.0
H963 H 0.67495 0.8006 0.54171 0.0
C964 C 0.76445 0.87474 0.51885 0.0
H965 H 0.71547 0.82236 0.6039 0.0
C966 C 0.74099 0.86242 0.48307 0.0
C967 C 0.70893 0.83463 0.49038 0.0
H968 H 0.78987 0.89431 0.51155 0.0
H969 H 0.74895 0.87257 0.44895 0.0
C970 C 0.69959 0.82186 0.535 0.0
C971 C 0.15628 0.91253 0.51067 0.0
C972 C 0.13735 0.89446 0.54913 0.0
H973 H 0.18107 0.91173 0.4488 0.0
C974 C 0.12977 0.8612 0.55476 0.0
H975 H 0.16277 0.93837 0.50563 0.0
C976 C 0.14024 0.84608 0.52236 0.0
C977 C 0.15832 0.8637 0.48312 0.0
H978 H 0.11601 0.84691 0.58456 0.0
H979 H 0.13322 0.82012 0.5276 0.0
C980 C 0.16672 0.89731 0.47806 0.0
C981 C 0.58911 0.77998 0.11777 0.0
C982 C 0.56508 0.74618 0.12366 0.0
H983 H 0.63248 0.82257 0.14418 0.0
C984 C 0.5682 0.72847 0.16083 0.0
H985 H 0.58774 0.79397 0.08884 0.0
C986 C 0.594 0.74486 0.19288 0.0
C987 C 0.6172 0.77914 0.18809 0.0
H988 H 0.55016 0.70219 0.16574 0.0
H989 H 0.59545 0.73089 0.22166 0.0
C990 C 0.615 0.79618 0.14932 0.0
C991 C 0.21121 0.77839 0.14326 0.0
C992 C 0.21492 0.79379 0.10035 0.0
H993 H 0.20106 0.77927 0.21493 0.0
C994 C 0.20477 0.81777 0.09539 0.0
H995 H 0.21888 0.75984 0.14805 0.0
C996 C 0.19468 0.8288 0.13342 0.0
C997 C 0.19426 0.81591 0.17713 0.0
H998 H 0.2067 0.82956 0.06256 0.0
H999 H 0.18956 0.84921 0.12917 0.0
C1000 C 0.20084 0.78935 0.18149 0.0
C1001 C 0.20876 0.41333 0.13779 0.0
C1002 C 0.18333 0.40024 0.10456 0.0
H1003 H 0.22577 0.4061 0.20268 0.0
C1004 C 0.15372 0.36972 0.11402 0.0
H1005 H 0.23144 0.43712 0.1327 0.0
C1006 C 0.15002 0.35258 0.15521 0.0
C1007 C 0.17612 0.36532 0.18713 0.0
H1008 H 0.13369 0.35856 0.08917 0.0
H1009 H 0.12749 0.32879 0.16122 0.0
C1010 C 0.20533 0.39586 0.17827 0.0
C1011 C 0.73369 0.56428 0.86458 0.0
C1012 C 0.75984 0.57015 0.89458 0.0
H1013 H 0.71928 0.57605 0.80121 0.0
C1014 C 0.79322 0.59124 0.88022 0.0
H1015 H 0.70777 0.54743 0.87398 0.0
C1016 C 0.8 0.60778 0.83763 0.0
C1017 C 0.77343 0.6034 0.80922 0.0
H1018 H 0.81387 0.59597 0.90261 0.0
H1019 H 0.82575 0.62492 0.82788 0.0
C1020 C 0.74035 0.58072 0.82273 0.0
C1021 C 0.43414 0.21025 0.84656 0.0
C1022 C 0.42675 0.19473 0.88981 0.0
H1023 H 0.41682 0.2085 0.77778 0.0
C1024 C 0.39369 0.16975 0.8995 0.0
H1025 H 0.45946 0.22963 0.83832 0.0
C1026 C 0.36943 0.15787 0.86524 0.0
C1027 C 0.37769 0.1707 0.82052 0.0
H1028 H 0.38718 0.1578 0.93283 0.0
H1029 H 0.34487 0.13676 0.87284 0.0
C1030 C 0.4097 0.19829 0.81202 0.0
C1031 C 0.79151 0.18812 0.88752 0.0
C1032 C 0.80302 0.2225 0.88321 0.0
H1033 H 0.78869 0.14447 0.85805 0.0
C1034 C 0.82339 0.23984 0.8454 0.0
H1035 H 0.77663 0.17418 0.91684 0.0
C1036 C 0.83099 0.22286 0.81187 0.0
C1037 C 0.818 0.18812 0.81507 0.0
H1038 H 0.83284 0.26642 0.84112 0.0
H1039 H 0.84627 0.2368 0.78293 0.0
C1040 C 0.79891 0.17119 0.854 0.0
C1041 C 0.23188 0.06337 0.49709 0.0
C1042 C 0.22668 0.08033 0.46068 0.0
H1043 H 0.2619 0.06702 0.55534 0.0
C1044 C 0.24972 0.11438 0.45395 0.0
H1045 H 0.21467 0.03698 0.50282 0.0
C1046 C 0.27673 0.1314 0.48374 0.0
C1047 C 0.28117 0.11493 0.52149 0.0
H1048 H 0.24684 0.1279 0.42559 0.0
H1049 H 0.29341 0.1579 0.47807 0.0
C1050 C 0.25882 0.08054 0.52725 0.0
C1051 C 0.87536 0.11023 0.47537 0.0
C1052 C 0.88132 0.12687 0.43299 0.0
H1053 H 0.86262 0.10963 0.54627 0.0
C1054 C 0.87268 0.15195 0.42789 0.0
H1055 H 0.88179 0.0908 0.48035 0.0
C1056 C 0.86179 0.16264 0.46546 0.0
C1057 C 0.85908 0.14835 0.50885 0.0
H1058 H 0.87624 0.16468 0.39542 0.0
H1059 H 0.85779 0.18378 0.46127 0.0
C1060 C 0.86419 0.12085 0.51309 0.0
C1061 C 0.82607 0.69437 0.42832 0.0
C1062 C 0.84383 0.72933 0.43261 0.0
H1063 H 0.80538 0.64711 0.46285 0.0
C1064 C 0.85224 0.74373 0.47631 0.0
H1065 H 0.81891 0.68285 0.39486 0.0
C1066 C 0.8434 0.72335 0.51526 0.0
C1067 C 0.82668 0.68833 0.51085 0.0
H1068 H 0.86542 0.77069 0.48027 0.0
H1069 H 0.85094 0.73498 0.54861 0.0
C1070 C 0.81799 0.67403 0.46708 0.0
loop_
_geom_bond_atom_site_label_1
_geom_bond_atom_site_label_2
_geom_bond_distance
_geom_bond_site_symmetry_2
_ccdc_geom_bond_type
H0 C1 0.949 . S
C1 H0 0.949 . S
C1 C2 1.395 . S
C1 C3 1.391 . S
C2 C1 1.395 . S
C2 C5 1.390 . S
C3 C1 1.391 . S
C3 C7 1.387 . S
C3 C8 1.491 . S
H4 C5 0.950 . S
C5 C2 1.390 . S
C5 H4 0.950 . S
C5 C6 1.378 . S
C6 C5 1.378 . S
C6 C7 1.409 . S
C7 C3 1.387 . S
C7 C6 1.409 . S
C7 H9 0.951 . S
C8 C3 1.491 . S
C8 C10 1.382 . S
C8 C12 1.404 . S
H9 C7 0.951 . S
C10 C8 1.382 . S
C10 C11 1.390 . S
C10 H15 0.949 . S
C11 C10 1.390 . S
C11 C16 1.399 . S
C12 C8 1.404 . S
C12 H13 0.950 . S
C12 C14 1.375 . S
H13 C12 0.950 . S
C14 C12 1.375 . S
C14 C16 1.382 . S
C14 H18 0.950 . S
H15 C10 0.949 . S
C16 C11 1.399 . S
C16 C14 1.382 . S
C16 H17 0.952 . S
H17 C16 0.952 . S
H18 C14 0.950 . S
H19 C20 0.949 . S
C20 H19 0.949 . S
C20 C21 1.395 . S
C20 C22 1.391 . S
C21 C20 1.395 . S
C21 C24 1.390 . S
C22 C20 1.391 . S
C22 C26 1.387 . S
C22 C27 1.491 . S
H23 C24 0.950 . S
C24 C21 1.390 . S
C24 H23 0.950 . S
C24 C25 1.378 . S
C25 C24 1.378 . S
C25 C26 1.409 . S
C26 C22 1.387 . S
C26 C25 1.409 . S
C26 H28 0.951 . S
C27 C22 1.491 . S
C27 C29 1.382 . S
C27 C31 1.404 . S
H28 C26 0.951 . S
C29 C27 1.382 . S
C29 C30 1.390 . S
C29 H34 0.949 . S
C30 C29 1.390 . S
C30 C35 1.399 1_545 S
C31 C27 1.404 . S
C31 H32 0.950 . S
C31 C33 1.375 . S
H32 C31 0.950 . S
C33 C31 1.375 . S
C33 C35 1.382 1_545 S
C33 H37 0.950 . S
H34 C29 0.949 . S
C35 C30 1.399 1_565 S
C35 C33 1.382 1_565 S
C35 H36 0.952 . S
H36 C35 0.952 . S
H37 C33 0.950 . S
H38 C39 0.949 . S
C39 H38 0.949 . S
C39 C40 1.395 . S
C39 C41 1.391 . S
C40 C39 1.395 . S
C40 C43 1.390 . S
C41 C39 1.391 . S
C41 C45 1.387 . S
C41 C46 1.491 . S
H42 C43 0.950 . S
C43 C40 1.390 . S
C43 H42 0.950 . S
C43 C44 1.378 . S
C44 C43 1.378 . S
C44 C45 1.409 . S
C45 C41 1.387 . S
C45 C44 1.409 . S
C45 H47 0.951 . S
C46 C41 1.491 . S
C46 C48 1.382 . S
C46 C50 1.404 . S
H47 C45 0.951 . S
C48 C46 1.382 . S
C48 C49 1.390 . S
C48 H53 0.949 . S
C49 C48 1.390 . S
C49 C54 1.399 1_655 S
C50 C46 1.404 . S
C50 H51 0.950 . S
C50 C52 1.375 . S
H51 C50 0.950 . S
C52 C50 1.375 . S
C52 C54 1.382 1_655 S
C52 H56 0.950 . S
H53 C48 0.949 . S
C54 C49 1.399 1_455 S
C54 C52 1.382 1_455 S
C54 H55 0.952 . S
H55 C54 0.952 . S
H56 C52 0.950 . S
H57 C58 0.949 . S
C58 H57 0.949 . S
C58 C59 1.395 . S
C58 C60 1.391 . S
C59 C58 1.395 . S
C59 C62 1.390 . S
C60 C58 1.391 . S
C60 C64 1.387 . S
C60 C65 1.491 . S
H61 C62 0.950 . S
C62 C59 1.390 . S
C62 H61 0.950 . S
C62 C63 1.378 . S
C63 C62 1.378 . S
C63 C64 1.409 . S
C64 C60 1.387 . S
C64 C63 1.409 . S
C64 H66 0.951 . S
C65 C60 1.491 . S
C65 C67 1.382 . S
C65 C69 1.404 . S
H66 C64 0.951 . S
C67 C65 1.382 . S
C67 C68 1.390 . S
C67 H72 0.949 . S
C68 C67 1.390 . S
C68 C73 1.399 . S
C69 C65 1.404 . S
C69 H70 0.950 . S
C69 C71 1.375 . S
H70 C69 0.950 . S
C71 C69 1.375 . S
C71 C73 1.382 . S
C71 H75 0.950 . S
H72 C67 0.949 . S
C73 C68 1.399 . S
C73 C71 1.382 . S
C73 H74 0.952 . S
H74 C73 0.952 . S
H75 C71 0.950 . S
H76 C77 0.949 . S
C77 H76 0.949 . S
C77 C78 1.395 . S
C77 C79 1.391 . S
C78 C77 1.395 . S
C78 C81 1.390 . S
C79 C77 1.391 . S
C79 C83 1.387 . S
C79 C84 1.491 . S
H80 C81 0.950 . S
C81 C78 1.390 . S
C81 H80 0.950 . S
C81 C82 1.378 . S
C82 C81 1.378 . S
C82 C83 1.409 . S
C83 C79 1.387 . S
C83 C82 1.409 . S
C83 H85 0.951 . S
C84 C79 1.491 . S
C84 C86 1.382 . S
C84 C88 1.404 . S
H85 C83 0.951 . S
C86 C84 1.382 . S
C86 C87 1.390 . S
C86 H91 0.949 . S
C87 C86 1.390 . S
C87 C92 1.399 1_565 S
C88 C84 1.404 . S
C88 H89 0.950 . S
C88 C90 1.375 . S
H89 C88 0.950 . S
C90 C88 1.375 . S
C90 C92 1.382 1_565 S
C90 H94 0.950 . S
H91 C86 0.949 . S
C92 C87 1.399 1_545 S
C92 C90 1.382 1_545 S
C92 H93 0.952 . S
H93 C92 0.952 . S
H94 C90 0.950 . S
H95 C96 0.949 . S
C96 H95 0.949 . S
C96 C97 1.395 . S
C96 C98 1.391 . S
C97 C96 1.395 . S
C97 C100 1.390 . S
C98 C96 1.391 . S
C98 C102 1.387 . S
C98 C103 1.491 . S
H99 C100 0.950 . S
C100 C97 1.390 . S
C100 H99 0.950 . S
C100 C101 1.378 . S
C101 C100 1.378 . S
C101 C102 1.409 . S
C102 C98 1.387 . S
C102 C101 1.409 . S
C102 H104 0.951 . S
C103 C98 1.491 . S
C103 C105 1.382 . S
C103 C107 1.404 . S
H104 C102 0.951 . S
C105 C103 1.382 . S
C105 C106 1.390 . S
C105 H110 0.949 . S
C106 C105 1.390 . S
C106 C111 1.399 . S
C107 C103 1.404 . S
C107 H108 0.950 . S
C107 C109 1.375 . S
H108 C107 0.950 . S
C109 C107 1.375 . S
C109 C111 1.382 . S
C109 H113 0.950 . S
H110 C105 0.949 . S
C111 C106 1.399 . S
C111 C109 1.382 . S
C111 H112 0.952 1_455 S
H112 C111 0.952 1_655 S
H113 C109 0.950 . S
H114 C115 0.949 . S
C115 H114 0.949 . S
C115 C116 1.395 . S
C115 C117 1.391 . S
C116 C115 1.395 . S
C116 C119 1.390 . S
C117 C115 1.391 . S
C117 C121 1.387 . S
C117 C122 1.491 . S
H118 C119 0.950 . S
C119 C116 1.390 . S
C119 H118 0.950 . S
C119 C120 1.378 . S
C120 C119 1.378 . S
C120 C121 1.409 . S
C121 C117 1.387 . S
C121 C120 1.409 . S
C121 H123 0.951 . S
C122 C117 1.491 . S
C122 C124 1.382 . S
C122 C126 1.404 . S
H123 C121 0.951 . S
C124 C122 1.382 . S
C124 C125 1.390 . S
C124 H129 0.949 . S
C125 C124 1.390 . S
C125 C130 1.399 . S
C126 C122 1.404 . S
C126 H127 0.950 . S
C126 C128 1.375 . S
H127 C126 0.950 . S
C128 C126 1.375 . S
C128 C130 1.382 . S
C128 H132 0.950 . S
H129 C124 0.949 . S
C130 C125 1.399 . S
C130 C128 1.382 . S
C130 H131 0.952 . S
H131 C130 0.952 . S
H132 C128 0.950 . S
H133 C134 0.949 . S
C134 H133 0.949 . S
C134 C135 1.395 . S
C134 C136 1.391 . S
C135 C134 1.395 . S
C135 C138 1.390 . S
C136 C134 1.391 . S
C136 C140 1.387 . S
C136 C141 1.491 . S
H137 C138 0.950 . S
C138 C135 1.390 . S
C138 H137 0.950 . S
C138 C139 1.378 . S
C139 C138 1.378 . S
C139 C140 1.409 . S
C140 C136 1.387 . S
C140 C139 1.409 . S
C140 H142 0.951 . S
C141 C136 1.491 . S
C141 C143 1.382 . S
C141 C145 1.404 . S
H142 C140 0.951 . S
C143 C141 1.382 . S
C143 C144 1.390 . S
C143 H148 0.949 . S
C144 C143 1.390 . S
C144 C149 1.399 . S
C145 C141 1.404 . S
C145 H146 0.950 . S
C145 C147 1.375 . S
H146 C145 0.950 . S
C147 C145 1.375 . S
C147 C149 1.382 . S
C147 H151 0.950 . S
H148 C143 0.949 . S
C149 C144 1.399 . S
C149 C147 1.382 . S
C149 H150 0.952 . S
H150 C149 0.952 . S
H151 C147 0.950 . S
H152 C153 0.949 . S
C153 H152 0.949 . S
C153 C154 1.395 . S
C153 C155 1.391 . S
C154 C153 1.395 . S
C154 C157 1.390 . S
C155 C153 1.391 . S
C155 C159 1.387 . S
C155 C160 1.491 . S
H156 C157 0.950 . S
C157 C154 1.390 . S
C157 H156 0.950 . S
C157 C158 1.378 . S
C158 C157 1.378 . S
C158 C159 1.409 . S
C159 C155 1.387 . S
C159 C158 1.409 . S
C159 H161 0.951 . S
C160 C155 1.491 . S
C160 C162 1.382 . S
C160 C164 1.404 . S
H161 C159 0.951 . S
C162 C160 1.382 . S
C162 C163 1.390 . S
C162 H167 0.949 . S
C163 C162 1.390 . S
C163 C168 1.399 . S
C164 C160 1.404 . S
C164 H165 0.950 . S
C164 C166 1.375 . S
H165 C164 0.950 . S
C166 C164 1.375 . S
C166 C168 1.382 . S
C166 H170 0.950 . S
H167 C162 0.949 . S
C168 C163 1.399 . S
C168 C166 1.382 . S
C168 H169 0.952 . S
H169 C168 0.952 . S
H170 C166 0.950 . S
H171 C172 0.949 . S
C172 H171 0.949 . S
C172 C173 1.395 . S
C172 C174 1.391 1_556 S
C173 C172 1.395 . S
C173 C176 1.390 . S
C174 C172 1.391 1_554 S
C174 C178 1.387 . S
C174 C179 1.491 . S
H175 C176 0.950 . S
C176 C173 1.390 . S
C176 H175 0.950 . S
C176 C177 1.378 1_556 S
C177 C176 1.378 1_554 S
C177 C178 1.409 . S
C178 C174 1.387 . S
C178 C177 1.409 . S
C178 H180 0.951 . S
C179 C174 1.491 . S
C179 C181 1.382 . S
C179 C183 1.404 . S
H180 C178 0.951 . S
C181 C179 1.382 . S
C181 C182 1.390 . S
C181 H186 0.949 . S
C182 C181 1.390 . S
C182 C187 1.399 . S
C183 C179 1.404 . S
C183 H184 0.950 . S
C183 C185 1.375 . S
H184 C183 0.950 . S
C185 C183 1.375 . S
C185 C187 1.382 . S
C185 H189 0.950 . S
H186 C181 0.949 . S
C187 C182 1.399 . S
C187 C185 1.382 . S
C187 H188 0.952 . S
H188 C187 0.952 . S
H189 C185 0.950 . S
H190 C191 0.949 . S
C191 H190 0.949 . S
C191 C192 1.395 . S
C191 C193 1.391 1_556 S
C192 C191 1.395 . S
C192 C195 1.390 . S
C193 C191 1.391 1_554 S
C193 C197 1.387 . S
C193 C198 1.491 . S
H194 C195 0.950 . S
C195 C192 1.390 . S
C195 H194 0.950 . S
C195 C196 1.378 1_556 S
C196 C195 1.378 1_554 S
C196 C197 1.409 . S
C197 C193 1.387 . S
C197 C196 1.409 . S
C197 H199 0.951 . S
C198 C193 1.491 . S
C198 C200 1.382 . S
C198 C202 1.404 . S
H199 C197 0.951 . S
C200 C198 1.382 . S
C200 C201 1.390 . S
C200 H205 0.949 . S
C201 C200 1.390 . S
C201 C206 1.399 . S
C202 C198 1.404 . S
C202 H203 0.950 . S
C202 C204 1.375 . S
H203 C202 0.950 . S
C204 C202 1.375 . S
C204 C206 1.382 . S
C204 H208 0.950 . S
H205 C200 0.949 . S
C206 C201 1.399 . S
C206 C204 1.382 . S
C206 H207 0.952 . S
H207 C206 0.952 . S
H208 C204 0.950 . S
H209 C210 0.949 . S
C210 H209 0.949 . S
C210 C211 1.395 . S
C210 C212 1.391 1_556 S
C211 C210 1.395 . S
C211 C214 1.390 . S
C212 C210 1.391 1_554 S
C212 C216 1.387 . S
C212 C217 1.491 . S
H213 C214 0.950 . S
C214 C211 1.390 . S
C214 H213 0.950 . S
C214 C215 1.378 1_556 S
C215 C214 1.378 1_554 S
C215 C216 1.409 . S
C216 C212 1.387 . S
C216 C215 1.409 . S
C216 H218 0.951 . S
C217 C212 1.491 . S
C217 C219 1.382 . S
C217 C221 1.404 . S
H218 C216 0.951 . S
C219 C217 1.382 . S
C219 C220 1.390 . S
C219 H224 0.949 . S
C220 C219 1.390 . S
C220 C225 1.399 . S
C221 C217 1.404 . S
C221 H222 0.950 . S
C221 C223 1.375 . S
H222 C221 0.950 . S
C223 C221 1.375 . S
C223 C225 1.382 . S
C223 H227 0.950 . S
H224 C219 0.949 . S
C225 C220 1.399 . S
C225 C223 1.382 . S
C225 H226 0.952 . S
H226 C225 0.952 . S
H227 C223 0.950 . S
H228 C229 0.949 . S
C229 H228 0.949 . S
C229 C230 1.395 . S
C229 C231 1.391 1_554 S
C230 C229 1.395 . S
C230 C233 1.390 . S
C231 C229 1.391 1_556 S
C231 C235 1.387 . S
C231 C236 1.491 . S
H232 C233 0.950 . S
C233 C230 1.390 . S
C233 H232 0.950 . S
C233 C234 1.378 1_554 S
C234 C233 1.378 1_556 S
C234 C235 1.409 . S
C235 C231 1.387 . S
C235 C234 1.409 . S
C235 H237 0.951 . S
C236 C231 1.491 . S
C236 C238 1.382 . S
C236 C240 1.404 . S
H237 C235 0.951 . S
C238 C236 1.382 . S
C238 C239 1.390 . S
C238 H243 0.949 . S
C239 C238 1.390 . S
C239 C244 1.399 . S
C240 C236 1.404 . S
C240 H241 0.950 . S
C240 C242 1.375 . S
H241 C240 0.950 . S
C242 C240 1.375 . S
C242 C244 1.382 . S
C242 H246 0.950 . S
H243 C238 0.949 . S
C244 C239 1.399 . S
C244 C242 1.382 . S
C244 H245 0.952 . S
H245 C244 0.952 . S
H246 C242 0.950 . S
H247 C248 0.949 . S
C248 H247 0.949 . S
C248 C249 1.395 . S
C248 C250 1.391 1_554 S
C249 C248 1.395 . S
C249 C252 1.390 . S
C250 C248 1.391 1_556 S
C250 C254 1.387 . S
C250 C255 1.491 . S
H251 C252 0.950 . S
C252 C249 1.390 . S
C252 H251 0.950 . S
C252 C253 1.378 1_554 S
C253 C252 1.378 1_556 S
C253 C254 1.409 . S
C254 C250 1.387 . S
C254 C253 1.409 . S
C254 H256 0.951 . S
C255 C250 1.491 . S
C255 C257 1.382 . S
C255 C259 1.404 . S
H256 C254 0.951 . S
C257 C255 1.382 . S
C257 C258 1.390 . S
C257 H262 0.949 . S
C258 C257 1.390 . S
C258 C263 1.399 . S
C259 C255 1.404 . S
C259 H260 0.950 . S
C259 C261 1.375 . S
H260 C259 0.950 . S
C261 C259 1.375 . S
C261 C263 1.382 . S
C261 H265 0.950 . S
H262 C257 0.949 . S
C263 C258 1.399 . S
C263 C261 1.382 . S
C263 H264 0.952 . S
H264 C263 0.952 . S
H265 C261 0.950 . S
H266 C267 0.949 . S
C267 H266 0.949 . S
C267 C268 1.395 . S
C267 C269 1.379 1_554 S
C268 C267 1.395 . S
C268 C271 1.390 . S
C269 C267 1.379 1_556 S
C269 C273 1.394 . S
C269 C274 1.497 . S
H270 C271 0.950 . S
C271 C268 1.390 . S
C271 H270 0.950 . S
C271 C272 1.378 1_554 S
C272 C271 1.378 1_556 S
C272 C273 1.409 . S
C273 C269 1.394 . S
C273 C272 1.409 . S
C273 H275 0.951 . S
C274 C269 1.497 . S
C274 C276 1.382 . S
C274 C278 1.404 . S
H275 C273 0.951 . S
C276 C274 1.382 . S
C276 C277 1.390 . S
C276 H281 0.949 . S
C277 C276 1.390 . S
C277 C282 1.399 . S
C278 C274 1.404 . S
C278 H279 0.950 . S
C278 C280 1.375 . S
H279 C278 0.950 . S
C280 C278 1.375 . S
C280 C282 1.382 . S
C280 H284 0.950 . S
H281 C276 0.949 . S
C282 C277 1.399 . S
C282 C280 1.382 . S
C282 H283 0.952 . S
H283 C282 0.952 . S
H284 C280 0.950 . S
H285 C286 0.949 . S
C286 H285 0.949 . S
C286 C287 1.395 . S
C286 C288 1.391 . S
C287 C286 1.395 . S
C287 C290 1.390 . S
C288 C286 1.391 . S
C288 C292 1.387 . S
C288 C293 1.491 . S
H289 C290 0.950 . S
C290 C287 1.390 . S
C290 H289 0.950 . S
C290 C291 1.378 . S
C291 C290 1.378 . S
C291 C292 1.409 . S
C292 C288 1.387 . S
C292 C291 1.409 . S
C292 H294 0.951 . S
C293 C288 1.491 . S
C293 C295 1.382 . S
C293 C297 1.404 . S
H294 C292 0.951 . S
C295 C293 1.382 . S
C295 C296 1.390 . S
C295 H300 0.949 . S
C296 C295 1.390 . S
C296 C301 1.399 . S
C297 C293 1.404 . S
C297 H298 0.950 . S
C297 C299 1.375 . S
H298 C297 0.950 . S
C299 C297 1.375 . S
C299 C301 1.382 . S
C299 H303 0.950 . S
H300 C295 0.949 . S
C301 C296 1.399 . S
C301 C299 1.382 . S
C301 H302 0.952 . S
H302 C301 0.952 . S
H303 C299 0.950 . S
H304 C305 0.949 . S
C305 H304 0.949 . S
C305 C306 1.395 . S
C305 C307 1.391 . S
C306 C305 1.395 . S
C306 C309 1.390 . S
C307 C305 1.391 . S
C307 C311 1.387 . S
C307 C312 1.491 . S
H308 C309 0.950 . S
C309 C306 1.390 . S
C309 H308 0.950 . S
C309 C310 1.378 . S
C310 C309 1.378 . S
C310 C311 1.409 . S
C311 C307 1.387 . S
C311 C310 1.409 . S
C311 H313 0.951 . S
C312 C307 1.491 . S
C312 C314 1.382 . S
C312 C316 1.404 . S
H313 C311 0.951 . S
C314 C312 1.382 . S
C314 C315 1.390 . S
C314 H319 0.949 . S
C315 C314 1.390 . S
C315 C320 1.399 . S
C316 C312 1.404 . S
C316 H317 0.950 . S
C316 C318 1.375 . S
H317 C316 0.950 . S
C318 C316 1.375 . S
C318 C320 1.382 . S
C318 H322 0.950 . S
H319 C314 0.949 . S
C320 C315 1.399 . S
C320 C318 1.382 . S
C320 H321 0.952 . S
H321 C320 0.952 . S
H322 C318 0.950 . S
H323 C324 0.949 . S
C324 H323 0.949 . S
C324 C325 1.395 . S
C324 C326 1.391 . S
C325 C324 1.395 . S
C325 C328 1.390 . S
C326 C324 1.391 . S
C326 C330 1.387 . S
C326 C331 1.491 . S
H327 C328 0.950 . S
C328 C325 1.390 . S
C328 H327 0.950 . S
C328 C329 1.378 . S
C329 C328 1.378 . S
C329 C330 1.409 . S
C330 C326 1.387 . S
C330 C329 1.409 . S
C330 H332 0.951 . S
C331 C326 1.491 . S
C331 C333 1.382 . S
C331 C335 1.404 . S
H332 C330 0.951 . S
C333 C331 1.382 . S
C333 C334 1.390 . S
C333 H338 0.949 . S
C334 C333 1.390 . S
C334 C339 1.399 . S
C335 C331 1.404 . S
C335 H336 0.950 . S
C335 C337 1.375 . S
H336 C335 0.950 . S
C337 C335 1.375 . S
C337 C339 1.382 . S
C337 H341 0.950 . S
H338 C333 0.949 . S
C339 C334 1.399 . S
C339 C337 1.382 . S
C339 H340 0.952 . S
H340 C339 0.952 . S
H341 C337 0.950 . S
O342 Mg343 1.990 . S
O342 C356 1.253 . S
Mg343 O342 1.990 . S
Mg343 O346 2.180 1_545 S
Mg343 O347 2.117 1_545 S
Mg343 O361 2.030 . S
O344 Mg345 2.072 1_556 S
O344 C356 1.260 . S
Mg345 O344 2.072 1_554 S
Mg345 O346 2.099 1_544 S
Mg345 O348 2.079 1_545 S
Mg345 O349 2.072 1_544 S
Mg345 O351 2.099 . S
Mg345 O362 2.079 . S
O346 Mg343 2.180 1_565 S
O346 Mg345 2.099 1_566 S
O346 C357 1.279 . S
O347 Mg343 2.117 1_565 S
O347 C357 1.250 . S
O348 Mg345 2.079 1_565 S
O348 C358 1.264 . S
O349 Mg345 2.072 1_566 S
O349 C359 1.260 1_556 S
Mg350 O351 2.180 . S
Mg350 O352 2.030 1_545 S
Mg350 O353 1.990 1_545 S
Mg350 O354 2.117 . S
O351 Mg345 2.099 . S
O351 Mg350 2.180 . S
O351 C360 1.279 . S
O352 Mg350 2.030 1_565 S
O352 C358 1.248 . S
O353 Mg350 1.990 1_565 S
O353 C359 1.253 . S
O354 Mg350 2.117 . S
O354 C360 1.250 . S
C355 O361 1.248 . S
C355 O362 1.264 1_556 S
C356 O342 1.253 . S
C356 O344 1.260 . S
C357 O346 1.279 . S
C357 O347 1.250 . S
C358 O348 1.264 . S
C358 O352 1.248 . S
C359 O349 1.260 1_554 S
C359 O353 1.253 . S
C360 O351 1.279 . S
C360 O354 1.250 . S
O361 Mg343 2.030 . S
O361 C355 1.248 . S
O362 Mg345 2.079 . S
O362 C355 1.264 1_554 S
O363 Mg364 1.990 1_655 S
O363 C377 1.253 . S
Mg364 O363 1.990 1_455 S
Mg364 O367 2.180 . S
Mg364 O368 2.117 . S
Mg364 O382 2.030 1_455 S
O365 Mg366 2.072 1_656 S
O365 C377 1.260 . S
Mg366 O365 2.072 1_454 S
Mg366 O367 2.099 1_554 S
Mg366 O369 2.079 . S
Mg366 O370 2.072 1_554 S
Mg366 O372 2.099 1_455 S
Mg366 O383 2.079 1_455 S
O367 Mg364 2.180 . S
O367 Mg366 2.099 1_556 S
O367 C378 1.279 . S
O368 Mg364 2.117 . S
O368 C378 1.250 . S
O369 Mg366 2.079 . S
O369 C379 1.264 . S
O370 Mg366 2.072 1_556 S
O370 C380 1.260 1_556 S
Mg371 O372 2.180 1_455 S
Mg371 O373 2.030 . S
Mg371 O374 1.990 . S
Mg371 O375 2.117 1_455 S
O372 Mg366 2.099 1_655 S
O372 Mg371 2.180 1_655 S
O372 C381 1.279 . S
O373 Mg371 2.030 . S
O373 C379 1.248 . S
O374 Mg371 1.990 . S
O374 C380 1.253 . S
O375 Mg371 2.117 1_655 S
O375 C381 1.250 . S
C376 O382 1.262 . S
C376 O383 1.255 1_556 S
C377 O363 1.253 . S
C377 O365 1.260 . S
C378 O367 1.279 . S
C378 O368 1.250 . S
C379 O369 1.264 . S
C379 O373 1.248 . S
C380 O370 1.260 1_554 S
C380 O374 1.253 . S
C381 O372 1.279 . S
C381 O375 1.250 . S
O382 Mg364 2.030 1_655 S
O382 C376 1.262 . S
O383 Mg366 2.079 1_655 S
O383 C376 1.255 1_554 S
O384 Mg385 1.990 . S
O384 C398 1.253 . S
Mg385 O384 1.990 . S
Mg385 O388 2.180 . S
Mg385 O389 2.117 . S
Mg385 O403 2.030 . S
O386 Mg387 2.072 1_554 S
O386 C398 1.260 . S
Mg387 O386 2.072 1_556 S
Mg387 O388 2.099 1_556 S
Mg387 O390 2.079 . S
Mg387 O391 2.072 1_556 S
Mg387 O393 2.099 . S
Mg387 O404 2.079 . S
O388 Mg385 2.180 . S
O388 Mg387 2.099 1_554 S
O388 C399 1.279 . S
O389 Mg385 2.117 . S
O389 C399 1.250 . S
O390 Mg387 2.079 . S
O390 C400 1.264 . S
O391 Mg387 2.072 1_554 S
O391 C401 1.260 1_554 S
Mg392 O393 2.180 . S
Mg392 O394 2.030 . S
Mg392 O395 1.990 . S
Mg392 O396 2.117 . S
O393 Mg387 2.099 . S
O393 Mg392 2.180 . S
O393 C402 1.279 . S
O394 Mg392 2.030 . S
O394 C400 1.248 . S
O395 Mg392 1.990 . S
O395 C401 1.253 . S
O396 Mg392 2.117 . S
O396 C402 1.250 . S
C397 O403 1.248 . S
C397 O404 1.264 1_554 S
C398 O384 1.253 . S
C398 O386 1.260 . S
C399 O388 1.279 . S
C399 O389 1.250 . S
C400 O390 1.264 . S
C400 O394 1.248 . S
C401 O391 1.260 1_556 S
C401 O395 1.253 . S
C402 O393 1.279 . S
C402 O396 1.250 . S
O403 Mg385 2.030 . S
O403 C397 1.248 . S
O404 Mg387 2.079 . S
O404 C397 1.264 1_556 S
O405 Mg406 1.990 . S
O405 C419 1.253 . S
Mg406 O405 1.990 . S
Mg406 O409 2.180 . S
Mg406 O410 2.117 . S
Mg406 O424 2.030 . S
O407 Mg408 2.072 . S
O407 C419 1.260 . S
Mg408 O407 2.072 . S
Mg408 O409 2.099 . S
Mg408 O411 2.079 . S
Mg408 O412 2.072 . S
Mg408 O414 2.099 . S
Mg408 O425 2.079 . S
O409 Mg406 2.180 . S
O409 Mg408 2.099 . S
O409 C420 1.279 . S
O410 Mg406 2.117 . S
O410 C420 1.250 . S
O411 Mg408 2.079 . S
O411 C421 1.264 . S
O412 Mg408 2.072 . S
O412 C422 1.260 . S
Mg413 O414 2.180 . S
Mg413 O415 2.030 . S
Mg413 O416 1.990 . S
Mg413 O417 2.117 . S
O414 Mg408 2.099 . S
O414 Mg413 2.180 . S
O414 C423 1.279 . S
O415 Mg413 2.030 . S
O415 C421 1.248 . S
O416 Mg413 1.990 . S
O416 C422 1.253 . S
O417 Mg413 2.117 . S
O417 C423 1.250 . S
C418 O424 1.248 . S
C418 O425 1.264 . S
C419 O405 1.253 . S
C419 O407 1.260 . S
C420 O409 1.279 . S
C420 O410 1.250 . S
C421 O411 1.264 . S
C421 O415 1.248 . S
C422 O412 1.260 . S
C422 O416 1.253 . S
C423 O414 1.279 . S
C423 O417 1.250 . S
O424 Mg406 2.030 . S
O424 C418 1.248 . S
O425 Mg408 2.079 . S
O425 C418 1.264 . S
O426 Mg427 1.990 . S
O426 C440 1.253 . S
Mg427 O426 1.990 . S
Mg427 O430 2.180 . S
Mg427 O431 2.117 . S
Mg427 O445 2.030 . S
O428 Mg429 2.072 . S
O428 C440 1.260 . S
Mg429 O428 2.072 . S
Mg429 O430 2.099 . S
Mg429 O432 2.079 . S
Mg429 O433 2.072 . S
Mg429 O435 2.099 . S
Mg429 O446 2.079 . S
O430 Mg427 2.180 . S
O430 Mg429 2.099 . S
O430 C441 1.279 . S
O431 Mg427 2.117 . S
O431 C441 1.250 . S
O432 Mg429 2.079 . S
O432 C442 1.264 . S
O433 Mg429 2.072 . S
O433 C443 1.260 . S
Mg434 O435 2.180 . S
Mg434 O436 2.030 . S
Mg434 O437 1.990 . S
Mg434 O438 2.117 . S
O435 Mg429 2.099 . S
O435 Mg434 2.180 . S
O435 C444 1.279 . S
O436 Mg434 2.030 . S
O436 C442 1.248 . S
O437 Mg434 1.990 . S
O437 C443 1.253 . S
O438 Mg434 2.117 . S
O438 C444 1.250 . S
C439 O445 1.248 . S
C439 O446 1.264 . S
C440 O426 1.253 . S
C440 O428 1.260 . S
C441 O430 1.279 . S
C441 O431 1.250 . S
C442 O432 1.264 . S
C442 O436 1.248 . S
C443 O433 1.260 . S
C443 O437 1.253 . S
C444 O435 1.279 . S
C444 O438 1.250 . S
O445 Mg427 2.030 . S
O445 C439 1.248 . S
O446 Mg429 2.079 . S
O446 C439 1.264 . S
O447 Mg448 1.990 . S
O447 C461 1.253 . S
Mg448 O447 1.990 . S
Mg448 O451 2.180 . S
Mg448 O452 2.117 . S
Mg448 O466 2.030 . S
O449 Mg450 2.072 . S
O449 C461 1.260 . S
Mg450 O449 2.072 . S
Mg450 O451 2.099 . S
Mg450 O453 2.079 . S
Mg450 O454 2.072 . S
Mg450 O456 2.099 . S
Mg450 O467 2.079 . S
O451 Mg448 2.180 . S
O451 Mg450 2.099 . S
O451 C462 1.279 . S
O452 Mg448 2.117 . S
O452 C462 1.250 . S
O453 Mg450 2.079 . S
O453 C463 1.264 . S
O454 Mg450 2.072 . S
O454 C464 1.260 . S
Mg455 O456 2.180 . S
Mg455 O457 2.030 . S
Mg455 O458 1.990 . S
Mg455 O459 2.117 . S
O456 Mg450 2.099 . S
O456 Mg455 2.180 . S
O456 C465 1.279 . S
O457 Mg455 2.030 . S
O457 C463 1.248 . S
O458 Mg455 1.990 . S
O458 C464 1.253 . S
O459 Mg455 2.117 . S
O459 C465 1.250 . S
C460 O466 1.248 . S
C460 O467 1.264 . S
C461 O447 1.253 . S
C461 O449 1.260 . S
C462 O451 1.279 . S
C462 O452 1.250 . S
C463 O453 1.264 . S
C463 O457 1.248 . S
C464 O454 1.260 . S
C464 O458 1.253 . S
C465 O456 1.279 . S
C465 O459 1.250 . S
O466 Mg448 2.030 . S
O466 C460 1.248 . S
O467 Mg450 2.079 . S
O467 C460 1.264 . S
O468 Mg469 1.990 . S
O468 C482 1.253 . S
Mg469 O468 1.990 . S
Mg469 O472 2.180 . S
Mg469 O473 2.117 . S
Mg469 O487 2.030 . S
O470 Mg471 2.072 . S
O470 C482 1.260 . S
Mg471 O470 2.072 . S
Mg471 O472 2.099 . S
Mg471 O474 2.079 . S
Mg471 O475 2.072 . S
Mg471 O477 2.099 . S
Mg471 O488 2.079 . S
O472 Mg469 2.180 . S
O472 Mg471 2.099 . S
O472 C483 1.279 . S
O473 Mg469 2.117 . S
O473 C483 1.250 . S
O474 Mg471 2.079 . S
O474 C484 1.264 . S
O475 Mg471 2.072 . S
O475 C485 1.260 . S
Mg476 O477 2.180 . S
Mg476 O478 2.030 . S
Mg476 O479 1.990 . S
Mg476 O480 2.117 . S
O477 Mg471 2.099 . S
O477 Mg476 2.180 . S
O477 C486 1.279 . S
O478 Mg476 2.030 . S
O478 C484 1.248 . S
O479 Mg476 1.990 . S
O479 C485 1.253 . S
O480 Mg476 2.117 . S
O480 C486 1.250 . S
C481 O487 1.248 . S
C481 O488 1.264 . S
C482 O468 1.253 . S
C482 O470 1.260 . S
C483 O472 1.279 . S
C483 O473 1.250 . S
C484 O474 1.264 . S
C484 O478 1.248 . S
C485 O475 1.260 . S
C485 O479 1.253 . S
C486 O477 1.279 . S
C486 O480 1.250 . S
O487 Mg469 2.030 . S
O487 C481 1.248 . S
O488 Mg471 2.079 . S
O488 C481 1.264 . S
O489 Mg490 1.990 . S
O489 C503 1.253 . S
Mg490 O489 1.990 . S
Mg490 O493 2.180 . S
Mg490 O494 2.117 . S
Mg490 O508 2.030 . S
O491 Mg492 2.072 . S
O491 C503 1.260 . S
Mg492 O491 2.072 . S
Mg492 O493 2.099 . S
Mg492 O495 2.079 . S
Mg492 O496 2.072 . S
Mg492 O498 2.099 . S
Mg492 O509 2.079 . S
O493 Mg490 2.180 . S
O493 Mg492 2.099 . S
O493 C504 1.279 . S
O494 Mg490 2.117 . S
O494 C504 1.250 . S
O495 Mg492 2.079 . S
O495 C505 1.264 . S
O496 Mg492 2.072 . S
O496 C506 1.260 . S
Mg497 O498 2.180 . S
Mg497 O499 2.030 . S
Mg497 O500 1.990 . S
Mg497 O501 2.117 . S
O498 Mg492 2.099 . S
O498 Mg497 2.180 . S
O498 C507 1.279 . S
O499 Mg497 2.030 . S
O499 C505 1.248 . S
O500 Mg497 1.990 . S
O500 C506 1.253 . S
O501 Mg497 2.117 . S
O501 C507 1.250 . S
C502 O508 1.248 . S
C502 O509 1.264 . S
C503 O489 1.253 . S
C503 O491 1.260 . S
C504 O493 1.279 . S
C504 O494 1.250 . S
C505 O495 1.264 . S
C505 O499 1.248 . S
C506 O496 1.260 . S
C506 O500 1.253 . S
C507 O498 1.279 . S
C507 O501 1.250 . S
O508 Mg490 2.030 . S
O508 C502 1.248 . S
O509 Mg492 2.079 . S
O509 C502 1.264 . S
O510 Mg511 1.990 . S
O510 C524 1.253 . S
Mg511 O510 1.990 . S
Mg511 O514 2.180 . S
Mg511 O515 2.117 . S
Mg511 O529 2.030 . S
O512 Mg513 2.072 . S
O512 C524 1.260 . S
Mg513 O512 2.072 . S
Mg513 O514 2.099 . S
Mg513 O516 2.079 . S
Mg513 O517 2.072 . S
Mg513 O519 2.099 . S
Mg513 O530 2.079 . S
O514 Mg511 2.180 . S
O514 Mg513 2.099 . S
O514 C525 1.279 . S
O515 Mg511 2.117 . S
O515 C525 1.250 . S
O516 Mg513 2.079 . S
O516 C526 1.264 . S
O517 Mg513 2.072 . S
O517 C527 1.260 . S
Mg518 O519 2.180 . S
Mg518 O520 2.030 . S
Mg518 O521 1.990 . S
Mg518 O522 2.117 . S
O519 Mg513 2.099 . S
O519 Mg518 2.180 . S
O519 C528 1.279 . S
O520 Mg518 2.030 . S
O520 C526 1.248 . S
O521 Mg518 1.990 . S
O521 C527 1.253 . S
O522 Mg518 2.117 . S
O522 C528 1.250 . S
C523 O529 1.248 . S
C523 O530 1.264 . S
C524 O510 1.253 . S
C524 O512 1.260 . S
C525 O514 1.279 . S
C525 O515 1.250 . S
C526 O516 1.264 . S
C526 O520 1.248 . S
C527 O517 1.260 . S
C527 O521 1.253 . S
C528 O519 1.279 . S
C528 O522 1.250 . S
O529 Mg511 2.030 . S
O529 C523 1.248 . S
O530 Mg513 2.079 . S
O530 C523 1.264 . S
C531 C532 1.387 1_554 S
C531 H535 0.950 . S
C531 C540 1.390 . S
C532 C531 1.387 1_556 S
C532 C534 1.387 . S
H533 C540 0.950 . S
C534 C532 1.387 . S
C534 C536 1.390 . S
C534 H538 0.950 . S
H535 C531 0.950 . S
C536 C534 1.390 . S
C536 C537 1.387 . S
C536 H539 0.950 . S
C537 C536 1.387 . S
C537 C540 1.387 1_556 S
H538 C534 0.950 . S
H539 C536 0.950 . S
C540 C531 1.390 . S
C540 H533 0.950 . S
C540 C537 1.387 1_554 S
C541 C542 1.387 1_554 S
C541 H545 0.950 . S
C541 C550 1.390 . S
C542 C541 1.387 1_556 S
C542 C544 1.387 . S
H543 C550 0.950 . S
C544 C542 1.387 . S
C544 C546 1.390 . S
C544 H548 0.950 . S
H545 C541 0.950 . S
C546 C544 1.390 . S
C546 C547 1.387 . S
C546 H549 0.950 . S
C547 C546 1.387 . S
C547 C550 1.387 1_556 S
H548 C544 0.950 . S
H549 C546 0.950 . S
C550 C541 1.390 . S
C550 H543 0.950 . S
C550 C547 1.387 1_554 S
C551 C552 1.387 . S
C551 H555 0.950 . S
C551 C560 1.390 . S
C552 C551 1.387 . S
C552 C554 1.387 1_556 S
H553 C560 0.950 . S
C554 C552 1.387 1_554 S
C554 C556 1.390 . S
C554 H558 0.950 . S
H555 C551 0.950 . S
C556 C554 1.390 . S
C556 C557 1.387 1_554 S
C556 H559 0.950 . S
C557 C556 1.387 1_556 S
C557 C560 1.387 . S
H558 C554 0.950 . S
H559 C556 0.950 . S
C560 C551 1.390 . S
C560 H553 0.950 . S
C560 C557 1.387 . S
C561 C562 1.387 1_556 S
C561 H565 0.950 . S
C561 C570 1.390 . S
C562 C561 1.387 1_554 S
C562 C564 1.387 . S
H563 C570 0.950 . S
C564 C562 1.387 . S
C564 C566 1.390 . S
C564 H568 0.950 . S
H565 C561 0.950 . S
C566 C564 1.390 . S
C566 C567 1.387 . S
C566 H569 0.950 . S
C567 C566 1.387 . S
C567 C570 1.387 1_554 S
H568 C564 0.950 . S
H569 C566 0.950 . S
C570 C561 1.390 . S
C570 H563 0.950 . S
C570 C567 1.387 1_556 S
C571 C572 1.387 . S
C571 H575 0.950 . S
C571 C580 1.390 . S
C572 C571 1.387 . S
C572 C574 1.387 1_554 S
H573 C580 0.950 . S
C574 C572 1.387 1_556 S
C574 C576 1.390 . S
C574 H578 0.950 . S
H575 C571 0.950 . S
C576 C574 1.390 . S
C576 C577 1.387 1_556 S
C576 H579 0.950 . S
C577 C576 1.387 1_554 S
C577 C580 1.387 . S
H578 C574 0.950 . S
H579 C576 0.950 . S
C580 C571 1.390 . S
C580 H573 0.950 . S
C580 C577 1.387 . S
C581 C582 1.387 . S
C581 H585 0.950 . S
C581 C590 1.390 . S
C582 C581 1.387 . S
C582 C584 1.387 1_554 S
H583 C590 0.950 . S
C584 C582 1.387 1_556 S
C584 C586 1.390 . S
C584 H588 0.950 . S
H585 C581 0.950 . S
C586 C584 1.390 . S
C586 C587 1.387 1_556 S
C586 H589 0.950 . S
C587 C586 1.387 1_554 S
C587 C590 1.387 . S
H588 C584 0.950 . S
H589 C586 0.950 . S
C590 C581 1.390 . S
C590 H583 0.950 . S
C590 C587 1.387 . S
C591 C592 1.387 1_556 S
C591 H595 0.950 . S
C591 C600 1.390 . S
C592 C591 1.387 1_554 S
C592 C594 1.387 . S
H593 C600 0.950 . S
C594 C592 1.387 . S
C594 C596 1.390 . S
C594 H598 0.950 . S
H595 C591 0.950 . S
C596 C594 1.390 . S
C596 C597 1.387 . S
C596 H599 0.950 . S
C597 C596 1.387 . S
C597 C600 1.387 1_554 S
H598 C594 0.950 . S
H599 C596 0.950 . S
C600 C591 1.390 . S
C600 H593 0.950 . S
C600 C597 1.387 1_556 S
C601 C602 1.387 1_556 S
C601 H605 0.950 . S
C601 C610 1.390 . S
C602 C601 1.387 1_554 S
C602 C604 1.387 . S
H603 C610 0.950 . S
C604 C602 1.387 . S
C604 C606 1.390 . S
C604 H608 0.950 . S
H605 C601 0.950 . S
C606 C604 1.390 . S
C606 C607 1.387 . S
C606 H609 0.950 . S
C607 C606 1.387 . S
C607 C610 1.387 1_554 S
H608 C604 0.950 . S
H609 C606 0.950 . S
C610 C601 1.390 . S
C610 H603 0.950 . S
C610 C607 1.387 1_556 S
C611 C612 1.387 1_556 S
C611 H615 0.950 . S
C611 C620 1.390 . S
C612 C611 1.387 1_554 S
C612 C614 1.387 . S
H613 C620 0.950 . S
C614 C612 1.387 . S
C614 C616 1.390 . S
C614 H618 0.950 . S
H615 C611 0.950 . S
C616 C614 1.390 . S
C616 C617 1.387 . S
C616 H619 0.950 . S
C617 C616 1.387 . S
C617 C620 1.387 1_554 S
H618 C614 0.950 . S
H619 C616 0.950 . S
C620 C611 1.390 . S
C620 H613 0.950 . S
C620 C617 1.387 1_556 S
C621 C622 1.387 . S
C621 H625 0.950 . S
C621 C630 1.390 . S
C622 C621 1.387 . S
C622 C624 1.387 . S
H623 C630 0.950 . S
C624 C622 1.387 . S
C624 C626 1.390 . S
C624 H628 0.950 . S
H625 C621 0.950 . S
C626 C624 1.390 . S
C626 C627 1.387 . S
C626 H629 0.950 1_556 S
C627 C626 1.387 . S
C627 C630 1.387 . S
H628 C624 0.950 . S
H629 C626 0.950 1_554 S
C630 C621 1.390 . S
C630 H623 0.950 . S
C630 C627 1.387 . S
C631 C632 1.387 1_554 S
C631 H635 0.950 . S
C631 C640 1.390 . S
C632 C631 1.387 1_556 S
C632 C634 1.387 . S
H633 C640 0.950 . S
C634 C632 1.387 . S
C634 C636 1.390 . S
C634 H638 0.950 . S
H635 C631 0.950 . S
C636 C634 1.390 . S
C636 C637 1.387 . S
C636 H639 0.950 . S
C637 C636 1.387 . S
C637 C640 1.387 1_556 S
H638 C634 0.950 . S
H639 C636 0.950 . S
C640 C631 1.390 . S
C640 H633 0.950 . S
C640 C637 1.387 1_554 S
C641 C642 1.387 . S
C641 H645 0.950 . S
C641 C650 1.390 . S
C642 C641 1.387 . S
C642 C644 1.387 1_556 S
H643 C650 0.950 . S
C644 C642 1.387 1_554 S
C644 C646 1.390 . S
C644 H648 0.950 . S
H645 C641 0.950 . S
C646 C644 1.390 . S
C646 C647 1.387 1_554 S
C646 H649 0.950 . S
C647 C646 1.387 1_556 S
C647 C650 1.387 . S
H648 C644 0.950 . S
H649 C646 0.950 . S
C650 C641 1.390 . S
C650 H643 0.950 . S
C650 C647 1.387 . S
C651 C652 1.387 . S
C651 H655 0.950 . S
C651 C660 1.390 1_655 S
C652 C651 1.387 . S
C652 C654 1.387 . S
H653 C660 0.950 . S
C654 C652 1.387 . S
C654 C656 1.390 1_655 S
C654 H658 0.950 . S
H655 C651 0.950 . S
C656 C654 1.390 1_455 S
C656 C657 1.387 . S
C656 H659 0.950 . S
C657 C656 1.387 . S
C657 C660 1.387 . S
H658 C654 0.950 . S
H659 C656 0.950 . S
C660 C651 1.390 1_455 S
C660 H653 0.950 . S
C660 C657 1.387 . S
C661 C662 1.387 . S
C661 H665 0.950 . S
C661 C670 1.390 . S
C662 C661 1.387 . S
C662 C664 1.387 . S
H663 C670 0.950 . S
C664 C662 1.387 . S
C664 C666 1.390 . S
C664 H668 0.950 . S
H665 C661 0.950 . S
C666 C664 1.390 . S
C666 C667 1.387 . S
C666 H669 0.950 . S
C667 C666 1.387 . S
C667 C670 1.387 . S
H668 C664 0.950 . S
H669 C666 0.950 . S
C670 C661 1.390 . S
C670 H663 0.950 . S
C670 C667 1.387 . S
C671 C672 1.387 . S
C671 H675 0.950 . S
C671 C680 1.390 1_545 S
C672 C671 1.387 . S
C672 C674 1.387 . S
H673 C680 0.950 . S
C674 C672 1.387 . S
C674 C676 1.390 1_545 S
C674 H678 0.950 . S
H675 C671 0.950 . S
C676 C674 1.390 1_565 S
C676 C677 1.387 . S
C676 H679 0.950 . S
C677 C676 1.387 . S
C677 C680 1.387 . S
H678 C674 0.950 . S
H679 C676 0.950 . S
C680 C671 1.390 1_565 S
C680 H673 0.950 . S
C680 C677 1.387 . S
C681 C682 1.387 . S
C681 H685 0.950 . S
C681 C690 1.390 . S
C682 C681 1.387 . S
C682 C684 1.387 . S
H683 C690 0.950 . S
C684 C682 1.387 . S
C684 C686 1.390 . S
C684 H688 0.950 . S
H685 C681 0.950 . S
C686 C684 1.390 . S
C686 C687 1.387 . S
C686 H689 0.950 . S
C687 C686 1.387 . S
C687 C690 1.387 . S
H688 C684 0.950 . S
H689 C686 0.950 . S
C690 C681 1.390 . S
C690 H683 0.950 . S
C690 C687 1.387 . S
C691 C692 1.387 . S
C691 H695 0.950 . S
C691 C700 1.390 . S
C692 C691 1.387 . S
C692 C694 1.387 . S
H693 C700 0.950 . S
C694 C692 1.387 . S
C694 C696 1.390 . S
C694 H698 0.950 . S
H695 C691 0.950 . S
C696 C694 1.390 . S
C696 C697 1.387 . S
C696 H699 0.950 . S
C697 C696 1.387 . S
C697 C700 1.387 . S
H698 C694 0.950 . S
H699 C696 0.950 . S
C700 C691 1.390 . S
C700 H693 0.950 . S
C700 C697 1.387 . S
C701 C702 1.387 . S
C701 H705 0.950 . S
C701 C710 1.390 . S
C702 C701 1.387 . S
C702 C704 1.387 . S
H703 C710 0.950 . S
C704 C702 1.387 . S
C704 C706 1.390 . S
C704 H708 0.950 . S
H705 C701 0.950 . S
C706 C704 1.390 . S
C706 C707 1.387 . S
C706 H709 0.950 . S
C707 C706 1.387 . S
C707 C710 1.387 . S
H708 C704 0.950 . S
H709 C706 0.950 . S
C710 C701 1.390 . S
C710 H703 0.950 . S
C710 C707 1.387 . S
C711 C712 1.387 . S
C711 H715 0.950 . S
C711 C720 1.390 . S
C712 C711 1.387 . S
C712 C714 1.387 . S
H713 C720 0.950 . S
C714 C712 1.387 . S
C714 C716 1.390 . S
C714 H718 0.950 . S
H715 C711 0.950 . S
C716 C714 1.390 . S
C716 C717 1.387 . S
C716 H719 0.950 . S
C717 C716 1.387 . S
C717 C720 1.387 . S
H718 C714 0.950 . S
H719 C716 0.950 . S
C720 C711 1.390 . S
C720 H713 0.950 . S
C720 C717 1.387 . S
C721 C722 1.387 . S
C721 H725 0.950 . S
C721 C730 1.390 . S
C722 C721 1.387 . S
C722 C724 1.387 . S
H723 C730 0.950 . S
C724 C722 1.387 . S
C724 C726 1.390 . S
C724 H728 0.950 . S
H725 C721 0.950 . S
C726 C724 1.390 . S
C726 C727 1.387 . S
C726 H729 0.950 . S
C727 C726 1.387 . S
C727 C730 1.387 . S
H728 C724 0.950 . S
H729 C726 0.950 . S
C730 C721 1.390 . S
C730 H723 0.950 . S
C730 C727 1.387 . S
C731 C732 1.387 . S
C731 H735 0.950 . S
C731 C740 1.390 . S
C732 C731 1.387 . S
C732 C734 1.387 . S
H733 C740 0.950 . S
C734 C732 1.387 . S
C734 C736 1.390 . S
C734 H738 0.950 . S
H735 C731 0.950 . S
C736 C734 1.390 . S
C736 C737 1.387 . S
C736 H739 0.950 . S
C737 C736 1.387 . S
C737 C740 1.387 . S
H738 C734 0.950 . S
H739 C736 0.950 . S
C740 C731 1.390 . S
C740 H733 0.950 . S
C740 C737 1.387 . S
C741 C742 1.387 . S
C741 H745 0.950 . S
C741 C750 1.390 . S
C742 C741 1.387 . S
C742 C744 1.387 . S
H743 C750 0.950 . S
C744 C742 1.387 . S
C744 C746 1.390 . S
C744 H748 0.950 . S
H745 C741 0.950 . S
C746 C744 1.390 . S
C746 C747 1.387 . S
C746 H749 0.950 . S
C747 C746 1.387 . S
C747 C750 1.387 . S
H748 C744 0.950 . S
H749 C746 0.950 . S
C750 C741 1.390 . S
C750 H743 0.950 . S
C750 C747 1.387 . S
C751 C752 1.387 . S
C751 H755 0.950 . S
C751 C760 1.390 . S
C752 C751 1.387 . S
C752 C754 1.387 . S
H753 C760 0.950 . S
C754 C752 1.387 . S
C754 C756 1.390 . S
C754 H758 0.950 . S
H755 C751 0.950 . S
C756 C754 1.390 . S
C756 C757 1.387 . S
C756 H759 0.950 . S
C757 C756 1.387 . S
C757 C760 1.387 . S
H758 C754 0.950 . S
H759 C756 0.950 . S
C760 C751 1.390 . S
C760 H753 0.950 . S
C760 C757 1.387 . S
C761 C762 1.387 . S
C761 H765 0.950 . S
C761 C770 1.390 . S
C762 C761 1.387 . S
C762 C764 1.387 . S
H763 C770 0.950 . S
C764 C762 1.387 . S
C764 C766 1.390 . S
C764 H768 0.950 . S
H765 C761 0.950 . S
C766 C764 1.390 . S
C766 C767 1.387 . S
C766 H769 0.950 . S
C767 C766 1.387 . S
C767 C770 1.387 . S
H768 C764 0.950 . S
H769 C766 0.950 . S
C770 C761 1.390 . S
C770 H763 0.950 . S
C770 C767 1.387 . S
C771 C772 1.387 . S
C771 H775 0.950 . S
C771 C780 1.390 . S
C772 C771 1.387 . S
C772 C774 1.387 . S
H773 C780 0.950 . S
C774 C772 1.387 . S
C774 C776 1.390 . S
C774 H778 0.950 . S
H775 C771 0.950 . S
C776 C774 1.390 . S
C776 C777 1.387 . S
C776 H779 0.950 . S
C777 C776 1.387 . S
C777 C780 1.387 . S
H778 C774 0.950 . S
H779 C776 0.950 . S
C780 C771 1.390 . S
C780 H773 0.950 . S
C780 C777 1.387 . S
C781 C782 1.387 . S
C781 H785 0.950 . S
C781 C790 1.390 . S
C782 C781 1.387 . S
C782 C784 1.387 . S
H783 C790 0.950 . S
C784 C782 1.387 . S
C784 C786 1.390 . S
C784 H788 0.950 . S
H785 C781 0.950 . S
C786 C784 1.390 . S
C786 C787 1.387 . S
C786 H789 0.950 . S
C787 C786 1.387 . S
C787 C790 1.387 . S
H788 C784 0.950 . S
H789 C786 0.950 . S
C790 C781 1.390 . S
C790 H783 0.950 . S
C790 C787 1.387 . S
C791 C792 1.387 . S
C791 H795 0.950 . S
C791 C800 1.390 . S
C792 C791 1.387 . S
C792 C794 1.387 . S
H793 C800 0.950 . S
C794 C792 1.387 . S
C794 C796 1.390 . S
C794 H798 0.950 . S
H795 C791 0.950 . S
C796 C794 1.390 . S
C796 C797 1.387 . S
C796 H799 0.950 . S
C797 C796 1.387 . S
C797 C800 1.387 . S
H798 C794 0.950 . S
H799 C796 0.950 . S
C800 C791 1.390 . S
C800 H793 0.950 . S
C800 C797 1.387 . S
C801 C802 1.387 . S
C801 H805 0.950 . S
C801 C810 1.390 1_565 S
C802 C801 1.387 . S
C802 C804 1.387 . S
H803 C810 0.950 . S
C804 C802 1.387 . S
C804 C806 1.390 1_565 S
C804 H808 0.950 . S
H805 C801 0.950 . S
C806 C804 1.390 1_545 S
C806 C807 1.387 . S
C806 H809 0.950 . S
C807 C806 1.387 . S
C807 C810 1.387 . S
H808 C804 0.950 . S
H809 C806 0.950 . S
C810 C801 1.390 1_545 S
C810 H803 0.950 . S
C810 C807 1.387 . S
C811 C812 1.387 . S
C811 H815 0.950 . S
C811 C820 1.390 1_455 S
C812 C811 1.387 . S
C812 C814 1.387 . S
H813 C820 0.950 . S
C814 C812 1.387 . S
C814 C816 1.390 . S
C814 H818 0.950 . S
H815 C811 0.950 . S
C816 C814 1.390 . S
C816 C817 1.387 1_455 S
C816 H819 0.950 1_455 S
C817 C816 1.387 1_655 S
C817 C820 1.387 . S
H818 C814 0.950 . S
H819 C816 0.950 1_655 S
C820 C811 1.390 1_655 S
C820 H813 0.950 . S
C820 C817 1.387 . S
C821 C822 1.387 . S
C821 H825 0.950 . S
C821 C830 1.390 . S
C822 C821 1.387 . S
C822 C824 1.387 . S
H823 C830 0.950 . S
C824 C822 1.387 . S
C824 C826 1.390 . S
C824 H828 0.950 . S
H825 C821 0.950 . S
C826 C824 1.390 . S
C826 C827 1.387 . S
C826 H829 0.950 . S
C827 C826 1.387 . S
C827 C830 1.387 . S
H828 C824 0.950 . S
H829 C826 0.950 . S
C830 C821 1.390 . S
C830 H823 0.950 . S
C830 C827 1.387 . S
C831 C832 1.387 . S
C831 H835 0.950 . S
C831 C840 1.390 . S
C832 C831 1.387 . S
C832 C834 1.387 . S
H833 C840 0.950 . S
C834 C832 1.387 . S
C834 C836 1.390 . S
C834 H838 0.950 . S
H835 C831 0.950 . S
C836 C834 1.390 . S
C836 C837 1.387 . S
C836 H839 0.950 . S
C837 C836 1.387 . S
C837 C840 1.387 . S
H838 C834 0.950 . S
H839 C836 0.950 . S
C840 C831 1.390 . S
C840 H833 0.950 . S
C840 C837 1.387 . S
C841 C842 1.387 . S
C841 H845 0.950 . S
C841 C850 1.390 . S
C842 C841 1.387 . S
C842 C844 1.387 . S
H843 C850 0.950 . S
C844 C842 1.387 . S
C844 C846 1.390 . S
C844 H848 0.950 . S
H845 C841 0.950 . S
C846 C844 1.390 . S
C846 C847 1.387 . S
C846 H849 0.950 . S
C847 C846 1.387 . S
C847 C850 1.387 . S
H848 C844 0.950 . S
H849 C846 0.950 . S
C850 C841 1.390 . S
C850 H843 0.950 . S
C850 C847 1.387 . S
C851 C852 1.387 . S
C851 H855 0.950 . S
C851 C860 1.390 . S
C852 C851 1.387 . S
C852 C854 1.387 . S
H853 C860 0.950 . S
C854 C852 1.387 . S
C854 C856 1.390 . S
C854 H858 0.950 . S
H855 C851 0.950 . S
C856 C854 1.390 . S
C856 C857 1.387 . S
C856 H859 0.950 . S
C857 C856 1.387 . S
C857 C860 1.387 . S
H858 C854 0.950 . S
H859 C856 0.950 . S
C860 C851 1.390 . S
C860 H853 0.950 . S
C860 C857 1.387 . S
C861 C862 1.387 . S
C861 H865 0.950 . S
C861 C870 1.390 . S
C862 C861 1.387 . S
C862 C864 1.387 . S
H863 C870 0.950 . S
C864 C862 1.387 . S
C864 C866 1.390 . S
C864 H868 0.950 . S
H865 C861 0.950 . S
C866 C864 1.390 . S
C866 C867 1.387 . S
C866 H869 0.950 . S
C867 C866 1.387 . S
C867 C870 1.387 . S
H868 C864 0.950 . S
H869 C866 0.950 . S
C870 C861 1.390 . S
C870 H863 0.950 . S
C870 C867 1.387 . S
C871 C872 1.387 . S
C871 H875 0.950 . S
C871 C880 1.390 . S
C872 C871 1.387 . S
C872 C874 1.387 . S
H873 C880 0.950 . S
C874 C872 1.387 . S
C874 C876 1.390 . S
C874 H878 0.950 . S
H875 C871 0.950 . S
C876 C874 1.390 . S
C876 C877 1.387 . S
C876 H879 0.950 . S
C877 C876 1.387 . S
C877 C880 1.387 . S
H878 C874 0.950 . S
H879 C876 0.950 . S
C880 C871 1.390 . S
C880 H873 0.950 . S
C880 C877 1.387 . S
C881 C882 1.387 . S
C881 H885 0.950 . S
C881 C890 1.390 . S
C882 C881 1.387 . S
C882 C884 1.387 . S
H883 C890 0.950 . S
C884 C882 1.387 . S
C884 C886 1.390 . S
C884 H888 0.950 . S
H885 C881 0.950 . S
C886 C884 1.390 . S
C886 C887 1.387 . S
C886 H889 0.950 . S
C887 C886 1.387 . S
C887 C890 1.387 . S
H888 C884 0.950 . S
H889 C886 0.950 . S
C890 C881 1.390 . S
C890 H883 0.950 . S
C890 C887 1.387 . S
C891 C892 1.387 . S
C891 H895 0.950 . S
C891 C900 1.390 . S
C892 C891 1.387 . S
C892 C894 1.387 . S
H893 C900 0.950 . S
C894 C892 1.387 . S
C894 C896 1.390 . S
C894 H898 0.950 . S
H895 C891 0.950 . S
C896 C894 1.390 . S
C896 C897 1.387 . S
C896 H899 0.950 1_565 S
C897 C896 1.387 . S
C897 C900 1.387 . S
H898 C894 0.950 . S
H899 C896 0.950 1_545 S
C900 C891 1.390 . S
C900 H893 0.950 . S
C900 C897 1.387 . S
C901 C902 1.387 . S
C901 H905 0.950 . S
C901 C910 1.390 . S
C902 C901 1.387 . S
C902 C904 1.387 . S
H903 C910 0.950 1_655 S
C904 C902 1.387 . S
C904 C906 1.390 . S
C904 H908 0.950 . S
H905 C901 0.950 . S
C906 C904 1.390 . S
C906 C907 1.387 . S
C906 H909 0.950 . S
C907 C906 1.387 . S
C907 C910 1.387 . S
H908 C904 0.950 . S
H909 C906 0.950 . S
C910 C901 1.390 . S
C910 H903 0.950 1_455 S
C910 C907 1.387 . S
C911 C912 1.387 . S
C911 H915 0.950 . S
C911 C920 1.390 . S
C912 C911 1.387 . S
C912 C914 1.387 . S
H913 C920 0.950 . S
C914 C912 1.387 . S
C914 C916 1.390 . S
C914 H918 0.950 . S
H915 C911 0.950 . S
C916 C914 1.390 . S
C916 C917 1.387 . S
C916 H919 0.950 . S
C917 C916 1.387 . S
C917 C920 1.387 . S
H918 C914 0.950 . S
H919 C916 0.950 . S
C920 C911 1.390 . S
C920 H913 0.950 . S
C920 C917 1.387 . S
C921 C922 1.387 . S
C921 H925 0.950 . S
C921 C930 1.390 . S
C922 C921 1.387 . S
C922 C924 1.387 . S
H923 C930 0.950 . S
C924 C922 1.387 . S
C924 C926 1.390 . S
C924 H928 0.950 . S
H925 C921 0.950 . S
C926 C924 1.390 . S
C926 C927 1.387 . S
C926 H929 0.950 . S
C927 C926 1.387 . S
C927 C930 1.387 . S
H928 C924 0.950 . S
H929 C926 0.950 . S
C930 C921 1.390 . S
C930 H923 0.950 . S
C930 C927 1.387 . S
C931 C932 1.387 . S
C931 H935 0.950 . S
C931 C940 1.390 . S
C932 C931 1.387 . S
C932 C934 1.387 . S
H933 C940 0.950 . S
C934 C932 1.387 . S
C934 C936 1.390 . S
C934 H938 0.950 . S
H935 C931 0.950 . S
C936 C934 1.390 . S
C936 C937 1.387 . S
C936 H939 0.950 . S
C937 C936 1.387 . S
C937 C940 1.387 . S
H938 C934 0.950 . S
H939 C936 0.950 . S
C940 C931 1.390 . S
C940 H933 0.950 . S
C940 C937 1.387 . S
C941 C942 1.387 . S
C941 H945 0.950 . S
C941 C950 1.390 . S
C942 C941 1.387 . S
C942 C944 1.387 . S
H943 C950 0.950 1_565 S
C944 C942 1.387 . S
C944 C946 1.390 . S
C944 H948 0.950 . S
H945 C941 0.950 . S
C946 C944 1.390 . S
C946 C947 1.387 . S
C946 H949 0.950 . S
C947 C946 1.387 . S
C947 C950 1.387 . S
H948 C944 0.950 . S
H949 C946 0.950 . S
C950 C941 1.390 . S
C950 H943 0.950 1_545 S
C950 C947 1.387 . S
C951 C952 1.387 . S
C951 H955 0.950 . S
C951 C960 1.390 . S
C952 C951 1.387 . S
C952 C954 1.387 . S
H953 C960 0.950 . S
C954 C952 1.387 . S
C954 C956 1.390 . S
C954 H958 0.950 . S
H955 C951 0.950 . S
C956 C954 1.390 . S
C956 C957 1.387 . S
C956 H959 0.950 . S
C957 C956 1.387 . S
C957 C960 1.387 . S
H958 C954 0.950 . S
H959 C956 0.950 . S
C960 C951 1.390 . S
C960 H953 0.950 . S
C960 C957 1.387 . S
C961 C962 1.387 . S
C961 H965 0.950 . S
C961 C970 1.390 . S
C962 C961 1.387 . S
C962 C964 1.387 . S
H963 C970 0.950 . S
C964 C962 1.387 . S
C964 C966 1.390 . S
C964 H968 0.950 . S
H965 C961 0.950 . S
C966 C964 1.390 . S
C966 C967 1.387 . S
C966 H969 0.950 . S
C967 C966 1.387 . S
C967 C970 1.387 . S
H968 C964 0.950 . S
H969 C966 0.950 . S
C970 C961 1.390 . S
C970 H963 0.950 . S
C970 C967 1.387 . S
C971 C972 1.387 . S
C971 H975 0.950 . S
C971 C980 1.390 . S
C972 C971 1.387 . S
C972 C974 1.387 . S
H973 C980 0.950 . S
C974 C972 1.387 . S
C974 C976 1.390 . S
C974 H978 0.950 . S
H975 C971 0.950 . S
C976 C974 1.390 . S
C976 C977 1.387 . S
C976 H979 0.950 . S
C977 C976 1.387 . S
C977 C980 1.387 . S
H978 C974 0.950 . S
H979 C976 0.950 . S
C980 C971 1.390 . S
C980 H973 0.950 . S
C980 C977 1.387 . S
C981 C982 1.387 . S
C981 H985 0.950 . S
C981 C990 1.390 . S
C982 C981 1.387 . S
C982 C984 1.387 . S
H983 C990 0.950 . S
C984 C982 1.387 . S
C984 C986 1.390 . S
C984 H988 0.950 . S
H985 C981 0.950 . S
C986 C984 1.390 . S
C986 C987 1.387 . S
C986 H989 0.950 . S
C987 C986 1.387 . S
C987 C990 1.387 . S
H988 C984 0.950 . S
H989 C986 0.950 . S
C990 C981 1.390 . S
C990 H983 0.950 . S
C990 C987 1.387 . S
C991 C992 1.387 . S
C991 H995 0.950 . S
C991 C1000 1.390 . S
C992 C991 1.387 . S
C992 C994 1.387 . S
H993 C1000 0.950 . S
C994 C992 1.387 . S
C994 C996 1.390 . S
C994 H998 0.950 . S
H995 C991 0.950 . S
C996 C994 1.390 . S
C996 C997 1.387 . S
C996 H999 0.950 . S
C997 C996 1.387 . S
C997 C1000 1.387 . S
H998 C994 0.950 . S
H999 C996 0.950 . S
C1000 C991 1.390 . S
C1000 H993 0.950 . S
C1000 C997 1.387 . S
C1001 C1002 1.387 . S
C1001 H1005 0.950 . S
C1001 C1010 1.390 . S
C1002 C1001 1.387 . S
C1002 C1004 1.387 . S
H1003 C1010 0.950 . S
C1004 C1002 1.387 . S
C1004 C1006 1.390 . S
C1004 H1008 0.950 . S
H1005 C1001 0.950 . S
C1006 C1004 1.390 . S
C1006 C1007 1.387 . S
C1006 H1009 0.950 . S
C1007 C1006 1.387 . S
C1007 C1010 1.387 . S
H1008 C1004 0.950 . S
H1009 C1006 0.950 . S
C1010 C1001 1.390 . S
C1010 H1003 0.950 . S
C1010 C1007 1.387 . S
C1011 C1012 1.387 . S
C1011 H1015 0.950 . S
C1011 C1020 1.390 . S
C1012 C1011 1.387 . S
C1012 C1014 1.387 . S
H1013 C1020 0.950 . S
C1014 C1012 1.387 . S
C1014 C1016 1.390 . S
C1014 H1018 0.950 . S
H1015 C1011 0.950 . S
C1016 C1014 1.390 . S
C1016 C1017 1.387 . S
C1016 H1019 0.950 . S
C1017 C1016 1.387 . S
C1017 C1020 1.387 . S
H1018 C1014 0.950 . S
H1019 C1016 0.950 . S
C1020 C1011 1.390 . S
C1020 H1013 0.950 . S
C1020 C1017 1.387 . S
C1021 C1022 1.387 . S
C1021 H1025 0.950 . S
C1021 C1030 1.390 . S
C1022 C1021 1.387 . S
C1022 C1024 1.387 . S
H1023 C1030 0.950 . S
C1024 C1022 1.387 . S
C1024 C1026 1.390 . S
C1024 H1028 0.950 . S
H1025 C1021 0.950 . S
C1026 C1024 1.390 . S
C1026 C1027 1.387 . S
C1026 H1029 0.950 . S
C1027 C1026 1.387 . S
C1027 C1030 1.387 . S
H1028 C1024 0.950 . S
H1029 C1026 0.950 . S
C1030 C1021 1.390 . S
C1030 H1023 0.950 . S
C1030 C1027 1.387 . S
C1031 C1032 1.387 . S
C1031 H1035 0.950 . S
C1031 C1040 1.390 . S
C1032 C1031 1.387 . S
C1032 C1034 1.387 . S
H1033 C1040 0.950 . S
C1034 C1032 1.387 . S
C1034 C1036 1.390 . S
C1034 H1038 0.950 . S
H1035 C1031 0.950 . S
C1036 C1034 1.390 . S
C1036 C1037 1.387 . S
C1036 H1039 0.950 . S
C1037 C1036 1.387 . S
C1037 C1040 1.387 . S
H1038 C1034 0.950 . S
H1039 C1036 0.950 . S
C1040 C1031 1.390 . S
C1040 H1033 0.950 . S
C1040 C1037 1.387 . S
C1041 C1042 1.387 . S
C1041 H1045 0.950 . S
C1041 C1050 1.390 . S
C1042 C1041 1.387 . S
C1042 C1044 1.387 . S
H1043 C1050 0.950 . S
C1044 C1042 1.387 . S
C1044 C1046 1.390 . S
C1044 H1048 0.950 . S
H1045 C1041 0.950 . S
C1046 C1044 1.390 . S
C1046 C1047 1.387 . S
C1046 H1049 0.950 . S
C1047 C1046 1.387 . S
C1047 C1050 1.387 . S
H1048 C1044 0.950 . S
H1049 C1046 0.950 . S
C1050 C1041 1.390 . S
C1050 H1043 0.950 . S
C1050 C1047 1.387 . S
C1051 C1052 1.387 . S
C1051 H1055 0.950 . S
C1051 C1060 1.390 . S
C1052 C1051 1.387 . S
C1052 C1054 1.387 . S
H1053 C1060 0.950 . S
C1054 C1052 1.387 . S
C1054 C1056 1.390 . S
C1054 H1058 0.950 . S
H1055 C1051 0.950 . S
C1056 C1054 1.390 . S
C1056 C1057 1.387 . S
C1056 H1059 0.950 . S
C1057 C1056 1.387 . S
C1057 C1060 1.387 . S
H1058 C1054 0.950 . S
H1059 C1056 0.950 . S
C1060 C1051 1.390 . S
C1060 H1053 0.950 . S
C1060 C1057 1.387 . S
C1061 C1062 1.387 . S
C1061 H1065 0.950 . S
C1061 C1070 1.390 . S
C1062 C1061 1.387 . S
C1062 C1064 1.387 . S
H1063 C1070 0.950 . S
C1064 C1062 1.387 . S
C1064 C1066 1.390 . S
C1064 H1068 0.950 . S
H1065 C1061 0.950 . S
C1066 C1064 1.390 . S
C1066 C1067 1.387 . S
C1066 H1069 0.950 . S
C1067 C1066 1.387 . S
C1067 C1070 1.387 . S
H1068 C1064 0.950 . S
H1069 C1066 0.950 . S
C1070 C1061 1.390 . S
C1070 H1063 0.950 . S
C1070 C1067 1.387 . S
C532 C253 1.478 . S
C537 C359 1.494 1_556 S
C542 C272 1.451 . S
C547 C380 1.455 1_556 S
C552 C234 1.437 . S
C557 C402 1.312 . S
C562 C215 1.416 . S
C567 C381 1.288 . S
C577 C401 1.466 1_554 S
C572 C177 1.461 . S
C582 C196 1.444 . S
C587 C360 1.314 . S
C597 C355 1.524 1_554 S
C592 C220 1.449 . S
C607 C376 1.541 1_554 S
C602 C182 1.460 . S
C612 C201 1.510 . S
C617 C399 1.322 . S
C622 C258 1.511 . S
C627 C378 1.328 . S
C632 C277 1.443 . S
C637 C397 1.518 1_556 S
C647 C357 1.328 . S
C642 C239 1.508 . S
C657 C422 1.495 . S
C652 C25 1.479 . S
C662 C44 1.452 . S
C667 C443 1.453 . S
C672 C6 1.434 . S
C677 C465 1.316 . S
C682 C329 1.419 . S
C687 C444 1.285 . S
C692 C291 1.463 . S
C697 C464 1.468 . S
C702 C310 1.447 . S
C707 C423 1.314 . S
C712 C334 1.450 . S
C717 C418 1.525 . S
C722 C296 1.464 . S
C727 C439 1.550 . S
C737 C462 1.330 . S
C732 C315 1.524 . S
C742 C30 1.513 1_565 S
C747 C441 1.326 . S
C757 C460 1.518 . S
C752 C49 1.442 1_455 S
C762 C11 1.504 . S
C767 C420 1.325 . S
C777 C485 1.494 . S
C772 C139 1.479 . S
C782 C158 1.452 . S
C787 C506 1.453 . S
C797 C528 1.318 . S
C792 C120 1.437 . S
C807 C507 1.287 . S
C802 C101 1.415 . S
C817 C527 1.469 . S
C812 C63 1.460 . S
C822 C82 1.446 . S
C827 C486 1.318 . S
C832 C106 1.454 1_655 S
C837 C481 1.528 . S
C842 C68 1.467 . S
C847 C502 1.552 . S
C857 C525 1.326 . S
C852 C87 1.520 1_545 S
C862 C144 1.515 . S
C867 C504 1.330 . S
C872 C163 1.447 . S
C877 C523 1.519 . S
C882 C125 1.509 . S
C887 C483 1.330 . S
C892 C287 1.542 . S
C897 C358 1.549 . S
C907 C379 1.590 . S
C902 C306 1.576 . S
C912 C325 1.587 . S
C917 C398 1.519 . S
C922 C116 1.653 . S
C927 C377 1.584 . S
C932 C135 1.608 . S
C937 C400 1.617 . S
C947 C356 1.548 . S
C942 C154 1.612 . S
C952 C59 1.537 . S
C957 C421 1.544 . S
C962 C78 1.576 . S
C967 C442 1.589 . S
C972 C97 1.584 . S
C977 C461 1.518 . S
C982 C230 1.651 . S
C987 C440 1.582 . S
C997 C463 1.594 . S
C992 C249 1.586 . S
C1002 C268 1.608 . S
C1007 C419 1.545 . S
C1012 C173 1.537 . S
C1017 C484 1.544 . S
C1022 C192 1.552 . S
C1027 C505 1.560 . S
C1037 C524 1.522 . S
C1032 C211 1.589 . S
C1042 C2 1.646 . S
C1047 C503 1.577 . S
C1052 C21 1.601 . S
C1057 C526 1.607 . S
C1062 C40 1.609 . S
C1067 C482 1.544 . S
