# Generated by pormake.
# Topology hwx, (6,3)-cn, num edge types: 1
# Building blocks:
#     Node 0, Type 0, BuildingBlock: IZENUY_clean_sbu_0, # of connection points: 6
#     Node 1, Type 0, BuildingBlock: IZENUY_clean_sbu_0, # of connection points: 6
#     Node 2, Type 0, BuildingBlock: IZENUY_clean_sbu_0, # of connection points: 6
#     Node 3, Type 0, BuildingBlock: IZENUY_clean_sbu_0, # of connection points: 6
#     Node 4, Type 1, BuildingBlock: QEWDON_clean_linker_0, # of connection points: 3
#     Node 5, Type 1, BuildingBlock: QEWDON_clean_linker_0, # of connection points: 3
#     Node 6, Type 1, BuildingBlock: QEWDON_clean_linker_0, # of connection points: 3
#     Node 7, Type 1, BuildingBlock: QEWDON_clean_linker_0, # of connection points: 3
#     Node 8, Type 1, BuildingBlock: QEWDON_clean_linker_0, # of connection points: 3
#     Node 9, Type 1, BuildingBlock: QEWDON_clean_linker_0, # of connection points: 3
#     Node 10, Type 1, BuildingBlock: QEWDON_clean_linker_0, # of connection points: 3
#     Node 11, Type 1, BuildingBlock: QEWDON_clean_linker_0, # of connection points: 3
#     Edge 12, Type (0, 1), BuildingBlock: TEMPAE_clean_linker_10, # of connection points: 2
#     Edge 13, Type (0, 1), BuildingBlock: TEMPAE_clean_linker_10, # of connection points: 2
#     Edge 14, Type (0, 1), BuildingBlock: TEMPAE_clean_linker_10, # of connection points: 2
#     Edge 15, Type (0, 1), BuildingBlock: TEMPAE_clean_linker_10, # of connection points: 2
#     Edge 16, Type (0, 1), BuildingBlock: TEMPAE_clean_linker_10, # of connection points: 2
#     Edge 17, Type (0, 1), BuildingBlock: TEMPAE_clean_linker_10, # of connection points: 2
#     Edge 18, Type (0, 1), BuildingBlock: TEMPAE_clean_linker_10, # of connection points: 2
#     Edge 19, Type (0, 1), BuildingBlock: TEMPAE_clean_linker_10, # of connection points: 2
#     Edge 20, Type (0, 1), BuildingBlock: TEMPAE_clean_linker_10, # of connection points: 2
#     Edge 21, Type (0, 1), BuildingBlock: TEMPAE_clean_linker_10, # of connection points: 2
#     Edge 22, Type (0, 1), BuildingBlock: TEMPAE_clean_linker_10, # of connection points: 2
#     Edge 23, Type (0, 1), BuildingBlock: TEMPAE_clean_linker_10, # of connection points: 2
#     Edge 24, Type (0, 1), BuildingBlock: TEMPAE_clean_linker_10, # of connection points: 2
#     Edge 25, Type (0, 1), BuildingBlock: TEMPAE_clean_linker_10, # of connection points: 2
#     Edge 26, Type (0, 1), BuildingBlock: TEMPAE_clean_linker_10, # of connection points: 2
#     Edge 27, Type (0, 1), BuildingBlock: TEMPAE_clean_linker_10, # of connection points: 2
#     Edge 28, Type (0, 1), BuildingBlock: TEMPAE_clean_linker_10, # of connection points: 2
#     Edge 29, Type (0, 1), BuildingBlock: TEMPAE_clean_linker_10, # of connection points: 2
#     Edge 30, Type (0, 1), BuildingBlock: TEMPAE_clean_linker_10, # of connection points: 2
#     Edge 31, Type (0, 1), BuildingBlock: TEMPAE_clean_linker_10, # of connection points: 2
#     Edge 32, Type (0, 1), BuildingBlock: TEMPAE_clean_linker_10, # of connection points: 2
#     Edge 33, Type (0, 1), BuildingBlock: TEMPAE_clean_linker_10, # of connection points: 2
#     Edge 34, Type (0, 1), BuildingBlock: TEMPAE_clean_linker_10, # of connection points: 2
#     Edge 35, Type (0, 1), BuildingBlock: TEMPAE_clean_linker_10, # of connection points: 2
# Relax obj value: 0.005
# Max RMSD: 0.117
# Mean RMSD: 0.091
data_MOF--net-hwx--node1-IZENUY_clean_sbu_0--node2-QEWDON_clean_linker_0--edge1-TEMPAE_clean_linker_10
_symmetry_space_group_name_H-M    P1
_symmetry_Int_Tables_number       1
_symmetry_cell_setting            triclinic
loop_
_symmetry_equiv_pos_as_xyz
'x, y, z'
_cell_length_a     54.972646
_cell_length_b     54.99534
_cell_length_c     20.533956
_cell_angle_alpha  92.395716
_cell_angle_beta   92.413595
_cell_angle_gamma 89.993456
loop_
_atom_site_label
_atom_site_type_symbol
_atom_site_fract_x
_atom_site_fract_y
_atom_site_fract_z
_atom_type_partial_charge
Fe0 Fe 0.24391 0.25695 0.08181 0.0
Fe1 Fe 0.24281 0.25448 0.93174 0.0
O2 O 0.23172 0.24467 0.00604 0.0
Fe3 Fe 0.20829 0.22254 0.0043 0.0
O4 O 0.18817 0.24333 0.04633 0.0
O5 O 0.21492 0.25533 0.12374 0.0
O6 O 0.23545 0.28774 0.06107 0.0
C7 C 0.24203 0.29812 0.01104 0.0
C8 C 0.23926 0.20898 0.11004 0.0
O9 O 0.24961 0.28573 0.96257 0.0
C10 C 0.23618 0.20357 0.90803 0.0
O11 O 0.2751 0.26058 0.05327 0.0
O12 O 0.27332 0.24431 0.95343 0.0
O13 O 0.21865 0.20873 0.08023 0.0
O14 O 0.25324 0.22711 0.10823 0.0
C15 C 0.19396 0.25226 0.90045 0.0
O16 O 0.23823 0.22487 0.88733 0.0
O17 O 0.22692 0.20034 0.9621 0.0
C18 C 0.28552 0.25086 0.00462 0.0
O19 O 0.21287 0.26535 0.90513 0.0
O20 O 0.1935 0.23211 0.92795 0.0
C21 C 0.19307 0.25359 0.10133 0.0
Fe22 Fe 0.26551 0.75792 0.58809 0.0
Fe23 Fe 0.29852 0.72299 0.51274 0.0
O24 O 0.27578 0.74573 0.51288 0.0
Fe25 Fe 0.26353 0.75606 0.43779 0.0
O26 O 0.27306 0.78704 0.45877 0.0
O27 O 0.26004 0.78878 0.5587 0.0
O28 O 0.29599 0.76825 0.61441 0.0
C29 C 0.3143 0.75447 0.61814 0.0
C30 C 0.22225 0.7537 0.5163 0.0
O31 O 0.31373 0.73363 0.58972 0.0
C32 C 0.26688 0.70732 0.40757 0.0
O33 O 0.2691 0.72908 0.63064 0.0
O34 O 0.27912 0.70243 0.55347 0.0
O35 O 0.23269 0.76158 0.46737 0.0
O36 O 0.23447 0.74846 0.56718 0.0
C37 C 0.3142 0.75139 0.41749 0.0
O38 O 0.28778 0.70787 0.43573 0.0
O39 O 0.25312 0.72564 0.41151 0.0
C40 C 0.27014 0.70725 0.60798 0.0
O41 O 0.31907 0.74241 0.47199 0.0
O42 O 0.29234 0.75246 0.395 0.0
C43 C 0.26787 0.79922 0.50974 0.0
Fe44 Fe 0.76523 0.77802 0.9419 0.0
Fe45 Fe 0.76836 0.77998 0.09182 0.0
O46 O 0.77748 0.79089 0.01674 0.0
Fe47 Fe 0.79897 0.81485 0.01644 0.0
O48 O 0.77718 0.83419 0.97528 0.0
O49 O 0.76605 0.80683 0.89863 0.0
O50 O 0.73434 0.78595 0.96288 0.0
C51 C 0.72429 0.77964 0.01371 0.0
C52 C 0.81266 0.78384 0.91105 0.0
O53 O 0.737 0.77261 0.06239 0.0
C54 C 0.81936 0.78778 0.1126 0.0
O55 O 0.76223 0.74698 0.97168 0.0
O56 O 0.77891 0.7495 0.07094 0.0
O57 O 0.81223 0.80471 0.93931 0.0
O58 O 0.79532 0.76911 0.91599 0.0
C59 C 0.76992 0.82893 0.12172 0.0
O60 O 0.79825 0.78524 0.1344 0.0
O61 O 0.822 0.7969 0.05796 0.0
C62 C 0.77228 0.73695 0.02045 0.0
O63 O 0.75713 0.80982 0.11796 0.0
O64 O 0.78983 0.82963 0.0932 0.0
C65 C 0.76694 0.82879 0.92054 0.0
Fe66 Fe 0.70722 0.31553 0.51384 0.0
Fe67 Fe 0.74325 0.2832 0.58841 0.0
O68 O 0.72996 0.29267 0.51374 0.0
Fe69 Fe 0.73932 0.27939 0.43897 0.0
O70 O 0.74913 0.30879 0.41199 0.0
O71 O 0.71551 0.3281 0.43624 0.0
O72 O 0.72786 0.3375 0.55438 0.0
C73 C 0.73846 0.33454 0.6091 0.0
C74 C 0.68799 0.28445 0.41855 0.0
O75 O 0.74097 0.31334 0.63083 0.0
C76 C 0.73835 0.2389 0.51186 0.0
O77 O 0.69465 0.30725 0.59146 0.0
O78 O 0.71382 0.27354 0.61549 0.0
O79 O 0.70916 0.28187 0.3967 0.0
O80 O 0.68511 0.29504 0.47332 0.0
C81 C 0.7837 0.28396 0.51533 0.0
O82 O 0.74794 0.25145 0.55948 0.0
O83 O 0.73033 0.2491 0.46132 0.0
C84 C 0.69556 0.28731 0.62004 0.0
O85 O 0.77358 0.29202 0.56595 0.0
O86 O 0.77105 0.2745 0.46773 0.0
C87 C 0.73544 0.32711 0.40756 0.0
H88 H 0.2619 0.54909 0.09429 0.0
C89 C 0.25685 0.55643 0.04745 0.0
C90 C 0.24793 0.58037 0.0446 0.0
C91 C 0.26193 0.54306 0.98964 0.0
H92 H 0.23636 0.60879 0.98136 0.0
C93 C 0.24268 0.59013 0.98358 0.0
C94 C 0.24826 0.57733 0.92581 0.0
C95 C 0.25788 0.55375 0.92906 0.0
C96 C 0.2765 0.5205 0.99264 0.0
H97 H 0.26339 0.54421 0.8848 0.0
C98 C 0.26608 0.49788 0.00582 0.0
C99 C 0.28064 0.47668 0.00677 0.0
C100 C 0.30139 0.52185 0.98075 0.0
H101 H 0.30966 0.53908 0.97044 0.0
C102 C 0.31581 0.50106 0.98188 0.0
H103 H 0.24685 0.49683 0.01498 0.0
C104 C 0.30557 0.47866 0.99452 0.0
H105 H 0.31717 0.46274 0.99339 0.0
H106 H 0.33498 0.50226 0.97231 0.0
H107 H 0.97995 0.74381 0.42453 0.0
C108 C 0.96895 0.74738 0.46647 0.0
C109 C 0.94663 0.75965 0.45885 0.0
C110 C 0.97645 0.73864 0.52759 0.0
H111 H 0.91496 0.77291 0.50672 0.0
C112 C 0.93215 0.76346 0.51295 0.0
C113 C 0.93873 0.75402 0.57363 0.0
C114 C 0.96116 0.74189 0.58074 0.0
C115 C 0.99871 0.72352 0.53459 0.0
H116 H 0.96639 0.73416 0.62694 0.0
C117 C 0.02184 0.73218 0.51879 0.0
C118 C 0.04272 0.71738 0.52686 0.0
C119 C 0.99666 0.69999 0.55792 0.0
H120 H 0.97909 0.6929 0.56996 0.0
C121 C 0.01713 0.68531 0.56547 0.0
H122 H 0.02358 0.75033 0.50088 0.0
C123 C 0.03996 0.69389 0.55029 0.0
H124 H 0.05561 0.68224 0.55816 0.0
H125 H 0.01532 0.66723 0.58363 0.0
H126 H 0.78119 0.49476 0.93408 0.0
C127 C 0.77684 0.48378 0.97464 0.0
C128 C 0.76444 0.46157 0.96278 0.0
C129 C 0.78472 0.49115 0.03856 0.0
H130 H 0.74993 0.43007 0.00583 0.0
C131 C 0.75956 0.44712 0.01537 0.0
C132 C 0.76824 0.45349 0.07906 0.0
C133 C 0.78055 0.4758 0.09034 0.0
C134 C 0.79995 0.51332 0.05058 0.0
H135 H 0.78773 0.4809 0.13894 0.0
C136 C 0.79177 0.53651 0.03218 0.0
C137 C 0.80675 0.55724 0.04453 0.0
C138 C 0.82316 0.51109 0.08102 0.0
H139 H 0.82989 0.49348 0.09521 0.0
C140 C 0.83802 0.53143 0.09284 0.0
H141 H 0.77386 0.5384 0.00884 0.0
C142 C 0.82993 0.55431 0.07489 0.0
H143 H 0.84171 0.56986 0.08595 0.0
H144 H 0.85587 0.52948 0.11636 0.0
H145 H 0.03489 0.26015 0.58891 0.0
C146 C 0.04229 0.26532 0.54337 0.0
C147 C 0.06651 0.27356 0.54258 0.0
C148 C 0.02862 0.26107 0.48443 0.0
H149 H 0.09518 0.28477 0.48211 0.0
C150 C 0.07633 0.27897 0.48293 0.0
C151 C 0.0632 0.27427 0.4239 0.0
C152 C 0.03934 0.26525 0.42482 0.0
C153 C 1.00562 0.2471 0.48386 0.0
H154 H 0.02956 0.26033 0.3792 0.0
C155 C 0.98329 0.25802 0.49981 0.0
C156 C 0.9617 0.24394 0.49776 0.0
C157 C 1.00627 0.22222 0.46603 0.0
H158 H 0.02326 0.21356 0.45356 0.0
C159 C 0.9851 0.20828 0.4641 0.0
H160 H 0.98275 0.27724 0.51354 0.0
C161 C 0.963 0.219 0.47962 0.0
H162 H 0.94678 0.20777 0.47617 0.0
H163 H 0.98578 0.18911 0.45002 0.0
H164 H 0.76112 0.98778 0.43503 0.0
C165 C 0.75564 0.9802 0.48007 0.0
C166 C 0.74743 0.95596 0.47981 0.0
C167 C 0.75949 0.99365 0.53951 0.0
H168 H 0.73591 0.927 0.53882 0.0
C169 C 0.74165 0.94588 0.53884 0.0
C170 C 0.74596 0.95877 0.59839 0.0
C171 C 0.75492 0.98268 0.59854 0.0
C172 C 0.77353 0.01664 0.54139 0.0
H173 H 0.75954 0.99228 0.6446 0.0
C174 C 0.76278 0.03906 0.52552 0.0
C175 C 0.77696 0.06059 0.52869 0.0
C176 C 0.79832 0.01586 0.56032 0.0
H177 H 0.80684 0.9988 0.57274 0.0
C178 C 0.81234 0.03698 0.56339 0.0
H179 H 0.74362 0.03971 0.51095 0.0
C180 C 0.8018 0.05915 0.54791 0.0
H181 H 0.81309 0.07533 0.55219 0.0
H182 H 0.83143 0.03619 0.5783 0.0
H183 H 0.52773 0.24208 0.09348 0.0
C184 C 0.53876 0.24636 0.05293 0.0
C185 C 0.56099 0.25872 0.0648 0.0
C186 C 0.5314 0.23844 0.98905 0.0
H187 H 0.59255 0.27313 0.02177 0.0
C188 C 0.57548 0.26353 0.01223 0.0
C189 C 0.56911 0.25482 0.94857 0.0
C190 C 0.54678 0.24253 0.93729 0.0
C191 C 0.50917 0.22329 0.97706 0.0
H192 H 0.54168 0.23534 0.8887 0.0
C193 C 0.48604 0.23154 0.99574 0.0
C194 C 0.46524 0.21666 0.98348 0.0
C195 C 0.51128 0.20012 0.94643 0.0
H196 H 0.52885 0.19334 0.93204 0.0
C197 C 0.49086 0.18534 0.93471 0.0
H198 H 0.48424 0.24942 0.01922 0.0
C199 C 0.46803 0.1935 0.95293 0.0
H200 H 0.45242 0.1818 0.94193 0.0
H201 H 0.49271 0.16752 0.91104 0.0
H202 H 0.28025 0.04352 0.59635 0.0
C203 C 0.27552 0.05359 0.55335 0.0
C204 C 0.26381 0.07623 0.55988 0.0
C205 C 0.28215 0.04451 0.49149 0.0
H206 H 0.2509 0.10761 0.51013 0.0
C207 C 0.25873 0.0896 0.50423 0.0
C208 C 0.26522 0.08093 0.44212 0.0
C209 C 0.27688 0.05823 0.43622 0.0
C210 C 0.29723 0.02228 0.48492 0.0
H211 H 0.28223 0.0513 0.38876 0.0
C212 C 0.28882 0.99933 0.50267 0.0
C213 C 0.30358 0.97846 0.49461 0.0
C214 C 0.32045 0.0242 0.4596 0.0
H215 H 0.32727 0.04166 0.4458 0.0
C216 C 0.33514 1.00374 0.45222 0.0
H217 H 0.27087 0.99773 0.52197 0.0
C218 C 0.32681 0.98105 0.46937 0.0
H219 H 0.33843 0.96537 0.46152 0.0
H220 H 0.353 1.00542 0.43256 0.0
H221 H 0.4732 0.75899 0.93183 0.0
C222 C 0.46571 0.76407 0.97847 0.0
C223 C 0.44168 0.77281 0.98073 0.0
C224 C 0.47901 0.75921 0.03662 0.0
H225 H 0.41298 0.78422 0.04322 0.0
C226 C 0.43171 0.77806 0.04146 0.0
C227 C 0.44442 0.77271 0.09957 0.0
C228 C 0.46811 0.76329 0.09693 0.0
C229 C 0.50165 0.74471 0.03433 0.0
H230 H 0.47757 0.75794 0.14146 0.0
C231 C 0.52433 0.75512 0.02145 0.0
C232 C 0.54558 0.74059 0.02123 0.0
C233 C 0.50031 0.71987 0.04671 0.0
H234 H 0.48305 0.71161 0.05681 0.0
C235 C 0.52114 0.70549 0.04637 0.0
H236 H 0.52539 0.77432 0.01192 0.0
C237 C 0.54358 0.71571 0.034 0.0
H238 H 0.55952 0.70413 0.03569 0.0
H239 H 0.51993 0.68636 0.05632 0.0
C240 C 0.17592 0.26008 0.21155 0.0
C241 C 0.17273 0.26032 0.14352 0.0
C242 C 0.1562 0.264 0.25196 0.0
C243 C 0.13281 0.26886 0.22373 0.0
C244 C 0.12971 0.27017 0.15519 0.0
C245 C 0.14964 0.26557 0.11583 0.0
C246 C 0.16022 0.26204 0.32478 0.0
C247 C 0.10525 0.27594 0.12339 0.0
C248 C 0.08045 0.25232 0.32822 0.0
C249 C 0.07658 0.27436 0.36285 0.0
C250 C 0.09796 0.25052 0.28042 0.0
C251 C 0.11155 0.2714 0.26619 0.0
C252 C 0.10633 0.29411 0.29759 0.0
C253 C 0.08913 0.29525 0.34633 0.0
C254 C 0.1032 0.22588 0.24892 0.0
C255 C 0.11992 0.31691 0.28257 0.0
H256 H 0.19367 0.25587 0.2332 0.0
H257 H 0.14713 0.26596 0.06322 0.0
H258 H 0.15456 0.27913 0.35046 0.0
H259 H 0.14883 0.24714 0.34197 0.0
H260 H 0.17956 0.25839 0.33904 0.0
H261 H 0.10633 0.27834 0.07013 0.0
H262 H 0.09222 0.26102 0.13091 0.0
H263 H 0.09773 0.2928 0.14629 0.0
H264 H 0.07105 0.23609 0.34188 0.0
H265 H 0.08621 0.31225 0.37354 0.0
H266 H 0.12161 0.2198 0.26553 0.0
H267 H 0.10318 0.22694 0.19511 0.0
H268 H 0.08974 0.21191 0.26126 0.0
H269 H 0.13887 0.31595 0.30312 0.0
H270 H 0.11124 0.33355 0.30357 0.0
H271 H 0.12089 0.31858 0.22908 0.0
C272 C 0.26478 0.68995 0.71719 0.0
C273 C 0.26387 0.68686 0.64905 0.0
C274 C 0.26074 0.67025 0.75674 0.0
C275 C 0.2551 0.64703 0.72741 0.0
C276 C 0.25327 0.64402 0.6586 0.0
C277 C 0.25795 0.66391 0.62022 0.0
C278 C 0.26323 0.67415 0.82998 0.0
C279 C 0.24672 0.61972 0.62556 0.0
C280 C 0.2705 0.59422 0.8348 0.0
C281 C 0.24843 0.59085 0.86494 0.0
C282 C 0.27265 0.6117 0.78749 0.0
C283 C 0.25211 0.62583 0.76922 0.0
C284 C 0.22933 0.62115 0.79596 0.0
C285 C 0.22783 0.60389 0.84417 0.0
C286 C 0.29734 0.61631 0.76083 0.0
C287 C 0.20688 0.63538 0.77661 0.0
H288 H 0.26946 0.7076 0.73972 0.0
H289 H 0.257 0.6615 0.5675 0.0
H290 H 0.2461 0.66895 0.8525 0.0
H291 H 0.27788 0.66232 0.8498 0.0
H292 H 0.26758 0.69335 0.84506 0.0
H293 H 0.24436 0.62082 0.57176 0.0
H294 H 0.26121 0.60627 0.63648 0.0
H295 H 0.22961 0.61272 0.64473 0.0
H296 H 0.28653 0.58443 0.85165 0.0
H297 H 0.21079 0.60133 0.86776 0.0
H298 H 0.30407 0.63448 0.77901 0.0
H299 H 0.29606 0.61646 0.70681 0.0
H300 H 0.31094 0.60241 0.77558 0.0
H301 H 0.20853 0.65429 0.79732 0.0
H302 H 0.19005 0.6272 0.79447 0.0
H303 H 0.205 0.63638 0.72278 0.0
C304 C 0.83854 0.7732 0.2167 0.0
C305 C 0.8412 0.78268 0.15503 0.0
C306 C 0.8588 0.76951 0.259 0.0
C307 C 0.88241 0.77541 0.23935 0.0
C308 C 0.88535 0.78437 0.17654 0.0
C309 C 0.86473 0.78789 0.13511 0.0
C310 C 0.85484 0.75979 0.3255 0.0
C311 C 0.91021 0.79079 0.15376 0.0
C312 C 0.92549 0.78862 0.38518 0.0
C313 C 0.93611 0.76574 0.3938 0.0
C314 C 0.90935 0.7926 0.33195 0.0
C315 C 0.90364 0.77319 0.28636 0.0
C316 C 0.91604 0.75072 0.29164 0.0
C317 C 0.9322 0.74726 0.3454 0.0
C318 C 0.89679 0.81694 0.32786 0.0
C319 C 0.91066 0.72962 0.24386 0.0
H320 H 0.82052 0.76894 0.2325 0.0
H321 H 0.86704 0.79513 0.08747 0.0
H322 H 0.86597 0.74322 0.33267 0.0
H323 H 0.86082 0.77353 0.364 0.0
H324 H 0.83545 0.75523 0.33239 0.0
H325 H 0.90964 0.79578 0.10184 0.0
H326 H 0.91781 0.80637 0.18413 0.0
H327 H 0.92289 0.77528 0.15984 0.0
H328 H 0.92858 0.80294 0.42254 0.0
H329 H 0.9402 0.72948 0.35223 0.0
H330 H 0.87753 0.81503 0.34101 0.0
H331 H 0.89676 0.82337 0.27738 0.0
H332 H 0.9056 0.83101 0.36139 0.0
H333 H 0.8926 0.72181 0.25339 0.0
H334 H 0.92452 0.71501 0.24811 0.0
H335 H 0.90985 0.73575 0.19303 0.0
C336 C 0.74022 0.37986 0.63079 0.0
C337 C 0.7446 0.35625 0.65225 0.0
C338 C 0.74387 0.40042 0.67311 0.0
C339 C 0.75206 0.39733 0.73848 0.0
C340 C 0.75738 0.37365 0.75972 0.0
C341 C 0.75364 0.35344 0.7164 0.0
C342 C 0.73816 0.42535 0.64849 0.0
C343 C 0.76625 0.36954 0.82903 0.0
C344 C 0.77865 0.44709 0.85399 0.0
C345 C 0.75941 0.45105 0.89583 0.0
C346 C 0.77604 0.4309 0.79929 0.0
C347 C 0.75367 0.41847 0.78639 0.0
C348 C 0.73356 0.42417 0.82513 0.0
C349 C 0.73669 0.4404 0.87939 0.0
C350 C 0.79784 0.42555 0.75882 0.0
C351 C 0.7093 0.41158 0.81277 0.0
H352 H 0.73338 0.3823 0.58121 0.0
H353 H 0.75722 0.33535 0.73347 0.0
H354 H 0.72197 0.43285 0.67278 0.0
H355 H 0.75353 0.43802 0.6608 0.0
H356 H 0.73437 0.42492 0.59488 0.0
H357 H 0.77071 0.35016 0.83695 0.0
H358 H 0.78271 0.38072 0.84166 0.0
H359 H 0.75205 0.37536 0.86319 0.0
H360 H 0.79631 0.45512 0.86688 0.0
H361 H 0.72178 0.44352 0.91164 0.0
H362 H 0.79254 0.42469 0.70605 0.0
H363 H 0.80545 0.40754 0.77109 0.0
H364 H 0.81238 0.43946 0.76795 0.0
H365 H 0.7036 0.41176 0.76034 0.0
H366 H 0.69479 0.42019 0.84188 0.0
H367 H 0.711 0.39225 0.82585 0.0
C368 C 0.64264 0.28294 0.39693 0.0
C369 C 0.66623 0.2784 0.37548 0.0
C370 C 0.62205 0.27935 0.35464 0.0
C371 C 0.62509 0.27107 0.28933 0.0
C372 C 0.64875 0.2656 0.26812 0.0
C373 C 0.66898 0.26928 0.3114 0.0
C374 C 0.59714 0.28523 0.37922 0.0
C375 C 0.6528 0.25662 0.19888 0.0
C376 C 0.57527 0.2446 0.17385 0.0
C377 C 0.57146 0.26379 0.13177 0.0
C378 C 0.59141 0.24721 0.22866 0.0
C379 C 0.60394 0.26953 0.24142 0.0
C380 C 0.59837 0.2896 0.20246 0.0
C381 C 0.58219 0.28648 0.14809 0.0
C382 C 0.59662 0.22545 0.26938 0.0
C383 C 0.61108 0.3138 0.21468 0.0
H384 H 0.64024 0.28985 0.44645 0.0
H385 H 0.68706 0.26557 0.29436 0.0
H386 H 0.58973 0.30143 0.35483 0.0
H387 H 0.58437 0.26994 0.36698 0.0
H388 H 0.59758 0.28905 0.43281 0.0
H389 H 0.67217 0.25205 0.19099 0.0
H390 H 0.64154 0.24021 0.18641 0.0
H391 H 0.64705 0.27081 0.16459 0.0
H392 H 0.56718 0.22697 0.16106 0.0
H393 H 0.57917 0.30136 0.11567 0.0
H394 H 0.5975 0.23082 0.3221 0.0
H395 H 0.61459 0.21771 0.25722 0.0
H396 H 0.58262 0.21099 0.26038 0.0
H397 H 0.6109 0.31956 0.26707 0.0
H398 H 0.60253 0.32831 0.18544 0.0
H399 H 0.6304 0.31201 0.20164 0.0
C400 C 0.25103 0.18535 0.80313 0.0
C401 C 0.24197 0.18213 0.86504 0.0
C402 C 0.2552 0.16538 0.76027 0.0
C403 C 0.25023 0.14152 0.77965 0.0
C404 C 0.24185 0.13803 0.84281 0.0
C405 C 0.23782 0.15836 0.88477 0.0
C406 C 0.26425 0.16991 0.69338 0.0
C407 C 0.23645 0.1129 0.86535 0.0
C408 C 0.23603 0.09832 0.63472 0.0
C409 C 0.25886 0.08782 0.62447 0.0
C410 C 0.23253 0.11459 0.68789 0.0
C411 C 0.2524 0.12058 0.73176 0.0
C412 C 0.27498 0.10854 0.72456 0.0
C413 C 0.27795 0.09222 0.67088 0.0
C414 C 0.20807 0.12679 0.69405 0.0
C415 C 0.29655 0.11428 0.7705 0.0
H416 H 0.25448 0.20357 0.78752 0.0
H417 H 0.23098 0.15562 0.93266 0.0
H418 H 0.28094 0.15911 0.68472 0.0
H419 H 0.25029 0.16391 0.65549 0.0
H420 H 0.2684 0.18942 0.68703 0.0
H421 H 0.23219 0.11308 0.91778 0.0
H422 H 0.22067 0.10505 0.83624 0.0
H423 H 0.25217 0.10065 0.85733 0.0
H424 H 0.22125 0.09483 0.59889 0.0
H425 H 0.29568 0.08429 0.66271 0.0
H426 H 0.20961 0.14619 0.68194 0.0
H427 H 0.20209 0.12631 0.74489 0.0
H428 H 0.19383 0.11806 0.6609 0.0
H429 H 0.30372 0.13258 0.76076 0.0
H430 H 0.31145 0.10082 0.76455 0.0
H431 H 0.29109 0.11474 0.82193 0.0
C432 C 0.35755 0.76353 0.40486 0.0
C433 C 0.33457 0.75758 0.37621 0.0
C434 C 0.37744 0.76811 0.36633 0.0
C435 C 0.37439 0.76614 0.29753 0.0
C436 C 0.35114 0.76046 0.26837 0.0
C437 C 0.33145 0.75653 0.30807 0.0
C438 C 0.40176 0.77471 0.3992 0.0
C439 C 0.3472 0.75781 0.19517 0.0
C440 C 0.41761 0.79321 0.18051 0.0
C441 C 0.43074 0.7726 0.1602 0.0
C442 C 0.40028 0.79177 0.22856 0.0
C443 C 0.39559 0.76905 0.2556 0.0
C444 C 0.40976 0.7485 0.2377 0.0
C445 C 0.42733 0.75059 0.19055 0.0
C446 C 0.38601 0.81423 0.24751 0.0
C447 C 0.40515 0.72387 0.26465 0.0
H448 H 0.36 0.76458 0.45758 0.0
H449 H 0.31378 0.75181 0.28567 0.0
H450 H 0.41521 0.76022 0.38844 0.0
H451 H 0.40874 0.79178 0.37977 0.0
H452 H 0.4007 0.77717 0.45299 0.0
H453 H 0.32799 0.75344 0.18021 0.0
H454 H 0.35239 0.77488 0.17235 0.0
H455 H 0.35903 0.74313 0.17555 0.0
H456 H 0.4202 0.8102 0.15674 0.0
H457 H 0.43717 0.73456 0.17404 0.0
H458 H 0.38503 0.81624 0.30133 0.0
H459 H 0.36709 0.8125 0.22687 0.0
H460 H 0.39415 0.83101 0.22933 0.0
H461 H 0.40503 0.72523 0.31866 0.0
H462 H 0.41902 0.71024 0.25 0.0
H463 H 0.38695 0.71714 0.24662 0.0
C464 C 0.76071 0.8457 0.80993 0.0
C465 C 0.75971 0.84881 0.87783 0.0
C466 C 0.75661 0.86534 0.76933 0.0
C467 C 0.75079 0.88853 0.7972 0.0
C468 C 0.74864 0.89149 0.86552 0.0
C469 C 0.75343 0.87167 0.9051 0.0
C470 C 0.75948 0.86149 0.69679 0.0
C471 C 0.74184 0.91572 0.89691 0.0
C472 C 0.7673 0.94163 0.69527 0.0
C473 C 0.74553 0.94512 0.65898 0.0
C474 C 0.76898 0.92397 0.74268 0.0
C475 C 0.74825 0.9098 0.7548 0.0
C476 C 0.72574 0.91459 0.72169 0.0
C477 C 0.72473 0.93198 0.67345 0.0
C478 C 0.79341 0.91925 0.77615 0.0
C479 C 0.70307 0.90036 0.73442 0.0
H480 H 0.76573 0.82813 0.78865 0.0
H481 H 0.75246 0.87411 0.95761 0.0
H482 H 0.74257 0.86685 0.66973 0.0
H483 H 0.77439 0.87321 0.68104 0.0
H484 H 0.76368 0.84227 0.68273 0.0
H485 H 0.73873 0.91445 0.94977 0.0
H486 H 0.75658 0.92912 0.89111 0.0
H487 H 0.7251 0.92287 0.87242 0.0
H488 H 0.78348 0.95149 0.68323 0.0
H489 H 0.70793 0.93461 0.64501 0.0
H490 H 0.80008 0.90101 0.75999 0.0
H491 H 0.79173 0.91917 0.82976 0.0
H492 H 0.80724 0.93304 0.7651 0.0
H493 H 0.70476 0.8815 0.71379 0.0
H494 H 0.68646 0.90864 0.71207 0.0
H495 H 0.70079 0.89921 0.78764 0.0
C496 C 0.84369 0.79673 0.83425 0.0
C497 C 0.83227 0.77799 0.86576 0.0
C498 C 0.86186 0.79167 0.7897 0.0
C499 C 0.86929 0.7673 0.77759 0.0
C500 C 0.85833 0.74834 0.81078 0.0
C501 C 0.83967 0.75387 0.8538 0.0
C502 C 0.87256 0.81236 0.75407 0.0
C503 C 0.86619 0.72221 0.80044 0.0
C504 C 0.89614 0.75325 0.6131 0.0
C505 C 0.92127 0.75566 0.62749 0.0
C506 C 0.87913 0.7566 0.66162 0.0
C507 C 0.88735 0.7617 0.72695 0.0
C508 C 0.91269 0.76288 0.74268 0.0
C509 C 0.92936 0.76008 0.69269 0.0
C510 C 0.8523 0.75549 0.64245 0.0
C511 C 0.92217 0.76773 0.81206 0.0
H512 H 0.83793 0.81539 0.84306 0.0
H513 H 0.83104 0.73937 0.87865 0.0
H514 H 0.89262 0.81286 0.76237 0.0
H515 H 0.86877 0.80948 0.70078 0.0
H516 H 0.86504 0.83032 0.76978 0.0
H517 H 0.85728 0.7099 0.83381 0.0
H518 H 0.86162 0.71584 0.74943 0.0
H519 H 0.88622 0.72072 0.80816 0.0
H520 H 0.88962 0.74897 0.56341 0.0
H521 H 0.94868 0.76198 0.70452 0.0
H522 H 0.84369 0.7733 0.65435 0.0
H523 H 0.84313 0.74164 0.67056 0.0
H524 H 0.8489 0.75101 0.58958 0.0
H525 H 0.91745 0.78655 0.82847 0.0
H526 H 0.94224 0.76556 0.81726 0.0
H527 H 0.91345 0.75519 0.84507 0.0
C528 C 0.76561 0.35355 0.356 0.0
C529 C 0.7414 0.34654 0.36324 0.0
C530 C 0.77131 0.37227 0.31457 0.0
C531 C 0.75241 0.38362 0.27791 0.0
C532 C 0.72793 0.3765 0.28506 0.0
C533 C 0.7227 0.35834 0.32842 0.0
C534 C 0.79756 0.37982 0.30975 0.0
C535 C 0.7073 0.38755 0.2454 0.0
C536 C 0.76103 0.44383 0.19612 0.0
C537 C 0.76567 0.43588 0.13195 0.0
C538 C 0.75759 0.42706 0.24491 0.0
C539 C 0.75822 0.40175 0.22885 0.0
C540 C 0.76336 0.39364 0.16465 0.0
C541 C 0.76749 0.41073 0.11757 0.0
C542 C 0.75282 0.4364 0.31334 0.0
C543 C 0.76382 0.36686 0.14501 0.0
H544 H 0.78005 0.34463 0.38354 0.0
H545 H 0.70397 0.35285 0.33373 0.0
H546 H 0.80374 0.37533 0.25997 0.0
H547 H 0.79937 0.39981 0.31825 0.0
H548 H 0.80982 0.37066 0.34544 0.0
H549 H 0.68927 0.38016 0.25716 0.0
H550 H 0.70708 0.40758 0.25413 0.0
H551 H 0.71003 0.38392 0.19263 0.0
H552 H 0.75956 0.46314 0.20802 0.0
H553 H 0.77198 0.40425 0.06901 0.0
H554 H 0.76525 0.42747 0.34899 0.0
H555 H 0.73393 0.43181 0.32545 0.0
H556 H 0.75524 0.45643 0.31944 0.0
H557 H 0.77771 0.35738 0.17532 0.0
H558 H 0.7679 0.36356 0.09285 0.0
H559 H 0.74593 0.35849 0.15362 0.0
C560 C 0.15214 0.24401 0.8518 0.0
C561 C 0.17304 0.25879 0.85642 0.0
C562 C 0.133 0.24836 0.80648 0.0
C563 C 0.13466 0.26804 0.76468 0.0
C564 C 0.15504 0.28387 0.77151 0.0
C565 C 0.17401 0.27906 0.81728 0.0
C566 C 0.11167 0.23098 0.80079 0.0
C567 C 0.1574 0.30516 0.72813 0.0
C568 C 0.10478 0.25875 0.59592 0.0
C569 C 0.08325 0.27225 0.60093 0.0
C570 C 0.12158 0.25742 0.64874 0.0
C571 C 0.11684 0.26996 0.70842 0.0
C572 C 0.09501 0.2835 0.71418 0.0
C573 C 0.0783 0.28434 0.6603 0.0
C574 C 0.14438 0.24242 0.64062 0.0
C575 C 0.08943 0.29718 0.77699 0.0
H576 H 0.15098 0.2285 0.88239 0.0
H577 H 0.18993 0.29075 0.8209 0.0
H578 H 0.09423 0.24114 0.79983 0.0
H579 H 0.1123 0.22004 0.75425 0.0
H580 H 0.11173 0.21834 0.84159 0.0
H581 H 0.17262 0.31747 0.74498 0.0
H582 H 0.16074 0.29835 0.67766 0.0
H583 H 0.14026 0.3158 0.72624 0.0
H584 H 0.10843 0.24903 0.55034 0.0
H585 H 0.06165 0.29476 0.66412 0.0
H586 H 0.14512 0.22783 0.67637 0.0
H587 H 0.16074 0.25402 0.6505 0.0
H588 H 0.14534 0.23386 0.59081 0.0
H589 H 0.08884 0.28439 0.81727 0.0
H590 H 0.07179 0.307 0.77345 0.0
H591 H 0.10412 0.31054 0.79025 0.0
C592 C 0.27549 0.66566 0.36098 0.0
C593 C 0.26022 0.68613 0.36321 0.0
C594 C 0.27122 0.64646 0.31486 0.0
C595 C 0.25113 0.64764 0.26976 0.0
C596 C 0.23473 0.66747 0.27437 0.0
C597 C 0.23947 0.68652 0.32106 0.0
C598 C 0.28919 0.6257 0.31173 0.0
C599 C 0.21299 0.66929 0.22747 0.0
C600 C 0.26094 0.61917 0.10194 0.0
C601 C 0.24839 0.59701 0.10343 0.0
C602 C 0.26166 0.63576 0.15547 0.0
C603 C 0.2495 0.63016 0.21233 0.0
C604 C 0.23685 0.60774 0.21452 0.0
C605 C 0.2366 0.59127 0.15999 0.0
C606 C 0.27572 0.65924 0.15124 0.0
C607 C 0.22361 0.60124 0.27428 0.0
H608 H 0.29136 0.66494 0.39402 0.0
H609 H 0.2274 0.7021 0.32285 0.0
H610 H 0.27954 0.60795 0.30796 0.0
H611 H 0.29994 0.627 0.26746 0.0
H612 H 0.302 0.6259 0.35505 0.0
H613 H 0.20018 0.6838 0.24318 0.0
H614 H 0.21926 0.67342 0.17847 0.0
H615 H 0.20304 0.65171 0.22259 0.0
H616 H 0.27049 0.62344 0.05869 0.0
H617 H 0.22692 0.57413 0.16114 0.0
H618 H 0.29054 0.66028 0.18965 0.0
H619 H 0.26355 0.67504 0.15987 0.0
H620 H 0.28389 0.66093 0.10306 0.0
H621 H 0.23663 0.60064 0.31695 0.0
H622 H 0.21423 0.58335 0.26777 0.0
H623 H 0.20994 0.61544 0.28586 0.0
C624 C 0.3351 0.78145 0.70568 0.0
C625 C 0.33556 0.76103 0.66245 0.0
C626 C 0.35423 0.78602 0.75231 0.0
C627 C 0.37424 0.76979 0.75572 0.0
C628 C 0.37548 0.75006 0.70955 0.0
C629 C 0.35619 0.74595 0.66356 0.0
C630 C 0.35232 0.80738 0.80039 0.0
C631 C 0.39643 0.73229 0.71133 0.0
C632 C 0.43066 0.78435 0.86553 0.0
C633 C 0.42514 0.77216 0.92164 0.0
C634 C 0.41412 0.78415 0.8111 0.0
C635 C 0.39187 0.77117 0.81291 0.0
C636 C 0.38654 0.75854 0.86924 0.0
C637 C 0.4032 0.75921 0.92268 0.0
C638 C 0.42035 0.79788 0.75191 0.0
C639 C 0.36326 0.74413 0.87307 0.0
H640 H 0.3194 0.79337 0.7048 0.0
H641 H 0.35697 0.73034 0.62968 0.0
H642 H 0.34843 0.80067 0.84911 0.0
H643 H 0.3698 0.8175 0.80542 0.0
H644 H 0.3376 0.82013 0.78572 0.0
H645 H 0.39625 0.71982 0.66732 0.0
H646 H 0.41409 0.7421 0.71538 0.0
H647 H 0.39535 0.72115 0.75497 0.0
H648 H 0.44763 0.79434 0.86475 0.0
H649 H 0.3991 0.74939 0.96563 0.0
H650 H 0.40607 0.81162 0.74157 0.0
H651 H 0.42077 0.7852 0.70851 0.0
H652 H 0.43823 0.80725 0.7584 0.0
H653 H 0.34729 0.75616 0.86545 0.0
H654 H 0.36182 0.73553 0.92075 0.0
H655 H 0.36228 0.72962 0.83384 0.0
C656 C 0.7431 0.84875 0.20499 0.0
C657 C 0.76335 0.84981 0.16581 0.0
C658 C 0.73821 0.86771 0.25071 0.0
C659 C 0.75396 0.88814 0.25747 0.0
C660 C 0.77364 0.88987 0.21569 0.0
C661 C 0.77806 0.87075 0.1704 0.0
C662 C 0.71692 0.86527 0.29408 0.0
C663 C 0.79094 0.91127 0.22135 0.0
C664 C 0.73715 0.94433 0.36174 0.0
C665 C 0.74918 0.93943 0.42123 0.0
C666 C 0.73823 0.9277 0.30779 0.0
C667 C 0.75194 0.90598 0.31364 0.0
C668 C 0.76446 0.90131 0.37342 0.0
C669 C 0.76289 0.91804 0.42629 0.0
C670 C 0.72458 0.93321 0.24486 0.0
C671 C 0.77962 0.87862 0.38167 0.0
H672 H 0.73146 0.8328 0.20139 0.0
H673 H 0.79357 0.87197 0.13981 0.0
H674 H 0.72375 0.86202 0.34459 0.0
H675 H 0.70618 0.88235 0.29578 0.0
H676 H 0.70469 0.84998 0.27734 0.0
H677 H 0.8036 0.91124 0.18058 0.0
H678 H 0.78071 0.92865 0.22223 0.0
H679 H 0.80188 0.91069 0.26792 0.0
H680 H 0.72656 0.96088 0.3579 0.0
H681 H 0.77254 0.91442 0.47202 0.0
H682 H 0.71121 0.91851 0.23172 0.0
H683 H 0.73739 0.93373 0.20461 0.0
H684 H 0.71476 0.95084 0.24819 0.0
H685 H 0.76811 0.8622 0.37192 0.0
H686 H 0.78821 0.87776 0.43147 0.0
H687 H 0.7942 0.87794 0.34588 0.0
C688 C 0.66905 0.25722 0.67162 0.0
C689 C 0.6761 0.28141 0.66436 0.0
C690 C 0.65031 0.25156 0.71307 0.0
C691 C 0.63901 0.27048 0.74971 0.0
C692 C 0.64617 0.29494 0.74253 0.0
C693 C 0.66435 0.30012 0.69916 0.0
C694 C 0.64271 0.22535 0.71793 0.0
C695 C 0.63517 0.31558 0.78216 0.0
C696 C 0.57878 0.26199 0.83151 0.0
C697 C 0.58673 0.25735 0.89569 0.0
C698 C 0.59555 0.26539 0.78271 0.0
C699 C 0.62087 0.26472 0.79879 0.0
C700 C 0.62898 0.25958 0.863 0.0
C701 C 0.61188 0.2555 0.91008 0.0
C702 C 0.58621 0.27017 0.71428 0.0
C703 C 0.65578 0.25907 0.88263 0.0
H704 H 0.67793 0.24277 0.64409 0.0
H705 H 0.66988 0.31883 0.69383 0.0
H706 H 0.64719 0.21916 0.76773 0.0
H707 H 0.62271 0.22357 0.70945 0.0
H708 H 0.65185 0.21306 0.68226 0.0
H709 H 0.64259 0.33359 0.77036 0.0
H710 H 0.61513 0.31583 0.77346 0.0
H711 H 0.6388 0.31285 0.83494 0.0
H712 H 0.55946 0.26349 0.81962 0.0
H713 H 0.61836 0.25101 0.95866 0.0
H714 H 0.59511 0.25772 0.67865 0.0
H715 H 0.59084 0.28903 0.70213 0.0
H716 H 0.56616 0.26779 0.70819 0.0
H717 H 0.66523 0.24516 0.85232 0.0
H718 H 0.65908 0.25499 0.93479 0.0
H719 H 0.66418 0.27694 0.87401 0.0
C720 C 0.25988 0.19272 0.21022 0.0
C721 C 0.24567 0.18869 0.15253 0.0
C722 C 0.26397 0.17395 0.25375 0.0
C723 C 0.25413 0.15048 0.2383 0.0
C724 C 0.24083 0.14605 0.17846 0.0
C725 C 0.23649 0.16529 0.13672 0.0
C726 C 0.27789 0.17951 0.31759 0.0
C727 C 0.23061 0.12117 0.1593 0.0
C728 C 0.27917 0.09872 0.33881 0.0
C729 C 0.26129 0.09669 0.38519 0.0
C730 C 0.27675 0.11559 0.28931 0.0
C731 C 0.25621 0.13112 0.28687 0.0
C732 C 0.23778 0.12867 0.33227 0.0
C733 C 0.24039 0.1113 0.38015 0.0
C734 C 0.29649 0.11725 0.24076 0.0
C735 C 0.21565 0.14496 0.33168 0.0
H736 H 0.26693 0.21081 0.22265 0.0
H737 H 0.22575 0.16205 0.09167 0.0
H738 H 0.26571 0.17721 0.35868 0.0
H739 H 0.2932 0.16657 0.32381 0.0
H740 H 0.28527 0.19835 0.32098 0.0
H741 H 0.22305 0.12011 0.10822 0.0
H742 H 0.24494 0.1071 0.16473 0.0
H743 H 0.21589 0.11668 0.19216 0.0
H744 H 0.2955 0.08775 0.34245 0.0
H745 H 0.22619 0.10952 0.41471 0.0
H746 H 0.30607 0.13496 0.24821 0.0
H747 H 0.28843 0.11647 0.19025 0.0
H748 H 0.31009 0.10242 0.24544 0.0
H749 H 0.2214 0.16426 0.33895 0.0
H750 H 0.20295 0.14068 0.37031 0.0
H751 H 0.20566 0.14314 0.28367 0.0
C752 C 0.23322 0.33964 0.06111 0.0
C753 C 0.24367 0.32515 0.01174 0.0
C754 C 0.23591 0.36514 0.06379 0.0
C755 C 0.24964 0.37641 0.01655 0.0
C756 C 0.25969 0.36193 0.96574 0.0
C757 C 0.25645 0.33658 0.96373 0.0
C758 C 0.22456 0.37995 0.11808 0.0
C759 C 0.27465 0.37312 0.91467 0.0
C760 C 0.24843 0.44432 0.98581 0.0
C761 C 0.27028 0.45217 0.01778 0.0
C762 C 0.24067 0.41995 0.98793 0.0
C763 C 0.25519 0.40304 0.02239 0.0
C764 C 0.27648 0.41124 0.05781 0.0
C765 C 0.28363 0.43567 0.05545 0.0
C766 C 0.21762 0.41205 0.95043 0.0
C767 C 0.29254 0.39391 0.09523 0.0
H768 H 0.22312 0.33105 0.09811 0.0
H769 H 0.26458 0.32564 0.9253 0.0
H770 H 0.23907 0.38804 0.15136 0.0
H771 H 0.21384 0.3952 0.09789 0.0
H772 H 0.21247 0.36881 0.14702 0.0
H773 H 0.28037 0.3595 0.87689 0.0
H774 H 0.26412 0.38761 0.89029 0.0
H775 H 0.29121 0.38175 0.93828 0.0
H776 H 0.238 0.45688 0.95645 0.0
H777 H 0.30025 0.4417 0.08152 0.0
H778 H 0.20624 0.40075 0.98078 0.0
H779 H 0.22232 0.40068 0.90685 0.0
H780 H 0.20669 0.42782 0.93397 0.0
H781 H 0.28164 0.38358 0.12896 0.0
H782 H 0.30751 0.40346 0.12395 0.0
H783 H 0.30069 0.38049 0.06066 0.0
C784 C 0.18374 0.74052 0.56622 0.0
C785 C 0.19522 0.7513 0.51481 0.0
C786 C 0.15839 0.7371 0.56461 0.0
C787 C 0.14397 0.74472 0.51041 0.0
C788 C 0.15532 0.75609 0.45898 0.0
C789 C 0.18079 0.75916 0.46164 0.0
C790 C 0.1471 0.72475 0.62035 0.0
C791 C 0.14062 0.7646 0.40053 0.0
C792 C 0.08409 0.71058 0.48246 0.0
C793 C 0.06764 0.72621 0.51378 0.0
C794 C 0.10872 0.71686 0.47857 0.0
C795 C 0.11725 0.73943 0.50638 0.0
C796 C 0.10048 0.75591 0.53473 0.0
C797 C 0.07587 0.74911 0.53811 0.0
C798 C 0.12586 0.69876 0.44756 0.0
C799 C 0.10877 0.78023 0.56443 0.0
H800 H 0.19463 0.73432 0.60751 0.0
H801 H 0.1894 0.76757 0.4217 0.0
H802 H 0.13264 0.73641 0.6411 0.0
H803 H 0.1384 0.70742 0.60219 0.0
H804 H 0.16069 0.7207 0.66001 0.0
H805 H 0.15191 0.77453 0.36672 0.0
H806 H 0.13208 0.74873 0.37336 0.0
H807 H 0.12567 0.77671 0.41657 0.0
H808 H 0.07779 0.69302 0.46254 0.0
H809 H 0.06334 0.76124 0.56268 0.0
H810 H 0.13898 0.6921 0.4853 0.0
H811 H 0.13657 0.70758 0.41048 0.0
H812 H 0.11609 0.68284 0.42388 0.0
H813 H 0.12035 0.77739 0.60904 0.0
H814 H 0.09321 0.79204 0.57784 0.0
H815 H 0.12 0.78989 0.53003 0.0
C816 C 0.78621 0.69874 0.07357 0.0
C817 C 0.77507 0.70997 0.01986 0.0
C818 C 0.78947 0.67339 0.07352 0.0
C819 C 0.78141 0.65873 0.01844 0.0
C820 C 0.76987 0.66985 0.96437 0.0
C821 C 0.76687 0.6953 0.96567 0.0
C822 C 0.80193 0.66234 0.13218 0.0
C823 C 0.76102 0.6549 0.90474 0.0
C824 C 0.8144 0.59821 0.00026 0.0
C825 C 0.79844 0.5822 0.02864 0.0
C826 C 0.80859 0.6229 0.99401 0.0
C827 C 0.78622 0.63193 0.0167 0.0
C828 C 0.76944 0.61561 0.04219 0.0
C829 C 0.77572 0.59091 0.04775 0.0
C830 C 0.82695 0.63953 0.96596 0.0
C831 C 0.74536 0.62446 0.06669 0.0
H832 H 0.79265 0.7098 0.11574 0.0
H833 H 0.75821 0.70371 0.9239 0.0
H834 H 0.79012 0.64818 0.15141 0.0
H835 H 0.81905 0.6533 0.11771 0.0
H836 H 0.80639 0.67612 0.17201 0.0
H837 H 0.75137 0.66611 0.86806 0.0
H838 H 0.77668 0.64583 0.88159 0.0
H839 H 0.74853 0.64036 0.91888 0.0
H840 H 0.83185 0.59152 0.98454 0.0
H841 H 0.76336 0.5787 0.07008 0.0
H842 H 0.83405 0.65269 0.0046 0.0
H843 H 0.81821 0.65021 0.92678 0.0
H844 H 0.84258 0.62936 0.94569 0.0
H845 H 0.74858 0.63635 0.1112 0.0
H846 H 0.73333 0.60919 0.07872 0.0
H847 H 0.73575 0.63551 0.02969 0.0
C848 C 0.82557 0.29334 0.56522 0.0
C849 C 0.81076 0.28252 0.51458 0.0
C850 C 0.85106 0.29052 0.56668 0.0
C851 C 0.86203 0.27632 0.51676 0.0
C852 C 0.84724 0.26598 0.46463 0.0
C853 C 0.82191 0.26931 0.464 0.0
C854 C 0.86619 0.30213 0.62262 0.0
C855 C 0.85808 0.25057 0.41058 0.0
C856 C 0.92985 0.27656 0.48427 0.0
C857 C 0.93749 0.25477 0.51186 0.0
C858 C 0.90561 0.28465 0.48861 0.0
C859 C 0.88862 0.27055 0.52098 0.0
C860 C 0.89665 0.24935 0.55225 0.0
C861 C 0.92094 0.24184 0.54763 0.0
C862 C 0.89789 0.30754 0.45544 0.0
C863 C 0.87926 0.23375 0.58739 0.0
H864 H 0.81722 0.30375 0.6043 0.0
H865 H 0.81075 0.26089 0.4245 0.0
H866 H 0.87412 0.28778 0.6534 0.0
H867 H 0.88157 0.31247 0.60393 0.0
H868 H 0.85531 0.31462 0.65377 0.0
H869 H 0.84427 0.24477 0.37198 0.0
H870 H 0.87267 0.26077 0.38783 0.0
H871 H 0.86651 0.23405 0.43104 0.0
H872 H 0.94245 0.28664 0.45641 0.0
H873 H 0.92682 0.22525 0.57026 0.0
H874 H 0.88685 0.31923 0.48814 0.0
H875 H 0.88631 0.30268 0.41125 0.0
H876 H 0.91375 0.31819 0.44054 0.0
H877 H 0.86915 0.24501 0.6232 0.0
H878 H 0.88873 0.21892 0.6134 0.0
H879 H 0.86565 0.22543 0.5517 0.0
C880 C 0.75258 0.20054 0.56324 0.0
C881 C 0.73959 0.21183 0.51248 0.0
C882 C 0.7557 0.17518 0.56252 0.0
C883 C 0.74539 0.16052 0.51009 0.0
C884 C 0.73142 0.17164 0.45997 0.0
C885 C 0.72879 0.19715 0.46156 0.0
C886 C 0.77086 0.16418 0.61681 0.0
C887 C 0.71986 0.15666 0.40368 0.0
C888 C 0.77954 0.1014 0.47941 0.0
C889 C 0.76633 0.08489 0.51459 0.0
C890 C 0.77223 0.12575 0.47493 0.0
C891 C 0.75098 0.1339 0.50577 0.0
C892 C 0.73663 0.11695 0.53756 0.0
C893 C 0.7445 0.09264 0.54173 0.0
C894 C 0.78811 0.14308 0.44038 0.0
C895 C 0.71368 0.12479 0.57029 0.0
H896 H 0.76097 0.21159 0.60298 0.0
H897 H 0.71856 0.20561 0.42232 0.0
H898 H 0.76047 0.14963 0.63916 0.0
H899 H 0.7874 0.15567 0.59669 0.0
H900 H 0.77662 0.1779 0.65567 0.0
H901 H 0.70754 0.16767 0.37234 0.0
H902 H 0.73426 0.14866 0.37319 0.0
H903 H 0.70933 0.14134 0.422 0.0
H904 H 0.79618 0.09545 0.45717 0.0
H905 H 0.73421 0.08006 0.56914 0.0
H906 H 0.79641 0.15658 0.47639 0.0
H907 H 0.77703 0.15333 0.40443 0.0
H908 H 0.80295 0.13354 0.41462 0.0
H909 H 0.71849 0.13628 0.61466 0.0
H910 H 0.70286 0.10899 0.58482 0.0
H911 H 0.70216 0.13595 0.53746 0.0
C912 C 0.32695 0.25655 0.06077 0.0
C913 C 0.31254 0.24832 0.00611 0.0
C914 C 0.35243 0.25367 0.06282 0.0
C915 C 0.36384 0.24223 0.00907 0.0
C916 C 0.34943 0.23419 0.9535 0.0
C917 C 0.32406 0.23733 0.95268 0.0
C918 C 0.36712 0.26253 0.12292 0.0
C919 C 0.36078 0.22183 0.89514 0.0
C920 C 0.43172 0.24785 0.98078 0.0
C921 C 0.44033 0.22507 -0.00038 0.0
C922 C 0.40705 0.25423 0.98637 0.0
C923 C 0.39064 0.23746 0.01159 0.0
C924 C 0.39959 0.21504 0.03417 0.0
C925 C 0.42426 0.20915 0.02791 0.0
C926 C 0.3983 0.27835 0.96202 0.0
C927 C 0.38286 0.19669 0.06188 0.0
H928 H 0.31831 0.2651 0.10231 0.0
H929 H 0.3132 0.23088 0.91015 0.0
H930 H 0.37608 0.24687 0.14639 0.0
H931 H 0.38175 0.27501 0.10929 0.0
H932 H 0.35572 0.27218 0.15917 0.0
H933 H 0.34717 0.21739 0.85485 0.0
H934 H 0.375 0.23369 0.87647 0.0
H935 H 0.36978 0.20473 0.90976 0.0
H936 H 0.44399 0.26018 0.95855 0.0
H937 H 0.43087 0.19165 0.04346 0.0
H938 H 0.38704 0.28785 0.99872 0.0
H939 H 0.38663 0.27523 0.91704 0.0
H940 H 0.41363 0.29043 0.95077 0.0
H941 H 0.37203 0.20543 0.10075 0.0
H942 H 0.39298 0.18109 0.08244 0.0
H943 H 0.36983 0.18957 0.02294 0.0
C944 C 0.26267 0.84063 0.56468 0.0
C945 C 0.27025 0.82623 0.51118 0.0
C946 C 0.26569 0.86609 0.56717 0.0
C947 C 0.27672 0.87744 0.51519 0.0
C948 C 0.28407 0.86304 0.4607 0.0
C949 C 0.28071 0.8377 0.45929 0.0
C950 C 0.25749 0.88079 0.62595 0.0
C951 C 0.29604 0.87434 0.40435 0.0
C952 C 0.27185 0.94534 0.48635 0.0
C953 C 0.2949 0.95366 0.50925 0.0
C954 C 0.26514 0.92077 0.49079 0.0
C955 C 0.28188 0.90415 0.51877 0.0
C956 C 0.3046 0.9128 0.54532 0.0
C957 C 0.31078 0.9374 0.54037 0.0
C958 C 0.24066 0.91234 0.46239 0.0
C959 C 0.32296 0.89582 0.57592 0.0
H960 H 0.25452 0.83202 0.60499 0.0
H961 H 0.2867 0.82683 0.41774 0.0
H962 H 0.27348 0.88943 0.65233 0.0
H963 H 0.24519 0.89565 0.61036 0.0
H964 H 0.24786 0.86948 0.66034 0.0
H965 H 0.29995 0.86075 0.36461 0.0
H966 H 0.28417 0.88871 0.38393 0.0
H967 H 0.31341 0.88315 0.42177 0.0
H968 H 0.25953 0.95774 0.46194 0.0
H969 H 0.32847 0.94379 0.55917 0.0
H970 H 0.23132 0.90109 0.49738 0.0
H971 H 0.24324 0.90075 0.41767 0.0
H972 H 0.22867 0.92783 0.44947 0.0
H973 H 0.31439 0.88509 0.61338 0.0
H974 H 0.33891 0.90571 0.59901 0.0
H975 H 0.32953 0.88272 0.53803 0.0
C976 C 0.6861 0.76512 0.06257 0.0
C977 C 0.69725 0.77779 0.01389 0.0
C978 C 0.66075 0.76175 0.06133 0.0
C979 C 0.64599 0.77156 0.01066 0.0
C980 C 0.657 0.78518 0.96273 0.0
C981 C 0.68249 0.78799 0.96464 0.0
C982 C 0.64984 0.74691 0.11311 0.0
C983 C 0.64191 0.79626 0.90852 0.0
C984 C 0.58668 0.7374 0.97298 0.0
C985 C 0.57014 0.75088 0.01027 0.0
C986 C 0.61113 0.74449 0.97059 0.0
C987 C 0.61935 0.76587 0.00557 0.0
C988 C 0.60243 0.78047 0.03978 0.0
C989 C 0.57803 0.77276 0.04193 0.0
C990 C 0.62845 0.72835 0.93341 0.0
C991 C 0.61035 0.80359 0.07681 0.0
H992 H 0.69726 0.75717 0.1009 0.0
H993 H 0.69086 0.79802 0.92713 0.0
H994 H 0.63536 0.75743 0.13755 0.0
H995 H 0.64126 0.73023 0.09014 0.0
H996 H 0.66365 0.74143 0.15075 0.0
H997 H 0.65287 0.80826 0.87887 0.0
H998 H 0.63373 0.78161 0.87586 0.0
H999 H 0.6267 0.807 0.92888 0.0
H1000 H 0.58063 0.72074 0.94718 0.0
H1001 H 0.56546 0.78327 0.07101 0.0
H1002 H 0.64202 0.72045 0.96804 0.0
H1003 H 0.63862 0.73913 0.89907 0.0
H1004 H 0.61891 0.71321 0.90538 0.0
H1005 H 0.62192 0.79903 0.12016 0.0
H1006 H 0.5946 0.81448 0.09355 0.0
H1007 H 0.62148 0.81496 0.04599 0.0
loop_
_geom_bond_atom_site_label_1
_geom_bond_atom_site_label_2
_geom_bond_distance
_geom_bond_site_symmetry_2
_ccdc_geom_bond_type
Fe0 O2 1.918 . S
Fe0 O5 1.997 . S
Fe0 O6 2.002 . S
Fe0 O11 1.976 . S
Fe0 O14 1.996 . S
Fe1 O2 1.918 1_556 S
Fe1 O9 1.997 . S
Fe1 O12 1.996 . S
Fe1 O16 1.976 . S
Fe1 O19 2.002 . S
O2 Fe0 1.918 . S
O2 Fe1 1.918 1_554 S
O2 Fe3 1.918 1_554 S
Fe3 O2 1.918 1_556 S
Fe3 O4 2.002 1_556 S
Fe3 O13 1.976 1_556 S
Fe3 O17 1.996 . S
Fe3 O20 1.997 . S
O4 Fe3 2.002 1_554 S
O4 C21 1.295 . S
O5 Fe0 1.997 . S
O5 C21 1.235 . S
O6 Fe0 2.002 . S
O6 C7 1.295 . S
C7 O6 1.295 . S
C7 O9 1.235 1_554 S
C8 O13 1.287 . S
C8 O14 1.255 . S
O9 Fe1 1.997 . S
O9 C7 1.235 1_556 S
C10 O16 1.287 . S
C10 O17 1.255 . S
O11 Fe0 1.976 . S
O11 C18 1.287 . S
O12 Fe1 1.996 . S
O12 C18 1.255 1_556 S
O13 Fe3 1.976 1_554 S
O13 C8 1.287 . S
O14 Fe0 1.996 . S
O14 C8 1.255 . S
C15 O19 1.295 . S
C15 O20 1.235 . S
O16 Fe1 1.976 . S
O16 C10 1.287 . S
O17 Fe3 1.996 . S
O17 C10 1.255 . S
C18 O11 1.287 . S
C18 O12 1.255 1_554 S
O19 Fe1 2.002 . S
O19 C15 1.295 . S
O20 Fe3 1.997 . S
O20 C15 1.235 . S
C21 O4 1.295 . S
C21 O5 1.235 . S
Fe22 O24 1.918 . S
Fe22 O27 1.997 . S
Fe22 O28 2.002 . S
Fe22 O33 1.976 . S
Fe22 O36 1.996 . S
Fe23 O24 1.918 . S
Fe23 O31 1.997 . S
Fe23 O34 1.996 . S
Fe23 O38 1.976 . S
Fe23 O41 2.002 . S
O24 Fe22 1.918 . S
O24 Fe23 1.918 . S
O24 Fe25 1.918 . S
Fe25 O24 1.918 . S
Fe25 O26 2.002 . S
Fe25 O35 1.976 . S
Fe25 O39 1.996 . S
Fe25 O42 1.997 . S
O26 Fe25 2.002 . S
O26 C43 1.295 . S
O27 Fe22 1.997 . S
O27 C43 1.235 . S
O28 Fe22 2.002 . S
O28 C29 1.295 . S
C29 O28 1.295 . S
C29 O31 1.235 . S
C30 O35 1.287 . S
C30 O36 1.255 . S
O31 Fe23 1.997 . S
O31 C29 1.235 . S
C32 O38 1.287 . S
C32 O39 1.255 . S
O33 Fe22 1.976 . S
O33 C40 1.287 . S
O34 Fe23 1.996 . S
O34 C40 1.255 . S
O35 Fe25 1.976 . S
O35 C30 1.287 . S
O36 Fe22 1.996 . S
O36 C30 1.255 . S
C37 O41 1.295 . S
C37 O42 1.235 . S
O38 Fe23 1.976 . S
O38 C32 1.287 . S
O39 Fe25 1.996 . S
O39 C32 1.255 . S
C40 O33 1.287 . S
C40 O34 1.255 . S
O41 Fe23 2.002 . S
O41 C37 1.295 . S
O42 Fe25 1.997 . S
O42 C37 1.235 . S
C43 O26 1.295 . S
C43 O27 1.235 . S
Fe44 O46 1.918 1_556 S
Fe44 O49 1.997 . S
Fe44 O50 2.002 . S
Fe44 O55 1.976 . S
Fe44 O58 1.996 . S
Fe45 O46 1.918 . S
Fe45 O53 1.997 . S
Fe45 O56 1.996 . S
Fe45 O60 1.976 . S
Fe45 O63 2.002 . S
O46 Fe44 1.918 1_554 S
O46 Fe45 1.918 . S
O46 Fe47 1.918 . S
Fe47 O46 1.918 . S
Fe47 O48 2.002 1_554 S
Fe47 O57 1.976 1_554 S
Fe47 O61 1.996 . S
Fe47 O64 1.997 . S
O48 Fe47 2.002 1_556 S
O48 C65 1.295 . S
O49 Fe44 1.997 . S
O49 C65 1.235 . S
O50 Fe44 2.002 . S
O50 C51 1.295 1_556 S
C51 O50 1.295 1_554 S
C51 O53 1.235 . S
C52 O57 1.287 . S
C52 O58 1.255 . S
O53 Fe45 1.997 . S
O53 C51 1.235 . S
C54 O60 1.287 . S
C54 O61 1.255 . S
O55 Fe44 1.976 . S
O55 C62 1.287 1_556 S
O56 Fe45 1.996 . S
O56 C62 1.255 . S
O57 Fe47 1.976 1_556 S
O57 C52 1.287 . S
O58 Fe44 1.996 . S
O58 C52 1.255 . S
C59 O63 1.295 . S
C59 O64 1.235 . S
O60 Fe45 1.976 . S
O60 C54 1.287 . S
O61 Fe47 1.996 . S
O61 C54 1.255 . S
C62 O55 1.287 1_554 S
C62 O56 1.255 . S
O63 Fe45 2.002 . S
O63 C59 1.295 . S
O64 Fe47 1.997 . S
O64 C59 1.235 . S
C65 O48 1.295 . S
C65 O49 1.235 . S
Fe66 O68 1.918 . S
Fe66 O71 1.997 . S
Fe66 O72 2.002 . S
Fe66 O77 1.976 . S
Fe66 O80 1.996 . S
Fe67 O68 1.918 . S
Fe67 O75 1.997 . S
Fe67 O78 1.996 . S
Fe67 O82 1.976 . S
Fe67 O85 2.002 . S
O68 Fe66 1.918 . S
O68 Fe67 1.918 . S
O68 Fe69 1.918 . S
Fe69 O68 1.918 . S
Fe69 O70 2.002 . S
Fe69 O79 1.976 . S
Fe69 O83 1.996 . S
Fe69 O86 1.997 . S
O70 Fe69 2.002 . S
O70 C87 1.295 . S
O71 Fe66 1.997 . S
O71 C87 1.235 . S
O72 Fe66 2.002 . S
O72 C73 1.295 . S
C73 O72 1.295 . S
C73 O75 1.235 . S
C74 O79 1.287 . S
C74 O80 1.255 . S
O75 Fe67 1.997 . S
O75 C73 1.235 . S
C76 O82 1.287 . S
C76 O83 1.255 . S
O77 Fe66 1.976 . S
O77 C84 1.287 . S
O78 Fe67 1.996 . S
O78 C84 1.255 . S
O79 Fe69 1.976 . S
O79 C74 1.287 . S
O80 Fe66 1.996 . S
O80 C74 1.255 . S
C81 O85 1.295 . S
C81 O86 1.235 . S
O82 Fe67 1.976 . S
O82 C76 1.287 . S
O83 Fe69 1.996 . S
O83 C76 1.255 . S
C84 O77 1.287 . S
C84 O78 1.255 . S
O85 Fe67 2.002 . S
O85 C81 1.295 . S
O86 Fe69 1.997 . S
O86 C81 1.235 . S
C87 O70 1.295 . S
C87 O71 1.235 . S
H88 C89 0.949 . S
C89 H88 0.949 . S
C89 C90 1.395 . S
C89 C91 1.391 1_554 S
C90 C89 1.395 . S
C90 C93 1.390 . S
C91 C89 1.391 1_556 S
C91 C95 1.387 . S
C91 C96 1.491 . S
H92 C93 0.950 . S
C93 C90 1.390 . S
C93 H92 0.950 . S
C93 C94 1.378 1_554 S
C94 C93 1.378 1_556 S
C94 C95 1.409 . S
C95 C91 1.387 . S
C95 C94 1.409 . S
C95 H97 0.951 . S
C96 C91 1.491 . S
C96 C98 1.382 1_556 S
C96 C100 1.404 . S
H97 C95 0.951 . S
C98 C96 1.382 1_554 S
C98 C99 1.390 1_554 S
C98 H103 0.949 . S
C99 C98 1.390 1_556 S
C99 C104 1.399 . S
C100 C96 1.404 . S
C100 H101 0.950 . S
C100 C102 1.375 . S
H101 C100 0.950 . S
C102 C100 1.375 . S
C102 C104 1.382 . S
C102 H106 0.950 . S
H103 C98 0.949 . S
C104 C99 1.399 . S
C104 C102 1.382 . S
C104 H105 0.952 . S
H105 C104 0.952 . S
H106 C102 0.950 . S
H107 C108 0.949 . S
C108 H107 0.949 . S
C108 C109 1.395 . S
C108 C110 1.391 . S
C109 C108 1.395 . S
C109 C112 1.390 . S
C110 C108 1.391 . S
C110 C114 1.387 . S
C110 C115 1.491 1_655 S
H111 C112 0.950 . S
C112 C109 1.390 . S
C112 H111 0.950 . S
C112 C113 1.378 . S
C113 C112 1.378 . S
C113 C114 1.409 . S
C114 C110 1.387 . S
C114 C113 1.409 . S
C114 H116 0.951 . S
C115 C110 1.491 1_455 S
C115 C117 1.382 . S
C115 C119 1.404 . S
H116 C114 0.951 . S
C117 C115 1.382 . S
C117 C118 1.390 . S
C117 H122 0.949 . S
C118 C117 1.390 . S
C118 C123 1.399 . S
C119 C115 1.404 . S
C119 H120 0.950 . S
C119 C121 1.375 . S
H120 C119 0.950 . S
C121 C119 1.375 . S
C121 C123 1.382 . S
C121 H125 0.950 . S
H122 C117 0.949 . S
C123 C118 1.399 . S
C123 C121 1.382 . S
C123 H124 0.952 . S
H124 C123 0.952 . S
H125 C121 0.950 . S
H126 C127 0.949 . S
C127 H126 0.949 . S
C127 C128 1.395 . S
C127 C129 1.391 1_556 S
C128 C127 1.395 . S
C128 C131 1.390 1_556 S
C129 C127 1.391 1_554 S
C129 C133 1.387 . S
C129 C134 1.491 . S
H130 C131 0.950 . S
C131 C128 1.390 1_554 S
C131 H130 0.950 . S
C131 C132 1.378 . S
C132 C131 1.378 . S
C132 C133 1.409 . S
C133 C129 1.387 . S
C133 C132 1.409 . S
C133 H135 0.951 . S
C134 C129 1.491 . S
C134 C136 1.382 . S
C134 C138 1.404 . S
H135 C133 0.951 . S
C136 C134 1.382 . S
C136 C137 1.390 . S
C136 H141 0.949 1_554 S
C137 C136 1.390 . S
C137 C142 1.399 . S
C138 C134 1.404 . S
C138 H139 0.950 . S
C138 C140 1.375 . S
H139 C138 0.950 . S
C140 C138 1.375 . S
C140 C142 1.382 . S
C140 H144 0.950 . S
H141 C136 0.949 1_556 S
C142 C137 1.399 . S
C142 C140 1.382 . S
C142 H143 0.952 . S
H143 C142 0.952 . S
H144 C140 0.950 . S
H145 C146 0.946 1_655 S
C146 H145 0.946 1_455 S
C146 C147 1.395 . S
C146 C148 1.395 . S
C147 C146 1.395 . S
C147 C150 1.390 . S
C148 C146 1.395 . S
C148 C152 1.396 . S
C148 C153 1.479 1_455 S
H149 C150 0.950 . S
C150 C147 1.390 . S
C150 H149 0.950 . S
C150 C151 1.378 . S
C151 C150 1.378 . S
C151 C152 1.409 . S
C152 C148 1.396 . S
C152 C151 1.409 . S
C152 H154 0.951 . S
C153 C148 1.479 1_655 S
C153 C155 1.382 . S
C153 C157 1.404 . S
H154 C152 0.951 . S
C155 C153 1.382 . S
C155 C156 1.390 . S
C155 H160 0.949 . S
C156 C155 1.390 . S
C156 C161 1.399 . S
C157 C153 1.404 . S
C157 H158 0.950 . S
C157 C159 1.375 . S
H158 C157 0.950 . S
C159 C157 1.375 . S
C159 C161 1.382 . S
C159 H163 0.950 . S
H160 C155 0.949 . S
C161 C156 1.399 . S
C161 C159 1.382 . S
C161 H162 0.952 . S
H162 C161 0.952 . S
H163 C159 0.950 . S
H164 C165 0.952 . S
C165 H164 0.952 . S
C165 C166 1.395 . S
C165 C167 1.403 . S
C166 C165 1.395 . S
C166 C169 1.390 . S
C167 C165 1.403 . S
C167 C171 1.409 . S
C167 C172 1.458 1_565 S
H168 C169 0.950 . S
C169 C166 1.390 . S
C169 H168 0.950 . S
C169 C170 1.378 . S
C170 C169 1.378 . S
C170 C171 1.409 . S
C171 C167 1.409 . S
C171 C170 1.409 . S
C171 H173 0.951 . S
C172 C167 1.458 1_545 S
C172 C174 1.382 . S
C172 C176 1.404 . S
H173 C171 0.951 . S
C174 C172 1.382 . S
C174 C175 1.390 . S
C174 H179 0.949 . S
C175 C174 1.390 . S
C175 C180 1.399 . S
C176 C172 1.404 . S
C176 H177 0.950 . S
C176 C178 1.375 . S
H177 C176 0.950 . S
C178 C176 1.375 . S
C178 C180 1.382 . S
C178 H182 0.950 . S
H179 C174 0.949 . S
C180 C175 1.399 . S
C180 C178 1.382 . S
C180 H181 0.952 . S
H181 C180 0.952 . S
H182 C178 0.950 . S
H183 C184 0.949 . S
C184 H183 0.949 . S
C184 C185 1.395 . S
C184 C186 1.391 1_554 S
C185 C184 1.395 . S
C185 C188 1.390 . S
C186 C184 1.391 1_556 S
C186 C190 1.387 . S
C186 C191 1.491 . S
H187 C188 0.950 . S
C188 C185 1.390 . S
C188 H187 0.950 . S
C188 C189 1.378 1_554 S
C189 C188 1.378 1_556 S
C189 C190 1.409 . S
C190 C186 1.387 . S
C190 C189 1.409 . S
C190 H192 0.951 . S
C191 C186 1.491 . S
C191 C193 1.382 1_556 S
C191 C195 1.404 . S
H192 C190 0.951 . S
C193 C191 1.382 1_554 S
C193 C194 1.390 1_554 S
C193 H198 0.949 . S
C194 C193 1.390 1_556 S
C194 C199 1.399 . S
C195 C191 1.404 . S
C195 H196 0.950 . S
C195 C197 1.375 . S
H196 C195 0.950 . S
C197 C195 1.375 . S
C197 C199 1.382 . S
C197 H201 0.950 . S
H198 C193 0.949 . S
C199 C194 1.399 . S
C199 C197 1.382 . S
C199 H200 0.952 . S
H200 C199 0.952 . S
H201 C197 0.950 . S
H202 C203 0.949 . S
C203 H202 0.949 . S
C203 C204 1.395 . S
C203 C205 1.391 . S
C204 C203 1.395 . S
C204 C207 1.390 . S
C205 C203 1.391 . S
C205 C209 1.387 . S
C205 C210 1.491 1_545 S
H206 C207 0.950 . S
C207 C204 1.390 . S
C207 H206 0.950 . S
C207 C208 1.378 . S
C208 C207 1.378 . S
C208 C209 1.409 . S
C209 C205 1.387 . S
C209 C208 1.409 . S
C209 H211 0.951 . S
C210 C205 1.491 1_565 S
C210 C212 1.382 . S
C210 C214 1.404 . S
H211 C209 0.951 . S
C212 C210 1.382 . S
C212 C213 1.390 . S
C212 H217 0.949 . S
C213 C212 1.390 . S
C213 C218 1.399 . S
C214 C210 1.404 . S
C214 H215 0.950 . S
C214 C216 1.375 . S
H215 C214 0.950 . S
C216 C214 1.375 . S
C216 C218 1.382 . S
C216 H220 0.950 . S
H217 C212 0.949 . S
C218 C213 1.399 . S
C218 C216 1.382 . S
C218 H219 0.952 . S
H219 C218 0.952 . S
H220 C216 0.950 . S
H221 C222 0.949 . S
C222 H221 0.949 . S
C222 C223 1.395 . S
C222 C224 1.391 1_556 S
C223 C222 1.395 . S
C223 C226 1.390 1_556 S
C224 C222 1.391 1_554 S
C224 C228 1.387 . S
C224 C229 1.491 . S
H225 C226 0.950 . S
C226 C223 1.390 1_554 S
C226 H225 0.950 . S
C226 C227 1.378 . S
C227 C226 1.378 . S
C227 C228 1.409 . S
C228 C224 1.387 . S
C228 C227 1.409 . S
C228 H230 0.951 . S
C229 C224 1.491 . S
C229 C231 1.382 . S
C229 C233 1.404 . S
H230 C228 0.951 . S
C231 C229 1.382 . S
C231 C232 1.390 . S
C231 H236 0.949 1_554 S
C232 C231 1.390 . S
C232 C237 1.399 . S
C233 C229 1.404 . S
C233 H234 0.950 . S
C233 C235 1.375 . S
H234 C233 0.950 . S
C235 C233 1.375 . S
C235 C237 1.382 . S
C235 H239 0.950 . S
H236 C231 0.949 1_556 S
C237 C232 1.399 . S
C237 C235 1.382 . S
C237 H238 0.952 . S
H238 C237 0.952 . S
H239 C235 0.950 . S
C240 C241 1.391 . S
C240 C242 1.394 . S
C240 H256 0.931 . S
C241 C240 1.391 . S
C241 C245 1.376 . S
C242 C240 1.394 . S
C242 C243 1.369 . S
C242 C246 1.531 . S
C243 C242 1.369 . S
C243 C244 1.410 . S
C243 C251 1.503 . S
C244 C243 1.410 . S
C244 C245 1.392 . S
C244 C247 1.511 . S
C245 C241 1.376 . S
C245 C244 1.392 . S
C245 H257 0.929 . S
C246 C242 1.531 . S
C246 H258 0.960 . S
C246 H259 0.962 . S
C246 H260 0.960 . S
C247 C244 1.511 . S
C247 H261 0.961 . S
C247 H262 0.961 . S
C247 H263 0.961 . S
C248 C249 1.370 . S
C248 C250 1.363 . S
C248 H264 0.931 . S
C249 C248 1.370 . S
C249 C253 1.408 . S
C250 C248 1.363 . S
C250 C251 1.370 . S
C250 C254 1.524 . S
C251 C243 1.503 . S
C251 C250 1.370 . S
C251 C252 1.403 . S
C252 C251 1.403 . S
C252 C253 1.404 . S
C252 C255 1.539 . S
C253 C249 1.408 . S
C253 C252 1.404 . S
C253 H265 0.930 . S
C254 C250 1.524 . S
C254 H266 0.956 . S
C254 H267 0.961 . S
C254 H268 0.961 . S
C255 C252 1.539 . S
C255 H269 0.958 . S
C255 H270 0.961 . S
C255 H271 0.960 . S
H256 C240 0.931 . S
H257 C245 0.929 . S
H258 C246 0.960 . S
H259 C246 0.962 . S
H260 C246 0.960 . S
H261 C247 0.961 . S
H262 C247 0.961 . S
H263 C247 0.961 . S
H264 C248 0.931 . S
H265 C253 0.930 . S
H266 C254 0.956 . S
H267 C254 0.961 . S
H268 C254 0.961 . S
H269 C255 0.958 . S
H270 C255 0.961 . S
H271 C255 0.960 . S
C272 C273 1.391 . S
C272 C274 1.394 . S
C272 H288 0.931 . S
C273 C272 1.391 . S
C273 C277 1.376 . S
C274 C272 1.394 . S
C274 C275 1.369 . S
C274 C278 1.531 . S
C275 C274 1.369 . S
C275 C276 1.410 . S
C275 C283 1.503 . S
C276 C275 1.410 . S
C276 C277 1.392 . S
C276 C279 1.511 . S
C277 C273 1.376 . S
C277 C276 1.392 . S
C277 H289 0.929 . S
C278 C274 1.531 . S
C278 H290 0.960 . S
C278 H291 0.962 . S
C278 H292 0.960 . S
C279 C276 1.511 . S
C279 H293 0.961 . S
C279 H294 0.961 . S
C279 H295 0.961 . S
C280 C281 1.370 . S
C280 C282 1.363 . S
C280 H296 0.931 . S
C281 C280 1.370 . S
C281 C285 1.408 . S
C282 C280 1.363 . S
C282 C283 1.370 . S
C282 C286 1.524 . S
C283 C275 1.503 . S
C283 C282 1.370 . S
C283 C284 1.403 . S
C284 C283 1.403 . S
C284 C285 1.404 . S
C284 C287 1.539 . S
C285 C281 1.408 . S
C285 C284 1.404 . S
C285 H297 0.930 . S
C286 C282 1.524 . S
C286 H298 0.956 . S
C286 H299 0.961 . S
C286 H300 0.961 . S
C287 C284 1.539 . S
C287 H301 0.958 . S
C287 H302 0.961 . S
C287 H303 0.960 . S
H288 C272 0.931 . S
H289 C277 0.929 . S
H290 C278 0.960 . S
H291 C278 0.962 . S
H292 C278 0.960 . S
H293 C279 0.961 . S
H294 C279 0.961 . S
H295 C279 0.961 . S
H296 C280 0.931 . S
H297 C285 0.930 . S
H298 C286 0.956 . S
H299 C286 0.961 . S
H300 C286 0.961 . S
H301 C287 0.958 . S
H302 C287 0.961 . S
H303 C287 0.960 . S
C304 C305 1.391 . S
C304 C306 1.394 . S
C304 H320 0.931 . S
C305 C304 1.391 . S
C305 C309 1.376 . S
C306 C304 1.394 . S
C306 C307 1.369 . S
C306 C310 1.531 . S
C307 C306 1.369 . S
C307 C308 1.410 . S
C307 C315 1.503 . S
C308 C307 1.410 . S
C308 C309 1.392 . S
C308 C311 1.511 . S
C309 C305 1.376 . S
C309 C308 1.392 . S
C309 H321 0.929 . S
C310 C306 1.531 . S
C310 H322 0.960 . S
C310 H323 0.962 . S
C310 H324 0.960 . S
C311 C308 1.511 . S
C311 H325 0.961 . S
C311 H326 0.961 . S
C311 H327 0.961 . S
C312 C313 1.370 . S
C312 C314 1.363 . S
C312 H328 0.931 . S
C313 C312 1.370 . S
C313 C317 1.408 . S
C314 C312 1.363 . S
C314 C315 1.370 . S
C314 C318 1.524 . S
C315 C307 1.503 . S
C315 C314 1.370 . S
C315 C316 1.403 . S
C316 C315 1.403 . S
C316 C317 1.404 . S
C316 C319 1.539 . S
C317 C313 1.408 . S
C317 C316 1.404 . S
C317 H329 0.930 . S
C318 C314 1.524 . S
C318 H330 0.956 . S
C318 H331 0.961 . S
C318 H332 0.961 . S
C319 C316 1.539 . S
C319 H333 0.958 . S
C319 H334 0.961 . S
C319 H335 0.960 . S
H320 C304 0.931 . S
H321 C309 0.929 . S
H322 C310 0.960 . S
H323 C310 0.962 . S
H324 C310 0.960 . S
H325 C311 0.961 . S
H326 C311 0.961 . S
H327 C311 0.961 . S
H328 C312 0.931 . S
H329 C317 0.930 . S
H330 C318 0.956 . S
H331 C318 0.961 . S
H332 C318 0.961 . S
H333 C319 0.958 . S
H334 C319 0.961 . S
H335 C319 0.960 . S
C336 C337 1.391 . S
C336 C338 1.394 . S
C336 H352 0.931 . S
C337 C336 1.391 . S
C337 C341 1.376 . S
C338 C336 1.394 . S
C338 C339 1.369 . S
C338 C342 1.531 . S
C339 C338 1.369 . S
C339 C340 1.410 . S
C339 C347 1.503 . S
C340 C339 1.410 . S
C340 C341 1.392 . S
C340 C343 1.511 . S
C341 C337 1.376 . S
C341 C340 1.392 . S
C341 H353 0.929 . S
C342 C338 1.531 . S
C342 H354 0.960 . S
C342 H355 0.962 . S
C342 H356 0.960 . S
C343 C340 1.511 . S
C343 H357 0.961 . S
C343 H358 0.961 . S
C343 H359 0.961 . S
C344 C345 1.370 . S
C344 C346 1.363 . S
C344 H360 0.931 . S
C345 C344 1.370 . S
C345 C349 1.408 . S
C346 C344 1.363 . S
C346 C347 1.370 . S
C346 C350 1.524 . S
C347 C339 1.503 . S
C347 C346 1.370 . S
C347 C348 1.403 . S
C348 C347 1.403 . S
C348 C349 1.404 . S
C348 C351 1.539 . S
C349 C345 1.408 . S
C349 C348 1.404 . S
C349 H361 0.930 . S
C350 C346 1.524 . S
C350 H362 0.956 . S
C350 H363 0.961 . S
C350 H364 0.961 . S
C351 C348 1.539 . S
C351 H365 0.958 . S
C351 H366 0.961 . S
C351 H367 0.960 . S
H352 C336 0.931 . S
H353 C341 0.929 . S
H354 C342 0.960 . S
H355 C342 0.962 . S
H356 C342 0.960 . S
H357 C343 0.961 . S
H358 C343 0.961 . S
H359 C343 0.961 . S
H360 C344 0.931 . S
H361 C349 0.930 . S
H362 C350 0.956 . S
H363 C350 0.961 . S
H364 C350 0.961 . S
H365 C351 0.958 . S
H366 C351 0.961 . S
H367 C351 0.960 . S
C368 C369 1.391 . S
C368 C370 1.394 . S
C368 H384 0.931 . S
C369 C368 1.391 . S
C369 C373 1.376 . S
C370 C368 1.394 . S
C370 C371 1.369 . S
C370 C374 1.531 . S
C371 C370 1.369 . S
C371 C372 1.410 . S
C371 C379 1.503 . S
C372 C371 1.410 . S
C372 C373 1.392 . S
C372 C375 1.511 . S
C373 C369 1.376 . S
C373 C372 1.392 . S
C373 H385 0.929 . S
C374 C370 1.531 . S
C374 H386 0.960 . S
C374 H387 0.962 . S
C374 H388 0.960 . S
C375 C372 1.511 . S
C375 H389 0.961 . S
C375 H390 0.961 . S
C375 H391 0.961 . S
C376 C377 1.370 . S
C376 C378 1.363 . S
C376 H392 0.931 . S
C377 C376 1.370 . S
C377 C381 1.408 . S
C378 C376 1.363 . S
C378 C379 1.370 . S
C378 C382 1.524 . S
C379 C371 1.503 . S
C379 C378 1.370 . S
C379 C380 1.403 . S
C380 C379 1.403 . S
C380 C381 1.404 . S
C380 C383 1.539 . S
C381 C377 1.408 . S
C381 C380 1.404 . S
C381 H393 0.930 . S
C382 C378 1.524 . S
C382 H394 0.956 . S
C382 H395 0.961 . S
C382 H396 0.961 . S
C383 C380 1.539 . S
C383 H397 0.958 . S
C383 H398 0.961 . S
C383 H399 0.960 . S
H384 C368 0.931 . S
H385 C373 0.929 . S
H386 C374 0.960 . S
H387 C374 0.962 . S
H388 C374 0.960 . S
H389 C375 0.961 . S
H390 C375 0.961 . S
H391 C375 0.961 . S
H392 C376 0.931 . S
H393 C381 0.930 . S
H394 C382 0.956 . S
H395 C382 0.961 . S
H396 C382 0.961 . S
H397 C383 0.958 . S
H398 C383 0.961 . S
H399 C383 0.960 . S
C400 C401 1.391 . S
C400 C402 1.394 . S
C400 H416 0.931 . S
C401 C400 1.391 . S
C401 C405 1.376 . S
C402 C400 1.394 . S
C402 C403 1.369 . S
C402 C406 1.531 . S
C403 C402 1.369 . S
C403 C404 1.410 . S
C403 C411 1.503 . S
C404 C403 1.410 . S
C404 C405 1.392 . S
C404 C407 1.511 . S
C405 C401 1.376 . S
C405 C404 1.392 . S
C405 H417 0.929 . S
C406 C402 1.531 . S
C406 H418 0.960 . S
C406 H419 0.962 . S
C406 H420 0.960 . S
C407 C404 1.511 . S
C407 H421 0.961 . S
C407 H422 0.961 . S
C407 H423 0.961 . S
C408 C409 1.370 . S
C408 C410 1.363 . S
C408 H424 0.931 . S
C409 C408 1.370 . S
C409 C413 1.408 . S
C410 C408 1.363 . S
C410 C411 1.370 . S
C410 C414 1.524 . S
C411 C403 1.503 . S
C411 C410 1.370 . S
C411 C412 1.403 . S
C412 C411 1.403 . S
C412 C413 1.404 . S
C412 C415 1.539 . S
C413 C409 1.408 . S
C413 C412 1.404 . S
C413 H425 0.930 . S
C414 C410 1.524 . S
C414 H426 0.956 . S
C414 H427 0.961 . S
C414 H428 0.961 . S
C415 C412 1.539 . S
C415 H429 0.958 . S
C415 H430 0.961 . S
C415 H431 0.960 . S
H416 C400 0.931 . S
H417 C405 0.929 . S
H418 C406 0.960 . S
H419 C406 0.962 . S
H420 C406 0.960 . S
H421 C407 0.961 . S
H422 C407 0.961 . S
H423 C407 0.961 . S
H424 C408 0.931 . S
H425 C413 0.930 . S
H426 C414 0.956 . S
H427 C414 0.961 . S
H428 C414 0.961 . S
H429 C415 0.958 . S
H430 C415 0.961 . S
H431 C415 0.960 . S
C432 C433 1.391 . S
C432 C434 1.394 . S
C432 H448 0.931 . S
C433 C432 1.391 . S
C433 C437 1.376 . S
C434 C432 1.394 . S
C434 C435 1.369 . S
C434 C438 1.531 . S
C435 C434 1.369 . S
C435 C436 1.410 . S
C435 C443 1.503 . S
C436 C435 1.410 . S
C436 C437 1.392 . S
C436 C439 1.511 . S
C437 C433 1.376 . S
C437 C436 1.392 . S
C437 H449 0.929 . S
C438 C434 1.531 . S
C438 H450 0.960 . S
C438 H451 0.962 . S
C438 H452 0.960 . S
C439 C436 1.511 . S
C439 H453 0.961 . S
C439 H454 0.961 . S
C439 H455 0.961 . S
C440 C441 1.370 . S
C440 C442 1.363 . S
C440 H456 0.931 . S
C441 C440 1.370 . S
C441 C445 1.408 . S
C442 C440 1.363 . S
C442 C443 1.370 . S
C442 C446 1.524 . S
C443 C435 1.503 . S
C443 C442 1.370 . S
C443 C444 1.403 . S
C444 C443 1.403 . S
C444 C445 1.404 . S
C444 C447 1.539 . S
C445 C441 1.408 . S
C445 C444 1.404 . S
C445 H457 0.930 . S
C446 C442 1.524 . S
C446 H458 0.956 . S
C446 H459 0.961 . S
C446 H460 0.961 . S
C447 C444 1.539 . S
C447 H461 0.958 . S
C447 H462 0.961 . S
C447 H463 0.960 . S
H448 C432 0.931 . S
H449 C437 0.929 . S
H450 C438 0.960 . S
H451 C438 0.962 . S
H452 C438 0.960 . S
H453 C439 0.961 . S
H454 C439 0.961 . S
H455 C439 0.961 . S
H456 C440 0.931 . S
H457 C445 0.930 . S
H458 C446 0.956 . S
H459 C446 0.961 . S
H460 C446 0.961 . S
H461 C447 0.958 . S
H462 C447 0.961 . S
H463 C447 0.960 . S
C464 C465 1.391 . S
C464 C466 1.394 . S
C464 H480 0.931 . S
C465 C464 1.391 . S
C465 C469 1.376 . S
C466 C464 1.394 . S
C466 C467 1.369 . S
C466 C470 1.531 . S
C467 C466 1.369 . S
C467 C468 1.410 . S
C467 C475 1.503 . S
C468 C467 1.410 . S
C468 C469 1.392 . S
C468 C471 1.511 . S
C469 C465 1.376 . S
C469 C468 1.392 . S
C469 H481 0.929 . S
C470 C466 1.531 . S
C470 H482 0.960 . S
C470 H483 0.962 . S
C470 H484 0.960 . S
C471 C468 1.511 . S
C471 H485 0.961 . S
C471 H486 0.961 . S
C471 H487 0.961 . S
C472 C473 1.370 . S
C472 C474 1.363 . S
C472 H488 0.931 . S
C473 C472 1.370 . S
C473 C477 1.408 . S
C474 C472 1.363 . S
C474 C475 1.370 . S
C474 C478 1.524 . S
C475 C467 1.503 . S
C475 C474 1.370 . S
C475 C476 1.403 . S
C476 C475 1.403 . S
C476 C477 1.404 . S
C476 C479 1.539 . S
C477 C473 1.408 . S
C477 C476 1.404 . S
C477 H489 0.930 . S
C478 C474 1.524 . S
C478 H490 0.956 . S
C478 H491 0.961 . S
C478 H492 0.961 . S
C479 C476 1.539 . S
C479 H493 0.958 . S
C479 H494 0.961 . S
C479 H495 0.960 . S
H480 C464 0.931 . S
H481 C469 0.929 . S
H482 C470 0.960 . S
H483 C470 0.962 . S
H484 C470 0.960 . S
H485 C471 0.961 . S
H486 C471 0.961 . S
H487 C471 0.961 . S
H488 C472 0.931 . S
H489 C477 0.930 . S
H490 C478 0.956 . S
H491 C478 0.961 . S
H492 C478 0.961 . S
H493 C479 0.958 . S
H494 C479 0.961 . S
H495 C479 0.960 . S
C496 C497 1.391 . S
C496 C498 1.394 . S
C496 H512 0.931 . S
C497 C496 1.391 . S
C497 C501 1.376 . S
C498 C496 1.394 . S
C498 C499 1.369 . S
C498 C502 1.531 . S
C499 C498 1.369 . S
C499 C500 1.410 . S
C499 C507 1.503 . S
C500 C499 1.410 . S
C500 C501 1.392 . S
C500 C503 1.511 . S
C501 C497 1.376 . S
C501 C500 1.392 . S
C501 H513 0.929 . S
C502 C498 1.531 . S
C502 H514 0.960 . S
C502 H515 0.962 . S
C502 H516 0.960 . S
C503 C500 1.511 . S
C503 H517 0.961 . S
C503 H518 0.961 . S
C503 H519 0.961 . S
C504 C505 1.370 . S
C504 C506 1.363 . S
C504 H520 0.931 . S
C505 C504 1.370 . S
C505 C509 1.408 . S
C506 C504 1.363 . S
C506 C507 1.370 . S
C506 C510 1.524 . S
C507 C499 1.503 . S
C507 C506 1.370 . S
C507 C508 1.403 . S
C508 C507 1.403 . S
C508 C509 1.404 . S
C508 C511 1.539 . S
C509 C505 1.408 . S
C509 C508 1.404 . S
C509 H521 0.930 . S
C510 C506 1.524 . S
C510 H522 0.956 . S
C510 H523 0.961 . S
C510 H524 0.961 . S
C511 C508 1.539 . S
C511 H525 0.958 . S
C511 H526 0.961 . S
C511 H527 0.960 . S
H512 C496 0.931 . S
H513 C501 0.929 . S
H514 C502 0.960 . S
H515 C502 0.962 . S
H516 C502 0.960 . S
H517 C503 0.961 . S
H518 C503 0.961 . S
H519 C503 0.961 . S
H520 C504 0.931 . S
H521 C509 0.930 . S
H522 C510 0.956 . S
H523 C510 0.961 . S
H524 C510 0.961 . S
H525 C511 0.958 . S
H526 C511 0.961 . S
H527 C511 0.960 . S
C528 C529 1.391 . S
C528 C530 1.394 . S
C528 H544 0.931 . S
C529 C528 1.391 . S
C529 C533 1.376 . S
C530 C528 1.394 . S
C530 C531 1.369 . S
C530 C534 1.531 . S
C531 C530 1.369 . S
C531 C532 1.410 . S
C531 C539 1.503 . S
C532 C531 1.410 . S
C532 C533 1.392 . S
C532 C535 1.511 . S
C533 C529 1.376 . S
C533 C532 1.392 . S
C533 H545 0.929 . S
C534 C530 1.531 . S
C534 H546 0.960 . S
C534 H547 0.962 . S
C534 H548 0.960 . S
C535 C532 1.511 . S
C535 H549 0.961 . S
C535 H550 0.961 . S
C535 H551 0.961 . S
C536 C537 1.370 . S
C536 C538 1.363 . S
C536 H552 0.931 . S
C537 C536 1.370 . S
C537 C541 1.408 . S
C538 C536 1.363 . S
C538 C539 1.370 . S
C538 C542 1.524 . S
C539 C531 1.503 . S
C539 C538 1.370 . S
C539 C540 1.403 . S
C540 C539 1.403 . S
C540 C541 1.404 . S
C540 C543 1.539 . S
C541 C537 1.408 . S
C541 C540 1.404 . S
C541 H553 0.930 . S
C542 C538 1.524 . S
C542 H554 0.956 . S
C542 H555 0.961 . S
C542 H556 0.961 . S
C543 C540 1.539 . S
C543 H557 0.958 . S
C543 H558 0.961 . S
C543 H559 0.960 . S
H544 C528 0.931 . S
H545 C533 0.929 . S
H546 C534 0.960 . S
H547 C534 0.962 . S
H548 C534 0.960 . S
H549 C535 0.961 . S
H550 C535 0.961 . S
H551 C535 0.961 . S
H552 C536 0.931 . S
H553 C541 0.930 . S
H554 C542 0.956 . S
H555 C542 0.961 . S
H556 C542 0.961 . S
H557 C543 0.958 . S
H558 C543 0.961 . S
H559 C543 0.960 . S
C560 C561 1.391 . S
C560 C562 1.394 . S
C560 H576 0.931 . S
C561 C560 1.391 . S
C561 C565 1.376 . S
C562 C560 1.394 . S
C562 C563 1.369 . S
C562 C566 1.531 . S
C563 C562 1.369 . S
C563 C564 1.410 . S
C563 C571 1.503 . S
C564 C563 1.410 . S
C564 C565 1.392 . S
C564 C567 1.511 . S
C565 C561 1.376 . S
C565 C564 1.392 . S
C565 H577 0.929 . S
C566 C562 1.531 . S
C566 H578 0.960 . S
C566 H579 0.962 . S
C566 H580 0.960 . S
C567 C564 1.511 . S
C567 H581 0.961 . S
C567 H582 0.961 . S
C567 H583 0.961 . S
C568 C569 1.370 . S
C568 C570 1.363 . S
C568 H584 0.931 . S
C569 C568 1.370 . S
C569 C573 1.408 . S
C570 C568 1.363 . S
C570 C571 1.370 . S
C570 C574 1.524 . S
C571 C563 1.503 . S
C571 C570 1.370 . S
C571 C572 1.403 . S
C572 C571 1.403 . S
C572 C573 1.404 . S
C572 C575 1.539 . S
C573 C569 1.408 . S
C573 C572 1.404 . S
C573 H585 0.930 . S
C574 C570 1.524 . S
C574 H586 0.956 . S
C574 H587 0.961 . S
C574 H588 0.961 . S
C575 C572 1.539 . S
C575 H589 0.958 . S
C575 H590 0.961 . S
C575 H591 0.960 . S
H576 C560 0.931 . S
H577 C565 0.929 . S
H578 C566 0.960 . S
H579 C566 0.962 . S
H580 C566 0.960 . S
H581 C567 0.961 . S
H582 C567 0.961 . S
H583 C567 0.961 . S
H584 C568 0.931 . S
H585 C573 0.930 . S
H586 C574 0.956 . S
H587 C574 0.961 . S
H588 C574 0.961 . S
H589 C575 0.958 . S
H590 C575 0.961 . S
H591 C575 0.960 . S
C592 C593 1.391 . S
C592 C594 1.394 . S
C592 H608 0.931 . S
C593 C592 1.391 . S
C593 C597 1.376 . S
C594 C592 1.394 . S
C594 C595 1.369 . S
C594 C598 1.531 . S
C595 C594 1.369 . S
C595 C596 1.410 . S
C595 C603 1.503 . S
C596 C595 1.410 . S
C596 C597 1.392 . S
C596 C599 1.511 . S
C597 C593 1.376 . S
C597 C596 1.392 . S
C597 H609 0.929 . S
C598 C594 1.531 . S
C598 H610 0.960 . S
C598 H611 0.962 . S
C598 H612 0.960 . S
C599 C596 1.511 . S
C599 H613 0.961 . S
C599 H614 0.961 . S
C599 H615 0.961 . S
C600 C601 1.370 . S
C600 C602 1.363 . S
C600 H616 0.931 . S
C601 C600 1.370 . S
C601 C605 1.408 . S
C602 C600 1.363 . S
C602 C603 1.370 . S
C602 C606 1.524 . S
C603 C595 1.503 . S
C603 C602 1.370 . S
C603 C604 1.403 . S
C604 C603 1.403 . S
C604 C605 1.404 . S
C604 C607 1.539 . S
C605 C601 1.408 . S
C605 C604 1.404 . S
C605 H617 0.930 . S
C606 C602 1.524 . S
C606 H618 0.956 . S
C606 H619 0.961 . S
C606 H620 0.961 . S
C607 C604 1.539 . S
C607 H621 0.958 . S
C607 H622 0.961 . S
C607 H623 0.960 . S
H608 C592 0.931 . S
H609 C597 0.929 . S
H610 C598 0.960 . S
H611 C598 0.962 . S
H612 C598 0.960 . S
H613 C599 0.961 . S
H614 C599 0.961 . S
H615 C599 0.961 . S
H616 C600 0.931 . S
H617 C605 0.930 . S
H618 C606 0.956 . S
H619 C606 0.961 . S
H620 C606 0.961 . S
H621 C607 0.958 . S
H622 C607 0.961 . S
H623 C607 0.960 . S
C624 C625 1.391 . S
C624 C626 1.394 . S
C624 H640 0.931 . S
C625 C624 1.391 . S
C625 C629 1.376 . S
C626 C624 1.394 . S
C626 C627 1.369 . S
C626 C630 1.531 . S
C627 C626 1.369 . S
C627 C628 1.410 . S
C627 C635 1.503 . S
C628 C627 1.410 . S
C628 C629 1.392 . S
C628 C631 1.511 . S
C629 C625 1.376 . S
C629 C628 1.392 . S
C629 H641 0.929 . S
C630 C626 1.531 . S
C630 H642 0.960 . S
C630 H643 0.962 . S
C630 H644 0.960 . S
C631 C628 1.511 . S
C631 H645 0.961 . S
C631 H646 0.961 . S
C631 H647 0.961 . S
C632 C633 1.370 . S
C632 C634 1.363 . S
C632 H648 0.931 . S
C633 C632 1.370 . S
C633 C637 1.408 . S
C634 C632 1.363 . S
C634 C635 1.370 . S
C634 C638 1.524 . S
C635 C627 1.503 . S
C635 C634 1.370 . S
C635 C636 1.403 . S
C636 C635 1.403 . S
C636 C637 1.404 . S
C636 C639 1.539 . S
C637 C633 1.408 . S
C637 C636 1.404 . S
C637 H649 0.930 . S
C638 C634 1.524 . S
C638 H650 0.956 . S
C638 H651 0.961 . S
C638 H652 0.961 . S
C639 C636 1.539 . S
C639 H653 0.958 . S
C639 H654 0.961 . S
C639 H655 0.960 . S
H640 C624 0.931 . S
H641 C629 0.929 . S
H642 C630 0.960 . S
H643 C630 0.962 . S
H644 C630 0.960 . S
H645 C631 0.961 . S
H646 C631 0.961 . S
H647 C631 0.961 . S
H648 C632 0.931 . S
H649 C637 0.930 . S
H650 C638 0.956 . S
H651 C638 0.961 . S
H652 C638 0.961 . S
H653 C639 0.958 . S
H654 C639 0.961 . S
H655 C639 0.960 . S
C656 C657 1.391 . S
C656 C658 1.394 . S
C656 H672 0.931 . S
C657 C656 1.391 . S
C657 C661 1.376 . S
C658 C656 1.394 . S
C658 C659 1.369 . S
C658 C662 1.531 . S
C659 C658 1.369 . S
C659 C660 1.410 . S
C659 C667 1.503 . S
C660 C659 1.410 . S
C660 C661 1.392 . S
C660 C663 1.511 . S
C661 C657 1.376 . S
C661 C660 1.392 . S
C661 H673 0.929 . S
C662 C658 1.531 . S
C662 H674 0.960 . S
C662 H675 0.962 . S
C662 H676 0.960 . S
C663 C660 1.511 . S
C663 H677 0.961 . S
C663 H678 0.961 . S
C663 H679 0.961 . S
C664 C665 1.370 . S
C664 C666 1.363 . S
C664 H680 0.931 . S
C665 C664 1.370 . S
C665 C669 1.408 . S
C666 C664 1.363 . S
C666 C667 1.370 . S
C666 C670 1.524 . S
C667 C659 1.503 . S
C667 C666 1.370 . S
C667 C668 1.403 . S
C668 C667 1.403 . S
C668 C669 1.404 . S
C668 C671 1.539 . S
C669 C665 1.408 . S
C669 C668 1.404 . S
C669 H681 0.930 . S
C670 C666 1.524 . S
C670 H682 0.956 . S
C670 H683 0.961 . S
C670 H684 0.961 . S
C671 C668 1.539 . S
C671 H685 0.958 . S
C671 H686 0.961 . S
C671 H687 0.960 . S
H672 C656 0.931 . S
H673 C661 0.929 . S
H674 C662 0.960 . S
H675 C662 0.962 . S
H676 C662 0.960 . S
H677 C663 0.961 . S
H678 C663 0.961 . S
H679 C663 0.961 . S
H680 C664 0.931 . S
H681 C669 0.930 . S
H682 C670 0.956 . S
H683 C670 0.961 . S
H684 C670 0.961 . S
H685 C671 0.958 . S
H686 C671 0.961 . S
H687 C671 0.960 . S
C688 C689 1.391 . S
C688 C690 1.394 . S
C688 H704 0.931 . S
C689 C688 1.391 . S
C689 C693 1.376 . S
C690 C688 1.394 . S
C690 C691 1.369 . S
C690 C694 1.531 . S
C691 C690 1.369 . S
C691 C692 1.410 . S
C691 C699 1.503 . S
C692 C691 1.410 . S
C692 C693 1.392 . S
C692 C695 1.511 . S
C693 C689 1.376 . S
C693 C692 1.392 . S
C693 H705 0.929 . S
C694 C690 1.531 . S
C694 H706 0.960 . S
C694 H707 0.962 . S
C694 H708 0.960 . S
C695 C692 1.511 . S
C695 H709 0.961 . S
C695 H710 0.961 . S
C695 H711 0.961 . S
C696 C697 1.370 . S
C696 C698 1.363 . S
C696 H712 0.931 . S
C697 C696 1.370 . S
C697 C701 1.408 . S
C698 C696 1.363 . S
C698 C699 1.370 . S
C698 C702 1.524 . S
C699 C691 1.503 . S
C699 C698 1.370 . S
C699 C700 1.403 . S
C700 C699 1.403 . S
C700 C701 1.404 . S
C700 C703 1.539 . S
C701 C697 1.408 . S
C701 C700 1.404 . S
C701 H713 0.930 . S
C702 C698 1.524 . S
C702 H714 0.956 . S
C702 H715 0.961 . S
C702 H716 0.961 . S
C703 C700 1.539 . S
C703 H717 0.958 . S
C703 H718 0.961 . S
C703 H719 0.960 . S
H704 C688 0.931 . S
H705 C693 0.929 . S
H706 C694 0.960 . S
H707 C694 0.962 . S
H708 C694 0.960 . S
H709 C695 0.961 . S
H710 C695 0.961 . S
H711 C695 0.961 . S
H712 C696 0.931 . S
H713 C701 0.930 . S
H714 C702 0.956 . S
H715 C702 0.961 . S
H716 C702 0.961 . S
H717 C703 0.958 . S
H718 C703 0.961 . S
H719 C703 0.960 . S
C720 C721 1.391 . S
C720 C722 1.394 . S
C720 H736 0.931 . S
C721 C720 1.391 . S
C721 C725 1.376 . S
C722 C720 1.394 . S
C722 C723 1.369 . S
C722 C726 1.531 . S
C723 C722 1.369 . S
C723 C724 1.410 . S
C723 C731 1.503 . S
C724 C723 1.410 . S
C724 C725 1.392 . S
C724 C727 1.511 . S
C725 C721 1.376 . S
C725 C724 1.392 . S
C725 H737 0.929 . S
C726 C722 1.531 . S
C726 H738 0.960 . S
C726 H739 0.962 . S
C726 H740 0.960 . S
C727 C724 1.511 . S
C727 H741 0.961 . S
C727 H742 0.961 . S
C727 H743 0.961 . S
C728 C729 1.370 . S
C728 C730 1.363 . S
C728 H744 0.931 . S
C729 C728 1.370 . S
C729 C733 1.408 . S
C730 C728 1.363 . S
C730 C731 1.370 . S
C730 C734 1.524 . S
C731 C723 1.503 . S
C731 C730 1.370 . S
C731 C732 1.403 . S
C732 C731 1.403 . S
C732 C733 1.404 . S
C732 C735 1.539 . S
C733 C729 1.408 . S
C733 C732 1.404 . S
C733 H745 0.930 . S
C734 C730 1.524 . S
C734 H746 0.956 . S
C734 H747 0.961 . S
C734 H748 0.961 . S
C735 C732 1.539 . S
C735 H749 0.958 . S
C735 H750 0.961 . S
C735 H751 0.960 . S
H736 C720 0.931 . S
H737 C725 0.929 . S
H738 C726 0.960 . S
H739 C726 0.962 . S
H740 C726 0.960 . S
H741 C727 0.961 . S
H742 C727 0.961 . S
H743 C727 0.961 . S
H744 C728 0.931 . S
H745 C733 0.930 . S
H746 C734 0.956 . S
H747 C734 0.961 . S
H748 C734 0.961 . S
H749 C735 0.958 . S
H750 C735 0.961 . S
H751 C735 0.960 . S
C752 C753 1.391 . S
C752 C754 1.394 . S
C752 H768 0.931 . S
C753 C752 1.391 . S
C753 C757 1.376 1_554 S
C754 C752 1.394 . S
C754 C755 1.369 . S
C754 C758 1.531 . S
C755 C754 1.369 . S
C755 C756 1.410 1_554 S
C755 C763 1.503 . S
C756 C755 1.410 1_556 S
C756 C757 1.392 . S
C756 C759 1.511 . S
C757 C753 1.376 1_556 S
C757 C756 1.392 . S
C757 H769 0.929 . S
C758 C754 1.531 . S
C758 H770 0.960 . S
C758 H771 0.962 . S
C758 H772 0.960 . S
C759 C756 1.511 . S
C759 H773 0.961 . S
C759 H774 0.961 . S
C759 H775 0.961 . S
C760 C761 1.370 1_556 S
C760 C762 1.363 . S
C760 H776 0.931 . S
C761 C760 1.370 1_554 S
C761 C765 1.408 . S
C762 C760 1.363 . S
C762 C763 1.370 1_556 S
C762 C766 1.524 . S
C763 C755 1.503 . S
C763 C762 1.370 1_554 S
C763 C764 1.403 . S
C764 C763 1.403 . S
C764 C765 1.404 . S
C764 C767 1.539 . S
C765 C761 1.408 . S
C765 C764 1.404 . S
C765 H777 0.930 . S
C766 C762 1.524 . S
C766 H778 0.956 . S
C766 H779 0.961 . S
C766 H780 0.961 . S
C767 C764 1.539 . S
C767 H781 0.958 . S
C767 H782 0.961 . S
C767 H783 0.960 . S
H768 C752 0.931 . S
H769 C757 0.929 . S
H770 C758 0.960 . S
H771 C758 0.962 . S
H772 C758 0.960 . S
H773 C759 0.961 . S
H774 C759 0.961 . S
H775 C759 0.961 . S
H776 C760 0.931 . S
H777 C765 0.930 . S
H778 C766 0.956 . S
H779 C766 0.961 . S
H780 C766 0.961 . S
H781 C767 0.958 . S
H782 C767 0.961 . S
H783 C767 0.960 . S
C784 C785 1.391 . S
C784 C786 1.394 . S
C784 H800 0.931 . S
C785 C784 1.391 . S
C785 C789 1.376 . S
C786 C784 1.394 . S
C786 C787 1.369 . S
C786 C790 1.531 . S
C787 C786 1.369 . S
C787 C788 1.410 . S
C787 C795 1.503 . S
C788 C787 1.410 . S
C788 C789 1.392 . S
C788 C791 1.511 . S
C789 C785 1.376 . S
C789 C788 1.392 . S
C789 H801 0.929 . S
C790 C786 1.531 . S
C790 H802 0.960 . S
C790 H803 0.962 . S
C790 H804 0.960 . S
C791 C788 1.511 . S
C791 H805 0.961 . S
C791 H806 0.961 . S
C791 H807 0.961 . S
C792 C793 1.370 . S
C792 C794 1.363 . S
C792 H808 0.931 . S
C793 C792 1.370 . S
C793 C797 1.408 . S
C794 C792 1.363 . S
C794 C795 1.370 . S
C794 C798 1.524 . S
C795 C787 1.503 . S
C795 C794 1.370 . S
C795 C796 1.403 . S
C796 C795 1.403 . S
C796 C797 1.404 . S
C796 C799 1.539 . S
C797 C793 1.408 . S
C797 C796 1.404 . S
C797 H809 0.930 . S
C798 C794 1.524 . S
C798 H810 0.956 . S
C798 H811 0.961 . S
C798 H812 0.961 . S
C799 C796 1.539 . S
C799 H813 0.958 . S
C799 H814 0.961 . S
C799 H815 0.960 . S
H800 C784 0.931 . S
H801 C789 0.929 . S
H802 C790 0.960 . S
H803 C790 0.962 . S
H804 C790 0.960 . S
H805 C791 0.961 . S
H806 C791 0.961 . S
H807 C791 0.961 . S
H808 C792 0.931 . S
H809 C797 0.930 . S
H810 C798 0.956 . S
H811 C798 0.961 . S
H812 C798 0.961 . S
H813 C799 0.958 . S
H814 C799 0.961 . S
H815 C799 0.960 . S
C816 C817 1.391 . S
C816 C818 1.394 . S
C816 H832 0.931 . S
C817 C816 1.391 . S
C817 C821 1.376 1_554 S
C818 C816 1.394 . S
C818 C819 1.369 . S
C818 C822 1.531 . S
C819 C818 1.369 . S
C819 C820 1.410 1_554 S
C819 C827 1.503 . S
C820 C819 1.410 1_556 S
C820 C821 1.392 . S
C820 C823 1.511 . S
C821 C817 1.376 1_556 S
C821 C820 1.392 . S
C821 H833 0.929 . S
C822 C818 1.531 . S
C822 H834 0.960 . S
C822 H835 0.962 . S
C822 H836 0.960 . S
C823 C820 1.511 . S
C823 H837 0.961 . S
C823 H838 0.961 . S
C823 H839 0.961 . S
C824 C825 1.370 1_556 S
C824 C826 1.363 . S
C824 H840 0.931 . S
C825 C824 1.370 1_554 S
C825 C829 1.408 . S
C826 C824 1.363 . S
C826 C827 1.370 1_556 S
C826 C830 1.524 . S
C827 C819 1.503 . S
C827 C826 1.370 1_554 S
C827 C828 1.403 . S
C828 C827 1.403 . S
C828 C829 1.404 . S
C828 C831 1.539 . S
C829 C825 1.408 . S
C829 C828 1.404 . S
C829 H841 0.930 . S
C830 C826 1.524 . S
C830 H842 0.956 . S
C830 H843 0.961 . S
C830 H844 0.961 . S
C831 C828 1.539 . S
C831 H845 0.958 . S
C831 H846 0.961 . S
C831 H847 0.960 . S
H832 C816 0.931 . S
H833 C821 0.929 . S
H834 C822 0.960 . S
H835 C822 0.962 . S
H836 C822 0.960 . S
H837 C823 0.961 . S
H838 C823 0.961 . S
H839 C823 0.961 . S
H840 C824 0.931 . S
H841 C829 0.930 . S
H842 C830 0.956 . S
H843 C830 0.961 . S
H844 C830 0.961 . S
H845 C831 0.958 . S
H846 C831 0.961 . S
H847 C831 0.960 . S
C848 C849 1.391 . S
C848 C850 1.394 . S
C848 H864 0.931 . S
C849 C848 1.391 . S
C849 C853 1.376 . S
C850 C848 1.394 . S
C850 C851 1.369 . S
C850 C854 1.531 . S
C851 C850 1.369 . S
C851 C852 1.410 . S
C851 C859 1.503 . S
C852 C851 1.410 . S
C852 C853 1.392 . S
C852 C855 1.511 . S
C853 C849 1.376 . S
C853 C852 1.392 . S
C853 H865 0.929 . S
C854 C850 1.531 . S
C854 H866 0.960 . S
C854 H867 0.962 . S
C854 H868 0.960 . S
C855 C852 1.511 . S
C855 H869 0.961 . S
C855 H870 0.961 . S
C855 H871 0.961 . S
C856 C857 1.370 . S
C856 C858 1.363 . S
C856 H872 0.931 . S
C857 C856 1.370 . S
C857 C861 1.408 . S
C858 C856 1.363 . S
C858 C859 1.370 . S
C858 C862 1.524 . S
C859 C851 1.503 . S
C859 C858 1.370 . S
C859 C860 1.403 . S
C860 C859 1.403 . S
C860 C861 1.404 . S
C860 C863 1.539 . S
C861 C857 1.408 . S
C861 C860 1.404 . S
C861 H873 0.930 . S
C862 C858 1.524 . S
C862 H874 0.956 . S
C862 H875 0.961 . S
C862 H876 0.961 . S
C863 C860 1.539 . S
C863 H877 0.958 . S
C863 H878 0.961 . S
C863 H879 0.960 . S
H864 C848 0.931 . S
H865 C853 0.929 . S
H866 C854 0.960 . S
H867 C854 0.962 . S
H868 C854 0.960 . S
H869 C855 0.961 . S
H870 C855 0.961 . S
H871 C855 0.961 . S
H872 C856 0.931 . S
H873 C861 0.930 . S
H874 C862 0.956 . S
H875 C862 0.961 . S
H876 C862 0.961 . S
H877 C863 0.958 . S
H878 C863 0.961 . S
H879 C863 0.960 . S
C880 C881 1.391 . S
C880 C882 1.394 . S
C880 H896 0.931 . S
C881 C880 1.391 . S
C881 C885 1.376 . S
C882 C880 1.394 . S
C882 C883 1.369 . S
C882 C886 1.531 . S
C883 C882 1.369 . S
C883 C884 1.410 . S
C883 C891 1.503 . S
C884 C883 1.410 . S
C884 C885 1.392 . S
C884 C887 1.511 . S
C885 C881 1.376 . S
C885 C884 1.392 . S
C885 H897 0.929 . S
C886 C882 1.531 . S
C886 H898 0.960 . S
C886 H899 0.962 . S
C886 H900 0.960 . S
C887 C884 1.511 . S
C887 H901 0.961 . S
C887 H902 0.961 . S
C887 H903 0.961 . S
C888 C889 1.370 . S
C888 C890 1.363 . S
C888 H904 0.931 . S
C889 C888 1.370 . S
C889 C893 1.408 . S
C890 C888 1.363 . S
C890 C891 1.370 . S
C890 C894 1.524 . S
C891 C883 1.503 . S
C891 C890 1.370 . S
C891 C892 1.403 . S
C892 C891 1.403 . S
C892 C893 1.404 . S
C892 C895 1.539 . S
C893 C889 1.408 . S
C893 C892 1.404 . S
C893 H905 0.930 . S
C894 C890 1.524 . S
C894 H906 0.956 . S
C894 H907 0.961 . S
C894 H908 0.961 . S
C895 C892 1.539 . S
C895 H909 0.958 . S
C895 H910 0.961 . S
C895 H911 0.960 . S
H896 C880 0.931 . S
H897 C885 0.929 . S
H898 C886 0.960 . S
H899 C886 0.962 . S
H900 C886 0.960 . S
H901 C887 0.961 . S
H902 C887 0.961 . S
H903 C887 0.961 . S
H904 C888 0.931 . S
H905 C893 0.930 . S
H906 C894 0.956 . S
H907 C894 0.961 . S
H908 C894 0.961 . S
H909 C895 0.958 . S
H910 C895 0.961 . S
H911 C895 0.960 . S
C912 C913 1.391 . S
C912 C914 1.394 . S
C912 H928 0.931 . S
C913 C912 1.391 . S
C913 C917 1.376 1_554 S
C914 C912 1.394 . S
C914 C915 1.369 . S
C914 C918 1.531 . S
C915 C914 1.369 . S
C915 C916 1.410 1_554 S
C915 C923 1.503 . S
C916 C915 1.410 1_556 S
C916 C917 1.392 . S
C916 C919 1.511 . S
C917 C913 1.376 1_556 S
C917 C916 1.392 . S
C917 H929 0.929 . S
C918 C914 1.531 . S
C918 H930 0.960 . S
C918 H931 0.962 . S
C918 H932 0.960 . S
C919 C916 1.511 . S
C919 H933 0.961 . S
C919 H934 0.961 . S
C919 H935 0.961 . S
C920 C921 1.370 1_556 S
C920 C922 1.363 . S
C920 H936 0.931 . S
C921 C920 1.370 1_554 S
C921 C925 1.408 . S
C922 C920 1.363 . S
C922 C923 1.370 1_556 S
C922 C926 1.524 . S
C923 C915 1.503 . S
C923 C922 1.370 1_554 S
C923 C924 1.403 . S
C924 C923 1.403 . S
C924 C925 1.404 . S
C924 C927 1.539 . S
C925 C921 1.408 . S
C925 C924 1.404 . S
C925 H937 0.930 . S
C926 C922 1.524 . S
C926 H938 0.956 . S
C926 H939 0.961 . S
C926 H940 0.961 . S
C927 C924 1.539 . S
C927 H941 0.958 . S
C927 H942 0.961 . S
C927 H943 0.960 . S
H928 C912 0.931 . S
H929 C917 0.929 . S
H930 C918 0.960 . S
H931 C918 0.962 . S
H932 C918 0.960 . S
H933 C919 0.961 . S
H934 C919 0.961 . S
H935 C919 0.961 . S
H936 C920 0.931 . S
H937 C925 0.930 . S
H938 C926 0.956 . S
H939 C926 0.961 . S
H940 C926 0.961 . S
H941 C927 0.958 . S
H942 C927 0.961 . S
H943 C927 0.960 . S
C944 C945 1.391 . S
C944 C946 1.394 . S
C944 H960 0.931 . S
C945 C944 1.391 . S
C945 C949 1.376 . S
C946 C944 1.394 . S
C946 C947 1.369 . S
C946 C950 1.531 . S
C947 C946 1.369 . S
C947 C948 1.410 . S
C947 C955 1.503 . S
C948 C947 1.410 . S
C948 C949 1.392 . S
C948 C951 1.511 . S
C949 C945 1.376 . S
C949 C948 1.392 . S
C949 H961 0.929 . S
C950 C946 1.531 . S
C950 H962 0.960 . S
C950 H963 0.962 . S
C950 H964 0.960 . S
C951 C948 1.511 . S
C951 H965 0.961 . S
C951 H966 0.961 . S
C951 H967 0.961 . S
C952 C953 1.370 . S
C952 C954 1.363 . S
C952 H968 0.931 . S
C953 C952 1.370 . S
C953 C957 1.408 . S
C954 C952 1.363 . S
C954 C955 1.370 . S
C954 C958 1.524 . S
C955 C947 1.503 . S
C955 C954 1.370 . S
C955 C956 1.403 . S
C956 C955 1.403 . S
C956 C957 1.404 . S
C956 C959 1.539 . S
C957 C953 1.408 . S
C957 C956 1.404 . S
C957 H969 0.930 . S
C958 C954 1.524 . S
C958 H970 0.956 . S
C958 H971 0.961 . S
C958 H972 0.961 . S
C959 C956 1.539 . S
C959 H973 0.958 . S
C959 H974 0.961 . S
C959 H975 0.960 . S
H960 C944 0.931 . S
H961 C949 0.929 . S
H962 C950 0.960 . S
H963 C950 0.962 . S
H964 C950 0.960 . S
H965 C951 0.961 . S
H966 C951 0.961 . S
H967 C951 0.961 . S
H968 C952 0.931 . S
H969 C957 0.930 . S
H970 C958 0.956 . S
H971 C958 0.961 . S
H972 C958 0.961 . S
H973 C959 0.958 . S
H974 C959 0.961 . S
H975 C959 0.960 . S
C976 C977 1.391 . S
C976 C978 1.394 . S
C976 H992 0.931 . S
C977 C976 1.391 . S
C977 C981 1.376 1_554 S
C978 C976 1.394 . S
C978 C979 1.369 . S
C978 C982 1.531 . S
C979 C978 1.369 . S
C979 C980 1.410 1_554 S
C979 C987 1.503 . S
C980 C979 1.410 1_556 S
C980 C981 1.392 . S
C980 C983 1.511 . S
C981 C977 1.376 1_556 S
C981 C980 1.392 . S
C981 H993 0.929 . S
C982 C978 1.531 . S
C982 H994 0.960 . S
C982 H995 0.962 . S
C982 H996 0.960 . S
C983 C980 1.511 . S
C983 H997 0.961 . S
C983 H998 0.961 . S
C983 H999 0.961 . S
C984 C985 1.370 1_556 S
C984 C986 1.364 1_556 S
C984 H1000 0.931 . S
C985 C984 1.370 1_554 S
C985 C989 1.408 . S
C986 C984 1.364 1_554 S
C986 C987 1.372 . S
C986 C990 1.522 1_554 S
C987 C979 1.503 . S
C987 C986 1.372 . S
C987 C988 1.403 . S
C988 C987 1.403 . S
C988 C989 1.404 . S
C988 C991 1.539 . S
C989 C985 1.408 . S
C989 C988 1.404 . S
C989 H1001 0.930 . S
C990 C986 1.522 1_556 S
C990 H1002 0.956 1_556 S
C990 H1003 0.961 . S
C990 H1004 0.961 . S
C991 C988 1.539 . S
C991 H1005 0.958 . S
C991 H1006 0.961 . S
C991 H1007 0.960 . S
H992 C976 0.931 . S
H993 C981 0.929 . S
H994 C982 0.960 . S
H995 C982 0.962 . S
H996 C982 0.960 . S
H997 C983 0.961 . S
H998 C983 0.961 . S
H999 C983 0.961 . S
H1000 C984 0.931 . S
H1001 C989 0.930 . S
H1002 C990 0.956 1_554 S
H1003 C990 0.961 . S
H1004 C990 0.961 . S
H1005 C991 0.958 . S
H1006 C991 0.961 . S
H1007 C991 0.960 . S
C241 C21 1.530 . S
C249 C151 1.534 . S
C273 C40 1.502 . S
C281 C94 1.498 . S
C313 C109 1.482 . S
C305 C54 1.519 . S
C337 C73 1.532 . S
C345 C128 1.514 . S
C377 C185 1.455 . S
C369 C74 1.494 . S
C409 C204 1.486 . S
C401 C10 1.535 . S
C441 C227 1.547 . S
C433 C37 1.542 . S
C473 C170 1.519 . S
C465 C65 1.518 . S
C497 C52 1.467 . S
C505 C113 1.472 . S
C529 C87 1.508 . S
C537 C132 1.524 . S
C561 C15 1.580 . S
C569 C147 1.545 . S
C601 C90 1.488 . S
C593 C32 1.519 . S
C625 C29 1.541 . S
C633 C223 1.521 . S
C665 C166 1.514 . S
C657 C59 1.540 . S
C697 C189 1.481 . S
C689 C84 1.483 . S
C721 C8 1.483 . S
C729 C208 1.487 . S
C761 C99 1.389 1_554 S
C753 C7 1.492 . S
C793 C118 1.382 . S
C785 C30 1.474 . S
C817 C62 1.489 . S
C825 C137 1.391 . S
C849 C81 1.511 . S
C857 C156 1.406 . S
C889 C175 1.359 . S
C881 C76 1.495 . S
C913 C18 1.487 . S
C921 C194 1.372 1_554 S
C945 C43 1.513 . S
C953 C213 1.404 . S
C977 C51 1.527 . S
C985 C232 1.408 . S
