# Generated by pormake.
# Topology ptr, (4,4)-cn, num edge types: 1
# Building blocks:
#     Node 0, Type 0, BuildingBlock: TATPOV_clean_sbu_0, # of connection points: 4
#     Node 1, Type 0, BuildingBlock: TATPOV_clean_sbu_0, # of connection points: 4
#     Node 2, Type 0, BuildingBlock: TATPOV_clean_sbu_0, # of connection points: 4
#     Node 3, Type 0, BuildingBlock: TATPOV_clean_sbu_0, # of connection points: 4
#     Node 4, Type 0, BuildingBlock: TATPOV_clean_sbu_0, # of connection points: 4
#     Node 5, Type 0, BuildingBlock: TATPOV_clean_sbu_0, # of connection points: 4
#     Node 6, Type 0, BuildingBlock: TATPOV_clean_sbu_0, # of connection points: 4
#     Node 7, Type 0, BuildingBlock: TATPOV_clean_sbu_0, # of connection points: 4
#     Node 8, Type 0, BuildingBlock: TATPOV_clean_sbu_0, # of connection points: 4
#     Node 9, Type 0, BuildingBlock: TATPOV_clean_sbu_0, # of connection points: 4
#     Node 10, Type 0, BuildingBlock: TATPOV_clean_sbu_0, # of connection points: 4
#     Node 11, Type 0, BuildingBlock: TATPOV_clean_sbu_0, # of connection points: 4
#     Node 12, Type 0, BuildingBlock: TATPOV_clean_sbu_0, # of connection points: 4
#     Node 13, Type 0, BuildingBlock: TATPOV_clean_sbu_0, # of connection points: 4
#     Node 14, Type 0, BuildingBlock: TATPOV_clean_sbu_0, # of connection points: 4
#     Node 15, Type 0, BuildingBlock: TATPOV_clean_sbu_0, # of connection points: 4
#     Node 16, Type 0, BuildingBlock: TATPOV_clean_sbu_0, # of connection points: 4
#     Node 17, Type 0, BuildingBlock: TATPOV_clean_sbu_0, # of connection points: 4
#     Node 18, Type 1, BuildingBlock: AZAVOO_clean_linker_0, # of connection points: 4
#     Node 19, Type 1, BuildingBlock: AZAVOO_clean_linker_0, # of connection points: 4
#     Node 20, Type 1, BuildingBlock: AZAVOO_clean_linker_0, # of connection points: 4
#     Node 21, Type 1, BuildingBlock: AZAVOO_clean_linker_0, # of connection points: 4
#     Node 22, Type 1, BuildingBlock: AZAVOO_clean_linker_0, # of connection points: 4
#     Node 23, Type 1, BuildingBlock: AZAVOO_clean_linker_0, # of connection points: 4
#     Node 24, Type 1, BuildingBlock: AZAVOO_clean_linker_0, # of connection points: 4
#     Node 25, Type 1, BuildingBlock: AZAVOO_clean_linker_0, # of connection points: 4
#     Node 26, Type 1, BuildingBlock: AZAVOO_clean_linker_0, # of connection points: 4
#     Node 27, Type 1, BuildingBlock: AZAVOO_clean_linker_0, # of connection points: 4
#     Node 28, Type 1, BuildingBlock: AZAVOO_clean_linker_0, # of connection points: 4
#     Node 29, Type 1, BuildingBlock: AZAVOO_clean_linker_0, # of connection points: 4
#     Node 30, Type 1, BuildingBlock: AZAVOO_clean_linker_0, # of connection points: 4
#     Node 31, Type 1, BuildingBlock: AZAVOO_clean_linker_0, # of connection points: 4
#     Node 32, Type 1, BuildingBlock: AZAVOO_clean_linker_0, # of connection points: 4
#     Node 33, Type 1, BuildingBlock: AZAVOO_clean_linker_0, # of connection points: 4
#     Node 34, Type 1, BuildingBlock: AZAVOO_clean_linker_0, # of connection points: 4
#     Node 35, Type 1, BuildingBlock: AZAVOO_clean_linker_0, # of connection points: 4
#     Edge 36, Type (0, 1), BuildingBlock: TEMPAE_clean_linker_10, # of connection points: 2
#     Edge 37, Type (0, 1), BuildingBlock: TEMPAE_clean_linker_10, # of connection points: 2
#     Edge 38, Type (0, 1), BuildingBlock: TEMPAE_clean_linker_10, # of connection points: 2
#     Edge 39, Type (0, 1), BuildingBlock: TEMPAE_clean_linker_10, # of connection points: 2
#     Edge 40, Type (0, 1), BuildingBlock: TEMPAE_clean_linker_10, # of connection points: 2
#     Edge 41, Type (0, 1), BuildingBlock: TEMPAE_clean_linker_10, # of connection points: 2
#     Edge 42, Type (0, 1), BuildingBlock: TEMPAE_clean_linker_10, # of connection points: 2
#     Edge 43, Type (0, 1), BuildingBlock: TEMPAE_clean_linker_10, # of connection points: 2
#     Edge 44, Type (0, 1), BuildingBlock: TEMPAE_clean_linker_10, # of connection points: 2
#     Edge 45, Type (0, 1), BuildingBlock: TEMPAE_clean_linker_10, # of connection points: 2
#     Edge 46, Type (0, 1), BuildingBlock: TEMPAE_clean_linker_10, # of connection points: 2
#     Edge 47, Type (0, 1), BuildingBlock: TEMPAE_clean_linker_10, # of connection points: 2
#     Edge 48, Type (0, 1), BuildingBlock: TEMPAE_clean_linker_10, # of connection points: 2
#     Edge 49, Type (0, 1), BuildingBlock: TEMPAE_clean_linker_10, # of connection points: 2
#     Edge 50, Type (0, 1), BuildingBlock: TEMPAE_clean_linker_10, # of connection points: 2
#     Edge 51, Type (0, 1), BuildingBlock: TEMPAE_clean_linker_10, # of connection points: 2
#     Edge 52, Type (0, 1), BuildingBlock: TEMPAE_clean_linker_10, # of connection points: 2
#     Edge 53, Type (0, 1), BuildingBlock: TEMPAE_clean_linker_10, # of connection points: 2
#     Edge 54, Type (0, 1), BuildingBlock: TEMPAE_clean_linker_10, # of connection points: 2
#     Edge 55, Type (0, 1), BuildingBlock: TEMPAE_clean_linker_10, # of connection points: 2
#     Edge 56, Type (0, 1), BuildingBlock: TEMPAE_clean_linker_10, # of connection points: 2
#     Edge 57, Type (0, 1), BuildingBlock: TEMPAE_clean_linker_10, # of connection points: 2
#     Edge 58, Type (0, 1), BuildingBlock: TEMPAE_clean_linker_10, # of connection points: 2
#     Edge 59, Type (0, 1), BuildingBlock: TEMPAE_clean_linker_10, # of connection points: 2
#     Edge 60, Type (0, 1), BuildingBlock: TEMPAE_clean_linker_10, # of connection points: 2
#     Edge 61, Type (0, 1), BuildingBlock: TEMPAE_clean_linker_10, # of connection points: 2
#     Edge 62, Type (0, 1), BuildingBlock: TEMPAE_clean_linker_10, # of connection points: 2
#     Edge 63, Type (0, 1), BuildingBlock: TEMPAE_clean_linker_10, # of connection points: 2
#     Edge 64, Type (0, 1), BuildingBlock: TEMPAE_clean_linker_10, # of connection points: 2
#     Edge 65, Type (0, 1), BuildingBlock: TEMPAE_clean_linker_10, # of connection points: 2
#     Edge 66, Type (0, 1), BuildingBlock: TEMPAE_clean_linker_10, # of connection points: 2
#     Edge 67, Type (0, 1), BuildingBlock: TEMPAE_clean_linker_10, # of connection points: 2
#     Edge 68, Type (0, 1), BuildingBlock: TEMPAE_clean_linker_10, # of connection points: 2
#     Edge 69, Type (0, 1), BuildingBlock: TEMPAE_clean_linker_10, # of connection points: 2
#     Edge 70, Type (0, 1), BuildingBlock: TEMPAE_clean_linker_10, # of connection points: 2
#     Edge 71, Type (0, 1), BuildingBlock: TEMPAE_clean_linker_10, # of connection points: 2
#     Edge 72, Type (0, 1), BuildingBlock: TEMPAE_clean_linker_10, # of connection points: 2
#     Edge 73, Type (0, 1), BuildingBlock: TEMPAE_clean_linker_10, # of connection points: 2
#     Edge 74, Type (0, 1), BuildingBlock: TEMPAE_clean_linker_10, # of connection points: 2
#     Edge 75, Type (0, 1), BuildingBlock: TEMPAE_clean_linker_10, # of connection points: 2
#     Edge 76, Type (0, 1), BuildingBlock: TEMPAE_clean_linker_10, # of connection points: 2
#     Edge 77, Type (0, 1), BuildingBlock: TEMPAE_clean_linker_10, # of connection points: 2
#     Edge 78, Type (0, 1), BuildingBlock: TEMPAE_clean_linker_10, # of connection points: 2
#     Edge 79, Type (0, 1), BuildingBlock: TEMPAE_clean_linker_10, # of connection points: 2
#     Edge 80, Type (0, 1), BuildingBlock: TEMPAE_clean_linker_10, # of connection points: 2
#     Edge 81, Type (0, 1), BuildingBlock: TEMPAE_clean_linker_10, # of connection points: 2
#     Edge 82, Type (0, 1), BuildingBlock: TEMPAE_clean_linker_10, # of connection points: 2
#     Edge 83, Type (0, 1), BuildingBlock: TEMPAE_clean_linker_10, # of connection points: 2
#     Edge 84, Type (0, 1), BuildingBlock: TEMPAE_clean_linker_10, # of connection points: 2
#     Edge 85, Type (0, 1), BuildingBlock: TEMPAE_clean_linker_10, # of connection points: 2
#     Edge 86, Type (0, 1), BuildingBlock: TEMPAE_clean_linker_10, # of connection points: 2
#     Edge 87, Type (0, 1), BuildingBlock: TEMPAE_clean_linker_10, # of connection points: 2
#     Edge 88, Type (0, 1), BuildingBlock: TEMPAE_clean_linker_10, # of connection points: 2
#     Edge 89, Type (0, 1), BuildingBlock: TEMPAE_clean_linker_10, # of connection points: 2
#     Edge 90, Type (0, 1), BuildingBlock: TEMPAE_clean_linker_10, # of connection points: 2
#     Edge 91, Type (0, 1), BuildingBlock: TEMPAE_clean_linker_10, # of connection points: 2
#     Edge 92, Type (0, 1), BuildingBlock: TEMPAE_clean_linker_10, # of connection points: 2
#     Edge 93, Type (0, 1), BuildingBlock: TEMPAE_clean_linker_10, # of connection points: 2
#     Edge 94, Type (0, 1), BuildingBlock: TEMPAE_clean_linker_10, # of connection points: 2
#     Edge 95, Type (0, 1), BuildingBlock: TEMPAE_clean_linker_10, # of connection points: 2
#     Edge 96, Type (0, 1), BuildingBlock: TEMPAE_clean_linker_10, # of connection points: 2
#     Edge 97, Type (0, 1), BuildingBlock: TEMPAE_clean_linker_10, # of connection points: 2
#     Edge 98, Type (0, 1), BuildingBlock: TEMPAE_clean_linker_10, # of connection points: 2
#     Edge 99, Type (0, 1), BuildingBlock: TEMPAE_clean_linker_10, # of connection points: 2
#     Edge 100, Type (0, 1), BuildingBlock: TEMPAE_clean_linker_10, # of connection points: 2
#     Edge 101, Type (0, 1), BuildingBlock: TEMPAE_clean_linker_10, # of connection points: 2
#     Edge 102, Type (0, 1), BuildingBlock: TEMPAE_clean_linker_10, # of connection points: 2
#     Edge 103, Type (0, 1), BuildingBlock: TEMPAE_clean_linker_10, # of connection points: 2
#     Edge 104, Type (0, 1), BuildingBlock: TEMPAE_clean_linker_10, # of connection points: 2
#     Edge 105, Type (0, 1), BuildingBlock: TEMPAE_clean_linker_10, # of connection points: 2
#     Edge 106, Type (0, 1), BuildingBlock: TEMPAE_clean_linker_10, # of connection points: 2
#     Edge 107, Type (0, 1), BuildingBlock: TEMPAE_clean_linker_10, # of connection points: 2
# Relax obj value: 0.094
# Max RMSD: 0.270
# Mean RMSD: 0.172
data_MOF--net-ptr--node1-TATPOV_clean_sbu_0--node2-AZAVOO_clean_linker_0--edge1-TEMPAE_clean_linker_10
_symmetry_space_group_name_H-M    P1
_symmetry_Int_Tables_number       1
_symmetry_cell_setting            triclinic
loop_
_symmetry_equiv_pos_as_xyz
'x, y, z'
_cell_length_a     82.098716
_cell_length_b     82.338312
_cell_length_c     68.635769
_cell_angle_alpha  92.388546
_cell_angle_beta   93.171879
_cell_angle_gamma 121.61196
loop_
_atom_site_label
_atom_site_type_symbol
_atom_site_fract_x
_atom_site_fract_y
_atom_site_fract_z
_atom_type_partial_charge
Zn0 Zn 0.95824 0.3558 0.01441 0.0
Zn1 Zn 0.99312 0.36221 0.02487 0.0
O2 O 0.97668 0.33371 0.01492 0.0
O3 O 0.94738 0.32762 0.0084 0.0
O4 O 0.0167 0.36352 0.03726 0.0
O5 O 0.95609 0.36605 0.04053 0.0
O6 O 0.98504 0.37181 0.04858 0.0
C7 C 0.95904 0.32195 0.00927 0.0
C8 C 0.98936 0.38312 0.99166 0.0
O9 O 0.00056 0.38012 0.00245 0.0
O10 O 0.97159 0.37447 0.99406 0.0
C11 C 0.02768 0.35957 0.02868 0.0
O12 O 0.02522 0.35608 0.00955 0.0
C13 C 0.97055 0.37261 0.05289 0.0
Zn14 Zn 0.628 0.58822 0.05345 0.0
Zn15 Zn 0.63126 0.62108 0.06687 0.0
O16 O 0.6584 0.62889 0.06069 0.0
O17 O 0.65562 0.60303 0.0465 0.0
O18 O 0.63552 0.64625 0.07767 0.0
O19 O 0.62174 0.57847 0.08024 0.0
O20 O 0.62012 0.60355 0.08925 0.0
C21 C 0.66582 0.62071 0.05199 0.0
C22 C 0.6036 0.59795 0.03127 0.0
O23 O 0.61273 0.6135 0.04225 0.0
O24 O 0.60661 0.58454 0.03376 0.0
C25 C 0.64658 0.66126 0.06934 0.0
O26 O 0.65394 0.65967 0.05338 0.0
C27 C 0.618 0.58751 0.09277 0.0
Zn28 Zn 0.38296 0.96621 0.02555 0.0
Zn29 Zn 0.38232 0.99848 0.02079 0.0
O30 O 0.35513 0.97847 0.02651 0.0
O31 O 0.35518 0.95249 0.0325 0.0
O32 O 0.37939 0.02079 0.01567 0.0
O33 O 0.3897 0.96619 0.99764 0.0
O34 O 0.39118 0.99348 0.99498 0.0
C35 C 0.34643 0.96137 0.03136 0.0
C36 C 0.40961 0.99885 0.0529 0.0
O37 O 0.40188 0.00718 0.04492 0.0
O38 O 0.40461 0.98198 0.04685 0.0
C39 C 0.36893 0.02422 0.02594 0.0
O40 O 0.36163 0.01421 0.04098 0.0
C41 C 0.39312 0.98013 0.98776 0.0
Zn42 Zn 0.04471 0.64725 0.05935 0.0
Zn43 Zn 0.00949 0.64036 0.04905 0.0
O44 O 0.02659 0.66931 0.05695 0.0
O45 O 0.05594 0.67565 0.06351 0.0
O46 O 0.98524 0.63837 0.03778 0.0
O47 O 0.04522 0.63495 0.0335 0.0
O48 O 0.01618 0.62907 0.02573 0.0
C49 C 0.0443 0.68131 0.06207 0.0
C50 C 0.01458 0.6222 0.08421 0.0
O51 O 0.00305 0.62401 0.07258 0.0
O52 O 0.03229 0.6307 0.08157 0.0
C53 C 0.97903 0.64824 0.04533 0.0
O54 O 0.98729 0.65822 0.06221 0.0
C55 C 0.03041 0.62781 0.02149 0.0
Zn56 Zn 0.37191 0.4142 0.01749 0.0
Zn57 Zn 0.37108 0.38282 0.00323 0.0
O58 O 0.34382 0.37297 0.0109 0.0
O59 O 0.34405 0.3982 0.02306 0.0
O60 O 0.36799 0.35857 0.99106 0.0
O61 O 0.37932 0.42587 0.99179 0.0
O62 O 0.38065 0.40105 0.98113 0.0
C63 C 0.33519 0.38031 0.01872 0.0
C64 C 0.39813 0.40607 0.03916 0.0
O65 O 0.39079 0.39127 0.0271 0.0
O66 O 0.39283 0.41797 0.03776 0.0
C67 C 0.35989 0.34349 0.00013 0.0
O68 O 0.35493 0.34447 0.01781 0.0
C69 C 0.38292 0.41734 0.97853 0.0
Zn70 Zn 0.62705 0.03709 0.04579 0.0
Zn71 Zn 0.6187 0.00045 0.04578 0.0
O72 O 0.64686 0.01772 0.04054 0.0
O73 O 0.65555 0.04794 0.04394 0.0
O74 O 0.61759 0.9756 0.04854 0.0
O75 O 0.61647 0.03464 0.07224 0.0
O76 O 0.61026 0.00518 0.07196 0.0
C77 C 0.65969 0.03536 0.04058 0.0
C78 C 0.59898 0.00939 0.01372 0.0
O79 O 0.60052 0.99671 0.02218 0.0
O80 O 0.60878 0.02679 0.0206 0.0
C81 C 0.62708 0.9714 0.03758 0.0
O82 O 0.63478 0.98171 0.02282 0.0
C83 C 0.61005 0.01914 0.08039 0.0
Zn84 Zn 0.62753 0.70071 0.33633 0.0
Zn85 Zn 0.65938 0.7026 0.35185 0.0
O86 O 0.64175 0.67478 0.34015 0.0
O87 O 0.6157 0.67286 0.32707 0.0
O88 O 0.68118 0.70156 0.36561 0.0
O89 O 0.6228 0.70858 0.36261 0.0
O90 O 0.64954 0.7112 0.37468 0.0
C91 C 0.62521 0.66507 0.33075 0.0
C92 C 0.66285 0.7282 0.31963 0.0
O93 O 0.67104 0.72232 0.3312 0.0
O94 O 0.64494 0.72128 0.31942 0.0
C95 C 0.68764 0.69196 0.35796 0.0
O96 O 0.68114 0.68398 0.34001 0.0
C97 C 0.6351 0.71277 0.37694 0.0
Zn98 Zn 0.28863 0.91416 0.39032 0.0
Zn99 Zn 0.29248 0.94723 0.40354 0.0
O100 O 0.31921 0.95469 0.3958 0.0
O101 O 0.31695 0.92762 0.38665 0.0
O102 O 0.2975 0.97266 0.4146 0.0
O103 O 0.27868 0.9028 0.41555 0.0
O104 O 0.28226 0.93007 0.42658 0.0
C105 C 0.32687 0.94568 0.3896 0.0
C106 C 0.26571 0.92504 0.36688 0.0
O107 O 0.27296 0.93943 0.37951 0.0
O108 O 0.27015 0.91251 0.3684 0.0
C109 C 0.30611 0.98721 0.40483 0.0
O110 O 0.31057 0.98505 0.38721 0.0
C111 C 0.27733 0.91286 0.42906 0.0
Zn112 Zn 0.06059 0.30271 0.36689 0.0
Zn113 Zn 0.06346 0.33627 0.35959 0.0
O114 O 0.03572 0.31887 0.36605 0.0
O115 O 0.03276 0.29155 0.3725 0.0
O116 O 0.0638 0.36006 0.3533 0.0
O117 O 0.06765 0.30086 0.33933 0.0
O118 O 0.07008 0.32821 0.33406 0.0
C119 C 0.02557 0.30186 0.37101 0.0
C120 C 0.08901 0.33545 0.39314 0.0
O121 O 0.08356 0.34471 0.38309 0.0
O122 O 0.08156 0.31766 0.38899 0.0
C123 C 0.05573 0.36631 0.36395 0.0
O124 O 0.04838 0.35776 0.37976 0.0
C125 C 0.07111 0.31394 0.32811 0.0
Zn126 Zn 0.70527 0.96611 0.40174 0.0
Zn127 Zn 0.67383 0.96364 0.38432 0.0
O128 O 0.69042 0.99129 0.39673 0.0
O129 O 0.71619 0.99366 0.41134 0.0
O130 O 0.65295 0.96513 0.36922 0.0
O131 O 0.7122 0.95975 0.37622 0.0
O132 O 0.68526 0.95562 0.36252 0.0
C133 C 0.70655 0.00116 0.40686 0.0
C134 C 0.66889 0.93735 0.41596 0.0
O135 O 0.66108 0.94356 0.40436 0.0
O136 O 0.68686 0.94439 0.41701 0.0
C137 C 0.63557 0.95198 0.36444 0.0
O138 O 0.62918 0.93469 0.36989 0.0
C139 C 0.70043 0.95508 0.36128 0.0
Zn140 Zn 0.04133 0.75495 0.36232 0.0
Zn141 Zn 0.04173 0.72473 0.34626 0.0
O142 O 0.0139 0.71396 0.35276 0.0
O143 O 0.01293 0.73844 0.3652 0.0
O144 O 0.0392 0.70112 0.33312 0.0
O145 O 0.05109 0.76865 0.33783 0.0
O146 O 0.05179 0.74402 0.32525 0.0
C147 C 0.00454 0.72072 0.3601 0.0
C148 C 0.06625 0.74546 0.38439 0.0
O149 O 0.06082 0.73235 0.37058 0.0
O150 O 0.05998 0.75663 0.38411 0.0
C151 C 0.05257 0.69786 0.33136 0.0
O152 O 0.07015 0.7108 0.33853 0.0
C153 C 0.05469 0.76072 0.32393 0.0
Zn154 Zn 0.28409 0.3695 0.3718 0.0
Zn155 Zn 0.28078 0.33617 0.38048 0.0
O156 O 0.3081 0.35307 0.37302 0.0
O157 O 0.3125 0.38128 0.36833 0.0
O158 O 0.28214 0.31378 0.38878 0.0
O159 O 0.27469 0.37132 0.39812 0.0
O160 O 0.27426 0.3453 0.40547 0.0
C161 C 0.31895 0.37028 0.36895 0.0
C162 C 0.25645 0.33594 0.3454 0.0
O163 O 0.26035 0.32642 0.35691 0.0
O164 O 0.26483 0.35397 0.34855 0.0
C165 C 0.28462 0.30319 0.37687 0.0
O166 O 0.28414 0.30547 0.35806 0.0
C167 C 0.272 0.35907 0.41015 0.0
Zn168 Zn 0.29345 0.03186 0.66596 0.0
Zn169 Zn 0.3255 0.03571 0.68368 0.0
O170 O 0.30866 0.0072 0.67394 0.0
O171 O 0.28184 0.00352 0.66057 0.0
O172 O 0.34719 0.03606 0.69936 0.0
O173 O 0.28876 0.04263 0.69054 0.0
O174 O 0.31478 0.04517 0.7047 0.0
C175 C 0.29186 0.99649 0.6653 0.0
C176 C 0.32862 0.05743 0.64794 0.0
O177 O 0.33716 0.05401 0.66178 0.0
O178 O 0.31053 0.0496 0.64675 0.0
C179 C 0.36222 0.0379 0.69286 0.0
O180 O 0.3651 0.04095 0.67438 0.0
C181 C 0.3005 0.04726 0.7055 0.0
Zn182 Zn 0.96407 0.24718 0.71259 0.0
Zn183 Zn 0.96247 0.27782 0.7262 0.0
O184 O 0.9901 0.28858 0.71893 0.0
O185 O 0.99228 0.26414 0.70892 0.0
O186 O 0.96345 0.30139 0.73787 0.0
O187 O 0.95588 0.23538 0.73818 0.0
O188 O 0.95307 0.25951 0.74821 0.0
C189 C -3e-05 0.282 0.71257 0.0
C190 C 0.93767 0.25427 0.68921 0.0
O191 O 0.94333 0.26841 0.70183 0.0
O192 O 0.94415 0.24333 0.69083 0.0
C193 C 0.97911 0.3152 0.74646 0.0
O194 O 0.99433 0.31378 0.748 0.0
C195 C 0.9515 0.24356 0.75105 0.0
Zn196 Zn 0.72751 0.63694 0.69926 0.0
Zn197 Zn 0.72518 0.66743 0.69031 0.0
O198 O 0.6985 0.64794 0.69761 0.0
O199 O 0.70001 0.62353 0.70702 0.0
O200 O 0.72076 0.68797 0.68181 0.0
O201 O 0.73301 0.63377 0.67141 0.0
O202 O 0.73369 0.66017 0.66554 0.0
C203 C 0.69059 0.6316 0.70436 0.0
C204 C 0.75383 0.6723 0.7235 0.0
O205 O 0.7452 0.6791 0.71415 0.0
O206 O 0.74959 0.6553 0.7193 0.0
C207 C 0.71863 0.69887 0.69364 0.0
O208 O 0.72102 0.69806 0.71258 0.0
C209 C 0.73568 0.64642 0.6599 0.0
Zn210 Zn 0.37454 0.30405 0.73098 0.0
Zn211 Zn 0.34181 0.29986 0.71476 0.0
O212 O 0.35867 0.32823 0.72497 0.0
O213 O 0.38631 0.33244 0.73631 0.0
O214 O 0.31939 0.29935 0.70048 0.0
O215 O 0.3783 0.2932 0.70592 0.0
O216 O 0.35187 0.29059 0.69283 0.0
C217 C 0.37578 0.33917 0.73275 0.0
C218 C 0.34007 0.27817 0.75001 0.0
O219 O 0.33106 0.28147 0.73657 0.0
O220 O 0.35818 0.28625 0.75069 0.0
C221 C 0.31194 0.30803 0.70804 0.0
O222 O 0.31784 0.31585 0.7261 0.0
C223 C 0.36612 0.28854 0.69135 0.0
Zn224 Zn 0.72262 0.08775 0.68646 0.0
Zn225 Zn 0.71414 0.05392 0.67032 0.0
O226 O 0.68864 0.04849 0.68015 0.0
O227 O 0.69614 0.07574 0.69576 0.0
O228 O 0.70654 0.02814 0.65753 0.0
O229 O 0.72824 0.09885 0.66036 0.0
O230 O 0.72431 0.07183 0.6479 0.0
C231 C 0.68393 0.0583 0.69055 0.0
C232 C 0.74541 0.07416 0.70435 0.0
O233 O 0.73457 0.05927 0.69274 0.0
O234 O 0.74374 0.08859 0.70382 0.0
C235 C 0.69774 0.01341 0.66703 0.0
O236 O 0.69444 0.01554 0.68519 0.0
C237 C 0.72876 0.089 0.64602 0.0
Zn238 Zn 0.94593 0.70204 0.70687 0.0
Zn239 Zn 0.93946 0.66688 0.71261 0.0
O240 O 0.96751 0.68272 0.70642 0.0
O241 O 0.97359 0.7116 0.702 0.0
O242 O 0.93752 0.64238 0.71928 0.0
O243 O 0.93866 0.70427 0.73413 0.0
O244 O 0.93256 0.67525 0.73792 0.0
C245 C 0.9791 0.69983 0.70248 0.0
C246 C 0.91662 0.671 0.67893 0.0
O247 O 0.92044 0.66026 0.68849 0.0
O248 O 0.92524 0.68877 0.6841 0.0
C249 C 0.94447 0.63477 0.70881 0.0
O250 O 0.95133 0.64204 0.69234 0.0
C251 C 0.93304 0.69022 0.74451 0.0
H252 H 0.17008 0.33722 0.01734 0.0
H253 H 0.23727 0.25842 0.17553 0.0
H254 H 0.15821 0.34036 0.11965 0.0
H255 H 0.13814 0.35029 0.1034 0.0
H256 H 0.08753 0.29594 0.1127 0.0
H257 H 0.10806 0.28561 0.12758 0.0
H258 H 0.18614 0.33524 0.10099 0.0
H259 H 0.18455 0.34115 0.06652 0.0
H260 H 0.12946 0.28811 0.05629 0.0
H261 H 0.13137 0.28224 0.09076 0.0
H262 H 0.2113 0.32757 0.13222 0.0
H263 H 0.23654 0.33405 0.11103 0.0
H264 H 0.19568 0.28547 0.0714 0.0
H265 H 0.17033 0.27882 0.09306 0.0
H266 H 0.20529 0.31802 0.17276 0.0
H267 H 0.22858 0.31041 0.18598 0.0
H268 H 0.19927 0.2571 0.14939 0.0
H269 H 0.1759 0.26476 0.1365 0.0
H270 H 0.17299 0.32375 0.1892 0.0
H271 H 0.18111 0.32182 0.22344 0.0
H272 H 0.16519 0.26334 0.21028 0.0
H273 H 0.15593 0.26494 0.17605 0.0
H274 H 0.14976 0.33368 0.16561 0.0
H275 H 0.13324 0.33687 0.19283 0.0
H276 H 0.102 0.27561 0.1959 0.0
H277 H 0.11857 0.27252 0.16871 0.0
O278 O 0.17041 0.33459 0.03093 0.0
O279 O 0.14201 0.30733 0.02649 0.0
O280 O 0.24271 0.28929 0.18918 0.0
O281 O 0.22831 0.26182 0.17049 0.0
C282 C 0.14739 0.30547 0.13187 0.0
C283 C 0.15997 0.30449 0.11923 0.0
C284 C 0.17366 0.30027 0.12653 0.0
C285 C 0.17427 0.29618 0.14624 0.0
C286 C 0.16145 0.29673 0.15884 0.0
C287 C 0.14799 0.30137 0.15161 0.0
C288 C 0.13465 0.31215 0.12455 0.0
C289 C 0.14277 0.33059 0.11816 0.0
C290 C 0.1312 0.33632 0.10904 0.0
C291 C 0.1111 0.32392 0.10655 0.0
C292 C 0.10294 0.30575 0.1139 0.0
C293 C 0.11462 0.29988 0.12268 0.0
C294 C 0.15895 0.30822 0.09832 0.0
C295 C 0.17381 0.32486 0.09125 0.0
C296 C 0.17283 0.32823 0.07157 0.0
C297 C 0.1569 0.31508 0.05863 0.0
C298 C 0.14195 0.29851 0.06584 0.0
C299 C 0.14299 0.29512 0.08552 0.0
C300 C 0.18902 0.30265 0.11427 0.0
C301 C 0.20786 0.31802 0.11923 0.0
C302 C 0.22226 0.3217 0.1071 0.0
C303 C 0.21808 0.3102 0.08961 0.0
C304 C 0.19925 0.29457 0.08477 0.0
C305 C 0.18483 0.29074 0.09712 0.0
C306 C 0.18881 0.29186 0.15381 0.0
C307 C 0.20388 0.30467 0.16768 0.0
C308 C 0.21719 0.30031 0.17517 0.0
C309 C 0.21575 0.28311 0.16878 0.0
C310 C 0.20077 0.27044 0.15466 0.0
C311 C 0.18743 0.27479 0.14724 0.0
C312 C 0.16366 0.29444 0.18008 0.0
C313 C 0.17046 0.31025 0.1938 0.0
C314 C 0.1752 0.30917 0.21333 0.0
C315 C 0.17372 0.29242 0.21944 0.0
C316 C 0.16639 0.27638 0.20589 0.0
C317 C 0.16112 0.2773 0.1864 0.0
C318 C 0.13536 0.30287 0.16523 0.0
C319 C 0.13895 0.32091 0.1718 0.0
C320 C 0.12966 0.32273 0.18742 0.0
C321 C 0.11647 0.3065 0.19652 0.0
C322 C 0.11199 0.28833 0.18906 0.0
C323 C 0.12144 0.28654 0.17357 0.0
C324 C 0.15591 0.31869 0.03772 0.0
C325 C 0.22977 0.27834 0.1768 0.0
H326 H 0.65102 0.82174 0.03763 0.0
H327 H 0.74117 0.98576 0.19934 0.0
H328 H 0.66504 0.81709 0.14236 0.0
H329 H 0.65628 0.7853 0.12907 0.0
H330 H 0.71621 0.803 0.13425 0.0
H331 H 0.72477 0.83478 0.14805 0.0
H332 H 0.6631 0.84705 0.12091 0.0
H333 H 0.65268 0.83555 0.08637 0.0
H334 H 0.70832 0.84379 0.07821 0.0
H335 H 0.71862 0.85547 0.11274 0.0
H336 H 0.67173 0.88293 0.15143 0.0
H337 H 0.66093 0.8991 0.12993 0.0
H338 H 0.70495 0.90946 0.09191 0.0
H339 H 0.71647 0.89403 0.11405 0.0
H340 H 0.68549 0.89046 0.19119 0.0
H341 H 0.69227 0.92148 0.20498 0.0
H342 H 0.74275 0.94987 0.17309 0.0
H343 H 0.73598 0.91871 0.15967 0.0
H344 H 0.68467 0.85573 0.20783 0.0
H345 H 0.68718 0.8696 0.24077 0.0
H346 H 0.74472 0.91591 0.2332 0.0
H347 H 0.74209 0.9018 0.20012 0.0
H348 H 0.67694 0.81978 0.18287 0.0
H349 H 0.67798 0.79915 0.20676 0.0
H350 H 0.73874 0.83942 0.22051 0.0
H351 H 0.73773 0.85988 0.19594 0.0
O352 O 0.65545 0.82638 0.05124 0.0
O353 O 0.68423 0.83072 0.04785 0.0
O354 O 0.71216 0.95799 0.21032 0.0
O355 O 0.73803 0.97332 0.19391 0.0
C356 C 0.70057 0.84767 0.15325 0.0
C357 C 0.69799 0.85918 0.14024 0.0
C358 C 0.70079 0.8769 0.14732 0.0
C359 C 0.70699 0.88347 0.16724 0.0
C360 C 0.70956 0.87194 0.18028 0.0
C361 C 0.70626 0.85397 0.17333 0.0
C362 C 0.69553 0.82822 0.14601 0.0
C363 C 0.67626 0.81407 0.14065 0.0
C364 C 0.67131 0.79597 0.13298 0.0
C365 C 0.68557 0.79168 0.1304 0.0
C366 C 0.70488 0.80581 0.13619 0.0
C367 C 0.70982 0.82396 0.14398 0.0
C368 C 0.69165 0.85222 0.11926 0.0
C369 C 0.67304 0.84647 0.1116 0.0
C370 C 0.66712 0.83985 0.09188 0.0
C371 C 0.67968 0.83878 0.07952 0.0
C372 C 0.6983 0.84446 0.08732 0.0
C373 C 0.70422 0.85112 0.10702 0.0
C374 C 0.69504 0.8875 0.13446 0.0
C375 C 0.67935 0.88903 0.13871 0.0
C376 C 0.67309 0.8981 0.1264 0.0
C377 C 0.68216 0.90539 0.1094 0.0
C378 C 0.69781 0.90385 0.105 0.0
C379 C 0.70435 0.89511 0.11759 0.0
C380 C 0.71036 0.90234 0.17459 0.0
C381 C 0.69802 0.9034 0.18723 0.0
C382 C 0.70191 0.92113 0.19506 0.0
C383 C 0.71812 0.93817 0.19021 0.0
C384 C 0.73019 0.93704 0.17718 0.0
C385 C 0.72633 0.91927 0.16943 0.0
C386 C 0.71317 0.87779 0.20158 0.0
C387 C 0.69808 0.86847 0.21354 0.0
C388 C 0.69952 0.87646 0.23235 0.0
C389 C 0.71606 0.89397 0.23945 0.0
C390 C 0.73171 0.90254 0.22797 0.0
C391 C 0.7303 0.89444 0.20919 0.0
C392 C 0.70732 0.84118 0.18736 0.0
C393 C 0.69059 0.82395 0.19062 0.0
C394 C 0.6912 0.81219 0.20431 0.0
C395 C 0.70849 0.81759 0.21531 0.0
C396 C 0.72526 0.83491 0.21215 0.0
C397 C 0.72469 0.84656 0.19816 0.0
C398 C 0.67334 0.83173 0.05858 0.0
C399 C 0.72251 0.95704 0.19877 0.0
H400 H 0.12564 0.84938 0.02845 0.0
H401 H 0.29418 0.97635 0.17855 0.0
H402 H 0.11999 0.85912 0.12888 0.0
H403 H 0.09315 0.82792 0.11458 0.0
H404 H 0.11801 0.79997 0.14495 0.0
H405 H 0.14486 0.83096 0.1586 0.0
H406 H 0.15548 0.89156 0.10564 0.0
H407 H 0.14288 0.87858 0.07174 0.0
H408 H 0.14518 0.82851 0.08309 0.0
H409 H 0.15809 0.8418 0.11681 0.0
H410 H 0.20061 0.92715 0.1253 0.0
H411 H 0.22575 0.94012 0.10241 0.0
H412 H 0.2208 0.88533 0.09515 0.0
H413 H 0.19648 0.87274 0.11854 0.0
H414 H 0.19881 0.93434 0.17282 0.0
H415 H 0.23083 0.96282 0.18106 0.0
H416 H 0.25631 0.93047 0.16395 0.0
H417 H 0.22423 0.90205 0.15601 0.0
H418 H 0.16609 0.90512 0.20171 0.0
H419 H 0.17928 0.91573 0.23607 0.0
H420 H 0.22038 0.89909 0.22682 0.0
H421 H 0.20718 0.88857 0.19281 0.0
H422 H 0.12534 0.86729 0.17939 0.0
H423 H 0.10626 0.84832 0.20526 0.0
H424 H 0.14921 0.83458 0.22056 0.0
H425 H 0.16814 0.8536 0.19486 0.0
O426 O 0.13087 0.85437 0.04184 0.0
O427 O 0.13192 0.82873 0.04858 0.0
O428 O 0.26754 0.98124 0.18428 0.0
O429 O 0.28135 0.96529 0.17547 0.0
C430 C 0.15272 0.86592 0.14968 0.0
C431 C 0.16447 0.87522 0.1345 0.0
C432 C 0.18313 0.89144 0.13905 0.0
C433 C 0.18971 0.89897 0.15875 0.0
C434 C 0.178 0.88969 0.17394 0.0
C435 C 0.15961 0.873 0.16943 0.0
C436 C 0.13437 0.84732 0.14482 0.0
C437 C 0.11932 0.8462 0.13284 0.0
C438 C 0.10408 0.82843 0.12464 0.0
C439 C 0.10353 0.81156 0.12865 0.0
C440 C 0.11789 0.8127 0.14182 0.0
C441 C 0.13323 0.83041 0.14971 0.0
C442 C 0.15751 0.86754 0.11373 0.0
C443 C 0.15335 0.87784 0.10073 0.0
C444 C 0.14611 0.87037 0.0814 0.0
C445 C 0.14292 0.85246 0.07473 0.0
C446 C 0.14739 0.84231 0.08776 0.0
C447 C 0.15471 0.84984 0.10704 0.0
C448 C 0.19663 0.89896 0.12353 0.0
C449 C 0.20484 0.91792 0.11861 0.0
C450 C 0.21913 0.92529 0.10558 0.0
C451 C 0.22505 0.91364 0.09698 0.0
C452 C 0.21627 0.89449 0.10136 0.0
C453 C 0.20235 0.88729 0.11466 0.0
C454 C 0.20921 0.9162 0.16366 0.0
C455 C 0.21134 0.93345 0.17088 0.0
C456 C 0.22963 0.94968 0.17555 0.0
C457 C 0.24614 0.94893 0.1731 0.0
C458 C 0.24392 0.93156 0.16596 0.0
C459 C 0.22562 0.91533 0.16135 0.0
C460 C 0.18586 0.89633 0.19471 0.0
C461 C 0.17799 0.90386 0.20716 0.0
C462 C 0.18548 0.90986 0.22674 0.0
C463 C 0.20103 0.90848 0.23406 0.0
C464 C 0.20872 0.90077 0.22152 0.0
C465 C 0.20117 0.89471 0.20209 0.0
C466 C 0.14822 0.86201 0.18542 0.0
C467 C 0.13062 0.86025 0.18842 0.0
C468 C 0.11972 0.84933 0.20311 0.0
C469 C 0.12627 0.84001 0.21501 0.0
C470 C 0.14392 0.84184 0.21189 0.0
C471 C 0.15476 0.8527 0.19722 0.0
C472 C 0.13493 0.84441 0.05429 0.0
C473 C 0.26561 0.96616 0.17798 0.0
H474 H 0.30825 0.17462 0.03627 0.0
H475 H 0.30917 0.03748 0.88241 0.0
H476 H 0.28044 0.16748 0.93357 0.0
H477 H 0.2897 0.19986 0.94592 0.0
H478 H 0.34273 0.22306 0.91837 0.0
H479 H 0.33353 0.1907 0.90644 0.0
H480 H 0.2804 0.13358 0.95845 0.0
H481 H 0.28682 0.14665 0.99261 0.0
H482 H 0.34384 0.1913 0.98083 0.0
H483 H 0.33731 0.17793 0.94679 0.0
H484 H 0.27908 0.09538 0.9402 0.0
H485 H 0.2887 0.0785 0.96214 0.0
H486 H 0.34769 0.12563 0.96456 0.0
H487 H 0.33789 0.14239 0.94296 0.0
H488 H 0.26658 0.08714 0.89373 0.0
H489 H 0.26426 0.0568 0.88506 0.0
H490 H 0.32588 0.08485 0.8966 0.0
H491 H 0.32799 0.11512 0.90502 0.0
H492 H 0.26457 0.11139 0.86471 0.0
H493 H 0.2622 0.09747 0.83142 0.0
H494 H 0.32364 0.12259 0.83638 0.0
H495 H 0.32582 0.13606 0.86957 0.0
H496 H 0.27049 0.15679 0.88461 0.0
H497 H 0.26943 0.17536 0.85791 0.0
H498 H 0.32444 0.18635 0.84245 0.0
H499 H 0.32549 0.16815 0.86913 0.0
O500 O 0.30604 0.16963 0.02273 0.0
O501 O 0.33518 0.19235 0.01589 0.0
O502 O 0.27806 0.03556 0.87989 0.0
O503 O 0.30967 0.04927 0.88575 0.0
C504 C 0.30231 0.1572 0.91427 0.0
C505 C 0.3042 0.14696 0.9294 0.0
C506 C 0.3027 0.12933 0.92478 0.0
C507 C 0.29872 0.12163 0.90512 0.0
C508 C 0.29692 0.13186 0.89003 0.0
C509 C 0.2987 0.14965 0.89456 0.0
C510 C 0.30629 0.17677 0.91907 0.0
C511 C 0.29387 0.17961 0.92991 0.0
C512 C 0.29918 0.19809 0.93692 0.0
C513 C 0.31702 0.21396 0.93324 0.0
C514 C 0.32901 0.21108 0.92164 0.0
C515 C 0.32369 0.19265 0.91463 0.0
C516 C 0.30831 0.15491 0.95014 0.0
C517 C 0.29427 0.14616 0.9633 0.0
C518 C 0.29797 0.15368 0.98279 0.0
C519 C 0.31582 0.17007 0.98944 0.0
C520 C 0.32993 0.1787 0.97618 0.0
C521 C 0.32621 0.17114 0.95672 0.0
C522 C 0.30778 0.12012 0.94008 0.0
C523 C 0.294 0.10216 0.94581 0.0
C524 C 0.29956 0.09251 0.9582 0.0
C525 C 0.31899 0.10069 0.96504 0.0
C526 C 0.33259 0.11903 0.95982 0.0
C527 C 0.32703 0.12864 0.94746 0.0
C528 C 0.29742 0.10324 0.9001 0.0
C529 C 0.27954 0.08667 0.89437 0.0
C530 C 0.27827 0.06938 0.88944 0.0
C531 C 0.29489 0.06839 0.89017 0.0
C532 C 0.3128 0.0851 0.89591 0.0
C533 C 0.31405 0.10238 0.90078 0.0
C534 C 0.29538 0.12481 0.86939 0.0
C535 C 0.27749 0.11402 0.85845 0.0
C536 C 0.27616 0.10605 0.83957 0.0
C537 C 0.29276 0.10907 0.83137 0.0
C538 C 0.31067 0.12026 0.84227 0.0
C539 C 0.31194 0.12792 0.86118 0.0
C540 C 0.29791 0.16086 0.87855 0.0
C541 C 0.28225 0.16319 0.87538 0.0
C542 C 0.28167 0.17378 0.86019 0.0
C543 C 0.29671 0.18202 0.84792 0.0
C544 C 0.31242 0.17976 0.85134 0.0
C545 C 0.31307 0.16939 0.86658 0.0
C546 C 0.31967 0.17807 0.01012 0.0
C547 C 0.29362 0.05006 0.88495 0.0
H548 H 0.83703 0.16394 0.03495 0.0
H549 H 0.74449 0.99248 0.88362 0.0
H550 H 0.84729 0.16428 0.9284 0.0
H551 H 0.8723 0.19656 0.94177 0.0
H552 H 0.91313 0.17865 0.94697 0.0
H553 H 0.88802 0.14629 0.93283 0.0
H554 H 0.81637 0.13491 0.95243 0.0
H555 H 0.82058 0.14796 0.9863 0.0
H556 H 0.86775 0.13946 0.99831 0.0
H557 H 0.86324 0.12625 0.96445 0.0
H558 H 0.78441 0.09534 0.92186 0.0
H559 H 0.75884 0.08165 0.94326 0.0
H560 H 0.79684 0.07846 0.98714 0.0
H561 H 0.8216 0.08973 0.9642 0.0
H562 H 0.78681 0.08728 0.88404 0.0
H563 H 0.76021 0.05518 0.87243 0.0
H564 H 0.78663 0.03079 0.90681 0.0
H565 H 0.81334 0.06301 0.91809 0.0
H566 H 0.8189 0.1251 0.87033 0.0
H567 H 0.80677 0.11491 0.83599 0.0
H568 H 0.81963 0.07041 0.83811 0.0
H569 H 0.83202 0.08087 0.87279 0.0
H570 H 0.85106 0.16037 0.89176 0.0
H571 H 0.87163 0.18154 0.86801 0.0
H572 H 0.8913 0.14317 0.85559 0.0
H573 H 0.87147 0.12244 0.88026 0.0
O574 O 0.83555 0.15866 0.02164 0.0
O575 O 0.85978 0.1541 0.02702 0.0
O576 O 0.74197 0.01863 0.87044 0.0
O577 O 0.7549 0.00536 0.88794 0.0
C578 C 0.8503 0.13341 0.92237 0.0
C579 C 0.837 0.12184 0.93544 0.0
C580 C 0.82087 0.10373 0.92856 0.0
C581 C 0.81853 0.09697 0.90867 0.0
C582 C 0.83143 0.10892 0.89543 0.0
C583 C 0.84736 0.12715 0.9023 0.0
C584 C 0.86596 0.15309 0.92945 0.0
C585 C 0.86171 0.16741 0.93209 0.0
C586 C 0.87595 0.18576 0.93969 0.0
C587 C 0.89457 0.18998 0.9452 0.0
C588 C 0.89885 0.17564 0.94268 0.0
C589 C 0.88463 0.1573 0.93461 0.0
C590 C 0.8394 0.12951 0.95608 0.0
C591 C 0.82752 0.13578 0.96245 0.0
C592 C 0.82999 0.14327 0.98178 0.0
C593 C 0.84449 0.14473 0.99503 0.0
C594 C 0.85643 0.13851 0.98851 0.0
C595 C 0.8539 0.13096 0.96919 0.0
C596 C 0.80492 0.09344 0.94129 0.0
C597 C 0.78702 0.09097 0.93576 0.0
C598 C 0.77252 0.08362 0.94837 0.0
C599 C 0.7758 0.07945 0.96735 0.0
C600 C 0.79361 0.08139 0.97269 0.0
C601 C 0.8079 0.08801 0.95964 0.0
C602 C 0.80217 0.07749 0.90169 0.0
C603 C 0.78696 0.075 0.88887 0.0
C604 C 0.77171 0.05664 0.88235 0.0
C605 C 0.77132 0.0404 0.88864 0.0
C606 C 0.7865 0.04297 0.90164 0.0
C607 C 0.80177 0.06135 0.90811 0.0
C608 C 0.82637 0.10376 0.87403 0.0
C609 C 0.81947 0.1134 0.86333 0.0
C610 C 0.81238 0.10745 0.84379 0.0
C611 C 0.81206 0.09173 0.83454 0.0
C612 C 0.81975 0.08256 0.84497 0.0
C613 C 0.82679 0.0885 0.86469 0.0
C614 C 0.86019 0.14015 0.88819 0.0
C615 C 0.86026 0.15682 0.88443 0.0
C616 C 0.87182 0.16878 0.87077 0.0
C617 C 0.88306 0.16395 0.86026 0.0
C618 C 0.8828 0.14715 0.86373 0.0
C619 C 0.87153 0.13538 0.87774 0.0
C620 C 0.84713 0.15276 0.01553 0.0
C621 C 0.75515 0.02085 0.88175 0.0
H622 H 0.88537 0.71127 0.06317 0.0
H623 H 0.73614 0.70386 0.91836 0.0
H624 H 0.89467 0.72273 0.96068 0.0
H625 H 0.91606 0.71315 0.97504 0.0
H626 H 0.87843 0.65591 0.94758 0.0
H627 H 0.85702 0.66555 0.93347 0.0
H628 H 0.86468 0.72819 0.98704 0.0
H629 H 0.87505 0.72662 0.02066 0.0
H630 H 0.8565 0.6673 0.00712 0.0
H631 H 0.84587 0.66897 0.97368 0.0
H632 H 0.82375 0.7269 0.96995 0.0
H633 H 0.79918 0.71952 0.99292 0.0
H634 H 0.78875 0.66252 0.99499 0.0
H635 H 0.81236 0.66953 0.97151 0.0
H636 H 0.82979 0.73601 0.92237 0.0
H637 H 0.80342 0.74133 0.91571 0.0
H638 H 0.763 0.68383 0.9302 0.0
H639 H 0.78945 0.6786 0.93654 0.0
H640 H 0.85742 0.72798 0.89123 0.0
H641 H 0.8466 0.72644 0.85693 0.0
H642 H 0.79117 0.67714 0.86614 0.0
H643 H 0.80294 0.6775 0.8994 0.0
H644 H 0.88978 0.72456 0.91324 0.0
H645 H 0.90463 0.72198 0.8842 0.0
H646 H 0.85321 0.66734 0.86577 0.0
H647 H 0.83846 0.67017 0.8947 0.0
O648 O 0.88103 0.71154 0.04984 0.0
O649 O 0.87148 0.68115 0.04205 0.0
O650 O 0.76816 0.73148 0.91331 0.0
O651 O 0.74682 0.70211 0.92082 0.0
C652 C 0.85902 0.69904 0.94183 0.0
C653 C 0.84885 0.70002 0.95737 0.0
C654 C 0.83285 0.70186 0.95346 0.0
C655 C 0.82772 0.70395 0.93412 0.0
C656 C 0.8378 0.70288 0.91851 0.0
C657 C 0.85329 0.70012 0.92239 0.0
C658 C 0.8743 0.69483 0.94607 0.0
C659 C 0.8914 0.7083 0.95726 0.0
C660 C 0.90355 0.70279 0.96548 0.0
C661 C 0.89874 0.68371 0.96264 0.0
C662 C 0.88233 0.67063 0.95023 0.0
C663 C 0.87023 0.67617 0.94195 0.0
C664 C 0.85473 0.69877 0.97787 0.0
C665 C 0.86282 0.71486 0.9914 0.0
C666 C 0.86876 0.71393 0.01058 0.0
C667 C 0.86669 0.69685 0.01656 0.0
C668 C 0.85837 0.68069 0.00298 0.0
C669 C 0.85237 0.68163 0.98385 0.0
C670 C 0.81992 0.69877 0.96911 0.0
C671 C 0.81628 0.7129 0.97554 0.0
C672 C 0.80234 0.70872 0.98863 0.0
C673 C 0.79229 0.69054 0.99581 0.0
C674 C 0.79655 0.67675 0.98994 0.0
C675 C 0.81006 0.68076 0.97656 0.0
C676 C 0.81156 0.70699 0.93009 0.0
C677 C 0.81522 0.72458 0.92407 0.0
C678 C 0.80014 0.72759 0.9203 0.0
C679 C 0.7811 0.71302 0.92248 0.0
C680 C 0.77749 0.69537 0.92843 0.0
C681 C 0.79257 0.69236 0.93213 0.0
C682 C 0.83098 0.70289 0.89792 0.0
C683 C 0.84302 0.71674 0.88569 0.0
C684 C 0.83668 0.71596 0.86611 0.0
C685 C 0.81796 0.70159 0.8585 0.0
C686 C 0.80584 0.68812 0.87109 0.0
C687 C 0.81241 0.68852 0.89036 0.0
C688 C 0.86301 0.69763 0.90596 0.0
C689 C 0.88186 0.71194 0.90304 0.0
C690 C 0.89031 0.71041 0.88648 0.0
C691 C 0.88002 0.69453 0.8726 0.0
C692 C 0.86137 0.6799 0.876 0.0
C693 C 0.85297 0.68143 0.89255 0.0
C694 C 0.87318 0.69596 0.03689 0.0
C695 C 0.76503 0.71617 0.91858 0.0
H696 H 0.79186 0.65678 0.34496 0.0
H697 H 0.91414 0.61264 0.49858 0.0
H698 H 0.80843 0.67226 0.4687 0.0
H699 H 0.7866 0.68148 0.45491 0.0
H700 H 0.75035 0.62465 0.42595 0.0
H701 H 0.77205 0.61542 0.44023 0.0
H702 H 0.81974 0.66828 0.42763 0.0
H703 H 0.80954 0.66903 0.39371 0.0
H704 H 0.79308 0.61011 0.38182 0.0
H705 H 0.80304 0.60946 0.41592 0.0
H706 H 0.8537 0.66766 0.42899 0.0
H707 H 0.87791 0.67364 0.40653 0.0
H708 H 0.86915 0.61796 0.41436 0.0
H709 H 0.84388 0.61146 0.43609 0.0
H710 H 0.87696 0.66316 0.46731 0.0
H711 H 0.90506 0.66085 0.47533 0.0
H712 H 0.86779 0.60297 0.49085 0.0
H713 H 0.8398 0.60538 0.48251 0.0
H714 H 0.86087 0.66543 0.50482 0.0
H715 H 0.87271 0.66677 0.53864 0.0
H716 H 0.82319 0.61067 0.54448 0.0
H717 H 0.81141 0.60944 0.51039 0.0
H718 H 0.82542 0.66943 0.50571 0.0
H719 H 0.81052 0.67158 0.5348 0.0
H720 H 0.76256 0.61387 0.51955 0.0
H721 H 0.77748 0.61204 0.49024 0.0
O722 O 0.79579 0.65616 0.35833 0.0
O723 O 0.78782 0.62595 0.35288 0.0
O724 O 0.92182 0.64365 0.48686 0.0
O725 O 0.90329 0.61393 0.49525 0.0
C726 C 0.80722 0.63921 0.46022 0.0
C727 C 0.8177 0.63811 0.44503 0.0
C728 C 0.83397 0.6368 0.44955 0.0
C729 C 0.83927 0.63573 0.46921 0.0
C730 C 0.82868 0.6366 0.48434 0.0
C731 C 0.81279 0.63853 0.47985 0.0
C732 C 0.79181 0.64317 0.45549 0.0
C733 C 0.79543 0.66162 0.45993 0.0
C734 C 0.7831 0.66693 0.45181 0.0
C735 C 0.76692 0.65388 0.43911 0.0
C736 C 0.76264 0.63501 0.43576 0.0
C737 C 0.77499 0.62969 0.44391 0.0
C738 C 0.81191 0.63874 0.42429 0.0
C739 C 0.81378 0.6555 0.41772 0.0
C740 C 0.80802 0.65592 0.39831 0.0
C741 C 0.80044 0.63961 0.38506 0.0
C742 C 0.79881 0.6229 0.39165 0.0
C743 C 0.80451 0.62249 0.4111 0.0
C744 C 0.84687 0.63906 0.43411 0.0
C745 C 0.85641 0.65641 0.42532 0.0
C746 C 0.87028 0.65985 0.41255 0.0
C747 C 0.87524 0.6462 0.4087 0.0
C748 C 0.86542 0.62862 0.41707 0.0
C749 C 0.85109 0.62495 0.42947 0.0
C750 C 0.85635 0.63438 0.47418 0.0
C751 C 0.8749 0.64997 0.47233 0.0
C752 C 0.89092 0.64862 0.47698 0.0
C753 C 0.88866 0.6317 0.48371 0.0
C754 C 0.87004 0.61619 0.48568 0.0
C755 C 0.85403 0.61752 0.48095 0.0
C756 C 0.8354 0.63727 0.5051 0.0
C757 C 0.85263 0.65338 0.51336 0.0
C758 C 0.85939 0.65409 0.53265 0.0
C759 C 0.84899 0.63872 0.54415 0.0
C760 C 0.83148 0.62273 0.53598 0.0
C761 C 0.82477 0.62199 0.51655 0.0
C762 C 0.80254 0.64056 0.49597 0.0
C763 C 0.81156 0.65738 0.50853 0.0
C764 C 0.8031 0.65851 0.52519 0.0
C765 C 0.78547 0.64281 0.5296 0.0
C766 C 0.77608 0.62625 0.51649 0.0
C767 C 0.78456 0.62516 0.49978 0.0
C768 C 0.79429 0.64008 0.36445 0.0
C769 C 0.90563 0.6302 0.48868 0.0
H770 H 0.33037 0.13376 0.3671 0.0
H771 H 0.37632 0.30508 0.52324 0.0
H772 H 0.33158 0.14171 0.49134 0.0
H773 H 0.32338 0.10955 0.47998 0.0
H774 H 0.37648 0.13374 0.45245 0.0
H775 H 0.38476 0.16601 0.4642 0.0
H776 H 0.32831 0.15263 0.44963 0.0
H777 H 0.32389 0.14001 0.41559 0.0
H778 H 0.37931 0.18872 0.40555 0.0
H779 H 0.38367 0.20104 0.43973 0.0
H780 H 0.32457 0.18469 0.45125 0.0
H781 H 0.31203 0.19908 0.42965 0.0
H782 H 0.36623 0.25314 0.43969 0.0
H783 H 0.37919 0.238 0.45976 0.0
H784 H 0.33111 0.2126 0.49155 0.0
H785 H 0.3299 0.24104 0.50039 0.0
H786 H 0.39157 0.27378 0.51367 0.0
H787 H 0.39259 0.2453 0.50455 0.0
H788 H 0.33688 0.19486 0.52858 0.0
H789 H 0.33938 0.20911 0.56146 0.0
H790 H 0.40111 0.23664 0.56476 0.0
H791 H 0.39843 0.22201 0.53178 0.0
H792 H 0.33911 0.16359 0.52847 0.0
H793 H 0.34168 0.14643 0.55543 0.0
H794 H 0.39778 0.16079 0.54 0.0
H795 H 0.39512 0.17821 0.51294 0.0
O796 O 0.33242 0.139 0.3805 0.0
O797 O 0.36093 0.1644 0.37606 0.0
O798 O 0.34475 0.27625 0.51225 0.0
O799 O 0.3764 0.29364 0.51953 0.0
C800 C 0.36203 0.17549 0.48319 0.0
C801 C 0.35935 0.1852 0.46797 0.0
C802 C 0.35915 0.202 0.4725 0.0
C803 C 0.36264 0.20961 0.49219 0.0
C804 C 0.36576 0.20017 0.5073 0.0
C805 C 0.36534 0.18305 0.50287 0.0
C806 C 0.35879 0.15617 0.47865 0.0
C807 C 0.34167 0.14005 0.48327 0.0
C808 C 0.33691 0.12173 0.47658 0.0
C809 C 0.3492 0.11917 0.46516 0.0
C810 C 0.36679 0.1353 0.46131 0.0
C811 C 0.37153 0.15369 0.46797 0.0
C812 C 0.35641 0.17764 0.4472 0.0
C813 C 0.33955 0.16047 0.4401 0.0
C814 C 0.33703 0.15334 0.42062 0.0
C815 C 0.35127 0.16333 0.40785 0.0
C816 C 0.36807 0.18064 0.415 0.0
C817 C 0.37059 0.18773 0.4345 0.0
C818 C 0.35282 0.21026 0.45711 0.0
C819 C 0.33397 0.19945 0.4482 0.0
C820 C 0.3267 0.20785 0.43614 0.0
C821 C 0.33792 0.22744 0.43319 0.0
C822 C 0.35715 0.23801 0.44142 0.0
C823 C 0.36458 0.22942 0.45306 0.0
C824 C 0.36195 0.22695 0.49731 0.0
C825 C 0.34434 0.22597 0.49626 0.0
C826 C 0.34369 0.24221 0.50136 0.0
C827 C 0.36065 0.2597 0.50773 0.0
C828 C 0.37825 0.26057 0.50881 0.0
C829 C 0.37888 0.24433 0.50363 0.0
C830 C 0.36746 0.20734 0.52794 0.0
C831 C 0.3509 0.20368 0.53656 0.0
C832 C 0.35236 0.21179 0.5553 0.0
C833 C 0.37044 0.22393 0.5656 0.0
C834 C 0.38702 0.22736 0.55705 0.0
C835 C 0.38552 0.21897 0.53836 0.0
C836 C 0.36706 0.17241 0.51898 0.0
C837 C 0.35207 0.16327 0.53106 0.0
C838 C 0.3536 0.15352 0.54647 0.0
C839 C 0.37008 0.15254 0.55003 0.0
C840 C 0.38496 0.16138 0.53764 0.0
C841 C 0.38347 0.17131 0.52224 0.0
C842 C 0.34857 0.15569 0.38718 0.0
C843 C 0.36004 0.27698 0.51328 0.0
H844 H 0.79935 0.1834 0.34943 0.0
H845 H 0.96226 0.31197 0.49997 0.0
H846 H 0.79027 0.18561 0.45064 0.0
H847 H 0.763 0.15318 0.43991 0.0
H848 H 0.79177 0.12908 0.47045 0.0
H849 H 0.81924 0.16117 0.48011 0.0
H850 H 0.82488 0.2218 0.42852 0.0
H851 H 0.81359 0.21018 0.39412 0.0
H852 H 0.81945 0.16171 0.40293 0.0
H853 H 0.83096 0.17361 0.43721 0.0
H854 H 0.86854 0.25897 0.44933 0.0
H855 H 0.89505 0.2753 0.42839 0.0
H856 H 0.8943 0.22289 0.41747 0.0
H857 H 0.86867 0.20699 0.43903 0.0
H858 H 0.86656 0.26367 0.4968 0.0
H859 H 0.89762 0.29337 0.50508 0.0
H860 H 0.92648 0.26522 0.48516 0.0
H861 H 0.89537 0.23556 0.47725 0.0
H862 H 0.83502 0.23146 0.52525 0.0
H863 H 0.84787 0.24057 0.55983 0.0
H864 H 0.89223 0.22919 0.54779 0.0
H865 H 0.87927 0.21997 0.51359 0.0
H866 H 0.79564 0.19381 0.50097 0.0
H867 H 0.7767 0.17318 0.52595 0.0
H868 H 0.82182 0.16235 0.54094 0.0
H869 H 0.84064 0.1831 0.51616 0.0
O870 O 0.80392 0.18777 0.36306 0.0
O871 O 0.80704 0.16303 0.36841 0.0
O872 O 0.9343 0.31406 0.5075 0.0
O873 O 0.9498 0.30037 0.497 0.0
C874 C 0.82411 0.19509 0.47134 0.0
C875 C 0.83531 0.20561 0.45631 0.0
C876 C 0.85332 0.22267 0.46116 0.0
C877 C 0.85977 0.22963 0.48103 0.0
C878 C 0.84852 0.21921 0.49604 0.0
C879 C 0.83073 0.20191 0.4912 0.0
C880 C 0.80667 0.17577 0.46635 0.0
C881 C 0.79057 0.1733 0.45513 0.0
C882 C 0.77506 0.15488 0.44907 0.0
C883 C 0.77529 0.13878 0.45463 0.0
C884 C 0.79114 0.14131 0.46632 0.0
C885 C 0.80679 0.15962 0.4719 0.0
C886 C 0.82856 0.19846 0.43541 0.0
C887 C 0.82374 0.20869 0.42298 0.0
C888 C 0.81727 0.20201 0.40335 0.0
C889 C 0.81555 0.18498 0.39579 0.0
C890 C 0.82054 0.17484 0.40829 0.0
C891 C 0.82705 0.18156 0.42789 0.0
C892 C 0.86664 0.23177 0.44572 0.0
C893 C 0.87389 0.25096 0.44214 0.0
C894 C 0.88897 0.26024 0.43022 0.0
C895 C 0.89659 0.25028 0.42132 0.0
C896 C 0.88848 0.23079 0.42395 0.0
C897 C 0.87379 0.22168 0.4362 0.0
C898 C 0.87871 0.24753 0.48627 0.0
C899 C 0.87962 0.26395 0.4943 0.0
C900 C 0.89737 0.28089 0.49898 0.0
C901 C 0.91454 0.28169 0.4957 0.0
C902 C 0.91355 0.26513 0.48781 0.0
C903 C 0.8958 0.24818 0.48322 0.0
C904 C 0.85638 0.22532 0.51686 0.0
C905 C 0.84756 0.23104 0.53013 0.0
C906 C 0.85486 0.23617 0.54982 0.0
C907 C 0.87118 0.2358 0.55643 0.0
C908 C 0.87989 0.23002 0.54305 0.0
C909 C 0.87252 0.22475 0.52352 0.0
C910 C 0.8196 0.19014 0.50694 0.0
C911 C 0.80144 0.18707 0.50977 0.0
C912 C 0.7906 0.17517 0.52392 0.0
C913 C 0.79777 0.16614 0.53544 0.0
C914 C 0.81602 0.16933 0.53254 0.0
C915 C 0.82681 0.1812 0.51842 0.0
C916 C 0.80859 0.17787 0.37495 0.0
C917 C 0.93343 0.2997 0.50046 0.0
H918 H 0.02305 0.53593 0.37489 0.0
H919 H 0.00994 0.39199 0.21712 0.0
H920 H 0.98391 0.52113 0.27503 0.0
H921 H 0.99146 0.55312 0.28642 0.0
H922 H 0.04144 0.57825 0.25367 0.0
H923 H 0.03372 0.5462 0.24232 0.0
H924 H 0.98789 0.49094 0.29974 0.0
H925 H 0.99762 0.50578 0.33334 0.0
H926 H 0.05255 0.54929 0.31551 0.0
H927 H 0.0427 0.53416 0.28202 0.0
H928 H 0.98179 0.45308 0.28145 0.0
H929 H 0.99008 0.43507 0.3031 0.0
H930 H 0.05038 0.47683 0.30011 0.0
H931 H 0.04188 0.4949 0.27889 0.0
H932 H 0.96834 0.44103 0.23822 0.0
H933 H 0.96553 0.41052 0.22912 0.0
H934 H 0.02736 0.43976 0.23001 0.0
H935 H 0.02991 0.47017 0.23894 0.0
H936 H 0.96259 0.4616 0.2098 0.0
H937 H 0.95567 0.4424 0.17862 0.0
H938 H 0.01646 0.47096 0.17227 0.0
H939 H 0.02324 0.48969 0.20358 0.0
H940 H 0.97049 0.51002 0.22762 0.0
H941 H 0.96585 0.5272 0.20154 0.0
H942 H 0.01807 0.53752 0.17842 0.0
H943 H 0.0227 0.52069 0.20454 0.0
O944 O 0.01954 0.53022 0.36154 0.0
O945 O 0.04751 0.55232 0.3516 0.0
O946 O 0.97891 0.38948 0.22051 0.0
O947 O 0.01064 0.40382 0.22082 0.0
C948 C 0.00513 0.51213 0.25309 0.0
C949 C 0.00846 0.50259 0.26806 0.0
C950 C 0.00637 0.4847 0.26352 0.0
C951 C 0.00092 0.47628 0.24412 0.0
C952 C 0.99778 0.48583 0.22916 0.0
C953 C 0.9998 0.50373 0.23359 0.0
C954 C 0.00826 0.53136 0.25786 0.0
C955 C 0.99632 0.53356 0.27011 0.0
C956 C 0.00074 0.55182 0.2767 0.0
C957 C 0.01715 0.5682 0.27108 0.0
C958 C 0.02863 0.56592 0.25813 0.0
C959 C 0.02424 0.54764 0.25162 0.0
C960 C 0.01456 0.51152 0.28847 0.0
C961 C 0.00204 0.50363 0.30316 0.0
C962 C 0.00762 0.51217 0.32232 0.0
C963 C 0.02585 0.52876 0.32711 0.0
C964 C 0.0384 0.53655 0.31232 0.0
C965 C 0.03281 0.52797 0.29318 0.0
C966 C 0.01124 0.47526 0.27867 0.0
C967 C 0.99676 0.45847 0.28582 0.0
C968 C 0.00154 0.44816 0.29803 0.0
C969 C 0.0209 0.45443 0.3032 0.0
C970 C 0.03534 0.47172 0.29662 0.0
C971 C 0.03054 0.48204 0.28446 0.0
C972 C 0.99932 0.45773 0.23922 0.0
C973 C 0.98124 0.44077 0.23645 0.0
C974 C 0.97969 0.42339 0.23126 0.0
C975 C 0.99623 0.42271 0.22881 0.0
C976 C 0.01434 0.43978 0.23176 0.0
C977 C 0.01586 0.45715 0.2369 0.0
C978 C 0.99339 0.47718 0.20874 0.0
C979 C 0.97434 0.46402 0.2014 0.0
C980 C 0.97044 0.45299 0.18375 0.0
C981 C 0.98556 0.45524 0.17313 0.0
C982 C 0.00456 0.46911 0.18009 0.0
C983 C 0.00845 0.47986 0.19787 0.0
C984 C 0.99677 0.51386 0.21776 0.0
C985 C 0.98085 0.51595 0.21685 0.0
C986 C 0.97825 0.52576 0.20202 0.0
C987 C 0.99146 0.53346 0.18781 0.0
C988 C 0.00742 0.53137 0.18889 0.0
C989 C 0.01009 0.52176 0.20378 0.0
C990 C 0.03169 0.53786 0.34745 0.0
C991 C 0.99466 0.40431 0.22315 0.0
H992 H 0.49746 0.48101 0.37738 0.0
H993 H 0.40325 0.33419 0.20367 0.0
H994 H 0.50572 0.49687 0.27587 0.0
H995 H 0.52999 0.52869 0.29061 0.0
H996 H 0.57475 0.51931 0.27466 0.0
H997 H 0.55015 0.48692 0.26033 0.0
H998 H 0.47633 0.46553 0.29291 0.0
H999 H 0.48064 0.47273 0.32842 0.0
H1000 H 0.52939 0.46579 0.33153 0.0
H1001 H 0.52476 0.45836 0.29601 0.0
H1002 H 0.44665 0.43552 0.25778 0.0
H1003 H 0.42028 0.41932 0.27831 0.0
H1004 H 0.45319 0.40224 0.31351 0.0
H1005 H 0.47965 0.41823 0.29235 0.0
H1006 H 0.44807 0.42924 0.21839 0.0
H1007 H 0.42094 0.39885 0.20334 0.0
H1008 H 0.44565 0.36894 0.2299 0.0
H1009 H 0.47288 0.3995 0.24463 0.0
H1010 H 0.48065 0.46634 0.20604 0.0
H1011 H 0.46797 0.45744 0.17161 0.0
H1012 H 0.48173 0.41354 0.16973 0.0
H1013 H 0.49432 0.42241 0.20445 0.0
H1014 H 0.51484 0.50157 0.233 0.0
H1015 H 0.53611 0.52479 0.21099 0.0
H1016 H 0.55213 0.48523 0.19062 0.0
H1017 H 0.53167 0.46241 0.21343 0.0
O1018 O 0.49599 0.47806 0.36334 0.0
O1019 O 0.52105 0.4745 0.36414 0.0
O1020 O 0.40182 0.3625 0.19601 0.0
O1021 O 0.41385 0.34643 0.20943 0.0
C1022 C 0.51097 0.47014 0.25842 0.0
C1023 C 0.4975 0.45676 0.27034 0.0
C1024 C 0.48135 0.43951 0.26169 0.0
C1025 C 0.4793 0.43506 0.24127 0.0
C1026 C 0.49272 0.44838 0.22931 0.0
C1027 C 0.50852 0.46599 0.23786 0.0
C1028 C 0.52615 0.48943 0.26736 0.0
C1029 C 0.52074 0.50148 0.27589 0.0
C1030 C 0.53461 0.51965 0.28427 0.0
C1031 C 0.55421 0.52631 0.28399 0.0
C1032 C 0.5597 0.51442 0.27513 0.0
C1033 C 0.54573 0.496 0.26698 0.0
C1034 C 0.5001 0.4612 0.29193 0.0
C1035 C 0.48783 0.46541 0.30131 0.0
C1036 C 0.49037 0.4696 0.32159 0.0
C1037 C 0.50533 0.46979 0.33283 0.0
C1038 C 0.5177 0.46572 0.32332 0.0
C1039 C 0.5151 0.46148 0.30305 0.0
C1040 C 0.46497 0.42783 0.27338 0.0
C1041 C 0.44801 0.42783 0.26956 0.0
C1042 C 0.43298 0.41862 0.28135 0.0
C1043 C 0.43467 0.40943 0.29741 0.0
C1044 C 0.45157 0.40924 0.30119 0.0
C1045 C 0.4666 0.41826 0.28912 0.0
C1046 C 0.46258 0.41659 0.23238 0.0
C1047 C 0.44769 0.41613 0.22079 0.0
C1048 C 0.43216 0.39874 0.21229 0.0
C1049 C 0.43115 0.38146 0.21537 0.0
C1050 C 0.446 0.38198 0.22719 0.0
C1051 C 0.46156 0.3994 0.23564 0.0
C1052 C 0.4884 0.44502 0.20771 0.0
C1053 C 0.48137 0.45512 0.1981 0.0
C1054 C 0.47402 0.44994 0.17853 0.0
C1055 C 0.47378 0.43473 0.1682 0.0
C1056 C 0.48185 0.42534 0.17746 0.0
C1057 C 0.48902 0.43039 0.19718 0.0
C1058 C 0.52189 0.48038 0.22504 0.0
C1059 C 0.52329 0.49808 0.22417 0.0
C1060 C 0.53533 0.51127 0.21158 0.0
C1061 C 0.54568 0.5067 0.19928 0.0
C1062 C 0.54425 0.48899 0.20006 0.0
C1063 C 0.53259 0.476 0.21301 0.0
C1064 C 0.50799 0.47425 0.35437 0.0
C1065 C 0.4147 0.36294 0.20633 0.0
H1066 H 0.52375 0.99855 0.38841 0.0
H1067 H 0.39514 0.01705 0.23617 0.0
H1068 H 0.54493 0.02596 0.29047 0.0
H1069 H 0.56688 0.01701 0.30464 0.0
H1070 H 0.53472 0.96242 0.27051 0.0
H1071 H 0.51275 0.97146 0.25646 0.0
H1072 H 0.51408 0.02727 0.31486 0.0
H1073 H 0.51996 0.02061 0.34808 0.0
H1074 H 0.49933 0.96214 0.32722 0.0
H1075 H 0.49328 0.96894 0.29414 0.0
H1076 H 0.48312 0.03344 0.29913 0.0
H1077 H 0.4588 0.02799 0.32188 0.0
H1078 H 0.43239 0.967 0.31013 0.0
H1079 H 0.45682 0.97247 0.28791 0.0
H1080 H 0.48746 0.04418 0.24932 0.0
H1081 H 0.46304 0.052 0.24137 0.0
H1082 H 0.4185 0.99357 0.24849 0.0
H1083 H 0.44303 0.98589 0.25612 0.0
H1084 H 0.51414 0.03665 0.21817 0.0
H1085 H 0.5043 0.03835 0.18433 0.0
H1086 H 0.44881 0.98722 0.18898 0.0
H1087 H 0.45946 0.98474 0.22175 0.0
H1088 H 0.54553 0.03179 0.24332 0.0
H1089 H 0.5639 0.03212 0.21626 0.0
H1090 H 0.51449 0.97904 0.19035 0.0
H1091 H 0.4962 0.97896 0.21738 0.0
O1092 O 0.52116 0.00083 0.37519 0.0
O1093 O 0.51062 0.97098 0.36369 0.0
O1094 O 0.42853 0.0442 0.23572 0.0
O1095 O 0.40509 0.01436 0.23928 0.0
C1096 C 0.51182 0.00316 0.26726 0.0
C1097 C 0.5002 0.00286 0.2819 0.0
C1098 C 0.48528 0.00613 0.27727 0.0
C1099 C 0.48201 0.00994 0.25807 0.0
C1100 C 0.49299 0.00937 0.24316 0.0
C1101 C 0.508 0.00608 0.2478 0.0
C1102 C 0.52724 0.99935 0.27247 0.0
C1103 C 0.5429 0.01225 0.28573 0.0
C1104 C 0.55529 0.00705 0.29392 0.0
C1105 C 0.55233 0.98891 0.28888 0.0
C1106 C 0.53738 0.9765 0.27462 0.0
C1107 C 0.52488 0.98167 0.26652 0.0
C1108 C 0.50334 0.99861 0.30211 0.0
C1109 C 0.51075 0.01301 0.31754 0.0
C1110 C 0.51414 0.00918 0.33647 0.0
C1111 C 0.51017 0.99085 0.3403 0.0
C1112 C 0.50259 0.97641 0.32478 0.0
C1113 C 0.49915 0.98026 0.30587 0.0
C1114 C 0.47164 0.00333 0.29193 0.0
C1115 C 0.4722 0.01895 0.30171 0.0
C1116 C 0.45841 0.01584 0.31463 0.0
C1117 C 0.4438 0.9971 0.31756 0.0
C1118 C 0.44351 0.98156 0.30798 0.0
C1119 C 0.45743 0.98465 0.29539 0.0
C1120 C 0.46703 0.01454 0.25352 0.0
C1121 C 0.47241 0.03311 0.24919 0.0
C1122 C 0.45844 0.03753 0.24465 0.0
C1123 C 0.4388 0.02341 0.24436 0.0
C1124 C 0.43348 0.0048 0.24866 0.0
C1125 C 0.44747 0.00039 0.25315 0.0
C1126 C 0.48749 0.01061 0.22249 0.0
C1127 C 0.49999 0.02568 0.21168 0.0
C1128 C 0.49422 0.02675 0.19241 0.0
C1129 C 0.47571 0.01292 0.18375 0.0
C1130 C 0.46332 0.99791 0.1948 0.0
C1131 C 0.46926 0.9966 0.21375 0.0
C1132 C 0.51952 0.00543 0.23222 0.0
C1133 C 0.53877 0.02014 0.2319 0.0
C1134 C 0.54924 0.02026 0.21647 0.0
C1135 C 0.54061 0.00565 0.2011 0.0
C1136 C 0.52145 0.99064 0.20181 0.0
C1137 C 0.51102 0.99053 0.21725 0.0
C1138 C 0.51396 0.98688 0.36039 0.0
C1139 C 0.4239 0.02803 0.23952 0.0
H1140 H 0.50263 0.02929 0.68498 0.0
H1141 H 0.59596 0.9697 0.84084 0.0
H1142 H 0.49712 0.03234 0.79083 0.0
H1143 H 0.47437 0.03936 0.77518 0.0
H1144 H 0.42846 0.98072 0.7789 0.0
H1145 H 0.45171 0.97366 0.79374 0.0
H1146 H 0.52426 0.03106 0.76803 0.0
H1147 H 0.51973 0.03585 0.73369 0.0
H1148 H 0.47166 0.97738 0.72435 0.0
H1149 H 0.47653 0.97273 0.75869 0.0
H1150 H 0.55197 0.02945 0.78957 0.0
H1151 H 0.57645 0.03538 0.76716 0.0
H1152 H 0.54346 0.97596 0.74498 0.0
H1153 H 0.51851 0.97021 0.76702 0.0
H1154 H 0.55222 0.01885 0.83678 0.0
H1155 H 0.57925 0.0163 0.84923 0.0
H1156 H 0.55377 0.96113 0.81656 0.0
H1157 H 0.52671 0.96376 0.80444 0.0
H1158 H 0.51715 0.01655 0.85777 0.0
H1159 H 0.52667 0.01386 0.89132 0.0
H1160 H 0.51584 0.95777 0.87418 0.0
H1161 H 0.50547 0.96015 0.84073 0.0
H1162 H 0.4908 0.02358 0.83615 0.0
H1163 H 0.47089 0.02238 0.86213 0.0
H1164 H 0.44418 0.96101 0.86018 0.0
H1165 H 0.46426 0.96235 0.83437 0.0
O1166 O 0.50423 0.02705 0.69849 0.0
O1167 O 0.47954 0.99693 0.69449 0.0
O1168 O 0.59789 0.99945 0.85274 0.0
O1169 O 0.58551 0.97112 0.83605 0.0
C1170 C 0.49065 0.99792 0.7999 0.0
C1171 C 0.50349 0.99857 0.78661 0.0
C1172 C 0.51873 0.99632 0.79311 0.0
C1173 C 0.52086 0.99283 0.81274 0.0
C1174 C 0.50759 0.9914 0.82592 0.0
C1175 C 0.49249 0.99402 0.81947 0.0
C1176 C 0.47608 0.00248 0.79328 0.0
C1177 C 0.4821 0.02107 0.78844 0.0
C1178 C 0.46902 0.02507 0.77961 0.0
C1179 C 0.44954 0.01059 0.77565 0.0
C1180 C 0.4434 0.99213 0.7814 0.0
C1181 C 0.45659 0.9881 0.79009 0.0
C1182 C 0.50086 0.00148 0.76575 0.0
C1183 C 0.5129 0.01925 0.75848 0.0
C1184 C 0.51021 0.02197 0.73889 0.0
C1185 C 0.49536 0.00698 0.72625 0.0
C1186 C 0.48326 0.98921 0.73366 0.0
C1187 C 0.48601 0.9865 0.75325 0.0
C1188 C 0.53352 0.99944 0.77981 0.0
C1189 C 0.54998 0.01775 0.7798 0.0
C1190 C 0.56385 0.02111 0.76703 0.0
C1191 C 0.56164 0.00612 0.75439 0.0
C1192 C 0.54532 0.98769 0.75461 0.0
C1193 C 0.53118 0.98442 0.76712 0.0
C1194 C 0.53755 0.9915 0.81971 0.0
C1195 C 0.55254 0.00624 0.83233 0.0
C1196 C 0.56794 0.00475 0.83941 0.0
C1197 C 0.56867 0.98849 0.8339 0.0
C1198 C 0.55367 0.97384 0.82109 0.0
C1199 C 0.53824 0.97533 0.81408 0.0
C1200 C 0.51051 0.98851 0.84679 0.0
C1201 C 0.51615 0.00339 0.86138 0.0
C1202 C 0.52167 0.00188 0.8805 0.0
C1203 C 0.52202 0.98563 0.88525 0.0
C1204 C 0.51573 0.97046 0.87083 0.0
C1205 C 0.5098 0.9718 0.85179 0.0
C1206 C 0.47894 0.99305 0.83344 0.0
C1207 C 0.48042 0.00986 0.84113 0.0
C1208 C 0.46915 0.00917 0.85599 0.0
C1209 C 0.45605 0.99161 0.86313 0.0
C1210 C 0.45404 0.9747 0.8548 0.0
C1211 C 0.4655 0.97544 0.84014 0.0
C1212 C 0.4925 0.00994 0.70545 0.0
C1213 C 0.58493 0.98676 0.8415 0.0
H1214 H 0.95863 0.46379 0.70069 0.0
H1215 H 0.02408 0.62487 0.86269 0.0
H1216 H 0.96688 0.45949 0.8034 0.0
H1217 H 0.963 0.42912 0.79129 0.0
H1218 H 0.02246 0.45104 0.80998 0.0
H1219 H 0.02664 0.48187 0.82117 0.0
H1220 H 0.96184 0.48728 0.78311 0.0
H1221 H 0.95494 0.4761 0.74835 0.0
H1222 H 0.01337 0.48985 0.74626 0.0
H1223 H 0.02014 0.50122 0.78099 0.0
H1224 H 0.96261 0.51725 0.80907 0.0
H1225 H 0.9531 0.53462 0.78785 0.0
H1226 H 0.00758 0.55983 0.76287 0.0
H1227 H 0.01698 0.54229 0.78422 0.0
H1228 H 0.97694 0.52945 0.85358 0.0
H1229 H 0.97956 0.55892 0.86666 0.0
H1230 H 0.03125 0.59214 0.83754 0.0
H1231 H 0.02858 0.56254 0.82478 0.0
H1232 H 0.98482 0.50368 0.87636 0.0
H1233 H 0.99085 0.52177 0.90797 0.0
H1234 H 0.04627 0.56577 0.8918 0.0
H1235 H 0.04007 0.54763 0.86027 0.0
H1236 H 0.97842 0.46384 0.85029 0.0
H1237 H 0.983 0.44544 0.87467 0.0
H1238 H 0.04247 0.49084 0.88662 0.0
H1239 H 0.03789 0.50908 0.86179 0.0
O1240 O 0.9617 0.46837 0.7144 0.0
O1241 O 0.99186 0.47559 0.71414 0.0
O1242 O 0.99592 0.59525 0.87215 0.0
O1243 O 0.02249 0.61301 0.8574 0.0
C1244 C 0.9995 0.49167 0.81944 0.0
C1245 C 0.99576 0.50194 0.80565 0.0
C1246 C 0.99638 0.51881 0.81193 0.0
C1247 C 0.00181 0.52605 0.83171 0.0
C1248 C 0.00636 0.51631 0.84537 0.0
C1249 C 0.0048 0.49888 0.8394 0.0
C1250 C 0.99711 0.473 0.81298 0.0
C1251 C 0.97915 0.45785 0.8047 0.0
C1252 C 0.9769 0.44053 0.79788 0.0
C1253 C 0.99245 0.43789 0.79973 0.0
C1254 C 0.01028 0.45282 0.8085 0.0
C1255 C 0.01266 0.47035 0.81489 0.0
C1256 C 0.99153 0.4952 0.78452 0.0
C1257 C 0.97318 0.48803 0.77507 0.0
C1258 C 0.96925 0.48157 0.75524 0.0
C1259 C 0.98361 0.4821 0.74451 0.0
C1260 C 0.00199 0.48926 0.75408 0.0
C1261 C 0.0059 0.49576 0.7739 0.0
C1262 C 0.99045 0.52853 0.79811 0.0
C1263 C 0.9724 0.52638 0.79886 0.0
C1264 C 0.96697 0.53622 0.78669 0.0
C1265 C 0.97959 0.54853 0.77369 0.0
C1266 C 0.99762 0.55049 0.77282 0.0
C1267 C 0.00297 0.54047 0.7849 0.0
C1268 C 0.00259 0.5439 0.83829 0.0
C1269 C 0.98876 0.54311 0.84998 0.0
C1270 C 0.99031 0.55996 0.85744 0.0
C1271 C 0.00568 0.5779 0.85321 0.0
C1272 C 0.01927 0.57858 0.84112 0.0
C1273 C 0.01774 0.56171 0.83373 0.0
C1274 C 0.01199 0.5244 0.86605 0.0
C1275 C 0.99852 0.51689 0.87996 0.0
C1276 C 0.00196 0.52728 0.89794 0.0
C1277 C 0.01889 0.54533 0.90218 0.0
C1278 C 0.03295 0.55206 0.88877 0.0
C1279 C 0.02954 0.54165 0.87088 0.0
C1280 C 0.00782 0.48778 0.85419 0.0
C1281 C 0.9925 0.46973 0.85798 0.0
C1282 C 0.99516 0.45922 0.87185 0.0
C1283 C 0.01314 0.46665 0.88243 0.0
C1284 C 0.02847 0.48479 0.8787 0.0
C1285 C 0.02586 0.49521 0.86459 0.0
C1286 C 0.97939 0.47518 0.72345 0.0
C1287 C 0.00765 0.59585 0.8615 0.0
H1288 H 0.47035 0.51523 0.68887 0.0
H1289 H 0.62805 0.64428 0.84502 0.0
H1290 H 0.45784 0.52067 0.78924 0.0
H1291 H 0.4305 0.48923 0.77597 0.0
H1292 H 0.45512 0.46166 0.80747 0.0
H1293 H 0.48257 0.49284 0.81991 0.0
H1294 H 0.49404 0.55453 0.76759 0.0
H1295 H 0.48383 0.54267 0.7331 0.0
H1296 H 0.48704 0.49309 0.74441 0.0
H1297 H 0.49751 0.50525 0.77877 0.0
H1298 H 0.53723 0.59032 0.78861 0.0
H1299 H 0.56369 0.60464 0.76732 0.0
H1300 H 0.56174 0.55123 0.76121 0.0
H1301 H 0.536 0.5373 0.78289 0.0
H1302 H 0.53218 0.59544 0.83715 0.0
H1303 H 0.56289 0.62522 0.8465 0.0
H1304 H 0.59297 0.59765 0.82881 0.0
H1305 H 0.5622 0.56791 0.8198 0.0
H1306 H 0.4989 0.5613 0.86606 0.0
H1307 H 0.51032 0.56892 0.90085 0.0
H1308 H 0.55844 0.56336 0.88856 0.0
H1309 H 0.54568 0.55367 0.85464 0.0
H1310 H 0.46083 0.52702 0.83904 0.0
H1311 H 0.44013 0.50612 0.8629 0.0
H1312 H 0.48367 0.49398 0.88104 0.0
H1313 H 0.50423 0.5149 0.85725 0.0
O1314 O 0.47452 0.51972 0.70254 0.0
O1315 O 0.47617 0.49439 0.70919 0.0
O1316 O 0.59956 0.64612 0.85061 0.0
O1317 O 0.61571 0.63267 0.84151 0.0
C1318 C 0.49011 0.52779 0.81129 0.0
C1319 C 0.50228 0.53788 0.79671 0.0
C1320 C 0.52049 0.55449 0.80208 0.0
C1321 C 0.52618 0.56156 0.82198 0.0
C1322 C 0.5142 0.55128 0.83666 0.0
C1323 C 0.49617 0.53434 0.83128 0.0
C1324 C 0.47213 0.50904 0.80566 0.0
C1325 C 0.45712 0.5078 0.7935 0.0
C1326 C 0.44158 0.48992 0.78595 0.0
C1327 C 0.44069 0.4731 0.79085 0.0
C1328 C 0.45528 0.4744 0.80376 0.0
C1329 C 0.47095 0.4922 0.81093 0.0
C1330 C 0.49632 0.53067 0.77571 0.0
C1331 C 0.49257 0.54114 0.76257 0.0
C1332 C 0.48671 0.53431 0.74289 0.0
C1333 C 0.48454 0.51688 0.73601 0.0
C1334 C 0.4885 0.50652 0.74923 0.0
C1335 C 0.49441 0.5134 0.76888 0.0
C1336 C 0.53464 0.56274 0.78724 0.0
C1337 C 0.54239 0.58168 0.78246 0.0
C1338 C 0.55745 0.58982 0.77036 0.0
C1339 C 0.56463 0.57897 0.76259 0.0
C1340 C 0.55627 0.5598 0.76676 0.0
C1341 C 0.54155 0.55183 0.7791 0.0
C1342 C 0.54495 0.57958 0.82761 0.0
C1343 C 0.54542 0.59587 0.83532 0.0
C1344 C 0.56298 0.61286 0.84063 0.0
C1345 C 0.58039 0.61384 0.83833 0.0
C1346 C 0.57984 0.59742 0.8307 0.0
C1347 C 0.56228 0.58043 0.82546 0.0
C1348 C 0.52153 0.55709 0.8577 0.0
C1349 C 0.51181 0.56159 0.87101 0.0
C1350 C 0.51851 0.56614 0.89089 0.0
C1351 C 0.53532 0.56671 0.89775 0.0
C1352 C 0.54518 0.5626 0.88415 0.0
C1353 C 0.53814 0.55745 0.86453 0.0
C1354 C 0.48409 0.52262 0.84655 0.0
C1355 C 0.46591 0.51993 0.84828 0.0
C1356 C 0.45408 0.5079 0.86179 0.0
C1357 C 0.46027 0.4984 0.87383 0.0
C1358 C 0.47859 0.5013 0.87217 0.0
C1359 C 0.49037 0.51326 0.85862 0.0
C1360 C 0.47817 0.5096 0.71513 0.0
C1361 C 0.59908 0.63187 0.84388 0.0
H1362 H 0.64067 0.8388 0.70815 0.0
H1363 H 0.66015 0.71416 0.55269 0.0
H1364 H 0.61737 0.83482 0.60506 0.0
H1365 H 0.62561 0.86702 0.617 0.0
H1366 H 0.67936 0.89132 0.59065 0.0
H1367 H 0.6713 0.85924 0.57938 0.0
H1368 H 0.61828 0.79946 0.6295 0.0
H1369 H 0.62253 0.81144 0.66379 0.0
H1370 H 0.67831 0.85994 0.65437 0.0
H1371 H 0.67399 0.84765 0.6202 0.0
H1372 H 0.62276 0.76257 0.60936 0.0
H1373 H 0.63558 0.74736 0.62957 0.0
H1374 H 0.69001 0.80121 0.63927 0.0
H1375 H 0.67759 0.81569 0.61765 0.0
H1376 H 0.60939 0.75535 0.56516 0.0
H1377 H 0.61047 0.72692 0.55588 0.0
H1378 H 0.67231 0.76013 0.56761 0.0
H1379 H 0.67102 0.78849 0.5766 0.0
H1380 H 0.60368 0.77733 0.53813 0.0
H1381 H 0.60128 0.76246 0.50542 0.0
H1382 H 0.66321 0.79365 0.50736 0.0
H1383 H 0.66542 0.80826 0.53997 0.0
H1384 H 0.60579 0.81967 0.55402 0.0
H1385 H 0.60405 0.83908 0.52852 0.0
H1386 H 0.66328 0.86041 0.51902 0.0
H1387 H 0.66482 0.84093 0.54416 0.0
O1388 O 0.63934 0.83427 0.69457 0.0
O1389 O 0.66788 0.85896 0.68894 0.0
O1390 O 0.62752 0.70881 0.55019 0.0
O1391 O 0.65931 0.72518 0.55623 0.0
C1392 C 0.64031 0.82538 0.58643 0.0
C1393 C 0.64283 0.81544 0.60149 0.0
C1394 C 0.6429 0.79861 0.5967 0.0
C1395 C 0.63938 0.79118 0.57693 0.0
C1396 C 0.63636 0.80084 0.56199 0.0
C1397 C 0.63694 0.81798 0.56669 0.0
C1398 C 0.64367 0.84472 0.59123 0.0
C1399 C 0.63075 0.84715 0.60161 0.0
C1400 C 0.63547 0.86552 0.60837 0.0
C1401 C 0.65321 0.88168 0.60489 0.0
C1402 C 0.66571 0.87915 0.59379 0.0
C1403 C 0.66102 0.86085 0.5871 0.0
C1404 C 0.64572 0.82279 0.62233 0.0
C1405 C 0.63141 0.81265 0.63489 0.0
C1406 C 0.63387 0.81955 0.65446 0.0
C1407 C 0.65073 0.8367 0.6618 0.0
C1408 C 0.66512 0.84673 0.64917 0.0
C1409 C 0.66266 0.83979 0.62963 0.0
C1410 C 0.64924 0.79022 0.61191 0.0
C1411 C 0.6374 0.77108 0.616 0.0
C1412 C 0.64475 0.76246 0.62771 0.0
C1413 C 0.66397 0.77297 0.63591 0.0
C1414 C 0.67532 0.79251 0.63282 0.0
C1415 C 0.66812 0.80094 0.62074 0.0
C1416 C 0.64011 0.77392 0.57159 0.0
C1417 C 0.62314 0.75644 0.56567 0.0
C1418 C 0.62381 0.74023 0.56041 0.0
C1419 C 0.64149 0.74125 0.56103 0.0
C1420 C 0.65846 0.75884 0.56698 0.0
C1421 C 0.65777 0.77505 0.57217 0.0
C1422 C 0.63471 0.79393 0.54127 0.0
C1423 C 0.61667 0.78117 0.53128 0.0
C1424 C 0.61535 0.77261 0.51274 0.0
C1425 C 0.63207 0.7769 0.5039 0.0
C1426 C 0.65009 0.79025 0.51372 0.0
C1427 C 0.65139 0.7986 0.5323 0.0
C1428 C 0.63543 0.82893 0.55085 0.0
C1429 C 0.6183 0.82846 0.54629 0.0
C1430 C 0.61733 0.83948 0.5318 0.0
C1431 C 0.63359 0.85133 0.52201 0.0
C1432 C 0.65062 0.85158 0.52654 0.0
C1433 C 0.6515 0.8404 0.54076 0.0
C1434 C 0.65324 0.84404 0.68256 0.0
C1435 C 0.64227 0.72407 0.55548 0.0
H1436 H 0.15611 0.80668 0.71865 0.0
H1437 H 0.06774 0.67001 0.5364 0.0
H1438 H 0.17224 0.82822 0.61937 0.0
H1439 H 0.19706 0.85958 0.63466 0.0
H1440 H 0.24076 0.84825 0.61957 0.0
H1441 H 0.21561 0.81637 0.60468 0.0
H1442 H 0.14031 0.79602 0.63344 0.0
H1443 H 0.14249 0.80139 0.66905 0.0
H1444 H 0.18996 0.79251 0.67435 0.0
H1445 H 0.18745 0.78692 0.6387 0.0
H1446 H 0.11189 0.76783 0.59673 0.0
H1447 H 0.0842 0.75074 0.61548 0.0
H1448 H 0.11435 0.73058 0.65059 0.0
H1449 H 0.14217 0.74762 0.63132 0.0
H1450 H 0.1171 0.76483 0.55602 0.0
H1451 H 0.09006 0.73598 0.53833 0.0
H1452 H 0.10848 0.70167 0.56684 0.0
H1453 H 0.13567 0.7307 0.58421 0.0
H1454 H 0.15376 0.80198 0.5451 0.0
H1455 H 0.14521 0.79476 0.50985 0.0
H1456 H 0.15037 0.74533 0.51225 0.0
H1457 H 0.16 0.75322 0.54758 0.0
H1458 H 0.17897 0.83229 0.57522 0.0
H1459 H 0.19969 0.85645 0.55374 0.0
H1460 H 0.22361 0.82236 0.53802 0.0
H1461 H 0.20286 0.79825 0.55965 0.0
O1462 O 0.15548 0.80447 0.70458 0.0
O1463 O 0.17994 0.79996 0.7065 0.0
O1464 O 0.06958 0.69997 0.52881 0.0
O1465 O 0.07828 0.68165 0.54327 0.0
C1466 C 0.17675 0.80125 0.60112 0.0
C1467 C 0.16223 0.78749 0.61188 0.0
C1468 C 0.14618 0.77092 0.60197 0.0
C1469 C 0.1453 0.76747 0.58148 0.0
C1470 C 0.15996 0.78109 0.57071 0.0
C1471 C 0.17548 0.79817 0.58052 0.0
C1472 C 0.19209 0.81988 0.61118 0.0
C1473 C 0.18713 0.83226 0.61979 0.0
C1474 C 0.20132 0.85017 0.6285 0.0
C1475 C 0.2208 0.85622 0.62847 0.0
C1476 C 0.22582 0.84385 0.61983 0.0
C1477 C 0.21153 0.82572 0.61136 0.0
C1478 C 0.16358 0.79087 0.63351 0.0
C1479 C 0.15106 0.79509 0.64233 0.0
C1480 C 0.15239 0.79822 0.66267 0.0
C1481 C 0.16637 0.79732 0.67456 0.0
C1482 C 0.179 0.79326 0.66563 0.0
C1483 C 0.17761 0.79007 0.64528 0.0
C1484 C 0.12898 0.75881 0.61251 0.0
C1485 C 0.11239 0.75934 0.60813 0.0
C1486 C 0.09659 0.74959 0.61888 0.0
C1487 C 0.09708 0.73924 0.63442 0.0
C1488 C 0.11362 0.73849 0.63869 0.0
C1489 C 0.12944 0.74811 0.6277 0.0
C1490 C 0.12847 0.74987 0.57122 0.0
C1491 C 0.11533 0.75109 0.55834 0.0
C1492 C 0.09986 0.73457 0.54831 0.0
C1493 C 0.09715 0.71651 0.55112 0.0
C1494 C 0.11018 0.71535 0.56429 0.0
C1495 C 0.1257 0.73189 0.57426 0.0
C1496 C 0.15775 0.77828 0.54894 0.0
C1497 C 0.15389 0.79008 0.53795 0.0
C1498 C 0.1489 0.78588 0.51783 0.0
C1499 C 0.1472 0.76954 0.5084 0.0
C1500 C 0.15167 0.75805 0.51923 0.0
C1501 C 0.15715 0.76254 0.53933 0.0
C1502 C 0.18945 0.81355 0.56899 0.0
C1503 C 0.18894 0.83022 0.56741 0.0
C1504 C 0.20067 0.84392 0.55508 0.0
C1505 C 0.2132 0.84124 0.54422 0.0
C1506 C 0.2142 0.82486 0.54639 0.0
C1507 C 0.20234 0.81107 0.55862 0.0
C1508 C 0.16774 0.80065 0.69617 0.0
C1509 C 0.08082 0.69893 0.54037 0.0
H1510 H 0.20978 0.35935 0.72817 0.0
H1511 H 0.08062 0.38191 0.58133 0.0
H1512 H 0.23057 0.387 0.6291 0.0
H1513 H 0.25123 0.37613 0.64226 0.0
H1514 H 0.2152 0.32156 0.60879 0.0
H1515 H 0.19442 0.33249 0.59591 0.0
H1516 H 0.19985 0.38939 0.65568 0.0
H1517 H 0.206 0.38219 0.68854 0.0
H1518 H 0.18437 0.32375 0.66664 0.0
H1519 H 0.17803 0.33108 0.63395 0.0
H1520 H 0.16447 0.3938 0.64056 0.0
H1521 H 0.13775 0.38509 0.66117 0.0
H1522 H 0.11749 0.32536 0.64863 0.0
H1523 H 0.14404 0.33399 0.62837 0.0
H1524 H 0.17277 0.4082 0.59287 0.0
H1525 H 0.14851 0.41649 0.58626 0.0
H1526 H 0.1037 0.35768 0.59127 0.0
H1527 H 0.12808 0.34954 0.59758 0.0
H1528 H 0.19779 0.40078 0.55951 0.0
H1529 H 0.18704 0.40231 0.52576 0.0
H1530 H 0.13326 0.34939 0.53022 0.0
H1531 H 0.14406 0.34789 0.56346 0.0
H1532 H 0.23039 0.39009 0.58282 0.0
H1533 H 0.24646 0.38746 0.55506 0.0
H1534 H 0.19169 0.34113 0.5278 0.0
H1535 H 0.1764 0.34253 0.5565 0.0
O1536 O 0.20714 0.36186 0.71509 0.0
O1537 O 0.19609 0.33205 0.70305 0.0
O1538 O 0.11408 0.40906 0.58138 0.0
O1539 O 0.09051 0.37903 0.5839 0.0
C1540 C 0.19631 0.36551 0.60728 0.0
C1541 C 0.18526 0.36539 0.62246 0.0
C1542 C 0.1704 0.36892 0.61858 0.0
C1543 C 0.1671 0.37349 0.59977 0.0
C1544 C 0.17761 0.37294 0.58438 0.0
C1545 C 0.19213 0.36873 0.58806 0.0
C1546 C 0.21102 0.36054 0.61156 0.0
C1547 C 0.22746 0.3729 0.62419 0.0
C1548 C 0.23923 0.36666 0.63169 0.0
C1549 C 0.23472 0.34792 0.62669 0.0
C1550 C 0.21888 0.33598 0.61308 0.0
C1551 C 0.20715 0.34227 0.60553 0.0
C1552 C 0.18871 0.36082 0.64242 0.0
C1553 C 0.19643 0.37504 0.65804 0.0
C1554 C 0.19994 0.37089 0.67678 0.0
C1555 C 0.19576 0.35241 0.6802 0.0
C1556 C 0.18784 0.33815 0.6645 0.0
C1557 C 0.18427 0.34231 0.6458 0.0
C1558 C 0.15618 0.3645 0.63308 0.0
C1559 C 0.15447 0.37889 0.64264 0.0
C1560 C 0.1393 0.37394 0.65432 0.0
C1561 C 0.12573 0.3546 0.65631 0.0
C1562 C 0.12787 0.34035 0.64725 0.0
C1563 C 0.14302 0.34526 0.6358 0.0
C1564 C 0.15219 0.37834 0.59594 0.0
C1565 C 0.1577 0.39714 0.59256 0.0
C1566 C 0.14382 0.40184 0.58879 0.0
C1567 C 0.12415 0.38775 0.58831 0.0
C1568 C 0.1187 0.36888 0.59161 0.0
C1569 C 0.1326 0.36421 0.59532 0.0
C1570 C 0.17157 0.37439 0.56403 0.0
C1571 C 0.18368 0.38961 0.55314 0.0
C1572 C 0.17755 0.39044 0.53393 0.0
C1573 C 0.15919 0.37614 0.5255 0.0
C1574 C 0.14727 0.36088 0.53647 0.0
C1575 C 0.15342 0.35999 0.55546 0.0
C1576 C 0.20216 0.3667 0.5716 0.0
C1577 C 0.22199 0.37915 0.57098 0.0
C1578 C 0.2311 0.37778 0.5549 0.0
C1579 C 0.22045 0.3642 0.53888 0.0
C1580 C 0.20059 0.35156 0.53984 0.0
C1581 C 0.19167 0.35255 0.55616 0.0
C1582 C 0.19964 0.34808 0.70009 0.0
C1583 C 0.10935 0.39267 0.58432 0.0
C1584 C 0.95713 0.38703 0.07462 0.0
C1585 C 0.97118 0.38255 0.07168 0.0
C1586 C 0.95849 0.39808 0.09145 0.0
C1587 C 0.97415 0.40465 0.10579 0.0
C1588 C 0.98797 0.39957 0.10329 0.0
C1589 C 0.98638 0.38866 0.0862 0.0
C1590 C 0.94354 0.40331 0.09353 0.0
C1591 C 0.00472 0.40609 0.11843 0.0
C1592 C 0.99011 0.44982 0.1383 0.0
C1593 C 0.98173 0.44232 0.15555 0.0
C1594 C 0.98752 0.43768 0.12191 0.0
C1595 C 0.97656 0.41759 0.12294 0.0
C1596 C 0.968 0.40996 0.14032 0.0
C1597 C 0.97059 0.42244 0.1564 0.0
C1598 C 0.99664 0.44636 0.10353 0.0
C1599 C 0.95645 0.38864 0.14206 0.0
H1600 H 0.94534 0.38241 0.06348 0.0
H1601 H 0.99724 0.38519 0.0841 0.0
H1602 H 0.9372 0.39913 0.10769 0.0
H1603 H 0.95038 0.41905 0.09355 0.0
H1604 H 0.93178 0.39634 0.0815 0.0
H1605 H 0.01345 0.3998 0.11496 0.0
H1606 H 0.01415 0.42191 0.11933 0.0
H1607 H 0.99953 0.4021 0.13309 0.0
H1608 H 0.99868 0.4652 0.13767 0.0
H1609 H 0.96436 0.41666 0.16987 0.0
H1610 H 0.9855 0.44081 0.09096 0.0
H1611 H 0.00704 0.44217 0.10003 0.0
H1612 H 0.00427 0.46223 0.10495 0.0
H1613 H 0.9443 0.38158 0.13047 0.0
H1614 H 0.95062 0.38502 0.15655 0.0
H1615 H 0.96557 0.38257 0.13985 0.0
C1616 C 0.59661 0.58171 0.11952 0.0
C1617 C 0.60994 0.57863 0.11089 0.0
C1618 C 0.58688 0.5713 0.13512 0.0
C1619 C 0.59099 0.55791 0.14251 0.0
C1620 C 0.6053 0.55563 0.1346 0.0
C1621 C 0.61441 0.56582 0.11869 0.0
C1622 C 0.57143 0.57384 0.1429 0.0
C1623 C 0.61046 0.54188 0.14244 0.0
C1624 C 0.57319 0.53809 0.19121 0.0
C1625 C 0.55725 0.51998 0.18495 0.0
C1626 C 0.58443 0.55065 0.17757 0.0
C1627 C 0.5792 0.54505 0.15729 0.0
C1628 C 0.56283 0.52687 0.15098 0.0
C1629 C 0.55218 0.51444 0.16493 0.0
C1630 C 0.60204 0.56971 0.18483 0.0
C1631 C 0.55654 0.52053 0.1295 0.0
H1632 H 0.59305 0.59153 0.11343 0.0
H1633 H 0.62485 0.56356 0.11213 0.0
H1634 H 0.55723 0.56047 0.13931 0.0
H1635 H 0.57371 0.57653 0.15907 0.0
H1636 H 0.57097 0.58582 0.1366 0.0
H1637 H 0.62338 0.54343 0.13624 0.0
H1638 H 0.61317 0.54417 0.15863 0.0
H1639 H 0.59829 0.52696 0.13877 0.0
H1640 H 0.57704 0.54223 0.20677 0.0
H1641 H 0.53972 0.50045 0.16021 0.0
H1642 H 0.601 0.58152 0.17898 0.0
H1643 H 0.61499 0.57068 0.17941 0.0
H1644 H 0.60406 0.57192 0.20107 0.0
H1645 H 0.55451 0.53119 0.12219 0.0
H1646 H 0.54292 0.50635 0.12709 0.0
H1647 H 0.56783 0.51962 0.12229 0.0
C1648 C 0.41704 0.01213 0.08754 0.0
C1649 C 0.42311 0.00776 0.07054 0.0
C1650 C 0.42762 0.01596 0.10573 0.0
C1651 C 0.44494 0.01599 0.1067 0.0
C1652 C 0.45199 0.01341 0.08921 0.0
C1653 C 0.44073 0.00886 0.07136 0.0
C1654 C 0.41932 0.01814 0.12403 0.0
C1655 C 0.47074 0.01411 0.08949 0.0
C1656 C 0.4747 0.03175 0.15604 0.0
C1657 C 0.46905 0.01404 0.16343 0.0
C1658 C 0.46751 0.03271 0.13731 0.0
C1659 C 0.4539 0.01559 0.12598 0.0
C1660 C 0.44838 0.99771 0.1332 0.0
C1661 C 0.45632 0.99718 0.15157 0.0
C1662 C 0.47425 0.05202 0.1298 0.0
C1663 C 0.43373 0.97906 0.1217 0.0
H1664 H 0.40325 0.011 0.08684 0.0
H1665 H 0.44536 0.00545 0.05813 0.0
H1666 H 0.41429 0.0052 0.13218 0.0
H1667 H 0.4304 0.03058 0.13384 0.0
H1668 H 0.40699 0.01995 0.12068 0.0
H1669 H 0.47594 0.01557 0.07468 0.0
H1670 H 0.48195 0.02623 0.09958 0.0
H1671 H 0.46879 0.00073 0.09487 0.0
H1672 H 0.4844 0.0449 0.16502 0.0
H1673 H 0.45232 0.98342 0.15671 0.0
H1674 H 0.4623 0.05464 0.129 0.0
H1675 H 0.4787 0.05239 0.11476 0.0
H1676 H 0.48649 0.06384 0.13934 0.0
H1677 H 0.4202 0.97876 0.11821 0.0
H1678 H 0.43037 0.96641 0.1298 0.0
H1679 H 0.4391 0.97775 0.10762 0.0
C1680 C 0.40746 0.96979 0.96262 0.0
C1681 C 0.40037 0.98135 0.96824 0.0
C1682 C 0.41562 0.97161 0.94482 0.0
C1683 C 0.41645 0.9851 0.93214 0.0
C1684 C 0.40877 0.99639 0.93741 0.0
C1685 C 0.40096 0.9945 0.95549 0.0
C1686 C 0.42389 0.95947 0.93985 0.0
C1687 C 0.40911 0.01069 0.92411 0.0
C1688 C 0.4555 0.00292 0.89722 0.0
C1689 C 0.44548 0.991 0.88016 0.0
C1690 C 0.44612 0.00145 0.91412 0.0
C1691 C 0.42617 0.98791 0.91383 0.0
C1692 C 0.41584 0.97631 0.8964 0.0
C1693 C 0.42568 0.97786 0.8798 0.0
C1694 C 0.4577 0.01386 0.9325 0.0
C1695 C 0.39452 0.96194 0.89544 0.0
H1696 H 0.40714 0.95965 0.97241 0.0
H1697 H 0.3954 0.0034 0.95968 0.0
H1698 H 0.41717 0.95115 0.92551 0.0
H1699 H 0.43952 0.96882 0.93852 0.0
H1700 H 0.42171 0.94935 0.95109 0.0
H1701 H 0.40139 0.01742 0.92972 0.0
H1702 H 0.42419 0.02214 0.92258 0.0
H1703 H 0.40248 0.00362 0.90926 0.0
H1704 H 0.47087 0.01291 0.89758 0.0
H1705 H 0.41792 0.96873 0.86654 0.0
H1706 H 0.45737 0.00471 0.94409 0.0
H1707 H 0.45133 0.02194 0.93809 0.0
H1708 H 0.47292 0.0242 0.93006 0.0
H1709 H 0.39167 0.95053 0.90526 0.0
H1710 H 0.38835 0.95516 0.88038 0.0
H1711 H 0.38694 0.96894 0.90063 0.0
C1712 C 0.01461 0.40343 0.9693 0.0
C1713 C 0.99661 0.39683 0.97632 0.0
C1714 C 0.02072 0.41572 0.95404 0.0
C1715 C 0.0086 0.42161 0.94581 0.0
C1716 C 0.99068 0.41537 0.95324 0.0
C1717 C 0.98492 0.40307 0.96828 0.0
C1718 C 0.03989 0.42205 0.94642 0.0
C1719 C 0.97736 0.42142 0.94506 0.0
C1720 C 0.02363 0.46465 0.91675 0.0
C1721 C 0.01539 0.45576 0.89794 0.0
C1722 C 0.02298 0.45386 0.93235 0.0
C1723 C 0.01396 0.43375 0.92898 0.0
C1724 C 0.00704 0.42496 0.90968 0.0
C1725 C 0.00775 0.43607 0.89441 0.0
C1726 C 0.03052 0.46379 0.95268 0.0
C1727 C 0.99753 0.40362 0.90539 0.0
H1728 H 0.02371 0.39867 0.97544 0.0
H1729 H 0.97108 0.39826 0.97373 0.0
H1730 H 0.03766 0.41613 0.93102 0.0
H1731 H 0.04859 0.43787 0.94649 0.0
H1732 H 0.04817 0.41728 0.95521 0.0
H1733 H 0.96422 0.41583 0.95297 0.0
H1734 H 0.98489 0.43726 0.94596 0.0
H1735 H 0.97292 0.41617 0.92938 0.0
H1736 H 0.02953 0.47987 0.91955 0.0
H1737 H 0.00169 0.42921 0.87979 0.0
H1738 H 0.03873 0.45842 0.96049 0.0
H1739 H 0.01825 0.46067 0.96122 0.0
H1740 H 0.03988 0.47956 0.9524 0.0
H1741 H 0.00604 0.3984 0.91288 0.0
H1742 H 0.99568 0.39946 0.88944 0.0
H1743 H 0.98315 0.39626 0.91104 0.0
C1744 C 0.57193 0.58067 0.01162 0.0
C1745 C 0.59098 0.59607 0.0142 0.0
C1746 C 0.56068 0.57698 0.99393 0.0
C1747 C 0.56908 0.5884 0.97824 0.0
C1748 C 0.58812 0.60448 0.98115 0.0
C1749 C 0.59874 0.60832 0.99929 0.0
C1750 C 0.54018 0.56024 0.99171 0.0
C1751 C 0.59783 0.61666 0.96466 0.0
C1752 C 0.55236 0.56314 0.92723 0.0
C1753 C 0.54268 0.57142 0.9189 0.0
C1754 C 0.56098 0.56859 0.94647 0.0
C1755 C 0.55911 0.58199 0.95815 0.0
C1756 C 0.54841 0.58959 0.95034 0.0
C1757 C 0.54064 0.58451 0.93069 0.0
C1758 C 0.57254 0.56034 0.95408 0.0
C1759 C 0.54546 0.60333 0.96261 0.0
H1760 H 0.566 0.57127 0.02328 0.0
H1761 H 0.61359 0.6201 0.00134 0.0
H1762 H 0.53064 0.56415 0.98397 0.0
H1763 H 0.53924 0.54818 0.9828 0.0
H1764 H 0.53477 0.55521 0.0061 0.0
H1765 H 0.61206 0.62951 0.96975 0.0
H1766 H 0.59992 0.60804 0.95334 0.0
H1767 H 0.58873 0.62138 0.95754 0.0
H1768 H 0.55344 0.55245 0.91866 0.0
H1769 H 0.53333 0.59115 0.92453 0.0
H1770 H 0.56613 0.55213 0.96685 0.0
H1771 H 0.58741 0.57208 0.95913 0.0
H1772 H 0.57326 0.55071 0.94282 0.0
H1773 H 0.54074 0.59778 0.97703 0.0
H1774 H 0.53463 0.60583 0.95531 0.0
H1775 H 0.55921 0.61727 0.96544 0.0
C1776 C 0.01206 0.607 0.99081 0.0
C1777 C 0.02922 0.61697 0.00311 0.0
C1778 C 0.01034 0.59557 0.97411 0.0
C1779 C 0.02618 0.59413 0.96958 0.0
C1780 C 0.04366 0.60449 0.98166 0.0
C1781 C 0.04497 0.61576 0.99829 0.0
C1782 C 0.99147 0.58475 0.96153 0.0
C1783 C 0.06091 0.60342 0.97721 0.0
C1784 C 0.01659 0.55048 0.93795 0.0
C1785 C 0.02118 0.55782 0.91964 0.0
C1786 C 0.01817 0.56216 0.95435 0.0
C1787 C 0.0244 0.58159 0.95233 0.0
C1788 C 0.02899 0.58904 0.93385 0.0
C1789 C 0.02732 0.57707 0.91773 0.0
C1790 C 0.01316 0.55372 0.97384 0.0
C1791 C 0.03555 0.60963 0.93107 0.0
H1792 H 0.99981 0.60781 0.99441 0.0
H1793 H 0.05831 0.62344 0.00766 0.0
H1794 H 0.99373 0.58848 0.94616 0.0
H1795 H 0.98546 0.56914 0.9615 0.0
H1796 H 0.98072 0.58784 0.96674 0.0
H1797 H 0.0736 0.61273 0.98779 0.0
H1798 H 0.05736 0.58846 0.97757 0.0
H1799 H 0.06481 0.60774 0.96225 0.0
H1800 H 0.01188 0.53563 0.93946 0.0
H1801 H 0.03049 0.58269 0.9035 0.0
H1802 H 0.00146 0.55516 0.97926 0.0
H1803 H 0.02577 0.5617 0.98482 0.0
H1804 H 0.0085 0.53836 0.97294 0.0
H1805 H 0.02443 0.61258 0.93525 0.0
H1806 H 0.03848 0.61315 0.91571 0.0
H1807 H 0.0488 0.61932 0.94078 0.0
C1808 C 0.39283 0.44466 0.95768 0.0
C1809 C 0.39126 0.42716 0.9608 0.0
C1810 C 0.40273 0.45537 0.94235 0.0
C1811 C 0.4113 0.44846 0.92985 0.0
C1812 C 0.40902 0.43042 0.93233 0.0
C1813 C 0.39899 0.41995 0.94777 0.0
C1814 C 0.40472 0.47449 0.9401 0.0
C1815 C 0.41792 0.42256 0.91923 0.0
C1816 C 0.42808 0.47237 0.88266 0.0
C1817 C 0.44767 0.48543 0.88805 0.0
C1818 C 0.41606 0.46004 0.89601 0.0
C1819 C 0.42385 0.46082 0.91519 0.0
C1820 C 0.44364 0.47389 0.92068 0.0
C1821 C 0.4553 0.48604 0.90705 0.0
C1822 C 0.39504 0.44625 0.88964 0.0
C1823 C 0.45247 0.47523 0.94103 0.0
H1824 H 0.38678 0.45029 0.96756 0.0
H1825 H 0.39781 0.40644 0.95004 0.0
H1826 H 0.41999 0.48613 0.94338 0.0
H1827 H 0.40034 0.47536 0.92478 0.0
H1828 H 0.39594 0.47711 0.95002 0.0
H1829 H 0.41338 0.40762 0.92194 0.0
H1830 H 0.41399 0.42298 0.90361 0.0
H1831 H 0.4338 0.43163 0.92177 0.0
H1832 H 0.42217 0.47166 0.8679 0.0
H1833 H 0.47038 0.49626 0.91136 0.0
H1834 H 0.38614 0.44929 0.89891 0.0
H1835 H 0.39114 0.43137 0.89166 0.0
H1836 H 0.39132 0.44714 0.87407 0.0
H1837 H 0.44558 0.47941 0.95197 0.0
H1838 H 0.46819 0.48581 0.9428 0.0
H1839 H 0.4499 0.46105 0.94443 0.0
C1840 C 0.58908 0.01827 0.98292 0.0
C1841 C 0.58622 0.00413 0.99542 0.0
C1842 C 0.57757 0.01367 0.96526 0.0
C1843 C 0.56254 0.99449 0.96012 0.0
C1844 C 0.55936 0.98016 0.97279 0.0
C1845 C 0.57138 0.98511 0.99022 0.0
C1846 C 0.58168 0.02934 0.95199 0.0
C1847 C 0.54325 0.95962 0.96794 0.0
C1848 C 0.52481 0.98983 0.92185 0.0
C1849 C 0.53067 0.98543 0.90468 0.0
C1850 C 0.53437 0.99172 0.9402 0.0
C1851 C 0.55044 0.98961 0.94127 0.0
C1852 C 0.55601 0.98456 0.92399 0.0
C1853 C 0.54594 0.98238 0.90591 0.0
C1854 C 0.52776 0.99673 0.95832 0.0
C1855 C 0.57327 0.98253 0.92445 0.0
H1856 H 0.60061 0.03298 0.98675 0.0
H1857 H 0.56904 0.97413 0.99987 0.0
H1858 H 0.58472 0.02575 0.93742 0.0
H1859 H 0.5689 0.03058 0.94973 0.0
H1860 H 0.5941 0.04348 0.95801 0.0
H1861 H 0.54232 0.9503 0.97962 0.0
H1862 H 0.52935 0.95882 0.96577 0.0
H1863 H 0.54536 0.95391 0.95402 0.0
H1864 H 0.51292 0.9921 0.92087 0.0
H1865 H 0.55061 0.9792 0.89258 0.0
H1866 H 0.53863 0.01157 0.96426 0.0
H1867 H 0.52631 0.98712 0.96985 0.0
H1868 H 0.5138 0.99569 0.95528 0.0
H1869 H 0.58648 0.99662 0.92892 0.0
H1870 H 0.57486 0.9772 0.90997 0.0
H1871 H 0.5722 0.97257 0.93542 0.0
C1872 C 0.59278 0.99947 0.10775 0.0
C1873 C 0.60148 0.01704 0.09931 0.0
C1874 C 0.58348 0.997 0.12494 0.0
C1875 C 0.5829 0.01246 0.13392 0.0
C1876 C 0.59212 0.03037 0.12579 0.0
C1877 C 0.60128 0.03244 0.1086 0.0
C1878 C 0.57383 0.9777 0.13321 0.0
C1879 C 0.59187 0.04722 0.13498 0.0
C1880 C 0.54224 0.00241 0.16495 0.0
C1881 C 0.55128 0.00649 0.18399 0.0
C1882 C 0.55228 0.00394 0.14856 0.0
C1883 C 0.57187 0.00973 0.15125 0.0
C1884 C 0.58102 0.01358 0.17043 0.0
C1885 C 0.57062 0.01193 0.18658 0.0
C1886 C 0.54202 0.99976 0.12833 0.0
C1887 C 0.60187 0.01973 0.17388 0.0
H1888 H 0.59288 0.9875 0.10071 0.0
H1889 H 0.60802 0.0461 0.10227 0.0
H1890 H 0.57896 0.97925 0.14887 0.0
H1891 H 0.5581 0.97149 0.13244 0.0
H1892 H 0.57656 0.96748 0.12517 0.0
H1893 H 0.6005 0.06042 0.12739 0.0
H1894 H 0.57687 0.04386 0.13452 0.0
H1895 H 0.59756 0.05013 0.1506 0.0
H1896 H 0.52739 0.99848 0.16282 0.0
H1897 H 0.57762 0.01489 0.20127 0.0
H1898 H 0.54318 0.98871 0.11984 0.0
H1899 H 0.5489 0.01288 0.12033 0.0
H1900 H 0.52657 0.9947 0.12877 0.0
H1901 H 0.60429 0.00905 0.16644 0.0
H1902 H 0.60666 0.02149 0.18969 0.0
H1903 H 0.61101 0.03353 0.16748 0.0
C1904 C 0.98818 0.59545 0.10089 0.0
C1905 C 0.00763 0.60971 0.10056 0.0
C1906 C 0.98217 0.58228 0.11532 0.0
C1907 C 0.99593 0.58354 0.12971 0.0
C1908 C 0.01538 0.59854 0.13 0.0
C1909 C 0.02096 0.61138 0.11544 0.0
C1910 C 0.9613 0.56654 0.11463 0.0
C1911 C 0.03052 0.60055 0.14518 0.0
C1912 C 0.98551 0.55871 0.17678 0.0
C1913 C 0.98921 0.54425 0.1722 0.0
C1914 C 0.98621 0.57086 0.16262 0.0
C1915 C 0.9907 0.56842 0.14351 0.0
C1916 C 0.99304 0.55296 0.13849 0.0
C1917 C 0.9923 0.54109 0.1529 0.0
C1918 C 0.9835 0.5871 0.16852 0.0
C1919 C 0.99769 0.54974 0.11824 0.0
H1920 H 0.9778 0.59411 0.08946 0.0
H1921 H 0.03598 0.62253 0.11549 0.0
H1922 H 0.95966 0.55269 0.10984 0.0
H1923 H 0.95608 0.5652 0.1294 0.0
H1924 H 0.95206 0.56905 0.10434 0.0
H1925 H 0.04473 0.61375 0.14416 0.0
H1926 H 0.02611 0.60081 0.16012 0.0
H1927 H 0.03213 0.58803 0.14325 0.0
H1928 H 0.98313 0.56122 0.19169 0.0
H1929 H 0.99479 0.52967 0.14923 0.0
H1930 H 0.97434 0.5885 0.15707 0.0
H1931 H 0.99766 0.60073 0.17017 0.0
H1932 H 0.97692 0.58511 0.18263 0.0
H1933 H 0.98776 0.55014 0.10692 0.0
H1934 H 0.9968 0.53585 0.11604 0.0
H1935 H 0.01248 0.56139 0.11592 0.0
C1936 C 0.41233 0.39372 0.06321 0.0
C1937 C 0.41215 0.40918 0.05561 0.0
C1938 C 0.42368 0.39637 0.08058 0.0
C1939 C 0.43527 0.41494 0.0903 0.0
C1940 C 0.43611 0.43074 0.08189 0.0
C1941 C 0.42443 0.42764 0.06476 0.0
C1942 C 0.42232 0.37916 0.08915 0.0
C1943 C 0.44851 0.45081 0.0916 0.0
C1944 C 0.44447 0.42266 0.14549 0.0
C1945 C 0.46367 0.42788 0.14835 0.0
C1946 C 0.43479 0.41744 0.12671 0.0
C1947 C 0.44468 0.41772 0.11034 0.0
C1948 C 0.46392 0.42232 0.11322 0.0
C1949 C 0.47319 0.42723 0.1323 0.0
C1950 C 0.4142 0.41236 0.12435 0.0
C1951 C 0.47497 0.42293 0.09613 0.0
H1952 H 0.40285 0.37941 0.05619 0.0
H1953 H 0.42454 0.43968 0.05878 0.0
H1954 H 0.43682 0.38206 0.09379 0.0
H1955 H 0.4143 0.37604 0.10238 0.0
H1956 H 0.4148 0.36624 0.07861 0.0
H1957 H 0.44924 0.46172 0.08208 0.0
H1958 H 0.4426 0.45198 0.10538 0.0
H1959 H 0.46331 0.45417 0.0955 0.0
H1960 H 0.43708 0.42292 0.15801 0.0
H1961 H 0.48806 0.43127 0.1346 0.0
H1962 H 0.40513 0.39857 0.11533 0.0
H1963 H 0.41335 0.42349 0.1166 0.0
H1964 H 0.4081 0.41119 0.13865 0.0
H1965 H 0.46648 0.40965 0.08622 0.0
H1966 H 0.48901 0.42472 0.10092 0.0
H1967 H 0.47764 0.43506 0.0875 0.0
C1968 C 0.61916 0.72525 0.39756 0.0
C1969 C 0.63314 0.72044 0.39601 0.0
C1970 C 0.61794 0.73377 0.41511 0.0
C1971 C 0.6309 0.73743 0.43156 0.0
C1972 C 0.64467 0.7321 0.4303 0.0
C1973 C 0.64568 0.72374 0.41251 0.0
C1974 C 0.60313 0.73934 0.41586 0.0
C1975 C 0.65859 0.73559 0.44762 0.0
C1976 C 0.64228 0.77718 0.47019 0.0
C1977 C 0.63088 0.76687 0.48494 0.0
C1978 C 0.64221 0.76777 0.45264 0.0
C1979 C 0.63058 0.74755 0.44986 0.0
C1980 C 0.61885 0.73709 0.46461 0.0
C1981 C 0.61909 0.74689 0.48196 0.0
C1982 C 0.65473 0.77945 0.43716 0.0
C1983 C 0.60638 0.71552 0.46222 0.0
H1984 H 0.60941 0.72279 0.38491 0.0
H1985 H 0.65646 0.71999 0.41148 0.0
H1986 H 0.5941 0.73282 0.42807 0.0
H1987 H 0.61042 0.7551 0.4187 0.0
H1988 H 0.59363 0.73484 0.40201 0.0
H1989 H 0.66772 0.72967 0.44457 0.0
H1990 H 0.66807 0.75119 0.45166 0.0
H1991 H 0.65067 0.72903 0.4605 0.0
H1992 H 0.65129 0.79264 0.47242 0.0
H1993 H 0.61045 0.73888 0.49345 0.0
H1994 H 0.64585 0.77638 0.42313 0.0
H1995 H 0.66542 0.77543 0.43449 0.0
H1996 H 0.66252 0.79508 0.44138 0.0
H1997 H 0.59643 0.71082 0.44872 0.0
H1998 H 0.59779 0.70955 0.47489 0.0
H1999 H 0.61548 0.70935 0.4606 0.0
C2000 C 0.26022 0.88428 0.44815 0.0
C2001 C 0.26938 0.90417 0.44739 0.0
C2002 C 0.25198 0.87549 0.46498 0.0
C2003 C 0.25309 0.88686 0.48165 0.0
C2004 C 0.26261 0.90698 0.48117 0.0
C2005 C 0.27053 0.91541 0.46397 0.0
C2006 C 0.24174 0.85396 0.46479 0.0
C2007 C 0.26427 0.91955 0.49877 0.0
C2008 C 0.21462 0.85992 0.51596 0.0
C2009 C 0.22411 0.8547 0.52956 0.0
C2010 C 0.22415 0.87111 0.50075 0.0
C2011 C 0.24369 0.8774 0.49924 0.0
C2012 C 0.25358 0.87292 0.51347 0.0
C2013 C 0.24361 0.86147 0.52839 0.0
C2014 C 0.213 0.87533 0.48572 0.0
C2015 C 0.27448 0.8796 0.5125 0.0
H2016 H 0.25917 0.87545 0.43539 0.0
H2017 H 0.27766 0.93078 0.46353 0.0
H2018 H 0.2483 0.84996 0.47674 0.0
H2019 H 0.22647 0.84792 0.46745 0.0
H2020 H 0.24226 0.84721 0.45068 0.0
H2021 H 0.27287 0.935 0.49635 0.0
H2022 H 0.24976 0.9159 0.50228 0.0
H2023 H 0.27103 0.91697 0.51174 0.0
H2024 H 0.19948 0.85453 0.51672 0.0
H2025 H 0.251 0.85759 0.53902 0.0
H2026 H 0.21156 0.86774 0.47138 0.0
H2027 H 0.2208 0.89086 0.48371 0.0
H2028 H 0.1984 0.87076 0.48988 0.0
H2029 H 0.27604 0.87211 0.49959 0.0
H2030 H 0.28061 0.87676 0.52583 0.0
H2031 H 0.28303 0.89515 0.51063 0.0
C2032 C 0.11195 0.36472 0.41554 0.0
C2033 C 0.10311 0.345 0.41055 0.0
C2034 C 0.12385 0.37334 0.43309 0.0
C2035 C 0.1267 0.36191 0.446 0.0
C2036 C 0.1185 0.34219 0.4406 0.0
C2037 C 0.10693 0.33402 0.42293 0.0
C2038 C 0.13268 0.39449 0.43816 0.0
C2039 C 0.12109 0.32943 0.45399 0.0
C2040 C 0.16379 0.37929 0.48971 0.0
C2041 C 0.1523 0.37642 0.50515 0.0
C2042 C 0.15607 0.3761 0.47014 0.0
C2043 C 0.13643 0.36978 0.46605 0.0
C2044 C 0.12525 0.36834 0.48162 0.0
C2045 C 0.13336 0.37177 0.50096 0.0
C2046 C 0.16855 0.37816 0.45392 0.0
C2047 C 0.10427 0.36169 0.47795 0.0
H2048 H 0.10923 0.37336 0.40599 0.0
H2049 H 0.1003 0.31881 0.41919 0.0
H2050 H 0.12518 0.39665 0.45001 0.0
H2051 H 0.14801 0.40134 0.44368 0.0
H2052 H 0.13163 0.40186 0.42539 0.0
H2053 H 0.11467 0.31464 0.44713 0.0
H2054 H 0.13656 0.33543 0.45813 0.0
H2055 H 0.11423 0.32871 0.46768 0.0
H2056 H 0.17846 0.38292 0.49288 0.0
H2057 H 0.12458 0.36995 0.5129 0.0
H2058 H 0.16605 0.38525 0.44173 0.0
H2059 H 0.16482 0.36377 0.44797 0.0
H2060 H 0.18405 0.38651 0.45919 0.0
H2061 H 0.10224 0.36992 0.46671 0.0
H2062 H 0.09816 0.3632 0.49146 0.0
H2063 H 0.09599 0.3464 0.47226 0.0
C2064 C 0.07693 0.32492 0.2943 0.0
C2065 C 0.07666 0.31275 0.30817 0.0
C2066 C 0.0825 0.32414 0.27547 0.0
C2067 C 0.08816 0.31106 0.27051 0.0
C2068 C 0.08781 0.29867 0.2844 0.0
C2069 C 0.08194 0.29958 0.30302 0.0
C2070 C 0.0825 0.33742 0.26096 0.0
C2071 C 0.09397 0.28469 0.27973 0.0
C2072 C 0.08924 0.29695 0.2174 0.0
C2073 C 0.10882 0.30861 0.21485 0.0
C2074 C 0.08219 0.29797 0.23529 0.0
C2075 C 0.0951 0.31074 0.25104 0.0
C2076 C 0.11485 0.3227 0.24842 0.0
C2077 C 0.12145 0.32156 0.23032 0.0
C2078 C 0.061 0.28515 0.23748 0.0
C2079 C 0.12912 0.33629 0.26494 0.0
H2080 H 0.07275 0.33506 0.29812 0.0
H2081 H 0.08183 0.29017 0.31366 0.0
H2082 H 0.09732 0.34722 0.25701 0.0
H2083 H 0.07362 0.32906 0.24728 0.0
H2084 H 0.07688 0.34615 0.2668 0.0
H2085 H 0.09256 0.27583 0.29205 0.0
H2086 H 0.08521 0.27503 0.26661 0.0
H2087 H 0.10917 0.29257 0.27626 0.0
H2088 H 0.07947 0.28698 0.20541 0.0
H2089 H 0.13665 0.33035 0.22847 0.0
H2090 H 0.0551 0.29381 0.24272 0.0
H2091 H 0.05878 0.27496 0.24862 0.0
H2092 H 0.05273 0.27685 0.22351 0.0
H2093 H 0.12466 0.34604 0.27067 0.0
H2094 H 0.14387 0.34506 0.26031 0.0
H2095 H 0.12947 0.32807 0.27719 0.0
C2096 C 0.6921 0.74756 0.30137 0.0
C2097 C 0.67384 0.74304 0.30611 0.0
C2098 C 0.70162 0.76065 0.28734 0.0
C2099 C 0.69268 0.76939 0.27801 0.0
C2100 C 0.67461 0.76539 0.28336 0.0
C2101 C 0.66544 0.75228 0.29725 0.0
C2102 C 0.72089 0.7646 0.28203 0.0
C2103 C 0.6646 0.77453 0.27395 0.0
C2104 C 0.71588 0.81365 0.25004 0.0
C2105 C 0.70842 0.80557 0.23084 0.0
C2106 C 0.7124 0.80199 0.26559 0.0
C2107 C 0.70125 0.78182 0.26175 0.0
C2108 C 0.69527 0.77369 0.24215 0.0
C2109 C 0.69885 0.78567 0.22694 0.0
C2110 C 0.71915 0.81124 0.28624 0.0
C2111 C 0.68357 0.75229 0.23736 0.0
H2112 H 0.69869 0.74049 0.30818 0.0
H2113 H 0.65146 0.7491 0.30101 0.0
H2114 H 0.71934 0.75817 0.26699 0.0
H2115 H 0.73125 0.78022 0.28206 0.0
H2116 H 0.72696 0.75857 0.29223 0.0
H2117 H 0.65103 0.77059 0.28046 0.0
H2118 H 0.67417 0.79034 0.27553 0.0
H2119 H 0.66119 0.76999 0.25805 0.0
H2120 H 0.72329 0.82904 0.2531 0.0
H2121 H 0.69336 0.77942 0.21204 0.0
H2122 H 0.7247 0.80384 0.29498 0.0
H2123 H 0.70685 0.8101 0.29342 0.0
H2124 H 0.73056 0.82663 0.28655 0.0
H2125 H 0.6898 0.74529 0.24575 0.0
H2126 H 0.68267 0.74832 0.22149 0.0
H2127 H 0.66877 0.74652 0.2416 0.0
C2128 C 0.24474 0.90697 0.33635 0.0
C2129 C 0.25307 0.92332 0.34959 0.0
C2130 C 0.23467 0.90581 0.31868 0.0
C2131 C 0.23273 0.92135 0.31409 0.0
C2132 C 0.24013 0.93746 0.32783 0.0
C2133 C 0.25028 0.93829 0.34544 0.0
C2134 C 0.22697 0.88833 0.30447 0.0
C2135 C 0.2381 0.95418 0.32356 0.0
C2136 C 0.22904 0.92458 0.25941 0.0
C2137 C 0.2091 0.91451 0.25482 0.0
C2138 C 0.23697 0.92799 0.27884 0.0
C2139 C 0.22466 0.92126 0.29411 0.0
C2140 C 0.20457 0.9123 0.28969 0.0
C2141 C 0.197 0.90897 0.27005 0.0
C2142 C 0.25848 0.93767 0.28288 0.0
C2143 C 0.19099 0.90515 0.30557 0.0
H2144 H 0.24661 0.89522 0.33947 0.0
H2145 H 0.25656 0.95094 0.35562 0.0
H2146 H 0.21156 0.88228 0.29992 0.0
H2147 H 0.23476 0.89242 0.29108 0.0
H2148 H 0.22857 0.87698 0.31079 0.0
H2149 H 0.24215 0.96428 0.33674 0.0
H2150 H 0.2475 0.96209 0.31202 0.0
H2151 H 0.22312 0.94911 0.31794 0.0
H2152 H 0.23846 0.92926 0.2477 0.0
H2153 H 0.18157 0.90116 0.26659 0.0
H2154 H 0.26201 0.92717 0.28801 0.0
H2155 H 0.26398 0.94941 0.29467 0.0
H2156 H 0.26613 0.94365 0.26968 0.0
H2157 H 0.18993 0.89211 0.31087 0.0
H2158 H 0.17634 0.90152 0.30023 0.0
H2159 H 0.19643 0.91601 0.31826 0.0
C2160 C 0.72135 0.94883 0.34118 0.0
C2161 C 0.70398 0.94807 0.34274 0.0
C2162 C 0.72448 0.941 0.32433 0.0
C2163 C 0.70988 0.93212 0.30868 0.0
C2164 C 0.69251 0.93172 0.30992 0.0
C2165 C 0.68978 0.93975 0.32694 0.0
C2166 C 0.74325 0.94184 0.32347 0.0
C2167 C 0.67661 0.92235 0.29349 0.0
C2168 C 0.72221 0.92355 0.25833 0.0
C2169 C 0.71607 0.9041 0.25782 0.0
C2170 C 0.72054 0.93296 0.2749 0.0
C2171 C 0.71249 0.92263 0.29131 0.0
C2172 C 0.70665 0.90309 0.29105 0.0
C2173 C 0.70852 0.89406 0.2743 0.0
C2174 C 0.72695 0.95381 0.27465 0.0
C2175 C 0.69808 0.89163 0.30832 0.0
H2176 H 0.73246 0.95533 0.35327 0.0
H2177 H 0.67632 0.93909 0.32802 0.0
H2178 H 0.74054 0.92712 0.32253 0.0
H2179 H 0.7501 0.94851 0.31014 0.0
H2180 H 0.7535 0.95007 0.33649 0.0
H2181 H 0.66431 0.92394 0.29639 0.0
H2182 H 0.68213 0.92864 0.27956 0.0
H2183 H 0.6713 0.90687 0.29138 0.0
H2184 H 0.72772 0.93129 0.24549 0.0
H2185 H 0.70387 0.87905 0.27398 0.0
H2186 H 0.73751 0.96224 0.28737 0.0
H2187 H 0.71448 0.95546 0.27599 0.0
H2188 H 0.73356 0.95995 0.26102 0.0
H2189 H 0.70818 0.89856 0.32168 0.0
H2190 H 0.69464 0.87669 0.30593 0.0
H2191 H 0.68471 0.89124 0.31115 0.0
C2192 C 0.06999 0.76413 0.2925 0.0
C2193 C 0.06316 0.77135 0.30663 0.0
C2194 C 0.07936 0.77479 0.27689 0.0
C2195 C 0.08188 0.79305 0.27532 0.0
C2196 C 0.07448 0.80014 0.28916 0.0
C2197 C 0.06525 0.78923 0.30466 0.0
C2198 C 0.08709 0.76676 0.26242 0.0
C2199 C 0.07677 0.81949 0.2879 0.0
C2200 C 0.12377 0.82931 0.24892 0.0
C2201 C 0.11474 0.82826 0.23055 0.0
C2202 C 0.11323 0.81791 0.26358 0.0
C2203 C 0.09314 0.80518 0.25983 0.0
C2204 C 0.08388 0.80416 0.24138 0.0
C2205 C 0.0948 0.81571 0.22695 0.0
C2206 C 0.12362 0.81948 0.28309 0.0
C2207 C 0.06247 0.79078 0.23687 0.0
H2208 H 0.06844 0.75033 0.29389 0.0
H2209 H 0.05994 0.7949 0.31542 0.0
H2210 H 0.08167 0.76679 0.24726 0.0
H2211 H 0.10299 0.77595 0.26341 0.0
H2212 H 0.08304 0.75193 0.26505 0.0
H2213 H 0.06921 0.82245 0.29914 0.0
H2214 H 0.09223 0.83087 0.2899 0.0
H2215 H 0.07112 0.82043 0.2732 0.0
H2216 H 0.13912 0.83919 0.25189 0.0
H2217 H 0.08777 0.81466 0.2127 0.0
H2218 H 0.12134 0.80533 0.28613 0.0
H2219 H 0.11772 0.82382 0.29498 0.0
H2220 H 0.13932 0.83001 0.28362 0.0
H2221 H 0.05852 0.77578 0.23822 0.0
H2222 H 0.05743 0.79188 0.22191 0.0
H2223 H 0.05473 0.79398 0.24763 0.0
C2224 C 0.24387 0.33719 0.31204 0.0
C2225 C 0.24271 0.32639 0.32776 0.0
C2226 C 0.23118 0.32882 0.2951 0.0
C2227 C 0.21662 0.30918 0.29391 0.0
C2228 C 0.2153 0.29812 0.30971 0.0
C2229 C 0.22853 0.30683 0.32642 0.0
C2230 C 0.23337 0.34109 0.27846 0.0
C2231 C 0.19976 0.27722 0.30907 0.0
C2232 C 0.17661 0.2989 0.25575 0.0
C2233 C 0.18189 0.29269 0.2393 0.0
C2234 C 0.18677 0.30264 0.27418 0.0
C2235 C 0.20287 0.30059 0.27602 0.0
C2236 C 0.20747 0.29317 0.25967 0.0
C2237 C 0.1968 0.28916 0.24151 0.0
C2238 C 0.18113 0.31014 0.29131 0.0
C2239 C 0.22467 0.29104 0.26088 0.0
H2240 H 0.25493 0.35227 0.31286 0.0
H2241 H 0.22754 0.29844 0.33855 0.0
H2242 H 0.23511 0.33471 0.26477 0.0
H2243 H 0.22026 0.3417 0.27584 0.0
H2244 H 0.24591 0.35595 0.28143 0.0
H2245 H 0.20084 0.27055 0.32243 0.0
H2246 H 0.18545 0.27562 0.30757 0.0
H2247 H 0.20056 0.26926 0.29609 0.0
H2248 H 0.165 0.30153 0.25402 0.0
H2249 H 0.20099 0.28453 0.22872 0.0
H2250 H 0.19162 0.32571 0.29442 0.0
H2251 H 0.18136 0.30308 0.30466 0.0
H2252 H 0.1666 0.30787 0.28836 0.0
H2253 H 0.238 0.30544 0.26194 0.0
H2254 H 0.22468 0.2826 0.24783 0.0
H2255 H 0.2251 0.28404 0.27419 0.0
C2256 C 0.27295 0.35626 0.44619 0.0
C2257 C 0.26571 0.36049 0.42951 0.0
C2258 C 0.26699 0.35751 0.46469 0.0
C2259 C 0.25287 0.36233 0.46632 0.0
C2260 C 0.24538 0.36642 0.44943 0.0
C2261 C 0.25218 0.36582 0.43127 0.0
C2262 C 0.27584 0.35376 0.48246 0.0
C2263 C 0.22984 0.37098 0.45044 0.0
C2264 C 0.22271 0.34619 0.50959 0.0
C2265 C 0.22976 0.36354 0.52098 0.0
C2266 C 0.23009 0.3456 0.4918 0.0
C2267 C 0.24552 0.36263 0.48558 0.0
C2268 C 0.25339 0.38003 0.4974 0.0
C2269 C 0.2452 0.38035 0.51472 0.0
C2270 C 0.22099 0.32683 0.47939 0.0
C2271 C 0.27025 0.39839 0.49155 0.0
H2272 H 0.28355 0.35229 0.44481 0.0
H2273 H 0.24648 0.36893 0.4183 0.0
H2274 H 0.28182 0.36607 0.49368 0.0
H2275 H 0.26469 0.341 0.48913 0.0
H2276 H 0.28748 0.35136 0.47886 0.0
H2277 H 0.22525 0.37338 0.43587 0.0
H2278 H 0.21714 0.35905 0.45647 0.0
H2279 H 0.23499 0.38398 0.46046 0.0
H2280 H 0.21121 0.33298 0.51441 0.0
H2281 H 0.25068 0.39393 0.52307 0.0
H2282 H 0.23182 0.32297 0.47695 0.0
H2283 H 0.21552 0.32825 0.46481 0.0
H2284 H 0.20889 0.31492 0.48619 0.0
H2285 H 0.28197 0.39616 0.48787 0.0
H2286 H 0.27599 0.41021 0.50333 0.0
H2287 H 0.26583 0.40287 0.47828 0.0
C2288 C 0.6433 0.92186 0.43907 0.0
C2289 C 0.65744 0.92191 0.42851 0.0
C2290 C 0.63523 0.90929 0.45386 0.0
C2291 C 0.64132 0.89641 0.45779 0.0
C2292 C 0.65438 0.89539 0.44592 0.0
C2293 C 0.66242 0.90829 0.43159 0.0
C2294 C 0.62135 0.91078 0.46617 0.0
C2295 C 0.66097 0.88161 0.44928 0.0
C2296 C 0.6477 0.88298 0.50823 0.0
C2297 C 0.63316 0.86359 0.50708 0.0
C2298 C 0.64947 0.89428 0.49285 0.0
C2299 C 0.63649 0.88593 0.47579 0.0
C2300 C 0.62091 0.86671 0.47515 0.0
C2301 C 0.6194 0.85574 0.4909 0.0
C2302 C 0.66613 0.91479 0.49429 0.0
C2303 C 0.60673 0.85731 0.45729 0.0
H2304 H 0.6395 0.93244 0.43668 0.0
H2305 H 0.67319 0.90819 0.42321 0.0
H2306 H 0.60935 0.89639 0.46903 0.0
H2307 H 0.62892 0.91855 0.48054 0.0
H2308 H 0.61534 0.91865 0.45908 0.0
H2309 H 0.66938 0.8811 0.43739 0.0
H2310 H 0.67012 0.88606 0.46334 0.0
H2311 H 0.64847 0.86697 0.45034 0.0
H2312 H 0.65814 0.88911 0.52093 0.0
H2313 H 0.60812 0.84073 0.49004 0.0
H2314 H 0.6612 0.9244 0.48975 0.0
H2315 H 0.67683 0.91612 0.48425 0.0
H2316 H 0.67338 0.91977 0.50937 0.0
H2317 H 0.60255 0.86711 0.45148 0.0
H2318 H 0.59359 0.84385 0.46049 0.0
H2319 H 0.61352 0.85384 0.44562 0.0
C2320 C 0.08002 0.75705 0.41892 0.0
C2321 C 0.07941 0.7475 0.40125 0.0
C2322 C 0.09221 0.75922 0.43524 0.0
C2323 C 0.10441 0.75197 0.4338 0.0
C2324 C 0.10399 0.74238 0.41598 0.0
C2325 C 0.09131 0.74007 0.39993 0.0
C2326 C 0.09195 0.76925 0.45407 0.0
C2327 C 0.11705 0.73477 0.41384 0.0
C2328 C 0.14562 0.77643 0.47349 0.0
C2329 C 0.13856 0.76348 0.48794 0.0
C2330 C 0.13541 0.77212 0.45501 0.0
C2331 C 0.11753 0.75464 0.45114 0.0
C2332 C 0.11097 0.74102 0.4653 0.0
C2333 C 0.12166 0.74557 0.48351 0.0
C2334 C 0.1431 0.78686 0.44018 0.0
C2335 C 0.09186 0.72236 0.46191 0.0
H2336 H 0.07074 0.76267 0.42012 0.0
H2337 H 0.09094 0.73274 0.38627 0.0
H2338 H 0.08869 0.75976 0.46617 0.0
H2339 H 0.10629 0.78229 0.45812 0.0
H2340 H 0.08115 0.7735 0.45292 0.0
H2341 H 0.11495 0.72763 0.39903 0.0
H2342 H 0.13226 0.74667 0.41665 0.0
H2343 H 0.11445 0.72439 0.42487 0.0
H2344 H 0.15875 0.79025 0.47693 0.0
H2345 H 0.11611 0.73564 0.49479 0.0
H2346 H 0.13463 0.79382 0.43935 0.0
H2347 H 0.14165 0.77999 0.4254 0.0
H2348 H 0.15842 0.79813 0.4441 0.0
H2349 H 0.08011 0.72524 0.46244 0.0
H2350 H 0.09006 0.71233 0.47313 0.0
H2351 H 0.09025 0.71527 0.44722 0.0
C2352 C 0.30918 0.0583 0.74116 0.0
C2353 C 0.29787 0.0555 0.72379 0.0
C2354 C 0.30719 0.06656 0.75845 0.0
C2355 C 0.29369 0.07233 0.75833 0.0
C2356 C 0.2821 0.06939 0.74091 0.0
C2357 C 0.28426 0.06093 0.72387 0.0
C2358 C 0.3197 0.06931 0.77681 0.0
C2359 C 0.26767 0.07551 0.74019 0.0
C2360 C 0.279 0.08018 0.80767 0.0
C2361 C 0.29155 0.09994 0.81188 0.0
C2362 C 0.27923 0.07101 0.79007 0.0
C2363 C 0.29216 0.08194 0.77633 0.0
C2364 C 0.30431 0.10202 0.78021 0.0
C2365 C 0.30394 0.11077 0.79801 0.0
C2366 C 0.26619 0.04955 0.78653 0.0
C2367 C 0.31807 0.11421 0.76579 0.0
H2368 H 0.31966 0.05407 0.74126 0.0
H2369 H 0.27549 0.05886 0.71051 0.0
H2370 H 0.32903 0.08478 0.78156 0.0
H2371 H 0.31062 0.06228 0.78886 0.0
H2372 H 0.32896 0.06338 0.77465 0.0
H2373 H 0.25944 0.0718 0.72561 0.0
H2374 H 0.2574 0.06862 0.7514 0.0
H2375 H 0.27516 0.09121 0.74368 0.0
H2376 H 0.26956 0.07179 0.8185 0.0
H2377 H 0.31354 0.12608 0.80124 0.0
H2378 H 0.27497 0.04293 0.78595 0.0
H2379 H 0.25758 0.0457 0.77219 0.0
H2380 H 0.25625 0.04328 0.79816 0.0
H2381 H 0.329 0.1103 0.7642 0.0
H2382 H 0.3256 0.12974 0.77044 0.0
H2383 H 0.31028 0.11154 0.75115 0.0
C2384 C 0.94834 0.22102 0.77586 0.0
C2385 C 0.94357 0.2339 0.76889 0.0
C2386 C 0.93972 0.21048 0.79177 0.0
C2387 C 0.92561 0.2125 0.80055 0.0
C2388 C 0.92103 0.2258 0.79383 0.0
C2389 C 0.93027 0.23654 0.77821 0.0
C2390 C 0.94536 0.19683 0.79887 0.0
C2391 C 0.90578 0.22807 0.80255 0.0
C2392 C 0.8883 0.16986 0.82534 0.0
C2393 C 0.89437 0.17611 0.84511 0.0
C2394 C 0.89827 0.18167 0.81067 0.0
C2395 C 0.91491 0.19995 0.81602 0.0
C2396 C 0.92125 0.20614 0.83606 0.0
C2397 C 0.91072 0.19419 0.85042 0.0
C2398 C 0.89085 0.17469 0.78949 0.0
C2399 C 0.93915 0.22533 0.84229 0.0
H2400 H 0.95875 0.21908 0.76877 0.0
H2401 H 0.92646 0.24639 0.77275 0.0
H2402 H 0.94914 0.19946 0.81494 0.0
H2403 H 0.93305 0.18189 0.79589 0.0
H2404 H 0.95775 0.1982 0.79163 0.0
H2405 H 0.90444 0.23954 0.79618 0.0
H2406 H 0.89169 0.2144 0.79997 0.0
H2407 H 0.90907 0.23142 0.81863 0.0
H2408 H 0.87551 0.15588 0.8214 0.0
H2409 H 0.91527 0.19891 0.86581 0.0
H2410 H 0.90186 0.17398 0.78148 0.0
H2411 H 0.88797 0.18492 0.7824 0.0
H2412 H 0.87744 0.16032 0.78786 0.0
H2413 H 0.9516 0.2264 0.83553 0.0
H2414 H 0.94244 0.22774 0.85845 0.0
H2415 H 0.93743 0.23697 0.83709 0.0
C2416 C 0.78434 0.68349 0.74397 0.0
C2417 C 0.76712 0.68308 0.74095 0.0
C2418 C 0.79522 0.69013 0.7622 0.0
C2419 C 0.78817 0.69558 0.77795 0.0
C2420 C 0.77134 0.69624 0.77458 0.0
C2421 C 0.76117 0.69027 0.75595 0.0
C2422 C 0.81353 0.69002 0.76493 0.0
C2423 C 0.763 0.70141 0.79105 0.0
C2424 C 0.79783 0.68239 0.82764 0.0
C2425 C 0.81103 0.70032 0.83755 0.0
C2426 C 0.79016 0.68079 0.80842 0.0
C2427 C 0.79648 0.69745 0.79834 0.0
C2428 C 0.81043 0.71555 0.80781 0.0
C2429 C 0.81727 0.71681 0.82742 0.0
C2430 C 0.77507 0.66119 0.799 0.0
C2431 C 0.81804 0.73355 0.79728 0.0
H2432 H 0.78892 0.67796 0.73228 0.0
H2433 H 0.74771 0.68973 0.7536 0.0
H2434 H 0.82486 0.70308 0.77387 0.0
H2435 H 0.81087 0.67749 0.77284 0.0
H2436 H 0.81895 0.68913 0.75069 0.0
H2437 H 0.75128 0.70351 0.78561 0.0
H2438 H 0.75709 0.68974 0.80105 0.0
H2439 H 0.77425 0.71463 0.79978 0.0
H2440 H 0.79336 0.66944 0.83488 0.0
H2441 H 0.82732 0.73079 0.83482 0.0
H2442 H 0.78054 0.65752 0.78619 0.0
H2443 H 0.76204 0.66113 0.79359 0.0
H2444 H 0.77084 0.64983 0.80928 0.0
H2445 H 0.82293 0.73173 0.78306 0.0
H2446 H 0.83019 0.74622 0.80603 0.0
H2447 H 0.80644 0.73642 0.79406 0.0
C2448 C 0.74686 0.66047 0.62804 0.0
C2449 C 0.74159 0.64542 0.64008 0.0
C2450 C 0.75333 0.66007 0.60962 0.0
C2451 C 0.75444 0.64419 0.60303 0.0
C2452 C 0.74874 0.62875 0.6149 0.0
C2453 C 0.74243 0.62958 0.6333 0.0
C2454 C 0.75938 0.67683 0.59739 0.0
C2455 C 0.74961 0.61151 0.60832 0.0
C2456 C 0.75769 0.63597 0.54884 0.0
C2457 C 0.77742 0.64341 0.54828 0.0
C2458 C 0.74999 0.63618 0.56655 0.0
C2459 C 0.76232 0.64405 0.58408 0.0
C2460 C 0.78224 0.65161 0.5836 0.0
C2461 C 0.78953 0.65115 0.56573 0.0
C2462 C 0.72866 0.6279 0.56653 0.0
C2463 C 0.79586 0.66006 0.60199 0.0
H2464 H 0.74626 0.67277 0.63314 0.0
H2465 H 0.7383 0.61782 0.64244 0.0
H2466 H 0.77486 0.68374 0.59522 0.0
H2467 H 0.75134 0.67184 0.58268 0.0
H2468 H 0.75694 0.68775 0.60427 0.0
H2469 H 0.74383 0.60033 0.61889 0.0
H2470 H 0.74134 0.60515 0.59385 0.0
H2471 H 0.76471 0.61593 0.60654 0.0
H2472 H 0.74829 0.6301 0.53539 0.0
H2473 H 0.80473 0.65658 0.56547 0.0
H2474 H 0.72599 0.63899 0.57236 0.0
H2475 H 0.72239 0.61606 0.5763 0.0
H2476 H 0.72104 0.62234 0.55165 0.0
H2477 H 0.79496 0.6719 0.60904 0.0
H2478 H 0.81101 0.66565 0.59904 0.0
H2479 H 0.79171 0.64904 0.61262 0.0
C2480 C 0.35895 0.08519 0.63715 0.0
C2481 C 0.33942 0.07099 0.63332 0.0
C2482 C 0.36825 0.09953 0.62418 0.0
C2483 C 0.35772 0.09955 0.60711 0.0
C2484 C 0.33836 0.08453 0.60266 0.0
C2485 C 0.32949 0.0705 0.61579 0.0
C2486 C 0.38898 0.11515 0.62929 0.0
C2487 C 0.3266 0.08383 0.58453 0.0
C2488 C 0.36497 0.14349 0.58442 0.0
C2489 C 0.3711 0.14165 0.56626 0.0
C2490 C 0.36227 0.13086 0.59873 0.0
C2491 C 0.36584 0.11604 0.59479 0.0
C2492 C 0.37381 0.11527 0.57724 0.0
C2493 C 0.37631 0.12808 0.56311 0.0
C2494 C 0.35393 0.13235 0.6173 0.0
C2495 C 0.37818 0.09993 0.57266 0.0
H2496 H 0.36672 0.0856 0.65063 0.0
H2497 H 0.31449 0.05938 0.61254 0.0
H2498 H 0.3971 0.11855 0.61614 0.0
H2499 H 0.38972 0.12836 0.63496 0.0
H2500 H 0.39609 0.11115 0.64068 0.0
H2501 H 0.31215 0.07052 0.58258 0.0
H2502 H 0.32475 0.09625 0.5855 0.0
H2503 H 0.33413 0.08479 0.5713 0.0
H2504 H 0.36139 0.15429 0.58709 0.0
H2505 H 0.38115 0.12665 0.54913 0.0
H2506 H 0.36178 0.13111 0.63025 0.0
H2507 H 0.33872 0.1204 0.61679 0.0
H2508 H 0.3544 0.14606 0.61931 0.0
H2509 H 0.38486 0.09755 0.58584 0.0
H2510 H 0.38789 0.10363 0.56076 0.0
H2511 H 0.36459 0.08626 0.56789 0.0
C2512 C 0.91834 0.23552 0.6581 0.0
C2513 C 0.92455 0.25123 0.67179 0.0
C2514 C 0.9078 0.23347 0.64042 0.0
C2515 C 0.90328 0.24744 0.63629 0.0
C2516 C 0.90859 0.26279 0.65045 0.0
C2517 C 0.9192 0.26452 0.66805 0.0
C2518 C 0.90235 0.21684 0.62574 0.0
C2519 C 0.90385 0.27784 0.64663 0.0
C2520 C 0.89891 0.25246 0.58201 0.0
C2521 C 0.87903 0.2409 0.57727 0.0
C2522 C 0.9069 0.25551 0.60137 0.0
C2523 C 0.89469 0.24681 0.61639 0.0
C2524 C 0.87452 0.236 0.61187 0.0
C2525 C 0.8669 0.23317 0.59231 0.0
C2526 C 0.92849 0.26723 0.60556 0.0
C2527 C 0.86104 0.22659 0.6275 0.0
H2528 H 0.92222 0.22506 0.6609 0.0
H2529 H 0.92384 0.27665 0.67857 0.0
H2530 H 0.88679 0.20916 0.6209 0.0
H2531 H 0.91027 0.22225 0.61258 0.0
H2532 H 0.90566 0.20648 0.63178 0.0
H2533 H 0.90684 0.28744 0.65997 0.0
H2534 H 0.91255 0.28668 0.6351 0.0
H2535 H 0.88852 0.27105 0.64116 0.0
H2536 H 0.9083 0.25874 0.57044 0.0
H2537 H 0.85152 0.22416 0.58869 0.0
H2538 H 0.93366 0.25785 0.61026 0.0
H2539 H 0.93274 0.2784 0.61771 0.0
H2540 H 0.93585 0.27428 0.59255 0.0
H2541 H 0.86217 0.21452 0.63238 0.0
H2542 H 0.84585 0.22096 0.62214 0.0
H2543 H 0.86503 0.23686 0.64049 0.0
C2544 C 0.35602 0.27675 0.65594 0.0
C2545 C 0.36815 0.28013 0.67283 0.0
C2546 C 0.35737 0.26816 0.63852 0.0
C2547 C 0.37105 0.26265 0.63803 0.0
C2548 C 0.38348 0.26621 0.65493 0.0
C2549 C 0.38194 0.27498 0.67211 0.0
C2550 C 0.34398 0.26474 0.6207 0.0
C2551 C 0.39815 0.26041 0.655 0.0
C2552 C 0.36007 0.22322 0.59924 0.0
C2553 C 0.37184 0.23367 0.58479 0.0
C2554 C 0.36005 0.23245 0.61687 0.0
C2555 C 0.37192 0.25262 0.61997 0.0
C2556 C 0.38412 0.26321 0.60558 0.0
C2557 C 0.38401 0.25357 0.58817 0.0
C2558 C 0.34705 0.22064 0.63199 0.0
C2559 C 0.39684 0.28475 0.60831 0.0
H2560 H 0.34539 0.28076 0.65633 0.0
H2561 H 0.39135 0.27749 0.68509 0.0
H2562 H 0.35237 0.27144 0.60813 0.0
H2563 H 0.33465 0.24916 0.61648 0.0
H2564 H 0.33469 0.27056 0.62327 0.0
H2565 H 0.40708 0.26465 0.6692 0.0
H2566 H 0.39079 0.24467 0.65196 0.0
H2567 H 0.40777 0.26704 0.64321 0.0
H2568 H 0.35076 0.20781 0.59666 0.0
H2569 H 0.39294 0.26167 0.57689 0.0
H2570 H 0.33618 0.22454 0.63408 0.0
H2571 H 0.3555 0.22373 0.64632 0.0
H2572 H 0.33946 0.20504 0.62774 0.0
H2573 H 0.38784 0.29109 0.60933 0.0
H2574 H 0.40604 0.29077 0.59607 0.0
H2575 H 0.4062 0.28919 0.62221 0.0
C2576 C 0.74207 0.09007 0.61374 0.0
C2577 C 0.7358 0.09809 0.62763 0.0
C2578 C 0.75091 0.09987 0.59747 0.0
C2579 C 0.75335 0.11799 0.59499 0.0
C2580 C 0.74615 0.12567 0.60842 0.0
C2581 C 0.73754 0.11567 0.6246 0.0
C2582 C 0.75844 0.09125 0.58346 0.0
C2583 C 0.74827 0.14484 0.60617 0.0
C2584 C 0.79528 0.15447 0.56888 0.0
C2585 C 0.78633 0.15347 0.55049 0.0
C2586 C 0.78475 0.1427 0.58331 0.0
C2587 C 0.76473 0.12967 0.57932 0.0
C2588 C 0.7556 0.12847 0.56075 0.0
C2589 C 0.76652 0.14039 0.54653 0.0
C2590 C 0.79503 0.14443 0.60296 0.0
C2591 C 0.73427 0.11479 0.55599 0.0
H2592 H 0.74077 0.0765 0.61598 0.0
H2593 H 0.73255 0.12188 0.63515 0.0
H2594 H 0.7534 0.09127 0.56813 0.0
H2595 H 0.77436 0.10007 0.58474 0.0
H2596 H 0.75389 0.07636 0.58641 0.0
H2597 H 0.7405 0.14805 0.61692 0.0
H2598 H 0.76369 0.15632 0.60822 0.0
H2599 H 0.74277 0.14528 0.59119 0.0
H2600 H 0.81053 0.16472 0.57213 0.0
H2601 H 0.75956 0.13936 0.53225 0.0
H2602 H 0.79242 0.13026 0.60644 0.0
H2603 H 0.7893 0.14928 0.6146 0.0
H2604 H 0.81077 0.1547 0.60344 0.0
H2605 H 0.73038 0.09996 0.55828 0.0
H2606 H 0.72947 0.11518 0.54066 0.0
H2607 H 0.72627 0.11839 0.56601 0.0
C2608 C 0.89538 0.64437 0.65302 0.0
C2609 C 0.90312 0.66326 0.66092 0.0
C2610 C 0.88437 0.63779 0.63479 0.0
C2611 C 0.88113 0.6504 0.62423 0.0
C2612 C 0.88811 0.66915 0.6326 0.0
C2613 C 0.89895 0.67531 0.65081 0.0
C2614 C 0.87697 0.61763 0.62645 0.0
C2615 C 0.88497 0.68307 0.62185 0.0
C2616 C 0.87614 0.64644 0.56879 0.0
C2617 C 0.85659 0.63961 0.56457 0.0
C2618 C 0.8841 0.64916 0.58812 0.0
C2619 C 0.8722 0.6449 0.60368 0.0
C2620 C 0.85226 0.63712 0.59949 0.0
C2621 C 0.84467 0.63458 0.57995 0.0
C2622 C 0.90543 0.65745 0.59192 0.0
C2623 C 0.8391 0.63231 0.61566 0.0
H2624 H 0.89842 0.63491 0.66075 0.0
H2625 H 0.90469 0.68987 0.65683 0.0
H2626 H 0.86159 0.61044 0.62097 0.0
H2627 H 0.885 0.61802 0.61381 0.0
H2628 H 0.8786 0.60891 0.63741 0.0
H2629 H 0.89007 0.69661 0.63098 0.0
H2630 H 0.89278 0.68656 0.60846 0.0
H2631 H 0.86951 0.67655 0.61712 0.0
H2632 H 0.88534 0.64998 0.55691 0.0
H2633 H 0.82956 0.62937 0.57677 0.0
H2634 H 0.90816 0.64837 0.60138 0.0
H2635 H 0.91234 0.67187 0.59981 0.0
H2636 H 0.91242 0.65875 0.57818 0.0
H2637 H 0.84152 0.62377 0.62621 0.0
H2638 H 0.82371 0.62419 0.60993 0.0
H2639 H 0.84229 0.6457 0.62387 0.0
C2640 C 0.92764 0.70772 0.77162 0.0
C2641 C 0.92653 0.69103 0.76407 0.0
C2642 C 0.92078 0.70847 0.7897 0.0
C2643 C 0.91256 0.69212 0.8005 0.0
C2644 C 0.9117 0.67534 0.79316 0.0
C2645 C 0.91873 0.675 0.77505 0.0
C2646 C 0.92201 0.72666 0.79708 0.0
C2647 C 0.90301 0.65762 0.80426 0.0
C2648 C 0.90763 0.69882 0.85455 0.0
C2649 C 0.88836 0.69355 0.85424 0.0
C2650 C 0.91569 0.6983 0.83718 0.0
C2651 C 0.90419 0.69238 0.81911 0.0
C2652 C 0.88472 0.68697 0.81872 0.0
C2653 C 0.87705 0.68765 0.83628 0.0
C2654 C 0.93651 0.70417 0.83815 0.0
C2655 C 0.87201 0.68066 0.79973 0.0
H2656 H 0.9337 0.72021 0.7633 0.0
H2657 H 0.91782 0.66205 0.76936 0.0
H2658 H 0.90735 0.72389 0.79827 0.0
H2659 H 0.92972 0.7316 0.81194 0.0
H2660 H 0.92951 0.73836 0.78731 0.0
H2661 H 0.90412 0.64599 0.79694 0.0
H2662 H 0.91024 0.66109 0.8193 0.0
H2663 H 0.88762 0.65224 0.80564 0.0
H2664 H 0.91638 0.70322 0.8684 0.0
H2665 H 0.86224 0.68388 0.8359 0.0
H2666 H 0.94458 0.7165 0.82928 0.0
H2667 H 0.93773 0.69227 0.83182 0.0
H2668 H 0.94345 0.70824 0.85339 0.0
H2669 H 0.87799 0.69238 0.78981 0.0
H2670 H 0.85707 0.67659 0.802 0.0
H2671 H 0.87159 0.66825 0.7922 0.0
C2672 C 0.34013 0.26438 0.78155 0.0
C2673 C 0.32972 0.26448 0.7647 0.0
C2674 C 0.33139 0.25043 0.79479 0.0
C2675 C 0.31167 0.2361 0.79114 0.0
C2676 C 0.30079 0.23663 0.77469 0.0
C2677 C 0.30996 0.25088 0.76163 0.0
C2678 C 0.34352 0.25054 0.81225 0.0
C2679 C 0.27971 0.22167 0.77041 0.0
C2680 C 0.30218 0.19124 0.81362 0.0
C2681 C 0.29665 0.1936 0.83196 0.0
C2682 C 0.30552 0.20415 0.79944 0.0
C2683 C 0.3033 0.21981 0.80372 0.0
C2684 C 0.29613 0.22133 0.82157 0.0
C2685 C 0.29289 0.20817 0.83553 0.0
C2686 C 0.31296 0.20187 0.78052 0.0
C2687 C 0.29335 0.23768 0.82658 0.0
H2688 H 0.35535 0.27501 0.78421 0.0
H2689 H 0.30181 0.25091 0.74867 0.0
H2690 H 0.33679 0.25012 0.82594 0.0
H2691 H 0.3445 0.23761 0.81086 0.0
H2692 H 0.35832 0.26338 0.81366 0.0
H2693 H 0.27269 0.22574 0.75898 0.0
H2694 H 0.27802 0.20788 0.76523 0.0
H2695 H 0.27213 0.21928 0.78388 0.0
H2696 H 0.30469 0.17972 0.81068 0.0
H2697 H 0.28858 0.21002 0.84969 0.0
H2698 H 0.32839 0.21314 0.78065 0.0
H2699 H 0.30521 0.20365 0.76784 0.0
H2700 H 0.31147 0.18769 0.77834 0.0
H2701 H 0.30755 0.25089 0.83072 0.0
H2702 H 0.28436 0.23486 0.83903 0.0
H2703 H 0.28656 0.24043 0.81377 0.0
C2704 C 0.75555 0.05722 0.72693 0.0
C2705 C 0.75875 0.07432 0.71988 0.0
C2706 C 0.76571 0.0575 0.74426 0.0
C2707 C 0.77936 0.07526 0.75461 0.0
C2708 C 0.78385 0.09252 0.74651 0.0
C2709 C 0.77345 0.09183 0.7293 0.0
C2710 C 0.76069 0.03879 0.75229 0.0
C2711 C 0.79849 0.1118 0.7569 0.0
C2712 C 0.7845 0.08163 0.80984 0.0
C2713 C 0.80278 0.08465 0.81435 0.0
C2714 C 0.77624 0.07736 0.7905 0.0
C2715 C 0.78654 0.0761 0.77523 0.0
C2716 C 0.80451 0.07793 0.77981 0.0
C2717 C 0.81244 0.08217 0.79941 0.0
C2718 C 0.75697 0.07534 0.78634 0.0
C2719 C 0.81584 0.07652 0.76396 0.0
H2720 H 0.74427 0.04363 0.71965 0.0
H2721 H 0.77622 0.1051 0.72372 0.0
H2722 H 0.7738 0.03934 0.75833 0.0
H2723 H 0.75141 0.03609 0.76442 0.0
H2724 H 0.75284 0.02658 0.74092 0.0
H2725 H 0.80206 0.12371 0.74751 0.0
H2726 H 0.79273 0.11418 0.77025 0.0
H2727 H 0.8119 0.1123 0.7616 0.0
H2728 H 0.77688 0.08319 0.82147 0.0
H2729 H 0.82657 0.08446 0.80292 0.0
H2730 H 0.74708 0.06201 0.77693 0.0
H2731 H 0.75878 0.08752 0.77829 0.0
H2732 H 0.75014 0.07509 0.79995 0.0
H2733 H 0.80636 0.06434 0.75301 0.0
H2734 H 0.8276 0.07476 0.77003 0.0
H2735 H 0.82228 0.08977 0.75617 0.0
C2736 C 0.05617 0.35592 0.03202 0.0
C2737 C 0.04121 0.35629 0.0405 0.0
C2738 C 0.0682 0.35151 0.04287 0.0
C2739 C 0.06487 0.3469 0.0625 0.0
C2740 C 0.04989 0.34742 0.07117 0.0
C2741 C 0.0384 0.35232 0.06015 0.0
C2742 C 0.08433 0.35156 0.03326 0.0
C2743 C 0.04559 0.34221 0.09191 0.0
C2744 C 0.08253 0.31623 0.08352 0.0
C2745 C 0.09889 0.32974 0.09573 0.0
C2746 C 0.07127 0.32159 0.07279 0.0
C2747 C 0.07669 0.34103 0.07385 0.0
C2748 C 0.0932 0.35477 0.08601 0.0
C2749 C 0.10392 0.34893 0.09699 0.0
C2750 C 0.05354 0.30643 0.06028 0.0
C2751 C 0.09962 0.37568 0.08735 0.0
H2752 H 0.05845 0.35903 0.01687 0.0
H2753 H 0.02675 0.35239 0.06678 0.0
H2754 H 0.09814 0.36094 0.04231 0.0
H2755 H 0.08179 0.33692 0.03222 0.0
H2756 H 0.08575 0.35658 0.01832 0.0
H2757 H 0.03358 0.34356 0.09658 0.0
H2758 H 0.04178 0.32725 0.09317 0.0
H2759 H 0.0585 0.35153 0.10219 0.0
H2760 H 0.07864 0.30144 0.08205 0.0
H2761 H 0.11626 0.35949 0.10661 0.0
H2762 H 0.055 0.30955 0.04469 0.0
H2763 H 0.04076 0.30654 0.06458 0.0
H2764 H 0.05091 0.29186 0.06157 0.0
H2765 H 0.10172 0.38097 0.07253 0.0
H2766 H 0.11323 0.38469 0.09685 0.0
H2767 H 0.08836 0.37757 0.09327 0.0
C2768 C 0.64287 0.68217 0.09393 0.0
C2769 C 0.6521 0.68037 0.07813 0.0
C2770 C 0.64836 0.70024 0.10266 0.0
C2771 C 0.66353 0.71688 0.09551 0.0
C2772 C 0.67293 0.71516 0.0796 0.0
C2773 C 0.66704 0.69693 0.07104 0.0
C2774 C 0.63789 0.70155 0.11949 0.0
C2775 C 0.68927 0.73259 0.07167 0.0
C2776 C 0.66624 0.76393 0.10536 0.0
C2777 C 0.68021 0.77262 0.12137 0.0
C2778 C 0.66064 0.74577 0.09687 0.0
C2779 C 0.66935 0.73613 0.10443 0.0
C2780 C 0.68362 0.74488 0.12043 0.0
C2781 C 0.68885 0.76302 0.12876 0.0
C2782 C 0.64537 0.7369 0.07981 0.0
C2783 C 0.6933 0.73505 0.12881 0.0
H2784 H 0.63131 0.66943 0.09948 0.0
H2785 H 0.67434 0.69567 0.05892 0.0
H2786 H 0.64817 0.70917 0.13261 0.0
H2787 H 0.63132 0.70997 0.11569 0.0
H2788 H 0.62642 0.68724 0.12333 0.0
H2789 H 0.69526 0.72878 0.05942 0.0
H2790 H 0.68426 0.74194 0.0664 0.0
H2791 H 0.70096 0.74107 0.08349 0.0
H2792 H 0.65976 0.77142 0.09933 0.0
H2793 H 0.6995 0.76956 0.14125 0.0
H2794 H 0.63315 0.72294 0.08343 0.0
H2795 H 0.65124 0.73407 0.06682 0.0
H2796 H 0.63985 0.7462 0.07584 0.0
H2797 H 0.68245 0.72127 0.13422 0.0
H2798 H 0.70436 0.74394 0.14106 0.0
H2799 H 0.70024 0.73169 0.11721 0.0
C2800 C 0.31583 0.9609 0.03289 0.0
C2801 C 0.32676 0.95276 0.03753 0.0
C2802 C 0.29814 0.95442 0.04059 0.0
C2803 C 0.2914 0.93971 0.05351 0.0
C2804 C 0.30205 0.93101 0.05773 0.0
C2805 C 0.31952 0.93753 0.04953 0.0
C2806 C 0.287 0.96377 0.03542 0.0
C2807 C 0.29545 0.91544 0.07164 0.0
C2808 C 0.25908 0.93766 0.092 0.0
C2809 C 0.24137 0.92163 0.0847 0.0
C2810 C 0.27541 0.94396 0.08175 0.0
C2811 C 0.27386 0.93417 0.06361 0.0
C2812 C 0.25578 0.91851 0.05574 0.0
C2813 C 0.23976 0.91228 0.06651 0.0
C2814 C 0.29448 0.96057 0.09076 0.0
C2815 C 0.25348 0.90799 0.03626 0.0
H2816 H 0.32129 0.97262 0.02352 0.0
H2817 H 0.32794 0.93125 0.05327 0.0
H2818 H 0.27184 0.95273 0.03048 0.0
H2819 H 0.28687 0.97198 0.04858 0.0
H2820 H 0.29326 0.97368 0.02373 0.0
H2821 H 0.30497 0.90962 0.07276 0.0
H2822 H 0.29516 0.92118 0.08645 0.0
H2823 H 0.28063 0.90352 0.06682 0.0
H2824 H 0.26034 0.94473 0.10619 0.0
H2825 H 0.22601 0.89991 0.06086 0.0
H2826 H 0.301 0.97181 0.08038 0.0
H2827 H 0.30454 0.95564 0.09387 0.0
H2828 H 0.29311 0.96704 0.10463 0.0
H2829 H 0.25973 0.91826 0.02489 0.0
H2830 H 0.23818 0.89728 0.03138 0.0
H2831 H 0.2614 0.90048 0.03734 0.0
C2832 C 0.37086 0.04831 0.00357 0.0
C2833 C 0.36294 0.03741 0.01947 0.0
C2834 C 0.36391 0.05934 0.99601 0.0
C2835 C 0.34859 0.05939 0.00448 0.0
C2836 C 0.34094 0.04891 0.02092 0.0
C2837 C 0.34825 0.0381 0.02826 0.0
C2838 C 0.37255 0.07045 0.97855 0.0
C2839 C 0.32456 0.04856 0.0303 0.0
C2840 C 0.33981 0.09885 0.99196 0.0
C2841 C 0.32537 0.08971 0.9764 0.0
C2842 C 0.34725 0.08906 0.00154 0.0
C2843 C 0.34 0.06964 0.99548 0.0
C2844 C 0.32499 0.06016 0.98022 0.0
C2845 C 0.31791 0.07032 0.97083 0.0
C2846 C 0.36322 0.09963 0.01778 0.0
C2847 C 0.31682 0.03943 0.97339 0.0
H2848 H 0.38226 0.04792 0.99674 0.0
H2849 H 0.34199 0.02969 0.04052 0.0
H2850 H 0.36158 0.06463 0.96581 0.0
H2851 H 0.37716 0.08567 0.98172 0.0
H2852 H 0.3851 0.06981 0.9744 0.0
H2853 H 0.32105 0.04071 0.04372 0.0
H2854 H 0.32813 0.06336 0.03415 0.0
H2855 H 0.31156 0.04158 0.01974 0.0
H2856 H 0.34548 0.11376 0.99651 0.0
H2857 H 0.30697 0.06323 0.95863 0.0
H2858 H 0.37638 0.10036 0.01341 0.0
H2859 H 0.35923 0.09182 0.0312 0.0
H2860 H 0.36663 0.11443 0.02137 0.0
H2861 H 0.32811 0.03781 0.96712 0.0
H2862 H 0.30446 0.03388 0.96211 0.0
H2863 H 0.31204 0.03046 0.98596 0.0
C2864 C 0.93261 0.28797 0.00139 0.0
C2865 C 0.95225 0.30194 0.00253 0.0
C2866 C 0.92556 0.26938 0.99314 0.0
C2867 C 0.93843 0.26472 0.98552 0.0
C2868 C 0.95838 0.27852 0.98732 0.0
C2869 C 0.96509 0.29698 0.99596 0.0
C2870 C 0.90421 0.25495 0.99183 0.0
C2871 C 0.97249 0.27412 0.97923 0.0
C2872 C 0.91655 0.21148 0.97378 0.0
C2873 C 0.90899 0.20921 0.95438 0.0
C2874 C 0.92726 0.22972 0.98392 0.0
C2875 C 0.93058 0.24592 0.97425 0.0
C2876 C 0.92417 0.24373 0.95419 0.0
C2877 C 0.91326 0.22535 0.94454 0.0
C2878 C 0.93375 0.23144 0.00532 0.0
C2879 C 0.92771 0.26067 0.94323 0.0
H2880 H 0.92266 0.29167 0.00665 0.0
H2881 H 0.98029 0.30775 0.99677 0.0
H2882 H 0.89827 0.25148 0.97627 0.0
H2883 H 0.90135 0.24145 0.99775 0.0
H2884 H 0.8964 0.26032 -3e-05 0.0
H2885 H 0.98762 0.28557 0.9838 0.0
H2886 H 0.96999 0.26036 0.98405 0.0
H2887 H 0.97039 0.27258 0.96299 0.0
H2888 H 0.91306 0.19891 0.98137 0.0
H2889 H 0.90742 0.22348 0.92948 0.0
H2890 H 0.92469 0.2345 0.0143 0.0
H2891 H 0.94882 0.2435 0.00861 0.0
H2892 H 0.93259 0.2181 0.00985 0.0
H2893 H 0.91891 0.26621 0.9487 0.0
H2894 H 0.92395 0.25686 0.92722 0.0
H2895 H 0.943 0.27242 0.9458 0.0
C2896 C 0.69795 0.65131 0.05468 0.0
C2897 C 0.68589 0.63226 0.04688 0.0
C2898 C 0.71645 0.66288 0.04865 0.0
C2899 C 0.7229 0.65527 0.03426 0.0
C2900 C 0.71094 0.63595 0.02661 0.0
C2901 C 0.69265 0.62465 0.03312 0.0
C2902 C 0.72894 0.68331 0.05736 0.0
C2903 C 0.71724 0.62735 0.0111 0.0
C2904 C 0.76054 0.68632 0.00081 0.0
C2905 C 0.77609 0.68499 0.00789 0.0
C2906 C 0.74337 0.67755 0.00993 0.0
C2907 C 0.74191 0.66748 0.02664 0.0
C2908 C 0.7581 0.66736 0.03467 0.0
C2909 C 0.77497 0.67598 0.02507 0.0
C2910 C 0.72638 0.67786 0.00081 0.0
C2911 C 0.75724 0.65714 0.0527 0.0
H2912 H 0.69285 0.65729 0.06537 0.0
H2913 H 0.68341 0.60998 0.02694 0.0
H2914 H 0.74311 0.68609 0.06328 0.0
H2915 H 0.73162 0.69324 0.04581 0.0
H2916 H 0.72228 0.68667 0.06928 0.0
H2917 H 0.70628 0.61206 0.0068 0.0
H2918 H 0.7201 0.63542 0.99787 0.0
H2919 H 0.73081 0.62848 0.01649 0.0
H2920 H 0.76137 0.69313 0.9874 0.0
H2921 H 0.78708 0.67505 0.03055 0.0
H2922 H 0.71978 0.68204 0.01208 0.0
H2923 H 0.71528 0.66329 0.99435 0.0
H2924 H 0.73042 0.68788 0.9891 0.0
H2925 H 0.75059 0.66087 0.0643 0.0
H2926 H 0.7717 0.66067 0.05863 0.0
H2927 H 0.74815 0.64145 0.04902 0.0
C2928 C 0.95872 0.64303 0.01432 0.0
C2929 C 0.96488 0.65087 0.0338 0.0
C2930 C 0.94723 0.64735 0.00245 0.0
C2931 C 0.94164 0.65969 0.01027 0.0
C2932 C 0.94715 0.66704 0.03013 0.0
C2933 C 0.95874 0.66258 0.04164 0.0
C2934 C 0.94163 0.63923 0.98134 0.0
C2935 C 0.9413 0.68009 0.03905 0.0
C2936 C 0.92994 0.68783 0.97572 0.0
C2937 C 0.90982 0.6771 0.97396 0.0
C2938 C 0.94048 0.68218 0.98729 0.0
C2939 C 0.93063 0.6655 0.99748 0.0
C2940 C 0.91031 0.65455 0.99566 0.0
C2941 C 0.90015 0.66046 0.98388 0.0
C2942 C 0.96214 0.69416 0.98876 0.0
C2943 C 0.89929 0.63679 0.00643 0.0
H2944 H 0.96338 0.63398 0.0081 0.0
H2945 H 0.96338 0.66867 0.05668 0.0
H2946 H 0.92583 0.63164 0.97808 0.0
H2947 H 0.94814 0.65104 0.97156 0.0
H2948 H 0.94636 0.62913 0.97775 0.0
H2949 H 0.94577 0.68366 0.055 0.0
H2950 H 0.94788 0.6936 0.03169 0.0
H2951 H 0.92549 0.6733 0.03679 0.0
H2952 H 0.93745 0.70066 0.968 0.0
H2953 H 0.88459 0.65232 0.98286 0.0
H2954 H 0.96793 0.68522 0.98417 0.0
H2955 H 0.96783 0.69974 0.0042 0.0
H2956 H 0.9676 0.70646 0.97956 0.0
H2957 H 0.90361 0.62645 0.00253 0.0
H2958 H 0.88351 0.62964 0.00309 0.0
H2959 H 0.90276 0.64058 0.02245 0.0
C2960 C 0.35777 0.32326 0.97062 0.0
C2961 C 0.35465 0.32478 0.99033 0.0
C2962 C 0.35185 0.30544 0.96088 0.0
C2963 C 0.34269 0.28875 0.97112 0.0
C2964 C 0.33976 0.29021 0.99109 0.0
C2965 C 0.34574 0.3082 0.00044 0.0
C2966 C 0.35519 0.30443 0.93956 0.0
C2967 C 0.33016 0.27274 0.00253 0.0
C2968 C 0.31126 0.24023 0.94248 0.0
C2969 C 0.32364 0.23332 0.94242 0.0
C2970 C 0.31733 0.25835 0.95159 0.0
C2971 C 0.33619 0.26973 0.96097 0.0
C2972 C 0.34875 0.26283 0.96091 0.0
C2973 C 0.34234 0.24473 0.95161 0.0
C2974 C 0.30356 0.26529 0.95126 0.0
C2975 C 0.3689 0.27445 0.97089 0.0
H2976 H 0.36459 0.33598 0.96267 0.0
H2977 H 0.34328 0.30922 0.01567 0.0
H2978 H 0.36397 0.29794 0.93762 0.0
H2979 H 0.34127 0.29511 0.93069 0.0
H2980 H 0.36262 0.31875 0.93373 0.0
H2981 H 0.32924 0.27636 0.01805 0.0
H2982 H 0.31542 0.26249 0.99568 0.0
H2983 H 0.3382 0.26534 0.00221 0.0
H2984 H 0.29685 0.23151 0.93528 0.0
H2985 H 0.35186 0.23931 0.95188 0.0
H2986 H 0.3099 0.27908 0.94444 0.0
H2987 H 0.30101 0.26793 0.96644 0.0
H2988 H 0.28953 0.25486 0.94304 0.0
H2989 H 0.37694 0.28856 0.96474 0.0
H2990 H 0.37696 0.26715 0.96924 0.0
H2991 H 0.36837 0.27722 0.98673 0.0
C2992 C 0.69537 0.05753 0.04188 0.0
C2993 C 0.67854 0.04084 0.03391 0.0
C2994 C 0.71296 0.06358 0.03405 0.0
C2995 C 0.7134 0.05319 0.0173 0.0
C2996 C 0.69649 0.03601 0.00963 0.0
C2997 C 0.67935 0.02986 0.0183 0.0
C2998 C 0.73089 0.08142 0.04325 0.0
C2999 C 0.69612 0.02485 0.99139 0.0
C3000 C 0.74849 0.08077 0.98038 0.0
C3001 C 0.76083 0.07374 0.98147 0.0
C3002 C 0.73321 0.07437 0.99213 0.0
C3003 C 0.73072 0.0614 0.00623 0.0
C3004 C 0.74387 0.05527 0.00852 0.0
C3005 C 0.75852 0.06117 0.99583 0.0
C3006 C 0.71926 0.08094 0.98885 0.0
C3007 C 0.7422 0.04211 0.02399 0.0
H3008 H 0.69474 0.0659 0.0541 0.0
H3009 H 0.66628 0.01702 0.01203 0.0
H3010 H 0.74318 0.07929 0.04426 0.0
H3011 H 0.7347 0.09344 0.03402 0.0
H3012 H 0.72893 0.08561 0.05813 0.0
H3013 H 0.68199 0.01135 0.98783 0.0
H3014 H 0.69926 0.03375 0.97878 0.0
H3015 H 0.70736 0.02128 0.99312 0.0
H3016 H 0.75054 0.09115 0.97007 0.0
H3017 H 0.76783 0.05555 0.99694 0.0
H3018 H 0.71896 0.0885 0.00244 0.0
H3019 H 0.70452 0.06836 0.98506 0.0
H3020 H 0.72298 0.09069 0.97691 0.0
H3021 H 0.73935 0.04678 0.03813 0.0
H3022 H 0.75541 0.04158 0.0263 0.0
H3023 H 0.72996 0.0274 0.01953 0.0
C3024 C 0.62325 0.9453 0.05793 0.0
C3025 C 0.63313 0.9583 0.0441 0.0
C3026 C 0.63068 0.93513 0.06665 0.0
C3027 C 0.64863 0.93836 0.06172 0.0
C3028 C 0.6582 0.95075 0.04707 0.0
C3029 C 0.65023 0.96042 0.03828 0.0
C3030 C 0.61983 0.92168 0.08189 0.0
C3031 C 0.67749 0.95482 0.04162 0.0
C3032 C 0.67766 0.93217 0.10238 0.0
C3033 C 0.67498 0.91445 0.09633 0.0
C3034 C 0.66958 0.94034 0.09092 0.0
C3035 C 0.65821 0.93028 0.07324 0.0
C3036 C 0.65567 0.91242 0.067 0.0
C3037 C 0.66426 0.90476 0.0786 0.0
C3038 C 0.67294 0.95959 0.09791 0.0
C3039 C 0.64341 0.90114 0.04844 0.0
H3040 H 0.60998 0.94353 0.06239 0.0
H3041 H 0.65802 0.97053 0.02768 0.0
H3042 H 0.61879 0.9078 0.07898 0.0
H3043 H 0.62769 0.92791 0.09656 0.0
H3044 H 0.6051 0.91898 0.08232 0.0
H3045 H 0.68215 0.96331 0.02867 0.0
H3046 H 0.68845 0.96293 0.05414 0.0
H3047 H 0.67707 0.94128 0.03845 0.0
H3048 H 0.68593 0.93953 0.11619 0.0
H3049 H 0.6621 0.89092 0.07416 0.0
H3050 H 0.65911 0.95806 0.10105 0.0
H3051 H 0.67882 0.96963 0.0863 0.0
H3052 H 0.68303 0.966 0.11137 0.0
H3053 H 0.62838 0.8972 0.04974 0.0
H3054 H 0.6435 0.88785 0.04525 0.0
H3055 H 0.64852 0.91 0.03582 0.0
C3056 C 0.03786 0.70739 0.06987 0.0
C3057 C 0.05101 0.7015 0.06813 0.0
C3058 C 0.04387 0.72582 0.07804 0.0
C3059 C 0.06346 0.7386 0.08461 0.0
C3060 C 0.07692 0.73307 0.08194 0.0
C3061 C 0.07054 0.71461 0.07373 0.0
C3062 C 0.02915 0.73129 0.08047 0.0
C3063 C 0.09799 0.74633 0.08861 0.0
C3064 C 0.08741 0.79196 0.09698 0.0
C3065 C 0.08962 0.79306 0.11749 0.0
C3066 C 0.07761 0.77418 0.08594 0.0
C3067 C 0.06992 0.75718 0.0957 0.0
C3068 C 0.07081 0.75823 0.11641 0.0
C3069 C 0.08069 0.77618 0.12707 0.0
C3070 C 0.07685 0.77367 0.06388 0.0
C3071 C 0.06263 0.74045 0.12739 0.0
H3072 H 0.02275 0.69739 0.0655 0.0
H3073 H 0.08083 0.71027 0.0723 0.0
H3074 H 0.02703 0.73211 0.09622 0.0
H3075 H 0.03423 0.74563 0.07526 0.0
H3076 H 0.01505 0.72077 0.0724 0.0
H3077 H 0.10674 0.7403 0.08435 0.0
H3078 H 0.10366 0.7603 0.0823 0.0
H3079 H 0.09986 0.74911 0.10479 0.0
H3080 H 0.09445 0.80499 0.08951 0.0
H3081 H 0.08222 0.77704 0.14293 0.0
H3082 H 0.06238 0.76244 0.05717 0.0
H3083 H 0.08726 0.77009 0.05873 0.0
H3084 H 0.08051 0.78765 0.05856 0.0
H3085 H 0.04776 0.7297 0.12125 0.0
H3086 H 0.06249 0.74358 0.14326 0.0
H3087 H 0.07141 0.73392 0.12573 0.0
C3088 C 0.30642 0.3758 0.03424 0.0
C3089 C 0.31549 0.36778 0.02453 0.0
C3090 C 0.28905 0.36421 0.04239 0.0
C3091 C 0.28047 0.34409 0.04074 0.0
C3092 C 0.2889 0.33582 0.02994 0.0
C3093 C 0.30635 0.34777 0.02199 0.0
C3094 C 0.28046 0.3736 0.05374 0.0
C3095 C 0.28005 0.31442 0.02768 0.0
C3096 C 0.25189 0.32113 0.08354 0.0
C3097 C 0.23327 0.31552 0.0761 0.0
C3098 C 0.26723 0.32942 0.07178 0.0
C3099 C 0.26384 0.33211 0.05206 0.0
C3100 C 0.24485 0.32522 0.04407 0.0
C3101 C 0.22975 0.317 0.05623 0.0
C3102 C 0.28724 0.33643 0.08083 0.0
C3103 C 0.24065 0.32763 0.02307 0.0
H3104 H 0.31326 0.39122 0.03616 0.0
H3105 H 0.31319 0.34142 0.01441 0.0
H3106 H 0.2651 0.36711 0.04857 0.0
H3107 H 0.28118 0.3712 0.06948 0.0
H3108 H 0.28807 0.38926 0.05237 0.0
H3109 H 0.28681 0.31015 0.01664 0.0
H3110 H 0.28184 0.3094 0.04192 0.0
H3111 H 0.26441 0.307 0.02332 0.0
H3112 H 0.25457 0.3197 0.09883 0.0
H3113 H 0.21538 0.31275 0.05044 0.0
H3114 H 0.29591 0.35231 0.08182 0.0
H3115 H 0.29447 0.33122 0.07154 0.0
H3116 H 0.28719 0.33169 0.09576 0.0
H3117 H 0.24577 0.34289 0.02145 0.0
H3118 H 0.22504 0.31891 0.01829 0.0
H3119 H 0.24839 0.32356 0.01316 0.0
C3120 C 0.70544 0.69424 0.38986 0.0
C3121 C 0.70066 0.68803 0.36986 0.0
C3122 C 0.71646 0.68928 0.40163 0.0
C3123 C 0.72295 0.67792 0.3932 0.0
C3124 C 0.71855 0.67198 0.37295 0.0
C3125 C 0.70744 0.67708 0.36153 0.0
C3126 C 0.72087 0.6959 0.42317 0.0
C3127 C 0.72533 0.65997 0.36339 0.0
C3128 C 0.76484 0.6777 0.41935 0.0
C3129 C 0.75548 0.66036 0.42817 0.0
C3130 C 0.75443 0.68368 0.4081 0.0
C3131 C 0.73415 0.67204 0.4056 0.0
C3132 C 0.72459 0.65461 0.41463 0.0
C3133 C 0.73538 0.64895 0.42577 0.0
C3134 C 0.76516 0.70229 0.3986 0.0
C3135 C 0.70297 0.64185 0.41238 0.0
H3136 H 0.70024 0.70268 0.39645 0.0
H3137 H 0.70384 0.67222 0.34611 0.0
H3138 H 0.71458 0.68332 0.43198 0.0
H3139 H 0.73662 0.70414 0.42706 0.0
H3140 H 0.71512 0.70499 0.42739 0.0
H3141 H 0.72118 0.657 0.34737 0.0
H3142 H 0.74118 0.66733 0.36591 0.0
H3143 H 0.71914 0.64613 0.37009 0.0
H3144 H 0.7804 0.68641 0.42083 0.0
H3145 H 0.72808 0.63559 0.43265 0.0
H3146 H 0.76005 0.71183 0.40315 0.0
H3147 H 0.76229 0.69949 0.38245 0.0
H3148 H 0.78092 0.70994 0.40243 0.0
H3149 H 0.69643 0.64994 0.41751 0.0
H3150 H 0.69772 0.62898 0.4207 0.0
H3151 H 0.69786 0.63712 0.39669 0.0
C3152 C 0.30926 0.00919 0.43315 0.0
C3153 C 0.31207 0.00651 0.41358 0.0
C3154 C 0.31551 0.02751 0.44181 0.0
C3155 C 0.3247 0.04352 0.43061 0.0
C3156 C 0.32747 0.04091 0.41082 0.0
C3157 C 0.32117 0.02245 0.40256 0.0
C3158 C 0.31234 0.02975 0.46297 0.0
C3159 C 0.3371 0.05762 0.39837 0.0
C3160 C 0.32449 0.08798 0.44712 0.0
C3161 C 0.34309 0.09982 0.4564 0.0
C3162 C 0.31837 0.06967 0.43862 0.0
C3163 C 0.33111 0.06298 0.4395 0.0
C3164 C 0.34993 0.07487 0.44883 0.0
C3165 C 0.35573 0.09321 0.4571 0.0
C3166 C 0.29827 0.05752 0.42862 0.0
C3167 C 0.36388 0.06817 0.45016 0.0
H3168 H 0.30232 0.99699 0.4418 0.0
H3169 H 0.32341 0.02053 0.38744 0.0
H3170 H 0.3263 0.03968 0.47155 0.0
H3171 H 0.30337 0.03611 0.4641 0.0
H3172 H 0.30519 0.01589 0.46974 0.0
H3173 H 0.33815 0.05318 0.38322 0.0
H3174 H 0.32896 0.06493 0.39763 0.0
H3175 H 0.35177 0.06826 0.40511 0.0
H3176 H 0.31479 0.09317 0.44626 0.0
H3177 H 0.37008 0.1023 0.46435 0.0
H3178 H 0.29021 0.04391 0.43567 0.0
H3179 H 0.29886 0.05376 0.41307 0.0
H3180 H 0.29017 0.06488 0.42915 0.0
H3181 H 0.35777 0.05493 0.45795 0.0
H3182 H 0.37796 0.07913 0.45796 0.0
H3183 H 0.3663 0.0646 0.43526 0.0
C3184 C 0.99643 0.27855 0.38688 0.0
C3185 C 0.00571 0.29456 0.37603 0.0
C3186 C 0.97816 0.27226 0.39298 0.0
C3187 C 0.96878 0.28201 0.38779 0.0
C3188 C 0.97781 0.29784 0.37635 0.0
C3189 C 0.99626 0.30405 0.37075 0.0
C3190 C 0.96911 0.25547 0.40541 0.0
C3191 C 0.96808 0.30835 0.37023 0.0
C3192 C 0.91521 0.2532 0.3927 0.0
C3193 C 0.9143 0.26043 0.41118 0.0
C3194 C 0.93274 0.26089 0.38432 0.0
C3195 C 0.94975 0.27584 0.39492 0.0
C3196 C 0.94873 0.28371 0.41323 0.0
C3197 C 0.93095 0.27599 0.42107 0.0
C3198 C 0.93318 0.2524 0.36458 0.0
C3199 C 0.96657 0.29946 0.42512 0.0
H3200 H 0.00368 0.27122 0.39112 0.0
H3201 H 0.00331 0.31639 0.36228 0.0
H3202 H 0.96644 0.25998 0.41973 0.0
H3203 H 0.95502 0.24399 0.39817 0.0
H3204 H 0.97829 0.24943 0.40812 0.0
H3205 H 0.9766 0.31974 0.36047 0.0
H3206 H 0.95372 0.29815 0.36253 0.0
H3207 H 0.96582 0.31499 0.38337 0.0
H3208 H 0.90227 0.24117 0.38506 0.0
H3209 H 0.93026 0.28138 0.43549 0.0
H3210 H 0.94039 0.24426 0.3664 0.0
H3211 H 0.94157 0.2639 0.3549 0.0
H3212 H 0.91853 0.24258 0.35722 0.0
H3213 H 0.97582 0.29397 0.42986 0.0
H3214 H 0.96315 0.30496 0.43834 0.0
H3215 H 0.97503 0.31154 0.4161 0.0
C3216 C 0.04042 0.38565 0.36687 0.0
C3217 C 0.05267 0.38149 0.35739 0.0
C3218 C 0.03573 0.3985 0.35954 0.0
C3219 C 0.04359 0.40747 0.3424 0.0
C3220 C 0.0566 0.40396 0.33325 0.0
C3221 C 0.06095 0.39096 0.34082 0.0
C3222 C 0.02175 0.40185 0.36966 0.0
C3223 C 0.06539 0.41338 0.31502 0.0
C3224 C 0.01595 0.42252 0.30959 0.0
C3225 C 0.02605 0.44237 0.31425 0.0
C3226 C 0.02129 0.41098 0.31895 0.0
C3227 C 0.03722 0.4195 0.33325 0.0
C3228 C 0.04731 0.43948 0.33827 0.0
C3229 C 0.04157 0.45068 0.32873 0.0
C3230 C 0.01014 0.38971 0.31321 0.0
C3231 C 0.06436 0.44905 0.35343 0.0
H3232 H 0.03395 0.3784 0.37968 0.0
H3233 H 0.07052 0.38791 0.33346 0.0
H3234 H 0.02779 0.4174 0.37272 0.0
H3235 H 0.00832 0.39602 0.35991 0.0
H3236 H 0.01808 0.39494 0.38365 0.0
H3237 H 0.07631 0.41022 0.31052 0.0
H3238 H 0.05398 0.40829 0.30278 0.0
H3239 H 0.07226 0.42912 0.31743 0.0
H3240 H 0.00416 0.41602 0.29818 0.0
H3241 H 0.04931 0.46598 0.33255 0.0
H3242 H 0.00492 0.38167 0.32635 0.0
H3243 H 0.01966 0.38558 0.30671 0.0
H3244 H 0.99761 0.38523 0.30245 0.0
H3245 H 0.06024 0.44236 0.36747 0.0
H3246 H 0.07028 0.46464 0.35613 0.0
H3247 H 0.07588 0.44701 0.34856 0.0
C3248 C 0.59963 0.63458 0.31222 0.0
C3249 C 0.61711 0.64473 0.32397 0.0
C3250 C 0.59152 0.61527 0.30587 0.0
C3251 C 0.60105 0.60578 0.31148 0.0
C3252 C 0.61885 0.61596 0.32307 0.0
C3253 C 0.6267 0.63535 0.32917 0.0
C3254 C 0.57254 0.60492 0.29343 0.0
C3255 C 0.62939 0.60629 0.32935 0.0
C3256 C 0.56676 0.55231 0.31092 0.0
C3257 C 0.5686 0.54597 0.29238 0.0
C3258 C 0.57819 0.57164 0.31788 0.0
C3259 C 0.59169 0.58494 0.30593 0.0
C3260 C 0.59446 0.57841 0.28771 0.0
C3261 C 0.58288 0.55892 0.28116 0.0
C3262 C 0.57493 0.57797 0.33748 0.0
C3263 C 0.60871 0.59215 0.27457 0.0
H3264 H 0.59217 0.64171 0.308 0.0
H3265 H 0.64025 0.64309 0.3382 0.0
H3266 H 0.57387 0.59834 0.27965 0.0
H3267 H 0.56149 0.59318 0.30134 0.0
H3268 H 0.5674 0.61458 0.28965 0.0
H3269 H 0.64362 0.61648 0.33737 0.0
H3270 H 0.62066 0.59489 0.33899 0.0
H3271 H 0.63152 0.59931 0.3164 0.0
H3272 H 0.55586 0.54222 0.31969 0.0
H3273 H 0.58424 0.55402 0.26678 0.0
H3274 H 0.56805 0.58637 0.33522 0.0
H3275 H 0.58881 0.58739 0.34638 0.0
H3276 H 0.56556 0.56565 0.3459 0.0
H3277 H 0.60337 0.60094 0.26841 0.0
H3278 H 0.61097 0.58459 0.26223 0.0
H3279 H 0.62274 0.60209 0.283 0.0
C3280 C 0.35651 0.94683 0.38072 0.0
C3281 C 0.34672 0.95632 0.38376 0.0
C3282 C 0.37401 0.95577 0.37224 0.0
C3283 C 0.38172 0.97453 0.36636 0.0
C3284 C 0.3725 0.98461 0.37046 0.0
C3285 C 0.35515 0.97541 0.37927 0.0
C3286 C 0.3836 0.94466 0.36845 0.0
C3287 C 0.3802 0.00457 0.36429 0.0
C3288 C 0.43224 0.999 0.35 0.0
C3289 C 0.42827 0.99345 0.32991 0.0
C3290 C 0.41722 0.99349 0.36212 0.0
C3291 C 0.39794 0.98246 0.35377 0.0
C3292 C 0.39401 0.97771 0.33328 0.0
C3293 C 0.40924 0.98311 0.32163 0.0
C3294 C 0.42195 0.99866 0.38391 0.0
C3295 C 0.37367 0.96627 0.32374 0.0
H3296 H 0.35017 0.93215 0.38438 0.0
H3297 H 0.34764 0.98283 0.38157 0.0
H3298 H 0.3822 0.94082 0.35249 0.0
H3299 H 0.39916 0.95354 0.3733 0.0
H3300 H 0.37714 0.93128 0.37606 0.0
H3301 H 0.37297 0.01139 0.37095 0.0
H3302 H 0.39588 0.01376 0.36839 0.0
H3303 H 0.37789 0.00393 0.34812 0.0
H3304 H 0.44703 0.00693 0.35632 0.0
H3305 H 0.4063 0.97898 0.30602 0.0
H3306 H 0.41744 0.9855 0.39152 0.0
H3307 H 0.41393 0.00504 0.38948 0.0
H3308 H 0.43755 0.00888 0.38782 0.0
H3309 H 0.36625 0.9516 0.32869 0.0
H3310 H 0.37315 0.96516 0.3075 0.0
H3311 H 0.36554 0.97292 0.32816 0.0
C3312 C 0.60313 0.94283 0.34888 0.0
C3313 C 0.62284 0.95637 0.35267 0.0
C3314 C 0.59102 0.94715 0.33803 0.0
C3315 C 0.59886 0.96539 0.33072 0.0
C3316 C 0.61878 0.979 0.33426 0.0
C3317 C 0.6305 0.97436 0.34521 0.0
C3318 C 0.56982 0.93232 0.33464 0.0
C3319 C 0.62772 0.99858 0.32664 0.0
C3320 C 0.57162 0.97326 0.28927 0.0
C3321 C 0.56402 0.98254 0.29945 0.0
C3322 C 0.58276 0.96731 0.29927 0.0
C3323 C 0.58622 0.9706 0.31993 0.0
C3324 C 0.57826 0.97964 0.33029 0.0
C3325 C 0.5673 0.98553 0.31992 0.0
C3326 C 0.59112 0.95783 0.28772 0.0
C3327 C 0.58148 0.98328 0.35232 0.0
H3328 H 0.59709 0.92892 0.35457 0.0
H3329 H 0.64573 0.9849 0.34795 0.0
H3330 H 0.56151 0.93784 0.34142 0.0
H3331 H 0.56524 0.92939 0.31872 0.0
H3332 H 0.56605 0.91865 0.34085 0.0
H3333 H 0.64355 0.00728 0.33008 0.0
H3334 H 0.62448 0.99718 0.31054 0.0
H3335 H 0.62146 0.00643 0.33316 0.0
H3336 H 0.56914 0.97097 0.27344 0.0
H3337 H 0.56111 0.99235 0.32788 0.0
H3338 H 0.58673 0.94373 0.29318 0.0
H3339 H 0.60703 0.96673 0.28975 0.0
H3340 H 0.58651 0.95569 0.27181 0.0
H3341 H 0.57675 0.96969 0.35913 0.0
H3342 H 0.57363 0.98977 0.35821 0.0
H3343 H 0.59702 0.99304 0.35682 0.0
C3344 C 0.02928 0.66593 0.31362 0.0
C3345 C 0.04807 0.67936 0.32164 0.0
C3346 C 0.02453 0.64813 0.30484 0.0
C3347 C 0.03888 0.64357 0.30406 0.0
C3348 C 0.05793 0.65711 0.31189 0.0
C3349 C 0.0623 0.67487 0.32058 0.0
C3350 C 0.00406 0.63407 0.29663 0.0
C3351 C 0.0736 0.65273 0.31133 0.0
C3352 C 0.02193 0.59081 0.29945 0.0
C3353 C 0.02274 0.58756 0.27941 0.0
C3354 C 0.02735 0.60901 0.30769 0.0
C3355 C 0.03375 0.62437 0.29558 0.0
C3356 C 0.03473 0.62123 0.27535 0.0
C3357 C 0.02922 0.60285 0.2675 0.0
C3358 C 0.02616 0.6118 0.32934 0.0
C3359 C 0.0414 0.63723 0.26198 0.0
H3360 H 0.01818 0.66927 0.3143 0.0
H3361 H 0.07685 0.68515 0.32672 0.0
H3362 H 0.00367 0.62981 0.28098 0.0
H3363 H 0.99796 0.6209 0.30453 0.0
H3364 H 0.99473 0.64005 0.29787 0.0
H3365 H 0.08779 0.665 0.31754 0.0
H3366 H 0.06994 0.6402 0.31974 0.0
H3367 H 0.07483 0.64889 0.29602 0.0
H3368 H 0.01727 0.57912 0.30879 0.0
H3369 H 0.02975 0.60038 0.25198 0.0
H3370 H 0.0161 0.61671 0.33163 0.0
H3371 H 0.04044 0.62306 0.33643 0.0
H3372 H 0.02122 0.59845 0.33677 0.0
H3373 H 0.03167 0.64279 0.26191 0.0
H3374 H 0.04178 0.63254 0.24669 0.0
H3375 H 0.05596 0.64928 0.26744 0.0
C3376 C 0.34528 0.36426 0.36337 0.0
C3377 C 0.33841 0.3767 0.36311 0.0
C3378 C 0.36236 0.36896 0.3552 0.0
C3379 C 0.37278 0.38647 0.34653 0.0
C3380 C 0.36658 0.3996 0.34733 0.0
C3381 C 0.34948 0.39457 0.35565 0.0
C3382 C 0.36863 0.35468 0.35483 0.0
C3383 C 0.37736 0.41847 0.3383 0.0
C3384 C 0.423 0.40593 0.33082 0.0
C3385 C 0.41902 0.40108 0.31056 0.0
C3386 C 0.40805 0.40058 0.34298 0.0
C3387 C 0.38877 0.39016 0.3346 0.0
C3388 C 0.38472 0.38433 0.31432 0.0
C3389 C 0.3999 0.38987 0.30256 0.0
C3390 C 0.41291 0.40692 0.36456 0.0
C3391 C 0.36436 0.37305 0.30483 0.0
H3392 H 0.33693 0.35048 0.36928 0.0
H3393 H 0.34436 0.40433 0.3555 0.0
H3394 H 0.36621 0.34815 0.33966 0.0
H3395 H 0.3842 0.36188 0.3594 0.0
H3396 H 0.36056 0.34304 0.36451 0.0
H3397 H 0.37175 0.42784 0.34183 0.0
H3398 H 0.39285 0.42621 0.34346 0.0
H3399 H 0.37612 0.41583 0.32215 0.0
H3400 H 0.4378 0.41473 0.337 0.0
H3401 H 0.39683 0.38592 0.28692 0.0
H3402 H 0.40396 0.39482 0.37338 0.0
H3403 H 0.40971 0.41821 0.36796 0.0
H3404 H 0.4283 0.41274 0.36917 0.0
H3405 H 0.35555 0.36006 0.31259 0.0
H3406 H 0.36363 0.36863 0.28914 0.0
H3407 H 0.35778 0.38185 0.30591 0.0
C3408 C 0.28934 0.27563 0.37225 0.0
C3409 C 0.29077 0.2905 0.38444 0.0
C3410 C 0.29628 0.26432 0.37906 0.0
C3411 C 0.30529 0.26831 0.39833 0.0
C3412 C 0.30676 0.2833 0.41069 0.0
C3413 C 0.29928 0.29405 0.40368 0.0
C3414 C 0.29404 0.24813 0.36564 0.0
C3415 C 0.31659 0.28826 0.43122 0.0
C3416 C 0.31006 0.23143 0.42508 0.0
C3417 C 0.3292 0.23704 0.42284 0.0
C3418 C 0.30187 0.24095 0.41644 0.0
C3419 C 0.31319 0.25686 0.40574 0.0
C3420 C 0.33241 0.2625 0.40316 0.0
C3421 C 0.3401 0.25239 0.41154 0.0
C3422 C 0.28123 0.23432 0.41929 0.0
C3423 C 0.34504 0.2796 0.39209 0.0
H3424 H 0.28275 0.27282 0.35738 0.0
H3425 H 0.30064 0.30567 0.41311 0.0
H3426 H 0.30836 0.25068 0.36296 0.0
H3427 H 0.28625 0.23449 0.37269 0.0
H3428 H 0.2861 0.24647 0.35132 0.0
H3429 H 0.31682 0.30057 0.43883 0.0
H3430 H 0.30917 0.27576 0.44001 0.0
H3431 H 0.3316 0.29184 0.43075 0.0
H3432 H 0.30154 0.21992 0.4341 0.0
H3433 H 0.35476 0.25669 0.4094 0.0
H3434 H 0.27318 0.23246 0.40501 0.0
H3435 H 0.2807 0.24532 0.42865 0.0
H3436 H 0.27383 0.22061 0.4263 0.0
H3437 H 0.33819 0.27786 0.37714 0.0
H3438 H 0.35949 0.2818 0.39091 0.0
H3439 H 0.3468 0.2927 0.39962 0.0
C3440 C 0.73373 0.03355 0.41969 0.0
C3441 C 0.71423 0.02146 0.41326 0.0
C3442 C 0.74139 0.05283 0.42578 0.0
C3443 C 0.72919 0.06018 0.42574 0.0
C3444 C 0.70947 0.04809 0.41932 0.0
C3445 C 0.70223 0.02886 0.41299 0.0
C3446 C 0.76259 0.06534 0.43229 0.0
C3447 C 0.69601 0.05539 0.41939 0.0
C3448 C 0.75088 0.10506 0.45998 0.0
C3449 C 0.76003 0.11924 0.44703 0.0
C3450 C 0.73934 0.08572 0.45305 0.0
C3451 C 0.73733 0.08053 0.43273 0.0
C3452 C 0.74552 0.09494 0.4195 0.0
C3453 C 0.75671 0.11421 0.42683 0.0
C3454 C 0.7305 0.07082 0.4676 0.0
C3455 C 0.74389 0.08999 0.39777 0.0
H3456 H 0.74312 0.02797 0.4198 0.0
H3457 H 0.68711 0.01956 0.40811 0.0
H3458 H 0.76939 0.07791 0.42349 0.0
H3459 H 0.76464 0.07084 0.44783 0.0
H3460 H 0.7702 0.05755 0.43081 0.0
H3461 H 0.68109 0.04419 0.41373 0.0
H3462 H 0.69583 0.06057 0.43451 0.0
H3463 H 0.70114 0.06772 0.41031 0.0
H3464 H 0.75346 0.10906 0.47561 0.0
H3465 H 0.76397 0.12524 0.41687 0.0
H3466 H 0.73855 0.06345 0.46905 0.0
H3467 H 0.7154 0.05981 0.46244 0.0
H3468 H 0.73083 0.07722 0.4823 0.0
H3469 H 0.75285 0.08388 0.39483 0.0
H3470 H 0.74877 0.10273 0.3893 0.0
H3471 H 0.72886 0.079 0.39237 0.0
C3472 C 0.97427 0.68822 0.3575 0.0
C3473 C 0.98425 0.70774 0.36401 0.0
C3474 C 0.95551 0.67562 0.36245 0.0
C3475 C 0.94667 0.68268 0.37437 0.0
C3476 C 0.95652 0.70241 0.38062 0.0
C3477 C 0.97511 0.7147 0.37527 0.0
C3478 C 0.94531 0.65472 0.35527 0.0
C3479 C 0.94764 0.71051 0.39346 0.0
C3480 C 0.89341 0.65857 0.3794 0.0
C3481 C 0.89214 0.65153 0.39783 0.0
C3482 C 0.91082 0.66736 0.37071 0.0
C3483 C 0.92738 0.66956 0.38101 0.0
C3484 C 0.92583 0.66137 0.39909 0.0
C3485 C 0.90813 0.65229 0.40722 0.0
C3486 C 0.91178 0.67547 0.3512 0.0
C3487 C 0.94317 0.6636 0.41065 0.0
H3488 H 0.9812 0.68273 0.34873 0.0
H3489 H 0.98268 0.72973 0.38039 0.0
H3490 H 0.94298 0.64598 0.36788 0.0
H3491 H 0.93096 0.64994 0.34788 0.0
H3492 H 0.95357 0.65177 0.34491 0.0
H3493 H 0.95716 0.72621 0.39693 0.0
H3494 H 0.93384 0.70749 0.38613 0.0
H3495 H 0.94445 0.70352 0.40741 0.0
H3496 H 0.88097 0.6579 0.37217 0.0
H3497 H 0.90715 0.64701 0.4216 0.0
H3498 H 0.92018 0.67213 0.34148 0.0
H3499 H 0.91918 0.69128 0.35345 0.0
H3500 H 0.89726 0.66984 0.34369 0.0
H3501 H 0.95138 0.6598 0.40116 0.0
H3502 H 0.93917 0.65458 0.42323 0.0
H3503 H 0.95287 0.67878 0.41637 0.0
C3504 C 0.39323 0.0392 0.69978 0.0
C3505 C 0.37547 0.03505 0.70576 0.0
C3506 C 0.40545 0.03571 0.71158 0.0
C3507 C 0.39965 0.02766 0.72965 0.0
C3508 C 0.38183 0.02361 0.73584 0.0
C3509 C 0.37002 0.02747 0.72389 0.0
C3510 C 0.42448 0.04046 0.70461 0.0
C3511 C 0.37504 0.01483 0.75489 0.0
C3512 C 0.42224 0.00106 0.75016 0.0
C3513 C 0.43602 0.01458 0.76465 0.0
C3514 C 0.41015 0.00504 0.73886 0.0
C3515 C 0.41204 0.02308 0.7419 0.0
C3516 C 0.42577 0.03674 0.75659 0.0
C3517 C 0.43748 0.03227 0.76788 0.0
C3518 C 0.39553 0.99002 0.72347 0.0
C3519 C 0.42827 0.05616 0.76022 0.0
H3520 H 0.39757 0.04512 0.68584 0.0
H3521 H 0.35629 0.02413 0.72861 0.0
H3522 H 0.43634 0.05022 0.71582 0.0
H3523 H 0.42485 0.02723 0.70257 0.0
H3524 H 0.42719 0.04733 0.69058 0.0
H3525 H 0.36095 0.01286 0.75777 0.0
H3526 H 0.37369 0.00069 0.75461 0.0
H3527 H 0.38573 0.02399 0.76727 0.0
H3528 H 0.42118 0.98748 0.74729 0.0
H3529 H 0.44786 0.04271 0.77922 0.0
H3530 H 0.39868 0.99543 0.70876 0.0
H3531 H 0.38096 0.9869 0.72596 0.0
H3532 H 0.39539 0.97645 0.72343 0.0
H3533 H 0.43203 0.06377 0.74666 0.0
H3534 H 0.43965 0.0652 0.77216 0.0
H3535 H 0.41458 0.05453 0.76413 0.0
C3536 C 0.96423 0.3327 0.75982 0.0
C3537 C 0.98051 0.33292 0.75427 0.0
C3538 C 0.96567 0.34949 0.76768 0.0
C3539 C 0.98371 0.36693 0.76951 0.0
C3540 C 0.00012 0.36725 0.76362 0.0
C3541 C 0.99836 0.35019 0.75631 0.0
C3542 C 0.94794 0.34853 0.7742 0.0
C3543 C 0.01952 0.38564 0.76488 0.0
C3544 C 0.98451 0.4135 0.77224 0.0
C3545 C 0.99007 0.41968 0.79212 0.0
C3546 C 0.98241 0.39635 0.76466 0.0
C3547 C 0.98548 0.38493 0.77742 0.0
C3548 C 0.99077 0.391 0.79762 0.0
C3549 C 0.99326 0.40848 0.80469 0.0
C3550 C 0.97724 0.39063 0.74297 0.0
C3551 C 0.99378 0.37903 0.81173 0.0
H3552 H 0.95044 0.31933 0.75838 0.0
H3553 H 0.01096 0.35044 0.75187 0.0
H3554 H 0.95043 0.35385 0.78986 0.0
H3555 H 0.94484 0.35793 0.76573 0.0
H3556 H 0.93511 0.33376 0.77229 0.0
H3557 H 0.03074 0.38351 0.7592 0.0
H3558 H 0.01856 0.39633 0.75639 0.0
H3559 H 0.02412 0.39177 0.7803 0.0
H3560 H 0.98217 0.42231 0.76257 0.0
H3561 H 0.99742 0.41329 0.82011 0.0
H3562 H 0.96368 0.37647 0.74044 0.0
H3563 H 0.98861 0.38922 0.73658 0.0
H3564 H 0.97547 0.40117 0.73505 0.0
H3565 H 0.98079 0.3644 0.81082 0.0
H3566 H 0.99692 0.38533 0.82712 0.0
H3567 H 0.00589 0.37758 0.80774 0.0
C3568 C 0.65923 0.6298 0.70415 0.0
C3569 C 0.67083 0.6228 0.71031 0.0
C3570 C 0.64109 0.62276 0.71099 0.0
C3571 C 0.63454 0.60859 0.72451 0.0
C3572 C 0.64598 0.60114 0.73044 0.0
C3573 C 0.66394 0.60824 0.72314 0.0
C3574 C 0.62915 0.63081 0.70409 0.0
C3575 C 0.63954 0.58614 0.745 0.0
C3576 C 0.59861 0.60457 0.75947 0.0
C3577 C 0.58182 0.58783 0.75151 0.0
C3578 C 0.6158 0.61175 0.75055 0.0
C3579 C 0.61608 0.60207 0.73314 0.0
C3580 C 0.59893 0.58564 0.72457 0.0
C3581 C 0.58201 0.57861 0.73397 0.0
C3582 C 0.63384 0.62921 0.76023 0.0
C3583 C 0.59859 0.57513 0.70585 0.0
H3584 H 0.66441 0.64098 0.69414 0.0
H3585 H 0.67286 0.60283 0.72803 0.0
H3586 H 0.61456 0.61904 0.69827 0.0
H3587 H 0.62743 0.63859 0.7166 0.0
H3588 H 0.63572 0.6408 0.69253 0.0
H3589 H 0.64989 0.58147 0.7477 0.0
H3590 H 0.63785 0.59191 0.75914 0.0
H3591 H 0.62534 0.57343 0.73968 0.0
H3592 H 0.59851 0.61155 0.77318 0.0
H3593 H 0.56896 0.5657 0.72779 0.0
H3594 H 0.64055 0.64028 0.74969 0.0
H3595 H 0.64441 0.6253 0.7649 0.0
H3596 H 0.63102 0.63554 0.77325 0.0
H3597 H 0.60499 0.58525 0.69437 0.0
H3598 H 0.5838 0.56356 0.70026 0.0
H3599 H 0.60741 0.5687 0.70839 0.0
C3600 C 0.70232 0.70649 0.66704 0.0
C3601 C 0.71152 0.7108 0.68604 0.0
C3602 C 0.6945 0.71689 0.65987 0.0
C3603 C 0.69626 0.73225 0.67182 0.0
C3604 C 0.70576 0.73687 0.69092 0.0
C3605 C 0.71311 0.72595 0.69789 0.0
C3606 C 0.68418 0.7113 0.63954 0.0
C3607 C 0.70827 0.75342 0.70391 0.0
C3608 C 0.69159 0.76864 0.64401 0.0
C3609 C 0.67258 0.76335 0.64642 0.0
C3610 C 0.6997 0.75915 0.65288 0.0
C3611 C 0.68842 0.74363 0.66406 0.0
C3612 C 0.66932 0.73832 0.6668 0.0
C3613 C 0.6617 0.74835 0.65811 0.0
C3614 C 0.7202 0.7654 0.64979 0.0
C3615 C 0.65676 0.72165 0.67841 0.0
H3616 H 0.70084 0.69466 0.65788 0.0
H3617 H 0.72023 0.72935 0.71257 0.0
H3618 H 0.66929 0.70803 0.64023 0.0
H3619 H 0.69152 0.7234 0.63023 0.0
H3620 H 0.68357 0.69863 0.63234 0.0
H3621 H 0.71618 0.75527 0.71831 0.0
H3622 H 0.71621 0.76687 0.69656 0.0
H3623 H 0.69403 0.75119 0.70646 0.0
H3624 H 0.70006 0.77988 0.63469 0.0
H3625 H 0.64712 0.74431 0.66034 0.0
H3626 H 0.72044 0.754 0.64085 0.0
H3627 H 0.72847 0.76769 0.66405 0.0
H3628 H 0.72757 0.7788 0.64225 0.0
H3629 H 0.65467 0.70828 0.67123 0.0
H3630 H 0.64245 0.71975 0.67974 0.0
H3631 H 0.66384 0.72371 0.69332 0.0
C3632 C 0.29378 0.96714 0.66744 0.0
C3633 C 0.28395 0.97582 0.66061 0.0
C3634 C 0.28606 0.94745 0.66325 0.0
C3635 C 0.26819 0.93628 0.65193 0.0
C3636 C 0.25839 0.94504 0.64475 0.0
C3637 C 0.26635 0.96465 0.64922 0.0
C3638 C 0.29686 0.93855 0.67117 0.0
C3639 C 0.23932 0.93364 0.63252 0.0
C3640 C 0.25008 0.88808 0.62479 0.0
C3641 C 0.23561 0.87593 0.63633 0.0
C3642 C 0.26188 0.90775 0.6304 0.0
C3643 C 0.25913 0.91529 0.64798 0.0
C3644 C 0.24558 0.90279 0.66041 0.0
C3645 C 0.23391 0.88324 0.65439 0.0
C3646 C 0.2762 0.9206 0.61677 0.0
C3647 C 0.24235 0.91022 0.67938 0.0
H3648 H 0.3074 0.97567 0.67623 0.0
H3649 H 0.25871 0.97123 0.64377 0.0
H3650 H 0.2882 0.92782 0.68143 0.0
H3651 H 0.29924 0.93088 0.65907 0.0
H3652 H 0.31098 0.94935 0.67899 0.0
H3653 H 0.23386 0.94274 0.62758 0.0
H3654 H 0.2407 0.92623 0.61943 0.0
H3655 H 0.22848 0.92247 0.64112 0.0
H3656 H 0.25134 0.88245 0.61077 0.0
H3657 H 0.22288 0.87377 0.66343 0.0
H3658 H 0.29012 0.93114 0.62504 0.0
H3659 H 0.27073 0.92876 0.60935 0.0
H3660 H 0.27869 0.91235 0.60538 0.0
H3661 H 0.25625 0.92038 0.68792 0.0
H3662 H 0.2333 0.89848 0.68857 0.0
H3663 H 0.23509 0.91811 0.67612 0.0
C3664 C 0.03165 0.28813 0.70348 0.0
C3665 C 0.02002 0.29526 0.70814 0.0
C3666 C 0.04991 0.30009 0.69717 0.0
C3667 C 0.05665 0.31964 0.69531 0.0
C3668 C 0.04538 0.32715 0.70087 0.0
C3669 C 0.0272 0.31487 0.70731 0.0
C3670 C 0.0616 0.29158 0.6916 0.0
C3671 C 0.05205 0.34789 0.69902 0.0
C3672 C 0.10949 0.35029 0.68701 0.0
C3673 C 0.10845 0.3488 0.66655 0.0
C3674 C 0.09264 0.34169 0.69675 0.0
C3675 C 0.07453 0.33154 0.68565 0.0
C3676 C 0.07355 0.33108 0.66495 0.0
C3677 C 0.09056 0.33962 0.65565 0.0
C3678 C 0.09425 0.34246 0.71882 0.0
C3679 C 0.05455 0.32061 0.65256 0.0
H3680 H 0.02631 0.27304 0.70429 0.0
H3681 H 0.01832 0.32051 0.71093 0.0
H3682 H 0.06272 0.29168 0.67557 0.0
H3683 H 0.0764 0.30029 0.69889 0.0
H3684 H 0.05513 0.27661 0.6956 0.0
H3685 H 0.04281 0.35203 0.70625 0.0
H3686 H 0.06708 0.35736 0.70551 0.0
H3687 H 0.05176 0.35047 0.6833 0.0
H3688 H 0.12342 0.35731 0.69532 0.0
H3689 H 0.08992 0.33855 0.63978 0.0
H3690 H 0.09003 0.32812 0.72346 0.0
H3691 H 0.08433 0.34629 0.72485 0.0
H3692 H 0.1091 0.35294 0.72531 0.0
H3693 H 0.0475 0.30499 0.65386 0.0
H3694 H 0.05626 0.32325 0.63685 0.0
H3695 H 0.0448 0.32504 0.65781 0.0
C3696 C 0.29459 0.30555 0.67576 0.0
C3697 C 0.29863 0.31137 0.69587 0.0
C3698 C 0.28359 0.31033 0.6637 0.0
C3699 C 0.27638 0.3211 0.67195 0.0
C3700 C 0.27986 0.32646 0.69233 0.0
C3701 C 0.29096 0.32155 0.70403 0.0
C3702 C 0.28017 0.30434 0.64204 0.0
C3703 C 0.27228 0.33783 0.7017 0.0
C3704 C 0.26564 0.35163 0.64012 0.0
C3705 C 0.24556 0.34043 0.6369 0.0
C3706 C 0.27588 0.34531 0.65114 0.0
C3707 C 0.26578 0.32739 0.65921 0.0
C3708 C 0.24555 0.31584 0.65566 0.0
C3709 C 0.23568 0.3225 0.64454 0.0
C3710 C 0.29747 0.35798 0.65449 0.0
C3711 C 0.23426 0.29671 0.66409 0.0
H3712 H 0.30046 0.29768 0.6693 0.0
H3713 H 0.29395 0.32607 0.71955 0.0
H3714 H 0.26456 0.29634 0.63734 0.0
H3715 H 0.28707 0.31723 0.63369 0.0
H3716 H 0.28596 0.29524 0.63806 0.0
H3717 H 0.27544 0.34006 0.71787 0.0
H3718 H 0.27882 0.35203 0.6957 0.0
H3719 H 0.25652 0.33042 0.69819 0.0
H3720 H 0.27334 0.36543 0.63411 0.0
H3721 H 0.22014 0.31391 0.64238 0.0
H3722 H 0.30423 0.35003 0.64966 0.0
H3723 H 0.30182 0.36226 0.67036 0.0
H3724 H 0.30321 0.37113 0.64655 0.0
H3725 H 0.23987 0.28752 0.65985 0.0
H3726 H 0.21871 0.28903 0.65913 0.0
H3727 H 0.23597 0.2988 0.68032 0.0
C3728 C 0.68174 0.97799 0.66845 0.0
C3729 C 0.69082 0.99408 0.65765 0.0
C3730 C 0.67503 0.95956 0.65979 0.0
C3731 C 0.6774 0.95715 0.63982 0.0
C3732 C 0.68641 0.9733 0.62878 0.0
C3733 C 0.69305 0.99157 0.63783 0.0
C3734 C 0.66557 0.9427 0.67207 0.0
C3735 C 0.68917 0.97128 0.60744 0.0
C3736 C 0.67791 0.913 0.62277 0.0
C3737 C 0.65924 0.90102 0.61368 0.0
C3738 C 0.68399 0.93129 0.63126 0.0
C3739 C 0.67109 0.9378 0.63069 0.0
C3740 C 0.6522 0.92579 0.62157 0.0
C3741 C 0.64648 0.90749 0.61321 0.0
C3742 C 0.70419 0.94361 0.64097 0.0
C3743 C 0.63808 0.93228 0.62062 0.0
H3744 H 0.67992 0.97976 0.68376 0.0
H3745 H 0.69998 0.00391 0.62934 0.0
H3746 H 0.65094 0.93196 0.6653 0.0
H3747 H 0.67391 0.93559 0.67267 0.0
H3748 H 0.66445 0.94694 0.68728 0.0
H3749 H 0.69592 0.98517 0.60075 0.0
H3750 H 0.69838 0.96522 0.60587 0.0
H3751 H 0.67513 0.96118 0.59909 0.0
H3752 H 0.68772 0.90794 0.62349 0.0
H3753 H 0.63209 0.89832 0.6061 0.0
H3754 H 0.70379 0.94717 0.65664 0.0
H3755 H 0.71196 0.9573 0.63401 0.0
H3756 H 0.71247 0.93646 0.64004 0.0
H3757 H 0.63577 0.9357 0.63564 0.0
H3758 H 0.62397 0.92126 0.61293 0.0
H3759 H 0.64397 0.94556 0.61293 0.0
C3760 C 0.00407 0.69203 0.69578 0.0
C3761 C 0.99838 0.70542 0.69666 0.0
C3762 C 0.02116 0.69634 0.68782 0.0
C3763 C 0.03278 0.71441 0.68053 0.0
C3764 C 0.02765 0.72833 0.68236 0.0
C3765 C 0.01054 0.72368 0.69043 0.0
C3766 C 0.02625 0.6812 0.68631 0.0
C3767 C 0.03969 0.7478 0.67481 0.0
C3768 C 0.08362 0.73338 0.66706 0.0
C3769 C 0.08063 0.73026 0.64658 0.0
C3770 C 0.06807 0.72745 0.67851 0.0
C3771 C 0.04918 0.71823 0.6692 0.0
C3772 C 0.04606 0.71408 0.64862 0.0
C3773 C 0.06182 0.72013 0.63758 0.0
C3774 C 0.07195 0.73198 0.70042 0.0
C3775 C 0.02613 0.70415 0.63813 0.0
H3776 H 0.99484 0.67792 0.70067 0.0
H3777 H 0.00635 0.73416 0.69116 0.0
H3778 H 0.02436 0.67583 0.67075 0.0
H3779 H 0.04153 0.68733 0.69159 0.0
H3780 H 0.01712 0.66887 0.69484 0.0
H3781 H 0.03459 0.75751 0.67877 0.0
H3782 H 0.05491 0.75462 0.68071 0.0
H3783 H 0.03925 0.74622 0.65861 0.0
H3784 H 0.09816 0.74132 0.67406 0.0
H3785 H 0.05948 0.71745 0.62177 0.0
H3786 H 0.0621 0.71926 0.70805 0.0
H3787 H 0.06927 0.74346 0.70468 0.0
H3788 H 0.087 0.73684 0.7056 0.0
H3789 H 0.01641 0.69068 0.64477 0.0
H3790 H 0.02605 0.70074 0.62227 0.0
H3791 H 0.02017 0.71347 0.63968 0.0
C3792 C 0.94322 0.61454 0.73559 0.0
C3793 C 0.94727 0.61973 0.71643 0.0
C3794 C 0.94785 0.60199 0.74385 0.0
C3795 C 0.95656 0.59429 0.73262 0.0
C3796 C 0.95997 0.59884 0.71301 0.0
C3797 C 0.95535 0.61157 0.70517 0.0
C3798 C 0.94405 0.59754 0.76484 0.0
C3799 C 0.96904 0.59073 0.70052 0.0
C3800 C 0.98705 0.57966 0.76135 0.0
C3801 C 0.9742 0.55993 0.7618 0.0
C3802 C 0.98162 0.59094 0.75154 0.0
C3803 C 0.96294 0.58224 0.74179 0.0
C3804 C 0.95012 0.56222 0.74166 0.0
C3805 C 0.95588 0.55131 0.75177 0.0
C3806 C 0.99565 0.61227 0.75216 0.0
C3807 C 0.93019 0.55239 0.73123 0.0
H3808 H 0.93699 0.62076 0.74442 0.0
H3809 H 0.95847 0.61545 0.69033 0.0
H3810 H 0.93529 0.58184 0.76579 0.0
H3811 H 0.95785 0.603 0.77383 0.0
H3812 H 0.93645 0.60405 0.77131 0.0
H3813 H 0.96937 0.59449 0.68513 0.0
H3814 H 0.98398 0.5963 0.70669 0.0
H3815 H 0.96107 0.57492 0.70058 0.0
H3816 H 0.00115 0.58639 0.76927 0.0
H3817 H 0.94598 0.53602 0.75194 0.0
H3818 H 0.98979 0.61992 0.75994 0.0
H3819 H 0.99772 0.61693 0.73709 0.0
H3820 H 0.00987 0.61669 0.75969 0.0
H3821 H 0.92169 0.55753 0.73829 0.0
H3822 H 0.92244 0.53658 0.73142 0.0
H3823 H 0.93095 0.55603 0.71579 0.0
C3824 C 0.37066 0.36632 0.73913 0.0
C3825 C 0.38315 0.35952 0.7386 0.0
C3826 C 0.37735 0.38521 0.74634 0.0
C3827 C 0.39698 0.39753 0.75302 0.0
C3828 C 0.40976 0.39094 0.7518 0.0
C3829 C 0.40268 0.37202 0.74468 0.0
C3830 C 0.36333 0.39175 0.74745 0.0
C3831 C 0.43087 0.40371 0.7586 0.0
C3832 C 0.42334 0.4515 0.76061 0.0
C3833 C 0.42587 0.45422 0.7811 0.0
C3834 C 0.41264 0.43301 0.75107 0.0
C3835 C 0.40427 0.417 0.76236 0.0
C3836 C 0.40543 0.41981 0.783 0.0
C3837 C 0.41633 0.43842 0.79214 0.0
C3838 C 0.41172 0.43062 0.72904 0.0
C3839 C 0.39647 0.40313 0.79555 0.0
H3840 H 0.35553 0.35674 0.73447 0.0
H3841 H 0.41246 0.36693 0.74416 0.0
H3842 H 0.3616 0.3942 0.76301 0.0
H3843 H 0.36888 0.40554 0.74078 0.0
H3844 H 0.34898 0.38108 0.73995 0.0
H3845 H 0.43904 0.39671 0.75567 0.0
H3846 H 0.43728 0.41716 0.75116 0.0
H3847 H 0.43264 0.40765 0.77457 0.0
H3848 H 0.43084 0.46373 0.75206 0.0
H3849 H 0.41818 0.44059 0.808 0.0
H3850 H 0.397 0.41954 0.72279 0.0
H3851 H 0.42148 0.42578 0.7249 0.0
H3852 H 0.41612 0.44422 0.72232 0.0
H3853 H 0.38153 0.39241 0.78961 0.0
H3854 H 0.39634 0.40771 0.81097 0.0
H3855 H 0.40474 0.39595 0.79546 0.0
C3856 C 0.64916 0.03209 0.68822 0.0
C3857 C 0.66462 0.04913 0.69769 0.0
C3858 C 0.63094 0.02317 0.69537 0.0
C3859 C 0.62834 0.03127 0.71263 0.0
C3860 C 0.64395 0.04838 0.72229 0.0
C3861 C 0.66182 0.05721 0.71458 0.0
C3862 C 0.61449 0.00517 0.68446 0.0
C3863 C 0.64187 0.05729 0.74095 0.0
C3864 C 0.58071 0.02258 0.72688 0.0
C3865 C 0.57675 0.00992 0.74143 0.0
C3866 C 0.59676 0.02855 0.71627 0.0
C3867 C 0.60936 0.02208 0.72078 0.0
C3868 C 0.60488 0.00859 0.7349 0.0
C3869 C 0.58846 0.00253 0.74497 0.0
C3870 C 0.60081 0.04261 0.70104 0.0
C3871 C 0.61811 0.00161 0.74037 0.0
H3872 H 0.65127 0.02582 0.67513 0.0
H3873 H 0.67376 0.07026 0.72209 0.0
H3874 H 0.60886 0.99322 0.69408 0.0
H3875 H 0.60254 0.00731 0.68024 0.0
H3876 H 0.6188 0.00092 0.67104 0.0
H3877 H 0.6556 0.0703 0.74698 0.0
H3878 H 0.631 0.06125 0.73821 0.0
H3879 H 0.63674 0.04679 0.75222 0.0
H3880 H 0.57152 0.02821 0.72421 0.0
H3881 H 0.58537 0.99284 0.75639 0.0
H3882 H 0.60465 0.0381 0.68747 0.0
H3883 H 0.61323 0.05688 0.70662 0.0
H3884 H 0.58831 0.04407 0.69732 0.0
H3885 H 0.62197 0.99673 0.72708 0.0
H3886 H 0.61159 0.98969 0.75005 0.0
H3887 H 0.63164 0.01358 0.74813 0.0
loop_
_geom_bond_atom_site_label_1
_geom_bond_atom_site_label_2
_geom_bond_distance
_geom_bond_site_symmetry_2
_ccdc_geom_bond_type
Zn0 O3 2.031 . S
Zn0 O5 2.049 . S
Zn0 O10 2.067 . S
Zn1 O2 1.962 1_455 S
Zn1 O4 1.986 . S
Zn1 O6 1.996 1_455 S
Zn1 O9 1.943 . S
O2 Zn1 1.962 1_655 S
O2 C7 1.254 . S
O3 Zn0 2.031 . S
O3 C7 1.269 . S
O4 Zn1 1.986 . S
O4 C11 1.262 . S
O5 Zn0 2.049 . S
O5 C13 1.260 . S
O6 Zn1 1.996 1_655 S
O6 C13 1.257 . S
C7 O2 1.254 . S
C7 O3 1.269 . S
C8 O9 1.249 . S
C8 O10 1.270 1_455 S
O9 Zn1 1.943 . S
O9 C8 1.249 . S
O10 Zn0 2.067 . S
O10 C8 1.270 1_655 S
C11 O4 1.262 . S
C11 O12 1.232 . S
O12 C11 1.232 . S
C13 O5 1.260 . S
C13 O6 1.257 . S
Zn14 O17 2.031 . S
Zn14 O19 2.049 . S
Zn14 O24 2.067 . S
Zn15 O16 1.962 . S
Zn15 O18 1.986 . S
Zn15 O20 1.996 . S
Zn15 O23 1.943 . S
O16 Zn15 1.962 . S
O16 C21 1.254 . S
O17 Zn14 2.031 . S
O17 C21 1.269 . S
O18 Zn15 1.986 . S
O18 C25 1.262 . S
O19 Zn14 2.049 . S
O19 C27 1.260 . S
O20 Zn15 1.996 . S
O20 C27 1.257 . S
C21 O16 1.254 . S
C21 O17 1.269 . S
C22 O23 1.249 . S
C22 O24 1.270 . S
O23 Zn15 1.943 . S
O23 C22 1.249 . S
O24 Zn14 2.067 . S
O24 C22 1.270 . S
C25 O18 1.262 . S
C25 O26 1.232 . S
O26 C25 1.232 . S
C27 O19 1.260 . S
C27 O20 1.257 . S
Zn28 O31 2.031 . S
Zn28 O33 2.049 . S
Zn28 O38 2.067 . S
Zn29 O30 1.962 1_545 S
Zn29 O32 1.986 . S
Zn29 O34 1.996 1_545 S
Zn29 O37 1.943 . S
O30 Zn29 1.962 1_565 S
O30 C35 1.254 . S
O31 Zn28 2.031 . S
O31 C35 1.269 . S
O32 Zn29 1.986 . S
O32 C39 1.262 . S
O33 Zn28 2.049 . S
O33 C41 1.260 1_554 S
O34 Zn29 1.996 1_565 S
O34 C41 1.257 1_554 S
C35 O30 1.254 . S
C35 O31 1.269 . S
C36 O37 1.249 . S
C36 O38 1.270 1_545 S
O37 Zn29 1.943 . S
O37 C36 1.249 . S
O38 Zn28 2.067 . S
O38 C36 1.270 1_565 S
C39 O32 1.262 . S
C39 O40 1.232 . S
O40 C39 1.232 . S
C41 O33 1.260 1_556 S
C41 O34 1.257 1_556 S
Zn42 O45 2.031 . S
Zn42 O47 2.049 . S
Zn42 O52 2.067 . S
Zn43 O44 1.962 1_655 S
Zn43 O46 1.986 . S
Zn43 O48 1.996 1_655 S
Zn43 O51 1.943 . S
O44 Zn43 1.962 1_455 S
O44 C49 1.254 . S
O45 Zn42 2.031 . S
O45 C49 1.269 . S
O46 Zn43 1.986 . S
O46 C53 1.262 . S
O47 Zn42 2.049 . S
O47 C55 1.260 . S
O48 Zn43 1.996 1_455 S
O48 C55 1.257 . S
C49 O44 1.254 . S
C49 O45 1.269 . S
C50 O51 1.249 . S
C50 O52 1.270 1_655 S
O51 Zn43 1.943 . S
O51 C50 1.249 . S
O52 Zn42 2.067 . S
O52 C50 1.270 1_455 S
C53 O46 1.262 . S
C53 O54 1.232 . S
O54 C53 1.232 . S
C55 O47 1.260 . S
C55 O48 1.257 . S
Zn56 O59 2.031 . S
Zn56 O61 2.049 1_554 S
Zn56 O66 2.067 . S
Zn57 O58 1.962 . S
Zn57 O60 1.986 1_554 S
Zn57 O62 1.996 1_554 S
Zn57 O65 1.943 . S
O58 Zn57 1.962 . S
O58 C63 1.254 . S
O59 Zn56 2.031 . S
O59 C63 1.269 . S
O60 Zn57 1.986 1_556 S
O60 C67 1.262 . S
O61 Zn56 2.049 1_556 S
O61 C69 1.260 . S
O62 Zn57 1.996 1_556 S
O62 C69 1.257 . S
C63 O58 1.254 . S
C63 O59 1.269 . S
C64 O65 1.249 . S
C64 O66 1.270 . S
O65 Zn57 1.943 . S
O65 C64 1.249 . S
O66 Zn56 2.067 . S
O66 C64 1.270 . S
C67 O60 1.262 . S
C67 O68 1.232 1_556 S
O68 C67 1.232 1_554 S
C69 O61 1.260 . S
C69 O62 1.257 . S
Zn70 O73 2.031 . S
Zn70 O75 2.049 . S
Zn70 O80 2.067 . S
Zn71 O72 1.962 1_565 S
Zn71 O74 1.986 . S
Zn71 O76 1.996 1_565 S
Zn71 O79 1.943 . S
O72 Zn71 1.962 1_545 S
O72 C77 1.254 . S
O73 Zn70 2.031 . S
O73 C77 1.269 . S
O74 Zn71 1.986 . S
O74 C81 1.262 . S
O75 Zn70 2.049 . S
O75 C83 1.260 . S
O76 Zn71 1.996 1_545 S
O76 C83 1.257 . S
C77 O72 1.254 . S
C77 O73 1.269 . S
C78 O79 1.249 . S
C78 O80 1.270 1_565 S
O79 Zn71 1.943 . S
O79 C78 1.249 . S
O80 Zn70 2.067 . S
O80 C78 1.270 1_545 S
C81 O74 1.262 . S
C81 O82 1.232 . S
O82 C81 1.232 . S
C83 O75 1.260 . S
C83 O76 1.257 . S
Zn84 O87 2.031 . S
Zn84 O89 2.049 . S
Zn84 O94 2.067 . S
Zn85 O86 1.962 . S
Zn85 O88 1.986 . S
Zn85 O90 1.996 . S
Zn85 O93 1.943 . S
O86 Zn85 1.962 . S
O86 C91 1.254 . S
O87 Zn84 2.031 . S
O87 C91 1.269 . S
O88 Zn85 1.986 . S
O88 C95 1.262 . S
O89 Zn84 2.049 . S
O89 C97 1.260 . S
O90 Zn85 1.996 . S
O90 C97 1.257 . S
C91 O86 1.254 . S
C91 O87 1.269 . S
C92 O93 1.249 . S
C92 O94 1.270 . S
O93 Zn85 1.943 . S
O93 C92 1.249 . S
O94 Zn84 2.067 . S
O94 C92 1.270 . S
C95 O88 1.262 . S
C95 O96 1.232 . S
O96 C95 1.232 . S
C97 O89 1.260 . S
C97 O90 1.257 . S
Zn98 O101 2.031 . S
Zn98 O103 2.049 . S
Zn98 O108 2.067 . S
Zn99 O100 1.962 . S
Zn99 O102 1.986 . S
Zn99 O104 1.996 . S
Zn99 O107 1.943 . S
O100 Zn99 1.962 . S
O100 C105 1.254 . S
O101 Zn98 2.031 . S
O101 C105 1.269 . S
O102 Zn99 1.986 . S
O102 C109 1.217 1_565 S
O103 Zn98 2.049 . S
O103 C111 1.260 . S
O104 Zn99 1.996 . S
O104 C111 1.257 . S
C105 O100 1.254 . S
C105 O101 1.269 . S
C106 O107 1.249 . S
C106 O108 1.270 . S
O107 Zn99 1.943 . S
O107 C106 1.249 . S
O108 Zn98 2.067 . S
O108 C106 1.270 . S
C109 O102 1.217 1_545 S
C109 O110 1.229 . S
O110 C109 1.229 . S
C111 O103 1.260 . S
C111 O104 1.257 . S
Zn112 O115 2.031 . S
Zn112 O117 2.049 . S
Zn112 O122 2.067 . S
Zn113 O114 1.962 . S
Zn113 O116 1.986 . S
Zn113 O118 1.996 . S
Zn113 O121 1.943 . S
O114 Zn113 1.962 . S
O114 C119 1.254 . S
O115 Zn112 2.031 . S
O115 C119 1.269 . S
O116 Zn113 1.986 . S
O116 C123 1.262 . S
O117 Zn112 2.049 . S
O117 C125 1.260 . S
O118 Zn113 1.996 . S
O118 C125 1.257 . S
C119 O114 1.254 . S
C119 O115 1.269 . S
C120 O121 1.249 . S
C120 O122 1.270 . S
O121 Zn113 1.943 . S
O121 C120 1.249 . S
O122 Zn112 2.067 . S
O122 C120 1.270 . S
C123 O116 1.262 . S
C123 O124 1.232 . S
O124 C123 1.232 . S
C125 O117 1.260 . S
C125 O118 1.257 . S
Zn126 O129 2.031 . S
Zn126 O131 2.049 . S
Zn126 O136 2.067 . S
Zn127 O128 1.962 . S
Zn127 O130 1.986 . S
Zn127 O132 1.996 . S
Zn127 O135 1.943 . S
O128 Zn127 1.962 . S
O128 C133 1.254 . S
O129 Zn126 2.031 . S
O129 C133 1.269 . S
O130 Zn127 1.986 . S
O130 C137 1.262 . S
O131 Zn126 2.049 . S
O131 C139 1.260 . S
O132 Zn127 1.996 . S
O132 C139 1.257 . S
C133 O128 1.254 . S
C133 O129 1.269 . S
C134 O135 1.249 . S
C134 O136 1.270 . S
O135 Zn127 1.943 . S
O135 C134 1.249 . S
O136 Zn126 2.067 . S
O136 C134 1.270 . S
C137 O130 1.262 . S
C137 O138 1.232 . S
O138 C137 1.232 . S
C139 O131 1.260 . S
C139 O132 1.257 . S
Zn140 O143 2.031 . S
Zn140 O145 2.049 . S
Zn140 O150 2.067 . S
Zn141 O142 1.962 . S
Zn141 O144 1.986 . S
Zn141 O146 1.996 . S
Zn141 O149 1.943 . S
O142 Zn141 1.962 . S
O142 C147 1.254 . S
O143 Zn140 2.031 . S
O143 C147 1.269 . S
O144 Zn141 1.986 . S
O144 C151 1.262 . S
O145 Zn140 2.049 . S
O145 C153 1.260 . S
O146 Zn141 1.996 . S
O146 C153 1.257 . S
C147 O142 1.254 . S
C147 O143 1.269 . S
C148 O149 1.249 . S
C148 O150 1.270 . S
O149 Zn141 1.943 . S
O149 C148 1.249 . S
O150 Zn140 2.067 . S
O150 C148 1.270 . S
C151 O144 1.262 . S
C151 O152 1.232 . S
O152 C151 1.232 . S
C153 O145 1.260 . S
C153 O146 1.257 . S
Zn154 O157 2.031 . S
Zn154 O159 2.049 . S
Zn154 O164 2.067 . S
Zn155 O156 1.962 . S
Zn155 O158 1.986 . S
Zn155 O160 1.996 . S
Zn155 O163 1.943 . S
O156 Zn155 1.962 . S
O156 C161 1.254 . S
O157 Zn154 2.031 . S
O157 C161 1.269 . S
O158 Zn155 1.986 . S
O158 C165 1.262 . S
O159 Zn154 2.049 . S
O159 C167 1.260 . S
O160 Zn155 1.996 . S
O160 C167 1.257 . S
C161 O156 1.254 . S
C161 O157 1.269 . S
C162 O163 1.249 . S
C162 O164 1.270 . S
O163 Zn155 1.943 . S
O163 C162 1.249 . S
O164 Zn154 2.067 . S
O164 C162 1.270 . S
C165 O158 1.262 . S
C165 O166 1.232 . S
O166 C165 1.232 . S
C167 O159 1.260 . S
C167 O160 1.257 . S
Zn168 O171 2.031 . S
Zn168 O173 2.049 . S
Zn168 O178 2.067 . S
Zn169 O170 1.962 . S
Zn169 O172 1.986 . S
Zn169 O174 1.996 . S
Zn169 O177 1.943 . S
O170 Zn169 1.962 . S
O170 C175 1.254 . S
O171 Zn168 2.031 . S
O171 C175 1.269 . S
O172 Zn169 1.986 . S
O172 C179 1.262 . S
O173 Zn168 2.049 . S
O173 C181 1.260 . S
O174 Zn169 1.996 . S
O174 C181 1.257 . S
C175 O170 1.254 . S
C175 O171 1.269 . S
C176 O177 1.249 . S
C176 O178 1.270 . S
O177 Zn169 1.943 . S
O177 C176 1.249 . S
O178 Zn168 2.067 . S
O178 C176 1.270 . S
C179 O172 1.262 . S
C179 O180 1.232 . S
O180 C179 1.232 . S
C181 O173 1.260 . S
C181 O174 1.257 . S
Zn182 O185 2.031 . S
Zn182 O187 2.049 . S
Zn182 O192 2.067 . S
Zn183 O184 1.962 . S
Zn183 O186 1.986 . S
Zn183 O188 1.996 . S
Zn183 O191 1.943 . S
O184 Zn183 1.962 . S
O184 C189 1.254 . S
O185 Zn182 2.031 . S
O185 C189 1.269 . S
O186 Zn183 1.986 . S
O186 C193 1.262 . S
O187 Zn182 2.049 . S
O187 C195 1.260 . S
O188 Zn183 1.996 . S
O188 C195 1.257 . S
C189 O184 1.254 . S
C189 O185 1.269 . S
C190 O191 1.249 . S
C190 O192 1.270 . S
O191 Zn183 1.943 . S
O191 C190 1.249 . S
O192 Zn182 2.067 . S
O192 C190 1.270 . S
C193 O186 1.262 . S
C193 O194 1.232 . S
O194 C193 1.232 . S
C195 O187 1.260 . S
C195 O188 1.257 . S
Zn196 O199 2.031 . S
Zn196 O201 2.049 . S
Zn196 O206 2.067 . S
Zn197 O198 1.962 . S
Zn197 O200 1.986 . S
Zn197 O202 1.996 . S
Zn197 O205 1.943 . S
O198 Zn197 1.962 . S
O198 C203 1.254 . S
O199 Zn196 2.031 . S
O199 C203 1.269 . S
O200 Zn197 1.986 . S
O200 C207 1.262 . S
O201 Zn196 2.049 . S
O201 C209 1.260 . S
O202 Zn197 1.996 . S
O202 C209 1.257 . S
C203 O198 1.254 . S
C203 O199 1.269 . S
C204 O205 1.249 . S
C204 O206 1.270 . S
O205 Zn197 1.943 . S
O205 C204 1.249 . S
O206 Zn196 2.067 . S
O206 C204 1.270 . S
C207 O200 1.262 . S
C207 O208 1.232 . S
O208 C207 1.232 . S
C209 O201 1.260 . S
C209 O202 1.257 . S
Zn210 O213 2.031 . S
Zn210 O215 2.049 . S
Zn210 O220 2.067 . S
Zn211 O212 1.962 . S
Zn211 O214 1.986 . S
Zn211 O216 1.996 . S
Zn211 O219 1.943 . S
O212 Zn211 1.962 . S
O212 C217 1.254 . S
O213 Zn210 2.031 . S
O213 C217 1.269 . S
O214 Zn211 1.986 . S
O214 C221 1.262 . S
O215 Zn210 2.049 . S
O215 C223 1.260 . S
O216 Zn211 1.996 . S
O216 C223 1.257 . S
C217 O212 1.254 . S
C217 O213 1.269 . S
C218 O219 1.249 . S
C218 O220 1.270 . S
O219 Zn211 1.943 . S
O219 C218 1.249 . S
O220 Zn210 2.067 . S
O220 C218 1.270 . S
C221 O214 1.262 . S
C221 O222 1.232 . S
O222 C221 1.232 . S
C223 O215 1.260 . S
C223 O216 1.257 . S
Zn224 O227 2.031 . S
Zn224 O229 2.049 . S
Zn224 O234 2.067 . S
Zn225 O226 1.962 . S
Zn225 O228 1.986 . S
Zn225 O230 1.996 . S
Zn225 O233 1.943 . S
O226 Zn225 1.962 . S
O226 C231 1.254 . S
O227 Zn224 2.031 . S
O227 C231 1.269 . S
O228 Zn225 1.986 . S
O228 C235 1.262 . S
O229 Zn224 2.049 . S
O229 C237 1.260 . S
O230 Zn225 1.996 . S
O230 C237 1.257 . S
C231 O226 1.254 . S
C231 O227 1.269 . S
C232 O233 1.249 . S
C232 O234 1.270 . S
O233 Zn225 1.943 . S
O233 C232 1.249 . S
O234 Zn224 2.067 . S
O234 C232 1.270 . S
C235 O228 1.262 . S
C235 O236 1.231 . S
O236 C235 1.231 . S
C237 O229 1.260 . S
C237 O230 1.257 . S
Zn238 O241 2.031 . S
Zn238 O243 2.049 . S
Zn238 O248 2.067 . S
Zn239 O240 1.962 . S
Zn239 O242 1.986 . S
Zn239 O244 1.996 . S
Zn239 O247 1.943 . S
O240 Zn239 1.962 . S
O240 C245 1.254 . S
O241 Zn238 2.031 . S
O241 C245 1.269 . S
O242 Zn239 1.986 . S
O242 C249 1.262 . S
O243 Zn238 2.049 . S
O243 C251 1.260 . S
O244 Zn239 1.996 . S
O244 C251 1.257 . S
C245 O240 1.254 . S
C245 O241 1.269 . S
C246 O247 1.249 . S
C246 O248 1.270 . S
O247 Zn239 1.943 . S
O247 C246 1.249 . S
O248 Zn238 2.067 . S
O248 C246 1.270 . S
C249 O242 1.262 . S
C249 O250 1.232 . S
O250 C249 1.232 . S
C251 O243 1.260 . S
C251 O244 1.257 . S
H252 O278 0.856 . S
H253 O281 0.854 . S
H254 C289 0.930 . S
H255 C290 0.930 . S
H256 C292 0.930 . S
H257 C293 0.930 . S
H258 C295 0.931 . S
H259 C296 0.930 . S
H260 C298 0.930 . S
H261 C299 0.929 . S
H262 C301 0.930 . S
H263 C302 0.931 . S
H264 C304 0.930 . S
H265 C305 0.929 . S
H266 C307 0.931 . S
H267 C308 0.930 . S
H268 C310 0.930 . S
H269 C311 0.932 . S
H270 C313 0.930 . S
H271 C314 0.929 . S
H272 C316 0.931 . S
H273 C317 0.930 . S
H274 C319 0.929 . S
H275 C320 0.931 . S
H276 C322 0.930 . S
H277 C323 0.929 . S
O278 H252 0.856 . S
O278 C324 1.300 . S
O279 C324 1.209 . S
O280 C325 1.199 . S
O281 H253 0.854 . S
O281 C325 1.297 . S
C282 C283 1.404 . S
C282 C287 1.397 . S
C282 C288 1.492 . S
C283 C282 1.404 . S
C283 C284 1.396 . S
C283 C294 1.492 . S
C284 C283 1.396 . S
C284 C285 1.397 . S
C284 C300 1.509 . S
C285 C284 1.397 . S
C285 C286 1.412 . S
C285 C306 1.485 . S
C286 C285 1.412 . S
C286 C287 1.388 . S
C286 C312 1.490 . S
C287 C282 1.397 . S
C287 C286 1.388 . S
C287 C318 1.519 . S
C288 C282 1.492 . S
C288 C289 1.363 . S
C288 C293 1.390 . S
C289 H254 0.930 . S
C289 C288 1.363 . S
C289 C290 1.372 . S
C290 H255 0.930 . S
C290 C289 1.372 . S
C290 C291 1.383 . S
C291 C290 1.383 . S
C291 C292 1.395 . S
C292 H256 0.930 . S
C292 C291 1.395 . S
C292 C293 1.362 . S
C293 H257 0.930 . S
C293 C288 1.390 . S
C293 C292 1.362 . S
C294 C283 1.492 . S
C294 C295 1.377 . S
C294 C299 1.397 . S
C295 H258 0.931 . S
C295 C294 1.377 . S
C295 C296 1.376 . S
C296 H259 0.930 . S
C296 C295 1.376 . S
C296 C297 1.376 . S
C297 C296 1.376 . S
C297 C298 1.378 . S
C297 C324 1.486 . S
C298 H260 0.930 . S
C298 C297 1.378 . S
C298 C299 1.376 . S
C299 H261 0.929 . S
C299 C294 1.397 . S
C299 C298 1.376 . S
C300 C284 1.509 . S
C300 C301 1.391 . S
C300 C305 1.386 . S
C301 H262 0.930 . S
C301 C300 1.391 . S
C301 C302 1.375 . S
C302 H263 0.931 . S
C302 C301 1.375 . S
C302 C303 1.375 . S
C303 C302 1.375 . S
C303 C304 1.361 . S
C304 H264 0.930 . S
C304 C303 1.361 . S
C304 C305 1.399 . S
C305 H265 0.929 . S
C305 C300 1.386 . S
C305 C304 1.399 . S
C306 C285 1.485 . S
C306 C307 1.394 . S
C306 C311 1.360 . S
C307 H266 0.931 . S
C307 C306 1.394 . S
C307 C308 1.372 . S
C308 H267 0.930 . S
C308 C307 1.372 . S
C308 C309 1.397 . S
C309 C308 1.397 . S
C309 C310 1.390 . S
C309 C325 1.476 . S
C310 H268 0.930 . S
C310 C309 1.390 . S
C310 C311 1.366 . S
C311 H269 0.932 . S
C311 C306 1.360 . S
C311 C310 1.366 . S
C312 C286 1.490 . S
C312 C313 1.380 . S
C312 C317 1.386 . S
C313 H270 0.930 . S
C313 C312 1.380 . S
C313 C314 1.381 . S
C314 H271 0.929 . S
C314 C313 1.381 . S
C314 C315 1.371 . S
C315 C314 1.371 . S
C315 C316 1.380 . S
C316 H272 0.931 . S
C316 C315 1.380 . S
C316 C317 1.387 . S
C317 H273 0.930 . S
C317 C312 1.386 . S
C317 C316 1.387 . S
C318 C287 1.519 . S
C318 C319 1.377 . S
C318 C323 1.361 . S
C319 H274 0.929 . S
C319 C318 1.377 . S
C319 C320 1.386 . S
C320 H275 0.931 . S
C320 C319 1.386 . S
C320 C321 1.363 . S
C321 C320 1.363 . S
C321 C322 1.385 . S
C322 H276 0.930 . S
C322 C321 1.385 . S
C322 C323 1.396 . S
C323 H277 0.929 . S
C323 C318 1.361 . S
C323 C322 1.396 . S
C324 O278 1.300 . S
C324 O279 1.209 . S
C324 C297 1.486 . S
C325 O280 1.199 . S
C325 O281 1.297 . S
C325 C309 1.476 . S
H326 O352 0.856 . S
H327 O355 0.854 . S
H328 C363 0.930 . S
H329 C364 0.930 . S
H330 C366 0.930 . S
H331 C367 0.930 . S
H332 C369 0.931 . S
H333 C370 0.930 . S
H334 C372 0.930 . S
H335 C373 0.929 . S
H336 C375 0.930 . S
H337 C376 0.931 . S
H338 C378 0.930 . S
H339 C379 0.929 . S
H340 C381 0.931 . S
H341 C382 0.930 . S
H342 C384 0.930 . S
H343 C385 0.932 . S
H344 C387 0.930 . S
H345 C388 0.929 . S
H346 C390 0.931 . S
H347 C391 0.930 . S
H348 C393 0.929 . S
H349 C394 0.931 . S
H350 C396 0.930 . S
H351 C397 0.929 . S
O352 H326 0.856 . S
O352 C398 1.300 . S
O353 C398 1.209 . S
O354 C399 1.199 . S
O355 H327 0.854 . S
O355 C399 1.297 . S
C356 C357 1.404 . S
C356 C361 1.397 . S
C356 C362 1.492 . S
C357 C356 1.404 . S
C357 C358 1.396 . S
C357 C368 1.492 . S
C358 C357 1.396 . S
C358 C359 1.397 . S
C358 C374 1.509 . S
C359 C358 1.397 . S
C359 C360 1.412 . S
C359 C380 1.485 . S
C360 C359 1.412 . S
C360 C361 1.388 . S
C360 C386 1.490 . S
C361 C356 1.397 . S
C361 C360 1.388 . S
C361 C392 1.519 . S
C362 C356 1.492 . S
C362 C363 1.363 . S
C362 C367 1.390 . S
C363 H328 0.930 . S
C363 C362 1.363 . S
C363 C364 1.372 . S
C364 H329 0.930 . S
C364 C363 1.372 . S
C364 C365 1.383 . S
C365 C364 1.383 . S
C365 C366 1.395 . S
C366 H330 0.930 . S
C366 C365 1.395 . S
C366 C367 1.362 . S
C367 H331 0.930 . S
C367 C362 1.390 . S
C367 C366 1.362 . S
C368 C357 1.492 . S
C368 C369 1.377 . S
C368 C373 1.397 . S
C369 H332 0.931 . S
C369 C368 1.377 . S
C369 C370 1.376 . S
C370 H333 0.930 . S
C370 C369 1.376 . S
C370 C371 1.376 . S
C371 C370 1.376 . S
C371 C372 1.378 . S
C371 C398 1.486 . S
C372 H334 0.930 . S
C372 C371 1.378 . S
C372 C373 1.376 . S
C373 H335 0.929 . S
C373 C368 1.397 . S
C373 C372 1.376 . S
C374 C358 1.509 . S
C374 C375 1.391 . S
C374 C379 1.386 . S
C375 H336 0.930 . S
C375 C374 1.391 . S
C375 C376 1.375 . S
C376 H337 0.931 . S
C376 C375 1.375 . S
C376 C377 1.375 . S
C377 C376 1.375 . S
C377 C378 1.361 . S
C378 H338 0.930 . S
C378 C377 1.361 . S
C378 C379 1.399 . S
C379 H339 0.929 . S
C379 C374 1.386 . S
C379 C378 1.399 . S
C380 C359 1.485 . S
C380 C381 1.394 . S
C380 C385 1.360 . S
C381 H340 0.931 . S
C381 C380 1.394 . S
C381 C382 1.372 . S
C382 H341 0.930 . S
C382 C381 1.372 . S
C382 C383 1.397 . S
C383 C382 1.397 . S
C383 C384 1.390 . S
C383 C399 1.476 . S
C384 H342 0.930 . S
C384 C383 1.390 . S
C384 C385 1.366 . S
C385 H343 0.932 . S
C385 C380 1.360 . S
C385 C384 1.366 . S
C386 C360 1.490 . S
C386 C387 1.380 . S
C386 C391 1.386 . S
C387 H344 0.930 . S
C387 C386 1.380 . S
C387 C388 1.381 . S
C388 H345 0.929 . S
C388 C387 1.381 . S
C388 C389 1.371 . S
C389 C388 1.371 . S
C389 C390 1.380 . S
C390 H346 0.931 . S
C390 C389 1.380 . S
C390 C391 1.387 . S
C391 H347 0.930 . S
C391 C386 1.386 . S
C391 C390 1.387 . S
C392 C361 1.519 . S
C392 C393 1.377 . S
C392 C397 1.361 . S
C393 H348 0.929 . S
C393 C392 1.377 . S
C393 C394 1.386 . S
C394 H349 0.931 . S
C394 C393 1.386 . S
C394 C395 1.363 . S
C395 C394 1.363 . S
C395 C396 1.385 . S
C396 H350 0.930 . S
C396 C395 1.385 . S
C396 C397 1.396 . S
C397 H351 0.929 . S
C397 C392 1.361 . S
C397 C396 1.396 . S
C398 O352 1.300 . S
C398 O353 1.209 . S
C398 C371 1.486 . S
C399 O354 1.199 . S
C399 O355 1.297 . S
C399 C383 1.476 . S
H400 O426 0.856 . S
H401 O429 0.854 . S
H402 C437 0.930 . S
H403 C438 0.930 . S
H404 C440 0.930 . S
H405 C441 0.930 . S
H406 C443 0.931 . S
H407 C444 0.930 . S
H408 C446 0.930 . S
H409 C447 0.929 . S
H410 C449 0.930 . S
H411 C450 0.931 . S
H412 C452 0.930 . S
H413 C453 0.929 . S
H414 C455 0.931 . S
H415 C456 0.930 . S
H416 C458 0.930 . S
H417 C459 0.932 . S
H418 C461 0.930 . S
H419 C462 0.929 . S
H420 C464 0.931 . S
H421 C465 0.930 . S
H422 C467 0.929 . S
H423 C468 0.931 . S
H424 C470 0.930 . S
H425 C471 0.929 . S
O426 H400 0.856 . S
O426 C472 1.300 . S
O427 C472 1.209 . S
O428 C473 1.199 . S
O429 H401 0.854 . S
O429 C473 1.297 . S
C430 C431 1.404 . S
C430 C435 1.397 . S
C430 C436 1.492 . S
C431 C430 1.404 . S
C431 C432 1.396 . S
C431 C442 1.492 . S
C432 C431 1.396 . S
C432 C433 1.397 . S
C432 C448 1.509 . S
C433 C432 1.397 . S
C433 C434 1.412 . S
C433 C454 1.485 . S
C434 C433 1.412 . S
C434 C435 1.388 . S
C434 C460 1.490 . S
C435 C430 1.397 . S
C435 C434 1.388 . S
C435 C466 1.519 . S
C436 C430 1.492 . S
C436 C437 1.363 . S
C436 C441 1.390 . S
C437 H402 0.930 . S
C437 C436 1.363 . S
C437 C438 1.372 . S
C438 H403 0.930 . S
C438 C437 1.372 . S
C438 C439 1.383 . S
C439 C438 1.383 . S
C439 C440 1.395 . S
C440 H404 0.930 . S
C440 C439 1.395 . S
C440 C441 1.362 . S
C441 H405 0.930 . S
C441 C436 1.390 . S
C441 C440 1.362 . S
C442 C431 1.492 . S
C442 C443 1.377 . S
C442 C447 1.397 . S
C443 H406 0.931 . S
C443 C442 1.377 . S
C443 C444 1.376 . S
C444 H407 0.930 . S
C444 C443 1.376 . S
C444 C445 1.376 . S
C445 C444 1.376 . S
C445 C446 1.378 . S
C445 C472 1.486 . S
C446 H408 0.930 . S
C446 C445 1.378 . S
C446 C447 1.376 . S
C447 H409 0.929 . S
C447 C442 1.397 . S
C447 C446 1.376 . S
C448 C432 1.509 . S
C448 C449 1.391 . S
C448 C453 1.386 . S
C449 H410 0.930 . S
C449 C448 1.391 . S
C449 C450 1.375 . S
C450 H411 0.931 . S
C450 C449 1.375 . S
C450 C451 1.375 . S
C451 C450 1.375 . S
C451 C452 1.361 . S
C452 H412 0.930 . S
C452 C451 1.361 . S
C452 C453 1.399 . S
C453 H413 0.929 . S
C453 C448 1.386 . S
C453 C452 1.399 . S
C454 C433 1.485 . S
C454 C455 1.394 . S
C454 C459 1.360 . S
C455 H414 0.931 . S
C455 C454 1.394 . S
C455 C456 1.372 . S
C456 H415 0.930 . S
C456 C455 1.372 . S
C456 C457 1.397 . S
C457 C456 1.397 . S
C457 C458 1.390 . S
C457 C473 1.476 . S
C458 H416 0.930 . S
C458 C457 1.390 . S
C458 C459 1.366 . S
C459 H417 0.932 . S
C459 C454 1.360 . S
C459 C458 1.366 . S
C460 C434 1.490 . S
C460 C461 1.380 . S
C460 C465 1.386 . S
C461 H418 0.930 . S
C461 C460 1.380 . S
C461 C462 1.381 . S
C462 H419 0.929 . S
C462 C461 1.381 . S
C462 C463 1.371 . S
C463 C462 1.371 . S
C463 C464 1.380 . S
C464 H420 0.931 . S
C464 C463 1.380 . S
C464 C465 1.387 . S
C465 H421 0.930 . S
C465 C460 1.386 . S
C465 C464 1.387 . S
C466 C435 1.519 . S
C466 C467 1.377 . S
C466 C471 1.361 . S
C467 H422 0.929 . S
C467 C466 1.377 . S
C467 C468 1.386 . S
C468 H423 0.931 . S
C468 C467 1.386 . S
C468 C469 1.363 . S
C469 C468 1.363 . S
C469 C470 1.385 . S
C470 H424 0.930 . S
C470 C469 1.385 . S
C470 C471 1.396 . S
C471 H425 0.929 . S
C471 C466 1.361 . S
C471 C470 1.396 . S
C472 O426 1.300 . S
C472 O427 1.209 . S
C472 C445 1.486 . S
C473 O428 1.199 . S
C473 O429 1.297 . S
C473 C457 1.476 . S
H474 O500 0.856 . S
H475 O503 0.854 . S
H476 C511 0.930 . S
H477 C512 0.930 . S
H478 C514 0.930 . S
H479 C515 0.930 . S
H480 C517 0.931 . S
H481 C518 0.930 . S
H482 C520 0.930 . S
H483 C521 0.929 . S
H484 C523 0.930 . S
H485 C524 0.931 . S
H486 C526 0.930 . S
H487 C527 0.929 . S
H488 C529 0.931 . S
H489 C530 0.930 . S
H490 C532 0.930 . S
H491 C533 0.932 . S
H492 C535 0.930 . S
H493 C536 0.929 . S
H494 C538 0.931 . S
H495 C539 0.930 . S
H496 C541 0.929 . S
H497 C542 0.931 . S
H498 C544 0.930 . S
H499 C545 0.929 . S
O500 H474 0.856 . S
O500 C546 1.300 1_554 S
O501 C546 1.209 1_554 S
O502 C547 1.199 . S
O503 H475 0.854 . S
O503 C547 1.297 . S
C504 C505 1.404 . S
C504 C509 1.397 . S
C504 C510 1.492 . S
C505 C504 1.404 . S
C505 C506 1.396 . S
C505 C516 1.492 . S
C506 C505 1.396 . S
C506 C507 1.397 . S
C506 C522 1.509 . S
C507 C506 1.397 . S
C507 C508 1.412 . S
C507 C528 1.485 . S
C508 C507 1.412 . S
C508 C509 1.388 . S
C508 C534 1.490 . S
C509 C504 1.397 . S
C509 C508 1.388 . S
C509 C540 1.519 . S
C510 C504 1.492 . S
C510 C511 1.363 . S
C510 C515 1.390 . S
C511 H476 0.930 . S
C511 C510 1.363 . S
C511 C512 1.372 . S
C512 H477 0.930 . S
C512 C511 1.372 . S
C512 C513 1.383 . S
C513 C512 1.383 . S
C513 C514 1.395 . S
C514 H478 0.930 . S
C514 C513 1.395 . S
C514 C515 1.362 . S
C515 H479 0.930 . S
C515 C510 1.390 . S
C515 C514 1.362 . S
C516 C505 1.492 . S
C516 C517 1.377 . S
C516 C521 1.397 . S
C517 H480 0.931 . S
C517 C516 1.377 . S
C517 C518 1.376 . S
C518 H481 0.930 . S
C518 C517 1.376 . S
C518 C519 1.376 . S
C519 C518 1.376 . S
C519 C520 1.378 . S
C519 C546 1.486 . S
C520 H482 0.930 . S
C520 C519 1.378 . S
C520 C521 1.376 . S
C521 H483 0.929 . S
C521 C516 1.397 . S
C521 C520 1.376 . S
C522 C506 1.509 . S
C522 C523 1.391 . S
C522 C527 1.386 . S
C523 H484 0.930 . S
C523 C522 1.391 . S
C523 C524 1.375 . S
C524 H485 0.931 . S
C524 C523 1.375 . S
C524 C525 1.375 . S
C525 C524 1.375 . S
C525 C526 1.361 . S
C526 H486 0.930 . S
C526 C525 1.361 . S
C526 C527 1.399 . S
C527 H487 0.929 . S
C527 C522 1.386 . S
C527 C526 1.399 . S
C528 C507 1.485 . S
C528 C529 1.394 . S
C528 C533 1.360 . S
C529 H488 0.931 . S
C529 C528 1.394 . S
C529 C530 1.372 . S
C530 H489 0.930 . S
C530 C529 1.372 . S
C530 C531 1.397 . S
C531 C530 1.397 . S
C531 C532 1.390 . S
C531 C547 1.476 . S
C532 H490 0.930 . S
C532 C531 1.390 . S
C532 C533 1.366 . S
C533 H491 0.932 . S
C533 C528 1.360 . S
C533 C532 1.366 . S
C534 C508 1.490 . S
C534 C535 1.380 . S
C534 C539 1.386 . S
C535 H492 0.930 . S
C535 C534 1.380 . S
C535 C536 1.381 . S
C536 H493 0.929 . S
C536 C535 1.381 . S
C536 C537 1.371 . S
C537 C536 1.371 . S
C537 C538 1.380 . S
C538 H494 0.931 . S
C538 C537 1.380 . S
C538 C539 1.387 . S
C539 H495 0.930 . S
C539 C534 1.386 . S
C539 C538 1.387 . S
C540 C509 1.519 . S
C540 C541 1.377 . S
C540 C545 1.361 . S
C541 H496 0.929 . S
C541 C540 1.377 . S
C541 C542 1.386 . S
C542 H497 0.931 . S
C542 C541 1.386 . S
C542 C543 1.363 . S
C543 C542 1.363 . S
C543 C544 1.385 . S
C544 H498 0.930 . S
C544 C543 1.385 . S
C544 C545 1.396 . S
C545 H499 0.929 . S
C545 C540 1.361 . S
C545 C544 1.396 . S
C546 O500 1.300 1_556 S
C546 O501 1.209 1_556 S
C546 C519 1.486 . S
C547 O502 1.199 . S
C547 O503 1.297 . S
C547 C531 1.476 . S
H548 O574 0.856 . S
H549 O577 0.854 . S
H550 C585 0.930 . S
H551 C586 0.930 . S
H552 C588 0.930 . S
H553 C589 0.930 . S
H554 C591 0.931 . S
H555 C592 0.930 . S
H556 C594 0.930 . S
H557 C595 0.929 . S
H558 C597 0.930 . S
H559 C598 0.931 . S
H560 C600 0.930 . S
H561 C601 0.929 . S
H562 C603 0.931 . S
H563 C604 0.930 . S
H564 C606 0.930 . S
H565 C607 0.932 . S
H566 C609 0.930 . S
H567 C610 0.929 . S
H568 C612 0.931 . S
H569 C613 0.930 . S
H570 C615 0.929 . S
H571 C616 0.931 . S
H572 C618 0.930 . S
H573 C619 0.929 . S
O574 H548 0.856 . S
O574 C620 1.300 . S
O575 C620 1.209 . S
O576 C621 1.199 . S
O577 H549 0.854 . S
O577 C621 1.297 . S
C578 C579 1.404 . S
C578 C583 1.397 . S
C578 C584 1.492 . S
C579 C578 1.404 . S
C579 C580 1.396 . S
C579 C590 1.492 . S
C580 C579 1.396 . S
C580 C581 1.397 . S
C580 C596 1.509 . S
C581 C580 1.397 . S
C581 C582 1.412 . S
C581 C602 1.485 . S
C582 C581 1.412 . S
C582 C583 1.388 . S
C582 C608 1.490 . S
C583 C578 1.397 . S
C583 C582 1.388 . S
C583 C614 1.519 . S
C584 C578 1.492 . S
C584 C585 1.363 . S
C584 C589 1.390 . S
C585 H550 0.930 . S
C585 C584 1.363 . S
C585 C586 1.372 . S
C586 H551 0.930 . S
C586 C585 1.372 . S
C586 C587 1.383 . S
C587 C586 1.383 . S
C587 C588 1.395 . S
C588 H552 0.930 . S
C588 C587 1.395 . S
C588 C589 1.362 . S
C589 H553 0.930 . S
C589 C584 1.390 . S
C589 C588 1.362 . S
C590 C579 1.492 . S
C590 C591 1.377 . S
C590 C595 1.397 . S
C591 H554 0.931 . S
C591 C590 1.377 . S
C591 C592 1.376 . S
C592 H555 0.930 . S
C592 C591 1.376 . S
C592 C593 1.376 . S
C593 C592 1.376 . S
C593 C594 1.378 . S
C593 C620 1.486 1_556 S
C594 H556 0.930 . S
C594 C593 1.378 . S
C594 C595 1.376 . S
C595 H557 0.929 . S
C595 C590 1.397 . S
C595 C594 1.376 . S
C596 C580 1.509 . S
C596 C597 1.391 . S
C596 C601 1.386 . S
C597 H558 0.930 . S
C597 C596 1.391 . S
C597 C598 1.375 . S
C598 H559 0.931 . S
C598 C597 1.375 . S
C598 C599 1.375 . S
C599 C598 1.375 . S
C599 C600 1.361 . S
C600 H560 0.930 . S
C600 C599 1.361 . S
C600 C601 1.399 . S
C601 H561 0.929 . S
C601 C596 1.386 . S
C601 C600 1.399 . S
C602 C581 1.485 . S
C602 C603 1.394 . S
C602 C607 1.360 . S
C603 H562 0.931 . S
C603 C602 1.394 . S
C603 C604 1.372 . S
C604 H563 0.930 . S
C604 C603 1.372 . S
C604 C605 1.397 . S
C605 C604 1.397 . S
C605 C606 1.390 . S
C605 C621 1.476 . S
C606 H564 0.930 . S
C606 C605 1.390 . S
C606 C607 1.366 . S
C607 H565 0.932 . S
C607 C602 1.360 . S
C607 C606 1.366 . S
C608 C582 1.490 . S
C608 C609 1.380 . S
C608 C613 1.386 . S
C609 H566 0.930 . S
C609 C608 1.380 . S
C609 C610 1.381 . S
C610 H567 0.929 . S
C610 C609 1.381 . S
C610 C611 1.371 . S
C611 C610 1.371 . S
C611 C612 1.380 . S
C612 H568 0.931 . S
C612 C611 1.380 . S
C612 C613 1.387 . S
C613 H569 0.930 . S
C613 C608 1.386 . S
C613 C612 1.387 . S
C614 C583 1.519 . S
C614 C615 1.377 . S
C614 C619 1.361 . S
C615 H570 0.929 . S
C615 C614 1.377 . S
C615 C616 1.386 . S
C616 H571 0.931 . S
C616 C615 1.386 . S
C616 C617 1.363 . S
C617 C616 1.363 . S
C617 C618 1.385 . S
C618 H572 0.930 . S
C618 C617 1.385 . S
C618 C619 1.396 . S
C619 H573 0.929 . S
C619 C614 1.361 . S
C619 C618 1.396 . S
C620 O574 1.300 . S
C620 O575 1.209 . S
C620 C593 1.486 1_554 S
C621 O576 1.199 . S
C621 O577 1.297 . S
C621 C605 1.476 . S
H622 O648 0.856 . S
H623 O651 0.854 . S
H624 C659 0.930 . S
H625 C660 0.930 . S
H626 C662 0.930 . S
H627 C663 0.930 . S
H628 C665 0.931 . S
H629 C666 0.930 1_554 S
H630 C668 0.930 . S
H631 C669 0.929 . S
H632 C671 0.930 . S
H633 C672 0.931 . S
H634 C674 0.930 . S
H635 C675 0.929 . S
H636 C677 0.931 . S
H637 C678 0.930 . S
H638 C680 0.930 . S
H639 C681 0.932 . S
H640 C683 0.930 . S
H641 C684 0.929 . S
H642 C686 0.931 . S
H643 C687 0.930 . S
H644 C689 0.929 . S
H645 C690 0.931 . S
H646 C692 0.930 . S
H647 C693 0.929 . S
O648 H622 0.856 . S
O648 C694 1.300 . S
O649 C694 1.209 . S
O650 C695 1.199 . S
O651 H623 0.854 . S
O651 C695 1.297 . S
C652 C653 1.404 . S
C652 C657 1.397 . S
C652 C658 1.492 . S
C653 C652 1.404 . S
C653 C654 1.396 . S
C653 C664 1.492 . S
C654 C653 1.396 . S
C654 C655 1.397 . S
C654 C670 1.509 . S
C655 C654 1.397 . S
C655 C656 1.412 . S
C655 C676 1.485 . S
C656 C655 1.412 . S
C656 C657 1.388 . S
C656 C682 1.490 . S
C657 C652 1.397 . S
C657 C656 1.388 . S
C657 C688 1.519 . S
C658 C652 1.492 . S
C658 C659 1.363 . S
C658 C663 1.390 . S
C659 H624 0.930 . S
C659 C658 1.363 . S
C659 C660 1.372 . S
C660 H625 0.930 . S
C660 C659 1.372 . S
C660 C661 1.383 . S
C661 C660 1.383 . S
C661 C662 1.395 . S
C662 H626 0.930 . S
C662 C661 1.395 . S
C662 C663 1.362 . S
C663 H627 0.930 . S
C663 C658 1.390 . S
C663 C662 1.362 . S
C664 C653 1.492 . S
C664 C665 1.377 . S
C664 C669 1.397 . S
C665 H628 0.931 . S
C665 C664 1.377 . S
C665 C666 1.376 . S
C666 H629 0.930 1_556 S
C666 C665 1.376 . S
C666 C667 1.376 . S
C667 C666 1.376 . S
C667 C668 1.378 . S
C667 C694 1.486 1_556 S
C668 H630 0.930 . S
C668 C667 1.378 . S
C668 C669 1.376 . S
C669 H631 0.929 . S
C669 C664 1.397 . S
C669 C668 1.376 . S
C670 C654 1.509 . S
C670 C671 1.391 . S
C670 C675 1.386 . S
C671 H632 0.930 . S
C671 C670 1.391 . S
C671 C672 1.375 . S
C672 H633 0.931 . S
C672 C671 1.375 . S
C672 C673 1.375 . S
C673 C672 1.375 . S
C673 C674 1.361 . S
C674 H634 0.930 . S
C674 C673 1.361 . S
C674 C675 1.399 . S
C675 H635 0.929 . S
C675 C670 1.386 . S
C675 C674 1.399 . S
C676 C655 1.485 . S
C676 C677 1.394 . S
C676 C681 1.360 . S
C677 H636 0.931 . S
C677 C676 1.394 . S
C677 C678 1.372 . S
C678 H637 0.930 . S
C678 C677 1.372 . S
C678 C679 1.397 . S
C679 C678 1.397 . S
C679 C680 1.390 . S
C679 C695 1.476 . S
C680 H638 0.930 . S
C680 C679 1.390 . S
C680 C681 1.366 . S
C681 H639 0.932 . S
C681 C676 1.360 . S
C681 C680 1.366 . S
C682 C656 1.490 . S
C682 C683 1.380 . S
C682 C687 1.386 . S
C683 H640 0.930 . S
C683 C682 1.380 . S
C683 C684 1.381 . S
C684 H641 0.929 . S
C684 C683 1.381 . S
C684 C685 1.371 . S
C685 C684 1.371 . S
C685 C686 1.380 . S
C686 H642 0.931 . S
C686 C685 1.380 . S
C686 C687 1.387 . S
C687 H643 0.930 . S
C687 C682 1.386 . S
C687 C686 1.387 . S
C688 C657 1.519 . S
C688 C689 1.377 . S
C688 C693 1.361 . S
C689 H644 0.929 . S
C689 C688 1.377 . S
C689 C690 1.386 . S
C690 H645 0.931 . S
C690 C689 1.386 . S
C690 C691 1.363 . S
C691 C690 1.363 . S
C691 C692 1.385 . S
C692 H646 0.930 . S
C692 C691 1.385 . S
C692 C693 1.396 . S
C693 H647 0.929 . S
C693 C688 1.361 . S
C693 C692 1.396 . S
C694 O648 1.300 . S
C694 O649 1.209 . S
C694 C667 1.486 1_554 S
C695 O650 1.199 . S
C695 O651 1.297 . S
C695 C679 1.476 . S
H696 O722 0.856 . S
H697 O725 0.854 . S
H698 C733 0.930 . S
H699 C734 0.930 . S
H700 C736 0.930 . S
H701 C737 0.930 . S
H702 C739 0.931 . S
H703 C740 0.930 . S
H704 C742 0.930 . S
H705 C743 0.929 . S
H706 C745 0.930 . S
H707 C746 0.931 . S
H708 C748 0.930 . S
H709 C749 0.929 . S
H710 C751 0.931 . S
H711 C752 0.930 . S
H712 C754 0.930 . S
H713 C755 0.932 . S
H714 C757 0.930 . S
H715 C758 0.929 . S
H716 C760 0.931 . S
H717 C761 0.930 . S
H718 C763 0.929 . S
H719 C764 0.931 . S
H720 C766 0.930 . S
H721 C767 0.929 . S
O722 H696 0.856 . S
O722 C768 1.300 . S
O723 C768 1.209 . S
O724 C769 1.199 . S
O725 H697 0.854 . S
O725 C769 1.297 . S
C726 C727 1.404 . S
C726 C731 1.397 . S
C726 C732 1.492 . S
C727 C726 1.404 . S
C727 C728 1.396 . S
C727 C738 1.492 . S
C728 C727 1.396 . S
C728 C729 1.397 . S
C728 C744 1.509 . S
C729 C728 1.397 . S
C729 C730 1.412 . S
C729 C750 1.485 . S
C730 C729 1.412 . S
C730 C731 1.388 . S
C730 C756 1.490 . S
C731 C726 1.397 . S
C731 C730 1.388 . S
C731 C762 1.519 . S
C732 C726 1.492 . S
C732 C733 1.363 . S
C732 C737 1.390 . S
C733 H698 0.930 . S
C733 C732 1.363 . S
C733 C734 1.372 . S
C734 H699 0.930 . S
C734 C733 1.372 . S
C734 C735 1.383 . S
C735 C734 1.383 . S
C735 C736 1.395 . S
C736 H700 0.930 . S
C736 C735 1.395 . S
C736 C737 1.362 . S
C737 H701 0.930 . S
C737 C732 1.390 . S
C737 C736 1.362 . S
C738 C727 1.492 . S
C738 C739 1.377 . S
C738 C743 1.397 . S
C739 H702 0.931 . S
C739 C738 1.377 . S
C739 C740 1.376 . S
C740 H703 0.930 . S
C740 C739 1.376 . S
C740 C741 1.376 . S
C741 C740 1.376 . S
C741 C742 1.378 . S
C741 C768 1.486 . S
C742 H704 0.930 . S
C742 C741 1.378 . S
C742 C743 1.376 . S
C743 H705 0.929 . S
C743 C738 1.397 . S
C743 C742 1.376 . S
C744 C728 1.509 . S
C744 C745 1.391 . S
C744 C749 1.386 . S
C745 H706 0.930 . S
C745 C744 1.391 . S
C745 C746 1.375 . S
C746 H707 0.931 . S
C746 C745 1.375 . S
C746 C747 1.375 . S
C747 C746 1.375 . S
C747 C748 1.361 . S
C748 H708 0.930 . S
C748 C747 1.361 . S
C748 C749 1.399 . S
C749 H709 0.929 . S
C749 C744 1.386 . S
C749 C748 1.399 . S
C750 C729 1.485 . S
C750 C751 1.394 . S
C750 C755 1.360 . S
C751 H710 0.931 . S
C751 C750 1.394 . S
C751 C752 1.372 . S
C752 H711 0.930 . S
C752 C751 1.372 . S
C752 C753 1.397 . S
C753 C752 1.397 . S
C753 C754 1.390 . S
C753 C769 1.476 . S
C754 H712 0.930 . S
C754 C753 1.390 . S
C754 C755 1.366 . S
C755 H713 0.932 . S
C755 C750 1.360 . S
C755 C754 1.366 . S
C756 C730 1.490 . S
C756 C757 1.380 . S
C756 C761 1.386 . S
C757 H714 0.930 . S
C757 C756 1.380 . S
C757 C758 1.381 . S
C758 H715 0.929 . S
C758 C757 1.381 . S
C758 C759 1.371 . S
C759 C758 1.371 . S
C759 C760 1.380 . S
C760 H716 0.931 . S
C760 C759 1.380 . S
C760 C761 1.387 . S
C761 H717 0.930 . S
C761 C756 1.386 . S
C761 C760 1.387 . S
C762 C731 1.519 . S
C762 C763 1.377 . S
C762 C767 1.361 . S
C763 H718 0.929 . S
C763 C762 1.377 . S
C763 C764 1.386 . S
C764 H719 0.931 . S
C764 C763 1.386 . S
C764 C765 1.363 . S
C765 C764 1.363 . S
C765 C766 1.385 . S
C766 H720 0.930 . S
C766 C765 1.385 . S
C766 C767 1.396 . S
C767 H721 0.929 . S
C767 C762 1.361 . S
C767 C766 1.396 . S
C768 O722 1.300 . S
C768 O723 1.209 . S
C768 C741 1.486 . S
C769 O724 1.199 . S
C769 O725 1.297 . S
C769 C753 1.476 . S
H770 O796 0.856 . S
H771 O799 0.854 . S
H772 C807 0.930 . S
H773 C808 0.930 . S
H774 C810 0.930 . S
H775 C811 0.930 . S
H776 C813 0.931 . S
H777 C814 0.930 . S
H778 C816 0.930 . S
H779 C817 0.929 . S
H780 C819 0.930 . S
H781 C820 0.931 . S
H782 C822 0.930 . S
H783 C823 0.929 . S
H784 C825 0.931 . S
H785 C826 0.930 . S
H786 C828 0.930 . S
H787 C829 0.932 . S
H788 C831 0.930 . S
H789 C832 0.929 . S
H790 C834 0.931 . S
H791 C835 0.930 . S
H792 C837 0.929 . S
H793 C838 0.931 . S
H794 C840 0.930 . S
H795 C841 0.929 . S
O796 H770 0.856 . S
O796 C842 1.300 . S
O797 C842 1.209 . S
O798 C843 1.199 . S
O799 H771 0.854 . S
O799 C843 1.297 . S
C800 C801 1.404 . S
C800 C805 1.397 . S
C800 C806 1.492 . S
C801 C800 1.404 . S
C801 C802 1.396 . S
C801 C812 1.492 . S
C802 C801 1.396 . S
C802 C803 1.397 . S
C802 C818 1.509 . S
C803 C802 1.397 . S
C803 C804 1.412 . S
C803 C824 1.485 . S
C804 C803 1.412 . S
C804 C805 1.388 . S
C804 C830 1.490 . S
C805 C800 1.397 . S
C805 C804 1.388 . S
C805 C836 1.519 . S
C806 C800 1.492 . S
C806 C807 1.363 . S
C806 C811 1.390 . S
C807 H772 0.930 . S
C807 C806 1.363 . S
C807 C808 1.372 . S
C808 H773 0.930 . S
C808 C807 1.372 . S
C808 C809 1.383 . S
C809 C808 1.383 . S
C809 C810 1.395 . S
C810 H774 0.930 . S
C810 C809 1.395 . S
C810 C811 1.362 . S
C811 H775 0.930 . S
C811 C806 1.390 . S
C811 C810 1.362 . S
C812 C801 1.492 . S
C812 C813 1.377 . S
C812 C817 1.397 . S
C813 H776 0.931 . S
C813 C812 1.377 . S
C813 C814 1.376 . S
C814 H777 0.930 . S
C814 C813 1.376 . S
C814 C815 1.376 . S
C815 C814 1.376 . S
C815 C816 1.378 . S
C815 C842 1.486 . S
C816 H778 0.930 . S
C816 C815 1.378 . S
C816 C817 1.376 . S
C817 H779 0.929 . S
C817 C812 1.397 . S
C817 C816 1.376 . S
C818 C802 1.509 . S
C818 C819 1.391 . S
C818 C823 1.386 . S
C819 H780 0.930 . S
C819 C818 1.391 . S
C819 C820 1.375 . S
C820 H781 0.931 . S
C820 C819 1.375 . S
C820 C821 1.375 . S
C821 C820 1.375 . S
C821 C822 1.361 . S
C822 H782 0.930 . S
C822 C821 1.361 . S
C822 C823 1.399 . S
C823 H783 0.929 . S
C823 C818 1.386 . S
C823 C822 1.399 . S
C824 C803 1.485 . S
C824 C825 1.394 . S
C824 C829 1.360 . S
C825 H784 0.931 . S
C825 C824 1.394 . S
C825 C826 1.372 . S
C826 H785 0.930 . S
C826 C825 1.372 . S
C826 C827 1.397 . S
C827 C826 1.397 . S
C827 C828 1.390 . S
C827 C843 1.476 . S
C828 H786 0.930 . S
C828 C827 1.390 . S
C828 C829 1.366 . S
C829 H787 0.932 . S
C829 C824 1.360 . S
C829 C828 1.366 . S
C830 C804 1.490 . S
C830 C831 1.380 . S
C830 C835 1.386 . S
C831 H788 0.930 . S
C831 C830 1.380 . S
C831 C832 1.381 . S
C832 H789 0.929 . S
C832 C831 1.381 . S
C832 C833 1.371 . S
C833 C832 1.371 . S
C833 C834 1.380 . S
C834 H790 0.931 . S
C834 C833 1.380 . S
C834 C835 1.387 . S
C835 H791 0.930 . S
C835 C830 1.386 . S
C835 C834 1.387 . S
C836 C805 1.519 . S
C836 C837 1.377 . S
C836 C841 1.361 . S
C837 H792 0.929 . S
C837 C836 1.377 . S
C837 C838 1.386 . S
C838 H793 0.931 . S
C838 C837 1.386 . S
C838 C839 1.363 . S
C839 C838 1.363 . S
C839 C840 1.385 . S
C840 H794 0.930 . S
C840 C839 1.385 . S
C840 C841 1.396 . S
C841 H795 0.929 . S
C841 C836 1.361 . S
C841 C840 1.396 . S
C842 O796 1.300 . S
C842 O797 1.209 . S
C842 C815 1.486 . S
C843 O798 1.199 . S
C843 O799 1.297 . S
C843 C827 1.476 . S
H844 O870 0.856 . S
H845 O873 0.854 . S
H846 C881 0.930 . S
H847 C882 0.930 . S
H848 C884 0.930 . S
H849 C885 0.930 . S
H850 C887 0.931 . S
H851 C888 0.930 . S
H852 C890 0.930 . S
H853 C891 0.929 . S
H854 C893 0.930 . S
H855 C894 0.931 . S
H856 C896 0.930 . S
H857 C897 0.929 . S
H858 C899 0.931 . S
H859 C900 0.930 . S
H860 C902 0.930 . S
H861 C903 0.932 . S
H862 C905 0.930 . S
H863 C906 0.929 . S
H864 C908 0.931 . S
H865 C909 0.930 . S
H866 C911 0.929 . S
H867 C912 0.931 . S
H868 C914 0.930 . S
H869 C915 0.929 . S
O870 H844 0.856 . S
O870 C916 1.300 . S
O871 C916 1.209 . S
O872 C917 1.199 . S
O873 H845 0.854 . S
O873 C917 1.297 . S
C874 C875 1.404 . S
C874 C879 1.397 . S
C874 C880 1.492 . S
C875 C874 1.404 . S
C875 C876 1.396 . S
C875 C886 1.492 . S
C876 C875 1.396 . S
C876 C877 1.397 . S
C876 C892 1.509 . S
C877 C876 1.397 . S
C877 C878 1.412 . S
C877 C898 1.485 . S
C878 C877 1.412 . S
C878 C879 1.388 . S
C878 C904 1.490 . S
C879 C874 1.397 . S
C879 C878 1.388 . S
C879 C910 1.519 . S
C880 C874 1.492 . S
C880 C881 1.363 . S
C880 C885 1.390 . S
C881 H846 0.930 . S
C881 C880 1.363 . S
C881 C882 1.372 . S
C882 H847 0.930 . S
C882 C881 1.372 . S
C882 C883 1.383 . S
C883 C882 1.383 . S
C883 C884 1.395 . S
C884 H848 0.930 . S
C884 C883 1.395 . S
C884 C885 1.362 . S
C885 H849 0.930 . S
C885 C880 1.390 . S
C885 C884 1.362 . S
C886 C875 1.492 . S
C886 C887 1.377 . S
C886 C891 1.397 . S
C887 H850 0.931 . S
C887 C886 1.377 . S
C887 C888 1.376 . S
C888 H851 0.930 . S
C888 C887 1.376 . S
C888 C889 1.376 . S
C889 C888 1.376 . S
C889 C890 1.378 . S
C889 C916 1.486 . S
C890 H852 0.930 . S
C890 C889 1.378 . S
C890 C891 1.376 . S
C891 H853 0.929 . S
C891 C886 1.397 . S
C891 C890 1.376 . S
C892 C876 1.509 . S
C892 C893 1.391 . S
C892 C897 1.386 . S
C893 H854 0.930 . S
C893 C892 1.391 . S
C893 C894 1.375 . S
C894 H855 0.931 . S
C894 C893 1.375 . S
C894 C895 1.375 . S
C895 C894 1.375 . S
C895 C896 1.361 . S
C896 H856 0.930 . S
C896 C895 1.361 . S
C896 C897 1.399 . S
C897 H857 0.929 . S
C897 C892 1.386 . S
C897 C896 1.399 . S
C898 C877 1.485 . S
C898 C899 1.394 . S
C898 C903 1.360 . S
C899 H858 0.931 . S
C899 C898 1.394 . S
C899 C900 1.372 . S
C900 H859 0.930 . S
C900 C899 1.372 . S
C900 C901 1.397 . S
C901 C900 1.397 . S
C901 C902 1.390 . S
C901 C917 1.476 . S
C902 H860 0.930 . S
C902 C901 1.390 . S
C902 C903 1.366 . S
C903 H861 0.932 . S
C903 C898 1.360 . S
C903 C902 1.366 . S
C904 C878 1.490 . S
C904 C905 1.380 . S
C904 C909 1.386 . S
C905 H862 0.930 . S
C905 C904 1.380 . S
C905 C906 1.381 . S
C906 H863 0.929 . S
C906 C905 1.381 . S
C906 C907 1.371 . S
C907 C906 1.371 . S
C907 C908 1.380 . S
C908 H864 0.931 . S
C908 C907 1.380 . S
C908 C909 1.387 . S
C909 H865 0.930 . S
C909 C904 1.386 . S
C909 C908 1.387 . S
C910 C879 1.519 . S
C910 C911 1.377 . S
C910 C915 1.361 . S
C911 H866 0.929 . S
C911 C910 1.377 . S
C911 C912 1.386 . S
C912 H867 0.931 . S
C912 C911 1.386 . S
C912 C913 1.363 . S
C913 C912 1.363 . S
C913 C914 1.385 . S
C914 H868 0.930 . S
C914 C913 1.385 . S
C914 C915 1.396 . S
C915 H869 0.929 . S
C915 C910 1.361 . S
C915 C914 1.396 . S
C916 O870 1.300 . S
C916 O871 1.209 . S
C916 C889 1.486 . S
C917 O872 1.199 . S
C917 O873 1.297 . S
C917 C901 1.476 . S
H918 O944 0.856 . S
H919 O947 0.854 . S
H920 C955 0.930 . S
H921 C956 0.930 . S
H922 C958 0.930 . S
H923 C959 0.930 . S
H924 C961 0.931 . S
H925 C962 0.930 1_655 S
H926 C964 0.930 . S
H927 C965 0.929 . S
H928 C967 0.930 . S
H929 C968 0.931 1_655 S
H930 C970 0.930 . S
H931 C971 0.929 . S
H932 C973 0.931 . S
H933 C974 0.930 . S
H934 C976 0.930 . S
H935 C977 0.932 . S
H936 C979 0.930 . S
H937 C980 0.929 . S
H938 C982 0.931 . S
H939 C983 0.930 . S
H940 C985 0.929 . S
H941 C986 0.931 . S
H942 C988 0.930 . S
H943 C989 0.929 . S
O944 H918 0.856 . S
O944 C990 1.300 . S
O945 C990 1.209 . S
O946 C991 1.199 1_655 S
O947 H919 0.854 . S
O947 C991 1.297 . S
C948 C949 1.404 . S
C948 C953 1.393 . S
C948 C954 1.492 . S
C949 C948 1.404 . S
C949 C950 1.396 . S
C949 C960 1.492 . S
C950 C949 1.396 . S
C950 C951 1.397 . S
C950 C966 1.509 . S
C951 C950 1.397 . S
C951 C952 1.428 . S
C951 C972 1.485 . S
C952 C951 1.428 . S
C952 C953 1.401 . S
C952 C978 1.491 1_455 S
C953 C948 1.393 . S
C953 C952 1.401 . S
C953 C984 1.483 1_455 S
C954 C948 1.492 . S
C954 C955 1.363 1_455 S
C954 C959 1.390 . S
C955 H920 0.930 . S
C955 C954 1.363 1_655 S
C955 C956 1.372 . S
C956 H921 0.930 . S
C956 C955 1.372 . S
C956 C957 1.383 . S
C957 C956 1.383 . S
C957 C958 1.395 1_655 S
C958 H922 0.930 . S
C958 C957 1.395 1_455 S
C958 C959 1.362 . S
C959 H923 0.930 . S
C959 C954 1.390 . S
C959 C958 1.362 . S
C960 C949 1.492 . S
C960 C961 1.377 1_455 S
C960 C965 1.397 . S
C961 H924 0.931 . S
C961 C960 1.377 1_655 S
C961 C962 1.376 1_655 S
C962 H925 0.930 1_455 S
C962 C961 1.376 1_455 S
C962 C963 1.376 . S
C963 C962 1.376 . S
C963 C964 1.378 . S
C963 C990 1.486 . S
C964 H926 0.930 . S
C964 C963 1.378 . S
C964 C965 1.376 . S
C965 H927 0.929 . S
C965 C960 1.397 . S
C965 C964 1.376 . S
C966 C950 1.509 . S
C966 C967 1.391 1_455 S
C966 C971 1.386 . S
C967 H928 0.930 . S
C967 C966 1.391 1_655 S
C967 C968 1.375 1_655 S
C968 H929 0.931 1_455 S
C968 C967 1.375 1_455 S
C968 C969 1.375 . S
C969 C968 1.375 . S
C969 C970 1.361 . S
C970 H930 0.930 . S
C970 C969 1.361 . S
C970 C971 1.399 . S
C971 H931 0.929 . S
C971 C966 1.386 . S
C971 C970 1.399 . S
C972 C951 1.485 . S
C972 C973 1.394 1_455 S
C972 C977 1.360 . S
C973 H932 0.931 . S
C973 C972 1.394 1_655 S
C973 C974 1.372 . S
C974 H933 0.930 . S
C974 C973 1.372 . S
C974 C975 1.397 1_655 S
C975 C974 1.397 1_455 S
C975 C976 1.390 . S
C975 C991 1.476 . S
C976 H934 0.930 . S
C976 C975 1.390 . S
C976 C977 1.366 . S
C977 H935 0.932 . S
C977 C972 1.360 . S
C977 C976 1.366 . S
C978 C952 1.491 1_655 S
C978 C979 1.380 . S
C978 C983 1.386 1_655 S
C979 H936 0.930 . S
C979 C978 1.380 . S
C979 C980 1.381 . S
C980 H937 0.929 . S
C980 C979 1.381 . S
C980 C981 1.371 . S
C981 C980 1.371 . S
C981 C982 1.380 1_655 S
C982 H938 0.931 . S
C982 C981 1.380 1_455 S
C982 C983 1.387 . S
C983 H939 0.930 . S
C983 C978 1.386 1_455 S
C983 C982 1.387 . S
C984 C953 1.483 1_655 S
C984 C985 1.418 . S
C984 C989 1.334 1_655 S
C985 H940 0.929 . S
C985 C984 1.418 . S
C985 C986 1.386 . S
C986 H941 0.931 . S
C986 C985 1.386 . S
C986 C987 1.398 . S
C987 C986 1.398 . S
C987 C988 1.331 1_655 S
C988 H942 0.930 . S
C988 C987 1.331 1_455 S
C988 C989 1.396 . S
C989 H943 0.929 . S
C989 C984 1.334 1_455 S
C989 C988 1.396 . S
C990 O944 1.300 . S
C990 O945 1.209 . S
C990 C963 1.486 . S
C991 O946 1.199 1_455 S
C991 O947 1.297 . S
C991 C975 1.476 . S
H992 O1018 0.856 . S
H993 O1021 0.854 . S
H994 C1029 0.930 . S
H995 C1030 0.930 . S
H996 C1032 0.930 . S
H997 C1033 0.930 . S
H998 C1035 0.931 . S
H999 C1036 0.930 . S
H1000 C1038 0.930 . S
H1001 C1039 0.929 . S
H1002 C1041 0.930 . S
H1003 C1042 0.931 . S
H1004 C1044 0.930 . S
H1005 C1045 0.929 . S
H1006 C1047 0.931 . S
H1007 C1048 0.930 . S
H1008 C1050 0.930 . S
H1009 C1051 0.932 . S
H1010 C1053 0.930 . S
H1011 C1054 0.929 . S
H1012 C1056 0.931 . S
H1013 C1057 0.930 . S
H1014 C1059 0.929 . S
H1015 C1060 0.931 . S
H1016 C1062 0.930 . S
H1017 C1063 0.929 . S
O1018 H992 0.856 . S
O1018 C1064 1.300 . S
O1019 C1064 1.209 . S
O1020 C1065 1.199 . S
O1021 H993 0.854 . S
O1021 C1065 1.297 . S
C1022 C1023 1.404 . S
C1022 C1027 1.397 . S
C1022 C1028 1.492 . S
C1023 C1022 1.404 . S
C1023 C1024 1.396 . S
C1023 C1034 1.492 . S
C1024 C1023 1.396 . S
C1024 C1025 1.397 . S
C1024 C1040 1.509 . S
C1025 C1024 1.397 . S
C1025 C1026 1.412 . S
C1025 C1046 1.485 . S
C1026 C1025 1.412 . S
C1026 C1027 1.388 . S
C1026 C1052 1.490 . S
C1027 C1022 1.397 . S
C1027 C1026 1.388 . S
C1027 C1058 1.519 . S
C1028 C1022 1.492 . S
C1028 C1029 1.363 . S
C1028 C1033 1.390 . S
C1029 H994 0.930 . S
C1029 C1028 1.363 . S
C1029 C1030 1.372 . S
C1030 H995 0.930 . S
C1030 C1029 1.372 . S
C1030 C1031 1.383 . S
C1031 C1030 1.383 . S
C1031 C1032 1.395 . S
C1032 H996 0.930 . S
C1032 C1031 1.395 . S
C1032 C1033 1.362 . S
C1033 H997 0.930 . S
C1033 C1028 1.390 . S
C1033 C1032 1.362 . S
C1034 C1023 1.492 . S
C1034 C1035 1.377 . S
C1034 C1039 1.397 . S
C1035 H998 0.931 . S
C1035 C1034 1.377 . S
C1035 C1036 1.376 . S
C1036 H999 0.930 . S
C1036 C1035 1.376 . S
C1036 C1037 1.376 . S
C1037 C1036 1.376 . S
C1037 C1038 1.378 . S
C1037 C1064 1.486 . S
C1038 H1000 0.930 . S
C1038 C1037 1.378 . S
C1038 C1039 1.376 . S
C1039 H1001 0.929 . S
C1039 C1034 1.397 . S
C1039 C1038 1.376 . S
C1040 C1024 1.509 . S
C1040 C1041 1.391 . S
C1040 C1045 1.386 . S
C1041 H1002 0.930 . S
C1041 C1040 1.391 . S
C1041 C1042 1.375 . S
C1042 H1003 0.931 . S
C1042 C1041 1.375 . S
C1042 C1043 1.375 . S
C1043 C1042 1.375 . S
C1043 C1044 1.361 . S
C1044 H1004 0.930 . S
C1044 C1043 1.361 . S
C1044 C1045 1.399 . S
C1045 H1005 0.929 . S
C1045 C1040 1.386 . S
C1045 C1044 1.399 . S
C1046 C1025 1.485 . S
C1046 C1047 1.394 . S
C1046 C1051 1.360 . S
C1047 H1006 0.931 . S
C1047 C1046 1.394 . S
C1047 C1048 1.372 . S
C1048 H1007 0.930 . S
C1048 C1047 1.372 . S
C1048 C1049 1.397 . S
C1049 C1048 1.397 . S
C1049 C1050 1.390 . S
C1049 C1065 1.476 . S
C1050 H1008 0.930 . S
C1050 C1049 1.390 . S
C1050 C1051 1.366 . S
C1051 H1009 0.932 . S
C1051 C1046 1.360 . S
C1051 C1050 1.366 . S
C1052 C1026 1.490 . S
C1052 C1053 1.380 . S
C1052 C1057 1.386 . S
C1053 H1010 0.930 . S
C1053 C1052 1.380 . S
C1053 C1054 1.381 . S
C1054 H1011 0.929 . S
C1054 C1053 1.381 . S
C1054 C1055 1.371 . S
C1055 C1054 1.371 . S
C1055 C1056 1.380 . S
C1056 H1012 0.931 . S
C1056 C1055 1.380 . S
C1056 C1057 1.387 . S
C1057 H1013 0.930 . S
C1057 C1052 1.386 . S
C1057 C1056 1.387 . S
C1058 C1027 1.519 . S
C1058 C1059 1.377 . S
C1058 C1063 1.361 . S
C1059 H1014 0.929 . S
C1059 C1058 1.377 . S
C1059 C1060 1.386 . S
C1060 H1015 0.931 . S
C1060 C1059 1.386 . S
C1060 C1061 1.363 . S
C1061 C1060 1.363 . S
C1061 C1062 1.385 . S
C1062 H1016 0.930 . S
C1062 C1061 1.385 . S
C1062 C1063 1.396 . S
C1063 H1017 0.929 . S
C1063 C1058 1.361 . S
C1063 C1062 1.396 . S
C1064 O1018 1.300 . S
C1064 O1019 1.209 . S
C1064 C1037 1.486 . S
C1065 O1020 1.199 . S
C1065 O1021 1.297 . S
C1065 C1049 1.476 . S
H1066 O1092 0.856 . S
H1067 O1095 0.854 . S
H1068 C1103 0.930 . S
H1069 C1104 0.930 . S
H1070 C1106 0.930 . S
H1071 C1107 0.930 . S
H1072 C1109 0.931 . S
H1073 C1110 0.939 . S
H1074 C1112 0.930 . S
H1075 C1113 0.929 . S
H1076 C1115 0.930 . S
H1077 C1116 0.931 . S
H1078 C1118 0.930 . S
H1079 C1119 0.929 . S
H1080 C1121 0.931 . S
H1081 C1122 0.930 . S
H1082 C1124 0.930 . S
H1083 C1125 0.932 . S
H1084 C1127 0.930 . S
H1085 C1128 0.929 . S
H1086 C1130 0.931 . S
H1087 C1131 0.930 . S
H1088 C1133 0.929 . S
H1089 C1134 0.931 . S
H1090 C1136 0.930 . S
H1091 C1137 0.929 . S
O1092 H1066 0.856 . S
O1092 C1138 1.300 . S
O1093 C1138 1.209 . S
O1094 C1139 1.199 1_545 S
O1095 H1067 0.854 . S
O1095 C1139 1.297 . S
C1096 C1097 1.404 . S
C1096 C1101 1.413 . S
C1096 C1102 1.492 . S
C1097 C1096 1.404 . S
C1097 C1098 1.396 . S
C1097 C1108 1.492 . S
C1098 C1097 1.396 . S
C1098 C1099 1.397 . S
C1098 C1114 1.509 . S
C1099 C1098 1.397 . S
C1099 C1100 1.412 1_565 S
C1099 C1120 1.485 . S
C1100 C1099 1.412 1_545 S
C1100 C1101 1.363 1_545 S
C1100 C1126 1.491 . S
C1101 C1096 1.413 . S
C1101 C1100 1.363 1_565 S
C1101 C1132 1.535 . S
C1102 C1096 1.492 . S
C1102 C1103 1.363 1_565 S
C1102 C1107 1.390 . S
C1103 H1068 0.930 . S
C1103 C1102 1.363 1_545 S
C1103 C1104 1.372 . S
C1104 H1069 0.930 . S
C1104 C1103 1.372 . S
C1104 C1105 1.450 . S
C1105 C1104 1.450 . S
C1105 C1106 1.362 1_545 S
C1106 H1070 0.930 . S
C1106 C1105 1.362 1_565 S
C1106 C1107 1.362 . S
C1107 H1071 0.930 . S
C1107 C1102 1.390 . S
C1107 C1106 1.362 . S
C1108 C1097 1.492 . S
C1108 C1109 1.377 1_565 S
C1108 C1113 1.397 . S
C1109 H1072 0.931 . S
C1109 C1108 1.377 1_545 S
C1109 C1110 1.380 . S
C1110 H1073 0.939 . S
C1110 C1109 1.380 . S
C1110 C1111 1.362 1_545 S
C1111 C1110 1.362 1_565 S
C1111 C1112 1.378 . S
C1111 C1138 1.486 . S
C1112 H1074 0.930 . S
C1112 C1111 1.378 . S
C1112 C1113 1.376 . S
C1113 H1075 0.929 . S
C1113 C1108 1.397 . S
C1113 C1112 1.376 . S
C1114 C1098 1.509 . S
C1114 C1115 1.391 1_565 S
C1114 C1119 1.386 . S
C1115 H1076 0.930 . S
C1115 C1114 1.391 1_545 S
C1115 C1116 1.375 . S
C1116 H1077 0.931 . S
C1116 C1115 1.375 . S
C1116 C1117 1.375 1_545 S
C1117 C1116 1.375 1_565 S
C1117 C1118 1.361 . S
C1118 H1078 0.930 . S
C1118 C1117 1.361 . S
C1118 C1119 1.399 . S
C1119 H1079 0.929 . S
C1119 C1114 1.386 . S
C1119 C1118 1.399 . S
C1120 C1099 1.485 . S
C1120 C1121 1.394 1_565 S
C1120 C1125 1.360 . S
C1121 H1080 0.931 . S
C1121 C1120 1.394 1_545 S
C1121 C1122 1.372 . S
C1122 H1081 0.930 . S
C1122 C1121 1.372 . S
C1122 C1123 1.397 1_545 S
C1123 C1122 1.397 1_565 S
C1123 C1124 1.390 . S
C1123 C1139 1.476 . S
C1124 H1082 0.930 . S
C1124 C1123 1.390 . S
C1124 C1125 1.366 . S
C1125 H1083 0.932 . S
C1125 C1120 1.360 . S
C1125 C1124 1.366 . S
C1126 C1100 1.491 . S
C1126 C1127 1.380 . S
C1126 C1131 1.386 1_545 S
C1127 H1084 0.930 . S
C1127 C1126 1.380 . S
C1127 C1128 1.381 . S
C1128 H1085 0.929 . S
C1128 C1127 1.381 . S
C1128 C1129 1.371 . S
C1129 C1128 1.371 . S
C1129 C1130 1.380 1_545 S
C1130 H1086 0.931 . S
C1130 C1129 1.380 1_565 S
C1130 C1131 1.387 . S
C1131 H1087 0.930 . S
C1131 C1126 1.386 1_565 S
C1131 C1130 1.387 . S
C1132 C1101 1.535 . S
C1132 C1133 1.378 1_565 S
C1132 C1137 1.359 . S
C1133 H1088 0.929 . S
C1133 C1132 1.378 1_545 S
C1133 C1134 1.386 . S
C1134 H1089 0.931 . S
C1134 C1133 1.386 . S
C1134 C1135 1.363 1_545 S
C1135 C1134 1.363 1_565 S
C1135 C1136 1.385 . S
C1136 H1090 0.930 . S
C1136 C1135 1.385 . S
C1136 C1137 1.396 . S
C1137 H1091 0.929 . S
C1137 C1132 1.359 . S
C1137 C1136 1.396 . S
C1138 O1092 1.300 . S
C1138 O1093 1.209 . S
C1138 C1111 1.486 . S
C1139 O1094 1.199 1_565 S
C1139 O1095 1.297 . S
C1139 C1123 1.476 . S
H1140 O1166 0.856 . S
H1141 O1169 0.854 . S
H1142 C1177 0.930 . S
H1143 C1178 0.930 . S
H1144 C1180 0.930 . S
H1145 C1181 0.930 . S
H1146 C1183 0.931 . S
H1147 C1184 0.930 . S
H1148 C1186 0.930 . S
H1149 C1187 0.929 . S
H1150 C1189 0.930 . S
H1151 C1190 0.931 . S
H1152 C1192 0.930 . S
H1153 C1193 0.929 . S
H1154 C1195 0.931 . S
H1155 C1196 0.930 . S
H1156 C1198 0.930 . S
H1157 C1199 0.932 . S
H1158 C1201 0.930 . S
H1159 C1202 0.929 . S
H1160 C1204 0.931 . S
H1161 C1205 0.930 . S
H1162 C1207 0.929 . S
H1163 C1208 0.931 . S
H1164 C1210 0.930 . S
H1165 C1211 0.929 . S
O1166 H1140 0.856 . S
O1166 C1212 1.300 . S
O1167 C1212 1.209 1_565 S
O1168 C1213 1.199 1_545 S
O1169 H1141 0.854 . S
O1169 C1213 1.297 . S
C1170 C1171 1.404 . S
C1170 C1175 1.396 1_545 S
C1170 C1176 1.492 . S
C1171 C1170 1.404 . S
C1171 C1172 1.413 . S
C1171 C1182 1.492 . S
C1172 C1171 1.413 . S
C1172 C1173 1.376 1_545 S
C1172 C1188 1.499 . S
C1173 C1172 1.376 1_565 S
C1173 C1174 1.412 . S
C1173 C1194 1.525 . S
C1174 C1173 1.412 . S
C1174 C1175 1.354 . S
C1174 C1200 1.505 . S
C1175 C1170 1.396 1_565 S
C1175 C1174 1.354 . S
C1175 C1206 1.518 . S
C1176 C1170 1.492 . S
C1176 C1177 1.363 . S
C1176 C1181 1.390 1_545 S
C1177 H1142 0.930 . S
C1177 C1176 1.363 . S
C1177 C1178 1.372 . S
C1178 H1143 0.930 . S
C1178 C1177 1.372 . S
C1178 C1179 1.383 . S
C1179 C1178 1.383 . S
C1179 C1180 1.395 1_545 S
C1180 H1144 0.930 . S
C1180 C1179 1.395 1_565 S
C1180 C1181 1.362 . S
C1181 H1145 0.930 . S
C1181 C1176 1.390 1_565 S
C1181 C1180 1.362 . S
C1182 C1171 1.492 . S
C1182 C1183 1.377 . S
C1182 C1187 1.397 1_545 S
C1183 H1146 0.931 . S
C1183 C1182 1.377 . S
C1183 C1184 1.376 . S
C1184 H1147 0.930 . S
C1184 C1183 1.376 . S
C1184 C1185 1.376 . S
C1185 C1184 1.376 . S
C1185 C1186 1.378 1_545 S
C1185 C1212 1.486 . S
C1186 H1148 0.930 . S
C1186 C1185 1.378 1_565 S
C1186 C1187 1.376 . S
C1187 H1149 0.929 . S
C1187 C1182 1.397 1_565 S
C1187 C1186 1.376 . S
C1188 C1172 1.499 . S
C1188 C1189 1.391 . S
C1188 C1193 1.386 1_545 S
C1189 H1150 0.930 . S
C1189 C1188 1.391 . S
C1189 C1190 1.375 . S
C1190 H1151 0.931 . S
C1190 C1189 1.375 . S
C1190 C1191 1.343 1_545 S
C1191 C1190 1.343 1_565 S
C1191 C1192 1.380 . S
C1192 H1152 0.930 . S
C1192 C1191 1.380 . S
C1192 C1193 1.399 . S
C1193 H1153 0.929 . S
C1193 C1188 1.386 1_565 S
C1193 C1192 1.399 . S
C1194 C1173 1.525 . S
C1194 C1195 1.394 1_565 S
C1194 C1199 1.360 . S
C1195 H1154 0.931 . S
C1195 C1194 1.394 1_545 S
C1195 C1196 1.372 . S
C1196 H1155 0.930 . S
C1196 C1195 1.372 . S
C1196 C1197 1.397 1_545 S
C1197 C1196 1.397 1_565 S
C1197 C1198 1.390 . S
C1197 C1213 1.476 . S
C1198 H1156 0.930 . S
C1198 C1197 1.390 . S
C1198 C1199 1.366 . S
C1199 H1157 0.932 . S
C1199 C1194 1.360 . S
C1199 C1198 1.366 . S
C1200 C1174 1.505 . S
C1200 C1201 1.380 1_565 S
C1200 C1205 1.386 . S
C1201 H1158 0.930 . S
C1201 C1200 1.380 1_545 S
C1201 C1202 1.381 . S
C1202 H1159 0.929 . S
C1202 C1201 1.381 . S
C1202 C1203 1.356 1_545 S
C1203 C1202 1.356 1_565 S
C1203 C1204 1.392 . S
C1204 H1160 0.931 . S
C1204 C1203 1.392 . S
C1204 C1205 1.387 . S
C1205 H1161 0.930 . S
C1205 C1200 1.386 . S
C1205 C1204 1.387 . S
C1206 C1175 1.518 . S
C1206 C1207 1.377 1_565 S
C1206 C1211 1.361 . S
C1207 H1162 0.929 . S
C1207 C1206 1.377 1_545 S
C1207 C1208 1.386 . S
C1208 H1163 0.931 . S
C1208 C1207 1.386 . S
C1208 C1209 1.363 1_545 S
C1209 C1208 1.363 1_565 S
C1209 C1210 1.385 . S
C1210 H1164 0.930 . S
C1210 C1209 1.385 . S
C1210 C1211 1.396 . S
C1211 H1165 0.929 . S
C1211 C1206 1.361 . S
C1211 C1210 1.396 . S
C1212 O1166 1.300 . S
C1212 O1167 1.209 1_545 S
C1212 C1185 1.486 . S
C1213 O1168 1.199 1_565 S
C1213 O1169 1.297 . S
C1213 C1197 1.476 . S
H1214 O1240 0.856 . S
H1215 O1243 0.854 . S
H1216 C1251 0.930 . S
H1217 C1252 0.930 . S
H1218 C1254 0.930 . S
H1219 C1255 0.930 . S
H1220 C1257 0.931 . S
H1221 C1258 0.930 . S
H1222 C1260 0.930 . S
H1223 C1261 0.929 . S
H1224 C1263 0.930 . S
H1225 C1264 0.931 . S
H1226 C1266 0.930 . S
H1227 C1267 0.929 . S
H1228 C1269 0.931 . S
H1229 C1270 0.930 . S
H1230 C1272 0.930 . S
H1231 C1273 0.932 . S
H1232 C1275 0.930 . S
H1233 C1276 0.929 . S
H1234 C1278 0.931 . S
H1235 C1279 0.930 . S
H1236 C1281 0.929 . S
H1237 C1282 0.931 . S
H1238 C1284 0.930 . S
H1239 C1285 0.929 . S
O1240 H1214 0.856 . S
O1240 C1286 1.300 . S
O1241 C1286 1.209 1_455 S
O1242 C1287 1.199 1_655 S
O1243 H1215 0.854 . S
O1243 C1287 1.297 . S
C1244 C1245 1.404 . S
C1244 C1249 1.398 . S
C1244 C1250 1.492 . S
C1245 C1244 1.404 . S
C1245 C1246 1.396 . S
C1245 C1256 1.492 . S
C1246 C1245 1.396 . S
C1246 C1247 1.395 . S
C1246 C1262 1.509 . S
C1247 C1246 1.395 . S
C1247 C1248 1.392 1_655 S
C1247 C1268 1.524 1_655 S
C1248 C1247 1.392 1_455 S
C1248 C1249 1.402 1_455 S
C1248 C1274 1.486 . S
C1249 C1244 1.398 . S
C1249 C1248 1.402 1_655 S
C1249 C1280 1.522 1_655 S
C1250 C1244 1.492 . S
C1250 C1251 1.363 . S
C1250 C1255 1.390 1_655 S
C1251 H1216 0.930 . S
C1251 C1250 1.363 . S
C1251 C1252 1.372 . S
C1252 H1217 0.930 . S
C1252 C1251 1.372 . S
C1252 C1253 1.383 . S
C1253 C1252 1.383 . S
C1253 C1254 1.395 1_655 S
C1254 H1218 0.930 . S
C1254 C1253 1.395 1_455 S
C1254 C1255 1.362 . S
C1255 H1219 0.930 . S
C1255 C1250 1.390 1_455 S
C1255 C1254 1.362 . S
C1256 C1245 1.492 . S
C1256 C1257 1.377 . S
C1256 C1261 1.397 1_655 S
C1257 H1220 0.931 . S
C1257 C1256 1.377 . S
C1257 C1258 1.376 . S
C1258 H1221 0.930 . S
C1258 C1257 1.376 . S
C1258 C1259 1.376 . S
C1259 C1258 1.376 . S
C1259 C1260 1.378 1_655 S
C1259 C1286 1.486 . S
C1260 H1222 0.930 . S
C1260 C1259 1.378 1_455 S
C1260 C1261 1.376 . S
C1261 H1223 0.929 . S
C1261 C1256 1.397 1_455 S
C1261 C1260 1.376 . S
C1262 C1246 1.509 . S
C1262 C1263 1.391 . S
C1262 C1267 1.386 1_655 S
C1263 H1224 0.930 . S
C1263 C1262 1.391 . S
C1263 C1264 1.375 . S
C1264 H1225 0.931 . S
C1264 C1263 1.375 . S
C1264 C1265 1.375 . S
C1265 C1264 1.375 . S
C1265 C1266 1.361 1_655 S
C1266 H1226 0.930 . S
C1266 C1265 1.361 1_455 S
C1266 C1267 1.399 . S
C1267 H1227 0.929 . S
C1267 C1262 1.386 1_455 S
C1267 C1266 1.399 . S
C1268 C1247 1.524 1_455 S
C1268 C1269 1.347 1_455 S
C1268 C1273 1.380 . S
C1269 H1228 0.931 . S
C1269 C1268 1.347 1_655 S
C1269 C1270 1.372 . S
C1270 H1229 0.930 . S
C1270 C1269 1.372 . S
C1270 C1271 1.397 1_655 S
C1271 C1270 1.397 1_455 S
C1271 C1272 1.390 . S
C1271 C1287 1.476 . S
C1272 H1230 0.930 . S
C1272 C1271 1.390 . S
C1272 C1273 1.366 . S
C1273 H1231 0.932 . S
C1273 C1268 1.380 . S
C1273 C1272 1.366 . S
C1274 C1248 1.486 . S
C1274 C1275 1.380 1_455 S
C1274 C1279 1.386 . S
C1275 H1232 0.930 . S
C1275 C1274 1.380 1_655 S
C1275 C1276 1.381 . S
C1276 H1233 0.929 . S
C1276 C1275 1.381 . S
C1276 C1277 1.371 1_655 S
C1277 C1276 1.371 1_455 S
C1277 C1278 1.380 . S
C1278 H1234 0.931 . S
C1278 C1277 1.380 . S
C1278 C1279 1.387 . S
C1279 H1235 0.930 . S
C1279 C1274 1.386 . S
C1279 C1278 1.387 . S
C1280 C1249 1.522 1_455 S
C1280 C1281 1.377 1_455 S
C1280 C1285 1.361 . S
C1281 H1236 0.929 . S
C1281 C1280 1.377 1_655 S
C1281 C1282 1.386 . S
C1282 H1237 0.931 . S
C1282 C1281 1.386 . S
C1282 C1283 1.363 1_655 S
C1283 C1282 1.363 1_455 S
C1283 C1284 1.385 . S
C1284 H1238 0.930 . S
C1284 C1283 1.385 . S
C1284 C1285 1.396 . S
C1285 H1239 0.929 . S
C1285 C1280 1.361 . S
C1285 C1284 1.396 . S
C1286 O1240 1.300 . S
C1286 O1241 1.209 1_655 S
C1286 C1259 1.486 . S
C1287 O1242 1.199 1_455 S
C1287 O1243 1.297 . S
C1287 C1271 1.476 . S
H1288 O1314 0.856 . S
H1289 O1317 0.854 . S
H1290 C1325 0.930 . S
H1291 C1326 0.930 . S
H1292 C1328 0.930 . S
H1293 C1329 0.930 . S
H1294 C1331 0.931 . S
H1295 C1332 0.930 . S
H1296 C1334 0.930 . S
H1297 C1335 0.929 . S
H1298 C1337 0.930 . S
H1299 C1338 0.931 . S
H1300 C1340 0.930 . S
H1301 C1341 0.929 . S
H1302 C1343 0.931 . S
H1303 C1344 0.930 . S
H1304 C1346 0.930 . S
H1305 C1347 0.932 . S
H1306 C1349 0.930 . S
H1307 C1350 0.929 . S
H1308 C1352 0.931 . S
H1309 C1353 0.930 . S
H1310 C1355 0.929 . S
H1311 C1356 0.931 . S
H1312 C1358 0.930 . S
H1313 C1359 0.929 . S
O1314 H1288 0.856 . S
O1314 C1360 1.300 . S
O1315 C1360 1.209 . S
O1316 C1361 1.199 . S
O1317 H1289 0.854 . S
O1317 C1361 1.297 . S
C1318 C1319 1.404 . S
C1318 C1323 1.397 . S
C1318 C1324 1.492 . S
C1319 C1318 1.404 . S
C1319 C1320 1.396 . S
C1319 C1330 1.492 . S
C1320 C1319 1.396 . S
C1320 C1321 1.397 . S
C1320 C1336 1.509 . S
C1321 C1320 1.397 . S
C1321 C1322 1.412 . S
C1321 C1342 1.485 . S
C1322 C1321 1.412 . S
C1322 C1323 1.388 . S
C1322 C1348 1.490 . S
C1323 C1318 1.397 . S
C1323 C1322 1.388 . S
C1323 C1354 1.519 . S
C1324 C1318 1.492 . S
C1324 C1325 1.363 . S
C1324 C1329 1.390 . S
C1325 H1290 0.930 . S
C1325 C1324 1.363 . S
C1325 C1326 1.372 . S
C1326 H1291 0.930 . S
C1326 C1325 1.372 . S
C1326 C1327 1.383 . S
C1327 C1326 1.383 . S
C1327 C1328 1.395 . S
C1328 H1292 0.930 . S
C1328 C1327 1.395 . S
C1328 C1329 1.362 . S
C1329 H1293 0.930 . S
C1329 C1324 1.390 . S
C1329 C1328 1.362 . S
C1330 C1319 1.492 . S
C1330 C1331 1.377 . S
C1330 C1335 1.397 . S
C1331 H1294 0.931 . S
C1331 C1330 1.377 . S
C1331 C1332 1.376 . S
C1332 H1295 0.930 . S
C1332 C1331 1.376 . S
C1332 C1333 1.376 . S
C1333 C1332 1.376 . S
C1333 C1334 1.378 . S
C1333 C1360 1.486 . S
C1334 H1296 0.930 . S
C1334 C1333 1.378 . S
C1334 C1335 1.376 . S
C1335 H1297 0.929 . S
C1335 C1330 1.397 . S
C1335 C1334 1.376 . S
C1336 C1320 1.509 . S
C1336 C1337 1.391 . S
C1336 C1341 1.386 . S
C1337 H1298 0.930 . S
C1337 C1336 1.391 . S
C1337 C1338 1.375 . S
C1338 H1299 0.931 . S
C1338 C1337 1.375 . S
C1338 C1339 1.375 . S
C1339 C1338 1.375 . S
C1339 C1340 1.361 . S
C1340 H1300 0.930 . S
C1340 C1339 1.361 . S
C1340 C1341 1.399 . S
C1341 H1301 0.929 . S
C1341 C1336 1.386 . S
C1341 C1340 1.399 . S
C1342 C1321 1.485 . S
C1342 C1343 1.394 . S
C1342 C1347 1.360 . S
C1343 H1302 0.931 . S
C1343 C1342 1.394 . S
C1343 C1344 1.372 . S
C1344 H1303 0.930 . S
C1344 C1343 1.372 . S
C1344 C1345 1.397 . S
C1345 C1344 1.397 . S
C1345 C1346 1.390 . S
C1345 C1361 1.476 . S
C1346 H1304 0.930 . S
C1346 C1345 1.390 . S
C1346 C1347 1.366 . S
C1347 H1305 0.932 . S
C1347 C1342 1.360 . S
C1347 C1346 1.366 . S
C1348 C1322 1.490 . S
C1348 C1349 1.380 . S
C1348 C1353 1.386 . S
C1349 H1306 0.930 . S
C1349 C1348 1.380 . S
C1349 C1350 1.381 . S
C1350 H1307 0.929 . S
C1350 C1349 1.381 . S
C1350 C1351 1.371 . S
C1351 C1350 1.371 . S
C1351 C1352 1.380 . S
C1352 H1308 0.931 . S
C1352 C1351 1.380 . S
C1352 C1353 1.387 . S
C1353 H1309 0.930 . S
C1353 C1348 1.386 . S
C1353 C1352 1.387 . S
C1354 C1323 1.519 . S
C1354 C1355 1.377 . S
C1354 C1359 1.361 . S
C1355 H1310 0.929 . S
C1355 C1354 1.377 . S
C1355 C1356 1.386 . S
C1356 H1311 0.931 . S
C1356 C1355 1.386 . S
C1356 C1357 1.363 . S
C1357 C1356 1.363 . S
C1357 C1358 1.385 . S
C1358 H1312 0.930 . S
C1358 C1357 1.385 . S
C1358 C1359 1.396 . S
C1359 H1313 0.929 . S
C1359 C1354 1.361 . S
C1359 C1358 1.396 . S
C1360 O1314 1.300 . S
C1360 O1315 1.209 . S
C1360 C1333 1.486 . S
C1361 O1316 1.199 . S
C1361 O1317 1.297 . S
C1361 C1345 1.476 . S
H1362 O1388 0.856 . S
H1363 O1391 0.854 . S
H1364 C1399 0.930 . S
H1365 C1400 0.930 . S
H1366 C1402 0.930 . S
H1367 C1403 0.930 . S
H1368 C1405 0.931 . S
H1369 C1406 0.930 . S
H1370 C1408 0.930 . S
H1371 C1409 0.929 . S
H1372 C1411 0.930 . S
H1373 C1412 0.931 . S
H1374 C1414 0.930 . S
H1375 C1415 0.929 . S
H1376 C1417 0.931 . S
H1377 C1418 0.930 . S
H1378 C1420 0.930 . S
H1379 C1421 0.932 . S
H1380 C1423 0.930 . S
H1381 C1424 0.929 . S
H1382 C1426 0.931 . S
H1383 C1427 0.930 . S
H1384 C1429 0.929 . S
H1385 C1430 0.931 . S
H1386 C1432 0.930 . S
H1387 C1433 0.929 . S
O1388 H1362 0.856 . S
O1388 C1434 1.300 . S
O1389 C1434 1.209 . S
O1390 C1435 1.199 . S
O1391 H1363 0.854 . S
O1391 C1435 1.297 . S
C1392 C1393 1.404 . S
C1392 C1397 1.397 . S
C1392 C1398 1.492 . S
C1393 C1392 1.404 . S
C1393 C1394 1.396 . S
C1393 C1404 1.492 . S
C1394 C1393 1.396 . S
C1394 C1395 1.397 . S
C1394 C1410 1.509 . S
C1395 C1394 1.397 . S
C1395 C1396 1.412 . S
C1395 C1416 1.485 . S
C1396 C1395 1.412 . S
C1396 C1397 1.388 . S
C1396 C1422 1.490 . S
C1397 C1392 1.397 . S
C1397 C1396 1.388 . S
C1397 C1428 1.519 . S
C1398 C1392 1.492 . S
C1398 C1399 1.363 . S
C1398 C1403 1.390 . S
C1399 H1364 0.930 . S
C1399 C1398 1.363 . S
C1399 C1400 1.372 . S
C1400 H1365 0.930 . S
C1400 C1399 1.372 . S
C1400 C1401 1.383 . S
C1401 C1400 1.383 . S
C1401 C1402 1.395 . S
C1402 H1366 0.930 . S
C1402 C1401 1.395 . S
C1402 C1403 1.362 . S
C1403 H1367 0.930 . S
C1403 C1398 1.390 . S
C1403 C1402 1.362 . S
C1404 C1393 1.492 . S
C1404 C1405 1.377 . S
C1404 C1409 1.397 . S
C1405 H1368 0.931 . S
C1405 C1404 1.377 . S
C1405 C1406 1.376 . S
C1406 H1369 0.930 . S
C1406 C1405 1.376 . S
C1406 C1407 1.376 . S
C1407 C1406 1.376 . S
C1407 C1408 1.378 . S
C1407 C1434 1.486 . S
C1408 H1370 0.930 . S
C1408 C1407 1.378 . S
C1408 C1409 1.376 . S
C1409 H1371 0.929 . S
C1409 C1404 1.397 . S
C1409 C1408 1.376 . S
C1410 C1394 1.509 . S
C1410 C1411 1.391 . S
C1410 C1415 1.386 . S
C1411 H1372 0.930 . S
C1411 C1410 1.391 . S
C1411 C1412 1.375 . S
C1412 H1373 0.931 . S
C1412 C1411 1.375 . S
C1412 C1413 1.375 . S
C1413 C1412 1.375 . S
C1413 C1414 1.361 . S
C1414 H1374 0.930 . S
C1414 C1413 1.361 . S
C1414 C1415 1.399 . S
C1415 H1375 0.929 . S
C1415 C1410 1.386 . S
C1415 C1414 1.399 . S
C1416 C1395 1.485 . S
C1416 C1417 1.394 . S
C1416 C1421 1.360 . S
C1417 H1376 0.931 . S
C1417 C1416 1.394 . S
C1417 C1418 1.372 . S
C1418 H1377 0.930 . S
C1418 C1417 1.372 . S
C1418 C1419 1.397 . S
C1419 C1418 1.397 . S
C1419 C1420 1.390 . S
C1419 C1435 1.476 . S
C1420 H1378 0.930 . S
C1420 C1419 1.390 . S
C1420 C1421 1.366 . S
C1421 H1379 0.932 . S
C1421 C1416 1.360 . S
C1421 C1420 1.366 . S
C1422 C1396 1.490 . S
C1422 C1423 1.380 . S
C1422 C1427 1.386 . S
C1423 H1380 0.930 . S
C1423 C1422 1.380 . S
C1423 C1424 1.381 . S
C1424 H1381 0.929 . S
C1424 C1423 1.381 . S
C1424 C1425 1.371 . S
C1425 C1424 1.371 . S
C1425 C1426 1.380 . S
C1426 H1382 0.931 . S
C1426 C1425 1.380 . S
C1426 C1427 1.387 . S
C1427 H1383 0.930 . S
C1427 C1422 1.386 . S
C1427 C1426 1.387 . S
C1428 C1397 1.519 . S
C1428 C1429 1.377 . S
C1428 C1433 1.361 . S
C1429 H1384 0.929 . S
C1429 C1428 1.377 . S
C1429 C1430 1.386 . S
C1430 H1385 0.931 . S
C1430 C1429 1.386 . S
C1430 C1431 1.363 . S
C1431 C1430 1.363 . S
C1431 C1432 1.385 . S
C1432 H1386 0.930 . S
C1432 C1431 1.385 . S
C1432 C1433 1.396 . S
C1433 H1387 0.929 . S
C1433 C1428 1.361 . S
C1433 C1432 1.396 . S
C1434 O1388 1.300 . S
C1434 O1389 1.209 . S
C1434 C1407 1.486 . S
C1435 O1390 1.199 . S
C1435 O1391 1.297 . S
C1435 C1419 1.476 . S
H1436 O1462 0.856 . S
H1437 O1465 0.854 . S
H1438 C1473 0.930 . S
H1439 C1474 0.930 . S
H1440 C1476 0.930 . S
H1441 C1477 0.930 . S
H1442 C1479 0.931 . S
H1443 C1480 0.930 . S
H1444 C1482 0.930 . S
H1445 C1483 0.929 . S
H1446 C1485 0.930 . S
H1447 C1486 0.931 . S
H1448 C1488 0.930 . S
H1449 C1489 0.929 . S
H1450 C1491 0.931 . S
H1451 C1492 0.930 . S
H1452 C1494 0.930 . S
H1453 C1495 0.932 . S
H1454 C1497 0.930 . S
H1455 C1498 0.929 . S
H1456 C1500 0.931 . S
H1457 C1501 0.930 . S
H1458 C1503 0.929 . S
H1459 C1504 0.931 . S
H1460 C1506 0.930 . S
H1461 C1507 0.929 . S
O1462 H1436 0.856 . S
O1462 C1508 1.300 . S
O1463 C1508 1.209 . S
O1464 C1509 1.199 . S
O1465 H1437 0.854 . S
O1465 C1509 1.297 . S
C1466 C1467 1.404 . S
C1466 C1471 1.397 . S
C1466 C1472 1.492 . S
C1467 C1466 1.404 . S
C1467 C1468 1.396 . S
C1467 C1478 1.492 . S
C1468 C1467 1.396 . S
C1468 C1469 1.397 . S
C1468 C1484 1.509 . S
C1469 C1468 1.397 . S
C1469 C1470 1.412 . S
C1469 C1490 1.485 . S
C1470 C1469 1.412 . S
C1470 C1471 1.388 . S
C1470 C1496 1.490 . S
C1471 C1466 1.397 . S
C1471 C1470 1.388 . S
C1471 C1502 1.519 . S
C1472 C1466 1.492 . S
C1472 C1473 1.363 . S
C1472 C1477 1.390 . S
C1473 H1438 0.930 . S
C1473 C1472 1.363 . S
C1473 C1474 1.372 . S
C1474 H1439 0.930 . S
C1474 C1473 1.372 . S
C1474 C1475 1.383 . S
C1475 C1474 1.383 . S
C1475 C1476 1.395 . S
C1476 H1440 0.930 . S
C1476 C1475 1.395 . S
C1476 C1477 1.362 . S
C1477 H1441 0.930 . S
C1477 C1472 1.390 . S
C1477 C1476 1.362 . S
C1478 C1467 1.492 . S
C1478 C1479 1.377 . S
C1478 C1483 1.397 . S
C1479 H1442 0.931 . S
C1479 C1478 1.377 . S
C1479 C1480 1.376 . S
C1480 H1443 0.930 . S
C1480 C1479 1.376 . S
C1480 C1481 1.376 . S
C1481 C1480 1.376 . S
C1481 C1482 1.378 . S
C1481 C1508 1.486 . S
C1482 H1444 0.930 . S
C1482 C1481 1.378 . S
C1482 C1483 1.376 . S
C1483 H1445 0.929 . S
C1483 C1478 1.397 . S
C1483 C1482 1.376 . S
C1484 C1468 1.509 . S
C1484 C1485 1.391 . S
C1484 C1489 1.386 . S
C1485 H1446 0.930 . S
C1485 C1484 1.391 . S
C1485 C1486 1.375 . S
C1486 H1447 0.931 . S
C1486 C1485 1.375 . S
C1486 C1487 1.375 . S
C1487 C1486 1.375 . S
C1487 C1488 1.361 . S
C1488 H1448 0.930 . S
C1488 C1487 1.361 . S
C1488 C1489 1.399 . S
C1489 H1449 0.929 . S
C1489 C1484 1.386 . S
C1489 C1488 1.399 . S
C1490 C1469 1.485 . S
C1490 C1491 1.394 . S
C1490 C1495 1.360 . S
C1491 H1450 0.931 . S
C1491 C1490 1.394 . S
C1491 C1492 1.372 . S
C1492 H1451 0.930 . S
C1492 C1491 1.372 . S
C1492 C1493 1.397 . S
C1493 C1492 1.397 . S
C1493 C1494 1.390 . S
C1493 C1509 1.476 . S
C1494 H1452 0.930 . S
C1494 C1493 1.390 . S
C1494 C1495 1.366 . S
C1495 H1453 0.932 . S
C1495 C1490 1.360 . S
C1495 C1494 1.366 . S
C1496 C1470 1.490 . S
C1496 C1497 1.380 . S
C1496 C1501 1.386 . S
C1497 H1454 0.930 . S
C1497 C1496 1.380 . S
C1497 C1498 1.381 . S
C1498 H1455 0.929 . S
C1498 C1497 1.381 . S
C1498 C1499 1.371 . S
C1499 C1498 1.371 . S
C1499 C1500 1.380 . S
C1500 H1456 0.931 . S
C1500 C1499 1.380 . S
C1500 C1501 1.387 . S
C1501 H1457 0.930 . S
C1501 C1496 1.386 . S
C1501 C1500 1.387 . S
C1502 C1471 1.519 . S
C1502 C1503 1.377 . S
C1502 C1507 1.361 . S
C1503 H1458 0.929 . S
C1503 C1502 1.377 . S
C1503 C1504 1.386 . S
C1504 H1459 0.931 . S
C1504 C1503 1.386 . S
C1504 C1505 1.363 . S
C1505 C1504 1.363 . S
C1505 C1506 1.385 . S
C1506 H1460 0.930 . S
C1506 C1505 1.385 . S
C1506 C1507 1.396 . S
C1507 H1461 0.929 . S
C1507 C1502 1.361 . S
C1507 C1506 1.396 . S
C1508 O1462 1.300 . S
C1508 O1463 1.209 . S
C1508 C1481 1.486 . S
C1509 O1464 1.199 . S
C1509 O1465 1.297 . S
C1509 C1493 1.476 . S
H1510 O1536 0.856 . S
H1511 O1539 0.854 . S
H1512 C1547 0.930 . S
H1513 C1548 0.930 . S
H1514 C1550 0.930 . S
H1515 C1551 0.930 . S
H1516 C1553 0.931 . S
H1517 C1554 0.930 . S
H1518 C1556 0.930 . S
H1519 C1557 0.929 . S
H1520 C1559 0.930 . S
H1521 C1560 0.931 . S
H1522 C1562 0.930 . S
H1523 C1563 0.929 . S
H1524 C1565 0.931 . S
H1525 C1566 0.930 . S
H1526 C1568 0.930 . S
H1527 C1569 0.932 . S
H1528 C1571 0.930 . S
H1529 C1572 0.929 . S
H1530 C1574 0.931 . S
H1531 C1575 0.930 . S
H1532 C1577 0.929 . S
H1533 C1578 0.931 . S
H1534 C1580 0.930 . S
H1535 C1581 0.929 . S
O1536 H1510 0.856 . S
O1536 C1582 1.300 . S
O1537 C1582 1.209 . S
O1538 C1583 1.199 . S
O1539 H1511 0.854 . S
O1539 C1583 1.297 . S
C1540 C1541 1.404 . S
C1540 C1545 1.397 . S
C1540 C1546 1.492 . S
C1541 C1540 1.404 . S
C1541 C1542 1.396 . S
C1541 C1552 1.492 . S
C1542 C1541 1.396 . S
C1542 C1543 1.397 . S
C1542 C1558 1.509 . S
C1543 C1542 1.397 . S
C1543 C1544 1.412 . S
C1543 C1564 1.485 . S
C1544 C1543 1.412 . S
C1544 C1545 1.388 . S
C1544 C1570 1.490 . S
C1545 C1540 1.397 . S
C1545 C1544 1.388 . S
C1545 C1576 1.519 . S
C1546 C1540 1.492 . S
C1546 C1547 1.363 . S
C1546 C1551 1.390 . S
C1547 H1512 0.930 . S
C1547 C1546 1.363 . S
C1547 C1548 1.372 . S
C1548 H1513 0.930 . S
C1548 C1547 1.372 . S
C1548 C1549 1.383 . S
C1549 C1548 1.383 . S
C1549 C1550 1.395 . S
C1550 H1514 0.930 . S
C1550 C1549 1.395 . S
C1550 C1551 1.362 . S
C1551 H1515 0.930 . S
C1551 C1546 1.390 . S
C1551 C1550 1.362 . S
C1552 C1541 1.492 . S
C1552 C1553 1.377 . S
C1552 C1557 1.397 . S
C1553 H1516 0.931 . S
C1553 C1552 1.377 . S
C1553 C1554 1.376 . S
C1554 H1517 0.930 . S
C1554 C1553 1.376 . S
C1554 C1555 1.376 . S
C1555 C1554 1.376 . S
C1555 C1556 1.378 . S
C1555 C1582 1.486 . S
C1556 H1518 0.930 . S
C1556 C1555 1.378 . S
C1556 C1557 1.376 . S
C1557 H1519 0.929 . S
C1557 C1552 1.397 . S
C1557 C1556 1.376 . S
C1558 C1542 1.509 . S
C1558 C1559 1.391 . S
C1558 C1563 1.386 . S
C1559 H1520 0.930 . S
C1559 C1558 1.391 . S
C1559 C1560 1.375 . S
C1560 H1521 0.931 . S
C1560 C1559 1.375 . S
C1560 C1561 1.375 . S
C1561 C1560 1.375 . S
C1561 C1562 1.361 . S
C1562 H1522 0.930 . S
C1562 C1561 1.361 . S
C1562 C1563 1.399 . S
C1563 H1523 0.929 . S
C1563 C1558 1.386 . S
C1563 C1562 1.399 . S
C1564 C1543 1.485 . S
C1564 C1565 1.394 . S
C1564 C1569 1.360 . S
C1565 H1524 0.931 . S
C1565 C1564 1.394 . S
C1565 C1566 1.372 . S
C1566 H1525 0.930 . S
C1566 C1565 1.372 . S
C1566 C1567 1.397 . S
C1567 C1566 1.397 . S
C1567 C1568 1.390 . S
C1567 C1583 1.476 . S
C1568 H1526 0.930 . S
C1568 C1567 1.390 . S
C1568 C1569 1.366 . S
C1569 H1527 0.932 . S
C1569 C1564 1.360 . S
C1569 C1568 1.366 . S
C1570 C1544 1.490 . S
C1570 C1571 1.380 . S
C1570 C1575 1.386 . S
C1571 H1528 0.930 . S
C1571 C1570 1.380 . S
C1571 C1572 1.381 . S
C1572 H1529 0.929 . S
C1572 C1571 1.381 . S
C1572 C1573 1.371 . S
C1573 C1572 1.371 . S
C1573 C1574 1.380 . S
C1574 H1530 0.931 . S
C1574 C1573 1.380 . S
C1574 C1575 1.387 . S
C1575 H1531 0.930 . S
C1575 C1570 1.386 . S
C1575 C1574 1.387 . S
C1576 C1545 1.519 . S
C1576 C1577 1.377 . S
C1576 C1581 1.361 . S
C1577 H1532 0.929 . S
C1577 C1576 1.377 . S
C1577 C1578 1.386 . S
C1578 H1533 0.931 . S
C1578 C1577 1.386 . S
C1578 C1579 1.363 . S
C1579 C1578 1.363 . S
C1579 C1580 1.385 . S
C1580 H1534 0.930 . S
C1580 C1579 1.385 . S
C1580 C1581 1.396 . S
C1581 H1535 0.929 . S
C1581 C1576 1.361 . S
C1581 C1580 1.396 . S
C1582 O1536 1.300 . S
C1582 O1537 1.209 . S
C1582 C1555 1.486 . S
C1583 O1538 1.199 . S
C1583 O1539 1.297 . S
C1583 C1567 1.476 . S
C1584 C1585 1.391 . S
C1584 C1586 1.394 . S
C1584 H1600 0.931 . S
C1585 C1584 1.391 . S
C1585 C1589 1.376 1_655 S
C1586 C1584 1.394 . S
C1586 C1587 1.369 . S
C1586 C1590 1.531 . S
C1587 C1586 1.369 . S
C1587 C1588 1.410 1_655 S
C1587 C1595 1.503 . S
C1588 C1587 1.410 1_455 S
C1588 C1589 1.392 . S
C1588 C1591 1.511 . S
C1589 C1585 1.376 1_455 S
C1589 C1588 1.392 . S
C1589 H1601 0.929 . S
C1590 C1586 1.531 . S
C1590 H1602 0.960 . S
C1590 H1603 0.962 . S
C1590 H1604 0.960 . S
C1591 C1588 1.511 . S
C1591 H1605 0.961 . S
C1591 H1606 0.961 . S
C1591 H1607 0.961 . S
C1592 C1593 1.370 . S
C1592 C1594 1.363 . S
C1592 H1608 0.931 . S
C1593 C1592 1.370 . S
C1593 C1597 1.408 . S
C1594 C1592 1.363 . S
C1594 C1595 1.370 . S
C1594 C1598 1.524 . S
C1595 C1587 1.503 . S
C1595 C1594 1.370 . S
C1595 C1596 1.403 . S
C1596 C1595 1.403 . S
C1596 C1597 1.404 . S
C1596 C1599 1.539 . S
C1597 C1593 1.408 . S
C1597 C1596 1.404 . S
C1597 H1609 0.930 . S
C1598 C1594 1.524 . S
C1598 H1610 0.956 . S
C1598 H1611 0.961 1_655 S
C1598 H1612 0.961 . S
C1599 C1596 1.539 . S
C1599 H1613 0.958 . S
C1599 H1614 0.961 . S
C1599 H1615 0.960 . S
H1600 C1584 0.931 . S
H1601 C1589 0.929 . S
H1602 C1590 0.960 . S
H1603 C1590 0.962 . S
H1604 C1590 0.960 . S
H1605 C1591 0.961 . S
H1606 C1591 0.961 . S
H1607 C1591 0.961 . S
H1608 C1592 0.931 . S
H1609 C1597 0.930 . S
H1610 C1598 0.956 . S
H1611 C1598 0.961 1_455 S
H1612 C1598 0.961 . S
H1613 C1599 0.958 . S
H1614 C1599 0.961 . S
H1615 C1599 0.960 . S
C1616 C1617 1.391 . S
C1616 C1618 1.394 . S
C1616 H1632 0.931 . S
C1617 C1616 1.391 . S
C1617 C1621 1.376 . S
C1618 C1616 1.394 . S
C1618 C1619 1.369 . S
C1618 C1622 1.531 . S
C1619 C1618 1.369 . S
C1619 C1620 1.410 . S
C1619 C1627 1.503 . S
C1620 C1619 1.410 . S
C1620 C1621 1.392 . S
C1620 C1623 1.511 . S
C1621 C1617 1.376 . S
C1621 C1620 1.392 . S
C1621 H1633 0.929 . S
C1622 C1618 1.531 . S
C1622 H1634 0.960 . S
C1622 H1635 0.962 . S
C1622 H1636 0.960 . S
C1623 C1620 1.511 . S
C1623 H1637 0.961 . S
C1623 H1638 0.961 . S
C1623 H1639 0.961 . S
C1624 C1625 1.370 . S
C1624 C1626 1.363 . S
C1624 H1640 0.931 . S
C1625 C1624 1.370 . S
C1625 C1629 1.408 . S
C1626 C1624 1.363 . S
C1626 C1627 1.370 . S
C1626 C1630 1.524 . S
C1627 C1619 1.503 . S
C1627 C1626 1.370 . S
C1627 C1628 1.403 . S
C1628 C1627 1.403 . S
C1628 C1629 1.404 . S
C1628 C1631 1.539 . S
C1629 C1625 1.408 . S
C1629 C1628 1.404 . S
C1629 H1641 0.930 . S
C1630 C1626 1.524 . S
C1630 H1642 0.956 . S
C1630 H1643 0.961 . S
C1630 H1644 0.961 . S
C1631 C1628 1.539 . S
C1631 H1645 0.958 . S
C1631 H1646 0.961 . S
C1631 H1647 0.960 . S
H1632 C1616 0.931 . S
H1633 C1621 0.929 . S
H1634 C1622 0.960 . S
H1635 C1622 0.962 . S
H1636 C1622 0.960 . S
H1637 C1623 0.961 . S
H1638 C1623 0.961 . S
H1639 C1623 0.961 . S
H1640 C1624 0.931 . S
H1641 C1629 0.930 . S
H1642 C1630 0.956 . S
H1643 C1630 0.961 . S
H1644 C1630 0.961 . S
H1645 C1631 0.958 . S
H1646 C1631 0.961 . S
H1647 C1631 0.960 . S
C1648 C1649 1.391 . S
C1648 C1650 1.394 . S
C1648 H1664 0.931 . S
C1649 C1648 1.391 . S
C1649 C1653 1.376 . S
C1650 C1648 1.394 . S
C1650 C1651 1.369 . S
C1650 C1654 1.531 . S
C1651 C1650 1.369 . S
C1651 C1652 1.410 . S
C1651 C1659 1.503 . S
C1652 C1651 1.410 . S
C1652 C1653 1.392 . S
C1652 C1655 1.511 . S
C1653 C1649 1.376 . S
C1653 C1652 1.392 . S
C1653 H1665 0.929 . S
C1654 C1650 1.531 . S
C1654 H1666 0.960 . S
C1654 H1667 0.962 . S
C1654 H1668 0.960 . S
C1655 C1652 1.511 . S
C1655 H1669 0.961 . S
C1655 H1670 0.961 . S
C1655 H1671 0.961 1_545 S
C1656 C1657 1.370 . S
C1656 C1658 1.363 . S
C1656 H1672 0.931 . S
C1657 C1656 1.370 . S
C1657 C1661 1.408 1_545 S
C1658 C1656 1.363 . S
C1658 C1659 1.370 . S
C1658 C1662 1.524 . S
C1659 C1651 1.503 . S
C1659 C1658 1.370 . S
C1659 C1660 1.403 1_545 S
C1660 C1659 1.403 1_565 S
C1660 C1661 1.404 . S
C1660 C1663 1.539 . S
C1661 C1657 1.408 1_565 S
C1661 C1660 1.404 . S
C1661 H1673 0.930 . S
C1662 C1658 1.524 . S
C1662 H1674 0.956 . S
C1662 H1675 0.961 . S
C1662 H1676 0.961 . S
C1663 C1660 1.539 . S
C1663 H1677 0.958 . S
C1663 H1678 0.961 . S
C1663 H1679 0.960 . S
H1664 C1648 0.931 . S
H1665 C1653 0.929 . S
H1666 C1654 0.960 . S
H1667 C1654 0.962 . S
H1668 C1654 0.960 . S
H1669 C1655 0.961 . S
H1670 C1655 0.961 . S
H1671 C1655 0.961 1_565 S
H1672 C1656 0.931 . S
H1673 C1661 0.930 . S
H1674 C1662 0.956 . S
H1675 C1662 0.961 . S
H1676 C1662 0.961 . S
H1677 C1663 0.958 . S
H1678 C1663 0.961 . S
H1679 C1663 0.960 . S
C1680 C1681 1.391 . S
C1680 C1682 1.394 . S
C1680 H1696 0.931 . S
C1681 C1680 1.391 . S
C1681 C1685 1.373 1_565 S
C1682 C1680 1.394 . S
C1682 C1683 1.369 . S
C1682 C1686 1.531 . S
C1683 C1682 1.369 . S
C1683 C1684 1.410 . S
C1683 C1691 1.503 . S
C1684 C1683 1.410 . S
C1684 C1685 1.391 1_565 S
C1684 C1687 1.511 1_565 S
C1685 C1681 1.373 1_545 S
C1685 C1684 1.391 1_545 S
C1685 H1697 0.934 . S
C1686 C1682 1.531 . S
C1686 H1698 0.960 . S
C1686 H1699 0.962 . S
C1686 H1700 0.960 . S
C1687 C1684 1.511 1_545 S
C1687 H1701 0.961 . S
C1687 H1702 0.961 . S
C1687 H1703 0.961 . S
C1688 C1689 1.359 1_545 S
C1688 C1690 1.368 . S
C1688 H1704 0.935 . S
C1689 C1688 1.359 1_565 S
C1689 C1693 1.408 . S
C1690 C1688 1.368 . S
C1690 C1691 1.369 1_545 S
C1690 C1694 1.528 . S
C1691 C1683 1.503 . S
C1691 C1690 1.369 1_565 S
C1691 C1692 1.403 . S
C1692 C1691 1.403 . S
C1692 C1693 1.404 . S
C1692 C1695 1.539 . S
C1693 C1689 1.408 . S
C1693 C1692 1.404 . S
C1693 H1705 0.930 . S
C1694 C1690 1.528 . S
C1694 H1706 0.956 . S
C1694 H1707 0.961 . S
C1694 H1708 0.961 . S
C1695 C1692 1.539 . S
C1695 H1709 0.958 . S
C1695 H1710 0.961 . S
C1695 H1711 0.960 . S
H1696 C1680 0.931 . S
H1697 C1685 0.934 . S
H1698 C1686 0.960 . S
H1699 C1686 0.962 . S
H1700 C1686 0.960 . S
H1701 C1687 0.961 . S
H1702 C1687 0.961 . S
H1703 C1687 0.961 . S
H1704 C1688 0.935 . S
H1705 C1693 0.930 . S
H1706 C1694 0.956 . S
H1707 C1694 0.961 . S
H1708 C1694 0.961 . S
H1709 C1695 0.958 . S
H1710 C1695 0.961 . S
H1711 C1695 0.960 . S
C1712 C1713 1.391 . S
C1712 C1714 1.394 . S
C1712 H1728 0.931 . S
C1713 C1712 1.391 . S
C1713 C1717 1.376 . S
C1714 C1712 1.394 . S
C1714 C1715 1.369 . S
C1714 C1718 1.531 . S
C1715 C1714 1.369 . S
C1715 C1716 1.410 . S
C1715 C1723 1.503 . S
C1716 C1715 1.410 . S
C1716 C1717 1.392 . S
C1716 C1719 1.511 1_455 S
C1717 C1713 1.376 . S
C1717 C1716 1.392 . S
C1717 H1729 0.929 1_455 S
C1718 C1714 1.531 . S
C1718 H1730 0.960 . S
C1718 H1731 0.962 . S
C1718 H1732 0.960 . S
C1719 C1716 1.511 1_655 S
C1719 H1733 0.961 . S
C1719 H1734 0.961 . S
C1719 H1735 0.961 . S
C1720 C1721 1.370 . S
C1720 C1722 1.363 . S
C1720 H1736 0.931 . S
C1721 C1720 1.370 . S
C1721 C1725 1.408 1_455 S
C1722 C1720 1.363 . S
C1722 C1723 1.370 . S
C1722 C1726 1.524 . S
C1723 C1715 1.503 . S
C1723 C1722 1.370 . S
C1723 C1724 1.403 1_455 S
C1724 C1723 1.403 1_655 S
C1724 C1725 1.404 . S
C1724 C1727 1.539 . S
C1725 C1721 1.408 1_655 S
C1725 C1724 1.404 . S
C1725 H1737 0.930 . S
C1726 C1722 1.524 . S
C1726 H1738 0.956 . S
C1726 H1739 0.961 . S
C1726 H1740 0.961 . S
C1727 C1724 1.539 . S
C1727 H1741 0.958 . S
C1727 H1742 0.961 . S
C1727 H1743 0.960 . S
H1728 C1712 0.931 . S
H1729 C1717 0.929 1_655 S
H1730 C1718 0.960 . S
H1731 C1718 0.962 . S
H1732 C1718 0.960 . S
H1733 C1719 0.961 . S
H1734 C1719 0.961 . S
H1735 C1719 0.961 . S
H1736 C1720 0.931 . S
H1737 C1725 0.930 . S
H1738 C1726 0.956 . S
H1739 C1726 0.961 . S
H1740 C1726 0.961 . S
H1741 C1727 0.958 . S
H1742 C1727 0.961 . S
H1743 C1727 0.960 . S
C1744 C1745 1.391 . S
C1744 C1746 1.394 . S
C1744 H1760 0.931 . S
C1745 C1744 1.391 . S
C1745 C1749 1.376 . S
C1746 C1744 1.394 . S
C1746 C1747 1.369 1_554 S
C1746 C1750 1.531 . S
C1747 C1746 1.369 1_556 S
C1747 C1748 1.410 . S
C1747 C1755 1.503 . S
C1748 C1747 1.410 . S
C1748 C1749 1.392 1_556 S
C1748 C1751 1.511 . S
C1749 C1745 1.376 . S
C1749 C1748 1.392 1_554 S
C1749 H1761 0.929 . S
C1750 C1746 1.531 . S
C1750 H1762 0.960 1_554 S
C1750 H1763 0.962 1_554 S
C1750 H1764 0.960 . S
C1751 C1748 1.511 . S
C1751 H1765 0.961 . S
C1751 H1766 0.961 . S
C1751 H1767 0.961 . S
C1752 C1753 1.370 . S
C1752 C1754 1.363 . S
C1752 H1768 0.931 . S
C1753 C1752 1.370 . S
C1753 C1757 1.408 . S
C1754 C1752 1.363 . S
C1754 C1755 1.370 . S
C1754 C1758 1.524 . S
C1755 C1747 1.503 . S
C1755 C1754 1.370 . S
C1755 C1756 1.403 . S
C1756 C1755 1.403 . S
C1756 C1757 1.404 . S
C1756 C1759 1.539 . S
C1757 C1753 1.408 . S
C1757 C1756 1.404 . S
C1757 H1769 0.930 . S
C1758 C1754 1.524 . S
C1758 H1770 0.956 . S
C1758 H1771 0.961 . S
C1758 H1772 0.961 . S
C1759 C1756 1.539 . S
C1759 H1773 0.958 . S
C1759 H1774 0.961 . S
C1759 H1775 0.960 . S
H1760 C1744 0.931 . S
H1761 C1749 0.929 . S
H1762 C1750 0.960 1_556 S
H1763 C1750 0.962 1_556 S
H1764 C1750 0.960 . S
H1765 C1751 0.961 . S
H1766 C1751 0.961 . S
H1767 C1751 0.961 . S
H1768 C1752 0.931 . S
H1769 C1757 0.930 . S
H1770 C1758 0.956 . S
H1771 C1758 0.961 . S
H1772 C1758 0.961 . S
H1773 C1759 0.958 . S
H1774 C1759 0.961 . S
H1775 C1759 0.960 . S
C1776 C1777 1.391 1_655 S
C1776 C1778 1.394 1_554 S
C1776 H1792 0.931 . S
C1777 C1776 1.391 1_455 S
C1777 C1781 1.376 1_554 S
C1778 C1776 1.394 1_556 S
C1778 C1779 1.369 1_655 S
C1778 C1782 1.531 . S
C1779 C1778 1.369 1_455 S
C1779 C1780 1.410 . S
C1779 C1787 1.503 . S
C1780 C1779 1.410 . S
C1780 C1781 1.392 . S
C1780 C1783 1.511 . S
C1781 C1777 1.376 1_556 S
C1781 C1780 1.392 . S
C1781 H1793 0.929 . S
C1782 C1778 1.531 . S
C1782 H1794 0.960 . S
C1782 H1795 0.962 1_556 S
C1782 H1796 0.960 1_556 S
C1783 C1780 1.511 . S
C1783 H1797 0.961 . S
C1783 H1798 0.961 . S
C1783 H1799 0.961 . S
C1784 C1785 1.370 . S
C1784 C1786 1.363 . S
C1784 H1800 0.931 . S
C1785 C1784 1.370 . S
C1785 C1789 1.408 1_455 S
C1786 C1784 1.363 . S
C1786 C1787 1.370 . S
C1786 C1790 1.524 . S
C1787 C1779 1.503 . S
C1787 C1786 1.370 . S
C1787 C1788 1.403 1_455 S
C1788 C1787 1.403 1_655 S
C1788 C1789 1.404 . S
C1788 C1791 1.539 . S
C1789 C1785 1.408 1_655 S
C1789 C1788 1.404 . S
C1789 H1801 0.930 . S
C1790 C1786 1.524 . S
C1790 H1802 0.956 . S
C1790 H1803 0.961 . S
C1790 H1804 0.961 . S
C1791 C1788 1.539 . S
C1791 H1805 0.958 . S
C1791 H1806 0.961 . S
C1791 H1807 0.960 . S
H1792 C1776 0.931 . S
H1793 C1781 0.929 . S
H1794 C1782 0.960 . S
H1795 C1782 0.962 1_554 S
H1796 C1782 0.960 1_554 S
H1797 C1783 0.961 . S
H1798 C1783 0.961 . S
H1799 C1783 0.961 . S
H1800 C1784 0.931 . S
H1801 C1789 0.930 . S
H1802 C1790 0.956 . S
H1803 C1790 0.961 . S
H1804 C1790 0.961 . S
H1805 C1791 0.958 . S
H1806 C1791 0.961 . S
H1807 C1791 0.960 . S
C1808 C1809 1.391 . S
C1808 C1810 1.394 . S
C1808 H1824 0.931 . S
C1809 C1808 1.391 . S
C1809 C1813 1.376 . S
C1810 C1808 1.394 . S
C1810 C1811 1.369 . S
C1810 C1814 1.531 . S
C1811 C1810 1.369 . S
C1811 C1812 1.410 . S
C1811 C1819 1.503 . S
C1812 C1811 1.410 . S
C1812 C1813 1.392 . S
C1812 C1815 1.511 . S
C1813 C1809 1.376 . S
C1813 C1812 1.392 . S
C1813 H1825 0.929 . S
C1814 C1810 1.531 . S
C1814 H1826 0.960 . S
C1814 H1827 0.962 . S
C1814 H1828 0.960 . S
C1815 C1812 1.511 . S
C1815 H1829 0.961 . S
C1815 H1830 0.961 . S
C1815 H1831 0.961 . S
C1816 C1817 1.370 . S
C1816 C1818 1.363 . S
C1816 H1832 0.931 . S
C1817 C1816 1.370 . S
C1817 C1821 1.408 . S
C1818 C1816 1.363 . S
C1818 C1819 1.370 . S
C1818 C1822 1.524 . S
C1819 C1811 1.503 . S
C1819 C1818 1.370 . S
C1819 C1820 1.403 . S
C1820 C1819 1.403 . S
C1820 C1821 1.404 . S
C1820 C1823 1.539 . S
C1821 C1817 1.408 . S
C1821 C1820 1.404 . S
C1821 H1833 0.930 . S
C1822 C1818 1.524 . S
C1822 H1834 0.956 . S
C1822 H1835 0.961 . S
C1822 H1836 0.961 . S
C1823 C1820 1.539 . S
C1823 H1837 0.958 . S
C1823 H1838 0.961 . S
C1823 H1839 0.960 . S
H1824 C1808 0.931 . S
H1825 C1813 0.929 . S
H1826 C1814 0.960 . S
H1827 C1814 0.962 . S
H1828 C1814 0.960 . S
H1829 C1815 0.961 . S
H1830 C1815 0.961 . S
H1831 C1815 0.961 . S
H1832 C1816 0.931 . S
H1833 C1821 0.930 . S
H1834 C1822 0.956 . S
H1835 C1822 0.961 . S
H1836 C1822 0.961 . S
H1837 C1823 0.958 . S
H1838 C1823 0.961 . S
H1839 C1823 0.960 . S
C1840 C1841 1.397 1_545 S
C1840 C1842 1.371 1_554 S
C1840 H1856 0.947 . S
C1841 C1840 1.397 1_565 S
C1841 C1845 1.376 1_554 S
C1842 C1840 1.371 1_556 S
C1842 C1843 1.369 1_545 S
C1842 C1846 1.531 . S
C1843 C1842 1.369 1_565 S
C1843 C1844 1.410 . S
C1843 C1851 1.503 . S
C1844 C1843 1.410 . S
C1844 C1845 1.392 . S
C1844 C1847 1.511 . S
C1845 C1841 1.376 1_556 S
C1845 C1844 1.392 . S
C1845 H1857 0.929 . S
C1846 C1842 1.531 . S
C1846 H1858 0.960 . S
C1846 H1859 0.962 . S
C1846 H1860 0.960 . S
C1847 C1844 1.511 . S
C1847 H1861 0.961 . S
C1847 H1862 0.961 . S
C1847 H1863 0.961 . S
C1848 C1849 1.372 . S
C1848 C1850 1.363 . S
C1848 H1864 0.931 . S
C1849 C1848 1.372 . S
C1849 C1853 1.414 1_565 S
C1850 C1848 1.363 . S
C1850 C1851 1.370 . S
C1850 C1854 1.524 . S
C1851 C1843 1.503 . S
C1851 C1850 1.370 . S
C1851 C1852 1.403 1_565 S
C1852 C1851 1.403 1_545 S
C1852 C1853 1.404 . S
C1852 C1855 1.539 . S
C1853 C1849 1.414 1_545 S
C1853 C1852 1.404 . S
C1853 H1865 0.930 . S
C1854 C1850 1.524 . S
C1854 H1866 0.956 . S
C1854 H1867 0.961 . S
C1854 H1868 0.961 . S
C1855 C1852 1.539 . S
C1855 H1869 0.958 . S
C1855 H1870 0.963 1_545 S
C1855 H1871 0.960 1_545 S
H1856 C1840 0.947 . S
H1857 C1845 0.929 . S
H1858 C1846 0.960 . S
H1859 C1846 0.962 . S
H1860 C1846 0.960 . S
H1861 C1847 0.961 . S
H1862 C1847 0.961 . S
H1863 C1847 0.961 . S
H1864 C1848 0.931 . S
H1865 C1853 0.930 . S
H1866 C1854 0.956 . S
H1867 C1854 0.961 . S
H1868 C1854 0.961 . S
H1869 C1855 0.958 . S
H1870 C1855 0.963 1_565 S
H1871 C1855 0.960 1_565 S
C1872 C1873 1.391 1_565 S
C1872 C1874 1.394 . S
C1872 H1888 0.931 . S
C1873 C1872 1.391 1_545 S
C1873 C1877 1.376 . S
C1874 C1872 1.394 . S
C1874 C1875 1.369 1_565 S
C1874 C1878 1.531 . S
C1875 C1874 1.369 1_545 S
C1875 C1876 1.410 . S
C1875 C1883 1.503 . S
C1876 C1875 1.410 . S
C1876 C1877 1.392 . S
C1876 C1879 1.511 . S
C1877 C1873 1.376 . S
C1877 C1876 1.392 . S
C1877 H1889 0.929 . S
C1878 C1874 1.531 . S
C1878 H1890 0.960 . S
C1878 H1891 0.962 . S
C1878 H1892 0.960 . S
C1879 C1876 1.511 . S
C1879 H1893 0.961 . S
C1879 H1894 0.961 . S
C1879 H1895 0.961 . S
C1880 C1881 1.364 1_545 S
C1880 C1882 1.363 . S
C1880 H1896 0.931 . S
C1881 C1880 1.364 1_565 S
C1881 C1885 1.418 . S
C1882 C1880 1.363 . S
C1882 C1883 1.370 . S
C1882 C1886 1.524 . S
C1883 C1875 1.503 . S
C1883 C1882 1.370 . S
C1883 C1884 1.403 1_545 S
C1884 C1883 1.403 1_565 S
C1884 C1885 1.404 . S
C1884 C1887 1.539 . S
C1885 C1881 1.418 . S
C1885 C1884 1.404 . S
C1885 H1897 0.930 . S
C1886 C1882 1.524 . S
C1886 H1898 0.956 . S
C1886 H1899 0.961 . S
C1886 H1900 0.961 . S
C1887 C1884 1.539 . S
C1887 H1901 0.958 . S
C1887 H1902 0.961 . S
C1887 H1903 0.949 1_565 S
H1888 C1872 0.931 . S
H1889 C1877 0.929 . S
H1890 C1878 0.960 . S
H1891 C1878 0.962 . S
H1892 C1878 0.960 . S
H1893 C1879 0.961 . S
H1894 C1879 0.961 . S
H1895 C1879 0.961 . S
H1896 C1880 0.931 . S
H1897 C1885 0.930 . S
H1898 C1886 0.956 . S
H1899 C1886 0.961 . S
H1900 C1886 0.961 . S
H1901 C1887 0.958 . S
H1902 C1887 0.961 . S
H1903 C1887 0.949 1_545 S
C1904 C1905 1.391 . S
C1904 C1906 1.394 . S
C1904 H1920 0.931 . S
C1905 C1904 1.391 . S
C1905 C1909 1.376 1_655 S
C1906 C1904 1.394 . S
C1906 C1907 1.369 . S
C1906 C1910 1.531 . S
C1907 C1906 1.369 . S
C1907 C1908 1.410 1_655 S
C1907 C1915 1.503 . S
C1908 C1907 1.410 1_455 S
C1908 C1909 1.392 . S
C1908 C1911 1.511 . S
C1909 C1905 1.376 1_455 S
C1909 C1908 1.392 . S
C1909 H1921 0.929 . S
C1910 C1906 1.531 . S
C1910 H1922 0.960 . S
C1910 H1923 0.962 . S
C1910 H1924 0.960 . S
C1911 C1908 1.511 . S
C1911 H1925 0.961 . S
C1911 H1926 0.961 . S
C1911 H1927 0.961 . S
C1912 C1913 1.370 . S
C1912 C1914 1.363 . S
C1912 H1928 0.931 . S
C1913 C1912 1.370 . S
C1913 C1917 1.404 1_655 S
C1914 C1912 1.363 . S
C1914 C1915 1.370 . S
C1914 C1918 1.524 . S
C1915 C1907 1.503 . S
C1915 C1914 1.370 . S
C1915 C1916 1.403 . S
C1916 C1915 1.403 . S
C1916 C1917 1.398 1_655 S
C1916 C1919 1.539 1_655 S
C1917 C1913 1.404 1_455 S
C1917 C1916 1.398 1_455 S
C1917 H1929 0.940 . S
C1918 C1914 1.524 . S
C1918 H1930 0.956 . S
C1918 H1931 0.961 1_655 S
C1918 H1932 0.961 . S
C1919 C1916 1.539 1_455 S
C1919 H1933 0.958 1_455 S
C1919 H1934 0.961 . S
C1919 H1935 0.960 . S
H1920 C1904 0.931 . S
H1921 C1909 0.929 . S
H1922 C1910 0.960 . S
H1923 C1910 0.962 . S
H1924 C1910 0.960 . S
H1925 C1911 0.961 . S
H1926 C1911 0.961 . S
H1927 C1911 0.961 . S
H1928 C1912 0.931 . S
H1929 C1917 0.940 . S
H1930 C1918 0.956 . S
H1931 C1918 0.961 1_455 S
H1932 C1918 0.961 . S
H1933 C1919 0.958 1_655 S
H1934 C1919 0.961 . S
H1935 C1919 0.960 . S
C1936 C1937 1.391 . S
C1936 C1938 1.394 . S
C1936 H1952 0.931 . S
C1937 C1936 1.391 . S
C1937 C1941 1.376 . S
C1938 C1936 1.394 . S
C1938 C1939 1.369 . S
C1938 C1942 1.531 . S
C1939 C1938 1.369 . S
C1939 C1940 1.410 . S
C1939 C1947 1.503 . S
C1940 C1939 1.410 . S
C1940 C1941 1.392 . S
C1940 C1943 1.511 . S
C1941 C1937 1.376 . S
C1941 C1940 1.392 . S
C1941 H1953 0.929 . S
C1942 C1938 1.531 . S
C1942 H1954 0.960 . S
C1942 H1955 0.962 . S
C1942 H1956 0.960 . S
C1943 C1940 1.511 . S
C1943 H1957 0.961 . S
C1943 H1958 0.961 . S
C1943 H1959 0.961 . S
C1944 C1945 1.370 . S
C1944 C1946 1.363 . S
C1944 H1960 0.931 . S
C1945 C1944 1.370 . S
C1945 C1949 1.408 . S
C1946 C1944 1.363 . S
C1946 C1947 1.370 . S
C1946 C1950 1.524 . S
C1947 C1939 1.503 . S
C1947 C1946 1.370 . S
C1947 C1948 1.403 . S
C1948 C1947 1.403 . S
C1948 C1949 1.404 . S
C1948 C1951 1.539 . S
C1949 C1945 1.408 . S
C1949 C1948 1.404 . S
C1949 H1961 0.930 . S
C1950 C1946 1.524 . S
C1950 H1962 0.956 . S
C1950 H1963 0.961 . S
C1950 H1964 0.961 . S
C1951 C1948 1.539 . S
C1951 H1965 0.958 . S
C1951 H1966 0.961 . S
C1951 H1967 0.960 . S
H1952 C1936 0.931 . S
H1953 C1941 0.929 . S
H1954 C1942 0.960 . S
H1955 C1942 0.962 . S
H1956 C1942 0.960 . S
H1957 C1943 0.961 . S
H1958 C1943 0.961 . S
H1959 C1943 0.961 . S
H1960 C1944 0.931 . S
H1961 C1949 0.930 . S
H1962 C1950 0.956 . S
H1963 C1950 0.961 . S
H1964 C1950 0.961 . S
H1965 C1951 0.958 . S
H1966 C1951 0.961 . S
H1967 C1951 0.960 . S
C1968 C1969 1.391 . S
C1968 C1970 1.394 . S
C1968 H1984 0.931 . S
C1969 C1968 1.391 . S
C1969 C1973 1.376 . S
C1970 C1968 1.394 . S
C1970 C1971 1.369 . S
C1970 C1974 1.531 . S
C1971 C1970 1.369 . S
C1971 C1972 1.410 . S
C1971 C1979 1.503 . S
C1972 C1971 1.410 . S
C1972 C1973 1.392 . S
C1972 C1975 1.511 . S
C1973 C1969 1.376 . S
C1973 C1972 1.392 . S
C1973 H1985 0.929 . S
C1974 C1970 1.531 . S
C1974 H1986 0.960 . S
C1974 H1987 0.962 . S
C1974 H1988 0.960 . S
C1975 C1972 1.511 . S
C1975 H1989 0.961 . S
C1975 H1990 0.961 . S
C1975 H1991 0.961 . S
C1976 C1977 1.370 . S
C1976 C1978 1.363 . S
C1976 H1992 0.931 . S
C1977 C1976 1.370 . S
C1977 C1981 1.408 . S
C1978 C1976 1.363 . S
C1978 C1979 1.370 . S
C1978 C1982 1.524 . S
C1979 C1971 1.503 . S
C1979 C1978 1.370 . S
C1979 C1980 1.403 . S
C1980 C1979 1.403 . S
C1980 C1981 1.404 . S
C1980 C1983 1.539 . S
C1981 C1977 1.408 . S
C1981 C1980 1.404 . S
C1981 H1993 0.930 . S
C1982 C1978 1.524 . S
C1982 H1994 0.956 . S
C1982 H1995 0.961 . S
C1982 H1996 0.961 . S
C1983 C1980 1.539 . S
C1983 H1997 0.958 . S
C1983 H1998 0.961 . S
C1983 H1999 0.960 . S
H1984 C1968 0.931 . S
H1985 C1973 0.929 . S
H1986 C1974 0.960 . S
H1987 C1974 0.962 . S
H1988 C1974 0.960 . S
H1989 C1975 0.961 . S
H1990 C1975 0.961 . S
H1991 C1975 0.961 . S
H1992 C1976 0.931 . S
H1993 C1981 0.930 . S
H1994 C1982 0.956 . S
H1995 C1982 0.961 . S
H1996 C1982 0.961 . S
H1997 C1983 0.958 . S
H1998 C1983 0.961 . S
H1999 C1983 0.960 . S
C2000 C2001 1.391 . S
C2000 C2002 1.394 . S
C2000 H2016 0.931 . S
C2001 C2000 1.391 . S
C2001 C2005 1.376 . S
C2002 C2000 1.394 . S
C2002 C2003 1.369 . S
C2002 C2006 1.531 . S
C2003 C2002 1.369 . S
C2003 C2004 1.410 . S
C2003 C2011 1.503 . S
C2004 C2003 1.410 . S
C2004 C2005 1.392 . S
C2004 C2007 1.511 . S
C2005 C2001 1.376 . S
C2005 C2004 1.392 . S
C2005 H2017 0.929 . S
C2006 C2002 1.531 . S
C2006 H2018 0.960 . S
C2006 H2019 0.962 . S
C2006 H2020 0.960 . S
C2007 C2004 1.511 . S
C2007 H2021 0.961 . S
C2007 H2022 0.961 . S
C2007 H2023 0.961 . S
C2008 C2009 1.370 . S
C2008 C2010 1.363 . S
C2008 H2024 0.931 . S
C2009 C2008 1.370 . S
C2009 C2013 1.408 . S
C2010 C2008 1.363 . S
C2010 C2011 1.370 . S
C2010 C2014 1.524 . S
C2011 C2003 1.503 . S
C2011 C2010 1.370 . S
C2011 C2012 1.403 . S
C2012 C2011 1.403 . S
C2012 C2013 1.404 . S
C2012 C2015 1.539 . S
C2013 C2009 1.408 . S
C2013 C2012 1.404 . S
C2013 H2025 0.930 . S
C2014 C2010 1.524 . S
C2014 H2026 0.956 . S
C2014 H2027 0.961 . S
C2014 H2028 0.961 . S
C2015 C2012 1.539 . S
C2015 H2029 0.958 . S
C2015 H2030 0.961 . S
C2015 H2031 0.960 . S
H2016 C2000 0.931 . S
H2017 C2005 0.929 . S
H2018 C2006 0.960 . S
H2019 C2006 0.962 . S
H2020 C2006 0.960 . S
H2021 C2007 0.961 . S
H2022 C2007 0.961 . S
H2023 C2007 0.961 . S
H2024 C2008 0.931 . S
H2025 C2013 0.930 . S
H2026 C2014 0.956 . S
H2027 C2014 0.961 . S
H2028 C2014 0.961 . S
H2029 C2015 0.958 . S
H2030 C2015 0.961 . S
H2031 C2015 0.960 . S
C2032 C2033 1.391 . S
C2032 C2034 1.394 . S
C2032 H2048 0.931 . S
C2033 C2032 1.391 . S
C2033 C2037 1.376 . S
C2034 C2032 1.394 . S
C2034 C2035 1.369 . S
C2034 C2038 1.531 . S
C2035 C2034 1.369 . S
C2035 C2036 1.410 . S
C2035 C2043 1.503 . S
C2036 C2035 1.410 . S
C2036 C2037 1.392 . S
C2036 C2039 1.511 . S
C2037 C2033 1.376 . S
C2037 C2036 1.392 . S
C2037 H2049 0.929 . S
C2038 C2034 1.531 . S
C2038 H2050 0.960 . S
C2038 H2051 0.962 . S
C2038 H2052 0.960 . S
C2039 C2036 1.511 . S
C2039 H2053 0.961 . S
C2039 H2054 0.961 . S
C2039 H2055 0.961 . S
C2040 C2041 1.370 . S
C2040 C2042 1.363 . S
C2040 H2056 0.931 . S
C2041 C2040 1.370 . S
C2041 C2045 1.408 . S
C2042 C2040 1.363 . S
C2042 C2043 1.370 . S
C2042 C2046 1.524 . S
C2043 C2035 1.503 . S
C2043 C2042 1.370 . S
C2043 C2044 1.403 . S
C2044 C2043 1.403 . S
C2044 C2045 1.404 . S
C2044 C2047 1.539 . S
C2045 C2041 1.408 . S
C2045 C2044 1.404 . S
C2045 H2057 0.930 . S
C2046 C2042 1.524 . S
C2046 H2058 0.956 . S
C2046 H2059 0.961 . S
C2046 H2060 0.961 . S
C2047 C2044 1.539 . S
C2047 H2061 0.958 . S
C2047 H2062 0.961 . S
C2047 H2063 0.960 . S
H2048 C2032 0.931 . S
H2049 C2037 0.929 . S
H2050 C2038 0.960 . S
H2051 C2038 0.962 . S
H2052 C2038 0.960 . S
H2053 C2039 0.961 . S
H2054 C2039 0.961 . S
H2055 C2039 0.961 . S
H2056 C2040 0.931 . S
H2057 C2045 0.930 . S
H2058 C2046 0.956 . S
H2059 C2046 0.961 . S
H2060 C2046 0.961 . S
H2061 C2047 0.958 . S
H2062 C2047 0.961 . S
H2063 C2047 0.960 . S
C2064 C2065 1.391 . S
C2064 C2066 1.394 . S
C2064 H2080 0.931 . S
C2065 C2064 1.391 . S
C2065 C2069 1.376 . S
C2066 C2064 1.394 . S
C2066 C2067 1.369 . S
C2066 C2070 1.531 . S
C2067 C2066 1.369 . S
C2067 C2068 1.410 . S
C2067 C2075 1.503 . S
C2068 C2067 1.410 . S
C2068 C2069 1.392 . S
C2068 C2071 1.511 . S
C2069 C2065 1.376 . S
C2069 C2068 1.392 . S
C2069 H2081 0.929 . S
C2070 C2066 1.531 . S
C2070 H2082 0.960 . S
C2070 H2083 0.962 . S
C2070 H2084 0.960 . S
C2071 C2068 1.511 . S
C2071 H2085 0.961 . S
C2071 H2086 0.961 . S
C2071 H2087 0.961 . S
C2072 C2073 1.370 . S
C2072 C2074 1.363 . S
C2072 H2088 0.931 . S
C2073 C2072 1.370 . S
C2073 C2077 1.408 . S
C2074 C2072 1.363 . S
C2074 C2075 1.370 . S
C2074 C2078 1.524 . S
C2075 C2067 1.503 . S
C2075 C2074 1.370 . S
C2075 C2076 1.403 . S
C2076 C2075 1.403 . S
C2076 C2077 1.404 . S
C2076 C2079 1.539 . S
C2077 C2073 1.408 . S
C2077 C2076 1.404 . S
C2077 H2089 0.930 . S
C2078 C2074 1.524 . S
C2078 H2090 0.956 . S
C2078 H2091 0.961 . S
C2078 H2092 0.961 . S
C2079 C2076 1.539 . S
C2079 H2093 0.958 . S
C2079 H2094 0.961 . S
C2079 H2095 0.960 . S
H2080 C2064 0.931 . S
H2081 C2069 0.929 . S
H2082 C2070 0.960 . S
H2083 C2070 0.962 . S
H2084 C2070 0.960 . S
H2085 C2071 0.961 . S
H2086 C2071 0.961 . S
H2087 C2071 0.961 . S
H2088 C2072 0.931 . S
H2089 C2077 0.930 . S
H2090 C2078 0.956 . S
H2091 C2078 0.961 . S
H2092 C2078 0.961 . S
H2093 C2079 0.958 . S
H2094 C2079 0.961 . S
H2095 C2079 0.960 . S
C2096 C2097 1.391 . S
C2096 C2098 1.394 . S
C2096 H2112 0.931 . S
C2097 C2096 1.391 . S
C2097 C2101 1.376 . S
C2098 C2096 1.394 . S
C2098 C2099 1.369 . S
C2098 C2102 1.531 . S
C2099 C2098 1.369 . S
C2099 C2100 1.410 . S
C2099 C2107 1.503 . S
C2100 C2099 1.410 . S
C2100 C2101 1.392 . S
C2100 C2103 1.511 . S
C2101 C2097 1.376 . S
C2101 C2100 1.392 . S
C2101 H2113 0.929 . S
C2102 C2098 1.531 . S
C2102 H2114 0.960 . S
C2102 H2115 0.962 . S
C2102 H2116 0.960 . S
C2103 C2100 1.511 . S
C2103 H2117 0.961 . S
C2103 H2118 0.961 . S
C2103 H2119 0.961 . S
C2104 C2105 1.370 . S
C2104 C2106 1.363 . S
C2104 H2120 0.931 . S
C2105 C2104 1.370 . S
C2105 C2109 1.408 . S
C2106 C2104 1.363 . S
C2106 C2107 1.370 . S
C2106 C2110 1.524 . S
C2107 C2099 1.503 . S
C2107 C2106 1.370 . S
C2107 C2108 1.403 . S
C2108 C2107 1.403 . S
C2108 C2109 1.404 . S
C2108 C2111 1.539 . S
C2109 C2105 1.408 . S
C2109 C2108 1.404 . S
C2109 H2121 0.930 . S
C2110 C2106 1.524 . S
C2110 H2122 0.956 . S
C2110 H2123 0.961 . S
C2110 H2124 0.961 . S
C2111 C2108 1.539 . S
C2111 H2125 0.958 . S
C2111 H2126 0.961 . S
C2111 H2127 0.960 . S
H2112 C2096 0.931 . S
H2113 C2101 0.929 . S
H2114 C2102 0.960 . S
H2115 C2102 0.962 . S
H2116 C2102 0.960 . S
H2117 C2103 0.961 . S
H2118 C2103 0.961 . S
H2119 C2103 0.961 . S
H2120 C2104 0.931 . S
H2121 C2109 0.930 . S
H2122 C2110 0.956 . S
H2123 C2110 0.961 . S
H2124 C2110 0.961 . S
H2125 C2111 0.958 . S
H2126 C2111 0.961 . S
H2127 C2111 0.960 . S
C2128 C2129 1.391 . S
C2128 C2130 1.394 . S
C2128 H2144 0.931 . S
C2129 C2128 1.391 . S
C2129 C2133 1.376 . S
C2130 C2128 1.394 . S
C2130 C2131 1.369 . S
C2130 C2134 1.531 . S
C2131 C2130 1.369 . S
C2131 C2132 1.410 . S
C2131 C2139 1.503 . S
C2132 C2131 1.410 . S
C2132 C2133 1.392 . S
C2132 C2135 1.511 . S
C2133 C2129 1.376 . S
C2133 C2132 1.392 . S
C2133 H2145 0.929 . S
C2134 C2130 1.531 . S
C2134 H2146 0.960 . S
C2134 H2147 0.962 . S
C2134 H2148 0.960 . S
C2135 C2132 1.511 . S
C2135 H2149 0.961 . S
C2135 H2150 0.961 . S
C2135 H2151 0.961 . S
C2136 C2137 1.370 . S
C2136 C2138 1.363 . S
C2136 H2152 0.931 . S
C2137 C2136 1.370 . S
C2137 C2141 1.408 . S
C2138 C2136 1.363 . S
C2138 C2139 1.370 . S
C2138 C2142 1.524 . S
C2139 C2131 1.503 . S
C2139 C2138 1.370 . S
C2139 C2140 1.403 . S
C2140 C2139 1.403 . S
C2140 C2141 1.404 . S
C2140 C2143 1.539 . S
C2141 C2137 1.408 . S
C2141 C2140 1.404 . S
C2141 H2153 0.930 . S
C2142 C2138 1.524 . S
C2142 H2154 0.956 . S
C2142 H2155 0.961 . S
C2142 H2156 0.961 . S
C2143 C2140 1.539 . S
C2143 H2157 0.958 . S
C2143 H2158 0.961 . S
C2143 H2159 0.960 . S
H2144 C2128 0.931 . S
H2145 C2133 0.929 . S
H2146 C2134 0.960 . S
H2147 C2134 0.962 . S
H2148 C2134 0.960 . S
H2149 C2135 0.961 . S
H2150 C2135 0.961 . S
H2151 C2135 0.961 . S
H2152 C2136 0.931 . S
H2153 C2141 0.930 . S
H2154 C2142 0.956 . S
H2155 C2142 0.961 . S
H2156 C2142 0.961 . S
H2157 C2143 0.958 . S
H2158 C2143 0.961 . S
H2159 C2143 0.960 . S
C2160 C2161 1.391 . S
C2160 C2162 1.394 . S
C2160 H2176 0.931 . S
C2161 C2160 1.391 . S
C2161 C2165 1.376 . S
C2162 C2160 1.394 . S
C2162 C2163 1.369 . S
C2162 C2166 1.531 . S
C2163 C2162 1.369 . S
C2163 C2164 1.410 . S
C2163 C2171 1.503 . S
C2164 C2163 1.410 . S
C2164 C2165 1.392 . S
C2164 C2167 1.511 . S
C2165 C2161 1.376 . S
C2165 C2164 1.392 . S
C2165 H2177 0.929 . S
C2166 C2162 1.531 . S
C2166 H2178 0.960 . S
C2166 H2179 0.962 . S
C2166 H2180 0.960 . S
C2167 C2164 1.511 . S
C2167 H2181 0.961 . S
C2167 H2182 0.961 . S
C2167 H2183 0.961 . S
C2168 C2169 1.370 . S
C2168 C2170 1.363 . S
C2168 H2184 0.931 . S
C2169 C2168 1.370 . S
C2169 C2173 1.408 . S
C2170 C2168 1.363 . S
C2170 C2171 1.370 . S
C2170 C2174 1.524 . S
C2171 C2163 1.503 . S
C2171 C2170 1.370 . S
C2171 C2172 1.403 . S
C2172 C2171 1.403 . S
C2172 C2173 1.404 . S
C2172 C2175 1.539 . S
C2173 C2169 1.408 . S
C2173 C2172 1.404 . S
C2173 H2185 0.930 . S
C2174 C2170 1.524 . S
C2174 H2186 0.956 . S
C2174 H2187 0.961 . S
C2174 H2188 0.961 . S
C2175 C2172 1.539 . S
C2175 H2189 0.958 . S
C2175 H2190 0.961 . S
C2175 H2191 0.960 . S
H2176 C2160 0.931 . S
H2177 C2165 0.929 . S
H2178 C2166 0.960 . S
H2179 C2166 0.962 . S
H2180 C2166 0.960 . S
H2181 C2167 0.961 . S
H2182 C2167 0.961 . S
H2183 C2167 0.961 . S
H2184 C2168 0.931 . S
H2185 C2173 0.930 . S
H2186 C2174 0.956 . S
H2187 C2174 0.961 . S
H2188 C2174 0.961 . S
H2189 C2175 0.958 . S
H2190 C2175 0.961 . S
H2191 C2175 0.960 . S
C2192 C2193 1.391 . S
C2192 C2194 1.394 . S
C2192 H2208 0.931 . S
C2193 C2192 1.391 . S
C2193 C2197 1.376 . S
C2194 C2192 1.394 . S
C2194 C2195 1.369 . S
C2194 C2198 1.531 . S
C2195 C2194 1.369 . S
C2195 C2196 1.410 . S
C2195 C2203 1.503 . S
C2196 C2195 1.410 . S
C2196 C2197 1.392 . S
C2196 C2199 1.511 . S
C2197 C2193 1.376 . S
C2197 C2196 1.392 . S
C2197 H2209 0.929 . S
C2198 C2194 1.531 . S
C2198 H2210 0.960 . S
C2198 H2211 0.962 . S
C2198 H2212 0.960 . S
C2199 C2196 1.511 . S
C2199 H2213 0.961 . S
C2199 H2214 0.961 . S
C2199 H2215 0.961 . S
C2200 C2201 1.370 . S
C2200 C2202 1.363 . S
C2200 H2216 0.931 . S
C2201 C2200 1.370 . S
C2201 C2205 1.408 . S
C2202 C2200 1.363 . S
C2202 C2203 1.370 . S
C2202 C2206 1.524 . S
C2203 C2195 1.503 . S
C2203 C2202 1.370 . S
C2203 C2204 1.403 . S
C2204 C2203 1.403 . S
C2204 C2205 1.404 . S
C2204 C2207 1.539 . S
C2205 C2201 1.408 . S
C2205 C2204 1.404 . S
C2205 H2217 0.930 . S
C2206 C2202 1.524 . S
C2206 H2218 0.956 . S
C2206 H2219 0.961 . S
C2206 H2220 0.961 . S
C2207 C2204 1.539 . S
C2207 H2221 0.958 . S
C2207 H2222 0.961 . S
C2207 H2223 0.960 . S
H2208 C2192 0.931 . S
H2209 C2197 0.929 . S
H2210 C2198 0.960 . S
H2211 C2198 0.962 . S
H2212 C2198 0.960 . S
H2213 C2199 0.961 . S
H2214 C2199 0.961 . S
H2215 C2199 0.961 . S
H2216 C2200 0.931 . S
H2217 C2205 0.930 . S
H2218 C2206 0.956 . S
H2219 C2206 0.961 . S
H2220 C2206 0.961 . S
H2221 C2207 0.958 . S
H2222 C2207 0.961 . S
H2223 C2207 0.960 . S
C2224 C2225 1.391 . S
C2224 C2226 1.394 . S
C2224 H2240 0.931 . S
C2225 C2224 1.391 . S
C2225 C2229 1.376 . S
C2226 C2224 1.394 . S
C2226 C2227 1.369 . S
C2226 C2230 1.531 . S
C2227 C2226 1.369 . S
C2227 C2228 1.410 . S
C2227 C2235 1.503 . S
C2228 C2227 1.410 . S
C2228 C2229 1.392 . S
C2228 C2231 1.511 . S
C2229 C2225 1.376 . S
C2229 C2228 1.392 . S
C2229 H2241 0.929 . S
C2230 C2226 1.531 . S
C2230 H2242 0.960 . S
C2230 H2243 0.962 . S
C2230 H2244 0.960 . S
C2231 C2228 1.511 . S
C2231 H2245 0.961 . S
C2231 H2246 0.961 . S
C2231 H2247 0.961 . S
C2232 C2233 1.370 . S
C2232 C2234 1.363 . S
C2232 H2248 0.931 . S
C2233 C2232 1.370 . S
C2233 C2237 1.408 . S
C2234 C2232 1.363 . S
C2234 C2235 1.370 . S
C2234 C2238 1.524 . S
C2235 C2227 1.503 . S
C2235 C2234 1.370 . S
C2235 C2236 1.403 . S
C2236 C2235 1.403 . S
C2236 C2237 1.404 . S
C2236 C2239 1.539 . S
C2237 C2233 1.408 . S
C2237 C2236 1.404 . S
C2237 H2249 0.930 . S
C2238 C2234 1.524 . S
C2238 H2250 0.956 . S
C2238 H2251 0.961 . S
C2238 H2252 0.961 . S
C2239 C2236 1.539 . S
C2239 H2253 0.958 . S
C2239 H2254 0.961 . S
C2239 H2255 0.960 . S
H2240 C2224 0.931 . S
H2241 C2229 0.929 . S
H2242 C2230 0.960 . S
H2243 C2230 0.962 . S
H2244 C2230 0.960 . S
H2245 C2231 0.961 . S
H2246 C2231 0.961 . S
H2247 C2231 0.961 . S
H2248 C2232 0.931 . S
H2249 C2237 0.930 . S
H2250 C2238 0.956 . S
H2251 C2238 0.961 . S
H2252 C2238 0.961 . S
H2253 C2239 0.958 . S
H2254 C2239 0.961 . S
H2255 C2239 0.960 . S
C2256 C2257 1.391 . S
C2256 C2258 1.394 . S
C2256 H2272 0.931 . S
C2257 C2256 1.391 . S
C2257 C2261 1.376 . S
C2258 C2256 1.394 . S
C2258 C2259 1.369 . S
C2258 C2262 1.531 . S
C2259 C2258 1.369 . S
C2259 C2260 1.410 . S
C2259 C2267 1.503 . S
C2260 C2259 1.410 . S
C2260 C2261 1.392 . S
C2260 C2263 1.511 . S
C2261 C2257 1.376 . S
C2261 C2260 1.392 . S
C2261 H2273 0.929 . S
C2262 C2258 1.531 . S
C2262 H2274 0.960 . S
C2262 H2275 0.962 . S
C2262 H2276 0.960 . S
C2263 C2260 1.511 . S
C2263 H2277 0.961 . S
C2263 H2278 0.961 . S
C2263 H2279 0.961 . S
C2264 C2265 1.370 . S
C2264 C2266 1.363 . S
C2264 H2280 0.931 . S
C2265 C2264 1.370 . S
C2265 C2269 1.408 . S
C2266 C2264 1.363 . S
C2266 C2267 1.370 . S
C2266 C2270 1.524 . S
C2267 C2259 1.503 . S
C2267 C2266 1.370 . S
C2267 C2268 1.403 . S
C2268 C2267 1.403 . S
C2268 C2269 1.404 . S
C2268 C2271 1.539 . S
C2269 C2265 1.408 . S
C2269 C2268 1.404 . S
C2269 H2281 0.930 . S
C2270 C2266 1.524 . S
C2270 H2282 0.956 . S
C2270 H2283 0.961 . S
C2270 H2284 0.961 . S
C2271 C2268 1.539 . S
C2271 H2285 0.958 . S
C2271 H2286 0.961 . S
C2271 H2287 0.960 . S
H2272 C2256 0.931 . S
H2273 C2261 0.929 . S
H2274 C2262 0.960 . S
H2275 C2262 0.962 . S
H2276 C2262 0.960 . S
H2277 C2263 0.961 . S
H2278 C2263 0.961 . S
H2279 C2263 0.961 . S
H2280 C2264 0.931 . S
H2281 C2269 0.930 . S
H2282 C2270 0.956 . S
H2283 C2270 0.961 . S
H2284 C2270 0.961 . S
H2285 C2271 0.958 . S
H2286 C2271 0.961 . S
H2287 C2271 0.960 . S
C2288 C2289 1.391 . S
C2288 C2290 1.394 . S
C2288 H2304 0.931 . S
C2289 C2288 1.391 . S
C2289 C2293 1.376 . S
C2290 C2288 1.394 . S
C2290 C2291 1.369 . S
C2290 C2294 1.531 . S
C2291 C2290 1.369 . S
C2291 C2292 1.410 . S
C2291 C2299 1.503 . S
C2292 C2291 1.410 . S
C2292 C2293 1.392 . S
C2292 C2295 1.511 . S
C2293 C2289 1.376 . S
C2293 C2292 1.392 . S
C2293 H2305 0.929 . S
C2294 C2290 1.531 . S
C2294 H2306 0.960 . S
C2294 H2307 0.962 . S
C2294 H2308 0.960 . S
C2295 C2292 1.511 . S
C2295 H2309 0.961 . S
C2295 H2310 0.961 . S
C2295 H2311 0.961 . S
C2296 C2297 1.370 . S
C2296 C2298 1.363 . S
C2296 H2312 0.931 . S
C2297 C2296 1.370 . S
C2297 C2301 1.408 . S
C2298 C2296 1.363 . S
C2298 C2299 1.370 . S
C2298 C2302 1.524 . S
C2299 C2291 1.503 . S
C2299 C2298 1.370 . S
C2299 C2300 1.403 . S
C2300 C2299 1.403 . S
C2300 C2301 1.404 . S
C2300 C2303 1.539 . S
C2301 C2297 1.408 . S
C2301 C2300 1.404 . S
C2301 H2313 0.930 . S
C2302 C2298 1.524 . S
C2302 H2314 0.956 . S
C2302 H2315 0.961 . S
C2302 H2316 0.961 . S
C2303 C2300 1.539 . S
C2303 H2317 0.958 . S
C2303 H2318 0.961 . S
C2303 H2319 0.960 . S
H2304 C2288 0.931 . S
H2305 C2293 0.929 . S
H2306 C2294 0.960 . S
H2307 C2294 0.962 . S
H2308 C2294 0.960 . S
H2309 C2295 0.961 . S
H2310 C2295 0.961 . S
H2311 C2295 0.961 . S
H2312 C2296 0.931 . S
H2313 C2301 0.930 . S
H2314 C2302 0.956 . S
H2315 C2302 0.961 . S
H2316 C2302 0.961 . S
H2317 C2303 0.958 . S
H2318 C2303 0.961 . S
H2319 C2303 0.960 . S
C2320 C2321 1.391 . S
C2320 C2322 1.394 . S
C2320 H2336 0.931 . S
C2321 C2320 1.391 . S
C2321 C2325 1.376 . S
C2322 C2320 1.394 . S
C2322 C2323 1.369 . S
C2322 C2326 1.531 . S
C2323 C2322 1.369 . S
C2323 C2324 1.410 . S
C2323 C2331 1.503 . S
C2324 C2323 1.410 . S
C2324 C2325 1.392 . S
C2324 C2327 1.511 . S
C2325 C2321 1.376 . S
C2325 C2324 1.392 . S
C2325 H2337 0.929 . S
C2326 C2322 1.531 . S
C2326 H2338 0.960 . S
C2326 H2339 0.962 . S
C2326 H2340 0.960 . S
C2327 C2324 1.511 . S
C2327 H2341 0.961 . S
C2327 H2342 0.961 . S
C2327 H2343 0.961 . S
C2328 C2329 1.370 . S
C2328 C2330 1.363 . S
C2328 H2344 0.931 . S
C2329 C2328 1.370 . S
C2329 C2333 1.408 . S
C2330 C2328 1.363 . S
C2330 C2331 1.370 . S
C2330 C2334 1.524 . S
C2331 C2323 1.503 . S
C2331 C2330 1.370 . S
C2331 C2332 1.403 . S
C2332 C2331 1.403 . S
C2332 C2333 1.404 . S
C2332 C2335 1.539 . S
C2333 C2329 1.408 . S
C2333 C2332 1.404 . S
C2333 H2345 0.930 . S
C2334 C2330 1.524 . S
C2334 H2346 0.956 . S
C2334 H2347 0.961 . S
C2334 H2348 0.961 . S
C2335 C2332 1.539 . S
C2335 H2349 0.958 . S
C2335 H2350 0.961 . S
C2335 H2351 0.960 . S
H2336 C2320 0.931 . S
H2337 C2325 0.929 . S
H2338 C2326 0.960 . S
H2339 C2326 0.962 . S
H2340 C2326 0.960 . S
H2341 C2327 0.961 . S
H2342 C2327 0.961 . S
H2343 C2327 0.961 . S
H2344 C2328 0.931 . S
H2345 C2333 0.930 . S
H2346 C2334 0.956 . S
H2347 C2334 0.961 . S
H2348 C2334 0.961 . S
H2349 C2335 0.958 . S
H2350 C2335 0.961 . S
H2351 C2335 0.960 . S
C2352 C2353 1.391 . S
C2352 C2354 1.394 . S
C2352 H2368 0.931 . S
C2353 C2352 1.391 . S
C2353 C2357 1.376 . S
C2354 C2352 1.394 . S
C2354 C2355 1.369 . S
C2354 C2358 1.531 . S
C2355 C2354 1.369 . S
C2355 C2356 1.410 . S
C2355 C2363 1.503 . S
C2356 C2355 1.410 . S
C2356 C2357 1.392 . S
C2356 C2359 1.511 . S
C2357 C2353 1.376 . S
C2357 C2356 1.392 . S
C2357 H2369 0.929 . S
C2358 C2354 1.531 . S
C2358 H2370 0.960 . S
C2358 H2371 0.962 . S
C2358 H2372 0.960 . S
C2359 C2356 1.511 . S
C2359 H2373 0.961 . S
C2359 H2374 0.961 . S
C2359 H2375 0.961 . S
C2360 C2361 1.370 . S
C2360 C2362 1.363 . S
C2360 H2376 0.931 . S
C2361 C2360 1.370 . S
C2361 C2365 1.408 . S
C2362 C2360 1.363 . S
C2362 C2363 1.370 . S
C2362 C2366 1.524 . S
C2363 C2355 1.503 . S
C2363 C2362 1.370 . S
C2363 C2364 1.403 . S
C2364 C2363 1.403 . S
C2364 C2365 1.404 . S
C2364 C2367 1.539 . S
C2365 C2361 1.408 . S
C2365 C2364 1.404 . S
C2365 H2377 0.930 . S
C2366 C2362 1.524 . S
C2366 H2378 0.956 . S
C2366 H2379 0.961 . S
C2366 H2380 0.961 . S
C2367 C2364 1.539 . S
C2367 H2381 0.958 . S
C2367 H2382 0.961 . S
C2367 H2383 0.960 . S
H2368 C2352 0.931 . S
H2369 C2357 0.929 . S
H2370 C2358 0.960 . S
H2371 C2358 0.962 . S
H2372 C2358 0.960 . S
H2373 C2359 0.961 . S
H2374 C2359 0.961 . S
H2375 C2359 0.961 . S
H2376 C2360 0.931 . S
H2377 C2365 0.930 . S
H2378 C2366 0.956 . S
H2379 C2366 0.961 . S
H2380 C2366 0.961 . S
H2381 C2367 0.958 . S
H2382 C2367 0.961 . S
H2383 C2367 0.960 . S
C2384 C2385 1.391 . S
C2384 C2386 1.394 . S
C2384 H2400 0.931 . S
C2385 C2384 1.391 . S
C2385 C2389 1.376 . S
C2386 C2384 1.394 . S
C2386 C2387 1.369 . S
C2386 C2390 1.531 . S
C2387 C2386 1.369 . S
C2387 C2388 1.410 . S
C2387 C2395 1.503 . S
C2388 C2387 1.410 . S
C2388 C2389 1.392 . S
C2388 C2391 1.511 . S
C2389 C2385 1.376 . S
C2389 C2388 1.392 . S
C2389 H2401 0.929 . S
C2390 C2386 1.531 . S
C2390 H2402 0.960 . S
C2390 H2403 0.962 . S
C2390 H2404 0.960 . S
C2391 C2388 1.511 . S
C2391 H2405 0.961 . S
C2391 H2406 0.961 . S
C2391 H2407 0.961 . S
C2392 C2393 1.370 . S
C2392 C2394 1.363 . S
C2392 H2408 0.931 . S
C2393 C2392 1.370 . S
C2393 C2397 1.408 . S
C2394 C2392 1.363 . S
C2394 C2395 1.370 . S
C2394 C2398 1.524 . S
C2395 C2387 1.503 . S
C2395 C2394 1.370 . S
C2395 C2396 1.403 . S
C2396 C2395 1.403 . S
C2396 C2397 1.404 . S
C2396 C2399 1.539 . S
C2397 C2393 1.408 . S
C2397 C2396 1.404 . S
C2397 H2409 0.930 . S
C2398 C2394 1.524 . S
C2398 H2410 0.956 . S
C2398 H2411 0.961 . S
C2398 H2412 0.961 . S
C2399 C2396 1.539 . S
C2399 H2413 0.958 . S
C2399 H2414 0.961 . S
C2399 H2415 0.960 . S
H2400 C2384 0.931 . S
H2401 C2389 0.929 . S
H2402 C2390 0.960 . S
H2403 C2390 0.962 . S
H2404 C2390 0.960 . S
H2405 C2391 0.961 . S
H2406 C2391 0.961 . S
H2407 C2391 0.961 . S
H2408 C2392 0.931 . S
H2409 C2397 0.930 . S
H2410 C2398 0.956 . S
H2411 C2398 0.961 . S
H2412 C2398 0.961 . S
H2413 C2399 0.958 . S
H2414 C2399 0.961 . S
H2415 C2399 0.960 . S
C2416 C2417 1.391 . S
C2416 C2418 1.394 . S
C2416 H2432 0.931 . S
C2417 C2416 1.391 . S
C2417 C2421 1.376 . S
C2418 C2416 1.394 . S
C2418 C2419 1.369 . S
C2418 C2422 1.531 . S
C2419 C2418 1.369 . S
C2419 C2420 1.410 . S
C2419 C2427 1.503 . S
C2420 C2419 1.410 . S
C2420 C2421 1.392 . S
C2420 C2423 1.511 . S
C2421 C2417 1.376 . S
C2421 C2420 1.392 . S
C2421 H2433 0.929 . S
C2422 C2418 1.531 . S
C2422 H2434 0.960 . S
C2422 H2435 0.962 . S
C2422 H2436 0.960 . S
C2423 C2420 1.511 . S
C2423 H2437 0.961 . S
C2423 H2438 0.961 . S
C2423 H2439 0.961 . S
C2424 C2425 1.370 . S
C2424 C2426 1.363 . S
C2424 H2440 0.931 . S
C2425 C2424 1.370 . S
C2425 C2429 1.408 . S
C2426 C2424 1.363 . S
C2426 C2427 1.370 . S
C2426 C2430 1.524 . S
C2427 C2419 1.503 . S
C2427 C2426 1.370 . S
C2427 C2428 1.403 . S
C2428 C2427 1.403 . S
C2428 C2429 1.404 . S
C2428 C2431 1.539 . S
C2429 C2425 1.408 . S
C2429 C2428 1.404 . S
C2429 H2441 0.930 . S
C2430 C2426 1.524 . S
C2430 H2442 0.956 . S
C2430 H2443 0.961 . S
C2430 H2444 0.961 . S
C2431 C2428 1.539 . S
C2431 H2445 0.958 . S
C2431 H2446 0.961 . S
C2431 H2447 0.960 . S
H2432 C2416 0.931 . S
H2433 C2421 0.929 . S
H2434 C2422 0.960 . S
H2435 C2422 0.962 . S
H2436 C2422 0.960 . S
H2437 C2423 0.961 . S
H2438 C2423 0.961 . S
H2439 C2423 0.961 . S
H2440 C2424 0.931 . S
H2441 C2429 0.930 . S
H2442 C2430 0.956 . S
H2443 C2430 0.961 . S
H2444 C2430 0.961 . S
H2445 C2431 0.958 . S
H2446 C2431 0.961 . S
H2447 C2431 0.960 . S
C2448 C2449 1.391 . S
C2448 C2450 1.394 . S
C2448 H2464 0.931 . S
C2449 C2448 1.391 . S
C2449 C2453 1.376 . S
C2450 C2448 1.394 . S
C2450 C2451 1.369 . S
C2450 C2454 1.531 . S
C2451 C2450 1.369 . S
C2451 C2452 1.410 . S
C2451 C2459 1.503 . S
C2452 C2451 1.410 . S
C2452 C2453 1.392 . S
C2452 C2455 1.511 . S
C2453 C2449 1.376 . S
C2453 C2452 1.392 . S
C2453 H2465 0.929 . S
C2454 C2450 1.531 . S
C2454 H2466 0.960 . S
C2454 H2467 0.962 . S
C2454 H2468 0.960 . S
C2455 C2452 1.511 . S
C2455 H2469 0.961 . S
C2455 H2470 0.961 . S
C2455 H2471 0.961 . S
C2456 C2457 1.370 . S
C2456 C2458 1.363 . S
C2456 H2472 0.931 . S
C2457 C2456 1.370 . S
C2457 C2461 1.408 . S
C2458 C2456 1.363 . S
C2458 C2459 1.370 . S
C2458 C2462 1.524 . S
C2459 C2451 1.503 . S
C2459 C2458 1.370 . S
C2459 C2460 1.403 . S
C2460 C2459 1.403 . S
C2460 C2461 1.404 . S
C2460 C2463 1.539 . S
C2461 C2457 1.408 . S
C2461 C2460 1.404 . S
C2461 H2473 0.930 . S
C2462 C2458 1.524 . S
C2462 H2474 0.956 . S
C2462 H2475 0.961 . S
C2462 H2476 0.961 . S
C2463 C2460 1.539 . S
C2463 H2477 0.958 . S
C2463 H2478 0.961 . S
C2463 H2479 0.960 . S
H2464 C2448 0.931 . S
H2465 C2453 0.929 . S
H2466 C2454 0.960 . S
H2467 C2454 0.962 . S
H2468 C2454 0.960 . S
H2469 C2455 0.961 . S
H2470 C2455 0.961 . S
H2471 C2455 0.961 . S
H2472 C2456 0.931 . S
H2473 C2461 0.930 . S
H2474 C2462 0.956 . S
H2475 C2462 0.961 . S
H2476 C2462 0.961 . S
H2477 C2463 0.958 . S
H2478 C2463 0.961 . S
H2479 C2463 0.960 . S
C2480 C2481 1.391 . S
C2480 C2482 1.394 . S
C2480 H2496 0.931 . S
C2481 C2480 1.391 . S
C2481 C2485 1.376 . S
C2482 C2480 1.394 . S
C2482 C2483 1.369 . S
C2482 C2486 1.531 . S
C2483 C2482 1.369 . S
C2483 C2484 1.410 . S
C2483 C2491 1.503 . S
C2484 C2483 1.410 . S
C2484 C2485 1.392 . S
C2484 C2487 1.511 . S
C2485 C2481 1.376 . S
C2485 C2484 1.392 . S
C2485 H2497 0.929 . S
C2486 C2482 1.531 . S
C2486 H2498 0.960 . S
C2486 H2499 0.962 . S
C2486 H2500 0.960 . S
C2487 C2484 1.511 . S
C2487 H2501 0.961 . S
C2487 H2502 0.961 . S
C2487 H2503 0.961 . S
C2488 C2489 1.370 . S
C2488 C2490 1.363 . S
C2488 H2504 0.931 . S
C2489 C2488 1.370 . S
C2489 C2493 1.408 . S
C2490 C2488 1.363 . S
C2490 C2491 1.370 . S
C2490 C2494 1.524 . S
C2491 C2483 1.503 . S
C2491 C2490 1.370 . S
C2491 C2492 1.403 . S
C2492 C2491 1.403 . S
C2492 C2493 1.404 . S
C2492 C2495 1.539 . S
C2493 C2489 1.408 . S
C2493 C2492 1.404 . S
C2493 H2505 0.930 . S
C2494 C2490 1.524 . S
C2494 H2506 0.956 . S
C2494 H2507 0.961 . S
C2494 H2508 0.961 . S
C2495 C2492 1.539 . S
C2495 H2509 0.958 . S
C2495 H2510 0.961 . S
C2495 H2511 0.960 . S
H2496 C2480 0.931 . S
H2497 C2485 0.929 . S
H2498 C2486 0.960 . S
H2499 C2486 0.962 . S
H2500 C2486 0.960 . S
H2501 C2487 0.961 . S
H2502 C2487 0.961 . S
H2503 C2487 0.961 . S
H2504 C2488 0.931 . S
H2505 C2493 0.930 . S
H2506 C2494 0.956 . S
H2507 C2494 0.961 . S
H2508 C2494 0.961 . S
H2509 C2495 0.958 . S
H2510 C2495 0.961 . S
H2511 C2495 0.960 . S
C2512 C2513 1.391 . S
C2512 C2514 1.394 . S
C2512 H2528 0.931 . S
C2513 C2512 1.391 . S
C2513 C2517 1.376 . S
C2514 C2512 1.394 . S
C2514 C2515 1.369 . S
C2514 C2518 1.531 . S
C2515 C2514 1.369 . S
C2515 C2516 1.410 . S
C2515 C2523 1.503 . S
C2516 C2515 1.410 . S
C2516 C2517 1.392 . S
C2516 C2519 1.511 . S
C2517 C2513 1.376 . S
C2517 C2516 1.392 . S
C2517 H2529 0.929 . S
C2518 C2514 1.531 . S
C2518 H2530 0.960 . S
C2518 H2531 0.962 . S
C2518 H2532 0.960 . S
C2519 C2516 1.511 . S
C2519 H2533 0.961 . S
C2519 H2534 0.961 . S
C2519 H2535 0.961 . S
C2520 C2521 1.370 . S
C2520 C2522 1.363 . S
C2520 H2536 0.931 . S
C2521 C2520 1.370 . S
C2521 C2525 1.408 . S
C2522 C2520 1.363 . S
C2522 C2523 1.370 . S
C2522 C2526 1.524 . S
C2523 C2515 1.503 . S
C2523 C2522 1.370 . S
C2523 C2524 1.403 . S
C2524 C2523 1.403 . S
C2524 C2525 1.404 . S
C2524 C2527 1.539 . S
C2525 C2521 1.408 . S
C2525 C2524 1.404 . S
C2525 H2537 0.930 . S
C2526 C2522 1.524 . S
C2526 H2538 0.956 . S
C2526 H2539 0.961 . S
C2526 H2540 0.961 . S
C2527 C2524 1.539 . S
C2527 H2541 0.958 . S
C2527 H2542 0.961 . S
C2527 H2543 0.960 . S
H2528 C2512 0.931 . S
H2529 C2517 0.929 . S
H2530 C2518 0.960 . S
H2531 C2518 0.962 . S
H2532 C2518 0.960 . S
H2533 C2519 0.961 . S
H2534 C2519 0.961 . S
H2535 C2519 0.961 . S
H2536 C2520 0.931 . S
H2537 C2525 0.930 . S
H2538 C2526 0.956 . S
H2539 C2526 0.961 . S
H2540 C2526 0.961 . S
H2541 C2527 0.958 . S
H2542 C2527 0.961 . S
H2543 C2527 0.960 . S
C2544 C2545 1.391 . S
C2544 C2546 1.394 . S
C2544 H2560 0.931 . S
C2545 C2544 1.391 . S
C2545 C2549 1.376 . S
C2546 C2544 1.394 . S
C2546 C2547 1.369 . S
C2546 C2550 1.531 . S
C2547 C2546 1.369 . S
C2547 C2548 1.410 . S
C2547 C2555 1.503 . S
C2548 C2547 1.410 . S
C2548 C2549 1.392 . S
C2548 C2551 1.511 . S
C2549 C2545 1.376 . S
C2549 C2548 1.392 . S
C2549 H2561 0.929 . S
C2550 C2546 1.531 . S
C2550 H2562 0.960 . S
C2550 H2563 0.962 . S
C2550 H2564 0.960 . S
C2551 C2548 1.511 . S
C2551 H2565 0.961 . S
C2551 H2566 0.961 . S
C2551 H2567 0.961 . S
C2552 C2553 1.370 . S
C2552 C2554 1.363 . S
C2552 H2568 0.931 . S
C2553 C2552 1.370 . S
C2553 C2557 1.408 . S
C2554 C2552 1.363 . S
C2554 C2555 1.370 . S
C2554 C2558 1.524 . S
C2555 C2547 1.503 . S
C2555 C2554 1.370 . S
C2555 C2556 1.403 . S
C2556 C2555 1.403 . S
C2556 C2557 1.404 . S
C2556 C2559 1.539 . S
C2557 C2553 1.408 . S
C2557 C2556 1.404 . S
C2557 H2569 0.930 . S
C2558 C2554 1.524 . S
C2558 H2570 0.956 . S
C2558 H2571 0.961 . S
C2558 H2572 0.961 . S
C2559 C2556 1.539 . S
C2559 H2573 0.958 . S
C2559 H2574 0.961 . S
C2559 H2575 0.960 . S
H2560 C2544 0.931 . S
H2561 C2549 0.929 . S
H2562 C2550 0.960 . S
H2563 C2550 0.962 . S
H2564 C2550 0.960 . S
H2565 C2551 0.961 . S
H2566 C2551 0.961 . S
H2567 C2551 0.961 . S
H2568 C2552 0.931 . S
H2569 C2557 0.930 . S
H2570 C2558 0.956 . S
H2571 C2558 0.961 . S
H2572 C2558 0.961 . S
H2573 C2559 0.958 . S
H2574 C2559 0.961 . S
H2575 C2559 0.960 . S
C2576 C2577 1.391 . S
C2576 C2578 1.394 . S
C2576 H2592 0.931 . S
C2577 C2576 1.391 . S
C2577 C2581 1.376 . S
C2578 C2576 1.394 . S
C2578 C2579 1.369 . S
C2578 C2582 1.531 . S
C2579 C2578 1.369 . S
C2579 C2580 1.410 . S
C2579 C2587 1.503 . S
C2580 C2579 1.410 . S
C2580 C2581 1.392 . S
C2580 C2583 1.511 . S
C2581 C2577 1.376 . S
C2581 C2580 1.392 . S
C2581 H2593 0.929 . S
C2582 C2578 1.531 . S
C2582 H2594 0.960 . S
C2582 H2595 0.962 . S
C2582 H2596 0.960 . S
C2583 C2580 1.511 . S
C2583 H2597 0.961 . S
C2583 H2598 0.961 . S
C2583 H2599 0.961 . S
C2584 C2585 1.370 . S
C2584 C2586 1.363 . S
C2584 H2600 0.931 . S
C2585 C2584 1.370 . S
C2585 C2589 1.408 . S
C2586 C2584 1.363 . S
C2586 C2587 1.370 . S
C2586 C2590 1.524 . S
C2587 C2579 1.503 . S
C2587 C2586 1.370 . S
C2587 C2588 1.403 . S
C2588 C2587 1.403 . S
C2588 C2589 1.404 . S
C2588 C2591 1.539 . S
C2589 C2585 1.408 . S
C2589 C2588 1.404 . S
C2589 H2601 0.930 . S
C2590 C2586 1.524 . S
C2590 H2602 0.956 . S
C2590 H2603 0.961 . S
C2590 H2604 0.961 . S
C2591 C2588 1.539 . S
C2591 H2605 0.958 . S
C2591 H2606 0.961 . S
C2591 H2607 0.960 . S
H2592 C2576 0.931 . S
H2593 C2581 0.929 . S
H2594 C2582 0.960 . S
H2595 C2582 0.962 . S
H2596 C2582 0.960 . S
H2597 C2583 0.961 . S
H2598 C2583 0.961 . S
H2599 C2583 0.961 . S
H2600 C2584 0.931 . S
H2601 C2589 0.930 . S
H2602 C2590 0.956 . S
H2603 C2590 0.961 . S
H2604 C2590 0.961 . S
H2605 C2591 0.958 . S
H2606 C2591 0.961 . S
H2607 C2591 0.960 . S
C2608 C2609 1.391 . S
C2608 C2610 1.394 . S
C2608 H2624 0.931 . S
C2609 C2608 1.391 . S
C2609 C2613 1.376 . S
C2610 C2608 1.394 . S
C2610 C2611 1.369 . S
C2610 C2614 1.531 . S
C2611 C2610 1.369 . S
C2611 C2612 1.410 . S
C2611 C2619 1.503 . S
C2612 C2611 1.410 . S
C2612 C2613 1.392 . S
C2612 C2615 1.511 . S
C2613 C2609 1.376 . S
C2613 C2612 1.392 . S
C2613 H2625 0.929 . S
C2614 C2610 1.531 . S
C2614 H2626 0.960 . S
C2614 H2627 0.962 . S
C2614 H2628 0.960 . S
C2615 C2612 1.511 . S
C2615 H2629 0.961 . S
C2615 H2630 0.961 . S
C2615 H2631 0.961 . S
C2616 C2617 1.370 . S
C2616 C2618 1.363 . S
C2616 H2632 0.931 . S
C2617 C2616 1.370 . S
C2617 C2621 1.408 . S
C2618 C2616 1.363 . S
C2618 C2619 1.370 . S
C2618 C2622 1.524 . S
C2619 C2611 1.503 . S
C2619 C2618 1.370 . S
C2619 C2620 1.403 . S
C2620 C2619 1.403 . S
C2620 C2621 1.404 . S
C2620 C2623 1.539 . S
C2621 C2617 1.408 . S
C2621 C2620 1.404 . S
C2621 H2633 0.930 . S
C2622 C2618 1.524 . S
C2622 H2634 0.956 . S
C2622 H2635 0.961 . S
C2622 H2636 0.961 . S
C2623 C2620 1.539 . S
C2623 H2637 0.958 . S
C2623 H2638 0.961 . S
C2623 H2639 0.960 . S
H2624 C2608 0.931 . S
H2625 C2613 0.929 . S
H2626 C2614 0.960 . S
H2627 C2614 0.962 . S
H2628 C2614 0.960 . S
H2629 C2615 0.961 . S
H2630 C2615 0.961 . S
H2631 C2615 0.961 . S
H2632 C2616 0.931 . S
H2633 C2621 0.930 . S
H2634 C2622 0.956 . S
H2635 C2622 0.961 . S
H2636 C2622 0.961 . S
H2637 C2623 0.958 . S
H2638 C2623 0.961 . S
H2639 C2623 0.960 . S
C2640 C2641 1.391 . S
C2640 C2642 1.394 . S
C2640 H2656 0.931 . S
C2641 C2640 1.391 . S
C2641 C2645 1.376 . S
C2642 C2640 1.394 . S
C2642 C2643 1.369 . S
C2642 C2646 1.531 . S
C2643 C2642 1.369 . S
C2643 C2644 1.410 . S
C2643 C2651 1.503 . S
C2644 C2643 1.410 . S
C2644 C2645 1.392 . S
C2644 C2647 1.511 . S
C2645 C2641 1.376 . S
C2645 C2644 1.392 . S
C2645 H2657 0.929 . S
C2646 C2642 1.531 . S
C2646 H2658 0.960 . S
C2646 H2659 0.962 . S
C2646 H2660 0.960 . S
C2647 C2644 1.511 . S
C2647 H2661 0.961 . S
C2647 H2662 0.961 . S
C2647 H2663 0.961 . S
C2648 C2649 1.370 . S
C2648 C2650 1.363 . S
C2648 H2664 0.931 . S
C2649 C2648 1.370 . S
C2649 C2653 1.408 . S
C2650 C2648 1.363 . S
C2650 C2651 1.370 . S
C2650 C2654 1.524 . S
C2651 C2643 1.503 . S
C2651 C2650 1.370 . S
C2651 C2652 1.403 . S
C2652 C2651 1.403 . S
C2652 C2653 1.404 . S
C2652 C2655 1.539 . S
C2653 C2649 1.408 . S
C2653 C2652 1.404 . S
C2653 H2665 0.930 . S
C2654 C2650 1.524 . S
C2654 H2666 0.956 . S
C2654 H2667 0.961 . S
C2654 H2668 0.961 . S
C2655 C2652 1.539 . S
C2655 H2669 0.958 . S
C2655 H2670 0.961 . S
C2655 H2671 0.960 . S
H2656 C2640 0.931 . S
H2657 C2645 0.929 . S
H2658 C2646 0.960 . S
H2659 C2646 0.962 . S
H2660 C2646 0.960 . S
H2661 C2647 0.961 . S
H2662 C2647 0.961 . S
H2663 C2647 0.961 . S
H2664 C2648 0.931 . S
H2665 C2653 0.930 . S
H2666 C2654 0.956 . S
H2667 C2654 0.961 . S
H2668 C2654 0.961 . S
H2669 C2655 0.958 . S
H2670 C2655 0.961 . S
H2671 C2655 0.960 . S
C2672 C2673 1.391 . S
C2672 C2674 1.394 . S
C2672 H2688 0.931 . S
C2673 C2672 1.391 . S
C2673 C2677 1.376 . S
C2674 C2672 1.394 . S
C2674 C2675 1.369 . S
C2674 C2678 1.531 . S
C2675 C2674 1.369 . S
C2675 C2676 1.410 . S
C2675 C2683 1.503 . S
C2676 C2675 1.410 . S
C2676 C2677 1.392 . S
C2676 C2679 1.511 . S
C2677 C2673 1.376 . S
C2677 C2676 1.392 . S
C2677 H2689 0.929 . S
C2678 C2674 1.531 . S
C2678 H2690 0.960 . S
C2678 H2691 0.962 . S
C2678 H2692 0.960 . S
C2679 C2676 1.511 . S
C2679 H2693 0.961 . S
C2679 H2694 0.961 . S
C2679 H2695 0.961 . S
C2680 C2681 1.370 . S
C2680 C2682 1.363 . S
C2680 H2696 0.931 . S
C2681 C2680 1.370 . S
C2681 C2685 1.408 . S
C2682 C2680 1.363 . S
C2682 C2683 1.370 . S
C2682 C2686 1.524 . S
C2683 C2675 1.503 . S
C2683 C2682 1.370 . S
C2683 C2684 1.403 . S
C2684 C2683 1.403 . S
C2684 C2685 1.404 . S
C2684 C2687 1.539 . S
C2685 C2681 1.408 . S
C2685 C2684 1.404 . S
C2685 H2697 0.930 . S
C2686 C2682 1.524 . S
C2686 H2698 0.956 . S
C2686 H2699 0.961 . S
C2686 H2700 0.961 . S
C2687 C2684 1.539 . S
C2687 H2701 0.958 . S
C2687 H2702 0.961 . S
C2687 H2703 0.960 . S
H2688 C2672 0.931 . S
H2689 C2677 0.929 . S
H2690 C2678 0.960 . S
H2691 C2678 0.962 . S
H2692 C2678 0.960 . S
H2693 C2679 0.961 . S
H2694 C2679 0.961 . S
H2695 C2679 0.961 . S
H2696 C2680 0.931 . S
H2697 C2685 0.930 . S
H2698 C2686 0.956 . S
H2699 C2686 0.961 . S
H2700 C2686 0.961 . S
H2701 C2687 0.958 . S
H2702 C2687 0.961 . S
H2703 C2687 0.960 . S
C2704 C2705 1.391 . S
C2704 C2706 1.394 . S
C2704 H2720 0.931 . S
C2705 C2704 1.391 . S
C2705 C2709 1.376 . S
C2706 C2704 1.394 . S
C2706 C2707 1.369 . S
C2706 C2710 1.531 . S
C2707 C2706 1.369 . S
C2707 C2708 1.410 . S
C2707 C2715 1.503 . S
C2708 C2707 1.410 . S
C2708 C2709 1.392 . S
C2708 C2711 1.511 . S
C2709 C2705 1.376 . S
C2709 C2708 1.392 . S
C2709 H2721 0.929 . S
C2710 C2706 1.531 . S
C2710 H2722 0.960 . S
C2710 H2723 0.962 . S
C2710 H2724 0.960 . S
C2711 C2708 1.511 . S
C2711 H2725 0.961 . S
C2711 H2726 0.961 . S
C2711 H2727 0.961 . S
C2712 C2713 1.370 . S
C2712 C2714 1.363 . S
C2712 H2728 0.931 . S
C2713 C2712 1.370 . S
C2713 C2717 1.408 . S
C2714 C2712 1.363 . S
C2714 C2715 1.370 . S
C2714 C2718 1.524 . S
C2715 C2707 1.503 . S
C2715 C2714 1.370 . S
C2715 C2716 1.403 . S
C2716 C2715 1.403 . S
C2716 C2717 1.404 . S
C2716 C2719 1.539 . S
C2717 C2713 1.408 . S
C2717 C2716 1.404 . S
C2717 H2729 0.930 . S
C2718 C2714 1.524 . S
C2718 H2730 0.956 . S
C2718 H2731 0.961 . S
C2718 H2732 0.961 . S
C2719 C2716 1.539 . S
C2719 H2733 0.958 . S
C2719 H2734 0.961 . S
C2719 H2735 0.960 . S
H2720 C2704 0.931 . S
H2721 C2709 0.929 . S
H2722 C2710 0.960 . S
H2723 C2710 0.962 . S
H2724 C2710 0.960 . S
H2725 C2711 0.961 . S
H2726 C2711 0.961 . S
H2727 C2711 0.961 . S
H2728 C2712 0.931 . S
H2729 C2717 0.930 . S
H2730 C2718 0.956 . S
H2731 C2718 0.961 . S
H2732 C2718 0.961 . S
H2733 C2719 0.958 . S
H2734 C2719 0.961 . S
H2735 C2719 0.960 . S
C2736 C2737 1.391 . S
C2736 C2738 1.394 . S
C2736 H2752 0.931 . S
C2737 C2736 1.391 . S
C2737 C2741 1.376 . S
C2738 C2736 1.394 . S
C2738 C2739 1.369 . S
C2738 C2742 1.531 . S
C2739 C2738 1.369 . S
C2739 C2740 1.410 . S
C2739 C2747 1.503 . S
C2740 C2739 1.410 . S
C2740 C2741 1.392 . S
C2740 C2743 1.511 . S
C2741 C2737 1.376 . S
C2741 C2740 1.392 . S
C2741 H2753 0.929 . S
C2742 C2738 1.531 . S
C2742 H2754 0.960 . S
C2742 H2755 0.962 . S
C2742 H2756 0.960 . S
C2743 C2740 1.511 . S
C2743 H2757 0.961 . S
C2743 H2758 0.961 . S
C2743 H2759 0.961 . S
C2744 C2745 1.370 . S
C2744 C2746 1.363 . S
C2744 H2760 0.931 . S
C2745 C2744 1.370 . S
C2745 C2749 1.408 . S
C2746 C2744 1.363 . S
C2746 C2747 1.370 . S
C2746 C2750 1.524 . S
C2747 C2739 1.503 . S
C2747 C2746 1.370 . S
C2747 C2748 1.403 . S
C2748 C2747 1.403 . S
C2748 C2749 1.404 . S
C2748 C2751 1.539 . S
C2749 C2745 1.408 . S
C2749 C2748 1.404 . S
C2749 H2761 0.930 . S
C2750 C2746 1.524 . S
C2750 H2762 0.956 . S
C2750 H2763 0.961 . S
C2750 H2764 0.961 . S
C2751 C2748 1.539 . S
C2751 H2765 0.958 . S
C2751 H2766 0.961 . S
C2751 H2767 0.960 . S
H2752 C2736 0.931 . S
H2753 C2741 0.929 . S
H2754 C2742 0.960 . S
H2755 C2742 0.962 . S
H2756 C2742 0.960 . S
H2757 C2743 0.961 . S
H2758 C2743 0.961 . S
H2759 C2743 0.961 . S
H2760 C2744 0.931 . S
H2761 C2749 0.930 . S
H2762 C2750 0.956 . S
H2763 C2750 0.961 . S
H2764 C2750 0.961 . S
H2765 C2751 0.958 . S
H2766 C2751 0.961 . S
H2767 C2751 0.960 . S
C2768 C2769 1.391 . S
C2768 C2770 1.394 . S
C2768 H2784 0.931 . S
C2769 C2768 1.391 . S
C2769 C2773 1.376 . S
C2770 C2768 1.394 . S
C2770 C2771 1.369 . S
C2770 C2774 1.531 . S
C2771 C2770 1.369 . S
C2771 C2772 1.410 . S
C2771 C2779 1.503 . S
C2772 C2771 1.410 . S
C2772 C2773 1.392 . S
C2772 C2775 1.511 . S
C2773 C2769 1.376 . S
C2773 C2772 1.392 . S
C2773 H2785 0.929 . S
C2774 C2770 1.531 . S
C2774 H2786 0.960 . S
C2774 H2787 0.962 . S
C2774 H2788 0.960 . S
C2775 C2772 1.511 . S
C2775 H2789 0.961 . S
C2775 H2790 0.961 . S
C2775 H2791 0.961 . S
C2776 C2777 1.370 . S
C2776 C2778 1.363 . S
C2776 H2792 0.931 . S
C2777 C2776 1.370 . S
C2777 C2781 1.408 . S
C2778 C2776 1.363 . S
C2778 C2779 1.370 . S
C2778 C2782 1.524 . S
C2779 C2771 1.503 . S
C2779 C2778 1.370 . S
C2779 C2780 1.403 . S
C2780 C2779 1.403 . S
C2780 C2781 1.404 . S
C2780 C2783 1.539 . S
C2781 C2777 1.408 . S
C2781 C2780 1.404 . S
C2781 H2793 0.930 . S
C2782 C2778 1.524 . S
C2782 H2794 0.956 . S
C2782 H2795 0.961 . S
C2782 H2796 0.961 . S
C2783 C2780 1.539 . S
C2783 H2797 0.958 . S
C2783 H2798 0.961 . S
C2783 H2799 0.960 . S
H2784 C2768 0.931 . S
H2785 C2773 0.929 . S
H2786 C2774 0.960 . S
H2787 C2774 0.962 . S
H2788 C2774 0.960 . S
H2789 C2775 0.961 . S
H2790 C2775 0.961 . S
H2791 C2775 0.961 . S
H2792 C2776 0.931 . S
H2793 C2781 0.930 . S
H2794 C2782 0.956 . S
H2795 C2782 0.961 . S
H2796 C2782 0.961 . S
H2797 C2783 0.958 . S
H2798 C2783 0.961 . S
H2799 C2783 0.960 . S
C2800 C2801 1.391 . S
C2800 C2802 1.394 . S
C2800 H2816 0.931 . S
C2801 C2800 1.391 . S
C2801 C2805 1.376 . S
C2802 C2800 1.394 . S
C2802 C2803 1.369 . S
C2802 C2806 1.531 . S
C2803 C2802 1.369 . S
C2803 C2804 1.410 . S
C2803 C2811 1.503 . S
C2804 C2803 1.410 . S
C2804 C2805 1.392 . S
C2804 C2807 1.511 . S
C2805 C2801 1.376 . S
C2805 C2804 1.392 . S
C2805 H2817 0.929 . S
C2806 C2802 1.531 . S
C2806 H2818 0.960 . S
C2806 H2819 0.962 . S
C2806 H2820 0.960 . S
C2807 C2804 1.511 . S
C2807 H2821 0.961 . S
C2807 H2822 0.961 . S
C2807 H2823 0.961 . S
C2808 C2809 1.370 . S
C2808 C2810 1.363 . S
C2808 H2824 0.931 . S
C2809 C2808 1.370 . S
C2809 C2813 1.408 . S
C2810 C2808 1.363 . S
C2810 C2811 1.370 . S
C2810 C2814 1.524 . S
C2811 C2803 1.503 . S
C2811 C2810 1.370 . S
C2811 C2812 1.403 . S
C2812 C2811 1.403 . S
C2812 C2813 1.404 . S
C2812 C2815 1.539 . S
C2813 C2809 1.408 . S
C2813 C2812 1.404 . S
C2813 H2825 0.930 . S
C2814 C2810 1.524 . S
C2814 H2826 0.956 . S
C2814 H2827 0.961 . S
C2814 H2828 0.961 . S
C2815 C2812 1.539 . S
C2815 H2829 0.958 . S
C2815 H2830 0.961 . S
C2815 H2831 0.960 . S
H2816 C2800 0.931 . S
H2817 C2805 0.929 . S
H2818 C2806 0.960 . S
H2819 C2806 0.962 . S
H2820 C2806 0.960 . S
H2821 C2807 0.961 . S
H2822 C2807 0.961 . S
H2823 C2807 0.961 . S
H2824 C2808 0.931 . S
H2825 C2813 0.930 . S
H2826 C2814 0.956 . S
H2827 C2814 0.961 . S
H2828 C2814 0.961 . S
H2829 C2815 0.958 . S
H2830 C2815 0.961 . S
H2831 C2815 0.960 . S
C2832 C2833 1.391 1_556 S
C2832 C2834 1.394 . S
C2832 H2848 0.931 . S
C2833 C2832 1.391 1_554 S
C2833 C2837 1.376 . S
C2834 C2832 1.394 . S
C2834 C2835 1.369 . S
C2834 C2838 1.531 . S
C2835 C2834 1.369 . S
C2835 C2836 1.410 1_556 S
C2835 C2843 1.503 . S
C2836 C2835 1.410 1_554 S
C2836 C2837 1.392 . S
C2836 C2839 1.511 . S
C2837 C2833 1.376 . S
C2837 C2836 1.392 . S
C2837 H2849 0.929 . S
C2838 C2834 1.531 . S
C2838 H2850 0.960 . S
C2838 H2851 0.962 . S
C2838 H2852 0.960 . S
C2839 C2836 1.511 . S
C2839 H2853 0.961 . S
C2839 H2854 0.961 . S
C2839 H2855 0.961 . S
C2840 C2841 1.370 . S
C2840 C2842 1.363 . S
C2840 H2856 0.931 . S
C2841 C2840 1.370 . S
C2841 C2845 1.408 . S
C2842 C2840 1.363 . S
C2842 C2843 1.370 . S
C2842 C2846 1.524 . S
C2843 C2835 1.503 . S
C2843 C2842 1.370 . S
C2843 C2844 1.403 . S
C2844 C2843 1.403 . S
C2844 C2845 1.404 . S
C2844 C2847 1.539 . S
C2845 C2841 1.408 . S
C2845 C2844 1.404 . S
C2845 H2857 0.930 . S
C2846 C2842 1.524 . S
C2846 H2858 0.956 . S
C2846 H2859 0.961 1_556 S
C2846 H2860 0.963 . S
C2847 C2844 1.539 . S
C2847 H2861 0.958 . S
C2847 H2862 0.961 . S
C2847 H2863 0.960 . S
H2848 C2832 0.931 . S
H2849 C2837 0.929 . S
H2850 C2838 0.960 . S
H2851 C2838 0.962 . S
H2852 C2838 0.960 . S
H2853 C2839 0.961 . S
H2854 C2839 0.961 . S
H2855 C2839 0.961 . S
H2856 C2840 0.931 . S
H2857 C2845 0.930 . S
H2858 C2846 0.956 . S
H2859 C2846 0.961 1_554 S
H2860 C2846 0.963 . S
H2861 C2847 0.958 . S
H2862 C2847 0.961 . S
H2863 C2847 0.960 . S
C2864 C2865 1.391 1_554 S
C2864 C2866 1.394 1_554 S
C2864 H2880 0.931 . S
C2865 C2864 1.391 1_556 S
C2865 C2869 1.376 . S
C2866 C2864 1.394 1_556 S
C2866 C2867 1.369 . S
C2866 C2870 1.531 1_556 S
C2867 C2866 1.369 . S
C2867 C2868 1.410 . S
C2867 C2875 1.503 . S
C2868 C2867 1.410 . S
C2868 C2869 1.392 . S
C2868 C2871 1.511 . S
C2869 C2865 1.376 . S
C2869 C2868 1.392 . S
C2869 H2881 0.929 . S
C2870 C2866 1.531 1_554 S
C2870 H2882 0.960 1_554 S
C2870 H2883 0.962 . S
C2870 H2884 0.960 . S
C2871 C2868 1.511 . S
C2871 H2885 0.961 . S
C2871 H2886 0.961 . S
C2871 H2887 0.961 . S
C2872 C2873 1.370 . S
C2872 C2874 1.363 . S
C2872 H2888 0.931 . S
C2873 C2872 1.370 . S
C2873 C2877 1.408 . S
C2874 C2872 1.363 . S
C2874 C2875 1.370 . S
C2874 C2878 1.524 . S
C2875 C2867 1.503 . S
C2875 C2874 1.370 . S
C2875 C2876 1.403 . S
C2876 C2875 1.403 . S
C2876 C2877 1.404 . S
C2876 C2879 1.539 . S
C2877 C2873 1.408 . S
C2877 C2876 1.404 . S
C2877 H2889 0.930 . S
C2878 C2874 1.524 . S
C2878 H2890 0.956 . S
C2878 H2891 0.961 . S
C2878 H2892 0.961 . S
C2879 C2876 1.539 . S
C2879 H2893 0.958 . S
C2879 H2894 0.961 . S
C2879 H2895 0.960 . S
H2880 C2864 0.931 . S
H2881 C2869 0.929 . S
H2882 C2870 0.960 1_556 S
H2883 C2870 0.962 . S
H2884 C2870 0.960 . S
H2885 C2871 0.961 . S
H2886 C2871 0.961 . S
H2887 C2871 0.961 . S
H2888 C2872 0.931 . S
H2889 C2877 0.930 . S
H2890 C2878 0.956 . S
H2891 C2878 0.961 . S
H2892 C2878 0.961 . S
H2893 C2879 0.958 . S
H2894 C2879 0.961 . S
H2895 C2879 0.960 . S
C2896 C2897 1.391 . S
C2896 C2898 1.394 . S
C2896 H2912 0.931 . S
C2897 C2896 1.391 . S
C2897 C2901 1.376 . S
C2898 C2896 1.394 . S
C2898 C2899 1.369 . S
C2898 C2902 1.531 . S
C2899 C2898 1.369 . S
C2899 C2900 1.410 . S
C2899 C2907 1.503 . S
C2900 C2899 1.410 . S
C2900 C2901 1.392 . S
C2900 C2903 1.511 1_554 S
C2901 C2897 1.376 . S
C2901 C2900 1.392 . S
C2901 H2913 0.929 . S
C2902 C2898 1.531 . S
C2902 H2914 0.960 . S
C2902 H2915 0.962 . S
C2902 H2916 0.960 . S
C2903 C2900 1.511 1_556 S
C2903 H2917 0.961 . S
C2903 H2918 0.961 . S
C2903 H2919 0.961 . S
C2904 C2905 1.370 . S
C2904 C2906 1.363 1_556 S
C2904 H2920 0.931 . S
C2905 C2904 1.370 . S
C2905 C2909 1.408 . S
C2906 C2904 1.363 1_554 S
C2906 C2907 1.370 . S
C2906 C2910 1.524 . S
C2907 C2899 1.503 . S
C2907 C2906 1.370 . S
C2907 C2908 1.403 . S
C2908 C2907 1.403 . S
C2908 C2909 1.404 1_554 S
C2908 C2911 1.539 . S
C2909 C2905 1.408 . S
C2909 C2908 1.404 1_556 S
C2909 H2921 0.930 . S
C2910 C2906 1.524 . S
C2910 H2922 0.956 . S
C2910 H2923 0.961 . S
C2910 H2924 0.961 . S
C2911 C2908 1.539 . S
C2911 H2925 0.958 . S
C2911 H2926 0.961 1_554 S
C2911 H2927 0.960 . S
H2912 C2896 0.931 . S
H2913 C2901 0.929 . S
H2914 C2902 0.960 . S
H2915 C2902 0.962 . S
H2916 C2902 0.960 . S
H2917 C2903 0.961 . S
H2918 C2903 0.961 . S
H2919 C2903 0.961 . S
H2920 C2904 0.931 . S
H2921 C2909 0.930 . S
H2922 C2910 0.956 . S
H2923 C2910 0.961 . S
H2924 C2910 0.961 . S
H2925 C2911 0.958 . S
H2926 C2911 0.961 1_556 S
H2927 C2911 0.960 . S
C2928 C2929 1.391 1_556 S
C2928 C2930 1.394 . S
C2928 H2944 0.931 . S
C2929 C2928 1.391 1_554 S
C2929 C2933 1.376 . S
C2930 C2928 1.394 . S
C2930 C2931 1.369 . S
C2930 C2934 1.531 . S
C2931 C2930 1.369 . S
C2931 C2932 1.410 1_556 S
C2931 C2939 1.503 . S
C2932 C2931 1.410 1_554 S
C2932 C2933 1.392 . S
C2932 C2935 1.511 . S
C2933 C2929 1.376 . S
C2933 C2932 1.392 . S
C2933 H2945 0.929 . S
C2934 C2930 1.531 . S
C2934 H2946 0.960 . S
C2934 H2947 0.962 . S
C2934 H2948 0.960 . S
C2935 C2932 1.511 . S
C2935 H2949 0.961 . S
C2935 H2950 0.961 . S
C2935 H2951 0.961 . S
C2936 C2937 1.370 . S
C2936 C2938 1.363 . S
C2936 H2952 0.931 . S
C2937 C2936 1.370 . S
C2937 C2941 1.408 . S
C2938 C2936 1.363 . S
C2938 C2939 1.370 . S
C2938 C2942 1.524 . S
C2939 C2931 1.503 . S
C2939 C2938 1.370 . S
C2939 C2940 1.403 . S
C2940 C2939 1.403 . S
C2940 C2941 1.404 . S
C2940 C2943 1.539 . S
C2941 C2937 1.408 . S
C2941 C2940 1.404 . S
C2941 H2953 0.930 . S
C2942 C2938 1.524 . S
C2942 H2954 0.956 . S
C2942 H2955 0.961 1_556 S
C2942 H2956 0.961 . S
C2943 C2940 1.539 . S
C2943 H2957 0.958 . S
C2943 H2958 0.961 . S
C2943 H2959 0.960 . S
H2944 C2928 0.931 . S
H2945 C2933 0.929 . S
H2946 C2934 0.960 . S
H2947 C2934 0.962 . S
H2948 C2934 0.960 . S
H2949 C2935 0.961 . S
H2950 C2935 0.961 . S
H2951 C2935 0.961 . S
H2952 C2936 0.931 . S
H2953 C2941 0.930 . S
H2954 C2942 0.956 . S
H2955 C2942 0.961 1_554 S
H2956 C2942 0.961 . S
H2957 C2943 0.958 . S
H2958 C2943 0.961 . S
H2959 C2943 0.960 . S
C2960 C2961 1.391 . S
C2960 C2962 1.394 . S
C2960 H2976 0.931 . S
C2961 C2960 1.391 . S
C2961 C2965 1.376 . S
C2962 C2960 1.394 . S
C2962 C2963 1.369 . S
C2962 C2966 1.531 . S
C2963 C2962 1.369 . S
C2963 C2964 1.410 . S
C2963 C2971 1.503 . S
C2964 C2963 1.410 . S
C2964 C2965 1.392 . S
C2964 C2967 1.511 . S
C2965 C2961 1.376 . S
C2965 C2964 1.392 . S
C2965 H2977 0.904 1_556 S
C2966 C2962 1.531 . S
C2966 H2978 0.960 . S
C2966 H2979 0.962 . S
C2966 H2980 0.960 . S
C2967 C2964 1.511 . S
C2967 H2981 0.996 . S
C2967 H2982 0.961 . S
C2967 H2983 0.961 . S
C2968 C2969 1.370 . S
C2968 C2970 1.363 . S
C2968 H2984 0.931 . S
C2969 C2968 1.370 . S
C2969 C2973 1.408 . S
C2970 C2968 1.363 . S
C2970 C2971 1.370 . S
C2970 C2974 1.524 . S
C2971 C2963 1.503 . S
C2971 C2970 1.370 . S
C2971 C2972 1.403 . S
C2972 C2971 1.403 . S
C2972 C2973 1.404 . S
C2972 C2975 1.539 . S
C2973 C2969 1.408 . S
C2973 C2972 1.404 . S
C2973 H2985 0.930 . S
C2974 C2970 1.524 . S
C2974 H2986 0.956 . S
C2974 H2987 0.961 . S
C2974 H2988 0.961 . S
C2975 C2972 1.539 . S
C2975 H2989 0.958 . S
C2975 H2990 0.961 . S
C2975 H2991 0.960 . S
H2976 C2960 0.931 . S
H2977 C2965 0.904 1_554 S
H2978 C2966 0.960 . S
H2979 C2966 0.962 . S
H2980 C2966 0.960 . S
H2981 C2967 0.996 . S
H2982 C2967 0.961 . S
H2983 C2967 0.961 . S
H2984 C2968 0.931 . S
H2985 C2973 0.930 . S
H2986 C2974 0.956 . S
H2987 C2974 0.961 . S
H2988 C2974 0.961 . S
H2989 C2975 0.958 . S
H2990 C2975 0.961 . S
H2991 C2975 0.960 . S
C2992 C2993 1.391 . S
C2992 C2994 1.394 . S
C2992 H3008 0.931 . S
C2993 C2992 1.391 . S
C2993 C2997 1.376 . S
C2994 C2992 1.394 . S
C2994 C2995 1.369 . S
C2994 C2998 1.531 . S
C2995 C2994 1.369 . S
C2995 C2996 1.410 1_554 S
C2995 C3003 1.503 1_554 S
C2996 C2995 1.410 1_556 S
C2996 C2997 1.392 1_556 S
C2996 C2999 1.511 . S
C2997 C2993 1.376 . S
C2997 C2996 1.392 1_554 S
C2997 H3009 0.914 1_554 S
C2998 C2994 1.531 . S
C2998 H3010 0.960 . S
C2998 H3011 0.962 . S
C2998 H3012 0.960 . S
C2999 C2996 1.511 . S
C2999 H3013 0.961 . S
C2999 H3014 0.961 . S
C2999 H3015 0.961 . S
C3000 C3001 1.370 . S
C3000 C3002 1.363 . S
C3000 H3016 0.931 . S
C3001 C3000 1.370 . S
C3001 C3005 1.408 . S
C3002 C3000 1.363 . S
C3002 C3003 1.370 . S
C3002 C3006 1.524 . S
C3003 C2995 1.503 1_556 S
C3003 C3002 1.370 . S
C3003 C3004 1.403 . S
C3004 C3003 1.403 . S
C3004 C3005 1.404 . S
C3004 C3007 1.539 1_556 S
C3005 C3001 1.408 . S
C3005 C3004 1.404 . S
C3005 H3017 0.930 . S
C3006 C3002 1.524 . S
C3006 H3018 0.956 . S
C3006 H3019 0.961 . S
C3006 H3020 0.961 . S
C3007 C3004 1.539 1_554 S
C3007 H3021 0.958 . S
C3007 H3022 0.961 . S
C3007 H3023 0.960 . S
H3008 C2992 0.931 . S
H3009 C2997 0.914 1_556 S
H3010 C2998 0.960 . S
H3011 C2998 0.962 . S
H3012 C2998 0.960 . S
H3013 C2999 0.961 . S
H3014 C2999 0.961 . S
H3015 C2999 0.961 . S
H3016 C3000 0.931 . S
H3017 C3005 0.930 . S
H3018 C3006 0.956 . S
H3019 C3006 0.961 . S
H3020 C3006 0.961 . S
H3021 C3007 0.958 . S
H3022 C3007 0.961 . S
H3023 C3007 0.960 . S
C3024 C3025 1.391 . S
C3024 C3026 1.394 . S
C3024 H3040 0.931 . S
C3025 C3024 1.391 . S
C3025 C3029 1.376 . S
C3026 C3024 1.394 . S
C3026 C3027 1.369 . S
C3026 C3030 1.531 . S
C3027 C3026 1.369 . S
C3027 C3028 1.410 . S
C3027 C3035 1.503 . S
C3028 C3027 1.410 . S
C3028 C3029 1.392 . S
C3028 C3031 1.511 . S
C3029 C3025 1.376 . S
C3029 C3028 1.392 . S
C3029 H3041 0.929 . S
C3030 C3026 1.531 . S
C3030 H3042 0.960 . S
C3030 H3043 0.962 . S
C3030 H3044 0.960 . S
C3031 C3028 1.511 . S
C3031 H3045 0.961 . S
C3031 H3046 0.961 . S
C3031 H3047 0.961 . S
C3032 C3033 1.370 . S
C3032 C3034 1.363 . S
C3032 H3048 0.931 . S
C3033 C3032 1.370 . S
C3033 C3037 1.408 . S
C3034 C3032 1.363 . S
C3034 C3035 1.370 . S
C3034 C3038 1.524 . S
C3035 C3027 1.503 . S
C3035 C3034 1.370 . S
C3035 C3036 1.403 . S
C3036 C3035 1.403 . S
C3036 C3037 1.404 . S
C3036 C3039 1.539 . S
C3037 C3033 1.408 . S
C3037 C3036 1.404 . S
C3037 H3049 0.930 . S
C3038 C3034 1.524 . S
C3038 H3050 0.956 . S
C3038 H3051 0.961 . S
C3038 H3052 0.961 . S
C3039 C3036 1.539 . S
C3039 H3053 0.958 . S
C3039 H3054 0.961 . S
C3039 H3055 0.960 . S
H3040 C3024 0.931 . S
H3041 C3029 0.929 . S
H3042 C3030 0.960 . S
H3043 C3030 0.962 . S
H3044 C3030 0.960 . S
H3045 C3031 0.961 . S
H3046 C3031 0.961 . S
H3047 C3031 0.961 . S
H3048 C3032 0.931 . S
H3049 C3037 0.930 . S
H3050 C3038 0.956 . S
H3051 C3038 0.961 . S
H3052 C3038 0.961 . S
H3053 C3039 0.958 . S
H3054 C3039 0.961 . S
H3055 C3039 0.960 . S
C3056 C3057 1.391 . S
C3056 C3058 1.394 . S
C3056 H3072 0.931 . S
C3057 C3056 1.391 . S
C3057 C3061 1.376 . S
C3058 C3056 1.394 . S
C3058 C3059 1.369 . S
C3058 C3062 1.531 . S
C3059 C3058 1.369 . S
C3059 C3060 1.410 . S
C3059 C3067 1.503 . S
C3060 C3059 1.410 . S
C3060 C3061 1.392 . S
C3060 C3063 1.511 . S
C3061 C3057 1.376 . S
C3061 C3060 1.392 . S
C3061 H3073 0.929 . S
C3062 C3058 1.531 . S
C3062 H3074 0.960 . S
C3062 H3075 0.962 . S
C3062 H3076 0.960 . S
C3063 C3060 1.511 . S
C3063 H3077 0.961 . S
C3063 H3078 0.961 . S
C3063 H3079 0.961 . S
C3064 C3065 1.370 . S
C3064 C3066 1.363 . S
C3064 H3080 0.931 . S
C3065 C3064 1.370 . S
C3065 C3069 1.408 . S
C3066 C3064 1.363 . S
C3066 C3067 1.370 . S
C3066 C3070 1.524 . S
C3067 C3059 1.503 . S
C3067 C3066 1.370 . S
C3067 C3068 1.403 . S
C3068 C3067 1.403 . S
C3068 C3069 1.404 . S
C3068 C3071 1.539 . S
C3069 C3065 1.408 . S
C3069 C3068 1.404 . S
C3069 H3081 0.930 . S
C3070 C3066 1.524 . S
C3070 H3082 0.956 . S
C3070 H3083 0.961 . S
C3070 H3084 0.961 . S
C3071 C3068 1.539 . S
C3071 H3085 0.958 . S
C3071 H3086 0.961 . S
C3071 H3087 0.960 . S
H3072 C3056 0.931 . S
H3073 C3061 0.929 . S
H3074 C3062 0.960 . S
H3075 C3062 0.962 . S
H3076 C3062 0.960 . S
H3077 C3063 0.961 . S
H3078 C3063 0.961 . S
H3079 C3063 0.961 . S
H3080 C3064 0.931 . S
H3081 C3069 0.930 . S
H3082 C3070 0.956 . S
H3083 C3070 0.961 . S
H3084 C3070 0.961 . S
H3085 C3071 0.958 . S
H3086 C3071 0.961 . S
H3087 C3071 0.960 . S
C3088 C3089 1.391 . S
C3088 C3090 1.394 . S
C3088 H3104 0.931 . S
C3089 C3088 1.391 . S
C3089 C3093 1.376 . S
C3090 C3088 1.394 . S
C3090 C3091 1.369 . S
C3090 C3094 1.531 . S
C3091 C3090 1.369 . S
C3091 C3092 1.410 . S
C3091 C3099 1.503 . S
C3092 C3091 1.410 . S
C3092 C3093 1.392 . S
C3092 C3095 1.511 . S
C3093 C3089 1.376 . S
C3093 C3092 1.392 . S
C3093 H3105 0.929 . S
C3094 C3090 1.531 . S
C3094 H3106 0.960 . S
C3094 H3107 0.962 . S
C3094 H3108 0.960 . S
C3095 C3092 1.511 . S
C3095 H3109 0.961 . S
C3095 H3110 0.961 . S
C3095 H3111 0.961 . S
C3096 C3097 1.370 . S
C3096 C3098 1.363 . S
C3096 H3112 0.931 . S
C3097 C3096 1.370 . S
C3097 C3101 1.408 . S
C3098 C3096 1.363 . S
C3098 C3099 1.370 . S
C3098 C3102 1.524 . S
C3099 C3091 1.503 . S
C3099 C3098 1.370 . S
C3099 C3100 1.403 . S
C3100 C3099 1.403 . S
C3100 C3101 1.404 . S
C3100 C3103 1.539 . S
C3101 C3097 1.408 . S
C3101 C3100 1.404 . S
C3101 H3113 0.930 . S
C3102 C3098 1.524 . S
C3102 H3114 0.956 . S
C3102 H3115 0.961 . S
C3102 H3116 0.961 . S
C3103 C3100 1.539 . S
C3103 H3117 0.958 . S
C3103 H3118 0.961 . S
C3103 H3119 0.960 . S
H3104 C3088 0.931 . S
H3105 C3093 0.929 . S
H3106 C3094 0.960 . S
H3107 C3094 0.962 . S
H3108 C3094 0.960 . S
H3109 C3095 0.961 . S
H3110 C3095 0.961 . S
H3111 C3095 0.961 . S
H3112 C3096 0.931 . S
H3113 C3101 0.930 . S
H3114 C3102 0.956 . S
H3115 C3102 0.961 . S
H3116 C3102 0.961 . S
H3117 C3103 0.958 . S
H3118 C3103 0.961 . S
H3119 C3103 0.960 . S
C3120 C3121 1.391 . S
C3120 C3122 1.394 . S
C3120 H3136 0.931 . S
C3121 C3120 1.391 . S
C3121 C3125 1.376 . S
C3122 C3120 1.394 . S
C3122 C3123 1.369 . S
C3122 C3126 1.531 . S
C3123 C3122 1.369 . S
C3123 C3124 1.410 . S
C3123 C3131 1.503 . S
C3124 C3123 1.410 . S
C3124 C3125 1.392 . S
C3124 C3127 1.511 . S
C3125 C3121 1.376 . S
C3125 C3124 1.392 . S
C3125 H3137 0.929 . S
C3126 C3122 1.531 . S
C3126 H3138 0.960 . S
C3126 H3139 0.962 . S
C3126 H3140 0.960 . S
C3127 C3124 1.511 . S
C3127 H3141 0.961 . S
C3127 H3142 0.961 . S
C3127 H3143 0.961 . S
C3128 C3129 1.370 . S
C3128 C3130 1.363 . S
C3128 H3144 0.931 . S
C3129 C3128 1.370 . S
C3129 C3133 1.408 . S
C3130 C3128 1.363 . S
C3130 C3131 1.370 . S
C3130 C3134 1.524 . S
C3131 C3123 1.503 . S
C3131 C3130 1.370 . S
C3131 C3132 1.403 . S
C3132 C3131 1.403 . S
C3132 C3133 1.404 . S
C3132 C3135 1.539 . S
C3133 C3129 1.408 . S
C3133 C3132 1.404 . S
C3133 H3145 0.930 . S
C3134 C3130 1.524 . S
C3134 H3146 0.956 . S
C3134 H3147 0.961 . S
C3134 H3148 0.961 . S
C3135 C3132 1.539 . S
C3135 H3149 0.958 . S
C3135 H3150 0.961 . S
C3135 H3151 0.960 . S
H3136 C3120 0.931 . S
H3137 C3125 0.929 . S
H3138 C3126 0.960 . S
H3139 C3126 0.962 . S
H3140 C3126 0.960 . S
H3141 C3127 0.961 . S
H3142 C3127 0.961 . S
H3143 C3127 0.961 . S
H3144 C3128 0.931 . S
H3145 C3133 0.930 . S
H3146 C3134 0.956 . S
H3147 C3134 0.961 . S
H3148 C3134 0.961 . S
H3149 C3135 0.958 . S
H3150 C3135 0.961 . S
H3151 C3135 0.960 . S
C3152 C3153 1.391 . S
C3152 C3154 1.394 . S
C3152 H3168 0.931 . S
C3153 C3152 1.391 . S
C3153 C3157 1.376 . S
C3154 C3152 1.394 . S
C3154 C3155 1.369 . S
C3154 C3158 1.531 . S
C3155 C3154 1.369 . S
C3155 C3156 1.410 . S
C3155 C3163 1.503 . S
C3156 C3155 1.410 . S
C3156 C3157 1.392 . S
C3156 C3159 1.511 . S
C3157 C3153 1.376 . S
C3157 C3156 1.392 . S
C3157 H3169 0.929 . S
C3158 C3154 1.531 . S
C3158 H3170 0.960 . S
C3158 H3171 0.962 . S
C3158 H3172 0.960 . S
C3159 C3156 1.511 . S
C3159 H3173 0.961 . S
C3159 H3174 0.961 . S
C3159 H3175 0.961 . S
C3160 C3161 1.370 . S
C3160 C3162 1.363 . S
C3160 H3176 0.931 . S
C3161 C3160 1.370 . S
C3161 C3165 1.408 . S
C3162 C3160 1.363 . S
C3162 C3163 1.370 . S
C3162 C3166 1.524 . S
C3163 C3155 1.503 . S
C3163 C3162 1.370 . S
C3163 C3164 1.403 . S
C3164 C3163 1.403 . S
C3164 C3165 1.404 . S
C3164 C3167 1.539 . S
C3165 C3161 1.408 . S
C3165 C3164 1.404 . S
C3165 H3177 0.930 . S
C3166 C3162 1.524 . S
C3166 H3178 0.956 . S
C3166 H3179 0.961 . S
C3166 H3180 0.961 . S
C3167 C3164 1.539 . S
C3167 H3181 0.958 . S
C3167 H3182 0.961 . S
C3167 H3183 0.960 . S
H3168 C3152 0.931 . S
H3169 C3157 0.929 . S
H3170 C3158 0.960 . S
H3171 C3158 0.962 . S
H3172 C3158 0.960 . S
H3173 C3159 0.961 . S
H3174 C3159 0.961 . S
H3175 C3159 0.961 . S
H3176 C3160 0.931 . S
H3177 C3165 0.930 . S
H3178 C3166 0.956 . S
H3179 C3166 0.961 . S
H3180 C3166 0.961 . S
H3181 C3167 0.958 . S
H3182 C3167 0.961 . S
H3183 C3167 0.960 . S
C3184 C3185 1.391 . S
C3184 C3186 1.394 1_455 S
C3184 H3200 0.931 . S
C3185 C3184 1.391 . S
C3185 C3189 1.376 1_455 S
C3186 C3184 1.394 1_655 S
C3186 C3187 1.369 . S
C3186 C3190 1.531 . S
C3187 C3186 1.369 . S
C3187 C3188 1.410 . S
C3187 C3195 1.503 . S
C3188 C3187 1.410 . S
C3188 C3189 1.392 . S
C3188 C3191 1.511 . S
C3189 C3185 1.376 1_655 S
C3189 C3188 1.392 . S
C3189 H3201 0.929 . S
C3190 C3186 1.531 . S
C3190 H3202 0.960 . S
C3190 H3203 0.962 . S
C3190 H3204 0.960 . S
C3191 C3188 1.511 . S
C3191 H3205 0.961 . S
C3191 H3206 0.961 . S
C3191 H3207 0.961 . S
C3192 C3193 1.370 . S
C3192 C3194 1.363 . S
C3192 H3208 0.931 . S
C3193 C3192 1.370 . S
C3193 C3197 1.408 . S
C3194 C3192 1.363 . S
C3194 C3195 1.370 . S
C3194 C3198 1.524 . S
C3195 C3187 1.503 . S
C3195 C3194 1.370 . S
C3195 C3196 1.403 . S
C3196 C3195 1.403 . S
C3196 C3197 1.404 . S
C3196 C3199 1.539 . S
C3197 C3193 1.408 . S
C3197 C3196 1.404 . S
C3197 H3209 0.930 . S
C3198 C3194 1.524 . S
C3198 H3210 0.956 . S
C3198 H3211 0.961 . S
C3198 H3212 0.961 . S
C3199 C3196 1.539 . S
C3199 H3213 0.958 . S
C3199 H3214 0.961 . S
C3199 H3215 0.960 . S
H3200 C3184 0.931 . S
H3201 C3189 0.929 . S
H3202 C3190 0.960 . S
H3203 C3190 0.962 . S
H3204 C3190 0.960 . S
H3205 C3191 0.961 . S
H3206 C3191 0.961 . S
H3207 C3191 0.961 . S
H3208 C3192 0.931 . S
H3209 C3197 0.930 . S
H3210 C3198 0.956 . S
H3211 C3198 0.961 . S
H3212 C3198 0.961 . S
H3213 C3199 0.958 . S
H3214 C3199 0.961 . S
H3215 C3199 0.960 . S
C3216 C3217 1.391 . S
C3216 C3218 1.394 . S
C3216 H3232 0.931 . S
C3217 C3216 1.391 . S
C3217 C3221 1.376 . S
C3218 C3216 1.394 . S
C3218 C3219 1.369 . S
C3218 C3222 1.531 . S
C3219 C3218 1.369 . S
C3219 C3220 1.410 . S
C3219 C3227 1.503 . S
C3220 C3219 1.410 . S
C3220 C3221 1.392 . S
C3220 C3223 1.511 . S
C3221 C3217 1.376 . S
C3221 C3220 1.392 . S
C3221 H3233 0.929 . S
C3222 C3218 1.531 . S
C3222 H3234 0.960 . S
C3222 H3235 0.975 . S
C3222 H3236 0.960 . S
C3223 C3220 1.511 . S
C3223 H3237 0.961 . S
C3223 H3238 0.961 . S
C3223 H3239 0.961 . S
C3224 C3225 1.370 . S
C3224 C3226 1.363 . S
C3224 H3240 0.931 . S
C3225 C3224 1.370 . S
C3225 C3229 1.408 . S
C3226 C3224 1.363 . S
C3226 C3227 1.370 . S
C3226 C3230 1.524 . S
C3227 C3219 1.503 . S
C3227 C3226 1.370 . S
C3227 C3228 1.403 . S
C3228 C3227 1.403 . S
C3228 C3229 1.404 . S
C3228 C3231 1.539 . S
C3229 C3225 1.408 . S
C3229 C3228 1.404 . S
C3229 H3241 0.930 . S
C3230 C3226 1.524 . S
C3230 H3242 0.956 . S
C3230 H3243 0.961 . S
C3230 H3244 0.961 . S
C3231 C3228 1.539 . S
C3231 H3245 0.958 . S
C3231 H3246 0.961 . S
C3231 H3247 0.960 . S
H3232 C3216 0.931 . S
H3233 C3221 0.929 . S
H3234 C3222 0.960 . S
H3235 C3222 0.975 . S
H3236 C3222 0.960 . S
H3237 C3223 0.961 . S
H3238 C3223 0.961 . S
H3239 C3223 0.961 . S
H3240 C3224 0.931 . S
H3241 C3229 0.930 . S
H3242 C3230 0.956 . S
H3243 C3230 0.961 . S
H3244 C3230 0.961 . S
H3245 C3231 0.958 . S
H3246 C3231 0.961 . S
H3247 C3231 0.960 . S
C3248 C3249 1.391 . S
C3248 C3250 1.394 . S
C3248 H3264 0.931 . S
C3249 C3248 1.391 . S
C3249 C3253 1.376 . S
C3250 C3248 1.394 . S
C3250 C3251 1.369 . S
C3250 C3254 1.531 . S
C3251 C3250 1.369 . S
C3251 C3252 1.410 . S
C3251 C3259 1.503 . S
C3252 C3251 1.410 . S
C3252 C3253 1.392 . S
C3252 C3255 1.511 . S
C3253 C3249 1.376 . S
C3253 C3252 1.392 . S
C3253 H3265 0.929 . S
C3254 C3250 1.531 . S
C3254 H3266 0.960 . S
C3254 H3267 0.962 . S
C3254 H3268 0.960 . S
C3255 C3252 1.511 . S
C3255 H3269 0.961 . S
C3255 H3270 0.961 . S
C3255 H3271 0.961 . S
C3256 C3257 1.370 . S
C3256 C3258 1.363 . S
C3256 H3272 0.931 . S
C3257 C3256 1.370 . S
C3257 C3261 1.408 . S
C3258 C3256 1.363 . S
C3258 C3259 1.370 . S
C3258 C3262 1.524 . S
C3259 C3251 1.503 . S
C3259 C3258 1.370 . S
C3259 C3260 1.403 . S
C3260 C3259 1.403 . S
C3260 C3261 1.404 . S
C3260 C3263 1.539 . S
C3261 C3257 1.408 . S
C3261 C3260 1.404 . S
C3261 H3273 0.930 . S
C3262 C3258 1.524 . S
C3262 H3274 0.956 . S
C3262 H3275 0.961 . S
C3262 H3276 0.961 . S
C3263 C3260 1.539 . S
C3263 H3277 0.958 . S
C3263 H3278 0.961 . S
C3263 H3279 0.960 . S
H3264 C3248 0.931 . S
H3265 C3253 0.929 . S
H3266 C3254 0.960 . S
H3267 C3254 0.962 . S
H3268 C3254 0.960 . S
H3269 C3255 0.961 . S
H3270 C3255 0.961 . S
H3271 C3255 0.961 . S
H3272 C3256 0.931 . S
H3273 C3261 0.930 . S
H3274 C3262 0.956 . S
H3275 C3262 0.961 . S
H3276 C3262 0.961 . S
H3277 C3263 0.958 . S
H3278 C3263 0.961 . S
H3279 C3263 0.960 . S
C3280 C3281 1.391 . S
C3280 C3282 1.394 . S
C3280 H3296 0.931 . S
C3281 C3280 1.391 . S
C3281 C3285 1.376 . S
C3282 C3280 1.394 . S
C3282 C3283 1.369 . S
C3282 C3286 1.531 . S
C3283 C3282 1.369 . S
C3283 C3284 1.410 . S
C3283 C3291 1.503 . S
C3284 C3283 1.410 . S
C3284 C3285 1.392 . S
C3284 C3287 1.549 . S
C3285 C3281 1.376 . S
C3285 C3284 1.392 . S
C3285 H3297 0.929 . S
C3286 C3282 1.531 . S
C3286 H3298 0.960 . S
C3286 H3299 0.962 . S
C3286 H3300 0.960 . S
C3287 C3284 1.549 . S
C3287 H3301 0.914 1_565 S
C3287 H3302 0.974 1_565 S
C3287 H3303 0.960 . S
C3288 C3289 1.370 . S
C3288 C3290 1.363 . S
C3288 H3304 0.931 . S
C3289 C3288 1.370 . S
C3289 C3293 1.408 . S
C3290 C3288 1.363 . S
C3290 C3291 1.370 . S
C3290 C3294 1.524 . S
C3291 C3283 1.503 . S
C3291 C3290 1.370 . S
C3291 C3292 1.403 . S
C3292 C3291 1.403 . S
C3292 C3293 1.404 . S
C3292 C3295 1.539 . S
C3293 C3289 1.408 . S
C3293 C3292 1.404 . S
C3293 H3305 0.930 . S
C3294 C3290 1.524 . S
C3294 H3306 0.956 . S
C3294 H3307 0.959 . S
C3294 H3308 0.961 1_565 S
C3295 C3292 1.539 . S
C3295 H3309 0.958 . S
C3295 H3310 0.961 . S
C3295 H3311 0.960 . S
H3296 C3280 0.931 . S
H3297 C3285 0.929 . S
H3298 C3286 0.960 . S
H3299 C3286 0.962 . S
H3300 C3286 0.960 . S
H3301 C3287 0.914 1_545 S
H3302 C3287 0.974 1_545 S
H3303 C3287 0.960 . S
H3304 C3288 0.931 . S
H3305 C3293 0.930 . S
H3306 C3294 0.956 . S
H3307 C3294 0.959 . S
H3308 C3294 0.961 1_545 S
H3309 C3295 0.958 . S
H3310 C3295 0.961 . S
H3311 C3295 0.960 . S
C3312 C3313 1.391 . S
C3312 C3314 1.394 . S
C3312 H3328 0.931 . S
C3313 C3312 1.391 . S
C3313 C3317 1.376 . S
C3314 C3312 1.394 . S
C3314 C3315 1.369 . S
C3314 C3318 1.531 . S
C3315 C3314 1.369 . S
C3315 C3316 1.410 . S
C3315 C3323 1.503 . S
C3316 C3315 1.410 . S
C3316 C3317 1.392 . S
C3316 C3319 1.511 1_565 S
C3317 C3313 1.376 . S
C3317 C3316 1.392 . S
C3317 H3329 0.929 . S
C3318 C3314 1.531 . S
C3318 H3330 0.960 . S
C3318 H3331 0.962 . S
C3318 H3332 0.960 . S
C3319 C3316 1.511 1_545 S
C3319 H3333 0.961 . S
C3319 H3334 0.961 . S
C3319 H3335 0.961 . S
C3320 C3321 1.370 . S
C3320 C3322 1.363 . S
C3320 H3336 0.931 . S
C3321 C3320 1.370 . S
C3321 C3325 1.408 1_565 S
C3322 C3320 1.363 . S
C3322 C3323 1.370 . S
C3322 C3326 1.524 . S
C3323 C3315 1.503 . S
C3323 C3322 1.370 . S
C3323 C3324 1.403 1_565 S
C3324 C3323 1.403 1_545 S
C3324 C3325 1.404 . S
C3324 C3327 1.539 . S
C3325 C3321 1.408 1_545 S
C3325 C3324 1.404 . S
C3325 H3337 0.930 . S
C3326 C3322 1.524 . S
C3326 H3338 0.956 . S
C3326 H3339 0.961 . S
C3326 H3340 0.961 . S
C3327 C3324 1.539 . S
C3327 H3341 0.958 . S
C3327 H3342 0.961 . S
C3327 H3343 0.960 . S
H3328 C3312 0.931 . S
H3329 C3317 0.929 . S
H3330 C3318 0.960 . S
H3331 C3318 0.962 . S
H3332 C3318 0.960 . S
H3333 C3319 0.961 . S
H3334 C3319 0.961 . S
H3335 C3319 0.961 . S
H3336 C3320 0.931 . S
H3337 C3325 0.930 . S
H3338 C3326 0.956 . S
H3339 C3326 0.961 . S
H3340 C3326 0.961 . S
H3341 C3327 0.958 . S
H3342 C3327 0.961 . S
H3343 C3327 0.960 . S
C3344 C3345 1.391 . S
C3344 C3346 1.394 . S
C3344 H3360 0.931 . S
C3345 C3344 1.391 . S
C3345 C3349 1.376 . S
C3346 C3344 1.394 . S
C3346 C3347 1.369 . S
C3346 C3350 1.531 1_455 S
C3347 C3346 1.369 . S
C3347 C3348 1.410 . S
C3347 C3355 1.503 . S
C3348 C3347 1.410 . S
C3348 C3349 1.392 . S
C3348 C3351 1.511 . S
C3349 C3345 1.376 . S
C3349 C3348 1.392 . S
C3349 H3361 0.929 . S
C3350 C3346 1.531 1_655 S
C3350 H3362 0.960 . S
C3350 H3363 0.962 . S
C3350 H3364 0.960 . S
C3351 C3348 1.511 . S
C3351 H3365 0.961 . S
C3351 H3366 0.961 . S
C3351 H3367 0.961 . S
C3352 C3353 1.403 . S
C3352 C3354 1.375 1_655 S
C3352 H3368 0.931 . S
C3353 C3352 1.403 . S
C3353 C3357 1.391 1_655 S
C3354 C3352 1.375 1_455 S
C3354 C3355 1.390 . S
C3354 C3358 1.497 1_455 S
C3355 C3347 1.503 . S
C3355 C3354 1.390 . S
C3355 C3356 1.403 . S
C3356 C3355 1.403 . S
C3356 C3357 1.404 . S
C3356 C3359 1.539 . S
C3357 C3353 1.391 1_455 S
C3357 C3356 1.404 . S
C3357 H3369 0.930 . S
C3358 C3354 1.497 1_655 S
C3358 H3370 0.956 . S
C3358 H3371 0.961 1_655 S
C3358 H3372 0.961 . S
C3359 C3356 1.539 . S
C3359 H3373 0.958 . S
C3359 H3374 0.961 . S
C3359 H3375 0.960 . S
H3360 C3344 0.931 . S
H3361 C3349 0.929 . S
H3362 C3350 0.960 . S
H3363 C3350 0.962 . S
H3364 C3350 0.960 . S
H3365 C3351 0.961 . S
H3366 C3351 0.961 . S
H3367 C3351 0.961 . S
H3368 C3352 0.931 . S
H3369 C3357 0.930 . S
H3370 C3358 0.956 . S
H3371 C3358 0.961 1_455 S
H3372 C3358 0.961 . S
H3373 C3359 0.958 . S
H3374 C3359 0.961 . S
H3375 C3359 0.960 . S
C3376 C3377 1.391 . S
C3376 C3378 1.394 . S
C3376 H3392 0.931 . S
C3377 C3376 1.391 . S
C3377 C3381 1.376 . S
C3378 C3376 1.394 . S
C3378 C3379 1.369 . S
C3378 C3382 1.531 . S
C3379 C3378 1.369 . S
C3379 C3380 1.410 . S
C3379 C3387 1.503 . S
C3380 C3379 1.410 . S
C3380 C3381 1.392 . S
C3380 C3383 1.511 . S
C3381 C3377 1.376 . S
C3381 C3380 1.392 . S
C3381 H3393 0.929 . S
C3382 C3378 1.531 . S
C3382 H3394 0.960 . S
C3382 H3395 0.962 . S
C3382 H3396 0.960 . S
C3383 C3380 1.511 . S
C3383 H3397 0.961 . S
C3383 H3398 0.961 . S
C3383 H3399 0.961 . S
C3384 C3385 1.370 . S
C3384 C3386 1.363 . S
C3384 H3400 0.931 . S
C3385 C3384 1.370 . S
C3385 C3389 1.408 . S
C3386 C3384 1.363 . S
C3386 C3387 1.370 . S
C3386 C3390 1.524 . S
C3387 C3379 1.503 . S
C3387 C3386 1.370 . S
C3387 C3388 1.403 . S
C3388 C3387 1.403 . S
C3388 C3389 1.404 . S
C3388 C3391 1.539 . S
C3389 C3385 1.408 . S
C3389 C3388 1.404 . S
C3389 H3401 0.930 . S
C3390 C3386 1.524 . S
C3390 H3402 0.956 . S
C3390 H3403 0.961 . S
C3390 H3404 0.961 . S
C3391 C3388 1.539 . S
C3391 H3405 0.958 . S
C3391 H3406 0.961 . S
C3391 H3407 0.960 . S
H3392 C3376 0.931 . S
H3393 C3381 0.929 . S
H3394 C3382 0.960 . S
H3395 C3382 0.962 . S
H3396 C3382 0.960 . S
H3397 C3383 0.961 . S
H3398 C3383 0.961 . S
H3399 C3383 0.961 . S
H3400 C3384 0.931 . S
H3401 C3389 0.930 . S
H3402 C3390 0.956 . S
H3403 C3390 0.961 . S
H3404 C3390 0.961 . S
H3405 C3391 0.958 . S
H3406 C3391 0.961 . S
H3407 C3391 0.960 . S
C3408 C3409 1.391 . S
C3408 C3410 1.394 . S
C3408 H3424 0.931 . S
C3409 C3408 1.391 . S
C3409 C3413 1.376 . S
C3410 C3408 1.394 . S
C3410 C3411 1.369 . S
C3410 C3414 1.531 . S
C3411 C3410 1.369 . S
C3411 C3412 1.410 . S
C3411 C3419 1.503 . S
C3412 C3411 1.410 . S
C3412 C3413 1.392 . S
C3412 C3415 1.511 . S
C3413 C3409 1.376 . S
C3413 C3412 1.392 . S
C3413 H3425 0.929 . S
C3414 C3410 1.531 . S
C3414 H3426 0.960 . S
C3414 H3427 0.962 . S
C3414 H3428 0.960 . S
C3415 C3412 1.511 . S
C3415 H3429 0.961 . S
C3415 H3430 0.961 . S
C3415 H3431 0.961 . S
C3416 C3417 1.370 . S
C3416 C3418 1.363 . S
C3416 H3432 0.931 . S
C3417 C3416 1.370 . S
C3417 C3421 1.408 . S
C3418 C3416 1.363 . S
C3418 C3419 1.370 . S
C3418 C3422 1.524 . S
C3419 C3411 1.503 . S
C3419 C3418 1.370 . S
C3419 C3420 1.403 . S
C3420 C3419 1.403 . S
C3420 C3421 1.404 . S
C3420 C3423 1.539 . S
C3421 C3417 1.408 . S
C3421 C3420 1.404 . S
C3421 H3433 0.930 . S
C3422 C3418 1.524 . S
C3422 H3434 0.956 . S
C3422 H3435 0.961 . S
C3422 H3436 0.961 . S
C3423 C3420 1.539 . S
C3423 H3437 0.958 . S
C3423 H3438 0.961 . S
C3423 H3439 0.960 . S
H3424 C3408 0.931 . S
H3425 C3413 0.929 . S
H3426 C3414 0.960 . S
H3427 C3414 0.962 . S
H3428 C3414 0.960 . S
H3429 C3415 0.961 . S
H3430 C3415 0.961 . S
H3431 C3415 0.961 . S
H3432 C3416 0.931 . S
H3433 C3421 0.930 . S
H3434 C3422 0.956 . S
H3435 C3422 0.961 . S
H3436 C3422 0.961 . S
H3437 C3423 0.958 . S
H3438 C3423 0.961 . S
H3439 C3423 0.960 . S
C3440 C3441 1.391 . S
C3440 C3442 1.394 . S
C3440 H3456 0.931 . S
C3441 C3440 1.391 . S
C3441 C3445 1.376 . S
C3442 C3440 1.394 . S
C3442 C3443 1.369 . S
C3442 C3446 1.531 . S
C3443 C3442 1.369 . S
C3443 C3444 1.410 . S
C3443 C3451 1.503 . S
C3444 C3443 1.410 . S
C3444 C3445 1.392 . S
C3444 C3447 1.511 . S
C3445 C3441 1.376 . S
C3445 C3444 1.392 . S
C3445 H3457 0.929 . S
C3446 C3442 1.531 . S
C3446 H3458 0.960 . S
C3446 H3459 0.962 . S
C3446 H3460 0.960 . S
C3447 C3444 1.511 . S
C3447 H3461 0.961 . S
C3447 H3462 0.961 . S
C3447 H3463 0.961 . S
C3448 C3449 1.370 . S
C3448 C3450 1.363 . S
C3448 H3464 0.931 . S
C3449 C3448 1.370 . S
C3449 C3453 1.408 . S
C3450 C3448 1.363 . S
C3450 C3451 1.370 . S
C3450 C3454 1.524 . S
C3451 C3443 1.503 . S
C3451 C3450 1.370 . S
C3451 C3452 1.403 . S
C3452 C3451 1.403 . S
C3452 C3453 1.404 . S
C3452 C3455 1.539 . S
C3453 C3449 1.408 . S
C3453 C3452 1.404 . S
C3453 H3465 0.930 . S
C3454 C3450 1.524 . S
C3454 H3466 0.956 . S
C3454 H3467 0.961 . S
C3454 H3468 0.961 . S
C3455 C3452 1.539 . S
C3455 H3469 0.958 . S
C3455 H3470 0.961 . S
C3455 H3471 0.960 . S
H3456 C3440 0.931 . S
H3457 C3445 0.929 . S
H3458 C3446 0.960 . S
H3459 C3446 0.962 . S
H3460 C3446 0.960 . S
H3461 C3447 0.961 . S
H3462 C3447 0.961 . S
H3463 C3447 0.961 . S
H3464 C3448 0.931 . S
H3465 C3453 0.930 . S
H3466 C3454 0.956 . S
H3467 C3454 0.961 . S
H3468 C3454 0.961 . S
H3469 C3455 0.958 . S
H3470 C3455 0.961 . S
H3471 C3455 0.960 . S
C3472 C3473 1.391 . S
C3472 C3474 1.394 . S
C3472 H3488 0.931 . S
C3473 C3472 1.391 . S
C3473 C3477 1.376 . S
C3474 C3472 1.394 . S
C3474 C3475 1.369 . S
C3474 C3478 1.531 . S
C3475 C3474 1.369 . S
C3475 C3476 1.410 . S
C3475 C3483 1.503 . S
C3476 C3475 1.410 . S
C3476 C3477 1.392 . S
C3476 C3479 1.511 . S
C3477 C3473 1.376 . S
C3477 C3476 1.392 . S
C3477 H3489 0.929 . S
C3478 C3474 1.531 . S
C3478 H3490 0.960 . S
C3478 H3491 0.962 . S
C3478 H3492 0.960 . S
C3479 C3476 1.511 . S
C3479 H3493 0.961 . S
C3479 H3494 0.961 . S
C3479 H3495 0.961 . S
C3480 C3481 1.370 . S
C3480 C3482 1.363 . S
C3480 H3496 0.931 . S
C3481 C3480 1.370 . S
C3481 C3485 1.408 . S
C3482 C3480 1.363 . S
C3482 C3483 1.370 . S
C3482 C3486 1.524 . S
C3483 C3475 1.503 . S
C3483 C3482 1.370 . S
C3483 C3484 1.403 . S
C3484 C3483 1.403 . S
C3484 C3485 1.404 . S
C3484 C3487 1.539 . S
C3485 C3481 1.408 . S
C3485 C3484 1.404 . S
C3485 H3497 0.930 . S
C3486 C3482 1.524 . S
C3486 H3498 0.956 . S
C3486 H3499 0.961 . S
C3486 H3500 0.961 . S
C3487 C3484 1.539 . S
C3487 H3501 0.958 . S
C3487 H3502 0.961 . S
C3487 H3503 0.960 . S
H3488 C3472 0.931 . S
H3489 C3477 0.929 . S
H3490 C3478 0.960 . S
H3491 C3478 0.962 . S
H3492 C3478 0.960 . S
H3493 C3479 0.961 . S
H3494 C3479 0.961 . S
H3495 C3479 0.961 . S
H3496 C3480 0.931 . S
H3497 C3485 0.930 . S
H3498 C3486 0.956 . S
H3499 C3486 0.961 . S
H3500 C3486 0.961 . S
H3501 C3487 0.958 . S
H3502 C3487 0.961 . S
H3503 C3487 0.960 . S
C3504 C3505 1.391 . S
C3504 C3506 1.394 . S
C3504 H3520 0.931 . S
C3505 C3504 1.391 . S
C3505 C3509 1.376 . S
C3506 C3504 1.394 . S
C3506 C3507 1.369 . S
C3506 C3510 1.531 . S
C3507 C3506 1.369 . S
C3507 C3508 1.410 . S
C3507 C3515 1.503 . S
C3508 C3507 1.410 . S
C3508 C3509 1.392 . S
C3508 C3511 1.511 . S
C3509 C3505 1.376 . S
C3509 C3508 1.392 . S
C3509 H3521 0.929 . S
C3510 C3506 1.531 . S
C3510 H3522 0.960 . S
C3510 H3523 0.962 . S
C3510 H3524 0.960 . S
C3511 C3508 1.511 . S
C3511 H3525 0.961 . S
C3511 H3526 0.961 . S
C3511 H3527 0.961 . S
C3512 C3513 1.370 . S
C3512 C3514 1.363 . S
C3512 H3528 0.931 1_545 S
C3513 C3512 1.370 . S
C3513 C3517 1.408 . S
C3514 C3512 1.363 . S
C3514 C3515 1.370 . S
C3514 C3518 1.524 1_545 S
C3515 C3507 1.503 . S
C3515 C3514 1.370 . S
C3515 C3516 1.403 . S
C3516 C3515 1.403 . S
C3516 C3517 1.404 . S
C3516 C3519 1.539 . S
C3517 C3513 1.408 . S
C3517 C3516 1.404 . S
C3517 H3529 0.930 . S
C3518 C3514 1.524 1_565 S
C3518 H3530 0.956 . S
C3518 H3531 0.961 . S
C3518 H3532 0.961 . S
C3519 C3516 1.539 . S
C3519 H3533 0.958 . S
C3519 H3534 0.961 . S
C3519 H3535 0.960 . S
H3520 C3504 0.931 . S
H3521 C3509 0.929 . S
H3522 C3510 0.960 . S
H3523 C3510 0.962 . S
H3524 C3510 0.960 . S
H3525 C3511 0.961 . S
H3526 C3511 0.961 . S
H3527 C3511 0.961 . S
H3528 C3512 0.931 1_565 S
H3529 C3517 0.930 . S
H3530 C3518 0.956 . S
H3531 C3518 0.961 . S
H3532 C3518 0.961 . S
H3533 C3519 0.958 . S
H3534 C3519 0.961 . S
H3535 C3519 0.960 . S
C3536 C3537 1.391 . S
C3536 C3538 1.394 . S
C3536 H3552 0.931 . S
C3537 C3536 1.391 . S
C3537 C3541 1.376 . S
C3538 C3536 1.394 . S
C3538 C3539 1.369 . S
C3538 C3542 1.531 . S
C3539 C3538 1.369 . S
C3539 C3540 1.410 . S
C3539 C3547 1.503 . S
C3540 C3539 1.410 . S
C3540 C3541 1.392 . S
C3540 C3543 1.511 1_655 S
C3541 C3537 1.376 . S
C3541 C3540 1.392 . S
C3541 H3553 0.929 . S
C3542 C3538 1.531 . S
C3542 H3554 0.960 . S
C3542 H3555 0.962 . S
C3542 H3556 0.960 . S
C3543 C3540 1.511 1_455 S
C3543 H3557 0.961 . S
C3543 H3558 0.961 . S
C3543 H3559 0.961 . S
C3544 C3545 1.370 . S
C3544 C3546 1.363 . S
C3544 H3560 0.931 . S
C3545 C3544 1.370 . S
C3545 C3549 1.408 . S
C3546 C3544 1.363 . S
C3546 C3547 1.370 . S
C3546 C3550 1.524 . S
C3547 C3539 1.503 . S
C3547 C3546 1.370 . S
C3547 C3548 1.403 . S
C3548 C3547 1.403 . S
C3548 C3549 1.404 . S
C3548 C3551 1.539 . S
C3549 C3545 1.408 . S
C3549 C3548 1.404 . S
C3549 H3561 0.930 . S
C3550 C3546 1.524 . S
C3550 H3562 0.956 . S
C3550 H3563 0.961 . S
C3550 H3564 0.961 . S
C3551 C3548 1.539 . S
C3551 H3565 0.958 . S
C3551 H3566 0.961 . S
C3551 H3567 0.960 . S
H3552 C3536 0.931 . S
H3553 C3541 0.929 . S
H3554 C3542 0.960 . S
H3555 C3542 0.962 . S
H3556 C3542 0.960 . S
H3557 C3543 0.961 . S
H3558 C3543 0.961 . S
H3559 C3543 0.961 . S
H3560 C3544 0.931 . S
H3561 C3549 0.930 . S
H3562 C3550 0.956 . S
H3563 C3550 0.961 . S
H3564 C3550 0.961 . S
H3565 C3551 0.958 . S
H3566 C3551 0.961 . S
H3567 C3551 0.960 . S
C3568 C3569 1.391 . S
C3568 C3570 1.394 . S
C3568 H3584 0.931 . S
C3569 C3568 1.391 . S
C3569 C3573 1.376 . S
C3570 C3568 1.394 . S
C3570 C3571 1.369 . S
C3570 C3574 1.531 . S
C3571 C3570 1.369 . S
C3571 C3572 1.410 . S
C3571 C3579 1.503 . S
C3572 C3571 1.410 . S
C3572 C3573 1.392 . S
C3572 C3575 1.511 . S
C3573 C3569 1.376 . S
C3573 C3572 1.392 . S
C3573 H3585 0.929 . S
C3574 C3570 1.531 . S
C3574 H3586 0.960 . S
C3574 H3587 0.962 . S
C3574 H3588 0.960 . S
C3575 C3572 1.511 . S
C3575 H3589 0.961 . S
C3575 H3590 0.961 . S
C3575 H3591 0.961 . S
C3576 C3577 1.370 . S
C3576 C3578 1.363 . S
C3576 H3592 0.931 . S
C3577 C3576 1.370 . S
C3577 C3581 1.408 . S
C3578 C3576 1.363 . S
C3578 C3579 1.370 . S
C3578 C3582 1.524 . S
C3579 C3571 1.503 . S
C3579 C3578 1.370 . S
C3579 C3580 1.403 . S
C3580 C3579 1.403 . S
C3580 C3581 1.404 . S
C3580 C3583 1.539 . S
C3581 C3577 1.408 . S
C3581 C3580 1.404 . S
C3581 H3593 0.930 . S
C3582 C3578 1.524 . S
C3582 H3594 0.956 . S
C3582 H3595 0.961 . S
C3582 H3596 0.961 . S
C3583 C3580 1.539 . S
C3583 H3597 0.958 . S
C3583 H3598 0.961 . S
C3583 H3599 0.960 . S
H3584 C3568 0.931 . S
H3585 C3573 0.929 . S
H3586 C3574 0.960 . S
H3587 C3574 0.962 . S
H3588 C3574 0.960 . S
H3589 C3575 0.961 . S
H3590 C3575 0.961 . S
H3591 C3575 0.961 . S
H3592 C3576 0.931 . S
H3593 C3581 0.930 . S
H3594 C3582 0.956 . S
H3595 C3582 0.961 . S
H3596 C3582 0.961 . S
H3597 C3583 0.958 . S
H3598 C3583 0.961 . S
H3599 C3583 0.960 . S
C3600 C3601 1.391 . S
C3600 C3602 1.394 . S
C3600 H3616 0.931 . S
C3601 C3600 1.391 . S
C3601 C3605 1.376 . S
C3602 C3600 1.394 . S
C3602 C3603 1.369 . S
C3602 C3606 1.531 . S
C3603 C3602 1.369 . S
C3603 C3604 1.410 . S
C3603 C3611 1.503 . S
C3604 C3603 1.410 . S
C3604 C3605 1.392 . S
C3604 C3607 1.511 . S
C3605 C3601 1.376 . S
C3605 C3604 1.392 . S
C3605 H3617 0.929 . S
C3606 C3602 1.531 . S
C3606 H3618 0.960 . S
C3606 H3619 0.962 . S
C3606 H3620 0.960 . S
C3607 C3604 1.511 . S
C3607 H3621 0.961 . S
C3607 H3622 0.961 . S
C3607 H3623 0.961 . S
C3608 C3609 1.370 . S
C3608 C3610 1.363 . S
C3608 H3624 0.931 . S
C3609 C3608 1.370 . S
C3609 C3613 1.408 . S
C3610 C3608 1.363 . S
C3610 C3611 1.370 . S
C3610 C3614 1.524 . S
C3611 C3603 1.503 . S
C3611 C3610 1.370 . S
C3611 C3612 1.403 . S
C3612 C3611 1.403 . S
C3612 C3613 1.404 . S
C3612 C3615 1.539 . S
C3613 C3609 1.408 . S
C3613 C3612 1.404 . S
C3613 H3625 0.930 . S
C3614 C3610 1.524 . S
C3614 H3626 0.956 . S
C3614 H3627 0.961 . S
C3614 H3628 0.961 . S
C3615 C3612 1.539 . S
C3615 H3629 0.958 . S
C3615 H3630 0.961 . S
C3615 H3631 0.960 . S
H3616 C3600 0.931 . S
H3617 C3605 0.929 . S
H3618 C3606 0.960 . S
H3619 C3606 0.962 . S
H3620 C3606 0.960 . S
H3621 C3607 0.961 . S
H3622 C3607 0.961 . S
H3623 C3607 0.961 . S
H3624 C3608 0.931 . S
H3625 C3613 0.930 . S
H3626 C3614 0.956 . S
H3627 C3614 0.961 . S
H3628 C3614 0.961 . S
H3629 C3615 0.958 . S
H3630 C3615 0.961 . S
H3631 C3615 0.960 . S
C3632 C3633 1.391 . S
C3632 C3634 1.394 . S
C3632 H3648 0.931 . S
C3633 C3632 1.391 . S
C3633 C3637 1.376 . S
C3634 C3632 1.394 . S
C3634 C3635 1.369 . S
C3634 C3638 1.531 . S
C3635 C3634 1.369 . S
C3635 C3636 1.410 . S
C3635 C3643 1.503 . S
C3636 C3635 1.410 . S
C3636 C3637 1.392 . S
C3636 C3639 1.511 . S
C3637 C3633 1.376 . S
C3637 C3636 1.392 . S
C3637 H3649 0.929 . S
C3638 C3634 1.531 . S
C3638 H3650 0.960 . S
C3638 H3651 0.962 . S
C3638 H3652 0.960 . S
C3639 C3636 1.511 . S
C3639 H3653 0.961 . S
C3639 H3654 0.961 . S
C3639 H3655 0.961 . S
C3640 C3641 1.370 . S
C3640 C3642 1.363 . S
C3640 H3656 0.931 . S
C3641 C3640 1.370 . S
C3641 C3645 1.408 . S
C3642 C3640 1.363 . S
C3642 C3643 1.370 . S
C3642 C3646 1.524 . S
C3643 C3635 1.503 . S
C3643 C3642 1.370 . S
C3643 C3644 1.403 . S
C3644 C3643 1.403 . S
C3644 C3645 1.404 . S
C3644 C3647 1.539 . S
C3645 C3641 1.408 . S
C3645 C3644 1.404 . S
C3645 H3657 0.930 . S
C3646 C3642 1.524 . S
C3646 H3658 0.956 . S
C3646 H3659 0.961 . S
C3646 H3660 0.961 . S
C3647 C3644 1.539 . S
C3647 H3661 0.958 . S
C3647 H3662 0.961 . S
C3647 H3663 0.960 . S
H3648 C3632 0.931 . S
H3649 C3637 0.929 . S
H3650 C3638 0.960 . S
H3651 C3638 0.962 . S
H3652 C3638 0.960 . S
H3653 C3639 0.961 . S
H3654 C3639 0.961 . S
H3655 C3639 0.961 . S
H3656 C3640 0.931 . S
H3657 C3645 0.930 . S
H3658 C3646 0.956 . S
H3659 C3646 0.961 . S
H3660 C3646 0.961 . S
H3661 C3647 0.958 . S
H3662 C3647 0.961 . S
H3663 C3647 0.960 . S
C3664 C3665 1.391 . S
C3664 C3666 1.394 . S
C3664 H3680 0.931 . S
C3665 C3664 1.391 . S
C3665 C3669 1.376 . S
C3666 C3664 1.394 . S
C3666 C3667 1.369 . S
C3666 C3670 1.531 . S
C3667 C3666 1.369 . S
C3667 C3668 1.410 . S
C3667 C3675 1.503 . S
C3668 C3667 1.410 . S
C3668 C3669 1.392 . S
C3668 C3671 1.511 . S
C3669 C3665 1.376 . S
C3669 C3668 1.392 . S
C3669 H3681 0.929 . S
C3670 C3666 1.531 . S
C3670 H3682 0.960 . S
C3670 H3683 0.962 . S
C3670 H3684 0.960 . S
C3671 C3668 1.511 . S
C3671 H3685 0.961 . S
C3671 H3686 0.961 . S
C3671 H3687 0.961 . S
C3672 C3673 1.370 . S
C3672 C3674 1.363 . S
C3672 H3688 0.931 . S
C3673 C3672 1.370 . S
C3673 C3677 1.408 . S
C3674 C3672 1.363 . S
C3674 C3675 1.370 . S
C3674 C3678 1.524 . S
C3675 C3667 1.503 . S
C3675 C3674 1.370 . S
C3675 C3676 1.403 . S
C3676 C3675 1.403 . S
C3676 C3677 1.404 . S
C3676 C3679 1.539 . S
C3677 C3673 1.408 . S
C3677 C3676 1.404 . S
C3677 H3689 0.930 . S
C3678 C3674 1.524 . S
C3678 H3690 0.956 . S
C3678 H3691 0.961 . S
C3678 H3692 0.961 . S
C3679 C3676 1.539 . S
C3679 H3693 0.958 . S
C3679 H3694 0.961 . S
C3679 H3695 0.960 . S
H3680 C3664 0.931 . S
H3681 C3669 0.929 . S
H3682 C3670 0.960 . S
H3683 C3670 0.962 . S
H3684 C3670 0.960 . S
H3685 C3671 0.961 . S
H3686 C3671 0.961 . S
H3687 C3671 0.961 . S
H3688 C3672 0.931 . S
H3689 C3677 0.930 . S
H3690 C3678 0.956 . S
H3691 C3678 0.961 . S
H3692 C3678 0.961 . S
H3693 C3679 0.958 . S
H3694 C3679 0.961 . S
H3695 C3679 0.960 . S
C3696 C3697 1.391 . S
C3696 C3698 1.394 . S
C3696 H3712 0.931 . S
C3697 C3696 1.391 . S
C3697 C3701 1.376 . S
C3698 C3696 1.394 . S
C3698 C3699 1.369 . S
C3698 C3702 1.531 . S
C3699 C3698 1.369 . S
C3699 C3700 1.410 . S
C3699 C3707 1.503 . S
C3700 C3699 1.410 . S
C3700 C3701 1.392 . S
C3700 C3703 1.511 . S
C3701 C3697 1.376 . S
C3701 C3700 1.392 . S
C3701 H3713 0.929 . S
C3702 C3698 1.531 . S
C3702 H3714 0.960 . S
C3702 H3715 0.962 . S
C3702 H3716 0.960 . S
C3703 C3700 1.511 . S
C3703 H3717 0.961 . S
C3703 H3718 0.961 . S
C3703 H3719 0.961 . S
C3704 C3705 1.370 . S
C3704 C3706 1.363 . S
C3704 H3720 0.931 . S
C3705 C3704 1.370 . S
C3705 C3709 1.408 . S
C3706 C3704 1.363 . S
C3706 C3707 1.370 . S
C3706 C3710 1.524 . S
C3707 C3699 1.503 . S
C3707 C3706 1.370 . S
C3707 C3708 1.403 . S
C3708 C3707 1.403 . S
C3708 C3709 1.404 . S
C3708 C3711 1.539 . S
C3709 C3705 1.408 . S
C3709 C3708 1.404 . S
C3709 H3721 0.930 . S
C3710 C3706 1.524 . S
C3710 H3722 0.956 . S
C3710 H3723 0.961 . S
C3710 H3724 0.961 . S
C3711 C3708 1.539 . S
C3711 H3725 0.958 . S
C3711 H3726 0.961 . S
C3711 H3727 0.960 . S
H3712 C3696 0.931 . S
H3713 C3701 0.929 . S
H3714 C3702 0.960 . S
H3715 C3702 0.962 . S
H3716 C3702 0.960 . S
H3717 C3703 0.961 . S
H3718 C3703 0.961 . S
H3719 C3703 0.961 . S
H3720 C3704 0.931 . S
H3721 C3709 0.930 . S
H3722 C3710 0.956 . S
H3723 C3710 0.961 . S
H3724 C3710 0.961 . S
H3725 C3711 0.958 . S
H3726 C3711 0.961 . S
H3727 C3711 0.960 . S
C3728 C3729 1.391 . S
C3728 C3730 1.394 . S
C3728 H3744 0.931 . S
C3729 C3728 1.391 . S
C3729 C3733 1.376 . S
C3730 C3728 1.394 . S
C3730 C3731 1.369 . S
C3730 C3734 1.531 . S
C3731 C3730 1.369 . S
C3731 C3732 1.410 . S
C3731 C3739 1.503 . S
C3732 C3731 1.410 . S
C3732 C3733 1.392 . S
C3732 C3735 1.511 . S
C3733 C3729 1.376 . S
C3733 C3732 1.392 . S
C3733 H3745 0.929 . S
C3734 C3730 1.531 . S
C3734 H3746 0.960 . S
C3734 H3747 0.962 . S
C3734 H3748 0.960 . S
C3735 C3732 1.511 . S
C3735 H3749 0.961 . S
C3735 H3750 0.961 . S
C3735 H3751 0.961 . S
C3736 C3737 1.370 . S
C3736 C3738 1.363 . S
C3736 H3752 0.931 . S
C3737 C3736 1.370 . S
C3737 C3741 1.408 . S
C3738 C3736 1.363 . S
C3738 C3739 1.370 . S
C3738 C3742 1.524 . S
C3739 C3731 1.503 . S
C3739 C3738 1.370 . S
C3739 C3740 1.403 . S
C3740 C3739 1.403 . S
C3740 C3741 1.404 . S
C3740 C3743 1.539 . S
C3741 C3737 1.408 . S
C3741 C3740 1.404 . S
C3741 H3753 0.930 . S
C3742 C3738 1.524 . S
C3742 H3754 0.956 . S
C3742 H3755 0.961 . S
C3742 H3756 0.961 . S
C3743 C3740 1.539 . S
C3743 H3757 0.958 . S
C3743 H3758 0.961 . S
C3743 H3759 0.960 . S
H3744 C3728 0.931 . S
H3745 C3733 0.929 . S
H3746 C3734 0.960 . S
H3747 C3734 0.962 . S
H3748 C3734 0.960 . S
H3749 C3735 0.961 . S
H3750 C3735 0.961 . S
H3751 C3735 0.961 . S
H3752 C3736 0.931 . S
H3753 C3741 0.930 . S
H3754 C3742 0.956 . S
H3755 C3742 0.961 . S
H3756 C3742 0.961 . S
H3757 C3743 0.958 . S
H3758 C3743 0.961 . S
H3759 C3743 0.960 . S
C3760 C3761 1.391 . S
C3760 C3762 1.394 . S
C3760 H3776 0.931 . S
C3761 C3760 1.391 . S
C3761 C3765 1.376 . S
C3762 C3760 1.394 . S
C3762 C3763 1.369 . S
C3762 C3766 1.531 . S
C3763 C3762 1.369 . S
C3763 C3764 1.410 . S
C3763 C3771 1.503 . S
C3764 C3763 1.410 . S
C3764 C3765 1.392 . S
C3764 C3767 1.511 . S
C3765 C3761 1.376 . S
C3765 C3764 1.392 . S
C3765 H3777 0.929 . S
C3766 C3762 1.531 . S
C3766 H3778 0.960 . S
C3766 H3779 0.962 . S
C3766 H3780 0.960 . S
C3767 C3764 1.511 . S
C3767 H3781 0.961 . S
C3767 H3782 0.961 . S
C3767 H3783 0.961 . S
C3768 C3769 1.370 . S
C3768 C3770 1.363 . S
C3768 H3784 0.931 . S
C3769 C3768 1.370 . S
C3769 C3773 1.408 . S
C3770 C3768 1.363 . S
C3770 C3771 1.370 . S
C3770 C3774 1.524 . S
C3771 C3763 1.503 . S
C3771 C3770 1.370 . S
C3771 C3772 1.403 . S
C3772 C3771 1.403 . S
C3772 C3773 1.404 . S
C3772 C3775 1.539 . S
C3773 C3769 1.408 . S
C3773 C3772 1.404 . S
C3773 H3785 0.930 . S
C3774 C3770 1.524 . S
C3774 H3786 0.956 . S
C3774 H3787 0.961 . S
C3774 H3788 0.961 . S
C3775 C3772 1.539 . S
C3775 H3789 0.958 . S
C3775 H3790 0.961 . S
C3775 H3791 0.960 . S
H3776 C3760 0.931 . S
H3777 C3765 0.929 . S
H3778 C3766 0.960 . S
H3779 C3766 0.962 . S
H3780 C3766 0.960 . S
H3781 C3767 0.961 . S
H3782 C3767 0.961 . S
H3783 C3767 0.961 . S
H3784 C3768 0.931 . S
H3785 C3773 0.930 . S
H3786 C3774 0.956 . S
H3787 C3774 0.961 . S
H3788 C3774 0.961 . S
H3789 C3775 0.958 . S
H3790 C3775 0.961 . S
H3791 C3775 0.960 . S
C3792 C3793 1.391 . S
C3792 C3794 1.394 . S
C3792 H3808 0.931 . S
C3793 C3792 1.391 . S
C3793 C3797 1.376 . S
C3794 C3792 1.394 . S
C3794 C3795 1.369 . S
C3794 C3798 1.531 . S
C3795 C3794 1.369 . S
C3795 C3796 1.410 . S
C3795 C3803 1.503 . S
C3796 C3795 1.410 . S
C3796 C3797 1.392 . S
C3796 C3799 1.511 . S
C3797 C3793 1.376 . S
C3797 C3796 1.392 . S
C3797 H3809 0.929 . S
C3798 C3794 1.531 . S
C3798 H3810 0.960 . S
C3798 H3811 0.962 . S
C3798 H3812 0.960 . S
C3799 C3796 1.511 . S
C3799 H3813 0.958 1_655 S
C3799 H3814 0.957 1_655 S
C3799 H3815 0.961 . S
C3800 C3801 1.378 1_455 S
C3800 C3802 1.335 1_455 S
C3800 H3816 0.953 . S
C3801 C3800 1.378 1_655 S
C3801 C3805 1.408 . S
C3802 C3800 1.335 1_655 S
C3802 C3803 1.370 . S
C3802 C3806 1.524 1_655 S
C3803 C3795 1.503 . S
C3803 C3802 1.370 . S
C3803 C3804 1.403 . S
C3804 C3803 1.403 . S
C3804 C3805 1.404 . S
C3804 C3807 1.539 . S
C3805 C3801 1.408 . S
C3805 C3804 1.404 . S
C3805 H3817 0.930 . S
C3806 C3802 1.524 1_455 S
C3806 H3818 0.956 1_455 S
C3806 H3819 0.961 . S
C3806 H3820 0.961 . S
C3807 C3804 1.539 . S
C3807 H3821 0.958 . S
C3807 H3822 0.961 . S
C3807 H3823 0.960 . S
H3808 C3792 0.931 . S
H3809 C3797 0.929 . S
H3810 C3798 0.960 . S
H3811 C3798 0.962 . S
H3812 C3798 0.960 . S
H3813 C3799 0.958 1_455 S
H3814 C3799 0.957 1_455 S
H3815 C3799 0.961 . S
H3816 C3800 0.953 . S
H3817 C3805 0.930 . S
H3818 C3806 0.956 1_655 S
H3819 C3806 0.961 . S
H3820 C3806 0.961 . S
H3821 C3807 0.958 . S
H3822 C3807 0.961 . S
H3823 C3807 0.960 . S
C3824 C3825 1.391 . S
C3824 C3826 1.394 . S
C3824 H3840 0.931 . S
C3825 C3824 1.391 . S
C3825 C3829 1.376 . S
C3826 C3824 1.394 . S
C3826 C3827 1.369 . S
C3826 C3830 1.531 . S
C3827 C3826 1.369 . S
C3827 C3828 1.410 . S
C3827 C3835 1.503 . S
C3828 C3827 1.410 . S
C3828 C3829 1.392 . S
C3828 C3831 1.511 . S
C3829 C3825 1.376 . S
C3829 C3828 1.392 . S
C3829 H3841 0.929 . S
C3830 C3826 1.531 . S
C3830 H3842 0.960 . S
C3830 H3843 0.962 . S
C3830 H3844 0.960 . S
C3831 C3828 1.511 . S
C3831 H3845 0.961 . S
C3831 H3846 0.961 . S
C3831 H3847 0.961 . S
C3832 C3833 1.370 . S
C3832 C3834 1.363 . S
C3832 H3848 0.931 . S
C3833 C3832 1.370 . S
C3833 C3837 1.408 . S
C3834 C3832 1.363 . S
C3834 C3835 1.370 . S
C3834 C3838 1.524 . S
C3835 C3827 1.503 . S
C3835 C3834 1.370 . S
C3835 C3836 1.403 . S
C3836 C3835 1.403 . S
C3836 C3837 1.404 . S
C3836 C3839 1.539 . S
C3837 C3833 1.408 . S
C3837 C3836 1.404 . S
C3837 H3849 0.930 . S
C3838 C3834 1.524 . S
C3838 H3850 0.956 . S
C3838 H3851 0.961 . S
C3838 H3852 0.961 . S
C3839 C3836 1.539 . S
C3839 H3853 0.958 . S
C3839 H3854 0.961 . S
C3839 H3855 0.960 . S
H3840 C3824 0.931 . S
H3841 C3829 0.929 . S
H3842 C3830 0.960 . S
H3843 C3830 0.962 . S
H3844 C3830 0.960 . S
H3845 C3831 0.961 . S
H3846 C3831 0.961 . S
H3847 C3831 0.961 . S
H3848 C3832 0.931 . S
H3849 C3837 0.930 . S
H3850 C3838 0.956 . S
H3851 C3838 0.961 . S
H3852 C3838 0.961 . S
H3853 C3839 0.958 . S
H3854 C3839 0.961 . S
H3855 C3839 0.960 . S
C3856 C3857 1.391 . S
C3856 C3858 1.394 . S
C3856 H3872 0.931 . S
C3857 C3856 1.391 . S
C3857 C3861 1.376 . S
C3858 C3856 1.394 . S
C3858 C3859 1.369 . S
C3858 C3862 1.531 . S
C3859 C3858 1.369 . S
C3859 C3860 1.410 . S
C3859 C3867 1.503 . S
C3860 C3859 1.410 . S
C3860 C3861 1.392 . S
C3860 C3863 1.511 . S
C3861 C3857 1.376 . S
C3861 C3860 1.392 . S
C3861 H3873 0.929 . S
C3862 C3858 1.531 . S
C3862 H3874 0.960 . S
C3862 H3875 0.962 . S
C3862 H3876 0.960 . S
C3863 C3860 1.511 . S
C3863 H3877 0.961 . S
C3863 H3878 0.961 . S
C3863 H3879 0.961 . S
C3864 C3865 1.370 . S
C3864 C3866 1.363 . S
C3864 H3880 0.931 . S
C3865 C3864 1.370 . S
C3865 C3869 1.408 1_545 S
C3866 C3864 1.363 . S
C3866 C3867 1.370 . S
C3866 C3870 1.524 . S
C3867 C3859 1.503 . S
C3867 C3866 1.370 . S
C3867 C3868 1.403 1_545 S
C3868 C3867 1.403 1_565 S
C3868 C3869 1.404 . S
C3868 C3871 1.539 . S
C3869 C3865 1.408 1_565 S
C3869 C3868 1.404 . S
C3869 H3881 0.930 . S
C3870 C3866 1.524 . S
C3870 H3882 0.956 . S
C3870 H3883 0.961 . S
C3870 H3884 0.961 . S
C3871 C3868 1.539 . S
C3871 H3885 0.958 . S
C3871 H3886 0.961 . S
C3871 H3887 0.960 . S
H3872 C3856 0.931 . S
H3873 C3861 0.929 . S
H3874 C3862 0.960 . S
H3875 C3862 0.962 . S
H3876 C3862 0.960 . S
H3877 C3863 0.961 . S
H3878 C3863 0.961 . S
H3879 C3863 0.961 . S
H3880 C3864 0.931 . S
H3881 C3869 0.930 . S
H3882 C3870 0.956 . S
H3883 C3870 0.961 . S
H3884 C3870 0.961 . S
H3885 C3871 0.958 . S
H3886 C3871 0.961 . S
H3887 C3871 0.960 . S
C1585 C13 1.184 . S
C1593 C981 1.148 . S
C1617 C27 1.317 . S
C1625 C1061 1.412 . S
C1657 C1129 1.260 . S
C1649 C36 1.206 . S
C1681 C41 1.658 . S
C1689 C1209 1.699 . S
C1713 C8 1.486 1_556 S
C1721 C1283 1.567 . S
C1745 C22 1.487 . S
C1753 C1351 1.473 . S
C1777 C55 1.150 . S
C1785 C1277 1.102 . S
C1817 C1357 1.327 . S
C1809 C69 1.248 . S
C1849 C1203 1.262 . S
C1841 C78 1.230 . S
C1873 C83 1.671 . S
C1881 C1135 1.671 . S
C1913 C987 1.579 . S
C1905 C50 1.426 . S
C1937 C64 1.331 . S
C1945 C1055 1.376 . S
C1969 C97 1.372 . S
C1977 C1425 1.364 . S
C2001 C111 1.382 . S
C2009 C1505 1.458 . S
C2041 C1573 1.443 . S
C2033 C120 1.506 . S
C2065 C125 1.813 . S
C2073 C321 1.803 . S
C2097 C92 1.787 . S
C2105 C395 1.766 . S
C2129 C106 1.521 . S
C2137 C463 1.502 . S
C2161 C139 1.080 . S
C2169 C389 1.157 . S
C2193 C153 1.330 . S
C2201 C469 1.372 . S
C2233 C315 1.352 . S
C2225 C162 1.339 . S
C2265 C1579 1.809 . S
C2257 C167 1.743 . S
C2297 C1431 1.632 . S
C2289 C134 1.599 . S
C2329 C1499 1.406 . S
C2321 C148 1.410 . S
C2353 C181 1.258 . S
C2361 C537 1.306 . S
C2385 C195 1.450 . S
C2393 C617 1.442 . S
C2417 C204 1.524 . S
C2425 C685 1.491 . S
C2449 C209 1.871 . S
C2457 C765 1.881 . S
C2489 C839 1.762 . S
C2481 C176 1.774 . S
C2521 C907 1.525 . S
C2513 C190 1.541 . S
C2553 C833 1.239 . S
C2545 C223 1.193 . S
C2585 C913 1.358 . S
C2577 C237 1.335 . S
C2609 C246 1.267 . S
C2617 C759 1.309 . S
C2649 C691 1.712 . S
C2641 C251 1.650 . S
C2673 C218 1.628 . S
C2681 C543 1.666 . S
C2713 C611 1.395 . S
C2705 C232 1.368 . S
C2745 C291 1.903 . S
C2737 C11 1.913 . S
C2769 C25 1.280 . S
C2777 C365 1.318 . S
C2809 C451 1.425 . S
C2801 C35 1.444 . S
C2841 C525 1.209 . S
C2833 C39 1.167 . S
C2873 C587 1.611 . S
C2865 C7 1.638 1_556 S
C2905 C673 1.490 . S
C2897 C21 1.512 . S
C2929 C53 2.085 . S
C2937 C661 2.021 . S
C2961 C67 1.531 . S
C2969 C513 1.447 . S
C2993 C77 1.645 . S
C3001 C599 1.620 . S
C3025 C81 1.467 . S
C3033 C377 1.465 . S
C3065 C439 1.729 . S
C3057 C49 1.830 . S
C3089 C63 1.756 . S
C3097 C303 1.690 . S
C3129 C735 1.847 . S
C3121 C95 1.817 . S
C3153 C109 1.438 . S
C3161 C809 1.419 . S
C3185 C119 1.489 . S
C3193 C895 1.481 . S
C3225 C969 0.987 . S
C3217 C123 0.991 . S
C3249 C91 1.531 . S
C3257 C1031 1.524 . S
C3281 C105 1.289 . S
C3289 C1117 1.307 . S
C3313 C137 1.765 . S
C3321 C1105 1.700 1_565 S
C3345 C151 1.204 . S
C3353 C957 1.141 . S
C3385 C1043 1.519 . S
C3377 C161 1.562 . S
C3409 C165 1.426 . S
C3417 C821 1.440 . S
C3441 C133 1.836 1_545 S
C3449 C883 1.763 . S
C3481 C747 1.746 . S
C3473 C147 1.826 1_655 S
C3513 C1179 1.713 . S
C3505 C179 1.737 . S
C3537 C193 1.064 . S
C3545 C1253 1.085 . S
C3569 C203 1.367 . S
C3577 C1339 1.355 . S
C3609 C1413 1.196 . S
C3601 C207 1.150 . S
C3641 C1475 1.638 . S
C3633 C175 1.657 1_565 S
C3665 C189 1.581 1_455 S
C3673 C1561 1.567 . S
C3697 C221 2.034 . S
C3705 C1549 1.954 . S
C3729 C235 1.578 1_565 S
C3737 C1401 1.570 . S
C3769 C1487 1.636 . S
C3761 C245 1.707 1_455 S
C3801 C1265 1.069 . S
C3793 C249 1.090 . S
C3833 C1327 1.643 . S
C3825 C217 1.720 . S
C3857 C231 1.430 . S
C3865 C1191 1.437 1_545 S
