# Generated by pormake.
# Topology hwx, (6,3)-cn, num edge types: 1
# Building blocks:
#     Node 0, Type 0, BuildingBlock: OJICUG_clean_sbu_0, # of connection points: 6
#     Node 1, Type 0, BuildingBlock: OJICUG_clean_sbu_0, # of connection points: 6
#     Node 2, Type 0, BuildingBlock: OJICUG_clean_sbu_0, # of connection points: 6
#     Node 3, Type 0, BuildingBlock: OJICUG_clean_sbu_0, # of connection points: 6
#     Node 4, Type 1, BuildingBlock: ESEHIV_clean_linker_0, # of connection points: 3
#     Node 5, Type 1, BuildingBlock: ESEHIV_clean_linker_0, # of connection points: 3
#     Node 6, Type 1, BuildingBlock: ESEHIV_clean_linker_0, # of connection points: 3
#     Node 7, Type 1, BuildingBlock: ESEHIV_clean_linker_0, # of connection points: 3
#     Node 8, Type 1, BuildingBlock: ESEHIV_clean_linker_0, # of connection points: 3
#     Node 9, Type 1, BuildingBlock: ESEHIV_clean_linker_0, # of connection points: 3
#     Node 10, Type 1, BuildingBlock: ESEHIV_clean_linker_0, # of connection points: 3
#     Node 11, Type 1, BuildingBlock: ESEHIV_clean_linker_0, # of connection points: 3
#     Edge 12, Type (0, 1), BuildingBlock: XIVTED_clean_linker_0, # of connection points: 2
#     Edge 13, Type (0, 1), BuildingBlock: XIVTED_clean_linker_0, # of connection points: 2
#     Edge 14, Type (0, 1), BuildingBlock: XIVTED_clean_linker_0, # of connection points: 2
#     Edge 15, Type (0, 1), BuildingBlock: XIVTED_clean_linker_0, # of connection points: 2
#     Edge 16, Type (0, 1), BuildingBlock: XIVTED_clean_linker_0, # of connection points: 2
#     Edge 17, Type (0, 1), BuildingBlock: XIVTED_clean_linker_0, # of connection points: 2
#     Edge 18, Type (0, 1), BuildingBlock: XIVTED_clean_linker_0, # of connection points: 2
#     Edge 19, Type (0, 1), BuildingBlock: XIVTED_clean_linker_0, # of connection points: 2
#     Edge 20, Type (0, 1), BuildingBlock: XIVTED_clean_linker_0, # of connection points: 2
#     Edge 21, Type (0, 1), BuildingBlock: XIVTED_clean_linker_0, # of connection points: 2
#     Edge 22, Type (0, 1), BuildingBlock: XIVTED_clean_linker_0, # of connection points: 2
#     Edge 23, Type (0, 1), BuildingBlock: XIVTED_clean_linker_0, # of connection points: 2
#     Edge 24, Type (0, 1), BuildingBlock: XIVTED_clean_linker_0, # of connection points: 2
#     Edge 25, Type (0, 1), BuildingBlock: XIVTED_clean_linker_0, # of connection points: 2
#     Edge 26, Type (0, 1), BuildingBlock: XIVTED_clean_linker_0, # of connection points: 2
#     Edge 27, Type (0, 1), BuildingBlock: XIVTED_clean_linker_0, # of connection points: 2
#     Edge 28, Type (0, 1), BuildingBlock: XIVTED_clean_linker_0, # of connection points: 2
#     Edge 29, Type (0, 1), BuildingBlock: XIVTED_clean_linker_0, # of connection points: 2
#     Edge 30, Type (0, 1), BuildingBlock: XIVTED_clean_linker_0, # of connection points: 2
#     Edge 31, Type (0, 1), BuildingBlock: XIVTED_clean_linker_0, # of connection points: 2
#     Edge 32, Type (0, 1), BuildingBlock: XIVTED_clean_linker_0, # of connection points: 2
#     Edge 33, Type (0, 1), BuildingBlock: XIVTED_clean_linker_0, # of connection points: 2
#     Edge 34, Type (0, 1), BuildingBlock: XIVTED_clean_linker_0, # of connection points: 2
#     Edge 35, Type (0, 1), BuildingBlock: XIVTED_clean_linker_0, # of connection points: 2
# Relax obj value: 0.076
# Max RMSD: 0.101
# Mean RMSD: 0.093
data_MOF--net-hwx--node1-OJICUG_clean_sbu_0--node2-ESEHIV_clean_linker_0--edge1-XIVTED_clean_linker_0
_symmetry_space_group_name_H-M    P1
_symmetry_Int_Tables_number       1
_symmetry_cell_setting            triclinic
loop_
_symmetry_equiv_pos_as_xyz
'x, y, z'
_cell_length_a     47.444347
_cell_length_b     47.366129
_cell_length_c     21.459981
_cell_angle_alpha  89.847662
_cell_angle_beta   90.152617
_cell_angle_gamma 90.117883
loop_
_atom_site_label
_atom_site_type_symbol
_atom_site_fract_x
_atom_site_fract_y
_atom_site_fract_z
_atom_type_partial_charge
Sc0 Sc 0.20778 0.19402 0.03748 0.0
Sc1 Sc 0.151 0.1674 0.94838 0.0
Sc2 Sc 0.20675 0.20434 0.8756 0.0
O3 O 0.18852 0.18851 0.95378 0.0
C4 C 0.21644 0.25409 0.97253 0.0
C5 C 0.14277 0.20412 0.07079 0.0
C6 C 0.14158 0.21589 0.84745 0.0
C7 C 0.18477 0.13107 0.04947 0.0
C8 C 0.2613 0.18433 0.95152 0.0
C9 C 0.18501 0.14391 0.83119 0.0
O10 O 0.21573 0.23794 0.01989 0.0
O11 O 0.13295 0.1906 0.02447 0.0
O12 O 0.16771 0.21981 0.83837 0.0
O13 O 0.20205 0.15063 0.06299 0.0
O14 O 0.24863 0.19174 0.90194 0.0
O15 O 0.16522 0.14233 0.871 0.0
O16 O 0.24903 0.18302 0.00396 0.0
O17 O 0.1648 0.1341 0.01038 0.0
O18 O 0.20211 0.16462 0.82797 0.0
O19 O 0.16903 0.2065 0.08152 0.0
O20 O 0.21285 0.2453 0.91707 0.0
O21 O 0.13223 0.19792 0.8863 0.0
Sc22 Sc 0.28543 0.69643 0.46886 0.0
Sc23 Sc 0.33543 0.65983 0.55935 0.0
Sc24 Sc 0.28985 0.7098 0.62913 0.0
O25 O 0.3036 0.68869 0.5526 0.0
C26 C 0.28888 0.75837 0.526 0.0
C27 C 0.35071 0.69187 0.43364 0.0
C28 C 0.35617 0.70774 0.6535 0.0
C29 C 0.29354 0.62987 0.46354 0.0
C30 C 0.2319 0.69878 0.55749 0.0
C31 C 0.29868 0.64694 0.6805 0.0
O32 O 0.28705 0.74122 0.48081 0.0
O33 O 0.35788 0.67735 0.48099 0.0
O34 O 0.33185 0.71828 0.6611 0.0
O35 O 0.28121 0.6526 0.44845 0.0
O36 O 0.24591 0.70435 0.6065 0.0
O37 O 0.31615 0.63983 0.63854 0.0
O38 O 0.24341 0.69485 0.50492 0.0
O39 O 0.31426 0.62902 0.50117 0.0
O40 O 0.28764 0.67139 0.68326 0.0
O41 O 0.32546 0.69943 0.42321 0.0
O42 O 0.29047 0.75035 0.58256 0.0
O43 O 0.36066 0.68656 0.6187 0.0
Sc44 Sc 0.791 0.78466 0.92628 0.0
Sc45 Sc 0.82885 0.83982 -0.00175 0.0
Sc46 Sc 0.80278 0.78332 0.08738 0.0
O47 O 0.80759 0.8026 0.0038 0.0
C48 C 0.74258 0.77499 0.02801 0.0
C49 C 0.77804 0.84972 0.90242 0.0
C50 C 0.79619 0.84842 0.12431 0.0
C51 C 0.85029 0.80802 0.87734 0.0
C52 C 0.81047 0.7298 -0.00215 0.0
C53 C 0.86603 0.80369 0.09445 0.0
O54 O 0.75219 0.77435 0.97271 0.0
O55 O 0.79869 0.8584 0.93509 0.0
O56 O 0.79631 0.8222 0.13678 0.0
O57 O 0.82811 0.79309 0.87208 0.0
O58 O 0.80797 0.74149 0.05071 0.0
O59 O 0.86155 0.82561 0.06142 0.0
O60 O 0.8077 0.74333 0.94699 0.0
O61 O 0.85438 0.8251 0.92212 0.0
O62 O 0.84734 0.78494 0.10458 0.0
O63 O 0.77197 0.8237 0.8967 0.0
O64 O 0.75783 0.78023 0.07545 0.0
O65 O 0.80522 0.8584 0.07316 0.0
Sc66 Sc 0.71045 0.28388 0.55652 0.0
Sc67 Sc 0.664 0.33102 0.48229 0.0
Sc68 Sc 0.7026 0.28163 0.3946 0.0
O69 O 0.6923 0.29888 0.4778 0.0
C70 C 0.76204 0.28406 0.46051 0.0
C71 C 0.7106 0.34977 0.58239 0.0
C72 C 0.69758 0.34734 0.36049 0.0
C73 C 0.64688 0.2944 0.60034 0.0
C74 C 0.70102 0.22708 0.48304 0.0
C75 C 0.6368 0.28973 0.37996 0.0
O76 O 0.75139 0.28099 0.51442 0.0
O77 O 0.6887 0.35446 0.54958 0.0
O78 O 0.70302 0.32178 0.34739 0.0
O79 O 0.6717 0.28491 0.60752 0.0
O80 O 0.70351 0.23897 0.43016 0.0
O81 O 0.63609 0.31148 0.41475 0.0
O82 O 0.70087 0.24076 0.53383 0.0
O83 O 0.63997 0.31044 0.55514 0.0
O84 O 0.65899 0.27524 0.37145 0.0
O85 O 0.72178 0.3255 0.587 0.0
O86 O 0.74716 0.28674 0.41146 0.0
O87 O 0.68537 0.35475 0.41047 0.0
H88 H 0.25716 0.53991 0.0894 0.0
H89 H 0.25071 0.47101 0.96041 0.0
H90 H 0.2459 0.45558 0.15832 0.0
C91 C 0.25404 0.51762 0.08027 0.0
C92 C 0.25145 0.49882 0.13044 0.0
C93 C 0.25395 0.50774 0.01879 0.0
C94 C 0.2507 0.47873 0.00789 0.0
C95 C 0.24763 0.45964 0.05775 0.0
C96 C 0.24837 0.46989 0.11921 0.0
H97 H 0.96575 0.80342 0.46465 0.0
H98 H 0.04283 0.76632 0.40073 0.0
H99 H 0.02279 0.76606 0.59667 0.0
C100 C 0.98564 0.79312 0.47487 0.0
C101 C 0.99232 0.78591 0.53649 0.0
C102 C 0.00365 0.78588 0.42588 0.0
C103 C 0.02896 0.77184 0.43884 0.0
C104 C 0.03641 0.76518 0.5007 0.0
C105 C 0.01791 0.77229 0.54923 0.0
H106 H 0.75823 0.44284 0.95984 0.0
H107 H 0.77294 0.51503 0.07577 0.0
H108 H 0.78594 0.52032 0.87682 0.0
C109 C 0.76477 0.46465 0.96501 0.0
C110 C 0.77279 0.47996 0.91205 0.0
C111 C 0.76385 0.47734 0.0239 0.0
C112 C 0.773 0.50542 0.03008 0.0
C113 C 0.78136 0.52129 0.97739 0.0
C114 C 0.78073 0.50834 0.91828 0.0
H115 H 0.05478 0.28065 0.45817 0.0
H116 H 0.97658 0.29321 0.55386 0.0
H117 H 0.97744 0.28467 0.35411 0.0
C118 C 0.03226 0.28444 0.45672 0.0
C119 C 0.01808 0.28364 0.39925 0.0
C120 C 0.01743 0.28751 0.51272 0.0
C121 C 0.98807 0.29057 0.5107 0.0
C122 C 0.97336 0.28934 0.45378 0.0
C123 C 0.98858 0.28621 0.3981 0.0
H124 H 0.71587 0.93466 0.52719 0.0
H125 H 0.69886 0.01542 0.60824 0.0
H126 H 0.71593 0.00867 0.41148 0.0
C127 C 0.71271 0.95718 0.52165 0.0
C128 C 0.71718 0.96976 0.46328 0.0
C129 C 0.7062 0.97348 0.57402 0.0
C130 C 0.70288 0.00275 0.56727 0.0
C131 C 0.70586 0.01573 0.50847 0.0
C132 C 0.71285 -0.00108 0.45664 0.0
H133 H 0.5385 0.26123 0.00191 0.0
H134 H 0.46242 0.22824 0.08109 0.0
H135 H 0.47547 0.22531 0.88189 0.0
C136 C 0.51812 0.25119 0.99565 0.0
C137 C 0.50886 0.24402 0.93571 0.0
C138 C 0.50158 0.24522 0.04788 0.0
C139 C 0.47525 0.23224 0.0403 0.0
C140 C 0.4652 0.22542 0.98027 0.0
C141 C 0.48235 0.23127 0.92821 0.0
H142 H 0.19302 0.02995 0.43403 0.0
H143 H 0.22956 0.95619 0.35132 0.0
H144 H 0.22846 0.9657 0.55126 0.0
C145 C 0.2028 0.00939 0.43909 0.0
C146 C 0.21022 -0.00038 0.49852 0.0
C147 C 0.20977 0.99379 0.3859 0.0
C148 C 0.22373 0.96788 0.39264 0.0
C149 C 0.23038 0.95724 0.45222 0.0
C150 C 0.22364 0.97346 0.50491 0.0
H151 H 0.4524 0.74475 0.04394 0.0
H152 H 0.53187 0.75274 0.95083 0.0
H153 H 0.52916 0.74381 0.15071 0.0
C154 C 0.47516 0.74661 0.04615 0.0
C155 C 0.48889 0.74469 0.10398 0.0
C156 C 0.49053 0.74924 0.99079 0.0
C157 C 0.51999 0.75024 0.99358 0.0
C158 C 0.53414 0.7484 0.0511 0.0
C159 C 0.51843 0.74559 0.10622 0.0
H160 H 0.08527 0.19783 0.07704 0.0
H161 H 0.06915 0.30482 0.36255 0.0
H162 H 0.15478 0.24263 0.16198 0.0
H163 H 0.00381 0.24664 0.30616 0.0
H164 H 0.09851 0.28797 0.2771 0.0
H165 H 0.05309 0.22081 0.14978 0.0
C166 C 0.09378 0.21253 0.1108 0.0
C167 C 0.12285 0.21808 0.11374 0.0
C168 C 0.07764 0.27908 0.28307 0.0
C169 C 0.08608 0.2446 0.19665 0.0
C170 C 0.06088 0.2887 0.33179 0.0
C171 C 0.03411 0.27692 0.34192 0.0
C172 C 0.06758 0.25753 0.24407 0.0
C173 C 0.02424 0.25644 0.29993 0.0
C174 C 0.07538 0.22564 0.15227 0.0
C175 C 0.13261 0.23743 0.15836 0.0
N176 N 0.04109 0.2472 0.25315 0.0
N177 N 0.11428 0.24994 0.19806 0.0
H178 H 0.31721 0.59237 0.69085 0.0
H179 H 0.23061 0.56011 0.00238 0.0
H180 H 0.26243 0.65298 0.77919 0.0
H181 H 0.28739 0.50088 0.91625 0.0
H182 H 0.2403 0.59376 0.91856 0.0
H183 H 0.3048 0.55793 0.77063 0.0
C184 C 0.30255 0.59849 0.72695 0.0
C185 C 0.29095 0.62574 0.72831 0.0
C186 C 0.25055 0.57336 0.91785 0.0
C187 C 0.27662 0.58622 0.82 0.0
C188 C 0.2451 0.55419 0.96578 0.0
C189 C 0.25829 0.52769 0.96638 0.0
C190 C 0.26936 0.566 0.87022 0.0
C191 C 0.27654 0.52095 0.91731 0.0
C192 C 0.29545 0.57875 0.77253 0.0
C193 C 0.27198 0.6323 0.77627 0.0
N194 N 0.28163 0.54003 0.87137 0.0
N195 N 0.26546 0.61269 0.82027 0.0
H196 H 0.89079 0.75526 0.13679 0.0
H197 H 0.98692 0.83531 0.37216 0.0
H198 H 0.9037 0.84534 0.1247 0.0
H199 H -0.0027 0.74661 0.33467 0.0
H200 H 0.96016 0.84022 0.2751 0.0
H201 H 0.9327 0.75156 0.2025 0.0
C202 C 0.90266 0.77422 0.14737 0.0
C203 C 0.8935 0.8007 0.1262 0.0
C204 C 0.96889 0.81981 0.28718 0.0
C205 C 0.94128 0.79667 0.20183 0.0
C206 C 0.98414 0.81705 0.34245 0.0
C207 C 0.99402 0.7905 0.36128 0.0
C208 C 0.96292 0.79568 0.25155 0.0
C209 C 0.98996 0.76743 0.32152 0.0
C210 C 0.92669 0.77208 0.18456 0.0
C211 C 0.90991 0.82453 0.14049 0.0
N212 N 0.97414 0.7704 0.26908 0.0
N213 N 0.93271 0.82203 0.17853 0.0
H214 H 0.69071 0.40388 0.59652 0.0
H215 H 0.74645 0.5001 0.80721 0.0
H216 H 0.75928 0.34925 0.65121 0.0
H217 H 0.793 0.42858 0.87707 0.0
H218 H 0.73454 0.47316 0.71377 0.0
H219 H 0.70947 0.4404 0.66451 0.0
C220 C 0.70998 0.39971 0.62207 0.0
C221 C 0.72318 0.37324 0.61864 0.0
C222 C 0.74728 0.46323 0.74939 0.0
C223 C 0.74535 0.41538 0.69606 0.0
C224 C 0.75452 0.47885 0.80229 0.0
C225 C 0.7703 0.46633 0.85027 0.0
C226 C 0.75577 0.43484 0.74499 0.0
C227 C 0.7803 0.43879 0.84162 0.0
C228 C 0.72092 0.42078 0.66069 0.0
C229 C 0.74812 0.36914 0.65282 0.0
N230 N 0.77261 0.42389 0.79043 0.0
N231 N 0.75816 0.38983 0.69049 0.0
H232 H 0.62285 0.23778 0.33403 0.0
H233 H 0.51274 0.29714 0.09549 0.0
H234 H 0.59266 0.32352 0.34511 0.0
H235 H 0.51736 0.20845 0.13901 0.0
H236 H 0.54043 0.30756 0.18926 0.0
H237 H 0.58345 0.22627 0.26502 0.0
C238 C 0.60775 0.25412 0.32243 0.0
C239 C 0.61121 0.28174 0.34473 0.0
C240 C 0.53487 0.28586 0.17918 0.0
C241 C 0.56627 0.26876 0.26531 0.0
C242 C 0.51908 0.27997 0.12587 0.0
C243 C 0.51286 0.25197 0.11011 0.0
C244 C 0.54511 0.26349 0.21582 0.0
C245 C 0.52168 0.23032 0.15017 0.0
C246 C 0.58518 0.24749 0.28334 0.0
C247 C 0.59084 0.30198 0.32878 0.0
N248 N 0.53786 0.23649 0.20073 0.0
N249 N 0.5695 0.29522 0.28909 0.0
H250 H 0.14426 0.10781 0.78873 0.0
H251 H 0.24911 0.01521 0.58515 0.0
H252 H 0.23286 0.12718 0.77138 0.0
H253 H 0.16162 0.02564 0.53525 0.0
H254 H 0.24277 0.04881 0.67063 0.0
H255 H 0.14979 0.07024 0.71136 0.0
C256 C 0.16489 0.10403 0.76897 0.0
C257 C 0.18813 0.12069 0.78614 0.0
C258 C 0.22494 0.04356 0.64119 0.0
C259 C 0.19457 0.07772 0.69873 0.0
C260 C 0.22848 0.02431 0.59289 0.0
C261 C 0.20583 0.0178 0.55336 0.0
C262 C 0.19848 0.05599 0.65046 0.0
C263 C 0.17959 0.03032 0.5647 0.0
C264 C 0.16797 0.08272 0.72478 0.0
C265 C 0.21436 0.11498 0.75898 0.0
N266 N 0.17658 0.04884 0.61246 0.0
N267 N 0.21691 0.09385 0.71676 0.0
H268 H 0.34549 0.73138 0.34177 0.0
H269 H 0.49823 0.70691 0.19893 0.0
H270 H 0.4059 0.67435 0.42485 0.0
H271 H 0.44093 0.77211 0.13822 0.0
H272 H 0.46628 0.69579 0.28517 0.0
H273 H 0.38118 0.74694 0.26853 0.0
C274 C 0.36628 0.72203 0.34458 0.0
C275 C 0.3726 0.7013 0.3893 0.0
C276 C 0.46088 0.71273 0.25335 0.0
C277 C 0.41381 0.71925 0.30521 0.0
C278 C 0.47918 0.7192 0.20442 0.0
C279 C 0.47201 0.74024 0.16106 0.0
C280 C 0.43529 0.72738 0.25857 0.0
C281 C 0.44698 0.75537 0.16996 0.0
C282 C 0.38675 0.7311 0.30285 0.0
C283 C 0.40006 0.69029 0.391 0.0
N284 N 0.42943 0.74846 0.21734 0.0
N285 N 0.41965 0.69927 0.34917 0.0
H286 H 0.78472 0.90732 0.89896 0.0
H287 H 0.68009 0.92474 0.61111 0.0
H288 H 0.73275 0.84015 0.8254 0.0
H289 H 0.73521 0.99073 0.67726 0.0
H290 H 0.69162 0.89671 0.70346 0.0
H291 H 0.76001 0.94078 0.83176 0.0
C292 C 0.76796 0.89959 0.86916 0.0
C293 C 0.76121 0.87071 0.86707 0.0
C294 C 0.7008 0.91754 0.69848 0.0
C295 C 0.73281 0.90904 0.78993 0.0
C296 C 0.69413 0.93356 0.6459 0.0
C297 C 0.70703 0.95988 0.63623 0.0
C298 C 0.72072 0.92781 0.74136 0.0
C299 C 0.72483 0.97051 0.68294 0.0
C300 C 0.75381 0.91877 0.83085 0.0
C301 C 0.73901 0.86211 0.82802 0.0
N302 N 0.73157 0.95421 0.73299 0.0
N303 N 0.72585 0.88112 0.79051 0.0
H304 H 0.90413 0.82979 0.87677 0.0
H305 H 0.93614 0.77438 0.53286 0.0
H306 H 0.84589 0.78068 0.76589 0.0
H307 H 0.00109 0.8072 0.65394 0.0
H308 H 0.90181 0.78074 0.6157 0.0
H309 H 0.93919 0.82539 0.79379 0.0
C310 C 0.89869 0.81811 0.83509 0.0
C311 C 0.872 0.80556 0.82838 0.0
C312 C 0.92355 0.78661 0.6243 0.0
C313 C 0.9119 0.80061 0.7335 0.0
C314 C 0.94311 0.7832 0.57682 0.0
C315 C 0.97144 0.79044 0.58652 0.0
C316 C 0.9323 0.79741 0.68204 0.0
C317 C 0.97943 0.80124 0.6448 0.0
C318 C 0.91873 0.81558 0.78788 0.0
C319 C 0.86617 0.79064 0.77339 0.0
N320 N 0.95991 0.80448 0.69049 0.0
N321 N 0.88591 0.78866 0.72812 0.0
H322 H 0.71604 0.40155 0.38161 0.0
H323 H 0.71816 0.44221 0.02294 0.0
H324 H 0.69736 0.34231 0.23473 0.0
H325 H 0.78121 0.47647 0.1473 0.0
H326 H 0.70082 0.41257 0.10729 0.0
H327 H 0.7312 0.43614 0.3022 0.0
C328 C 0.71491 0.39597 0.33275 0.0
C329 C 0.70555 0.36908 0.31447 0.0
C330 C 0.71841 0.42664 0.11609 0.0
C331 C 0.72223 0.40833 0.22447 0.0
C332 C 0.72851 0.44345 0.0679 0.0
C333 C 0.75178 0.46134 0.07738 0.0
C334 C 0.73118 0.428 0.17487 0.0
C335 C 0.76336 0.46289 0.13769 0.0
C336 C 0.72368 0.41556 0.28778 0.0
C337 C 0.70462 0.36274 0.25075 0.0
N338 N 0.75301 0.44627 0.18431 0.0
N339 N 0.71267 0.38227 0.20806 0.0
H340 H 0.15285 0.26028 0.76938 0.0
H341 H 0.00033 0.25702 0.61441 0.0
H342 H 0.08427 0.2086 0.83705 0.0
H343 H 0.06884 0.309 0.54793 0.0
H344 H 0.02836 0.2448 0.70593 0.0
H345 H 0.12039 0.28342 0.69764 0.0
C346 C 0.13092 0.2539 0.76953 0.0
C347 C 0.1214 0.23208 0.80869 0.0
C348 C 0.03714 0.25919 0.6718 0.0
C349 C 0.08406 0.25856 0.72626 0.0
C350 C 0.02104 0.26639 0.6197 0.0
C351 C 0.03237 0.28385 0.57305 0.0
C352 C 0.06485 0.26936 0.67716 0.0
C353 C 0.05948 0.29504 0.58217 0.0
C354 C 0.11236 0.26721 0.72856 0.0
C355 C 0.09263 0.22509 0.80733 0.0
N356 N 0.07492 0.28734 0.63279 0.0
N357 N 0.07505 0.23806 0.76621 0.0
H358 H 0.24084 0.6189 0.42063 0.0
H359 H 0.28972 0.48614 0.22148 0.0
H360 H 0.32342 0.58158 0.43746 0.0
H361 H 0.2167 0.53729 0.18292 0.0
H362 H 0.29683 0.51207 0.31948 0.0
H363 H 0.22628 0.57998 0.35415 0.0
C364 C 0.25584 0.60229 0.41081 0.0
C365 C 0.2836 0.60378 0.43323 0.0
C366 C 0.27893 0.51718 0.29016 0.0
C367 C 0.26713 0.55928 0.35645 0.0
C368 C 0.27481 0.50234 0.23464 0.0
C369 C 0.25278 0.50994 0.19437 0.0
C370 C 0.2607 0.53949 0.30513 0.0
C371 C 0.23407 0.53109 0.21277 0.0
C372 C 0.2475 0.58004 0.37291 0.0
C373 C 0.30193 0.58135 0.4204 0.0
N374 N 0.2386 0.54531 0.26659 0.0
N375 N 0.29353 0.5602 0.38169 0.0
H376 H 0.35622 0.75545 0.72513 0.0
H377 H 0.50311 0.71848 0.88685 0.0
H378 H 0.40995 0.687 0.66647 0.0
H379 H 0.4438 0.77937 0.95749 0.0
H380 H 0.47407 0.71334 0.7931 0.0
H381 H 0.39284 0.77088 0.79707 0.0
C382 C 0.37582 0.74378 0.72687 0.0
C383 C 0.37975 0.71951 0.6905 0.0
C384 C 0.46762 0.72811 0.82873 0.0
C385 C 0.42179 0.7371 0.77323 0.0
C386 C 0.48426 0.73117 0.88201 0.0
C387 C 0.47559 0.7491 0.93021 0.0
C388 C 0.44221 0.74311 0.82376 0.0
C389 C 0.45092 0.76493 0.92184 0.0
C390 C 0.39675 0.75265 0.76803 0.0
C391 C 0.40582 0.70561 0.69413 0.0
N392 N 0.43495 0.76136 0.86992 0.0
N393 N 0.42572 0.71438 0.73546 0.0
H394 H 0.77449 0.90178 0.10811 0.0
H395 H 0.75731 0.92868 0.47122 0.0
H396 H 0.79237 0.83906 0.24907 0.0
H397 H 0.70524 0.97259 0.33704 0.0
H398 H 0.77648 0.90015 0.38776 0.0
H399 H 0.75498 0.93259 0.18934 0.0
C400 C 0.77445 0.89458 0.15605 0.0
C401 C 0.78503 0.86782 0.17194 0.0
C402 C 0.76076 0.91594 0.37657 0.0
C403 C 0.7631 0.90285 0.26434 0.0
C404 C 0.74957 0.93213 0.4243 0.0
C405 C 0.72907 0.95272 0.41154 0.0
C406 C 0.75187 0.92054 0.31509 0.0
C407 C 0.72094 0.95695 0.34914 0.0
C408 C 0.76319 0.91206 0.20212 0.0
C409 C 0.78431 0.85943 0.23464 0.0
N410 N 0.73239 0.94096 0.30306 0.0
N411 N 0.77369 0.87693 0.27851 0.0
H412 H 0.65465 0.26092 0.70247 0.0
H413 H 0.49547 0.26862 0.82326 0.0
H414 H 0.59026 0.30814 0.60501 0.0
H415 H 0.56459 0.23164 0.92557 0.0
H416 H 0.52809 0.28 0.73786 0.0
H417 H 0.62022 0.24703 0.77974 0.0
C418 C 0.63323 0.26844 0.69716 0.0
C419 C 0.62547 0.28593 0.64705 0.0
C420 C 0.53602 0.26932 0.77897 0.0
C421 C 0.5856 0.26988 0.73633 0.0
C422 C 0.51744 0.26269 0.82742 0.0
C423 C 0.52746 0.24941 0.88165 0.0
C424 C 0.56469 0.26236 0.78487 0.0
C425 C 0.55608 0.24228 0.88498 0.0
C426 C 0.6135 0.26043 0.74156 0.0
C427 C 0.59725 0.29476 0.64297 0.0
N428 N 0.57364 0.24889 0.83741 0.0
N429 N 0.5783 0.28667 0.68718 0.0
H430 H 0.14271 0.09487 0.0853 0.0
H431 H 0.24713 0.00026 0.29062 0.0
H432 H 0.23289 0.10655 0.09223 0.0
H433 H 0.16052 0.01561 0.34051 0.0
H434 H 0.24007 0.0277 0.19486 0.0
H435 H 0.14745 0.05447 0.15659 0.0
C436 C 0.16352 0.08855 0.10076 0.0
C437 C 0.18742 0.10421 0.08373 0.0
C438 C 0.2225 0.02461 0.2263 0.0
C439 C 0.19295 0.05821 0.16421 0.0
C440 C 0.22646 0.00886 0.2806 0.0
C441 C 0.20443 0.00601 0.32355 0.0
C442 C 0.19628 0.0373 0.21481 0.0
C443 C 0.1781 0.01771 0.30875 0.0
C444 C 0.16618 0.06565 0.14151 0.0
C445 C 0.2139 0.09524 0.10509 0.0
N446 N 0.17478 0.03307 0.25571 0.0
N447 N 0.21595 0.0729 0.14452 0.0
H448 H 0.2074 0.29813 0.89164 0.0
H449 H 0.26993 0.41466 0.12185 0.0
H450 H 0.23744 0.27919 0.07731 0.0
H451 H 0.21618 0.43496 0.96527 0.0
H452 H 0.26278 0.36455 0.10047 0.0
H453 H 0.21553 0.34833 0.91161 0.0
C454 C 0.21579 0.30449 0.93646 0.0
C455 C 0.22167 0.28444 0.98295 0.0
C456 C 0.25256 0.38002 0.07086 0.0
C457 C 0.23106 0.34168 0.00587 0.0
C458 C 0.2565 0.40862 0.08322 0.0
C459 C 0.24362 0.4291 0.04536 0.0
C460 C 0.23583 0.37181 0.01998 0.0
C461 C 0.2269 0.41996 0.99514 0.0
C462 C 0.2203 0.33313 0.94789 0.0
C463 C 0.23242 0.29391 0.04025 0.0
N464 N 0.22353 0.39198 0.98383 0.0
N465 N 0.23685 0.32185 0.05002 0.0
H466 H 0.19878 0.72014 0.65058 0.0
H467 H 0.06096 0.72181 0.43596 0.0
H468 H 0.19415 0.68174 0.46845 0.0
H469 H 0.07274 0.77452 0.59788 0.0
H470 H 0.10632 0.69943 0.45742 0.0
H471 H 0.1487 0.73143 0.64329 0.0
C472 C 0.18715 0.71357 0.60959 0.0
C473 C 0.20082 0.70045 0.55952 0.0
C474 C 0.09885 0.71576 0.48847 0.0
C475 C 0.14362 0.71358 0.55073 0.0
C476 C 0.07308 0.72871 0.47596 0.0
C477 C 0.06319 0.75035 0.51471 0.0
C478 C 0.11482 0.72445 0.54016 0.0
C479 C 0.07945 0.75787 0.56688 0.0
C480 C 0.15859 0.7202 0.60531 0.0
C481 C 0.1846 0.69233 0.50772 0.0
N482 N 0.10455 0.74506 0.57784 0.0
N483 N 0.15692 0.69934 0.50435 0.0
H484 H 0.82228 0.69559 0.89739 0.0
H485 H 0.76022 0.56065 0.05905 0.0
H486 H 0.80392 0.69278 0.09441 0.0
H487 H 0.82031 0.55188 0.90921 0.0
H488 H 0.7726 0.6103 0.06691 0.0
H489 H 0.819 0.64384 0.89441 0.0
C490 C 0.81797 0.68415 0.9401 0.0
C491 C 0.81313 0.69864 0.99611 0.0
C492 C 0.78322 0.5974 0.03266 0.0
C493 C 0.80881 0.63977 0.99257 0.0
C494 C 0.77631 0.56889 0.0283 0.0
C495 C 0.78929 0.55168 0.98355 0.0
C496 C 0.80277 0.60916 0.99112 0.0
C497 C 0.80932 0.56424 0.94375 0.0
C498 C 0.81613 0.65468 0.93831 0.0
C499 C 0.8077 0.68265 0.05006 0.0
N500 N 0.81523 0.5923 0.94801 0.0
N501 N 0.80522 0.65417 0.0467 0.0
H502 H 0.79489 0.30134 0.36166 0.0
H503 H 0.93868 0.26183 0.53513 0.0
H504 H 0.80012 0.26797 0.54888 0.0
H505 H 0.93669 0.31459 0.37071 0.0
H506 H 0.88753 0.26048 0.53479 0.0
H507 H 0.8466 0.30278 0.35781 0.0
C508 C 0.80685 0.29423 0.40177 0.0
C509 C 0.79313 0.28457 0.45572 0.0
C510 C 0.89821 0.27248 0.49887 0.0
C511 C 0.85201 0.28611 0.45149 0.0
C512 C 0.92749 0.27345 0.49929 0.0
C513 C 0.94207 0.28872 0.45341 0.0
C514 C 0.88319 0.28664 0.4519 0.0
C515 C 0.92632 0.30251 0.40691 0.0
C516 C 0.83631 0.29517 0.39961 0.0
C517 C 0.80969 0.27572 0.5064 0.0
N518 N 0.89766 0.30117 0.40733 0.0
N519 N 0.83818 0.27666 0.50293 0.0
H520 H 0.681 0.19388 0.57808 0.0
H521 H 0.73719 0.05108 0.43384 0.0
H522 H 0.71718 0.18933 0.39396 0.0
H523 H 0.66989 0.05199 0.56917 0.0
H524 H 0.73372 0.10218 0.425 0.0
H525 H 0.68039 0.14218 0.58262 0.0
C526 C 0.68875 0.18203 0.53859 0.0
C527 C 0.69923 0.19593 0.48561 0.0
C528 C 0.7196 0.09114 0.45631 0.0
C529 C 0.69884 0.13698 0.49088 0.0
C530 C 0.72139 0.06187 0.46115 0.0
C531 C 0.70363 0.04696 0.50202 0.0
C532 C 0.7003 0.10582 0.49338 0.0
C533 C 0.68427 0.0625 0.53763 0.0
C534 C 0.68827 0.15257 0.54115 0.0
C535 C 0.70885 0.17951 0.43565 0.0
N536 N 0.68324 0.09111 0.53279 0.0
N537 N 0.70868 0.15091 0.43977 0.0
H538 H 0.29633 0.19209 0.8516 0.0
H539 H 0.43737 0.18711 0.05538 0.0
H540 H 0.29731 0.1695 0.04681 0.0
H541 H 0.42744 0.23542 0.88565 0.0
H542 H 0.38882 0.1703 0.04406 0.0
H543 H 0.34752 0.19622 0.85416 0.0
C544 C 0.30727 0.18748 0.89479 0.0
C545 C 0.29234 0.18098 0.94944 0.0
C546 C 0.39748 0.18436 0.00909 0.0
C547 C 0.35105 0.18588 0.95251 0.0
C548 C 0.42511 0.19417 0.01569 0.0
C549 C 0.43658 0.21302 0.97177 0.0
C550 C 0.38129 0.19319 0.95788 0.0
C551 C 0.4198 0.22073 0.92043 0.0
C552 C 0.33653 0.19001 0.89621 0.0
C553 C 0.30785 0.17498 0.00377 0.0
N554 N 0.39302 0.21089 0.91511 0.0
N555 N 0.33637 0.17791 0.00413 0.0
H556 H 0.27821 0.78282 0.41297 0.0
H557 H 0.27002 0.94055 0.53904 0.0
H558 H 0.29398 0.80354 0.606 0.0
H559 H 0.22161 0.90953 0.38252 0.0
H560 H 0.28869 0.89299 0.55514 0.0
H561 H 0.26833 0.8323 0.39184 0.0
C562 C 0.27995 0.79777 0.4509 0.0
C563 C 0.28656 0.78885 0.5117 0.0
C564 C 0.27413 0.89679 0.5171 0.0
C565 C 0.27525 0.84564 0.48734 0.0
C566 C 0.26327 0.92385 0.50802 0.0
C567 C 0.24388 0.92913 0.45967 0.0
C568 C 0.26593 0.87498 0.47696 0.0
C569 C 0.23668 0.90672 0.41994 0.0
C570 C 0.27417 0.82602 0.43869 0.0
C571 C 0.28865 0.80938 0.55863 0.0
N572 N 0.24767 0.88064 0.42956 0.0
N573 N 0.28284 0.83688 0.54553 0.0
H574 H 0.70971 0.78612 0.13035 0.0
H575 H 0.57087 0.72172 0.97339 0.0
H576 H 0.7065 0.75023 0.9456 0.0
H577 H 0.56833 0.77669 0.13343 0.0
H578 H 0.62204 0.72602 0.97193 0.0
H579 H 0.65904 0.77708 0.14116 0.0
C580 C 0.69841 0.77624 0.09225 0.0
C581 C 0.7123 0.76911 0.0368 0.0
C582 C 0.61032 0.7371 0.0075 0.0
C583 C 0.65466 0.75861 0.04906 0.0
C584 C 0.58111 0.73474 0.00819 0.0
C585 C 0.56531 0.74921 0.05303 0.0
C586 C 0.62392 0.75397 0.05208 0.0
C587 C 0.57973 0.76515 0.09811 0.0
C588 C 0.66955 0.77116 0.09842 0.0
C589 C 0.69665 0.75636 0.98893 0.0
N590 N 0.60829 0.76726 0.09628 0.0
N591 N 0.6687 0.75153 0.9962 0.0
loop_
_geom_bond_atom_site_label_1
_geom_bond_atom_site_label_2
_geom_bond_distance
_geom_bond_site_symmetry_2
_ccdc_geom_bond_type
Sc0 O3 2.030 . S
Sc0 O10 2.105 . S
Sc0 O13 2.105 . S
Sc0 O16 2.105 . S
Sc0 O19 2.105 . S
Sc1 O3 2.025 . S
Sc1 O11 2.108 . S
Sc1 O15 2.101 1_554 S
Sc1 O17 2.108 . S
Sc1 O21 2.101 1_554 S
Sc2 O3 2.021 1_556 S
Sc2 O12 2.105 . S
Sc2 O14 2.105 . S
Sc2 O18 2.105 . S
Sc2 O20 2.105 . S
O3 Sc0 2.030 . S
O3 Sc1 2.025 . S
O3 Sc2 2.021 1_554 S
C4 O10 1.271 . S
C4 O20 1.265 1_554 S
C5 O11 1.268 . S
C5 O19 1.268 . S
C6 O12 1.268 . S
C6 O21 1.268 . S
C7 O13 1.268 . S
C7 O17 1.268 . S
C8 O14 1.262 1_554 S
C8 O16 1.274 . S
C9 O15 1.268 . S
C9 O18 1.268 . S
O10 Sc0 2.105 . S
O10 C4 1.271 . S
O11 Sc1 2.108 . S
O11 C5 1.268 . S
O12 Sc2 2.105 . S
O12 C6 1.268 . S
O13 Sc0 2.105 . S
O13 C7 1.268 . S
O14 Sc2 2.105 . S
O14 C8 1.262 1_556 S
O15 Sc1 2.101 1_556 S
O15 C9 1.268 . S
O16 Sc0 2.105 . S
O16 C8 1.274 . S
O17 Sc1 2.108 . S
O17 C7 1.268 . S
O18 Sc2 2.105 . S
O18 C9 1.268 . S
O19 Sc0 2.105 . S
O19 C5 1.268 . S
O20 Sc2 2.105 . S
O20 C4 1.265 1_556 S
O21 Sc1 2.101 1_556 S
O21 C6 1.268 . S
Sc22 O25 2.025 . S
Sc22 O32 2.105 . S
Sc22 O35 2.105 . S
Sc22 O38 2.105 . S
Sc22 O41 2.105 . S
Sc23 O25 2.025 . S
Sc23 O33 2.105 . S
Sc23 O37 2.105 . S
Sc23 O39 2.105 . S
Sc23 O43 2.105 . S
Sc24 O25 2.025 . S
Sc24 O34 2.105 . S
Sc24 O36 2.105 . S
Sc24 O40 2.105 . S
Sc24 O42 2.105 . S
O25 Sc22 2.025 . S
O25 Sc23 2.025 . S
O25 Sc24 2.025 . S
C26 O32 1.268 . S
C26 O42 1.268 . S
C27 O33 1.268 . S
C27 O41 1.268 . S
C28 O34 1.268 . S
C28 O43 1.268 . S
C29 O35 1.268 . S
C29 O39 1.268 . S
C30 O36 1.268 . S
C30 O38 1.268 . S
C31 O37 1.268 . S
C31 O40 1.268 . S
O32 Sc22 2.105 . S
O32 C26 1.268 . S
O33 Sc23 2.105 . S
O33 C27 1.268 . S
O34 Sc24 2.105 . S
O34 C28 1.268 . S
O35 Sc22 2.105 . S
O35 C29 1.268 . S
O36 Sc24 2.105 . S
O36 C30 1.268 . S
O37 Sc23 2.105 . S
O37 C31 1.268 . S
O38 Sc22 2.105 . S
O38 C30 1.268 . S
O39 Sc23 2.105 . S
O39 C29 1.268 . S
O40 Sc24 2.105 . S
O40 C31 1.268 . S
O41 Sc22 2.105 . S
O41 C27 1.268 . S
O42 Sc24 2.105 . S
O42 C26 1.268 . S
O43 Sc23 2.105 . S
O43 C28 1.268 . S
Sc44 O47 2.021 1_556 S
Sc44 O54 2.105 . S
Sc44 O57 2.105 . S
Sc44 O60 2.105 . S
Sc44 O63 2.105 . S
Sc45 O47 2.025 . S
Sc45 O55 2.101 1_554 S
Sc45 O59 2.108 . S
Sc45 O61 2.101 1_554 S
Sc45 O65 2.108 . S
Sc46 O47 2.030 . S
Sc46 O56 2.105 . S
Sc46 O58 2.105 . S
Sc46 O62 2.105 . S
Sc46 O64 2.105 . S
O47 Sc44 2.021 1_554 S
O47 Sc45 2.025 . S
O47 Sc46 2.030 . S
C48 O54 1.265 1_554 S
C48 O64 1.271 . S
C49 O55 1.268 . S
C49 O63 1.268 . S
C50 O56 1.268 . S
C50 O65 1.268 . S
C51 O57 1.268 . S
C51 O61 1.268 . S
C52 O58 1.274 . S
C52 O60 1.262 1_554 S
C53 O59 1.268 . S
C53 O62 1.268 . S
O54 Sc44 2.105 . S
O54 C48 1.265 1_556 S
O55 Sc45 2.101 1_556 S
O55 C49 1.268 . S
O56 Sc46 2.105 . S
O56 C50 1.268 . S
O57 Sc44 2.105 . S
O57 C51 1.268 . S
O58 Sc46 2.105 . S
O58 C52 1.274 . S
O59 Sc45 2.108 . S
O59 C53 1.268 . S
O60 Sc44 2.105 . S
O60 C52 1.262 1_556 S
O61 Sc45 2.101 1_556 S
O61 C51 1.268 . S
O62 Sc46 2.105 . S
O62 C53 1.268 . S
O63 Sc44 2.105 . S
O63 C49 1.268 . S
O64 Sc46 2.105 . S
O64 C48 1.271 . S
O65 Sc45 2.108 . S
O65 C50 1.268 . S
Sc66 O69 2.025 . S
Sc66 O76 2.105 . S
Sc66 O79 2.105 . S
Sc66 O82 2.105 . S
Sc66 O85 2.105 . S
Sc67 O69 2.025 . S
Sc67 O77 2.105 . S
Sc67 O81 2.105 . S
Sc67 O83 2.105 . S
Sc67 O87 2.105 . S
Sc68 O69 2.025 . S
Sc68 O78 2.105 . S
Sc68 O80 2.105 . S
Sc68 O84 2.105 . S
Sc68 O86 2.105 . S
O69 Sc66 2.025 . S
O69 Sc67 2.025 . S
O69 Sc68 2.025 . S
C70 O76 1.268 . S
C70 O86 1.268 . S
C71 O77 1.268 . S
C71 O85 1.268 . S
C72 O78 1.268 . S
C72 O87 1.268 . S
C73 O79 1.268 . S
C73 O83 1.268 . S
C74 O80 1.268 . S
C74 O82 1.268 . S
C75 O81 1.268 . S
C75 O84 1.268 . S
O76 Sc66 2.105 . S
O76 C70 1.268 . S
O77 Sc67 2.105 . S
O77 C71 1.268 . S
O78 Sc68 2.105 . S
O78 C72 1.268 . S
O79 Sc66 2.105 . S
O79 C73 1.268 . S
O80 Sc68 2.105 . S
O80 C74 1.268 . S
O81 Sc67 2.105 . S
O81 C75 1.268 . S
O82 Sc66 2.105 . S
O82 C74 1.268 . S
O83 Sc67 2.105 . S
O83 C73 1.268 . S
O84 Sc68 2.105 . S
O84 C75 1.268 . S
O85 Sc66 2.105 . S
O85 C71 1.268 . S
O86 Sc68 2.105 . S
O86 C70 1.268 . S
O87 Sc67 2.105 . S
O87 C72 1.268 . S
H88 C91 0.931 . S
H89 C94 0.928 . S
H90 C96 0.930 . S
C91 H88 0.931 . S
C91 C92 1.398 1_556 S
C91 C93 1.376 . S
C92 C91 1.398 1_554 S
C92 C96 1.429 . S
C93 C91 1.376 . S
C93 C94 1.372 . S
C94 H89 0.928 . S
C94 C93 1.372 . S
C94 C95 1.407 . S
C95 C94 1.407 . S
C95 C96 1.387 1_556 S
C96 H90 0.930 . S
C96 C92 1.429 . S
C96 C95 1.387 1_554 S
H97 C100 0.931 . S
H98 C103 0.928 1_455 S
H99 C105 0.930 1_455 S
C100 H97 0.931 . S
C100 C101 1.413 . S
C100 C102 1.360 . S
C101 C100 1.413 . S
C101 C105 1.429 . S
C102 C100 1.360 . S
C102 C103 1.372 . S
C103 H98 0.928 1_655 S
C103 C102 1.372 . S
C103 C104 1.404 1_655 S
C104 C103 1.404 1_455 S
C104 C105 1.391 1_455 S
C105 H99 0.930 1_655 S
C105 C101 1.429 . S
C105 C104 1.391 1_655 S
H106 C109 0.931 . S
H107 C112 0.928 . S
H108 C114 0.930 . S
C109 H106 0.931 . S
C109 C110 1.413 1_554 S
C109 C111 1.360 . S
C110 C109 1.413 1_556 S
C110 C114 1.429 . S
C111 C109 1.360 . S
C111 C112 1.372 . S
C112 H107 0.928 . S
C112 C111 1.372 . S
C112 C113 1.419 . S
C113 C112 1.419 . S
C113 C114 1.375 1_554 S
C114 H108 0.930 . S
C114 C110 1.429 . S
C114 C113 1.375 1_556 S
H115 C118 0.931 . S
H116 C121 0.928 1_655 S
H117 C123 0.930 1_655 S
C118 H115 0.931 . S
C118 C119 1.413 . S
C118 C120 1.360 . S
C119 C118 1.413 . S
C119 C123 1.429 . S
C120 C118 1.360 . S
C120 C121 1.372 . S
C121 H116 0.928 1_455 S
C121 C120 1.372 . S
C121 C122 1.404 1_455 S
C122 C121 1.404 1_655 S
C122 C123 1.391 1_655 S
C123 H117 0.930 1_455 S
C123 C119 1.429 . S
C123 C122 1.391 1_455 S
H124 C127 0.931 . S
H125 C130 0.928 1_545 S
H126 C132 0.930 1_545 S
C127 H124 0.931 . S
C127 C128 1.413 . S
C127 C129 1.360 . S
C128 C127 1.413 . S
C128 C132 1.429 . S
C129 C127 1.360 . S
C129 C130 1.372 . S
C130 H125 0.928 1_565 S
C130 C129 1.372 . S
C130 C131 1.404 1_565 S
C131 C130 1.404 1_545 S
C131 C132 1.391 1_545 S
C132 H126 0.930 1_565 S
C132 C128 1.429 . S
C132 C131 1.391 1_565 S
H133 C136 0.931 . S
H134 C139 0.928 . S
H135 C141 0.930 . S
C136 H133 0.931 . S
C136 C137 1.413 1_554 S
C136 C138 1.360 . S
C137 C136 1.413 1_556 S
C137 C141 1.429 . S
C138 C136 1.360 . S
C138 C139 1.372 . S
C139 H134 0.928 . S
C139 C138 1.372 . S
C139 C140 1.419 . S
C140 C139 1.419 . S
C140 C141 1.375 1_554 S
C141 H135 0.930 . S
C141 C137 1.429 . S
C141 C140 1.375 1_556 S
H142 C145 0.931 . S
H143 C148 0.928 1_565 S
H144 C150 0.930 1_565 S
C145 H142 0.931 . S
C145 C146 1.413 . S
C145 C147 1.360 . S
C146 C145 1.413 . S
C146 C150 1.429 . S
C147 C145 1.360 . S
C147 C148 1.372 . S
C148 H143 0.928 1_545 S
C148 C147 1.372 . S
C148 C149 1.404 1_545 S
C149 C148 1.404 1_565 S
C149 C150 1.391 1_565 S
C150 H144 0.930 1_545 S
C150 C146 1.429 . S
C150 C149 1.391 1_545 S
H151 C154 0.931 . S
H152 C157 0.928 . S
H153 C159 0.930 . S
C154 H151 0.931 . S
C154 C155 1.398 1_556 S
C154 C156 1.375 . S
C155 C154 1.398 1_554 S
C155 C159 1.429 . S
C156 C154 1.375 . S
C156 C157 1.372 . S
C157 H152 0.928 . S
C157 C156 1.372 . S
C157 C158 1.407 . S
C158 C157 1.407 . S
C158 C159 1.387 1_556 S
C159 H153 0.930 . S
C159 C155 1.429 . S
C159 C158 1.387 1_554 S
H160 C166 0.930 . S
H161 C170 0.930 . S
H162 C175 0.929 . S
H163 C173 0.929 . S
H164 C168 0.929 . S
H165 C174 0.929 . S
C166 H160 0.930 . S
C166 C167 1.367 . S
C166 C174 1.378 . S
C167 C166 1.367 . S
C167 C175 1.433 . S
C168 H164 0.929 . S
C168 C170 1.378 . S
C168 C172 1.350 . S
C169 C172 1.463 . S
C169 C174 1.350 . S
C169 N177 1.427 . S
C170 H161 0.930 . S
C170 C168 1.378 . S
C170 C171 1.367 . S
C171 C170 1.367 . S
C171 C173 1.433 . S
C172 C168 1.350 . S
C172 C169 1.463 . S
C172 N176 1.427 . S
C173 H163 0.929 . S
C173 C171 1.433 . S
C173 N176 1.384 . S
C174 H165 0.929 . S
C174 C166 1.378 . S
C174 C169 1.350 . S
C175 H162 0.929 . S
C175 C167 1.433 . S
C175 N177 1.384 . S
N176 C172 1.427 . S
N176 C173 1.384 . S
N177 C169 1.427 . S
N177 C175 1.384 . S
H178 C184 0.930 . S
H179 C188 0.930 . S
H180 C193 0.929 . S
H181 C191 0.929 . S
H182 C186 0.929 . S
H183 C192 0.929 . S
C184 H178 0.930 . S
C184 C185 1.367 . S
C184 C192 1.378 . S
C185 C184 1.367 . S
C185 C193 1.433 . S
C186 H182 0.929 . S
C186 C188 1.378 . S
C186 C190 1.350 . S
C187 C190 1.463 . S
C187 C192 1.350 . S
C187 N195 1.427 . S
C188 H179 0.930 . S
C188 C186 1.378 . S
C188 C189 1.367 . S
C189 C188 1.367 . S
C189 C191 1.433 . S
C190 C186 1.350 . S
C190 C187 1.463 . S
C190 N194 1.427 . S
C191 H181 0.929 . S
C191 C189 1.433 . S
C191 N194 1.384 . S
C192 H183 0.929 . S
C192 C184 1.378 . S
C192 C187 1.350 . S
C193 H180 0.929 . S
C193 C185 1.433 . S
C193 N195 1.384 . S
N194 C190 1.427 . S
N194 C191 1.384 . S
N195 C187 1.427 . S
N195 C193 1.384 . S
H196 C202 0.930 . S
H197 C206 0.930 . S
H198 C211 0.929 . S
H199 C209 0.929 . S
H200 C204 0.929 . S
H201 C210 0.929 . S
C202 H196 0.930 . S
C202 C203 1.367 . S
C202 C210 1.378 . S
C203 C202 1.367 . S
C203 C211 1.433 . S
C204 H200 0.929 . S
C204 C206 1.378 . S
C204 C208 1.350 . S
C205 C208 1.463 . S
C205 C210 1.350 . S
C205 N213 1.427 . S
C206 H197 0.930 . S
C206 C204 1.378 . S
C206 C207 1.367 . S
C207 C206 1.367 . S
C207 C209 1.433 . S
C208 C204 1.350 . S
C208 C205 1.463 . S
C208 N212 1.427 . S
C209 H199 0.929 . S
C209 C207 1.433 . S
C209 N212 1.384 . S
C210 H201 0.929 . S
C210 C202 1.378 . S
C210 C205 1.350 . S
C211 H198 0.929 . S
C211 C203 1.433 . S
C211 N213 1.384 . S
N212 C208 1.427 . S
N212 C209 1.384 . S
N213 C205 1.427 . S
N213 C211 1.384 . S
H214 C220 0.930 . S
H215 C224 0.930 . S
H216 C229 0.929 . S
H217 C227 0.929 . S
H218 C222 0.929 . S
H219 C228 0.929 . S
C220 H214 0.930 . S
C220 C221 1.367 . S
C220 C228 1.378 . S
C221 C220 1.367 . S
C221 C229 1.433 . S
C222 H218 0.929 . S
C222 C224 1.378 . S
C222 C226 1.350 . S
C223 C226 1.463 . S
C223 C228 1.350 . S
C223 N231 1.427 . S
C224 H215 0.930 . S
C224 C222 1.378 . S
C224 C225 1.367 . S
C225 C224 1.367 . S
C225 C227 1.433 . S
C226 C222 1.350 . S
C226 C223 1.463 . S
C226 N230 1.427 . S
C227 H217 0.929 . S
C227 C225 1.433 . S
C227 N230 1.384 . S
C228 H219 0.929 . S
C228 C220 1.378 . S
C228 C223 1.350 . S
C229 H216 0.929 . S
C229 C221 1.433 . S
C229 N231 1.384 . S
N230 C226 1.427 . S
N230 C227 1.384 . S
N231 C223 1.427 . S
N231 C229 1.384 . S
H232 C238 0.930 . S
H233 C242 0.930 . S
H234 C247 0.929 . S
H235 C245 0.929 . S
H236 C240 0.929 . S
H237 C246 0.929 . S
C238 H232 0.930 . S
C238 C239 1.367 . S
C238 C246 1.378 . S
C239 C238 1.367 . S
C239 C247 1.433 . S
C240 H236 0.929 . S
C240 C242 1.378 . S
C240 C244 1.350 . S
C241 C244 1.463 . S
C241 C246 1.350 . S
C241 N249 1.427 . S
C242 H233 0.930 . S
C242 C240 1.378 . S
C242 C243 1.367 . S
C243 C242 1.367 . S
C243 C245 1.433 . S
C244 C240 1.350 . S
C244 C241 1.463 . S
C244 N248 1.427 . S
C245 H235 0.929 . S
C245 C243 1.433 . S
C245 N248 1.384 . S
C246 H237 0.929 . S
C246 C238 1.378 . S
C246 C241 1.350 . S
C247 H234 0.929 . S
C247 C239 1.433 . S
C247 N249 1.384 . S
N248 C244 1.427 . S
N248 C245 1.384 . S
N249 C241 1.427 . S
N249 C247 1.384 . S
H250 C256 0.930 . S
H251 C260 0.930 . S
H252 C265 0.929 . S
H253 C263 0.929 . S
H254 C258 0.929 . S
H255 C264 0.929 . S
C256 H250 0.930 . S
C256 C257 1.367 . S
C256 C264 1.378 . S
C257 C256 1.367 . S
C257 C265 1.433 . S
C258 H254 0.929 . S
C258 C260 1.378 . S
C258 C262 1.350 . S
C259 C262 1.463 . S
C259 C264 1.350 . S
C259 N267 1.427 . S
C260 H251 0.930 . S
C260 C258 1.378 . S
C260 C261 1.367 . S
C261 C260 1.367 . S
C261 C263 1.433 . S
C262 C258 1.350 . S
C262 C259 1.463 . S
C262 N266 1.427 . S
C263 H253 0.929 . S
C263 C261 1.433 . S
C263 N266 1.384 . S
C264 H255 0.929 . S
C264 C256 1.378 . S
C264 C259 1.350 . S
C265 H252 0.929 . S
C265 C257 1.433 . S
C265 N267 1.384 . S
N266 C262 1.427 . S
N266 C263 1.384 . S
N267 C259 1.427 . S
N267 C265 1.384 . S
H268 C274 0.930 . S
H269 C278 0.930 . S
H270 C283 0.929 . S
H271 C281 0.929 . S
H272 C276 0.929 . S
H273 C282 0.929 . S
C274 H268 0.930 . S
C274 C275 1.367 . S
C274 C282 1.378 . S
C275 C274 1.367 . S
C275 C283 1.433 . S
C276 H272 0.929 . S
C276 C278 1.378 . S
C276 C280 1.350 . S
C277 C280 1.463 . S
C277 C282 1.350 . S
C277 N285 1.427 . S
C278 H269 0.930 . S
C278 C276 1.378 . S
C278 C279 1.367 . S
C279 C278 1.367 . S
C279 C281 1.433 . S
C280 C276 1.350 . S
C280 C277 1.463 . S
C280 N284 1.427 . S
C281 H271 0.929 . S
C281 C279 1.433 . S
C281 N284 1.384 . S
C282 H273 0.929 . S
C282 C274 1.378 . S
C282 C277 1.350 . S
C283 H270 0.929 . S
C283 C275 1.433 . S
C283 N285 1.384 . S
N284 C280 1.427 . S
N284 C281 1.384 . S
N285 C277 1.427 . S
N285 C283 1.384 . S
H286 C292 0.930 . S
H287 C296 0.930 . S
H288 C301 0.929 . S
H289 C299 0.929 . S
H290 C294 0.929 . S
H291 C300 0.929 . S
C292 H286 0.930 . S
C292 C293 1.367 . S
C292 C300 1.378 . S
C293 C292 1.367 . S
C293 C301 1.433 . S
C294 H290 0.929 . S
C294 C296 1.378 . S
C294 C298 1.350 . S
C295 C298 1.463 . S
C295 C300 1.350 . S
C295 N303 1.427 . S
C296 H287 0.930 . S
C296 C294 1.378 . S
C296 C297 1.367 . S
C297 C296 1.367 . S
C297 C299 1.433 . S
C298 C294 1.350 . S
C298 C295 1.463 . S
C298 N302 1.427 . S
C299 H289 0.929 . S
C299 C297 1.433 . S
C299 N302 1.384 . S
C300 H291 0.929 . S
C300 C292 1.378 . S
C300 C295 1.350 . S
C301 H288 0.929 . S
C301 C293 1.433 . S
C301 N303 1.384 . S
N302 C298 1.427 . S
N302 C299 1.384 . S
N303 C295 1.427 . S
N303 C301 1.384 . S
H304 C310 0.930 . S
H305 C314 0.930 . S
H306 C319 0.929 . S
H307 C317 0.929 . S
H308 C312 0.929 . S
H309 C318 0.929 . S
C310 H304 0.930 . S
C310 C311 1.367 . S
C310 C318 1.378 . S
C311 C310 1.367 . S
C311 C319 1.433 . S
C312 H308 0.929 . S
C312 C314 1.378 . S
C312 C316 1.350 . S
C313 C316 1.463 . S
C313 C318 1.350 . S
C313 N321 1.427 . S
C314 H305 0.930 . S
C314 C312 1.378 . S
C314 C315 1.367 . S
C315 C314 1.367 . S
C315 C317 1.433 . S
C316 C312 1.350 . S
C316 C313 1.463 . S
C316 N320 1.427 . S
C317 H307 0.929 . S
C317 C315 1.433 . S
C317 N320 1.384 . S
C318 H309 0.929 . S
C318 C310 1.378 . S
C318 C313 1.350 . S
C319 H306 0.929 . S
C319 C311 1.433 . S
C319 N321 1.384 . S
N320 C316 1.427 . S
N320 C317 1.384 . S
N321 C313 1.427 . S
N321 C319 1.384 . S
H322 C328 0.930 . S
H323 C332 0.930 . S
H324 C337 0.929 . S
H325 C335 0.929 . S
H326 C330 0.929 . S
H327 C336 0.929 . S
C328 H322 0.930 . S
C328 C329 1.367 . S
C328 C336 1.378 . S
C329 C328 1.367 . S
C329 C337 1.433 . S
C330 H326 0.929 . S
C330 C332 1.378 . S
C330 C334 1.350 . S
C331 C334 1.463 . S
C331 C336 1.350 . S
C331 N339 1.427 . S
C332 H323 0.930 . S
C332 C330 1.378 . S
C332 C333 1.367 . S
C333 C332 1.367 . S
C333 C335 1.433 . S
C334 C330 1.350 . S
C334 C331 1.463 . S
C334 N338 1.427 . S
C335 H325 0.929 . S
C335 C333 1.433 . S
C335 N338 1.384 . S
C336 H327 0.929 . S
C336 C328 1.378 . S
C336 C331 1.350 . S
C337 H324 0.929 . S
C337 C329 1.433 . S
C337 N339 1.384 . S
N338 C334 1.427 . S
N338 C335 1.384 . S
N339 C331 1.427 . S
N339 C337 1.384 . S
H340 C346 0.930 . S
H341 C350 0.930 . S
H342 C355 0.929 . S
H343 C353 0.929 . S
H344 C348 0.929 . S
H345 C354 0.929 . S
C346 H340 0.930 . S
C346 C347 1.367 . S
C346 C354 1.378 . S
C347 C346 1.367 . S
C347 C355 1.433 . S
C348 H344 0.929 . S
C348 C350 1.378 . S
C348 C352 1.350 . S
C349 C352 1.463 . S
C349 C354 1.350 . S
C349 N357 1.427 . S
C350 H341 0.930 . S
C350 C348 1.378 . S
C350 C351 1.367 . S
C351 C350 1.367 . S
C351 C353 1.433 . S
C352 C348 1.350 . S
C352 C349 1.463 . S
C352 N356 1.427 . S
C353 H343 0.929 . S
C353 C351 1.433 . S
C353 N356 1.384 . S
C354 H345 0.929 . S
C354 C346 1.378 . S
C354 C349 1.350 . S
C355 H342 0.929 . S
C355 C347 1.433 . S
C355 N357 1.384 . S
N356 C352 1.427 . S
N356 C353 1.384 . S
N357 C349 1.427 . S
N357 C355 1.384 . S
H358 C364 0.930 . S
H359 C368 0.930 . S
H360 C373 0.929 . S
H361 C371 0.929 . S
H362 C366 0.929 . S
H363 C372 0.929 . S
C364 H358 0.930 . S
C364 C365 1.367 . S
C364 C372 1.378 . S
C365 C364 1.367 . S
C365 C373 1.433 . S
C366 H362 0.929 . S
C366 C368 1.378 . S
C366 C370 1.350 . S
C367 C370 1.463 . S
C367 C372 1.350 . S
C367 N375 1.427 . S
C368 H359 0.930 . S
C368 C366 1.378 . S
C368 C369 1.367 . S
C369 C368 1.367 . S
C369 C371 1.433 . S
C370 C366 1.350 . S
C370 C367 1.463 . S
C370 N374 1.427 . S
C371 H361 0.929 . S
C371 C369 1.433 . S
C371 N374 1.384 . S
C372 H363 0.929 . S
C372 C364 1.378 . S
C372 C367 1.350 . S
C373 H360 0.929 . S
C373 C365 1.433 . S
C373 N375 1.384 . S
N374 C370 1.427 . S
N374 C371 1.384 . S
N375 C367 1.427 . S
N375 C373 1.384 . S
H376 C382 0.930 . S
H377 C386 0.930 . S
H378 C391 0.929 . S
H379 C389 0.929 . S
H380 C384 0.929 . S
H381 C390 0.929 . S
C382 H376 0.930 . S
C382 C383 1.367 . S
C382 C390 1.378 . S
C383 C382 1.367 . S
C383 C391 1.433 . S
C384 H380 0.929 . S
C384 C386 1.378 . S
C384 C388 1.350 . S
C385 C388 1.463 . S
C385 C390 1.350 . S
C385 N393 1.427 . S
C386 H377 0.930 . S
C386 C384 1.378 . S
C386 C387 1.367 . S
C387 C386 1.367 . S
C387 C389 1.433 . S
C388 C384 1.350 . S
C388 C385 1.463 . S
C388 N392 1.427 . S
C389 H379 0.929 . S
C389 C387 1.433 . S
C389 N392 1.384 . S
C390 H381 0.929 . S
C390 C382 1.378 . S
C390 C385 1.350 . S
C391 H378 0.929 . S
C391 C383 1.433 . S
C391 N393 1.384 . S
N392 C388 1.427 . S
N392 C389 1.384 . S
N393 C385 1.427 . S
N393 C391 1.384 . S
H394 C400 0.930 . S
H395 C404 0.930 . S
H396 C409 0.929 . S
H397 C407 0.929 . S
H398 C402 0.929 . S
H399 C408 0.929 . S
C400 H394 0.930 . S
C400 C401 1.367 . S
C400 C408 1.378 . S
C401 C400 1.367 . S
C401 C409 1.433 . S
C402 H398 0.929 . S
C402 C404 1.378 . S
C402 C406 1.350 . S
C403 C406 1.463 . S
C403 C408 1.350 . S
C403 N411 1.427 . S
C404 H395 0.930 . S
C404 C402 1.378 . S
C404 C405 1.367 . S
C405 C404 1.367 . S
C405 C407 1.433 . S
C406 C402 1.350 . S
C406 C403 1.463 . S
C406 N410 1.427 . S
C407 H397 0.929 . S
C407 C405 1.433 . S
C407 N410 1.384 . S
C408 H399 0.929 . S
C408 C400 1.378 . S
C408 C403 1.350 . S
C409 H396 0.929 . S
C409 C401 1.433 . S
C409 N411 1.384 . S
N410 C406 1.427 . S
N410 C407 1.384 . S
N411 C403 1.427 . S
N411 C409 1.384 . S
H412 C418 0.930 . S
H413 C422 0.930 . S
H414 C427 0.929 . S
H415 C425 0.929 . S
H416 C420 0.929 . S
H417 C426 0.929 . S
C418 H412 0.930 . S
C418 C419 1.367 . S
C418 C426 1.378 . S
C419 C418 1.367 . S
C419 C427 1.433 . S
C420 H416 0.929 . S
C420 C422 1.378 . S
C420 C424 1.350 . S
C421 C424 1.463 . S
C421 C426 1.350 . S
C421 N429 1.427 . S
C422 H413 0.930 . S
C422 C420 1.378 . S
C422 C423 1.367 . S
C423 C422 1.367 . S
C423 C425 1.433 . S
C424 C420 1.350 . S
C424 C421 1.463 . S
C424 N428 1.427 . S
C425 H415 0.929 . S
C425 C423 1.433 . S
C425 N428 1.384 . S
C426 H417 0.929 . S
C426 C418 1.378 . S
C426 C421 1.350 . S
C427 H414 0.929 . S
C427 C419 1.433 . S
C427 N429 1.384 . S
N428 C424 1.427 . S
N428 C425 1.384 . S
N429 C421 1.427 . S
N429 C427 1.384 . S
H430 C436 0.930 . S
H431 C440 0.930 . S
H432 C445 0.929 . S
H433 C443 0.929 . S
H434 C438 0.929 . S
H435 C444 0.929 . S
C436 H430 0.930 . S
C436 C437 1.367 . S
C436 C444 1.378 . S
C437 C436 1.367 . S
C437 C445 1.433 . S
C438 H434 0.929 . S
C438 C440 1.378 . S
C438 C442 1.350 . S
C439 C442 1.463 . S
C439 C444 1.350 . S
C439 N447 1.427 . S
C440 H431 0.930 . S
C440 C438 1.378 . S
C440 C441 1.367 . S
C441 C440 1.367 . S
C441 C443 1.433 . S
C442 C438 1.350 . S
C442 C439 1.463 . S
C442 N446 1.427 . S
C443 H433 0.929 . S
C443 C441 1.433 . S
C443 N446 1.384 . S
C444 H435 0.929 . S
C444 C436 1.378 . S
C444 C439 1.350 . S
C445 H432 0.929 . S
C445 C437 1.433 . S
C445 N447 1.384 . S
N446 C442 1.427 . S
N446 C443 1.384 . S
N447 C439 1.427 . S
N447 C445 1.384 . S
H448 C454 0.930 . S
H449 C458 0.930 . S
H450 C463 0.929 . S
H451 C461 0.929 . S
H452 C456 0.929 . S
H453 C462 0.929 . S
C454 H448 0.930 . S
C454 C455 1.376 . S
C454 C462 1.378 . S
C455 C454 1.376 . S
C455 C463 1.424 1_556 S
C456 H452 0.929 . S
C456 C458 1.378 . S
C456 C460 1.350 . S
C457 C460 1.463 1_556 S
C457 C462 1.350 . S
C457 N465 1.427 1_556 S
C458 H449 0.930 . S
C458 C456 1.378 . S
C458 C459 1.367 . S
C459 C458 1.367 . S
C459 C461 1.433 1_554 S
C460 C456 1.350 . S
C460 C457 1.463 1_554 S
C460 N464 1.427 1_554 S
C461 H451 0.929 . S
C461 C459 1.433 1_556 S
C461 N464 1.384 . S
C462 H453 0.929 . S
C462 C454 1.378 . S
C462 C457 1.350 . S
C463 H450 0.929 . S
C463 C455 1.424 1_554 S
C463 N465 1.384 . S
N464 C460 1.427 1_556 S
N464 C461 1.384 . S
N465 C457 1.427 1_554 S
N465 C463 1.384 . S
H466 C472 0.930 . S
H467 C476 0.930 . S
H468 C481 0.929 . S
H469 C479 0.929 . S
H470 C474 0.929 . S
H471 C480 0.929 . S
C472 H466 0.930 . S
C472 C473 1.367 . S
C472 C480 1.378 . S
C473 C472 1.367 . S
C473 C481 1.433 . S
C474 H470 0.929 . S
C474 C476 1.378 . S
C474 C478 1.350 . S
C475 C478 1.463 . S
C475 C480 1.350 . S
C475 N483 1.427 . S
C476 H467 0.930 . S
C476 C474 1.378 . S
C476 C477 1.367 . S
C477 C476 1.367 . S
C477 C479 1.433 . S
C478 C474 1.350 . S
C478 C475 1.463 . S
C478 N482 1.427 . S
C479 H469 0.929 . S
C479 C477 1.433 . S
C479 N482 1.384 . S
C480 H471 0.929 . S
C480 C472 1.378 . S
C480 C475 1.350 . S
C481 H468 0.929 . S
C481 C473 1.433 . S
C481 N483 1.384 . S
N482 C478 1.427 . S
N482 C479 1.384 . S
N483 C475 1.427 . S
N483 C481 1.384 . S
H484 C490 0.930 . S
H485 C494 0.930 . S
H486 C499 0.929 . S
H487 C497 0.929 . S
H488 C492 0.929 . S
H489 C498 0.929 . S
C490 H484 0.930 . S
C490 C491 1.376 . S
C490 C498 1.378 . S
C491 C490 1.376 . S
C491 C499 1.424 1_556 S
C492 H488 0.929 . S
C492 C494 1.378 . S
C492 C496 1.350 . S
C493 C496 1.463 1_556 S
C493 C498 1.350 . S
C493 N501 1.427 1_556 S
C494 H485 0.930 . S
C494 C492 1.378 . S
C494 C495 1.367 . S
C495 C494 1.367 . S
C495 C497 1.433 1_554 S
C496 C492 1.350 . S
C496 C493 1.463 1_554 S
C496 N500 1.427 1_554 S
C497 H487 0.929 . S
C497 C495 1.433 1_556 S
C497 N500 1.384 . S
C498 H489 0.929 . S
C498 C490 1.378 . S
C498 C493 1.350 . S
C499 H486 0.929 . S
C499 C491 1.424 1_554 S
C499 N501 1.384 . S
N500 C496 1.427 1_556 S
N500 C497 1.384 . S
N501 C493 1.427 1_554 S
N501 C499 1.384 . S
H502 C508 0.930 . S
H503 C512 0.930 . S
H504 C517 0.929 . S
H505 C515 0.929 . S
H506 C510 0.929 . S
H507 C516 0.929 . S
C508 H502 0.930 . S
C508 C509 1.367 . S
C508 C516 1.378 . S
C509 C508 1.367 . S
C509 C517 1.433 . S
C510 H506 0.929 . S
C510 C512 1.378 . S
C510 C514 1.350 . S
C511 C514 1.463 . S
C511 C516 1.350 . S
C511 N519 1.427 . S
C512 H503 0.930 . S
C512 C510 1.378 . S
C512 C513 1.367 . S
C513 C512 1.367 . S
C513 C515 1.433 . S
C514 C510 1.350 . S
C514 C511 1.463 . S
C514 N518 1.427 . S
C515 H505 0.929 . S
C515 C513 1.433 . S
C515 N518 1.384 . S
C516 H507 0.929 . S
C516 C508 1.378 . S
C516 C511 1.350 . S
C517 H504 0.929 . S
C517 C509 1.433 . S
C517 N519 1.384 . S
N518 C514 1.427 . S
N518 C515 1.384 . S
N519 C511 1.427 . S
N519 C517 1.384 . S
H520 C526 0.930 . S
H521 C530 0.930 . S
H522 C535 0.929 . S
H523 C533 0.929 . S
H524 C528 0.929 . S
H525 C534 0.929 . S
C526 H520 0.930 . S
C526 C527 1.367 . S
C526 C534 1.378 . S
C527 C526 1.367 . S
C527 C535 1.433 . S
C528 H524 0.929 . S
C528 C530 1.378 . S
C528 C532 1.350 . S
C529 C532 1.463 . S
C529 C534 1.350 . S
C529 N537 1.427 . S
C530 H521 0.930 . S
C530 C528 1.378 . S
C530 C531 1.367 . S
C531 C530 1.367 . S
C531 C533 1.433 . S
C532 C528 1.350 . S
C532 C529 1.463 . S
C532 N536 1.427 . S
C533 H523 0.929 . S
C533 C531 1.433 . S
C533 N536 1.384 . S
C534 H525 0.929 . S
C534 C526 1.378 . S
C534 C529 1.350 . S
C535 H522 0.929 . S
C535 C527 1.433 . S
C535 N537 1.384 . S
N536 C532 1.427 . S
N536 C533 1.384 . S
N537 C529 1.427 . S
N537 C535 1.384 . S
H538 C544 0.930 . S
H539 C548 0.930 . S
H540 C553 0.929 . S
H541 C551 0.929 . S
H542 C546 0.929 . S
H543 C552 0.929 . S
C544 H538 0.930 . S
C544 C545 1.368 . S
C544 C552 1.378 . S
C545 C544 1.368 . S
C545 C553 1.432 1_556 S
C546 H542 0.929 . S
C546 C548 1.378 . S
C546 C550 1.350 . S
C547 C550 1.462 1_556 S
C547 C552 1.354 . S
C547 N555 1.423 1_556 S
C548 H539 0.930 . S
C548 C546 1.378 . S
C548 C549 1.375 . S
C549 C548 1.375 . S
C549 C551 1.426 1_554 S
C550 C546 1.350 . S
C550 C547 1.462 1_554 S
C550 N554 1.427 1_554 S
C551 H541 0.929 . S
C551 C549 1.426 1_556 S
C551 N554 1.384 . S
C552 H543 0.929 . S
C552 C544 1.378 . S
C552 C547 1.354 . S
C553 H540 0.929 . S
C553 C545 1.432 1_554 S
C553 N555 1.384 . S
N554 C550 1.427 1_556 S
N554 C551 1.384 . S
N555 C547 1.423 1_554 S
N555 C553 1.384 . S
H556 C562 0.930 . S
H557 C566 0.930 . S
H558 C571 0.929 . S
H559 C569 0.929 . S
H560 C564 0.929 . S
H561 C570 0.929 . S
C562 H556 0.930 . S
C562 C563 1.367 . S
C562 C570 1.378 . S
C563 C562 1.367 . S
C563 C571 1.433 . S
C564 H560 0.929 . S
C564 C566 1.378 . S
C564 C568 1.350 . S
C565 C568 1.463 . S
C565 C570 1.350 . S
C565 N573 1.427 . S
C566 H557 0.930 . S
C566 C564 1.378 . S
C566 C567 1.367 . S
C567 C566 1.367 . S
C567 C569 1.433 . S
C568 C564 1.350 . S
C568 C565 1.463 . S
C568 N572 1.427 . S
C569 H559 0.929 . S
C569 C567 1.433 . S
C569 N572 1.384 . S
C570 H561 0.929 . S
C570 C562 1.378 . S
C570 C565 1.350 . S
C571 H558 0.929 . S
C571 C563 1.433 . S
C571 N573 1.384 . S
N572 C568 1.427 . S
N572 C569 1.384 . S
N573 C565 1.427 . S
N573 C571 1.384 . S
H574 C580 0.930 . S
H575 C584 0.930 . S
H576 C589 0.929 . S
H577 C587 0.929 . S
H578 C582 0.929 . S
H579 C588 0.929 . S
C580 H574 0.930 . S
C580 C581 1.367 . S
C580 C588 1.378 . S
C581 C580 1.367 . S
C581 C589 1.433 1_554 S
C582 H578 0.929 . S
C582 C584 1.378 . S
C582 C586 1.350 . S
C583 C586 1.463 1_554 S
C583 C588 1.350 . S
C583 N591 1.427 1_554 S
C584 H575 0.930 . S
C584 C582 1.378 . S
C584 C585 1.380 . S
C585 C584 1.380 . S
C585 C587 1.419 1_556 S
C586 C582 1.350 . S
C586 C583 1.463 1_556 S
C586 N590 1.427 1_556 S
C587 H577 0.929 . S
C587 C585 1.419 1_554 S
C587 N590 1.384 . S
C588 H579 0.929 . S
C588 C580 1.378 . S
C588 C583 1.350 . S
C589 H576 0.929 . S
C589 C581 1.433 1_556 S
C589 N591 1.384 . S
N590 C586 1.427 1_554 S
N590 C587 1.384 . S
N591 C583 1.427 1_556 S
N591 C589 1.384 . S
C167 C5 1.416 . S
C171 C119 1.434 . S
C185 C31 1.420 . S
C189 C93 1.435 . S
C207 C102 1.434 . S
C203 C53 1.420 . S
C221 C71 1.419 . S
C225 C110 1.432 . S
C243 C138 1.434 . S
C239 C75 1.420 . S
C261 C146 1.437 . S
C257 C9 1.409 . S
C279 C155 1.431 . S
C275 C27 1.420 . S
C297 C129 1.438 . S
C293 C49 1.414 . S
C311 C51 1.410 . S
C315 C101 1.439 . S
C329 C72 1.421 . S
C333 C111 1.431 . S
C347 C6 1.415 . S
C351 C120 1.431 . S
C369 C92 1.438 . S
C365 C29 1.409 . S
C383 C28 1.415 . S
C387 C156 1.432 . S
C405 C128 1.433 . S
C401 C50 1.420 . S
C423 C137 1.434 . S
C419 C73 1.415 . S
C437 C7 1.408 . S
C441 C147 1.438 . S
C459 C95 1.480 1_554 S
C455 C4 1.475 1_556 S
C477 C104 1.482 . S
C473 C30 1.472 . S
C491 C52 1.475 1_556 S
C495 C113 1.477 . S
C509 C70 1.475 . S
C513 C122 1.479 . S
C531 C131 1.480 . S
C527 C74 1.477 . S
C545 C8 1.470 1_556 S
C549 C140 1.483 . S
C563 C26 1.471 . S
C567 C149 1.481 . S
C581 C48 1.474 . S
C585 C158 1.478 . S
