# Generated by pormake.
# Topology ctn, (3,4)-cn, num edge types: 1
# Building blocks:
#     Node 0, Type 0, BuildingBlock: BELTOD_clean_linker_0, # of connection points: 3
#     Node 1, Type 0, BuildingBlock: BELTOD_clean_linker_0, # of connection points: 3
#     Node 2, Type 0, BuildingBlock: BELTOD_clean_linker_0, # of connection points: 3
#     Node 3, Type 0, BuildingBlock: BELTOD_clean_linker_0, # of connection points: 3
#     Node 4, Type 0, BuildingBlock: BELTOD_clean_linker_0, # of connection points: 3
#     Node 5, Type 0, BuildingBlock: BELTOD_clean_linker_0, # of connection points: 3
#     Node 6, Type 0, BuildingBlock: BELTOD_clean_linker_0, # of connection points: 3
#     Node 7, Type 0, BuildingBlock: BELTOD_clean_linker_0, # of connection points: 3
#     Node 8, Type 0, BuildingBlock: BELTOD_clean_linker_0, # of connection points: 3
#     Node 9, Type 0, BuildingBlock: BELTOD_clean_linker_0, # of connection points: 3
#     Node 10, Type 0, BuildingBlock: BELTOD_clean_linker_0, # of connection points: 3
#     Node 11, Type 0, BuildingBlock: BELTOD_clean_linker_0, # of connection points: 3
#     Node 12, Type 0, BuildingBlock: BELTOD_clean_linker_0, # of connection points: 3
#     Node 13, Type 0, BuildingBlock: BELTOD_clean_linker_0, # of connection points: 3
#     Node 14, Type 0, BuildingBlock: BELTOD_clean_linker_0, # of connection points: 3
#     Node 15, Type 0, BuildingBlock: BELTOD_clean_linker_0, # of connection points: 3
#     Node 16, Type 1, BuildingBlock: NAHDIM_clean_sbu_0, # of connection points: 4
#     Node 17, Type 1, BuildingBlock: NAHDIM_clean_sbu_0, # of connection points: 4
#     Node 18, Type 1, BuildingBlock: NAHDIM_clean_sbu_0, # of connection points: 4
#     Node 19, Type 1, BuildingBlock: NAHDIM_clean_sbu_0, # of connection points: 4
#     Node 20, Type 1, BuildingBlock: NAHDIM_clean_sbu_0, # of connection points: 4
#     Node 21, Type 1, BuildingBlock: NAHDIM_clean_sbu_0, # of connection points: 4
#     Node 22, Type 1, BuildingBlock: NAHDIM_clean_sbu_0, # of connection points: 4
#     Node 23, Type 1, BuildingBlock: NAHDIM_clean_sbu_0, # of connection points: 4
#     Node 24, Type 1, BuildingBlock: NAHDIM_clean_sbu_0, # of connection points: 4
#     Node 25, Type 1, BuildingBlock: NAHDIM_clean_sbu_0, # of connection points: 4
#     Node 26, Type 1, BuildingBlock: NAHDIM_clean_sbu_0, # of connection points: 4
#     Node 27, Type 1, BuildingBlock: NAHDIM_clean_sbu_0, # of connection points: 4
#     Edge 28, Type (0, 1), BuildingBlock: UVAHIK_clean_linker_0, # of connection points: 2
#     Edge 29, Type (0, 1), BuildingBlock: UVAHIK_clean_linker_0, # of connection points: 2
#     Edge 30, Type (0, 1), BuildingBlock: UVAHIK_clean_linker_0, # of connection points: 2
#     Edge 31, Type (0, 1), BuildingBlock: UVAHIK_clean_linker_0, # of connection points: 2
#     Edge 32, Type (0, 1), BuildingBlock: UVAHIK_clean_linker_0, # of connection points: 2
#     Edge 33, Type (0, 1), BuildingBlock: UVAHIK_clean_linker_0, # of connection points: 2
#     Edge 34, Type (0, 1), BuildingBlock: UVAHIK_clean_linker_0, # of connection points: 2
#     Edge 35, Type (0, 1), BuildingBlock: UVAHIK_clean_linker_0, # of connection points: 2
#     Edge 36, Type (0, 1), BuildingBlock: UVAHIK_clean_linker_0, # of connection points: 2
#     Edge 37, Type (0, 1), BuildingBlock: UVAHIK_clean_linker_0, # of connection points: 2
#     Edge 38, Type (0, 1), BuildingBlock: UVAHIK_clean_linker_0, # of connection points: 2
#     Edge 39, Type (0, 1), BuildingBlock: UVAHIK_clean_linker_0, # of connection points: 2
#     Edge 40, Type (0, 1), BuildingBlock: UVAHIK_clean_linker_0, # of connection points: 2
#     Edge 41, Type (0, 1), BuildingBlock: UVAHIK_clean_linker_0, # of connection points: 2
#     Edge 42, Type (0, 1), BuildingBlock: UVAHIK_clean_linker_0, # of connection points: 2
#     Edge 43, Type (0, 1), BuildingBlock: UVAHIK_clean_linker_0, # of connection points: 2
#     Edge 44, Type (0, 1), BuildingBlock: UVAHIK_clean_linker_0, # of connection points: 2
#     Edge 45, Type (0, 1), BuildingBlock: UVAHIK_clean_linker_0, # of connection points: 2
#     Edge 46, Type (0, 1), BuildingBlock: UVAHIK_clean_linker_0, # of connection points: 2
#     Edge 47, Type (0, 1), BuildingBlock: UVAHIK_clean_linker_0, # of connection points: 2
#     Edge 48, Type (0, 1), BuildingBlock: UVAHIK_clean_linker_0, # of connection points: 2
#     Edge 49, Type (0, 1), BuildingBlock: UVAHIK_clean_linker_0, # of connection points: 2
#     Edge 50, Type (0, 1), BuildingBlock: UVAHIK_clean_linker_0, # of connection points: 2
#     Edge 51, Type (0, 1), BuildingBlock: UVAHIK_clean_linker_0, # of connection points: 2
#     Edge 52, Type (0, 1), BuildingBlock: UVAHIK_clean_linker_0, # of connection points: 2
#     Edge 53, Type (0, 1), BuildingBlock: UVAHIK_clean_linker_0, # of connection points: 2
#     Edge 54, Type (0, 1), BuildingBlock: UVAHIK_clean_linker_0, # of connection points: 2
#     Edge 55, Type (0, 1), BuildingBlock: UVAHIK_clean_linker_0, # of connection points: 2
#     Edge 56, Type (0, 1), BuildingBlock: UVAHIK_clean_linker_0, # of connection points: 2
#     Edge 57, Type (0, 1), BuildingBlock: UVAHIK_clean_linker_0, # of connection points: 2
#     Edge 58, Type (0, 1), BuildingBlock: UVAHIK_clean_linker_0, # of connection points: 2
#     Edge 59, Type (0, 1), BuildingBlock: UVAHIK_clean_linker_0, # of connection points: 2
#     Edge 60, Type (0, 1), BuildingBlock: UVAHIK_clean_linker_0, # of connection points: 2
#     Edge 61, Type (0, 1), BuildingBlock: UVAHIK_clean_linker_0, # of connection points: 2
#     Edge 62, Type (0, 1), BuildingBlock: UVAHIK_clean_linker_0, # of connection points: 2
#     Edge 63, Type (0, 1), BuildingBlock: UVAHIK_clean_linker_0, # of connection points: 2
#     Edge 64, Type (0, 1), BuildingBlock: UVAHIK_clean_linker_0, # of connection points: 2
#     Edge 65, Type (0, 1), BuildingBlock: UVAHIK_clean_linker_0, # of connection points: 2
#     Edge 66, Type (0, 1), BuildingBlock: UVAHIK_clean_linker_0, # of connection points: 2
#     Edge 67, Type (0, 1), BuildingBlock: UVAHIK_clean_linker_0, # of connection points: 2
#     Edge 68, Type (0, 1), BuildingBlock: UVAHIK_clean_linker_0, # of connection points: 2
#     Edge 69, Type (0, 1), BuildingBlock: UVAHIK_clean_linker_0, # of connection points: 2
#     Edge 70, Type (0, 1), BuildingBlock: UVAHIK_clean_linker_0, # of connection points: 2
#     Edge 71, Type (0, 1), BuildingBlock: UVAHIK_clean_linker_0, # of connection points: 2
#     Edge 72, Type (0, 1), BuildingBlock: UVAHIK_clean_linker_0, # of connection points: 2
#     Edge 73, Type (0, 1), BuildingBlock: UVAHIK_clean_linker_0, # of connection points: 2
#     Edge 74, Type (0, 1), BuildingBlock: UVAHIK_clean_linker_0, # of connection points: 2
#     Edge 75, Type (0, 1), BuildingBlock: UVAHIK_clean_linker_0, # of connection points: 2
# Relax obj value: 0.002
# Max RMSD: 0.036
# Mean RMSD: 0.022
data_MOF--net-ctn--node1-NAHDIM_clean_sbu_0--node2-BELTOD_clean_linker_0--edge1-UVAHIK_clean_linker_0
_symmetry_space_group_name_H-M    P1
_symmetry_Int_Tables_number       1
_symmetry_cell_setting            triclinic
loop_
_symmetry_equiv_pos_as_xyz
'x, y, z'
_cell_length_a     78.393416
_cell_length_b     79.31412
_cell_length_c     77.898109
_cell_angle_alpha  90.41835
_cell_angle_beta   90.119043
_cell_angle_gamma 92.749398
loop_
_atom_site_label
_atom_site_type_symbol
_atom_site_fract_x
_atom_site_fract_y
_atom_site_fract_z
_atom_type_partial_charge
P0 P 0.06633 0.07302 0.0768 0.0
H1 H 0.06484 0.06121 0.11201 0.0
H2 H 0.04136 0.05083 0.13028 0.0
H3 H 0.00595 0.05675 0.0884 0.0
H4 H 0.02951 0.06727 0.07025 0.0
H5 H 0.0986 0.07243 0.05869 0.0
H6 H 0.11551 0.04953 0.04785 0.0
H7 H 0.07647 0.01312 0.06481 0.0
H8 H 0.05971 0.03606 0.07571 0.0
H9 H 0.05622 0.10777 0.07661 0.0
H10 H 0.05925 0.06691 0.04009 0.0
O11 O 0.07969 0.08481 0.08914 0.0
H12 H 0.04609 0.12602 0.054 0.0
H13 H 0.04959 0.08521 0.01727 0.0
C14 C 0.04885 0.06534 0.08994 0.0
C15 C 0.05201 0.06033 0.1068 0.0
C16 C 0.0386 0.05427 0.11717 0.0
C17 C 0.02178 0.05303 0.11081 0.0
C18 C 0.01872 0.0578 0.09375 0.0
C19 C 0.03218 0.0638 0.08337 0.0
C20 C 0.07804 0.05594 0.06818 0.0
C21 C 0.09368 0.05951 0.06002 0.0
C22 C 0.10326 0.04642 0.05373 0.0
C23 C 0.09735 0.0295 0.05553 0.0
C24 C 0.08147 0.02601 0.06345 0.0
C25 C 0.07186 0.03913 0.06965 0.0
C26 C 0.05884 0.08615 0.05993 0.0
C27 C 0.05485 0.10279 0.06367 0.0
C28 C 0.04912 0.11322 0.05071 0.0
C29 C 0.04721 0.10715 0.03376 0.0
C30 C 0.05084 0.09027 0.03018 0.0
C31 C 0.05653 0.07984 0.04319 0.0
P32 P 0.31146 0.68174 0.19082 0.0
H33 H 0.30506 0.68449 0.15417 0.0
H34 H 0.29382 0.70672 0.13649 0.0
H35 H 0.28869 0.73789 0.18179 0.0
H36 H 0.2994 0.7153 0.19943 0.0
H37 H 0.3132 0.66988 0.22641 0.0
H38 H 0.32991 0.6799 0.25128 0.0
H39 H 0.35211 0.72075 0.22104 0.0
H40 H 0.33534 0.71066 0.19618 0.0
H41 H 0.30779 0.64499 0.19287 0.0
H42 H 0.2767 0.68743 0.20252 0.0
O43 O 0.32522 0.67124 0.179 0.0
H44 H 0.28408 0.62566 0.20117 0.0
H45 H 0.25293 0.66817 0.21099 0.0
C46 C 0.30351 0.69846 0.17801 0.0
C47 C 0.30161 0.69616 0.16026 0.0
C48 C 0.29523 0.70892 0.15017 0.0
C49 C 0.29054 0.7242 0.15768 0.0
C50 C 0.2921 0.72627 0.17559 0.0
C51 C 0.29842 0.71344 0.18567 0.0
C52 C 0.3227 0.68979 0.20955 0.0
C53 C 0.32147 0.68112 0.22516 0.0
C54 C 0.33113 0.68678 0.23935 0.0
C55 C 0.34224 0.70117 0.23814 0.0
C56 C 0.34343 0.70981 0.22245 0.0
C57 C 0.33387 0.70405 0.20824 0.0
C58 C 0.29386 0.6676 0.19673 0.0
C59 C 0.29583 0.65015 0.19669 0.0
C60 C 0.28231 0.63912 0.20158 0.0
C61 C 0.2666 0.6454 0.20667 0.0
C62 C 0.26477 0.66295 0.20688 0.0
C63 C 0.27835 0.67397 0.20206 0.0
P64 P 0.99162 0.49897 0.00977 0.0
H65 H 0.00812 0.4873 0.97846 0.0
H66 H 0.0089 0.45964 0.96458 0.0
H67 H 0.97661 0.43815 0.00449 0.0
H68 H 0.97576 0.46598 0.01824 0.0
H69 H 0.97819 0.52837 0.02638 0.0
H70 H 0.95019 0.54064 0.02611 0.0
H71 H 0.93087 0.4999 0.99321 0.0
H72 H 0.95901 0.48808 0.99308 0.0
H73 H 0.02575 0.50245 0.02471 0.0
H74 H 0.97451 0.49024 0.04215 0.0
O75 O 0.00456 0.51274 -0.0006 0.0
H76 H 0.03645 0.4997 0.054 0.0
H77 H 0.98512 0.48716 0.07146 0.0
C78 C 0.99193 0.47865 -0.00059 0.0
C79 C 0.0012 0.47666 0.98423 0.0
C80 C 0.00171 0.46082 0.97635 0.0
C81 C 0.99287 0.4467 0.98348 0.0
C82 C 0.98343 0.44881 0.99862 0.0
C83 C 0.98302 0.46466 0.00654 0.0
C84 C 0.97063 0.50722 0.00995 0.0
C85 C 0.96788 0.52206 0.01918 0.0
C86 C 0.95183 0.52899 0.01909 0.0
C87 C 0.93823 0.52122 0.0097 0.0
C88 C 0.94109 0.50631 0.00045 0.0
C89 C 0.95718 0.49943 0.0005 0.0
C90 C -0.00069 0.49693 0.03137 0.0
C91 C 0.0168 0.49921 0.03487 0.0
C92 C 0.02291 0.49748 0.0516 0.0
C93 C 0.01162 0.49329 0.06509 0.0
C94 C 0.9941 0.49069 0.06142 0.0
C95 C 0.98803 0.49242 0.04467 0.0
P96 P 0.67663 0.8214 0.18046 0.0
H97 H 0.69446 0.8504 0.16466 0.0
H98 H 0.71725 0.87018 0.17474 0.0
H99 H 0.7194 0.84311 0.22258 0.0
H100 H 0.69666 0.82326 0.2123 0.0
H101 H 0.66107 0.79718 0.15633 0.0
H102 H 0.67181 0.77292 0.14095 0.0
H103 H 0.72065 0.78109 0.16628 0.0
H104 H 0.70985 0.80546 0.18145 0.0
H105 H 0.65537 0.84103 0.20253 0.0
H106 H 0.66805 0.78891 0.1975 0.0
O107 O 0.66491 0.83159 0.16635 0.0
H108 H 0.63608 0.83363 0.22618 0.0
H109 H 0.64842 0.78131 0.22082 0.0
C110 C 0.69367 0.83562 0.18788 0.0
C111 C 0.6998 0.84877 0.17733 0.0
C112 C 0.71278 0.86008 0.18313 0.0
C113 C 0.72 0.85831 0.19953 0.0
C114 C 0.71413 0.84478 0.20988 0.0
C115 C 0.70107 0.83351 0.20408 0.0
C116 C 0.68474 0.80329 0.16976 0.0
C117 C 0.67409 0.79374 0.15854 0.0
C118 C 0.68021 0.7798 0.14988 0.0
C119 C 0.69712 0.77512 0.15234 0.0
C120 C 0.70765 0.78453 0.16391 0.0
C121 C 0.70147 0.79846 0.17263 0.0
C122 C 0.66297 0.81552 0.19816 0.0
C123 C 0.65393 0.82798 0.2065 0.0
C124 C 0.64284 0.8237 0.21994 0.0
C125 C 0.64056 0.80684 0.22529 0.0
C126 C 0.64996 0.79442 0.2171 0.0
C127 C 0.6611 0.79874 0.20366 0.0
P128 P 0.05447 0.93972 0.43422 0.0
H129 H 0.09165 0.94355 0.43587 0.0
H130 H 0.11122 0.96631 0.44604 0.0
H131 H 0.0682 0.99528 0.46083 0.0
H132 H 0.04869 0.97255 0.45015 0.0
H133 H 0.03441 0.9081 0.43379 0.0
H134 H 0.02367 0.88923 0.4564 0.0
H135 H 0.04593 0.92333 0.49474 0.0
H136 H 0.0569 0.94194 0.47205 0.0
H137 H 0.05052 0.95041 0.39885 0.0
H138 H 0.02011 0.94863 0.44491 0.0
O139 O 0.06501 0.92779 0.42049 0.0
H140 H 0.02666 0.96148 0.38298 0.0
H141 H 0.99621 0.96001 0.4292 0.0
C142 C 0.06875 0.95652 0.44197 0.0
C143 C 0.08643 0.95484 0.44121 0.0
C144 C 0.09761 0.96782 0.44719 0.0
C145 C 0.0913 0.98267 0.45423 0.0
C146 C 0.0735 0.98415 0.45522 0.0
C147 C 0.06233 0.97116 0.44917 0.0
C148 C 0.04656 0.9263 0.45123 0.0
C149 C 0.03698 0.91148 0.44708 0.0
C150 C 0.03074 0.90078 0.46002 0.0
C151 C 0.03395 0.90477 0.47739 0.0
C152 C 0.04343 0.91978 0.48149 0.0
C153 C 0.04966 0.93048 0.46851 0.0
C154 C 0.03693 0.94837 0.42292 0.0
C155 C 0.03869 0.95244 0.40554 0.0
C156 C 0.02508 0.9589 0.39653 0.0
C157 C 0.00948 0.96156 0.40481 0.0
C158 C 0.00794 0.95784 0.42238 0.0
C159 C 0.0216 0.95137 0.43138 0.0
P160 P 0.22868 0.74787 0.77401 0.0
H161 H 0.25379 0.75094 0.80138 0.0
H162 H 0.253 0.76227 0.83061 0.0
H163 H 0.2 0.77331 0.82355 0.0
H164 H 0.20096 0.76217 0.79426 0.0
H165 H 0.24837 0.73043 0.74833 0.0
H166 H 0.26082 0.70277 0.74768 0.0
H167 H 0.24017 0.69225 0.79811 0.0
H168 H 0.22738 0.71976 0.79841 0.0
H169 H 0.21238 0.77117 0.75108 0.0
H170 H 0.19967 0.72312 0.77449 0.0
O171 O 0.24196 0.76109 0.76335 0.0
H172 H 0.18457 0.77036 0.73685 0.0
H173 H 0.17187 0.72204 0.76003 0.0
C174 C 0.22742 0.75556 0.79573 0.0
C175 C 0.24198 0.7557 0.80619 0.0
C176 C 0.24148 0.7621 0.82291 0.0
C177 C 0.22641 0.76863 0.82943 0.0
C178 C 0.21183 0.76849 0.81886 0.0
C179 C 0.21234 0.76202 0.80213 0.0
C180 C 0.23735 0.72728 0.77358 0.0
C181 C 0.24656 0.72216 0.75924 0.0
C182 C 0.25372 0.70638 0.75893 0.0
C183 C 0.25169 0.69537 0.77295 0.0
C184 C 0.24194 0.70037 0.78708 0.0
C185 C 0.23475 0.71617 0.78735 0.0
C186 C 0.2082 0.74703 0.76352 0.0
C187 C 0.20366 0.76036 0.75302 0.0
C188 C 0.18777 0.75985 0.74485 0.0
C189 C 0.17607 0.74604 0.74716 0.0
C190 C 0.18056 0.73287 0.75804 0.0
C191 C 0.19649 0.7334 0.76619 0.0
P192 P 0.98436 0.51273 0.49902 0.0
H193 H 0.01796 0.50356 0.4869 0.0
H194 H 0.03148 0.50452 0.45867 0.0
H195 H 0.98666 0.52627 0.43739 0.0
H196 H 0.97316 0.52521 0.46572 0.0
H197 H 0.00109 0.52631 0.53016 0.0
H198 H 0.00044 0.55362 0.54474 0.0
H199 H 0.96772 0.57156 0.50477 0.0
H200 H 0.96859 0.54421 0.49015 0.0
H201 H 0.96824 0.48717 0.47625 0.0
H202 H 0.95309 0.51899 0.51814 0.0
O203 O 0.99482 0.49946 0.51128 0.0
H204 H 0.93934 0.47421 0.47482 0.0
H205 H 0.92413 0.50643 0.51651 0.0
C206 C 0.99449 0.51415 0.47834 0.0
C207 C 0.01103 0.50853 0.47618 0.0
C208 C 0.01873 0.50904 0.46003 0.0
C209 C 0.01008 0.51536 0.4458 0.0
C210 C 0.99368 0.52143 0.44814 0.0
C211 C 0.98594 0.5208 0.46429 0.0
C212 C 0.98489 0.53325 0.50906 0.0
C213 C 0.99387 0.53614 0.52445 0.0
C214 C 0.9934 0.55174 0.53284 0.0
C215 C 0.98394 0.56473 0.52597 0.0
C216 C 0.97526 0.56188 0.51031 0.0
C217 C 0.97573 0.54625 0.50195 0.0
C218 C 0.96271 0.50435 0.49699 0.0
C219 C 0.95861 0.49161 0.48491 0.0
C220 C 0.94207 0.48424 0.48408 0.0
C221 C 0.92939 0.48934 0.4955 0.0
C222 C 0.93361 0.50212 0.50761 0.0
C223 C 0.95015 0.50945 0.50843 0.0
P224 P 0.81217 0.81884 0.82532 0.0
H225 H 0.8386 0.83668 0.80555 0.0
H226 H 0.85543 0.82882 0.78064 0.0
H227 H 0.82852 0.77997 0.77912 0.0
H228 H 0.81146 0.78812 0.80384 0.0
H229 H 0.78804 0.83633 0.84621 0.0
H230 H 0.76412 0.85376 0.83937 0.0
H231 H 0.77356 0.84637 0.78523 0.0
H232 H 0.79714 0.82856 0.79221 0.0
H233 H 0.82908 0.79806 0.85018 0.0
H234 H 0.77946 0.79912 0.82631 0.0
O235 O 0.82514 0.83069 0.83801 0.0
H236 H 0.81906 0.7742 0.86778 0.0
H237 H 0.76937 0.77515 0.84376 0.0
C238 C 0.8241 0.81284 0.80675 0.0
C239 C 0.83637 0.82427 0.79987 0.0
C240 C 0.84601 0.81973 0.78567 0.0
C241 C 0.84348 0.80367 0.77802 0.0
C242 C 0.83075 0.79244 0.78466 0.0
C243 C 0.82109 0.79702 0.79889 0.0
C244 C 0.79443 0.8313 0.81976 0.0
C245 C 0.78491 0.83845 0.83288 0.0
C246 C 0.77131 0.84848 0.82893 0.0
C247 C 0.767 0.85158 0.81174 0.0
C248 C 0.77644 0.84412 0.7986 0.0
C249 C 0.79003 0.83403 0.80258 0.0
C250 C 0.80489 0.80058 0.83729 0.0
C251 C 0.81604 0.7931 0.8487 0.0
C252 C 0.81033 0.77938 0.85864 0.0
C253 C 0.79337 0.77287 0.85726 0.0
C254 C 0.78241 0.78007 0.84533 0.0
C255 C 0.78817 0.79376 0.83534 0.0
P256 P 0.30989 0.31848 0.3241 0.0
H257 H 0.33607 0.33638 0.30393 0.0
H258 H 0.35258 0.32851 0.27883 0.0
H259 H 0.3259 0.27952 0.27786 0.0
H260 H 0.30911 0.28771 0.30274 0.0
H261 H 0.28157 0.32944 0.34462 0.0
H262 H 0.25669 0.34565 0.338 0.0
H263 H 0.27214 0.34794 0.2848 0.0
H264 H 0.29672 0.33138 0.29144 0.0
H265 H 0.32871 0.30198 0.35094 0.0
H266 H 0.28015 0.29453 0.32523 0.0
O267 O 0.32221 0.33199 0.33573 0.0
H268 H 0.32189 0.27757 0.36905 0.0
H269 H 0.27304 0.27027 0.34356 0.0
C270 C 0.32169 0.31248 0.30543 0.0
C271 C 0.33382 0.32393 0.29834 0.0
C272 C 0.34328 0.31939 0.28402 0.0
C273 C 0.34073 0.30329 0.27646 0.0
C274 C 0.32814 0.29203 0.28332 0.0
C275 C 0.31864 0.29663 0.29764 0.0
C276 C 0.29089 0.32907 0.31853 0.0
C277 C 0.27946 0.33325 0.33149 0.0
C278 C 0.26532 0.34263 0.32771 0.0
C279 C 0.26245 0.34816 0.31087 0.0
C280 C 0.27384 0.3437 0.29784 0.0
C281 C 0.28797 0.33427 0.30166 0.0
C282 C 0.30476 0.30028 0.33707 0.0
C283 C 0.31651 0.29515 0.3493 0.0
C284 C 0.31257 0.28122 0.35967 0.0
C285 C 0.29683 0.27209 0.3579 0.0
C286 C 0.28529 0.27699 0.34522 0.0
C287 C 0.28926 0.29094 0.33485 0.0
P288 P 0.49228 0.99794 0.50841 0.0
H289 H 0.50796 0.98663 0.47651 0.0
H290 H 0.50892 0.959 0.46259 0.0
H291 H 0.47821 0.93693 0.5034 0.0
H292 H 0.47719 0.96472 0.51721 0.0
H293 H 0.47924 0.02753 0.52496 0.0
H294 H 0.45111 0.0395 0.52568 0.0
H295 H 0.43087 0.99799 0.4943 0.0
H296 H 0.45913 0.98647 0.49317 0.0
H297 H 0.52683 0.00093 0.52237 0.0
H298 H 0.47597 0.9895 0.54128 0.0
O299 O 0.50488 0.01186 0.49783 0.0
H300 H 0.53831 0.99799 0.55134 0.0
H301 H 0.48735 0.98628 0.57027 0.0
C302 C 0.49256 0.97768 0.49792 0.0
C303 C 0.50142 0.97587 0.48247 0.0
C304 C 0.50203 0.96005 0.47456 0.0
C305 C 0.4937 0.94578 0.48194 0.0
C306 C 0.48463 0.94771 0.49733 0.0
C307 C 0.48412 0.96354 0.50528 0.0
C308 C 0.47125 0.00604 0.50919 0.0
C309 C 0.46871 0.021 0.51829 0.0
C310 C 0.45259 0.02776 0.51878 0.0
C311 C 0.43868 0.01967 0.51011 0.0
C312 C 0.44132 0.00464 0.50097 0.0
C313 C 0.45748 0.99793 0.50045 0.0
C314 C 0.50054 0.99583 0.52979 0.0
C315 C 0.51814 0.99784 0.53279 0.0
C316 C 0.52469 0.99601 0.54932 0.0
C317 C 0.51373 0.99199 0.56313 0.0
C318 C 0.49609 0.98967 0.55997 0.0
C319 C 0.48957 0.99148 0.54341 0.0
P320 P 0.17686 0.32022 0.68272 0.0
H321 H 0.1948 0.34891 0.66641 0.0
H322 H 0.21774 0.3687 0.67612 0.0
H323 H 0.22002 0.34221 0.7243 0.0
H324 H 0.19717 0.32233 0.71438 0.0
H325 H 0.16218 0.29744 0.65667 0.0
H326 H 0.1729 0.27302 0.64156 0.0
H327 H 0.21977 0.27813 0.67084 0.0
H328 H 0.209 0.30266 0.68579 0.0
H329 H 0.15966 0.3404 0.70787 0.0
H330 H 0.16424 0.28744 0.69681 0.0
O331 O 0.165 0.33039 0.66872 0.0
H332 H 0.14036 0.33331 0.73159 0.0
H333 H 0.1446 0.28025 0.72023 0.0
C334 C 0.19408 0.33441 0.68983 0.0
C335 C 0.20021 0.3474 0.67908 0.0
C336 C 0.21328 0.35872 0.68467 0.0
C337 C 0.22057 0.35713 0.70106 0.0
C338 C 0.21471 0.34375 0.71159 0.0
C339 C 0.20158 0.33246 0.706 0.0
C340 C 0.18493 0.30206 0.67206 0.0
C341 C 0.17478 0.29332 0.65979 0.0
C342 C 0.18087 0.27928 0.65128 0.0
C343 C 0.19723 0.27368 0.65495 0.0
C344 C 0.20723 0.28229 0.66755 0.0
C345 C 0.20107 0.29631 0.67612 0.0
C346 C 0.1634 0.31448 0.70062 0.0
C347 C 0.15652 0.32724 0.71058 0.0
C348 C 0.14539 0.32316 0.72406 0.0
C349 C 0.14085 0.30621 0.72775 0.0
C350 C 0.14798 0.29342 0.71784 0.0
C351 C 0.15915 0.29753 0.70436 0.0
P352 P 0.81044 0.18218 0.68957 0.0
H353 H 0.82638 0.20924 0.66946 0.0
H354 H 0.81498 0.23226 0.65292 0.0
H355 H 0.76397 0.21698 0.66942 0.0
H356 H 0.77536 0.19377 0.68535 0.0
H357 H 0.8406 0.16932 0.70574 0.0
H358 H 0.85763 0.17852 0.73063 0.0
H359 H 0.824 0.21941 0.73916 0.0
H360 H 0.80732 0.21034 0.71385 0.0
H361 H 0.7991 0.14857 0.67714 0.0
H362 H 0.78532 0.18308 0.71728 0.0
O363 O 0.82323 0.17258 0.67589 0.0
H364 H 0.77616 0.1286 0.68612 0.0
H365 H 0.76214 0.1632 0.72616 0.0
C366 C 0.80175 0.19969 0.67851 0.0
C367 C 0.81274 0.2109 0.66952 0.0
C368 C 0.80621 0.22413 0.66018 0.0
C369 C 0.78852 0.22644 0.65977 0.0
C370 C 0.77761 0.2154 0.66921 0.0
C371 C 0.78416 0.20214 0.67847 0.0
C372 C 0.82295 0.18936 0.70778 0.0
C373 C 0.83699 0.18035 0.71289 0.0
C374 C 0.8466 0.18553 0.72725 0.0
C375 C 0.8422 0.19972 0.73693 0.0
C376 C 0.82792 0.2086 0.73186 0.0
C377 C 0.81834 0.20341 0.71742 0.0
C378 C 0.79398 0.16724 0.69664 0.0
C379 C 0.79123 0.15181 0.68796 0.0
C380 C 0.77814 0.1404 0.6931 0.0
C381 C 0.76742 0.14437 0.70684 0.0
C382 C 0.77018 0.15988 0.71549 0.0
C383 C 0.78346 0.17117 0.71049 0.0
P384 P 0.56621 0.5744 0.57928 0.0
H385 H 0.5646 0.56301 0.61463 0.0
H386 H 0.54111 0.55251 0.63282 0.0
H387 H 0.50584 0.55794 0.59073 0.0
H388 H 0.52942 0.56856 0.57265 0.0
H389 H 0.59784 0.5736 0.5601 0.0
H390 H 0.61463 0.55057 0.54933 0.0
H391 H 0.57675 0.51431 0.5689 0.0
H392 H 0.5601 0.53736 0.5797 0.0
H393 H 0.55729 0.60953 0.57827 0.0
H394 H 0.5581 0.56747 0.54296 0.0
O395 O 0.5796 0.58627 0.59151 0.0
H396 H 0.54733 0.62748 0.55531 0.0
H397 H 0.54859 0.58542 0.51978 0.0
C398 C 0.54868 0.5669 0.59245 0.0
C399 C 0.55179 0.56203 0.60936 0.0
C400 C 0.53838 0.55589 0.61969 0.0
C401 C 0.5216 0.55445 0.61323 0.0
C402 C 0.51858 0.55914 0.59615 0.0
C403 C 0.53205 0.5652 0.5858 0.0
C404 C 0.57786 0.5572 0.57083 0.0
C405 C 0.59315 0.56068 0.56201 0.0
C406 C 0.60266 0.54752 0.55578 0.0
C407 C 0.59703 0.53062 0.55832 0.0
C408 C 0.58152 0.5272 0.56695 0.0
C409 C 0.57197 0.54039 0.57309 0.0
C410 C 0.55881 0.58733 0.5622 0.0
C411 C 0.55547 0.60422 0.56551 0.0
C412 C 0.54984 0.61446 0.55236 0.0
C413 C 0.54736 0.60795 0.53564 0.0
C414 C 0.5503 0.59083 0.5325 0.0
C415 C 0.5559 0.58059 0.54571 0.0
P416 P 0.55418 0.43605 0.93576 0.0
H417 H 0.58842 0.44746 0.9247 0.0
H418 H 0.60805 0.47042 0.93431 0.0
H419 H 0.57091 0.48543 0.9717 0.0
H420 H 0.55115 0.46258 0.96166 0.0
H421 H 0.52389 0.41366 0.94044 0.0
H422 H 0.51407 0.39567 0.96415 0.0
H423 H 0.55855 0.41225 0.99372 0.0
H424 H 0.56816 0.43033 0.97008 0.0
H425 H 0.54828 0.44075 0.89919 0.0
H426 H 0.52235 0.45085 0.94666 0.0
O427 O 0.56456 0.42318 0.92284 0.0
H428 H 0.52474 0.45205 0.88304 0.0
H429 H 0.49874 0.4624 0.93056 0.0
C430 C 0.56845 0.45321 0.94265 0.0
C431 C 0.5845 0.45568 0.93496 0.0
C432 C 0.59575 0.46878 0.94054 0.0
C433 C 0.59113 0.47968 0.9539 0.0
C434 C 0.57483 0.47735 0.96131 0.0
C435 C 0.56357 0.46425 0.95567 0.0
C436 C 0.54646 0.42374 0.9537 0.0
C437 C 0.53138 0.41363 0.95214 0.0
C438 C 0.52586 0.40323 0.96564 0.0
C439 C 0.53547 0.40262 0.98087 0.0
C440 C 0.55067 0.4127 0.98231 0.0
C441 C 0.55619 0.42305 0.96878 0.0
C442 C 0.53685 0.44463 0.92407 0.0
C443 C 0.53749 0.44539 0.90613 0.0
C444 C 0.52408 0.45199 0.89692 0.0
C445 C 0.50983 0.45807 0.90552 0.0
C446 C 0.50941 0.45759 0.92357 0.0
C447 C 0.5229 0.45104 0.93277 0.0
P448 P 0.72617 0.24709 0.27498 0.0
H449 H 0.7529 0.26112 0.29741 0.0
H450 H 0.75283 0.27236 0.32671 0.0
H451 H 0.69841 0.26118 0.3297 0.0
H452 H 0.69858 0.25013 0.3003 0.0
H453 H 0.74297 0.22855 0.24805 0.0
H454 H 0.75565 0.201 0.24722 0.0
H455 H 0.74111 0.19286 0.30012 0.0
H456 H 0.7281 0.22026 0.30069 0.0
H457 H 0.7063 0.2733 0.2601 0.0
H458 H 0.69985 0.21986 0.2694 0.0
O459 O 0.73893 0.26014 0.26352 0.0
H460 H 0.67807 0.27304 0.24672 0.0
H461 H 0.67174 0.21938 0.25568 0.0
C462 C 0.72572 0.25514 0.2966 0.0
C463 C 0.74096 0.26116 0.30437 0.0
C464 C 0.74091 0.26744 0.32116 0.0
C465 C 0.7256 0.26772 0.33051 0.0
C466 C 0.71037 0.26137 0.32274 0.0
C467 C 0.71045 0.25503 0.30594 0.0
C468 C 0.73497 0.22658 0.27453 0.0
C469 C 0.74254 0.22082 0.25946 0.0
C470 C 0.74984 0.20511 0.25903 0.0
C471 C 0.74959 0.19481 0.27367 0.0
C472 C 0.74147 0.20044 0.28861 0.0
C473 C 0.73416 0.21617 0.289 0.0
C474 C 0.70528 0.24656 0.26537 0.0
C475 C 0.69884 0.26148 0.25912 0.0
C476 C 0.68273 0.26129 0.25143 0.0
C477 C 0.67272 0.24615 0.24995 0.0
C478 C 0.67908 0.23126 0.25668 0.0
C479 C 0.69522 0.23149 0.26439 0.0
P480 P 0.49042 0.00699 0.00114 0.0
H481 H 0.52437 0.00215 0.98725 0.0
H482 H 0.53595 0.00341 0.95816 0.0
H483 H 0.48695 0.01742 0.93889 0.0
H484 H 0.47535 0.01599 0.96808 0.0
H485 H 0.4972 0.01761 0.03647 0.0
H486 H 0.49689 0.04492 0.05114 0.0
H487 H 0.48229 0.06831 0.00376 0.0
H488 H 0.48272 0.04091 0.9891 0.0
H489 H 0.47856 0.97172 0.00113 0.0
H490 H 0.45597 0.02016 0.99888 0.0
O491 O 0.50288 0.99471 0.0125 0.0
H492 H 0.45021 0.95765 0.00029 0.0
H493 H 0.42753 0.00618 0.99759 0.0
C494 C 0.49894 0.00872 0.97977 0.0
C495 C 0.51609 0.00545 0.97678 0.0
C496 C 0.52269 0.00614 0.96016 0.0
C497 C 0.5123 0.01037 0.94626 0.0
C498 C 0.49524 0.01416 0.94937 0.0
C499 C 0.48859 0.01328 0.96602 0.0
C500 C 0.4903 0.02728 0.01163 0.0
C501 C 0.49408 0.02862 0.02918 0.0
C502 C 0.49391 0.04423 0.03756 0.0
C503 C 0.48968 0.05875 0.02856 0.0
C504 C 0.48555 0.05731 0.01102 0.0
C505 C 0.48591 0.04169 0.00261 0.0
C506 C 0.46935 0.99697 0.00045 0.0
C507 C 0.46748 0.97933 0.00048 0.0
C508 C 0.45125 0.9713 -0.00017 0.0
C509 C 0.43656 0.98079 0.99892 0.0
C510 C 0.43854 0.99851 0.99858 0.0
C511 C 0.45482 0.00653 -0.00072 0.0
C512 C 0.21737 0.90445 0.0122 0.0
O513 O 0.22628 0.90542 0.99794 0.0
O514 O 0.23512 0.86463 0.997 0.0
Zn515 Zn 0.2404 0.87849 0.01845 0.0
O516 O 0.26193 0.89309 0.01493 0.0
C517 C 0.23358 0.85152 0.04293 0.0
O518 O 0.21933 0.84911 0.03416 0.0
O519 O 0.22099 0.8935 0.02329 0.0
C520 C 0.27455 0.8875 0.00679 0.0
O521 O 0.27337 0.87211 0.00043 0.0
C522 C 0.2402 0.84975 0.99503 0.0
O523 O 0.24905 0.84302 0.00734 0.0
O524 O 0.24417 0.86337 0.03863 0.0
C525 C 0.13843 0.47079 0.27456 0.0
O526 O 0.13783 0.48357 0.28534 0.0
O527 O 0.10109 0.4945 0.2778 0.0
Zn528 Zn 0.11585 0.49138 0.25692 0.0
O529 O 0.13258 0.51125 0.25406 0.0
C530 C 0.08675 0.49316 0.23374 0.0
O531 O 0.0797 0.50073 0.24678 0.0
O532 O 0.12964 0.47101 0.26084 0.0
C533 C 0.12976 0.52387 0.24467 0.0
O534 O 0.11503 0.52448 0.23669 0.0
C535 C 0.09634 0.50873 0.2831 0.0
O536 O 0.10073 0.5224 0.27444 0.0
O537 O 0.10178 0.488 0.23531 0.0
C538 C 0.7781 0.60293 0.00084 0.0
O539 O 0.76951 0.60254 0.98632 0.0
O540 O 0.75471 0.63887 0.98919 0.0
Zn541 Zn 0.75087 0.62341 0.00937 0.0
O542 O 0.73189 0.60617 0.00398 0.0
C543 C 0.75456 0.64981 0.03459 0.0
O544 O 0.76861 0.65323 0.02585 0.0
O545 O 0.77249 0.61133 0.01341 0.0
C546 C 0.71621 0.60924 0.00563 0.0
O547 O 0.71207 0.62419 0.01114 0.0
C548 C 0.74504 0.65091 0.98616 0.0
O549 O 0.73201 0.65326 0.99634 0.0
O550 O 0.74491 0.63721 0.03011 0.0
C551 C 0.83734 0.03922 0.26899 0.0
O552 O 0.83096 0.02528 0.27597 0.0
O553 O 0.87831 0.01326 0.27779 0.0
Zn554 Zn 0.86346 0.01734 0.25727 0.0
O555 O 0.84618 0.99815 0.2528 0.0
C556 C 0.89153 0.01076 0.23506 0.0
O557 O 0.894 -0.00087 0.24661 0.0
O558 O 0.85121 0.03882 0.2606 0.0
C559 C 0.84907 0.98264 0.25467 0.0
O560 O 0.86412 0.97841 0.26019 0.0
C561 C 0.87389 0.0057 0.29153 0.0
O562 O 0.85803 -0.00014 0.29335 0.0
O563 O 0.87891 0.02011 0.23674 0.0
C564 C 0.27893 0.10183 0.50311 0.0
O565 O 0.2699 0.10053 0.48889 0.0
O566 O 0.25703 0.14073 0.49221 0.0
Zn567 Zn 0.25259 0.12391 0.51118 0.0
O568 O 0.2333 0.10727 0.5051 0.0
C569 C 0.2563 0.14886 0.53784 0.0
O570 O 0.27077 0.15219 0.52978 0.0
O571 O 0.27395 0.11132 0.51512 0.0
C572 C 0.2186 0.11194 0.50087 0.0
O573 O 0.2159 0.12815 0.50025 0.0
C574 C 0.25337 0.13822 0.47647 0.0
O575 O 0.24597 0.12374 0.47165 0.0
O576 O 0.2464 0.13681 0.53241 0.0
C577 C 0.33711 0.53841 0.77028 0.0
O578 O 0.32985 0.52429 0.77602 0.0
O579 O 0.37869 0.51192 0.77935 0.0
Zn580 Zn 0.36356 0.51648 0.75918 0.0
O581 O 0.34619 0.49741 0.7546 0.0
C582 C 0.39118 0.50986 0.73646 0.0
O583 O 0.39348 0.49787 0.74767 0.0
O584 O 0.35156 0.53805 0.76294 0.0
C585 C 0.34888 0.48192 0.75699 0.0
O586 O 0.3637 0.47773 0.76313 0.0
C587 C 0.37423 0.50542 0.79361 0.0
O588 O 0.35807 0.50113 0.79631 0.0
O589 O 0.37879 0.51944 0.73852 0.0
C590 C 0.71507 0.40452 0.51247 0.0
O591 O 0.72292 0.40485 0.49758 0.0
O592 O 0.73362 0.3654 0.49735 0.0
Zn593 Zn 0.73896 0.37921 0.51864 0.0
O594 O 0.76056 0.39363 0.51528 0.0
C595 C 0.73293 0.35076 0.54114 0.0
O596 O 0.71968 0.34772 0.53103 0.0
O597 O 0.71963 0.39422 0.52382 0.0
C598 C 0.76642 0.39783 0.50063 0.0
O599 O 0.7581 0.39273 0.48673 0.0
C600 C 0.74333 0.35372 0.49305 0.0
O601 O 0.75666 0.3509 0.50268 0.0
O602 O 0.74274 0.36368 0.53843 0.0
C603 C 0.64042 0.97147 0.77368 0.0
O604 O 0.64052 0.98513 0.78334 0.0
O605 O 0.60135 0.99348 0.77705 0.0
Zn606 Zn 0.61647 0.99052 0.75637 0.0
O607 O 0.63317 0.01038 0.7534 0.0
C608 C 0.58811 0.99231 0.73223 0.0
O609 O 0.58085 0.00048 0.74475 0.0
O610 O 0.63054 0.97043 0.76072 0.0
C611 C 0.62999 0.02389 0.74557 0.0
O612 O 0.61464 0.02574 0.73929 0.0
C613 C 0.59584 0.00744 0.78227 0.0
O614 O 0.59965 0.02128 0.77367 0.0
O615 O 0.60291 0.98681 0.73451 0.0
C616 C 0.9969 0.22045 0.90091 0.0
O617 O 0.98722 0.21527 0.88794 0.0
O618 O 0.97376 0.24538 0.87199 0.0
Zn619 Zn 0.99525 0.25321 0.88461 0.0
O620 O 0.9919 0.27524 0.89695 0.0
C621 C 0.0137 0.26913 0.85713 0.0
O622 O 0.00093 0.27921 0.85826 0.0
O623 O 0.0018 0.23593 0.90197 0.0
C624 C 0.00501 0.28404 0.90186 0.0
O625 O 0.02022 0.27838 0.89894 0.0
C626 C 0.96312 0.25567 0.86644 0.0
O627 O 0.9658 0.27188 0.86956 0.0
O628 O 0.01419 0.25669 0.86729 0.0
C629 C 0.4983 0.71938 0.40064 0.0
O630 O 0.48777 0.71437 0.38828 0.0
O631 O 0.47585 0.74449 0.37121 0.0
Zn632 Zn 0.49747 0.75202 0.38381 0.0
O633 O 0.49437 0.77404 0.39624 0.0
C634 C 0.51466 0.76687 0.35516 0.0
O635 O 0.50089 0.77567 0.35536 0.0
O636 O 0.50399 0.73466 0.40109 0.0
C637 C 0.50745 0.78324 0.40045 0.0
O638 O 0.52269 0.77801 0.39679 0.0
C639 C 0.46459 0.75479 0.36721 0.0
O640 O 0.46673 0.77068 0.37195 0.0
O641 O 0.5163 0.75552 0.36639 0.0
C642 C 0.9857 0.77826 0.60187 0.0
O643 O 0.97144 0.76893 0.60058 0.0
O644 O 0.97389 0.76038 0.64597 0.0
Zn645 Zn 0.99271 0.75531 0.62943 0.0
O646 O 0.98735 0.73413 0.61565 0.0
C647 C 0.01481 0.7477 0.65807 0.0
O648 O 0.00031 0.74384 0.66588 0.0
O649 O 0.99653 0.7748 0.61331 0.0
C650 C 0.98427 0.71997 0.62281 0.0
O651 O 0.984 0.71922 0.63964 0.0
C652 C 0.95822 0.75597 0.6439 0.0
O653 O 0.95343 0.74739 0.63008 0.0
O654 O 0.01456 0.75271 0.64262 0.0
C655 C 0.49625 0.28383 0.11563 0.0
O656 O 0.49814 0.28802 0.1319 0.0
O657 O 0.47116 0.25698 0.14612 0.0
Zn658 Zn 0.49027 0.25116 0.1303 0.0
O659 O 0.48617 0.22806 0.11955 0.0
C660 C 0.51287 0.24346 0.15795 0.0
O661 O 0.49942 0.23431 0.16301 0.0
O662 O 0.49263 0.2685 0.11168 0.0
C663 C 0.49893 0.21932 0.11613 0.0
O664 O 0.51436 0.22553 0.11979 0.0
C665 C 0.45551 0.25263 0.14384 0.0
O666 O 0.45096 0.24357 0.13026 0.0
O667 O 0.51199 0.25187 0.14418 0.0
C668 C 0.23419 0.7679 0.86067 0.0
C669 C 0.2261 0.77589 0.84705 0.0
C670 C 0.23461 0.77513 0.87709 0.0
C671 C 0.21422 0.8067 0.90458 0.0
H672 H 0.25695 0.80653 0.92973 0.0
C673 C 0.22813 0.84779 0.96519 0.0
C674 C 0.23708 0.84048 0.97868 0.0
C675 C 0.22588 0.83929 0.94949 0.0
C676 C 0.24485 0.8065 0.92298 0.0
H677 H 0.21201 0.79768 0.84 0.0
H678 H 0.2128 0.81033 0.86864 0.0
H679 H 0.25462 0.79279 0.90173 0.0
H680 H 0.25034 0.81835 0.98638 0.0
H681 H 0.24631 0.80352 0.95907 0.0
H682 H 0.20454 0.82062 0.92582 0.0
C683 C 0.21861 0.79835 0.86669 0.0
C684 C 0.24351 0.79861 0.90693 0.0
C685 C 0.21816 0.7911 0.85028 0.0
C686 C 0.24346 0.82438 0.97623 0.0
C687 C 0.24123 0.81591 0.96054 0.0
C688 C 0.21557 0.81463 0.92065 0.0
C689 C 0.22698 0.79053 0.88025 0.0
C690 C 0.22819 0.79863 0.89751 0.0
C691 C 0.23256 0.82333 0.94694 0.0
C692 C 0.23092 0.81464 0.93002 0.0
H693 H 0.24017 0.75602 0.85866 0.0
H694 H 0.24089 0.76861 0.88731 0.0
H695 H 0.20217 0.80676 0.89776 0.0
H696 H 0.22306 0.86018 0.96665 0.0
H697 H 0.21928 0.84542 0.93922 0.0
C698 C 0.02614 0.50086 0.42267 0.0
C699 C 0.01803 0.51523 0.42853 0.0
C700 C 0.03359 0.5006 0.40642 0.0
C701 C 0.05188 0.52813 0.37294 0.0
H702 H 0.045 0.48845 0.34391 0.0
C703 C 0.0794 0.52514 0.30418 0.0
C704 C 0.08625 0.50984 0.29908 0.0
C705 C 0.07014 0.52618 0.31945 0.0
C706 C 0.04722 0.49956 0.35192 0.0
H707 H 0.01144 0.54063 0.422 0.0
H708 H 0.02454 0.54019 0.39351 0.0
H709 H 0.03071 0.48957 0.37162 0.0
H710 H 0.08878 0.48363 0.30604 0.0
H711 H 0.073 0.48553 0.33276 0.0
H712 H 0.0687 0.53798 0.35347 0.0
C713 C 0.02513 0.52915 0.40155 0.0
C714 C 0.03898 0.50021 0.36778 0.0
C715 C 0.01753 0.52935 0.41778 0.0
C716 C 0.08358 0.4956 0.30953 0.0
C717 C 0.07443 0.49666 0.32483 0.0
C718 C 0.06023 0.52744 0.35712 0.0
C719 C 0.03319 0.51475 0.39569 0.0
C720 C 0.04134 0.51443 0.37852 0.0
C721 C 0.0676 0.51196 0.33 0.0
C722 C 0.05812 0.51307 0.34648 0.0
H723 H 0.02658 0.48973 0.43061 0.0
H724 H 0.03986 0.48939 0.40232 0.0
H725 H 0.05407 0.53919 0.38104 0.0
H726 H 0.08116 0.53632 0.29636 0.0
H727 H 0.06487 0.53811 0.32291 0.0
C728 C 0.771 0.75991 0.87673 0.0
C729 C 0.787 0.75909 0.86873 0.0
C730 C 0.76544 0.74754 0.88839 0.0
C731 C 0.77265 0.70415 0.90275 0.0
H732 H 0.75318 0.71946 0.94551 0.0
C733 C 0.76346 0.66082 0.96162 0.0
C734 C 0.74876 0.66249 0.97168 0.0
C735 C 0.76727 0.6721 0.94831 0.0
C736 C 0.75835 0.71492 0.93354 0.0
H737 H 0.80945 0.74433 0.86626 0.0
H738 H 0.79981 0.7228 0.88676 0.0
H739 H 0.7612 0.7399 0.92344 0.0
H740 H 0.72635 0.6771 0.97541 0.0
H741 H 0.73288 0.69662 0.95205 0.0
H742 H 0.76986 0.67916 0.9129 0.0
C743 C 0.79154 0.73298 0.88395 0.0
C744 C 0.76296 0.72666 0.92089 0.0
C745 C 0.79714 0.7454 0.87234 0.0
C746 C 0.73783 0.67552 0.96797 0.0
C747 C 0.74162 0.68677 0.95463 0.0
C748 C 0.76799 0.69239 0.91539 0.0
C749 C 0.77573 0.73403 0.89227 0.0
C750 C 0.77025 0.72142 0.9054 0.0
C751 C 0.75646 0.68527 0.94472 0.0
C752 C 0.76087 0.69765 0.93099 0.0
H753 H 0.76296 0.77038 0.87434 0.0
H754 H 0.75311 0.7486 0.89445 0.0
H755 H 0.77804 0.6997 0.89085 0.0
H756 H 0.77218 0.65095 0.96416 0.0
H757 H 0.77892 0.67071 0.94109 0.0
C758 C 0.99747 0.98041 0.38252 0.0
C759 C 0.99483 0.96783 0.39498 0.0
C760 C 0.98392 0.9855 0.37245 0.0
C761 C 0.93684 0.98524 0.3695 0.0
H762 H 0.94565 0.98947 0.32072 0.0
C763 C 0.88324 0.99201 0.31875 0.0
C764 C 0.88691 0.00276 0.30483 0.0
C765 C 0.896 0.98849 0.33062 0.0
C766 C 0.943 0.98859 0.33433 0.0
H767 H 0.97577 0.95097 0.40684 0.0
H768 H 0.95208 0.95994 0.38929 0.0
H769 H 0.96861 0.98228 0.33994 0.0
H770 H 0.90667 0.01874 0.29285 0.0
H771 H 0.9287 0.01286 0.31363 0.0
H772 H 0.91116 0.99155 0.36381 0.0
C773 C 0.96463 0.96595 0.38742 0.0
C774 C 0.95618 0.98445 0.34536 0.0
C775 C 0.97821 0.96082 0.39749 0.0
C776 C 0.90344 0.01027 0.30332 0.0
C777 C 0.91612 0.00682 0.31519 0.0
C778 C 0.92362 0.98945 0.35845 0.0
C779 C 0.96739 0.97816 0.37462 0.0
C780 C 0.95328 0.98276 0.36306 0.0
C781 C 0.91266 0.99568 0.32883 0.0
C782 C 0.92657 0.99121 0.34073 0.0
H783 H 0.01005 0.9863 0.38049 0.0
H784 H 0.98639 0.99518 0.36291 0.0
H785 H 0.93425 0.98415 0.38311 0.0
H786 H 0.87064 0.98601 0.32026 0.0
H787 H 0.89294 0.97975 0.3409 0.0
C788 C 0.19333 0.24481 0.64169 0.0
C789 C 0.20393 0.25919 0.64533 0.0
C790 C 0.19932 0.23161 0.63175 0.0
C791 C 0.23881 0.21356 0.61484 0.0
H792 H 0.20824 0.19459 0.57977 0.0
C793 C 0.26166 0.17352 0.55775 0.0
C794 C 0.25103 0.15975 0.55221 0.0
C795 C 0.2562 0.18449 0.57051 0.0
C796 C 0.21686 0.19956 0.58965 0.0
H797 H 0.22919 0.2709 0.64155 0.0
H798 H 0.23962 0.24792 0.62413 0.0
H799 H 0.1982 0.21583 0.59952 0.0
H800 H 0.22655 0.14641 0.55615 0.0
H801 H 0.2171 0.1655 0.57849 0.0
H802 H 0.25757 0.19745 0.60471 0.0
C803 C 0.22676 0.24672 0.62917 0.0
C804 C 0.2111 0.21174 0.601 0.0
C805 C 0.22078 0.2599 0.63915 0.0
C806 C 0.23502 0.15695 0.56005 0.0
C807 C 0.22956 0.16794 0.57279 0.0
C808 C 0.24459 0.20138 0.60346 0.0
C809 C 0.21603 0.2325 0.62518 0.0
C810 C 0.22203 0.21898 0.61366 0.0
C811 C 0.23999 0.18196 0.57801 0.0
C812 C 0.23371 0.19432 0.59067 0.0
H813 H 0.18038 0.24376 0.6465 0.0
H814 H 0.19083 0.2207 0.62919 0.0
H815 H 0.24748 0.21871 0.62459 0.0
H816 H 0.27407 0.17604 0.55199 0.0
H817 H 0.26448 0.19527 0.57412 0.0
C818 C 0.49179 0.5564 0.62452 0.0
C819 C 0.50734 0.54828 0.62438 0.0
C820 C 0.47867 0.55111 0.63566 0.0
C821 C 0.47152 0.52814 0.67623 0.0
H822 H 0.42389 0.52775 0.6626 0.0
C823 C 0.41779 0.50288 0.72077 0.0
C824 C 0.40346 0.51278 0.72227 0.0
C825 C 0.42995 0.50623 0.708 0.0
C826 C 0.43713 0.52791 0.66662 0.0
H827 H 0.52105 0.52782 0.63532 0.0
H828 H 0.49814 0.51849 0.65465 0.0
H829 H 0.44611 0.53529 0.64171 0.0
H830 H 0.39044 0.53368 0.71124 0.0
H831 H 0.41173 0.53956 0.689 0.0
H832 H 0.46258 0.52085 0.70114 0.0
C833 C 0.4962 0.52919 0.64643 0.0
C834 C 0.44986 0.53224 0.65466 0.0
C835 C 0.50933 0.53451 0.63534 0.0
C836 C 0.40134 0.52582 0.71044 0.0
C837 C 0.41349 0.52914 0.69764 0.0
C838 C 0.45882 0.52377 0.68815 0.0
C839 C 0.48079 0.53754 0.64687 0.0
C840 C 0.46721 0.53247 0.65935 0.0
C841 C 0.42804 0.51951 0.69642 0.0
C842 C 0.44148 0.52367 0.68351 0.0
H843 H 0.48994 0.56717 0.61636 0.0
H844 H 0.46706 0.55797 0.63582 0.0
H845 H 0.48473 0.52848 0.68038 0.0
H846 H 0.41978 0.49268 0.72961 0.0
H847 H 0.4409 0.49843 0.70724 0.0
C848 C 0.78992 0.25588 0.64785 0.0
C849 C 0.78145 0.2399 0.64906 0.0
C850 C 0.78359 0.26825 0.6372 0.0
C851 C 0.75593 0.273 0.5993 0.0
H852 H 0.75783 0.32023 0.61275 0.0
C853 C 0.72688 0.32389 0.55725 0.0
C854 C 0.73699 0.3388 0.5549 0.0
C855 C 0.73128 0.31217 0.56962 0.0
C856 C 0.75732 0.3071 0.60878 0.0
H857 H 0.75958 0.22448 0.64002 0.0
H858 H 0.74833 0.24617 0.62185 0.0
H859 H 0.76743 0.29911 0.63278 0.0
H860 H 0.75945 0.35328 0.564 0.0
H861 H 0.76717 0.3328 0.58548 0.0
H862 H 0.74593 0.28098 0.57528 0.0
C863 C 0.76 0.24907 0.62896 0.0
C864 C 0.76284 0.295 0.62024 0.0
C865 C 0.76634 0.2367 0.63956 0.0
C866 C 0.75138 0.34192 0.56547 0.0
C867 C 0.75575 0.33022 0.57786 0.0
C868 C 0.75038 0.28508 0.58787 0.0
C869 C 0.76862 0.26495 0.62752 0.0
C870 C 0.76229 0.27781 0.6156 0.0
C871 C 0.74586 0.31513 0.57995 0.0
C872 C 0.7511 0.30227 0.59243 0.0
H873 H 0.80147 0.25884 0.65513 0.0
H874 H 0.79064 0.28029 0.63628 0.0
H875 H 0.7556 0.25992 0.59519 0.0
H876 H 0.71567 0.32113 0.54937 0.0
H877 H 0.72327 0.30076 0.57108 0.0
C878 C 0.53596 0.98224 0.58358 0.0
C879 C 0.52068 0.99039 0.58077 0.0
C880 C 0.54279 0.98123 0.6001 0.0
C881 C 0.53178 0.98475 0.64615 0.0
H882 H 0.58057 0.99346 0.65181 0.0
C883 C 0.5637 0.99728 0.71233 0.0
C884 C 0.57962 0.99038 0.71528 0.0
C885 C 0.55611 0.9962 0.69608 0.0
C886 C 0.56696 0.99077 0.65044 0.0
H887 H 0.50058 0.00385 0.59314 0.0
H888 H 0.51251 0.00211 0.62197 0.0
H889 H 0.56808 0.99354 0.62318 0.0
H890 H 0.59985 0.97654 0.70355 0.0
H891 H 0.58652 0.97452 0.67528 0.0
H892 H 0.53068 0.98213 0.67348 0.0
C893 C 0.51909 0.99629 0.61143 0.0
C894 C 0.5598 0.99081 0.63402 0.0
C895 C 0.51225 0.99729 0.5949 0.0
C896 C 0.58762 0.98208 0.70171 0.0
C897 C 0.58003 0.981 0.68547 0.0
C898 C 0.53896 0.98471 0.6626 0.0
C899 C 0.5345 0.98835 0.61421 0.0
C900 C 0.54212 0.98786 0.63167 0.0
C901 C 0.56427 0.98819 0.68242 0.0
C902 C 0.55663 0.98777 0.66493 0.0
H903 H 0.54261 0.97655 0.57301 0.0
H904 H 0.55453 0.97477 0.60184 0.0
H905 H 0.51815 0.98219 0.64476 0.0
H906 H 0.55721 0.00378 0.7225 0.0
H907 H 0.54405 0.00202 0.69412 0.0
C908 C 0.85932 0.19331 0.7632 0.0
C909 C 0.85262 0.20527 0.75211 0.0
C910 C 0.8699 0.19845 0.77691 0.0
C911 C 0.8827 0.23485 0.80454 0.0
H912 H 0.92465 0.21145 0.81006 0.0
C913 C 0.93881 0.26109 0.84663 0.0
C914 C 0.94864 0.24958 0.85546 0.0
C915 C 0.92596 0.25534 0.83526 0.0
C916 C 0.91287 0.21795 0.80893 0.0
H917 H 0.85161 0.23206 0.74698 0.0
H918 H 0.86994 0.241 0.77104 0.0
H919 H 0.90418 0.20205 0.78808 0.0
H920 H 0.95224 0.223 0.8598 0.0
H921 H 0.92958 0.21298 0.84027 0.0
H922 H 0.89138 0.25076 0.82541 0.0
C923 C 0.8669 0.22765 0.76915 0.0
C924 C 0.90115 0.21258 0.79628 0.0
C925 C 0.85638 0.22252 0.75537 0.0
C926 C 0.94499 0.2322 0.85308 0.0
C927 C 0.93206 0.22646 0.8418 0.0
C928 C 0.89438 0.24017 0.8173 0.0
C929 C 0.87394 0.21566 0.77993 0.0
C930 C 0.886 0.22103 0.79386 0.0
C931 C 0.92256 0.23795 0.83253 0.0
C932 C 0.90968 0.23186 0.81956 0.0
H933 H 0.85639 0.17995 0.7613 0.0
H934 H 0.87492 0.18892 0.78516 0.0
H935 H 0.87103 0.24148 0.80311 0.0
H936 H 0.94133 0.27456 0.84813 0.0
H937 H 0.91907 0.26457 0.8282 0.0
C938 C 0.48012 0.91797 0.47227 0.0
C939 C 0.49469 0.92892 0.47368 0.0
C940 C 0.48109 0.90217 0.46432 0.0
C941 C 0.508 0.87841 0.43447 0.0
H942 H 0.48317 0.83925 0.45312 0.0
C943 C 0.52001 0.81062 0.41203 0.0
C944 C 0.50561 0.79976 0.40903 0.0
C945 C 0.51832 0.82635 0.41987 0.0
C946 C 0.49004 0.85011 0.44767 0.0
H947 H 0.52178 0.93174 0.46826 0.0
H948 H 0.52354 0.90417 0.45458 0.0
H949 H 0.48093 0.86676 0.46698 0.0
H950 H 0.47811 0.79685 0.41202 0.0
H951 H 0.47518 0.82434 0.42577 0.0
H952 H 0.51726 0.86171 0.4153 0.0
C953 C 0.51126 0.9079 0.45924 0.0
C954 C 0.48874 0.86588 0.45558 0.0
C955 C 0.51027 0.9237 0.46711 0.0
C956 C 0.48947 0.80492 0.41416 0.0
C957 C 0.48779 0.82062 0.42211 0.0
C958 C 0.50936 0.86265 0.42663 0.0
C959 C 0.49667 0.89696 0.45768 0.0
C960 C 0.49776 0.88022 0.44912 0.0
C961 C 0.50219 0.83153 0.42497 0.0
C962 C 0.50046 0.84831 0.43317 0.0
H963 H 0.46789 0.92172 0.47705 0.0
H964 H 0.46955 0.89417 0.46313 0.0
H965 H 0.51485 0.88923 0.42894 0.0
H966 H 0.53263 0.80704 0.40826 0.0
H967 H 0.52968 0.83439 0.42209 0.0
C968 C 0.1308 0.28831 0.75266 0.0
C969 C 0.1284 0.30195 0.74162 0.0
C970 C 0.11904 0.28442 0.76569 0.0
C971 C 0.0852 0.30318 0.79147 0.0
H972 H 0.07004 0.25671 0.79979 0.0
C973 C 0.02651 0.28613 0.83308 0.0
C974 C 0.02736 0.27243 0.84433 0.0
C975 C 0.03939 0.28944 0.82105 0.0
C976 C 0.07431 0.26973 0.79778 0.0
H977 H 0.1115 0.3219 0.73535 0.0
H978 H 0.09109 0.31517 0.75806 0.0
H979 H 0.09162 0.26301 0.7779 0.0
H980 H 0.04243 0.25142 0.85175 0.0
H981 H 0.06504 0.2573 0.8308 0.0
H982 H 0.06789 0.30994 0.81126 0.0
C983 C 0.10221 0.30767 0.75686 0.0
C984 C 0.08667 0.27334 0.78524 0.0
C985 C 0.11393 0.31153 0.74385 0.0
C986 C 0.04138 0.26206 0.84324 0.0
C987 C 0.05429 0.26538 0.83118 0.0
C988 C 0.07289 0.29958 0.804 0.0
C989 C 0.10464 0.2941 0.76797 0.0
C990 C 0.09211 0.29012 0.78182 0.0
C991 C 0.05347 0.27915 0.81999 0.0
C992 C 0.06715 0.28283 0.80719 0.0
H993 H 0.14191 0.28079 0.75141 0.0
H994 H 0.12135 0.27399 0.77415 0.0
H995 H 0.08937 0.31622 0.78938 0.0
H996 H 0.01587 0.29433 0.83351 0.0
H997 H 0.03821 0.29998 0.81244 0.0
C998 C 0.52993 0.61314 0.50919 0.0
C999 C 0.54194 0.61905 0.52154 0.0
C1000 C 0.52488 0.62366 0.49597 0.0
C1001 C 0.52319 0.6686 0.48446 0.0
H1002 H 0.51885 0.65152 0.43781 0.0
C1003 C 0.51487 0.7128 0.42709 0.0
C1004 C 0.50326 0.70749 0.41414 0.0
C1005 C 0.51933 0.70173 0.44003 0.0
C1006 C 0.5198 0.65643 0.4508 0.0
H1007 H 0.55836 0.64054 0.52939 0.0
H1008 H 0.54949 0.65888 0.50643 0.0
H1009 H 0.52696 0.63267 0.46076 0.0
H1010 H 0.48732 0.68634 0.40459 0.0
H1011 H 0.49498 0.66707 0.42731 0.0
H1012 H 0.51603 0.69234 0.47458 0.0
C1013 C 0.54377 0.6462 0.50713 0.0
C1014 C 0.52445 0.64563 0.46395 0.0
C1015 C 0.54883 0.63569 0.5203 0.0
C1016 C 0.49632 0.69082 0.41435 0.0
C1017 C 0.50078 0.67974 0.42733 0.0
C1018 C 0.51852 0.67938 0.47135 0.0
C1019 C 0.53171 0.64034 0.49483 0.0
C1020 C 0.52631 0.65163 0.48091 0.0
C1021 C 0.51228 0.6851 0.44037 0.0
C1022 C 0.51687 0.67346 0.45434 0.0
H1023 H 0.52422 0.60046 0.50989 0.0
H1024 H 0.51542 0.61884 0.48681 0.0
H1025 H 0.52422 0.67354 0.49745 0.0
H1026 H 0.52052 0.72553 0.42727 0.0
H1027 H 0.52845 0.70618 0.44971 0.0
C1028 C 0.84741 0.78945 0.74938 0.0
C1029 C 0.85439 0.79862 0.76346 0.0
C1030 C 0.85779 0.78485 0.73569 0.0
C1031 C 0.89927 0.79614 0.71527 0.0
H1032 H 0.89472 0.75117 0.6954 0.0
C1033 C 0.95083 0.77005 0.67156 0.0
C1034 C 0.94555 0.76067 0.65695 0.0
C1035 C 0.93897 0.77471 0.68385 0.0
C1036 C 0.896 0.76385 0.70066 0.0
H1037 H 0.87784 0.80969 0.7744 0.0
H1038 H 0.89588 0.80172 0.7506 0.0
H1039 H 0.87525 0.75928 0.71815 0.0
H1040 H 0.92365 0.74873 0.64387 0.0
H1041 H 0.90289 0.75697 0.66536 0.0
H1042 H 0.92007 0.8007 0.69794 0.0
C1043 C 0.88233 0.79837 0.74995 0.0
C1044 C 0.88485 0.76849 0.71369 0.0
C1045 C 0.87198 0.80294 0.7636 0.0
C1046 C 0.92813 0.75596 0.65498 0.0
C1047 C 0.91625 0.7606 0.66732 0.0
C1048 C 0.91039 0.79151 0.70228 0.0
C1049 C 0.87537 0.78934 0.7358 0.0
C1050 C 0.88651 0.78462 0.72129 0.0
C1051 C 0.92154 0.77011 0.68185 0.0
C1052 C 0.90904 0.77524 0.69498 0.0
H1053 H 0.83387 0.78607 0.7488 0.0
H1054 H 0.85201 0.77803 0.7249 0.0
H1055 H 0.90067 0.80878 0.7206 0.0
H1056 H 0.96415 0.77383 0.67355 0.0
H1057 H 0.94351 0.78179 0.69503 0.0
C1058 C 0.03818 0.88965 0.50518 0.0
C1059 C 0.02769 0.89313 0.4911 0.0
C1060 C 0.03258 0.87815 0.5177 0.0
C1061 C 0.00227 0.84185 0.52415 0.0
H1062 H 0.01222 0.84995 0.57237 0.0
C1063 C 0.97765 0.79607 0.57692 0.0
C1064 C 0.98937 0.79235 0.58987 0.0
C1065 C 0.9814 0.80908 0.5653 0.0
C1066 C 0.00946 0.84745 0.55894 0.0
H1067 H 0.00286 0.88765 0.47947 0.0
H1068 H 0.9931 0.86756 0.50132 0.0
H1069 H 0.02044 0.87147 0.55134 0.0
H1070 H 0.01414 0.79952 0.60089 0.0
H1071 H 0.02072 0.82205 0.58055 0.0
H1072 H 0.99148 0.81775 0.5317 0.0
C1073 C 0.00577 0.87353 0.50251 0.0
C1074 C 0.01417 0.85978 0.5469 0.0
C1075 C 0.01136 0.88504 0.49 0.0
C1076 C 0.00481 0.80206 0.59108 0.0
C1077 C 0.00854 0.81506 0.57948 0.0
C1078 C 0.99757 0.82952 0.53619 0.0
C1079 C 0.01636 0.86985 0.51644 0.0
C1080 C 0.01074 0.85707 0.52935 0.0
C1081 C 0.99693 0.81867 0.5664 0.0
C1082 C 0.00123 0.83211 0.55371 0.0
H1083 H 0.05092 0.89548 0.50629 0.0
H1084 H 0.04115 0.87542 0.52813 0.0
H1085 H -0.00034 0.83926 0.5107 0.0
H1086 H 0.96561 0.78888 0.57567 0.0
H1087 H 0.97208 0.81168 0.5555 0.0
C1088 C 0.15828 0.75053 0.72095 0.0
C1089 C 0.15933 0.74542 0.73814 0.0
C1090 C 0.14255 0.75031 0.71249 0.0
C1091 C 0.0984 0.73187 0.71407 0.0
H1092 H 0.08885 0.76953 0.68465 0.0
C1093 C 0.03168 0.7412 0.68441 0.0
C1094 C 0.03126 0.74666 0.66729 0.0
C1095 C 0.04721 0.74065 0.69321 0.0
C1096 C 0.09139 0.75883 0.69267 0.0
H1097 H 0.14466 0.73606 0.75993 0.0
H1098 H 0.11713 0.7357 0.74516 0.0
H1099 H 0.11605 0.76931 0.69977 0.0
H1100 H 0.04686 0.75557 0.64592 0.0
H1101 H 0.07389 0.75449 0.66122 0.0
H1102 H 0.07366 0.72143 0.70696 0.0
C1103 C 0.12853 0.73969 0.73816 0.0
C1104 C 0.10698 0.7587 0.70134 0.0
C1105 C 0.1443 0.73989 0.74663 0.0
C1106 C 0.04671 0.75138 0.65912 0.0
C1107 C 0.06221 0.75085 0.66792 0.0
C1108 C 0.08276 0.73201 0.7054 0.0
C1109 C 0.12747 0.745 0.72103 0.0
C1110 C 0.11072 0.74518 0.71207 0.0
C1111 C 0.06264 0.74558 0.6851 0.0
C1112 C 0.07912 0.74545 0.69453 0.0
H1113 H 0.16966 0.75455 0.71394 0.0
H1114 H 0.14223 0.75418 0.69919 0.0
H1115 H 0.10096 0.72118 0.72209 0.0
H1116 H 0.02001 0.73749 0.69109 0.0
H1117 H 0.0471 0.73667 0.70649 0.0
C1118 C 0.9839 0.59643 0.52647 0.0
C1119 C 0.98284 0.58104 0.53531 0.0
C1120 C 0.98292 0.61174 0.53535 0.0
C1121 C 0.9684 0.62998 0.57634 0.0
H1122 H 0.00015 0.66719 0.56497 0.0
C1123 C 0.97953 0.68858 0.62014 0.0
C1124 C 0.98205 0.70439 0.61228 0.0
C1125 C 0.97842 0.67379 0.61025 0.0
C1126 C 0.99103 0.65701 0.56815 0.0
H1127 H 0.97956 0.56964 0.56039 0.0
H1128 H 0.97815 0.59631 0.57591 0.0
H1129 H 0.00056 0.64093 0.54857 0.0
H1130 H 0.98493 0.7171 0.5878 0.0
H1131 H 0.98284 0.69131 0.57056 0.0
H1132 H 0.95897 0.64603 0.59603 0.0
C1133 C 0.97962 0.59657 0.56209 0.0
C1134 C 0.99127 0.64196 0.55875 0.0
C1135 C 0.98064 0.58129 0.55322 0.0
C1136 C 0.98307 0.70511 0.59428 0.0
C1137 C 0.98197 0.69033 0.58439 0.0
C1138 C 0.96815 0.64505 0.58574 0.0
C1139 C 0.98078 0.61198 0.55327 0.0
C1140 C 0.98005 0.62822 0.56282 0.0
C1141 C 0.97981 0.67448 0.59227 0.0
C1142 C 0.97955 0.6587 0.58184 0.0
H1143 H 0.98571 0.59667 0.51269 0.0
H1144 H 0.98372 0.62339 0.52817 0.0
H1145 H 0.9594 0.61973 0.57962 0.0
H1146 H 0.9787 0.68757 0.63398 0.0
H1147 H 0.97693 0.66178 0.61674 0.0
C1148 C 0.73174 0.88805 0.20318 0.0
C1149 C 0.73339 0.87071 0.20585 0.0
C1150 C 0.74436 0.89979 0.20891 0.0
C1151 C 0.78088 0.90535 0.23899 0.0
H1152 H 0.79293 0.94354 0.20989 0.0
C1153 C 0.83854 0.9523 0.25249 0.0
C1154 C 0.83576 0.9695 0.25007 0.0
C1155 C 0.82613 0.93993 0.24757 0.0
C1156 C 0.7896 0.93303 0.21824 0.0
H1157 H 0.74961 0.85206 0.2166 0.0
H1158 H 0.77179 0.87257 0.22648 0.0
H1159 H 0.77131 0.92248 0.20031 0.0
H1160 H 0.81762 0.9872 0.24083 0.0
H1161 H 0.79604 0.96565 0.23229 0.0
H1162 H 0.79935 0.91593 0.25686 0.0
C1163 C 0.76059 0.87712 0.22019 0.0
C1164 C 0.77718 0.92097 0.21276 0.0
C1165 C 0.7479 0.86536 0.21451 0.0
C1166 C 0.82022 0.97406 0.24282 0.0
C1167 C 0.80788 0.96171 0.23783 0.0
C1168 C 0.79338 0.91741 0.24444 0.0
C1169 C 0.759 0.89448 0.21738 0.0
C1170 C 0.77256 0.90704 0.22312 0.0
C1171 C 0.81074 0.94451 0.24003 0.0
C1172 C 0.79777 0.93145 0.23417 0.0
H1173 H 0.72056 0.89259 0.19683 0.0
H1174 H 0.74254 0.91307 0.20685 0.0
H1175 H 0.77749 0.89489 0.24738 0.0
H1176 H 0.85037 0.94836 0.25806 0.0
H1177 H 0.82874 0.92676 0.24932 0.0
C1178 C 0.774 0.17719 0.26533 0.0
C1179 C 0.75811 0.17847 0.27343 0.0
C1180 C 0.78212 0.1619 0.26508 0.0
C1181 C 0.78372 0.12107 0.28722 0.0
H1182 H 0.80614 0.10728 0.24543 0.0
C1183 C 0.81246 0.05552 0.27884 0.0
C1184 C 0.82821 0.0551 0.27029 0.0
C1185 C 0.80361 0.07041 0.27954 0.0
C1186 C 0.8001 0.11103 0.25726 0.0
H1187 H 0.73824 0.16462 0.28755 0.0
H1188 H 0.75246 0.13788 0.28714 0.0
H1189 H 0.7911 0.13344 0.24595 0.0
H1190 H 0.84716 0.07009 0.25603 0.0
H1191 H 0.83184 0.09603 0.25741 0.0
H1192 H 0.7928 0.09865 0.29854 0.0
C1193 C 0.75871 0.14879 0.28114 0.0
C1194 C 0.79147 0.12602 0.25755 0.0
C1195 C 0.75056 0.1641 0.28137 0.0
C1196 C 0.83502 0.06994 0.26265 0.0
C1197 C 0.82618 0.0848 0.26335 0.0
C1198 C 0.79237 0.10605 0.28693 0.0
C1199 C 0.77457 0.14752 0.27295 0.0
C1200 C 0.78328 0.13128 0.27256 0.0
C1201 C 0.81032 0.08519 0.27168 0.0
C1202 C 0.80077 0.10093 0.27198 0.0
H1203 H 0.78033 0.18808 0.25938 0.0
H1204 H 0.79448 0.16143 0.25894 0.0
H1205 H 0.7777 0.12487 0.29905 0.0
H1206 H 0.80685 0.0443 0.28484 0.0
H1207 H 0.79135 0.07025 0.28593 0.0
C1208 C 0.40577 0.97858 0.00798 0.0
C1209 C 0.4193 0.97216 0.99851 0.0
C1210 C 0.38975 0.97003 0.00818 0.0
C1211 C 0.36952 0.92768 0.0017 0.0
H1212 H 0.32749 0.95135 0.99855 0.0
C1213 C 0.30423 0.89188 0.9954 0.0
C1214 C 0.2906 0.89794 0.00496 0.0
C1215 C 0.31963 0.90139 0.9941 0.0
C1216 C 0.33911 0.94458 -0.00036 0.0
H1217 H 0.42637 0.95206 0.98128 0.0
H1218 H 0.3985 0.9371 0.98175 0.0
H1219 H 0.35493 0.96722 0.99718 0.0
H1220 H 0.28238 0.91886 0.02048 0.0
H1221 H 0.30936 0.93536 0.01841 0.0
H1222 H 0.35381 0.90508 0.00436 0.0
C1223 C 0.40036 0.94861 0.98924 0.0
C1224 C 0.35482 0.95367 0.99883 0.0
C1225 C 0.41634 0.95718 0.98899 0.0
C1226 C 0.29263 0.91384 0.01299 0.0
C1227 C 0.30806 0.92334 0.01173 0.0
C1228 C 0.35385 0.91861 0.00257 0.0
C1229 C 0.38693 0.95485 0.99896 0.0
C1230 C 0.3702 0.9453 -0.0002 0.0
C1231 C 0.3218 0.91716 0.00237 0.0
C1232 C 0.33844 0.92693 0.00149 0.0
H1233 H 0.40766 0.98998 0.01563 0.0
H1234 H 0.3797 0.97506 0.01594 0.0
H1235 H 0.38114 0.9209 0.00281 0.0
H1236 H 0.30307 0.87974 0.98895 0.0
H1237 H 0.32983 0.89639 0.98654 0.0
C1238 C 0.23847 0.35697 0.2919 0.0
C1239 C 0.24808 0.35913 0.30709 0.0
C1240 C 0.22531 0.3677 0.2882 0.0
C1241 C 0.19689 0.39802 0.30848 0.0
H1242 H 0.19356 0.41604 0.26251 0.0
C1243 C 0.15899 0.45651 0.29353 0.0
C1244 C 0.14952 0.45666 0.2782 0.0
C1245 C 0.16983 0.44347 0.29688 0.0
C1246 C 0.19415 0.41093 0.27534 0.0
H1247 H 0.25152 0.3744 0.33017 0.0
H1248 H 0.22861 0.39301 0.32375 0.0
H1249 H 0.21461 0.39521 0.26867 0.0
H1250 H 0.14388 0.44308 0.25442 0.0
H1251 H 0.1628 0.42021 0.26034 0.0
H1252 H 0.17661 0.41391 0.31522 0.0
C1253 C 0.23101 0.38285 0.31484 0.0
C1254 C 0.20621 0.39899 0.27888 0.0
C1255 C 0.24416 0.37217 0.31852 0.0
C1256 C 0.15103 0.44336 0.26635 0.0
C1257 C 0.16192 0.4303 0.26969 0.0
C1258 C 0.18485 0.40995 0.30495 0.0
C1259 C 0.22147 0.38079 0.29961 0.0
C1260 C 0.20788 0.39258 0.29554 0.0
C1261 C 0.17149 0.43025 0.28498 0.0
C1262 C 0.18349 0.41672 0.2884 0.0
H1263 H 0.24104 0.34692 0.28292 0.0
H1264 H 0.21806 0.36566 0.27645 0.0
H1265 H 0.19764 0.39309 0.32137 0.0
H1266 H 0.15816 0.46657 0.30293 0.0
H1267 H 0.1772 0.44393 0.30866 0.0
C1268 C 0.11841 0.99294 0.469 0.0
C1269 C 0.10327 0.99656 0.46035 0.0
C1270 C 0.13001 0.00593 0.47415 0.0
C1271 C 0.14289 0.05038 0.46487 0.0
H1272 H 0.16776 0.04741 0.50774 0.0
C1273 C 0.18895 0.10418 0.49039 0.0
C1274 C 0.20474 0.09922 0.49672 0.0
C1275 C 0.17592 0.0921 0.48644 0.0
C1276 C 0.16099 0.04836 0.49568 0.0
H1277 H 0.08843 0.01676 0.45046 0.0
H1278 H 0.10845 0.03945 0.45987 0.0
H1279 H 0.14594 0.02564 0.50028 0.0
H1280 H 0.21919 0.07769 0.50392 0.0
H1281 H 0.19646 0.05668 0.49705 0.0
H1282 H 0.15797 0.07314 0.46033 0.0
C1283 C 0.11147 0.02653 0.46244 0.0
C1284 C 0.1485 0.03587 0.49138 0.0
C1285 C 0.09989 0.01352 0.45724 0.0
C1286 C 0.20718 0.08195 0.49908 0.0
C1287 C 0.19412 0.0699 0.49525 0.0
C1288 C 0.15532 0.06292 0.46922 0.0
C1289 C 0.12674 0.02288 0.47085 0.0
C1290 C 0.13942 0.03662 0.47583 0.0
C1291 C 0.17836 0.07484 0.48886 0.0
C1292 C 0.16462 0.06195 0.48459 0.0
H1293 H 0.12132 0.98004 0.47182 0.0
H1294 H 0.14171 0.00262 0.48042 0.0
H1295 H 0.13633 0.05124 0.45268 0.0
H1296 H 0.18666 0.11738 0.48843 0.0
H1297 H 0.16386 0.09629 0.48166 0.0
C1298 C 0.75618 0.11531 0.71434 0.0
C1299 C 0.75325 0.13245 0.71191 0.0
C1300 C 0.74275 0.10395 0.71867 0.0
C1301 C 0.698 0.10177 0.73496 0.0
H1302 H 0.69807 0.05641 0.71605 0.0
C1303 C 0.64007 0.05317 0.7372 0.0
C1304 C 0.64379 0.03694 0.74279 0.0
C1305 C 0.65326 0.06526 0.73403 0.0
C1306 C 0.69795 0.06901 0.7215 0.0
H1307 H 0.73405 0.15118 0.71201 0.0
H1308 H 0.71043 0.13129 0.71903 0.0
H1309 H 0.72129 0.07668 0.70913 0.0
H1310 H 0.66424 0.02069 0.74956 0.0
H1311 H 0.6872 0.04171 0.74373 0.0
H1312 H 0.67428 0.09404 0.7469 0.0
C1313 C 0.72316 0.12664 0.71808 0.0
C1314 C 0.7113 0.08063 0.71763 0.0
C1315 C 0.73666 0.13804 0.71399 0.0
C1316 C 0.66094 0.03309 0.74528 0.0
C1317 C 0.67409 0.04507 0.74187 0.0
C1318 C 0.6845 0.09019 0.73863 0.0
C1319 C 0.72601 0.10941 0.72042 0.0
C1320 C 0.7116 0.09714 0.72441 0.0
C1321 C 0.67039 0.06123 0.73614 0.0
C1322 C 0.68443 0.07368 0.73202 0.0
H1323 H 0.76891 0.11073 0.71301 0.0
H1324 H 0.74555 0.09089 0.72075 0.0
H1325 H 0.69788 0.11426 0.74064 0.0
H1326 H 0.62698 0.05652 0.73521 0.0
H1327 H 0.65009 0.07763 0.72956 0.0
C1328 C 0.41548 0.03463 0.52538 0.0
C1329 C 0.4216 0.02707 0.51036 0.0
C1330 C 0.39965 0.04203 0.52545 0.0
C1331 C 0.3586 0.04236 0.50227 0.0
H1332 H 0.35525 0.08658 0.52323 0.0
C1333 C 0.30073 0.08302 0.49105 0.0
C1334 C 0.29479 0.09258 0.50487 0.0
C1335 C 0.31583 0.07449 0.4925 0.0
C1336 C 0.35588 0.07412 0.51755 0.0
H1337 H 0.41583 0.02143 0.48361 0.0
H1338 H 0.38816 0.03417 0.48381 0.0
H1339 H 0.38221 0.07252 0.52442 0.0
H1340 H 0.29998 0.10052 0.53115 0.0
H1341 H 0.32625 0.08542 0.53376 0.0
H1342 H 0.3323 0.04392 0.49538 0.0
C1343 C 0.39554 0.03422 0.49558 0.0
C1344 C 0.37135 0.06608 0.51821 0.0
C1345 C 0.4114 0.02689 0.49548 0.0
C1346 C 0.30424 0.09331 0.52024 0.0
C1347 C 0.31935 0.08473 0.5217 0.0
C1348 C 0.34312 0.05036 0.50167 0.0
C1349 C 0.38954 0.04195 0.51054 0.0
C1350 C 0.37292 0.05018 0.51045 0.0
C1351 C 0.32535 0.07525 0.50783 0.0
C1352 C 0.34161 0.06641 0.50916 0.0
H1353 H 0.42286 0.03474 0.53715 0.0
H1354 H 0.39526 0.04769 0.53724 0.0
H1355 H 0.35934 0.02999 0.49641 0.0
H1356 H 0.2938 0.08223 0.479 0.0
H1357 H 0.32021 0.06754 0.48146 0.0
C1358 C 0.61016 0.5028 0.56309 0.0
C1359 C 0.60757 0.51665 0.5524 0.0
C1360 C 0.62076 0.49005 0.5579 0.0
C1361 C 0.65625 0.48221 0.52827 0.0
H1362 H 0.64555 0.43526 0.53919 0.0
C1363 C 0.69748 0.42869 0.50407 0.0
C1364 C 0.70155 0.41643 0.51616 0.0
C1365 C 0.68521 0.44038 0.50778 0.0
C1366 C 0.64876 0.44834 0.53616 0.0
H1367 H 0.61358 0.52768 0.52764 0.0
H1368 H 0.63195 0.50536 0.51849 0.0
H1369 H 0.62539 0.45661 0.54677 0.0
H1370 H 0.69567 0.40664 0.54151 0.0
H1371 H 0.67428 0.4271 0.548 0.0
H1372 H 0.67962 0.47394 0.51772 0.0
C1373 C 0.62608 0.50452 0.53104 0.0
C1374 C 0.63723 0.46057 0.54051 0.0
C1375 C 0.61553 0.5173 0.53626 0.0
C1376 C 0.69284 0.41593 0.53192 0.0
C1377 C 0.68052 0.42759 0.5356 0.0
C1378 C 0.66774 0.46997 0.52387 0.0
C1379 C 0.62896 0.49082 0.54187 0.0
C1380 C 0.64088 0.47768 0.53671 0.0
C1381 C 0.67668 0.44004 0.52363 0.0
C1382 C 0.66417 0.45291 0.52785 0.0
H1383 H 0.60438 0.50205 0.5757 0.0
H1384 H 0.62289 0.47983 0.56667 0.0
H1385 H 0.65963 0.49529 0.52542 0.0
H1386 H 0.7039 0.4294 0.49178 0.0
H1387 H 0.68238 0.44969 0.49821 0.0
C1388 C 0.73864 0.27158 0.35982 0.0
C1389 C 0.72554 0.27493 0.34816 0.0
C1390 C 0.73911 0.2791 0.3761 0.0
C1391 C 0.7244 0.31616 0.39935 0.0
H1392 H 0.73795 0.29175 0.43971 0.0
C1393 C 0.72572 0.34677 0.46681 0.0
C1394 C 0.73994 0.34375 0.47717 0.0
C1395 C 0.7228 0.33766 0.45158 0.0
C1396 C 0.73428 0.29877 0.42854 0.0
H1397 H 0.70252 0.28861 0.34455 0.0
H1398 H 0.70321 0.30156 0.37308 0.0
H1399 H 0.73478 0.27695 0.41223 0.0
H1400 H 0.76214 0.32864 0.47974 0.0
H1401 H 0.75717 0.31291 0.45308 0.0
H1402 H 0.72414 0.33804 0.41554 0.0
C1403 C 0.71321 0.29324 0.36955 0.0
C1404 C 0.73245 0.29029 0.4128 0.0
C1405 C 0.71271 0.28568 0.35328 0.0
C1406 C 0.75105 0.33127 0.47207 0.0
C1407 C 0.74814 0.32217 0.45683 0.0
C1408 C 0.72625 0.32465 0.41507 0.0
C1409 C 0.72651 0.29016 0.38108 0.0
C1410 C 0.72762 0.29892 0.398 0.0
C1411 C 0.73404 0.32532 0.44635 0.0
C1412 C 0.73135 0.31609 0.42982 0.0
H1413 H 0.7486 0.26321 0.35633 0.0
H1414 H 0.7496 0.27658 0.38462 0.0
H1415 H 0.72091 0.32324 0.38814 0.0
H1416 H 0.71686 0.35625 0.47041 0.0
H1417 H 0.7117 0.34024 0.44391 0.0
C1418 C 0.51657 0.02396 0.91746 0.0
C1419 C 0.51922 0.01044 0.92856 0.0
C1420 C 0.52348 0.02407 0.90091 0.0
C1421 C 0.53928 0.99613 0.86726 0.0
H1422 H 0.56549 0.03582 0.85177 0.0
C1423 C 0.58385 0.99389 0.80884 0.0
C1424 C 0.58553 0.00806 0.79815 0.0
C1425 C 0.57455 0.99454 0.82407 0.0
C1426 C 0.55797 0.02473 0.85573 0.0
H1427 H 0.53077 0.98628 0.93096 0.0
H1428 H 0.54275 0.98643 0.90206 0.0
H1429 H 0.55112 0.03636 0.8795 0.0
H1430 H 0.57848 0.03396 0.79493 0.0
H1431 H 0.5619 0.03499 0.82134 0.0
H1432 H 0.54598 0.98447 0.84356 0.0
C1433 C 0.53538 0.99695 0.90614 0.0
C1434 C 0.54978 0.02504 0.87166 0.0
C1435 C 0.52867 0.99693 0.92272 0.0
C1436 C 0.57751 0.02285 0.80293 0.0
C1437 C 0.56808 0.02346 0.81813 0.0
C1438 C 0.54733 0.99586 0.85129 0.0
C1439 C 0.53294 0.01055 0.89509 0.0
C1440 C 0.54058 0.01066 0.87769 0.0
C1441 C 0.56655 0.00934 0.82895 0.0
C1442 C 0.55701 0.01006 0.84543 0.0
H1443 H 0.5094 0.03456 0.92168 0.0
H1444 H 0.52134 0.03467 0.89261 0.0
H1445 H 0.53205 0.98495 0.87149 0.0
H1446 H 0.58996 0.98233 0.80559 0.0
H1447 H 0.57395 0.98352 0.83221 0.0
C1448 C 0.28412 0.24284 0.36311 0.0
C1449 C 0.29239 0.25773 0.36947 0.0
C1450 C 0.27998 0.22938 0.3741 0.0
C1451 C 0.29127 0.21192 0.4163 0.0
H1452 H 0.2472 0.18776 0.41263 0.0
C1453 C 0.26601 0.16678 0.46889 0.0
C1454 C 0.25768 0.15149 0.4637 0.0
C1455 C 0.27031 0.17926 0.4569 0.0
C1456 C 0.25964 0.19424 0.41368 0.0
H1457 H 0.30243 0.27029 0.39243 0.0
H1458 H 0.29524 0.24689 0.41154 0.0
H1459 H 0.25464 0.2104 0.39253 0.0
H1460 H 0.24724 0.13738 0.44182 0.0
H1461 H 0.25485 0.15919 0.42084 0.0
H1462 H 0.29624 0.19588 0.4375 0.0
C1463 C 0.29223 0.24546 0.39801 0.0
C1464 C 0.2639 0.20721 0.40216 0.0
C1465 C 0.29636 0.25889 0.38705 0.0
C1466 C 0.25364 0.14902 0.44624 0.0
C1467 C 0.25792 0.16154 0.43423 0.0
C1468 C 0.28701 0.19898 0.4278 0.0
C1469 C 0.28404 0.23053 0.39167 0.0
C1470 C 0.27971 0.2163 0.40344 0.0
C1471 C 0.26637 0.17678 0.43942 0.0
C1472 C 0.27109 0.19009 0.42673 0.0
H1473 H 0.28106 0.24148 0.34959 0.0
H1474 H 0.27385 0.21798 0.36877 0.0
H1475 H 0.30368 0.21844 0.41743 0.0
H1476 H 0.26926 0.16914 0.48224 0.0
H1477 H 0.27657 0.19096 0.46136 0.0
C1478 C 0.47839 0.46017 0.90002 0.0
C1479 C 0.49539 0.46461 0.89559 0.0
C1480 C 0.46487 0.46543 0.88996 0.0
C1481 C 0.45573 0.47906 0.84593 0.0
H1482 H 0.41345 0.49395 0.86536 0.0
C1483 C 0.40457 0.5072 0.80364 0.0
C1484 C 0.38744 0.50196 0.80655 0.0
C1485 C 0.4173 0.50326 0.81526 0.0
C1486 C 0.42512 0.48966 0.85975 0.0
H1487 H 0.51147 0.47876 0.87763 0.0
H1488 H 0.48793 0.48798 0.86012 0.0
H1489 H 0.43658 0.48615 0.88441 0.0
H1490 H 0.37023 0.48876 0.82422 0.0
H1491 H 0.3926 0.48169 0.84451 0.0
H1492 H 0.44435 0.48243 0.82133 0.0
C1493 C 0.48505 0.48012 0.87115 0.0
C1494 C 0.43836 0.4852 0.87066 0.0
C1495 C 0.49854 0.47485 0.88119 0.0
C1496 C 0.3833 0.49299 0.8216 0.0
C1497 C 0.3961 0.48901 0.83326 0.0
C1498 C 0.44253 0.48348 0.83507 0.0
C1499 C 0.46807 0.47526 0.87526 0.0
C1500 C 0.45386 0.47995 0.86385 0.0
C1501 C 0.41328 0.49391 0.83008 0.0
C1502 C 0.42711 0.48895 0.84183 0.0
H1503 H 0.47556 0.45215 0.91095 0.0
H1504 H 0.45195 0.46135 0.89338 0.0
H1505 H 0.46734 0.4747 0.84027 0.0
H1506 H 0.40821 0.51425 0.79226 0.0
H1507 H 0.43036 0.50752 0.81259 0.0
C1508 C 0.69367 0.74586 0.13986 0.0
C1509 C 0.70381 0.76076 0.14249 0.0
C1510 C 0.69958 0.73276 0.12974 0.0
C1511 C 0.73869 0.71611 0.11053 0.0
H1512 H 0.70676 0.69506 0.07787 0.0
C1513 C 0.75984 0.67541 0.05324 0.0
C1514 C 0.74951 0.66109 0.04873 0.0
C1515 C 0.75462 0.68659 0.06593 0.0
C1516 C 0.71578 0.70062 0.08709 0.0
H1517 H 0.72819 0.7735 0.13667 0.0
H1518 H 0.73848 0.75067 0.11897 0.0
H1519 H 0.69704 0.71629 0.09783 0.0
H1520 H 0.72577 0.64703 0.05434 0.0
H1521 H 0.71674 0.66645 0.07657 0.0
H1522 H 0.7575 0.70057 0.09956 0.0
C1523 C 0.72606 0.749 0.12493 0.0
C1524 C 0.71021 0.7128 0.09854 0.0
C1525 C 0.72015 0.7621 0.13508 0.0
C1526 C 0.73401 0.65798 0.05745 0.0
C1527 C 0.72878 0.66917 0.07013 0.0
C1528 C 0.74428 0.70392 0.09905 0.0
C1529 C 0.71576 0.73425 0.12198 0.0
C1530 C 0.72161 0.72077 0.11033 0.0
C1531 C 0.73893 0.6837 0.07438 0.0
C1532 C 0.73291 0.69611 0.08712 0.0
H1533 H 0.68114 0.74433 0.14562 0.0
H1534 H 0.69146 0.72144 0.12797 0.0
H1535 H 0.74774 0.72184 0.11962 0.0
H1536 H 0.77185 0.67819 0.04676 0.0
H1537 H 0.76266 0.69775 0.06876 0.0
C1538 C 0.00939 0.03335 0.13311 0.0
C1539 C 0.00749 0.04707 0.12206 0.0
C1540 C 0.99628 0.02828 0.14433 0.0
C1541 C 0.95007 0.03187 0.15283 0.0
H1542 H 0.96297 0.02102 0.1994 0.0
C1543 C 0.9017 0.02636 0.20881 0.0
C1544 C 0.90384 0.01351 0.22085 0.0
C1545 C 0.91384 0.02948 0.19595 0.0
C1546 C 0.95915 0.02378 0.18639 0.0
H1547 H 0.99027 0.0661 0.114 0.0
H1548 H 0.96741 0.05731 0.13366 0.0
H1549 H 0.98504 0.02817 0.1784 0.0
H1550 H 0.9202 0.99356 0.22853 0.0
H1551 H 0.94127 0.99894 0.20605 0.0
H1552 H 0.92412 0.02768 0.16096 0.0
C1553 C 0.97894 0.05031 0.13348 0.0
C1554 C 0.97181 0.02788 0.17434 0.0
C1555 C 0.99205 0.05537 0.12222 0.0
C1556 C 0.91819 0.00362 0.21952 0.0
C1557 C 0.93033 0.00675 0.20669 0.0
C1558 C 0.93738 0.0278 0.16491 0.0
C1559 C 0.98098 0.03682 0.1448 0.0
C1560 C 0.96743 0.03202 0.15742 0.0
C1561 C 0.92839 0.01983 0.19487 0.0
C1562 C 0.94179 0.02375 0.18184 0.0
H1563 H 0.02103 0.02652 0.13308 0.0
H1564 H 0.99814 0.01763 0.15265 0.0
H1565 H 0.94627 0.03478 0.13985 0.0
H1566 H 0.89079 0.03421 0.20947 0.0
H1567 H 0.91205 0.03975 0.18714 0.0
C1568 C 0.29159 0.74138 0.13073 0.0
C1569 C 0.28419 0.73794 0.14682 0.0
C1570 C 0.28567 0.75422 0.12046 0.0
C1571 C 0.27766 0.78799 0.10555 0.0
H1572 H 0.22913 0.79486 0.10218 0.0
C1573 C 0.25252 0.84319 0.06703 0.0
C1574 C 0.23806 0.83971 0.05667 0.0
C1575 C 0.2575 0.83154 0.07919 0.0
C1576 C 0.24272 0.79305 0.1029 0.0
H1577 H 0.26462 0.74529 0.16466 0.0
H1578 H 0.2546 0.76803 0.14692 0.0
H1579 H 0.2392 0.77273 0.12069 0.0
H1580 H 0.21726 0.82142 0.05123 0.0
H1581 H 0.22616 0.80092 0.0722 0.0
H1582 H 0.28118 0.80782 0.08732 0.0
C1583 C 0.26485 0.76062 0.14215 0.0
C1584 C 0.24851 0.78049 0.11368 0.0
C1585 C 0.27074 0.74771 0.15242 0.0
C1586 C 0.22844 0.82451 0.05905 0.0
C1587 C 0.2335 0.81278 0.07114 0.0
C1588 C 0.27187 0.80047 0.09474 0.0
C1589 C 0.27225 0.76404 0.12604 0.0
C1590 C 0.26605 0.77773 0.11504 0.0
C1591 C 0.24824 0.81606 0.0812 0.0
C1592 C 0.25433 0.80312 0.09321 0.0
H1593 H 0.30212 0.73426 0.1261 0.0
H1594 H 0.29153 0.75634 0.10803 0.0
H1595 H 0.29127 0.78639 0.10646 0.0
H1596 H 0.26013 0.85487 0.06563 0.0
H1597 H 0.26871 0.83464 0.08695 0.0
C1598 C 0.03349 0.48402 0.0862 0.0
C1599 C 0.01809 0.49181 0.08293 0.0
C1600 C 0.03986 0.48313 0.10292 0.0
C1601 C 0.03749 0.50389 0.14527 0.0
H1602 H 0.05916 0.46392 0.16121 0.0
C1603 C 0.06148 0.49803 0.21495 0.0
C1604 C 0.0777 0.49149 0.21706 0.0
C1605 C 0.0533 0.49717 0.19899 0.0
C1606 C 0.05326 0.47522 0.1569 0.0
H1607 H 0.99728 0.50472 0.09472 0.0
H1608 H 0.00824 0.5029 0.12393 0.0
H1609 H 0.04647 0.46404 0.13258 0.0
H1610 H 0.09791 0.47866 0.2041 0.0
H1611 H 0.08368 0.47729 0.17626 0.0
H1612 H 0.04441 0.51512 0.1695 0.0
C1613 C 0.01548 0.49762 0.11353 0.0
C1614 C 0.046 0.47529 0.14049 0.0
C1615 C 0.0091 0.4985 0.09681 0.0
C1616 C 0.08541 0.4838 0.20293 0.0
C1617 C 0.07721 0.48293 0.18699 0.0
C1618 C 0.04474 0.50381 0.16166 0.0
C1619 C 0.03099 0.49002 0.11677 0.0
C1620 C 0.03813 0.48967 0.13444 0.0
C1621 C 0.06113 0.48974 0.18479 0.0
C1622 C 0.05281 0.48952 0.16763 0.0
H1623 H 0.04063 0.47857 0.07583 0.0
H1624 H 0.05192 0.47733 0.10494 0.0
H1625 H 0.03177 0.51526 0.14091 0.0
H1626 H 0.05516 0.50398 0.22558 0.0
H1627 H 0.04081 0.50234 0.19777 0.0
C1628 C 0.36174 0.69513 0.26266 0.0
C1629 C 0.35297 0.70685 0.25299 0.0
C1630 C 0.37245 0.70052 0.27617 0.0
C1631 C 0.39694 0.73841 0.29233 0.0
H1632 H 0.40096 0.7117 0.33352 0.0
C1633 C 0.43901 0.76114 0.3495 0.0
C1634 C 0.44997 0.74926 0.35614 0.0
C1635 C 0.42597 0.75613 0.33803 0.0
C1636 C 0.40002 0.71924 0.32205 0.0
H1637 H 0.34811 0.73336 0.25024 0.0
H1638 H 0.36659 0.7428 0.27401 0.0
H1639 H 0.38022 0.70279 0.31145 0.0
H1640 H 0.45548 0.72271 0.35637 0.0
H1641 H 0.43269 0.71398 0.33636 0.0
H1642 H 0.41674 0.75485 0.30294 0.0
C1643 C 0.36551 0.72946 0.27092 0.0
C1644 C 0.38817 0.71413 0.30938 0.0
C1645 C 0.35489 0.72406 0.25732 0.0
C1646 C 0.44727 0.73218 0.35147 0.0
C1647 C 0.43416 0.72716 0.34007 0.0
C1648 C 0.40869 0.74357 0.30504 0.0
C1649 C 0.37457 0.71777 0.28041 0.0
C1650 C 0.38659 0.72357 0.29429 0.0
C1651 C 0.42354 0.73912 0.33303 0.0
C1652 C 0.41045 0.73398 0.31997 0.0
H1653 H 0.36069 0.6818 0.25947 0.0
H1654 H 0.37943 0.69119 0.28299 0.0
H1655 H 0.39631 0.74584 0.28076 0.0
H1656 H 0.44069 0.77438 0.35287 0.0
H1657 H 0.41785 0.76559 0.33298 0.0
C1658 C 0.00925 0.42427 0.969 0.0
C1659 C 0.99366 0.42984 0.9752 0.0
C1660 C 0.01004 0.40847 0.96108 0.0
C1661 C 0.9866 0.36698 0.95662 0.0
H1662 H 0.01607 0.36234 0.9171 0.0
C1663 C 0.9871 0.30613 0.91497 0.0
C1664 C 0.00325 0.3006 0.91039 0.0
C1665 C 0.98553 0.32186 0.92289 0.0
C1666 C 0.00789 0.36341 0.92821 0.0
H1667 H 0.96664 0.42326 0.97786 0.0
H1668 H 0.96797 0.39572 0.96385 0.0
H1669 H 0.01396 0.38987 0.93079 0.0
H1670 H 0.03043 0.30726 0.91054 0.0
H1671 H 0.02767 0.33467 0.9243 0.0
H1672 H 0.98045 0.34048 0.95387 0.0
C1673 C 0.97965 0.40344 0.96537 0.0
C1674 C 0.0067 0.37918 0.93609 0.0
C1675 C 0.97888 0.41923 0.97338 0.0
C1676 C 0.01779 0.31113 0.91389 0.0
C1677 C 0.01621 0.32689 0.92169 0.0
C1678 C 0.98772 0.35121 0.94866 0.0
C1679 C 0.99525 0.39789 0.95909 0.0
C1680 C 0.99614 0.38115 0.95047 0.0
C1681 C 7e-05 0.33244 0.92626 0.0
C1682 C 0.99847 0.34924 0.93445 0.0
H1683 H 0.02091 0.43204 0.97047 0.0
H1684 H 0.02233 0.40447 0.95672 0.0
H1685 H 0.97852 0.36799 0.9678 0.0
H1686 H 0.97564 0.29831 0.91243 0.0
H1687 H 0.97291 0.32586 0.92614 0.0
C1688 C 0.63201 0.79033 0.25165 0.0
C1689 C 0.62818 0.80226 0.23911 0.0
C1690 C 0.62031 0.78618 0.26467 0.0
C1691 C 0.58324 0.80258 0.28736 0.0
H1692 H 0.57389 0.75593 0.30028 0.0
C1693 C 0.52582 0.78263 0.32953 0.0
C1694 C 0.52812 0.77042 0.3422 0.0
C1695 C 0.53852 0.78625 0.3174 0.0
C1696 C 0.57652 0.76904 0.29698 0.0
H1697 H 0.60882 0.8188 0.23018 0.0
H1698 H 0.58853 0.81166 0.25289 0.0
H1699 H 0.59529 0.76274 0.27833 0.0
H1700 H 0.54557 0.75236 0.35201 0.0
H1701 H 0.56787 0.75882 0.33087 0.0
H1702 H 0.56452 0.80893 0.30594 0.0
C1703 C 0.60069 0.80573 0.25284 0.0
C1704 C 0.58877 0.77294 0.2844 0.0
C1705 C 0.61234 0.80983 0.23983 0.0
C1706 C 0.54339 0.76182 0.34239 0.0
C1707 C 0.55613 0.76546 0.33023 0.0
C1708 C 0.57105 0.7987 0.29994 0.0
C1709 C 0.60455 0.79391 0.26545 0.0
C1710 C 0.59212 0.78974 0.27933 0.0
C1711 C 0.55387 0.77778 0.31764 0.0
C1712 C 0.5674 0.78187 0.30478 0.0
H1713 H 0.64417 0.7844 0.25158 0.0
H1714 H 0.62372 0.77715 0.2743 0.0
H1715 H 0.58577 0.81568 0.28397 0.0
H1716 H 0.51418 0.78943 0.32895 0.0
H1717 H 0.53623 0.79559 0.30769 0.0
C1718 C 0.03015 0.11251 0.00711 0.0
C1719 C 0.04167 0.11846 0.01989 0.0
C1720 C 0.02497 0.12324 0.99412 0.0
C1721 C 0.02169 0.16833 0.98398 0.0
H1722 H 0.01925 0.15264 0.93674 0.0
C1723 C 0.01282 0.21388 0.92777 0.0
C1724 C 0.00189 0.20846 0.91429 0.0
C1725 C 0.0174 0.20265 0.94053 0.0
C1726 C 0.01966 0.15715 0.94989 0.0
H1727 H 0.05707 0.14028 0.02878 0.0
H1728 H 0.04796 0.15897 0.00623 0.0
H1729 H 0.0276 0.13344 0.95927 0.0
H1730 H 0.98722 0.18695 0.90365 0.0
H1731 H 0.99505 0.16741 0.92605 0.0
H1732 H 0.01373 0.19201 0.97467 0.0
C1733 C 0.04272 0.14608 0.0064 0.0
C1734 C 0.02445 0.14615 0.9628 0.0
C1735 C 0.04793 0.13536 0.01934 0.0
C1736 C 0.99571 0.19153 0.91383 0.0
C1737 C 0.00026 0.1803 0.92662 0.0
C1738 C 0.01686 0.17931 0.9711 0.0
C1739 C 0.03116 0.14017 0.99366 0.0
C1740 C 0.02563 0.15166 0.97997 0.0
C1741 C 0.01113 0.18574 0.94016 0.0
C1742 C 0.01589 0.17389 0.95388 0.0
H1743 H 0.02492 0.09963 0.00729 0.0
H1744 H 0.0159 0.11836 0.9846 0.0
H1745 H 0.02219 0.17287 0.99713 0.0
H1746 H 0.01789 0.22681 0.92848 0.0
H1747 H 0.02601 0.2072 0.95061 0.0
C1748 C 0.36902 0.30272 0.26157 0.0
C1749 C 0.35146 0.29822 0.26176 0.0
C1750 C 0.37921 0.29803 0.24785 0.0
C1751 C 0.38161 0.26733 0.21239 0.0
H1752 H 0.4164 0.29939 0.19545 0.0
C1753 C 0.42526 0.25301 0.15443 0.0
C1754 C 0.44263 0.25791 0.15642 0.0
C1755 C 0.41321 0.25811 0.1664 0.0
C1756 C 0.40683 0.29025 0.20012 0.0
H1757 H 0.33084 0.28526 0.24758 0.0
H1758 H 0.34873 0.27697 0.22358 0.0
H1759 H 0.39701 0.30796 0.21793 0.0
H1760 H 0.46096 0.27195 0.1726 0.0
H1761 H 0.44006 0.28068 0.19344 0.0
H1762 H 0.39162 0.24955 0.19467 0.0
C1763 C 0.35459 0.28404 0.23416 0.0
C1764 C 0.39572 0.29516 0.213 0.0
C1765 C 0.34436 0.28878 0.24791 0.0
C1766 C 0.44768 0.26799 0.17062 0.0
C1767 C 0.43567 0.2731 0.18253 0.0
C1768 C 0.39276 0.2624 0.19948 0.0
C1769 C 0.37213 0.28867 0.23396 0.0
C1770 C 0.38315 0.2837 0.21947 0.0
C1771 C 0.41829 0.26826 0.18056 0.0
C1772 C 0.40566 0.27374 0.19339 0.0
H1773 H 0.37498 0.30967 0.27219 0.0
H1774 H 0.39274 0.3015 0.24826 0.0
H1775 H 0.37216 0.25816 0.2172 0.0
H1776 H 0.42095 0.24526 0.14362 0.0
H1777 H 0.3999 0.25428 0.16446 0.0
C1778 C 0.52369 0.3746 0.9914 0.0
C1779 C 0.52997 0.39115 0.995 0.0
C1780 C 0.51904 0.3636 0.0047 0.0
C1781 C 0.52649 0.35658 0.05081 0.0
H1782 H 0.48679 0.32572 0.04654 0.0
C1783 C 0.50353 0.31351 0.1064 0.0
C1784 C 0.49882 0.29668 0.10208 0.0
C1785 C 0.50649 0.32553 0.09358 0.0
C1786 C 0.498 0.33417 0.04786 0.0
H1787 H 0.53588 0.40926 0.0154 0.0
H1788 H 0.5277 0.39008 0.03864 0.0
H1789 H 0.49341 0.3459 0.02374 0.0
H1790 H 0.49331 0.27935 0.08089 0.0
H1791 H 0.49859 0.30029 0.05855 0.0
H1792 H 0.53114 0.34479 0.07488 0.0
C1793 C 0.52664 0.38552 0.02552 0.0
C1794 C 0.50179 0.34573 0.0348 0.0
C1795 C 0.53131 0.39651 0.01221 0.0
C1796 C 0.49691 0.2922 0.08466 0.0
C1797 C 0.49983 0.30423 0.07185 0.0
C1798 C 0.52269 0.34504 0.06388 0.0
C1799 C 0.52055 0.3689 0.02193 0.0
C1800 C 0.51615 0.357 0.03607 0.0
C1801 C 0.50476 0.32101 0.07616 0.0
C1802 C 0.50845 0.33364 0.06251 0.0
H1803 H 0.52275 0.37 0.97829 0.0
H1804 H 0.51466 0.35081 0.00149 0.0
H1805 H 0.5378 0.3649 0.05208 0.0
H1806 H 0.50505 0.3174 0.11969 0.0
H1807 H 0.51006 0.3384 0.09733 0.0
C1808 C 0.6418 0.23629 0.24764 0.0
C1809 C 0.65587 0.24588 0.24115 0.0
C1810 C 0.62599 0.23608 0.23927 0.0
C1811 C 0.60109 0.26019 0.20836 0.0
H1812 H 0.57465 0.21795 0.20246 0.0
C1813 C 0.54334 0.25353 0.16253 0.0
C1814 C 0.52892 0.24384 0.16804 0.0
C1815 C 0.55851 0.25384 0.17198 0.0
C1816 C 0.58178 0.22988 0.20419 0.0
H1817 H 0.66442 0.26246 0.22054 0.0
H1818 H 0.63689 0.26211 0.20598 0.0
H1819 H 0.60169 0.21836 0.21808 0.0
H1820 H 0.51913 0.22693 0.18785 0.0
H1821 H 0.54559 0.2276 0.20442 0.0
H1822 H 0.58125 0.2717 0.19442 0.0
C1823 C 0.63799 0.25499 0.21771 0.0
C1824 C 0.59727 0.23012 0.21314 0.0
C1825 C 0.65377 0.25519 0.22607 0.0
C1826 C 0.53001 0.23449 0.18322 0.0
C1827 C 0.5452 0.2348 0.19268 0.0
C1828 C 0.58562 0.25995 0.19943 0.0
C1829 C 0.6239 0.24546 0.22422 0.0
C1830 C 0.60716 0.24526 0.21522 0.0
C1831 C 0.55963 0.24449 0.18717 0.0
C1832 C 0.57583 0.24478 0.19713 0.0
H1833 H 0.64294 0.22914 0.25935 0.0
H1834 H 0.61534 0.22877 0.24472 0.0
H1835 H 0.60826 0.27211 0.21001 0.0
H1836 H 0.54295 0.26084 0.15085 0.0
H1837 H 0.56945 0.26125 0.16724 0.0
C1838 C 0.50335 0.08043 0.04836 0.0
C1839 C 0.48972 0.07532 0.0375 0.0
C1840 C 0.50335 0.09587 0.05706 0.0
C1841 C 0.48333 0.13735 0.05713 0.0
H1842 H 0.5023 0.1403 0.10314 0.0
C1843 C 0.48094 0.19723 0.10029 0.0
C1844 C 0.49661 0.20252 0.10786 0.0
C1845 C 0.47909 0.18153 0.09201 0.0
C1846 C 0.49702 0.13967 0.09028 0.0
H1847 H 0.46535 0.08231 0.02728 0.0
H1848 H 0.46513 0.10919 0.04276 0.0
H1849 H 0.50081 0.11325 0.08807 0.0
H1850 H 0.52251 0.19538 0.11296 0.0
H1851 H 0.51917 0.16795 0.09873 0.0
H1852 H 0.47941 0.16384 0.05955 0.0
C1853 C 0.47602 0.10143 0.0443 0.0
C1854 C 0.49623 0.1242 0.08159 0.0
C1855 C 0.4761 0.08602 0.03545 0.0
C1856 C 0.51028 0.1917 0.10722 0.0
C1857 C 0.50835 0.17595 0.09916 0.0
C1858 C 0.48397 0.15282 0.06592 0.0
C1859 C 0.48963 0.10653 0.05526 0.0
C1860 C 0.48961 0.12287 0.0648 0.0
C1861 C 0.49278 0.17073 0.09139 0.0
C1862 C 0.49104 0.15416 0.08248 0.0
H1863 H 0.51414 0.07254 0.04997 0.0
H1864 H 0.51424 0.09953 0.06505 0.0
H1865 H 0.47834 0.13688 0.04416 0.0
H1866 H 0.47019 0.20531 0.10055 0.0
H1867 H 0.46691 0.17776 0.08621 0.0
C1868 C 0.24844 0.36432 0.71604 0.0
C1869 C 0.234 0.36958 0.7072 0.0
C1870 C 0.26108 0.37612 0.72171 0.0
C1871 C 0.27779 0.4199 0.71416 0.0
H1872 H 0.2991 0.41529 0.75875 0.0
C1873 C 0.32031 0.47327 0.74449 0.0
C1874 C 0.33565 0.46876 0.75221 0.0
C1875 C 0.30807 0.46089 0.73935 0.0
C1876 C 0.29338 0.41665 0.74619 0.0
H1877 H 0.22129 0.39138 0.69779 0.0
H1878 H 0.24321 0.41195 0.70776 0.0
H1879 H 0.27745 0.39415 0.74904 0.0
H1880 H 0.35 0.44769 0.76087 0.0
H1881 H 0.32856 0.42604 0.75185 0.0
H1882 H 0.2936 0.44245 0.71136 0.0
C1883 C 0.24499 0.39868 0.71 0.0
C1884 C 0.28099 0.40453 0.74061 0.0
C1885 C 0.23241 0.3869 0.70429 0.0
C1886 C 0.33832 0.45159 0.75495 0.0
C1887 C 0.32602 0.43918 0.74986 0.0
C1888 C 0.2901 0.43202 0.71975 0.0
C1889 C 0.25953 0.39345 0.71871 0.0
C1890 C 0.27299 0.40607 0.72456 0.0
C1891 C 0.31083 0.4437 0.74185 0.0
C1892 C 0.29797 0.43059 0.73587 0.0
H1893 H 0.25011 0.35104 0.71833 0.0
H1894 H 0.27221 0.37164 0.72819 0.0
H1895 H 0.27215 0.42131 0.70158 0.0
H1896 H 0.3178 0.48639 0.74226 0.0
H1897 H 0.29638 0.46479 0.73345 0.0
C1898 C 0.27668 0.67777 0.76652 0.0
C1899 C 0.26002 0.67892 0.77293 0.0
C1900 C 0.28461 0.66239 0.7665 0.0
C1901 C 0.28344 0.62059 0.78695 0.0
H1902 H 0.30975 0.60819 0.74709 0.0
C1903 C 0.31183 0.55484 0.77869 0.0
C1904 C 0.32827 0.55445 0.77159 0.0
C1905 C 0.30324 0.5699 0.77923 0.0
C1906 C 0.30262 0.61154 0.7584 0.0
H1907 H 0.2386 0.66471 0.78424 0.0
H1908 H 0.25251 0.63781 0.78425 0.0
H1909 H 0.29511 0.63458 0.74718 0.0
H1910 H 0.34875 0.56967 0.75982 0.0
H1911 H 0.33389 0.5959 0.76095 0.0
H1912 H 0.29103 0.59753 0.79819 0.0
C1913 C 0.25948 0.6489 0.77941 0.0
C1914 C 0.29421 0.62667 0.75845 0.0
C1915 C 0.25151 0.66431 0.7794 0.0
C1916 C 0.33605 0.5695 0.7653 0.0
C1917 C 0.32748 0.58452 0.76584 0.0
C1918 C 0.29188 0.60544 0.78692 0.0
C1919 C 0.27611 0.64776 0.7729 0.0
C1920 C 0.28462 0.63142 0.77275 0.0
C1921 C 0.31092 0.58488 0.77267 0.0
C1922 C 0.30165 0.6008 0.77268 0.0
H1923 H 0.28373 0.68884 0.76175 0.0
H1924 H 0.29754 0.66201 0.76168 0.0
H1925 H 0.27631 0.62399 0.79825 0.0
H1926 H 0.30546 0.54347 0.78363 0.0
H1927 H 0.29044 0.56971 0.78445 0.0
C1928 C 0.90384 0.47677 0.47955 0.0
C1929 C 0.91201 0.48098 0.49519 0.0
C1930 C 0.88761 0.46863 0.47935 0.0
C1931 C 0.84949 0.46022 0.50643 0.0
H1932 H 0.84031 0.42261 0.47514 0.0
C1933 C 0.79131 0.41384 0.5142 0.0
C1934 C 0.78256 0.40821 0.4993 0.0
C1935 C 0.80665 0.42345 0.51301 0.0
C1936 C 0.84259 0.43324 0.48379 0.0
H1937 H 0.90962 0.47969 0.5229 0.0
H1938 H 0.88136 0.46557 0.52256 0.0
H1939 H 0.86792 0.43815 0.47424 0.0
H1940 H 0.78304 0.40837 0.47146 0.0
H1941 H 0.80981 0.42526 0.4694 0.0
H1942 H 0.82424 0.45522 0.51609 0.0
C1943 C 0.88736 0.46881 0.51043 0.0
C1944 C 0.8584 0.44214 0.48328 0.0
C1945 C 0.90356 0.47692 0.51062 0.0
C1946 C 0.78947 0.41247 0.48319 0.0
C1947 C 0.80486 0.42208 0.482 0.0
C1948 C 0.83369 0.45133 0.50694 0.0
C1949 C 0.8792 0.46455 0.4948 0.0
C1950 C 0.8621 0.45563 0.49472 0.0
C1951 C 0.81362 0.42766 0.49691 0.0
C1952 C 0.83011 0.43762 0.49575 0.0
H1953 H 0.90991 0.47991 0.46743 0.0
H1954 H 0.88158 0.46569 0.4671 0.0
H1955 H 0.85182 0.47074 0.5152 0.0
H1956 H 0.78637 0.41074 0.52683 0.0
H1957 H 0.8132 0.42734 0.52475 0.0
C1958 C 0.75087 0.87763 0.81727 0.0
C1959 C 0.75295 0.86284 0.8076 0.0
C1960 C 0.73771 0.88826 0.81351 0.0
C1961 C 0.70877 0.90012 0.7789 0.0
H1962 H 0.6837 0.91991 0.81624 0.0
C1963 C 0.65236 0.94328 0.76724 0.0
C1964 C 0.65202 0.95782 0.77764 0.0
C1965 C 0.6637 0.93067 0.77085 0.0
C1966 C 0.69066 0.9146 0.80567 0.0
H1967 H 0.74269 0.84759 0.78641 0.0
H1968 H 0.71973 0.86628 0.77975 0.0
H1969 H 0.70537 0.89981 0.82253 0.0
H1970 H 0.66327 0.97047 0.80003 0.0
H1971 H 0.6831 0.94866 0.80618 0.0
H1972 H 0.69423 0.91512 0.76204 0.0
C1973 C 0.72841 0.86967 0.79018 0.0
C1974 C 0.70308 0.90308 0.80928 0.0
C1975 C 0.74158 0.85899 0.79398 0.0
C1976 C 0.66314 0.95941 0.79179 0.0
C1977 C 0.67446 0.94684 0.79538 0.0
C1978 C 0.69636 0.91169 0.77528 0.0
C1979 C 0.72631 0.8844 0.79994 0.0
C1980 C 0.71243 0.89587 0.79596 0.0
C1981 C 0.67492 0.93234 0.78495 0.0
C1982 C 0.68732 0.91923 0.78865 0.0
H1983 H 0.7596 0.88117 0.82762 0.0
H1984 H 0.73664 0.89968 0.82106 0.0
H1985 H 0.71587 0.89491 0.76837 0.0
H1986 H 0.64392 0.94166 0.75627 0.0
H1987 H 0.66362 0.91957 0.76266 0.0
C1988 C 0.62081 0.49015 0.96194 0.0
C1989 C 0.60338 0.49323 0.96019 0.0
C1990 C 0.63242 0.50286 0.96769 0.0
C1991 C 0.63823 0.54918 0.97203 0.0
H1992 H 0.67515 0.53805 0.00251 0.0
C1993 C 0.68545 0.59982 0.0016 0.0
C1994 C 0.7028 0.59611 0.00128 0.0
C1995 C 0.67283 0.58744 0.99729 0.0
C1996 C 0.66498 0.54133 0.9939 0.0
H1997 H 0.58452 0.51217 0.96314 0.0
H1998 H 0.60475 0.53427 0.97356 0.0
H1999 H 0.6539 0.51616 0.99389 0.0
H2000 H 0.7205 0.57646 0.99625 0.0
H2001 H 0.69851 0.55492 0.98872 0.0
H2002 H 0.64936 0.57438 0.97208 0.0
C2003 C 0.60946 0.52205 0.97026 0.0
C2004 C 0.65281 0.52878 0.98894 0.0
C2005 C 0.59783 0.50932 0.96447 0.0
C2006 C 0.70725 0.57974 0.99665 0.0
C2007 C 0.69465 0.56735 0.99243 0.0
C2008 C 0.65037 0.56175 0.97706 0.0
C2009 C 0.6269 0.51897 0.97191 0.0
C2010 C 0.63938 0.53251 0.9778 0.0
C2011 C 0.6773 0.57107 0.99267 0.0
C2012 C 0.66397 0.55792 0.98791 0.0
H2013 H 0.6255 0.47784 0.95897 0.0
H2014 H 0.64579 0.50009 0.9686 0.0
H2015 H 0.62819 0.55245 0.96327 0.0
H2016 H 0.68158 0.61231 0.00512 0.0
H2017 H 0.65956 0.59064 0.99773 0.0
C2018 C 0.23553 0.63614 0.20583 0.0
C2019 C 0.25219 0.63364 0.21166 0.0
C2020 C 0.22207 0.62477 0.21012 0.0
C2021 C 0.2135 0.58087 0.22451 0.0
H2022 H 0.16858 0.59646 0.23523 0.0
C2023 C 0.1595 0.53591 0.24959 0.0
C2024 C 0.14329 0.53728 0.24213 0.0
C2025 C 0.17255 0.54811 0.24652 0.0
C2026 C 0.18102 0.59192 0.23213 0.0
H2027 H 0.2677 0.61755 0.22701 0.0
H2028 H 0.24421 0.59779 0.23462 0.0
H2029 H 0.19186 0.61696 0.22876 0.0
H2030 H 0.12797 0.55277 0.22589 0.0
H2031 H 0.15082 0.57407 0.22052 0.0
H2032 H 0.20268 0.55585 0.2279 0.0
C2033 C 0.24159 0.60833 0.22642 0.0
C2034 C 0.19436 0.60365 0.2284 0.0
C2035 C 0.25505 0.61966 0.22208 0.0
C2036 C 0.14032 0.55133 0.23183 0.0
C2037 C 0.15338 0.56358 0.22881 0.0
C2038 C 0.2002 0.56916 0.2283 0.0
C2039 C 0.22495 0.61066 0.22038 0.0
C2040 C 0.21076 0.59826 0.22453 0.0
C2041 C 0.16969 0.562 0.23598 0.0
C2042 C 0.18381 0.57454 0.23214 0.0
H2043 H 0.23297 0.64668 0.19761 0.0
H2044 H 0.20947 0.62682 0.20505 0.0
H2045 H 0.22588 0.57626 0.22127 0.0
H2046 H 0.16221 0.52529 0.25765 0.0
H2047 H 0.18492 0.54667 0.25242 0.0
C2048 C 0.91185 0.52914 0.99389 0.0
C2049 C 0.92128 0.52886 0.00925 0.0
C2050 C 0.89615 0.53674 0.99333 0.0
C2051 C 0.86122 0.55135 0.02086 0.0
H2052 H 0.85098 0.57821 0.98107 0.0
C2053 C 0.80342 0.59416 0.01781 0.0
C2054 C 0.79419 0.594 0.00231 0.0
C2055 C 0.81878 0.58594 0.01897 0.0
C2056 C 0.85357 0.57061 0.9922 0.0
H2057 H 0.92135 0.53607 0.03617 0.0
H2058 H 0.89418 0.54972 0.03508 0.0
H2059 H 0.87797 0.56433 0.98251 0.0
H2060 H 0.79374 0.58492 0.97596 0.0
H2061 H 0.82042 0.57057 0.97804 0.0
H2062 H 0.83681 0.5578 0.03057 0.0
C2063 C 0.89884 0.54388 0.0235 0.0
C2064 C 0.86904 0.56263 0.99301 0.0
C2065 C 0.91453 0.53624 0.02408 0.0
C2066 C 0.80056 0.58536 0.98807 0.0
C2067 C 0.81591 0.5772 0.98922 0.0
C2068 C 0.84575 0.55939 0.02006 0.0
C2069 C 0.88951 0.54431 0.00809 0.0
C2070 C 0.87304 0.55284 0.00732 0.0
C2071 C 0.82524 0.57746 0.00465 0.0
C2072 C 0.84173 0.56906 0.00568 0.0
H2073 H 0.91673 0.52374 0.98218 0.0
H2074 H 0.8892 0.53664 0.9813 0.0
H2075 H 0.8638 0.54373 0.03197 0.0
H2076 H 0.79886 0.60072 0.02901 0.0
H2077 H 0.82575 0.5865 0.031 0.0
C2078 C 0.11673 0.01669 0.03394 0.0
C2079 C 0.10799 0.01559 0.04965 0.0
C2080 C 0.12746 0.00401 0.02885 0.0
C2081 C 0.13806 0.95974 0.03752 0.0
H2082 H 0.18168 0.97379 0.01757 0.0
C2083 C 0.19401 0.91523 0.03065 0.0
C2084 C 0.2037 0.9163 0.0155 0.0
C2085 C 0.1815 0.92679 0.03399 0.0
C2086 C 0.16947 0.96963 0.02291 0.0
H2087 H 0.10357 0.00027 0.07229 0.0
H2088 H 0.12237 0.97821 0.06349 0.0
H2089 H 0.16127 0.9949 0.02478 0.0
H2090 H 0.20759 0.93017 0.9918 0.0
H2091 H 0.18573 0.95027 0.99761 0.0
H2092 H 0.14644 0.93447 0.03588 0.0
C2093 C 0.12073 0.98872 0.05495 0.0
C2094 C 0.15774 0.98174 0.02703 0.0
C2095 C 0.10995 0.00138 0.06001 0.0
C2096 C 0.20042 0.92903 0.00364 0.0
C2097 C 0.18795 0.94061 0.007 0.0
C2098 C 0.14982 0.94763 0.03344 0.0
C2099 C 0.12975 0.98996 0.03939 0.0
C2100 C 0.14192 0.97696 0.03446 0.0
C2101 C 0.17843 0.9397 0.02227 0.0
C2102 C 0.16568 0.95245 0.02616 0.0
H2103 H 0.11527 0.02736 0.02556 0.0
H2104 H 0.13397 0.00521 0.01664 0.0
H2105 H 0.12589 0.9556 0.04299 0.0
H2106 H 0.19621 0.90557 0.04006 0.0
H2107 H 0.1745 0.92586 0.04595 0.0
loop_
_geom_bond_atom_site_label_1
_geom_bond_atom_site_label_2
_geom_bond_distance
_geom_bond_site_symmetry_2
_ccdc_geom_bond_type
P0 O11 1.490 . S
P0 C14 1.812 . S
P0 C20 1.803 . S
P0 C26 1.819 . S
H1 C15 0.941 . S
H2 C16 0.939 . S
H3 C18 0.940 1_655 S
H4 C19 0.940 . S
H5 C21 0.939 . S
H6 C22 0.942 . S
H7 C24 0.940 . S
H8 C25 0.939 . S
H9 C27 0.941 . S
H10 C31 0.939 . S
O11 P0 1.490 . S
H12 C28 0.939 . S
H13 C30 0.940 . S
C14 P0 1.812 . S
C14 C15 1.389 . S
C14 C19 1.391 . S
C15 H1 0.941 . S
C15 C14 1.389 . S
C15 C16 1.397 . S
C16 H2 0.939 . S
C16 C15 1.397 . S
C16 C17 1.378 . S
C17 C16 1.378 . S
C17 C18 1.378 . S
C18 H3 0.940 1_455 S
C18 C17 1.378 . S
C18 C19 1.396 . S
C19 H4 0.940 . S
C19 C14 1.391 . S
C19 C18 1.396 . S
C20 P0 1.803 . S
C20 C21 1.378 . S
C20 C25 1.400 . S
C21 H5 0.939 . S
C21 C20 1.378 . S
C21 C22 1.361 . S
C22 H6 0.942 . S
C22 C21 1.361 . S
C22 C23 1.369 . S
C23 C22 1.369 . S
C23 C24 1.404 . S
C24 H7 0.940 . S
C24 C23 1.404 . S
C24 C25 1.389 . S
C25 H8 0.939 . S
C25 C20 1.400 . S
C25 C24 1.389 . S
C26 P0 1.819 . S
C26 C27 1.391 . S
C26 C31 1.391 . S
C27 H9 0.941 . S
C27 C26 1.391 . S
C27 C28 1.396 . S
C28 H12 0.939 . S
C28 C27 1.396 . S
C28 C29 1.397 . S
C29 C28 1.397 . S
C29 C30 1.385 . S
C30 H13 0.940 . S
C30 C29 1.385 . S
C30 C31 1.388 . S
C31 H10 0.939 . S
C31 C26 1.391 . S
C31 C30 1.388 . S
P32 O43 1.490 . S
P32 C46 1.812 . S
P32 C52 1.803 . S
P32 C58 1.819 . S
H33 C47 0.941 . S
H34 C48 0.939 . S
H35 C50 0.940 . S
H36 C51 0.940 . S
H37 C53 0.939 . S
H38 C54 0.942 . S
H39 C56 0.940 . S
H40 C57 0.939 . S
H41 C59 0.941 . S
H42 C63 0.939 . S
O43 P32 1.490 . S
H44 C60 0.939 . S
H45 C62 0.940 . S
C46 P32 1.812 . S
C46 C47 1.389 . S
C46 C51 1.391 . S
C47 H33 0.941 . S
C47 C46 1.389 . S
C47 C48 1.397 . S
C48 H34 0.939 . S
C48 C47 1.397 . S
C48 C49 1.378 . S
C49 C48 1.378 . S
C49 C50 1.378 . S
C50 H35 0.940 . S
C50 C49 1.378 . S
C50 C51 1.396 . S
C51 H36 0.940 . S
C51 C46 1.391 . S
C51 C50 1.396 . S
C52 P32 1.803 . S
C52 C53 1.378 . S
C52 C57 1.400 . S
C53 H37 0.939 . S
C53 C52 1.378 . S
C53 C54 1.361 . S
C54 H38 0.942 . S
C54 C53 1.361 . S
C54 C55 1.369 . S
C55 C54 1.369 . S
C55 C56 1.404 . S
C56 H39 0.940 . S
C56 C55 1.404 . S
C56 C57 1.389 . S
C57 H40 0.939 . S
C57 C52 1.400 . S
C57 C56 1.389 . S
C58 P32 1.819 . S
C58 C59 1.391 . S
C58 C63 1.391 . S
C59 H41 0.941 . S
C59 C58 1.391 . S
C59 C60 1.396 . S
C60 H44 0.939 . S
C60 C59 1.396 . S
C60 C61 1.397 . S
C61 C60 1.397 . S
C61 C62 1.385 . S
C62 H45 0.940 . S
C62 C61 1.385 . S
C62 C63 1.388 . S
C63 H42 0.939 . S
C63 C58 1.391 . S
C63 C62 1.388 . S
P64 O75 1.490 . S
P64 C78 1.812 . S
P64 C84 1.803 . S
P64 C90 1.819 . S
H65 C79 0.941 . S
H66 C80 0.939 . S
H67 C82 0.940 . S
H68 C83 0.940 . S
H69 C85 0.939 . S
H70 C86 0.942 . S
H71 C88 0.940 . S
H72 C89 0.939 . S
H73 C91 0.941 . S
H74 C95 0.939 . S
O75 P64 1.490 . S
H76 C92 0.939 . S
H77 C94 0.940 . S
C78 P64 1.812 . S
C78 C79 1.389 1_554 S
C78 C83 1.391 . S
C79 H65 0.941 . S
C79 C78 1.389 1_556 S
C79 C80 1.397 . S
C80 H66 0.939 . S
C80 C79 1.397 . S
C80 C81 1.378 1_556 S
C81 C80 1.378 1_554 S
C81 C82 1.378 . S
C82 H67 0.940 . S
C82 C81 1.378 . S
C82 C83 1.396 . S
C83 H68 0.940 . S
C83 C78 1.391 . S
C83 C82 1.396 . S
C84 P64 1.803 . S
C84 C85 1.378 . S
C84 C89 1.400 . S
C85 H69 0.939 . S
C85 C84 1.378 . S
C85 C86 1.361 . S
C86 H70 0.942 . S
C86 C85 1.361 . S
C86 C87 1.369 . S
C87 C86 1.369 . S
C87 C88 1.404 . S
C88 H71 0.940 . S
C88 C87 1.404 . S
C88 C89 1.389 . S
C89 H72 0.939 . S
C89 C84 1.400 . S
C89 C88 1.389 . S
C90 P64 1.819 . S
C90 C91 1.391 1_655 S
C90 C95 1.391 . S
C91 H73 0.941 . S
C91 C90 1.391 1_455 S
C91 C92 1.396 . S
C92 H76 0.939 . S
C92 C91 1.396 . S
C92 C93 1.400 . S
C93 C92 1.400 . S
C93 C94 1.379 1_455 S
C94 H77 0.940 . S
C94 C93 1.379 1_655 S
C94 C95 1.388 . S
C95 H74 0.939 . S
C95 C90 1.391 . S
C95 C94 1.388 . S
P96 O107 1.490 . S
P96 C110 1.812 . S
P96 C116 1.803 . S
P96 C122 1.819 . S
H97 C111 0.941 . S
H98 C112 0.939 . S
H99 C114 0.940 . S
H100 C115 0.940 . S
H101 C117 0.939 . S
H102 C118 0.942 . S
H103 C120 0.940 . S
H104 C121 0.939 . S
H105 C123 0.941 . S
H106 C127 0.939 . S
O107 P96 1.490 . S
H108 C124 0.939 . S
H109 C126 0.940 . S
C110 P96 1.812 . S
C110 C111 1.389 . S
C110 C115 1.391 . S
C111 H97 0.941 . S
C111 C110 1.389 . S
C111 C112 1.397 . S
C112 H98 0.939 . S
C112 C111 1.397 . S
C112 C113 1.378 . S
C113 C112 1.378 . S
C113 C114 1.378 . S
C114 H99 0.940 . S
C114 C113 1.378 . S
C114 C115 1.396 . S
C115 H100 0.940 . S
C115 C110 1.391 . S
C115 C114 1.396 . S
C116 P96 1.803 . S
C116 C117 1.378 . S
C116 C121 1.400 . S
C117 H101 0.939 . S
C117 C116 1.378 . S
C117 C118 1.361 . S
C118 H102 0.942 . S
C118 C117 1.361 . S
C118 C119 1.369 . S
C119 C118 1.369 . S
C119 C120 1.404 . S
C120 H103 0.940 . S
C120 C119 1.404 . S
C120 C121 1.389 . S
C121 H104 0.939 . S
C121 C116 1.400 . S
C121 C120 1.389 . S
C122 P96 1.819 . S
C122 C123 1.391 . S
C122 C127 1.391 . S
C123 H105 0.941 . S
C123 C122 1.391 . S
C123 C124 1.396 . S
C124 H108 0.939 . S
C124 C123 1.396 . S
C124 C125 1.397 . S
C125 C124 1.397 . S
C125 C126 1.385 . S
C126 H109 0.940 . S
C126 C125 1.385 . S
C126 C127 1.388 . S
C127 H106 0.939 . S
C127 C122 1.391 . S
C127 C126 1.388 . S
P128 O139 1.490 . S
P128 C142 1.812 . S
P128 C148 1.803 . S
P128 C154 1.819 . S
H129 C143 0.941 . S
H130 C144 0.939 . S
H131 C146 0.940 . S
H132 C147 0.940 . S
H133 C149 0.939 . S
H134 C150 0.942 . S
H135 C152 0.940 . S
H136 C153 0.939 . S
H137 C155 0.941 . S
H138 C159 0.939 . S
O139 P128 1.490 . S
H140 C156 0.939 . S
H141 C158 0.940 1_655 S
C142 P128 1.812 . S
C142 C143 1.389 . S
C142 C147 1.391 . S
C143 H129 0.941 . S
C143 C142 1.389 . S
C143 C144 1.397 . S
C144 H130 0.939 . S
C144 C143 1.397 . S
C144 C145 1.378 1_565 S
C145 C144 1.378 1_545 S
C145 C146 1.378 . S
C146 H131 0.940 . S
C146 C145 1.378 . S
C146 C147 1.396 1_545 S
C147 H132 0.940 . S
C147 C142 1.391 . S
C147 C146 1.396 1_565 S
C148 P128 1.803 . S
C148 C149 1.378 . S
C148 C153 1.400 . S
C149 H133 0.939 . S
C149 C148 1.378 . S
C149 C150 1.361 . S
C150 H134 0.942 . S
C150 C149 1.361 . S
C150 C151 1.369 . S
C151 C150 1.369 . S
C151 C152 1.404 . S
C152 H135 0.940 . S
C152 C151 1.404 . S
C152 C153 1.389 . S
C153 H136 0.939 . S
C153 C148 1.400 . S
C153 C152 1.389 . S
C154 P128 1.819 . S
C154 C155 1.391 . S
C154 C159 1.391 . S
C155 H137 0.941 . S
C155 C154 1.391 . S
C155 C156 1.396 . S
C156 H140 0.939 . S
C156 C155 1.396 . S
C156 C157 1.397 . S
C157 C156 1.397 . S
C157 C158 1.385 . S
C158 H141 0.940 1_455 S
C158 C157 1.385 . S
C158 C159 1.388 . S
C159 H138 0.939 . S
C159 C154 1.391 . S
C159 C158 1.388 . S
P160 O171 1.490 . S
P160 C174 1.812 . S
P160 C180 1.803 . S
P160 C186 1.819 . S
H161 C175 0.941 . S
H162 C176 0.939 . S
H163 C178 0.940 . S
H164 C179 0.940 . S
H165 C181 0.939 . S
H166 C182 0.942 . S
H167 C184 0.940 . S
H168 C185 0.939 . S
H169 C187 0.941 . S
H170 C191 0.939 . S
O171 P160 1.490 . S
H172 C188 0.939 . S
H173 C190 0.940 . S
C174 P160 1.812 . S
C174 C175 1.389 . S
C174 C179 1.391 . S
C175 H161 0.941 . S
C175 C174 1.389 . S
C175 C176 1.397 . S
C176 H162 0.939 . S
C176 C175 1.397 . S
C176 C177 1.378 . S
C177 C176 1.378 . S
C177 C178 1.378 . S
C178 H163 0.940 . S
C178 C177 1.378 . S
C178 C179 1.396 . S
C179 H164 0.940 . S
C179 C174 1.391 . S
C179 C178 1.396 . S
C180 P160 1.803 . S
C180 C181 1.378 . S
C180 C185 1.400 . S
C181 H165 0.939 . S
C181 C180 1.378 . S
C181 C182 1.361 . S
C182 H166 0.942 . S
C182 C181 1.361 . S
C182 C183 1.369 . S
C183 C182 1.369 . S
C183 C184 1.404 . S
C184 H167 0.940 . S
C184 C183 1.404 . S
C184 C185 1.389 . S
C185 H168 0.939 . S
C185 C180 1.400 . S
C185 C184 1.389 . S
C186 P160 1.819 . S
C186 C187 1.391 . S
C186 C191 1.391 . S
C187 H169 0.941 . S
C187 C186 1.391 . S
C187 C188 1.396 . S
C188 H172 0.939 . S
C188 C187 1.396 . S
C188 C189 1.397 . S
C189 C188 1.397 . S
C189 C190 1.385 . S
C190 H173 0.940 . S
C190 C189 1.385 . S
C190 C191 1.388 . S
C191 H170 0.939 . S
C191 C186 1.391 . S
C191 C190 1.388 . S
P192 O203 1.490 . S
P192 C206 1.812 . S
P192 C212 1.803 . S
P192 C218 1.819 . S
H193 C207 0.941 . S
H194 C208 0.939 . S
H195 C210 0.940 . S
H196 C211 0.940 . S
H197 C213 0.939 . S
H198 C214 0.942 . S
H199 C216 0.940 . S
H200 C217 0.939 . S
H201 C219 0.941 . S
H202 C223 0.939 . S
O203 P192 1.490 . S
H204 C220 0.939 . S
H205 C222 0.940 . S
C206 P192 1.812 . S
C206 C207 1.389 1_655 S
C206 C211 1.391 . S
C207 H193 0.941 . S
C207 C206 1.389 1_455 S
C207 C208 1.397 . S
C208 H194 0.939 . S
C208 C207 1.397 . S
C208 C209 1.378 1_455 S
C209 C208 1.378 1_655 S
C209 C210 1.378 . S
C210 H195 0.940 . S
C210 C209 1.378 . S
C210 C211 1.396 . S
C211 H196 0.940 . S
C211 C206 1.391 . S
C211 C210 1.396 . S
C212 P192 1.803 . S
C212 C213 1.378 . S
C212 C217 1.400 . S
C213 H197 0.939 . S
C213 C212 1.378 . S
C213 C214 1.361 . S
C214 H198 0.942 . S
C214 C213 1.361 . S
C214 C215 1.369 . S
C215 C214 1.369 . S
C215 C216 1.404 . S
C216 H199 0.940 . S
C216 C215 1.404 . S
C216 C217 1.389 . S
C217 H200 0.939 . S
C217 C212 1.400 . S
C217 C216 1.389 . S
C218 P192 1.819 . S
C218 C219 1.391 . S
C218 C223 1.391 . S
C219 H201 0.941 . S
C219 C218 1.391 . S
C219 C220 1.396 . S
C220 H204 0.939 . S
C220 C219 1.396 . S
C220 C221 1.397 . S
C221 C220 1.397 . S
C221 C222 1.385 . S
C222 H205 0.940 . S
C222 C221 1.385 . S
C222 C223 1.388 . S
C223 H202 0.939 . S
C223 C218 1.391 . S
C223 C222 1.388 . S
P224 O235 1.490 . S
P224 C238 1.812 . S
P224 C244 1.803 . S
P224 C250 1.819 . S
H225 C239 0.941 . S
H226 C240 0.939 . S
H227 C242 0.940 . S
H228 C243 0.940 . S
H229 C245 0.939 . S
H230 C246 0.942 . S
H231 C248 0.940 . S
H232 C249 0.939 . S
H233 C251 0.941 . S
H234 C255 0.939 . S
O235 P224 1.490 . S
H236 C252 0.939 . S
H237 C254 0.940 . S
C238 P224 1.812 . S
C238 C239 1.389 . S
C238 C243 1.391 . S
C239 H225 0.941 . S
C239 C238 1.389 . S
C239 C240 1.397 . S
C240 H226 0.939 . S
C240 C239 1.397 . S
C240 C241 1.378 . S
C241 C240 1.378 . S
C241 C242 1.378 . S
C242 H227 0.940 . S
C242 C241 1.378 . S
C242 C243 1.396 . S
C243 H228 0.940 . S
C243 C238 1.391 . S
C243 C242 1.396 . S
C244 P224 1.803 . S
C244 C245 1.378 . S
C244 C249 1.400 . S
C245 H229 0.939 . S
C245 C244 1.378 . S
C245 C246 1.361 . S
C246 H230 0.942 . S
C246 C245 1.361 . S
C246 C247 1.369 . S
C247 C246 1.369 . S
C247 C248 1.404 . S
C248 H231 0.940 . S
C248 C247 1.404 . S
C248 C249 1.389 . S
C249 H232 0.939 . S
C249 C244 1.400 . S
C249 C248 1.389 . S
C250 P224 1.819 . S
C250 C251 1.391 . S
C250 C255 1.391 . S
C251 H233 0.941 . S
C251 C250 1.391 . S
C251 C252 1.396 . S
C252 H236 0.939 . S
C252 C251 1.396 . S
C252 C253 1.397 . S
C253 C252 1.397 . S
C253 C254 1.385 . S
C254 H237 0.940 . S
C254 C253 1.385 . S
C254 C255 1.388 . S
C255 H234 0.939 . S
C255 C250 1.391 . S
C255 C254 1.388 . S
P256 O267 1.490 . S
P256 C270 1.812 . S
P256 C276 1.803 . S
P256 C282 1.819 . S
H257 C271 0.941 . S
H258 C272 0.939 . S
H259 C274 0.940 . S
H260 C275 0.940 . S
H261 C277 0.939 . S
H262 C278 0.942 . S
H263 C280 0.940 . S
H264 C281 0.939 . S
H265 C283 0.941 . S
H266 C287 0.939 . S
O267 P256 1.490 . S
H268 C284 0.939 . S
H269 C286 0.940 . S
C270 P256 1.812 . S
C270 C271 1.389 . S
C270 C275 1.391 . S
C271 H257 0.941 . S
C271 C270 1.389 . S
C271 C272 1.397 . S
C272 H258 0.939 . S
C272 C271 1.397 . S
C272 C273 1.378 . S
C273 C272 1.378 . S
C273 C274 1.378 . S
C274 H259 0.940 . S
C274 C273 1.378 . S
C274 C275 1.396 . S
C275 H260 0.940 . S
C275 C270 1.391 . S
C275 C274 1.396 . S
C276 P256 1.803 . S
C276 C277 1.378 . S
C276 C281 1.400 . S
C277 H261 0.939 . S
C277 C276 1.378 . S
C277 C278 1.361 . S
C278 H262 0.942 . S
C278 C277 1.361 . S
C278 C279 1.369 . S
C279 C278 1.369 . S
C279 C280 1.404 . S
C280 H263 0.940 . S
C280 C279 1.404 . S
C280 C281 1.389 . S
C281 H264 0.939 . S
C281 C276 1.400 . S
C281 C280 1.389 . S
C282 P256 1.819 . S
C282 C283 1.391 . S
C282 C287 1.391 . S
C283 H265 0.941 . S
C283 C282 1.391 . S
C283 C284 1.396 . S
C284 H268 0.939 . S
C284 C283 1.396 . S
C284 C285 1.397 . S
C285 C284 1.397 . S
C285 C286 1.385 . S
C286 H269 0.940 . S
C286 C285 1.385 . S
C286 C287 1.388 . S
C287 H266 0.939 . S
C287 C282 1.391 . S
C287 C286 1.388 . S
P288 O299 1.490 . S
P288 C302 1.812 . S
P288 C308 1.803 . S
P288 C314 1.819 . S
H289 C303 0.941 . S
H290 C304 0.939 . S
H291 C306 0.940 . S
H292 C307 0.940 . S
H293 C309 0.939 . S
H294 C310 0.942 . S
H295 C312 0.940 . S
H296 C313 0.939 . S
H297 C315 0.941 . S
H298 C319 0.939 . S
O299 P288 1.490 . S
H300 C316 0.939 . S
H301 C318 0.940 . S
C302 P288 1.812 . S
C302 C303 1.389 . S
C302 C307 1.391 . S
C303 H289 0.941 . S
C303 C302 1.389 . S
C303 C304 1.397 . S
C304 H290 0.939 . S
C304 C303 1.397 . S
C304 C305 1.378 . S
C305 C304 1.378 . S
C305 C306 1.378 . S
C306 H291 0.940 . S
C306 C305 1.378 . S
C306 C307 1.396 . S
C307 H292 0.940 . S
C307 C302 1.391 . S
C307 C306 1.396 . S
C308 P288 1.803 . S
C308 C309 1.378 1_565 S
C308 C313 1.400 . S
C309 H293 0.939 . S
C309 C308 1.378 1_545 S
C309 C310 1.361 . S
C310 H294 0.942 . S
C310 C309 1.361 . S
C310 C311 1.369 . S
C311 C310 1.369 . S
C311 C312 1.404 1_545 S
C312 H295 0.940 . S
C312 C311 1.404 1_565 S
C312 C313 1.389 . S
C313 H296 0.939 . S
C313 C308 1.400 . S
C313 C312 1.389 . S
C314 P288 1.819 . S
C314 C315 1.391 . S
C314 C319 1.391 . S
C315 H297 0.941 . S
C315 C314 1.391 . S
C315 C316 1.396 . S
C316 H300 0.939 . S
C316 C315 1.396 . S
C316 C317 1.397 . S
C317 C316 1.397 . S
C317 C318 1.385 . S
C318 H301 0.940 . S
C318 C317 1.385 . S
C318 C319 1.388 . S
C319 H298 0.939 . S
C319 C314 1.391 . S
C319 C318 1.388 . S
P320 O331 1.490 . S
P320 C334 1.812 . S
P320 C340 1.803 . S
P320 C346 1.819 . S
H321 C335 0.941 . S
H322 C336 0.939 . S
H323 C338 0.940 . S
H324 C339 0.940 . S
H325 C341 0.939 . S
H326 C342 0.942 . S
H327 C344 0.940 . S
H328 C345 0.939 . S
H329 C347 0.941 . S
H330 C351 0.939 . S
O331 P320 1.490 . S
H332 C348 0.939 . S
H333 C350 0.940 . S
C334 P320 1.812 . S
C334 C335 1.389 . S
C334 C339 1.391 . S
C335 H321 0.941 . S
C335 C334 1.389 . S
C335 C336 1.397 . S
C336 H322 0.939 . S
C336 C335 1.397 . S
C336 C337 1.378 . S
C337 C336 1.378 . S
C337 C338 1.378 . S
C338 H323 0.940 . S
C338 C337 1.378 . S
C338 C339 1.396 . S
C339 H324 0.940 . S
C339 C334 1.391 . S
C339 C338 1.396 . S
C340 P320 1.803 . S
C340 C341 1.378 . S
C340 C345 1.400 . S
C341 H325 0.939 . S
C341 C340 1.378 . S
C341 C342 1.361 . S
C342 H326 0.942 . S
C342 C341 1.361 . S
C342 C343 1.369 . S
C343 C342 1.369 . S
C343 C344 1.404 . S
C344 H327 0.940 . S
C344 C343 1.404 . S
C344 C345 1.389 . S
C345 H328 0.939 . S
C345 C340 1.400 . S
C345 C344 1.389 . S
C346 P320 1.819 . S
C346 C347 1.391 . S
C346 C351 1.391 . S
C347 H329 0.941 . S
C347 C346 1.391 . S
C347 C348 1.396 . S
C348 H332 0.939 . S
C348 C347 1.396 . S
C348 C349 1.397 . S
C349 C348 1.397 . S
C349 C350 1.385 . S
C350 H333 0.940 . S
C350 C349 1.385 . S
C350 C351 1.388 . S
C351 H330 0.939 . S
C351 C346 1.391 . S
C351 C350 1.388 . S
P352 O363 1.490 . S
P352 C366 1.812 . S
P352 C372 1.803 . S
P352 C378 1.819 . S
H353 C367 0.941 . S
H354 C368 0.939 . S
H355 C370 0.940 . S
H356 C371 0.940 . S
H357 C373 0.939 . S
H358 C374 0.942 . S
H359 C376 0.940 . S
H360 C377 0.939 . S
H361 C379 0.941 . S
H362 C383 0.939 . S
O363 P352 1.490 . S
H364 C380 0.939 . S
H365 C382 0.940 . S
C366 P352 1.812 . S
C366 C367 1.389 . S
C366 C371 1.391 . S
C367 H353 0.941 . S
C367 C366 1.389 . S
C367 C368 1.397 . S
C368 H354 0.939 . S
C368 C367 1.397 . S
C368 C369 1.378 . S
C369 C368 1.378 . S
C369 C370 1.378 . S
C370 H355 0.940 . S
C370 C369 1.378 . S
C370 C371 1.396 . S
C371 H356 0.940 . S
C371 C366 1.391 . S
C371 C370 1.396 . S
C372 P352 1.803 . S
C372 C373 1.378 . S
C372 C377 1.400 . S
C373 H357 0.939 . S
C373 C372 1.378 . S
C373 C374 1.361 . S
C374 H358 0.942 . S
C374 C373 1.361 . S
C374 C375 1.369 . S
C375 C374 1.369 . S
C375 C376 1.404 . S
C376 H359 0.940 . S
C376 C375 1.404 . S
C376 C377 1.389 . S
C377 H360 0.939 . S
C377 C372 1.400 . S
C377 C376 1.389 . S
C378 P352 1.819 . S
C378 C379 1.391 . S
C378 C383 1.391 . S
C379 H361 0.941 . S
C379 C378 1.391 . S
C379 C380 1.396 . S
C380 H364 0.939 . S
C380 C379 1.396 . S
C380 C381 1.397 . S
C381 C380 1.397 . S
C381 C382 1.385 . S
C382 H365 0.940 . S
C382 C381 1.385 . S
C382 C383 1.388 . S
C383 H362 0.939 . S
C383 C378 1.391 . S
C383 C382 1.388 . S
P384 O395 1.490 . S
P384 C398 1.812 . S
P384 C404 1.803 . S
P384 C410 1.819 . S
H385 C399 0.941 . S
H386 C400 0.939 . S
H387 C402 0.940 . S
H388 C403 0.940 . S
H389 C405 0.939 . S
H390 C406 0.942 . S
H391 C408 0.940 . S
H392 C409 0.939 . S
H393 C411 0.941 . S
H394 C415 0.939 . S
O395 P384 1.490 . S
H396 C412 0.939 . S
H397 C414 0.940 . S
C398 P384 1.812 . S
C398 C399 1.389 . S
C398 C403 1.391 . S
C399 H385 0.941 . S
C399 C398 1.389 . S
C399 C400 1.397 . S
C400 H386 0.939 . S
C400 C399 1.397 . S
C400 C401 1.378 . S
C401 C400 1.378 . S
C401 C402 1.378 . S
C402 H387 0.940 . S
C402 C401 1.378 . S
C402 C403 1.396 . S
C403 H388 0.940 . S
C403 C398 1.391 . S
C403 C402 1.396 . S
C404 P384 1.803 . S
C404 C405 1.378 . S
C404 C409 1.400 . S
C405 H389 0.939 . S
C405 C404 1.378 . S
C405 C406 1.361 . S
C406 H390 0.942 . S
C406 C405 1.361 . S
C406 C407 1.369 . S
C407 C406 1.369 . S
C407 C408 1.404 . S
C408 H391 0.940 . S
C408 C407 1.404 . S
C408 C409 1.389 . S
C409 H392 0.939 . S
C409 C404 1.400 . S
C409 C408 1.389 . S
C410 P384 1.819 . S
C410 C411 1.391 . S
C410 C415 1.391 . S
C411 H393 0.941 . S
C411 C410 1.391 . S
C411 C412 1.396 . S
C412 H396 0.939 . S
C412 C411 1.396 . S
C412 C413 1.397 . S
C413 C412 1.397 . S
C413 C414 1.385 . S
C414 H397 0.940 . S
C414 C413 1.385 . S
C414 C415 1.388 . S
C415 H394 0.939 . S
C415 C410 1.391 . S
C415 C414 1.388 . S
P416 O427 1.490 . S
P416 C430 1.812 . S
P416 C436 1.803 . S
P416 C442 1.819 . S
H417 C431 0.941 . S
H418 C432 0.939 . S
H419 C434 0.940 . S
H420 C435 0.940 . S
H421 C437 0.939 . S
H422 C438 0.942 . S
H423 C440 0.919 1_554 S
H424 C441 0.939 . S
H425 C443 0.941 . S
H426 C447 0.939 . S
O427 P416 1.490 . S
H428 C444 0.939 . S
H429 C446 0.940 . S
C430 P416 1.812 . S
C430 C431 1.389 . S
C430 C435 1.391 . S
C431 H417 0.941 . S
C431 C430 1.389 . S
C431 C432 1.397 . S
C432 H418 0.939 . S
C432 C431 1.397 . S
C432 C433 1.378 . S
C433 C432 1.378 . S
C433 C434 1.378 . S
C434 H419 0.940 . S
C434 C433 1.378 . S
C434 C435 1.396 . S
C435 H420 0.940 . S
C435 C430 1.391 . S
C435 C434 1.396 . S
C436 P416 1.803 . S
C436 C437 1.378 . S
C436 C441 1.400 . S
C437 H421 0.939 . S
C437 C436 1.378 . S
C437 C438 1.361 . S
C438 H422 0.942 . S
C438 C437 1.361 . S
C438 C439 1.369 . S
C439 C438 1.369 . S
C439 C440 1.406 . S
C440 H423 0.919 1_556 S
C440 C439 1.406 . S
C440 C441 1.408 . S
C441 H424 0.939 . S
C441 C436 1.400 . S
C441 C440 1.408 . S
C442 P416 1.819 . S
C442 C443 1.391 . S
C442 C447 1.391 . S
C443 H425 0.941 . S
C443 C442 1.391 . S
C443 C444 1.396 . S
C444 H428 0.939 . S
C444 C443 1.396 . S
C444 C445 1.397 . S
C445 C444 1.397 . S
C445 C446 1.385 . S
C446 H429 0.940 . S
C446 C445 1.385 . S
C446 C447 1.388 . S
C447 H426 0.939 . S
C447 C442 1.391 . S
C447 C446 1.388 . S
P448 O459 1.490 . S
P448 C462 1.812 . S
P448 C468 1.803 . S
P448 C474 1.819 . S
H449 C463 0.941 . S
H450 C464 0.939 . S
H451 C466 0.940 . S
H452 C467 0.940 . S
H453 C469 0.939 . S
H454 C470 0.942 . S
H455 C472 0.940 . S
H456 C473 0.939 . S
H457 C475 0.941 . S
H458 C479 0.939 . S
O459 P448 1.490 . S
H460 C476 0.939 . S
H461 C478 0.940 . S
C462 P448 1.812 . S
C462 C463 1.389 . S
C462 C467 1.391 . S
C463 H449 0.941 . S
C463 C462 1.389 . S
C463 C464 1.397 . S
C464 H450 0.939 . S
C464 C463 1.397 . S
C464 C465 1.378 . S
C465 C464 1.378 . S
C465 C466 1.378 . S
C466 H451 0.940 . S
C466 C465 1.378 . S
C466 C467 1.396 . S
C467 H452 0.940 . S
C467 C462 1.391 . S
C467 C466 1.396 . S
C468 P448 1.803 . S
C468 C469 1.378 . S
C468 C473 1.400 . S
C469 H453 0.939 . S
C469 C468 1.378 . S
C469 C470 1.361 . S
C470 H454 0.942 . S
C470 C469 1.361 . S
C470 C471 1.369 . S
C471 C470 1.369 . S
C471 C472 1.404 . S
C472 H455 0.940 . S
C472 C471 1.404 . S
C472 C473 1.389 . S
C473 H456 0.939 . S
C473 C468 1.400 . S
C473 C472 1.389 . S
C474 P448 1.819 . S
C474 C475 1.391 . S
C474 C479 1.391 . S
C475 H457 0.941 . S
C475 C474 1.391 . S
C475 C476 1.396 . S
C476 H460 0.939 . S
C476 C475 1.396 . S
C476 C477 1.397 . S
C477 C476 1.397 . S
C477 C478 1.385 . S
C478 H461 0.940 . S
C478 C477 1.385 . S
C478 C479 1.388 . S
C479 H458 0.939 . S
C479 C474 1.391 . S
C479 C478 1.388 . S
P480 O491 1.490 . S
P480 C494 1.812 . S
P480 C500 1.803 . S
P480 C506 1.819 . S
H481 C495 0.941 . S
H482 C496 0.939 . S
H483 C498 0.940 . S
H484 C499 0.940 . S
H485 C501 0.939 . S
H486 C502 0.942 . S
H487 C504 0.940 . S
H488 C505 0.939 . S
H489 C507 0.941 1_565 S
H490 C511 0.939 . S
O491 P480 1.490 . S
H492 C508 0.939 . S
H493 C510 0.940 . S
C494 P480 1.812 . S
C494 C495 1.389 . S
C494 C499 1.391 . S
C495 H481 0.941 . S
C495 C494 1.389 . S
C495 C496 1.397 . S
C496 H482 0.939 . S
C496 C495 1.397 . S
C496 C497 1.378 . S
C497 C496 1.378 . S
C497 C498 1.378 . S
C498 H483 0.940 . S
C498 C497 1.378 . S
C498 C499 1.396 . S
C499 H484 0.940 . S
C499 C494 1.391 . S
C499 C498 1.396 . S
C500 P480 1.803 . S
C500 C501 1.378 1_556 S
C500 C505 1.400 . S
C501 H485 0.939 . S
C501 C500 1.378 1_554 S
C501 C502 1.361 . S
C502 H486 0.942 . S
C502 C501 1.361 . S
C502 C503 1.369 . S
C503 C502 1.369 . S
C503 C504 1.404 1_554 S
C504 H487 0.940 . S
C504 C503 1.404 1_556 S
C504 C505 1.389 . S
C505 H488 0.939 . S
C505 C500 1.400 . S
C505 C504 1.389 . S
C506 P480 1.819 . S
C506 C507 1.391 . S
C506 C511 1.391 . S
C507 H489 0.941 1_545 S
C507 C506 1.391 . S
C507 C508 1.396 1_545 S
C508 H492 0.939 . S
C508 C507 1.396 1_565 S
C508 C509 1.397 1_565 S
C509 C508 1.397 1_545 S
C509 C510 1.385 . S
C510 H493 0.940 . S
C510 C509 1.385 . S
C510 C511 1.388 . S
C511 H490 0.939 . S
C511 C506 1.391 . S
C511 C510 1.388 . S
C512 O513 1.160 1_554 S
C512 O519 1.185 . S
O513 C512 1.160 1_556 S
O514 Zn515 1.899 1_556 S
O514 C522 1.284 . S
Zn515 O514 1.899 1_554 S
Zn515 O516 2.032 . S
Zn515 O519 2.086 . S
Zn515 O524 1.977 . S
O516 Zn515 2.032 . S
O516 C520 1.278 . S
C517 O518 1.203 . S
C517 O524 1.267 . S
O518 C517 1.203 . S
O519 C512 1.185 . S
O519 Zn515 2.086 . S
C520 O516 1.278 . S
C520 O521 1.211 . S
O521 C520 1.211 . S
C522 O514 1.284 . S
C522 O523 1.273 . S
O523 C522 1.273 . S
O524 Zn515 1.977 . S
O524 C517 1.267 . S
C525 O526 1.160 . S
C525 O532 1.185 . S
O526 C525 1.160 . S
O527 Zn528 1.899 . S
O527 C535 1.284 . S
Zn528 O527 1.899 . S
Zn528 O529 2.032 . S
Zn528 O532 2.086 . S
Zn528 O537 1.977 . S
O529 Zn528 2.032 . S
O529 C533 1.278 . S
C530 O531 1.203 . S
C530 O537 1.267 . S
O531 C530 1.203 . S
O532 C525 1.185 . S
O532 Zn528 2.086 . S
C533 O529 1.278 . S
C533 O534 1.211 . S
O534 C533 1.211 . S
C535 O527 1.284 . S
C535 O536 1.273 . S
O536 C535 1.273 . S
O537 Zn528 1.977 . S
O537 C530 1.267 . S
C538 O539 1.160 1_554 S
C538 O545 1.185 . S
O539 C538 1.160 1_556 S
O540 Zn541 1.899 1_556 S
O540 C548 1.284 . S
Zn541 O540 1.899 1_554 S
Zn541 O542 2.032 1_554 S
Zn541 O545 2.086 . S
Zn541 O550 1.977 . S
O542 Zn541 2.032 1_556 S
O542 C546 1.278 1_556 S
C543 O544 1.203 . S
C543 O550 1.267 . S
O544 C543 1.203 . S
O545 C538 1.185 . S
O545 Zn541 2.086 . S
C546 O542 1.278 1_554 S
C546 O547 1.210 . S
O547 C546 1.210 . S
C548 O540 1.284 . S
C548 O549 1.273 . S
O549 C548 1.273 . S
O550 Zn541 1.977 . S
O550 C543 1.267 . S
C551 O552 1.160 . S
C551 O558 1.185 . S
O552 C551 1.160 . S
O553 Zn554 1.899 . S
O553 C561 1.284 . S
Zn554 O553 1.899 . S
Zn554 O555 2.032 . S
Zn554 O558 2.086 . S
Zn554 O563 1.977 . S
O555 Zn554 2.032 . S
O555 C559 1.278 1_545 S
C556 O557 1.203 . S
C556 O563 1.267 . S
O557 C556 1.203 . S
O558 C551 1.185 . S
O558 Zn554 2.086 . S
C559 O555 1.278 1_565 S
C559 O560 1.211 . S
O560 C559 1.211 . S
C561 O553 1.284 . S
C561 O562 1.273 1_545 S
O562 C561 1.273 1_565 S
O563 Zn554 1.977 . S
O563 C556 1.267 . S
C564 O565 1.160 . S
C564 O571 1.185 . S
O565 C564 1.160 . S
O566 Zn567 1.899 . S
O566 C574 1.284 . S
Zn567 O566 1.899 . S
Zn567 O568 2.032 . S
Zn567 O571 2.086 . S
Zn567 O576 1.977 . S
O568 Zn567 2.032 . S
O568 C572 1.278 . S
C569 O570 1.203 . S
C569 O576 1.267 . S
O570 C569 1.203 . S
O571 C564 1.185 . S
O571 Zn567 2.086 . S
C572 O568 1.278 . S
C572 O573 1.211 . S
O573 C572 1.211 . S
C574 O566 1.284 . S
C574 O575 1.273 . S
O575 C574 1.273 . S
O576 Zn567 1.977 . S
O576 C569 1.267 . S
C577 O578 1.160 . S
C577 O584 1.185 . S
O578 C577 1.160 . S
O579 Zn580 1.899 . S
O579 C587 1.284 . S
Zn580 O579 1.899 . S
Zn580 O581 2.032 . S
Zn580 O584 2.086 . S
Zn580 O589 1.977 . S
O581 Zn580 2.032 . S
O581 C585 1.278 . S
C582 O583 1.203 . S
C582 O589 1.267 . S
O583 C582 1.203 . S
O584 C577 1.185 . S
O584 Zn580 2.086 . S
C585 O581 1.278 . S
C585 O586 1.211 . S
O586 C585 1.211 . S
C587 O579 1.284 . S
C587 O588 1.273 . S
O588 C587 1.273 . S
O589 Zn580 1.977 . S
O589 C582 1.267 . S
C590 O591 1.160 . S
C590 O597 1.185 . S
O591 C590 1.160 . S
O592 Zn593 1.899 . S
O592 C600 1.284 . S
Zn593 O592 1.899 . S
Zn593 O594 2.032 . S
Zn593 O597 2.086 . S
Zn593 O602 1.977 . S
O594 Zn593 2.032 . S
O594 C598 1.278 . S
C595 O596 1.203 . S
C595 O602 1.267 . S
O596 C595 1.203 . S
O597 C590 1.185 . S
O597 Zn593 2.086 . S
C598 O594 1.278 . S
C598 O599 1.211 . S
O599 C598 1.211 . S
C600 O592 1.284 . S
C600 O601 1.273 . S
O601 C600 1.273 . S
O602 Zn593 1.977 . S
O602 C595 1.267 . S
C603 O604 1.160 . S
C603 O610 1.185 . S
O604 C603 1.160 . S
O605 Zn606 1.899 . S
O605 C613 1.284 1_565 S
Zn606 O605 1.899 . S
Zn606 O607 2.032 1_565 S
Zn606 O610 2.086 . S
Zn606 O615 1.977 . S
O607 Zn606 2.032 1_545 S
O607 C611 1.278 . S
C608 O609 1.168 1_565 S
C608 O615 1.296 . S
O609 C608 1.168 1_545 S
O610 C603 1.185 . S
O610 Zn606 2.086 . S
C611 O607 1.278 . S
C611 O612 1.211 . S
O612 C611 1.211 . S
C613 O605 1.284 1_545 S
C613 O614 1.273 . S
O614 C613 1.273 . S
O615 Zn606 1.977 . S
O615 C608 1.296 . S
C616 O617 1.160 1_455 S
C616 O623 1.185 . S
O617 C616 1.160 1_655 S
O618 Zn619 1.899 1_655 S
O618 C626 1.284 . S
Zn619 O618 1.899 1_455 S
Zn619 O620 2.032 . S
Zn619 O623 2.086 . S
Zn619 O628 1.977 . S
O620 Zn619 2.032 . S
O620 C624 1.278 . S
C621 O622 1.203 . S
C621 O628 1.267 . S
O622 C621 1.203 . S
O623 C616 1.185 . S
O623 Zn619 2.086 . S
C624 O620 1.278 . S
C624 O625 1.211 . S
O625 C624 1.211 . S
C626 O618 1.284 . S
C626 O627 1.273 . S
O627 C626 1.273 . S
O628 Zn619 1.977 . S
O628 C621 1.267 . S
C629 O630 1.160 . S
C629 O636 1.185 . S
O630 C629 1.160 . S
O631 Zn632 1.899 . S
O631 C639 1.284 . S
Zn632 O631 1.899 . S
Zn632 O633 2.032 . S
Zn632 O636 2.086 . S
Zn632 O641 1.977 . S
O633 Zn632 2.032 . S
O633 C637 1.278 . S
C634 O635 1.203 . S
C634 O641 1.267 . S
O635 C634 1.203 . S
O636 C629 1.185 . S
O636 Zn632 2.086 . S
C637 O633 1.278 . S
C637 O638 1.211 . S
O638 C637 1.211 . S
C639 O631 1.284 . S
C639 O640 1.273 . S
O640 C639 1.273 . S
O641 Zn632 1.977 . S
O641 C634 1.267 . S
C642 O643 1.160 1_455 S
C642 O649 1.185 . S
O643 C642 1.160 1_655 S
O644 Zn645 1.899 1_655 S
O644 C652 1.284 . S
Zn645 O644 1.899 1_455 S
Zn645 O646 2.032 1_455 S
Zn645 O649 2.086 . S
Zn645 O654 1.977 . S
O646 Zn645 2.032 1_655 S
O646 C650 1.278 . S
C647 O648 1.203 . S
C647 O654 1.267 . S
O648 C647 1.203 . S
O649 C642 1.185 . S
O649 Zn645 2.086 . S
C650 O646 1.278 . S
C650 O651 1.211 1_655 S
O651 C650 1.211 1_455 S
C652 O644 1.284 . S
C652 O653 1.273 . S
O653 C652 1.273 . S
O654 Zn645 1.977 . S
O654 C647 1.267 . S
C655 O656 1.160 . S
C655 O662 1.185 . S
O656 C655 1.160 . S
O657 Zn658 1.899 . S
O657 C665 1.284 . S
Zn658 O657 1.899 . S
Zn658 O659 2.032 . S
Zn658 O662 2.086 . S
Zn658 O667 1.977 . S
O659 Zn658 2.032 . S
O659 C663 1.278 . S
C660 O661 1.203 . S
C660 O667 1.267 . S
O661 C660 1.203 . S
O662 C655 1.185 . S
O662 Zn658 2.086 . S
C663 O659 1.278 . S
C663 O664 1.211 . S
O664 C663 1.211 . S
C665 O657 1.284 . S
C665 O666 1.273 . S
O666 C665 1.273 . S
O667 Zn658 1.977 . S
O667 C660 1.267 . S
C668 C669 1.349 . S
C668 C670 1.327 . S
C668 H693 0.950 . S
C669 C668 1.349 . S
C669 C685 1.349 . S
C670 C668 1.327 . S
C670 C689 1.429 . S
C670 H694 0.950 . S
C671 C688 1.574 . S
C671 C690 1.368 . S
C671 H695 0.949 . S
H672 C676 0.949 . S
C673 C674 1.349 . S
C673 C675 1.327 . S
C673 H696 0.950 . S
C674 C673 1.349 . S
C674 C686 1.349 . S
C675 C673 1.327 . S
C675 C691 1.429 . S
C675 H697 0.950 . S
C676 H672 0.949 . S
C676 C684 1.574 . S
C676 C692 1.368 . S
H677 C685 0.950 . S
H678 C683 0.950 . S
H679 C684 0.949 . S
H680 C686 0.950 . S
H681 C687 0.950 . S
H682 C688 0.949 . S
C683 H678 0.950 . S
C683 C685 1.327 . S
C683 C689 1.429 . S
C684 C676 1.574 . S
C684 H679 0.949 . S
C684 C690 1.368 . S
C685 C669 1.349 . S
C685 H677 0.950 . S
C685 C683 1.327 . S
C686 C674 1.349 . S
C686 H680 0.950 . S
C686 C687 1.327 . S
C687 H681 0.950 . S
C687 C686 1.327 . S
C687 C691 1.429 . S
C688 C671 1.574 . S
C688 H682 0.949 . S
C688 C692 1.368 . S
C689 C670 1.429 . S
C689 C683 1.429 . S
C689 C690 1.523 . S
C690 C671 1.368 . S
C690 C684 1.368 . S
C690 C689 1.523 . S
C691 C675 1.429 . S
C691 C687 1.429 . S
C691 C692 1.523 . S
C692 C676 1.368 . S
C692 C688 1.368 . S
C692 C691 1.523 . S
H693 C668 0.950 . S
H694 C670 0.950 . S
H695 C671 0.949 . S
H696 C673 0.950 . S
H697 C675 0.950 . S
C698 C699 1.349 . S
C698 C700 1.327 . S
C698 H723 0.950 . S
C699 C698 1.349 . S
C699 C715 1.349 . S
C700 C698 1.327 . S
C700 C719 1.429 . S
C700 H724 0.950 . S
C701 C718 1.574 . S
C701 C720 1.368 . S
C701 H725 0.949 . S
H702 C706 0.949 . S
C703 C704 1.349 . S
C703 C705 1.327 . S
C703 H726 0.950 . S
C704 C703 1.349 . S
C704 C716 1.349 . S
C705 C703 1.327 . S
C705 C721 1.429 . S
C705 H727 0.950 . S
C706 H702 0.949 . S
C706 C714 1.574 . S
C706 C722 1.368 . S
H707 C715 0.950 . S
H708 C713 0.950 . S
H709 C714 0.949 . S
H710 C716 0.950 . S
H711 C717 0.950 . S
H712 C718 0.949 . S
C713 H708 0.950 . S
C713 C715 1.327 . S
C713 C719 1.429 . S
C714 C706 1.574 . S
C714 H709 0.949 . S
C714 C720 1.368 . S
C715 C699 1.349 . S
C715 H707 0.950 . S
C715 C713 1.327 . S
C716 C704 1.349 . S
C716 H710 0.950 . S
C716 C717 1.327 . S
C717 H711 0.950 . S
C717 C716 1.327 . S
C717 C721 1.429 . S
C718 C701 1.574 . S
C718 H712 0.949 . S
C718 C722 1.368 . S
C719 C700 1.429 . S
C719 C713 1.429 . S
C719 C720 1.523 . S
C720 C701 1.368 . S
C720 C714 1.368 . S
C720 C719 1.523 . S
C721 C705 1.429 . S
C721 C717 1.429 . S
C721 C722 1.523 . S
C722 C706 1.368 . S
C722 C718 1.368 . S
C722 C721 1.523 . S
H723 C698 0.950 . S
H724 C700 0.950 . S
H725 C701 0.949 . S
H726 C703 0.950 . S
H727 C705 0.950 . S
C728 C729 1.349 . S
C728 C730 1.327 . S
C728 H753 0.950 . S
C729 C728 1.349 . S
C729 C745 1.349 . S
C730 C728 1.327 . S
C730 C749 1.429 . S
C730 H754 0.950 . S
C731 C748 1.574 . S
C731 C750 1.368 . S
C731 H755 0.949 . S
H732 C736 0.949 . S
C733 C734 1.349 . S
C733 C735 1.327 . S
C733 H756 0.950 . S
C734 C733 1.349 . S
C734 C746 1.349 . S
C735 C733 1.327 . S
C735 C751 1.429 . S
C735 H757 0.950 . S
C736 H732 0.949 . S
C736 C744 1.574 . S
C736 C752 1.368 . S
H737 C745 0.950 . S
H738 C743 0.950 . S
H739 C744 0.949 . S
H740 C746 0.950 . S
H741 C747 0.950 . S
H742 C748 0.949 . S
C743 H738 0.950 . S
C743 C745 1.327 . S
C743 C749 1.429 . S
C744 C736 1.574 . S
C744 H739 0.949 . S
C744 C750 1.368 . S
C745 C729 1.349 . S
C745 H737 0.950 . S
C745 C743 1.327 . S
C746 C734 1.349 . S
C746 H740 0.950 . S
C746 C747 1.327 . S
C747 H741 0.950 . S
C747 C746 1.327 . S
C747 C751 1.429 . S
C748 C731 1.574 . S
C748 H742 0.949 . S
C748 C752 1.368 . S
C749 C730 1.429 . S
C749 C743 1.429 . S
C749 C750 1.523 . S
C750 C731 1.368 . S
C750 C744 1.368 . S
C750 C749 1.523 . S
C751 C735 1.429 . S
C751 C747 1.429 . S
C751 C752 1.523 . S
C752 C736 1.368 . S
C752 C748 1.368 . S
C752 C751 1.523 . S
H753 C728 0.950 . S
H754 C730 0.950 . S
H755 C731 0.949 . S
H756 C733 0.950 . S
H757 C735 0.950 . S
C758 C759 1.349 . S
C758 C760 1.318 1_565 S
C758 H783 0.950 1_665 S
C759 C758 1.349 . S
C759 C775 1.349 . S
C760 C758 1.318 1_545 S
C760 C779 1.400 1_545 S
C760 H784 0.990 . S
C761 C778 1.574 . S
C761 C780 1.368 . S
C761 H785 0.949 . S
H762 C766 0.949 . S
C763 C764 1.349 1_565 S
C763 C765 1.327 . S
C763 H786 0.950 . S
C764 C763 1.349 1_545 S
C764 C776 1.349 . S
C765 C763 1.327 . S
C765 C781 1.398 1_565 S
C765 H787 0.950 . S
C766 H762 0.949 . S
C766 C774 1.574 . S
C766 C782 1.368 1_545 S
H767 C775 0.950 . S
H768 C773 0.950 . S
H769 C774 0.949 . S
H770 C776 0.950 . S
H771 C777 0.950 . S
H772 C778 0.949 . S
C773 H768 0.950 . S
C773 C775 1.327 . S
C773 C779 1.429 . S
C774 C766 1.574 . S
C774 H769 0.949 . S
C774 C780 1.368 1_545 S
C775 C759 1.349 . S
C775 H767 0.950 . S
C775 C773 1.327 . S
C776 C764 1.349 . S
C776 H770 0.950 . S
C776 C777 1.327 . S
C777 H771 0.950 . S
C777 C776 1.327 . S
C777 C781 1.471 . S
C778 C761 1.574 . S
C778 H772 0.949 . S
C778 C782 1.368 . S
C779 C760 1.400 1_565 S
C779 C773 1.429 . S
C779 C780 1.523 . S
C780 C761 1.368 . S
C780 C774 1.368 1_565 S
C780 C779 1.523 . S
C781 C765 1.398 1_545 S
C781 C777 1.471 . S
C781 C782 1.514 1_545 S
C782 C766 1.368 1_565 S
C782 C778 1.368 . S
C782 C781 1.514 1_565 S
H783 C758 0.950 1_445 S
H784 C760 0.990 . S
H785 C761 0.949 . S
H786 C763 0.950 . S
H787 C765 0.950 . S
C788 C789 1.349 . S
C788 C790 1.327 . S
C788 H813 0.950 . S
C789 C788 1.349 . S
C789 C805 1.349 . S
C790 C788 1.327 . S
C790 C809 1.429 . S
C790 H814 0.950 . S
C791 C808 1.574 . S
C791 C810 1.368 . S
C791 H815 0.949 . S
H792 C796 0.949 . S
C793 C794 1.349 . S
C793 C795 1.327 . S
C793 H816 0.950 . S
C794 C793 1.349 . S
C794 C806 1.349 . S
C795 C793 1.327 . S
C795 C811 1.429 . S
C795 H817 0.950 . S
C796 H792 0.949 . S
C796 C804 1.574 . S
C796 C812 1.368 . S
H797 C805 0.950 . S
H798 C803 0.950 . S
H799 C804 0.949 . S
H800 C806 0.950 . S
H801 C807 0.950 . S
H802 C808 0.949 . S
C803 H798 0.950 . S
C803 C805 1.327 . S
C803 C809 1.429 . S
C804 C796 1.574 . S
C804 H799 0.949 . S
C804 C810 1.368 . S
C805 C789 1.349 . S
C805 H797 0.950 . S
C805 C803 1.327 . S
C806 C794 1.349 . S
C806 H800 0.950 . S
C806 C807 1.327 . S
C807 H801 0.950 . S
C807 C806 1.327 . S
C807 C811 1.429 . S
C808 C791 1.574 . S
C808 H802 0.949 . S
C808 C812 1.368 . S
C809 C790 1.429 . S
C809 C803 1.429 . S
C809 C810 1.523 . S
C810 C791 1.368 . S
C810 C804 1.368 . S
C810 C809 1.523 . S
C811 C795 1.429 . S
C811 C807 1.429 . S
C811 C812 1.523 . S
C812 C796 1.368 . S
C812 C808 1.368 . S
C812 C811 1.523 . S
H813 C788 0.950 . S
H814 C790 0.950 . S
H815 C791 0.949 . S
H816 C793 0.950 . S
H817 C795 0.950 . S
C818 C819 1.349 . S
C818 C820 1.327 . S
C818 H843 0.950 . S
C819 C818 1.349 . S
C819 C835 1.349 . S
C820 C818 1.327 . S
C820 C839 1.429 . S
C820 H844 0.950 . S
C821 C838 1.574 . S
C821 C840 1.368 . S
C821 H845 0.949 . S
H822 C826 0.949 . S
C823 C824 1.349 . S
C823 C825 1.327 . S
C823 H846 0.950 . S
C824 C823 1.349 . S
C824 C836 1.349 . S
C825 C823 1.327 . S
C825 C841 1.429 . S
C825 H847 0.950 . S
C826 H822 0.949 . S
C826 C834 1.574 . S
C826 C842 1.368 . S
H827 C835 0.950 . S
H828 C833 0.950 . S
H829 C834 0.949 . S
H830 C836 0.950 . S
H831 C837 0.950 . S
H832 C838 0.949 . S
C833 H828 0.950 . S
C833 C835 1.327 . S
C833 C839 1.429 . S
C834 C826 1.574 . S
C834 H829 0.949 . S
C834 C840 1.368 . S
C835 C819 1.349 . S
C835 H827 0.950 . S
C835 C833 1.327 . S
C836 C824 1.349 . S
C836 H830 0.950 . S
C836 C837 1.327 . S
C837 H831 0.950 . S
C837 C836 1.327 . S
C837 C841 1.429 . S
C838 C821 1.574 . S
C838 H832 0.949 . S
C838 C842 1.368 . S
C839 C820 1.429 . S
C839 C833 1.429 . S
C839 C840 1.523 . S
C840 C821 1.368 . S
C840 C834 1.368 . S
C840 C839 1.523 . S
C841 C825 1.429 . S
C841 C837 1.429 . S
C841 C842 1.523 . S
C842 C826 1.368 . S
C842 C838 1.368 . S
C842 C841 1.523 . S
H843 C818 0.950 . S
H844 C820 0.950 . S
H845 C821 0.949 . S
H846 C823 0.950 . S
H847 C825 0.950 . S
C848 C849 1.349 . S
C848 C850 1.327 . S
C848 H873 0.950 . S
C849 C848 1.349 . S
C849 C865 1.349 . S
C850 C848 1.327 . S
C850 C869 1.429 . S
C850 H874 0.950 . S
C851 C868 1.574 . S
C851 C870 1.368 . S
C851 H875 0.949 . S
H852 C856 0.949 . S
C853 C854 1.349 . S
C853 C855 1.327 . S
C853 H876 0.950 . S
C854 C853 1.349 . S
C854 C866 1.349 . S
C855 C853 1.327 . S
C855 C871 1.429 . S
C855 H877 0.950 . S
C856 H852 0.949 . S
C856 C864 1.574 . S
C856 C872 1.368 . S
H857 C865 0.950 . S
H858 C863 0.950 . S
H859 C864 0.949 . S
H860 C866 0.950 . S
H861 C867 0.950 . S
H862 C868 0.949 . S
C863 H858 0.950 . S
C863 C865 1.327 . S
C863 C869 1.429 . S
C864 C856 1.574 . S
C864 H859 0.949 . S
C864 C870 1.368 . S
C865 C849 1.349 . S
C865 H857 0.950 . S
C865 C863 1.327 . S
C866 C854 1.349 . S
C866 H860 0.950 . S
C866 C867 1.327 . S
C867 H861 0.950 . S
C867 C866 1.327 . S
C867 C871 1.429 . S
C868 C851 1.574 . S
C868 H862 0.949 . S
C868 C872 1.368 . S
C869 C850 1.429 . S
C869 C863 1.429 . S
C869 C870 1.523 . S
C870 C851 1.368 . S
C870 C864 1.368 . S
C870 C869 1.523 . S
C871 C855 1.429 . S
C871 C867 1.429 . S
C871 C872 1.523 . S
C872 C856 1.368 . S
C872 C868 1.368 . S
C872 C871 1.523 . S
H873 C848 0.950 . S
H874 C850 0.950 . S
H875 C851 0.949 . S
H876 C853 0.950 . S
H877 C855 0.950 . S
C878 C879 1.349 . S
C878 C880 1.327 . S
C878 H903 0.950 . S
C879 C878 1.349 . S
C879 C895 1.349 . S
C880 C878 1.327 . S
C880 C899 1.429 . S
C880 H904 0.950 . S
C881 C898 1.574 . S
C881 C900 1.368 . S
C881 H905 0.949 1_565 S
H882 C886 0.949 . S
C883 C884 1.349 1_545 S
C883 C885 1.327 . S
C883 H906 0.950 . S
C884 C883 1.349 1_565 S
C884 C896 1.349 . S
C885 C883 1.327 . S
C885 C901 1.429 1_545 S
C885 H907 0.950 . S
C886 H882 0.949 . S
C886 C894 1.574 . S
C886 C902 1.368 . S
H887 C895 0.950 . S
H888 C893 0.950 . S
H889 C894 0.949 . S
H890 C896 0.950 . S
H891 C897 0.950 . S
H892 C898 0.949 1_545 S
C893 H888 0.950 . S
C893 C895 1.327 . S
C893 C899 1.429 . S
C894 C886 1.574 . S
C894 H889 0.949 . S
C894 C900 1.368 . S
C895 C879 1.349 . S
C895 H887 0.950 . S
C895 C893 1.327 . S
C896 C884 1.349 . S
C896 H890 0.950 . S
C896 C897 1.327 . S
C897 H891 0.950 . S
C897 C896 1.327 . S
C897 C901 1.429 . S
C898 C881 1.574 . S
C898 H892 0.949 1_565 S
C898 C902 1.368 . S
C899 C880 1.429 . S
C899 C893 1.429 . S
C899 C900 1.523 . S
C900 C881 1.368 . S
C900 C894 1.368 . S
C900 C899 1.523 . S
C901 C885 1.429 1_565 S
C901 C897 1.429 . S
C901 C902 1.523 . S
C902 C886 1.368 . S
C902 C898 1.368 . S
C902 C901 1.523 . S
H903 C878 0.950 . S
H904 C880 0.950 . S
H905 C881 0.949 1_545 S
H906 C883 0.950 . S
H907 C885 0.950 . S
C908 C909 1.349 . S
C908 C910 1.327 . S
C908 H933 0.950 . S
C909 C908 1.349 . S
C909 C925 1.349 . S
C910 C908 1.327 . S
C910 C929 1.429 . S
C910 H934 0.950 . S
C911 C928 1.574 . S
C911 C930 1.368 . S
C911 H935 0.949 . S
H912 C916 0.949 . S
C913 C914 1.349 . S
C913 C915 1.327 . S
C913 H936 0.950 . S
C914 C913 1.349 . S
C914 C926 1.349 . S
C915 C913 1.327 . S
C915 C931 1.429 . S
C915 H937 0.950 . S
C916 H912 0.949 . S
C916 C924 1.574 . S
C916 C932 1.368 . S
H917 C925 0.950 . S
H918 C923 0.950 . S
H919 C924 0.949 . S
H920 C926 0.950 . S
H921 C927 0.950 . S
H922 C928 0.949 . S
C923 H918 0.950 . S
C923 C925 1.327 . S
C923 C929 1.429 . S
C924 C916 1.574 . S
C924 H919 0.949 . S
C924 C930 1.368 . S
C925 C909 1.349 . S
C925 H917 0.950 . S
C925 C923 1.327 . S
C926 C914 1.349 . S
C926 H920 0.950 . S
C926 C927 1.327 . S
C927 H921 0.950 . S
C927 C926 1.327 . S
C927 C931 1.429 . S
C928 C911 1.574 . S
C928 H922 0.949 . S
C928 C932 1.368 . S
C929 C910 1.429 . S
C929 C923 1.429 . S
C929 C930 1.523 . S
C930 C911 1.368 . S
C930 C924 1.368 . S
C930 C929 1.523 . S
C931 C915 1.429 . S
C931 C927 1.429 . S
C931 C932 1.523 . S
C932 C916 1.368 . S
C932 C928 1.368 . S
C932 C931 1.523 . S
H933 C908 0.950 . S
H934 C910 0.950 . S
H935 C911 0.949 . S
H936 C913 0.950 . S
H937 C915 0.950 . S
C938 C939 1.349 . S
C938 C940 1.327 . S
C938 H963 0.950 . S
C939 C938 1.349 . S
C939 C955 1.349 . S
C940 C938 1.327 . S
C940 C959 1.429 . S
C940 H964 0.950 . S
C941 C958 1.574 . S
C941 C960 1.368 . S
C941 H965 0.949 . S
H942 C946 0.949 . S
C943 C944 1.349 . S
C943 C945 1.327 . S
C943 H966 0.950 . S
C944 C943 1.349 . S
C944 C956 1.349 . S
C945 C943 1.327 . S
C945 C961 1.429 . S
C945 H967 0.950 . S
C946 H942 0.949 . S
C946 C954 1.574 . S
C946 C962 1.368 . S
H947 C955 0.950 . S
H948 C953 0.950 . S
H949 C954 0.949 . S
H950 C956 0.950 . S
H951 C957 0.950 . S
H952 C958 0.949 . S
C953 H948 0.950 . S
C953 C955 1.327 . S
C953 C959 1.429 . S
C954 C946 1.574 . S
C954 H949 0.949 . S
C954 C960 1.368 . S
C955 C939 1.349 . S
C955 H947 0.950 . S
C955 C953 1.327 . S
C956 C944 1.349 . S
C956 H950 0.950 . S
C956 C957 1.327 . S
C957 H951 0.950 . S
C957 C956 1.327 . S
C957 C961 1.429 . S
C958 C941 1.574 . S
C958 H952 0.949 . S
C958 C962 1.368 . S
C959 C940 1.429 . S
C959 C953 1.429 . S
C959 C960 1.523 . S
C960 C941 1.368 . S
C960 C954 1.368 . S
C960 C959 1.523 . S
C961 C945 1.429 . S
C961 C957 1.429 . S
C961 C962 1.523 . S
C962 C946 1.368 . S
C962 C958 1.368 . S
C962 C961 1.523 . S
H963 C938 0.950 . S
H964 C940 0.950 . S
H965 C941 0.949 . S
H966 C943 0.950 . S
H967 C945 0.950 . S
C968 C969 1.349 . S
C968 C970 1.327 . S
C968 H993 0.950 . S
C969 C968 1.349 . S
C969 C985 1.349 . S
C970 C968 1.327 . S
C970 C989 1.429 . S
C970 H994 0.950 . S
C971 C988 1.574 . S
C971 C990 1.368 . S
C971 H995 0.949 . S
H972 C976 0.949 . S
C973 C974 1.349 . S
C973 C975 1.327 . S
C973 H996 0.950 . S
C974 C973 1.349 . S
C974 C986 1.349 . S
C975 C973 1.327 . S
C975 C991 1.429 . S
C975 H997 0.950 . S
C976 H972 0.949 . S
C976 C984 1.574 . S
C976 C992 1.368 . S
H977 C985 0.950 . S
H978 C983 0.950 . S
H979 C984 0.949 . S
H980 C986 0.950 . S
H981 C987 0.950 . S
H982 C988 0.949 . S
C983 H978 0.950 . S
C983 C985 1.327 . S
C983 C989 1.429 . S
C984 C976 1.574 . S
C984 H979 0.949 . S
C984 C990 1.368 . S
C985 C969 1.349 . S
C985 H977 0.950 . S
C985 C983 1.327 . S
C986 C974 1.349 . S
C986 H980 0.950 . S
C986 C987 1.327 . S
C987 H981 0.950 . S
C987 C986 1.327 . S
C987 C991 1.429 . S
C988 C971 1.574 . S
C988 H982 0.949 . S
C988 C992 1.368 . S
C989 C970 1.429 . S
C989 C983 1.429 . S
C989 C990 1.523 . S
C990 C971 1.368 . S
C990 C984 1.368 . S
C990 C989 1.523 . S
C991 C975 1.429 . S
C991 C987 1.429 . S
C991 C992 1.523 . S
C992 C976 1.368 . S
C992 C988 1.368 . S
C992 C991 1.523 . S
H993 C968 0.950 . S
H994 C970 0.950 . S
H995 C971 0.949 . S
H996 C973 0.950 . S
H997 C975 0.950 . S
C998 C999 1.349 . S
C998 C1000 1.327 . S
C998 H1023 0.950 . S
C999 C998 1.349 . S
C999 C1015 1.349 . S
C1000 C998 1.327 . S
C1000 C1019 1.429 . S
C1000 H1024 0.950 . S
C1001 C1018 1.574 . S
C1001 C1020 1.368 . S
C1001 H1025 0.949 . S
H1002 C1006 0.949 . S
C1003 C1004 1.349 . S
C1003 C1005 1.327 . S
C1003 H1026 0.950 . S
C1004 C1003 1.349 . S
C1004 C1016 1.349 . S
C1005 C1003 1.327 . S
C1005 C1021 1.429 . S
C1005 H1027 0.950 . S
C1006 H1002 0.949 . S
C1006 C1014 1.574 . S
C1006 C1022 1.368 . S
H1007 C1015 0.950 . S
H1008 C1013 0.950 . S
H1009 C1014 0.949 . S
H1010 C1016 0.950 . S
H1011 C1017 0.950 . S
H1012 C1018 0.949 . S
C1013 H1008 0.950 . S
C1013 C1015 1.327 . S
C1013 C1019 1.429 . S
C1014 C1006 1.574 . S
C1014 H1009 0.949 . S
C1014 C1020 1.368 . S
C1015 C999 1.349 . S
C1015 H1007 0.950 . S
C1015 C1013 1.327 . S
C1016 C1004 1.349 . S
C1016 H1010 0.950 . S
C1016 C1017 1.327 . S
C1017 H1011 0.950 . S
C1017 C1016 1.327 . S
C1017 C1021 1.429 . S
C1018 C1001 1.574 . S
C1018 H1012 0.949 . S
C1018 C1022 1.368 . S
C1019 C1000 1.429 . S
C1019 C1013 1.429 . S
C1019 C1020 1.523 . S
C1020 C1001 1.368 . S
C1020 C1014 1.368 . S
C1020 C1019 1.523 . S
C1021 C1005 1.429 . S
C1021 C1017 1.429 . S
C1021 C1022 1.523 . S
C1022 C1006 1.368 . S
C1022 C1018 1.368 . S
C1022 C1021 1.523 . S
H1023 C998 0.950 . S
H1024 C1000 0.950 . S
H1025 C1001 0.949 . S
H1026 C1003 0.950 . S
H1027 C1005 0.950 . S
C1028 C1029 1.349 . S
C1028 C1030 1.327 . S
C1028 H1053 0.950 . S
C1029 C1028 1.349 . S
C1029 C1045 1.349 . S
C1030 C1028 1.327 . S
C1030 C1049 1.429 . S
C1030 H1054 0.950 . S
C1031 C1048 1.574 . S
C1031 C1050 1.368 . S
C1031 H1055 0.949 . S
H1032 C1036 0.949 . S
C1033 C1034 1.349 . S
C1033 C1035 1.327 . S
C1033 H1056 0.950 . S
C1034 C1033 1.349 . S
C1034 C1046 1.349 . S
C1035 C1033 1.327 . S
C1035 C1051 1.429 . S
C1035 H1057 0.950 . S
C1036 H1032 0.949 . S
C1036 C1044 1.574 . S
C1036 C1052 1.368 . S
H1037 C1045 0.950 . S
H1038 C1043 0.950 . S
H1039 C1044 0.949 . S
H1040 C1046 0.950 . S
H1041 C1047 0.950 . S
H1042 C1048 0.949 . S
C1043 H1038 0.950 . S
C1043 C1045 1.327 . S
C1043 C1049 1.429 . S
C1044 C1036 1.574 . S
C1044 H1039 0.949 . S
C1044 C1050 1.368 . S
C1045 C1029 1.349 . S
C1045 H1037 0.950 . S
C1045 C1043 1.327 . S
C1046 C1034 1.349 . S
C1046 H1040 0.950 . S
C1046 C1047 1.327 . S
C1047 H1041 0.950 . S
C1047 C1046 1.327 . S
C1047 C1051 1.429 . S
C1048 C1031 1.574 . S
C1048 H1042 0.949 . S
C1048 C1052 1.368 . S
C1049 C1030 1.429 . S
C1049 C1043 1.429 . S
C1049 C1050 1.523 . S
C1050 C1031 1.368 . S
C1050 C1044 1.368 . S
C1050 C1049 1.523 . S
C1051 C1035 1.429 . S
C1051 C1047 1.429 . S
C1051 C1052 1.523 . S
C1052 C1036 1.368 . S
C1052 C1048 1.368 . S
C1052 C1051 1.523 . S
H1053 C1028 0.950 . S
H1054 C1030 0.950 . S
H1055 C1031 0.949 . S
H1056 C1033 0.950 . S
H1057 C1035 0.950 . S
C1058 C1059 1.349 . S
C1058 C1060 1.327 . S
C1058 H1083 0.950 . S
C1059 C1058 1.349 . S
C1059 C1075 1.349 . S
C1060 C1058 1.327 . S
C1060 C1079 1.429 . S
C1060 H1084 0.950 . S
C1061 C1078 1.574 . S
C1061 C1080 1.368 . S
C1061 H1085 0.949 . S
H1062 C1066 0.949 . S
C1063 C1064 1.349 . S
C1063 C1065 1.327 . S
C1063 H1086 0.939 1_455 S
C1064 C1063 1.349 . S
C1064 C1076 1.349 . S
C1065 C1063 1.327 . S
C1065 C1081 1.429 . S
C1065 H1087 0.950 . S
C1066 H1062 0.949 . S
C1066 C1074 1.574 . S
C1066 C1082 1.368 . S
H1067 C1075 0.950 . S
H1068 C1073 0.950 . S
H1069 C1074 0.949 . S
H1070 C1076 0.950 . S
H1071 C1077 0.950 . S
H1072 C1078 0.949 . S
C1073 H1068 0.950 . S
C1073 C1075 1.327 . S
C1073 C1079 1.429 . S
C1074 C1066 1.574 . S
C1074 H1069 0.949 . S
C1074 C1080 1.368 . S
C1075 C1059 1.349 . S
C1075 H1067 0.950 . S
C1075 C1073 1.327 . S
C1076 C1064 1.349 . S
C1076 H1070 0.950 . S
C1076 C1077 1.327 . S
C1077 H1071 0.950 . S
C1077 C1076 1.327 . S
C1077 C1081 1.429 . S
C1078 C1061 1.574 . S
C1078 H1072 0.949 . S
C1078 C1082 1.368 . S
C1079 C1060 1.429 . S
C1079 C1073 1.429 . S
C1079 C1080 1.523 . S
C1080 C1061 1.368 . S
C1080 C1074 1.368 . S
C1080 C1079 1.523 . S
C1081 C1065 1.429 . S
C1081 C1077 1.429 . S
C1081 C1082 1.523 . S
C1082 C1066 1.368 . S
C1082 C1078 1.368 . S
C1082 C1081 1.523 . S
H1083 C1058 0.950 . S
H1084 C1060 0.950 . S
H1085 C1061 0.949 . S
H1086 C1063 0.939 1_655 S
H1087 C1065 0.950 . S
C1088 C1089 1.349 . S
C1088 C1090 1.327 . S
C1088 H1113 0.950 . S
C1089 C1088 1.349 . S
C1089 C1105 1.349 . S
C1090 C1088 1.327 . S
C1090 C1109 1.429 . S
C1090 H1114 0.950 . S
C1091 C1108 1.574 . S
C1091 C1110 1.368 . S
C1091 H1115 0.949 . S
H1092 C1096 0.949 . S
C1093 C1094 1.349 . S
C1093 C1095 1.327 . S
C1093 H1116 0.950 . S
C1094 C1093 1.349 . S
C1094 C1106 1.349 . S
C1095 C1093 1.327 . S
C1095 C1111 1.429 . S
C1095 H1117 0.950 . S
C1096 H1092 0.949 . S
C1096 C1104 1.574 . S
C1096 C1112 1.368 . S
H1097 C1105 0.950 . S
H1098 C1103 0.950 . S
H1099 C1104 0.949 . S
H1100 C1106 0.950 . S
H1101 C1107 0.950 . S
H1102 C1108 0.949 . S
C1103 H1098 0.950 . S
C1103 C1105 1.327 . S
C1103 C1109 1.429 . S
C1104 C1096 1.574 . S
C1104 H1099 0.949 . S
C1104 C1110 1.368 . S
C1105 C1089 1.349 . S
C1105 H1097 0.950 . S
C1105 C1103 1.327 . S
C1106 C1094 1.349 . S
C1106 H1100 0.950 . S
C1106 C1107 1.327 . S
C1107 H1101 0.950 . S
C1107 C1106 1.327 . S
C1107 C1111 1.429 . S
C1108 C1091 1.574 . S
C1108 H1102 0.949 . S
C1108 C1112 1.368 . S
C1109 C1090 1.429 . S
C1109 C1103 1.429 . S
C1109 C1110 1.523 . S
C1110 C1091 1.368 . S
C1110 C1104 1.368 . S
C1110 C1109 1.523 . S
C1111 C1095 1.429 . S
C1111 C1107 1.429 . S
C1111 C1112 1.523 . S
C1112 C1096 1.368 . S
C1112 C1108 1.368 . S
C1112 C1111 1.523 . S
H1113 C1088 0.950 . S
H1114 C1090 0.950 . S
H1115 C1091 0.949 . S
H1116 C1093 0.950 . S
H1117 C1095 0.950 . S
C1118 C1119 1.349 . S
C1118 C1120 1.327 . S
C1118 H1143 0.950 . S
C1119 C1118 1.349 . S
C1119 C1135 1.349 . S
C1120 C1118 1.327 . S
C1120 C1139 1.429 . S
C1120 H1144 0.950 1_655 S
C1121 C1138 1.574 . S
C1121 C1140 1.368 . S
C1121 H1145 0.949 . S
H1122 C1126 0.920 1_455 S
C1123 C1124 1.349 . S
C1123 C1125 1.327 . S
C1123 H1146 0.950 . S
C1124 C1123 1.349 . S
C1124 C1136 1.349 1_655 S
C1125 C1123 1.327 . S
C1125 C1141 1.429 . S
C1125 H1147 0.950 . S
C1126 H1122 0.920 1_655 S
C1126 C1134 1.578 . S
C1126 C1142 1.398 . S
H1127 C1135 0.950 . S
H1128 C1133 0.950 . S
H1129 C1134 0.949 1_455 S
H1130 C1136 0.950 . S
H1131 C1137 0.950 . S
H1132 C1138 0.949 . S
C1133 H1128 0.950 . S
C1133 C1135 1.327 . S
C1133 C1139 1.429 . S
C1134 C1126 1.578 . S
C1134 H1129 0.949 1_655 S
C1134 C1140 1.368 . S
C1135 C1119 1.349 . S
C1135 H1127 0.950 . S
C1135 C1133 1.327 . S
C1136 C1124 1.349 1_455 S
C1136 H1130 0.950 . S
C1136 C1137 1.327 . S
C1137 H1131 0.950 . S
C1137 C1136 1.327 . S
C1137 C1141 1.429 1_455 S
C1138 C1121 1.574 . S
C1138 H1132 0.949 . S
C1138 C1142 1.368 . S
C1139 C1120 1.429 . S
C1139 C1133 1.429 . S
C1139 C1140 1.523 . S
C1140 C1121 1.368 . S
C1140 C1134 1.368 . S
C1140 C1139 1.523 . S
C1141 C1125 1.429 . S
C1141 C1137 1.429 1_655 S
C1141 C1142 1.523 . S
C1142 C1126 1.398 . S
C1142 C1138 1.368 . S
C1142 C1141 1.523 . S
H1143 C1118 0.950 . S
H1144 C1120 0.950 1_455 S
H1145 C1121 0.949 . S
H1146 C1123 0.950 . S
H1147 C1125 0.950 . S
C1148 C1149 1.349 . S
C1148 C1150 1.327 . S
C1148 H1173 0.950 . S
C1149 C1148 1.349 . S
C1149 C1165 1.349 . S
C1150 C1148 1.327 . S
C1150 C1169 1.429 . S
C1150 H1174 0.950 . S
C1151 C1168 1.574 . S
C1151 C1170 1.368 . S
C1151 H1175 0.949 . S
H1152 C1156 0.949 . S
C1153 C1154 1.349 . S
C1153 C1155 1.327 . S
C1153 H1176 0.950 . S
C1154 C1153 1.349 . S
C1154 C1166 1.349 . S
C1155 C1153 1.327 . S
C1155 C1171 1.429 . S
C1155 H1177 0.950 . S
C1156 H1152 0.949 . S
C1156 C1164 1.574 . S
C1156 C1172 1.368 . S
H1157 C1165 0.950 . S
H1158 C1163 0.950 . S
H1159 C1164 0.949 . S
H1160 C1166 0.950 . S
H1161 C1167 0.950 . S
H1162 C1168 0.949 . S
C1163 H1158 0.950 . S
C1163 C1165 1.327 . S
C1163 C1169 1.429 . S
C1164 C1156 1.574 . S
C1164 H1159 0.949 . S
C1164 C1170 1.368 . S
C1165 C1149 1.349 . S
C1165 H1157 0.950 . S
C1165 C1163 1.327 . S
C1166 C1154 1.349 . S
C1166 H1160 0.950 . S
C1166 C1167 1.327 . S
C1167 H1161 0.950 . S
C1167 C1166 1.327 . S
C1167 C1171 1.429 . S
C1168 C1151 1.574 . S
C1168 H1162 0.949 . S
C1168 C1172 1.368 . S
C1169 C1150 1.429 . S
C1169 C1163 1.429 . S
C1169 C1170 1.523 . S
C1170 C1151 1.368 . S
C1170 C1164 1.368 . S
C1170 C1169 1.523 . S
C1171 C1155 1.429 . S
C1171 C1167 1.429 . S
C1171 C1172 1.523 . S
C1172 C1156 1.368 . S
C1172 C1168 1.368 . S
C1172 C1171 1.523 . S
H1173 C1148 0.950 . S
H1174 C1150 0.950 . S
H1175 C1151 0.949 . S
H1176 C1153 0.950 . S
H1177 C1155 0.950 . S
C1178 C1179 1.349 . S
C1178 C1180 1.327 . S
C1178 H1203 0.950 . S
C1179 C1178 1.349 . S
C1179 C1195 1.349 . S
C1180 C1178 1.327 . S
C1180 C1199 1.429 . S
C1180 H1204 0.950 . S
C1181 C1198 1.574 . S
C1181 C1200 1.368 . S
C1181 H1205 0.949 . S
H1182 C1186 0.949 . S
C1183 C1184 1.349 . S
C1183 C1185 1.327 . S
C1183 H1206 0.950 . S
C1184 C1183 1.349 . S
C1184 C1196 1.349 . S
C1185 C1183 1.327 . S
C1185 C1201 1.429 . S
C1185 H1207 0.950 . S
C1186 H1182 0.949 . S
C1186 C1194 1.574 . S
C1186 C1202 1.368 . S
H1187 C1195 0.950 . S
H1188 C1193 0.950 . S
H1189 C1194 0.949 . S
H1190 C1196 0.950 . S
H1191 C1197 0.950 . S
H1192 C1198 0.949 . S
C1193 H1188 0.950 . S
C1193 C1195 1.327 . S
C1193 C1199 1.429 . S
C1194 C1186 1.574 . S
C1194 H1189 0.949 . S
C1194 C1200 1.368 . S
C1195 C1179 1.349 . S
C1195 H1187 0.950 . S
C1195 C1193 1.327 . S
C1196 C1184 1.349 . S
C1196 H1190 0.950 . S
C1196 C1197 1.327 . S
C1197 H1191 0.950 . S
C1197 C1196 1.327 . S
C1197 C1201 1.429 . S
C1198 C1181 1.574 . S
C1198 H1192 0.949 . S
C1198 C1202 1.368 . S
C1199 C1180 1.429 . S
C1199 C1193 1.429 . S
C1199 C1200 1.523 . S
C1200 C1181 1.368 . S
C1200 C1194 1.368 . S
C1200 C1199 1.523 . S
C1201 C1185 1.429 . S
C1201 C1197 1.429 . S
C1201 C1202 1.523 . S
C1202 C1186 1.368 . S
C1202 C1198 1.368 . S
C1202 C1201 1.523 . S
H1203 C1178 0.950 . S
H1204 C1180 0.950 . S
H1205 C1181 0.949 . S
H1206 C1183 0.950 . S
H1207 C1185 0.950 . S
C1208 C1209 1.349 1_545 S
C1208 C1210 1.327 1_545 S
C1208 H1233 0.950 . S
C1209 C1208 1.349 1_565 S
C1209 C1225 1.349 . S
C1210 C1208 1.327 1_565 S
C1210 C1229 1.429 . S
C1210 H1234 0.950 1_556 S
C1211 C1228 1.574 . S
C1211 C1230 1.368 . S
C1211 H1235 0.949 . S
H1212 C1216 0.949 . S
C1213 C1214 1.349 1_556 S
C1213 C1215 1.327 . S
C1213 H1236 0.950 . S
C1214 C1213 1.349 1_554 S
C1214 C1226 1.349 . S
C1215 C1213 1.327 . S
C1215 C1231 1.429 . S
C1215 H1237 0.950 . S
C1216 H1212 0.949 . S
C1216 C1224 1.576 . S
C1216 C1232 1.368 1_554 S
H1217 C1225 0.950 . S
H1218 C1223 0.950 . S
H1219 C1224 0.954 . S
H1220 C1226 0.950 . S
H1221 C1227 0.950 . S
H1222 C1228 0.949 . S
C1223 H1218 0.950 . S
C1223 C1225 1.327 . S
C1223 C1229 1.429 . S
C1224 C1216 1.576 . S
C1224 H1219 0.954 . S
C1224 C1230 1.360 1_554 S
C1225 C1209 1.349 . S
C1225 H1217 0.950 . S
C1225 C1223 1.327 . S
C1226 C1214 1.349 . S
C1226 H1220 0.950 . S
C1226 C1227 1.327 . S
C1227 H1221 0.950 . S
C1227 C1226 1.327 . S
C1227 C1231 1.429 1_554 S
C1228 C1211 1.574 . S
C1228 H1222 0.949 . S
C1228 C1232 1.368 . S
C1229 C1210 1.429 . S
C1229 C1223 1.429 . S
C1229 C1230 1.523 . S
C1230 C1211 1.368 . S
C1230 C1224 1.360 1_556 S
C1230 C1229 1.523 . S
C1231 C1215 1.429 . S
C1231 C1227 1.429 1_556 S
C1231 C1232 1.523 . S
C1232 C1216 1.368 1_556 S
C1232 C1228 1.368 . S
C1232 C1231 1.523 . S
H1233 C1208 0.950 . S
H1234 C1210 0.950 1_554 S
H1235 C1211 0.949 . S
H1236 C1213 0.950 . S
H1237 C1215 0.950 . S
C1238 C1239 1.349 . S
C1238 C1240 1.327 . S
C1238 H1263 0.950 . S
C1239 C1238 1.349 . S
C1239 C1255 1.349 . S
C1240 C1238 1.327 . S
C1240 C1259 1.429 . S
C1240 H1264 0.950 . S
C1241 C1258 1.574 . S
C1241 C1260 1.368 . S
C1241 H1265 0.949 . S
H1242 C1246 0.949 . S
C1243 C1244 1.349 . S
C1243 C1245 1.327 . S
C1243 H1266 0.950 . S
C1244 C1243 1.349 . S
C1244 C1256 1.349 . S
C1245 C1243 1.327 . S
C1245 C1261 1.429 . S
C1245 H1267 0.950 . S
C1246 H1242 0.949 . S
C1246 C1254 1.574 . S
C1246 C1262 1.368 . S
H1247 C1255 0.950 . S
H1248 C1253 0.950 . S
H1249 C1254 0.949 . S
H1250 C1256 0.950 . S
H1251 C1257 0.950 . S
H1252 C1258 0.949 . S
C1253 H1248 0.950 . S
C1253 C1255 1.327 . S
C1253 C1259 1.429 . S
C1254 C1246 1.574 . S
C1254 H1249 0.949 . S
C1254 C1260 1.368 . S
C1255 C1239 1.349 . S
C1255 H1247 0.950 . S
C1255 C1253 1.327 . S
C1256 C1244 1.349 . S
C1256 H1250 0.950 . S
C1256 C1257 1.327 . S
C1257 H1251 0.950 . S
C1257 C1256 1.327 . S
C1257 C1261 1.429 . S
C1258 C1241 1.574 . S
C1258 H1252 0.949 . S
C1258 C1262 1.368 . S
C1259 C1240 1.429 . S
C1259 C1253 1.429 . S
C1259 C1260 1.523 . S
C1260 C1241 1.368 . S
C1260 C1254 1.368 . S
C1260 C1259 1.523 . S
C1261 C1245 1.429 . S
C1261 C1257 1.429 . S
C1261 C1262 1.523 . S
C1262 C1246 1.368 . S
C1262 C1258 1.368 . S
C1262 C1261 1.523 . S
H1263 C1238 0.950 . S
H1264 C1240 0.950 . S
H1265 C1241 0.949 . S
H1266 C1243 0.950 . S
H1267 C1245 0.950 . S
C1268 C1269 1.349 . S
C1268 C1270 1.327 . S
C1268 H1293 0.950 . S
C1269 C1268 1.349 . S
C1269 C1285 1.349 . S
C1270 C1268 1.327 . S
C1270 C1289 1.429 . S
C1270 H1294 0.950 . S
C1271 C1288 1.574 . S
C1271 C1290 1.368 . S
C1271 H1295 0.949 . S
H1272 C1276 0.949 . S
C1273 C1274 1.349 . S
C1273 C1275 1.327 . S
C1273 H1296 0.950 . S
C1274 C1273 1.349 . S
C1274 C1286 1.349 . S
C1275 C1273 1.327 . S
C1275 C1291 1.429 . S
C1275 H1297 0.950 . S
C1276 H1272 0.949 . S
C1276 C1284 1.574 . S
C1276 C1292 1.368 . S
H1277 C1285 0.950 . S
H1278 C1283 0.950 . S
H1279 C1284 0.949 . S
H1280 C1286 0.950 . S
H1281 C1287 0.950 . S
H1282 C1288 0.949 . S
C1283 H1278 0.950 . S
C1283 C1285 1.327 . S
C1283 C1289 1.429 . S
C1284 C1276 1.574 . S
C1284 H1279 0.949 . S
C1284 C1290 1.368 . S
C1285 C1269 1.349 . S
C1285 H1277 0.950 . S
C1285 C1283 1.327 . S
C1286 C1274 1.349 . S
C1286 H1280 0.950 . S
C1286 C1287 1.327 . S
C1287 H1281 0.950 . S
C1287 C1286 1.327 . S
C1287 C1291 1.429 . S
C1288 C1271 1.574 . S
C1288 H1282 0.949 . S
C1288 C1292 1.368 . S
C1289 C1270 1.429 . S
C1289 C1283 1.429 . S
C1289 C1290 1.523 . S
C1290 C1271 1.368 . S
C1290 C1284 1.368 . S
C1290 C1289 1.523 . S
C1291 C1275 1.429 . S
C1291 C1287 1.429 . S
C1291 C1292 1.523 . S
C1292 C1276 1.368 . S
C1292 C1288 1.368 . S
C1292 C1291 1.523 . S
H1293 C1268 0.950 . S
H1294 C1270 0.950 . S
H1295 C1271 0.949 . S
H1296 C1273 0.950 . S
H1297 C1275 0.950 . S
C1298 C1299 1.349 . S
C1298 C1300 1.327 . S
C1298 H1323 0.950 . S
C1299 C1298 1.349 . S
C1299 C1315 1.349 . S
C1300 C1298 1.327 . S
C1300 C1319 1.429 . S
C1300 H1324 0.950 . S
C1301 C1318 1.574 . S
C1301 C1320 1.368 . S
C1301 H1325 0.949 . S
H1302 C1306 0.949 . S
C1303 C1304 1.349 . S
C1303 C1305 1.327 . S
C1303 H1326 0.950 . S
C1304 C1303 1.349 . S
C1304 C1316 1.349 . S
C1305 C1303 1.327 . S
C1305 C1321 1.429 . S
C1305 H1327 0.950 . S
C1306 H1302 0.949 . S
C1306 C1314 1.574 . S
C1306 C1322 1.368 . S
H1307 C1315 0.950 . S
H1308 C1313 0.950 . S
H1309 C1314 0.949 . S
H1310 C1316 0.950 . S
H1311 C1317 0.950 . S
H1312 C1318 0.949 . S
C1313 H1308 0.950 . S
C1313 C1315 1.327 . S
C1313 C1319 1.429 . S
C1314 C1306 1.574 . S
C1314 H1309 0.949 . S
C1314 C1320 1.368 . S
C1315 C1299 1.349 . S
C1315 H1307 0.950 . S
C1315 C1313 1.327 . S
C1316 C1304 1.349 . S
C1316 H1310 0.950 . S
C1316 C1317 1.327 . S
C1317 H1311 0.950 . S
C1317 C1316 1.327 . S
C1317 C1321 1.429 . S
C1318 C1301 1.574 . S
C1318 H1312 0.949 . S
C1318 C1322 1.368 . S
C1319 C1300 1.429 . S
C1319 C1313 1.429 . S
C1319 C1320 1.523 . S
C1320 C1301 1.368 . S
C1320 C1314 1.368 . S
C1320 C1319 1.523 . S
C1321 C1305 1.429 . S
C1321 C1317 1.429 . S
C1321 C1322 1.523 . S
C1322 C1306 1.368 . S
C1322 C1318 1.368 . S
C1322 C1321 1.523 . S
H1323 C1298 0.950 . S
H1324 C1300 0.950 . S
H1325 C1301 0.949 . S
H1326 C1303 0.950 . S
H1327 C1305 0.950 . S
C1328 C1329 1.349 . S
C1328 C1330 1.327 . S
C1328 H1353 0.950 . S
C1329 C1328 1.349 . S
C1329 C1345 1.349 . S
C1330 C1328 1.327 . S
C1330 C1349 1.429 . S
C1330 H1354 0.950 . S
C1331 C1348 1.574 . S
C1331 C1350 1.368 . S
C1331 H1355 0.949 . S
H1332 C1336 0.949 . S
C1333 C1334 1.349 . S
C1333 C1335 1.327 . S
C1333 H1356 0.950 . S
C1334 C1333 1.349 . S
C1334 C1346 1.349 . S
C1335 C1333 1.327 . S
C1335 C1351 1.429 . S
C1335 H1357 0.950 . S
C1336 H1332 0.949 . S
C1336 C1344 1.574 . S
C1336 C1352 1.368 . S
H1337 C1345 1.008 . S
H1338 C1343 0.950 . S
H1339 C1344 0.949 . S
H1340 C1346 0.950 . S
H1341 C1347 0.950 . S
H1342 C1348 0.949 . S
C1343 H1338 0.950 . S
C1343 C1345 1.327 . S
C1343 C1349 1.429 . S
C1344 C1336 1.574 . S
C1344 H1339 0.949 . S
C1344 C1350 1.368 . S
C1345 C1329 1.349 . S
C1345 H1337 1.008 . S
C1345 C1343 1.327 . S
C1346 C1334 1.349 . S
C1346 H1340 0.950 . S
C1346 C1347 1.327 . S
C1347 H1341 0.950 . S
C1347 C1346 1.327 . S
C1347 C1351 1.429 . S
C1348 C1331 1.574 . S
C1348 H1342 0.949 . S
C1348 C1352 1.368 . S
C1349 C1330 1.429 . S
C1349 C1343 1.429 . S
C1349 C1350 1.523 . S
C1350 C1331 1.368 . S
C1350 C1344 1.368 . S
C1350 C1349 1.523 . S
C1351 C1335 1.429 . S
C1351 C1347 1.429 . S
C1351 C1352 1.523 . S
C1352 C1336 1.368 . S
C1352 C1348 1.368 . S
C1352 C1351 1.523 . S
H1353 C1328 0.950 . S
H1354 C1330 0.950 . S
H1355 C1331 0.949 . S
H1356 C1333 0.950 . S
H1357 C1335 0.950 . S
C1358 C1359 1.349 . S
C1358 C1360 1.327 . S
C1358 H1383 0.950 . S
C1359 C1358 1.349 . S
C1359 C1375 1.349 . S
C1360 C1358 1.327 . S
C1360 C1379 1.429 . S
C1360 H1384 0.950 . S
C1361 C1378 1.574 . S
C1361 C1380 1.368 . S
C1361 H1385 0.949 . S
H1362 C1366 0.949 . S
C1363 C1364 1.349 . S
C1363 C1365 1.327 . S
C1363 H1386 0.950 . S
C1364 C1363 1.349 . S
C1364 C1376 1.349 . S
C1365 C1363 1.327 . S
C1365 C1381 1.429 . S
C1365 H1387 0.950 . S
C1366 H1362 0.949 . S
C1366 C1374 1.574 . S
C1366 C1382 1.368 . S
H1367 C1375 0.950 . S
H1368 C1373 0.950 . S
H1369 C1374 0.949 . S
H1370 C1376 0.950 . S
H1371 C1377 0.950 . S
H1372 C1378 0.949 . S
C1373 H1368 0.950 . S
C1373 C1375 1.327 . S
C1373 C1379 1.429 . S
C1374 C1366 1.574 . S
C1374 H1369 0.949 . S
C1374 C1380 1.368 . S
C1375 C1359 1.349 . S
C1375 H1367 0.950 . S
C1375 C1373 1.327 . S
C1376 C1364 1.349 . S
C1376 H1370 0.950 . S
C1376 C1377 1.327 . S
C1377 H1371 0.950 . S
C1377 C1376 1.327 . S
C1377 C1381 1.429 . S
C1378 C1361 1.574 . S
C1378 H1372 0.949 . S
C1378 C1382 1.368 . S
C1379 C1360 1.429 . S
C1379 C1373 1.429 . S
C1379 C1380 1.523 . S
C1380 C1361 1.368 . S
C1380 C1374 1.368 . S
C1380 C1379 1.523 . S
C1381 C1365 1.429 . S
C1381 C1377 1.429 . S
C1381 C1382 1.523 . S
C1382 C1366 1.368 . S
C1382 C1378 1.368 . S
C1382 C1381 1.523 . S
H1383 C1358 0.950 . S
H1384 C1360 0.950 . S
H1385 C1361 0.949 . S
H1386 C1363 0.950 . S
H1387 C1365 0.950 . S
C1388 C1389 1.349 . S
C1388 C1390 1.327 . S
C1388 H1413 0.950 . S
C1389 C1388 1.349 . S
C1389 C1405 1.349 . S
C1390 C1388 1.327 . S
C1390 C1409 1.429 . S
C1390 H1414 0.950 . S
C1391 C1408 1.574 . S
C1391 C1410 1.368 . S
C1391 H1415 0.949 . S
H1392 C1396 0.949 . S
C1393 C1394 1.349 . S
C1393 C1395 1.327 . S
C1393 H1416 0.950 . S
C1394 C1393 1.349 . S
C1394 C1406 1.349 . S
C1395 C1393 1.327 . S
C1395 C1411 1.429 . S
C1395 H1417 0.950 . S
C1396 H1392 0.949 . S
C1396 C1404 1.574 . S
C1396 C1412 1.368 . S
H1397 C1405 0.950 . S
H1398 C1403 0.950 . S
H1399 C1404 0.949 . S
H1400 C1406 0.950 . S
H1401 C1407 0.950 . S
H1402 C1408 0.949 . S
C1403 H1398 0.950 . S
C1403 C1405 1.327 . S
C1403 C1409 1.429 . S
C1404 C1396 1.574 . S
C1404 H1399 0.949 . S
C1404 C1410 1.368 . S
C1405 C1389 1.349 . S
C1405 H1397 0.950 . S
C1405 C1403 1.327 . S
C1406 C1394 1.349 . S
C1406 H1400 0.950 . S
C1406 C1407 1.327 . S
C1407 H1401 0.950 . S
C1407 C1406 1.327 . S
C1407 C1411 1.429 . S
C1408 C1391 1.574 . S
C1408 H1402 0.949 . S
C1408 C1412 1.368 . S
C1409 C1390 1.429 . S
C1409 C1403 1.429 . S
C1409 C1410 1.523 . S
C1410 C1391 1.368 . S
C1410 C1404 1.368 . S
C1410 C1409 1.523 . S
C1411 C1395 1.429 . S
C1411 C1407 1.429 . S
C1411 C1412 1.523 . S
C1412 C1396 1.368 . S
C1412 C1408 1.368 . S
C1412 C1411 1.523 . S
H1413 C1388 0.950 . S
H1414 C1390 0.950 . S
H1415 C1391 0.949 . S
H1416 C1393 0.950 . S
H1417 C1395 0.950 . S
C1418 C1419 1.349 . S
C1418 C1420 1.327 . S
C1418 H1443 0.950 . S
C1419 C1418 1.349 . S
C1419 C1435 1.349 . S
C1420 C1418 1.327 . S
C1420 C1439 1.429 . S
C1420 H1444 0.950 . S
C1421 C1438 1.586 . S
C1421 C1440 1.368 . S
C1421 H1445 0.949 1_545 S
H1422 C1426 0.949 . S
C1423 C1424 1.349 1_565 S
C1423 C1425 1.327 . S
C1423 H1446 0.950 . S
C1424 C1423 1.349 1_545 S
C1424 C1436 1.349 . S
C1425 C1423 1.327 . S
C1425 C1441 1.429 1_565 S
C1425 H1447 0.950 . S
C1426 H1422 0.949 . S
C1426 C1434 1.574 . S
C1426 C1442 1.368 . S
H1427 C1435 0.950 . S
H1428 C1433 0.950 1_565 S
H1429 C1434 0.949 . S
H1430 C1436 0.950 . S
H1431 C1437 0.950 . S
H1432 C1438 0.889 1_565 S
C1433 H1428 0.950 1_545 S
C1433 C1435 1.327 . S
C1433 C1439 1.429 . S
C1434 C1426 1.574 . S
C1434 H1429 0.949 . S
C1434 C1440 1.368 . S
C1435 C1419 1.349 . S
C1435 H1427 0.950 . S
C1435 C1433 1.327 . S
C1436 C1424 1.349 . S
C1436 H1430 0.950 . S
C1436 C1437 1.327 . S
C1437 H1431 0.950 . S
C1437 C1436 1.327 . S
C1437 C1441 1.429 . S
C1438 C1421 1.586 . S
C1438 H1432 0.889 1_545 S
C1438 C1442 1.425 . S
C1439 C1420 1.429 . S
C1439 C1433 1.429 . S
C1439 C1440 1.523 . S
C1440 C1421 1.368 . S
C1440 C1434 1.368 . S
C1440 C1439 1.523 . S
C1441 C1425 1.429 1_545 S
C1441 C1437 1.429 . S
C1441 C1442 1.523 . S
C1442 C1426 1.368 . S
C1442 C1438 1.425 . S
C1442 C1441 1.523 . S
H1443 C1418 0.950 . S
H1444 C1420 0.950 . S
H1445 C1421 0.949 1_565 S
H1446 C1423 0.950 . S
H1447 C1425 0.950 . S
C1448 C1449 1.349 . S
C1448 C1450 1.327 . S
C1448 H1473 0.950 . S
C1449 C1448 1.349 . S
C1449 C1465 1.349 . S
C1450 C1448 1.327 . S
C1450 C1469 1.429 . S
C1450 H1474 0.950 . S
C1451 C1468 1.574 . S
C1451 C1470 1.368 . S
C1451 H1475 0.949 . S
H1452 C1456 0.949 . S
C1453 C1454 1.349 . S
C1453 C1455 1.327 . S
C1453 H1476 0.950 . S
C1454 C1453 1.349 . S
C1454 C1466 1.349 . S
C1455 C1453 1.327 . S
C1455 C1471 1.429 . S
C1455 H1477 0.950 . S
C1456 H1452 0.949 . S
C1456 C1464 1.574 . S
C1456 C1472 1.368 . S
H1457 C1465 0.950 . S
H1458 C1463 0.950 . S
H1459 C1464 0.949 . S
H1460 C1466 0.950 . S
H1461 C1467 0.950 . S
H1462 C1468 0.949 . S
C1463 H1458 0.950 . S
C1463 C1465 1.327 . S
C1463 C1469 1.429 . S
C1464 C1456 1.574 . S
C1464 H1459 0.949 . S
C1464 C1470 1.368 . S
C1465 C1449 1.349 . S
C1465 H1457 0.950 . S
C1465 C1463 1.327 . S
C1466 C1454 1.349 . S
C1466 H1460 0.950 . S
C1466 C1467 1.327 . S
C1467 H1461 0.950 . S
C1467 C1466 1.327 . S
C1467 C1471 1.429 . S
C1468 C1451 1.574 . S
C1468 H1462 0.949 . S
C1468 C1472 1.368 . S
C1469 C1450 1.429 . S
C1469 C1463 1.429 . S
C1469 C1470 1.523 . S
C1470 C1451 1.368 . S
C1470 C1464 1.368 . S
C1470 C1469 1.523 . S
C1471 C1455 1.429 . S
C1471 C1467 1.429 . S
C1471 C1472 1.523 . S
C1472 C1456 1.368 . S
C1472 C1468 1.368 . S
C1472 C1471 1.523 . S
H1473 C1448 0.950 . S
H1474 C1450 0.950 . S
H1475 C1451 0.949 . S
H1476 C1453 0.950 . S
H1477 C1455 0.950 . S
C1478 C1479 1.349 . S
C1478 C1480 1.327 . S
C1478 H1503 0.950 . S
C1479 C1478 1.349 . S
C1479 C1495 1.349 . S
C1480 C1478 1.327 . S
C1480 C1499 1.429 . S
C1480 H1504 0.950 . S
C1481 C1498 1.574 . S
C1481 C1500 1.368 . S
C1481 H1505 0.949 . S
H1482 C1486 0.949 . S
C1483 C1484 1.349 . S
C1483 C1485 1.327 . S
C1483 H1506 0.950 . S
C1484 C1483 1.349 . S
C1484 C1496 1.349 . S
C1485 C1483 1.327 . S
C1485 C1501 1.429 . S
C1485 H1507 0.950 . S
C1486 H1482 0.949 . S
C1486 C1494 1.574 . S
C1486 C1502 1.368 . S
H1487 C1495 0.950 . S
H1488 C1493 0.950 . S
H1489 C1494 0.949 . S
H1490 C1496 0.950 . S
H1491 C1497 0.950 . S
H1492 C1498 0.949 . S
C1493 H1488 0.950 . S
C1493 C1495 1.327 . S
C1493 C1499 1.429 . S
C1494 C1486 1.574 . S
C1494 H1489 0.949 . S
C1494 C1500 1.368 . S
C1495 C1479 1.349 . S
C1495 H1487 0.950 . S
C1495 C1493 1.327 . S
C1496 C1484 1.349 . S
C1496 H1490 0.950 . S
C1496 C1497 1.327 . S
C1497 H1491 0.950 . S
C1497 C1496 1.327 . S
C1497 C1501 1.429 . S
C1498 C1481 1.574 . S
C1498 H1492 0.949 . S
C1498 C1502 1.368 . S
C1499 C1480 1.429 . S
C1499 C1493 1.429 . S
C1499 C1500 1.523 . S
C1500 C1481 1.368 . S
C1500 C1494 1.368 . S
C1500 C1499 1.523 . S
C1501 C1485 1.429 . S
C1501 C1497 1.429 . S
C1501 C1502 1.523 . S
C1502 C1486 1.368 . S
C1502 C1498 1.368 . S
C1502 C1501 1.523 . S
H1503 C1478 0.950 . S
H1504 C1480 0.950 . S
H1505 C1481 0.949 . S
H1506 C1483 0.950 . S
H1507 C1485 0.950 . S
C1508 C1509 1.349 . S
C1508 C1510 1.327 . S
C1508 H1533 0.950 . S
C1509 C1508 1.349 . S
C1509 C1525 1.349 . S
C1510 C1508 1.327 . S
C1510 C1529 1.429 . S
C1510 H1534 0.950 . S
C1511 C1528 1.574 . S
C1511 C1530 1.368 . S
C1511 H1535 0.949 . S
H1512 C1516 0.949 . S
C1513 C1514 1.349 . S
C1513 C1515 1.327 . S
C1513 H1536 0.950 . S
C1514 C1513 1.349 . S
C1514 C1526 1.349 . S
C1515 C1513 1.327 . S
C1515 C1531 1.429 . S
C1515 H1537 0.950 . S
C1516 H1512 0.949 . S
C1516 C1524 1.574 . S
C1516 C1532 1.368 . S
H1517 C1525 0.950 . S
H1518 C1523 0.950 . S
H1519 C1524 0.949 . S
H1520 C1526 0.950 . S
H1521 C1527 0.950 . S
H1522 C1528 0.949 . S
C1523 H1518 0.950 . S
C1523 C1525 1.327 . S
C1523 C1529 1.429 . S
C1524 C1516 1.574 . S
C1524 H1519 0.949 . S
C1524 C1530 1.368 . S
C1525 C1509 1.349 . S
C1525 H1517 0.950 . S
C1525 C1523 1.327 . S
C1526 C1514 1.349 . S
C1526 H1520 0.950 . S
C1526 C1527 1.327 . S
C1527 H1521 0.950 . S
C1527 C1526 1.327 . S
C1527 C1531 1.429 . S
C1528 C1511 1.574 . S
C1528 H1522 0.949 . S
C1528 C1532 1.368 . S
C1529 C1510 1.429 . S
C1529 C1523 1.429 . S
C1529 C1530 1.523 . S
C1530 C1511 1.368 . S
C1530 C1524 1.368 . S
C1530 C1529 1.523 . S
C1531 C1515 1.429 . S
C1531 C1527 1.429 . S
C1531 C1532 1.523 . S
C1532 C1516 1.368 . S
C1532 C1528 1.368 . S
C1532 C1531 1.523 . S
H1533 C1508 0.950 . S
H1534 C1510 0.950 . S
H1535 C1511 0.949 . S
H1536 C1513 0.950 . S
H1537 C1515 0.950 . S
C1538 C1539 1.349 . S
C1538 C1540 1.327 . S
C1538 H1563 0.950 1_655 S
C1539 C1538 1.349 . S
C1539 C1555 1.349 . S
C1540 C1538 1.327 . S
C1540 C1559 1.429 . S
C1540 H1564 0.950 . S
C1541 C1558 1.574 . S
C1541 C1560 1.368 . S
C1541 H1565 0.949 . S
H1542 C1546 0.949 . S
C1543 C1544 1.349 . S
C1543 C1545 1.327 . S
C1543 H1566 0.950 . S
C1544 C1543 1.349 . S
C1544 C1556 1.349 . S
C1545 C1543 1.327 . S
C1545 C1561 1.429 . S
C1545 H1567 0.950 . S
C1546 H1542 0.949 . S
C1546 C1554 1.574 . S
C1546 C1562 1.368 . S
H1547 C1555 0.950 . S
H1548 C1553 0.950 . S
H1549 C1554 0.949 . S
H1550 C1556 0.899 1_565 S
H1551 C1557 0.950 . S
H1552 C1558 0.949 . S
C1553 H1548 0.950 . S
C1553 C1555 1.327 . S
C1553 C1559 1.429 . S
C1554 C1546 1.574 . S
C1554 H1549 0.949 . S
C1554 C1560 1.368 . S
C1555 C1539 1.349 . S
C1555 H1547 0.950 . S
C1555 C1553 1.327 . S
C1556 C1544 1.349 . S
C1556 H1550 0.899 1_545 S
C1556 C1557 1.327 . S
C1557 H1551 0.950 . S
C1557 C1556 1.327 . S
C1557 C1561 1.429 . S
C1558 C1541 1.574 . S
C1558 H1552 0.949 . S
C1558 C1562 1.368 . S
C1559 C1540 1.429 . S
C1559 C1553 1.429 . S
C1559 C1560 1.523 . S
C1560 C1541 1.368 . S
C1560 C1554 1.368 . S
C1560 C1559 1.523 . S
C1561 C1545 1.429 . S
C1561 C1557 1.429 . S
C1561 C1562 1.523 . S
C1562 C1546 1.368 . S
C1562 C1558 1.368 . S
C1562 C1561 1.523 . S
H1563 C1538 0.950 1_455 S
H1564 C1540 0.950 . S
H1565 C1541 0.949 . S
H1566 C1543 0.950 . S
H1567 C1545 0.950 . S
C1568 C1569 1.349 . S
C1568 C1570 1.327 . S
C1568 H1593 0.950 . S
C1569 C1568 1.349 . S
C1569 C1585 1.349 . S
C1570 C1568 1.327 . S
C1570 C1589 1.429 . S
C1570 H1594 0.950 . S
C1571 C1588 1.574 . S
C1571 C1590 1.368 . S
C1571 H1595 0.949 . S
H1572 C1576 0.949 . S
C1573 C1574 1.349 . S
C1573 C1575 1.327 . S
C1573 H1596 0.950 . S
C1574 C1573 1.349 . S
C1574 C1586 1.349 . S
C1575 C1573 1.327 . S
C1575 C1591 1.429 . S
C1575 H1597 0.950 . S
C1576 H1572 0.949 . S
C1576 C1584 1.574 . S
C1576 C1592 1.368 . S
H1577 C1585 0.950 . S
H1578 C1583 0.950 . S
H1579 C1584 0.949 . S
H1580 C1586 0.950 . S
H1581 C1587 0.950 . S
H1582 C1588 0.949 . S
C1583 H1578 0.950 . S
C1583 C1585 1.327 . S
C1583 C1589 1.429 . S
C1584 C1576 1.574 . S
C1584 H1579 0.949 . S
C1584 C1590 1.368 . S
C1585 C1569 1.349 . S
C1585 H1577 0.950 . S
C1585 C1583 1.327 . S
C1586 C1574 1.349 . S
C1586 H1580 0.950 . S
C1586 C1587 1.327 . S
C1587 H1581 0.950 . S
C1587 C1586 1.327 . S
C1587 C1591 1.429 . S
C1588 C1571 1.574 . S
C1588 H1582 0.949 . S
C1588 C1592 1.368 . S
C1589 C1570 1.429 . S
C1589 C1583 1.429 . S
C1589 C1590 1.523 . S
C1590 C1571 1.368 . S
C1590 C1584 1.368 . S
C1590 C1589 1.523 . S
C1591 C1575 1.429 . S
C1591 C1587 1.429 . S
C1591 C1592 1.523 . S
C1592 C1576 1.368 . S
C1592 C1588 1.368 . S
C1592 C1591 1.523 . S
H1593 C1568 0.950 . S
H1594 C1570 0.950 . S
H1595 C1571 0.949 . S
H1596 C1573 0.950 . S
H1597 C1575 0.950 . S
C1598 C1599 1.349 . S
C1598 C1600 1.327 . S
C1598 H1623 0.950 . S
C1599 C1598 1.349 . S
C1599 C1615 1.349 . S
C1600 C1598 1.327 . S
C1600 C1619 1.429 . S
C1600 H1624 0.950 . S
C1601 C1618 1.574 . S
C1601 C1620 1.368 . S
C1601 H1625 0.949 . S
H1602 C1606 0.949 . S
C1603 C1604 1.349 . S
C1603 C1605 1.327 . S
C1603 H1626 0.950 . S
C1604 C1603 1.349 . S
C1604 C1616 1.349 . S
C1605 C1603 1.327 . S
C1605 C1621 1.429 . S
C1605 H1627 0.950 . S
C1606 H1602 0.949 . S
C1606 C1614 1.574 . S
C1606 C1622 1.368 . S
H1607 C1615 0.950 . S
H1608 C1613 0.950 . S
H1609 C1614 0.949 . S
H1610 C1616 0.950 . S
H1611 C1617 0.950 . S
H1612 C1618 0.949 . S
C1613 H1608 0.950 . S
C1613 C1615 1.327 . S
C1613 C1619 1.429 . S
C1614 C1606 1.574 . S
C1614 H1609 0.949 . S
C1614 C1620 1.368 . S
C1615 C1599 1.349 . S
C1615 H1607 0.950 . S
C1615 C1613 1.327 . S
C1616 C1604 1.349 . S
C1616 H1610 0.950 . S
C1616 C1617 1.327 . S
C1617 H1611 0.950 . S
C1617 C1616 1.327 . S
C1617 C1621 1.429 . S
C1618 C1601 1.574 . S
C1618 H1612 0.949 . S
C1618 C1622 1.368 . S
C1619 C1600 1.429 . S
C1619 C1613 1.429 . S
C1619 C1620 1.523 . S
C1620 C1601 1.368 . S
C1620 C1614 1.368 . S
C1620 C1619 1.523 . S
C1621 C1605 1.429 . S
C1621 C1617 1.429 . S
C1621 C1622 1.523 . S
C1622 C1606 1.368 . S
C1622 C1618 1.368 . S
C1622 C1621 1.523 . S
H1623 C1598 0.950 . S
H1624 C1600 0.950 . S
H1625 C1601 0.949 . S
H1626 C1603 0.950 . S
H1627 C1605 0.950 . S
C1628 C1629 1.349 . S
C1628 C1630 1.327 . S
C1628 H1653 0.950 . S
C1629 C1628 1.349 . S
C1629 C1645 1.349 . S
C1630 C1628 1.327 . S
C1630 C1649 1.429 . S
C1630 H1654 0.950 . S
C1631 C1648 1.574 . S
C1631 C1650 1.368 . S
C1631 H1655 0.949 . S
H1632 C1636 0.949 . S
C1633 C1634 1.349 . S
C1633 C1635 1.327 . S
C1633 H1656 0.950 . S
C1634 C1633 1.349 . S
C1634 C1646 1.349 . S
C1635 C1633 1.327 . S
C1635 C1651 1.429 . S
C1635 H1657 0.950 . S
C1636 H1632 0.949 . S
C1636 C1644 1.574 . S
C1636 C1652 1.368 . S
H1637 C1645 0.950 . S
H1638 C1643 0.950 . S
H1639 C1644 0.949 . S
H1640 C1646 0.950 . S
H1641 C1647 0.950 . S
H1642 C1648 0.949 . S
C1643 H1638 0.950 . S
C1643 C1645 1.327 . S
C1643 C1649 1.429 . S
C1644 C1636 1.574 . S
C1644 H1639 0.949 . S
C1644 C1650 1.368 . S
C1645 C1629 1.349 . S
C1645 H1637 0.950 . S
C1645 C1643 1.327 . S
C1646 C1634 1.349 . S
C1646 H1640 0.950 . S
C1646 C1647 1.327 . S
C1647 H1641 0.950 . S
C1647 C1646 1.327 . S
C1647 C1651 1.429 . S
C1648 C1631 1.574 . S
C1648 H1642 0.949 . S
C1648 C1652 1.368 . S
C1649 C1630 1.429 . S
C1649 C1643 1.429 . S
C1649 C1650 1.523 . S
C1650 C1631 1.368 . S
C1650 C1644 1.368 . S
C1650 C1649 1.523 . S
C1651 C1635 1.429 . S
C1651 C1647 1.429 . S
C1651 C1652 1.523 . S
C1652 C1636 1.368 . S
C1652 C1648 1.368 . S
C1652 C1651 1.523 . S
H1653 C1628 0.950 . S
H1654 C1630 0.950 . S
H1655 C1631 0.949 . S
H1656 C1633 0.950 . S
H1657 C1635 0.950 . S
C1658 C1659 1.349 . S
C1658 C1660 1.327 . S
C1658 H1683 0.950 . S
C1659 C1658 1.349 . S
C1659 C1675 1.349 . S
C1660 C1658 1.327 . S
C1660 C1679 1.429 . S
C1660 H1684 0.950 . S
C1661 C1678 1.574 . S
C1661 C1680 1.368 . S
C1661 H1685 0.949 . S
H1662 C1666 0.949 1_455 S
C1663 C1664 1.349 . S
C1663 C1665 1.327 . S
C1663 H1686 0.950 . S
C1664 C1663 1.349 . S
C1664 C1676 1.349 1_655 S
C1665 C1663 1.327 . S
C1665 C1681 1.429 . S
C1665 H1687 0.950 . S
C1666 H1662 0.949 1_655 S
C1666 C1674 1.574 . S
C1666 C1682 1.368 . S
H1667 C1675 0.950 1_554 S
H1668 C1673 0.950 . S
H1669 C1674 0.949 . S
H1670 C1676 0.950 . S
H1671 C1677 0.950 . S
H1672 C1678 0.949 . S
C1673 H1668 0.950 . S
C1673 C1675 1.327 . S
C1673 C1679 1.429 . S
C1674 C1666 1.574 . S
C1674 H1669 0.949 . S
C1674 C1680 1.368 . S
C1675 C1659 1.349 . S
C1675 H1667 0.950 1_556 S
C1675 C1673 1.327 . S
C1676 C1664 1.349 1_455 S
C1676 H1670 0.950 . S
C1676 C1677 1.327 . S
C1677 H1671 0.950 . S
C1677 C1676 1.327 . S
C1677 C1681 1.429 1_455 S
C1678 C1661 1.574 . S
C1678 H1672 0.949 . S
C1678 C1682 1.368 . S
C1679 C1660 1.429 . S
C1679 C1673 1.429 . S
C1679 C1680 1.523 . S
C1680 C1661 1.368 . S
C1680 C1674 1.368 . S
C1680 C1679 1.523 . S
C1681 C1665 1.429 . S
C1681 C1677 1.429 1_655 S
C1681 C1682 1.523 . S
C1682 C1666 1.368 . S
C1682 C1678 1.368 . S
C1682 C1681 1.523 . S
H1683 C1658 0.950 . S
H1684 C1660 0.950 . S
H1685 C1661 0.949 . S
H1686 C1663 0.950 . S
H1687 C1665 0.950 . S
C1688 C1689 1.349 . S
C1688 C1690 1.327 . S
C1688 H1713 0.950 . S
C1689 C1688 1.349 . S
C1689 C1705 1.349 . S
C1690 C1688 1.327 . S
C1690 C1709 1.429 . S
C1690 H1714 0.950 . S
C1691 C1708 1.574 . S
C1691 C1710 1.368 . S
C1691 H1715 0.949 . S
H1692 C1696 0.949 . S
C1693 C1694 1.349 . S
C1693 C1695 1.327 . S
C1693 H1716 0.950 . S
C1694 C1693 1.349 . S
C1694 C1706 1.349 . S
C1695 C1693 1.327 . S
C1695 C1711 1.429 . S
C1695 H1717 0.950 . S
C1696 H1692 0.949 . S
C1696 C1704 1.574 . S
C1696 C1712 1.368 . S
H1697 C1705 0.950 . S
H1698 C1703 0.950 . S
H1699 C1704 0.949 . S
H1700 C1706 0.950 . S
H1701 C1707 0.950 . S
H1702 C1708 0.949 . S
C1703 H1698 0.950 . S
C1703 C1705 1.327 . S
C1703 C1709 1.429 . S
C1704 C1696 1.574 . S
C1704 H1699 0.949 . S
C1704 C1710 1.368 . S
C1705 C1689 1.349 . S
C1705 H1697 0.950 . S
C1705 C1703 1.327 . S
C1706 C1694 1.349 . S
C1706 H1700 0.950 . S
C1706 C1707 1.327 . S
C1707 H1701 0.950 . S
C1707 C1706 1.327 . S
C1707 C1711 1.429 . S
C1708 C1691 1.574 . S
C1708 H1702 0.949 . S
C1708 C1712 1.368 . S
C1709 C1690 1.429 . S
C1709 C1703 1.429 . S
C1709 C1710 1.523 . S
C1710 C1691 1.368 . S
C1710 C1704 1.368 . S
C1710 C1709 1.523 . S
C1711 C1695 1.429 . S
C1711 C1707 1.429 . S
C1711 C1712 1.523 . S
C1712 C1696 1.368 . S
C1712 C1708 1.368 . S
C1712 C1711 1.523 . S
H1713 C1688 0.950 . S
H1714 C1690 0.950 . S
H1715 C1691 0.949 . S
H1716 C1693 0.950 . S
H1717 C1695 0.950 . S
C1718 C1719 1.349 1_556 S
C1718 C1720 1.327 . S
C1718 H1743 0.950 . S
C1719 C1718 1.349 1_554 S
C1719 C1735 1.349 . S
C1720 C1718 1.327 . S
C1720 C1739 1.429 . S
C1720 H1744 0.950 . S
C1721 C1738 1.574 . S
C1721 C1740 1.368 . S
C1721 H1745 0.949 . S
H1722 C1726 0.943 1_655 S
C1723 C1724 1.349 . S
C1723 C1725 1.327 . S
C1723 H1746 0.950 . S
C1724 C1723 1.349 . S
C1724 C1736 1.349 . S
C1725 C1723 1.327 . S
C1725 C1741 1.429 . S
C1725 H1747 0.950 . S
C1726 H1722 0.943 1_455 S
C1726 C1734 1.574 . S
C1726 C1742 1.368 . S
H1727 C1735 0.950 . S
H1728 C1733 0.950 . S
H1729 C1734 0.949 . S
H1730 C1736 0.950 1_655 S
H1731 C1737 0.950 1_655 S
H1732 C1738 0.949 . S
C1733 H1728 0.950 . S
C1733 C1735 1.327 1_556 S
C1733 C1739 1.429 . S
C1734 C1726 1.574 . S
C1734 H1729 0.949 . S
C1734 C1740 1.368 . S
C1735 C1719 1.349 . S
C1735 H1727 0.950 . S
C1735 C1733 1.327 1_554 S
C1736 C1724 1.349 . S
C1736 H1730 0.950 1_455 S
C1736 C1737 1.327 . S
C1737 H1731 0.950 1_455 S
C1737 C1736 1.327 . S
C1737 C1741 1.429 . S
C1738 C1721 1.574 . S
C1738 H1732 0.949 . S
C1738 C1742 1.368 . S
C1739 C1720 1.429 . S
C1739 C1733 1.429 . S
C1739 C1740 1.523 . S
C1740 C1721 1.368 . S
C1740 C1734 1.368 . S
C1740 C1739 1.523 . S
C1741 C1725 1.429 . S
C1741 C1737 1.429 . S
C1741 C1742 1.523 . S
C1742 C1726 1.368 . S
C1742 C1738 1.368 . S
C1742 C1741 1.523 . S
H1743 C1718 0.950 . S
H1744 C1720 0.950 . S
H1745 C1721 0.949 . S
H1746 C1723 0.950 . S
H1747 C1725 0.950 . S
C1748 C1749 1.349 . S
C1748 C1750 1.327 . S
C1748 H1773 0.950 . S
C1749 C1748 1.349 . S
C1749 C1765 1.349 . S
C1750 C1748 1.327 . S
C1750 C1769 1.429 . S
C1750 H1774 0.950 . S
C1751 C1768 1.574 . S
C1751 C1770 1.368 . S
C1751 H1775 0.949 . S
H1752 C1756 0.949 . S
C1753 C1754 1.349 . S
C1753 C1755 1.327 . S
C1753 H1776 0.950 . S
C1754 C1753 1.349 . S
C1754 C1766 1.349 . S
C1755 C1753 1.327 . S
C1755 C1771 1.429 . S
C1755 H1777 0.950 . S
C1756 H1752 0.949 . S
C1756 C1764 1.574 . S
C1756 C1772 1.368 . S
H1757 C1765 0.950 . S
H1758 C1763 0.950 . S
H1759 C1764 0.949 . S
H1760 C1766 0.950 . S
H1761 C1767 0.950 . S
H1762 C1768 0.949 . S
C1763 H1758 0.950 . S
C1763 C1765 1.327 . S
C1763 C1769 1.429 . S
C1764 C1756 1.574 . S
C1764 H1759 0.949 . S
C1764 C1770 1.368 . S
C1765 C1749 1.349 . S
C1765 H1757 0.950 . S
C1765 C1763 1.327 . S
C1766 C1754 1.349 . S
C1766 H1760 0.950 . S
C1766 C1767 1.327 . S
C1767 H1761 0.950 . S
C1767 C1766 1.327 . S
C1767 C1771 1.429 . S
C1768 C1751 1.574 . S
C1768 H1762 0.949 . S
C1768 C1772 1.368 . S
C1769 C1750 1.429 . S
C1769 C1763 1.429 . S
C1769 C1770 1.523 . S
C1770 C1751 1.368 . S
C1770 C1764 1.368 . S
C1770 C1769 1.523 . S
C1771 C1755 1.429 . S
C1771 C1767 1.429 . S
C1771 C1772 1.523 . S
C1772 C1756 1.368 . S
C1772 C1768 1.368 . S
C1772 C1771 1.523 . S
H1773 C1748 0.950 . S
H1774 C1750 0.950 . S
H1775 C1751 0.949 . S
H1776 C1753 0.950 . S
H1777 C1755 0.950 . S
C1778 C1779 1.349 . S
C1778 C1780 1.327 . S
C1778 H1803 0.950 1_554 S
C1779 C1778 1.349 . S
C1779 C1795 1.349 . S
C1780 C1778 1.327 . S
C1780 C1799 1.429 . S
C1780 H1804 0.950 . S
C1781 C1798 1.574 . S
C1781 C1800 1.368 . S
C1781 H1805 0.949 . S
H1782 C1786 0.949 . S
C1783 C1784 1.349 . S
C1783 C1785 1.327 . S
C1783 H1806 0.950 . S
C1784 C1783 1.349 . S
C1784 C1796 1.349 . S
C1785 C1783 1.327 . S
C1785 C1801 1.429 . S
C1785 H1807 0.950 . S
C1786 H1782 0.949 . S
C1786 C1794 1.574 . S
C1786 C1802 1.368 . S
H1787 C1795 0.950 . S
H1788 C1793 0.950 . S
H1789 C1794 0.949 . S
H1790 C1796 0.950 . S
H1791 C1797 0.950 . S
H1792 C1798 0.949 . S
C1793 H1788 0.950 . S
C1793 C1795 1.327 . S
C1793 C1799 1.429 . S
C1794 C1786 1.574 . S
C1794 H1789 0.949 . S
C1794 C1800 1.368 . S
C1795 C1779 1.349 . S
C1795 H1787 0.950 . S
C1795 C1793 1.327 . S
C1796 C1784 1.349 . S
C1796 H1790 0.950 . S
C1796 C1797 1.327 . S
C1797 H1791 0.950 . S
C1797 C1796 1.327 . S
C1797 C1801 1.429 . S
C1798 C1781 1.574 . S
C1798 H1792 0.949 . S
C1798 C1802 1.368 . S
C1799 C1780 1.429 . S
C1799 C1793 1.429 . S
C1799 C1800 1.523 . S
C1800 C1781 1.368 . S
C1800 C1794 1.368 . S
C1800 C1799 1.523 . S
C1801 C1785 1.429 . S
C1801 C1797 1.429 . S
C1801 C1802 1.523 . S
C1802 C1786 1.368 . S
C1802 C1798 1.368 . S
C1802 C1801 1.523 . S
H1803 C1778 0.950 1_556 S
H1804 C1780 0.950 . S
H1805 C1781 0.949 . S
H1806 C1783 0.950 . S
H1807 C1785 0.950 . S
C1808 C1809 1.349 . S
C1808 C1810 1.327 . S
C1808 H1833 0.950 . S
C1809 C1808 1.349 . S
C1809 C1825 1.349 . S
C1810 C1808 1.327 . S
C1810 C1829 1.429 . S
C1810 H1834 0.950 . S
C1811 C1828 1.574 . S
C1811 C1830 1.368 . S
C1811 H1835 0.949 . S
H1812 C1816 0.949 . S
C1813 C1814 1.349 . S
C1813 C1815 1.327 . S
C1813 H1836 0.950 . S
C1814 C1813 1.349 . S
C1814 C1826 1.349 . S
C1815 C1813 1.327 . S
C1815 C1831 1.429 . S
C1815 H1837 0.950 . S
C1816 H1812 0.949 . S
C1816 C1824 1.574 . S
C1816 C1832 1.368 . S
H1817 C1825 0.950 . S
H1818 C1823 0.950 . S
H1819 C1824 0.949 . S
H1820 C1826 0.950 . S
H1821 C1827 0.950 . S
H1822 C1828 0.949 . S
C1823 H1818 0.950 . S
C1823 C1825 1.327 . S
C1823 C1829 1.429 . S
C1824 C1816 1.574 . S
C1824 H1819 0.949 . S
C1824 C1830 1.368 . S
C1825 C1809 1.349 . S
C1825 H1817 0.950 . S
C1825 C1823 1.327 . S
C1826 C1814 1.349 . S
C1826 H1820 0.950 . S
C1826 C1827 1.327 . S
C1827 H1821 0.950 . S
C1827 C1826 1.327 . S
C1827 C1831 1.429 . S
C1828 C1811 1.574 . S
C1828 H1822 0.949 . S
C1828 C1832 1.368 . S
C1829 C1810 1.429 . S
C1829 C1823 1.429 . S
C1829 C1830 1.523 . S
C1830 C1811 1.368 . S
C1830 C1824 1.368 . S
C1830 C1829 1.523 . S
C1831 C1815 1.429 . S
C1831 C1827 1.429 . S
C1831 C1832 1.523 . S
C1832 C1816 1.368 . S
C1832 C1828 1.368 . S
C1832 C1831 1.523 . S
H1833 C1808 0.950 . S
H1834 C1810 0.950 . S
H1835 C1811 0.949 . S
H1836 C1813 0.950 . S
H1837 C1815 0.950 . S
C1838 C1839 1.349 . S
C1838 C1840 1.327 . S
C1838 H1863 0.950 . S
C1839 C1838 1.349 . S
C1839 C1855 1.349 . S
C1840 C1838 1.327 . S
C1840 C1859 1.429 . S
C1840 H1864 0.950 . S
C1841 C1858 1.574 . S
C1841 C1860 1.368 . S
C1841 H1865 0.949 . S
H1842 C1846 0.949 . S
C1843 C1844 1.349 . S
C1843 C1845 1.327 . S
C1843 H1866 0.950 . S
C1844 C1843 1.349 . S
C1844 C1856 1.349 . S
C1845 C1843 1.327 . S
C1845 C1861 1.429 . S
C1845 H1867 0.950 . S
C1846 H1842 0.949 . S
C1846 C1854 1.574 . S
C1846 C1862 1.368 . S
H1847 C1855 0.995 . S
H1848 C1853 0.950 . S
H1849 C1854 0.949 . S
H1850 C1856 0.950 . S
H1851 C1857 0.950 . S
H1852 C1858 0.949 . S
C1853 H1848 0.950 . S
C1853 C1855 1.327 . S
C1853 C1859 1.429 . S
C1854 C1846 1.574 . S
C1854 H1849 0.949 . S
C1854 C1860 1.368 . S
C1855 C1839 1.349 . S
C1855 H1847 0.995 . S
C1855 C1853 1.327 . S
C1856 C1844 1.349 . S
C1856 H1850 0.950 . S
C1856 C1857 1.327 . S
C1857 H1851 0.950 . S
C1857 C1856 1.327 . S
C1857 C1861 1.429 . S
C1858 C1841 1.574 . S
C1858 H1852 0.949 . S
C1858 C1862 1.368 . S
C1859 C1840 1.429 . S
C1859 C1853 1.429 . S
C1859 C1860 1.523 . S
C1860 C1841 1.368 . S
C1860 C1854 1.368 . S
C1860 C1859 1.523 . S
C1861 C1845 1.429 . S
C1861 C1857 1.429 . S
C1861 C1862 1.523 . S
C1862 C1846 1.368 . S
C1862 C1858 1.368 . S
C1862 C1861 1.523 . S
H1863 C1838 0.950 . S
H1864 C1840 0.950 . S
H1865 C1841 0.949 . S
H1866 C1843 0.950 . S
H1867 C1845 0.950 . S
C1868 C1869 1.349 . S
C1868 C1870 1.327 . S
C1868 H1893 0.950 . S
C1869 C1868 1.349 . S
C1869 C1885 1.349 . S
C1870 C1868 1.327 . S
C1870 C1889 1.429 . S
C1870 H1894 0.950 . S
C1871 C1888 1.574 . S
C1871 C1890 1.368 . S
C1871 H1895 0.949 . S
H1872 C1876 0.949 . S
C1873 C1874 1.349 . S
C1873 C1875 1.327 . S
C1873 H1896 0.950 . S
C1874 C1873 1.349 . S
C1874 C1886 1.349 . S
C1875 C1873 1.327 . S
C1875 C1891 1.429 . S
C1875 H1897 0.950 . S
C1876 H1872 0.949 . S
C1876 C1884 1.574 . S
C1876 C1892 1.368 . S
H1877 C1885 0.950 . S
H1878 C1883 0.950 . S
H1879 C1884 0.949 . S
H1880 C1886 0.950 . S
H1881 C1887 0.950 . S
H1882 C1888 0.949 . S
C1883 H1878 0.950 . S
C1883 C1885 1.327 . S
C1883 C1889 1.429 . S
C1884 C1876 1.574 . S
C1884 H1879 0.949 . S
C1884 C1890 1.368 . S
C1885 C1869 1.349 . S
C1885 H1877 0.950 . S
C1885 C1883 1.327 . S
C1886 C1874 1.349 . S
C1886 H1880 0.950 . S
C1886 C1887 1.327 . S
C1887 H1881 0.950 . S
C1887 C1886 1.327 . S
C1887 C1891 1.429 . S
C1888 C1871 1.574 . S
C1888 H1882 0.949 . S
C1888 C1892 1.368 . S
C1889 C1870 1.429 . S
C1889 C1883 1.429 . S
C1889 C1890 1.523 . S
C1890 C1871 1.368 . S
C1890 C1884 1.368 . S
C1890 C1889 1.523 . S
C1891 C1875 1.429 . S
C1891 C1887 1.429 . S
C1891 C1892 1.523 . S
C1892 C1876 1.368 . S
C1892 C1888 1.368 . S
C1892 C1891 1.523 . S
H1893 C1868 0.950 . S
H1894 C1870 0.950 . S
H1895 C1871 0.949 . S
H1896 C1873 0.950 . S
H1897 C1875 0.950 . S
C1898 C1899 1.349 . S
C1898 C1900 1.327 . S
C1898 H1923 0.950 . S
C1899 C1898 1.349 . S
C1899 C1915 1.349 . S
C1900 C1898 1.327 . S
C1900 C1919 1.429 . S
C1900 H1924 0.950 . S
C1901 C1918 1.574 . S
C1901 C1920 1.368 . S
C1901 H1925 0.949 . S
H1902 C1906 0.949 . S
C1903 C1904 1.349 . S
C1903 C1905 1.327 . S
C1903 H1926 0.950 . S
C1904 C1903 1.349 . S
C1904 C1916 1.349 . S
C1905 C1903 1.327 . S
C1905 C1921 1.429 . S
C1905 H1927 0.950 . S
C1906 H1902 0.949 . S
C1906 C1914 1.574 . S
C1906 C1922 1.368 . S
H1907 C1915 0.950 . S
H1908 C1913 0.950 . S
H1909 C1914 0.949 . S
H1910 C1916 0.950 . S
H1911 C1917 0.950 . S
H1912 C1918 0.949 . S
C1913 H1908 0.950 . S
C1913 C1915 1.327 . S
C1913 C1919 1.429 . S
C1914 C1906 1.574 . S
C1914 H1909 0.949 . S
C1914 C1920 1.368 . S
C1915 C1899 1.349 . S
C1915 H1907 0.950 . S
C1915 C1913 1.327 . S
C1916 C1904 1.349 . S
C1916 H1910 0.950 . S
C1916 C1917 1.327 . S
C1917 H1911 0.950 . S
C1917 C1916 1.327 . S
C1917 C1921 1.429 . S
C1918 C1901 1.574 . S
C1918 H1912 0.949 . S
C1918 C1922 1.368 . S
C1919 C1900 1.429 . S
C1919 C1913 1.429 . S
C1919 C1920 1.523 . S
C1920 C1901 1.368 . S
C1920 C1914 1.368 . S
C1920 C1919 1.523 . S
C1921 C1905 1.429 . S
C1921 C1917 1.429 . S
C1921 C1922 1.523 . S
C1922 C1906 1.368 . S
C1922 C1918 1.368 . S
C1922 C1921 1.523 . S
H1923 C1898 0.950 . S
H1924 C1900 0.950 . S
H1925 C1901 0.949 . S
H1926 C1903 0.950 . S
H1927 C1905 0.950 . S
C1928 C1929 1.349 . S
C1928 C1930 1.327 . S
C1928 H1953 0.950 . S
C1929 C1928 1.349 . S
C1929 C1945 1.349 . S
C1930 C1928 1.327 . S
C1930 C1949 1.429 . S
C1930 H1954 0.950 . S
C1931 C1948 1.574 . S
C1931 C1950 1.368 . S
C1931 H1955 0.949 . S
H1932 C1936 0.949 . S
C1933 C1934 1.349 . S
C1933 C1935 1.327 . S
C1933 H1956 0.950 . S
C1934 C1933 1.349 . S
C1934 C1946 1.349 . S
C1935 C1933 1.327 . S
C1935 C1951 1.429 . S
C1935 H1957 0.950 . S
C1936 H1932 0.949 . S
C1936 C1944 1.574 . S
C1936 C1952 1.368 . S
H1937 C1945 0.950 . S
H1938 C1943 0.950 . S
H1939 C1944 0.949 . S
H1940 C1946 0.950 . S
H1941 C1947 0.950 . S
H1942 C1948 0.949 . S
C1943 H1938 0.950 . S
C1943 C1945 1.327 . S
C1943 C1949 1.429 . S
C1944 C1936 1.574 . S
C1944 H1939 0.949 . S
C1944 C1950 1.368 . S
C1945 C1929 1.349 . S
C1945 H1937 0.950 . S
C1945 C1943 1.327 . S
C1946 C1934 1.349 . S
C1946 H1940 0.950 . S
C1946 C1947 1.327 . S
C1947 H1941 0.950 . S
C1947 C1946 1.327 . S
C1947 C1951 1.429 . S
C1948 C1931 1.574 . S
C1948 H1942 0.949 . S
C1948 C1952 1.368 . S
C1949 C1930 1.429 . S
C1949 C1943 1.429 . S
C1949 C1950 1.523 . S
C1950 C1931 1.368 . S
C1950 C1944 1.368 . S
C1950 C1949 1.523 . S
C1951 C1935 1.429 . S
C1951 C1947 1.429 . S
C1951 C1952 1.523 . S
C1952 C1936 1.368 . S
C1952 C1948 1.368 . S
C1952 C1951 1.523 . S
H1953 C1928 0.950 . S
H1954 C1930 0.950 . S
H1955 C1931 0.949 . S
H1956 C1933 0.950 . S
H1957 C1935 0.950 . S
C1958 C1959 1.349 . S
C1958 C1960 1.327 . S
C1958 H1983 0.950 . S
C1959 C1958 1.349 . S
C1959 C1975 1.349 . S
C1960 C1958 1.327 . S
C1960 C1979 1.429 . S
C1960 H1984 0.950 . S
C1961 C1978 1.574 . S
C1961 C1980 1.368 . S
C1961 H1985 0.949 . S
H1962 C1966 0.949 . S
C1963 C1964 1.349 . S
C1963 C1965 1.327 . S
C1963 H1986 0.950 . S
C1964 C1963 1.349 . S
C1964 C1976 1.349 . S
C1965 C1963 1.327 . S
C1965 C1981 1.429 . S
C1965 H1987 0.950 . S
C1966 H1962 0.949 . S
C1966 C1974 1.574 . S
C1966 C1982 1.368 . S
H1967 C1975 0.950 . S
H1968 C1973 0.950 . S
H1969 C1974 0.949 . S
H1970 C1976 0.950 . S
H1971 C1977 0.950 . S
H1972 C1978 0.949 . S
C1973 H1968 0.950 . S
C1973 C1975 1.327 . S
C1973 C1979 1.429 . S
C1974 C1966 1.574 . S
C1974 H1969 0.949 . S
C1974 C1980 1.368 . S
C1975 C1959 1.349 . S
C1975 H1967 0.950 . S
C1975 C1973 1.327 . S
C1976 C1964 1.349 . S
C1976 H1970 0.950 . S
C1976 C1977 1.327 . S
C1977 H1971 0.950 . S
C1977 C1976 1.327 . S
C1977 C1981 1.429 . S
C1978 C1961 1.574 . S
C1978 H1972 0.949 . S
C1978 C1982 1.368 . S
C1979 C1960 1.429 . S
C1979 C1973 1.429 . S
C1979 C1980 1.523 . S
C1980 C1961 1.368 . S
C1980 C1974 1.368 . S
C1980 C1979 1.523 . S
C1981 C1965 1.429 . S
C1981 C1977 1.429 . S
C1981 C1982 1.523 . S
C1982 C1966 1.368 . S
C1982 C1978 1.368 . S
C1982 C1981 1.523 . S
H1983 C1958 0.950 . S
H1984 C1960 0.950 . S
H1985 C1961 0.949 . S
H1986 C1963 0.950 . S
H1987 C1965 0.950 . S
C1988 C1989 1.349 . S
C1988 C1990 1.327 . S
C1988 H2013 0.950 . S
C1989 C1988 1.349 . S
C1989 C2005 1.349 . S
C1990 C1988 1.327 . S
C1990 C2009 1.429 . S
C1990 H2014 0.949 . S
C1991 C2008 1.574 . S
C1991 C2010 1.368 . S
C1991 H2015 0.949 . S
H1992 C1996 0.912 1_554 S
C1993 C1994 1.349 . S
C1993 C1995 1.327 . S
C1993 H2016 0.950 . S
C1994 C1993 1.349 . S
C1994 C2006 1.349 1_556 S
C1995 C1993 1.327 . S
C1995 C2011 1.429 . S
C1995 H2017 0.950 . S
C1996 H1992 0.912 1_556 S
C1996 C2004 1.582 . S
C1996 C2012 1.404 . S
H1997 C2005 0.950 . S
H1998 C2003 0.950 . S
H1999 C2004 0.949 1_554 S
H2000 C2006 0.950 . S
H2001 C2007 0.950 . S
H2002 C2008 0.949 . S
C2003 H1998 0.950 . S
C2003 C2005 1.327 . S
C2003 C2009 1.429 . S
C2004 C1996 1.582 . S
C2004 H1999 0.949 1_556 S
C2004 C2010 1.368 . S
C2005 C1989 1.349 . S
C2005 H1997 0.950 . S
C2005 C2003 1.327 . S
C2006 C1994 1.349 1_554 S
C2006 H2000 0.950 . S
C2006 C2007 1.327 . S
C2007 H2001 0.950 . S
C2007 C2006 1.327 . S
C2007 C2011 1.429 1_554 S
C2008 C1991 1.574 . S
C2008 H2002 0.949 . S
C2008 C2012 1.368 . S
C2009 C1990 1.429 . S
C2009 C2003 1.429 . S
C2009 C2010 1.523 . S
C2010 C1991 1.368 . S
C2010 C2004 1.368 . S
C2010 C2009 1.523 . S
C2011 C1995 1.429 . S
C2011 C2007 1.429 1_556 S
C2011 C2012 1.523 . S
C2012 C1996 1.404 . S
C2012 C2008 1.368 . S
C2012 C2011 1.523 . S
H2013 C1988 0.950 . S
H2014 C1990 0.949 . S
H2015 C1991 0.949 . S
H2016 C1993 0.950 . S
H2017 C1995 0.950 . S
C2018 C2019 1.349 . S
C2018 C2020 1.327 . S
C2018 H2043 0.950 . S
C2019 C2018 1.349 . S
C2019 C2035 1.349 . S
C2020 C2018 1.327 . S
C2020 C2039 1.429 . S
C2020 H2044 0.950 . S
C2021 C2038 1.574 . S
C2021 C2040 1.368 . S
C2021 H2045 0.949 . S
H2022 C2026 0.949 . S
C2023 C2024 1.349 . S
C2023 C2025 1.327 . S
C2023 H2046 0.950 . S
C2024 C2023 1.349 . S
C2024 C2036 1.349 . S
C2025 C2023 1.327 . S
C2025 C2041 1.429 . S
C2025 H2047 0.950 . S
C2026 H2022 0.949 . S
C2026 C2034 1.574 . S
C2026 C2042 1.368 . S
H2027 C2035 0.950 . S
H2028 C2033 0.950 . S
H2029 C2034 0.949 . S
H2030 C2036 0.950 . S
H2031 C2037 0.950 . S
H2032 C2038 0.949 . S
C2033 H2028 0.950 . S
C2033 C2035 1.327 . S
C2033 C2039 1.429 . S
C2034 C2026 1.574 . S
C2034 H2029 0.949 . S
C2034 C2040 1.368 . S
C2035 C2019 1.349 . S
C2035 H2027 0.950 . S
C2035 C2033 1.327 . S
C2036 C2024 1.349 . S
C2036 H2030 0.950 . S
C2036 C2037 1.327 . S
C2037 H2031 0.950 . S
C2037 C2036 1.327 . S
C2037 C2041 1.429 . S
C2038 C2021 1.574 . S
C2038 H2032 0.949 . S
C2038 C2042 1.368 . S
C2039 C2020 1.429 . S
C2039 C2033 1.429 . S
C2039 C2040 1.523 . S
C2040 C2021 1.368 . S
C2040 C2034 1.368 . S
C2040 C2039 1.523 . S
C2041 C2025 1.429 . S
C2041 C2037 1.429 . S
C2041 C2042 1.523 . S
C2042 C2026 1.368 . S
C2042 C2038 1.368 . S
C2042 C2041 1.523 . S
H2043 C2018 0.950 . S
H2044 C2020 0.950 . S
H2045 C2021 0.949 . S
H2046 C2023 0.950 . S
H2047 C2025 0.950 . S
C2048 C2049 1.349 . S
C2048 C2050 1.327 . S
C2048 H2073 0.950 . S
C2049 C2048 1.349 . S
C2049 C2065 1.349 . S
C2050 C2048 1.327 . S
C2050 C2069 1.429 . S
C2050 H2074 0.950 . S
C2051 C2068 1.574 . S
C2051 C2070 1.368 . S
C2051 H2075 0.949 . S
H2052 C2056 0.949 1_556 S
C2053 C2054 1.349 . S
C2053 C2055 1.327 . S
C2053 H2076 0.950 . S
C2054 C2053 1.349 . S
C2054 C2066 1.349 1_554 S
C2055 C2053 1.327 . S
C2055 C2071 1.429 . S
C2055 H2077 0.950 . S
C2056 H2052 0.949 1_554 S
C2056 C2064 1.574 . S
C2056 C2072 1.368 . S
H2057 C2065 0.950 . S
H2058 C2063 0.950 . S
H2059 C2064 0.949 1_556 S
H2060 C2066 0.950 . S
H2061 C2067 0.974 . S
H2062 C2068 0.949 . S
C2063 H2058 0.950 . S
C2063 C2065 1.327 . S
C2063 C2069 1.429 . S
C2064 C2056 1.574 . S
C2064 H2059 0.949 1_554 S
C2064 C2070 1.368 . S
C2065 C2049 1.349 . S
C2065 H2057 0.950 . S
C2065 C2063 1.327 . S
C2066 C2054 1.349 1_556 S
C2066 H2060 0.950 . S
C2066 C2067 1.331 . S
C2067 H2061 0.974 . S
C2067 C2066 1.331 . S
C2067 C2071 1.402 1_556 S
C2068 C2051 1.574 . S
C2068 H2062 0.949 . S
C2068 C2072 1.368 . S
C2069 C2050 1.429 . S
C2069 C2063 1.429 . S
C2069 C2070 1.523 . S
C2070 C2051 1.368 . S
C2070 C2064 1.368 . S
C2070 C2069 1.523 . S
C2071 C2055 1.429 . S
C2071 C2067 1.402 1_554 S
C2071 C2072 1.523 . S
C2072 C2056 1.368 . S
C2072 C2068 1.368 . S
C2072 C2071 1.523 . S
H2073 C2048 0.950 . S
H2074 C2050 0.950 . S
H2075 C2051 0.949 . S
H2076 C2053 0.950 . S
H2077 C2055 0.950 . S
C2078 C2079 1.349 . S
C2078 C2080 1.327 1_545 S
C2078 H2103 0.950 . S
C2079 C2078 1.349 . S
C2079 C2095 1.349 1_545 S
C2080 C2078 1.327 1_565 S
C2080 C2099 1.429 . S
C2080 H2104 0.950 . S
C2081 C2098 1.574 . S
C2081 C2100 1.368 . S
C2081 H2105 0.949 . S
H2082 C2086 0.949 . S
C2083 C2084 1.349 . S
C2083 C2085 1.327 . S
C2083 H2106 0.950 . S
C2084 C2083 1.349 . S
C2084 C2096 1.349 . S
C2085 C2083 1.327 . S
C2085 C2101 1.429 . S
C2085 H2107 0.950 . S
C2086 H2082 0.949 . S
C2086 C2094 1.574 . S
C2086 C2102 1.368 . S
H2087 C2095 0.950 . S
H2088 C2093 0.950 . S
H2089 C2094 0.949 . S
H2090 C2096 0.934 1_556 S
H2091 C2097 0.950 . S
H2092 C2098 0.949 . S
C2093 H2088 0.950 . S
C2093 C2095 1.327 . S
C2093 C2099 1.429 . S
C2094 C2086 1.574 . S
C2094 H2089 0.949 . S
C2094 C2100 1.368 . S
C2095 C2079 1.349 1_565 S
C2095 H2087 0.950 . S
C2095 C2093 1.327 . S
C2096 C2084 1.349 . S
C2096 H2090 0.934 1_554 S
C2096 C2097 1.327 . S
C2097 H2091 0.950 . S
C2097 C2096 1.327 . S
C2097 C2101 1.429 . S
C2098 C2081 1.574 . S
C2098 H2092 0.949 . S
C2098 C2102 1.368 . S
C2099 C2080 1.429 . S
C2099 C2093 1.429 . S
C2099 C2100 1.523 . S
C2100 C2081 1.368 . S
C2100 C2094 1.368 . S
C2100 C2099 1.523 . S
C2101 C2085 1.429 . S
C2101 C2097 1.429 . S
C2101 C2102 1.523 . S
C2102 C2086 1.368 . S
C2102 C2098 1.368 . S
C2102 C2101 1.523 . S
H2103 C2078 0.950 . S
H2104 C2080 0.950 . S
H2105 C2081 0.949 . S
H2106 C2083 0.950 . S
H2107 C2085 0.950 . S
C674 C522 1.369 . S
C669 C177 1.347 . S
C704 C535 1.633 . S
C699 C209 1.625 1_455 S
C729 C253 1.368 . S
C734 C548 1.388 . S
C764 C561 1.546 . S
C759 C157 1.521 1_655 S
C794 C569 1.478 . S
C789 C343 1.486 . S
C824 C582 1.398 . S
C819 C401 1.392 . S
C849 C369 1.522 . S
C854 C595 1.519 . S
C884 C608 1.508 . S
C879 C317 1.489 . S
C909 C375 1.424 . S
C914 C626 1.435 . S
C944 C637 1.562 . S
C939 C305 1.575 . S
C969 C349 1.462 . S
C974 C621 1.460 . S
C1004 C629 1.466 . S
C999 C413 1.458 . S
C1029 C241 1.445 . S
C1034 C652 1.460 . S
C1059 C151 1.459 . S
C1064 C642 1.459 . S
C1089 C189 1.477 . S
C1094 C647 1.491 . S
C1119 C215 1.554 . S
C1124 C650 1.545 . S
C1149 C113 1.414 . S
C1154 C559 1.405 . S
C1179 C471 1.367 . S
C1184 C551 1.380 . S
C1214 C520 1.565 . S
C1209 C509 1.564 1_565 S
C1244 C525 1.489 . S
C1239 C279 1.482 . S
C1269 C145 1.474 . S
C1274 C572 1.476 . S
C1304 C611 1.561 . S
C1299 C381 1.555 . S
C1334 C564 1.505 . S
C1329 C311 1.513 . S
C1364 C590 1.441 . S
C1359 C407 1.438 . S
C1394 C600 1.369 . S
C1389 C465 1.347 . S
C1419 C497 1.625 . S
C1424 C613 1.632 . S
C1449 C285 1.368 . S
C1454 C574 1.388 . S
C1484 C587 1.546 . S
C1479 C445 1.521 . S
C1509 C119 1.486 . S
C1514 C543 1.478 . S
C1544 C556 1.398 . S
C1539 C17 1.392 1_655 S
C1574 C517 1.519 . S
C1569 C49 1.522 . S
C1604 C530 1.497 . S
C1599 C93 1.492 . S
C1629 C55 1.424 . S
C1634 C639 1.435 . S
C1659 C81 1.575 1_556 S
C1664 C624 1.562 1_655 S
C1689 C125 1.462 . S
C1694 C634 1.460 . S
C1719 C29 1.458 . S
C1724 C616 1.465 . S
C1754 C665 1.460 . S
C1749 C273 1.445 . S
C1784 C655 1.459 . S
C1779 C439 1.459 1_554 S
C1814 C660 1.491 . S
C1809 C477 1.477 . S
C1839 C503 1.554 . S
C1844 C663 1.545 . S
C1869 C337 1.414 . S
C1874 C585 1.405 . S
C1904 C577 1.380 . S
C1899 C183 1.367 . S
C1934 C598 1.565 . S
C1929 C221 1.564 . S
C1964 C603 1.489 . S
C1959 C247 1.485 . S
C1989 C433 1.474 . S
C1994 C546 1.476 1_556 S
C2024 C533 1.562 . S
C2019 C61 1.558 . S
C2049 C87 1.513 . S
C2054 C538 1.505 . S
C2084 C512 1.441 . S
C2079 C23 1.438 . S
