# Generated by pormake.
# Topology pyr, (3,6)-cn, num edge types: 1
# Building blocks:
#     Node 0, Type 0, BuildingBlock: QEWDON_clean_linker_0, # of connection points: 3
#     Node 1, Type 0, BuildingBlock: QEWDON_clean_linker_0, # of connection points: 3
#     Node 2, Type 0, BuildingBlock: QEWDON_clean_linker_0, # of connection points: 3
#     Node 3, Type 0, BuildingBlock: QEWDON_clean_linker_0, # of connection points: 3
#     Node 4, Type 0, BuildingBlock: QEWDON_clean_linker_0, # of connection points: 3
#     Node 5, Type 0, BuildingBlock: QEWDON_clean_linker_0, # of connection points: 3
#     Node 6, Type 0, BuildingBlock: QEWDON_clean_linker_0, # of connection points: 3
#     Node 7, Type 0, BuildingBlock: QEWDON_clean_linker_0, # of connection points: 3
#     Node 8, Type 1, BuildingBlock: PAMTUU_clean_sbu_0, # of connection points: 6
#     Node 9, Type 1, BuildingBlock: PAMTUU_clean_sbu_0, # of connection points: 6
#     Node 10, Type 1, BuildingBlock: PAMTUU_clean_sbu_0, # of connection points: 6
#     Node 11, Type 1, BuildingBlock: PAMTUU_clean_sbu_0, # of connection points: 6
#     Edge 12, Type (0, 1), BuildingBlock: MIFKUJ_clean_linker_0, # of connection points: 2
#     Edge 13, Type (0, 1), BuildingBlock: MIFKUJ_clean_linker_0, # of connection points: 2
#     Edge 14, Type (0, 1), BuildingBlock: MIFKUJ_clean_linker_0, # of connection points: 2
#     Edge 15, Type (0, 1), BuildingBlock: MIFKUJ_clean_linker_0, # of connection points: 2
#     Edge 16, Type (0, 1), BuildingBlock: MIFKUJ_clean_linker_0, # of connection points: 2
#     Edge 17, Type (0, 1), BuildingBlock: MIFKUJ_clean_linker_0, # of connection points: 2
#     Edge 18, Type (0, 1), BuildingBlock: MIFKUJ_clean_linker_0, # of connection points: 2
#     Edge 19, Type (0, 1), BuildingBlock: MIFKUJ_clean_linker_0, # of connection points: 2
#     Edge 20, Type (0, 1), BuildingBlock: MIFKUJ_clean_linker_0, # of connection points: 2
#     Edge 21, Type (0, 1), BuildingBlock: MIFKUJ_clean_linker_0, # of connection points: 2
#     Edge 22, Type (0, 1), BuildingBlock: MIFKUJ_clean_linker_0, # of connection points: 2
#     Edge 23, Type (0, 1), BuildingBlock: MIFKUJ_clean_linker_0, # of connection points: 2
#     Edge 24, Type (0, 1), BuildingBlock: MIFKUJ_clean_linker_0, # of connection points: 2
#     Edge 25, Type (0, 1), BuildingBlock: MIFKUJ_clean_linker_0, # of connection points: 2
#     Edge 26, Type (0, 1), BuildingBlock: MIFKUJ_clean_linker_0, # of connection points: 2
#     Edge 27, Type (0, 1), BuildingBlock: MIFKUJ_clean_linker_0, # of connection points: 2
#     Edge 28, Type (0, 1), BuildingBlock: MIFKUJ_clean_linker_0, # of connection points: 2
#     Edge 29, Type (0, 1), BuildingBlock: MIFKUJ_clean_linker_0, # of connection points: 2
#     Edge 30, Type (0, 1), BuildingBlock: MIFKUJ_clean_linker_0, # of connection points: 2
#     Edge 31, Type (0, 1), BuildingBlock: MIFKUJ_clean_linker_0, # of connection points: 2
#     Edge 32, Type (0, 1), BuildingBlock: MIFKUJ_clean_linker_0, # of connection points: 2
#     Edge 33, Type (0, 1), BuildingBlock: MIFKUJ_clean_linker_0, # of connection points: 2
#     Edge 34, Type (0, 1), BuildingBlock: MIFKUJ_clean_linker_0, # of connection points: 2
#     Edge 35, Type (0, 1), BuildingBlock: MIFKUJ_clean_linker_0, # of connection points: 2
# Relax obj value: 0.129
# Max RMSD: 0.247
# Mean RMSD: 0.188
data_MOF--net-pyr--node1-PAMTUU_clean_sbu_0--node2-QEWDON_clean_linker_0--edge1-MIFKUJ_clean_linker_0
_symmetry_space_group_name_H-M    P1
_symmetry_Int_Tables_number       1
_symmetry_cell_setting            triclinic
loop_
_symmetry_equiv_pos_as_xyz
'x, y, z'
_cell_length_a     49.852408
_cell_length_b     51.075617
_cell_length_c     52.4792
_cell_angle_alpha  90.102374
_cell_angle_beta   89.40319
_cell_angle_gamma 108.35628
loop_
_atom_site_label
_atom_site_type_symbol
_atom_site_fract_x
_atom_site_fract_y
_atom_site_fract_z
_atom_type_partial_charge
H0 H 0.36092 0.29161 0.17633 0.0
C1 C 0.34388 0.28266 0.1898 0.0
C2 C 0.34007 0.25612 0.19943 0.0
C3 C 0.32528 0.29726 0.19677 0.0
H4 H 0.31513 0.22396 0.22424 0.0
C5 C 0.31754 0.24416 0.21629 0.0
C6 C 0.29887 0.25847 0.22372 0.0
C7 C 0.30287 0.285 0.2138 0.0
C8 C 0.32922 0.32527 0.18626 0.0
H9 H 0.28858 0.29618 0.21947 0.0
C10 C 0.30574 0.33311 0.17895 0.0
C11 C 0.30928 0.35962 0.16914 0.0
C12 C 0.35646 0.34437 0.18351 0.0
H13 H 0.37494 0.33916 0.18931 0.0
C14 C 0.36011 0.37063 0.17364 0.0
H15 H 0.28469 0.31837 0.18037 0.0
C16 C 0.33674 0.37827 0.16649 0.0
H17 H 0.34012 0.39894 0.15929 0.0
H18 H 0.38116 0.38522 0.17172 0.0
H19 H 0.21629 0.85066 0.75048 0.0
C20 C 0.22959 0.84092 0.74025 0.0
C21 C 0.2573 0.84469 0.74848 0.0
C22 C 0.21879 0.82418 0.71907 0.0
H23 H 0.29531 0.83402 0.74159 0.0
C24 C 0.27423 0.83196 0.73493 0.0
C25 C 0.26388 0.81549 0.71356 0.0
C26 C 0.23597 0.81141 0.7059 0.0
C27 C 0.18934 0.81956 0.7109 0.0
H28 H 0.22776 0.79871 0.68941 0.0
C29 C 0.17969 0.84199 0.70543 0.0
C30 C 0.15182 0.83754 0.69716 0.0
C31 C 0.17085 0.79257 0.70827 0.0
H32 H 0.17785 0.775 0.71243 0.0
C33 C 0.14307 0.78804 0.70051 0.0
H34 H 0.19398 0.86284 0.70734 0.0
C35 C 0.13356 0.81033 0.69497 0.0
H36 H 0.11211 0.80624 0.6884 0.0
H37 H 0.12891 0.76718 0.69858 0.0
H38 H 0.69724 0.45698 0.89224 0.0
C39 C 0.68859 0.43523 0.89684 0.0
C40 C 0.7031 0.42316 0.91382 0.0
C41 C 0.66168 0.42002 0.88771 0.0
H42 H 0.70149 0.38632 0.93434 0.0
C43 C 0.69057 0.39535 0.92093 0.0
C44 C 0.6638 0.37951 0.91199 0.0
C45 C 0.64966 0.3922 0.8952 0.0
C46 C 0.6432 0.43462 0.87602 0.0
H47 H 0.62873 0.38085 0.88854 0.0
C48 C 0.64593 0.44405 0.85036 0.0
C49 C 0.62769 0.45822 0.84095 0.0
C50 C 0.62217 0.4393 0.89167 0.0
H51 H 0.61966 0.4323 0.9113 0.0
C52 C 0.60437 0.45324 0.88243 0.0
H53 H 0.66199 0.44051 0.83801 0.0
C54 C 0.60713 0.46269 0.85738 0.0
H55 H 0.59291 0.47338 0.85066 0.0
H56 H 0.58833 0.45677 0.89479 0.0
H57 H 0.89473 0.77044 0.35993 0.0
C58 C 0.87789 0.75661 0.37125 0.0
C59 C 0.87441 0.76277 0.39712 0.0
C60 C 0.85863 0.73354 0.35946 0.0
H61 H 0.84769 0.7502 0.43058 0.0
C62 C 0.85148 0.74519 0.41106 0.0
C63 C 0.83203 0.7223 0.39954 0.0
C64 C 0.83575 0.71653 0.37382 0.0
C65 C 0.85802 0.73112 0.33122 0.0
H66 H 0.81989 0.69975 0.36454 0.0
C67 C 0.87576 0.71938 0.31705 0.0
C68 C 0.87378 0.71759 0.29008 0.0
C69 C 0.83844 0.74072 0.31832 0.0
H70 H 0.82464 0.74969 0.3288 0.0
C71 C 0.83634 0.73885 0.29194 0.0
H72 H 0.89091 0.71189 0.32687 0.0
C73 C 0.85373 0.72739 0.27795 0.0
H74 H 0.85115 0.72586 0.25747 0.0
H75 H 0.82103 0.74622 0.28226 0.0
H76 H 0.73512 0.79678 0.93671 0.0
C77 C 0.74492 0.81092 0.92142 0.0
C78 C 0.77371 0.81628 0.91569 0.0
C79 C 0.72888 0.8243 0.90784 0.0
H80 H 0.80793 0.83742 0.89045 0.0
C81 C 0.78607 0.83441 0.89569 0.0
C82 C 0.77019 0.84753 0.8816 0.0
C83 C 0.74163 0.84269 0.88811 0.0
C84 C 0.69857 0.81862 0.91378 0.0
H85 H 0.72911 0.85282 0.87755 0.0
C86 C 0.68822 0.8402 0.92089 0.0
C87 C 0.65918 0.83513 0.92593 0.0
C88 C 0.67986 0.7917 0.91189 0.0
H89 H 0.68749 0.77483 0.90639 0.0
C90 C 0.65104 0.7865 0.91647 0.0
H91 H 0.70304 0.86075 0.92307 0.0
C92 C 0.6407 0.80799 0.92328 0.0
H93 H 0.61816 0.8033 0.92627 0.0
H94 H 0.63662 0.76574 0.91459 0.0
H95 H 0.83582 0.26971 0.45475 0.0
C96 C 0.82466 0.26576 0.43682 0.0
C97 C 0.83192 0.24881 0.41877 0.0
C98 C 0.80294 0.27716 0.43225 0.0
H99 H 0.82304 0.23033 0.38172 0.0
C100 C 0.81811 0.24423 0.39526 0.0
C101 C 0.79674 0.256 0.38987 0.0
C102 C 0.78941 0.27254 0.40851 0.0
C103 C 0.7933 0.29216 0.45302 0.0
H104 H 0.77263 0.28122 0.4048 0.0
C105 C 0.78414 0.31507 0.44784 0.0
C106 C 0.77483 0.32872 0.46775 0.0
C107 C 0.79264 0.28302 0.47842 0.0
H108 H 0.7986 0.26499 0.48311 0.0
C109 C 0.78366 0.29664 0.49814 0.0
H110 H 0.78459 0.32254 0.42849 0.0
C111 C 0.77482 0.31931 0.49291 0.0
H112 H 0.76724 0.32906 0.50854 0.0
H113 H 0.78317 0.28932 0.51754 0.0
H114 H 0.4088 0.75491 0.24488 0.0
C115 C 0.38784 0.74484 0.23752 0.0
C116 C 0.37556 0.7591 0.22041 0.0
C117 C 0.37381 0.71701 0.244 0.0
H118 H 0.33982 0.75505 0.19595 0.0
C119 C 0.34904 0.74489 0.20991 0.0
C120 C 0.33472 0.71726 0.21612 0.0
C121 C 0.34702 0.70363 0.23349 0.0
C122 C 0.38948 0.69985 0.25613 0.0
H123 H 0.3367 0.68191 0.23742 0.0
C124 C 0.3972 0.70175 0.28224 0.0
C125 C 0.41203 0.68442 0.2922 0.0
C126 C 0.39657 0.68061 0.24051 0.0
H127 H 0.39094 0.67878 0.22054 0.0
C128 C 0.41096 0.66361 0.25026 0.0
H129 H 0.39181 0.71643 0.29454 0.0
C130 C 0.41859 0.66543 0.27578 0.0
H131 H 0.42944 0.65159 0.28281 0.0
H132 H 0.41617 0.64883 0.23796 0.0
H133 H 0.21517 0.43361 0.75372 0.0
C134 C 0.20172 0.41662 0.74273 0.0
C135 C 0.21007 0.4116 0.71787 0.0
C136 C 0.1775 0.39814 0.75439 0.0
H137 H 0.19901 0.38475 0.68522 0.0
C138 C 0.19312 0.38847 0.7045 0.0
C139 C 0.16919 0.36953 0.71583 0.0
C140 C 0.16132 0.37478 0.74067 0.0
C141 C 0.17268 0.39934 0.78241 0.0
H142 H 0.1436 0.35976 0.75002 0.0
C143 C 0.16546 0.42113 0.79449 0.0
C144 C 0.16155 0.42097 0.82136 0.0
C145 C 0.17579 0.37772 0.79736 0.0
H146 H 0.18142 0.36091 0.78862 0.0
C147 C 0.17201 0.37757 0.82367 0.0
H148 H 0.16294 0.43791 0.78319 0.0
C149 C 0.16498 0.39893 0.83557 0.0
H150 H 0.16181 0.39799 0.85605 0.0
H151 H 0.17449 0.36075 0.83491 0.0
Tb152 Tb 0.0522 0.07719 0.53441 0.0
Tb153 Tb 0.99527 0.05958 0.57073 0.0
C154 C 1.00399 0.02142 0.52729 0.0
C155 C 0.10483 0.10474 0.48131 0.0
C156 C 0.12344 0.12997 0.43381 0.0
C157 C 0.0994 0.10643 0.43538 0.0
C158 C 0.09004 0.09397 0.459 0.0
C159 C 0.12883 0.12812 0.47968 0.0
C160 C 0.138 0.14065 0.45622 0.0
C161 C 0.09606 0.09229 0.50658 0.0
O162 O 0.02641 0.1009 0.51971 0.0
O163 O 0.98307 0.07486 0.53562 0.0
O164 O 0.01665 0.10359 0.57556 0.0
O165 O 0.06112 0.10173 0.56919 0.0
O166 O 0.95197 0.03806 0.57554 0.0
O167 O 0.97575 0.06478 0.60502 0.0
O168 O 0.02614 0.04723 0.59252 0.0
O169 O 0.05896 0.04752 0.56106 0.0
O170 O 0.02006 0.04362 0.51548 0.0
O171 O 0.99717 0.02237 0.55144 0.0
C172 C 0.99872 0.09412 0.52036 0.0
O173 O 0.08928 0.10809 0.52325 0.0
O174 O 0.07895 0.06703 0.50758 0.0
C175 C 0.04398 0.11419 0.57877 0.0
C176 C 0.93738 0.02688 0.61818 0.0
C177 C 0.91039 0.99155 0.6583 0.0
C178 C 0.89575 1.00612 0.64434 0.0
C179 C 0.90917 0.02364 0.62448 0.0
C180 C 0.95193 0.01184 0.6315 0.0
C181 C 0.93854 0.99433 0.65148 0.0
C182 C 0.95152 0.04721 0.59869 0.0
C183 C 0.04822 0.04085 0.58403 0.0
H184 H 0.08776 0.09783 0.41839 0.0
H185 H 0.07136 0.07599 0.45979 0.0
H186 H 0.1406 0.13667 0.49663 0.0
H187 H 0.15688 0.15846 0.45556 0.0
H188 H 0.87421 1.00473 0.64931 0.0
H189 H 0.8977 0.0352 0.61442 0.0
H190 H 0.97375 0.01407 0.62677 0.0
H191 H 0.95025 0.98314 0.6617 0.0
Tb192 Tb 0.55208 0.07437 0.08119 0.0
Tb193 Tb 0.49507 0.05858 0.04539 0.0
C194 C 0.54538 0.03667 0.03306 0.0
C195 C 0.60946 0.10647 0.12845 0.0
C196 C 0.63976 0.14297 0.16642 0.0
C197 C 0.6509 0.14384 0.14158 0.0
C198 C 0.63596 0.12571 0.12284 0.0
C199 C 0.59796 0.10608 0.15308 0.0
C200 C 0.61294 0.12409 0.17182 0.0
C201 C 0.59517 0.08565 0.10921 0.0
O202 O 0.55439 0.11286 0.06218 0.0
O203 O 0.52566 0.09499 0.02821 0.0
O204 O 0.49111 0.09071 0.07043 0.0
O205 O 0.52137 0.08819 0.10265 0.0
O206 O 0.47854 0.05606 1.00868 0.0
O207 O 0.45075 0.04553 0.04155 0.0
O208 O 0.48454 0.03028 0.07783 0.0
O209 O 0.52929 0.03077 0.08793 0.0
O210 O 0.56227 0.0577 0.04546 0.0
O211 O 0.51782 0.0303 0.03487 0.0
C212 C 0.54489 0.11547 0.03937 0.0
O213 O 0.57053 0.06848 0.11546 0.0
O214 O 0.5958 0.09393 0.08565 0.0
C215 C 0.50055 0.09603 0.09372 0.0
C216 C 0.43404 0.02274 1.00272 0.0
C217 C 0.40023 0.98245 0.96973 0.0
C218 C 0.38942 1.00187 0.98141 0.0
C219 C 0.40624 0.02187 0.99771 0.0
C220 C 0.44446 1.00249 0.99224 0.0
C221 C 0.42769 0.98254 0.9758 0.0
C222 C 0.45247 0.04641 0.01675 0.0
C223 C 0.50172 0.01935 0.08944 0.0
H224 H 0.67133 0.15834 0.13666 0.0
H225 H 0.64541 0.12636 0.10407 0.0
H226 H 0.57769 0.09138 0.15816 0.0
H227 H 0.60388 0.12247 0.19082 0.0
H228 H 0.36848 1.00252 0.97693 0.0
H229 H 0.39789 0.03739 1.00558 0.0
H230 H 0.46586 1.00272 0.99601 0.0
H231 H 0.43645 0.96763 0.96732 0.0
Tb232 Tb 0.52194 0.54949 0.55244 0.0
Tb233 Tb 0.52729 0.60726 0.58161 0.0
C234 C 0.50159 0.59588 0.52786 0.0
C235 C 0.54394 0.49988 0.51337 0.0
C236 C 0.58884 0.48478 0.49172 0.0
C237 C 0.56147 0.46562 0.49318 0.0
C238 C 0.53922 0.4731 0.50409 0.0
C239 C 0.57085 0.51942 0.5107 0.0
C240 C 0.59316 0.5119 0.50017 0.0
C241 C 0.52176 0.50667 0.52799 0.0
O242 O 0.56662 0.57325 0.55101 0.0
O243 O 0.56224 0.61637 0.55407 0.0
O244 O 0.55317 0.58745 0.60298 0.0
O245 O 0.52849 0.54299 0.59268 0.0
O246 O 0.53453 0.64996 0.57945 0.0
O247 O 0.52742 0.62896 0.61569 0.0
O248 O 0.48832 0.57819 0.59647 0.0
O249 O 0.47916 0.54299 0.56694 0.0
O250 O 0.517 0.57946 0.52449 0.0
O251 O 0.49713 0.60364 0.55092 0.0
C252 C 0.57666 0.59993 0.54713 0.0
O253 O 0.52652 0.51004 0.55227 0.0
O254 O 0.51298 0.52608 0.51869 0.0
C255 C 0.54596 0.56081 0.60775 0.0
C256 C 0.50784 0.66464 0.61014 0.0
C257 C 0.46573 0.68848 0.62333 0.0
C258 C 0.49284 0.69835 0.63406 0.0
C259 C 0.51372 0.68652 0.62749 0.0
C260 C 0.48087 0.65465 0.5994 0.0
C261 C 0.46003 0.66652 0.60586 0.0
C262 C 0.52958 0.65185 0.6037 0.0
C263 C 0.47152 0.55525 0.58656 0.0
H264 H 0.55757 0.44449 0.48709 0.0
H265 H 0.5186 0.45772 0.50611 0.0
H266 H 0.57486 0.54025 0.51756 0.0
H267 H 0.61395 0.52713 0.49926 0.0
H268 H 0.49781 0.71494 0.64786 0.0
H269 H 0.53438 0.69431 0.63609 0.0
H270 H 0.47594 0.63765 0.58602 0.0
H271 H 0.43954 0.65864 0.59698 0.0
Tb272 Tb 0.02892 0.60118 0.04124 0.0
Tb273 Tb 0.01915 0.54314 0.07167 0.0
C274 C 0.05085 0.55505 0.01817 0.0
C275 C 0.01262 0.65928 0.01189 0.0
C276 C 0.97191 0.68479 0.99963 0.0
C277 C 0.9997 0.69519 0.98991 0.0
C278 C 0.0199 0.6825 0.99602 0.0
C279 C 0.98498 0.64879 0.0216 0.0
C280 C 0.96481 0.66147 0.01559 0.0
C281 C 0.03363 0.64574 0.01814 0.0
O282 O 0.99174 0.57149 0.0246 0.0
O283 O 0.97732 0.54058 0.05752 0.0
O284 O 0.0082 0.57087 0.09872 0.0
O285 O 0.99738 0.60019 0.07059 0.0
O286 O 0.00654 0.49977 0.07175 0.0
O287 O 0.02216 0.52292 0.10577 0.0
O288 O 0.06411 0.56585 0.0748 0.0
O289 O 0.06137 0.60944 0.07039 0.0
O290 O 0.05668 0.58173 0.02189 0.0
O291 O 0.03301 0.537 0.03313 0.0
C292 C 0.97231 0.55109 0.03588 0.0
O293 O 0.03844 0.64422 0.04234 0.0
O294 O 0.03045 0.62234 1.00668 0.0
C295 C 0.99687 0.59031 0.09376 0.0
C296 C 0.0363 0.48423 0.09799 0.0
C297 C 0.07846 0.45964 0.10736 0.0
C298 C 0.05154 0.44901 0.11879 0.0
C299 C 0.03063 0.46134 0.11421 0.0
C300 C 0.06281 0.49433 0.08593 0.0
C301 C 0.08372 0.48217 0.0906 0.0
C302 C 0.01549 0.49885 0.09486 0.0
C303 C 0.07464 0.59257 0.07842 0.0
H304 H 1.00574 0.71288 0.97729 0.0
H305 H 0.04114 0.69073 0.98828 0.0
H306 H 0.97901 0.63079 0.03387 0.0
H307 H 0.94375 0.65316 0.02367 0.0
H308 H 0.04697 0.43179 0.13192 0.0
H309 H 0.01029 0.45341 0.12375 0.0
H310 H 0.06752 0.51199 0.0733 0.0
H311 H 0.10411 0.49055 0.08126 0.0
H312 H 0.26442 0.20479 0.22653 0.0
H313 H 0.22953 0.18366 0.25963 0.0
H314 H 0.24569 0.26286 0.29604 0.0
H315 H 0.2815 0.28389 0.26369 0.0
H316 H 0.24717 0.22518 0.32951 0.0
H317 H 0.18344 0.23124 0.26376 0.0
H318 H 0.16282 0.22441 0.22081 0.0
H319 H 0.14108 0.13661 0.22972 0.0
H320 H 0.16193 0.14292 0.27261 0.0
H321 H 0.14073 0.18483 0.42237 0.0
H322 H 0.16491 0.207 0.38359 0.0
H323 H 0.15494 0.12717 0.35048 0.0
H324 H 0.13058 0.1048 0.38931 0.0
H325 H 0.14876 0.16532 0.31483 0.0
H326 H 0.21466 0.15957 0.37932 0.0
H327 H 0.23506 0.16621 0.42237 0.0
H328 H 0.2529 0.25381 0.4153 0.0
H329 H 0.23218 0.24764 0.37233 0.0
C330 C 0.26056 0.21771 0.24159 0.0
C331 C 0.27586 0.24602 0.24251 0.0
C332 C 0.24034 0.20566 0.26033 0.0
C333 C 0.23479 0.22172 0.2802 0.0
C334 C 0.24956 0.25008 0.28083 0.0
C335 C 0.26987 0.26212 0.26219 0.0
C336 C 0.21513 0.20866 0.30133 0.0
C337 C 0.2255 0.21252 0.32627 0.0
C338 C 0.1871 0.19144 0.29709 0.0
C339 C 0.17449 0.18757 0.27132 0.0
C340 C 0.17447 0.21048 0.25649 0.0
C341 C 0.1627 0.2067 0.23216 0.0
C342 C 0.15071 0.1801 0.22252 0.0
C343 C 0.1504 0.15721 0.2372 0.0
C344 C 0.16217 0.16088 0.26153 0.0
C345 C 0.14342 0.172 0.40671 0.0
C346 C 0.13417 0.14311 0.40898 0.0
C347 C 0.15715 0.18468 0.38457 0.0
C348 C 0.16214 0.16871 0.36438 0.0
C349 C 0.15133 0.13984 0.36589 0.0
C350 C 0.13742 0.1271 0.38805 0.0
C351 C 0.18082 0.18217 0.34284 0.0
C352 C 0.17037 0.17822 0.31793 0.0
C353 C 0.20884 0.19934 0.34702 0.0
C354 C 0.22162 0.20312 0.37272 0.0
C355 C 0.22275 0.18023 0.38702 0.0
C356 C 0.23439 0.18391 0.4114 0.0
C357 C 0.24521 0.21041 0.42159 0.0
C358 C 0.24448 0.23329 0.40739 0.0
C359 C 0.2328 0.22972 0.38302 0.0
H360 H 0.25421 0.21321 0.44046 0.0
H361 H 0.1416 0.17721 0.20368 0.0
H362 H 0.31 0.8813 0.7556 0.0
H363 H 0.33066 0.90245 0.79556 0.0
H364 H 0.25085 0.86601 0.83421 0.0
H365 H 0.23007 0.84412 0.79431 0.0
H366 H 0.28021 0.92216 0.84843 0.0
H367 H 0.29662 0.83483 0.84057 0.0
H368 H 0.31184 0.79944 0.81805 0.0
H369 H 0.39628 0.85566 0.81175 0.0
H370 H 0.38144 0.89158 0.83385 0.0
H371 H 0.34386 0.95255 0.97013 0.0
H372 H 0.31625 0.92639 0.9348 0.0
H373 H 0.39189 0.94547 0.88832 0.0
H374 H 0.41953 0.97125 0.92354 0.0
H375 H 0.36048 0.89412 0.88045 0.0
H376 H 0.34436 0.98235 0.8841 0.0
H377 H 0.33002 0.01948 0.90449 0.0
H378 H 0.24642 0.96343 0.91711 0.0
H379 H 0.26039 0.92585 0.89709 0.0
C380 C 0.29678 0.87782 0.77257 0.0
C381 C 0.2685 0.8607 0.77186 0.0
C382 C 0.3086 0.89 0.79534 0.0
C383 C 0.29237 0.8854 0.81785 0.0
C384 C 0.2637 0.86969 0.817 0.0
C385 C 0.25185 0.85732 0.79418 0.0
C386 C 0.30597 0.89587 0.84238 0.0
C387 C 0.29743 0.91572 0.85574 0.0
C388 C 0.32872 0.88772 0.85156 0.0
C389 C 0.33786 0.86598 0.8387 0.0
C390 C 0.31839 0.83972 0.83423 0.0
C391 C 0.32695 0.81955 0.82155 0.0
C392 C 0.355 0.82531 0.81343 0.0
C393 C 0.37456 0.85123 0.81804 0.0
C394 C 0.36609 0.8715 0.83066 0.0
C395 C 0.35459 0.95095 0.95242 0.0
C396 C 0.38385 0.96402 0.94958 0.0
C397 C 0.3388 0.93607 0.93224 0.0
C398 C 0.35192 0.93435 0.90876 0.0
C399 C 0.3813 0.94648 0.90625 0.0
C400 C 0.3971 0.96115 0.92645 0.0
C401 C 0.33513 0.92089 0.8864 0.0
C402 C 0.34305 0.90039 0.8734 0.0
C403 C 0.31197 0.92864 0.87745 0.0
C404 C 0.30351 0.95123 0.88937 0.0
C405 C 0.32298 0.9779 0.8914 0.0
C406 C 0.31491 0.99903 0.90286 0.0
C407 C 0.28735 0.9938 0.91216 0.0
C408 C 0.26778 0.96744 0.90995 0.0
C409 C 0.27575 0.94622 0.89854 0.0
H410 H 0.28115 0.01018 0.92103 0.0
H411 H 0.36158 0.80968 0.80359 0.0
H412 H 0.61355 0.42845 0.79678 0.0
H413 H 0.60346 0.44564 0.75543 0.0
H414 H 0.63235 0.52893 0.78419 0.0
H415 H 0.64164 0.51161 0.82553 0.0
H416 H 0.58391 0.52102 0.76328 0.0
H417 H 0.66862 0.50291 0.73599 0.0
H418 H 0.7005 0.47504 0.72948 0.0
H419 H 0.63808 0.41797 0.68344 0.0
H420 H 0.60566 0.44531 0.68995 0.0
H421 H 0.57746 0.59073 0.64709 0.0
H422 H 0.59499 0.57325 0.68479 0.0
H423 H 0.55806 0.48992 0.65803 0.0
H424 H 0.54051 0.50718 0.62033 0.0
H425 H 0.61078 0.49739 0.67709 0.0
H426 H 0.52602 0.51448 0.70497 0.0
H427 H 0.49374 0.54199 0.71115 0.0
H428 H 0.55615 0.60048 0.75607 0.0
H429 H 0.58898 0.57351 0.74988 0.0
C430 C 0.61866 0.45048 0.79391 0.0
C431 C 0.62885 0.46871 0.81428 0.0
C432 C 0.61274 0.46036 0.77027 0.0
C433 C 0.61711 0.48875 0.7664 0.0
C434 C 0.6286 0.50699 0.78648 0.0
C435 C 0.63427 0.49711 0.81007 0.0
C436 C 0.60782 0.49936 0.74238 0.0
C437 C 0.59029 0.51617 0.74449 0.0
C438 C 0.61516 0.49249 0.71761 0.0
C439 C 0.6346 0.47602 0.71368 0.0
C440 C 0.6616 0.4843 0.72465 0.0
C441 C 0.67978 0.46862 0.72093 0.0
C442 C 0.67129 0.44471 0.70612 0.0
C443 C 0.64461 0.43647 0.69494 0.0
C444 C 0.62633 0.45206 0.69862 0.0
C445 C 0.57311 0.56868 0.64914 0.0
C446 C 0.55739 0.55044 0.63057 0.0
C447 C 0.58311 0.55867 0.67082 0.0
C448 C 0.57774 0.53016 0.67451 0.0
C449 C 0.56257 0.51197 0.65574 0.0
C450 C 0.5524 0.52193 0.63417 0.0
C451 C 0.58733 0.51929 0.69816 0.0
C452 C 0.60467 0.50233 0.69594 0.0
C453 C 0.57981 0.52594 0.72287 0.0
C454 C 0.56007 0.54213 0.72674 0.0
C455 C 0.53295 0.53332 0.71601 0.0
C456 C 0.51453 0.54879 0.71954 0.0
C457 C 0.52292 0.573 0.73393 0.0
C458 C 0.5497 0.58175 0.74489 0.0
C459 C 0.56822 0.56637 0.7414 0.0
H460 H 0.50863 0.58495 0.73665 0.0
H461 H 0.6854 0.4326 0.70325 0.0
H462 H 0.88631 0.66905 0.29708 0.0
H463 H 0.90864 0.64595 0.26606 0.0
H464 H 0.92291 0.71499 0.21482 0.0
H465 H 0.90121 0.73813 0.24565 0.0
H466 H 0.89655 0.66624 0.191 0.0
H467 H 0.97725 0.70291 0.24562 0.0
H468 H 1.0025 0.70944 0.28647 0.0
H469 H 0.98697 0.62205 0.29237 0.0
H470 H 0.96129 0.61497 0.25169 0.0
H471 H 0.98165 0.63746 0.09354 0.0
H472 H 0.96248 0.65765 0.12869 0.0
H473 H 0.96315 0.58984 0.17729 0.0
H474 H 0.98342 0.57006 0.14238 0.0
H475 H 0.97967 0.63441 0.20399 0.0
H476 H 0.90112 0.59663 0.14973 0.0
H477 H 0.8752 0.58825 0.10929 0.0
H478 H 0.88352 0.67432 0.10373 0.0
H479 H 0.91012 0.68335 0.14388 0.0
C480 C 0.89485 0.67956 0.27948 0.0
C481 C 0.89167 0.70535 0.27381 0.0
C482 C 0.90748 0.66627 0.26165 0.0
C483 C 0.91725 0.67856 0.23787 0.0
C484 C 0.91527 0.70485 0.23281 0.0
C485 C 0.90286 0.71811 0.25054 0.0
C486 C 0.92828 0.66383 0.21759 0.0
C487 C 0.91492 0.65954 0.19378 0.0
C488 C 0.95162 0.65413 0.22135 0.0
C489 C 0.96708 0.65839 0.24577 0.0
C490 C 0.979 0.68506 0.25574 0.0
C491 C 0.99344 0.68887 0.27884 0.0
C492 C 0.99626 0.66617 0.29205 0.0
C493 C 0.98472 0.63962 0.28215 0.0
C494 C 0.97025 0.6357 0.25906 0.0
C495 C 0.9776 0.6267 0.11165 0.0
C496 C 0.98395 0.60196 0.11497 0.0
C497 C 0.96649 0.63827 0.13181 0.0
C498 C 0.96078 0.62514 0.15575 0.0
C499 C 0.96724 0.60048 0.15913 0.0
C500 C 0.97874 0.58908 0.13904 0.0
C501 C 0.94824 0.63722 0.17715 0.0
C502 C 0.96121 0.64095 0.20118 0.0
C503 C 0.92424 0.64608 0.17372 0.0
C504 C 0.90785 0.6407 0.14973 0.0
C505 C 0.89759 0.61381 0.13981 0.0
C506 C 0.88276 0.60895 0.11691 0.0
C507 C 0.87772 0.63074 0.10389 0.0
C508 C 0.88747 0.65746 0.11379 0.0
C509 C 0.90244 0.66246 0.13663 0.0
H510 H 0.86624 0.62694 0.08615 0.0
H511 H 0.00745 0.66916 0.30993 0.0
H512 H 0.32605 0.20355 0.18169 0.0
H513 H 0.35787 0.17778 0.16928 0.0
H514 H 0.42977 0.24789 0.18829 0.0
H515 H 0.39781 0.2741 0.19988 0.0
H516 H 0.44066 0.2269 0.14628 0.0
H517 H 0.40705 0.18894 0.2272 0.0
H518 H 0.37216 0.16865 0.26115 0.0
H519 H 0.33411 0.09812 0.21409 0.0
H520 H 0.3685 0.11816 0.1797 0.0
H521 H 0.52515 0.13482 0.12974 0.0
H522 H 0.50236 0.16367 0.1538 0.0
H523 H 0.4227 0.12064 0.1189 0.0
H524 H 0.44535 0.09256 0.09438 0.0
H525 H 0.42283 0.13054 0.17568 0.0
H526 H 0.45362 0.17493 0.09285 0.0
H527 H 0.49026 0.19562 0.06038 0.0
H528 H 0.53663 0.25502 0.11496 0.0
H529 H 0.50044 0.23433 0.14789 0.0
C530 C 0.34865 0.21338 0.18331 0.0
C531 C 0.35952 0.24071 0.19185 0.0
C532 C 0.36684 0.19862 0.17637 0.0
C533 C 0.39626 0.21065 0.17841 0.0
C534 C 0.40717 0.23811 0.18668 0.0
C535 C 0.38895 0.25306 0.19326 0.0
C536 C 0.41543 0.19467 0.17112 0.0
C537 C 0.4371 0.20607 0.1532 0.0
C538 C 0.41094 0.16744 0.18009 0.0
C539 C 0.39029 0.15515 0.2008 0.0
C540 C 0.39114 0.16918 0.22402 0.0
C541 C 0.37146 0.15771 0.24336 0.0
C542 C 0.35091 0.13213 0.23976 0.0
C543 C 0.35004 0.11793 0.21685 0.0
C544 C 0.36965 0.12932 0.19744 0.0
C545 C 0.50273 0.1314 0.1275 0.0
C546 C 0.48697 0.11166 0.11016 0.0
C547 C 0.48981 0.14784 0.14116 0.0
C548 C 0.46092 0.14417 0.13803 0.0
C549 C 0.445 0.12366 0.12157 0.0
C550 C 0.45798 0.10777 0.10751 0.0
C551 C 0.44722 0.16261 0.15055 0.0
C552 C 0.42664 0.15163 0.16937 0.0
C553 C 0.45299 0.19031 0.14275 0.0
C554 C 0.47455 0.20286 0.1229 0.0
C555 C 0.47178 0.19222 0.09799 0.0
C556 C 0.49243 0.20398 0.07949 0.0
C557 C 0.51581 0.22656 0.08562 0.0
C558 C 0.51854 0.23748 0.11025 0.0
C559 C 0.49797 0.22575 0.12884 0.0
H560 H 0.53178 0.23564 0.07127 0.0
H561 H 0.33568 0.12329 0.25475 0.0
H562 H 0.17998 0.88244 0.66832 0.0
H563 H 0.16271 0.91957 0.6538 0.0
H564 H 0.08422 0.88292 0.69458 0.0
H565 H 0.10134 0.84552 0.70896 0.0
H566 H 0.07395 0.89645 0.64824 0.0
H567 H 0.13417 0.94289 0.71546 0.0
H568 H 0.17812 0.95897 0.74017 0.0
H569 H 0.22179 1.0048 0.67541 0.0
H570 H 0.17819 0.98868 0.65017 0.0
H571 H 0.02444 0.01034 0.62608 0.0
H572 H 0.04277 0.97863 0.64994 0.0
H573 H 0.11783 1.00131 0.60264 0.0
H574 H 0.09966 0.03292 0.57856 0.0
H575 H 0.12828 0.99591 0.65546 0.0
H576 H 0.0685 0.9462 0.58781 0.0
H577 H 0.0241 0.93118 0.56364 0.0
H578 H 0.97913 0.89194 0.63065 0.0
H579 H 0.02322 0.90718 0.65535 0.0
C580 C 0.15923 0.88254 0.67454 0.0
C581 C 0.14204 0.86108 0.68982 0.0
C582 C 0.14936 0.90379 0.66623 0.0
C583 C 0.12225 0.90423 0.67331 0.0
C584 C 0.10519 0.88301 0.68885 0.0
C585 C 0.11498 0.86165 0.69703 0.0
C586 C 0.11127 0.92613 0.66351 0.0
C587 C 0.08561 0.91819 0.65028 0.0
C588 C 0.12669 0.95454 0.66571 0.0
C589 C 0.15295 0.96438 0.68085 0.0
C590 C 0.15319 0.95623 0.70642 0.0
C591 C 0.17804 0.96538 0.72054 0.0
C592 C 0.20274 0.98285 0.70935 0.0
C593 C 0.20264 0.99125 0.68404 0.0
C594 C 0.17786 0.98214 0.66983 0.0
C595 C 0.04502 0.0089 0.62097 0.0
C596 C 0.06048 0.02398 0.60027 0.0
C597 C 0.05543 0.99074 0.63459 0.0
C598 C 0.08154 0.98753 0.62789 0.0
C599 C 0.09764 1.00353 0.60808 0.0
C600 C 0.08713 0.02146 0.59427 0.0
C601 C 0.0912 0.96609 0.64024 0.0
C602 C 0.11657 0.97413 0.65379 0.0
C603 C 0.0755 0.93779 0.63845 0.0
C604 C 0.0491 0.92808 0.62349 0.0
C605 C 0.04911 0.93454 0.59744 0.0
C606 C 0.02401 0.92597 0.58364 0.0
C607 C 0.9988 0.91067 0.59562 0.0
C608 C 0.99867 0.90383 0.62141 0.0
C609 C 0.02371 0.91242 0.63531 0.0
H610 H 0.97939 0.90407 0.5849 0.0
H611 H 0.22196 0.98991 0.72031 0.0
H612 H 0.7496 0.46108 0.89141 0.0
H613 H 0.79495 0.48575 0.91126 0.0
H614 H 0.76365 0.44686 0.98323 0.0
H615 H 0.71828 0.42309 0.96384 0.0
H616 H 0.79289 0.49857 0.99132 0.0
H617 H 0.80856 0.42423 0.94315 0.0
H618 H 0.80927 0.39679 0.90457 0.0
H619 H 0.86708 0.46785 0.86823 0.0
H620 H 0.86642 0.49582 0.90649 0.0
H621 H 0.92321 0.51465 0.05553 0.0
H622 H 0.87747 0.49598 0.03439 0.0
H623 H 0.9121 0.54268 0.96675 0.0
H624 H 0.95768 0.56151 0.98768 0.0
H625 H 0.88185 0.48945 0.95525 0.0
H626 H 0.86819 0.56312 1.00452 0.0
H627 H 0.8669 0.59063 0.04293 0.0
H628 H 0.80532 0.52075 0.07736 0.0
H629 H 0.80656 0.49268 0.03933 0.0
C630 C 0.7523 0.45803 0.91152 0.0
C631 C 0.73034 0.4397 0.92586 0.0
C632 C 0.77836 0.47197 0.92283 0.0
C633 C 0.78308 0.46786 0.94874 0.0
C634 C 0.76079 0.45034 0.96322 0.0
C635 C 0.73485 0.43649 0.95199 0.0
C636 C 0.81117 0.48126 0.96087 0.0
C637 C 0.81227 0.4963 0.98354 0.0
C638 C 0.83674 0.47896 0.95055 0.0
C639 C 0.83718 0.46218 0.92756 0.0
C640 C 0.82125 0.43405 0.92685 0.0
C641 C 0.82167 0.4184 0.90506 0.0
C642 C 0.83814 0.43059 0.88393 0.0
C643 C 0.85429 0.45845 0.88459 0.0
C644 C 0.85391 0.47421 0.90632 0.0
C645 C 0.9211 0.521 0.03618 0.0
C646 C 0.94425 0.53965 0.02339 0.0
C647 C 0.89486 0.51038 0.02413 0.0
C648 C 0.89119 0.51801 0.99896 0.0
C649 C 0.91431 0.53645 0.98613 0.0
C650 C 0.94041 0.54728 0.99822 0.0
C651 C 0.86346 0.50645 0.98583 0.0
C652 C 0.86246 0.49179 0.96298 0.0
C653 C 0.83799 0.50904 0.99602 0.0
C654 C 0.83767 0.52571 0.01915 0.0
C655 C 0.85461 0.55352 0.0204 0.0
C656 C 0.85384 0.56924 0.04208 0.0
C657 C 0.83605 0.55743 0.06257 0.0
C658 C 0.81909 0.52986 0.06147 0.0
C659 C 0.81981 0.51404 0.03986 0.0
H660 H 0.83528 0.56967 0.07924 0.0
H661 H 0.83845 0.41843 0.86708 0.0
H662 H 0.78296 0.73436 0.40162 0.0
H663 H 0.74032 0.7113 0.42678 0.0
H664 H 0.7797 0.653 0.45462 0.0
H665 H 0.82241 0.67609 0.42912 0.0
H666 H 0.72324 0.62784 0.4427 0.0
H667 H 0.77756 0.70656 0.491 0.0
H668 H 0.80359 0.75583 0.49723 0.0
H669 H 0.72833 0.77663 0.48174 0.0
H670 H 0.70198 0.7275 0.47489 0.0
H671 H 0.61916 0.57687 0.54066 0.0
H672 H 0.66322 0.59534 0.51635 0.0
H673 H 0.639 0.66657 0.49601 0.0
H674 H 0.59577 0.64885 0.52136 0.0
H675 H 0.69031 0.68383 0.50564 0.0
H676 H 0.6365 0.60788 0.45363 0.0
H677 H 0.60991 0.55973 0.44275 0.0
H678 H 0.68146 0.53441 0.46222 0.0
H679 H 0.70848 0.5824 0.47328 0.0
C680 C 0.78233 0.71647 0.41296 0.0
C681 C 0.80581 0.70692 0.41351 0.0
C682 C 0.75805 0.70337 0.4274 0.0
C683 C 0.75685 0.68058 0.4429 0.0
C684 C 0.7801 0.67054 0.44287 0.0
C685 C 0.80446 0.68371 0.42838 0.0
C686 C 0.7317 0.66796 0.45968 0.0
C687 C 0.71621 0.63995 0.45674 0.0
C688 C 0.72212 0.68385 0.47762 0.0
C689 C 0.73785 0.71335 0.48224 0.0
C690 C 0.7666 0.72165 0.48877 0.0
C691 C 0.78141 0.74957 0.49241 0.0
C692 C 0.76762 0.76937 0.48985 0.0
C693 C 0.73898 0.76128 0.4837 0.0
C694 C 0.7241 0.7334 0.47994 0.0
C695 C 0.62332 0.59654 0.5311 0.0
C696 C 0.60394 0.61143 0.53307 0.0
C697 C 0.64846 0.607 0.51693 0.0
C698 C 0.65449 0.63224 0.50378 0.0
C699 C 0.63512 0.64711 0.50591 0.0
C700 C 0.6103 0.63695 0.52048 0.0
C701 C 0.68113 0.64368 0.48834 0.0
C702 C 0.69715 0.67154 0.49166 0.0
C703 C 0.69089 0.62769 0.47048 0.0
C704 C 0.67444 0.59871 0.46446 0.0
C705 C 0.6465 0.59202 0.45575 0.0
C706 C 0.63141 0.56478 0.44944 0.0
C707 C 0.64408 0.54408 0.45161 0.0
C708 C 0.67177 0.55051 0.46035 0.0
C709 C 0.68699 0.57772 0.46662 0.0
H710 H 0.63241 0.52304 0.44659 0.0
H711 H 0.77907 0.79098 0.49266 0.0
H712 H 0.30289 0.3883 0.12687 0.0
H713 H 0.26261 0.40375 0.11623 0.0
H714 H 0.21888 0.36463 0.18425 0.0
H715 H 0.25934 0.34969 0.19534 0.0
H716 H 0.20714 0.37616 0.10704 0.0
H717 H 0.1826 0.40608 0.20867 0.0
H718 H 0.20716 0.42126 0.24927 0.0
H719 H 0.28553 0.45646 0.20873 0.0
H720 H 0.26137 0.44183 0.1679 0.0
H721 H 0.07563 0.40525 0.11029 0.0
H722 H 0.11399 0.38664 0.12064 0.0
H723 H 0.17125 0.46937 0.1288 0.0
H724 H 0.13305 0.48803 0.11884 0.0
H725 H 0.17618 0.43591 0.16764 0.0
H726 H 0.17374 0.43418 0.07604 0.0
H727 H 0.15146 0.42199 0.03408 0.0
H728 H 0.13133 0.33588 0.0519 0.0
H729 H 0.15316 0.34758 0.09414 0.0
C730 C 0.28474 0.3831 0.13961 0.0
C731 C 0.28437 0.36793 0.16203 0.0
C732 C 0.26165 0.39171 0.13339 0.0
C733 C 0.23787 0.38551 0.14954 0.0
C734 C 0.23715 0.36985 0.17164 0.0
C735 C 0.26019 0.36117 0.17785 0.0
C736 C 0.21422 0.39618 0.14365 0.0
C737 C 0.20027 0.38912 0.12033 0.0
C738 C 0.20552 0.41337 0.16086 0.0
C739 C 0.22022 0.42259 0.18527 0.0
C740 C 0.20506 0.41714 0.20843 0.0
C741 C 0.21891 0.42564 0.23148 0.0
C742 C 0.24791 0.43973 0.23159 0.0
C743 C 0.2631 0.44545 0.20863 0.0
C744 C 0.24934 0.43703 0.18554 0.0
C745 C 0.09638 0.41941 0.11443 0.0
C746 C 0.10141 0.44808 0.11361 0.0
C747 C 0.11827 0.40879 0.12018 0.0
C748 C 0.14547 0.42666 0.12531 0.0
C749 C 0.15041 0.45524 0.12486 0.0
C750 C 0.12864 0.46586 0.11896 0.0
C751 C 0.16895 0.41572 0.13112 0.0
C752 C 0.18286 0.42273 0.15445 0.0
C753 C 0.17786 0.39883 0.11375 0.0
C754 C 0.16481 0.39176 0.08835 0.0
C755 C 0.16435 0.41265 0.0711 0.0
C756 C 0.15184 0.40583 0.04725 0.0
C757 C 0.13991 0.37818 0.04036 0.0
C758 C 0.14054 0.35729 0.05728 0.0
C759 C 0.15299 0.364 0.08117 0.0
H760 H 0.13025 0.37294 0.02188 0.0
H761 H 0.2586 0.44627 0.24945 0.0
H762 H 0.60699 0.35211 0.9214 0.0
H763 H 0.58561 0.3067 0.94025 0.0
H764 H 0.668 0.29666 0.94681 0.0
H765 H 0.68916 0.34061 0.92549 0.0
H766 H 0.63585 0.25035 0.93738 0.0
H767 H 0.62792 0.31674 0.99882 0.0
H768 H 0.61468 0.35602 0.01592 0.0
H769 H 0.52705 0.31218 1.00317 0.0
H770 H 0.53981 0.27276 0.98567 0.0
H771 H 0.59596 0.15564 0.04578 0.0
H772 H 0.61473 0.19941 0.0225 0.0
H773 H 0.53791 0.1804 0.97941 0.0
H774 H 0.51932 0.13621 1.00198 0.0
H775 H 0.56593 0.24007 1.00765 0.0
H776 H 0.57876 0.17289 0.94557 0.0
H777 H 0.59604 0.13433 0.93339 0.0
H778 H 0.6804 0.1822 0.95397 0.0
H779 H 0.66349 0.2209 0.96666 0.0
C780 C 0.62063 0.34008 0.92619 0.0
C781 C 0.65009 0.35066 0.92202 0.0
C782 C 0.60832 0.31413 0.93758 0.0
C783 C 0.62512 0.29827 0.94591 0.0
C784 C 0.65436 0.30833 0.94095 0.0
C785 C 0.66658 0.33391 0.92898 0.0
C786 C 0.61248 0.27141 0.95988 0.0
C787 C 0.62076 0.24842 0.95285 0.0
C788 C 0.5926 0.26827 0.9802 0.0
C789 C 0.58485 0.29194 0.99067 0.0
C790 C 0.60585 0.31556 0.99949 0.0
C791 C 0.59843 0.33784 1.00928 0.0
C792 C 0.57005 0.33663 0.01055 0.0
C793 C 0.54903 0.31311 1.00211 0.0
C794 C 0.55634 0.29079 0.99227 0.0
C795 C 0.58303 0.16076 0.03136 0.0
C796 C 0.55616 0.14233 0.02569 0.0
C797 C 0.59381 0.18578 0.01807 0.0
C798 C 0.57773 0.19315 0.99921 0.0
C799 C 0.55069 0.1751 0.99386 0.0
C800 C 0.54015 0.1498 1.00672 0.0
C801 C 0.58931 0.21957 0.9849 0.0
C802 C 0.58092 0.24232 0.99202 0.0
C803 C 0.60963 0.22275 0.9652 0.0
C804 C 0.61981 0.19963 0.95733 0.0
C805 C 0.60093 0.17508 0.94774 0.0
C806 C 0.61067 0.15322 0.94069 0.0
C807 C 0.63929 0.15577 0.94298 0.0
C808 C 0.65824 0.18023 0.95225 0.0
C809 C 0.64859 0.20213 0.95935 0.0
H810 H 0.64679 0.13884 0.93751 0.0
H811 H 0.56435 0.3539 0.01814 0.0
H812 H 0.89648 0.76998 0.44531 0.0
H813 H 0.92129 0.81333 0.46666 0.0
H814 H 0.91785 0.85827 0.39796 0.0
H815 H 0.8931 0.81493 0.37644 0.0
H816 H 0.96821 0.87991 0.42091 0.0
H817 H 0.87002 0.85175 0.44847 0.0
H818 H 0.82651 0.82038 0.46796 0.0
H819 H 0.87043 0.82056 0.53795 0.0
H820 H 0.91429 0.85152 0.51876 0.0
H821 H 0.9963 0.01338 0.47583 0.0
H822 H 0.97694 0.96964 0.45323 0.0
H823 H 0.96942 0.92548 0.52438 0.0
H824 H 0.98731 0.96924 0.54711 0.0
H825 H 0.92526 0.90289 0.50004 0.0
H826 H 0.02259 0.92904 0.47524 0.0
H827 H 0.06783 0.95939 0.45787 0.0
H828 H 0.02894 0.96133 0.38558 0.0
H829 H 0.98335 0.93128 0.40262 0.0
C830 C 0.90112 0.78907 0.43467 0.0
C831 C 0.89259 0.78887 0.40915 0.0
C832 C 0.91529 0.8139 0.44695 0.0
C833 C 0.92101 0.83927 0.43415 0.0
C834 C 0.91364 0.83906 0.40834 0.0
C835 C 0.89957 0.81418 0.39599 0.0
C836 C 0.93379 0.86599 0.44784 0.0
C837 C 0.95865 0.88507 0.43807 0.0
C838 C 0.92191 0.87254 0.4707 0.0
C839 C 0.8955 0.85378 0.4821 0.0
C840 C 0.87045 0.84491 0.46794 0.0
C841 C 0.84572 0.82722 0.47895 0.0
C842 C 0.84573 0.81849 0.50418 0.0
C843 C 0.87046 0.82734 0.51842 0.0
C844 C 0.89525 0.84495 0.50749 0.0
C845 C 0.9906 0.99432 0.48663 0.0
C846 C 0.99329 0.99484 0.51329 0.0
C847 C 0.97969 0.96921 0.47364 0.0
C848 C 0.972 0.94392 0.48689 0.0
C849 C 0.97501 0.94451 0.51355 0.0
C850 C 0.98532 0.96962 0.52658 0.0
C851 C 0.95989 0.91694 0.47327 0.0
C852 C 0.93502 0.8978 0.48297 0.0
C853 C 0.97209 0.91014 0.45064 0.0
C854 C 0.99949 0.92812 0.44029 0.0
C855 C 0.02364 0.93609 0.45569 0.0
C856 C 0.04935 0.95322 0.4459 0.0
C857 C 0.05124 0.96234 0.42066 0.0
C858 C 0.02744 0.95428 0.40513 0.0
C859 C 1.00166 0.93718 0.41485 0.0
H860 H 0.07117 0.9756 0.41311 0.0
H861 H 0.82659 0.80495 0.51277 0.0
H862 H 0.25047 0.762 0.69721 0.0
H863 H 0.2824 0.73931 0.67807 0.0
H864 H 0.35083 0.81608 0.68047 0.0
H865 H 0.31896 0.83894 0.69914 0.0
H866 H 0.35117 0.78792 0.63598 0.0
H867 H 0.34456 0.76947 0.72632 0.0
H868 H 0.31942 0.75299 0.76681 0.0
H869 H 0.28512 0.67165 0.7355 0.0
H870 H 0.30976 0.68777 0.69467 0.0
H871 H 0.47158 0.74311 0.63083 0.0
H872 H 0.43506 0.76331 0.64325 0.0
H873 H 0.37275 0.68249 0.64341 0.0
H874 H 0.4094 0.66196 0.63209 0.0
H875 H 0.36669 0.71067 0.68442 0.0
H876 H 0.3767 0.72867 0.59475 0.0
H877 H 0.40261 0.74555 0.55468 0.0
H878 H 0.43094 0.8279 0.58464 0.0
H879 H 0.40556 0.81144 0.62504 0.0
C880 C 0.27219 0.77412 0.69324 0.0
C881 C 0.2823 0.80218 0.69986 0.0
C882 C 0.29044 0.76111 0.68247 0.0
C883 C 0.31905 0.77596 0.67815 0.0
C884 C 0.32885 0.80424 0.68371 0.0
C885 C 0.31069 0.8172 0.69454 0.0
C886 C 0.33919 0.76187 0.66911 0.0
C887 C 0.35473 0.77114 0.64662 0.0
C888 C 0.34341 0.73966 0.68278 0.0
C889 C 0.32874 0.72989 0.70736 0.0
C890 C 0.33148 0.74812 0.72801 0.0
C891 C 0.31735 0.73884 0.75103 0.0
C892 C 0.30062 0.71131 0.7537 0.0
C893 C 0.29805 0.69298 0.73338 0.0
C894 C 0.3121 0.70217 0.71031 0.0
C895 C 0.45016 0.72958 0.63372 0.0
C896 C 0.44343 0.7009 0.63042 0.0
C897 C 0.42923 0.7412 0.64052 0.0
C898 C 0.40107 0.72446 0.64389 0.0
C899 C 0.3943 0.69582 0.64076 0.0
C900 C 0.41524 0.68416 0.63407 0.0
C901 C 0.37885 0.73677 0.65129 0.0
C902 C 0.36295 0.72722 0.67356 0.0
C903 C 0.37435 0.75875 0.63741 0.0
C904 C 0.38939 0.76877 0.61301 0.0
C905 C 0.38861 0.75035 0.59286 0.0
C906 C 0.40318 0.75985 0.57008 0.0
C907 C 0.41845 0.78777 0.56713 0.0
C908 C 0.41912 0.80627 0.58695 0.0
C909 C 0.40461 0.79687 0.60979 0.0
H910 H 0.42974 0.79508 0.54949 0.0
H911 H 0.28969 0.70415 0.77154 0.0
H912 H 0.82324 0.885 0.87773 0.0
H913 H 0.84645 0.90962 0.83966 0.0
H914 H 0.76993 0.87462 0.79703 0.0
H915 H 0.74694 0.84894 0.8348 0.0
H916 H 0.81423 0.86985 0.7713 0.0
H917 H 0.79223 0.94306 0.8151 0.0
H918 H 0.79115 0.97348 0.85138 0.0
H919 H 0.88188 1.00287 0.85208 0.0
H920 H 0.88351 0.97234 0.81602 0.0
H921 H 0.85625 0.95639 0.66229 0.0
H922 H 0.8324 0.93202 0.70033 0.0
H923 H 0.90946 0.96404 0.74282 0.0
H924 H 0.93324 0.98911 0.70501 0.0
H925 H 0.86464 0.97047 0.76844 0.0
H926 H 0.88645 0.897 0.72472 0.0
H927 H 0.8874 0.86669 0.68833 0.0
H928 H 0.79667 0.83795 0.68737 0.0
H929 H 0.79518 0.86839 0.72354 0.0
C930 C 0.81132 0.88256 0.86026 0.0
C931 C 0.78325 0.86493 0.85929 0.0
C932 C 0.82454 0.89686 0.83857 0.0
C933 C 0.80986 0.89413 0.81553 0.0
C934 C 0.78164 0.87705 0.81463 0.0
C935 C 0.76844 0.86263 0.83631 0.0
C936 C 0.82437 0.90809 0.79211 0.0
C937 C 0.82487 0.89193 0.77055 0.0
C938 C 0.8389 0.93677 0.79135 0.0
C939 C 0.83798 0.95522 0.813 0.0
C940 C 0.81196 0.95585 0.82312 0.0
C941 C 0.81124 0.97314 0.84362 0.0
C942 C 0.83643 0.99005 0.85407 0.0
C943 C 0.86238 0.98974 0.84399 0.0
C944 C 0.86321 0.97247 0.8235 0.0
C945 C 0.86813 0.9582 0.67972 0.0
C946 C 0.89662 0.9747 0.68066 0.0
C947 C 0.85454 0.9441 0.70139 0.0
C948 C 0.86921 0.9461 0.72436 0.0
C949 C 0.89777 0.9622 0.72526 0.0
C950 C 0.91139 0.97629 0.70359 0.0
C951 C 0.85446 0.93222 0.74768 0.0
C952 C 0.85394 0.9484 0.76921 0.0
C953 C 0.83987 0.90357 0.7484 0.0
C954 C 0.84071 0.88518 0.72669 0.0
C955 C 0.8667 0.88438 0.71662 0.0
C956 C 0.86734 0.86715 0.69605 0.0
C957 C 0.84212 0.85045 0.6855 0.0
C958 C 0.8162 0.85091 0.69554 0.0
C959 C 0.81544 0.86814 0.71609 0.0
H960 H 0.84265 0.83712 0.66958 0.0
H961 H 0.83584 1.00342 0.86994 0.0
H962 H 0.81731 0.25001 0.34218 0.0
H963 H 0.79058 0.23533 0.30321 0.0
H964 H 0.71382 0.23376 0.34285 0.0
H965 H 0.74001 0.24644 0.3823 0.0
H966 H 0.70406 0.18974 0.31657 0.0
H967 H 0.74841 0.28505 0.29734 0.0
H968 H 0.78777 0.32845 0.29248 0.0
H969 H 0.8262 0.29083 0.23564 0.0
H970 H 0.78725 0.24708 0.24041 0.0
H971 H 0.62096 0.16908 0.20521 0.0
H972 H 0.64776 0.19314 0.24173 0.0
H973 H 0.7234 0.18089 0.21088 0.0
H974 H 0.6967 0.15617 0.17465 0.0
H975 H 0.73236 0.23403 0.23218 0.0
H976 H 0.68815 0.13795 0.25422 0.0
H977 H 0.64768 0.09542 0.259 0.0
H978 H 0.60755 0.13678 0.31101 0.0
H979 H 0.64764 0.17969 0.30624 0.0
C980 C 0.79471 0.24642 0.34269 0.0
C981 C 0.7809 0.24943 0.36551 0.0
C982 C 0.77949 0.23841 0.32023 0.0
C983 C 0.75018 0.23379 0.31992 0.0
C984 C 0.73642 0.2373 0.34254 0.0
C985 C 0.75155 0.2449 0.36508 0.0
C986 C 0.7336 0.22369 0.29648 0.0
C987 C 0.71001 0.19982 0.29825 0.0
C988 C 0.74159 0.2364 0.27237 0.0
C989 C 0.76502 0.26271 0.2694 0.0
C990 C 0.76535 0.28597 0.28394 0.0
C991 C 0.78757 0.31064 0.28117 0.0
C992 C 0.8095 0.31238 0.2638 0.0
C993 C 0.80921 0.28945 0.24911 0.0
C994 C 0.78705 0.26472 0.25181 0.0
C995 C 0.6433 0.1715 0.20615 0.0
C996 C 0.65658 0.16041 0.18708 0.0
C997 C 0.6586 0.1854 0.22696 0.0
C998 C 0.68748 0.18854 0.22909 0.0
C999 C 0.70113 0.17873 0.20953 0.0
C1000 C 0.68582 0.16468 0.18878 0.0
C1001 C 0.70301 0.20033 0.25249 0.0
C1002 C 0.72638 0.22432 0.25064 0.0
C1003 C 0.69471 0.18795 0.27661 0.0
C1004 C 0.67074 0.16209 0.27967 0.0
C1005 C 0.67059 0.13803 0.26652 0.0
C1006 C 0.64774 0.11385 0.26925 0.0
C1007 C 0.62502 0.11342 0.28524 0.0
C1008 C 0.62515 0.13715 0.2986 0.0
C1009 C 0.64793 0.1614 0.2959 0.0
H1010 H 0.60735 0.09468 0.28733 0.0
H1011 H 0.82669 0.3315 0.2617 0.0
H1012 H 0.46426 0.68843 0.3099 0.0
H1013 H 0.47654 0.67701 0.35246 0.0
H1014 H 0.39218 0.66847 0.37911 0.0
H1015 H 0.37954 0.67959 0.33604 0.0
H1016 H 0.44027 0.6941 0.41608 0.0
H1017 H 0.4007 0.61322 0.36423 0.0
H1018 H 0.3967 0.58617 0.32469 0.0
H1019 H 0.48339 0.58901 0.33095 0.0
H1020 H 0.48805 0.61653 0.3703 0.0
H1021 H 0.45724 0.61705 0.5258 0.0
H1022 H 0.43922 0.63465 0.48848 0.0
H1023 H 0.50426 0.61895 0.44175 0.0
H1024 H 0.5211 0.59988 0.47864 0.0
H1025 H 0.46084 0.60517 0.41577 0.0
H1026 H 0.50277 0.68737 0.46515 0.0
H1027 H 0.50968 0.7169 0.50334 0.0
H1028 H 0.42275 0.71417 0.50121 0.0
H1029 H 0.41524 0.68433 0.46317 0.0
C1030 C 0.44845 0.68479 0.32493 0.0
C1031 C 0.42083 0.68476 0.31945 0.0
C1032 C 0.45552 0.67821 0.3493 0.0
C1033 C 0.43524 0.6715 0.369 0.0
C1034 C 0.40822 0.67357 0.36425 0.0
C1035 C 0.40104 0.68007 0.33964 0.0
C1036 C 0.44174 0.65952 0.39334 0.0
C1037 C 0.44435 0.67446 0.41618 0.0
C1038 C 0.44771 0.63419 0.39345 0.0
C1039 C 0.44478 0.61712 0.3701 0.0
C1040 C 0.41897 0.60824 0.35708 0.0
C1041 C 0.41658 0.59281 0.33471 0.0
C1042 C 0.43979 0.58592 0.32528 0.0
C1043 C 0.46543 0.59438 0.33826 0.0
C1044 C 0.46795 0.60988 0.36061 0.0
C1045 C 0.46766 0.61734 0.50754 0.0
C1046 C 0.49062 0.60697 0.50528 0.0
C1047 C 0.45748 0.62768 0.48614 0.0
C1048 C 0.47055 0.62877 0.46202 0.0
C1049 C 0.49355 0.61842 0.4599 0.0
C1050 C 0.50327 0.6075 0.48112 0.0
C1051 C 0.46015 0.63996 0.43883 0.0
C1052 C 0.45671 0.62479 0.416 0.0
C1053 C 0.45383 0.66526 0.43877 0.0
C1054 C 0.45838 0.68339 0.46148 0.0
C1055 C 0.48509 0.69294 0.47292 0.0
C1056 C 0.48912 0.70974 0.49453 0.0
C1057 C 0.46665 0.71734 0.50474 0.0
C1058 C 0.44013 0.70823 0.4933 0.0
C1059 C 0.43598 0.69139 0.47171 0.0
H1060 H 0.4698 0.73033 0.52148 0.0
H1061 H 0.43791 0.57399 0.30795 0.0
H1062 H 0.11673 0.44033 0.81265 0.0
H1063 H 0.09837 0.46892 0.84146 0.0
H1064 H 0.16844 0.47753 0.89183 0.0
H1065 H 0.18693 0.44971 0.86302 0.0
H1066 H 0.079 0.45819 0.88804 0.0
H1067 H 0.18373 0.53508 0.92681 0.0
H1068 H 0.23104 0.56175 0.91056 0.0
H1069 H 0.19823 0.55866 0.8349 0.0
H1070 H 0.15067 0.53232 0.85073 0.0
H1071 H 0.05326 0.50279 0.01017 0.0
H1072 H 0.07251 0.48522 0.97336 0.0
H1073 H 0.09635 0.56589 0.93864 0.0
H1074 H 0.07793 0.58384 0.97596 0.0
H1075 H 0.13594 0.5452 0.92914 0.0
H1076 H 0.03632 0.51053 0.91946 0.0
H1077 H 0.98679 0.48705 0.93214 0.0
H1078 H 1.00549 0.41131 0.94285 0.0
H1079 H 0.05524 0.43444 0.93058 0.0
C1080 C 0.12863 0.4491 0.82946 0.0
C1081 C 0.15335 0.44281 0.83547 0.0
C1082 C 0.11796 0.46518 0.84611 0.0
C1083 C 0.13195 0.47559 0.86896 0.0
C1084 C 0.15733 0.47027 0.87428 0.0
C1085 C 0.16789 0.45423 0.85777 0.0
C1086 C 0.11929 0.49017 0.88824 0.0
C1087 C 0.09146 0.4773 0.89689 0.0
C1088 C 0.13511 0.51549 0.89959 0.0
C1089 C 0.16366 0.53151 0.88995 0.0
C1090 C 0.18658 0.54019 0.90673 0.0
C1091 C 0.21345 0.55524 0.89758 0.0
C1092 C 0.21766 0.56183 0.87171 0.0
C1093 C 0.19498 0.55345 0.85493 0.0
C1094 C 0.16806 0.53843 0.86397 0.0
C1095 C 0.06264 0.51688 0.99475 0.0
C1096 C 0.06384 0.54476 0.99607 0.0
C1097 C 0.07352 0.50671 0.97353 0.0
C1098 C 0.08542 0.52396 0.95271 0.0
C1099 C 0.08723 0.552 0.95426 0.0
C1100 C 0.07665 0.56228 0.97567 0.0
C1101 C 0.09599 0.51272 0.92954 0.0
C1102 C 0.12341 0.5262 0.92018 0.0
C1103 C 0.07952 0.48835 0.91705 0.0
C1104 C 0.04956 0.47429 0.92427 0.0
C1105 C 0.02991 0.48891 0.92466 0.0
C1106 C 1.00179 0.47566 0.93176 0.0
C1107 C 0.99301 0.44772 0.93834 0.0
C1108 C 0.01232 0.43296 0.93777 0.0
C1109 C 0.04048 0.44612 0.93071 0.0
H1110 H 0.97123 0.43749 0.94384 0.0
H1111 H 0.23848 0.57347 0.86467 0.0
H1112 H 0.61563 0.8322 0.9595 0.0
H1113 H 0.5977 0.8693 0.97308 0.0
H1114 H 0.66096 0.92719 0.92692 0.0
H1115 H 0.67803 0.88995 0.9117 0.0
H1116 H 0.65099 0.93757 0.98695 0.0
H1117 H 0.60973 0.92057 0.9024 0.0
H1118 H 0.58296 0.89023 0.86853 0.0
H1119 H 0.51103 0.86144 0.91866 0.0
H1120 H 0.53758 0.89132 0.95298 0.0
H1121 H 0.599 0.04884 0.01349 0.0
H1122 H 0.61974 0.01759 0.99125 0.0
H1123 H 0.54058 0.95175 0.99852 0.0
H1124 H 0.51944 0.98321 0.01956 0.0
H1125 H 0.56141 0.94756 0.9549 0.0
H1126 H 0.59919 0.95975 0.03937 0.0
H1127 H 0.62373 0.9858 0.07651 0.0
H1128 H 0.69929 0.01866 0.03146 0.0
H1129 H 0.67506 0.99306 0.99394 0.0
C1130 C 0.62546 0.85262 0.9517 0.0
C1131 C 0.64829 0.85787 0.93433 0.0
C1132 C 0.6153 0.87385 0.95973 0.0
C1133 C 0.62804 0.90083 0.95095 0.0
C1134 C 0.65097 0.90641 0.93392 0.0
C1135 C 0.6608 0.88508 0.92542 0.0
C1136 C 0.6174 0.92316 0.95996 0.0
C1137 C 0.63172 0.94024 0.97967 0.0
C1138 C 0.59178 0.92577 0.95097 0.0
C1139 C 0.57575 0.90794 0.93033 0.0
C1140 C 0.58832 0.90755 0.90628 0.0
C1141 C 0.57316 0.89049 0.88698 0.0
C1142 C 0.54533 0.87385 0.89146 0.0
C1143 C 0.53259 0.87431 0.91523 0.0
C1144 C 0.54768 0.89131 0.9346 0.0
C1145 C 0.586 0.02775 0.01015 0.0
C1146 C 0.55766 0.01843 0.01837 0.0
C1147 C 0.59791 0.00985 0.99756 0.0
C1148 C 0.58192 0.9821 0.99364 0.0
C1149 C 0.55339 0.97302 1.00129 0.0
C1150 C 0.54133 0.99104 0.01339 0.0
C1151 C 0.59492 0.96226 0.98216 0.0
C1152 C 0.58094 0.94539 0.96205 0.0
C1153 C 0.62057 0.95942 0.99124 0.0
C1154 C 0.63522 0.97474 0.01378 0.0
C1155 C 0.62098 0.97268 0.03734 0.0
C1156 C 0.63484 0.98735 0.05846 0.0
C1157 C 0.66303 1.00394 0.05633 0.0
C1158 C 0.67744 1.00584 0.03308 0.0
C1159 C 0.66366 0.99125 0.01188 0.0
H1160 H 0.67372 0.01528 0.0727 0.0
H1161 H 0.53363 0.86067 0.87649 0.0
H1162 H 0.87648 0.24348 0.3903 0.0
H1163 H 0.91026 0.2197 0.40255 0.0
H1164 H 0.86627 0.19695 0.47445 0.0
H1165 H 0.83303 0.22089 0.46251 0.0
H1166 H 0.9205 0.2149 0.48233 0.0
H1167 H 0.85898 0.15117 0.42354 0.0
H1168 H 0.83566 0.13673 0.38231 0.0
H1169 H 0.91663 0.15423 0.34526 0.0
H1170 H 0.94043 0.16912 0.38626 0.0
H1171 H 0.94462 0.09505 0.52537 0.0
H1172 H 0.92221 0.12385 0.50239 0.0
H1173 H 0.99756 0.15734 0.45667 0.0
H1174 H 0.02065 0.12877 0.47999 0.0
H1175 H 0.93616 0.139 0.43131 0.0
H1176 H 0.99672 0.1983 0.49367 0.0
H1177 H 0.01692 0.20837 0.53664 0.0
H1178 H 0.93403 0.19572 0.56832 0.0
H1179 H 0.91328 0.18507 0.52557 0.0
C1180 C 0.87408 0.2333 0.40866 0.0
C1181 C 0.8523 0.23421 0.42555 0.0
C1182 C 0.89333 0.21972 0.41564 0.0
C1183 C 0.89078 0.20648 0.43942 0.0
C1184 C 0.86887 0.20723 0.45612 0.0
C1185 C 0.84988 0.22095 0.44928 0.0
C1186 C 0.91073 0.19177 0.44734 0.0
C1187 C 0.9239 0.19836 0.47108 0.0
C1188 C 0.91575 0.17053 0.4325 0.0
C1189 C 0.90147 0.16159 0.40788 0.0
C1190 C 0.8718 0.15216 0.40656 0.0
C1191 C 0.8585 0.14385 0.38324 0.0
C1192 C 0.87465 0.14466 0.36116 0.0
C1193 C 0.90415 0.15369 0.36237 0.0
C1194 C 0.91755 0.16205 0.38564 0.0
C1195 C 0.95643 0.10823 0.51023 0.0
C1196 C 0.98451 0.10972 0.50461 0.0
C1197 C 0.94354 0.12466 0.49713 0.0
C1198 C 0.9583 0.14267 0.47795 0.0
C1199 C 0.98589 0.14346 0.47142 0.0
C1200 C 0.99903 0.12725 0.48483 0.0
C1201 C 0.94518 0.1619 0.46633 0.0
C1202 C 0.93326 0.15607 0.44209 0.0
C1203 C 0.94098 0.18365 0.48078 0.0
C1204 C 0.95344 0.19068 0.50644 0.0
C1205 C 0.98278 0.19746 0.50982 0.0
C1206 C 0.99433 0.2033 0.53414 0.0
C1207 C 0.97677 0.20263 0.55521 0.0
C1208 C 0.94761 0.19622 0.55199 0.0
C1209 C 0.93595 0.1903 0.52771 0.0
H1210 H 0.98575 0.20713 0.57402 0.0
H1211 H 0.86432 0.13821 0.34313 0.0
H1212 H 0.28306 0.68729 0.23628 0.0
H1213 H 0.23928 0.66469 0.21318 0.0
H1214 H 0.28366 0.68957 0.14174 0.0
H1215 H 0.32679 0.71319 0.16484 0.0
H1216 H 0.23739 0.69739 0.13711 0.0
H1217 H 0.26171 0.61983 0.16721 0.0
H1218 H 0.27421 0.58991 0.19868 0.0
H1219 H 0.19504 0.57763 0.23768 0.0
H1220 H 0.18221 0.60777 0.20661 0.0
H1221 H 0.11508 0.56775 0.08845 0.0
H1222 H 0.15963 0.58729 0.11121 0.0
H1223 H 0.13893 0.66214 0.12437 0.0
H1224 H 0.09526 0.64328 0.1007 0.0
H1225 H 0.17456 0.60286 0.15647 0.0
H1226 H 0.19556 0.71766 0.12814 0.0
H1227 H 0.18694 0.74465 0.09197 0.0
H1228 H 0.1828 0.67751 0.04119 0.0
H1229 H 0.19175 0.65026 0.07698 0.0
C1230 C 0.28338 0.68777 0.21565 0.0
C1231 C 0.3083 0.70213 0.20238 0.0
C1232 C 0.25837 0.67471 0.20238 0.0
C1233 C 0.25794 0.67503 0.17552 0.0
C1234 C 0.2831 0.68904 0.16237 0.0
C1235 C 0.30785 0.70252 0.1756 0.0
C1236 C 0.23132 0.66165 0.16098 0.0
C1237 C 0.22375 0.6767 0.14143 0.0
C1238 C 0.21349 0.63439 0.166 0.0
C1239 C 0.22113 0.61628 0.18473 0.0
C1240 C 0.24706 0.61091 0.1826 0.0
C1241 C 0.25419 0.59389 0.20035 0.0
C1242 C 0.23546 0.58194 0.22021 0.0
C1243 C 0.20954 0.58693 0.22231 0.0
C1244 C 0.20231 0.60397 0.20463 0.0
C1245 C 0.12015 0.58846 0.09603 0.0
C1246 C 0.10172 0.60407 0.09238 0.0
C1247 C 0.14562 0.5996 0.1092 0.0
C1248 C 0.15315 0.6265 0.11925 0.0
C1249 C 0.13426 0.64171 0.11624 0.0
C1250 C 0.10912 0.63081 0.10272 0.0
C1251 C 0.18064 0.63872 0.1328 0.0
C1252 C 0.18829 0.62353 0.15218 0.0
C1253 C 0.19914 0.66548 0.12701 0.0
C1254 C 0.19405 0.68184 0.1053 0.0
C1255 C 0.19292 0.70871 0.10924 0.0
C1256 C 0.18795 0.72404 0.0888 0.0
C1257 C 0.18423 0.71277 0.06431 0.0
C1258 C 0.18558 0.68618 0.06019 0.0
C1259 C 0.19057 0.67077 0.08054 0.0
H1260 H 0.18037 0.72466 0.04853 0.0
H1261 H 0.24102 0.56876 0.23393 0.0
H1262 H 0.23515 0.46827 0.71863 0.0
H1263 H 0.27977 0.49525 0.69802 0.0
H1264 H 0.29167 0.42014 0.67015 0.0
H1265 H 0.24815 0.39327 0.69139 0.0
H1266 H 0.33984 0.45254 0.68573 0.0
H1267 H 0.26654 0.46395 0.63196 0.0
H1268 H 0.22416 0.4769 0.62192 0.0
H1269 H 0.26686 0.56037 0.64456 0.0
H1270 H 0.30939 0.54782 0.65506 0.0
H1271 H 0.43732 0.50144 0.58361 0.0
H1272 H 0.39312 0.47965 0.60705 0.0
H1273 H 0.39789 0.55788 0.64099 0.0
H1274 H 0.44223 0.57978 0.61789 0.0
H1275 H 0.34258 0.5271 0.62432 0.0
H1276 H 0.41702 0.51537 0.67564 0.0
H1277 H 0.4595 0.50192 0.68389 0.0
H1278 H 0.4142 0.41806 0.66436 0.0
H1279 H 0.37156 0.4311 0.65556 0.0
C1280 C 0.24743 0.45754 0.7083 0.0
C1281 C 0.23769 0.42858 0.70635 0.0
C1282 C 0.27284 0.47299 0.69631 0.0
C1283 C 0.28901 0.45983 0.68208 0.0
C1284 C 0.27966 0.43091 0.68082 0.0
C1285 C 0.25448 0.41554 0.69279 0.0
C1286 C 0.31554 0.47578 0.66827 0.0
C1287 C 0.34026 0.46866 0.67216 0.0
C1288 C 0.31654 0.4973 0.65086 0.0
C1289 C 0.29101 0.50487 0.64458 0.0
C1290 C 0.2668 0.48501 0.635 0.0
C1291 C 0.24278 0.49229 0.62919 0.0
C1292 C 0.24279 0.51942 0.63268 0.0
C1293 C 0.26686 0.53935 0.64192 0.0
C1294 C 0.29094 0.53217 0.64779 0.0
C1295 C 0.42883 0.51409 0.59584 0.0
C1296 C 0.44344 0.54235 0.59893 0.0
C1297 C 0.40361 0.50157 0.60932 0.0
C1298 C 0.39228 0.51708 0.62595 0.0
C1299 C 0.40623 0.54548 0.62832 0.0
C1300 C 0.43165 0.55794 0.61515 0.0
C1301 C 0.36648 0.50344 0.64154 0.0
C1302 C 0.34205 0.51105 0.63802 0.0
C1303 C 0.36565 0.48225 0.65916 0.0
C1304 C 0.39117 0.47427 0.66471 0.0
C1305 C 0.41617 0.4941 0.6729 0.0
C1306 C 0.44028 0.48655 0.67772 0.0
C1307 C 0.43957 0.45917 0.6746 0.0
C1308 C 0.41473 0.43927 0.66674 0.0
C1309 C 0.39058 0.44673 0.66185 0.0
H1310 H 0.45825 0.45336 0.67833 0.0
H1311 H 0.22417 0.52502 0.62816 0.0
H1312 H 0.82574 0.84014 0.93581 0.0
H1313 H 0.8573 0.81701 0.95384 0.0
H1314 H 0.79282 0.73823 0.945 0.0
H1315 H 0.76095 0.76142 0.92714 0.0
H1316 H 0.82297 0.74088 0.98935 0.0
H1317 H 0.84259 0.75951 0.90036 0.0
H1318 H 0.85297 0.78858 0.86176 0.0
H1319 H 0.93001 0.83985 0.89499 0.0
H1320 H 0.91984 0.81134 0.93399 0.0
H1321 H 0.91626 0.65972 0.98807 0.0
H1322 H 0.88088 0.68174 0.97726 0.0
H1323 H 0.94335 0.76185 0.9851 0.0
H1324 H 0.97881 0.74002 0.99629 0.0
H1325 H 0.91324 0.75748 0.94148 0.0
H1326 H 0.89352 0.73836 0.03055 0.0
H1327 H 0.8832 0.70875 0.06876 0.0
H1328 H 0.8066 0.65739 0.03487 0.0
H1329 H 0.81666 0.68657 0.99628 0.0
C1330 C 0.8182 0.81791 0.93799 0.0
C1331 C 0.79108 0.8025 0.92979 0.0
C1332 C 0.83621 0.80474 0.94829 0.0
C1333 C 0.82757 0.77588 0.95027 0.0
C1334 C 0.79989 0.76053 0.94354 0.0
C1335 C 0.78173 0.77376 0.93337 0.0
C1336 C 0.84822 0.7618 0.95747 0.0
C1337 C 0.84256 0.74422 0.97874 0.0
C1338 C 0.87393 0.76648 0.94377 0.0
C1339 C 0.88032 0.78343 0.92019 0.0
C1340 C 0.86165 0.77709 0.89951 0.0
C1341 C 0.8675 0.79346 0.87755 0.0
C1342 C 0.8921 0.81608 0.87595 0.0
C1343 C 0.91094 0.82234 0.89628 0.0
C1344 C 0.90515 0.80607 0.9183 0.0
C1345 C 0.92241 0.68204 0.98781 0.0
C1346 C 0.95037 0.69813 0.99309 0.0
C1347 C 0.90217 0.69457 0.98159 0.0
C1348 C 0.90946 0.72342 0.98061 0.0
C1349 C 0.93733 0.73954 0.98574 0.0
C1350 C 0.95758 0.72703 0.99201 0.0
C1351 C 0.88821 0.73681 0.97355 0.0
C1352 C 0.8937 0.75417 0.95217 0.0
C1353 C 0.86236 0.73181 0.98709 0.0
C1354 C 0.85598 0.7145 0.01043 0.0
C1355 C 0.87456 0.72065 0.03118 0.0
C1356 C 0.86875 0.70396 0.05292 0.0
C1357 C 0.8443 0.68113 0.05422 0.0
C1358 C 0.82555 0.67505 0.03382 0.0
C1359 C 0.83128 0.69169 0.01202 0.0
H1360 H 0.83985 0.6682 0.07106 0.0
H1361 H 0.89659 0.82874 0.85894 0.0
H1362 H 0.43221 0.78247 0.20836 0.0
H1363 H 0.45528 0.82745 0.18841 0.0
H1364 H 0.37648 0.84551 0.1909 0.0
H1365 H 0.3535 0.8011 0.21138 0.0
H1366 H 0.40097 0.8543 0.14328 0.0
H1367 H 0.42962 0.87862 0.22982 0.0
H1368 H 0.45155 0.87397 0.27075 0.0
H1369 H 0.53129 0.88631 0.23275 0.0
H1370 H 0.50972 0.89066 0.19151 0.0
H1371 H 0.44645 0.9937 0.10351 0.0
H1372 H 0.42691 0.95082 0.12746 0.0
H1373 H 0.50999 0.94201 0.13202 0.0
H1374 H 0.52982 0.98543 0.10878 0.0
H1375 H 0.48462 0.92766 0.17563 0.0
H1376 H 0.45772 0.90334 0.08958 0.0
H1377 H 0.43699 0.90716 0.04784 0.0
H1378 H 0.35565 0.89305 0.08331 0.0
H1379 H 0.37598 0.88954 0.12535 0.0
C1380 C 0.41991 0.79626 0.20526 0.0
C1381 C 0.39085 0.78789 0.2114 0.0
C1382 C 0.43313 0.82197 0.19367 0.0
C1383 C 0.41763 0.83993 0.18795 0.0
C1384 C 0.38889 0.832 0.19484 0.0
C1385 C 0.37576 0.80649 0.20655 0.0
C1386 C 0.43081 0.8664 0.17384 0.0
C1387 C 0.41905 0.87048 0.15054 0.0
C1388 C 0.45498 0.88723 0.18277 0.0
C1389 C 0.46798 0.88467 0.20754 0.0
C1390 C 0.45177 0.8801 0.23015 0.0
C1391 C 0.46414 0.87757 0.25342 0.0
C1392 C 0.49277 0.87976 0.25434 0.0
C1393 C 0.5091 0.88457 0.232 0.0
C1394 C 0.49682 0.88709 0.20868 0.0
C1395 C 0.46062 0.98267 0.10956 0.0
C1396 C 0.48974 0.99308 0.10402 0.0
C1397 C 0.44936 0.95798 0.12322 0.0
C1398 C 0.4668 0.94268 0.13129 0.0
C1399 C 0.49596 0.95324 0.12606 0.0
C1400 C 0.50729 0.97811 0.11264 0.0
C1401 C 0.45462 0.91575 0.14511 0.0
C1402 C 0.46658 0.91151 0.1683 0.0
C1403 C 0.43081 0.89456 0.13593 0.0
C1404 C 0.41844 0.89643 0.11065 0.0
C1405 C 0.43545 0.90123 0.08851 0.0
C1406 C 0.42377 0.90332 0.06479 0.0
C1407 C 0.39504 0.90042 0.06294 0.0
C1408 C 0.37791 0.89533 0.08479 0.0
C1409 C 0.38949 0.89327 0.10856 0.0
H1410 H 0.38603 0.90206 0.04456 0.0
H1411 H 0.50232 0.87781 0.27237 0.0
H1412 H 0.19305 0.33584 0.68998 0.0
H1413 H 0.16966 0.29332 0.66716 0.0
H1414 H 0.08834 0.30009 0.68853 0.0
H1415 H 0.11185 0.34286 0.71182 0.0
H1416 H 0.08744 0.24782 0.69252 0.0
H1417 H 0.11609 0.31636 0.62745 0.0
H1418 H 0.14893 0.35503 0.60357 0.0
H1419 H 0.20105 0.30475 0.58502 0.0
H1420 H 0.16873 0.26588 0.6091 0.0
H1421 H 0.01469 0.14507 0.60228 0.0
H1422 H 0.0338 0.18841 0.62558 0.0
H1423 H 0.11846 0.18648 0.61118 0.0
H1424 H 0.09955 0.14327 0.58768 0.0
H1425 H 0.1148 0.23738 0.60283 0.0
H1426 H 0.08641 0.16943 0.66973 0.0
H1427 H 0.05296 0.131 0.69341 0.0
H1428 H 0.99915 0.18067 0.70779 0.0
H1429 H 0.03212 0.21929 0.68389 0.0
C1430 C 0.17017 0.32851 0.68966 0.0
C1431 C 0.15436 0.34311 0.70241 0.0
C1432 C 0.15678 0.30409 0.67657 0.0
C1433 C 0.12715 0.29365 0.67555 0.0
C1434 C 0.11121 0.30774 0.68885 0.0
C1435 C 0.12467 0.33219 0.70216 0.0
C1436 C 0.11312 0.26807 0.66062 0.0
C1437 C 0.09309 0.24575 0.67278 0.0
C1438 C 0.1207 0.265 0.63492 0.0
C1439 C 0.1401 0.28827 0.62026 0.0
C1440 C 0.13466 0.3136 0.61842 0.0
C1441 C 0.15317 0.33555 0.60483 0.0
C1442 C 0.1771 0.33237 0.59284 0.0
C1443 C 0.18252 0.30719 0.59434 0.0
C1444 C 0.1641 0.28518 0.60794 0.0
C1445 C 0.03739 0.15379 0.6041 0.0
C1446 C 0.05554 0.14051 0.59314 0.0
C1447 C 0.0483 0.17859 0.61754 0.0
C1448 C 0.07762 0.19068 0.62043 0.0
C1449 C 0.09578 0.17761 0.60928 0.0
C1450 C 0.0849 0.1528 0.59589 0.0
C1451 C 0.08946 0.21704 0.63483 0.0
C1452 C 0.10904 0.23953 0.62253 0.0
C1453 C 0.08134 0.22029 0.66032 0.0
C1454 C 0.06158 0.19715 0.6748 0.0
C1455 C 0.06734 0.17208 0.67777 0.0
C1456 C 0.04849 0.15028 0.69126 0.0
C1457 C 0.02391 0.15336 0.70204 0.0
C1458 C 0.01818 0.17829 0.6994 0.0
C1459 C 0.03695 0.20015 0.68591 0.0
H1460 H 0.00934 0.13646 0.71247 0.0
H1461 H 0.1914 0.34939 0.58233 0.0
H1462 H 0.78659 0.37751 0.49328 0.0
H1463 H 0.76078 0.41092 0.49099 0.0
H1464 H 0.71169 0.36565 0.42871 0.0
H1465 H 0.7374 0.33192 0.431 0.0
H1466 H 0.72393 0.42542 0.42572 0.0
H1467 H 0.68515 0.34897 0.48319 0.0
H1468 H 0.68774 0.31735 0.51784 0.0
H1469 H 0.71471 0.38561 0.56962 0.0
H1470 H 0.71279 0.41773 0.5351 0.0
H1471 H 0.59249 0.45274 0.45069 0.0
H1472 H 0.63058 0.43333 0.44089 0.0
H1473 H 0.67776 0.47674 0.50493 0.0
H1474 H 0.63987 0.49612 0.51485 0.0
H1475 H 0.66819 0.41981 0.50564 0.0
H1476 H 0.70312 0.49603 0.44878 0.0
H1477 H 0.70024 0.52744 0.41405 0.0
H1478 H 0.67956 0.45991 0.36121 0.0
H1479 H 0.68184 0.42797 0.39574 0.0
C1480 C 0.77069 0.37497 0.47876 0.0
C1481 C 0.76362 0.35185 0.46263 0.0
C1482 C 0.75609 0.39415 0.47737 0.0
C1483 C 0.73409 0.39049 0.45992 0.0
C1484 C 0.72865 0.36881 0.44228 0.0
C1485 C 0.74332 0.34957 0.44363 0.0
C1486 C 0.71427 0.40665 0.46282 0.0
C1487 C 0.71152 0.42407 0.44306 0.0
C1488 C 0.6984 0.40507 0.4856 0.0
C1489 C 0.69913 0.38577 0.5065 0.0
C1490 C 0.69186 0.35726 0.50191 0.0
C1491 C 0.69318 0.33925 0.52153 0.0
C1492 C 0.70146 0.34947 0.5459 0.0
C1493 C 0.70835 0.37773 0.55072 0.0
C1494 C 0.70715 0.39585 0.53114 0.0
C1495 C 0.61116 0.45838 0.46246 0.0
C1496 C 0.61313 0.47577 0.48363 0.0
C1497 C 0.63296 0.44748 0.45673 0.0
C1498 C 0.65693 0.45363 0.47221 0.0
C1499 C 0.65942 0.47181 0.49275 0.0
C1500 C 0.63782 0.48294 0.49831 0.0
C1501 C 0.67793 0.43888 0.46866 0.0
C1502 C 0.68072 0.42143 0.48833 0.0
C1503 C 0.69362 0.44043 0.44578 0.0
C1504 C 0.69234 0.45955 0.42492 0.0
C1505 C 0.69766 0.48782 0.42981 0.0
C1506 C 0.69619 0.50573 0.41015 0.0
C1507 C 0.68963 0.49566 0.38546 0.0
C1508 C 0.68459 0.46767 0.38036 0.0
C1509 C 0.68599 0.44965 0.39997 0.0
H1510 H 0.68852 0.50956 0.37026 0.0
H1511 H 0.70247 0.33549 0.56107 0.0
loop_
_geom_bond_atom_site_label_1
_geom_bond_atom_site_label_2
_geom_bond_distance
_geom_bond_site_symmetry_2
_ccdc_geom_bond_type
H0 C1 0.949 . S
C1 H0 0.949 . S
C1 C2 1.395 . S
C1 C3 1.391 . S
C2 C1 1.395 . S
C2 C5 1.390 . S
C3 C1 1.391 . S
C3 C7 1.387 . S
C3 C8 1.491 . S
H4 C5 0.950 . S
C5 C2 1.390 . S
C5 H4 0.950 . S
C5 C6 1.378 . S
C6 C5 1.378 . S
C6 C7 1.409 . S
C7 C3 1.387 . S
C7 C6 1.409 . S
C7 H9 0.951 . S
C8 C3 1.491 . S
C8 C10 1.382 . S
C8 C12 1.404 . S
H9 C7 0.951 . S
C10 C8 1.382 . S
C10 C11 1.390 . S
C10 H15 0.949 . S
C11 C10 1.390 . S
C11 C16 1.399 . S
C12 C8 1.404 . S
C12 H13 0.950 . S
C12 C14 1.375 . S
H13 C12 0.950 . S
C14 C12 1.375 . S
C14 C16 1.382 . S
C14 H18 0.950 . S
H15 C10 0.949 . S
C16 C11 1.399 . S
C16 C14 1.382 . S
C16 H17 0.952 . S
H17 C16 0.952 . S
H18 C14 0.950 . S
H19 C20 0.949 . S
C20 H19 0.949 . S
C20 C21 1.395 . S
C20 C22 1.391 . S
C21 C20 1.395 . S
C21 C24 1.390 . S
C22 C20 1.391 . S
C22 C26 1.387 . S
C22 C27 1.491 . S
H23 C24 0.950 . S
C24 C21 1.390 . S
C24 H23 0.950 . S
C24 C25 1.378 . S
C25 C24 1.378 . S
C25 C26 1.409 . S
C26 C22 1.387 . S
C26 C25 1.409 . S
C26 H28 0.951 . S
C27 C22 1.491 . S
C27 C29 1.382 . S
C27 C31 1.404 . S
H28 C26 0.951 . S
C29 C27 1.382 . S
C29 C30 1.390 . S
C29 H34 0.949 . S
C30 C29 1.390 . S
C30 C35 1.399 . S
C31 C27 1.404 . S
C31 H32 0.950 . S
C31 C33 1.375 . S
H32 C31 0.950 . S
C33 C31 1.375 . S
C33 C35 1.382 . S
C33 H37 0.950 . S
H34 C29 0.949 . S
C35 C30 1.399 . S
C35 C33 1.382 . S
C35 H36 0.952 . S
H36 C35 0.952 . S
H37 C33 0.950 . S
H38 C39 0.949 . S
C39 H38 0.949 . S
C39 C40 1.395 . S
C39 C41 1.391 . S
C40 C39 1.395 . S
C40 C43 1.390 . S
C41 C39 1.391 . S
C41 C45 1.387 . S
C41 C46 1.491 . S
H42 C43 0.950 . S
C43 C40 1.390 . S
C43 H42 0.950 . S
C43 C44 1.378 . S
C44 C43 1.378 . S
C44 C45 1.409 . S
C45 C41 1.387 . S
C45 C44 1.409 . S
C45 H47 0.951 . S
C46 C41 1.491 . S
C46 C48 1.382 . S
C46 C50 1.404 . S
H47 C45 0.951 . S
C48 C46 1.382 . S
C48 C49 1.390 . S
C48 H53 0.949 . S
C49 C48 1.390 . S
C49 C54 1.399 . S
C50 C46 1.404 . S
C50 H51 0.950 . S
C50 C52 1.375 . S
H51 C50 0.950 . S
C52 C50 1.375 . S
C52 C54 1.382 . S
C52 H56 0.950 . S
H53 C48 0.949 . S
C54 C49 1.399 . S
C54 C52 1.382 . S
C54 H55 0.952 . S
H55 C54 0.952 . S
H56 C52 0.950 . S
H57 C58 0.949 . S
C58 H57 0.949 . S
C58 C59 1.395 . S
C58 C60 1.391 . S
C59 C58 1.395 . S
C59 C62 1.390 . S
C60 C58 1.391 . S
C60 C64 1.387 . S
C60 C65 1.491 . S
H61 C62 0.950 . S
C62 C59 1.390 . S
C62 H61 0.950 . S
C62 C63 1.378 . S
C63 C62 1.378 . S
C63 C64 1.409 . S
C64 C60 1.387 . S
C64 C63 1.409 . S
C64 H66 0.951 . S
C65 C60 1.491 . S
C65 C67 1.382 . S
C65 C69 1.404 . S
H66 C64 0.951 . S
C67 C65 1.382 . S
C67 C68 1.390 . S
C67 H72 0.949 . S
C68 C67 1.390 . S
C68 C73 1.399 . S
C69 C65 1.404 . S
C69 H70 0.950 . S
C69 C71 1.375 . S
H70 C69 0.950 . S
C71 C69 1.375 . S
C71 C73 1.382 . S
C71 H75 0.950 . S
H72 C67 0.949 . S
C73 C68 1.399 . S
C73 C71 1.382 . S
C73 H74 0.952 . S
H74 C73 0.952 . S
H75 C71 0.950 . S
H76 C77 0.949 . S
C77 H76 0.949 . S
C77 C78 1.395 . S
C77 C79 1.391 . S
C78 C77 1.395 . S
C78 C81 1.390 . S
C79 C77 1.391 . S
C79 C83 1.387 . S
C79 C84 1.491 . S
H80 C81 0.950 . S
C81 C78 1.390 . S
C81 H80 0.950 . S
C81 C82 1.378 . S
C82 C81 1.378 . S
C82 C83 1.409 . S
C83 C79 1.387 . S
C83 C82 1.409 . S
C83 H85 0.951 . S
C84 C79 1.491 . S
C84 C86 1.382 . S
C84 C88 1.404 . S
H85 C83 0.951 . S
C86 C84 1.382 . S
C86 C87 1.390 . S
C86 H91 0.949 . S
C87 C86 1.390 . S
C87 C92 1.399 . S
C88 C84 1.404 . S
C88 H89 0.950 . S
C88 C90 1.375 . S
H89 C88 0.950 . S
C90 C88 1.375 . S
C90 C92 1.382 . S
C90 H94 0.950 . S
H91 C86 0.949 . S
C92 C87 1.399 . S
C92 C90 1.382 . S
C92 H93 0.952 . S
H93 C92 0.952 . S
H94 C90 0.950 . S
H95 C96 0.949 . S
C96 H95 0.949 . S
C96 C97 1.395 . S
C96 C98 1.391 . S
C97 C96 1.395 . S
C97 C100 1.390 . S
C98 C96 1.391 . S
C98 C102 1.387 . S
C98 C103 1.491 . S
H99 C100 0.950 . S
C100 C97 1.390 . S
C100 H99 0.950 . S
C100 C101 1.378 . S
C101 C100 1.378 . S
C101 C102 1.409 . S
C102 C98 1.387 . S
C102 C101 1.409 . S
C102 H104 0.951 . S
C103 C98 1.491 . S
C103 C105 1.382 . S
C103 C107 1.404 . S
H104 C102 0.951 . S
C105 C103 1.382 . S
C105 C106 1.390 . S
C105 H110 0.949 . S
C106 C105 1.390 . S
C106 C111 1.399 . S
C107 C103 1.404 . S
C107 H108 0.950 . S
C107 C109 1.375 . S
H108 C107 0.950 . S
C109 C107 1.375 . S
C109 C111 1.382 . S
C109 H113 0.950 . S
H110 C105 0.949 . S
C111 C106 1.399 . S
C111 C109 1.382 . S
C111 H112 0.952 . S
H112 C111 0.952 . S
H113 C109 0.950 . S
H114 C115 0.949 . S
C115 H114 0.949 . S
C115 C116 1.395 . S
C115 C117 1.391 . S
C116 C115 1.395 . S
C116 C119 1.390 . S
C117 C115 1.391 . S
C117 C121 1.387 . S
C117 C122 1.491 . S
H118 C119 0.950 . S
C119 C116 1.390 . S
C119 H118 0.950 . S
C119 C120 1.378 . S
C120 C119 1.378 . S
C120 C121 1.409 . S
C121 C117 1.387 . S
C121 C120 1.409 . S
C121 H123 0.951 . S
C122 C117 1.491 . S
C122 C124 1.382 . S
C122 C126 1.404 . S
H123 C121 0.951 . S
C124 C122 1.382 . S
C124 C125 1.390 . S
C124 H129 0.949 . S
C125 C124 1.390 . S
C125 C130 1.399 . S
C126 C122 1.404 . S
C126 H127 0.950 . S
C126 C128 1.375 . S
H127 C126 0.950 . S
C128 C126 1.375 . S
C128 C130 1.382 . S
C128 H132 0.950 . S
H129 C124 0.949 . S
C130 C125 1.399 . S
C130 C128 1.382 . S
C130 H131 0.952 . S
H131 C130 0.952 . S
H132 C128 0.950 . S
H133 C134 0.949 . S
C134 H133 0.949 . S
C134 C135 1.395 . S
C134 C136 1.391 . S
C135 C134 1.395 . S
C135 C138 1.390 . S
C136 C134 1.391 . S
C136 C140 1.387 . S
C136 C141 1.491 . S
H137 C138 0.950 . S
C138 C135 1.390 . S
C138 H137 0.950 . S
C138 C139 1.378 . S
C139 C138 1.378 . S
C139 C140 1.409 . S
C140 C136 1.387 . S
C140 C139 1.409 . S
C140 H142 0.951 . S
C141 C136 1.491 . S
C141 C143 1.382 . S
C141 C145 1.404 . S
H142 C140 0.951 . S
C143 C141 1.382 . S
C143 C144 1.390 . S
C143 H148 0.949 . S
C144 C143 1.390 . S
C144 C149 1.399 . S
C145 C141 1.404 . S
C145 H146 0.950 . S
C145 C147 1.375 . S
H146 C145 0.950 . S
C147 C145 1.375 . S
C147 C149 1.382 . S
C147 H151 0.950 . S
H148 C143 0.949 . S
C149 C144 1.399 . S
C149 C147 1.382 . S
C149 H150 0.952 . S
H150 C149 0.952 . S
H151 C147 0.950 . S
Tb152 C161 2.764 . S
Tb152 O162 2.325 . S
Tb152 O165 2.303 . S
Tb152 O169 2.322 . S
Tb152 O170 2.349 . S
Tb152 O173 2.415 . S
Tb152 O174 2.399 . S
Tb153 O163 2.322 . S
Tb153 O164 2.349 1_655 S
Tb153 O166 2.415 1_545 S
Tb153 O167 2.399 . S
Tb153 O168 2.325 1_655 S
Tb153 O171 2.303 . S
Tb153 C182 2.764 1_545 S
C154 O170 1.261 1_665 S
C154 O171 1.257 1_565 S
C155 C158 1.358 . S
C155 C159 1.332 . S
C155 C161 1.504 . S
C156 C157 1.373 . S
C156 C160 1.308 . S
C157 C156 1.373 . S
C157 C158 1.429 . S
C157 H184 0.932 . S
C158 C155 1.358 . S
C158 C157 1.429 . S
C158 H185 0.930 . S
C159 C155 1.332 . S
C159 C160 1.394 . S
C159 H186 0.932 . S
C160 C156 1.308 . S
C160 C159 1.394 . S
C160 H187 0.929 . S
C161 Tb152 2.764 . S
C161 C155 1.504 . S
C161 O173 1.239 . S
C161 O174 1.263 . S
O162 Tb152 2.325 . S
O162 C172 1.236 1_455 S
O163 Tb153 2.322 . S
O163 C172 1.257 . S
O164 Tb153 2.349 1_455 S
O164 C175 1.261 . S
O165 Tb152 2.303 . S
O165 C175 1.257 . S
O166 Tb153 2.415 1_565 S
O166 C182 1.239 . S
O167 Tb153 2.399 . S
O167 C182 1.263 1_545 S
O168 Tb153 2.325 1_455 S
O168 C183 1.236 . S
O169 Tb152 2.322 . S
O169 C183 1.257 . S
O170 Tb152 2.349 . S
O170 C154 1.261 1_445 S
O171 Tb153 2.303 . S
O171 C154 1.257 1_545 S
C172 O162 1.236 1_655 S
C172 O163 1.257 . S
O173 Tb152 2.415 . S
O173 C161 1.239 . S
O174 Tb152 2.399 . S
O174 C161 1.263 . S
C175 O164 1.261 . S
C175 O165 1.257 . S
C176 C179 1.358 . S
C176 C180 1.332 . S
C176 C182 1.504 . S
C177 C178 1.373 . S
C177 C181 1.308 . S
C178 C177 1.373 . S
C178 C179 1.429 . S
C178 H188 0.932 . S
C179 C176 1.358 . S
C179 C178 1.429 . S
C179 H189 0.930 1_565 S
C180 C176 1.332 . S
C180 C181 1.394 . S
C180 H190 0.932 . S
C181 C177 1.308 . S
C181 C180 1.394 . S
C181 H191 0.929 . S
C182 Tb153 2.764 1_565 S
C182 O166 1.239 . S
C182 O167 1.263 1_565 S
C182 C176 1.504 . S
C183 O168 1.236 . S
C183 O169 1.257 . S
H184 C157 0.932 . S
H185 C158 0.930 . S
H186 C159 0.932 . S
H187 C160 0.929 . S
H188 C178 0.932 . S
H189 C179 0.930 1_545 S
H190 C180 0.932 . S
H191 C181 0.929 . S
Tb192 C201 2.764 . S
Tb192 O202 2.325 . S
Tb192 O205 2.303 . S
Tb192 O209 2.322 1_545 S
Tb192 O210 2.349 . S
Tb192 O213 2.415 . S
Tb192 O214 2.399 . S
Tb193 O203 2.322 . S
Tb193 O204 2.349 . S
Tb193 O206 2.415 1_545 S
Tb193 O207 2.399 . S
Tb193 O208 2.325 1_545 S
Tb193 O211 2.303 . S
Tb193 C222 2.764 1_545 S
C194 O210 1.261 . S
C194 O211 1.257 . S
C195 C198 1.358 . S
C195 C199 1.332 . S
C195 C201 1.504 . S
C196 C197 1.373 . S
C196 C200 1.308 . S
C197 C196 1.373 . S
C197 C198 1.429 . S
C197 H224 0.932 . S
C198 C195 1.358 . S
C198 C197 1.429 . S
C198 H225 0.930 . S
C199 C195 1.332 . S
C199 C200 1.394 . S
C199 H226 0.932 . S
C200 C196 1.308 . S
C200 C199 1.394 . S
C200 H227 0.929 . S
C201 Tb192 2.764 . S
C201 C195 1.504 . S
C201 O213 1.239 . S
C201 O214 1.263 . S
O202 Tb192 2.325 . S
O202 C212 1.236 . S
O203 Tb193 2.322 . S
O203 C212 1.257 . S
O204 Tb193 2.349 . S
O204 C215 1.261 . S
O205 Tb192 2.303 . S
O205 C215 1.257 . S
O206 Tb193 2.415 1_565 S
O206 C222 1.239 . S
O207 Tb193 2.399 . S
O207 C222 1.263 1_545 S
O208 Tb193 2.325 1_565 S
O208 C223 1.236 . S
O209 Tb192 2.322 1_565 S
O209 C223 1.257 . S
O210 Tb192 2.349 . S
O210 C194 1.261 . S
O211 Tb193 2.303 . S
O211 C194 1.257 . S
C212 O202 1.236 . S
C212 O203 1.257 . S
O213 Tb192 2.415 . S
O213 C201 1.239 . S
O214 Tb192 2.399 . S
O214 C201 1.263 . S
C215 O204 1.261 . S
C215 O205 1.257 . S
C216 C219 1.363 . S
C216 C220 1.329 1_554 S
C216 C222 1.504 . S
C217 C218 1.373 . S
C217 C221 1.308 . S
C218 C217 1.373 . S
C218 C219 1.418 1_556 S
C218 H228 0.932 . S
C219 C216 1.363 . S
C219 C218 1.418 1_554 S
C219 H229 0.937 . S
C220 C216 1.329 1_556 S
C220 C221 1.402 . S
C220 H230 0.928 1_556 S
C221 C217 1.308 . S
C221 C220 1.402 . S
C221 H231 0.929 . S
C222 Tb193 2.764 1_565 S
C222 O206 1.239 . S
C222 O207 1.263 1_565 S
C222 C216 1.504 . S
C223 O208 1.236 . S
C223 O209 1.257 . S
H224 C197 0.932 . S
H225 C198 0.930 . S
H226 C199 0.932 . S
H227 C200 0.929 . S
H228 C218 0.932 . S
H229 C219 0.937 . S
H230 C220 0.928 1_554 S
H231 C221 0.929 . S
Tb232 C241 2.764 . S
Tb232 O242 2.325 . S
Tb232 O245 2.303 . S
Tb232 O249 2.322 . S
Tb232 O250 2.349 . S
Tb232 O253 2.415 . S
Tb232 O254 2.399 . S
Tb233 O243 2.322 . S
Tb233 O244 2.349 . S
Tb233 O246 2.415 . S
Tb233 O247 2.399 . S
Tb233 O248 2.325 . S
Tb233 O251 2.303 . S
Tb233 C262 2.764 . S
C234 O250 1.261 . S
C234 O251 1.257 . S
C235 C238 1.358 . S
C235 C239 1.332 . S
C235 C241 1.504 . S
C236 C237 1.373 . S
C236 C240 1.308 . S
C237 C236 1.373 . S
C237 C238 1.429 . S
C237 H264 0.932 . S
C238 C235 1.358 . S
C238 C237 1.429 . S
C238 H265 0.930 . S
C239 C235 1.332 . S
C239 C240 1.394 . S
C239 H266 0.932 . S
C240 C236 1.308 . S
C240 C239 1.394 . S
C240 H267 0.929 . S
C241 Tb232 2.764 . S
C241 C235 1.504 . S
C241 O253 1.239 . S
C241 O254 1.263 . S
O242 Tb232 2.325 . S
O242 C252 1.236 . S
O243 Tb233 2.322 . S
O243 C252 1.257 . S
O244 Tb233 2.349 . S
O244 C255 1.261 . S
O245 Tb232 2.303 . S
O245 C255 1.257 . S
O246 Tb233 2.415 . S
O246 C262 1.239 . S
O247 Tb233 2.399 . S
O247 C262 1.263 . S
O248 Tb233 2.325 . S
O248 C263 1.236 . S
O249 Tb232 2.322 . S
O249 C263 1.257 . S
O250 Tb232 2.349 . S
O250 C234 1.261 . S
O251 Tb233 2.303 . S
O251 C234 1.257 . S
C252 O242 1.236 . S
C252 O243 1.257 . S
O253 Tb232 2.415 . S
O253 C241 1.239 . S
O254 Tb232 2.399 . S
O254 C241 1.263 . S
C255 O244 1.261 . S
C255 O245 1.257 . S
C256 C259 1.358 . S
C256 C260 1.332 . S
C256 C262 1.504 . S
C257 C258 1.373 . S
C257 C261 1.308 . S
C258 C257 1.373 . S
C258 C259 1.429 . S
C258 H268 0.932 . S
C259 C256 1.358 . S
C259 C258 1.429 . S
C259 H269 0.930 . S
C260 C256 1.332 . S
C260 C261 1.394 . S
C260 H270 0.932 . S
C261 C257 1.308 . S
C261 C260 1.394 . S
C261 H271 0.929 . S
C262 Tb233 2.764 . S
C262 O246 1.239 . S
C262 O247 1.263 . S
C262 C256 1.504 . S
C263 O248 1.236 . S
C263 O249 1.257 . S
H264 C237 0.932 . S
H265 C238 0.930 . S
H266 C239 0.932 . S
H267 C240 0.929 . S
H268 C258 0.932 . S
H269 C259 0.930 . S
H270 C260 0.932 . S
H271 C261 0.929 . S
Tb272 C281 2.764 . S
Tb272 O282 2.325 . S
Tb272 O285 2.303 1_556 S
Tb272 O289 2.322 1_556 S
Tb272 O290 2.349 . S
Tb272 O293 2.414 1_556 S
Tb272 O294 2.399 . S
Tb273 O283 2.322 1_455 S
Tb273 O284 2.349 . S
Tb273 O286 2.415 . S
Tb273 O287 2.399 . S
Tb273 O288 2.325 . S
Tb273 O291 2.303 1_554 S
Tb273 C302 2.764 . S
C274 O290 1.261 . S
C274 O291 1.257 . S
C275 C278 1.358 . S
C275 C279 1.332 . S
C275 C281 1.504 1_655 S
C276 C277 1.373 . S
C276 C280 1.308 . S
C277 C276 1.373 . S
C277 C278 1.429 . S
C277 H304 0.932 . S
C278 C275 1.358 . S
C278 C277 1.429 . S
C278 H305 0.930 1_655 S
C279 C275 1.332 . S
C279 C280 1.394 . S
C279 H306 0.932 . S
C280 C276 1.308 . S
C280 C279 1.394 . S
C280 H307 0.929 . S
C281 Tb272 2.764 . S
C281 C275 1.504 1_455 S
C281 O293 1.203 1_556 S
C281 O294 1.263 . S
O282 Tb272 2.325 . S
O282 C292 1.236 1_455 S
O283 Tb273 2.322 1_655 S
O283 C292 1.257 1_554 S
O284 Tb273 2.349 . S
O284 C295 1.261 . S
O285 Tb272 2.303 1_554 S
O285 C295 1.257 . S
O286 Tb273 2.415 . S
O286 C302 1.239 . S
O287 Tb273 2.399 . S
O287 C302 1.263 . S
O288 Tb273 2.325 . S
O288 C303 1.236 . S
O289 Tb272 2.322 1_554 S
O289 C303 1.257 . S
O290 Tb272 2.349 . S
O290 C274 1.261 . S
O291 Tb273 2.303 1_556 S
O291 C274 1.257 . S
C292 O282 1.236 1_655 S
C292 O283 1.257 1_556 S
O293 Tb272 2.414 1_554 S
O293 C281 1.203 1_554 S
O294 Tb272 2.399 . S
O294 C281 1.263 . S
C295 O284 1.261 . S
C295 O285 1.257 . S
C296 C299 1.358 . S
C296 C300 1.332 . S
C296 C302 1.504 . S
C297 C298 1.373 . S
C297 C301 1.308 . S
C298 C297 1.373 . S
C298 C299 1.429 . S
C298 H308 0.932 . S
C299 C296 1.358 . S
C299 C298 1.429 . S
C299 H309 0.930 . S
C300 C296 1.332 . S
C300 C301 1.394 . S
C300 H310 0.932 . S
C301 C297 1.308 . S
C301 C300 1.394 . S
C301 H311 0.929 . S
C302 Tb273 2.764 . S
C302 O286 1.239 . S
C302 O287 1.263 . S
C302 C296 1.504 . S
C303 O288 1.236 . S
C303 O289 1.257 . S
H304 C277 0.932 . S
H305 C278 0.930 1_455 S
H306 C279 0.932 . S
H307 C280 0.929 . S
H308 C298 0.932 . S
H309 C299 0.930 . S
H310 C300 0.932 . S
H311 C301 0.929 . S
H312 C330 0.951 . S
H313 C332 0.951 . S
H314 C334 0.950 . S
H315 C335 0.950 . S
H316 C337 0.950 . S
H317 C340 0.950 . S
H318 C341 0.950 . S
H319 C343 0.950 . S
H320 C344 0.950 . S
H321 C345 0.951 . S
H322 C347 0.951 . S
H323 C349 0.950 . S
H324 C350 0.950 . S
H325 C352 0.950 . S
H326 C355 0.950 . S
H327 C356 0.950 . S
H328 C358 0.950 . S
H329 C359 0.950 . S
C330 H312 0.951 . S
C330 C331 1.366 . S
C330 C332 1.388 . S
C331 C330 1.366 . S
C331 C335 1.385 . S
C332 H313 0.951 . S
C332 C330 1.388 . S
C332 C333 1.366 . S
C333 C332 1.366 . S
C333 C334 1.414 . S
C333 C336 1.499 . S
C334 H314 0.950 . S
C334 C333 1.414 . S
C334 C335 1.374 . S
C335 H315 0.950 . S
C335 C331 1.385 . S
C335 C334 1.374 . S
C336 C333 1.499 . S
C336 C337 1.373 . S
C336 C338 1.389 . S
C337 H316 0.950 . S
C337 C336 1.373 . S
C337 C353 1.377 . S
C338 C336 1.389 . S
C338 C339 1.524 . S
C338 C352 1.377 . S
C339 C338 1.524 . S
C339 C340 1.397 . S
C339 C344 1.363 . S
C340 H317 0.950 . S
C340 C339 1.397 . S
C340 C341 1.334 . S
C341 H318 0.950 . S
C341 C340 1.334 . S
C341 C342 1.287 . S
C342 C341 1.287 . S
C342 C343 1.524 . S
C342 H361 0.913 . S
C343 H319 0.950 . S
C343 C342 1.524 . S
C343 C344 1.415 . S
C344 H320 0.950 . S
C344 C339 1.363 . S
C344 C343 1.415 . S
C345 H321 0.951 . S
C345 C346 1.366 . S
C345 C347 1.388 . S
C346 C345 1.366 . S
C346 C350 1.385 . S
C347 H322 0.951 . S
C347 C345 1.388 . S
C347 C348 1.366 . S
C348 C347 1.366 . S
C348 C349 1.414 . S
C348 C351 1.499 . S
C349 H323 0.950 . S
C349 C348 1.414 . S
C349 C350 1.374 . S
C350 H324 0.950 . S
C350 C346 1.385 . S
C350 C349 1.374 . S
C351 C348 1.499 . S
C351 C352 1.373 . S
C351 C353 1.389 . S
C352 H325 0.950 . S
C352 C338 1.377 . S
C352 C351 1.373 . S
C353 C337 1.377 . S
C353 C351 1.389 . S
C353 C354 1.524 . S
C354 C353 1.524 . S
C354 C355 1.397 . S
C354 C359 1.363 . S
C355 H326 0.950 . S
C355 C354 1.397 . S
C355 C356 1.334 . S
C356 H327 0.950 . S
C356 C355 1.334 . S
C356 C357 1.287 . S
C357 C356 1.287 . S
C357 C358 1.524 . S
C357 H360 0.999 . S
C358 H328 0.950 . S
C358 C357 1.524 . S
C358 C359 1.415 . S
C359 H329 0.950 . S
C359 C354 1.363 . S
C359 C358 1.415 . S
H360 C357 0.999 . S
H361 C342 0.913 . S
H362 C380 0.951 . S
H363 C382 0.951 . S
H364 C384 0.950 . S
H365 C385 0.950 . S
H366 C387 0.950 . S
H367 C390 0.950 . S
H368 C391 0.950 . S
H369 C393 0.950 . S
H370 C394 0.950 . S
H371 C395 0.951 . S
H372 C397 0.951 . S
H373 C399 0.950 . S
H374 C400 0.950 . S
H375 C402 0.950 . S
H376 C405 0.950 . S
H377 C406 0.950 . S
H378 C408 0.950 . S
H379 C409 0.950 . S
C380 H362 0.951 . S
C380 C381 1.366 . S
C380 C382 1.388 . S
C381 C380 1.366 . S
C381 C385 1.385 . S
C382 H363 0.951 . S
C382 C380 1.388 . S
C382 C383 1.366 . S
C383 C382 1.366 . S
C383 C384 1.414 . S
C383 C386 1.499 . S
C384 H364 0.950 . S
C384 C383 1.414 . S
C384 C385 1.374 . S
C385 H365 0.950 . S
C385 C381 1.385 . S
C385 C384 1.374 . S
C386 C383 1.499 . S
C386 C387 1.373 . S
C386 C388 1.389 . S
C387 H366 0.950 . S
C387 C386 1.373 . S
C387 C403 1.377 . S
C388 C386 1.389 . S
C388 C389 1.524 . S
C388 C402 1.377 . S
C389 C388 1.524 . S
C389 C390 1.397 . S
C389 C394 1.363 . S
C390 H367 0.950 . S
C390 C389 1.397 . S
C390 C391 1.334 . S
C391 H368 0.950 . S
C391 C390 1.334 . S
C391 C392 1.287 . S
C392 C391 1.287 . S
C392 C393 1.524 . S
C392 H411 0.913 . S
C393 H369 0.950 . S
C393 C392 1.524 . S
C393 C394 1.415 . S
C394 H370 0.950 . S
C394 C389 1.363 . S
C394 C393 1.415 . S
C395 H371 0.951 . S
C395 C396 1.366 . S
C395 C397 1.388 . S
C396 C395 1.366 . S
C396 C400 1.385 . S
C397 H372 0.951 . S
C397 C395 1.388 . S
C397 C398 1.366 . S
C398 C397 1.366 . S
C398 C399 1.414 . S
C398 C401 1.499 . S
C399 H373 0.950 . S
C399 C398 1.414 . S
C399 C400 1.374 . S
C400 H374 0.950 . S
C400 C396 1.385 . S
C400 C399 1.374 . S
C401 C398 1.499 . S
C401 C402 1.373 . S
C401 C403 1.389 . S
C402 H375 0.950 . S
C402 C388 1.377 . S
C402 C401 1.373 . S
C403 C387 1.377 . S
C403 C401 1.389 . S
C403 C404 1.524 . S
C404 C403 1.524 . S
C404 C405 1.397 . S
C404 C409 1.363 . S
C405 H376 0.950 . S
C405 C404 1.397 . S
C405 C406 1.334 . S
C406 H377 0.950 . S
C406 C405 1.334 . S
C406 C407 1.287 . S
C407 C406 1.287 . S
C407 C408 1.524 . S
C407 H410 0.999 . S
C408 H378 0.950 . S
C408 C407 1.524 . S
C408 C409 1.415 . S
C409 H379 0.950 . S
C409 C404 1.363 . S
C409 C408 1.415 . S
H410 C407 0.999 . S
H411 C392 0.913 . S
H412 C430 0.951 . S
H413 C432 0.951 . S
H414 C434 0.950 . S
H415 C435 0.950 . S
H416 C437 0.950 . S
H417 C440 0.950 . S
H418 C441 0.950 . S
H419 C443 0.950 . S
H420 C444 0.950 . S
H421 C445 0.951 . S
H422 C447 0.951 . S
H423 C449 0.950 . S
H424 C450 0.950 . S
H425 C452 0.950 . S
H426 C455 0.950 . S
H427 C456 0.950 . S
H428 C458 0.950 . S
H429 C459 0.950 . S
C430 H412 0.951 . S
C430 C431 1.366 . S
C430 C432 1.388 . S
C431 C430 1.366 . S
C431 C435 1.385 . S
C432 H413 0.951 . S
C432 C430 1.388 . S
C432 C433 1.366 . S
C433 C432 1.366 . S
C433 C434 1.414 . S
C433 C436 1.499 . S
C434 H414 0.950 . S
C434 C433 1.414 . S
C434 C435 1.374 . S
C435 H415 0.950 . S
C435 C431 1.385 . S
C435 C434 1.374 . S
C436 C433 1.499 . S
C436 C437 1.373 . S
C436 C438 1.389 . S
C437 H416 0.950 . S
C437 C436 1.373 . S
C437 C453 1.377 . S
C438 C436 1.389 . S
C438 C439 1.524 . S
C438 C452 1.377 . S
C439 C438 1.524 . S
C439 C440 1.397 . S
C439 C444 1.363 . S
C440 H417 0.950 . S
C440 C439 1.397 . S
C440 C441 1.334 . S
C441 H418 0.950 . S
C441 C440 1.334 . S
C441 C442 1.287 . S
C442 C441 1.287 . S
C442 C443 1.524 . S
C442 H461 0.913 . S
C443 H419 0.950 . S
C443 C442 1.524 . S
C443 C444 1.415 . S
C444 H420 0.950 . S
C444 C439 1.363 . S
C444 C443 1.415 . S
C445 H421 0.951 . S
C445 C446 1.366 . S
C445 C447 1.388 . S
C446 C445 1.366 . S
C446 C450 1.385 . S
C447 H422 0.951 . S
C447 C445 1.388 . S
C447 C448 1.366 . S
C448 C447 1.366 . S
C448 C449 1.414 . S
C448 C451 1.499 . S
C449 H423 0.950 . S
C449 C448 1.414 . S
C449 C450 1.374 . S
C450 H424 0.950 . S
C450 C446 1.385 . S
C450 C449 1.374 . S
C451 C448 1.499 . S
C451 C452 1.373 . S
C451 C453 1.389 . S
C452 H425 0.950 . S
C452 C438 1.377 . S
C452 C451 1.373 . S
C453 C437 1.377 . S
C453 C451 1.389 . S
C453 C454 1.524 . S
C454 C453 1.524 . S
C454 C455 1.397 . S
C454 C459 1.363 . S
C455 H426 0.950 . S
C455 C454 1.397 . S
C455 C456 1.334 . S
C456 H427 0.950 . S
C456 C455 1.334 . S
C456 C457 1.287 . S
C457 C456 1.287 . S
C457 C458 1.524 . S
C457 H460 0.999 . S
C458 H428 0.950 . S
C458 C457 1.524 . S
C458 C459 1.415 . S
C459 H429 0.950 . S
C459 C454 1.363 . S
C459 C458 1.415 . S
H460 C457 0.999 . S
H461 C442 0.913 . S
H462 C480 0.951 . S
H463 C482 0.951 . S
H464 C484 0.950 . S
H465 C485 0.950 . S
H466 C487 0.950 . S
H467 C490 0.950 . S
H468 C491 0.950 . S
H469 C493 0.968 . S
H470 C494 0.950 . S
H471 C495 0.951 1_455 S
H472 C497 0.951 . S
H473 C499 0.950 . S
H474 C500 0.950 . S
H475 C502 0.950 . S
H476 C505 0.950 . S
H477 C506 0.950 . S
H478 C508 0.950 . S
H479 C509 0.950 . S
C480 H462 0.951 . S
C480 C481 1.366 . S
C480 C482 1.388 . S
C481 C480 1.366 . S
C481 C485 1.385 . S
C482 H463 0.951 . S
C482 C480 1.388 . S
C482 C483 1.366 . S
C483 C482 1.366 . S
C483 C484 1.414 . S
C483 C486 1.499 . S
C484 H464 0.950 . S
C484 C483 1.414 . S
C484 C485 1.374 . S
C485 H465 0.950 . S
C485 C481 1.385 . S
C485 C484 1.374 . S
C486 C483 1.499 . S
C486 C487 1.373 . S
C486 C488 1.389 . S
C487 H466 0.950 . S
C487 C486 1.373 . S
C487 C503 1.377 . S
C488 C486 1.389 . S
C488 C489 1.524 . S
C488 C502 1.377 . S
C489 C488 1.524 . S
C489 C490 1.397 . S
C489 C494 1.363 . S
C490 H467 0.950 . S
C490 C489 1.397 . S
C490 C491 1.334 1_655 S
C491 H468 0.950 . S
C491 C490 1.334 1_455 S
C491 C492 1.287 . S
C492 C491 1.287 . S
C492 C493 1.529 . S
C492 H511 0.913 . S
C493 H469 0.968 . S
C493 C492 1.529 . S
C493 C494 1.391 1_455 S
C494 H470 0.950 . S
C494 C489 1.363 . S
C494 C493 1.391 1_655 S
C495 H471 0.951 1_655 S
C495 C496 1.366 . S
C495 C497 1.388 . S
C496 C495 1.366 . S
C496 C500 1.385 . S
C497 H472 0.951 . S
C497 C495 1.388 . S
C497 C498 1.366 . S
C498 C497 1.366 . S
C498 C499 1.414 . S
C498 C501 1.499 . S
C499 H473 0.950 . S
C499 C498 1.414 . S
C499 C500 1.374 . S
C500 H474 0.950 . S
C500 C496 1.385 . S
C500 C499 1.374 . S
C501 C498 1.499 . S
C501 C502 1.373 . S
C501 C503 1.389 . S
C502 H475 0.950 . S
C502 C488 1.377 . S
C502 C501 1.373 . S
C503 C487 1.377 . S
C503 C501 1.389 . S
C503 C504 1.524 . S
C504 C503 1.524 . S
C504 C505 1.397 . S
C504 C509 1.363 . S
C505 H476 0.950 . S
C505 C504 1.397 . S
C505 C506 1.334 . S
C506 H477 0.950 . S
C506 C505 1.334 . S
C506 C507 1.287 . S
C507 C506 1.287 . S
C507 C508 1.524 . S
C507 H510 0.999 . S
C508 H478 0.950 . S
C508 C507 1.524 . S
C508 C509 1.415 . S
C509 H479 0.950 . S
C509 C504 1.363 . S
C509 C508 1.415 . S
H510 C507 0.999 . S
H511 C492 0.913 . S
H512 C530 0.951 . S
H513 C532 0.951 . S
H514 C534 0.950 . S
H515 C535 0.950 . S
H516 C537 0.950 . S
H517 C540 0.950 . S
H518 C541 0.950 . S
H519 C543 0.950 . S
H520 C544 0.950 . S
H521 C545 0.951 . S
H522 C547 0.951 . S
H523 C549 0.950 . S
H524 C550 0.950 . S
H525 C552 0.950 . S
H526 C555 0.950 . S
H527 C556 0.950 . S
H528 C558 0.950 . S
H529 C559 0.950 . S
C530 H512 0.951 . S
C530 C531 1.366 . S
C530 C532 1.388 . S
C531 C530 1.366 . S
C531 C535 1.385 . S
C532 H513 0.951 . S
C532 C530 1.388 . S
C532 C533 1.366 . S
C533 C532 1.366 . S
C533 C534 1.414 . S
C533 C536 1.499 . S
C534 H514 0.950 . S
C534 C533 1.414 . S
C534 C535 1.374 . S
C535 H515 0.950 . S
C535 C531 1.385 . S
C535 C534 1.374 . S
C536 C533 1.499 . S
C536 C537 1.373 . S
C536 C538 1.389 . S
C537 H516 0.950 . S
C537 C536 1.373 . S
C537 C553 1.377 . S
C538 C536 1.389 . S
C538 C539 1.524 . S
C538 C552 1.377 . S
C539 C538 1.524 . S
C539 C540 1.397 . S
C539 C544 1.363 . S
C540 H517 0.950 . S
C540 C539 1.397 . S
C540 C541 1.334 . S
C541 H518 0.950 . S
C541 C540 1.334 . S
C541 C542 1.287 . S
C542 C541 1.287 . S
C542 C543 1.524 . S
C542 H561 0.913 . S
C543 H519 0.950 . S
C543 C542 1.524 . S
C543 C544 1.415 . S
C544 H520 0.950 . S
C544 C539 1.363 . S
C544 C543 1.415 . S
C545 H521 0.951 . S
C545 C546 1.366 . S
C545 C547 1.388 . S
C546 C545 1.366 . S
C546 C550 1.385 . S
C547 H522 0.951 . S
C547 C545 1.388 . S
C547 C548 1.366 . S
C548 C547 1.366 . S
C548 C549 1.414 . S
C548 C551 1.499 . S
C549 H523 0.950 . S
C549 C548 1.414 . S
C549 C550 1.374 . S
C550 H524 0.950 . S
C550 C546 1.385 . S
C550 C549 1.374 . S
C551 C548 1.499 . S
C551 C552 1.373 . S
C551 C553 1.389 . S
C552 H525 0.950 . S
C552 C538 1.377 . S
C552 C551 1.373 . S
C553 C537 1.377 . S
C553 C551 1.389 . S
C553 C554 1.524 . S
C554 C553 1.524 . S
C554 C555 1.397 . S
C554 C559 1.363 . S
C555 H526 0.950 . S
C555 C554 1.397 . S
C555 C556 1.334 . S
C556 H527 0.950 . S
C556 C555 1.334 . S
C556 C557 1.287 . S
C557 C556 1.287 . S
C557 C558 1.524 . S
C557 H560 0.999 . S
C558 H528 0.950 . S
C558 C557 1.524 . S
C558 C559 1.415 . S
C559 H529 0.950 . S
C559 C554 1.363 . S
C559 C558 1.415 . S
H560 C557 0.999 . S
H561 C542 0.913 . S
H562 C580 0.951 . S
H563 C582 0.951 . S
H564 C584 0.950 . S
H565 C585 0.950 . S
H566 C587 0.950 . S
H567 C590 0.950 . S
H568 C591 0.950 . S
H569 C593 0.950 . S
H570 C594 0.950 . S
H571 C595 0.951 . S
H572 C597 0.951 . S
H573 C599 0.950 . S
H574 C600 0.950 1_545 S
H575 C602 0.950 . S
H576 C605 0.950 . S
H577 C606 0.950 . S
H578 C608 0.950 . S
H579 C609 0.950 . S
C580 H562 0.951 . S
C580 C581 1.366 . S
C580 C582 1.388 . S
C581 C580 1.366 . S
C581 C585 1.385 . S
C582 H563 0.951 . S
C582 C580 1.388 . S
C582 C583 1.366 . S
C583 C582 1.366 . S
C583 C584 1.414 . S
C583 C586 1.499 . S
C584 H564 0.950 . S
C584 C583 1.414 . S
C584 C585 1.374 . S
C585 H565 0.950 . S
C585 C581 1.385 . S
C585 C584 1.374 . S
C586 C583 1.499 . S
C586 C587 1.373 . S
C586 C588 1.389 . S
C587 H566 0.950 . S
C587 C586 1.373 . S
C587 C603 1.377 . S
C588 C586 1.389 . S
C588 C589 1.524 . S
C588 C602 1.377 . S
C589 C588 1.524 . S
C589 C590 1.397 . S
C589 C594 1.363 . S
C590 H567 0.950 . S
C590 C589 1.397 . S
C590 C591 1.334 . S
C591 H568 0.950 . S
C591 C590 1.334 . S
C591 C592 1.287 . S
C592 C591 1.287 . S
C592 C593 1.524 . S
C592 H611 0.913 . S
C593 H569 0.950 . S
C593 C592 1.524 . S
C593 C594 1.415 . S
C594 H570 0.950 . S
C594 C589 1.363 . S
C594 C593 1.415 . S
C595 H571 0.951 . S
C595 C596 1.366 . S
C595 C597 1.388 . S
C596 C595 1.366 . S
C596 C600 1.385 . S
C597 H572 0.951 . S
C597 C595 1.388 . S
C597 C598 1.366 . S
C598 C597 1.366 . S
C598 C599 1.414 . S
C598 C601 1.499 . S
C599 H573 0.950 . S
C599 C598 1.414 . S
C599 C600 1.374 . S
C600 H574 0.950 1_565 S
C600 C596 1.385 . S
C600 C599 1.374 . S
C601 C598 1.499 . S
C601 C602 1.373 . S
C601 C603 1.389 . S
C602 H575 0.950 . S
C602 C588 1.377 . S
C602 C601 1.373 . S
C603 C587 1.377 . S
C603 C601 1.389 . S
C603 C604 1.524 . S
C604 C603 1.524 . S
C604 C605 1.397 . S
C604 C609 1.363 . S
C605 H576 0.950 . S
C605 C604 1.397 . S
C605 C606 1.334 . S
C606 H577 0.950 . S
C606 C605 1.334 . S
C606 C607 1.287 . S
C607 C606 1.287 . S
C607 C608 1.524 . S
C607 H610 0.999 . S
C608 H578 0.950 . S
C608 C607 1.524 . S
C608 C609 1.415 . S
C609 H579 0.950 . S
C609 C604 1.363 . S
C609 C608 1.415 . S
H610 C607 0.999 . S
H611 C592 0.913 . S
H612 C630 0.951 . S
H613 C632 0.951 . S
H614 C634 0.950 . S
H615 C635 0.950 . S
H616 C637 0.950 . S
H617 C640 0.950 . S
H618 C641 0.950 . S
H619 C643 0.950 . S
H620 C644 0.950 . S
H621 C645 0.951 . S
H622 C647 0.951 1_554 S
H623 C649 0.950 . S
H624 C650 0.950 . S
H625 C652 0.950 . S
H626 C655 0.950 1_556 S
H627 C656 0.950 . S
H628 C658 0.950 . S
H629 C659 0.950 . S
C630 H612 0.951 . S
C630 C631 1.366 . S
C630 C632 1.388 . S
C631 C630 1.366 . S
C631 C635 1.385 . S
C632 H613 0.951 . S
C632 C630 1.388 . S
C632 C633 1.366 . S
C633 C632 1.366 . S
C633 C634 1.414 . S
C633 C636 1.499 . S
C634 H614 0.950 . S
C634 C633 1.414 . S
C634 C635 1.374 . S
C635 H615 0.950 . S
C635 C631 1.385 . S
C635 C634 1.374 . S
C636 C633 1.499 . S
C636 C637 1.373 . S
C636 C638 1.389 . S
C637 H616 0.950 . S
C637 C636 1.373 . S
C637 C653 1.377 . S
C638 C636 1.389 . S
C638 C639 1.524 . S
C638 C652 1.377 . S
C639 C638 1.524 . S
C639 C640 1.397 . S
C639 C644 1.363 . S
C640 H617 0.950 . S
C640 C639 1.397 . S
C640 C641 1.334 . S
C641 H618 0.950 . S
C641 C640 1.334 . S
C641 C642 1.287 . S
C642 C641 1.287 . S
C642 C643 1.524 . S
C642 H661 0.913 . S
C643 H619 0.950 . S
C643 C642 1.524 . S
C643 C644 1.415 . S
C644 H620 0.950 . S
C644 C639 1.363 . S
C644 C643 1.415 . S
C645 H621 0.951 . S
C645 C646 1.366 1_554 S
C645 C647 1.388 1_554 S
C646 C645 1.366 1_556 S
C646 C650 1.385 . S
C647 H622 0.951 1_556 S
C647 C645 1.388 1_556 S
C647 C648 1.366 . S
C648 C647 1.366 . S
C648 C649 1.414 . S
C648 C651 1.499 . S
C649 H623 0.950 . S
C649 C648 1.414 . S
C649 C650 1.374 . S
C650 H624 0.950 . S
C650 C646 1.385 . S
C650 C649 1.374 . S
C651 C648 1.499 . S
C651 C652 1.373 . S
C651 C653 1.389 . S
C652 H625 0.950 . S
C652 C638 1.377 . S
C652 C651 1.373 . S
C653 C637 1.377 . S
C653 C651 1.389 . S
C653 C654 1.524 1_556 S
C654 C653 1.524 1_554 S
C654 C655 1.397 . S
C654 C659 1.363 . S
C655 H626 0.950 1_554 S
C655 C654 1.397 . S
C655 C656 1.334 . S
C656 H627 0.950 . S
C656 C655 1.334 . S
C656 C657 1.287 . S
C657 C656 1.287 . S
C657 C658 1.524 . S
C657 H660 0.999 . S
C658 H628 0.950 . S
C658 C657 1.524 . S
C658 C659 1.415 . S
C659 H629 0.950 . S
C659 C654 1.363 . S
C659 C658 1.415 . S
H660 C657 0.999 . S
H661 C642 0.913 . S
H662 C680 0.951 . S
H663 C682 0.951 . S
H664 C684 0.950 . S
H665 C685 0.950 . S
H666 C687 0.950 . S
H667 C690 0.950 . S
H668 C691 0.950 . S
H669 C693 0.950 . S
H670 C694 0.950 . S
H671 C695 0.951 . S
H672 C697 0.951 . S
H673 C699 0.950 . S
H674 C700 0.950 . S
H675 C702 0.950 . S
H676 C705 0.950 . S
H677 C706 0.950 . S
H678 C708 0.950 . S
H679 C709 0.950 . S
C680 H662 0.951 . S
C680 C681 1.366 . S
C680 C682 1.388 . S
C681 C680 1.366 . S
C681 C685 1.385 . S
C682 H663 0.951 . S
C682 C680 1.388 . S
C682 C683 1.366 . S
C683 C682 1.366 . S
C683 C684 1.414 . S
C683 C686 1.499 . S
C684 H664 0.950 . S
C684 C683 1.414 . S
C684 C685 1.374 . S
C685 H665 0.950 . S
C685 C681 1.385 . S
C685 C684 1.374 . S
C686 C683 1.499 . S
C686 C687 1.373 . S
C686 C688 1.389 . S
C687 H666 0.950 . S
C687 C686 1.373 . S
C687 C703 1.377 . S
C688 C686 1.389 . S
C688 C689 1.524 . S
C688 C702 1.377 . S
C689 C688 1.524 . S
C689 C690 1.397 . S
C689 C694 1.363 . S
C690 H667 0.950 . S
C690 C689 1.397 . S
C690 C691 1.334 . S
C691 H668 0.950 . S
C691 C690 1.334 . S
C691 C692 1.287 . S
C692 C691 1.287 . S
C692 C693 1.524 . S
C692 H711 0.913 . S
C693 H669 0.950 . S
C693 C692 1.524 . S
C693 C694 1.415 . S
C694 H670 0.950 . S
C694 C689 1.363 . S
C694 C693 1.415 . S
C695 H671 0.951 . S
C695 C696 1.366 . S
C695 C697 1.388 . S
C696 C695 1.366 . S
C696 C700 1.385 . S
C697 H672 0.951 . S
C697 C695 1.388 . S
C697 C698 1.366 . S
C698 C697 1.366 . S
C698 C699 1.414 . S
C698 C701 1.499 . S
C699 H673 0.950 . S
C699 C698 1.414 . S
C699 C700 1.374 . S
C700 H674 0.950 . S
C700 C696 1.385 . S
C700 C699 1.374 . S
C701 C698 1.499 . S
C701 C702 1.373 . S
C701 C703 1.389 . S
C702 H675 0.950 . S
C702 C688 1.377 . S
C702 C701 1.373 . S
C703 C687 1.377 . S
C703 C701 1.389 . S
C703 C704 1.524 . S
C704 C703 1.524 . S
C704 C705 1.397 . S
C704 C709 1.363 . S
C705 H676 0.950 . S
C705 C704 1.397 . S
C705 C706 1.334 . S
C706 H677 0.950 . S
C706 C705 1.334 . S
C706 C707 1.287 . S
C707 C706 1.287 . S
C707 C708 1.524 . S
C707 H710 0.999 . S
C708 H678 0.950 . S
C708 C707 1.524 . S
C708 C709 1.415 . S
C709 H679 0.950 . S
C709 C704 1.363 . S
C709 C708 1.415 . S
H710 C707 0.999 . S
H711 C692 0.913 . S
H712 C730 0.951 . S
H713 C732 0.951 . S
H714 C734 0.950 . S
H715 C735 0.950 . S
H716 C737 0.950 . S
H717 C740 0.950 . S
H718 C741 0.950 . S
H719 C743 0.950 . S
H720 C744 0.950 . S
H721 C745 0.951 . S
H722 C747 0.951 . S
H723 C749 0.950 . S
H724 C750 0.950 . S
H725 C752 0.950 . S
H726 C755 0.950 . S
H727 C756 0.950 . S
H728 C758 0.950 . S
H729 C759 0.950 . S
C730 H712 0.951 . S
C730 C731 1.366 . S
C730 C732 1.388 . S
C731 C730 1.366 . S
C731 C735 1.385 . S
C732 H713 0.951 . S
C732 C730 1.388 . S
C732 C733 1.366 . S
C733 C732 1.366 . S
C733 C734 1.414 . S
C733 C736 1.499 . S
C734 H714 0.950 . S
C734 C733 1.414 . S
C734 C735 1.374 . S
C735 H715 0.950 . S
C735 C731 1.385 . S
C735 C734 1.374 . S
C736 C733 1.499 . S
C736 C737 1.373 . S
C736 C738 1.389 . S
C737 H716 0.950 . S
C737 C736 1.373 . S
C737 C753 1.377 . S
C738 C736 1.389 . S
C738 C739 1.524 . S
C738 C752 1.377 . S
C739 C738 1.524 . S
C739 C740 1.397 . S
C739 C744 1.363 . S
C740 H717 0.950 . S
C740 C739 1.397 . S
C740 C741 1.334 . S
C741 H718 0.950 . S
C741 C740 1.334 . S
C741 C742 1.287 . S
C742 C741 1.287 . S
C742 C743 1.524 . S
C742 H761 0.913 . S
C743 H719 0.950 . S
C743 C742 1.524 . S
C743 C744 1.415 . S
C744 H720 0.950 . S
C744 C739 1.363 . S
C744 C743 1.415 . S
C745 H721 0.951 . S
C745 C746 1.366 . S
C745 C747 1.388 . S
C746 C745 1.366 . S
C746 C750 1.385 . S
C747 H722 0.951 . S
C747 C745 1.388 . S
C747 C748 1.366 . S
C748 C747 1.366 . S
C748 C749 1.414 . S
C748 C751 1.499 . S
C749 H723 0.950 . S
C749 C748 1.414 . S
C749 C750 1.374 . S
C750 H724 0.950 . S
C750 C746 1.385 . S
C750 C749 1.374 . S
C751 C748 1.499 . S
C751 C752 1.373 . S
C751 C753 1.389 . S
C752 H725 0.950 . S
C752 C738 1.377 . S
C752 C751 1.373 . S
C753 C737 1.377 . S
C753 C751 1.389 . S
C753 C754 1.524 . S
C754 C753 1.524 . S
C754 C755 1.397 . S
C754 C759 1.363 . S
C755 H726 0.950 . S
C755 C754 1.397 . S
C755 C756 1.334 . S
C756 H727 0.950 . S
C756 C755 1.334 . S
C756 C757 1.287 . S
C757 C756 1.287 . S
C757 C758 1.524 . S
C757 H760 0.999 1_554 S
C758 H728 0.950 . S
C758 C757 1.524 . S
C758 C759 1.415 . S
C759 H729 0.950 . S
C759 C754 1.363 . S
C759 C758 1.415 . S
H760 C757 0.999 1_556 S
H761 C742 0.913 . S
H762 C780 0.951 . S
H763 C782 0.951 . S
H764 C784 0.950 . S
H765 C785 0.950 . S
H766 C787 0.950 . S
H767 C790 0.950 . S
H768 C791 0.950 . S
H769 C793 0.950 . S
H770 C794 0.950 . S
H771 C795 0.951 . S
H772 C797 0.951 . S
H773 C799 0.950 . S
H774 C800 0.950 . S
H775 C802 0.950 . S
H776 C805 0.950 . S
H777 C806 0.950 . S
H778 C808 0.950 . S
H779 C809 0.950 . S
C780 H762 0.951 . S
C780 C781 1.366 . S
C780 C782 1.388 . S
C781 C780 1.366 . S
C781 C785 1.385 . S
C782 H763 0.951 . S
C782 C780 1.388 . S
C782 C783 1.366 . S
C783 C782 1.366 . S
C783 C784 1.414 . S
C783 C786 1.499 . S
C784 H764 0.950 . S
C784 C783 1.414 . S
C784 C785 1.374 . S
C785 H765 0.950 . S
C785 C781 1.385 . S
C785 C784 1.374 . S
C786 C783 1.499 . S
C786 C787 1.373 . S
C786 C788 1.389 1_556 S
C787 H766 0.950 . S
C787 C786 1.373 . S
C787 C803 1.377 . S
C788 C786 1.389 1_554 S
C788 C789 1.524 . S
C788 C802 1.377 . S
C789 C788 1.524 . S
C789 C790 1.397 . S
C789 C794 1.363 . S
C790 H767 0.950 . S
C790 C789 1.397 . S
C790 C791 1.334 . S
C791 H768 0.950 . S
C791 C790 1.334 . S
C791 C792 1.287 . S
C792 C791 1.287 . S
C792 C793 1.524 . S
C792 H811 0.913 . S
C793 H769 0.950 . S
C793 C792 1.524 . S
C793 C794 1.415 . S
C794 H770 0.950 . S
C794 C789 1.363 . S
C794 C793 1.415 . S
C795 H771 0.951 . S
C795 C796 1.366 . S
C795 C797 1.388 . S
C796 C795 1.366 . S
C796 C800 1.385 . S
C797 H772 0.951 . S
C797 C795 1.388 . S
C797 C798 1.366 . S
C798 C797 1.366 . S
C798 C799 1.414 . S
C798 C801 1.499 . S
C799 H773 0.950 . S
C799 C798 1.414 . S
C799 C800 1.374 . S
C800 H774 0.950 . S
C800 C796 1.385 . S
C800 C799 1.374 . S
C801 C798 1.499 . S
C801 C802 1.373 . S
C801 C803 1.389 1_554 S
C802 H775 0.950 . S
C802 C788 1.377 . S
C802 C801 1.373 . S
C803 C787 1.377 . S
C803 C801 1.389 1_556 S
C803 C804 1.524 . S
C804 C803 1.524 . S
C804 C805 1.397 . S
C804 C809 1.363 . S
C805 H776 0.950 . S
C805 C804 1.397 . S
C805 C806 1.334 . S
C806 H777 0.950 . S
C806 C805 1.334 . S
C806 C807 1.287 . S
C807 C806 1.287 . S
C807 C808 1.524 . S
C807 H810 0.999 . S
C808 H778 0.950 . S
C808 C807 1.524 . S
C808 C809 1.415 . S
C809 H779 0.950 . S
C809 C804 1.363 . S
C809 C808 1.415 . S
H810 C807 0.999 . S
H811 C792 0.913 . S
H812 C830 0.951 . S
H813 C832 0.951 . S
H814 C834 0.950 . S
H815 C835 0.950 . S
H816 C837 0.950 . S
H817 C840 0.950 . S
H818 C841 0.950 . S
H819 C843 0.950 . S
H820 C844 0.950 . S
H821 C845 0.951 . S
H822 C847 0.951 . S
H823 C849 0.950 . S
H824 C850 0.950 . S
H825 C852 0.950 . S
H826 C855 0.949 1_455 S
H827 C856 0.950 . S
H828 C858 0.950 . S
H829 C859 0.950 . S
C830 H812 0.951 . S
C830 C831 1.366 . S
C830 C832 1.388 . S
C831 C830 1.366 . S
C831 C835 1.385 . S
C832 H813 0.951 . S
C832 C830 1.388 . S
C832 C833 1.366 . S
C833 C832 1.366 . S
C833 C834 1.414 . S
C833 C836 1.499 . S
C834 H814 0.950 . S
C834 C833 1.414 . S
C834 C835 1.374 . S
C835 H815 0.950 . S
C835 C831 1.385 . S
C835 C834 1.374 . S
C836 C833 1.499 . S
C836 C837 1.373 . S
C836 C838 1.389 . S
C837 H816 0.950 . S
C837 C836 1.373 . S
C837 C853 1.377 . S
C838 C836 1.389 . S
C838 C839 1.524 . S
C838 C852 1.377 . S
C839 C838 1.524 . S
C839 C840 1.397 . S
C839 C844 1.363 . S
C840 H817 0.950 . S
C840 C839 1.397 . S
C840 C841 1.334 . S
C841 H818 0.950 . S
C841 C840 1.334 . S
C841 C842 1.287 . S
C842 C841 1.287 . S
C842 C843 1.524 . S
C842 H861 0.913 . S
C843 H819 0.950 . S
C843 C842 1.524 . S
C843 C844 1.415 . S
C844 H820 0.950 . S
C844 C839 1.363 . S
C844 C843 1.415 . S
C845 H821 0.951 . S
C845 C846 1.366 . S
C845 C847 1.388 . S
C846 C845 1.366 . S
C846 C850 1.385 . S
C847 H822 0.951 . S
C847 C845 1.388 . S
C847 C848 1.366 . S
C848 C847 1.366 . S
C848 C849 1.414 . S
C848 C851 1.499 . S
C849 H823 0.950 . S
C849 C848 1.414 . S
C849 C850 1.374 . S
C850 H824 0.950 . S
C850 C846 1.385 . S
C850 C849 1.374 . S
C851 C848 1.499 . S
C851 C852 1.373 . S
C851 C853 1.389 . S
C852 H825 0.950 . S
C852 C838 1.377 . S
C852 C851 1.373 . S
C853 C837 1.377 . S
C853 C851 1.389 . S
C853 C854 1.524 . S
C854 C853 1.524 . S
C854 C855 1.400 . S
C854 C859 1.363 . S
C855 H826 0.949 1_655 S
C855 C854 1.400 . S
C855 C856 1.332 1_655 S
C856 H827 0.950 . S
C856 C855 1.332 1_455 S
C856 C857 1.287 . S
C857 C856 1.287 . S
C857 C858 1.524 1_455 S
C857 H860 0.999 . S
C858 H828 0.950 . S
C858 C857 1.524 1_655 S
C858 C859 1.415 . S
C859 H829 0.950 . S
C859 C854 1.363 . S
C859 C858 1.415 . S
H860 C857 0.999 . S
H861 C842 0.913 . S
H862 C880 0.951 . S
H863 C882 0.951 . S
H864 C884 0.950 . S
H865 C885 0.950 . S
H866 C887 0.950 . S
H867 C890 0.950 . S
H868 C891 0.950 . S
H869 C893 0.950 . S
H870 C894 0.950 . S
H871 C895 0.951 . S
H872 C897 0.951 . S
H873 C899 0.950 . S
H874 C900 0.950 . S
H875 C902 0.950 . S
H876 C905 0.950 . S
H877 C906 0.950 . S
H878 C908 0.950 . S
H879 C909 0.950 . S
C880 H862 0.951 . S
C880 C881 1.366 . S
C880 C882 1.388 . S
C881 C880 1.366 . S
C881 C885 1.385 . S
C882 H863 0.951 . S
C882 C880 1.388 . S
C882 C883 1.366 . S
C883 C882 1.366 . S
C883 C884 1.414 . S
C883 C886 1.499 . S
C884 H864 0.950 . S
C884 C883 1.414 . S
C884 C885 1.374 . S
C885 H865 0.950 . S
C885 C881 1.385 . S
C885 C884 1.374 . S
C886 C883 1.499 . S
C886 C887 1.373 . S
C886 C888 1.389 . S
C887 H866 0.950 . S
C887 C886 1.373 . S
C887 C903 1.377 . S
C888 C886 1.389 . S
C888 C889 1.524 . S
C888 C902 1.377 . S
C889 C888 1.524 . S
C889 C890 1.397 . S
C889 C894 1.363 . S
C890 H867 0.950 . S
C890 C889 1.397 . S
C890 C891 1.334 . S
C891 H868 0.950 . S
C891 C890 1.334 . S
C891 C892 1.287 . S
C892 C891 1.287 . S
C892 C893 1.524 . S
C892 H911 0.913 . S
C893 H869 0.950 . S
C893 C892 1.524 . S
C893 C894 1.415 . S
C894 H870 0.950 . S
C894 C889 1.363 . S
C894 C893 1.415 . S
C895 H871 0.951 . S
C895 C896 1.366 . S
C895 C897 1.388 . S
C896 C895 1.366 . S
C896 C900 1.385 . S
C897 H872 0.951 . S
C897 C895 1.388 . S
C897 C898 1.366 . S
C898 C897 1.366 . S
C898 C899 1.414 . S
C898 C901 1.499 . S
C899 H873 0.950 . S
C899 C898 1.414 . S
C899 C900 1.374 . S
C900 H874 0.950 . S
C900 C896 1.385 . S
C900 C899 1.374 . S
C901 C898 1.499 . S
C901 C902 1.373 . S
C901 C903 1.389 . S
C902 H875 0.950 . S
C902 C888 1.377 . S
C902 C901 1.373 . S
C903 C887 1.377 . S
C903 C901 1.389 . S
C903 C904 1.524 . S
C904 C903 1.524 . S
C904 C905 1.397 . S
C904 C909 1.363 . S
C905 H876 0.950 . S
C905 C904 1.397 . S
C905 C906 1.334 . S
C906 H877 0.950 . S
C906 C905 1.334 . S
C906 C907 1.287 . S
C907 C906 1.287 . S
C907 C908 1.524 . S
C907 H910 0.999 . S
C908 H878 0.950 . S
C908 C907 1.524 . S
C908 C909 1.415 . S
C909 H879 0.950 . S
C909 C904 1.363 . S
C909 C908 1.415 . S
H910 C907 0.999 . S
H911 C892 0.913 . S
H912 C930 0.951 . S
H913 C932 0.951 . S
H914 C934 0.950 . S
H915 C935 0.950 . S
H916 C937 0.950 . S
H917 C940 0.950 . S
H918 C941 0.950 . S
H919 C943 0.950 . S
H920 C944 0.950 . S
H921 C945 0.951 . S
H922 C947 0.951 . S
H923 C949 0.950 . S
H924 C950 0.950 . S
H925 C952 0.950 . S
H926 C955 0.950 . S
H927 C956 0.950 . S
H928 C958 0.950 . S
H929 C959 0.950 . S
C930 H912 0.951 . S
C930 C931 1.366 . S
C930 C932 1.388 . S
C931 C930 1.366 . S
C931 C935 1.385 . S
C932 H913 0.951 . S
C932 C930 1.388 . S
C932 C933 1.366 . S
C933 C932 1.366 . S
C933 C934 1.414 . S
C933 C936 1.499 . S
C934 H914 0.950 . S
C934 C933 1.414 . S
C934 C935 1.374 . S
C935 H915 0.950 . S
C935 C931 1.385 . S
C935 C934 1.374 . S
C936 C933 1.499 . S
C936 C937 1.373 . S
C936 C938 1.389 . S
C937 H916 0.950 . S
C937 C936 1.373 . S
C937 C953 1.377 . S
C938 C936 1.389 . S
C938 C939 1.524 . S
C938 C952 1.377 . S
C939 C938 1.524 . S
C939 C940 1.397 . S
C939 C944 1.363 . S
C940 H917 0.950 . S
C940 C939 1.397 . S
C940 C941 1.334 . S
C941 H918 0.950 . S
C941 C940 1.334 . S
C941 C942 1.287 . S
C942 C941 1.287 . S
C942 C943 1.524 . S
C942 H961 0.913 . S
C943 H919 0.950 . S
C943 C942 1.524 . S
C943 C944 1.415 . S
C944 H920 0.950 . S
C944 C939 1.363 . S
C944 C943 1.415 . S
C945 H921 0.951 . S
C945 C946 1.366 . S
C945 C947 1.388 . S
C946 C945 1.366 . S
C946 C950 1.385 . S
C947 H922 0.951 . S
C947 C945 1.388 . S
C947 C948 1.366 . S
C948 C947 1.366 . S
C948 C949 1.414 . S
C948 C951 1.499 . S
C949 H923 0.950 . S
C949 C948 1.414 . S
C949 C950 1.374 . S
C950 H924 0.950 . S
C950 C946 1.385 . S
C950 C949 1.374 . S
C951 C948 1.499 . S
C951 C952 1.373 . S
C951 C953 1.389 . S
C952 H925 0.950 . S
C952 C938 1.377 . S
C952 C951 1.373 . S
C953 C937 1.377 . S
C953 C951 1.389 . S
C953 C954 1.524 . S
C954 C953 1.524 . S
C954 C955 1.397 . S
C954 C959 1.363 . S
C955 H926 0.950 . S
C955 C954 1.397 . S
C955 C956 1.334 . S
C956 H927 0.950 . S
C956 C955 1.334 . S
C956 C957 1.287 . S
C957 C956 1.287 . S
C957 C958 1.524 . S
C957 H960 0.999 . S
C958 H928 0.950 . S
C958 C957 1.524 . S
C958 C959 1.415 . S
C959 H929 0.950 . S
C959 C954 1.363 . S
C959 C958 1.415 . S
H960 C957 0.999 . S
H961 C942 0.913 . S
H962 C980 0.951 . S
H963 C982 0.951 . S
H964 C984 0.950 . S
H965 C985 0.950 . S
H966 C987 0.950 . S
H967 C990 0.950 . S
H968 C991 0.950 . S
H969 C993 0.950 . S
H970 C994 0.950 . S
H971 C995 0.951 . S
H972 C997 0.951 . S
H973 C999 0.950 . S
H974 C1000 0.950 . S
H975 C1002 0.950 . S
H976 C1005 0.950 . S
H977 C1006 0.950 . S
H978 C1008 0.950 . S
H979 C1009 0.950 . S
C980 H962 0.951 . S
C980 C981 1.366 . S
C980 C982 1.388 . S
C981 C980 1.366 . S
C981 C985 1.385 . S
C982 H963 0.951 . S
C982 C980 1.388 . S
C982 C983 1.366 . S
C983 C982 1.366 . S
C983 C984 1.414 . S
C983 C986 1.499 . S
C984 H964 0.950 . S
C984 C983 1.414 . S
C984 C985 1.374 . S
C985 H965 0.950 . S
C985 C981 1.385 . S
C985 C984 1.374 . S
C986 C983 1.499 . S
C986 C987 1.373 . S
C986 C988 1.389 . S
C987 H966 0.950 . S
C987 C986 1.373 . S
C987 C1003 1.377 . S
C988 C986 1.389 . S
C988 C989 1.524 . S
C988 C1002 1.377 . S
C989 C988 1.524 . S
C989 C990 1.397 . S
C989 C994 1.363 . S
C990 H967 0.950 . S
C990 C989 1.397 . S
C990 C991 1.334 . S
C991 H968 0.950 . S
C991 C990 1.334 . S
C991 C992 1.287 . S
C992 C991 1.287 . S
C992 C993 1.524 . S
C992 H1011 0.913 . S
C993 H969 0.950 . S
C993 C992 1.524 . S
C993 C994 1.415 . S
C994 H970 0.950 . S
C994 C989 1.363 . S
C994 C993 1.415 . S
C995 H971 0.951 . S
C995 C996 1.366 . S
C995 C997 1.388 . S
C996 C995 1.366 . S
C996 C1000 1.385 . S
C997 H972 0.951 . S
C997 C995 1.388 . S
C997 C998 1.366 . S
C998 C997 1.366 . S
C998 C999 1.414 . S
C998 C1001 1.499 . S
C999 H973 0.950 . S
C999 C998 1.414 . S
C999 C1000 1.374 . S
C1000 H974 0.950 . S
C1000 C996 1.385 . S
C1000 C999 1.374 . S
C1001 C998 1.499 . S
C1001 C1002 1.373 . S
C1001 C1003 1.389 . S
C1002 H975 0.950 . S
C1002 C988 1.377 . S
C1002 C1001 1.373 . S
C1003 C987 1.377 . S
C1003 C1001 1.389 . S
C1003 C1004 1.524 . S
C1004 C1003 1.524 . S
C1004 C1005 1.397 . S
C1004 C1009 1.363 . S
C1005 H976 0.950 . S
C1005 C1004 1.397 . S
C1005 C1006 1.334 . S
C1006 H977 0.950 . S
C1006 C1005 1.334 . S
C1006 C1007 1.287 . S
C1007 C1006 1.287 . S
C1007 C1008 1.524 . S
C1007 H1010 0.999 . S
C1008 H978 0.950 . S
C1008 C1007 1.524 . S
C1008 C1009 1.415 . S
C1009 H979 0.950 . S
C1009 C1004 1.363 . S
C1009 C1008 1.415 . S
H1010 C1007 0.999 . S
H1011 C992 0.913 . S
H1012 C1030 0.951 . S
H1013 C1032 0.951 . S
H1014 C1034 0.950 . S
H1015 C1035 0.950 . S
H1016 C1037 0.950 . S
H1017 C1040 0.950 . S
H1018 C1041 0.950 . S
H1019 C1043 0.950 . S
H1020 C1044 0.950 . S
H1021 C1045 0.951 . S
H1022 C1047 0.951 . S
H1023 C1049 0.950 . S
H1024 C1050 0.950 . S
H1025 C1052 0.950 . S
H1026 C1055 0.950 . S
H1027 C1056 0.950 . S
H1028 C1058 0.950 . S
H1029 C1059 0.950 . S
C1030 H1012 0.951 . S
C1030 C1031 1.366 . S
C1030 C1032 1.388 . S
C1031 C1030 1.366 . S
C1031 C1035 1.385 . S
C1032 H1013 0.951 . S
C1032 C1030 1.388 . S
C1032 C1033 1.366 . S
C1033 C1032 1.366 . S
C1033 C1034 1.414 . S
C1033 C1036 1.499 . S
C1034 H1014 0.950 . S
C1034 C1033 1.414 . S
C1034 C1035 1.374 . S
C1035 H1015 0.950 . S
C1035 C1031 1.385 . S
C1035 C1034 1.374 . S
C1036 C1033 1.499 . S
C1036 C1037 1.373 . S
C1036 C1038 1.389 . S
C1037 H1016 0.950 . S
C1037 C1036 1.373 . S
C1037 C1053 1.377 . S
C1038 C1036 1.389 . S
C1038 C1039 1.524 . S
C1038 C1052 1.377 . S
C1039 C1038 1.524 . S
C1039 C1040 1.397 . S
C1039 C1044 1.363 . S
C1040 H1017 0.950 . S
C1040 C1039 1.397 . S
C1040 C1041 1.334 . S
C1041 H1018 0.950 . S
C1041 C1040 1.334 . S
C1041 C1042 1.287 . S
C1042 C1041 1.287 . S
C1042 C1043 1.524 . S
C1042 H1061 0.913 . S
C1043 H1019 0.950 . S
C1043 C1042 1.524 . S
C1043 C1044 1.415 . S
C1044 H1020 0.950 . S
C1044 C1039 1.363 . S
C1044 C1043 1.415 . S
C1045 H1021 0.951 . S
C1045 C1046 1.366 . S
C1045 C1047 1.388 . S
C1046 C1045 1.366 . S
C1046 C1050 1.385 . S
C1047 H1022 0.951 . S
C1047 C1045 1.388 . S
C1047 C1048 1.366 . S
C1048 C1047 1.366 . S
C1048 C1049 1.414 . S
C1048 C1051 1.499 . S
C1049 H1023 0.950 . S
C1049 C1048 1.414 . S
C1049 C1050 1.374 . S
C1050 H1024 0.950 . S
C1050 C1046 1.385 . S
C1050 C1049 1.374 . S
C1051 C1048 1.499 . S
C1051 C1052 1.373 . S
C1051 C1053 1.389 . S
C1052 H1025 0.950 . S
C1052 C1038 1.377 . S
C1052 C1051 1.373 . S
C1053 C1037 1.377 . S
C1053 C1051 1.389 . S
C1053 C1054 1.524 . S
C1054 C1053 1.524 . S
C1054 C1055 1.397 . S
C1054 C1059 1.363 . S
C1055 H1026 0.950 . S
C1055 C1054 1.397 . S
C1055 C1056 1.334 . S
C1056 H1027 0.950 . S
C1056 C1055 1.334 . S
C1056 C1057 1.287 . S
C1057 C1056 1.287 . S
C1057 C1058 1.524 . S
C1057 H1060 0.999 . S
C1058 H1028 0.950 . S
C1058 C1057 1.524 . S
C1058 C1059 1.415 . S
C1059 H1029 0.950 . S
C1059 C1054 1.363 . S
C1059 C1058 1.415 . S
H1060 C1057 0.999 . S
H1061 C1042 0.913 . S
H1062 C1080 0.951 . S
H1063 C1082 0.951 . S
H1064 C1084 0.950 . S
H1065 C1085 0.950 . S
H1066 C1087 0.950 . S
H1067 C1090 0.950 . S
H1068 C1091 0.950 . S
H1069 C1093 0.950 . S
H1070 C1094 0.950 . S
H1071 C1095 0.951 . S
H1072 C1097 0.951 . S
H1073 C1099 0.950 . S
H1074 C1100 0.950 . S
H1075 C1102 0.950 . S
H1076 C1105 0.950 . S
H1077 C1106 0.950 . S
H1078 C1108 0.950 . S
H1079 C1109 0.950 . S
C1080 H1062 0.951 . S
C1080 C1081 1.366 . S
C1080 C1082 1.388 . S
C1081 C1080 1.366 . S
C1081 C1085 1.385 . S
C1082 H1063 0.951 . S
C1082 C1080 1.388 . S
C1082 C1083 1.366 . S
C1083 C1082 1.366 . S
C1083 C1084 1.414 . S
C1083 C1086 1.499 . S
C1084 H1064 0.950 . S
C1084 C1083 1.414 . S
C1084 C1085 1.374 . S
C1085 H1065 0.950 . S
C1085 C1081 1.385 . S
C1085 C1084 1.374 . S
C1086 C1083 1.499 . S
C1086 C1087 1.373 . S
C1086 C1088 1.389 . S
C1087 H1066 0.950 . S
C1087 C1086 1.373 . S
C1087 C1103 1.377 . S
C1088 C1086 1.389 . S
C1088 C1089 1.524 . S
C1088 C1102 1.377 . S
C1089 C1088 1.524 . S
C1089 C1090 1.397 . S
C1089 C1094 1.363 . S
C1090 H1067 0.950 . S
C1090 C1089 1.397 . S
C1090 C1091 1.334 . S
C1091 H1068 0.950 . S
C1091 C1090 1.334 . S
C1091 C1092 1.287 . S
C1092 C1091 1.287 . S
C1092 C1093 1.524 . S
C1092 H1111 0.913 . S
C1093 H1069 0.950 . S
C1093 C1092 1.524 . S
C1093 C1094 1.415 . S
C1094 H1070 0.950 . S
C1094 C1089 1.363 . S
C1094 C1093 1.415 . S
C1095 H1071 0.951 . S
C1095 C1096 1.366 . S
C1095 C1097 1.388 . S
C1096 C1095 1.366 . S
C1096 C1100 1.385 . S
C1097 H1072 0.951 . S
C1097 C1095 1.388 . S
C1097 C1098 1.366 . S
C1098 C1097 1.366 . S
C1098 C1099 1.414 . S
C1098 C1101 1.499 . S
C1099 H1073 0.950 . S
C1099 C1098 1.414 . S
C1099 C1100 1.374 . S
C1100 H1074 0.950 . S
C1100 C1096 1.385 . S
C1100 C1099 1.374 . S
C1101 C1098 1.499 . S
C1101 C1102 1.373 . S
C1101 C1103 1.389 . S
C1102 H1075 0.950 . S
C1102 C1088 1.377 . S
C1102 C1101 1.373 . S
C1103 C1087 1.377 . S
C1103 C1101 1.389 . S
C1103 C1104 1.524 . S
C1104 C1103 1.524 . S
C1104 C1105 1.397 . S
C1104 C1109 1.363 . S
C1105 H1076 0.950 . S
C1105 C1104 1.397 . S
C1105 C1106 1.334 . S
C1106 H1077 0.950 . S
C1106 C1105 1.334 . S
C1106 C1107 1.287 . S
C1107 C1106 1.287 . S
C1107 C1108 1.524 . S
C1107 H1110 0.999 . S
C1108 H1078 0.950 . S
C1108 C1107 1.524 . S
C1108 C1109 1.415 . S
C1109 H1079 0.950 . S
C1109 C1104 1.363 . S
C1109 C1108 1.415 . S
H1110 C1107 0.999 . S
H1111 C1092 0.913 . S
H1112 C1130 0.951 . S
H1113 C1132 0.951 . S
H1114 C1134 0.950 . S
H1115 C1135 0.950 . S
H1116 C1137 0.950 . S
H1117 C1140 0.950 . S
H1118 C1141 0.950 . S
H1119 C1143 0.950 . S
H1120 C1144 0.950 . S
H1121 C1145 0.951 . S
H1122 C1147 0.951 . S
H1123 C1149 0.950 . S
H1124 C1150 0.950 . S
H1125 C1152 0.950 . S
H1126 C1155 0.950 . S
H1127 C1156 0.950 . S
H1128 C1158 0.950 1_545 S
H1129 C1159 0.950 1_556 S
C1130 H1112 0.951 . S
C1130 C1131 1.366 . S
C1130 C1132 1.388 . S
C1131 C1130 1.366 . S
C1131 C1135 1.385 . S
C1132 H1113 0.951 . S
C1132 C1130 1.388 . S
C1132 C1133 1.366 . S
C1133 C1132 1.366 . S
C1133 C1134 1.414 . S
C1133 C1136 1.499 . S
C1134 H1114 0.950 . S
C1134 C1133 1.414 . S
C1134 C1135 1.374 . S
C1135 H1115 0.950 . S
C1135 C1131 1.385 . S
C1135 C1134 1.374 . S
C1136 C1133 1.499 . S
C1136 C1137 1.373 . S
C1136 C1138 1.389 . S
C1137 H1116 0.950 . S
C1137 C1136 1.373 . S
C1137 C1153 1.377 1_556 S
C1138 C1136 1.389 . S
C1138 C1139 1.524 . S
C1138 C1152 1.377 . S
C1139 C1138 1.524 . S
C1139 C1140 1.397 . S
C1139 C1144 1.363 . S
C1140 H1117 0.950 . S
C1140 C1139 1.397 . S
C1140 C1141 1.334 . S
C1141 H1118 0.950 . S
C1141 C1140 1.334 . S
C1141 C1142 1.287 . S
C1142 C1141 1.287 . S
C1142 C1143 1.524 . S
C1142 H1161 0.913 . S
C1143 H1119 0.950 . S
C1143 C1142 1.524 . S
C1143 C1144 1.415 . S
C1144 H1120 0.950 . S
C1144 C1139 1.363 . S
C1144 C1143 1.415 . S
C1145 H1121 0.951 . S
C1145 C1146 1.366 1_545 S
C1145 C1147 1.388 1_545 S
C1146 C1145 1.366 1_565 S
C1146 C1150 1.385 . S
C1147 H1122 0.951 . S
C1147 C1145 1.388 1_565 S
C1147 C1148 1.366 . S
C1148 C1147 1.366 . S
C1148 C1149 1.414 . S
C1148 C1151 1.499 . S
C1149 H1123 0.950 . S
C1149 C1148 1.414 . S
C1149 C1150 1.374 . S
C1150 H1124 0.950 . S
C1150 C1146 1.385 . S
C1150 C1149 1.374 . S
C1151 C1148 1.499 . S
C1151 C1152 1.373 1_554 S
C1151 C1153 1.389 . S
C1152 H1125 0.950 . S
C1152 C1138 1.377 . S
C1152 C1151 1.373 1_556 S
C1153 C1137 1.377 1_554 S
C1153 C1151 1.389 . S
C1153 C1154 1.524 . S
C1154 C1153 1.524 . S
C1154 C1155 1.397 . S
C1154 C1159 1.363 . S
C1155 H1126 0.950 . S
C1155 C1154 1.397 . S
C1155 C1156 1.334 . S
C1156 H1127 0.950 . S
C1156 C1155 1.334 . S
C1156 C1157 1.287 . S
C1157 C1156 1.287 . S
C1157 C1158 1.524 . S
C1157 H1160 0.999 1_565 S
C1158 H1128 0.950 1_565 S
C1158 C1157 1.524 . S
C1158 C1159 1.415 . S
C1159 H1129 0.950 1_554 S
C1159 C1154 1.363 . S
C1159 C1158 1.415 . S
H1160 C1157 0.999 1_545 S
H1161 C1142 0.913 . S
H1162 C1180 0.951 . S
H1163 C1182 0.951 . S
H1164 C1184 0.950 . S
H1165 C1185 0.950 . S
H1166 C1187 0.950 . S
H1167 C1190 0.950 . S
H1168 C1191 0.950 . S
H1169 C1193 0.950 . S
H1170 C1194 0.950 . S
H1171 C1195 0.951 . S
H1172 C1197 0.951 . S
H1173 C1199 0.950 . S
H1174 C1200 0.950 . S
H1175 C1202 0.950 . S
H1176 C1205 0.950 . S
H1177 C1206 0.950 . S
H1178 C1208 0.952 1_455 S
H1179 C1209 0.950 . S
C1180 H1162 0.951 . S
C1180 C1181 1.366 . S
C1180 C1182 1.388 . S
C1181 C1180 1.366 . S
C1181 C1185 1.385 . S
C1182 H1163 0.951 . S
C1182 C1180 1.388 . S
C1182 C1183 1.366 . S
C1183 C1182 1.366 . S
C1183 C1184 1.414 . S
C1183 C1186 1.499 . S
C1184 H1164 0.950 . S
C1184 C1183 1.414 . S
C1184 C1185 1.374 . S
C1185 H1165 0.950 . S
C1185 C1181 1.385 . S
C1185 C1184 1.374 . S
C1186 C1183 1.499 . S
C1186 C1187 1.373 . S
C1186 C1188 1.389 . S
C1187 H1166 0.950 . S
C1187 C1186 1.373 . S
C1187 C1203 1.377 . S
C1188 C1186 1.389 . S
C1188 C1189 1.524 . S
C1188 C1202 1.377 . S
C1189 C1188 1.524 . S
C1189 C1190 1.397 . S
C1189 C1194 1.363 . S
C1190 H1167 0.950 . S
C1190 C1189 1.397 . S
C1190 C1191 1.334 . S
C1191 H1168 0.950 . S
C1191 C1190 1.334 . S
C1191 C1192 1.287 . S
C1192 C1191 1.287 . S
C1192 C1193 1.524 . S
C1192 H1211 0.913 . S
C1193 H1169 0.950 . S
C1193 C1192 1.524 . S
C1193 C1194 1.415 . S
C1194 H1170 0.950 . S
C1194 C1189 1.363 . S
C1194 C1193 1.415 . S
C1195 H1171 0.951 . S
C1195 C1196 1.366 . S
C1195 C1197 1.388 . S
C1196 C1195 1.366 . S
C1196 C1200 1.385 . S
C1197 H1172 0.951 . S
C1197 C1195 1.388 . S
C1197 C1198 1.366 . S
C1198 C1197 1.366 . S
C1198 C1199 1.414 . S
C1198 C1201 1.499 . S
C1199 H1173 0.950 . S
C1199 C1198 1.414 . S
C1199 C1200 1.374 . S
C1200 H1174 0.950 . S
C1200 C1196 1.385 . S
C1200 C1199 1.374 . S
C1201 C1198 1.499 . S
C1201 C1202 1.373 . S
C1201 C1203 1.389 . S
C1202 H1175 0.950 . S
C1202 C1188 1.377 . S
C1202 C1201 1.373 . S
C1203 C1187 1.377 . S
C1203 C1201 1.389 . S
C1203 C1204 1.524 . S
C1204 C1203 1.524 . S
C1204 C1205 1.397 1_655 S
C1204 C1209 1.363 . S
C1205 H1176 0.950 . S
C1205 C1204 1.397 1_455 S
C1205 C1206 1.334 . S
C1206 H1177 0.950 . S
C1206 C1205 1.334 . S
C1206 C1207 1.287 . S
C1207 C1206 1.287 . S
C1207 C1208 1.520 1_455 S
C1207 H1210 0.999 . S
C1208 H1178 0.952 1_655 S
C1208 C1207 1.520 1_655 S
C1208 C1209 1.418 . S
C1209 H1179 0.950 . S
C1209 C1204 1.363 . S
C1209 C1208 1.418 . S
H1210 C1207 0.999 . S
H1211 C1192 0.913 . S
H1212 C1230 0.951 . S
H1213 C1232 0.951 . S
H1214 C1234 0.950 . S
H1215 C1235 0.950 . S
H1216 C1237 0.950 . S
H1217 C1240 0.950 . S
H1218 C1241 0.950 . S
H1219 C1243 0.950 . S
H1220 C1244 0.950 . S
H1221 C1245 0.951 . S
H1222 C1247 0.951 . S
H1223 C1249 0.950 . S
H1224 C1250 0.950 . S
H1225 C1252 0.950 . S
H1226 C1255 0.950 . S
H1227 C1256 0.950 . S
H1228 C1258 0.950 . S
H1229 C1259 0.950 . S
C1230 H1212 0.951 . S
C1230 C1231 1.366 . S
C1230 C1232 1.388 . S
C1231 C1230 1.366 . S
C1231 C1235 1.385 . S
C1232 H1213 0.951 . S
C1232 C1230 1.388 . S
C1232 C1233 1.366 . S
C1233 C1232 1.366 . S
C1233 C1234 1.414 . S
C1233 C1236 1.499 . S
C1234 H1214 0.950 . S
C1234 C1233 1.414 . S
C1234 C1235 1.374 . S
C1235 H1215 0.950 . S
C1235 C1231 1.385 . S
C1235 C1234 1.374 . S
C1236 C1233 1.499 . S
C1236 C1237 1.373 . S
C1236 C1238 1.389 . S
C1237 H1216 0.950 . S
C1237 C1236 1.373 . S
C1237 C1253 1.377 . S
C1238 C1236 1.389 . S
C1238 C1239 1.524 . S
C1238 C1252 1.377 . S
C1239 C1238 1.524 . S
C1239 C1240 1.397 . S
C1239 C1244 1.363 . S
C1240 H1217 0.950 . S
C1240 C1239 1.397 . S
C1240 C1241 1.334 . S
C1241 H1218 0.950 . S
C1241 C1240 1.334 . S
C1241 C1242 1.287 . S
C1242 C1241 1.287 . S
C1242 C1243 1.524 . S
C1242 H1261 0.913 . S
C1243 H1219 0.950 . S
C1243 C1242 1.524 . S
C1243 C1244 1.415 . S
C1244 H1220 0.950 . S
C1244 C1239 1.363 . S
C1244 C1243 1.415 . S
C1245 H1221 0.951 . S
C1245 C1246 1.366 . S
C1245 C1247 1.388 . S
C1246 C1245 1.366 . S
C1246 C1250 1.385 . S
C1247 H1222 0.951 . S
C1247 C1245 1.388 . S
C1247 C1248 1.366 . S
C1248 C1247 1.366 . S
C1248 C1249 1.414 . S
C1248 C1251 1.499 . S
C1249 H1223 0.950 . S
C1249 C1248 1.414 . S
C1249 C1250 1.374 . S
C1250 H1224 0.950 . S
C1250 C1246 1.385 . S
C1250 C1249 1.374 . S
C1251 C1248 1.499 . S
C1251 C1252 1.373 . S
C1251 C1253 1.389 . S
C1252 H1225 0.950 . S
C1252 C1238 1.377 . S
C1252 C1251 1.373 . S
C1253 C1237 1.377 . S
C1253 C1251 1.389 . S
C1253 C1254 1.524 . S
C1254 C1253 1.524 . S
C1254 C1255 1.397 . S
C1254 C1259 1.363 . S
C1255 H1226 0.950 . S
C1255 C1254 1.397 . S
C1255 C1256 1.334 . S
C1256 H1227 0.950 . S
C1256 C1255 1.334 . S
C1256 C1257 1.287 . S
C1257 C1256 1.287 . S
C1257 C1258 1.524 . S
C1257 H1260 0.999 . S
C1258 H1228 0.950 . S
C1258 C1257 1.524 . S
C1258 C1259 1.415 . S
C1259 H1229 0.950 . S
C1259 C1254 1.363 . S
C1259 C1258 1.415 . S
H1260 C1257 0.999 . S
H1261 C1242 0.913 . S
H1262 C1280 0.951 . S
H1263 C1282 0.951 . S
H1264 C1284 0.950 . S
H1265 C1285 0.950 . S
H1266 C1287 0.950 . S
H1267 C1290 0.950 . S
H1268 C1291 0.950 . S
H1269 C1293 0.950 . S
H1270 C1294 0.950 . S
H1271 C1295 0.951 . S
H1272 C1297 0.951 . S
H1273 C1299 0.950 . S
H1274 C1300 0.950 . S
H1275 C1302 0.950 . S
H1276 C1305 0.950 . S
H1277 C1306 0.950 . S
H1278 C1308 0.950 . S
H1279 C1309 0.950 . S
C1280 H1262 0.951 . S
C1280 C1281 1.366 . S
C1280 C1282 1.388 . S
C1281 C1280 1.366 . S
C1281 C1285 1.385 . S
C1282 H1263 0.951 . S
C1282 C1280 1.388 . S
C1282 C1283 1.366 . S
C1283 C1282 1.366 . S
C1283 C1284 1.414 . S
C1283 C1286 1.499 . S
C1284 H1264 0.950 . S
C1284 C1283 1.414 . S
C1284 C1285 1.374 . S
C1285 H1265 0.950 . S
C1285 C1281 1.385 . S
C1285 C1284 1.374 . S
C1286 C1283 1.499 . S
C1286 C1287 1.373 . S
C1286 C1288 1.389 . S
C1287 H1266 0.950 . S
C1287 C1286 1.373 . S
C1287 C1303 1.377 . S
C1288 C1286 1.389 . S
C1288 C1289 1.524 . S
C1288 C1302 1.377 . S
C1289 C1288 1.524 . S
C1289 C1290 1.397 . S
C1289 C1294 1.363 . S
C1290 H1267 0.950 . S
C1290 C1289 1.397 . S
C1290 C1291 1.334 . S
C1291 H1268 0.950 . S
C1291 C1290 1.334 . S
C1291 C1292 1.287 . S
C1292 C1291 1.287 . S
C1292 C1293 1.524 . S
C1292 H1311 0.913 . S
C1293 H1269 0.950 . S
C1293 C1292 1.524 . S
C1293 C1294 1.415 . S
C1294 H1270 0.950 . S
C1294 C1289 1.363 . S
C1294 C1293 1.415 . S
C1295 H1271 0.951 . S
C1295 C1296 1.366 . S
C1295 C1297 1.388 . S
C1296 C1295 1.366 . S
C1296 C1300 1.385 . S
C1297 H1272 0.951 . S
C1297 C1295 1.388 . S
C1297 C1298 1.366 . S
C1298 C1297 1.366 . S
C1298 C1299 1.414 . S
C1298 C1301 1.499 . S
C1299 H1273 0.950 . S
C1299 C1298 1.414 . S
C1299 C1300 1.374 . S
C1300 H1274 0.950 . S
C1300 C1296 1.385 . S
C1300 C1299 1.374 . S
C1301 C1298 1.499 . S
C1301 C1302 1.373 . S
C1301 C1303 1.389 . S
C1302 H1275 0.950 . S
C1302 C1288 1.377 . S
C1302 C1301 1.373 . S
C1303 C1287 1.377 . S
C1303 C1301 1.389 . S
C1303 C1304 1.524 . S
C1304 C1303 1.524 . S
C1304 C1305 1.397 . S
C1304 C1309 1.363 . S
C1305 H1276 0.950 . S
C1305 C1304 1.397 . S
C1305 C1306 1.334 . S
C1306 H1277 0.950 . S
C1306 C1305 1.334 . S
C1306 C1307 1.287 . S
C1307 C1306 1.287 . S
C1307 C1308 1.524 . S
C1307 H1310 0.999 . S
C1308 H1278 0.950 . S
C1308 C1307 1.524 . S
C1308 C1309 1.415 . S
C1309 H1279 0.950 . S
C1309 C1304 1.363 . S
C1309 C1308 1.415 . S
H1310 C1307 0.999 . S
H1311 C1292 0.913 . S
H1312 C1330 0.951 . S
H1313 C1332 0.951 . S
H1314 C1334 0.950 . S
H1315 C1335 0.950 . S
H1316 C1337 0.950 . S
H1317 C1340 0.950 . S
H1318 C1341 0.950 . S
H1319 C1343 0.950 . S
H1320 C1344 0.950 . S
H1321 C1345 0.951 . S
H1322 C1347 0.951 . S
H1323 C1349 0.950 . S
H1324 C1350 0.950 . S
H1325 C1352 0.950 . S
H1326 C1355 0.950 . S
H1327 C1356 0.950 . S
H1328 C1358 0.950 . S
H1329 C1359 0.950 . S
C1330 H1312 0.951 . S
C1330 C1331 1.366 . S
C1330 C1332 1.388 . S
C1331 C1330 1.366 . S
C1331 C1335 1.385 . S
C1332 H1313 0.951 . S
C1332 C1330 1.388 . S
C1332 C1333 1.366 . S
C1333 C1332 1.366 . S
C1333 C1334 1.414 . S
C1333 C1336 1.499 . S
C1334 H1314 0.950 . S
C1334 C1333 1.414 . S
C1334 C1335 1.374 . S
C1335 H1315 0.950 . S
C1335 C1331 1.385 . S
C1335 C1334 1.374 . S
C1336 C1333 1.499 . S
C1336 C1337 1.373 . S
C1336 C1338 1.389 . S
C1337 H1316 0.950 . S
C1337 C1336 1.373 . S
C1337 C1353 1.377 . S
C1338 C1336 1.389 . S
C1338 C1339 1.524 . S
C1338 C1352 1.377 . S
C1339 C1338 1.524 . S
C1339 C1340 1.397 . S
C1339 C1344 1.363 . S
C1340 H1317 0.950 . S
C1340 C1339 1.397 . S
C1340 C1341 1.334 . S
C1341 H1318 0.950 . S
C1341 C1340 1.334 . S
C1341 C1342 1.287 . S
C1342 C1341 1.287 . S
C1342 C1343 1.524 . S
C1342 H1361 0.913 . S
C1343 H1319 0.950 . S
C1343 C1342 1.524 . S
C1343 C1344 1.415 . S
C1344 H1320 0.950 . S
C1344 C1339 1.363 . S
C1344 C1343 1.415 . S
C1345 H1321 0.951 . S
C1345 C1346 1.366 . S
C1345 C1347 1.388 . S
C1346 C1345 1.366 . S
C1346 C1350 1.385 . S
C1347 H1322 0.951 . S
C1347 C1345 1.388 . S
C1347 C1348 1.366 . S
C1348 C1347 1.366 . S
C1348 C1349 1.414 . S
C1348 C1351 1.499 . S
C1349 H1323 0.950 . S
C1349 C1348 1.414 . S
C1349 C1350 1.374 . S
C1350 H1324 0.950 . S
C1350 C1346 1.385 . S
C1350 C1349 1.374 . S
C1351 C1348 1.499 . S
C1351 C1352 1.373 . S
C1351 C1353 1.389 . S
C1352 H1325 0.950 . S
C1352 C1338 1.377 . S
C1352 C1351 1.373 . S
C1353 C1337 1.377 . S
C1353 C1351 1.389 . S
C1353 C1354 1.524 . S
C1354 C1353 1.524 . S
C1354 C1355 1.397 . S
C1354 C1359 1.363 . S
C1355 H1326 0.950 . S
C1355 C1354 1.397 . S
C1355 C1356 1.334 1_556 S
C1356 H1327 0.950 . S
C1356 C1355 1.334 1_554 S
C1356 C1357 1.287 . S
C1357 C1356 1.287 . S
C1357 C1358 1.524 1_554 S
C1357 H1360 0.999 . S
C1358 H1328 0.950 . S
C1358 C1357 1.524 1_556 S
C1358 C1359 1.415 . S
C1359 H1329 0.950 . S
C1359 C1354 1.363 . S
C1359 C1358 1.415 . S
H1360 C1357 0.999 . S
H1361 C1342 0.913 . S
H1362 C1380 0.951 . S
H1363 C1382 0.951 . S
H1364 C1384 0.950 . S
H1365 C1385 0.950 . S
H1366 C1387 0.950 . S
H1367 C1390 0.950 . S
H1368 C1391 0.950 . S
H1369 C1393 0.950 . S
H1370 C1394 0.950 . S
H1371 C1395 0.951 . S
H1372 C1397 0.951 . S
H1373 C1399 0.950 . S
H1374 C1400 0.950 . S
H1375 C1402 0.950 . S
H1376 C1405 0.950 . S
H1377 C1406 0.950 . S
H1378 C1408 0.950 . S
H1379 C1409 0.950 . S
C1380 H1362 0.951 . S
C1380 C1381 1.366 . S
C1380 C1382 1.388 . S
C1381 C1380 1.366 . S
C1381 C1385 1.385 . S
C1382 H1363 0.951 . S
C1382 C1380 1.388 . S
C1382 C1383 1.366 . S
C1383 C1382 1.366 . S
C1383 C1384 1.414 . S
C1383 C1386 1.499 . S
C1384 H1364 0.950 . S
C1384 C1383 1.414 . S
C1384 C1385 1.374 . S
C1385 H1365 0.950 . S
C1385 C1381 1.385 . S
C1385 C1384 1.374 . S
C1386 C1383 1.499 . S
C1386 C1387 1.373 . S
C1386 C1388 1.389 . S
C1387 H1366 0.950 . S
C1387 C1386 1.373 . S
C1387 C1403 1.377 . S
C1388 C1386 1.389 . S
C1388 C1389 1.524 . S
C1388 C1402 1.377 . S
C1389 C1388 1.524 . S
C1389 C1390 1.397 . S
C1389 C1394 1.363 . S
C1390 H1367 0.950 . S
C1390 C1389 1.397 . S
C1390 C1391 1.334 . S
C1391 H1368 0.950 . S
C1391 C1390 1.334 . S
C1391 C1392 1.287 . S
C1392 C1391 1.287 . S
C1392 C1393 1.524 . S
C1392 H1411 0.913 . S
C1393 H1369 0.950 . S
C1393 C1392 1.524 . S
C1393 C1394 1.415 . S
C1394 H1370 0.950 . S
C1394 C1389 1.363 . S
C1394 C1393 1.415 . S
C1395 H1371 0.951 . S
C1395 C1396 1.366 . S
C1395 C1397 1.388 . S
C1396 C1395 1.366 . S
C1396 C1400 1.385 . S
C1397 H1372 0.951 . S
C1397 C1395 1.388 . S
C1397 C1398 1.366 . S
C1398 C1397 1.366 . S
C1398 C1399 1.414 . S
C1398 C1401 1.499 . S
C1399 H1373 0.950 . S
C1399 C1398 1.414 . S
C1399 C1400 1.374 . S
C1400 H1374 0.950 . S
C1400 C1396 1.385 . S
C1400 C1399 1.374 . S
C1401 C1398 1.499 . S
C1401 C1402 1.373 . S
C1401 C1403 1.389 . S
C1402 H1375 0.950 . S
C1402 C1388 1.377 . S
C1402 C1401 1.373 . S
C1403 C1387 1.377 . S
C1403 C1401 1.389 . S
C1403 C1404 1.524 . S
C1404 C1403 1.524 . S
C1404 C1405 1.397 . S
C1404 C1409 1.363 . S
C1405 H1376 0.950 . S
C1405 C1404 1.397 . S
C1405 C1406 1.334 . S
C1406 H1377 0.950 . S
C1406 C1405 1.334 . S
C1406 C1407 1.287 . S
C1407 C1406 1.287 . S
C1407 C1408 1.524 . S
C1407 H1410 0.999 . S
C1408 H1378 0.950 . S
C1408 C1407 1.524 . S
C1408 C1409 1.415 . S
C1409 H1379 0.950 . S
C1409 C1404 1.363 . S
C1409 C1408 1.415 . S
H1410 C1407 0.999 . S
H1411 C1392 0.913 . S
H1412 C1430 0.951 . S
H1413 C1432 0.951 . S
H1414 C1434 0.950 . S
H1415 C1435 0.950 . S
H1416 C1437 0.950 . S
H1417 C1440 0.950 . S
H1418 C1441 0.950 . S
H1419 C1443 0.950 . S
H1420 C1444 0.950 . S
H1421 C1445 0.951 . S
H1422 C1447 0.951 . S
H1423 C1449 0.950 . S
H1424 C1450 0.950 . S
H1425 C1452 0.950 . S
H1426 C1455 0.950 . S
H1427 C1456 0.950 . S
H1428 C1458 0.950 . S
H1429 C1459 0.950 . S
C1430 H1412 0.951 . S
C1430 C1431 1.366 . S
C1430 C1432 1.388 . S
C1431 C1430 1.366 . S
C1431 C1435 1.385 . S
C1432 H1413 0.951 . S
C1432 C1430 1.388 . S
C1432 C1433 1.366 . S
C1433 C1432 1.366 . S
C1433 C1434 1.414 . S
C1433 C1436 1.499 . S
C1434 H1414 0.950 . S
C1434 C1433 1.414 . S
C1434 C1435 1.374 . S
C1435 H1415 0.950 . S
C1435 C1431 1.385 . S
C1435 C1434 1.374 . S
C1436 C1433 1.499 . S
C1436 C1437 1.373 . S
C1436 C1438 1.389 . S
C1437 H1416 0.950 . S
C1437 C1436 1.373 . S
C1437 C1453 1.377 . S
C1438 C1436 1.389 . S
C1438 C1439 1.524 . S
C1438 C1452 1.377 . S
C1439 C1438 1.524 . S
C1439 C1440 1.397 . S
C1439 C1444 1.363 . S
C1440 H1417 0.950 . S
C1440 C1439 1.397 . S
C1440 C1441 1.334 . S
C1441 H1418 0.950 . S
C1441 C1440 1.334 . S
C1441 C1442 1.287 . S
C1442 C1441 1.287 . S
C1442 C1443 1.524 . S
C1442 H1461 0.913 . S
C1443 H1419 0.950 . S
C1443 C1442 1.524 . S
C1443 C1444 1.415 . S
C1444 H1420 0.950 . S
C1444 C1439 1.363 . S
C1444 C1443 1.415 . S
C1445 H1421 0.951 . S
C1445 C1446 1.366 . S
C1445 C1447 1.388 . S
C1446 C1445 1.366 . S
C1446 C1450 1.385 . S
C1447 H1422 0.951 . S
C1447 C1445 1.388 . S
C1447 C1448 1.366 . S
C1448 C1447 1.366 . S
C1448 C1449 1.414 . S
C1448 C1451 1.499 . S
C1449 H1423 0.950 . S
C1449 C1448 1.414 . S
C1449 C1450 1.374 . S
C1450 H1424 0.950 . S
C1450 C1446 1.385 . S
C1450 C1449 1.374 . S
C1451 C1448 1.499 . S
C1451 C1452 1.373 . S
C1451 C1453 1.389 . S
C1452 H1425 0.950 . S
C1452 C1438 1.377 . S
C1452 C1451 1.373 . S
C1453 C1437 1.377 . S
C1453 C1451 1.389 . S
C1453 C1454 1.524 . S
C1454 C1453 1.524 . S
C1454 C1455 1.397 . S
C1454 C1459 1.363 . S
C1455 H1426 0.950 . S
C1455 C1454 1.397 . S
C1455 C1456 1.334 . S
C1456 H1427 0.950 . S
C1456 C1455 1.334 . S
C1456 C1457 1.287 . S
C1457 C1456 1.287 . S
C1457 C1458 1.524 . S
C1457 H1460 0.999 . S
C1458 H1428 0.950 . S
C1458 C1457 1.524 . S
C1458 C1459 1.415 . S
C1459 H1429 0.950 . S
C1459 C1454 1.363 . S
C1459 C1458 1.415 . S
H1460 C1457 0.999 . S
H1461 C1442 0.913 . S
H1462 C1480 0.951 . S
H1463 C1482 0.951 . S
H1464 C1484 0.950 . S
H1465 C1485 0.950 . S
H1466 C1487 0.950 . S
H1467 C1490 0.950 . S
H1468 C1491 0.950 . S
H1469 C1493 0.950 . S
H1470 C1494 0.950 . S
H1471 C1495 0.951 . S
H1472 C1497 0.951 . S
H1473 C1499 0.950 . S
H1474 C1500 0.950 . S
H1475 C1502 0.950 . S
H1476 C1505 0.950 . S
H1477 C1506 0.950 . S
H1478 C1508 0.950 . S
H1479 C1509 0.950 . S
C1480 H1462 0.951 . S
C1480 C1481 1.366 . S
C1480 C1482 1.388 . S
C1481 C1480 1.366 . S
C1481 C1485 1.385 . S
C1482 H1463 0.951 . S
C1482 C1480 1.388 . S
C1482 C1483 1.366 . S
C1483 C1482 1.366 . S
C1483 C1484 1.414 . S
C1483 C1486 1.499 . S
C1484 H1464 0.950 . S
C1484 C1483 1.414 . S
C1484 C1485 1.374 . S
C1485 H1465 0.950 . S
C1485 C1481 1.385 . S
C1485 C1484 1.374 . S
C1486 C1483 1.499 . S
C1486 C1487 1.373 . S
C1486 C1488 1.389 . S
C1487 H1466 0.950 . S
C1487 C1486 1.373 . S
C1487 C1503 1.377 . S
C1488 C1486 1.389 . S
C1488 C1489 1.524 . S
C1488 C1502 1.377 . S
C1489 C1488 1.524 . S
C1489 C1490 1.397 . S
C1489 C1494 1.363 . S
C1490 H1467 0.950 . S
C1490 C1489 1.397 . S
C1490 C1491 1.334 . S
C1491 H1468 0.950 . S
C1491 C1490 1.334 . S
C1491 C1492 1.287 . S
C1492 C1491 1.287 . S
C1492 C1493 1.524 . S
C1492 H1511 0.913 . S
C1493 H1469 0.950 . S
C1493 C1492 1.524 . S
C1493 C1494 1.415 . S
C1494 H1470 0.950 . S
C1494 C1489 1.363 . S
C1494 C1493 1.415 . S
C1495 H1471 0.951 . S
C1495 C1496 1.366 . S
C1495 C1497 1.388 . S
C1496 C1495 1.366 . S
C1496 C1500 1.385 . S
C1497 H1472 0.951 . S
C1497 C1495 1.388 . S
C1497 C1498 1.366 . S
C1498 C1497 1.366 . S
C1498 C1499 1.414 . S
C1498 C1501 1.499 . S
C1499 H1473 0.950 . S
C1499 C1498 1.414 . S
C1499 C1500 1.374 . S
C1500 H1474 0.950 . S
C1500 C1496 1.385 . S
C1500 C1499 1.374 . S
C1501 C1498 1.499 . S
C1501 C1502 1.373 . S
C1501 C1503 1.389 . S
C1502 H1475 0.950 . S
C1502 C1488 1.377 . S
C1502 C1501 1.373 . S
C1503 C1487 1.377 . S
C1503 C1501 1.389 . S
C1503 C1504 1.524 . S
C1504 C1503 1.524 . S
C1504 C1505 1.397 . S
C1504 C1509 1.363 . S
C1505 H1476 0.950 . S
C1505 C1504 1.397 . S
C1505 C1506 1.334 . S
C1506 H1477 0.950 . S
C1506 C1505 1.334 . S
C1506 C1507 1.287 . S
C1507 C1506 1.287 . S
C1507 C1508 1.524 . S
C1507 H1510 0.999 . S
C1508 H1478 0.950 . S
C1508 C1507 1.524 . S
C1508 C1509 1.415 . S
C1509 H1479 0.950 . S
C1509 C1504 1.363 . S
C1509 C1508 1.415 . S
H1510 C1507 0.999 . S
H1511 C1492 0.913 . S
C331 C6 0.999 . S
C346 C156 1.007 . S
C381 C21 1.627 . S
C396 C217 1.665 . S
C446 C255 1.801 . S
C431 C49 1.745 . S
C481 C68 1.974 . S
C496 C295 2.057 1_655 S
C546 C215 2.256 . S
C531 C2 2.253 . S
C596 C183 1.648 1_565 S
C581 C30 1.587 . S
C646 C292 1.502 . S
C631 C40 1.504 . S
C696 C252 1.471 . S
C681 C63 1.506 . S
C731 C11 0.893 . S
C746 C297 0.967 . S
C796 C212 2.740 . S
C781 C44 2.743 . S
C831 C59 1.637 . S
C846 C154 1.619 . S
C881 C25 1.786 . S
C896 C257 1.793 . S
C946 C177 1.304 . S
C931 C82 1.299 . S
C981 C101 1.250 . S
C996 C196 1.275 . S
C1031 C125 2.246 . S
C1046 C234 2.262 . S
C1081 C144 1.549 . S
C1096 C274 1.626 . S
C1131 C87 0.890 . S
C1146 C194 0.923 1_565 S
C1196 C172 2.858 . S
C1181 C97 2.783 . S
C1246 C303 1.323 . S
C1231 C120 1.354 . S
C1296 C263 1.689 . S
C1281 C135 1.688 . S
C1331 C78 1.444 . S
C1346 C276 1.481 . S
C1396 C223 1.913 . S
C1381 C116 1.895 . S
C1446 C175 2.419 . S
C1431 C139 2.461 . S
C1481 C106 1.090 . S
C1496 C236 1.342 . S
