# Generated by pormake.
# Topology ctn, (3,4)-cn, num edge types: 1
# Building blocks:
#     Node 0, Type 0, BuildingBlock: VETTIZ_charged_linker_0, # of connection points: 3
#     Node 1, Type 0, BuildingBlock: VETTIZ_charged_linker_0, # of connection points: 3
#     Node 2, Type 0, BuildingBlock: VETTIZ_charged_linker_0, # of connection points: 3
#     Node 3, Type 0, BuildingBlock: VETTIZ_charged_linker_0, # of connection points: 3
#     Node 4, Type 0, BuildingBlock: VETTIZ_charged_linker_0, # of connection points: 3
#     Node 5, Type 0, BuildingBlock: VETTIZ_charged_linker_0, # of connection points: 3
#     Node 6, Type 0, BuildingBlock: VETTIZ_charged_linker_0, # of connection points: 3
#     Node 7, Type 0, BuildingBlock: VETTIZ_charged_linker_0, # of connection points: 3
#     Node 8, Type 0, BuildingBlock: VETTIZ_charged_linker_0, # of connection points: 3
#     Node 9, Type 0, BuildingBlock: VETTIZ_charged_linker_0, # of connection points: 3
#     Node 10, Type 0, BuildingBlock: VETTIZ_charged_linker_0, # of connection points: 3
#     Node 11, Type 0, BuildingBlock: VETTIZ_charged_linker_0, # of connection points: 3
#     Node 12, Type 0, BuildingBlock: VETTIZ_charged_linker_0, # of connection points: 3
#     Node 13, Type 0, BuildingBlock: VETTIZ_charged_linker_0, # of connection points: 3
#     Node 14, Type 0, BuildingBlock: VETTIZ_charged_linker_0, # of connection points: 3
#     Node 15, Type 0, BuildingBlock: VETTIZ_charged_linker_0, # of connection points: 3
#     Node 16, Type 1, BuildingBlock: TATPOV_clean_sbu_0, # of connection points: 4
#     Node 17, Type 1, BuildingBlock: TATPOV_clean_sbu_0, # of connection points: 4
#     Node 18, Type 1, BuildingBlock: TATPOV_clean_sbu_0, # of connection points: 4
#     Node 19, Type 1, BuildingBlock: TATPOV_clean_sbu_0, # of connection points: 4
#     Node 20, Type 1, BuildingBlock: TATPOV_clean_sbu_0, # of connection points: 4
#     Node 21, Type 1, BuildingBlock: TATPOV_clean_sbu_0, # of connection points: 4
#     Node 22, Type 1, BuildingBlock: TATPOV_clean_sbu_0, # of connection points: 4
#     Node 23, Type 1, BuildingBlock: TATPOV_clean_sbu_0, # of connection points: 4
#     Node 24, Type 1, BuildingBlock: TATPOV_clean_sbu_0, # of connection points: 4
#     Node 25, Type 1, BuildingBlock: TATPOV_clean_sbu_0, # of connection points: 4
#     Node 26, Type 1, BuildingBlock: TATPOV_clean_sbu_0, # of connection points: 4
#     Node 27, Type 1, BuildingBlock: TATPOV_clean_sbu_0, # of connection points: 4
#     Edge 28, Type (0, 1), BuildingBlock: OJICUG_clean_linker_0, # of connection points: 2
#     Edge 29, Type (0, 1), BuildingBlock: OJICUG_clean_linker_0, # of connection points: 2
#     Edge 30, Type (0, 1), BuildingBlock: OJICUG_clean_linker_0, # of connection points: 2
#     Edge 31, Type (0, 1), BuildingBlock: OJICUG_clean_linker_0, # of connection points: 2
#     Edge 32, Type (0, 1), BuildingBlock: OJICUG_clean_linker_0, # of connection points: 2
#     Edge 33, Type (0, 1), BuildingBlock: OJICUG_clean_linker_0, # of connection points: 2
#     Edge 34, Type (0, 1), BuildingBlock: OJICUG_clean_linker_0, # of connection points: 2
#     Edge 35, Type (0, 1), BuildingBlock: OJICUG_clean_linker_0, # of connection points: 2
#     Edge 36, Type (0, 1), BuildingBlock: OJICUG_clean_linker_0, # of connection points: 2
#     Edge 37, Type (0, 1), BuildingBlock: OJICUG_clean_linker_0, # of connection points: 2
#     Edge 38, Type (0, 1), BuildingBlock: OJICUG_clean_linker_0, # of connection points: 2
#     Edge 39, Type (0, 1), BuildingBlock: OJICUG_clean_linker_0, # of connection points: 2
#     Edge 40, Type (0, 1), BuildingBlock: OJICUG_clean_linker_0, # of connection points: 2
#     Edge 41, Type (0, 1), BuildingBlock: OJICUG_clean_linker_0, # of connection points: 2
#     Edge 42, Type (0, 1), BuildingBlock: OJICUG_clean_linker_0, # of connection points: 2
#     Edge 43, Type (0, 1), BuildingBlock: OJICUG_clean_linker_0, # of connection points: 2
#     Edge 44, Type (0, 1), BuildingBlock: OJICUG_clean_linker_0, # of connection points: 2
#     Edge 45, Type (0, 1), BuildingBlock: OJICUG_clean_linker_0, # of connection points: 2
#     Edge 46, Type (0, 1), BuildingBlock: OJICUG_clean_linker_0, # of connection points: 2
#     Edge 47, Type (0, 1), BuildingBlock: OJICUG_clean_linker_0, # of connection points: 2
#     Edge 48, Type (0, 1), BuildingBlock: OJICUG_clean_linker_0, # of connection points: 2
#     Edge 49, Type (0, 1), BuildingBlock: OJICUG_clean_linker_0, # of connection points: 2
#     Edge 50, Type (0, 1), BuildingBlock: OJICUG_clean_linker_0, # of connection points: 2
#     Edge 51, Type (0, 1), BuildingBlock: OJICUG_clean_linker_0, # of connection points: 2
#     Edge 52, Type (0, 1), BuildingBlock: OJICUG_clean_linker_0, # of connection points: 2
#     Edge 53, Type (0, 1), BuildingBlock: OJICUG_clean_linker_0, # of connection points: 2
#     Edge 54, Type (0, 1), BuildingBlock: OJICUG_clean_linker_0, # of connection points: 2
#     Edge 55, Type (0, 1), BuildingBlock: OJICUG_clean_linker_0, # of connection points: 2
#     Edge 56, Type (0, 1), BuildingBlock: OJICUG_clean_linker_0, # of connection points: 2
#     Edge 57, Type (0, 1), BuildingBlock: OJICUG_clean_linker_0, # of connection points: 2
#     Edge 58, Type (0, 1), BuildingBlock: OJICUG_clean_linker_0, # of connection points: 2
#     Edge 59, Type (0, 1), BuildingBlock: OJICUG_clean_linker_0, # of connection points: 2
#     Edge 60, Type (0, 1), BuildingBlock: OJICUG_clean_linker_0, # of connection points: 2
#     Edge 61, Type (0, 1), BuildingBlock: OJICUG_clean_linker_0, # of connection points: 2
#     Edge 62, Type (0, 1), BuildingBlock: OJICUG_clean_linker_0, # of connection points: 2
#     Edge 63, Type (0, 1), BuildingBlock: OJICUG_clean_linker_0, # of connection points: 2
#     Edge 64, Type (0, 1), BuildingBlock: OJICUG_clean_linker_0, # of connection points: 2
#     Edge 65, Type (0, 1), BuildingBlock: OJICUG_clean_linker_0, # of connection points: 2
#     Edge 66, Type (0, 1), BuildingBlock: OJICUG_clean_linker_0, # of connection points: 2
#     Edge 67, Type (0, 1), BuildingBlock: OJICUG_clean_linker_0, # of connection points: 2
#     Edge 68, Type (0, 1), BuildingBlock: OJICUG_clean_linker_0, # of connection points: 2
#     Edge 69, Type (0, 1), BuildingBlock: OJICUG_clean_linker_0, # of connection points: 2
#     Edge 70, Type (0, 1), BuildingBlock: OJICUG_clean_linker_0, # of connection points: 2
#     Edge 71, Type (0, 1), BuildingBlock: OJICUG_clean_linker_0, # of connection points: 2
#     Edge 72, Type (0, 1), BuildingBlock: OJICUG_clean_linker_0, # of connection points: 2
#     Edge 73, Type (0, 1), BuildingBlock: OJICUG_clean_linker_0, # of connection points: 2
#     Edge 74, Type (0, 1), BuildingBlock: OJICUG_clean_linker_0, # of connection points: 2
#     Edge 75, Type (0, 1), BuildingBlock: OJICUG_clean_linker_0, # of connection points: 2
# Relax obj value: 0.003
# Max RMSD: 0.047
# Mean RMSD: 0.021
data_MOF--net-ctn--node1-TATPOV_clean_sbu_0--node2-VETTIZ_charged_linker_0--edge1-OJICUG_clean_linker_0
_symmetry_space_group_name_H-M    P1
_symmetry_Int_Tables_number       1
_symmetry_cell_setting            triclinic
loop_
_symmetry_equiv_pos_as_xyz
'x, y, z'
_cell_length_a     51.87721
_cell_length_b     51.88855
_cell_length_c     51.883085
_cell_angle_alpha  91.192879
_cell_angle_beta   91.212399
_cell_angle_gamma 91.172686
loop_
_atom_site_label
_atom_site_type_symbol
_atom_site_fract_x
_atom_site_fract_y
_atom_site_fract_z
_atom_type_partial_charge
C0 C 0.02766 0.08784 0.95686 0.0
C1 C 0.00816 0.10631 0.95651 0.0
C2 C 0.98954 0.10589 0.97594 0.0
C3 C 0.01032 0.06969 0.99584 0.0
C4 C 0.02837 0.06982 0.97663 0.0
C5 C 0.04803 0.04917 0.98013 0.0
H6 H 0.09542 0.95195 0.05102 0.0
C7 C 0.01674 0.04885 0.01374 0.0
C8 C 0.03879 0.03668 0.0046 0.0
H9 H 0.12478 0.98229 0.98014 0.0
H10 H 0.08995 0.01228 0.97815 0.0
H11 H 0.08168 0.00755 0.07697 0.0
H12 H 0.0365 0.95073 0.03328 0.0
H13 H 0.0165 0.96313 0.05721 0.0
H14 H 0.04527 0.94632 0.06651 0.0
H15 H 0.07315 0.97651 0.08928 0.0
H16 H 0.05198 0.00344 0.09226 0.0
C17 C 0.07487 0.0625 0.9841 0.0
C18 C 0.04586 0.03039 0.95653 0.0
C19 C 0.96264 0.03509 0.09308 0.0
C20 C 0.96382 0.01738 0.11322 0.0
C21 C 0.98306 0.99857 0.11289 0.0
C22 C 0.00103 0.99764 0.09309 0.0
C23 C -0.00021 0.01567 0.07328 0.0
C24 C 0.98066 0.03382 0.07337 0.0
C25 C 0.98198 0.05112 0.05051 0.0
C26 C 0.00518 0.0405 0.03679 0.0
C27 C 0.01565 0.01986 0.0503 0.0
C28 C 0.98696 0.07912 0.06065 0.0
C29 C 0.95675 0.04712 0.03423 0.0
C30 C 0.09443 0.96519 0.03517 0.0
C31 C 0.11295 0.96475 0.01574 0.0
C32 C 0.11066 0.98202 0.99521 0.0
C33 C 0.09048 -0.00044 0.99417 0.0
C34 C 0.07228 -9e-05 0.01385 0.0
C35 C 0.07434 0.98279 0.03381 0.0
C36 C 0.05303 0.98571 0.05283 0.0
C37 C 0.03801 0.00757 0.04113 0.0
C38 C 0.04945 0.01588 0.01836 0.0
C39 C 0.0654 0.99355 0.07935 0.0
C40 C 0.03697 0.96018 0.05274 0.0
H41 H 0.97581 0.08855 0.00973 0.0
H42 H 0.0424 0.08772 0.94239 0.0
H43 H 0.02551 0.02822 0.94947 0.0
H44 H 0.05169 0.01061 0.9611 0.0
H45 H 0.05749 0.0375 0.94031 0.0
H46 H 0.07339 0.08062 0.99579 0.0
H47 H 0.08333 0.06759 0.96534 0.0
H48 H 0.08867 0.05072 0.99493 0.0
H49 H 0.94789 0.04956 0.09256 0.0
H50 H 0.98454 0.98485 0.12828 0.0
H51 H 0.01531 0.98301 0.09409 0.0
H52 H 0.00046 0.07949 0.07762 0.0
H53 H 0.96876 0.08808 0.06678 0.0
H54 H 0.9963 0.09158 0.04646 0.0
H55 H 0.94938 0.02688 0.03525 0.0
H56 H 0.95949 0.05024 0.01346 0.0
H57 H 0.94137 0.05991 0.04124 0.0
H58 H 0.97406 0.11959 0.97593 0.0
C59 C 0.99051 0.08774 0.99553 0.0
C60 C 0.22212 0.6385 0.2572 0.0
C61 C 0.19968 0.62981 0.24374 0.0
C62 C 0.19103 0.64362 0.22218 0.0
C63 C 0.22687 0.67411 0.22796 0.0
C64 C 0.23527 0.66058 0.24908 0.0
C65 C 0.2594 0.67222 0.26136 0.0
H66 H 0.35645 0.76068 0.25894 0.0
C67 C 0.24492 0.69618 0.22474 0.0
C68 C 0.26391 0.69524 0.24438 0.0
H69 H 0.34545 0.69941 0.31326 0.0
H70 H 0.30514 0.68728 0.29215 0.0
H71 H 0.29995 0.78046 0.26152 0.0
H72 H 0.33531 0.72904 0.20725 0.0
H73 H 0.31806 0.75255 0.19032 0.0
H74 H 0.34416 0.76253 0.21173 0.0
H75 H 0.31812 0.79249 0.23516 0.0
H76 H 0.28403 0.78491 0.23179 0.0
C77 C 0.25339 0.68054 0.28943 0.0
C78 C 0.28107 0.65222 0.25895 0.0
C79 C 0.23418 0.7551 0.14827 0.0
C80 C 0.2477 0.77735 0.14073 0.0
C81 C 0.26761 0.78776 0.15687 0.0
C82 C 0.27482 0.77552 0.17966 0.0
C83 C 0.26188 0.75268 0.18646 0.0
C84 C 0.24135 0.74333 0.17135 0.0
C85 C 0.22889 0.71974 0.18254 0.0
C86 C 0.24593 0.716 0.20629 0.0
C87 C 0.26552 0.73507 0.20819 0.0
C88 C 0.20087 0.72633 0.18967 0.0
C89 C 0.23098 0.69715 0.16277 0.0
C90 C 0.34529 0.74482 0.26655 0.0
C91 C 0.35451 0.73084 0.28773 0.0
C92 C 0.33926 0.71019 0.29668 0.0
C93 C 0.3157 0.70325 0.28446 0.0
C94 C 0.3071 0.71709 0.26303 0.0
C95 C 0.32162 0.73775 0.25468 0.0
C96 C 0.3091 0.75068 0.23205 0.0
C97 C 0.28501 0.73386 0.22776 0.0
C98 C 0.28409 0.71413 0.24585 0.0
C99 C 0.30255 0.77865 0.24032 0.0
C100 C 0.32754 0.74882 0.20904 0.0
H101 H 0.19694 0.67536 0.19773 0.0
H102 H 0.22956 0.62817 0.27359 0.0
H103 H 0.27933 0.6414 0.24022 0.0
H104 H 0.30058 0.66107 0.25907 0.0
H105 H 0.28004 0.63795 0.27458 0.0
H106 H 0.23316 0.68705 0.29093 0.0
H107 H 0.25589 0.66432 0.30284 0.0
H108 H 0.26533 0.69722 0.29646 0.0
H109 H 0.21863 0.74689 0.13627 0.0
H110 H 0.27833 0.80482 0.15129 0.0
H111 H 0.29056 0.78399 0.19081 0.0
H112 H 0.19924 0.74711 0.19498 0.0
H113 H 0.18724 0.72211 0.17326 0.0
H114 H 0.19423 0.71602 0.20682 0.0
H115 H 0.25037 0.69727 0.15398 0.0
H116 H 0.22882 0.67804 0.17148 0.0
H117 H 0.21638 0.69867 0.14693 0.0
H118 H 0.17367 0.63752 0.21161 0.0
C119 C 0.20448 0.66571 0.21425 0.0
C120 C 0.99242 0.36151 0.99775 0.0
C121 C 0.97906 0.35952 0.9739 0.0
C122 C 0.95813 0.37568 0.96909 0.0
C123 C 0.9656 0.39733 0.0103 0.0
C124 C 0.98543 0.38072 0.01564 0.0
C125 C 0.99841 0.38706 0.04134 0.0
H126 H 0.01271 0.4689 0.14453 0.0
C127 C 0.96458 0.41655 0.03154 0.0
C128 C 0.98364 0.4107 0.04991 0.0
H129 H 0.05281 0.39804 0.12983 0.0
H130 H 0.0277 0.39073 0.09051 0.0
H131 H 0.95634 0.4462 0.12858 0.0
H132 H 0.0126 0.48867 0.08539 0.0
H133 H 0.98206 0.50136 0.07877 0.0
H134 H 0.99511 0.50317 0.11123 0.0
H135 H 0.96338 0.47981 0.13481 0.0
H136 H 0.94 0.46924 0.11041 0.0
C137 C 0.99392 0.364 0.05933 0.0
C138 C 0.02716 0.39361 0.0366 0.0
C139 C 0.90425 0.49125 0.02232 0.0
C140 C 0.90055 0.51399 0.03677 0.0
C141 C 0.91391 0.51761 0.06057 0.0
C142 C 0.93151 0.49923 0.06921 0.0
C143 C 0.93573 0.47704 0.05389 0.0
C144 C 0.92188 0.4733 0.03105 0.0
C145 C 0.92902 0.44919 0.01674 0.0
C146 C 0.94961 0.43891 0.03466 0.0
C147 C 0.95353 0.4552 0.05639 0.0
C148 C 0.90489 0.43103 0.01498 0.0
C149 C 0.93999 0.45706 0.99032 0.0
C150 C 0.01627 0.45197 0.13266 0.0
C151 C 0.0349 0.43413 0.14013 0.0
C152 C 0.03852 0.41201 0.1245 0.0
C153 C 0.02398 0.40785 0.10165 0.0
C154 C 0.00558 0.42597 0.09435 0.0
C155 C 0.00179 0.44745 0.1099 0.0
C156 C 0.98086 0.46423 0.0995 0.0
C157 C 0.97269 0.44927 0.07516 0.0
C158 C 0.98746 0.42701 0.07208 0.0
C159 C 0.95896 0.46519 0.11931 0.0
C160 C 0.99305 0.49087 0.09349 0.0
H161 H 0.93542 0.40639 0.98205 0.0
H162 H 0.00856 0.34922 0.00188 0.0
H163 H 0.0291 0.40586 0.01937 0.0
H164 H 0.03659 0.40478 0.05259 0.0
H165 H 0.03822 0.37581 0.03313 0.0
H166 H 0.97517 0.35397 0.05473 0.0
H167 H 0.00933 0.3496 0.05732 0.0
H168 H 0.99263 0.37003 0.07981 0.0
H169 H 0.89392 0.48761 0.0042 0.0
H170 H 0.91131 0.53498 0.07208 0.0
H171 H 0.94148 0.50321 0.08724 0.0
H172 H 0.89316 0.43291 0.03262 0.0
H173 H 0.8923 0.43568 0.9982 0.0
H174 H 0.90979 0.41041 0.01385 0.0
H175 H 0.94938 0.47654 0.99153 0.0
H176 H 0.95537 0.44432 0.98358 0.0
H177 H 0.9245 0.4576 0.97524 0.0
H178 H 0.94738 0.37413 0.95096 0.0
C179 C 0.95125 0.39443 0.98717 0.0
C180 C 0.65376 0.75779 0.26943 0.0
C181 C 0.63641 0.73725 0.26394 0.0
C182 C 0.64138 0.71992 0.2435 0.0
C183 C 0.68046 0.74414 0.23396 0.0
C184 C 0.67536 0.76109 0.25406 0.0
C185 C 0.69413 0.78353 0.25565 0.0
H186 H 0.7983 0.84616 0.20918 0.0
C187 C 0.70375 0.7539 0.22098 0.0
C188 C 0.71166 0.7771 0.2335 0.0
H189 H 0.74901 0.87 0.27121 0.0
H190 H 0.72348 0.83112 0.26548 0.0
H191 H 0.75185 0.8266 0.17118 0.0
H192 H 0.80121 0.78722 0.22433 0.0
H193 H 0.79667 0.76661 0.1973 0.0
H194 H 0.81213 0.79777 0.19363 0.0
H195 H 0.78518 0.82087 0.16506 0.0
H196 H 0.76024 0.79747 0.15606 0.0
C197 C 0.67901 0.80861 0.251 0.0
C198 C 0.70858 0.78283 0.28204 0.0
C199 C 0.74083 0.70367 0.14545 0.0
C200 C 0.76238 0.70807 0.12994 0.0
C201 C 0.77795 0.73032 0.13478 0.0
C202 C 0.77226 0.74784 0.1546 0.0
C203 C 0.75068 0.74324 0.16985 0.0
C204 C 0.73541 0.72142 0.16526 0.0
C205 C 0.71322 0.71988 0.18347 0.0
C206 C 0.7179 0.74424 0.19983 0.0
C207 C 0.73979 0.75788 0.1916 0.0
C208 C 0.68773 0.72084 0.16742 0.0
C209 C 0.71612 0.69525 0.1995 0.0
C210 C 0.78189 0.84313 0.22139 0.0
C211 C 0.77591 0.86122 0.24083 0.0
C212 C 0.75447 0.85624 0.25642 0.0
C213 C 0.73945 0.83368 0.25293 0.0
C214 C 0.74567 0.81582 0.23348 0.0
C215 C 0.76652 0.8207 0.21804 0.0
C216 C 0.76994 0.79965 0.19811 0.0
C217 C 0.74757 0.7815 0.20403 0.0
C218 C 0.73352 0.79105 0.22482 0.0
C219 C 0.76686 0.81159 0.1711 0.0
C220 C 0.79639 0.78715 0.20332 0.0
H221 H 0.66622 0.70939 0.21321 0.0
H222 H 0.64987 0.77181 0.28456 0.0
H223 H 0.71354 0.7627 0.28684 0.0
H224 H 0.72714 0.79361 0.28234 0.0
H225 H 0.69646 0.7905 0.29772 0.0
H226 H 0.66134 0.80475 0.23888 0.0
H227 H 0.67287 0.81752 0.26946 0.0
H228 H 0.69013 0.82302 0.24014 0.0
H229 H 0.72855 0.68671 0.14237 0.0
H230 H 0.79437 0.73448 0.12289 0.0
H231 H 0.78483 0.7644 0.15715 0.0
H232 H 0.69015 0.73279 0.15004 0.0
H233 H 0.68124 0.70124 0.16075 0.0
H234 H 0.67202 0.73005 0.17806 0.0
H235 H 0.73659 0.69283 0.20565 0.0
H236 H 0.70518 0.69582 0.21749 0.0
H237 H 0.70994 0.67781 0.18802 0.0
H238 H 0.62792 0.7042 0.23882 0.0
C239 C 0.66349 0.7231 0.22863 0.0
C240 C 0.04193 0.91017 0.50352 0.0
C241 C 0.01968 0.89423 0.50102 0.0
C242 C 0.00467 0.89478 0.47809 0.0
C243 C 0.03214 0.92859 0.46184 0.0
C244 C 0.04777 0.92721 0.48365 0.0
C245 C 0.07008 0.94626 0.48312 0.0
H246 H 0.1315 0.04383 0.42262 0.0
C247 C 0.04231 0.94929 0.44564 0.0
C248 C 0.06472 0.95962 0.45775 0.0
H249 H 0.15423 0.00714 0.49339 0.0
H250 H 0.11665 0.97901 0.49009 0.0
H251 H 0.07073 0.04608 0.43597 0.0
H252 H 0.11413 0.9919 0.39104 0.0
H253 H 0.08528 0.99817 0.37404 0.0
H254 H 0.10829 0.0241 0.38065 0.0
H255 H 0.08342 0.05391 0.40511 0.0
H256 H 0.05251 0.03787 0.408 0.0
C257 C 0.06804 0.96498 0.5066 0.0
C258 C 0.09537 0.93092 0.48251 0.0
C259 C 0.9888 0.97704 0.36896 0.0
C260 C 0.99123 0.99726 0.35164 0.0
C261 C 0.01419 0.01219 0.35174 0.0
C262 C 0.03395 0.00783 0.37005 0.0
C263 C 0.03055 0.98838 0.38833 0.0
C264 C 0.00849 0.97299 0.38704 0.0
C265 C 0.00769 0.95345 0.40792 0.0
C266 C 0.03257 0.96008 0.42261 0.0
C267 C 0.04588 0.98058 0.4112 0.0
C268 C 0.98359 0.95865 0.42433 0.0
C269 C 0.0082 0.92618 0.39507 0.0
C270 C 0.12841 0.02966 0.43733 0.0
C271 C 0.14586 0.02769 0.45828 0.0
C272 C 0.14093 0.00924 0.47723 0.0
C273 C 0.11921 0.99277 0.47516 0.0
C274 C 0.10209 0.99481 0.45399 0.0
C275 C 0.10675 0.01312 0.43559 0.0
C276 C 0.08623 0.01279 0.41465 0.0
C277 C 0.0689 0.99078 0.42311 0.0
C278 C 0.07823 0.98038 0.44626 0.0
C279 C 0.07249 0.03901 0.41569 0.0
C280 C 0.09899 0.0066 0.3886 0.0
H281 H 0.99824 0.91148 0.44187 0.0
H282 H 0.05395 0.91002 0.52083 0.0
H283 H 0.09257 0.91251 0.47133 0.0
H284 H 0.11108 0.94123 0.47271 0.0
H285 H 0.10201 0.92607 0.50229 0.0
H286 H 0.04758 0.96989 0.50991 0.0
H287 H 0.07572 0.95619 0.52445 0.0
H288 H 0.07805 0.98366 0.5039 0.0
H289 H 0.97135 0.96519 0.36906 0.0
H290 H 0.01635 0.02786 0.33843 0.0
H291 H 0.05079 0.02018 0.36973 0.0
H292 H 0.98063 0.97973 0.42682 0.0
H293 H 0.96589 0.9501 0.41492 0.0
H294 H 0.98521 0.95143 0.44412 0.0
H295 H 0.01782 0.92656 0.37611 0.0
H296 H 0.01954 0.91247 0.40654 0.0
H297 H 0.98839 0.91814 0.39166 0.0
H298 H 0.98786 0.88219 0.47539 0.0
C299 C 0.01079 0.91175 0.45855 0.0
C300 C 0.26737 0.64812 0.7624 0.0
C301 C 0.26403 0.62962 0.74243 0.0
C302 C 0.24557 0.63373 0.72272 0.0
C303 C 0.23245 0.67311 0.74466 0.0
C304 C 0.25148 0.66948 0.76317 0.0
C305 C 0.25178 0.68982 0.78415 0.0
H306 H 0.19964 0.7948 0.8397 0.0
C307 C 0.21811 0.69637 0.75245 0.0
C308 C 0.22951 0.70621 0.77549 0.0
H309 H 0.2653 0.75119 0.86531 0.0
H310 H 0.26075 0.72323 0.82821 0.0
H311 H 0.16441 0.74391 0.82128 0.0
H312 H 0.21417 0.79547 0.78017 0.0
H313 H 0.18742 0.78799 0.75989 0.0
H314 H 0.18273 0.80472 0.79024 0.0
H315 H 0.15673 0.77694 0.81569 0.0
H316 H 0.14866 0.75181 0.79226 0.0
C317 C 0.24638 0.67644 0.81005 0.0
C318 C 0.27795 0.70477 0.78337 0.0
C319 C 0.13869 0.72284 0.70109 0.0
C320 C 0.12131 0.74311 0.70409 0.0
C321 C 0.12556 0.76123 0.72445 0.0
C322 C 0.14641 0.75896 0.74181 0.0
C323 C 0.1633 0.73834 0.73887 0.0
C324 C 0.15953 0.72091 0.71855 0.0
C325 C 0.17977 0.70053 0.71818 0.0
C326 C 0.19607 0.70841 0.7418 0.0
C327 C 0.18617 0.73047 0.754 0.0
C328 C 0.16617 0.67398 0.72132 0.0
C329 C 0.19504 0.70302 0.693 0.0
C330 C 0.2129 0.77912 0.83729 0.0
C331 C 0.23308 0.77548 0.8554 0.0
C332 C 0.24996 0.75487 0.85146 0.0
C333 C 0.24719 0.73845 0.82989 0.0
C334 C 0.22715 0.74233 0.81192 0.0
C335 C 0.21039 0.76236 0.81568 0.0
C336 C 0.19028 0.76325 0.7943 0.0
C337 C 0.19786 0.74047 0.77727 0.0
C338 C 0.21941 0.72835 0.78784 0.0
C339 C 0.16351 0.75894 0.80632 0.0
C340 C 0.19353 0.78922 0.78041 0.0
H341 H 0.21551 0.65724 0.70857 0.0
H342 H 0.2816 0.64556 0.77768 0.0
H343 H 0.28488 0.70606 0.76328 0.0
H344 H 0.27667 0.72504 0.79013 0.0
H345 H 0.29304 0.69507 0.79491 0.0
H346 H 0.2334 0.65924 0.80703 0.0
H347 H 0.2645 0.66983 0.81932 0.0
H348 H 0.23614 0.68881 0.82388 0.0
H349 H 0.13617 0.70882 0.68544 0.0
H350 H 0.11236 0.7769 0.72732 0.0
H351 H 0.14842 0.77323 0.75701 0.0
H352 H 0.15074 0.6753 0.73584 0.0
H353 H 0.15707 0.66703 0.70282 0.0
H354 H 0.17922 0.65909 0.72846 0.0
H355 H 0.19722 0.72358 0.68758 0.0
H356 H 0.21496 0.69607 0.69491 0.0
H357 H 0.18502 0.69251 0.6767 0.0
H358 H 0.24268 0.61964 0.70718 0.0
C359 C 0.22971 0.65542 0.72373 0.0
C360 C 0.86926 0.49621 0.4917 0.0
C361 C 0.86574 0.47304 0.47735 0.0
C362 C 0.88142 0.46822 0.45605 0.0
C363 C 0.90515 0.5081 0.46468 0.0
C364 C 0.88922 0.51343 0.48505 0.0
C365 C 0.89692 0.53845 0.49873 0.0
H366 H 0.97843 0.6425 0.50911 0.0
C367 C 0.92486 0.52888 0.46358 0.0
C368 C 0.92022 0.54687 0.48335 0.0
H369 H 0.91188 0.62515 0.55493 0.0
H370 H 0.9042 0.58552 0.53064 0.0
H371 H 0.95245 0.62651 0.45542 0.0
H372 H 7e-05 0.58218 0.50656 0.0
H373 H 0.0108 0.57812 0.47478 0.0
H374 H 0.01217 0.60971 0.48982 0.0
H375 H 0.98655 0.63258 0.45903 0.0
H376 H 0.97357 0.60844 0.43654 0.0
C377 C 0.87431 0.55728 0.49581 0.0
C378 C 0.90441 0.53244 0.527 0.0
C379 C 0.9946 0.52143 0.39748 0.0
C380 C 0.01556 0.53722 0.39058 0.0
C381 C 0.02003 0.56075 0.4043 0.0
C382 C 0.00383 0.56826 0.42443 0.0
C383 C 0.98288 0.55213 0.43088 0.0
C384 C 0.97853 0.52931 0.41719 0.0
C385 C 0.95517 0.5147 0.42584 0.0
C386 C 0.94621 0.5323 0.44731 0.0
C387 C 0.96255 0.55409 0.45045 0.0
C388 C 0.93541 0.51288 0.40291 0.0
C389 C 0.96409 0.48836 0.43605 0.0
C390 C 0.96248 0.62991 0.51415 0.0
C391 C 0.94574 0.63693 0.53396 0.0
C392 C 0.9249 0.62026 0.53961 0.0
C393 C 0.92048 0.59725 0.52549 0.0
C394 C 0.93702 0.59075 0.5054 0.0
C395 C 0.9577 0.60689 0.50009 0.0
C396 C 0.97288 0.5971 0.47763 0.0
C397 C 0.95787 0.5725 0.47036 0.0
C398 C 0.93688 0.56886 0.48675 0.0
C399 C 0.97156 0.61716 0.45597 0.0
C400 C 0.00054 0.59157 0.48748 0.0
H401 H 0.91246 0.48041 0.43346 0.0
H402 H 0.85748 0.50033 0.50821 0.0
H403 H 0.91486 0.51396 0.528 0.0
H404 H 0.91776 0.54698 0.53599 0.0
H405 H 0.88703 0.53061 0.53902 0.0
H406 H 0.86452 0.55466 0.47661 0.0
H407 H 0.85964 0.55398 0.51074 0.0
H408 H 0.88066 0.57773 0.49665 0.0
H409 H 0.99076 0.50292 0.38799 0.0
H410 H 0.03589 0.57347 0.39934 0.0
H411 H 0.00819 0.58634 0.43414 0.0
H412 H 0.93769 0.52945 0.3898 0.0
H413 H 0.93784 0.49497 0.39121 0.0
H414 H 0.91519 0.51386 0.40917 0.0
H415 H 0.98322 0.49037 0.44608 0.0
H416 H 0.9512 0.48024 0.45061 0.0
H417 H 0.96596 0.47403 0.42003 0.0
H418 H 0.87879 0.45063 0.44457 0.0
C419 C 0.901 0.48557 0.44963 0.0
C420 C 0.82989 0.75266 0.87997 0.0
C421 C 0.81273 0.75146 0.90067 0.0
C422 C 0.79771 0.77326 0.90614 0.0
C423 C 0.81525 0.79533 0.8695 0.0
C424 C 0.83116 0.7748 0.86509 0.0
C425 C 0.84882 0.77932 0.84293 0.0
H426 H 0.88037 0.84988 0.74008 0.0
C427 C 0.82034 0.81471 0.84971 0.0
C428 C 0.84055 0.80582 0.83455 0.0
H429 H 0.91308 0.77823 0.7647 0.0
H430 H 0.8882 0.77997 0.80341 0.0
H431 H 0.88162 0.87873 0.79488 0.0
H432 H 0.82161 0.83434 0.75475 0.0
H433 H 0.80907 0.8638 0.76573 0.0
H434 H 0.83488 0.86417 0.74338 0.0
H435 H 0.86214 0.89251 0.76996 0.0
H436 H 0.85225 0.89265 0.80317 0.0
C437 C 0.87705 0.77964 0.85339 0.0
C438 C 0.84265 0.75829 0.82193 0.0
C439 C 0.75671 0.88621 0.83555 0.0
C440 C 0.75539 0.90651 0.81793 0.0
C441 C 0.77685 0.9112 0.80223 0.0
C442 C 0.79811 0.89494 0.80269 0.0
C443 C 0.7981 0.87373 0.81905 0.0
C444 C 0.77825 0.87042 0.83602 0.0
C445 C 0.78259 0.84816 0.85363 0.0
C446 C 0.80746 0.8376 0.84312 0.0
C447 C 0.81615 0.85235 0.82251 0.0
C448 C 0.78618 0.85887 0.88166 0.0
C449 C 0.75971 0.82872 0.84987 0.0
C450 C 0.88223 0.83461 0.75388 0.0
C451 C 0.89848 0.81373 0.74914 0.0
C452 C 0.90081 0.79459 0.76788 0.0
C453 C 0.88611 0.79549 0.79024 0.0
C454 C 0.86871 0.81561 0.79384 0.0
C455 C 0.86746 0.83508 0.77614 0.0
C456 C 0.84758 0.85469 0.78284 0.0
C457 C 0.83691 0.84363 0.80741 0.0
C458 C 0.84917 0.82059 0.81356 0.0
C459 C 0.86142 0.88113 0.78783 0.0
C460 C 0.82717 0.85449 0.76058 0.0
H461 H 0.78658 0.81074 0.89547 0.0
H462 H 0.84175 0.73652 0.87481 0.0
H463 H 0.82145 0.7549 0.81978 0.0
H464 H 0.84908 0.76359 0.80261 0.0
H465 H 0.85145 0.73969 0.82707 0.0
H466 H 0.87828 0.78645 0.87386 0.0
H467 H 0.88534 0.76008 0.85244 0.0
H468 H 0.88967 0.79322 0.84306 0.0
H469 H 0.74093 0.88185 0.84814 0.0
H470 H 0.77716 0.92724 0.78923 0.0
H471 H 0.81351 0.89916 0.78986 0.0
H472 H 0.79134 0.8798 0.88222 0.0
H473 H 0.76826 0.85638 0.89277 0.0
H474 H 0.80229 0.84962 0.89208 0.0
H475 H 0.75594 0.82455 0.82899 0.0
H476 H 0.76318 0.81002 0.85882 0.0
H477 H 0.74184 0.83658 0.85812 0.0
H478 H 0.78497 0.77357 0.92238 0.0
C479 C 0.79881 0.79505 0.89063 0.0
C480 C 0.33432 0.24954 0.38015 0.0
C481 C 0.31607 0.24723 0.39982 0.0
C482 C 0.30004 0.26841 0.40487 0.0
C483 C 0.31821 0.29157 0.36929 0.0
C484 C 0.33535 0.27195 0.36558 0.0
C485 C 0.35419 0.27786 0.34472 0.0
H486 H 0.38176 0.34592 0.23991 0.0
C487 C 0.32312 0.31133 0.34986 0.0
C488 C 0.34468 0.30383 0.33586 0.0
H489 H 0.42539 0.28385 0.27292 0.0
H490 H 0.39779 0.28392 0.30958 0.0
H491 H 0.38179 0.37839 0.29066 0.0
H492 H 0.32371 0.32753 0.25625 0.0
H493 H 0.31052 0.3578 0.26424 0.0
H494 H 0.33634 0.35636 0.24207 0.0
H495 H 0.35821 0.39004 0.26828 0.0
H496 H 0.3523 0.38919 0.30248 0.0
C497 C 0.38172 0.27996 0.35699 0.0
C498 C 0.35095 0.25671 0.32335 0.0
C499 C 0.25542 0.37851 0.33221 0.0
C500 C 0.25384 0.39887 0.31464 0.0
C501 C 0.27563 0.40446 0.29964 0.0
C502 C 0.29749 0.38907 0.30068 0.0
C503 C 0.29791 0.36795 0.3171 0.0
C504 C 0.27769 0.36372 0.33341 0.0
C505 C 0.28277 0.342 0.35152 0.0
C506 C 0.30881 0.33303 0.34225 0.0
C507 C 0.31718 0.34792 0.32162 0.0
C508 C 0.28443 0.35314 0.37952 0.0
C509 C 0.26134 0.3211 0.34701 0.0
C510 C 0.38587 0.33253 0.25507 0.0
C511 C 0.40554 0.31429 0.25273 0.0
C512 C 0.40985 0.29745 0.27338 0.0
C513 C 0.39391 0.29759 0.29487 0.0
C514 C 0.37351 0.31489 0.29601 0.0
C515 C 0.37047 0.33272 0.27689 0.0
C516 C 0.34903 0.35102 0.28238 0.0
C517 C 0.33903 0.34044 0.30747 0.0
C518 C 0.35305 0.31887 0.31495 0.0
C519 C 0.36076 0.37864 0.28601 0.0
C520 C 0.32876 0.34821 0.2601 0.0
H521 H 0.28788 0.3055 0.3941 0.0
H522 H 0.34722 0.2341 0.37555 0.0
H523 H 0.33022 0.25376 0.31791 0.0
H524 H 0.36089 0.2615 0.30548 0.0
H525 H 0.3584 0.23804 0.33009 0.0
H526 H 0.38126 0.2839 0.37813 0.0
H527 H 0.39241 0.26185 0.354 0.0
H528 H 0.39309 0.29628 0.3493 0.0
H529 H 0.23949 0.37351 0.34436 0.0
H530 H 0.27586 0.42063 0.28682 0.0
H531 H 0.3131 0.39395 0.28837 0.0
H532 H 0.28784 0.37438 0.38003 0.0
H533 H 0.26633 0.34924 0.38996 0.0
H534 H 0.30089 0.34533 0.39065 0.0
H535 H 0.25907 0.31618 0.32611 0.0
H536 H 0.26539 0.30295 0.35679 0.0
H537 H 0.24253 0.32803 0.35393 0.0
H538 H 0.28662 0.26811 0.42054 0.0
C539 C 0.30092 0.29038 0.38965 0.0
C540 C 0.51074 0.87129 0.49643 0.0
C541 C 0.50032 0.87061 0.47114 0.0
C542 C 0.48158 0.88857 0.46416 0.0
C543 C 0.48404 0.90786 0.50694 0.0
C544 C 0.50248 0.89031 0.51396 0.0
C545 C 0.5122 0.89509 0.54131 0.0
H546 H 0.51057 0.96946 0.65068 0.0
C547 C 0.47973 0.92522 0.5292 0.0
C548 C 0.49618 0.91804 0.54947 0.0
H549 H 0.55817 0.90381 0.63506 0.0
H550 H 0.53709 0.89739 0.59331 0.0
H551 H 0.45869 0.943 0.62882 0.0
H552 H 0.51304 0.99455 0.59346 0.0
H553 H 0.48151 0.00541 0.58756 0.0
H554 H 0.49356 0.00378 0.6202 0.0
H555 H 0.45916 0.97703 0.63574 0.0
H556 H 0.44086 0.96313 0.60869 0.0
C557 C 0.50582 0.8709 0.5571 0.0
C558 C 0.54132 0.90212 0.54047 0.0
C559 C 0.41291 0.99435 0.52072 0.0
C560 C 0.40261 0.01244 0.538 0.0
C561 C 0.413 0.01431 0.56337 0.0
C562 C 0.43296 0.99814 0.57133 0.0
C563 C 0.44259 0.97982 0.5538 0.0
C564 C 0.43236 0.97814 0.52905 0.0
C565 C 0.44385 0.95699 0.51319 0.0
C566 C 0.4628 0.94608 0.53247 0.0
C567 C 0.46229 0.95967 0.5561 0.0
C568 C 0.42195 0.93727 0.50551 0.0
C569 C 0.45768 0.96944 0.49016 0.0
C570 C 0.5166 0.95387 0.63814 0.0
C571 C 0.53625 0.93733 0.64597 0.0
C572 C 0.54307 0.9168 0.62941 0.0
C573 C 0.53093 0.91321 0.60514 0.0
C574 C 0.51169 0.93026 0.59735 0.0
C575 C 0.50457 0.94995 0.61394 0.0
C576 C 0.48318 0.96571 0.60288 0.0
C577 C 0.47928 0.95288 0.57654 0.0
C578 C 0.49606 0.93212 0.57332 0.0
C579 C 0.45919 0.96231 0.61988 0.0
C580 C 0.49311 0.99394 0.60097 0.0
H581 H 0.45907 0.92012 0.47519 0.0
H582 H 0.5253 0.85777 0.50219 0.0
H583 H 0.54556 0.91412 0.52348 0.0
H584 H 0.54823 0.91388 0.55728 0.0
H585 H 0.55308 0.88452 0.53901 0.0
H586 H 0.48648 0.86273 0.55141 0.0
H587 H 0.52018 0.85564 0.55383 0.0
H588 H 0.50478 0.87511 0.57799 0.0
H589 H 0.40598 0.99264 0.50091 0.0
H590 H 0.40539 0.02791 0.57721 0.0
H591 H 0.44 0.00037 0.59087 0.0
H592 H 0.40723 0.93614 0.52077 0.0
H593 H 0.41191 0.94279 0.48739 0.0
H594 H 0.42878 0.91733 0.50334 0.0
H595 H 0.46568 0.98892 0.49557 0.0
H596 H 0.47457 0.95852 0.48381 0.0
H597 H 0.44419 0.9717 0.47349 0.0
H598 H 0.47311 0.88817 0.44488 0.0
C599 C 0.47338 0.90707 0.48186 0.0
C600 C 0.14892 0.25961 0.77254 0.0
C601 C 0.13163 0.23854 0.76953 0.0
C602 C 0.13821 0.21755 0.75352 0.0
C603 C 0.17766 0.24011 0.74181 0.0
C604 C 0.17169 0.25998 0.75865 0.0
C605 C 0.19146 0.28153 0.75901 0.0
H606 H 0.29942 0.33557 0.71086 0.0
C607 C 0.20181 0.24758 0.72887 0.0
C608 C 0.21005 0.27172 0.73911 0.0
H609 H 0.25146 0.3647 0.77168 0.0
H610 H 0.2241 0.3269 0.76782 0.0
H611 H 0.25171 0.31482 0.67398 0.0
H612 H 0.30021 0.27754 0.72955 0.0
H613 H 0.29508 0.25559 0.70364 0.0
H614 H 0.31139 0.28603 0.69829 0.0
H615 H 0.28488 0.30792 0.66822 0.0
H616 H 0.25943 0.2846 0.66079 0.0
C617 C 0.17796 0.30638 0.75025 0.0
C618 C 0.20406 0.28342 0.78639 0.0
C619 C 0.23464 0.19264 0.65462 0.0
C620 C 0.25532 0.19591 0.63779 0.0
C621 C 0.27263 0.21696 0.64199 0.0
C622 C 0.26898 0.23491 0.66201 0.0
C623 C 0.24771 0.23195 0.67805 0.0
C624 C 0.23118 0.21087 0.67451 0.0
C625 C 0.20958 0.21101 0.69344 0.0
C626 C 0.21569 0.23583 0.70861 0.0
C627 C 0.23799 0.24806 0.69937 0.0
C628 C 0.18377 0.21233 0.67802 0.0
C629 C 0.21197 0.18699 0.71048 0.0
C630 C 0.28291 0.33383 0.72319 0.0
C631 C 0.27777 0.35312 0.74174 0.0
C632 C 0.25618 0.34997 0.75755 0.0
C633 C 0.24018 0.328 0.7552 0.0
C634 C 0.24558 0.30885 0.73672 0.0
C635 C 0.26666 0.31187 0.72112 0.0
C636 C 0.26931 0.28935 0.70266 0.0
C637 C 0.24648 0.27234 0.70995 0.0
C638 C 0.23261 0.28399 0.72977 0.0
C639 C 0.26639 0.2995 0.67489 0.0
C640 C 0.29539 0.27642 0.70855 0.0
H641 H 0.16489 0.20199 0.72717 0.0
H642 H 0.14444 0.27586 0.78499 0.0
H643 H 0.2045 0.26421 0.79552 0.0
H644 H 0.22449 0.28991 0.78621 0.0
H645 H 0.19322 0.29649 0.79924 0.0
H646 H 0.16323 0.30186 0.73482 0.0
H647 H 0.16799 0.31584 0.76654 0.0
H648 H 0.19124 0.32052 0.74167 0.0
H649 H 0.22094 0.17674 0.65185 0.0
H650 H 0.289 0.21964 0.62964 0.0
H651 H 0.2827 0.2506 0.66399 0.0
H652 H 0.18554 0.22597 0.66185 0.0
H653 H 0.17805 0.19313 0.66964 0.0
H654 H 0.16778 0.21956 0.68961 0.0
H655 H 0.23254 0.18214 0.71386 0.0
H656 H 0.20422 0.19007 0.72995 0.0
H657 H 0.20215 0.16988 0.70117 0.0
H658 H 0.12509 0.20113 0.75098 0.0
C659 C 0.16117 0.21823 0.7396 0.0
C660 C 0.70968 0.1357 0.74356 0.0
C661 C 0.68762 0.12914 0.72844 0.0
C662 C 0.68006 0.14563 0.7085 0.0
C663 C 0.71615 0.17466 0.71921 0.0
C664 C 0.72357 0.15838 0.73864 0.0
C665 C 0.74771 0.16774 0.7527 0.0
H666 H 0.84571 0.25521 0.76405 0.0
C667 C 0.73471 0.19668 0.71933 0.0
C668 C 0.75316 0.19275 0.73905 0.0
H669 H 0.8348 0.18613 0.80814 0.0
H670 H 0.79441 0.17705 0.78524 0.0
H671 H 0.79044 0.27478 0.7687 0.0
H672 H 0.82649 0.23067 0.70912 0.0
H673 H 0.8094 0.25562 0.69453 0.0
H674 H 0.83472 0.26361 0.71756 0.0
H675 H 0.80834 0.29021 0.74398 0.0
H676 H 0.77421 0.28299 0.74008 0.0
C677 C 0.74132 0.17249 0.78141 0.0
C678 C 0.76896 0.14768 0.74809 0.0
C679 C 0.72981 0.26474 0.64998 0.0
C680 C 0.74556 0.28649 0.64536 0.0
C681 C 0.76374 0.29496 0.66438 0.0
C682 C 0.7679 0.28079 0.6866 0.0
C683 C 0.75386 0.25775 0.68984 0.0
C684 C 0.73427 0.25067 0.67247 0.0
C685 C 0.72076 0.22603 0.68005 0.0
C686 C 0.73651 0.21893 0.70387 0.0
C687 C 0.75615 0.23739 0.7091 0.0
C688 C 0.69259 0.23239 0.68666 0.0
C689 C 0.7233 0.2059 0.65784 0.0
C690 C 0.83454 0.23828 0.76915 0.0
C691 C 0.84357 0.22142 0.78805 0.0
C692 C 0.82851 0.19933 0.79349 0.0
C693 C 0.80499 0.19416 0.78024 0.0
C694 C 0.79644 0.2112 0.76125 0.0
C695 C 0.8111 0.23293 0.75623 0.0
C696 C 0.79927 0.24899 0.73552 0.0
C697 C 0.77515 0.23312 0.72856 0.0
C698 C 0.77364 0.21095 0.74353 0.0
C699 C 0.79283 0.27571 0.74747 0.0
C700 C 0.81836 0.25002 0.71295 0.0
H701 H 0.68743 0.18016 0.68847 0.0
H702 H 0.71627 0.12321 0.75871 0.0
H703 H 0.76689 0.13866 0.72849 0.0
H704 H 0.78861 0.15628 0.74873 0.0
H705 H 0.76788 0.13199 0.76229 0.0
H706 H 0.72188 0.18093 0.78324 0.0
H707 H 0.74136 0.15419 0.79214 0.0
H708 H 0.75469 0.18651 0.79124 0.0
H709 H 0.71561 0.25791 0.63569 0.0
H710 H 0.77577 0.31191 0.66136 0.0
H711 H 0.78272 0.28774 0.69981 0.0
H712 H 0.69134 0.25217 0.69521 0.0
H713 H 0.67989 0.23143 0.66915 0.0
H714 H 0.68456 0.21962 0.70139 0.0
H715 H 0.74307 0.20666 0.64997 0.0
H716 H 0.72034 0.18588 0.66404 0.0
H717 H 0.70945 0.20965 0.64179 0.0
H718 H 0.66307 0.14103 0.69667 0.0
C719 C 0.69414 0.16839 0.70388 0.0
C720 C 0.53989 0.60217 0.46823 0.0
C721 C 0.52085 0.6211 0.46808 0.0
C722 C 0.50086 0.61956 0.48603 0.0
C723 C 0.51924 0.58104 0.50397 0.0
C724 C 0.53868 0.5824 0.4862 0.0
C725 C 0.55733 0.56074 0.48884 0.0
H726 H 0.59658 0.45508 0.55202 0.0
C727 C 0.52373 0.55828 0.52007 0.0
C728 C 0.54597 0.54624 0.51121 0.0
H729 H 0.63139 0.4911 0.48649 0.0
H730 H 0.59785 0.52254 0.48555 0.0
H731 H 0.58311 0.50849 0.58244 0.0
H732 H 0.53882 0.45782 0.53092 0.0
H733 H 0.51779 0.46854 0.55474 0.0
H734 H 0.54536 0.44982 0.56386 0.0
H735 H 0.57259 0.47671 0.59111 0.0
H736 H 0.55232 0.50417 0.5954 0.0
C737 C 0.58427 0.57266 0.49581 0.0
C738 C 0.55619 0.54438 0.46348 0.0
C739 C 0.46408 0.53879 0.59414 0.0
C740 C 0.46349 0.51921 0.61251 0.0
C741 C 0.48211 0.49981 0.61142 0.0
C742 C 0.5012 0.5001 0.59269 0.0
C743 C 0.50177 0.52 0.57473 0.0
C744 C 0.48325 0.53876 0.57548 0.0
C745 C 0.48661 0.55815 0.55458 0.0
C746 C 0.51035 0.5481 0.54134 0.0
C747 C 0.51924 0.52583 0.55333 0.0
C748 C 0.49176 0.58495 0.56759 0.0
C749 C 0.46238 0.55657 0.53656 0.0
C750 C 0.59706 0.46986 0.53759 0.0
C751 C 0.61674 0.4706 0.51933 0.0
C752 C 0.61635 0.48991 0.50061 0.0
C753 C 0.59692 0.50828 0.5002 0.0
C754 C 0.57752 0.50742 0.51869 0.0
C755 C 0.5777 0.48832 0.53685 0.0
C756 C 0.55528 0.49017 0.55471 0.0
C757 C 0.54178 0.51367 0.5444 0.0
C758 C 0.55499 0.52376 0.52339 0.0
C759 C 0.56618 0.49497 0.58247 0.0
C760 C 0.53841 0.4653 0.55116 0.0
H761 H 0.48435 0.59972 0.51716 0.0
H762 H 0.55532 0.60255 0.45449 0.0
H763 H 0.53642 0.54404 0.4547 0.0
H764 H 0.56053 0.52389 0.46649 0.0
H765 H 0.56954 0.55233 0.44905 0.0
H766 H 0.58259 0.58947 0.5093 0.0
H767 H 0.59408 0.57952 0.47833 0.0
H768 H 0.59699 0.55926 0.506 0.0
H769 H 0.44987 0.5538 0.59421 0.0
H770 H 0.48228 0.48466 0.62548 0.0
H771 H 0.51493 0.48493 0.59309 0.0
H772 H 0.50437 0.58329 0.58508 0.0
H773 H 0.47348 0.5938 0.57368 0.0
H774 H 0.50213 0.59851 0.55518 0.0
H775 H 0.45445 0.53649 0.53503 0.0
H776 H 0.46655 0.56177 0.51651 0.0
H777 H 0.4469 0.56903 0.54393 0.0
H778 H 0.4861 0.63401 0.48653 0.0
C779 C 0.49996 0.59969 0.50393 0.0
C780 C 0.54249 0.4097 0.99844 0.0
C781 C 0.51968 0.39451 0.99667 0.0
C782 C 0.50437 0.39505 0.97392 0.0
C783 C 0.53291 0.42728 0.95634 0.0
C784 C 0.5487 0.42592 0.97803 0.0
C785 C 0.57166 0.44408 0.97679 0.0
H786 H 0.63554 0.53855 0.91421 0.0
C787 C 0.54371 0.44709 0.93945 0.0
C788 C 0.56659 0.45687 0.95108 0.0
H789 H 0.65705 0.50282 0.98586 0.0
H790 H 0.61922 0.47508 0.98263 0.0
H791 H 0.57522 0.54244 0.92717 0.0
H792 H 0.61658 0.48572 0.88333 0.0
H793 H 0.58803 0.49292 0.86621 0.0
H794 H 0.6121 0.51797 0.87239 0.0
H795 H 0.58807 0.54915 0.89611 0.0
H796 H 0.5567 0.53416 0.8994 0.0
C797 C 0.57048 0.46354 -0.00023 0.0
C798 C 0.59635 0.42778 0.97641 0.0
C799 C 0.49068 0.47466 0.86239 0.0
C800 C 0.49365 0.49432 0.84455 0.0
C801 C 0.51707 0.50846 0.84409 0.0
C802 C 0.53684 0.50386 0.86233 0.0
C803 C 0.53294 0.485 0.88113 0.0
C804 C 0.51037 0.47038 0.88042 0.0
C805 C 0.50903 0.4515 0.90186 0.0
C806 C 0.53422 0.4576 0.91617 0.0
C807 C 0.54818 0.47727 0.90411 0.0
C808 C 0.48529 0.45806 0.91832 0.0
C809 C 0.50844 0.42387 0.88978 0.0
C810 C 0.63214 0.5246 0.92908 0.0
C811 C 0.64925 0.52288 0.95035 0.0
C812 C 0.64399 0.50473 0.96948 0.0
C813 C 0.62209 0.48852 0.96748 0.0
C814 C 0.60509 0.49055 0.94622 0.0
C815 C 0.61022 0.50837 0.92746 0.0
C816 C 0.58962 0.5082 0.90657 0.0
C817 C 0.57164 0.48692 0.91558 0.0
C818 C 0.58078 0.47675 0.93891 0.0
C819 C 0.57671 0.53485 0.90705 0.0
C820 C 0.60209 0.501 0.88063 0.0
H821 H 0.49812 0.41099 0.93728 0.0
H822 H 0.55474 0.40959 0.0156 0.0
H823 H 0.59275 0.4091 0.96589 0.0
H824 H 0.61228 0.43713 0.96607 0.0
H825 H 0.60305 0.42336 0.99628 0.0
H826 H 0.55023 0.4691 0.00328 0.0
H827 H 0.57823 0.45508 0.01777 0.0
H828 H 0.58089 0.48187 0.99638 0.0
H829 H 0.47282 0.46348 0.86297 0.0
H830 H 0.51961 0.52372 0.83038 0.0
H831 H 0.55407 0.5156 0.86157 0.0
H832 H 0.48297 0.4793 0.92006 0.0
H833 H 0.46726 0.44971 0.9094 0.0
H834 H 0.48692 0.45156 0.93836 0.0
H835 H 0.51827 0.42329 0.87092 0.0
H836 H 0.519 0.40998 0.90174 0.0
H837 H 0.48834 0.41664 0.88634 0.0
H838 H 0.48711 0.38302 0.97176 0.0
C839 C 0.51087 0.41124 0.95381 0.0
C840 C 0.77709 0.16078 0.25643 0.0
C841 C 0.7736 0.14144 0.23731 0.0
C842 C 0.75514 0.14481 0.21742 0.0
C843 C 0.74161 0.18462 0.2382 0.0
C844 C 0.76086 0.1819 0.25669 0.0
C845 C 0.7602 0.20217 0.27769 0.0
H846 H 0.69479 0.29375 0.34057 0.0
C847 C 0.72615 0.2071 0.24603 0.0
C848 C 0.73706 0.21742 0.26911 0.0
H849 H 0.76801 0.26054 0.36126 0.0
H850 H 0.76849 0.23758 0.32074 0.0
H851 H 0.66762 0.24262 0.31338 0.0
H852 H 0.71114 0.30606 0.28292 0.0
H853 H 0.68959 0.29561 0.25813 0.0
H854 H 0.67718 0.3082 0.28805 0.0
H855 H 0.6573 0.27547 0.31368 0.0
H856 H 0.65113 0.25459 0.28615 0.0
C857 C 0.75563 0.18835 0.30352 0.0
C858 C 0.78557 0.21849 0.27698 0.0
C859 C 0.64506 0.22936 0.19498 0.0
C860 C 0.62661 0.24858 0.19823 0.0
C861 C 0.62962 0.26637 0.21905 0.0
C862 C 0.65037 0.2648 0.2366 0.0
C863 C 0.66837 0.24522 0.2334 0.0
C864 C 0.66584 0.22818 0.21261 0.0
C865 C 0.68728 0.20907 0.21201 0.0
C866 C 0.70317 0.21764 0.2357 0.0
C867 C 0.69167 0.23853 0.24841 0.0
C868 C 0.67519 0.18176 0.21489 0.0
C869 C 0.70235 0.21273 0.18687 0.0
C870 C 0.71093 0.28159 0.33624 0.0
C871 C 0.7309 0.2782 0.3546 0.0
C872 C 0.75188 0.26272 0.34793 0.0
C873 C 0.75223 0.24946 0.32428 0.0
C874 C 0.73134 0.25148 0.30692 0.0
C875 C 0.7116 0.26806 0.31248 0.0
C876 C 0.69186 0.26861 0.29075 0.0
C877 C 0.70245 0.24859 0.27205 0.0
C878 C 0.72534 0.23843 0.28194 0.0
C879 C 0.66547 0.26001 0.30139 0.0
C880 C 0.69221 0.29601 0.27936 0.0
H881 H 0.72484 0.16755 0.20256 0.0
H882 H 0.7913 0.15875 0.27183 0.0
H883 H 0.79345 0.21882 0.25721 0.0
H884 H 0.7827 0.23902 0.28214 0.0
H885 H 0.80065 0.21061 0.28994 0.0
H886 H 0.74199 0.17166 0.30062 0.0
H887 H 0.77394 0.1809 0.31165 0.0
H888 H 0.74666 0.20057 0.31829 0.0
H889 H 0.64343 0.21561 0.179 0.0
H890 H 0.61555 0.28122 0.22208 0.0
H891 H 0.65142 0.27869 0.25219 0.0
H892 H 0.65898 0.18217 0.22859 0.0
H893 H 0.66745 0.17404 0.19609 0.0
H894 H 0.68879 0.16786 0.223 0.0
H895 H 0.70407 0.23352 0.18219 0.0
H896 H 0.72239 0.20607 0.18839 0.0
H897 H 0.6924 0.2026 0.17029 0.0
H898 H 0.75216 0.13009 0.20248 0.0
C899 C 0.73914 0.16639 0.21772 0.0
C900 C 0.36447 -0.00076 0.00164 0.0
C901 C 0.36163 0.97511 0.98894 0.0
C902 C 0.37773 0.96902 0.96831 0.0
C903 C 0.40052 0.00983 0.97431 0.0
C904 C 0.38422 0.01627 0.99408 0.0
C905 C 0.39138 0.04218 0.00621 0.0
H906 H 0.47383 0.14558 0.01355 0.0
C907 C 0.42009 0.03063 0.97226 0.0
C908 C 0.41497 0.04974 0.99084 0.0
H909 H 0.40498 0.13232 0.05732 0.0
H910 H 0.39717 0.09177 0.03459 0.0
H911 H 0.44933 0.12652 0.95894 0.0
H912 H 0.49418 0.08658 0.01593 0.0
H913 H 0.50552 0.078 0.98532 0.0
H914 H 0.50797 0.11116 0.99631 0.0
H915 H 0.48302 0.13347 0.96481 0.0
H916 H 0.47221 0.10795 0.94282 0.0
C917 C 0.36869 0.06057 0.00151 0.0
C918 C 0.39829 0.03815 0.03501 0.0
C919 C 0.49195 0.01918 0.90892 0.0
C920 C 0.51451 0.03338 0.90376 0.0
C921 C 0.51898 0.05733 0.91661 0.0
C922 C 0.50158 0.06648 0.93494 0.0
C923 C 0.4795 0.0515 0.94046 0.0
C924 C 0.47499 0.0284 0.92729 0.0
C925 C 0.45114 0.01451 0.93584 0.0
C926 C 0.44191 0.03304 0.95643 0.0
C927 C 0.45848 0.0547 0.9591 0.0
C928 C 0.43196 0.01231 0.91252 0.0
C929 C 0.45928 0.98832 0.94716 0.0
C930 C 0.45726 0.13377 0.01846 0.0
C931 C 0.44004 0.14213 0.03731 0.0
C932 C 0.41842 0.12641 0.04275 0.0
C933 C 0.41395 0.10283 0.02958 0.0
C934 C 0.43126 0.09481 0.0107 0.0
C935 C 0.45245 0.11023 0.00537 0.0
C936 C 0.46847 0.09887 0.98431 0.0
C937 C 0.45332 0.0742 0.97779 0.0
C938 C 0.43162 0.0718 0.99346 0.0
C939 C 0.46853 0.11763 0.96148 0.0
C940 C 0.49556 0.09345 0.99582 0.0
H941 H 0.40876 0.98022 0.94518 0.0
H942 H 0.35231 0.00427 0.01762 0.0
H943 H 0.4096 0.02033 0.03738 0.0
H944 H 0.41058 0.05381 0.04358 0.0
H945 H 0.38061 0.03613 0.04658 0.0
H946 H 0.35888 0.05619 0.9826 0.0
H947 H 0.35404 0.05867 0.0167 0.0
H948 H 0.37501 0.08097 0.00044 0.0
H949 H 0.48762 0.00094 0.89906 0.0
H950 H 0.53624 0.06866 0.91299 0.0
H951 H 0.50617 0.08465 0.94437 0.0
H952 H 0.43325 0.02974 0.90043 0.0
H953 H 0.43612 0.99534 0.90001 0.0
H954 H 0.41159 0.0112 0.9183 0.0
H955 H 0.47925 0.98948 0.95544 0.0
H956 H 0.44734 0.9823 0.96345 0.0
H957 H 0.45875 0.97278 0.9321 0.0
H958 H 0.37561 0.95058 0.9582 0.0
C959 C 0.397 0.98625 0.96083 0.0
Zn960 Zn 0.28082 0.8358 -0.00055 0.0
Zn961 Zn 0.23913 0.8631 -0.00016 0.0
O962 O 0.23674 0.84155 0.03312 0.0
O963 O 0.26857 0.81447 0.02877 0.0
O964 O 0.20693 0.88432 -0.00012 0.0
O965 O 0.30277 0.86768 0.00623 0.0
O966 O 0.26821 0.89104 0.00126 0.0
C967 C 0.24935 0.8223 0.04106 0.0
C968 C 0.25206 0.82919 0.95254 0.0
O969 O 0.23591 0.84277 0.96476 0.0
O970 O 0.27362 0.82425 0.96295 0.0
C971 C 0.20025 0.89686 0.01988 0.0
O972 O 0.21438 0.89552 0.04111 0.0
C973 C 0.29253 0.88956 0.00475 0.0
Zn974 Zn 0.10017 0.44422 0.29127 0.0
Zn975 Zn 0.12142 0.48813 0.27379 0.0
O976 O 0.09866 0.50121 0.3031 0.0
O977 O 0.0774 0.46592 0.31378 0.0
O978 O 0.13784 0.52072 0.26092 0.0
O979 O 0.13556 0.43354 0.3042 0.0
O980 O 0.15257 0.46684 0.28449 0.0
C981 C 0.08145 0.49 0.31619 0.0
C982 C 0.08946 0.4521 0.23738 0.0
O983 O 0.10111 0.47355 0.24229 0.0
O984 O 0.08769 0.43533 0.25472 0.0
C985 C 0.14791 0.53681 0.27716 0.0
O986 O 0.14731 0.53163 0.30183 0.0
C987 C 0.15518 0.44631 0.29723 0.0
Zn988 Zn 0.79606 0.59832 0.94726 0.0
Zn989 Zn 0.7809 0.61801 0.99306 0.0
O990 O 0.81183 0.5958 0.00341 0.0
O991 O 0.82396 0.57947 0.96619 0.0
O992 O 0.77033 0.63453 0.02663 0.0
O993 O 0.80417 0.63403 0.93483 0.0
O994 O 0.78893 0.64978 0.97112 0.0
C995 C 0.82686 0.58167 0.99044 0.0
C996 C 0.7438 0.58363 0.96029 0.0
O997 O 0.74921 0.59655 0.98092 0.0
O998 O 0.76021 0.58202 0.94258 0.0
C999 C 0.78777 0.64444 0.04153 0.0
O1000 O 0.81199 0.64294 0.03485 0.0
C1001 C 0.79853 0.65312 0.94901 0.0
Zn1002 Zn 0.84291 0.00482 0.28677 0.0
Zn1003 Zn 0.86524 0.00404 0.24178 0.0
O1004 O 0.84256 0.0366 0.23941 0.0
O1005 O 0.82327 0.03591 0.27675 0.0
O1006 O 0.8842 0.00287 0.20817 0.0
O1007 O 0.87662 0.00915 0.30574 0.0
O1008 O 0.89577 0.00653 0.26842 0.0
C1009 C 0.82677 0.04634 0.25523 0.0
C1010 C 0.83114 0.95825 0.25862 0.0
O1011 O 0.84452 0.96932 0.24152 0.0
O1012 O 0.82791 0.96937 0.28021 0.0
C1013 C 0.8958 0.02292 0.20023 0.0
O1014 O 0.89434 0.04458 0.21363 0.0
C1015 C 0.8971 0.00876 0.29295 0.0
Zn1016 Zn 0.29514 0.0951 0.45085 0.0
Zn1017 Zn 0.28284 0.1178 0.49559 0.0
O1018 O 0.31294 0.0949 0.50665 0.0
O1019 O 0.31952 0.07277 0.47074 0.0
O1020 O 0.27467 0.13761 0.52797 0.0
O1021 O 0.30744 0.12921 0.43667 0.0
O1022 O 0.29137 0.14742 0.47136 0.0
C1023 C 0.32446 0.07713 0.49445 0.0
C1024 C 0.24243 0.08528 0.46524 0.0
O1025 O 0.24959 0.09739 0.48588 0.0
O1026 O 0.25781 0.08308 0.44669 0.0
C1027 C 0.26895 0.12787 0.54944 0.0
O1028 O 0.26756 0.10268 0.5514 0.0
C1029 C 0.30182 0.14925 0.44948 0.0
Zn1030 Zn 0.34431 0.49693 0.78467 0.0
Zn1031 Zn 0.36389 0.49781 0.73885 0.0
O1032 O 0.3391 0.52906 0.73824 0.0
O1033 O 0.32167 0.52635 0.77638 0.0
O1034 O 0.38161 0.4986 0.7045 0.0
O1035 O 0.3783 0.5037 0.80239 0.0
O1036 O 0.39558 0.50142 0.76414 0.0
C1037 C 0.32336 0.53736 0.75494 0.0
C1038 C 0.33371 0.44992 0.75672 0.0
O1039 O 0.34509 0.46192 0.73881 0.0
O1040 O 0.33151 0.46063 0.77867 0.0
C1041 C 0.39328 0.51916 0.69792 0.0
O1042 O 0.39222 0.53975 0.71301 0.0
C1043 C 0.39808 0.50406 0.78857 0.0
Zn1044 Zn 0.77959 0.33618 0.49689 0.0
Zn1045 Zn 0.73964 0.36533 0.4994 0.0
O1046 O 0.73842 0.34477 0.53382 0.0
O1047 O 0.77387 0.32234 0.53155 0.0
O1048 O 0.70845 0.3881 0.50063 0.0
O1049 O 0.80324 0.36667 0.49356 0.0
O1050 O 0.77005 0.39199 0.49771 0.0
C1051 C 0.75414 0.32893 0.54374 0.0
C1052 C 0.74516 0.32506 0.45519 0.0
O1053 O 0.73323 0.34393 0.46521 0.0
O1054 O 0.76557 0.31711 0.46582 0.0
C1055 C 0.70134 0.39926 0.52127 0.0
O1056 O 0.7144 0.39564 0.54282 0.0
C1057 C 0.79423 0.38911 0.49512 0.0
Zn1058 Zn 0.60054 0.94472 0.79864 0.0
Zn1059 Zn 0.61754 0.9914 0.78267 0.0
O1060 O 0.5947 0.00067 0.81333 0.0
O1061 O 0.5796 0.96298 0.8255 0.0
O1062 O 0.63122 0.02615 0.77202 0.0
O1063 O 0.63721 0.93565 0.80795 0.0
O1064 O 0.65085 0.97221 0.79149 0.0
C1065 C 0.58078 0.9873 0.8282 0.0
C1066 C 0.58643 0.95516 0.74564 0.0
O1067 O 0.59748 0.97681 0.75102 0.0
O1068 O 0.58571 0.93772 0.76239 0.0
C1069 C 0.63588 0.03214 0.74892 0.0
O1070 O 0.63125 0.01512 0.73021 0.0
C1071 C 0.65546 0.9508 0.80204 0.0
Zn1072 Zn 0.99019 0.27947 0.83399 0.0
Zn1073 Zn 0.99487 0.2378 0.86149 0.0
O1074 O 0.02657 0.23598 0.83756 0.0
O1075 O 0.02072 0.26975 0.81331 0.0
O1076 O 0.99827 0.20753 0.88499 0.0
O1077 O 0.99508 0.30275 0.8649 0.0
O1078 O 0.99583 0.26799 0.88836 0.0
C1079 C 0.03375 0.25029 0.81919 0.0
C1080 C 0.94533 0.24656 0.82978 0.0
O1081 O 0.95898 0.23177 0.84361 0.0
O1082 O 0.95425 0.26832 0.82335 0.0
C1083 C 0.00383 0.1846 0.87842 0.0
O1084 O 0.00802 0.17904 0.85407 0.0
C1085 C 0.99624 0.29249 0.88678 0.0
Zn1086 Zn 0.50335 0.78568 0.33352 0.0
Zn1087 Zn 0.50475 0.74444 0.36281 0.0
O1088 O 0.53615 0.73962 0.33922 0.0
O1089 O 0.53137 0.77104 0.31168 0.0
O1090 O 0.50469 0.71312 0.38535 0.0
O1091 O 0.51194 0.80835 0.3647 0.0
O1092 O 0.50863 0.77456 0.38939 0.0
C1093 C 0.54321 0.75135 0.3191 0.0
C1094 C 0.45614 0.75706 0.33022 0.0
O1095 O 0.46893 0.74171 0.34424 0.0
O1096 O 0.46622 0.77829 0.32371 0.0
C1097 C 0.52488 0.70628 0.39749 0.0
O1098 O 0.54644 0.71962 0.39488 0.0
C1099 C 0.51201 0.79878 0.38696 0.0
Zn1100 Zn 0.94142 0.78946 0.59455 0.0
Zn1101 Zn 0.98779 0.77944 0.61456 0.0
O1102 O 0.99575 0.80914 0.58974 0.0
O1103 O 0.95728 0.81758 0.57375 0.0
O1104 O 0.02242 0.77324 0.63166 0.0
O1105 O 0.92756 0.79795 0.62927 0.0
O1106 O 0.96556 0.78904 0.64602 0.0
C1107 C 0.98132 0.82226 0.57501 0.0
C1108 C 0.95707 0.73768 0.58332 0.0
O1109 O 0.97749 0.74499 0.59579 0.0
O1110 O 0.93867 0.7531 0.58039 0.0
C1111 C 0.0285 0.75172 0.64112 0.0
O1112 O 0.01205 0.73216 0.63901 0.0
C1113 C 0.94233 0.79604 0.64881 0.0
Zn1114 Zn 0.44245 0.29585 0.0981 0.0
Zn1115 Zn 0.49037 0.28336 0.11381 0.0
O1116 O 0.49678 0.3129 0.08853 0.0
O1117 O 0.45771 0.32256 0.07505 0.0
O1118 O 0.52601 0.27666 0.12801 0.0
O1119 O 0.4332 0.30611 0.13436 0.0
O1120 O 0.47111 0.29208 0.14714 0.0
C1121 C 0.48189 0.32629 0.07454 0.0
C1122 C 0.45607 0.24287 0.0858 0.0
O1123 O 0.47787 0.24964 0.09584 0.0
O1124 O 0.4378 0.25874 0.08512 0.0
C1125 C 0.53299 0.25504 0.13652 0.0
O1126 O 0.51679 0.23525 0.13497 0.0
C1127 C 0.44926 0.30146 0.15225 0.0
C1128 C 0.26218 0.7999 0.88657 0.0
C1129 C 0.237 0.79264 0.87852 0.0
H1130 H 0.28651 0.81705 0.91611 0.0
C1131 C 0.21625 0.80012 0.89386 0.0
H1132 H 0.27855 0.7951 0.87491 0.0
C1133 C 0.22083 0.81318 0.91755 0.0
C1134 C 0.24623 0.81872 0.92628 0.0
H1135 H 0.19662 0.7948 0.88816 0.0
H1136 H 0.20465 0.8178 0.92955 0.0
C1137 C 0.26674 0.81256 0.91019 0.0
C1138 C 0.02219 0.51359 0.34866 0.0
C1139 C 0.03264 0.52843 0.36954 0.0
H1140 H 0.02966 0.4894 0.31587 0.0
C1141 C 0.05954 0.53279 0.37102 0.0
H1142 H 0.00156 0.51058 0.34621 0.0
C1143 C 0.07559 0.52135 0.35282 0.0
C1144 C 0.06499 0.50498 0.33333 0.0
H1145 H 0.06831 0.544 0.38682 0.0
H1146 H 0.0963 0.52418 0.35478 0.0
C1147 C 0.03821 0.50161 0.33109 0.0
C1148 C 0.83041 0.71017 0.91816 0.0
C1149 C 0.80979 0.7273 0.91565 0.0
H1150 H 0.84271 0.67304 0.93026 0.0
C1151 C 0.78592 0.72032 0.92635 0.0
H1152 H 0.84934 0.71498 0.91111 0.0
C1153 C 0.78262 0.69669 0.93847 0.0
C1154 C 0.80283 0.67925 0.93943 0.0
H1155 H 0.76936 0.73254 0.92454 0.0
H1156 H 0.7639 0.69151 0.94592 0.0
C1157 C 0.82679 0.68621 0.92944 0.0
C1158 C 0.94551 0.00955 0.34821 0.0
C1159 C 0.9685 0.00395 0.33577 0.0
H1160 H 0.90521 0.01586 0.3445 0.0
C1161 C 0.96864 0.00242 0.30872 0.0
H1162 H 0.94505 0.01101 0.36907 0.0
C1163 C 0.94558 0.00499 0.29442 0.0
C1164 C 0.92224 0.00925 0.30707 0.0
H1165 H 0.98623 0.99804 0.2988 0.0
H1166 H 0.94587 0.00268 0.27364 0.0
C1167 C 0.92269 0.01227 0.33407 0.0
C1168 C 0.2551 0.15138 0.61749 0.0
C1169 C 0.25837 0.17821 0.61526 0.0
H1170 H 0.25598 0.11433 0.59847 0.0
C1171 C 0.26455 0.18823 0.59117 0.0
H1172 H 0.25045 0.14309 0.63585 0.0
C1173 C 0.26771 0.17187 0.56986 0.0
C1174 C 0.26481 0.14502 0.57208 0.0
H1175 H 0.26673 0.20884 0.58869 0.0
H1176 H 0.27255 0.18034 0.55164 0.0
C1177 C 0.25836 0.13493 0.59611 0.0
C1178 C 0.43175 0.49641 0.64063 0.0
C1179 C 0.44411 0.51939 0.63325 0.0
H1180 H 0.40576 0.47831 0.66657 0.0
C1181 C 0.43855 0.54246 0.64648 0.0
H1182 H 0.43539 0.47837 0.63061 0.0
C1183 C 0.42159 0.54244 0.66707 0.0
C1184 C 0.40967 0.51938 0.67484 0.0
H1185 H 0.44792 0.56045 0.64143 0.0
H1186 H 0.41819 0.56048 0.67719 0.0
C1187 C 0.41464 0.49641 0.66113 0.0
C1188 C 0.7246 0.30695 0.60651 0.0
C1189 C 0.74659 0.29783 0.61946 0.0
H1190 H 0.70967 0.32468 0.57224 0.0
C1191 C 0.77048 0.29918 0.60741 0.0
H1192 H 0.70595 0.30601 0.61548 0.0
C1193 C 0.77256 0.30938 0.58301 0.0
C1194 C 0.75081 0.31876 0.56992 0.0
H1195 H 0.78767 0.29198 0.61679 0.0
H1196 H 0.79142 0.30999 0.57444 0.0
C1197 C 0.72675 0.31767 0.58194 0.0
C1198 C 0.55372 0.92113 0.68795 0.0
C1199 C 0.54965 0.94168 0.67126 0.0
H1200 H 0.56833 0.90927 0.72464 0.0
C1201 C 0.55816 0.9666 0.679 0.0
H1202 H 0.5472 0.90176 0.68253 0.0
C1203 C 0.57039 0.97091 0.703 0.0
C1204 C 0.57412 0.95043 0.71991 0.0
H1205 H 0.55549 0.98276 0.66639 0.0
H1206 H 0.57666 0.99036 0.70839 0.0
C1207 C 0.5657 0.92548 0.7121 0.0
C1208 C 0.88621 0.20735 0.80702 0.0
C1209 C 0.86876 0.22706 0.80151 0.0
H1210 H 0.92432 0.198 0.82054 0.0
C1211 C 0.87619 0.25272 0.80749 0.0
H1212 H 0.88117 0.18738 0.80256 0.0
C1213 C 0.90088 0.25874 0.81711 0.0
C1214 C 0.91869 0.23924 0.82158 0.0
H1215 H 0.86305 0.26835 0.80431 0.0
H1216 H 0.90611 0.27881 0.82086 0.0
C1217 C 0.91095 0.21339 0.81717 0.0
C1218 C 0.51565 0.86026 0.42713 0.0
C1219 C 0.50848 0.85162 0.45145 0.0
H1220 H 0.52278 0.85035 0.38786 0.0
C1221 C 0.50583 0.82501 0.4554 0.0
H1222 H 0.51805 0.88069 0.42369 0.0
C1223 C 0.50838 0.80745 0.43473 0.0
C1224 C 0.51369 0.81632 0.40989 0.0
H1225 H 0.50021 0.81794 0.474 0.0
H1226 H 0.50487 0.78713 0.43793 0.0
C1227 C 0.51829 0.84284 0.40661 0.0
C1228 C 0.09644 0.22059 0.79726 0.0
C1229 C 0.10593 0.23998 0.78125 0.0
H1230 H 0.06607 0.20866 0.82226 0.0
C1231 C 0.091 0.26172 0.77684 0.0
H1232 H 0.10768 0.20363 0.80088 0.0
C1233 C 0.06737 0.26448 0.78866 0.0
C1234 C 0.05807 0.24567 0.80547 0.0
H1235 H 0.09774 0.27678 0.76432 0.0
H1236 H 0.05666 0.28178 0.78499 0.0
C1237 C 0.07274 0.22352 0.80949 0.0
C1238 C 0.49943 0.65076 0.43685 0.0
C1239 C 0.52195 0.64254 0.4495 0.0
H1240 H 0.48268 0.67711 0.41041 0.0
C1241 C 0.54551 0.65516 0.44451 0.0
H1242 H 0.48103 0.64124 0.44003 0.0
C1243 C 0.54648 0.67572 0.42751 0.0
C1244 C 0.52393 0.68405 0.415 0.0
H1245 H 0.56316 0.64948 0.45414 0.0
H1246 H 0.56491 0.68516 0.42432 0.0
C1247 C 0.50042 0.67123 0.41975 0.0
C1248 C 0.93598 0.80134 0.72159 0.0
C1249 C 0.9108 0.81062 0.72372 0.0
H1250 H 0.96591 0.7896 0.69622 0.0
C1251 C 0.89661 0.8157 0.7011 0.0
H1252 H 0.94744 0.79737 0.73869 0.0
C1253 C 0.9071 0.8113 0.67696 0.0
C1254 C 0.9321 0.80167 0.67472 0.0
H1255 H 0.877 0.82239 0.70199 0.0
H1256 H 0.89536 0.81516 0.66002 0.0
C1257 C 0.94658 0.79699 0.6973 0.0
C1258 C 0.98481 0.87698 0.52846 0.0
C1259 C 0.01102 0.8777 0.52228 0.0
H1260 H 0.95506 0.85918 0.54997 0.0
C1261 C 0.02811 0.86161 0.53544 0.0
H1262 H 0.97128 0.8896 0.51912 0.0
C1263 C 0.01877 0.84408 0.55344 0.0
C1264 C 0.99224 0.84246 0.55846 0.0
H1265 H 0.04843 0.86183 0.53105 0.0
H1266 H 0.03212 0.83121 0.56264 0.0
C1267 C 0.97553 0.85956 0.54623 0.0
C1268 C 0.08317 0.72308 0.68009 0.0
C1269 C 0.09843 0.74505 0.68659 0.0
H1270 H 0.0491 0.70793 0.66072 0.0
C1271 C 0.09111 0.76904 0.67704 0.0
H1272 H 0.08819 0.70437 0.68734 0.0
C1273 C 0.06876 0.77109 0.66175 0.0
C1274 C 0.0531 0.74923 0.65583 0.0
H1275 H 0.10264 0.78626 0.68148 0.0
H1276 H 0.06352 0.78993 0.65498 0.0
C1277 C 0.0607 0.72516 0.66496 0.0
C1278 C 0.97328 0.67133 0.55664 0.0
C1279 C 0.94892 0.66223 0.54762 0.0
H1280 H 0.995 0.70225 0.57544 0.0
C1281 C 0.92742 0.6778 0.55108 0.0
H1282 H 0.99016 0.65963 0.55433 0.0
C1283 C 0.93018 0.70209 0.56293 0.0
C1284 C 0.95449 0.71137 0.57182 0.0
H1285 H 0.90847 0.67146 0.54406 0.0
H1286 H 0.91317 0.71366 0.56496 0.0
C1287 C 0.97601 0.69563 0.56882 0.0
C1288 C 0.79666 0.89486 0.27024 0.0
C1289 C 0.79175 0.88523 0.24507 0.0
H1290 H 0.81289 0.92522 0.29414 0.0
C1291 C 0.8014 0.89915 0.2242 0.0
H1292 H 0.79016 0.88436 0.2868 0.0
C1293 C 0.81493 0.92258 0.22847 0.0
C1294 C 0.81884 0.93259 0.25365 0.0
H1295 H 0.79784 0.89238 0.20454 0.0
H1296 H 0.82159 0.93319 0.21205 0.0
C1297 C 0.80987 0.91827 0.27446 0.0
C1298 C 0.80064 0.10489 0.22075 0.0
C1299 C 0.78671 0.11661 0.2406 0.0
H1300 H 0.82475 0.0734 0.2098 0.0
C1301 C 0.78543 0.10465 0.26454 0.0
H1302 H 0.80183 0.11377 0.2021 0.0
C1303 C 0.79819 0.08181 0.26889 0.0
C1304 C 0.81276 0.07024 0.24944 0.0
H1305 H 0.77447 0.11303 0.28006 0.0
H1306 H 0.79681 0.07342 0.28777 0.0
C1307 C 0.81378 0.08191 0.2252 0.0
C1308 C 0.35289 0.93135 0.00518 0.0
C1309 C 0.34332 0.95517 0.99764 0.0
H1310 H 0.34435 0.89217 0.01379 0.0
C1311 C 0.31658 0.95833 0.99538 0.0
H1312 H 0.37348 0.92858 0.00713 0.0
C1313 C 0.29969 0.9373 0.99895 0.0
C1314 C 0.30942 0.91294 0.00492 0.0
H1315 H 0.30887 0.97658 0.98945 0.0
H1316 H 0.27919 0.93983 0.99588 0.0
C1317 C 0.33615 0.91051 0.0089 0.0
C1318 C 0.22285 0.42379 0.28695 0.0
C1319 C 0.22933 0.41325 0.31103 0.0
H1320 H 0.19459 0.44306 0.26405 0.0
C1321 C 0.21142 0.41536 0.33103 0.0
H1322 H 0.23552 0.42217 0.27074 0.0
C1323 C 0.18737 0.42633 0.32664 0.0
C1324 C 0.18107 0.4364 0.30252 0.0
H1325 H 0.21572 0.40835 0.3501 0.0
H1326 H 0.17369 0.42699 0.34212 0.0
C1327 C 0.1992 0.43562 0.28292 0.0
C1328 C 0.18457 0.04752 0.43788 0.0
C1329 C 0.16966 0.04403 0.45987 0.0
H1330 H 0.21912 0.06329 0.42232 0.0
C1331 C 0.17816 0.05546 0.48343 0.0
H1332 H 0.17864 0.03876 0.41951 0.0
C1333 C 0.2014 0.06962 0.48507 0.0
C1334 C 0.2167 0.07241 0.46321 0.0
H1335 H 0.16691 0.05333 0.50063 0.0
H1336 H 0.20767 0.07781 0.50358 0.0
C1337 C 0.20785 0.06148 0.43955 0.0
C1338 C 0.66767 0.09804 0.75883 0.0
C1339 C 0.67287 0.10503 0.73342 0.0
H1340 H 0.65178 0.06974 0.78364 0.0
C1341 C 0.66477 0.08837 0.713 0.0
H1342 H 0.67338 0.11065 0.77495 0.0
C1343 C 0.65238 0.06484 0.71796 0.0
C1344 C 0.64771 0.0576 0.74344 0.0
H1345 H 0.66867 0.09318 0.69322 0.0
H1346 H 0.6468 0.05219 0.70184 0.0
C1347 C 0.65518 0.07464 0.76379 0.0
C1348 C 0.37939 0.05485 0.53729 0.0
C1349 C 0.38103 0.02884 0.52923 0.0
H1350 H 0.35982 0.09068 0.53273 0.0
C1351 C 0.36246 0.01872 0.51142 0.0
H1352 H 0.39337 0.06333 0.55092 0.0
C1353 C 0.34397 0.03448 0.50055 0.0
C1354 C 0.34298 0.0606 0.50779 0.0
H1355 H 0.3624 0.99859 0.50545 0.0
H1356 H 0.33044 0.0262 0.48632 0.0
C1357 C 0.36031 0.07056 0.52681 0.0
C1358 C 0.64971 0.44504 0.54341 0.0
C1359 C 0.63781 0.45159 0.51992 0.0
H1360 H 0.67913 0.42352 0.56228 0.0
C1361 C 0.64656 0.44028 0.49694 0.0
H1362 H 0.64358 0.4536 0.56143 0.0
C1363 C 0.66692 0.42303 0.49741 0.0
C1364 C 0.67912 0.4168 0.52086 0.0
H1365 H 0.63759 0.44469 0.47856 0.0
H1366 H 0.67326 0.4148 0.47933 0.0
C1367 C 0.67019 0.4279 0.54387 0.0
C1368 C 0.73808 0.27507 0.40209 0.0
C1369 C 0.73012 0.28976 0.38102 0.0
H1370 H 0.74882 0.27482 0.44202 0.0
C1371 C 0.72336 0.31559 0.38542 0.0
H1372 H 0.74264 0.25491 0.39953 0.0
C1373 C 0.72644 0.32695 0.41014 0.0
C1374 C 0.73646 0.31262 0.43061 0.0
H1375 H 0.71708 0.32735 0.36957 0.0
H1376 H 0.72255 0.34724 0.41286 0.0
C1377 C 0.74143 0.28641 0.42649 0.0
C1378 C 0.54532 0.03779 0.86706 0.0
C1379 C 0.53336 0.02247 0.88558 0.0
H1380 H 0.56978 0.0387 0.83421 0.0
C1381 C 0.53857 0.99601 0.886 0.0
H1382 H 0.54163 0.05823 0.86622 0.0
C1383 C 0.55431 0.98485 0.86765 0.0
C1384 C 0.56553 -0.00012 0.84851 0.0
H1385 H 0.53021 0.98377 0.90043 0.0
H1386 H 0.55747 0.9643 0.86836 0.0
C1387 C 0.56132 0.02659 0.84868 0.0
C1388 C 0.33373 0.20565 0.41713 0.0
C1389 C 0.31304 0.22267 0.41423 0.0
H1390 H 0.34617 0.16876 0.43003 0.0
C1391 C 0.28895 0.21537 0.42425 0.0
H1392 H 0.3528 0.21059 0.41052 0.0
C1393 C 0.28568 0.19191 0.43659 0.0
C1394 C 0.30607 0.17475 0.43837 0.0
H1395 H 0.27224 0.22729 0.42198 0.0
H1396 H 0.26687 0.1867 0.44383 0.0
C1397 C 0.33011 0.18173 0.4286 0.0
C1398 C 0.4699 0.49713 0.802 0.0
C1399 C 0.47098 0.50139 0.82881 0.0
H1400 H 0.44567 0.49471 0.76788 0.0
C1401 C 0.44887 0.50942 0.8415 0.0
H1402 H 0.48679 0.49078 0.79193 0.0
C1403 C 0.4256 0.51164 0.82799 0.0
C1404 C 0.42384 0.50573 0.80144 0.0
H1405 H 0.44936 0.51289 0.86218 0.0
H1406 H 0.40873 0.51699 0.83866 0.0
C1407 C 0.44641 0.4993 0.78834 0.0
C1408 C 0.74896 0.67942 0.09208 0.0
C1409 C 0.76857 0.68999 0.10845 0.0
H1410 H 0.7396 0.6567 0.05809 0.0
C1411 C 0.79434 0.68411 0.10344 0.0
H1412 H 0.72893 0.68373 0.09528 0.0
C1413 C 0.80046 0.66884 0.08206 0.0
C1414 C 0.78096 0.65896 0.06521 0.0
H1415 H 0.80987 0.69152 0.11595 0.0
H1416 H 0.82057 0.66509 0.07856 0.0
C1417 C 0.75509 0.66404 0.07069 0.0
C1418 C 0.93972 0.04274 0.14627 0.0
C1419 C 0.94546 0.01883 0.13477 0.0
H1420 H 0.91963 0.06279 0.17592 0.0
C1421 C 0.93399 0.99632 0.14441 0.0
H1422 H 0.94843 0.06041 0.13944 0.0
C1423 C 0.9174 0.99767 0.16528 0.0
C1424 C 0.9121 0.02155 0.17713 0.0
H1425 H 0.93781 0.97764 0.13577 0.0
H1426 H 0.90908 0.97995 0.17239 0.0
C1427 C 0.92331 0.04408 0.16726 0.0
C1428 C 0.24654 0.7727 0.0929 0.0
C1429 C 0.24314 0.78824 0.11497 0.0
H1430 H 0.25126 0.77152 0.05199 0.0
C1431 C 0.23842 0.81462 0.11215 0.0
H1432 H 0.25041 0.75235 0.09463 0.0
C1433 C 0.23824 0.82549 0.08765 0.0
C1434 C 0.24354 0.81023 0.0658 0.0
H1435 H 0.2358 0.82694 0.12896 0.0
H1436 H 0.23573 0.84607 0.08602 0.0
C1437 C 0.24707 0.78365 0.06857 0.0
C1438 C 0.06083 0.46283 0.17076 0.0
C1439 C 0.05011 0.43838 0.16441 0.0
H1440 H 0.08197 0.48629 0.19863 0.0
C1441 C 0.05338 0.4182 0.18172 0.0
H1442 H 0.05883 0.47867 0.15764 0.0
C1443 C 0.06655 0.42254 0.20522 0.0
C1444 C 0.07692 0.44712 0.21182 0.0
H1445 H 0.04515 0.3992 0.1774 0.0
H1446 H 0.06833 0.40669 0.21836 0.0
C1447 C 0.07421 0.46713 0.19417 0.0
C1448 C 0.38874 0.76336 0.30209 0.0
C1449 C 0.38004 0.73754 0.30011 0.0
H1450 H 0.41946 0.78967 0.31306 0.0
C1451 C 0.39627 0.71819 0.30939 0.0
H1452 H 0.37663 0.77887 0.29578 0.0
C1453 C 0.42073 0.72449 0.31989 0.0
C1454 C 0.42964 0.75023 0.32097 0.0
H1455 H 0.39042 0.69805 0.30791 0.0
H1456 H 0.43295 0.70914 0.32641 0.0
C1457 C 0.41328 0.7696 0.31219 0.0
C1458 C 0.9923 0.35237 0.92875 0.0
C1459 C 0.98748 0.34211 0.953 0.0
H1460 H -0.00071 0.34482 0.88904 0.0
C1461 C 0.98847 0.31534 0.95617 0.0
H1462 H 0.99194 0.37301 0.92596 0.0
C1463 C 0.99254 0.29897 0.93485 0.0
C1464 C 0.99582 0.30926 0.9102 0.0
H1465 H 0.9848 0.30707 0.97477 0.0
H1466 H 0.99203 0.27832 0.93747 0.0
C1467 C 0.99651 0.33617 0.90762 0.0
C1468 C 0.61142 0.73261 0.3044 0.0
C1469 C 0.6118 0.73608 0.27763 0.0
H1470 H 0.58882 0.73392 0.33862 0.0
C1471 C 0.5889 0.74187 0.26436 0.0
H1472 H 0.62901 0.72835 0.31496 0.0
C1473 C 0.56625 0.7457 0.27786 0.0
C1474 C 0.56599 0.7432 0.30476 0.0
H1475 H 0.58888 0.7449 0.24376 0.0
H1476 H 0.5491 0.75144 0.26735 0.0
C1477 C 0.58852 0.73574 0.31785 0.0
C1478 C 0.00157 0.15187 0.94299 0.0
C1479 C 0.00739 0.12628 0.93636 0.0
H1480 H 0.99596 0.19022 0.93007 0.0
C1481 C 0.01237 0.12002 0.91045 0.0
H1482 H 0.99806 0.15746 0.96281 0.0
C1483 C 0.0113 0.13891 0.89158 0.0
C1484 C 0.00529 0.16447 0.89824 0.0
H1485 H 0.0167 0.10043 0.90467 0.0
H1486 H 0.01505 0.13345 0.87177 0.0
C1487 C 0.00053 0.17071 0.92419 0.0
C1488 C 0.429 0.28758 0.21979 0.0
C1489 C 0.42017 0.31179 0.22829 0.0
H1490 H 0.44581 0.26562 0.18916 0.0
C1491 C 0.42367 0.33308 0.21216 0.0
H1492 H 0.42636 0.27053 0.23116 0.0
C1493 C 0.43384 0.32984 0.18761 0.0
C1494 C 0.44175 0.30554 0.17909 0.0
H1495 H 0.41805 0.35222 0.21813 0.0
H1496 H 0.43521 0.34627 0.17511 0.0
C1497 C 0.44002 0.28461 0.19558 0.0
C1498 C 0.48485 0.37844 0.02499 0.0
C1499 C 0.51099 0.3787 0.01846 0.0
H1500 H 0.45532 0.36197 0.04779 0.0
C1501 C 0.52811 0.36305 0.03211 0.0
H1502 H 0.47129 0.39075 0.01527 0.0
C1503 C 0.51894 0.34652 0.05105 0.0
C1504 C 0.49251 0.34544 0.05662 0.0
H1505 H 0.54837 0.36288 0.02748 0.0
H1506 H 0.53237 0.33403 0.06069 0.0
C1507 C 0.47572 0.362 0.04375 0.0
C1508 C 0.59581 0.27365 0.1712 0.0
C1509 C 0.60387 0.24984 0.18052 0.0
H1510 H 0.56737 0.29393 0.14972 0.0
C1511 C 0.58932 0.22746 0.17385 0.0
H1512 H 0.60683 0.29118 0.17577 0.0
C1513 C 0.56661 0.22901 0.15898 0.0
C1514 C 0.55814 0.25295 0.1503 0.0
H1515 H 0.59499 0.20886 0.1809 0.0
H1516 H 0.55544 0.21151 0.15475 0.0
C1517 C 0.57327 0.27518 0.15616 0.0
C1518 C 0.46884 0.17559 0.0596 0.0
C1519 C 0.44415 0.16751 0.05064 0.0
H1520 H 0.49199 0.2056 0.07799 0.0
C1521 C 0.42339 0.18413 0.05395 0.0
H1522 H 0.48517 0.16308 0.05752 0.0
C1523 C 0.42727 0.20844 0.06559 0.0
C1524 C 0.452 0.21667 0.07434 0.0
H1525 H 0.40419 0.17858 0.047 0.0
H1526 H 0.41086 0.22085 0.06754 0.0
C1527 C 0.47272 0.19988 0.07143 0.0
C1528 C 0.30084 0.38611 0.76994 0.0
C1529 C 0.29461 0.37653 0.74504 0.0
H1530 H 0.31815 0.41646 0.79305 0.0
C1531 C 0.30342 0.39022 0.72368 0.0
H1532 H 0.29492 0.37573 0.7868 0.0
C1533 C 0.31706 0.41371 0.72726 0.0
C1534 C 0.32203 0.42386 0.75225 0.0
H1535 H 0.29888 0.38332 0.70423 0.0
H1536 H 0.32283 0.42433 0.71051 0.0
C1537 C 0.31428 0.40946 0.7735 0.0
C1538 C 0.29275 0.59556 0.72366 0.0
C1539 C 0.27811 0.60514 0.7441 0.0
H1540 H 0.31903 0.56657 0.71101 0.0
C1541 C 0.27759 0.59168 0.76724 0.0
H1542 H 0.29341 0.60566 0.70562 0.0
C1543 C 0.29191 0.56957 0.77029 0.0
C1544 C 0.30734 0.56025 0.75032 0.0
H1545 H 0.26617 0.59844 0.78318 0.0
H1546 H 0.29113 0.56002 0.78864 0.0
C1547 C 0.30743 0.57332 0.7268 0.0
C1548 C 0.85607 0.42752 0.48779 0.0
C1549 C 0.84727 0.45269 0.48507 0.0
H1550 H 0.84641 0.38801 0.49325 0.0
C1551 C 0.82088 0.45746 0.48774 0.0
H1552 H 0.87638 0.42341 0.48617 0.0
C1553 C 0.80341 0.43696 0.49171 0.0
C1554 C 0.81221 0.41153 0.4932 0.0
H1555 H 0.8137 0.47678 0.48568 0.0
H1556 H 0.78304 0.44091 0.49286 0.0
C1557 C 0.83882 0.40723 0.49183 0.0
C1558 C 0.72369 0.93081 0.79044 0.0
C1559 C 0.73113 0.92133 0.81474 0.0
H1560 H 0.694 0.94818 0.76762 0.0
C1561 C 0.71407 0.92428 0.83534 0.0
H1562 H 0.73585 0.92864 0.77389 0.0
C1563 C 0.68965 0.93448 0.8313 0.0
C1564 C 0.68214 0.94298 0.80688 0.0
H1565 H 0.71922 0.91819 0.85455 0.0
H1566 H 0.67648 0.93546 0.84721 0.0
C1567 C 0.69958 0.94187 0.78668 0.0
C1568 C 0.67984 0.55179 0.97615 0.0
C1569 C 0.67272 0.53964 0.95253 0.0
H1570 H 0.70768 0.57547 0.99708 0.0
C1571 C 0.68855 0.54303 0.93119 0.0
H1572 H 0.66783 0.54975 0.99285 0.0
C1573 C 0.71141 0.55768 0.9336 0.0
C1574 C 0.7188 0.56946 0.95735 0.0
H1575 H 0.68363 0.53376 0.91279 0.0
H1576 H 0.72344 0.5595 0.91689 0.0
C1577 C 0.70257 0.56664 0.97852 0.0
C1578 C 0.17548 0.58815 0.234 0.0
C1579 C 0.18555 0.60637 0.25216 0.0
H1580 H 0.15575 0.55186 0.2276 0.0
C1581 C 0.18255 0.60176 0.27855 0.0
H1582 H 0.17771 0.59097 0.21354 0.0
C1583 C 0.1702 0.57926 0.28661 0.0
C1584 C 0.16044 0.56089 0.26848 0.0
H1585 H 0.18969 0.6156 0.29304 0.0
H1586 H 0.16836 0.57629 0.3071 0.0
C1587 C 0.16304 0.56565 0.24207 0.0
C1588 C 0.88455 0.53959 -0.00017 0.0
C1589 C 0.88344 0.53389 0.02614 0.0
H1590 H 0.86773 0.55911 0.96809 0.0
C1591 C 0.86496 0.54605 0.04136 0.0
H1592 H 0.89899 0.53104 0.98773 0.0
C1593 C 0.84701 0.56248 0.03006 0.0
C1594 C 0.84729 0.56689 0.0034 0.0
H1595 H 0.86369 0.54201 0.06169 0.0
H1596 H 0.83236 0.5709 0.04198 0.0
C1597 C 0.86666 0.55576 0.98859 0.0
C1598 C 0.14273 0.93349 0.99465 0.0
C1599 C 0.13478 0.94667 0.01696 0.0
H1600 H 0.16943 0.90732 0.97808 0.0
C1601 C 0.14817 0.94283 0.04037 0.0
H1602 H 0.13262 0.93579 0.97639 0.0
C1603 C 0.16927 0.9265 0.04136 0.0
C1604 C 0.17738 0.91352 0.01899 0.0
H1605 H 0.14269 0.9529 0.05785 0.0
H1606 H 0.17933 0.92422 0.05965 0.0
C1607 C 0.16374 0.91705 0.99566 0.0
loop_
_geom_bond_atom_site_label_1
_geom_bond_atom_site_label_2
_geom_bond_distance
_geom_bond_site_symmetry_2
_ccdc_geom_bond_type
C0 C1 1.391 . S
C0 C4 1.391 . S
C0 H42 0.948 . S
C1 C0 1.391 . S
C1 C2 1.391 . S
C2 C1 1.391 . S
C2 H58 0.947 1_455 S
C2 C59 1.392 1_556 S
C3 C4 1.391 1_554 S
C3 C7 1.397 . S
C3 C59 1.419 . S
C4 C0 1.391 . S
C4 C3 1.391 1_556 S
C4 C5 1.399 . S
C5 C4 1.399 . S
C5 C8 1.396 1_556 S
C5 C17 1.453 . S
C5 C18 1.684 . S
H6 C30 0.948 . S
C7 C3 1.397 . S
C7 C8 1.394 . S
C7 C26 1.723 . S
C8 C5 1.396 1_554 S
C8 C7 1.394 . S
C8 C38 1.723 . S
H9 C32 0.947 1_556 S
H10 C33 0.948 1_556 S
H11 C39 0.982 1_545 S
H12 C40 0.979 . S
H13 C40 0.980 . S
H14 C40 0.983 . S
H15 C39 0.979 . S
H16 C39 0.977 . S
C17 C5 1.453 . S
C17 H46 0.982 1_556 S
C17 H47 0.979 . S
C17 H48 0.977 . S
C18 C5 1.684 . S
C18 H43 0.979 . S
C18 H44 0.980 . S
C18 H45 0.983 . S
C19 C20 1.391 . S
C19 C24 1.391 . S
C19 H49 0.948 . S
C20 C19 1.391 . S
C20 C21 1.391 . S
C21 C20 1.391 . S
C21 C22 1.392 1_655 S
C21 H50 0.947 1_545 S
C22 C21 1.392 1_455 S
C22 C23 1.419 . S
C22 H51 0.948 1_545 S
C23 C22 1.419 . S
C23 C24 1.391 1_455 S
C23 C27 1.397 . S
C24 C19 1.391 . S
C24 C23 1.391 1_655 S
C24 C25 1.399 . S
C25 C24 1.399 . S
C25 C26 1.396 1_655 S
C25 C28 1.453 . S
C25 C29 1.684 . S
C26 C7 1.723 . S
C26 C25 1.396 1_455 S
C26 C27 1.394 . S
C27 C23 1.397 . S
C27 C26 1.394 . S
C27 C37 1.723 . S
C28 C25 1.453 . S
C28 H52 0.982 1_655 S
C28 H53 0.979 . S
C28 H54 0.977 . S
C29 C25 1.684 . S
C29 H55 0.979 . S
C29 H56 0.980 . S
C29 H57 0.983 . S
C30 H6 0.948 . S
C30 C31 1.391 . S
C30 C35 1.391 . S
C31 C30 1.391 . S
C31 C32 1.391 . S
C32 H9 0.947 1_554 S
C32 C31 1.391 . S
C32 C33 1.392 1_565 S
C33 H10 0.948 1_554 S
C33 C32 1.392 1_545 S
C33 C34 1.419 . S
C34 C33 1.419 . S
C34 C35 1.391 1_545 S
C34 C38 1.397 . S
C35 C30 1.391 . S
C35 C34 1.391 1_565 S
C35 C36 1.399 . S
C36 C35 1.399 . S
C36 C37 1.396 1_565 S
C36 C39 1.453 . S
C36 C40 1.684 . S
C37 C27 1.723 . S
C37 C36 1.396 1_545 S
C37 C38 1.394 . S
C38 C8 1.723 . S
C38 C34 1.397 . S
C38 C37 1.394 . S
C39 H11 0.982 1_565 S
C39 H15 0.979 . S
C39 H16 0.977 . S
C39 C36 1.453 . S
C40 H12 0.979 . S
C40 H13 0.980 . S
C40 H14 0.983 . S
C40 C36 1.684 . S
H41 C59 0.948 1_655 S
H42 C0 0.948 . S
H43 C18 0.979 . S
H44 C18 0.980 . S
H45 C18 0.983 . S
H46 C17 0.982 1_554 S
H47 C17 0.979 . S
H48 C17 0.977 . S
H49 C19 0.948 . S
H50 C21 0.947 1_565 S
H51 C22 0.948 1_565 S
H52 C28 0.982 1_455 S
H53 C28 0.979 . S
H54 C28 0.977 . S
H55 C29 0.979 . S
H56 C29 0.980 . S
H57 C29 0.983 . S
H58 C2 0.947 1_655 S
C59 C2 1.392 1_554 S
C59 C3 1.419 . S
C59 H41 0.948 1_455 S
C60 C61 1.391 . S
C60 C64 1.391 . S
C60 H102 0.948 . S
C61 C60 1.391 . S
C61 C62 1.391 . S
C62 C61 1.391 . S
C62 H118 0.947 . S
C62 C119 1.392 . S
C63 C64 1.391 . S
C63 C67 1.397 . S
C63 C119 1.419 . S
C64 C60 1.391 . S
C64 C63 1.391 . S
C64 C65 1.399 . S
C65 C64 1.399 . S
C65 C68 1.396 . S
C65 C77 1.453 . S
C65 C78 1.684 . S
H66 C90 0.948 . S
C67 C63 1.397 . S
C67 C68 1.394 . S
C67 C86 1.723 . S
C68 C65 1.396 . S
C68 C67 1.394 . S
C68 C98 1.723 . S
H69 C92 0.947 . S
H70 C93 0.948 . S
H71 C99 0.982 . S
H72 C100 0.979 . S
H73 C100 0.980 . S
H74 C100 0.983 . S
H75 C99 0.979 . S
H76 C99 0.977 . S
C77 C65 1.453 . S
C77 H106 0.982 . S
C77 H107 0.979 . S
C77 H108 0.977 . S
C78 C65 1.684 . S
C78 H103 0.979 . S
C78 H104 0.980 . S
C78 H105 0.983 . S
C79 C80 1.391 . S
C79 C84 1.391 . S
C79 H109 0.948 . S
C80 C79 1.391 . S
C80 C81 1.391 . S
C81 C80 1.391 . S
C81 C82 1.392 . S
C81 H110 0.947 . S
C82 C81 1.392 . S
C82 C83 1.419 . S
C82 H111 0.948 . S
C83 C82 1.419 . S
C83 C84 1.391 . S
C83 C87 1.397 . S
C84 C79 1.391 . S
C84 C83 1.391 . S
C84 C85 1.399 . S
C85 C84 1.399 . S
C85 C86 1.396 . S
C85 C88 1.453 . S
C85 C89 1.684 . S
C86 C67 1.723 . S
C86 C85 1.396 . S
C86 C87 1.394 . S
C87 C83 1.397 . S
C87 C86 1.394 . S
C87 C97 1.723 . S
C88 C85 1.453 . S
C88 H112 0.982 . S
C88 H113 0.979 . S
C88 H114 0.977 . S
C89 C85 1.684 . S
C89 H115 0.979 . S
C89 H116 0.980 . S
C89 H117 0.983 . S
C90 H66 0.948 . S
C90 C91 1.391 . S
C90 C95 1.391 . S
C91 C90 1.391 . S
C91 C92 1.391 . S
C92 H69 0.947 . S
C92 C91 1.391 . S
C92 C93 1.392 . S
C93 H70 0.948 . S
C93 C92 1.392 . S
C93 C94 1.419 . S
C94 C93 1.419 . S
C94 C95 1.391 . S
C94 C98 1.397 . S
C95 C90 1.391 . S
C95 C94 1.391 . S
C95 C96 1.399 . S
C96 C95 1.399 . S
C96 C97 1.396 . S
C96 C99 1.453 . S
C96 C100 1.684 . S
C97 C87 1.723 . S
C97 C96 1.396 . S
C97 C98 1.394 . S
C98 C68 1.723 . S
C98 C94 1.397 . S
C98 C97 1.394 . S
C99 H71 0.982 . S
C99 H75 0.979 . S
C99 H76 0.977 . S
C99 C96 1.453 . S
C100 H72 0.979 . S
C100 H73 0.980 . S
C100 H74 0.983 . S
C100 C96 1.684 . S
H101 C119 0.948 . S
H102 C60 0.948 . S
H103 C78 0.979 . S
H104 C78 0.980 . S
H105 C78 0.983 . S
H106 C77 0.982 . S
H107 C77 0.979 . S
H108 C77 0.977 . S
H109 C79 0.948 . S
H110 C81 0.947 . S
H111 C82 0.948 . S
H112 C88 0.982 . S
H113 C88 0.979 . S
H114 C88 0.977 . S
H115 C89 0.979 . S
H116 C89 0.980 . S
H117 C89 0.983 . S
H118 C62 0.947 . S
C119 C62 1.392 . S
C119 C63 1.419 . S
C119 H101 0.948 . S
C120 C121 1.391 1_554 S
C120 C124 1.391 . S
C120 H162 0.948 . S
C121 C120 1.391 1_556 S
C121 C122 1.391 . S
C122 C121 1.391 . S
C122 H178 0.947 . S
C122 C179 1.392 . S
C123 C124 1.391 . S
C123 C127 1.397 . S
C123 C179 1.419 1_554 S
C124 C120 1.391 . S
C124 C123 1.391 . S
C124 C125 1.399 . S
C125 C124 1.399 . S
C125 C128 1.396 . S
C125 C137 1.453 . S
C125 C138 1.684 1_655 S
H126 C150 0.940 1_655 S
C127 C123 1.397 . S
C127 C128 1.394 . S
C127 C146 1.723 . S
C128 C125 1.396 . S
C128 C127 1.394 . S
C128 C158 1.723 . S
H129 C152 0.947 . S
H130 C153 0.948 . S
H131 C159 0.982 . S
H132 C160 0.979 . S
H133 C160 0.980 . S
H134 C160 0.983 . S
H135 C159 0.979 . S
H136 C159 0.977 . S
C137 C125 1.453 . S
C137 H166 0.982 . S
C137 H167 0.979 1_655 S
C137 H168 0.977 . S
C138 C125 1.684 1_455 S
C138 H163 0.979 . S
C138 H164 0.980 . S
C138 H165 0.983 . S
C139 C140 1.391 . S
C139 C144 1.391 . S
C139 H169 0.948 . S
C140 C139 1.391 . S
C140 C141 1.391 . S
C141 C140 1.391 . S
C141 C142 1.392 . S
C141 H170 0.947 . S
C142 C141 1.392 . S
C142 C143 1.419 . S
C142 H171 0.948 . S
C143 C142 1.419 . S
C143 C144 1.391 . S
C143 C147 1.397 . S
C144 C139 1.391 . S
C144 C143 1.391 . S
C144 C145 1.399 . S
C145 C144 1.399 . S
C145 C146 1.396 . S
C145 C148 1.453 . S
C145 C149 1.684 1_554 S
C146 C127 1.723 . S
C146 C145 1.396 . S
C146 C147 1.394 . S
C147 C143 1.397 . S
C147 C146 1.394 . S
C147 C157 1.723 . S
C148 C145 1.453 . S
C148 H172 0.982 . S
C148 H173 0.979 . S
C148 H174 0.977 . S
C149 C145 1.684 1_556 S
C149 H175 0.979 . S
C149 H176 0.980 . S
C149 H177 0.983 . S
C150 H126 0.940 1_455 S
C150 C151 1.421 . S
C150 C155 1.371 1_455 S
C151 C150 1.421 . S
C151 C152 1.391 . S
C152 H129 0.947 . S
C152 C151 1.391 . S
C152 C153 1.392 . S
C153 H130 0.948 . S
C153 C152 1.392 . S
C153 C154 1.419 1_455 S
C154 C153 1.419 1_655 S
C154 C155 1.391 . S
C154 C158 1.397 . S
C155 C150 1.371 1_655 S
C155 C154 1.391 . S
C155 C156 1.399 . S
C156 C155 1.399 . S
C156 C157 1.396 . S
C156 C159 1.453 . S
C156 C160 1.684 . S
C157 C147 1.723 . S
C157 C156 1.396 . S
C157 C158 1.394 . S
C158 C128 1.723 . S
C158 C154 1.397 . S
C158 C157 1.394 . S
C159 H131 0.982 . S
C159 H135 0.979 . S
C159 H136 0.977 . S
C159 C156 1.453 . S
C160 H132 0.979 . S
C160 H133 0.980 . S
C160 H134 0.983 . S
C160 C156 1.684 . S
H161 C179 0.948 . S
H162 C120 0.948 . S
H163 C138 0.979 . S
H164 C138 0.980 . S
H165 C138 0.983 . S
H166 C137 0.982 . S
H167 C137 0.979 1_455 S
H168 C137 0.977 . S
H169 C139 0.948 . S
H170 C141 0.947 . S
H171 C142 0.948 . S
H172 C148 0.982 . S
H173 C148 0.979 . S
H174 C148 0.977 . S
H175 C149 0.979 . S
H176 C149 0.980 . S
H177 C149 0.983 . S
H178 C122 0.947 . S
C179 C122 1.392 . S
C179 C123 1.419 1_556 S
C179 H161 0.948 . S
C180 C181 1.391 . S
C180 C184 1.391 . S
C180 H222 0.948 . S
C181 C180 1.391 . S
C181 C182 1.391 . S
C182 C181 1.391 . S
C182 H238 0.947 . S
C182 C239 1.392 . S
C183 C184 1.391 . S
C183 C187 1.397 . S
C183 C239 1.419 . S
C184 C180 1.391 . S
C184 C183 1.391 . S
C184 C185 1.399 . S
C185 C184 1.399 . S
C185 C188 1.396 . S
C185 C197 1.453 . S
C185 C198 1.684 . S
H186 C210 0.948 . S
C187 C183 1.397 . S
C187 C188 1.394 . S
C187 C206 1.723 . S
C188 C185 1.396 . S
C188 C187 1.394 . S
C188 C218 1.723 . S
H189 C212 0.947 . S
H190 C213 0.948 . S
H191 C219 0.982 . S
H192 C220 0.979 . S
H193 C220 0.980 . S
H194 C220 0.983 . S
H195 C219 0.979 . S
H196 C219 0.977 . S
C197 C185 1.453 . S
C197 H226 0.982 . S
C197 H227 0.979 . S
C197 H228 0.977 . S
C198 C185 1.684 . S
C198 H223 0.979 . S
C198 H224 0.980 . S
C198 H225 0.983 . S
C199 C200 1.391 . S
C199 C204 1.391 . S
C199 H229 0.948 . S
C200 C199 1.391 . S
C200 C201 1.391 . S
C201 C200 1.391 . S
C201 C202 1.392 . S
C201 H230 0.947 . S
C202 C201 1.392 . S
C202 C203 1.419 . S
C202 H231 0.948 . S
C203 C202 1.419 . S
C203 C204 1.391 . S
C203 C207 1.397 . S
C204 C199 1.391 . S
C204 C203 1.391 . S
C204 C205 1.399 . S
C205 C204 1.399 . S
C205 C206 1.396 . S
C205 C208 1.453 . S
C205 C209 1.684 . S
C206 C187 1.723 . S
C206 C205 1.396 . S
C206 C207 1.394 . S
C207 C203 1.397 . S
C207 C206 1.394 . S
C207 C217 1.723 . S
C208 C205 1.453 . S
C208 H232 0.982 . S
C208 H233 0.979 . S
C208 H234 0.977 . S
C209 C205 1.684 . S
C209 H235 0.979 . S
C209 H236 0.980 . S
C209 H237 0.983 . S
C210 H186 0.948 . S
C210 C211 1.391 . S
C210 C215 1.391 . S
C211 C210 1.391 . S
C211 C212 1.391 . S
C212 H189 0.947 . S
C212 C211 1.391 . S
C212 C213 1.392 . S
C213 H190 0.948 . S
C213 C212 1.392 . S
C213 C214 1.419 . S
C214 C213 1.419 . S
C214 C215 1.391 . S
C214 C218 1.397 . S
C215 C210 1.391 . S
C215 C214 1.391 . S
C215 C216 1.399 . S
C216 C215 1.399 . S
C216 C217 1.396 . S
C216 C219 1.453 . S
C216 C220 1.684 . S
C217 C207 1.723 . S
C217 C216 1.396 . S
C217 C218 1.394 . S
C218 C188 1.723 . S
C218 C214 1.397 . S
C218 C217 1.394 . S
C219 H191 0.982 . S
C219 H195 0.979 . S
C219 H196 0.977 . S
C219 C216 1.453 . S
C220 H192 0.979 . S
C220 H193 0.980 . S
C220 H194 0.983 . S
C220 C216 1.684 . S
H221 C239 0.948 . S
H222 C180 0.948 . S
H223 C198 0.979 . S
H224 C198 0.980 . S
H225 C198 0.983 . S
H226 C197 0.982 . S
H227 C197 0.979 . S
H228 C197 0.977 . S
H229 C199 0.948 . S
H230 C201 0.947 . S
H231 C202 0.948 . S
H232 C208 0.982 . S
H233 C208 0.979 . S
H234 C208 0.977 . S
H235 C209 0.979 . S
H236 C209 0.980 . S
H237 C209 0.983 . S
H238 C182 0.947 . S
C239 C182 1.392 . S
C239 C183 1.419 . S
C239 H221 0.948 . S
C240 C241 1.391 . S
C240 C244 1.391 . S
C240 H282 0.948 . S
C241 C240 1.391 . S
C241 C242 1.391 . S
C242 C241 1.391 . S
C242 H298 0.947 . S
C242 C299 1.392 . S
C243 C244 1.391 . S
C243 C247 1.397 . S
C243 C299 1.419 . S
C244 C240 1.391 . S
C244 C243 1.391 . S
C244 C245 1.399 . S
C245 C244 1.399 . S
C245 C248 1.396 . S
C245 C257 1.453 . S
C245 C258 1.684 . S
H246 C270 0.948 . S
C247 C243 1.397 . S
C247 C248 1.394 . S
C247 C266 1.723 . S
C248 C245 1.396 . S
C248 C247 1.394 . S
C248 C278 1.723 . S
H249 C272 0.947 . S
H250 C273 0.948 . S
H251 C279 0.982 . S
H252 C280 0.977 1_565 S
H253 C280 0.980 1_565 S
H254 C280 0.984 . S
H255 C279 0.979 . S
H256 C279 0.977 . S
C257 C245 1.453 . S
C257 H286 0.982 . S
C257 H287 0.979 . S
C257 H288 0.977 . S
C258 C245 1.684 . S
C258 H283 0.979 . S
C258 H284 0.980 . S
C258 H285 0.983 . S
C259 C260 1.391 . S
C259 C264 1.391 1_655 S
C259 H289 0.948 . S
C260 C259 1.391 . S
C260 C261 1.391 1_655 S
C261 C260 1.391 1_455 S
C261 C262 1.392 . S
C261 H290 0.959 . S
C262 C261 1.392 . S
C262 C263 1.419 . S
C262 H291 0.948 . S
C263 C262 1.419 . S
C263 C264 1.391 . S
C263 C267 1.397 . S
C264 C259 1.391 1_455 S
C264 C263 1.391 . S
C264 C265 1.399 . S
C265 C264 1.399 . S
C265 C266 1.396 . S
C265 C268 1.453 1_455 S
C265 C269 1.684 . S
C266 C247 1.723 . S
C266 C265 1.396 . S
C266 C267 1.394 . S
C267 C263 1.397 . S
C267 C266 1.394 . S
C267 C277 1.723 . S
C268 C265 1.453 1_655 S
C268 H292 0.982 . S
C268 H293 0.979 . S
C268 H294 0.977 . S
C269 C265 1.684 . S
C269 H295 0.979 . S
C269 H296 0.980 . S
C269 H297 0.983 1_455 S
C270 H246 0.948 . S
C270 C271 1.391 . S
C270 C275 1.391 1_545 S
C271 C270 1.391 . S
C271 C272 1.391 1_545 S
C272 H249 0.947 . S
C272 C271 1.391 1_565 S
C272 C273 1.392 . S
C273 H250 0.948 . S
C273 C272 1.392 . S
C273 C274 1.419 . S
C274 C273 1.419 . S
C274 C275 1.391 . S
C274 C278 1.397 . S
C275 C270 1.391 1_565 S
C275 C274 1.391 . S
C275 C276 1.399 . S
C276 C275 1.399 . S
C276 C277 1.396 . S
C276 C279 1.453 1_565 S
C276 C280 1.684 1_565 S
C277 C267 1.723 . S
C277 C276 1.396 . S
C277 C278 1.394 . S
C278 C248 1.723 . S
C278 C274 1.397 . S
C278 C277 1.394 . S
C279 H251 0.982 . S
C279 H255 0.979 . S
C279 H256 0.977 . S
C279 C276 1.453 1_545 S
C280 H252 0.977 1_545 S
C280 H253 0.980 1_545 S
C280 H254 0.984 . S
C280 C276 1.684 1_545 S
H281 C299 0.948 . S
H282 C240 0.948 . S
H283 C258 0.979 . S
H284 C258 0.980 . S
H285 C258 0.983 . S
H286 C257 0.982 . S
H287 C257 0.979 . S
H288 C257 0.977 . S
H289 C259 0.948 . S
H290 C261 0.959 . S
H291 C262 0.948 . S
H292 C268 0.982 . S
H293 C268 0.979 . S
H294 C268 0.977 . S
H295 C269 0.979 . S
H296 C269 0.980 . S
H297 C269 0.983 1_655 S
H298 C242 0.947 . S
C299 C242 1.392 . S
C299 C243 1.419 . S
C299 H281 0.948 . S
C300 C301 1.391 . S
C300 C304 1.391 . S
C300 H342 0.948 . S
C301 C300 1.391 . S
C301 C302 1.391 . S
C302 C301 1.391 . S
C302 H358 0.947 . S
C302 C359 1.392 . S
C303 C304 1.391 . S
C303 C307 1.397 . S
C303 C359 1.419 . S
C304 C300 1.391 . S
C304 C303 1.391 . S
C304 C305 1.399 . S
C305 C304 1.399 . S
C305 C308 1.396 . S
C305 C317 1.453 . S
C305 C318 1.684 . S
H306 C330 0.948 . S
C307 C303 1.397 . S
C307 C308 1.394 . S
C307 C326 1.723 . S
C308 C305 1.396 . S
C308 C307 1.394 . S
C308 C338 1.723 . S
H309 C332 0.947 . S
H310 C333 0.948 . S
H311 C339 0.982 . S
H312 C340 0.979 . S
H313 C340 0.980 . S
H314 C340 0.983 . S
H315 C339 0.979 . S
H316 C339 0.977 . S
C317 C305 1.453 . S
C317 H346 0.982 . S
C317 H347 0.979 . S
C317 H348 0.977 . S
C318 C305 1.684 . S
C318 H343 0.979 . S
C318 H344 0.980 . S
C318 H345 0.983 . S
C319 C320 1.391 . S
C319 C324 1.391 . S
C319 H349 0.948 . S
C320 C319 1.391 . S
C320 C321 1.391 . S
C321 C320 1.391 . S
C321 C322 1.392 . S
C321 H350 0.947 . S
C322 C321 1.392 . S
C322 C323 1.419 . S
C322 H351 0.948 . S
C323 C322 1.419 . S
C323 C324 1.391 . S
C323 C327 1.397 . S
C324 C319 1.391 . S
C324 C323 1.391 . S
C324 C325 1.399 . S
C325 C324 1.399 . S
C325 C326 1.396 . S
C325 C328 1.453 . S
C325 C329 1.684 . S
C326 C307 1.723 . S
C326 C325 1.396 . S
C326 C327 1.394 . S
C327 C323 1.397 . S
C327 C326 1.394 . S
C327 C337 1.723 . S
C328 C325 1.453 . S
C328 H352 0.982 . S
C328 H353 0.979 . S
C328 H354 0.977 . S
C329 C325 1.684 . S
C329 H355 0.979 . S
C329 H356 0.980 . S
C329 H357 0.983 . S
C330 H306 0.948 . S
C330 C331 1.391 . S
C330 C335 1.391 . S
C331 C330 1.391 . S
C331 C332 1.391 . S
C332 H309 0.947 . S
C332 C331 1.391 . S
C332 C333 1.392 . S
C333 H310 0.948 . S
C333 C332 1.392 . S
C333 C334 1.419 . S
C334 C333 1.419 . S
C334 C335 1.391 . S
C334 C338 1.397 . S
C335 C330 1.391 . S
C335 C334 1.391 . S
C335 C336 1.399 . S
C336 C335 1.399 . S
C336 C337 1.396 . S
C336 C339 1.453 . S
C336 C340 1.684 . S
C337 C327 1.723 . S
C337 C336 1.396 . S
C337 C338 1.394 . S
C338 C308 1.723 . S
C338 C334 1.397 . S
C338 C337 1.394 . S
C339 H311 0.982 . S
C339 H315 0.979 . S
C339 H316 0.977 . S
C339 C336 1.453 . S
C340 H312 0.979 . S
C340 H313 0.980 . S
C340 H314 0.983 . S
C340 C336 1.684 . S
H341 C359 0.948 . S
H342 C300 0.948 . S
H343 C318 0.979 . S
H344 C318 0.980 . S
H345 C318 0.983 . S
H346 C317 0.982 . S
H347 C317 0.979 . S
H348 C317 0.977 . S
H349 C319 0.948 . S
H350 C321 0.947 . S
H351 C322 0.948 . S
H352 C328 0.982 . S
H353 C328 0.979 . S
H354 C328 0.977 . S
H355 C329 0.979 . S
H356 C329 0.980 . S
H357 C329 0.983 . S
H358 C302 0.947 . S
C359 C302 1.392 . S
C359 C303 1.419 . S
C359 H341 0.948 . S
C360 C361 1.391 . S
C360 C364 1.391 . S
C360 H402 0.948 . S
C361 C360 1.391 . S
C361 C362 1.391 . S
C362 C361 1.391 . S
C362 H418 0.947 . S
C362 C419 1.392 . S
C363 C364 1.391 . S
C363 C367 1.397 . S
C363 C419 1.419 . S
C364 C360 1.391 . S
C364 C363 1.391 . S
C364 C365 1.399 . S
C365 C364 1.399 . S
C365 C368 1.396 . S
C365 C377 1.453 . S
C365 C378 1.684 . S
H366 C390 0.948 1_455 S
C367 C363 1.397 . S
C367 C368 1.394 . S
C367 C386 1.723 . S
C368 C365 1.396 . S
C368 C367 1.394 . S
C368 C398 1.723 . S
H369 C392 0.947 . S
H370 C393 0.948 . S
H371 C399 0.982 . S
H372 C400 0.979 . S
H373 C400 0.980 . S
H374 C400 0.983 . S
H375 C399 0.979 1_455 S
H376 C399 0.977 1_455 S
C377 C365 1.453 . S
C377 H406 0.982 . S
C377 H407 0.979 . S
C377 H408 0.977 . S
C378 C365 1.684 . S
C378 H403 0.979 . S
C378 H404 0.980 . S
C378 H405 0.983 . S
C379 C380 1.391 . S
C379 C384 1.391 1_455 S
C379 H409 0.948 . S
C380 C379 1.391 . S
C380 C381 1.391 . S
C381 C380 1.391 . S
C381 C382 1.392 . S
C381 H410 0.947 . S
C382 C381 1.392 . S
C382 C383 1.419 1_455 S
C382 H411 0.948 . S
C383 C382 1.419 1_655 S
C383 C384 1.391 . S
C383 C387 1.397 . S
C384 C379 1.391 1_655 S
C384 C383 1.391 . S
C384 C385 1.399 . S
C385 C384 1.399 . S
C385 C386 1.396 . S
C385 C388 1.453 . S
C385 C389 1.684 . S
C386 C367 1.723 . S
C386 C385 1.396 . S
C386 C387 1.394 . S
C387 C383 1.397 . S
C387 C386 1.394 . S
C387 C397 1.723 . S
C388 C385 1.453 . S
C388 H412 0.982 . S
C388 H413 0.979 . S
C388 H414 0.977 . S
C389 C385 1.684 . S
C389 H415 0.979 . S
C389 H416 0.980 . S
C389 H417 0.983 . S
C390 H366 0.948 1_655 S
C390 C391 1.391 . S
C390 C395 1.391 . S
C391 C390 1.391 . S
C391 C392 1.391 . S
C392 H369 0.947 . S
C392 C391 1.391 . S
C392 C393 1.392 . S
C393 H370 0.948 . S
C393 C392 1.392 . S
C393 C394 1.419 . S
C394 C393 1.419 . S
C394 C395 1.391 . S
C394 C398 1.397 . S
C395 C390 1.391 . S
C395 C394 1.391 . S
C395 C396 1.399 . S
C396 C395 1.399 . S
C396 C397 1.396 . S
C396 C399 1.453 . S
C396 C400 1.684 1_655 S
C397 C387 1.723 . S
C397 C396 1.396 . S
C397 C398 1.394 . S
C398 C368 1.723 . S
C398 C394 1.397 . S
C398 C397 1.394 . S
C399 H371 0.982 . S
C399 H375 0.979 1_655 S
C399 H376 0.977 1_655 S
C399 C396 1.453 . S
C400 H372 0.979 . S
C400 H373 0.980 . S
C400 H374 0.983 . S
C400 C396 1.684 1_455 S
H401 C419 0.948 . S
H402 C360 0.948 . S
H403 C378 0.979 . S
H404 C378 0.980 . S
H405 C378 0.983 . S
H406 C377 0.982 . S
H407 C377 0.979 . S
H408 C377 0.977 . S
H409 C379 0.948 . S
H410 C381 0.947 . S
H411 C382 0.948 . S
H412 C388 0.982 . S
H413 C388 0.979 . S
H414 C388 0.977 . S
H415 C389 0.979 . S
H416 C389 0.980 . S
H417 C389 0.983 . S
H418 C362 0.947 . S
C419 C362 1.392 . S
C419 C363 1.419 . S
C419 H401 0.948 . S
C420 C421 1.391 . S
C420 C424 1.391 . S
C420 H462 0.948 . S
C421 C420 1.391 . S
C421 C422 1.391 . S
C422 C421 1.391 . S
C422 H478 0.947 . S
C422 C479 1.392 . S
C423 C424 1.391 . S
C423 C427 1.397 . S
C423 C479 1.419 . S
C424 C420 1.391 . S
C424 C423 1.391 . S
C424 C425 1.399 . S
C425 C424 1.399 . S
C425 C428 1.396 . S
C425 C437 1.453 . S
C425 C438 1.684 . S
H426 C450 0.948 . S
C427 C423 1.397 . S
C427 C428 1.394 . S
C427 C446 1.723 . S
C428 C425 1.396 . S
C428 C427 1.394 . S
C428 C458 1.723 . S
H429 C452 0.947 . S
H430 C453 0.948 . S
H431 C459 0.982 . S
H432 C460 0.979 . S
H433 C460 0.980 . S
H434 C460 0.983 . S
H435 C459 0.979 . S
H436 C459 0.977 . S
C437 C425 1.453 . S
C437 H466 0.982 . S
C437 H467 0.979 . S
C437 H468 0.977 . S
C438 C425 1.684 . S
C438 H463 0.979 . S
C438 H464 0.980 . S
C438 H465 0.983 . S
C439 C440 1.391 . S
C439 C444 1.391 . S
C439 H469 0.948 . S
C440 C439 1.391 . S
C440 C441 1.391 . S
C441 C440 1.391 . S
C441 C442 1.392 . S
C441 H470 0.947 . S
C442 C441 1.392 . S
C442 C443 1.419 . S
C442 H471 0.948 . S
C443 C442 1.419 . S
C443 C444 1.391 . S
C443 C447 1.397 . S
C444 C439 1.391 . S
C444 C443 1.391 . S
C444 C445 1.399 . S
C445 C444 1.399 . S
C445 C446 1.396 . S
C445 C448 1.453 . S
C445 C449 1.684 . S
C446 C427 1.723 . S
C446 C445 1.396 . S
C446 C447 1.394 . S
C447 C443 1.397 . S
C447 C446 1.394 . S
C447 C457 1.723 . S
C448 C445 1.453 . S
C448 H472 0.982 . S
C448 H473 0.979 . S
C448 H474 0.977 . S
C449 C445 1.684 . S
C449 H475 0.979 . S
C449 H476 0.980 . S
C449 H477 0.983 . S
C450 H426 0.948 . S
C450 C451 1.391 . S
C450 C455 1.391 . S
C451 C450 1.391 . S
C451 C452 1.391 . S
C452 H429 0.947 . S
C452 C451 1.391 . S
C452 C453 1.392 . S
C453 H430 0.948 . S
C453 C452 1.392 . S
C453 C454 1.419 . S
C454 C453 1.419 . S
C454 C455 1.391 . S
C454 C458 1.397 . S
C455 C450 1.391 . S
C455 C454 1.391 . S
C455 C456 1.399 . S
C456 C455 1.399 . S
C456 C457 1.396 . S
C456 C459 1.453 . S
C456 C460 1.684 . S
C457 C447 1.723 . S
C457 C456 1.396 . S
C457 C458 1.394 . S
C458 C428 1.723 . S
C458 C454 1.397 . S
C458 C457 1.394 . S
C459 H431 0.982 . S
C459 H435 0.979 . S
C459 H436 0.977 . S
C459 C456 1.453 . S
C460 H432 0.979 . S
C460 H433 0.980 . S
C460 H434 0.983 . S
C460 C456 1.684 . S
H461 C479 0.948 . S
H462 C420 0.948 . S
H463 C438 0.979 . S
H464 C438 0.980 . S
H465 C438 0.983 . S
H466 C437 0.982 . S
H467 C437 0.979 . S
H468 C437 0.977 . S
H469 C439 0.948 . S
H470 C441 0.947 . S
H471 C442 0.948 . S
H472 C448 0.982 . S
H473 C448 0.979 . S
H474 C448 0.977 . S
H475 C449 0.979 . S
H476 C449 0.980 . S
H477 C449 0.983 . S
H478 C422 0.947 . S
C479 C422 1.392 . S
C479 C423 1.419 . S
C479 H461 0.948 . S
C480 C481 1.391 . S
C480 C484 1.391 . S
C480 H522 0.948 . S
C481 C480 1.391 . S
C481 C482 1.391 . S
C482 C481 1.391 . S
C482 H538 0.947 . S
C482 C539 1.392 . S
C483 C484 1.391 . S
C483 C487 1.397 . S
C483 C539 1.419 . S
C484 C480 1.391 . S
C484 C483 1.391 . S
C484 C485 1.399 . S
C485 C484 1.399 . S
C485 C488 1.396 . S
C485 C497 1.453 . S
C485 C498 1.684 . S
H486 C510 0.948 . S
C487 C483 1.397 . S
C487 C488 1.394 . S
C487 C506 1.723 . S
C488 C485 1.396 . S
C488 C487 1.394 . S
C488 C518 1.723 . S
H489 C512 0.947 . S
H490 C513 0.948 . S
H491 C519 0.982 . S
H492 C520 0.979 . S
H493 C520 0.980 . S
H494 C520 0.983 . S
H495 C519 0.979 . S
H496 C519 0.977 . S
C497 C485 1.453 . S
C497 H526 0.982 . S
C497 H527 0.979 . S
C497 H528 0.977 . S
C498 C485 1.684 . S
C498 H523 0.979 . S
C498 H524 0.980 . S
C498 H525 0.983 . S
C499 C500 1.391 . S
C499 C504 1.391 . S
C499 H529 0.948 . S
C500 C499 1.391 . S
C500 C501 1.391 . S
C501 C500 1.391 . S
C501 C502 1.392 . S
C501 H530 0.947 . S
C502 C501 1.392 . S
C502 C503 1.419 . S
C502 H531 0.948 . S
C503 C502 1.419 . S
C503 C504 1.391 . S
C503 C507 1.397 . S
C504 C499 1.391 . S
C504 C503 1.391 . S
C504 C505 1.399 . S
C505 C504 1.399 . S
C505 C506 1.396 . S
C505 C508 1.453 . S
C505 C509 1.684 . S
C506 C487 1.723 . S
C506 C505 1.396 . S
C506 C507 1.394 . S
C507 C503 1.397 . S
C507 C506 1.394 . S
C507 C517 1.723 . S
C508 C505 1.453 . S
C508 H532 0.982 . S
C508 H533 0.979 . S
C508 H534 0.977 . S
C509 C505 1.684 . S
C509 H535 0.979 . S
C509 H536 0.980 . S
C509 H537 0.983 . S
C510 H486 0.948 . S
C510 C511 1.391 . S
C510 C515 1.391 . S
C511 C510 1.391 . S
C511 C512 1.391 . S
C512 H489 0.947 . S
C512 C511 1.391 . S
C512 C513 1.392 . S
C513 H490 0.948 . S
C513 C512 1.392 . S
C513 C514 1.419 . S
C514 C513 1.419 . S
C514 C515 1.391 . S
C514 C518 1.397 . S
C515 C510 1.391 . S
C515 C514 1.391 . S
C515 C516 1.399 . S
C516 C515 1.399 . S
C516 C517 1.396 . S
C516 C519 1.453 . S
C516 C520 1.684 . S
C517 C507 1.723 . S
C517 C516 1.396 . S
C517 C518 1.394 . S
C518 C488 1.723 . S
C518 C514 1.397 . S
C518 C517 1.394 . S
C519 H491 0.982 . S
C519 H495 0.979 . S
C519 H496 0.977 . S
C519 C516 1.453 . S
C520 H492 0.979 . S
C520 H493 0.980 . S
C520 H494 0.983 . S
C520 C516 1.684 . S
H521 C539 0.948 . S
H522 C480 0.948 . S
H523 C498 0.979 . S
H524 C498 0.980 . S
H525 C498 0.983 . S
H526 C497 0.982 . S
H527 C497 0.979 . S
H528 C497 0.977 . S
H529 C499 0.948 . S
H530 C501 0.947 . S
H531 C502 0.948 . S
H532 C508 0.982 . S
H533 C508 0.979 . S
H534 C508 0.977 . S
H535 C509 0.979 . S
H536 C509 0.980 . S
H537 C509 0.983 . S
H538 C482 0.947 . S
C539 C482 1.392 . S
C539 C483 1.419 . S
C539 H521 0.948 . S
C540 C541 1.391 . S
C540 C544 1.391 . S
C540 H582 0.948 . S
C541 C540 1.391 . S
C541 C542 1.391 . S
C542 C541 1.391 . S
C542 H598 0.947 . S
C542 C599 1.392 . S
C543 C544 1.391 . S
C543 C547 1.397 . S
C543 C599 1.419 . S
C544 C540 1.391 . S
C544 C543 1.391 . S
C544 C545 1.399 . S
C545 C544 1.399 . S
C545 C548 1.396 . S
C545 C557 1.453 . S
C545 C558 1.684 . S
H546 C570 0.948 1_545 S
C547 C543 1.397 . S
C547 C548 1.394 . S
C547 C566 1.723 . S
C548 C545 1.396 . S
C548 C547 1.394 . S
C548 C578 1.723 . S
H549 C572 0.947 . S
H550 C573 0.948 . S
H551 C579 0.982 . S
H552 C580 0.979 . S
H553 C580 0.980 . S
H554 C580 0.983 . S
H555 C579 0.979 1_545 S
H556 C579 0.977 1_545 S
C557 C545 1.453 . S
C557 H586 0.982 . S
C557 H587 0.979 . S
C557 H588 0.977 . S
C558 C545 1.684 . S
C558 H583 0.979 . S
C558 H584 0.980 . S
C558 H585 0.983 . S
C559 C560 1.391 . S
C559 C564 1.391 1_545 S
C559 H589 0.948 . S
C560 C559 1.391 . S
C560 C561 1.391 . S
C561 C560 1.391 . S
C561 C562 1.392 . S
C561 H590 0.947 . S
C562 C561 1.392 . S
C562 C563 1.419 1_545 S
C562 H591 0.948 . S
C563 C562 1.419 1_565 S
C563 C564 1.391 . S
C563 C567 1.397 . S
C564 C559 1.391 1_565 S
C564 C563 1.391 . S
C564 C565 1.399 . S
C565 C564 1.399 . S
C565 C566 1.396 . S
C565 C568 1.453 . S
C565 C569 1.684 . S
C566 C547 1.723 . S
C566 C565 1.396 . S
C566 C567 1.394 . S
C567 C563 1.397 . S
C567 C566 1.394 . S
C567 C577 1.723 . S
C568 C565 1.453 . S
C568 H592 0.982 . S
C568 H593 0.979 . S
C568 H594 0.977 . S
C569 C565 1.684 . S
C569 H595 0.979 . S
C569 H596 0.980 . S
C569 H597 0.983 . S
C570 H546 0.948 1_565 S
C570 C571 1.391 . S
C570 C575 1.391 . S
C571 C570 1.391 . S
C571 C572 1.391 . S
C572 H549 0.947 . S
C572 C571 1.391 . S
C572 C573 1.392 . S
C573 H550 0.948 . S
C573 C572 1.392 . S
C573 C574 1.419 . S
C574 C573 1.419 . S
C574 C575 1.391 . S
C574 C578 1.397 . S
C575 C570 1.391 . S
C575 C574 1.391 . S
C575 C576 1.399 . S
C576 C575 1.399 . S
C576 C577 1.396 . S
C576 C579 1.453 . S
C576 C580 1.684 1_565 S
C577 C567 1.723 . S
C577 C576 1.396 . S
C577 C578 1.394 . S
C578 C548 1.723 . S
C578 C574 1.397 . S
C578 C577 1.394 . S
C579 H551 0.982 . S
C579 H555 0.979 1_565 S
C579 H556 0.977 1_565 S
C579 C576 1.453 . S
C580 H552 0.979 . S
C580 H553 0.980 . S
C580 H554 0.983 . S
C580 C576 1.684 1_545 S
H581 C599 0.948 . S
H582 C540 0.948 . S
H583 C558 0.979 . S
H584 C558 0.980 . S
H585 C558 0.983 . S
H586 C557 0.982 . S
H587 C557 0.979 . S
H588 C557 0.977 . S
H589 C559 0.948 . S
H590 C561 0.947 . S
H591 C562 0.948 . S
H592 C568 0.982 . S
H593 C568 0.979 . S
H594 C568 0.977 . S
H595 C569 0.979 . S
H596 C569 0.980 . S
H597 C569 0.983 . S
H598 C542 0.947 . S
C599 C542 1.392 . S
C599 C543 1.419 . S
C599 H581 0.948 . S
C600 C601 1.391 . S
C600 C604 1.391 . S
C600 H642 0.948 . S
C601 C600 1.391 . S
C601 C602 1.391 . S
C602 C601 1.391 . S
C602 H658 0.947 . S
C602 C659 1.392 . S
C603 C604 1.391 . S
C603 C607 1.397 . S
C603 C659 1.419 . S
C604 C600 1.391 . S
C604 C603 1.391 . S
C604 C605 1.399 . S
C605 C604 1.399 . S
C605 C608 1.396 . S
C605 C617 1.453 . S
C605 C618 1.684 . S
H606 C630 0.948 . S
C607 C603 1.397 . S
C607 C608 1.394 . S
C607 C626 1.723 . S
C608 C605 1.396 . S
C608 C607 1.394 . S
C608 C638 1.723 . S
H609 C632 0.947 . S
H610 C633 0.948 . S
H611 C639 0.982 . S
H612 C640 0.979 . S
H613 C640 0.980 . S
H614 C640 0.983 . S
H615 C639 0.979 . S
H616 C639 0.977 . S
C617 C605 1.453 . S
C617 H646 0.982 . S
C617 H647 0.979 . S
C617 H648 0.977 . S
C618 C605 1.684 . S
C618 H643 0.979 . S
C618 H644 0.980 . S
C618 H645 0.983 . S
C619 C620 1.391 . S
C619 C624 1.391 . S
C619 H649 0.948 . S
C620 C619 1.391 . S
C620 C621 1.391 . S
C621 C620 1.391 . S
C621 C622 1.392 . S
C621 H650 0.947 . S
C622 C621 1.392 . S
C622 C623 1.419 . S
C622 H651 0.948 . S
C623 C622 1.419 . S
C623 C624 1.391 . S
C623 C627 1.397 . S
C624 C619 1.391 . S
C624 C623 1.391 . S
C624 C625 1.399 . S
C625 C624 1.399 . S
C625 C626 1.396 . S
C625 C628 1.453 . S
C625 C629 1.684 . S
C626 C607 1.723 . S
C626 C625 1.396 . S
C626 C627 1.394 . S
C627 C623 1.397 . S
C627 C626 1.394 . S
C627 C637 1.723 . S
C628 C625 1.453 . S
C628 H652 0.982 . S
C628 H653 0.979 . S
C628 H654 0.977 . S
C629 C625 1.684 . S
C629 H655 0.979 . S
C629 H656 0.980 . S
C629 H657 0.983 . S
C630 H606 0.948 . S
C630 C631 1.391 . S
C630 C635 1.391 . S
C631 C630 1.391 . S
C631 C632 1.391 . S
C632 H609 0.947 . S
C632 C631 1.391 . S
C632 C633 1.392 . S
C633 H610 0.948 . S
C633 C632 1.392 . S
C633 C634 1.419 . S
C634 C633 1.419 . S
C634 C635 1.391 . S
C634 C638 1.397 . S
C635 C630 1.391 . S
C635 C634 1.391 . S
C635 C636 1.399 . S
C636 C635 1.399 . S
C636 C637 1.396 . S
C636 C639 1.453 . S
C636 C640 1.684 . S
C637 C627 1.723 . S
C637 C636 1.396 . S
C637 C638 1.394 . S
C638 C608 1.723 . S
C638 C634 1.397 . S
C638 C637 1.394 . S
C639 H611 0.982 . S
C639 H615 0.979 . S
C639 H616 0.977 . S
C639 C636 1.453 . S
C640 H612 0.979 . S
C640 H613 0.980 . S
C640 H614 0.983 . S
C640 C636 1.684 . S
H641 C659 0.948 . S
H642 C600 0.948 . S
H643 C618 0.979 . S
H644 C618 0.980 . S
H645 C618 0.983 . S
H646 C617 0.982 . S
H647 C617 0.979 . S
H648 C617 0.977 . S
H649 C619 0.948 . S
H650 C621 0.947 . S
H651 C622 0.948 . S
H652 C628 0.982 . S
H653 C628 0.979 . S
H654 C628 0.977 . S
H655 C629 0.979 . S
H656 C629 0.980 . S
H657 C629 0.983 . S
H658 C602 0.947 . S
C659 C602 1.392 . S
C659 C603 1.419 . S
C659 H641 0.948 . S
C660 C661 1.391 . S
C660 C664 1.391 . S
C660 H702 0.948 . S
C661 C660 1.391 . S
C661 C662 1.391 . S
C662 C661 1.391 . S
C662 H718 0.947 . S
C662 C719 1.392 . S
C663 C664 1.391 . S
C663 C667 1.397 . S
C663 C719 1.419 . S
C664 C660 1.391 . S
C664 C663 1.391 . S
C664 C665 1.399 . S
C665 C664 1.399 . S
C665 C668 1.396 . S
C665 C677 1.453 . S
C665 C678 1.684 . S
H666 C690 0.948 . S
C667 C663 1.397 . S
C667 C668 1.394 . S
C667 C686 1.723 . S
C668 C665 1.396 . S
C668 C667 1.394 . S
C668 C698 1.723 . S
H669 C692 0.947 . S
H670 C693 0.948 . S
H671 C699 0.982 . S
H672 C700 0.979 . S
H673 C700 0.980 . S
H674 C700 0.983 . S
H675 C699 0.979 . S
H676 C699 0.977 . S
C677 C665 1.453 . S
C677 H706 0.982 . S
C677 H707 0.979 . S
C677 H708 0.977 . S
C678 C665 1.684 . S
C678 H703 0.979 . S
C678 H704 0.980 . S
C678 H705 0.983 . S
C679 C680 1.391 . S
C679 C684 1.391 . S
C679 H709 0.948 . S
C680 C679 1.391 . S
C680 C681 1.391 . S
C681 C680 1.391 . S
C681 C682 1.392 . S
C681 H710 0.947 . S
C682 C681 1.392 . S
C682 C683 1.419 . S
C682 H711 0.948 . S
C683 C682 1.419 . S
C683 C684 1.391 . S
C683 C687 1.397 . S
C684 C679 1.391 . S
C684 C683 1.391 . S
C684 C685 1.399 . S
C685 C684 1.399 . S
C685 C686 1.396 . S
C685 C688 1.453 . S
C685 C689 1.684 . S
C686 C667 1.723 . S
C686 C685 1.396 . S
C686 C687 1.394 . S
C687 C683 1.397 . S
C687 C686 1.394 . S
C687 C697 1.723 . S
C688 C685 1.453 . S
C688 H712 0.982 . S
C688 H713 0.979 . S
C688 H714 0.977 . S
C689 C685 1.684 . S
C689 H715 0.979 . S
C689 H716 0.980 . S
C689 H717 0.983 . S
C690 H666 0.948 . S
C690 C691 1.391 . S
C690 C695 1.391 . S
C691 C690 1.391 . S
C691 C692 1.391 . S
C692 H669 0.947 . S
C692 C691 1.391 . S
C692 C693 1.392 . S
C693 H670 0.948 . S
C693 C692 1.392 . S
C693 C694 1.419 . S
C694 C693 1.419 . S
C694 C695 1.391 . S
C694 C698 1.397 . S
C695 C690 1.391 . S
C695 C694 1.391 . S
C695 C696 1.399 . S
C696 C695 1.399 . S
C696 C697 1.396 . S
C696 C699 1.453 . S
C696 C700 1.684 . S
C697 C687 1.723 . S
C697 C696 1.396 . S
C697 C698 1.394 . S
C698 C668 1.723 . S
C698 C694 1.397 . S
C698 C697 1.394 . S
C699 H671 0.982 . S
C699 H675 0.979 . S
C699 H676 0.977 . S
C699 C696 1.453 . S
C700 H672 0.979 . S
C700 H673 0.980 . S
C700 H674 0.983 . S
C700 C696 1.684 . S
H701 C719 0.948 . S
H702 C660 0.948 . S
H703 C678 0.979 . S
H704 C678 0.980 . S
H705 C678 0.983 . S
H706 C677 0.982 . S
H707 C677 0.979 . S
H708 C677 0.977 . S
H709 C679 0.948 . S
H710 C681 0.947 . S
H711 C682 0.948 . S
H712 C688 0.982 . S
H713 C688 0.979 . S
H714 C688 0.977 . S
H715 C689 0.979 . S
H716 C689 0.980 . S
H717 C689 0.983 . S
H718 C662 0.947 . S
C719 C662 1.392 . S
C719 C663 1.419 . S
C719 H701 0.948 . S
C720 C721 1.391 . S
C720 C724 1.391 . S
C720 H762 0.948 . S
C721 C720 1.391 . S
C721 C722 1.391 . S
C722 C721 1.391 . S
C722 H778 0.947 . S
C722 C779 1.392 . S
C723 C724 1.391 . S
C723 C727 1.397 . S
C723 C779 1.419 . S
C724 C720 1.391 . S
C724 C723 1.391 . S
C724 C725 1.399 . S
C725 C724 1.399 . S
C725 C728 1.396 . S
C725 C737 1.453 . S
C725 C738 1.684 . S
H726 C750 0.948 . S
C727 C723 1.397 . S
C727 C728 1.394 . S
C727 C746 1.723 . S
C728 C725 1.396 . S
C728 C727 1.394 . S
C728 C758 1.723 . S
H729 C752 0.947 . S
H730 C753 0.948 . S
H731 C759 0.982 . S
H732 C760 0.979 . S
H733 C760 0.980 . S
H734 C760 0.983 . S
H735 C759 0.979 . S
H736 C759 0.977 . S
C737 C725 1.453 . S
C737 H766 0.982 . S
C737 H767 0.979 . S
C737 H768 0.977 . S
C738 C725 1.684 . S
C738 H763 0.979 . S
C738 H764 0.980 . S
C738 H765 0.983 . S
C739 C740 1.391 . S
C739 C744 1.391 . S
C739 H769 0.948 . S
C740 C739 1.391 . S
C740 C741 1.391 . S
C741 C740 1.391 . S
C741 C742 1.392 . S
C741 H770 0.947 . S
C742 C741 1.392 . S
C742 C743 1.419 . S
C742 H771 0.948 . S
C743 C742 1.419 . S
C743 C744 1.391 . S
C743 C747 1.397 . S
C744 C739 1.391 . S
C744 C743 1.391 . S
C744 C745 1.399 . S
C745 C744 1.399 . S
C745 C746 1.396 . S
C745 C748 1.453 . S
C745 C749 1.684 . S
C746 C727 1.723 . S
C746 C745 1.396 . S
C746 C747 1.394 . S
C747 C743 1.397 . S
C747 C746 1.394 . S
C747 C757 1.723 . S
C748 C745 1.453 . S
C748 H772 0.982 . S
C748 H773 0.979 . S
C748 H774 0.977 . S
C749 C745 1.684 . S
C749 H775 0.979 . S
C749 H776 0.980 . S
C749 H777 0.983 . S
C750 H726 0.948 . S
C750 C751 1.391 . S
C750 C755 1.391 . S
C751 C750 1.391 . S
C751 C752 1.391 . S
C752 H729 0.947 . S
C752 C751 1.391 . S
C752 C753 1.392 . S
C753 H730 0.948 . S
C753 C752 1.392 . S
C753 C754 1.419 . S
C754 C753 1.419 . S
C754 C755 1.391 . S
C754 C758 1.397 . S
C755 C750 1.391 . S
C755 C754 1.391 . S
C755 C756 1.399 . S
C756 C755 1.399 . S
C756 C757 1.396 . S
C756 C759 1.453 . S
C756 C760 1.684 . S
C757 C747 1.723 . S
C757 C756 1.396 . S
C757 C758 1.394 . S
C758 C728 1.723 . S
C758 C754 1.397 . S
C758 C757 1.394 . S
C759 H731 0.982 . S
C759 H735 0.979 . S
C759 H736 0.977 . S
C759 C756 1.453 . S
C760 H732 0.979 . S
C760 H733 0.980 . S
C760 H734 0.983 . S
C760 C756 1.684 . S
H761 C779 0.948 . S
H762 C720 0.948 . S
H763 C738 0.979 . S
H764 C738 0.980 . S
H765 C738 0.983 . S
H766 C737 0.982 . S
H767 C737 0.979 . S
H768 C737 0.977 . S
H769 C739 0.948 . S
H770 C741 0.947 . S
H771 C742 0.948 . S
H772 C748 0.982 . S
H773 C748 0.979 . S
H774 C748 0.977 . S
H775 C749 0.979 . S
H776 C749 0.980 . S
H777 C749 0.983 . S
H778 C722 0.947 . S
C779 C722 1.392 . S
C779 C723 1.419 . S
C779 H761 0.948 . S
C780 C781 1.391 . S
C780 C784 1.391 . S
C780 H822 0.948 . S
C781 C780 1.391 . S
C781 C782 1.376 1_554 S
C782 C781 1.376 1_556 S
C782 H838 0.948 . S
C782 C839 1.406 . S
C783 C784 1.391 1_556 S
C783 C787 1.397 . S
C783 C839 1.419 . S
C784 C780 1.391 . S
C784 C783 1.391 1_554 S
C784 C785 1.399 . S
C785 C784 1.399 . S
C785 C788 1.396 1_554 S
C785 C797 1.453 . S
C785 C798 1.684 . S
H786 C810 0.948 . S
C787 C783 1.397 . S
C787 C788 1.394 . S
C787 C806 1.723 . S
C788 C785 1.396 1_556 S
C788 C787 1.394 . S
C788 C818 1.723 . S
H789 C812 0.947 1_554 S
H790 C813 0.948 1_554 S
H791 C819 0.982 . S
H792 C820 0.979 . S
H793 C820 0.980 . S
H794 C820 0.983 . S
H795 C819 0.979 . S
H796 C819 0.977 . S
C797 C785 1.453 . S
C797 H826 0.982 . S
C797 H827 0.979 . S
C797 H828 0.977 . S
C798 C785 1.684 . S
C798 H823 0.979 1_554 S
C798 H824 0.980 . S
C798 H825 0.983 . S
C799 C800 1.391 . S
C799 C804 1.391 . S
C799 H829 0.948 . S
C800 C799 1.391 . S
C800 C801 1.391 . S
C801 C800 1.391 . S
C801 C802 1.392 . S
C801 H830 0.947 . S
C802 C801 1.392 . S
C802 C803 1.419 . S
C802 H831 0.948 . S
C803 C802 1.419 . S
C803 C804 1.391 . S
C803 C807 1.397 . S
C804 C799 1.391 . S
C804 C803 1.391 . S
C804 C805 1.399 . S
C805 C804 1.399 . S
C805 C806 1.396 . S
C805 C808 1.453 . S
C805 C809 1.684 . S
C806 C787 1.723 . S
C806 C805 1.396 . S
C806 C807 1.394 . S
C807 C803 1.397 . S
C807 C806 1.394 . S
C807 C817 1.723 . S
C808 C805 1.453 . S
C808 H832 0.982 . S
C808 H833 0.979 . S
C808 H834 0.977 . S
C809 C805 1.684 . S
C809 H835 0.979 . S
C809 H836 0.980 . S
C809 H837 0.983 . S
C810 H786 0.948 . S
C810 C811 1.391 . S
C810 C815 1.391 . S
C811 C810 1.391 . S
C811 C812 1.391 . S
C812 H789 0.947 1_556 S
C812 C811 1.391 . S
C812 C813 1.392 . S
C813 H790 0.948 1_556 S
C813 C812 1.392 . S
C813 C814 1.419 . S
C814 C813 1.419 . S
C814 C815 1.391 . S
C814 C818 1.397 . S
C815 C810 1.391 . S
C815 C814 1.391 . S
C815 C816 1.399 . S
C816 C815 1.399 . S
C816 C817 1.396 . S
C816 C819 1.453 . S
C816 C820 1.684 . S
C817 C807 1.723 . S
C817 C816 1.396 . S
C817 C818 1.394 . S
C818 C788 1.723 . S
C818 C814 1.397 . S
C818 C817 1.394 . S
C819 H791 0.982 . S
C819 H795 0.979 . S
C819 H796 0.977 . S
C819 C816 1.453 . S
C820 H792 0.979 . S
C820 H793 0.980 . S
C820 H794 0.983 . S
C820 C816 1.684 . S
H821 C839 0.948 . S
H822 C780 0.948 . S
H823 C798 0.979 1_556 S
H824 C798 0.980 . S
H825 C798 0.983 . S
H826 C797 0.982 . S
H827 C797 0.979 . S
H828 C797 0.977 . S
H829 C799 0.948 . S
H830 C801 0.947 . S
H831 C802 0.948 . S
H832 C808 0.982 . S
H833 C808 0.979 . S
H834 C808 0.977 . S
H835 C809 0.979 . S
H836 C809 0.980 . S
H837 C809 0.983 . S
H838 C782 0.948 . S
C839 C782 1.406 . S
C839 C783 1.419 . S
C839 H821 0.948 . S
C840 C841 1.391 . S
C840 C844 1.391 . S
C840 H882 0.948 . S
C841 C840 1.391 . S
C841 C842 1.391 . S
C842 C841 1.391 . S
C842 H898 0.947 . S
C842 C899 1.392 . S
C843 C844 1.391 . S
C843 C847 1.397 . S
C843 C899 1.419 . S
C844 C840 1.391 . S
C844 C843 1.391 . S
C844 C845 1.399 . S
C845 C844 1.399 . S
C845 C848 1.396 . S
C845 C857 1.453 . S
C845 C858 1.684 . S
H846 C870 0.948 . S
C847 C843 1.397 . S
C847 C848 1.394 . S
C847 C866 1.723 . S
C848 C845 1.396 . S
C848 C847 1.394 . S
C848 C878 1.723 . S
H849 C872 0.947 . S
H850 C873 0.948 . S
H851 C879 0.982 . S
H852 C880 0.979 . S
H853 C880 0.980 . S
H854 C880 0.983 . S
H855 C879 0.979 . S
H856 C879 0.977 . S
C857 C845 1.453 . S
C857 H886 0.982 . S
C857 H887 0.979 . S
C857 H888 0.977 . S
C858 C845 1.684 . S
C858 H883 0.979 . S
C858 H884 0.980 . S
C858 H885 0.983 . S
C859 C860 1.391 . S
C859 C864 1.391 . S
C859 H889 0.948 . S
C860 C859 1.391 . S
C860 C861 1.391 . S
C861 C860 1.391 . S
C861 C862 1.392 . S
C861 H890 0.947 . S
C862 C861 1.392 . S
C862 C863 1.419 . S
C862 H891 0.948 . S
C863 C862 1.419 . S
C863 C864 1.391 . S
C863 C867 1.397 . S
C864 C859 1.391 . S
C864 C863 1.391 . S
C864 C865 1.399 . S
C865 C864 1.399 . S
C865 C866 1.396 . S
C865 C868 1.453 . S
C865 C869 1.684 . S
C866 C847 1.723 . S
C866 C865 1.396 . S
C866 C867 1.394 . S
C867 C863 1.397 . S
C867 C866 1.394 . S
C867 C877 1.723 . S
C868 C865 1.453 . S
C868 H892 0.982 . S
C868 H893 0.979 . S
C868 H894 0.977 . S
C869 C865 1.684 . S
C869 H895 0.979 . S
C869 H896 0.980 . S
C869 H897 0.983 . S
C870 H846 0.948 . S
C870 C871 1.391 . S
C870 C875 1.391 . S
C871 C870 1.391 . S
C871 C872 1.391 . S
C872 H849 0.947 . S
C872 C871 1.391 . S
C872 C873 1.392 . S
C873 H850 0.948 . S
C873 C872 1.392 . S
C873 C874 1.419 . S
C874 C873 1.419 . S
C874 C875 1.391 . S
C874 C878 1.397 . S
C875 C870 1.391 . S
C875 C874 1.391 . S
C875 C876 1.399 . S
C876 C875 1.399 . S
C876 C877 1.396 . S
C876 C879 1.453 . S
C876 C880 1.684 . S
C877 C867 1.723 . S
C877 C876 1.396 . S
C877 C878 1.394 . S
C878 C848 1.723 . S
C878 C874 1.397 . S
C878 C877 1.394 . S
C879 H851 0.982 . S
C879 H855 0.979 . S
C879 H856 0.977 . S
C879 C876 1.453 . S
C880 H852 0.979 . S
C880 H853 0.980 . S
C880 H854 0.983 . S
C880 C876 1.684 . S
H881 C899 0.948 . S
H882 C840 0.948 . S
H883 C858 0.979 . S
H884 C858 0.980 . S
H885 C858 0.983 . S
H886 C857 0.982 . S
H887 C857 0.979 . S
H888 C857 0.977 . S
H889 C859 0.948 . S
H890 C861 0.947 . S
H891 C862 0.948 . S
H892 C868 0.982 . S
H893 C868 0.979 . S
H894 C868 0.977 . S
H895 C869 0.979 . S
H896 C869 0.980 . S
H897 C869 0.983 . S
H898 C842 0.947 . S
C899 C842 1.392 . S
C899 C843 1.419 . S
C899 H881 0.948 . S
C900 C901 1.391 1_545 S
C900 C904 1.391 . S
C900 H942 0.948 . S
C901 C900 1.391 1_565 S
C901 C902 1.391 . S
C902 C901 1.391 . S
C902 H958 0.947 . S
C902 C959 1.392 . S
C903 C904 1.391 . S
C903 C907 1.397 . S
C903 C959 1.419 1_545 S
C904 C900 1.391 . S
C904 C903 1.391 . S
C904 C905 1.399 . S
C905 C904 1.399 . S
C905 C908 1.396 . S
C905 C917 1.453 . S
C905 C918 1.684 1_556 S
H906 C930 0.940 1_556 S
C907 C903 1.397 . S
C907 C908 1.394 . S
C907 C926 1.723 . S
C908 C905 1.396 . S
C908 C907 1.394 . S
C908 C938 1.723 . S
H909 C932 0.947 . S
H910 C933 0.948 . S
H911 C939 0.982 . S
H912 C940 0.979 . S
H913 C940 0.980 . S
H914 C940 0.983 . S
H915 C939 0.979 . S
H916 C939 0.977 . S
C917 C905 1.453 . S
C917 H946 0.982 . S
C917 H947 0.979 1_556 S
C917 H948 0.977 . S
C918 C905 1.684 1_554 S
C918 H943 0.979 . S
C918 H944 0.980 . S
C918 H945 0.983 . S
C919 C920 1.391 . S
C919 C924 1.391 . S
C919 H949 0.948 . S
C920 C919 1.391 . S
C920 C921 1.391 . S
C921 C920 1.391 . S
C921 C922 1.392 . S
C921 H950 0.947 . S
C922 C921 1.392 . S
C922 C923 1.419 . S
C922 H951 0.948 . S
C923 C922 1.419 . S
C923 C924 1.391 . S
C923 C927 1.397 . S
C924 C919 1.391 . S
C924 C923 1.391 . S
C924 C925 1.399 . S
C925 C924 1.399 . S
C925 C926 1.396 . S
C925 C928 1.453 . S
C925 C929 1.684 1_545 S
C926 C907 1.723 . S
C926 C925 1.396 . S
C926 C927 1.394 . S
C927 C923 1.397 . S
C927 C926 1.394 . S
C927 C937 1.723 . S
C928 C925 1.453 . S
C928 H952 0.982 . S
C928 H953 0.979 . S
C928 H954 0.977 . S
C929 C925 1.684 1_565 S
C929 H955 0.979 . S
C929 H956 0.980 . S
C929 H957 0.983 . S
C930 H906 0.940 1_554 S
C930 C931 1.421 . S
C930 C935 1.371 1_554 S
C931 C930 1.421 . S
C931 C932 1.391 . S
C932 H909 0.947 . S
C932 C931 1.391 . S
C932 C933 1.392 . S
C933 H910 0.948 . S
C933 C932 1.392 . S
C933 C934 1.419 1_554 S
C934 C933 1.419 1_556 S
C934 C935 1.391 . S
C934 C938 1.397 . S
C935 C930 1.371 1_556 S
C935 C934 1.391 . S
C935 C936 1.399 . S
C936 C935 1.399 . S
C936 C937 1.396 . S
C936 C939 1.453 . S
C936 C940 1.684 . S
C937 C927 1.723 . S
C937 C936 1.396 . S
C937 C938 1.394 . S
C938 C908 1.723 . S
C938 C934 1.397 . S
C938 C937 1.394 . S
C939 H911 0.982 . S
C939 H915 0.979 . S
C939 H916 0.977 . S
C939 C936 1.453 . S
C940 H912 0.979 . S
C940 H913 0.980 . S
C940 H914 0.983 . S
C940 C936 1.684 . S
H941 C959 0.948 . S
H942 C900 0.948 . S
H943 C918 0.979 . S
H944 C918 0.980 . S
H945 C918 0.983 . S
H946 C917 0.982 . S
H947 C917 0.979 1_554 S
H948 C917 0.977 . S
H949 C919 0.948 . S
H950 C921 0.947 . S
H951 C922 0.948 . S
H952 C928 0.982 . S
H953 C928 0.979 . S
H954 C928 0.977 . S
H955 C929 0.979 . S
H956 C929 0.980 . S
H957 C929 0.983 . S
H958 C902 0.947 . S
C959 C902 1.392 . S
C959 C903 1.419 1_565 S
C959 H941 0.948 . S
Zn960 O963 2.024 1_556 S
Zn960 O965 2.055 . S
Zn960 O970 2.077 . S
Zn961 O962 1.962 . S
Zn961 O964 1.986 . S
Zn961 O966 1.996 . S
Zn961 O969 1.943 1_554 S
O962 Zn961 1.962 . S
O962 C967 1.254 . S
O963 Zn960 2.024 1_554 S
O963 C967 1.269 . S
O964 Zn961 1.986 . S
O964 C971 1.262 . S
O965 Zn960 2.055 . S
O965 C973 1.260 . S
O966 Zn961 1.996 . S
O966 C973 1.257 1_554 S
C967 O962 1.254 . S
C967 O963 1.269 . S
C968 O969 1.249 . S
C968 O970 1.270 . S
O969 Zn961 1.943 1_556 S
O969 C968 1.249 . S
O970 Zn960 2.077 . S
O970 C968 1.270 . S
C971 O964 1.262 . S
C971 O972 1.232 . S
O972 C971 1.232 . S
C973 O965 1.260 . S
C973 O966 1.257 1_556 S
Zn974 O977 2.031 . S
Zn974 O979 2.049 . S
Zn974 O984 2.067 . S
Zn975 O976 1.962 . S
Zn975 O978 1.986 . S
Zn975 O980 1.996 . S
Zn975 O983 1.943 . S
O976 Zn975 1.962 . S
O976 C981 1.254 . S
O977 Zn974 2.031 . S
O977 C981 1.269 . S
O978 Zn975 1.986 . S
O978 C985 1.262 . S
O979 Zn974 2.049 . S
O979 C987 1.260 . S
O980 Zn975 1.996 . S
O980 C987 1.257 . S
C981 O976 1.254 . S
C981 O977 1.269 . S
C982 O983 1.249 . S
C982 O984 1.270 . S
O983 Zn975 1.943 . S
O983 C982 1.249 . S
O984 Zn974 2.067 . S
O984 C982 1.270 . S
C985 O978 1.262 . S
C985 O986 1.232 . S
O986 C985 1.232 . S
C987 O979 1.260 . S
C987 O980 1.257 . S
Zn988 O991 2.031 . S
Zn988 O993 2.049 . S
Zn988 O998 2.067 . S
Zn989 O990 1.962 . S
Zn989 O992 1.986 . S
Zn989 O994 1.996 1_554 S
Zn989 O997 1.943 . S
O990 Zn989 1.962 . S
O990 C995 1.254 . S
O991 Zn988 2.031 . S
O991 C995 1.269 1_556 S
O992 Zn989 1.986 . S
O992 C999 1.262 . S
O993 Zn988 2.049 . S
O993 C1001 1.260 . S
O994 Zn989 1.996 1_556 S
O994 C1001 1.257 . S
C995 O990 1.254 . S
C995 O991 1.269 1_554 S
C996 O997 1.249 1_556 S
C996 O998 1.270 . S
O997 Zn989 1.943 . S
O997 C996 1.249 1_554 S
O998 Zn988 2.067 . S
O998 C996 1.270 . S
C999 O992 1.262 . S
C999 O1000 1.232 . S
O1000 C999 1.232 . S
C1001 O993 1.260 . S
C1001 O994 1.257 . S
Zn1002 O1005 2.024 1_565 S
Zn1002 O1007 2.055 . S
Zn1002 O1012 2.077 . S
Zn1003 O1004 1.962 . S
Zn1003 O1006 1.986 . S
Zn1003 O1008 1.996 . S
Zn1003 O1011 1.943 1_545 S
O1004 Zn1003 1.962 . S
O1004 C1009 1.254 . S
O1005 Zn1002 2.024 1_545 S
O1005 C1009 1.269 . S
O1006 Zn1003 1.986 . S
O1006 C1013 1.262 . S
O1007 Zn1002 2.055 . S
O1007 C1015 1.260 . S
O1008 Zn1003 1.996 . S
O1008 C1015 1.257 1_545 S
C1009 O1004 1.254 . S
C1009 O1005 1.269 . S
C1010 O1011 1.249 . S
C1010 O1012 1.270 . S
O1011 Zn1003 1.943 1_565 S
O1011 C1010 1.249 . S
O1012 Zn1002 2.077 . S
O1012 C1010 1.270 . S
C1013 O1006 1.262 . S
C1013 O1014 1.232 . S
O1014 C1013 1.232 . S
C1015 O1007 1.260 . S
C1015 O1008 1.257 1_565 S
Zn1016 O1019 2.031 . S
Zn1016 O1021 2.049 . S
Zn1016 O1026 2.067 . S
Zn1017 O1018 1.962 . S
Zn1017 O1020 1.986 . S
Zn1017 O1022 1.996 . S
Zn1017 O1025 1.943 . S
O1018 Zn1017 1.962 . S
O1018 C1023 1.254 . S
O1019 Zn1016 2.031 . S
O1019 C1023 1.269 . S
O1020 Zn1017 1.986 . S
O1020 C1027 1.262 . S
O1021 Zn1016 2.049 . S
O1021 C1029 1.260 . S
O1022 Zn1017 1.996 . S
O1022 C1029 1.257 . S
C1023 O1018 1.254 . S
C1023 O1019 1.269 . S
C1024 O1025 1.249 . S
C1024 O1026 1.270 . S
O1025 Zn1017 1.943 . S
O1025 C1024 1.249 . S
O1026 Zn1016 2.067 . S
O1026 C1024 1.270 . S
C1027 O1020 1.262 . S
C1027 O1028 1.232 . S
O1028 C1027 1.232 . S
C1029 O1021 1.260 . S
C1029 O1022 1.257 . S
Zn1030 O1033 2.031 . S
Zn1030 O1035 2.049 . S
Zn1030 O1040 2.067 . S
Zn1031 O1032 1.962 . S
Zn1031 O1034 1.986 . S
Zn1031 O1036 1.996 . S
Zn1031 O1039 1.943 . S
O1032 Zn1031 1.962 . S
O1032 C1037 1.254 . S
O1033 Zn1030 2.031 . S
O1033 C1037 1.269 . S
O1034 Zn1031 1.986 . S
O1034 C1041 1.262 . S
O1035 Zn1030 2.049 . S
O1035 C1043 1.260 . S
O1036 Zn1031 1.996 . S
O1036 C1043 1.257 . S
C1037 O1032 1.254 . S
C1037 O1033 1.269 . S
C1038 O1039 1.249 . S
C1038 O1040 1.270 . S
O1039 Zn1031 1.943 . S
O1039 C1038 1.249 . S
O1040 Zn1030 2.067 . S
O1040 C1038 1.270 . S
C1041 O1034 1.262 . S
C1041 O1042 1.232 . S
O1042 C1041 1.232 . S
C1043 O1035 1.260 . S
C1043 O1036 1.257 . S
Zn1044 O1047 2.031 . S
Zn1044 O1049 2.049 . S
Zn1044 O1054 2.067 . S
Zn1045 O1046 1.962 . S
Zn1045 O1048 1.986 . S
Zn1045 O1050 1.996 . S
Zn1045 O1053 1.943 . S
O1046 Zn1045 1.962 . S
O1046 C1051 1.254 . S
O1047 Zn1044 2.031 . S
O1047 C1051 1.269 . S
O1048 Zn1045 1.986 . S
O1048 C1055 1.262 . S
O1049 Zn1044 2.049 . S
O1049 C1057 1.260 . S
O1050 Zn1045 1.996 . S
O1050 C1057 1.257 . S
C1051 O1046 1.254 . S
C1051 O1047 1.269 . S
C1052 O1053 1.249 . S
C1052 O1054 1.270 . S
O1053 Zn1045 1.943 . S
O1053 C1052 1.249 . S
O1054 Zn1044 2.067 . S
O1054 C1052 1.270 . S
C1055 O1048 1.262 . S
C1055 O1056 1.232 . S
O1056 C1055 1.232 . S
C1057 O1049 1.260 . S
C1057 O1050 1.257 . S
Zn1058 O1061 2.031 . S
Zn1058 O1063 2.049 . S
Zn1058 O1068 2.067 . S
Zn1059 O1060 1.962 . S
Zn1059 O1062 1.986 . S
Zn1059 O1064 1.996 1_545 S
Zn1059 O1067 1.943 . S
O1060 Zn1059 1.962 . S
O1060 C1065 1.254 . S
O1061 Zn1058 2.031 . S
O1061 C1065 1.269 1_565 S
O1062 Zn1059 1.986 . S
O1062 C1069 1.262 . S
O1063 Zn1058 2.049 . S
O1063 C1071 1.260 . S
O1064 Zn1059 1.996 1_565 S
O1064 C1071 1.257 . S
C1065 O1060 1.254 . S
C1065 O1061 1.269 1_545 S
C1066 O1067 1.249 1_565 S
C1066 O1068 1.270 . S
O1067 Zn1059 1.943 . S
O1067 C1066 1.249 1_545 S
O1068 Zn1058 2.067 . S
O1068 C1066 1.270 . S
C1069 O1062 1.262 . S
C1069 O1070 1.232 . S
O1070 C1069 1.232 . S
C1071 O1063 1.260 . S
C1071 O1064 1.257 . S
Zn1072 O1075 2.024 1_655 S
Zn1072 O1077 2.055 . S
Zn1072 O1082 2.077 . S
Zn1073 O1074 1.962 . S
Zn1073 O1076 1.986 . S
Zn1073 O1078 1.996 . S
Zn1073 O1081 1.943 1_455 S
O1074 Zn1073 1.962 . S
O1074 C1079 1.254 . S
O1075 Zn1072 2.024 1_455 S
O1075 C1079 1.269 . S
O1076 Zn1073 1.986 . S
O1076 C1083 1.262 . S
O1077 Zn1072 2.055 . S
O1077 C1085 1.260 . S
O1078 Zn1073 1.996 . S
O1078 C1085 1.257 1_455 S
C1079 O1074 1.254 . S
C1079 O1075 1.269 . S
C1080 O1081 1.249 . S
C1080 O1082 1.270 . S
O1081 Zn1073 1.943 1_655 S
O1081 C1080 1.249 . S
O1082 Zn1072 2.077 . S
O1082 C1080 1.270 . S
C1083 O1076 1.262 . S
C1083 O1084 1.232 . S
O1084 C1083 1.232 . S
C1085 O1077 1.260 . S
C1085 O1078 1.257 1_655 S
Zn1086 O1089 2.031 . S
Zn1086 O1091 2.049 . S
Zn1086 O1096 2.067 . S
Zn1087 O1088 1.962 . S
Zn1087 O1090 1.986 . S
Zn1087 O1092 1.996 . S
Zn1087 O1095 1.943 . S
O1088 Zn1087 1.962 . S
O1088 C1093 1.254 . S
O1089 Zn1086 2.031 . S
O1089 C1093 1.269 . S
O1090 Zn1087 1.986 . S
O1090 C1097 1.262 . S
O1091 Zn1086 2.049 . S
O1091 C1099 1.260 . S
O1092 Zn1087 1.996 . S
O1092 C1099 1.257 . S
C1093 O1088 1.254 . S
C1093 O1089 1.269 . S
C1094 O1095 1.249 . S
C1094 O1096 1.270 . S
O1095 Zn1087 1.943 . S
O1095 C1094 1.249 . S
O1096 Zn1086 2.067 . S
O1096 C1094 1.270 . S
C1097 O1090 1.262 . S
C1097 O1098 1.232 . S
O1098 C1097 1.232 . S
C1099 O1091 1.260 . S
C1099 O1092 1.257 . S
Zn1100 O1103 2.031 . S
Zn1100 O1105 2.049 . S
Zn1100 O1110 2.067 . S
Zn1101 O1102 1.962 . S
Zn1101 O1104 1.986 . S
Zn1101 O1106 1.996 1_455 S
Zn1101 O1109 1.943 . S
O1102 Zn1101 1.962 . S
O1102 C1107 1.254 . S
O1103 Zn1100 2.031 . S
O1103 C1107 1.269 1_655 S
O1104 Zn1101 1.986 . S
O1104 C1111 1.262 . S
O1105 Zn1100 2.049 . S
O1105 C1113 1.260 . S
O1106 Zn1101 1.996 1_655 S
O1106 C1113 1.257 . S
C1107 O1102 1.254 . S
C1107 O1103 1.269 1_455 S
C1108 O1109 1.249 1_655 S
C1108 O1110 1.270 . S
O1109 Zn1101 1.943 . S
O1109 C1108 1.249 1_455 S
O1110 Zn1100 2.067 . S
O1110 C1108 1.270 . S
C1111 O1104 1.262 . S
C1111 O1112 1.232 . S
O1112 C1111 1.232 . S
C1113 O1105 1.260 . S
C1113 O1106 1.257 . S
Zn1114 O1117 2.031 . S
Zn1114 O1119 2.049 . S
Zn1114 O1124 2.067 . S
Zn1115 O1116 1.962 . S
Zn1115 O1118 1.986 . S
Zn1115 O1120 1.996 . S
Zn1115 O1123 1.943 . S
O1116 Zn1115 1.962 . S
O1116 C1121 1.254 . S
O1117 Zn1114 2.031 . S
O1117 C1121 1.269 . S
O1118 Zn1115 1.986 . S
O1118 C1125 1.262 . S
O1119 Zn1114 2.049 . S
O1119 C1127 1.260 . S
O1120 Zn1115 1.996 . S
O1120 C1127 1.257 . S
C1121 O1116 1.254 . S
C1121 O1117 1.269 . S
C1122 O1123 1.249 . S
C1122 O1124 1.270 . S
O1123 Zn1115 1.943 . S
O1123 C1122 1.249 . S
O1124 Zn1114 2.067 . S
O1124 C1122 1.270 . S
C1125 O1118 1.262 . S
C1125 O1126 1.232 . S
O1126 C1125 1.232 . S
C1127 O1119 1.260 . S
C1127 O1120 1.257 . S
C1128 C1129 1.387 . S
C1128 H1132 0.950 . S
C1128 C1137 1.390 . S
C1129 C1128 1.387 . S
C1129 C1131 1.387 . S
H1130 C1137 0.950 . S
C1131 C1129 1.387 . S
C1131 C1133 1.390 . S
C1131 H1135 0.950 . S
H1132 C1128 0.950 . S
C1133 C1131 1.390 . S
C1133 C1134 1.387 . S
C1133 H1136 0.950 . S
C1134 C1133 1.387 . S
C1134 C1137 1.387 . S
H1135 C1131 0.950 . S
H1136 C1133 0.950 . S
C1137 C1128 1.390 . S
C1137 H1130 0.950 . S
C1137 C1134 1.387 . S
C1138 C1139 1.387 . S
C1138 H1142 0.950 . S
C1138 C1147 1.390 . S
C1139 C1138 1.387 . S
C1139 C1141 1.387 . S
H1140 C1147 0.950 . S
C1141 C1139 1.387 . S
C1141 C1143 1.390 . S
C1141 H1145 0.950 . S
H1142 C1138 0.950 . S
C1143 C1141 1.390 . S
C1143 C1144 1.387 . S
C1143 H1146 0.950 . S
C1144 C1143 1.387 . S
C1144 C1147 1.387 . S
H1145 C1141 0.950 . S
H1146 C1143 0.950 . S
C1147 C1138 1.390 . S
C1147 H1140 0.950 . S
C1147 C1144 1.387 . S
C1148 C1149 1.387 . S
C1148 H1152 0.950 . S
C1148 C1157 1.390 . S
C1149 C1148 1.387 . S
C1149 C1151 1.387 . S
H1150 C1157 0.950 . S
C1151 C1149 1.387 . S
C1151 C1153 1.390 . S
C1151 H1155 0.950 . S
H1152 C1148 0.950 . S
C1153 C1151 1.390 . S
C1153 C1154 1.387 . S
C1153 H1156 0.950 . S
C1154 C1153 1.387 . S
C1154 C1157 1.387 . S
H1155 C1151 0.950 . S
H1156 C1153 0.950 . S
C1157 C1148 1.390 . S
C1157 H1150 0.950 . S
C1157 C1154 1.387 . S
C1158 C1159 1.387 . S
C1158 H1162 0.950 1_565 S
C1158 C1167 1.390 1_565 S
C1159 C1158 1.387 . S
C1159 C1161 1.387 . S
H1160 C1167 0.950 . S
C1161 C1159 1.387 . S
C1161 C1163 1.390 . S
C1161 H1165 0.950 . S
H1162 C1158 0.950 1_545 S
C1163 C1161 1.390 . S
C1163 C1164 1.387 . S
C1163 H1166 0.950 . S
C1164 C1163 1.387 . S
C1164 C1167 1.387 1_565 S
H1165 C1161 0.950 . S
H1166 C1163 0.950 . S
C1167 C1158 1.390 1_545 S
C1167 H1160 0.950 . S
C1167 C1164 1.387 1_545 S
C1168 C1169 1.387 . S
C1168 H1172 0.950 . S
C1168 C1177 1.390 . S
C1169 C1168 1.387 . S
C1169 C1171 1.387 . S
H1170 C1177 0.950 . S
C1171 C1169 1.387 . S
C1171 C1173 1.390 . S
C1171 H1175 0.950 . S
H1172 C1168 0.950 . S
C1173 C1171 1.390 . S
C1173 C1174 1.387 . S
C1173 H1176 0.950 . S
C1174 C1173 1.387 . S
C1174 C1177 1.387 . S
H1175 C1171 0.950 . S
H1176 C1173 0.950 . S
C1177 C1168 1.390 . S
C1177 H1170 0.950 . S
C1177 C1174 1.387 . S
C1178 C1179 1.387 . S
C1178 H1182 0.950 . S
C1178 C1187 1.390 . S
C1179 C1178 1.387 . S
C1179 C1181 1.387 . S
H1180 C1187 0.950 . S
C1181 C1179 1.387 . S
C1181 C1183 1.390 . S
C1181 H1185 0.950 . S
H1182 C1178 0.950 . S
C1183 C1181 1.390 . S
C1183 C1184 1.387 . S
C1183 H1186 0.950 . S
C1184 C1183 1.387 . S
C1184 C1187 1.387 . S
H1185 C1181 0.950 . S
H1186 C1183 0.950 . S
C1187 C1178 1.390 . S
C1187 H1180 0.950 . S
C1187 C1184 1.387 . S
C1188 C1189 1.387 . S
C1188 H1192 0.950 . S
C1188 C1197 1.390 . S
C1189 C1188 1.387 . S
C1189 C1191 1.387 . S
H1190 C1197 0.950 . S
C1191 C1189 1.387 . S
C1191 C1193 1.390 . S
C1191 H1195 0.950 . S
H1192 C1188 0.950 . S
C1193 C1191 1.390 . S
C1193 C1194 1.387 . S
C1193 H1196 0.950 . S
C1194 C1193 1.387 . S
C1194 C1197 1.387 . S
H1195 C1191 0.950 . S
H1196 C1193 0.950 . S
C1197 C1188 1.390 . S
C1197 H1190 0.950 . S
C1197 C1194 1.387 . S
C1198 C1199 1.387 . S
C1198 H1202 0.950 . S
C1198 C1207 1.390 . S
C1199 C1198 1.387 . S
C1199 C1201 1.387 1_565 S
H1200 C1207 0.950 . S
C1201 C1199 1.387 1_545 S
C1201 C1203 1.390 . S
C1201 H1205 0.950 . S
H1202 C1198 0.950 . S
C1203 C1201 1.390 . S
C1203 C1204 1.387 1_545 S
C1203 H1206 0.950 . S
C1204 C1203 1.387 1_565 S
C1204 C1207 1.387 . S
H1205 C1201 0.950 . S
H1206 C1203 0.950 . S
C1207 C1198 1.390 . S
C1207 H1200 0.950 . S
C1207 C1204 1.387 . S
C1208 C1209 1.387 . S
C1208 H1212 0.950 . S
C1208 C1217 1.390 . S
C1209 C1208 1.387 . S
C1209 C1211 1.387 . S
H1210 C1217 0.950 . S
C1211 C1209 1.387 . S
C1211 C1213 1.390 . S
C1211 H1215 0.950 . S
H1212 C1208 0.950 . S
C1213 C1211 1.390 . S
C1213 C1214 1.387 . S
C1213 H1216 0.950 . S
C1214 C1213 1.387 . S
C1214 C1217 1.387 . S
H1215 C1211 0.950 . S
H1216 C1213 0.950 . S
C1217 C1208 1.390 . S
C1217 H1210 0.950 . S
C1217 C1214 1.387 . S
C1218 C1219 1.387 . S
C1218 H1222 0.950 . S
C1218 C1227 1.390 . S
C1219 C1218 1.387 . S
C1219 C1221 1.387 . S
H1220 C1227 0.950 . S
C1221 C1219 1.387 . S
C1221 C1223 1.390 . S
C1221 H1225 0.950 . S
H1222 C1218 0.950 . S
C1223 C1221 1.390 . S
C1223 C1224 1.387 . S
C1223 H1226 0.950 . S
C1224 C1223 1.387 . S
C1224 C1227 1.387 . S
H1225 C1221 0.950 . S
H1226 C1223 0.950 . S
C1227 C1218 1.390 . S
C1227 H1220 0.950 . S
C1227 C1224 1.387 . S
C1228 C1229 1.387 . S
C1228 H1232 0.950 . S
C1228 C1237 1.390 . S
C1229 C1228 1.387 . S
C1229 C1231 1.387 . S
H1230 C1237 0.950 . S
C1231 C1229 1.387 . S
C1231 C1233 1.390 . S
C1231 H1235 0.950 . S
H1232 C1228 0.950 . S
C1233 C1231 1.390 . S
C1233 C1234 1.387 . S
C1233 H1236 0.950 . S
C1234 C1233 1.387 . S
C1234 C1237 1.387 . S
H1235 C1231 0.950 . S
H1236 C1233 0.950 . S
C1237 C1228 1.390 . S
C1237 H1230 0.950 . S
C1237 C1234 1.387 . S
C1238 C1239 1.387 . S
C1238 H1242 0.950 . S
C1238 C1247 1.390 . S
C1239 C1238 1.387 . S
C1239 C1241 1.387 . S
H1240 C1247 0.950 . S
C1241 C1239 1.387 . S
C1241 C1243 1.390 . S
C1241 H1245 0.950 . S
H1242 C1238 0.950 . S
C1243 C1241 1.390 . S
C1243 C1244 1.387 . S
C1243 H1246 0.950 . S
C1244 C1243 1.387 . S
C1244 C1247 1.387 . S
H1245 C1241 0.950 . S
H1246 C1243 0.950 . S
C1247 C1238 1.390 . S
C1247 H1240 0.950 . S
C1247 C1244 1.387 . S
C1248 C1249 1.387 . S
C1248 H1252 0.950 . S
C1248 C1257 1.390 . S
C1249 C1248 1.387 . S
C1249 C1251 1.387 . S
H1250 C1257 0.950 . S
C1251 C1249 1.387 . S
C1251 C1253 1.390 . S
C1251 H1255 0.950 . S
H1252 C1248 0.950 . S
C1253 C1251 1.390 . S
C1253 C1254 1.387 . S
C1253 H1256 0.950 . S
C1254 C1253 1.387 . S
C1254 C1257 1.387 . S
H1255 C1251 0.950 . S
H1256 C1253 0.950 . S
C1257 C1248 1.390 . S
C1257 H1250 0.950 . S
C1257 C1254 1.387 . S
C1258 C1259 1.387 . S
C1258 H1262 0.950 . S
C1258 C1267 1.390 . S
C1259 C1258 1.387 . S
C1259 C1261 1.387 . S
H1260 C1267 0.950 . S
C1261 C1259 1.387 . S
C1261 C1263 1.390 . S
C1261 H1265 0.950 . S
H1262 C1258 0.950 . S
C1263 C1261 1.390 . S
C1263 C1264 1.387 . S
C1263 H1266 0.950 . S
C1264 C1263 1.387 . S
C1264 C1267 1.387 . S
H1265 C1261 0.950 . S
H1266 C1263 0.950 . S
C1267 C1258 1.390 . S
C1267 H1260 0.950 . S
C1267 C1264 1.387 . S
C1268 C1269 1.387 . S
C1268 H1272 0.950 . S
C1268 C1277 1.390 . S
C1269 C1268 1.387 . S
C1269 C1271 1.387 . S
H1270 C1277 0.950 . S
C1271 C1269 1.387 . S
C1271 C1273 1.390 . S
C1271 H1275 0.950 . S
H1272 C1268 0.950 . S
C1273 C1271 1.390 . S
C1273 C1274 1.387 . S
C1273 H1276 0.950 . S
C1274 C1273 1.387 . S
C1274 C1277 1.387 . S
H1275 C1271 0.950 . S
H1276 C1273 0.950 . S
C1277 C1268 1.390 . S
C1277 H1270 0.950 . S
C1277 C1274 1.387 . S
C1278 C1279 1.387 . S
C1278 H1282 0.950 . S
C1278 C1287 1.390 . S
C1279 C1278 1.387 . S
C1279 C1281 1.387 . S
H1280 C1287 0.950 . S
C1281 C1279 1.387 . S
C1281 C1283 1.390 . S
C1281 H1285 0.950 . S
H1282 C1278 0.950 . S
C1283 C1281 1.390 . S
C1283 C1284 1.387 . S
C1283 H1286 0.950 . S
C1284 C1283 1.387 . S
C1284 C1287 1.387 . S
H1285 C1281 0.950 . S
H1286 C1283 0.950 . S
C1287 C1278 1.390 . S
C1287 H1280 0.950 . S
C1287 C1284 1.387 . S
C1288 C1289 1.387 . S
C1288 H1292 0.950 . S
C1288 C1297 1.390 . S
C1289 C1288 1.387 . S
C1289 C1291 1.387 . S
H1290 C1297 0.950 . S
C1291 C1289 1.387 . S
C1291 C1293 1.390 . S
C1291 H1295 0.950 . S
H1292 C1288 0.950 . S
C1293 C1291 1.390 . S
C1293 C1294 1.387 . S
C1293 H1296 0.950 . S
C1294 C1293 1.387 . S
C1294 C1297 1.387 . S
H1295 C1291 0.950 . S
H1296 C1293 0.950 . S
C1297 C1288 1.390 . S
C1297 H1290 0.950 . S
C1297 C1294 1.387 . S
C1298 C1299 1.387 . S
C1298 H1302 0.950 . S
C1298 C1307 1.390 . S
C1299 C1298 1.387 . S
C1299 C1301 1.387 . S
H1300 C1307 0.950 . S
C1301 C1299 1.387 . S
C1301 C1303 1.390 . S
C1301 H1305 0.950 . S
H1302 C1298 0.950 . S
C1303 C1301 1.390 . S
C1303 C1304 1.387 . S
C1303 H1306 0.950 . S
C1304 C1303 1.387 . S
C1304 C1307 1.387 . S
H1305 C1301 0.950 . S
H1306 C1303 0.950 . S
C1307 C1298 1.390 . S
C1307 H1300 0.950 . S
C1307 C1304 1.387 . S
C1308 C1309 1.387 . S
C1308 H1312 0.950 1_556 S
C1308 C1317 1.390 1_556 S
C1309 C1308 1.387 . S
C1309 C1311 1.387 . S
H1310 C1317 0.950 . S
C1311 C1309 1.387 . S
C1311 C1313 1.390 . S
C1311 H1315 0.950 . S
H1312 C1308 0.950 1_554 S
C1313 C1311 1.390 . S
C1313 C1314 1.387 . S
C1313 H1316 0.950 . S
C1314 C1313 1.387 . S
C1314 C1317 1.387 1_556 S
H1315 C1311 0.950 . S
H1316 C1313 0.950 . S
C1317 C1308 1.390 1_554 S
C1317 H1310 0.950 . S
C1317 C1314 1.387 1_554 S
C1318 C1319 1.387 . S
C1318 H1322 0.950 . S
C1318 C1327 1.390 . S
C1319 C1318 1.387 . S
C1319 C1321 1.387 . S
H1320 C1327 0.950 . S
C1321 C1319 1.387 . S
C1321 C1323 1.390 . S
C1321 H1325 0.950 . S
H1322 C1318 0.950 . S
C1323 C1321 1.390 . S
C1323 C1324 1.387 . S
C1323 H1326 0.950 . S
C1324 C1323 1.387 . S
C1324 C1327 1.387 . S
H1325 C1321 0.950 . S
H1326 C1323 0.950 . S
C1327 C1318 1.390 . S
C1327 H1320 0.950 . S
C1327 C1324 1.387 . S
C1328 C1329 1.387 . S
C1328 H1332 0.950 . S
C1328 C1337 1.390 . S
C1329 C1328 1.387 . S
C1329 C1331 1.387 . S
H1330 C1337 0.950 . S
C1331 C1329 1.387 . S
C1331 C1333 1.390 . S
C1331 H1335 0.950 . S
H1332 C1328 0.950 . S
C1333 C1331 1.390 . S
C1333 C1334 1.387 . S
C1333 H1336 0.950 . S
C1334 C1333 1.387 . S
C1334 C1337 1.387 . S
H1335 C1331 0.950 . S
H1336 C1333 0.950 . S
C1337 C1328 1.390 . S
C1337 H1330 0.950 . S
C1337 C1334 1.387 . S
C1338 C1339 1.387 . S
C1338 H1342 0.950 . S
C1338 C1347 1.390 . S
C1339 C1338 1.387 . S
C1339 C1341 1.387 . S
H1340 C1347 0.950 . S
C1341 C1339 1.387 . S
C1341 C1343 1.390 . S
C1341 H1345 0.950 . S
H1342 C1338 0.950 . S
C1343 C1341 1.390 . S
C1343 C1344 1.387 . S
C1343 H1346 0.950 . S
C1344 C1343 1.387 . S
C1344 C1347 1.387 . S
H1345 C1341 0.950 . S
H1346 C1343 0.950 . S
C1347 C1338 1.390 . S
C1347 H1340 0.950 . S
C1347 C1344 1.387 . S
C1348 C1349 1.387 . S
C1348 H1352 0.950 . S
C1348 C1357 1.390 . S
C1349 C1348 1.387 . S
C1349 C1351 1.387 . S
H1350 C1357 0.950 . S
C1351 C1349 1.387 . S
C1351 C1353 1.390 . S
C1351 H1355 0.950 . S
H1352 C1348 0.950 . S
C1353 C1351 1.390 . S
C1353 C1354 1.387 . S
C1353 H1356 0.950 . S
C1354 C1353 1.387 . S
C1354 C1357 1.387 . S
H1355 C1351 0.950 . S
H1356 C1353 0.950 . S
C1357 C1348 1.390 . S
C1357 H1350 0.950 . S
C1357 C1354 1.387 . S
C1358 C1359 1.387 . S
C1358 H1362 0.950 . S
C1358 C1367 1.390 . S
C1359 C1358 1.387 . S
C1359 C1361 1.387 . S
H1360 C1367 0.950 . S
C1361 C1359 1.387 . S
C1361 C1363 1.390 . S
C1361 H1365 0.950 . S
H1362 C1358 0.950 . S
C1363 C1361 1.390 . S
C1363 C1364 1.387 . S
C1363 H1366 0.950 . S
C1364 C1363 1.387 . S
C1364 C1367 1.387 . S
H1365 C1361 0.950 . S
H1366 C1363 0.950 . S
C1367 C1358 1.390 . S
C1367 H1360 0.950 . S
C1367 C1364 1.387 . S
C1368 C1369 1.387 . S
C1368 H1372 0.950 . S
C1368 C1377 1.390 . S
C1369 C1368 1.387 . S
C1369 C1371 1.387 . S
H1370 C1377 0.950 . S
C1371 C1369 1.387 . S
C1371 C1373 1.390 . S
C1371 H1375 0.950 . S
H1372 C1368 0.950 . S
C1373 C1371 1.390 . S
C1373 C1374 1.387 . S
C1373 H1376 0.950 . S
C1374 C1373 1.387 . S
C1374 C1377 1.387 . S
H1375 C1371 0.950 . S
H1376 C1373 0.950 . S
C1377 C1368 1.390 . S
C1377 H1370 0.950 . S
C1377 C1374 1.387 . S
C1378 C1379 1.387 . S
C1378 H1382 0.950 . S
C1378 C1387 1.390 . S
C1379 C1378 1.387 . S
C1379 C1381 1.387 . S
H1380 C1387 0.950 . S
C1381 C1379 1.387 . S
C1381 C1383 1.390 . S
C1381 H1385 0.938 1_545 S
H1382 C1378 0.950 . S
C1383 C1381 1.390 . S
C1383 C1384 1.387 . S
C1383 H1386 0.950 1_545 S
C1384 C1383 1.387 . S
C1384 C1387 1.387 . S
H1385 C1381 0.938 1_565 S
H1386 C1383 0.950 1_565 S
C1387 C1378 1.390 . S
C1387 H1380 0.950 . S
C1387 C1384 1.387 . S
C1388 C1389 1.387 . S
C1388 H1392 0.950 . S
C1388 C1397 1.390 . S
C1389 C1388 1.387 . S
C1389 C1391 1.387 . S
H1390 C1397 0.950 . S
C1391 C1389 1.387 . S
C1391 C1393 1.390 . S
C1391 H1395 0.950 . S
H1392 C1388 0.950 . S
C1393 C1391 1.390 . S
C1393 C1394 1.387 . S
C1393 H1396 0.950 . S
C1394 C1393 1.387 . S
C1394 C1397 1.387 . S
H1395 C1391 0.950 . S
H1396 C1393 0.950 . S
C1397 C1388 1.390 . S
C1397 H1390 0.950 . S
C1397 C1394 1.387 . S
C1398 C1399 1.387 . S
C1398 H1402 0.950 . S
C1398 C1407 1.390 . S
C1399 C1398 1.387 . S
C1399 C1401 1.387 . S
H1400 C1407 0.950 . S
C1401 C1399 1.387 . S
C1401 C1403 1.390 . S
C1401 H1405 0.950 . S
H1402 C1398 0.950 . S
C1403 C1401 1.390 . S
C1403 C1404 1.387 . S
C1403 H1406 0.950 . S
C1404 C1403 1.387 . S
C1404 C1407 1.387 . S
H1405 C1401 0.950 . S
H1406 C1403 0.950 . S
C1407 C1398 1.390 . S
C1407 H1400 0.950 . S
C1407 C1404 1.387 . S
C1408 C1409 1.387 . S
C1408 H1412 0.950 . S
C1408 C1417 1.390 . S
C1409 C1408 1.387 . S
C1409 C1411 1.387 . S
H1410 C1417 0.950 . S
C1411 C1409 1.387 . S
C1411 C1413 1.390 . S
C1411 H1415 0.950 . S
H1412 C1408 0.950 . S
C1413 C1411 1.390 . S
C1413 C1414 1.387 . S
C1413 H1416 0.950 . S
C1414 C1413 1.387 . S
C1414 C1417 1.387 . S
H1415 C1411 0.950 . S
H1416 C1413 0.950 . S
C1417 C1408 1.390 . S
C1417 H1410 0.950 . S
C1417 C1414 1.387 . S
C1418 C1419 1.387 . S
C1418 H1422 0.950 . S
C1418 C1427 1.390 . S
C1419 C1418 1.387 . S
C1419 C1421 1.387 1_545 S
H1420 C1427 0.950 . S
C1421 C1419 1.387 1_565 S
C1421 C1423 1.390 . S
C1421 H1425 0.950 . S
H1422 C1418 0.950 . S
C1423 C1421 1.390 . S
C1423 C1424 1.387 1_565 S
C1423 H1426 0.950 . S
C1424 C1423 1.387 1_545 S
C1424 C1427 1.387 . S
H1425 C1421 0.950 . S
H1426 C1423 0.950 . S
C1427 C1418 1.390 . S
C1427 H1420 0.950 . S
C1427 C1424 1.387 . S
C1428 C1429 1.387 . S
C1428 H1432 0.950 . S
C1428 C1437 1.390 . S
C1429 C1428 1.387 . S
C1429 C1431 1.387 . S
H1430 C1437 0.950 . S
C1431 C1429 1.387 . S
C1431 C1433 1.390 . S
C1431 H1435 0.950 . S
H1432 C1428 0.950 . S
C1433 C1431 1.390 . S
C1433 C1434 1.387 . S
C1433 H1436 0.950 . S
C1434 C1433 1.387 . S
C1434 C1437 1.387 . S
H1435 C1431 0.950 . S
H1436 C1433 0.950 . S
C1437 C1428 1.390 . S
C1437 H1430 0.950 . S
C1437 C1434 1.387 . S
C1438 C1439 1.387 . S
C1438 H1442 0.950 . S
C1438 C1447 1.390 . S
C1439 C1438 1.387 . S
C1439 C1441 1.387 . S
H1440 C1447 0.950 . S
C1441 C1439 1.387 . S
C1441 C1443 1.390 . S
C1441 H1445 0.950 . S
H1442 C1438 0.950 . S
C1443 C1441 1.390 . S
C1443 C1444 1.387 . S
C1443 H1446 0.950 . S
C1444 C1443 1.387 . S
C1444 C1447 1.387 . S
H1445 C1441 0.950 . S
H1446 C1443 0.950 . S
C1447 C1438 1.390 . S
C1447 H1440 0.950 . S
C1447 C1444 1.387 . S
C1448 C1449 1.387 . S
C1448 H1452 0.950 . S
C1448 C1457 1.390 . S
C1449 C1448 1.387 . S
C1449 C1451 1.387 . S
H1450 C1457 0.950 . S
C1451 C1449 1.387 . S
C1451 C1453 1.390 . S
C1451 H1455 0.950 . S
H1452 C1448 0.950 . S
C1453 C1451 1.390 . S
C1453 C1454 1.387 . S
C1453 H1456 0.950 . S
C1454 C1453 1.387 . S
C1454 C1457 1.387 . S
H1455 C1451 0.950 . S
H1456 C1453 0.950 . S
C1457 C1448 1.390 . S
C1457 H1450 0.950 . S
C1457 C1454 1.387 . S
C1458 C1459 1.387 . S
C1458 H1462 0.950 . S
C1458 C1467 1.390 . S
C1459 C1458 1.387 . S
C1459 C1461 1.387 . S
H1460 C1467 0.950 . S
C1461 C1459 1.387 . S
C1461 C1463 1.390 . S
C1461 H1465 0.950 . S
H1462 C1458 0.950 . S
C1463 C1461 1.390 . S
C1463 C1464 1.387 . S
C1463 H1466 0.961 . S
C1464 C1463 1.387 . S
C1464 C1467 1.387 . S
H1465 C1461 0.950 . S
H1466 C1463 0.961 . S
C1467 C1458 1.390 . S
C1467 H1460 0.950 . S
C1467 C1464 1.387 . S
C1468 C1469 1.387 . S
C1468 H1472 0.950 . S
C1468 C1477 1.390 . S
C1469 C1468 1.387 . S
C1469 C1471 1.387 . S
H1470 C1477 0.950 . S
C1471 C1469 1.387 . S
C1471 C1473 1.390 . S
C1471 H1475 0.950 . S
H1472 C1468 0.950 . S
C1473 C1471 1.390 . S
C1473 C1474 1.387 . S
C1473 H1476 0.950 . S
C1474 C1473 1.387 . S
C1474 C1477 1.387 . S
H1475 C1471 0.950 . S
H1476 C1473 0.950 . S
C1477 C1468 1.390 . S
C1477 H1470 0.950 . S
C1477 C1474 1.387 . S
C1478 C1479 1.387 . S
C1478 H1482 0.950 . S
C1478 C1487 1.390 . S
C1479 C1478 1.387 . S
C1479 C1481 1.387 . S
H1480 C1487 0.950 1_655 S
C1481 C1479 1.387 . S
C1481 C1483 1.390 . S
C1481 H1485 0.950 . S
H1482 C1478 0.950 . S
C1483 C1481 1.390 . S
C1483 C1484 1.387 . S
C1483 H1486 0.950 . S
C1484 C1483 1.387 . S
C1484 C1487 1.387 . S
H1485 C1481 0.950 . S
H1486 C1483 0.950 . S
C1487 C1478 1.390 . S
C1487 H1480 0.950 1_455 S
C1487 C1484 1.387 . S
C1488 C1489 1.387 . S
C1488 H1492 0.950 . S
C1488 C1497 1.390 . S
C1489 C1488 1.387 . S
C1489 C1491 1.387 . S
H1490 C1497 0.950 . S
C1491 C1489 1.387 . S
C1491 C1493 1.390 . S
C1491 H1495 0.950 . S
H1492 C1488 0.950 . S
C1493 C1491 1.390 . S
C1493 C1494 1.387 . S
C1493 H1496 0.950 . S
C1494 C1493 1.387 . S
C1494 C1497 1.387 . S
H1495 C1491 0.950 . S
H1496 C1493 0.950 . S
C1497 C1488 1.390 . S
C1497 H1490 0.950 . S
C1497 C1494 1.387 . S
C1498 C1499 1.387 . S
C1498 H1502 0.950 . S
C1498 C1507 1.390 . S
C1499 C1498 1.387 . S
C1499 C1501 1.387 . S
H1500 C1507 0.950 . S
C1501 C1499 1.387 . S
C1501 C1503 1.390 . S
C1501 H1505 0.950 . S
H1502 C1498 0.950 . S
C1503 C1501 1.390 . S
C1503 C1504 1.387 . S
C1503 H1506 0.950 . S
C1504 C1503 1.387 . S
C1504 C1507 1.387 . S
H1505 C1501 0.950 . S
H1506 C1503 0.950 . S
C1507 C1498 1.390 . S
C1507 H1500 0.950 . S
C1507 C1504 1.387 . S
C1508 C1509 1.387 . S
C1508 H1512 0.950 . S
C1508 C1517 1.390 . S
C1509 C1508 1.387 . S
C1509 C1511 1.387 . S
H1510 C1517 0.950 . S
C1511 C1509 1.387 . S
C1511 C1513 1.390 . S
C1511 H1515 0.950 . S
H1512 C1508 0.950 . S
C1513 C1511 1.390 . S
C1513 C1514 1.387 . S
C1513 H1516 0.950 . S
C1514 C1513 1.387 . S
C1514 C1517 1.387 . S
H1515 C1511 0.950 . S
H1516 C1513 0.950 . S
C1517 C1508 1.390 . S
C1517 H1510 0.950 . S
C1517 C1514 1.387 . S
C1518 C1519 1.387 . S
C1518 H1522 0.950 . S
C1518 C1527 1.390 . S
C1519 C1518 1.387 . S
C1519 C1521 1.387 . S
H1520 C1527 0.950 . S
C1521 C1519 1.387 . S
C1521 C1523 1.390 . S
C1521 H1525 0.950 . S
H1522 C1518 0.950 . S
C1523 C1521 1.390 . S
C1523 C1524 1.387 . S
C1523 H1526 0.950 . S
C1524 C1523 1.387 . S
C1524 C1527 1.387 . S
H1525 C1521 0.950 . S
H1526 C1523 0.950 . S
C1527 C1518 1.390 . S
C1527 H1520 0.950 . S
C1527 C1524 1.387 . S
C1528 C1529 1.387 . S
C1528 H1532 0.950 . S
C1528 C1537 1.390 . S
C1529 C1528 1.387 . S
C1529 C1531 1.387 . S
H1530 C1537 0.950 . S
C1531 C1529 1.387 . S
C1531 C1533 1.390 . S
C1531 H1535 0.950 . S
H1532 C1528 0.950 . S
C1533 C1531 1.390 . S
C1533 C1534 1.387 . S
C1533 H1536 0.950 . S
C1534 C1533 1.387 . S
C1534 C1537 1.387 . S
H1535 C1531 0.950 . S
H1536 C1533 0.950 . S
C1537 C1528 1.390 . S
C1537 H1530 0.950 . S
C1537 C1534 1.387 . S
C1538 C1539 1.387 . S
C1538 H1542 0.950 . S
C1538 C1547 1.390 . S
C1539 C1538 1.387 . S
C1539 C1541 1.387 . S
H1540 C1547 0.950 . S
C1541 C1539 1.387 . S
C1541 C1543 1.390 . S
C1541 H1545 0.950 . S
H1542 C1538 0.950 . S
C1543 C1541 1.390 . S
C1543 C1544 1.387 . S
C1543 H1546 0.950 . S
C1544 C1543 1.387 . S
C1544 C1547 1.387 . S
H1545 C1541 0.950 . S
H1546 C1543 0.950 . S
C1547 C1538 1.390 . S
C1547 H1540 0.950 . S
C1547 C1544 1.387 . S
C1548 C1549 1.387 . S
C1548 H1552 0.950 . S
C1548 C1557 1.390 . S
C1549 C1548 1.387 . S
C1549 C1551 1.387 . S
H1550 C1557 0.950 . S
C1551 C1549 1.387 . S
C1551 C1553 1.390 . S
C1551 H1555 0.950 . S
H1552 C1548 0.950 . S
C1553 C1551 1.390 . S
C1553 C1554 1.387 . S
C1553 H1556 0.950 . S
C1554 C1553 1.387 . S
C1554 C1557 1.387 . S
H1555 C1551 0.950 . S
H1556 C1553 0.950 . S
C1557 C1548 1.390 . S
C1557 H1550 0.950 . S
C1557 C1554 1.387 . S
C1558 C1559 1.387 . S
C1558 H1562 0.950 . S
C1558 C1567 1.390 . S
C1559 C1558 1.387 . S
C1559 C1561 1.387 . S
H1560 C1567 0.950 . S
C1561 C1559 1.387 . S
C1561 C1563 1.390 . S
C1561 H1565 0.950 . S
H1562 C1558 0.950 . S
C1563 C1561 1.390 . S
C1563 C1564 1.387 . S
C1563 H1566 0.950 . S
C1564 C1563 1.387 . S
C1564 C1567 1.387 . S
H1565 C1561 0.950 . S
H1566 C1563 0.950 . S
C1567 C1558 1.390 . S
C1567 H1560 0.950 . S
C1567 C1564 1.387 . S
C1568 C1569 1.387 1_554 S
C1568 H1572 0.950 . S
C1568 C1577 1.390 . S
C1569 C1568 1.387 1_556 S
C1569 C1571 1.387 . S
H1570 C1577 0.950 . S
C1571 C1569 1.387 . S
C1571 C1573 1.390 . S
C1571 H1575 0.950 . S
H1572 C1568 0.950 . S
C1573 C1571 1.390 . S
C1573 C1574 1.387 . S
C1573 H1576 0.950 . S
C1574 C1573 1.387 . S
C1574 C1577 1.387 1_556 S
H1575 C1571 0.950 . S
H1576 C1573 0.950 . S
C1577 C1568 1.390 . S
C1577 H1570 0.950 . S
C1577 C1574 1.387 1_554 S
C1578 C1579 1.387 . S
C1578 H1582 0.950 . S
C1578 C1587 1.390 . S
C1579 C1578 1.387 . S
C1579 C1581 1.387 . S
H1580 C1587 0.950 . S
C1581 C1579 1.387 . S
C1581 C1583 1.390 . S
C1581 H1585 0.950 . S
H1582 C1578 0.950 . S
C1583 C1581 1.390 . S
C1583 C1584 1.387 . S
C1583 H1586 0.950 . S
C1584 C1583 1.387 . S
C1584 C1587 1.387 . S
H1585 C1581 0.950 . S
H1586 C1583 0.950 . S
C1587 C1578 1.390 . S
C1587 H1580 0.950 . S
C1587 C1584 1.387 . S
C1588 C1589 1.387 . S
C1588 H1592 0.950 1_554 S
C1588 C1597 1.390 . S
C1589 C1588 1.387 . S
C1589 C1591 1.387 . S
H1590 C1597 0.950 1_556 S
C1591 C1589 1.387 . S
C1591 C1593 1.390 . S
C1591 H1595 0.950 . S
H1592 C1588 0.950 1_556 S
C1593 C1591 1.390 . S
C1593 C1594 1.387 . S
C1593 H1596 0.950 . S
C1594 C1593 1.387 . S
C1594 C1597 1.387 . S
H1595 C1591 0.950 . S
H1596 C1593 0.950 . S
C1597 C1588 1.390 . S
C1597 H1590 0.950 1_554 S
C1597 C1594 1.387 . S
C1598 C1599 1.387 1_556 S
C1598 H1602 0.950 . S
C1598 C1607 1.390 . S
C1599 C1598 1.387 1_554 S
C1599 C1601 1.387 . S
H1600 C1607 0.950 . S
C1601 C1599 1.387 . S
C1601 C1603 1.390 . S
C1601 H1605 0.950 . S
H1602 C1598 0.950 . S
C1603 C1601 1.390 . S
C1603 C1604 1.387 . S
C1603 H1606 0.950 . S
C1604 C1603 1.387 . S
C1604 C1607 1.387 1_554 S
H1605 C1601 0.950 . S
H1606 C1603 0.950 . S
C1607 C1598 1.390 . S
C1607 H1600 0.950 . S
C1607 C1604 1.387 1_556 S
C1134 C968 1.491 . S
C1129 C331 1.491 . S
C1144 C981 1.493 . S
C1139 C380 1.465 . S
C1149 C421 1.634 . S
C1154 C1001 1.521 . S
C1164 C1015 1.401 . S
C1159 C260 1.444 . S
C1174 C1027 1.509 . S
C1169 C620 1.481 . S
C1184 C1041 1.443 . S
C1179 C740 1.430 . S
C1189 C680 1.477 . S
C1194 C1051 1.481 . S
C1204 C1066 1.514 . S
C1199 C571 1.503 . S
C1209 C691 1.491 . S
C1214 C1080 1.491 . S
C1224 C1099 1.399 . S
C1219 C541 1.428 . S
C1229 C601 1.461 . S
C1234 C1079 1.481 . S
C1244 C1097 1.443 . S
C1239 C721 1.430 . S
C1249 C451 1.634 . S
C1254 C1113 1.521 . S
C1259 C241 1.480 . S
C1264 C1107 1.492 . S
C1269 C320 1.481 . S
C1274 C1111 1.510 . S
C1279 C391 1.501 . S
C1284 C1108 1.515 . S
C1289 C211 1.492 . S
C1294 C1010 1.490 . S
C1299 C841 1.461 . S
C1304 C1009 1.482 . S
C1314 C973 1.401 . S
C1309 C901 1.427 . S
C1324 C987 1.517 . S
C1319 C500 1.633 . S
C1329 C271 1.539 . S
C1334 C1024 1.514 . S
C1344 C1069 1.509 . S
C1339 C661 1.496 . S
C1354 C1023 1.493 . S
C1349 C560 1.465 . S
C1364 C1055 1.442 . S
C1359 C751 1.429 . S
C1374 C1052 1.490 . S
C1369 C871 1.493 . S
C1379 C920 1.465 . S
C1384 C1065 1.493 . S
C1389 C481 1.634 . S
C1394 C1029 1.521 . S
C1404 C1043 1.397 . S
C1399 C800 1.442 . S
C1409 C200 1.482 . S
C1414 C999 1.509 . S
C1424 C1013 1.442 . S
C1419 C20 1.429 . S
C1434 C967 1.482 . S
C1429 C80 1.476 . S
C1444 C982 1.514 . S
C1439 C151 1.500 . S
C1449 C91 1.491 . S
C1454 C1094 1.490 . S
C1459 C121 1.429 . S
C1464 C1085 1.398 . S
C1469 C181 1.461 . S
C1474 C1093 1.481 . S
C1479 C1 1.429 . S
C1484 C1083 1.442 . S
C1494 C1127 1.517 . S
C1489 C511 1.633 . S
C1504 C1121 1.492 . S
C1499 C781 1.481 . S
C1514 C1125 1.509 . S
C1509 C860 1.482 . S
C1519 C931 1.500 . S
C1524 C1122 1.513 . S
C1529 C631 1.492 . S
C1534 C1038 1.490 . S
C1544 C1037 1.481 . S
C1539 C301 1.460 . S
C1554 C1057 1.401 . S
C1549 C361 1.427 . S
C1564 C1071 1.517 . S
C1559 C440 1.633 . S
C1569 C811 1.540 . S
C1574 C996 1.513 . S
C1584 C985 1.510 . S
C1579 C61 1.496 . S
C1589 C140 1.463 . S
C1594 C995 1.493 . S
C1604 C971 1.443 . S
C1599 C31 1.430 . S
