# Generated by pormake.
# Topology tsx, (6,3)-cn, num edge types: 1
# Building blocks:
#     Node 0, Type 0, BuildingBlock: FUNLAD_clean_sbu_0, # of connection points: 6
#     Node 1, Type 0, BuildingBlock: FUNLAD_clean_sbu_0, # of connection points: 6
#     Node 2, Type 1, BuildingBlock: KAKCAD_clean_linker_0, # of connection points: 3
#     Node 3, Type 1, BuildingBlock: KAKCAD_clean_linker_0, # of connection points: 3
#     Node 4, Type 1, BuildingBlock: KAKCAD_clean_linker_0, # of connection points: 3
#     Node 5, Type 1, BuildingBlock: KAKCAD_clean_linker_0, # of connection points: 3
#     Edge 6, Type (0, 1), BuildingBlock: XUDNAN_clean_linker_2, # of connection points: 2
#     Edge 7, Type (0, 1), BuildingBlock: XUDNAN_clean_linker_2, # of connection points: 2
#     Edge 8, Type (0, 1), BuildingBlock: XUDNAN_clean_linker_2, # of connection points: 2
#     Edge 9, Type (0, 1), BuildingBlock: XUDNAN_clean_linker_2, # of connection points: 2
#     Edge 10, Type (0, 1), BuildingBlock: XUDNAN_clean_linker_2, # of connection points: 2
#     Edge 11, Type (0, 1), BuildingBlock: XUDNAN_clean_linker_2, # of connection points: 2
#     Edge 12, Type (0, 1), BuildingBlock: XUDNAN_clean_linker_2, # of connection points: 2
#     Edge 13, Type (0, 1), BuildingBlock: XUDNAN_clean_linker_2, # of connection points: 2
#     Edge 14, Type (0, 1), BuildingBlock: XUDNAN_clean_linker_2, # of connection points: 2
#     Edge 15, Type (0, 1), BuildingBlock: XUDNAN_clean_linker_2, # of connection points: 2
#     Edge 16, Type (0, 1), BuildingBlock: XUDNAN_clean_linker_2, # of connection points: 2
#     Edge 17, Type (0, 1), BuildingBlock: XUDNAN_clean_linker_2, # of connection points: 2
# Relax obj value: 0.164
# Max RMSD: 0.155
# Mean RMSD: 0.089
data_MOF--net-tsx--node1-FUNLAD_clean_sbu_0--node2-KAKCAD_clean_linker_0--edge1-XUDNAN_clean_linker_2
_symmetry_space_group_name_H-M    P1
_symmetry_Int_Tables_number       1
_symmetry_cell_setting            triclinic
loop_
_symmetry_equiv_pos_as_xyz
'x, y, z'
_cell_length_a     23.243397
_cell_length_b     25.740207
_cell_length_c     50.114334
_cell_angle_alpha  91.355911
_cell_angle_beta   92.063165
_cell_angle_gamma 89.816886
loop_
_atom_site_label
_atom_site_type_symbol
_atom_site_fract_x
_atom_site_fract_y
_atom_site_fract_z
_atom_type_partial_charge
C0 C 0.9391 0.94559 0.00593 0.0
N1 N 0.00661 0.03879 0.06926 0.0
C2 C 0.95758 0.03339 0.08295 0.0
C3 C 0.95942 0.03698 0.11084 0.0
C4 C 0.01226 0.04613 0.12466 0.0
C5 C 0.0621 0.0511 0.10994 0.0
C6 C 0.05826 0.04747 0.08218 0.0
Zn7 Zn 0.00536 0.03479 0.02866 0.0
C8 C 0.10235 0.97008 0.00922 0.0
N9 N 0.00868 0.02772 0.94375 0.0
C10 C 0.95972 0.01932 0.92856 0.0
C11 C 0.06094 0.0306 0.93249 0.0
C12 C 0.06572 0.02317 0.90505 0.0
C13 C 0.01622 0.01318 0.88897 0.0
C14 C 0.9625 0.01221 0.90089 0.0
Zn15 Zn 0.00697 0.03204 0.98436 0.0
O16 O 0.9533 0.96747 0.0282 0.0
C17 C 0.9087 0.09511 0.00473 0.0
O18 O 0.95544 0.96473 0.98435 0.0
H19 H 0.09928 0.03765 0.94488 0.0
H20 H 0.91698 0.02657 0.07223 0.0
H21 H 0.91869 0.01699 0.93798 0.0
O22 O 0.93159 0.08115 0.02679 0.0
O23 O 0.9313 0.08055 0.98297 0.0
H24 H 0.09673 0.05159 0.07093 0.0
O25 O 0.05957 0.09874 0.98463 0.0
O26 O 0.05636 0.10305 0.02837 0.0
O27 O 0.08105 0.98358 0.98673 0.0
O28 O 0.0796 0.98691 0.03038 0.0
C29 C 0.07323 0.12137 0.00669 0.0
H30 H 0.91986 0.03335 0.1214 0.0
H31 H 0.10389 0.05719 0.11975 0.0
H32 H 0.10781 0.02495 0.89651 0.0
H33 H 0.9234 0.00439 0.88908 0.0
C34 C 0.46012 0.40632 0.50288 0.0
N35 N 0.53503 0.50867 0.56093 0.0
C36 C 0.48597 0.50805 0.57494 0.0
C37 C 0.48827 0.51653 0.60261 0.0
C38 C 0.54162 0.5255 0.61604 0.0
C39 C 0.59152 0.52544 0.60101 0.0
C40 C 0.5872 0.51716 0.57341 0.0
Zn41 Zn 0.53169 0.49725 0.52036 0.0
C42 C 0.62456 0.42964 0.50231 0.0
N43 N 0.52508 0.47565 0.43537 0.0
C44 C 0.47585 0.46537 0.42066 0.0
C45 C 0.57714 0.47623 0.42378 0.0
C46 C 0.5815 0.46423 0.39668 0.0
C47 C 0.53175 0.45241 0.38115 0.0
C48 C 0.47817 0.45404 0.39322 0.0
Zn49 Zn 0.52544 0.48718 0.47602 0.0
O50 O 0.47616 0.43247 0.52367 0.0
C51 C 0.43139 0.55317 0.49549 0.0
O52 O 0.47595 0.41974 0.48006 0.0
H53 H 0.61572 0.48515 0.43566 0.0
H54 H 0.44491 0.50125 0.56463 0.0
H55 H 0.43493 0.46501 0.43027 0.0
O56 O 0.45963 0.54541 0.51718 0.0
O57 O 0.44881 0.53308 0.47374 0.0
H58 H 0.62571 0.51749 0.56194 0.0
O59 O 0.57446 0.55513 0.47227 0.0
O60 O 0.58655 0.56218 0.51592 0.0
O61 O 0.60145 0.44069 0.47976 0.0
O62 O 0.60334 0.44827 0.52342 0.0
C63 C 0.59583 0.5787 0.49277 0.0
H64 H 0.44858 0.51684 0.61328 0.0
H65 H 0.6337 0.53123 0.61048 0.0
H66 H 0.62346 0.46403 0.38794 0.0
H67 H 0.43891 0.44509 0.38176 0.0
C68 C 0.99386 0.95613 0.32623 0.0
C69 C 0.00136 0.00812 0.31907 0.0
C70 C 0.98607 0.9436 0.35285 0.0
C71 C 0.9858 0.98279 0.37286 0.0
C72 C 0.99323 0.03472 0.36563 0.0
C73 C 0.00056 0.04724 0.33907 0.0
C74 C 0.97892 0.96994 0.4013 0.0
C75 C 0.00703 0.92679 0.41243 0.0
C76 C 0.00432 0.91704 0.43987 0.0
C77 C 0.9737 0.9515 0.45632 0.0
C78 C 0.94491 0.99414 0.44527 0.0
C79 C 0.94682 0.00269 0.41786 0.0
C80 C 0.91519 0.0323 0.46213 0.0
C81 C 0.85604 0.04051 0.45789 0.0
C82 C 0.94706 0.06579 0.47944 0.0
C83 C 0.92055 0.10898 0.49121 0.0
C84 C 0.86206 0.11927 0.48546 0.0
C85 C 0.03615 0.87238 0.45133 0.0
C86 C 0.03704 0.82431 0.43744 0.0
C87 C 0.06841 0.87826 0.47546 0.0
C88 C 0.10265 0.83756 0.48493 0.0
C89 C 0.10535 0.79024 0.47044 0.0
C90 C 0.07141 0.78368 0.44687 0.0
C91 C 0.82959 0.08352 0.46958 0.0
H92 H 0.99484 0.92498 0.31134 0.0
H93 H 0.98003 0.90327 0.35773 0.0
H94 H 0.99424 0.06585 0.38056 0.0
H95 H 0.00535 0.08774 0.33424 0.0
H96 H 0.03328 0.90206 0.39995 0.0
H97 H 0.92431 0.03593 0.40958 0.0
H98 H 0.97184 0.94512 0.47757 0.0
H99 H 0.83094 0.01496 0.44453 0.0
H100 H 0.993 0.06022 0.4826 0.0
H101 H 0.94654 0.13598 0.50334 0.0
H102 H 0.01173 0.81833 0.41905 0.0
H103 H 0.06912 0.91499 0.48647 0.0
H104 H 0.78419 0.09015 0.46523 0.0
H105 H 0.07199 0.74733 0.43554 0.0
H106 H 0.12888 0.84394 0.50301 0.0
C107 C 0.00172 0.05003 0.68223 0.0
C108 C 0.00696 0.00022 0.69297 0.0
C109 C 0.99611 0.05603 0.65461 0.0
C110 C 0.99503 0.0123 0.63728 0.0
C111 C -0.00061 0.96251 0.64809 0.0
C112 C 0.00544 0.95654 0.67564 0.0
C113 C 0.99086 0.01828 0.60794 0.0
C114 C 0.02616 0.05367 0.59551 0.0
C115 C 0.02501 0.05763 0.56749 0.0
C116 C 0.98833 0.02434 0.55201 0.0
C117 C 0.95377 0.9877 0.56423 0.0
C118 C 0.95419 0.9862 0.59223 0.0
C119 C 0.91971 0.94864 0.54812 0.0
C120 C 0.89014 0.96169 0.52425 0.0
C121 C 0.91609 0.89749 0.55702 0.0
C122 C 0.88169 0.86102 0.54326 0.0
C123 C 0.85126 0.87384 0.51952 0.0
C124 C 0.06513 0.09402 0.55475 0.0
C125 C 0.08228 0.14047 0.56805 0.0
C126 C 0.0896 0.08135 0.53015 0.0
C127 C 0.13159 0.11313 0.51977 0.0
C128 C 0.1518 0.15759 0.53409 0.0
C129 C 0.12568 0.17114 0.5582 0.0
C130 C 0.85683 0.92454 0.50991 0.0
H131 H 0.00319 0.08438 0.69515 0.0
H132 H 0.99256 0.09483 0.64678 0.0
H133 H -0.00073 0.92813 0.63519 0.0
H134 H 0.0089 0.91769 0.6834 0.0
H135 H 0.0565 0.07638 0.6078 0.0
H136 H 0.92626 0.95943 0.60195 0.0
H137 H 0.98767 0.0258 0.53047 0.0
H138 H 0.89153 0.00088 0.51701 0.0
H139 H 0.93933 0.88554 0.57498 0.0
H140 H 0.87786 0.82317 0.55194 0.0
H141 H 0.06331 0.15275 0.58658 0.0
H142 H 0.07813 0.04592 0.51921 0.0
H143 H 0.83495 0.93592 0.49152 0.0
H144 H 0.1398 0.20446 0.57021 0.0
H145 H 0.1489 0.10196 0.50071 0.0
C146 C 0.50324 0.48604 0.82209 0.0
C147 C 0.51669 0.53486 0.81195 0.0
C148 C 0.49299 0.48065 0.84922 0.0
C149 C 0.49623 0.52391 0.86689 0.0
C150 C 0.50938 0.57273 0.85669 0.0
C151 C 0.51915 0.57817 0.82958 0.0
C152 C 0.48721 0.51825 0.89596 0.0
C153 C 0.5092 0.47504 0.90955 0.0
C154 C 0.5034 0.47068 0.93726 0.0
C155 C 0.47567 0.51069 0.95151 0.0
C156 C 0.45382 0.55446 0.93826 0.0
C157 C 0.4588 0.55725 0.91046 0.0
C158 C 0.42696 0.59825 0.95318 0.0
C159 C 0.38847 0.58928 0.9736 0.0
C160 C 0.43829 0.64976 0.94627 0.0
C161 C 0.40968 0.69115 0.95843 0.0
C162 C 0.36941 0.68213 0.97798 0.0
C163 C 0.53003 0.42588 0.95125 0.0
C164 C 0.52775 0.3758 0.93943 0.0
C165 C 0.56191 0.43352 0.97538 0.0
C166 C 0.59318 0.39262 0.98672 0.0
C167 C 0.59366 0.3434 0.97396 0.0
C168 C 0.55945 0.33507 0.95059 0.0
C169 C 0.36 0.63091 0.98592 0.0
H170 H 0.50153 0.45172 0.80917 0.0
H171 H 0.4824 0.44257 0.85633 0.0
H172 H 0.5131 0.60681 0.86972 0.0
H173 H 0.5285 0.61652 0.82246 0.0
H174 H 0.53318 0.44573 0.89872 0.0
H175 H 0.44022 0.59002 0.90002 0.0
H176 H 0.47204 0.50818 0.97294 0.0
H177 H 0.37875 0.55006 0.97935 0.0
H178 H 0.46892 0.65814 0.93117 0.0
H179 H 0.41863 0.7303 0.9523 0.0
H180 H 0.50263 0.36842 0.92112 0.0
H181 H 0.56525 0.47174 0.98472 0.0
H182 H 0.32897 0.62286 0.00089 0.0
H183 H 0.55823 0.29727 0.94061 0.0
H184 H 0.61943 0.4003 0.00467 0.0
C185 C 0.56108 0.48694 0.17722 0.0
C186 C 0.55821 0.43587 0.18636 0.0
C187 C 0.56318 0.49633 0.14993 0.0
C188 C 0.56213 0.4549 0.13114 0.0
C189 C 0.55934 0.40377 0.14026 0.0
C190 C 0.55767 0.39435 0.1676 0.0
C191 C 0.56142 0.46554 0.10211 0.0
C192 C 0.59735 0.5038 0.09222 0.0
C193 C 0.59208 0.51888 0.06539 0.0
C194 C 0.55047 0.49421 0.0484 0.0
C195 C 0.51662 0.45396 0.05765 0.0
C196 C 0.52225 0.43983 0.08449 0.0
C197 C 0.472 0.42885 0.04006 0.0
C198 C 0.42904 0.4589 0.02738 0.0
C199 C 0.46827 0.37448 0.0385 0.0
C200 C 0.41994 0.35054 0.02642 0.0
C201 C 0.37427 0.38066 0.01601 0.0
C202 C 0.62916 0.56082 0.0553 0.0
C203 C 0.64842 0.6019 0.07232 0.0
C204 C 0.64589 0.56015 0.02858 0.0
C205 C 0.68037 0.59957 0.01915 0.0
C206 C 0.70075 0.63999 0.03635 0.0
C207 C 0.68443 0.64032 0.06313 0.0
C208 C 0.38026 0.43496 0.01559 0.0
H209 H 0.56224 0.51971 0.19119 0.0
H210 H 0.56454 0.53619 0.14352 0.0
H211 H 0.55863 0.37106 0.12625 0.0
H212 H 0.55516 0.35458 0.17405 0.0
H213 H 0.62953 0.5216 0.10562 0.0
H214 H 0.49381 0.41064 0.09196 0.0
H215 H 0.54363 0.50655 0.02804 0.0
H216 H 0.43121 0.50095 0.02824 0.0
H217 H 0.50137 0.35061 0.04787 0.0
H218 H 0.41639 0.30864 0.02714 0.0
H219 H 0.63565 0.6048 0.09286 0.0
H220 H 0.63297 0.52891 0.01485 0.0
H221 H 0.34581 0.45898 0.00748 0.0
H222 H 0.69984 0.6699 0.0773 0.0
H223 H 0.69074 0.59816 0.99827 0.0
H224 H 0.17259 0.13871 0.98111 0.0
H225 H 0.05063 0.21085 0.03395 0.0
H226 H 0.10827 0.29164 0.03559 0.0
H227 H 0.29427 0.18695 0.01642 0.0
H228 H 0.33692 0.19549 0.98751 0.0
H229 H 0.28126 0.14708 0.98676 0.0
H230 H 0.23457 0.18842 0.94454 0.0
H231 H 0.29 0.23734 0.94533 0.0
H232 H 0.21529 0.25632 0.94537 0.0
H233 H 0.18108 0.3618 0.0337 0.0
H234 H 0.27128 0.41193 0.03465 0.0
H235 H 0.35061 0.29209 0.98591 0.0
C236 C 0.15768 0.17205 0.99253 0.0
C237 C 0.10706 0.16938 0.00711 0.0
C238 C 0.08932 0.21271 0.02259 0.0
C239 C 0.12143 0.25872 0.02341 0.0
C240 C 0.17151 0.26024 0.00896 0.0
C241 C 0.19015 0.21777 0.99417 0.0
C242 C 0.24937 0.22709 0.98356 0.0
C243 C 0.29301 0.18678 0.99421 0.0
C244 C 0.24715 0.22731 0.95287 0.0
C245 C 0.26171 0.28086 0.99527 0.0
C246 C 0.21546 0.29984 0.00913 0.0
C247 C 0.21738 0.34766 0.0227 0.0
C248 C 0.26868 0.37603 0.02296 0.0
C249 C 0.31765 0.35601 0.01017 0.0
C250 C 0.31356 0.30843 0.99561 0.0
H251 H 0.16161 0.92742 0.96776 0.0
H252 H 0.14914 0.92475 0.05396 0.0
H253 H 0.22029 0.85337 0.05584 0.0
H254 H 0.16912 0.79324 0.95696 0.0
H255 H 0.22 0.79556 0.93071 0.0
H256 H 0.17231 0.84958 0.93637 0.0
H257 H 0.25963 0.91173 0.94201 0.0
H258 H 0.3077 0.85792 0.93615 0.0
H259 H 0.31654 0.89753 0.96615 0.0
H260 H 0.28579 0.77643 0.04773 0.0
H261 H 0.34517 0.70389 0.03034 0.0
H262 H 0.31515 0.75845 0.9498 0.0
C263 C 0.17456 0.91251 0.9871 0.0
C264 C 0.14982 0.93171 0.01071 0.0
C265 C 0.16767 0.91081 0.03559 0.0
C266 C 0.20802 0.8702 0.03687 0.0
C267 C 0.2305 0.8513 0.01314 0.0
C268 C 0.21491 0.87222 0.98876 0.0
C269 C 0.24356 0.84368 0.96607 0.0
C270 C 0.19855 0.81906 0.94638 0.0
C271 C 0.28428 0.87988 0.95176 0.0
C272 C 0.27671 0.80273 0.98142 0.0
C273 C 0.2688 0.80772 0.00855 0.0
C274 C 0.29292 0.77256 0.02655 0.0
C275 C 0.32622 0.73136 0.01652 0.0
C276 C 0.33516 0.72596 0.9888 0.0
C277 C 0.31007 0.76227 0.97115 0.0
H278 H 0.85326 0.9181 0.03859 0.0
H279 H 0.95133 0.8637 0.97139 0.0
H280 H 0.90003 0.77962 0.97123 0.0
H281 H 0.84632 0.79947 0.07272 0.0
H282 H 0.77298 0.8081 0.08251 0.0
H283 H 0.81724 0.86396 0.07729 0.0
H284 H 0.74143 0.89847 0.04282 0.0
H285 H 0.69674 0.84284 0.04806 0.0
H286 H 0.71826 0.85738 0.01486 0.0
H287 H 0.84425 0.69936 0.98114 0.0
H288 H 0.7808 0.63139 0.99701 0.0
H289 H 0.70981 0.74257 0.05383 0.0
C290 C 0.86365 0.88844 0.02383 0.0
C291 C 0.90628 0.89687 0.00511 0.0
C292 C 0.91854 0.85773 0.98583 0.0
C293 C 0.88983 0.80993 0.98565 0.0
C294 C 0.84817 0.80259 0.00449 0.0
C295 C 0.83427 0.84109 0.02288 0.0
C296 C 0.78665 0.82378 0.04043 0.0
C297 C 0.80705 0.82383 0.06998 0.0
C298 C 0.73257 0.85763 0.03628 0.0
C299 C 0.77703 0.76908 0.02948 0.0
C300 C 0.81324 0.75748 0.00893 0.0
C301 C 0.81468 0.70832 0.99681 0.0
C302 C 0.7779 0.67 0.00587 0.0
C303 C 0.73927 0.68121 0.02658 0.0
C304 C 0.7389 0.73187 0.03824 0.0
H305 H 0.85009 0.13854 0.96185 0.0
H306 H 0.84978 0.12751 0.04821 0.0
H307 H 0.76554 0.18551 0.04946 0.0
H308 H 0.814 0.27213 0.95939 0.0
H309 H 0.76851 0.26591 0.92959 0.0
H310 H 0.82675 0.22078 0.9352 0.0
H311 H 0.75513 0.1439 0.93027 0.0
H312 H 0.69658 0.18887 0.92468 0.0
H313 H 0.69346 0.14266 0.95106 0.0
H314 H 0.68505 0.24884 0.04191 0.0
H315 H 0.61318 0.31289 0.02557 0.0
H316 H 0.66509 0.28245 0.94436 0.0
C317 C 0.83195 0.14791 0.98098 0.0
C318 C 0.85665 0.12842 0.0049 0.0
C319 C 0.83177 0.14193 0.02957 0.0
C320 C 0.78374 0.17479 0.03053 0.0
C321 C 0.76077 0.19372 0.00666 0.0
C322 C 0.78384 0.18071 0.98233 0.0
C323 C 0.75209 0.20799 0.95973 0.0
C324 C 0.79277 0.24383 0.94513 0.0
C325 C 0.72256 0.16849 0.94029 0.0
C326 C 0.70831 0.23892 0.97525 0.0
C327 C 0.71386 0.22996 0.00228 0.0
C328 C 0.67988 0.25586 0.02075 0.0
C329 C 0.63941 0.29225 0.01134 0.0
C330 C 0.63329 0.30224 0.98373 0.0
C331 C 0.66794 0.27477 0.96552 0.0
H332 H 0.70724 0.59616 0.50862 0.0
H333 H 0.55814 0.66766 0.47019 0.0
H334 H 0.61149 0.75062 0.46776 0.0
H335 H 0.75301 0.70057 0.54838 0.0
H336 H 0.82897 0.69072 0.54414 0.0
H337 H 0.78047 0.63651 0.54081 0.0
H338 H 0.81694 0.61568 0.49344 0.0
H339 H 0.8657 0.66997 0.49664 0.0
H340 H 0.81474 0.66546 0.46871 0.0
H341 H 0.67621 0.82805 0.47613 0.0
H342 H 0.74864 0.89237 0.49171 0.0
H343 H 0.86127 0.76694 0.51801 0.0
C344 C 0.68641 0.62924 0.49938 0.0
C345 C 0.62891 0.62631 0.48972 0.0
C346 C 0.60245 0.66974 0.47762 0.0
C347 C 0.63238 0.71675 0.47612 0.0
C348 C 0.68915 0.71878 0.48606 0.0
C349 C 0.71629 0.67584 0.49693 0.0
C350 C 0.777 0.68852 0.50672 0.0
C351 C 0.7853 0.6785 0.53679 0.0
C352 C 0.82121 0.6581 0.49039 0.0
C353 C 0.77871 0.74593 0.50101 0.0
C354 C 0.72777 0.76271 0.48905 0.0
C355 C 0.717 0.8152 0.48477 0.0
C356 C 0.75882 0.85155 0.49356 0.0
C357 C 0.81116 0.83522 0.50626 0.0
C358 C 0.82166 0.78135 0.50888 0.0
H359 H 0.66349 0.36593 0.46256 0.0
H360 H 0.69134 0.40636 0.5466 0.0
H361 H 0.76191 0.33482 0.55096 0.0
H362 H 0.66277 0.23321 0.47021 0.0
H363 H 0.69886 0.21724 0.43984 0.0
H364 H 0.65732 0.2761 0.44229 0.0
H365 H 0.7461 0.33036 0.43028 0.0
H366 H 0.78788 0.27152 0.42741 0.0
H367 H 0.81264 0.32366 0.44953 0.0
H368 H 0.82275 0.25347 0.54695 0.0
H369 H 0.8685 0.16945 0.53458 0.0
H370 H 0.79821 0.18288 0.45367 0.0
C371 C 0.68552 0.36066 0.48172 0.0
C372 C 0.67221 0.3918 0.50419 0.0
C373 C 0.70109 0.38298 0.52907 0.0
C374 C 0.7413 0.34253 0.53175 0.0
C375 C 0.75211 0.31145 0.50935 0.0
C376 C 0.72528 0.32032 0.48478 0.0
C377 C 0.74062 0.27901 0.46433 0.0
C378 C 0.68668 0.24967 0.45356 0.0
C379 C 0.7738 0.30255 0.44155 0.0
C380 C 0.77898 0.24473 0.48139 0.0
C381 C 0.78586 0.26427 0.50721 0.0
C382 C 0.8181 0.23803 0.52672 0.0
C383 C 0.8438 0.19046 0.51957 0.0
C384 C 0.83622 0.16962 0.49331 0.0
C385 C 0.80394 0.19754 0.47403 0.0
H386 H 0.36118 0.40305 0.53004 0.0
H387 H 0.47114 0.31087 0.47928 0.0
H388 H 0.40388 0.23661 0.48134 0.0
H389 H 0.31309 0.30142 0.5718 0.0
H390 H 0.24027 0.32548 0.57279 0.0
H391 H 0.29874 0.36989 0.56849 0.0
H392 H 0.24838 0.40276 0.52506 0.0
H393 H 0.18982 0.35835 0.52919 0.0
H394 H 0.22851 0.35679 0.49865 0.0
H395 H 0.32698 0.1717 0.49109 0.0
H396 H 0.24301 0.12247 0.50454 0.0
H397 H 0.17596 0.2622 0.54312 0.0
C398 C 0.37121 0.36692 0.51967 0.0
C399 C 0.42145 0.36184 0.50491 0.0
C400 C 0.43285 0.31486 0.49088 0.0
C401 C 0.39502 0.2727 0.49194 0.0
C402 C 0.34544 0.27893 0.50655 0.0
C403 C 0.33303 0.3251 0.51982 0.0
C404 C 0.27535 0.32268 0.53279 0.0
C405 C 0.28231 0.33031 0.56327 0.0
C406 C 0.23302 0.3625 0.52069 0.0
C407 C 0.25775 0.26761 0.52516 0.0
C408 C 0.29899 0.24287 0.5103 0.0
C409 C 0.29376 0.19095 0.50227 0.0
C410 C 0.24524 0.16342 0.50981 0.0
C411 C 0.20165 0.18807 0.52479 0.0
C412 C 0.20817 0.24132 0.53208 0.0
H413 H 0.36921 0.59537 0.4534 0.0
H414 H 0.3731 0.58127 0.53967 0.0
H415 H 0.28549 0.63468 0.54211 0.0
H416 H 0.32637 0.72722 0.45295 0.0
H417 H 0.2803 0.72083 0.42335 0.0
H418 H 0.34078 0.67775 0.42799 0.0
H419 H 0.27271 0.59835 0.42238 0.0
H420 H 0.21192 0.64128 0.41782 0.0
H421 H 0.21192 0.59347 0.44353 0.0
H422 H 0.20122 0.69318 0.53589 0.0
H423 H 0.12646 0.75571 0.52113 0.0
H424 H 0.17766 0.73345 0.43919 0.0
C425 C 0.35119 0.60306 0.47273 0.0
C426 C 0.37796 0.58416 0.49631 0.0
C427 C 0.35348 0.59551 0.52131 0.0
C428 C 0.3035 0.62558 0.52293 0.0
C429 C 0.27843 0.64403 0.4994 0.0
C430 C 0.30134 0.63338 0.47477 0.0
C431 C 0.26764 0.66062 0.45277 0.0
C432 C 0.30607 0.69887 0.43843 0.0
C433 C 0.23937 0.62106 0.43296 0.0
C434 C 0.22302 0.68887 0.469 0.0
C435 C 0.22969 0.67832 0.49582 0.0
C436 C 0.1952 0.70154 0.51491 0.0
C437 C 0.15313 0.73714 0.50639 0.0
C438 C 0.1462 0.74921 0.47905 0.0
C439 C 0.18121 0.72418 0.46015 0.0
H440 H 0.95537 0.98748 0.16047 0.0
H441 H 0.07747 0.11404 0.15578 0.0
H442 H 0.08804 0.11774 0.2049 0.0
H443 H 0.88508 0.03788 0.21952 0.0
H444 H 0.87507 0.97429 0.23291 0.0
H445 H 0.87664 0.98208 0.19731 0.0
H446 H 0.95887 0.91407 0.1948 0.0
H447 H 0.95792 0.90641 0.23041 0.0
H448 H 0.02386 0.92378 0.21502 0.0
H449 H 0.08833 0.10561 0.25416 0.0
H450 H 0.07498 0.08111 0.30077 0.0
H451 H 0.94868 0.96568 0.27359 0.0
C452 C 0.98368 0.0165 0.16976 0.0
C453 C 0.0159 0.05023 0.15424 0.0
C454 C 0.05311 0.08716 0.16722 0.0
C455 C 0.05918 0.08979 0.19511 0.0
C456 C 0.02741 0.05551 0.20975 0.0
C457 C 0.99004 0.01987 0.19759 0.0
C458 C 0.96114 0.98735 0.21801 0.0
C459 C 0.8956 0.99594 0.21687 0.0
C460 C 0.97638 0.92948 0.21433 0.0
C461 C 0.98851 0.01007 0.24352 0.0
C462 C 0.02666 0.04926 0.23829 0.0
C463 C 0.05807 0.07539 0.25857 0.0
C464 C 0.04992 0.06136 0.28499 0.0
C465 C 0.0104 0.02176 0.29091 0.0
C466 C 0.97952 0.9958 0.26978 0.0
H467 H 0.95238 0.05496 0.84763 0.0
H468 H 0.09185 0.94726 0.86521 0.0
H469 H 0.10308 0.93073 0.81693 0.0
H470 H 0.89074 0.98389 0.78988 0.0
H471 H 0.87361 0.04191 0.77175 0.0
H472 H 0.87495 0.04359 0.80772 0.0
H473 H 0.94854 0.1191 0.80837 0.0
H474 H 0.94762 0.11751 0.77242 0.0
H475 H 0.01482 0.11085 0.79112 0.0
H476 H 0.10021 0.92683 0.76708 0.0
H477 H 0.08501 0.93743 0.71849 0.0
H478 H 0.94826 0.04856 0.73314 0.0
C479 C 0.98479 0.02749 0.84125 0.0
C480 C 0.02129 0.00234 0.86004 0.0
C481 C 0.06382 0.9672 0.85105 0.0
C482 C 0.07032 0.95739 0.82372 0.0
C483 C 0.03406 0.98318 0.80569 0.0
C484 C 0.9922 0.01757 0.81403 0.0
C485 C 0.96021 0.04144 0.79046 0.0
C486 C 0.89608 0.02681 0.78993 0.0
C487 C 0.96831 0.10074 0.79061 0.0
C488 C 0.99089 0.01529 0.76761 0.0
C489 C 0.03303 0.98155 0.77685 0.0
C490 C 0.06722 0.95298 0.75957 0.0
C491 C 0.05813 0.95909 0.73204 0.0
C492 C 0.01544 0.99373 0.72212 0.0
C493 C 0.98149 0.02213 0.7402 0.0
H494 H 0.47915 0.47899 0.65461 0.0
H495 H 0.61255 0.59384 0.64419 0.0
H496 H 0.62132 0.60776 0.69298 0.0
H497 H 0.41064 0.54786 0.70885 0.0
H498 H 0.39384 0.48931 0.72597 0.0
H499 H 0.39853 0.48794 0.69016 0.0
H500 H 0.47447 0.4142 0.69342 0.0
H501 H 0.4703 0.41557 0.72925 0.0
H502 H 0.53876 0.42392 0.71413 0.0
H503 H 0.6172 0.608 0.74285 0.0
H504 H 0.5981 0.5968 0.79041 0.0
H505 H 0.4633 0.48573 0.76829 0.0
C506 C 0.50977 0.50753 0.6625 0.0
C507 C 0.54546 0.53501 0.64545 0.0
C508 C 0.58549 0.5715 0.65677 0.0
C509 C 0.59056 0.57998 0.68448 0.0
C510 C 0.55504 0.55197 0.70065 0.0
C511 C 0.51515 0.51675 0.69011 0.0
C512 C 0.48192 0.492 0.71193 0.0
C513 C 0.41741 0.50508 0.70905 0.0
C514 C 0.49199 0.43292 0.71219 0.0
C515 C 0.50956 0.51869 0.73639 0.0
C516 C 0.55173 0.55301 0.72943 0.0
C517 C 0.58388 0.58161 0.74855 0.0
C518 C 0.5724 0.57521 0.77554 0.0
C519 C 0.52882 0.54071 0.78321 0.0
C520 C 0.49721 0.51208 0.76322 0.0
H521 H 0.47648 0.49544 0.33768 0.0
H522 H 0.59988 0.37652 0.36061 0.0
H523 H 0.61497 0.35505 0.31303 0.0
H524 H 0.41533 0.42773 0.27743 0.0
H525 H 0.40915 0.48671 0.25884 0.0
H526 H 0.40353 0.48894 0.29462 0.0
H527 H 0.48576 0.55674 0.29846 0.0
H528 H 0.49184 0.55451 0.26275 0.0
H529 H 0.55404 0.54163 0.28412 0.0
H530 H 0.6208 0.34985 0.26328 0.0
H531 H 0.61948 0.36324 0.21461 0.0
H532 H 0.49406 0.48706 0.22381 0.0
C533 C 0.5057 0.46419 0.33258 0.0
C534 C 0.53675 0.43727 0.35266 0.0
C535 C 0.57572 0.39745 0.3454 0.0
C536 C 0.58438 0.38491 0.31848 0.0
C537 C 0.55393 0.41275 0.29909 0.0
C538 C 0.51541 0.45161 0.30575 0.0
C539 C 0.49135 0.47802 0.28103 0.0
C540 C 0.42596 0.46984 0.27779 0.0
C541 C 0.50669 0.53616 0.28164 0.0
C542 C 0.52309 0.44853 0.25953 0.0
C543 C 0.55838 0.4106 0.27035 0.0
C544 C 0.59297 0.37914 0.25453 0.0
C545 C 0.59179 0.38689 0.22691 0.0
C546 C 0.55668 0.42613 0.21542 0.0
C547 C 0.52163 0.45698 0.23203 0.0
loop_
_geom_bond_atom_site_label_1
_geom_bond_atom_site_label_2
_geom_bond_distance
_geom_bond_site_symmetry_2
_ccdc_geom_bond_type
C0 O16 1.251 . S
C0 O18 1.254 1_554 S
N1 C2 1.333 1_445 S
N1 C6 1.307 . S
N1 Zn7 2.020 . S
C2 N1 1.333 1_665 S
C2 C3 1.379 . S
C2 H20 0.952 . S
C3 C2 1.379 . S
C3 C4 1.390 1_665 S
C3 H30 0.949 . S
C4 C3 1.390 1_445 S
C4 C5 1.357 . S
C5 C4 1.357 . S
C5 C6 1.370 . S
C5 H31 0.950 . S
C6 N1 1.307 . S
C6 C5 1.370 . S
C6 H24 0.948 . S
Zn7 N1 2.020 . S
Zn7 O16 2.039 1_445 S
Zn7 O22 2.034 1_455 S
Zn7 O26 2.025 . S
Zn7 O28 2.024 1_545 S
C8 O27 1.246 1_554 S
C8 O28 1.249 . S
N9 C10 1.307 1_445 S
N9 C11 1.333 . S
N9 Zn15 2.020 . S
C10 N9 1.307 1_665 S
C10 C14 1.370 . S
C10 H21 0.948 . S
C11 N9 1.333 . S
C11 C12 1.379 . S
C11 H19 0.952 . S
C12 C11 1.379 . S
C12 C13 1.390 . S
C12 H32 0.949 . S
C13 C12 1.390 . S
C13 C14 1.357 1_445 S
C14 C10 1.370 . S
C14 C13 1.357 1_665 S
C14 H33 0.950 . S
Zn15 N9 2.020 . S
Zn15 O18 2.025 1_445 S
Zn15 O23 2.024 1_455 S
Zn15 O25 2.039 . S
Zn15 O27 2.034 1_545 S
O16 C0 1.251 . S
O16 Zn7 2.039 1_665 S
C17 O22 1.246 . S
C17 O23 1.249 1_554 S
O18 C0 1.254 1_556 S
O18 Zn15 2.025 1_665 S
H19 C11 0.952 . S
H20 C2 0.952 . S
H21 C10 0.948 . S
O22 Zn7 2.034 1_655 S
O22 C17 1.246 . S
O23 Zn15 2.024 1_655 S
O23 C17 1.249 1_556 S
H24 C6 0.948 . S
O25 Zn15 2.039 . S
O25 C29 1.251 1_556 S
O26 Zn7 2.025 . S
O26 C29 1.254 . S
O27 C8 1.246 1_556 S
O27 Zn15 2.034 1_565 S
O28 Zn7 2.024 1_565 S
O28 C8 1.249 . S
C29 O25 1.251 1_554 S
C29 O26 1.254 . S
H30 C3 0.949 . S
H31 C5 0.950 . S
H32 C12 0.949 . S
H33 C14 0.950 . S
C34 O50 1.251 . S
C34 O52 1.254 . S
N35 C36 1.333 . S
N35 C40 1.307 . S
N35 Zn41 2.020 . S
C36 N35 1.333 . S
C36 C37 1.379 . S
C36 H54 0.952 . S
C37 C36 1.379 . S
C37 C38 1.390 . S
C37 H64 0.949 . S
C38 C37 1.390 . S
C38 C39 1.357 . S
C39 C38 1.357 . S
C39 C40 1.370 . S
C39 H65 0.950 . S
C40 N35 1.307 . S
C40 C39 1.370 . S
C40 H58 0.948 . S
Zn41 N35 2.020 . S
Zn41 O50 2.039 . S
Zn41 O56 2.034 . S
Zn41 O60 2.025 . S
Zn41 O62 2.024 . S
C42 O61 1.246 . S
C42 O62 1.249 . S
N43 C44 1.307 . S
N43 C45 1.333 . S
N43 Zn49 2.020 . S
C44 N43 1.307 . S
C44 C48 1.370 . S
C44 H55 0.948 . S
C45 N43 1.333 . S
C45 C46 1.379 . S
C45 H53 0.952 . S
C46 C45 1.379 . S
C46 C47 1.390 . S
C46 H66 0.949 . S
C47 C46 1.390 . S
C47 C48 1.357 . S
C48 C44 1.370 . S
C48 C47 1.357 . S
C48 H67 0.950 . S
Zn49 N43 2.020 . S
Zn49 O52 2.025 . S
Zn49 O57 2.024 . S
Zn49 O59 2.039 . S
Zn49 O61 2.034 . S
O50 C34 1.251 . S
O50 Zn41 2.039 . S
C51 O56 1.246 . S
C51 O57 1.249 . S
O52 C34 1.254 . S
O52 Zn49 2.025 . S
H53 C45 0.952 . S
H54 C36 0.952 . S
H55 C44 0.948 . S
O56 Zn41 2.034 . S
O56 C51 1.246 . S
O57 Zn49 2.024 . S
O57 C51 1.249 . S
H58 C40 0.948 . S
O59 Zn49 2.039 . S
O59 C63 1.251 . S
O60 Zn41 2.025 . S
O60 C63 1.254 . S
O61 C42 1.246 . S
O61 Zn49 2.034 . S
O62 Zn41 2.024 . S
O62 C42 1.249 . S
C63 O59 1.251 . S
C63 O60 1.254 . S
H64 C37 0.949 . S
H65 C39 0.950 . S
H66 C46 0.949 . S
H67 C48 0.950 . S
C68 C69 1.386 1_565 S
C68 C70 1.397 . S
C68 H92 0.931 . S
C69 C68 1.386 1_545 S
C69 C73 1.397 1_655 S
C70 C68 1.397 . S
C70 C71 1.385 1_655 S
C70 H93 0.930 . S
C71 C70 1.385 1_455 S
C71 C72 1.378 1_565 S
C71 C74 1.480 . S
C72 C71 1.378 1_545 S
C72 C73 1.389 . S
C72 H94 0.929 . S
C73 C69 1.397 1_455 S
C73 C72 1.389 . S
C73 H95 0.931 . S
C74 C71 1.480 . S
C74 C75 1.388 . S
C74 C79 1.389 1_465 S
C75 C74 1.388 . S
C75 C76 1.401 . S
C75 H96 0.930 . S
C76 C75 1.401 . S
C76 C77 1.370 1_455 S
C76 C85 1.511 . S
C77 C76 1.370 1_655 S
C77 C78 1.398 1_565 S
C77 H98 0.932 . S
C78 C77 1.398 1_545 S
C78 C79 1.361 . S
C78 C80 1.500 . S
C79 C74 1.389 1_645 S
C79 C78 1.361 . S
C79 H97 0.931 . S
C80 C78 1.500 . S
C80 C81 1.371 . S
C80 C82 1.365 . S
C81 C80 1.371 . S
C81 C91 1.386 . S
C81 H99 0.931 . S
C82 C80 1.365 . S
C82 C83 1.409 . S
C82 H100 0.929 . S
C83 C82 1.409 . S
C83 C84 1.380 . S
C83 H101 0.930 . S
C84 C83 1.380 . S
C84 C91 1.357 . S
C85 C76 1.511 . S
C85 C86 1.341 . S
C85 C87 1.371 . S
C86 C85 1.341 . S
C86 C90 1.394 . S
C86 H102 0.930 . S
C87 C85 1.371 . S
C87 C88 1.392 . S
C87 H103 0.931 . S
C88 C87 1.392 . S
C88 C89 1.331 . S
C88 H106 0.932 . S
C89 C88 1.331 . S
C89 C90 1.336 . S
C90 C86 1.394 . S
C90 C89 1.336 . S
C90 H105 0.929 . S
C91 C81 1.386 . S
C91 C84 1.357 . S
C91 H104 0.928 . S
H92 C68 0.931 . S
H93 C70 0.930 . S
H94 C72 0.929 . S
H95 C73 0.931 . S
H96 C75 0.930 . S
H97 C79 0.931 . S
H98 C77 0.932 . S
H99 C81 0.931 . S
H100 C82 0.929 . S
H101 C83 0.930 . S
H102 C86 0.930 . S
H103 C87 0.931 . S
H104 C91 0.928 . S
H105 C90 0.929 . S
H106 C88 0.932 . S
C107 C108 1.386 . S
C107 C109 1.397 . S
C107 H131 0.931 . S
C108 C107 1.386 . S
C108 C112 1.397 1_545 S
C109 C107 1.397 . S
C109 C110 1.384 . S
C109 H132 0.930 . S
C110 C109 1.384 . S
C110 C111 1.377 1_545 S
C110 C113 1.481 . S
C111 C110 1.377 1_565 S
C111 C112 1.389 . S
C111 H133 0.929 . S
C112 C108 1.397 1_565 S
C112 C111 1.389 . S
C112 H134 0.931 . S
C113 C110 1.481 . S
C113 C114 1.387 . S
C113 C118 1.390 1_445 S
C114 C113 1.387 . S
C114 C115 1.401 . S
C114 H135 0.930 . S
C115 C114 1.401 . S
C115 C116 1.376 . S
C115 C124 1.511 . S
C116 C115 1.376 . S
C116 C117 1.392 1_445 S
C116 H137 0.931 . S
C117 C116 1.392 1_665 S
C117 C118 1.361 . S
C117 C119 1.500 . S
C118 C113 1.390 1_665 S
C118 C117 1.361 . S
C118 H136 0.931 . S
C119 C117 1.500 . S
C119 C120 1.371 . S
C119 C121 1.365 . S
C120 C119 1.371 . S
C120 C130 1.386 . S
C120 H138 0.931 . S
C121 C119 1.365 . S
C121 C122 1.409 . S
C121 H139 0.929 . S
C122 C121 1.409 . S
C122 C123 1.380 . S
C122 H140 0.930 . S
C123 C122 1.380 . S
C123 C130 1.357 . S
C124 C115 1.511 . S
C124 C125 1.341 . S
C124 C126 1.371 . S
C125 C124 1.341 . S
C125 C129 1.394 . S
C125 H141 0.930 . S
C126 C124 1.371 . S
C126 C127 1.392 . S
C126 H142 0.931 . S
C127 C126 1.392 . S
C127 C128 1.331 . S
C127 H145 0.932 . S
C128 C127 1.331 . S
C128 C129 1.336 . S
C129 C125 1.394 . S
C129 C128 1.336 . S
C129 H144 0.929 . S
C130 C120 1.386 . S
C130 C123 1.357 . S
C130 H143 0.928 . S
H131 C107 0.931 . S
H132 C109 0.930 . S
H133 C111 0.929 . S
H134 C112 0.931 . S
H135 C114 0.930 . S
H136 C118 0.931 . S
H137 C116 0.931 . S
H138 C120 0.931 . S
H139 C121 0.929 . S
H140 C122 0.930 . S
H141 C125 0.930 . S
H142 C126 0.931 . S
H143 C130 0.928 . S
H144 C129 0.929 . S
H145 C127 0.932 . S
C146 C147 1.386 . S
C146 C148 1.397 . S
C146 H170 0.931 . S
C147 C146 1.386 . S
C147 C151 1.397 . S
C148 C146 1.397 . S
C148 C149 1.384 . S
C148 H171 0.930 . S
C149 C148 1.384 . S
C149 C150 1.377 . S
C149 C152 1.481 . S
C150 C149 1.377 . S
C150 C151 1.389 . S
C150 H172 0.929 . S
C151 C147 1.397 . S
C151 C150 1.389 . S
C151 H173 0.931 . S
C152 C149 1.481 . S
C152 C153 1.387 . S
C152 C157 1.390 . S
C153 C152 1.387 . S
C153 C154 1.401 . S
C153 H174 0.930 . S
C154 C153 1.401 . S
C154 C155 1.376 . S
C154 C163 1.511 . S
C155 C154 1.376 . S
C155 C156 1.392 . S
C155 H176 0.931 . S
C156 C155 1.392 . S
C156 C157 1.361 . S
C156 C158 1.500 . S
C157 C152 1.390 . S
C157 C156 1.361 . S
C157 H175 0.931 . S
C158 C156 1.500 . S
C158 C159 1.371 . S
C158 C160 1.365 . S
C159 C158 1.371 . S
C159 C169 1.386 1_556 S
C159 H177 0.931 . S
C160 C158 1.365 . S
C160 C161 1.409 . S
C160 H178 0.929 . S
C161 C160 1.409 . S
C161 C162 1.380 . S
C161 H179 0.930 . S
C162 C161 1.380 . S
C162 C169 1.357 1_556 S
C163 C154 1.511 . S
C163 C164 1.341 . S
C163 C165 1.371 . S
C164 C163 1.341 . S
C164 C168 1.394 . S
C164 H180 0.930 . S
C165 C163 1.371 . S
C165 C166 1.392 1_556 S
C165 H181 0.931 1_556 S
C166 C165 1.392 1_554 S
C166 C167 1.331 1_554 S
C166 H184 0.932 . S
C167 C166 1.331 1_556 S
C167 C168 1.336 . S
C168 C164 1.394 . S
C168 C167 1.336 . S
C168 H183 0.929 . S
C169 C159 1.386 1_554 S
C169 C162 1.357 1_554 S
C169 H182 0.928 . S
H170 C146 0.931 . S
H171 C148 0.930 . S
H172 C150 0.929 . S
H173 C151 0.931 . S
H174 C153 0.930 . S
H175 C157 0.931 . S
H176 C155 0.931 . S
H177 C159 0.931 . S
H178 C160 0.929 . S
H179 C161 0.930 . S
H180 C164 0.930 . S
H181 C165 0.931 1_554 S
H182 C169 0.928 . S
H183 C168 0.929 . S
H184 C166 0.932 . S
C185 C186 1.386 . S
C185 C187 1.397 . S
C185 H209 0.931 . S
C186 C185 1.386 . S
C186 C190 1.397 . S
C187 C185 1.397 . S
C187 C188 1.384 . S
C187 H210 0.930 . S
C188 C187 1.384 . S
C188 C189 1.377 . S
C188 C191 1.481 . S
C189 C188 1.377 . S
C189 C190 1.389 . S
C189 H211 0.929 . S
C190 C186 1.397 . S
C190 C189 1.389 . S
C190 H212 0.931 . S
C191 C188 1.481 . S
C191 C192 1.387 . S
C191 C196 1.390 . S
C192 C191 1.387 . S
C192 C193 1.401 . S
C192 H213 0.930 . S
C193 C192 1.401 . S
C193 C194 1.376 . S
C193 C202 1.511 . S
C194 C193 1.376 . S
C194 C195 1.392 . S
C194 H215 0.931 . S
C195 C194 1.392 . S
C195 C196 1.361 . S
C195 C197 1.500 . S
C196 C191 1.390 . S
C196 C195 1.361 . S
C196 H214 0.931 . S
C197 C195 1.500 . S
C197 C198 1.371 . S
C197 C199 1.365 . S
C198 C197 1.371 . S
C198 C208 1.401 . S
C198 H216 0.931 . S
C199 C197 1.365 . S
C199 C200 1.409 . S
C199 H217 0.929 . S
C200 C199 1.409 . S
C200 C201 1.380 . S
C200 H218 0.930 . S
C201 C200 1.380 . S
C201 C208 1.371 . S
C202 C193 1.511 . S
C202 C203 1.341 . S
C202 C204 1.371 . S
C203 C202 1.341 . S
C203 C207 1.394 . S
C203 H219 0.930 . S
C204 C202 1.371 . S
C204 C205 1.412 . S
C204 H220 0.931 . S
C205 C204 1.412 . S
C205 C206 1.348 . S
C205 H223 0.895 1_554 S
C206 C205 1.348 . S
C206 C207 1.336 . S
C207 C203 1.394 . S
C207 C206 1.336 . S
C207 H222 0.929 . S
C208 C198 1.401 . S
C208 C201 1.371 . S
C208 H221 0.900 1_554 S
H209 C185 0.931 . S
H210 C187 0.930 . S
H211 C189 0.929 . S
H212 C190 0.931 . S
H213 C192 0.930 . S
H214 C196 0.931 . S
H215 C194 0.931 . S
H216 C198 0.931 . S
H217 C199 0.929 . S
H218 C200 0.930 . S
H219 C203 0.930 . S
H220 C204 0.931 . S
H221 C208 0.900 1_556 S
H222 C207 0.929 . S
H223 C205 0.895 1_556 S
H224 C236 0.930 . S
H225 C238 0.930 . S
H226 C239 0.930 . S
H227 C243 0.959 . S
H228 C243 0.959 . S
H229 C243 0.961 . S
H230 C244 0.960 . S
H231 C244 0.961 . S
H232 C244 0.959 . S
H233 C247 0.929 . S
H234 C248 0.931 . S
H235 C250 0.930 . S
C236 H224 0.930 . S
C236 C237 1.399 1_556 S
C236 C241 1.399 . S
C237 C236 1.399 1_554 S
C237 C238 1.376 . S
C238 H225 0.930 . S
C238 C237 1.376 . S
C238 C239 1.388 . S
C239 H226 0.930 . S
C239 C238 1.388 . S
C239 C240 1.390 . S
C240 C239 1.390 . S
C240 C241 1.394 1_554 S
C240 C246 1.465 . S
C241 C236 1.399 . S
C241 C240 1.394 1_556 S
C241 C242 1.516 . S
C242 C241 1.516 . S
C242 C243 1.502 . S
C242 C244 1.561 . S
C242 C245 1.526 . S
C243 H227 0.959 . S
C243 H228 0.959 . S
C243 H229 0.961 . S
C243 C242 1.502 . S
C244 H230 0.960 . S
C244 H231 0.961 . S
C244 H232 0.959 . S
C244 C242 1.561 . S
C245 C242 1.526 . S
C245 C246 1.396 1_556 S
C245 C250 1.390 . S
C246 C240 1.465 . S
C246 C245 1.396 1_554 S
C246 C247 1.399 . S
C247 H233 0.929 . S
C247 C246 1.399 . S
C247 C248 1.385 . S
C248 H234 0.931 . S
C248 C247 1.385 . S
C248 C249 1.389 . S
C249 C248 1.389 . S
C249 C250 1.387 1_554 S
C250 H235 0.930 . S
C250 C245 1.390 . S
C250 C249 1.387 1_556 S
H251 C263 0.930 . S
H252 C265 0.930 . S
H253 C266 0.930 . S
H254 C270 0.959 . S
H255 C270 0.959 . S
H256 C270 0.961 . S
H257 C271 0.960 . S
H258 C271 0.961 . S
H259 C271 0.959 . S
H260 C274 0.929 . S
H261 C275 0.931 . S
H262 C277 0.930 . S
C263 H251 0.930 . S
C263 C264 1.399 1_556 S
C263 C268 1.399 . S
C264 C263 1.399 1_554 S
C264 C265 1.376 . S
C265 H252 0.930 . S
C265 C264 1.376 . S
C265 C266 1.388 . S
C266 H253 0.930 . S
C266 C265 1.388 . S
C266 C267 1.390 . S
C267 C266 1.390 . S
C267 C268 1.394 1_554 S
C267 C273 1.465 . S
C268 C263 1.399 . S
C268 C267 1.394 1_556 S
C268 C269 1.516 . S
C269 C268 1.516 . S
C269 C270 1.502 . S
C269 C271 1.561 . S
C269 C272 1.526 . S
C270 H254 0.959 . S
C270 H255 0.959 . S
C270 H256 0.961 . S
C270 C269 1.502 . S
C271 H257 0.960 . S
C271 H258 0.961 . S
C271 H259 0.959 . S
C271 C269 1.561 . S
C272 C269 1.526 . S
C272 C273 1.396 1_556 S
C272 C277 1.390 . S
C273 C267 1.465 . S
C273 C272 1.396 1_554 S
C273 C274 1.399 . S
C274 H260 0.929 . S
C274 C273 1.399 . S
C274 C275 1.385 . S
C275 H261 0.931 . S
C275 C274 1.385 . S
C275 C276 1.389 . S
C276 C275 1.389 . S
C276 C277 1.387 1_554 S
C277 H262 0.930 . S
C277 C272 1.390 . S
C277 C276 1.387 1_556 S
H278 C290 0.930 . S
H279 C292 0.930 . S
H280 C293 0.930 . S
H281 C297 0.959 . S
H282 C297 0.959 . S
H283 C297 0.961 . S
H284 C298 0.960 . S
H285 C298 0.961 . S
H286 C298 0.959 . S
H287 C301 0.929 . S
H288 C302 0.931 . S
H289 C304 0.930 . S
C290 H278 0.930 . S
C290 C291 1.399 1_556 S
C290 C295 1.399 . S
C291 C290 1.399 1_554 S
C291 C292 1.376 . S
C292 H279 0.930 . S
C292 C291 1.376 . S
C292 C293 1.388 . S
C293 H280 0.930 . S
C293 C292 1.388 . S
C293 C294 1.390 . S
C294 C293 1.390 . S
C294 C295 1.394 1_554 S
C294 C300 1.465 . S
C295 C290 1.399 . S
C295 C294 1.394 1_556 S
C295 C296 1.516 . S
C296 C295 1.516 . S
C296 C297 1.502 . S
C296 C298 1.561 . S
C296 C299 1.526 . S
C297 H281 0.959 . S
C297 H282 0.959 . S
C297 H283 0.961 . S
C297 C296 1.502 . S
C298 H284 0.960 . S
C298 H285 0.961 . S
C298 H286 0.959 . S
C298 C296 1.561 . S
C299 C296 1.526 . S
C299 C300 1.396 1_556 S
C299 C304 1.390 . S
C300 C294 1.465 . S
C300 C299 1.396 1_554 S
C300 C301 1.399 . S
C301 H287 0.929 . S
C301 C300 1.399 . S
C301 C302 1.385 . S
C302 H288 0.931 . S
C302 C301 1.385 . S
C302 C303 1.389 . S
C303 C302 1.389 . S
C303 C304 1.387 1_554 S
C304 H289 0.930 . S
C304 C299 1.390 . S
C304 C303 1.387 1_556 S
H305 C317 0.930 . S
H306 C319 0.930 . S
H307 C320 0.930 . S
H308 C324 0.959 . S
H309 C324 0.959 . S
H310 C324 0.961 . S
H311 C325 0.960 . S
H312 C325 0.961 . S
H313 C325 0.959 . S
H314 C328 0.929 . S
H315 C329 0.931 . S
H316 C331 0.930 . S
C317 H305 0.930 . S
C317 C318 1.399 . S
C317 C322 1.399 . S
C318 C317 1.399 . S
C318 C319 1.376 1_554 S
C319 H306 0.930 . S
C319 C318 1.376 1_556 S
C319 C320 1.388 . S
C320 H307 0.930 . S
C320 C319 1.388 . S
C320 C321 1.390 . S
C321 C320 1.390 . S
C321 C322 1.394 1_556 S
C321 C327 1.465 . S
C322 C317 1.399 . S
C322 C321 1.394 1_554 S
C322 C323 1.516 . S
C323 C322 1.516 . S
C323 C324 1.502 . S
C323 C325 1.561 1_554 S
C323 C326 1.525 . S
C324 H308 0.959 . S
C324 H309 0.959 . S
C324 H310 0.961 . S
C324 C323 1.502 . S
C325 H311 0.960 . S
C325 H312 0.961 . S
C325 H313 0.959 . S
C325 C323 1.561 1_556 S
C326 C323 1.525 . S
C326 C327 1.395 1_554 S
C326 C331 1.391 . S
C327 C321 1.465 . S
C327 C326 1.395 1_556 S
C327 C328 1.399 . S
C328 H314 0.929 . S
C328 C327 1.399 . S
C328 C329 1.385 . S
C329 H315 0.931 . S
C329 C328 1.385 . S
C329 C330 1.388 1_556 S
C330 C329 1.388 1_554 S
C330 C331 1.387 . S
C331 H316 0.930 . S
C331 C326 1.391 . S
C331 C330 1.387 . S
H332 C344 0.930 . S
H333 C346 0.930 . S
H334 C347 0.930 . S
H335 C351 0.959 . S
H336 C351 0.959 . S
H337 C351 0.961 . S
H338 C352 0.960 . S
H339 C352 0.961 . S
H340 C352 0.959 . S
H341 C355 0.929 . S
H342 C356 0.931 . S
H343 C358 0.930 . S
C344 H332 0.930 . S
C344 C345 1.399 . S
C344 C349 1.399 . S
C345 C344 1.399 . S
C345 C346 1.376 . S
C346 H333 0.930 . S
C346 C345 1.376 . S
C346 C347 1.388 . S
C347 H334 0.930 . S
C347 C346 1.388 . S
C347 C348 1.390 . S
C348 C347 1.390 . S
C348 C349 1.394 . S
C348 C354 1.465 . S
C349 C344 1.399 . S
C349 C348 1.394 . S
C349 C350 1.516 . S
C350 C349 1.516 . S
C350 C351 1.502 . S
C350 C352 1.561 . S
C350 C353 1.526 . S
C351 H335 0.959 . S
C351 H336 0.959 . S
C351 H337 0.961 . S
C351 C350 1.502 . S
C352 H338 0.960 . S
C352 H339 0.961 . S
C352 H340 0.959 . S
C352 C350 1.561 . S
C353 C350 1.526 . S
C353 C354 1.396 . S
C353 C358 1.390 . S
C354 C348 1.465 . S
C354 C353 1.396 . S
C354 C355 1.399 . S
C355 H341 0.929 . S
C355 C354 1.399 . S
C355 C356 1.385 . S
C356 H342 0.931 . S
C356 C355 1.385 . S
C356 C357 1.389 . S
C357 C356 1.389 . S
C357 C358 1.387 . S
C358 H343 0.930 . S
C358 C353 1.390 . S
C358 C357 1.387 . S
H359 C371 0.930 . S
H360 C373 0.930 . S
H361 C374 0.930 . S
H362 C378 0.959 . S
H363 C378 0.959 . S
H364 C378 0.961 . S
H365 C379 0.960 . S
H366 C379 0.961 . S
H367 C379 0.959 . S
H368 C382 0.929 . S
H369 C383 0.931 . S
H370 C385 0.930 . S
C371 H359 0.930 . S
C371 C372 1.399 . S
C371 C376 1.399 . S
C372 C371 1.399 . S
C372 C373 1.376 . S
C373 H360 0.930 . S
C373 C372 1.376 . S
C373 C374 1.388 . S
C374 H361 0.930 . S
C374 C373 1.388 . S
C374 C375 1.390 . S
C375 C374 1.390 . S
C375 C376 1.394 . S
C375 C381 1.465 . S
C376 C371 1.399 . S
C376 C375 1.394 . S
C376 C377 1.516 . S
C377 C376 1.516 . S
C377 C378 1.502 . S
C377 C379 1.561 . S
C377 C380 1.526 . S
C378 H362 0.959 . S
C378 H363 0.959 . S
C378 H364 0.961 . S
C378 C377 1.502 . S
C379 H365 0.960 . S
C379 H366 0.961 . S
C379 H367 0.959 . S
C379 C377 1.561 . S
C380 C377 1.526 . S
C380 C381 1.396 . S
C380 C385 1.390 . S
C381 C375 1.465 . S
C381 C380 1.396 . S
C381 C382 1.399 . S
C382 H368 0.929 . S
C382 C381 1.399 . S
C382 C383 1.385 . S
C383 H369 0.931 . S
C383 C382 1.385 . S
C383 C384 1.389 . S
C384 C383 1.389 . S
C384 C385 1.387 . S
C385 H370 0.930 . S
C385 C380 1.390 . S
C385 C384 1.387 . S
H386 C398 0.930 . S
H387 C400 0.930 . S
H388 C401 0.930 . S
H389 C405 0.959 . S
H390 C405 0.959 . S
H391 C405 0.961 . S
H392 C406 0.960 . S
H393 C406 0.961 . S
H394 C406 0.959 . S
H395 C409 0.929 . S
H396 C410 0.931 . S
H397 C412 0.930 . S
C398 H386 0.930 . S
C398 C399 1.399 . S
C398 C403 1.399 . S
C399 C398 1.399 . S
C399 C400 1.376 . S
C400 H387 0.930 . S
C400 C399 1.376 . S
C400 C401 1.388 . S
C401 H388 0.930 . S
C401 C400 1.388 . S
C401 C402 1.390 . S
C402 C401 1.390 . S
C402 C403 1.394 . S
C402 C408 1.465 . S
C403 C398 1.399 . S
C403 C402 1.394 . S
C403 C404 1.516 . S
C404 C403 1.516 . S
C404 C405 1.502 . S
C404 C406 1.561 . S
C404 C407 1.526 . S
C405 H389 0.959 . S
C405 H390 0.959 . S
C405 H391 0.961 . S
C405 C404 1.502 . S
C406 H392 0.960 . S
C406 H393 0.961 . S
C406 H394 0.959 . S
C406 C404 1.561 . S
C407 C404 1.526 . S
C407 C408 1.396 . S
C407 C412 1.390 . S
C408 C402 1.465 . S
C408 C407 1.396 . S
C408 C409 1.399 . S
C409 H395 0.929 . S
C409 C408 1.399 . S
C409 C410 1.385 . S
C410 H396 0.931 . S
C410 C409 1.385 . S
C410 C411 1.389 . S
C411 C410 1.389 . S
C411 C412 1.387 . S
C412 H397 0.930 . S
C412 C407 1.390 . S
C412 C411 1.387 . S
H413 C425 0.930 . S
H414 C427 0.930 . S
H415 C428 0.930 . S
H416 C432 0.959 . S
H417 C432 0.959 . S
H418 C432 0.961 . S
H419 C433 0.960 . S
H420 C433 0.961 . S
H421 C433 0.959 . S
H422 C436 0.929 . S
H423 C437 0.931 . S
H424 C439 0.930 . S
C425 H413 0.930 . S
C425 C426 1.399 . S
C425 C430 1.399 . S
C426 C425 1.399 . S
C426 C427 1.376 . S
C427 H414 0.930 . S
C427 C426 1.376 . S
C427 C428 1.388 . S
C428 H415 0.930 . S
C428 C427 1.388 . S
C428 C429 1.390 . S
C429 C428 1.390 . S
C429 C430 1.394 . S
C429 C435 1.465 . S
C430 C425 1.399 . S
C430 C429 1.394 . S
C430 C431 1.516 . S
C431 C430 1.516 . S
C431 C432 1.502 . S
C431 C433 1.561 . S
C431 C434 1.526 . S
C432 H416 0.959 . S
C432 H417 0.959 . S
C432 H418 0.961 . S
C432 C431 1.502 . S
C433 H419 0.960 . S
C433 H420 0.961 . S
C433 H421 0.959 . S
C433 C431 1.561 . S
C434 C431 1.526 . S
C434 C435 1.396 . S
C434 C439 1.390 . S
C435 C429 1.465 . S
C435 C434 1.396 . S
C435 C436 1.399 . S
C436 H422 0.929 . S
C436 C435 1.399 . S
C436 C437 1.385 . S
C437 H423 0.931 . S
C437 C436 1.385 . S
C437 C438 1.389 . S
C438 C437 1.389 . S
C438 C439 1.387 . S
C439 H424 0.930 . S
C439 C434 1.390 . S
C439 C438 1.387 . S
H440 C452 0.930 . S
H441 C454 0.930 . S
H442 C455 0.930 . S
H443 C459 0.959 . S
H444 C459 0.959 . S
H445 C459 0.961 . S
H446 C460 0.960 . S
H447 C460 0.961 . S
H448 C460 0.959 . S
H449 C463 0.929 . S
H450 C464 0.931 . S
H451 C466 0.930 . S
C452 H440 0.930 . S
C452 C453 1.399 1_665 S
C452 C457 1.399 . S
C453 C452 1.399 1_445 S
C453 C454 1.376 . S
C454 H441 0.930 . S
C454 C453 1.376 . S
C454 C455 1.388 . S
C455 H442 0.930 . S
C455 C454 1.388 . S
C455 C456 1.390 . S
C456 C455 1.390 . S
C456 C457 1.394 1_445 S
C456 C462 1.465 . S
C457 C452 1.399 . S
C457 C456 1.394 1_665 S
C457 C458 1.516 . S
C458 C457 1.516 . S
C458 C459 1.502 . S
C458 C460 1.561 1_655 S
C458 C461 1.526 . S
C459 H443 0.959 . S
C459 H444 0.959 . S
C459 H445 0.961 . S
C459 C458 1.502 . S
C460 H446 0.960 . S
C460 H447 0.961 . S
C460 H448 0.959 . S
C460 C458 1.561 1_455 S
C461 C458 1.526 . S
C461 C462 1.396 1_665 S
C461 C466 1.390 . S
C462 C456 1.465 . S
C462 C461 1.396 1_445 S
C462 C463 1.399 . S
C463 H449 0.929 . S
C463 C462 1.399 . S
C463 C464 1.385 . S
C464 H450 0.931 . S
C464 C463 1.385 . S
C464 C465 1.389 . S
C465 C464 1.389 . S
C465 C466 1.387 1_445 S
C466 H451 0.930 . S
C466 C461 1.390 . S
C466 C465 1.387 1_665 S
H467 C479 0.930 . S
H468 C481 0.930 . S
H469 C482 0.930 . S
H470 C486 0.959 . S
H471 C486 0.959 . S
H472 C486 0.961 . S
H473 C487 0.960 . S
H474 C487 0.961 . S
H475 C487 0.959 . S
H476 C490 0.929 . S
H477 C491 0.931 . S
H478 C493 0.930 . S
C479 H467 0.930 . S
C479 C480 1.399 . S
C479 C484 1.399 . S
C480 C479 1.399 . S
C480 C481 1.376 1_545 S
C481 H468 0.930 . S
C481 C480 1.376 1_565 S
C481 C482 1.388 . S
C482 H469 0.930 . S
C482 C481 1.388 . S
C482 C483 1.390 . S
C483 C482 1.390 . S
C483 C484 1.394 1_565 S
C483 C489 1.465 . S
C484 C479 1.399 . S
C484 C483 1.394 1_545 S
C484 C485 1.516 . S
C485 C484 1.516 . S
C485 C486 1.502 1_455 S
C485 C487 1.561 . S
C485 C488 1.526 . S
C486 H470 0.959 . S
C486 H471 0.959 . S
C486 H472 0.961 . S
C486 C485 1.502 1_655 S
C487 H473 0.960 . S
C487 H474 0.961 . S
C487 H475 0.959 . S
C487 C485 1.561 . S
C488 C485 1.526 . S
C488 C489 1.396 1_545 S
C488 C493 1.390 . S
C489 C483 1.465 . S
C489 C488 1.396 1_565 S
C489 C490 1.399 . S
C490 H476 0.929 . S
C490 C489 1.399 . S
C490 C491 1.385 . S
C491 H477 0.931 . S
C491 C490 1.385 . S
C491 C492 1.389 1_565 S
C492 C491 1.389 1_545 S
C492 C493 1.387 . S
C493 H478 0.930 . S
C493 C488 1.390 . S
C493 C492 1.387 . S
H494 C506 0.930 . S
H495 C508 0.930 . S
H496 C509 0.930 . S
H497 C513 0.959 . S
H498 C513 0.959 . S
H499 C513 0.961 . S
H500 C514 0.960 . S
H501 C514 0.961 . S
H502 C514 0.959 . S
H503 C517 0.929 . S
H504 C518 0.931 . S
H505 C520 0.930 . S
C506 H494 0.930 . S
C506 C507 1.399 . S
C506 C511 1.399 . S
C507 C506 1.399 . S
C507 C508 1.376 . S
C508 H495 0.930 . S
C508 C507 1.376 . S
C508 C509 1.388 . S
C509 H496 0.930 . S
C509 C508 1.388 . S
C509 C510 1.390 . S
C510 C509 1.390 . S
C510 C511 1.394 . S
C510 C516 1.465 . S
C511 C506 1.399 . S
C511 C510 1.394 . S
C511 C512 1.516 . S
C512 C511 1.516 . S
C512 C513 1.502 . S
C512 C514 1.561 . S
C512 C515 1.526 . S
C513 H497 0.959 . S
C513 H498 0.959 . S
C513 H499 0.961 . S
C513 C512 1.502 . S
C514 H500 0.960 . S
C514 H501 0.961 . S
C514 H502 0.959 . S
C514 C512 1.561 . S
C515 C512 1.526 . S
C515 C516 1.396 . S
C515 C520 1.390 . S
C516 C510 1.465 . S
C516 C515 1.396 . S
C516 C517 1.399 . S
C517 H503 0.929 . S
C517 C516 1.399 . S
C517 C518 1.385 . S
C518 H504 0.931 . S
C518 C517 1.385 . S
C518 C519 1.389 . S
C519 C518 1.389 . S
C519 C520 1.387 . S
C520 H505 0.930 . S
C520 C515 1.390 . S
C520 C519 1.387 . S
H521 C533 0.930 . S
H522 C535 0.930 . S
H523 C536 0.930 . S
H524 C540 0.959 . S
H525 C540 0.959 . S
H526 C540 0.961 . S
H527 C541 0.960 . S
H528 C541 0.961 . S
H529 C541 0.959 . S
H530 C544 0.929 . S
H531 C545 0.931 . S
H532 C547 0.930 . S
C533 H521 0.930 . S
C533 C534 1.399 . S
C533 C538 1.399 . S
C534 C533 1.399 . S
C534 C535 1.376 . S
C535 H522 0.930 . S
C535 C534 1.376 . S
C535 C536 1.388 . S
C536 H523 0.930 . S
C536 C535 1.388 . S
C536 C537 1.390 . S
C537 C536 1.390 . S
C537 C538 1.394 . S
C537 C543 1.465 . S
C538 C533 1.399 . S
C538 C537 1.394 . S
C538 C539 1.516 . S
C539 C538 1.516 . S
C539 C540 1.502 . S
C539 C541 1.561 . S
C539 C542 1.526 . S
C540 H524 0.959 . S
C540 H525 0.959 . S
C540 H526 0.961 . S
C540 C539 1.502 . S
C541 H527 0.960 . S
C541 H528 0.961 . S
C541 H529 0.959 . S
C541 C539 1.561 . S
C542 C539 1.526 . S
C542 C543 1.396 . S
C542 C547 1.390 . S
C543 C537 1.465 . S
C543 C542 1.396 . S
C543 C544 1.399 . S
C544 H530 0.929 . S
C544 C543 1.399 . S
C544 C545 1.385 . S
C545 H531 0.931 . S
C545 C544 1.385 . S
C545 C546 1.389 . S
C546 C545 1.389 . S
C546 C547 1.387 . S
C547 H532 0.930 . S
C547 C542 1.390 . S
C547 C546 1.387 . S
C249 C201 1.416 . S
C237 C29 1.499 . S
C264 C8 1.475 . S
C276 C162 1.470 1_554 S
C291 C0 1.473 . S
C303 C206 1.404 . S
C318 C17 1.480 . S
C330 C167 1.437 1_554 S
C345 C63 1.502 . S
C357 C123 1.471 . S
C372 C42 1.475 . S
C384 C84 1.443 . S
C411 C128 1.445 . S
C399 C34 1.473 . S
C438 C89 1.481 . S
C426 C51 1.486 . S
C453 C4 1.472 . S
C465 C69 1.480 1_455 S
C480 C13 1.474 . S
C492 C108 1.481 . S
C519 C147 1.481 . S
C507 C38 1.472 . S
C534 C47 1.476 . S
C546 C186 1.481 . S
