# Generated by pormake.
# Topology tsx, (6,3)-cn, num edge types: 1
# Building blocks:
#     Node 0, Type 0, BuildingBlock: CIFDUS_clean_sbu_1, # of connection points: 6
#     Node 1, Type 0, BuildingBlock: CIFDUS_clean_sbu_1, # of connection points: 6
#     Node 2, Type 1, BuildingBlock: BETDIP_clean_linker_0, # of connection points: 3
#     Node 3, Type 1, BuildingBlock: BETDIP_clean_linker_0, # of connection points: 3
#     Node 4, Type 1, BuildingBlock: BETDIP_clean_linker_0, # of connection points: 3
#     Node 5, Type 1, BuildingBlock: BETDIP_clean_linker_0, # of connection points: 3
#     Edge 6, Type (0, 1), BuildingBlock: CIFDUS_clean_linker_0, # of connection points: 2
#     Edge 7, Type (0, 1), BuildingBlock: CIFDUS_clean_linker_0, # of connection points: 2
#     Edge 8, Type (0, 1), BuildingBlock: CIFDUS_clean_linker_0, # of connection points: 2
#     Edge 9, Type (0, 1), BuildingBlock: CIFDUS_clean_linker_0, # of connection points: 2
#     Edge 10, Type (0, 1), BuildingBlock: CIFDUS_clean_linker_0, # of connection points: 2
#     Edge 11, Type (0, 1), BuildingBlock: CIFDUS_clean_linker_0, # of connection points: 2
#     Edge 12, Type (0, 1), BuildingBlock: CIFDUS_clean_linker_0, # of connection points: 2
#     Edge 13, Type (0, 1), BuildingBlock: CIFDUS_clean_linker_0, # of connection points: 2
#     Edge 14, Type (0, 1), BuildingBlock: CIFDUS_clean_linker_0, # of connection points: 2
#     Edge 15, Type (0, 1), BuildingBlock: CIFDUS_clean_linker_0, # of connection points: 2
#     Edge 16, Type (0, 1), BuildingBlock: CIFDUS_clean_linker_0, # of connection points: 2
#     Edge 17, Type (0, 1), BuildingBlock: CIFDUS_clean_linker_0, # of connection points: 2
# Relax obj value: 0.096
# Max RMSD: 0.146
# Mean RMSD: 0.110
data_MOF--net-tsx--node1-CIFDUS_clean_sbu_1--node2-BETDIP_clean_linker_0--edge1-CIFDUS_clean_linker_0
_symmetry_space_group_name_H-M    P1
_symmetry_Int_Tables_number       1
_symmetry_cell_setting            triclinic
loop_
_symmetry_equiv_pos_as_xyz
'x, y, z'
_cell_length_a     16.191862
_cell_length_b     19.645119
_cell_length_c     30.590794
_cell_angle_alpha  97.191379
_cell_angle_beta   103.60834
_cell_angle_gamma 91.59284
loop_
_atom_site_label
_atom_site_type_symbol
_atom_site_fract_x
_atom_site_fract_y
_atom_site_fract_z
_atom_type_partial_charge
O0 O 0.99702 0.12278 0.00017 0.0
Mn1 Mn 0.05953 0.03111 -0.00949 0.0
O2 O 0.86579 0.10293 0.95557 0.0
Mn3 Mn 0.89094 0.02157 0.92675 0.0
O4 O 0.12338 0.94053 0.98093 0.0
O5 O 0.17074 0.09019 0.01271 0.0
Mn6 Mn 0.23939 0.04484 0.05095 0.0
O7 O 0.05602 0.01452 0.05715 0.0
O8 O 0.25926 0.96389 0.01911 0.0
O9 O 0.06974 0.04802 0.92568 0.0
O10 O 0.94118 0.02578 0.87908 0.0
O11 O 0.30212 0.12264 0.04989 0.0
O12 O 0.19063 0.03651 0.09853 0.0
C13 C 0.87507 0.93016 0.95147 0.0
C14 C 0.92086 0.14073 0.98565 0.0
C15 C 0.20113 0.92397 -0.00789 0.0
C16 C 0.23431 0.13586 0.02085 0.0
C17 C 0.11259 0.0203 0.09522 0.0
C18 C 0.02005 0.04071 0.886 0.0
O19 O 0.94648 0.96913 0.96661 0.0
O20 O 0.81561 0.95143 0.9207 0.0
O21 O 0.50259 0.61552 0.48902 0.0
Mn22 Mn 0.57021 0.52462 0.48863 0.0
O23 O 0.36953 0.58607 0.44863 0.0
Mn24 Mn 0.3984 0.50285 0.42382 0.0
O25 O 0.63993 0.43493 0.48817 0.0
O26 O 0.67813 0.58571 0.50792 0.0
Mn27 Mn 0.74955 0.55261 0.55169 0.0
O28 O 0.56448 0.52177 0.55654 0.0
O29 O 0.77336 0.4663 0.52868 0.0
O30 O 0.58064 0.52817 0.4223 0.0
O31 O 0.45075 0.50353 0.37659 0.0
O32 O 0.80562 0.62956 0.54189 0.0
O33 O 0.69615 0.55615 0.5986 0.0
C34 C 0.39432 0.41722 0.45766 0.0
C35 C 0.42453 0.62963 0.47442 0.0
C36 C 0.71817 0.42159 0.50378 0.0
C37 C 0.73599 0.63429 0.51159 0.0
C38 C 0.61826 0.53867 0.59512 0.0
C39 C 0.52995 0.51722 0.38289 0.0
O40 O 0.4606 0.46122 0.46778 0.0
O41 O 0.33195 0.42859 0.42459 0.0
H42 H 0.0677 0.97081 0.47211 0.0
H43 H 1.00035 0.05228 0.34493 0.0
H44 H 0.19102 0.90426 0.36558 0.0
H45 H 0.86757 0.05132 0.36409 0.0
C46 C 0.89027 0.07733 0.39858 0.0
C47 C 0.0759 0.97308 0.43822 0.0
C48 C 0.1368 0.93352 0.42251 0.0
C49 C 0.02504 0.01497 0.41 0.0
C50 C 0.03634 0.01774 0.36605 0.0
C51 C 0.09662 0.97851 0.34986 0.0
C52 C 0.14619 0.93645 0.37832 0.0
N53 N 0.9655 0.05621 0.42688 0.0
H54 H 0.95079 0.02392 0.50182 0.0
H55 H 0.1299 0.08162 0.63129 0.0
H56 H 0.91282 0.94597 0.62062 0.0
H57 H 0.20949 0.12874 0.5949 0.0
C58 C 0.17679 0.13111 0.55996 0.0
C59 C 0.97138 0.02154 0.53773 0.0
C60 C 0.92241 0.98137 0.55816 0.0
C61 C 0.04697 0.05791 0.56338 0.0
C62 C 0.07275 0.05413 0.61039 0.0
C63 C 0.02482 0.01321 0.63094 0.0
C64 C 0.94972 0.97779 0.60471 0.0
N65 N 0.09519 0.09672 0.5406 0.0
H66 H 0.62836 0.48751 0.97678 0.0
H67 H 0.50905 0.56258 0.85224 0.0
H68 H 0.72563 0.4411 0.85762 0.0
H69 H 0.38741 0.5562 0.88858 0.0
C70 C 0.42616 0.58694 0.91883 0.0
C71 C 0.6243 0.49012 0.94122 0.0
C72 C 0.68469 0.45855 0.92034 0.0
C73 C 0.55995 0.52673 0.91663 0.0
C74 C 0.55546 0.5314 0.87079 0.0
C75 C 0.61603 0.50148 0.84995 0.0
C76 C 0.67956 0.46456 0.87448 0.0
N77 N 0.50726 0.56561 0.9399 0.0
H78 H 0.48933 0.50444 0.00242 0.0
H79 H 0.63016 0.62206 0.12817 0.0
H80 H 0.42578 0.48034 0.1283 0.0
H81 H 0.73807 0.60492 0.09262 0.0
C82 C 0.7078 0.62237 0.06068 0.0
C83 C 0.49964 0.51947 0.03842 0.0
C84 C 0.44553 0.48968 0.06181 0.0
C85 C 0.56752 0.5672 0.06202 0.0
C86 C 0.58022 0.58453 0.10925 0.0
C87 C 0.53046 0.552 0.13286 0.0
C88 C 0.4633 0.50551 0.10922 0.0
N89 N 0.62244 0.59771 0.03854 0.0
H90 H 0.16612 0.25731 0.03898 0.0
H91 H 0.32027 0.15381 0.95766 0.0
H92 H 0.39562 0.26256 0.95626 0.0
H93 H 0.44213 0.37988 -0.00409 0.0
H94 H 0.28619 0.48366 0.07669 0.0
H95 H 0.18704 0.38303 0.06022 0.0
C96 C 0.21245 0.25936 0.01861 0.0
C97 C 0.23773 0.19772 -0.00146 0.0
C98 C 0.25787 0.32202 0.01947 0.0
C99 C 0.29912 0.20083 0.97298 0.0
C100 C 0.34357 0.26295 0.97298 0.0
C101 C 0.38477 0.38152 0.00842 0.0
C102 C 0.37361 0.4383 0.03903 0.0
C103 C 0.32749 0.32302 -0.00117 0.0
C104 C 0.29805 0.43963 0.05437 0.0
C105 C 0.24103 0.38206 0.04493 0.0
H106 H 0.36006 0.87926 0.00715 0.0
H107 H 0.10038 0.81606 0.93638 0.0
H108 H 0.14726 0.70505 0.90768 0.0
H109 H 0.26383 0.62679 0.90233 0.0
H110 H 0.52091 0.69286 0.97602 0.0
H111 H 0.47284 0.80242 0.00389 0.0
C112 C 0.31305 0.84149 0.98552 0.0
C113 C 0.22664 0.85628 0.97393 0.0
C114 C 0.34016 0.77829 0.96965 0.0
C115 C 0.16732 0.80626 0.94574 0.0
C116 C 0.19411 0.74279 0.92939 0.0
C117 C 0.30886 0.66527 0.92471 0.0
C118 C 0.39552 0.65176 0.93731 0.0
C119 C 0.28054 0.72834 0.94107 0.0
C120 C 0.45371 0.70164 0.96626 0.0
C121 C 0.42636 0.76448 0.98206 0.0
H122 H 0.91837 0.88624 0.03629 0.0
H123 H 0.78762 0.82231 0.89641 0.0
H124 H 0.7219 0.72238 0.91695 0.0
H125 H 0.69076 0.65729 0.97524 0.0
H126 H 0.82711 0.71424 0.11459 0.0
H127 H 0.90043 0.81168 0.09402 0.0
C128 C 0.87768 0.84926 0.0103 0.0
C129 C 0.85761 0.86222 0.96495 0.0
C130 C 0.83916 0.79102 0.02236 0.0
C131 C 0.80382 0.81394 0.9317 0.0
C132 C 0.76547 0.75678 0.94336 0.0
C133 C 0.73666 0.691 0.00097 0.0
C134 C 0.75258 0.67944 0.04641 0.0
C135 C 0.78051 0.74578 -0.01129 0.0
C136 C 0.81344 0.72266 0.07934 0.0
C137 C 0.85558 0.77832 0.0676 0.0
H138 H 0.97958 0.26231 0.96906 0.0
H139 H 0.79678 0.16978 0.02903 0.0
H140 H 0.71045 0.26953 0.02074 0.0
H141 H 0.6715 0.3686 0.97998 0.0
H142 H 0.85222 0.45933 0.91735 0.0
H143 H 0.95443 0.37529 0.94295 0.0
C144 C 0.92317 0.26587 0.98242 0.0
C145 C 0.89447 0.20931 -0.00023 0.0
C146 C 0.87168 0.32193 0.97537 0.0
C147 C 0.82027 0.21337 0.01602 0.0
C148 C 0.77021 0.26989 0.01057 0.0
C149 C 0.73418 0.37138 0.97315 0.0
C150 C 0.75291 0.41863 0.94535 0.0
C151 C 0.79267 0.3224 0.9877 0.0
C152 C 0.83488 0.42177 0.93721 0.0
C153 C 0.89371 0.37396 0.95207 0.0
H154 H 0.65325 0.74714 0.52893 0.0
H155 H 0.80996 0.65734 0.44415 0.0
H156 H 0.87301 0.7707 0.44178 0.0
H157 H 0.91471 0.88634 0.48453 0.0
H158 H 0.764 0.9738 0.5738 0.0
H159 H 0.66611 0.87187 0.553 0.0
C160 C 0.69685 0.75311 0.50743 0.0
C161 C 0.72754 0.69427 0.48705 0.0
C162 C 0.73637 0.81821 0.50857 0.0
C163 C 0.78515 0.70219 0.45991 0.0
C164 C 0.82258 0.76699 0.45937 0.0
C165 C 0.85807 0.8844 0.49763 0.0
C166 C 0.8477 0.93636 0.5316 0.0
C167 C 0.80368 0.82437 0.4867 0.0
C168 C 0.77394 0.93357 0.54823 0.0
C169 C 0.71828 0.87507 0.53656 0.0
H170 H 0.66072 0.32645 0.42771 0.0
H171 H 0.84728 0.36222 0.55597 0.0
H172 H 0.91486 0.2576 0.53625 0.0
H173 H 0.9283 0.16005 0.48058 0.0
H174 H 0.74523 0.12406 0.35137 0.0
H175 H 0.66924 0.22366 0.37341 0.0
C176 C 0.71511 0.31053 0.45159 0.0
C177 C 0.749 0.35245 0.49311 0.0
C178 C 0.75513 0.25038 0.43971 0.0
C179 C 0.82017 0.33133 0.52355 0.0
C180 C 0.85915 0.27142 0.51234 0.0
C181 C 0.87135 0.17359 0.45741 0.0
C182 C 0.84252 0.13497 0.41431 0.0
C183 C 0.82842 0.23129 0.47014 0.0
C184 C 0.76867 0.15329 0.38473 0.0
C185 C 0.7252 0.21024 0.39729 0.0
H186 H 0.28869 0.30672 0.4239 0.0
H187 H 0.47408 0.39445 0.54494 0.0
H188 H 0.42547 0.30889 0.58725 0.0
H189 H 0.31763 0.21784 0.59082 0.0
H190 H 0.12825 0.13822 0.46892 0.0
H191 H 0.19056 0.2126 0.42579 0.0
C192 C 0.31944 0.3069 0.4595 0.0
C193 C 0.38357 0.35789 0.48165 0.0
C194 C 0.28926 0.25961 0.48342 0.0
C195 C 0.42401 0.35623 0.52737 0.0
C196 C 0.39566 0.30765 0.5515 0.0
C197 C 0.29069 0.21659 0.55473 0.0
C198 C 0.21787 0.17317 0.53319 0.0
C199 C 0.32622 0.26065 0.53015 0.0
C200 C 0.18355 0.17156 0.48643 0.0
C201 C 0.21936 0.21398 0.46169 0.0
H202 H 0.27653 0.66533 0.49396 0.0
H203 H 0.50703 0.75066 0.46967 0.0
H204 H 0.44054 0.8597 0.45838 0.0
H205 H 0.30819 0.92156 0.44117 0.0
H206 H 0.07706 0.8344 0.46391 0.0
H207 H 0.15246 0.73571 0.49086 0.0
C208 C 0.31302 0.70868 0.48769 0.0
C209 C 0.39637 0.70007 0.48241 0.0
C210 C 0.2736 0.77038 0.48021 0.0
C211 C 0.44325 0.75636 0.47438 0.0
C212 C 0.40469 0.81835 0.46729 0.0
C213 C 0.27506 0.8817 0.45316 0.0
C214 C 0.18692 0.88454 0.44987 0.0
C215 C 0.31866 0.82466 0.46796 0.0
C216 C 0.14475 0.83326 0.46604 0.0
C217 C 0.18774 0.77658 0.48109 0.0
H218 H 0.22278 1.0033 0.17333 0.0
H219 H 0.95344 0.00693 0.1139 0.0
H220 H 0.92399 0.99262 0.18769 0.0
H221 H 0.97698 0.98315 0.26999 0.0
H222 H 0.24817 0.985 0.32664 0.0
H223 H 0.27442 0.99299 0.25246 0.0
C224 C 0.1572 1.0013 0.17609 0.0
C225 C 0.09041 0.00725 0.13804 0.0
C226 C 0.14123 0.99402 0.2182 0.0
C227 C 1.00612 1.00289 0.14259 0.0
C228 C 0.98941 0.99493 0.18481 0.0
C229 C 0.04176 0.98571 0.26605 0.0
C230 C 0.11053 0.98311 0.30394 0.0
C231 C 0.05673 0.99132 0.22304 0.0
C232 C 0.19402 0.98567 0.29812 0.0
C233 C 0.20919 0.99071 0.25572 0.0
H234 H 0.03913 0.93764 0.82432 0.0
H235 H 0.07207 0.15755 0.85838 0.0
H236 H 0.09089 0.16854 0.78212 0.0
H237 H 0.07168 0.11582 0.70224 0.0
H238 H 0.03603 0.89534 0.66915 0.0
H239 H 0.04594 0.88385 0.74865 0.0
C240 C 0.05308 0.98767 0.81528 0.0
C241 C 0.05406 0.04673 0.84624 0.0
C242 C 0.06198 0.99336 0.77142 0.0
C243 C 0.07163 0.11154 0.83473 0.0
C244 C 0.0816 0.11773 0.79113 0.0
C245 C 0.06863 0.0653 0.71277 0.0
C246 C 0.0511 0.00662 0.67991 0.0
C247 C 0.07307 0.05914 0.75857 0.0
C248 C 0.04755 0.9413 0.69385 0.0
C249 C 0.0532 0.93468 0.73923 0.0
H250 H 0.70882 0.59197 0.67827 0.0
H251 H 0.47239 0.47766 0.61013 0.0
H252 H 0.44778 0.45829 0.68398 0.0
H253 H 0.50117 0.46658 0.76827 0.0
H254 H 0.74319 0.57477 0.83248 0.0
H255 H 0.75856 0.60337 0.75943 0.0
C256 C 0.65152 0.56273 0.67915 0.0
C257 C 0.59355 0.53483 0.6385 0.0
C258 C 0.63949 0.5502 0.72113 0.0
C259 C 0.51871 0.4989 0.6408 0.0
C260 C 0.50487 0.48761 0.68303 0.0
C261 C 0.55687 0.49646 0.76586 0.0
C262 C 0.6217 0.51801 0.80516 0.0
C263 C 0.56605 0.51159 0.7234 0.0
C264 C 0.69351 0.557 0.80231 0.0
C265 C 0.70203 0.57357 0.76072 0.0
H266 H 0.53842 0.62595 0.33874 0.0
H267 H 0.58858 0.41157 0.33635 0.0
H268 H 0.60433 0.40575 0.2583 0.0
H269 H 0.58028 0.45726 0.18769 0.0
H270 H 0.52526 0.67057 0.1886 0.0
H271 H 0.53599 0.68226 0.27065 0.0
C272 C 0.55568 0.57883 0.32139 0.0
C273 C 0.56291 0.51933 0.34262 0.0
C274 C 0.56218 0.57565 0.2763 0.0
C275 C 0.58385 0.45793 0.32029 0.0
C276 C 0.59196 0.45453 0.27571 0.0
C277 C 0.57224 0.50647 0.20625 0.0
C278 C 0.55079 0.56276 0.18272 0.0
C279 C 0.57757 0.51228 0.25286 0.0
C280 C 0.54135 0.6267 0.2065 0.0
C281 C 0.54719 0.63319 0.25316 0.0
loop_
_geom_bond_atom_site_label_1
_geom_bond_atom_site_label_2
_geom_bond_distance
_geom_bond_site_symmetry_2
_ccdc_geom_bond_type
O0 Mn1 2.163 1_655 S
O0 C14 1.244 . S
Mn1 O0 2.163 1_455 S
Mn1 O4 2.160 1_545 S
Mn1 O5 2.221 1_556 S
Mn1 O7 2.160 1_546 S
Mn1 O9 2.160 . S
Mn1 O19 2.221 1_445 S
O2 Mn3 2.087 1_545 S
O2 C14 1.256 . S
Mn3 O2 2.087 1_565 S
Mn3 O10 2.089 1_565 S
Mn3 O19 2.290 . S
Mn3 O20 2.251 . S
O4 Mn1 2.160 1_565 S
O4 C15 1.239 1_556 S
O5 Mn1 2.221 1_554 S
O5 Mn6 2.290 . S
O5 C16 1.278 . S
Mn6 O5 2.290 . S
Mn6 O8 2.089 1_545 S
Mn6 O11 2.251 . S
Mn6 O12 2.087 . S
O7 Mn1 2.160 1_564 S
O7 C17 1.243 1_565 S
O8 Mn6 2.089 1_565 S
O8 C15 1.256 . S
O9 Mn1 2.160 . S
O9 C18 1.239 . S
O10 Mn3 2.089 1_545 S
O10 C18 1.256 1_655 S
O11 Mn6 2.251 . S
O11 C16 1.241 . S
O12 Mn6 2.087 . S
O12 C17 1.256 . S
C13 O19 1.278 . S
C13 O20 1.241 . S
C14 O0 1.244 . S
C14 O2 1.256 . S
C15 O4 1.239 1_554 S
C15 O8 1.256 . S
C16 O5 1.278 . S
C16 O11 1.241 . S
C17 O7 1.243 1_545 S
C17 O12 1.256 . S
C18 O9 1.239 . S
C18 O10 1.256 1_455 S
O19 Mn1 2.221 1_665 S
O19 Mn3 2.290 . S
O19 C13 1.278 . S
O20 Mn3 2.251 . S
O20 C13 1.241 . S
O21 Mn22 2.163 . S
O21 C35 1.244 . S
Mn22 O21 2.163 . S
Mn22 O25 2.160 . S
Mn22 O26 2.221 . S
Mn22 O28 2.163 . S
Mn22 O30 2.160 . S
Mn22 O40 2.221 . S
O23 Mn24 2.087 . S
O23 C35 1.256 . S
Mn24 O23 2.087 . S
Mn24 O31 2.089 . S
Mn24 O40 2.290 . S
Mn24 O41 2.251 . S
O25 Mn22 2.160 . S
O25 C36 1.239 . S
O26 Mn22 2.221 . S
O26 Mn27 2.290 . S
O26 C37 1.278 . S
Mn27 O26 2.290 . S
Mn27 O29 2.089 . S
Mn27 O32 2.251 . S
Mn27 O33 2.087 . S
O28 Mn22 2.163 . S
O28 C38 1.244 . S
O29 Mn27 2.089 . S
O29 C36 1.256 . S
O30 Mn22 2.160 . S
O30 C39 1.239 . S
O31 Mn24 2.089 . S
O31 C39 1.256 . S
O32 Mn27 2.251 . S
O32 C37 1.241 . S
O33 Mn27 2.087 . S
O33 C38 1.256 . S
C34 O40 1.278 . S
C34 O41 1.241 . S
C35 O21 1.244 . S
C35 O23 1.256 . S
C36 O25 1.239 . S
C36 O29 1.256 . S
C37 O26 1.278 . S
C37 O32 1.241 . S
C38 O28 1.244 . S
C38 O33 1.256 . S
C39 O30 1.239 . S
C39 O31 1.256 . S
O40 Mn22 2.221 . S
O40 Mn24 2.290 . S
O40 C34 1.278 . S
O41 Mn24 2.251 . S
O41 C34 1.241 . S
H42 C47 0.930 . S
H43 C50 0.930 . S
H44 C52 0.930 . S
H45 C46 1.016 . S
C46 H45 1.016 . S
C46 N53 1.286 . S
C47 H42 0.930 . S
C47 C48 1.397 . S
C47 C49 1.361 1_565 S
C48 C47 1.397 . S
C48 C52 1.390 . S
C49 C47 1.361 1_545 S
C49 C50 1.393 . S
C49 N53 1.413 1_455 S
C50 H43 0.930 . S
C50 C49 1.393 . S
C50 C51 1.399 1_545 S
C51 C50 1.399 1_565 S
C51 C52 1.381 . S
C52 H44 0.930 . S
C52 C48 1.390 . S
C52 C51 1.381 . S
N53 C46 1.286 . S
N53 C49 1.413 1_655 S
H54 C59 0.930 . S
H55 C62 0.930 . S
H56 C64 0.934 . S
H57 C58 1.016 . S
C58 H57 1.016 . S
C58 N65 1.286 . S
C59 H54 0.930 . S
C59 C60 1.397 1_545 S
C59 C61 1.361 1_655 S
C60 C59 1.397 1_565 S
C60 C64 1.391 . S
C61 C59 1.361 1_455 S
C61 C62 1.393 . S
C61 N65 1.413 . S
C62 H55 0.930 . S
C62 C61 1.393 . S
C62 C63 1.399 1_455 S
C63 C62 1.399 1_655 S
C63 C64 1.377 1_545 S
C64 H56 0.934 . S
C64 C60 1.391 . S
C64 C63 1.377 1_565 S
N65 C58 1.286 . S
N65 C61 1.413 . S
H66 C71 0.930 . S
H67 C74 0.930 . S
H68 C76 0.930 . S
H69 C70 1.016 . S
C70 H69 1.016 . S
C70 N77 1.286 . S
C71 H66 0.930 . S
C71 C72 1.397 . S
C71 C73 1.361 . S
C72 C71 1.397 . S
C72 C76 1.390 . S
C73 C71 1.361 . S
C73 C74 1.393 . S
C73 N77 1.413 . S
C74 H67 0.930 . S
C74 C73 1.393 . S
C74 C75 1.399 . S
C75 C74 1.399 . S
C75 C76 1.381 . S
C76 H68 0.930 . S
C76 C72 1.390 . S
C76 C75 1.381 . S
N77 C70 1.286 . S
N77 C73 1.413 . S
H78 C83 0.930 1_556 S
H79 C86 0.930 . S
H80 C88 0.930 . S
H81 C82 1.016 . S
C82 H81 1.016 . S
C82 N89 1.286 . S
C83 H78 0.930 1_554 S
C83 C84 1.397 . S
C83 C85 1.361 . S
C84 C83 1.397 . S
C84 C88 1.390 . S
C85 C83 1.361 . S
C85 C86 1.393 . S
C85 N89 1.413 . S
C86 H79 0.930 . S
C86 C85 1.393 . S
C86 C87 1.399 . S
C87 C86 1.399 . S
C87 C88 1.381 . S
C88 H80 0.930 . S
C88 C84 1.390 . S
C88 C87 1.381 . S
N89 C82 1.286 . S
N89 C85 1.413 . S
H90 C96 0.930 . S
H91 C99 0.930 . S
H92 C100 0.930 . S
H93 C101 0.930 . S
H94 C104 0.930 . S
H95 C105 0.930 . S
C96 H90 0.930 . S
C96 C97 1.355 . S
C96 C98 1.415 . S
C97 C96 1.355 . S
C97 C99 1.419 1_554 S
C98 C96 1.415 . S
C98 C103 1.425 . S
C98 C105 1.409 . S
C99 H91 0.930 . S
C99 C97 1.419 1_556 S
C99 C100 1.362 . S
C100 H92 0.930 . S
C100 C99 1.362 . S
C100 C103 1.409 1_556 S
C101 H93 0.930 . S
C101 C102 1.355 . S
C101 C103 1.415 . S
C102 C101 1.355 . S
C102 C104 1.419 . S
C103 C98 1.425 . S
C103 C100 1.409 1_554 S
C103 C101 1.415 . S
C104 H94 0.930 . S
C104 C102 1.419 . S
C104 C105 1.362 . S
C105 H95 0.930 . S
C105 C98 1.409 . S
C105 C104 1.362 . S
H106 C112 0.930 . S
H107 C115 0.930 . S
H108 C116 0.930 . S
H109 C117 0.925 1_554 S
H110 C120 0.930 . S
H111 C121 0.930 . S
C112 H106 0.930 . S
C112 C113 1.355 1_556 S
C112 C114 1.415 . S
C113 C112 1.355 1_554 S
C113 C115 1.419 . S
C114 C112 1.415 . S
C114 C119 1.425 1_556 S
C114 C121 1.409 . S
C115 H107 0.930 . S
C115 C113 1.419 . S
C115 C116 1.362 . S
C116 H108 0.930 . S
C116 C115 1.362 . S
C116 C119 1.409 . S
C117 H109 0.925 1_556 S
C117 C118 1.360 . S
C117 C119 1.414 1_556 S
C118 C117 1.360 . S
C118 C120 1.419 . S
C119 C114 1.425 1_554 S
C119 C116 1.409 . S
C119 C117 1.414 1_554 S
C120 H110 0.930 . S
C120 C118 1.419 . S
C120 C121 1.362 . S
C121 H111 0.930 . S
C121 C114 1.409 . S
C121 C120 1.362 . S
H122 C128 0.930 . S
H123 C131 0.930 . S
H124 C132 0.930 . S
H125 C133 0.937 . S
H126 C136 0.930 . S
H127 C137 0.930 . S
C128 H122 0.930 . S
C128 C129 1.355 . S
C128 C130 1.415 . S
C129 C128 1.355 . S
C129 C131 1.419 1_554 S
C130 C128 1.415 . S
C130 C135 1.425 1_554 S
C130 C137 1.409 . S
C131 H123 0.930 . S
C131 C129 1.419 1_556 S
C131 C132 1.362 . S
C132 H124 0.930 . S
C132 C131 1.362 . S
C132 C135 1.409 . S
C133 H125 0.937 . S
C133 C134 1.344 1_556 S
C133 C135 1.419 . S
C134 C133 1.344 1_554 S
C134 C136 1.419 . S
C135 C130 1.425 1_556 S
C135 C132 1.409 . S
C135 C133 1.419 . S
C136 H126 0.930 . S
C136 C134 1.419 . S
C136 C137 1.362 . S
C137 H127 0.930 . S
C137 C130 1.409 . S
C137 C136 1.362 . S
H138 C144 0.930 . S
H139 C147 0.929 1_554 S
H140 C148 0.930 1_554 S
H141 C149 0.930 . S
H142 C152 0.930 . S
H143 C153 0.930 . S
C144 H138 0.930 . S
C144 C145 1.355 . S
C144 C146 1.415 . S
C145 C144 1.355 . S
C145 C147 1.420 . S
C146 C144 1.415 . S
C146 C151 1.425 . S
C146 C153 1.409 . S
C147 H139 0.929 1_556 S
C147 C145 1.420 . S
C147 C148 1.362 . S
C148 H140 0.930 1_556 S
C148 C147 1.362 . S
C148 C151 1.409 . S
C149 H141 0.930 . S
C149 C150 1.355 . S
C149 C151 1.415 . S
C150 C149 1.355 . S
C150 C152 1.419 . S
C151 C146 1.425 . S
C151 C148 1.409 . S
C151 C149 1.415 . S
C152 H142 0.930 . S
C152 C150 1.419 . S
C152 C153 1.362 . S
C153 H143 0.930 . S
C153 C146 1.409 . S
C153 C152 1.362 . S
H154 C160 0.930 . S
H155 C163 0.930 . S
H156 C164 0.930 . S
H157 C165 0.930 . S
H158 C168 0.930 . S
H159 C169 0.930 . S
C160 H154 0.930 . S
C160 C161 1.355 . S
C160 C162 1.415 . S
C161 C160 1.355 . S
C161 C163 1.419 . S
C162 C160 1.415 . S
C162 C167 1.425 . S
C162 C169 1.409 . S
C163 H155 0.930 . S
C163 C161 1.419 . S
C163 C164 1.362 . S
C164 H156 0.930 . S
C164 C163 1.362 . S
C164 C167 1.409 . S
C165 H157 0.930 . S
C165 C166 1.355 . S
C165 C167 1.415 . S
C166 C165 1.355 . S
C166 C168 1.419 . S
C167 C162 1.425 . S
C167 C164 1.409 . S
C167 C165 1.415 . S
C168 H158 0.930 . S
C168 C166 1.419 . S
C168 C169 1.362 . S
C169 H159 0.930 . S
C169 C162 1.409 . S
C169 C168 1.362 . S
H170 C176 0.930 . S
H171 C179 0.930 . S
H172 C180 0.930 . S
H173 C181 0.930 . S
H174 C184 0.930 . S
H175 C185 0.930 . S
C176 H170 0.930 . S
C176 C177 1.355 . S
C176 C178 1.415 . S
C177 C176 1.355 . S
C177 C179 1.419 . S
C178 C176 1.415 . S
C178 C183 1.425 . S
C178 C185 1.409 . S
C179 H171 0.930 . S
C179 C177 1.419 . S
C179 C180 1.362 . S
C180 H172 0.930 . S
C180 C179 1.362 . S
C180 C183 1.409 . S
C181 H173 0.930 . S
C181 C182 1.355 . S
C181 C183 1.415 . S
C182 C181 1.355 . S
C182 C184 1.419 . S
C183 C178 1.425 . S
C183 C180 1.409 . S
C183 C181 1.415 . S
C184 H174 0.930 . S
C184 C182 1.419 . S
C184 C185 1.362 . S
C185 H175 0.930 . S
C185 C178 1.409 . S
C185 C184 1.362 . S
H186 C192 0.930 . S
H187 C195 0.930 . S
H188 C196 0.930 . S
H189 C197 0.930 . S
H190 C200 0.930 . S
H191 C201 0.930 . S
C192 H186 0.930 . S
C192 C193 1.355 . S
C192 C194 1.415 . S
C193 C192 1.355 . S
C193 C195 1.419 . S
C194 C192 1.415 . S
C194 C199 1.425 . S
C194 C201 1.409 . S
C195 H187 0.930 . S
C195 C193 1.419 . S
C195 C196 1.362 . S
C196 H188 0.930 . S
C196 C195 1.362 . S
C196 C199 1.409 . S
C197 H189 0.930 . S
C197 C198 1.355 . S
C197 C199 1.415 . S
C198 C197 1.355 . S
C198 C200 1.419 . S
C199 C194 1.425 . S
C199 C196 1.409 . S
C199 C197 1.415 . S
C200 H190 0.930 . S
C200 C198 1.419 . S
C200 C201 1.362 . S
C201 H191 0.930 . S
C201 C194 1.409 . S
C201 C200 1.362 . S
H202 C208 0.930 . S
H203 C211 0.930 . S
H204 C212 0.930 . S
H205 C213 0.930 . S
H206 C216 0.930 . S
H207 C217 0.930 . S
C208 H202 0.930 . S
C208 C209 1.355 . S
C208 C210 1.415 . S
C209 C208 1.355 . S
C209 C211 1.419 . S
C210 C208 1.415 . S
C210 C215 1.425 . S
C210 C217 1.409 . S
C211 H203 0.930 . S
C211 C209 1.419 . S
C211 C212 1.362 . S
C212 H204 0.930 . S
C212 C211 1.362 . S
C212 C215 1.409 . S
C213 H205 0.930 . S
C213 C214 1.355 . S
C213 C215 1.415 . S
C214 C213 1.355 . S
C214 C216 1.419 . S
C215 C210 1.425 . S
C215 C212 1.409 . S
C215 C213 1.415 . S
C216 H206 0.930 . S
C216 C214 1.419 . S
C216 C217 1.362 . S
C217 H207 0.930 . S
C217 C210 1.409 . S
C217 C216 1.362 . S
H218 C224 0.930 . S
H219 C227 0.930 1_655 S
H220 C228 0.930 1_655 S
H221 C229 0.930 . S
H222 C232 0.930 . S
H223 C233 0.930 . S
C224 H218 0.930 . S
C224 C225 1.355 . S
C224 C226 1.415 . S
C225 C224 1.355 . S
C225 C227 1.419 1_565 S
C226 C224 1.415 . S
C226 C231 1.425 1_565 S
C226 C233 1.409 . S
C227 H219 0.930 1_455 S
C227 C225 1.419 1_545 S
C227 C228 1.362 . S
C228 H220 0.930 1_455 S
C228 C227 1.362 . S
C228 C231 1.409 . S
C229 H221 0.930 . S
C229 C230 1.355 1_545 S
C229 C231 1.415 . S
C230 C229 1.355 1_565 S
C230 C232 1.419 . S
C231 C226 1.425 1_545 S
C231 C228 1.409 . S
C231 C229 1.415 . S
C232 H222 0.930 . S
C232 C230 1.419 . S
C232 C233 1.362 . S
C233 H223 0.930 . S
C233 C226 1.409 . S
C233 C232 1.362 . S
H234 C240 0.930 1_655 S
H235 C243 0.930 . S
H236 C244 0.930 . S
H237 C245 0.930 . S
H238 C248 0.930 . S
H239 C249 0.930 . S
C240 H234 0.930 1_455 S
C240 C241 1.355 1_565 S
C240 C242 1.415 1_465 S
C241 C240 1.355 1_545 S
C241 C243 1.419 . S
C242 C240 1.415 1_645 S
C242 C247 1.425 1_655 S
C242 C249 1.409 1_545 S
C243 H235 0.930 . S
C243 C241 1.419 . S
C243 C244 1.362 . S
C244 H236 0.930 . S
C244 C243 1.362 . S
C244 C247 1.409 . S
C245 H237 0.930 . S
C245 C246 1.355 1_455 S
C245 C247 1.415 . S
C246 C245 1.355 1_655 S
C246 C248 1.419 1_545 S
C247 C242 1.425 1_455 S
C247 C244 1.409 . S
C247 C245 1.415 . S
C248 H238 0.930 . S
C248 C246 1.419 1_565 S
C248 C249 1.362 . S
C249 H239 0.930 . S
C249 C242 1.409 1_565 S
C249 C248 1.362 . S
H250 C256 0.930 . S
H251 C259 0.930 . S
H252 C260 0.930 . S
H253 C261 0.930 . S
H254 C264 0.930 . S
H255 C265 0.930 . S
C256 H250 0.930 . S
C256 C257 1.355 . S
C256 C258 1.415 . S
C257 C256 1.355 . S
C257 C259 1.419 . S
C258 C256 1.415 . S
C258 C263 1.425 . S
C258 C265 1.409 . S
C259 H251 0.930 . S
C259 C257 1.419 . S
C259 C260 1.362 . S
C260 H252 0.930 . S
C260 C259 1.362 . S
C260 C263 1.409 . S
C261 H253 0.930 . S
C261 C262 1.355 . S
C261 C263 1.415 . S
C262 C261 1.355 . S
C262 C264 1.419 . S
C263 C258 1.425 . S
C263 C260 1.409 . S
C263 C261 1.415 . S
C264 H254 0.930 . S
C264 C262 1.419 . S
C264 C265 1.362 . S
C265 H255 0.930 . S
C265 C258 1.409 . S
C265 C264 1.362 . S
H266 C272 0.930 . S
H267 C275 0.930 . S
H268 C276 0.930 . S
H269 C277 0.930 . S
H270 C280 0.930 . S
H271 C281 0.930 . S
C272 H266 0.930 . S
C272 C273 1.355 . S
C272 C274 1.415 . S
C273 C272 1.355 . S
C273 C275 1.419 . S
C274 C272 1.415 . S
C274 C279 1.425 . S
C274 C281 1.409 . S
C275 H267 0.930 . S
C275 C273 1.419 . S
C275 C276 1.362 . S
C276 H268 0.930 . S
C276 C275 1.362 . S
C276 C279 1.409 . S
C277 H269 0.930 . S
C277 C278 1.355 . S
C277 C279 1.415 . S
C278 C277 1.355 . S
C278 C280 1.419 . S
C279 C274 1.425 . S
C279 C276 1.409 . S
C279 C277 1.415 . S
C280 H270 0.930 . S
C280 C278 1.419 . S
C280 C281 1.362 . S
C281 H271 0.930 . S
C281 C274 1.409 . S
C281 C280 1.362 . S
C102 C84 1.446 . S
C97 C16 1.349 . S
C113 C15 1.471 . S
C118 C70 1.406 . S
C129 C13 1.205 1_554 S
C134 C82 1.393 . S
C145 C14 1.414 . S
C150 C72 1.444 . S
C161 C37 1.340 . S
C166 C60 1.449 . S
C177 C36 1.418 . S
C182 C46 1.396 . S
C198 C58 1.458 . S
C193 C34 1.335 . S
C214 C48 1.455 . S
C209 C35 1.457 . S
C225 C17 1.588 1_565 S
C230 C51 1.605 . S
C241 C18 1.418 . S
C246 C63 1.409 . S
C262 C75 1.613 . S
C257 C38 1.598 . S
C273 C39 1.363 . S
C278 C87 1.433 . S
