# Generated by pormake.
# Topology zzz, (3,6)-cn, num edge types: 1
# Building blocks:
#     Node 0, Type 0, BuildingBlock: QEWDON_clean_linker_0, # of connection points: 3
#     Node 1, Type 0, BuildingBlock: QEWDON_clean_linker_0, # of connection points: 3
#     Node 2, Type 0, BuildingBlock: QEWDON_clean_linker_0, # of connection points: 3
#     Node 3, Type 0, BuildingBlock: QEWDON_clean_linker_0, # of connection points: 3
#     Node 4, Type 0, BuildingBlock: QEWDON_clean_linker_0, # of connection points: 3
#     Node 5, Type 0, BuildingBlock: QEWDON_clean_linker_0, # of connection points: 3
#     Node 6, Type 0, BuildingBlock: QEWDON_clean_linker_0, # of connection points: 3
#     Node 7, Type 0, BuildingBlock: QEWDON_clean_linker_0, # of connection points: 3
#     Node 8, Type 1, BuildingBlock: MIFKUJ_clean_sbu_0, # of connection points: 6
#     Node 9, Type 1, BuildingBlock: MIFKUJ_clean_sbu_0, # of connection points: 6
#     Node 10, Type 1, BuildingBlock: MIFKUJ_clean_sbu_0, # of connection points: 6
#     Node 11, Type 1, BuildingBlock: MIFKUJ_clean_sbu_0, # of connection points: 6
#     Edge 12, Type (0, 1), BuildingBlock: KIFKEQ_clean_linker_1, # of connection points: 2
#     Edge 13, Type (0, 1), BuildingBlock: KIFKEQ_clean_linker_1, # of connection points: 2
#     Edge 14, Type (0, 1), BuildingBlock: KIFKEQ_clean_linker_1, # of connection points: 2
#     Edge 15, Type (0, 1), BuildingBlock: KIFKEQ_clean_linker_1, # of connection points: 2
#     Edge 16, Type (0, 1), BuildingBlock: KIFKEQ_clean_linker_1, # of connection points: 2
#     Edge 17, Type (0, 1), BuildingBlock: KIFKEQ_clean_linker_1, # of connection points: 2
#     Edge 18, Type (0, 1), BuildingBlock: KIFKEQ_clean_linker_1, # of connection points: 2
#     Edge 19, Type (0, 1), BuildingBlock: KIFKEQ_clean_linker_1, # of connection points: 2
#     Edge 20, Type (0, 1), BuildingBlock: KIFKEQ_clean_linker_1, # of connection points: 2
#     Edge 21, Type (0, 1), BuildingBlock: KIFKEQ_clean_linker_1, # of connection points: 2
#     Edge 22, Type (0, 1), BuildingBlock: KIFKEQ_clean_linker_1, # of connection points: 2
#     Edge 23, Type (0, 1), BuildingBlock: KIFKEQ_clean_linker_1, # of connection points: 2
#     Edge 24, Type (0, 1), BuildingBlock: KIFKEQ_clean_linker_1, # of connection points: 2
#     Edge 25, Type (0, 1), BuildingBlock: KIFKEQ_clean_linker_1, # of connection points: 2
#     Edge 26, Type (0, 1), BuildingBlock: KIFKEQ_clean_linker_1, # of connection points: 2
#     Edge 27, Type (0, 1), BuildingBlock: KIFKEQ_clean_linker_1, # of connection points: 2
#     Edge 28, Type (0, 1), BuildingBlock: KIFKEQ_clean_linker_1, # of connection points: 2
#     Edge 29, Type (0, 1), BuildingBlock: KIFKEQ_clean_linker_1, # of connection points: 2
#     Edge 30, Type (0, 1), BuildingBlock: KIFKEQ_clean_linker_1, # of connection points: 2
#     Edge 31, Type (0, 1), BuildingBlock: KIFKEQ_clean_linker_1, # of connection points: 2
#     Edge 32, Type (0, 1), BuildingBlock: KIFKEQ_clean_linker_1, # of connection points: 2
#     Edge 33, Type (0, 1), BuildingBlock: KIFKEQ_clean_linker_1, # of connection points: 2
#     Edge 34, Type (0, 1), BuildingBlock: KIFKEQ_clean_linker_1, # of connection points: 2
#     Edge 35, Type (0, 1), BuildingBlock: KIFKEQ_clean_linker_1, # of connection points: 2
# Relax obj value: 0.053
# Max RMSD: 0.101
# Mean RMSD: 0.040
data_MOF--net-zzz--node1-MIFKUJ_clean_sbu_0--node2-QEWDON_clean_linker_0--edge1-KIFKEQ_clean_linker_1
_symmetry_space_group_name_H-M    P1
_symmetry_Int_Tables_number       1
_symmetry_cell_setting            triclinic
loop_
_symmetry_equiv_pos_as_xyz
'x, y, z'
_cell_length_a     55.186508
_cell_length_b     55.501796
_cell_length_c     16.08066
_cell_angle_alpha  89.399548
_cell_angle_beta   89.944588
_cell_angle_gamma 89.941383
loop_
_atom_site_label
_atom_site_type_symbol
_atom_site_fract_x
_atom_site_fract_y
_atom_site_fract_z
_atom_type_partial_charge
H0 H 0.75799 0.50257 0.95881 0.0
C1 C 0.76787 0.50077 0.0167 0.0
C2 C 0.79028 0.48869 0.01698 0.0
C3 C 0.75913 0.51211 0.08901 0.0
H4 H 0.82143 0.47929 0.09179 0.0
C5 C 0.8035 0.48731 0.09126 0.0
C6 C 0.79547 0.49871 0.16307 0.0
C7 C 0.77325 0.51097 0.16236 0.0
C8 C 0.73668 0.52717 0.08495 0.0
H9 H 0.76738 0.51999 0.21829 0.0
C10 C 0.71685 0.52056 0.03446 0.0
C11 C 0.69637 0.53568 0.02653 0.0
C12 C 0.73549 0.54904 0.12827 0.0
H13 H 0.75052 0.55514 0.16573 0.0
C14 C 0.71518 0.56387 0.1216 0.0
H15 H 0.71723 0.50359 0.00189 0.0
C16 C 0.69584 0.55737 0.07097 0.0
H17 H 0.68067 0.56967 0.06527 0.0
H18 H 0.71462 0.58075 0.15469 0.0
H19 H 0.98804 0.75398 0.95318 0.0
C20 C 0.98988 0.76241 0.0133 0.0
C21 C 1.00213 0.78452 0.01873 0.0
C22 C 0.97867 0.752 0.08401 0.0
H23 H 0.01178 0.81353 0.10055 0.0
C24 C 1.00357 0.79583 0.09598 0.0
C25 C 0.99211 0.78612 0.16604 0.0
C26 C 0.9798 0.76419 0.1605 0.0
C27 C 0.96417 0.72955 0.0761 0.0
H28 H 0.9708 0.75698 0.21522 0.0
C29 C 0.97197 0.71079 0.02404 0.0
C30 C 0.95762 0.69014 0.013 0.0
C31 C 0.94191 0.72712 0.11812 0.0
H32 H 0.93507 0.74136 0.15722 0.0
C33 C 0.92781 0.7065 0.10839 0.0
H34 H 0.98905 0.71239 0.99116 0.0
C35 C 0.93553 0.68815 0.05606 0.0
H36 H 0.92425 0.67231 0.04962 0.0
H37 H 0.91071 0.70484 0.14096 0.0
H38 H 0.76393 0.00425 0.96663 0.0
C39 C 0.75382 0.0095 0.02131 0.0
C40 C 0.73061 0.0193 0.01102 0.0
C41 C 0.76351 0.00578 0.1017 0.0
H42 H 0.6983 0.03128 0.07228 0.0
C43 C 0.71676 0.02494 0.08079 0.0
C44 C 0.72531 0.02035 0.16106 0.0
C45 C 0.7488 0.01099 0.17165 0.0
C46 C 0.78852 0.99575 0.11202 0.0
H47 H 0.75545 0.00795 0.2342 0.0
C48 C 0.80702 1.00124 0.05388 0.0
C49 C 0.83053 0.99175 0.06346 0.0
C50 C 0.7941 0.9804 0.17963 0.0
H51 H 0.78037 0.97511 0.22429 0.0
C52 C 0.81747 0.9712 0.18978 0.0
H53 H 0.8034 0.01329 0.00195 0.0
C54 C 0.8356 0.97686 0.13239 0.0
H55 H 0.85351 0.96922 0.14098 0.0
H56 H 0.82149 0.95942 0.24204 0.0
H57 H 0.50979 0.75448 0.95227 0.0
C58 C 0.50474 0.74489 0.0087 0.0
C59 C 0.49277 0.72272 0.00238 0.0
C60 C 0.51146 0.75388 0.08705 0.0
H61 H 0.47929 0.69185 0.06917 0.0
C62 C 0.4873 0.70961 0.07462 0.0
C63 C 0.49457 0.71759 0.15285 0.0
C64 C 0.50655 0.73984 0.15913 0.0
C65 C 0.52532 0.77689 0.09212 0.0
H66 H 0.51216 0.746 0.21984 0.0
C67 C 0.52 0.79651 0.03842 0.0
C68 C 0.53403 0.81775 0.03971 0.0
C69 C 0.54473 0.77899 0.14818 0.0
H70 H 0.54971 0.76417 0.18903 0.0
C71 C 0.55853 0.8 0.15035 0.0
H72 H 0.50476 0.79534 -0.00373 0.0
C73 C 0.55337 0.81916 0.09644 0.0
H74 H 0.5649 0.83492 0.09823 0.0
H75 H 0.57359 0.80128 0.19318 0.0
H76 H 0.26908 0.52409 0.21169 0.0
C77 C 0.25759 0.51669 0.16376 0.0
C78 C 0.23242 0.51689 0.17524 0.0
C79 C 0.26766 0.5079 0.08908 0.0
H80 H 0.19779 0.50821 0.12272 0.0
C81 C 0.21728 0.50781 0.11351 0.0
C82 C 0.22667 0.49901 0.03922 0.0
C83 C 0.25186 0.49908 0.02694 0.0
C84 C 0.29442 0.50865 0.07456 0.0
H85 H 0.25898 0.49213 0.96918 0.0
C86 C 0.31107 0.50519 0.14048 0.0
C87 C 0.3362 0.5055 0.12534 0.0
C88 C 0.30357 0.51298 -0.00608 0.0
H89 H 0.29155 0.51657 0.9421 0.0
C90 C 0.32847 0.51313 0.97894 0.0
H91 H 0.30465 0.50166 0.2031 0.0
C92 C 0.3447 0.50927 0.044 0.0
H93 H 0.36397 0.50963 0.03109 0.0
H94 H 0.33521 0.51641 0.91661 0.0
H95 H 0.99861 0.27012 0.22231 0.0
C96 C 0.00741 0.25925 0.17557 0.0
C97 C 0.01054 0.23452 0.19048 0.0
C98 C 0.01465 0.26952 0.09867 0.0
H99 H 0.02296 0.20093 0.1414 0.0
C100 C 0.02127 0.22017 0.12989 0.0
C101 C 0.02844 0.22985 0.05327 0.0
C102 C 0.02527 0.25457 0.03803 0.0
C103 C 0.01035 0.29552 0.07988 0.0
H104 H 0.03093 0.262 0.97857 0.0
C105 C 0.01303 0.31308 0.14189 0.0
C106 C 0.00976 0.33764 0.12277 0.0
C107 C 1.00371 0.30301 -0.00097 0.0
H108 H 1.00074 0.29003 0.95029 0.0
C109 C 1.00055 0.32739 0.98006 0.0
H110 H 0.0183 0.30783 0.20441 0.0
C111 C 1.00372 0.34466 0.04134 0.0
H112 H 1.00108 0.36351 0.02556 0.0
H113 H 0.99554 0.33291 0.91763 0.0
H114 H 0.25184 0.99226 0.19346 0.0
C115 C 0.26257 0.99953 0.14266 0.0
C116 C 0.2878 1.0007 0.15144 0.0
C117 C 0.25152 0.00672 0.0671 0.0
H118 H 0.32157 0.01011 0.09315 0.0
C119 C 0.30201 0.00952 0.08609 0.0
C120 C 0.29163 0.01657 0.0107 0.0
C121 C 0.26639 0.01516 0.00106 0.0
C122 C 0.22473 0.00454 0.05589 0.0
H123 H 0.25852 0.02074 0.94227 0.0
C124 C 0.20854 0.00843 0.12265 0.0
C125 C 0.18331 0.00636 0.1113 0.0
C126 C 0.21511 0.99826 0.97797 0.0
H127 H 0.22684 0.99437 0.92581 0.0
C128 C 0.19015 0.99641 0.96644 0.0
H129 H 0.21541 0.01354 0.18301 0.0
C130 C 0.17433 1.00049 0.03239 0.0
H131 H 0.15503 0.99855 0.02211 0.0
H132 H 0.18303 0.99155 0.9062 0.0
H133 H 0.52931 0.24428 0.21131 0.0
C134 C 0.52095 0.25542 0.16367 0.0
C135 C 0.51926 0.2803 0.17631 0.0
C136 C 0.513 0.24535 0.08804 0.0
H137 H 0.50864 0.31447 0.12453 0.0
C138 C 0.50932 0.29516 0.11463 0.0
C139 C 0.50149 0.28583 0.03909 0.0
C140 C 0.50315 0.26089 0.02613 0.0
C141 C 0.51622 0.21902 0.07155 0.0
H142 H 0.49686 0.25381 0.96752 0.0
C143 C 0.51493 0.20158 0.13631 0.0
C144 C 0.51859 0.17687 0.12004 0.0
C145 C 0.52126 0.21119 0.9903 0.0
H146 H 0.52332 0.22388 0.93923 0.0
C147 C 0.52418 0.18681 0.97353 0.0
H148 H 0.51129 0.20719 0.19934 0.0
C149 C 0.52275 0.16978 0.03747 0.0
H150 H 0.52486 0.15096 0.02186 0.0
H151 H 0.52777 0.18108 0.91055 0.0
Zn152 Zn 0.0121 0.04746 0.61617 0.0
Zn153 Zn 0.0087 0.97276 0.59007 0.0
C154 C 0.00987 0.08118 0.73809 0.0
O155 O 0.98733 0.07867 0.71337 0.0
C156 C 0.01278 0.93759 0.47157 0.0
O157 O 0.03536 0.94172 0.49299 0.0
O158 O 1.00106 0.07453 0.54045 0.0
O159 O 0.0392 0.03042 0.55653 0.0
O160 O 0.03766 0.99068 0.54346 0.0
C161 C 0.01794 0.08958 0.5257 0.0
O162 O 0.04 0.08438 0.55088 0.0
O163 O 0.02575 0.06671 0.71043 0.0
C164 C 1.00187 0.93358 0.69096 0.0
O165 O 0.98004 0.93968 0.66582 0.0
O166 O 0.01959 0.94717 0.67151 0.0
O167 O 0.98067 0.99008 0.64428 0.0
O168 O 0.98282 0.02967 0.66042 0.0
O169 O 0.99624 0.95123 0.49978 0.0
C170 C 0.04826 0.01074 0.53137 0.0
C171 C 0.97172 0.00978 0.66969 0.0
Zn172 Zn 0.47655 0.99475 0.56547 0.0
Zn173 Zn 0.53984 0.00974 0.61194 0.0
C174 C 0.43865 0.99813 0.67643 0.0
O175 O 0.43768 0.97581 0.65031 0.0
C176 C 0.57165 0.02659 0.49271 0.0
O177 O 0.56625 0.04571 0.53657 0.0
O178 O 0.44997 0.9843 0.48803 0.0
O179 O 0.49645 0.01864 0.4978 0.0
O180 O 0.5158 0.03714 0.59798 0.0
C181 C 0.43671 1.00196 0.46564 0.0
O182 O 0.44372 0.02389 0.48416 0.0
O183 O 0.45644 0.01131 0.65424 0.0
C184 C 0.58426 0.00366 0.68207 0.0
O185 O 0.58083 0.98427 0.63738 0.0
O186 O 0.5669 0.01862 0.68981 0.0
O187 O 0.52854 0.97719 0.65386 0.0
O188 O 0.49191 0.96515 0.6169 0.0
O189 O 0.55943 0.00741 0.50519 0.0
C190 C 0.50586 0.03767 0.52677 0.0
C191 C 0.51194 0.96134 0.65365 0.0
Zn192 Zn 0.51936 0.46779 0.57941 0.0
Zn193 Zn 0.5033 0.53311 0.60778 0.0
C194 C 0.52009 0.43512 0.7079 0.0
O195 O 0.54291 0.43818 0.68677 0.0
C196 C 0.48623 0.56452 0.48712 0.0
O197 O 0.46688 0.55924 0.53139 0.0
O198 O 0.53113 0.43987 0.51111 0.0
O199 O 0.49421 0.48461 0.5074 0.0
O200 O 0.47635 0.50852 0.59736 0.0
C201 C 0.5141 0.42511 0.49621 0.0
O202 O 0.49183 0.43111 0.51647 0.0
O203 O 0.5043 0.44904 0.67536 0.0
C204 C 0.50771 0.57787 0.67458 0.0
O205 O 0.52724 0.57523 0.62871 0.0
O206 O 0.4935 0.55998 0.68436 0.0
O207 O 0.53639 0.5229 0.6487 0.0
O208 O 0.54849 0.48566 0.62264 0.0
O209 O 0.50542 0.55221 0.49954 0.0
C210 C 0.47588 0.49681 0.52992 0.0
C211 C 0.55242 0.50646 0.65195 0.0
Zn212 Zn 0.04441 0.51734 0.58539 0.0
Zn213 Zn 0.98047 0.49826 0.61537 0.0
C214 C 0.07634 0.51725 0.71489 0.0
O215 O 0.07286 0.54007 0.69565 0.0
C216 C 0.95037 0.48639 0.4808 0.0
O217 O 0.95471 0.46487 0.51225 0.0
O218 O 0.07286 0.52989 0.51908 0.0
O219 O 0.02823 0.49313 0.50999 0.0
O220 O 0.00611 0.47281 0.60065 0.0
C221 C 0.08782 0.51304 0.50389 0.0
O222 O 0.08168 0.49078 0.52302 0.0
O223 O 0.0628 0.50162 0.68088 0.0
C224 C 0.93586 0.50114 0.68733 0.0
O225 O 0.93926 0.5223 0.65184 0.0
O226 O 0.95299 0.48577 0.68598 0.0
O227 O 0.9896 0.53029 0.66285 0.0
O228 O 0.02553 0.54552 0.6303 0.0
O229 O 0.9624 0.5042 0.50787 0.0
C230 C 0.0175 0.47385 0.53216 0.0
C231 C 1.00492 0.54732 0.66503 0.0
H232 H 0.18551 0.98633 0.26729 0.0
H233 H 0.14216 0.0336 0.11296 0.0
H234 H 0.15493 0.98864 0.37765 0.0
H235 H 0.11165 0.03586 0.22267 0.0
H236 H 0.07046 0.05016 0.46142 0.0
H237 H 0.10526 0.05083 0.36775 0.0
H238 H 0.11187 0.97357 0.392 0.0
H239 H 0.07709 0.9728 0.4859 0.0
C240 C 0.16964 0.99749 0.25755 0.0
C241 C 0.16615 0.00971 0.18149 0.0
C242 C 0.15207 0.99866 0.32034 0.0
C243 C 0.13086 0.01237 0.30873 0.0
C244 C 0.12787 0.0253 0.23381 0.0
C245 C 0.14525 0.02388 0.17077 0.0
C246 C 0.07948 0.03332 0.44773 0.0
C247 C 0.07082 0.01139 0.48088 0.0
C248 C 0.09936 0.03372 0.39366 0.0
C249 C 0.11123 0.01225 0.37219 0.0
C250 C 0.10321 0.99044 0.40785 0.0
C251 C 0.08317 0.98999 0.46125 0.0
H252 H 0.54738 0.13684 0.13518 0.0
H253 H 0.4895 0.17466 0.26008 0.0
H254 H 0.54454 0.10429 0.23718 0.0
H255 H 0.48764 0.1423 0.36481 0.0
H256 H 0.51415 0.0846 0.5716 0.0
H257 H 0.51784 0.11995 0.47889 0.0
H258 H 0.50741 0.07439 0.26626 0.0
H259 H 0.50319 0.03938 0.35784 0.0
C260 C 0.53404 0.1383 0.18427 0.0
C261 C 0.51833 0.15828 0.18803 0.0
C262 C 0.53259 0.11969 0.24309 0.0
C263 C 0.51577 0.12074 0.30835 0.0
C264 C 0.50084 0.14115 0.31512 0.0
C265 C 0.50199 0.15969 0.25522 0.0
C266 C 0.51263 0.0822 0.50506 0.0
C267 C 0.50838 0.0592 0.47207 0.0
C268 C 0.51462 0.1024 0.45225 0.0
C269 C 0.51297 0.09981 0.3656 0.0
C270 C 0.50889 0.07683 0.33282 0.0
C271 C 0.5064 0.05682 0.38539 0.0
H272 H 0.34205 0.53313 0.2632 0.0
H273 H 0.37052 0.47068 0.13947 0.0
H274 H 0.37505 0.53095 0.3645 0.0
H275 H 0.40266 0.46741 0.24271 0.0
H276 H 0.47345 0.48484 0.3665 0.0
H277 H 0.43867 0.48635 0.27488 0.0
H278 H 0.39413 0.51167 0.4775 0.0
H279 H 0.42958 0.51131 0.56847 0.0
C280 C 0.3551 0.51859 0.25915 0.0
C281 C 0.35392 0.50215 0.19358 0.0
C282 C 0.374 0.51725 0.31724 0.0
C283 C 0.3919 0.4992 0.31151 0.0
C284 C 0.38977 0.48202 0.24801 0.0
C285 C 0.3712 0.48367 0.18925 0.0
C286 C 0.45624 0.49072 0.3917 0.0
C287 C 0.4543 0.49786 0.47498 0.0
C288 C 0.43613 0.49139 0.33915 0.0
C289 C 0.4133 0.4988 0.36859 0.0
C290 C 0.41138 0.50606 0.45209 0.0
C291 C 0.43169 0.50575 0.50451 0.0
H292 H 0.98506 0.34102 0.26866 0.0
H293 H 0.04047 0.37578 0.12139 0.0
H294 H 0.98694 0.3736 0.36936 0.0
H295 H 0.04364 0.40765 0.22389 0.0
H296 H 0.0246 0.4748 0.36474 0.0
H297 H 0.02301 0.44133 0.26908 0.0
H298 H 0.00847 0.39254 0.47472 0.0
H299 H 0.00867 0.4265 0.56976 0.0
C300 C 0.99797 0.35548 0.25898 0.0
C301 C 0.01252 0.3561 0.18746 0.0
C302 C 0.99918 0.3741 0.31675 0.0
C303 C 0.01531 0.3935 0.30479 0.0
C304 C 0.03051 0.39346 0.23433 0.0
C305 C 0.02891 0.37511 0.17588 0.0
C306 C 0.02107 0.45691 0.3895 0.0
C307 C 0.0168 0.45326 0.47476 0.0
C308 C 0.02035 0.43761 0.33467 0.0
C309 C 0.01585 0.41404 0.36387 0.0
C310 C 0.01165 0.41042 0.44951 0.0
C311 C 0.0119 0.42986 0.50421 0.0
H312 H 0.8281 0.98707 0.89462 0.0
H313 H 0.87646 0.0077 0.09216 0.0
H314 H 0.86087 0.99289 0.79311 0.0
H315 H 0.90906 0.01376 0.9909 0.0
H316 H 0.95421 0.04415 0.77483 0.0
H317 H 0.91885 0.04148 0.86574 0.0
H318 H 0.90209 0.97143 0.76733 0.0
H319 H 0.93764 0.97388 0.67666 0.0
C320 C 0.84565 0.99314 0.91607 0.0
C321 C 0.84978 0.99692 0.00119 0.0
C322 C 0.8644 0.99631 0.85817 0.0
C323 C 0.88749 0.00378 0.88415 0.0
C324 C 0.8914 0.00817 0.96901 0.0
C325 C 0.87281 0.00459 0.02697 0.0
C326 C 0.94285 0.02829 0.77161 0.0
C327 C 0.94884 0.00919 0.7185 0.0
C328 C 0.92268 0.02673 0.82413 0.0
C329 C 0.90779 0.00622 0.82383 0.0
C330 C 0.91318 0.98751 0.76852 0.0
C331 C 0.9336 0.98889 0.71688 0.0
H332 H 0.51977 0.81602 0.87567 0.0
H333 H 0.53693 0.86615 0.07086 0.0
H334 H 0.51397 0.84977 0.77871 0.0
H335 H 0.53182 0.89961 0.97342 0.0
H336 H 0.54976 0.94991 0.75642 0.0
H337 H 0.55409 0.91478 0.84695 0.0
H338 H 0.48661 0.88636 0.75476 0.0
H339 H 0.4821 0.92169 0.66366 0.0
C340 C 0.52206 0.83418 0.8983 0.0
C341 C 0.52904 0.83826 0.98122 0.0
C342 C 0.51883 0.8535 0.84253 0.0
C343 C 0.52273 0.87732 0.86817 0.0
C344 C 0.52916 0.88143 0.95133 0.0
C345 C 0.53214 0.8622 0.00717 0.0
C346 C 0.53588 0.93614 0.75465 0.0
C347 C 0.5155 0.93876 0.70279 0.0
C348 C 0.53832 0.91605 0.80709 0.0
C349 C 0.52057 0.89792 0.80864 0.0
C350 C 0.50061 0.90002 0.75477 0.0
C351 C 0.49802 0.92029 0.70274 0.0
H352 H 0.69818 0.51504 0.87171 0.0
H353 H 0.64783 0.54221 0.05421 0.0
H354 H 0.66448 0.50771 0.77659 0.0
H355 H 0.61442 0.53536 0.95872 0.0
H356 H 0.56515 0.54706 0.73646 0.0
H357 H 0.60046 0.55309 0.82429 0.0
H358 H 0.62685 0.48231 0.76179 0.0
H359 H 0.59144 0.47615 0.67325 0.0
C360 C 0.67995 0.51918 0.89203 0.0
C361 C 0.6758 0.52943 0.97053 0.0
C362 C 0.66066 0.51507 0.83732 0.0
C363 C 0.63683 0.52127 0.85967 0.0
C364 C 0.63263 0.53089 0.93888 0.0
C365 C 0.65182 0.53482 -0.00635 0.0
C366 C 0.57855 0.53282 0.74052 0.0
C367 C 0.57531 0.51105 0.6979 0.0
C368 C 0.59873 0.53624 0.79148 0.0
C369 C 0.6163 0.51807 0.80082 0.0
C370 C 0.61365 0.49667 0.7557 0.0
C371 C 0.59332 0.49315 0.70508 0.0
H372 H 0.93016 0.66694 0.89808 0.0
H373 H 1.00266 0.66977 -0.00173 0.0
H374 H 0.94214 0.63393 0.80826 0.0
H375 H 0.01466 0.63647 0.90884 0.0
H376 H 0.03224 0.58825 0.68607 0.0
H377 H 0.02136 0.62418 0.76464 0.0
H378 H 0.95235 0.59203 0.82708 0.0
H379 H 0.96287 0.55663 0.74803 0.0
C380 C 0.94865 0.66041 0.90114 0.0
C381 C 0.9654 0.67078 0.95583 0.0
C382 C 0.95552 0.6415 0.84968 0.0
C383 C 0.9793 0.63241 0.85189 0.0
C384 C 0.99627 0.64321 0.90499 0.0
C385 C 0.98939 0.66223 0.95637 0.0
C386 C 0.01469 0.58895 0.71611 0.0
C387 C 0.99841 0.56956 0.71028 0.0
C388 C 0.00852 0.60947 0.76152 0.0
C389 C 0.98594 0.61102 0.80185 0.0
C390 C 0.96969 0.59166 0.79557 0.0
C391 C 0.97582 0.57124 0.7504 0.0
H392 H 0.03113 0.2359 0.34364 0.0
H393 H 0.97277 0.20402 0.20528 0.0
H394 H 0.02859 0.20319 0.44637 0.0
H395 H 0.97069 0.1709 0.30511 0.0
H396 H 0.97369 0.11039 0.49276 0.0
H397 H 0.96603 0.1509 0.43701 0.0
H398 H 0.04325 0.16334 0.4223 0.0
H399 H 0.05076 0.12352 0.4793 0.0
C400 C 0.01698 0.22251 0.33764 0.0
C401 C 1.00219 0.2223 0.26695 0.0
C402 C 0.01577 0.20354 0.39543 0.0
C403 C 0.99998 0.18399 0.38243 0.0
C404 C 0.98308 0.18555 0.31727 0.0
C405 C 0.98417 0.2046 0.26008 0.0
C406 C 0.98897 0.12186 0.47761 0.0
C407 C 0.01283 0.11366 0.48961 0.0
C408 C 0.98459 0.1451 0.44615 0.0
C409 C 1.004 0.16054 0.42601 0.0
C410 C 0.0278 0.1523 0.43913 0.0
C411 C 0.03214 0.12923 0.47067 0.0
H412 H 0.2895 0.02307 0.30053 0.0
H413 H 0.31629 0.96146 0.16791 0.0
H414 H 0.32324 0.01955 0.3985 0.0
H415 H 0.35035 0.95822 0.26333 0.0
H416 H 0.40513 0.03625 0.41222 0.0
H417 H 0.36417 0.03092 0.36207 0.0
H418 H 0.37087 0.95384 0.3959 0.0
H419 H 0.41245 0.95921 0.44524 0.0
C420 C 0.30195 0.00807 0.29504 0.0
C421 C 0.30051 0.99258 0.22705 0.0
C422 C 0.32148 0.00624 0.35008 0.0
C423 C 0.33987 0.98907 0.33704 0.0
C424 C 0.33658 0.97166 0.27526 0.0
C425 C 0.31702 0.97343 0.22066 0.0
C426 C 0.39794 0.01813 0.40908 0.0
C427 C 0.41217 0.99813 0.43169 0.0
C428 C 0.37424 0.01509 0.38161 0.0
C429 C 0.36405 0.99196 0.37615 0.0
C430 C 0.3782 0.97189 0.39941 0.0
C431 C 0.40205 0.97495 0.42703 0.0
H432 H 0.49918 0.27864 0.33046 0.0
H433 H 0.55774 0.30997 0.18888 0.0
H434 H 0.50255 0.31097 0.43195 0.0
H435 H 0.56066 0.3427 0.28753 0.0
H436 H 0.55822 0.40352 0.46855 0.0
H437 H 0.56555 0.36264 0.41841 0.0
H438 H 0.48823 0.35097 0.40381 0.0
H439 H 0.48104 0.39113 0.4551 0.0
C440 C 0.51356 0.29179 0.3235 0.0
C441 C 0.5281 0.29205 0.25209 0.0
C442 C 0.51526 0.31053 0.38064 0.0
C443 C 0.53131 0.32988 0.36624 0.0
C444 C 0.54806 0.32821 0.30067 0.0
C445 C 0.54647 0.3094 0.24411 0.0
C446 C 0.54286 0.39211 0.4548 0.0
C447 C 0.51906 0.40066 0.46481 0.0
C448 C 0.54704 0.36868 0.42658 0.0
C449 C 0.5275 0.35337 0.40789 0.0
C450 C 0.50377 0.36192 0.41959 0.0
C451 C 0.49961 0.38519 0.44779 0.0
H452 H 0.20222 0.55506 0.1861 0.0
H453 H 0.23496 0.49817 0.33186 0.0
H454 H 0.16987 0.55864 0.28775 0.0
H455 H 0.20301 0.50223 0.43628 0.0
H456 H 0.10918 0.55698 0.47207 0.0
H457 H 0.15024 0.56431 0.41962 0.0
H458 H 0.16286 0.48746 0.41329 0.0
H459 H 0.12256 0.48028 0.46671 0.0
C460 C 0.20317 0.54429 0.24261 0.0
C461 C 0.22076 0.52612 0.25099 0.0
C462 C 0.1846 0.54628 0.30099 0.0
C463 C 0.18341 0.53017 0.36885 0.0
C464 C 0.20307 0.51444 0.38329 0.0
C465 C 0.22159 0.51233 0.32436 0.0
C466 C 0.12085 0.54173 0.45978 0.0
C467 C 0.1125 0.51805 0.47243 0.0
C468 C 0.14439 0.54591 0.43022 0.0
C469 C 0.15998 0.5265 0.41291 0.0
C470 C 0.15169 0.50291 0.42781 0.0
C471 C 0.12832 0.49876 0.45725 0.0
H472 H 0.97683 0.79002 0.87391 0.0
H473 H 0.04307 0.81167 -0.00523 0.0
H474 H 0.98069 0.82362 0.77678 0.0
H475 H 0.04608 0.84625 0.90104 0.0
H476 H 0.04448 0.90853 0.71303 0.0
H477 H 0.04909 0.86752 0.7691 0.0
H478 H 0.97189 0.86438 0.81386 0.0
H479 H 0.96732 0.90461 0.75694 0.0
C480 C 0.9927 0.80139 0.87797 0.0
C481 C 0.00927 0.7986 0.94359 0.0
C482 C 0.99471 0.82094 0.82311 0.0
C483 C 0.0131 0.83819 0.83358 0.0
C484 C 0.03151 0.83351 0.89182 0.0
C485 C 0.02971 0.81374 0.94589 0.0
C486 C 0.02859 0.89902 0.73532 0.0
C487 C 1.00555 0.90979 0.73085 0.0
C488 C 0.03119 0.87551 0.76686 0.0
C489 C 0.01081 0.86245 0.79438 0.0
C490 C 0.98791 0.87352 0.79072 0.0
C491 C 0.98532 0.8968 0.75917 0.0
H492 H 0.72094 0.98203 0.90958 0.0
H493 H 0.71131 0.05871 0.93439 0.0
H494 H 0.68756 0.98079 0.81108 0.0
H495 H 0.67826 0.05783 0.83353 0.0
H496 H 0.59739 0.03612 0.80089 0.0
H497 H 0.63793 0.04288 0.85631 0.0
H498 H 0.66709 0.99077 0.68494 0.0
H499 H 0.62655 0.98345 0.63193 0.0
C500 C 0.71251 0.99881 0.89024 0.0
C501 C 0.71846 0.02042 0.92957 0.0
C502 C 0.69325 0.99815 0.83411 0.0
C503 C 0.6798 0.01915 0.81617 0.0
C504 C 0.68783 0.04125 0.84787 0.0
C505 C 0.70696 0.04186 0.90446 0.0
C506 C 0.61251 0.02623 0.775 0.0
C507 C 0.60875 0.00891 0.71358 0.0
C508 C 0.6358 0.03029 0.80587 0.0
C509 C 0.6558 0.01731 0.77507 0.0
C510 C 0.65207 1.00078 0.71093 0.0
C511 C 0.6288 0.99654 0.68082 0.0
H512 H 0.45212 0.70191 0.93901 0.0
H513 H 0.52795 0.71417 0.88913 0.0
H514 H 0.45184 0.66916 0.8387 0.0
H515 H 0.52801 0.68126 0.7909 0.0
H516 H 0.52416 0.62076 0.6155 0.0
H517 H 0.51583 0.66077 0.66875 0.0
H518 H 0.46889 0.62954 0.85636 0.0
H519 H 0.47661 0.5895 0.80075 0.0
C520 C 0.46846 0.69818 0.904 0.0
C521 C 0.49011 0.71033 0.92211 0.0
C522 C 0.46841 0.67925 0.84753 0.0
C523 C 0.49005 0.67213 0.80863 0.0
C524 C 0.51098 0.68623 0.81957 0.0
C525 C 0.51097 0.70524 0.87565 0.0
C526 C 0.51197 0.62246 0.66796 0.0
C527 C 0.50142 0.60199 0.70536 0.0
C528 C 0.50714 0.64541 0.69821 0.0
C529 C 0.49186 0.64841 0.76718 0.0
C530 C 0.48049 0.62796 0.80234 0.0
C531 C 0.48511 0.60497 0.77128 0.0
H532 H 0.81907 0.44927 0.98809 0.0
H533 H 0.79042 0.51321 0.86815 0.0
H534 H 0.85244 0.44883 0.88996 0.0
H535 H 0.82236 0.51135 0.7649 0.0
H536 H 0.90163 0.53277 0.73584 0.0
H537 H 0.86168 0.52441 0.78991 0.0
H538 H 0.87472 0.44788 0.76599 0.0
H539 H 0.91565 0.45653 0.7147 0.0
C540 C 0.8193 0.46263 0.93847 0.0
C541 C 0.80279 0.48197 0.93858 0.0
C542 C 0.8384 0.46226 0.88151 0.0
C543 C 0.84081 0.48082 0.82195 0.0
C544 C 0.82171 0.49748 0.81271 0.0
C545 C 0.80302 0.49826 0.87115 0.0
C546 C 0.89599 0.51414 0.74196 0.0
C547 C 0.91183 0.49531 0.72198 0.0
C548 C 0.87283 0.50929 0.77174 0.0
C549 C 0.86463 0.48542 0.7812 0.0
C550 C 0.88042 0.46648 0.75996 0.0
C551 C 0.90388 0.47139 0.73102 0.0
H552 H 0.01063 0.228 0.89595 0.0
H553 H 0.06127 0.19299 0.06233 0.0
H554 H 0.01089 0.19261 0.8074 0.0
H555 H 0.061 0.15728 0.97496 0.0
H556 H 0.0557 0.09692 0.77773 0.0
H557 H 0.0666 0.13603 0.83699 0.0
H558 H 0.99072 0.15445 0.85404 0.0
H559 H 0.97988 0.11588 0.79588 0.0
C560 C 0.02259 0.21317 0.91174 0.0
C561 C 0.03554 0.213 0.98678 0.0
C562 C 0.02252 0.19278 0.86165 0.0
C563 C 0.03538 0.17198 0.88587 0.0
C564 C 0.05079 0.17299 0.9551 0.0
C565 C 0.05089 0.1934 0.00517 0.0
C566 C 0.0414 0.10929 0.79492 0.0
C567 C 0.01692 0.10331 0.78214 0.0
C568 C 0.04765 0.13169 0.82813 0.0
C569 C 0.02953 0.14849 0.84805 0.0
C570 C 1.00513 0.14219 0.83687 0.0
C571 C 0.9989 0.1199 0.80457 0.0
H572 H 0.2962 0.99298 0.86504 0.0
H573 H 0.32537 0.05231 0.00354 0.0
H574 H 0.33126 0.99391 0.7736 0.0
H575 H 0.36016 0.05427 0.90969 0.0
H576 H 0.43351 0.0206 0.8261 0.0
H577 H 0.39529 0.03106 0.89401 0.0
H578 H 0.3562 0.01049 0.67262 0.0
H579 H 0.39424 0.99865 0.6082 0.0
C580 C 0.30962 0.00699 0.87323 0.0
C581 C 0.30814 0.02255 0.94104 0.0
C582 C 0.32986 0.00756 0.82093 0.0
C583 C 0.34895 0.02394 0.8348 0.0
C584 C 0.34622 0.041 0.89828 0.0
C585 C 0.32612 0.04017 0.95126 0.0
C586 C 0.4167 0.01876 0.79203 0.0
C587 C 0.41664 0.00865 0.71267 0.0
C588 C 0.39475 0.02487 0.83045 0.0
C589 C 0.37243 0.02135 0.78937 0.0
C590 C 0.37282 0.01285 0.70729 0.0
C591 C 0.39464 0.00625 0.66996 0.0
H592 H 0.52012 0.28819 0.88256 0.0
H593 H 0.46941 0.32333 0.04593 0.0
H594 H 0.52035 0.32379 0.79198 0.0
H595 H 0.46993 0.35912 0.9561 0.0
H596 H 0.47429 0.41871 0.74882 0.0
H597 H 0.46391 0.37979 0.81406 0.0
H598 H 0.54001 0.36261 0.83408 0.0
H599 H 0.55033 0.40098 0.77065 0.0
C600 C 0.50825 0.30311 0.89724 0.0
C601 C 0.495 0.30313 0.97173 0.0
C602 C 0.5086 0.32362 0.84601 0.0
C603 C 0.49563 0.34444 0.86822 0.0
C604 C 0.48017 0.34341 0.93754 0.0
C605 C 0.47989 0.32292 0.98895 0.0
C606 C 0.48874 0.40667 0.76795 0.0
C607 C 0.51314 0.413 0.75456 0.0
C608 C 0.4828 0.38436 0.80468 0.0
C609 C 0.50114 0.36793 0.82733 0.0
C610 C 0.52543 0.37456 0.81519 0.0
C611 C 0.53134 0.39677 0.77969 0.0
H612 H 0.18901 0.46733 0.04953 0.0
H613 H 0.22433 0.51735 0.88199 0.0
H614 H 0.15303 0.46762 0.96092 0.0
H615 H 0.18845 0.5175 0.79283 0.0
H616 H 0.11042 0.54731 0.77655 0.0
H617 H 0.14915 0.53707 0.83801 0.0
H618 H 0.13255 0.46138 0.81793 0.0
H619 H 0.09329 0.47165 0.75436 0.0
C620 C 0.18941 0.47759 -0.00815 0.0
C621 C 0.2093 0.49253 0.9729 0.0
C622 C 0.16882 0.47776 0.94119 0.0
C623 C 0.16777 0.49298 0.87106 0.0
C624 C 0.18867 0.50588 0.84739 0.0
C625 C 0.20931 0.5056 0.8978 0.0
C626 C 0.11483 0.52842 0.78513 0.0
C627 C 0.09866 0.5103 0.76047 0.0
C628 C 0.13725 0.52257 0.81949 0.0
C629 C 0.14413 0.49843 0.83104 0.0
C630 C 0.12777 0.48015 0.80889 0.0
C631 C 0.10528 0.48604 0.77316 0.0
H632 H 0.95457 0.81455 0.2084 0.0
H633 H 0.02678 0.79393 0.28185 0.0
H634 H 0.95757 0.85093 0.29162 0.0
H635 H 0.02963 0.82971 0.36852 0.0
H636 H 0.04292 0.91017 0.37908 0.0
H637 H 0.03534 0.87036 0.32395 0.0
H638 H 0.9621 0.87271 0.41931 0.0
H639 H 0.96961 0.91316 0.4726 0.0
C640 C 0.97056 0.81723 0.24623 0.0
C641 C 0.99039 0.80153 0.23962 0.0
C642 C 0.97239 0.83814 0.29349 0.0
C643 C 0.9941 0.84356 0.33499 0.0
C644 C 0.01291 0.8264 0.33532 0.0
C645 C 0.01118 0.80568 0.2872 0.0
C646 C 0.02513 0.90229 0.38764 0.0
C647 C 0.00684 0.91482 0.42974 0.0
C648 C 0.02086 0.87928 0.35718 0.0
C649 C 0.99827 0.86804 0.36887 0.0
C650 C 0.97971 0.88082 0.40929 0.0
C651 C 0.98395 0.90404 0.4393 0.0
H652 H 0.69917 0.06017 0.1988 0.0
H653 H 0.71118 0.98645 0.27553 0.0
H654 H 0.66252 0.06159 0.28233 0.0
H655 H 0.67473 0.98797 0.3625 0.0
H656 H 0.59179 0.98921 0.40489 0.0
H657 H 0.6316 0.9883 0.33799 0.0
H658 H 0.6443 0.06166 0.41411 0.0
H659 H 0.60445 0.06289 0.4772 0.0
C660 C 0.69437 0.04454 0.23624 0.0
C661 C 0.70799 0.02323 0.2308 0.0
C662 C 0.67331 0.04529 0.28416 0.0
C663 C 0.66537 0.02476 0.32841 0.0
C664 C 0.68001 0.00395 0.32781 0.0
C665 C 0.70116 0.0032 0.27943 0.0
C666 C 0.60299 0.00522 0.40623 0.0
C667 C 0.59476 0.02619 0.44555 0.0
C668 C 0.62598 0.0046 0.36905 0.0
C669 C 0.64131 0.02489 0.37087 0.0
C670 C 0.63296 0.0458 0.41029 0.0
C671 C 0.61 0.04649 0.44659 0.0
H672 H 0.5301 0.70135 0.2577 0.0
H673 H 0.45394 0.69412 0.20362 0.0
H674 H 0.52827 0.66524 0.34634 0.0
H675 H 0.45216 0.65775 0.2886 0.0
H676 H 0.45153 0.59934 0.48246 0.0
H677 H 0.45379 0.63912 0.4196 0.0
H678 H 0.52503 0.62265 0.32371 0.0
H679 H 0.52318 0.5829 0.39045 0.0
C680 C 0.51282 0.69246 0.26692 0.0
C681 C 0.49215 0.70051 0.22396 0.0
C682 C 0.51185 0.6715 0.31627 0.0
C683 C 0.49018 0.65823 0.32353 0.0
C684 C 0.46915 0.66744 0.28523 0.0
C685 C 0.47012 0.68835 0.23641 0.0
C686 C 0.46766 0.60404 0.44749 0.0
C687 C 0.48709 0.58775 0.44074 0.0
C688 C 0.46895 0.62698 0.41137 0.0
C689 C 0.48957 0.63424 0.36633 0.0
C690 C 0.50901 0.61789 0.3591 0.0
C691 C 0.50782 0.59494 0.39624 0.0
H692 H 0.80745 0.46393 0.27575 0.0
H693 H 0.82419 0.53657 0.19864 0.0
H694 H 0.84453 0.46244 0.35855 0.0
H695 H 0.86191 0.53495 0.27747 0.0
H696 H 0.92418 0.52807 0.46372 0.0
H697 H 0.88405 0.53276 0.40234 0.0
H698 H 0.88579 0.45828 0.32627 0.0
H699 H 0.92536 0.45344 0.39087 0.0
C700 C 0.81875 0.47985 0.279 0.0
C701 C 0.81286 0.5005 0.23237 0.0
C702 C 0.84027 0.47888 0.3248 0.0
C703 C 0.85665 0.49836 0.32321 0.0
C704 C 0.8498 0.51963 0.28084 0.0
C705 C 0.82809 0.52069 0.23605 0.0
C706 C 0.91611 0.51281 0.43279 0.0
C707 C 0.92798 0.49038 0.43188 0.0
C708 C 0.89301 0.51546 0.39783 0.0
C709 C 0.88135 0.49582 0.36031 0.0
C710 C 0.89375 0.47365 0.35678 0.0
C711 C 0.91666 0.47093 0.39266 0.0
loop_
_geom_bond_atom_site_label_1
_geom_bond_atom_site_label_2
_geom_bond_distance
_geom_bond_site_symmetry_2
_ccdc_geom_bond_type
H0 C1 0.949 . S
C1 H0 0.949 . S
C1 C2 1.395 . S
C1 C3 1.391 1_556 S
C2 C1 1.395 . S
C2 C5 1.390 1_556 S
C3 C1 1.391 1_554 S
C3 C7 1.387 . S
C3 C8 1.491 . S
H4 C5 0.950 . S
C5 C2 1.390 1_554 S
C5 H4 0.950 . S
C5 C6 1.378 . S
C6 C5 1.378 . S
C6 C7 1.409 . S
C7 C3 1.387 . S
C7 C6 1.409 . S
C7 H9 0.951 . S
C8 C3 1.491 . S
C8 C10 1.382 1_554 S
C8 C12 1.404 . S
H9 C7 0.951 . S
C10 C8 1.382 1_556 S
C10 C11 1.390 . S
C10 H15 0.949 . S
C11 C10 1.390 . S
C11 C16 1.399 1_556 S
C12 C8 1.404 . S
C12 H13 0.950 . S
C12 C14 1.375 . S
H13 C12 0.950 . S
C14 C12 1.375 . S
C14 C16 1.382 . S
C14 H18 0.950 . S
H15 C10 0.949 . S
C16 C11 1.399 1_554 S
C16 C14 1.382 . S
C16 H17 0.952 . S
H17 C16 0.952 . S
H18 C14 0.950 . S
H19 C20 0.949 . S
C20 H19 0.949 . S
C20 C21 1.395 . S
C20 C22 1.391 1_556 S
C21 C20 1.395 . S
C21 C24 1.390 1_556 S
C22 C20 1.391 1_554 S
C22 C26 1.387 . S
C22 C27 1.491 . S
H23 C24 0.950 . S
C24 C21 1.390 1_554 S
C24 H23 0.950 . S
C24 C25 1.378 . S
C25 C24 1.378 . S
C25 C26 1.409 . S
C26 C22 1.387 . S
C26 C25 1.409 . S
C26 H28 0.951 . S
C27 C22 1.491 . S
C27 C29 1.382 1_554 S
C27 C31 1.404 . S
H28 C26 0.951 . S
C29 C27 1.382 1_556 S
C29 C30 1.390 . S
C29 H34 0.949 . S
C30 C29 1.390 . S
C30 C35 1.399 1_556 S
C31 C27 1.404 . S
C31 H32 0.950 . S
C31 C33 1.375 . S
H32 C31 0.950 . S
C33 C31 1.375 . S
C33 C35 1.382 . S
C33 H37 0.950 . S
H34 C29 0.949 . S
C35 C30 1.399 1_554 S
C35 C33 1.382 . S
C35 H36 0.952 . S
H36 C35 0.952 . S
H37 C33 0.950 . S
H38 C39 0.949 . S
C39 H38 0.949 . S
C39 C40 1.395 . S
C39 C41 1.391 1_556 S
C40 C39 1.395 . S
C40 C43 1.390 1_556 S
C41 C39 1.391 1_554 S
C41 C45 1.387 . S
C41 C46 1.491 . S
H42 C43 0.950 . S
C43 C40 1.390 1_554 S
C43 H42 0.950 . S
C43 C44 1.378 . S
C44 C43 1.378 . S
C44 C45 1.409 . S
C45 C41 1.387 . S
C45 C44 1.409 . S
C45 H47 0.951 . S
C46 C41 1.491 . S
C46 C48 1.382 1_554 S
C46 C50 1.404 . S
H47 C45 0.951 . S
C48 C46 1.382 1_556 S
C48 C49 1.390 . S
C48 H53 0.949 . S
C49 C48 1.390 . S
C49 C54 1.399 1_556 S
C50 C46 1.404 . S
C50 H51 0.950 . S
C50 C52 1.375 . S
H51 C50 0.950 . S
C52 C50 1.375 . S
C52 C54 1.382 . S
C52 H56 0.950 . S
H53 C48 0.949 . S
C54 C49 1.399 1_554 S
C54 C52 1.382 . S
C54 H55 0.952 . S
H55 C54 0.952 . S
H56 C52 0.950 . S
H57 C58 0.949 . S
C58 H57 0.949 . S
C58 C59 1.395 . S
C58 C60 1.391 1_556 S
C59 C58 1.395 . S
C59 C62 1.390 1_556 S
C60 C58 1.391 1_554 S
C60 C64 1.387 . S
C60 C65 1.491 . S
H61 C62 0.950 . S
C62 C59 1.390 1_554 S
C62 H61 0.950 . S
C62 C63 1.378 . S
C63 C62 1.378 . S
C63 C64 1.409 . S
C64 C60 1.387 . S
C64 C63 1.409 . S
C64 H66 0.951 . S
C65 C60 1.491 . S
C65 C67 1.382 1_554 S
C65 C69 1.404 . S
H66 C64 0.951 . S
C67 C65 1.382 1_556 S
C67 C68 1.390 . S
C67 H72 0.949 . S
C68 C67 1.390 . S
C68 C73 1.399 1_556 S
C69 C65 1.404 . S
C69 H70 0.950 . S
C69 C71 1.375 . S
H70 C69 0.950 . S
C71 C69 1.375 . S
C71 C73 1.382 . S
C71 H75 0.950 . S
H72 C67 0.949 . S
C73 C68 1.399 1_554 S
C73 C71 1.382 . S
C73 H74 0.952 . S
H74 C73 0.952 . S
H75 C71 0.950 . S
H76 C77 0.949 . S
C77 H76 0.949 . S
C77 C78 1.395 . S
C77 C79 1.391 . S
C78 C77 1.395 . S
C78 C81 1.390 . S
C79 C77 1.391 . S
C79 C83 1.387 . S
C79 C84 1.491 . S
H80 C81 0.950 . S
C81 C78 1.390 . S
C81 H80 0.950 . S
C81 C82 1.378 . S
C82 C81 1.378 . S
C82 C83 1.409 . S
C83 C79 1.387 . S
C83 C82 1.409 . S
C83 H85 0.951 . S
C84 C79 1.491 . S
C84 C86 1.382 . S
C84 C88 1.404 . S
H85 C83 0.951 . S
C86 C84 1.382 . S
C86 C87 1.390 . S
C86 H91 0.949 . S
C87 C86 1.390 . S
C87 C92 1.399 . S
C88 C84 1.404 . S
C88 H89 0.950 . S
C88 C90 1.375 . S
H89 C88 0.950 . S
C90 C88 1.375 . S
C90 C92 1.382 . S
C90 H94 0.950 . S
H91 C86 0.949 . S
C92 C87 1.399 . S
C92 C90 1.382 . S
C92 H93 0.952 . S
H93 C92 0.952 . S
H94 C90 0.950 . S
H95 C96 0.949 . S
C96 H95 0.949 . S
C96 C97 1.395 . S
C96 C98 1.391 . S
C97 C96 1.395 . S
C97 C100 1.390 . S
C98 C96 1.391 . S
C98 C102 1.387 . S
C98 C103 1.491 . S
H99 C100 0.950 . S
C100 C97 1.390 . S
C100 H99 0.950 . S
C100 C101 1.378 . S
C101 C100 1.378 . S
C101 C102 1.409 . S
C102 C98 1.387 . S
C102 C101 1.409 . S
C102 H104 0.951 . S
C103 C98 1.491 . S
C103 C105 1.382 . S
C103 C107 1.404 1_455 S
H104 C102 0.951 . S
C105 C103 1.382 . S
C105 C106 1.390 . S
C105 H110 0.949 . S
C106 C105 1.390 . S
C106 C111 1.426 . S
C107 C103 1.404 1_655 S
C107 H108 0.950 . S
C107 C109 1.375 . S
H108 C107 0.950 . S
C109 C107 1.375 . S
C109 C111 1.365 1_655 S
C109 H113 0.950 . S
H110 C105 0.949 . S
C111 C106 1.426 . S
C111 C109 1.365 1_455 S
C111 H112 0.943 1_455 S
H112 C111 0.943 1_655 S
H113 C109 0.950 . S
H114 C115 0.949 . S
C115 H114 0.949 . S
C115 C116 1.395 . S
C115 C117 1.391 . S
C116 C115 1.395 . S
C116 C119 1.390 . S
C117 C115 1.391 . S
C117 C121 1.387 . S
C117 C122 1.491 . S
H118 C119 0.950 . S
C119 C116 1.390 . S
C119 H118 0.950 . S
C119 C120 1.378 . S
C120 C119 1.378 . S
C120 C121 1.409 . S
C121 C117 1.387 . S
C121 C120 1.409 . S
C121 H123 0.951 . S
C122 C117 1.491 . S
C122 C124 1.382 . S
C122 C126 1.404 1_545 S
H123 C121 0.951 . S
C124 C122 1.382 . S
C124 C125 1.390 . S
C124 H129 0.949 . S
C125 C124 1.390 . S
C125 C130 1.413 . S
C126 C122 1.404 1_565 S
C126 H127 0.950 . S
C126 C128 1.375 . S
H127 C126 0.950 . S
C128 C126 1.375 . S
C128 C130 1.373 1_565 S
C128 H132 0.950 . S
H129 C124 0.949 . S
C130 C125 1.413 . S
C130 C128 1.373 1_545 S
C130 H131 0.947 1_545 S
H131 C130 0.947 1_565 S
H132 C128 0.950 . S
H133 C134 0.949 . S
C134 H133 0.949 . S
C134 C135 1.395 . S
C134 C136 1.391 . S
C135 C134 1.395 . S
C135 C138 1.390 . S
C136 C134 1.391 . S
C136 C140 1.387 . S
C136 C141 1.491 . S
H137 C138 0.950 . S
C138 C135 1.390 . S
C138 H137 0.950 . S
C138 C139 1.378 . S
C139 C138 1.378 . S
C139 C140 1.409 . S
C140 C136 1.387 . S
C140 C139 1.409 . S
C140 H142 0.951 . S
C141 C136 1.491 . S
C141 C143 1.382 . S
C141 C145 1.404 . S
H142 C140 0.951 . S
C143 C141 1.382 . S
C143 C144 1.390 . S
C143 H148 0.949 . S
C144 C143 1.390 . S
C144 C149 1.399 . S
C145 C141 1.404 . S
C145 H146 0.950 . S
C145 C147 1.375 . S
H146 C145 0.950 . S
C147 C145 1.375 . S
C147 C149 1.382 . S
C147 H151 0.950 . S
H148 C143 0.949 . S
C149 C144 1.399 . S
C149 C147 1.382 . S
C149 H150 0.952 . S
H150 C149 0.952 . S
H151 C147 0.950 . S
Zn152 O158 1.969 1_455 S
Zn152 O159 1.965 . S
Zn152 O163 2.024 . S
Zn152 O168 1.969 1_455 S
Zn153 O160 1.969 . S
Zn153 O166 1.969 . S
Zn153 O167 1.965 1_455 S
Zn153 O169 2.024 1_455 S
C154 O155 1.229 1_455 S
C154 O163 1.058 . S
O155 C154 1.229 1_655 S
C156 O157 1.229 1_655 S
C156 O169 1.058 . S
O157 C156 1.229 1_455 S
O158 Zn152 1.969 1_655 S
O158 C161 1.267 1_655 S
O159 Zn152 1.965 . S
O159 C170 1.260 . S
O160 Zn153 1.969 . S
O160 C170 1.258 1_565 S
C161 O158 1.267 1_455 S
C161 O162 1.228 . S
O162 C161 1.228 . S
O163 Zn152 2.024 . S
O163 C154 1.058 . S
C164 O165 1.228 1_455 S
C164 O166 1.267 . S
O165 C164 1.228 1_655 S
O166 Zn153 1.969 . S
O166 C164 1.267 . S
O167 Zn153 1.965 1_655 S
O167 C171 1.260 1_565 S
O168 Zn152 1.969 1_655 S
O168 C171 1.258 . S
O169 Zn153 2.024 1_655 S
O169 C156 1.058 . S
C170 O159 1.260 . S
C170 O160 1.258 1_545 S
C171 O167 1.260 1_545 S
C171 O168 1.258 . S
Zn172 O178 1.969 1_545 S
Zn172 O179 1.965 . S
Zn172 O183 2.024 . S
Zn172 O188 1.969 1_545 S
Zn173 O180 1.969 . S
Zn173 O186 1.969 . S
Zn173 O187 1.965 1_545 S
Zn173 O189 2.024 1_545 S
C174 O175 1.229 1_545 S
C174 O183 1.058 . S
O175 C174 1.229 1_565 S
C176 O177 1.229 1_565 S
C176 O189 1.058 . S
O177 C176 1.229 1_545 S
O178 Zn172 1.969 1_565 S
O178 C181 1.267 1_565 S
O179 Zn172 1.965 . S
O179 C190 1.260 . S
O180 Zn173 1.969 . S
O180 C190 1.258 . S
C181 O178 1.267 1_545 S
C181 O182 1.228 . S
O182 C181 1.228 . S
O183 Zn172 2.024 . S
O183 C174 1.058 . S
C184 O185 1.228 1_545 S
C184 O186 1.267 . S
O185 C184 1.228 1_565 S
O186 Zn173 1.969 . S
O186 C184 1.267 . S
O187 Zn173 1.965 1_565 S
O187 C191 1.260 . S
O188 Zn172 1.969 1_565 S
O188 C191 1.258 . S
O189 Zn173 2.024 1_565 S
O189 C176 1.058 . S
C190 O179 1.260 . S
C190 O180 1.258 . S
C191 O187 1.260 . S
C191 O188 1.258 . S
Zn192 O198 1.969 . S
Zn192 O199 1.965 . S
Zn192 O203 2.024 . S
Zn192 O208 1.969 . S
Zn193 O200 1.969 . S
Zn193 O206 1.969 . S
Zn193 O207 1.965 . S
Zn193 O209 2.024 . S
C194 O195 1.229 . S
C194 O203 1.058 . S
O195 C194 1.229 . S
C196 O197 1.229 . S
C196 O209 1.058 . S
O197 C196 1.229 . S
O198 Zn192 1.969 . S
O198 C201 1.267 . S
O199 Zn192 1.965 . S
O199 C210 1.260 . S
O200 Zn193 1.969 . S
O200 C210 1.258 . S
C201 O198 1.267 . S
C201 O202 1.228 . S
O202 C201 1.228 . S
O203 Zn192 2.024 . S
O203 C194 1.058 . S
C204 O205 1.228 . S
C204 O206 1.267 . S
O205 C204 1.228 . S
O206 Zn193 1.969 . S
O206 C204 1.267 . S
O207 Zn193 1.965 . S
O207 C211 1.260 . S
O208 Zn192 1.969 . S
O208 C211 1.258 . S
O209 Zn193 2.024 . S
O209 C196 1.058 . S
C210 O199 1.260 . S
C210 O200 1.258 . S
C211 O207 1.260 . S
C211 O208 1.258 . S
Zn212 O218 1.969 . S
Zn212 O219 1.965 . S
Zn212 O223 2.024 . S
Zn212 O228 1.969 . S
Zn213 O220 1.969 . S
Zn213 O226 1.969 . S
Zn213 O227 1.965 . S
Zn213 O229 2.024 . S
C214 O215 1.229 . S
C214 O223 1.058 . S
O215 C214 1.229 . S
C216 O217 1.229 . S
C216 O229 1.058 . S
O217 C216 1.229 . S
O218 Zn212 1.969 . S
O218 C221 1.267 . S
O219 Zn212 1.965 . S
O219 C230 1.260 . S
O220 Zn213 1.969 . S
O220 C230 1.258 1_655 S
C221 O218 1.267 . S
C221 O222 1.228 . S
O222 C221 1.228 . S
O223 Zn212 2.024 . S
O223 C214 1.058 . S
C224 O225 1.228 . S
C224 O226 1.267 . S
O225 C224 1.228 . S
O226 Zn213 1.969 . S
O226 C224 1.267 . S
O227 Zn213 1.965 . S
O227 C231 1.260 1_655 S
O228 Zn212 1.969 . S
O228 C231 1.258 . S
O229 Zn213 2.024 . S
O229 C216 1.058 . S
C230 O219 1.260 . S
C230 O220 1.258 1_455 S
C231 O227 1.260 1_455 S
C231 O228 1.258 . S
H232 C240 0.967 . S
H233 C245 0.950 . S
H234 C242 0.950 . S
H235 C244 0.950 . S
H236 C246 0.950 . S
H237 C248 0.950 . S
H238 C250 0.950 . S
H239 C251 0.950 . S
C240 H232 0.967 . S
C240 C241 1.366 1_565 S
C240 C242 1.394 . S
C241 C240 1.366 1_545 S
C241 C245 1.393 . S
C242 H234 0.950 . S
C242 C240 1.394 . S
C242 C243 1.400 1_565 S
C243 C242 1.400 1_545 S
C243 C244 1.398 . S
C243 C249 1.491 . S
C244 H235 0.950 . S
C244 C243 1.398 . S
C244 C245 1.391 . S
C245 H233 0.950 . S
C245 C241 1.393 . S
C245 C244 1.391 . S
C246 H236 0.950 . S
C246 C247 1.386 . S
C246 C248 1.391 . S
C247 C246 1.386 . S
C247 C251 1.393 1_545 S
C248 H237 0.950 . S
C248 C246 1.391 . S
C248 C249 1.400 . S
C249 C243 1.491 . S
C249 C248 1.400 . S
C249 C250 1.398 1_545 S
C250 H238 0.950 . S
C250 C249 1.398 1_565 S
C250 C251 1.391 . S
C251 H239 0.950 . S
C251 C247 1.393 1_565 S
C251 C250 1.391 . S
H252 C260 0.950 . S
H253 C265 0.950 . S
H254 C262 0.950 . S
H255 C264 0.950 . S
H256 C266 0.950 . S
H257 C268 0.950 . S
H258 C270 0.950 . S
H259 C271 0.950 . S
C260 H252 0.950 . S
C260 C261 1.386 . S
C260 C262 1.391 . S
C261 C260 1.386 . S
C261 C265 1.393 . S
C262 H254 0.950 . S
C262 C260 1.391 . S
C262 C263 1.400 . S
C263 C262 1.400 . S
C263 C264 1.398 . S
C263 C269 1.491 . S
C264 H255 0.950 . S
C264 C263 1.398 . S
C264 C265 1.391 . S
C265 H253 0.950 . S
C265 C261 1.393 . S
C265 C264 1.391 . S
C266 H256 0.950 . S
C266 C267 1.386 . S
C266 C268 1.391 . S
C267 C266 1.386 . S
C267 C271 1.393 . S
C268 H257 0.950 . S
C268 C266 1.391 . S
C268 C269 1.400 . S
C269 C263 1.491 . S
C269 C268 1.400 . S
C269 C270 1.398 . S
C270 H258 0.950 . S
C270 C269 1.398 . S
C270 C271 1.391 . S
C271 H259 0.950 . S
C271 C267 1.393 . S
C271 C270 1.391 . S
H272 C280 0.950 . S
H273 C285 0.950 . S
H274 C282 0.950 . S
H275 C284 0.950 . S
H276 C286 0.950 . S
H277 C288 0.950 . S
H278 C290 0.950 . S
H279 C291 0.950 . S
C280 H272 0.950 . S
C280 C281 1.386 . S
C280 C282 1.391 . S
C281 C280 1.386 . S
C281 C285 1.393 . S
C282 H274 0.950 . S
C282 C280 1.391 . S
C282 C283 1.400 . S
C283 C282 1.400 . S
C283 C284 1.398 . S
C283 C289 1.491 . S
C284 H275 0.950 . S
C284 C283 1.398 . S
C284 C285 1.391 . S
C285 H273 0.950 . S
C285 C281 1.393 . S
C285 C284 1.391 . S
C286 H276 0.950 . S
C286 C287 1.386 . S
C286 C288 1.391 . S
C287 C286 1.386 . S
C287 C291 1.393 . S
C288 H277 0.950 . S
C288 C286 1.391 . S
C288 C289 1.400 . S
C289 C283 1.491 . S
C289 C288 1.400 . S
C289 C290 1.398 . S
C290 H278 0.950 . S
C290 C289 1.398 . S
C290 C291 1.391 . S
C291 H279 0.950 . S
C291 C287 1.393 . S
C291 C290 1.391 . S
H292 C300 0.950 . S
H293 C305 0.950 . S
H294 C302 0.950 . S
H295 C304 0.950 . S
H296 C306 0.950 1_655 S
H297 C308 0.950 . S
H298 C310 0.950 . S
H299 C311 0.950 . S
C300 H292 0.950 . S
C300 C301 1.386 . S
C300 C302 1.391 . S
C301 C300 1.386 . S
C301 C305 1.393 . S
C302 H294 0.950 . S
C302 C300 1.391 . S
C302 C303 1.400 . S
C303 C302 1.400 . S
C303 C304 1.398 . S
C303 C309 1.491 . S
C304 H295 0.950 . S
C304 C303 1.398 . S
C304 C305 1.391 . S
C305 H293 0.950 . S
C305 C301 1.393 . S
C305 C304 1.391 . S
C306 H296 0.950 1_455 S
C306 C307 1.386 . S
C306 C308 1.391 . S
C307 C306 1.386 . S
C307 C311 1.393 . S
C308 H297 0.950 . S
C308 C306 1.391 . S
C308 C309 1.400 . S
C309 C303 1.491 . S
C309 C308 1.400 . S
C309 C310 1.398 . S
C310 H298 0.950 . S
C310 C309 1.398 . S
C310 C311 1.391 . S
C311 H299 0.950 . S
C311 C307 1.393 . S
C311 C310 1.391 . S
H312 C320 0.950 . S
H313 C325 0.950 . S
H314 C322 0.950 . S
H315 C324 0.950 . S
H316 C326 0.950 . S
H317 C328 0.950 . S
H318 C330 0.950 . S
H319 C331 0.950 . S
C320 H312 0.950 . S
C320 C321 1.386 . S
C320 C322 1.391 . S
C321 C320 1.386 . S
C321 C325 1.393 1_565 S
C322 H314 0.950 . S
C322 C320 1.391 . S
C322 C323 1.400 . S
C323 C322 1.400 . S
C323 C324 1.398 1_565 S
C323 C329 1.491 . S
C324 H315 0.950 . S
C324 C323 1.398 1_545 S
C324 C325 1.391 . S
C325 H313 0.950 . S
C325 C321 1.393 1_545 S
C325 C324 1.391 . S
C326 H316 0.950 . S
C326 C327 1.386 1_545 S
C326 C328 1.391 . S
C327 C326 1.386 1_565 S
C327 C331 1.393 . S
C328 H317 0.950 . S
C328 C326 1.391 . S
C328 C329 1.400 1_545 S
C329 C323 1.491 . S
C329 C328 1.400 1_565 S
C329 C330 1.398 . S
C330 H318 0.950 . S
C330 C329 1.398 . S
C330 C331 1.391 . S
C331 H319 0.950 . S
C331 C327 1.393 . S
C331 C330 1.391 . S
H332 C340 0.950 . S
H333 C345 0.950 . S
H334 C342 0.950 . S
H335 C344 0.950 . S
H336 C346 0.950 . S
H337 C348 0.950 . S
H338 C350 0.950 . S
H339 C351 0.950 . S
C340 H332 0.950 . S
C340 C341 1.386 . S
C340 C342 1.391 . S
C341 C340 1.386 . S
C341 C345 1.393 . S
C342 H334 0.950 . S
C342 C340 1.391 . S
C342 C343 1.400 . S
C343 C342 1.400 . S
C343 C344 1.398 . S
C343 C349 1.491 . S
C344 H335 0.950 . S
C344 C343 1.398 . S
C344 C345 1.391 . S
C345 H333 0.950 . S
C345 C341 1.393 . S
C345 C344 1.391 . S
C346 H336 0.950 . S
C346 C347 1.386 . S
C346 C348 1.391 . S
C347 C346 1.386 . S
C347 C351 1.393 . S
C348 H337 0.950 . S
C348 C346 1.391 . S
C348 C349 1.400 . S
C349 C343 1.491 . S
C349 C348 1.400 . S
C349 C350 1.398 . S
C350 H338 0.950 . S
C350 C349 1.398 . S
C350 C351 1.391 . S
C351 H339 0.950 . S
C351 C347 1.393 . S
C351 C350 1.391 . S
H352 C360 0.950 . S
H353 C365 0.950 . S
H354 C362 0.950 . S
H355 C364 0.950 . S
H356 C366 0.950 . S
H357 C368 0.950 . S
H358 C370 0.950 . S
H359 C371 0.950 . S
C360 H352 0.950 . S
C360 C361 1.386 . S
C360 C362 1.391 . S
C361 C360 1.386 . S
C361 C365 1.393 . S
C362 H354 0.950 . S
C362 C360 1.391 . S
C362 C363 1.400 . S
C363 C362 1.400 . S
C363 C364 1.398 . S
C363 C369 1.491 . S
C364 H355 0.950 . S
C364 C363 1.398 . S
C364 C365 1.391 . S
C365 H353 0.950 . S
C365 C361 1.393 . S
C365 C364 1.391 . S
C366 H356 0.950 . S
C366 C367 1.386 . S
C366 C368 1.391 . S
C367 C366 1.386 . S
C367 C371 1.393 . S
C368 H357 0.950 . S
C368 C366 1.391 . S
C368 C369 1.400 . S
C369 C363 1.491 . S
C369 C368 1.400 . S
C369 C370 1.398 . S
C370 H358 0.950 . S
C370 C369 1.398 . S
C370 C371 1.391 . S
C371 H359 0.950 . S
C371 C367 1.393 . S
C371 C370 1.391 . S
H372 C380 0.950 . S
H373 C385 0.950 . S
H374 C382 0.950 . S
H375 C384 0.950 . S
H376 C386 0.950 . S
H377 C388 0.950 . S
H378 C390 0.950 . S
H379 C391 0.950 . S
C380 H372 0.950 . S
C380 C381 1.386 . S
C380 C382 1.391 . S
C381 C380 1.386 . S
C381 C385 1.393 1_655 S
C382 H374 0.950 . S
C382 C380 1.391 . S
C382 C383 1.400 . S
C383 C382 1.400 . S
C383 C384 1.398 1_655 S
C383 C389 1.491 . S
C384 H375 0.950 . S
C384 C383 1.398 1_455 S
C384 C385 1.391 . S
C385 H373 0.950 . S
C385 C381 1.393 1_455 S
C385 C384 1.391 . S
C386 H376 0.950 . S
C386 C387 1.386 1_455 S
C386 C388 1.391 . S
C387 C386 1.386 1_655 S
C387 C391 1.393 . S
C388 H377 0.950 . S
C388 C386 1.391 . S
C388 C389 1.400 1_455 S
C389 C383 1.491 . S
C389 C388 1.400 1_655 S
C389 C390 1.398 . S
C390 H378 0.950 . S
C390 C389 1.398 . S
C390 C391 1.391 . S
C391 H379 0.950 . S
C391 C387 1.393 . S
C391 C390 1.391 . S
H392 C400 0.950 . S
H393 C405 0.969 . S
H394 C402 0.950 . S
H395 C404 0.950 . S
H396 C406 0.950 . S
H397 C408 0.950 . S
H398 C410 0.950 . S
H399 C411 0.950 . S
C400 H392 0.950 . S
C400 C401 1.386 . S
C400 C402 1.391 . S
C401 C400 1.386 . S
C401 C405 1.370 1_455 S
C402 H394 0.950 . S
C402 C400 1.391 . S
C402 C403 1.400 . S
C403 C402 1.400 . S
C403 C404 1.398 1_455 S
C403 C409 1.491 . S
C404 H395 0.950 . S
C404 C403 1.398 1_655 S
C404 C405 1.395 . S
C405 H393 0.969 . S
C405 C401 1.370 1_655 S
C405 C404 1.395 . S
C406 H396 0.950 . S
C406 C407 1.386 1_655 S
C406 C408 1.391 . S
C407 C406 1.386 1_455 S
C407 C411 1.393 . S
C408 H397 0.950 . S
C408 C406 1.391 . S
C408 C409 1.400 1_655 S
C409 C403 1.491 . S
C409 C408 1.400 1_455 S
C409 C410 1.398 . S
C410 H398 0.950 . S
C410 C409 1.398 . S
C410 C411 1.391 . S
C411 H399 0.950 . S
C411 C407 1.393 . S
C411 C410 1.391 . S
H412 C420 0.950 . S
H413 C425 0.950 . S
H414 C422 0.950 . S
H415 C424 0.950 . S
H416 C426 0.950 . S
H417 C428 0.950 . S
H418 C430 0.950 . S
H419 C431 0.950 . S
C420 H412 0.950 . S
C420 C421 1.386 . S
C420 C422 1.391 . S
C421 C420 1.386 . S
C421 C425 1.393 . S
C422 H414 0.950 . S
C422 C420 1.391 . S
C422 C423 1.400 . S
C423 C422 1.400 . S
C423 C424 1.398 . S
C423 C429 1.491 . S
C424 H415 0.950 . S
C424 C423 1.398 . S
C424 C425 1.391 . S
C425 H413 0.950 . S
C425 C421 1.393 . S
C425 C424 1.391 . S
C426 H416 0.950 . S
C426 C427 1.386 . S
C426 C428 1.391 . S
C427 C426 1.386 . S
C427 C431 1.393 . S
C428 H417 0.950 . S
C428 C426 1.391 . S
C428 C429 1.400 . S
C429 C423 1.491 . S
C429 C428 1.400 . S
C429 C430 1.398 . S
C430 H418 0.950 . S
C430 C429 1.398 . S
C430 C431 1.391 . S
C431 H419 0.950 . S
C431 C427 1.393 . S
C431 C430 1.391 . S
H432 C440 0.950 . S
H433 C445 0.950 . S
H434 C442 0.950 . S
H435 C444 0.950 . S
H436 C446 0.950 . S
H437 C448 0.950 . S
H438 C450 0.950 . S
H439 C451 0.950 . S
C440 H432 0.950 . S
C440 C441 1.386 . S
C440 C442 1.391 . S
C441 C440 1.386 . S
C441 C445 1.393 . S
C442 H434 0.950 . S
C442 C440 1.391 . S
C442 C443 1.400 . S
C443 C442 1.400 . S
C443 C444 1.398 . S
C443 C449 1.491 . S
C444 H435 0.950 . S
C444 C443 1.398 . S
C444 C445 1.391 . S
C445 H433 0.950 . S
C445 C441 1.393 . S
C445 C444 1.391 . S
C446 H436 0.950 . S
C446 C447 1.386 . S
C446 C448 1.391 . S
C447 C446 1.386 . S
C447 C451 1.393 . S
C448 H437 0.950 . S
C448 C446 1.391 . S
C448 C449 1.400 . S
C449 C443 1.491 . S
C449 C448 1.400 . S
C449 C450 1.398 . S
C450 H438 0.950 . S
C450 C449 1.398 . S
C450 C451 1.391 . S
C451 H439 0.950 . S
C451 C447 1.393 . S
C451 C450 1.391 . S
H452 C460 0.950 . S
H453 C465 0.950 . S
H454 C462 0.950 . S
H455 C464 0.950 . S
H456 C466 0.950 . S
H457 C468 0.950 . S
H458 C470 0.950 . S
H459 C471 0.950 . S
C460 H452 0.950 . S
C460 C461 1.386 . S
C460 C462 1.391 . S
C461 C460 1.386 . S
C461 C465 1.393 . S
C462 H454 0.950 . S
C462 C460 1.391 . S
C462 C463 1.400 . S
C463 C462 1.400 . S
C463 C464 1.398 . S
C463 C469 1.491 . S
C464 H455 0.950 . S
C464 C463 1.398 . S
C464 C465 1.391 . S
C465 H453 0.950 . S
C465 C461 1.393 . S
C465 C464 1.391 . S
C466 H456 0.950 . S
C466 C467 1.386 . S
C466 C468 1.391 . S
C467 C466 1.386 . S
C467 C471 1.393 . S
C468 H457 0.950 . S
C468 C466 1.391 . S
C468 C469 1.400 . S
C469 C463 1.491 . S
C469 C468 1.400 . S
C469 C470 1.398 . S
C470 H458 0.950 . S
C470 C469 1.398 . S
C470 C471 1.391 . S
C471 H459 0.950 . S
C471 C467 1.393 . S
C471 C470 1.391 . S
H472 C480 0.950 1_554 S
H473 C485 0.948 1_455 S
H474 C482 0.950 . S
H475 C484 0.943 1_455 S
H476 C486 0.950 . S
H477 C488 0.950 . S
H478 C490 0.950 . S
H479 C491 0.950 . S
C480 H472 0.950 1_556 S
C480 C481 1.386 . S
C480 C482 1.391 . S
C481 C480 1.386 . S
C481 C485 1.393 . S
C482 H474 0.950 . S
C482 C480 1.391 . S
C482 C483 1.400 . S
C483 C482 1.400 . S
C483 C484 1.403 . S
C483 C489 1.491 . S
C484 H475 0.943 1_655 S
C484 C483 1.403 . S
C484 C485 1.393 . S
C485 H473 0.948 1_655 S
C485 C481 1.393 . S
C485 C484 1.393 . S
C486 H476 0.950 . S
C486 C487 1.386 . S
C486 C488 1.391 . S
C487 C486 1.386 . S
C487 C491 1.393 1_455 S
C488 H477 0.950 . S
C488 C486 1.391 . S
C488 C489 1.400 1_455 S
C489 C483 1.491 . S
C489 C488 1.400 1_655 S
C489 C490 1.398 . S
C490 H478 0.950 . S
C490 C489 1.398 . S
C490 C491 1.391 . S
C491 H479 0.950 . S
C491 C487 1.393 1_655 S
C491 C490 1.391 . S
H492 C500 0.950 . S
H493 C505 0.950 1_554 S
H494 C502 0.950 . S
H495 C504 0.950 . S
H496 C506 0.950 . S
H497 C508 0.950 . S
H498 C510 0.950 . S
H499 C511 0.947 1_565 S
C500 H492 0.950 . S
C500 C501 1.386 . S
C500 C502 1.391 . S
C501 C500 1.386 . S
C501 C505 1.393 . S
C502 H494 0.950 . S
C502 C500 1.391 . S
C502 C503 1.400 . S
C503 C502 1.400 . S
C503 C504 1.398 . S
C503 C509 1.491 . S
C504 H495 0.950 . S
C504 C503 1.398 . S
C504 C505 1.391 . S
C505 H493 0.950 1_556 S
C505 C501 1.393 . S
C505 C504 1.391 . S
C506 H496 0.950 . S
C506 C507 1.386 . S
C506 C508 1.391 . S
C507 C506 1.386 . S
C507 C511 1.405 . S
C508 H497 0.950 . S
C508 C506 1.391 . S
C508 C509 1.400 1_545 S
C509 C503 1.491 . S
C509 C508 1.400 1_565 S
C509 C510 1.398 . S
C510 H498 0.950 . S
C510 C509 1.398 . S
C510 C511 1.384 1_565 S
C511 H499 0.947 1_545 S
C511 C507 1.405 . S
C511 C510 1.384 1_545 S
H512 C520 0.950 1_554 S
H513 C525 0.950 . S
H514 C522 0.950 . S
H515 C524 0.950 . S
H516 C526 0.950 . S
H517 C528 0.950 . S
H518 C530 0.950 . S
H519 C531 0.950 . S
C520 H512 0.950 1_556 S
C520 C521 1.386 . S
C520 C522 1.391 . S
C521 C520 1.386 . S
C521 C525 1.393 . S
C522 H514 0.950 . S
C522 C520 1.391 . S
C522 C523 1.400 . S
C523 C522 1.400 . S
C523 C524 1.398 . S
C523 C529 1.491 . S
C524 H515 0.950 . S
C524 C523 1.398 . S
C524 C525 1.391 . S
C525 H513 0.950 . S
C525 C521 1.393 . S
C525 C524 1.391 . S
C526 H516 0.950 . S
C526 C527 1.386 . S
C526 C528 1.391 . S
C527 C526 1.386 . S
C527 C531 1.393 . S
C528 H517 0.950 . S
C528 C526 1.391 . S
C528 C529 1.400 . S
C529 C523 1.491 . S
C529 C528 1.400 . S
C529 C530 1.398 . S
C530 H518 0.950 . S
C530 C529 1.398 . S
C530 C531 1.391 . S
C531 H519 0.950 . S
C531 C527 1.393 . S
C531 C530 1.391 . S
H532 C540 0.950 . S
H533 C545 0.950 . S
H534 C542 0.950 . S
H535 C544 0.950 . S
H536 C546 0.950 . S
H537 C548 0.950 . S
H538 C550 0.950 . S
H539 C551 0.950 . S
C540 H532 0.950 . S
C540 C541 1.386 . S
C540 C542 1.391 . S
C541 C540 1.386 . S
C541 C545 1.393 . S
C542 H534 0.950 . S
C542 C540 1.391 . S
C542 C543 1.400 . S
C543 C542 1.400 . S
C543 C544 1.398 . S
C543 C549 1.491 . S
C544 H535 0.950 . S
C544 C543 1.398 . S
C544 C545 1.391 . S
C545 H533 0.950 . S
C545 C541 1.393 . S
C545 C544 1.391 . S
C546 H536 0.950 . S
C546 C547 1.386 . S
C546 C548 1.391 . S
C547 C546 1.386 . S
C547 C551 1.393 . S
C548 H537 0.950 . S
C548 C546 1.391 . S
C548 C549 1.400 . S
C549 C543 1.491 . S
C549 C548 1.400 . S
C549 C550 1.398 . S
C550 H538 0.950 . S
C550 C549 1.398 . S
C550 C551 1.391 . S
C551 H539 0.950 . S
C551 C547 1.393 . S
C551 C550 1.391 . S
H552 C560 0.950 1_654 S
H553 C565 0.950 . S
H554 C562 0.953 . S
H555 C564 0.950 . S
H556 C566 0.950 . S
H557 C568 0.950 . S
H558 C570 0.950 . S
H559 C571 0.950 . S
C560 H552 0.950 1_456 S
C560 C561 1.386 . S
C560 C562 1.391 1_455 S
C561 C560 1.386 . S
C561 C565 1.393 . S
C562 H554 0.953 . S
C562 C560 1.391 1_655 S
C562 C563 1.398 1_655 S
C563 C562 1.398 1_455 S
C563 C564 1.398 . S
C563 C569 1.491 . S
C564 H555 0.950 . S
C564 C563 1.398 . S
C564 C565 1.391 . S
C565 H553 0.950 . S
C565 C561 1.393 . S
C565 C564 1.391 . S
C566 H556 0.950 . S
C566 C567 1.386 . S
C566 C568 1.391 . S
C567 C566 1.386 . S
C567 C571 1.393 1_455 S
C568 H557 0.950 . S
C568 C566 1.391 . S
C568 C569 1.400 . S
C569 C563 1.491 . S
C569 C568 1.400 . S
C569 C570 1.398 1_455 S
C570 H558 0.950 . S
C570 C569 1.398 1_655 S
C570 C571 1.391 . S
C571 H559 0.950 . S
C571 C567 1.393 1_655 S
C571 C570 1.391 . S
H572 C580 0.950 . S
H573 C585 0.950 . S
H574 C582 0.950 . S
H575 C584 0.950 . S
H576 C586 0.950 . S
H577 C588 0.950 . S
H578 C590 0.950 . S
H579 C591 0.950 . S
C580 H572 0.950 . S
C580 C581 1.386 1_556 S
C580 C582 1.391 . S
C581 C580 1.386 1_554 S
C581 C585 1.393 . S
C582 H574 0.950 . S
C582 C580 1.391 . S
C582 C583 1.400 . S
C583 C582 1.400 . S
C583 C584 1.398 1_556 S
C583 C589 1.491 . S
C584 H575 0.950 . S
C584 C583 1.398 1_554 S
C584 C585 1.391 . S
C585 H573 0.950 . S
C585 C581 1.393 . S
C585 C584 1.391 . S
C586 H576 0.950 . S
C586 C587 1.386 . S
C586 C588 1.391 . S
C587 C586 1.386 . S
C587 C591 1.393 . S
C588 H577 0.950 . S
C588 C586 1.391 . S
C588 C589 1.400 . S
C589 C583 1.491 . S
C589 C588 1.400 . S
C589 C590 1.398 . S
C590 H578 0.950 . S
C590 C589 1.398 . S
C590 C591 1.391 . S
C591 H579 0.950 . S
C591 C587 1.393 . S
C591 C590 1.391 . S
H592 C600 0.950 . S
H593 C605 0.950 . S
H594 C602 0.950 . S
H595 C604 0.950 . S
H596 C606 0.950 . S
H597 C608 0.950 . S
H598 C610 0.950 . S
H599 C611 0.950 . S
C600 H592 0.950 . S
C600 C601 1.391 . S
C600 C602 1.391 . S
C601 C600 1.391 . S
C601 C605 1.391 1_556 S
C602 H594 0.950 . S
C602 C600 1.391 . S
C602 C603 1.400 . S
C603 C602 1.400 . S
C603 C604 1.398 . S
C603 C609 1.491 . S
C604 H595 0.950 . S
C604 C603 1.398 . S
C604 C605 1.391 1_556 S
C605 H593 0.950 . S
C605 C601 1.391 1_554 S
C605 C604 1.391 1_554 S
C606 H596 0.950 . S
C606 C607 1.386 . S
C606 C608 1.391 . S
C607 C606 1.386 . S
C607 C611 1.393 . S
C608 H597 0.950 . S
C608 C606 1.391 . S
C608 C609 1.400 . S
C609 C603 1.491 . S
C609 C608 1.400 . S
C609 C610 1.398 . S
C610 H598 0.950 . S
C610 C609 1.398 . S
C610 C611 1.391 . S
C611 H599 0.950 . S
C611 C607 1.393 . S
C611 C610 1.391 . S
H612 C620 0.950 . S
H613 C625 0.950 . S
H614 C622 0.950 . S
H615 C624 0.950 . S
H616 C626 0.950 . S
H617 C628 0.950 . S
H618 C630 0.950 . S
H619 C631 0.950 . S
C620 H612 0.950 . S
C620 C621 1.386 1_556 S
C620 C622 1.391 . S
C621 C620 1.386 1_554 S
C621 C625 1.393 . S
C622 H614 0.950 . S
C622 C620 1.391 . S
C622 C623 1.400 . S
C623 C622 1.400 . S
C623 C624 1.398 1_556 S
C623 C629 1.491 . S
C624 H615 0.950 . S
C624 C623 1.398 1_554 S
C624 C625 1.391 . S
C625 H613 0.950 . S
C625 C621 1.393 . S
C625 C624 1.391 . S
C626 H616 0.950 . S
C626 C627 1.386 . S
C626 C628 1.391 . S
C627 C626 1.386 . S
C627 C631 1.393 . S
C628 H617 0.950 . S
C628 C626 1.391 . S
C628 C629 1.400 . S
C629 C623 1.491 . S
C629 C628 1.400 . S
C629 C630 1.398 . S
C630 H618 0.950 . S
C630 C629 1.398 . S
C630 C631 1.391 . S
C631 H619 0.950 . S
C631 C627 1.393 . S
C631 C630 1.391 . S
H632 C640 0.950 . S
H633 C645 0.950 . S
H634 C642 0.950 . S
H635 C644 0.950 . S
H636 C646 0.950 . S
H637 C648 0.950 . S
H638 C650 0.950 . S
H639 C651 0.950 . S
C640 H632 0.950 . S
C640 C641 1.386 . S
C640 C642 1.391 . S
C641 C640 1.386 . S
C641 C645 1.393 1_655 S
C642 H634 0.950 . S
C642 C640 1.391 . S
C642 C643 1.400 . S
C643 C642 1.400 . S
C643 C644 1.398 1_655 S
C643 C649 1.491 . S
C644 H635 0.950 . S
C644 C643 1.398 1_455 S
C644 C645 1.391 . S
C645 H633 0.950 . S
C645 C641 1.393 1_455 S
C645 C644 1.391 . S
C646 H636 0.950 . S
C646 C647 1.386 1_455 S
C646 C648 1.391 . S
C647 C646 1.386 1_655 S
C647 C651 1.393 . S
C648 H637 0.950 . S
C648 C646 1.391 . S
C648 C649 1.400 1_455 S
C649 C643 1.491 . S
C649 C648 1.400 1_655 S
C649 C650 1.398 . S
C650 H638 0.950 . S
C650 C649 1.398 . S
C650 C651 1.391 . S
C651 H639 0.950 . S
C651 C647 1.393 . S
C651 C650 1.391 . S
H652 C660 0.950 . S
H653 C665 0.950 . S
H654 C662 0.950 . S
H655 C664 0.950 . S
H656 C666 0.950 . S
H657 C668 0.950 . S
H658 C670 0.950 . S
H659 C671 0.950 . S
C660 H652 0.950 . S
C660 C661 1.386 1_545 S
C660 C662 1.391 . S
C661 C660 1.386 1_565 S
C661 C665 1.393 . S
C662 H654 0.950 . S
C662 C660 1.391 . S
C662 C663 1.400 1_545 S
C663 C662 1.400 1_565 S
C663 C664 1.398 . S
C663 C669 1.491 . S
C664 H655 0.950 . S
C664 C663 1.398 . S
C664 C665 1.391 . S
C665 H653 0.950 . S
C665 C661 1.393 . S
C665 C664 1.391 . S
C666 H656 0.950 . S
C666 C667 1.386 . S
C666 C668 1.391 . S
C667 C666 1.386 . S
C667 C671 1.393 1_565 S
C668 H657 0.950 . S
C668 C666 1.391 . S
C668 C669 1.400 . S
C669 C663 1.491 . S
C669 C668 1.400 . S
C669 C670 1.398 1_565 S
C670 H658 0.950 . S
C670 C669 1.398 1_545 S
C670 C671 1.391 . S
C671 H659 0.950 . S
C671 C667 1.393 1_545 S
C671 C670 1.391 . S
H672 C680 0.950 . S
H673 C685 0.950 . S
H674 C682 0.950 . S
H675 C684 0.950 . S
H676 C686 0.950 . S
H677 C688 0.950 . S
H678 C690 0.950 . S
H679 C691 0.950 . S
C680 H672 0.950 . S
C680 C681 1.386 . S
C680 C682 1.391 . S
C681 C680 1.386 . S
C681 C685 1.393 . S
C682 H674 0.950 . S
C682 C680 1.391 . S
C682 C683 1.400 . S
C683 C682 1.400 . S
C683 C684 1.398 . S
C683 C689 1.491 . S
C684 H675 0.950 . S
C684 C683 1.398 . S
C684 C685 1.391 . S
C685 H673 0.950 . S
C685 C681 1.393 . S
C685 C684 1.391 . S
C686 H676 0.950 . S
C686 C687 1.386 . S
C686 C688 1.391 . S
C687 C686 1.386 . S
C687 C691 1.393 . S
C688 H677 0.950 . S
C688 C686 1.391 . S
C688 C689 1.400 . S
C689 C683 1.491 . S
C689 C688 1.400 . S
C689 C690 1.398 . S
C690 H678 0.950 . S
C690 C689 1.398 . S
C690 C691 1.391 . S
C691 H679 0.950 . S
C691 C687 1.393 . S
C691 C690 1.391 . S
H692 C700 0.950 . S
H693 C705 0.950 . S
H694 C702 0.950 . S
H695 C704 0.950 . S
H696 C706 0.950 . S
H697 C708 0.950 . S
H698 C710 0.950 . S
H699 C711 0.950 . S
C700 H692 0.950 . S
C700 C701 1.386 . S
C700 C702 1.391 . S
C701 C700 1.386 . S
C701 C705 1.393 . S
C702 H694 0.950 . S
C702 C700 1.391 . S
C702 C703 1.400 . S
C703 C702 1.400 . S
C703 C704 1.398 . S
C703 C709 1.491 . S
C704 H695 0.950 . S
C704 C703 1.398 . S
C704 C705 1.391 . S
C705 H693 0.950 . S
C705 C701 1.393 . S
C705 C704 1.391 . S
C706 H696 0.950 . S
C706 C707 1.386 . S
C706 C708 1.391 . S
C707 C706 1.386 . S
C707 C711 1.393 . S
C708 H697 0.950 . S
C708 C706 1.391 . S
C708 C709 1.400 . S
C709 C703 1.491 . S
C709 C708 1.400 . S
C709 C710 1.398 . S
C710 H698 0.950 . S
C710 C709 1.398 . S
C710 C711 1.391 . S
C711 H699 0.950 . S
C711 C707 1.393 . S
C711 C710 1.391 . S
C241 C125 1.483 . S
C247 C170 1.513 . S
C267 C190 1.521 . S
C261 C144 1.473 . S
C287 C210 1.525 . S
C281 C87 1.484 . S
C307 C230 1.523 . S
C301 C106 1.488 . S
C327 C171 1.517 1_565 S
C321 C49 1.529 . S
C341 C68 1.522 . S
C347 C191 1.535 . S
C361 C11 1.520 . S
C367 C211 1.532 . S
C381 C30 1.526 . S
C387 C231 1.514 1_655 S
C407 C161 0.926 . S
C401 C97 0.936 . S
C427 C181 0.890 . S
C421 C116 0.905 . S
C447 C201 0.928 . S
C441 C135 0.937 . S
C461 C78 0.923 . S
C467 C221 0.929 . S
C481 C21 0.903 . S
C487 C164 0.888 . S
C507 C184 0.920 . S
C501 C40 0.913 . S
C527 C204 0.905 . S
C521 C59 0.922 . S
C541 C2 0.933 . S
C547 C224 0.934 . S
C561 C101 1.531 1_556 S
C567 C154 1.465 . S
C581 C120 1.518 . S
C587 C174 1.439 . S
C607 C194 1.455 . S
C601 C139 1.522 1_556 S
C627 C214 1.432 . S
C621 C82 1.512 . S
C641 C25 1.529 . S
C647 C156 1.466 . S
C667 C176 1.434 . S
C661 C44 1.504 . S
C687 C196 1.448 . S
C681 C63 1.525 . S
C701 C6 1.504 . S
C707 C216 1.426 . S
