# Generated by pormake.
# Topology ftw, (4,12)-cn, num edge types: 1
# Building blocks:
#     Node 0, Type 0, BuildingBlock: MIFKUJ_clean_linker_1, # of connection points: 4
#     Node 1, Type 0, BuildingBlock: MIFKUJ_clean_linker_1, # of connection points: 4
#     Node 2, Type 0, BuildingBlock: MIFKUJ_clean_linker_1, # of connection points: 4
#     Node 3, Type 1, BuildingBlock: EZIPEK_clean_sbu_0, # of connection points: 12
#     Edge 4, Type (0, 1), BuildingBlock: XUDNAN_clean_linker_2, # of connection points: 2
#     Edge 5, Type (0, 1), BuildingBlock: XUDNAN_clean_linker_2, # of connection points: 2
#     Edge 6, Type (0, 1), BuildingBlock: XUDNAN_clean_linker_2, # of connection points: 2
#     Edge 7, Type (0, 1), BuildingBlock: XUDNAN_clean_linker_2, # of connection points: 2
#     Edge 8, Type (0, 1), BuildingBlock: XUDNAN_clean_linker_2, # of connection points: 2
#     Edge 9, Type (0, 1), BuildingBlock: XUDNAN_clean_linker_2, # of connection points: 2
#     Edge 10, Type (0, 1), BuildingBlock: XUDNAN_clean_linker_2, # of connection points: 2
#     Edge 11, Type (0, 1), BuildingBlock: XUDNAN_clean_linker_2, # of connection points: 2
#     Edge 12, Type (0, 1), BuildingBlock: XUDNAN_clean_linker_2, # of connection points: 2
#     Edge 13, Type (0, 1), BuildingBlock: XUDNAN_clean_linker_2, # of connection points: 2
#     Edge 14, Type (0, 1), BuildingBlock: XUDNAN_clean_linker_2, # of connection points: 2
#     Edge 15, Type (0, 1), BuildingBlock: XUDNAN_clean_linker_2, # of connection points: 2
# Relax obj value: 0.048
# Max RMSD: 0.168
# Mean RMSD: 0.128
data_MOF--net-ftw--node1-EZIPEK_clean_sbu_0--node2-MIFKUJ_clean_linker_1--edge1-XUDNAN_clean_linker_2
_symmetry_space_group_name_H-M    P1
_symmetry_Int_Tables_number       1
_symmetry_cell_setting            triclinic
loop_
_symmetry_equiv_pos_as_xyz
'x, y, z'
_cell_length_a     27.477761
_cell_length_b     28.779785
_cell_length_c     27.980664
_cell_angle_alpha  90.112761
_cell_angle_beta   90.042435
_cell_angle_gamma 89.879782
loop_
_atom_site_label
_atom_site_type_symbol
_atom_site_fract_x
_atom_site_fract_y
_atom_site_fract_z
_atom_type_partial_charge
H0 H 0.07886 0.58136 0.58974 0.0
H1 H 0.08863 0.64021 0.65179 0.0
H2 H 0.94257 0.68935 0.62512 0.0
H3 H 0.9332 0.63025 0.56205 0.0
H4 H 0.01012 0.51459 0.60272 0.0
H5 H 0.05492 0.62665 0.48821 0.0
H6 H 0.05907 0.69305 0.4344 0.0
H7 H 0.91994 0.65544 0.37405 0.0
H8 H 0.91542 0.58925 0.42873 0.0
H9 H 0.90647 0.43838 0.44022 0.0
H10 H 0.91022 0.37668 0.37939 0.0
H11 H 0.06172 0.35423 0.41272 0.0
H12 H 0.0577 0.41507 0.47399 0.0
H13 H 0.96902 0.5173 0.43049 0.0
H14 H 0.92797 0.40604 0.56281 0.0
H15 H 0.93781 0.34323 0.62153 0.0
H16 H 0.0894 0.37968 0.63754 0.0
H17 H 0.07885 0.44285 0.58046 0.0
C18 C 0.0052 0.60106 0.57134 0.0
C19 C 0.04926 0.60546 0.59637 0.0
C20 C 0.05467 0.63898 0.63213 0.0
C21 C 0.01602 0.6689 0.6442 0.0
C22 C 0.97305 0.66686 0.61674 0.0
C23 C 0.96767 0.63313 0.58062 0.0
C24 C -0.00338 0.55863 0.54184 0.0
C25 C 0.00119 0.51541 0.56493 0.0
C26 C 0.98436 0.55959 0.49255 0.0
C27 C 0.98434 0.60317 0.46357 0.0
C28 C 0.02453 0.63328 0.46452 0.0
C29 C 0.02711 0.67112 0.43324 0.0
C30 C 0.98986 0.67959 0.39975 0.0
C31 C 0.94951 0.64964 0.39895 0.0
C32 C 0.94675 0.61199 0.43055 0.0
C33 C 0.9817 0.43111 0.4619 0.0
C34 C 0.94005 0.41914 0.43545 0.0
C35 C 0.94216 0.38388 0.40086 0.0
C36 C 0.98625 0.36082 0.39149 0.0
C37 C 0.02727 0.37141 0.41946 0.0
C38 C 0.02493 0.406 0.45457 0.0
C39 C 0.98244 0.47393 0.4916 0.0
C40 C 0.97656 0.51704 0.46855 0.0
C41 C -0.00506 0.47316 0.5405 0.0
C42 C 0.0026 0.42937 0.56761 0.0
C43 C 0.96353 0.39969 0.57824 0.0
C44 C 0.96924 0.36375 0.61176 0.0
C45 C 0.01417 0.35696 0.63503 0.0
C46 C 0.05399 0.3846 0.62127 0.0
C47 C 0.04815 0.42058 0.58834 0.0
H48 H 0.40863 0.17538 0.45577 0.0
H49 H 0.34122 0.17993 0.39852 0.0
H50 H 0.37674 0.04246 0.34711 0.0
H51 H 0.44246 0.03727 0.40511 0.0
H52 H 0.40875 0.11618 0.52633 0.0
H53 H 0.54234 0.14817 0.40627 0.0
H54 H 0.59014 0.13534 0.33295 0.0
H55 H 0.58126 0.98711 0.3548 0.0
H56 H 0.53491 1.00008 0.42824 0.0
H57 H 0.5608 0.98772 0.56673 0.0
H58 H 0.62017 0.96367 0.62658 0.0
H59 H 0.60773 0.09777 0.69538 0.0
H60 H 0.54874 0.12205 0.63443 0.0
H61 H 0.5766 0.05651 0.50492 0.0
H62 H 0.44969 1.0142 0.61361 0.0
H63 H 0.39705 1.01076 0.68422 0.0
H64 H 0.38473 0.16038 0.68336 0.0
H65 H 0.43702 0.1636 0.61245 0.0
C66 C 0.43126 0.1063 0.43434 0.0
C67 C 0.40259 0.14668 0.43138 0.0
C68 C 0.36408 0.14922 0.39884 0.0
C69 C 0.35392 0.11156 0.36847 0.0
C70 C 0.38431 0.0723 0.36955 0.0
C71 C 0.42227 0.06949 0.40252 0.0
C72 C 0.46485 0.09948 0.47522 0.0
C73 C 0.44605 0.10457 0.5216 0.0
C74 C 0.51257 0.08212 0.46943 0.0
C75 C 0.53504 0.07501 0.4222 0.0
C76 C 0.5501 0.113 0.39467 0.0
C77 C 0.57746 0.10568 0.35317 0.0
C78 C 0.58907 0.06028 0.33848 0.0
C79 C 0.57228 1.02238 0.36522 0.0
C80 C 0.54597 0.02972 0.40707 0.0
C81 C 0.55047 0.05664 0.59617 0.0
C82 C 0.57037 1.01173 0.59509 0.0
C83 C 0.60412 0.99796 0.62945 0.0
C84 C 0.61879 0.02893 0.66554 0.0
C85 C 0.59749 0.07339 0.66762 0.0
C86 C 0.56345 0.08712 0.63321 0.0
C87 C 0.52025 0.07275 0.55572 0.0
C88 C 0.53984 0.06962 0.50965 0.0
C89 C 0.4728 0.09053 0.56179 0.0
C90 C 0.44751 0.0892 0.60826 0.0
C91 C 0.43645 0.04628 0.62927 0.0
C92 C 0.40607 0.04431 0.66918 0.0
C93 C 0.38677 0.08529 0.68892 0.0
C94 C 0.39943 0.12834 0.66893 0.0
C95 C 0.42923 0.13024 0.62858 0.0
H96 H 0.54912 0.6197 0.90954 0.0
H97 H 0.61286 0.67854 0.92186 0.0
H98 H 0.61851 0.64264 0.07167 0.0
H99 H 0.55641 0.58348 0.05873 0.0
H100 H 0.57826 0.51063 0.97176 0.0
H101 H 0.40296 0.60119 0.91491 0.0
H102 H 0.35151 0.66943 0.92924 0.0
H103 H 0.41522 0.68463 0.0697 0.0
H104 H 0.46662 0.61692 0.05481 0.0
H105 H 0.40774 0.46079 0.05767 0.0
H106 H 0.35195 0.39724 0.07466 0.0
H107 H 0.38593 0.335 0.93802 0.0
H108 H 0.44237 0.39936 0.9211 0.0
H109 H 0.39849 0.52166 0.98049 0.0
H110 H 0.51028 0.41143 0.04919 0.0
H111 H 0.56342 0.34437 0.06163 0.0
H112 H 0.62802 0.36633 0.92287 0.0
H113 H 0.57395 0.43306 0.91019 0.0
C114 C 0.54829 0.59745 0.98327 0.0
C115 C 0.56358 0.62534 0.9451 0.0
C116 C 0.5998 0.65893 0.95224 0.0
C117 C 0.62115 0.66473 0.99762 0.0
C118 C 0.60347 0.6384 0.03613 0.0
C119 C 0.56776 0.60484 0.02891 0.0
C120 C 0.51662 0.55679 0.97546 0.0
C121 C 0.53882 0.51289 0.97227 0.0
C122 C 0.46544 0.56005 0.97712 0.0
C123 C 0.43947 0.60474 0.98331 0.0
C124 C 0.40643 0.6199 0.94837 0.0
C125 C 0.37669 0.65855 0.95685 0.0
C126 C 0.37918 0.68251 1.00065 0.0
C127 C 0.41296 0.66757 0.03524 0.0
C128 C 0.44266 0.62899 0.0267 0.0
C129 C 0.42904 0.43467 0.98816 0.0
C130 C 0.40345 0.43331 0.03146 0.0
C131 C 0.37182 0.39689 0.04123 0.0
C132 C 0.36475 0.36119 1.00769 0.0
C133 C 0.39065 0.36228 0.96434 0.0
C134 C 0.42296 0.39871 0.95477 0.0
C135 C 0.46008 0.47529 0.97804 0.0
C136 C 0.4378 0.51922 0.97745 0.0
C137 C 0.51126 0.47189 0.97431 0.0
C138 C 0.53772 0.42703 0.97852 0.0
C139 C 0.53473 0.40098 0.02077 0.0
C140 C 0.56552 0.36292 0.02805 0.0
C141 C 0.60015 0.35023 0.99334 0.0
C142 C 0.60145 0.37494 0.95006 0.0
C143 C 0.57073 0.41319 0.94288 0.0
C144 C 0.00084 0.12505 0.89464 0.0
C145 C 0.9769 0.13686 0.12464 0.0
C146 C 0.01263 0.89875 0.90792 0.0
C147 C 0.99036 0.91325 0.14072 0.0
C148 C 0.118 0.91458 0.03471 0.0
C149 C 0.09944 0.13643 0.02817 0.0
C150 C 0.88381 0.89665 1.01251 0.0
C151 C 0.8657 0.12113 1.00324 0.0
C152 C 0.85756 1.01493 0.11374 0.0
C153 C 0.09011 0.03862 0.14558 0.0
C154 C 0.89046 1.00044 0.88706 0.0
C155 C 0.12282 0.0313 0.91819 0.0
Eu156 Eu 0.98485 0.10517 1.01043 0.0
O157 O 0.02362 0.06327 0.06065 0.0
O158 O 0.95097 0.05399 0.96451 0.0
Eu159 Eu 0.08069 1.02364 0.02861 0.0
Eu160 Eu 0.90107 1.01069 1.00395 0.0
O161 O 0.03587 0.05883 0.97733 0.0
O162 O 0.93928 0.0582 0.04991 0.0
Eu163 Eu 0.00377 1.01312 0.92538 0.0
Eu164 Eu 0.97766 1.02309 0.10615 0.0
O165 O 0.04303 0.97682 0.98148 0.0
O166 O 0.0307 0.98155 0.06814 0.0
O167 O 0.94626 0.97547 0.05537 0.0
O168 O 0.95901 0.97134 0.97177 0.0
Eu169 Eu -0.00112 0.92954 0.02262 0.0
O170 O -0.00728 0.1405 0.93893 0.0
O171 O 0.98258 0.14782 0.07862 0.0
O172 O 0.00799 0.8875 0.95413 0.0
O173 O -0.00304 0.89537 0.09686 0.0
O174 O 0.12768 0.95988 0.03586 0.0
O175 O 0.1157 0.09355 0.03552 0.0
O176 O 0.86581 0.93914 1.00458 0.0
O177 O 0.85444 0.07618 0.99863 0.0
O178 O 0.90043 1.0214 0.13529 0.0
O179 O 0.04246 0.03607 0.15431 0.0
O180 O 0.93765 1.00537 0.87697 0.0
O181 O 0.0807 1.02205 0.89616 0.0
O182 O 0.93055 0.88634 0.02004 0.0
O183 O 0.07378 0.89596 0.02956 0.0
O184 O 0.91039 0.13853 1.00803 0.0
O185 O 0.05406 0.14845 0.0162 0.0
O186 O 0.97119 0.09396 0.14188 0.0
O187 O 0.98177 0.95791 0.15061 0.0
O188 O 0.00469 0.08039 0.88158 0.0
O189 O 0.01273 0.94198 0.89028 0.0
O190 O 0.12993 0.03258 0.96524 0.0
O191 O 0.11108 0.03279 0.10302 0.0
O192 O 0.8703 1.00123 0.93023 0.0
O193 O 0.85055 1.00932 0.06702 0.0
H194 H 0.93592 0.28059 0.36848 0.0
H195 H 0.04795 0.37418 0.31771 0.0
H196 H 0.05584 0.32791 0.24372 0.0
H197 H -0.00635 0.17525 0.32237 0.0
H198 H 0.93696 0.1477 0.30675 0.0
H199 H 0.93912 0.18862 0.35552 0.0
H200 H 0.8709 0.23708 0.31529 0.0
H201 H 0.86887 0.19636 0.26635 0.0
H202 H 0.87903 0.25717 0.25484 0.0
H203 H 0.04935 0.27467 0.17428 0.0
H204 H 0.03522 0.21208 0.11582 0.0
H205 H 0.93158 0.14805 0.21234 0.0
C206 C 0.96209 0.29106 0.34169 0.0
C207 C -0.00859 0.3309 0.34859 0.0
C208 C 0.02549 0.3436 0.31309 0.0
C209 C 0.03003 0.31769 0.27092 0.0
C210 C 0.00066 0.27874 0.265 0.0
C211 C 0.96785 0.26488 0.29956 0.0
C212 C 0.94216 0.22043 0.28452 0.0
C213 C 0.95368 0.18065 0.31937 0.0
C214 C 0.88697 0.22825 0.27998 0.0
C215 C 0.96532 0.21195 0.23598 0.0
C216 C -0.00149 0.24644 0.22538 0.0
C217 C 0.02365 0.24731 0.18223 0.0
C218 C 0.01509 0.21176 0.1491 0.0
C219 C 0.98217 0.17533 0.15943 0.0
C220 C 0.95705 0.17541 0.20358 0.0
H221 H 0.67959 0.09614 0.32336 0.0
H222 H 0.5715 1.00383 0.26232 0.0
H223 H 0.62888 0.98262 0.19775 0.0
H224 H 0.73325 0.13543 0.2101 0.0
H225 H 0.79422 0.13594 0.23391 0.0
H226 H 0.74317 0.14681 0.27274 0.0
H227 H 0.77188 0.07992 0.32796 0.0
H228 H 0.82259 0.06853 0.28889 0.0
H229 H 0.78059 1.02259 0.30325 0.0
H230 H 0.69792 0.96961 0.1421 0.0
H231 H 0.77489 0.96602 0.09703 0.0
H232 H 0.84007 0.06421 0.19605 0.0
C233 C 0.6678 0.0723 0.29569 0.0
C234 C 0.62116 0.05188 0.29717 0.0
C235 C 0.60712 1.01988 0.26135 0.0
C236 C 0.63939 1.00768 0.22472 0.0
C237 C 0.68554 0.02759 0.22482 0.0
C238 C 0.6998 0.05932 0.25919 0.0
C239 C 0.75233 0.0738 0.25224 0.0
C240 C 0.75593 0.12609 0.2416 0.0
C241 C 0.78368 0.06038 0.29567 0.0
C242 C 0.7654 0.04493 0.20881 0.0
C243 C 0.72617 1.01884 0.19345 0.0
C244 C 0.7289 0.98988 0.15368 0.0
C245 C 0.77273 0.98807 0.1284 0.0
C246 C 0.81333 1.01468 0.1433 0.0
C247 C 0.80975 0.04304 0.18435 0.0
H248 H 0.96805 0.68264 0.30291 0.0
H249 H 0.0189 0.76788 0.42096 0.0
H250 H 0.02624 0.83477 0.36669 0.0
H251 H 0.0465 0.73285 0.21267 0.0
H252 H 0.00147 0.7307 0.16585 0.0
H253 H -0.0 0.68877 0.21358 0.0
H254 H 0.91104 0.71202 0.23274 0.0
H255 H 0.9122 0.75388 0.18496 0.0
H256 H 0.89663 0.77207 0.24472 0.0
H257 H 0.027 0.89248 0.30163 0.0
H258 H 0.02136 0.93917 0.22862 0.0
H259 H 0.97079 0.81837 0.14969 0.0
C260 C 0.98045 0.71548 0.31734 0.0
C261 C -0.00687 0.71987 0.36635 0.0
C262 C 0.00964 0.76337 0.38361 0.0
C263 C 0.01373 0.80167 0.35306 0.0
C264 C 0.00136 0.79611 0.3051 0.0
C265 C 0.98507 0.75425 0.28711 0.0
C266 C 0.97434 0.75818 0.23383 0.0
C267 C 0.00756 0.72569 0.20477 0.0
C268 C 0.92034 0.74846 0.22347 0.0
C269 C 0.98682 0.80891 0.22495 0.0
C270 C 0.00226 0.82984 0.26681 0.0
C271 C 0.01498 0.87651 0.26863 0.0
C272 C 0.01142 0.9028 0.22682 0.0
C273 C -0.00462 0.88263 0.18326 0.0
C274 C 0.98347 0.83474 0.18226 0.0
H275 H 0.34388 0.08628 0.27453 0.0
H276 H 0.26217 0.13257 0.39842 0.0
H277 H 0.18528 0.1205 0.35433 0.0
H278 H 0.26101 0.1381 0.18444 0.0
H279 H 0.26935 0.09032 0.14354 0.0
H280 H 0.31783 0.10668 0.18354 0.0
H281 H 0.32096 1.02233 0.21595 0.0
H282 H 0.2721 1.00588 0.17659 0.0
H283 H 0.2665 0.99658 0.24003 0.0
H284 H 0.11749 0.09645 0.29948 0.0
H285 H 0.06343 0.06907 0.23495 0.0
H286 H 0.18992 0.03918 0.14676 0.0
C287 C 0.30978 0.0946 0.29199 0.0
C288 C 0.30879 0.11056 0.33969 0.0
C289 C 0.26362 0.12101 0.36159 0.0
C290 C 0.21982 0.11396 0.33698 0.0
C291 C 0.22198 0.097 0.29038 0.0
C292 C 0.26579 0.08823 0.26778 0.0
C293 C 0.25801 0.06925 0.2179 0.0
C294 C 0.27772 0.10311 0.18013 0.0
C295 C 0.28074 1.02062 0.21233 0.0
C296 C 0.20304 0.06721 0.21665 0.0
C297 C 0.1829 0.08354 0.25866 0.0
C298 C 0.1328 0.08397 0.26621 0.0
C299 C 0.10242 0.06798 0.22944 0.0
C300 C 0.12232 0.05182 0.18571 0.0
C301 C 0.17338 0.0513 0.17962 0.0
H302 H 0.9883 0.76121 0.65776 0.0
H303 H 0.05034 0.64222 0.73115 0.0
H304 H 0.05711 0.68832 0.80497 0.0
H305 H 0.06334 0.8481 0.71591 0.0
H306 H 0.01545 0.8908 0.72011 0.0
H307 H 0.01494 0.84869 0.67237 0.0
H308 H 0.92847 0.82265 0.69735 0.0
H309 H 0.92871 0.86474 0.7451 0.0
H310 H 0.9177 0.80434 0.758 0.0
H311 H 0.05613 0.74577 0.87143 0.0
H312 H 0.04857 0.81221 0.92658 0.0
H313 H 0.98885 0.89611 0.81169 0.0
C314 C 0.00319 0.74493 0.68943 0.0
C315 C 0.01931 0.69809 0.68833 0.0
C316 C 0.03864 0.67817 0.73064 0.0
C317 C 0.04238 0.70402 0.77294 0.0
C318 C 0.02674 0.75003 0.77275 0.0
C319 C 0.0076 0.77051 0.73222 0.0
C320 C -0.00613 0.82086 0.74216 0.0
C321 C 0.02369 0.85407 0.71077 0.0
C322 C 0.93892 0.82859 0.73524 0.0
C323 C 0.00818 0.8252 0.79452 0.0
C324 C 0.02684 0.78374 0.81134 0.0
C325 C 0.04166 0.77847 0.85866 0.0
C326 C 0.03708 0.81646 0.8898 0.0
C327 C 0.0182 0.85951 0.87362 0.0
C328 C 0.00389 0.86386 0.8251 0.0
H329 H 0.30537 0.03115 0.69553 0.0
H330 H 0.38917 0.13512 0.77192 0.0
H331 H 0.32984 0.13276 0.83831 0.0
H332 H 0.18731 0.07499 0.72983 0.0
H333 H 0.16027 1.01822 0.7351 0.0
H334 H 0.20962 0.02746 0.69388 0.0
H335 H 0.2587 0.9612 0.73411 0.0
H336 H 0.20945 0.9517 0.77536 0.0
H337 H 0.2698 0.96337 0.79759 0.0
H338 H 0.26343 0.11801 0.89639 0.0
H339 H 0.19195 0.09375 0.94282 0.0
H340 H 0.14851 1.00102 0.82787 0.0
C341 C 0.31134 0.05307 0.72649 0.0
C342 C 0.35189 0.08311 0.72901 0.0
C343 C 0.35822 0.11199 0.76949 0.0
C344 C 0.32484 0.11079 0.80727 0.0
C345 C 0.28518 0.08089 0.80363 0.0
C346 C 0.27804 0.05273 0.76424 0.0
C347 C 0.23181 1.02443 0.76905 0.0
C348 C 0.19508 0.03705 0.72962 0.0
C349 C 0.24314 0.97207 0.76904 0.0
C350 C 0.21437 0.04071 0.81761 0.0
C351 C 0.2459 0.07317 0.83686 0.0
C352 C 0.23847 0.09266 0.88174 0.0
C353 C 0.19789 0.07841 0.9079 0.0
C354 C 0.16497 0.0452 0.88901 0.0
C355 C 0.17304 1.02652 0.84302 0.0
H356 H 0.97643 0.2678 0.64784 0.0
H357 H 0.06088 0.37532 0.7186 0.0
H358 H 0.06895 0.32586 0.78947 0.0
H359 H 0.91045 0.23128 0.75262 0.0
H360 H 0.91125 0.17032 0.7377 0.0
H361 H 0.91297 0.21322 0.69093 0.0
H362 H -0.00783 0.17627 0.65796 0.0
H363 H 0.99067 0.13334 0.70475 0.0
H364 H 0.04383 0.16914 0.69705 0.0
H365 H 0.06584 0.26816 0.85367 0.0
H366 H 0.05192 0.20347 0.90914 0.0
H367 H 0.97064 0.12992 0.79958 0.0
C368 C -0.0033 0.28078 0.67824 0.0
C369 C 0.01874 0.32535 0.67711 0.0
C370 C 0.04476 0.34102 0.71783 0.0
C371 C 0.0493 0.31326 0.75854 0.0
C372 C 0.02764 0.26965 0.75839 0.0
C373 C 0.00186 0.2532 0.71951 0.0
C374 C 0.98171 0.20494 0.72979 0.0
C375 C 0.92578 0.20496 0.72763 0.0
C376 C 0.0034 0.16878 0.69533 0.0
C377 C -0.00014 0.19736 0.78061 0.0
C378 C 0.02622 0.2354 0.79608 0.0
C379 C 0.04547 0.23807 0.84197 0.0
C380 C 0.03721 0.20116 0.87327 0.0
C381 C 0.01023 0.1617 0.85871 0.0
C382 C -0.00817 0.15945 0.81145 0.0
H383 H 0.69627 0.08151 0.69552 0.0
H384 H 0.62999 0.94557 0.71113 0.0
H385 H 0.69791 0.92113 0.76315 0.0
H386 H 0.82145 0.04315 0.69366 0.0
H387 H 0.84348 0.09163 0.7283 0.0
H388 H 0.79051 0.09839 0.69092 0.0
H389 H 0.74019 0.12664 0.76385 0.0
H390 H 0.79325 0.12071 0.80109 0.0
H391 H 0.73779 0.09115 0.81682 0.0
H392 H 0.76998 0.91255 0.81613 0.0
H393 H 0.84024 0.92195 0.87057 0.0
H394 H 0.86114 0.06252 0.81965 0.0
C395 C 0.69585 0.04673 0.7102 0.0
C396 C 0.65795 1.01533 0.69917 0.0
C397 C 0.65898 0.96996 0.71866 0.0
C398 C 0.69736 0.95577 0.74819 0.0
C399 C 0.73449 0.98731 0.75772 0.0
C400 C 0.73396 0.03195 0.73965 0.0
C401 C 0.77751 0.05953 0.75692 0.0
C402 C 0.81016 0.07401 0.71493 0.0
C403 C 0.7612 0.102 0.78643 0.0
C404 C 0.80231 1.0235 0.78792 0.0
C405 C 0.77695 0.98201 0.78763 0.0
C406 C 0.79067 0.9445 0.81602 0.0
C407 C 0.83062 0.94999 0.84652 0.0
C408 C 0.85644 0.99237 0.84784 0.0
C409 C 0.84281 0.02928 0.81768 0.0
H410 H 0.29259 0.32738 0.94926 0.0
H411 H 0.35662 0.31176 0.09017 0.0
H412 H 0.2927 0.25544 0.11155 0.0
H413 H 0.1687 0.32221 0.98547 0.0
H414 H 0.14825 0.28881 0.93474 0.0
H415 H 0.20009 0.32663 0.92911 0.0
H416 H 0.25293 0.25756 0.89956 0.0
H417 H 0.20103 0.21973 0.90444 0.0
H418 H 0.25671 0.20559 0.93525 0.0
H419 H 0.22274 0.20177 0.11814 0.0
H420 H 0.15184 0.15004 0.10806 0.0
H421 H 0.13077 0.20143 0.96398 0.0
C422 C 0.2935 0.31147 0.98429 0.0
C423 C 0.32938 0.3239 0.01818 0.0
C424 C 0.32915 0.30292 0.06391 0.0
C425 C 0.29306 0.27096 0.07635 0.0
C426 C 0.25747 0.26041 0.04266 0.0
C427 C 0.25751 0.27958 0.99742 0.0
C428 C 0.21474 0.26217 0.96815 0.0
C429 C 0.18095 0.30236 0.95352 0.0
C430 C 0.23241 0.23463 0.92426 0.0
C431 C 0.19048 0.23067 1.00427 0.0
C432 C 0.21597 0.2301 0.04692 0.0
C433 C 0.20218 0.20221 0.08514 0.0
C434 C 0.16186 0.17324 0.07922 0.0
C435 C 0.13562 0.1729 0.03573 0.0
C436 C 0.14954 0.20238 0.99802 0.0
H437 H 0.28177 0.69087 0.97813 0.0
H438 H 0.40131 0.764 0.04636 0.0
H439 H 0.34602 0.82882 0.066 0.0
H440 H 0.22633 0.79216 0.92507 0.0
H441 H 0.16494 0.77207 0.93413 0.0
H442 H 0.21362 0.73075 0.92638 0.0
H443 H 0.19048 0.69189 1.00666 0.0
H444 H 0.14199 0.73339 0.01478 0.0
H445 H 0.1879 0.72661 0.0603 0.0
H446 H 0.2792 0.88603 0.07699 0.0
H447 H 0.20504 0.93406 0.07652 0.0
H448 H 0.12786 0.82494 1.00056 0.0
C449 C 0.29645 0.72068 0.99684 0.0
C450 C 0.34597 0.72219 1.0109 0.0
C451 C 0.36346 0.76166 0.03586 0.0
C452 C 0.33237 0.79874 0.04703 0.0
C453 C 0.28383 0.79594 0.033 0.0
C454 C 0.26588 0.75811 1.00827 0.0
C455 C 0.21227 0.7644 0.99671 0.0
C456 C 0.20381 0.76489 0.94235 0.0
C457 C 0.18134 0.72683 0.02108 0.0
C458 C 0.20306 0.81185 0.01859 0.0
C459 C 0.2449 0.82921 0.03943 0.0
C460 C 0.24618 0.87282 0.06088 0.0
C461 C 0.20382 0.89986 0.06033 0.0
C462 C 0.1606 0.88327 0.03853 0.0
C463 C 0.16012 0.83832 0.01802 0.0
H464 H 0.63482 0.27898 0.93591 0.0
H465 H 0.65246 0.34288 0.07552 0.0
H466 H 0.71929 0.28861 0.09367 0.0
H467 H 0.66137 0.1594 0.97486 0.0
H468 H 0.69379 0.14477 0.92088 0.0
H469 H 0.64542 0.18715 0.91929 0.0
H470 H 0.70441 0.24714 0.88209 0.0
H471 H 0.75285 0.20493 0.88374 0.0
H472 H 0.76058 0.26058 0.91241 0.0
H473 H 0.78808 0.23324 0.09462 0.0
H474 H 0.85259 0.17504 0.08036 0.0
H475 H 0.7897 0.14249 0.94215 0.0
C476 C 0.65254 0.28117 0.97042 0.0
C477 C 0.63809 0.31495 1.0045 0.0
C478 C 0.66221 0.31681 0.04923 0.0
C479 C 0.70044 0.2863 0.05978 0.0
C480 C 0.71398 0.25372 0.02543 0.0
C481 C 0.69059 0.25045 0.98184 0.0
C482 C 0.71319 0.21242 0.95122 0.0
C483 C 0.67623 0.17363 0.94097 0.0
C484 C 0.734 0.23248 0.90461 0.0
C485 C 0.75347 0.19558 0.98415 0.0
C486 C 0.75318 0.22019 0.02667 0.0
C487 C 0.78831 0.21326 0.06182 0.0
C488 C 0.82482 0.18034 0.05336 0.0
C489 C 0.8256 0.15432 1.01046 0.0
C490 C 0.78925 0.1616 0.97553 0.0
H491 H 0.63803 0.75354 0.96329 0.0
H492 H 0.70339 0.64244 0.04648 0.0
H493 H 0.77634 0.69016 0.05923 0.0
H494 H 0.74955 0.79038 0.90529 0.0
H495 H 0.73467 0.85137 0.90734 0.0
H496 H 0.6868 0.80877 0.90435 0.0
H497 H 0.64816 0.8432 0.98112 0.0
H498 H 0.69593 0.88588 0.98431 0.0
H499 H 0.68451 0.84834 0.03455 0.0
H500 H 0.84209 0.74789 0.0627 0.0
H501 H 0.89795 0.81421 0.05785 0.0
H502 H 0.79174 0.88998 0.97296 0.0
C503 C 0.66781 0.73933 0.98402 0.0
C504 C 0.66474 0.69444 1.00438 0.0
C505 C 0.70444 0.67705 0.03138 0.0
C506 C 0.74622 0.70375 0.03857 0.0
C507 C 0.74797 0.74784 0.01847 0.0
C508 C 0.71001 0.76573 0.99177 0.0
C509 C 0.72175 0.81446 0.97453 0.0
C510 C 0.72328 0.81634 0.91962 0.0
C511 C 0.68542 0.85007 0.99486 0.0
C512 C 0.7721 0.82093 0.99587 0.0
C513 C 0.78639 0.78184 0.02082 0.0
C514 C 0.83144 0.77875 0.04325 0.0
C515 C 0.86299 0.81662 0.04009 0.0
C516 C 0.84934 0.8573 0.01489 0.0
C517 C 0.80309 0.85948 0.99269 0.0
loop_
_geom_bond_atom_site_label_1
_geom_bond_atom_site_label_2
_geom_bond_distance
_geom_bond_site_symmetry_2
_ccdc_geom_bond_type
H0 C19 0.949 . S
H1 C20 0.950 . S
H2 C22 0.950 . S
H3 C23 0.950 . S
H4 C25 0.950 . S
H5 C28 0.950 . S
H6 C29 0.950 . S
H7 C31 0.951 . S
H8 C32 0.949 . S
H9 C34 0.949 . S
H10 C35 0.950 . S
H11 C37 0.950 . S
H12 C38 0.950 . S
H13 C40 0.950 . S
H14 C43 0.950 . S
H15 C44 0.950 . S
H16 C46 0.951 . S
H17 C47 0.949 . S
C18 C19 1.376 . S
C18 C23 1.386 1_455 S
C18 C24 1.483 . S
C19 H0 0.949 . S
C19 C18 1.376 . S
C19 C20 1.397 . S
C20 H1 0.950 . S
C20 C19 1.397 . S
C20 C21 1.391 . S
C21 C20 1.391 . S
C21 C22 1.405 1_455 S
C22 H2 0.950 . S
C22 C21 1.405 1_655 S
C22 C23 1.367 . S
C23 H3 0.950 . S
C23 C18 1.386 1_655 S
C23 C22 1.367 . S
C24 C18 1.483 . S
C24 C25 1.382 . S
C24 C26 1.403 1_455 S
C25 H4 0.950 . S
C25 C24 1.382 . S
C25 C41 1.411 . S
C26 C24 1.403 1_655 S
C26 C27 1.489 . S
C26 C40 1.411 . S
C27 C26 1.489 . S
C27 C28 1.383 1_655 S
C27 C32 1.382 . S
C28 H5 0.950 . S
C28 C27 1.383 1_455 S
C28 C29 1.395 . S
C29 H6 0.950 . S
C29 C28 1.395 . S
C29 C30 1.288 1_455 S
C30 C29 1.288 1_655 S
C30 C31 1.392 . S
C31 H7 0.951 . S
C31 C30 1.392 . S
C31 C32 1.392 . S
C32 H8 0.949 . S
C32 C27 1.382 . S
C32 C31 1.392 . S
C33 C34 1.376 . S
C33 C38 1.386 1_655 S
C33 C39 1.483 . S
C34 H9 0.949 . S
C34 C33 1.376 . S
C34 C35 1.397 . S
C35 H10 0.950 . S
C35 C34 1.397 . S
C35 C36 1.391 . S
C36 C35 1.391 . S
C36 C37 1.405 1_655 S
C37 H11 0.950 . S
C37 C36 1.405 1_455 S
C37 C38 1.367 . S
C38 H12 0.950 . S
C38 C33 1.386 1_455 S
C38 C37 1.367 . S
C39 C33 1.483 . S
C39 C40 1.382 . S
C39 C41 1.403 1_655 S
C40 H13 0.950 . S
C40 C26 1.411 . S
C40 C39 1.382 . S
C41 C25 1.411 . S
C41 C39 1.403 1_455 S
C41 C42 1.489 . S
C42 C41 1.489 . S
C42 C43 1.383 1_455 S
C42 C47 1.382 . S
C43 H14 0.950 . S
C43 C42 1.383 1_655 S
C43 C44 1.395 . S
C44 H15 0.950 . S
C44 C43 1.395 . S
C44 C45 1.288 1_655 S
C45 C44 1.288 1_455 S
C45 C46 1.392 . S
C46 H16 0.951 . S
C46 C45 1.392 . S
C46 C47 1.392 . S
C47 H17 0.949 . S
C47 C42 1.382 . S
C47 C46 1.392 . S
H48 C67 0.949 . S
H49 C68 0.950 . S
H50 C70 0.950 . S
H51 C71 0.950 . S
H52 C73 0.950 . S
H53 C76 0.950 . S
H54 C77 0.950 . S
H55 C79 0.951 . S
H56 C80 0.949 . S
H57 C82 0.949 . S
H58 C83 0.950 . S
H59 C85 0.950 . S
H60 C86 0.950 . S
H61 C88 0.950 . S
H62 C91 0.950 . S
H63 C92 0.950 . S
H64 C94 0.951 . S
H65 C95 0.949 . S
C66 C67 1.376 . S
C66 C71 1.386 1_545 S
C66 C72 1.483 . S
C67 H48 0.949 . S
C67 C66 1.376 . S
C67 C68 1.397 . S
C68 H49 0.950 . S
C68 C67 1.397 . S
C68 C69 1.391 . S
C69 C68 1.391 . S
C69 C70 1.405 1_545 S
C70 H50 0.950 . S
C70 C69 1.405 1_565 S
C70 C71 1.367 . S
C71 H51 0.950 . S
C71 C66 1.386 1_565 S
C71 C70 1.367 . S
C72 C66 1.483 . S
C72 C73 1.382 . S
C72 C74 1.403 1_545 S
C73 H52 0.950 . S
C73 C72 1.382 . S
C73 C89 1.411 . S
C74 C72 1.403 1_565 S
C74 C75 1.489 . S
C74 C88 1.411 . S
C75 C74 1.489 . S
C75 C76 1.383 1_565 S
C75 C80 1.382 . S
C76 H53 0.950 . S
C76 C75 1.383 1_545 S
C76 C77 1.395 . S
C77 H54 0.950 . S
C77 C76 1.395 . S
C77 C78 1.288 1_545 S
C78 C77 1.288 1_565 S
C78 C79 1.392 . S
C79 H55 0.951 . S
C79 C78 1.392 . S
C79 C80 1.392 . S
C80 H56 0.949 . S
C80 C75 1.382 . S
C80 C79 1.392 . S
C81 C82 1.376 . S
C81 C86 1.386 1_565 S
C81 C87 1.483 . S
C82 H57 0.949 . S
C82 C81 1.376 . S
C82 C83 1.397 . S
C83 H58 0.950 . S
C83 C82 1.397 . S
C83 C84 1.391 . S
C84 C83 1.391 . S
C84 C85 1.405 1_565 S
C85 H59 0.950 . S
C85 C84 1.405 1_545 S
C85 C86 1.367 . S
C86 H60 0.950 . S
C86 C81 1.386 1_545 S
C86 C85 1.367 . S
C87 C81 1.483 . S
C87 C88 1.382 . S
C87 C89 1.403 1_565 S
C88 H61 0.950 . S
C88 C74 1.411 . S
C88 C87 1.382 . S
C89 C73 1.411 . S
C89 C87 1.403 1_545 S
C89 C90 1.489 . S
C90 C89 1.489 . S
C90 C91 1.383 1_545 S
C90 C95 1.382 . S
C91 H62 0.950 . S
C91 C90 1.383 1_565 S
C91 C92 1.395 . S
C92 H63 0.950 . S
C92 C91 1.395 . S
C92 C93 1.288 1_565 S
C93 C92 1.288 1_545 S
C93 C94 1.392 . S
C94 H64 0.951 . S
C94 C93 1.392 . S
C94 C95 1.392 . S
C95 H65 0.949 . S
C95 C90 1.382 . S
C95 C94 1.392 . S
H96 C115 0.949 . S
H97 C116 0.950 . S
H98 C118 0.950 . S
H99 C119 0.950 . S
H100 C121 0.950 . S
H101 C124 0.950 . S
H102 C125 0.950 . S
H103 C127 0.951 . S
H104 C128 0.949 . S
H105 C130 0.949 . S
H106 C131 0.950 . S
H107 C133 0.950 . S
H108 C134 0.950 . S
H109 C136 0.950 . S
H110 C139 0.950 . S
H111 C140 0.950 . S
H112 C142 0.951 . S
H113 C143 0.949 . S
C114 C115 1.376 . S
C114 C119 1.386 1_556 S
C114 C120 1.483 . S
C115 H96 0.949 . S
C115 C114 1.376 . S
C115 C116 1.397 . S
C116 H97 0.950 . S
C116 C115 1.397 . S
C116 C117 1.391 . S
C117 C116 1.391 . S
C117 C118 1.405 1_556 S
C118 H98 0.950 . S
C118 C117 1.405 1_554 S
C118 C119 1.367 . S
C119 H99 0.950 . S
C119 C114 1.386 1_554 S
C119 C118 1.367 . S
C120 C114 1.483 . S
C120 C121 1.382 . S
C120 C122 1.403 1_556 S
C121 H100 0.950 . S
C121 C120 1.382 . S
C121 C137 1.411 . S
C122 C120 1.403 1_554 S
C122 C123 1.489 . S
C122 C136 1.411 . S
C123 C122 1.489 . S
C123 C124 1.383 1_554 S
C123 C128 1.382 . S
C124 H101 0.950 . S
C124 C123 1.383 1_556 S
C124 C125 1.395 . S
C125 H102 0.950 . S
C125 C124 1.395 . S
C125 C126 1.288 1_556 S
C126 C125 1.288 1_554 S
C126 C127 1.392 . S
C127 H103 0.951 . S
C127 C126 1.392 . S
C127 C128 1.392 . S
C128 H104 0.949 . S
C128 C123 1.382 . S
C128 C127 1.392 . S
C129 C130 1.376 . S
C129 C134 1.386 1_554 S
C129 C135 1.483 . S
C130 H105 0.949 . S
C130 C129 1.376 . S
C130 C131 1.397 . S
C131 H106 0.950 . S
C131 C130 1.397 . S
C131 C132 1.391 . S
C132 C131 1.391 . S
C132 C133 1.405 1_554 S
C133 H107 0.950 . S
C133 C132 1.405 1_556 S
C133 C134 1.367 . S
C134 H108 0.950 . S
C134 C129 1.386 1_556 S
C134 C133 1.367 . S
C135 C129 1.483 . S
C135 C136 1.382 . S
C135 C137 1.403 1_554 S
C136 H109 0.950 . S
C136 C122 1.411 . S
C136 C135 1.382 . S
C137 C121 1.411 . S
C137 C135 1.403 1_556 S
C137 C138 1.489 . S
C138 C137 1.489 . S
C138 C139 1.383 1_556 S
C138 C143 1.382 . S
C139 H110 0.950 . S
C139 C138 1.383 1_554 S
C139 C140 1.395 . S
C140 H111 0.950 . S
C140 C139 1.395 . S
C140 C141 1.288 1_554 S
C141 C140 1.288 1_556 S
C141 C142 1.392 . S
C142 H112 0.951 . S
C142 C141 1.392 . S
C142 C143 1.392 . S
C143 H113 0.949 . S
C143 C138 1.382 . S
C143 C142 1.392 . S
C144 O170 1.283 . S
C144 O188 1.283 . S
C145 O171 1.283 . S
C145 O186 1.283 . S
C146 O172 1.283 . S
C146 O189 1.283 . S
C147 O173 1.283 . S
C147 O187 1.283 . S
C148 O174 1.283 . S
C148 O183 1.283 . S
C149 O175 1.283 . S
C149 O185 1.283 . S
C150 O176 1.283 . S
C150 O182 1.283 . S
C151 O177 1.283 . S
C151 O184 1.283 . S
C152 O178 1.283 . S
C152 O193 1.283 . S
C153 O179 1.283 . S
C153 O191 1.283 . S
C154 O180 1.283 . S
C154 O192 1.283 . S
C155 O181 1.283 . S
C155 O190 1.283 . S
Eu156 O157 2.371 . S
Eu156 O158 2.370 1_454 S
Eu156 O161 2.370 1_554 S
Eu156 O162 2.370 1_455 S
Eu156 O170 2.363 1_554 S
Eu156 O171 2.363 . S
Eu156 O184 2.362 1_455 S
Eu156 O185 2.363 . S
O157 Eu156 2.371 . S
O157 Eu159 2.371 . S
O157 Eu164 2.371 . S
O158 Eu156 2.370 1_656 S
O158 Eu160 2.370 1_556 S
O158 Eu163 2.370 1_655 S
Eu159 O157 2.371 . S
Eu159 O161 2.370 1_554 S
Eu159 O165 2.369 1_544 S
Eu159 O166 2.370 1_545 S
Eu159 O174 2.362 1_545 S
Eu159 O175 2.363 . S
Eu159 O190 2.362 1_554 S
Eu159 O191 2.363 . S
Eu160 O158 2.370 1_554 S
Eu160 O162 2.369 . S
Eu160 O167 2.370 1_545 S
Eu160 O168 2.371 1_544 S
Eu160 O176 2.363 1_545 S
Eu160 O177 2.362 . S
Eu160 O192 2.363 1_554 S
Eu160 O193 2.362 . S
O161 Eu156 2.370 1_556 S
O161 Eu159 2.370 1_556 S
O161 Eu163 2.370 . S
O162 Eu156 2.370 1_655 S
O162 Eu160 2.369 . S
O162 Eu164 2.370 1_655 S
Eu163 O158 2.370 1_455 S
Eu163 O161 2.370 . S
Eu163 O165 2.370 1_545 S
Eu163 O168 2.371 1_445 S
Eu163 O180 2.363 1_455 S
Eu163 O181 2.362 . S
Eu163 O188 2.362 . S
Eu163 O189 2.363 1_545 S
Eu164 O157 2.371 . S
Eu164 O162 2.370 1_455 S
Eu164 O166 2.370 1_545 S
Eu164 O167 2.370 1_445 S
Eu164 O178 2.362 1_455 S
Eu164 O179 2.363 . S
Eu164 O186 2.363 . S
Eu164 O187 2.362 1_545 S
O165 Eu159 2.369 1_566 S
O165 Eu163 2.370 1_565 S
O165 Eu169 2.370 1_556 S
O166 Eu159 2.370 1_565 S
O166 Eu164 2.370 1_565 S
O166 Eu169 2.370 . S
O167 Eu160 2.370 1_565 S
O167 Eu164 2.370 1_665 S
O167 Eu169 2.370 1_655 S
O168 Eu160 2.371 1_566 S
O168 Eu163 2.371 1_665 S
O168 Eu169 2.371 1_656 S
Eu169 O165 2.370 1_554 S
Eu169 O166 2.370 . S
Eu169 O167 2.370 1_455 S
Eu169 O168 2.371 1_454 S
Eu169 O172 2.363 1_554 S
Eu169 O173 2.363 . S
Eu169 O182 2.363 1_455 S
Eu169 O183 2.362 . S
O170 C144 1.283 . S
O170 Eu156 2.363 1_556 S
O171 C145 1.283 . S
O171 Eu156 2.363 . S
O172 C146 1.283 . S
O172 Eu169 2.363 1_556 S
O173 C147 1.283 . S
O173 Eu169 2.363 . S
O174 C148 1.283 . S
O174 Eu159 2.362 1_565 S
O175 C149 1.283 . S
O175 Eu159 2.363 . S
O176 C150 1.283 . S
O176 Eu160 2.363 1_565 S
O177 C151 1.283 . S
O177 Eu160 2.362 . S
O178 C152 1.283 . S
O178 Eu164 2.362 1_655 S
O179 C153 1.283 . S
O179 Eu164 2.363 . S
O180 C154 1.283 . S
O180 Eu163 2.363 1_655 S
O181 C155 1.283 . S
O181 Eu163 2.362 . S
O182 C150 1.283 . S
O182 Eu169 2.363 1_655 S
O183 C148 1.283 . S
O183 Eu169 2.362 . S
O184 C151 1.283 . S
O184 Eu156 2.362 1_655 S
O185 C149 1.283 . S
O185 Eu156 2.363 . S
O186 C145 1.283 . S
O186 Eu164 2.363 . S
O187 C147 1.283 . S
O187 Eu164 2.362 1_565 S
O188 C144 1.283 . S
O188 Eu163 2.362 . S
O189 C146 1.283 . S
O189 Eu163 2.363 1_565 S
O190 C155 1.283 . S
O190 Eu159 2.362 1_556 S
O191 C153 1.283 . S
O191 Eu159 2.363 . S
O192 C154 1.283 . S
O192 Eu160 2.363 1_556 S
O193 C152 1.283 . S
O193 Eu160 2.362 . S
H194 C206 0.930 . S
H195 C208 0.930 . S
H196 C209 0.930 . S
H197 C213 0.959 . S
H198 C213 0.959 . S
H199 C213 0.961 . S
H200 C214 0.960 . S
H201 C214 0.961 . S
H202 C214 0.959 . S
H203 C217 0.929 . S
H204 C218 0.931 . S
H205 C220 0.930 . S
C206 H194 0.930 . S
C206 C207 1.399 1_655 S
C206 C211 1.399 . S
C207 C206 1.399 1_455 S
C207 C208 1.376 . S
C208 H195 0.930 . S
C208 C207 1.376 . S
C208 C209 1.388 . S
C209 H196 0.930 . S
C209 C208 1.388 . S
C209 C210 1.390 . S
C210 C209 1.390 . S
C210 C211 1.394 1_455 S
C210 C216 1.465 . S
C211 C206 1.399 . S
C211 C210 1.394 1_655 S
C211 C212 1.516 . S
C212 C211 1.516 . S
C212 C213 1.502 . S
C212 C214 1.561 . S
C212 C215 1.526 . S
C213 H197 0.959 . S
C213 H198 0.959 . S
C213 H199 0.961 . S
C213 C212 1.502 . S
C214 H200 0.960 . S
C214 H201 0.961 . S
C214 H202 0.959 . S
C214 C212 1.561 . S
C215 C212 1.526 . S
C215 C216 1.396 1_655 S
C215 C220 1.390 . S
C216 C210 1.465 . S
C216 C215 1.396 1_455 S
C216 C217 1.399 . S
C217 H203 0.929 . S
C217 C216 1.399 . S
C217 C218 1.385 . S
C218 H204 0.931 . S
C218 C217 1.385 . S
C218 C219 1.389 . S
C219 C218 1.389 . S
C219 C220 1.387 1_455 S
C220 H205 0.930 . S
C220 C215 1.390 . S
C220 C219 1.387 1_655 S
H221 C233 0.930 . S
H222 C235 0.930 . S
H223 C236 0.930 . S
H224 C240 0.959 . S
H225 C240 0.959 . S
H226 C240 0.961 . S
H227 C241 0.960 . S
H228 C241 0.961 . S
H229 C241 0.959 . S
H230 C244 0.929 . S
H231 C245 0.931 . S
H232 C247 0.930 . S
C233 H221 0.930 . S
C233 C234 1.399 1_545 S
C233 C238 1.399 . S
C234 C233 1.399 1_565 S
C234 C235 1.376 . S
C235 H222 0.930 . S
C235 C234 1.376 . S
C235 C236 1.388 . S
C236 H223 0.930 . S
C236 C235 1.388 . S
C236 C237 1.390 . S
C237 C236 1.390 . S
C237 C238 1.394 1_565 S
C237 C243 1.465 . S
C238 C233 1.399 . S
C238 C237 1.394 1_545 S
C238 C239 1.516 . S
C239 C238 1.516 . S
C239 C240 1.502 . S
C239 C241 1.561 . S
C239 C242 1.526 . S
C240 H224 0.959 . S
C240 H225 0.959 . S
C240 H226 0.961 . S
C240 C239 1.502 . S
C241 H227 0.960 . S
C241 H228 0.961 . S
C241 H229 0.959 . S
C241 C239 1.561 . S
C242 C239 1.526 . S
C242 C243 1.396 1_545 S
C242 C247 1.390 . S
C243 C237 1.465 . S
C243 C242 1.396 1_565 S
C243 C244 1.399 . S
C244 H230 0.929 . S
C244 C243 1.399 . S
C244 C245 1.385 . S
C245 H231 0.931 . S
C245 C244 1.385 . S
C245 C246 1.389 . S
C246 C245 1.389 . S
C246 C247 1.387 1_565 S
C247 H232 0.930 . S
C247 C242 1.390 . S
C247 C246 1.387 1_545 S
H248 C260 0.930 . S
H249 C262 0.930 . S
H250 C263 0.930 . S
H251 C267 0.959 . S
H252 C267 0.959 . S
H253 C267 0.961 . S
H254 C268 0.960 . S
H255 C268 0.961 . S
H256 C268 0.959 . S
H257 C271 0.929 . S
H258 C272 0.931 . S
H259 C274 0.930 . S
C260 H248 0.930 . S
C260 C261 1.399 1_455 S
C260 C265 1.399 . S
C261 C260 1.399 1_655 S
C261 C262 1.376 . S
C262 H249 0.930 . S
C262 C261 1.376 . S
C262 C263 1.388 . S
C263 H250 0.930 . S
C263 C262 1.388 . S
C263 C264 1.390 . S
C264 C263 1.390 . S
C264 C265 1.394 1_655 S
C264 C270 1.465 . S
C265 C260 1.399 . S
C265 C264 1.394 1_455 S
C265 C266 1.516 . S
C266 C265 1.516 . S
C266 C267 1.502 . S
C266 C268 1.561 1_455 S
C266 C269 1.526 . S
C267 H251 0.959 . S
C267 H252 0.959 . S
C267 H253 0.961 . S
C267 C266 1.502 . S
C268 H254 0.960 . S
C268 H255 0.961 . S
C268 H256 0.959 . S
C268 C266 1.561 1_655 S
C269 C266 1.526 . S
C269 C270 1.396 1_455 S
C269 C274 1.390 . S
C270 C264 1.465 . S
C270 C269 1.396 1_655 S
C270 C271 1.399 . S
C271 H257 0.929 . S
C271 C270 1.399 . S
C271 C272 1.385 . S
C272 H258 0.931 . S
C272 C271 1.385 . S
C272 C273 1.389 . S
C273 C272 1.389 . S
C273 C274 1.387 1_655 S
C274 H259 0.930 . S
C274 C269 1.390 . S
C274 C273 1.387 1_455 S
H275 C287 0.930 . S
H276 C289 0.930 . S
H277 C290 0.930 . S
H278 C294 0.959 . S
H279 C294 0.959 . S
H280 C294 0.961 . S
H281 C295 0.960 . S
H282 C295 0.961 . S
H283 C295 0.959 . S
H284 C298 0.929 . S
H285 C299 0.931 . S
H286 C301 0.930 . S
C287 H275 0.930 . S
C287 C288 1.399 1_545 S
C287 C292 1.399 . S
C288 C287 1.399 1_565 S
C288 C289 1.376 . S
C289 H276 0.930 . S
C289 C288 1.376 . S
C289 C290 1.388 . S
C290 H277 0.930 . S
C290 C289 1.388 . S
C290 C291 1.390 . S
C291 C290 1.390 . S
C291 C292 1.394 1_565 S
C291 C297 1.465 . S
C292 C287 1.399 . S
C292 C291 1.394 1_545 S
C292 C293 1.516 . S
C293 C292 1.516 . S
C293 C294 1.502 . S
C293 C295 1.561 . S
C293 C296 1.526 . S
C294 H278 0.959 . S
C294 H279 0.959 . S
C294 H280 0.961 . S
C294 C293 1.502 . S
C295 H281 0.960 . S
C295 H282 0.961 . S
C295 H283 0.959 . S
C295 C293 1.561 . S
C296 C293 1.526 . S
C296 C297 1.396 1_545 S
C296 C301 1.390 . S
C297 C291 1.465 . S
C297 C296 1.396 1_565 S
C297 C298 1.399 . S
C298 H284 0.929 . S
C298 C297 1.399 . S
C298 C299 1.385 . S
C299 H285 0.931 . S
C299 C298 1.385 . S
C299 C300 1.389 . S
C300 C299 1.389 . S
C300 C301 1.387 1_565 S
C301 H286 0.930 . S
C301 C296 1.390 . S
C301 C300 1.387 1_545 S
H302 C314 0.930 . S
H303 C316 0.930 . S
H304 C317 0.930 . S
H305 C321 0.959 . S
H306 C321 0.959 . S
H307 C321 0.961 . S
H308 C322 0.960 . S
H309 C322 0.961 1_455 S
H310 C322 0.959 . S
H311 C325 0.929 . S
H312 C326 0.931 . S
H313 C328 0.930 . S
C314 H302 0.930 . S
C314 C315 1.399 1_455 S
C314 C319 1.399 . S
C315 C314 1.399 1_655 S
C315 C316 1.376 . S
C316 H303 0.930 . S
C316 C315 1.376 . S
C316 C317 1.388 . S
C317 H304 0.930 . S
C317 C316 1.388 . S
C317 C318 1.390 . S
C318 C317 1.390 . S
C318 C319 1.394 1_655 S
C318 C324 1.465 . S
C319 C314 1.399 . S
C319 C318 1.394 1_455 S
C319 C320 1.516 . S
C320 C319 1.516 . S
C320 C321 1.502 . S
C320 C322 1.561 1_455 S
C320 C323 1.526 . S
C321 H305 0.959 . S
C321 H306 0.959 . S
C321 H307 0.961 . S
C321 C320 1.502 . S
C322 H308 0.960 . S
C322 H309 0.961 1_655 S
C322 H310 0.959 . S
C322 C320 1.561 1_655 S
C323 C320 1.526 . S
C323 C324 1.396 1_455 S
C323 C328 1.390 . S
C324 C318 1.465 . S
C324 C323 1.396 1_655 S
C324 C325 1.399 . S
C325 H311 0.929 . S
C325 C324 1.399 . S
C325 C326 1.385 . S
C326 H312 0.931 . S
C326 C325 1.385 . S
C326 C327 1.389 . S
C327 C326 1.389 . S
C327 C328 1.387 1_655 S
C328 H313 0.930 . S
C328 C323 1.390 . S
C328 C327 1.387 1_455 S
H329 C341 0.930 . S
H330 C343 0.930 . S
H331 C344 0.930 . S
H332 C348 0.959 . S
H333 C348 0.959 . S
H334 C348 0.961 . S
H335 C349 0.960 . S
H336 C349 0.961 . S
H337 C349 0.959 . S
H338 C352 0.929 . S
H339 C353 0.931 . S
H340 C355 0.930 . S
C341 H329 0.930 . S
C341 C342 1.399 1_565 S
C341 C346 1.399 . S
C342 C341 1.399 1_545 S
C342 C343 1.376 . S
C343 H330 0.930 . S
C343 C342 1.376 . S
C343 C344 1.388 . S
C344 H331 0.930 . S
C344 C343 1.388 . S
C344 C345 1.390 . S
C345 C344 1.390 . S
C345 C346 1.394 1_545 S
C345 C351 1.465 . S
C346 C341 1.399 . S
C346 C345 1.394 1_565 S
C346 C347 1.516 . S
C347 C346 1.516 . S
C347 C348 1.502 . S
C347 C349 1.561 . S
C347 C350 1.526 . S
C348 H332 0.959 . S
C348 H333 0.959 . S
C348 H334 0.961 . S
C348 C347 1.502 . S
C349 H335 0.960 . S
C349 H336 0.961 . S
C349 H337 0.959 . S
C349 C347 1.561 . S
C350 C347 1.526 . S
C350 C351 1.396 1_565 S
C350 C355 1.390 . S
C351 C345 1.465 . S
C351 C350 1.396 1_545 S
C351 C352 1.399 . S
C352 H338 0.929 . S
C352 C351 1.399 . S
C352 C353 1.385 . S
C353 H339 0.931 . S
C353 C352 1.385 . S
C353 C354 1.389 . S
C354 C353 1.389 . S
C354 C355 1.387 1_545 S
C355 H340 0.930 . S
C355 C350 1.390 . S
C355 C354 1.387 1_565 S
H356 C368 0.930 . S
H357 C370 0.930 . S
H358 C371 0.930 . S
H359 C375 0.959 . S
H360 C375 0.959 . S
H361 C375 0.961 . S
H362 C376 0.960 . S
H363 C376 0.961 . S
H364 C376 0.959 . S
H365 C379 0.929 . S
H366 C380 0.931 . S
H367 C382 0.930 . S
C368 H356 0.930 . S
C368 C369 1.399 1_655 S
C368 C373 1.399 . S
C369 C368 1.399 1_455 S
C369 C370 1.376 . S
C370 H357 0.930 . S
C370 C369 1.376 . S
C370 C371 1.388 . S
C371 H358 0.930 . S
C371 C370 1.388 . S
C371 C372 1.390 . S
C372 C371 1.390 . S
C372 C373 1.394 1_455 S
C372 C378 1.465 . S
C373 C368 1.399 . S
C373 C372 1.394 1_655 S
C373 C374 1.516 . S
C374 C373 1.516 . S
C374 C375 1.502 . S
C374 C376 1.561 1_655 S
C374 C377 1.526 . S
C375 H359 0.959 . S
C375 H360 0.959 . S
C375 H361 0.961 . S
C375 C374 1.502 . S
C376 H362 0.960 . S
C376 H363 0.961 . S
C376 H364 0.959 . S
C376 C374 1.561 1_455 S
C377 C374 1.526 . S
C377 C378 1.396 1_655 S
C377 C382 1.390 . S
C378 C372 1.465 . S
C378 C377 1.396 1_455 S
C378 C379 1.399 . S
C379 H365 0.929 . S
C379 C378 1.399 . S
C379 C380 1.385 . S
C380 H366 0.931 . S
C380 C379 1.385 . S
C380 C381 1.389 . S
C381 C380 1.389 . S
C381 C382 1.387 1_455 S
C382 H367 0.930 . S
C382 C377 1.390 . S
C382 C381 1.387 1_655 S
H383 C395 0.930 . S
H384 C397 0.930 . S
H385 C398 0.930 . S
H386 C402 0.959 . S
H387 C402 0.959 . S
H388 C402 0.961 . S
H389 C403 0.960 . S
H390 C403 0.961 . S
H391 C403 0.959 . S
H392 C406 0.929 . S
H393 C407 0.931 . S
H394 C409 0.930 . S
C395 H383 0.930 . S
C395 C396 1.399 1_545 S
C395 C400 1.399 . S
C396 C395 1.399 1_565 S
C396 C397 1.376 . S
C397 H384 0.930 . S
C397 C396 1.376 . S
C397 C398 1.388 . S
C398 H385 0.930 . S
C398 C397 1.388 . S
C398 C399 1.390 . S
C399 C398 1.390 . S
C399 C400 1.394 1_565 S
C399 C405 1.465 . S
C400 C395 1.399 . S
C400 C399 1.394 1_545 S
C400 C401 1.516 . S
C401 C400 1.516 . S
C401 C402 1.502 . S
C401 C403 1.561 . S
C401 C404 1.526 . S
C402 H386 0.959 . S
C402 H387 0.959 . S
C402 H388 0.961 . S
C402 C401 1.502 . S
C403 H389 0.960 . S
C403 H390 0.961 . S
C403 H391 0.959 . S
C403 C401 1.561 . S
C404 C401 1.526 . S
C404 C405 1.396 1_545 S
C404 C409 1.390 . S
C405 C399 1.465 . S
C405 C404 1.396 1_565 S
C405 C406 1.399 . S
C406 H392 0.929 . S
C406 C405 1.399 . S
C406 C407 1.385 . S
C407 H393 0.931 . S
C407 C406 1.385 . S
C407 C408 1.389 . S
C408 C407 1.389 . S
C408 C409 1.387 1_565 S
C409 H394 0.930 . S
C409 C404 1.390 . S
C409 C408 1.387 1_545 S
H410 C422 0.930 . S
H411 C424 0.930 . S
H412 C425 0.930 . S
H413 C429 0.959 . S
H414 C429 0.959 . S
H415 C429 0.961 . S
H416 C430 0.960 . S
H417 C430 0.961 . S
H418 C430 0.959 . S
H419 C433 0.929 . S
H420 C434 0.931 . S
H421 C436 0.930 . S
C422 H410 0.930 . S
C422 C423 1.399 1_556 S
C422 C427 1.399 . S
C423 C422 1.399 1_554 S
C423 C424 1.376 . S
C424 H411 0.930 . S
C424 C423 1.376 . S
C424 C425 1.388 . S
C425 H412 0.930 . S
C425 C424 1.388 . S
C425 C426 1.390 . S
C426 C425 1.390 . S
C426 C427 1.394 1_554 S
C426 C432 1.465 . S
C427 C422 1.399 . S
C427 C426 1.394 1_556 S
C427 C428 1.516 . S
C428 C427 1.516 . S
C428 C429 1.502 . S
C428 C430 1.561 . S
C428 C431 1.526 . S
C429 H413 0.959 . S
C429 H414 0.959 . S
C429 H415 0.961 . S
C429 C428 1.502 . S
C430 H416 0.960 . S
C430 H417 0.961 . S
C430 H418 0.959 . S
C430 C428 1.561 . S
C431 C428 1.526 . S
C431 C432 1.396 1_556 S
C431 C436 1.390 . S
C432 C426 1.465 . S
C432 C431 1.396 1_554 S
C432 C433 1.399 . S
C433 H419 0.929 . S
C433 C432 1.399 . S
C433 C434 1.385 . S
C434 H420 0.931 . S
C434 C433 1.385 . S
C434 C435 1.389 . S
C435 C434 1.389 . S
C435 C436 1.387 1_554 S
C436 H421 0.930 . S
C436 C431 1.390 . S
C436 C435 1.387 1_556 S
H437 C449 0.930 . S
H438 C451 0.930 . S
H439 C452 0.930 . S
H440 C456 0.959 . S
H441 C456 0.959 . S
H442 C456 0.961 . S
H443 C457 0.960 . S
H444 C457 0.961 . S
H445 C457 0.959 . S
H446 C460 0.929 . S
H447 C461 0.931 . S
H448 C463 0.930 . S
C449 H437 0.930 . S
C449 C450 1.399 1_556 S
C449 C454 1.399 . S
C450 C449 1.399 1_554 S
C450 C451 1.376 . S
C451 H438 0.930 . S
C451 C450 1.376 . S
C451 C452 1.388 . S
C452 H439 0.930 . S
C452 C451 1.388 . S
C452 C453 1.390 . S
C453 C452 1.390 . S
C453 C454 1.394 1_554 S
C453 C459 1.465 . S
C454 C449 1.399 . S
C454 C453 1.394 1_556 S
C454 C455 1.516 . S
C455 C454 1.516 . S
C455 C456 1.502 . S
C455 C457 1.561 . S
C455 C458 1.526 . S
C456 H440 0.959 . S
C456 H441 0.959 . S
C456 H442 0.961 . S
C456 C455 1.502 . S
C457 H443 0.960 . S
C457 H444 0.961 . S
C457 H445 0.959 . S
C457 C455 1.561 . S
C458 C455 1.526 . S
C458 C459 1.396 1_556 S
C458 C463 1.390 . S
C459 C453 1.465 . S
C459 C458 1.396 1_554 S
C459 C460 1.399 . S
C460 H446 0.929 . S
C460 C459 1.399 . S
C460 C461 1.385 . S
C461 H447 0.931 . S
C461 C460 1.385 . S
C461 C462 1.389 . S
C462 C461 1.389 . S
C462 C463 1.387 1_554 S
C463 H448 0.930 . S
C463 C458 1.390 . S
C463 C462 1.387 1_556 S
H464 C476 0.930 . S
H465 C478 0.930 . S
H466 C479 0.930 . S
H467 C483 0.959 . S
H468 C483 0.959 . S
H469 C483 0.961 . S
H470 C484 0.960 . S
H471 C484 0.961 . S
H472 C484 0.959 . S
H473 C487 0.929 . S
H474 C488 0.931 . S
H475 C490 0.930 . S
C476 H464 0.930 . S
C476 C477 1.399 1_556 S
C476 C481 1.399 . S
C477 C476 1.399 1_554 S
C477 C478 1.376 . S
C478 H465 0.930 . S
C478 C477 1.376 . S
C478 C479 1.388 . S
C479 H466 0.930 . S
C479 C478 1.388 . S
C479 C480 1.390 . S
C480 C479 1.390 . S
C480 C481 1.394 1_554 S
C480 C486 1.465 . S
C481 C476 1.399 . S
C481 C480 1.394 1_556 S
C481 C482 1.516 . S
C482 C481 1.516 . S
C482 C483 1.502 . S
C482 C484 1.561 . S
C482 C485 1.526 . S
C483 H467 0.959 . S
C483 H468 0.959 . S
C483 H469 0.961 . S
C483 C482 1.502 . S
C484 H470 0.960 . S
C484 H471 0.961 . S
C484 H472 0.959 . S
C484 C482 1.561 . S
C485 C482 1.526 . S
C485 C486 1.396 1_556 S
C485 C490 1.390 . S
C486 C480 1.465 . S
C486 C485 1.396 1_554 S
C486 C487 1.399 . S
C487 H473 0.929 . S
C487 C486 1.399 . S
C487 C488 1.385 . S
C488 H474 0.931 . S
C488 C487 1.385 . S
C488 C489 1.389 . S
C489 C488 1.389 . S
C489 C490 1.387 1_554 S
C490 H475 0.930 . S
C490 C485 1.390 . S
C490 C489 1.387 1_556 S
H491 C503 0.930 . S
H492 C505 0.930 . S
H493 C506 0.930 . S
H494 C510 0.959 . S
H495 C510 0.959 . S
H496 C510 0.961 . S
H497 C511 0.960 . S
H498 C511 0.961 . S
H499 C511 0.959 . S
H500 C514 0.929 . S
H501 C515 0.931 . S
H502 C517 0.930 . S
C503 H491 0.930 . S
C503 C504 1.399 1_556 S
C503 C508 1.399 . S
C504 C503 1.399 1_554 S
C504 C505 1.376 . S
C505 H492 0.930 . S
C505 C504 1.376 . S
C505 C506 1.388 . S
C506 H493 0.930 . S
C506 C505 1.388 . S
C506 C507 1.390 . S
C507 C506 1.390 . S
C507 C508 1.394 1_554 S
C507 C513 1.465 . S
C508 C503 1.399 . S
C508 C507 1.394 1_556 S
C508 C509 1.516 . S
C509 C508 1.516 . S
C509 C510 1.502 . S
C509 C511 1.561 . S
C509 C512 1.526 . S
C510 H494 0.959 . S
C510 H495 0.959 . S
C510 H496 0.961 . S
C510 C509 1.502 . S
C511 H497 0.960 . S
C511 H498 0.961 . S
C511 H499 0.959 . S
C511 C509 1.561 . S
C512 C509 1.526 . S
C512 C513 1.396 1_556 S
C512 C517 1.390 . S
C513 C507 1.465 . S
C513 C512 1.396 1_554 S
C513 C514 1.399 . S
C514 H500 0.929 . S
C514 C513 1.399 . S
C514 C515 1.385 . S
C515 H501 0.931 . S
C515 C514 1.385 . S
C515 C516 1.389 . S
C516 C515 1.389 . S
C516 C517 1.387 1_554 S
C517 H502 0.930 . S
C517 C512 1.390 . S
C517 C516 1.387 1_556 S
C219 C145 1.858 . S
C207 C36 1.834 1_455 S
C246 C152 1.260 1_565 S
C234 C78 1.220 . S
C273 C147 1.849 1_655 S
C261 C30 1.831 . S
C300 C153 1.260 1_565 S
C288 C69 1.262 1_565 S
C315 C21 1.843 1_655 S
C327 C146 1.861 1_655 S
C354 C155 1.257 . S
C342 C93 1.247 . S
C369 C45 1.809 . S
C381 C144 1.857 . S
C396 C84 1.263 . S
C408 C154 1.262 1_565 S
C423 C132 1.536 . S
C435 C149 1.534 . S
C450 C126 1.500 . S
C462 C148 1.535 . S
C489 C151 1.536 . S
C477 C141 1.518 1_554 S
C516 C150 1.537 . S
C504 C117 1.546 1_554 S
