# Generated by pormake.
# Topology ptr, (4,4)-cn, num edge types: 1
# Building blocks:
#     Node 0, Type 0, BuildingBlock: AZAVOO_clean_sbu_0, # of connection points: 4
#     Node 1, Type 0, BuildingBlock: AZAVOO_clean_sbu_0, # of connection points: 4
#     Node 2, Type 0, BuildingBlock: AZAVOO_clean_sbu_0, # of connection points: 4
#     Node 3, Type 0, BuildingBlock: AZAVOO_clean_sbu_0, # of connection points: 4
#     Node 4, Type 0, BuildingBlock: AZAVOO_clean_sbu_0, # of connection points: 4
#     Node 5, Type 0, BuildingBlock: AZAVOO_clean_sbu_0, # of connection points: 4
#     Node 6, Type 0, BuildingBlock: AZAVOO_clean_sbu_0, # of connection points: 4
#     Node 7, Type 0, BuildingBlock: AZAVOO_clean_sbu_0, # of connection points: 4
#     Node 8, Type 0, BuildingBlock: AZAVOO_clean_sbu_0, # of connection points: 4
#     Node 9, Type 0, BuildingBlock: AZAVOO_clean_sbu_0, # of connection points: 4
#     Node 10, Type 0, BuildingBlock: AZAVOO_clean_sbu_0, # of connection points: 4
#     Node 11, Type 0, BuildingBlock: AZAVOO_clean_sbu_0, # of connection points: 4
#     Node 12, Type 0, BuildingBlock: AZAVOO_clean_sbu_0, # of connection points: 4
#     Node 13, Type 0, BuildingBlock: AZAVOO_clean_sbu_0, # of connection points: 4
#     Node 14, Type 0, BuildingBlock: AZAVOO_clean_sbu_0, # of connection points: 4
#     Node 15, Type 0, BuildingBlock: AZAVOO_clean_sbu_0, # of connection points: 4
#     Node 16, Type 0, BuildingBlock: AZAVOO_clean_sbu_0, # of connection points: 4
#     Node 17, Type 0, BuildingBlock: AZAVOO_clean_sbu_0, # of connection points: 4
#     Node 18, Type 1, BuildingBlock: GIZVER_clean_linker_0, # of connection points: 4
#     Node 19, Type 1, BuildingBlock: GIZVER_clean_linker_0, # of connection points: 4
#     Node 20, Type 1, BuildingBlock: GIZVER_clean_linker_0, # of connection points: 4
#     Node 21, Type 1, BuildingBlock: GIZVER_clean_linker_0, # of connection points: 4
#     Node 22, Type 1, BuildingBlock: GIZVER_clean_linker_0, # of connection points: 4
#     Node 23, Type 1, BuildingBlock: GIZVER_clean_linker_0, # of connection points: 4
#     Node 24, Type 1, BuildingBlock: GIZVER_clean_linker_0, # of connection points: 4
#     Node 25, Type 1, BuildingBlock: GIZVER_clean_linker_0, # of connection points: 4
#     Node 26, Type 1, BuildingBlock: GIZVER_clean_linker_0, # of connection points: 4
#     Node 27, Type 1, BuildingBlock: GIZVER_clean_linker_0, # of connection points: 4
#     Node 28, Type 1, BuildingBlock: GIZVER_clean_linker_0, # of connection points: 4
#     Node 29, Type 1, BuildingBlock: GIZVER_clean_linker_0, # of connection points: 4
#     Node 30, Type 1, BuildingBlock: GIZVER_clean_linker_0, # of connection points: 4
#     Node 31, Type 1, BuildingBlock: GIZVER_clean_linker_0, # of connection points: 4
#     Node 32, Type 1, BuildingBlock: GIZVER_clean_linker_0, # of connection points: 4
#     Node 33, Type 1, BuildingBlock: GIZVER_clean_linker_0, # of connection points: 4
#     Node 34, Type 1, BuildingBlock: GIZVER_clean_linker_0, # of connection points: 4
#     Node 35, Type 1, BuildingBlock: GIZVER_clean_linker_0, # of connection points: 4
#     Edge 36, Type (0, 1), None
#     Edge 37, Type (0, 1), None
#     Edge 38, Type (0, 1), None
#     Edge 39, Type (0, 1), None
#     Edge 40, Type (0, 1), None
#     Edge 41, Type (0, 1), None
#     Edge 42, Type (0, 1), None
#     Edge 43, Type (0, 1), None
#     Edge 44, Type (0, 1), None
#     Edge 45, Type (0, 1), None
#     Edge 46, Type (0, 1), None
#     Edge 47, Type (0, 1), None
#     Edge 48, Type (0, 1), None
#     Edge 49, Type (0, 1), None
#     Edge 50, Type (0, 1), None
#     Edge 51, Type (0, 1), None
#     Edge 52, Type (0, 1), None
#     Edge 53, Type (0, 1), None
#     Edge 54, Type (0, 1), None
#     Edge 55, Type (0, 1), None
#     Edge 56, Type (0, 1), None
#     Edge 57, Type (0, 1), None
#     Edge 58, Type (0, 1), None
#     Edge 59, Type (0, 1), None
#     Edge 60, Type (0, 1), None
#     Edge 61, Type (0, 1), None
#     Edge 62, Type (0, 1), None
#     Edge 63, Type (0, 1), None
#     Edge 64, Type (0, 1), None
#     Edge 65, Type (0, 1), None
#     Edge 66, Type (0, 1), None
#     Edge 67, Type (0, 1), None
#     Edge 68, Type (0, 1), None
#     Edge 69, Type (0, 1), None
#     Edge 70, Type (0, 1), None
#     Edge 71, Type (0, 1), None
#     Edge 72, Type (0, 1), None
#     Edge 73, Type (0, 1), None
#     Edge 74, Type (0, 1), None
#     Edge 75, Type (0, 1), None
#     Edge 76, Type (0, 1), None
#     Edge 77, Type (0, 1), None
#     Edge 78, Type (0, 1), None
#     Edge 79, Type (0, 1), None
#     Edge 80, Type (0, 1), None
#     Edge 81, Type (0, 1), None
#     Edge 82, Type (0, 1), None
#     Edge 83, Type (0, 1), None
#     Edge 84, Type (0, 1), None
#     Edge 85, Type (0, 1), None
#     Edge 86, Type (0, 1), None
#     Edge 87, Type (0, 1), None
#     Edge 88, Type (0, 1), None
#     Edge 89, Type (0, 1), None
#     Edge 90, Type (0, 1), None
#     Edge 91, Type (0, 1), None
#     Edge 92, Type (0, 1), None
#     Edge 93, Type (0, 1), None
#     Edge 94, Type (0, 1), None
#     Edge 95, Type (0, 1), None
#     Edge 96, Type (0, 1), None
#     Edge 97, Type (0, 1), None
#     Edge 98, Type (0, 1), None
#     Edge 99, Type (0, 1), None
#     Edge 100, Type (0, 1), None
#     Edge 101, Type (0, 1), None
#     Edge 102, Type (0, 1), None
#     Edge 103, Type (0, 1), None
#     Edge 104, Type (0, 1), None
#     Edge 105, Type (0, 1), None
#     Edge 106, Type (0, 1), None
#     Edge 107, Type (0, 1), None
# Relax obj value: 0.076
# Max RMSD: 0.251
# Mean RMSD: 0.131
data_MOF--net-ptr--node1-AZAVOO_clean_sbu_0--node2-GIZVER_clean_linker_0--edge1-none
_symmetry_space_group_name_H-M    P1
_symmetry_Int_Tables_number       1
_symmetry_cell_setting            triclinic
loop_
_symmetry_equiv_pos_as_xyz
'x, y, z'
_cell_length_a     38.280244
_cell_length_b     37.547715
_cell_length_c     21.089099
_cell_angle_alpha  91.585558
_cell_angle_beta   92.018194
_cell_angle_gamma 120.33907
loop_
_atom_site_label
_atom_site_type_symbol
_atom_site_fract_x
_atom_site_fract_y
_atom_site_fract_z
_atom_type_partial_charge
Mg0 Mg 0.02371 0.36373 0.96339 0.0
O1 O 0.04276 0.40456 0.05422 0.0
O2 O 0.00885 0.43859 0.05217 0.0
Mg3 Mg 0.97743 0.4287 0.9531 0.0
C4 C 0.03298 0.42914 0.07999 0.0
C5 C 0.05447 0.29696 0.00591 0.0
O6 O 0.06444 0.29106 0.94927 0.0
O7 O 0.95935 0.32501 0.99716 0.0
O8 O 0.93117 0.35924 0.95683 0.0
O9 O 0.07625 0.41204 0.90906 0.0
O10 O 0.01723 0.40766 0.91466 0.0
C11 C 0.92856 0.32536 0.97268 0.0
C12 C 0.05259 0.42598 0.89308 0.0
O13 O 0.04129 0.32172 0.01467 0.0
Mg14 Mg 0.6391 0.65284 0.02075 0.0
O15 O 0.5983 0.62844 0.93354 0.0
O16 O 0.55507 0.65161 0.93245 0.0
Mg17 Mg 0.56051 0.67866 0.03529 0.0
C18 C 0.57089 0.6327 0.90569 0.0
C19 C 0.69596 0.62054 0.96633 0.0
O20 O 0.6848 0.59518 0.01294 0.0
O21 O 0.66486 0.71812 0.98807 0.0
O22 O 0.625 0.73584 0.03604 0.0
O23 O 0.60113 0.5934 0.06942 0.0
O24 O 0.59182 0.64651 0.07468 0.0
C25 C 0.65985 0.74518 0.01729 0.0
C26 C 0.58149 0.61009 0.09242 0.0
O27 O 0.68389 0.64626 0.96245 0.0
Mg28 Mg 0.34199 0.9789 0.96008 0.0
O29 O 0.36669 0.96691 0.05014 0.0
O30 O 0.43321 0.99352 0.04214 0.0
Mg31 Mg 0.44999 0.01523 0.94124 0.0
C32 C 0.40126 0.97535 0.07316 0.0
C33 C 0.25828 0.93351 0.0201 0.0
O34 O 0.25566 0.90339 0.98317 0.0
O35 O 0.37442 0.04775 0.98529 0.0
O36 O 0.43303 0.0655 0.94252 0.0
O37 O 0.32868 0.91773 0.91193 0.0
O38 O 0.38603 0.97616 0.90843 0.0
C39 C 0.40631 0.07409 0.95935 0.0
C40 C 0.36496 0.93777 0.892 0.0
O41 O 0.28869 0.96946 0.01669 0.0
Mg42 Mg 0.97217 0.61485 0.06882 0.0
O43 O 0.99151 0.59412 0.9789 0.0
O44 O 0.05557 0.60907 0.9957 0.0
Mg45 Mg 0.0744 0.63092 0.10063 0.0
C46 C 0.02351 0.59555 0.95955 0.0
C47 C 0.91732 0.64674 0.00685 0.0
O48 O 0.94375 0.68167 0.03725 0.0
O49 O 0.01462 0.68243 0.05046 0.0
O50 O 0.07369 0.69116 0.08893 0.0
O51 O 0.94724 0.55396 0.11801 0.0
O52 O 0.0108 0.60426 0.12383 0.0
C53 C 0.05157 0.70577 0.0699 0.0
C54 C 0.98392 0.569 0.14173 0.0
O55 O 0.92041 0.61474 0.01231 0.0
Mg56 Mg 0.33372 0.35914 1.00047 0.0
O57 O 0.37699 0.39461 0.08605 0.0
O58 O 0.43976 0.41089 0.06404 0.0
Mg59 Mg 0.43793 0.39094 0.95987 0.0
C60 C 0.41451 0.41054 0.10225 0.0
C61 C 0.24556 0.30879 0.05124 0.0
O62 O 0.23514 0.29488 0.99171 0.0
O63 O 0.33906 0.30193 0.01568 0.0
O64 O 0.39979 0.32211 0.9778 0.0
O65 O 0.34268 0.41692 0.95182 0.0
O66 O 0.37985 0.38813 0.94009 0.0
C67 C 0.36616 0.29411 0.99774 0.0
C68 C 0.37222 0.41624 0.9249 0.0
O69 O 0.28202 0.33626 0.06658 0.0
Mg70 Mg 0.63554 -0.00158 0.04779 0.0
O71 O 0.59099 0.97302 0.96019 0.0
O72 O 0.53813 0.91164 0.97996 0.0
Mg73 Mg 0.54296 0.90072 0.08577 0.0
C74 C 0.55736 0.94069 0.94265 0.0
C75 C 0.72034 0.07369 0.99811 0.0
O76 O 0.73182 0.08578 0.05807 0.0
O77 O 0.65305 0.9483 0.03899 0.0
O78 O 0.60089 0.89789 0.08648 0.0
O79 O 0.60547 0.03135 0.09513 0.0
O80 O 0.58758 0.96642 0.10426 0.0
C81 C 0.63743 0.91532 0.06994 0.0
C82 C 0.58249 0.99633 0.11965 0.0
O83 O 0.68556 0.04215 0.9839 0.0
Mg84 Mg 0.69074 0.69611 0.2947 0.0
O85 O 0.70963 0.73674 0.38567 0.0
O86 O 0.6759 0.77096 0.38349 0.0
Mg87 Mg 0.64495 0.76148 0.28414 0.0
C88 C 0.69986 0.76131 0.41144 0.0
C89 C 0.72144 0.62934 0.33698 0.0
O90 O 0.73227 0.62434 0.28054 0.0
O91 O 0.62627 0.65754 0.32809 0.0
O92 O 0.59844 0.69207 0.28763 0.0
O93 O 0.74358 0.7443 0.24078 0.0
O94 O 0.68471 0.7403 0.24606 0.0
C95 C 0.59558 0.65812 0.30366 0.0
C96 C 0.72014 0.75848 0.22471 0.0
O97 O 0.7079 0.65378 0.34592 0.0
Mg98 Mg 0.3077 0.98778 0.35314 0.0
O99 O 0.26706 0.96488 0.26569 0.0
O100 O 0.22484 0.98927 0.26501 0.0
Mg101 Mg 0.23109 0.01641 0.36803 0.0
C102 C 0.24011 0.9699 0.23797 0.0
C103 C 0.36257 0.95319 0.29803 0.0
O104 O 0.35088 0.92773 0.3445 0.0
O105 O 0.33565 0.05355 0.32175 0.0
O106 O 0.29626 0.07243 0.36866 0.0
O107 O 0.26821 0.92844 0.40109 0.0
O108 O 0.26101 0.98286 0.40722 0.0
C109 C 0.33099 0.08106 0.35028 0.0
C110 C 0.2496 0.94612 0.4246 0.0
O111 O 0.35148 0.9797 0.29448 0.0
Mg112 Mg 0.00854 0.31378 0.29756 0.0
O113 O 0.03429 0.30345 0.38788 0.0
O114 O 0.10092 0.33114 0.37961 0.0
Mg115 Mg 0.11687 0.35232 0.27831 0.0
C116 C 0.06911 0.31274 0.41089 0.0
C117 C 0.92383 0.26744 0.35486 0.0
O118 O 0.92068 0.23825 0.31509 0.0
O119 O 0.03953 0.38266 0.32146 0.0
O120 O 0.09855 0.40158 0.27924 0.0
O121 O -0.00353 0.25274 0.25108 0.0
O122 O 0.05296 0.31187 0.24586 0.0
C123 C 0.07128 0.40943 0.29572 0.0
C124 C 0.03253 0.27327 0.23045 0.0
O125 O 0.95495 0.30316 0.35431 0.0
Mg126 Mg 0.63734 0.94526 0.40164 0.0
O127 O 0.65672 0.92461 0.31162 0.0
O128 O 0.72079 0.9396 0.32835 0.0
Mg129 Mg 0.73966 0.96144 0.43328 0.0
C130 C 0.68872 0.92608 0.29221 0.0
C131 C 0.58232 0.97695 0.33957 0.0
O132 O 0.60866 0.01186 0.37009 0.0
O133 O 0.67975 0.01295 0.38359 0.0
O134 O 0.73894 0.02165 0.42146 0.0
O135 O 0.61262 0.88441 0.45105 0.0
O136 O 0.6761 0.93482 0.4567 0.0
C137 C 0.71679 0.03628 0.40267 0.0
C138 C 0.64931 0.89959 0.47476 0.0
O139 O 0.58548 0.94499 0.34503 0.0
Mg140 Mg 0.00191 0.69558 0.33287 0.0
O141 O 0.04494 0.7312 0.41858 0.0
O142 O 0.10781 0.74771 0.39678 0.0
Mg143 Mg 0.10627 0.72801 0.29255 0.0
C144 C 0.08246 0.74723 0.4349 0.0
C145 C 0.91373 0.64437 0.38308 0.0
O146 O 0.90366 0.63032 0.32356 0.0
O147 O 0.00774 0.63868 0.34829 0.0
O148 O 0.06842 0.65905 0.31005 0.0
O149 O 0.01042 0.75322 0.28445 0.0
O150 O 0.04806 0.72495 0.27267 0.0
C151 C 0.03486 0.63096 0.33006 0.0
C152 C 0.04015 0.75291 0.2576 0.0
O153 O 0.95001 0.67224 0.39864 0.0
Mg154 Mg 0.30257 0.33166 0.38301 0.0
O155 O 0.25773 0.30628 0.29574 0.0
O156 O 0.20476 0.24508 0.31592 0.0
Mg157 Mg 0.20992 0.23421 0.42168 0.0
C158 C 0.22396 0.27404 0.27846 0.0
C159 C 0.38731 0.40666 0.33239 0.0
O160 O 0.39907 0.41893 0.39223 0.0
O161 O 0.31985 0.28136 0.37409 0.0
O162 O 0.26771 0.23113 0.42187 0.0
O163 O 0.2728 0.36481 0.4307 0.0
O164 O 0.25477 0.29986 0.44002 0.0
C165 C 0.30422 0.24842 0.40515 0.0
C166 C 0.24985 0.32987 0.45548 0.0
O167 O 0.35243 0.37515 0.31859 0.0
Mg168 Mg 0.36078 0.03189 0.62666 0.0
O169 O 0.37995 0.07231 0.71794 0.0
O170 O 0.34699 0.10729 0.71588 0.0
Mg171 Mg 0.31642 0.09856 0.61636 0.0
C172 C 0.37056 0.09715 0.74386 0.0
C173 C 0.38955 0.96358 0.66875 0.0
O174 O 0.40012 0.95822 0.6123 0.0
O175 O 0.29607 0.99382 0.65947 0.0
O176 O 0.26916 0.02931 0.6194 0.0
O177 O 0.41407 0.07975 0.57302 0.0
O178 O 0.35566 0.07673 0.5783 0.0
C179 C 0.26567 0.99508 0.63538 0.0
C180 C 0.39111 0.09452 0.55706 0.0
O181 O 0.37681 0.98869 0.67775 0.0
Mg182 Mg 0.97228 0.32117 0.68909 0.0
O183 O 0.93144 0.29607 0.60188 0.0
O184 O 0.8881 0.31914 0.60049 0.0
Mg185 Mg 0.89295 0.34589 0.70335 0.0
C186 C 0.904 0.30023 0.57392 0.0
C187 C 0.02975 0.28959 0.63522 0.0
O188 O 0.01824 0.26399 0.68151 0.0
O189 O -0.00291 0.3862 0.65582 0.0
O190 O 0.95717 0.40351 0.70445 0.0
O191 O 0.935 0.26173 0.73801 0.0
O192 O 0.92475 0.31425 0.74287 0.0
C193 C 0.99204 0.41308 0.68552 0.0
C194 C 0.91491 0.27799 0.76078 0.0
O195 O 0.01764 0.31528 0.63125 0.0
Mg196 Mg 0.67397 0.64421 0.62812 0.0
O197 O 0.69962 0.63369 0.71844 0.0
O198 O 0.76628 0.66156 0.71022 0.0
Mg199 Mg 0.78241 0.68301 0.60913 0.0
C200 C 0.73446 0.64302 0.74144 0.0
C201 C 0.59024 0.59726 0.688 0.0
O202 O 0.5882 0.56745 0.651 0.0
O203 O 0.70486 0.71309 0.65233 0.0
O204 O 0.76406 0.73223 0.61056 0.0
O205 O 0.66213 0.58336 0.58099 0.0
O206 O 0.71857 0.64259 0.57652 0.0
C207 C 0.73674 0.74 0.62703 0.0
C208 C 0.69826 0.60406 0.56068 0.0
O209 O 0.62026 0.63348 0.68473 0.0
Mg210 Mg 0.30385 0.27717 0.73668 0.0
O211 O 0.3232 0.25653 0.64665 0.0
O212 O 0.38733 0.27174 0.66348 0.0
Mg213 Mg 0.40606 0.29316 0.76856 0.0
C214 C 0.35529 0.25821 0.62725 0.0
C215 C 0.24929 0.30955 0.67546 0.0
O216 O 0.27556 0.3441 0.7069 0.0
O217 O 0.34644 0.34479 0.71856 0.0
O218 O 0.40552 0.35349 0.75701 0.0
O219 O 0.27888 0.21627 0.7861 0.0
O220 O 0.34244 0.26643 0.79168 0.0
C221 C 0.38342 0.36811 0.73793 0.0
C222 C 0.31555 0.23126 0.80981 0.0
O223 O 0.25225 0.27742 0.68007 0.0
Mg224 Mg 0.66804 0.02701 0.66593 0.0
O225 O 0.71099 0.06245 0.75182 0.0
O226 O 0.77385 0.07872 0.73036 0.0
Mg227 Mg 0.77242 0.05915 0.62608 0.0
C228 C 0.74846 0.07832 0.76834 0.0
C229 C 0.57975 0.97591 0.71575 0.0
O230 O 0.56976 0.96194 0.65619 0.0
O231 O 0.67359 0.96996 0.68129 0.0
O232 O 0.73429 0.99016 0.64326 0.0
O233 O 0.67679 0.0847 0.61735 0.0
O234 O 0.71435 0.05632 0.60591 0.0
C235 C 0.70064 0.96213 0.6631 0.0
C236 C 0.70651 0.08429 0.59062 0.0
O237 O 0.61602 0.00373 0.73147 0.0
Mg238 Mg 0.97017 0.66789 0.71504 0.0
O239 O 0.92551 0.6421 0.62755 0.0
O240 O 0.87276 0.58075 0.64778 0.0
Mg241 Mg 0.87781 0.57009 0.7536 0.0
C242 C 0.89189 0.60969 0.61025 0.0
C243 C 0.05488 0.74327 0.66483 0.0
O244 O 0.0665 0.75554 0.72471 0.0
O245 O 0.98795 0.61794 0.70663 0.0
O246 O 0.93578 0.56738 0.75388 0.0
O247 O 0.93988 0.70067 0.76221 0.0
O248 O 0.92228 0.63586 0.77174 0.0
C249 C 0.97233 0.58486 0.73734 0.0
C250 C 0.91703 0.66569 0.78693 0.0
O251 O 0.0201 0.71164 0.6509 0.0
H252 H 0.06974 0.22716 0.21678 0.0
H253 H 0.0917 0.2502 0.01831 0.0
H254 H 0.02283 0.29343 0.1179 0.0
H255 H 0.09158 0.18639 0.15134 0.0
H256 H 0.10088 0.19597 0.06932 0.0
H257 H 0.14477 0.22677 0.23352 0.0
H258 H 0.26446 0.31254 0.17661 0.0
H259 H 0.16352 0.2585 0.03824 0.0
C260 C 0.06506 0.23892 0.17289 0.0
C261 C 0.04336 0.25974 0.17241 0.0
C262 C 0.08193 0.23459 0.11684 0.0
C263 C 0.07787 0.25254 0.06098 0.0
C264 C 0.05689 0.27434 0.06106 0.0
C265 C 0.0389 0.27651 0.1166 0.0
C266 C 0.10455 0.21128 0.11701 0.0
C267 C 0.1492 0.23992 0.13416 0.0
C268 C 0.16499 0.24406 0.19703 0.0
C269 C 0.20668 0.27028 0.21276 0.0
C270 C 0.23225 0.29281 0.16496 0.0
C271 C 0.21712 0.28842 0.10175 0.0
C272 C 0.1755 0.26218 0.08684 0.0
H273 H 0.75806 0.84255 0.21043 0.0
H274 H 0.70203 0.83054 0.02355 0.0
H275 H 0.68856 0.72345 0.11312 0.0
H276 H 0.78027 0.90456 0.14797 0.0
H277 H 0.76129 0.89967 0.06743 0.0
H278 H 0.74009 0.90464 0.23718 0.0
H279 H 0.64027 0.92357 0.19478 0.0
H280 H 0.69672 0.89697 0.0426 0.0
C281 C 0.7418 0.82386 0.16773 0.0
C282 C 0.72537 0.78095 0.16662 0.0
C283 C 0.73508 0.8423 0.11474 0.0
C284 C 0.7099 0.81706 0.0623 0.0
C285 C 0.69365 0.77422 0.06139 0.0
C286 C 0.70303 0.75688 0.11236 0.0
C287 C 0.75241 0.88841 0.11581 0.0
C288 C 0.72154 0.89911 0.13765 0.0
C289 C 0.71902 0.90601 0.20304 0.0
C290 C 0.6897 0.91495 0.22422 0.0
C291 C 0.66247 0.91585 0.17913 0.0
C292 C 0.6649 0.90963 0.11369 0.0
C293 C 0.69462 0.90153 0.09298 0.0
H294 H 0.11333 0.82029 0.24691 0.0
H295 H 0.12425 0.77511 0.06438 0.0
H296 H 0.00818 0.7243 0.14365 0.0
H297 H 0.17655 0.82746 0.21389 0.0
H298 H 0.18131 0.8118 0.13614 0.0
H299 H 0.18045 0.89339 0.23557 0.0
H300 H 0.26412 0.98625 0.11775 0.0
H301 H 0.1994 0.85822 0.05095 0.0
C302 C 0.09879 0.80324 0.20224 0.0
C303 C 0.05731 0.77397 0.19932 0.0
C304 C 0.12283 0.80493 0.1522 0.0
C305 C 0.10504 0.77741 0.09889 0.0
C306 C 0.06386 0.74744 0.09644 0.0
C307 C 0.03938 0.74943 0.14301 0.0
C308 C 0.16804 0.82768 0.16291 0.0
C309 C 0.18656 0.8715 0.14392 0.0
C310 C 0.19278 0.90226 0.18926 0.0
C311 C 0.22061 0.94374 0.18003 0.0
C312 C 0.24006 0.95465 0.12247 0.0
C313 C 0.23198 0.92398 0.07455 0.0
C314 C 0.20419 0.8825 0.08533 0.0
H315 H 0.35928 0.19541 0.82221 0.0
H316 H 0.40663 0.25231 0.00802 0.0
H317 H 0.30107 0.24793 0.9232 0.0
H318 H 0.43855 0.23259 0.87613 0.0
H319 H 0.43938 0.22179 0.95755 0.0
H320 H 0.39966 0.17478 0.79277 0.0
H321 H 0.38049 0.05639 0.83922 0.0
H322 H 0.41975 0.15234 0.98678 0.0
C323 C 0.35503 0.20638 0.86732 0.0
C324 C 0.32538 0.21756 0.86883 0.0
C325 C 0.38291 0.21592 0.91954 0.0
C326 C 0.38174 0.2391 0.97218 0.0
C327 C 0.353 0.25184 0.97283 0.0
C328 C 0.32165 0.23596 0.9249 0.0
C329 C 0.41985 0.21148 0.91277 0.0
C330 C 0.40898 0.16808 0.89272 0.0
C331 C 0.39815 0.15399 0.8285 0.0
C332 C 0.38612 0.11327 0.80956 0.0
C333 C 0.38869 0.08772 0.85398 0.0
C334 C 0.40155 0.10195 0.91751 0.0
C335 C 0.41049 0.14166 0.93748 0.0
H336 H 0.87809 0.20037 0.80723 0.0
H337 H 0.88647 0.24311 0.00147 0.0
H338 H 0.91199 0.32598 0.85111 0.0
H339 H 0.87947 0.1607 0.9036 0.0
H340 H 0.86856 0.17342 0.97955 0.0
H341 H 0.82434 0.13586 0.81215 0.0
H342 H 0.70427 0.05637 0.87171 0.0
H343 H 0.79991 0.13664 0.00963 0.0
C344 C 0.88085 0.22387 0.84125 0.0
C345 C 0.89466 0.26403 0.82135 0.0
C346 C 0.87398 0.21504 0.90591 0.0
C347 C 0.88586 0.24816 0.9512 0.0
C348 C 0.90036 0.28847 0.93148 0.0
C349 C 0.89999 0.29474 0.86625 0.0
C350 C 0.86139 0.1722 0.92767 0.0
C351 C 0.81682 0.14129 0.91221 0.0
C352 C 0.80317 0.12538 0.84942 0.0
C353 C 0.7625 0.09542 0.83439 0.0
C354 C 0.73544 0.08033 0.88322 0.0
C355 C 0.74863 0.0942 0.94689 0.0
C356 C 0.78927 0.12556 0.96083 0.0
H357 H 0.83698 0.61813 0.78653 0.0
H358 H 0.83659 0.59791 0.98589 0.0
H359 H 0.94434 0.69163 0.90568 0.0
H360 H 0.78283 0.55289 0.83534 0.0
H361 H 0.77789 0.55275 0.91961 0.0
H362 H 0.77208 0.60191 0.77086 0.0
H363 H 0.69982 0.64797 0.84794 0.0
H364 H 0.74272 0.58468 0.96694 0.0
C365 C 0.8512 0.62857 0.83388 0.0
C366 C 0.89193 0.65998 0.84067 0.0
C367 C 0.83039 0.6073 0.88662 0.0
C368 C 0.85137 0.61635 0.94602 0.0
C369 C 0.89233 0.64698 0.95295 0.0
C370 C 0.91181 0.67042 0.90121 0.0
C371 C 0.78691 0.57279 0.87832 0.0
C372 C 0.76036 0.59126 0.86991 0.0
C373 C 0.75802 0.60678 0.81126 0.0
C374 C 0.73717 0.62806 0.80384 0.0
C375 C 0.71696 0.63244 0.85476 0.0
C376 C 0.71845 0.61652 0.91385 0.0
C377 C 0.74058 0.59626 0.92132 0.0
H378 H 0.73678 0.55922 0.54728 0.0
H379 H 0.75982 0.58374 0.34946 0.0
H380 H 0.68822 0.62393 0.44806 0.0
H381 H 0.76039 0.51996 0.48216 0.0
H382 H 0.76975 0.52982 0.40023 0.0
H383 H 0.81294 0.5613 0.56477 0.0
H384 H 0.93235 0.64862 0.50863 0.0
H385 H 0.83187 0.59289 0.36947 0.0
C386 C 0.73196 0.57089 0.50338 0.0
C387 C 0.70944 0.59085 0.50269 0.0
C388 C 0.74952 0.56736 0.44759 0.0
C389 C 0.74539 0.58535 0.39185 0.0
C390 C 0.72364 0.60636 0.39175 0.0
C391 C 0.70487 0.60758 0.44691 0.0
C392 C 0.77299 0.54493 0.44793 0.0
C393 C 0.81747 0.57431 0.46537 0.0
C394 C 0.83314 0.57881 0.52839 0.0
C395 C 0.8747 0.60564 0.54441 0.0
C396 C 0.90023 0.62842 0.49674 0.0
C397 C 0.88522 0.62371 0.43339 0.0
C398 C 0.84374 0.59685 0.41819 0.0
H399 H 0.42775 0.17856 0.54394 0.0
H400 H 0.37176 0.16633 0.35707 0.0
H401 H 0.3613 0.05987 0.44472 0.0
H402 H 0.44884 0.24081 0.48225 0.0
H403 H 0.42981 0.23594 0.40175 0.0
H404 H 0.4078 0.23865 0.57159 0.0
H405 H 0.30626 0.25494 0.53015 0.0
H406 H 0.3646 0.23181 0.37718 0.0
C407 C 0.41209 0.15998 0.50088 0.0
C408 C 0.39674 0.11723 0.49911 0.0
C409 C 0.40494 0.17831 0.44815 0.0
C410 C 0.38021 0.15305 0.39542 0.0
C411 C 0.36501 0.11037 0.39381 0.0
C412 C 0.3751 0.09325 0.44437 0.0
C413 C 0.42108 0.22423 0.44994 0.0
C414 C 0.38936 0.23357 0.47212 0.0
C415 C 0.38645 0.23966 0.53761 0.0
C416 C 0.35648 0.2475 0.55912 0.0
C417 C 0.32892 0.24799 0.51422 0.0
C418 C 0.33172 0.24258 0.44864 0.0
C419 C 0.36214 0.23564 0.42765 0.0
H420 H 0.77983 0.15127 0.57885 0.0
H421 H 0.78946 0.10548 0.39595 0.0
H422 H 0.67398 0.05523 0.47706 0.0
H423 H 0.84273 0.15737 0.54439 0.0
H424 H 0.84717 0.14306 0.46555 0.0
H425 H 0.84588 0.22277 0.56974 0.0
H426 H 0.92831 0.31833 0.45431 0.0
H427 H 0.86549 0.19117 0.38305 0.0
C428 C 0.765 0.13413 0.53436 0.0
C429 C 0.72349 0.105 0.53202 0.0
C430 C 0.78869 0.13563 0.48388 0.0
C431 C 0.77051 0.10795 0.43082 0.0
C432 C 0.72932 0.07805 0.429 0.0
C433 C 0.70519 0.08027 0.47597 0.0
C434 C 0.83396 0.1584 0.49385 0.0
C435 C 0.85226 0.20259 0.47685 0.0
C436 C 0.85814 0.2325 0.52361 0.0
C437 C 0.88529 0.27432 0.51554 0.0
C438 C 0.90474 0.28641 0.45817 0.0
C439 C 0.89726 0.2566 0.40912 0.0
C440 C 0.86989 0.21478 0.41846 0.0
H441 H 0.02765 0.53314 0.15291 0.0
H442 H 0.07507 0.58867 0.33927 0.0
H443 H 0.96969 0.58526 0.25552 0.0
H444 H 0.10571 0.56702 0.20565 0.0
H445 H 0.10734 0.55783 0.28775 0.0
H446 H 0.0643 0.50775 0.12527 0.0
H447 H 0.04236 0.38933 0.17721 0.0
H448 H 0.08705 0.48884 0.32 0.0
C449 C 0.02333 0.54374 0.19829 0.0
C450 C -0.0062 0.55504 0.20037 0.0
C451 C 0.05103 0.55265 0.25049 0.0
C452 C 0.05019 0.57582 0.30344 0.0
C453 C 0.02161 0.58879 0.30458 0.0
C454 C 0.9902 0.5732 0.25678 0.0
C455 C 0.08726 0.54706 0.24354 0.0
C456 C 0.07497 0.50296 0.2255 0.0
C457 C 0.06266 0.48753 0.16204 0.0
C458 C 0.04921 0.4462 0.14507 0.0
C459 C 0.05153 0.42113 0.19061 0.0
C460 C 0.06584 0.4366 0.2533 0.0
C461 C 0.07649 0.47713 0.27138 0.0
H462 H 0.54458 0.53258 0.13949 0.0
H463 H 0.55328 0.57606 0.33336 0.0
H464 H 0.57837 0.6583 0.18224 0.0
H465 H 0.54597 0.49322 0.23618 0.0
H466 H 0.53541 0.50635 0.31212 0.0
H467 H 0.49048 0.46826 0.1452 0.0
H468 H 0.37074 0.38889 0.20612 0.0
H469 H 0.46692 0.46961 0.34299 0.0
C470 C 0.54737 0.55621 0.17328 0.0
C471 C 0.56118 0.59629 0.15301 0.0
C472 C 0.54057 0.54762 0.23804 0.0
C473 C 0.55255 0.5809 0.28302 0.0
C474 C 0.56704 0.62113 0.26294 0.0
C475 C 0.56646 0.62713 0.19764 0.0
C476 C 0.52802 0.50488 0.26027 0.0
C477 C 0.4834 0.47396 0.24535 0.0
C478 C 0.46949 0.45786 0.18271 0.0
C479 C 0.42878 0.42783 0.16815 0.0
C480 C 0.40194 0.41289 0.21728 0.0
C481 C 0.41539 0.42698 0.28082 0.0
C482 C 0.45607 0.45837 0.2943 0.0
H483 H 0.50245 0.94905 0.11881 0.0
H484 H 0.50155 0.92814 0.31798 0.0
H485 H 0.60963 0.02194 0.23858 0.0
H486 H 0.44797 0.88374 0.1671 0.0
H487 H 0.44276 0.88349 0.25131 0.0
H488 H 0.43767 0.93298 0.10246 0.0
H489 H 0.36678 0.9807 0.17962 0.0
H490 H 0.4082 0.91612 0.29853 0.0
C491 C 0.51659 0.95929 0.16625 0.0
C492 C 0.55734 0.99058 0.17331 0.0
C493 C 0.49561 0.93789 0.21878 0.0
C494 C 0.51647 0.94667 0.27827 0.0
C495 C 0.55746 0.97723 0.28548 0.0
C496 C 0.5771 0.00079 0.23392 0.0
C497 C 0.45205 0.9036 0.21011 0.0
C498 C 0.4258 0.92242 0.2015 0.0
C499 C 0.42374 0.93809 0.14283 0.0
C500 C 0.40346 0.95994 0.13544 0.0
C501 C 0.38346 0.96468 0.18637 0.0
C502 C 0.38464 0.94859 0.24544 0.0
C503 C 0.40624 0.92777 0.25289 0.0
H504 H 0.40237 0.89187 0.87885 0.0
H505 H 0.42667 0.91681 0.68146 0.0
H506 H 0.35583 0.95827 0.77934 0.0
H507 H 0.42571 0.85225 0.81418 0.0
H508 H 0.43532 0.86204 0.73228 0.0
H509 H 0.4784 0.89292 0.89688 0.0
H510 H 0.59814 0.97965 0.84128 0.0
H511 H 0.49783 0.92494 0.7018 0.0
C512 C 0.39798 0.90382 0.83494 0.0
C513 C 0.37595 0.9243 0.83406 0.0
C514 C 0.41564 0.90014 0.77938 0.0
C515 C 0.41215 0.91853 0.72367 0.0
C516 C 0.39096 0.94012 0.72341 0.0
C517 C 0.37203 0.94147 0.77832 0.0
C518 C 0.43864 0.87722 0.77996 0.0
C519 C 0.48317 0.90619 0.79757 0.0
C520 C 0.49872 0.91039 0.86061 0.0
C521 C 0.54031 0.9369 0.87679 0.0
C522 C 0.566 0.95968 0.82928 0.0
C523 C 0.55112 0.95525 0.76591 0.0
C524 C 0.50961 0.92868 0.75054 0.0
H525 H 0.09128 0.51007 0.87831 0.0
H526 H 0.0351 0.49843 0.69163 0.0
H527 H 0.0199 0.39089 0.7819 0.0
H528 H 0.11403 0.57203 0.81564 0.0
H529 H 0.0951 0.56719 0.73509 0.0
H530 H 0.07425 0.57312 0.90479 0.0
H531 H 0.97558 0.59378 0.86202 0.0
H532 H 0.031 0.56551 0.71011 0.0
C533 C 0.07465 0.49138 0.83582 0.0
C534 C 0.05759 0.44839 0.83497 0.0
C535 C 0.06814 0.50994 0.78278 0.0
C536 C 0.04266 0.48479 0.73051 0.0
C537 C 0.02579 0.44187 0.72988 0.0
C538 C 0.03479 0.42434 0.78098 0.0
C539 C 0.08613 0.55615 0.78354 0.0
C540 C 0.05575 0.56761 0.80522 0.0
C541 C 0.0534 0.5748 0.87056 0.0
C542 C 0.02445 0.58433 0.89161 0.0
C543 C -0.00252 0.58563 0.84646 0.0
C544 C -0.00025 0.57911 0.78107 0.0
C545 C 0.02907 0.57036 0.76046 0.0
H546 H 0.4455 0.48345 0.91375 0.0
H547 H 0.45621 0.43724 0.73193 0.0
H548 H 0.34019 0.38721 0.81115 0.0
H549 H 0.50868 0.49004 0.88077 0.0
H550 H 0.51345 0.47466 0.80281 0.0
H551 H 0.51201 0.55573 0.90301 0.0
H552 H 0.59512 0.64944 0.78574 0.0
H553 H 0.53187 0.52153 0.71832 0.0
C554 C 0.43091 0.46621 0.86922 0.0
C555 C 0.3894 0.43704 0.86645 0.0
C556 C 0.4549 0.46759 0.81929 0.0
C557 C 0.43704 0.43979 0.76631 0.0
C558 C 0.39585 0.40991 0.76403 0.0
C559 C 0.37142 0.41224 0.81037 0.0
C560 C 0.50014 0.4904 0.82986 0.0
C561 C 0.51854 0.53429 0.81127 0.0
C562 C 0.52439 0.56482 0.85679 0.0
C563 C 0.55182 0.60643 0.84774 0.0
C564 C 0.57135 0.61768 0.7903 0.0
C565 C 0.56377 0.58723 0.7423 0.0
C566 C 0.53632 0.54561 0.75282 0.0
H567 H 0.6928 0.86346 0.48647 0.0
H568 H 0.74068 0.91974 0.67239 0.0
H569 H 0.63548 0.91655 0.58842 0.0
H570 H 0.77143 0.89827 0.53953 0.0
H571 H 0.77267 0.88847 0.6214 0.0
H572 H 0.73073 0.83962 0.45807 0.0
H573 H 0.7087 0.72084 0.50808 0.0
H574 H 0.75213 0.81918 0.6526 0.0
C575 C 0.68868 0.87438 0.53172 0.0
C576 C 0.65927 0.88586 0.53362 0.0
C577 C 0.7165 0.88348 0.58386 0.0
C578 C 0.71577 0.90684 0.63662 0.0
C579 C 0.68729 0.91993 0.63762 0.0
C580 C 0.65587 0.90436 0.58983 0.0
C581 C 0.75279 0.87797 0.57698 0.0
C582 C 0.74069 0.83402 0.55824 0.0
C583 C 0.7289 0.81911 0.49449 0.0
C584 C 0.71567 0.77793 0.47682 0.0
C585 C 0.71772 0.75252 0.522 0.0
C586 C 0.73154 0.7675 0.58499 0.0
C587 C 0.74195 0.80786 0.60374 0.0
H588 H 0.21198 0.86883 0.47222 0.0
H589 H 0.22242 0.91321 0.66596 0.0
H590 H 0.24747 0.99508 0.51433 0.0
H591 H 0.21368 0.82976 0.56957 0.0
H592 H 0.203 0.84309 0.64522 0.0
H593 H 0.15838 0.80484 0.47814 0.0
H594 H 0.03851 0.7256 0.53856 0.0
H595 H 0.13445 0.80634 0.67573 0.0
C596 C 0.21519 0.89267 0.50593 0.0
C597 C 0.22941 0.93277 0.4854 0.0
C598 C 0.20864 0.88435 0.57082 0.0
C599 C 0.22138 0.9179 0.61561 0.0
C600 C 0.2363 0.95814 0.59525 0.0
C601 C 0.23531 0.96392 0.52993 0.0
C602 C 0.19576 0.84157 0.59331 0.0
C603 C 0.15112 0.81073 0.57818 0.0
C604 C 0.13732 0.79456 0.51554 0.0
C605 C 0.09663 0.76454 0.50082 0.0
C606 C 0.0697 0.74961 0.54983 0.0
C607 C 0.08303 0.76369 0.6134 0.0
C608 C 0.12369 0.79512 0.62701 0.0
H609 H 0.1696 0.28402 0.45505 0.0
H610 H 0.16833 0.26259 0.65411 0.0
H611 H 0.27746 0.35435 0.5745 0.0
H612 H 0.11397 0.2195 0.50332 0.0
H613 H 0.1091 0.2192 0.58759 0.0
H614 H 0.1056 0.27048 0.4398 0.0
H615 H 0.03501 0.31833 0.51751 0.0
H616 H 0.07534 0.25241 0.63545 0.0
C617 C 0.1839 0.29388 0.50244 0.0
C618 C 0.22496 0.32436 0.50942 0.0
C619 C 0.16266 0.27281 0.55503 0.0
C620 C 0.18354 0.28094 0.61439 0.0
C621 C 0.22481 0.31059 0.62146 0.0
C622 C 0.24481 0.33391 0.56993 0.0
C623 C 0.11873 0.23945 0.54656 0.0
C624 C 0.09343 0.25939 0.53866 0.0
C625 C 0.09179 0.2756 0.48032 0.0
C626 C 0.07171 0.29767 0.47323 0.0
C627 C 0.05165 0.30227 0.52418 0.0
C628 C 0.05245 0.28571 0.58296 0.0
C629 C 0.07382 0.26462 0.59011 0.0
loop_
_geom_bond_atom_site_label_1
_geom_bond_atom_site_label_2
_geom_bond_distance
_geom_bond_site_symmetry_2
_ccdc_geom_bond_type
Mg0 O1 2.028 1_556 S
Mg0 O7 1.986 1_455 S
Mg0 O9 2.114 . S
Mg0 O10 2.251 1_455 S
Mg0 O13 2.010 1_556 S
O1 Mg0 2.028 1_554 S
O1 C4 1.250 1_455 S
O2 Mg3 2.028 1_554 S
O2 C4 1.248 . S
Mg3 O2 2.028 1_556 S
Mg3 O8 2.032 . S
Mg3 O10 2.079 . S
C4 O1 1.250 1_655 S
C4 O2 1.248 . S
C5 O6 1.264 1_554 S
C5 O13 1.249 . S
O6 C5 1.264 1_556 S
O7 Mg0 1.986 1_655 S
O7 C11 1.246 . S
O8 Mg3 2.032 . S
O8 C11 1.259 . S
O9 Mg0 2.114 . S
O9 C12 1.252 . S
O10 Mg0 2.251 1_655 S
O10 Mg3 2.079 . S
O10 C12 1.273 1_655 S
C11 O7 1.246 . S
C11 O8 1.259 . S
C12 O9 1.252 . S
C12 O10 1.273 1_455 S
O13 Mg0 2.010 1_554 S
O13 C5 1.249 . S
Mg14 O15 2.028 1_554 S
Mg14 O21 1.986 . S
Mg14 O23 2.114 . S
Mg14 O24 2.251 . S
Mg14 O27 2.010 . S
O15 Mg14 2.028 1_556 S
O15 C18 1.250 . S
O16 Mg17 2.028 1_556 S
O16 C18 1.248 . S
Mg17 O16 2.028 1_554 S
Mg17 O22 2.032 . S
Mg17 O24 2.079 . S
C18 O15 1.250 . S
C18 O16 1.248 . S
C19 O20 1.264 1_556 S
C19 O27 1.249 1_556 S
O20 C19 1.264 1_554 S
O21 Mg14 1.986 . S
O21 C25 1.246 . S
O22 Mg17 2.032 . S
O22 C25 1.259 . S
O23 Mg14 2.114 . S
O23 C26 1.252 . S
O24 Mg14 2.251 . S
O24 Mg17 2.079 . S
O24 C26 1.273 . S
C25 O21 1.246 . S
C25 O22 1.259 . S
C26 O23 1.252 . S
C26 O24 1.273 . S
O27 Mg14 2.010 . S
O27 C19 1.249 1_554 S
Mg28 O29 2.025 1_556 S
Mg28 O35 1.986 1_565 S
Mg28 O37 2.114 . S
Mg28 O38 2.251 1_565 S
Mg28 O41 2.010 1_556 S
O29 Mg28 2.025 1_554 S
O29 C32 1.247 1_565 S
O30 Mg31 2.028 1_554 S
O30 C32 1.248 . S
Mg31 O30 2.028 1_556 S
Mg31 O36 2.032 . S
Mg31 O38 2.079 . S
C32 O29 1.247 1_545 S
C32 O30 1.248 . S
C33 O34 1.264 1_554 S
C33 O41 1.249 . S
O34 C33 1.264 1_556 S
O35 Mg28 1.986 1_545 S
O35 C39 1.246 . S
O36 Mg31 2.032 . S
O36 C39 1.259 . S
O37 Mg28 2.114 . S
O37 C40 1.252 . S
O38 Mg28 2.251 1_545 S
O38 Mg31 2.079 . S
O38 C40 1.273 1_545 S
C39 O35 1.246 . S
C39 O36 1.259 . S
C40 O37 1.252 . S
C40 O38 1.273 1_565 S
O41 Mg28 2.010 1_554 S
O41 C33 1.249 . S
Mg42 O43 2.028 1_554 S
Mg42 O49 1.986 1_655 S
Mg42 O51 2.114 . S
Mg42 O52 2.251 1_655 S
Mg42 O55 2.010 . S
O43 Mg42 2.028 1_556 S
O43 C46 1.250 1_655 S
O44 Mg45 2.028 1_556 S
O44 C46 1.248 . S
Mg45 O44 2.028 1_554 S
Mg45 O50 2.032 . S
Mg45 O52 2.079 . S
C46 O43 1.250 1_455 S
C46 O44 1.248 . S
C47 O48 1.264 1_556 S
C47 O55 1.249 1_556 S
O48 C47 1.264 1_554 S
O49 Mg42 1.986 1_455 S
O49 C53 1.246 . S
O50 Mg45 2.032 . S
O50 C53 1.259 . S
O51 Mg42 2.114 . S
O51 C54 1.252 . S
O52 Mg42 2.251 1_455 S
O52 Mg45 2.079 . S
O52 C54 1.273 1_455 S
C53 O49 1.246 . S
C53 O50 1.259 . S
C54 O51 1.252 . S
C54 O52 1.273 1_655 S
O55 Mg42 2.010 . S
O55 C47 1.249 1_554 S
Mg56 O57 2.028 1_556 S
Mg56 O63 1.986 . S
Mg56 O65 2.114 . S
Mg56 O66 2.251 . S
Mg56 O69 2.010 1_556 S
O57 Mg56 2.028 1_554 S
O57 C60 1.250 . S
O58 Mg59 2.028 1_554 S
O58 C60 1.248 . S
Mg59 O58 2.028 1_556 S
Mg59 O64 2.032 . S
Mg59 O66 2.079 . S
C60 O57 1.250 . S
C60 O58 1.248 . S
C61 O62 1.264 1_554 S
C61 O69 1.249 . S
O62 C61 1.264 1_556 S
O63 Mg56 1.986 . S
O63 C67 1.246 . S
O64 Mg59 2.032 . S
O64 C67 1.259 . S
O65 Mg56 2.114 . S
O65 C68 1.252 . S
O66 Mg56 2.251 . S
O66 Mg59 2.079 . S
O66 C68 1.273 . S
C67 O63 1.246 . S
C67 O64 1.259 . S
C68 O65 1.252 . S
C68 O66 1.273 . S
O69 Mg56 2.010 1_554 S
O69 C61 1.249 . S
Mg70 O71 2.028 1_554 S
Mg70 O77 1.986 1_545 S
Mg70 O79 2.114 . S
Mg70 O80 2.251 1_545 S
Mg70 O83 2.010 . S
O71 Mg70 2.028 1_556 S
O71 C74 1.250 1_545 S
O72 Mg73 2.028 1_556 S
O72 C74 1.248 . S
Mg73 O72 2.028 1_554 S
Mg73 O78 2.032 . S
Mg73 O80 2.079 . S
C74 O71 1.250 1_565 S
C74 O72 1.248 . S
C75 O76 1.264 . S
C75 O83 1.249 . S
O76 C75 1.264 . S
O77 Mg70 1.986 1_565 S
O77 C81 1.246 . S
O78 Mg73 2.032 . S
O78 C81 1.259 . S
O79 Mg70 2.114 . S
O79 C82 1.252 . S
O80 Mg70 2.251 1_565 S
O80 Mg73 2.079 . S
O80 C82 1.273 1_565 S
C81 O77 1.246 . S
C81 O78 1.259 . S
C82 O79 1.252 . S
C82 O80 1.273 1_545 S
O83 Mg70 2.010 . S
O83 C75 1.249 . S
Mg84 O85 2.028 . S
Mg84 O91 1.986 . S
Mg84 O93 2.114 . S
Mg84 O94 2.251 . S
Mg84 O97 2.010 . S
O85 Mg84 2.028 . S
O85 C88 1.250 . S
O86 Mg87 2.028 . S
O86 C88 1.248 . S
Mg87 O86 2.028 . S
Mg87 O92 2.032 . S
Mg87 O94 2.079 . S
C88 O85 1.250 . S
C88 O86 1.248 . S
C89 O90 1.264 . S
C89 O97 1.249 . S
O90 C89 1.264 . S
O91 Mg84 1.986 . S
O91 C95 1.246 . S
O92 Mg87 2.032 . S
O92 C95 1.259 . S
O93 Mg84 2.114 . S
O93 C96 1.252 . S
O94 Mg84 2.251 . S
O94 Mg87 2.079 . S
O94 C96 1.273 . S
C95 O91 1.246 . S
C95 O92 1.259 . S
C96 O93 1.252 . S
C96 O94 1.273 . S
O97 Mg84 2.010 . S
O97 C89 1.249 . S
Mg98 O99 2.028 . S
Mg98 O105 1.986 1_565 S
Mg98 O107 2.114 . S
Mg98 O108 2.251 . S
Mg98 O111 2.010 . S
O99 Mg98 2.028 . S
O99 C102 1.250 . S
O100 Mg101 2.028 . S
O100 C102 1.248 . S
Mg101 O100 2.028 . S
Mg101 O106 2.032 1_565 S
Mg101 O108 2.079 . S
C102 O99 1.250 . S
C102 O100 1.248 . S
C103 O104 1.264 1_565 S
C103 O111 1.249 . S
O104 C103 1.264 1_545 S
O105 Mg98 1.986 1_545 S
O105 C109 1.246 . S
O106 Mg101 2.032 1_545 S
O106 C109 1.259 . S
O107 Mg98 2.114 . S
O107 C110 1.252 . S
O108 Mg98 2.251 . S
O108 Mg101 2.079 . S
O108 C110 1.273 . S
C109 O105 1.246 . S
C109 O106 1.259 . S
C110 O107 1.252 . S
C110 O108 1.273 . S
O111 Mg98 2.010 . S
O111 C103 1.249 . S
Mg112 O113 2.028 . S
Mg112 O119 1.986 . S
Mg112 O121 2.114 . S
Mg112 O122 2.251 . S
Mg112 O125 2.010 1_455 S
O113 Mg112 2.028 . S
O113 C116 1.250 . S
O114 Mg115 2.028 . S
O114 C116 1.248 . S
Mg115 O114 2.028 . S
Mg115 O120 2.032 . S
Mg115 O122 2.079 . S
C116 O113 1.250 . S
C116 O114 1.248 . S
C117 O118 1.264 . S
C117 O125 1.249 . S
O118 C117 1.264 . S
O119 Mg112 1.986 . S
O119 C123 1.246 . S
O120 Mg115 2.032 . S
O120 C123 1.259 . S
O121 Mg112 2.114 . S
O121 C124 1.252 . S
O122 Mg112 2.251 . S
O122 Mg115 2.079 . S
O122 C124 1.273 . S
C123 O119 1.246 . S
C123 O120 1.259 . S
C124 O121 1.252 . S
C124 O122 1.273 . S
O125 Mg112 2.010 1_655 S
O125 C117 1.249 . S
Mg126 O127 2.028 . S
Mg126 O133 1.986 1_565 S
Mg126 O135 2.114 . S
Mg126 O136 2.251 . S
Mg126 O139 2.010 . S
O127 Mg126 2.028 . S
O127 C130 1.250 . S
O128 Mg129 2.028 . S
O128 C130 1.248 . S
Mg129 O128 2.028 . S
Mg129 O134 2.032 1_565 S
Mg129 O136 2.079 . S
C130 O127 1.250 . S
C130 O128 1.248 . S
C131 O132 1.264 . S
C131 O139 1.249 . S
O132 C131 1.264 . S
O133 Mg126 1.986 1_545 S
O133 C137 1.246 . S
O134 Mg129 2.032 1_545 S
O134 C137 1.259 . S
O135 Mg126 2.114 . S
O135 C138 1.252 . S
O136 Mg126 2.251 . S
O136 Mg129 2.079 . S
O136 C138 1.273 . S
C137 O133 1.246 . S
C137 O134 1.259 . S
C138 O135 1.252 . S
C138 O136 1.273 . S
O139 Mg126 2.010 . S
O139 C131 1.249 . S
Mg140 O141 2.028 . S
Mg140 O147 1.986 . S
Mg140 O149 2.114 . S
Mg140 O150 2.251 . S
Mg140 O153 2.010 1_455 S
O141 Mg140 2.028 . S
O141 C144 1.250 . S
O142 Mg143 2.028 . S
O142 C144 1.248 . S
Mg143 O142 2.028 . S
Mg143 O148 2.032 . S
Mg143 O150 2.079 . S
C144 O141 1.250 . S
C144 O142 1.248 . S
C145 O146 1.264 . S
C145 O153 1.249 . S
O146 C145 1.264 . S
O147 Mg140 1.986 . S
O147 C151 1.246 . S
O148 Mg143 2.032 . S
O148 C151 1.259 . S
O149 Mg140 2.114 . S
O149 C152 1.252 . S
O150 Mg140 2.251 . S
O150 Mg143 2.079 . S
O150 C152 1.273 . S
C151 O147 1.246 . S
C151 O148 1.259 . S
C152 O149 1.252 . S
C152 O150 1.273 . S
O153 Mg140 2.010 1_655 S
O153 C145 1.249 . S
Mg154 O155 2.028 . S
Mg154 O161 1.986 . S
Mg154 O163 2.114 . S
Mg154 O164 2.251 . S
Mg154 O167 2.010 . S
O155 Mg154 2.028 . S
O155 C158 1.250 . S
O156 Mg157 2.028 . S
O156 C158 1.248 . S
Mg157 O156 2.028 . S
Mg157 O162 2.032 . S
Mg157 O164 2.079 . S
C158 O155 1.250 . S
C158 O156 1.248 . S
C159 O160 1.264 . S
C159 O167 1.249 . S
O160 C159 1.264 . S
O161 Mg154 1.986 . S
O161 C165 1.246 . S
O162 Mg157 2.032 . S
O162 C165 1.259 . S
O163 Mg154 2.114 . S
O163 C166 1.252 . S
O164 Mg154 2.251 . S
O164 Mg157 2.079 . S
O164 C166 1.273 . S
C165 O161 1.246 . S
C165 O162 1.259 . S
C166 O163 1.252 . S
C166 O164 1.273 . S
O167 Mg154 2.010 . S
O167 C159 1.249 . S
Mg168 O169 2.028 . S
Mg168 O175 1.986 1_545 S
Mg168 O177 2.114 . S
Mg168 O178 2.251 . S
Mg168 O181 2.010 . S
O169 Mg168 2.028 . S
O169 C172 1.250 . S
O170 Mg171 2.028 . S
O170 C172 1.248 . S
Mg171 O170 2.028 . S
Mg171 O176 2.032 1_545 S
Mg171 O178 2.079 . S
C172 O169 1.250 . S
C172 O170 1.248 . S
C173 O174 1.264 . S
C173 O181 1.249 . S
O174 C173 1.264 . S
O175 Mg168 1.986 1_565 S
O175 C179 1.246 . S
O176 Mg171 2.032 1_565 S
O176 C179 1.259 . S
O177 Mg168 2.114 . S
O177 C180 1.252 . S
O178 Mg168 2.251 . S
O178 Mg171 2.079 . S
O178 C180 1.273 . S
C179 O175 1.246 . S
C179 O176 1.259 . S
C180 O177 1.252 . S
C180 O178 1.273 . S
O181 Mg168 2.010 . S
O181 C173 1.249 . S
Mg182 O183 2.028 . S
Mg182 O189 1.986 . S
Mg182 O191 2.114 . S
Mg182 O192 2.251 . S
Mg182 O195 2.010 1_655 S
O183 Mg182 2.028 . S
O183 C186 1.250 . S
O184 Mg185 2.028 . S
O184 C186 1.248 . S
Mg185 O184 2.028 . S
Mg185 O190 2.032 . S
Mg185 O192 2.079 . S
C186 O183 1.250 . S
C186 O184 1.248 . S
C187 O188 1.264 . S
C187 O195 1.249 . S
O188 C187 1.264 . S
O189 Mg182 1.986 . S
O189 C193 1.246 . S
O190 Mg185 2.032 . S
O190 C193 1.259 . S
O191 Mg182 2.114 . S
O191 C194 1.252 . S
O192 Mg182 2.251 . S
O192 Mg185 2.079 . S
O192 C194 1.273 . S
C193 O189 1.246 . S
C193 O190 1.259 . S
C194 O191 1.252 . S
C194 O192 1.273 . S
O195 Mg182 2.010 1_455 S
O195 C187 1.249 . S
Mg196 O197 2.028 . S
Mg196 O203 1.986 . S
Mg196 O205 2.114 . S
Mg196 O206 2.251 . S
Mg196 O209 2.010 . S
O197 Mg196 2.028 . S
O197 C200 1.250 . S
O198 Mg199 2.028 . S
O198 C200 1.248 . S
Mg199 O198 2.028 . S
Mg199 O204 2.032 . S
Mg199 O206 2.079 . S
C200 O197 1.250 . S
C200 O198 1.248 . S
C201 O202 1.264 . S
C201 O209 1.249 . S
O202 C201 1.264 . S
O203 Mg196 1.986 . S
O203 C207 1.246 . S
O204 Mg199 2.032 . S
O204 C207 1.259 . S
O205 Mg196 2.114 . S
O205 C208 1.252 . S
O206 Mg196 2.251 . S
O206 Mg199 2.079 . S
O206 C208 1.273 . S
C207 O203 1.246 . S
C207 O204 1.259 . S
C208 O205 1.252 . S
C208 O206 1.273 . S
O209 Mg196 2.010 . S
O209 C201 1.249 . S
Mg210 O211 2.028 . S
Mg210 O217 1.986 . S
Mg210 O219 2.114 . S
Mg210 O220 2.251 . S
Mg210 O223 2.010 . S
O211 Mg210 2.028 . S
O211 C214 1.250 . S
O212 Mg213 2.028 . S
O212 C214 1.248 . S
Mg213 O212 2.028 . S
Mg213 O218 2.032 . S
Mg213 O220 2.079 . S
C214 O211 1.250 . S
C214 O212 1.248 . S
C215 O216 1.264 . S
C215 O223 1.249 . S
O216 C215 1.264 . S
O217 Mg210 1.986 . S
O217 C221 1.246 . S
O218 Mg213 2.032 . S
O218 C221 1.259 . S
O219 Mg210 2.114 . S
O219 C222 1.252 . S
O220 Mg210 2.251 . S
O220 Mg213 2.079 . S
O220 C222 1.273 . S
C221 O217 1.246 . S
C221 O218 1.259 . S
C222 O219 1.252 . S
C222 O220 1.273 . S
O223 Mg210 2.010 . S
O223 C215 1.249 . S
Mg224 O225 2.028 . S
Mg224 O231 1.986 1_545 S
Mg224 O233 2.114 . S
Mg224 O234 2.251 . S
Mg224 O237 2.010 . S
O225 Mg224 2.028 . S
O225 C228 1.250 . S
O226 Mg227 2.028 . S
O226 C228 1.248 . S
Mg227 O226 2.028 . S
Mg227 O232 2.032 1_545 S
Mg227 O234 2.079 . S
C228 O225 1.250 . S
C228 O226 1.248 . S
C229 O230 1.264 1_545 S
C229 O237 1.249 . S
O230 C229 1.264 1_565 S
O231 Mg224 1.986 1_565 S
O231 C235 1.246 . S
O232 Mg227 2.032 1_565 S
O232 C235 1.259 . S
O233 Mg224 2.114 . S
O233 C236 1.252 . S
O234 Mg224 2.251 . S
O234 Mg227 2.079 . S
O234 C236 1.273 . S
C235 O231 1.246 . S
C235 O232 1.259 . S
C236 O233 1.252 . S
C236 O234 1.273 . S
O237 Mg224 2.010 . S
O237 C229 1.249 . S
Mg238 O239 2.028 . S
Mg238 O245 1.986 . S
Mg238 O247 2.114 . S
Mg238 O248 2.251 . S
Mg238 O251 2.010 1_655 S
O239 Mg238 2.028 . S
O239 C242 1.250 . S
O240 Mg241 2.028 . S
O240 C242 1.248 . S
Mg241 O240 2.028 . S
Mg241 O246 2.032 . S
Mg241 O248 2.079 . S
C242 O239 1.250 . S
C242 O240 1.248 . S
C243 O244 1.264 . S
C243 O251 1.249 . S
O244 C243 1.264 . S
O245 Mg238 1.986 . S
O245 C249 1.246 . S
O246 Mg241 2.032 . S
O246 C249 1.259 . S
O247 Mg238 2.114 . S
O247 C250 1.252 . S
O248 Mg238 2.251 . S
O248 Mg241 2.079 . S
O248 C250 1.273 . S
C249 O245 1.246 . S
C249 O246 1.259 . S
C250 O247 1.252 . S
C250 O248 1.273 . S
O251 Mg238 2.010 1_455 S
O251 C243 1.249 . S
H252 C260 0.930 . S
H253 C263 0.930 . S
H254 C265 0.930 . S
H255 C266 0.970 . S
H256 C266 0.970 . S
H257 C268 0.930 . S
H258 C270 0.930 . S
H259 C272 0.930 . S
C260 H252 0.930 . S
C260 C261 1.382 . S
C260 C262 1.426 . S
C261 C260 1.382 . S
C261 C265 1.389 . S
C262 C260 1.426 . S
C262 C263 1.375 . S
C262 C266 1.532 . S
C263 H253 0.930 . S
C263 C262 1.375 . S
C263 C264 1.416 . S
C264 C263 1.416 . S
C264 C265 1.371 . S
C265 H254 0.930 . S
C265 C261 1.389 . S
C265 C264 1.371 . S
C266 H255 0.970 . S
C266 H256 0.970 . S
C266 C262 1.532 . S
C266 C267 1.499 . S
C267 C266 1.499 . S
C267 C268 1.370 . S
C267 C272 1.415 . S
C268 H257 0.930 . S
C268 C267 1.370 . S
C268 C269 1.407 . S
C269 C268 1.407 . S
C269 C270 1.365 . S
C270 H258 0.930 . S
C270 C269 1.365 . S
C270 C271 1.393 . S
C271 C270 1.393 . S
C271 C272 1.387 . S
C272 H259 0.930 . S
C272 C267 1.415 . S
C272 C271 1.387 . S
H273 C281 0.930 . S
H274 C284 0.930 . S
H275 C286 0.930 . S
H276 C287 0.970 . S
H277 C287 0.970 . S
H278 C289 0.930 . S
H279 C291 0.930 . S
H280 C293 0.930 . S
C281 H273 0.930 . S
C281 C282 1.382 . S
C281 C283 1.426 . S
C282 C281 1.382 . S
C282 C286 1.389 . S
C283 C281 1.426 . S
C283 C284 1.375 . S
C283 C287 1.532 . S
C284 H274 0.930 . S
C284 C283 1.375 . S
C284 C285 1.416 . S
C285 C284 1.416 . S
C285 C286 1.371 . S
C286 H275 0.930 . S
C286 C282 1.389 . S
C286 C285 1.371 . S
C287 H276 0.970 . S
C287 H277 0.970 . S
C287 C283 1.532 . S
C287 C288 1.499 . S
C288 C287 1.499 . S
C288 C289 1.370 . S
C288 C293 1.415 . S
C289 H278 0.930 . S
C289 C288 1.370 . S
C289 C290 1.407 . S
C290 C289 1.407 . S
C290 C291 1.365 . S
C291 H279 0.930 . S
C291 C290 1.365 . S
C291 C292 1.393 . S
C292 C291 1.393 . S
C292 C293 1.387 . S
C293 H280 0.930 . S
C293 C288 1.415 . S
C293 C292 1.387 . S
H294 C302 0.930 . S
H295 C305 0.930 . S
H296 C307 0.930 . S
H297 C308 0.970 . S
H298 C308 0.970 . S
H299 C310 0.930 . S
H300 C312 0.930 . S
H301 C314 0.930 . S
C302 H294 0.930 . S
C302 C303 1.382 . S
C302 C304 1.426 . S
C303 C302 1.382 . S
C303 C307 1.389 . S
C304 C302 1.426 . S
C304 C305 1.375 . S
C304 C308 1.532 . S
C305 H295 0.930 . S
C305 C304 1.375 . S
C305 C306 1.416 . S
C306 C305 1.416 . S
C306 C307 1.371 . S
C307 H296 0.930 . S
C307 C303 1.389 . S
C307 C306 1.371 . S
C308 H297 0.970 . S
C308 H298 0.970 . S
C308 C304 1.532 . S
C308 C309 1.499 . S
C309 C308 1.499 . S
C309 C310 1.370 . S
C309 C314 1.415 . S
C310 H299 0.930 . S
C310 C309 1.370 . S
C310 C311 1.407 . S
C311 C310 1.407 . S
C311 C312 1.365 . S
C312 H300 0.930 . S
C312 C311 1.365 . S
C312 C313 1.393 . S
C313 C312 1.393 . S
C313 C314 1.387 . S
C314 H301 0.930 . S
C314 C309 1.415 . S
C314 C313 1.387 . S
H315 C323 0.930 . S
H316 C326 0.930 . S
H317 C328 0.930 . S
H318 C329 0.970 . S
H319 C329 0.970 . S
H320 C331 0.930 . S
H321 C333 0.930 . S
H322 C335 0.930 . S
C323 H315 0.930 . S
C323 C324 1.382 . S
C323 C325 1.426 . S
C324 C323 1.382 . S
C324 C328 1.389 . S
C325 C323 1.426 . S
C325 C326 1.375 . S
C325 C329 1.532 . S
C326 H316 0.930 . S
C326 C325 1.375 . S
C326 C327 1.416 . S
C327 C326 1.416 . S
C327 C328 1.371 . S
C328 H317 0.930 . S
C328 C324 1.389 . S
C328 C327 1.371 . S
C329 H318 0.970 . S
C329 H319 0.970 . S
C329 C325 1.532 . S
C329 C330 1.499 . S
C330 C329 1.499 . S
C330 C331 1.370 . S
C330 C335 1.415 . S
C331 H320 0.930 . S
C331 C330 1.370 . S
C331 C332 1.407 . S
C332 C331 1.407 . S
C332 C333 1.365 . S
C333 H321 0.930 . S
C333 C332 1.365 . S
C333 C334 1.393 . S
C334 C333 1.393 . S
C334 C335 1.387 . S
C335 H322 0.930 . S
C335 C330 1.415 . S
C335 C334 1.387 . S
H336 C344 0.930 . S
H337 C347 0.930 . S
H338 C349 0.930 . S
H339 C350 0.970 . S
H340 C350 0.970 . S
H341 C352 0.930 . S
H342 C354 0.930 . S
H343 C356 0.930 . S
C344 H336 0.930 . S
C344 C345 1.382 . S
C344 C346 1.426 . S
C345 C344 1.382 . S
C345 C349 1.389 . S
C346 C344 1.426 . S
C346 C347 1.375 . S
C346 C350 1.532 . S
C347 H337 0.930 . S
C347 C346 1.375 . S
C347 C348 1.416 . S
C348 C347 1.416 . S
C348 C349 1.371 . S
C349 H338 0.930 . S
C349 C345 1.389 . S
C349 C348 1.371 . S
C350 H339 0.970 . S
C350 H340 0.970 . S
C350 C346 1.532 . S
C350 C351 1.499 . S
C351 C350 1.499 . S
C351 C352 1.370 . S
C351 C356 1.415 . S
C352 H341 0.930 . S
C352 C351 1.370 . S
C352 C353 1.407 . S
C353 C352 1.407 . S
C353 C354 1.365 . S
C354 H342 0.930 . S
C354 C353 1.365 . S
C354 C355 1.393 . S
C355 C354 1.393 . S
C355 C356 1.387 . S
C356 H343 0.930 . S
C356 C351 1.415 . S
C356 C355 1.387 . S
H357 C365 0.930 . S
H358 C368 0.930 . S
H359 C370 0.930 . S
H360 C371 0.970 . S
H361 C371 0.970 . S
H362 C373 0.930 . S
H363 C375 0.930 . S
H364 C377 0.930 . S
C365 H357 0.930 . S
C365 C366 1.382 . S
C365 C367 1.426 . S
C366 C365 1.382 . S
C366 C370 1.389 . S
C367 C365 1.426 . S
C367 C368 1.375 . S
C367 C371 1.532 . S
C368 H358 0.930 . S
C368 C367 1.375 . S
C368 C369 1.416 . S
C369 C368 1.416 . S
C369 C370 1.371 . S
C370 H359 0.930 . S
C370 C366 1.389 . S
C370 C369 1.371 . S
C371 H360 0.970 . S
C371 H361 0.970 . S
C371 C367 1.532 . S
C371 C372 1.499 . S
C372 C371 1.499 . S
C372 C373 1.370 . S
C372 C377 1.415 . S
C373 H362 0.930 . S
C373 C372 1.370 . S
C373 C374 1.407 . S
C374 C373 1.407 . S
C374 C375 1.365 . S
C375 H363 0.930 . S
C375 C374 1.365 . S
C375 C376 1.393 . S
C376 C375 1.393 . S
C376 C377 1.387 . S
C377 H364 0.930 . S
C377 C372 1.415 . S
C377 C376 1.387 . S
H378 C386 0.930 . S
H379 C389 0.930 . S
H380 C391 0.930 . S
H381 C392 0.970 . S
H382 C392 0.970 . S
H383 C394 0.930 . S
H384 C396 0.930 . S
H385 C398 0.930 . S
C386 H378 0.930 . S
C386 C387 1.382 . S
C386 C388 1.426 . S
C387 C386 1.382 . S
C387 C391 1.389 . S
C388 C386 1.426 . S
C388 C389 1.375 . S
C388 C392 1.532 . S
C389 H379 0.930 . S
C389 C388 1.375 . S
C389 C390 1.416 . S
C390 C389 1.416 . S
C390 C391 1.371 . S
C391 H380 0.930 . S
C391 C387 1.389 . S
C391 C390 1.371 . S
C392 H381 0.970 . S
C392 H382 0.970 . S
C392 C388 1.532 . S
C392 C393 1.499 . S
C393 C392 1.499 . S
C393 C394 1.370 . S
C393 C398 1.415 . S
C394 H383 0.930 . S
C394 C393 1.370 . S
C394 C395 1.407 . S
C395 C394 1.407 . S
C395 C396 1.365 . S
C396 H384 0.930 . S
C396 C395 1.365 . S
C396 C397 1.393 . S
C397 C396 1.393 . S
C397 C398 1.387 . S
C398 H385 0.930 . S
C398 C393 1.415 . S
C398 C397 1.387 . S
H399 C407 0.930 . S
H400 C410 0.930 . S
H401 C412 0.930 . S
H402 C413 0.970 . S
H403 C413 0.970 . S
H404 C415 0.930 . S
H405 C417 0.930 . S
H406 C419 0.930 . S
C407 H399 0.930 . S
C407 C408 1.382 . S
C407 C409 1.426 . S
C408 C407 1.382 . S
C408 C412 1.389 . S
C409 C407 1.426 . S
C409 C410 1.375 . S
C409 C413 1.532 . S
C410 H400 0.930 . S
C410 C409 1.375 . S
C410 C411 1.416 . S
C411 C410 1.416 . S
C411 C412 1.371 . S
C412 H401 0.930 . S
C412 C408 1.389 . S
C412 C411 1.371 . S
C413 H402 0.970 . S
C413 H403 0.970 . S
C413 C409 1.532 . S
C413 C414 1.499 . S
C414 C413 1.499 . S
C414 C415 1.370 . S
C414 C419 1.415 . S
C415 H404 0.930 . S
C415 C414 1.370 . S
C415 C416 1.407 . S
C416 C415 1.407 . S
C416 C417 1.365 . S
C417 H405 0.930 . S
C417 C416 1.365 . S
C417 C418 1.393 . S
C418 C417 1.393 . S
C418 C419 1.387 . S
C419 H406 0.930 . S
C419 C414 1.415 . S
C419 C418 1.387 . S
H420 C428 0.930 . S
H421 C431 0.930 . S
H422 C433 0.930 . S
H423 C434 0.970 . S
H424 C434 0.970 . S
H425 C436 0.930 . S
H426 C438 0.930 . S
H427 C440 0.930 . S
C428 H420 0.930 . S
C428 C429 1.382 . S
C428 C430 1.426 . S
C429 C428 1.382 . S
C429 C433 1.389 . S
C430 C428 1.426 . S
C430 C431 1.375 . S
C430 C434 1.532 . S
C431 H421 0.930 . S
C431 C430 1.375 . S
C431 C432 1.416 . S
C432 C431 1.416 . S
C432 C433 1.371 . S
C433 H422 0.930 . S
C433 C429 1.389 . S
C433 C432 1.371 . S
C434 H423 0.970 . S
C434 H424 0.970 . S
C434 C430 1.532 . S
C434 C435 1.499 . S
C435 C434 1.499 . S
C435 C436 1.370 . S
C435 C440 1.415 . S
C436 H425 0.930 . S
C436 C435 1.370 . S
C436 C437 1.407 . S
C437 C436 1.407 . S
C437 C438 1.365 . S
C438 H426 0.930 . S
C438 C437 1.365 . S
C438 C439 1.393 . S
C439 C438 1.393 . S
C439 C440 1.387 . S
C440 H427 0.930 . S
C440 C435 1.415 . S
C440 C439 1.387 . S
H441 C449 0.930 . S
H442 C452 0.930 . S
H443 C454 0.930 . S
H444 C455 0.970 . S
H445 C455 0.970 . S
H446 C457 0.930 . S
H447 C459 0.930 . S
H448 C461 0.930 . S
C449 H441 0.930 . S
C449 C450 1.382 . S
C449 C451 1.426 . S
C450 C449 1.382 . S
C450 C454 1.389 1_455 S
C451 C449 1.426 . S
C451 C452 1.375 . S
C451 C455 1.532 . S
C452 H442 0.930 . S
C452 C451 1.375 . S
C452 C453 1.416 . S
C453 C452 1.416 . S
C453 C454 1.371 1_455 S
C454 H443 0.930 . S
C454 C450 1.389 1_655 S
C454 C453 1.371 1_655 S
C455 H444 0.970 . S
C455 H445 0.970 . S
C455 C451 1.532 . S
C455 C456 1.499 . S
C456 C455 1.499 . S
C456 C457 1.370 . S
C456 C461 1.415 . S
C457 H446 0.930 . S
C457 C456 1.370 . S
C457 C458 1.407 . S
C458 C457 1.407 . S
C458 C459 1.365 1_455 S
C459 H447 0.930 . S
C459 C458 1.365 1_655 S
C459 C460 1.393 1_655 S
C460 C459 1.393 1_455 S
C460 C461 1.387 . S
C461 H448 0.930 . S
C461 C456 1.415 . S
C461 C460 1.387 . S
H462 C470 0.930 . S
H463 C473 0.930 . S
H464 C475 0.930 . S
H465 C476 0.970 . S
H466 C476 0.970 . S
H467 C478 0.930 . S
H468 C480 0.930 . S
H469 C482 0.930 . S
C470 H462 0.930 . S
C470 C471 1.382 . S
C470 C472 1.426 . S
C471 C470 1.382 . S
C471 C475 1.389 . S
C472 C470 1.426 . S
C472 C473 1.375 . S
C472 C476 1.532 . S
C473 H463 0.930 . S
C473 C472 1.375 . S
C473 C474 1.416 . S
C474 C473 1.416 . S
C474 C475 1.371 . S
C475 H464 0.930 . S
C475 C471 1.389 . S
C475 C474 1.371 . S
C476 H465 0.970 . S
C476 H466 0.970 . S
C476 C472 1.532 . S
C476 C477 1.499 . S
C477 C476 1.499 . S
C477 C478 1.370 . S
C477 C482 1.415 . S
C478 H467 0.930 . S
C478 C477 1.370 . S
C478 C479 1.407 . S
C479 C478 1.407 . S
C479 C480 1.365 . S
C480 H468 0.930 . S
C480 C479 1.365 . S
C480 C481 1.393 . S
C481 C480 1.393 . S
C481 C482 1.387 . S
C482 H469 0.930 . S
C482 C477 1.415 . S
C482 C481 1.387 . S
H483 C491 0.930 . S
H484 C494 0.930 . S
H485 C496 0.930 . S
H486 C497 0.970 . S
H487 C497 0.970 . S
H488 C499 0.930 . S
H489 C501 0.930 . S
H490 C503 0.930 . S
C491 H483 0.930 . S
C491 C492 1.382 . S
C491 C493 1.426 . S
C492 C491 1.382 . S
C492 C496 1.389 1_565 S
C493 C491 1.426 . S
C493 C494 1.375 . S
C493 C497 1.532 . S
C494 H484 0.930 . S
C494 C493 1.375 . S
C494 C495 1.416 . S
C495 C494 1.416 . S
C495 C496 1.371 1_565 S
C496 H485 0.930 . S
C496 C492 1.389 1_545 S
C496 C495 1.371 1_545 S
C497 H486 0.970 . S
C497 H487 0.970 . S
C497 C493 1.532 . S
C497 C498 1.499 . S
C498 C497 1.499 . S
C498 C499 1.370 . S
C498 C503 1.415 . S
C499 H488 0.930 . S
C499 C498 1.370 . S
C499 C500 1.417 . S
C500 C499 1.417 . S
C500 C501 1.361 1_565 S
C501 H489 0.930 . S
C501 C500 1.361 1_545 S
C501 C502 1.393 1_545 S
C502 C501 1.393 1_565 S
C502 C503 1.387 . S
C503 H490 0.930 . S
C503 C498 1.415 . S
C503 C502 1.387 . S
H504 C512 0.930 . S
H505 C515 0.930 . S
H506 C517 0.930 . S
H507 C518 0.970 . S
H508 C518 0.970 . S
H509 C520 0.930 . S
H510 C522 0.930 . S
H511 C524 0.930 . S
C512 H504 0.930 . S
C512 C513 1.382 . S
C512 C514 1.426 . S
C513 C512 1.382 . S
C513 C517 1.389 1_565 S
C514 C512 1.426 . S
C514 C515 1.375 . S
C514 C518 1.532 . S
C515 H505 0.930 . S
C515 C514 1.375 . S
C515 C516 1.416 . S
C516 C515 1.416 . S
C516 C517 1.371 1_565 S
C517 H506 0.930 . S
C517 C513 1.389 1_545 S
C517 C516 1.371 1_545 S
C518 H507 0.970 . S
C518 H508 0.970 . S
C518 C514 1.532 . S
C518 C519 1.499 . S
C519 C518 1.499 . S
C519 C520 1.370 . S
C519 C524 1.415 . S
C520 H509 0.930 . S
C520 C519 1.370 . S
C520 C521 1.407 . S
C521 C520 1.407 . S
C521 C522 1.365 1_565 S
C522 H510 0.930 . S
C522 C521 1.365 1_545 S
C522 C523 1.393 1_545 S
C523 C522 1.393 1_565 S
C523 C524 1.387 . S
C524 H511 0.930 . S
C524 C519 1.415 . S
C524 C523 1.387 . S
H525 C533 0.930 . S
H526 C536 0.930 . S
H527 C538 0.930 . S
H528 C539 0.970 . S
H529 C539 0.970 . S
H530 C541 0.930 . S
H531 C543 0.930 . S
H532 C545 0.930 . S
C533 H525 0.930 . S
C533 C534 1.382 . S
C533 C535 1.426 . S
C534 C533 1.382 . S
C534 C538 1.389 1_455 S
C535 C533 1.426 . S
C535 C536 1.375 . S
C535 C539 1.532 . S
C536 H526 0.930 . S
C536 C535 1.375 . S
C536 C537 1.416 . S
C537 C536 1.416 . S
C537 C538 1.371 1_455 S
C538 H527 0.930 . S
C538 C534 1.389 1_655 S
C538 C537 1.371 1_655 S
C539 H528 0.970 . S
C539 H529 0.970 . S
C539 C535 1.532 . S
C539 C540 1.499 . S
C540 C539 1.499 . S
C540 C541 1.370 . S
C540 C545 1.415 . S
C541 H530 0.930 . S
C541 C540 1.370 . S
C541 C542 1.407 . S
C542 C541 1.407 . S
C542 C543 1.365 1_455 S
C543 H531 0.930 . S
C543 C542 1.365 1_655 S
C543 C544 1.393 1_655 S
C544 C543 1.393 1_455 S
C544 C545 1.387 . S
C545 H532 0.930 . S
C545 C540 1.415 . S
C545 C544 1.387 . S
H546 C554 0.930 . S
H547 C557 0.930 . S
H548 C559 0.930 . S
H549 C560 0.970 . S
H550 C560 0.970 . S
H551 C562 0.930 . S
H552 C564 0.930 . S
H553 C566 0.930 . S
C554 H546 0.930 . S
C554 C555 1.382 . S
C554 C556 1.426 . S
C555 C554 1.382 . S
C555 C559 1.389 . S
C556 C554 1.426 . S
C556 C557 1.375 . S
C556 C560 1.532 . S
C557 H547 0.930 . S
C557 C556 1.375 . S
C557 C558 1.416 . S
C558 C557 1.416 . S
C558 C559 1.371 . S
C559 H548 0.930 . S
C559 C555 1.389 . S
C559 C558 1.371 . S
C560 H549 0.970 . S
C560 H550 0.970 . S
C560 C556 1.532 . S
C560 C561 1.499 . S
C561 C560 1.499 . S
C561 C562 1.370 . S
C561 C566 1.415 . S
C562 H551 0.930 . S
C562 C561 1.370 . S
C562 C563 1.407 . S
C563 C562 1.407 . S
C563 C564 1.365 . S
C564 H552 0.930 . S
C564 C563 1.365 . S
C564 C565 1.393 . S
C565 C564 1.393 . S
C565 C566 1.387 . S
C566 H553 0.930 . S
C566 C561 1.415 . S
C566 C565 1.387 . S
H567 C575 0.930 . S
H568 C578 0.930 . S
H569 C580 0.930 . S
H570 C581 0.970 . S
H571 C581 0.970 . S
H572 C583 0.930 . S
H573 C585 0.930 . S
H574 C587 0.930 . S
C575 H567 0.930 . S
C575 C576 1.382 . S
C575 C577 1.426 . S
C576 C575 1.382 . S
C576 C580 1.389 . S
C577 C575 1.426 . S
C577 C578 1.375 . S
C577 C581 1.532 . S
C578 H568 0.930 . S
C578 C577 1.375 . S
C578 C579 1.416 . S
C579 C578 1.416 . S
C579 C580 1.371 . S
C580 H569 0.930 . S
C580 C576 1.389 . S
C580 C579 1.371 . S
C581 H570 0.970 . S
C581 H571 0.970 . S
C581 C577 1.532 . S
C581 C582 1.499 . S
C582 C581 1.499 . S
C582 C583 1.370 . S
C582 C587 1.415 . S
C583 H572 0.930 . S
C583 C582 1.370 . S
C583 C584 1.407 . S
C584 C583 1.407 . S
C584 C585 1.365 . S
C585 H573 0.930 . S
C585 C584 1.365 . S
C585 C586 1.393 . S
C586 C585 1.393 . S
C586 C587 1.387 . S
C587 H574 0.930 . S
C587 C582 1.415 . S
C587 C586 1.387 . S
H588 C596 0.930 . S
H589 C599 0.930 . S
H590 C601 0.930 . S
H591 C602 0.970 . S
H592 C602 0.970 . S
H593 C604 0.930 . S
H594 C606 0.930 . S
H595 C608 0.930 . S
C596 H588 0.930 . S
C596 C597 1.382 . S
C596 C598 1.426 . S
C597 C596 1.382 . S
C597 C601 1.389 . S
C598 C596 1.426 . S
C598 C599 1.375 . S
C598 C602 1.532 . S
C599 H589 0.930 . S
C599 C598 1.375 . S
C599 C600 1.416 . S
C600 C599 1.416 . S
C600 C601 1.371 . S
C601 H590 0.930 . S
C601 C597 1.389 . S
C601 C600 1.371 . S
C602 H591 0.970 . S
C602 H592 0.970 . S
C602 C598 1.532 . S
C602 C603 1.499 . S
C603 C602 1.499 . S
C603 C604 1.370 . S
C603 C608 1.415 . S
C604 H593 0.930 . S
C604 C603 1.370 . S
C604 C605 1.407 . S
C605 C604 1.407 . S
C605 C606 1.365 . S
C606 H594 0.930 . S
C606 C605 1.365 . S
C606 C607 1.393 . S
C607 C606 1.393 . S
C607 C608 1.387 . S
C608 H595 0.930 . S
C608 C603 1.415 . S
C608 C607 1.387 . S
H609 C617 0.930 . S
H610 C620 0.930 . S
H611 C622 0.930 . S
H612 C623 0.970 . S
H613 C623 0.970 . S
H614 C625 0.930 . S
H615 C627 0.930 . S
H616 C629 0.930 . S
C617 H609 0.930 . S
C617 C618 1.382 . S
C617 C619 1.426 . S
C618 C617 1.382 . S
C618 C622 1.389 . S
C619 C617 1.426 . S
C619 C620 1.375 . S
C619 C623 1.532 . S
C620 H610 0.930 . S
C620 C619 1.375 . S
C620 C621 1.416 . S
C621 C620 1.416 . S
C621 C622 1.371 . S
C622 H611 0.930 . S
C622 C618 1.389 . S
C622 C621 1.371 . S
C623 H612 0.970 . S
C623 H613 0.970 . S
C623 C619 1.532 . S
C623 C624 1.499 . S
C624 C623 1.499 . S
C624 C625 1.370 . S
C624 C629 1.415 . S
C625 H614 0.930 . S
C625 C624 1.370 . S
C625 C626 1.407 . S
C626 C625 1.407 . S
C626 C627 1.365 . S
C627 H615 0.930 . S
C627 C626 1.365 . S
C627 C628 1.393 . S
C628 C627 1.393 . S
C628 C629 1.387 . S
C629 H616 0.930 . S
C629 C624 1.415 . S
C629 C628 1.387 . S
C4 C458 1.709 1_655 S
C26 C471 1.608 . S
C500 C32 1.685 1_565 S
C40 C513 1.476 . S
C12 C534 1.568 . S
C18 C563 1.653 . S
C46 C542 1.674 . S
C555 C68 1.568 . S
C521 C74 1.606 . S
C82 C492 1.642 1_545 S
C450 C54 1.638 1_455 S
C60 C479 1.619 . S
C88 C584 1.706 . S
C110 C597 1.652 . S
C626 C116 1.623 . S
C124 C261 1.527 . S
C96 C282 1.613 . S
C102 C311 1.666 . S
C130 C290 1.682 . S
C152 C303 1.587 . S
C269 C158 1.623 . S
C618 C166 1.539 . S
C576 C138 1.590 . S
C605 C144 1.654 . S
C172 C332 1.697 . S
C194 C345 1.650 . S
C200 C374 1.632 . S
C208 C387 1.542 . S
C408 C180 1.613 . S
C437 C186 1.667 . S
C416 C214 1.700 . S
C429 C236 1.571 . S
C242 C395 1.614 . S
C366 C250 1.529 . S
C222 C324 1.604 . S
C353 C228 1.648 . S
C264 C5 1.441 . S
C25 C285 1.591 . S
C313 C33 1.448 . S
C334 C39 1.388 . S
C348 C11 1.607 . S
C376 C19 1.343 . S
C47 C369 1.302 . S
C67 C327 1.338 . S
C75 C355 1.655 1_554 S
C81 C292 1.721 . S
C306 C53 1.374 . S
C61 C271 1.494 . S
C390 C89 1.378 . S
C109 C411 1.564 . S
C117 C439 1.346 . S
C460 C123 1.229 . S
C95 C474 1.529 . S
C103 C502 1.383 . S
C131 C495 1.234 . S
C151 C453 1.235 . S
C481 C159 1.525 . S
C165 C418 1.650 . S
C137 C432 1.321 . S
C397 C145 1.483 . S
C516 C173 1.264 1_565 S
C193 C537 1.412 1_655 S
C201 C565 1.343 . S
C586 C207 1.298 . S
C600 C179 1.562 . S
C187 C628 1.345 . S
C215 C621 1.253 . S
C235 C579 1.326 . S
C607 C243 1.529 . S
C544 C249 1.482 1_455 S
C558 C221 1.302 . S
C229 C523 1.373 1_545 S
