# Generated by pormake.
# Topology pyr, (3,6)-cn, num edge types: 1
# Building blocks:
#     Node 0, Type 0, BuildingBlock: VETTIZ_charged_linker_0, # of connection points: 3
#     Node 1, Type 0, BuildingBlock: VETTIZ_charged_linker_0, # of connection points: 3
#     Node 2, Type 0, BuildingBlock: VETTIZ_charged_linker_0, # of connection points: 3
#     Node 3, Type 0, BuildingBlock: VETTIZ_charged_linker_0, # of connection points: 3
#     Node 4, Type 0, BuildingBlock: VETTIZ_charged_linker_0, # of connection points: 3
#     Node 5, Type 0, BuildingBlock: VETTIZ_charged_linker_0, # of connection points: 3
#     Node 6, Type 0, BuildingBlock: VETTIZ_charged_linker_0, # of connection points: 3
#     Node 7, Type 0, BuildingBlock: VETTIZ_charged_linker_0, # of connection points: 3
#     Node 8, Type 1, BuildingBlock: VOLQOD_clean_sbu_1, # of connection points: 6
#     Node 9, Type 1, BuildingBlock: VOLQOD_clean_sbu_1, # of connection points: 6
#     Node 10, Type 1, BuildingBlock: VOLQOD_clean_sbu_1, # of connection points: 6
#     Node 11, Type 1, BuildingBlock: VOLQOD_clean_sbu_1, # of connection points: 6
#     Edge 12, Type (0, 1), BuildingBlock: MIFKUJ_clean_linker_0, # of connection points: 2
#     Edge 13, Type (0, 1), BuildingBlock: MIFKUJ_clean_linker_0, # of connection points: 2
#     Edge 14, Type (0, 1), BuildingBlock: MIFKUJ_clean_linker_0, # of connection points: 2
#     Edge 15, Type (0, 1), BuildingBlock: MIFKUJ_clean_linker_0, # of connection points: 2
#     Edge 16, Type (0, 1), BuildingBlock: MIFKUJ_clean_linker_0, # of connection points: 2
#     Edge 17, Type (0, 1), BuildingBlock: MIFKUJ_clean_linker_0, # of connection points: 2
#     Edge 18, Type (0, 1), BuildingBlock: MIFKUJ_clean_linker_0, # of connection points: 2
#     Edge 19, Type (0, 1), BuildingBlock: MIFKUJ_clean_linker_0, # of connection points: 2
#     Edge 20, Type (0, 1), BuildingBlock: MIFKUJ_clean_linker_0, # of connection points: 2
#     Edge 21, Type (0, 1), BuildingBlock: MIFKUJ_clean_linker_0, # of connection points: 2
#     Edge 22, Type (0, 1), BuildingBlock: MIFKUJ_clean_linker_0, # of connection points: 2
#     Edge 23, Type (0, 1), BuildingBlock: MIFKUJ_clean_linker_0, # of connection points: 2
#     Edge 24, Type (0, 1), BuildingBlock: MIFKUJ_clean_linker_0, # of connection points: 2
#     Edge 25, Type (0, 1), BuildingBlock: MIFKUJ_clean_linker_0, # of connection points: 2
#     Edge 26, Type (0, 1), BuildingBlock: MIFKUJ_clean_linker_0, # of connection points: 2
#     Edge 27, Type (0, 1), BuildingBlock: MIFKUJ_clean_linker_0, # of connection points: 2
#     Edge 28, Type (0, 1), BuildingBlock: MIFKUJ_clean_linker_0, # of connection points: 2
#     Edge 29, Type (0, 1), BuildingBlock: MIFKUJ_clean_linker_0, # of connection points: 2
#     Edge 30, Type (0, 1), BuildingBlock: MIFKUJ_clean_linker_0, # of connection points: 2
#     Edge 31, Type (0, 1), BuildingBlock: MIFKUJ_clean_linker_0, # of connection points: 2
#     Edge 32, Type (0, 1), BuildingBlock: MIFKUJ_clean_linker_0, # of connection points: 2
#     Edge 33, Type (0, 1), BuildingBlock: MIFKUJ_clean_linker_0, # of connection points: 2
#     Edge 34, Type (0, 1), BuildingBlock: MIFKUJ_clean_linker_0, # of connection points: 2
#     Edge 35, Type (0, 1), BuildingBlock: MIFKUJ_clean_linker_0, # of connection points: 2
# Relax obj value: 0.035
# Max RMSD: 0.119
# Mean RMSD: 0.042
data_MOF--net-pry--node1-VOLQOD_clean_sbu_1--node2-VETTIZ_charged_linker_0--edge1-MIFKUJ_clean_linker_0
_symmetry_space_group_name_H-M    P1
_symmetry_Int_Tables_number       1
_symmetry_cell_setting            triclinic
loop_
_symmetry_equiv_pos_as_xyz
'x, y, z'
_cell_length_a     55.985729
_cell_length_b     55.984393
_cell_length_c     56.244447
_cell_angle_alpha  90.064484
_cell_angle_beta   90.006282
_cell_angle_gamma 90.107373
loop_
_atom_site_label
_atom_site_type_symbol
_atom_site_fract_x
_atom_site_fract_y
_atom_site_fract_z
_atom_type_partial_charge
C0 C 0.10894 0.10737 0.2201 0.0
C1 C 0.09091 0.1184 0.23354 0.0
C2 C 0.08102 0.14005 0.22546 0.0
C3 C 0.10729 0.1395 0.19119 0.0
C4 C 0.11696 0.11829 0.19919 0.0
C5 C 0.13699 0.10965 0.18362 0.0
H6 H 0.21206 0.12995 0.09173 0.0
C7 C 0.1201 0.14642 0.16927 0.0
C8 C 0.13759 0.12905 0.1648 0.0
H9 H 0.21136 0.06995 0.14018 0.0
H10 H 0.17617 0.08549 0.15921 0.0
H11 H 0.19852 0.17076 0.12964 0.0
H12 H 0.15622 0.12842 0.08159 0.0
H13 H 0.14206 0.15629 0.08341 0.0
H14 H 0.17206 0.15444 0.0717 0.0
H15 H 0.1998 0.17354 0.09785 0.0
H16 H 0.17818 0.18976 0.1151 0.0
C17 C 0.16014 0.10927 0.19876 0.0
C18 C 0.12975 0.08511 0.17304 0.0
C19 C 0.09704 0.22241 0.12559 0.0
C20 C 0.10565 0.23339 0.10477 0.0
C21 C 0.12448 0.22241 0.09219 0.0
C22 C 0.13472 0.20112 0.1003 0.0
C23 C 0.12606 0.19053 0.12122 0.0
C24 C 0.10739 0.20105 0.13338 0.0
C25 C 0.10031 0.18705 0.15508 0.0
C26 C 0.11767 0.16628 0.15378 0.0
C27 C 0.13284 0.16856 0.13404 0.0
C28 C 0.10474 0.20291 0.17727 0.0
C29 C 0.07409 0.17877 0.15191 0.0
C30 C 0.2042 0.11997 0.10624 0.0
C31 C 0.21485 0.09884 0.11464 0.0
C32 C 0.20395 0.08656 0.13368 0.0
C33 C 0.18341 0.09557 0.14468 0.0
C34 C 0.17351 0.11712 0.13661 0.0
C35 C 0.1836 0.12868 0.11738 0.0
C36 C 0.1702 0.151 0.11082 0.0
C37 C 0.1509 0.1513 0.1298 0.0
C38 C 0.15306 0.13151 0.14494 0.0
C39 C 0.18747 0.17251 0.11329 0.0
C40 C 0.15966 0.1476 0.08554 0.0
H41 H 0.08081 0.16708 0.19911 0.0
H42 H 0.11714 0.09093 0.22611 0.0
H43 H 0.11019 0.08435 0.16954 0.0
H44 H 0.13814 0.08155 0.15562 0.0
H45 H 0.13415 0.07034 0.18545 0.0
H46 H 0.16052 0.12452 0.21146 0.0
H47 H 0.16142 0.09255 0.20929 0.0
H48 H 0.17654 0.11134 0.18809 0.0
H49 H 0.08279 0.23043 0.13586 0.0
H50 H 0.1312 0.23019 0.07588 0.0
H51 H 0.14903 0.19376 0.08997 0.0
H52 H 0.12029 0.21501 0.17452 0.0
H53 H 0.08897 0.21425 0.18123 0.0
H54 H 0.10939 0.19246 0.19326 0.0
H55 H 0.07065 0.17335 0.13317 0.0
H56 H 0.0696 0.16288 0.16263 0.0
H57 H 0.06144 0.19336 0.15638 0.0
H58 H 0.06703 0.14878 0.23553 0.0
C59 C 0.08902 0.15059 0.20431 0.0
C60 C 0.31312 0.89624 0.60293 0.0
C61 C 0.29976 0.91403 0.61445 0.0
C62 C 0.30807 0.92358 0.63609 0.0
C63 C 0.34236 0.89728 0.63481 0.0
C64 C 0.33417 0.88797 0.61354 0.0
C65 C 0.34959 0.86787 0.60467 0.0
H66 H 0.44001 0.79069 0.62477 0.0
C67 C 0.36419 0.88416 0.64152 0.0
C68 C 0.36848 0.86682 0.62402 0.0
H69 H 0.39207 0.79335 0.56445 0.0
H70 H 0.37387 0.82891 0.58011 0.0
H71 H 0.45151 0.84692 0.62391 0.0
H72 H 0.40209 0.80517 0.66536 0.0
H73 H 0.41744 0.82492 0.68446 0.0
H74 H 0.43397 0.80287 0.66808 0.0
H75 H 0.4611 0.83006 0.64926 0.0
H76 H 0.45016 0.86028 0.65211 0.0
C77 C 0.36032 0.8753 0.58038 0.0
C78 C 0.33407 0.84491 0.6039 0.0
C79 C 0.40778 0.90623 0.71751 0.0
C80 C 0.4285 0.89748 0.7286 0.0
C81 C 0.44094 0.8784 0.71785 0.0
C82 C 0.43282 0.86821 0.69653 0.0
C83 C 0.41204 0.87716 0.68575 0.0
C84 C 0.40002 0.89597 0.69619 0.0
C85 C 0.37842 0.90339 0.68219 0.0
C86 C 0.37965 0.88616 0.66141 0.0
C87 C 0.39922 0.87068 0.66368 0.0
C88 C 0.38205 0.92962 0.67418 0.0
C89 C 0.35596 0.89912 0.69779 0.0
C90 C 0.42579 0.79905 0.61477 0.0
C91 C 0.41721 0.7888 0.59353 0.0
C92 C 0.39862 0.8004 0.58117 0.0
C93 C 0.38811 0.82116 0.59024 0.0
C94 C 0.3962 0.83057 0.61194 0.0
C95 C 0.41513 0.8199 0.62354 0.0
C96 C 0.42188 0.83301 0.64596 0.0
C97 C 0.40327 0.85272 0.64629 0.0
C98 C 0.38817 0.85105 0.62642 0.0
C99 C 0.44753 0.84302 0.6429 0.0
C100 C 0.41888 0.81568 0.66719 0.0
H101 H 0.3347 0.92334 0.66279 0.0
H102 H 0.30687 0.88834 0.58647 0.0
H103 H 0.32146 0.84439 0.61918 0.0
H104 H 0.34456 0.82834 0.60547 0.0
H105 H 0.32329 0.8441 0.58733 0.0
H106 H 0.36389 0.89485 0.57983 0.0
H107 H 0.34791 0.871 0.56556 0.0
H108 H 0.37783 0.86693 0.57685 0.0
H109 H 0.39751 0.92057 0.72541 0.0
H110 H 0.45712 0.87148 0.72581 0.0
H111 H 0.44302 0.85372 0.68928 0.0
H112 H 0.40095 0.93285 0.66895 0.0
H113 H 0.37766 0.94225 0.68878 0.0
H114 H 0.37145 0.93435 0.65833 0.0
H115 H 0.35871 0.88401 0.71034 0.0
H116 H 0.34011 0.89387 0.68728 0.0
H117 H 0.3516 0.91518 0.70855 0.0
H118 H 0.298 0.93735 0.64517 0.0
C119 C 0.32936 0.91542 0.64626 0.0
C120 C 0.60502 0.31286 0.92666 0.0
C121 C 0.58377 0.30161 0.91934 0.0
C122 C 0.57017 0.31202 0.901 0.0
C123 C 0.59967 0.34345 0.89658 0.0
C124 C 0.61254 0.33374 0.91517 0.0
C125 C 0.63477 0.34785 0.92062 0.0
H126 H 0.70899 0.43929 0.89287 0.0
C127 C 0.61297 0.36443 0.88766 0.0
C128 C 0.63344 0.36726 0.90183 0.0
H129 H 0.71615 0.38807 0.94998 0.0
H130 H 0.6789 0.36969 0.93863 0.0
H131 H 0.65186 0.44828 0.89878 0.0
H132 H 0.69391 0.40197 0.85446 0.0
H133 H 0.6695 0.41089 0.83713 0.0
H134 H 0.69033 0.43308 0.84785 0.0
H135 H 0.67018 0.45891 0.87481 0.0
H136 H 0.63982 0.44934 0.8699 0.0
C137 C 0.63244 0.35814 0.94611 0.0
C138 C 0.65661 0.33131 0.91689 0.0
C139 C 0.58486 0.40672 0.81284 0.0
C140 C 0.59477 0.42513 0.79892 0.0
C141 C 0.61573 0.43662 0.807 0.0
C142 C 0.62685 0.42958 0.82816 0.0
C143 C 0.61714 0.41066 0.84141 0.0
C144 C 0.59639 0.39969 0.83379 0.0
C145 C 0.58906 0.3794 0.84974 0.0
C146 C 0.609 0.37987 0.86804 0.0
C147 C 0.62534 0.39824 0.86309 0.0
C148 C 0.56453 0.38557 0.86092 0.0
C149 C 0.58925 0.35613 0.83477 0.0
C150 C 0.70265 0.42403 0.90288 0.0
C151 C 0.71564 0.41519 0.92239 0.0
C152 C 0.70642 0.3955 0.93509 0.0
C153 C 0.68483 0.38471 0.92836 0.0
C154 C 0.67227 0.39356 0.90862 0.0
C155 C 0.68119 0.41297 0.89632 0.0
C156 C 0.6657 0.41974 0.87557 0.0
C157 C 0.64582 0.4014 0.87765 0.0
C158 C 0.6498 0.38605 0.89696 0.0
C159 C 0.65643 0.44546 0.87973 0.0
C160 C 0.6805 0.41648 0.85247 0.0
H161 H 0.56703 0.3397 0.87555 0.0
H162 H 0.61564 0.3055 0.94098 0.0
H163 H 0.65393 0.31961 0.90111 0.0
H164 H 0.67328 0.34118 0.91323 0.0
H165 H 0.65943 0.31959 0.93256 0.0
H166 H 0.61351 0.3624 0.95036 0.0
H167 H 0.63885 0.34516 0.95959 0.0
H168 H 0.64208 0.37522 0.94842 0.0
H169 H 0.56862 0.39769 0.80744 0.0
H170 H 0.62404 0.4506 0.79657 0.0
H171 H 0.64288 0.43885 0.83313 0.0
H172 H 0.56273 0.40515 0.86376 0.0
H173 H 0.54961 0.37977 0.84923 0.0
H174 H 0.56212 0.37766 0.87876 0.0
H175 H 0.60462 0.35605 0.82222 0.0
H176 H 0.5915 0.33986 0.84555 0.0
H177 H 0.57265 0.3544 0.82409 0.0
H178 H 0.55379 0.30364 0.89499 0.0
C179 C 0.57799 0.33287 0.88961 0.0
C180 C 0.92251 0.69754 0.40896 0.0
C181 C 0.91272 0.70883 0.42906 0.0
C182 C 0.89291 0.69832 0.44048 0.0
C183 C 0.89273 0.6661 0.41166 0.0
C184 C 0.91234 0.67625 0.40068 0.0
C185 C 0.92057 0.66201 0.37954 0.0
H186 H 0.90605 0.56681 0.30685 0.0
C187 C 0.88648 0.64407 0.39856 0.0
C188 C 0.90287 0.64144 0.37987 0.0
H189 H 0.9567 0.62502 0.30061 0.0
H190 H 0.94219 0.64197 0.33705 0.0
H191 H 0.91048 0.55911 0.36302 0.0
H192 H 0.8616 0.60116 0.32129 0.0
H193 H 0.84515 0.58512 0.34264 0.0
H194 H 0.86206 0.56909 0.32066 0.0
H195 H 0.88626 0.54568 0.34691 0.0
H196 H 0.88236 0.55708 0.37672 0.0
C197 C 0.94641 0.65344 0.38441 0.0
C198 C 0.91779 0.67778 0.35705 0.0
C199 C 0.81265 0.59689 0.42182 0.0
C200 C 0.8028 0.57536 0.41358 0.0
C201 C 0.81488 0.56221 0.39598 0.0
C202 C 0.83614 0.57092 0.386 0.0
C203 C 0.84543 0.59292 0.39386 0.0
C204 C 0.83405 0.60516 0.41196 0.0
C205 C 0.8473 0.62739 0.41916 0.0
C206 C 0.86795 0.62704 0.4017 0.0
C207 C 0.86659 0.60701 0.3867 0.0
C208 C 0.85582 0.62437 0.44523 0.0
C209 C 0.83066 0.64907 0.41504 0.0
C210 C 0.91399 0.58326 0.31324 0.0
C211 C 0.93269 0.59445 0.30069 0.0
C212 C 0.94264 0.61567 0.31 0.0
C213 C 0.93398 0.6257 0.33111 0.0
C214 C 0.91493 0.61465 0.34305 0.0
C215 C 0.90529 0.59374 0.33415 0.0
C216 C 0.88449 0.58504 0.34876 0.0
C217 C 0.88319 0.60429 0.36779 0.0
C218 C 0.90114 0.6215 0.36436 0.0
C219 C 0.89099 0.56036 0.35935 0.0
C220 C 0.86206 0.58489 0.33263 0.0
H221 H 0.86766 0.6701 0.44121 0.0
H222 H 0.93789 0.70502 0.39994 0.0
H223 H 0.90282 0.69068 0.35907 0.0
H224 H 0.91315 0.66735 0.341 0.0
H225 H 0.93427 0.68828 0.35354 0.0
H226 H 0.94854 0.64808 0.40334 0.0
H227 H 0.95955 0.66785 0.38073 0.0
H228 H 0.95133 0.63744 0.37403 0.0
H229 H 0.80385 0.60704 0.4357 0.0
H230 H 0.80752 0.54549 0.38955 0.0
H231 H 0.84439 0.56033 0.37239 0.0
H232 H 0.85817 0.60521 0.44991 0.0
H233 H 0.84275 0.63206 0.45795 0.0
H234 H 0.87357 0.63249 0.44842 0.0
H235 H 0.82109 0.6473 0.39779 0.0
H236 H 0.84035 0.66621 0.41399 0.0
H237 H 0.81702 0.65039 0.42932 0.0
H238 H 0.88489 0.70681 0.45584 0.0
C239 C 0.88286 0.67705 0.43189 0.0
C240 C 0.92764 0.84141 0.9451 0.0
C241 C 0.94815 0.83098 0.93519 0.0
C242 C 0.96156 0.84389 0.91835 0.0
C243 C 0.93275 0.87616 0.91984 0.0
C244 C 0.92041 0.864 0.93734 0.0
C245 C 0.89875 0.87738 0.94572 0.0
H246 H 0.82162 0.96878 0.93121 0.0
C247 C 0.91946 0.89831 0.91452 0.0
C248 C 0.89976 0.89932 0.92993 0.0
H249 H 0.81835 0.91131 0.98236 0.0
H250 H 0.85648 0.89662 0.96884 0.0
H251 H 0.83805 0.93747 0.88918 0.0
H252 H 0.87959 0.98023 0.93758 0.0
H253 H 0.89129 0.98461 0.90888 0.0
H254 H 0.86079 0.99295 0.91507 0.0
H255 H 0.83936 0.96941 0.88697 0.0
H256 H 0.86093 0.95055 0.87238 0.0
C257 C 0.87646 0.86174 0.9405 0.0
C258 C 0.90231 0.88379 0.97232 0.0
C259 C 0.94156 0.94731 0.8419 0.0
C260 C 0.93059 0.96684 0.83065 0.0
C261 C 0.91136 0.97834 0.84205 0.0
C262 C 0.90251 0.96987 0.86377 0.0
C263 C 0.91277 0.94946 0.87409 0.0
C264 C 0.93233 0.93888 0.86345 0.0
C265 C 0.9406 0.91705 0.87666 0.0
C266 C 0.9224 0.91595 0.89664 0.0
C267 C 0.90608 0.93491 0.89496 0.0
C268 C 0.93856 0.89535 0.85964 0.0
C269 C 0.96618 0.92181 0.88611 0.0
C270 C 0.82939 0.95331 0.93976 0.0
C271 C 0.81701 0.94111 0.9578 0.0
C272 C 0.82749 0.92082 0.96826 0.0
C273 C 0.84963 0.91234 0.96038 0.0
C274 C 0.86131 0.92407 0.94161 0.0
C275 C 0.8514 0.94443 0.93189 0.0
C276 C 0.866 0.95405 0.91157 0.0
C277 C 0.88639 0.93618 0.91084 0.0
C278 C 0.88341 0.9186 0.92835 0.0
C279 C 0.85041 0.95306 0.88878 0.0
C280 C 0.87484 0.97937 0.91838 0.0
H281 H 0.96459 0.87521 0.89736 0.0
H282 H 0.91726 0.83203 0.95841 0.0
H283 H 0.92155 0.88637 0.97659 0.0
H284 H 0.89381 0.90091 0.97725 0.0
H285 H 0.89541 0.86941 0.98406 0.0
H286 H 0.87833 0.85244 0.9231 0.0
H287 H 0.87402 0.84788 0.9544 0.0
H288 H 0.85982 0.87213 0.93893 0.0
H289 H 0.95622 0.93794 0.83348 0.0
H290 H 0.90284 0.99363 0.83388 0.0
H291 H 0.88756 0.97911 0.87133 0.0
H292 H 0.92163 0.89616 0.84931 0.0
H293 H 0.95359 0.89508 0.84675 0.0
H294 H 0.93804 0.87804 0.86891 0.0
H295 H 0.96903 0.94112 0.88987 0.0
H296 H 0.96964 0.9128 0.90327 0.0
H297 H 0.97988 0.91621 0.87298 0.0
H298 H 0.97746 0.83616 0.91054 0.0
C299 C 0.95397 0.86645 0.91063 0.0
C300 C 0.68668 0.07627 0.4476 0.0
C301 C 0.69813 0.05622 0.43788 0.0
C302 C 0.68621 0.04255 0.42047 0.0
C303 C 0.65299 0.07032 0.42111 0.0
C304 C 0.66423 0.08293 0.43905 0.0
C305 C 0.65026 0.10445 0.44677 0.0
H306 H 0.55745 0.17921 0.42923 0.0
C307 C 0.6307 0.08309 0.41507 0.0
C308 C 0.62889 0.10291 0.43028 0.0
H309 H 0.61523 0.18615 0.47966 0.0
H310 H 0.63072 0.14771 0.46773 0.0
H311 H 0.54795 0.12029 0.43682 0.0
H312 H 0.58798 0.16421 0.38857 0.0
H313 H 0.57874 0.13958 0.37175 0.0
H314 H 0.55662 0.15908 0.38465 0.0
H315 H 0.53452 0.13902 0.41467 0.0
H316 H 0.54356 0.10883 0.40798 0.0
C317 C 0.643 0.10097 0.47312 0.0
C318 C 0.66571 0.12699 0.44193 0.0
C319 C 0.58337 0.05942 0.3416 0.0
C320 C 0.56392 0.07017 0.33002 0.0
C321 C 0.55178 0.08908 0.34124 0.0
C322 C 0.55957 0.09794 0.36318 0.0
C323 C 0.57998 0.08807 0.37384 0.0
C324 C 0.59119 0.06875 0.36339 0.0
C325 C 0.61304 0.06111 0.377 0.0
C326 C 0.61342 0.07948 0.39691 0.0
C327 C 0.59404 0.09524 0.39487 0.0
C328 C 0.60875 0.03552 0.38653 0.0
C329 C 0.63495 0.06353 0.36034 0.0
C330 C 0.57312 0.17211 0.43803 0.0
C331 C 0.58515 0.18551 0.45543 0.0
C332 C 0.60579 0.17606 0.46615 0.0
C333 C 0.61473 0.15379 0.45915 0.0
C334 C 0.60316 0.14104 0.44093 0.0
C335 C 0.58254 0.1501 0.4309 0.0
C336 C 0.5735 0.13486 0.41078 0.0
C337 C 0.59202 0.11507 0.41049 0.0
C338 C 0.6093 0.1188 0.42816 0.0
C339 C 0.54848 0.12528 0.41768 0.0
C340 C 0.57401 0.15008 0.3877 0.0
H341 H 0.65569 0.0387 0.3984 0.0
H342 H 0.69523 0.08689 0.4613 0.0
H343 H 0.67726 0.12443 0.42603 0.0
H344 H 0.65499 0.14297 0.43774 0.0
H345 H 0.67758 0.13104 0.45724 0.0
H346 H 0.63865 0.08193 0.47679 0.0
H347 H 0.65773 0.10628 0.48527 0.0
H348 H 0.62669 0.11091 0.47798 0.0
H349 H 0.59311 0.04497 0.33325 0.0
H350 H 0.53657 0.0974 0.3327 0.0
H351 H 0.54988 0.11268 0.37057 0.0
H352 H 0.58956 0.03259 0.39081 0.0
H353 H 0.61402 0.02187 0.37319 0.0
H354 H 0.61829 0.03208 0.40339 0.0
H355 H 0.63376 0.08021 0.34965 0.0
H356 H 0.65206 0.06487 0.36992 0.0
H357 H 0.63595 0.04826 0.34776 0.0
H358 H 0.69471 0.027 0.41275 0.0
C359 C 0.66366 0.04948 0.41206 0.0
C360 C 0.43692 0.57797 0.18374 0.0
C361 C 0.42492 0.55837 0.19382 0.0
C362 C 0.40533 0.54828 0.18167 0.0
C363 C 0.409 0.57814 0.1507 0.0
C364 C 0.42859 0.58762 0.16234 0.0
C365 C 0.43807 0.60964 0.15027 0.0
H366 H 0.4256 0.69407 0.06531 0.0
C367 C 0.4039 0.59339 0.12987 0.0
C368 C 0.42091 0.61185 0.12951 0.0
H369 H 0.47813 0.69103 0.12152 0.0
H370 H 0.46256 0.65284 0.13419 0.0
H371 H 0.38324 0.67878 0.09605 0.0
H372 H 0.42822 0.63652 0.05054 0.0
H373 H 0.39858 0.6271 0.04596 0.0
H374 H 0.40682 0.65756 0.03939 0.0
H375 H 0.38001 0.67895 0.06432 0.0
H376 H 0.36462 0.65747 0.08268 0.0
C377 C 0.43587 0.6309 0.16787 0.0
C378 C 0.46388 0.60442 0.14185 0.0
C379 C 0.33036 0.57719 0.07936 0.0
C380 C 0.31967 0.5898 0.06059 0.0
C381 C 0.33148 0.60983 0.05101 0.0
C382 C 0.35332 0.61762 0.06043 0.0
C383 C 0.36332 0.60545 0.07987 0.0
C384 C 0.35203 0.5854 0.08881 0.0
C385 C 0.36475 0.57534 0.11011 0.0
C386 C 0.38548 0.59269 0.11252 0.0
C387 C 0.38451 0.61029 0.09478 0.0
C388 C 0.34753 0.57657 0.1317 0.0
C389 C 0.37336 0.54984 0.10379 0.0
C390 C 0.43403 0.68491 0.08004 0.0
C391 C 0.45311 0.69547 0.09244 0.0
C392 C 0.46329 0.68326 0.11183 0.0
C393 C 0.45422 0.66111 0.11914 0.0
C394 C 0.43451 0.65119 0.10715 0.0
C395 C 0.42495 0.66293 0.08776 0.0
C396 C 0.40347 0.65025 0.07779 0.0
C397 C 0.4017 0.62897 0.09439 0.0
C398 C 0.41989 0.62964 0.11157 0.0
C399 C 0.38163 0.66713 0.08008 0.0
C400 C 0.40933 0.64251 0.052 0.0
H401 H 0.38225 0.54964 0.15185 0.0
H402 H 0.45179 0.58632 0.19286 0.0
H403 H 0.46542 0.58578 0.13513 0.0
H404 H 0.46949 0.6158 0.12683 0.0
H405 H 0.47683 0.60656 0.15667 0.0
H406 H 0.42004 0.62873 0.17964 0.0
H407 H 0.4519 0.63229 0.17944 0.0
H408 H 0.43296 0.64818 0.1589 0.0
H409 H 0.3215 0.56193 0.08729 0.0
H410 H 0.32361 0.61968 0.03642 0.0
H411 H 0.36126 0.63316 0.05256 0.0
H412 H 0.33555 0.59236 0.13042 0.0
H413 H 0.33606 0.5604 0.13268 0.0
H414 H 0.3569 0.57892 0.14881 0.0
H415 H 0.37974 0.54903 0.08506 0.0
H416 H 0.38875 0.54403 0.11461 0.0
H417 H 0.35866 0.53664 0.10572 0.0
H418 H 0.39596 0.53305 0.18905 0.0
C419 C 0.39742 0.55795 0.16009 0.0
C420 C 0.06879 0.32514 0.5905 0.0
C421 C 0.07834 0.31215 0.57132 0.0
C422 C 0.09758 0.32197 0.5584 0.0
C423 C 0.09866 0.35611 0.58486 0.0
C424 C 0.07917 0.34701 0.5969 0.0
C425 C 0.07189 0.36258 0.61746 0.0
H426 H 0.09506 0.45712 0.68881 0.0
C427 C 0.10613 0.37836 0.5969 0.0
C428 C 0.09033 0.38244 0.61582 0.0
H429 H 0.03854 0.40484 0.6952 0.0
H430 H 0.0509 0.38637 0.65846 0.0
H431 H 0.08997 0.46544 0.6314 0.0
H432 H 0.13507 0.41991 0.6737 0.0
H433 H 0.15282 0.43312 0.65156 0.0
H434 H 0.13827 0.45182 0.67315 0.0
H435 H 0.1149 0.47693 0.64792 0.0
H436 H 0.11839 0.46536 0.61813 0.0
C437 C 0.04628 0.37186 0.61265 0.0
C438 C 0.07455 0.3478 0.64061 0.0
C439 C 0.18347 0.41874 0.57252 0.0
C440 C 0.19581 0.43883 0.58111 0.0
C441 C 0.18508 0.45316 0.59873 0.0
C442 C 0.16285 0.44689 0.60842 0.0
C443 C 0.15126 0.42607 0.60044 0.0
C444 C 0.1613 0.41277 0.58231 0.0
C445 C 0.14624 0.39157 0.57561 0.0
C446 C 0.12583 0.39389 0.5932 0.0
C447 C 0.12899 0.41395 0.6079 0.0
C448 C 0.13773 0.39481 0.54957 0.0
C449 C 0.16121 0.36872 0.57999 0.0
C450 C 0.08515 0.44194 0.68202 0.0
C451 C 0.06588 0.43232 0.69488 0.0
C452 C 0.0536 0.41237 0.68568 0.0
C453 C 0.06081 0.40169 0.66435 0.0
C454 C 0.08074 0.41084 0.65219 0.0
C455 C 0.09236 0.43084 0.66086 0.0
C456 C 0.11365 0.43756 0.64594 0.0
C457 C 0.11291 0.41824 0.62697 0.0
C458 C 0.09364 0.40261 0.63081 0.0
C459 C 0.10925 0.4627 0.63534 0.0
C460 C 0.13623 0.43571 0.66177 0.0
H461 H 0.12255 0.35017 0.5547 0.0
H462 H 0.05414 0.31806 0.60093 0.0
H463 H 0.09007 0.33546 0.63943 0.0
H464 H 0.07823 0.35889 0.65643 0.0
H465 H 0.05838 0.33679 0.64398 0.0
H466 H 0.04347 0.37515 0.59334 0.0
H467 H 0.03264 0.35868 0.61849 0.0
H468 H 0.04268 0.38923 0.62125 0.0
H469 H 0.19111 0.40767 0.55866 0.0
H470 H 0.19428 0.46875 0.60559 0.0
H471 H 0.1558 0.4582 0.62213 0.0
H472 H 0.13649 0.41404 0.54473 0.0
H473 H 0.15023 0.38623 0.53685 0.0
H474 H 0.1195 0.38773 0.54659 0.0
H475 H 0.17139 0.37023 0.59692 0.0
H476 H 0.15029 0.35244 0.58191 0.0
H477 H 0.17429 0.36586 0.56541 0.0
H478 H 0.10497 0.31257 0.54326 0.0
C479 C 0.10772 0.34387 0.56502 0.0
O480 O 0.99474 0.0574 0.53975 0.0
Zn481 Zn 0.98307 0.02323 0.53838 0.0
O482 O 0.00526 0.00302 0.52067 0.0
Zn483 Zn 0.99063 0.99253 0.49088 0.0
Zn484 Zn 0.03393 0.0213 0.51344 0.0
Zn485 Zn 0.01355 0.97528 0.53999 0.0
O486 O 0.9899 0.95667 0.48896 0.0
O487 O 0.00185 0.94477 0.52471 0.0
O488 O 0.95036 0.02239 0.52349 0.0
O489 O 0.95642 0.0034 0.48927 0.0
O490 O 0.00771 0.00571 0.46209 0.0
O491 O 0.03701 0.02692 0.47837 0.0
O492 O 0.06359 0.00452 0.52474 0.0
O493 O 0.97991 0.01207 0.57222 0.0
O494 O 0.04921 0.97274 0.5436 0.0
O495 O -4e-05 0.97793 0.57308 0.0
C496 C 0.01536 0.06642 0.53626 0.0
C497 C 0.99383 0.94014 0.504 0.0
C498 C 0.02564 0.01961 0.46017 0.0
C499 C 0.94274 0.01436 0.50369 0.0
C500 C 0.06676 0.98544 0.53662 0.0
C501 C 0.98734 0.99376 0.58339 0.0
O502 O 0.03241 0.05397 0.5279 0.0
O503 O 0.50011 0.05731 0.99445 0.0
Zn504 Zn 0.48702 0.02394 0.99931 0.0
O505 O 0.50778 0.00542 0.02057 0.0
Zn506 Zn 0.52123 0.97839 0.0033 0.0
Zn507 Zn 0.53351 0.02591 0.03255 0.0
Zn508 Zn 0.48943 0.99305 0.04737 0.0
O509 O 0.51203 0.94696 0.01794 0.0
O510 O 0.48805 0.95712 0.04765 0.0
O511 O 0.48409 0.00817 0.96699 0.0
O512 O 0.50882 0.97735 0.96996 0.0
O513 O 0.55705 0.98032 0.00218 0.0
O514 O 0.56569 0.0134 0.02228 0.0
O515 O 0.53334 0.02778 0.06843 0.0
O516 O 0.45396 0.02727 0.01351 0.0
O517 O 0.50407 0.00289 0.07836 0.0
O518 O 0.45605 0.00611 0.04684 0.0
C519 C 0.51713 0.0689 0.00416 0.0
C520 C 0.49841 0.94126 0.03514 0.0
C521 C 0.57222 0.99517 0.01039 0.0
C522 C 0.49411 0.98982 0.95803 0.0
C523 C 0.52093 0.01702 0.0841 0.0
C524 C 0.44445 0.01934 0.03253 0.0
O525 O 0.53072 0.05918 0.0195 0.0
O526 O 0.52619 0.49989 0.55181 0.0
Zn527 Zn 0.52361 0.51357 0.51877 0.0
O528 O 0.50309 0.49355 0.49861 0.0
Zn529 Zn 0.52158 0.48189 0.47146 0.0
Zn530 Zn 0.491 0.4664 0.51694 0.0
Zn531 Zn 0.476 0.51223 0.48718 0.0
O532 O 0.50654 0.4917 0.4404 0.0
O533 O 0.47485 0.5128 0.4514 0.0
O534 O 0.55699 0.51611 0.50533 0.0
O535 O 0.55495 0.49511 0.47189 0.0
O536 O 0.52421 0.44596 0.47203 0.0
O537 O 0.50118 0.43529 0.50239 0.0
O538 O 0.45507 0.46651 0.51914 0.0
O539 O 0.51032 0.54692 0.52174 0.0
O540 O 0.44479 0.49878 0.49875 0.0
O541 O 0.47765 0.54595 0.49936 0.0
C542 C 0.51757 0.48129 0.56166 0.0
C543 C 0.48808 0.5039 0.43525 0.0
C544 C 0.51476 0.42991 0.48506 0.0
C545 C 0.56663 0.50807 0.48644 0.0
C546 C 0.43918 0.48062 0.51115 0.0
C547 C 0.49199 0.55712 0.51301 0.0
O548 O 0.50401 0.467 0.5503 0.0
O549 O 0.98683 0.51692 0.0508 0.0
Zn550 Zn 0.98995 0.5019 0.01845 0.0
O551 O 0.01084 0.52102 0.99797 0.0
Zn552 Zn 0.9924 0.53329 0.97109 0.0
Zn553 Zn 0.02411 0.54771 0.01613 0.0
Zn554 Zn 0.03698 0.50117 0.98621 0.0
O555 O 0.00701 0.52311 0.93994 0.0
O556 O 0.03533 0.4975 0.95061 0.0
O557 O 0.95703 0.49851 0.00439 0.0
O558 O 0.95883 0.52012 0.97135 0.0
O559 O 0.99063 0.56928 0.97175 0.0
O560 O 0.014 0.57915 0.00216 0.0
O561 O 0.05998 0.54722 0.016 0.0
O562 O 0.00338 0.4688 0.02345 0.0
O563 O 0.06911 0.51525 0.99452 0.0
O564 O 0.03606 0.46865 0.00111 0.0
C565 C 0.99756 0.53412 0.06113 0.0
C566 C 0.0232 0.50807 0.93462 0.0
C567 C 0.00052 0.58499 0.98489 0.0
C568 C 0.94734 0.50666 0.98559 0.0
C569 C 0.0754 0.53345 0.00661 0.0
C570 C 0.02189 0.45829 0.0155 0.0
O571 O 0.01288 0.5469 0.05021 0.0
H572 H 0.07822 0.07211 0.24211 0.0
H573 H 0.06663 0.05433 0.28029 0.0
H574 H 0.07493 0.12285 0.31447 0.0
H575 H 0.08633 0.14074 0.27635 0.0
H576 H 0.09829 0.08352 0.33782 0.0
H577 H 0.02151 0.10509 0.305 0.0
H578 H 0.9902 0.10517 0.27417 0.0
H579 H 0.98531 0.02872 0.2781 0.0
H580 H 0.01687 0.02816 0.30873 0.0
H581 H 0.04781 0.06157 0.44995 0.0
H582 H 0.05842 0.07724 0.41097 0.0
H583 H 0.03105 0.01314 0.37789 0.0
H584 H 0.01911 0.99797 0.41699 0.0
H585 H 0.01816 0.04864 0.35281 0.0
H586 H 0.09358 0.02558 0.38518 0.0
H587 H 0.12576 0.0237 0.41506 0.0
H588 H 0.13499 0.09973 0.41078 0.0
H589 H 0.10266 0.1021 0.38107 0.0
C590 C 0.07749 0.08334 0.25779 0.0
C591 C 0.08308 0.10778 0.25633 0.0
C592 C 0.07082 0.07322 0.2795 0.0
C593 C 0.0699 0.08733 0.30011 0.0
C594 C 0.07553 0.11171 0.29872 0.0
C595 C 0.08187 0.12191 0.27696 0.0
C596 C 0.06344 0.07659 0.32324 0.0
C597 C 0.08071 0.0761 0.34127 0.0
C598 C 0.04077 0.06623 0.3273 0.0
C599 C 0.02173 0.06657 0.30897 0.0
C600 C 0.01392 0.08828 0.29914 0.0
C601 C 0.99609 0.08841 0.28173 0.0
C602 C 0.98582 0.06696 0.27413 0.0
C603 C 0.99331 0.04532 0.28397 0.0
C604 C 0.01115 0.04509 0.30137 0.0
C605 C 0.04418 0.05074 0.43438 0.0
C606 C 0.03281 0.02845 0.4365 0.0
C607 C 0.05038 0.05967 0.41207 0.0
C608 C 0.04608 0.04616 0.39144 0.0
C609 C 0.03465 0.02388 0.39353 0.0
C610 C 0.0279 0.01518 0.41585 0.0
C611 C 0.05301 0.0556 0.36771 0.0
C612 C 0.03584 0.05587 0.34948 0.0
C613 C 0.07596 0.06541 0.36331 0.0
C614 C 0.09557 0.06403 0.38102 0.0
C615 C 0.10238 0.04191 0.3907 0.0
C616 C 0.12066 0.04076 0.4076 0.0
C617 C 0.13238 0.06159 0.41485 0.0
C618 C 0.12589 0.08361 0.40516 0.0
C619 C 0.10761 0.08487 0.38826 0.0
H620 H 0.14651 0.06066 0.42794 0.0
H621 H 0.97202 0.0671 0.26065 0.0
H622 H 0.42849 0.94464 0.74175 0.0
H623 H 0.4398 0.96165 0.78008 0.0
H624 H 0.45959 0.89161 0.80515 0.0
H625 H 0.44711 0.87426 0.76726 0.0
H626 H 0.43443 0.91366 0.83764 0.0
H627 H 0.50177 0.93447 0.78934 0.0
H628 H 0.52265 0.95167 0.75475 0.0
H629 H 0.49522 0.02112 0.77206 0.0
H630 H 0.47389 0.00426 0.80659 0.0
H631 H 0.5034 0.94673 0.93748 0.0
H632 H 0.49216 0.93312 0.89782 0.0
H633 H 0.45997 0.00147 0.88333 0.0
H634 H 0.47095 0.01531 0.92331 0.0
H635 H 0.49038 0.98206 0.84567 0.0
H636 H 0.42385 0.9601 0.89509 0.0
H637 H 0.40465 0.94202 0.93019 0.0
H638 H 0.43278 0.87338 0.91088 0.0
H639 H 0.45246 0.89114 0.87583 0.0
C640 C 0.43509 0.9328 0.75545 0.0
C641 C 0.43682 0.90805 0.75142 0.0
C642 C 0.44183 0.94261 0.77728 0.0
C643 C 0.4508 0.92795 0.79542 0.0
C644 C 0.45277 0.90328 0.79139 0.0
C645 C 0.44586 0.89342 0.76961 0.0
C646 C 0.45738 0.9382 0.81888 0.0
C647 C 0.44691 0.92842 0.83936 0.0
C648 C 0.47321 0.95786 0.82114 0.0
C649 C 0.48603 0.96805 0.80041 0.0
C650 C 0.50003 0.95337 0.78566 0.0
C651 C 0.51198 0.96306 0.76608 0.0
C652 C 0.51021 0.98746 0.76117 0.0
C653 C 0.49654 0.00222 0.77586 0.0
C654 C 0.48454 0.99261 0.79545 0.0
C655 C 0.49403 0.95898 0.92588 0.0
C656 C 0.488 0.98211 0.93359 0.0
C657 C 0.48758 0.95112 0.90324 0.0
C658 C 0.47513 0.96626 0.88779 0.0
C659 C 0.46956 0.98956 0.89509 0.0
C660 C 0.47576 0.99738 0.91793 0.0
C661 C 0.46758 0.95734 0.8642 0.0
C662 C 0.47785 0.96737 0.84379 0.0
C663 C 0.45176 0.93777 0.86198 0.0
C664 C 0.43981 0.927 0.88295 0.0
C665 C 0.42611 0.94119 0.89843 0.0
C666 C 0.41511 0.93099 0.9183 0.0
C667 C 0.41754 0.90658 0.9228 0.0
C668 C 0.43093 0.8923 0.90739 0.0
C669 C 0.44199 0.90242 0.88751 0.0
H670 H 0.40901 0.89872 0.93819 0.0
H671 H 0.51948 0.99493 0.74601 0.0
H672 H 0.57447 0.39511 0.76607 0.0
H673 H 0.55888 0.4052 0.72694 0.0
H674 H 0.57671 0.47928 0.7387 0.0
H675 H 0.59098 0.46958 0.77857 0.0
H676 H 0.53558 0.47637 0.71661 0.0
H677 H 0.61284 0.44161 0.7052 0.0
H678 H 0.64428 0.4111 0.70933 0.0
H679 H 0.59968 0.35972 0.67391 0.0
H680 H 0.56783 0.38985 0.66986 0.0
H681 H 0.53869 0.51097 0.59422 0.0
H682 H 0.54954 0.50169 0.63533 0.0
H683 H 0.52154 0.43038 0.62681 0.0
H684 H 0.5105 0.43947 0.58575 0.0
H685 H 0.56733 0.43201 0.64705 0.0
H686 H 0.49038 0.46858 0.65782 0.0
H687 H 0.4603 0.50033 0.65311 0.0
H688 H 0.50644 0.55001 0.68899 0.0
H689 H 0.53696 0.51862 0.69362 0.0
C690 C 0.57464 0.41365 0.76062 0.0
C691 C 0.58413 0.43151 0.77552 0.0
C692 C 0.566 0.41934 0.73805 0.0
C693 C 0.5671 0.44292 0.72966 0.0
C694 C 0.57585 0.46092 0.74472 0.0
C695 C 0.58424 0.45529 0.76743 0.0
C696 C 0.55963 0.44869 0.70499 0.0
C697 C 0.54275 0.46686 0.70139 0.0
C698 C 0.56871 0.43606 0.68512 0.0
C699 C 0.58786 0.41792 0.68744 0.0
C700 C 0.60967 0.42375 0.69845 0.0
C701 C 0.62757 0.40654 0.70075 0.0
C702 C 0.62395 0.38347 0.69194 0.0
C703 C 0.60244 0.37758 0.68075 0.0
C704 C 0.58447 0.39473 0.67843 0.0
C705 C 0.53477 0.49333 0.6011 0.0
C706 C 0.52372 0.47596 0.5867 0.0
C707 C 0.54089 0.4881 0.62461 0.0
C708 C 0.53621 0.4654 0.63409 0.0
C709 C 0.52526 0.44802 0.61979 0.0
C710 C 0.5189 0.45329 0.59637 0.0
C711 C 0.5433 0.45958 0.65876 0.0
C712 C 0.56015 0.44145 0.66232 0.0
C713 C 0.53442 0.47243 0.67852 0.0
C714 C 0.51605 0.4913 0.67585 0.0
C715 C 0.4942 0.48633 0.66452 0.0
C716 C 0.47705 0.50425 0.6619 0.0
C717 C 0.48148 0.52719 0.67069 0.0
C718 C 0.50305 0.53224 0.68217 0.0
C719 C 0.52027 0.51438 0.68481 0.0
H720 H 0.46818 0.54104 0.66864 0.0
H721 H 0.63784 0.37016 0.69374 0.0
H722 H 0.97836 0.59413 0.28271 0.0
H723 H 0.99106 0.58212 0.24289 0.0
H724 H 0.91913 0.5602 0.22634 0.0
H725 H 0.9059 0.57318 0.26564 0.0
H726 H 0.95734 0.52722 0.21163 0.0
H727 H 0.93389 0.61059 0.20715 0.0
H728 H 0.93551 0.65277 0.21972 0.0
H729 H 0.01046 0.65525 0.20366 0.0
H730 H 0.00934 0.61293 0.19134 0.0
H731 H 0.95857 0.51989 0.08661 0.0
H732 H 0.94959 0.52839 0.1282 0.0
H733 H 0.01575 0.56758 0.13464 0.0
H734 H 0.02437 0.55995 0.0927 0.0
H735 H 0.98282 0.59106 0.15591 0.0
H736 H 0.00764 0.50983 0.1584 0.0
H737 H 0.00844 0.46731 0.14696 0.0
H738 H 0.93511 0.45967 0.16805 0.0
H739 H 0.93377 0.50225 0.17931 0.0
C740 C 0.96515 0.58689 0.27061 0.0
C741 C 0.94102 0.58487 0.27741 0.0
C742 C 0.97252 0.57986 0.24794 0.0
C743 C 0.95598 0.5704 0.23174 0.0
C744 C 0.93215 0.56737 0.23871 0.0
C745 C 0.92467 0.5747 0.26125 0.0
C746 C 0.96325 0.56491 0.20707 0.0
C747 C 0.96272 0.54112 0.1993 0.0
C748 C 0.97096 0.58305 0.19138 0.0
C749 C 0.97159 0.60853 0.19859 0.0
C750 C 0.95076 0.62006 0.20651 0.0
C751 C 0.95157 0.64401 0.21355 0.0
C752 C 0.97309 0.65666 0.21256 0.0
C753 C 0.99381 0.64541 0.20446 0.0
C754 C 0.9931 0.62146 0.19744 0.0
C755 C 0.97124 0.53028 0.09689 0.0
C756 C 0.99221 0.5392 0.08638 0.0
C757 C 0.96616 0.535 0.12074 0.0
C758 C 0.98221 0.54824 0.13474 0.0
C759 C 0.00311 0.55727 0.12424 0.0
C760 C 0.00802 0.55288 0.10026 0.0
C761 C 0.97682 0.55322 0.16014 0.0
C762 C 0.97766 0.57699 0.16813 0.0
C763 C 0.9698 0.53496 0.17615 0.0
C764 C 0.97055 0.5093 0.16951 0.0
C765 C 0.99163 0.49913 0.16044 0.0
C766 C 0.99219 0.47501 0.15402 0.0
C767 C 0.97182 0.46081 0.15673 0.0
C768 C 0.95087 0.4707 0.16594 0.0
C769 C 0.95021 0.49482 0.17237 0.0
H770 H 0.97229 0.44214 0.15174 0.0
H771 H 0.97368 0.6752 0.21801 0.0
H772 H 0.25267 0.07886 0.1381 0.0
H773 H 0.2905 0.06545 0.12155 0.0
H774 H 0.26758 0.08688 0.05153 0.0
H775 H 0.22897 0.09918 0.0678 0.0
H776 H 0.29027 0.0456 0.04907 0.0
H777 H 0.30668 0.12133 0.08405 0.0
H778 H 0.30693 0.15232 0.11522 0.0
H779 H 0.34912 0.10701 0.16016 0.0
H780 H 0.34883 0.07559 0.12938 0.0
H781 H 0.41129 0.04176 0.00437 0.0
H782 H 0.37131 0.05528 0.0159 0.0
H783 H 0.3821 0.02713 0.08641 0.0
H784 H 0.42186 0.01345 0.07512 0.0
H785 H 0.36566 0.07444 0.08568 0.0
H786 H 0.347 0.99803 0.04983 0.0
H787 H 0.34704 0.96836 0.0174 0.0
H788 H 0.30966 0.01749 0.97222 0.0
H789 H 0.30969 0.0476 0.0043 0.0
C790 C 0.25542 0.08037 0.11911 0.0
C791 C 0.23771 0.09015 0.10431 0.0
C792 C 0.27725 0.07298 0.10971 0.0
C793 C 0.28208 0.07558 0.08536 0.0
C794 C 0.26431 0.08486 0.0704 0.0
C795 C 0.24233 0.09209 0.07978 0.0
C796 C 0.30575 0.06865 0.07568 0.0
C797 C 0.30675 0.05222 0.05682 0.0
C798 C 0.32728 0.07713 0.0859 0.0
C799 C 0.32756 0.09601 0.10447 0.0
C800 C 0.31586 0.11789 0.10064 0.0
C801 C 0.31603 0.13555 0.11824 0.0
C802 C 0.32799 0.13161 0.13968 0.0
C803 C 0.33985 0.11003 0.14355 0.0
C804 C 0.3397 0.09229 0.12603 0.0
C805 C 0.40509 0.03831 0.02229 0.0
C806 C 0.41979 0.02652 0.03882 0.0
C807 C 0.38224 0.046 0.02881 0.0
C808 C 0.3738 0.04216 0.05199 0.0
C809 C 0.38833 0.03028 0.06844 0.0
C810 C 0.41102 0.02239 0.0619 0.0
C811 C 0.35009 0.05108 0.05948 0.0
C812 C 0.34913 0.06798 0.07786 0.0
C813 C 0.32867 0.04327 0.04863 0.0
C814 C 0.32859 0.02516 0.02937 0.0
C815 C 0.33898 0.00259 0.03291 0.0
C816 C 0.33895 0.98567 0.0146 0.0
C817 C 0.32843 0.99106 0.99273 0.0
C818 C 0.31785 0.01335 0.98915 0.0
C819 C 0.31785 0.03034 0.00739 0.0
H820 H 0.32842 0.97794 0.97859 0.0
H821 H 0.32811 0.14531 0.15328 0.0
H822 H 0.25696 0.91517 0.63706 0.0
H823 H 0.21824 0.92712 0.62059 0.0
H824 H 0.25176 0.94264 0.55331 0.0
H825 H 0.29057 0.93016 0.5696 0.0
H826 H 0.21816 0.97976 0.57501 0.0
H827 H 0.22387 0.89701 0.55141 0.0
H828 H 0.23099 0.85417 0.55854 0.0
H829 H 0.17345 0.85262 0.609 0.0
H830 H 0.16624 0.89558 0.60245 0.0
H831 H 0.10839 0.99817 0.51457 0.0
H832 H 0.14891 0.98573 0.52489 0.0
H833 H 0.12109 0.94425 0.58337 0.0
H834 H 0.08053 0.95573 0.57244 0.0
H835 H 0.15374 0.91994 0.56302 0.0
H836 H 0.14874 0.00109 0.59024 0.0
H837 H 0.14149 0.04439 0.58682 0.0
H838 H 0.19685 0.0499 0.53426 0.0
H839 H 0.20422 0.00655 0.53716 0.0
C840 C 0.25604 0.92123 0.6188 0.0
C841 C 0.27663 0.92182 0.60455 0.0
C842 C 0.23399 0.92796 0.60942 0.0
C843 C 0.23228 0.93568 0.58578 0.0
C844 C 0.25285 0.9367 0.5716 0.0
C845 C 0.27488 0.92952 0.58085 0.0
C846 C 0.20881 0.9425 0.576 0.0
C847 C 0.20413 0.96672 0.57194 0.0
C848 C 0.19048 0.92544 0.57277 0.0
C849 C 0.19467 0.89957 0.57661 0.0
C850 C 0.21288 0.88759 0.5642 0.0
C851 C 0.2169 0.86328 0.5681 0.0
C852 C 0.20272 0.85069 0.58426 0.0
C853 C 0.18444 0.8624 0.5965 0.0
C854 C 0.18037 0.88673 0.59269 0.0
C855 C 0.11094 0.98639 0.52962 0.0
C856 C 0.0913 0.97798 0.54275 0.0
C857 C 0.13412 0.97937 0.53557 0.0
C858 C 0.13814 0.96435 0.55517 0.0
C859 C 0.11849 0.95582 0.56816 0.0
C860 C 0.0953 0.96244 0.56194 0.0
C861 C 0.16274 0.95742 0.5622 0.0
C862 C 0.16771 0.9331 0.56582 0.0
C863 C 0.18121 0.97448 0.56547 0.0
C864 C 0.17684 0.00055 0.56373 0.0
C865 C 0.15924 0.01151 0.57783 0.0
C866 C 0.15513 0.03606 0.576 0.0
C867 C 0.16865 0.04988 0.56028 0.0
C868 C 0.18636 0.03917 0.5464 0.0
C869 C 0.19052 0.01462 0.54814 0.0
H870 H 0.16545 0.06888 0.55889 0.0
H871 H 0.20586 0.83186 0.58725 0.0
H872 H 0.73327 0.42334 0.96722 0.0
H873 H 0.772 0.44029 0.97806 0.0
H874 H 0.78903 0.44966 0.90384 0.0
H875 H 0.75089 0.43163 0.89283 0.0
H876 H 0.82586 0.43193 0.92602 0.0
H877 H 0.77291 0.4972 0.94 0.0
H878 H 0.7378 0.51792 0.95651 0.0
H879 H 0.76311 0.50483 0.02737 0.0
H880 H 0.79823 0.48372 0.01128 0.0
H881 H 0.92476 0.51005 0.94263 0.0
H882 H 0.88463 0.49604 0.9324 0.0
H883 H 0.8736 0.47342 0.00483 0.0
H884 H 0.91384 0.48712 0.01523 0.0
H885 H 0.83391 0.49873 0.98356 0.0
H886 H 0.88698 0.43268 0.96794 0.0
H887 H 0.92234 0.41352 0.9501 0.0
H888 H 0.89647 0.43039 0.88024 0.0
H889 H 0.86111 0.44998 0.8977 0.0
C890 C 0.74533 0.42881 0.95318 0.0
C891 C 0.73891 0.42614 0.92914 0.0
C892 C 0.76736 0.43878 0.95942 0.0
C893 C 0.78332 0.44656 0.94177 0.0
C894 C 0.77698 0.44389 0.91777 0.0
C895 C 0.75504 0.43378 0.91152 0.0
C896 C 0.80689 0.45689 0.94827 0.0
C897 C 0.82754 0.44677 0.93834 0.0
C898 C 0.80919 0.476 0.96467 0.0
C899 C 0.78808 0.48866 0.97443 0.0
C900 C 0.77089 0.49856 0.9591 0.0
C901 C 0.75101 0.51041 0.96839 0.0
C902 C 0.74819 0.51263 0.99297 0.0
C903 C 0.7653 0.50306 0.00833 0.0
C904 C 0.78521 0.49117 0.99913 0.0
C905 C 0.91375 0.50227 0.95645 0.0
C906 C 0.92254 0.49959 0.97973 0.0
C907 C 0.89087 0.49424 0.95055 0.0
C908 C 0.87628 0.4836 0.96784 0.0
C909 C 0.88464 0.4816 0.99125 0.0
C910 C 0.90766 0.48933 0.99712 0.0
C911 C 0.85264 0.47376 0.96127 0.0
C912 C 0.83208 0.48394 0.97121 0.0
C913 C 0.85037 0.45491 0.94467 0.0
C914 C 0.87154 0.44301 0.93414 0.0
C915 C 0.88894 0.43249 0.94878 0.0
C916 C 0.90896 0.42152 0.93874 0.0
C917 C 0.91168 0.4208 0.91405 0.0
C918 C 0.89436 0.43099 0.89936 0.0
C919 C 0.87432 0.44202 0.90932 0.0
H920 H 0.92719 0.4123 0.90631 0.0
H921 H 0.73279 0.52182 0.00012 0.0
H922 H 0.76046 0.59838 0.41064 0.0
H923 H 0.7217 0.58514 0.42575 0.0
H924 H 0.75445 0.52115 0.45348 0.0
H925 H 0.79303 0.53388 0.43699 0.0
H926 H 0.71468 0.50937 0.4363 0.0
H927 H 0.73765 0.57086 0.4898 0.0
H928 H 0.75194 0.61065 0.50224 0.0
H929 H 0.69027 0.64313 0.47054 0.0
H930 H 0.67577 0.60356 0.4576 0.0
H931 H 0.60047 0.52604 0.51681 0.0
H932 H 0.64231 0.53502 0.50794 0.0
H933 H 0.63139 0.51311 0.43514 0.0
H934 H 0.58993 0.5033 0.44407 0.0
H935 H 0.66269 0.56541 0.48087 0.0
H936 H 0.68064 0.49023 0.41105 0.0
H937 H 0.66865 0.44845 0.40371 0.0
H938 H 0.6526 0.43952 0.47782 0.0
H939 H 0.66482 0.48112 0.48568 0.0
C940 C 0.75927 0.58149 0.41996 0.0
C941 C 0.77956 0.56715 0.42283 0.0
C942 C 0.7372 0.574 0.42876 0.0
C943 C 0.73517 0.55238 0.4413 0.0
C944 C 0.75552 0.53793 0.44396 0.0
C945 C 0.77752 0.54518 0.43462 0.0
C946 C 0.71172 0.54474 0.45118 0.0
C947 C 0.70338 0.52161 0.44614 0.0
C948 C 0.69717 0.5604 0.46468 0.0
C949 C 0.70571 0.58424 0.47259 0.0
C950 C 0.7272 0.5865 0.48536 0.0
C951 C 0.73533 0.60901 0.49251 0.0
C952 C 0.72204 0.6294 0.48715 0.0
C953 C 0.70055 0.62732 0.47467 0.0
C954 C 0.69235 0.60485 0.46745 0.0
C955 C 0.60703 0.52304 0.49894 0.0
C956 C 0.5919 0.51383 0.48118 0.0
C957 C 0.63094 0.5282 0.49389 0.0
C958 C 0.64015 0.52441 0.47096 0.0
C959 C 0.62493 0.51561 0.45312 0.0
C960 C 0.60115 0.51014 0.45823 0.0
C961 C 0.66544 0.53029 0.4654 0.0
C962 C 0.6741 0.5531 0.47123 0.0
C963 C 0.68063 0.51403 0.45345 0.0
C964 C 0.67346 0.48888 0.4489 0.0
C965 C 0.67466 0.47932 0.4258 0.0
C966 C 0.6678 0.45567 0.42155 0.0
C967 C 0.6598 0.44136 0.44028 0.0
C968 C 0.65872 0.45065 0.46332 0.0
C969 C 0.66558 0.47427 0.46767 0.0
H970 H 0.65449 0.42307 0.43694 0.0
H971 H 0.72837 0.64682 0.49269 0.0
H972 H 0.05856 0.24702 0.10485 0.0
H973 H 0.04176 0.28484 0.09113 0.0
H974 H 0.11214 0.30888 0.07092 0.0
H975 H 0.1292 0.27168 0.08564 0.0
H976 H 0.0892 0.34345 0.09261 0.0
H977 H 0.07078 0.28803 0.0297 0.0
H978 H 0.05384 0.25131 0.0122 0.0
H979 H 0.98375 0.27201 0.03526 0.0
H980 H 0.00033 0.30872 0.05318 0.0
H981 H 0.06427 0.43483 0.01067 0.0
H982 H 0.07531 0.39611 0.02716 0.0
H983 H 0.00453 0.38793 0.05626 0.0
H984 H 0.99326 0.42697 0.04 0.0
H985 H 0.02432 0.34576 0.0325 0.0
H986 H 0.04349 0.40286 0.09327 0.0
H987 H 0.06121 0.43999 0.10902 0.0
H988 H 0.13101 0.41613 0.08822 0.0
H989 H 0.11364 0.37898 0.07201 0.0
C990 C 0.0705 0.26046 0.09772 0.0
C991 C 0.09524 0.25625 0.09626 0.0
C992 C 0.06083 0.28197 0.08964 0.0
C993 C 0.07565 0.29959 0.0797 0.0
C994 C 0.10034 0.29552 0.07844 0.0
C995 C 0.11004 0.27412 0.08664 0.0
C996 C 0.06559 0.32237 0.07071 0.0
C997 C 0.07516 0.3439 0.07932 0.0
C998 C 0.04684 0.32302 0.0538 0.0
C999 C 0.03684 0.30098 0.04302 0.0
C1000 C 0.05178 0.28465 0.03121 0.0
C1001 C 0.04224 0.26386 0.02119 0.0
C1002 C 0.01774 0.25929 0.02268 0.0
C1003 C 0.00273 0.27555 0.03415 0.0
C1004 C 0.01218 0.29635 0.04424 0.0
C1005 C 0.05093 0.42478 0.0204 0.0
C1006 C 0.02789 0.43405 0.02411 0.0
C1007 C 0.05732 0.40268 0.02986 0.0
C1008 C 0.04078 0.38933 0.04305 0.0
C1009 C 0.01752 0.39806 0.04614 0.0
C1010 C 0.01117 0.42036 0.03691 0.0
C1011 C 0.04825 0.36662 0.05414 0.0
C1012 C 0.0382 0.34519 0.04596 0.0
C1013 C 0.06668 0.36601 0.0713 0.0
C1014 C 0.07723 0.38823 0.08124 0.0
C1015 C 0.06259 0.40561 0.09188 0.0
C1016 C 0.07258 0.42665 0.10092 0.0
C1017 C 0.09721 0.43044 0.09957 0.0
C1018 C 0.11192 0.41317 0.08923 0.0
C1019 C 0.10202 0.39211 0.08014 0.0
H1020 H 0.10491 0.44675 0.10658 0.0
H1021 H 0.01039 0.24319 0.0149 0.0
H1022 H 0.53914 0.28845 0.93439 0.0
H1023 H 0.52675 0.24958 0.95031 0.0
H1024 H 0.59909 0.22398 0.94406 0.0
H1025 H 0.61154 0.26266 0.92802 0.0
H1026 H 0.56588 0.19247 0.92545 0.0
H1027 H 0.57867 0.23779 0.99703 0.0
H1028 H 0.57315 0.27188 0.02426 0.0
H1029 H 0.49811 0.25654 0.02867 0.0
H1030 H 0.50313 0.22254 0.00118 0.0
H1031 H 0.54715 0.10104 0.02542 0.0
H1032 H 0.55681 0.14148 0.01226 0.0
H1033 H 0.50762 0.13406 0.9537 0.0
H1034 H 0.49779 0.09352 0.96672 0.0
H1035 H 0.52941 0.1822 0.00523 0.0
H1036 H 0.53486 0.1606 0.90526 0.0
H1037 H 0.5426 0.12617 0.87894 0.0
H1038 H 0.58552 0.0936 0.93321 0.0
H1039 H 0.57831 0.12798 0.95969 0.0
C1040 C 0.55237 0.27451 0.93644 0.0
C1041 C 0.57631 0.27857 0.93002 0.0
C1042 C 0.54531 0.2524 0.94563 0.0
C1043 C 0.56203 0.23397 0.9484 0.0
C1044 C 0.58593 0.238 0.94205 0.0
C1045 C 0.59304 0.26014 0.93308 0.0
C1046 C 0.5546 0.21028 0.9575 0.0
C1047 C 0.55783 0.19024 0.94286 0.0
C1048 C 0.54428 0.20738 0.98028 0.0
C1049 C 0.54123 0.22778 0.99685 0.0
C1050 C 0.56095 0.24181 0.00364 0.0
C1051 C 0.55792 0.2611 0.01915 0.0
C1052 C 0.53528 0.26642 0.02814 0.0
C1053 C 0.51563 0.25242 0.02167 0.0
C1054 C 0.51856 0.23313 0.00614 0.0
C1055 C 0.53825 0.10802 0.00982 0.0
C1056 C 0.52181 0.09395 0.99702 0.0
C1057 C 0.54372 0.13119 0.0024 0.0
C1058 C 0.53306 0.14067 0.98193 0.0
C1059 C 0.51617 0.12697 0.96946 0.0
C1060 C 0.51055 0.10383 0.97696 0.0
C1061 C 0.5405 0.16446 0.97308 0.0
C1062 C 0.53726 0.18449 0.98774 0.0
C1063 C 0.55106 0.16735 0.95041 0.0
C1064 C 0.55581 0.14674 0.93452 0.0
C1065 C 0.54601 0.14612 0.91153 0.0
C1066 C 0.5503 0.12661 0.89659 0.0
C1067 C 0.56447 0.10767 0.90443 0.0
C1068 C 0.57446 0.10824 0.92719 0.0
C1069 C 0.57026 0.12772 0.94218 0.0
H1070 H 0.56775 0.09257 0.89285 0.0
H1071 H 0.53297 0.28135 0.04016 0.0
H1072 H 0.92201 0.72169 0.47508 0.0
H1073 H 0.93816 0.7597 0.48947 0.0
H1074 H 0.94238 0.7855 0.41731 0.0
H1075 H 0.92643 0.7475 0.40284 0.0
H1076 H 0.98165 0.79713 0.44112 0.0
H1077 H 0.8971 0.80256 0.45486 0.0
H1078 H 0.85806 0.78966 0.47063 0.0
H1079 H 0.88543 0.79351 0.54185 0.0
H1080 H 0.92475 0.80613 0.52648 0.0
H1081 H 0.98454 0.92243 0.45967 0.0
H1082 H 0.97369 0.88155 0.44894 0.0
H1083 H 0.97938 0.86036 0.52241 0.0
H1084 H 0.99036 0.90128 0.53338 0.0
H1085 H 0.93709 0.84524 0.50046 0.0
H1086 H 0.02126 0.84298 0.4858 0.0
H1087 H 0.05951 0.85694 0.46907 0.0
H1088 H 0.03184 0.84832 0.39837 0.0
H1089 H 0.99329 0.83462 0.41468 0.0
C1090 C 0.92628 0.73552 0.46232 0.0
C1091 C 0.92288 0.73167 0.43784 0.0
C1092 C 0.93553 0.75721 0.47054 0.0
C1093 C 0.94123 0.77554 0.45448 0.0
C1094 C 0.93816 0.77159 0.43002 0.0
C1095 C 0.92907 0.74987 0.42178 0.0
C1096 C 0.95017 0.79896 0.46309 0.0
C1097 C 0.97179 0.80775 0.45393 0.0
C1098 C 0.93758 0.81257 0.48021 0.0
C1099 C 0.91394 0.80502 0.4895 0.0
C1100 C 0.89485 0.80046 0.47387 0.0
C1101 C 0.87266 0.79324 0.48274 0.0
C1102 C 0.86929 0.79069 0.50722 0.0
C1103 C 0.88808 0.79544 0.52289 0.0
C1104 C 0.91032 0.80264 0.51411 0.0
C1105 C 0.98363 0.90908 0.47357 0.0
C1106 C 0.98831 0.91513 0.4974 0.0
C1107 C 0.97752 0.88571 0.46737 0.0
C1108 C 0.97589 0.86795 0.48487 0.0
C1109 C 0.98061 0.87385 0.50866 0.0
C1110 C 0.98696 0.8972 0.51486 0.0
C1111 C 0.96839 0.84345 0.47831 0.0
C1112 C 0.94704 0.8345 0.48783 0.0
C1113 C 0.98111 0.8298 0.46137 0.0
C1114 C 0.0043 0.83797 0.45148 0.0
C1115 C 0.02326 0.84425 0.46669 0.0
C1116 C 0.04501 0.85208 0.45728 0.0
C1117 C 0.04809 0.85357 0.43267 0.0
C1118 C 0.02943 0.84718 0.41742 0.0
C1119 C 0.00763 0.83935 0.42675 0.0
H1120 H 0.06494 0.85963 0.42542 0.0
H1121 H 0.85209 0.7851 0.51405 0.0
H1122 H 0.3924 0.75203 0.57306 0.0
H1123 H 0.4077 0.71381 0.55927 0.0
H1124 H 0.47869 0.73392 0.58155 0.0
H1125 H 0.4637 0.77295 0.59425 0.0
H1126 H 0.48054 0.71178 0.54001 0.0
H1127 H 0.44441 0.69543 0.61487 0.0
H1128 H 0.41295 0.6958 0.64553 0.0
H1129 H 0.36645 0.65606 0.59935 0.0
H1130 H 0.39752 0.65575 0.56826 0.0
H1131 H 0.52104 0.58933 0.53581 0.0
H1132 H 0.51068 0.62968 0.54913 0.0
H1133 H 0.44012 0.62143 0.51946 0.0
H1134 H 0.45028 0.58127 0.50593 0.0
H1135 H 0.44079 0.63734 0.56709 0.0
H1136 H 0.47796 0.65565 0.49168 0.0
H1137 H 0.51069 0.65484 0.46236 0.0
H1138 H 0.55708 0.69014 0.51209 0.0
H1139 H 0.52469 0.69086 0.54184 0.0
C1140 C 0.41135 0.74858 0.57469 0.0
C1141 C 0.42681 0.76565 0.58478 0.0
C1142 C 0.42002 0.72653 0.56708 0.0
C1143 C 0.44427 0.72081 0.56978 0.0
C1144 C 0.45988 0.7379 0.57944 0.0
C1145 C 0.45124 0.76011 0.58689 0.0
C1146 C 0.45313 0.69692 0.56252 0.0
C1147 C 0.4721 0.69549 0.54624 0.0
C1148 C 0.44199 0.67564 0.57048 0.0
C1149 C 0.42324 0.67575 0.58915 0.0
C1150 C 0.42741 0.68693 0.61118 0.0
C1151 C 0.40966 0.6871 0.62865 0.0
C1152 C 0.3877 0.67601 0.62437 0.0
C1153 C 0.38347 0.66467 0.60263 0.0
C1154 C 0.40115 0.66446 0.58508 0.0
C1155 C 0.50338 0.59617 0.53195 0.0
C1156 C 0.48647 0.58206 0.51983 0.0
C1157 C 0.49753 0.61923 0.53953 0.0
C1158 C 0.47465 0.62847 0.53524 0.0
C1159 C 0.45786 0.61456 0.52294 0.0
C1160 C 0.46375 0.59165 0.51514 0.0
C1161 C 0.4678 0.65231 0.5443 0.0
C1162 C 0.44927 0.65366 0.561 0.0
C1163 C 0.47954 0.67343 0.53697 0.0
C1164 C 0.49899 0.67306 0.51908 0.0
C1165 C 0.4952 0.66304 0.49644 0.0
C1166 C 0.51368 0.66264 0.47973 0.0
C1167 C 0.53597 0.67236 0.48538 0.0
C1168 C 0.53981 0.68257 0.50775 0.0
C1169 C 0.5214 0.683 0.52453 0.0
H1170 H 0.55025 0.67204 0.47242 0.0
H1171 H 0.37398 0.67615 0.63793 0.0
H1172 H 0.90134 0.97632 0.79316 0.0
H1173 H 0.91273 0.98269 0.75171 0.0
H1174 H 0.98713 0.97812 0.77103 0.0
H1175 H 0.97584 0.97199 0.81274 0.0
H1176 H 0.97745 0.01411 0.73717 0.0
H1177 H 0.96275 0.93064 0.74991 0.0
H1178 H 0.93945 0.89582 0.7635 0.0
H1179 H 0.88318 0.91365 0.71481 0.0
H1180 H 0.90599 0.94882 0.70119 0.0
H1181 H 0.99828 0.95636 0.61279 0.0
H1182 H 0.99049 0.95308 0.65542 0.0
H1183 H 0.95627 0.02203 0.65475 0.0
H1184 H 0.96409 0.0256 0.61218 0.0
H1185 H 0.94901 0.95259 0.68009 0.0
H1186 H 0.96913 0.05035 0.70737 0.0
H1187 H 0.99449 0.08399 0.69439 0.0
H1188 H 0.0445 0.03481 0.6636 0.0
H1189 H 0.01963 0.00089 0.67668 0.0
C1190 C 0.92014 0.97722 0.7887 0.0
C1191 C 0.93771 0.9736 0.80618 0.0
C1192 C 0.9266 0.98068 0.765 0.0
C1193 C 0.95074 0.98061 0.75834 0.0
C1194 C 0.9684 0.97818 0.77586 0.0
C1195 C 0.96193 0.97454 0.7996 0.0
C1196 C 0.9574 0.98154 0.7329 0.0
C1197 C 0.97123 0.00071 0.72465 0.0
C1198 C 0.94964 0.96376 0.71673 0.0
C1199 C 0.93599 0.94248 0.72469 0.0
C1200 C 0.94533 0.92724 0.74223 0.0
C1201 C 0.93222 0.90743 0.74992 0.0
C1202 C 0.90982 0.90255 0.74006 0.0
C1203 C 0.90052 0.91746 0.72244 0.0
C1204 C 0.91353 0.93733 0.71472 0.0
C1205 C 0.98906 0.97083 0.62167 0.0
C1206 C 0.98187 0.99128 0.60904 0.0
C1207 C 0.9846 0.9689 0.64603 0.0
C1208 C 0.97305 0.98742 0.65827 0.0
C1209 C 0.96553 0.00769 0.64569 0.0
C1210 C 0.96991 0.00962 0.62133 0.0
C1211 C 0.96867 0.98546 0.68418 0.0
C1212 C 0.95523 0.96604 0.69255 0.0
C1213 C 0.9771 0.00284 0.70047 0.0
C1214 C 0.99237 0.0231 0.69281 0.0
C1215 C 0.98559 0.04672 0.69792 0.0
C1216 C -0.00013 0.06583 0.69053 0.0
C1217 C 0.02105 0.06154 0.67811 0.0
C1218 C 0.02804 0.03812 0.67313 0.0
C1219 C 0.01384 0.01894 0.6805 0.0
H1220 H 0.03207 0.07636 0.67239 0.0
H1221 H 0.8997 0.88721 0.74604 0.0
H1222 H 0.55606 0.02531 0.31221 0.0
H1223 H 0.54746 0.01443 0.27082 0.0
H1224 H 0.55074 0.08886 0.25097 0.0
H1225 H 0.55835 0.09973 0.29231 0.0
H1226 H 0.51598 0.06961 0.2287 0.0
H1227 H 0.59791 0.04795 0.24128 0.0
H1228 H 0.63157 0.02771 0.26103 0.0
H1229 H 0.6004 0.95943 0.245 0.0
H1230 H 0.56636 0.97929 0.22543 0.0
H1231 H 0.54173 0.05611 0.10466 0.0
H1232 H 0.54808 0.06335 0.14722 0.0
H1233 H 0.51829 0.9942 0.16341 0.0
H1234 H 0.51129 0.98703 0.121 0.0
H1235 H 0.56518 0.00881 0.18725 0.0
H1236 H 0.4833 0.03307 0.17328 0.0
H1237 H 0.45184 0.0553 0.1521 0.0
H1238 H 0.4865 0.12156 0.1694 0.0
H1239 H 0.51839 0.09967 0.19037 0.0
C1240 C 0.55478 0.03927 0.29895 0.0
C1241 C 0.55775 0.06333 0.30538 0.0
C1242 C 0.55001 0.03307 0.27533 0.0
C1243 C 0.54881 0.0508 0.25767 0.0
C1244 C 0.5515 0.07485 0.26423 0.0
C1245 C 0.55583 0.08106 0.28785 0.0
C1246 C 0.54495 0.04449 0.2323 0.0
C1247 C 0.52694 0.05647 0.21967 0.0
C1248 C 0.55898 0.0271 0.22045 0.0
C1249 C 0.57946 0.01511 0.23213 0.0
C1250 C 0.59814 0.02862 0.24212 0.0
C1251 C 0.61731 0.01722 0.25326 0.0
C1252 C 0.61809 0.9923 0.25433 0.0
C1253 C 0.59974 0.97873 0.2442 0.0
C1254 C 0.58052 0.99005 0.23307 0.0
C1255 C 0.53666 0.04241 0.11728 0.0
C1256 C 0.52592 0.02106 0.10956 0.0
C1257 C 0.54026 0.04658 0.14152 0.0
C1258 C 0.53359 0.0293 0.1583 0.0
C1259 C 0.52353 0.0077 0.15064 0.0
C1260 C 0.51946 0.00371 0.12647 0.0
C1261 C 0.5365 0.0341 0.18393 0.0
C1262 C 0.55427 0.02185 0.19649 0.0
C1263 C 0.52259 0.05153 0.19563 0.0
C1264 C 0.50336 0.06471 0.18316 0.0
C1265 C 0.48434 0.05236 0.17236 0.0
C1266 C 0.4664 0.0649 0.16044 0.0
C1267 C 0.46721 0.08982 0.15935 0.0
C1268 C 0.48592 0.10226 0.17023 0.0
C1269 C 0.50392 0.08979 0.18215 0.0
H1270 H 0.4533 0.0995 0.15012 0.0
H1271 H 0.63294 0.9835 0.26296 0.0
H1272 H 0.46969 0.54804 0.21032 0.0
H1273 H 0.48093 0.53655 0.25092 0.0
H1274 H 0.40685 0.53837 0.27183 0.0
H1275 H 0.39551 0.54971 0.23135 0.0
H1276 H 0.4385 0.56505 0.30159 0.0
H1277 H 0.43133 0.48668 0.26624 0.0
H1278 H 0.44024 0.45562 0.23644 0.0
H1279 H 0.51454 0.45836 0.25522 0.0
H1280 H 0.50612 0.48971 0.28491 0.0
H1281 H 0.44512 0.51783 0.417 0.0
H1282 H 0.43507 0.52512 0.37544 0.0
H1283 H 0.50712 0.50727 0.35483 0.0
H1284 H 0.51704 0.49902 0.39637 0.0
H1285 H 0.4778 0.48901 0.32415 0.0
H1286 H 0.48701 0.56642 0.35851 0.0
H1287 H 0.48043 0.59882 0.3875 0.0
H1288 H 0.40587 0.60017 0.36965 0.0
H1289 H 0.41194 0.56753 0.34078 0.0
C1290 C 0.45583 0.54578 0.22357 0.0
C1291 C 0.43174 0.54967 0.21772 0.0
C1292 C 0.46225 0.53916 0.24666 0.0
C1293 C 0.44469 0.53659 0.26428 0.0
C1294 C 0.42062 0.54023 0.25843 0.0
C1295 C 0.41418 0.54653 0.2353 0.0
C1296 C 0.45144 0.5311 0.28911 0.0
C1297 C 0.44682 0.5483 0.30663 0.0
C1298 C 0.46306 0.50963 0.2954 0.0
C1299 C 0.46812 0.49073 0.27762 0.0
C1300 C 0.4496 0.48082 0.26386 0.0
C1301 C 0.45456 0.46313 0.24702 0.0
C1302 C 0.47795 0.45506 0.24389 0.0
C1303 C 0.49643 0.46464 0.25764 0.0
C1304 C 0.49157 0.48236 0.27449 0.0
C1305 C 0.45884 0.51545 0.40363 0.0
C1306 C 0.48193 0.50801 0.41 0.0
C1307 C 0.45309 0.51972 0.37986 0.0
C1308 C 0.47047 0.51723 0.36201 0.0
C1309 C 0.49343 0.50939 0.36828 0.0
C1310 C 0.49909 0.50474 0.39203 0.0
C1311 C 0.46465 0.52288 0.33686 0.0
C1312 C 0.46952 0.50579 0.31921 0.0
C1313 C 0.45362 0.54468 0.33035 0.0
C1314 C 0.4499 0.56437 0.34764 0.0
C1315 C 0.46918 0.57351 0.36089 0.0
C1316 C 0.46554 0.59193 0.37728 0.0
C1317 C 0.44273 0.60151 0.38046 0.0
C1318 C 0.42352 0.59271 0.3672 0.0
C1319 C 0.42705 0.57427 0.3508 0.0
H1320 H 0.43996 0.61577 0.39316 0.0
H1321 H 0.48176 0.44136 0.23085 0.0
H1322 H 0.05934 0.4073 0.73567 0.0
H1323 H 0.05033 0.42282 0.77518 0.0
H1324 H 0.04903 0.49458 0.74718 0.0
H1325 H 0.0589 0.47903 0.70756 0.0
H1326 H 0.07162 0.49496 0.78709 0.0
H1327 H 0.9967 0.46375 0.76299 0.0
H1328 H 0.96802 0.43448 0.74682 0.0
H1329 H 0.984 0.3863 0.80397 0.0
H1330 H 0.01306 0.41514 0.82031 0.0
H1331 H 0.01336 0.53554 0.89567 0.0
H1332 H 0.01965 0.52514 0.85374 0.0
H1333 H 0.04811 0.45681 0.87461 0.0
H1334 H 0.0425 0.46724 0.91652 0.0
H1335 H 0.00862 0.4583 0.83733 0.0
H1336 H 0.08642 0.49114 0.85863 0.0
H1337 H 0.11289 0.52274 0.87421 0.0
H1338 H 0.08732 0.57122 0.8209 0.0
H1339 H 0.06041 0.53997 0.80522 0.0
C1340 C 0.05687 0.42637 0.7379 0.0
C1341 C 0.05957 0.44197 0.71856 0.0
C1342 C 0.05166 0.43523 0.76048 0.0
C1343 C 0.04848 0.45985 0.76412 0.0
C1344 C 0.05129 0.47551 0.7448 0.0
C1345 C 0.05689 0.46665 0.72221 0.0
C1346 C 0.04301 0.4691 0.78828 0.0
C1347 C 0.05754 0.4872 0.79787 0.0
C1348 C 0.0247 0.45898 0.8025 0.0
C1349 C 0.00721 0.44155 0.79277 0.0
C1350 C 0.99423 0.44684 0.77202 0.0
C1351 C 0.97789 0.43033 0.76283 0.0
C1352 C 0.97423 0.40852 0.77433 0.0
C1353 C 0.98687 0.4032 0.79507 0.0
C1354 C 0.00326 0.41963 0.80432 0.0
C1355 C 0.02105 0.51835 0.89131 0.0
C1356 C 0.02748 0.5022 0.90936 0.0
C1357 C 0.02465 0.51248 0.86741 0.0
C1358 C 0.0343 0.49024 0.86122 0.0
C1359 C 0.04062 0.47406 0.87914 0.0
C1360 C 0.03751 0.48009 0.90303 0.0
C1361 C 0.03753 0.48359 0.83602 0.0
C1362 C 0.0225 0.46609 0.82632 0.0
C1363 C 0.05499 0.49459 0.82158 0.0
C1364 C 0.07119 0.51333 0.83096 0.0
C1365 C 0.08625 0.50862 0.8504 0.0
C1366 C 0.10138 0.52644 0.85921 0.0
C1367 C 0.10173 0.549 0.8486 0.0
C1368 C 0.087 0.55376 0.82912 0.0
C1369 C 0.07181 0.53599 0.82026 0.0
H1370 H 0.11346 0.56278 0.85544 0.0
H1371 H 0.96156 0.39577 0.76719 0.0
H1372 H 0.80092 0.986 0.96856 0.0
H1373 H 0.75977 0.9978 0.97821 0.0
H1374 H 0.73695 0.92452 0.9711 0.0
H1375 H 0.77788 0.91264 0.96163 0.0
H1376 H 0.70869 0.95842 0.94567 0.0
H1377 H 0.74228 0.94553 0.02403 0.0
H1378 H 0.7715 0.95235 0.05615 0.0
H1379 H 0.75301 0.02674 0.0579 0.0
H1380 H 0.7239 0.0204 0.02553 0.0
H1381 H 0.59344 0.95469 0.99353 0.0
H1382 H 0.63564 0.94831 0.98508 0.0
H1383 H 0.65146 0.02033 0.0076 0.0
H1384 H 0.60922 0.02665 0.0168 0.0
H1385 H 0.68422 0.99115 0.02398 0.0
H1386 H 0.64951 0.00513 0.9481 0.0
H1387 H 0.62074 0.00015 0.91526 0.0
H1388 H 0.64192 0.92692 0.90714 0.0
H1389 H 0.67059 0.93135 0.94017 0.0
C1390 C 0.78708 0.97246 0.96916 0.0
C1391 C 0.79253 0.9484 0.9645 0.0
C1392 C 0.76368 0.97918 0.97472 0.0
C1393 C 0.74542 0.96199 0.97539 0.0
C1394 C 0.75084 0.93801 0.97067 0.0
C1395 C 0.77422 0.93124 0.96545 0.0
C1396 C 0.72049 0.96887 0.98058 0.0
C1397 C 0.70324 0.96539 0.96284 0.0
C1398 C 0.71368 0.97875 0.00269 0.0
C1399 C 0.73113 0.98255 0.02217 0.0
C1400 C 0.74461 0.96338 0.03111 0.0
C1401 C 0.76112 0.96715 0.04939 0.0
C1402 C 0.76417 0.98998 0.059 0.0
C1403 C 0.75066 0.00907 0.0504 0.0
C1404 C 0.73415 0.0054 0.0321 0.0
C1405 C 0.60586 0.9692 0.99669 0.0
C1406 C 0.59793 0.99123 0.0057 0.0
C1407 C 0.63 0.96556 0.99175 0.0
C1408 C 0.64667 0.984 0.99526 0.0
C1409 C 0.6389 0.00588 0.00466 0.0
C1410 C 0.61475 0.00947 0.00987 0.0
C1411 C 0.67218 0.98025 0.98919 0.0
C1412 C 0.68959 0.98439 0.00671 0.0
C1413 C 0.67923 0.97128 0.9667 0.0
C1414 C 0.66207 0.96853 0.94675 0.0
C1415 C 0.64791 0.98791 0.93943 0.0
C1416 C 0.63164 0.98519 0.92076 0.0
C1417 C 0.62947 0.96322 0.90916 0.0
C1418 C 0.64361 0.94392 0.91616 0.0
C1419 C 0.65989 0.94654 0.93484 0.0
H1420 H 0.61686 0.96115 0.89471 0.0
H1421 H 0.77695 0.99286 0.07317 0.0
H1422 H 0.73534 0.08716 0.44169 0.0
H1423 H 0.77643 0.07843 0.45309 0.0
H1424 H 0.75819 0.00398 0.46168 0.0
H1425 H 0.71695 0.01265 0.44976 0.0
H1426 H 0.79527 0.06305 0.49193 0.0
H1427 H 0.80701 0.9697 0.44887 0.0
H1428 H 0.7918 0.94673 0.41456 0.0
H1429 H 0.77654 0.01199 0.37756 0.0
H1430 H 0.79195 0.03532 0.41148 0.0
H1431 H 0.90467 0.01678 0.53377 0.0
H1432 H 0.86258 0.02144 0.52324 0.0
H1433 H 0.88174 0.02488 0.44894 0.0
H1434 H 0.92366 0.01871 0.45938 0.0
H1435 H 0.84377 0.00077 0.45197 0.0
H1436 H 0.86801 0.07627 0.485 0.0
H1437 H 0.885 0.10328 0.51531 0.0
H1438 H 0.83125 0.08116 0.56515 0.0
H1439 H 0.81412 0.05381 0.5352 0.0
C1440 C 0.74006 0.06894 0.44613 0.0
C1441 C 0.72296 0.05058 0.44494 0.0
C1442 C 0.76355 0.06397 0.45262 0.0
C1443 C 0.77046 0.04055 0.45814 0.0
C1444 C 0.75337 0.02214 0.45714 0.0
C1445 C 0.72984 0.02709 0.45038 0.0
C1446 C 0.79557 0.03565 0.465 0.0
C1447 C 0.80586 0.04939 0.48322 0.0
C1448 C 0.80953 0.0181 0.45341 0.0
C1449 C 0.80036 0.00423 0.43285 0.0
C1450 C 0.80045 0.97913 0.43338 0.0
C1451 C 0.7918 0.96605 0.41401 0.0
C1452 C 0.78312 0.9779 0.39393 0.0
C1453 C 0.78316 0.00284 0.39316 0.0
C1454 C 0.79183 0.01599 0.41247 0.0
C1455 C 0.89984 0.01854 0.5152 0.0
C1456 C 0.91738 0.01756 0.49739 0.0
C1457 C 0.8758 0.02129 0.50919 0.0
C1458 C 0.86895 0.024 0.4853 0.0
C1459 C 0.88651 0.02281 0.46749 0.0
C1460 C 0.91047 0.0194 0.47346 0.0
C1461 C 0.84359 0.02833 0.47879 0.0
C1462 C 0.83318 0.01438 0.46075 0.0
C1463 C 0.82975 0.0463 0.48996 0.0
C1464 C 0.83993 0.06284 0.50794 0.0
C1465 C 0.85991 0.07707 0.50247 0.0
C1466 C 0.86955 0.09245 0.51958 0.0
C1467 C 0.85925 0.09389 0.54216 0.0
C1468 C 0.83924 0.08 0.54766 0.0
C1469 C 0.82954 0.06458 0.53062 0.0
H1470 H 0.86675 0.10579 0.55539 0.0
H1471 H 0.77642 0.96774 0.37896 0.0
H1472 H 0.30311 0.54549 0.04816 0.0
H1473 H 0.2621 0.53459 0.03683 0.0
H1474 H 0.24071 0.60822 0.04385 0.0
H1475 H 0.28157 0.61923 0.0549 0.0
H1476 H 0.21169 0.5738 0.0691 0.0
H1477 H 0.24549 0.5883 0.99126 0.0
H1478 H 0.27476 0.58228 0.95906 0.0
H1479 H 0.25605 0.50795 0.95547 0.0
H1480 H 0.22689 0.51346 0.98791 0.0
H1481 H 0.09562 0.57472 0.02296 0.0
H1482 H 0.1378 0.58272 0.03031 0.0
H1483 H 0.15558 0.51162 0.00657 0.0
H1484 H 0.11335 0.5037 0.99844 0.0
H1485 H 0.18734 0.54206 0.99031 0.0
H1486 H 0.15359 0.52594 0.06629 0.0
H1487 H 0.12497 0.52966 0.09939 0.0
H1488 H 0.14439 0.60335 0.10833 0.0
H1489 H 0.17291 0.60017 0.07505 0.0
C1490 C 0.28965 0.55932 0.04708 0.0
C1491 C 0.29546 0.5832 0.05228 0.0
C1492 C 0.26633 0.55311 0.04057 0.0
C1493 C 0.24849 0.57064 0.0395 0.0
C1494 C 0.25429 0.59448 0.04456 0.0
C1495 C 0.27763 0.60075 0.0507 0.0
C1496 C 0.2235 0.5641 0.034 0.0
C1497 C 0.20626 0.56711 0.05181 0.0
C1498 C 0.21673 0.55455 0.01172 0.0
C1499 C 0.23422 0.55124 0.9922 0.0
C1500 C 0.24779 0.57062 0.98377 0.0
C1501 C 0.26432 0.56732 0.96544 0.0
C1502 C 0.26732 0.54473 0.95528 0.0
C1503 C 0.25374 0.52542 0.96339 0.0
C1504 C 0.2372 0.52863 0.98173 0.0
C1505 C 0.10848 0.56077 0.01925 0.0
C1506 C 0.1011 0.5385 0.01028 0.0
C1507 C 0.1326 0.56535 0.02355 0.0
C1508 C 0.14982 0.54761 0.01945 0.0
C1509 C 0.1426 0.52554 0.00996 0.0
C1510 C 0.11845 0.52104 0.00536 0.0
C1511 C 0.17529 0.55212 0.02533 0.0
C1512 C 0.19268 0.54865 0.00766 0.0
C1513 C 0.18231 0.56087 0.04792 0.0
C1514 C 0.16524 0.56286 0.06803 0.0
C1515 C 0.15164 0.54299 0.0752 0.0
C1516 C 0.13545 0.54499 0.09401 0.0
C1517 C 0.13282 0.56674 0.10592 0.0
C1518 C 0.14643 0.58652 0.09908 0.0
C1519 C 0.16263 0.58462 0.08025 0.0
H1520 H 0.12027 0.56826 0.12048 0.0
H1521 H 0.28012 0.54221 0.94108 0.0
H1522 H 0.23258 0.40749 0.57705 0.0
H1523 H 0.27352 0.41574 0.56423 0.0
H1524 H 0.2555 0.48981 0.55348 0.0
H1525 H 0.21435 0.48166 0.56644 0.0
H1526 H 0.28265 0.46751 0.51533 0.0
H1527 H 0.28467 0.47826 0.60023 0.0
H1528 H 0.27747 0.46654 0.64186 0.0
H1529 H 0.32223 0.40502 0.63272 0.0
H1530 H 0.32941 0.41618 0.59089 0.0
H1531 H 0.4014 0.51075 0.50437 0.0
H1532 H 0.35973 0.50413 0.51523 0.0
H1533 H 0.37746 0.43391 0.54131 0.0
H1534 H 0.41936 0.44066 0.53113 0.0
H1535 H 0.34971 0.45535 0.57172 0.0
H1536 H 0.34758 0.44281 0.4876 0.0
H1537 H 0.3544 0.45244 0.44537 0.0
H1538 H 0.30985 0.51445 0.45189 0.0
H1539 H 0.30302 0.50537 0.49427 0.0
C1540 C 0.23729 0.4255 0.57176 0.0
C1541 C 0.22033 0.44396 0.57269 0.0
C1542 C 0.26067 0.43019 0.56457 0.0
C1543 C 0.26748 0.45338 0.55804 0.0
C1544 C 0.25052 0.4718 0.55849 0.0
C1545 C 0.22714 0.46717 0.56599 0.0
C1546 C 0.29249 0.45832 0.55114 0.0
C1547 C 0.29735 0.46524 0.5277 0.0
C1548 C 0.31157 0.45463 0.56718 0.0
C1549 C 0.30738 0.44794 0.59236 0.0
C1550 C 0.29281 0.46212 0.60703 0.0
C1551 C 0.28876 0.4556 0.63068 0.0
C1552 C 0.29934 0.43501 0.63991 0.0
C1553 C 0.31403 0.42094 0.62553 0.0
C1554 C 0.31811 0.42737 0.60186 0.0
C1555 C 0.39644 0.49383 0.5123 0.0
C1556 C 0.41373 0.47621 0.51686 0.0
C1557 C 0.37255 0.49003 0.5184 0.0
C1558 C 0.36538 0.4684 0.52882 0.0
C1559 C 0.38258 0.45074 0.53329 0.0
C1560 C 0.40652 0.45461 0.52741 0.0
C1561 C 0.34009 0.46446 0.53574 0.0
C1562 C 0.33511 0.45771 0.55926 0.0
C1563 C 0.32093 0.46804 0.51966 0.0
C1564 C 0.32499 0.47355 0.49418 0.0
C1565 C 0.3394 0.45861 0.48008 0.0
C1566 C 0.34324 0.46395 0.45611 0.0
C1567 C 0.33262 0.48408 0.44597 0.0
C1568 C 0.31809 0.49888 0.45977 0.0
C1569 C 0.31421 0.49364 0.48377 0.0
H1570 H 0.33561 0.48818 0.4274 0.0
H1571 H 0.29619 0.42999 0.65823 0.0
H1572 H 0.99174 0.81402 0.94914 0.0
H1573 H 0.00214 0.77266 0.95897 0.0
H1574 H 0.9297 0.75077 0.94388 0.0
H1575 H 0.91914 0.79212 0.93502 0.0
H1576 H 0.94348 0.72919 0.98137 0.0
H1577 H 0.97821 0.74157 0.90435 0.0
H1578 H 0.00333 0.76156 0.87433 0.0
H1579 H 0.06582 0.74778 0.91637 0.0
H1580 H 0.04101 0.72797 0.94682 0.0
H1581 H 0.96326 0.60491 0.96066 0.0
H1582 H 0.95589 0.64743 0.95357 0.0
H1583 H 0.02093 0.66534 0.99061 0.0
H1584 H 0.02823 0.62289 0.99824 0.0
H1585 H 0.01267 0.68882 0.9437 0.0
H1586 H 0.97573 0.67451 0.01999 0.0
H1587 H 0.94918 0.6531 0.04773 0.0
H1588 H 0.88881 0.66915 0.00348 0.0
H1589 H 0.91508 0.69035 0.97527 0.0
C1590 C 0.97811 0.8003 0.94797 0.0
C1591 C 0.95466 0.80617 0.94138 0.0
C1592 C 0.98405 0.77669 0.95347 0.0
C1593 C 0.96678 0.75849 0.95185 0.0
C1594 C 0.94333 0.76446 0.94535 0.0
C1595 C 0.9373 0.78807 0.94028 0.0
C1596 C 0.97294 0.7332 0.95697 0.0
C1597 C 0.95848 0.72037 0.9729 0.0
C1598 C 0.99276 0.72167 0.94628 0.0
C1599 C 0.00772 0.73352 0.92798 0.0
C1600 C 0.99729 0.74296 0.90728 0.0
C1601 C 0.01147 0.75424 0.89018 0.0
C1602 C 0.03615 0.756 0.89348 0.0
C1603 C 0.0467 0.74644 0.91386 0.0
C1604 C 0.03259 0.73517 0.93104 0.0
C1605 C 0.97602 0.61789 0.96725 0.0
C1606 C 0.99628 0.61058 0.98007 0.0
C1607 C 0.97176 0.64213 0.96322 0.0
C1608 C 0.98786 0.6594 0.97164 0.0
C1609 C 0.00834 0.6522 0.984 0.0
C1610 C 0.0124 0.62799 0.98842 0.0
C1611 C 0.98305 0.68504 0.96778 0.0
C1612 C 0.99777 0.69784 0.95216 0.0
C1613 C 0.96325 0.69643 0.97839 0.0
C1614 C 0.94741 0.6838 0.9954 0.0
C1615 C 0.95683 0.67328 0.01606 0.0
C1616 C 0.94182 0.66122 0.03189 0.0
C1617 C 0.91733 0.65971 0.02734 0.0
C1618 C 0.90779 0.67031 0.00697 0.0
C1619 C 0.92272 0.68236 0.99106 0.0
H1620 H 0.90574 0.65037 0.03963 0.0
H1621 H 0.0471 0.76474 0.88021 0.0
H1622 H 0.45999 0.73295 0.12251 0.0
H1623 H 0.46958 0.77431 0.11204 0.0
H1624 H 0.47349 0.7546 0.038 0.0
H1625 H 0.46373 0.71311 0.04836 0.0
H1626 H 0.5115 0.78648 0.05536 0.0
H1627 H 0.4256 0.77858 0.05358 0.0
H1628 H 0.38645 0.76733 0.07027 0.0
H1629 H 0.3972 0.81589 0.12847 0.0
H1630 H 0.43662 0.82714 0.11231 0.0
H1631 H 0.50616 0.90282 0.00621 0.0
H1632 H 0.49985 0.86068 0.01545 0.0
H1633 H 0.47678 0.87975 0.0862 0.0
H1634 H 0.48211 0.922 0.0767 0.0
H1635 H 0.4488 0.8473 0.06998 0.0
H1636 H 0.5339 0.85561 0.07348 0.0
H1637 H 0.574 0.86659 0.05898 0.0
H1638 H 0.56645 0.81765 0.00061 0.0
H1639 H 0.52615 0.80661 0.01459 0.0
C1640 C 0.46329 0.73736 0.10405 0.0
C1641 C 0.46112 0.71988 0.08622 0.0
C1642 C 0.46863 0.76097 0.0981 0.0
C1643 C 0.47209 0.76744 0.07426 0.0
C1644 C 0.47087 0.74988 0.05649 0.0
C1645 C 0.4652 0.72629 0.0624 0.0
C1646 C 0.47576 0.79278 0.06786 0.0
C1647 C 0.49775 0.79981 0.05824 0.0
C1648 C 0.45796 0.8101 0.07225 0.0
C1649 C 0.43417 0.80352 0.08186 0.0
C1650 C 0.41971 0.78671 0.07005 0.0
C1651 C 0.39746 0.78035 0.07939 0.0
C1652 C 0.38937 0.79084 0.10045 0.0
C1653 C 0.4035 0.80776 0.11218 0.0
C1654 C 0.4258 0.81414 0.10292 0.0
C1655 C 0.49978 0.89803 0.02375 0.0
C1656 C 0.49469 0.91573 0.04075 0.0
C1657 C 0.49631 0.8739 0.02906 0.0
C1658 C 0.48824 0.86695 0.05168 0.0
C1659 C 0.48304 0.88464 0.06863 0.0
C1660 C 0.48612 0.90879 0.06319 0.0
C1661 C 0.48474 0.84131 0.05755 0.0
C1662 C 0.46268 0.83412 0.06707 0.0
C1663 C 0.50264 0.82392 0.05336 0.0
C1664 C 0.52691 0.83046 0.04496 0.0
C1665 C 0.54072 0.84732 0.05745 0.0
C1666 C 0.5635 0.85353 0.04934 0.0
C1667 C 0.57274 0.84288 0.02885 0.0
C1668 C 0.55925 0.82592 0.01646 0.0
C1669 C 0.53645 0.81966 0.02448 0.0
H1670 H 0.59038 0.84771 0.0226 0.0
H1671 H 0.37213 0.78591 0.10766 0.0
H1672 H 0.03181 0.2966 0.57027 0.0
H1673 H 0.01746 0.25585 0.56306 0.0
H1674 H 0.09001 0.23223 0.55262 0.0
H1675 H 0.10445 0.27269 0.55992 0.0
H1676 H 0.06047 0.21346 0.5196 0.0
H1677 H 0.06119 0.22334 0.60516 0.0
H1678 H 0.04999 0.24287 0.64287 0.0
H1679 H 0.9759 0.22908 0.62848 0.0
H1680 H 0.98666 0.20976 0.59051 0.0
H1681 H 0.05799 0.09008 0.53635 0.0
H1682 H 0.06486 0.13274 0.54144 0.0
H1683 H 0.98931 0.14393 0.55141 0.0
H1684 H 0.98223 0.10096 0.54678 0.0
H1685 H 0.01534 0.17035 0.58228 0.0
H1686 H 0.01498 0.15685 0.49846 0.0
H1687 H 0.02639 0.13673 0.46114 0.0
H1688 H 0.09953 0.15721 0.47197 0.0
H1689 H 0.08863 0.17715 0.50955 0.0
C1690 C 0.04468 0.28269 0.56646 0.0
C1691 C 0.06927 0.28787 0.56566 0.0
C1692 C 0.03646 0.25946 0.56232 0.0
C1693 C 0.0527 0.24099 0.5575 0.0
C1694 C 0.07717 0.24623 0.5562 0.0
C1695 C 0.08538 0.2694 0.56029 0.0
C1696 C 0.04448 0.21602 0.55433 0.0
C1697 C 0.05073 0.20398 0.53335 0.0
C1698 C 0.03116 0.20389 0.572 0.0
C1699 C 0.02471 0.21536 0.59488 0.0
C1700 C 0.0425 0.22465 0.60996 0.0
C1701 C 0.03623 0.23565 0.63139 0.0
C1702 C 0.01224 0.23728 0.63803 0.0
C1703 C 0.99447 0.22785 0.62329 0.0
C1704 C 0.00064 0.21686 0.60182 0.0
C1705 C 0.04279 0.10153 0.53972 0.0
C1706 C 0.01952 0.09212 0.54094 0.0
C1707 C 0.04675 0.12596 0.54253 0.0
C1708 C 0.02754 0.14156 0.54629 0.0
C1709 C 0.00436 0.13219 0.54835 0.0
C1710 C 0.00036 0.10765 0.54569 0.0
C1711 C 0.03184 0.16764 0.54779 0.0
C1712 C 0.02481 0.1799 0.56839 0.0
C1713 C 0.04442 0.18 0.52975 0.0
C1714 C 0.051 0.16837 0.50692 0.0
C1715 C 0.03352 0.15695 0.49295 0.0
C1716 C 0.03989 0.14559 0.47174 0.0
C1717 C 0.06367 0.14565 0.46421 0.0
C1718 C 0.08112 0.15716 0.47783 0.0
C1719 C 0.07485 0.16853 0.49908 0.0
H1720 H 0.06858 0.13682 0.44779 0.0
H1721 H 0.00743 0.2458 0.65463 0.0
H1722 H 0.612 0.22576 0.45352 0.0
H1723 H 0.59886 0.2669 0.45934 0.0
H1724 H 0.52773 0.2418 0.47563 0.0
H1725 H 0.54072 0.20056 0.4686 0.0
H1726 H 0.52413 0.27774 0.44822 0.0
H1727 H 0.56811 0.26416 0.51939 0.0
H1728 H 0.60229 0.25189 0.54416 0.0
H1729 H 0.64616 0.30557 0.51145 0.0
H1730 H 0.61233 0.31796 0.48623 0.0
H1731 H 0.48946 0.39074 0.49936 0.0
H1732 H 0.50033 0.34868 0.49429 0.0
H1733 H 0.56418 0.36964 0.45681 0.0
H1734 H 0.55326 0.41175 0.46137 0.0
H1735 H 0.57009 0.33596 0.49665 0.0
H1736 H 0.52378 0.34815 0.42499 0.0
H1737 H 0.48789 0.36018 0.40262 0.0
H1738 H 0.44605 0.30836 0.44053 0.0
H1739 H 0.48165 0.29626 0.46339 0.0
C1740 C 0.59365 0.22906 0.45864 0.0
C1741 C 0.57739 0.2101 0.46085 0.0
C1742 C 0.58615 0.25256 0.46205 0.0
C1743 C 0.56239 0.2575 0.4684 0.0
C1744 C 0.54616 0.23846 0.4708 0.0
C1745 C 0.55356 0.21495 0.46689 0.0
C1746 C 0.55435 0.28258 0.47156 0.0
C1747 C 0.53399 0.29031 0.45916 0.0
C1748 C 0.56734 0.29919 0.48557 0.0
C1749 C 0.58772 0.29185 0.50078 0.0
C1750 C 0.58509 0.27324 0.51736 0.0
C1751 C 0.6044 0.26628 0.5315 0.0
C1752 C 0.62639 0.27791 0.52934 0.0
C1753 C 0.62911 0.29657 0.51308 0.0
C1754 C 0.60987 0.30359 0.49888 0.0
C1755 C 0.50572 0.38639 0.48987 0.0
C1756 C 0.52052 0.40453 0.48076 0.0
C1757 C 0.51186 0.3624 0.48697 0.0
C1758 C 0.53303 0.35619 0.47521 0.0
C1759 C 0.54776 0.37419 0.46595 0.0
C1760 C 0.54144 0.39818 0.46847 0.0
C1761 C 0.54016 0.33089 0.4732 0.0
C1762 C 0.56028 0.32321 0.48586 0.0
C1763 C 0.5267 0.31425 0.45986 0.0
C1764 C 0.50532 0.32149 0.44608 0.0
C1765 C 0.50688 0.33948 0.42872 0.0
C1766 C 0.4866 0.34628 0.41592 0.0
C1767 C 0.46469 0.33509 0.4202 0.0
C1768 C 0.46303 0.31704 0.43726 0.0
C1769 C 0.48325 0.31019 0.45013 0.0
H1770 H 0.44901 0.34038 0.41026 0.0
H1771 H 0.64132 0.27249 0.5403 0.0
loop_
_geom_bond_atom_site_label_1
_geom_bond_atom_site_label_2
_geom_bond_distance
_geom_bond_site_symmetry_2
_ccdc_geom_bond_type
C0 C1 1.391 . S
C0 C4 1.391 . S
C0 H42 0.948 . S
C1 C0 1.391 . S
C1 C2 1.391 . S
C2 C1 1.391 . S
C2 H58 0.947 . S
C2 C59 1.392 . S
C3 C4 1.391 . S
C3 C7 1.397 . S
C3 C59 1.419 . S
C4 C0 1.391 . S
C4 C3 1.391 . S
C4 C5 1.399 . S
C5 C4 1.399 . S
C5 C8 1.396 . S
C5 C17 1.453 . S
C5 C18 1.684 . S
H6 C30 0.948 . S
C7 C3 1.397 . S
C7 C8 1.394 . S
C7 C26 1.723 . S
C8 C5 1.396 . S
C8 C7 1.394 . S
C8 C38 1.723 . S
H9 C32 0.947 . S
H10 C33 0.948 . S
H11 C39 0.982 . S
H12 C40 0.979 . S
H13 C40 0.980 . S
H14 C40 0.983 . S
H15 C39 0.979 . S
H16 C39 0.977 . S
C17 C5 1.453 . S
C17 H46 0.982 . S
C17 H47 0.979 . S
C17 H48 0.977 . S
C18 C5 1.684 . S
C18 H43 0.979 . S
C18 H44 0.980 . S
C18 H45 0.983 . S
C19 C20 1.391 . S
C19 C24 1.391 . S
C19 H49 0.948 . S
C20 C19 1.391 . S
C20 C21 1.391 . S
C21 C20 1.391 . S
C21 C22 1.392 . S
C21 H50 0.947 . S
C22 C21 1.392 . S
C22 C23 1.419 . S
C22 H51 0.948 . S
C23 C22 1.419 . S
C23 C24 1.391 . S
C23 C27 1.397 . S
C24 C19 1.391 . S
C24 C23 1.391 . S
C24 C25 1.399 . S
C25 C24 1.399 . S
C25 C26 1.396 . S
C25 C28 1.453 . S
C25 C29 1.684 . S
C26 C7 1.723 . S
C26 C25 1.396 . S
C26 C27 1.394 . S
C27 C23 1.397 . S
C27 C26 1.394 . S
C27 C37 1.723 . S
C28 C25 1.453 . S
C28 H52 0.982 . S
C28 H53 0.979 . S
C28 H54 0.977 . S
C29 C25 1.684 . S
C29 H55 0.979 . S
C29 H56 0.980 . S
C29 H57 0.983 . S
C30 H6 0.948 . S
C30 C31 1.391 . S
C30 C35 1.391 . S
C31 C30 1.391 . S
C31 C32 1.391 . S
C32 H9 0.947 . S
C32 C31 1.391 . S
C32 C33 1.392 . S
C33 H10 0.948 . S
C33 C32 1.392 . S
C33 C34 1.419 . S
C34 C33 1.419 . S
C34 C35 1.391 . S
C34 C38 1.397 . S
C35 C30 1.391 . S
C35 C34 1.391 . S
C35 C36 1.399 . S
C36 C35 1.399 . S
C36 C37 1.396 . S
C36 C39 1.453 . S
C36 C40 1.684 . S
C37 C27 1.723 . S
C37 C36 1.396 . S
C37 C38 1.394 . S
C38 C8 1.723 . S
C38 C34 1.397 . S
C38 C37 1.394 . S
C39 H11 0.982 . S
C39 H15 0.979 . S
C39 H16 0.977 . S
C39 C36 1.453 . S
C40 H12 0.979 . S
C40 H13 0.980 . S
C40 H14 0.983 . S
C40 C36 1.684 . S
H41 C59 0.948 . S
H42 C0 0.948 . S
H43 C18 0.979 . S
H44 C18 0.980 . S
H45 C18 0.983 . S
H46 C17 0.982 . S
H47 C17 0.979 . S
H48 C17 0.977 . S
H49 C19 0.948 . S
H50 C21 0.947 . S
H51 C22 0.948 . S
H52 C28 0.982 . S
H53 C28 0.979 . S
H54 C28 0.977 . S
H55 C29 0.979 . S
H56 C29 0.980 . S
H57 C29 0.983 . S
H58 C2 0.947 . S
C59 C2 1.392 . S
C59 C3 1.419 . S
C59 H41 0.948 . S
C60 C61 1.391 . S
C60 C64 1.391 . S
C60 H102 0.948 . S
C61 C60 1.391 . S
C61 C62 1.391 . S
C62 C61 1.391 . S
C62 H118 0.947 . S
C62 C119 1.392 . S
C63 C64 1.391 . S
C63 C67 1.397 . S
C63 C119 1.419 . S
C64 C60 1.391 . S
C64 C63 1.391 . S
C64 C65 1.399 . S
C65 C64 1.399 . S
C65 C68 1.396 . S
C65 C77 1.453 . S
C65 C78 1.684 . S
H66 C90 0.948 . S
C67 C63 1.397 . S
C67 C68 1.394 . S
C67 C86 1.723 . S
C68 C65 1.396 . S
C68 C67 1.394 . S
C68 C98 1.723 . S
H69 C92 0.947 . S
H70 C93 0.948 . S
H71 C99 0.982 . S
H72 C100 0.979 . S
H73 C100 0.980 . S
H74 C100 0.983 . S
H75 C99 0.979 . S
H76 C99 0.977 . S
C77 C65 1.453 . S
C77 H106 0.982 . S
C77 H107 0.979 . S
C77 H108 0.977 . S
C78 C65 1.684 . S
C78 H103 0.979 . S
C78 H104 0.980 . S
C78 H105 0.983 . S
C79 C80 1.391 . S
C79 C84 1.391 . S
C79 H109 0.948 . S
C80 C79 1.391 . S
C80 C81 1.391 . S
C81 C80 1.391 . S
C81 C82 1.392 . S
C81 H110 0.947 . S
C82 C81 1.392 . S
C82 C83 1.419 . S
C82 H111 0.948 . S
C83 C82 1.419 . S
C83 C84 1.391 . S
C83 C87 1.397 . S
C84 C79 1.391 . S
C84 C83 1.391 . S
C84 C85 1.399 . S
C85 C84 1.399 . S
C85 C86 1.396 . S
C85 C88 1.453 . S
C85 C89 1.684 . S
C86 C67 1.723 . S
C86 C85 1.396 . S
C86 C87 1.394 . S
C87 C83 1.397 . S
C87 C86 1.394 . S
C87 C97 1.723 . S
C88 C85 1.453 . S
C88 H112 0.982 . S
C88 H113 0.979 . S
C88 H114 0.977 . S
C89 C85 1.684 . S
C89 H115 0.979 . S
C89 H116 0.980 . S
C89 H117 0.983 . S
C90 H66 0.948 . S
C90 C91 1.391 . S
C90 C95 1.391 . S
C91 C90 1.391 . S
C91 C92 1.391 . S
C92 H69 0.947 . S
C92 C91 1.391 . S
C92 C93 1.392 . S
C93 H70 0.948 . S
C93 C92 1.392 . S
C93 C94 1.419 . S
C94 C93 1.419 . S
C94 C95 1.391 . S
C94 C98 1.397 . S
C95 C90 1.391 . S
C95 C94 1.391 . S
C95 C96 1.399 . S
C96 C95 1.399 . S
C96 C97 1.396 . S
C96 C99 1.453 . S
C96 C100 1.684 . S
C97 C87 1.723 . S
C97 C96 1.396 . S
C97 C98 1.394 . S
C98 C68 1.723 . S
C98 C94 1.397 . S
C98 C97 1.394 . S
C99 H71 0.982 . S
C99 H75 0.979 . S
C99 H76 0.977 . S
C99 C96 1.453 . S
C100 H72 0.979 . S
C100 H73 0.980 . S
C100 H74 0.983 . S
C100 C96 1.684 . S
H101 C119 0.948 . S
H102 C60 0.948 . S
H103 C78 0.979 . S
H104 C78 0.980 . S
H105 C78 0.983 . S
H106 C77 0.982 . S
H107 C77 0.979 . S
H108 C77 0.977 . S
H109 C79 0.948 . S
H110 C81 0.947 . S
H111 C82 0.948 . S
H112 C88 0.982 . S
H113 C88 0.979 . S
H114 C88 0.977 . S
H115 C89 0.979 . S
H116 C89 0.980 . S
H117 C89 0.983 . S
H118 C62 0.947 . S
C119 C62 1.392 . S
C119 C63 1.419 . S
C119 H101 0.948 . S
C120 C121 1.391 . S
C120 C124 1.391 . S
C120 H162 0.948 . S
C121 C120 1.391 . S
C121 C122 1.391 . S
C122 C121 1.391 . S
C122 H178 0.947 . S
C122 C179 1.392 . S
C123 C124 1.391 . S
C123 C127 1.397 . S
C123 C179 1.419 . S
C124 C120 1.391 . S
C124 C123 1.391 . S
C124 C125 1.399 . S
C125 C124 1.399 . S
C125 C128 1.396 . S
C125 C137 1.453 . S
C125 C138 1.684 . S
H126 C150 0.948 . S
C127 C123 1.397 . S
C127 C128 1.394 . S
C127 C146 1.723 . S
C128 C125 1.396 . S
C128 C127 1.394 . S
C128 C158 1.723 . S
H129 C152 0.947 . S
H130 C153 0.948 . S
H131 C159 0.982 . S
H132 C160 0.979 . S
H133 C160 0.980 . S
H134 C160 0.983 . S
H135 C159 0.979 . S
H136 C159 0.977 . S
C137 C125 1.453 . S
C137 H166 0.982 . S
C137 H167 0.979 . S
C137 H168 0.977 . S
C138 C125 1.684 . S
C138 H163 0.979 . S
C138 H164 0.980 . S
C138 H165 0.983 . S
C139 C140 1.391 . S
C139 C144 1.391 . S
C139 H169 0.948 . S
C140 C139 1.391 . S
C140 C141 1.391 . S
C141 C140 1.391 . S
C141 C142 1.392 . S
C141 H170 0.947 . S
C142 C141 1.392 . S
C142 C143 1.419 . S
C142 H171 0.948 . S
C143 C142 1.419 . S
C143 C144 1.391 . S
C143 C147 1.397 . S
C144 C139 1.391 . S
C144 C143 1.391 . S
C144 C145 1.399 . S
C145 C144 1.399 . S
C145 C146 1.396 . S
C145 C148 1.453 . S
C145 C149 1.684 . S
C146 C127 1.723 . S
C146 C145 1.396 . S
C146 C147 1.394 . S
C147 C143 1.397 . S
C147 C146 1.394 . S
C147 C157 1.723 . S
C148 C145 1.453 . S
C148 H172 0.982 . S
C148 H173 0.979 . S
C148 H174 0.977 . S
C149 C145 1.684 . S
C149 H175 0.979 . S
C149 H176 0.980 . S
C149 H177 0.983 . S
C150 H126 0.948 . S
C150 C151 1.391 . S
C150 C155 1.391 . S
C151 C150 1.391 . S
C151 C152 1.391 . S
C152 H129 0.947 . S
C152 C151 1.391 . S
C152 C153 1.392 . S
C153 H130 0.948 . S
C153 C152 1.392 . S
C153 C154 1.419 . S
C154 C153 1.419 . S
C154 C155 1.391 . S
C154 C158 1.397 . S
C155 C150 1.391 . S
C155 C154 1.391 . S
C155 C156 1.399 . S
C156 C155 1.399 . S
C156 C157 1.396 . S
C156 C159 1.453 . S
C156 C160 1.684 . S
C157 C147 1.723 . S
C157 C156 1.396 . S
C157 C158 1.394 . S
C158 C128 1.723 . S
C158 C154 1.397 . S
C158 C157 1.394 . S
C159 H131 0.982 . S
C159 H135 0.979 . S
C159 H136 0.977 . S
C159 C156 1.453 . S
C160 H132 0.979 . S
C160 H133 0.980 . S
C160 H134 0.983 . S
C160 C156 1.684 . S
H161 C179 0.948 . S
H162 C120 0.948 . S
H163 C138 0.979 . S
H164 C138 0.980 . S
H165 C138 0.983 . S
H166 C137 0.982 . S
H167 C137 0.979 . S
H168 C137 0.977 . S
H169 C139 0.948 . S
H170 C141 0.947 . S
H171 C142 0.948 . S
H172 C148 0.982 . S
H173 C148 0.979 . S
H174 C148 0.977 . S
H175 C149 0.979 . S
H176 C149 0.980 . S
H177 C149 0.983 . S
H178 C122 0.947 . S
C179 C122 1.392 . S
C179 C123 1.419 . S
C179 H161 0.948 . S
C180 C181 1.391 . S
C180 C184 1.391 . S
C180 H222 0.948 . S
C181 C180 1.391 . S
C181 C182 1.391 . S
C182 C181 1.391 . S
C182 H238 0.947 . S
C182 C239 1.392 . S
C183 C184 1.391 . S
C183 C187 1.397 . S
C183 C239 1.419 . S
C184 C180 1.391 . S
C184 C183 1.391 . S
C184 C185 1.399 . S
C185 C184 1.399 . S
C185 C188 1.396 . S
C185 C197 1.453 . S
C185 C198 1.684 . S
H186 C210 0.948 . S
C187 C183 1.397 . S
C187 C188 1.394 . S
C187 C206 1.723 . S
C188 C185 1.396 . S
C188 C187 1.394 . S
C188 C218 1.723 . S
H189 C212 0.947 . S
H190 C213 0.948 . S
H191 C219 0.982 . S
H192 C220 0.979 . S
H193 C220 0.980 . S
H194 C220 0.983 . S
H195 C219 0.979 . S
H196 C219 0.977 . S
C197 C185 1.453 . S
C197 H226 0.982 . S
C197 H227 0.979 . S
C197 H228 0.977 . S
C198 C185 1.684 . S
C198 H223 0.979 . S
C198 H224 0.980 . S
C198 H225 0.983 . S
C199 C200 1.391 . S
C199 C204 1.391 . S
C199 H229 0.948 . S
C200 C199 1.391 . S
C200 C201 1.391 . S
C201 C200 1.391 . S
C201 C202 1.392 . S
C201 H230 0.947 . S
C202 C201 1.392 . S
C202 C203 1.419 . S
C202 H231 0.948 . S
C203 C202 1.419 . S
C203 C204 1.391 . S
C203 C207 1.397 . S
C204 C199 1.391 . S
C204 C203 1.391 . S
C204 C205 1.399 . S
C205 C204 1.399 . S
C205 C206 1.396 . S
C205 C208 1.453 . S
C205 C209 1.684 . S
C206 C187 1.723 . S
C206 C205 1.396 . S
C206 C207 1.394 . S
C207 C203 1.397 . S
C207 C206 1.394 . S
C207 C217 1.723 . S
C208 C205 1.453 . S
C208 H232 0.982 . S
C208 H233 0.979 . S
C208 H234 0.977 . S
C209 C205 1.684 . S
C209 H235 0.979 . S
C209 H236 0.980 . S
C209 H237 0.983 . S
C210 H186 0.948 . S
C210 C211 1.391 . S
C210 C215 1.391 . S
C211 C210 1.391 . S
C211 C212 1.391 . S
C212 H189 0.947 . S
C212 C211 1.391 . S
C212 C213 1.392 . S
C213 H190 0.948 . S
C213 C212 1.392 . S
C213 C214 1.419 . S
C214 C213 1.419 . S
C214 C215 1.391 . S
C214 C218 1.397 . S
C215 C210 1.391 . S
C215 C214 1.391 . S
C215 C216 1.399 . S
C216 C215 1.399 . S
C216 C217 1.396 . S
C216 C219 1.453 . S
C216 C220 1.684 . S
C217 C207 1.723 . S
C217 C216 1.396 . S
C217 C218 1.394 . S
C218 C188 1.723 . S
C218 C214 1.397 . S
C218 C217 1.394 . S
C219 H191 0.982 . S
C219 H195 0.979 . S
C219 H196 0.977 . S
C219 C216 1.453 . S
C220 H192 0.979 . S
C220 H193 0.980 . S
C220 H194 0.983 . S
C220 C216 1.684 . S
H221 C239 0.948 . S
H222 C180 0.948 . S
H223 C198 0.979 . S
H224 C198 0.980 . S
H225 C198 0.983 . S
H226 C197 0.982 . S
H227 C197 0.979 . S
H228 C197 0.977 . S
H229 C199 0.948 . S
H230 C201 0.947 . S
H231 C202 0.948 . S
H232 C208 0.982 . S
H233 C208 0.979 . S
H234 C208 0.977 . S
H235 C209 0.979 . S
H236 C209 0.980 . S
H237 C209 0.983 . S
H238 C182 0.947 . S
C239 C182 1.392 . S
C239 C183 1.419 . S
C239 H221 0.948 . S
C240 C241 1.391 . S
C240 C244 1.391 . S
C240 H282 0.948 . S
C241 C240 1.391 . S
C241 C242 1.391 . S
C242 C241 1.391 . S
C242 H298 0.947 . S
C242 C299 1.392 . S
C243 C244 1.391 . S
C243 C247 1.397 . S
C243 C299 1.419 . S
C244 C240 1.391 . S
C244 C243 1.391 . S
C244 C245 1.399 . S
C245 C244 1.399 . S
C245 C248 1.396 . S
C245 C257 1.453 . S
C245 C258 1.684 . S
H246 C270 0.948 . S
C247 C243 1.397 . S
C247 C248 1.394 . S
C247 C266 1.723 . S
C248 C245 1.396 . S
C248 C247 1.394 . S
C248 C278 1.723 . S
H249 C272 0.947 . S
H250 C273 0.948 . S
H251 C279 0.982 . S
H252 C280 0.979 1_545 S
H253 C280 0.980 . S
H254 C280 0.983 1_545 S
H255 C279 0.979 . S
H256 C279 0.977 . S
C257 C245 1.453 . S
C257 H286 0.982 . S
C257 H287 0.979 . S
C257 H288 0.977 . S
C258 C245 1.684 . S
C258 H283 0.979 . S
C258 H284 0.980 . S
C258 H285 0.983 . S
C259 C260 1.391 . S
C259 C264 1.391 . S
C259 H289 0.948 . S
C260 C259 1.391 . S
C260 C261 1.391 . S
C261 C260 1.391 . S
C261 C262 1.392 . S
C261 H290 0.947 . S
C262 C261 1.392 . S
C262 C263 1.419 . S
C262 H291 0.948 . S
C263 C262 1.419 . S
C263 C264 1.391 . S
C263 C267 1.397 . S
C264 C259 1.391 . S
C264 C263 1.391 . S
C264 C265 1.399 . S
C265 C264 1.399 . S
C265 C266 1.396 . S
C265 C268 1.453 . S
C265 C269 1.684 . S
C266 C247 1.723 . S
C266 C265 1.396 . S
C266 C267 1.394 . S
C267 C263 1.397 . S
C267 C266 1.394 . S
C267 C277 1.723 . S
C268 C265 1.453 . S
C268 H292 0.982 . S
C268 H293 0.979 . S
C268 H294 0.977 . S
C269 C265 1.684 . S
C269 H295 0.979 . S
C269 H296 0.980 . S
C269 H297 0.983 . S
C270 H246 0.948 . S
C270 C271 1.391 . S
C270 C275 1.391 . S
C271 C270 1.391 . S
C271 C272 1.391 . S
C272 H249 0.947 . S
C272 C271 1.391 . S
C272 C273 1.392 . S
C273 H250 0.948 . S
C273 C272 1.392 . S
C273 C274 1.419 . S
C274 C273 1.419 . S
C274 C275 1.391 . S
C274 C278 1.397 . S
C275 C270 1.391 . S
C275 C274 1.391 . S
C275 C276 1.399 . S
C276 C275 1.399 . S
C276 C277 1.396 . S
C276 C279 1.453 . S
C276 C280 1.684 . S
C277 C267 1.723 . S
C277 C276 1.396 . S
C277 C278 1.394 . S
C278 C248 1.723 . S
C278 C274 1.397 . S
C278 C277 1.394 . S
C279 H251 0.982 . S
C279 H255 0.979 . S
C279 H256 0.977 . S
C279 C276 1.453 . S
C280 H252 0.979 1_565 S
C280 H253 0.980 . S
C280 H254 0.983 1_565 S
C280 C276 1.684 . S
H281 C299 0.948 . S
H282 C240 0.948 . S
H283 C258 0.979 . S
H284 C258 0.980 . S
H285 C258 0.983 . S
H286 C257 0.982 . S
H287 C257 0.979 . S
H288 C257 0.977 . S
H289 C259 0.948 . S
H290 C261 0.947 . S
H291 C262 0.948 . S
H292 C268 0.982 . S
H293 C268 0.979 . S
H294 C268 0.977 . S
H295 C269 0.979 . S
H296 C269 0.980 . S
H297 C269 0.983 . S
H298 C242 0.947 . S
C299 C242 1.392 . S
C299 C243 1.419 . S
C299 H281 0.948 . S
C300 C301 1.391 . S
C300 C304 1.391 . S
C300 H342 0.948 . S
C301 C300 1.391 . S
C301 C302 1.391 . S
C302 C301 1.391 . S
C302 H358 0.947 . S
C302 C359 1.392 . S
C303 C304 1.391 . S
C303 C307 1.397 . S
C303 C359 1.419 . S
C304 C300 1.391 . S
C304 C303 1.391 . S
C304 C305 1.399 . S
C305 C304 1.399 . S
C305 C308 1.396 . S
C305 C317 1.453 . S
C305 C318 1.684 . S
H306 C330 0.948 . S
C307 C303 1.397 . S
C307 C308 1.394 . S
C307 C326 1.723 . S
C308 C305 1.396 . S
C308 C307 1.394 . S
C308 C338 1.723 . S
H309 C332 0.947 . S
H310 C333 0.948 . S
H311 C339 0.982 . S
H312 C340 0.979 . S
H313 C340 0.980 . S
H314 C340 0.983 . S
H315 C339 0.979 . S
H316 C339 0.977 . S
C317 C305 1.453 . S
C317 H346 0.982 . S
C317 H347 0.979 . S
C317 H348 0.977 . S
C318 C305 1.684 . S
C318 H343 0.979 . S
C318 H344 0.980 . S
C318 H345 0.983 . S
C319 C320 1.391 . S
C319 C324 1.391 . S
C319 H349 0.948 . S
C320 C319 1.391 . S
C320 C321 1.391 . S
C321 C320 1.391 . S
C321 C322 1.392 . S
C321 H350 0.947 . S
C322 C321 1.392 . S
C322 C323 1.419 . S
C322 H351 0.948 . S
C323 C322 1.419 . S
C323 C324 1.391 . S
C323 C327 1.397 . S
C324 C319 1.391 . S
C324 C323 1.391 . S
C324 C325 1.399 . S
C325 C324 1.399 . S
C325 C326 1.396 . S
C325 C328 1.453 . S
C325 C329 1.684 . S
C326 C307 1.723 . S
C326 C325 1.396 . S
C326 C327 1.394 . S
C327 C323 1.397 . S
C327 C326 1.394 . S
C327 C337 1.723 . S
C328 C325 1.453 . S
C328 H352 0.982 . S
C328 H353 0.979 . S
C328 H354 0.977 . S
C329 C325 1.684 . S
C329 H355 0.979 . S
C329 H356 0.980 . S
C329 H357 0.983 . S
C330 H306 0.948 . S
C330 C331 1.391 . S
C330 C335 1.391 . S
C331 C330 1.391 . S
C331 C332 1.391 . S
C332 H309 0.947 . S
C332 C331 1.391 . S
C332 C333 1.392 . S
C333 H310 0.948 . S
C333 C332 1.392 . S
C333 C334 1.419 . S
C334 C333 1.419 . S
C334 C335 1.391 . S
C334 C338 1.397 . S
C335 C330 1.391 . S
C335 C334 1.391 . S
C335 C336 1.399 . S
C336 C335 1.399 . S
C336 C337 1.396 . S
C336 C339 1.453 . S
C336 C340 1.684 . S
C337 C327 1.723 . S
C337 C336 1.396 . S
C337 C338 1.394 . S
C338 C308 1.723 . S
C338 C334 1.397 . S
C338 C337 1.394 . S
C339 H311 0.982 . S
C339 H315 0.979 . S
C339 H316 0.977 . S
C339 C336 1.453 . S
C340 H312 0.979 . S
C340 H313 0.980 . S
C340 H314 0.983 . S
C340 C336 1.684 . S
H341 C359 0.948 . S
H342 C300 0.948 . S
H343 C318 0.979 . S
H344 C318 0.980 . S
H345 C318 0.983 . S
H346 C317 0.982 . S
H347 C317 0.979 . S
H348 C317 0.977 . S
H349 C319 0.948 . S
H350 C321 0.947 . S
H351 C322 0.948 . S
H352 C328 0.982 . S
H353 C328 0.979 . S
H354 C328 0.977 . S
H355 C329 0.979 . S
H356 C329 0.980 . S
H357 C329 0.983 . S
H358 C302 0.947 . S
C359 C302 1.392 . S
C359 C303 1.419 . S
C359 H341 0.948 . S
C360 C361 1.391 . S
C360 C364 1.391 . S
C360 H402 0.948 . S
C361 C360 1.391 . S
C361 C362 1.391 . S
C362 C361 1.391 . S
C362 H418 0.947 . S
C362 C419 1.392 . S
C363 C364 1.391 . S
C363 C367 1.397 . S
C363 C419 1.419 . S
C364 C360 1.391 . S
C364 C363 1.391 . S
C364 C365 1.399 . S
C365 C364 1.399 . S
C365 C368 1.396 . S
C365 C377 1.453 . S
C365 C378 1.684 . S
H366 C390 0.948 . S
C367 C363 1.397 . S
C367 C368 1.394 . S
C367 C386 1.723 . S
C368 C365 1.396 . S
C368 C367 1.394 . S
C368 C398 1.723 . S
H369 C392 0.947 . S
H370 C393 0.948 . S
H371 C399 0.982 . S
H372 C400 0.979 . S
H373 C400 0.980 . S
H374 C400 0.983 . S
H375 C399 0.979 . S
H376 C399 0.977 . S
C377 C365 1.453 . S
C377 H406 0.982 . S
C377 H407 0.979 . S
C377 H408 0.977 . S
C378 C365 1.684 . S
C378 H403 0.979 . S
C378 H404 0.980 . S
C378 H405 0.983 . S
C379 C380 1.391 . S
C379 C384 1.391 . S
C379 H409 0.948 . S
C380 C379 1.391 . S
C380 C381 1.391 . S
C381 C380 1.391 . S
C381 C382 1.392 . S
C381 H410 0.947 . S
C382 C381 1.392 . S
C382 C383 1.419 . S
C382 H411 0.948 . S
C383 C382 1.419 . S
C383 C384 1.391 . S
C383 C387 1.397 . S
C384 C379 1.391 . S
C384 C383 1.391 . S
C384 C385 1.399 . S
C385 C384 1.399 . S
C385 C386 1.396 . S
C385 C388 1.453 . S
C385 C389 1.684 . S
C386 C367 1.723 . S
C386 C385 1.396 . S
C386 C387 1.394 . S
C387 C383 1.397 . S
C387 C386 1.394 . S
C387 C397 1.723 . S
C388 C385 1.453 . S
C388 H412 0.982 . S
C388 H413 0.979 . S
C388 H414 0.977 . S
C389 C385 1.684 . S
C389 H415 0.979 . S
C389 H416 0.980 . S
C389 H417 0.983 . S
C390 H366 0.948 . S
C390 C391 1.391 . S
C390 C395 1.391 . S
C391 C390 1.391 . S
C391 C392 1.391 . S
C392 H369 0.947 . S
C392 C391 1.391 . S
C392 C393 1.392 . S
C393 H370 0.948 . S
C393 C392 1.392 . S
C393 C394 1.419 . S
C394 C393 1.419 . S
C394 C395 1.391 . S
C394 C398 1.397 . S
C395 C390 1.391 . S
C395 C394 1.391 . S
C395 C396 1.399 . S
C396 C395 1.399 . S
C396 C397 1.396 . S
C396 C399 1.453 . S
C396 C400 1.684 . S
C397 C387 1.723 . S
C397 C396 1.396 . S
C397 C398 1.394 . S
C398 C368 1.723 . S
C398 C394 1.397 . S
C398 C397 1.394 . S
C399 H371 0.982 . S
C399 H375 0.979 . S
C399 H376 0.977 . S
C399 C396 1.453 . S
C400 H372 0.979 . S
C400 H373 0.980 . S
C400 H374 0.983 . S
C400 C396 1.684 . S
H401 C419 0.948 . S
H402 C360 0.948 . S
H403 C378 0.979 . S
H404 C378 0.980 . S
H405 C378 0.983 . S
H406 C377 0.982 . S
H407 C377 0.979 . S
H408 C377 0.977 . S
H409 C379 0.948 . S
H410 C381 0.947 . S
H411 C382 0.948 . S
H412 C388 0.982 . S
H413 C388 0.979 . S
H414 C388 0.977 . S
H415 C389 0.979 . S
H416 C389 0.980 . S
H417 C389 0.983 . S
H418 C362 0.947 . S
C419 C362 1.392 . S
C419 C363 1.419 . S
C419 H401 0.948 . S
C420 C421 1.391 . S
C420 C424 1.391 . S
C420 H462 0.948 . S
C421 C420 1.391 . S
C421 C422 1.391 . S
C422 C421 1.391 . S
C422 H478 0.947 . S
C422 C479 1.392 . S
C423 C424 1.391 . S
C423 C427 1.397 . S
C423 C479 1.419 . S
C424 C420 1.391 . S
C424 C423 1.391 . S
C424 C425 1.399 . S
C425 C424 1.399 . S
C425 C428 1.396 . S
C425 C437 1.453 . S
C425 C438 1.684 . S
H426 C450 0.948 . S
C427 C423 1.397 . S
C427 C428 1.394 . S
C427 C446 1.723 . S
C428 C425 1.396 . S
C428 C427 1.394 . S
C428 C458 1.723 . S
H429 C452 0.947 . S
H430 C453 0.948 . S
H431 C459 0.982 . S
H432 C460 0.979 . S
H433 C460 0.980 . S
H434 C460 0.983 . S
H435 C459 0.979 . S
H436 C459 0.977 . S
C437 C425 1.453 . S
C437 H466 0.982 . S
C437 H467 0.979 . S
C437 H468 0.977 . S
C438 C425 1.684 . S
C438 H463 0.979 . S
C438 H464 0.980 . S
C438 H465 0.983 . S
C439 C440 1.391 . S
C439 C444 1.391 . S
C439 H469 0.948 . S
C440 C439 1.391 . S
C440 C441 1.391 . S
C441 C440 1.391 . S
C441 C442 1.392 . S
C441 H470 0.947 . S
C442 C441 1.392 . S
C442 C443 1.419 . S
C442 H471 0.948 . S
C443 C442 1.419 . S
C443 C444 1.391 . S
C443 C447 1.397 . S
C444 C439 1.391 . S
C444 C443 1.391 . S
C444 C445 1.399 . S
C445 C444 1.399 . S
C445 C446 1.396 . S
C445 C448 1.453 . S
C445 C449 1.684 . S
C446 C427 1.723 . S
C446 C445 1.396 . S
C446 C447 1.394 . S
C447 C443 1.397 . S
C447 C446 1.394 . S
C447 C457 1.723 . S
C448 C445 1.453 . S
C448 H472 0.982 . S
C448 H473 0.979 . S
C448 H474 0.977 . S
C449 C445 1.684 . S
C449 H475 0.979 . S
C449 H476 0.980 . S
C449 H477 0.983 . S
C450 H426 0.948 . S
C450 C451 1.391 . S
C450 C455 1.391 . S
C451 C450 1.391 . S
C451 C452 1.391 . S
C452 H429 0.947 . S
C452 C451 1.391 . S
C452 C453 1.392 . S
C453 H430 0.948 . S
C453 C452 1.392 . S
C453 C454 1.419 . S
C454 C453 1.419 . S
C454 C455 1.391 . S
C454 C458 1.397 . S
C455 C450 1.391 . S
C455 C454 1.391 . S
C455 C456 1.399 . S
C456 C455 1.399 . S
C456 C457 1.396 . S
C456 C459 1.453 . S
C456 C460 1.684 . S
C457 C447 1.723 . S
C457 C456 1.396 . S
C457 C458 1.394 . S
C458 C428 1.723 . S
C458 C454 1.397 . S
C458 C457 1.394 . S
C459 H431 0.982 . S
C459 H435 0.979 . S
C459 H436 0.977 . S
C459 C456 1.453 . S
C460 H432 0.979 . S
C460 H433 0.980 . S
C460 H434 0.983 . S
C460 C456 1.684 . S
H461 C479 0.948 . S
H462 C420 0.948 . S
H463 C438 0.979 . S
H464 C438 0.980 . S
H465 C438 0.983 . S
H466 C437 0.982 . S
H467 C437 0.979 . S
H468 C437 0.977 . S
H469 C439 0.948 . S
H470 C441 0.947 . S
H471 C442 0.948 . S
H472 C448 0.982 . S
H473 C448 0.979 . S
H474 C448 0.977 . S
H475 C449 0.979 . S
H476 C449 0.980 . S
H477 C449 0.983 . S
H478 C422 0.947 . S
C479 C422 1.392 . S
C479 C423 1.419 . S
C479 H461 0.948 . S
O480 Zn481 1.969 . S
O480 C496 1.190 1_655 S
Zn481 O480 1.969 . S
Zn481 O482 1.949 1_655 S
Zn481 O488 1.919 . S
Zn481 O493 1.924 . S
O482 Zn481 1.949 1_455 S
O482 Zn483 1.923 1_445 S
O482 Zn484 1.950 . S
O482 Zn485 1.945 1_545 S
Zn483 O482 1.923 1_665 S
Zn483 O486 1.933 . S
Zn483 O489 1.941 1_565 S
Zn483 O490 1.965 1_665 S
Zn484 O482 1.950 . S
Zn484 O491 1.938 . S
Zn484 O492 1.903 1_545 S
Zn484 O502 1.953 . S
Zn485 O482 1.945 1_565 S
Zn485 O487 1.932 1_455 S
Zn485 O494 1.977 . S
Zn485 O495 1.910 1_455 S
O486 Zn483 1.933 . S
O486 C497 1.226 . S
O487 Zn485 1.932 1_655 S
O487 C497 1.307 . S
O488 Zn481 1.919 . S
O488 C499 1.253 . S
O489 Zn483 1.941 1_545 S
O489 C499 1.283 . S
O490 Zn483 1.965 1_445 S
O490 C498 1.303 . S
O491 Zn484 1.938 . S
O491 C498 1.247 . S
O492 Zn484 1.903 1_565 S
O492 C500 1.309 . S
O493 Zn481 1.924 . S
O493 C501 1.295 1_545 S
O494 Zn485 1.977 . S
O494 C500 1.272 . S
O495 Zn485 1.910 1_655 S
O495 C501 1.249 . S
C496 O480 1.190 1_455 S
C496 O502 1.298 . S
C497 O486 1.226 . S
C497 O487 1.307 . S
C498 O490 1.303 . S
C498 O491 1.247 . S
C499 O488 1.253 . S
C499 O489 1.283 . S
C500 O492 1.309 . S
C500 O494 1.272 . S
C501 O493 1.295 1_565 S
C501 O495 1.249 . S
O502 Zn484 1.953 . S
O502 C496 1.298 . S
O503 Zn504 1.953 . S
O503 C519 1.225 . S
Zn504 O503 1.953 . S
Zn504 O505 1.949 1_556 S
Zn504 O511 1.919 . S
Zn504 O516 1.924 1_556 S
O505 Zn504 1.949 1_554 S
O505 Zn506 1.923 1_545 S
O505 Zn507 1.950 . S
O505 Zn508 1.945 1_545 S
Zn506 O505 1.923 1_565 S
Zn506 O509 1.933 . S
Zn506 O512 1.941 1_554 S
Zn506 O513 1.965 . S
Zn507 O505 1.950 . S
Zn507 O514 1.938 . S
Zn507 O515 1.906 . S
Zn507 O525 1.953 . S
Zn508 O505 1.945 1_565 S
Zn508 O510 1.932 . S
Zn508 O517 1.977 1_565 S
Zn508 O518 1.910 1_565 S
O509 Zn506 1.933 . S
O509 C520 1.226 . S
O510 Zn508 1.932 . S
O510 C520 1.307 . S
O511 Zn504 1.919 . S
O511 C522 1.253 1_545 S
O512 Zn506 1.941 1_556 S
O512 C522 1.283 . S
O513 Zn506 1.965 . S
O513 C521 1.303 . S
O514 Zn507 1.938 . S
O514 C521 1.247 1_545 S
O515 Zn507 1.906 . S
O515 C523 1.304 . S
O516 Zn504 1.924 1_554 S
O516 C524 1.311 . S
O517 Zn508 1.977 1_545 S
O517 C523 1.272 . S
O518 Zn508 1.910 1_545 S
O518 C524 1.231 . S
C519 O503 1.225 . S
C519 O525 1.298 1_556 S
C520 O509 1.226 . S
C520 O510 1.307 . S
C521 O513 1.303 . S
C521 O514 1.247 1_565 S
C522 O511 1.253 1_565 S
C522 O512 1.283 . S
C523 O515 1.304 . S
C523 O517 1.272 . S
C524 O516 1.311 . S
C524 O518 1.231 . S
O525 Zn507 1.953 . S
O525 C519 1.298 1_554 S
O526 Zn527 1.953 . S
O526 C542 1.225 . S
Zn527 O526 1.953 . S
Zn527 O528 1.949 . S
Zn527 O534 1.919 . S
Zn527 O539 1.924 . S
O528 Zn527 1.949 . S
O528 Zn529 1.923 . S
O528 Zn530 1.950 . S
O528 Zn531 1.945 . S
Zn529 O528 1.923 . S
Zn529 O532 1.933 . S
Zn529 O535 1.941 . S
Zn529 O536 1.965 . S
Zn530 O528 1.950 . S
Zn530 O537 1.938 . S
Zn530 O538 1.906 . S
Zn530 O548 1.953 . S
Zn531 O528 1.945 . S
Zn531 O533 1.932 . S
Zn531 O540 1.977 . S
Zn531 O541 1.910 . S
O532 Zn529 1.933 . S
O532 C543 1.226 . S
O533 Zn531 1.932 . S
O533 C543 1.307 . S
O534 Zn527 1.919 . S
O534 C545 1.253 . S
O535 Zn529 1.941 . S
O535 C545 1.283 . S
O536 Zn529 1.965 . S
O536 C544 1.303 . S
O537 Zn530 1.938 . S
O537 C544 1.247 . S
O538 Zn530 1.906 . S
O538 C546 1.304 . S
O539 Zn527 1.924 . S
O539 C547 1.311 . S
O540 Zn531 1.977 . S
O540 C546 1.272 . S
O541 Zn531 1.910 . S
O541 C547 1.231 . S
C542 O526 1.225 . S
C542 O548 1.298 . S
C543 O532 1.226 . S
C543 O533 1.307 . S
C544 O536 1.303 . S
C544 O537 1.247 . S
C545 O534 1.253 . S
C545 O535 1.283 . S
C546 O538 1.304 . S
C546 O540 1.272 . S
C547 O539 1.311 . S
C547 O541 1.231 . S
O548 Zn530 1.953 . S
O548 C542 1.298 . S
O549 Zn550 1.953 . S
O549 C565 1.225 . S
Zn550 O549 1.953 . S
Zn550 O551 1.949 1_655 S
Zn550 O557 1.919 . S
Zn550 O562 1.924 . S
O551 Zn550 1.949 1_455 S
O551 Zn552 1.923 1_454 S
O551 Zn553 1.950 . S
O551 Zn554 1.945 1_554 S
Zn552 O551 1.923 1_656 S
Zn552 O555 1.933 1_655 S
Zn552 O558 1.941 . S
Zn552 O559 1.965 . S
Zn553 O551 1.950 . S
Zn553 O560 1.938 . S
Zn553 O561 1.906 . S
Zn553 O571 1.953 . S
Zn554 O551 1.945 1_556 S
Zn554 O556 1.932 . S
Zn554 O563 1.977 1_556 S
Zn554 O564 1.910 1_556 S
O555 Zn552 1.933 1_455 S
O555 C566 1.226 . S
O556 Zn554 1.932 . S
O556 C566 1.307 . S
O557 Zn550 1.919 . S
O557 C568 1.253 1_554 S
O558 Zn552 1.941 . S
O558 C568 1.283 . S
O559 Zn552 1.965 . S
O559 C567 1.303 . S
O560 Zn553 1.938 . S
O560 C567 1.247 1_454 S
O561 Zn553 1.906 . S
O561 C569 1.304 . S
O562 Zn550 1.924 . S
O562 C570 1.311 1_655 S
O563 Zn554 1.977 1_554 S
O563 C569 1.272 . S
O564 Zn554 1.910 1_554 S
O564 C570 1.231 . S
C565 O549 1.225 . S
C565 O571 1.298 1_655 S
C566 O555 1.226 . S
C566 O556 1.307 . S
C567 O559 1.303 . S
C567 O560 1.247 1_656 S
C568 O557 1.253 1_556 S
C568 O558 1.283 . S
C569 O561 1.304 . S
C569 O563 1.272 . S
C570 O562 1.311 1_455 S
C570 O564 1.231 . S
O571 Zn553 1.953 . S
O571 C565 1.298 1_455 S
H572 C590 0.951 . S
H573 C592 0.951 . S
H574 C594 0.950 . S
H575 C595 0.950 . S
H576 C597 0.950 . S
H577 C600 0.950 . S
H578 C601 0.950 1_655 S
H579 C603 0.950 1_655 S
H580 C604 0.950 . S
H581 C605 0.951 . S
H582 C607 0.951 . S
H583 C609 0.950 . S
H584 C610 0.950 . S
H585 C612 0.950 . S
H586 C615 0.950 . S
H587 C616 0.950 . S
H588 C618 0.950 . S
H589 C619 0.950 . S
C590 H572 0.951 . S
C590 C591 1.366 . S
C590 C592 1.388 . S
C591 C590 1.366 . S
C591 C595 1.385 . S
C592 H573 0.951 . S
C592 C590 1.388 . S
C592 C593 1.366 . S
C593 C592 1.366 . S
C593 C594 1.414 . S
C593 C596 1.499 . S
C594 H574 0.950 . S
C594 C593 1.414 . S
C594 C595 1.374 . S
C595 H575 0.950 . S
C595 C591 1.385 . S
C595 C594 1.374 . S
C596 C593 1.499 . S
C596 C597 1.373 . S
C596 C598 1.389 . S
C597 H576 0.950 . S
C597 C596 1.373 . S
C597 C613 1.377 . S
C598 C596 1.389 . S
C598 C599 1.524 . S
C598 C612 1.377 . S
C599 C598 1.524 . S
C599 C600 1.397 . S
C599 C604 1.363 . S
C600 H577 0.950 . S
C600 C599 1.397 . S
C600 C601 1.334 . S
C601 H578 0.950 1_455 S
C601 C600 1.334 . S
C601 C602 1.287 1_455 S
C602 C601 1.287 1_655 S
C602 C603 1.524 1_655 S
C602 H621 0.913 . S
C603 H579 0.950 1_455 S
C603 C602 1.524 1_455 S
C603 C604 1.415 . S
C604 H580 0.950 . S
C604 C599 1.363 . S
C604 C603 1.415 . S
C605 H581 0.951 . S
C605 C606 1.366 . S
C605 C607 1.388 . S
C606 C605 1.366 . S
C606 C610 1.385 . S
C607 H582 0.951 . S
C607 C605 1.388 . S
C607 C608 1.366 . S
C608 C607 1.366 . S
C608 C609 1.414 . S
C608 C611 1.499 . S
C609 H583 0.950 . S
C609 C608 1.414 . S
C609 C610 1.374 . S
C610 H584 0.950 . S
C610 C606 1.385 . S
C610 C609 1.374 . S
C611 C608 1.499 . S
C611 C612 1.373 . S
C611 C613 1.389 . S
C612 H585 0.950 . S
C612 C598 1.377 . S
C612 C611 1.373 . S
C613 C597 1.377 . S
C613 C611 1.389 . S
C613 C614 1.524 . S
C614 C613 1.524 . S
C614 C615 1.397 . S
C614 C619 1.363 . S
C615 H586 0.950 . S
C615 C614 1.397 . S
C615 C616 1.334 . S
C616 H587 0.950 . S
C616 C615 1.334 . S
C616 C617 1.287 . S
C617 C616 1.287 . S
C617 C618 1.524 . S
C617 H620 0.999 . S
C618 H588 0.950 . S
C618 C617 1.524 . S
C618 C619 1.415 . S
C619 H589 0.950 . S
C619 C614 1.363 . S
C619 C618 1.415 . S
H620 C617 0.999 . S
H621 C602 0.913 . S
H622 C640 0.951 . S
H623 C642 0.951 . S
H624 C644 0.950 . S
H625 C645 0.950 . S
H626 C647 0.950 . S
H627 C650 0.950 . S
H628 C651 0.950 . S
H629 C653 0.950 . S
H630 C654 0.950 . S
H631 C655 0.951 . S
H632 C657 0.951 . S
H633 C659 0.950 . S
H634 C660 0.950 1_545 S
H635 C662 0.950 . S
H636 C665 0.950 . S
H637 C666 0.950 . S
H638 C668 0.950 . S
H639 C669 0.950 . S
C640 H622 0.951 . S
C640 C641 1.366 . S
C640 C642 1.388 . S
C641 C640 1.366 . S
C641 C645 1.385 . S
C642 H623 0.951 . S
C642 C640 1.388 . S
C642 C643 1.366 . S
C643 C642 1.366 . S
C643 C644 1.414 . S
C643 C646 1.499 . S
C644 H624 0.950 . S
C644 C643 1.414 . S
C644 C645 1.374 . S
C645 H625 0.950 . S
C645 C641 1.385 . S
C645 C644 1.374 . S
C646 C643 1.499 . S
C646 C647 1.373 . S
C646 C648 1.389 . S
C647 H626 0.950 . S
C647 C646 1.373 . S
C647 C663 1.377 . S
C648 C646 1.389 . S
C648 C649 1.524 . S
C648 C662 1.377 . S
C649 C648 1.524 . S
C649 C650 1.397 . S
C649 C654 1.363 . S
C650 H627 0.950 . S
C650 C649 1.397 . S
C650 C651 1.334 . S
C651 H628 0.950 . S
C651 C650 1.334 . S
C651 C652 1.287 . S
C652 C651 1.287 . S
C652 C653 1.524 . S
C652 H671 0.913 . S
C653 H629 0.950 . S
C653 C652 1.524 . S
C653 C654 1.415 . S
C654 H630 0.950 . S
C654 C649 1.363 . S
C654 C653 1.415 . S
C655 H631 0.951 . S
C655 C656 1.366 . S
C655 C657 1.388 . S
C656 C655 1.366 . S
C656 C660 1.385 . S
C657 H632 0.951 . S
C657 C655 1.388 . S
C657 C658 1.366 . S
C658 C657 1.366 . S
C658 C659 1.414 . S
C658 C661 1.499 . S
C659 H633 0.950 . S
C659 C658 1.414 . S
C659 C660 1.374 . S
C660 H634 0.950 1_565 S
C660 C656 1.385 . S
C660 C659 1.374 . S
C661 C658 1.499 . S
C661 C662 1.373 . S
C661 C663 1.389 . S
C662 H635 0.950 . S
C662 C648 1.377 . S
C662 C661 1.373 . S
C663 C647 1.377 . S
C663 C661 1.389 . S
C663 C664 1.524 . S
C664 C663 1.524 . S
C664 C665 1.397 . S
C664 C669 1.363 . S
C665 H636 0.950 . S
C665 C664 1.397 . S
C665 C666 1.334 . S
C666 H637 0.950 . S
C666 C665 1.334 . S
C666 C667 1.287 . S
C667 C666 1.287 . S
C667 C668 1.524 . S
C667 H670 0.999 . S
C668 H638 0.950 . S
C668 C667 1.524 . S
C668 C669 1.415 . S
C669 H639 0.950 . S
C669 C664 1.363 . S
C669 C668 1.415 . S
H670 C667 0.999 . S
H671 C652 0.913 . S
H672 C690 0.951 . S
H673 C692 0.951 . S
H674 C694 0.950 . S
H675 C695 0.950 . S
H676 C697 0.950 . S
H677 C700 0.950 . S
H678 C701 0.950 . S
H679 C703 0.950 . S
H680 C704 0.950 . S
H681 C705 0.951 . S
H682 C707 0.951 . S
H683 C709 0.950 . S
H684 C710 0.950 . S
H685 C712 0.950 . S
H686 C715 0.950 . S
H687 C716 0.950 . S
H688 C718 0.950 . S
H689 C719 0.950 . S
C690 H672 0.951 . S
C690 C691 1.366 . S
C690 C692 1.388 . S
C691 C690 1.366 . S
C691 C695 1.385 . S
C692 H673 0.951 . S
C692 C690 1.388 . S
C692 C693 1.366 . S
C693 C692 1.366 . S
C693 C694 1.414 . S
C693 C696 1.499 . S
C694 H674 0.950 . S
C694 C693 1.414 . S
C694 C695 1.374 . S
C695 H675 0.950 . S
C695 C691 1.385 . S
C695 C694 1.374 . S
C696 C693 1.499 . S
C696 C697 1.373 . S
C696 C698 1.389 . S
C697 H676 0.950 . S
C697 C696 1.373 . S
C697 C713 1.377 . S
C698 C696 1.389 . S
C698 C699 1.524 . S
C698 C712 1.377 . S
C699 C698 1.524 . S
C699 C700 1.397 . S
C699 C704 1.363 . S
C700 H677 0.950 . S
C700 C699 1.397 . S
C700 C701 1.334 . S
C701 H678 0.950 . S
C701 C700 1.334 . S
C701 C702 1.287 . S
C702 C701 1.287 . S
C702 C703 1.524 . S
C702 H721 0.913 . S
C703 H679 0.950 . S
C703 C702 1.524 . S
C703 C704 1.415 . S
C704 H680 0.950 . S
C704 C699 1.363 . S
C704 C703 1.415 . S
C705 H681 0.951 . S
C705 C706 1.366 . S
C705 C707 1.388 . S
C706 C705 1.366 . S
C706 C710 1.385 . S
C707 H682 0.951 . S
C707 C705 1.388 . S
C707 C708 1.366 . S
C708 C707 1.366 . S
C708 C709 1.414 . S
C708 C711 1.499 . S
C709 H683 0.950 . S
C709 C708 1.414 . S
C709 C710 1.374 . S
C710 H684 0.950 . S
C710 C706 1.385 . S
C710 C709 1.374 . S
C711 C708 1.499 . S
C711 C712 1.373 . S
C711 C713 1.389 . S
C712 H685 0.950 . S
C712 C698 1.377 . S
C712 C711 1.373 . S
C713 C697 1.377 . S
C713 C711 1.389 . S
C713 C714 1.524 . S
C714 C713 1.524 . S
C714 C715 1.397 . S
C714 C719 1.363 . S
C715 H686 0.950 . S
C715 C714 1.397 . S
C715 C716 1.334 . S
C716 H687 0.950 . S
C716 C715 1.334 . S
C716 C717 1.287 . S
C717 C716 1.287 . S
C717 C718 1.524 . S
C717 H720 0.999 . S
C718 H688 0.950 . S
C718 C717 1.524 . S
C718 C719 1.415 . S
C719 H689 0.950 . S
C719 C714 1.363 . S
C719 C718 1.415 . S
H720 C717 0.999 . S
H721 C702 0.913 . S
H722 C740 0.951 . S
H723 C742 0.951 . S
H724 C744 0.950 . S
H725 C745 0.950 . S
H726 C747 0.950 . S
H727 C750 0.950 . S
H728 C751 0.950 . S
H729 C753 0.950 1_455 S
H730 C754 0.950 1_455 S
H731 C755 0.951 . S
H732 C757 0.951 . S
H733 C759 0.950 1_455 S
H734 C760 0.914 1_455 S
H735 C762 0.950 . S
H736 C765 0.950 . S
H737 C766 0.950 . S
H738 C768 0.950 . S
H739 C769 0.950 . S
C740 H722 0.951 . S
C740 C741 1.366 . S
C740 C742 1.388 . S
C741 C740 1.366 . S
C741 C745 1.385 . S
C742 H723 0.951 . S
C742 C740 1.388 . S
C742 C743 1.366 . S
C743 C742 1.366 . S
C743 C744 1.414 . S
C743 C746 1.499 . S
C744 H724 0.950 . S
C744 C743 1.414 . S
C744 C745 1.374 . S
C745 H725 0.950 . S
C745 C741 1.385 . S
C745 C744 1.374 . S
C746 C743 1.499 . S
C746 C747 1.373 . S
C746 C748 1.389 . S
C747 H726 0.950 . S
C747 C746 1.373 . S
C747 C763 1.377 . S
C748 C746 1.389 . S
C748 C749 1.524 . S
C748 C762 1.377 . S
C749 C748 1.524 . S
C749 C750 1.397 . S
C749 C754 1.363 . S
C750 H727 0.950 . S
C750 C749 1.397 . S
C750 C751 1.334 . S
C751 H728 0.950 . S
C751 C750 1.334 . S
C751 C752 1.287 . S
C752 C751 1.287 . S
C752 C753 1.524 . S
C752 H771 0.913 . S
C753 H729 0.950 1_655 S
C753 C752 1.524 . S
C753 C754 1.415 . S
C754 H730 0.950 1_655 S
C754 C749 1.363 . S
C754 C753 1.415 . S
C755 H731 0.951 . S
C755 C756 1.366 . S
C755 C757 1.388 . S
C756 C755 1.366 . S
C756 C760 1.412 . S
C757 H732 0.951 . S
C757 C755 1.388 . S
C757 C758 1.366 . S
C758 C757 1.366 . S
C758 C759 1.414 . S
C758 C761 1.499 . S
C759 H733 0.950 1_655 S
C759 C758 1.414 . S
C759 C760 1.383 . S
C760 H734 0.914 1_655 S
C760 C756 1.412 . S
C760 C759 1.383 . S
C761 C758 1.499 . S
C761 C762 1.373 . S
C761 C763 1.389 . S
C762 H735 0.950 . S
C762 C748 1.377 . S
C762 C761 1.373 . S
C763 C747 1.377 . S
C763 C761 1.389 . S
C763 C764 1.524 . S
C764 C763 1.524 . S
C764 C765 1.397 . S
C764 C769 1.363 . S
C765 H736 0.950 . S
C765 C764 1.397 . S
C765 C766 1.334 . S
C766 H737 0.950 . S
C766 C765 1.334 . S
C766 C767 1.287 . S
C767 C766 1.287 . S
C767 C768 1.524 . S
C767 H770 0.999 . S
C768 H738 0.950 . S
C768 C767 1.524 . S
C768 C769 1.415 . S
C769 H739 0.950 . S
C769 C764 1.363 . S
C769 C768 1.415 . S
H770 C767 0.999 . S
H771 C752 0.913 . S
H772 C790 0.951 . S
H773 C792 0.951 . S
H774 C794 0.950 . S
H775 C795 0.950 . S
H776 C797 0.950 . S
H777 C800 0.950 . S
H778 C801 0.950 . S
H779 C803 0.950 . S
H780 C804 0.950 . S
H781 C805 0.951 . S
H782 C807 0.951 . S
H783 C809 0.950 . S
H784 C810 0.950 . S
H785 C812 0.950 . S
H786 C815 0.950 . S
H787 C816 0.960 . S
H788 C818 0.950 . S
H789 C819 0.950 . S
C790 H772 0.951 . S
C790 C791 1.366 . S
C790 C792 1.388 . S
C791 C790 1.366 . S
C791 C795 1.385 . S
C792 H773 0.951 . S
C792 C790 1.388 . S
C792 C793 1.366 . S
C793 C792 1.366 . S
C793 C794 1.414 . S
C793 C796 1.499 . S
C794 H774 0.950 . S
C794 C793 1.414 . S
C794 C795 1.374 . S
C795 H775 0.950 . S
C795 C791 1.385 . S
C795 C794 1.374 . S
C796 C793 1.499 . S
C796 C797 1.373 . S
C796 C798 1.389 . S
C797 H776 0.950 . S
C797 C796 1.373 . S
C797 C813 1.377 . S
C798 C796 1.389 . S
C798 C799 1.524 . S
C798 C812 1.377 . S
C799 C798 1.524 . S
C799 C800 1.397 . S
C799 C804 1.363 . S
C800 H777 0.950 . S
C800 C799 1.397 . S
C800 C801 1.334 . S
C801 H778 0.950 . S
C801 C800 1.334 . S
C801 C802 1.287 . S
C802 C801 1.287 . S
C802 C803 1.524 . S
C802 H821 0.913 . S
C803 H779 0.950 . S
C803 C802 1.524 . S
C803 C804 1.415 . S
C804 H780 0.950 . S
C804 C799 1.363 . S
C804 C803 1.415 . S
C805 H781 0.951 . S
C805 C806 1.366 . S
C805 C807 1.388 . S
C806 C805 1.366 . S
C806 C810 1.385 . S
C807 H782 0.951 . S
C807 C805 1.388 . S
C807 C808 1.366 . S
C808 C807 1.366 . S
C808 C809 1.414 . S
C808 C811 1.499 . S
C809 H783 0.950 . S
C809 C808 1.414 . S
C809 C810 1.374 . S
C810 H784 0.950 . S
C810 C806 1.385 . S
C810 C809 1.374 . S
C811 C808 1.499 . S
C811 C812 1.373 . S
C811 C813 1.389 . S
C812 H785 0.950 . S
C812 C798 1.377 . S
C812 C811 1.373 . S
C813 C797 1.377 . S
C813 C811 1.389 . S
C813 C814 1.524 . S
C814 C813 1.524 . S
C814 C815 1.397 . S
C814 C819 1.363 . S
C815 H786 0.950 . S
C815 C814 1.397 . S
C815 C816 1.325 1_545 S
C816 H787 0.960 . S
C816 C815 1.325 1_565 S
C816 C817 1.286 1_565 S
C817 C816 1.286 1_545 S
C817 C818 1.548 1_554 S
C817 H820 0.976 1_544 S
C818 H788 0.950 . S
C818 C817 1.548 1_556 S
C818 C819 1.415 1_556 S
C819 H789 0.950 . S
C819 C814 1.363 . S
C819 C818 1.415 1_554 S
H820 C817 0.976 1_566 S
H821 C802 0.913 . S
H822 C840 0.951 . S
H823 C842 0.951 . S
H824 C844 0.950 . S
H825 C845 0.950 . S
H826 C847 0.950 . S
H827 C850 0.950 . S
H828 C851 0.950 . S
H829 C853 0.950 . S
H830 C854 0.950 . S
H831 C855 0.951 . S
H832 C857 0.951 . S
H833 C859 0.950 . S
H834 C860 0.950 . S
H835 C862 0.950 . S
H836 C865 0.950 . S
H837 C866 0.950 . S
H838 C868 0.950 . S
H839 C869 0.950 . S
C840 H822 0.951 . S
C840 C841 1.366 . S
C840 C842 1.388 . S
C841 C840 1.366 . S
C841 C845 1.385 . S
C842 H823 0.951 . S
C842 C840 1.388 . S
C842 C843 1.366 . S
C843 C842 1.366 . S
C843 C844 1.414 . S
C843 C846 1.499 . S
C844 H824 0.950 . S
C844 C843 1.414 . S
C844 C845 1.374 . S
C845 H825 0.950 . S
C845 C841 1.385 . S
C845 C844 1.374 . S
C846 C843 1.499 . S
C846 C847 1.373 . S
C846 C848 1.389 . S
C847 H826 0.950 . S
C847 C846 1.373 . S
C847 C863 1.377 . S
C848 C846 1.389 . S
C848 C849 1.524 . S
C848 C862 1.377 . S
C849 C848 1.524 . S
C849 C850 1.397 . S
C849 C854 1.363 . S
C850 H827 0.950 . S
C850 C849 1.397 . S
C850 C851 1.334 . S
C851 H828 0.950 . S
C851 C850 1.334 . S
C851 C852 1.287 . S
C852 C851 1.287 . S
C852 C853 1.524 . S
C852 H871 0.913 . S
C853 H829 0.950 . S
C853 C852 1.524 . S
C853 C854 1.415 . S
C854 H830 0.950 . S
C854 C849 1.363 . S
C854 C853 1.415 . S
C855 H831 0.951 . S
C855 C856 1.366 . S
C855 C857 1.388 . S
C856 C855 1.366 . S
C856 C860 1.385 . S
C857 H832 0.951 . S
C857 C855 1.388 . S
C857 C858 1.366 . S
C858 C857 1.366 . S
C858 C859 1.414 . S
C858 C861 1.499 . S
C859 H833 0.950 . S
C859 C858 1.414 . S
C859 C860 1.374 . S
C860 H834 0.950 . S
C860 C856 1.385 . S
C860 C859 1.374 . S
C861 C858 1.499 . S
C861 C862 1.373 . S
C861 C863 1.389 . S
C862 H835 0.950 . S
C862 C848 1.377 . S
C862 C861 1.373 . S
C863 C847 1.377 . S
C863 C861 1.389 . S
C863 C864 1.524 . S
C864 C863 1.524 . S
C864 C865 1.397 . S
C864 C869 1.363 . S
C865 H836 0.950 . S
C865 C864 1.397 . S
C865 C866 1.334 1_565 S
C866 H837 0.950 . S
C866 C865 1.334 1_545 S
C866 C867 1.287 . S
C867 C866 1.287 . S
C867 C868 1.524 . S
C867 H870 0.999 . S
C868 H838 0.950 . S
C868 C867 1.524 . S
C868 C869 1.415 1_545 S
C869 H839 0.950 . S
C869 C864 1.363 . S
C869 C868 1.415 1_565 S
H870 C867 0.999 . S
H871 C852 0.913 . S
H872 C890 0.951 . S
H873 C892 0.951 . S
H874 C894 0.950 . S
H875 C895 0.950 . S
H876 C897 0.950 . S
H877 C900 0.950 . S
H878 C901 0.950 . S
H879 C903 0.950 . S
H880 C904 0.950 . S
H881 C905 0.951 . S
H882 C907 0.951 . S
H883 C909 0.950 . S
H884 C910 0.950 . S
H885 C912 0.950 . S
H886 C915 0.950 . S
H887 C916 0.950 1_554 S
H888 C918 0.950 . S
H889 C919 0.950 . S
C890 H872 0.951 . S
C890 C891 1.366 . S
C890 C892 1.388 . S
C891 C890 1.366 . S
C891 C895 1.385 . S
C892 H873 0.951 . S
C892 C890 1.388 . S
C892 C893 1.366 . S
C893 C892 1.366 . S
C893 C894 1.414 . S
C893 C896 1.499 . S
C894 H874 0.950 . S
C894 C893 1.414 . S
C894 C895 1.374 . S
C895 H875 0.950 . S
C895 C891 1.385 . S
C895 C894 1.374 . S
C896 C893 1.499 . S
C896 C897 1.373 . S
C896 C898 1.389 . S
C897 H876 0.950 . S
C897 C896 1.373 . S
C897 C913 1.377 . S
C898 C896 1.389 . S
C898 C899 1.524 . S
C898 C912 1.377 . S
C899 C898 1.524 . S
C899 C900 1.397 . S
C899 C904 1.363 . S
C900 H877 0.950 . S
C900 C899 1.397 . S
C900 C901 1.334 . S
C901 H878 0.950 . S
C901 C900 1.334 . S
C901 C902 1.287 . S
C902 C901 1.287 . S
C902 C903 1.524 . S
C902 H921 0.913 . S
C903 H879 0.950 . S
C903 C902 1.524 . S
C903 C904 1.415 . S
C904 H880 0.950 . S
C904 C899 1.363 . S
C904 C903 1.415 . S
C905 H881 0.951 . S
C905 C906 1.366 . S
C905 C907 1.388 . S
C906 C905 1.366 . S
C906 C910 1.385 . S
C907 H882 0.951 . S
C907 C905 1.388 . S
C907 C908 1.366 . S
C908 C907 1.366 . S
C908 C909 1.414 . S
C908 C911 1.499 . S
C909 H883 0.950 . S
C909 C908 1.414 . S
C909 C910 1.374 . S
C910 H884 0.950 . S
C910 C906 1.385 . S
C910 C909 1.374 . S
C911 C908 1.499 . S
C911 C912 1.373 . S
C911 C913 1.389 . S
C912 H885 0.950 . S
C912 C898 1.377 . S
C912 C911 1.373 . S
C913 C897 1.377 . S
C913 C911 1.389 . S
C913 C914 1.524 . S
C914 C913 1.524 . S
C914 C915 1.397 . S
C914 C919 1.363 . S
C915 H886 0.950 . S
C915 C914 1.397 . S
C915 C916 1.334 . S
C916 H887 0.950 1_556 S
C916 C915 1.334 . S
C916 C917 1.287 . S
C917 C916 1.287 . S
C917 C918 1.524 . S
C917 H920 0.999 . S
C918 H888 0.950 . S
C918 C917 1.524 . S
C918 C919 1.415 . S
C919 H889 0.950 . S
C919 C914 1.363 . S
C919 C918 1.415 . S
H920 C917 0.999 . S
H921 C902 0.913 . S
H922 C940 0.951 . S
H923 C942 0.951 . S
H924 C944 0.950 . S
H925 C945 0.950 . S
H926 C947 0.950 . S
H927 C950 0.950 . S
H928 C951 0.950 . S
H929 C953 0.950 . S
H930 C954 0.950 . S
H931 C955 0.951 . S
H932 C957 0.951 . S
H933 C959 0.950 . S
H934 C960 0.950 . S
H935 C962 0.950 . S
H936 C965 0.950 . S
H937 C966 0.950 . S
H938 C968 0.950 . S
H939 C969 0.950 . S
C940 H922 0.951 . S
C940 C941 1.366 . S
C940 C942 1.388 . S
C941 C940 1.366 . S
C941 C945 1.385 . S
C942 H923 0.951 . S
C942 C940 1.388 . S
C942 C943 1.366 . S
C943 C942 1.366 . S
C943 C944 1.414 . S
C943 C946 1.499 . S
C944 H924 0.950 . S
C944 C943 1.414 . S
C944 C945 1.374 . S
C945 H925 0.950 . S
C945 C941 1.385 . S
C945 C944 1.374 . S
C946 C943 1.499 . S
C946 C947 1.373 . S
C946 C948 1.389 . S
C947 H926 0.950 . S
C947 C946 1.373 . S
C947 C963 1.377 . S
C948 C946 1.389 . S
C948 C949 1.524 . S
C948 C962 1.377 . S
C949 C948 1.524 . S
C949 C950 1.397 . S
C949 C954 1.363 . S
C950 H927 0.950 . S
C950 C949 1.397 . S
C950 C951 1.334 . S
C951 H928 0.950 . S
C951 C950 1.334 . S
C951 C952 1.287 . S
C952 C951 1.287 . S
C952 C953 1.524 . S
C952 H971 0.913 . S
C953 H929 0.950 . S
C953 C952 1.524 . S
C953 C954 1.415 . S
C954 H930 0.950 . S
C954 C949 1.363 . S
C954 C953 1.415 . S
C955 H931 0.951 . S
C955 C956 1.366 . S
C955 C957 1.388 . S
C956 C955 1.366 . S
C956 C960 1.385 . S
C957 H932 0.951 . S
C957 C955 1.388 . S
C957 C958 1.366 . S
C958 C957 1.366 . S
C958 C959 1.414 . S
C958 C961 1.499 . S
C959 H933 0.950 . S
C959 C958 1.414 . S
C959 C960 1.374 . S
C960 H934 0.950 . S
C960 C956 1.385 . S
C960 C959 1.374 . S
C961 C958 1.499 . S
C961 C962 1.373 . S
C961 C963 1.389 . S
C962 H935 0.950 . S
C962 C948 1.377 . S
C962 C961 1.373 . S
C963 C947 1.377 . S
C963 C961 1.389 . S
C963 C964 1.524 . S
C964 C963 1.524 . S
C964 C965 1.397 . S
C964 C969 1.363 . S
C965 H936 0.950 . S
C965 C964 1.397 . S
C965 C966 1.334 . S
C966 H937 0.950 . S
C966 C965 1.334 . S
C966 C967 1.287 . S
C967 C966 1.287 . S
C967 C968 1.524 . S
C967 H970 0.999 . S
C968 H938 0.950 . S
C968 C967 1.524 . S
C968 C969 1.415 . S
C969 H939 0.950 . S
C969 C964 1.363 . S
C969 C968 1.415 . S
H970 C967 0.999 . S
H971 C952 0.913 . S
H972 C990 0.951 . S
H973 C992 0.951 . S
H974 C994 0.950 . S
H975 C995 0.950 . S
H976 C997 0.950 . S
H977 C1000 0.950 . S
H978 C1001 0.950 . S
H979 C1003 0.950 1_655 S
H980 C1004 0.950 . S
H981 C1005 0.951 . S
H982 C1007 0.951 . S
H983 C1009 0.950 . S
H984 C1010 0.950 1_655 S
H985 C1012 0.950 . S
H986 C1015 0.950 . S
H987 C1016 0.950 . S
H988 C1018 0.950 . S
H989 C1019 0.950 . S
C990 H972 0.951 . S
C990 C991 1.366 . S
C990 C992 1.388 . S
C991 C990 1.366 . S
C991 C995 1.385 . S
C992 H973 0.951 . S
C992 C990 1.388 . S
C992 C993 1.366 . S
C993 C992 1.366 . S
C993 C994 1.414 . S
C993 C996 1.499 . S
C994 H974 0.950 . S
C994 C993 1.414 . S
C994 C995 1.374 . S
C995 H975 0.950 . S
C995 C991 1.385 . S
C995 C994 1.374 . S
C996 C993 1.499 . S
C996 C997 1.373 . S
C996 C998 1.389 . S
C997 H976 0.950 . S
C997 C996 1.373 . S
C997 C1013 1.377 . S
C998 C996 1.389 . S
C998 C999 1.524 . S
C998 C1012 1.377 . S
C999 C998 1.524 . S
C999 C1000 1.397 . S
C999 C1004 1.363 . S
C1000 H977 0.950 . S
C1000 C999 1.397 . S
C1000 C1001 1.334 . S
C1001 H978 0.950 . S
C1001 C1000 1.334 . S
C1001 C1002 1.287 . S
C1002 C1001 1.287 . S
C1002 C1003 1.524 . S
C1002 H1021 0.913 . S
C1003 H979 0.950 1_455 S
C1003 C1002 1.524 . S
C1003 C1004 1.415 . S
C1004 H980 0.950 . S
C1004 C999 1.363 . S
C1004 C1003 1.415 . S
C1005 H981 0.951 . S
C1005 C1006 1.366 . S
C1005 C1007 1.388 . S
C1006 C1005 1.366 . S
C1006 C1010 1.385 . S
C1007 H982 0.951 . S
C1007 C1005 1.388 . S
C1007 C1008 1.366 . S
C1008 C1007 1.366 . S
C1008 C1009 1.414 . S
C1008 C1011 1.499 . S
C1009 H983 0.950 . S
C1009 C1008 1.414 . S
C1009 C1010 1.374 . S
C1010 H984 0.950 1_455 S
C1010 C1006 1.385 . S
C1010 C1009 1.374 . S
C1011 C1008 1.499 . S
C1011 C1012 1.373 . S
C1011 C1013 1.389 . S
C1012 H985 0.950 . S
C1012 C998 1.377 . S
C1012 C1011 1.373 . S
C1013 C997 1.377 . S
C1013 C1011 1.389 . S
C1013 C1014 1.524 . S
C1014 C1013 1.524 . S
C1014 C1015 1.397 . S
C1014 C1019 1.363 . S
C1015 H986 0.950 . S
C1015 C1014 1.397 . S
C1015 C1016 1.334 . S
C1016 H987 0.950 . S
C1016 C1015 1.334 . S
C1016 C1017 1.287 . S
C1017 C1016 1.287 . S
C1017 C1018 1.524 . S
C1017 H1020 0.999 . S
C1018 H988 0.950 . S
C1018 C1017 1.524 . S
C1018 C1019 1.415 . S
C1019 H989 0.950 . S
C1019 C1014 1.363 . S
C1019 C1018 1.415 . S
H1020 C1017 0.999 . S
H1021 C1002 0.913 . S
H1022 C1040 0.951 . S
H1023 C1042 0.951 . S
H1024 C1044 0.950 . S
H1025 C1045 0.950 . S
H1026 C1047 0.950 . S
H1027 C1050 0.936 1_556 S
H1028 C1051 0.950 . S
H1029 C1053 0.950 . S
H1030 C1054 0.950 . S
H1031 C1055 0.951 . S
H1032 C1057 0.951 . S
H1033 C1059 0.950 . S
H1034 C1060 0.950 1_554 S
H1035 C1062 0.950 1_554 S
H1036 C1065 0.950 . S
H1037 C1066 0.950 . S
H1038 C1068 0.950 . S
H1039 C1069 0.950 . S
C1040 H1022 0.951 . S
C1040 C1041 1.366 . S
C1040 C1042 1.388 . S
C1041 C1040 1.366 . S
C1041 C1045 1.385 . S
C1042 H1023 0.951 . S
C1042 C1040 1.388 . S
C1042 C1043 1.366 . S
C1043 C1042 1.366 . S
C1043 C1044 1.414 . S
C1043 C1046 1.499 . S
C1044 H1024 0.950 . S
C1044 C1043 1.414 . S
C1044 C1045 1.374 . S
C1045 H1025 0.950 . S
C1045 C1041 1.385 . S
C1045 C1044 1.374 . S
C1046 C1043 1.499 . S
C1046 C1047 1.373 . S
C1046 C1048 1.389 . S
C1047 H1026 0.950 . S
C1047 C1046 1.373 . S
C1047 C1063 1.377 . S
C1048 C1046 1.389 . S
C1048 C1049 1.530 . S
C1048 C1062 1.377 . S
C1049 C1048 1.530 . S
C1049 C1050 1.396 1_556 S
C1049 C1054 1.357 1_556 S
C1050 H1027 0.936 1_554 S
C1050 C1049 1.396 1_554 S
C1050 C1051 1.348 . S
C1051 H1028 0.950 . S
C1051 C1050 1.348 . S
C1051 C1052 1.287 . S
C1052 C1051 1.287 . S
C1052 C1053 1.524 . S
C1052 H1071 0.913 . S
C1053 H1029 0.950 . S
C1053 C1052 1.524 . S
C1053 C1054 1.415 . S
C1054 H1030 0.950 . S
C1054 C1049 1.357 1_554 S
C1054 C1053 1.415 . S
C1055 H1031 0.951 . S
C1055 C1056 1.366 . S
C1055 C1057 1.388 . S
C1056 C1055 1.366 . S
C1056 C1060 1.385 . S
C1057 H1032 0.951 . S
C1057 C1055 1.388 . S
C1057 C1058 1.366 . S
C1058 C1057 1.366 . S
C1058 C1059 1.414 . S
C1058 C1061 1.499 . S
C1059 H1033 0.950 . S
C1059 C1058 1.414 . S
C1059 C1060 1.374 . S
C1060 H1034 0.950 1_556 S
C1060 C1056 1.385 . S
C1060 C1059 1.374 . S
C1061 C1058 1.499 . S
C1061 C1062 1.373 . S
C1061 C1063 1.389 . S
C1062 H1035 0.950 1_556 S
C1062 C1048 1.377 . S
C1062 C1061 1.373 . S
C1063 C1047 1.377 . S
C1063 C1061 1.389 . S
C1063 C1064 1.524 . S
C1064 C1063 1.524 . S
C1064 C1065 1.397 . S
C1064 C1069 1.363 . S
C1065 H1036 0.950 . S
C1065 C1064 1.397 . S
C1065 C1066 1.334 . S
C1066 H1037 0.950 . S
C1066 C1065 1.334 . S
C1066 C1067 1.287 . S
C1067 C1066 1.287 . S
C1067 C1068 1.524 . S
C1067 H1070 0.999 . S
C1068 H1038 0.950 . S
C1068 C1067 1.524 . S
C1068 C1069 1.415 . S
C1069 H1039 0.950 . S
C1069 C1064 1.363 . S
C1069 C1068 1.415 . S
H1070 C1067 0.999 . S
H1071 C1052 0.913 . S
H1072 C1090 0.951 . S
H1073 C1092 0.951 . S
H1074 C1094 0.950 . S
H1075 C1095 0.950 . S
H1076 C1097 0.950 . S
H1077 C1100 0.950 . S
H1078 C1101 0.950 . S
H1079 C1103 0.950 . S
H1080 C1104 0.950 . S
H1081 C1105 0.951 1_455 S
H1082 C1107 0.951 . S
H1083 C1109 0.950 . S
H1084 C1110 0.950 . S
H1085 C1112 0.950 . S
H1086 C1115 0.950 . S
H1087 C1116 0.950 . S
H1088 C1118 0.950 . S
H1089 C1119 0.950 . S
C1090 H1072 0.951 . S
C1090 C1091 1.366 . S
C1090 C1092 1.388 . S
C1091 C1090 1.366 . S
C1091 C1095 1.385 . S
C1092 H1073 0.951 . S
C1092 C1090 1.388 . S
C1092 C1093 1.366 . S
C1093 C1092 1.366 . S
C1093 C1094 1.414 . S
C1093 C1096 1.499 . S
C1094 H1074 0.950 . S
C1094 C1093 1.414 . S
C1094 C1095 1.374 . S
C1095 H1075 0.950 . S
C1095 C1091 1.385 . S
C1095 C1094 1.374 . S
C1096 C1093 1.499 . S
C1096 C1097 1.373 . S
C1096 C1098 1.389 . S
C1097 H1076 0.950 . S
C1097 C1096 1.373 . S
C1097 C1113 1.377 . S
C1098 C1096 1.389 . S
C1098 C1099 1.524 . S
C1098 C1112 1.377 . S
C1099 C1098 1.524 . S
C1099 C1100 1.397 . S
C1099 C1104 1.363 . S
C1100 H1077 0.950 . S
C1100 C1099 1.397 . S
C1100 C1101 1.334 . S
C1101 H1078 0.950 . S
C1101 C1100 1.334 . S
C1101 C1102 1.287 . S
C1102 C1101 1.287 . S
C1102 C1103 1.524 . S
C1102 H1121 0.913 . S
C1103 H1079 0.950 . S
C1103 C1102 1.524 . S
C1103 C1104 1.415 . S
C1104 H1080 0.950 . S
C1104 C1099 1.363 . S
C1104 C1103 1.415 . S
C1105 H1081 0.951 1_655 S
C1105 C1106 1.366 . S
C1105 C1107 1.388 . S
C1106 C1105 1.366 . S
C1106 C1110 1.385 . S
C1107 H1082 0.951 . S
C1107 C1105 1.388 . S
C1107 C1108 1.366 . S
C1108 C1107 1.366 . S
C1108 C1109 1.414 . S
C1108 C1111 1.499 . S
C1109 H1083 0.950 . S
C1109 C1108 1.414 . S
C1109 C1110 1.374 . S
C1110 H1084 0.950 . S
C1110 C1106 1.385 . S
C1110 C1109 1.374 . S
C1111 C1108 1.499 . S
C1111 C1112 1.373 . S
C1111 C1113 1.389 . S
C1112 H1085 0.950 . S
C1112 C1098 1.377 . S
C1112 C1111 1.373 . S
C1113 C1097 1.377 . S
C1113 C1111 1.389 . S
C1113 C1114 1.524 1_655 S
C1114 C1113 1.524 1_455 S
C1114 C1115 1.397 . S
C1114 C1119 1.363 . S
C1115 H1086 0.950 . S
C1115 C1114 1.397 . S
C1115 C1116 1.334 . S
C1116 H1087 0.950 . S
C1116 C1115 1.334 . S
C1116 C1117 1.287 . S
C1117 C1116 1.287 . S
C1117 C1118 1.524 . S
C1117 H1120 0.999 . S
C1118 H1088 0.950 . S
C1118 C1117 1.524 . S
C1118 C1119 1.415 . S
C1119 H1089 0.950 . S
C1119 C1114 1.363 . S
C1119 C1118 1.415 . S
H1120 C1117 0.999 . S
H1121 C1102 0.913 . S
H1122 C1140 0.951 . S
H1123 C1142 0.951 . S
H1124 C1144 0.950 . S
H1125 C1145 0.950 . S
H1126 C1147 0.950 . S
H1127 C1150 0.950 . S
H1128 C1151 0.950 . S
H1129 C1153 0.950 . S
H1130 C1154 0.950 . S
H1131 C1155 0.951 . S
H1132 C1157 0.951 . S
H1133 C1159 0.950 . S
H1134 C1160 0.950 . S
H1135 C1162 0.950 . S
H1136 C1165 0.950 . S
H1137 C1166 0.950 . S
H1138 C1168 0.950 . S
H1139 C1169 0.950 . S
C1140 H1122 0.951 . S
C1140 C1141 1.366 . S
C1140 C1142 1.388 . S
C1141 C1140 1.366 . S
C1141 C1145 1.385 . S
C1142 H1123 0.951 . S
C1142 C1140 1.388 . S
C1142 C1143 1.366 . S
C1143 C1142 1.366 . S
C1143 C1144 1.414 . S
C1143 C1146 1.499 . S
C1144 H1124 0.950 . S
C1144 C1143 1.414 . S
C1144 C1145 1.374 . S
C1145 H1125 0.950 . S
C1145 C1141 1.385 . S
C1145 C1144 1.374 . S
C1146 C1143 1.499 . S
C1146 C1147 1.373 . S
C1146 C1148 1.389 . S
C1147 H1126 0.950 . S
C1147 C1146 1.373 . S
C1147 C1163 1.377 . S
C1148 C1146 1.389 . S
C1148 C1149 1.524 . S
C1148 C1162 1.377 . S
C1149 C1148 1.524 . S
C1149 C1150 1.397 . S
C1149 C1154 1.363 . S
C1150 H1127 0.950 . S
C1150 C1149 1.397 . S
C1150 C1151 1.334 . S
C1151 H1128 0.950 . S
C1151 C1150 1.334 . S
C1151 C1152 1.287 . S
C1152 C1151 1.287 . S
C1152 C1153 1.524 . S
C1152 H1171 0.913 . S
C1153 H1129 0.950 . S
C1153 C1152 1.524 . S
C1153 C1154 1.415 . S
C1154 H1130 0.950 . S
C1154 C1149 1.363 . S
C1154 C1153 1.415 . S
C1155 H1131 0.951 . S
C1155 C1156 1.366 . S
C1155 C1157 1.388 . S
C1156 C1155 1.366 . S
C1156 C1160 1.385 . S
C1157 H1132 0.951 . S
C1157 C1155 1.388 . S
C1157 C1158 1.366 . S
C1158 C1157 1.366 . S
C1158 C1159 1.414 . S
C1158 C1161 1.499 . S
C1159 H1133 0.950 . S
C1159 C1158 1.414 . S
C1159 C1160 1.374 . S
C1160 H1134 0.950 . S
C1160 C1156 1.385 . S
C1160 C1159 1.374 . S
C1161 C1158 1.499 . S
C1161 C1162 1.373 . S
C1161 C1163 1.389 . S
C1162 H1135 0.950 . S
C1162 C1148 1.377 . S
C1162 C1161 1.373 . S
C1163 C1147 1.377 . S
C1163 C1161 1.389 . S
C1163 C1164 1.524 . S
C1164 C1163 1.524 . S
C1164 C1165 1.397 . S
C1164 C1169 1.363 . S
C1165 H1136 0.950 . S
C1165 C1164 1.397 . S
C1165 C1166 1.334 . S
C1166 H1137 0.950 . S
C1166 C1165 1.334 . S
C1166 C1167 1.287 . S
C1167 C1166 1.287 . S
C1167 C1168 1.524 . S
C1167 H1170 0.999 . S
C1168 H1138 0.950 . S
C1168 C1167 1.524 . S
C1168 C1169 1.415 . S
C1169 H1139 0.950 . S
C1169 C1164 1.363 . S
C1169 C1168 1.415 . S
H1170 C1167 0.999 . S
H1171 C1152 0.913 . S
H1172 C1190 0.951 . S
H1173 C1192 0.951 . S
H1174 C1194 0.950 . S
H1175 C1195 0.950 . S
H1176 C1197 0.950 . S
H1177 C1200 0.950 . S
H1178 C1201 0.950 . S
H1179 C1203 0.950 . S
H1180 C1204 0.950 . S
H1181 C1205 0.951 . S
H1182 C1207 0.951 1_455 S
H1183 C1209 0.950 . S
H1184 C1210 0.950 . S
H1185 C1212 0.950 . S
H1186 C1215 0.950 . S
H1187 C1216 0.950 . S
H1188 C1218 0.950 . S
H1189 C1219 0.950 . S
C1190 H1172 0.951 . S
C1190 C1191 1.366 . S
C1190 C1192 1.388 . S
C1191 C1190 1.366 . S
C1191 C1195 1.385 . S
C1192 H1173 0.951 . S
C1192 C1190 1.388 . S
C1192 C1193 1.366 . S
C1193 C1192 1.366 . S
C1193 C1194 1.414 . S
C1193 C1196 1.499 . S
C1194 H1174 0.950 . S
C1194 C1193 1.414 . S
C1194 C1195 1.374 . S
C1195 H1175 0.950 . S
C1195 C1191 1.385 . S
C1195 C1194 1.374 . S
C1196 C1193 1.499 . S
C1196 C1197 1.373 1_565 S
C1196 C1198 1.389 . S
C1197 H1176 0.950 . S
C1197 C1196 1.373 1_545 S
C1197 C1213 1.377 . S
C1198 C1196 1.389 . S
C1198 C1199 1.524 . S
C1198 C1212 1.377 . S
C1199 C1198 1.524 . S
C1199 C1200 1.397 . S
C1199 C1204 1.363 . S
C1200 H1177 0.950 . S
C1200 C1199 1.397 . S
C1200 C1201 1.334 . S
C1201 H1178 0.950 . S
C1201 C1200 1.334 . S
C1201 C1202 1.287 . S
C1202 C1201 1.287 . S
C1202 C1203 1.524 . S
C1202 H1221 0.913 . S
C1203 H1179 0.950 . S
C1203 C1202 1.524 . S
C1203 C1204 1.415 . S
C1204 H1180 0.950 . S
C1204 C1199 1.363 . S
C1204 C1203 1.415 . S
C1205 H1181 0.951 . S
C1205 C1206 1.358 1_445 S
C1205 C1207 1.388 1_455 S
C1206 C1205 1.358 1_665 S
C1206 C1210 1.398 . S
C1207 H1182 0.951 1_655 S
C1207 C1205 1.388 1_655 S
C1207 C1208 1.366 1_545 S
C1208 C1207 1.366 1_565 S
C1208 C1209 1.414 . S
C1208 C1211 1.499 . S
C1209 H1183 0.950 . S
C1209 C1208 1.414 . S
C1209 C1210 1.374 . S
C1210 H1184 0.950 . S
C1210 C1206 1.398 . S
C1210 C1209 1.374 . S
C1211 C1208 1.499 . S
C1211 C1212 1.373 . S
C1211 C1213 1.389 1_565 S
C1212 H1185 0.950 . S
C1212 C1198 1.377 . S
C1212 C1211 1.373 . S
C1213 C1197 1.377 . S
C1213 C1211 1.389 1_545 S
C1213 C1214 1.524 . S
C1214 C1213 1.524 . S
C1214 C1215 1.397 . S
C1214 C1219 1.363 1_655 S
C1215 H1186 0.950 . S
C1215 C1214 1.397 . S
C1215 C1216 1.334 . S
C1216 H1187 0.950 . S
C1216 C1215 1.334 . S
C1216 C1217 1.287 . S
C1217 C1216 1.287 . S
C1217 C1218 1.524 1_655 S
C1217 H1220 0.999 . S
C1218 H1188 0.950 . S
C1218 C1217 1.524 1_455 S
C1218 C1219 1.415 . S
C1219 H1189 0.950 . S
C1219 C1214 1.363 1_455 S
C1219 C1218 1.415 . S
H1220 C1217 0.999 . S
H1221 C1202 0.913 . S
H1222 C1240 0.951 . S
H1223 C1242 0.951 1_565 S
H1224 C1244 0.950 . S
H1225 C1245 0.950 . S
H1226 C1247 0.950 . S
H1227 C1250 0.950 . S
H1228 C1251 0.950 . S
H1229 C1253 0.950 . S
H1230 C1254 0.950 . S
H1231 C1255 0.951 . S
H1232 C1257 0.951 . S
H1233 C1259 0.950 . S
H1234 C1260 0.950 . S
H1235 C1262 0.950 . S
H1236 C1265 0.950 . S
H1237 C1266 0.950 . S
H1238 C1268 0.950 . S
H1239 C1269 0.950 . S
C1240 H1222 0.951 . S
C1240 C1241 1.366 . S
C1240 C1242 1.388 . S
C1241 C1240 1.366 . S
C1241 C1245 1.385 . S
C1242 H1223 0.951 1_545 S
C1242 C1240 1.388 . S
C1242 C1243 1.366 . S
C1243 C1242 1.366 . S
C1243 C1244 1.414 . S
C1243 C1246 1.499 . S
C1244 H1224 0.950 . S
C1244 C1243 1.414 . S
C1244 C1245 1.374 . S
C1245 H1225 0.950 . S
C1245 C1241 1.385 . S
C1245 C1244 1.374 . S
C1246 C1243 1.499 . S
C1246 C1247 1.373 . S
C1246 C1248 1.389 . S
C1247 H1226 0.950 . S
C1247 C1246 1.373 . S
C1247 C1263 1.377 . S
C1248 C1246 1.389 . S
C1248 C1249 1.524 . S
C1248 C1262 1.377 . S
C1249 C1248 1.524 . S
C1249 C1250 1.397 . S
C1249 C1254 1.363 1_545 S
C1250 H1227 0.950 . S
C1250 C1249 1.397 . S
C1250 C1251 1.334 . S
C1251 H1228 0.950 . S
C1251 C1250 1.334 . S
C1251 C1252 1.287 1_545 S
C1252 C1251 1.287 1_565 S
C1252 C1253 1.524 . S
C1252 H1271 0.913 . S
C1253 H1229 0.950 . S
C1253 C1252 1.524 . S
C1253 C1254 1.415 . S
C1254 H1230 0.950 . S
C1254 C1249 1.363 1_565 S
C1254 C1253 1.415 . S
C1255 H1231 0.951 . S
C1255 C1256 1.366 . S
C1255 C1257 1.388 . S
C1256 C1255 1.366 . S
C1256 C1260 1.385 1_545 S
C1257 H1232 0.951 . S
C1257 C1255 1.388 . S
C1257 C1258 1.366 . S
C1258 C1257 1.366 . S
C1258 C1259 1.414 1_545 S
C1258 C1261 1.499 . S
C1259 H1233 0.950 . S
C1259 C1258 1.414 1_565 S
C1259 C1260 1.374 . S
C1260 H1234 0.950 . S
C1260 C1256 1.385 1_565 S
C1260 C1259 1.374 . S
C1261 C1258 1.499 . S
C1261 C1262 1.373 . S
C1261 C1263 1.389 . S
C1262 H1235 0.950 . S
C1262 C1248 1.377 . S
C1262 C1261 1.373 . S
C1263 C1247 1.377 . S
C1263 C1261 1.389 . S
C1263 C1264 1.524 . S
C1264 C1263 1.524 . S
C1264 C1265 1.397 . S
C1264 C1269 1.363 . S
C1265 H1236 0.950 . S
C1265 C1264 1.397 . S
C1265 C1266 1.334 . S
C1266 H1237 0.950 . S
C1266 C1265 1.334 . S
C1266 C1267 1.287 . S
C1267 C1266 1.287 . S
C1267 C1268 1.524 . S
C1267 H1270 0.999 . S
C1268 H1238 0.950 . S
C1268 C1267 1.524 . S
C1268 C1269 1.415 . S
C1269 H1239 0.950 . S
C1269 C1264 1.363 . S
C1269 C1268 1.415 . S
H1270 C1267 0.999 . S
H1271 C1252 0.913 . S
H1272 C1290 0.951 . S
H1273 C1292 0.951 . S
H1274 C1294 0.950 . S
H1275 C1295 0.950 . S
H1276 C1297 0.950 . S
H1277 C1300 0.950 . S
H1278 C1301 0.950 . S
H1279 C1303 0.950 . S
H1280 C1304 0.950 . S
H1281 C1305 0.951 . S
H1282 C1307 0.951 . S
H1283 C1309 0.950 . S
H1284 C1310 0.950 . S
H1285 C1312 0.950 . S
H1286 C1315 0.950 . S
H1287 C1316 0.950 . S
H1288 C1318 0.950 . S
H1289 C1319 0.950 . S
C1290 H1272 0.951 . S
C1290 C1291 1.366 . S
C1290 C1292 1.388 . S
C1291 C1290 1.366 . S
C1291 C1295 1.385 . S
C1292 H1273 0.951 . S
C1292 C1290 1.388 . S
C1292 C1293 1.366 . S
C1293 C1292 1.366 . S
C1293 C1294 1.414 . S
C1293 C1296 1.499 . S
C1294 H1274 0.950 . S
C1294 C1293 1.414 . S
C1294 C1295 1.374 . S
C1295 H1275 0.950 . S
C1295 C1291 1.385 . S
C1295 C1294 1.374 . S
C1296 C1293 1.499 . S
C1296 C1297 1.373 . S
C1296 C1298 1.389 . S
C1297 H1276 0.950 . S
C1297 C1296 1.373 . S
C1297 C1313 1.377 . S
C1298 C1296 1.389 . S
C1298 C1299 1.524 . S
C1298 C1312 1.377 . S
C1299 C1298 1.524 . S
C1299 C1300 1.397 . S
C1299 C1304 1.363 . S
C1300 H1277 0.950 . S
C1300 C1299 1.397 . S
C1300 C1301 1.334 . S
C1301 H1278 0.950 . S
C1301 C1300 1.334 . S
C1301 C1302 1.287 . S
C1302 C1301 1.287 . S
C1302 C1303 1.524 . S
C1302 H1321 0.913 . S
C1303 H1279 0.950 . S
C1303 C1302 1.524 . S
C1303 C1304 1.415 . S
C1304 H1280 0.950 . S
C1304 C1299 1.363 . S
C1304 C1303 1.415 . S
C1305 H1281 0.951 . S
C1305 C1306 1.366 . S
C1305 C1307 1.388 . S
C1306 C1305 1.366 . S
C1306 C1310 1.385 . S
C1307 H1282 0.951 . S
C1307 C1305 1.388 . S
C1307 C1308 1.366 . S
C1308 C1307 1.366 . S
C1308 C1309 1.414 . S
C1308 C1311 1.499 . S
C1309 H1283 0.950 . S
C1309 C1308 1.414 . S
C1309 C1310 1.374 . S
C1310 H1284 0.950 . S
C1310 C1306 1.385 . S
C1310 C1309 1.374 . S
C1311 C1308 1.499 . S
C1311 C1312 1.373 . S
C1311 C1313 1.389 . S
C1312 H1285 0.950 . S
C1312 C1298 1.377 . S
C1312 C1311 1.373 . S
C1313 C1297 1.377 . S
C1313 C1311 1.389 . S
C1313 C1314 1.524 . S
C1314 C1313 1.524 . S
C1314 C1315 1.397 . S
C1314 C1319 1.363 . S
C1315 H1286 0.950 . S
C1315 C1314 1.397 . S
C1315 C1316 1.334 . S
C1316 H1287 0.950 . S
C1316 C1315 1.334 . S
C1316 C1317 1.287 . S
C1317 C1316 1.287 . S
C1317 C1318 1.524 . S
C1317 H1320 0.999 . S
C1318 H1288 0.950 . S
C1318 C1317 1.524 . S
C1318 C1319 1.415 . S
C1319 H1289 0.950 . S
C1319 C1314 1.363 . S
C1319 C1318 1.415 . S
H1320 C1317 0.999 . S
H1321 C1302 0.913 . S
H1322 C1340 0.951 . S
H1323 C1342 0.951 . S
H1324 C1344 0.950 . S
H1325 C1345 0.950 . S
H1326 C1347 0.950 . S
H1327 C1350 0.950 . S
H1328 C1351 0.950 . S
H1329 C1353 0.950 . S
H1330 C1354 0.950 . S
H1331 C1355 0.951 . S
H1332 C1357 0.951 . S
H1333 C1359 0.950 . S
H1334 C1360 0.950 . S
H1335 C1362 0.950 . S
H1336 C1365 0.950 . S
H1337 C1366 0.950 . S
H1338 C1368 0.950 . S
H1339 C1369 0.950 . S
C1340 H1322 0.951 . S
C1340 C1341 1.366 . S
C1340 C1342 1.388 . S
C1341 C1340 1.366 . S
C1341 C1345 1.385 . S
C1342 H1323 0.951 . S
C1342 C1340 1.388 . S
C1342 C1343 1.366 . S
C1343 C1342 1.366 . S
C1343 C1344 1.414 . S
C1343 C1346 1.499 . S
C1344 H1324 0.950 . S
C1344 C1343 1.414 . S
C1344 C1345 1.374 . S
C1345 H1325 0.950 . S
C1345 C1341 1.385 . S
C1345 C1344 1.374 . S
C1346 C1343 1.499 . S
C1346 C1347 1.373 . S
C1346 C1348 1.389 . S
C1347 H1326 0.950 . S
C1347 C1346 1.373 . S
C1347 C1363 1.377 . S
C1348 C1346 1.389 . S
C1348 C1349 1.524 . S
C1348 C1362 1.377 . S
C1349 C1348 1.524 . S
C1349 C1350 1.397 . S
C1349 C1354 1.363 . S
C1350 H1327 0.950 . S
C1350 C1349 1.397 . S
C1350 C1351 1.334 1_455 S
C1351 H1328 0.950 . S
C1351 C1350 1.334 1_655 S
C1351 C1352 1.287 . S
C1352 C1351 1.287 . S
C1352 C1353 1.524 . S
C1352 H1371 0.913 . S
C1353 H1329 0.950 . S
C1353 C1352 1.524 . S
C1353 C1354 1.415 1_655 S
C1354 H1330 0.950 . S
C1354 C1349 1.363 . S
C1354 C1353 1.415 1_455 S
C1355 H1331 0.951 . S
C1355 C1356 1.366 . S
C1355 C1357 1.388 . S
C1356 C1355 1.366 . S
C1356 C1360 1.385 . S
C1357 H1332 0.951 . S
C1357 C1355 1.388 . S
C1357 C1358 1.366 . S
C1358 C1357 1.366 . S
C1358 C1359 1.414 . S
C1358 C1361 1.499 . S
C1359 H1333 0.950 . S
C1359 C1358 1.414 . S
C1359 C1360 1.374 . S
C1360 H1334 0.950 . S
C1360 C1356 1.385 . S
C1360 C1359 1.374 . S
C1361 C1358 1.499 . S
C1361 C1362 1.373 . S
C1361 C1363 1.389 . S
C1362 H1335 0.950 . S
C1362 C1348 1.377 . S
C1362 C1361 1.373 . S
C1363 C1347 1.377 . S
C1363 C1361 1.389 . S
C1363 C1364 1.524 . S
C1364 C1363 1.524 . S
C1364 C1365 1.397 . S
C1364 C1369 1.363 . S
C1365 H1336 0.950 . S
C1365 C1364 1.397 . S
C1365 C1366 1.334 . S
C1366 H1337 0.950 . S
C1366 C1365 1.334 . S
C1366 C1367 1.287 . S
C1367 C1366 1.287 . S
C1367 C1368 1.524 . S
C1367 H1370 0.999 . S
C1368 H1338 0.950 . S
C1368 C1367 1.524 . S
C1368 C1369 1.415 . S
C1369 H1339 0.950 . S
C1369 C1364 1.363 . S
C1369 C1368 1.415 . S
H1370 C1367 0.999 . S
H1371 C1352 0.913 . S
H1372 C1390 0.951 1_545 S
H1373 C1392 0.951 1_545 S
H1374 C1394 0.950 . S
H1375 C1395 0.950 . S
H1376 C1397 0.950 . S
H1377 C1400 0.950 . S
H1378 C1401 0.950 . S
H1379 C1403 0.950 1_545 S
H1380 C1404 0.960 . S
H1381 C1405 0.951 . S
H1382 C1407 0.951 . S
H1383 C1409 0.950 1_554 S
H1384 C1410 0.950 . S
H1385 C1412 0.928 1_554 S
H1386 C1415 0.950 . S
H1387 C1416 0.950 . S
H1388 C1418 0.950 . S
H1389 C1419 0.950 . S
C1390 H1372 0.951 1_565 S
C1390 C1391 1.366 . S
C1390 C1392 1.388 . S
C1391 C1390 1.366 . S
C1391 C1395 1.385 . S
C1392 H1373 0.951 1_565 S
C1392 C1390 1.388 . S
C1392 C1393 1.366 . S
C1393 C1392 1.366 . S
C1393 C1394 1.414 . S
C1393 C1396 1.499 . S
C1394 H1374 0.950 . S
C1394 C1393 1.414 . S
C1394 C1395 1.374 . S
C1395 H1375 0.950 . S
C1395 C1391 1.385 . S
C1395 C1394 1.374 . S
C1396 C1393 1.499 . S
C1396 C1397 1.373 . S
C1396 C1398 1.389 . S
C1397 H1376 0.950 . S
C1397 C1396 1.373 . S
C1397 C1413 1.377 . S
C1398 C1396 1.389 . S
C1398 C1399 1.524 1_556 S
C1398 C1412 1.380 . S
C1399 C1398 1.524 1_554 S
C1399 C1400 1.397 . S
C1399 C1404 1.354 1_565 S
C1400 H1377 0.950 . S
C1400 C1399 1.397 . S
C1400 C1401 1.334 . S
C1401 H1378 0.950 . S
C1401 C1400 1.334 . S
C1401 C1402 1.287 . S
C1402 C1401 1.287 . S
C1402 C1403 1.524 . S
C1402 H1421 0.913 . S
C1403 H1379 0.950 1_565 S
C1403 C1402 1.524 . S
C1403 C1404 1.414 1_565 S
C1404 H1380 0.960 . S
C1404 C1399 1.354 1_545 S
C1404 C1403 1.414 1_545 S
C1405 H1381 0.951 . S
C1405 C1406 1.366 . S
C1405 C1407 1.388 . S
C1406 C1405 1.366 . S
C1406 C1410 1.385 1_566 S
C1407 H1382 0.951 . S
C1407 C1405 1.388 . S
C1407 C1408 1.366 . S
C1408 C1407 1.366 . S
C1408 C1409 1.414 1_565 S
C1408 C1411 1.499 . S
C1409 H1383 0.950 1_556 S
C1409 C1408 1.414 1_545 S
C1409 C1410 1.374 1_556 S
C1410 H1384 0.950 . S
C1410 C1406 1.385 1_544 S
C1410 C1409 1.374 1_554 S
C1411 C1408 1.499 . S
C1411 C1412 1.393 . S
C1411 C1413 1.389 . S
C1412 H1385 0.928 1_556 S
C1412 C1398 1.380 . S
C1412 C1411 1.393 . S
C1413 C1397 1.377 . S
C1413 C1411 1.389 . S
C1413 C1414 1.524 . S
C1414 C1413 1.524 . S
C1414 C1415 1.397 1_565 S
C1414 C1419 1.363 . S
C1415 H1386 0.950 . S
C1415 C1414 1.397 1_545 S
C1415 C1416 1.334 . S
C1416 H1387 0.950 . S
C1416 C1415 1.334 . S
C1416 C1417 1.287 1_545 S
C1417 C1416 1.287 1_565 S
C1417 C1418 1.524 . S
C1417 H1420 0.999 . S
C1418 H1388 0.950 . S
C1418 C1417 1.524 . S
C1418 C1419 1.415 . S
C1419 H1389 0.950 . S
C1419 C1414 1.363 . S
C1419 C1418 1.415 . S
H1420 C1417 0.999 . S
H1421 C1402 0.913 . S
H1422 C1440 0.951 . S
H1423 C1442 0.951 . S
H1424 C1444 0.950 . S
H1425 C1445 0.950 . S
H1426 C1447 0.950 . S
H1427 C1450 0.974 . S
H1428 C1451 0.950 1_565 S
H1429 C1453 0.950 . S
H1430 C1454 0.950 . S
H1431 C1455 0.951 1_565 S
H1432 C1457 0.951 1_565 S
H1433 C1459 0.950 . S
H1434 C1460 0.950 . S
H1435 C1462 0.950 . S
H1436 C1465 0.950 . S
H1437 C1466 0.950 . S
H1438 C1468 0.950 . S
H1439 C1469 0.950 . S
C1440 H1422 0.951 . S
C1440 C1441 1.366 . S
C1440 C1442 1.388 . S
C1441 C1440 1.366 . S
C1441 C1445 1.385 . S
C1442 H1423 0.951 . S
C1442 C1440 1.388 . S
C1442 C1443 1.366 . S
C1443 C1442 1.366 . S
C1443 C1444 1.414 . S
C1443 C1446 1.499 . S
C1444 H1424 0.950 . S
C1444 C1443 1.414 . S
C1444 C1445 1.374 . S
C1445 H1425 0.950 . S
C1445 C1441 1.385 . S
C1445 C1444 1.374 . S
C1446 C1443 1.499 . S
C1446 C1447 1.373 . S
C1446 C1448 1.389 . S
C1447 H1426 0.950 . S
C1447 C1446 1.373 . S
C1447 C1463 1.377 . S
C1448 C1446 1.389 . S
C1448 C1449 1.524 . S
C1448 C1462 1.377 . S
C1449 C1448 1.524 . S
C1449 C1450 1.397 . S
C1449 C1454 1.363 . S
C1450 H1427 0.974 . S
C1450 C1449 1.397 . S
C1450 C1451 1.334 . S
C1451 H1428 0.950 1_545 S
C1451 C1450 1.334 . S
C1451 C1452 1.287 . S
C1452 C1451 1.287 . S
C1452 C1453 1.524 . S
C1452 H1471 0.913 . S
C1453 H1429 0.950 . S
C1453 C1452 1.524 . S
C1453 C1454 1.415 . S
C1454 H1430 0.950 . S
C1454 C1449 1.363 . S
C1454 C1453 1.415 . S
C1455 H1431 0.951 1_545 S
C1455 C1456 1.366 . S
C1455 C1457 1.388 . S
C1456 C1455 1.366 . S
C1456 C1460 1.385 . S
C1457 H1432 0.951 1_545 S
C1457 C1455 1.388 . S
C1457 C1458 1.366 . S
C1458 C1457 1.366 . S
C1458 C1459 1.414 . S
C1458 C1461 1.499 . S
C1459 H1433 0.950 . S
C1459 C1458 1.414 . S
C1459 C1460 1.374 . S
C1460 H1434 0.950 . S
C1460 C1456 1.385 . S
C1460 C1459 1.374 . S
C1461 C1458 1.499 . S
C1461 C1462 1.373 . S
C1461 C1463 1.389 . S
C1462 H1435 0.950 . S
C1462 C1448 1.377 . S
C1462 C1461 1.373 . S
C1463 C1447 1.377 . S
C1463 C1461 1.389 . S
C1463 C1464 1.524 . S
C1464 C1463 1.524 . S
C1464 C1465 1.397 . S
C1464 C1469 1.363 . S
C1465 H1436 0.950 . S
C1465 C1464 1.397 . S
C1465 C1466 1.334 . S
C1466 H1437 0.950 . S
C1466 C1465 1.334 . S
C1466 C1467 1.287 . S
C1467 C1466 1.287 . S
C1467 C1468 1.524 . S
C1467 H1470 0.999 . S
C1468 H1438 0.950 . S
C1468 C1467 1.524 . S
C1468 C1469 1.415 . S
C1469 H1439 0.950 . S
C1469 C1464 1.363 . S
C1469 C1468 1.415 . S
H1470 C1467 0.999 . S
H1471 C1452 0.913 . S
H1472 C1490 0.951 . S
H1473 C1492 0.951 . S
H1474 C1494 0.950 . S
H1475 C1495 0.950 . S
H1476 C1497 0.950 . S
H1477 C1500 0.950 1_554 S
H1478 C1501 0.950 . S
H1479 C1503 0.950 . S
H1480 C1504 0.950 . S
H1481 C1505 0.951 . S
H1482 C1507 0.951 . S
H1483 C1509 0.950 . S
H1484 C1510 0.950 1_556 S
H1485 C1512 0.950 1_556 S
H1486 C1515 0.950 . S
H1487 C1516 0.950 . S
H1488 C1518 0.950 . S
H1489 C1519 0.950 . S
C1490 H1472 0.951 . S
C1490 C1491 1.366 . S
C1490 C1492 1.388 . S
C1491 C1490 1.366 . S
C1491 C1495 1.385 . S
C1492 H1473 0.951 . S
C1492 C1490 1.388 . S
C1492 C1493 1.366 . S
C1493 C1492 1.366 . S
C1493 C1494 1.414 . S
C1493 C1496 1.499 . S
C1494 H1474 0.950 . S
C1494 C1493 1.414 . S
C1494 C1495 1.374 . S
C1495 H1475 0.950 . S
C1495 C1491 1.385 . S
C1495 C1494 1.374 . S
C1496 C1493 1.499 . S
C1496 C1497 1.373 . S
C1496 C1498 1.389 . S
C1497 H1476 0.950 . S
C1497 C1496 1.373 . S
C1497 C1513 1.377 . S
C1498 C1496 1.389 . S
C1498 C1499 1.524 1_554 S
C1498 C1512 1.377 . S
C1499 C1498 1.524 1_556 S
C1499 C1500 1.397 . S
C1499 C1504 1.363 . S
C1500 H1477 0.950 1_556 S
C1500 C1499 1.397 . S
C1500 C1501 1.334 . S
C1501 H1478 0.950 . S
C1501 C1500 1.334 . S
C1501 C1502 1.287 . S
C1502 C1501 1.287 . S
C1502 C1503 1.524 . S
C1502 H1521 0.913 . S
C1503 H1479 0.950 . S
C1503 C1502 1.524 . S
C1503 C1504 1.415 . S
C1504 H1480 0.950 . S
C1504 C1499 1.363 . S
C1504 C1503 1.415 . S
C1505 H1481 0.951 . S
C1505 C1506 1.366 . S
C1505 C1507 1.388 . S
C1506 C1505 1.366 . S
C1506 C1510 1.385 . S
C1507 H1482 0.951 . S
C1507 C1505 1.388 . S
C1507 C1508 1.366 . S
C1508 C1507 1.366 . S
C1508 C1509 1.414 . S
C1508 C1511 1.499 . S
C1509 H1483 0.950 . S
C1509 C1508 1.414 . S
C1509 C1510 1.374 . S
C1510 H1484 0.950 1_554 S
C1510 C1506 1.385 . S
C1510 C1509 1.374 . S
C1511 C1508 1.499 . S
C1511 C1512 1.373 . S
C1511 C1513 1.389 . S
C1512 H1485 0.950 1_554 S
C1512 C1498 1.377 . S
C1512 C1511 1.373 . S
C1513 C1497 1.377 . S
C1513 C1511 1.389 . S
C1513 C1514 1.524 . S
C1514 C1513 1.524 . S
C1514 C1515 1.397 . S
C1514 C1519 1.363 . S
C1515 H1486 0.950 . S
C1515 C1514 1.397 . S
C1515 C1516 1.334 . S
C1516 H1487 0.950 . S
C1516 C1515 1.334 . S
C1516 C1517 1.287 . S
C1517 C1516 1.287 . S
C1517 C1518 1.524 . S
C1517 H1520 0.999 . S
C1518 H1488 0.950 . S
C1518 C1517 1.524 . S
C1518 C1519 1.415 . S
C1519 H1489 0.950 . S
C1519 C1514 1.363 . S
C1519 C1518 1.415 . S
H1520 C1517 0.999 . S
H1521 C1502 0.913 . S
H1522 C1540 0.951 . S
H1523 C1542 0.951 . S
H1524 C1544 0.950 . S
H1525 C1545 0.950 . S
H1526 C1547 0.950 . S
H1527 C1550 0.950 . S
H1528 C1551 0.950 . S
H1529 C1553 0.950 . S
H1530 C1554 0.950 . S
H1531 C1555 0.951 . S
H1532 C1557 0.951 . S
H1533 C1559 0.950 . S
H1534 C1560 0.950 . S
H1535 C1562 0.950 . S
H1536 C1565 0.950 . S
H1537 C1566 0.950 . S
H1538 C1568 0.950 . S
H1539 C1569 0.950 . S
C1540 H1522 0.951 . S
C1540 C1541 1.366 . S
C1540 C1542 1.388 . S
C1541 C1540 1.366 . S
C1541 C1545 1.385 . S
C1542 H1523 0.951 . S
C1542 C1540 1.388 . S
C1542 C1543 1.366 . S
C1543 C1542 1.366 . S
C1543 C1544 1.414 . S
C1543 C1546 1.499 . S
C1544 H1524 0.950 . S
C1544 C1543 1.414 . S
C1544 C1545 1.374 . S
C1545 H1525 0.950 . S
C1545 C1541 1.385 . S
C1545 C1544 1.374 . S
C1546 C1543 1.499 . S
C1546 C1547 1.373 . S
C1546 C1548 1.389 . S
C1547 H1526 0.950 . S
C1547 C1546 1.373 . S
C1547 C1563 1.377 . S
C1548 C1546 1.389 . S
C1548 C1549 1.524 . S
C1548 C1562 1.377 . S
C1549 C1548 1.524 . S
C1549 C1550 1.397 . S
C1549 C1554 1.363 . S
C1550 H1527 0.950 . S
C1550 C1549 1.397 . S
C1550 C1551 1.334 . S
C1551 H1528 0.950 . S
C1551 C1550 1.334 . S
C1551 C1552 1.287 . S
C1552 C1551 1.287 . S
C1552 C1553 1.524 . S
C1552 H1571 0.913 . S
C1553 H1529 0.950 . S
C1553 C1552 1.524 . S
C1553 C1554 1.415 . S
C1554 H1530 0.950 . S
C1554 C1549 1.363 . S
C1554 C1553 1.415 . S
C1555 H1531 0.951 . S
C1555 C1556 1.366 . S
C1555 C1557 1.388 . S
C1556 C1555 1.366 . S
C1556 C1560 1.385 . S
C1557 H1532 0.951 . S
C1557 C1555 1.388 . S
C1557 C1558 1.366 . S
C1558 C1557 1.366 . S
C1558 C1559 1.414 . S
C1558 C1561 1.499 . S
C1559 H1533 0.950 . S
C1559 C1558 1.414 . S
C1559 C1560 1.374 . S
C1560 H1534 0.950 . S
C1560 C1556 1.385 . S
C1560 C1559 1.374 . S
C1561 C1558 1.499 . S
C1561 C1562 1.373 . S
C1561 C1563 1.389 . S
C1562 H1535 0.950 . S
C1562 C1548 1.377 . S
C1562 C1561 1.373 . S
C1563 C1547 1.377 . S
C1563 C1561 1.389 . S
C1563 C1564 1.524 . S
C1564 C1563 1.524 . S
C1564 C1565 1.397 . S
C1564 C1569 1.363 . S
C1565 H1536 0.950 . S
C1565 C1564 1.397 . S
C1565 C1566 1.334 . S
C1566 H1537 0.950 . S
C1566 C1565 1.334 . S
C1566 C1567 1.287 . S
C1567 C1566 1.287 . S
C1567 C1568 1.524 . S
C1567 H1570 0.999 . S
C1568 H1538 0.950 . S
C1568 C1567 1.524 . S
C1568 C1569 1.415 . S
C1569 H1539 0.950 . S
C1569 C1564 1.363 . S
C1569 C1568 1.415 . S
H1570 C1567 0.999 . S
H1571 C1552 0.913 . S
H1572 C1590 0.951 . S
H1573 C1592 0.951 . S
H1574 C1594 0.950 . S
H1575 C1595 0.950 . S
H1576 C1597 0.950 . S
H1577 C1600 0.950 . S
H1578 C1601 0.950 . S
H1579 C1603 0.950 . S
H1580 C1604 0.950 . S
H1581 C1605 0.951 . S
H1582 C1607 0.951 . S
H1583 C1609 0.950 1_455 S
H1584 C1610 0.950 . S
H1585 C1612 0.950 . S
H1586 C1615 0.950 . S
H1587 C1616 0.950 . S
H1588 C1618 0.950 . S
H1589 C1619 0.974 . S
C1590 H1572 0.951 . S
C1590 C1591 1.366 . S
C1590 C1592 1.388 . S
C1591 C1590 1.366 . S
C1591 C1595 1.385 . S
C1592 H1573 0.951 . S
C1592 C1590 1.388 . S
C1592 C1593 1.366 . S
C1593 C1592 1.366 . S
C1593 C1594 1.414 . S
C1593 C1596 1.499 . S
C1594 H1574 0.950 . S
C1594 C1593 1.414 . S
C1594 C1595 1.374 . S
C1595 H1575 0.950 . S
C1595 C1591 1.385 . S
C1595 C1594 1.374 . S
C1596 C1593 1.499 . S
C1596 C1597 1.373 . S
C1596 C1598 1.389 . S
C1597 H1576 0.950 . S
C1597 C1596 1.373 . S
C1597 C1613 1.377 . S
C1598 C1596 1.389 . S
C1598 C1599 1.524 . S
C1598 C1612 1.377 . S
C1599 C1598 1.524 . S
C1599 C1600 1.397 . S
C1599 C1604 1.363 1_655 S
C1600 H1577 0.950 . S
C1600 C1599 1.397 . S
C1600 C1601 1.334 . S
C1601 H1578 0.950 . S
C1601 C1600 1.334 . S
C1601 C1602 1.287 1_655 S
C1602 C1601 1.287 1_455 S
C1602 C1603 1.524 . S
C1602 H1621 0.913 . S
C1603 H1579 0.950 . S
C1603 C1602 1.524 . S
C1603 C1604 1.415 . S
C1604 H1580 0.950 . S
C1604 C1599 1.363 1_455 S
C1604 C1603 1.415 . S
C1605 H1581 0.951 . S
C1605 C1606 1.366 . S
C1605 C1607 1.388 . S
C1606 C1605 1.366 . S
C1606 C1610 1.385 1_655 S
C1607 H1582 0.951 . S
C1607 C1605 1.388 . S
C1607 C1608 1.366 . S
C1608 C1607 1.366 . S
C1608 C1609 1.414 . S
C1608 C1611 1.499 . S
C1609 H1583 0.950 1_655 S
C1609 C1608 1.414 . S
C1609 C1610 1.374 1_655 S
C1610 H1584 0.950 . S
C1610 C1606 1.385 1_455 S
C1610 C1609 1.374 1_455 S
C1611 C1608 1.499 . S
C1611 C1612 1.373 . S
C1611 C1613 1.389 . S
C1612 H1585 0.950 . S
C1612 C1598 1.377 . S
C1612 C1611 1.373 . S
C1613 C1597 1.377 . S
C1613 C1611 1.389 . S
C1613 C1614 1.524 1_556 S
C1614 C1613 1.524 1_554 S
C1614 C1615 1.397 . S
C1614 C1619 1.363 . S
C1615 H1586 0.950 . S
C1615 C1614 1.397 . S
C1615 C1616 1.334 . S
C1616 H1587 0.950 . S
C1616 C1615 1.334 . S
C1616 C1617 1.287 . S
C1617 C1616 1.287 . S
C1617 C1618 1.524 . S
C1617 H1620 0.999 . S
C1618 H1588 0.950 . S
C1618 C1617 1.524 . S
C1618 C1619 1.415 . S
C1619 H1589 0.974 . S
C1619 C1614 1.363 . S
C1619 C1618 1.415 . S
H1620 C1617 0.999 . S
H1621 C1602 0.913 . S
H1622 C1640 0.951 . S
H1623 C1642 0.951 . S
H1624 C1644 0.950 . S
H1625 C1645 0.950 . S
H1626 C1647 0.950 . S
H1627 C1650 0.950 . S
H1628 C1651 0.950 . S
H1629 C1653 0.950 . S
H1630 C1654 0.950 . S
H1631 C1655 0.951 . S
H1632 C1657 0.951 . S
H1633 C1659 0.950 . S
H1634 C1660 0.950 . S
H1635 C1662 0.950 . S
H1636 C1665 0.950 . S
H1637 C1666 0.950 . S
H1638 C1668 0.950 . S
H1639 C1669 0.950 . S
C1640 H1622 0.951 . S
C1640 C1641 1.366 . S
C1640 C1642 1.388 . S
C1641 C1640 1.366 . S
C1641 C1645 1.385 . S
C1642 H1623 0.951 . S
C1642 C1640 1.388 . S
C1642 C1643 1.366 . S
C1643 C1642 1.366 . S
C1643 C1644 1.414 . S
C1643 C1646 1.499 . S
C1644 H1624 0.950 . S
C1644 C1643 1.414 . S
C1644 C1645 1.374 . S
C1645 H1625 0.950 . S
C1645 C1641 1.385 . S
C1645 C1644 1.374 . S
C1646 C1643 1.499 . S
C1646 C1647 1.373 . S
C1646 C1648 1.389 . S
C1647 H1626 0.950 . S
C1647 C1646 1.373 . S
C1647 C1663 1.377 . S
C1648 C1646 1.389 . S
C1648 C1649 1.524 . S
C1648 C1662 1.377 . S
C1649 C1648 1.524 . S
C1649 C1650 1.397 . S
C1649 C1654 1.363 . S
C1650 H1627 0.950 . S
C1650 C1649 1.397 . S
C1650 C1651 1.334 . S
C1651 H1628 0.950 . S
C1651 C1650 1.334 . S
C1651 C1652 1.287 . S
C1652 C1651 1.287 . S
C1652 C1653 1.524 . S
C1652 H1671 0.913 . S
C1653 H1629 0.950 . S
C1653 C1652 1.524 . S
C1653 C1654 1.415 . S
C1654 H1630 0.950 . S
C1654 C1649 1.363 . S
C1654 C1653 1.415 . S
C1655 H1631 0.951 . S
C1655 C1656 1.366 . S
C1655 C1657 1.388 . S
C1656 C1655 1.366 . S
C1656 C1660 1.385 . S
C1657 H1632 0.951 . S
C1657 C1655 1.388 . S
C1657 C1658 1.366 . S
C1658 C1657 1.366 . S
C1658 C1659 1.414 . S
C1658 C1661 1.499 . S
C1659 H1633 0.950 . S
C1659 C1658 1.414 . S
C1659 C1660 1.374 . S
C1660 H1634 0.950 . S
C1660 C1656 1.385 . S
C1660 C1659 1.374 . S
C1661 C1658 1.499 . S
C1661 C1662 1.373 . S
C1661 C1663 1.389 . S
C1662 H1635 0.950 . S
C1662 C1648 1.377 . S
C1662 C1661 1.373 . S
C1663 C1647 1.377 . S
C1663 C1661 1.389 . S
C1663 C1664 1.524 . S
C1664 C1663 1.524 . S
C1664 C1665 1.397 . S
C1664 C1669 1.363 1_554 S
C1665 H1636 0.950 . S
C1665 C1664 1.397 . S
C1665 C1666 1.334 . S
C1666 H1637 0.950 . S
C1666 C1665 1.334 . S
C1666 C1667 1.287 1_554 S
C1667 C1666 1.287 1_556 S
C1667 C1668 1.524 . S
C1667 H1670 0.999 . S
C1668 H1638 0.950 . S
C1668 C1667 1.524 . S
C1668 C1669 1.415 . S
C1669 H1639 0.950 . S
C1669 C1664 1.363 1_556 S
C1669 C1668 1.415 . S
H1670 C1667 0.999 . S
H1671 C1652 0.913 . S
H1672 C1690 0.951 . S
H1673 C1692 0.951 . S
H1674 C1694 0.950 . S
H1675 C1695 0.950 . S
H1676 C1697 0.950 . S
H1677 C1700 0.950 . S
H1678 C1701 0.950 . S
H1679 C1703 0.950 . S
H1680 C1704 0.950 . S
H1681 C1705 0.951 . S
H1682 C1707 0.951 . S
H1683 C1709 0.950 . S
H1684 C1710 0.936 1_655 S
H1685 C1712 0.950 . S
H1686 C1715 0.950 . S
H1687 C1716 0.950 . S
H1688 C1718 0.950 . S
H1689 C1719 0.950 . S
C1690 H1672 0.951 . S
C1690 C1691 1.366 . S
C1690 C1692 1.388 . S
C1691 C1690 1.366 . S
C1691 C1695 1.385 . S
C1692 H1673 0.951 . S
C1692 C1690 1.388 . S
C1692 C1693 1.366 . S
C1693 C1692 1.366 . S
C1693 C1694 1.414 . S
C1693 C1696 1.499 . S
C1694 H1674 0.950 . S
C1694 C1693 1.414 . S
C1694 C1695 1.374 . S
C1695 H1675 0.950 . S
C1695 C1691 1.385 . S
C1695 C1694 1.374 . S
C1696 C1693 1.499 . S
C1696 C1697 1.373 . S
C1696 C1698 1.389 . S
C1697 H1676 0.950 . S
C1697 C1696 1.373 . S
C1697 C1713 1.377 . S
C1698 C1696 1.389 . S
C1698 C1699 1.524 . S
C1698 C1712 1.377 . S
C1699 C1698 1.524 . S
C1699 C1700 1.397 . S
C1699 C1704 1.363 1_455 S
C1700 H1677 0.950 . S
C1700 C1699 1.397 . S
C1700 C1701 1.334 1_455 S
C1701 H1678 0.950 . S
C1701 C1700 1.334 1_655 S
C1701 C1702 1.287 . S
C1702 C1701 1.287 . S
C1702 C1703 1.524 . S
C1702 H1721 0.913 . S
C1703 H1679 0.950 . S
C1703 C1702 1.524 . S
C1703 C1704 1.415 . S
C1704 H1680 0.950 . S
C1704 C1699 1.363 1_655 S
C1704 C1703 1.415 . S
C1705 H1681 0.951 . S
C1705 C1706 1.366 . S
C1705 C1707 1.388 . S
C1706 C1705 1.366 . S
C1706 C1710 1.385 . S
C1707 H1682 0.951 . S
C1707 C1705 1.388 . S
C1707 C1708 1.366 . S
C1708 C1707 1.366 . S
C1708 C1709 1.414 . S
C1708 C1711 1.499 . S
C1709 H1683 0.950 . S
C1709 C1708 1.414 . S
C1709 C1710 1.374 . S
C1710 H1684 0.936 1_455 S
C1710 C1706 1.385 . S
C1710 C1709 1.374 . S
C1711 C1708 1.499 . S
C1711 C1712 1.373 . S
C1711 C1713 1.389 . S
C1712 H1685 0.950 . S
C1712 C1698 1.377 . S
C1712 C1711 1.373 . S
C1713 C1697 1.377 . S
C1713 C1711 1.389 . S
C1713 C1714 1.524 . S
C1714 C1713 1.524 . S
C1714 C1715 1.397 . S
C1714 C1719 1.363 . S
C1715 H1686 0.950 . S
C1715 C1714 1.397 . S
C1715 C1716 1.334 . S
C1716 H1687 0.950 . S
C1716 C1715 1.334 . S
C1716 C1717 1.287 . S
C1717 C1716 1.287 . S
C1717 C1718 1.524 . S
C1717 H1720 0.999 . S
C1718 H1688 0.950 . S
C1718 C1717 1.524 . S
C1718 C1719 1.415 . S
C1719 H1689 0.950 . S
C1719 C1714 1.363 . S
C1719 C1718 1.415 . S
H1720 C1717 0.999 . S
H1721 C1702 0.913 . S
H1722 C1740 0.951 . S
H1723 C1742 0.951 . S
H1724 C1744 0.950 . S
H1725 C1745 0.950 . S
H1726 C1747 0.950 . S
H1727 C1750 0.950 . S
H1728 C1751 0.950 . S
H1729 C1753 0.950 . S
H1730 C1754 0.950 . S
H1731 C1755 0.951 . S
H1732 C1757 0.951 . S
H1733 C1759 0.950 . S
H1734 C1760 0.950 . S
H1735 C1762 0.950 . S
H1736 C1765 0.950 . S
H1737 C1766 0.950 . S
H1738 C1768 0.950 . S
H1739 C1769 0.950 . S
C1740 H1722 0.951 . S
C1740 C1741 1.366 . S
C1740 C1742 1.388 . S
C1741 C1740 1.366 . S
C1741 C1745 1.385 . S
C1742 H1723 0.951 . S
C1742 C1740 1.388 . S
C1742 C1743 1.366 . S
C1743 C1742 1.366 . S
C1743 C1744 1.414 . S
C1743 C1746 1.499 . S
C1744 H1724 0.950 . S
C1744 C1743 1.414 . S
C1744 C1745 1.374 . S
C1745 H1725 0.950 . S
C1745 C1741 1.385 . S
C1745 C1744 1.374 . S
C1746 C1743 1.499 . S
C1746 C1747 1.373 . S
C1746 C1748 1.389 . S
C1747 H1726 0.950 . S
C1747 C1746 1.373 . S
C1747 C1763 1.377 . S
C1748 C1746 1.389 . S
C1748 C1749 1.524 . S
C1748 C1762 1.377 . S
C1749 C1748 1.524 . S
C1749 C1750 1.397 . S
C1749 C1754 1.363 . S
C1750 H1727 0.950 . S
C1750 C1749 1.397 . S
C1750 C1751 1.334 . S
C1751 H1728 0.950 . S
C1751 C1750 1.334 . S
C1751 C1752 1.287 . S
C1752 C1751 1.287 . S
C1752 C1753 1.524 . S
C1752 H1771 0.913 . S
C1753 H1729 0.950 . S
C1753 C1752 1.524 . S
C1753 C1754 1.415 . S
C1754 H1730 0.950 . S
C1754 C1749 1.363 . S
C1754 C1753 1.415 . S
C1755 H1731 0.951 . S
C1755 C1756 1.366 . S
C1755 C1757 1.388 . S
C1756 C1755 1.366 . S
C1756 C1760 1.385 . S
C1757 H1732 0.951 . S
C1757 C1755 1.388 . S
C1757 C1758 1.366 . S
C1758 C1757 1.366 . S
C1758 C1759 1.414 . S
C1758 C1761 1.499 . S
C1759 H1733 0.950 . S
C1759 C1758 1.414 . S
C1759 C1760 1.374 . S
C1760 H1734 0.950 . S
C1760 C1756 1.385 . S
C1760 C1759 1.374 . S
C1761 C1758 1.499 . S
C1761 C1762 1.373 . S
C1761 C1763 1.389 . S
C1762 H1735 0.950 . S
C1762 C1748 1.377 . S
C1762 C1761 1.373 . S
C1763 C1747 1.377 . S
C1763 C1761 1.389 . S
C1763 C1764 1.524 . S
C1764 C1763 1.524 . S
C1764 C1765 1.397 . S
C1764 C1769 1.363 . S
C1765 H1736 0.950 . S
C1765 C1764 1.397 . S
C1765 C1766 1.334 . S
C1766 H1737 0.950 . S
C1766 C1765 1.334 . S
C1766 C1767 1.287 . S
C1767 C1766 1.287 . S
C1767 C1768 1.524 . S
C1767 H1770 0.999 . S
C1768 H1738 0.950 . S
C1768 C1767 1.524 . S
C1768 C1769 1.415 . S
C1769 H1739 0.950 . S
C1769 C1764 1.363 . S
C1769 C1768 1.415 . S
H1770 C1767 0.999 . S
H1771 C1752 0.913 . S
C591 C1 1.600 . S
C606 C498 1.584 . S
C641 C80 1.573 . S
C656 C522 1.575 . S
C706 C542 1.407 . S
C691 C140 1.357 . S
C741 C211 1.372 . S
C756 C565 1.426 . S
C806 C524 1.693 . S
C791 C31 1.717 . S
C856 C500 1.683 . S
C841 C61 1.685 . S
C906 C568 1.586 . S
C891 C151 1.578 . S
C956 C545 1.573 . S
C941 C200 1.560 . S
C991 C20 1.337 . S
C1006 C570 1.316 . S
C1056 C519 1.672 . S
C1041 C121 1.613 . S
C1091 C181 1.609 . S
C1106 C497 1.664 . S
C1141 C91 1.304 . S
C1156 C547 1.305 . S
C1206 C501 1.684 . S
C1191 C260 1.679 . S
C1241 C320 1.573 . S
C1256 C523 1.637 . S
C1291 C361 1.830 . S
C1306 C543 1.854 . S
C1341 C451 1.775 . S
C1356 C566 1.856 . S
C1391 C271 1.577 . S
C1406 C521 1.557 1_556 S
C1456 C499 1.585 . S
C1441 C301 1.511 . S
C1506 C569 1.481 . S
C1491 C380 1.497 . S
C1556 C546 1.523 . S
C1541 C440 1.504 . S
C1591 C241 1.970 . S
C1606 C567 1.942 . S
C1656 C520 1.581 . S
C1641 C391 1.561 . S
C1706 C496 1.590 . S
C1691 C421 1.518 . S
C1741 C331 1.878 . S
C1756 C544 1.920 . S
