# Generated by pormake.
# Topology zzz, (3,6)-cn, num edge types: 1
# Building blocks:
#     Node 0, Type 0, BuildingBlock: BETDIP_clean_linker_0, # of connection points: 3
#     Node 1, Type 0, BuildingBlock: BETDIP_clean_linker_0, # of connection points: 3
#     Node 2, Type 0, BuildingBlock: BETDIP_clean_linker_0, # of connection points: 3
#     Node 3, Type 0, BuildingBlock: BETDIP_clean_linker_0, # of connection points: 3
#     Node 4, Type 0, BuildingBlock: BETDIP_clean_linker_0, # of connection points: 3
#     Node 5, Type 0, BuildingBlock: BETDIP_clean_linker_0, # of connection points: 3
#     Node 6, Type 0, BuildingBlock: BETDIP_clean_linker_0, # of connection points: 3
#     Node 7, Type 0, BuildingBlock: BETDIP_clean_linker_0, # of connection points: 3
#     Node 8, Type 1, BuildingBlock: BETFEN_clean_sbu_0, # of connection points: 6
#     Node 9, Type 1, BuildingBlock: BETFEN_clean_sbu_0, # of connection points: 6
#     Node 10, Type 1, BuildingBlock: BETFEN_clean_sbu_0, # of connection points: 6
#     Node 11, Type 1, BuildingBlock: BETFEN_clean_sbu_0, # of connection points: 6
#     Edge 12, Type (0, 1), BuildingBlock: XIVTED_clean_linker_0, # of connection points: 2
#     Edge 13, Type (0, 1), BuildingBlock: XIVTED_clean_linker_0, # of connection points: 2
#     Edge 14, Type (0, 1), BuildingBlock: XIVTED_clean_linker_0, # of connection points: 2
#     Edge 15, Type (0, 1), BuildingBlock: XIVTED_clean_linker_0, # of connection points: 2
#     Edge 16, Type (0, 1), BuildingBlock: XIVTED_clean_linker_0, # of connection points: 2
#     Edge 17, Type (0, 1), BuildingBlock: XIVTED_clean_linker_0, # of connection points: 2
#     Edge 18, Type (0, 1), BuildingBlock: XIVTED_clean_linker_0, # of connection points: 2
#     Edge 19, Type (0, 1), BuildingBlock: XIVTED_clean_linker_0, # of connection points: 2
#     Edge 20, Type (0, 1), BuildingBlock: XIVTED_clean_linker_0, # of connection points: 2
#     Edge 21, Type (0, 1), BuildingBlock: XIVTED_clean_linker_0, # of connection points: 2
#     Edge 22, Type (0, 1), BuildingBlock: XIVTED_clean_linker_0, # of connection points: 2
#     Edge 23, Type (0, 1), BuildingBlock: XIVTED_clean_linker_0, # of connection points: 2
#     Edge 24, Type (0, 1), BuildingBlock: XIVTED_clean_linker_0, # of connection points: 2
#     Edge 25, Type (0, 1), BuildingBlock: XIVTED_clean_linker_0, # of connection points: 2
#     Edge 26, Type (0, 1), BuildingBlock: XIVTED_clean_linker_0, # of connection points: 2
#     Edge 27, Type (0, 1), BuildingBlock: XIVTED_clean_linker_0, # of connection points: 2
#     Edge 28, Type (0, 1), BuildingBlock: XIVTED_clean_linker_0, # of connection points: 2
#     Edge 29, Type (0, 1), BuildingBlock: XIVTED_clean_linker_0, # of connection points: 2
#     Edge 30, Type (0, 1), BuildingBlock: XIVTED_clean_linker_0, # of connection points: 2
#     Edge 31, Type (0, 1), BuildingBlock: XIVTED_clean_linker_0, # of connection points: 2
#     Edge 32, Type (0, 1), BuildingBlock: XIVTED_clean_linker_0, # of connection points: 2
#     Edge 33, Type (0, 1), BuildingBlock: XIVTED_clean_linker_0, # of connection points: 2
#     Edge 34, Type (0, 1), BuildingBlock: XIVTED_clean_linker_0, # of connection points: 2
#     Edge 35, Type (0, 1), BuildingBlock: XIVTED_clean_linker_0, # of connection points: 2
# Relax obj value: 0.278
# Max RMSD: 0.191
# Mean RMSD: 0.161
data_MOF--net-zzz--node1-BETFEN_clean_sbu_0--node2-BETDIP_clean_linker_0--edge1-XIVTED_clean_linker_0
_symmetry_space_group_name_H-M    P1
_symmetry_Int_Tables_number       1
_symmetry_cell_setting            triclinic
loop_
_symmetry_equiv_pos_as_xyz
'x, y, z'
_cell_length_a     52.74872
_cell_length_b     52.713852
_cell_length_c     13.337146
_cell_angle_alpha  89.903401
_cell_angle_beta   90.04844
_cell_angle_gamma 89.998493
loop_
_atom_site_label
_atom_site_type_symbol
_atom_site_fract_x
_atom_site_fract_y
_atom_site_fract_z
_atom_type_partial_charge
H0 H 0.75044 0.50249 0.59893 0.0
H1 H 0.72877 0.52627 0.3025 0.0
H2 H 0.8041 0.53976 0.4052 0.0
H3 H 0.6855 0.5386 0.47954 0.0
C4 C 0.68839 0.52088 0.43969 0.0
C5 C 0.75468 0.51295 0.53107 0.0
C6 C 0.7798 0.52215 0.51373 0.0
C7 C 0.73536 0.5167 0.45681 0.0
C8 C 0.74214 0.52704 0.36415 0.0
C9 C 0.76728 0.53304 0.34386 0.0
C10 C 0.7847 0.53437 0.42248 0.0
N11 N 0.71041 0.50627 0.46543 0.0
H12 H 0.02305 0.74781 0.60597 0.0
H13 H 1.00532 0.73159 0.29707 0.0
H14 H 0.99709 0.80711 0.40848 0.0
H15 H 0.98392 0.69037 0.44668 0.0
C16 C 1.00377 0.68971 0.42514 0.0
C17 C 1.01545 0.75383 0.53437 0.0
C18 C 1.00869 0.77988 0.51883 0.0
C19 C 1.01236 0.73574 0.45478 0.0
C20 C 1.00476 0.74442 0.36053 0.0
C21 C 1.00041 0.77007 0.34362 0.0
C22 C 1.00023 0.7871 0.42374 0.0
N23 N 0.01987 0.70963 0.46224 0.0
H24 H 0.78802 1.00572 0.61884 0.0
H25 H 0.80433 0.02479 0.30967 0.0
H26 H 0.72766 0.02458 0.41296 0.0
H27 H 0.82923 0.97528 0.40197 0.0
C28 C 0.83901 0.99322 0.41313 0.0
C29 C 0.78161 1.01153 0.54518 0.0
C30 C 0.75505 1.01471 0.52592 0.0
C31 C 0.79965 1.01505 0.46553 0.0
C32 C 0.79096 0.022 0.37043 0.0
C33 C 0.76531 0.02539 0.35291 0.0
C34 C 0.74766 0.02192 0.42949 0.0
N35 N 0.8264 1.0112 0.47645 0.0
H36 H 0.50909 0.78905 0.62227 0.0
H37 H 0.51721 0.80299 0.30414 0.0
H38 H 0.5241 0.72747 0.41912 0.0
H39 H 0.54759 0.83836 0.43589 0.0
C40 C 0.52777 0.84392 0.43134 0.0
C41 C 0.51285 0.78218 0.54728 0.0
C42 C 0.51732 0.75578 0.5308 0.0
C43 C 0.51388 0.79964 0.46478 0.0
C44 C 0.51794 0.79025 0.36795 0.0
C45 C 0.52163 0.76446 0.35198 0.0
C46 C 0.52189 0.74765 0.43308 0.0
N47 N 0.51014 0.82645 0.47555 0.0
H48 H 0.28899 0.516 0.89309 0.0
H49 H 0.30447 0.51114 0.21094 0.0
H50 H 0.22862 0.50345 0.10533 0.0
H51 H 0.3301 0.55063 0.12679 0.0
C52 C 0.34058 0.53395 0.10275 0.0
C53 C 0.28265 0.51231 0.9689 0.0
C54 C 0.25622 0.50885 0.98897 0.0
C55 C 0.30054 0.5125 0.05002 0.0
C56 C 0.29158 0.50971 0.14807 0.0
C57 C 0.26594 0.50668 0.16714 0.0
C58 C 0.24871 0.50488 0.08819 0.0
N59 N 0.32717 0.51705 0.03673 0.0
H60 H 0.02237 0.29076 0.90063 0.0
H61 H 0.02912 0.30486 0.21886 0.0
H62 H 0.03609 0.22928 0.10673 0.0
H63 H 0.98602 0.33043 0.11611 0.0
C64 C 1.00384 0.34056 0.1074 0.0
C65 C 0.02645 0.284 0.9756 0.0
C66 C 0.02989 0.25742 0.99345 0.0
C67 C 0.027 0.30151 0.05802 0.0
C68 C 0.03023 0.29212 0.15526 0.0
C69 C 0.0336 0.26637 0.17215 0.0
C70 C 0.03454 0.24949 0.09156 0.0
N71 N 0.0228 0.32827 0.04748 0.0
H72 H 0.2432 0.02638 0.89721 0.0
H73 H 0.23004 0.02704 0.21747 0.0
H74 H 0.30568 0.03204 0.10431 0.0
H75 H 0.20226 0.98735 0.10738 0.0
C76 C 0.19288 1.00567 0.10163 0.0
C77 C 0.25031 0.02803 0.97307 0.0
C78 C 0.27704 0.02974 0.99075 0.0
C79 C 0.23303 0.02743 0.05623 0.0
C80 C 0.24273 0.02841 0.15376 0.0
C81 C 0.2686 0.03045 0.17042 0.0
C82 C 0.28541 0.03158 0.08963 0.0
N83 N 0.20609 0.02483 0.04557 0.0
H84 H 0.51061 0.24526 0.89517 0.0
H85 H 0.51562 0.22822 0.21229 0.0
H86 H 0.50952 0.30521 0.11435 0.0
H87 H 0.54982 0.19355 0.07096 0.0
C88 C 0.52983 0.18981 0.08361 0.0
C89 C 0.51051 0.2515 0.97245 0.0
C90 C 0.51005 0.27803 0.99498 0.0
C91 C 0.51207 0.23319 0.0522 0.0
C92 C 0.51349 0.24167 0.15133 0.0
C93 C 0.51195 0.26734 0.17278 0.0
C94 C 0.50963 0.28515 0.09561 0.0
N95 N 0.51186 0.20635 0.03567 0.0
Pr96 Pr 0.03784 1.01532 0.84373 0.0
Pr97 Pr 0.99523 0.0225 0.68107 0.0
C98 C 0.05949 0.99942 0.01343 0.0
C99 C 0.05813 0.97331 0.05233 0.0
C100 C 0.08003 0.95809 0.05276 0.0
C101 C 0.07799 0.93174 0.06089 0.0
C102 C 0.05402 0.92037 0.06835 0.0
C103 C 0.03236 0.9357 0.07556 0.0
C104 C 0.03436 0.96189 0.06739 0.0
C105 C 0.06287 0.02091 0.65845 0.0
C106 C 1.01362 0.96314 0.72585 0.0
C107 C 0.97113 0.03672 0.51392 0.0
C108 C 0.97394 0.06108 0.46281 0.0
C109 C 0.95246 0.07438 0.42932 0.0
C110 C 0.9545 0.09994 0.40205 0.0
C111 C 0.97809 0.1121 0.40769 0.0
C112 C 0.99952 0.09863 0.43976 0.0
C113 C 0.99747 0.07338 0.4673 0.0
C114 C 0.97069 1.01664 0.8676 0.0
C115 C 0.02122 0.07456 0.79355 0.0
O116 O 0.03831 1.01242 0.01314 0.0
O117 O 0.07216 1.00168 0.92981 0.0
O118 O 0.0389 0.02148 0.67086 0.0
O119 O 0.0742 0.0187 0.74429 0.0
O120 O 0.99917 0.97792 0.66918 0.0
O121 O 0.02854 0.97263 0.79665 0.0
O122 O 0.9909 0.02161 0.51211 0.0
O123 O 0.96102 0.03876 0.60276 0.0
O124 O 0.99447 1.01641 0.85249 0.0
O125 O 0.95894 0.01819 0.78263 0.0
O126 O 0.03359 0.05971 0.85705 0.0
O127 O 1.00752 0.06512 0.71878 0.0
H128 H 0.09852 0.96645 0.04012 0.0
H129 H 0.09496 0.92023 0.05611 0.0
H130 H 1.01371 0.92736 0.08434 0.0
H131 H 0.01705 0.97294 0.06681 0.0
H132 H 0.93402 0.06533 0.42857 0.0
H133 H 0.93779 0.11024 0.37802 0.0
H134 H 0.01778 0.10791 0.44673 0.0
H135 H 1.01411 0.06387 0.49677 0.0
Pr136 Pr 0.51869 0.03645 0.83546 0.0
Pr137 Pr 0.51201 0.99658 0.67605 0.0
C138 C 0.53213 0.06013 1.00527 0.0
C139 C 0.55732 0.05892 0.05244 0.0
C140 C 0.57224 0.08092 0.05452 0.0
C141 C 0.59847 0.07916 0.06452 0.0
C142 C 0.61023 0.05539 0.07526 0.0
C143 C 0.59505 0.03353 0.08182 0.0
C144 C 0.56884 0.03526 0.06985 0.0
C145 C 0.5138 0.06384 0.65383 0.0
C146 C 0.57153 1.01268 0.72709 0.0
C147 C 0.49819 0.97341 0.50645 0.0
C148 C 0.4734 0.97509 0.45857 0.0
C149 C 0.46026 0.9528 0.43392 0.0
C150 C 0.43436 0.9538 0.41268 0.0
C151 C 0.42175 0.97714 0.41523 0.0
C152 C 0.43499 0.99946 0.43687 0.0
C153 C 0.46063 0.99847 0.45874 0.0
C154 C 0.51979 0.97244 0.86119 0.0
C155 C 0.45922 0.02094 0.78498 0.0
O156 O 0.51855 0.03937 0.00575 0.0
O157 O 0.53213 0.07138 0.91811 0.0
O158 O 0.51317 0.03983 0.66196 0.0
O159 O 0.5147 0.07408 0.74178 0.0
O160 O 0.55641 1.00063 0.6642 0.0
O161 O 0.56187 0.0258 0.80241 0.0
O162 O 0.51169 0.99425 0.50664 0.0
O163 O 0.49774 0.96205 0.59337 0.0
O164 O 0.50748 0.99326 0.85029 0.0
O165 O 0.52675 0.96355 0.77462 0.0
O166 O 0.47402 0.03518 0.84214 0.0
O167 O 0.4689 1.00553 0.71636 0.0
H168 H 0.56388 0.09931 0.03945 0.0
H169 H 0.60956 0.09635 0.05797 0.0
H170 H 0.60346 1.01498 0.09274 0.0
H171 H 0.5579 0.01788 0.06755 0.0
H172 H 0.46974 0.93457 0.4362 0.0
H173 H 0.42414 0.93649 0.39588 0.0
H174 H 0.42528 0.01758 0.4396 0.0
H175 H 0.47008 1.01585 0.48078 0.0
Pr176 Pr 0.49665 0.5192 0.82873 0.0
Pr177 Pr 0.53462 0.51422 0.68545 0.0
C178 C 0.46717 0.53558 0.97868 0.0
C179 C 0.46842 0.56082 0.0244 0.0
C180 C 0.44636 0.57549 0.0348 0.0
C181 C 0.44817 0.60129 0.05835 0.0
C182 C 0.47206 0.61235 0.07245 0.0
C183 C 0.494 0.59756 0.06443 0.0
C184 C 0.49224 0.57207 0.04015 0.0
C185 C 0.47461 0.50922 0.64115 0.0
C186 C 0.52051 0.57333 0.73242 0.0
C187 C 0.55765 0.50084 0.51443 0.0
C188 C 0.55599 0.47611 0.46562 0.0
C189 C 0.578 0.46393 0.43128 0.0
C190 C 0.57717 0.43828 0.40467 0.0
C191 C 0.55427 0.42491 0.41192 0.0
C192 C 0.53229 0.43725 0.44487 0.0
C193 C 0.53312 0.4626 0.47144 0.0
C194 C 0.56369 0.51643 0.86155 0.0
C195 C 0.51273 0.46097 0.79178 0.0
O196 O 0.48674 0.52086 0.99378 0.0
O197 O 0.45971 0.53563 0.88557 0.0
O198 O 0.49252 0.52488 0.65673 0.0
O199 O 0.46915 0.49696 0.72292 0.0
O200 O 0.53481 0.55882 0.67542 0.0
O201 O 0.50536 0.56283 0.79926 0.0
O202 O 0.53684 0.51431 0.51578 0.0
O203 O 0.56901 0.50021 0.60106 0.0
O204 O 0.5395 0.51664 0.86345 0.0
O205 O 0.57257 0.51759 0.77154 0.0
O206 O 0.50399 0.47604 0.86202 0.0
O207 O 0.52192 0.47104 0.70878 0.0
H208 H 0.42789 0.56725 0.02069 0.0
H209 H 0.43111 0.61261 0.06441 0.0
H210 H 0.51261 0.60598 0.07394 0.0
H211 H 0.50964 0.56147 0.02949 0.0
H212 H 0.59592 0.47396 0.4289 0.0
H213 H 0.59428 0.42888 0.37958 0.0
H214 H 0.51456 0.42703 0.45279 0.0
H215 H 0.51605 0.4713 0.50069 0.0
Pr216 Pr 1.01415 0.49804 0.84688 0.0
Pr217 Pr 0.02266 0.53758 0.66611 0.0
C218 C 0.99854 0.47837 0.02081 0.0
C219 C 0.97228 0.47873 0.05809 0.0
C220 C 0.95901 0.45585 0.07174 0.0
C221 C 0.9326 0.45599 0.08219 0.0
C222 C 0.91927 0.47902 0.07838 0.0
C223 C 0.93275 0.50189 0.0711 0.0
C224 C 0.95891 0.50176 0.06054 0.0
C225 C 0.01872 0.47057 0.66487 0.0
C226 C 0.9632 0.52087 0.71901 0.0
C227 C 0.03642 0.55763 0.49033 0.0
C228 C 0.06213 0.55756 0.44778 0.0
C229 C 0.07644 0.58007 0.44818 0.0
C230 C 0.10278 0.5791 0.43911 0.0
C231 C 0.11499 0.55562 0.42932 0.0
C232 C 0.1005 0.53345 0.41925 0.0
C233 C 0.07431 0.53438 0.42851 0.0
C234 C 0.01888 0.56519 0.84861 0.0
C235 C 0.07369 0.51322 0.78847 0.0
O236 O 1.01019 0.50029 0.01563 0.0
O237 O 1.00191 0.46448 0.94092 0.0
O238 O 0.0201 0.49443 0.67613 0.0
O239 O 1.01558 0.46017 0.75213 0.0
O240 O 0.97852 0.53159 0.6526 0.0
O241 O 0.97201 0.50974 0.80143 0.0
O242 O 0.02498 0.53563 0.49688 0.0
O243 O 0.03402 0.57124 0.57155 0.0
O244 O 0.01728 0.5413 0.83756 0.0
O245 O 0.02182 0.57548 0.76107 0.0
O246 O 0.05857 0.50345 0.85814 0.0
O247 O 0.06468 0.52433 0.70631 0.0
H248 H 0.96889 0.43785 0.06864 0.0
H249 H 0.92256 0.43814 0.0885 0.0
H250 H 0.92295 0.51996 0.07066 0.0
H251 H 0.9684 0.51972 0.04896 0.0
H252 H 0.06746 0.59815 0.46322 0.0
H253 H 0.11364 0.59646 0.44597 0.0
H254 H 0.10953 0.51519 0.4085 0.0
H255 H 0.06391 0.51666 0.42742 0.0
H256 H 0.16273 0.04925 0.13796 0.0
H257 H 0.09638 0.98414 0.61496 0.0
H258 H 0.17299 0.97145 0.22872 0.0
H259 H 0.06423 0.05189 0.48668 0.0
H260 H 0.12587 0.98145 0.47508 0.0
H261 H 0.12826 0.0532 0.26392 0.0
C262 C 0.15773 0.03301 0.18361 0.0
C263 C 0.17095 1.00994 0.17234 0.0
C264 C 0.11225 0.99682 0.47591 0.0
C265 C 0.13171 1.0144 0.31735 0.0
C266 C 0.09521 0.99828 0.55605 0.0
C267 C 0.07737 0.01798 0.56227 0.0
C268 C 0.11223 1.01555 0.40065 0.0
C269 C 0.07726 0.03604 0.48409 0.0
C270 C 0.138 0.03525 0.25546 0.0
C271 C 0.16351 0.98962 0.23415 0.0
N272 N 0.09457 0.03456 0.40709 0.0
N273 N 0.14478 0.99238 0.30345 0.0
H274 H 0.55559 0.14561 0.10985 0.0
H275 H 0.49316 0.11079 0.63341 0.0
H276 H 0.49027 0.18552 0.22126 0.0
H277 H 0.53117 0.05346 0.45979 0.0
H278 H 0.49426 0.13931 0.48852 0.0
H279 H 0.54925 0.11276 0.23857 0.0
C280 C 0.53964 0.14726 0.1605 0.0
C281 C 0.52326 0.16828 0.15335 0.0
C282 C 0.50209 0.12041 0.48122 0.0
C283 C 0.51644 0.13099 0.30471 0.0
C284 C 0.5015 0.10402 0.56425 0.0
C285 C 0.51193 0.07948 0.55941 0.0
C286 C 0.51378 0.11271 0.39174 0.0
C287 C 0.52263 0.07203 0.46722 0.0
C288 C 0.53608 0.12848 0.23425 0.0
C289 C 0.50316 0.16954 0.22241 0.0
N290 N 0.52362 0.08866 0.38782 0.0
N291 N 0.5006 0.15146 0.29581 0.0
H292 H 0.39062 0.51964 0.06691 0.0
H293 H 0.42334 0.50408 0.65327 0.0
H294 H 0.33714 0.53204 0.30547 0.0
H295 H 0.48219 0.52032 0.43878 0.0
H296 H 0.3917 0.50823 0.52061 0.0
H297 H 0.42442 0.51363 0.19402 0.0
C298 C 0.38582 0.52035 0.14578 0.0
C299 C 0.36076 0.52565 0.17538 0.0
C300 C 0.41151 0.51078 0.50185 0.0
C301 C 0.39936 0.51908 0.32132 0.0
C302 C 0.42969 0.50831 0.57787 0.0
C303 C 0.45561 0.51172 0.55765 0.0
C304 C 0.41902 0.51621 0.40295 0.0
C305 C 0.46245 0.51755 0.45807 0.0
C306 C 0.40518 0.51726 0.21832 0.0
C307 C 0.35593 0.52734 0.27882 0.0
N308 N 0.44434 0.5194 0.38436 0.0
N309 N 0.37483 0.52391 0.3473 0.0
H310 H 0.04716 0.37125 0.14224 0.0
H311 H 0.98279 0.43595 0.62311 0.0
H312 H 0.96966 0.36034 0.23435 0.0
H313 H 0.04929 0.46975 0.49216 0.0
H314 H 0.98013 0.40669 0.48248 0.0
H315 H 0.05109 0.40565 0.26856 0.0
C316 C 0.03096 0.37613 0.1881 0.0
C317 C 1.00799 0.36271 0.17726 0.0
C318 C 0.99525 0.42058 0.48305 0.0
C319 C 1.01245 0.40185 0.32274 0.0
C320 C 0.99672 0.43745 0.56371 0.0
C321 C 1.01605 0.45568 0.56943 0.0
C322 C 1.01364 0.42113 0.40675 0.0
C323 C 0.03376 0.45634 0.4902 0.0
C324 C 0.0332 0.3958 0.26022 0.0
C325 C 0.98775 0.36996 0.23949 0.0
N326 N 0.03232 0.43915 0.41275 0.0
N327 N 0.99051 0.38864 0.309 0.0
H328 H 0.85916 0.96044 0.28277 0.0
H329 H 0.96669 0.04879 0.03232 0.0
H330 H 0.86931 0.03743 0.38298 0.0
H331 H 0.94035 0.97732 0.91703 0.0
H332 H 0.93589 0.04501 0.17224 0.0
H333 H 0.89291 0.96621 0.16185 0.0
C334 C 0.86862 0.97867 0.27982 0.0
C335 C 0.86111 0.99837 0.34395 0.0
C336 C 0.93717 0.02998 0.11722 0.0
C337 C 0.90069 1.00536 0.20221 0.0
C338 C 0.95503 0.03194 0.03814 0.0
C339 C 0.95671 1.0129 0.96426 0.0
C340 C 0.92089 1.00878 0.1225 0.0
C341 C 0.94027 0.99212 0.97326 0.0
C342 C 0.88803 0.982 0.20992 0.0
C343 C 0.87434 0.02159 0.33545 0.0
N344 N 0.92334 0.99063 0.05018 0.0
N345 N 0.89346 0.02446 0.26588 0.0
H346 H 0.55011 0.84447 0.25039 0.0
H347 H 0.49829 0.9793 0.05295 0.0
H348 H 0.49321 0.88452 0.4186 0.0
H349 H 0.53872 0.92449 0.87462 0.0
H350 H 0.49711 0.94804 0.19251 0.0
H351 H 0.54679 0.87591 0.11728 0.0
C352 C 0.53655 0.85977 0.25861 0.0
C353 C 0.52173 0.86151 0.34556 0.0
C354 C 0.50613 0.94293 0.12248 0.0
C355 C 0.5182 0.89873 0.19227 0.0
C356 C 0.50692 0.96085 0.04282 0.0
C357 C 0.5187 0.95481 0.95094 0.0
C358 C 0.51732 0.91877 0.11057 0.0
C359 C 0.52947 0.9304 0.94311 0.0
C360 C 0.53471 0.87792 0.18237 0.0
C361 C 0.50472 0.88212 0.35215 0.0
N362 N 0.52854 0.91363 0.02086 0.0
N363 N 0.50358 0.90006 0.27706 0.0
H364 H 0.69517 0.49521 0.25813 0.0
H365 H 0.55211 0.52126 0.06408 0.0
H366 H 0.63838 0.53262 0.43642 0.0
H367 H 0.61458 0.50636 0.86463 0.0
H368 H 0.58165 0.51868 0.20721 0.0
H369 H 0.66426 0.49205 0.11955 0.0
C370 C 0.6761 0.50226 0.26912 0.0
C371 C 0.66942 0.51423 0.35953 0.0
C372 C 0.58887 0.51591 0.13205 0.0
C373 C 0.63377 0.51058 0.20089 0.0
C374 C 0.57196 0.51737 0.05023 0.0
C375 C 0.58078 0.51429 0.95156 0.0
C376 C 0.61485 0.51098 0.1158 0.0
C377 C 0.60683 0.50914 0.93894 0.0
C378 C 0.65846 0.50064 0.18958 0.0
C379 C 0.64441 0.52327 0.36827 0.0
N380 N 0.62281 0.50763 0.01944 0.0
N381 N 0.62761 0.52124 0.29072 0.0
H382 H 0.0424 0.68899 0.28038 0.0
H383 H 0.99815 0.555 0.03795 0.0
H384 H 0.98106 0.64411 0.39827 0.0
H385 H 0.04154 0.61096 0.87703 0.0
H386 H 0.99739 0.58366 0.18456 0.0
H387 H 0.04838 0.65701 0.14696 0.0
C388 C 0.03057 0.67221 0.27973 0.0
C389 C 1.01123 0.66929 0.35146 0.0
C390 C 1.00728 0.58956 0.11734 0.0
C391 C 0.01787 0.63246 0.19801 0.0
C392 C 1.00778 0.57308 0.03366 0.0
C393 C 0.01977 0.58049 0.94416 0.0
C394 C 0.01929 0.61353 0.11273 0.0
C395 C 0.03185 0.60439 0.9437 0.0
C396 C 0.03382 0.654 0.20287 0.0
C397 C 0.99622 0.64722 0.34499 0.0
N398 N 0.03134 0.61987 0.02583 0.0
N399 N 0.99982 0.62982 0.27042 0.0
H400 H 0.06542 0.23664 0.28081 0.0
H401 H 0.95422 0.15303 0.49236 0.0
H402 H 0.99074 0.2697 0.28147 0.0
H403 H 1.00998 0.13173 0.27155 0.0
H404 H 0.96899 0.1975 0.47969 0.0
H405 H 0.04863 0.19972 0.36888 0.0
C406 C 0.04587 0.23685 0.3057 0.0
C407 C 0.02917 0.25554 0.27152 0.0
C408 C 0.97772 0.18292 0.43417 0.0
C409 C 1.0099 0.21361 0.3678 0.0
C410 C 0.96911 0.15788 0.43982 0.0
C411 C 0.9812 0.13899 0.38332 0.0
C412 C 0.99877 0.18836 0.37394 0.0
C413 C 1.00048 0.14585 0.31695 0.0
C414 C 0.03619 0.21566 0.35404 0.0
C415 C 1.00396 0.25516 0.30519 0.0
N416 N 1.00896 0.16998 0.31518 0.0
N417 N 0.99464 0.23377 0.34812 0.0
H418 H 0.26412 0.9879 0.28143 0.0
H419 H 0.40079 0.99724 0.25091 0.0
H420 H 0.29911 0.06173 0.27775 0.0
H421 H 0.38248 0.96337 0.53637 0.0
H422 H 0.3569 1.01164 0.2353 0.0
H423 H 0.30049 0.97134 0.37478 0.0
C424 C 0.27862 1.00101 0.30656 0.0
C425 C 0.2793 0.02595 0.26994 0.0
C426 C 0.36252 1.00078 0.30076 0.0
C427 C 0.3204 1.00724 0.37303 0.0
C428 C 0.38721 0.99228 0.3087 0.0
C429 C 0.39477 0.97916 0.3945 0.0
C430 C 0.34552 0.99609 0.3793 0.0
C431 C 0.37687 0.9733 0.46876 0.0
C432 C 0.29941 0.99147 0.35878 0.0
C433 C 0.29836 0.04225 0.30362 0.0
N434 N 0.35271 0.98199 0.45986 0.0
N435 N 0.31892 0.03232 0.34976 0.0
H436 H 0.55714 0.26765 0.26645 0.0
H437 H 0.52282 0.4039 0.27736 0.0
H438 H 0.47945 0.29127 0.29804 0.0
H439 H 0.5809 0.3852 0.49313 0.0
H440 H 0.51212 0.35907 0.26416 0.0
H441 H 0.57076 0.30607 0.35382 0.0
C442 C 0.54288 0.28002 0.29843 0.0
C443 C 0.51727 0.27702 0.27299 0.0
C444 C 0.52716 0.36481 0.31469 0.0
C445 C 0.53253 0.32058 0.3687 0.0
C446 C 0.53351 0.39018 0.32079 0.0
C447 C 0.55246 0.39796 0.38713 0.0
C448 C 0.53998 0.34717 0.37481 0.0
C449 C 0.56612 0.37963 0.44124 0.0
C450 C 0.55069 0.30207 0.34681 0.0
C451 C 0.49941 0.29339 0.31522 0.0
N452 N 0.55958 0.35474 0.43405 0.0
N453 N 0.50745 0.31526 0.35744 0.0
H454 H 0.23905 0.47656 0.2942 0.0
H455 H 0.15021 0.58436 0.33031 0.0
H456 H 0.2679 0.55236 0.25421 0.0
H457 H 0.14258 0.52241 0.53969 0.0
H458 H 0.19554 0.57513 0.31724 0.0
H459 H 0.20679 0.49316 0.40768 0.0
C460 C 0.23938 0.49649 0.31404 0.0
C461 C 0.2558 0.51323 0.26544 0.0
C462 C 0.18408 0.56411 0.36875 0.0
C463 C 0.21855 0.53245 0.38915 0.0
C464 C 0.15826 0.56929 0.37559 0.0
C465 C 0.14275 0.55363 0.43406 0.0
C466 C 0.1941 0.54302 0.41994 0.0
C467 C 0.15396 0.53437 0.49159 0.0
C468 C 0.22091 0.50605 0.37793 0.0
C469 C 0.25539 0.53899 0.29114 0.0
N470 N 0.17893 0.52918 0.48136 0.0
N471 N 0.2363 0.54807 0.34855 0.0
H472 H 0.97039 0.7994 0.22323 0.0
H473 H 0.08064 0.88504 0.17561 0.0
H474 H 0.04514 0.76711 0.25099 0.0
H475 H 0.02054 0.89288 0.95787 0.0
H476 H 0.06923 0.84034 0.19652 0.0
H477 H 0.98765 0.83188 0.1111 0.0
C478 C 0.99011 0.79838 0.20094 0.0
C479 C 1.00643 0.78076 0.24539 0.0
C480 C 0.05908 0.85169 0.14184 0.0
C481 C 0.0264 0.81818 0.1235 0.0
C482 C 0.06554 0.87714 0.13028 0.0
C483 C 0.05103 0.89263 0.06706 0.0
C484 C 0.03788 0.84205 0.09066 0.0
C485 C 0.0316 0.8816 0.00988 0.0
C486 C 1.00005 0.81696 0.13803 0.0
C487 C 0.03202 0.7804 0.21693 0.0
N488 N 0.02512 0.85705 0.02493 0.0
N489 N 0.04151 0.79954 0.16065 0.0
H490 H 0.75867 0.07278 0.28236 0.0
H491 H 0.64053 0.01858 0.99131 0.0
H492 H 0.74865 0.99401 0.20744 0.0
H493 H 0.64394 0.08824 0.16135 0.0
H494 H 0.68658 1.01458 0.00732 0.0
H495 H 0.72496 0.08392 0.16453 0.0
C496 C 0.75025 0.05804 0.23661 0.0
C497 C 0.75587 0.03254 0.25433 0.0
C498 C 0.67717 0.03098 0.03904 0.0
C499 C 0.71698 0.04476 0.12449 0.0
C500 C 0.6509 0.03309 0.03154 0.0
C501 C 0.63823 0.05349 0.07718 0.0
C502 C 0.69079 0.04946 0.09203 0.0
C503 C 0.65277 0.07218 0.12502 0.0
C504 C 0.73085 0.06429 0.17052 0.0
C505 C 0.74446 1.0139 0.19519 0.0
N506 N 0.67822 0.06954 0.13216 0.0
N507 N 0.72488 0.0203 0.13446 0.0
H508 H 0.55589 0.73372 0.26135 0.0
H509 H 0.46034 0.65275 0.9521 0.0
H510 H 0.4827 0.76858 0.22084 0.0
H511 H 0.492 0.6325 0.23956 0.0
H512 H 0.47526 0.69683 0.97736 0.0
H513 H 0.54191 0.69798 0.15919 0.0
C514 C 0.5375 0.73463 0.22518 0.0
C515 C 0.52007 0.7535 0.25132 0.0
C516 C 0.47854 0.68262 0.03471 0.0
C517 C 0.50411 0.71308 0.13688 0.0
C518 C 0.46981 0.65782 0.02133 0.0
C519 C 0.47501 0.63935 0.09442 0.0
C520 C 0.49286 0.68824 0.12016 0.0
C521 C 0.48775 0.64636 0.18189 0.0
C522 C 0.52944 0.71416 0.1682 0.0
C523 C 0.49642 0.75397 0.20323 0.0
N524 N 0.49655 0.67028 0.1919 0.0
N525 N 0.48859 0.73334 0.15095 0.0
H526 H 0.79459 0.56013 0.20605 0.0
H527 H 0.88693 0.45402 0.20541 0.0
H528 H 0.76675 0.48533 0.27684 0.0
H529 H 0.88833 0.50624 0.95633 0.0
H530 H 0.84182 0.46358 0.2289 0.0
H531 H 0.82763 0.54083 0.10225 0.0
C532 C 0.79461 0.53978 0.19494 0.0
C533 C 0.77799 0.52428 0.24878 0.0
C534 C 0.85189 0.47226 0.16696 0.0
C535 C 0.81622 0.50218 0.13698 0.0
C536 C 0.87756 0.46686 0.15383 0.0
C537 C 0.89136 0.47985 0.08025 0.0
C538 C 0.84037 0.49089 0.10665 0.0
C539 C 0.87843 0.49636 0.01537 0.0
C540 C 0.81356 0.52871 0.13702 0.0
C541 C 0.77913 0.49786 0.23497 0.0
N542 N 0.85375 0.50195 0.03158 0.0
N543 N 0.79864 0.48752 0.18349 0.0
H544 H 0.98672 0.22993 0.97225 0.0
H545 H 0.05074 0.11018 0.69635 0.0
H546 H 0.06345 0.23347 0.8644 0.0
H547 H 0.99335 0.10347 0.92387 0.0
H548 H 0.0516 0.1566 0.72362 0.0
H549 H 0.98407 0.18571 0.91652 0.0
C550 C 1.0026 0.22188 0.93185 0.0
C551 C 0.02509 0.23604 0.92064 0.0
C552 C 0.03879 0.14498 0.76744 0.0
C553 C 0.02248 0.18442 0.85906 0.0
C554 C 0.03829 0.11847 0.7519 0.0
C555 C 0.02202 0.10282 0.80824 0.0
C556 C 0.02248 0.15616 0.83843 0.0
C557 C 1.00623 0.11471 0.8789 0.0
C558 C 1.00127 0.19632 0.90209 0.0
C559 C 0.04545 0.22379 0.87209 0.0
N560 N 1.00676 0.14048 0.89147 0.0
N561 N 0.04371 0.19882 0.84352 0.0
H562 H 0.30246 0.06826 0.89553 0.0
H563 H 0.42523 0.98131 0.78225 0.0
H564 H 0.30215 0.9871 0.9283 0.0
H565 H 0.42849 0.06228 0.82172 0.0
H566 H 0.3791 0.98274 0.8098 0.0
H567 H 0.34644 0.0661 0.83518 0.0
C568 C 0.31116 0.04984 0.8853 0.0
C569 C 0.29798 0.02778 0.91423 0.0
C570 C 0.38981 1.00026 0.81157 0.0
C571 C 0.3494 0.0252 0.85013 0.0
C572 C 0.41622 0.99945 0.79566 0.0
C573 C 0.43093 0.02171 0.79961 0.0
C574 C 0.37762 0.02361 0.8294 0.0
C575 C 0.41807 0.04461 0.81858 0.0
C576 C 0.33659 0.04865 0.853 0.0
C577 C 0.31103 1.00455 0.90372 0.0
N578 N 0.39232 0.04497 0.832 0.0
N579 N 0.33587 1.0039 0.87374 0.0
H580 H 0.55174 0.30721 0.96876 0.0
H581 H 0.49189 0.42393 0.67034 0.0
H582 H 0.47438 0.30092 0.86923 0.0
H583 H 0.53314 0.43339 0.94638 0.0
H584 H 0.4915 0.37747 0.69901 0.0
H585 H 0.55244 0.35144 0.91212 0.0
C586 C 0.53526 0.31469 0.93015 0.0
C587 C 0.51314 0.2998 0.92219 0.0
C588 C 0.50067 0.38975 0.753 0.0
C589 C 0.51373 0.35124 0.85803 0.0
C590 C 0.50097 0.41625 0.73664 0.0
C591 C 0.51246 0.43268 0.80638 0.0
C592 C 0.51283 0.37942 0.83774 0.0
C593 C 0.52391 0.42157 0.89097 0.0
C594 C 0.53554 0.34019 0.89966 0.0
C595 C 0.49207 0.31122 0.87492 0.0
N596 N 0.52411 0.3958 0.90345 0.0
N597 N 0.49285 0.33618 0.84487 0.0
H598 H 0.22662 0.55067 0.97721 0.0
H599 H 0.111 0.49578 0.66076 0.0
H600 H 0.23418 0.47599 0.85104 0.0
H601 H 0.10082 0.52955 0.95163 0.0
H602 H 0.15741 0.49552 0.68924 0.0
H603 H 0.18229 0.55179 0.92197 0.0
C604 C 0.21939 0.53502 0.93302 0.0
C605 C 0.23462 0.51343 0.91712 0.0
C606 C 0.14497 0.50303 0.7465 0.0
C607 C 0.18318 0.51443 0.85487 0.0
C608 C 0.11851 0.50319 0.73043 0.0
C609 C 0.10189 0.51252 0.80429 0.0
C610 C 0.15506 0.51332 0.83518 0.0
C611 C 0.11279 0.52197 0.89297 0.0
C612 C 0.19385 0.53547 0.90343 0.0
C613 C 0.22357 0.49329 0.86297 0.0
N614 N 0.13853 0.52247 0.90521 0.0
N615 N 0.19859 0.49424 0.83401 0.0
H616 H 0.05167 0.80838 0.54004 0.0
H617 H 0.97388 0.92942 0.74386 0.0
H618 H 0.97465 0.80373 0.64358 0.0
H619 H 0.0532 0.93225 0.66988 0.0
H620 H 0.97434 0.88318 0.71646 0.0
H621 H 0.05366 0.85251 0.59843 0.0
C622 C 0.03557 0.81617 0.57987 0.0
C623 C 1.01326 0.80168 0.58994 0.0
C624 C 0.99169 0.89383 0.706 0.0
C625 C 1.01488 0.85333 0.65281 0.0
C626 C 0.99138 0.92033 0.72129 0.0
C627 C 1.01351 0.93488 0.70894 0.0
C628 C 1.0142 0.88156 0.67593 0.0
C629 C 0.0357 0.92187 0.6807 0.0
C630 C 0.03652 0.84169 0.61144 0.0
C631 C 0.99254 0.81366 0.637 0.0
N632 N 0.03542 0.8962 0.6643 0.0
N633 N 0.99377 0.83861 0.6656 0.0
H634 H 0.73489 0.04592 0.67287 0.0
H635 H 0.59842 0.98279 0.59528 0.0
H636 H 0.7233 0.97404 0.52797 0.0
H637 H 0.61025 0.03955 0.82298 0.0
H638 H 0.64422 0.98072 0.56878 0.0
H639 H 0.69071 0.04451 0.73394 0.0
C640 C 0.72351 0.02926 0.65775 0.0
C641 C 0.73338 1.0097 0.59727 0.0
C642 C 0.63693 0.99356 0.62511 0.0
C643 C 0.68182 1.00878 0.66126 0.0
C644 C 0.61056 0.99483 0.6402 0.0
C645 C 0.60001 1.01131 0.71196 0.0
C646 C 0.65344 1.00915 0.6807 0.0
C647 C 0.61722 0.02646 0.76696 0.0
C648 C 0.69802 0.0287 0.69104 0.0
C649 C 0.71699 0.98922 0.57651 0.0
N650 N 0.64287 0.02516 0.74972 0.0
N651 N 0.69221 0.98953 0.60657 0.0
H652 H 0.47613 0.73018 0.60723 0.0
H653 H 0.55815 0.6041 0.65496 0.0
H654 H 0.55764 0.73103 0.61328 0.0
H655 H 0.48281 0.60773 0.77889 0.0
H656 H 0.55731 0.65034 0.63139 0.0
H657 H 0.47682 0.68604 0.66848 0.0
C658 C 0.49415 0.72159 0.62643 0.0
C659 C 0.51685 0.73488 0.60783 0.0
C660 C 0.54098 0.64107 0.66424 0.0
C661 C 0.51787 0.68341 0.67156 0.0
C662 C 0.54142 0.61456 0.67733 0.0
C663 C 0.52058 0.60176 0.71941 0.0
C664 C 0.51929 0.65516 0.69078 0.0
C665 C 0.49943 0.61663 0.74679 0.0
C666 C 0.49456 0.69613 0.65948 0.0
C667 C 0.53965 0.72198 0.62915 0.0
N668 N 0.4992 0.64232 0.73094 0.0
N669 N 0.53958 0.69706 0.65773 0.0
H670 H 0.79674 0.54004 0.6996 0.0
H671 H 0.93901 0.52139 0.53645 0.0
H672 H 0.81754 0.49063 0.45643 0.0
H673 H 0.92318 0.51892 0.85296 0.0
H674 H 0.8934 0.51832 0.50214 0.0
H675 H 0.84124 0.53866 0.75957 0.0
C676 C 0.81033 0.52818 0.66097 0.0
C677 C 0.8031 0.51512 0.57341 0.0
C678 C 0.89987 0.51849 0.57924 0.0
C679 C 0.85441 0.51491 0.63755 0.0
C680 C 0.92596 0.52042 0.599 0.0
C681 C 0.93514 0.52032 0.69803 0.0
C682 C 0.8824 0.51714 0.65877 0.0
C683 C 0.91703 0.51887 0.77558 0.0
C684 C 0.83584 0.52771 0.69433 0.0
C685 C 0.822 0.50071 0.52495 0.0
N686 N 0.89159 0.51761 0.75453 0.0
N687 N 0.84663 0.50153 0.55585 0.0
loop_
_geom_bond_atom_site_label_1
_geom_bond_atom_site_label_2
_geom_bond_distance
_geom_bond_site_symmetry_2
_ccdc_geom_bond_type
H0 C5 0.930 . S
H1 C8 0.930 . S
H2 C10 0.930 . S
H3 C4 1.016 . S
C4 H3 1.016 . S
C4 N11 1.286 . S
C5 H0 0.930 . S
C5 C6 1.397 . S
C5 C7 1.361 . S
C6 C5 1.397 . S
C6 C10 1.390 . S
C7 C5 1.361 . S
C7 C8 1.393 . S
C7 N11 1.413 . S
C8 H1 0.930 . S
C8 C7 1.393 . S
C8 C9 1.399 . S
C9 C8 1.399 . S
C9 C10 1.381 . S
C10 H2 0.930 . S
C10 C6 1.390 . S
C10 C9 1.381 . S
N11 C4 1.286 . S
N11 C7 1.413 . S
H12 C17 0.930 . S
H13 C20 0.930 . S
H14 C22 0.930 . S
H15 C16 1.029 . S
C16 H15 1.029 . S
C16 N23 1.268 1_655 S
C17 H12 0.930 . S
C17 C18 1.397 . S
C17 C19 1.361 . S
C18 C17 1.397 . S
C18 C22 1.390 1_455 S
C19 C17 1.361 . S
C19 C20 1.393 . S
C19 N23 1.413 . S
C20 H13 0.930 . S
C20 C19 1.393 . S
C20 C21 1.402 . S
C21 C20 1.402 . S
C21 C22 1.379 1_455 S
C22 H14 0.930 . S
C22 C18 1.390 1_655 S
C22 C21 1.379 1_655 S
N23 C16 1.268 1_455 S
N23 C19 1.413 . S
H24 C29 0.930 . S
H25 C32 0.930 . S
H26 C34 0.930 . S
H27 C28 1.030 . S
C28 H27 1.030 . S
C28 N35 1.268 1_565 S
C29 H24 0.930 . S
C29 C30 1.397 . S
C29 C31 1.361 . S
C30 C29 1.397 . S
C30 C34 1.390 1_545 S
C31 C29 1.361 . S
C31 C32 1.393 . S
C31 N35 1.413 . S
C32 H25 0.930 . S
C32 C31 1.393 . S
C32 C33 1.402 . S
C33 C32 1.402 . S
C33 C34 1.379 1_545 S
C34 H26 0.930 . S
C34 C30 1.390 1_565 S
C34 C33 1.379 1_565 S
N35 C28 1.268 1_545 S
N35 C31 1.413 . S
H36 C41 0.930 . S
H37 C44 0.930 . S
H38 C46 0.930 . S
H39 C40 1.016 . S
C40 H39 1.016 . S
C40 N47 1.286 . S
C41 H36 0.930 . S
C41 C42 1.397 . S
C41 C43 1.361 . S
C42 C41 1.397 . S
C42 C46 1.390 . S
C43 C41 1.361 . S
C43 C44 1.393 . S
C43 N47 1.413 . S
C44 H37 0.930 . S
C44 C43 1.393 . S
C44 C45 1.399 . S
C45 C44 1.399 . S
C45 C46 1.381 . S
C46 H38 0.930 . S
C46 C42 1.390 . S
C46 C45 1.381 . S
N47 C40 1.286 . S
N47 C43 1.413 . S
H48 C53 0.930 . S
H49 C56 0.930 . S
H50 C58 0.930 . S
H51 C52 1.016 . S
C52 H51 1.016 . S
C52 N59 1.286 . S
C53 H48 0.930 . S
C53 C54 1.397 . S
C53 C55 1.361 1_556 S
C54 C53 1.397 . S
C54 C58 1.390 1_556 S
C55 C53 1.361 1_554 S
C55 C56 1.393 . S
C55 N59 1.413 . S
C56 H49 0.930 . S
C56 C55 1.393 . S
C56 C57 1.399 . S
C57 C56 1.399 . S
C57 C58 1.381 . S
C58 H50 0.930 . S
C58 C54 1.390 1_554 S
C58 C57 1.381 . S
N59 C52 1.286 . S
N59 C55 1.413 . S
H60 C65 0.930 . S
H61 C68 0.930 . S
H62 C70 0.930 . S
H63 C64 1.026 . S
C64 H63 1.026 . S
C64 N71 1.273 1_655 S
C65 H60 0.930 . S
C65 C66 1.397 . S
C65 C67 1.361 1_556 S
C66 C65 1.397 . S
C66 C70 1.390 1_456 S
C67 C65 1.361 1_554 S
C67 C68 1.393 . S
C67 N71 1.413 . S
C68 H61 0.930 . S
C68 C67 1.393 . S
C68 C69 1.404 . S
C69 C68 1.404 . S
C69 C70 1.378 1_455 S
C70 H62 0.930 . S
C70 C66 1.390 1_654 S
C70 C69 1.378 1_655 S
N71 C64 1.273 1_455 S
N71 C67 1.413 . S
H72 C77 0.930 . S
H73 C80 0.930 . S
H74 C82 0.930 . S
H75 C76 1.026 . S
C76 H75 1.026 . S
C76 N83 1.273 1_565 S
C77 H72 0.930 . S
C77 C78 1.397 . S
C77 C79 1.361 1_556 S
C78 C77 1.397 . S
C78 C82 1.390 1_546 S
C79 C77 1.361 1_554 S
C79 C80 1.393 . S
C79 N83 1.413 . S
C80 H73 0.930 . S
C80 C79 1.393 . S
C80 C81 1.404 . S
C81 C80 1.404 . S
C81 C82 1.378 1_545 S
C82 H74 0.930 . S
C82 C78 1.390 1_564 S
C82 C81 1.378 1_565 S
N83 C76 1.273 1_545 S
N83 C79 1.413 . S
H84 C89 0.930 . S
H85 C92 0.930 . S
H86 C94 0.930 1_556 S
H87 C88 1.016 . S
C88 H87 1.016 . S
C88 N95 1.286 . S
C89 H84 0.930 . S
C89 C90 1.397 . S
C89 C91 1.361 1_556 S
C90 C89 1.397 . S
C90 C94 1.390 1_556 S
C91 C89 1.361 1_554 S
C91 C92 1.393 . S
C91 N95 1.413 . S
C92 H85 0.930 . S
C92 C91 1.393 . S
C92 C93 1.399 . S
C93 C92 1.399 . S
C93 C94 1.381 . S
C94 H86 0.930 1_554 S
C94 C90 1.390 1_554 S
C94 C93 1.381 . S
N95 C88 1.286 . S
N95 C91 1.413 . S
Pr96 C98 2.880 . S
Pr96 O116 2.562 . S
Pr96 O117 2.490 . S
Pr96 O118 2.695 1_565 S
Pr96 O119 2.512 . S
Pr96 O121 2.437 . S
Pr96 O124 2.436 1_455 S
Pr96 O126 2.438 1_565 S
Pr97 C107 2.880 . S
Pr97 O118 2.436 1_655 S
Pr97 O120 2.438 1_545 S
Pr97 O122 2.562 . S
Pr97 O123 2.490 . S
Pr97 O124 2.695 1_545 S
Pr97 O125 2.512 . S
Pr97 O127 2.437 . S
C98 Pr96 2.880 . S
C98 C99 1.491 1_556 S
C98 O116 1.254 . S
C98 O117 1.225 . S
C99 C98 1.491 1_554 S
C99 C100 1.392 . S
C99 C104 1.356 . S
C100 C99 1.392 . S
C100 C101 1.368 . S
C100 H128 0.929 . S
C101 C100 1.368 . S
C101 C102 1.386 . S
C101 H129 0.929 . S
C102 C101 1.386 . S
C102 C103 1.373 . S
C103 C102 1.373 . S
C103 C104 1.409 . S
C103 H130 0.931 1_455 S
C104 C99 1.356 . S
C104 C103 1.409 . S
C104 H131 0.930 1_455 S
C105 O118 1.270 1_565 S
C105 O119 1.248 . S
C106 O120 1.267 . S
C106 O121 1.278 1_655 S
C107 Pr97 2.880 . S
C107 C108 1.491 . S
C107 O122 1.254 . S
C107 O123 1.225 . S
C108 C107 1.491 . S
C108 C109 1.392 . S
C108 C113 1.356 . S
C109 C108 1.392 . S
C109 C110 1.368 . S
C109 H132 0.929 . S
C110 C109 1.368 . S
C110 C111 1.386 . S
C110 H133 0.929 . S
C111 C110 1.386 . S
C111 C112 1.373 . S
C112 C111 1.373 . S
C112 C113 1.409 . S
C112 H134 0.931 1_655 S
C113 C108 1.356 . S
C113 C112 1.409 . S
C113 H135 0.930 1_655 S
C114 O124 1.270 1_545 S
C114 O125 1.248 . S
C115 O126 1.267 . S
C115 O127 1.278 1_455 S
O116 Pr96 2.562 . S
O116 C98 1.254 . S
O117 Pr96 2.490 . S
O117 C98 1.225 . S
O118 Pr96 2.695 1_545 S
O118 Pr97 2.436 1_455 S
O118 C105 1.270 1_545 S
O119 Pr96 2.512 . S
O119 C105 1.248 . S
O120 Pr97 2.438 1_565 S
O120 C106 1.267 . S
O121 Pr96 2.437 . S
O121 C106 1.278 1_455 S
O122 Pr97 2.562 . S
O122 C107 1.254 . S
O123 Pr97 2.490 . S
O123 C107 1.225 . S
O124 Pr96 2.436 1_655 S
O124 Pr97 2.695 1_565 S
O124 C114 1.270 1_565 S
O125 Pr97 2.512 . S
O125 C114 1.248 . S
O126 Pr96 2.438 1_545 S
O126 C115 1.267 . S
O127 Pr97 2.437 . S
O127 C115 1.278 1_655 S
H128 C100 0.929 . S
H129 C101 0.929 . S
H130 C103 0.931 1_655 S
H131 C104 0.930 1_655 S
H132 C109 0.929 . S
H133 C110 0.929 . S
H134 C112 0.931 1_455 S
H135 C113 0.930 1_455 S
Pr136 C138 2.880 . S
Pr136 O156 2.562 . S
Pr136 O157 2.490 . S
Pr136 O158 2.695 . S
Pr136 O159 2.512 . S
Pr136 O161 2.437 . S
Pr136 O164 2.436 1_545 S
Pr136 O166 2.438 . S
Pr137 C147 2.880 . S
Pr137 O158 2.436 1_565 S
Pr137 O160 2.438 . S
Pr137 O162 2.562 . S
Pr137 O163 2.490 . S
Pr137 O164 2.695 . S
Pr137 O165 2.512 . S
Pr137 O167 2.437 . S
C138 Pr136 2.880 . S
C138 C139 1.491 1_556 S
C138 O156 1.254 . S
C138 O157 1.225 . S
C139 C138 1.491 1_554 S
C139 C140 1.392 . S
C139 C144 1.356 . S
C140 C139 1.392 . S
C140 C141 1.368 . S
C140 H168 0.929 . S
C141 C140 1.368 . S
C141 C142 1.386 . S
C141 H169 0.929 . S
C142 C141 1.386 . S
C142 C143 1.373 . S
C143 C142 1.373 . S
C143 C144 1.409 . S
C143 H170 0.931 1_545 S
C144 C139 1.356 . S
C144 C143 1.409 . S
C144 H171 0.930 1_545 S
C145 O158 1.270 . S
C145 O159 1.248 . S
C146 O160 1.267 . S
C146 O161 1.278 1_565 S
C147 Pr137 2.880 . S
C147 C148 1.491 . S
C147 O162 1.254 . S
C147 O163 1.225 . S
C148 C147 1.491 . S
C148 C149 1.392 . S
C148 C153 1.356 . S
C149 C148 1.392 . S
C149 C150 1.368 . S
C149 H172 0.929 . S
C150 C149 1.368 . S
C150 C151 1.386 . S
C150 H173 0.929 . S
C151 C150 1.386 . S
C151 C152 1.373 . S
C152 C151 1.373 . S
C152 C153 1.409 . S
C152 H174 0.931 1_565 S
C153 C148 1.356 . S
C153 C152 1.409 . S
C153 H175 0.930 1_565 S
C154 O164 1.270 . S
C154 O165 1.248 . S
C155 O166 1.267 . S
C155 O167 1.278 1_545 S
O156 Pr136 2.562 . S
O156 C138 1.254 . S
O157 Pr136 2.490 . S
O157 C138 1.225 . S
O158 Pr136 2.695 . S
O158 Pr137 2.436 1_545 S
O158 C145 1.270 . S
O159 Pr136 2.512 . S
O159 C145 1.248 . S
O160 Pr137 2.438 . S
O160 C146 1.267 . S
O161 Pr136 2.437 . S
O161 C146 1.278 1_545 S
O162 Pr137 2.562 . S
O162 C147 1.254 . S
O163 Pr137 2.490 . S
O163 C147 1.225 . S
O164 Pr136 2.436 1_565 S
O164 Pr137 2.695 . S
O164 C154 1.270 . S
O165 Pr137 2.512 . S
O165 C154 1.248 . S
O166 Pr136 2.438 . S
O166 C155 1.267 . S
O167 Pr137 2.437 . S
O167 C155 1.278 1_565 S
H168 C140 0.929 . S
H169 C141 0.929 . S
H170 C143 0.931 1_565 S
H171 C144 0.930 1_565 S
H172 C149 0.929 . S
H173 C150 0.929 . S
H174 C152 0.931 1_545 S
H175 C153 0.930 1_545 S
Pr176 C178 2.880 . S
Pr176 O196 2.562 . S
Pr176 O197 2.490 . S
Pr176 O198 2.695 . S
Pr176 O199 2.512 . S
Pr176 O201 2.437 . S
Pr176 O204 2.436 . S
Pr176 O206 2.438 . S
Pr177 C187 2.880 . S
Pr177 O198 2.436 . S
Pr177 O200 2.438 . S
Pr177 O202 2.562 . S
Pr177 O203 2.490 . S
Pr177 O204 2.695 . S
Pr177 O205 2.512 . S
Pr177 O207 2.437 . S
C178 Pr176 2.880 . S
C178 C179 1.491 1_556 S
C178 O196 1.254 . S
C178 O197 1.225 . S
C179 C178 1.491 1_554 S
C179 C180 1.392 . S
C179 C184 1.356 . S
C180 C179 1.392 . S
C180 C181 1.368 . S
C180 H208 0.929 . S
C181 C180 1.368 . S
C181 C182 1.386 . S
C181 H209 0.929 . S
C182 C181 1.386 . S
C182 C183 1.373 . S
C183 C182 1.373 . S
C183 C184 1.409 . S
C183 H210 0.931 . S
C184 C179 1.356 . S
C184 C183 1.409 . S
C184 H211 0.930 . S
C185 O198 1.270 . S
C185 O199 1.248 . S
C186 O200 1.267 . S
C186 O201 1.278 . S
C187 Pr177 2.880 . S
C187 C188 1.491 . S
C187 O202 1.254 . S
C187 O203 1.225 . S
C188 C187 1.491 . S
C188 C189 1.392 . S
C188 C193 1.356 . S
C189 C188 1.392 . S
C189 C190 1.368 . S
C189 H212 0.929 . S
C190 C189 1.368 . S
C190 C191 1.386 . S
C190 H213 0.929 . S
C191 C190 1.386 . S
C191 C192 1.373 . S
C192 C191 1.373 . S
C192 C193 1.409 . S
C192 H214 0.931 . S
C193 C188 1.356 . S
C193 C192 1.409 . S
C193 H215 0.930 . S
C194 O204 1.270 . S
C194 O205 1.248 . S
C195 O206 1.267 . S
C195 O207 1.278 . S
O196 Pr176 2.562 . S
O196 C178 1.254 . S
O197 Pr176 2.490 . S
O197 C178 1.225 . S
O198 Pr176 2.695 . S
O198 Pr177 2.436 . S
O198 C185 1.270 . S
O199 Pr176 2.512 . S
O199 C185 1.248 . S
O200 Pr177 2.438 . S
O200 C186 1.267 . S
O201 Pr176 2.437 . S
O201 C186 1.278 . S
O202 Pr177 2.562 . S
O202 C187 1.254 . S
O203 Pr177 2.490 . S
O203 C187 1.225 . S
O204 Pr176 2.436 . S
O204 Pr177 2.695 . S
O204 C194 1.270 . S
O205 Pr177 2.512 . S
O205 C194 1.248 . S
O206 Pr176 2.438 . S
O206 C195 1.267 . S
O207 Pr177 2.437 . S
O207 C195 1.278 . S
H208 C180 0.929 . S
H209 C181 0.929 . S
H210 C183 0.931 . S
H211 C184 0.930 . S
H212 C189 0.929 . S
H213 C190 0.929 . S
H214 C192 0.931 . S
H215 C193 0.930 . S
Pr216 C218 2.880 . S
Pr216 O236 2.562 . S
Pr216 O237 2.490 . S
Pr216 O238 2.695 1_655 S
Pr216 O239 2.512 . S
Pr216 O241 2.437 . S
Pr216 O244 2.436 . S
Pr216 O246 2.438 1_655 S
Pr217 C227 2.880 . S
Pr217 O238 2.436 . S
Pr217 O240 2.438 1_455 S
Pr217 O242 2.562 . S
Pr217 O243 2.490 . S
Pr217 O244 2.695 1_455 S
Pr217 O245 2.512 . S
Pr217 O247 2.437 . S
C218 Pr216 2.880 . S
C218 C219 1.491 1_556 S
C218 O236 1.254 . S
C218 O237 1.225 . S
C219 C218 1.491 1_554 S
C219 C220 1.392 . S
C219 C224 1.356 . S
C220 C219 1.392 . S
C220 C221 1.368 . S
C220 H248 0.929 . S
C221 C220 1.368 . S
C221 C222 1.386 . S
C221 H249 0.929 . S
C222 C221 1.386 . S
C222 C223 1.373 . S
C223 C222 1.373 . S
C223 C224 1.409 . S
C223 H250 0.931 . S
C224 C219 1.356 . S
C224 C223 1.409 . S
C224 H251 0.930 . S
C225 O238 1.259 1_655 S
C225 O239 1.267 . S
C226 O240 1.267 . S
C226 O241 1.278 . S
C227 Pr217 2.880 . S
C227 C228 1.491 . S
C227 O242 1.254 . S
C227 O243 1.225 . S
C228 C227 1.491 . S
C228 C229 1.392 . S
C228 C233 1.356 . S
C229 C228 1.392 . S
C229 C230 1.368 . S
C229 H252 0.929 . S
C230 C229 1.368 . S
C230 C231 1.386 . S
C230 H253 0.929 . S
C231 C230 1.386 . S
C231 C232 1.373 . S
C232 C231 1.373 . S
C232 C233 1.409 . S
C232 H254 0.931 . S
C233 C228 1.356 . S
C233 C232 1.409 . S
C233 H255 0.930 . S
C234 O244 1.270 1_455 S
C234 O245 1.248 . S
C235 O246 1.267 . S
C235 O247 1.278 . S
O236 Pr216 2.562 . S
O236 C218 1.254 . S
O237 Pr216 2.490 . S
O237 C218 1.225 . S
O238 Pr216 2.695 1_455 S
O238 Pr217 2.436 . S
O238 C225 1.259 1_455 S
O239 Pr216 2.512 . S
O239 C225 1.267 . S
O240 Pr217 2.438 1_655 S
O240 C226 1.267 . S
O241 Pr216 2.437 . S
O241 C226 1.278 . S
O242 Pr217 2.562 . S
O242 C227 1.254 . S
O243 Pr217 2.490 . S
O243 C227 1.225 . S
O244 Pr216 2.436 . S
O244 Pr217 2.695 1_655 S
O244 C234 1.270 1_655 S
O245 Pr217 2.512 . S
O245 C234 1.248 . S
O246 Pr216 2.438 1_455 S
O246 C235 1.267 . S
O247 Pr217 2.437 . S
O247 C235 1.278 . S
H248 C220 0.929 . S
H249 C221 0.929 . S
H250 C223 0.931 . S
H251 C224 0.930 . S
H252 C229 0.929 . S
H253 C230 0.929 . S
H254 C232 0.931 . S
H255 C233 0.930 . S
H256 C262 0.930 . S
H257 C266 0.930 . S
H258 C271 0.929 . S
H259 C269 0.929 . S
H260 C264 0.929 . S
H261 C270 0.929 . S
C262 H256 0.930 . S
C262 C263 1.394 . S
C262 C270 1.378 . S
C263 C262 1.394 . S
C263 C271 1.406 1_545 S
C264 H260 0.929 . S
C264 C266 1.378 . S
C264 C268 1.354 1_565 S
C265 C268 1.462 . S
C265 C270 1.350 . S
C265 N273 1.427 1_545 S
C266 H257 0.930 . S
C266 C264 1.378 . S
C266 C267 1.348 1_565 S
C267 C266 1.348 1_545 S
C267 C269 1.452 . S
C268 C264 1.354 1_545 S
C268 C265 1.462 . S
C268 N272 1.423 . S
C269 H259 0.929 . S
C269 C267 1.452 . S
C269 N272 1.384 . S
C270 H261 0.929 . S
C270 C262 1.378 . S
C270 C265 1.350 . S
C271 H258 0.929 . S
C271 C263 1.406 1_565 S
C271 N273 1.384 . S
N272 C268 1.423 . S
N272 C269 1.384 . S
N273 C265 1.427 1_565 S
N273 C271 1.384 . S
H274 C280 0.930 . S
H275 C284 0.930 . S
H276 C289 0.929 . S
H277 C287 0.929 . S
H278 C282 0.929 . S
H279 C288 0.929 . S
C280 H274 0.930 . S
C280 C281 1.367 . S
C280 C288 1.378 . S
C281 C280 1.367 . S
C281 C289 1.433 . S
C282 H278 0.929 . S
C282 C284 1.378 . S
C282 C286 1.350 . S
C283 C286 1.463 . S
C283 C288 1.350 . S
C283 N291 1.427 . S
C284 H275 0.930 . S
C284 C282 1.378 . S
C284 C285 1.367 . S
C285 C284 1.367 . S
C285 C287 1.433 . S
C286 C282 1.350 . S
C286 C283 1.463 . S
C286 N290 1.427 . S
C287 H277 0.929 . S
C287 C285 1.433 . S
C287 N290 1.384 . S
C288 H279 0.929 . S
C288 C280 1.378 . S
C288 C283 1.350 . S
C289 H276 0.929 . S
C289 C281 1.433 . S
C289 N291 1.384 . S
N290 C286 1.427 . S
N290 C287 1.384 . S
N291 C283 1.427 . S
N291 C289 1.384 . S
H292 C298 0.930 . S
H293 C302 0.930 . S
H294 C307 0.929 . S
H295 C305 0.929 . S
H296 C300 0.929 . S
H297 C306 0.929 . S
C298 H292 0.930 . S
C298 C299 1.367 . S
C298 C306 1.378 . S
C299 C298 1.367 . S
C299 C307 1.433 . S
C300 H296 0.929 . S
C300 C302 1.378 . S
C300 C304 1.350 . S
C301 C304 1.463 . S
C301 C306 1.350 . S
C301 N309 1.427 . S
C302 H293 0.930 . S
C302 C300 1.378 . S
C302 C303 1.367 . S
C303 C302 1.367 . S
C303 C305 1.433 . S
C304 C300 1.350 . S
C304 C301 1.463 . S
C304 N308 1.427 . S
C305 H295 0.929 . S
C305 C303 1.433 . S
C305 N308 1.384 . S
C306 H297 0.929 . S
C306 C298 1.378 . S
C306 C301 1.350 . S
C307 H294 0.929 . S
C307 C299 1.433 . S
C307 N309 1.384 . S
N308 C304 1.427 . S
N308 C305 1.384 . S
N309 C301 1.427 . S
N309 C307 1.384 . S
H310 C316 0.930 . S
H311 C320 0.930 . S
H312 C325 0.929 . S
H313 C323 0.929 . S
H314 C318 0.929 . S
H315 C324 0.929 . S
C316 H310 0.930 . S
C316 C317 1.398 . S
C316 C324 1.378 . S
C317 C316 1.398 . S
C317 C325 1.402 1_455 S
C318 H314 0.929 . S
C318 C320 1.378 . S
C318 C322 1.340 1_655 S
C319 C322 1.463 . S
C319 C324 1.350 . S
C319 N327 1.427 1_455 S
C320 H311 0.930 . S
C320 C318 1.378 . S
C320 C321 1.367 1_655 S
C321 C320 1.367 1_455 S
C321 C323 1.433 . S
C322 C318 1.340 1_455 S
C322 C319 1.463 . S
C322 N326 1.438 . S
C323 H313 0.929 . S
C323 C321 1.433 . S
C323 N326 1.384 . S
C324 H315 0.929 . S
C324 C316 1.378 . S
C324 C319 1.350 . S
C325 H312 0.929 . S
C325 C317 1.402 1_655 S
C325 N327 1.384 . S
N326 C322 1.438 . S
N326 C323 1.384 . S
N327 C319 1.427 1_655 S
N327 C325 1.384 . S
H328 C334 0.930 . S
H329 C338 0.930 . S
H330 C343 0.929 . S
H331 C341 0.929 . S
H332 C336 0.929 . S
H333 C342 0.929 . S
C334 H328 0.930 . S
C334 C335 1.385 . S
C334 C342 1.378 . S
C335 C334 1.385 . S
C335 C343 1.415 1_565 S
C336 H332 0.929 . S
C336 C338 1.378 1_554 S
C336 C340 1.354 . S
C337 C340 1.462 1_565 S
C337 C342 1.350 . S
C337 N345 1.427 1_565 S
C338 H329 0.930 . S
C338 C336 1.378 1_556 S
C338 C339 1.357 1_545 S
C339 C338 1.357 1_565 S
C339 C341 1.443 . S
C340 C336 1.354 . S
C340 C337 1.462 1_545 S
C340 N344 1.423 1_545 S
C341 H331 0.929 . S
C341 C339 1.443 . S
C341 N344 1.384 1_556 S
C342 H333 0.929 . S
C342 C334 1.378 . S
C342 C337 1.350 . S
C343 H330 0.929 . S
C343 C335 1.415 1_545 S
C343 N345 1.384 . S
N344 C340 1.423 1_565 S
N344 C341 1.384 1_554 S
N345 C337 1.427 1_545 S
N345 C343 1.384 . S
H346 C352 0.930 . S
H347 C356 0.930 . S
H348 C361 0.929 . S
H349 C359 0.929 . S
H350 C354 0.929 . S
H351 C360 0.929 . S
C352 H346 0.930 . S
C352 C353 1.367 . S
C352 C360 1.378 . S
C353 C352 1.367 . S
C353 C361 1.433 . S
C354 H350 0.929 . S
C354 C356 1.378 . S
C354 C358 1.350 . S
C355 C358 1.463 . S
C355 C360 1.350 . S
C355 N363 1.427 . S
C356 H347 0.930 . S
C356 C354 1.378 . S
C356 C357 1.367 1_554 S
C357 C356 1.367 1_556 S
C357 C359 1.433 . S
C358 C354 1.350 . S
C358 C355 1.463 . S
C358 N362 1.427 . S
C359 H349 0.929 . S
C359 C357 1.433 . S
C359 N362 1.384 1_556 S
C360 H351 0.929 . S
C360 C352 1.378 . S
C360 C355 1.350 . S
C361 H348 0.929 . S
C361 C353 1.433 . S
C361 N363 1.384 . S
N362 C358 1.427 . S
N362 C359 1.384 1_554 S
N363 C355 1.427 . S
N363 C361 1.384 . S
H364 C370 0.930 . S
H365 C374 0.930 . S
H366 C379 0.929 . S
H367 C377 0.929 . S
H368 C372 0.929 . S
H369 C378 0.929 . S
C370 H364 0.930 . S
C370 C371 1.367 . S
C370 C378 1.378 . S
C371 C370 1.367 . S
C371 C379 1.433 . S
C372 H368 0.929 . S
C372 C374 1.378 . S
C372 C376 1.350 . S
C373 C376 1.463 . S
C373 C378 1.350 . S
C373 N381 1.427 . S
C374 H365 0.930 . S
C374 C372 1.378 . S
C374 C375 1.367 1_554 S
C375 C374 1.367 1_556 S
C375 C377 1.433 . S
C376 C372 1.350 . S
C376 C373 1.463 . S
C376 N380 1.427 1_554 S
C377 H367 0.929 . S
C377 C375 1.433 . S
C377 N380 1.384 . S
C378 H369 0.929 . S
C378 C370 1.378 . S
C378 C373 1.350 . S
C379 H366 0.929 . S
C379 C371 1.433 . S
C379 N381 1.384 . S
N380 C376 1.427 1_556 S
N380 C377 1.384 . S
N381 C373 1.427 . S
N381 C379 1.384 . S
H382 C388 0.930 . S
H383 C392 0.930 . S
H384 C397 0.929 . S
H385 C395 0.929 . S
H386 C390 0.929 . S
H387 C396 0.929 . S
C388 H382 0.930 . S
C388 C389 1.367 . S
C388 C396 1.378 . S
C389 C388 1.367 . S
C389 C397 1.434 1_455 S
C390 H386 0.929 . S
C390 C392 1.378 . S
C390 C394 1.350 . S
C391 C394 1.463 . S
C391 C396 1.347 1_655 S
C391 N399 1.431 . S
C392 H383 0.930 . S
C392 C390 1.378 . S
C392 C393 1.367 1_554 S
C393 C392 1.367 1_556 S
C393 C395 1.433 1_655 S
C394 C390 1.350 . S
C394 C391 1.463 . S
C394 N398 1.427 1_655 S
C395 H385 0.929 . S
C395 C393 1.433 1_455 S
C395 N398 1.384 1_556 S
C396 H387 0.929 . S
C396 C388 1.378 . S
C396 C391 1.347 1_455 S
C397 H384 0.929 . S
C397 C389 1.434 1_655 S
C397 N399 1.384 . S
N398 C394 1.427 1_455 S
N398 C395 1.384 1_554 S
N399 C391 1.431 . S
N399 C397 1.384 . S
H400 C406 0.930 . S
H401 C410 0.930 . S
H402 C415 0.929 . S
H403 C413 0.929 . S
H404 C408 0.929 . S
H405 C414 0.929 . S
C406 H400 0.930 . S
C406 C407 1.367 . S
C406 C414 1.378 . S
C407 C406 1.367 . S
C407 C415 1.433 1_455 S
C408 H404 0.929 . S
C408 C410 1.378 . S
C408 C412 1.350 . S
C409 C412 1.463 . S
C409 C414 1.350 1_655 S
C409 N417 1.427 . S
C410 H401 0.930 . S
C410 C408 1.378 . S
C410 C411 1.367 . S
C411 C410 1.367 . S
C411 C413 1.433 . S
C412 C408 1.350 . S
C412 C409 1.463 . S
C412 N416 1.427 . S
C413 H403 0.929 . S
C413 C411 1.433 . S
C413 N416 1.384 . S
C414 H405 0.929 . S
C414 C406 1.378 . S
C414 C409 1.350 1_455 S
C415 H402 0.929 . S
C415 C407 1.433 1_655 S
C415 N417 1.384 . S
N416 C412 1.427 . S
N416 C413 1.384 . S
N417 C409 1.427 . S
N417 C415 1.384 . S
H418 C424 0.930 . S
H419 C428 0.930 . S
H420 C433 0.929 . S
H421 C431 0.929 . S
H422 C426 0.929 . S
H423 C432 0.929 . S
C424 H418 0.930 . S
C424 C425 1.367 1_565 S
C424 C432 1.378 . S
C425 C424 1.367 1_545 S
C425 C433 1.433 . S
C426 H422 0.929 . S
C426 C428 1.378 . S
C426 C430 1.350 . S
C427 C430 1.463 . S
C427 C432 1.350 . S
C427 N435 1.427 1_565 S
C428 H419 0.930 . S
C428 C426 1.378 . S
C428 C429 1.367 . S
C429 C428 1.367 . S
C429 C431 1.433 . S
C430 C426 1.350 . S
C430 C427 1.463 . S
C430 N434 1.427 . S
C431 H421 0.929 . S
C431 C429 1.433 . S
C431 N434 1.384 . S
C432 H423 0.929 . S
C432 C424 1.378 . S
C432 C427 1.350 . S
C433 H420 0.929 . S
C433 C425 1.433 . S
C433 N435 1.384 . S
N434 C430 1.427 . S
N434 C431 1.384 . S
N435 C427 1.427 1_545 S
N435 C433 1.384 . S
H436 C442 0.930 . S
H437 C446 0.930 . S
H438 C451 0.929 . S
H439 C449 0.929 . S
H440 C444 0.929 . S
H441 C450 0.929 . S
C442 H436 0.930 . S
C442 C443 1.367 . S
C442 C450 1.378 . S
C443 C442 1.367 . S
C443 C451 1.433 . S
C444 H440 0.929 . S
C444 C446 1.378 . S
C444 C448 1.350 . S
C445 C448 1.463 . S
C445 C450 1.350 . S
C445 N453 1.427 . S
C446 H437 0.930 . S
C446 C444 1.378 . S
C446 C447 1.367 . S
C447 C446 1.367 . S
C447 C449 1.433 . S
C448 C444 1.350 . S
C448 C445 1.463 . S
C448 N452 1.427 . S
C449 H439 0.929 . S
C449 C447 1.433 . S
C449 N452 1.384 . S
C450 H441 0.929 . S
C450 C442 1.378 . S
C450 C445 1.350 . S
C451 H438 0.929 . S
C451 C443 1.433 . S
C451 N453 1.384 . S
N452 C448 1.427 . S
N452 C449 1.384 . S
N453 C445 1.427 . S
N453 C451 1.384 . S
H454 C460 0.930 . S
H455 C464 0.930 . S
H456 C469 0.929 . S
H457 C467 0.929 . S
H458 C462 0.929 . S
H459 C468 0.929 . S
C460 H454 0.930 . S
C460 C461 1.367 . S
C460 C468 1.378 . S
C461 C460 1.367 . S
C461 C469 1.433 . S
C462 H458 0.929 . S
C462 C464 1.378 . S
C462 C466 1.350 . S
C463 C466 1.463 . S
C463 C468 1.350 . S
C463 N471 1.427 . S
C464 H455 0.930 . S
C464 C462 1.378 . S
C464 C465 1.367 . S
C465 C464 1.367 . S
C465 C467 1.433 . S
C466 C462 1.350 . S
C466 C463 1.463 . S
C466 N470 1.427 . S
C467 H457 0.929 . S
C467 C465 1.433 . S
C467 N470 1.384 . S
C468 H459 0.929 . S
C468 C460 1.378 . S
C468 C463 1.350 . S
C469 H456 0.929 . S
C469 C461 1.433 . S
C469 N471 1.384 . S
N470 C466 1.427 . S
N470 C467 1.384 . S
N471 C463 1.427 . S
N471 C469 1.384 . S
H472 C478 0.930 . S
H473 C482 0.930 . S
H474 C487 0.929 . S
H475 C485 0.929 . S
H476 C480 0.929 . S
H477 C486 0.929 . S
C478 H472 0.930 . S
C478 C479 1.367 . S
C478 C486 1.378 . S
C479 C478 1.367 . S
C479 C487 1.433 1_655 S
C480 H476 0.929 . S
C480 C482 1.378 . S
C480 C484 1.350 . S
C481 C484 1.463 . S
C481 C486 1.350 1_455 S
C481 N489 1.427 . S
C482 H473 0.930 . S
C482 C480 1.378 . S
C482 C483 1.367 . S
C483 C482 1.367 . S
C483 C485 1.433 . S
C484 C480 1.350 . S
C484 C481 1.463 . S
C484 N488 1.427 . S
C485 H475 0.929 . S
C485 C483 1.433 . S
C485 N488 1.384 . S
C486 H477 0.929 . S
C486 C478 1.378 . S
C486 C481 1.350 1_655 S
C487 H474 0.929 . S
C487 C479 1.433 1_455 S
C487 N489 1.384 . S
N488 C484 1.427 . S
N488 C485 1.384 . S
N489 C481 1.427 . S
N489 C487 1.384 . S
H490 C496 0.930 . S
H491 C500 0.955 . S
H492 C505 0.929 . S
H493 C503 0.929 . S
H494 C498 0.929 1_565 S
H495 C504 0.929 . S
C496 H490 0.930 . S
C496 C497 1.367 1_545 S
C496 C504 1.378 . S
C497 C496 1.367 1_565 S
C497 C505 1.433 . S
C498 H494 0.929 1_545 S
C498 C500 1.378 . S
C498 C502 1.350 . S
C499 C502 1.463 . S
C499 C504 1.350 . S
C499 N507 1.427 1_545 S
C500 H491 0.955 . S
C500 C498 1.378 . S
C500 C501 1.367 . S
C501 C500 1.367 . S
C501 C503 1.433 . S
C502 C498 1.350 . S
C502 C499 1.463 . S
C502 N506 1.427 . S
C503 H493 0.929 . S
C503 C501 1.433 . S
C503 N506 1.384 . S
C504 H495 0.929 . S
C504 C496 1.378 . S
C504 C499 1.350 . S
C505 H492 0.929 . S
C505 C497 1.433 . S
C505 N507 1.384 . S
N506 C502 1.427 . S
N506 C503 1.384 . S
N507 C499 1.427 1_565 S
N507 C505 1.384 . S
H508 C514 0.930 . S
H509 C518 0.930 . S
H510 C523 0.929 . S
H511 C521 0.929 . S
H512 C516 0.929 . S
H513 C522 0.929 . S
C514 H508 0.930 . S
C514 C515 1.367 . S
C514 C522 1.378 . S
C515 C514 1.367 . S
C515 C523 1.433 . S
C516 H512 0.929 . S
C516 C518 1.378 . S
C516 C520 1.350 . S
C517 C520 1.463 . S
C517 C522 1.350 . S
C517 N525 1.427 . S
C518 H509 0.930 . S
C518 C516 1.378 . S
C518 C519 1.367 . S
C519 C518 1.367 . S
C519 C521 1.433 . S
C520 C516 1.350 . S
C520 C517 1.463 . S
C520 N524 1.427 . S
C521 H511 0.929 . S
C521 C519 1.433 . S
C521 N524 1.384 . S
C522 H513 0.929 . S
C522 C514 1.378 . S
C522 C517 1.350 . S
C523 H510 0.929 . S
C523 C515 1.433 . S
C523 N525 1.384 . S
N524 C520 1.427 . S
N524 C521 1.384 . S
N525 C517 1.427 . S
N525 C523 1.384 . S
H526 C532 0.930 . S
H527 C536 0.930 . S
H528 C541 0.929 . S
H529 C539 0.929 . S
H530 C534 0.929 . S
H531 C540 0.929 . S
C532 H526 0.930 . S
C532 C533 1.367 . S
C532 C540 1.378 . S
C533 C532 1.367 . S
C533 C541 1.433 . S
C534 H530 0.929 . S
C534 C536 1.378 . S
C534 C538 1.350 . S
C535 C538 1.463 . S
C535 C540 1.350 . S
C535 N543 1.427 . S
C536 H527 0.930 . S
C536 C534 1.378 . S
C536 C537 1.367 . S
C537 C536 1.367 . S
C537 C539 1.433 . S
C538 C534 1.350 . S
C538 C535 1.463 . S
C538 N542 1.427 . S
C539 H529 0.929 . S
C539 C537 1.433 . S
C539 N542 1.384 . S
C540 H531 0.929 . S
C540 C532 1.378 . S
C540 C535 1.350 . S
C541 H528 0.929 . S
C541 C533 1.433 . S
C541 N543 1.384 . S
N542 C538 1.427 . S
N542 C539 1.384 . S
N543 C535 1.427 . S
N543 C541 1.384 . S
H544 C550 0.930 . S
H545 C554 0.930 . S
H546 C559 0.929 . S
H547 C557 0.929 . S
H548 C552 0.929 . S
H549 C558 0.929 . S
C550 H544 0.930 . S
C550 C551 1.367 1_655 S
C550 C558 1.378 . S
C551 C550 1.367 1_455 S
C551 C559 1.433 . S
C552 H548 0.929 . S
C552 C554 1.378 . S
C552 C556 1.350 . S
C553 C556 1.463 . S
C553 C558 1.350 1_455 S
C553 N561 1.427 . S
C554 H545 0.930 . S
C554 C552 1.378 . S
C554 C555 1.367 . S
C555 C554 1.367 . S
C555 C557 1.433 1_455 S
C556 C552 1.350 . S
C556 C553 1.463 . S
C556 N560 1.427 1_455 S
C557 H547 0.929 . S
C557 C555 1.433 1_655 S
C557 N560 1.384 . S
C558 H549 0.929 . S
C558 C550 1.378 . S
C558 C553 1.350 1_655 S
C559 H546 0.929 . S
C559 C551 1.433 . S
C559 N561 1.384 . S
N560 C556 1.427 1_655 S
N560 C557 1.384 . S
N561 C553 1.427 . S
N561 C559 1.384 . S
H562 C568 0.930 . S
H563 C572 0.930 . S
H564 C577 0.929 . S
H565 C575 0.929 . S
H566 C570 0.929 . S
H567 C576 0.929 . S
C568 H562 0.930 . S
C568 C569 1.367 . S
C568 C576 1.378 . S
C569 C568 1.367 . S
C569 C577 1.433 1_545 S
C570 H566 0.929 . S
C570 C572 1.378 . S
C570 C574 1.350 1_565 S
C571 C574 1.463 . S
C571 C576 1.350 . S
C571 N579 1.427 1_545 S
C572 H563 0.930 . S
C572 C570 1.378 . S
C572 C573 1.367 1_565 S
C573 C572 1.367 1_545 S
C573 C575 1.433 . S
C574 C570 1.350 1_545 S
C574 C571 1.463 . S
C574 N578 1.427 . S
C575 H565 0.929 . S
C575 C573 1.433 . S
C575 N578 1.384 . S
C576 H567 0.929 . S
C576 C568 1.378 . S
C576 C571 1.350 . S
C577 H564 0.929 . S
C577 C569 1.433 1_565 S
C577 N579 1.384 . S
N578 C574 1.427 . S
N578 C575 1.384 . S
N579 C571 1.427 1_565 S
N579 C577 1.384 . S
H580 C586 0.930 . S
H581 C590 0.930 . S
H582 C595 0.929 . S
H583 C593 0.929 . S
H584 C588 0.929 . S
H585 C594 0.929 . S
C586 H580 0.930 . S
C586 C587 1.367 . S
C586 C594 1.378 . S
C587 C586 1.367 . S
C587 C595 1.433 . S
C588 H584 0.929 . S
C588 C590 1.378 . S
C588 C592 1.350 . S
C589 C592 1.463 . S
C589 C594 1.350 . S
C589 N597 1.427 . S
C590 H581 0.930 . S
C590 C588 1.378 . S
C590 C591 1.367 . S
C591 C590 1.367 . S
C591 C593 1.433 . S
C592 C588 1.350 . S
C592 C589 1.463 . S
C592 N596 1.427 . S
C593 H583 0.929 . S
C593 C591 1.433 . S
C593 N596 1.384 . S
C594 H585 0.929 . S
C594 C586 1.378 . S
C594 C589 1.350 . S
C595 H582 0.929 . S
C595 C587 1.433 . S
C595 N597 1.384 . S
N596 C592 1.427 . S
N596 C593 1.384 . S
N597 C589 1.427 . S
N597 C595 1.384 . S
H598 C604 0.930 . S
H599 C608 0.930 . S
H600 C613 0.929 . S
H601 C611 0.929 . S
H602 C606 0.929 . S
H603 C612 0.929 . S
C604 H598 0.930 . S
C604 C605 1.367 . S
C604 C612 1.378 . S
C605 C604 1.367 . S
C605 C613 1.433 . S
C606 H602 0.929 . S
C606 C608 1.378 . S
C606 C610 1.350 . S
C607 C610 1.463 . S
C607 C612 1.350 . S
C607 N615 1.427 . S
C608 H599 0.930 . S
C608 C606 1.378 . S
C608 C609 1.367 . S
C609 C608 1.367 . S
C609 C611 1.433 . S
C610 C606 1.350 . S
C610 C607 1.463 . S
C610 N614 1.427 . S
C611 H601 0.929 . S
C611 C609 1.433 . S
C611 N614 1.384 . S
C612 H603 0.929 . S
C612 C604 1.378 . S
C612 C607 1.350 . S
C613 H600 0.929 . S
C613 C605 1.433 . S
C613 N615 1.384 . S
N614 C610 1.427 . S
N614 C611 1.384 . S
N615 C607 1.427 . S
N615 C613 1.384 . S
H616 C622 0.930 . S
H617 C626 0.930 . S
H618 C631 0.929 . S
H619 C629 0.929 . S
H620 C624 0.929 . S
H621 C630 0.929 . S
C622 H616 0.930 . S
C622 C623 1.367 1_455 S
C622 C630 1.378 . S
C623 C622 1.367 1_655 S
C623 C631 1.433 . S
C624 H620 0.929 . S
C624 C626 1.378 . S
C624 C628 1.350 . S
C625 C628 1.463 . S
C625 C630 1.350 1_655 S
C625 N633 1.427 . S
C626 H617 0.930 . S
C626 C624 1.378 . S
C626 C627 1.367 . S
C627 C626 1.367 . S
C627 C629 1.433 1_655 S
C628 C624 1.350 . S
C628 C625 1.463 . S
C628 N632 1.427 1_655 S
C629 H619 0.929 . S
C629 C627 1.433 1_455 S
C629 N632 1.384 . S
C630 H621 0.929 . S
C630 C622 1.378 . S
C630 C625 1.350 1_455 S
C631 H618 0.929 . S
C631 C623 1.433 . S
C631 N633 1.384 . S
N632 C628 1.427 1_455 S
N632 C629 1.384 . S
N633 C625 1.427 . S
N633 C631 1.384 . S
H634 C640 0.930 . S
H635 C644 0.930 . S
H636 C649 0.929 . S
H637 C647 0.929 1_545 S
H638 C642 0.929 . S
H639 C648 0.929 . S
C640 H634 0.930 . S
C640 C641 1.367 1_545 S
C640 C648 1.378 . S
C641 C640 1.367 1_565 S
C641 C649 1.433 . S
C642 H638 0.929 . S
C642 C644 1.378 . S
C642 C646 1.350 . S
C643 C646 1.463 . S
C643 C648 1.350 1_565 S
C643 N651 1.427 . S
C644 H635 0.930 . S
C644 C642 1.378 . S
C644 C645 1.367 . S
C645 C644 1.367 . S
C645 C647 1.433 . S
C646 C642 1.350 . S
C646 C643 1.463 . S
C646 N650 1.420 1_565 S
C647 H637 0.929 1_565 S
C647 C645 1.433 . S
C647 N650 1.382 1_565 S
C648 H639 0.929 . S
C648 C640 1.378 . S
C648 C643 1.350 1_545 S
C649 H636 0.929 . S
C649 C641 1.433 . S
C649 N651 1.384 . S
N650 C646 1.420 1_545 S
N650 C647 1.382 1_545 S
N651 C643 1.427 . S
N651 C649 1.384 . S
H652 C658 0.930 . S
H653 C662 0.930 . S
H654 C667 0.929 . S
H655 C665 0.929 . S
H656 C660 0.929 . S
H657 C666 0.929 . S
C658 H652 0.930 . S
C658 C659 1.367 . S
C658 C666 1.378 . S
C659 C658 1.367 . S
C659 C667 1.433 . S
C660 H656 0.929 . S
C660 C662 1.378 . S
C660 C664 1.350 . S
C661 C664 1.463 . S
C661 C666 1.350 . S
C661 N669 1.427 . S
C662 H653 0.930 . S
C662 C660 1.378 . S
C662 C663 1.367 . S
C663 C662 1.367 . S
C663 C665 1.433 . S
C664 C660 1.350 . S
C664 C661 1.463 . S
C664 N668 1.427 . S
C665 H655 0.929 . S
C665 C663 1.433 . S
C665 N668 1.384 . S
C666 H657 0.929 . S
C666 C658 1.378 . S
C666 C661 1.350 . S
C667 H654 0.929 . S
C667 C659 1.433 . S
C667 N669 1.384 . S
N668 C664 1.427 . S
N668 C665 1.384 . S
N669 C661 1.427 . S
N669 C667 1.384 . S
H670 C676 0.930 . S
H671 C680 0.930 . S
H672 C685 0.929 . S
H673 C683 0.929 . S
H674 C678 0.929 . S
H675 C684 0.929 . S
C676 H670 0.930 . S
C676 C677 1.367 . S
C676 C684 1.378 . S
C677 C676 1.367 . S
C677 C685 1.433 . S
C678 H674 0.929 . S
C678 C680 1.378 . S
C678 C682 1.350 . S
C679 C682 1.463 . S
C679 C684 1.350 . S
C679 N687 1.427 . S
C680 H671 0.930 . S
C680 C678 1.378 . S
C680 C681 1.367 . S
C681 C680 1.367 . S
C681 C683 1.433 . S
C682 C678 1.350 . S
C682 C679 1.463 . S
C682 N686 1.427 . S
C683 H673 0.929 . S
C683 C681 1.433 . S
C683 N686 1.384 . S
C684 H675 0.929 . S
C684 C676 1.378 . S
C684 C679 1.350 . S
C685 H672 0.929 . S
C685 C677 1.433 . S
C685 N687 1.384 . S
N686 C682 1.427 . S
N686 C683 1.384 . S
N687 C679 1.427 . S
N687 C685 1.384 . S
C263 C76 1.813 1_545 S
C267 C105 1.959 1_545 S
C285 C145 1.975 . S
C281 C88 1.823 . S
C303 C185 1.979 . S
C299 C52 1.837 . S
C321 C225 1.966 1_455 S
C317 C64 1.819 1_455 S
C339 C114 1.964 1_565 S
C335 C28 1.812 . S
C353 C40 1.813 . S
C357 C154 1.977 . S
C371 C4 1.817 . S
C375 C194 1.981 . S
C389 C16 1.813 1_455 S
C393 C234 1.975 1_655 S
C411 C111 0.517 . S
C407 C69 0.512 . S
C429 C151 0.497 . S
C425 C81 0.525 . S
C447 C191 0.493 . S
C443 C93 0.512 . S
C461 C57 0.521 . S
C465 C231 0.518 . S
C479 C21 0.529 1_655 S
C483 C102 0.519 . S
C501 C142 0.488 . S
C497 C33 0.504 1_565 S
C519 C182 0.512 . S
C515 C45 0.512 . S
C533 C9 0.540 . S
C537 C222 0.522 . S
C551 C66 2.052 . S
C555 C115 2.297 . S
C569 C78 2.038 . S
C573 C155 2.273 . S
C591 C195 2.268 . S
C587 C90 2.018 . S
C609 C235 2.291 . S
C605 C54 2.035 . S
C623 C18 2.060 1_655 S
C627 C106 2.309 . S
C645 C146 2.277 . S
C641 C30 2.049 1_565 S
C663 C186 2.268 . S
C659 C42 2.031 . S
C677 C6 2.064 . S
C681 C226 2.293 . S
