# Generated by pormake.
# Topology ssa, (4,4)-cn, num edge types: 1
# Building blocks:
#     Node 0, Type 0, BuildingBlock: NAWXER_clean_sbu_0, # of connection points: 4
#     Node 1, Type 0, BuildingBlock: NAWXER_clean_sbu_0, # of connection points: 4
#     Node 2, Type 0, BuildingBlock: NAWXER_clean_sbu_0, # of connection points: 4
#     Node 3, Type 0, BuildingBlock: NAWXER_clean_sbu_0, # of connection points: 4
#     Node 4, Type 0, BuildingBlock: NAWXER_clean_sbu_0, # of connection points: 4
#     Node 5, Type 0, BuildingBlock: NAWXER_clean_sbu_0, # of connection points: 4
#     Node 6, Type 1, BuildingBlock: MIFKUJ_clean_linker_1, # of connection points: 4
#     Node 7, Type 1, BuildingBlock: MIFKUJ_clean_linker_1, # of connection points: 4
#     Node 8, Type 1, BuildingBlock: MIFKUJ_clean_linker_1, # of connection points: 4
#     Node 9, Type 1, BuildingBlock: MIFKUJ_clean_linker_1, # of connection points: 4
#     Node 10, Type 1, BuildingBlock: MIFKUJ_clean_linker_1, # of connection points: 4
#     Node 11, Type 1, BuildingBlock: MIFKUJ_clean_linker_1, # of connection points: 4
#     Edge 12, Type (0, 1), BuildingBlock: KIFKEQ_clean_linker_1, # of connection points: 2
#     Edge 13, Type (0, 1), BuildingBlock: KIFKEQ_clean_linker_1, # of connection points: 2
#     Edge 14, Type (0, 1), BuildingBlock: KIFKEQ_clean_linker_1, # of connection points: 2
#     Edge 15, Type (0, 1), BuildingBlock: KIFKEQ_clean_linker_1, # of connection points: 2
#     Edge 16, Type (0, 1), BuildingBlock: KIFKEQ_clean_linker_1, # of connection points: 2
#     Edge 17, Type (0, 1), BuildingBlock: KIFKEQ_clean_linker_1, # of connection points: 2
#     Edge 18, Type (0, 1), BuildingBlock: KIFKEQ_clean_linker_1, # of connection points: 2
#     Edge 19, Type (0, 1), BuildingBlock: KIFKEQ_clean_linker_1, # of connection points: 2
#     Edge 20, Type (0, 1), BuildingBlock: KIFKEQ_clean_linker_1, # of connection points: 2
#     Edge 21, Type (0, 1), BuildingBlock: KIFKEQ_clean_linker_1, # of connection points: 2
#     Edge 22, Type (0, 1), BuildingBlock: KIFKEQ_clean_linker_1, # of connection points: 2
#     Edge 23, Type (0, 1), BuildingBlock: KIFKEQ_clean_linker_1, # of connection points: 2
#     Edge 24, Type (0, 1), BuildingBlock: KIFKEQ_clean_linker_1, # of connection points: 2
#     Edge 25, Type (0, 1), BuildingBlock: KIFKEQ_clean_linker_1, # of connection points: 2
#     Edge 26, Type (0, 1), BuildingBlock: KIFKEQ_clean_linker_1, # of connection points: 2
#     Edge 27, Type (0, 1), BuildingBlock: KIFKEQ_clean_linker_1, # of connection points: 2
#     Edge 28, Type (0, 1), BuildingBlock: KIFKEQ_clean_linker_1, # of connection points: 2
#     Edge 29, Type (0, 1), BuildingBlock: KIFKEQ_clean_linker_1, # of connection points: 2
#     Edge 30, Type (0, 1), BuildingBlock: KIFKEQ_clean_linker_1, # of connection points: 2
#     Edge 31, Type (0, 1), BuildingBlock: KIFKEQ_clean_linker_1, # of connection points: 2
#     Edge 32, Type (0, 1), BuildingBlock: KIFKEQ_clean_linker_1, # of connection points: 2
#     Edge 33, Type (0, 1), BuildingBlock: KIFKEQ_clean_linker_1, # of connection points: 2
#     Edge 34, Type (0, 1), BuildingBlock: KIFKEQ_clean_linker_1, # of connection points: 2
#     Edge 35, Type (0, 1), BuildingBlock: KIFKEQ_clean_linker_1, # of connection points: 2
# Relax obj value: 0.011
# Max RMSD: 0.026
# Mean RMSD: 0.026
data_MOF--net-ssa--node1-NAWXER_clean_sbu_0--node2-MIFKUJ_clean_linker_1--edge1-KIFKEQ_clean_linker_1
_symmetry_space_group_name_H-M    P1
_symmetry_Int_Tables_number       1
_symmetry_cell_setting            triclinic
loop_
_symmetry_equiv_pos_as_xyz
'x, y, z'
_cell_length_a     60.154487
_cell_length_b     60.193994
_cell_length_c     38.065182
_cell_angle_alpha  90.082183
_cell_angle_beta   89.913497
_cell_angle_gamma 119.98116
loop_
_atom_site_label
_atom_site_type_symbol
_atom_site_fract_x
_atom_site_fract_y
_atom_site_fract_z
_atom_type_partial_charge
C0 C 0.02809 0.53367 0.99671 0.0
C1 C 0.97698 0.44976 0.94116 0.0
O2 O 0.00848 0.51803 0.01487 0.0
Zn3 Zn 0.97733 0.47917 0.01184 0.0
O4 O 0.03255 0.52646 0.96739 0.0
Zn5 Zn 0.00329 0.49201 0.96841 0.0
O6 O 0.97178 0.49913 0.96439 0.0
O7 O 0.94773 0.48382 0.01188 0.0
O8 O 0.99749 0.46878 0.92957 0.0
O9 O 0.96806 0.45152 0.971 0.0
O10 O 0.98398 0.46364 0.0522 0.0
O11 O 0.0137 0.47596 0.01111 0.0
C12 C 0.9521 0.4952 0.98241 0.0
C13 C 0.00512 0.46611 0.04142 0.0
C14 C 0.48444 0.02797 0.51003 0.0
C15 C 0.51717 0.97976 0.44587 0.0
O16 O 0.47923 0.00678 0.52478 0.0
Zn17 Zn 0.48492 0.97497 0.51579 0.0
O18 O 0.49581 0.03372 0.48044 0.0
Zn19 Zn 0.49955 0.00355 0.4755 0.0
O20 O 0.46138 0.97302 0.46679 0.0
O21 O 0.45062 0.94571 0.51072 0.0
O22 O 0.51747 0.99995 0.4353 0.0
O23 O 0.50596 0.96916 0.47478 0.0
O24 O 0.50535 0.9778 0.55662 0.0
O25 O 0.52548 0.00899 0.5178 0.0
C26 C 0.44498 0.95209 0.4817 0.0
C27 C 0.52541 0.99817 0.54683 0.0
C28 C 0.48338 0.45213 0.9976 0.0
C29 C 0.51271 0.53372 0.0591 0.0
O30 O 0.47721 0.46716 0.98209 0.0
Zn31 Zn 0.48164 0.50431 0.98916 0.0
O32 O 0.49528 0.45886 0.02674 0.0
Zn33 Zn 0.49768 0.49222 0.03055 0.0
O34 O 0.45915 0.48378 0.03919 0.0
O35 O 0.44661 0.49763 0.99392 0.0
O36 O 0.51583 0.51536 0.06947 0.0
O37 O 0.50054 0.5314 0.03046 0.0
O38 O 0.50301 0.52278 0.94861 0.0
O39 O 0.52289 0.51237 0.98835 0.0
C40 C 0.44191 0.48689 0.02392 0.0
C41 C 0.52322 0.52302 0.95912 0.0
C42 C 0.00334 0.5421 0.45455 0.0
C43 C 0.94677 0.46346 0.51895 0.0
O44 O 0.01202 0.54096 0.48484 0.0
Zn45 Zn 0.00076 0.51556 0.52889 0.0
O46 O 0.9814 0.52419 0.44492 0.0
Zn47 Zn 0.97411 0.50273 0.48631 0.0
O48 O 0.9674 0.52373 0.52666 0.0
O49 O 0.99742 0.5348 0.56714 0.0
O50 O 0.94316 0.46929 0.4882 0.0
O51 O 0.96707 0.47891 0.536 0.0
O52 O 0.0282 0.50758 0.52994 0.0
O53 O 0.00323 0.49216 0.4833 0.0
C54 C 0.97741 0.53461 0.55603 0.0
C55 C 0.0226 0.49518 0.50117 0.0
C56 C 0.53764 0.99003 0.04968 0.0
C57 C 0.50224 0.03593 0.98694 0.0
O58 O 0.53839 0.01064 0.0593 0.0
Zn59 Zn 0.51942 0.01286 0.01984 0.0
O60 O 0.5257 0.97861 0.02151 0.0
Zn61 Zn 0.50391 0.98364 0.98067 0.0
O62 O 0.5236 0.98592 0.93911 0.0
O63 O 0.54452 0.01776 0.97667 0.0
O64 O 0.49683 0.01465 0.97223 0.0
O65 O 0.51506 0.0425 0.01532 0.0
O66 O 0.48165 0.98188 0.03076 0.0
O67 O 0.46991 0.95423 0.98704 0.0
C68 C 0.5439 0.00642 0.94784 0.0
C69 C 0.46499 0.96071 0.01657 0.0
C70 C 0.53672 0.53161 0.55303 0.0
C71 C 0.45446 0.49438 0.492 0.0
O72 O 0.51645 0.53096 0.56415 0.0
Zn73 Zn 0.49505 0.51273 0.5241 0.0
O74 O 0.53646 0.52113 0.5236 0.0
Zn75 Zn 0.51026 0.5003 0.48222 0.0
O76 O 0.52685 0.5227 0.4422 0.0
O77 O 0.513 0.53948 0.48228 0.0
O78 O 0.47122 0.49101 0.47572 0.0
O79 O 0.46014 0.50609 0.52132 0.0
O80 O 0.49056 0.47562 0.53082 0.0
O81 O 0.50795 0.46693 0.48562 0.0
C82 C 0.52422 0.54131 0.45289 0.0
C83 C 0.49632 0.46037 0.515 0.0
H84 H 0.15778 0.41332 0.21322 0.0
H85 H 0.12254 0.41336 0.18092 0.0
H86 H 0.14477 0.48828 0.22309 0.0
H87 H 0.18001 0.4882 0.25506 0.0
H88 H 0.21041 0.44901 0.20613 0.0
H89 H 0.14456 0.42072 0.29575 0.0
H90 H 0.11358 0.42364 0.33457 0.0
H91 H 0.1748 0.49298 0.38023 0.0
H92 H 0.20555 0.49052 0.34079 0.0
H93 H 0.2674 0.49347 0.33409 0.0
H94 H 0.30266 0.49681 0.36967 0.0
H95 H 0.29676 0.43043 0.31722 0.0
H96 H 0.26084 0.42665 0.2821 0.0
H97 H 0.22075 0.45798 0.33538 0.0
H98 H 0.28521 0.49259 0.2469 0.0
H99 H 0.31887 0.49689 0.20679 0.0
H100 H 0.26538 0.42487 0.15793 0.0
H101 H 0.23177 0.42053 0.1984 0.0
C102 C 0.17141 0.4507 0.23662 0.0
C103 C 0.15492 0.42966 0.21563 0.0
C104 C 0.13471 0.42962 0.19744 0.0
C105 C 0.13092 0.45082 0.19953 0.0
C106 C 0.14734 0.47175 0.22084 0.0
C107 C 0.16738 0.47168 0.23923 0.0
C108 C 0.19338 0.45117 0.25486 0.0
C109 C 0.21257 0.45057 0.23447 0.0
C110 C 0.19652 0.45416 0.29169 0.0
C111 C 0.17739 0.45556 0.315 0.0
C112 C 0.15128 0.43675 0.31375 0.0
C113 C 0.13362 0.43834 0.33605 0.0
C114 C 0.14185 0.45848 0.36046 0.0
C115 C 0.16799 0.47708 0.36198 0.0
C116 C 0.18555 0.47569 0.33939 0.0
C117 C 0.2614 0.4598 0.30537 0.0
C118 C 0.27366 0.4796 0.33014 0.0
C119 C 0.29376 0.48148 0.35054 0.0
C120 C 0.30223 0.46374 0.3464 0.0
C121 C 0.29061 0.4444 0.32081 0.0
C122 C 0.27019 0.44231 0.30065 0.0
C123 C 0.2383 0.4566 0.28669 0.0
C124 C 0.2187 0.45638 0.30703 0.0
C125 C 0.23528 0.45379 0.24974 0.0
C126 C 0.25602 0.456 0.22613 0.0
C127 C 0.2808 0.4775 0.22796 0.0
C128 C 0.30002 0.47998 0.20491 0.0
C129 C 0.29481 0.46119 0.1792 0.0
C130 C 0.26994 0.4398 0.17719 0.0
C131 C 0.25075 0.43724 0.20042 0.0
H132 H 0.7298 0.18924 0.80719 0.0
H133 H 0.69439 0.15288 0.83757 0.0
H134 H 0.70943 0.10051 0.77864 0.0
H135 H 0.74462 0.13701 0.74755 0.0
H136 H 0.78341 0.2069 0.7951 0.0
H137 H 0.70241 0.17121 0.73648 0.0
H138 H 0.66389 0.13439 0.71374 0.0
H139 H 0.7094 0.12432 0.63383 0.0
H140 H 0.74823 0.15984 0.65913 0.0
H141 H 0.81056 0.2346 0.64682 0.0
H142 H 0.83513 0.27324 0.61097 0.0
H143 H 0.82791 0.31901 0.69262 0.0
H144 H 0.80222 0.28036 0.72761 0.0
H145 H 0.76391 0.21106 0.66947 0.0
H146 H 0.84653 0.25612 0.72765 0.0
H147 H 0.88239 0.29235 0.7579 0.0
H148 H 0.83089 0.28741 0.84051 0.0
H149 H 0.79506 0.25214 0.80981 0.0
C150 C 0.73973 0.16577 0.77512 0.0
C151 C 0.72587 0.16999 0.80138 0.0
C152 C 0.70556 0.14927 0.81843 0.0
C153 C 0.69921 0.12406 0.81006 0.0
C154 C 0.71408 0.11984 0.7854 0.0
C155 C 0.73415 0.1406 0.76782 0.0
C156 C 0.75753 0.18742 0.75251 0.0
C157 C 0.77933 0.20798 0.7676 0.0
C158 C 0.75202 0.18848 0.71667 0.0
C159 C 0.7283 0.16784 0.70014 0.0
C160 C 0.70414 0.16081 0.71441 0.0
C161 C 0.682 0.1399 0.70095 0.0
C162 C 0.68336 0.12607 0.67197 0.0
C163 C 0.70756 0.13396 0.65673 0.0
C164 C 0.7298 0.15455 0.6708 0.0
C165 C 0.80501 0.25458 0.69034 0.0
C166 C 0.81406 0.25291 0.65691 0.0
C167 C 0.82805 0.27491 0.63645 0.0
C168 C 0.83349 0.29898 0.64928 0.0
C169 C 0.82417 0.30065 0.68242 0.0
C170 C 0.80968 0.2786 0.7025 0.0
C171 C 0.79009 0.23114 0.71201 0.0
C172 C 0.76861 0.21007 0.69672 0.0
C173 C 0.79573 0.22995 0.74796 0.0
C174 C 0.81796 0.25144 0.76626 0.0
C175 C 0.8429 0.26299 0.75209 0.0
C176 C 0.86339 0.28361 0.76939 0.0
C177 C 0.85937 0.29252 0.80158 0.0
C178 C 0.83456 0.28069 0.81594 0.0
C179 C 0.81408 0.2605 0.7984 0.0
H180 H 0.60877 0.84039 0.32252 0.0
H181 H 0.60171 0.87231 0.35326 0.0
H182 H 0.53991 0.8569 0.28201 0.0
H183 H 0.54588 0.82408 0.25281 0.0
H184 H 0.57899 0.7894 0.31176 0.0
H185 H 0.62182 0.8639 0.23286 0.0
H186 H 0.61969 0.89966 0.20504 0.0
H187 H 0.55001 0.84559 0.15195 0.0
H188 H 0.55247 0.80995 0.17902 0.0
H189 H 0.55353 0.74616 0.17424 0.0
H190 H 0.54804 0.70772 0.1447 0.0
H191 H 0.60857 0.70984 0.208 0.0
H192 H 0.61474 0.74902 0.23674 0.0
H193 H 0.58947 0.79415 0.18206 0.0
H194 H 0.54218 0.72218 0.26043 0.0
H195 H 0.53657 0.68379 0.29024 0.0
H196 H 0.6085 0.7297 0.3446 0.0
H197 H 0.61365 0.76812 0.31508 0.0
C198 C 0.57832 0.83029 0.28473 0.0
C199 C 0.5936 0.84376 0.31369 0.0
C200 C 0.58964 0.86201 0.3311 0.0
C201 C 0.57059 0.86728 0.31947 0.0
C202 C 0.55507 0.85353 0.29094 0.0
C203 C 0.55858 0.83488 0.27417 0.0
C204 C 0.58292 0.81151 0.26528 0.0
C205 C 0.58191 0.79078 0.28354 0.0
C206 C 0.58625 0.81294 0.22835 0.0
C207 C 0.58729 0.83434 0.20795 0.0
C208 C 0.60641 0.85979 0.21464 0.0
C209 C 0.60516 0.88013 0.19891 0.0
C210 C 0.58456 0.8752 0.17679 0.0
C211 C 0.56595 0.84974 0.16918 0.0
C212 C 0.56748 0.82945 0.18432 0.0
C213 C 0.58432 0.75035 0.20804 0.0
C214 C 0.56605 0.73874 0.18127 0.0
C215 C 0.56286 0.71672 0.16447 0.0
C216 C 0.57777 0.70574 0.17427 0.0
C217 C 0.59664 0.71777 0.20027 0.0
C218 C 0.60014 0.74012 0.21666 0.0
C219 C 0.5853 0.77189 0.22848 0.0
C220 C 0.58734 0.79315 0.21041 0.0
C221 C 0.58257 0.77076 0.26551 0.0
C222 C 0.57838 0.74791 0.2855 0.0
C223 C 0.55665 0.72394 0.27892 0.0
C224 C 0.55362 0.70199 0.2957 0.0
C225 C 0.57222 0.7036 0.31955 0.0
C226 C 0.59372 0.7278 0.32659 0.0
C227 C 0.5967 0.74977 0.30982 0.0
H228 H 0.72206 0.53151 0.70517 0.0
H229 H 0.68693 0.53002 0.67127 0.0
H230 H 0.70633 0.60491 0.711 0.0
H231 H 0.74127 0.60602 0.74532 0.0
H232 H 0.77536 0.56599 0.7074 0.0
H233 H 0.70264 0.52951 0.78772 0.0
H234 H 0.66479 0.52907 0.81167 0.0
H235 H 0.71244 0.60735 0.84704 0.0
H236 H 0.75039 0.6071 0.82408 0.0
H237 H 0.82068 0.59327 0.84747 0.0
H238 H 0.84691 0.58303 0.88622 0.0
H239 H 0.82066 0.51145 0.83094 0.0
H240 H 0.79428 0.52155 0.79291 0.0
H241 H 0.7677 0.56642 0.83729 0.0
H242 H 0.84338 0.59697 0.76208 0.0
H243 H 0.87765 0.59522 0.72977 0.0
H244 H 0.82122 0.52418 0.68115 0.0
H245 H 0.78717 0.52688 0.71222 0.0
C246 C 0.73418 0.56882 0.72776 0.0
C247 C 0.71895 0.54774 0.70616 0.0
C248 C 0.69888 0.54695 0.68681 0.0
C249 C 0.69377 0.56735 0.68848 0.0
C250 C 0.70949 0.58873 0.70955 0.0
C251 C 0.72955 0.58948 0.72897 0.0
C252 C 0.75368 0.56828 0.75087 0.0
C253 C 0.77378 0.56615 0.73579 0.0
C254 C 0.75169 0.56872 0.7878 0.0
C255 C 0.72923 0.56827 0.8044 0.0
C256 C 0.70488 0.54647 0.80094 0.0
C257 C 0.68322 0.54642 0.81421 0.0
C258 C 0.68543 0.56828 0.83103 0.0
C259 C 0.71 0.59008 0.8346 0.0
C260 C 0.73173 0.59001 0.82157 0.0
C261 C 0.80583 0.55834 0.81703 0.0
C262 C 0.82062 0.57539 0.84379 0.0
C263 C 0.83563 0.56956 0.86578 0.0
C264 C 0.8358 0.54641 0.86166 0.0
C265 C 0.82072 0.52929 0.83506 0.0
C266 C 0.80588 0.53518 0.81302 0.0
C267 C 0.78959 0.56413 0.79385 0.0
C268 C 0.76986 0.56703 0.80895 0.0
C269 C 0.79182 0.56414 0.75684 0.0
C270 C 0.81277 0.56214 0.73934 0.0
C271 C 0.8385 0.581 0.74453 0.0
C272 C 0.85808 0.57987 0.72614 0.0
C273 C 0.85229 0.55968 0.70247 0.0
C274 C 0.82645 0.54039 0.69835 0.0
C275 C 0.80692 0.54176 0.7163 0.0
H276 H 0.2445 0.82078 0.16764 0.0
H277 H 0.28218 0.85156 0.13435 0.0
H278 H 0.32858 0.82681 0.18997 0.0
H279 H 0.29082 0.7961 0.22322 0.0
H280 H 0.22373 0.76966 0.16613 0.0
H281 H 0.26345 0.83589 0.25541 0.0
H282 H 0.29704 0.86449 0.29614 0.0
H283 H 0.29301 0.79869 0.34798 0.0
H284 H 0.26074 0.77047 0.30599 0.0
H285 H 0.19849 0.71287 0.29657 0.0
H286 H 0.16251 0.6776 0.32655 0.0
H287 H 0.10969 0.68916 0.26283 0.0
H288 H 0.14605 0.72565 0.23426 0.0
H289 H 0.21493 0.76063 0.29552 0.0
H290 H 0.18739 0.69652 0.20699 0.0
H291 H 0.15904 0.66354 0.16539 0.0
H292 H 0.1448 0.71892 0.11315 0.0
H293 H 0.17283 0.75175 0.15541 0.0
C294 C 0.26487 0.80632 0.1982 0.0
C295 C 0.26285 0.82215 0.17288 0.0
C296 C 0.28436 0.83962 0.15371 0.0
C297 C 0.30836 0.84155 0.15939 0.0
C298 C 0.31045 0.82602 0.18526 0.0
C299 C 0.28888 0.80848 0.20436 0.0
C300 C 0.24145 0.78608 0.21582 0.0
C301 C 0.2216 0.76799 0.19448 0.0
C302 C 0.23921 0.78322 0.25281 0.0
C303 C 0.2597 0.80099 0.27729 0.0
C304 C 0.27011 0.82767 0.27519 0.0
C305 C 0.28909 0.84399 0.29887 0.0
C306 C 0.29783 0.83395 0.32544 0.0
C307 C 0.28716 0.80721 0.32757 0.0
C308 C 0.26844 0.79097 0.30374 0.0
C309 C 0.17509 0.72192 0.26296 0.0
C310 C 0.17918 0.70794 0.28911 0.0
C311 C 0.15849 0.68748 0.30595 0.0
C312 C 0.13308 0.68024 0.29689 0.0
C313 C 0.12896 0.69425 0.27065 0.0
C314 C 0.14976 0.71496 0.25398 0.0
C315 C 0.19747 0.744 0.24582 0.0
C316 C 0.21699 0.76249 0.26719 0.0
C317 C 0.20001 0.74668 0.20889 0.0
C318 C 0.18193 0.72649 0.18457 0.0
C319 C 0.17791 0.70148 0.18685 0.0
C320 C 0.16196 0.68274 0.1628 0.0
C321 C 0.14979 0.68867 0.13588 0.0
C322 C 0.15375 0.71372 0.13375 0.0
C323 C 0.1698 0.73249 0.15778 0.0
H324 H 0.5092 0.28465 0.82047 0.0
H325 H 0.50912 0.31656 0.86007 0.0
H326 H 0.44075 0.30732 0.80963 0.0
H327 H 0.44056 0.27495 0.77038 0.0
H328 H 0.47653 0.23697 0.81692 0.0
H329 H 0.50763 0.30552 0.73303 0.0
H330 H 0.51006 0.33888 0.69391 0.0
H331 H 0.43824 0.28359 0.64615 0.0
H332 H 0.43555 0.25061 0.68603 0.0
H333 H 0.43509 0.18366 0.68512 0.0
H334 H 0.43599 0.15179 0.64619 0.0
H335 H 0.50708 0.16597 0.69374 0.0
H336 H 0.50623 0.19804 0.73241 0.0
H337 H 0.46761 0.23285 0.68744 0.0
H338 H 0.44099 0.16315 0.77023 0.0
H339 H 0.44291 0.13117 0.80798 0.0
H340 H 0.51151 0.19103 0.85702 0.0
H341 H 0.50999 0.22277 0.81879 0.0
C342 C 0.47495 0.2774 0.79224 0.0
C343 C 0.49421 0.28952 0.81778 0.0
C344 C 0.49411 0.30769 0.84053 0.0
C345 C 0.47483 0.3143 0.83813 0.0
C346 C 0.45596 0.30274 0.81193 0.0
C347 C 0.45591 0.28432 0.78935 0.0
C348 C 0.47379 0.25613 0.77085 0.0
C349 C 0.47501 0.23629 0.78849 0.0
C350 C 0.47091 0.25475 0.73388 0.0
C351 C 0.47128 0.27561 0.71271 0.0
C352 C 0.49216 0.30073 0.71463 0.0
C353 C 0.4937 0.31968 0.6919 0.0
C354 C 0.47442 0.31386 0.66673 0.0
C355 C 0.45328 0.28881 0.66542 0.0
C356 C 0.45177 0.26989 0.68811 0.0
C357 C 0.47045 0.1931 0.71199 0.0
C358 C 0.45083 0.17983 0.68729 0.0
C359 C 0.45143 0.16172 0.66491 0.0
C360 C 0.47165 0.15642 0.66679 0.0
C361 C 0.49109 0.16942 0.69192 0.0
C362 C 0.49057 0.18769 0.71414 0.0
C363 C 0.47072 0.21388 0.73349 0.0
C364 C 0.46914 0.23353 0.71587 0.0
C365 C 0.47377 0.21532 0.77045 0.0
C366 C 0.47545 0.1954 0.79144 0.0
C367 C 0.45672 0.16934 0.78862 0.0
C368 C 0.45774 0.1511 0.81031 0.0
C369 C 0.47724 0.1587 0.8356 0.0
C370 C 0.49606 0.1847 0.83813 0.0
C371 C 0.49523 0.20282 0.8162 0.0
H372 H 0.05248 0.47311 0.02677 0.0
H373 H 0.99455 0.44562 0.10817 0.0
H374 H 0.08138 0.46794 0.06596 0.0
H375 H 0.02384 0.44033 0.14757 0.0
H376 H 0.0806 0.41335 0.19099 0.0
H377 H 0.04833 0.41475 0.15307 0.0
H378 H 0.10405 0.49178 0.12165 0.0
H379 H 0.13613 0.49038 0.15916 0.0
C380 C 0.04575 0.4657 0.05292 0.0
C381 C 0.02121 0.45998 0.0644 0.0
C382 C 0.06242 0.46288 0.07543 0.0
C383 C 0.05497 0.45406 0.10991 0.0
C384 C 0.03004 0.44717 0.12106 0.0
C385 C 0.01333 0.45024 0.09854 0.0
C386 C 0.08585 0.43055 0.17597 0.0
C387 C 0.11086 0.45176 0.178 0.0
C388 C 0.06739 0.4314 0.15452 0.0
C389 C 0.07377 0.4533 0.1343 0.0
C390 C 0.09868 0.47455 0.13669 0.0
C391 C 0.11697 0.47383 0.15839 0.0
H392 H 0.52788 0.00385 0.61814 0.0
H393 H 0.57475 0.02147 0.52502 0.0
H394 H 0.56633 0.032 0.65278 0.0
H395 H 0.61306 0.04885 0.55966 0.0
H396 H 0.67792 0.0818 0.64249 0.0
H397 H 0.6396 0.04667 0.61558 0.0
H398 H 0.59636 0.08357 0.64357 0.0
H399 H 0.63474 0.11946 0.66853 0.0
C400 C 0.54648 0.0131 0.60539 0.0
C401 C 0.54848 0.01064 0.56902 0.0
C402 C 0.56836 0.02925 0.62508 0.0
C403 C 0.59253 0.04252 0.60875 0.0
C404 C 0.59466 0.03867 0.57284 0.0
C405 C 0.57278 0.0231 0.55307 0.0
C406 C 0.66037 0.08265 0.64268 0.0
C407 C 0.65965 0.10374 0.65754 0.0
C408 C 0.63839 0.06235 0.62765 0.0
C409 C 0.6151 0.0624 0.62788 0.0
C410 C 0.61404 0.08291 0.64367 0.0
C411 C 0.6361 0.10346 0.65804 0.0
H412 H 0.54815 0.55165 0.11303 0.0
H413 H 0.50084 0.57117 0.04961 0.0
H414 H 0.5671 0.59385 0.14158 0.0
H415 H 0.51912 0.61249 0.07821 0.0
H416 H 0.57288 0.69373 0.10476 0.0
H417 H 0.55942 0.65204 0.0783 0.0
H418 H 0.55692 0.62037 0.18102 0.0
H419 H 0.57103 0.66249 0.20742 0.0
C420 C 0.54166 0.56479 0.10542 0.0
C421 C 0.5232 0.55815 0.0788 0.0
C422 C 0.55247 0.58892 0.12174 0.0
C423 C 0.54497 0.60673 0.11168 0.0
C424 C 0.52592 0.59959 0.08589 0.0
C425 C 0.51528 0.57573 0.06964 0.0
C426 C 0.56969 0.67791 0.12161 0.0
C427 C 0.57272 0.68124 0.15811 0.0
C428 C 0.56189 0.654 0.10654 0.0
C429 C 0.55661 0.63273 0.12764 0.0
C430 C 0.5609 0.63636 0.16403 0.0
C431 C 0.56895 0.66044 0.17914 0.0
H432 H 0.94725 0.55356 0.53388 0.0
H433 H 0.97657 0.53704 0.62764 0.0
H434 H 0.91981 0.56361 0.56952 0.0
H435 H 0.94802 0.54559 0.66347 0.0
H436 H 0.90196 0.57462 0.72206 0.0
H437 H 0.93532 0.57368 0.68682 0.0
H438 H 0.88187 0.54056 0.60057 0.0
H439 H 0.84946 0.54348 0.63452 0.0
C440 C 0.94791 0.55225 0.56221 0.0
C441 C 0.96391 0.5444 0.578 0.0
C442 C 0.93198 0.55774 0.58269 0.0
C443 C 0.93116 0.55487 0.61946 0.0
C444 C 0.94818 0.54822 0.63533 0.0
C445 C 0.96454 0.54325 0.6148 0.0
C446 C 0.89747 0.56758 0.69535 0.0
C447 C 0.87286 0.55902 0.68132 0.0
C448 C 0.91656 0.56673 0.67523 0.0
C449 C 0.91145 0.55708 0.64068 0.0
C450 C 0.88684 0.5486 0.62675 0.0
C451 C 0.86795 0.54978 0.6466 0.0
H452 H 0.42606 0.91297 0.99722 0.0
H453 H 0.44944 0.96982 0.07956 0.0
H454 H 0.38788 0.88415 0.03127 0.0
H455 H 0.41129 0.94129 0.11309 0.0
H456 H 0.3578 0.87282 0.18127 0.0
H457 H 0.39499 0.90129 0.14564 0.0
H458 H 0.34712 0.87925 0.05309 0.0
H459 H 0.31006 0.85013 0.08857 0.0
C460 C 0.42296 0.91942 0.02238 0.0
C461 C 0.44089 0.94366 0.0357 0.0
C462 C 0.40105 0.90294 0.04183 0.0
C463 C 0.39666 0.91036 0.07503 0.0
C464 C 0.41432 0.9348 0.08793 0.0
C465 C 0.43614 0.95124 0.06853 0.0
C466 C 0.35525 0.87391 0.15329 0.0
C467 C 0.33096 0.85925 0.13779 0.0
C468 C 0.37651 0.89041 0.13291 0.0
C469 C 0.374 0.89262 0.09652 0.0
C470 C 0.34974 0.87786 0.08099 0.0
C471 C 0.32845 0.86141 0.1014 0.0
H472 H 0.51466 0.42781 0.49909 0.0
H473 H 0.46519 0.43838 0.57131 0.0
H474 H 0.5081 0.39036 0.53288 0.0
H475 H 0.45907 0.4016 0.60502 0.0
H476 H 0.5172 0.34955 0.63152 0.0
H477 H 0.52083 0.38278 0.59136 0.0
H478 H 0.43978 0.35537 0.60343 0.0
H479 H 0.43634 0.32281 0.64456 0.0
C480 C 0.50218 0.42199 0.52186 0.0
C481 C 0.49055 0.43613 0.53258 0.0
C482 C 0.49859 0.40069 0.54136 0.0
C483 C 0.48313 0.39305 0.57171 0.0
C484 C 0.47085 0.40673 0.58159 0.0
C485 C 0.47452 0.42798 0.56232 0.0
C486 C 0.5002 0.35074 0.62578 0.0
C487 C 0.47653 0.33367 0.64151 0.0
C488 C 0.50221 0.36954 0.60235 0.0
C489 C 0.4806 0.37173 0.59419 0.0
C490 C 0.45684 0.35435 0.60942 0.0
C491 C 0.45483 0.33556 0.63279 0.0
H492 H 0.51499 0.97115 0.37511 0.0
H493 H 0.54675 0.9616 0.47154 0.0
H494 H 0.52996 0.94556 0.34393 0.0
H495 H 0.56351 0.9378 0.44041 0.0
H496 H 0.55982 0.86837 0.38847 0.0
H497 H 0.54921 0.89779 0.41776 0.0
H498 H 0.56216 0.9398 0.32051 0.0
H499 H 0.57106 0.90901 0.29099 0.0
C500 C 0.52583 0.96413 0.38933 0.0
C501 C 0.52957 0.96806 0.42565 0.0
C502 C 0.53454 0.94953 0.37153 0.0
C503 C 0.54769 0.9391 0.38963 0.0
C504 C 0.55273 0.94461 0.42566 0.0
C505 C 0.54341 0.95853 0.44352 0.0
C506 C 0.56055 0.88404 0.37357 0.0
C507 C 0.56623 0.8865 0.33761 0.0
C508 C 0.55465 0.90111 0.39034 0.0
C509 C 0.55491 0.92148 0.3717 0.0
C510 C 0.56127 0.9242 0.33572 0.0
C511 C 0.56659 0.90672 0.3188 0.0
H512 H 0.57008 0.53356 0.98179 0.0
H513 H 0.5311 0.53934 0.88997 0.0
H514 H 0.60914 0.549 0.94844 0.0
H515 H 0.57111 0.55572 0.8562 0.0
H516 H 0.63654 0.54526 0.80388 0.0
H517 H 0.59767 0.53885 0.83301 0.0
H518 H 0.64318 0.5852 0.92021 0.0
H519 H 0.68171 0.59015 0.89235 0.0
C520 C 0.56991 0.53846 0.95446 0.0
C521 C 0.54734 0.53498 0.93848 0.0
C522 C 0.59254 0.54765 0.93535 0.0
C523 C 0.59341 0.55378 0.89963 0.0
C524 C 0.57103 0.55102 0.88366 0.0
C525 C 0.54818 0.54179 0.90299 0.0
C526 C 0.63826 0.55405 0.82932 0.0
C527 C 0.66228 0.56773 0.84609 0.0
C528 C 0.61598 0.55072 0.84576 0.0
C529 C 0.61723 0.56117 0.87922 0.0
C530 C 0.64145 0.57642 0.89476 0.0
C531 C 0.66366 0.57952 0.87854 0.0
H532 H 0.05439 0.57523 0.46181 0.0
H533 H 0.9906 0.55628 0.39221 0.0
H534 H 0.0834 0.60752 0.42053 0.0
H535 H 0.02006 0.58936 0.35085 0.0
H536 H 0.08711 0.67592 0.31751 0.0
H537 H 0.05334 0.64188 0.35311 0.0
H538 H 0.09615 0.60196 0.35512 0.0
H539 H 0.1293 0.63511 0.31847 0.0
C540 C 0.04645 0.57814 0.43788 0.0
C541 C 0.02013 0.5631 0.43028 0.0
C542 C 0.06315 0.59656 0.41416 0.0
C543 C 0.05395 0.60071 0.38247 0.0
C544 C 0.02755 0.58643 0.37518 0.0
C545 C 0.01077 0.56754 0.39877 0.0
C546 C 0.08907 0.65959 0.32479 0.0
C547 C 0.11121 0.65852 0.31553 0.0
C548 C 0.06975 0.64018 0.34524 0.0
C549 C 0.07238 0.61955 0.3571 0.0
C550 C 0.09389 0.6179 0.34667 0.0
C551 C 0.11295 0.63702 0.3259 0.0
H552 H 0.52292 0.08765 0.99623 0.0
H553 H 0.4656 0.02333 0.93684 0.0
H554 H 0.51498 0.11674 0.96093 0.0
H555 H 0.45681 0.05214 0.90255 0.0
H556 H 0.47265 0.11254 0.81852 0.0
H557 H 0.47654 0.08255 0.85743 0.0
H558 H 0.48673 0.13183 0.94602 0.0
H559 H 0.4837 0.16216 0.90669 0.0
C560 C 0.50822 0.07969 0.97615 0.0
C561 C 0.49505 0.05325 0.96911 0.0
C562 C 0.50358 0.09634 0.95592 0.0
C563 C 0.48542 0.08687 0.92852 0.0
C564 C 0.47139 0.06024 0.92277 0.0
C565 C 0.47627 0.04367 0.94265 0.0
C566 C 0.4755 0.11679 0.84636 0.0
C567 C 0.47802 0.13971 0.85957 0.0
C568 C 0.47762 0.09957 0.86877 0.0
C569 C 0.48199 0.10471 0.905 0.0
C570 C 0.48387 0.12742 0.91824 0.0
C571 C 0.48204 0.14477 0.89575 0.0
H572 H 0.43167 0.45857 0.44059 0.0
H573 H 0.42113 0.51202 0.50432 0.0
H574 H 0.39317 0.44837 0.40749 0.0
H575 H 0.38316 0.50271 0.47022 0.0
H576 H 0.30566 0.46868 0.41762 0.0
H577 H 0.34026 0.47296 0.45546 0.0
H578 H 0.38036 0.4676 0.3643 0.0
H579 H 0.34522 0.46239 0.32684 0.0
C580 C 0.42103 0.46808 0.4476 0.0
C581 C 0.42948 0.48619 0.47494 0.0
C582 C 0.39906 0.4624 0.42841 0.0
C583 C 0.38518 0.47497 0.43574 0.0
C584 C 0.39315 0.49243 0.46399 0.0
C585 C 0.41498 0.49785 0.48354 0.0
C586 C 0.32188 0.46835 0.40579 0.0
C587 C 0.32285 0.46531 0.36932 0.0
C588 C 0.34177 0.4709 0.42743 0.0
C589 C 0.36324 0.47075 0.41304 0.0
C590 C 0.36396 0.46735 0.37649 0.0
C591 C 0.3439 0.46449 0.35492 0.0
H592 H 0.93149 0.40767 0.95801 0.0
H593 H 0.98957 0.4379 0.8769 0.0
H594 H 0.90619 0.36945 0.92337 0.0
H595 H 0.96431 0.39885 0.84228 0.0
H596 H 0.89375 0.33977 0.77546 0.0
H597 H 0.92487 0.37736 0.80872 0.0
H598 H 0.9044 0.33139 0.90311 0.0
H599 H 0.87283 0.2943 0.87005 0.0
C600 C 0.93907 0.40603 0.93292 0.0
C601 C 0.96261 0.42592 0.92027 0.0
C602 C 0.92458 0.38392 0.91308 0.0
C603 C 0.93325 0.38088 0.88008 0.0
C604 C 0.95696 0.40063 0.86748 0.0
C605 C 0.9715 0.42295 0.88739 0.0
C606 C 0.89627 0.33773 0.80322 0.0
C607 C 0.88071 0.31429 0.82035 0.0
C608 C 0.91413 0.35921 0.82227 0.0
C609 C 0.91688 0.35753 0.85875 0.0
C610 C 0.90232 0.33358 0.87528 0.0
C611 C 0.88432 0.31229 0.85636 0.0
H612 H 0.96083 0.52656 0.92642 0.0
H613 H 0.90444 0.48384 0.0065 0.0
H614 H 0.93236 0.54004 0.90132 0.0
H615 H 0.87583 0.49761 0.98123 0.0
H616 H 0.88557 0.57824 0.88142 0.0
H617 H 0.91334 0.56719 0.91476 0.0
H618 H 0.85075 0.4894 0.92559 0.0
H619 H 0.82281 0.50059 0.89294 0.0
C620 C 0.94238 0.52013 0.93882 0.0
C621 C 0.93486 0.50402 0.96841 0.0
C622 C 0.92615 0.52806 0.92456 0.0
C623 C 0.90189 0.51997 0.93936 0.0
C624 C 0.89438 0.50403 0.96916 0.0
C625 C 0.91078 0.49624 0.98369 0.0
C626 C 0.87762 0.55891 0.89145 0.0
C627 C 0.85206 0.54024 0.88434 0.0
C628 C 0.89357 0.55252 0.91028 0.0
C629 C 0.88427 0.52738 0.92258 0.0
C630 C 0.85844 0.50897 0.91665 0.0
C631 C 0.84252 0.51531 0.89764 0.0
H632 H 0.42296 0.96454 0.42857 0.0
H633 H 0.41207 0.90083 0.49304 0.0
H634 H 0.38572 0.93567 0.39345 0.0
H635 H 0.37467 0.87186 0.45767 0.0
H636 H 0.33707 0.82867 0.35293 0.0
H637 H 0.36987 0.8566 0.39462 0.0
H638 H 0.33779 0.90667 0.39671 0.0
H639 H 0.30437 0.87834 0.35571 0.0
C640 C 0.41241 0.9444 0.43553 0.0
C641 C 0.42054 0.93494 0.46348 0.0
C642 C 0.391 0.9279 0.41549 0.0
C643 C 0.37739 0.9015 0.42268 0.0
C644 C 0.38498 0.89211 0.45134 0.0
C645 C 0.40626 0.90871 0.47172 0.0
C646 C 0.33665 0.84536 0.36267 0.0
C647 C 0.31796 0.85117 0.35086 0.0
C648 C 0.3555 0.86137 0.3866 0.0
C649 C 0.35633 0.88375 0.39904 0.0
C650 C 0.33771 0.88962 0.38736 0.0
C651 C 0.31867 0.87346 0.36368 0.0
H652 H 0.44806 0.42627 0.94672 0.0
H653 H 0.50824 0.42479 0.00651 0.0
H654 H 0.44396 0.39116 0.91042 0.0
H655 H 0.50491 0.3902 0.96923 0.0
H656 H 0.48111 0.31602 0.90938 0.0
H657 H 0.4806 0.34672 0.95083 0.0
H658 H 0.46743 0.38563 0.86492 0.0
H659 H 0.46726 0.3545 0.82382 0.0
C660 C 0.46032 0.41829 0.95225 0.0
C661 C 0.47857 0.42839 0.97936 0.0
C662 C 0.45815 0.3983 0.93119 0.0
C663 C 0.47443 0.38809 0.93635 0.0
C664 C 0.49191 0.39743 0.96456 0.0
C665 C 0.49386 0.41729 0.98597 0.0
C666 C 0.47815 0.33119 0.89943 0.0
C667 C 0.47426 0.33288 0.86334 0.0
C668 C 0.4779 0.34883 0.92318 0.0
C669 C 0.47392 0.36871 0.91137 0.0
C670 C 0.47 0.3703 0.87519 0.0
C671 C 0.47001 0.35253 0.85152 0.0
H672 H 0.0087 0.45586 0.45528 0.0
H673 H 0.07371 0.51355 0.51314 0.0
H674 H 0.03653 0.44377 0.42451 0.0
H675 H 0.10194 0.50238 0.48114 0.0
H676 H 0.1456 0.46728 0.43122 0.0
H677 H 0.11588 0.47274 0.46911 0.0
H678 H 0.06709 0.46103 0.37944 0.0
H679 H 0.09635 0.45469 0.34218 0.0
C680 C 0.02899 0.46587 0.46154 0.0
C681 C 0.03909 0.48576 0.48642 0.0
C682 C 0.045 0.4591 0.44367 0.0
C683 C 0.07162 0.47239 0.44976 0.0
C684 C 0.08154 0.49154 0.4759 0.0
C685 C 0.06539 0.49803 0.49423 0.0
C686 C 0.12841 0.46574 0.4198 0.0
C687 C 0.12324 0.46055 0.3838 0.0
C688 C 0.11142 0.46896 0.44144 0.0
C689 C 0.08902 0.46736 0.42745 0.0
C690 C 0.08381 0.46187 0.39142 0.0
C691 C 0.10063 0.45833 0.36993 0.0
H692 H 0.54573 0.00494 0.87602 0.0
H693 H 0.59352 0.03453 0.96822 0.0
H694 H 0.58359 0.02966 0.83862 0.0
H695 H 0.63118 0.05863 0.93102 0.0
H696 H 0.69665 0.08592 0.85151 0.0
H697 H 0.65861 0.05246 0.88217 0.0
H698 H 0.61212 0.08011 0.8339 0.0
H699 H 0.65014 0.11371 0.80397 0.0
C700 C 0.56438 0.01623 0.8882 0.0
C701 C 0.56674 0.01802 0.92494 0.0
C702 C 0.58595 0.03039 0.86688 0.0
C703 C 0.61023 0.046 0.88202 0.0
C704 C 0.61273 0.04658 0.9187 0.0
C705 C 0.59116 0.03293 0.93994 0.0
C706 C 0.67819 0.08451 0.84723 0.0
C707 C 0.67617 0.10235 0.82578 0.0
C708 C 0.65652 0.06548 0.86467 0.0
C709 C 0.63249 0.06372 0.86024 0.0
C710 C 0.63036 0.08088 0.83744 0.0
C711 C 0.65207 0.10017 0.8206 0.0
H712 H 0.52158 0.58357 0.47091 0.0
H713 H 0.54801 0.55317 0.38806 0.0
H714 H 0.53566 0.62254 0.43769 0.0
H715 H 0.56274 0.59298 0.3547 0.0
H716 H 0.55406 0.65541 0.29198 0.0
H717 H 0.5447 0.6163 0.32331 0.0
H718 H 0.57446 0.66009 0.41888 0.0
H719 H 0.5826 0.69882 0.38814 0.0
C720 C 0.5306 0.58525 0.44565 0.0
C721 C 0.53366 0.56517 0.43217 0.0
C722 C 0.53889 0.60779 0.42669 0.0
C723 C 0.55057 0.61102 0.3937 0.0
C724 C 0.5537 0.591 0.38003 0.0
C725 C 0.54537 0.56828 0.39915 0.0
C726 C 0.55851 0.65665 0.31973 0.0
C727 C 0.56876 0.68021 0.33766 0.0
C728 C 0.55348 0.63429 0.33754 0.0
C729 C 0.55861 0.63503 0.37365 0.0
C730 C 0.56989 0.65878 0.39117 0.0
C731 C 0.57482 0.68107 0.37344 0.0
H732 H 0.49881 0.07782 0.49292 0.0
H733 H 0.45864 0.01961 0.57183 0.0
H734 H 0.4948 0.10905 0.52976 0.0
H735 H 0.45456 0.05058 0.60814 0.0
H736 H 0.48346 0.11921 0.68231 0.0
H737 H 0.48511 0.08837 0.64235 0.0
H738 H 0.46318 0.11988 0.55608 0.0
H739 H 0.46206 0.15118 0.59603 0.0
C740 C 0.48879 0.07158 0.51778 0.0
C741 C 0.47925 0.04626 0.52951 0.0
C742 C 0.48649 0.08945 0.53887 0.0
C743 C 0.4747 0.08235 0.5721 0.0
C744 C 0.46422 0.05679 0.58303 0.0
C745 C 0.46643 0.03898 0.56202 0.0
C746 C 0.47916 0.11968 0.65479 0.0
C747 C 0.47258 0.1376 0.64237 0.0
C748 C 0.47985 0.10185 0.63194 0.0
C749 C 0.47411 0.10158 0.59607 0.0
C750 C 0.4678 0.11968 0.58353 0.0
C751 C 0.46692 0.13742 0.60647 0.0
H752 H 0.42557 0.46042 0.08529 0.0
H753 H 0.40374 0.49748 0.00638 0.0
H754 H 0.389 0.453 0.12097 0.0
H755 H 0.36698 0.49017 0.04263 0.0
H756 H 0.29142 0.45216 0.10817 0.0
H757 H 0.32532 0.45632 0.06838 0.0
H758 H 0.37851 0.48106 0.15528 0.0
H759 H 0.34464 0.47633 0.19501 0.0
C760 C 0.41286 0.46685 0.07537 0.0
C761 C 0.41776 0.47978 0.04305 0.0
C762 C 0.39195 0.4627 0.096 0.0
C763 C 0.37532 0.47135 0.08492 0.0
C764 C 0.37944 0.48323 0.05186 0.0
C765 C 0.4005 0.48745 0.03111 0.0
C766 C 0.31032 0.45829 0.11876 0.0
C767 C 0.31533 0.46387 0.15477 0.0
C768 C 0.32977 0.4609 0.09592 0.0
C769 C 0.35456 0.46889 0.10869 0.0
C770 C 0.35953 0.47453 0.14467 0.0
C771 C 0.34019 0.47208 0.1674 0.0
H772 H 0.93469 0.45646 0.58783 0.0
H773 H 0.91636 0.41634 0.48871 0.0
H774 H 0.90599 0.41681 0.618 0.0
H775 H 0.88865 0.3759 0.51913 0.0
H776 H 0.82505 0.30993 0.58272 0.0
H777 H 0.85067 0.34976 0.54997 0.0
H778 H 0.90438 0.37973 0.63653 0.0
H779 H 0.87784 0.34067 0.66958 0.0
C780 C 0.92455 0.43899 0.57254 0.0
C781 C 0.92782 0.43937 0.53602 0.0
C782 C 0.90826 0.41614 0.58987 0.0
C783 C 0.8953 0.39285 0.57126 0.0
C784 C 0.89809 0.39339 0.53441 0.0
C785 C 0.91402 0.41652 0.51691 0.0
C786 C 0.84235 0.32519 0.59453 0.0
C787 C 0.84944 0.32248 0.62868 0.0
C788 C 0.85714 0.34795 0.57577 0.0
C789 C 0.87957 0.36826 0.5906 0.0
C790 C 0.88688 0.36499 0.62451 0.0
C791 C 0.87183 0.34252 0.64345 0.0
H792 H 0.5585 0.96216 0.02562 0.0
H793 H 0.54387 0.99165 0.12103 0.0
H794 H 0.57422 0.93869 0.0601 0.0
H795 H 0.55914 0.96752 0.15573 0.0
H796 H 0.54493 0.88377 0.18735 0.0
H797 H 0.5381 0.91662 0.1598 0.0
H798 H 0.61069 0.9467 0.10589 0.0
H799 H 0.61774 0.91405 0.13415 0.0
C800 C 0.55896 0.96384 0.05399 0.0
C801 C 0.54987 0.97856 0.07074 0.0
C802 C 0.5681 0.95056 0.07366 0.0
C803 C 0.56785 0.95134 0.11048 0.0
C804 C 0.5595 0.96668 0.12732 0.0
C805 C 0.55087 0.98049 0.10754 0.0
C806 C 0.55955 0.89768 0.17 0.0
C807 C 0.58174 0.89642 0.16253 0.0
C808 C 0.55576 0.91654 0.15452 0.0
C809 C 0.5739 0.93414 0.13084 0.0
C810 C 0.59647 0.93332 0.12413 0.0
C811 C 0.6005 0.91474 0.1402 0.0
H812 H 0.54178 0.53458 0.62471 0.0
H813 H 0.5853 0.55426 0.52822 0.0
H814 H 0.58096 0.54656 0.65805 0.0
H815 H 0.62445 0.56725 0.56126 0.0
H816 H 0.6782 0.54907 0.62204 0.0
H817 H 0.64091 0.54409 0.59074 0.0
H818 H 0.62298 0.5788 0.67764 0.0
H819 H 0.65972 0.58245 0.70995 0.0
C820 C 0.55984 0.54214 0.61078 0.0
C821 C 0.56052 0.54317 0.57394 0.0
C822 C 0.5823 0.54904 0.62981 0.0
C823 C 0.60581 0.55739 0.61227 0.0
C824 C 0.60659 0.56017 0.57556 0.0
C825 C 0.58419 0.55291 0.55662 0.0
C826 C 0.66625 0.55551 0.63462 0.0
C827 C 0.67189 0.56602 0.66859 0.0
C828 C 0.64503 0.55302 0.61643 0.0
C829 C 0.62897 0.56122 0.63153 0.0
C830 C 0.63482 0.57213 0.66532 0.0
C831 C 0.65606 0.5745 0.68366 0.0
H832 H 0.01869 0.5575 0.05054 0.0
H833 H 0.07756 0.56769 0.97645 0.0
H834 H 0.04875 0.59725 0.07963 0.0
H835 H 0.10781 0.60793 0.00565 0.0
H836 H 0.15855 0.65354 0.10246 0.0
H837 H 0.1294 0.61857 0.06403 0.0
H838 H 0.07403 0.64407 0.07237 0.0
H839 H 0.10292 0.67866 0.11156 0.0
C840 C 0.038 0.56842 0.04015 0.0
C841 C 0.0458 0.55935 0.01133 0.0
C842 C 0.05518 0.59134 0.05671 0.0
C843 C 0.08067 0.60571 0.04499 0.0
C844 C 0.08832 0.59712 0.01543 0.0
C845 C 0.07099 0.5742 0.9986 0.0
C846 C 0.14016 0.65168 0.09604 0.0
C847 C 0.13291 0.66868 0.11033 0.0
C848 C 0.12361 0.63186 0.07367 0.0
C849 C 0.0994 0.62853 0.06524 0.0
C850 C 0.09249 0.64603 0.07863 0.0
C851 C 0.10909 0.66593 0.10087 0.0
loop_
_geom_bond_atom_site_label_1
_geom_bond_atom_site_label_2
_geom_bond_distance
_geom_bond_site_symmetry_2
_ccdc_geom_bond_type
C0 O2 1.247 . S
C0 O4 1.258 . S
C1 O8 1.247 . S
C1 O9 1.258 . S
O2 C0 1.247 . S
O2 Zn3 2.028 1_455 S
Zn3 O2 2.028 1_655 S
Zn3 O7 2.035 1_554 S
Zn3 O9 2.035 1_554 S
Zn3 O10 2.028 1_655 S
O4 C0 1.258 . S
O4 Zn5 2.035 1_554 S
Zn5 O4 2.035 1_556 S
Zn5 O6 2.028 1_455 S
Zn5 O8 2.028 1_455 S
Zn5 O11 2.035 1_556 S
O6 Zn5 2.028 1_655 S
O6 C12 1.247 . S
O7 Zn3 2.035 1_556 S
O7 C12 1.258 . S
O8 C1 1.247 . S
O8 Zn5 2.028 1_655 S
O9 C1 1.258 . S
O9 Zn3 2.035 1_556 S
O10 Zn3 2.028 1_455 S
O10 C13 1.247 . S
O11 Zn5 2.035 1_554 S
O11 C13 1.258 . S
C12 O6 1.247 . S
C12 O7 1.258 . S
C13 O10 1.247 . S
C13 O11 1.258 . S
C14 O16 1.247 . S
C14 O18 1.258 . S
C15 O22 1.247 . S
C15 O23 1.258 . S
O16 C14 1.247 . S
O16 Zn17 2.028 1_545 S
Zn17 O16 2.028 1_565 S
Zn17 O21 2.035 . S
Zn17 O23 2.035 . S
Zn17 O24 2.028 1_565 S
O18 C14 1.258 . S
O18 Zn19 2.035 . S
Zn19 O18 2.035 . S
Zn19 O20 2.028 1_545 S
Zn19 O22 2.028 1_545 S
Zn19 O25 2.035 . S
O20 Zn19 2.028 1_565 S
O20 C26 1.247 . S
O21 Zn17 2.035 . S
O21 C26 1.258 . S
O22 C15 1.247 . S
O22 Zn19 2.028 1_565 S
O23 C15 1.258 . S
O23 Zn17 2.035 . S
O24 Zn17 2.028 1_545 S
O24 C27 1.247 . S
O25 Zn19 2.035 . S
O25 C27 1.258 . S
C26 O20 1.247 . S
C26 O21 1.258 . S
C27 O24 1.247 . S
C27 O25 1.258 . S
C28 O30 1.247 . S
C28 O32 1.258 . S
C29 O36 1.247 . S
C29 O37 1.258 . S
O30 C28 1.247 . S
O30 Zn31 2.028 . S
Zn31 O30 2.028 . S
Zn31 O35 2.035 1_556 S
Zn31 O37 2.035 1_556 S
Zn31 O38 2.028 . S
O32 C28 1.258 . S
O32 Zn33 2.035 1_556 S
Zn33 O32 2.035 1_554 S
Zn33 O34 2.028 . S
Zn33 O36 2.028 . S
Zn33 O39 2.035 1_554 S
O34 Zn33 2.028 . S
O34 C40 1.247 . S
O35 Zn31 2.035 1_554 S
O35 C40 1.258 . S
O36 C29 1.247 . S
O36 Zn33 2.028 . S
O37 C29 1.258 . S
O37 Zn31 2.035 1_554 S
O38 Zn31 2.028 . S
O38 C41 1.247 . S
O39 Zn33 2.035 1_556 S
O39 C41 1.258 . S
C40 O34 1.247 . S
C40 O35 1.258 . S
C41 O38 1.247 . S
C41 O39 1.258 . S
C42 O44 1.247 . S
C42 O46 1.258 . S
C43 O50 1.247 . S
C43 O51 1.258 . S
O44 C42 1.247 . S
O44 Zn45 2.028 . S
Zn45 O44 2.028 . S
Zn45 O49 2.035 1_455 S
Zn45 O51 2.035 1_455 S
Zn45 O52 2.028 . S
O46 C42 1.258 . S
O46 Zn47 2.035 1_455 S
Zn47 O46 2.035 1_655 S
Zn47 O48 2.028 . S
Zn47 O50 2.028 . S
Zn47 O53 2.035 1_655 S
O48 Zn47 2.028 . S
O48 C54 1.247 . S
O49 Zn45 2.035 1_655 S
O49 C54 1.258 . S
O50 C43 1.247 . S
O50 Zn47 2.028 . S
O51 C43 1.258 . S
O51 Zn45 2.035 1_655 S
O52 Zn45 2.028 . S
O52 C55 1.247 . S
O53 Zn47 2.035 1_455 S
O53 C55 1.258 . S
C54 O48 1.247 . S
C54 O49 1.258 . S
C55 O52 1.247 . S
C55 O53 1.258 . S
C56 O58 1.247 . S
C56 O60 1.258 . S
C57 O64 1.247 . S
C57 O65 1.258 . S
O58 C56 1.247 . S
O58 Zn59 2.028 1_565 S
Zn59 O58 2.028 1_545 S
Zn59 O63 2.035 1_554 S
Zn59 O65 2.035 1_554 S
Zn59 O66 2.028 1_545 S
O60 C56 1.258 . S
O60 Zn61 2.035 1_554 S
Zn61 O60 2.035 1_556 S
Zn61 O62 2.028 1_565 S
Zn61 O64 2.028 1_565 S
Zn61 O67 2.035 1_556 S
O62 Zn61 2.028 1_545 S
O62 C68 1.247 . S
O63 Zn59 2.035 1_556 S
O63 C68 1.258 . S
O64 C57 1.247 . S
O64 Zn61 2.028 1_545 S
O65 C57 1.258 . S
O65 Zn59 2.035 1_556 S
O66 Zn59 2.028 1_565 S
O66 C69 1.247 . S
O67 Zn61 2.035 1_554 S
O67 C69 1.258 . S
C68 O62 1.247 . S
C68 O63 1.258 . S
C69 O66 1.247 . S
C69 O67 1.258 . S
C70 O72 1.247 . S
C70 O74 1.258 . S
C71 O78 1.247 . S
C71 O79 1.258 . S
O72 C70 1.247 . S
O72 Zn73 2.028 . S
Zn73 O72 2.028 . S
Zn73 O77 2.035 . S
Zn73 O79 2.035 . S
Zn73 O80 2.028 . S
O74 C70 1.258 . S
O74 Zn75 2.035 . S
Zn75 O74 2.035 . S
Zn75 O76 2.028 . S
Zn75 O78 2.028 . S
Zn75 O81 2.035 . S
O76 Zn75 2.028 . S
O76 C82 1.247 . S
O77 Zn73 2.035 . S
O77 C82 1.258 . S
O78 C71 1.247 . S
O78 Zn75 2.028 . S
O79 C71 1.258 . S
O79 Zn73 2.035 . S
O80 Zn73 2.028 . S
O80 C83 1.247 . S
O81 Zn75 2.035 . S
O81 C83 1.258 . S
C82 O76 1.247 . S
C82 O77 1.258 . S
C83 O80 1.247 . S
C83 O81 1.258 . S
H84 C103 0.949 . S
H85 C104 0.950 . S
H86 C106 0.950 . S
H87 C107 0.950 . S
H88 C109 0.950 . S
H89 C112 0.950 . S
H90 C113 0.950 . S
H91 C115 0.951 . S
H92 C116 0.949 . S
H93 C118 0.949 . S
H94 C119 0.950 . S
H95 C121 0.950 . S
H96 C122 0.950 . S
H97 C124 0.950 . S
H98 C127 0.950 . S
H99 C128 0.950 . S
H100 C130 0.951 . S
H101 C131 0.949 . S
C102 C103 1.376 . S
C102 C107 1.386 . S
C102 C108 1.483 . S
C103 H84 0.949 . S
C103 C102 1.376 . S
C103 C104 1.397 . S
C104 H85 0.950 . S
C104 C103 1.397 . S
C104 C105 1.391 . S
C105 C104 1.391 . S
C105 C106 1.405 . S
C106 H86 0.950 . S
C106 C105 1.405 . S
C106 C107 1.367 . S
C107 H87 0.950 . S
C107 C102 1.386 . S
C107 C106 1.367 . S
C108 C102 1.483 . S
C108 C109 1.382 . S
C108 C110 1.403 . S
C109 H88 0.950 . S
C109 C108 1.382 . S
C109 C125 1.411 . S
C110 C108 1.403 . S
C110 C111 1.489 . S
C110 C124 1.411 . S
C111 C110 1.489 . S
C111 C112 1.383 . S
C111 C116 1.382 . S
C112 H89 0.950 . S
C112 C111 1.383 . S
C112 C113 1.395 . S
C113 H90 0.950 . S
C113 C112 1.395 . S
C113 C114 1.288 . S
C114 C113 1.288 . S
C114 C115 1.392 . S
C115 H91 0.951 . S
C115 C114 1.392 . S
C115 C116 1.392 . S
C116 H92 0.949 . S
C116 C111 1.382 . S
C116 C115 1.392 . S
C117 C118 1.376 . S
C117 C122 1.386 . S
C117 C123 1.483 . S
C118 H93 0.949 . S
C118 C117 1.376 . S
C118 C119 1.397 . S
C119 H94 0.950 . S
C119 C118 1.397 . S
C119 C120 1.391 . S
C120 C119 1.391 . S
C120 C121 1.405 . S
C121 H95 0.950 . S
C121 C120 1.405 . S
C121 C122 1.367 . S
C122 H96 0.950 . S
C122 C117 1.386 . S
C122 C121 1.367 . S
C123 C117 1.483 . S
C123 C124 1.382 . S
C123 C125 1.403 . S
C124 H97 0.950 . S
C124 C110 1.411 . S
C124 C123 1.382 . S
C125 C109 1.411 . S
C125 C123 1.403 . S
C125 C126 1.489 . S
C126 C125 1.489 . S
C126 C127 1.383 . S
C126 C131 1.382 . S
C127 H98 0.950 . S
C127 C126 1.383 . S
C127 C128 1.395 . S
C128 H99 0.950 . S
C128 C127 1.395 . S
C128 C129 1.288 . S
C129 C128 1.288 . S
C129 C130 1.392 . S
C130 H100 0.951 . S
C130 C129 1.392 . S
C130 C131 1.392 . S
C131 H101 0.949 . S
C131 C126 1.382 . S
C131 C130 1.392 . S
H132 C151 0.949 . S
H133 C152 0.950 . S
H134 C154 0.950 . S
H135 C155 0.950 . S
H136 C157 0.950 . S
H137 C160 0.950 . S
H138 C161 0.950 . S
H139 C163 0.951 . S
H140 C164 0.949 . S
H141 C166 0.949 . S
H142 C167 0.950 . S
H143 C169 0.950 . S
H144 C170 0.950 . S
H145 C172 0.950 . S
H146 C175 0.950 . S
H147 C176 0.950 . S
H148 C178 0.951 . S
H149 C179 0.949 . S
C150 C151 1.376 . S
C150 C155 1.386 . S
C150 C156 1.483 . S
C151 H132 0.949 . S
C151 C150 1.376 . S
C151 C152 1.397 . S
C152 H133 0.950 . S
C152 C151 1.397 . S
C152 C153 1.391 . S
C153 C152 1.391 . S
C153 C154 1.405 . S
C154 H134 0.950 . S
C154 C153 1.405 . S
C154 C155 1.367 . S
C155 H135 0.950 . S
C155 C150 1.386 . S
C155 C154 1.367 . S
C156 C150 1.483 . S
C156 C157 1.382 . S
C156 C158 1.403 . S
C157 H136 0.950 . S
C157 C156 1.382 . S
C157 C173 1.411 . S
C158 C156 1.403 . S
C158 C159 1.489 . S
C158 C172 1.411 . S
C159 C158 1.489 . S
C159 C160 1.383 . S
C159 C164 1.382 . S
C160 H137 0.950 . S
C160 C159 1.383 . S
C160 C161 1.395 . S
C161 H138 0.950 . S
C161 C160 1.395 . S
C161 C162 1.288 . S
C162 C161 1.288 . S
C162 C163 1.392 . S
C163 H139 0.951 . S
C163 C162 1.392 . S
C163 C164 1.392 . S
C164 H140 0.949 . S
C164 C159 1.382 . S
C164 C163 1.392 . S
C165 C166 1.376 . S
C165 C170 1.386 . S
C165 C171 1.483 . S
C166 H141 0.949 . S
C166 C165 1.376 . S
C166 C167 1.397 . S
C167 H142 0.950 . S
C167 C166 1.397 . S
C167 C168 1.391 . S
C168 C167 1.391 . S
C168 C169 1.405 . S
C169 H143 0.950 . S
C169 C168 1.405 . S
C169 C170 1.367 . S
C170 H144 0.950 . S
C170 C165 1.386 . S
C170 C169 1.367 . S
C171 C165 1.483 . S
C171 C172 1.382 . S
C171 C173 1.403 . S
C172 H145 0.950 . S
C172 C158 1.411 . S
C172 C171 1.382 . S
C173 C157 1.411 . S
C173 C171 1.403 . S
C173 C174 1.489 . S
C174 C173 1.489 . S
C174 C175 1.383 . S
C174 C179 1.382 . S
C175 H146 0.950 . S
C175 C174 1.383 . S
C175 C176 1.395 . S
C176 H147 0.950 . S
C176 C175 1.395 . S
C176 C177 1.288 . S
C177 C176 1.288 . S
C177 C178 1.392 . S
C178 H148 0.951 . S
C178 C177 1.392 . S
C178 C179 1.392 . S
C179 H149 0.949 . S
C179 C174 1.382 . S
C179 C178 1.392 . S
H180 C199 0.949 . S
H181 C200 0.950 . S
H182 C202 0.950 . S
H183 C203 0.950 . S
H184 C205 0.950 . S
H185 C208 0.950 . S
H186 C209 0.950 . S
H187 C211 0.951 . S
H188 C212 0.949 . S
H189 C214 0.949 . S
H190 C215 0.950 . S
H191 C217 0.950 . S
H192 C218 0.950 . S
H193 C220 0.950 . S
H194 C223 0.950 . S
H195 C224 0.950 . S
H196 C226 0.951 . S
H197 C227 0.949 . S
C198 C199 1.376 . S
C198 C203 1.386 . S
C198 C204 1.483 . S
C199 H180 0.949 . S
C199 C198 1.376 . S
C199 C200 1.397 . S
C200 H181 0.950 . S
C200 C199 1.397 . S
C200 C201 1.391 . S
C201 C200 1.391 . S
C201 C202 1.405 . S
C202 H182 0.950 . S
C202 C201 1.405 . S
C202 C203 1.367 . S
C203 H183 0.950 . S
C203 C198 1.386 . S
C203 C202 1.367 . S
C204 C198 1.483 . S
C204 C205 1.382 . S
C204 C206 1.403 . S
C205 H184 0.950 . S
C205 C204 1.382 . S
C205 C221 1.411 . S
C206 C204 1.403 . S
C206 C207 1.489 . S
C206 C220 1.411 . S
C207 C206 1.489 . S
C207 C208 1.383 . S
C207 C212 1.382 . S
C208 H185 0.950 . S
C208 C207 1.383 . S
C208 C209 1.395 . S
C209 H186 0.950 . S
C209 C208 1.395 . S
C209 C210 1.288 . S
C210 C209 1.288 . S
C210 C211 1.392 . S
C211 H187 0.951 . S
C211 C210 1.392 . S
C211 C212 1.392 . S
C212 H188 0.949 . S
C212 C207 1.382 . S
C212 C211 1.392 . S
C213 C214 1.376 . S
C213 C218 1.386 . S
C213 C219 1.483 . S
C214 H189 0.949 . S
C214 C213 1.376 . S
C214 C215 1.397 . S
C215 H190 0.950 . S
C215 C214 1.397 . S
C215 C216 1.391 . S
C216 C215 1.391 . S
C216 C217 1.405 . S
C217 H191 0.950 . S
C217 C216 1.405 . S
C217 C218 1.367 . S
C218 H192 0.950 . S
C218 C213 1.386 . S
C218 C217 1.367 . S
C219 C213 1.483 . S
C219 C220 1.382 . S
C219 C221 1.403 . S
C220 H193 0.950 . S
C220 C206 1.411 . S
C220 C219 1.382 . S
C221 C205 1.411 . S
C221 C219 1.403 . S
C221 C222 1.489 . S
C222 C221 1.489 . S
C222 C223 1.383 . S
C222 C227 1.382 . S
C223 H194 0.950 . S
C223 C222 1.383 . S
C223 C224 1.395 . S
C224 H195 0.950 . S
C224 C223 1.395 . S
C224 C225 1.288 . S
C225 C224 1.288 . S
C225 C226 1.392 . S
C226 H196 0.951 . S
C226 C225 1.392 . S
C226 C227 1.392 . S
C227 H197 0.949 . S
C227 C222 1.382 . S
C227 C226 1.392 . S
H228 C247 0.949 . S
H229 C248 0.950 . S
H230 C250 0.950 . S
H231 C251 0.950 . S
H232 C253 0.950 . S
H233 C256 0.950 . S
H234 C257 0.950 . S
H235 C259 0.951 . S
H236 C260 0.949 . S
H237 C262 0.949 . S
H238 C263 0.950 . S
H239 C265 0.950 . S
H240 C266 0.950 . S
H241 C268 0.950 . S
H242 C271 0.950 . S
H243 C272 0.950 . S
H244 C274 0.951 . S
H245 C275 0.949 . S
C246 C247 1.376 . S
C246 C251 1.386 . S
C246 C252 1.483 . S
C247 H228 0.949 . S
C247 C246 1.376 . S
C247 C248 1.397 . S
C248 H229 0.950 . S
C248 C247 1.397 . S
C248 C249 1.391 . S
C249 C248 1.391 . S
C249 C250 1.405 . S
C250 H230 0.950 . S
C250 C249 1.405 . S
C250 C251 1.367 . S
C251 H231 0.950 . S
C251 C246 1.386 . S
C251 C250 1.367 . S
C252 C246 1.483 . S
C252 C253 1.382 . S
C252 C254 1.403 . S
C253 H232 0.950 . S
C253 C252 1.382 . S
C253 C269 1.411 . S
C254 C252 1.403 . S
C254 C255 1.489 . S
C254 C268 1.411 . S
C255 C254 1.489 . S
C255 C256 1.383 . S
C255 C260 1.382 . S
C256 H233 0.950 . S
C256 C255 1.383 . S
C256 C257 1.395 . S
C257 H234 0.950 . S
C257 C256 1.395 . S
C257 C258 1.288 . S
C258 C257 1.288 . S
C258 C259 1.392 . S
C259 H235 0.951 . S
C259 C258 1.392 . S
C259 C260 1.392 . S
C260 H236 0.949 . S
C260 C255 1.382 . S
C260 C259 1.392 . S
C261 C262 1.376 . S
C261 C266 1.386 . S
C261 C267 1.483 . S
C262 H237 0.949 . S
C262 C261 1.376 . S
C262 C263 1.397 . S
C263 H238 0.950 . S
C263 C262 1.397 . S
C263 C264 1.391 . S
C264 C263 1.391 . S
C264 C265 1.405 . S
C265 H239 0.950 . S
C265 C264 1.405 . S
C265 C266 1.367 . S
C266 H240 0.950 . S
C266 C261 1.386 . S
C266 C265 1.367 . S
C267 C261 1.483 . S
C267 C268 1.382 . S
C267 C269 1.403 . S
C268 H241 0.950 . S
C268 C254 1.411 . S
C268 C267 1.382 . S
C269 C253 1.411 . S
C269 C267 1.403 . S
C269 C270 1.489 . S
C270 C269 1.489 . S
C270 C271 1.383 . S
C270 C275 1.382 . S
C271 H242 0.950 . S
C271 C270 1.383 . S
C271 C272 1.395 . S
C272 H243 0.950 . S
C272 C271 1.395 . S
C272 C273 1.288 . S
C273 C272 1.288 . S
C273 C274 1.392 . S
C274 H244 0.951 . S
C274 C273 1.392 . S
C274 C275 1.392 . S
C275 H245 0.949 . S
C275 C270 1.382 . S
C275 C274 1.392 . S
H276 C295 0.949 . S
H277 C296 0.950 . S
H278 C298 0.950 . S
H279 C299 0.950 . S
H280 C301 0.950 . S
H281 C304 0.950 . S
H282 C305 0.950 . S
H283 C307 0.951 . S
H284 C308 0.949 . S
H285 C310 0.949 . S
H286 C311 0.950 . S
H287 C313 0.950 . S
H288 C314 0.950 . S
H289 C316 0.950 . S
H290 C319 0.950 . S
H291 C320 0.950 . S
H292 C322 0.951 . S
H293 C323 0.949 . S
C294 C295 1.376 . S
C294 C299 1.386 . S
C294 C300 1.483 . S
C295 H276 0.949 . S
C295 C294 1.376 . S
C295 C296 1.397 . S
C296 H277 0.950 . S
C296 C295 1.397 . S
C296 C297 1.391 . S
C297 C296 1.391 . S
C297 C298 1.405 . S
C298 H278 0.950 . S
C298 C297 1.405 . S
C298 C299 1.367 . S
C299 H279 0.950 . S
C299 C294 1.386 . S
C299 C298 1.367 . S
C300 C294 1.483 . S
C300 C301 1.382 . S
C300 C302 1.403 . S
C301 H280 0.950 . S
C301 C300 1.382 . S
C301 C317 1.411 . S
C302 C300 1.403 . S
C302 C303 1.489 . S
C302 C316 1.411 . S
C303 C302 1.489 . S
C303 C304 1.383 . S
C303 C308 1.382 . S
C304 H281 0.950 . S
C304 C303 1.383 . S
C304 C305 1.395 . S
C305 H282 0.950 . S
C305 C304 1.395 . S
C305 C306 1.288 . S
C306 C305 1.288 . S
C306 C307 1.392 . S
C307 H283 0.951 . S
C307 C306 1.392 . S
C307 C308 1.392 . S
C308 H284 0.949 . S
C308 C303 1.382 . S
C308 C307 1.392 . S
C309 C310 1.376 . S
C309 C314 1.386 . S
C309 C315 1.483 . S
C310 H285 0.949 . S
C310 C309 1.376 . S
C310 C311 1.397 . S
C311 H286 0.950 . S
C311 C310 1.397 . S
C311 C312 1.391 . S
C312 C311 1.391 . S
C312 C313 1.405 . S
C313 H287 0.950 . S
C313 C312 1.405 . S
C313 C314 1.367 . S
C314 H288 0.950 . S
C314 C309 1.386 . S
C314 C313 1.367 . S
C315 C309 1.483 . S
C315 C316 1.382 . S
C315 C317 1.403 . S
C316 H289 0.950 . S
C316 C302 1.411 . S
C316 C315 1.382 . S
C317 C301 1.411 . S
C317 C315 1.403 . S
C317 C318 1.489 . S
C318 C317 1.489 . S
C318 C319 1.383 . S
C318 C323 1.382 . S
C319 H290 0.950 . S
C319 C318 1.383 . S
C319 C320 1.395 . S
C320 H291 0.950 . S
C320 C319 1.395 . S
C320 C321 1.288 . S
C321 C320 1.288 . S
C321 C322 1.392 . S
C322 H292 0.951 . S
C322 C321 1.392 . S
C322 C323 1.392 . S
C323 H293 0.949 . S
C323 C318 1.382 . S
C323 C322 1.392 . S
H324 C343 0.949 . S
H325 C344 0.950 . S
H326 C346 0.950 . S
H327 C347 0.950 . S
H328 C349 0.950 . S
H329 C352 0.950 . S
H330 C353 0.950 . S
H331 C355 0.951 . S
H332 C356 0.949 . S
H333 C358 0.949 . S
H334 C359 0.950 . S
H335 C361 0.950 . S
H336 C362 0.950 . S
H337 C364 0.950 . S
H338 C367 0.950 . S
H339 C368 0.950 . S
H340 C370 0.951 . S
H341 C371 0.949 . S
C342 C343 1.376 . S
C342 C347 1.386 . S
C342 C348 1.483 . S
C343 H324 0.949 . S
C343 C342 1.376 . S
C343 C344 1.397 . S
C344 H325 0.950 . S
C344 C343 1.397 . S
C344 C345 1.391 . S
C345 C344 1.391 . S
C345 C346 1.405 . S
C346 H326 0.950 . S
C346 C345 1.405 . S
C346 C347 1.367 . S
C347 H327 0.950 . S
C347 C342 1.386 . S
C347 C346 1.367 . S
C348 C342 1.483 . S
C348 C349 1.382 . S
C348 C350 1.403 . S
C349 H328 0.950 . S
C349 C348 1.382 . S
C349 C365 1.411 . S
C350 C348 1.403 . S
C350 C351 1.489 . S
C350 C364 1.411 . S
C351 C350 1.489 . S
C351 C352 1.383 . S
C351 C356 1.382 . S
C352 H329 0.950 . S
C352 C351 1.383 . S
C352 C353 1.395 . S
C353 H330 0.950 . S
C353 C352 1.395 . S
C353 C354 1.288 . S
C354 C353 1.288 . S
C354 C355 1.392 . S
C355 H331 0.951 . S
C355 C354 1.392 . S
C355 C356 1.392 . S
C356 H332 0.949 . S
C356 C351 1.382 . S
C356 C355 1.392 . S
C357 C358 1.376 . S
C357 C362 1.386 . S
C357 C363 1.483 . S
C358 H333 0.949 . S
C358 C357 1.376 . S
C358 C359 1.397 . S
C359 H334 0.950 . S
C359 C358 1.397 . S
C359 C360 1.391 . S
C360 C359 1.391 . S
C360 C361 1.405 . S
C361 H335 0.950 . S
C361 C360 1.405 . S
C361 C362 1.367 . S
C362 H336 0.950 . S
C362 C357 1.386 . S
C362 C361 1.367 . S
C363 C357 1.483 . S
C363 C364 1.382 . S
C363 C365 1.403 . S
C364 H337 0.950 . S
C364 C350 1.411 . S
C364 C363 1.382 . S
C365 C349 1.411 . S
C365 C363 1.403 . S
C365 C366 1.489 . S
C366 C365 1.489 . S
C366 C367 1.383 . S
C366 C371 1.382 . S
C367 H338 0.950 . S
C367 C366 1.383 . S
C367 C368 1.395 . S
C368 H339 0.950 . S
C368 C367 1.395 . S
C368 C369 1.288 . S
C369 C368 1.288 . S
C369 C370 1.392 . S
C370 H340 0.951 . S
C370 C369 1.392 . S
C370 C371 1.392 . S
C371 H341 0.949 . S
C371 C366 1.382 . S
C371 C370 1.392 . S
H372 C380 0.950 . S
H373 C385 0.950 . S
H374 C382 0.950 . S
H375 C384 0.950 . S
H376 C386 0.950 . S
H377 C388 0.950 . S
H378 C390 0.950 . S
H379 C391 0.950 . S
C380 H372 0.950 . S
C380 C381 1.386 . S
C380 C382 1.391 . S
C381 C380 1.386 . S
C381 C385 1.393 . S
C382 H374 0.950 . S
C382 C380 1.391 . S
C382 C383 1.400 . S
C383 C382 1.400 . S
C383 C384 1.398 . S
C383 C389 1.491 . S
C384 H375 0.950 . S
C384 C383 1.398 . S
C384 C385 1.391 . S
C385 H373 0.950 . S
C385 C381 1.393 . S
C385 C384 1.391 . S
C386 H376 0.950 . S
C386 C387 1.386 . S
C386 C388 1.391 . S
C387 C386 1.386 . S
C387 C391 1.393 . S
C388 H377 0.950 . S
C388 C386 1.391 . S
C388 C389 1.400 . S
C389 C383 1.491 . S
C389 C388 1.400 . S
C389 C390 1.398 . S
C390 H378 0.950 . S
C390 C389 1.398 . S
C390 C391 1.391 . S
C391 H379 0.950 . S
C391 C387 1.393 . S
C391 C390 1.391 . S
H392 C400 0.950 . S
H393 C405 0.950 . S
H394 C402 0.950 . S
H395 C404 0.950 . S
H396 C406 0.950 . S
H397 C408 0.950 . S
H398 C410 0.950 . S
H399 C411 0.950 . S
C400 H392 0.950 . S
C400 C401 1.386 . S
C400 C402 1.391 . S
C401 C400 1.386 . S
C401 C405 1.393 . S
C402 H394 0.950 . S
C402 C400 1.391 . S
C402 C403 1.400 . S
C403 C402 1.400 . S
C403 C404 1.398 . S
C403 C409 1.491 . S
C404 H395 0.950 . S
C404 C403 1.398 . S
C404 C405 1.391 . S
C405 H393 0.950 . S
C405 C401 1.393 . S
C405 C404 1.391 . S
C406 H396 0.950 . S
C406 C407 1.386 . S
C406 C408 1.391 . S
C407 C406 1.386 . S
C407 C411 1.393 . S
C408 H397 0.950 . S
C408 C406 1.391 . S
C408 C409 1.400 . S
C409 C403 1.491 . S
C409 C408 1.400 . S
C409 C410 1.398 . S
C410 H398 0.950 . S
C410 C409 1.398 . S
C410 C411 1.391 . S
C411 H399 0.950 . S
C411 C407 1.393 . S
C411 C410 1.391 . S
H412 C420 0.950 . S
H413 C425 0.950 . S
H414 C422 0.950 . S
H415 C424 0.950 . S
H416 C426 0.950 . S
H417 C428 0.950 . S
H418 C430 0.950 . S
H419 C431 0.950 . S
C420 H412 0.950 . S
C420 C421 1.386 . S
C420 C422 1.391 . S
C421 C420 1.386 . S
C421 C425 1.393 . S
C422 H414 0.950 . S
C422 C420 1.391 . S
C422 C423 1.400 . S
C423 C422 1.400 . S
C423 C424 1.398 . S
C423 C429 1.491 . S
C424 H415 0.950 . S
C424 C423 1.398 . S
C424 C425 1.391 . S
C425 H413 0.950 . S
C425 C421 1.393 . S
C425 C424 1.391 . S
C426 H416 0.950 . S
C426 C427 1.386 . S
C426 C428 1.391 . S
C427 C426 1.386 . S
C427 C431 1.393 . S
C428 H417 0.950 . S
C428 C426 1.391 . S
C428 C429 1.400 . S
C429 C423 1.491 . S
C429 C428 1.400 . S
C429 C430 1.398 . S
C430 H418 0.950 . S
C430 C429 1.398 . S
C430 C431 1.391 . S
C431 H419 0.950 . S
C431 C427 1.393 . S
C431 C430 1.391 . S
H432 C440 0.950 . S
H433 C445 0.950 . S
H434 C442 0.950 . S
H435 C444 0.950 . S
H436 C446 0.950 . S
H437 C448 0.950 . S
H438 C450 0.950 . S
H439 C451 0.950 . S
C440 H432 0.950 . S
C440 C441 1.386 . S
C440 C442 1.391 . S
C441 C440 1.386 . S
C441 C445 1.393 . S
C442 H434 0.950 . S
C442 C440 1.391 . S
C442 C443 1.400 . S
C443 C442 1.400 . S
C443 C444 1.398 . S
C443 C449 1.491 . S
C444 H435 0.950 . S
C444 C443 1.398 . S
C444 C445 1.391 . S
C445 H433 0.950 . S
C445 C441 1.393 . S
C445 C444 1.391 . S
C446 H436 0.950 . S
C446 C447 1.386 . S
C446 C448 1.391 . S
C447 C446 1.386 . S
C447 C451 1.393 . S
C448 H437 0.950 . S
C448 C446 1.391 . S
C448 C449 1.400 . S
C449 C443 1.491 . S
C449 C448 1.400 . S
C449 C450 1.398 . S
C450 H438 0.950 . S
C450 C449 1.398 . S
C450 C451 1.391 . S
C451 H439 0.950 . S
C451 C447 1.393 . S
C451 C450 1.391 . S
H452 C460 0.950 . S
H453 C465 0.950 . S
H454 C462 0.950 . S
H455 C464 0.950 . S
H456 C466 0.950 . S
H457 C468 0.950 . S
H458 C470 0.950 . S
H459 C471 0.950 . S
C460 H452 0.950 . S
C460 C461 1.386 . S
C460 C462 1.391 . S
C461 C460 1.386 . S
C461 C465 1.393 . S
C462 H454 0.950 . S
C462 C460 1.391 . S
C462 C463 1.400 . S
C463 C462 1.400 . S
C463 C464 1.398 . S
C463 C469 1.491 . S
C464 H455 0.950 . S
C464 C463 1.398 . S
C464 C465 1.391 . S
C465 H453 0.950 . S
C465 C461 1.393 . S
C465 C464 1.391 . S
C466 H456 0.950 . S
C466 C467 1.386 . S
C466 C468 1.391 . S
C467 C466 1.386 . S
C467 C471 1.393 . S
C468 H457 0.950 . S
C468 C466 1.391 . S
C468 C469 1.400 . S
C469 C463 1.491 . S
C469 C468 1.400 . S
C469 C470 1.398 . S
C470 H458 0.950 . S
C470 C469 1.398 . S
C470 C471 1.391 . S
C471 H459 0.950 . S
C471 C467 1.393 . S
C471 C470 1.391 . S
H472 C480 0.950 . S
H473 C485 0.950 . S
H474 C482 0.950 . S
H475 C484 0.950 . S
H476 C486 0.950 . S
H477 C488 0.950 . S
H478 C490 0.950 . S
H479 C491 0.950 . S
C480 H472 0.950 . S
C480 C481 1.386 . S
C480 C482 1.391 . S
C481 C480 1.386 . S
C481 C485 1.393 . S
C482 H474 0.950 . S
C482 C480 1.391 . S
C482 C483 1.400 . S
C483 C482 1.400 . S
C483 C484 1.398 . S
C483 C489 1.491 . S
C484 H475 0.950 . S
C484 C483 1.398 . S
C484 C485 1.391 . S
C485 H473 0.950 . S
C485 C481 1.393 . S
C485 C484 1.391 . S
C486 H476 0.950 . S
C486 C487 1.386 . S
C486 C488 1.391 . S
C487 C486 1.386 . S
C487 C491 1.393 . S
C488 H477 0.950 . S
C488 C486 1.391 . S
C488 C489 1.400 . S
C489 C483 1.491 . S
C489 C488 1.400 . S
C489 C490 1.398 . S
C490 H478 0.950 . S
C490 C489 1.398 . S
C490 C491 1.391 . S
C491 H479 0.950 . S
C491 C487 1.393 . S
C491 C490 1.391 . S
H492 C500 0.950 . S
H493 C505 0.950 . S
H494 C502 0.950 . S
H495 C504 0.950 . S
H496 C506 0.950 . S
H497 C508 0.950 . S
H498 C510 0.950 . S
H499 C511 0.950 . S
C500 H492 0.950 . S
C500 C501 1.386 . S
C500 C502 1.391 . S
C501 C500 1.386 . S
C501 C505 1.393 . S
C502 H494 0.950 . S
C502 C500 1.391 . S
C502 C503 1.400 . S
C503 C502 1.400 . S
C503 C504 1.398 . S
C503 C509 1.491 . S
C504 H495 0.950 . S
C504 C503 1.398 . S
C504 C505 1.391 . S
C505 H493 0.950 . S
C505 C501 1.393 . S
C505 C504 1.391 . S
C506 H496 0.950 . S
C506 C507 1.386 . S
C506 C508 1.391 . S
C507 C506 1.386 . S
C507 C511 1.393 . S
C508 H497 0.950 . S
C508 C506 1.391 . S
C508 C509 1.400 . S
C509 C503 1.491 . S
C509 C508 1.400 . S
C509 C510 1.398 . S
C510 H498 0.950 . S
C510 C509 1.398 . S
C510 C511 1.391 . S
C511 H499 0.950 . S
C511 C507 1.393 . S
C511 C510 1.391 . S
H512 C520 0.950 . S
H513 C525 0.950 . S
H514 C522 0.950 . S
H515 C524 0.950 . S
H516 C526 0.950 . S
H517 C528 0.950 . S
H518 C530 0.950 . S
H519 C531 0.950 . S
C520 H512 0.950 . S
C520 C521 1.386 . S
C520 C522 1.391 . S
C521 C520 1.386 . S
C521 C525 1.393 . S
C522 H514 0.950 . S
C522 C520 1.391 . S
C522 C523 1.400 . S
C523 C522 1.400 . S
C523 C524 1.398 . S
C523 C529 1.491 . S
C524 H515 0.950 . S
C524 C523 1.398 . S
C524 C525 1.391 . S
C525 H513 0.950 . S
C525 C521 1.393 . S
C525 C524 1.391 . S
C526 H516 0.950 . S
C526 C527 1.386 . S
C526 C528 1.391 . S
C527 C526 1.386 . S
C527 C531 1.393 . S
C528 H517 0.950 . S
C528 C526 1.391 . S
C528 C529 1.400 . S
C529 C523 1.491 . S
C529 C528 1.400 . S
C529 C530 1.398 . S
C530 H518 0.950 . S
C530 C529 1.398 . S
C530 C531 1.391 . S
C531 H519 0.950 . S
C531 C527 1.393 . S
C531 C530 1.391 . S
H532 C540 0.950 . S
H533 C545 0.950 . S
H534 C542 0.950 . S
H535 C544 0.950 . S
H536 C546 0.950 . S
H537 C548 0.950 . S
H538 C550 0.950 . S
H539 C551 0.950 . S
C540 H532 0.950 . S
C540 C541 1.386 . S
C540 C542 1.391 . S
C541 C540 1.386 . S
C541 C545 1.393 . S
C542 H534 0.950 . S
C542 C540 1.391 . S
C542 C543 1.400 . S
C543 C542 1.400 . S
C543 C544 1.398 . S
C543 C549 1.491 . S
C544 H535 0.950 . S
C544 C543 1.398 . S
C544 C545 1.391 . S
C545 H533 0.950 . S
C545 C541 1.393 . S
C545 C544 1.391 . S
C546 H536 0.950 . S
C546 C547 1.386 . S
C546 C548 1.391 . S
C547 C546 1.386 . S
C547 C551 1.393 . S
C548 H537 0.950 . S
C548 C546 1.391 . S
C548 C549 1.400 . S
C549 C543 1.491 . S
C549 C548 1.400 . S
C549 C550 1.398 . S
C550 H538 0.950 . S
C550 C549 1.398 . S
C550 C551 1.391 . S
C551 H539 0.950 . S
C551 C547 1.393 . S
C551 C550 1.391 . S
H552 C560 0.950 . S
H553 C565 0.950 . S
H554 C562 0.950 . S
H555 C564 0.950 . S
H556 C566 0.950 . S
H557 C568 0.950 . S
H558 C570 0.950 . S
H559 C571 0.950 . S
C560 H552 0.950 . S
C560 C561 1.386 . S
C560 C562 1.391 . S
C561 C560 1.386 . S
C561 C565 1.393 . S
C562 H554 0.950 . S
C562 C560 1.391 . S
C562 C563 1.400 . S
C563 C562 1.400 . S
C563 C564 1.398 . S
C563 C569 1.491 . S
C564 H555 0.950 . S
C564 C563 1.398 . S
C564 C565 1.391 . S
C565 H553 0.950 . S
C565 C561 1.393 . S
C565 C564 1.391 . S
C566 H556 0.950 . S
C566 C567 1.386 . S
C566 C568 1.391 . S
C567 C566 1.386 . S
C567 C571 1.393 . S
C568 H557 0.950 . S
C568 C566 1.391 . S
C568 C569 1.400 . S
C569 C563 1.491 . S
C569 C568 1.400 . S
C569 C570 1.398 . S
C570 H558 0.950 . S
C570 C569 1.398 . S
C570 C571 1.391 . S
C571 H559 0.950 . S
C571 C567 1.393 . S
C571 C570 1.391 . S
H572 C580 0.950 . S
H573 C585 0.950 . S
H574 C582 0.950 . S
H575 C584 0.950 . S
H576 C586 0.950 . S
H577 C588 0.950 . S
H578 C590 0.950 . S
H579 C591 0.950 . S
C580 H572 0.950 . S
C580 C581 1.386 . S
C580 C582 1.391 . S
C581 C580 1.386 . S
C581 C585 1.393 . S
C582 H574 0.950 . S
C582 C580 1.391 . S
C582 C583 1.400 . S
C583 C582 1.400 . S
C583 C584 1.398 . S
C583 C589 1.491 . S
C584 H575 0.950 . S
C584 C583 1.398 . S
C584 C585 1.391 . S
C585 H573 0.950 . S
C585 C581 1.393 . S
C585 C584 1.391 . S
C586 H576 0.950 . S
C586 C587 1.386 . S
C586 C588 1.391 . S
C587 C586 1.386 . S
C587 C591 1.393 . S
C588 H577 0.950 . S
C588 C586 1.391 . S
C588 C589 1.400 . S
C589 C583 1.491 . S
C589 C588 1.400 . S
C589 C590 1.398 . S
C590 H578 0.950 . S
C590 C589 1.398 . S
C590 C591 1.391 . S
C591 H579 0.950 . S
C591 C587 1.393 . S
C591 C590 1.391 . S
H592 C600 0.950 . S
H593 C605 0.950 . S
H594 C602 0.950 . S
H595 C604 0.950 . S
H596 C606 0.950 . S
H597 C608 0.950 . S
H598 C610 0.950 . S
H599 C611 0.950 . S
C600 H592 0.950 . S
C600 C601 1.386 . S
C600 C602 1.391 . S
C601 C600 1.386 . S
C601 C605 1.393 . S
C602 H594 0.950 . S
C602 C600 1.391 . S
C602 C603 1.400 . S
C603 C602 1.400 . S
C603 C604 1.398 . S
C603 C609 1.491 . S
C604 H595 0.950 . S
C604 C603 1.398 . S
C604 C605 1.391 . S
C605 H593 0.950 . S
C605 C601 1.393 . S
C605 C604 1.391 . S
C606 H596 0.950 . S
C606 C607 1.386 . S
C606 C608 1.391 . S
C607 C606 1.386 . S
C607 C611 1.393 . S
C608 H597 0.950 . S
C608 C606 1.391 . S
C608 C609 1.400 . S
C609 C603 1.491 . S
C609 C608 1.400 . S
C609 C610 1.398 . S
C610 H598 0.950 . S
C610 C609 1.398 . S
C610 C611 1.391 . S
C611 H599 0.950 . S
C611 C607 1.393 . S
C611 C610 1.391 . S
H612 C620 0.950 . S
H613 C625 0.950 . S
H614 C622 0.950 . S
H615 C624 0.950 . S
H616 C626 0.950 . S
H617 C628 0.950 . S
H618 C630 0.950 . S
H619 C631 0.950 . S
C620 H612 0.950 . S
C620 C621 1.386 . S
C620 C622 1.391 . S
C621 C620 1.386 . S
C621 C625 1.393 . S
C622 H614 0.950 . S
C622 C620 1.391 . S
C622 C623 1.400 . S
C623 C622 1.400 . S
C623 C624 1.398 . S
C623 C629 1.491 . S
C624 H615 0.950 . S
C624 C623 1.398 . S
C624 C625 1.391 . S
C625 H613 0.950 . S
C625 C621 1.393 . S
C625 C624 1.391 . S
C626 H616 0.950 . S
C626 C627 1.386 . S
C626 C628 1.391 . S
C627 C626 1.386 . S
C627 C631 1.393 . S
C628 H617 0.950 . S
C628 C626 1.391 . S
C628 C629 1.400 . S
C629 C623 1.491 . S
C629 C628 1.400 . S
C629 C630 1.398 . S
C630 H618 0.950 . S
C630 C629 1.398 . S
C630 C631 1.391 . S
C631 H619 0.950 . S
C631 C627 1.393 . S
C631 C630 1.391 . S
H632 C640 0.950 . S
H633 C645 0.950 . S
H634 C642 0.950 . S
H635 C644 0.950 . S
H636 C646 0.950 . S
H637 C648 0.950 . S
H638 C650 0.950 . S
H639 C651 0.950 . S
C640 H632 0.950 . S
C640 C641 1.386 . S
C640 C642 1.391 . S
C641 C640 1.386 . S
C641 C645 1.393 . S
C642 H634 0.950 . S
C642 C640 1.391 . S
C642 C643 1.400 . S
C643 C642 1.400 . S
C643 C644 1.398 . S
C643 C649 1.491 . S
C644 H635 0.950 . S
C644 C643 1.398 . S
C644 C645 1.391 . S
C645 H633 0.950 . S
C645 C641 1.393 . S
C645 C644 1.391 . S
C646 H636 0.950 . S
C646 C647 1.386 . S
C646 C648 1.391 . S
C647 C646 1.386 . S
C647 C651 1.393 . S
C648 H637 0.950 . S
C648 C646 1.391 . S
C648 C649 1.400 . S
C649 C643 1.491 . S
C649 C648 1.400 . S
C649 C650 1.398 . S
C650 H638 0.950 . S
C650 C649 1.398 . S
C650 C651 1.391 . S
C651 H639 0.950 . S
C651 C647 1.393 . S
C651 C650 1.391 . S
H652 C660 0.950 . S
H653 C665 0.950 . S
H654 C662 0.950 . S
H655 C664 0.950 . S
H656 C666 0.950 . S
H657 C668 0.950 . S
H658 C670 0.950 . S
H659 C671 0.950 . S
C660 H652 0.950 . S
C660 C661 1.386 . S
C660 C662 1.391 . S
C661 C660 1.386 . S
C661 C665 1.393 . S
C662 H654 0.950 . S
C662 C660 1.391 . S
C662 C663 1.400 . S
C663 C662 1.400 . S
C663 C664 1.398 . S
C663 C669 1.491 . S
C664 H655 0.950 . S
C664 C663 1.398 . S
C664 C665 1.391 . S
C665 H653 0.950 . S
C665 C661 1.393 . S
C665 C664 1.391 . S
C666 H656 0.950 . S
C666 C667 1.386 . S
C666 C668 1.391 . S
C667 C666 1.386 . S
C667 C671 1.393 . S
C668 H657 0.950 . S
C668 C666 1.391 . S
C668 C669 1.400 . S
C669 C663 1.491 . S
C669 C668 1.400 . S
C669 C670 1.398 . S
C670 H658 0.950 . S
C670 C669 1.398 . S
C670 C671 1.391 . S
C671 H659 0.950 . S
C671 C667 1.393 . S
C671 C670 1.391 . S
H672 C680 0.950 . S
H673 C685 0.950 . S
H674 C682 0.950 . S
H675 C684 0.950 . S
H676 C686 0.950 . S
H677 C688 0.950 . S
H678 C690 0.950 . S
H679 C691 0.950 . S
C680 H672 0.950 . S
C680 C681 1.386 . S
C680 C682 1.391 . S
C681 C680 1.386 . S
C681 C685 1.393 . S
C682 H674 0.950 . S
C682 C680 1.391 . S
C682 C683 1.400 . S
C683 C682 1.400 . S
C683 C684 1.398 . S
C683 C689 1.491 . S
C684 H675 0.950 . S
C684 C683 1.398 . S
C684 C685 1.391 . S
C685 H673 0.950 . S
C685 C681 1.393 . S
C685 C684 1.391 . S
C686 H676 0.950 . S
C686 C687 1.386 . S
C686 C688 1.391 . S
C687 C686 1.386 . S
C687 C691 1.393 . S
C688 H677 0.950 . S
C688 C686 1.391 . S
C688 C689 1.400 . S
C689 C683 1.491 . S
C689 C688 1.400 . S
C689 C690 1.398 . S
C690 H678 0.950 . S
C690 C689 1.398 . S
C690 C691 1.391 . S
C691 H679 0.950 . S
C691 C687 1.393 . S
C691 C690 1.391 . S
H692 C700 0.950 . S
H693 C705 0.950 . S
H694 C702 0.950 . S
H695 C704 0.950 . S
H696 C706 0.950 . S
H697 C708 0.950 . S
H698 C710 0.950 . S
H699 C711 0.950 . S
C700 H692 0.950 . S
C700 C701 1.386 . S
C700 C702 1.391 . S
C701 C700 1.386 . S
C701 C705 1.393 . S
C702 H694 0.950 . S
C702 C700 1.391 . S
C702 C703 1.400 . S
C703 C702 1.400 . S
C703 C704 1.398 . S
C703 C709 1.491 . S
C704 H695 0.950 . S
C704 C703 1.398 . S
C704 C705 1.391 . S
C705 H693 0.950 . S
C705 C701 1.393 . S
C705 C704 1.391 . S
C706 H696 0.950 . S
C706 C707 1.386 . S
C706 C708 1.391 . S
C707 C706 1.386 . S
C707 C711 1.393 . S
C708 H697 0.950 . S
C708 C706 1.391 . S
C708 C709 1.400 . S
C709 C703 1.491 . S
C709 C708 1.400 . S
C709 C710 1.398 . S
C710 H698 0.950 . S
C710 C709 1.398 . S
C710 C711 1.391 . S
C711 H699 0.950 . S
C711 C707 1.393 . S
C711 C710 1.391 . S
H712 C720 0.950 . S
H713 C725 0.950 . S
H714 C722 0.950 . S
H715 C724 0.950 . S
H716 C726 0.950 . S
H717 C728 0.950 . S
H718 C730 0.950 . S
H719 C731 0.950 . S
C720 H712 0.950 . S
C720 C721 1.386 . S
C720 C722 1.391 . S
C721 C720 1.386 . S
C721 C725 1.393 . S
C722 H714 0.950 . S
C722 C720 1.391 . S
C722 C723 1.400 . S
C723 C722 1.400 . S
C723 C724 1.398 . S
C723 C729 1.491 . S
C724 H715 0.950 . S
C724 C723 1.398 . S
C724 C725 1.391 . S
C725 H713 0.950 . S
C725 C721 1.393 . S
C725 C724 1.391 . S
C726 H716 0.950 . S
C726 C727 1.386 . S
C726 C728 1.391 . S
C727 C726 1.386 . S
C727 C731 1.393 . S
C728 H717 0.950 . S
C728 C726 1.391 . S
C728 C729 1.400 . S
C729 C723 1.491 . S
C729 C728 1.400 . S
C729 C730 1.398 . S
C730 H718 0.950 . S
C730 C729 1.398 . S
C730 C731 1.391 . S
C731 H719 0.950 . S
C731 C727 1.393 . S
C731 C730 1.391 . S
H732 C740 0.950 . S
H733 C745 0.950 . S
H734 C742 0.950 . S
H735 C744 0.950 . S
H736 C746 0.950 . S
H737 C748 0.950 . S
H738 C750 0.950 . S
H739 C751 0.950 . S
C740 H732 0.950 . S
C740 C741 1.386 . S
C740 C742 1.391 . S
C741 C740 1.386 . S
C741 C745 1.393 . S
C742 H734 0.950 . S
C742 C740 1.391 . S
C742 C743 1.400 . S
C743 C742 1.400 . S
C743 C744 1.398 . S
C743 C749 1.491 . S
C744 H735 0.950 . S
C744 C743 1.398 . S
C744 C745 1.391 . S
C745 H733 0.950 . S
C745 C741 1.393 . S
C745 C744 1.391 . S
C746 H736 0.950 . S
C746 C747 1.386 . S
C746 C748 1.391 . S
C747 C746 1.386 . S
C747 C751 1.393 . S
C748 H737 0.950 . S
C748 C746 1.391 . S
C748 C749 1.400 . S
C749 C743 1.491 . S
C749 C748 1.400 . S
C749 C750 1.398 . S
C750 H738 0.950 . S
C750 C749 1.398 . S
C750 C751 1.391 . S
C751 H739 0.950 . S
C751 C747 1.393 . S
C751 C750 1.391 . S
H752 C760 0.950 . S
H753 C765 0.950 . S
H754 C762 0.950 . S
H755 C764 0.950 . S
H756 C766 0.950 . S
H757 C768 0.950 . S
H758 C770 0.950 . S
H759 C771 0.950 . S
C760 H752 0.950 . S
C760 C761 1.386 . S
C760 C762 1.391 . S
C761 C760 1.386 . S
C761 C765 1.393 . S
C762 H754 0.950 . S
C762 C760 1.391 . S
C762 C763 1.400 . S
C763 C762 1.400 . S
C763 C764 1.398 . S
C763 C769 1.491 . S
C764 H755 0.950 . S
C764 C763 1.398 . S
C764 C765 1.391 . S
C765 H753 0.950 . S
C765 C761 1.393 . S
C765 C764 1.391 . S
C766 H756 0.950 . S
C766 C767 1.386 . S
C766 C768 1.391 . S
C767 C766 1.386 . S
C767 C771 1.393 . S
C768 H757 0.950 . S
C768 C766 1.391 . S
C768 C769 1.400 . S
C769 C763 1.491 . S
C769 C768 1.400 . S
C769 C770 1.398 . S
C770 H758 0.950 . S
C770 C769 1.398 . S
C770 C771 1.391 . S
C771 H759 0.950 . S
C771 C767 1.393 . S
C771 C770 1.391 . S
H772 C780 0.950 . S
H773 C785 0.950 . S
H774 C782 0.950 . S
H775 C784 0.950 . S
H776 C786 0.950 . S
H777 C788 0.950 . S
H778 C790 0.950 . S
H779 C791 0.950 . S
C780 H772 0.950 . S
C780 C781 1.386 . S
C780 C782 1.391 . S
C781 C780 1.386 . S
C781 C785 1.393 . S
C782 H774 0.950 . S
C782 C780 1.391 . S
C782 C783 1.400 . S
C783 C782 1.400 . S
C783 C784 1.398 . S
C783 C789 1.491 . S
C784 H775 0.950 . S
C784 C783 1.398 . S
C784 C785 1.391 . S
C785 H773 0.950 . S
C785 C781 1.393 . S
C785 C784 1.391 . S
C786 H776 0.950 . S
C786 C787 1.386 . S
C786 C788 1.391 . S
C787 C786 1.386 . S
C787 C791 1.393 . S
C788 H777 0.950 . S
C788 C786 1.391 . S
C788 C789 1.400 . S
C789 C783 1.491 . S
C789 C788 1.400 . S
C789 C790 1.398 . S
C790 H778 0.950 . S
C790 C789 1.398 . S
C790 C791 1.391 . S
C791 H779 0.950 . S
C791 C787 1.393 . S
C791 C790 1.391 . S
H792 C800 0.950 . S
H793 C805 0.950 . S
H794 C802 0.950 . S
H795 C804 0.950 . S
H796 C806 0.950 . S
H797 C808 0.950 . S
H798 C810 0.950 . S
H799 C811 0.950 . S
C800 H792 0.950 . S
C800 C801 1.386 . S
C800 C802 1.391 . S
C801 C800 1.386 . S
C801 C805 1.393 . S
C802 H794 0.950 . S
C802 C800 1.391 . S
C802 C803 1.400 . S
C803 C802 1.400 . S
C803 C804 1.398 . S
C803 C809 1.491 . S
C804 H795 0.950 . S
C804 C803 1.398 . S
C804 C805 1.391 . S
C805 H793 0.950 . S
C805 C801 1.393 . S
C805 C804 1.391 . S
C806 H796 0.950 . S
C806 C807 1.386 . S
C806 C808 1.391 . S
C807 C806 1.386 . S
C807 C811 1.393 . S
C808 H797 0.950 . S
C808 C806 1.391 . S
C808 C809 1.400 . S
C809 C803 1.491 . S
C809 C808 1.400 . S
C809 C810 1.398 . S
C810 H798 0.950 . S
C810 C809 1.398 . S
C810 C811 1.391 . S
C811 H799 0.950 . S
C811 C807 1.393 . S
C811 C810 1.391 . S
H812 C820 0.950 . S
H813 C825 0.950 . S
H814 C822 0.950 . S
H815 C824 0.950 . S
H816 C826 0.950 . S
H817 C828 0.950 . S
H818 C830 0.950 . S
H819 C831 0.950 . S
C820 H812 0.950 . S
C820 C821 1.386 . S
C820 C822 1.391 . S
C821 C820 1.386 . S
C821 C825 1.393 . S
C822 H814 0.950 . S
C822 C820 1.391 . S
C822 C823 1.400 . S
C823 C822 1.400 . S
C823 C824 1.398 . S
C823 C829 1.491 . S
C824 H815 0.950 . S
C824 C823 1.398 . S
C824 C825 1.391 . S
C825 H813 0.950 . S
C825 C821 1.393 . S
C825 C824 1.391 . S
C826 H816 0.950 . S
C826 C827 1.386 . S
C826 C828 1.391 . S
C827 C826 1.386 . S
C827 C831 1.393 . S
C828 H817 0.950 . S
C828 C826 1.391 . S
C828 C829 1.400 . S
C829 C823 1.491 . S
C829 C828 1.400 . S
C829 C830 1.398 . S
C830 H818 0.950 . S
C830 C829 1.398 . S
C830 C831 1.391 . S
C831 H819 0.950 . S
C831 C827 1.393 . S
C831 C830 1.391 . S
H832 C840 0.950 . S
H833 C845 0.950 . S
H834 C842 0.950 . S
H835 C844 0.950 . S
H836 C846 0.950 . S
H837 C848 0.950 . S
H838 C850 0.950 . S
H839 C851 0.950 . S
C840 H832 0.950 . S
C840 C841 1.386 . S
C840 C842 1.391 . S
C841 C840 1.386 . S
C841 C845 1.393 . S
C842 H834 0.950 . S
C842 C840 1.391 . S
C842 C843 1.400 . S
C843 C842 1.400 . S
C843 C844 1.398 . S
C843 C849 1.491 . S
C844 H835 0.950 . S
C844 C843 1.398 . S
C844 C845 1.391 . S
C845 H833 0.950 . S
C845 C841 1.393 . S
C845 C844 1.391 . S
C846 H836 0.950 . S
C846 C847 1.386 . S
C846 C848 1.391 . S
C847 C846 1.386 . S
C847 C851 1.393 . S
C848 H837 0.950 . S
C848 C846 1.391 . S
C848 C849 1.400 . S
C849 C843 1.491 . S
C849 C848 1.400 . S
C849 C850 1.398 . S
C850 H838 0.950 . S
C850 C849 1.398 . S
C850 C851 1.391 . S
C851 H839 0.950 . S
C851 C847 1.393 . S
C851 C850 1.391 . S
C381 C13 1.745 . S
C387 C105 1.726 . S
C401 C27 1.735 . S
C407 C162 1.729 . S
C427 C216 1.686 . S
C421 C29 1.736 . S
C447 C273 1.681 . S
C441 C54 1.741 . S
C467 C297 1.727 . S
C461 C69 1.746 . S
C487 C354 1.733 . S
C481 C83 1.737 . S
C501 C15 1.738 . S
C507 C201 1.714 . S
C521 C41 1.741 . S
C527 C258 1.736 . S
C547 C312 1.693 . S
C541 C42 1.739 . S
C567 C369 1.680 . S
C561 C57 1.741 . S
C581 C71 1.736 . S
C587 C120 1.685 . S
C607 C177 1.680 . S
C601 C1 1.741 . S
C627 C264 1.716 . S
C621 C12 1.741 . S
C641 C26 1.735 . S
C647 C306 1.666 . S
C667 C345 1.706 . S
C661 C28 1.745 . S
C681 C55 1.740 . S
C687 C114 1.678 . S
C701 C68 1.744 . S
C707 C153 1.701 . S
C721 C82 1.731 . S
C727 C225 1.726 . S
C741 C14 1.736 . S
C747 C360 1.711 . S
C767 C129 1.737 . S
C761 C40 1.741 . S
C781 C43 1.743 . S
C787 C168 1.720 . S
C801 C56 1.735 . S
C807 C210 1.665 . S
C821 C70 1.745 . S
C827 C249 1.704 . S
C841 C0 1.740 . S
C847 C321 1.736 . S
