# Generated by pormake.
# Topology ptr, (4,4)-cn, num edge types: 1
# Building blocks:
#     Node 0, Type 0, BuildingBlock: GALJAG_clean_sbu_0, # of connection points: 4
#     Node 1, Type 0, BuildingBlock: GALJAG_clean_sbu_0, # of connection points: 4
#     Node 2, Type 0, BuildingBlock: GALJAG_clean_sbu_0, # of connection points: 4
#     Node 3, Type 0, BuildingBlock: GALJAG_clean_sbu_0, # of connection points: 4
#     Node 4, Type 0, BuildingBlock: GALJAG_clean_sbu_0, # of connection points: 4
#     Node 5, Type 0, BuildingBlock: GALJAG_clean_sbu_0, # of connection points: 4
#     Node 6, Type 0, BuildingBlock: GALJAG_clean_sbu_0, # of connection points: 4
#     Node 7, Type 0, BuildingBlock: GALJAG_clean_sbu_0, # of connection points: 4
#     Node 8, Type 0, BuildingBlock: GALJAG_clean_sbu_0, # of connection points: 4
#     Node 9, Type 0, BuildingBlock: GALJAG_clean_sbu_0, # of connection points: 4
#     Node 10, Type 0, BuildingBlock: GALJAG_clean_sbu_0, # of connection points: 4
#     Node 11, Type 0, BuildingBlock: GALJAG_clean_sbu_0, # of connection points: 4
#     Node 12, Type 0, BuildingBlock: GALJAG_clean_sbu_0, # of connection points: 4
#     Node 13, Type 0, BuildingBlock: GALJAG_clean_sbu_0, # of connection points: 4
#     Node 14, Type 0, BuildingBlock: GALJAG_clean_sbu_0, # of connection points: 4
#     Node 15, Type 0, BuildingBlock: GALJAG_clean_sbu_0, # of connection points: 4
#     Node 16, Type 0, BuildingBlock: GALJAG_clean_sbu_0, # of connection points: 4
#     Node 17, Type 0, BuildingBlock: GALJAG_clean_sbu_0, # of connection points: 4
#     Node 18, Type 1, BuildingBlock: MUDLON_clean_linker_0, # of connection points: 4
#     Node 19, Type 1, BuildingBlock: MUDLON_clean_linker_0, # of connection points: 4
#     Node 20, Type 1, BuildingBlock: MUDLON_clean_linker_0, # of connection points: 4
#     Node 21, Type 1, BuildingBlock: MUDLON_clean_linker_0, # of connection points: 4
#     Node 22, Type 1, BuildingBlock: MUDLON_clean_linker_0, # of connection points: 4
#     Node 23, Type 1, BuildingBlock: MUDLON_clean_linker_0, # of connection points: 4
#     Node 24, Type 1, BuildingBlock: MUDLON_clean_linker_0, # of connection points: 4
#     Node 25, Type 1, BuildingBlock: MUDLON_clean_linker_0, # of connection points: 4
#     Node 26, Type 1, BuildingBlock: MUDLON_clean_linker_0, # of connection points: 4
#     Node 27, Type 1, BuildingBlock: MUDLON_clean_linker_0, # of connection points: 4
#     Node 28, Type 1, BuildingBlock: MUDLON_clean_linker_0, # of connection points: 4
#     Node 29, Type 1, BuildingBlock: MUDLON_clean_linker_0, # of connection points: 4
#     Node 30, Type 1, BuildingBlock: MUDLON_clean_linker_0, # of connection points: 4
#     Node 31, Type 1, BuildingBlock: MUDLON_clean_linker_0, # of connection points: 4
#     Node 32, Type 1, BuildingBlock: MUDLON_clean_linker_0, # of connection points: 4
#     Node 33, Type 1, BuildingBlock: MUDLON_clean_linker_0, # of connection points: 4
#     Node 34, Type 1, BuildingBlock: MUDLON_clean_linker_0, # of connection points: 4
#     Node 35, Type 1, BuildingBlock: MUDLON_clean_linker_0, # of connection points: 4
#     Edge 36, Type (0, 1), None
#     Edge 37, Type (0, 1), None
#     Edge 38, Type (0, 1), None
#     Edge 39, Type (0, 1), None
#     Edge 40, Type (0, 1), None
#     Edge 41, Type (0, 1), None
#     Edge 42, Type (0, 1), None
#     Edge 43, Type (0, 1), None
#     Edge 44, Type (0, 1), None
#     Edge 45, Type (0, 1), None
#     Edge 46, Type (0, 1), None
#     Edge 47, Type (0, 1), None
#     Edge 48, Type (0, 1), None
#     Edge 49, Type (0, 1), None
#     Edge 50, Type (0, 1), None
#     Edge 51, Type (0, 1), None
#     Edge 52, Type (0, 1), None
#     Edge 53, Type (0, 1), None
#     Edge 54, Type (0, 1), None
#     Edge 55, Type (0, 1), None
#     Edge 56, Type (0, 1), None
#     Edge 57, Type (0, 1), None
#     Edge 58, Type (0, 1), None
#     Edge 59, Type (0, 1), None
#     Edge 60, Type (0, 1), None
#     Edge 61, Type (0, 1), None
#     Edge 62, Type (0, 1), None
#     Edge 63, Type (0, 1), None
#     Edge 64, Type (0, 1), None
#     Edge 65, Type (0, 1), None
#     Edge 66, Type (0, 1), None
#     Edge 67, Type (0, 1), None
#     Edge 68, Type (0, 1), None
#     Edge 69, Type (0, 1), None
#     Edge 70, Type (0, 1), None
#     Edge 71, Type (0, 1), None
#     Edge 72, Type (0, 1), None
#     Edge 73, Type (0, 1), None
#     Edge 74, Type (0, 1), None
#     Edge 75, Type (0, 1), None
#     Edge 76, Type (0, 1), None
#     Edge 77, Type (0, 1), None
#     Edge 78, Type (0, 1), None
#     Edge 79, Type (0, 1), None
#     Edge 80, Type (0, 1), None
#     Edge 81, Type (0, 1), None
#     Edge 82, Type (0, 1), None
#     Edge 83, Type (0, 1), None
#     Edge 84, Type (0, 1), None
#     Edge 85, Type (0, 1), None
#     Edge 86, Type (0, 1), None
#     Edge 87, Type (0, 1), None
#     Edge 88, Type (0, 1), None
#     Edge 89, Type (0, 1), None
#     Edge 90, Type (0, 1), None
#     Edge 91, Type (0, 1), None
#     Edge 92, Type (0, 1), None
#     Edge 93, Type (0, 1), None
#     Edge 94, Type (0, 1), None
#     Edge 95, Type (0, 1), None
#     Edge 96, Type (0, 1), None
#     Edge 97, Type (0, 1), None
#     Edge 98, Type (0, 1), None
#     Edge 99, Type (0, 1), None
#     Edge 100, Type (0, 1), None
#     Edge 101, Type (0, 1), None
#     Edge 102, Type (0, 1), None
#     Edge 103, Type (0, 1), None
#     Edge 104, Type (0, 1), None
#     Edge 105, Type (0, 1), None
#     Edge 106, Type (0, 1), None
#     Edge 107, Type (0, 1), None
# Relax obj value: 0.047
# Max RMSD: 0.098
# Mean RMSD: 0.085
data_MOF--net-ptr--node1-GALJAG_clean_sbu_0--node2-MUDLON_clean_linker_0--edge1-none
_symmetry_space_group_name_H-M    P1
_symmetry_Int_Tables_number       1
_symmetry_cell_setting            triclinic
loop_
_symmetry_equiv_pos_as_xyz
'x, y, z'
_cell_length_a     61.530255
_cell_length_b     61.59785
_cell_length_c     37.85774
_cell_angle_alpha  89.950536
_cell_angle_beta   90.054095
_cell_angle_gamma 120.13073
loop_
_atom_site_label
_atom_site_type_symbol
_atom_site_fract_x
_atom_site_fract_y
_atom_site_fract_z
_atom_type_partial_charge
In0 In 0.01788 0.36158 0.02624 0.0
O1 O 0.98889 0.36081 0.06531 0.0
O2 O 0.02661 0.39111 0.06806 0.0
C3 C 0.99085 0.32057 0.98614 0.0
C4 C 0.04444 0.3472 0.06669 0.0
C5 C 0.03102 0.39462 0.97225 0.0
O6 O 0.98079 0.33136 1.00207 0.0
O7 O 0.01414 0.33004 0.99123 0.0
O8 O 0.04601 0.38812 0.9847 0.0
O9 O 0.01019 0.38527 0.98794 0.0
C10 C 0.00474 0.38078 0.0808 0.0
O11 O 0.05485 0.36798 0.05037 0.0
O12 O 0.02105 0.33373 0.06182 0.0
In13 In 0.67183 0.66908 0.02592 0.0
O14 O 0.67081 0.63872 0.06241 0.0
O15 O 0.64207 0.64817 0.06748 0.0
C16 C 0.71251 0.68551 0.98411 0.0
C17 C 0.68814 0.70972 0.06776 0.0
C18 C 0.63805 0.64814 0.97311 0.0
O19 O 0.70496 0.66622 1.00342 0.0
O20 O 0.69986 0.69646 0.98667 0.0
O21 O 0.64139 0.66767 0.98904 0.0
O22 O 0.65107 0.6391 0.98465 0.0
C23 C 0.6513 0.63522 0.07862 0.0
O24 O 0.66862 0.70193 0.04881 0.0
O25 O 0.69932 0.69734 0.06482 0.0
In26 In 0.36092 0.01221 0.02928 0.0
O27 O 0.36553 0.04883 1.00622 0.0
O28 O 0.33392 0.01395 0.99051 0.0
C29 C 0.39457 0.02586 0.08253 0.0
C30 C 0.38078 0.99892 0.97569 0.0
C31 C 0.31974 0.98605 0.06987 0.0
O32 O 0.38834 0.0409 0.06955 0.0
O33 O 0.38456 0.00467 0.06781 0.0
O34 O 0.33006 0.97549 0.054 0.0
O35 O 0.32982 0.00935 0.06457 0.0
C36 C 0.34585 0.03757 0.98744 0.0
O37 O 0.361 0.98304 0.99154 0.0
O38 O 0.39062 0.021 0.98755 0.0
In39 In 0.01526 0.66655 0.03061 0.0
O40 O 0.04435 0.66612 0.99275 0.0
O41 O 0.00612 0.63702 0.9888 0.0
C42 C 0.04 0.70729 0.07221 0.0
C43 C 0.98946 0.68158 0.98954 0.0
C44 C 0.0021 0.63276 0.08351 0.0
O45 O 0.05168 0.69956 0.05311 0.0
O46 O 0.01636 0.69474 0.06959 0.0
O47 O 0.98671 0.63835 0.07 0.0
O48 O 0.02361 0.64359 0.06955 0.0
C49 C 0.02815 0.64651 0.97685 0.0
O50 O 0.97869 0.66087 1.00597 0.0
O51 O 0.01288 0.69468 0.99449 0.0
In52 In 0.36369 0.36045 0.02695 0.0
O53 O 0.36212 0.38763 0.98674 0.0
O54 O 0.39456 0.38371 0.98771 0.0
C55 C 0.32295 0.34494 0.06841 0.0
C56 C 0.34941 0.31952 0.98633 0.0
C57 C 0.39688 0.38056 0.08065 0.0
O58 O 0.33141 0.36474 0.04995 0.0
O59 O 0.33476 0.3332 0.06522 0.0
O60 O 0.39146 0.35975 0.06673 0.0
O61 O 0.3862 0.39137 0.06668 0.0
C62 C 0.38327 0.39372 0.97327 0.0
O63 O 0.37042 0.33032 1.00204 0.0
O64 O 0.33573 0.32905 0.99175 0.0
In65 In 0.66478 0.00827 0.02201 0.0
O66 O 0.65938 0.03107 0.0659 0.0
O67 O 0.63195 0.99247 0.05961 0.0
C68 C 0.70466 0.04217 0.98473 0.0
C69 C 0.6834 0.98404 0.05964 0.0
C70 C 0.63286 0.99463 0.96657 0.0
O71 O 0.69269 0.04862 1.00539 0.0
O72 O 0.69697 0.01892 0.98403 0.0
O73 O 0.64158 0.98107 0.97748 0.0
O74 O 0.63965 0.01434 0.98428 0.0
C75 C 0.63923 0.01239 0.07699 0.0
O76 O 0.663 0.97237 0.0426 0.0
O77 O 0.69468 0.00762 0.05655 0.0
In78 In 0.68333 0.69119 0.35792 0.0
O79 O 0.65383 0.69143 0.39525 0.0
O80 O 0.69212 0.72013 0.40034 0.0
C81 C 0.65905 0.65063 0.31604 0.0
C82 C 0.70889 0.67592 0.39904 0.0
C83 C 0.69645 0.72523 0.30537 0.0
O84 O 0.64723 0.65801 0.33544 0.0
O85 O 0.68271 0.66341 0.31852 0.0
O86 O 0.7124 0.72121 0.32068 0.0
O87 O 0.6744 0.7127 0.31732 0.0
C88 C 0.66999 0.71067 0.41184 0.0
O89 O 0.71979 0.69656 0.38243 0.0
O90 O 0.68548 0.66291 0.39403 0.0
In91 In 0.33313 0.99944 0.36281 0.0
O92 O 0.33352 0.97135 0.40216 0.0
O93 O 0.30227 0.97725 0.4028 0.0
C94 C 0.37368 0.01312 0.32165 0.0
C95 C 0.34976 0.04014 0.40453 0.0
C96 C 0.29966 0.98002 0.30932 0.0
O97 O 0.36256 0.99207 0.33715 0.0
O98 O 0.36471 0.02723 0.32756 0.0
O99 O 0.30594 1.00124 0.32268 0.0
O100 O 0.30953 0.96864 0.32383 0.0
C101 C 0.31285 0.96621 0.41635 0.0
O102 O 0.3299 0.03218 0.38626 0.0
O103 O 0.36098 0.02782 0.40103 0.0
In104 In 0.03015 0.34647 0.36005 0.0
O105 O 0.03403 0.38303 0.3377 0.0
O106 O 0.00302 0.34793 0.3214 0.0
C107 C 0.06325 0.35958 0.41387 0.0
C108 C 0.05094 0.33436 0.30635 0.0
C109 C 0.98897 0.31974 0.40033 0.0
O110 O 0.05759 0.37494 0.40039 0.0
O111 O 0.05285 0.33826 0.39943 0.0
O112 O 0.99949 0.30944 0.3843 0.0
O113 O 0.99893 0.34308 0.39544 0.0
C114 C 0.01444 0.37156 0.31878 0.0
O115 O 0.0301 0.31855 0.31994 0.0
O116 O 0.06142 0.35576 0.32063 0.0
In117 In 0.68607 0.99868 0.35573 0.0
O118 O 0.71382 0.00276 0.31201 0.0
O119 O 0.67999 0.96772 0.31763 0.0
C120 C 0.7094 0.04133 0.39408 0.0
C121 C 0.65253 0.00506 0.31803 0.0
C122 C 0.68075 0.96834 0.41053 0.0
O123 O 0.72162 0.03406 0.3754 0.0
O124 O 0.68583 0.02758 0.3923 0.0
O125 O 0.66245 0.97003 0.39851 0.0
O126 O 0.70116 0.9812 0.39414 0.0
C127 C 0.70002 0.98065 0.30049 0.0
O128 O 0.64589 0.98631 0.33814 0.0
O129 O 0.67582 0.02071 0.31795 0.0
In130 In 0.0268 0.69098 0.36324 0.0
O131 O 0.0268 0.72029 0.32531 0.0
O132 O 0.05667 0.7124 0.32211 0.0
C133 C 0.98594 0.67445 0.4047 0.0
C134 C 0.01224 0.6501 0.32254 0.0
C135 C 0.06001 0.71167 0.41675 0.0
O136 O 0.9935 0.69376 0.38539 0.0
O137 O 0.99862 0.66354 0.40222 0.0
O138 O 0.0565 0.692 0.40114 0.0
O139 O 0.04747 0.72107 0.40456 0.0
C140 C 0.04678 0.72444 0.30985 0.0
O141 O 0.03283 0.66024 0.33932 0.0
O142 O 0.99896 0.6602 0.32704 0.0
In143 In 0.3375 0.3461 0.36079 0.0
O144 O 0.33178 0.30917 0.38384 0.0
O145 O 0.36522 0.34324 0.39722 0.0
C146 C 0.30473 0.33358 0.30663 0.0
C147 C 0.31717 0.35868 0.41464 0.0
C148 C 0.37871 0.37244 0.32061 0.0
O149 O 0.30869 0.3175 0.32163 0.0
O150 O 0.3166 0.3553 0.3197 0.0
O151 O 0.36894 0.38302 0.3378 0.0
O152 O 0.36811 0.34893 0.32451 0.0
C153 C 0.35219 0.31973 0.40108 0.0
O154 O 0.3374 0.37471 0.39986 0.0
O155 O 0.30719 0.33697 0.40155 0.0
In156 In 0.34908 0.02482 0.6963 0.0
O157 O 0.38498 0.02713 0.71844 0.0
O158 O 0.34933 0.99724 0.73535 0.0
C159 C 0.3625 0.05799 0.64261 0.0
C160 C 0.33711 0.04607 0.74949 0.0
C161 C 0.32237 0.98392 0.65574 0.0
O162 O 0.37842 0.054 0.65814 0.0
O163 O 0.34056 0.04597 0.65497 0.0
O164 O 0.31201 0.99395 0.67286 0.0
O165 O 0.34585 0.99415 0.65984 0.0
C166 C 0.37297 0.00785 0.73776 0.0
O167 O 0.32069 0.02638 0.73405 0.0
O168 O 0.35906 0.05518 0.73733 0.0
In169 In 1.00184 0.33253 0.69229 0.0
O170 O 0.99507 0.36283 0.71665 0.0
O171 O 0.02966 0.364 0.72747 0.0
C172 C 0.96879 0.3128 0.63822 0.0
C173 C 0.98227 0.29976 0.74655 0.0
C174 C 0.0429 0.34652 0.65206 0.0
O175 O 0.9751 0.33411 0.65121 0.0
O176 O 0.97856 0.30147 0.65319 0.0
O177 O 0.03213 0.32568 0.66819 0.0
O178 O 0.03324 0.36015 0.65686 0.0
C179 C 0.01601 0.37361 0.73258 0.0
O180 O 0.0036 0.30605 0.73358 0.0
O181 O 0.97084 0.30934 0.7314 0.0
In182 In 0.69476 0.6786 0.69283 0.0
O183 O 0.69846 0.71487 0.66991 0.0
O184 O 0.66748 0.6797 0.65392 0.0
C185 C 0.72834 0.69207 0.74594 0.0
C186 C 0.71507 0.66499 0.64015 0.0
C187 C 0.65419 0.65427 0.73495 0.0
O188 O 0.72514 0.70807 0.72919 0.0
O189 O 0.71523 0.66978 0.73511 0.0
O190 O 0.66233 0.64255 0.71681 0.0
O191 O 0.66623 0.67782 0.73111 0.0
C192 C 0.6789 0.7033 0.651 0.0
O193 O 0.69421 0.64962 0.65413 0.0
O194 O 0.72581 0.68662 0.65366 0.0
In195 In 0.34969 0.33253 0.69378 0.0
O196 O 0.37809 0.3331 0.65404 0.0
O197 O 0.34105 0.30148 0.6543 0.0
C198 C 0.37622 0.3736 0.73434 0.0
C199 C 0.32433 0.34782 0.65222 0.0
C200 C 0.33631 0.29937 0.74752 0.0
O201 O 0.3866 0.36308 0.71851 0.0
O202 O 0.3529 0.36372 0.72907 0.0
O203 O 0.32103 0.30513 0.73398 0.0
O204 O 0.35767 0.30968 0.73316 0.0
C205 C 0.36256 0.31222 0.64031 0.0
O206 O 0.31299 0.32813 0.6709 0.0
O207 O 0.34796 0.35957 0.65521 0.0
In208 In 0.69317 0.02886 0.68863 0.0
O209 O 0.69082 0.05418 0.64581 0.0
O210 O 0.72354 0.05073 0.64822 0.0
C211 C 0.65036 0.01036 0.72624 0.0
C212 C 0.68553 0.98837 0.65177 0.0
C213 C 0.72346 0.05489 0.74304 0.0
O214 O 0.65867 0.03031 0.70825 0.0
O215 O 0.66307 0.99949 0.72414 0.0
O216 O 0.72166 0.03455 0.73246 0.0
O217 O 0.71092 0.06214 0.72537 0.0
C218 C 0.71197 0.05999 0.63259 0.0
O219 O 0.70428 1.00008 0.67212 0.0
O220 O 0.67043 0.99665 0.65114 0.0
In221 In 1.00182 0.67875 0.6974 0.0
O222 O 0.99783 0.6423 0.72047 0.0
O223 O 0.02913 0.67739 0.73593 0.0
C224 C 0.96862 0.66576 0.64385 0.0
C225 C 0.98172 0.69259 0.75006 0.0
C226 C 0.0425 0.70343 0.6556 0.0
O227 O 0.97167 0.64959 0.66038 0.0
O228 O 0.9816 0.68792 0.65519 0.0
O229 O 0.03428 0.71498 0.67395 0.0
O230 O 0.03051 0.67985 0.6591 0.0
C231 C 0.01755 0.65381 0.73908 0.0
O232 O 0.00264 0.70779 0.73613 0.0
O233 O 0.97078 0.67096 0.73653 0.0
H234 H 0.28236 0.35939 0.20494 0.0
N235 N 0.2488 0.31346 0.17758 0.0
H236 H 0.30542 0.36751 0.26022 0.0
H237 H 0.24516 0.27983 0.22508 0.0
H238 H 0.26921 0.28781 0.28025 0.0
H239 H 0.26539 0.28623 0.14624 0.0
H240 H 0.29705 0.29931 0.09976 0.0
H241 H 0.26969 0.35816 0.14141 0.0
H242 H 0.30138 0.37144 0.0944 0.0
H243 H 0.24256 0.35316 0.19689 0.0
H244 H 0.20472 0.27881 0.15211 0.0
H245 H 0.20358 0.35408 0.19582 0.0
H246 H 0.1657 0.28007 0.14893 0.0
H247 H 0.11056 0.35867 0.21711 0.0
H248 H 0.09492 0.366 0.27258 0.0
H249 H 0.03062 0.29102 0.26767 0.0
H250 H 0.04649 0.28395 0.21195 0.0
H251 H 0.05218 0.28712 0.13042 0.0
H252 H 0.0334 0.29986 0.08342 0.0
H253 H 0.08479 0.37767 0.10791 0.0
H254 H 0.10245 0.36488 0.15604 0.0
H255 H 0.1342 0.35712 0.1638 0.0
H256 H 0.17354 0.35691 0.16115 0.0
H257 H 0.13376 0.27755 0.1853 0.0
N258 N 0.08719 0.31645 0.17639 0.0
H259 H 0.0942 0.27779 0.1859 0.0
C260 C 0.26153 0.31894 0.21121 0.0
C261 C 0.27874 0.34365 0.22158 0.0
C262 C 0.29208 0.34826 0.25318 0.0
C263 C 0.28904 0.32827 0.27464 0.0
C264 C 0.27187 0.30357 0.26429 0.0
C265 C 0.2581 0.299 0.23295 0.0
C266 C 0.26515 0.32108 0.14724 0.0
C267 C 0.27288 0.3047 0.13463 0.0
C268 C 0.29102 0.31227 0.10817 0.0
C269 C 0.30178 0.33646 0.09353 0.0
C270 C 0.29334 0.35265 0.10511 0.0
C271 C 0.27525 0.34509 0.13198 0.0
C272 C 0.22652 0.31559 0.17517 0.0
C273 C 0.22595 0.33703 0.18659 0.0
C274 C 0.20352 0.33765 0.18557 0.0
C275 C 0.18124 0.31705 0.17256 0.0
C276 C 0.18221 0.29605 0.15997 0.0
C277 C 0.20456 0.29534 0.16144 0.0
C278 C 0.07958 0.32074 0.2104 0.0
C279 C 0.09324 0.34377 0.22809 0.0
C280 C 0.08427 0.34788 0.25987 0.0
C281 C 0.06149 0.32908 0.2745 0.0
C282 C 0.04824 0.30585 0.25716 0.0
C283 C 0.05723 0.30178 0.22538 0.0
C284 C 0.07903 0.3249 0.14633 0.0
C285 C 0.05966 0.30691 0.12522 0.0
C286 C 0.04897 0.31421 0.09849 0.0
C287 C 0.05786 0.33975 0.09188 0.0
C288 C 0.07793 0.35787 0.11206 0.0
C289 C 0.08816 0.35053 0.1395 0.0
C290 C 0.11101 0.31727 0.17452 0.0
C291 C 0.13376 0.33959 0.16803 0.0
C292 C 0.15646 0.33949 0.16693 0.0
C293 C 0.15702 0.31719 0.17288 0.0
C294 C 0.13417 0.295 0.17976 0.0
C295 C 0.1115 0.29509 0.18041 0.0
H296 H 0.7521 0.78568 0.22643 0.0
N297 N 0.71955 0.78317 0.1779 0.0
H298 H 0.74282 0.7608 0.28093 0.0
H299 H 0.67286 0.75032 0.20399 0.0
H300 H 0.66345 0.72634 0.25864 0.0
H301 H 0.67552 0.76357 0.14015 0.0
H302 H 0.66233 0.73225 0.09275 0.0
H303 H 0.74636 0.76555 0.14781 0.0
H304 H 0.73331 0.73417 0.10094 0.0
H305 H 0.75564 0.82709 0.15408 0.0
H306 H 0.68009 0.7904 0.19491 0.0
H307 H 0.75529 0.86652 0.14953 0.0
H308 H 0.67995 0.82973 0.19224 0.0
H309 H 0.7492 0.98895 0.20227 0.0
H310 H 0.74174 0.00427 0.25827 0.0
H311 H 0.67069 0.93531 0.26877 0.0
H312 H 0.67823 0.92037 0.21293 0.0
H313 H 0.66966 0.93 0.15265 0.0
H314 H 0.65488 0.94538 0.10405 0.0
H315 H 0.7316 0.99613 0.07326 0.0
H316 H 0.74634 0.97925 0.1205 0.0
H317 H 0.75706 0.93861 0.18296 0.0
H318 H 0.75702 0.89892 0.18458 0.0
H319 H 0.67857 0.85949 0.15481 0.0
N320 N 0.71888 0.94588 0.16959 0.0
H321 H 0.67853 0.89882 0.15502 0.0
C322 C 0.71326 0.77027 0.21144 0.0
C323 C 0.73272 0.773 0.23369 0.0
C324 C 0.7274 0.75874 0.26466 0.0
C325 C 0.70242 0.74173 0.27412 0.0
C326 C 0.6829 0.73951 0.25227 0.0
C327 C 0.68825 0.75338 0.22104 0.0
C328 C 0.71206 0.76696 0.14742 0.0
C329 C 0.68839 0.75759 0.13127 0.0
C330 C 0.68088 0.7397 0.10417 0.0
C331 C 0.69675 0.73069 0.09323 0.0
C332 C 0.72061 0.74067 0.10881 0.0
C333 C 0.72816 0.75864 0.1355 0.0
C334 C 0.71814 0.80581 0.17519 0.0
C335 C 0.73904 0.8276 0.16228 0.0
C336 C 0.73884 0.85016 0.15999 0.0
C337 C 0.71766 0.85152 0.17083 0.0
C338 C 0.69651 0.82947 0.18327 0.0
C339 C 0.69666 0.80684 0.1852 0.0
C340 C 0.71438 0.95357 0.20347 0.0
C341 C 0.73214 0.97713 0.21692 0.0
C342 C 0.72786 0.98581 0.24886 0.0
C343 C 0.70567 0.97099 0.268 0.0
C344 C 0.68805 0.94716 0.25475 0.0
C345 C 0.69229 0.93857 0.22274 0.0
C346 C 0.70923 0.95292 0.13961 0.0
C347 C 0.68333 0.94352 0.13456 0.0
C348 C 0.67486 0.95244 0.10684 0.0
C349 C 0.69212 0.97168 0.0847 0.0
C350 C 0.71793 0.98106 0.08973 0.0
C351 C 0.72634 0.97149 0.11663 0.0
C352 C 0.71802 0.922 0.16852 0.0
C353 C 0.73991 0.92136 0.17666 0.0
C354 C 0.73985 0.89863 0.17734 0.0
C355 C 0.7178 0.87584 0.16965 0.0
C356 C 0.69584 0.87653 0.16133 0.0
C357 C 0.69588 0.89928 0.16103 0.0
H358 H 0.09532 0.74861 0.20843 0.0
N359 N 0.08187 0.78139 0.18151 0.0
H360 H 0.08065 0.72509 0.26335 0.0
H361 H 0.05148 0.78401 0.22932 0.0
H362 H 0.03571 0.75951 0.28418 0.0
H363 H 0.03762 0.76374 0.15059 0.0
H364 H 0.01938 0.73206 0.10408 0.0
H365 H 0.10648 0.76166 0.14476 0.0
H366 H 0.08841 0.73001 0.09769 0.0
H367 H 0.12845 0.78857 0.19964 0.0
H368 H 0.09019 0.82532 0.15729 0.0
H369 H 0.16807 0.82799 0.19819 0.0
H370 H 0.13016 0.86482 0.1539 0.0
H371 H 0.26215 0.92007 0.22112 0.0
H372 H 0.28499 0.9353 0.27674 0.0
H373 H 0.27884 0.00202 0.26921 0.0
H374 H 0.25589 0.98649 0.21326 0.0
H375 H 0.2509 0.97837 0.13086 0.0
H376 H 0.28275 0.99656 0.08413 0.0
H377 H 0.31028 0.94697 0.1134 0.0
H378 H 0.27956 0.93 0.16132 0.0
H379 H 0.23948 0.89806 0.16445 0.0
H380 H 0.20013 0.85843 0.16244 0.0
H381 H 0.15997 0.89685 0.1903 0.0
N382 N 0.24546 0.94467 0.17892 0.0
H383 H 0.19957 0.93676 0.19043 0.0
C384 C 0.07493 0.76857 0.2151 0.0
C385 C 0.08295 0.75175 0.22518 0.0
C386 C 0.07436 0.73814 0.25658 0.0
C387 C 0.05706 0.74051 0.27815 0.0
C388 C 0.04907 0.75736 0.26814 0.0
C389 C 0.05811 0.77138 0.23697 0.0
C390 C 0.07331 0.76511 0.1511 0.0
C391 C 0.04894 0.75674 0.13875 0.0
C392 C 0.03856 0.7386 0.11227 0.0
C393 C 0.05245 0.72848 0.09733 0.0
C394 C 0.07732 0.73756 0.10863 0.0
C395 C 0.08765 0.75564 0.13554 0.0
C396 C 0.10608 0.80401 0.17911 0.0
C397 C 0.12849 0.80504 0.18982 0.0
C398 C 0.15136 0.82772 0.18859 0.0
C399 C 0.15246 0.84982 0.17616 0.0
C400 C 0.13008 0.84843 0.16442 0.0
C401 C 0.10721 0.82582 0.16604 0.0
C402 C 0.25735 0.95222 0.21303 0.0
C403 C 0.26549 0.93783 0.23153 0.0
C404 C 0.27852 0.94658 0.26342 0.0
C405 C 0.28373 0.9699 0.27739 0.0
C406 C 0.27504 0.98397 0.25923 0.0
C407 C 0.26199 0.97517 0.22732 0.0
C408 C 0.26238 0.95248 0.14916 0.0
C409 C 0.26354 0.97115 0.12678 0.0
C410 C 0.28171 0.98151 0.10021 0.0
C411 C 0.29874 0.97293 0.09498 0.0
C412 C 0.29703 0.95355 0.11647 0.0
C413 C 0.27932 0.94372 0.14379 0.0
C414 C 0.22254 0.92067 0.17712 0.0
C415 C 0.22232 0.89818 0.16967 0.0
C416 C 0.19963 0.87529 0.16892 0.0
C417 C 0.17668 0.87426 0.17611 0.0
C418 C 0.17709 0.89682 0.18385 0.0
C419 C 0.19974 0.91969 0.1842 0.0
H420 H 0.3593 0.26258 0.83612 0.0
N421 N 0.31761 0.24516 0.87774 0.0
H422 H 0.36692 0.28554 0.78057 0.0
H423 H 0.28578 0.25465 0.8428 0.0
H424 H 0.29317 0.27765 0.78696 0.0
H425 H 0.2888 0.25043 0.92491 0.0
H426 H 0.30198 0.28233 0.97142 0.0
H427 H 0.36631 0.27935 0.89619 0.0
H428 H 0.37959 0.3102 0.94383 0.0
H429 H 0.35835 0.23938 0.89246 0.0
H430 H 0.27948 0.19926 0.86666 0.0
H431 H 0.35849 0.20006 0.8955 0.0
H432 H 0.27966 0.15971 0.86772 0.0
H433 H 0.36231 0.09419 0.85134 0.0
H434 H 0.37087 0.07942 0.79627 0.0
H435 H 0.29127 0.03622 0.77461 0.0
H436 H 0.28287 0.052 0.82956 0.0
H437 H 0.28827 0.0372 0.90813 0.0
H438 H 0.30062 0.01806 0.95474 0.0
H439 H 0.37286 0.08593 0.96235 0.0
H440 H 0.36033 0.10489 0.91522 0.0
H441 H 0.3561 0.12779 0.86028 0.0
H442 H 0.35673 0.16755 0.86106 0.0
H443 H 0.28167 0.1303 0.9048 0.0
N444 N 0.31609 0.08146 0.87787 0.0
H445 H 0.28077 0.09022 0.90193 0.0
C446 C 0.32194 0.25696 0.84359 0.0
C447 C 0.3447 0.26557 0.82544 0.0
C448 C 0.34898 0.27867 0.79362 0.0
C449 C 0.33063 0.28344 0.77938 0.0
C450 C 0.30763 0.27422 0.79717 0.0
C451 C 0.30339 0.26113 0.829 0.0
C452 C 0.32643 0.26206 0.90749 0.0
C453 C 0.30865 0.26315 0.92933 0.0
C454 C 0.3162 0.28136 0.95576 0.0
C455 C 0.34181 0.29852 0.96136 0.0
C456 C 0.35976 0.29688 0.94045 0.0
C457 C 0.35214 0.27909 0.91329 0.0
C458 C 0.31868 0.22231 0.87984 0.0
C459 C 0.34099 0.22217 0.88748 0.0
C460 C 0.34111 0.19951 0.88883 0.0
C461 C 0.31906 0.17651 0.88202 0.0
C462 C 0.2969 0.17687 0.87396 0.0
C463 C 0.29675 0.19948 0.87304 0.0
C464 C 0.32189 0.07456 0.84426 0.0
C465 C 0.34671 0.08215 0.83437 0.0
C466 C 0.35157 0.07354 0.80289 0.0
C467 C 0.33172 0.05669 0.78108 0.0
C468 C 0.30693 0.04923 0.79085 0.0
C469 C 0.30211 0.05826 0.82208 0.0
C470 C 0.32324 0.07237 0.90828 0.0
C471 C 0.3066 0.04806 0.92028 0.0
C472 C 0.31375 0.03717 0.9468 0.0
C473 C 0.33776 0.05047 0.96213 0.0
C474 C 0.3542 0.07528 0.95112 0.0
C475 C 0.34706 0.08612 0.92419 0.0
C476 C 0.31809 0.10578 0.88048 0.0
C477 C 0.33971 0.12803 0.86987 0.0
C478 C 0.34014 0.15097 0.8707 0.0
C479 C 0.31916 0.15228 0.88268 0.0
C480 C 0.29797 0.13006 0.89454 0.0
C481 C 0.29746 0.10713 0.89327 0.0
H482 H 0.74034 0.11285 0.83202 0.0
N483 N 0.769 0.10311 0.87372 0.0
H484 H 0.72116 0.09277 0.77592 0.0
H485 H 0.77612 0.06827 0.83945 0.0
H486 H 0.75621 0.04721 0.78356 0.0
H487 H 0.76622 0.06085 0.90043 0.0
H488 H 0.73839 0.0347 0.9479 0.0
H489 H 0.74224 0.1148 0.91691 0.0
H490 H 0.71474 0.08908 0.96528 0.0
H491 H 0.78561 0.15127 0.86146 0.0
H492 H 0.80991 0.09919 0.8901 0.0
H493 H 0.82899 0.18581 0.86283 0.0
H494 H 0.85359 0.13383 0.89329 0.0
H495 H 0.922 0.26271 0.83439 0.0
H496 H 0.93741 0.28524 0.77868 0.0
H497 H 0.00422 0.27923 0.78734 0.0
H498 H 0.98852 0.25653 0.8434 0.0
H499 H 0.97737 0.24843 0.92838 0.0
H500 H 0.99677 0.28023 0.97511 0.0
H501 H 0.95556 0.31558 0.9387 0.0
H502 H 0.93768 0.28506 0.89078 0.0
H503 H 0.90373 0.24605 0.90059 0.0
H504 H 0.8616 0.21063 0.90197 0.0
H505 H 0.88821 0.16338 0.85831 0.0
N506 N 0.94659 0.24628 0.87745 0.0
H507 H 0.93119 0.19916 0.85871 0.0
C508 C 0.75927 0.0918 0.83993 0.0
C509 C 0.74408 0.09874 0.82132 0.0
C510 C 0.73321 0.08725 0.78929 0.0
C511 C 0.73709 0.06829 0.77539 0.0
C512 C 0.75282 0.06167 0.79371 0.0
C513 C 0.76406 0.07356 0.82567 0.0
C514 C 0.75596 0.08956 0.90494 0.0
C515 C 0.75529 0.06727 0.9147 0.0
C516 C 0.73941 0.05239 0.9419 0.0
C517 C 0.72427 0.05979 0.96013 0.0
C518 C 0.72623 0.08294 0.95179 0.0
C519 C 0.74186 0.09761 0.92422 0.0
C520 C 0.79468 0.1229 0.87597 0.0
C521 C 0.80043 0.14745 0.86848 0.0
C522 C 0.82524 0.16715 0.86957 0.0
C523 C 0.8449 0.16275 0.87858 0.0
C524 C 0.83901 0.13793 0.88598 0.0
C525 C 0.81407 0.11813 0.8845 0.0
C526 C 0.95416 0.2579 0.8431 0.0
C527 C 0.93981 0.26596 0.8242 0.0
C528 C 0.94867 0.27884 0.79227 0.0
C529 C 0.97207 0.28404 0.77861 0.0
C530 C 0.9861 0.27545 0.7971 0.0
C531 C 0.9772 0.26252 0.82907 0.0
C532 C 0.95567 0.2639 0.90648 0.0
C533 C 0.97231 0.26286 0.93078 0.0
C534 C 0.98331 0.28095 0.95738 0.0
C535 C 0.97725 0.29999 0.96073 0.0
C536 C 0.96006 0.30071 0.9371 0.0
C537 C 0.94979 0.28319 0.90972 0.0
C538 C 0.92108 0.22544 0.87975 0.0
C539 C 0.90095 0.22823 0.89168 0.0
C540 C 0.8765 0.20777 0.89211 0.0
C541 C 0.87131 0.18406 0.87998 0.0
C542 C 0.89145 0.18123 0.8683 0.0
C543 C 0.91602 0.20169 0.86828 0.0
H544 H 0.78936 0.74831 0.82383 0.0
N545 N 0.78595 0.71636 0.87396 0.0
H546 H 0.76466 0.73853 0.76903 0.0
H547 H 0.75207 0.66953 0.84949 0.0
H548 H 0.72823 0.65961 0.79467 0.0
H549 H 0.76688 0.67291 0.91289 0.0
H550 H 0.73559 0.66 0.96027 0.0
H551 H 0.76778 0.74304 0.90289 0.0
H552 H 0.73637 0.73023 0.94976 0.0
H553 H 0.82996 0.75159 0.89889 0.0
H554 H 0.79255 0.6766 0.85624 0.0
H555 H 0.86905 0.75052 0.90342 0.0
H556 H 0.83156 0.6758 0.85881 0.0
H557 H 0.98842 0.74453 0.84365 0.0
H558 H 0.00341 0.73632 0.78794 0.0
H559 H 0.9375 0.66237 0.78419 0.0
H560 H 0.92273 0.67081 0.8396 0.0
H561 H 0.93173 0.66463 0.90006 0.0
H562 H 0.94909 0.65151 0.94814 0.0
H563 H 1.00118 0.72914 0.9727 0.0
H564 H 0.98265 0.74224 0.92577 0.0
H565 H 0.94072 0.75187 0.86844 0.0
H566 H 0.90125 0.75233 0.86795 0.0
H567 H 0.86117 0.67355 0.8955 0.0
N568 N 0.94746 0.71321 0.87978 0.0
H569 H 0.90038 0.67307 0.89409 0.0
C570 C 0.77293 0.70972 0.84049 0.0
C571 C 0.77625 0.72891 0.81726 0.0
C572 C 0.76211 0.72331 0.78611 0.0
C573 C 0.74462 0.69831 0.77749 0.0
C574 C 0.74176 0.67905 0.80038 0.0
C575 C 0.75552 0.68469 0.83174 0.0
C576 C 0.76974 0.70908 0.90444 0.0
C577 C 0.76068 0.6857 0.92126 0.0
C578 C 0.74279 0.67834 0.94834 0.0
C579 C 0.73347 0.69407 0.95863 0.0
C580 C 0.74313 0.71766 0.94239 0.0
C581 C 0.7611 0.72506 0.9157 0.0
C582 C 0.80835 0.71446 0.87681 0.0
C583 C 0.83023 0.73497 0.8903 0.0
C584 C 0.8526 0.73435 0.89258 0.0
C585 C 0.85367 0.71316 0.88113 0.0
C586 C 0.83151 0.69237 0.86824 0.0
C587 C 0.80907 0.69292 0.86635 0.0
C588 C 0.9546 0.70832 0.84579 0.0
C589 C 0.97714 0.72669 0.83047 0.0
C590 C 0.98563 0.72198 0.79869 0.0
C591 C 0.97166 0.69869 0.78169 0.0
C592 C 0.94869 0.68051 0.79663 0.0
C593 C 0.94023 0.68526 0.8284 0.0
C594 C 0.95546 0.70457 0.90984 0.0
C595 C 0.9461 0.67889 0.9166 0.0
C596 C 0.95617 0.67136 0.94401 0.0
C597 C 0.97635 0.68932 0.96421 0.0
C598 C 0.98553 0.71491 0.95762 0.0
C599 C 0.97497 0.72241 0.93094 0.0
C600 C 0.92375 0.71264 0.88164 0.0
C601 C 0.92338 0.73476 0.87451 0.0
C602 C 0.90077 0.73498 0.8745 0.0
C603 C 0.87787 0.71299 0.88188 0.0
C604 C 0.87831 0.69079 0.88926 0.0
C605 C 0.90095 0.69056 0.88887 0.0
H606 H 0.7092 0.61334 0.54656 0.0
N607 N 0.75017 0.64496 0.51066 0.0
H608 H 0.69385 0.62127 0.60217 0.0
H609 H 0.77431 0.68745 0.55081 0.0
H610 H 0.75919 0.69561 0.6061 0.0
H611 H 0.76551 0.69342 0.49019 0.0
H612 H 0.7486 0.70624 0.4412 0.0
H613 H 0.71546 0.61567 0.46426 0.0
H614 H 0.6973 0.62847 0.4164 0.0
H615 H 0.75736 0.60656 0.52172 0.0
H616 H 0.79713 0.68552 0.49704 0.0
H617 H 0.79702 0.60648 0.52183 0.0
H618 H 0.83652 0.68543 0.49519 0.0
H619 H 0.9085 0.61049 0.56414 0.0
H620 H 0.93258 0.61958 0.61943 0.0
H621 H 0.96931 0.6988 0.59564 0.0
H622 H 0.94608 0.68956 0.54033 0.0
H623 H 0.93179 0.68693 0.47669 0.0
H624 H 0.96312 0.70007 0.42928 0.0
H625 H 0.96173 0.62946 0.43823 0.0
H626 H 0.93031 0.61644 0.48509 0.0
H627 H 0.86836 0.60785 0.4897 0.0
H628 H 0.82914 0.60871 0.48582 0.0
H629 H 0.8665 0.68325 0.53104 0.0
N630 N 0.91233 0.64307 0.51473 0.0
H631 H 0.90565 0.68267 0.5329 0.0
C632 C 0.74277 0.64976 0.54453 0.0
C633 C 0.72027 0.63122 0.55975 0.0
C634 C 0.71159 0.63576 0.59148 0.0
C635 C 0.72529 0.65906 0.60851 0.0
C636 C 0.7482 0.67744 0.59364 0.0
C637 C 0.75686 0.67285 0.56193 0.0
C638 C 0.74219 0.65344 0.48038 0.0
C639 C 0.75142 0.67907 0.47343 0.0
C640 C 0.74162 0.68643 0.44548 0.0
C641 C 0.72181 0.66833 0.4249 0.0
C642 C 0.7127 0.64279 0.43174 0.0
C643 C 0.72303 0.63546 0.45897 0.0
C644 C 0.77403 0.64584 0.50902 0.0
C645 C 0.77462 0.62379 0.51582 0.0
C646 C 0.79734 0.62379 0.51559 0.0
C647 C 0.82013 0.64593 0.50826 0.0
C648 C 0.81947 0.66807 0.50134 0.0
C649 C 0.79673 0.66809 0.50199 0.0
C650 C 0.92514 0.64927 0.54835 0.0
C651 C 0.92156 0.6298 0.5712 0.0
C652 C 0.93533 0.635 0.60264 0.0
C653 C 0.95271 0.6599 0.61194 0.0
C654 C 0.95586 0.67943 0.5894 0.0
C655 C 0.94245 0.67418 0.55775 0.0
C656 C 0.92865 0.65057 0.48434 0.0
C657 C 0.93788 0.67412 0.46797 0.0
C658 C 0.95577 0.68161 0.44086 0.0
C659 C 0.96492 0.66582 0.43012 0.0
C660 C 0.9551 0.64208 0.44594 0.0
C661 C 0.93712 0.63456 0.47263 0.0
C662 C 0.8899 0.64491 0.512 0.0
C663 C 0.86803 0.6244 0.49853 0.0
C664 C 0.84558 0.62489 0.49664 0.0
C665 C 0.84442 0.64595 0.50852 0.0
C666 C 0.8666 0.66677 0.52133 0.0
C667 C 0.88912 0.66636 0.5228 0.0
H668 H 0.41711 0.11739 0.56147 0.0
N669 N 0.38376 0.11438 0.51381 0.0
H670 H 0.40866 0.09315 0.61654 0.0
H671 H 0.33756 0.08129 0.54099 0.0
H672 H 0.329 0.05805 0.59606 0.0
H673 H 0.33892 0.09471 0.4779 0.0
H674 H 0.32459 0.063 0.43089 0.0
H675 H 0.40978 0.0965 0.48215 0.0
H676 H 0.39562 0.06479 0.43564 0.0
H677 H 0.41882 0.15821 0.48824 0.0
H678 H 0.34456 0.12139 0.53359 0.0
H679 H 0.41808 0.19747 0.48478 0.0
H680 H 0.34414 0.16056 0.5321 0.0
H681 H 0.41423 0.31724 0.54721 0.0
H682 H 0.40639 0.33285 0.6026 0.0
H683 H 0.33145 0.26835 0.60603 0.0
H684 H 0.33952 0.25298 0.5509 0.0
H685 H 0.33393 0.26122 0.48964 0.0
H686 H 0.3215 0.27901 0.44135 0.0
H687 H 0.39955 0.33106 0.41882 0.0
H688 H 0.41198 0.31205 0.46591 0.0
H689 H 0.42084 0.26946 0.5209 0.0
H690 H 0.42088 0.22981 0.5208 0.0
H691 H 0.34149 0.19029 0.49636 0.0
N692 N 0.38226 0.27661 0.51109 0.0
H693 H 0.34146 0.22967 0.49841 0.0
C694 C 0.37804 0.10158 0.54741 0.0
C695 C 0.39785 0.10466 0.56923 0.0
C696 C 0.39302 0.09078 0.60052 0.0
C697 C 0.36818 0.07385 0.61071 0.0
C698 C 0.34835 0.07118 0.58916 0.0
C699 C 0.35321 0.08463 0.55766 0.0
C700 C 0.37556 0.09801 0.48347 0.0
C701 C 0.35155 0.0886 0.46835 0.0
C702 C 0.34337 0.07049 0.44147 0.0
C703 C 0.35893 0.06133 0.42971 0.0
C704 C 0.38314 0.07139 0.44419 0.0
C705 C 0.39133 0.08955 0.47067 0.0
C706 C 0.38203 0.13688 0.51157 0.0
C707 C 0.40243 0.15865 0.49765 0.0
C708 C 0.40201 0.18112 0.49599 0.0
C709 C 0.38115 0.1824 0.50852 0.0
C710 C 0.36045 0.16035 0.52185 0.0
C711 C 0.36079 0.13782 0.52311 0.0
C712 C 0.37753 0.28405 0.54496 0.0
C713 C 0.39625 0.3064 0.56026 0.0
C714 C 0.39174 0.31525 0.59183 0.0
C715 C 0.3683 0.30186 0.60866 0.0
C716 C 0.34973 0.2791 0.59372 0.0
C717 C 0.35428 0.27028 0.56213 0.0
C718 C 0.37404 0.28487 0.48085 0.0
C719 C 0.34844 0.27564 0.47346 0.0
C720 C 0.3413 0.28597 0.44593 0.0
C721 C 0.35957 0.30627 0.42627 0.0
C722 C 0.38509 0.3153 0.43347 0.0
C723 C 0.39221 0.30448 0.46024 0.0
C724 C 0.38135 0.25277 0.50931 0.0
C725 C 0.4035 0.25219 0.51543 0.0
C726 C 0.40347 0.22948 0.51509 0.0
C727 C 0.38119 0.20669 0.50834 0.0
C728 C 0.35896 0.20734 0.50208 0.0
C729 C 0.35897 0.23008 0.50283 0.0
H730 H 0.76081 0.08211 0.53155 0.0
N731 N 0.74865 0.11555 0.50331 0.0
H732 H 0.74555 0.05929 0.58699 0.0
H733 H 0.71721 0.11819 0.54919 0.0
H734 H 0.70064 0.09416 0.6043 0.0
H735 H 0.70492 0.09756 0.47063 0.0
H736 H 0.68778 0.06587 0.42396 0.0
H737 H 0.77435 0.09642 0.46786 0.0
H738 H 0.75746 0.06493 0.42058 0.0
H739 H 0.79439 0.12167 0.52427 0.0
H740 H 0.75858 0.16007 0.47921 0.0
H741 H 0.83436 0.16062 0.52506 0.0
H742 H 0.79903 0.19917 0.47804 0.0
H743 H 0.93121 0.25267 0.55009 0.0
H744 H 0.95445 0.26813 0.60547 0.0
H745 H 0.9473 0.3343 0.59864 0.0
H746 H 0.92399 0.31856 0.54304 0.0
H747 H 0.92014 0.31176 0.46161 0.0
H748 H 0.95228 0.33051 0.41539 0.0
H749 H 0.97864 0.27953 0.44209 0.0
H750 H 0.94753 0.26189 0.48949 0.0
H751 H 0.90752 0.23017 0.49503 0.0
H752 H 0.86778 0.19098 0.49127 0.0
H753 H 0.82823 0.23059 0.5157 0.0
N754 N 0.91406 0.27708 0.50832 0.0
H755 H 0.86827 0.27005 0.51754 0.0
C756 C 0.7407 0.10248 0.53665 0.0
C757 C 0.74832 0.08552 0.54764 0.0
C758 C 0.73939 0.07229 0.57929 0.0
C759 C 0.72201 0.07508 0.60005 0.0
C760 C 0.71408 0.09173 0.58885 0.0
C761 C 0.72357 0.10549 0.55756 0.0
C762 C 0.74084 0.09943 0.47269 0.0
C763 C 0.71663 0.09084 0.45937 0.0
C764 C 0.70689 0.07271 0.43278 0.0
C765 C 0.72128 0.06291 0.41864 0.0
C766 C 0.74602 0.0723 0.43081 0.0
C767 C 0.75568 0.09028 0.45788 0.0
C768 C 0.77316 0.13793 0.50219 0.0
C769 C 0.79502 0.1384 0.51433 0.0
C770 C 0.81814 0.16083 0.51439 0.0
C771 C 0.82009 0.18328 0.50184 0.0
C772 C 0.79828 0.18249 0.4887 0.0
C773 C 0.77514 0.16011 0.48902 0.0
C774 C 0.92587 0.28453 0.54247 0.0
C775 C 0.93439 0.27034 0.56066 0.0
C776 C 0.94767 0.27923 0.59237 0.0
C777 C 0.95276 0.30249 0.60642 0.0
C778 C 0.94365 0.31632 0.58858 0.0
C779 C 0.93035 0.30738 0.55689 0.0
C780 C 0.93098 0.28512 0.47858 0.0
C781 C 0.93256 0.30435 0.45705 0.0
C782 C 0.95092 0.31504 0.43077 0.0
C783 C 0.96775 0.30628 0.42503 0.0
C784 C 0.96558 0.2863 0.44559 0.0
C785 C 0.94764 0.27609 0.47259 0.0
C786 C 0.89094 0.2533 0.5061 0.0
C787 C 0.89041 0.23062 0.49916 0.0
C788 C 0.8675 0.20799 0.49739 0.0
C789 C 0.84459 0.20744 0.50305 0.0
C790 C 0.84532 0.2302 0.5104 0.0
C791 C 0.86821 0.2528 0.51177 0.0
H792 H 0.02473 0.59569 0.17221 0.0
N793 N 0.98223 0.57699 0.21246 0.0
H794 H 0.03288 0.61934 0.11718 0.0
H795 H 0.95045 0.58608 0.17672 0.0
H796 H 0.95837 0.60974 0.12144 0.0
H797 H 0.95255 0.58198 0.25845 0.0
H798 H 0.96495 0.61339 0.30557 0.0
H799 H 0.03057 0.61083 0.23287 0.0
H800 H 0.04301 0.64103 0.28119 0.0
H801 H 0.02315 0.57145 0.22692 0.0
H802 H 0.94429 0.53104 0.20106 0.0
H803 H 0.02362 0.53231 0.22932 0.0
H804 H 0.9448 0.49164 0.20147 0.0
H805 H 0.02906 0.42798 0.18342 0.0
H806 H 0.03803 0.41402 0.128 0.0
H807 H 0.9585 0.36925 0.1066 0.0
H808 H 0.94965 0.38431 0.16193 0.0
H809 H 0.95571 0.36992 0.2406 0.0
H810 H 0.96895 0.35131 0.28681 0.0
H811 H 0.04048 0.42006 0.29387 0.0
H812 H 0.02705 0.4385 0.24713 0.0
H813 H 0.02216 0.46093 0.19269 0.0
H814 H 0.02219 0.50036 0.19406 0.0
H815 H 0.94716 0.46205 0.23787 0.0
N816 N 0.98263 0.41425 0.21018 0.0
H817 H 0.94685 0.42226 0.23443 0.0
C818 C 0.98694 0.58918 0.17857 0.0
C819 C 0.01008 0.59846 0.16117 0.0
C820 C 0.01467 0.61195 0.12964 0.0
C821 C 0.99625 0.61644 0.11498 0.0
C822 C 0.9729 0.60655 0.13199 0.0
C823 C 0.96835 0.59307 0.16351 0.0
C824 C 0.99049 0.59355 0.2426 0.0
C825 C 0.97232 0.59454 0.26371 0.0
C826 C 0.97942 0.61246 0.29049 0.0
C827 C 0.00493 0.62938 0.29719 0.0
C828 C 0.02323 0.62784 0.27698 0.0
C829 C 0.01609 0.6104 0.24945 0.0
C830 C 0.98347 0.55423 0.21431 0.0
C831 C 0.00585 0.55422 0.22181 0.0
C832 C 0.00617 0.53166 0.22278 0.0
C833 C 0.98423 0.50862 0.2157 0.0
C834 C 0.96196 0.50883 0.20786 0.0
C835 C 0.96163 0.53135 0.20732 0.0
C836 C 0.98861 0.40761 0.1765 0.0
C837 C 0.01353 0.41578 0.16647 0.0
C838 C 0.01863 0.40761 0.13478 0.0
C839 C 0.99894 0.39059 0.1129 0.0
C840 C 0.97403 0.38241 0.1229 0.0
C841 C 0.96897 0.39103 0.15433 0.0
C842 C 0.99026 0.40549 0.24047 0.0
C843 C 0.97407 0.38109 0.25254 0.0
C844 C 0.98173 0.37051 0.27884 0.0
C845 C 0.00581 0.38421 0.29386 0.0
C846 C 0.02178 0.40911 0.28285 0.0
C847 C 0.01413 0.41965 0.25614 0.0
C848 C 0.98421 0.43838 0.2129 0.0
C849 C 0.00563 0.46084 0.2024 0.0
C850 C 0.00573 0.4836 0.20358 0.0
C851 C 0.98459 0.48453 0.21582 0.0
C852 C 0.96357 0.4621 0.22747 0.0
C853 C 0.9634 0.43934 0.22585 0.0
H854 H 0.64591 0.57409 0.15658 0.0
N855 N 0.61677 0.57714 0.20602 0.0
H856 H 0.66139 0.59902 0.10206 0.0
H857 H 0.60385 0.61083 0.18106 0.0
H858 H 0.61829 0.63488 0.1265 0.0
H859 H 0.59214 0.59609 0.24441 0.0
H860 H 0.6104 0.62744 0.29175 0.0
H861 H 0.66156 0.59531 0.23557 0.0
H862 H 0.68002 0.62676 0.28237 0.0
H863 H 0.60784 0.53328 0.2314 0.0
H864 H 0.57042 0.57035 0.18722 0.0
H865 H 0.56758 0.49415 0.23547 0.0
H866 H 0.53054 0.53129 0.1893 0.0
H867 H 0.44296 0.37485 0.17406 0.0
H868 H 0.41968 0.35961 0.11838 0.0
H869 H 0.40977 0.42424 0.11538 0.0
H870 H 0.43306 0.43925 0.1708 0.0
H871 H 0.41915 0.43087 0.23194 0.0
H872 H 0.38893 0.41316 0.2803 0.0
H873 H 0.41459 0.36102 0.30282 0.0
H874 H 0.44601 0.37993 0.25564 0.0
H875 H 0.49751 0.42233 0.20002 0.0
H876 H 0.53747 0.46188 0.19977 0.0
H877 H 0.49828 0.50165 0.22544 0.0
N878 N 0.45189 0.41538 0.21046 0.0
H879 H 0.45857 0.46235 0.22372 0.0
C880 C 0.62342 0.59021 0.17261 0.0
C881 C 0.63961 0.58711 0.14979 0.0
C882 C 0.64847 0.60139 0.11882 0.0
C883 C 0.64095 0.61879 0.10995 0.0
C884 C 0.62422 0.62142 0.13241 0.0
C885 C 0.61579 0.60753 0.16361 0.0
C886 C 0.62556 0.5933 0.23655 0.0
C887 C 0.61115 0.60233 0.25303 0.0
C888 C 0.62159 0.62025 0.28009 0.0
C889 C 0.64666 0.62962 0.29065 0.0
C890 C 0.66068 0.61997 0.27477 0.0
C891 C 0.65018 0.60196 0.24813 0.0
C892 C 0.59241 0.55472 0.20859 0.0
C893 C 0.59095 0.53292 0.22237 0.0
C894 C 0.56791 0.51053 0.22438 0.0
C895 C 0.54568 0.50935 0.21234 0.0
C896 C 0.54712 0.53142 0.19916 0.0
C897 C 0.57016 0.55389 0.19756 0.0
C898 C 0.43968 0.40807 0.17656 0.0
C899 C 0.43596 0.38579 0.16107 0.0
C900 C 0.4227 0.37716 0.12932 0.0
C901 C 0.41286 0.3907 0.11251 0.0
C902 C 0.41713 0.41338 0.12767 0.0
C903 C 0.43041 0.42199 0.15943 0.0
C904 C 0.43542 0.40715 0.2407 0.0
C905 C 0.41915 0.41643 0.24812 0.0
C906 C 0.4017 0.40616 0.2757 0.0
C907 C 0.39958 0.38586 0.29538 0.0
C908 C 0.41596 0.37677 0.28815 0.0
C909 C 0.43389 0.38754 0.26133 0.0
C910 C 0.47502 0.43915 0.21225 0.0
C911 C 0.49765 0.43962 0.20571 0.0
C912 C 0.52049 0.46228 0.20584 0.0
C913 C 0.52128 0.48512 0.21281 0.0
C914 C 0.49849 0.48456 0.21954 0.0
C915 C 0.4756 0.46188 0.21899 0.0
H916 H 0.58132 0.97157 0.16634 0.0
N917 N 0.59183 0.01018 0.20809 0.0
H918 H 0.60112 0.97229 0.1101 0.0
H919 H 0.62683 0.05198 0.17361 0.0
H920 H 0.64755 0.05297 0.11752 0.0
H921 H 0.63437 0.04917 0.23507 0.0
H922 H 0.66049 0.04677 0.28201 0.0
H923 H 0.57978 0.97107 0.25033 0.0
H924 H 0.60546 0.96857 0.29814 0.0
H925 H 0.54352 0.97822 0.19637 0.0
H926 H 0.59562 0.05476 0.22497 0.0
H927 H 0.50885 0.98673 0.19829 0.0
H928 H 0.56086 0.06347 0.2287 0.0
H929 H 0.43172 0.00257 0.17002 0.0
H930 H 0.40914 0.99551 0.11434 0.0
H931 H 0.41555 0.06843 0.12318 0.0
H932 H 0.4383 0.07536 0.17919 0.0
H933 H 0.44603 0.07203 0.26402 0.0
H934 H 0.41409 0.0595 0.31054 0.0
H935 H 0.37868 0.98287 0.27418 0.0
H936 H 0.4094 0.99564 0.22649 0.0
H937 H 0.44847 1.00084 0.23617 0.0
H938 H 0.48394 0.99428 0.23738 0.0
H939 H 0.53125 0.06845 0.19403 0.0
N940 N 0.44827 0.04349 0.2132 0.0
H941 H 0.49544 0.07546 0.19458 0.0
C942 C 0.60282 0.0116 0.17412 0.0
C943 C 0.59555 0.98939 0.15555 0.0
C944 C 0.60689 0.98991 0.12345 0.0
C945 C 0.62601 0.01272 0.10945 0.0
C946 C 0.63295 0.03514 0.12774 0.0
C947 C 0.62125 0.03459 0.15978 0.0
C948 C 0.60533 0.01018 0.23907 0.0
C949 C 0.62782 0.03163 0.249 0.0
C950 C 0.64268 0.03022 0.27585 0.0
C951 C 0.63508 0.00742 0.29357 0.0
C952 C 0.61177 0.98639 0.28503 0.0
C953 C 0.59711 0.98776 0.2578 0.0
C954 C 0.57191 0.01577 0.21077 0.0
C955 C 0.54732 0.99682 0.20351 0.0
C956 C 0.52754 0.00174 0.20491 0.0
C957 C 0.53191 0.02577 0.21402 0.0
C958 C 0.55677 0.04482 0.22129 0.0
C959 C 0.57664 0.03988 0.2195 0.0
C960 C 0.43671 0.03956 0.17882 0.0
C961 C 0.42856 0.01717 0.15986 0.0
C962 C 0.41566 0.01321 0.12795 0.0
C963 C 0.41054 0.03144 0.11436 0.0
C964 C 0.41927 0.05409 0.13286 0.0
C965 C 0.43222 0.05805 0.16482 0.0
C966 C 0.43058 0.03484 0.24218 0.0
C967 C 0.43156 0.0525 0.26639 0.0
C968 C 0.41337 0.04534 0.29286 0.0
C969 C 0.39424 0.02018 0.29615 0.0
C970 C 0.39358 0.00229 0.27261 0.0
C971 C 0.41124 0.00962 0.24537 0.0
C972 C 0.46913 0.03893 0.2155 0.0
C973 C 0.46633 0.01597 0.2273 0.0
C974 C 0.48681 0.01207 0.22763 0.0
C975 C 0.51055 0.03073 0.21555 0.0
C976 C 0.51339 0.05374 0.204 0.0
C977 C 0.49291 0.05774 0.20407 0.0
H978 H 0.38442 0.943 0.89639 0.0
N979 N 0.41428 0.97533 0.8475 0.0
H980 H 0.36939 0.95249 0.95118 0.0
H981 H 0.42851 0.02207 0.87339 0.0
H982 H 0.41448 0.03168 0.9283 0.0
H983 H 0.43939 0.01922 0.80961 0.0
H984 H 0.42157 0.03285 0.76235 0.0
H985 H 0.36951 0.94921 0.8177 0.0
H986 H 0.35149 0.96274 0.77097 0.0
H987 H 0.42174 0.9392 0.8233 0.0
H988 H 0.46126 0.0145 0.86473 0.0
H989 H 0.46145 0.93936 0.81841 0.0
H990 H 0.50066 0.01445 0.86168 0.0
H991 H 0.59086 0.94536 0.86885 0.0
H992 H 0.6145 0.95305 0.92419 0.0
H993 H 0.61639 0.02377 0.93563 0.0
H994 H 0.59309 0.01603 0.8804 0.0
H995 H 0.61083 0.02449 0.81961 0.0
H996 H 0.64064 0.03905 0.77056 0.0
H997 H 0.61401 0.96232 0.73999 0.0
H998 H 0.58269 0.94777 0.78765 0.0
H999 H 0.53193 0.93732 0.85091 0.0
H1000 H 0.4923 0.93745 0.8532 0.0
H1001 H 0.53151 0.01583 0.82355 0.0
N1002 N 0.57746 0.97539 0.83699 0.0
H1003 H 0.57087 0.01578 0.82307 0.0
C1004 C 0.4079 0.98174 0.88108 0.0
C1005 C 0.39126 0.96238 0.90356 0.0
C1006 C 0.38265 0.96782 0.9347 0.0
C1007 C 0.39085 0.99282 0.94409 0.0
C1008 C 0.40802 0.01223 0.92197 0.0
C1009 C 0.41622 0.00676 0.89059 0.0
C1010 C 0.4057 0.98305 0.81709 0.0
C1011 C 0.42038 0.00661 0.80085 0.0
C1012 C 0.41018 0.01439 0.77382 0.0
C1013 C 0.38511 0.9989 0.76305 0.0
C1014 C 0.37084 0.97513 0.77872 0.0
C1015 C 0.38108 0.96732 0.80533 0.0
C1016 C 0.43829 0.97659 0.84471 0.0
C1017 C 0.43897 0.95569 0.83156 0.0
C1018 C 0.4617 0.95579 0.82906 0.0
C1019 C 0.48438 0.97685 0.83993 0.0
C1020 C 0.48369 0.99797 0.85268 0.0
C1021 C 0.46096 0.99793 0.85482 0.0
C1022 C 0.59012 0.98 0.87057 0.0
C1023 C 0.59625 0.9624 0.88356 0.0
C1024 C 0.60971 0.96681 0.91512 0.0
C1025 C 0.61725 0.98897 0.93433 0.0
C1026 C 0.61076 0.00644 0.92153 0.0
C1027 C 0.59743 0.00207 0.88988 0.0
C1028 C 0.59384 0.98492 0.80669 0.0
C1029 C 0.61041 0.01077 0.80144 0.0
C1030 C 0.62761 0.01912 0.77347 0.0
C1031 C 0.62931 0.00179 0.7513 0.0
C1032 C 0.61279 0.97603 0.75648 0.0
C1033 C 0.59498 0.96773 0.78362 0.0
C1034 C 0.55445 0.97632 0.83647 0.0
C1035 C 0.53188 0.95448 0.8448 0.0
C1036 C 0.50922 0.95459 0.84586 0.0
C1037 C 0.50855 0.97665 0.83839 0.0
C1038 C 0.53124 0.99856 0.82991 0.0
C1039 C 0.55394 0.99847 0.82921 0.0
H1040 H 0.00307 0.59799 0.8754 0.0
N1041 N 0.04928 0.61135 0.84819 0.0
H1042 H 0.99454 0.61277 0.93039 0.0
H1043 H 0.08261 0.6414 0.89607 0.0
H1044 H 0.0742 0.65721 0.95105 0.0
H1045 H 0.07627 0.65558 0.81746 0.0
H1046 H 0.06308 0.67407 0.771 0.0
H1047 H 0.00469 0.58721 0.81167 0.0
H1048 H 0.99132 0.60553 0.76468 0.0
H1049 H 0.00986 0.5648 0.86658 0.0
H1050 H 0.08448 0.60303 0.82249 0.0
H1051 H 0.00934 0.52512 0.86383 0.0
H1052 H 0.08369 0.56307 0.8178 0.0
H1053 H 0.00681 0.43045 0.88379 0.0
H1054 H 0.99998 0.40811 0.93974 0.0
H1055 H 0.07351 0.41568 0.93144 0.0
H1056 H 0.08018 0.43819 0.87529 0.0
H1057 H 0.07672 0.44275 0.79372 0.0
H1058 H 0.06341 0.41093 0.74712 0.0
H1059 H 0.98588 0.38295 0.77528 0.0
H1060 H 0.99932 0.41379 0.82305 0.0
H1061 H 0.00732 0.45382 0.82807 0.0
H1062 H 0.00712 0.49319 0.82714 0.0
H1063 H 0.08623 0.53316 0.85333 0.0
N1064 N 0.04809 0.44784 0.84136 0.0
H1065 H 0.08641 0.49361 0.85244 0.0
C1066 C 0.04354 0.61818 0.88193 0.0
C1067 C 0.01872 0.61029 0.89212 0.0
C1068 C 0.01388 0.61895 0.92356 0.0
C1069 C 0.03373 0.63614 0.9451 0.0
C1070 C 0.05854 0.64394 0.93503 0.0
C1071 C 0.06335 0.63487 0.9038 0.0
C1072 C 0.0416 0.62012 0.81797 0.0
C1073 C 0.05785 0.64444 0.80565 0.0
C1074 C 0.05023 0.65495 0.7792 0.0
C1075 C 0.02611 0.64126 0.76427 0.0
C1076 C 0.01005 0.61646 0.77561 0.0
C1077 C 0.01767 0.606 0.80247 0.0
C1078 C 0.04752 0.58715 0.84532 0.0
C1079 C 0.02614 0.56475 0.85613 0.0
C1080 C 0.02576 0.54185 0.85414 0.0
C1081 C 0.04656 0.54075 0.84084 0.0
C1082 C 0.06754 0.56315 0.829 0.0
C1083 C 0.06799 0.58602 0.83137 0.0
C1084 C 0.04405 0.43596 0.87541 0.0
C1085 C 0.02154 0.42752 0.89413 0.0
C1086 C 0.01771 0.4148 0.92619 0.0
C1087 C 0.03625 0.41015 0.94004 0.0
C1088 C 0.05893 0.41905 0.92156 0.0
C1089 C 0.06276 0.43184 0.88953 0.0
C1090 C 0.03914 0.43108 0.81146 0.0
C1091 C 0.05685 0.43004 0.7894 0.0
C1092 C 0.04923 0.41187 0.7629 0.0
C1093 C 0.02361 0.39468 0.75745 0.0
C1094 C 0.00572 0.3963 0.77854 0.0
C1095 C 0.01342 0.41407 0.80577 0.0
C1096 C 0.04708 0.47074 0.83983 0.0
C1097 C 0.02471 0.47097 0.83311 0.0
C1098 C 0.02457 0.49364 0.83299 0.0
C1099 C 0.04667 0.51654 0.84006 0.0
C1100 C 0.06893 0.51609 0.84699 0.0
C1101 C 0.06909 0.49348 0.84674 0.0
H1102 H 0.44298 0.43097 0.8846 0.0
N1103 N 0.41839 0.44801 0.843 0.0
H1104 H 0.42783 0.40803 0.94018 0.0
H1105 H 0.37686 0.43795 0.87789 0.0
H1106 H 0.36143 0.41493 0.93377 0.0
H1107 H 0.38404 0.44223 0.79581 0.0
H1108 H 0.36549 0.41031 0.74929 0.0
H1109 H 0.43347 0.41443 0.82441 0.0
H1110 H 0.41607 0.38356 0.77674 0.0
H1111 H 0.46527 0.45448 0.82895 0.0
H1112 H 0.42567 0.49368 0.85383 0.0
H1113 H 0.5047 0.49408 0.82681 0.0
H1114 H 0.46535 0.53351 0.85355 0.0
H1115 H 0.61419 0.59983 0.8715 0.0
H1116 H 0.6379 0.61471 0.92626 0.0
H1117 H 0.60203 0.65813 0.94827 0.0
H1118 H 0.57741 0.64223 0.89353 0.0
H1119 H 0.59812 0.65674 0.81421 0.0
H1120 H 0.62955 0.67494 0.76731 0.0
H1121 H 0.63184 0.6061 0.76091 0.0
H1122 H 0.60045 0.58809 0.80827 0.0
H1123 H 0.574 0.56632 0.86392 0.0
H1124 H 0.53483 0.52646 0.86249 0.0
H1125 H 0.49731 0.56336 0.81712 0.0
N1126 N 0.58065 0.61255 0.84518 0.0
H1127 H 0.53655 0.60357 0.82049 0.0
C1128 C 0.41096 0.43612 0.8771 0.0
C1129 C 0.42531 0.42777 0.89526 0.0
C1130 C 0.4166 0.41468 0.92712 0.0
C1131 C 0.39339 0.40965 0.94137 0.0
C1132 C 0.3794 0.41858 0.92356 0.0
C1133 C 0.38814 0.43167 0.89169 0.0
C1134 C 0.41046 0.43117 0.81318 0.0
C1135 C 0.3914 0.42976 0.79136 0.0
C1136 C 0.38084 0.41154 0.76491 0.0
C1137 C 0.38955 0.39467 0.75928 0.0
C1138 C 0.40934 0.39665 0.78015 0.0
C1139 C 0.41942 0.41446 0.80732 0.0
C1140 C 0.44225 0.47106 0.84108 0.0
C1141 C 0.46492 0.47155 0.83389 0.0
C1142 C 0.48768 0.49436 0.83306 0.0
C1143 C 0.48838 0.51719 0.83991 0.0
C1144 C 0.46563 0.5165 0.84737 0.0
C1145 C 0.4429 0.49372 0.84781 0.0
C1146 C 0.59358 0.61954 0.87869 0.0
C1147 C 0.6108 0.61195 0.88845 0.0
C1148 C 0.62451 0.62063 0.91978 0.0
C1149 C 0.62178 0.63757 0.94163 0.0
C1150 C 0.60447 0.64505 0.93201 0.0
C1151 C 0.59038 0.63595 0.90089 0.0
C1152 C 0.59688 0.62115 0.81469 0.0
C1153 C 0.60513 0.64547 0.80228 0.0
C1154 C 0.62312 0.65582 0.77558 0.0
C1155 C 0.63323 0.64197 0.7605 0.0
C1156 C 0.62431 0.61718 0.77194 0.0
C1157 C 0.60637 0.60687 0.79902 0.0
C1158 C 0.55819 0.58821 0.84285 0.0
C1159 C 0.55743 0.56601 0.85387 0.0
C1160 C 0.5349 0.543 0.85265 0.0
C1161 C 0.51268 0.54154 0.83992 0.0
C1162 C 0.51379 0.56372 0.82788 0.0
C1163 C 0.53626 0.58672 0.82948 0.0
H1164 H 0.71764 0.94643 0.50031 0.0
N1165 N 0.67792 0.92135 0.54237 0.0
H1166 H 0.71903 0.96633 0.44363 0.0
H1167 H 0.63816 0.91866 0.50763 0.0
H1168 H 0.63928 0.9388 0.45112 0.0
H1169 H 0.63962 0.92469 0.57122 0.0
H1170 H 0.64296 0.95373 0.61802 0.0
H1171 H 0.71841 0.94983 0.58206 0.0
H1172 H 0.72183 0.97834 0.62983 0.0
H1173 H 0.71166 0.90754 0.55701 0.0
H1174 H 0.63328 0.87867 0.53486 0.0
H1175 H 0.70459 0.86482 0.55966 0.0
H1176 H 0.626 0.83572 0.53556 0.0
H1177 H 0.6945 0.75452 0.51701 0.0
H1178 H 0.70304 0.73984 0.46211 0.0
H1179 H 0.62433 0.70326 0.43472 0.0
H1180 H 0.61596 0.71919 0.48972 0.0
H1181 H 0.62129 0.70169 0.57056 0.0
H1182 H 0.63379 0.683 0.61765 0.0
H1183 H 0.70525 0.75165 0.62622 0.0
H1184 H 0.69275 0.77012 0.57871 0.0
H1185 H 0.69082 0.79002 0.5189 0.0
H1186 H 0.69675 0.83185 0.52119 0.0
H1187 H 0.62393 0.8026 0.57038 0.0
N1188 N 0.64878 0.74611 0.54032 0.0
H1189 H 0.61756 0.76009 0.56628 0.0
C1190 C 0.6779 0.9313 0.50806 0.0
C1191 C 0.70047 0.94449 0.4894 0.0
C1192 C 0.70117 0.95579 0.45708 0.0
C1193 C 0.67924 0.9542 0.44296 0.0
C1194 C 0.65646 0.94036 0.46133 0.0
C1195 C 0.65579 0.92891 0.49361 0.0
C1196 C 0.67884 0.9354 0.57311 0.0
C1197 C 0.65751 0.93616 0.58419 0.0
C1198 C 0.65946 0.95269 0.61094 0.0
C1199 C 0.68269 0.96834 0.62747 0.0
C1200 C 0.70368 0.96641 0.61773 0.0
C1201 C 0.70179 0.9502 0.5905 0.0
C1202 C 0.67302 0.8961 0.54567 0.0
C1203 C 0.69289 0.89185 0.55278 0.0
C1204 C 0.68881 0.86742 0.55389 0.0
C1205 C 0.66475 0.8467 0.5474 0.0
C1206 C 0.64471 0.85111 0.54104 0.0
C1207 C 0.64882 0.87563 0.54036 0.0
C1208 C 0.65457 0.73844 0.50723 0.0
C1209 C 0.67909 0.74392 0.49899 0.0
C1210 C 0.68395 0.73537 0.46753 0.0
C1211 C 0.66435 0.72052 0.44401 0.0
C1212 C 0.63978 0.71476 0.45232 0.0
C1213 C 0.63501 0.72387 0.48357 0.0
C1214 C 0.65589 0.73724 0.57109 0.0
C1215 C 0.63947 0.71282 0.58301 0.0
C1216 C 0.6467 0.70219 0.60982 0.0
C1217 C 0.67055 0.71586 0.62554 0.0
C1218 C 0.68671 0.74073 0.6147 0.0
C1219 C 0.67955 0.7513 0.5875 0.0
C1220 C 0.65341 0.77156 0.54198 0.0
C1221 C 0.67592 0.79228 0.52991 0.0
C1222 C 0.67947 0.8165 0.53167 0.0
C1223 C 0.66086 0.82077 0.54605 0.0
C1224 C 0.63854 0.80006 0.55861 0.0
C1225 C 0.6349 0.77576 0.55651 0.0
H1226 H 0.31824 0.91923 0.50866 0.0
N1227 N 0.27814 0.91083 0.54579 0.0
H1228 H 0.33346 0.94273 0.45317 0.0
H1229 H 0.25432 0.93006 0.50679 0.0
H1230 H 0.26934 0.9536 0.45155 0.0
H1231 H 0.26308 0.94374 0.56792 0.0
H1232 H 0.28138 0.97396 0.61614 0.0
H1233 H 0.31401 0.91659 0.59014 0.0
H1234 H 0.33349 0.94798 0.63721 0.0
H1235 H 0.27088 0.86511 0.53585 0.0
H1236 H 0.23132 0.9045 0.55961 0.0
H1237 H 0.23124 0.82526 0.53696 0.0
H1238 H 0.19195 0.86493 0.56275 0.0
H1239 H 0.12002 0.71712 0.49701 0.0
H1240 H 0.09596 0.70172 0.44176 0.0
H1241 H 0.05927 0.74431 0.46426 0.0
H1242 H 0.08241 0.75863 0.5196 0.0
H1243 H 0.09609 0.77019 0.58302 0.0
H1244 H 0.06463 0.75173 0.63026 0.0
H1245 H 0.06743 0.68319 0.62288 0.0
H1246 H 0.09892 0.70184 0.57613 0.0
H1247 H 0.16033 0.75542 0.57066 0.0
H1248 H 0.1995 0.79571 0.5737 0.0
H1249 H 0.16162 0.83221 0.52813 0.0
N1250 N 0.1162 0.74618 0.54575 0.0
H1251 H 0.12254 0.79232 0.52719 0.0
C1252 C 0.28527 0.92296 0.51184 0.0
C1253 C 0.30738 0.92647 0.49599 0.0
C1254 C 0.31601 0.93986 0.46436 0.0
C1255 C 0.30263 0.95006 0.44802 0.0
C1256 C 0.28008 0.94596 0.46349 0.0
C1257 C 0.27146 0.93254 0.49513 0.0
C1258 C 0.28676 0.92733 0.57596 0.0
C1259 C 0.27766 0.94369 0.58374 0.0
C1260 C 0.28827 0.96114 0.61123 0.0
C1261 C 0.30872 0.96316 0.63047 0.0
C1262 C 0.31764 0.9467 0.62288 0.0
C1263 C 0.30655 0.92878 0.59612 0.0
C1264 C 0.2543 0.88782 0.548 0.0
C1265 C 0.25367 0.8651 0.54182 0.0
C1266 C 0.23096 0.84232 0.54276 0.0
C1267 C 0.20824 0.8417 0.55023 0.0
C1268 C 0.20894 0.86458 0.55652 0.0
C1269 C 0.23167 0.8874 0.55513 0.0
C1270 C 0.10339 0.73932 0.51216 0.0
C1271 C 0.10697 0.7233 0.48968 0.0
C1272 C 0.09321 0.7145 0.45827 0.0
C1273 C 0.07587 0.72195 0.44862 0.0
C1274 C 0.07272 0.73847 0.47078 0.0
C1275 C 0.08608 0.74682 0.50243 0.0
C1276 C 0.0999 0.73731 0.57615 0.0
C1277 C 0.09026 0.75138 0.59204 0.0
C1278 C 0.07229 0.74081 0.61904 0.0
C1279 C 0.0635 0.71598 0.63017 0.0
C1280 C 0.07375 0.70234 0.61486 0.0
C1281 C 0.09179 0.71294 0.58824 0.0
C1282 C 0.13854 0.7706 0.54828 0.0
C1283 C 0.16053 0.77221 0.56162 0.0
C1284 C 0.18295 0.79526 0.563 0.0
C1285 C 0.18395 0.81733 0.55072 0.0
C1286 C 0.16165 0.81576 0.53813 0.0
C1287 C 0.13916 0.79272 0.53719 0.0
H1288 H 0.26821 0.33304 0.51565 0.0
N1289 N 0.28134 0.37904 0.54323 0.0
H1290 H 0.28319 0.32483 0.46057 0.0
H1291 H 0.31187 0.41261 0.49602 0.0
H1292 H 0.32797 0.40452 0.44107 0.0
H1293 H 0.32534 0.40641 0.57446 0.0
H1294 H 0.34408 0.39342 0.62083 0.0
H1295 H 0.25748 0.33438 0.57951 0.0
H1296 H 0.27605 0.3212 0.62642 0.0
H1297 H 0.2349 0.33933 0.52505 0.0
H1298 H 0.27268 0.41433 0.56759 0.0
H1299 H 0.19518 0.33882 0.52604 0.0
H1300 H 0.23262 0.41355 0.57064 0.0
H1301 H 0.09978 0.3362 0.50239 0.0
H1302 H 0.07676 0.32874 0.4469 0.0
H1303 H 0.08532 0.40268 0.4533 0.0
H1304 H 0.10839 0.40992 0.50908 0.0
H1305 H 0.11226 0.40683 0.59079 0.0
H1306 H 0.0802 0.39382 0.63706 0.0
H1307 H 0.05244 0.3162 0.61023 0.0
H1308 H 0.08347 0.32931 0.56279 0.0
H1309 H 0.12335 0.33713 0.55814 0.0
H1310 H 0.1627 0.33691 0.56082 0.0
H1311 H 0.20314 0.41581 0.53392 0.0
N1312 N 0.1176 0.3779 0.54396 0.0
H1313 H 0.16356 0.41604 0.5332 0.0
C1314 C 0.28847 0.37351 0.5096 0.0
C1315 C 0.2806 0.34876 0.49914 0.0
C1316 C 0.28937 0.3441 0.46767 0.0
C1317 C 0.30671 0.36405 0.44644 0.0
C1318 C 0.31457 0.38879 0.45685 0.0
C1319 C 0.30535 0.39342 0.48806 0.0
C1320 C 0.29011 0.3715 0.57359 0.0
C1321 C 0.31435 0.38794 0.58612 0.0
C1322 C 0.32501 0.38042 0.6125 0.0
C1323 C 0.31156 0.35623 0.62717 0.0
C1324 C 0.28681 0.33999 0.61569 0.0
C1325 C 0.27619 0.3475 0.58888 0.0
C1326 C 0.25704 0.37717 0.54568 0.0
C1327 C 0.23473 0.35569 0.53484 0.0
C1328 C 0.2118 0.35532 0.53581 0.0
C1329 C 0.21054 0.37624 0.54813 0.0
C1330 C 0.23282 0.39731 0.56013 0.0
C1331 C 0.25574 0.39775 0.55874 0.0
C1332 C 0.10576 0.37365 0.50985 0.0
C1333 C 0.09693 0.35088 0.49173 0.0
C1334 C 0.08379 0.34668 0.45994 0.0
C1335 C 0.07919 0.36514 0.44572 0.0
C1336 C 0.08861 0.38814 0.46349 0.0
C1337 C 0.10175 0.3923 0.49529 0.0
C1338 C 0.10072 0.36918 0.57376 0.0
C1339 C 0.09955 0.38701 0.59534 0.0
C1340 C 0.08124 0.37956 0.62164 0.0
C1341 C 0.06404 0.354 0.62736 0.0
C1342 C 0.06579 0.336 0.60676 0.0
C1343 C 0.08368 0.34352 0.57972 0.0
C1344 C 0.14046 0.37681 0.54597 0.0
C1345 C 0.14058 0.35448 0.55329 0.0
C1346 C 0.16326 0.35432 0.55442 0.0
C1347 C 0.1863 0.37637 0.54773 0.0
C1348 C 0.18596 0.39857 0.54004 0.0
C1349 C 0.16333 0.39874 0.53933 0.0
loop_
_geom_bond_atom_site_label_1
_geom_bond_atom_site_label_2
_geom_bond_distance
_geom_bond_site_symmetry_2
_ccdc_geom_bond_type
In0 O1 2.294 1_455 S
In0 O2 2.326 . S
In0 O6 2.266 1_455 S
In0 O7 2.326 1_454 S
In0 O8 2.266 1_554 S
In0 O9 2.326 1_454 S
In0 O11 2.294 . S
In0 O12 2.326 . S
O1 In0 2.294 1_655 S
O1 C10 1.240 1_655 S
O2 In0 2.326 . S
O2 C10 1.252 . S
C3 O6 1.252 1_556 S
C3 O7 1.260 . S
C4 O11 1.240 . S
C4 O12 1.252 . S
C5 O8 1.252 . S
C5 O9 1.260 1_455 S
O6 In0 2.266 1_655 S
O6 C3 1.252 1_554 S
O7 In0 2.326 1_656 S
O7 C3 1.260 . S
O8 In0 2.266 1_556 S
O8 C5 1.252 . S
O9 In0 2.326 1_656 S
O9 C5 1.260 1_655 S
C10 O1 1.240 1_455 S
C10 O2 1.252 . S
O11 In0 2.294 . S
O11 C4 1.240 . S
O12 In0 2.326 . S
O12 C4 1.252 . S
In13 O14 2.294 . S
In13 O15 2.326 . S
In13 O19 2.266 . S
In13 O20 2.326 1_554 S
In13 O21 2.266 1_554 S
In13 O22 2.326 1_554 S
In13 O24 2.294 . S
In13 O25 2.326 . S
O14 In13 2.294 . S
O14 C23 1.240 . S
O15 In13 2.326 . S
O15 C23 1.252 . S
C16 O19 1.252 1_556 S
C16 O20 1.260 . S
C17 O24 1.240 . S
C17 O25 1.252 . S
C18 O21 1.252 . S
C18 O22 1.260 . S
O19 In13 2.266 . S
O19 C16 1.252 1_554 S
O20 In13 2.326 1_556 S
O20 C16 1.260 . S
O21 In13 2.266 1_556 S
O21 C18 1.252 . S
O22 In13 2.326 1_556 S
O22 C18 1.260 . S
C23 O14 1.240 . S
C23 O15 1.252 . S
O24 In13 2.294 . S
O24 C17 1.240 . S
O25 In13 2.326 . S
O25 C17 1.252 . S
In26 O27 2.294 . S
In26 O28 2.326 1_554 S
In26 O32 2.266 . S
In26 O33 2.326 1_545 S
In26 O34 2.266 1_545 S
In26 O35 2.330 1_545 S
In26 O37 2.294 1_544 S
In26 O38 2.326 1_554 S
O27 In26 2.294 . S
O27 C36 1.240 1_554 S
O28 In26 2.326 1_556 S
O28 C36 1.252 . S
C29 O32 1.252 . S
C29 O33 1.260 1_545 S
C30 O37 1.240 1_545 S
C30 O38 1.252 . S
C31 O34 1.252 . S
C31 O35 1.301 . S
O32 In26 2.266 . S
O32 C29 1.252 . S
O33 In26 2.326 1_565 S
O33 C29 1.260 1_565 S
O34 In26 2.266 1_565 S
O34 C31 1.252 . S
O35 In26 2.330 1_565 S
O35 C31 1.301 . S
C36 O27 1.240 1_556 S
C36 O28 1.252 . S
O37 In26 2.294 1_566 S
O37 C30 1.240 1_565 S
O38 In26 2.326 1_556 S
O38 C30 1.252 . S
In39 O40 2.294 1_554 S
In39 O41 2.326 1_454 S
In39 O45 2.266 . S
In39 O46 2.326 . S
In39 O47 2.266 1_455 S
In39 O48 2.326 . S
In39 O50 2.294 1_455 S
In39 O51 2.326 1_454 S
O40 In39 2.294 1_556 S
O40 C49 1.240 . S
O41 In39 2.326 1_656 S
O41 C49 1.252 1_655 S
C42 O45 1.252 . S
C42 O46 1.260 . S
C43 O50 1.240 1_556 S
C43 O51 1.252 . S
C44 O47 1.252 1_455 S
C44 O48 1.260 . S
O45 In39 2.266 . S
O45 C42 1.252 . S
O46 In39 2.326 . S
O46 C42 1.260 . S
O47 In39 2.266 1_655 S
O47 C44 1.252 1_655 S
O48 In39 2.326 . S
O48 C44 1.260 . S
C49 O40 1.240 . S
C49 O41 1.252 1_455 S
O50 In39 2.294 1_655 S
O50 C43 1.240 1_554 S
O51 In39 2.326 1_656 S
O51 C43 1.252 . S
In52 O53 2.294 1_554 S
In52 O54 2.326 1_554 S
In52 O58 2.266 . S
In52 O59 2.326 . S
In52 O60 2.266 . S
In52 O61 2.326 . S
In52 O63 2.294 . S
In52 O64 2.326 1_554 S
O53 In52 2.294 1_556 S
O53 C62 1.240 . S
O54 In52 2.326 1_556 S
O54 C62 1.252 . S
C55 O58 1.252 . S
C55 O59 1.260 . S
C56 O63 1.240 1_556 S
C56 O64 1.252 . S
C57 O60 1.252 . S
C57 O61 1.260 . S
O58 In52 2.266 . S
O58 C55 1.252 . S
O59 In52 2.326 . S
O59 C55 1.260 . S
O60 In52 2.266 . S
O60 C57 1.252 . S
O61 In52 2.326 . S
O61 C57 1.260 . S
C62 O53 1.240 . S
C62 O54 1.252 . S
O63 In52 2.294 . S
O63 C56 1.240 1_554 S
O64 In52 2.326 1_556 S
O64 C56 1.252 . S
In65 O66 2.294 . S
In65 O67 2.326 1_545 S
In65 O71 2.266 . S
In65 O72 2.326 1_554 S
In65 O73 2.266 1_544 S
In65 O74 2.326 1_554 S
In65 O76 2.294 1_545 S
In65 O77 2.326 1_545 S
O66 In65 2.294 . S
O66 C75 1.240 . S
O67 In65 2.326 1_565 S
O67 C75 1.252 1_565 S
C68 O71 1.252 1_556 S
C68 O72 1.260 . S
C69 O76 1.240 . S
C69 O77 1.252 . S
C70 O73 1.252 1_545 S
C70 O74 1.260 . S
O71 In65 2.266 . S
O71 C68 1.252 1_554 S
O72 In65 2.326 1_556 S
O72 C68 1.260 . S
O73 In65 2.266 1_566 S
O73 C70 1.252 1_565 S
O74 In65 2.326 1_556 S
O74 C70 1.260 . S
C75 O66 1.240 . S
C75 O67 1.252 1_545 S
O76 In65 2.294 1_565 S
O76 C69 1.240 . S
O77 In65 2.326 1_565 S
O77 C69 1.252 . S
In78 O79 2.294 . S
In78 O80 2.326 . S
In78 O84 2.266 . S
In78 O85 2.326 . S
In78 O86 2.266 . S
In78 O87 2.326 . S
In78 O89 2.294 . S
In78 O90 2.326 . S
O79 In78 2.294 . S
O79 C88 1.240 . S
O80 In78 2.326 . S
O80 C88 1.252 . S
C81 O84 1.252 . S
C81 O85 1.260 . S
C82 O89 1.240 . S
C82 O90 1.252 . S
C83 O86 1.252 . S
C83 O87 1.260 . S
O84 In78 2.266 . S
O84 C81 1.252 . S
O85 In78 2.326 . S
O85 C81 1.260 . S
O86 In78 2.266 . S
O86 C83 1.252 . S
O87 In78 2.326 . S
O87 C83 1.260 . S
C88 O79 1.240 . S
C88 O80 1.252 . S
O89 In78 2.294 . S
O89 C82 1.240 . S
O90 In78 2.326 . S
O90 C82 1.252 . S
In91 O92 2.294 . S
In91 O93 2.326 . S
In91 O97 2.266 . S
In91 O98 2.326 . S
In91 O99 2.266 . S
In91 O100 2.326 . S
In91 O102 2.294 1_565 S
In91 O103 2.326 1_565 S
O92 In91 2.294 . S
O92 C101 1.240 . S
O93 In91 2.326 . S
O93 C101 1.252 . S
C94 O97 1.252 . S
C94 O98 1.260 . S
C95 O102 1.240 . S
C95 O103 1.252 . S
C96 O99 1.252 . S
C96 O100 1.260 . S
O97 In91 2.266 . S
O97 C94 1.252 . S
O98 In91 2.326 . S
O98 C94 1.260 . S
O99 In91 2.266 . S
O99 C96 1.252 . S
O100 In91 2.326 . S
O100 C96 1.260 . S
C101 O92 1.240 . S
C101 O93 1.252 . S
O102 In91 2.294 1_545 S
O102 C95 1.240 . S
O103 In91 2.326 1_545 S
O103 C95 1.252 . S
In104 O105 2.294 . S
In104 O106 2.326 . S
In104 O110 2.266 . S
In104 O111 2.326 . S
In104 O112 2.266 . S
In104 O113 2.326 . S
In104 O115 2.294 . S
In104 O116 2.326 . S
O105 In104 2.294 . S
O105 C114 1.240 . S
O106 In104 2.326 . S
O106 C114 1.252 . S
C107 O110 1.252 . S
C107 O111 1.260 . S
C108 O115 1.240 . S
C108 O116 1.252 . S
C109 O112 1.274 . S
C109 O113 1.261 . S
O110 In104 2.266 . S
O110 C107 1.252 . S
O111 In104 2.326 . S
O111 C107 1.260 . S
O112 In104 2.266 . S
O112 C109 1.274 . S
O113 In104 2.326 . S
O113 C109 1.261 . S
C114 O105 1.240 . S
C114 O106 1.252 . S
O115 In104 2.294 . S
O115 C108 1.240 . S
O116 In104 2.326 . S
O116 C108 1.252 . S
In117 O118 2.294 . S
In117 O119 2.326 . S
In117 O123 2.266 1_565 S
In117 O124 2.326 1_565 S
In117 O125 2.266 . S
In117 O126 2.326 . S
In117 O128 2.294 . S
In117 O129 2.326 . S
O118 In117 2.294 . S
O118 C127 1.240 . S
O119 In117 2.326 . S
O119 C127 1.252 . S
C120 O123 1.252 . S
C120 O124 1.260 . S
C121 O128 1.240 . S
C121 O129 1.252 . S
C122 O125 1.252 . S
C122 O126 1.260 . S
O123 In117 2.266 1_545 S
O123 C120 1.252 . S
O124 In117 2.326 1_545 S
O124 C120 1.260 . S
O125 In117 2.266 . S
O125 C122 1.252 . S
O126 In117 2.326 . S
O126 C122 1.260 . S
C127 O118 1.240 . S
C127 O119 1.252 . S
O128 In117 2.294 . S
O128 C121 1.240 . S
O129 In117 2.326 . S
O129 C121 1.252 . S
In130 O131 2.294 . S
In130 O132 2.326 . S
In130 O136 2.266 . S
In130 O137 2.326 . S
In130 O138 2.266 . S
In130 O139 2.326 . S
In130 O141 2.294 . S
In130 O142 2.326 . S
O131 In130 2.294 . S
O131 C140 1.240 . S
O132 In130 2.326 . S
O132 C140 1.252 . S
C133 O136 1.255 . S
C133 O137 1.282 . S
C134 O141 1.240 . S
C134 O142 1.252 . S
C135 O138 1.252 . S
C135 O139 1.260 . S
O136 In130 2.266 . S
O136 C133 1.255 . S
O137 In130 2.326 . S
O137 C133 1.282 . S
O138 In130 2.266 . S
O138 C135 1.252 . S
O139 In130 2.326 . S
O139 C135 1.260 . S
C140 O131 1.240 . S
C140 O132 1.252 . S
O141 In130 2.294 . S
O141 C134 1.240 . S
O142 In130 2.326 . S
O142 C134 1.252 . S
In143 O144 2.294 . S
In143 O145 2.326 . S
In143 O149 2.266 . S
In143 O150 2.326 . S
In143 O151 2.266 . S
In143 O152 2.326 . S
In143 O154 2.294 . S
In143 O155 2.326 . S
O144 In143 2.294 . S
O144 C153 1.240 . S
O145 In143 2.326 . S
O145 C153 1.252 . S
C146 O149 1.252 . S
C146 O150 1.260 . S
C147 O154 1.240 . S
C147 O155 1.252 . S
C148 O151 1.252 . S
C148 O152 1.260 . S
O149 In143 2.266 . S
O149 C146 1.252 . S
O150 In143 2.326 . S
O150 C146 1.260 . S
O151 In143 2.266 . S
O151 C148 1.252 . S
O152 In143 2.326 . S
O152 C148 1.260 . S
C153 O144 1.240 . S
C153 O145 1.252 . S
O154 In143 2.294 . S
O154 C147 1.240 . S
O155 In143 2.326 . S
O155 C147 1.252 . S
In156 O157 2.294 . S
In156 O158 2.326 . S
In156 O162 2.266 . S
In156 O163 2.326 . S
In156 O164 2.266 . S
In156 O165 2.326 . S
In156 O167 2.294 . S
In156 O168 2.326 . S
O157 In156 2.294 . S
O157 C166 1.240 . S
O158 In156 2.326 . S
O158 C166 1.252 . S
C159 O162 1.252 . S
C159 O163 1.260 . S
C160 O167 1.240 . S
C160 O168 1.252 . S
C161 O164 1.252 . S
C161 O165 1.260 . S
O162 In156 2.266 . S
O162 C159 1.252 . S
O163 In156 2.326 . S
O163 C159 1.260 . S
O164 In156 2.266 . S
O164 C161 1.252 . S
O165 In156 2.326 . S
O165 C161 1.260 . S
C166 O157 1.240 . S
C166 O158 1.252 . S
O167 In156 2.294 . S
O167 C160 1.240 . S
O168 In156 2.326 . S
O168 C160 1.252 . S
In169 O170 2.294 . S
In169 O171 2.326 . S
In169 O175 2.266 . S
In169 O176 2.326 . S
In169 O177 2.266 1_655 S
In169 O178 2.326 1_655 S
In169 O180 2.294 . S
In169 O181 2.326 . S
O170 In169 2.294 . S
O170 C179 1.240 . S
O171 In169 2.326 . S
O171 C179 1.252 . S
C172 O175 1.252 . S
C172 O176 1.260 . S
C173 O180 1.240 . S
C173 O181 1.252 . S
C174 O177 1.252 . S
C174 O178 1.260 . S
O175 In169 2.266 . S
O175 C172 1.252 . S
O176 In169 2.326 . S
O176 C172 1.260 . S
O177 In169 2.266 1_455 S
O177 C174 1.252 . S
O178 In169 2.326 1_455 S
O178 C174 1.260 . S
C179 O170 1.240 . S
C179 O171 1.252 . S
O180 In169 2.294 . S
O180 C173 1.240 . S
O181 In169 2.326 . S
O181 C173 1.252 . S
In182 O183 2.294 . S
In182 O184 2.326 . S
In182 O188 2.266 . S
In182 O189 2.326 . S
In182 O190 2.266 . S
In182 O191 2.326 . S
In182 O193 2.294 . S
In182 O194 2.326 . S
O183 In182 2.294 . S
O183 C192 1.240 . S
O184 In182 2.326 . S
O184 C192 1.252 . S
C185 O188 1.252 . S
C185 O189 1.260 . S
C186 O193 1.240 . S
C186 O194 1.252 . S
C187 O190 1.252 . S
C187 O191 1.260 . S
O188 In182 2.266 . S
O188 C185 1.252 . S
O189 In182 2.326 . S
O189 C185 1.260 . S
O190 In182 2.266 . S
O190 C187 1.252 . S
O191 In182 2.326 . S
O191 C187 1.260 . S
C192 O183 1.240 . S
C192 O184 1.252 . S
O193 In182 2.294 . S
O193 C186 1.240 . S
O194 In182 2.326 . S
O194 C186 1.252 . S
In195 O196 2.294 . S
In195 O197 2.326 . S
In195 O201 2.266 . S
In195 O202 2.326 . S
In195 O203 2.266 . S
In195 O204 2.326 . S
In195 O206 2.294 . S
In195 O207 2.326 . S
O196 In195 2.294 . S
O196 C205 1.240 . S
O197 In195 2.326 . S
O197 C205 1.252 . S
C198 O201 1.252 . S
C198 O202 1.260 . S
C199 O206 1.240 . S
C199 O207 1.252 . S
C200 O203 1.252 . S
C200 O204 1.260 . S
O201 In195 2.266 . S
O201 C198 1.252 . S
O202 In195 2.326 . S
O202 C198 1.260 . S
O203 In195 2.266 . S
O203 C200 1.252 . S
O204 In195 2.326 . S
O204 C200 1.260 . S
C205 O196 1.240 . S
C205 O197 1.252 . S
O206 In195 2.294 . S
O206 C199 1.240 . S
O207 In195 2.326 . S
O207 C199 1.252 . S
In208 O209 2.294 . S
In208 O210 2.326 . S
In208 O214 2.266 . S
In208 O215 2.326 . S
In208 O216 2.266 . S
In208 O217 2.326 . S
In208 O219 2.294 . S
In208 O220 2.326 . S
O209 In208 2.294 . S
O209 C218 1.240 . S
O210 In208 2.326 . S
O210 C218 1.252 . S
C211 O214 1.252 . S
C211 O215 1.260 . S
C212 O219 1.245 . S
C212 O220 1.286 . S
C213 O216 1.252 . S
C213 O217 1.260 . S
O214 In208 2.266 . S
O214 C211 1.252 . S
O215 In208 2.326 . S
O215 C211 1.260 . S
O216 In208 2.266 . S
O216 C213 1.252 . S
O217 In208 2.326 . S
O217 C213 1.260 . S
C218 O209 1.240 . S
C218 O210 1.252 . S
O219 In208 2.294 . S
O219 C212 1.245 . S
O220 In208 2.326 . S
O220 C212 1.286 . S
In221 O222 2.294 . S
In221 O223 2.326 . S
In221 O227 2.266 . S
In221 O228 2.326 . S
In221 O229 2.266 1_655 S
In221 O230 2.326 1_655 S
In221 O232 2.294 . S
In221 O233 2.326 . S
O222 In221 2.294 . S
O222 C231 1.240 . S
O223 In221 2.326 . S
O223 C231 1.252 . S
C224 O227 1.252 . S
C224 O228 1.260 . S
C225 O232 1.240 . S
C225 O233 1.252 . S
C226 O229 1.252 . S
C226 O230 1.260 . S
O227 In221 2.266 . S
O227 C224 1.252 . S
O228 In221 2.326 . S
O228 C224 1.260 . S
O229 In221 2.266 1_455 S
O229 C226 1.252 . S
O230 In221 2.326 1_455 S
O230 C226 1.260 . S
C231 O222 1.240 . S
C231 O223 1.252 . S
O232 In221 2.294 . S
O232 C225 1.240 . S
O233 In221 2.326 . S
O233 C225 1.252 . S
H234 C261 0.929 . S
N235 C260 1.433 . S
N235 C266 1.435 . S
N235 C272 1.423 . S
H236 C262 0.930 . S
H237 C265 0.931 . S
H238 C264 0.929 . S
H239 C267 0.930 . S
H240 C268 0.932 . S
H241 C271 0.929 . S
H242 C270 0.931 . S
H243 C273 0.929 . S
H244 C277 0.932 . S
H245 C274 0.931 . S
H246 C276 0.929 . S
H247 C279 0.929 . S
H248 C280 0.930 . S
H249 C282 0.929 . S
H250 C283 0.931 . S
H251 C285 0.930 . S
H252 C286 0.932 . S
H253 C288 0.931 . S
H254 C289 0.929 . S
H255 C291 0.929 . S
H256 C292 0.931 . S
H257 C294 0.929 . S
N258 C278 1.433 . S
N258 C284 1.435 . S
N258 C290 1.423 . S
H259 C295 0.932 . S
C260 N235 1.433 . S
C260 C261 1.363 . S
C260 C265 1.370 . S
C261 H234 0.929 . S
C261 C260 1.363 . S
C261 C262 1.385 . S
C262 H236 0.930 . S
C262 C261 1.385 . S
C262 C263 1.357 . S
C263 C262 1.357 . S
C263 C264 1.406 . S
C264 H238 0.929 . S
C264 C263 1.406 . S
C264 C265 1.391 . S
C265 H237 0.931 . S
C265 C260 1.370 . S
C265 C264 1.391 . S
C266 N235 1.435 . S
C266 C267 1.358 . S
C266 C271 1.371 . S
C267 H239 0.930 . S
C267 C266 1.358 . S
C267 C268 1.405 . S
C268 H240 0.932 . S
C268 C267 1.405 . S
C268 C269 1.383 . S
C269 C268 1.383 . S
C269 C270 1.393 . S
C270 H242 0.931 . S
C270 C269 1.393 . S
C270 C271 1.382 . S
C271 H241 0.929 . S
C271 C266 1.371 . S
C271 C270 1.382 . S
C272 N235 1.423 . S
C272 C273 1.362 . S
C272 C277 1.388 . S
C273 H243 0.929 . S
C273 C272 1.362 . S
C273 C274 1.376 . S
C274 H245 0.931 . S
C274 C273 1.376 . S
C274 C275 1.396 . S
C275 C274 1.396 . S
C275 C276 1.348 . S
C275 C293 1.472 . S
C276 H246 0.929 . S
C276 C275 1.348 . S
C276 C277 1.443 . S
C277 H244 0.932 . S
C277 C272 1.388 . S
C277 C276 1.443 . S
C278 N258 1.433 . S
C278 C279 1.363 . S
C278 C283 1.370 . S
C279 H247 0.929 . S
C279 C278 1.363 . S
C279 C280 1.385 . S
C280 H248 0.930 . S
C280 C279 1.385 . S
C280 C281 1.357 . S
C281 C280 1.357 . S
C281 C282 1.406 . S
C282 H249 0.929 . S
C282 C281 1.406 . S
C282 C283 1.391 . S
C283 H250 0.931 . S
C283 C278 1.370 . S
C283 C282 1.391 . S
C284 N258 1.435 . S
C284 C285 1.358 . S
C284 C289 1.371 . S
C285 H251 0.930 . S
C285 C284 1.358 . S
C285 C286 1.405 . S
C286 H252 0.932 . S
C286 C285 1.405 . S
C286 C287 1.383 . S
C287 C286 1.383 . S
C287 C288 1.393 . S
C288 H253 0.931 . S
C288 C287 1.393 . S
C288 C289 1.382 . S
C289 H254 0.929 . S
C289 C284 1.371 . S
C289 C288 1.382 . S
C290 N258 1.423 . S
C290 C291 1.362 . S
C290 C295 1.388 . S
C291 H255 0.929 . S
C291 C290 1.362 . S
C291 C292 1.376 . S
C292 H256 0.931 . S
C292 C291 1.376 . S
C292 C293 1.396 . S
C293 C275 1.472 . S
C293 C292 1.396 . S
C293 C294 1.348 . S
C294 H257 0.929 . S
C294 C293 1.348 . S
C294 C295 1.443 . S
C295 H259 0.932 . S
C295 C290 1.388 . S
C295 C294 1.443 . S
H296 C323 0.929 . S
N297 C322 1.433 . S
N297 C328 1.435 . S
N297 C334 1.423 . S
H298 C324 0.930 . S
H299 C327 0.931 . S
H300 C326 0.929 . S
H301 C329 0.930 . S
H302 C330 0.932 . S
H303 C333 0.929 . S
H304 C332 0.931 . S
H305 C335 0.929 . S
H306 C339 0.932 . S
H307 C336 0.931 . S
H308 C338 0.929 . S
H309 C341 0.929 . S
H310 C342 0.930 . S
H311 C344 0.929 . S
H312 C345 0.931 . S
H313 C347 0.930 . S
H314 C348 0.932 . S
H315 C350 0.931 . S
H316 C351 0.929 . S
H317 C353 0.929 . S
H318 C354 0.931 . S
H319 C356 0.929 . S
N320 C340 1.433 . S
N320 C346 1.435 . S
N320 C352 1.423 . S
H321 C357 0.932 . S
C322 N297 1.433 . S
C322 C323 1.363 . S
C322 C327 1.370 . S
C323 H296 0.929 . S
C323 C322 1.363 . S
C323 C324 1.385 . S
C324 H298 0.930 . S
C324 C323 1.385 . S
C324 C325 1.357 . S
C325 C324 1.357 . S
C325 C326 1.406 . S
C326 H300 0.929 . S
C326 C325 1.406 . S
C326 C327 1.391 . S
C327 H299 0.931 . S
C327 C322 1.370 . S
C327 C326 1.391 . S
C328 N297 1.435 . S
C328 C329 1.358 . S
C328 C333 1.371 . S
C329 H301 0.930 . S
C329 C328 1.358 . S
C329 C330 1.405 . S
C330 H302 0.932 . S
C330 C329 1.405 . S
C330 C331 1.383 . S
C331 C330 1.383 . S
C331 C332 1.393 . S
C332 H304 0.931 . S
C332 C331 1.393 . S
C332 C333 1.382 . S
C333 H303 0.929 . S
C333 C328 1.371 . S
C333 C332 1.382 . S
C334 N297 1.423 . S
C334 C335 1.362 . S
C334 C339 1.388 . S
C335 H305 0.929 . S
C335 C334 1.362 . S
C335 C336 1.376 . S
C336 H307 0.931 . S
C336 C335 1.376 . S
C336 C337 1.396 . S
C337 C336 1.396 . S
C337 C338 1.348 . S
C337 C355 1.472 . S
C338 H308 0.929 . S
C338 C337 1.348 . S
C338 C339 1.443 . S
C339 H306 0.932 . S
C339 C334 1.388 . S
C339 C338 1.443 . S
C340 N320 1.433 . S
C340 C341 1.363 . S
C340 C345 1.370 . S
C341 H309 0.929 . S
C341 C340 1.363 . S
C341 C342 1.385 . S
C342 H310 0.930 . S
C342 C341 1.385 . S
C342 C343 1.357 . S
C343 C342 1.357 . S
C343 C344 1.406 . S
C344 H311 0.929 . S
C344 C343 1.406 . S
C344 C345 1.391 . S
C345 H312 0.931 . S
C345 C340 1.370 . S
C345 C344 1.391 . S
C346 N320 1.435 . S
C346 C347 1.358 . S
C346 C351 1.371 . S
C347 H313 0.930 . S
C347 C346 1.358 . S
C347 C348 1.405 . S
C348 H314 0.932 . S
C348 C347 1.405 . S
C348 C349 1.383 . S
C349 C348 1.383 . S
C349 C350 1.393 . S
C350 H315 0.931 . S
C350 C349 1.393 . S
C350 C351 1.382 . S
C351 H316 0.929 . S
C351 C346 1.371 . S
C351 C350 1.382 . S
C352 N320 1.423 . S
C352 C353 1.362 . S
C352 C357 1.388 . S
C353 H317 0.929 . S
C353 C352 1.362 . S
C353 C354 1.376 . S
C354 H318 0.931 . S
C354 C353 1.376 . S
C354 C355 1.396 . S
C355 C337 1.472 . S
C355 C354 1.396 . S
C355 C356 1.348 . S
C356 H319 0.929 . S
C356 C355 1.348 . S
C356 C357 1.443 . S
C357 H321 0.932 . S
C357 C352 1.388 . S
C357 C356 1.443 . S
H358 C385 0.929 . S
N359 C384 1.433 . S
N359 C390 1.435 . S
N359 C396 1.423 . S
H360 C386 0.930 . S
H361 C389 0.931 . S
H362 C388 0.929 . S
H363 C391 0.930 . S
H364 C392 0.932 . S
H365 C395 0.929 . S
H366 C394 0.931 . S
H367 C397 0.929 . S
H368 C401 0.932 . S
H369 C398 0.931 . S
H370 C400 0.929 . S
H371 C403 0.929 . S
H372 C404 0.930 . S
H373 C406 0.929 . S
H374 C407 0.931 . S
H375 C409 0.930 . S
H376 C410 0.932 . S
H377 C412 0.931 . S
H378 C413 0.929 . S
H379 C415 0.929 . S
H380 C416 0.931 . S
H381 C418 0.929 . S
N382 C402 1.433 . S
N382 C408 1.435 . S
N382 C414 1.423 . S
H383 C419 0.932 . S
C384 N359 1.433 . S
C384 C385 1.363 . S
C384 C389 1.370 . S
C385 H358 0.929 . S
C385 C384 1.363 . S
C385 C386 1.385 . S
C386 H360 0.930 . S
C386 C385 1.385 . S
C386 C387 1.357 . S
C387 C386 1.357 . S
C387 C388 1.406 . S
C388 H362 0.929 . S
C388 C387 1.406 . S
C388 C389 1.391 . S
C389 H361 0.931 . S
C389 C384 1.370 . S
C389 C388 1.391 . S
C390 N359 1.435 . S
C390 C391 1.358 . S
C390 C395 1.371 . S
C391 H363 0.930 . S
C391 C390 1.358 . S
C391 C392 1.405 . S
C392 H364 0.932 . S
C392 C391 1.405 . S
C392 C393 1.383 . S
C393 C392 1.383 . S
C393 C394 1.393 . S
C394 H366 0.931 . S
C394 C393 1.393 . S
C394 C395 1.382 . S
C395 H365 0.929 . S
C395 C390 1.371 . S
C395 C394 1.382 . S
C396 N359 1.423 . S
C396 C397 1.362 . S
C396 C401 1.388 . S
C397 H367 0.929 . S
C397 C396 1.362 . S
C397 C398 1.376 . S
C398 H369 0.931 . S
C398 C397 1.376 . S
C398 C399 1.396 . S
C399 C398 1.396 . S
C399 C400 1.348 . S
C399 C417 1.472 . S
C400 H370 0.929 . S
C400 C399 1.348 . S
C400 C401 1.443 . S
C401 H368 0.932 . S
C401 C396 1.388 . S
C401 C400 1.443 . S
C402 N382 1.433 . S
C402 C403 1.363 . S
C402 C407 1.370 . S
C403 H371 0.929 . S
C403 C402 1.363 . S
C403 C404 1.385 . S
C404 H372 0.930 . S
C404 C403 1.385 . S
C404 C405 1.357 . S
C405 C404 1.357 . S
C405 C406 1.406 . S
C406 H373 0.929 . S
C406 C405 1.406 . S
C406 C407 1.391 . S
C407 H374 0.931 . S
C407 C402 1.370 . S
C407 C406 1.391 . S
C408 N382 1.435 . S
C408 C409 1.358 . S
C408 C413 1.371 . S
C409 H375 0.930 . S
C409 C408 1.358 . S
C409 C410 1.405 . S
C410 H376 0.932 . S
C410 C409 1.405 . S
C410 C411 1.383 . S
C411 C410 1.383 . S
C411 C412 1.393 . S
C412 H377 0.931 . S
C412 C411 1.393 . S
C412 C413 1.382 . S
C413 H378 0.929 . S
C413 C408 1.371 . S
C413 C412 1.382 . S
C414 N382 1.423 . S
C414 C415 1.362 . S
C414 C419 1.388 . S
C415 H379 0.929 . S
C415 C414 1.362 . S
C415 C416 1.376 . S
C416 H380 0.931 . S
C416 C415 1.376 . S
C416 C417 1.396 . S
C417 C399 1.472 . S
C417 C416 1.396 . S
C417 C418 1.348 . S
C418 H381 0.929 . S
C418 C417 1.348 . S
C418 C419 1.443 . S
C419 H383 0.932 . S
C419 C414 1.388 . S
C419 C418 1.443 . S
H420 C447 0.929 . S
N421 C446 1.433 . S
N421 C452 1.435 . S
N421 C458 1.423 . S
H422 C448 0.930 . S
H423 C451 0.931 . S
H424 C450 0.929 . S
H425 C453 0.930 . S
H426 C454 0.932 . S
H427 C457 0.929 . S
H428 C456 0.931 . S
H429 C459 0.929 . S
H430 C463 0.932 . S
H431 C460 0.931 . S
H432 C462 0.929 . S
H433 C465 0.929 . S
H434 C466 0.930 . S
H435 C468 0.929 . S
H436 C469 0.931 . S
H437 C471 0.930 . S
H438 C472 0.932 . S
H439 C474 0.931 . S
H440 C475 0.929 . S
H441 C477 0.929 . S
H442 C478 0.931 . S
H443 C480 0.929 . S
N444 C464 1.433 . S
N444 C470 1.435 . S
N444 C476 1.423 . S
H445 C481 0.932 . S
C446 N421 1.433 . S
C446 C447 1.363 . S
C446 C451 1.370 . S
C447 H420 0.929 . S
C447 C446 1.363 . S
C447 C448 1.385 . S
C448 H422 0.930 . S
C448 C447 1.385 . S
C448 C449 1.357 . S
C449 C448 1.357 . S
C449 C450 1.406 . S
C450 H424 0.929 . S
C450 C449 1.406 . S
C450 C451 1.391 . S
C451 H423 0.931 . S
C451 C446 1.370 . S
C451 C450 1.391 . S
C452 N421 1.435 . S
C452 C453 1.358 . S
C452 C457 1.371 . S
C453 H425 0.930 . S
C453 C452 1.358 . S
C453 C454 1.405 . S
C454 H426 0.932 . S
C454 C453 1.405 . S
C454 C455 1.383 . S
C455 C454 1.383 . S
C455 C456 1.393 . S
C456 H428 0.931 . S
C456 C455 1.393 . S
C456 C457 1.382 . S
C457 H427 0.929 . S
C457 C452 1.371 . S
C457 C456 1.382 . S
C458 N421 1.423 . S
C458 C459 1.362 . S
C458 C463 1.388 . S
C459 H429 0.929 . S
C459 C458 1.362 . S
C459 C460 1.376 . S
C460 H431 0.931 . S
C460 C459 1.376 . S
C460 C461 1.396 . S
C461 C460 1.396 . S
C461 C462 1.348 . S
C461 C479 1.472 . S
C462 H432 0.929 . S
C462 C461 1.348 . S
C462 C463 1.443 . S
C463 H430 0.932 . S
C463 C458 1.388 . S
C463 C462 1.443 . S
C464 N444 1.433 . S
C464 C465 1.363 . S
C464 C469 1.370 . S
C465 H433 0.929 . S
C465 C464 1.363 . S
C465 C466 1.385 . S
C466 H434 0.930 . S
C466 C465 1.385 . S
C466 C467 1.357 . S
C467 C466 1.357 . S
C467 C468 1.406 . S
C468 H435 0.929 . S
C468 C467 1.406 . S
C468 C469 1.391 . S
C469 H436 0.931 . S
C469 C464 1.370 . S
C469 C468 1.391 . S
C470 N444 1.435 . S
C470 C471 1.358 . S
C470 C475 1.371 . S
C471 H437 0.930 . S
C471 C470 1.358 . S
C471 C472 1.405 . S
C472 H438 0.932 . S
C472 C471 1.405 . S
C472 C473 1.383 . S
C473 C472 1.383 . S
C473 C474 1.393 . S
C474 H439 0.931 . S
C474 C473 1.393 . S
C474 C475 1.382 . S
C475 H440 0.929 . S
C475 C470 1.371 . S
C475 C474 1.382 . S
C476 N444 1.423 . S
C476 C477 1.362 . S
C476 C481 1.388 . S
C477 H441 0.929 . S
C477 C476 1.362 . S
C477 C478 1.376 . S
C478 H442 0.931 . S
C478 C477 1.376 . S
C478 C479 1.396 . S
C479 C461 1.472 . S
C479 C478 1.396 . S
C479 C480 1.348 . S
C480 H443 0.929 . S
C480 C479 1.348 . S
C480 C481 1.443 . S
C481 H445 0.932 . S
C481 C476 1.388 . S
C481 C480 1.443 . S
H482 C509 0.929 . S
N483 C508 1.433 . S
N483 C514 1.435 . S
N483 C520 1.423 . S
H484 C510 0.930 . S
H485 C513 0.931 . S
H486 C512 0.929 . S
H487 C515 0.930 . S
H488 C516 0.932 . S
H489 C519 0.929 . S
H490 C518 0.931 . S
H491 C521 0.929 . S
H492 C525 0.932 . S
H493 C522 0.931 . S
H494 C524 0.929 . S
H495 C527 0.929 . S
H496 C528 0.930 . S
H497 C530 0.929 . S
H498 C531 0.931 . S
H499 C533 0.930 . S
H500 C534 0.932 . S
H501 C536 0.931 . S
H502 C537 0.929 . S
H503 C539 0.929 . S
H504 C540 0.931 . S
H505 C542 0.929 . S
N506 C526 1.433 . S
N506 C532 1.435 . S
N506 C538 1.423 . S
H507 C543 0.932 . S
C508 N483 1.433 . S
C508 C509 1.363 . S
C508 C513 1.370 . S
C509 H482 0.929 . S
C509 C508 1.363 . S
C509 C510 1.385 . S
C510 H484 0.930 . S
C510 C509 1.385 . S
C510 C511 1.357 . S
C511 C510 1.357 . S
C511 C512 1.406 . S
C512 H486 0.929 . S
C512 C511 1.406 . S
C512 C513 1.391 . S
C513 H485 0.931 . S
C513 C508 1.370 . S
C513 C512 1.391 . S
C514 N483 1.435 . S
C514 C515 1.358 . S
C514 C519 1.371 . S
C515 H487 0.930 . S
C515 C514 1.358 . S
C515 C516 1.405 . S
C516 H488 0.932 . S
C516 C515 1.405 . S
C516 C517 1.383 . S
C517 C516 1.383 . S
C517 C518 1.393 . S
C518 H490 0.931 . S
C518 C517 1.393 . S
C518 C519 1.382 . S
C519 H489 0.929 . S
C519 C514 1.371 . S
C519 C518 1.382 . S
C520 N483 1.423 . S
C520 C521 1.362 . S
C520 C525 1.388 . S
C521 H491 0.929 . S
C521 C520 1.362 . S
C521 C522 1.376 . S
C522 H493 0.931 . S
C522 C521 1.376 . S
C522 C523 1.396 . S
C523 C522 1.396 . S
C523 C524 1.348 . S
C523 C541 1.472 . S
C524 H494 0.929 . S
C524 C523 1.348 . S
C524 C525 1.443 . S
C525 H492 0.932 . S
C525 C520 1.388 . S
C525 C524 1.443 . S
C526 N506 1.433 . S
C526 C527 1.363 . S
C526 C531 1.370 . S
C527 H495 0.929 . S
C527 C526 1.363 . S
C527 C528 1.385 . S
C528 H496 0.930 . S
C528 C527 1.385 . S
C528 C529 1.357 . S
C529 C528 1.357 . S
C529 C530 1.406 . S
C530 H497 0.929 . S
C530 C529 1.406 . S
C530 C531 1.391 . S
C531 H498 0.931 . S
C531 C526 1.370 . S
C531 C530 1.391 . S
C532 N506 1.435 . S
C532 C533 1.358 . S
C532 C537 1.371 . S
C533 H499 0.930 . S
C533 C532 1.358 . S
C533 C534 1.405 . S
C534 H500 0.932 . S
C534 C533 1.405 . S
C534 C535 1.383 . S
C535 C534 1.383 . S
C535 C536 1.393 . S
C536 H501 0.931 . S
C536 C535 1.393 . S
C536 C537 1.382 . S
C537 H502 0.929 . S
C537 C532 1.371 . S
C537 C536 1.382 . S
C538 N506 1.423 . S
C538 C539 1.362 . S
C538 C543 1.388 . S
C539 H503 0.929 . S
C539 C538 1.362 . S
C539 C540 1.376 . S
C540 H504 0.931 . S
C540 C539 1.376 . S
C540 C541 1.396 . S
C541 C523 1.472 . S
C541 C540 1.396 . S
C541 C542 1.348 . S
C542 H505 0.929 . S
C542 C541 1.348 . S
C542 C543 1.443 . S
C543 H507 0.932 . S
C543 C538 1.388 . S
C543 C542 1.443 . S
H544 C571 0.929 . S
N545 C570 1.433 . S
N545 C576 1.435 . S
N545 C582 1.423 . S
H546 C572 0.930 . S
H547 C575 0.931 . S
H548 C574 0.929 . S
H549 C577 0.930 . S
H550 C578 0.932 . S
H551 C581 0.929 . S
H552 C580 0.928 1_554 S
H553 C583 0.929 . S
H554 C587 0.932 . S
H555 C584 0.931 . S
H556 C586 0.929 . S
H557 C589 0.929 . S
H558 C590 0.930 . S
H559 C592 0.929 . S
H560 C593 0.931 . S
H561 C595 0.930 . S
H562 C596 0.932 . S
H563 C598 0.925 1_554 S
H564 C599 0.929 . S
H565 C601 0.929 . S
H566 C602 0.931 . S
H567 C604 0.929 . S
N568 C588 1.433 . S
N568 C594 1.435 . S
N568 C600 1.423 . S
H569 C605 0.932 . S
C570 N545 1.433 . S
C570 C571 1.363 . S
C570 C575 1.370 . S
C571 H544 0.929 . S
C571 C570 1.363 . S
C571 C572 1.385 . S
C572 H546 0.930 . S
C572 C571 1.385 . S
C572 C573 1.357 . S
C573 C572 1.357 . S
C573 C574 1.406 . S
C574 H548 0.929 . S
C574 C573 1.406 . S
C574 C575 1.391 . S
C575 H547 0.931 . S
C575 C570 1.370 . S
C575 C574 1.391 . S
C576 N545 1.435 . S
C576 C577 1.358 . S
C576 C581 1.371 . S
C577 H549 0.930 . S
C577 C576 1.358 . S
C577 C578 1.405 . S
C578 H550 0.932 . S
C578 C577 1.405 . S
C578 C579 1.383 . S
C579 C578 1.383 . S
C579 C580 1.393 . S
C580 H552 0.928 1_556 S
C580 C579 1.393 . S
C580 C581 1.382 . S
C581 H551 0.929 . S
C581 C576 1.371 . S
C581 C580 1.382 . S
C582 N545 1.423 . S
C582 C583 1.362 . S
C582 C587 1.388 . S
C583 H553 0.929 . S
C583 C582 1.362 . S
C583 C584 1.376 . S
C584 H555 0.931 . S
C584 C583 1.376 . S
C584 C585 1.396 . S
C585 C584 1.396 . S
C585 C586 1.348 . S
C585 C603 1.472 . S
C586 H556 0.929 . S
C586 C585 1.348 . S
C586 C587 1.443 . S
C587 H554 0.932 . S
C587 C582 1.388 . S
C587 C586 1.443 . S
C588 N568 1.433 . S
C588 C589 1.363 . S
C588 C593 1.370 . S
C589 H557 0.929 . S
C589 C588 1.363 . S
C589 C590 1.385 . S
C590 H558 0.930 . S
C590 C589 1.385 . S
C590 C591 1.357 . S
C591 C590 1.357 . S
C591 C592 1.406 . S
C592 H559 0.929 . S
C592 C591 1.406 . S
C592 C593 1.391 . S
C593 H560 0.931 . S
C593 C588 1.370 . S
C593 C592 1.391 . S
C594 N568 1.435 . S
C594 C595 1.358 . S
C594 C599 1.371 . S
C595 H561 0.930 . S
C595 C594 1.358 . S
C595 C596 1.405 . S
C596 H562 0.932 . S
C596 C595 1.405 . S
C596 C597 1.383 . S
C597 C596 1.383 . S
C597 C598 1.393 . S
C598 H563 0.925 1_556 S
C598 C597 1.393 . S
C598 C599 1.382 . S
C599 H564 0.929 . S
C599 C594 1.371 . S
C599 C598 1.382 . S
C600 N568 1.423 . S
C600 C601 1.362 . S
C600 C605 1.388 . S
C601 H565 0.929 . S
C601 C600 1.362 . S
C601 C602 1.376 . S
C602 H566 0.931 . S
C602 C601 1.376 . S
C602 C603 1.396 . S
C603 C585 1.472 . S
C603 C602 1.396 . S
C603 C604 1.348 . S
C604 H567 0.929 . S
C604 C603 1.348 . S
C604 C605 1.443 . S
C605 H569 0.932 . S
C605 C600 1.388 . S
C605 C604 1.443 . S
H606 C633 0.929 . S
N607 C632 1.433 . S
N607 C638 1.435 . S
N607 C644 1.423 . S
H608 C634 0.930 . S
H609 C637 0.931 . S
H610 C636 0.929 . S
H611 C639 0.930 . S
H612 C640 0.932 . S
H613 C643 0.929 . S
H614 C642 0.931 . S
H615 C645 0.929 . S
H616 C649 0.932 . S
H617 C646 0.931 . S
H618 C648 0.929 . S
H619 C651 0.929 . S
H620 C652 0.930 . S
H621 C654 0.929 . S
H622 C655 0.931 . S
H623 C657 0.930 . S
H624 C658 0.932 1_455 S
H625 C660 0.931 . S
H626 C661 0.929 . S
H627 C663 0.929 . S
H628 C664 0.931 . S
H629 C666 0.929 . S
N630 C650 1.433 . S
N630 C656 1.435 . S
N630 C662 1.423 . S
H631 C667 0.932 . S
C632 N607 1.433 . S
C632 C633 1.363 . S
C632 C637 1.370 . S
C633 H606 0.929 . S
C633 C632 1.363 . S
C633 C634 1.385 . S
C634 H608 0.930 . S
C634 C633 1.385 . S
C634 C635 1.357 . S
C635 C634 1.357 . S
C635 C636 1.406 . S
C636 H610 0.929 . S
C636 C635 1.406 . S
C636 C637 1.391 . S
C637 H609 0.931 . S
C637 C632 1.370 . S
C637 C636 1.391 . S
C638 N607 1.435 . S
C638 C639 1.358 . S
C638 C643 1.371 . S
C639 H611 0.930 . S
C639 C638 1.358 . S
C639 C640 1.405 . S
C640 H612 0.932 . S
C640 C639 1.405 . S
C640 C641 1.383 . S
C641 C640 1.383 . S
C641 C642 1.393 . S
C642 H614 0.931 . S
C642 C641 1.393 . S
C642 C643 1.382 . S
C643 H613 0.929 . S
C643 C638 1.371 . S
C643 C642 1.382 . S
C644 N607 1.423 . S
C644 C645 1.362 . S
C644 C649 1.388 . S
C645 H615 0.929 . S
C645 C644 1.362 . S
C645 C646 1.376 . S
C646 H617 0.931 . S
C646 C645 1.376 . S
C646 C647 1.396 . S
C647 C646 1.396 . S
C647 C648 1.348 . S
C647 C665 1.472 . S
C648 H618 0.929 . S
C648 C647 1.348 . S
C648 C649 1.443 . S
C649 H616 0.932 . S
C649 C644 1.388 . S
C649 C648 1.443 . S
C650 N630 1.433 . S
C650 C651 1.363 . S
C650 C655 1.370 . S
C651 H619 0.929 . S
C651 C650 1.363 . S
C651 C652 1.385 . S
C652 H620 0.930 . S
C652 C651 1.385 . S
C652 C653 1.357 . S
C653 C652 1.357 . S
C653 C654 1.406 . S
C654 H621 0.929 . S
C654 C653 1.406 . S
C654 C655 1.391 . S
C655 H622 0.931 . S
C655 C650 1.370 . S
C655 C654 1.391 . S
C656 N630 1.435 . S
C656 C657 1.358 . S
C656 C661 1.371 . S
C657 H623 0.930 . S
C657 C656 1.358 . S
C657 C658 1.405 . S
C658 H624 0.932 1_655 S
C658 C657 1.405 . S
C658 C659 1.383 . S
C659 C658 1.383 . S
C659 C660 1.393 . S
C660 H625 0.931 . S
C660 C659 1.393 . S
C660 C661 1.382 . S
C661 H626 0.929 . S
C661 C656 1.371 . S
C661 C660 1.382 . S
C662 N630 1.423 . S
C662 C663 1.362 . S
C662 C667 1.388 . S
C663 H627 0.929 . S
C663 C662 1.362 . S
C663 C664 1.376 . S
C664 H628 0.931 . S
C664 C663 1.376 . S
C664 C665 1.396 . S
C665 C647 1.472 . S
C665 C664 1.396 . S
C665 C666 1.348 . S
C666 H629 0.929 . S
C666 C665 1.348 . S
C666 C667 1.443 . S
C667 H631 0.932 . S
C667 C662 1.388 . S
C667 C666 1.443 . S
H668 C695 0.929 . S
N669 C694 1.433 . S
N669 C700 1.435 . S
N669 C706 1.423 . S
H670 C696 0.930 . S
H671 C699 0.931 . S
H672 C698 0.929 . S
H673 C701 0.930 . S
H674 C702 0.932 . S
H675 C705 0.929 . S
H676 C704 0.931 . S
H677 C707 0.929 . S
H678 C711 0.932 . S
H679 C708 0.931 . S
H680 C710 0.929 . S
H681 C713 0.929 . S
H682 C714 0.930 . S
H683 C716 0.929 . S
H684 C717 0.931 . S
H685 C719 0.930 . S
H686 C720 0.932 . S
H687 C722 0.931 . S
H688 C723 0.929 . S
H689 C725 0.929 . S
H690 C726 0.931 . S
H691 C728 0.929 . S
N692 C712 1.433 . S
N692 C718 1.435 . S
N692 C724 1.423 . S
H693 C729 0.932 . S
C694 N669 1.433 . S
C694 C695 1.363 . S
C694 C699 1.370 . S
C695 H668 0.929 . S
C695 C694 1.363 . S
C695 C696 1.385 . S
C696 H670 0.930 . S
C696 C695 1.385 . S
C696 C697 1.357 . S
C697 C696 1.357 . S
C697 C698 1.406 . S
C698 H672 0.929 . S
C698 C697 1.406 . S
C698 C699 1.391 . S
C699 H671 0.931 . S
C699 C694 1.370 . S
C699 C698 1.391 . S
C700 N669 1.435 . S
C700 C701 1.358 . S
C700 C705 1.371 . S
C701 H673 0.930 . S
C701 C700 1.358 . S
C701 C702 1.405 . S
C702 H674 0.932 . S
C702 C701 1.405 . S
C702 C703 1.383 . S
C703 C702 1.383 . S
C703 C704 1.393 . S
C704 H676 0.931 . S
C704 C703 1.393 . S
C704 C705 1.382 . S
C705 H675 0.929 . S
C705 C700 1.371 . S
C705 C704 1.382 . S
C706 N669 1.423 . S
C706 C707 1.362 . S
C706 C711 1.388 . S
C707 H677 0.929 . S
C707 C706 1.362 . S
C707 C708 1.376 . S
C708 H679 0.931 . S
C708 C707 1.376 . S
C708 C709 1.396 . S
C709 C708 1.396 . S
C709 C710 1.348 . S
C709 C727 1.472 . S
C710 H680 0.929 . S
C710 C709 1.348 . S
C710 C711 1.443 . S
C711 H678 0.932 . S
C711 C706 1.388 . S
C711 C710 1.443 . S
C712 N692 1.433 . S
C712 C713 1.363 . S
C712 C717 1.370 . S
C713 H681 0.929 . S
C713 C712 1.363 . S
C713 C714 1.385 . S
C714 H682 0.930 . S
C714 C713 1.385 . S
C714 C715 1.357 . S
C715 C714 1.357 . S
C715 C716 1.406 . S
C716 H683 0.929 . S
C716 C715 1.406 . S
C716 C717 1.391 . S
C717 H684 0.931 . S
C717 C712 1.370 . S
C717 C716 1.391 . S
C718 N692 1.435 . S
C718 C719 1.358 . S
C718 C723 1.371 . S
C719 H685 0.930 . S
C719 C718 1.358 . S
C719 C720 1.405 . S
C720 H686 0.932 . S
C720 C719 1.405 . S
C720 C721 1.383 . S
C721 C720 1.383 . S
C721 C722 1.393 . S
C722 H687 0.931 . S
C722 C721 1.393 . S
C722 C723 1.382 . S
C723 H688 0.929 . S
C723 C718 1.371 . S
C723 C722 1.382 . S
C724 N692 1.423 . S
C724 C725 1.362 . S
C724 C729 1.388 . S
C725 H689 0.929 . S
C725 C724 1.362 . S
C725 C726 1.376 . S
C726 H690 0.931 . S
C726 C725 1.376 . S
C726 C727 1.396 . S
C727 C709 1.472 . S
C727 C726 1.396 . S
C727 C728 1.348 . S
C728 H691 0.929 . S
C728 C727 1.348 . S
C728 C729 1.443 . S
C729 H693 0.932 . S
C729 C724 1.388 . S
C729 C728 1.443 . S
H730 C757 0.929 . S
N731 C756 1.433 . S
N731 C762 1.435 . S
N731 C768 1.423 . S
H732 C758 0.930 . S
H733 C761 0.931 . S
H734 C760 0.929 . S
H735 C763 0.930 . S
H736 C764 0.932 . S
H737 C767 0.929 . S
H738 C766 0.931 . S
H739 C769 0.929 . S
H740 C773 0.932 . S
H741 C770 0.931 . S
H742 C772 0.929 . S
H743 C775 0.929 . S
H744 C776 0.930 . S
H745 C778 0.929 . S
H746 C779 0.931 . S
H747 C781 0.930 . S
H748 C782 0.932 . S
H749 C784 0.931 . S
H750 C785 0.929 . S
H751 C787 0.929 . S
H752 C788 0.931 . S
H753 C790 0.929 . S
N754 C774 1.433 . S
N754 C780 1.435 . S
N754 C786 1.423 . S
H755 C791 0.932 . S
C756 N731 1.433 . S
C756 C757 1.363 . S
C756 C761 1.370 . S
C757 H730 0.929 . S
C757 C756 1.363 . S
C757 C758 1.385 . S
C758 H732 0.930 . S
C758 C757 1.385 . S
C758 C759 1.357 . S
C759 C758 1.357 . S
C759 C760 1.406 . S
C760 H734 0.929 . S
C760 C759 1.406 . S
C760 C761 1.391 . S
C761 H733 0.931 . S
C761 C756 1.370 . S
C761 C760 1.391 . S
C762 N731 1.435 . S
C762 C763 1.358 . S
C762 C767 1.371 . S
C763 H735 0.930 . S
C763 C762 1.358 . S
C763 C764 1.405 . S
C764 H736 0.932 . S
C764 C763 1.405 . S
C764 C765 1.383 . S
C765 C764 1.383 . S
C765 C766 1.393 . S
C766 H738 0.931 . S
C766 C765 1.393 . S
C766 C767 1.382 . S
C767 H737 0.929 . S
C767 C762 1.371 . S
C767 C766 1.382 . S
C768 N731 1.423 . S
C768 C769 1.362 . S
C768 C773 1.388 . S
C769 H739 0.929 . S
C769 C768 1.362 . S
C769 C770 1.376 . S
C770 H741 0.931 . S
C770 C769 1.376 . S
C770 C771 1.396 . S
C771 C770 1.396 . S
C771 C772 1.348 . S
C771 C789 1.472 . S
C772 H742 0.929 . S
C772 C771 1.348 . S
C772 C773 1.443 . S
C773 H740 0.932 . S
C773 C768 1.388 . S
C773 C772 1.443 . S
C774 N754 1.433 . S
C774 C775 1.363 . S
C774 C779 1.370 . S
C775 H743 0.929 . S
C775 C774 1.363 . S
C775 C776 1.385 . S
C776 H744 0.930 . S
C776 C775 1.385 . S
C776 C777 1.357 . S
C777 C776 1.357 . S
C777 C778 1.406 . S
C778 H745 0.929 . S
C778 C777 1.406 . S
C778 C779 1.391 . S
C779 H746 0.931 . S
C779 C774 1.370 . S
C779 C778 1.391 . S
C780 N754 1.435 . S
C780 C781 1.358 . S
C780 C785 1.371 . S
C781 H747 0.930 . S
C781 C780 1.358 . S
C781 C782 1.405 . S
C782 H748 0.932 . S
C782 C781 1.405 . S
C782 C783 1.383 . S
C783 C782 1.383 . S
C783 C784 1.393 . S
C784 H749 0.931 . S
C784 C783 1.393 . S
C784 C785 1.382 . S
C785 H750 0.929 . S
C785 C780 1.371 . S
C785 C784 1.382 . S
C786 N754 1.423 . S
C786 C787 1.362 . S
C786 C791 1.388 . S
C787 H751 0.929 . S
C787 C786 1.362 . S
C787 C788 1.376 . S
C788 H752 0.931 . S
C788 C787 1.376 . S
C788 C789 1.396 . S
C789 C771 1.472 . S
C789 C788 1.396 . S
C789 C790 1.348 . S
C790 H753 0.929 . S
C790 C789 1.348 . S
C790 C791 1.443 . S
C791 H755 0.932 . S
C791 C786 1.388 . S
C791 C790 1.443 . S
H792 C819 0.929 . S
N793 C818 1.433 . S
N793 C824 1.435 . S
N793 C830 1.423 . S
H794 C820 0.930 . S
H795 C823 0.931 . S
H796 C822 0.929 1_655 S
H797 C825 0.930 . S
H798 C826 0.932 . S
H799 C829 0.929 . S
H800 C828 0.931 . S
H801 C831 0.929 . S
H802 C835 0.932 . S
H803 C832 0.931 . S
H804 C834 0.929 . S
H805 C837 0.929 . S
H806 C838 0.930 . S
H807 C840 0.929 1_655 S
H808 C841 0.931 . S
H809 C843 0.930 . S
H810 C844 0.932 . S
H811 C846 0.931 . S
H812 C847 0.929 . S
H813 C849 0.929 . S
H814 C850 0.931 . S
H815 C852 0.929 . S
N816 C836 1.433 . S
N816 C842 1.435 . S
N816 C848 1.423 . S
H817 C853 0.932 . S
C818 N793 1.433 . S
C818 C819 1.363 . S
C818 C823 1.370 . S
C819 H792 0.929 . S
C819 C818 1.363 . S
C819 C820 1.385 . S
C820 H794 0.930 . S
C820 C819 1.385 . S
C820 C821 1.357 . S
C821 C820 1.357 . S
C821 C822 1.406 . S
C822 H796 0.929 1_455 S
C822 C821 1.406 . S
C822 C823 1.391 . S
C823 H795 0.931 . S
C823 C818 1.370 . S
C823 C822 1.391 . S
C824 N793 1.435 . S
C824 C825 1.358 . S
C824 C829 1.371 . S
C825 H797 0.930 . S
C825 C824 1.358 . S
C825 C826 1.405 . S
C826 H798 0.932 . S
C826 C825 1.405 . S
C826 C827 1.383 . S
C827 C826 1.383 . S
C827 C828 1.393 . S
C828 H800 0.931 . S
C828 C827 1.393 . S
C828 C829 1.382 . S
C829 H799 0.929 . S
C829 C824 1.371 . S
C829 C828 1.382 . S
C830 N793 1.423 . S
C830 C831 1.362 . S
C830 C835 1.388 . S
C831 H801 0.929 . S
C831 C830 1.362 . S
C831 C832 1.376 . S
C832 H803 0.931 . S
C832 C831 1.376 . S
C832 C833 1.396 . S
C833 C832 1.396 . S
C833 C834 1.348 . S
C833 C851 1.472 . S
C834 H804 0.929 . S
C834 C833 1.348 . S
C834 C835 1.443 . S
C835 H802 0.932 . S
C835 C830 1.388 . S
C835 C834 1.443 . S
C836 N816 1.433 . S
C836 C837 1.363 . S
C836 C841 1.370 . S
C837 H805 0.929 . S
C837 C836 1.363 . S
C837 C838 1.385 . S
C838 H806 0.930 . S
C838 C837 1.385 . S
C838 C839 1.357 . S
C839 C838 1.357 . S
C839 C840 1.406 . S
C840 H807 0.929 1_455 S
C840 C839 1.406 . S
C840 C841 1.391 . S
C841 H808 0.931 . S
C841 C836 1.370 . S
C841 C840 1.391 . S
C842 N816 1.435 . S
C842 C843 1.358 . S
C842 C847 1.371 . S
C843 H809 0.930 . S
C843 C842 1.358 . S
C843 C844 1.405 . S
C844 H810 0.932 . S
C844 C843 1.405 . S
C844 C845 1.383 . S
C845 C844 1.383 . S
C845 C846 1.393 . S
C846 H811 0.931 . S
C846 C845 1.393 . S
C846 C847 1.382 . S
C847 H812 0.929 . S
C847 C842 1.371 . S
C847 C846 1.382 . S
C848 N816 1.423 . S
C848 C849 1.362 . S
C848 C853 1.388 . S
C849 H813 0.929 . S
C849 C848 1.362 . S
C849 C850 1.376 . S
C850 H814 0.931 . S
C850 C849 1.376 . S
C850 C851 1.396 . S
C851 C833 1.472 . S
C851 C850 1.396 . S
C851 C852 1.348 . S
C852 H815 0.929 . S
C852 C851 1.348 . S
C852 C853 1.443 . S
C853 H817 0.932 . S
C853 C848 1.388 . S
C853 C852 1.443 . S
H854 C881 0.929 . S
N855 C880 1.433 . S
N855 C886 1.435 . S
N855 C892 1.423 . S
H856 C882 0.930 . S
H857 C885 0.931 . S
H858 C884 0.929 . S
H859 C887 0.930 . S
H860 C888 0.932 . S
H861 C891 0.929 . S
H862 C890 0.931 . S
H863 C893 0.929 . S
H864 C897 0.932 . S
H865 C894 0.931 . S
H866 C896 0.929 . S
H867 C899 0.929 . S
H868 C900 0.930 . S
H869 C902 0.929 . S
H870 C903 0.931 . S
H871 C905 0.930 . S
H872 C906 0.932 . S
H873 C908 0.931 . S
H874 C909 0.929 . S
H875 C911 0.929 . S
H876 C912 0.931 . S
H877 C914 0.929 . S
N878 C898 1.433 . S
N878 C904 1.435 . S
N878 C910 1.423 . S
H879 C915 0.932 . S
C880 N855 1.433 . S
C880 C881 1.363 . S
C880 C885 1.370 . S
C881 H854 0.929 . S
C881 C880 1.363 . S
C881 C882 1.385 . S
C882 H856 0.930 . S
C882 C881 1.385 . S
C882 C883 1.357 . S
C883 C882 1.357 . S
C883 C884 1.406 . S
C884 H858 0.929 . S
C884 C883 1.406 . S
C884 C885 1.391 . S
C885 H857 0.931 . S
C885 C880 1.370 . S
C885 C884 1.391 . S
C886 N855 1.435 . S
C886 C887 1.358 . S
C886 C891 1.371 . S
C887 H859 0.930 . S
C887 C886 1.358 . S
C887 C888 1.405 . S
C888 H860 0.932 . S
C888 C887 1.405 . S
C888 C889 1.383 . S
C889 C888 1.383 . S
C889 C890 1.393 . S
C890 H862 0.931 . S
C890 C889 1.393 . S
C890 C891 1.382 . S
C891 H861 0.929 . S
C891 C886 1.371 . S
C891 C890 1.382 . S
C892 N855 1.423 . S
C892 C893 1.362 . S
C892 C897 1.388 . S
C893 H863 0.929 . S
C893 C892 1.362 . S
C893 C894 1.376 . S
C894 H865 0.931 . S
C894 C893 1.376 . S
C894 C895 1.396 . S
C895 C894 1.396 . S
C895 C896 1.348 . S
C895 C913 1.472 . S
C896 H866 0.929 . S
C896 C895 1.348 . S
C896 C897 1.443 . S
C897 H864 0.932 . S
C897 C892 1.388 . S
C897 C896 1.443 . S
C898 N878 1.433 . S
C898 C899 1.363 . S
C898 C903 1.370 . S
C899 H867 0.929 . S
C899 C898 1.363 . S
C899 C900 1.385 . S
C900 H868 0.930 . S
C900 C899 1.385 . S
C900 C901 1.357 . S
C901 C900 1.357 . S
C901 C902 1.406 . S
C902 H869 0.929 . S
C902 C901 1.406 . S
C902 C903 1.391 . S
C903 H870 0.931 . S
C903 C898 1.370 . S
C903 C902 1.391 . S
C904 N878 1.435 . S
C904 C905 1.358 . S
C904 C909 1.371 . S
C905 H871 0.930 . S
C905 C904 1.358 . S
C905 C906 1.405 . S
C906 H872 0.932 . S
C906 C905 1.405 . S
C906 C907 1.383 . S
C907 C906 1.383 . S
C907 C908 1.393 . S
C908 H873 0.931 . S
C908 C907 1.393 . S
C908 C909 1.382 . S
C909 H874 0.929 . S
C909 C904 1.371 . S
C909 C908 1.382 . S
C910 N878 1.423 . S
C910 C911 1.362 . S
C910 C915 1.388 . S
C911 H875 0.929 . S
C911 C910 1.362 . S
C911 C912 1.376 . S
C912 H876 0.931 . S
C912 C911 1.376 . S
C912 C913 1.396 . S
C913 C895 1.472 . S
C913 C912 1.396 . S
C913 C914 1.348 . S
C914 H877 0.929 . S
C914 C913 1.348 . S
C914 C915 1.443 . S
C915 H879 0.932 . S
C915 C910 1.388 . S
C915 C914 1.443 . S
H916 C943 0.929 . S
N917 C942 1.433 . S
N917 C948 1.435 . S
N917 C954 1.423 . S
H918 C944 0.930 . S
H919 C947 0.931 . S
H920 C946 0.929 . S
H921 C949 0.930 . S
H922 C950 0.932 . S
H923 C953 0.929 . S
H924 C952 0.931 . S
H925 C955 0.929 . S
H926 C959 0.932 1_545 S
H927 C956 0.931 . S
H928 C958 0.929 . S
H929 C961 0.929 . S
H930 C962 0.930 . S
H931 C964 0.929 . S
H932 C965 0.931 . S
H933 C967 0.930 . S
H934 C968 0.932 . S
H935 C970 0.931 . S
H936 C971 0.929 . S
H937 C973 0.929 . S
H938 C974 0.931 . S
H939 C976 0.929 . S
N940 C960 1.433 . S
N940 C966 1.435 . S
N940 C972 1.423 . S
H941 C977 0.932 1_545 S
C942 N917 1.433 . S
C942 C943 1.363 . S
C942 C947 1.370 1_565 S
C943 H916 0.929 . S
C943 C942 1.363 . S
C943 C944 1.385 . S
C944 H918 0.930 . S
C944 C943 1.385 . S
C944 C945 1.357 1_565 S
C945 C944 1.357 1_545 S
C945 C946 1.406 . S
C946 H920 0.929 . S
C946 C945 1.406 . S
C946 C947 1.391 . S
C947 H919 0.931 . S
C947 C942 1.370 1_545 S
C947 C946 1.391 . S
C948 N917 1.435 . S
C948 C949 1.358 1_565 S
C948 C953 1.371 . S
C949 H921 0.930 . S
C949 C948 1.358 1_545 S
C949 C950 1.405 . S
C950 H922 0.932 . S
C950 C949 1.405 . S
C950 C951 1.383 1_545 S
C951 C950 1.383 1_565 S
C951 C952 1.393 . S
C952 H924 0.931 . S
C952 C951 1.393 . S
C952 C953 1.382 . S
C953 H923 0.929 . S
C953 C948 1.371 . S
C953 C952 1.382 . S
C954 N917 1.423 . S
C954 C955 1.362 . S
C954 C959 1.388 . S
C955 H925 0.929 . S
C955 C954 1.362 . S
C955 C956 1.376 . S
C956 H927 0.931 . S
C956 C955 1.376 . S
C956 C957 1.396 . S
C957 C956 1.396 . S
C957 C958 1.348 . S
C957 C975 1.472 . S
C958 H928 0.929 . S
C958 C957 1.348 . S
C958 C959 1.443 . S
C959 H926 0.932 1_565 S
C959 C954 1.388 . S
C959 C958 1.443 . S
C960 N940 1.433 . S
C960 C961 1.363 . S
C960 C965 1.370 1_565 S
C961 H929 0.929 . S
C961 C960 1.363 . S
C961 C962 1.385 . S
C962 H930 0.930 . S
C962 C961 1.385 . S
C962 C963 1.357 1_565 S
C963 C962 1.357 1_545 S
C963 C964 1.406 . S
C964 H931 0.929 . S
C964 C963 1.406 . S
C964 C965 1.391 . S
C965 H932 0.931 . S
C965 C960 1.370 1_545 S
C965 C964 1.391 . S
C966 N940 1.435 . S
C966 C967 1.358 1_565 S
C966 C971 1.371 . S
C967 H933 0.930 . S
C967 C966 1.358 1_545 S
C967 C968 1.405 . S
C968 H934 0.932 . S
C968 C967 1.405 . S
C968 C969 1.383 1_545 S
C969 C968 1.383 1_565 S
C969 C970 1.393 . S
C970 H935 0.931 . S
C970 C969 1.393 . S
C970 C971 1.382 . S
C971 H936 0.929 . S
C971 C966 1.371 . S
C971 C970 1.382 . S
C972 N940 1.423 . S
C972 C973 1.362 . S
C972 C977 1.388 . S
C973 H937 0.929 . S
C973 C972 1.362 . S
C973 C974 1.376 . S
C974 H938 0.931 . S
C974 C973 1.376 . S
C974 C975 1.396 . S
C975 C957 1.472 . S
C975 C974 1.396 . S
C975 C976 1.348 . S
C976 H939 0.929 . S
C976 C975 1.348 . S
C976 C977 1.443 . S
C977 H941 0.932 1_565 S
C977 C972 1.388 . S
C977 C976 1.443 . S
H978 C1005 0.929 1_565 S
N979 C1004 1.433 . S
N979 C1010 1.435 . S
N979 C1016 1.423 . S
H980 C1006 0.930 1_565 S
H981 C1009 0.931 . S
H982 C1008 0.929 . S
H983 C1011 0.930 . S
H984 C1012 0.932 . S
H985 C1015 0.929 1_565 S
H986 C1014 0.931 . S
H987 C1017 0.929 . S
H988 C1021 0.932 . S
H989 C1018 0.931 . S
H990 C1020 0.929 . S
H991 C1023 0.929 1_565 S
H992 C1024 0.930 1_565 S
H993 C1026 0.929 . S
H994 C1027 0.931 . S
H995 C1029 0.930 . S
H996 C1030 0.932 . S
H997 C1032 0.931 . S
H998 C1033 0.929 1_565 S
H999 C1035 0.929 . S
H1000 C1036 0.931 . S
H1001 C1038 0.929 . S
N1002 C1022 1.433 . S
N1002 C1028 1.435 . S
N1002 C1034 1.423 . S
H1003 C1039 0.932 . S
C1004 N979 1.433 . S
C1004 C1005 1.363 . S
C1004 C1009 1.370 . S
C1005 H978 0.929 1_545 S
C1005 C1004 1.363 . S
C1005 C1006 1.385 . S
C1006 H980 0.930 1_545 S
C1006 C1005 1.385 . S
C1006 C1007 1.357 . S
C1007 C1006 1.357 . S
C1007 C1008 1.406 . S
C1008 H982 0.929 . S
C1008 C1007 1.406 . S
C1008 C1009 1.391 . S
C1009 H981 0.931 . S
C1009 C1004 1.370 . S
C1009 C1008 1.391 . S
C1010 N979 1.435 . S
C1010 C1011 1.358 . S
C1010 C1015 1.371 . S
C1011 H983 0.930 . S
C1011 C1010 1.358 . S
C1011 C1012 1.405 . S
C1012 H984 0.932 . S
C1012 C1011 1.405 . S
C1012 C1013 1.383 . S
C1013 C1012 1.383 . S
C1013 C1014 1.393 . S
C1014 H986 0.931 . S
C1014 C1013 1.393 . S
C1014 C1015 1.382 . S
C1015 H985 0.929 1_545 S
C1015 C1010 1.371 . S
C1015 C1014 1.382 . S
C1016 N979 1.423 . S
C1016 C1017 1.362 1_545 S
C1016 C1021 1.388 . S
C1017 H987 0.929 . S
C1017 C1016 1.362 1_565 S
C1017 C1018 1.376 . S
C1018 H989 0.931 . S
C1018 C1017 1.376 . S
C1018 C1019 1.396 1_565 S
C1019 C1018 1.396 1_545 S
C1019 C1020 1.348 . S
C1019 C1037 1.472 . S
C1020 H990 0.929 . S
C1020 C1019 1.348 . S
C1020 C1021 1.443 . S
C1021 H988 0.932 . S
C1021 C1016 1.388 . S
C1021 C1020 1.443 . S
C1022 N1002 1.433 . S
C1022 C1023 1.363 . S
C1022 C1027 1.370 . S
C1023 H991 0.929 1_545 S
C1023 C1022 1.363 . S
C1023 C1024 1.385 . S
C1024 H992 0.930 1_545 S
C1024 C1023 1.385 . S
C1024 C1025 1.357 . S
C1025 C1024 1.357 . S
C1025 C1026 1.406 . S
C1026 H993 0.929 . S
C1026 C1025 1.406 . S
C1026 C1027 1.391 . S
C1027 H994 0.931 . S
C1027 C1022 1.370 . S
C1027 C1026 1.391 . S
C1028 N1002 1.435 . S
C1028 C1029 1.358 . S
C1028 C1033 1.371 . S
C1029 H995 0.930 . S
C1029 C1028 1.358 . S
C1029 C1030 1.405 . S
C1030 H996 0.932 . S
C1030 C1029 1.405 . S
C1030 C1031 1.383 . S
C1031 C1030 1.383 . S
C1031 C1032 1.393 . S
C1032 H997 0.931 . S
C1032 C1031 1.393 . S
C1032 C1033 1.382 . S
C1033 H998 0.929 1_545 S
C1033 C1028 1.371 . S
C1033 C1032 1.382 . S
C1034 N1002 1.423 . S
C1034 C1035 1.362 1_545 S
C1034 C1039 1.388 . S
C1035 H999 0.929 . S
C1035 C1034 1.362 1_565 S
C1035 C1036 1.376 . S
C1036 H1000 0.931 . S
C1036 C1035 1.376 . S
C1036 C1037 1.396 1_565 S
C1037 C1019 1.472 . S
C1037 C1036 1.396 1_545 S
C1037 C1038 1.348 . S
C1038 H1001 0.929 . S
C1038 C1037 1.348 . S
C1038 C1039 1.443 . S
C1039 H1003 0.932 . S
C1039 C1034 1.388 . S
C1039 C1038 1.443 . S
H1040 C1067 0.929 . S
N1041 C1066 1.433 . S
N1041 C1072 1.435 . S
N1041 C1078 1.423 . S
H1042 C1068 0.930 . S
H1043 C1071 0.931 . S
H1044 C1070 0.929 . S
H1045 C1073 0.930 . S
H1046 C1074 0.932 . S
H1047 C1077 0.929 . S
H1048 C1076 0.931 . S
H1049 C1079 0.929 . S
H1050 C1083 0.932 1_455 S
H1051 C1080 0.931 . S
H1052 C1082 0.929 . S
H1053 C1085 0.929 . S
H1054 C1086 0.930 . S
H1055 C1088 0.929 . S
H1056 C1089 0.931 . S
H1057 C1091 0.930 . S
H1058 C1092 0.932 . S
H1059 C1094 0.931 . S
H1060 C1095 0.929 . S
H1061 C1097 0.929 . S
H1062 C1098 0.931 . S
H1063 C1100 0.929 . S
N1064 C1084 1.433 . S
N1064 C1090 1.435 . S
N1064 C1096 1.423 . S
H1065 C1101 0.932 1_455 S
C1066 N1041 1.433 . S
C1066 C1067 1.363 . S
C1066 C1071 1.370 1_655 S
C1067 H1040 0.929 . S
C1067 C1066 1.363 . S
C1067 C1068 1.385 . S
C1068 H1042 0.930 . S
C1068 C1067 1.385 . S
C1068 C1069 1.357 1_655 S
C1069 C1068 1.357 1_455 S
C1069 C1070 1.406 . S
C1070 H1044 0.929 . S
C1070 C1069 1.406 . S
C1070 C1071 1.391 . S
C1071 H1043 0.931 . S
C1071 C1066 1.370 1_455 S
C1071 C1070 1.391 . S
C1072 N1041 1.435 . S
C1072 C1073 1.358 1_655 S
C1072 C1077 1.371 . S
C1073 H1045 0.930 . S
C1073 C1072 1.358 1_455 S
C1073 C1074 1.405 . S
C1074 H1046 0.932 . S
C1074 C1073 1.405 . S
C1074 C1075 1.383 1_455 S
C1075 C1074 1.383 1_655 S
C1075 C1076 1.393 . S
C1076 H1048 0.931 . S
C1076 C1075 1.393 . S
C1076 C1077 1.382 . S
C1077 H1047 0.929 . S
C1077 C1072 1.371 . S
C1077 C1076 1.382 . S
C1078 N1041 1.423 . S
C1078 C1079 1.362 . S
C1078 C1083 1.388 . S
C1079 H1049 0.929 . S
C1079 C1078 1.362 . S
C1079 C1080 1.376 . S
C1080 H1051 0.931 . S
C1080 C1079 1.376 . S
C1080 C1081 1.396 . S
C1081 C1080 1.396 . S
C1081 C1082 1.348 . S
C1081 C1099 1.472 . S
C1082 H1052 0.929 . S
C1082 C1081 1.348 . S
C1082 C1083 1.443 . S
C1083 H1050 0.932 1_655 S
C1083 C1078 1.388 . S
C1083 C1082 1.443 . S
C1084 N1064 1.433 . S
C1084 C1085 1.363 . S
C1084 C1089 1.370 1_655 S
C1085 H1053 0.929 . S
C1085 C1084 1.363 . S
C1085 C1086 1.385 . S
C1086 H1054 0.930 . S
C1086 C1085 1.385 . S
C1086 C1087 1.357 1_655 S
C1087 C1086 1.357 1_455 S
C1087 C1088 1.406 . S
C1088 H1055 0.929 . S
C1088 C1087 1.406 . S
C1088 C1089 1.391 . S
C1089 H1056 0.931 . S
C1089 C1084 1.370 1_455 S
C1089 C1088 1.391 . S
C1090 N1064 1.435 . S
C1090 C1091 1.358 1_655 S
C1090 C1095 1.371 . S
C1091 H1057 0.930 . S
C1091 C1090 1.358 1_455 S
C1091 C1092 1.405 . S
C1092 H1058 0.932 . S
C1092 C1091 1.405 . S
C1092 C1093 1.383 1_455 S
C1093 C1092 1.383 1_655 S
C1093 C1094 1.393 . S
C1094 H1059 0.931 . S
C1094 C1093 1.393 . S
C1094 C1095 1.382 . S
C1095 H1060 0.929 . S
C1095 C1090 1.371 . S
C1095 C1094 1.382 . S
C1096 N1064 1.423 . S
C1096 C1097 1.362 . S
C1096 C1101 1.388 . S
C1097 H1061 0.929 . S
C1097 C1096 1.362 . S
C1097 C1098 1.376 . S
C1098 H1062 0.931 . S
C1098 C1097 1.376 . S
C1098 C1099 1.396 . S
C1099 C1081 1.472 . S
C1099 C1098 1.396 . S
C1099 C1100 1.348 . S
C1100 H1063 0.929 . S
C1100 C1099 1.348 . S
C1100 C1101 1.443 . S
C1101 H1065 0.932 1_655 S
C1101 C1096 1.388 . S
C1101 C1100 1.443 . S
H1102 C1129 0.929 . S
N1103 C1128 1.433 . S
N1103 C1134 1.435 . S
N1103 C1140 1.423 . S
H1104 C1130 0.930 . S
H1105 C1133 0.931 . S
H1106 C1132 0.929 . S
H1107 C1135 0.930 . S
H1108 C1136 0.932 . S
H1109 C1139 0.929 . S
H1110 C1138 0.931 . S
H1111 C1141 0.929 . S
H1112 C1145 0.932 . S
H1113 C1142 0.931 . S
H1114 C1144 0.929 . S
H1115 C1147 0.929 . S
H1116 C1148 0.930 . S
H1117 C1150 0.929 . S
H1118 C1151 0.931 . S
H1119 C1153 0.930 . S
H1120 C1154 0.932 . S
H1121 C1156 0.931 . S
H1122 C1157 0.929 . S
H1123 C1159 0.929 . S
H1124 C1160 0.931 . S
H1125 C1162 0.929 . S
N1126 C1146 1.433 . S
N1126 C1152 1.435 . S
N1126 C1158 1.423 . S
H1127 C1163 0.932 . S
C1128 N1103 1.433 . S
C1128 C1129 1.363 . S
C1128 C1133 1.370 . S
C1129 H1102 0.929 . S
C1129 C1128 1.363 . S
C1129 C1130 1.385 . S
C1130 H1104 0.930 . S
C1130 C1129 1.385 . S
C1130 C1131 1.357 . S
C1131 C1130 1.357 . S
C1131 C1132 1.406 . S
C1132 H1106 0.929 . S
C1132 C1131 1.406 . S
C1132 C1133 1.391 . S
C1133 H1105 0.931 . S
C1133 C1128 1.370 . S
C1133 C1132 1.391 . S
C1134 N1103 1.435 . S
C1134 C1135 1.358 . S
C1134 C1139 1.371 . S
C1135 H1107 0.930 . S
C1135 C1134 1.358 . S
C1135 C1136 1.405 . S
C1136 H1108 0.932 . S
C1136 C1135 1.405 . S
C1136 C1137 1.383 . S
C1137 C1136 1.383 . S
C1137 C1138 1.393 . S
C1138 H1110 0.931 . S
C1138 C1137 1.393 . S
C1138 C1139 1.382 . S
C1139 H1109 0.929 . S
C1139 C1134 1.371 . S
C1139 C1138 1.382 . S
C1140 N1103 1.423 . S
C1140 C1141 1.362 . S
C1140 C1145 1.388 . S
C1141 H1111 0.929 . S
C1141 C1140 1.362 . S
C1141 C1142 1.376 . S
C1142 H1113 0.931 . S
C1142 C1141 1.376 . S
C1142 C1143 1.396 . S
C1143 C1142 1.396 . S
C1143 C1144 1.348 . S
C1143 C1161 1.472 . S
C1144 H1114 0.929 . S
C1144 C1143 1.348 . S
C1144 C1145 1.443 . S
C1145 H1112 0.932 . S
C1145 C1140 1.388 . S
C1145 C1144 1.443 . S
C1146 N1126 1.433 . S
C1146 C1147 1.363 . S
C1146 C1151 1.370 . S
C1147 H1115 0.929 . S
C1147 C1146 1.363 . S
C1147 C1148 1.385 . S
C1148 H1116 0.930 . S
C1148 C1147 1.385 . S
C1148 C1149 1.357 . S
C1149 C1148 1.357 . S
C1149 C1150 1.406 . S
C1150 H1117 0.929 . S
C1150 C1149 1.406 . S
C1150 C1151 1.391 . S
C1151 H1118 0.931 . S
C1151 C1146 1.370 . S
C1151 C1150 1.391 . S
C1152 N1126 1.435 . S
C1152 C1153 1.358 . S
C1152 C1157 1.371 . S
C1153 H1119 0.930 . S
C1153 C1152 1.358 . S
C1153 C1154 1.405 . S
C1154 H1120 0.932 . S
C1154 C1153 1.405 . S
C1154 C1155 1.383 . S
C1155 C1154 1.383 . S
C1155 C1156 1.393 . S
C1156 H1121 0.931 . S
C1156 C1155 1.393 . S
C1156 C1157 1.382 . S
C1157 H1122 0.929 . S
C1157 C1152 1.371 . S
C1157 C1156 1.382 . S
C1158 N1126 1.423 . S
C1158 C1159 1.362 . S
C1158 C1163 1.388 . S
C1159 H1123 0.929 . S
C1159 C1158 1.362 . S
C1159 C1160 1.376 . S
C1160 H1124 0.931 . S
C1160 C1159 1.376 . S
C1160 C1161 1.396 . S
C1161 C1143 1.472 . S
C1161 C1160 1.396 . S
C1161 C1162 1.348 . S
C1162 H1125 0.929 . S
C1162 C1161 1.348 . S
C1162 C1163 1.443 . S
C1163 H1127 0.932 . S
C1163 C1158 1.388 . S
C1163 C1162 1.443 . S
H1164 C1191 0.929 . S
N1165 C1190 1.433 . S
N1165 C1196 1.435 . S
N1165 C1202 1.423 . S
H1166 C1192 0.930 . S
H1167 C1195 0.931 . S
H1168 C1194 0.929 . S
H1169 C1197 0.930 . S
H1170 C1198 0.932 . S
H1171 C1201 0.929 . S
H1172 C1200 0.931 . S
H1173 C1203 0.929 . S
H1174 C1207 0.932 . S
H1175 C1204 0.931 . S
H1176 C1206 0.929 . S
H1177 C1209 0.929 . S
H1178 C1210 0.930 . S
H1179 C1212 0.929 . S
H1180 C1213 0.931 . S
H1181 C1215 0.930 . S
H1182 C1216 0.932 . S
H1183 C1218 0.931 . S
H1184 C1219 0.929 . S
H1185 C1221 0.929 . S
H1186 C1222 0.931 . S
H1187 C1224 0.929 . S
N1188 C1208 1.433 . S
N1188 C1214 1.435 . S
N1188 C1220 1.423 . S
H1189 C1225 0.932 . S
C1190 N1165 1.433 . S
C1190 C1191 1.363 . S
C1190 C1195 1.370 . S
C1191 H1164 0.929 . S
C1191 C1190 1.363 . S
C1191 C1192 1.385 . S
C1192 H1166 0.930 . S
C1192 C1191 1.385 . S
C1192 C1193 1.357 . S
C1193 C1192 1.357 . S
C1193 C1194 1.406 . S
C1194 H1168 0.929 . S
C1194 C1193 1.406 . S
C1194 C1195 1.391 . S
C1195 H1167 0.931 . S
C1195 C1190 1.370 . S
C1195 C1194 1.391 . S
C1196 N1165 1.435 . S
C1196 C1197 1.358 . S
C1196 C1201 1.371 . S
C1197 H1169 0.930 . S
C1197 C1196 1.358 . S
C1197 C1198 1.405 . S
C1198 H1170 0.932 . S
C1198 C1197 1.405 . S
C1198 C1199 1.383 . S
C1199 C1198 1.383 . S
C1199 C1200 1.393 . S
C1200 H1172 0.931 . S
C1200 C1199 1.393 . S
C1200 C1201 1.382 . S
C1201 H1171 0.929 . S
C1201 C1196 1.371 . S
C1201 C1200 1.382 . S
C1202 N1165 1.423 . S
C1202 C1203 1.362 . S
C1202 C1207 1.388 . S
C1203 H1173 0.929 . S
C1203 C1202 1.362 . S
C1203 C1204 1.376 . S
C1204 H1175 0.931 . S
C1204 C1203 1.376 . S
C1204 C1205 1.396 . S
C1205 C1204 1.396 . S
C1205 C1206 1.348 . S
C1205 C1223 1.472 . S
C1206 H1176 0.929 . S
C1206 C1205 1.348 . S
C1206 C1207 1.443 . S
C1207 H1174 0.932 . S
C1207 C1202 1.388 . S
C1207 C1206 1.443 . S
C1208 N1188 1.433 . S
C1208 C1209 1.363 . S
C1208 C1213 1.370 . S
C1209 H1177 0.929 . S
C1209 C1208 1.363 . S
C1209 C1210 1.385 . S
C1210 H1178 0.930 . S
C1210 C1209 1.385 . S
C1210 C1211 1.357 . S
C1211 C1210 1.357 . S
C1211 C1212 1.406 . S
C1212 H1179 0.929 . S
C1212 C1211 1.406 . S
C1212 C1213 1.391 . S
C1213 H1180 0.931 . S
C1213 C1208 1.370 . S
C1213 C1212 1.391 . S
C1214 N1188 1.435 . S
C1214 C1215 1.358 . S
C1214 C1219 1.371 . S
C1215 H1181 0.930 . S
C1215 C1214 1.358 . S
C1215 C1216 1.405 . S
C1216 H1182 0.932 . S
C1216 C1215 1.405 . S
C1216 C1217 1.383 . S
C1217 C1216 1.383 . S
C1217 C1218 1.393 . S
C1218 H1183 0.931 . S
C1218 C1217 1.393 . S
C1218 C1219 1.382 . S
C1219 H1184 0.929 . S
C1219 C1214 1.371 . S
C1219 C1218 1.382 . S
C1220 N1188 1.423 . S
C1220 C1221 1.362 . S
C1220 C1225 1.388 . S
C1221 H1185 0.929 . S
C1221 C1220 1.362 . S
C1221 C1222 1.376 . S
C1222 H1186 0.931 . S
C1222 C1221 1.376 . S
C1222 C1223 1.396 . S
C1223 C1205 1.472 . S
C1223 C1222 1.396 . S
C1223 C1224 1.348 . S
C1224 H1187 0.929 . S
C1224 C1223 1.348 . S
C1224 C1225 1.443 . S
C1225 H1189 0.932 . S
C1225 C1220 1.388 . S
C1225 C1224 1.443 . S
H1226 C1253 0.929 . S
N1227 C1252 1.433 . S
N1227 C1258 1.435 . S
N1227 C1264 1.423 . S
H1228 C1254 0.930 . S
H1229 C1257 0.931 . S
H1230 C1256 0.929 . S
H1231 C1259 0.930 . S
H1232 C1260 0.932 1_545 S
H1233 C1263 0.929 . S
H1234 C1262 0.931 . S
H1235 C1265 0.929 . S
H1236 C1269 0.932 . S
H1237 C1266 0.931 . S
H1238 C1268 0.929 . S
H1239 C1271 0.929 . S
H1240 C1272 0.930 . S
H1241 C1274 0.929 . S
H1242 C1275 0.931 . S
H1243 C1277 0.930 . S
H1244 C1278 0.932 . S
H1245 C1280 0.931 . S
H1246 C1281 0.929 . S
H1247 C1283 0.929 . S
H1248 C1284 0.931 . S
H1249 C1286 0.929 . S
N1250 C1270 1.433 . S
N1250 C1276 1.435 . S
N1250 C1282 1.423 . S
H1251 C1287 0.932 . S
C1252 N1227 1.433 . S
C1252 C1253 1.363 . S
C1252 C1257 1.370 . S
C1253 H1226 0.929 . S
C1253 C1252 1.363 . S
C1253 C1254 1.385 . S
C1254 H1228 0.930 . S
C1254 C1253 1.385 . S
C1254 C1255 1.357 . S
C1255 C1254 1.357 . S
C1255 C1256 1.406 . S
C1256 H1230 0.929 . S
C1256 C1255 1.406 . S
C1256 C1257 1.391 . S
C1257 H1229 0.931 . S
C1257 C1252 1.370 . S
C1257 C1256 1.391 . S
C1258 N1227 1.435 . S
C1258 C1259 1.358 . S
C1258 C1263 1.371 . S
C1259 H1231 0.930 . S
C1259 C1258 1.358 . S
C1259 C1260 1.405 . S
C1260 H1232 0.932 1_565 S
C1260 C1259 1.405 . S
C1260 C1261 1.383 . S
C1261 C1260 1.383 . S
C1261 C1262 1.393 . S
C1262 H1234 0.931 . S
C1262 C1261 1.393 . S
C1262 C1263 1.382 . S
C1263 H1233 0.929 . S
C1263 C1258 1.371 . S
C1263 C1262 1.382 . S
C1264 N1227 1.423 . S
C1264 C1265 1.362 . S
C1264 C1269 1.388 . S
C1265 H1235 0.929 . S
C1265 C1264 1.362 . S
C1265 C1266 1.376 . S
C1266 H1237 0.931 . S
C1266 C1265 1.376 . S
C1266 C1267 1.396 . S
C1267 C1266 1.396 . S
C1267 C1268 1.348 . S
C1267 C1285 1.472 . S
C1268 H1238 0.929 . S
C1268 C1267 1.348 . S
C1268 C1269 1.443 . S
C1269 H1236 0.932 . S
C1269 C1264 1.388 . S
C1269 C1268 1.443 . S
C1270 N1250 1.433 . S
C1270 C1271 1.363 . S
C1270 C1275 1.370 . S
C1271 H1239 0.929 . S
C1271 C1270 1.363 . S
C1271 C1272 1.385 . S
C1272 H1240 0.930 . S
C1272 C1271 1.385 . S
C1272 C1273 1.357 . S
C1273 C1272 1.357 . S
C1273 C1274 1.406 . S
C1274 H1241 0.929 . S
C1274 C1273 1.406 . S
C1274 C1275 1.391 . S
C1275 H1242 0.931 . S
C1275 C1270 1.370 . S
C1275 C1274 1.391 . S
C1276 N1250 1.435 . S
C1276 C1277 1.358 . S
C1276 C1281 1.371 . S
C1277 H1243 0.930 . S
C1277 C1276 1.358 . S
C1277 C1278 1.405 . S
C1278 H1244 0.932 . S
C1278 C1277 1.405 . S
C1278 C1279 1.383 . S
C1279 C1278 1.383 . S
C1279 C1280 1.393 . S
C1280 H1245 0.931 . S
C1280 C1279 1.393 . S
C1280 C1281 1.382 . S
C1281 H1246 0.929 . S
C1281 C1276 1.371 . S
C1281 C1280 1.382 . S
C1282 N1250 1.423 . S
C1282 C1283 1.362 . S
C1282 C1287 1.388 . S
C1283 H1247 0.929 . S
C1283 C1282 1.362 . S
C1283 C1284 1.376 . S
C1284 H1248 0.931 . S
C1284 C1283 1.376 . S
C1284 C1285 1.396 . S
C1285 C1267 1.472 . S
C1285 C1284 1.396 . S
C1285 C1286 1.348 . S
C1286 H1249 0.929 . S
C1286 C1285 1.348 . S
C1286 C1287 1.443 . S
C1287 H1251 0.932 . S
C1287 C1282 1.388 . S
C1287 C1286 1.443 . S
H1288 C1315 0.929 . S
N1289 C1314 1.433 . S
N1289 C1320 1.435 . S
N1289 C1326 1.423 . S
H1290 C1316 0.930 . S
H1291 C1319 0.931 . S
H1292 C1318 0.929 . S
H1293 C1321 0.930 . S
H1294 C1322 0.932 . S
H1295 C1325 0.929 . S
H1296 C1324 0.931 . S
H1297 C1327 0.929 . S
H1298 C1331 0.932 . S
H1299 C1328 0.931 . S
H1300 C1330 0.929 . S
H1301 C1333 0.929 . S
H1302 C1334 0.930 . S
H1303 C1336 0.929 . S
H1304 C1337 0.931 . S
H1305 C1339 0.930 . S
H1306 C1340 0.932 . S
H1307 C1342 0.931 . S
H1308 C1343 0.929 . S
H1309 C1345 0.929 . S
H1310 C1346 0.931 . S
H1311 C1348 0.929 . S
N1312 C1332 1.433 . S
N1312 C1338 1.435 . S
N1312 C1344 1.423 . S
H1313 C1349 0.932 . S
C1314 N1289 1.433 . S
C1314 C1315 1.363 . S
C1314 C1319 1.370 . S
C1315 H1288 0.929 . S
C1315 C1314 1.363 . S
C1315 C1316 1.385 . S
C1316 H1290 0.930 . S
C1316 C1315 1.385 . S
C1316 C1317 1.357 . S
C1317 C1316 1.357 . S
C1317 C1318 1.406 . S
C1318 H1292 0.929 . S
C1318 C1317 1.406 . S
C1318 C1319 1.391 . S
C1319 H1291 0.931 . S
C1319 C1314 1.370 . S
C1319 C1318 1.391 . S
C1320 N1289 1.435 . S
C1320 C1321 1.358 . S
C1320 C1325 1.371 . S
C1321 H1293 0.930 . S
C1321 C1320 1.358 . S
C1321 C1322 1.405 . S
C1322 H1294 0.932 . S
C1322 C1321 1.405 . S
C1322 C1323 1.383 . S
C1323 C1322 1.383 . S
C1323 C1324 1.393 . S
C1324 H1296 0.931 . S
C1324 C1323 1.393 . S
C1324 C1325 1.382 . S
C1325 H1295 0.929 . S
C1325 C1320 1.371 . S
C1325 C1324 1.382 . S
C1326 N1289 1.423 . S
C1326 C1327 1.362 . S
C1326 C1331 1.388 . S
C1327 H1297 0.929 . S
C1327 C1326 1.362 . S
C1327 C1328 1.376 . S
C1328 H1299 0.931 . S
C1328 C1327 1.376 . S
C1328 C1329 1.396 . S
C1329 C1328 1.396 . S
C1329 C1330 1.348 . S
C1329 C1347 1.472 . S
C1330 H1300 0.929 . S
C1330 C1329 1.348 . S
C1330 C1331 1.443 . S
C1331 H1298 0.932 . S
C1331 C1326 1.388 . S
C1331 C1330 1.443 . S
C1332 N1312 1.433 . S
C1332 C1333 1.363 . S
C1332 C1337 1.370 . S
C1333 H1301 0.929 . S
C1333 C1332 1.363 . S
C1333 C1334 1.385 . S
C1334 H1302 0.930 . S
C1334 C1333 1.385 . S
C1334 C1335 1.357 . S
C1335 C1334 1.357 . S
C1335 C1336 1.406 . S
C1336 H1303 0.929 . S
C1336 C1335 1.406 . S
C1336 C1337 1.391 . S
C1337 H1304 0.931 . S
C1337 C1332 1.370 . S
C1337 C1336 1.391 . S
C1338 N1312 1.435 . S
C1338 C1339 1.358 . S
C1338 C1343 1.371 . S
C1339 H1305 0.930 . S
C1339 C1338 1.358 . S
C1339 C1340 1.405 . S
C1340 H1306 0.932 . S
C1340 C1339 1.405 . S
C1340 C1341 1.383 . S
C1341 C1340 1.383 . S
C1341 C1342 1.393 . S
C1342 H1307 0.931 . S
C1342 C1341 1.393 . S
C1342 C1343 1.382 . S
C1343 H1308 0.929 . S
C1343 C1338 1.371 . S
C1343 C1342 1.382 . S
C1344 N1312 1.423 . S
C1344 C1345 1.362 . S
C1344 C1349 1.388 . S
C1345 H1309 0.929 . S
C1345 C1344 1.362 . S
C1345 C1346 1.376 . S
C1346 H1310 0.931 . S
C1346 C1345 1.376 . S
C1346 C1347 1.396 . S
C1347 C1329 1.472 . S
C1347 C1346 1.396 . S
C1347 C1348 1.348 . S
C1348 H1311 0.929 . S
C1348 C1347 1.348 . S
C1348 C1349 1.443 . S
C1349 H1313 0.932 . S
C1349 C1344 1.388 . S
C1349 C1348 1.443 . S
C10 C839 2.084 . S
C23 C883 2.106 . S
C963 C29 2.103 . S
C30 C1007 2.115 . S
C5 C1087 2.109 . S
C18 C1149 2.094 . S
C49 C1069 2.084 . S
C1131 C62 2.070 . S
C1025 C70 2.141 . S
C75 C945 2.076 . S
C821 C44 2.108 . S
C57 C901 2.131 . S
C88 C1211 2.084 . S
C101 C1255 2.106 . S
C1335 C107 2.102 . S
C108 C281 2.077 . S
C83 C325 2.151 . S
C96 C405 2.095 . S
C127 C343 2.125 . S
C140 C387 2.070 . S
C263 C146 2.102 . S
C1317 C147 2.076 . S
C1193 C122 2.109 . S
C1273 C135 2.132 . S
C160 C467 2.084 . S
C173 C529 2.070 . S
C185 C573 2.140 . S
C186 C635 2.115 . S
C697 C159 2.150 . S
C777 C172 2.094 . S
C715 C205 2.125 . S
C759 C218 2.070 . S
C224 C653 2.141 . S
C591 C225 2.115 . S
C200 C449 2.108 . S
C511 C213 2.094 . S
C287 C4 1.407 . S
C17 C331 1.411 . S
C411 C31 1.412 . S
C473 C36 1.406 . S
C535 C3 1.420 . S
C579 C16 1.419 . S
C43 C597 1.419 . S
C56 C455 1.398 . S
C68 C517 1.412 . S
C69 C349 1.420 . S
C393 C42 1.420 . S
C55 C269 1.410 . S
C641 C82 1.419 . S
C95 C703 1.412 . S
C109 C783 1.393 1_455 S
C845 C114 1.406 . S
C81 C889 1.428 . S
C94 C969 1.413 . S
C121 C951 1.404 . S
C134 C827 1.398 . S
C907 C148 1.420 . S
C153 C721 1.420 . S
C120 C765 1.420 . S
C659 C133 1.394 1_655 S
C1013 C166 1.419 . S
C179 C1093 1.400 . S
C187 C1155 1.412 . S
C1217 C192 1.406 . S
C1261 C161 1.428 1_565 S
C174 C1341 1.410 . S
C199 C1323 1.407 . S
C212 C1199 1.359 1_545 S
C1279 C226 1.419 . S
C1075 C231 1.402 . S
C1137 C198 1.420 . S
C211 C1031 1.419 . S
