# Generated by pormake.
# Topology zzz, (3,6)-cn, num edge types: 1
# Building blocks:
#     Node 0, Type 0, BuildingBlock: BETDIP_clean_linker_0, # of connection points: 3
#     Node 1, Type 0, BuildingBlock: BETDIP_clean_linker_0, # of connection points: 3
#     Node 2, Type 0, BuildingBlock: BETDIP_clean_linker_0, # of connection points: 3
#     Node 3, Type 0, BuildingBlock: BETDIP_clean_linker_0, # of connection points: 3
#     Node 4, Type 0, BuildingBlock: BETDIP_clean_linker_0, # of connection points: 3
#     Node 5, Type 0, BuildingBlock: BETDIP_clean_linker_0, # of connection points: 3
#     Node 6, Type 0, BuildingBlock: BETDIP_clean_linker_0, # of connection points: 3
#     Node 7, Type 0, BuildingBlock: BETDIP_clean_linker_0, # of connection points: 3
#     Node 8, Type 1, BuildingBlock: BETDEL_clean_sbu_0, # of connection points: 6
#     Node 9, Type 1, BuildingBlock: BETDEL_clean_sbu_0, # of connection points: 6
#     Node 10, Type 1, BuildingBlock: BETDEL_clean_sbu_0, # of connection points: 6
#     Node 11, Type 1, BuildingBlock: BETDEL_clean_sbu_0, # of connection points: 6
#     Edge 12, Type (0, 1), BuildingBlock: KIFKEQ_clean_linker_1, # of connection points: 2
#     Edge 13, Type (0, 1), BuildingBlock: KIFKEQ_clean_linker_1, # of connection points: 2
#     Edge 14, Type (0, 1), BuildingBlock: KIFKEQ_clean_linker_1, # of connection points: 2
#     Edge 15, Type (0, 1), BuildingBlock: KIFKEQ_clean_linker_1, # of connection points: 2
#     Edge 16, Type (0, 1), BuildingBlock: KIFKEQ_clean_linker_1, # of connection points: 2
#     Edge 17, Type (0, 1), BuildingBlock: KIFKEQ_clean_linker_1, # of connection points: 2
#     Edge 18, Type (0, 1), BuildingBlock: KIFKEQ_clean_linker_1, # of connection points: 2
#     Edge 19, Type (0, 1), BuildingBlock: KIFKEQ_clean_linker_1, # of connection points: 2
#     Edge 20, Type (0, 1), BuildingBlock: KIFKEQ_clean_linker_1, # of connection points: 2
#     Edge 21, Type (0, 1), BuildingBlock: KIFKEQ_clean_linker_1, # of connection points: 2
#     Edge 22, Type (0, 1), BuildingBlock: KIFKEQ_clean_linker_1, # of connection points: 2
#     Edge 23, Type (0, 1), BuildingBlock: KIFKEQ_clean_linker_1, # of connection points: 2
#     Edge 24, Type (0, 1), BuildingBlock: KIFKEQ_clean_linker_1, # of connection points: 2
#     Edge 25, Type (0, 1), BuildingBlock: KIFKEQ_clean_linker_1, # of connection points: 2
#     Edge 26, Type (0, 1), BuildingBlock: KIFKEQ_clean_linker_1, # of connection points: 2
#     Edge 27, Type (0, 1), BuildingBlock: KIFKEQ_clean_linker_1, # of connection points: 2
#     Edge 28, Type (0, 1), BuildingBlock: KIFKEQ_clean_linker_1, # of connection points: 2
#     Edge 29, Type (0, 1), BuildingBlock: KIFKEQ_clean_linker_1, # of connection points: 2
#     Edge 30, Type (0, 1), BuildingBlock: KIFKEQ_clean_linker_1, # of connection points: 2
#     Edge 31, Type (0, 1), BuildingBlock: KIFKEQ_clean_linker_1, # of connection points: 2
#     Edge 32, Type (0, 1), BuildingBlock: KIFKEQ_clean_linker_1, # of connection points: 2
#     Edge 33, Type (0, 1), BuildingBlock: KIFKEQ_clean_linker_1, # of connection points: 2
#     Edge 34, Type (0, 1), BuildingBlock: KIFKEQ_clean_linker_1, # of connection points: 2
#     Edge 35, Type (0, 1), BuildingBlock: KIFKEQ_clean_linker_1, # of connection points: 2
# Relax obj value: 0.156
# Max RMSD: 0.178
# Mean RMSD: 0.115
data_MOF--net-zzz--node1-BETDEL_clean_sbu_0--node2-BETDIP_clean_linker_0--edge1-KIFKEQ_clean_linker_1
_symmetry_space_group_name_H-M    P1
_symmetry_Int_Tables_number       1
_symmetry_cell_setting            triclinic
loop_
_symmetry_equiv_pos_as_xyz
'x, y, z'
_cell_length_a     50.599611
_cell_length_b     51.73132
_cell_length_c     14.961179
_cell_angle_alpha  91.488399
_cell_angle_beta   88.636977
_cell_angle_gamma 95.043108
loop_
_atom_site_label
_atom_site_type_symbol
_atom_site_fract_x
_atom_site_fract_y
_atom_site_fract_z
_atom_type_partial_charge
H0 H 0.75268 0.52318 0.20171 0.0
H1 H 0.74973 0.47789 0.95501 0.0
H2 H 0.81269 0.47146 0.13666 0.0
H3 H 0.74079 0.52343 0.91944 0.0
C4 C 0.72247 0.52022 0.95874 0.0
C5 C 0.76021 0.50824 0.15861 0.0
C6 C 0.78371 0.49704 0.18092 0.0
C7 C 0.74733 0.50084 0.07741 0.0
C8 C 0.75849 0.48269 0.01942 0.0
C9 C 0.78215 0.47233 0.04004 0.0
C10 C 0.7937 0.47856 0.12251 0.0
N11 N 0.72457 0.51292 0.04972 0.0
H12 H 0.98704 0.75256 0.23745 0.0
H13 H 0.02096 0.76263 0.9715 0.0
H14 H 0.0271 0.82579 0.16314 0.0
H15 H 0.97403 0.73541 0.96225 0.0
C16 C 0.98358 0.72072 0.99727 0.0
C17 C 0.99854 0.76435 0.18915 0.0
C18 C 1.0069 0.79043 0.2105 0.0
C19 C 1.00407 0.75397 0.10309 0.0
C20 C 0.01752 0.77004 0.03879 0.0
C21 C 0.0264 0.79575 0.06126 0.0
C22 C 0.02151 0.80545 0.14737 0.0
N23 N 0.99562 0.72767 0.08053 0.0
H24 H 0.75822 0.98894 0.24259 0.0
H25 H 0.76614 0.02652 0.98773 0.0
H26 H 0.69534 0.03125 0.14888 0.0
H27 H 0.78497 0.97527 0.98213 0.0
C28 C 0.79981 0.98693 0.02063 0.0
C29 C 0.75044 1.00092 0.19289 0.0
C30 C 0.72492 0.00968 0.20527 0.0
C31 C 0.76557 0.0072 0.11436 0.0
C32 C 0.75485 0.02196 0.04861 0.0
C33 C 0.72984 0.03127 0.06213 0.0
C34 C 0.71527 0.02517 0.1405 0.0
N35 N 0.79169 0.99922 0.10188 0.0
H36 H 0.52218 0.76716 0.25477 0.0
H37 H 0.5427 0.7577 0.97371 0.0
H38 H 0.54087 0.69301 0.14617 0.0
H39 H 0.56584 0.79833 0.00853 0.0
C40 C 0.54839 0.80715 0.03437 0.0
C41 C 0.52836 0.75526 0.1988 0.0
C42 C 0.53119 0.72856 0.21028 0.0
C43 C 0.53384 0.76643 0.11373 0.0
C44 C 0.54035 0.75016 0.04057 0.0
C45 C 0.54337 0.72394 0.05299 0.0
C46 C 0.53933 0.71363 0.13766 0.0
N47 N 0.53214 0.79357 0.10058 0.0
H48 H 0.2687 0.50653 0.90588 0.0
H49 H 0.26152 0.49781 0.1923 0.0
H50 H 0.19263 0.48615 0.03152 0.0
H51 H 0.29302 0.53786 0.16123 0.0
C52 C 0.3062 0.52398 0.13386 0.0
C53 C 0.25688 0.50112 0.96483 0.0
C54 C 0.22901 0.49544 0.95839 0.0
C55 C 0.26901 0.50124 0.04971 0.0
C56 C 0.25294 0.49633 0.12647 0.0
C57 C 0.2256 0.49084 0.11962 0.0
C58 C 0.2141 0.48919 0.03568 0.0
N59 N 0.29685 0.50785 0.06003 0.0
H60 H 0.01482 0.26825 0.92433 0.0
H61 H 0.98371 0.25787 0.1939 0.0
H62 H 0.98848 0.1921 0.01736 0.0
H63 H 0.96312 0.29592 0.14839 0.0
C64 C 0.98221 0.30643 0.13319 0.0
C65 C 1.00575 0.25587 0.9759 0.0
C66 C 1.0021 0.22874 0.96092 0.0
C67 C 0.99752 0.26682 0.05863 0.0
C68 C 0.9877 0.25016 0.1274 0.0
C69 C 0.98417 0.22336 0.11174 0.0
C70 C 0.9904 0.21305 0.0279 0.0
N71 N 1.00029 0.29425 0.07463 0.0
H72 H 0.26836 0.03658 0.94067 0.0
H73 H 0.25699 0.98626 0.16679 0.0
H74 H 0.33055 0.99057 0.01713 0.0
H75 H 0.21308 0.98022 0.07282 0.0
C76 C 0.21136 1.00045 0.09183 0.0
C77 C 0.27556 0.02232 0.98363 0.0
C78 C 0.30136 0.01428 0.96956 0.0
C79 C 0.25899 0.01148 0.05323 0.0
C80 C 0.26897 0.99365 0.11051 0.0
C81 C 0.29467 0.98602 0.09743 0.0
C82 C 0.3104 0.99602 0.0261 0.0
N83 N 0.23275 0.01907 0.06831 0.0
H84 H 0.50526 0.24892 0.87461 0.0
H85 H 0.48018 0.2566 0.15183 0.0
H86 H 0.47223 0.31824 0.97184 0.0
H87 H 0.52157 0.23532 0.15286 0.0
C88 C 0.51242 0.21878 0.11506 0.0
C89 C 0.49585 0.25958 0.92793 0.0
C90 C 0.48825 0.28478 0.91282 0.0
C91 C 0.49238 0.24886 0.01434 0.0
C92 C 0.48192 0.26391 0.08456 0.0
C93 C 0.47448 0.28879 0.06915 0.0
C94 C 0.47676 0.29844 0.98288 0.0
N95 N 0.50047 0.22371 0.03226 0.0
Dy96 Dy 0.02653 0.99987 0.66954 0.0
C97 C 1.00112 0.05216 0.36116 0.0
C98 C 0.03891 0.96802 0.80169 0.0
Dy99 Dy 0.99995 0.01957 0.50051 0.0
O100 O 0.05493 0.97644 0.73793 0.0
O101 O 0.01655 0.97845 0.79641 0.0
O102 O 0.06531 0.01913 0.61903 0.0
O103 O 0.0372 1.00316 0.52739 0.0
C104 C 0.05971 0.0157 0.53485 0.0
C105 C 0.96359 0.01408 0.63504 0.0
O106 O 0.99707 0.97755 0.4595 0.0
O107 O 0.00974 0.9633 0.59777 0.0
O108 O 0.98097 0.03574 0.38187 0.0
O109 O 0.02099 0.04853 0.41122 0.0
O110 O 0.95815 0.02169 0.55588 0.0
O111 O 0.98775 0.00982 0.63514 0.0
O112 O 0.02286 0.04069 0.7193 0.0
O113 O 0.01433 0.05563 0.57853 0.0
C114 C 1.00076 0.95867 0.51544 0.0
C115 C 0.01966 0.05988 0.66427 0.0
Dy116 Dy 0.49201 0.99231 0.5116 0.0
C117 C 0.57482 0.04961 0.72174 0.0
C118 C 0.44704 0.96871 0.43859 0.0
Dy119 Dy 0.53026 0.02773 0.64225 0.0
O120 O 0.46801 0.9776 0.39351 0.0
O121 O 0.45071 0.97261 0.52357 0.0
O122 O 0.52488 0.97618 0.42498 0.0
O123 O 0.53346 1.00211 0.529 0.0
C124 C 0.54405 0.98906 0.46829 0.0
C125 C 0.47779 0.03289 0.66306 0.0
O126 O 0.52909 0.0526 0.52256 0.0
O127 O 0.49086 0.03278 0.45763 0.0
O128 O 0.5535 0.04033 0.76476 0.0
O129 O 0.57143 0.04733 0.63619 0.0
O130 O 0.49612 0.0512 0.68429 0.0
O131 O 0.48878 0.01263 0.64105 0.0
O132 O 0.49951 0.96295 0.61375 0.0
O133 O 0.53065 0.98788 0.70164 0.0
C134 C 0.50983 0.05226 0.46377 0.0
C135 C 0.51622 0.96568 0.68157 0.0
Dy136 Dy 0.50266 0.51729 0.6498 0.0
C137 C 0.50692 0.46378 0.32284 0.0
C138 C 0.51232 0.54947 0.79384 0.0
Dy139 Dy 0.51705 0.49613 0.46621 0.0
O140 O 0.48877 0.54231 0.76382 0.0
O141 O 0.52984 0.53725 0.74941 0.0
O142 O 0.45914 0.50553 0.62734 0.0
O143 O 0.48456 0.51669 0.51975 0.0
C144 C 0.46133 0.50767 0.54061 0.0
C145 C 0.55835 0.50717 0.57353 0.0
O146 O 0.51789 0.53781 0.42644 0.0
O147 O 0.51704 0.55339 0.57322 0.0
O148 O 0.53061 0.47105 0.35162 0.0
O149 O 0.48955 0.47593 0.36821 0.0
O150 O 0.56019 0.50945 0.48679 0.0
O151 O 0.53552 0.4972 0.59558 0.0
O152 O 0.50162 0.47575 0.69036 0.0
O153 O 0.50364 0.45994 0.54408 0.0
C154 C 0.51957 0.55741 0.48592 0.0
C155 C 0.50069 0.45607 0.63138 0.0
Dy156 Dy 0.99495 0.50002 0.658 0.0
C157 C 0.05554 0.53444 0.36495 0.0
C158 C 0.95927 0.48988 0.7957 0.0
Dy159 Dy 0.01943 0.52349 0.49936 0.0
O160 O 0.97426 0.47329 0.75902 0.0
O161 O 0.96544 0.51231 0.76047 0.0
O162 O 0.01108 0.46201 0.6233 0.0
O163 O 0.99946 0.48508 0.52045 0.0
C164 C 0.00992 0.4645 0.53734 0.0
C165 C 1.00302 0.55874 0.6175 0.0
O166 O 0.97872 0.52016 0.44212 0.0
O167 O 0.95914 0.50807 0.57742 0.0
O168 O 0.05153 0.54933 0.43398 0.0
O169 O 0.03811 0.51447 0.36614 0.0
O170 O 1.00176 0.56066 0.53131 0.0
O171 O 0.01434 0.53877 0.63681 0.0
O172 O 0.036 0.50708 0.71268 0.0
O173 O 0.0541 0.50904 0.57057 0.0
C174 C 0.95722 0.51465 0.49268 0.0
C175 C 0.05695 0.50722 0.65784 0.0
H176 H 0.20206 0.04588 0.18598 0.0
H177 H 0.16726 0.96866 0.12287 0.0
H178 H 0.164 0.05301 0.28595 0.0
H179 H 0.12958 0.97555 0.22214 0.0
H180 H 0.05523 0.99925 0.35971 0.0
H181 H 0.09047 0.99904 0.24492 0.0
H182 H 0.14598 0.03735 0.43076 0.0
H183 H 0.11065 0.03779 0.54483 0.0
C184 C 0.18614 0.03058 0.1925 0.0
C185 C 0.18762 1.00671 0.14636 0.0
C186 C 0.1644 0.03457 0.25024 0.0
C187 C 0.14357 0.01487 0.26232 0.0
C188 C 0.1449 0.99134 0.21385 0.0
C189 C 0.16663 0.98731 0.15714 0.0
C190 C 0.07487 0.00794 0.37559 0.0
C191 C 0.08017 0.01833 0.46168 0.0
C192 C 0.09516 0.0077 0.30995 0.0
C193 C 0.12126 0.01795 0.32853 0.0
C194 C 0.12617 0.02945 0.41351 0.0
C195 C 0.10591 0.02957 0.47922 0.0
H196 H 0.48975 0.17045 0.05435 0.0
H197 H 0.53276 0.20873 0.27292 0.0
H198 H 0.4888 0.12894 0.13209 0.0
H199 H 0.53132 0.16811 0.35077 0.0
H200 H 0.54996 0.09014 0.43568 0.0
H201 H 0.55045 0.12811 0.34416 0.0
H202 H 0.47037 0.10476 0.26309 0.0
H203 H 0.47014 0.06588 0.35392 0.0
C204 C 0.49903 0.17001 0.11869 0.0
C205 C 0.51157 0.19286 0.15711 0.0
C206 C 0.49833 0.14627 0.16365 0.0
C207 C 0.51024 0.14494 0.24769 0.0
C208 C 0.52249 0.168 0.28553 0.0
C209 C 0.5232 0.19146 0.24095 0.0
C210 C 0.53236 0.09292 0.39849 0.0
C211 C 0.50987 0.07493 0.40353 0.0
C212 C 0.53261 0.11491 0.34592 0.0
C213 C 0.51029 0.11995 0.29693 0.0
C214 C 0.48799 0.10157 0.29948 0.0
C215 C 0.4878 0.07931 0.35204 0.0
H216 H 0.31519 0.54129 0.30228 0.0
H217 H 0.34933 0.49556 0.09145 0.0
H218 H 0.35205 0.53454 0.39837 0.0
H219 H 0.38696 0.48915 0.18801 0.0
H220 H 0.46284 0.51781 0.36169 0.0
H221 H 0.42566 0.51848 0.26056 0.0
H222 H 0.371 0.49759 0.47777 0.0
H223 H 0.40831 0.49617 0.57859 0.0
C224 C 0.33064 0.52973 0.27643 0.0
C225 C 0.32929 0.51895 0.18921 0.0
C226 C 0.35171 0.52573 0.33187 0.0
C227 C 0.37244 0.51118 0.30134 0.0
C228 C 0.37131 0.50048 0.21357 0.0
C229 C 0.34977 0.50408 0.15833 0.0
C230 C 0.44294 0.5128 0.3876 0.0
C231 C 0.43862 0.50673 0.47835 0.0
C232 C 0.42161 0.51319 0.32943 0.0
C233 C 0.39531 0.50809 0.36083 0.0
C234 C 0.391 0.50173 0.4514 0.0
C235 C 0.41238 0.50088 0.50923 0.0
H236 H 0.95771 0.32175 0.28377 0.0
H237 H 0.02293 0.34516 0.10417 0.0
H238 H 0.96834 0.36033 0.37763 0.0
H239 H 0.03317 0.38464 0.19785 0.0
H240 H 1.00634 0.46452 0.35456 0.0
H241 H 1.00338 0.42665 0.25134 0.0
H242 H 0.01217 0.37649 0.4725 0.0
H243 H 0.01577 0.41412 0.57498 0.0
C244 C 0.97431 0.33525 0.26424 0.0
C245 C 0.98955 0.33041 0.18693 0.0
C246 C 0.98042 0.35728 0.31816 0.0
C247 C 1.00162 0.37538 0.29522 0.0
C248 C 0.01672 0.37092 0.21693 0.0
C249 C 0.01093 0.34838 0.16365 0.0
C250 C 1.00813 0.44544 0.38071 0.0
C251 C 0.01108 0.44228 0.47299 0.0
C252 C 1.00656 0.42383 0.32164 0.0
C253 C 1.00745 0.39868 0.35413 0.0
C254 C 0.01135 0.39567 0.44581 0.0
C255 C 0.0134 0.41723 0.50441 0.0
H256 H 0.83801 0.02762 0.04647 0.0
H257 H 0.82368 0.95342 0.91004 0.0
H258 H 0.88104 0.03465 0.96679 0.0
H259 H 0.86702 0.96 0.83336 0.0
H260 H 0.95859 0.97735 0.76609 0.0
H261 H 0.92143 0.97007 0.87498 0.0
H262 H 0.88727 0.03755 0.78064 0.0
H263 H 0.9235 0.04411 0.67021 0.0
C264 C 0.84438 0.01251 0.00154 0.0
C265 C 0.82755 0.98992 0.9846 0.0
C266 C 0.86895 0.01656 0.95583 0.0
C267 C 0.87745 0.99777 0.89439 0.0
C268 C 0.86116 0.97465 0.88109 0.0
C269 C 0.83634 0.97094 0.92475 0.0
C270 C 0.94336 0.99081 0.76996 0.0
C271 C 0.94389 0.0113 0.70988 0.0
C272 C 0.92209 0.98662 0.83185 0.0
C273 C 0.90155 1.00336 0.83651 0.0
C274 C 0.90292 0.02451 0.77922 0.0
C275 C 0.92361 0.0282 0.71587 0.0
H276 H 0.51537 0.84491 0.09187 0.0
H277 H 0.56514 0.82207 0.87071 0.0
H278 H 0.50606 0.88395 0.01042 0.0
H279 H 0.55525 0.86017 0.78917 0.0
H280 H 0.50524 0.9144 0.63539 0.0
H281 H 0.5107 0.87642 0.72483 0.0
H282 H 0.53799 0.92635 0.94508 0.0
H283 H 0.53316 0.96459 0.85484 0.0
C284 C 0.52407 0.84808 0.02581 0.0
C285 C 0.54094 0.83043 0.98751 0.0
C286 C 0.51886 0.87043 0.97944 0.0
C287 C 0.52987 0.87504 0.89323 0.0
C288 C 0.54634 0.85709 0.85504 0.0
C289 C 0.55203 0.8353 0.90192 0.0
C290 C 0.5123 0.91738 0.70297 0.0
C291 C 0.51892 0.94262 0.73753 0.0
C292 C 0.51541 0.89558 0.7542 0.0
C293 C 0.52465 0.8984 0.84211 0.0
C294 C 0.53061 0.92359 0.87783 0.0
C295 C 0.52805 0.94546 0.8258 0.0
H296 H 0.71772 0.52117 0.78075 0.0
H297 H 0.6701 0.51685 0.02348 0.0
H298 H 0.6781 0.51859 0.69246 0.0
H299 H 0.62972 0.51568 0.93485 0.0
H300 H 0.56213 0.48796 0.74152 0.0
H301 H 0.60057 0.49177 0.83824 0.0
H302 H 0.64398 0.54013 0.64322 0.0
H303 H 0.60606 0.53492 0.54525 0.0
C304 C 0.69862 0.52001 0.81541 0.0
C305 C 0.69713 0.51927 0.90917 0.0
C306 C 0.6757 0.51879 0.76453 0.0
C307 C 0.65029 0.51727 0.80556 0.0
C308 C 0.64877 0.51658 0.90008 0.0
C309 C 0.67192 0.51742 0.95129 0.0
C310 C 0.57995 0.4994 0.71955 0.0
C311 C 0.58116 0.51088 0.63513 0.0
C312 C 0.60204 0.50177 0.77546 0.0
C313 C 0.62587 0.51602 0.74902 0.0
C314 C 0.6265 0.5283 0.66563 0.0
C315 C 0.60461 0.52553 0.60928 0.0
H316 H 0.01589 0.68189 0.03229 0.0
H317 H 0.95256 0.70074 0.86437 0.0
H318 H 0.01943 0.64135 0.94595 0.0
H319 H 0.95502 0.65999 0.78113 0.0
H320 H 0.98863 0.60605 0.57539 0.0
H321 H 0.98316 0.64326 0.67341 0.0
H322 H 1.00111 0.59865 0.90124 0.0
H323 H 1.0077 0.56133 0.80091 0.0
C324 C 1.00236 0.67708 0.97814 0.0
C325 C 0.98406 0.69453 0.95452 0.0
C326 C 1.0043 0.6538 0.92871 0.0
C327 C 0.98781 0.64742 0.85521 0.0
C328 C 0.96862 0.66443 0.83528 0.0
C329 C 0.96699 0.68774 0.88359 0.0
C330 C 0.99135 0.60407 0.64642 0.0
C331 C 0.99861 0.58072 0.68029 0.0
C332 C 0.98797 0.62545 0.70312 0.0
C333 C 0.99138 0.62409 0.79597 0.0
C334 C 0.99852 0.60058 0.83017 0.0
C335 C 1.00213 0.57912 0.77286 0.0
H336 H 0.02021 0.21389 0.23085 0.0
H337 H 0.94083 0.18975 0.14701 0.0
H338 H 0.02347 0.17232 0.29613 0.0
H339 H 0.94261 0.1484 0.22066 0.0
H340 H 0.96775 0.06589 0.23137 0.0
H341 H 0.96007 0.11005 0.19064 0.0
H342 H 0.01619 0.1403 0.3901 0.0
H343 H 0.02613 0.09692 0.42027 0.0
C344 C 1.00275 0.20014 0.23204 0.0
C345 C 0.98028 0.20491 0.18464 0.0
C346 C 1.00457 0.17599 0.26912 0.0
C347 C 0.9835 0.15633 0.26221 0.0
C348 C 0.95967 0.16252 0.22442 0.0
C349 C 0.95824 0.18648 0.18454 0.0
C350 C 0.97888 0.08219 0.26392 0.0
C351 C 0.99795 0.07805 0.32704 0.0
C352 C 0.9741 0.10756 0.2425 0.0
C353 C 0.98747 0.12918 0.28693 0.0
C354 C 1.00606 0.12459 0.35171 0.0
C355 C 0.01173 0.09949 0.36951 0.0
H356 H 0.31997 0.94212 0.06768 0.0
H357 H 0.29862 0.99629 0.27547 0.0
H358 H 0.35334 0.92677 0.1639 0.0
H359 H 0.33232 0.98163 0.3708 0.0
H360 H 0.43757 0.95881 0.26309 0.0
H361 H 0.39465 0.95214 0.19319 0.0
H362 H 0.35578 0.95133 0.45379 0.0
H363 H 0.39913 0.95848 0.52381 0.0
C364 C 0.32177 0.95001 0.13529 0.0
C365 C 0.30713 0.97063 0.16394 0.0
C366 C 0.34096 0.94138 0.19012 0.0
C367 C 0.34601 0.95351 0.27393 0.0
C368 C 0.32898 0.97183 0.3067 0.0
C369 C 0.30962 0.98028 0.25208 0.0
C370 C 0.41989 0.95656 0.30546 0.0
C371 C 0.42156 0.95951 0.39852 0.0
C372 C 0.39523 0.95247 0.26552 0.0
C373 C 0.37169 0.95132 0.31793 0.0
C374 C 0.37352 0.95236 0.41164 0.0
C375 C 0.3983 0.95638 0.45166 0.0
H376 H 0.43449 0.32052 0.08913 0.0
H377 H 0.50641 0.30085 0.21001 0.0
H378 H 0.44077 0.36395 0.15434 0.0
H379 H 0.51198 0.34387 0.28055 0.0
H380 H 0.53984 0.429 0.25255 0.0
H381 H 0.52732 0.38357 0.21342 0.0
H382 H 0.44483 0.39563 0.26673 0.0
H383 H 0.45726 0.44113 0.29991 0.0
C384 C 0.45081 0.32508 0.13414 0.0
C385 C 0.47033 0.30767 0.14267 0.0
C386 C 0.45459 0.3501 0.17111 0.0
C387 C 0.47759 0.35779 0.21938 0.0
C388 C 0.4947 0.33889 0.24021 0.0
C389 C 0.49113 0.31397 0.20188 0.0
C390 C 0.51901 0.42202 0.25319 0.0
C391 C 0.49955 0.43856 0.27873 0.0
C392 C 0.51183 0.39586 0.23303 0.0
C393 C 0.48508 0.38571 0.23939 0.0
C394 C 0.46558 0.40267 0.26104 0.0
C395 C 0.47272 0.42885 0.27957 0.0
H396 H 0.22231 0.53436 0.21902 0.0
H397 H 0.1874 0.4557 0.18603 0.0
H398 H 0.18102 0.54725 0.28422 0.0
H399 H 0.14622 0.4681 0.25634 0.0
H400 H 0.06935 0.50363 0.22503 0.0
H401 H 0.11394 0.49163 0.1893 0.0
H402 H 0.14573 0.54735 0.38823 0.0
H403 H 0.10143 0.56036 0.4195 0.0
C404 C 0.20626 0.51948 0.23123 0.0
C405 C 0.20772 0.49416 0.19682 0.0
C406 C 0.18243 0.52691 0.26771 0.0
C407 C 0.15999 0.50891 0.27181 0.0
C408 C 0.16288 0.48264 0.25037 0.0
C409 C 0.18659 0.47534 0.21236 0.0
C410 C 0.08603 0.51388 0.25865 0.0
C411 C 0.08202 0.5329 0.32464 0.0
C412 C 0.11148 0.50658 0.24009 0.0
C413 C 0.13328 0.51788 0.28838 0.0
C414 C 0.1294 0.53816 0.35017 0.0
C415 C 0.10401 0.54579 0.36743 0.0
H416 H 1.00071 0.80935 0.91577 0.0
H417 H 0.07299 0.8263 0.06135 0.0
H418 H 1.0072 0.85191 0.84764 0.0
H419 H 0.07953 0.86894 0.99342 0.0
H420 H 0.08297 0.94139 0.80642 0.0
H421 H 0.08454 0.89628 0.85078 0.0
H422 H 1.00251 0.89415 0.93891 0.0
H423 H 1.00096 0.93907 0.89526 0.0
C424 C 0.01869 0.82164 0.92948 0.0
C425 C 0.03631 0.81471 0.99383 0.0
C426 C 0.02216 0.84615 0.89189 0.0
C427 C 0.04344 0.86389 0.91756 0.0
C428 C 0.06288 0.85567 0.97306 0.0
C429 C 0.05929 0.83122 0.01121 0.0
C430 C 0.0655 0.93142 0.83729 0.0
C431 C 0.04183 0.94365 0.84753 0.0
C432 C 0.06635 0.9056 0.86177 0.0
C433 C 0.04344 0.8916 0.89571 0.0
C434 C 0.02025 0.90433 0.91048 0.0
C435 C 0.01948 0.93016 0.88701 0.0
H436 H 0.72247 0.0157 0.88874 0.0
H437 H 0.70652 0.07658 0.07991 0.0
H438 H 0.68779 0.02892 0.79354 0.0
H439 H 0.67177 0.08984 0.98489 0.0
H440 H 0.58514 0.05755 0.89846 0.0
H441 H 0.62867 0.06223 0.96661 0.0
H442 H 0.66637 0.06202 0.70446 0.0
H443 H 0.62271 0.05748 0.63625 0.0
C444 C 0.71242 0.03269 0.90821 0.0
C445 C 0.71678 0.04488 0.99207 0.0
C446 C 0.69249 0.04024 0.85391 0.0
C447 C 0.67671 0.06004 0.88301 0.0
C448 C 0.68333 0.07422 0.96176 0.0
C449 C 0.70328 0.06674 0.01576 0.0
C450 C 0.60273 0.05919 0.85553 0.0
C451 C 0.60064 0.05701 0.76242 0.0
C452 C 0.62766 0.06204 0.89435 0.0
C453 C 0.65092 0.06248 0.84067 0.0
C454 C 0.64877 0.06169 0.74727 0.0
C455 C 0.62381 0.05916 0.70843 0.0
H456 H 0.58324 0.69278 0.02916 0.0
H457 H 0.51018 0.71207 0.91564 0.0
H458 H 0.57727 0.64966 0.96147 0.0
H459 H 0.50468 0.66922 0.84282 0.0
H460 H 0.47902 0.58328 0.86789 0.0
H461 H 0.49072 0.6288 0.90789 0.0
H462 H 0.57325 0.61886 0.84628 0.0
H463 H 0.5617 0.57327 0.81227 0.0
C464 C 0.56673 0.68822 0.98493 0.0
C465 C 0.54697 0.70543 0.97843 0.0
C466 C 0.56311 0.66338 0.94663 0.0
C467 C 0.53991 0.65561 0.89958 0.0
C468 C 0.52222 0.6743 0.88179 0.0
C469 C 0.52569 0.69908 0.92133 0.0
C470 C 0.4997 0.59075 0.86555 0.0
C471 C 0.51944 0.57476 0.83771 0.0
C472 C 0.50639 0.61696 0.88622 0.0
C473 C 0.53289 0.62771 0.87803 0.0
C474 C 0.55268 0.61133 0.85357 0.0
C475 C 0.54606 0.58509 0.83461 0.0
H476 H 0.81008 0.429 0.0384 0.0
H477 H 0.7948 0.49511 0.88392 0.0
H478 H 0.8524 0.42641 0.95869 0.0
H479 H 0.83701 0.49432 0.81071 0.0
H480 H 0.91704 0.50128 0.70908 0.0
H481 H 0.87145 0.48502 0.73156 0.0
H482 H 0.89315 0.44742 0.97179 0.0
H483 H 0.93992 0.46003 0.93677 0.0
C484 C 0.81536 0.44231 0.98482 0.0
C485 C 0.79949 0.46257 0.96846 0.0
C486 C 0.83993 0.44132 0.94064 0.0
C487 C 0.84916 0.46091 0.881 0.0
C488 C 0.83128 0.47874 0.85582 0.0
C489 C 0.80657 0.47922 0.89796 0.0
C490 C 0.91198 0.48901 0.76535 0.0
C491 C 0.93172 0.48205 0.82151 0.0
C492 C 0.88565 0.47996 0.7796 0.0
C493 C 0.8779 0.4654 0.85536 0.0
C494 C 0.89797 0.45824 0.91186 0.0
C495 C 0.92479 0.46595 0.89353 0.0
H496 H 0.97512 0.21177 0.81334 0.0
H497 H 0.05042 0.2107 0.94071 0.0
H498 H 0.98287 0.17166 0.73143 0.0
H499 H 0.05837 0.17044 0.8591 0.0
H500 H 0.03572 0.08047 0.82882 0.0
H501 H 0.0366 0.12588 0.88058 0.0
H502 H 1.00864 0.14707 0.62443 0.0
H503 H 1.00722 0.10211 0.57366 0.0
C504 C 0.99409 0.20382 0.81941 0.0
C505 C 0.01237 0.21465 0.88204 0.0
C506 C 0.9984 0.18053 0.77367 0.0
C507 C 0.02101 0.16746 0.79026 0.0
C508 C 0.04054 0.17973 0.84604 0.0
C509 C 0.03632 0.20317 0.89103 0.0
C510 C 0.02992 0.09484 0.78348 0.0
C511 C 0.02144 0.08746 0.69703 0.0
C512 C 0.03066 0.12094 0.81276 0.0
C513 C 0.02277 0.14021 0.75645 0.0
C514 C 0.01471 0.13281 0.66975 0.0
C515 C 0.01406 0.10689 0.64053 0.0
H516 H 0.33799 0.05558 0.98627 0.0
H517 H 0.30995 0.99446 0.80235 0.0
H518 H 0.37919 0.0626 0.89851 0.0
H519 H 0.35084 1.00171 0.71245 0.0
H520 H 0.44071 0.9915 0.68034 0.0
H521 H 0.39515 0.99132 0.73579 0.0
H522 H 0.40466 0.07488 0.76647 0.0
H523 H 0.45058 0.07486 0.71057 0.0
C524 C 0.3401 0.04459 0.92427 0.0
C525 C 0.32051 0.02488 0.90007 0.0
C526 C 0.36386 0.04842 0.87408 0.0
C527 C 0.36872 0.03247 0.79869 0.0
C528 C 0.34813 0.01408 0.77087 0.0
C529 C 0.32441 0.01023 0.82126 0.0
C530 C 0.43291 0.0099 0.69646 0.0
C531 C 0.44925 0.0332 0.68985 0.0
C532 C 0.40665 0.00984 0.72856 0.0
C533 C 0.39591 0.03311 0.7556 0.0
C534 C 0.41217 0.05653 0.74715 0.0
C535 C 0.43849 0.05656 0.71473 0.0
H536 H 0.45644 0.29531 0.77622 0.0
H537 H 0.5349 0.31271 0.87924 0.0
H538 H 0.46045 0.33645 0.69757 0.0
H539 H 0.5388 0.35407 0.80247 0.0
H540 H 0.51222 0.43852 0.79656 0.0
H541 H 0.51269 0.39352 0.84274 0.0
H542 H 0.48597 0.36643 0.58232 0.0
H543 H 0.48587 0.41143 0.53541 0.0
C544 C 0.47518 0.30717 0.77753 0.0
C545 C 0.49558 0.3004 0.83246 0.0
C546 C 0.4773 0.33103 0.73386 0.0
C547 C 0.4997 0.34885 0.74546 0.0
C548 C 0.52111 0.34097 0.79324 0.0
C549 C 0.51916 0.31694 0.83544 0.0
C550 C 0.50627 0.42302 0.74925 0.0
C551 C 0.4989 0.42872 0.66237 0.0
C552 C 0.50685 0.39718 0.77536 0.0
C553 C 0.49967 0.37631 0.71587 0.0
C554 C 0.49169 0.38199 0.62969 0.0
C555 C 0.4916 0.40783 0.60297 0.0
H556 H 0.20922 0.46023 0.83191 0.0
H557 H 0.20926 0.54035 0.91739 0.0
H558 H 0.16825 0.46377 0.74995 0.0
H559 H 0.16792 0.5437 0.83845 0.0
H560 H 0.07529 0.51958 0.82679 0.0
H561 H 0.12068 0.51885 0.88034 0.0
H562 H 0.14589 0.49025 0.62174 0.0
H563 H 0.10076 0.49166 0.56718 0.0
C564 C 0.2013 0.47897 0.8291 0.0
C565 C 0.21303 0.50023 0.87899 0.0
C566 C 0.17754 0.48089 0.78354 0.0
C567 C 0.16456 0.5039 0.78896 0.0
C568 C 0.17726 0.52565 0.83355 0.0
C569 C 0.2013 0.5239 0.87714 0.0
C570 C 0.09046 0.51309 0.78134 0.0
C571 C 0.08424 0.50564 0.6927 0.0
C572 C 0.11654 0.51287 0.8118 0.0
C573 C 0.13698 0.50463 0.75511 0.0
C574 C 0.13067 0.4967 0.66705 0.0
C575 C 0.10475 0.49753 0.63592 0.0
H576 H 0.03561 0.80572 0.35639 0.0
H577 H 0.95962 0.81022 0.23683 0.0
H578 H 0.02956 0.84521 0.44443 0.0
H579 H 0.9534 0.84988 0.32455 0.0
H580 H 0.98152 0.93893 0.35453 0.0
H581 H 0.97727 0.8936 0.30288 0.0
H582 H 1.00502 0.87025 0.55665 0.0
H583 H 0.00942 0.91537 0.60831 0.0
C584 C 0.01689 0.81431 0.35317 0.0
C585 C 0.9979 0.80467 0.29098 0.0
C586 C 0.01353 0.83718 0.40266 0.0
C587 C 0.99122 0.85104 0.3901 0.0
C588 C 0.97099 0.83991 0.33467 0.0
C589 C 0.97426 0.81686 0.28594 0.0
C590 C 0.98644 0.92414 0.39972 0.0
C591 C 0.99603 0.93099 0.4853 0.0
C592 C 0.98379 0.89808 0.3704 0.0
C593 C 0.99079 0.87823 0.42573 0.0
C594 C 0.99963 0.88502 0.51215 0.0
C595 C 1.00211 0.91099 0.54167 0.0
H596 H 0.70652 0.03961 0.34093 0.0
H597 H 0.69857 0.96208 0.22702 0.0
H598 H 0.66394 0.03143 0.41991 0.0
H599 H 0.65594 0.95361 0.30641 0.0
H600 H 0.56651 0.96916 0.31808 0.0
H601 H 0.61342 0.97011 0.27619 0.0
H602 H 0.63395 0.0081 0.52875 0.0
H603 H 0.58672 1.00649 0.571 0.0
C604 C 0.69627 0.02034 0.33664 0.0
C605 C 0.70606 1.00136 0.27884 0.0
C606 C 0.6717 0.01568 0.3813 0.0
C607 C 0.65616 0.992 0.36833 0.0
C608 C 0.66713 0.97222 0.31678 0.0
C609 C 0.69182 0.97686 0.27261 0.0
C610 C 0.58104 0.97751 0.36506 0.0
C611 C 0.57285 0.98847 0.44689 0.0
C612 C 0.60802 0.97789 0.34134 0.0
C613 C 0.62764 0.98924 0.39888 0.0
C614 C 0.61944 0.99952 0.48214 0.0
C615 C 0.59236 0.99892 0.50609 0.0
H616 H 0.48433 0.70203 0.2517 0.0
H617 H 0.56424 0.71825 0.34333 0.0
H618 H 0.48088 0.66057 0.32764 0.0
H619 H 0.5607 0.67699 0.42115 0.0
H620 H 0.53627 0.60141 0.58209 0.0
H621 H 0.53621 0.64668 0.53818 0.0
H622 H 0.50628 0.62107 0.28018 0.0
H623 H 0.5067 0.57578 0.32334 0.0
C624 C 0.50054 0.69755 0.29309 0.0
C625 C 0.5244 0.71372 0.29262 0.0
C626 C 0.49882 0.67345 0.3347 0.0
C627 C 0.52075 0.66516 0.37857 0.0
C628 C 0.54346 0.68272 0.38769 0.0
C629 C 0.54533 0.70667 0.34463 0.0
C630 C 0.52986 0.6054 0.51564 0.0
C631 C 0.52162 0.58485 0.45603 0.0
C632 C 0.52979 0.63138 0.49068 0.0
C633 C 0.5209 0.63755 0.40619 0.0
C634 C 0.51284 0.61702 0.34637 0.0
C635 C 0.51339 0.59102 0.37066 0.0
H636 H 0.79603 0.47018 0.32502 0.0
H637 H 0.81424 0.5431 0.19538 0.0
H638 H 0.83737 0.47643 0.40487 0.0
H639 H 0.85554 0.55021 0.27806 0.0
H640 H 0.94269 0.53497 0.3334 0.0
H641 H 0.89811 0.53467 0.27326 0.0
H642 H 0.8656 0.49592 0.50903 0.0
H643 H 0.90992 0.49442 0.56422 0.0
C644 C 0.80823 0.48833 0.31762 0.0
C645 C 0.80151 0.50636 0.25519 0.0
C646 C 0.83227 0.49188 0.36286 0.0
C647 C 0.8504 0.51372 0.34751 0.0
C648 C 0.84256 0.53285 0.29053 0.0
C649 C 0.81846 0.52918 0.2448 0.0
C650 C 0.926 0.52635 0.37219 0.0
C651 C 0.93009 0.51509 0.45483 0.0
C652 C 0.90026 0.52646 0.33822 0.0
C653 C 0.87781 0.5154 0.38608 0.0
C654 C 0.88208 0.50443 0.46908 0.0
C655 C 0.90771 0.50401 0.50207 0.0
loop_
_geom_bond_atom_site_label_1
_geom_bond_atom_site_label_2
_geom_bond_distance
_geom_bond_site_symmetry_2
_ccdc_geom_bond_type
H0 C5 0.930 . S
H1 C8 0.930 1_556 S
H2 C10 0.930 . S
H3 C4 1.016 1_556 S
C4 H3 1.016 1_554 S
C4 N11 1.286 . S
C5 H0 0.930 . S
C5 C6 1.397 . S
C5 C7 1.361 . S
C6 C5 1.397 . S
C6 C10 1.390 . S
C7 C5 1.361 . S
C7 C8 1.393 . S
C7 N11 1.413 . S
C8 H1 0.930 1_554 S
C8 C7 1.393 . S
C8 C9 1.399 . S
C9 C8 1.399 . S
C9 C10 1.381 . S
C10 H2 0.930 . S
C10 C6 1.390 . S
C10 C9 1.381 . S
N11 C4 1.286 . S
N11 C7 1.413 . S
H12 C17 0.930 . S
H13 C20 0.930 . S
H14 C22 0.930 . S
H15 C16 1.032 . S
C16 H15 1.032 . S
C16 N23 1.269 1_656 S
C17 H12 0.930 . S
C17 C18 1.397 . S
C17 C19 1.361 . S
C18 C17 1.397 . S
C18 C22 1.390 1_455 S
C19 C17 1.361 . S
C19 C20 1.393 1_554 S
C19 N23 1.413 . S
C20 H13 0.930 . S
C20 C19 1.393 1_556 S
C20 C21 1.404 . S
C21 C20 1.404 . S
C21 C22 1.379 1_456 S
C22 H14 0.930 . S
C22 C18 1.390 1_655 S
C22 C21 1.379 1_654 S
N23 C16 1.269 1_454 S
N23 C19 1.413 . S
H24 C29 0.930 . S
H25 C32 0.930 . S
H26 C34 0.930 . S
H27 C28 1.016 . S
C28 H27 1.016 . S
C28 N35 1.286 1_556 S
C29 H24 0.930 . S
C29 C30 1.397 . S
C29 C31 1.361 . S
C30 C29 1.397 . S
C30 C34 1.390 . S
C31 C29 1.361 . S
C31 C32 1.393 1_554 S
C31 N35 1.413 . S
C32 H25 0.930 . S
C32 C31 1.393 1_556 S
C32 C33 1.399 . S
C33 C32 1.399 . S
C33 C34 1.381 1_556 S
C34 H26 0.930 . S
C34 C30 1.390 . S
C34 C33 1.381 1_554 S
N35 C28 1.286 1_554 S
N35 C31 1.413 . S
H36 C41 0.930 . S
H37 C44 0.930 1_556 S
H38 C46 0.930 . S
H39 C40 1.016 1_556 S
C40 H39 1.016 1_554 S
C40 N47 1.286 . S
C41 H36 0.930 . S
C41 C42 1.397 . S
C41 C43 1.361 . S
C42 C41 1.397 . S
C42 C46 1.390 . S
C43 C41 1.361 . S
C43 C44 1.393 . S
C43 N47 1.413 . S
C44 H37 0.930 1_554 S
C44 C43 1.393 . S
C44 C45 1.399 . S
C45 C44 1.399 . S
C45 C46 1.381 . S
C46 H38 0.930 . S
C46 C42 1.390 . S
C46 C45 1.381 . S
N47 C40 1.286 . S
N47 C43 1.413 . S
H48 C53 0.930 . S
H49 C56 0.930 . S
H50 C58 0.930 . S
H51 C52 1.016 . S
C52 H51 1.016 . S
C52 N59 1.286 . S
C53 H48 0.930 . S
C53 C54 1.397 . S
C53 C55 1.361 1_556 S
C54 C53 1.397 . S
C54 C58 1.390 1_556 S
C55 C53 1.361 1_554 S
C55 C56 1.393 . S
C55 N59 1.413 . S
C56 H49 0.930 . S
C56 C55 1.393 . S
C56 C57 1.399 . S
C57 C56 1.399 . S
C57 C58 1.381 . S
C58 H50 0.930 . S
C58 C54 1.390 1_554 S
C58 C57 1.381 . S
N59 C52 1.286 . S
N59 C55 1.413 . S
H60 C65 0.930 1_556 S
H61 C68 0.930 . S
H62 C70 0.930 . S
H63 C64 1.024 . S
C64 H63 1.024 . S
C64 N71 1.272 1_655 S
C65 H60 0.930 1_554 S
C65 C66 1.397 1_554 S
C65 C67 1.361 . S
C66 C65 1.397 1_556 S
C66 C70 1.390 1_456 S
C67 C65 1.361 . S
C67 C68 1.393 . S
C67 N71 1.413 . S
C68 H61 0.930 . S
C68 C67 1.393 . S
C68 C69 1.401 . S
C69 C68 1.401 . S
C69 C70 1.378 1_455 S
C70 H62 0.930 . S
C70 C66 1.390 1_654 S
C70 C69 1.378 1_655 S
N71 C64 1.272 1_455 S
N71 C67 1.413 . S
H72 C77 0.930 1_556 S
H73 C80 0.930 . S
H74 C82 0.930 . S
H75 C76 1.016 . S
C76 H75 1.016 . S
C76 N83 1.286 . S
C77 H72 0.930 1_554 S
C77 C78 1.397 . S
C77 C79 1.361 . S
C78 C77 1.397 . S
C78 C82 1.390 . S
C79 C77 1.361 . S
C79 C80 1.393 . S
C79 N83 1.413 . S
C80 H73 0.930 . S
C80 C79 1.393 . S
C80 C81 1.399 . S
C81 C80 1.399 . S
C81 C82 1.381 . S
C82 H74 0.930 . S
C82 C78 1.390 . S
C82 C81 1.381 . S
N83 C76 1.286 . S
N83 C79 1.413 . S
H84 C89 0.930 . S
H85 C92 0.930 . S
H86 C94 0.930 . S
H87 C88 1.016 . S
C88 H87 1.016 . S
C88 N95 1.286 . S
C89 H84 0.930 . S
C89 C90 1.397 . S
C89 C91 1.361 1_556 S
C90 C89 1.397 . S
C90 C94 1.390 1_556 S
C91 C89 1.361 1_554 S
C91 C92 1.393 . S
C91 N95 1.413 . S
C92 H85 0.930 . S
C92 C91 1.393 . S
C92 C93 1.399 . S
C93 C92 1.399 . S
C93 C94 1.381 . S
C94 H86 0.930 . S
C94 C90 1.390 1_554 S
C94 C93 1.381 . S
N95 C88 1.286 . S
N95 C91 1.413 . S
Dy96 O100 2.398 . S
Dy96 O101 2.491 1_455 S
Dy96 O102 2.403 . S
Dy96 O103 2.664 1_565 S
Dy96 O107 2.326 . S
Dy96 O111 2.310 1_455 S
Dy96 O112 2.351 1_565 S
C97 O108 1.185 . S
C97 O109 1.355 1_655 S
C98 O100 1.185 . S
C98 O101 1.355 1_455 S
Dy99 O103 2.310 1_655 S
Dy99 O106 2.351 1_545 S
Dy99 O108 2.398 . S
Dy99 O109 2.491 1_655 S
Dy99 O110 2.403 . S
Dy99 O111 2.664 1_545 S
Dy99 O113 2.326 . S
O100 Dy96 2.398 . S
O100 C98 1.185 . S
O101 Dy96 2.491 1_655 S
O101 C98 1.355 1_655 S
O102 Dy96 2.403 . S
O102 C104 1.254 1_565 S
O103 Dy96 2.664 1_545 S
O103 Dy99 2.310 1_455 S
O103 C104 1.268 . S
C104 O102 1.254 1_545 S
C104 O103 1.268 . S
C105 O110 1.254 1_565 S
C105 O111 1.268 . S
O106 Dy99 2.351 1_565 S
O106 C114 1.249 . S
O107 Dy96 2.326 . S
O107 C114 1.267 1_455 S
O108 C97 1.185 . S
O108 Dy99 2.398 . S
O109 C97 1.355 1_455 S
O109 Dy99 2.491 1_455 S
O110 Dy99 2.403 . S
O110 C105 1.254 1_545 S
O111 Dy96 2.310 1_655 S
O111 Dy99 2.664 1_565 S
O111 C105 1.268 . S
O112 Dy96 2.351 1_545 S
O112 C115 1.249 . S
O113 Dy99 2.326 . S
O113 C115 1.267 1_655 S
C114 O106 1.249 . S
C114 O107 1.267 1_655 S
C115 O112 1.249 . S
C115 O113 1.267 1_455 S
Dy116 O120 2.398 . S
Dy116 O121 2.491 1_565 S
Dy116 O122 2.403 . S
Dy116 O123 2.664 . S
Dy116 O127 2.326 1_565 S
Dy116 O131 2.310 1_565 S
Dy116 O132 2.351 . S
C117 O128 1.206 . S
C117 O129 1.348 1_545 S
C118 O120 1.185 1_545 S
C118 O121 1.355 . S
Dy119 O123 2.310 1_545 S
Dy119 O126 2.351 . S
Dy119 O128 2.398 . S
Dy119 O129 2.491 1_545 S
Dy119 O130 2.403 . S
Dy119 O131 2.664 . S
Dy119 O133 2.326 1_545 S
O120 Dy116 2.398 . S
O120 C118 1.185 1_565 S
O121 Dy116 2.491 1_545 S
O121 C118 1.355 . S
O122 Dy116 2.403 . S
O122 C124 1.254 . S
O123 Dy116 2.664 . S
O123 Dy119 2.310 1_565 S
O123 C124 1.268 . S
C124 O122 1.254 . S
C124 O123 1.268 . S
C125 O130 1.254 . S
C125 O131 1.268 . S
O126 Dy119 2.351 . S
O126 C134 1.249 . S
O127 Dy116 2.326 1_545 S
O127 C134 1.267 . S
O128 C117 1.206 . S
O128 Dy119 2.398 . S
O129 C117 1.348 1_565 S
O129 Dy119 2.491 1_565 S
O130 Dy119 2.403 . S
O130 C125 1.254 . S
O131 Dy116 2.310 1_545 S
O131 Dy119 2.664 . S
O131 C125 1.268 . S
O132 Dy116 2.351 . S
O132 C135 1.249 . S
O133 Dy119 2.326 1_565 S
O133 C135 1.267 . S
C134 O126 1.249 . S
C134 O127 1.267 . S
C135 O132 1.249 . S
C135 O133 1.267 . S
Dy136 O140 2.398 . S
Dy136 O141 2.491 . S
Dy136 O142 2.403 . S
Dy136 O143 2.664 . S
Dy136 O147 2.326 . S
Dy136 O151 2.310 . S
Dy136 O152 2.351 . S
C137 O148 1.185 . S
C137 O149 1.355 . S
C138 O140 1.185 . S
C138 O141 1.355 . S
Dy139 O143 2.310 . S
Dy139 O146 2.351 . S
Dy139 O148 2.398 . S
Dy139 O149 2.491 . S
Dy139 O150 2.403 . S
Dy139 O151 2.664 . S
Dy139 O153 2.326 . S
O140 Dy136 2.398 . S
O140 C138 1.185 . S
O141 Dy136 2.491 . S
O141 C138 1.355 . S
O142 Dy136 2.403 . S
O142 C144 1.254 . S
O143 Dy136 2.664 . S
O143 Dy139 2.310 . S
O143 C144 1.268 . S
C144 O142 1.254 . S
C144 O143 1.268 . S
C145 O150 1.254 . S
C145 O151 1.268 . S
O146 Dy139 2.351 . S
O146 C154 1.249 . S
O147 Dy136 2.326 . S
O147 C154 1.267 . S
O148 C137 1.185 . S
O148 Dy139 2.398 . S
O149 C137 1.355 . S
O149 Dy139 2.491 . S
O150 Dy139 2.403 . S
O150 C145 1.254 . S
O151 Dy136 2.310 . S
O151 Dy139 2.664 . S
O151 C145 1.268 . S
O152 Dy136 2.351 . S
O152 C155 1.249 . S
O153 Dy139 2.326 . S
O153 C155 1.267 . S
C154 O146 1.249 . S
C154 O147 1.267 . S
C155 O152 1.249 . S
C155 O153 1.267 . S
Dy156 O160 2.398 . S
Dy156 O161 2.491 . S
Dy156 O162 2.403 . S
Dy156 O163 2.664 1_655 S
Dy156 O167 2.326 . S
Dy156 O171 2.310 . S
Dy156 O172 2.351 1_655 S
C157 O168 1.185 . S
C157 O169 1.355 . S
C158 O160 1.185 . S
C158 O161 1.355 . S
Dy159 O163 2.310 . S
Dy159 O166 2.351 1_455 S
Dy159 O168 2.398 . S
Dy159 O169 2.491 . S
Dy159 O170 2.403 . S
Dy159 O171 2.664 1_455 S
Dy159 O173 2.326 . S
O160 Dy156 2.398 . S
O160 C158 1.185 . S
O161 Dy156 2.491 . S
O161 C158 1.355 . S
O162 Dy156 2.403 . S
O162 C164 1.254 . S
O163 Dy156 2.664 1_455 S
O163 Dy159 2.310 . S
O163 C164 1.268 1_455 S
C164 O162 1.254 . S
C164 O163 1.268 1_655 S
C165 O170 1.254 . S
C165 O171 1.268 1_455 S
O166 Dy159 2.351 1_655 S
O166 C174 1.249 . S
O167 Dy156 2.326 . S
O167 C174 1.267 . S
O168 C157 1.185 . S
O168 Dy159 2.398 . S
O169 C157 1.355 . S
O169 Dy159 2.491 . S
O170 Dy159 2.403 . S
O170 C165 1.254 . S
O171 Dy156 2.310 . S
O171 Dy159 2.664 1_655 S
O171 C165 1.268 1_655 S
O172 Dy156 2.351 1_455 S
O172 C175 1.249 . S
O173 Dy159 2.326 . S
O173 C175 1.267 . S
C174 O166 1.249 . S
C174 O167 1.267 . S
C175 O172 1.249 . S
C175 O173 1.267 . S
H176 C184 0.950 . S
H177 C189 0.950 . S
H178 C186 0.950 . S
H179 C188 0.950 . S
H180 C190 0.950 . S
H181 C192 0.950 . S
H182 C194 0.950 . S
H183 C195 0.950 . S
C184 H176 0.950 . S
C184 C185 1.386 . S
C184 C186 1.391 . S
C185 C184 1.386 . S
C185 C189 1.393 . S
C186 H178 0.950 . S
C186 C184 1.391 . S
C186 C187 1.400 . S
C187 C186 1.400 . S
C187 C188 1.398 . S
C187 C193 1.491 . S
C188 H179 0.950 . S
C188 C187 1.398 . S
C188 C189 1.391 . S
C189 H177 0.950 . S
C189 C185 1.393 . S
C189 C188 1.391 . S
C190 H180 0.950 . S
C190 C191 1.386 . S
C190 C192 1.391 . S
C191 C190 1.386 . S
C191 C195 1.393 . S
C192 H181 0.950 . S
C192 C190 1.391 . S
C192 C193 1.400 . S
C193 C187 1.491 . S
C193 C192 1.400 . S
C193 C194 1.398 . S
C194 H182 0.950 . S
C194 C193 1.398 . S
C194 C195 1.391 . S
C195 H183 0.950 . S
C195 C191 1.393 . S
C195 C194 1.391 . S
H196 C204 0.950 . S
H197 C209 0.950 . S
H198 C206 0.950 . S
H199 C208 0.950 . S
H200 C210 0.950 . S
H201 C212 0.950 . S
H202 C214 0.950 . S
H203 C215 0.950 . S
C204 H196 0.950 . S
C204 C205 1.386 . S
C204 C206 1.391 . S
C205 C204 1.386 . S
C205 C209 1.393 . S
C206 H198 0.950 . S
C206 C204 1.391 . S
C206 C207 1.400 . S
C207 C206 1.400 . S
C207 C208 1.398 . S
C207 C213 1.491 . S
C208 H199 0.950 . S
C208 C207 1.398 . S
C208 C209 1.391 . S
C209 H197 0.950 . S
C209 C205 1.393 . S
C209 C208 1.391 . S
C210 H200 0.950 . S
C210 C211 1.386 . S
C210 C212 1.391 . S
C211 C210 1.386 . S
C211 C215 1.393 . S
C212 H201 0.950 . S
C212 C210 1.391 . S
C212 C213 1.400 . S
C213 C207 1.491 . S
C213 C212 1.400 . S
C213 C214 1.398 . S
C214 H202 0.950 . S
C214 C213 1.398 . S
C214 C215 1.391 . S
C215 H203 0.950 . S
C215 C211 1.393 . S
C215 C214 1.391 . S
H216 C224 0.950 . S
H217 C229 0.950 . S
H218 C226 0.950 . S
H219 C228 0.950 . S
H220 C230 0.950 . S
H221 C232 0.950 . S
H222 C234 0.950 . S
H223 C235 0.950 . S
C224 H216 0.950 . S
C224 C225 1.386 . S
C224 C226 1.391 . S
C225 C224 1.386 . S
C225 C229 1.393 . S
C226 H218 0.950 . S
C226 C224 1.391 . S
C226 C227 1.400 . S
C227 C226 1.400 . S
C227 C228 1.398 . S
C227 C233 1.491 . S
C228 H219 0.950 . S
C228 C227 1.398 . S
C228 C229 1.391 . S
C229 H217 0.950 . S
C229 C225 1.393 . S
C229 C228 1.391 . S
C230 H220 0.950 . S
C230 C231 1.386 . S
C230 C232 1.391 . S
C231 C230 1.386 . S
C231 C235 1.393 . S
C232 H221 0.950 . S
C232 C230 1.391 . S
C232 C233 1.400 . S
C233 C227 1.491 . S
C233 C232 1.400 . S
C233 C234 1.398 . S
C234 H222 0.950 . S
C234 C233 1.398 . S
C234 C235 1.391 . S
C235 H223 0.950 . S
C235 C231 1.393 . S
C235 C234 1.391 . S
H236 C244 0.950 . S
H237 C249 0.950 . S
H238 C246 0.950 . S
H239 C248 0.950 . S
H240 C250 0.950 . S
H241 C252 0.950 . S
H242 C254 0.950 . S
H243 C255 0.950 . S
C244 H236 0.950 . S
C244 C245 1.382 1_655 S
C244 C246 1.391 . S
C245 C244 1.382 1_455 S
C245 C249 1.395 . S
C246 H238 0.950 . S
C246 C244 1.391 . S
C246 C247 1.400 1_655 S
C247 C246 1.400 1_455 S
C247 C248 1.398 . S
C247 C253 1.491 1_455 S
C248 H239 0.950 . S
C248 C247 1.398 . S
C248 C249 1.391 . S
C249 H237 0.950 . S
C249 C245 1.395 . S
C249 C248 1.391 . S
C250 H240 0.950 . S
C250 C251 1.386 1_455 S
C250 C252 1.391 . S
C251 C250 1.386 1_655 S
C251 C255 1.393 . S
C252 H241 0.950 . S
C252 C250 1.391 . S
C252 C253 1.400 1_455 S
C253 C247 1.491 1_655 S
C253 C252 1.400 1_655 S
C253 C254 1.398 . S
C254 H242 0.950 . S
C254 C253 1.398 . S
C254 C255 1.391 . S
C255 H243 0.950 . S
C255 C251 1.393 . S
C255 C254 1.391 . S
H256 C264 0.950 . S
H257 C269 0.950 . S
H258 C266 0.950 . S
H259 C268 0.950 . S
H260 C270 0.950 . S
H261 C272 0.950 . S
H262 C274 0.950 1_545 S
H263 C275 0.967 . S
C264 H256 0.950 . S
C264 C265 1.386 . S
C264 C266 1.391 . S
C265 C264 1.386 . S
C265 C269 1.393 . S
C266 H258 0.950 . S
C266 C264 1.391 . S
C266 C267 1.400 . S
C267 C266 1.400 . S
C267 C268 1.398 . S
C267 C273 1.491 . S
C268 H259 0.950 . S
C268 C267 1.398 . S
C268 C269 1.391 . S
C269 H257 0.950 . S
C269 C265 1.393 . S
C269 C268 1.391 . S
C270 H260 0.950 . S
C270 C271 1.386 . S
C270 C272 1.391 . S
C271 C270 1.386 . S
C271 C275 1.379 1_565 S
C272 H261 0.950 . S
C272 C270 1.391 . S
C272 C273 1.400 . S
C273 C267 1.491 . S
C273 C272 1.400 . S
C273 C274 1.398 . S
C274 H262 0.950 1_565 S
C274 C273 1.398 . S
C274 C275 1.387 1_565 S
C275 H263 0.967 . S
C275 C271 1.379 1_545 S
C275 C274 1.387 1_545 S
H276 C284 0.950 . S
H277 C289 0.950 . S
H278 C286 0.950 . S
H279 C288 0.950 . S
H280 C290 0.950 . S
H281 C292 0.950 . S
H282 C294 0.950 . S
H283 C295 0.950 . S
C284 H276 0.950 . S
C284 C285 1.386 . S
C284 C286 1.391 1_554 S
C285 C284 1.386 . S
C285 C289 1.393 1_554 S
C286 H278 0.950 . S
C286 C284 1.391 1_556 S
C286 C287 1.400 . S
C287 C286 1.400 . S
C287 C288 1.398 . S
C287 C293 1.491 . S
C288 H279 0.950 . S
C288 C287 1.398 . S
C288 C289 1.391 . S
C289 H277 0.950 . S
C289 C285 1.393 1_556 S
C289 C288 1.391 . S
C290 H280 0.950 . S
C290 C291 1.386 . S
C290 C292 1.391 . S
C291 C290 1.386 . S
C291 C295 1.393 . S
C292 H281 0.950 . S
C292 C290 1.391 . S
C292 C293 1.400 . S
C293 C287 1.491 . S
C293 C292 1.400 . S
C293 C294 1.398 . S
C294 H282 0.950 . S
C294 C293 1.398 . S
C294 C295 1.391 . S
C295 H283 0.950 . S
C295 C291 1.393 . S
C295 C294 1.391 . S
H296 C304 0.950 . S
H297 C309 0.950 . S
H298 C306 0.950 . S
H299 C308 0.950 . S
H300 C310 0.950 . S
H301 C312 0.950 . S
H302 C314 0.950 . S
H303 C315 0.950 . S
C304 H296 0.950 . S
C304 C305 1.386 . S
C304 C306 1.391 . S
C305 C304 1.386 . S
C305 C309 1.393 1_556 S
C306 H298 0.950 . S
C306 C304 1.391 . S
C306 C307 1.400 . S
C307 C306 1.400 . S
C307 C308 1.398 . S
C307 C313 1.491 . S
C308 H299 0.950 . S
C308 C307 1.398 . S
C308 C309 1.391 1_556 S
C309 H297 0.950 . S
C309 C305 1.393 1_554 S
C309 C308 1.391 1_554 S
C310 H300 0.950 . S
C310 C311 1.386 . S
C310 C312 1.391 . S
C311 C310 1.386 . S
C311 C315 1.393 . S
C312 H301 0.950 . S
C312 C310 1.391 . S
C312 C313 1.400 . S
C313 C307 1.491 . S
C313 C312 1.400 . S
C313 C314 1.398 . S
C314 H302 0.950 . S
C314 C313 1.398 . S
C314 C315 1.391 . S
C315 H303 0.950 . S
C315 C311 1.393 . S
C315 C314 1.391 . S
H316 C324 0.950 1_554 S
H317 C329 0.950 . S
H318 C326 0.950 . S
H319 C328 0.950 . S
H320 C330 0.950 . S
H321 C332 0.950 . S
H322 C334 0.950 . S
H323 C335 0.950 . S
C324 H316 0.950 1_556 S
C324 C325 1.374 1_455 S
C324 C326 1.391 . S
C325 C324 1.374 1_655 S
C325 C329 1.403 . S
C326 H318 0.950 . S
C326 C324 1.391 . S
C326 C327 1.401 1_455 S
C327 C326 1.401 1_655 S
C327 C328 1.398 . S
C327 C333 1.491 1_655 S
C328 H319 0.950 . S
C328 C327 1.398 . S
C328 C329 1.391 . S
C329 H317 0.950 . S
C329 C325 1.403 . S
C329 C328 1.391 . S
C330 H320 0.950 . S
C330 C331 1.386 1_655 S
C330 C332 1.391 . S
C331 C330 1.386 1_455 S
C331 C335 1.393 . S
C332 H321 0.950 . S
C332 C330 1.391 . S
C332 C333 1.400 1_655 S
C333 C327 1.491 1_455 S
C333 C332 1.400 1_455 S
C333 C334 1.398 . S
C334 H322 0.950 . S
C334 C333 1.398 . S
C334 C335 1.391 . S
C335 H323 0.950 . S
C335 C331 1.393 . S
C335 C334 1.391 . S
H336 C344 0.950 . S
H337 C349 0.950 . S
H338 C346 0.950 . S
H339 C348 0.950 . S
H340 C350 0.950 . S
H341 C352 0.950 . S
H342 C354 0.961 . S
H343 C355 0.950 1_455 S
C344 H336 0.950 . S
C344 C345 1.372 1_455 S
C344 C346 1.391 . S
C345 C344 1.372 1_655 S
C345 C349 1.408 . S
C346 H338 0.950 . S
C346 C344 1.391 . S
C346 C347 1.400 1_455 S
C347 C346 1.400 1_655 S
C347 C348 1.398 . S
C347 C353 1.491 . S
C348 H339 0.950 . S
C348 C347 1.398 . S
C348 C349 1.391 . S
C349 H337 0.950 . S
C349 C345 1.408 . S
C349 C348 1.391 . S
C350 H340 0.950 . S
C350 C351 1.386 . S
C350 C352 1.391 . S
C351 C350 1.386 . S
C351 C355 1.393 . S
C352 H341 0.950 . S
C352 C350 1.391 . S
C352 C353 1.400 . S
C353 C347 1.491 . S
C353 C352 1.400 . S
C353 C354 1.388 1_655 S
C354 H342 0.961 . S
C354 C353 1.388 1_455 S
C354 C355 1.391 1_455 S
C355 H343 0.950 1_655 S
C355 C351 1.393 . S
C355 C354 1.391 1_655 S
H356 C364 0.950 . S
H357 C369 0.950 . S
H358 C366 0.950 . S
H359 C368 0.950 . S
H360 C370 0.950 . S
H361 C372 0.950 . S
H362 C374 0.948 1_565 S
H363 C375 0.950 . S
C364 H356 0.950 . S
C364 C365 1.386 . S
C364 C366 1.391 . S
C365 C364 1.386 . S
C365 C369 1.393 . S
C366 H358 0.950 . S
C366 C364 1.391 . S
C366 C367 1.400 . S
C367 C366 1.400 . S
C367 C368 1.398 . S
C367 C373 1.491 . S
C368 H359 0.950 . S
C368 C367 1.398 . S
C368 C369 1.391 . S
C369 H357 0.950 . S
C369 C365 1.393 . S
C369 C368 1.391 . S
C370 H360 0.950 . S
C370 C371 1.386 . S
C370 C372 1.391 . S
C371 C370 1.386 . S
C371 C375 1.393 1_545 S
C372 H361 0.950 . S
C372 C370 1.391 . S
C372 C373 1.400 . S
C373 C367 1.491 . S
C373 C372 1.400 . S
C373 C374 1.402 . S
C374 H362 0.948 1_545 S
C374 C373 1.402 . S
C374 C375 1.389 1_545 S
C375 H363 0.950 . S
C375 C371 1.393 1_565 S
C375 C374 1.389 1_565 S
H376 C384 0.950 . S
H377 C389 0.950 . S
H378 C386 0.950 . S
H379 C388 0.950 . S
H380 C390 0.950 . S
H381 C392 0.950 . S
H382 C394 0.950 . S
H383 C395 0.950 . S
C384 H376 0.950 . S
C384 C385 1.386 . S
C384 C386 1.391 . S
C385 C384 1.386 . S
C385 C389 1.393 . S
C386 H378 0.950 . S
C386 C384 1.391 . S
C386 C387 1.400 . S
C387 C386 1.400 . S
C387 C388 1.398 . S
C387 C393 1.491 . S
C388 H379 0.950 . S
C388 C387 1.398 . S
C388 C389 1.391 . S
C389 H377 0.950 . S
C389 C385 1.393 . S
C389 C388 1.391 . S
C390 H380 0.950 . S
C390 C391 1.386 . S
C390 C392 1.391 . S
C391 C390 1.386 . S
C391 C395 1.393 . S
C392 H381 0.950 . S
C392 C390 1.391 . S
C392 C393 1.400 . S
C393 C387 1.491 . S
C393 C392 1.400 . S
C393 C394 1.398 . S
C394 H382 0.950 . S
C394 C393 1.398 . S
C394 C395 1.391 . S
C395 H383 0.950 . S
C395 C391 1.393 . S
C395 C394 1.391 . S
H396 C404 0.950 . S
H397 C409 0.950 . S
H398 C406 0.950 . S
H399 C408 0.950 . S
H400 C410 0.950 . S
H401 C412 0.950 . S
H402 C414 0.950 . S
H403 C415 0.950 . S
C404 H396 0.950 . S
C404 C405 1.386 . S
C404 C406 1.391 . S
C405 C404 1.386 . S
C405 C409 1.393 . S
C406 H398 0.950 . S
C406 C404 1.391 . S
C406 C407 1.400 . S
C407 C406 1.400 . S
C407 C408 1.398 . S
C407 C413 1.491 . S
C408 H399 0.950 . S
C408 C407 1.398 . S
C408 C409 1.391 . S
C409 H397 0.950 . S
C409 C405 1.393 . S
C409 C408 1.391 . S
C410 H400 0.950 . S
C410 C411 1.386 . S
C410 C412 1.391 . S
C411 C410 1.386 . S
C411 C415 1.393 . S
C412 H401 0.950 . S
C412 C410 1.391 . S
C412 C413 1.400 . S
C413 C407 1.491 . S
C413 C412 1.400 . S
C413 C414 1.398 . S
C414 H402 0.950 . S
C414 C413 1.398 . S
C414 C415 1.391 . S
C415 H403 0.950 . S
C415 C411 1.393 . S
C415 C414 1.391 . S
H416 C424 0.950 1_554 S
H417 C429 0.950 . S
H418 C426 0.950 . S
H419 C428 0.950 . S
H420 C430 0.950 . S
H421 C432 0.950 . S
H422 C434 0.950 . S
H423 C435 0.950 . S
C424 H416 0.950 1_556 S
C424 C425 1.364 1_655 S
C424 C426 1.391 . S
C425 C424 1.364 1_455 S
C425 C429 1.415 . S
C426 H418 0.950 . S
C426 C424 1.391 . S
C426 C427 1.400 1_655 S
C427 C426 1.400 1_455 S
C427 C428 1.398 . S
C427 C433 1.491 . S
C428 H419 0.950 . S
C428 C427 1.398 . S
C428 C429 1.391 . S
C429 H417 0.950 . S
C429 C425 1.415 . S
C429 C428 1.391 . S
C430 H420 0.950 . S
C430 C431 1.386 . S
C430 C432 1.391 . S
C431 C430 1.386 . S
C431 C435 1.393 1_455 S
C432 H421 0.950 . S
C432 C430 1.391 . S
C432 C433 1.400 . S
C433 C427 1.491 . S
C433 C432 1.400 . S
C433 C434 1.398 1_455 S
C434 H422 0.950 . S
C434 C433 1.398 1_655 S
C434 C435 1.391 . S
C435 H423 0.950 . S
C435 C431 1.393 1_655 S
C435 C434 1.391 . S
H436 C444 0.950 . S
H437 C449 0.950 1_554 S
H438 C446 0.950 . S
H439 C448 0.950 1_545 S
H440 C450 0.950 . S
H441 C452 0.950 . S
H442 C454 0.950 . S
H443 C455 0.950 . S
C444 H436 0.950 . S
C444 C445 1.386 . S
C444 C446 1.391 . S
C445 C444 1.386 . S
C445 C449 1.393 . S
C446 H438 0.950 . S
C446 C444 1.391 . S
C446 C447 1.400 . S
C447 C446 1.400 . S
C447 C448 1.398 . S
C447 C453 1.491 . S
C448 H439 0.950 1_565 S
C448 C447 1.398 . S
C448 C449 1.391 . S
C449 H437 0.950 1_556 S
C449 C445 1.393 . S
C449 C448 1.391 . S
C450 H440 0.950 . S
C450 C451 1.386 1_545 S
C450 C452 1.391 . S
C451 C450 1.386 1_565 S
C451 C455 1.393 . S
C452 H441 0.950 . S
C452 C450 1.391 . S
C452 C453 1.400 1_545 S
C453 C447 1.491 . S
C453 C452 1.400 1_565 S
C453 C454 1.398 . S
C454 H442 0.950 . S
C454 C453 1.398 . S
C454 C455 1.391 . S
C455 H443 0.950 . S
C455 C451 1.393 . S
C455 C454 1.391 . S
H456 C464 0.950 1_554 S
H457 C469 0.950 . S
H458 C466 0.950 . S
H459 C468 0.950 . S
H460 C470 0.950 . S
H461 C472 0.950 . S
H462 C474 0.950 . S
H463 C475 0.950 . S
C464 H456 0.950 1_556 S
C464 C465 1.386 1_556 S
C464 C466 1.391 . S
C465 C464 1.386 1_554 S
C465 C469 1.393 1_554 S
C466 H458 0.950 . S
C466 C464 1.391 . S
C466 C467 1.400 . S
C467 C466 1.400 . S
C467 C468 1.398 . S
C467 C473 1.491 . S
C468 H459 0.950 . S
C468 C467 1.398 . S
C468 C469 1.391 . S
C469 H457 0.950 . S
C469 C465 1.393 1_556 S
C469 C468 1.391 . S
C470 H460 0.950 . S
C470 C471 1.386 . S
C470 C472 1.391 . S
C471 C470 1.386 . S
C471 C475 1.393 . S
C472 H461 0.950 . S
C472 C470 1.391 . S
C472 C473 1.400 . S
C473 C467 1.491 . S
C473 C472 1.400 . S
C473 C474 1.398 . S
C474 H462 0.950 . S
C474 C473 1.398 . S
C474 C475 1.391 . S
C475 H463 0.950 . S
C475 C471 1.393 . S
C475 C474 1.391 . S
H476 C484 0.950 . S
H477 C489 0.950 . S
H478 C486 0.950 . S
H479 C488 0.950 . S
H480 C490 0.950 . S
H481 C492 0.950 . S
H482 C494 0.950 . S
H483 C495 0.950 . S
C484 H476 0.950 . S
C484 C485 1.386 1_554 S
C484 C486 1.391 1_554 S
C485 C484 1.386 1_556 S
C485 C489 1.393 . S
C486 H478 0.950 . S
C486 C484 1.391 1_556 S
C486 C487 1.400 . S
C487 C486 1.400 . S
C487 C488 1.398 . S
C487 C493 1.491 . S
C488 H479 0.950 . S
C488 C487 1.398 . S
C488 C489 1.391 . S
C489 H477 0.950 . S
C489 C485 1.393 . S
C489 C488 1.391 . S
C490 H480 0.950 . S
C490 C491 1.386 . S
C490 C492 1.391 . S
C491 C490 1.386 . S
C491 C495 1.393 . S
C492 H481 0.950 . S
C492 C490 1.391 . S
C492 C493 1.400 . S
C493 C487 1.491 . S
C493 C492 1.400 . S
C493 C494 1.398 . S
C494 H482 0.950 . S
C494 C493 1.398 . S
C494 C495 1.391 . S
C495 H483 0.950 . S
C495 C491 1.393 . S
C495 C494 1.391 . S
H496 C504 0.950 . S
H497 C509 0.950 1_554 S
H498 C506 0.950 . S
H499 C508 0.950 . S
H500 C510 0.950 . S
H501 C512 0.950 . S
H502 C514 0.950 . S
H503 C515 0.953 . S
C504 H496 0.950 . S
C504 C505 1.386 1_655 S
C504 C506 1.391 . S
C505 C504 1.386 1_455 S
C505 C509 1.393 . S
C506 H498 0.950 . S
C506 C504 1.391 . S
C506 C507 1.400 1_655 S
C507 C506 1.400 1_455 S
C507 C508 1.398 . S
C507 C513 1.491 . S
C508 H499 0.950 . S
C508 C507 1.398 . S
C508 C509 1.391 . S
C509 H497 0.950 1_556 S
C509 C505 1.393 . S
C509 C508 1.391 . S
C510 H500 0.950 . S
C510 C511 1.386 . S
C510 C512 1.391 . S
C511 C510 1.386 . S
C511 C515 1.388 1_455 S
C512 H501 0.950 . S
C512 C510 1.391 . S
C512 C513 1.400 . S
C513 C507 1.491 . S
C513 C512 1.400 . S
C513 C514 1.398 1_455 S
C514 H502 0.950 . S
C514 C513 1.398 1_655 S
C514 C515 1.392 . S
C515 H503 0.953 . S
C515 C511 1.388 1_655 S
C515 C514 1.392 . S
H516 C524 0.950 . S
H517 C529 0.950 1_554 S
H518 C526 0.950 . S
H519 C528 0.950 . S
H520 C530 0.913 1_565 S
H521 C532 0.950 1_565 S
H522 C534 0.950 . S
H523 C535 0.950 . S
C524 H516 0.950 . S
C524 C525 1.386 . S
C524 C526 1.391 . S
C525 C524 1.386 . S
C525 C529 1.393 . S
C526 H518 0.950 . S
C526 C524 1.391 . S
C526 C527 1.400 . S
C527 C526 1.400 . S
C527 C528 1.398 . S
C527 C533 1.491 . S
C528 H519 0.950 . S
C528 C527 1.398 . S
C528 C529 1.391 . S
C529 H517 0.950 1_556 S
C529 C525 1.393 . S
C529 C528 1.391 . S
C530 H520 0.913 1_545 S
C530 C531 1.412 . S
C530 C532 1.403 . S
C531 C530 1.412 . S
C531 C535 1.393 . S
C532 H521 0.950 1_545 S
C532 C530 1.403 . S
C532 C533 1.400 . S
C533 C527 1.491 . S
C533 C532 1.400 . S
C533 C534 1.398 . S
C534 H522 0.950 . S
C534 C533 1.398 . S
C534 C535 1.391 . S
C535 H523 0.950 . S
C535 C531 1.393 . S
C535 C534 1.391 . S
H536 C544 0.950 . S
H537 C549 0.950 . S
H538 C546 0.950 . S
H539 C548 0.950 . S
H540 C550 0.950 . S
H541 C552 0.950 . S
H542 C554 0.950 . S
H543 C555 0.950 . S
C544 H536 0.950 . S
C544 C545 1.386 . S
C544 C546 1.391 . S
C545 C544 1.386 . S
C545 C549 1.393 . S
C546 H538 0.950 . S
C546 C544 1.391 . S
C546 C547 1.400 . S
C547 C546 1.400 . S
C547 C548 1.398 . S
C547 C553 1.491 . S
C548 H539 0.950 . S
C548 C547 1.398 . S
C548 C549 1.391 . S
C549 H537 0.950 . S
C549 C545 1.393 . S
C549 C548 1.391 . S
C550 H540 0.950 . S
C550 C551 1.386 . S
C550 C552 1.391 . S
C551 C550 1.386 . S
C551 C555 1.393 . S
C552 H541 0.950 . S
C552 C550 1.391 . S
C552 C553 1.400 . S
C553 C547 1.491 . S
C553 C552 1.400 . S
C553 C554 1.398 . S
C554 H542 0.950 . S
C554 C553 1.398 . S
C554 C555 1.391 . S
C555 H543 0.950 . S
C555 C551 1.393 . S
C555 C554 1.391 . S
H556 C564 0.950 . S
H557 C569 0.950 1_554 S
H558 C566 0.950 . S
H559 C568 0.950 . S
H560 C570 0.950 . S
H561 C572 0.950 . S
H562 C574 0.950 . S
H563 C575 0.950 . S
C564 H556 0.950 . S
C564 C565 1.386 . S
C564 C566 1.391 . S
C565 C564 1.386 . S
C565 C569 1.393 . S
C566 H558 0.950 . S
C566 C564 1.391 . S
C566 C567 1.400 . S
C567 C566 1.400 . S
C567 C568 1.398 . S
C567 C573 1.491 . S
C568 H559 0.950 . S
C568 C567 1.398 . S
C568 C569 1.391 . S
C569 H557 0.950 1_556 S
C569 C565 1.393 . S
C569 C568 1.391 . S
C570 H560 0.950 . S
C570 C571 1.386 . S
C570 C572 1.391 . S
C571 C570 1.386 . S
C571 C575 1.393 . S
C572 H561 0.950 . S
C572 C570 1.391 . S
C572 C573 1.400 . S
C573 C567 1.491 . S
C573 C572 1.400 . S
C573 C574 1.398 . S
C574 H562 0.950 . S
C574 C573 1.398 . S
C574 C575 1.391 . S
C575 H563 0.950 . S
C575 C571 1.393 . S
C575 C574 1.391 . S
H576 C584 0.950 . S
H577 C589 0.950 . S
H578 C586 0.950 . S
H579 C588 0.950 . S
H580 C590 0.950 . S
H581 C592 0.950 . S
H582 C594 0.950 . S
H583 C595 0.950 . S
C584 H576 0.950 . S
C584 C585 1.358 1_455 S
C584 C586 1.391 . S
C585 C584 1.358 1_655 S
C585 C589 1.424 . S
C586 H578 0.950 . S
C586 C584 1.391 . S
C586 C587 1.400 1_455 S
C587 C586 1.400 1_655 S
C587 C588 1.398 . S
C587 C593 1.491 . S
C588 H579 0.950 . S
C588 C587 1.398 . S
C588 C589 1.391 . S
C589 H577 0.950 . S
C589 C585 1.424 . S
C589 C588 1.391 . S
C590 H580 0.950 . S
C590 C591 1.386 . S
C590 C592 1.391 . S
C591 C590 1.386 . S
C591 C595 1.393 1_655 S
C592 H581 0.950 . S
C592 C590 1.391 . S
C592 C593 1.400 . S
C593 C587 1.491 . S
C593 C592 1.400 . S
C593 C594 1.398 1_655 S
C594 H582 0.950 . S
C594 C593 1.398 1_455 S
C594 C595 1.391 . S
C595 H583 0.950 . S
C595 C591 1.393 1_455 S
C595 C594 1.391 . S
H596 C604 0.950 . S
H597 C609 0.950 . S
H598 C606 0.950 . S
H599 C608 0.950 . S
H600 C610 0.950 . S
H601 C612 0.950 . S
H602 C614 0.950 . S
H603 C615 0.950 1_545 S
C604 H596 0.950 . S
C604 C605 1.386 . S
C604 C606 1.391 . S
C605 C604 1.386 . S
C605 C609 1.393 . S
C606 H598 0.950 . S
C606 C604 1.391 . S
C606 C607 1.400 . S
C607 C606 1.400 . S
C607 C608 1.398 . S
C607 C613 1.491 . S
C608 H599 0.950 . S
C608 C607 1.398 . S
C608 C609 1.391 . S
C609 H597 0.950 . S
C609 C605 1.393 . S
C609 C608 1.391 . S
C610 H600 0.950 . S
C610 C611 1.386 . S
C610 C612 1.391 . S
C611 C610 1.386 . S
C611 C615 1.393 . S
C612 H601 0.950 . S
C612 C610 1.391 . S
C612 C613 1.400 . S
C613 C607 1.491 . S
C613 C612 1.400 . S
C613 C614 1.398 . S
C614 H602 0.950 . S
C614 C613 1.398 . S
C614 C615 1.391 . S
C615 H603 0.950 1_565 S
C615 C611 1.393 . S
C615 C614 1.391 . S
H616 C624 0.950 . S
H617 C629 0.950 . S
H618 C626 0.950 . S
H619 C628 0.950 . S
H620 C630 0.950 . S
H621 C632 0.950 . S
H622 C634 0.950 . S
H623 C635 0.950 . S
C624 H616 0.950 . S
C624 C625 1.386 . S
C624 C626 1.391 . S
C625 C624 1.386 . S
C625 C629 1.393 . S
C626 H618 0.950 . S
C626 C624 1.391 . S
C626 C627 1.400 . S
C627 C626 1.400 . S
C627 C628 1.398 . S
C627 C633 1.491 . S
C628 H619 0.950 . S
C628 C627 1.398 . S
C628 C629 1.391 . S
C629 H617 0.950 . S
C629 C625 1.393 . S
C629 C628 1.391 . S
C630 H620 0.950 . S
C630 C631 1.386 . S
C630 C632 1.391 . S
C631 C630 1.386 . S
C631 C635 1.393 . S
C632 H621 0.950 . S
C632 C630 1.391 . S
C632 C633 1.400 . S
C633 C627 1.491 . S
C633 C632 1.400 . S
C633 C634 1.398 . S
C634 H622 0.950 . S
C634 C633 1.398 . S
C634 C635 1.391 . S
C635 H623 0.950 . S
C635 C631 1.393 . S
C635 C634 1.391 . S
H636 C644 0.950 . S
H637 C649 0.950 . S
H638 C646 0.950 . S
H639 C648 0.950 . S
H640 C650 0.950 . S
H641 C652 0.950 . S
H642 C654 0.950 . S
H643 C655 0.950 . S
C644 H636 0.950 . S
C644 C645 1.386 . S
C644 C646 1.391 . S
C645 C644 1.386 . S
C645 C649 1.393 . S
C646 H638 0.950 . S
C646 C644 1.391 . S
C646 C647 1.400 . S
C647 C646 1.400 . S
C647 C648 1.398 . S
C647 C653 1.491 . S
C648 H639 0.950 . S
C648 C647 1.398 . S
C648 C649 1.391 . S
C649 H637 0.950 . S
C649 C645 1.393 . S
C649 C648 1.391 . S
C650 H640 0.950 . S
C650 C651 1.386 . S
C650 C652 1.391 . S
C651 C650 1.386 . S
C651 C655 1.393 . S
C652 H641 0.950 . S
C652 C650 1.391 . S
C652 C653 1.400 . S
C653 C647 1.491 . S
C653 C652 1.400 . S
C653 C654 1.398 . S
C654 H642 0.950 . S
C654 C653 1.398 . S
C654 C655 1.391 . S
C655 H643 0.950 . S
C655 C651 1.393 . S
C655 C654 1.391 . S
C185 C76 1.657 . S
C191 C104 1.703 . S
C211 C134 1.806 . S
C205 C88 1.725 . S
C231 C144 1.531 . S
C225 C52 1.442 . S
C251 C164 1.391 . S
C245 C64 1.348 1_455 S
C271 C105 1.709 . S
C265 C28 1.669 . S
C285 C40 1.740 . S
C291 C135 1.802 . S
C305 C4 1.462 1_556 S
C311 C145 1.535 . S
C325 C16 1.344 . S
C331 C165 1.392 . S
C351 C97 0.832 . S
C345 C69 0.838 1_655 S
C371 C118 0.531 . S
C365 C81 0.550 . S
C391 C137 0.985 . S
C385 C93 0.990 . S
C405 C57 0.713 . S
C411 C157 0.734 . S
C425 C21 0.815 . S
C431 C98 0.844 . S
C451 C117 0.512 1_565 S
C445 C33 0.567 . S
C471 C138 1.003 . S
C465 C45 0.966 . S
C485 C9 0.743 1_556 S
C491 C158 0.720 . S
C505 C66 1.514 . S
C511 C115 1.587 . S
C525 C78 1.382 1_556 S
C531 C125 1.491 . S
C551 C155 1.798 . S
C545 C90 1.679 . S
C571 C175 1.789 . S
C565 C54 1.687 . S
C585 C18 1.499 1_655 S
C591 C114 1.598 . S
C611 C124 1.485 . S
C605 C30 1.368 . S
C631 C154 1.797 . S
C625 C42 1.673 . S
C645 C6 1.688 . S
C651 C174 1.803 . S
