# Generated by pormake.
# Topology pth, (4,4)-cn, num edge types: 1
# Building blocks:
#     Node 0, Type 0, BuildingBlock: QUQFOY_clean_sbu_1, # of connection points: 4
#     Node 1, Type 0, BuildingBlock: QUQFOY_clean_sbu_1, # of connection points: 4
#     Node 2, Type 0, BuildingBlock: QUQFOY_clean_sbu_1, # of connection points: 4
#     Node 3, Type 1, BuildingBlock: AZAVOO_clean_linker_0, # of connection points: 4
#     Node 4, Type 1, BuildingBlock: AZAVOO_clean_linker_0, # of connection points: 4
#     Node 5, Type 1, BuildingBlock: AZAVOO_clean_linker_0, # of connection points: 4
#     Edge 6, Type (0, 1), BuildingBlock: CIFDUS_clean_linker_0, # of connection points: 2
#     Edge 7, Type (0, 1), BuildingBlock: CIFDUS_clean_linker_0, # of connection points: 2
#     Edge 8, Type (0, 1), BuildingBlock: CIFDUS_clean_linker_0, # of connection points: 2
#     Edge 9, Type (0, 1), BuildingBlock: CIFDUS_clean_linker_0, # of connection points: 2
#     Edge 10, Type (0, 1), BuildingBlock: CIFDUS_clean_linker_0, # of connection points: 2
#     Edge 11, Type (0, 1), BuildingBlock: CIFDUS_clean_linker_0, # of connection points: 2
#     Edge 12, Type (0, 1), BuildingBlock: CIFDUS_clean_linker_0, # of connection points: 2
#     Edge 13, Type (0, 1), BuildingBlock: CIFDUS_clean_linker_0, # of connection points: 2
#     Edge 14, Type (0, 1), BuildingBlock: CIFDUS_clean_linker_0, # of connection points: 2
#     Edge 15, Type (0, 1), BuildingBlock: CIFDUS_clean_linker_0, # of connection points: 2
#     Edge 16, Type (0, 1), BuildingBlock: CIFDUS_clean_linker_0, # of connection points: 2
#     Edge 17, Type (0, 1), BuildingBlock: CIFDUS_clean_linker_0, # of connection points: 2
# Relax obj value: 0.121
# Max RMSD: 0.231
# Mean RMSD: 0.168
data_MOF--net-pth--node1-QUQFOY_clean_sbu_1--node2-AZAVOO_clean_linker_0--edge1-CIFDUS_clean_linker_0
_symmetry_space_group_name_H-M    P1
_symmetry_Int_Tables_number       1
_symmetry_cell_setting            triclinic
loop_
_symmetry_equiv_pos_as_xyz
'x, y, z'
_cell_length_a     22.552709
_cell_length_b     25.127984
_cell_length_c     65.561957
_cell_angle_alpha  92.648517
_cell_angle_beta   88.679909
_cell_angle_gamma 120.52103
loop_
_atom_site_label
_atom_site_type_symbol
_atom_site_fract_x
_atom_site_fract_y
_atom_site_fract_z
_atom_type_partial_charge
O0 O 0.09775 0.15621 0.08843 0.0
Cd1 Cd 0.02119 0.08471 0.10441 0.0
Cd2 Cd 0.10604 0.04274 0.09909 0.0
O3 O 0.17757 0.13104 0.091 0.0
O4 O 0.96505 0.11923 0.11639 0.0
O5 O 0.02638 0.09365 0.13512 0.0
C6 C 0.98751 0.11741 0.1341 0.0
C7 C 0.11996 0.9909 0.12528 0.0
C8 C 0.15929 0.16849 0.08554 0.0
C9 C 0.97556 0.97761 0.07524 0.0
O10 O 0.0369 0.98855 0.07659 0.0
O11 O 0.95477 0.00631 0.08709 0.0
O12 O 0.15287 0.99878 0.10826 0.0
O13 O 0.08152 0.01518 0.12773 0.0
O14 O 0.04165 0.12439 0.44823 0.0
Cd15 Cd 0.10363 0.14006 0.42306 0.0
Cd16 Cd 0.04437 0.01294 0.42578 0.0
O17 O 0.98083 0.02227 0.44712 0.0
O18 O 0.13228 0.22647 0.4163 0.0
O19 O 0.07177 0.14651 0.39512 0.0
C20 C 0.10075 0.2053 0.3991 0.0
C21 C 0.00465 0.92593 0.40353 0.0
C22 C 0.99429 0.0741 0.45533 0.0
C23 C 0.19676 0.0977 0.4358 0.0
O24 O 0.14284 0.04456 0.43581 0.0
O25 O 0.19462 0.14368 0.42944 0.0
O26 O 0.01008 0.92247 0.42286 0.0
O27 O 0.01777 0.97839 0.39684 0.0
O28 O 0.97868 0.01517 0.74356 0.0
Cd29 Cd 0.03827 0.00689 0.76501 0.0
Cd30 Cd 0.10238 0.13287 0.76509 0.0
O31 O 0.01863 0.11549 0.74743 0.0
O32 O 0.98411 0.9192 0.77305 0.0
O33 O 0.00786 0.9982 0.79445 0.0
C34 C 0.97781 0.93909 0.79098 0.0
C35 C 0.14618 0.20873 0.79138 0.0
C36 C 0.97658 0.06294 0.73919 0.0
C37 C 0.18133 0.07142 0.74926 0.0
O38 O 0.17762 0.12015 0.75128 0.0
O39 O 0.13191 0.02002 0.75497 0.0
O40 O 0.15449 0.223 0.77248 0.0
O41 O 0.10876 0.15099 0.79547 0.0
H42 H 0.99861 0.43813 0.13019 0.0
H43 H 0.07373 0.90955 0.31641 0.0
H44 H 0.91178 0.38816 0.25067 0.0
H45 H 0.90634 0.29758 0.23303 0.0
H46 H 0.12673 0.40139 0.22436 0.0
H47 H 0.1316 0.49141 0.24215 0.0
H48 H 0.92802 0.46253 0.21516 0.0
H49 H 0.93726 0.43915 0.17897 0.0
H50 H 0.15334 0.57915 0.18018 0.0
H51 H 0.14347 0.60151 0.21644 0.0
H52 H 0.93434 0.59524 0.22175 0.0
H53 H 0.94524 0.67524 0.19931 0.0
H54 H 0.15844 0.79096 0.217 0.0
H55 H 0.14693 0.71073 0.23946 0.0
H56 H 0.92294 0.63977 0.26342 0.0
H57 H 0.92114 0.73175 0.27656 0.0
H58 H 0.12494 0.80491 0.30168 0.0
H59 H 0.12649 0.71323 0.28813 0.0
H60 H 0.89612 0.55294 0.29787 0.0
H61 H 0.88485 0.60783 0.32815 0.0
H62 H 0.09432 0.6686 0.34499 0.0
H63 H 0.10587 0.61477 0.31433 0.0
H64 H 0.90997 0.41328 0.29245 0.0
H65 H 0.91614 0.34175 0.31548 0.0
H66 H 0.13816 0.4543 0.31542 0.0
H67 H 0.1312 0.52536 0.29267 0.0
O68 O 0.99606 0.44828 0.14448 0.0
O69 O 0.10673 0.52124 0.14584 0.0
O70 O 0.97219 0.83701 0.29559 0.0
O71 O 0.07399 0.87366 0.31049 0.0
C72 C 0.02336 0.50357 0.25491 0.0
C73 C 0.02964 0.54629 0.24045 0.0
C74 C 0.0315 0.60131 0.24703 0.0
C75 C 0.0241 0.61242 0.26793 0.0
C76 C 0.01568 0.56887 0.28237 0.0
C77 C 0.01782 0.51548 0.27594 0.0
C78 C 0.02209 0.44616 0.2477 0.0
C79 C 0.95903 0.39067 0.24544 0.0
C80 C 0.95596 0.33925 0.23523 0.0
C81 C 0.01605 0.34249 0.2272 0.0
C82 C 0.07967 0.39721 0.23055 0.0
C83 C 0.08259 0.44869 0.24066 0.0
C84 C 0.03508 0.53362 0.21837 0.0
C85 C 0.97728 0.48803 0.20756 0.0
C86 C 0.98271 0.47483 0.1869 0.0
C87 C 0.04606 0.50726 0.17668 0.0
C88 C 0.1038 0.55331 0.18758 0.0
C89 C 0.0983 0.56631 0.20826 0.0
C90 C 0.0399 0.64726 0.23212 0.0
C91 C 0.98351 0.63761 0.22058 0.0
C92 C 0.98969 0.68346 0.20794 0.0
C93 C 0.05261 0.73942 0.20651 0.0
C94 C 0.10951 0.74817 0.21771 0.0
C95 C 0.10305 0.70255 0.23052 0.0
C96 C 0.02483 0.66996 0.27483 0.0
C97 C 0.96744 0.67611 0.27154 0.0
C98 C 0.96646 0.72853 0.27914 0.0
C99 C 0.02287 0.77562 0.29023 0.0
C100 C 0.08063 0.76952 0.29325 0.0
C101 C 0.0817 0.71726 0.28552 0.0
C102 C 0.0018 0.57984 0.30391 0.0
C103 C 0.93856 0.5757 0.30858 0.0
C104 C 0.93245 0.6077 0.32571 0.0
C105 C 0.98905 0.64311 0.33866 0.0
C106 C 0.0499 0.64147 0.33523 0.0
C107 C 0.05638 0.61022 0.31786 0.0
C108 C 0.02012 0.47465 0.2911 0.0
C109 C 0.95974 0.42264 0.29765 0.0
C110 C 0.96346 0.38166 0.31063 0.0
C111 C 0.02768 0.39234 0.3173 0.0
C112 C 0.08789 0.44513 0.31083 0.0
C113 C 0.08408 0.48574 0.29781 0.0
C114 C 0.05173 0.49289 0.15475 0.0
C115 C 0.0213 0.83056 0.29885 0.0
H116 H 0.67876 0.96751 0.47031 0.0
H117 H 0.21005 0.13056 0.60728 0.0
H118 H 0.63214 0.95892 0.58456 0.0
H119 H 0.71362 0.94723 0.56243 0.0
H120 H 0.82836 0.1455 0.55572 0.0
H121 H 0.75013 0.15623 0.57902 0.0
H122 H 0.54246 0.9558 0.54837 0.0
H123 H 0.5853 0.94201 0.51506 0.0
H124 H 0.71842 0.14016 0.51255 0.0
H125 H 0.67518 0.15317 0.54588 0.0
H126 H 0.39955 0.97664 0.55987 0.0
H127 H 0.34018 0.97628 0.52914 0.0
H128 H 0.50932 0.15875 0.51622 0.0
H129 H 0.56544 0.16015 0.5478 0.0
H130 H 0.37833 0.9757 0.60781 0.0
H131 H 0.27313 0.97932 0.61432 0.0
H132 H 0.3752 0.16664 0.59376 0.0
H133 H 0.48033 0.16264 0.58758 0.0
H134 H 0.48439 0.96955 0.63605 0.0
H135 H 0.42272 0.95999 0.66796 0.0
H136 H 0.46305 0.14665 0.66293 0.0
H137 H 0.52947 0.15714 0.63198 0.0
H138 H 0.59306 0.97167 0.62899 0.0
H139 H 0.66421 0.98055 0.65794 0.0
H140 H 0.78105 0.17912 0.65238 0.0
H141 H 0.7061 0.16955 0.62439 0.0
O142 O 0.66063 0.97412 0.48309 0.0
O143 O 0.72827 0.07627 0.48259 0.0
O144 O 0.20084 0.03149 0.61527 0.0
O145 O 0.25088 0.12779 0.60479 0.0
C146 C 0.62255 0.06241 0.58737 0.0
C147 C 0.58455 0.06275 0.57058 0.0
C148 C 0.52505 0.06679 0.57384 0.0
C149 C 0.50131 0.06726 0.59393 0.0
C150 C 0.53881 0.06592 0.61078 0.0
C151 C 0.60043 0.06492 0.60746 0.0
C152 C 0.68489 0.05835 0.58311 0.0
C153 C 0.67748 0.99996 0.57929 0.0
C154 C 0.72323 0.99336 0.56616 0.0
C155 C 0.77613 0.04501 0.55639 0.0
C156 C 0.78865 0.10427 0.56273 0.0
C157 C 0.74392 0.11082 0.57625 0.0
C158 C 0.6056 0.05542 0.54946 0.0
C159 C 0.58016 0.99615 0.54044 0.0
C160 C 0.60496 0.98844 0.52147 0.0
C161 C 0.65549 0.03998 0.51117 0.0
C162 C 0.67956 0.09948 0.52007 0.0
C163 C 0.65471 0.10709 0.53904 0.0
C164 C 0.48681 0.06829 0.55599 0.0
C165 C 0.42308 0.01682 0.55053 0.0
C166 C 0.38986 0.01643 0.53277 0.0
C167 C 0.42038 0.06715 0.51994 0.0
C168 C 0.4839 0.11908 0.52573 0.0
C169 C 0.51639 0.11982 0.5437 0.0
C170 C 0.43692 0.06896 0.59729 0.0
C171 C 0.37785 0.01748 0.60476 0.0
C172 C 0.31784 0.01966 0.60843 0.0
C173 C 0.31578 0.07334 0.60458 0.0
C174 C 0.37502 0.12463 0.59691 0.0
C175 C 0.43506 0.12243 0.59331 0.0
C176 C 0.51204 0.06423 0.63179 0.0
C177 C 0.48244 0.00923 0.64234 0.0
C178 C 0.44594 0.00348 0.66039 0.0
C179 C 0.43679 0.05217 0.66798 0.0
C180 C 0.46958 0.10835 0.65783 0.0
C181 C 0.50733 0.11444 0.64001 0.0
C182 C 0.64384 0.07002 0.62487 0.0
C183 C 0.63338 0.01706 0.63429 0.0
C184 C 0.67482 0.02232 0.65067 0.0
C185 C 0.7288 0.08066 0.6576 0.0
C186 C 0.73931 0.13358 0.64784 0.0
C187 C 0.69695 0.12826 0.63171 0.0
C188 C 0.68368 0.0315 0.4914 0.0
C189 C 0.25227 0.07602 0.60855 0.0
H190 H 0.74133 0.73001 0.06267 0.0
H191 H 0.19579 0.21532 0.89533 0.0
H192 H 0.64277 0.73885 0.95068 0.0
H193 H 0.73448 0.82116 0.97181 0.0
H194 H 0.83624 0.71484 0.97306 0.0
H195 H 0.74493 0.63339 0.95177 0.0
H196 H 0.5833 0.66927 0.98717 0.0
H197 H 0.6402 0.70503 0.02041 0.0
H198 H 0.70424 0.56936 0.01475 0.0
H199 H 0.64776 0.53459 0.98134 0.0
H200 H 0.4595 0.54733 0.98966 0.0
H201 H 0.40427 0.47934 0.01806 0.0
H202 H 0.44326 0.34277 0.98832 0.0
H203 H 0.50201 0.41287 0.96059 0.0
H204 H 0.36599 0.48227 0.94937 0.0
H205 H 0.25706 0.38956 0.93961 0.0
H206 H 0.3685 0.32219 0.90269 0.0
H207 H 0.477 0.41442 0.91289 0.0
H208 H 0.41437 0.55319 0.90966 0.0
H209 H 0.34349 0.49963 0.87946 0.0
H210 H 0.50395 0.46971 0.855 0.0
H211 H 0.57367 0.52107 0.88569 0.0
H212 H 0.57515 0.69326 0.90589 0.0
H213 H 0.65034 0.76733 0.8806 0.0
H214 H 0.78457 0.69155 0.88187 0.0
H215 H 0.70901 0.61772 0.90693 0.0
O216 O 0.71689 0.71343 0.04987 0.0
O217 O 0.7433 0.6393 0.04721 0.0
O218 O 0.18339 0.28601 0.92019 0.0
O219 O 0.23818 0.25138 0.9 0.0
C220 C 0.62133 0.62292 0.94474 0.0
C221 C 0.58404 0.58317 0.96068 0.0
C222 C 0.52163 0.52795 0.95645 0.0
C223 C 0.49497 0.51364 0.9364 0.0
C224 C 0.53068 0.55508 0.92057 0.0
C225 C 0.59508 0.60888 0.92465 0.0
C226 C 0.68715 0.68015 0.94986 0.0
C227 C 0.68667 0.73484 0.95467 0.0
C228 C 0.73844 0.78127 0.967 0.0
C229 C 0.7915 0.77362 0.97448 0.0
C230 C 0.79604 0.72204 0.96755 0.0
C231 C 0.74418 0.67561 0.95527 0.0
C232 C 0.61176 0.5996 0.98185 0.0
C233 C 0.60921 0.64704 0.99322 0.0
C234 C 0.64189 0.66746 0.01217 0.0
C235 C 0.67725 0.64039 0.02017 0.0
C236 C 0.67768 0.59136 0.00899 0.0
C237 C 0.64518 0.57117 0.98998 0.0
C238 C 0.48481 0.48504 0.9731 0.0
C239 C 0.45641 0.50285 0.98938 0.0
C240 C 0.42443 0.4637 0.00551 0.0
C241 C 0.41927 0.40548 0.00552 0.0
C242 C 0.44734 0.38765 0.98902 0.0
C243 C 0.48012 0.42724 0.97302 0.0
C244 C 0.42935 0.45509 0.93182 0.0
C245 C 0.36678 0.447 0.93942 0.0
C246 C 0.30465 0.39419 0.93372 0.0
C247 C 0.30406 0.34862 0.92026 0.0
C248 C 0.36705 0.35642 0.91301 0.0
C249 C 0.42911 0.40903 0.91883 0.0
C250 C 0.49903 0.54071 0.89994 0.0
C251 C 0.43514 0.53672 0.89752 0.0
C252 C 0.39453 0.50579 0.88039 0.0
C253 C 0.41816 0.48012 0.86513 0.0
C254 C 0.48483 0.4893 0.86661 0.0
C255 C 0.5249 0.51907 0.88401 0.0
C256 C 0.63651 0.64998 0.90809 0.0
C257 C 0.62035 0.6923 0.90047 0.0
C258 C 0.66363 0.73483 0.8862 0.0
C259 C 0.72348 0.73535 0.87927 0.0
C260 C 0.73853 0.69192 0.88671 0.0
C261 C 0.69556 0.64981 0.90104 0.0
C262 C 0.71437 0.66403 0.03991 0.0
C263 C 0.23814 0.29351 0.91357 0.0
H264 H 0.05863 0.15572 0.16993 0.0
H265 H 0.88865 0.14874 0.13849 0.0
H266 H 0.87838 0.21311 0.16573 0.0
H267 H 0.9254 0.28026 0.19646 0.0
H268 H 0.09876 0.29187 0.22725 0.0
H269 H 0.10019 0.21701 0.20229 0.0
C270 C 0.01848 0.16727 0.16926 0.0
C271 C 0.97461 0.14762 0.15217 0.0
C272 C 0.01409 0.20584 0.18472 0.0
C273 C 0.92325 0.16347 0.15143 0.0
C274 C 0.91746 0.20045 0.16697 0.0
C275 C 0.9625 0.26534 0.19799 0.0
C276 C 0.01192 0.29159 0.21368 0.0
C277 C 0.96374 0.22322 0.18341 0.0
C278 C 0.06054 0.27269 0.21521 0.0
C279 C 0.06129 0.22984 0.20096 0.0
H280 H 0.87003 0.98662 0.47051 0.0
H281 H 0.04565 0.16747 0.48411 0.0
H282 H 0.99752 0.17115 0.51736 0.0
H283 H 0.9066 0.12364 0.54262 0.0
H284 H 0.72335 0.94891 0.52755 0.0
H285 H 0.77499 0.94112 0.49547 0.0
C286 C 0.89746 0.02687 0.48074 0.0
C287 C 0.96115 0.0767 0.47478 0.0
C288 C 0.86891 0.02935 0.49982 0.0
C289 C 0.99611 0.12869 0.48818 0.0
C290 C 0.96894 0.13071 0.5073 0.0
C291 C 0.87726 0.08401 0.53233 0.0
C292 C 0.81103 0.03698 0.53784 0.0
C293 C 0.90541 0.08136 0.51328 0.0
C294 C 0.7752 0.98532 0.52426 0.0
C295 C 0.80422 0.98116 0.50562 0.0
H296 H 0.92267 0.9616 0.82547 0.0
H297 H 0.935 0.81661 0.79126 0.0
H298 H 0.85803 0.74118 0.81554 0.0
H299 H 0.78447 0.7155 0.84589 0.0
H300 H 0.76924 0.85924 0.87985 0.0
H301 H 0.84906 0.93573 0.85613 0.0
C302 C 0.90899 0.9136 0.82346 0.0
C303 C 0.93477 0.89484 0.80662 0.0
C304 C 0.8635 0.87006 0.8373 0.0
C305 C 0.91589 0.83232 0.80408 0.0
C306 C 0.87175 0.78907 0.81794 0.0
C307 C 0.79902 0.76365 0.84819 0.0
C308 C 0.77093 0.7816 0.86461 0.0
C309 C 0.84481 0.80729 0.8345 0.0
C310 C 0.78948 0.84405 0.86718 0.0
C311 C 0.8355 0.8879 0.85371 0.0
H312 H 0.02917 0.93599 0.15605 0.0
H313 H 0.21471 0.95496 0.1289 0.0
H314 H 0.21203 0.88081 0.15231 0.0
H315 H 0.15319 0.80603 0.17917 0.0
H316 H 0.96476 0.78362 0.20513 0.0
H317 H 0.97197 0.86324 0.18342 0.0
C318 C 0.06953 0.92453 0.15544 0.0
C319 C 0.12215 0.95106 0.1408 0.0
C320 C 0.06664 0.88064 0.16857 0.0
C321 C 0.17361 0.93514 0.14003 0.0
C322 C 0.17202 0.89263 0.15337 0.0
C323 C 0.11413 0.81907 0.18018 0.0
C324 C 0.05839 0.78887 0.19365 0.0
C325 C 0.1182 0.86437 0.16749 0.0
C326 C 0.00769 0.80569 0.19468 0.0
C327 C 0.01197 0.8514 0.18236 0.0
H328 H 0.22849 0.01058 0.4441 0.0
H329 H 0.3005 0.20524 0.4531 0.0
H330 H 0.38099 0.2141 0.47919 0.0
H331 H 0.41687 0.163 0.50296 0.0
H332 H 0.34608 0.96846 0.4934 0.0
H333 H 0.2778 0.963 0.4643 0.0
C334 C 0.26293 0.05527 0.45143 0.0
C335 C 0.25778 0.10693 0.4469 0.0
C336 C 0.30781 0.05972 0.46672 0.0
C337 C 0.30336 0.1647 0.45631 0.0
C338 C 0.34885 0.16965 0.47142 0.0
C339 C 0.38794 0.11965 0.49427 0.0
C340 C 0.38546 0.06588 0.50077 0.0
C341 C 0.34939 0.11691 0.47732 0.0
C342 C 0.34719 0.01017 0.48925 0.0
C343 C 0.30862 0.00707 0.47244 0.0
H344 H 0.25882 0.32145 0.78666 0.0
H345 H 0.12032 0.20272 0.83248 0.0
H346 H 0.19029 0.27887 0.85935 0.0
H347 H 0.29472 0.37657 0.86982 0.0
H348 H 0.43759 0.49057 0.82403 0.0
H349 H 0.36208 0.41888 0.79702 0.0
C350 C 0.24332 0.31257 0.8025 0.0
C351 C 0.18416 0.25671 0.80758 0.0
C352 C 0.28493 0.35555 0.81783 0.0
C353 C 0.1655 0.24544 0.8282 0.0
C354 C 0.20557 0.28888 0.84355 0.0
C355 C 0.30863 0.38591 0.85388 0.0
C356 C 0.37104 0.43882 0.84878 0.0
C357 C 0.26589 0.34367 0.83855 0.0
C358 C 0.38961 0.4501 0.82819 0.0
C359 C 0.3465 0.4092 0.81281 0.0
H360 H 0.93253 0.14366 0.73188 0.0
H361 H 0.90964 0.96858 0.71111 0.0
H362 H 0.83196 0.95904 0.68419 0.0
H363 H 0.77348 0.00135 0.66582 0.0
H364 H 0.78852 0.1726 0.68768 0.0
H365 H 0.86734 0.18314 0.71453 0.0
C366 C 0.91036 0.1034 0.72148 0.0
C367 C 0.92712 0.05705 0.72351 0.0
C368 C 0.86477 0.09766 0.70608 0.0
C369 C 0.89751 0.00489 0.71 0.0
C370 C 0.85318 0.99942 0.69451 0.0
C371 C 0.79274 0.0405 0.67663 0.0
C372 C 0.77491 0.08613 0.67454 0.0
C373 C 0.83666 0.04558 0.69236 0.0
C374 C 0.80213 0.1372 0.68856 0.0
C375 C 0.84689 0.14309 0.70407 0.0
H376 H 0.01425 0.93593 0.04159 0.0
H377 H 0.83623 0.9261 0.07125 0.0
H378 H 0.76402 0.86296 0.04243 0.0
H379 H 0.75207 0.81218 0.00864 0.0
H380 H 0.93059 0.82435 0.97863 0.0
H381 H 0.00234 0.88541 0.00783 0.0
C382 C 0.95954 0.91959 0.04186 0.0
C383 C 0.93064 0.93559 0.05859 0.0
C384 C 0.9187 0.88442 0.0251 0.0
C385 C 0.85977 0.91447 0.05857 0.0
C386 C 0.81852 0.87857 0.04207 0.0
C387 C 0.80691 0.82908 0.00834 0.0
C388 C 0.83623 0.81448 0.9914 0.0
C389 C 0.84762 0.86389 0.02517 0.0
C390 C 0.90695 0.83517 0.99148 0.0
C391 C 0.94788 0.86995 0.00817 0.0
H392 H 0.01821 0.8279 0.41146 0.0
H393 H 0.96027 0.9058 0.36389 0.0
H394 H 0.94513 0.82184 0.34006 0.0
H395 H 0.95523 0.72988 0.33227 0.0
H396 H 0.02198 0.65711 0.37914 0.0
H397 H 0.02703 0.73564 0.40381 0.0
C398 C 0.00142 0.82612 0.39594 0.0
C399 C 0.98992 0.87281 0.38947 0.0
C400 C 0.995 0.77892 0.3822 0.0
C401 C 0.96931 0.87038 0.36923 0.0
C402 C 0.96085 0.82249 0.35561 0.0
C403 C 0.96994 0.73082 0.34798 0.0
C404 C 0.9876 0.68758 0.35401 0.0
C405 C 0.97447 0.77703 0.36185 0.0
C406 C 0.00801 0.68989 0.37424 0.0
C407 C 0.0109 0.73473 0.3883 0.0
H408 H 0.18507 0.97892 0.72736 0.0
H409 H 0.3108 0.17102 0.74643 0.0
H410 H 0.40469 0.18006 0.72467 0.0
H411 H 0.44691 0.13592 0.698 0.0
H412 H 0.31531 0.94672 0.6763 0.0
H413 H 0.22924 0.93366 0.7017 0.0
C414 C 0.2335 0.02242 0.72704 0.0
C415 C 0.24098 0.07423 0.73843 0.0
C416 C 0.28633 0.02789 0.71395 0.0
C417 C 0.30372 0.13053 0.73769 0.0
C418 C 0.35736 0.13577 0.72523 0.0
C419 C 0.39943 0.0918 0.69876 0.0
C420 C 0.38803 0.0426 0.68509 0.0
C421 C 0.34851 0.0852 0.71286 0.0
C422 C 0.32655 0.98535 0.68674 0.0
C423 C 0.27666 0.97789 0.70116 0.0
H424 H 0.28676 0.1995 0.07101 0.0
H425 H 0.13764 0.25918 0.07299 0.0
H426 H 0.20665 0.33944 0.04913 0.0
H427 H 0.30315 0.38621 0.02537 0.0
H428 H 0.45391 0.32856 0.02355 0.0
H429 H 0.38958 0.25322 0.04942 0.0
C430 C 0.26986 0.23066 0.06648 0.0
C431 C 0.20673 0.22282 0.07366 0.0
C432 C 0.30938 0.27637 0.0525 0.0
C433 C 0.18575 0.26377 0.06763 0.0
C434 C 0.22506 0.30963 0.05391 0.0
C435 C 0.32289 0.35817 0.0309 0.0
C436 C 0.38304 0.3628 0.02234 0.0
C437 C 0.28606 0.31537 0.04589 0.0
C438 C 0.40699 0.32516 0.02952 0.0
C439 C 0.37051 0.28234 0.04445 0.0
H440 H 0.01839 0.17507 0.36546 0.0
H441 H 0.17343 0.33093 0.40107 0.0
H442 H 0.16416 0.40194 0.3791 0.0
H443 H 0.11078 0.42034 0.35028 0.0
H444 H 0.95525 0.26564 0.3145 0.0
H445 H 0.96513 0.19384 0.33619 0.0
C446 C 0.05044 0.22456 0.3683 0.0
C447 C 0.09664 0.24753 0.38488 0.0
C448 C 0.0443 0.26545 0.35571 0.0
C449 C 0.13739 0.31186 0.38845 0.0
C450 C 0.1321 0.35263 0.3759 0.0
C451 C 0.0794 0.37092 0.34711 0.0
C452 C 0.03241 0.3485 0.33076 0.0
C453 C 0.08554 0.32999 0.35957 0.0
C454 C 0.99128 0.28421 0.32712 0.0
C455 C 0.99725 0.2431 0.33943 0.0
loop_
_geom_bond_atom_site_label_1
_geom_bond_atom_site_label_2
_geom_bond_distance
_geom_bond_site_symmetry_2
_ccdc_geom_bond_type
O0 Cd1 2.223 . S
O0 C8 1.315 . S
Cd1 O0 2.223 . S
Cd1 O4 2.297 . S
Cd1 O5 2.439 . S
Cd1 O11 2.240 . S
Cd2 O3 2.240 . S
Cd2 O10 2.223 1_545 S
Cd2 O12 2.297 1_545 S
Cd2 O13 2.439 1_545 S
O3 Cd2 2.240 . S
O3 C8 1.279 . S
O4 Cd1 2.297 . S
O4 C6 1.247 . S
O5 Cd1 2.439 . S
O5 C6 1.208 . S
C6 O4 1.247 . S
C6 O5 1.208 . S
C7 O12 1.247 . S
C7 O13 1.208 . S
C8 O0 1.315 . S
C8 O3 1.279 . S
C9 O10 1.315 . S
C9 O11 1.279 1_565 S
O10 Cd2 2.223 1_565 S
O10 C9 1.315 . S
O11 Cd1 2.240 . S
O11 C9 1.279 1_545 S
O12 Cd2 2.297 1_565 S
O12 C7 1.247 . S
O13 Cd2 2.439 1_565 S
O13 C7 1.208 . S
O14 Cd15 2.223 . S
O14 C22 1.315 1_455 S
Cd15 O14 2.223 . S
Cd15 O18 2.297 . S
Cd15 O19 2.439 . S
Cd15 O25 2.240 . S
Cd16 O17 2.240 1_565 S
Cd16 O24 2.223 1_655 S
Cd16 O26 2.297 1_655 S
Cd16 O27 2.439 1_655 S
O17 Cd16 2.240 1_545 S
O17 C22 1.279 . S
O18 Cd15 2.297 . S
O18 C20 1.247 . S
O19 Cd15 2.439 . S
O19 C20 1.208 . S
C20 O18 1.247 . S
C20 O19 1.208 . S
C21 O26 1.247 . S
C21 O27 1.208 . S
C22 O14 1.315 1_655 S
C22 O17 1.279 . S
C23 O24 1.315 1_545 S
C23 O25 1.279 . S
O24 Cd16 2.223 1_455 S
O24 C23 1.315 1_565 S
O25 Cd15 2.240 . S
O25 C23 1.279 . S
O26 Cd16 2.297 1_455 S
O26 C21 1.247 . S
O27 Cd16 2.439 1_455 S
O27 C21 1.208 . S
O28 Cd29 2.223 1_545 S
O28 C36 1.315 . S
Cd29 O28 2.223 1_565 S
Cd29 O32 2.297 1_455 S
Cd29 O33 2.439 1_565 S
Cd29 O39 2.240 1_565 S
Cd30 O31 2.240 . S
Cd30 O38 2.223 . S
Cd30 O40 2.297 . S
Cd30 O41 2.439 . S
O31 Cd30 2.240 . S
O31 C36 1.279 . S
O32 Cd29 2.297 1_655 S
O32 C34 1.247 . S
O33 Cd29 2.439 1_545 S
O33 C34 1.208 1_445 S
C34 O32 1.247 . S
C34 O33 1.208 1_665 S
C35 O40 1.247 . S
C35 O41 1.208 . S
C36 O28 1.315 . S
C36 O31 1.279 . S
C37 O38 1.315 . S
C37 O39 1.279 . S
O38 Cd30 2.223 . S
O38 C37 1.315 . S
O39 Cd29 2.240 1_545 S
O39 C37 1.279 . S
O40 Cd30 2.297 . S
O40 C35 1.247 . S
O41 Cd30 2.439 . S
O41 C35 1.208 . S
H42 O68 0.856 . S
H43 O71 0.854 . S
H44 C79 0.930 . S
H45 C80 0.930 . S
H46 C82 0.930 . S
H47 C83 0.930 . S
H48 C85 0.931 1_655 S
H49 C86 0.930 1_655 S
H50 C88 0.930 . S
H51 C89 0.929 . S
H52 C91 0.930 1_655 S
H53 C92 0.931 1_655 S
H54 C94 0.930 . S
H55 C95 0.929 . S
H56 C97 0.931 . S
H57 C98 0.930 . S
H58 C100 0.930 . S
H59 C101 0.932 . S
H60 C103 0.930 . S
H61 C104 0.929 . S
H62 C106 0.931 . S
H63 C107 0.930 . S
H64 C109 0.929 . S
H65 C110 0.931 . S
H66 C112 0.930 . S
H67 C113 0.929 . S
O68 H42 0.856 . S
O68 C114 1.300 . S
O69 C114 1.209 . S
O70 C115 1.199 . S
O71 H43 0.854 . S
O71 C115 1.297 . S
C72 C73 1.404 . S
C72 C77 1.397 . S
C72 C78 1.492 . S
C73 C72 1.404 . S
C73 C74 1.396 . S
C73 C84 1.492 . S
C74 C73 1.396 . S
C74 C75 1.397 . S
C74 C90 1.509 . S
C75 C74 1.397 . S
C75 C76 1.412 . S
C75 C96 1.485 . S
C76 C75 1.412 . S
C76 C77 1.388 . S
C76 C102 1.490 . S
C77 C72 1.397 . S
C77 C76 1.388 . S
C77 C108 1.519 . S
C78 C72 1.492 . S
C78 C79 1.363 1_455 S
C78 C83 1.390 . S
C79 H44 0.930 . S
C79 C78 1.363 1_655 S
C79 C80 1.372 . S
C80 H45 0.930 . S
C80 C79 1.372 . S
C80 C81 1.383 1_655 S
C81 C80 1.383 1_455 S
C81 C82 1.395 . S
C82 H46 0.930 . S
C82 C81 1.395 . S
C82 C83 1.362 . S
C83 H47 0.930 . S
C83 C78 1.390 . S
C83 C82 1.362 . S
C84 C73 1.492 . S
C84 C85 1.377 . S
C84 C89 1.397 . S
C85 H48 0.931 1_455 S
C85 C84 1.377 . S
C85 C86 1.376 . S
C86 H49 0.930 1_455 S
C86 C85 1.376 . S
C86 C87 1.376 . S
C87 C86 1.376 . S
C87 C88 1.378 . S
C87 C114 1.486 . S
C88 H50 0.930 . S
C88 C87 1.378 . S
C88 C89 1.376 . S
C89 H51 0.929 . S
C89 C84 1.397 . S
C89 C88 1.376 . S
C90 C74 1.509 . S
C90 C91 1.391 . S
C90 C95 1.386 . S
C91 H52 0.930 1_455 S
C91 C90 1.391 . S
C91 C92 1.375 . S
C92 H53 0.931 1_455 S
C92 C91 1.375 . S
C92 C93 1.375 . S
C93 C92 1.375 . S
C93 C94 1.361 . S
C94 H54 0.930 . S
C94 C93 1.361 . S
C94 C95 1.399 . S
C95 H55 0.929 . S
C95 C90 1.386 . S
C95 C94 1.399 . S
C96 C75 1.485 . S
C96 C97 1.394 1_455 S
C96 C101 1.360 . S
C97 H56 0.931 . S
C97 C96 1.394 1_655 S
C97 C98 1.372 . S
C98 H57 0.930 . S
C98 C97 1.372 . S
C98 C99 1.397 1_655 S
C99 C98 1.397 1_455 S
C99 C100 1.390 . S
C99 C115 1.476 . S
C100 H58 0.930 . S
C100 C99 1.390 . S
C100 C101 1.366 . S
C101 H59 0.932 . S
C101 C96 1.360 . S
C101 C100 1.366 . S
C102 C76 1.490 . S
C102 C103 1.380 1_455 S
C102 C107 1.386 . S
C103 H60 0.930 . S
C103 C102 1.380 1_655 S
C103 C104 1.381 . S
C104 H61 0.929 . S
C104 C103 1.381 . S
C104 C105 1.371 1_655 S
C105 C104 1.371 1_455 S
C105 C106 1.380 . S
C106 H62 0.931 . S
C106 C105 1.380 . S
C106 C107 1.387 . S
C107 H63 0.930 . S
C107 C102 1.386 . S
C107 C106 1.387 . S
C108 C77 1.519 . S
C108 C109 1.377 1_455 S
C108 C113 1.361 . S
C109 H64 0.929 . S
C109 C108 1.377 1_655 S
C109 C110 1.386 . S
C110 H65 0.931 . S
C110 C109 1.386 . S
C110 C111 1.363 1_655 S
C111 C110 1.363 1_455 S
C111 C112 1.385 . S
C112 H66 0.930 . S
C112 C111 1.385 . S
C112 C113 1.396 . S
C113 H67 0.929 . S
C113 C108 1.361 . S
C113 C112 1.396 . S
C114 O68 1.300 . S
C114 O69 1.209 . S
C114 C87 1.486 . S
C115 O70 1.199 . S
C115 O71 1.297 . S
C115 C99 1.476 . S
H116 O142 0.856 . S
H117 O145 0.854 . S
H118 C153 0.930 1_565 S
H119 C154 0.930 . S
H120 C156 0.930 . S
H121 C157 0.930 . S
H122 C159 0.931 1_565 S
H123 C160 0.930 1_565 S
H124 C162 0.930 . S
H125 C163 0.929 . S
H126 C165 0.930 1_565 S
H127 C166 0.931 . S
H128 C168 0.930 . S
H129 C169 0.929 . S
H130 C171 0.941 . S
H131 C172 0.930 . S
H132 C174 0.930 . S
H133 C175 0.932 . S
H134 C177 0.930 1_565 S
H135 C178 0.929 1_565 S
H136 C180 0.931 . S
H137 C181 0.930 . S
H138 C183 0.929 1_565 S
H139 C184 0.931 . S
H140 C186 0.930 . S
H141 C187 0.929 . S
O142 H116 0.856 . S
O142 C188 1.300 . S
O143 C188 1.209 . S
O144 C189 1.199 . S
O145 H117 0.854 . S
O145 C189 1.297 . S
C146 C147 1.404 . S
C146 C151 1.397 . S
C146 C152 1.492 . S
C147 C146 1.404 . S
C147 C148 1.396 . S
C147 C158 1.492 . S
C148 C147 1.396 . S
C148 C149 1.397 . S
C148 C164 1.509 . S
C149 C148 1.397 . S
C149 C150 1.412 . S
C149 C170 1.485 . S
C150 C149 1.412 . S
C150 C151 1.388 . S
C150 C176 1.490 . S
C151 C146 1.397 . S
C151 C150 1.388 . S
C151 C182 1.519 . S
C152 C146 1.492 . S
C152 C153 1.363 . S
C152 C157 1.390 . S
C153 H118 0.930 1_545 S
C153 C152 1.363 . S
C153 C154 1.372 1_545 S
C154 H119 0.930 . S
C154 C153 1.372 1_565 S
C154 C155 1.383 1_565 S
C155 C154 1.383 1_545 S
C155 C156 1.395 . S
C156 H120 0.930 . S
C156 C155 1.395 . S
C156 C157 1.362 . S
C157 H121 0.930 . S
C157 C152 1.390 . S
C157 C156 1.362 . S
C158 C147 1.492 . S
C158 C159 1.377 . S
C158 C163 1.397 . S
C159 H122 0.931 1_545 S
C159 C158 1.377 . S
C159 C160 1.376 . S
C160 H123 0.930 1_545 S
C160 C159 1.376 . S
C160 C161 1.376 . S
C161 C160 1.376 . S
C161 C162 1.378 . S
C161 C188 1.486 . S
C162 H124 0.930 . S
C162 C161 1.378 . S
C162 C163 1.376 . S
C163 H125 0.929 . S
C163 C158 1.397 . S
C163 C162 1.376 . S
C164 C148 1.509 . S
C164 C165 1.391 . S
C164 C169 1.386 . S
C165 H126 0.930 1_545 S
C165 C164 1.391 . S
C165 C166 1.375 . S
C166 H127 0.931 . S
C166 C165 1.375 . S
C166 C167 1.375 . S
C167 C166 1.375 . S
C167 C168 1.361 . S
C168 H128 0.930 . S
C168 C167 1.361 . S
C168 C169 1.399 . S
C169 H129 0.929 . S
C169 C164 1.386 . S
C169 C168 1.399 . S
C170 C149 1.485 . S
C170 C171 1.394 . S
C170 C175 1.360 . S
C171 H130 0.941 . S
C171 C170 1.394 . S
C171 C172 1.372 . S
C172 H131 0.930 . S
C172 C171 1.372 . S
C172 C173 1.397 . S
C173 C172 1.397 . S
C173 C174 1.390 . S
C173 C189 1.476 . S
C174 H132 0.930 . S
C174 C173 1.390 . S
C174 C175 1.366 . S
C175 H133 0.932 . S
C175 C170 1.360 . S
C175 C174 1.366 . S
C176 C150 1.490 . S
C176 C177 1.380 . S
C176 C181 1.386 . S
C177 H134 0.930 1_545 S
C177 C176 1.380 . S
C177 C178 1.381 . S
C178 H135 0.929 1_545 S
C178 C177 1.381 . S
C178 C179 1.371 . S
C179 C178 1.371 . S
C179 C180 1.380 . S
C180 H136 0.931 . S
C180 C179 1.380 . S
C180 C181 1.387 . S
C181 H137 0.930 . S
C181 C176 1.386 . S
C181 C180 1.387 . S
C182 C151 1.519 . S
C182 C183 1.377 . S
C182 C187 1.361 . S
C183 H138 0.929 1_545 S
C183 C182 1.377 . S
C183 C184 1.386 . S
C184 H139 0.931 . S
C184 C183 1.386 . S
C184 C185 1.363 . S
C185 C184 1.363 . S
C185 C186 1.385 . S
C186 H140 0.930 . S
C186 C185 1.385 . S
C186 C187 1.396 . S
C187 H141 0.929 . S
C187 C182 1.361 . S
C187 C186 1.396 . S
C188 O142 1.300 . S
C188 O143 1.209 . S
C188 C161 1.486 . S
C189 O144 1.199 . S
C189 O145 1.297 . S
C189 C173 1.476 . S
H190 O216 0.856 . S
H191 O219 0.854 . S
H192 C227 0.930 . S
H193 C228 0.930 . S
H194 C230 0.930 . S
H195 C231 0.930 . S
H196 C233 0.928 1_556 S
H197 C234 0.930 . S
H198 C236 0.930 . S
H199 C237 0.929 . S
H200 C239 0.930 . S
H201 C240 0.931 1_554 S
H202 C242 0.930 . S
H203 C243 0.929 . S
H204 C245 0.931 . S
H205 C246 0.930 . S
H206 C248 0.930 . S
H207 C249 0.932 . S
H208 C251 0.930 . S
H209 C252 0.929 . S
H210 C254 0.931 . S
H211 C255 0.930 . S
H212 C257 0.929 . S
H213 C258 0.931 . S
H214 C260 0.930 . S
H215 C261 0.929 . S
O216 H190 0.856 . S
O216 C262 1.300 . S
O217 C262 1.209 . S
O218 C263 1.199 . S
O219 H191 0.854 . S
O219 C263 1.297 . S
C220 C221 1.404 . S
C220 C225 1.397 . S
C220 C226 1.492 . S
C221 C220 1.404 . S
C221 C222 1.396 . S
C221 C232 1.492 . S
C222 C221 1.396 . S
C222 C223 1.397 . S
C222 C238 1.509 . S
C223 C222 1.397 . S
C223 C224 1.412 . S
C223 C244 1.485 . S
C224 C223 1.412 . S
C224 C225 1.388 . S
C224 C250 1.490 . S
C225 C220 1.397 . S
C225 C224 1.388 . S
C225 C256 1.519 . S
C226 C220 1.492 . S
C226 C227 1.363 . S
C226 C231 1.390 . S
C227 H192 0.930 . S
C227 C226 1.363 . S
C227 C228 1.372 . S
C228 H193 0.930 . S
C228 C227 1.372 . S
C228 C229 1.383 . S
C229 C228 1.383 . S
C229 C230 1.395 . S
C230 H194 0.930 . S
C230 C229 1.395 . S
C230 C231 1.362 . S
C231 H195 0.930 . S
C231 C226 1.390 . S
C231 C230 1.362 . S
C232 C221 1.492 . S
C232 C233 1.377 1_556 S
C232 C237 1.397 . S
C233 H196 0.928 1_554 S
C233 C232 1.377 1_554 S
C233 C234 1.376 . S
C234 H197 0.930 . S
C234 C233 1.376 . S
C234 C235 1.376 . S
C235 C234 1.376 . S
C235 C236 1.378 . S
C235 C262 1.486 . S
C236 H198 0.930 . S
C236 C235 1.378 . S
C236 C237 1.376 1_554 S
C237 H199 0.929 . S
C237 C232 1.397 . S
C237 C236 1.376 1_556 S
C238 C222 1.509 . S
C238 C239 1.391 . S
C238 C243 1.386 . S
C239 H200 0.930 . S
C239 C238 1.391 . S
C239 C240 1.375 . S
C240 H201 0.931 1_556 S
C240 C239 1.375 . S
C240 C241 1.375 1_556 S
C241 C240 1.375 1_554 S
C241 C242 1.361 . S
C242 H202 0.930 . S
C242 C241 1.361 . S
C242 C243 1.399 1_554 S
C243 H203 0.929 . S
C243 C238 1.386 . S
C243 C242 1.399 1_556 S
C244 C223 1.485 . S
C244 C245 1.394 . S
C244 C249 1.360 . S
C245 H204 0.931 . S
C245 C244 1.394 . S
C245 C246 1.372 . S
C246 H205 0.930 . S
C246 C245 1.372 . S
C246 C247 1.397 . S
C247 C246 1.397 . S
C247 C248 1.390 . S
C247 C263 1.476 . S
C248 H206 0.930 . S
C248 C247 1.390 . S
C248 C249 1.366 . S
C249 H207 0.932 . S
C249 C244 1.360 . S
C249 C248 1.366 . S
C250 C224 1.490 . S
C250 C251 1.380 . S
C250 C255 1.386 . S
C251 H208 0.930 . S
C251 C250 1.380 . S
C251 C252 1.381 . S
C252 H209 0.929 . S
C252 C251 1.381 . S
C252 C253 1.371 . S
C253 C252 1.371 . S
C253 C254 1.380 . S
C254 H210 0.931 . S
C254 C253 1.380 . S
C254 C255 1.387 . S
C255 H211 0.930 . S
C255 C250 1.386 . S
C255 C254 1.387 . S
C256 C225 1.519 . S
C256 C257 1.377 . S
C256 C261 1.361 . S
C257 H212 0.929 . S
C257 C256 1.377 . S
C257 C258 1.386 . S
C258 H213 0.931 . S
C258 C257 1.386 . S
C258 C259 1.363 . S
C259 C258 1.363 . S
C259 C260 1.385 . S
C260 H214 0.930 . S
C260 C259 1.385 . S
C260 C261 1.396 . S
C261 H215 0.929 . S
C261 C256 1.361 . S
C261 C260 1.396 . S
C262 O216 1.300 . S
C262 O217 1.209 . S
C262 C235 1.486 . S
C263 O218 1.199 . S
C263 O219 1.297 . S
C263 C247 1.476 . S
H264 C270 0.930 . S
H265 C273 0.930 . S
H266 C274 0.930 . S
H267 C275 0.930 . S
H268 C278 0.930 . S
H269 C279 0.930 . S
C270 H264 0.930 . S
C270 C271 1.355 . S
C270 C272 1.415 . S
C271 C270 1.355 . S
C271 C273 1.419 1_455 S
C272 C270 1.415 . S
C272 C277 1.425 . S
C272 C279 1.409 . S
C273 H265 0.930 . S
C273 C271 1.419 1_655 S
C273 C274 1.362 . S
C274 H266 0.930 . S
C274 C273 1.362 . S
C274 C277 1.409 1_655 S
C275 H267 0.930 . S
C275 C276 1.355 1_655 S
C275 C277 1.415 1_655 S
C276 C275 1.355 1_455 S
C276 C278 1.419 . S
C277 C272 1.425 . S
C277 C274 1.409 1_455 S
C277 C275 1.415 1_455 S
C278 H268 0.930 . S
C278 C276 1.419 . S
C278 C279 1.362 . S
C279 H269 0.930 . S
C279 C272 1.409 . S
C279 C278 1.362 . S
H280 C286 0.930 . S
H281 C289 0.930 1_455 S
H282 C290 0.926 1_455 S
H283 C291 0.930 . S
H284 C294 0.930 1_565 S
H285 C295 0.930 1_565 S
C286 H280 0.930 . S
C286 C287 1.355 . S
C286 C288 1.415 . S
C287 C286 1.355 . S
C287 C289 1.419 . S
C288 C286 1.415 . S
C288 C293 1.425 . S
C288 C295 1.409 . S
C289 H281 0.930 1_655 S
C289 C287 1.419 . S
C289 C290 1.362 . S
C290 H282 0.926 1_655 S
C290 C289 1.362 . S
C290 C293 1.409 . S
C291 H283 0.930 . S
C291 C292 1.355 . S
C291 C293 1.415 . S
C292 C291 1.355 . S
C292 C294 1.419 . S
C293 C288 1.425 . S
C293 C290 1.409 . S
C293 C291 1.415 . S
C294 H284 0.930 1_545 S
C294 C292 1.419 . S
C294 C295 1.362 . S
C295 H285 0.930 1_545 S
C295 C288 1.409 . S
C295 C294 1.362 . S
H296 C302 0.930 . S
H297 C305 0.930 . S
H298 C306 0.930 . S
H299 C307 0.930 . S
H300 C310 0.930 . S
H301 C311 0.930 . S
C302 H296 0.930 . S
C302 C303 1.355 . S
C302 C304 1.415 . S
C303 C302 1.355 . S
C303 C305 1.419 . S
C304 C302 1.415 . S
C304 C309 1.425 . S
C304 C311 1.409 . S
C305 H297 0.930 . S
C305 C303 1.419 . S
C305 C306 1.362 . S
C306 H298 0.930 . S
C306 C305 1.362 . S
C306 C309 1.409 . S
C307 H299 0.930 . S
C307 C308 1.355 . S
C307 C309 1.415 . S
C308 C307 1.355 . S
C308 C310 1.419 . S
C309 C304 1.425 . S
C309 C306 1.409 . S
C309 C307 1.415 . S
C310 H300 0.930 . S
C310 C308 1.419 . S
C310 C311 1.362 . S
C311 H301 0.930 . S
C311 C304 1.409 . S
C311 C310 1.362 . S
H312 C318 0.930 . S
H313 C321 0.930 . S
H314 C322 0.930 . S
H315 C323 0.930 . S
H316 C326 0.930 . S
H317 C327 0.930 . S
C318 H312 0.930 . S
C318 C319 1.355 . S
C318 C320 1.415 . S
C319 C318 1.355 . S
C319 C321 1.419 . S
C320 C318 1.415 . S
C320 C325 1.425 . S
C320 C327 1.409 . S
C321 H313 0.930 . S
C321 C319 1.419 . S
C321 C322 1.362 . S
C322 H314 0.930 . S
C322 C321 1.362 . S
C322 C325 1.409 . S
C323 H315 0.930 . S
C323 C324 1.355 . S
C323 C325 1.415 . S
C324 C323 1.355 . S
C324 C326 1.419 . S
C325 C320 1.425 . S
C325 C322 1.409 . S
C325 C323 1.415 . S
C326 H316 0.930 . S
C326 C324 1.419 . S
C326 C327 1.362 . S
C327 H317 0.930 . S
C327 C320 1.409 . S
C327 C326 1.362 . S
H328 C334 0.930 . S
H329 C337 0.930 . S
H330 C338 0.930 . S
H331 C339 0.930 . S
H332 C342 0.930 . S
H333 C343 0.930 . S
C334 H328 0.930 . S
C334 C335 1.355 . S
C334 C336 1.415 . S
C335 C334 1.355 . S
C335 C337 1.419 . S
C336 C334 1.415 . S
C336 C341 1.425 . S
C336 C343 1.409 . S
C337 H329 0.930 . S
C337 C335 1.419 . S
C337 C338 1.362 . S
C338 H330 0.930 . S
C338 C337 1.362 . S
C338 C341 1.409 . S
C339 H331 0.930 . S
C339 C340 1.355 . S
C339 C341 1.415 . S
C340 C339 1.355 . S
C340 C342 1.419 . S
C341 C336 1.425 . S
C341 C338 1.409 . S
C341 C339 1.415 . S
C342 H332 0.930 . S
C342 C340 1.419 . S
C342 C343 1.362 . S
C343 H333 0.930 . S
C343 C336 1.409 . S
C343 C342 1.362 . S
H344 C350 0.930 . S
H345 C353 0.930 . S
H346 C354 0.930 . S
H347 C355 0.930 . S
H348 C358 0.930 . S
H349 C359 0.930 . S
C350 H344 0.930 . S
C350 C351 1.355 . S
C350 C352 1.415 . S
C351 C350 1.355 . S
C351 C353 1.419 . S
C352 C350 1.415 . S
C352 C357 1.425 . S
C352 C359 1.409 . S
C353 H345 0.930 . S
C353 C351 1.419 . S
C353 C354 1.362 . S
C354 H346 0.930 . S
C354 C353 1.362 . S
C354 C357 1.409 . S
C355 H347 0.930 . S
C355 C356 1.355 . S
C355 C357 1.415 . S
C356 C355 1.355 . S
C356 C358 1.419 . S
C357 C352 1.425 . S
C357 C354 1.409 . S
C357 C355 1.415 . S
C358 H348 0.930 . S
C358 C356 1.419 . S
C358 C359 1.362 . S
C359 H349 0.930 . S
C359 C352 1.409 . S
C359 C358 1.362 . S
H360 C366 0.930 . S
H361 C369 0.930 1_455 S
H362 C370 0.930 . S
H363 C371 0.930 . S
H364 C374 0.930 . S
H365 C375 0.930 . S
C366 H360 0.930 . S
C366 C367 1.355 . S
C366 C368 1.415 . S
C367 C366 1.355 . S
C367 C369 1.419 . S
C368 C366 1.415 . S
C368 C373 1.425 . S
C368 C375 1.409 . S
C369 H361 0.930 1_655 S
C369 C367 1.419 . S
C369 C370 1.362 . S
C370 H362 0.930 . S
C370 C369 1.362 . S
C370 C373 1.409 . S
C371 H363 0.930 . S
C371 C372 1.355 . S
C371 C373 1.415 . S
C372 C371 1.355 . S
C372 C374 1.419 . S
C373 C368 1.425 . S
C373 C370 1.409 . S
C373 C371 1.415 . S
C374 H364 0.930 . S
C374 C372 1.419 . S
C374 C375 1.362 . S
C375 H365 0.930 . S
C375 C368 1.409 . S
C375 C374 1.362 . S
H376 C382 0.930 1_455 S
H377 C385 0.930 . S
H378 C386 0.930 . S
H379 C387 0.930 . S
H380 C390 0.930 . S
H381 C391 0.930 . S
C382 H376 0.930 1_655 S
C382 C383 1.355 . S
C382 C384 1.415 . S
C383 C382 1.355 . S
C383 C385 1.419 . S
C384 C382 1.415 . S
C384 C389 1.425 . S
C384 C391 1.409 1_554 S
C385 H377 0.930 . S
C385 C383 1.419 . S
C385 C386 1.362 . S
C386 H378 0.930 . S
C386 C385 1.362 . S
C386 C389 1.409 . S
C387 H379 0.930 . S
C387 C388 1.355 1_554 S
C387 C389 1.415 . S
C388 C387 1.355 1_556 S
C388 C390 1.419 . S
C389 C384 1.425 . S
C389 C386 1.409 . S
C389 C387 1.415 . S
C390 H380 0.930 . S
C390 C388 1.419 . S
C390 C391 1.362 . S
C391 H381 0.930 . S
C391 C384 1.409 1_556 S
C391 C390 1.362 . S
H392 C398 0.930 . S
H393 C401 0.930 . S
H394 C402 0.930 . S
H395 C403 0.930 . S
H396 C406 0.930 . S
H397 C407 0.930 . S
C398 H392 0.930 . S
C398 C399 1.355 . S
C398 C400 1.415 . S
C399 C398 1.355 . S
C399 C401 1.419 1_455 S
C400 C398 1.415 . S
C400 C405 1.432 . S
C400 C407 1.409 . S
C401 H393 0.930 . S
C401 C399 1.419 1_655 S
C401 C402 1.362 . S
C402 H394 0.930 . S
C402 C401 1.362 . S
C402 C405 1.399 1_655 S
C403 H395 0.930 . S
C403 C404 1.355 1_655 S
C403 C405 1.418 1_655 S
C404 C403 1.355 1_455 S
C404 C406 1.419 . S
C405 C400 1.432 . S
C405 C402 1.399 1_455 S
C405 C403 1.418 1_455 S
C406 H396 0.930 . S
C406 C404 1.419 . S
C406 C407 1.362 . S
C407 H397 0.930 . S
C407 C400 1.409 . S
C407 C406 1.362 . S
H408 C414 0.930 . S
H409 C417 0.930 . S
H410 C418 0.930 . S
H411 C419 0.930 . S
H412 C422 0.930 1_565 S
H413 C423 0.930 1_565 S
C414 H408 0.930 . S
C414 C415 1.355 . S
C414 C416 1.415 . S
C415 C414 1.355 . S
C415 C417 1.419 . S
C416 C414 1.415 . S
C416 C421 1.425 . S
C416 C423 1.409 . S
C417 H409 0.930 . S
C417 C415 1.419 . S
C417 C418 1.362 . S
C418 H410 0.930 . S
C418 C417 1.362 . S
C418 C421 1.409 . S
C419 H411 0.930 . S
C419 C420 1.355 . S
C419 C421 1.415 . S
C420 C419 1.355 . S
C420 C422 1.419 . S
C421 C416 1.425 . S
C421 C418 1.409 . S
C421 C419 1.415 . S
C422 H412 0.930 1_545 S
C422 C420 1.419 . S
C422 C423 1.362 . S
C423 H413 0.930 1_545 S
C423 C416 1.409 . S
C423 C422 1.362 . S
H424 C430 0.930 . S
H425 C433 0.930 . S
H426 C434 0.930 . S
H427 C435 0.930 . S
H428 C438 0.930 . S
H429 C439 0.930 . S
C430 H424 0.930 . S
C430 C431 1.355 . S
C430 C432 1.415 . S
C431 C430 1.355 . S
C431 C433 1.419 . S
C432 C430 1.415 . S
C432 C437 1.425 . S
C432 C439 1.409 . S
C433 H425 0.930 . S
C433 C431 1.419 . S
C433 C434 1.362 . S
C434 H426 0.930 . S
C434 C433 1.362 . S
C434 C437 1.409 . S
C435 H427 0.930 . S
C435 C436 1.355 . S
C435 C437 1.415 . S
C436 C435 1.355 . S
C436 C438 1.419 . S
C437 C432 1.425 . S
C437 C434 1.409 . S
C437 C435 1.415 . S
C438 H428 0.930 . S
C438 C436 1.419 . S
C438 C439 1.362 . S
C439 H429 0.930 . S
C439 C432 1.409 . S
C439 C438 1.362 . S
H440 C446 0.930 1_655 S
H441 C449 0.930 . S
H442 C450 0.930 . S
H443 C451 0.930 . S
H444 C454 0.928 1_655 S
H445 C455 0.930 . S
C446 H440 0.930 1_455 S
C446 C447 1.355 . S
C446 C448 1.415 . S
C447 C446 1.355 . S
C447 C449 1.419 . S
C448 C446 1.415 . S
C448 C453 1.425 . S
C448 C455 1.409 1_455 S
C449 H441 0.930 . S
C449 C447 1.419 . S
C449 C450 1.362 . S
C450 H442 0.930 . S
C450 C449 1.362 . S
C450 C453 1.409 . S
C451 H443 0.930 . S
C451 C452 1.355 . S
C451 C453 1.415 . S
C452 C451 1.355 . S
C452 C454 1.420 . S
C453 C448 1.425 . S
C453 C450 1.409 . S
C453 C451 1.415 . S
C454 H444 0.928 1_455 S
C454 C452 1.420 . S
C454 C455 1.364 1_455 S
C455 H445 0.930 . S
C455 C448 1.409 1_655 S
C455 C454 1.364 1_655 S
C276 C81 1.439 . S
C271 C6 1.528 . S
C287 C22 1.577 . S
C292 C155 1.471 . S
C303 C34 1.858 . S
C308 C259 1.896 . S
C319 C7 0.857 . S
C324 C93 0.869 . S
C340 C167 0.999 . S
C335 C23 1.008 . S
C351 C35 1.354 . S
C356 C253 1.318 . S
C372 C185 2.130 . S
C367 C36 2.125 1_655 S
C383 C9 1.831 1_655 S
C388 C229 1.722 . S
C404 C105 1.566 . S
C399 C21 1.635 . S
C420 C179 1.495 . S
C415 C37 1.620 . S
C436 C241 1.161 . S
C431 C8 1.110 . S
C447 C20 2.110 . S
C452 C111 2.151 . S
