# Generated by pormake.
# Topology zzz, (3,6)-cn, num edge types: 1
# Building blocks:
#     Node 0, Type 0, BuildingBlock: PAMTOO_clean_linker_0, # of connection points: 3
#     Node 1, Type 0, BuildingBlock: PAMTOO_clean_linker_0, # of connection points: 3
#     Node 2, Type 0, BuildingBlock: PAMTOO_clean_linker_0, # of connection points: 3
#     Node 3, Type 0, BuildingBlock: PAMTOO_clean_linker_0, # of connection points: 3
#     Node 4, Type 0, BuildingBlock: PAMTOO_clean_linker_0, # of connection points: 3
#     Node 5, Type 0, BuildingBlock: PAMTOO_clean_linker_0, # of connection points: 3
#     Node 6, Type 0, BuildingBlock: PAMTOO_clean_linker_0, # of connection points: 3
#     Node 7, Type 0, BuildingBlock: PAMTOO_clean_linker_0, # of connection points: 3
#     Node 8, Type 1, BuildingBlock: BETFEN_clean_sbu_0, # of connection points: 6
#     Node 9, Type 1, BuildingBlock: BETFEN_clean_sbu_0, # of connection points: 6
#     Node 10, Type 1, BuildingBlock: BETFEN_clean_sbu_0, # of connection points: 6
#     Node 11, Type 1, BuildingBlock: BETFEN_clean_sbu_0, # of connection points: 6
#     Edge 12, Type (0, 1), BuildingBlock: UVAHIK_clean_linker_0, # of connection points: 2
#     Edge 13, Type (0, 1), BuildingBlock: UVAHIK_clean_linker_0, # of connection points: 2
#     Edge 14, Type (0, 1), BuildingBlock: UVAHIK_clean_linker_0, # of connection points: 2
#     Edge 15, Type (0, 1), BuildingBlock: UVAHIK_clean_linker_0, # of connection points: 2
#     Edge 16, Type (0, 1), BuildingBlock: UVAHIK_clean_linker_0, # of connection points: 2
#     Edge 17, Type (0, 1), BuildingBlock: UVAHIK_clean_linker_0, # of connection points: 2
#     Edge 18, Type (0, 1), BuildingBlock: UVAHIK_clean_linker_0, # of connection points: 2
#     Edge 19, Type (0, 1), BuildingBlock: UVAHIK_clean_linker_0, # of connection points: 2
#     Edge 20, Type (0, 1), BuildingBlock: UVAHIK_clean_linker_0, # of connection points: 2
#     Edge 21, Type (0, 1), BuildingBlock: UVAHIK_clean_linker_0, # of connection points: 2
#     Edge 22, Type (0, 1), BuildingBlock: UVAHIK_clean_linker_0, # of connection points: 2
#     Edge 23, Type (0, 1), BuildingBlock: UVAHIK_clean_linker_0, # of connection points: 2
#     Edge 24, Type (0, 1), BuildingBlock: UVAHIK_clean_linker_0, # of connection points: 2
#     Edge 25, Type (0, 1), BuildingBlock: UVAHIK_clean_linker_0, # of connection points: 2
#     Edge 26, Type (0, 1), BuildingBlock: UVAHIK_clean_linker_0, # of connection points: 2
#     Edge 27, Type (0, 1), BuildingBlock: UVAHIK_clean_linker_0, # of connection points: 2
#     Edge 28, Type (0, 1), BuildingBlock: UVAHIK_clean_linker_0, # of connection points: 2
#     Edge 29, Type (0, 1), BuildingBlock: UVAHIK_clean_linker_0, # of connection points: 2
#     Edge 30, Type (0, 1), BuildingBlock: UVAHIK_clean_linker_0, # of connection points: 2
#     Edge 31, Type (0, 1), BuildingBlock: UVAHIK_clean_linker_0, # of connection points: 2
#     Edge 32, Type (0, 1), BuildingBlock: UVAHIK_clean_linker_0, # of connection points: 2
#     Edge 33, Type (0, 1), BuildingBlock: UVAHIK_clean_linker_0, # of connection points: 2
#     Edge 34, Type (0, 1), BuildingBlock: UVAHIK_clean_linker_0, # of connection points: 2
#     Edge 35, Type (0, 1), BuildingBlock: UVAHIK_clean_linker_0, # of connection points: 2
# Relax obj value: 0.230
# Max RMSD: 0.176
# Mean RMSD: 0.158
data_MOF--net-zzz--node1-BETFEN_clean_sbu_0--node2-PAMTOO_clean_linker_0--edge1-UVAHIK_clean_linker_0
_symmetry_space_group_name_H-M    P1
_symmetry_Int_Tables_number       1
_symmetry_cell_setting            triclinic
loop_
_symmetry_equiv_pos_as_xyz
'x, y, z'
_cell_length_a     67.612681
_cell_length_b     67.842325
_cell_length_c     17.212429
_cell_angle_alpha  90.132143
_cell_angle_beta   89.927041
_cell_angle_gamma 89.974294
loop_
_atom_site_label
_atom_site_type_symbol
_atom_site_fract_x
_atom_site_fract_y
_atom_site_fract_z
_atom_type_partial_charge
H0 H 0.79404 0.53465 0.26526 0.0
H1 H 0.73351 0.53001 0.19241 0.0
H2 H 0.75167 0.50527 0.41161 0.0
H3 H 0.70763 0.4854 0.33383 0.0
C4 C 0.71288 0.4949 0.28552 0.0
O5 O 0.72127 0.51173 0.31677 0.0
H6 H 0.724 0.48602 0.25275 0.0
C7 C 0.77898 0.52992 0.27685 0.0
C8 C 0.77473 0.51979 0.34554 0.0
C9 C 0.76428 0.53342 0.22148 0.0
C10 C 0.74491 0.52724 0.2352 0.0
C11 C 0.74027 0.51714 0.30372 0.0
C12 C 0.75525 0.51313 0.35874 0.0
H13 H 0.03792 0.78871 0.25743 0.0
H14 H 0.0231 0.73352 0.15054 0.0
H15 H 0.99221 0.75234 0.35683 0.0
H16 H 0.99267 0.70165 0.33021 0.0
C17 C 1.00271 0.70602 0.28209 0.0
O18 O 0.99617 0.72375 0.2518 0.0
H19 H 0.01773 0.70752 0.30816 0.0
C20 C 0.02954 0.77507 0.25864 0.0
C21 C 0.01495 0.77231 0.31556 0.0
C22 C 0.03253 0.76121 0.19949 0.0
C23 C 0.02112 0.74407 0.19726 0.0
C24 C 1.00696 0.74057 0.25499 0.0
C25 C 1.0036 0.75483 0.31364 0.0
H26 H 0.7304 0.9852 0.271 0.0
H27 H 0.79154 0.9893 0.20511 0.0
H28 H 0.77299 1.00829 0.43288 0.0
H29 H 0.8189 0.02855 0.36228 0.0
C30 C 0.81264 0.02063 0.3114 0.0
O31 O 0.8037 1.00349 0.33726 0.0
H32 H 0.80164 0.03084 0.28487 0.0
C33 C 0.74564 0.98848 0.28613 0.0
C34 C 0.74983 0.99647 0.35927 0.0
C35 C 0.76053 0.98615 0.23017 0.0
C36 C 0.78003 0.99097 0.24848 0.0
C37 C 0.78464 0.99883 0.32145 0.0
C38 C 0.76948 1.00189 0.37687 0.0
H39 H 0.50404 0.73018 0.23124 0.0
H40 H 0.50781 0.78998 0.15291 0.0
H41 H 0.53156 0.77406 0.37649 0.0
H42 H 0.51854 0.82391 0.35592 0.0
C43 C 0.51398 0.81868 0.2974 0.0
O44 O 0.52626 0.8033 0.27535 0.0
H45 H 0.49832 0.81371 0.30278 0.0
C46 C 0.50847 0.74534 0.24165 0.0
C47 C 0.51828 0.75023 0.31055 0.0
C48 C 0.50442 0.75965 0.18561 0.0
C49 C 0.51038 0.77909 0.19757 0.0
C50 C 0.51994 0.78446 0.2666 0.0
C51 C 0.52378 0.77003 0.32384 0.0
H52 H 0.2289 0.52833 0.14314 0.0
H53 H 0.28976 0.53057 0.21376 0.0
H54 H 0.27245 0.49406 0.01999 0.0
H55 H 0.31355 0.4778 0.10765 0.0
C56 C 0.31018 0.48983 0.1495 0.0
O57 O 0.30244 0.50565 0.10893 0.0
H58 H 0.2992 0.48373 0.19143 0.0
C59 C 0.24412 0.52363 0.13517 0.0
C60 C 0.2488 0.51044 0.07542 0.0
C61 C 0.25877 0.53093 0.18475 0.0
C62 C 0.27841 0.525 0.17516 0.0
C63 C 0.28338 0.51156 0.1163 0.0
C64 C 0.26859 0.50438 0.06566 0.0
H65 H 0.01429 0.22475 0.16453 0.0
H66 H 0.02467 0.2855 0.22206 0.0
H67 H 1.01204 0.26889 0.98553 0.0
H68 H 0.989 0.30345 0.10502 0.0
C69 C 1.00276 0.31156 0.08906 0.0
O70 O 0.01872 0.29887 0.08225 0.0
H71 H 0.99988 0.31826 0.03134 0.0
C72 C 0.01499 0.24009 0.14693 0.0
C73 C 1.01265 0.24491 0.06847 0.0
C74 C 0.01931 0.2546 0.20237 0.0
C75 C 0.02102 0.27427 0.17958 0.0
C76 C 0.01779 0.27958 0.1021 0.0
C77 C 0.01396 0.26484 0.04587 0.0
H78 H 0.29212 0.98199 0.14402 0.0
H79 H 0.23369 0.98973 0.23693 0.0
H80 H 0.25226 0.02354 0.03809 0.0
H81 H 0.21345 0.04402 0.14135 0.0
C82 C 0.21644 0.03117 0.17948 0.0
O83 O 0.2224 0.01546 0.13365 0.0
H84 H 0.2284 0.03581 0.22015 0.0
C85 C 0.27768 0.98894 0.14072 0.0
C86 C 0.27403 1.00311 0.08338 0.0
C87 C 0.26333 0.98419 0.19617 0.0
C88 C 0.24485 0.99337 0.19405 0.0
C89 C 0.24074 1.00745 0.13685 0.0
C90 C 0.25545 0.01261 0.0821 0.0
H91 H 0.51122 0.30047 0.16907 0.0
H92 H 0.50214 0.24015 0.23397 0.0
H93 H 0.49845 0.25709 0.99319 0.0
H94 H 0.52501 0.21932 0.09603 0.0
C95 C 0.51002 0.21309 0.08501 0.0
O96 O 0.49552 0.22739 0.09304 0.0
H97 H 0.5098 0.20772 0.02399 0.0
C98 C 0.50783 0.28539 0.15269 0.0
C99 C 0.50507 0.28067 0.07421 0.0
C100 C 0.50671 0.27091 0.21029 0.0
C101 C 0.50272 0.25141 0.18956 0.0
C102 C 0.49962 0.24637 0.11153 0.0
C103 C 0.5007 0.26103 0.05355 0.0
Pr104 Pr 0.01643 0.99977 0.79305 0.0
Pr105 Pr 0.99791 0.01478 0.62298 0.0
C106 C 0.02176 0.98238 0.9302 0.0
C107 C 0.03174 0.96351 0.9453 0.0
C108 C 0.04697 0.96224 0.00035 0.0
C109 C 0.05814 0.94493 0.00673 0.0
C110 C 0.05436 0.92885 0.95721 0.0
C111 C 0.03892 0.93009 0.90322 0.0
C112 C 0.02771 0.94719 0.89752 0.0
C113 C 0.0466 1.00558 0.68202 0.0
C114 C 1.0045 0.96674 0.65042 0.0
C115 C 0.99718 0.0324 0.48511 0.0
C116 C 1.00949 0.04943 0.46622 0.0
C117 C 1.003 0.06364 0.41328 0.0
C118 C 1.01225 0.08206 0.4109 0.0
C119 C 0.02786 0.08642 0.4622 0.0
C120 C 0.03498 0.07175 0.51188 0.0
C121 C 0.02584 0.05343 0.51395 0.0
C122 C 0.96813 1.00898 0.73524 0.0
C123 C 1.01041 0.04741 0.76293 0.0
O124 O 1.00502 0.98123 0.8919 0.0
O125 O 0.03332 0.9966 0.90584 0.0
O126 O 0.02823 1.00804 0.67359 0.0
O127 O 0.04993 0.9999 0.75281 0.0
O128 O 0.99957 0.98086 0.60088 0.0
O129 O 1.01025 0.97028 0.7231 0.0
O130 O 1.00674 0.01582 0.49625 0.0
O131 O 0.98397 0.03612 0.53891 0.0
O132 O 0.98651 1.00689 0.74219 0.0
O133 O 0.96422 0.01352 0.66339 0.0
O134 O 1.01104 0.03336 0.8163 0.0
O135 O 1.00869 0.04354 0.68765 0.0
H136 H 0.0505 0.97475 0.03702 0.0
H137 H 0.06994 0.94424 0.04913 0.0
H138 H 0.03538 0.91775 0.86564 0.0
H139 H 0.01609 0.94775 0.85453 0.0
H140 H 0.99012 0.06093 0.37744 0.0
H141 H 1.00638 0.09328 0.37259 0.0
H142 H 0.04702 0.07474 0.55167 0.0
H143 H 0.03072 0.04288 0.55689 0.0
Pr144 Pr 0.51459 0.02885 0.7599 0.0
Pr145 Pr 0.50264 1.00574 0.61758 0.0
C146 C 0.53248 0.04469 0.88386 0.0
C147 C 0.55239 0.04053 0.91201 0.0
C148 C 0.56415 0.05567 0.94272 0.0
C149 C 0.58441 0.0526 0.95358 0.0
C150 C 0.59292 0.03451 0.93228 0.0
C151 C 0.58095 0.01916 0.90497 0.0
C152 C 0.56083 0.02213 0.89495 0.0
C153 C 0.50258 0.05204 0.63474 0.0
C154 C 0.54997 0.01187 0.64086 0.0
C155 C 0.48609 0.99615 0.48197 0.0
C156 C 0.46846 0.98418 0.46605 0.0
C157 C 0.46571 0.96588 0.50296 0.0
C158 C 0.44721 0.95675 0.50191 0.0
C159 C 0.43121 0.96596 0.46519 0.0
C160 C 0.43422 0.9837 0.42497 0.0
C161 C 0.45275 0.99268 0.42506 0.0
C162 C 0.50699 0.97754 0.73557 0.0
C163 C 0.46805 0.01819 0.74836 0.0
O164 O 0.51981 0.03018 0.88952 0.0
O165 O 0.53212 0.05332 0.81614 0.0
O166 O 0.51404 0.03739 0.63057 0.0
O167 O 0.4963 0.05472 0.70528 0.0
O168 O 0.53615 1.00871 0.58845 0.0
O169 O 0.54532 0.01705 0.71274 0.0
O170 O 0.48237 0.01281 0.5178 0.0
O171 O 0.50167 0.98691 0.50909 0.0
O172 O 0.50971 0.99584 0.74447 0.0
O173 O 0.50218 0.97345 0.66461 0.0
O174 O 0.48229 0.02229 0.7978 0.0
O175 O 0.47199 0.01406 0.6749 0.0
H176 H 0.55786 0.07004 0.95485 0.0
H177 H 0.59353 0.06452 0.97523 0.0
H178 H 0.58729 1.00501 0.88945 0.0
H179 H 0.55206 1.01032 0.87019 0.0
H180 H 0.4775 0.95912 0.53604 0.0
H181 H 0.44514 0.94308 0.53333 0.0
H182 H 0.42206 0.99091 0.39552 0.0
H183 H 0.45451 1.00685 0.39696 0.0
Pr184 Pr 0.50537 0.52318 0.77837 0.0
Pr185 Pr 0.52549 0.50783 0.61181 0.0
C186 C 0.49948 0.54141 0.91343 0.0
C187 C 0.49057 0.561 0.92436 0.0
C188 C 0.47395 0.56346 0.97234 0.0
C189 C 0.46368 0.58138 0.97285 0.0
C190 C 0.46979 0.59691 0.92451 0.0
C191 C 0.48667 0.59453 0.87808 0.0
C192 C 0.49696 0.57681 0.87807 0.0
C193 C 0.47661 0.51936 0.66075 0.0
C194 C 0.51771 0.55574 0.63689 0.0
C195 C 0.53208 0.48919 0.47811 0.0
C196 C 0.54233 0.47029 0.47086 0.0
C197 C 0.55432 0.46397 0.53258 0.0
C198 C 0.56017 0.44436 0.53785 0.0
C199 C 0.55407 0.43073 0.48155 0.0
C200 C 0.54309 0.43732 0.41712 0.0
C201 C 0.53716 0.45701 0.41205 0.0
C202 C 0.55396 0.51128 0.73107 0.0
C203 C 0.51252 0.47518 0.75144 0.0
O204 O 0.51681 0.54115 0.87892 0.0
O205 O 0.48734 0.52778 0.88781 0.0
O206 O 0.49493 0.5162 0.65556 0.0
O207 O 0.4725 0.52461 0.73159 0.0
O208 O 0.52156 0.54142 0.58654 0.0
O209 O 0.51295 0.55247 0.71066 0.0
O210 O 0.51516 0.48793 0.51505 0.0
O211 O 0.54302 0.50411 0.50083 0.0
O212 O 0.53568 0.5145 0.73471 0.0
O213 O 0.55837 0.50644 0.66015 0.0
O214 O 0.50899 0.48944 0.80248 0.0
O215 O 0.51718 0.47861 0.67777 0.0
H216 H 0.46862 0.55137 0.00762 0.0
H217 H 0.45076 0.58297 0.00961 0.0
H218 H 0.49202 0.60644 0.84185 0.0
H219 H 0.50967 0.57542 0.84012 0.0
H220 H 0.55813 0.47389 0.5795 0.0
H221 H 0.5687 0.43969 0.58777 0.0
H222 H 0.53798 0.42702 0.37337 0.0
H223 H 0.52756 0.46156 0.36503 0.0
Pr224 Pr 1.00562 0.49652 0.77924 0.0
Pr225 Pr 0.02056 0.51576 0.61151 0.0
C226 C 0.9887 0.49512 0.91873 0.0
C227 C 0.97235 0.5078 0.94273 0.0
C228 C 0.95843 0.50131 0.99712 0.0
C229 C 0.94065 0.51157 0.0063 0.0
C230 C 0.93663 0.52831 0.96067 0.0
C231 C 0.95105 0.53521 0.90893 0.0
C232 C 0.96868 0.52497 0.89968 0.0
C233 C 1.01132 0.46709 0.66589 0.0
C234 C 0.97293 0.50919 0.6416 0.0
C235 C 0.03726 0.52265 0.47371 0.0
C236 C 0.05467 0.53482 0.4575 0.0
C237 C 0.05733 0.54382 0.38517 0.0
C238 C 0.07404 0.5555 0.3717 0.0
C239 C 0.08831 0.55822 0.43043 0.0
C240 C 0.0852 0.54949 0.50333 0.0
C241 C 0.06848 0.5381 0.51684 0.0
C242 C 0.01433 0.54536 0.7245 0.0
C243 C 0.0538 0.50289 0.75108 0.0
O244 O 1.00563 0.50411 0.90716 0.0
O245 O 0.98398 0.48283 0.86299 0.0
O246 O 0.01368 0.4854 0.6589 0.0
O247 O 1.00648 0.46319 0.73745 0.0
O248 O 0.98704 0.50942 0.58812 0.0
O249 O 0.97685 0.50797 0.71689 0.0
O250 O 0.0408 0.5066 0.51381 0.0
O251 O 0.02165 0.53239 0.4978 0.0
O252 O 1.01215 0.52702 0.73166 0.0
O253 O 0.01994 0.54906 0.65389 0.0
O254 O 0.03965 0.4975 0.79999 0.0
O255 O 0.05025 0.50939 0.67963 0.0
H256 H 0.96086 0.48782 0.02926 0.0
H257 H 0.92965 0.50581 0.04597 0.0
H258 H 0.94841 0.54814 0.87358 0.0
H259 H 0.97896 0.52984 0.85552 0.0
H260 H 0.04658 0.54175 0.33927 0.0
H261 H 0.07587 0.56225 0.3152 0.0
H262 H 0.09597 0.55088 0.54952 0.0
H263 H 0.06647 0.53162 0.57364 0.0
C264 C 0.19925 0.01957 0.30219 0.0
C265 C 0.19797 0.02594 0.2248 0.0
C266 C 0.1821 0.01605 0.34582 0.0
C267 C 0.12824 0.0282 0.35133 0.0
H268 H 0.12754 0.98825 0.51182 0.0
C269 C 0.05872 1.01073 0.54373 0.0
C270 C 0.06255 1.0081 0.62326 0.0
C271 C 0.07439 0.01242 0.4902 0.0
C272 C 0.12751 0.99957 0.46754 0.0
H273 H 0.17781 0.03239 0.13079 0.0
H274 H 0.14779 0.02592 0.20619 0.0
H275 H 0.15628 0.99122 0.42748 0.0
H276 H 0.08589 1.0051 0.70871 0.0
H277 H 0.11293 1.00786 0.6164 0.0
H278 H 0.09933 0.03644 0.39191 0.0
C279 C 0.162 0.02422 0.23428 0.0
C280 C 0.14407 1.00132 0.41914 0.0
C281 C 0.17919 0.0278 0.19077 0.0
C282 C 0.08235 1.00711 0.64788 0.0
C283 C 0.09791 1.00859 0.59477 0.0
C284 C 0.11158 0.02635 0.3996 0.0
C285 C 0.16317 0.01859 0.3129 0.0
C286 C 0.14486 0.01587 0.36105 0.0
C287 C 0.09421 1.01113 0.51511 0.0
C288 C 0.11115 0.01222 0.45925 0.0
H289 H 0.21356 0.0178 0.32958 0.0
H290 H 0.18373 0.0119 0.40617 0.0
H291 H 0.12831 0.03974 0.308 0.0
H292 H 0.04369 1.01106 0.52268 0.0
H293 H 0.07099 0.01423 0.42917 0.0
C294 C 0.51798 0.17858 0.12829 0.0
C295 C 0.50686 0.19584 0.1397 0.0
C296 C 0.51634 0.16268 0.17954 0.0
C297 C 0.5013 0.15029 0.38046 0.0
H298 H 0.50137 0.0966 0.30264 0.0
C299 C 0.48923 0.08411 0.58568 0.0
C300 C 0.50089 0.06725 0.57334 0.0
C301 C 0.48887 0.09932 0.53091 0.0
C302 C 0.50154 0.11148 0.32554 0.0
H303 H 0.48517 0.20983 0.21507 0.0
H304 H 0.48238 0.18218 0.30442 0.0
H305 H 0.50282 0.12404 0.21154 0.0
H306 H 0.52094 0.05287 0.49291 0.0
H307 H 0.52057 0.07951 0.3977 0.0
H308 H 0.50029 0.1378 0.49441 0.0
C309 C 0.49247 0.18096 0.25575 0.0
C310 C 0.50236 0.12724 0.27318 0.0
C311 C 0.49405 0.19685 0.20416 0.0
C312 C 0.51177 0.06567 0.504 0.0
C313 C 0.51148 0.08094 0.44925 0.0
C314 C 0.50055 0.13454 0.43281 0.0
C315 C 0.50363 0.16367 0.24422 0.0
C316 C 0.5023 0.14686 0.29992 0.0
C317 C 0.50022 0.09811 0.46241 0.0
C318 C 0.50068 0.11489 0.40617 0.0
H319 H 0.52816 0.17749 0.0798 0.0
H320 H 0.52539 0.14975 0.16938 0.0
H321 H 0.50156 0.16517 0.4033 0.0
H322 H 0.48059 0.0857 0.63835 0.0
H323 H 0.47971 0.11209 0.54249 0.0
C324 C 0.3273 0.50437 0.26723 0.0
C325 C 0.32866 0.49582 0.19307 0.0
C326 C 0.3444 0.5085 0.31025 0.0
C327 C 0.39717 0.4938 0.3271 0.0
H328 H 0.39979 0.53907 0.46433 0.0
C329 C 0.4659 0.51124 0.52298 0.0
C330 C 0.46137 0.51723 0.59919 0.0
C331 C 0.45083 0.50949 0.46693 0.0
C332 C 0.39929 0.52627 0.42667 0.0
H333 H 0.34895 0.4859 0.10387 0.0
H334 H 0.37888 0.49323 0.17847 0.0
H335 H 0.37143 0.535 0.37886 0.0
H336 H 0.43752 0.52604 0.67616 0.0
H337 H 0.41159 0.52295 0.57991 0.0
H338 H 0.42499 0.48499 0.37598 0.0
C339 C 0.36461 0.49634 0.20438 0.0
C340 C 0.38296 0.52392 0.37762 0.0
C341 C 0.34749 0.49226 0.16136 0.0
C342 C 0.44158 0.52145 0.61797 0.0
C343 C 0.42666 0.51981 0.56241 0.0
C344 C 0.41356 0.49617 0.37627 0.0
C345 C 0.36331 0.50425 0.27994 0.0
C346 C 0.38147 0.50749 0.32802 0.0
C347 C 0.431 0.5139 0.48599 0.0
C348 C 0.41465 0.51224 0.42782 0.0
H349 H 0.31296 0.50735 0.29283 0.0
H350 H 0.34273 0.51443 0.36834 0.0
H351 H 0.3965 0.48085 0.29034 0.0
H352 H 0.48101 0.508 0.50666 0.0
H353 H 0.45472 0.50497 0.4085 0.0
C354 C 1.0029 0.32412 0.22792 0.0
C355 C 1.00675 0.32749 0.14888 0.0
C356 C 1.00508 0.33931 0.28255 0.0
C357 C 0.02612 0.38996 0.31217 0.0
H358 H 0.98686 0.39196 0.47622 0.0
C359 C 0.0167 0.45681 0.52595 0.0
C360 C 1.013 0.45192 0.60396 0.0
C361 C 0.017 0.44205 0.46834 0.0
C362 C 0.99807 0.39156 0.43125 0.0
H363 H 0.01679 0.34911 0.06554 0.0
H364 H 0.02011 0.37583 0.16017 0.0
H365 H 0.9859 0.36534 0.3818 0.0
H366 H 1.00707 0.42777 0.6828 0.0
H367 H 1.00768 0.40228 0.58351 0.0
H368 H 0.03804 0.4165 0.36181 0.0
C369 C 0.01561 0.36143 0.18057 0.0
C370 C 0.99759 0.37618 0.37704 0.0
C371 C 0.01359 0.34616 0.12607 0.0
C372 C 1.00991 0.43205 0.62324 0.0
C373 C 1.01012 0.41742 0.56609 0.0
C374 C 0.02653 0.40546 0.36639 0.0
C375 C 1.01103 0.35835 0.25951 0.0
C376 C 1.0117 0.37499 0.31701 0.0
C377 C 1.01342 0.42217 0.4877 0.0
C378 C 1.01263 0.40634 0.42718 0.0
H379 H 0.99772 0.30984 0.24721 0.0
H380 H 1.0019 0.33614 0.34291 0.0
H381 H 0.03735 0.38953 0.26733 0.0
H382 H 0.01899 0.47201 0.50928 0.0
H383 H 0.01948 0.44626 0.40847 0.0
C384 C 0.84816 1.01171 0.2792 0.0
C385 C 0.82892 0.01599 0.25354 0.0
C386 C 0.86355 1.00872 0.22575 0.0
C387 C 0.87397 0.99772 0.01725 0.0
H388 H 0.92428 0.02287 0.06005 0.0
C389 C 0.93288 1.00842 0.77817 0.0
C390 C 0.95302 1.00709 0.79741 0.0
C391 C 0.9183 1.00781 0.83583 0.0
C392 C 0.91047 0.01547 0.04751 0.0
H393 H 0.81047 0.01948 0.15187 0.0
H394 H 0.83725 0.0143 0.05835 0.0
H395 H 0.89781 0.02451 0.15609 0.0
H396 H 0.97367 1.00429 0.89265 0.0
H397 H 0.94818 1.00268 0.99384 0.0
H398 H 0.88653 0.98877 0.90858 0.0
C399 C 0.84056 0.01328 0.11975 0.0
C400 C 0.89522 0.01642 0.10275 0.0
C401 C 0.8252 0.01635 0.17326 0.0
C402 C 0.95827 1.00502 0.87592 0.0
C403 C 0.94363 1.00436 0.93393 0.0
C404 C 0.88921 0.99671 0.96216 0.0
C405 C 0.86004 1.00974 0.1452 0.0
C406 C 0.87666 1.00776 0.08806 0.0
C407 C 0.92341 1.00582 0.91468 0.0
C408 C 0.90762 1.00579 0.97595 0.0
H409 H 0.85136 1.01108 0.34078 0.0
H410 H 0.87824 1.00566 0.24762 0.0
H411 H 0.86004 0.99055 0.00432 0.0
H412 H 0.92834 1.01022 0.71827 0.0
H413 H 0.903 1.00939 0.81848 0.0
C414 C 0.50426 0.83439 0.16942 0.0
C415 C 0.5151 0.83532 0.23892 0.0
C416 C 0.5049 0.84993 0.11599 0.0
C417 C 0.51387 0.90328 0.1011 0.0
H418 H 0.51932 0.89246 0.88103 0.0
C419 C 0.51735 0.96615 0.86952 0.0
C420 C 0.50867 0.96226 0.79693 0.0
C421 C 0.51925 0.95107 0.92508 0.0
C422 C 0.51746 0.89584 0.9421 0.0
H423 H 0.53535 0.85315 0.3064 0.0
H424 H 0.53612 0.88059 0.21381 0.0
H425 H 0.52039 0.86541 0.97338 0.0
H426 H 0.49464 0.93971 0.72677 0.0
H427 H 0.4972 0.91391 0.82329 0.0
H428 H 0.51031 0.93364 0.06989 0.0
C429 C 0.52714 0.8678 0.20065 0.0
C430 C 0.51819 0.88024 0.99516 0.0
C431 C 0.52675 0.85209 0.2535 0.0
C432 C 0.50161 0.94317 0.78177 0.0
C433 C 0.50326 0.92825 0.83722 0.0
C434 C 0.51286 0.9189 0.04786 0.0
C435 C 0.51619 0.86693 0.13125 0.0
C436 C 0.51625 0.88372 0.07528 0.0
C437 C 0.51234 0.93182 0.90946 0.0
C438 C 0.51443 0.9154 0.96733 0.0
H439 H 0.49495 0.82181 0.15705 0.0
H440 H 0.49615 0.84885 0.06349 0.0
H441 H 0.51218 0.90644 0.16245 0.0
H442 H 0.52295 0.98073 0.88284 0.0
H443 H 0.52646 0.95445 0.97962 0.0
C444 C 0.69857 0.50223 0.15256 0.0
C445 C 0.69573 0.50016 0.23296 0.0
C446 C 0.68249 0.50593 0.10333 0.0
C447 C 0.62773 0.50098 0.09399 0.0
H448 H 0.63393 0.53283 0.90899 0.0
C449 C 0.56335 0.51451 0.87309 0.0
C450 C 0.56876 0.51284 0.79446 0.0
C451 C 0.57795 0.51488 0.9314 0.0
C452 C 0.63194 0.5238 0.9602 0.0
H453 H 0.67411 0.50148 0.32549 0.0
H454 H 0.64598 0.50812 0.23989 0.0
H455 H 0.66112 0.53027 0.00098 0.0
H456 H 0.59362 0.51028 0.71546 0.0
H457 H 0.61877 0.51091 0.81581 0.0
H458 H 0.59856 0.49437 0.05233 0.0
C459 C 0.66052 0.50639 0.21435 0.0
C460 C 0.6476 0.52229 0.01302 0.0
C461 C 0.67663 0.50271 0.26354 0.0
C462 C 0.58894 0.51172 0.77543 0.0
C463 C 0.60342 0.51221 0.83314 0.0
C464 C 0.61202 0.50253 0.04108 0.0
C465 C 0.66317 0.50779 0.13335 0.0
C466 C 0.64588 0.51058 0.08006 0.0
C467 C 0.59821 0.51376 0.91199 0.0
C468 C 0.61405 0.51366 0.97268 0.0
H469 H 0.71318 0.50052 0.12756 0.0
H470 H 0.68518 0.50673 0.0414 0.0
H471 H 0.62586 0.49167 0.14446 0.0
H472 H 0.54791 0.51516 0.88956 0.0
H473 H 0.57339 0.51613 0.99154 0.0
C474 C 0.02022 0.68655 0.17636 0.0
C475 C 1.00303 0.69013 0.22008 0.0
C476 C 0.02097 0.67093 0.1229 0.0
C477 C 0.99585 0.6235 0.07297 0.0
H478 H 0.02583 0.62846 0.88212 0.0
C479 C 1.01124 0.55693 0.86426 0.0
C480 C 1.01127 0.56094 0.78422 0.0
C481 C 1.00962 0.57236 0.91874 0.0
C482 C 0.01721 0.6268 0.93477 0.0
H483 H 0.97279 0.68093 0.23897 0.0
H484 H 0.97387 0.65387 0.14484 0.0
H485 H 0.02365 0.65633 0.97055 0.0
H486 H 1.00933 0.58423 0.69867 0.0
H487 H 1.00622 0.61085 0.79237 0.0
H488 H 0.989 0.59407 0.03578 0.0
C489 C 0.98703 0.66269 0.15331 0.0
C490 C 0.01619 0.64279 0.98625 0.0
C491 C 0.98632 0.6783 0.20681 0.0
C492 C 1.00942 0.58061 0.75994 0.0
C493 C 1.00779 0.59595 0.81391 0.0
C494 C 0.99683 0.60749 0.02124 0.0
C495 C 1.00446 0.65857 0.11127 0.0
C496 C 1.00546 0.64143 0.05613 0.0
C497 C 1.00816 0.59216 0.8942 0.0
C498 C 1.00744 0.60893 0.95108 0.0
H499 H 0.03327 0.69555 0.18498 0.0
H500 H 0.0347 0.66825 0.09222 0.0
H501 H 0.98768 0.62172 0.12664 0.0
H502 H 1.01303 0.54198 0.88477 0.0
H503 H 1.01013 0.56883 0.98001 0.0
C504 C 0.04247 0.25061 0.31325 0.0
C505 C 0.02338 0.24847 0.28264 0.0
C506 C 0.04831 0.23927 0.37691 0.0
C507 C 0.03084 0.19939 0.51065 0.0
H508 H 0.07265 0.16977 0.40928 0.0
C509 C 0.0367 0.11564 0.54324 0.0
C510 C 0.03535 0.10672 0.46956 0.0
C511 C 0.04172 0.13551 0.55007 0.0
C512 C 0.06125 0.178 0.43955 0.0
H513 H 0.99465 0.23516 0.29919 0.0
H514 H 1.00465 0.21534 0.40946 0.0
H515 H 0.0681 0.20429 0.37806 0.0
H516 H 0.03905 0.11109 0.34591 0.0
H517 H 0.04773 0.14582 0.35741 0.0
H518 H 0.0227 0.17234 0.56552 0.0
C519 C 0.01524 0.22568 0.38567 0.0
C520 C 0.05874 0.19789 0.42246 0.0
C521 C 1.00948 0.2369 0.322 0.0
C522 C 0.03995 0.11769 0.40318 0.0
C523 C 0.04515 0.13747 0.41002 0.0
C524 C 0.03332 0.17943 0.52762 0.0
C525 C 0.03508 0.2257 0.41026 0.0
C526 C 0.04257 0.20837 0.45329 0.0
C527 C 0.04569 0.14667 0.48337 0.0
C528 C 0.04765 0.16831 0.48772 0.0
H529 H 0.05341 0.2595 0.28345 0.0
H530 H 0.06362 0.23974 0.39521 0.0
H531 H 0.01846 0.20721 0.53626 0.0
H532 H 0.03302 0.10748 0.59531 0.0
H533 H 0.0419 0.1423 0.60711 0.0
C534 C 0.27393 0.9513 0.24286 0.0
C535 C 0.26897 0.97091 0.25963 0.0
C536 C 0.28591 0.94066 0.29376 0.0
C537 C 0.31623 0.94618 0.47595 0.0
H538 H 0.35793 0.92879 0.33696 0.0
C539 C 0.39575 0.97013 0.49884 0.0
C540 C 0.41109 0.9579 0.47255 0.0
C541 C 0.37629 0.96343 0.49838 0.0
C542 C 0.34638 0.93298 0.37747 0.0
H543 H 0.27076 0.99431 0.34467 0.0
H544 H 0.29224 0.97626 0.43214 0.0
H545 H 0.32454 0.93115 0.28927 0.0
H546 H 0.41861 0.92877 0.43028 0.0
H547 H 0.38426 0.91707 0.42764 0.0
H548 H 0.33888 0.94986 0.56176 0.0
C549 C 0.2866 0.96863 0.38153 0.0
C550 C 0.32705 0.93431 0.35013 0.0
C551 C 0.27429 0.97908 0.33133 0.0
C552 C 0.4069 0.93844 0.45032 0.0
C553 C 0.38735 0.93178 0.44901 0.0
C554 C 0.33567 0.94504 0.50308 0.0
C555 C 0.29363 0.94977 0.36074 0.0
C556 C 0.31195 0.94208 0.39758 0.0
C557 C 0.37182 0.94443 0.471 0.0
C558 C 0.35105 0.93952 0.45257 0.0
H559 H 0.26997 0.94482 0.18744 0.0
H560 H 0.29059 0.92599 0.27698 0.0
H561 H 0.30488 0.95173 0.51466 0.0
H562 H 0.39874 0.98511 0.51738 0.0
H563 H 0.36466 0.97363 0.51457 0.0
C564 C 0.5278 0.26922 0.32852 0.0
C565 C 0.51089 0.2765 0.29122 0.0
C566 C 0.53518 0.27881 0.39436 0.0
C567 C 0.55602 0.31524 0.45148 0.0
H568 H 0.52466 0.35057 0.57886 0.0
C569 C 0.5626 0.39715 0.43238 0.0
C570 C 0.55714 0.40943 0.4943 0.0
C571 C 0.56244 0.37676 0.44136 0.0
C572 C 0.53395 0.34061 0.54575 0.0
H573 H 0.48705 0.2977 0.29722 0.0
H574 H 0.49977 0.31451 0.41108 0.0
H575 H 0.51137 0.31856 0.54288 0.0
H576 H 0.5483 0.41018 0.61558 0.0
H577 H 0.5481 0.37444 0.63134 0.0
H578 H 0.5781 0.33778 0.45048 0.0
C579 C 0.50744 0.30143 0.39102 0.0
C580 C 0.52624 0.32229 0.52468 0.0
C581 C 0.50017 0.29194 0.32527 0.0
C582 C 0.55272 0.40102 0.56692 0.0
C583 C 0.5525 0.38058 0.57591 0.0
C584 C 0.56379 0.33346 0.47313 0.0
C585 C 0.52568 0.29576 0.42335 0.0
C586 C 0.53654 0.31016 0.47212 0.0
C587 C 0.55676 0.36824 0.5125 0.0
C588 C 0.55217 0.34692 0.51521 0.0
H589 H 0.53627 0.2573 0.30283 0.0
H590 H 0.54914 0.27399 0.41854 0.0
H591 H 0.56446 0.30627 0.41124 0.0
H592 H 0.56621 0.40329 0.37607 0.0
H593 H 0.56547 0.3677 0.39085 0.0
C594 C 0.25146 0.56468 0.23126 0.0
C595 C 0.25268 0.54446 0.24684 0.0
C596 C 0.23881 0.57662 0.2751 0.0
C597 C 0.20054 0.57476 0.43333 0.0
H598 H 0.1672 0.59611 0.27076 0.0
C599 C 0.11676 0.57948 0.47323 0.0
C600 C 0.10722 0.56854 0.41459 0.0
C601 C 0.13622 0.58589 0.46323 0.0
C602 C 0.17642 0.59055 0.31726 0.0
H603 H 0.24356 0.52104 0.32372 0.0
H604 H 0.22133 0.54155 0.39958 0.0
H605 H 0.20189 0.59013 0.24467 0.0
H606 H 0.11027 0.55695 0.29754 0.0
H607 H 0.14385 0.56838 0.27965 0.0
H608 H 0.17437 0.57321 0.50288 0.0
C609 C 0.23024 0.54856 0.35523 0.0
C610 C 0.19644 0.58732 0.30277 0.0
C611 C 0.24296 0.53671 0.31174 0.0
C612 C 0.117 0.56554 0.34354 0.0
C613 C 0.13633 0.57212 0.33329 0.0
C614 C 0.18044 0.57787 0.44762 0.0
C615 C 0.22699 0.56833 0.33391 0.0
C616 C 0.20844 0.57819 0.35898 0.0
C617 C 0.14637 0.58175 0.39396 0.0
C618 C 0.168 0.58463 0.38795 0.0
H619 H 0.25873 0.57082 0.18068 0.0
H620 H 0.23689 0.59187 0.25815 0.0
H621 H 0.20948 0.56808 0.47831 0.0
H622 H 0.10947 0.58241 0.52812 0.0
H623 H 0.14357 0.59341 0.51066 0.0
C624 C 0.03747 0.77477 0.06845 0.0
C625 C 0.04577 0.76656 0.13535 0.0
C626 C 0.04877 0.78708 0.0213 0.0
C627 C 0.089 0.8216 0.06084 0.0
H628 H 0.06842 0.84317 0.86927 0.0
C629 C 0.0678 0.90125 0.03618 0.0
C630 C 0.06562 0.91029 0.96368 0.0
C631 C 0.07494 0.88202 0.041 0.0
C632 C 0.07493 0.83733 0.92186 0.0
H633 H 0.0727 0.76229 0.20066 0.0
H634 H 0.09298 0.78269 0.11528 0.0
H635 H 0.06466 0.80831 0.89546 0.0
H636 H 0.07091 0.90726 0.84 0.0
H637 H 0.08387 0.87374 0.84842 0.0
H638 H 0.09925 0.85061 0.08719 0.0
C639 C 0.07757 0.78046 0.10062 0.0
C640 C 0.07249 0.81729 0.93745 0.0
C641 C 0.0661 0.76854 0.14895 0.0
C642 C 0.0722 0.90042 0.89658 0.0
C643 C 0.07957 0.88124 0.90142 0.0
C644 C 0.0919 0.84148 0.04431 0.0
C645 C 0.06865 0.7912 0.0401 0.0
C646 C 0.07801 0.80955 0.01 0.0
C647 C 0.08028 0.87152 0.97337 0.0
C648 C 0.08348 0.84988 0.97766 0.0
H649 H 0.02173 0.77354 0.05768 0.0
H650 H 0.04116 0.79499 0.97574 0.0
H651 H 0.09371 0.81638 0.11721 0.0
H652 H 0.06266 0.90849 0.08864 0.0
H653 H 0.07488 0.87499 0.0974 0.0
C654 C 0.74318 0.96565 0.13224 0.0
C655 C 0.75456 0.98234 0.14956 0.0
C656 C 0.73006 0.96607 0.06983 0.0
C657 C 0.70628 1.00112 0.92925 0.0
H658 H 0.6603 0.98846 0.05456 0.0
C659 C 0.62458 0.02497 0.87027 0.0
C660 C 0.6143 0.03129 0.93668 0.0
C661 C 0.64381 0.01779 0.8765 0.0
C662 C 0.673 0.99206 0.01882 0.0
H663 H 0.76377 1.01112 0.10969 0.0
H664 H 0.7403 0.01236 0.0036 0.0
H665 H 0.69175 0.97373 0.0857 0.0
H666 H 0.61613 0.03673 0.06027 0.0
H667 H 0.65002 0.02435 0.0717 0.0
H668 H 0.68716 0.02053 0.86564 0.0
C669 C 0.74156 0.99875 0.03601 0.0
C670 C 0.69102 0.98327 0.03542 0.0
C671 C 0.75503 0.99811 0.09714 0.0
C672 C 0.62389 0.03188 0.00853 0.0
C673 C 0.6431 0.02465 0.01496 0.0
C674 C 0.68808 1.00994 0.91249 0.0
C675 C 0.72766 0.98351 0.02674 0.0
C676 C 0.70809 0.98827 0.99296 0.0
C677 C 0.65286 0.01683 0.94953 0.0
C678 C 0.67157 1.00606 0.95952 0.0
H679 H 0.74277 0.95329 0.17193 0.0
H680 H 0.71998 0.95381 0.06219 0.0
H681 H 0.71912 1.00517 0.89521 0.0
H682 H 0.61731 0.02477 0.81438 0.0
H683 H 0.65109 0.01193 0.82531 0.0
C684 C 0.47387 0.7572 0.10623 0.0
C685 C 0.49418 0.75364 0.11436 0.0
C686 C 0.46292 0.74661 0.05138 0.0
C687 C 0.46767 0.70753 0.89822 0.0
H688 H 0.42887 0.68075 0.02599 0.0
C689 C 0.45601 0.62609 0.85475 0.0
C690 C 0.45953 0.61611 0.92487 0.0
C691 C 0.45056 0.64592 0.85534 0.0
C692 C 0.43943 0.68817 0.9888 0.0
H693 H 0.51948 0.73797 0.06866 0.0
H694 H 0.50065 0.71944 0.97344 0.0
H695 H 0.43944 0.71374 0.06086 0.0
H696 H 0.45845 0.61836 0.05024 0.0
H697 H 0.44938 0.65293 0.0518 0.0
H698 H 0.4695 0.68105 0.83191 0.0
C699 C 0.49296 0.73046 0.00768 0.0
C700 C 0.44532 0.70726 0.00814 0.0
C701 C 0.50381 0.74095 0.06252 0.0
C702 C 0.45573 0.6257 0.99545 0.0
C703 C 0.45042 0.64555 0.9961 0.0
C704 C 0.46197 0.68835 0.8795 0.0
C705 C 0.47223 0.73233 0.00447 0.0
C706 C 0.4606 0.71652 0.9664 0.0
C707 C 0.44868 0.65612 0.92607 0.0
C708 C 0.44887 0.67798 0.92811 0.0
H709 H 0.46624 0.76689 0.14643 0.0
H710 H 0.44702 0.74848 0.04979 0.0
H711 H 0.47912 0.71451 0.86388 0.0
H712 H 0.45854 0.61884 0.79946 0.0
H713 H 0.44901 0.65355 0.80048 0.0
C714 C 0.77712 0.52932 0.08885 0.0
C715 C 0.77027 0.54202 0.14711 0.0
C716 C 0.79042 0.53619 0.03329 0.0
C717 C 0.83014 0.57181 0.04528 0.0
H718 H 0.84845 0.54075 0.87028 0.0
C719 C 0.90731 0.54085 0.03378 0.0
C720 C 0.91695 0.53771 0.96274 0.0
C721 C 0.8882 0.54847 0.0353 0.0
C722 C 0.84354 0.55001 0.91789 0.0
H723 H 0.76939 0.57214 0.18802 0.0
H724 H 0.7918 0.58455 0.08807 0.0
H725 H 0.81318 0.54299 0.89703 0.0
H726 H 0.91432 0.54025 0.8374 0.0
H727 H 0.88095 0.55392 0.84028 0.0
H728 H 0.86049 0.57842 0.06724 0.0
C729 C 0.78755 0.56917 0.0864 0.0
C730 C 0.82331 0.55114 0.93368 0.0
C731 C 0.77454 0.56218 0.14302 0.0
C732 C 0.90732 0.54279 0.89318 0.0
C733 C 0.88818 0.55047 0.8947 0.0
C734 C 0.85027 0.57093 0.02876 0.0
C735 C 0.79698 0.5559 0.03535 0.0
C736 C 0.81652 0.56086 0.00091 0.0
C737 C 0.87834 0.55316 0.96577 0.0
C738 C 0.85724 0.5589 0.96831 0.0
H739 H 0.77408 0.51366 0.09184 0.0
H740 H 0.79727 0.52542 0.99532 0.0
H741 H 0.82568 0.57949 0.09762 0.0
H742 H 0.91445 0.53715 0.08815 0.0
H743 H 0.88088 0.54994 0.09102 0.0
C744 C 0.99309 0.21626 0.01995 0.0
C745 C 1.00978 0.22842 0.01267 0.0
C746 C 0.99248 0.19778 0.98375 0.0
C747 C 0.01833 0.16468 0.84117 0.0
H748 H 0.99483 0.12388 0.96877 0.0
C749 C 1.0096 0.08379 0.73335 0.0
C750 C 1.01135 0.06846 0.78799 0.0
C751 C 1.00964 0.10357 0.75704 0.0
C752 C 1.00168 0.13498 0.93252 0.0
H753 H 0.0387 0.23105 0.96003 0.0
H754 H 0.03783 0.19867 0.89697 0.0
H755 H 0.99418 0.15781 0.01292 0.0
H756 H 0.01506 0.06217 0.91059 0.0
H757 H 0.01561 0.09651 0.95159 0.0
H758 H 0.0265 0.14158 0.76217 0.0
C759 C 0.02496 0.20351 0.92933 0.0
C760 C 1.00098 0.15463 0.9573 0.0
C761 C 0.02547 0.22215 0.96509 0.0
C762 C 0.01354 0.0735 0.86679 0.0
C763 C 0.0137 0.09329 0.89042 0.0
C764 C 0.01913 0.14494 0.8165 0.0
C765 C 1.00873 0.19076 0.94039 0.0
C766 C 1.00922 0.16983 0.91202 0.0
C767 C 1.01154 0.10865 0.83605 0.0
C768 C 1.01083 0.12977 0.86192 0.0
H769 H 0.98091 0.22065 0.05713 0.0
H770 H 0.9795 0.18869 0.99215 0.0
H771 H 0.02476 0.1759 0.80435 0.0
H772 H 1.00788 0.08054 0.67207 0.0
H773 H 1.00771 0.11486 0.71336 0.0
C774 C 0.29998 0.99185 0.98996 0.0
C775 C 0.29023 1.00753 0.02735 0.0
C776 C 0.31783 0.99485 0.95081 0.0
C777 C 0.36051 0.02921 0.94637 0.0
H778 H 0.37642 0.99596 0.77383 0.0
C779 C 0.44261 0.02143 0.85449 0.0
C780 C 0.44714 0.01846 0.77554 0.0
C781 C 0.42295 0.02147 0.88029 0.0
C782 C 0.37225 1.00562 0.82126 0.0
H783 H 0.29111 0.0389 0.04975 0.0
H784 H 0.32215 0.04441 0.97893 0.0
H785 H 0.3426 0.99471 0.82068 0.0
H786 H 0.43437 0.0134 0.66169 0.0
H787 H 0.4002 0.01396 0.70606 0.0
H788 H 0.39007 0.0405 0.94547 0.0
C789 C 0.31614 0.02963 0.98128 0.0
C790 C 0.3528 1.00469 0.84902 0.0
C791 C 0.29818 0.02658 0.02079 0.0
C792 C 0.43148 0.01567 0.72298 0.0
C793 C 0.41181 0.01586 0.74867 0.0
C794 C 0.37994 0.03029 0.91806 0.0
C795 C 0.32648 0.01369 0.9474 0.0
C796 C 0.34669 0.01622 0.91283 0.0
C797 C 0.40722 0.01868 0.82782 0.0
C798 C 0.3862 0.0183 0.85573 0.0
H799 H 0.29424 0.97698 0.99432 0.0
H800 H 0.32531 0.98212 0.92671 0.0
H801 H 0.35654 0.03818 0.9961 0.0
H802 H 0.45427 0.02355 0.89679 0.0
H803 H 0.42016 0.02332 0.94182 0.0
C804 C 0.49098 0.30353 0.97361 0.0
C805 C 0.50726 0.29675 0.01652 0.0
C806 C 0.49187 0.32174 0.93497 0.0
C807 C 0.51797 0.3692 0.95365 0.0
H808 H 0.49402 0.38195 0.75559 0.0
C809 C 0.50717 0.44977 0.8557 0.0
C810 C 0.5114 0.45432 0.77776 0.0
C811 C 0.50641 0.43015 0.88061 0.0
C812 C 0.50089 0.3786 0.81083 0.0
H813 H 0.5376 0.30288 0.04839 0.0
H814 H 0.53936 0.33425 0.9799 0.0
H815 H 0.49385 0.34781 0.80159 0.0
H816 H 0.51809 0.44157 0.66481 0.0
H817 H 0.51683 0.40744 0.70851 0.0
H818 H 0.52516 0.3998 0.96308 0.0
C819 C 0.52575 0.32586 0.97717 0.0
C820 C 0.50063 0.35906 0.83743 0.0
C821 C 0.52484 0.30779 0.01564 0.0
C822 C 0.51472 0.43869 0.72528 0.0
C823 C 0.51389 0.41906 0.7502 0.0
C824 C 0.51813 0.38867 0.92736 0.0
C825 C 0.50906 0.33346 0.93888 0.0
C826 C 0.50927 0.35411 0.90908 0.0
C827 C 0.50984 0.41454 0.82829 0.0
C828 C 0.50959 0.39367 0.85567 0.0
H829 H 0.47718 0.29542 0.97431 0.0
H830 H 0.47873 0.32717 0.90612 0.0
H831 H 0.52448 0.36602 0.0097 0.0
H832 H 0.50449 0.46135 0.89782 0.0
H833 H 0.50299 0.42722 0.94098 0.0
C834 C 0.22856 0.51249 0.95412 0.0
C835 C 0.23233 0.50342 0.02582 0.0
C836 C 0.21009 0.51027 0.91787 0.0
C837 C 0.15813 0.50044 0.97198 0.0
H838 H 0.14923 0.4974 0.74994 0.0
C839 C 0.07938 0.49193 0.84767 0.0
C840 C 0.07467 0.50173 0.7782 0.0
C841 C 0.09891 0.4911 0.8743 0.0
C842 C 0.15142 0.49849 0.8121 0.0
H843 H 0.22022 0.4844 0.1145 0.0
H844 H 0.1883 0.47993 0.05047 0.0
H845 H 0.18299 0.49694 0.80024 0.0
H846 H 0.08704 0.51842 0.6824 0.0
H847 H 0.12096 0.51743 0.72971 0.0
H848 H 0.12675 0.50245 0.98432 0.0
C849 C 0.19938 0.48899 0.0224 0.0
C850 C 0.17083 0.49815 0.84094 0.0
C851 C 0.21777 0.49125 0.05852 0.0
C852 C 0.09008 0.51063 0.73589 0.0
C853 C 0.10962 0.50996 0.76292 0.0
C854 C 0.1388 0.5009 0.94324 0.0
C855 C 0.19502 0.49904 0.95305 0.0
C856 C 0.17444 0.49901 0.92135 0.0
C857 C 0.11433 0.50024 0.83273 0.0
C858 C 0.1351 0.49985 0.86289 0.0
H859 H 0.23937 0.52237 0.92887 0.0
H860 H 0.20723 0.51835 0.86487 0.0
H861 H 0.1603 0.50164 0.03414 0.0
H862 H 0.06798 0.48476 0.88164 0.0
H863 H 0.10191 0.48313 0.92742 0.0
C864 C 0.0275 0.79814 0.4073 0.0
C865 C 1.01133 0.78869 0.37187 0.0
C866 C 0.02515 0.81615 0.4458 0.0
C867 C 0.99133 0.85944 0.45303 0.0
H868 H 0.02643 0.87533 0.61955 0.0
C869 C 0.99985 0.9414 0.54442 0.0
C870 C 1.00377 0.94587 0.62281 0.0
C871 C 0.99959 0.92182 0.51817 0.0
C872 C 0.01626 0.87118 0.57383 0.0
H873 H 0.97974 0.79032 0.35306 0.0
H874 H 0.97537 0.82152 0.42312 0.0
H875 H 0.02701 0.84155 0.57343 0.0
H876 H 1.0102 0.9329 0.73492 0.0
H877 H 1.00923 0.89899 0.69021 0.0
H878 H 0.98015 0.88897 0.45526 0.0
C879 C 0.99005 0.81521 0.41934 0.0
C880 C 0.01681 0.85174 0.54639 0.0
C881 C 0.99246 0.79712 0.38032 0.0
C882 C 1.00722 0.93016 0.67422 0.0
C883 C 1.0068 0.91059 0.64819 0.0
C884 C 0.99062 0.87886 0.48111 0.0
C885 C 1.00648 0.82527 0.45083 0.0
C886 C 1.00457 0.84559 0.48477 0.0
C887 C 1.0031 0.90607 0.56962 0.0
C888 C 1.00325 0.88512 0.54139 0.0
H889 H 0.04225 0.79203 0.40184 0.0
H890 H 0.03824 0.82336 0.46812 0.0
H891 H 0.98182 0.85548 0.40494 0.0
H892 H 0.99721 0.95305 0.50276 0.0
H893 H 0.99702 0.9191 0.45702 0.0
C894 C 0.72371 0.01837 0.41583 0.0
C895 C 0.73292 0.99984 0.41282 0.0
C896 C 0.70478 0.02046 0.44857 0.0
C897 C 0.66675 0.99513 0.57059 0.0
H898 H 0.62987 0.02678 0.45194 0.0
C899 C 0.5862 1.00965 0.67432 0.0
C900 C 0.57116 1.01005 0.61795 0.0
C901 C 0.60615 1.00838 0.65238 0.0
C902 C 0.63991 0.01775 0.48555 0.0
H903 H 0.72982 0.96907 0.44267 0.0
H904 H 0.69707 0.97266 0.50131 0.0
H905 H 0.66445 0.02513 0.4124 0.0
H906 H 0.56548 1.00932 0.49395 0.0
H907 H 0.60018 1.00729 0.45593 0.0
H908 H 0.6421 0.98733 0.64255 0.0
C909 C 0.70442 0.98569 0.47939 0.0
C910 C 0.65987 0.01705 0.4635 0.0
C911 C 0.72325 0.98361 0.44618 0.0
C912 C 0.57663 1.00906 0.53909 0.0
C913 C 0.59659 1.00805 0.51719 0.0
C914 C 0.6468 0.99587 0.59277 0.0
C915 C 0.69465 1.00403 0.47902 0.0
C916 C 0.67358 1.00565 0.50546 0.0
C917 C 0.61167 1.0078 0.57354 0.0
C918 C 0.63304 1.00711 0.55031 0.0
H919 H 0.73063 0.03101 0.38872 0.0
H920 H 0.69785 0.03485 0.44798 0.0
H921 H 0.67686 0.98629 0.60466 0.0
H922 H 0.58257 1.01029 0.73552 0.0
H923 H 0.61732 1.00817 0.69722 0.0
C924 C 0.5364 0.71917 0.338 0.0
C925 C 0.52328 0.73384 0.36395 0.0
C926 C 0.53729 0.70089 0.37507 0.0
C927 C 0.52317 0.67251 0.55042 0.0
H928 H 0.52106 0.62889 0.40471 0.0
C929 C 0.50952 0.5918 0.65097 0.0
C930 C 0.5188 0.5765 0.6094 0.0
C931 C 0.51044 0.61132 0.62454 0.0
C932 C 0.522 0.64078 0.44659 0.0
H933 H 0.50133 0.74117 0.45078 0.0
H934 H 0.5031 0.70916 0.5171 0.0
H935 H 0.52317 0.66239 0.35647 0.0
H936 H 0.53665 0.56985 0.50794 0.0
H937 H 0.53882 0.60374 0.4633 0.0
H938 H 0.52225 0.65083 0.6407 0.0
C939 C 0.51282 0.7119 0.46825 0.0
C940 C 0.52316 0.66009 0.41873 0.0
C941 C 0.51189 0.73027 0.43077 0.0
C942 C 0.52916 0.58122 0.5411 0.0
C943 C 0.53029 0.60074 0.5152 0.0
C944 C 0.52222 0.6531 0.57848 0.0
C945 C 0.525 0.69673 0.43893 0.0
C946 C 0.52385 0.67622 0.47013 0.0
C947 C 0.52084 0.61611 0.55614 0.0
C948 C 0.52169 0.63691 0.52692 0.0
H949 H 0.54511 0.72146 0.28591 0.0
H950 H 0.54709 0.6897 0.35176 0.0
H951 H 0.52373 0.68458 0.59161 0.0
H952 H 0.50122 0.58868 0.70331 0.0
H953 H 0.50266 0.62257 0.65718 0.0
C954 C 0.80041 0.49789 0.40522 0.0
C955 C 0.79128 0.51643 0.40052 0.0
C956 C 0.81907 0.49591 0.44018 0.0
C957 C 0.85621 0.52212 0.56421 0.0
H958 H 0.89403 0.49007 0.451 0.0
C959 C 0.93658 0.51077 0.67272 0.0
C960 C 0.95182 0.51009 0.61696 0.0
C961 C 0.9167 0.51097 0.65008 0.0
C962 C 0.88372 0.49921 0.48309 0.0
H963 H 0.7941 0.54728 0.43036 0.0
H964 H 0.82635 0.54391 0.49221 0.0
H965 H 0.85963 0.49096 0.4092 0.0
H966 H 0.9579 0.50937 0.49321 0.0
H967 H 0.92328 0.51 0.45376 0.0
H968 H 0.88042 0.5309 0.63647 0.0
C969 C 0.81919 0.53078 0.46999 0.0
C970 C 0.86386 0.49947 0.4598 0.0
C971 C 0.80065 0.53274 0.43477 0.0
C972 C 0.94661 0.50984 0.53786 0.0
C973 C 0.9267 0.51003 0.5152 0.0
C974 C 0.87606 0.52186 0.58748 0.0
C975 C 0.82896 0.51246 0.47119 0.0
C976 C 0.84983 0.51105 0.49967 0.0
C977 C 0.91143 0.5105 0.571 0.0
C978 C 0.89016 0.51051 0.54694 0.0
H979 H 0.79369 0.48518 0.37775 0.0
H980 H 0.82601 0.48153 0.44083 0.0
H981 H 0.84585 0.53109 0.59679 0.0
H982 H 0.93996 0.511 0.73423 0.0
H983 H 0.90543 0.51113 0.69487 0.0
loop_
_geom_bond_atom_site_label_1
_geom_bond_atom_site_label_2
_geom_bond_distance
_geom_bond_site_symmetry_2
_ccdc_geom_bond_type
H0 C7 0.929 . S
H1 C10 0.930 . S
H2 C12 0.929 . S
H3 C4 0.969 . S
C4 H3 0.969 . S
C4 O5 1.550 . S
C4 H6 0.973 . S
O5 C4 1.550 . S
O5 C11 1.412 . S
H6 C4 0.973 . S
C7 H0 0.929 . S
C7 C8 1.400 . S
C7 C9 1.364 . S
C8 C7 1.400 . S
C8 C12 1.377 . S
C9 C7 1.364 . S
C9 C10 1.374 . S
C10 H1 0.930 . S
C10 C9 1.374 . S
C10 C11 1.383 . S
C11 O5 1.412 . S
C11 C10 1.383 . S
C11 C12 1.394 . S
C12 H2 0.929 . S
C12 C8 1.377 . S
C12 C11 1.394 . S
H13 C20 0.928 . S
H14 C23 0.930 . S
H15 C25 0.928 . S
H16 C17 0.969 . S
C17 H16 0.969 . S
C17 O18 1.550 1_455 S
C17 H19 0.973 1_455 S
O18 C17 1.550 1_655 S
O18 C24 1.409 1_655 S
H19 C17 0.973 1_655 S
C20 H13 0.928 . S
C20 C21 1.400 1_655 S
C20 C22 1.364 . S
C21 C20 1.400 1_455 S
C21 C25 1.377 1_455 S
C22 C20 1.364 . S
C22 C23 1.374 . S
C23 H14 0.930 . S
C23 C22 1.374 . S
C23 C24 1.382 1_655 S
C24 O18 1.409 1_455 S
C24 C23 1.382 1_455 S
C24 C25 1.394 1_455 S
C25 H15 0.928 . S
C25 C21 1.377 1_655 S
C25 C24 1.394 1_655 S
H26 C33 0.928 . S
H27 C36 0.930 . S
H28 C38 0.928 . S
H29 C30 0.969 . S
C30 H29 0.969 . S
C30 O31 1.550 1_545 S
C30 H32 0.973 1_545 S
O31 C30 1.550 1_565 S
O31 C37 1.408 1_565 S
H32 C30 0.973 1_565 S
C33 H26 0.928 . S
C33 C34 1.400 1_565 S
C33 C35 1.364 . S
C34 C33 1.400 1_545 S
C34 C38 1.377 1_545 S
C35 C33 1.364 . S
C35 C36 1.374 . S
C36 H27 0.930 . S
C36 C35 1.374 . S
C36 C37 1.382 1_565 S
C37 O31 1.408 1_545 S
C37 C36 1.382 1_545 S
C37 C38 1.394 1_545 S
C38 H28 0.928 . S
C38 C34 1.377 1_565 S
C38 C37 1.394 1_565 S
H39 C46 0.929 . S
H40 C49 0.930 . S
H41 C51 0.929 . S
H42 C43 0.969 . S
C43 H42 0.969 . S
C43 O44 1.550 . S
C43 H45 0.973 . S
O44 C43 1.550 . S
O44 C50 1.412 . S
H45 C43 0.973 . S
C46 H39 0.929 . S
C46 C47 1.400 . S
C46 C48 1.364 . S
C47 C46 1.400 . S
C47 C51 1.377 . S
C48 C46 1.364 . S
C48 C49 1.374 . S
C49 H40 0.930 . S
C49 C48 1.374 . S
C49 C50 1.383 . S
C50 O44 1.412 . S
C50 C49 1.383 . S
C50 C51 1.394 . S
C51 H41 0.929 . S
C51 C47 1.377 . S
C51 C50 1.394 . S
H52 C59 0.929 . S
H53 C62 0.930 . S
H54 C64 0.929 . S
H55 C56 0.969 . S
C56 H55 0.969 . S
C56 O57 1.550 . S
C56 H58 0.973 . S
O57 C56 1.550 . S
O57 C63 1.412 . S
H58 C56 0.973 . S
C59 H52 0.929 . S
C59 C60 1.400 1_554 S
C59 C61 1.364 . S
C60 C59 1.400 1_556 S
C60 C64 1.377 . S
C61 C59 1.364 . S
C61 C62 1.374 . S
C62 H53 0.930 . S
C62 C61 1.374 . S
C62 C63 1.383 . S
C63 O57 1.412 . S
C63 C62 1.383 . S
C63 C64 1.394 1_554 S
C64 H54 0.929 . S
C64 C60 1.377 . S
C64 C63 1.394 1_556 S
H65 C72 0.928 . S
H66 C75 0.930 . S
H67 C77 0.928 . S
H68 C69 0.969 . S
C69 H68 0.969 . S
C69 O70 1.550 1_455 S
C69 H71 0.973 1_455 S
O70 C69 1.550 1_655 S
O70 C76 1.412 1_655 S
H71 C69 0.973 1_655 S
C72 H65 0.928 . S
C72 C73 1.401 1_554 S
C72 C74 1.364 . S
C73 C72 1.401 1_556 S
C73 C77 1.378 . S
C74 C72 1.364 . S
C74 C75 1.374 . S
C75 H66 0.930 . S
C75 C74 1.374 . S
C75 C76 1.384 . S
C76 O70 1.412 1_455 S
C76 C75 1.384 . S
C76 C77 1.396 1_554 S
C77 H67 0.928 . S
C77 C73 1.378 . S
C77 C76 1.396 1_556 S
H78 C85 0.928 . S
H79 C88 0.930 . S
H80 C90 0.928 . S
H81 C82 0.969 . S
C82 H81 0.969 . S
C82 O83 1.550 1_545 S
C82 H84 0.973 1_545 S
O83 C82 1.550 1_565 S
O83 C89 1.412 1_565 S
H84 C82 0.973 1_565 S
C85 H78 0.928 . S
C85 C86 1.400 1_554 S
C85 C87 1.364 . S
C86 C85 1.400 1_556 S
C86 C90 1.377 . S
C87 C85 1.364 . S
C87 C88 1.374 . S
C88 H79 0.930 . S
C88 C87 1.374 . S
C88 C89 1.384 . S
C89 O83 1.412 1_545 S
C89 C88 1.384 . S
C89 C90 1.396 1_554 S
C90 H80 0.928 . S
C90 C86 1.377 . S
C90 C89 1.396 1_556 S
H91 C98 0.929 . S
H92 C101 0.930 . S
H93 C103 0.929 . S
H94 C95 0.969 . S
C95 H94 0.969 . S
C95 O96 1.550 . S
C95 H97 0.973 . S
O96 C95 1.550 . S
O96 C102 1.412 . S
H97 C95 0.973 . S
C98 H91 0.929 . S
C98 C99 1.400 1_554 S
C98 C100 1.364 . S
C99 C98 1.400 1_556 S
C99 C103 1.377 . S
C100 C98 1.364 . S
C100 C101 1.374 . S
C101 H92 0.930 . S
C101 C100 1.374 . S
C101 C102 1.383 . S
C102 O96 1.412 . S
C102 C101 1.383 . S
C102 C103 1.394 1_554 S
C103 H93 0.929 . S
C103 C99 1.377 . S
C103 C102 1.394 1_556 S
Pr104 C106 2.880 . S
Pr104 O124 2.570 . S
Pr104 O125 2.490 . S
Pr104 O126 2.695 1_565 S
Pr104 O127 2.512 . S
Pr104 O129 2.437 . S
Pr104 O132 2.436 1_455 S
Pr104 O134 2.438 1_565 S
Pr105 C115 2.880 . S
Pr105 O126 2.436 1_655 S
Pr105 O128 2.438 1_545 S
Pr105 O130 2.565 1_655 S
Pr105 O131 2.490 . S
Pr105 O132 2.695 1_545 S
Pr105 O133 2.512 . S
Pr105 O135 2.437 . S
C106 Pr104 2.880 . S
C106 C107 1.491 . S
C106 O124 1.272 . S
C106 O125 1.225 . S
C107 C106 1.491 . S
C107 C108 1.392 . S
C107 C112 1.356 . S
C108 C107 1.392 . S
C108 C109 1.368 . S
C108 H136 0.929 . S
C109 C108 1.368 . S
C109 C110 1.386 . S
C109 H137 0.929 . S
C110 C109 1.386 . S
C110 C111 1.373 . S
C111 C110 1.373 . S
C111 C112 1.409 . S
C111 H138 0.931 1_455 S
C112 C107 1.356 . S
C112 C111 1.409 . S
C112 H139 0.930 1_455 S
C113 O126 1.257 1_565 S
C113 O127 1.271 . S
C114 O128 1.267 . S
C114 O129 1.278 1_655 S
C115 Pr105 2.880 . S
C115 C116 1.491 . S
C115 O130 1.259 1_655 S
C115 O131 1.225 . S
C116 C115 1.491 . S
C116 C117 1.392 . S
C116 C121 1.356 . S
C117 C116 1.392 . S
C117 C118 1.368 . S
C117 H140 0.929 . S
C118 C117 1.368 . S
C118 C119 1.386 . S
C118 H141 0.929 . S
C119 C118 1.386 . S
C119 C120 1.373 . S
C120 C119 1.373 . S
C120 C121 1.409 . S
C120 H142 0.931 1_655 S
C121 C116 1.356 . S
C121 C120 1.409 . S
C121 H143 0.930 1_655 S
C122 O132 1.270 1_545 S
C122 O133 1.248 . S
C123 O134 1.267 . S
C123 O135 1.278 1_455 S
O124 Pr104 2.570 . S
O124 C106 1.272 . S
O125 Pr104 2.490 . S
O125 C106 1.225 . S
O126 Pr104 2.695 1_545 S
O126 Pr105 2.436 1_455 S
O126 C113 1.257 1_545 S
O127 Pr104 2.512 . S
O127 C113 1.271 . S
O128 Pr105 2.438 1_565 S
O128 C114 1.267 . S
O129 Pr104 2.437 . S
O129 C114 1.278 1_455 S
O130 Pr105 2.565 1_455 S
O130 C115 1.259 1_455 S
O131 Pr105 2.490 . S
O131 C115 1.225 . S
O132 Pr104 2.436 1_655 S
O132 Pr105 2.695 1_565 S
O132 C122 1.270 1_565 S
O133 Pr105 2.512 . S
O133 C122 1.248 . S
O134 Pr104 2.438 1_545 S
O134 C123 1.267 . S
O135 Pr105 2.437 . S
O135 C123 1.278 1_655 S
H136 C108 0.929 . S
H137 C109 0.929 . S
H138 C111 0.931 1_655 S
H139 C112 0.930 1_655 S
H140 C117 0.929 . S
H141 C118 0.929 . S
H142 C120 0.931 1_455 S
H143 C121 0.930 1_455 S
Pr144 C146 2.880 . S
Pr144 O164 2.571 . S
Pr144 O165 2.490 . S
Pr144 O166 2.695 . S
Pr144 O167 2.512 . S
Pr144 O169 2.437 . S
Pr144 O172 2.436 1_545 S
Pr144 O174 2.438 . S
Pr145 C155 2.880 . S
Pr145 O166 2.436 1_565 S
Pr145 O168 2.438 . S
Pr145 O170 2.564 1_565 S
Pr145 O171 2.490 . S
Pr145 O172 2.695 . S
Pr145 O173 2.512 . S
Pr145 O175 2.437 . S
C146 Pr144 2.880 . S
C146 C147 1.491 . S
C146 O164 1.274 . S
C146 O165 1.225 . S
C147 C146 1.491 . S
C147 C148 1.392 . S
C147 C152 1.356 . S
C148 C147 1.392 . S
C148 C149 1.368 . S
C148 H176 0.929 . S
C149 C148 1.368 . S
C149 C150 1.386 . S
C149 H177 0.929 . S
C150 C149 1.386 . S
C150 C151 1.373 . S
C151 C150 1.373 . S
C151 C152 1.409 . S
C151 H178 0.931 1_545 S
C152 C147 1.356 . S
C152 C151 1.409 . S
C152 H179 0.930 1_545 S
C153 O166 1.270 . S
C153 O167 1.248 . S
C154 O168 1.267 . S
C154 O169 1.278 1_565 S
C155 Pr145 2.880 . S
C155 C156 1.491 . S
C155 O170 1.258 1_565 S
C155 O171 1.225 . S
C156 C155 1.491 . S
C156 C157 1.392 . S
C156 C161 1.356 . S
C157 C156 1.392 . S
C157 C158 1.368 . S
C157 H180 0.929 . S
C158 C157 1.368 . S
C158 C159 1.386 . S
C158 H181 0.929 . S
C159 C158 1.386 . S
C159 C160 1.373 . S
C160 C159 1.373 . S
C160 C161 1.409 . S
C160 H182 0.931 1_565 S
C161 C156 1.356 . S
C161 C160 1.409 . S
C161 H183 0.930 1_565 S
C162 O172 1.270 . S
C162 O173 1.248 . S
C163 O174 1.267 . S
C163 O175 1.278 1_545 S
O164 Pr144 2.571 . S
O164 C146 1.274 . S
O165 Pr144 2.490 . S
O165 C146 1.225 . S
O166 Pr144 2.695 . S
O166 Pr145 2.436 1_545 S
O166 C153 1.270 . S
O167 Pr144 2.512 . S
O167 C153 1.248 . S
O168 Pr145 2.438 . S
O168 C154 1.267 . S
O169 Pr144 2.437 . S
O169 C154 1.278 1_545 S
O170 Pr145 2.564 1_545 S
O170 C155 1.258 1_545 S
O171 Pr145 2.490 . S
O171 C155 1.225 . S
O172 Pr144 2.436 1_565 S
O172 Pr145 2.695 . S
O172 C162 1.270 . S
O173 Pr145 2.512 . S
O173 C162 1.248 . S
O174 Pr144 2.438 . S
O174 C163 1.267 . S
O175 Pr145 2.437 . S
O175 C163 1.278 1_565 S
H176 C148 0.929 . S
H177 C149 0.929 . S
H178 C151 0.931 1_565 S
H179 C152 0.930 1_565 S
H180 C157 0.929 . S
H181 C158 0.929 . S
H182 C160 0.931 1_545 S
H183 C161 0.930 1_545 S
Pr184 C186 2.880 . S
Pr184 O204 2.562 . S
Pr184 O205 2.490 . S
Pr184 O206 2.695 . S
Pr184 O207 2.512 . S
Pr184 O209 2.437 . S
Pr184 O212 2.436 . S
Pr184 O214 2.438 . S
Pr185 C195 2.880 . S
Pr185 O206 2.436 . S
Pr185 O208 2.438 . S
Pr185 O210 2.562 . S
Pr185 O211 2.490 . S
Pr185 O212 2.695 . S
Pr185 O213 2.512 . S
Pr185 O215 2.437 . S
C186 Pr184 2.880 . S
C186 C187 1.491 . S
C186 O204 1.254 . S
C186 O205 1.225 . S
C187 C186 1.491 . S
C187 C188 1.392 . S
C187 C192 1.356 . S
C188 C187 1.392 . S
C188 C189 1.368 . S
C188 H216 0.929 . S
C189 C188 1.368 . S
C189 C190 1.386 . S
C189 H217 0.929 . S
C190 C189 1.386 . S
C190 C191 1.373 . S
C191 C190 1.373 . S
C191 C192 1.409 . S
C191 H218 0.931 . S
C192 C187 1.356 . S
C192 C191 1.409 . S
C192 H219 0.930 . S
C193 O206 1.270 . S
C193 O207 1.248 . S
C194 O208 1.267 . S
C194 O209 1.278 . S
C195 Pr185 2.880 . S
C195 C196 1.491 . S
C195 O210 1.254 . S
C195 O211 1.225 . S
C196 C195 1.491 . S
C196 C197 1.392 . S
C196 C201 1.356 . S
C197 C196 1.392 . S
C197 C198 1.368 . S
C197 H220 0.929 . S
C198 C197 1.368 . S
C198 C199 1.386 . S
C198 H221 0.929 . S
C199 C198 1.386 . S
C199 C200 1.373 . S
C200 C199 1.373 . S
C200 C201 1.409 . S
C200 H222 0.931 . S
C201 C196 1.356 . S
C201 C200 1.409 . S
C201 H223 0.930 . S
C202 O212 1.270 . S
C202 O213 1.248 . S
C203 O214 1.267 . S
C203 O215 1.278 . S
O204 Pr184 2.562 . S
O204 C186 1.254 . S
O205 Pr184 2.490 . S
O205 C186 1.225 . S
O206 Pr184 2.695 . S
O206 Pr185 2.436 . S
O206 C193 1.270 . S
O207 Pr184 2.512 . S
O207 C193 1.248 . S
O208 Pr185 2.438 . S
O208 C194 1.267 . S
O209 Pr184 2.437 . S
O209 C194 1.278 . S
O210 Pr185 2.562 . S
O210 C195 1.254 . S
O211 Pr185 2.490 . S
O211 C195 1.225 . S
O212 Pr184 2.436 . S
O212 Pr185 2.695 . S
O212 C202 1.270 . S
O213 Pr185 2.512 . S
O213 C202 1.248 . S
O214 Pr184 2.438 . S
O214 C203 1.267 . S
O215 Pr185 2.437 . S
O215 C203 1.278 . S
H216 C188 0.929 . S
H217 C189 0.929 . S
H218 C191 0.931 . S
H219 C192 0.930 . S
H220 C197 0.929 . S
H221 C198 0.929 . S
H222 C200 0.931 . S
H223 C201 0.930 . S
Pr224 C226 2.880 . S
Pr224 O244 2.562 . S
Pr224 O245 2.490 . S
Pr224 O246 2.695 1_655 S
Pr224 O247 2.512 . S
Pr224 O249 2.437 . S
Pr224 O252 2.436 . S
Pr224 O254 2.438 1_655 S
Pr225 C235 2.880 . S
Pr225 O246 2.436 . S
Pr225 O248 2.438 1_455 S
Pr225 O250 2.562 . S
Pr225 O251 2.490 . S
Pr225 O252 2.695 1_455 S
Pr225 O253 2.512 . S
Pr225 O255 2.437 . S
C226 Pr224 2.880 . S
C226 C227 1.491 . S
C226 O244 1.254 . S
C226 O245 1.225 . S
C227 C226 1.491 . S
C227 C228 1.392 . S
C227 C232 1.356 . S
C228 C227 1.392 . S
C228 C229 1.368 . S
C228 H256 0.929 . S
C229 C228 1.368 . S
C229 C230 1.386 . S
C229 H257 0.929 . S
C230 C229 1.386 . S
C230 C231 1.373 . S
C231 C230 1.373 . S
C231 C232 1.409 . S
C231 H258 0.931 . S
C232 C227 1.356 . S
C232 C231 1.409 . S
C232 H259 0.930 . S
C233 O246 1.257 1_655 S
C233 O247 1.272 . S
C234 O248 1.267 . S
C234 O249 1.278 . S
C235 Pr225 2.880 . S
C235 C236 1.491 . S
C235 O250 1.254 . S
C235 O251 1.225 . S
C236 C235 1.491 . S
C236 C237 1.392 . S
C236 C241 1.356 . S
C237 C236 1.392 . S
C237 C238 1.368 . S
C237 H260 0.929 . S
C238 C237 1.368 . S
C238 C239 1.386 . S
C238 H261 0.929 . S
C239 C238 1.386 . S
C239 C240 1.373 . S
C240 C239 1.373 . S
C240 C241 1.409 . S
C240 H262 0.931 . S
C241 C236 1.356 . S
C241 C240 1.409 . S
C241 H263 0.930 . S
C242 O252 1.270 1_455 S
C242 O253 1.248 . S
C243 O254 1.267 . S
C243 O255 1.278 . S
O244 Pr224 2.562 . S
O244 C226 1.254 . S
O245 Pr224 2.490 . S
O245 C226 1.225 . S
O246 Pr224 2.695 1_455 S
O246 Pr225 2.436 . S
O246 C233 1.257 1_455 S
O247 Pr224 2.512 . S
O247 C233 1.272 . S
O248 Pr225 2.438 1_655 S
O248 C234 1.267 . S
O249 Pr224 2.437 . S
O249 C234 1.278 . S
O250 Pr225 2.562 . S
O250 C235 1.254 . S
O251 Pr225 2.490 . S
O251 C235 1.225 . S
O252 Pr224 2.436 . S
O252 Pr225 2.695 1_655 S
O252 C242 1.270 1_655 S
O253 Pr225 2.512 . S
O253 C242 1.248 . S
O254 Pr224 2.438 1_455 S
O254 C243 1.267 . S
O255 Pr225 2.437 . S
O255 C243 1.278 . S
H256 C228 0.929 . S
H257 C229 0.929 . S
H258 C231 0.931 . S
H259 C232 0.930 . S
H260 C237 0.929 . S
H261 C238 0.929 . S
H262 C240 0.931 . S
H263 C241 0.930 . S
C264 C265 1.318 1_565 S
C264 C266 1.327 . S
C264 H289 0.950 . S
C265 C264 1.318 1_545 S
C265 C281 1.380 . S
C266 C264 1.327 . S
C266 C285 1.392 1_565 S
C266 H290 0.950 . S
C267 C284 1.574 . S
C267 C286 1.414 . S
C267 H291 0.949 . S
H268 C272 0.949 . S
C269 C270 1.349 . S
C269 C271 1.327 . S
C269 H292 0.950 . S
C270 C269 1.349 . S
C270 C282 1.349 1_545 S
C271 C269 1.327 . S
C271 C287 1.429 . S
C271 H293 0.950 . S
C272 H268 0.949 . S
C272 C280 1.574 . S
C272 C288 1.368 1_565 S
H273 C281 0.950 . S
H274 C279 0.950 . S
H275 C280 0.949 . S
H276 C282 0.950 . S
H277 C283 0.950 . S
H278 C284 0.949 . S
C279 H274 0.950 . S
C279 C281 1.327 . S
C279 C285 1.466 . S
C280 C272 1.574 . S
C280 H275 0.949 . S
C280 C286 1.324 1_565 S
C281 C265 1.380 . S
C281 H273 0.950 . S
C281 C279 1.327 . S
C282 C270 1.349 1_565 S
C282 H276 0.950 . S
C282 C283 1.327 . S
C283 H277 0.950 . S
C283 C282 1.327 . S
C283 C287 1.429 1_565 S
C284 C267 1.574 . S
C284 H278 0.949 . S
C284 C288 1.368 . S
C285 C266 1.392 1_545 S
C285 C279 1.466 . S
C285 C286 1.523 . S
C286 C267 1.414 . S
C286 C280 1.324 1_545 S
C286 C285 1.523 . S
C287 C271 1.429 . S
C287 C283 1.429 1_545 S
C287 C288 1.523 . S
C288 C272 1.368 1_545 S
C288 C284 1.368 . S
C288 C287 1.523 . S
H289 C264 0.950 . S
H290 C266 0.950 . S
H291 C267 0.949 . S
H292 C269 0.950 . S
H293 C271 0.950 . S
C294 C295 1.349 . S
C294 C296 1.327 . S
C294 H319 0.950 . S
C295 C294 1.349 . S
C295 C311 1.349 . S
C296 C294 1.327 . S
C296 C315 1.429 . S
C296 H320 0.950 . S
C297 C314 1.574 . S
C297 C316 1.368 . S
C297 H321 0.949 . S
H298 C302 0.949 . S
C299 C300 1.349 . S
C299 C301 1.327 . S
C299 H322 0.950 . S
C300 C299 1.349 . S
C300 C312 1.349 . S
C301 C299 1.327 . S
C301 C317 1.429 . S
C301 H323 0.950 . S
C302 H298 0.949 . S
C302 C310 1.574 . S
C302 C318 1.368 . S
H303 C311 0.950 . S
H304 C309 0.950 . S
H305 C310 0.949 . S
H306 C312 0.950 . S
H307 C313 0.950 . S
H308 C314 0.949 . S
C309 H304 0.950 . S
C309 C311 1.327 . S
C309 C315 1.429 . S
C310 C302 1.574 . S
C310 H305 0.949 . S
C310 C316 1.368 . S
C311 C295 1.349 . S
C311 H303 0.950 . S
C311 C309 1.327 . S
C312 C300 1.349 . S
C312 H306 0.950 . S
C312 C313 1.327 . S
C313 H307 0.950 . S
C313 C312 1.327 . S
C313 C317 1.429 . S
C314 C297 1.574 . S
C314 H308 0.949 . S
C314 C318 1.368 . S
C315 C296 1.429 . S
C315 C309 1.429 . S
C315 C316 1.523 . S
C316 C297 1.368 . S
C316 C310 1.368 . S
C316 C315 1.523 . S
C317 C301 1.429 . S
C317 C313 1.429 . S
C317 C318 1.523 . S
C318 C302 1.368 . S
C318 C314 1.368 . S
C318 C317 1.523 . S
H319 C294 0.950 . S
H320 C296 0.950 . S
H321 C297 0.949 . S
H322 C299 0.950 . S
H323 C301 0.950 . S
C324 C325 1.349 . S
C324 C326 1.327 . S
C324 H349 0.950 . S
C325 C324 1.349 . S
C325 C341 1.349 . S
C326 C324 1.327 . S
C326 C345 1.429 . S
C326 H350 0.950 . S
C327 C344 1.574 . S
C327 C346 1.368 . S
C327 H351 0.949 . S
H328 C332 0.949 . S
C329 C330 1.349 . S
C329 C331 1.327 . S
C329 H352 0.950 . S
C330 C329 1.349 . S
C330 C342 1.349 . S
C331 C329 1.327 . S
C331 C347 1.429 . S
C331 H353 0.950 . S
C332 H328 0.949 . S
C332 C340 1.574 . S
C332 C348 1.368 . S
H333 C341 0.950 . S
H334 C339 0.950 . S
H335 C340 0.949 . S
H336 C342 0.950 . S
H337 C343 0.950 . S
H338 C344 0.949 . S
C339 H334 0.950 . S
C339 C341 1.327 . S
C339 C345 1.429 . S
C340 C332 1.574 . S
C340 H335 0.949 . S
C340 C346 1.368 . S
C341 C325 1.349 . S
C341 H333 0.950 . S
C341 C339 1.327 . S
C342 C330 1.349 . S
C342 H336 0.950 . S
C342 C343 1.327 . S
C343 H337 0.950 . S
C343 C342 1.327 . S
C343 C347 1.429 . S
C344 C327 1.574 . S
C344 H338 0.949 . S
C344 C348 1.368 . S
C345 C326 1.429 . S
C345 C339 1.429 . S
C345 C346 1.523 . S
C346 C327 1.368 . S
C346 C340 1.368 . S
C346 C345 1.523 . S
C347 C331 1.429 . S
C347 C343 1.429 . S
C347 C348 1.523 . S
C348 C332 1.368 . S
C348 C344 1.368 . S
C348 C347 1.523 . S
H349 C324 0.950 . S
H350 C326 0.950 . S
H351 C327 0.949 . S
H352 C329 0.950 . S
H353 C331 0.950 . S
C354 C355 1.311 1_655 S
C354 C356 1.327 . S
C354 H379 0.950 . S
C355 C354 1.311 1_455 S
C355 C371 1.387 . S
C356 C354 1.327 . S
C356 C375 1.384 1_655 S
C356 H380 0.950 . S
C357 C374 1.574 . S
C357 C376 1.423 . S
C357 H381 0.949 . S
H358 C362 0.949 . S
C359 C360 1.349 . S
C359 C361 1.327 . S
C359 H382 0.950 . S
C360 C359 1.349 . S
C360 C372 1.349 1_455 S
C361 C359 1.327 . S
C361 C377 1.429 . S
C361 H383 0.950 . S
C362 H358 0.949 . S
C362 C370 1.574 . S
C362 C378 1.368 1_655 S
H363 C371 0.950 . S
H364 C369 0.950 . S
H365 C370 0.949 . S
H366 C372 0.950 . S
H367 C373 0.950 . S
H368 C374 0.949 . S
C369 H364 0.950 . S
C369 C371 1.327 . S
C369 C375 1.474 . S
C370 C362 1.574 . S
C370 H365 0.949 . S
C370 C376 1.314 1_655 S
C371 C355 1.387 . S
C371 H363 0.950 . S
C371 C369 1.327 . S
C372 C360 1.349 1_655 S
C372 H366 0.950 . S
C372 C373 1.327 . S
C373 H367 0.950 . S
C373 C372 1.327 . S
C373 C377 1.429 1_655 S
C374 C357 1.574 . S
C374 H368 0.949 . S
C374 C378 1.368 . S
C375 C356 1.384 1_455 S
C375 C369 1.474 . S
C375 C376 1.523 . S
C376 C357 1.423 . S
C376 C370 1.314 1_455 S
C376 C375 1.523 . S
C377 C361 1.429 . S
C377 C373 1.429 1_455 S
C377 C378 1.523 . S
C378 C362 1.368 1_455 S
C378 C374 1.368 . S
C378 C377 1.523 . S
H379 C354 0.950 . S
H380 C356 0.950 . S
H381 C357 0.949 . S
H382 C359 0.950 . S
H383 C361 0.950 . S
C384 C385 1.339 1_545 S
C384 C386 1.327 . S
C384 H409 0.950 . S
C385 C384 1.339 1_565 S
C385 C401 1.358 . S
C386 C384 1.327 . S
C386 C405 1.412 1_545 S
C386 H410 0.950 . S
C387 C404 1.574 1_554 S
C387 C406 1.391 . S
C387 H411 0.949 . S
H388 C392 0.949 . S
C389 C390 1.388 . S
C389 C391 1.327 . S
C389 H412 0.950 . S
C390 C389 1.388 . S
C390 C402 1.310 1_565 S
C391 C389 1.327 . S
C391 C407 1.460 . S
C391 H413 0.950 . S
C392 H388 0.949 . S
C392 C400 1.574 . S
C392 C408 1.339 1_544 S
H393 C401 0.950 . S
H394 C399 0.950 . S
H395 C400 0.949 . S
H396 C402 0.950 . S
H397 C403 0.950 . S
H398 C404 0.949 . S
C399 H394 0.950 . S
C399 C401 1.327 . S
C399 C405 1.445 . S
C400 C392 1.574 . S
C400 H395 0.949 . S
C400 C406 1.346 1_545 S
C401 C385 1.358 . S
C401 H393 0.950 . S
C401 C399 1.327 . S
C402 C390 1.310 1_545 S
C402 H396 0.950 . S
C402 C403 1.327 . S
C403 H397 0.950 . S
C403 C402 1.327 . S
C403 C407 1.398 1_545 S
C404 C387 1.574 1_556 S
C404 H398 0.949 . S
C404 C408 1.398 . S
C405 C386 1.412 1_565 S
C405 C399 1.445 . S
C405 C406 1.523 . S
C406 C387 1.391 . S
C406 C400 1.346 1_565 S
C406 C405 1.523 . S
C407 C391 1.460 . S
C407 C403 1.398 1_565 S
C407 C408 1.523 . S
C408 C392 1.339 1_566 S
C408 C404 1.398 . S
C408 C407 1.523 . S
H409 C384 0.950 . S
H410 C386 0.950 . S
H411 C387 0.949 . S
H412 C389 0.950 . S
H413 C391 0.950 . S
C414 C415 1.349 . S
C414 C416 1.327 . S
C414 H439 0.950 . S
C415 C414 1.349 . S
C415 C431 1.349 . S
C416 C414 1.327 . S
C416 C435 1.429 . S
C416 H440 0.950 . S
C417 C434 1.574 . S
C417 C436 1.368 . S
C417 H441 0.949 . S
H418 C422 0.949 . S
C419 C420 1.349 . S
C419 C421 1.327 . S
C419 H442 0.950 . S
C420 C419 1.349 . S
C420 C432 1.349 . S
C421 C419 1.327 . S
C421 C437 1.429 . S
C421 H443 0.950 . S
C422 H418 0.949 . S
C422 C430 1.574 1_556 S
C422 C438 1.368 . S
H423 C431 0.950 . S
H424 C429 0.950 . S
H425 C430 0.949 . S
H426 C432 0.950 . S
H427 C433 0.950 . S
H428 C434 0.949 . S
C429 H424 0.950 . S
C429 C431 1.327 . S
C429 C435 1.429 . S
C430 C422 1.574 1_554 S
C430 H425 0.949 . S
C430 C436 1.368 . S
C431 C415 1.349 . S
C431 H423 0.950 . S
C431 C429 1.327 . S
C432 C420 1.349 . S
C432 H426 0.950 . S
C432 C433 1.327 . S
C433 H427 0.950 . S
C433 C432 1.327 . S
C433 C437 1.429 . S
C434 C417 1.574 . S
C434 H428 0.949 . S
C434 C438 1.368 1_554 S
C435 C416 1.429 . S
C435 C429 1.429 . S
C435 C436 1.523 . S
C436 C417 1.368 . S
C436 C430 1.368 . S
C436 C435 1.523 . S
C437 C421 1.429 . S
C437 C433 1.429 . S
C437 C438 1.523 . S
C438 C422 1.368 . S
C438 C434 1.368 1_556 S
C438 C437 1.523 . S
H439 C414 0.950 . S
H440 C416 0.950 . S
H441 C417 0.949 . S
H442 C419 0.950 . S
H443 C421 0.950 . S
C444 C445 1.349 . S
C444 C446 1.327 . S
C444 H469 0.950 . S
C445 C444 1.349 . S
C445 C461 1.349 . S
C446 C444 1.327 . S
C446 C465 1.429 . S
C446 H470 0.950 . S
C447 C464 1.574 . S
C447 C466 1.368 . S
C447 H471 0.949 . S
H448 C452 0.949 . S
C449 C450 1.349 . S
C449 C451 1.327 . S
C449 H472 0.950 . S
C450 C449 1.349 . S
C450 C462 1.349 . S
C451 C449 1.327 . S
C451 C467 1.429 . S
C451 H473 0.950 . S
C452 H448 0.949 . S
C452 C460 1.574 1_556 S
C452 C468 1.368 . S
H453 C461 0.950 . S
H454 C459 0.950 . S
H455 C460 0.949 . S
H456 C462 0.950 . S
H457 C463 0.950 . S
H458 C464 0.949 . S
C459 H454 0.950 . S
C459 C461 1.327 . S
C459 C465 1.429 . S
C460 C452 1.574 1_554 S
C460 H455 0.949 . S
C460 C466 1.368 . S
C461 C445 1.349 . S
C461 H453 0.950 . S
C461 C459 1.327 . S
C462 C450 1.349 . S
C462 H456 0.950 . S
C462 C463 1.327 . S
C463 H457 0.950 . S
C463 C462 1.327 . S
C463 C467 1.429 . S
C464 C447 1.574 . S
C464 H458 0.949 . S
C464 C468 1.368 1_554 S
C465 C446 1.429 . S
C465 C459 1.429 . S
C465 C466 1.523 . S
C466 C447 1.368 . S
C466 C460 1.368 . S
C466 C465 1.523 . S
C467 C451 1.429 . S
C467 C463 1.429 . S
C467 C468 1.523 . S
C468 C452 1.368 . S
C468 C464 1.368 1_556 S
C468 C467 1.523 . S
H469 C444 0.950 . S
H470 C446 0.950 . S
H471 C447 0.949 . S
H472 C449 0.950 . S
H473 C451 0.950 . S
C474 C475 1.337 1_455 S
C474 C476 1.327 . S
C474 H499 0.950 . S
C475 C474 1.337 1_655 S
C475 C491 1.361 . S
C476 C474 1.327 . S
C476 C495 1.410 1_455 S
C476 H500 0.950 . S
C477 C494 1.574 . S
C477 C496 1.393 . S
C477 H501 0.949 . S
H478 C482 0.949 . S
C479 C480 1.391 . S
C479 C481 1.327 . S
C479 H502 0.950 . S
C480 C479 1.391 . S
C480 C492 1.308 1_655 S
C481 C479 1.327 . S
C481 C497 1.462 . S
C481 H503 0.950 . S
C482 H478 0.949 . S
C482 C490 1.574 1_556 S
C482 C498 1.336 1_455 S
H483 C491 0.950 . S
H484 C489 0.950 . S
H485 C490 0.949 . S
H486 C492 0.950 . S
H487 C493 0.950 . S
H488 C494 0.949 . S
C489 H484 0.950 . S
C489 C491 1.327 . S
C489 C495 1.447 . S
C490 C482 1.574 1_554 S
C490 H485 0.949 . S
C490 C496 1.344 1_455 S
C491 C475 1.361 . S
C491 H483 0.950 . S
C491 C489 1.327 . S
C492 C480 1.308 1_455 S
C492 H486 0.950 . S
C492 C493 1.327 . S
C493 H487 0.950 . S
C493 C492 1.327 . S
C493 C497 1.396 1_455 S
C494 C477 1.574 . S
C494 H488 0.949 . S
C494 C498 1.401 1_554 S
C495 C476 1.410 1_655 S
C495 C489 1.447 . S
C495 C496 1.523 . S
C496 C477 1.393 . S
C496 C490 1.344 1_655 S
C496 C495 1.523 . S
C497 C481 1.462 . S
C497 C493 1.396 1_655 S
C497 C498 1.523 . S
C498 C482 1.336 1_655 S
C498 C494 1.401 1_556 S
C498 C497 1.523 . S
H499 C474 0.950 . S
H500 C476 0.950 . S
H501 C477 0.949 . S
H502 C479 0.950 . S
H503 C481 0.950 . S
C504 C505 1.349 . S
C504 C506 1.327 . S
C504 H529 0.950 . S
C505 C504 1.349 . S
C505 C521 1.349 1_455 S
C506 C504 1.327 . S
C506 C525 1.429 1_455 S
C506 H530 0.950 . S
C507 C524 1.574 . S
C507 C526 1.368 . S
C507 H531 0.949 . S
H508 C512 0.949 . S
C509 C510 1.349 . S
C509 C511 1.327 . S
C509 H532 0.950 . S
C510 C509 1.349 . S
C510 C522 1.349 . S
C511 C509 1.327 . S
C511 C527 1.429 . S
C511 H533 0.950 . S
C512 H508 0.949 . S
C512 C520 1.574 . S
C512 C528 1.368 1_455 S
H513 C521 0.950 . S
H514 C519 0.950 . S
H515 C520 0.949 . S
H516 C522 0.969 . S
H517 C523 0.950 1_455 S
H518 C524 0.949 . S
C519 H514 0.950 . S
C519 C521 1.327 . S
C519 C525 1.429 . S
C520 C512 1.574 . S
C520 H515 0.949 . S
C520 C526 1.368 1_455 S
C521 C505 1.349 1_655 S
C521 H513 0.950 . S
C521 C519 1.327 . S
C522 C510 1.349 . S
C522 H516 0.969 . S
C522 C523 1.327 . S
C523 H517 0.950 1_655 S
C523 C522 1.327 . S
C523 C527 1.429 . S
C524 C507 1.574 . S
C524 H518 0.949 . S
C524 C528 1.368 . S
C525 C506 1.429 1_655 S
C525 C519 1.429 . S
C525 C526 1.523 . S
C526 C507 1.368 . S
C526 C520 1.368 1_655 S
C526 C525 1.523 . S
C527 C511 1.429 . S
C527 C523 1.429 . S
C527 C528 1.523 . S
C528 C512 1.368 1_655 S
C528 C524 1.368 . S
C528 C527 1.523 . S
H529 C504 0.950 . S
H530 C506 0.950 . S
H531 C507 0.949 . S
H532 C509 0.950 . S
H533 C511 0.950 . S
C534 C535 1.349 1_565 S
C534 C536 1.327 . S
C534 H559 0.950 . S
C535 C534 1.349 1_545 S
C535 C551 1.349 . S
C536 C534 1.327 . S
C536 C555 1.429 . S
C536 H560 0.950 . S
C537 C554 1.574 . S
C537 C556 1.368 . S
C537 H561 0.949 . S
H538 C542 0.949 . S
C539 C540 1.349 . S
C539 C541 1.327 . S
C539 H562 0.950 . S
C540 C539 1.349 . S
C540 C552 1.349 . S
C541 C539 1.327 . S
C541 C557 1.429 . S
C541 H563 0.950 . S
C542 H538 0.949 . S
C542 C550 1.574 . S
C542 C558 1.368 . S
H543 C551 0.950 . S
H544 C549 0.949 . S
H545 C550 0.949 . S
H546 C552 0.950 . S
H547 C553 0.950 . S
H548 C554 0.949 . S
C549 H544 0.949 . S
C549 C551 1.326 . S
C549 C555 1.430 1_545 S
C550 C542 1.574 . S
C550 H545 0.949 . S
C550 C556 1.368 . S
C551 C535 1.349 . S
C551 H543 0.950 . S
C551 C549 1.326 . S
C552 C540 1.349 . S
C552 H546 0.950 . S
C552 C553 1.327 . S
C553 H547 0.950 . S
C553 C552 1.327 . S
C553 C557 1.429 . S
C554 C537 1.574 . S
C554 H548 0.949 . S
C554 C558 1.368 . S
C555 C536 1.429 . S
C555 C549 1.430 1_565 S
C555 C556 1.523 . S
C556 C537 1.368 . S
C556 C550 1.368 . S
C556 C555 1.523 . S
C557 C541 1.429 . S
C557 C553 1.429 . S
C557 C558 1.523 . S
C558 C542 1.368 . S
C558 C554 1.368 . S
C558 C557 1.523 . S
H559 C534 0.950 . S
H560 C536 0.950 . S
H561 C537 0.949 . S
H562 C539 0.950 . S
H563 C541 0.950 . S
C564 C565 1.349 . S
C564 C566 1.327 . S
C564 H589 0.950 . S
C565 C564 1.349 . S
C565 C581 1.349 . S
C566 C564 1.327 . S
C566 C585 1.429 . S
C566 H590 0.950 . S
C567 C584 1.574 . S
C567 C586 1.368 . S
C567 H591 0.949 . S
H568 C572 0.949 . S
C569 C570 1.349 . S
C569 C571 1.327 . S
C569 H592 0.950 . S
C570 C569 1.349 . S
C570 C582 1.349 . S
C571 C569 1.327 . S
C571 C587 1.429 . S
C571 H593 0.950 . S
C572 H568 0.949 . S
C572 C580 1.574 . S
C572 C588 1.368 . S
H573 C581 0.950 . S
H574 C579 0.950 . S
H575 C580 0.949 . S
H576 C582 0.950 . S
H577 C583 0.950 . S
H578 C584 0.949 . S
C579 H574 0.950 . S
C579 C581 1.327 . S
C579 C585 1.429 . S
C580 C572 1.574 . S
C580 H575 0.949 . S
C580 C586 1.368 . S
C581 C565 1.349 . S
C581 H573 0.950 . S
C581 C579 1.327 . S
C582 C570 1.349 . S
C582 H576 0.950 . S
C582 C583 1.327 . S
C583 H577 0.950 . S
C583 C582 1.327 . S
C583 C587 1.429 . S
C584 C567 1.574 . S
C584 H578 0.949 . S
C584 C588 1.368 . S
C585 C566 1.429 . S
C585 C579 1.429 . S
C585 C586 1.523 . S
C586 C567 1.368 . S
C586 C580 1.368 . S
C586 C585 1.523 . S
C587 C571 1.429 . S
C587 C583 1.429 . S
C587 C588 1.523 . S
C588 C572 1.368 . S
C588 C584 1.368 . S
C588 C587 1.523 . S
H589 C564 0.950 . S
H590 C566 0.950 . S
H591 C567 0.949 . S
H592 C569 0.950 . S
H593 C571 0.950 . S
C594 C595 1.349 . S
C594 C596 1.327 . S
C594 H619 0.950 . S
C595 C594 1.349 . S
C595 C611 1.349 . S
C596 C594 1.327 . S
C596 C615 1.429 . S
C596 H620 0.950 . S
C597 C614 1.574 . S
C597 C616 1.368 . S
C597 H621 0.949 . S
H598 C602 0.949 . S
C599 C600 1.349 . S
C599 C601 1.327 . S
C599 H622 0.950 . S
C600 C599 1.349 . S
C600 C612 1.349 . S
C601 C599 1.327 . S
C601 C617 1.429 . S
C601 H623 0.950 . S
C602 H598 0.949 . S
C602 C610 1.574 . S
C602 C618 1.368 . S
H603 C611 0.950 . S
H604 C609 0.950 . S
H605 C610 0.949 . S
H606 C612 0.950 . S
H607 C613 0.950 . S
H608 C614 0.949 . S
C609 H604 0.950 . S
C609 C611 1.327 . S
C609 C615 1.429 . S
C610 C602 1.574 . S
C610 H605 0.949 . S
C610 C616 1.368 . S
C611 C595 1.349 . S
C611 H603 0.950 . S
C611 C609 1.327 . S
C612 C600 1.349 . S
C612 H606 0.950 . S
C612 C613 1.327 . S
C613 H607 0.950 . S
C613 C612 1.327 . S
C613 C617 1.429 . S
C614 C597 1.574 . S
C614 H608 0.949 . S
C614 C618 1.368 . S
C615 C596 1.429 . S
C615 C609 1.429 . S
C615 C616 1.523 . S
C616 C597 1.368 . S
C616 C610 1.368 . S
C616 C615 1.523 . S
C617 C601 1.429 . S
C617 C613 1.429 . S
C617 C618 1.523 . S
C618 C602 1.368 . S
C618 C614 1.368 . S
C618 C617 1.523 . S
H619 C594 0.950 . S
H620 C596 0.950 . S
H621 C597 0.949 . S
H622 C599 0.950 . S
H623 C601 0.950 . S
C624 C625 1.349 . S
C624 C626 1.327 . S
C624 H649 0.950 . S
C625 C624 1.349 . S
C625 C641 1.349 1_655 S
C626 C624 1.327 . S
C626 C645 1.429 1_655 S
C626 H650 0.950 . S
C627 C644 1.574 . S
C627 C646 1.368 . S
C627 H651 0.949 . S
H628 C632 0.949 . S
C629 C630 1.349 1_554 S
C629 C631 1.327 . S
C629 H652 0.950 . S
C630 C629 1.349 1_556 S
C630 C642 1.349 . S
C631 C629 1.327 . S
C631 C647 1.429 . S
C631 H653 0.950 . S
C632 H628 0.949 . S
C632 C640 1.574 . S
C632 C648 1.368 . S
H633 C641 0.950 . S
H634 C639 0.950 . S
H635 C640 0.949 1_655 S
H636 C642 0.950 . S
H637 C643 0.950 . S
H638 C644 0.949 . S
C639 H634 0.950 . S
C639 C641 1.327 . S
C639 C645 1.429 . S
C640 C632 1.574 . S
C640 H635 0.949 1_455 S
C640 C646 1.368 . S
C641 C625 1.349 1_455 S
C641 H633 0.950 . S
C641 C639 1.327 . S
C642 C630 1.349 . S
C642 H636 0.950 . S
C642 C643 1.327 . S
C643 H637 0.950 . S
C643 C642 1.327 . S
C643 C647 1.429 1_556 S
C644 C627 1.574 . S
C644 H638 0.949 . S
C644 C648 1.368 . S
C645 C626 1.429 1_455 S
C645 C639 1.429 . S
C645 C646 1.523 . S
C646 C627 1.368 . S
C646 C640 1.368 . S
C646 C645 1.523 . S
C647 C631 1.429 . S
C647 C643 1.429 1_554 S
C647 C648 1.523 . S
C648 C632 1.368 . S
C648 C644 1.368 . S
C648 C647 1.523 . S
H649 C624 0.950 . S
H650 C626 0.950 . S
H651 C627 0.949 . S
H652 C629 0.950 . S
H653 C631 0.950 . S
C654 C655 1.349 . S
C654 C656 1.327 . S
C654 H679 0.950 . S
C655 C654 1.349 . S
C655 C671 1.349 1_565 S
C656 C654 1.327 . S
C656 C675 1.429 1_565 S
C656 H680 0.950 . S
C657 C674 1.574 . S
C657 C676 1.368 . S
C657 H681 0.949 . S
H658 C662 0.973 . S
C659 C660 1.349 . S
C659 C661 1.327 1_556 S
C659 H682 0.950 . S
C660 C659 1.349 . S
C660 C672 1.349 1_556 S
C661 C659 1.327 1_554 S
C661 C677 1.429 . S
C661 H683 0.951 . S
C662 H658 0.973 . S
C662 C670 1.581 . S
C662 C678 1.336 1_565 S
H663 C671 0.950 . S
H664 C669 0.950 . S
H665 C670 0.949 . S
H666 C672 0.950 . S
H667 C673 0.950 1_565 S
H668 C674 0.949 . S
C669 H664 0.950 . S
C669 C671 1.327 . S
C669 C675 1.429 . S
C670 C662 1.581 . S
C670 H665 0.949 . S
C670 C676 1.368 1_565 S
C671 C655 1.349 1_545 S
C671 H663 0.950 . S
C671 C669 1.327 . S
C672 C660 1.349 1_554 S
C672 H666 0.950 . S
C672 C673 1.327 . S
C673 H667 0.950 1_545 S
C673 C672 1.327 . S
C673 C677 1.429 . S
C674 C657 1.574 . S
C674 H668 0.949 . S
C674 C678 1.368 . S
C675 C656 1.429 1_545 S
C675 C669 1.429 . S
C675 C676 1.523 . S
C676 C657 1.368 . S
C676 C670 1.368 1_545 S
C676 C675 1.523 . S
C677 C661 1.429 . S
C677 C673 1.429 . S
C677 C678 1.523 . S
C678 C662 1.336 1_545 S
C678 C674 1.368 . S
C678 C677 1.523 . S
H679 C654 0.950 . S
H680 C656 0.950 . S
H681 C657 0.949 . S
H682 C659 0.950 . S
H683 C661 0.951 . S
C684 C685 1.349 . S
C684 C686 1.327 . S
C684 H709 0.950 . S
C685 C684 1.349 . S
C685 C701 1.349 . S
C686 C684 1.327 . S
C686 C705 1.429 . S
C686 H710 0.950 . S
C687 C704 1.574 . S
C687 C706 1.368 . S
C687 H711 0.949 . S
H688 C692 0.949 . S
C689 C690 1.349 . S
C689 C691 1.327 . S
C689 H712 0.950 . S
C690 C689 1.349 . S
C690 C702 1.349 1_556 S
C691 C689 1.327 . S
C691 C707 1.429 1_556 S
C691 H713 0.950 . S
C692 H688 0.949 . S
C692 C700 1.574 . S
C692 C708 1.368 . S
H693 C701 0.950 . S
H694 C699 0.950 . S
H695 C700 0.949 . S
H696 C702 0.950 . S
H697 C703 0.950 . S
H698 C704 0.949 . S
C699 H694 0.950 . S
C699 C701 1.327 . S
C699 C705 1.429 . S
C700 C692 1.574 . S
C700 H695 0.949 . S
C700 C706 1.368 . S
C701 C685 1.349 . S
C701 H693 0.950 . S
C701 C699 1.327 . S
C702 C690 1.349 1_554 S
C702 H696 0.950 . S
C702 C703 1.327 . S
C703 H697 0.950 . S
C703 C702 1.327 . S
C703 C707 1.429 . S
C704 C687 1.574 . S
C704 H698 0.949 . S
C704 C708 1.368 . S
C705 C686 1.429 . S
C705 C699 1.429 . S
C705 C706 1.523 . S
C706 C687 1.368 . S
C706 C700 1.368 . S
C706 C705 1.523 . S
C707 C691 1.429 1_554 S
C707 C703 1.429 . S
C707 C708 1.523 . S
C708 C692 1.368 . S
C708 C704 1.368 . S
C708 C707 1.523 . S
H709 C684 0.950 . S
H710 C686 0.950 . S
H711 C687 0.949 . S
H712 C689 0.950 . S
H713 C691 0.950 . S
C714 C715 1.349 . S
C714 C716 1.327 . S
C714 H739 0.950 . S
C715 C714 1.349 . S
C715 C731 1.349 . S
C716 C714 1.327 . S
C716 C735 1.429 . S
C716 H740 0.950 . S
C717 C734 1.574 . S
C717 C736 1.368 . S
C717 H741 0.949 . S
H718 C722 0.949 . S
C719 C720 1.349 1_554 S
C719 C721 1.327 . S
C719 H742 0.950 . S
C720 C719 1.349 1_556 S
C720 C732 1.349 . S
C721 C719 1.327 . S
C721 C737 1.429 . S
C721 H743 0.950 . S
C722 H718 0.949 . S
C722 C730 1.574 . S
C722 C738 1.368 . S
H723 C731 0.950 . S
H724 C729 0.950 . S
H725 C730 0.949 . S
H726 C732 0.950 . S
H727 C733 0.950 . S
H728 C734 0.949 . S
C729 H724 0.950 . S
C729 C731 1.327 . S
C729 C735 1.429 . S
C730 C722 1.574 . S
C730 H725 0.949 . S
C730 C736 1.368 . S
C731 C715 1.349 . S
C731 H723 0.950 . S
C731 C729 1.327 . S
C732 C720 1.349 . S
C732 H726 0.950 . S
C732 C733 1.327 1_556 S
C733 H727 0.950 . S
C733 C732 1.327 1_554 S
C733 C737 1.429 . S
C734 C717 1.574 . S
C734 H728 0.949 . S
C734 C738 1.368 . S
C735 C716 1.429 . S
C735 C729 1.429 . S
C735 C736 1.523 . S
C736 C717 1.368 . S
C736 C730 1.368 . S
C736 C735 1.523 . S
C737 C721 1.429 . S
C737 C733 1.429 . S
C737 C738 1.523 . S
C738 C722 1.368 . S
C738 C734 1.368 . S
C738 C737 1.523 . S
H739 C714 0.950 . S
H740 C716 0.950 . S
H741 C717 0.949 . S
H742 C719 0.950 . S
H743 C721 0.950 . S
C744 C745 1.349 1_655 S
C744 C746 1.327 . S
C744 H769 0.950 . S
C745 C744 1.349 1_455 S
C745 C761 1.349 . S
C746 C744 1.327 . S
C746 C765 1.429 1_655 S
C746 H770 0.950 . S
C747 C764 1.574 . S
C747 C766 1.368 . S
C747 H771 0.949 . S
H748 C752 0.949 . S
C749 C750 1.349 . S
C749 C751 1.327 . S
C749 H772 0.950 . S
C750 C749 1.349 . S
C750 C762 1.330 1_455 S
C751 C749 1.327 . S
C751 C767 1.429 . S
C751 H773 0.950 . S
C752 H748 0.949 . S
C752 C760 1.574 . S
C752 C768 1.368 1_655 S
H753 C761 0.950 . S
H754 C759 0.950 . S
H755 C760 0.949 . S
H756 C762 0.968 . S
H757 C763 0.950 . S
H758 C764 0.949 . S
C759 H754 0.950 . S
C759 C761 1.327 . S
C759 C765 1.429 . S
C760 C752 1.574 . S
C760 H755 0.949 . S
C760 C766 1.368 1_655 S
C761 C745 1.349 . S
C761 H753 0.950 . S
C761 C759 1.327 . S
C762 C750 1.330 1_655 S
C762 H756 0.968 . S
C762 C763 1.330 . S
C763 H757 0.950 . S
C763 C762 1.330 . S
C763 C767 1.429 1_655 S
C764 C747 1.574 . S
C764 H758 0.949 . S
C764 C768 1.368 . S
C765 C746 1.429 1_455 S
C765 C759 1.429 . S
C765 C766 1.523 . S
C766 C747 1.368 . S
C766 C760 1.368 1_455 S
C766 C765 1.523 . S
C767 C751 1.429 . S
C767 C763 1.429 1_455 S
C767 C768 1.523 . S
C768 C752 1.368 1_455 S
C768 C764 1.368 . S
C768 C767 1.523 . S
H769 C744 0.950 . S
H770 C746 0.950 . S
H771 C747 0.949 . S
H772 C749 0.950 . S
H773 C751 0.950 . S
C774 C775 1.349 1_565 S
C774 C776 1.327 . S
C774 H799 0.950 . S
C775 C774 1.349 1_545 S
C775 C791 1.349 . S
C776 C774 1.327 . S
C776 C795 1.429 1_565 S
C776 H800 0.950 . S
C777 C794 1.574 . S
C777 C796 1.368 . S
C777 H801 0.949 . S
H778 C782 0.949 . S
C779 C780 1.349 . S
C779 C781 1.327 . S
C779 H802 0.950 . S
C780 C779 1.349 . S
C780 C792 1.349 1_545 S
C781 C779 1.327 . S
C781 C797 1.429 . S
C781 H803 0.950 . S
C782 H778 0.949 . S
C782 C790 1.574 . S
C782 C798 1.368 1_565 S
H783 C791 0.950 . S
H784 C789 0.950 . S
H785 C790 0.949 . S
H786 C792 0.950 . S
H787 C793 0.950 . S
H788 C794 0.949 . S
C789 H784 0.950 . S
C789 C791 1.327 . S
C789 C795 1.429 . S
C790 C782 1.574 . S
C790 H785 0.949 . S
C790 C796 1.368 1_565 S
C791 C775 1.349 . S
C791 H783 0.950 . S
C791 C789 1.327 . S
C792 C780 1.349 1_565 S
C792 H786 0.950 . S
C792 C793 1.327 . S
C793 H787 0.950 . S
C793 C792 1.327 . S
C793 C797 1.429 1_565 S
C794 C777 1.574 . S
C794 H788 0.949 . S
C794 C798 1.368 . S
C795 C776 1.429 1_545 S
C795 C789 1.429 . S
C795 C796 1.523 . S
C796 C777 1.368 . S
C796 C790 1.368 1_545 S
C796 C795 1.523 . S
C797 C781 1.429 . S
C797 C793 1.429 1_545 S
C797 C798 1.523 . S
C798 C782 1.368 1_545 S
C798 C794 1.368 . S
C798 C797 1.523 . S
H799 C774 0.950 . S
H800 C776 0.950 . S
H801 C777 0.949 . S
H802 C779 0.950 . S
H803 C781 0.950 . S
C804 C805 1.349 . S
C804 C806 1.327 . S
C804 H829 0.950 . S
C805 C804 1.349 . S
C805 C821 1.349 . S
C806 C804 1.327 . S
C806 C825 1.429 . S
C806 H830 0.950 . S
C807 C824 1.574 . S
C807 C826 1.368 . S
C807 H831 0.949 . S
H808 C812 0.949 . S
C809 C810 1.349 . S
C809 C811 1.327 . S
C809 H832 0.950 . S
C810 C809 1.349 . S
C810 C822 1.349 . S
C811 C809 1.327 . S
C811 C827 1.429 . S
C811 H833 0.950 . S
C812 H808 0.949 . S
C812 C820 1.574 . S
C812 C828 1.368 . S
H813 C821 0.950 . S
H814 C819 0.950 . S
H815 C820 0.949 . S
H816 C822 0.950 . S
H817 C823 0.950 . S
H818 C824 0.949 . S
C819 H814 0.950 . S
C819 C821 1.327 . S
C819 C825 1.429 . S
C820 C812 1.574 . S
C820 H815 0.949 . S
C820 C826 1.368 . S
C821 C805 1.349 . S
C821 H813 0.950 . S
C821 C819 1.327 . S
C822 C810 1.349 . S
C822 H816 0.950 . S
C822 C823 1.327 . S
C823 H817 0.950 . S
C823 C822 1.327 . S
C823 C827 1.429 . S
C824 C807 1.574 . S
C824 H818 0.949 . S
C824 C828 1.368 . S
C825 C806 1.429 . S
C825 C819 1.429 . S
C825 C826 1.523 . S
C826 C807 1.368 . S
C826 C820 1.368 . S
C826 C825 1.523 . S
C827 C811 1.429 . S
C827 C823 1.429 . S
C827 C828 1.523 . S
C828 C812 1.368 . S
C828 C824 1.368 . S
C828 C827 1.523 . S
H829 C804 0.950 . S
H830 C806 0.950 . S
H831 C807 0.949 . S
H832 C809 0.950 . S
H833 C811 0.950 . S
C834 C835 1.349 . S
C834 C836 1.327 . S
C834 H859 0.950 . S
C835 C834 1.349 . S
C835 C851 1.349 . S
C836 C834 1.327 . S
C836 C855 1.429 . S
C836 H860 0.950 . S
C837 C854 1.574 . S
C837 C856 1.368 . S
C837 H861 0.949 . S
H838 C842 0.949 . S
C839 C840 1.349 . S
C839 C841 1.327 . S
C839 H862 0.950 . S
C840 C839 1.349 . S
C840 C852 1.349 . S
C841 C839 1.327 . S
C841 C857 1.429 . S
C841 H863 0.950 . S
C842 H838 0.949 . S
C842 C850 1.574 . S
C842 C858 1.368 . S
H843 C851 0.950 1_554 S
H844 C849 0.950 . S
H845 C850 0.949 . S
H846 C852 0.950 . S
H847 C853 0.950 . S
H848 C854 0.949 . S
C849 H844 0.950 . S
C849 C851 1.327 . S
C849 C855 1.429 . S
C850 C842 1.574 . S
C850 H845 0.949 . S
C850 C856 1.368 . S
C851 C835 1.349 . S
C851 H843 0.950 1_556 S
C851 C849 1.327 . S
C852 C840 1.349 . S
C852 H846 0.950 . S
C852 C853 1.327 . S
C853 H847 0.950 . S
C853 C852 1.327 . S
C853 C857 1.429 . S
C854 C837 1.574 . S
C854 H848 0.949 . S
C854 C858 1.368 . S
C855 C836 1.429 . S
C855 C849 1.429 . S
C855 C856 1.523 . S
C856 C837 1.368 . S
C856 C850 1.368 . S
C856 C855 1.523 . S
C857 C841 1.429 . S
C857 C853 1.429 . S
C857 C858 1.523 . S
C858 C842 1.368 . S
C858 C854 1.368 . S
C858 C857 1.523 . S
H859 C834 0.950 . S
H860 C836 0.950 . S
H861 C837 0.949 . S
H862 C839 0.950 . S
H863 C841 0.950 . S
C864 C865 1.349 1_455 S
C864 C866 1.327 . S
C864 H889 0.950 . S
C865 C864 1.349 1_655 S
C865 C881 1.349 . S
C866 C864 1.327 . S
C866 C885 1.429 1_455 S
C866 H890 0.950 . S
C867 C884 1.574 . S
C867 C886 1.368 . S
C867 H891 0.949 . S
H868 C872 0.949 . S
C869 C870 1.349 . S
C869 C871 1.327 . S
C869 H892 0.950 . S
C870 C869 1.349 . S
C870 C882 1.349 1_655 S
C871 C869 1.327 . S
C871 C887 1.429 . S
C871 H893 0.950 . S
C872 H868 0.949 . S
C872 C880 1.574 . S
C872 C888 1.368 1_455 S
H873 C881 0.950 . S
H874 C879 0.950 . S
H875 C880 0.949 . S
H876 C882 0.950 . S
H877 C883 0.950 . S
H878 C884 0.949 . S
C879 H874 0.950 . S
C879 C881 1.327 . S
C879 C885 1.429 . S
C880 C872 1.574 . S
C880 H875 0.949 . S
C880 C886 1.368 1_455 S
C881 C865 1.349 . S
C881 H873 0.950 . S
C881 C879 1.327 . S
C882 C870 1.349 1_455 S
C882 H876 0.950 . S
C882 C883 1.327 . S
C883 H877 0.950 . S
C883 C882 1.327 . S
C883 C887 1.429 1_455 S
C884 C867 1.574 . S
C884 H878 0.949 . S
C884 C888 1.368 . S
C885 C866 1.429 1_655 S
C885 C879 1.429 . S
C885 C886 1.523 . S
C886 C867 1.368 . S
C886 C880 1.368 1_655 S
C886 C885 1.523 . S
C887 C871 1.429 . S
C887 C883 1.429 1_655 S
C887 C888 1.523 . S
C888 C872 1.368 1_655 S
C888 C884 1.368 . S
C888 C887 1.523 . S
H889 C864 0.950 . S
H890 C866 0.950 . S
H891 C867 0.949 . S
H892 C869 0.950 . S
H893 C871 0.950 . S
C894 C895 1.349 1_545 S
C894 C896 1.327 . S
C894 H919 0.950 . S
C895 C894 1.349 1_565 S
C895 C911 1.349 . S
C896 C894 1.327 . S
C896 C915 1.429 1_545 S
C896 H920 0.950 . S
C897 C914 1.574 . S
C897 C916 1.368 . S
C897 H921 0.949 . S
H898 C902 0.949 . S
C899 C900 1.349 . S
C899 C901 1.327 . S
C899 H922 0.950 . S
C900 C899 1.349 . S
C900 C912 1.322 1_565 S
C901 C899 1.327 . S
C901 C917 1.429 . S
C901 H923 0.950 . S
C902 H898 0.949 . S
C902 C910 1.574 . S
C902 C918 1.368 1_545 S
H903 C911 0.950 . S
H904 C909 0.950 . S
H905 C910 0.949 . S
H906 C912 0.977 . S
H907 C913 0.950 . S
H908 C914 0.949 . S
C909 H904 0.950 . S
C909 C911 1.327 . S
C909 C915 1.429 . S
C910 C902 1.574 . S
C910 H905 0.949 . S
C910 C916 1.368 1_545 S
C911 C895 1.349 . S
C911 H903 0.950 . S
C911 C909 1.327 . S
C912 C900 1.322 1_545 S
C912 H906 0.977 . S
C912 C913 1.332 . S
C913 H907 0.950 . S
C913 C912 1.332 . S
C913 C917 1.429 1_545 S
C914 C897 1.574 . S
C914 H908 0.949 . S
C914 C918 1.368 . S
C915 C896 1.429 1_565 S
C915 C909 1.429 . S
C915 C916 1.523 . S
C916 C897 1.368 . S
C916 C910 1.368 1_565 S
C916 C915 1.523 . S
C917 C901 1.429 . S
C917 C913 1.429 1_565 S
C917 C918 1.523 . S
C918 C902 1.368 1_565 S
C918 C914 1.368 . S
C918 C917 1.523 . S
H919 C894 0.950 . S
H920 C896 0.950 . S
H921 C897 0.949 . S
H922 C899 0.950 . S
H923 C901 0.950 . S
C924 C925 1.349 . S
C924 C926 1.327 . S
C924 H949 0.950 . S
C925 C924 1.349 . S
C925 C941 1.349 . S
C926 C924 1.327 . S
C926 C945 1.429 . S
C926 H950 0.950 . S
C927 C944 1.574 . S
C927 C946 1.368 . S
C927 H951 0.949 . S
H928 C932 0.949 . S
C929 C930 1.349 . S
C929 C931 1.327 . S
C929 H952 0.950 . S
C930 C929 1.349 . S
C930 C942 1.349 . S
C931 C929 1.327 . S
C931 C947 1.429 . S
C931 H953 0.950 . S
C932 H928 0.949 . S
C932 C940 1.574 . S
C932 C948 1.368 . S
H933 C941 0.950 . S
H934 C939 0.950 . S
H935 C940 0.949 . S
H936 C942 0.950 . S
H937 C943 0.950 . S
H938 C944 0.949 . S
C939 H934 0.950 . S
C939 C941 1.327 . S
C939 C945 1.429 . S
C940 C932 1.574 . S
C940 H935 0.949 . S
C940 C946 1.368 . S
C941 C925 1.349 . S
C941 H933 0.950 . S
C941 C939 1.327 . S
C942 C930 1.349 . S
C942 H936 0.950 . S
C942 C943 1.327 . S
C943 H937 0.950 . S
C943 C942 1.327 . S
C943 C947 1.429 . S
C944 C927 1.574 . S
C944 H938 0.949 . S
C944 C948 1.368 . S
C945 C926 1.429 . S
C945 C939 1.429 . S
C945 C946 1.523 . S
C946 C927 1.368 . S
C946 C940 1.368 . S
C946 C945 1.523 . S
C947 C931 1.429 . S
C947 C943 1.429 . S
C947 C948 1.523 . S
C948 C932 1.368 . S
C948 C944 1.368 . S
C948 C947 1.523 . S
H949 C924 0.950 . S
H950 C926 0.950 . S
H951 C927 0.949 . S
H952 C929 0.950 . S
H953 C931 0.950 . S
C954 C955 1.349 . S
C954 C956 1.327 . S
C954 H979 0.950 . S
C955 C954 1.349 . S
C955 C971 1.349 . S
C956 C954 1.327 . S
C956 C975 1.429 . S
C956 H980 0.950 . S
C957 C974 1.574 . S
C957 C976 1.368 . S
C957 H981 0.949 . S
H958 C962 0.949 . S
C959 C960 1.349 . S
C959 C961 1.327 . S
C959 H982 0.950 . S
C960 C959 1.349 . S
C960 C972 1.349 . S
C961 C959 1.327 . S
C961 C977 1.429 . S
C961 H983 0.950 . S
C962 H958 0.949 . S
C962 C970 1.574 . S
C962 C978 1.368 . S
H963 C971 0.950 . S
H964 C969 0.950 . S
H965 C970 0.949 . S
H966 C972 0.950 . S
H967 C973 0.950 . S
H968 C974 0.949 . S
C969 H964 0.950 . S
C969 C971 1.327 . S
C969 C975 1.429 . S
C970 C962 1.574 . S
C970 H965 0.949 . S
C970 C976 1.368 . S
C971 C955 1.349 . S
C971 H963 0.950 . S
C971 C969 1.327 . S
C972 C960 1.349 . S
C972 H966 0.950 . S
C972 C973 1.327 . S
C973 H967 0.950 . S
C973 C972 1.327 . S
C973 C977 1.429 . S
C974 C957 1.574 . S
C974 H968 0.949 . S
C974 C978 1.368 . S
C975 C956 1.429 . S
C975 C969 1.429 . S
C975 C976 1.523 . S
C976 C957 1.368 . S
C976 C970 1.368 . S
C976 C975 1.523 . S
C977 C961 1.429 . S
C977 C973 1.429 . S
C977 C978 1.523 . S
C978 C962 1.368 . S
C978 C974 1.368 . S
C978 C977 1.523 . S
H979 C954 0.950 . S
H980 C956 0.950 . S
H981 C957 0.949 . S
H982 C959 0.950 . S
H983 C961 0.950 . S
C265 C82 1.612 . S
C270 C113 1.808 1_545 S
C300 C153 1.812 . S
C295 C95 1.607 . S
C330 C193 1.811 . S
C325 C56 1.606 . S
C360 C233 1.808 1_455 S
C355 C69 1.612 . S
C390 C122 1.808 1_565 S
C385 C30 1.606 1_565 S
C415 C43 1.607 . S
C420 C162 1.811 . S
C445 C4 1.607 . S
C450 C202 1.811 . S
C475 C17 1.605 1_655 S
C480 C242 1.808 1_655 S
C510 C119 0.332 . S
C505 C74 0.401 . S
C540 C159 0.332 . S
C535 C87 0.400 . S
C570 C199 0.332 . S
C565 C100 0.388 . S
C595 C61 0.388 . S
C600 C239 0.332 . S
C625 C22 0.393 . S
C630 C110 0.332 . S
C660 C150 0.332 . S
C655 C35 0.392 . S
C690 C190 0.332 . S
C685 C48 0.393 . S
C715 C9 0.392 . S
C720 C230 0.332 . S
C745 C73 1.869 . S
C750 C123 2.052 . S
C775 C86 1.872 . S
C780 C163 2.052 . S
C810 C203 2.052 . S
C805 C99 1.869 . S
C840 C243 2.051 . S
C835 C60 1.869 . S
C865 C21 1.870 1_655 S
C870 C114 2.051 . S
C900 C154 2.051 . S
C895 C34 1.870 1_565 S
C930 C194 2.051 . S
C925 C47 1.870 . S
C955 C8 1.871 . S
C960 C234 2.052 . S
