# Generated by pormake.
# Topology bwt, (3,3)-cn, num edge types: 1
# Building blocks:
#     Node 0, Type 0, BuildingBlock: WUSLED_clean_sbu_0, # of connection points: 3
#     Node 1, Type 0, BuildingBlock: WUSLED_clean_sbu_0, # of connection points: 3
#     Node 2, Type 0, BuildingBlock: WUSLED_clean_sbu_0, # of connection points: 3
#     Node 3, Type 0, BuildingBlock: WUSLED_clean_sbu_0, # of connection points: 3
#     Node 4, Type 0, BuildingBlock: WUSLED_clean_sbu_0, # of connection points: 3
#     Node 5, Type 0, BuildingBlock: WUSLED_clean_sbu_0, # of connection points: 3
#     Node 6, Type 0, BuildingBlock: WUSLED_clean_sbu_0, # of connection points: 3
#     Node 7, Type 0, BuildingBlock: WUSLED_clean_sbu_0, # of connection points: 3
#     Node 8, Type 0, BuildingBlock: WUSLED_clean_sbu_0, # of connection points: 3
#     Node 9, Type 0, BuildingBlock: WUSLED_clean_sbu_0, # of connection points: 3
#     Node 10, Type 0, BuildingBlock: WUSLED_clean_sbu_0, # of connection points: 3
#     Node 11, Type 0, BuildingBlock: WUSLED_clean_sbu_0, # of connection points: 3
#     Node 12, Type 0, BuildingBlock: WUSLED_clean_sbu_0, # of connection points: 3
#     Node 13, Type 0, BuildingBlock: WUSLED_clean_sbu_0, # of connection points: 3
#     Node 14, Type 0, BuildingBlock: WUSLED_clean_sbu_0, # of connection points: 3
#     Node 15, Type 0, BuildingBlock: WUSLED_clean_sbu_0, # of connection points: 3
#     Node 16, Type 0, BuildingBlock: WUSLED_clean_sbu_0, # of connection points: 3
#     Node 17, Type 0, BuildingBlock: WUSLED_clean_sbu_0, # of connection points: 3
#     Node 18, Type 0, BuildingBlock: WUSLED_clean_sbu_0, # of connection points: 3
#     Node 19, Type 0, BuildingBlock: WUSLED_clean_sbu_0, # of connection points: 3
#     Node 20, Type 0, BuildingBlock: WUSLED_clean_sbu_0, # of connection points: 3
#     Node 21, Type 0, BuildingBlock: WUSLED_clean_sbu_0, # of connection points: 3
#     Node 22, Type 0, BuildingBlock: WUSLED_clean_sbu_0, # of connection points: 3
#     Node 23, Type 0, BuildingBlock: WUSLED_clean_sbu_0, # of connection points: 3
#     Node 24, Type 1, BuildingBlock: BETDAH_clean_linker_0, # of connection points: 3
#     Node 25, Type 1, BuildingBlock: BETDAH_clean_linker_0, # of connection points: 3
#     Node 26, Type 1, BuildingBlock: BETDAH_clean_linker_0, # of connection points: 3
#     Node 27, Type 1, BuildingBlock: BETDAH_clean_linker_0, # of connection points: 3
#     Node 28, Type 1, BuildingBlock: BETDAH_clean_linker_0, # of connection points: 3
#     Node 29, Type 1, BuildingBlock: BETDAH_clean_linker_0, # of connection points: 3
#     Node 30, Type 1, BuildingBlock: BETDAH_clean_linker_0, # of connection points: 3
#     Node 31, Type 1, BuildingBlock: BETDAH_clean_linker_0, # of connection points: 3
#     Node 32, Type 1, BuildingBlock: BETDAH_clean_linker_0, # of connection points: 3
#     Node 33, Type 1, BuildingBlock: BETDAH_clean_linker_0, # of connection points: 3
#     Node 34, Type 1, BuildingBlock: BETDAH_clean_linker_0, # of connection points: 3
#     Node 35, Type 1, BuildingBlock: BETDAH_clean_linker_0, # of connection points: 3
#     Node 36, Type 1, BuildingBlock: BETDAH_clean_linker_0, # of connection points: 3
#     Node 37, Type 1, BuildingBlock: BETDAH_clean_linker_0, # of connection points: 3
#     Node 38, Type 1, BuildingBlock: BETDAH_clean_linker_0, # of connection points: 3
#     Node 39, Type 1, BuildingBlock: BETDAH_clean_linker_0, # of connection points: 3
#     Node 40, Type 1, BuildingBlock: BETDAH_clean_linker_0, # of connection points: 3
#     Node 41, Type 1, BuildingBlock: BETDAH_clean_linker_0, # of connection points: 3
#     Node 42, Type 1, BuildingBlock: BETDAH_clean_linker_0, # of connection points: 3
#     Node 43, Type 1, BuildingBlock: BETDAH_clean_linker_0, # of connection points: 3
#     Node 44, Type 1, BuildingBlock: BETDAH_clean_linker_0, # of connection points: 3
#     Node 45, Type 1, BuildingBlock: BETDAH_clean_linker_0, # of connection points: 3
#     Node 46, Type 1, BuildingBlock: BETDAH_clean_linker_0, # of connection points: 3
#     Node 47, Type 1, BuildingBlock: BETDAH_clean_linker_0, # of connection points: 3
#     Edge 48, Type (0, 1), BuildingBlock: XIVTED_clean_linker_0, # of connection points: 2
#     Edge 49, Type (0, 1), BuildingBlock: XIVTED_clean_linker_0, # of connection points: 2
#     Edge 50, Type (0, 1), BuildingBlock: XIVTED_clean_linker_0, # of connection points: 2
#     Edge 51, Type (0, 1), BuildingBlock: XIVTED_clean_linker_0, # of connection points: 2
#     Edge 52, Type (0, 1), BuildingBlock: XIVTED_clean_linker_0, # of connection points: 2
#     Edge 53, Type (0, 1), BuildingBlock: XIVTED_clean_linker_0, # of connection points: 2
#     Edge 54, Type (0, 1), BuildingBlock: XIVTED_clean_linker_0, # of connection points: 2
#     Edge 55, Type (0, 1), BuildingBlock: XIVTED_clean_linker_0, # of connection points: 2
#     Edge 56, Type (0, 1), BuildingBlock: XIVTED_clean_linker_0, # of connection points: 2
#     Edge 57, Type (0, 1), BuildingBlock: XIVTED_clean_linker_0, # of connection points: 2
#     Edge 58, Type (0, 1), BuildingBlock: XIVTED_clean_linker_0, # of connection points: 2
#     Edge 59, Type (0, 1), BuildingBlock: XIVTED_clean_linker_0, # of connection points: 2
#     Edge 60, Type (0, 1), BuildingBlock: XIVTED_clean_linker_0, # of connection points: 2
#     Edge 61, Type (0, 1), BuildingBlock: XIVTED_clean_linker_0, # of connection points: 2
#     Edge 62, Type (0, 1), BuildingBlock: XIVTED_clean_linker_0, # of connection points: 2
#     Edge 63, Type (0, 1), BuildingBlock: XIVTED_clean_linker_0, # of connection points: 2
#     Edge 64, Type (0, 1), BuildingBlock: XIVTED_clean_linker_0, # of connection points: 2
#     Edge 65, Type (0, 1), BuildingBlock: XIVTED_clean_linker_0, # of connection points: 2
#     Edge 66, Type (0, 1), BuildingBlock: XIVTED_clean_linker_0, # of connection points: 2
#     Edge 67, Type (0, 1), BuildingBlock: XIVTED_clean_linker_0, # of connection points: 2
#     Edge 68, Type (0, 1), BuildingBlock: XIVTED_clean_linker_0, # of connection points: 2
#     Edge 69, Type (0, 1), BuildingBlock: XIVTED_clean_linker_0, # of connection points: 2
#     Edge 70, Type (0, 1), BuildingBlock: XIVTED_clean_linker_0, # of connection points: 2
#     Edge 71, Type (0, 1), BuildingBlock: XIVTED_clean_linker_0, # of connection points: 2
#     Edge 72, Type (0, 1), BuildingBlock: XIVTED_clean_linker_0, # of connection points: 2
#     Edge 73, Type (0, 1), BuildingBlock: XIVTED_clean_linker_0, # of connection points: 2
#     Edge 74, Type (0, 1), BuildingBlock: XIVTED_clean_linker_0, # of connection points: 2
#     Edge 75, Type (0, 1), BuildingBlock: XIVTED_clean_linker_0, # of connection points: 2
#     Edge 76, Type (0, 1), BuildingBlock: XIVTED_clean_linker_0, # of connection points: 2
#     Edge 77, Type (0, 1), BuildingBlock: XIVTED_clean_linker_0, # of connection points: 2
#     Edge 78, Type (0, 1), BuildingBlock: XIVTED_clean_linker_0, # of connection points: 2
#     Edge 79, Type (0, 1), BuildingBlock: XIVTED_clean_linker_0, # of connection points: 2
#     Edge 80, Type (0, 1), BuildingBlock: XIVTED_clean_linker_0, # of connection points: 2
#     Edge 81, Type (0, 1), BuildingBlock: XIVTED_clean_linker_0, # of connection points: 2
#     Edge 82, Type (0, 1), BuildingBlock: XIVTED_clean_linker_0, # of connection points: 2
#     Edge 83, Type (0, 1), BuildingBlock: XIVTED_clean_linker_0, # of connection points: 2
#     Edge 84, Type (0, 1), BuildingBlock: XIVTED_clean_linker_0, # of connection points: 2
#     Edge 85, Type (0, 1), BuildingBlock: XIVTED_clean_linker_0, # of connection points: 2
#     Edge 86, Type (0, 1), BuildingBlock: XIVTED_clean_linker_0, # of connection points: 2
#     Edge 87, Type (0, 1), BuildingBlock: XIVTED_clean_linker_0, # of connection points: 2
#     Edge 88, Type (0, 1), BuildingBlock: XIVTED_clean_linker_0, # of connection points: 2
#     Edge 89, Type (0, 1), BuildingBlock: XIVTED_clean_linker_0, # of connection points: 2
#     Edge 90, Type (0, 1), BuildingBlock: XIVTED_clean_linker_0, # of connection points: 2
#     Edge 91, Type (0, 1), BuildingBlock: XIVTED_clean_linker_0, # of connection points: 2
#     Edge 92, Type (0, 1), BuildingBlock: XIVTED_clean_linker_0, # of connection points: 2
#     Edge 93, Type (0, 1), BuildingBlock: XIVTED_clean_linker_0, # of connection points: 2
#     Edge 94, Type (0, 1), BuildingBlock: XIVTED_clean_linker_0, # of connection points: 2
#     Edge 95, Type (0, 1), BuildingBlock: XIVTED_clean_linker_0, # of connection points: 2
#     Edge 96, Type (0, 1), BuildingBlock: XIVTED_clean_linker_0, # of connection points: 2
#     Edge 97, Type (0, 1), BuildingBlock: XIVTED_clean_linker_0, # of connection points: 2
#     Edge 98, Type (0, 1), BuildingBlock: XIVTED_clean_linker_0, # of connection points: 2
#     Edge 99, Type (0, 1), BuildingBlock: XIVTED_clean_linker_0, # of connection points: 2
#     Edge 100, Type (0, 1), BuildingBlock: XIVTED_clean_linker_0, # of connection points: 2
#     Edge 101, Type (0, 1), BuildingBlock: XIVTED_clean_linker_0, # of connection points: 2
#     Edge 102, Type (0, 1), BuildingBlock: XIVTED_clean_linker_0, # of connection points: 2
#     Edge 103, Type (0, 1), BuildingBlock: XIVTED_clean_linker_0, # of connection points: 2
#     Edge 104, Type (0, 1), BuildingBlock: XIVTED_clean_linker_0, # of connection points: 2
#     Edge 105, Type (0, 1), BuildingBlock: XIVTED_clean_linker_0, # of connection points: 2
#     Edge 106, Type (0, 1), BuildingBlock: XIVTED_clean_linker_0, # of connection points: 2
#     Edge 107, Type (0, 1), BuildingBlock: XIVTED_clean_linker_0, # of connection points: 2
#     Edge 108, Type (0, 1), BuildingBlock: XIVTED_clean_linker_0, # of connection points: 2
#     Edge 109, Type (0, 1), BuildingBlock: XIVTED_clean_linker_0, # of connection points: 2
#     Edge 110, Type (0, 1), BuildingBlock: XIVTED_clean_linker_0, # of connection points: 2
#     Edge 111, Type (0, 1), BuildingBlock: XIVTED_clean_linker_0, # of connection points: 2
#     Edge 112, Type (0, 1), BuildingBlock: XIVTED_clean_linker_0, # of connection points: 2
#     Edge 113, Type (0, 1), BuildingBlock: XIVTED_clean_linker_0, # of connection points: 2
#     Edge 114, Type (0, 1), BuildingBlock: XIVTED_clean_linker_0, # of connection points: 2
#     Edge 115, Type (0, 1), BuildingBlock: XIVTED_clean_linker_0, # of connection points: 2
#     Edge 116, Type (0, 1), BuildingBlock: XIVTED_clean_linker_0, # of connection points: 2
#     Edge 117, Type (0, 1), BuildingBlock: XIVTED_clean_linker_0, # of connection points: 2
#     Edge 118, Type (0, 1), BuildingBlock: XIVTED_clean_linker_0, # of connection points: 2
#     Edge 119, Type (0, 1), BuildingBlock: XIVTED_clean_linker_0, # of connection points: 2
# Relax obj value: 0.119
# Max RMSD: 0.173
# Mean RMSD: 0.085
data_MOF--net-bwt--node1-WUSLED_clean_sbu_0--node2-BETDAH_clean_linker_0--edge1-XIVTED_clean_linker_0
_symmetry_space_group_name_H-M    P1
_symmetry_Int_Tables_number       1
_symmetry_cell_setting            triclinic
loop_
_symmetry_equiv_pos_as_xyz
'x, y, z'
_cell_length_a     68.94602
_cell_length_b     69.00063
_cell_length_c     69.007246
_cell_angle_alpha  95.12035
_cell_angle_beta   95.132796
_cell_angle_gamma 95.124924
loop_
_atom_site_label
_atom_site_type_symbol
_atom_site_fract_x
_atom_site_fract_y
_atom_site_fract_z
_atom_type_partial_charge
C0 C 0.31576 0.63333 0.35444 0.0
C1 C 0.3277 0.6188 0.35969 0.0
C2 C 0.35317 0.63226 0.34101 0.0
C3 C 0.3462 0.6182 0.35294 0.0
C4 C 0.34108 0.6467 0.33572 0.0
C5 C 0.32253 0.6472 0.34236 0.0
U6 U 0.28225 0.62429 0.39406 0.0
O7 O 0.2625 0.64357 0.40792 0.0
O8 O 0.25084 0.61495 0.39289 0.0
C9 C 0.24681 0.63172 0.40144 0.0
C10 C 0.29671 0.63481 0.36227 0.0
C11 C 0.23022 0.6408 0.39204 0.0
C12 C 0.20455 0.66262 0.39501 0.0
C13 C 0.22121 0.6549 0.40304 0.0
C14 C 0.20582 0.64252 0.36464 0.0
C15 C 0.19642 0.65629 0.3758 0.0
C16 C 0.22256 0.63492 0.37263 0.0
C17 C 0.303 0.59839 0.43775 0.0
C18 C 0.30349 0.60282 0.47317 0.0
C19 C 0.30477 0.57047 0.45689 0.0
C20 C 0.30396 0.57824 0.43881 0.0
C21 C 0.30489 0.58273 0.47429 0.0
C22 C 0.30254 0.61057 0.45512 0.0
C23 C 0.30408 0.60653 0.41868 0.0
O24 O 0.28589 0.61821 0.36281 0.0
O25 O 0.29723 0.64667 0.37834 0.0
O26 O 0.30485 0.62566 0.4188 0.0
O27 O 0.29281 0.59717 0.40376 0.0
H28 H 0.32283 0.6081 0.36923 0.0
H29 H 0.35525 0.60704 0.35745 0.0
H30 H 0.34594 0.65761 0.32639 0.0
H31 H 0.31356 0.65858 0.33824 0.0
H32 H 0.19795 0.67342 0.40395 0.0
H33 H 0.22688 0.6597 0.41802 0.0
H34 H 0.19989 0.63706 0.34991 0.0
H35 H 0.2292 0.62409 0.36375 0.0
H36 H 0.30326 0.61261 0.48631 0.0
H37 H 0.30596 0.55496 0.45728 0.0
H38 H 0.30453 0.56855 0.42567 0.0
H39 H 0.30182 0.62616 0.45487 0.0
C40 C 0.18776 0.3288 0.76448 0.0
C41 C 0.1744 0.33732 0.77597 0.0
C42 C 0.14719 0.32188 0.75321 0.0
C43 C 0.1543 0.33385 0.77043 0.0
C44 C 0.16069 0.31313 0.74192 0.0
C45 C 0.18081 0.31659 0.74752 0.0
U46 U 0.22963 0.35964 0.79482 0.0
O47 O 0.25781 0.35198 0.80832 0.0
O48 O 0.25721 0.37361 0.78681 0.0
C49 C 0.26804 0.36337 0.79786 0.0
C50 C 0.20892 0.33336 0.76964 0.0
C51 C 0.28429 0.35505 0.78871 0.0
C52 C 0.29803 0.34038 0.76034 0.0
C53 C 0.28177 0.34566 0.76964 0.0
C54 C 0.31929 0.35295 0.78945 0.0
C55 C 0.31705 0.34441 0.76998 0.0
C56 C 0.30306 0.35821 0.79869 0.0
C57 C 0.21924 0.40042 0.83145 0.0
C58 C 0.24651 0.42063 0.8499 0.0
C59 C 0.21335 0.42887 0.85267 0.0
C60 C 0.20625 0.41265 0.83949 0.0
C61 C 0.23359 0.43311 0.85793 0.0
C62 C 0.2394 0.40447 0.83675 0.0
C63 C 0.21189 0.38392 0.81697 0.0
O64 O 0.21607 0.35044 0.76497 0.0
O65 O 0.21544 0.32973 0.78732 0.0
O66 O 0.21587 0.3666 0.82184 0.0
O67 O 0.21522 0.38665 0.79893 0.0
H68 H 0.17954 0.34684 0.78911 0.0
H69 H 0.14434 0.34059 0.77962 0.0
H70 H 0.15578 0.30406 0.72846 0.0
H71 H 0.19095 0.31 0.73842 0.0
H72 H 0.29576 0.3336 0.74544 0.0
H73 H 0.26733 0.34304 0.76173 0.0
H74 H 0.33368 0.35654 0.79725 0.0
H75 H 0.30528 0.36552 0.8134 0.0
H76 H 0.26214 0.42324 0.8539 0.0
H77 H 0.20304 0.43826 0.85847 0.0
H78 H 0.19064 0.40978 0.83542 0.0
H79 H 0.24964 0.39517 0.83063 0.0
C80 C 0.7221 0.99226 0.64435 0.0
C81 C 0.73601 0.00432 0.63617 0.0
C82 C 0.762 0.99469 0.65847 0.0
C83 C 0.75573 0.00561 0.64323 0.0
C84 C 0.74791 0.98308 0.66704 0.0
C85 C 0.72811 0.98185 0.65999 0.0
U86 U 0.68728 0.99319 0.59967 0.0
O87 O 0.66312 0.97186 0.5861 0.0
O88 O 0.65768 0.00221 0.59455 0.0
C89 C 0.65002 0.98444 0.58796 0.0
C90 C 0.70183 0.98904 0.63526 0.0
C91 C 0.63226 0.97748 0.59654 0.0
C92 C 0.6131 0.97584 0.62428 0.0
C93 C 0.63076 0.98088 0.61666 0.0
C94 C 0.59856 0.96301 0.59189 0.0
C95 C 0.59665 0.96719 0.61192 0.0
C96 C 0.61621 0.96817 0.58427 0.0
C97 C 0.70827 0.0092 0.55409 0.0
C98 C 0.6871 0.01398 0.5252 0.0
C99 C 0.72116 0.00903 0.52253 0.0
C100 C 0.72394 0.00776 0.54266 0.0
C101 C 0.70262 0.0118 0.51349 0.0
C102 C 0.68988 0.01257 0.54532 0.0
C103 C 0.71093 0.00575 0.57479 0.0
O104 O 0.69388 0.00483 0.63053 0.0
O105 O 0.69873 0.97451 0.62133 0.0
O106 O 0.70821 0.9873 0.57814 0.0
O107 O 0.70264 0.01752 0.58687 0.0
H108 H 0.73168 0.01234 0.62394 0.0
H109 H 0.76613 0.01493 0.63651 0.0
H110 H 0.75225 0.97432 0.67865 0.0
H111 H 0.71759 0.9723 0.66631 0.0
H112 H 0.61213 0.97954 0.63972 0.0
H113 H 0.64306 0.988 0.62638 0.0
H114 H 0.58631 0.95609 0.58201 0.0
H115 H 0.61718 0.96531 0.56871 0.0
H116 H 0.67271 0.01638 0.51878 0.0
H117 H 0.73336 0.00696 0.51396 0.0
H118 H 0.73819 0.00502 0.5492 0.0
H119 H 0.67755 0.01364 0.55393 0.0
C120 C 0.75465 0.00881 0.26868 0.0
C121 C 0.74619 0.0265 0.26748 0.0
C122 C 0.71438 0.01068 0.27311 0.0
C123 C 0.72629 0.02741 0.26955 0.0
C124 C 0.72307 0.99316 0.27499 0.0
C125 C 0.74292 0.99223 0.27282 0.0
U126 U 0.78887 0.99122 0.23308 0.0
O127 O 0.81562 0.005 0.22285 0.0
O128 O 0.81623 0.9772 0.23604 0.0
C129 C 0.82644 0.99169 0.22927 0.0
C130 C 0.77512 0.00744 0.26405 0.0
C131 C 0.84562 0.9986 0.24028 0.0
C132 C 0.87239 0.02405 0.25027 0.0
C133 C 0.8533 0.01833 0.24172 0.0
C134 C 0.87628 0.99057 0.25645 0.0
C135 C 0.88419 0.01018 0.25751 0.0
C136 C 0.85728 0.98486 0.24789 0.0
C137 C 0.76321 0.96386 0.1856 0.0
C138 C 0.78038 0.9535 0.15785 0.0
C139 C 0.74494 0.9492 0.15543 0.0
C140 C 0.74536 0.95729 0.17475 0.0
C141 C 0.76242 0.94754 0.14661 0.0
C142 C 0.78077 0.96164 0.17722 0.0
C143 C 0.76309 0.97405 0.20513 0.0
O144 O 0.7812 0.98986 0.26323 0.0
O145 O 0.78041 0.01737 0.24966 0.0
O146 O 0.769 0.99281 0.2067 0.0
O147 O 0.77015 0.96504 0.2198 0.0
H148 H 0.75485 0.03954 0.26437 0.0
H149 H 0.72019 0.04115 0.26785 0.0
H150 H 0.71457 0.9801 0.27824 0.0
H151 H 0.74894 0.97837 0.27404 0.0
H152 H 0.878 0.03929 0.25096 0.0
H153 H 0.84478 0.02929 0.23585 0.0
H154 H 0.88504 0.97941 0.26151 0.0
H155 H 0.85193 0.96951 0.24669 0.0
H156 H 0.79411 0.95225 0.15157 0.0
H157 H 0.73084 0.94511 0.14716 0.0
H158 H 0.73168 0.95899 0.18103 0.0
H159 H 0.7947 0.96664 0.18548 0.0
C160 C 0.35974 0.32306 0.6366 0.0
C161 C 0.37128 0.33791 0.62914 0.0
C162 C 0.34756 0.36107 0.63633 0.0
C163 C 0.36527 0.35674 0.62904 0.0
C164 C 0.33609 0.34609 0.64384 0.0
C165 C 0.34215 0.32727 0.64398 0.0
U166 U 0.39464 0.28667 0.62122 0.0
O167 O 0.40826 0.26411 0.63696 0.0
O168 O 0.38974 0.25583 0.60938 0.0
C169 C 0.39986 0.24976 0.62434 0.0
C170 C 0.36588 0.30317 0.6364 0.0
C171 C 0.3907 0.23264 0.63256 0.0
C172 C 0.36267 0.21487 0.64421 0.0
C173 C 0.37156 0.23204 0.63804 0.0
C174 C 0.3922 0.19903 0.64005 0.0
C175 C 0.3728 0.19805 0.64502 0.0
C176 C 0.40102 0.21615 0.63389 0.0
C177 C 0.43576 0.30451 0.59145 0.0
C178 C 0.46278 0.28565 0.58419 0.0
C179 C 0.45836 0.31529 0.56864 0.0
C180 C 0.44185 0.31791 0.5786 0.0
C181 C 0.46913 0.29918 0.5714 0.0
C182 C 0.44622 0.28826 0.59408 0.0
C183 C 0.41855 0.30774 0.602 0.0
O184 O 0.36386 0.29309 0.61914 0.0
O185 O 0.38279 0.30176 0.64635 0.0
O186 O 0.42102 0.30703 0.62103 0.0
O187 O 0.40195 0.29845 0.59388 0.0
H188 H 0.38488 0.33489 0.62328 0.0
H189 H 0.37435 0.36783 0.62294 0.0
H190 H 0.32251 0.34897 0.64981 0.0
H191 H 0.33308 0.31598 0.64982 0.0
H192 H 0.34781 0.21472 0.64815 0.0
H193 H 0.36337 0.24467 0.63716 0.0
H194 H 0.40037 0.18634 0.64019 0.0
H195 H 0.41579 0.21633 0.62964 0.0
H196 H 0.47084 0.27323 0.58689 0.0
H197 H 0.46263 0.32583 0.55871 0.0
H198 H 0.43385 0.33047 0.5763 0.0
H199 H 0.44168 0.27772 0.60393 0.0
C200 C 0.26036 0.7493 0.00292 0.0
C201 C 0.24803 0.73891 0.01438 0.0
C202 C 0.25369 0.70805 0.99669 0.0
C203 C 0.24462 0.71855 0.01121 0.0
C204 C 0.26456 0.71868 0.98412 0.0
C205 C 0.26803 0.73901 0.98734 0.0
U206 U 0.25847 0.80578 0.00605 0.0
O207 O 0.28301 0.82819 0.00495 0.0
O208 O 0.26852 0.82643 0.03186 0.0
C209 C 0.28127 0.83636 0.02258 0.0
C210 C 0.26766 0.76999 0.00888 0.0
C211 C 0.28005 0.85756 0.02423 0.0
C212 C 0.29069 0.88971 0.04093 0.0
C213 C 0.29208 0.86956 0.03878 0.0
C214 C 0.26521 0.88602 0.01392 0.0
C215 C 0.27723 0.89819 0.02853 0.0
C216 C 0.26656 0.86587 0.01184 0.0
C217 C 0.20787 0.79917 0.97639 0.0
C218 C 0.1779 0.79792 0.95484 0.0
C219 C 0.18469 0.77011 0.97255 0.0
C220 C 0.20255 0.78004 0.98072 0.0
C221 C 0.17191 0.77918 0.95994 0.0
C222 C 0.19569 0.80782 0.96303 0.0
C223 C 0.22509 0.81099 0.98676 0.0
O224 O 0.27321 0.78062 0.99508 0.0
O225 O 0.25845 0.7796 0.02197 0.0
O226 O 0.22736 0.81022 0.00578 0.0
O227 O 0.24152 0.81048 0.9785 0.0
H228 H 0.24178 0.74636 0.02648 0.0
H229 H 0.23555 0.71102 0.02075 0.0
H230 H 0.27167 0.71131 0.97263 0.0
H231 H 0.27768 0.74655 0.97829 0.0
H232 H 0.29996 0.89858 0.0525 0.0
H233 H 0.30244 0.86332 0.04858 0.0
H234 H 0.25489 0.89208 0.00393 0.0
H235 H 0.25707 0.85676 1.00058 0.0
H236 H 0.16857 0.80517 0.94491 0.0
H237 H 0.18047 0.75575 0.9769 0.0
H238 H 0.21184 0.7731 0.99098 0.0
H239 H 0.19964 0.82254 0.95944 0.0
C240 C 0.76734 0.18145 0.33208 0.0
C241 C 0.78027 0.16867 0.33943 0.0
C242 C 0.75703 0.14072 0.32701 0.0
C243 C 0.7752 0.14848 0.33685 0.0
C244 C 0.74426 0.15361 0.31941 0.0
C245 C 0.74939 0.17382 0.32193 0.0
U246 U 0.79801 0.22435 0.36071 0.0
O247 O 0.80948 0.25293 0.35214 0.0
O248 O 0.78989 0.25145 0.37548 0.0
C249 C 0.79915 0.26264 0.36412 0.0
C250 C 0.77197 0.20269 0.33607 0.0
C251 C 0.78839 0.27835 0.35627 0.0
C252 C 0.76126 0.29857 0.35718 0.0
C253 C 0.76999 0.282 0.36225 0.0
C254 C 0.78866 0.30778 0.3392 0.0
C255 C 0.77065 0.31192 0.34593 0.0
C256 C 0.79747 0.29123 0.34441 0.0
C257 C 0.8372 0.21555 0.39977 0.0
C258 C 0.85559 0.24346 0.419 0.0
C259 C 0.85846 0.21081 0.42861 0.0
C260 C 0.84531 0.2031 0.41256 0.0
C261 C 0.86359 0.23111 0.43211 0.0
C262 C 0.84247 0.23575 0.40302 0.0
C263 C 0.8223 0.20765 0.38384 0.0
O264 O 0.7682 0.2099 0.35345 0.0
O265 O 0.78907 0.20967 0.33123 0.0
O266 O 0.82603 0.21184 0.36624 0.0
O267 O 0.80428 0.21016 0.38751 0.0
H268 H 0.79412 0.17435 0.34751 0.0
H269 H 0.78524 0.13898 0.34311 0.0
H270 H 0.73026 0.14808 0.31159 0.0
H271 H 0.73922 0.1835 0.31624 0.0
H272 H 0.74759 0.30136 0.36296 0.0
H273 H 0.7626 0.27251 0.37154 0.0
H274 H 0.7962 0.31756 0.3303 0.0
H275 H 0.81172 0.28887 0.33969 0.0
H276 H 0.8595 0.25911 0.42104 0.0
H277 H 0.86423 0.20092 0.4385 0.0
H278 H 0.84123 0.18748 0.41034 0.0
H279 H 0.83625 0.24558 0.39331 0.0
C280 C 0.62983 0.72977 0.99129 0.0
C281 C 0.62111 0.74631 0.99817 0.0
C282 C 0.64738 0.76753 0.98748 0.0
C283 C 0.62984 0.76503 0.99634 0.0
C284 C 0.6563 0.75086 0.98105 0.0
C285 C 0.64755 0.73212 0.98291 0.0
U286 U 0.58427 0.6977 0.99851 0.0
O287 O 0.57022 0.67115 0.9809 0.0
O288 O 0.57972 0.67025 0.01203 0.0
C289 C 0.57281 0.6602 0.99537 0.0
C290 C 0.61979 0.71017 0.99158 0.0
C291 C 0.5818 0.6421 0.99064 0.0
C292 C 0.61029 0.62385 0.99053 0.0
C293 C 0.60209 0.64148 0.99397 0.0
C294 C 0.5781 0.60749 0.97952 0.0
C295 C 0.59835 0.60657 0.98354 0.0
C296 C 0.5699 0.62511 0.98311 0.0
C297 C 0.53871 0.71965 0.0119 0.0
C298 C 0.51145 0.69863 0.02086 0.0
C299 C 0.50578 0.72954 0.0083 0.0
C300 C 0.52582 0.73335 0.0068 0.0
C301 C 0.49831 0.71193 0.01495 0.0
C302 C 0.53144 0.70238 0.01922 0.0
C303 C 0.55927 0.72255 0.00787 0.0
O304 O 0.61536 0.70549 0.00883 0.0
O305 O 0.60533 0.70551 0.97774 0.0
O306 O 0.56236 0.71735 0.9897 0.0
O307 O 0.57204 0.71655 0.02077 0.0
H308 H 0.60736 0.74473 0.00462 0.0
H309 H 0.62274 0.77754 0.0017 0.0
H310 H 0.66968 0.75227 0.97397 0.0
H311 H 0.65437 0.71947 0.97739 0.0
H312 H 0.62589 0.62367 0.99404 0.0
H313 H 0.61153 0.65452 0.99966 0.0
H314 H 0.56852 0.59455 0.97382 0.0
H315 H 0.55422 0.62541 0.98027 0.0
H316 H 0.50624 0.68507 0.0263 0.0
H317 H 0.49608 0.73999 0.00336 0.0
H318 H 0.53117 0.74667 0.00096 0.0
H319 H 0.54113 0.69152 0.02312 0.0
C320 C 0.6377 0.36102 0.31768 0.0
C321 C 0.62834 0.37171 0.33171 0.0
C322 C 0.63631 0.34901 0.35561 0.0
C323 C 0.62764 0.36578 0.35048 0.0
C324 C 0.64558 0.33825 0.34142 0.0
C325 C 0.64629 0.34424 0.3226 0.0
U326 U 0.62561 0.39828 0.28334 0.0
O327 O 0.64265 0.41273 0.26226 0.0
O328 O 0.61447 0.39585 0.25227 0.0
C329 C 0.63024 0.40553 0.24723 0.0
C330 C 0.63862 0.36764 0.2981 0.0
C331 C 0.63886 0.39631 0.23042 0.0
C332 C 0.65413 0.36945 0.21473 0.0
C333 C 0.64678 0.37833 0.23123 0.0
C334 C 0.64601 0.39662 0.19662 0.0
C335 C 0.65369 0.37842 0.19715 0.0
C336 C 0.63868 0.40545 0.2131 0.0
C337 C 0.59806 0.43989 0.30552 0.0
C338 C 0.58462 0.46531 0.2878 0.0
C339 C 0.58441 0.46674 0.323 0.0
C340 C 0.59334 0.44936 0.32303 0.0
C341 C 0.58002 0.47499 0.30541 0.0
C342 C 0.59363 0.4479 0.28786 0.0
C343 C 0.60761 0.42174 0.30619 0.0
O344 O 0.62161 0.36701 0.28767 0.0
O345 O 0.64964 0.38411 0.29761 0.0
O346 O 0.62665 0.42349 0.30545 0.0
O347 O 0.59864 0.40637 0.29534 0.0
H348 H 0.62159 0.3847 0.32813 0.0
H349 H 0.62015 0.37424 0.36093 0.0
H350 H 0.65259 0.32541 0.34496 0.0
H351 H 0.65363 0.33586 0.31195 0.0
H352 H 0.66011 0.35554 0.21572 0.0
H353 H 0.64707 0.37109 0.24454 0.0
H354 H 0.64511 0.40381 0.1833 0.0
H355 H 0.63256 0.41931 0.21221 0.0
H356 H 0.58163 0.47141 0.27403 0.0
H357 H 0.58086 0.47368 0.33677 0.0
H358 H 0.5966 0.44332 0.33678 0.0
H359 H 0.59724 0.44076 0.2742 0.0
C360 C 0.99684 0.25948 0.7492 0.0
C361 C 0.00417 0.2437 0.73886 0.0
C362 C 0.98948 0.25321 0.70804 0.0
C363 C 1.00046 0.24056 0.71849 0.0
C364 C 0.98084 0.26793 0.71873 0.0
C365 C 0.98462 0.27111 0.73902 0.0
U366 U 0.00443 0.25269 0.80459 0.0
O367 O 0.0016 0.27469 0.82896 0.0
O368 O 0.03016 0.26395 0.82504 0.0
C369 C 0.01983 0.27442 0.83632 0.0
C370 C 0.00341 0.26564 0.76996 0.0
C371 C 0.02265 0.27179 0.85727 0.0
C372 C 0.04128 0.28016 0.88893 0.0
C373 C 0.03859 0.28214 0.86891 0.0
C374 C 0.01216 0.25726 0.88584 0.0
C375 C 0.02799 0.26783 0.8977 0.0
C376 C 0.00958 0.25914 0.86581 0.0
C377 C 0.98073 0.19997 0.79396 0.0
C378 C 0.96679 0.16617 0.78945 0.0
C379 C 0.97243 0.18366 0.76121 0.0
C380 C 0.97967 0.20042 0.77361 0.0
C381 C 0.96617 0.16624 0.76901 0.0
C382 C 0.97401 0.18288 0.80178 0.0
C383 C 0.98978 0.21673 0.80729 0.0
O384 O 0.98965 0.26803 0.78173 0.0
O385 O 0.01841 0.25758 0.77785 0.0
O386 O 0.00839 0.22159 0.80569 0.0
O387 O 0.97952 0.23184 0.8091 0.0
H388 H 0.01343 0.23429 0.74637 0.0
H389 H 0.00685 0.22865 0.71091 0.0
H390 H 0.97214 0.27792 0.71147 0.0
H391 H 0.97876 0.28334 0.74667 0.0
H392 H 0.0538 0.28828 0.89752 0.0
H393 H 0.04892 0.29185 0.86251 0.0
H394 H 0.00146 0.24786 0.89208 0.0
H395 H 0.99723 0.2509 0.85704 0.0
H396 H 0.96243 0.15297 0.79599 0.0
H397 H 0.97197 0.18428 0.74555 0.0
H398 H 0.98479 0.21357 0.76735 0.0
H399 H 0.97482 0.1823 0.81747 0.0
C400 C 0.33076 0.76488 0.18543 0.0
C401 C 0.32798 0.77849 0.17169 0.0
C402 C 0.32146 0.75209 0.14526 0.0
C403 C 0.3233 0.77215 0.15184 0.0
C404 C 0.32424 0.73856 0.15914 0.0
C405 C 0.32876 0.74489 0.17898 0.0
U406 U 0.36197 0.79717 0.22662 0.0
O407 O 0.35412 0.81105 0.25455 0.0
O408 O 0.37614 0.7899 0.25443 0.0
C409 C 0.36559 0.80086 0.26502 0.0
C410 C 0.33613 0.77113 0.20642 0.0
C411 C 0.35756 0.79238 0.28192 0.0
C412 C 0.35415 0.76576 0.30267 0.0
C413 C 0.35855 0.77258 0.28491 0.0
C414 C 0.34651 0.79809 0.31426 0.0
C415 C 0.34868 0.77859 0.31781 0.0
C416 C 0.35098 0.8049 0.29655 0.0
C417 C 0.40185 0.83463 0.21518 0.0
C418 C 0.42165 0.8549 0.24158 0.0
C419 C 0.42971 0.85613 0.20822 0.0
C420 C 0.41385 0.84226 0.20177 0.0
C421 C 0.43386 0.86256 0.22823 0.0
C422 C 0.40583 0.84104 0.23512 0.0
C423 C 0.38566 0.81955 0.20843 0.0
O424 O 0.35348 0.76701 0.21344 0.0
O425 O 0.33207 0.78873 0.21277 0.0
O426 O 0.36817 0.82401 0.21233 0.0
O427 O 0.38898 0.80177 0.21224 0.0
H428 H 0.32949 0.79403 0.17623 0.0
H429 H 0.32101 0.783 0.14168 0.0
H430 H 0.32332 0.72303 0.15467 0.0
H431 H 0.33093 0.73415 0.1893 0.0
H432 H 0.35613 0.7507 0.30491 0.0
H433 H 0.36358 0.76254 0.27391 0.0
H434 H 0.34199 0.80828 0.32544 0.0
H435 H 0.3501 0.82023 0.29462 0.0
H436 H 0.42417 0.85975 0.25703 0.0
H437 H 0.4389 0.86157 0.19757 0.0
H438 H 0.41104 0.83736 0.18633 0.0
H439 H 0.39672 0.83526 0.24569 0.0
C440 C 0.99889 0.6322 0.72279 0.0
C441 C 0.00733 0.62363 0.73875 0.0
C442 C 0.0019 0.65185 0.76064 0.0
C443 C 0.00886 0.63338 0.75751 0.0
C444 C 0.99392 0.6606 0.74447 0.0
C445 C 0.99242 0.65081 0.72567 0.0
U446 U 0.99875 0.58453 0.69155 0.0
O447 O 0.977 0.57003 0.66833 0.0
O448 O 0.00724 0.57763 0.66196 0.0
C449 C 0.98926 0.57123 0.65485 0.0
C450 C 0.99551 0.62112 0.70348 0.0
C451 C 0.98224 0.57983 0.63717 0.0
C452 C 0.96759 0.60589 0.62155 0.0
C453 C 0.97252 0.59685 0.63839 0.0
C454 C 0.98174 0.58076 0.60212 0.0
C455 C 0.97253 0.59818 0.60325 0.0
C456 C 0.98652 0.57167 0.61894 0.0
C457 C 0.01386 0.53965 0.71306 0.0
C458 C 0.00707 0.5087 0.693 0.0
C459 C 0.02669 0.5105 0.72418 0.0
C460 C 0.02475 0.53055 0.72712 0.0
C461 C 0.0177 0.4993 0.70715 0.0
C462 C 0.00528 0.52867 0.69588 0.0
C463 C 0.01132 0.56054 0.7161 0.0
O464 O 0.01123 0.61526 0.69619 0.0
O465 O 0.9808 0.6074 0.70171 0.0
O466 O 0.99304 0.56466 0.71399 0.0
O467 O 0.02314 0.57192 0.70713 0.0
H468 H 0.01221 0.60915 0.73677 0.0
H469 H 0.01479 0.62609 0.76966 0.0
H470 H 0.98861 0.67488 0.74638 0.0
H471 H 0.98581 0.65758 0.71347 0.0
H472 H 0.96029 0.61913 0.62292 0.0
H473 H 0.96917 0.6034 0.65241 0.0
H474 H 0.98608 0.57458 0.58837 0.0
H475 H 0.99415 0.55861 0.61779 0.0
H476 H 0.9996 0.50056 0.6799 0.0
H477 H 0.03515 0.50378 0.73527 0.0
H478 H 0.03161 0.5389 0.74038 0.0
H479 H 0.99688 0.53552 0.68482 0.0
C480 C 0.68539 0.37417 0.65233 0.0
C481 C 0.67098 0.38241 0.64094 0.0
C482 C 0.64743 0.37566 0.66439 0.0
C483 C 0.65218 0.38314 0.6469 0.0
C484 C 0.66198 0.36743 0.67575 0.0
C485 C 0.68079 0.36669 0.66976 0.0
U486 U 0.72152 0.38561 0.6159 0.0
O487 O 0.75252 0.3972 0.61984 0.0
O488 O 0.74379 0.3685 0.60358 0.0
C489 C 0.75838 0.3812 0.61136 0.0
C490 C 0.70518 0.37344 0.64611 0.0
C491 C 0.77549 0.37337 0.62151 0.0
C492 C 0.79604 0.34679 0.62616 0.0
C493 C 0.77889 0.3536 0.61797 0.0
C494 C 0.80667 0.37928 0.64172 0.0
C495 C 0.81021 0.35959 0.63802 0.0
C496 C 0.78959 0.38608 0.63352 0.0
C497 C 0.70315 0.4118 0.572 0.0
C498 C 0.72365 0.42937 0.55116 0.0
C499 C 0.68934 0.42022 0.54058 0.0
C500 C 0.68715 0.41165 0.55795 0.0
C501 C 0.70763 0.42921 0.53694 0.0
C502 C 0.72145 0.42068 0.5685 0.0
C503 C 0.70035 0.40277 0.59021 0.0
O504 O 0.7063 0.36209 0.62999 0.0
O505 O 0.71542 0.39052 0.64661 0.0
O506 O 0.70975 0.41208 0.60625 0.0
O507 O 0.70105 0.38374 0.58923 0.0
H508 H 0.67432 0.38832 0.62746 0.0
H509 H 0.64144 0.3898 0.63792 0.0
H510 H 0.65877 0.3613 0.68915 0.0
H511 H 0.69174 0.36024 0.6787 0.0
H512 H 0.79823 0.33152 0.62311 0.0
H513 H 0.76849 0.34343 0.60858 0.0
H514 H 0.81741 0.38966 0.65045 0.0
H515 H 0.78768 0.40147 0.63624 0.0
H516 H 0.73789 0.43633 0.54897 0.0
H517 H 0.67677 0.41946 0.52985 0.0
H518 H 0.67292 0.40479 0.56039 0.0
H519 H 0.73402 0.42094 0.57917 0.0
C520 C 0.80369 0.67348 0.23308 0.0
C521 C 0.81709 0.65932 0.23286 0.0
C522 C 0.8424 0.68294 0.25042 0.0
C523 C 0.83623 0.66398 0.24155 0.0
C524 C 0.82911 0.69725 0.25008 0.0
C525 C 0.80987 0.69252 0.24155 0.0
U526 U 0.76479 0.64225 0.19814 0.0
O527 O 0.73631 0.62797 0.20342 0.0
O528 O 0.73771 0.65015 0.18254 0.0
C529 C 0.72645 0.63854 0.19187 0.0
C530 C 0.78315 0.66841 0.22508 0.0
C531 C 0.70981 0.64692 0.20015 0.0
C532 C 0.69588 0.66439 0.22687 0.0
C533 C 0.71225 0.65887 0.21791 0.0
C534 C 0.6746 0.64681 0.19993 0.0
C535 C 0.67683 0.658 0.21821 0.0
C536 C 0.69094 0.64133 0.19101 0.0
C537 C 0.7781 0.60169 0.16279 0.0
C538 C 0.75253 0.57809 0.1459 0.0
C539 C 0.78584 0.57774 0.13736 0.0
C540 C 0.79177 0.59354 0.15145 0.0
C541 C 0.76616 0.56978 0.13448 0.0
C542 C 0.75844 0.59392 0.15988 0.0
C543 C 0.78433 0.61817 0.17772 0.0
O544 O 0.77885 0.67212 0.20691 0.0
O545 O 0.77527 0.65127 0.22887 0.0
O546 O 0.77956 0.61537 0.19534 0.0
O547 O 0.78082 0.6355 0.17253 0.0
H548 H 0.81267 0.64457 0.22622 0.0
H549 H 0.84623 0.65273 0.24132 0.0
H550 H 0.83342 0.71195 0.25688 0.0
H551 H 0.79974 0.70365 0.24181 0.0
H552 H 0.69813 0.67322 0.24081 0.0
H553 H 0.72677 0.66333 0.22515 0.0
H554 H 0.66021 0.64137 0.19294 0.0
H555 H 0.68881 0.63202 0.17734 0.0
H556 H 0.73721 0.57257 0.14381 0.0
H557 H 0.7967 0.57162 0.12886 0.0
H558 H 0.80701 0.59937 0.15353 0.0
H559 H 0.74765 0.60013 0.16841 0.0
C560 C 0.27309 0.00315 0.35186 0.0
C561 C 0.25734 0.99317 0.35956 0.0
C562 C 0.23425 0.00667 0.33692 0.0
C563 C 0.23813 0.99482 0.35209 0.0
C564 C 0.25011 0.01605 0.32873 0.0
C565 C 0.26938 0.01433 0.33619 0.0
U566 U 0.30426 1.00054 0.39844 0.0
O567 O 0.33141 0.98731 0.4061 0.0
O568 O 0.33032 0.01893 0.41246 0.0
C569 C 0.34123 0.00426 0.41236 0.0
C570 C 0.29297 0.00381 0.36175 0.0
C571 C 0.36029 0.00783 0.40478 0.0
C572 C 0.37998 0.01277 0.37788 0.0
C573 C 0.36164 0.01026 0.38498 0.0
C574 C 0.39571 0.0108 0.41041 0.0
C575 C 0.39722 0.01284 0.39048 0.0
C576 C 0.37738 0.00832 0.41748 0.0
C577 C 0.27784 0.99278 0.44334 0.0
C578 C 0.29636 0.99355 0.47503 0.0
C579 C 0.261 0.99285 0.4727 0.0
C580 C 0.26045 0.99235 0.45237 0.0
C581 C 0.27899 0.99383 0.48427 0.0
C582 C 0.29579 0.99308 0.45471 0.0
C583 C 0.2773 0.99436 0.42228 0.0
O584 O 0.29776 0.01898 0.37474 0.0
O585 O 0.29786 0.98729 0.36806 0.0
O586 O 0.28449 0.98017 0.41206 0.0
O587 O 0.28323 0.01181 0.41762 0.0
H588 H 0.25984 0.98462 0.37181 0.0
H589 H 0.2263 0.98714 0.35851 0.0
H590 H 0.24762 0.02543 0.31716 0.0
H591 H 0.28135 0.02233 0.33024 0.0
H592 H 0.38063 0.01405 0.36242 0.0
H593 H 0.34852 0.00988 0.37499 0.0
H594 H 0.4087 0.01101 0.42052 0.0
H595 H 0.37655 0.00653 0.43283 0.0
H596 H 0.31046 0.99455 0.48353 0.0
H597 H 0.24737 0.99283 0.47939 0.0
H598 H 0.24649 0.99213 0.44375 0.0
H599 H 0.30937 0.99355 0.44791 0.0
C600 C 0.24362 1.00007 0.73543 0.0
C601 C 0.25627 0.01548 0.74555 0.0
C602 C 0.28375 0.00387 0.72971 0.0
C603 C 0.27609 0.01743 0.74264 0.0
C604 C 0.27106 0.98829 0.71975 0.0
C605 C 0.25114 0.98645 0.72255 0.0
U606 U 0.20748 0.00871 0.77134 0.0
O607 O 0.17839 0.01925 0.76975 0.0
O608 O 0.18232 0.99039 0.77985 0.0
C609 C 0.16994 0.00305 0.77521 0.0
C610 C 0.223 0.99755 0.73951 0.0
C611 C 0.15144 0.99523 0.76378 0.0
C612 C 0.13023 0.99091 0.73333 0.0
C613 C 0.14887 0.99542 0.74339 0.0
C614 C 0.11687 0.98488 0.76378 0.0
C615 C 0.11391 0.98612 0.74351 0.0
C616 C 0.13545 0.98941 0.7738 0.0
C617 C 0.22962 0.0356 0.82051 0.0
C618 C 0.2195 0.03338 0.85313 0.0
C619 C 0.23979 0.06194 0.84613 0.0
C620 C 0.23961 0.05399 0.82677 0.0
C621 C 0.2301 0.05153 0.85967 0.0
C622 C 0.21919 0.02553 0.83372 0.0
C623 C 0.23109 0.02688 0.8005 0.0
O624 O 0.21949 0.98579 0.75303 0.0
O625 O 0.21447 0.01381 0.74164 0.0
O626 O 0.22304 0.03596 0.78636 0.0
O627 O 0.22785 0.00773 0.79747 0.0
H628 H 0.25086 0.02593 0.75592 0.0
H629 H 0.28549 0.02937 0.75081 0.0
H630 H 0.27649 0.97759 0.70971 0.0
H631 H 0.24166 0.9743 0.71482 0.0
H632 H 0.1285 0.99173 0.71768 0.0
H633 H 0.16108 0.99981 0.73539 0.0
H634 H 0.10465 0.9815 0.77214 0.0
H635 H 0.13717 0.98926 0.78955 0.0
H636 H 0.21208 0.02482 0.86315 0.0
H637 H 0.2478 0.07609 0.85056 0.0
H638 H 0.24763 0.06205 0.81676 0.0
H639 H 0.21124 0.01135 0.82922 0.0
C640 C 0.6509 0.68113 0.3789 0.0
C641 C 0.64614 0.66895 0.39338 0.0
C642 C 0.66252 0.64289 0.37758 0.0
C643 C 0.652 0.65003 0.39279 0.0
C644 C 0.6673 0.6552 0.36315 0.0
C645 C 0.66156 0.67416 0.36384 0.0
U646 U 0.61454 0.71684 0.39265 0.0
O647 O 0.61854 0.74784 0.404 0.0
O648 O 0.60127 0.73883 0.37583 0.0
C649 C 0.60929 0.75348 0.38829 0.0
C650 C 0.64421 0.70079 0.37893 0.0
C651 C 0.61943 0.76985 0.37975 0.0
C652 C 0.64903 0.78666 0.37016 0.0
C653 C 0.63937 0.77027 0.37695 0.0
C654 C 0.61873 0.802 0.36815 0.0
C655 C 0.63887 0.80285 0.36594 0.0
C656 C 0.60913 0.78566 0.37502 0.0
C657 C 0.57184 0.69911 0.42038 0.0
C658 C 0.55213 0.72026 0.43871 0.0
C659 C 0.53984 0.68656 0.4285 0.0
C660 C 0.55704 0.68372 0.4198 0.0
C661 C 0.53713 0.70488 0.43806 0.0
C662 C 0.56927 0.71743 0.42987 0.0
C663 C 0.58968 0.69581 0.41084 0.0
O664 O 0.6276 0.70176 0.36829 0.0
O665 O 0.64541 0.71098 0.39611 0.0
O666 O 0.60606 0.7051 0.41956 0.0
O667 O 0.58808 0.69624 0.39176 0.0
H668 H 0.6377 0.67398 0.40502 0.0
H669 H 0.64789 0.64082 0.40397 0.0
H670 H 0.67554 0.65019 0.35136 0.0
H671 H 0.6653 0.68334 0.35251 0.0
H672 H 0.66449 0.78677 0.3684 0.0
H673 H 0.64753 0.7581 0.38039 0.0
H674 H 0.61053 0.81429 0.36529 0.0
H675 H 0.59372 0.78557 0.37709 0.0
H676 H 0.55068 0.73449 0.44611 0.0
H677 H 0.5285 0.67449 0.42735 0.0
H678 H 0.55872 0.66951 0.41243 0.0
H679 H 0.5805 0.72956 0.43043 0.0
C680 C 0.7116 0.22929 0.01814 0.0
C681 C 0.71832 0.24357 0.03365 0.0
C682 C 0.69862 0.26694 0.01895 0.0
C683 C 0.71176 0.26218 0.03412 0.0
C684 C 0.69132 0.25234 0.00387 0.0
C685 C 0.69776 0.23368 0.00348 0.0
U686 U 0.75744 0.20459 0.02401 0.0
O687 O 0.76446 0.17604 0.03287 0.0
O688 O 0.77067 0.18425 0.00385 0.0
C689 C 0.7702 0.17042 0.01576 0.0
C690 C 0.72097 0.21099 0.01571 0.0
C691 C 0.76183 0.15097 0.00699 0.0
C692 C 0.73405 0.12664 0.99798 0.0
C693 C 0.74157 0.1457 0.00513 0.0
C694 C 0.76692 0.11825 0.99378 0.0
C695 C 0.74669 0.11262 0.9925 0.0
C696 C 0.7744 0.13725 0.00098 0.0
C697 C 0.80271 0.23768 0.04643 0.0
C698 C 0.83487 0.22605 0.05054 0.0
C699 C 0.83118 0.26058 0.05706 0.0
C700 C 0.81101 0.25677 0.05233 0.0
C701 C 0.84337 0.2453 0.05595 0.0
C702 C 0.81467 0.22227 0.04574 0.0
C703 C 0.78172 0.23425 0.04017 0.0
O704 O 0.73379 0.21102 0.00273 0.0
O705 O 0.72717 0.20382 0.03194 0.0
O706 O 0.77149 0.22254 0.05032 0.0
O707 O 0.77726 0.23072 0.0212 0.0
H708 H 0.72921 0.24062 0.04505 0.0
H709 H 0.71746 0.27287 0.04614 0.0
H710 H 0.6813 0.25537 0.99183 0.0
H711 H 0.6926 0.22294 0.99126 0.0
H712 H 0.71839 0.12281 0.99698 0.0
H713 H 0.73164 0.1562 0.00957 0.0
H714 H 0.77707 0.10776 0.98996 0.0
H715 H 0.79008 0.14111 0.00231 0.0
H716 H 0.8439 0.21402 0.04933 0.0
H717 H 0.83728 0.27551 0.0614 0.0
H718 H 0.80193 0.2688 0.05295 0.0
H719 H 0.80842 0.20743 0.0411 0.0
C720 C 0.23842 0.81519 0.65511 0.0
C721 C 0.23069 0.82829 0.64278 0.0
C722 C 0.25188 0.85537 0.66088 0.0
C723 C 0.23736 0.8482 0.64562 0.0
C724 C 0.25934 0.84214 0.67335 0.0
C725 C 0.25267 0.82224 0.67046 0.0
U726 U 0.205 0.77231 0.62834 0.0
O727 O 0.21167 0.74342 0.61629 0.0
O728 O 0.1917 0.74565 0.63927 0.0
C729 C 0.20118 0.73407 0.62815 0.0
C730 C 0.23204 0.79414 0.65185 0.0
C731 C 0.2106 0.71858 0.63758 0.0
C732 C 0.23864 0.70674 0.6551 0.0
C733 C 0.22904 0.72225 0.64831 0.0
C734 C 0.21111 0.68396 0.64116 0.0
C735 C 0.22997 0.68733 0.65122 0.0
C736 C 0.20156 0.69944 0.63443 0.0
C737 C 0.16588 0.78035 0.58849 0.0
C738 C 0.14799 0.75264 0.56836 0.0
C739 C 0.139 0.78539 0.56481 0.0
C740 C 0.1539 0.79291 0.57935 0.0
C741 C 0.13588 0.76516 0.55911 0.0
C742 C 0.16282 0.76017 0.58294 0.0
C743 C 0.18159 0.78834 0.60367 0.0
O744 O 0.21454 0.78886 0.65689 0.0
O745 O 0.23534 0.78557 0.63483 0.0
O746 O 0.19922 0.78415 0.6001 0.0
O747 O 0.17789 0.78613 0.62175 0.0
H748 H 0.21967 0.82307 0.63081 0.0
H749 H 0.23144 0.85788 0.6356 0.0
H750 H 0.27028 0.84716 0.68542 0.0
H751 H 0.25874 0.81233 0.68017 0.0
H752 H 0.25303 0.70991 0.66301 0.0
H753 H 0.23622 0.737 0.65091 0.0
H754 H 0.20407 0.66925 0.63761 0.0
H755 H 0.18736 0.69634 0.6261 0.0
H756 H 0.14579 0.73698 0.56458 0.0
H757 H 0.13004 0.79543 0.55788 0.0
H758 H 0.15609 0.80853 0.58344 0.0
H759 H 0.17189 0.75024 0.58993 0.0
C760 C 0.36056 0.28077 0.00988 0.0
C761 C 0.36924 0.26358 0.00507 0.0
C762 C 0.34092 0.244 0.01404 0.0
C763 C 0.35949 0.24537 0.00706 0.0
C764 C 0.33213 0.26128 0.01856 0.0
C765 C 0.3419 0.27954 0.01648 0.0
U766 U 0.40903 0.30948 0.00798 0.0
O767 O 0.41832 0.33443 0.99215 0.0
O768 O 0.42252 0.33696 0.02421 0.0
C769 C 0.42323 0.34611 0.00832 0.0
C770 C 0.3716 0.29989 0.00936 0.0
C771 C 0.41568 0.36558 0.00893 0.0
C772 C 0.40638 0.39458 0.02726 0.0
C773 C 0.41307 0.37601 0.02683 0.0
C774 C 0.40514 0.39283 0.99197 0.0
C775 C 0.40229 0.40319 0.00982 0.0
C776 C 0.41185 0.37431 0.99154 0.0
C777 C 0.45396 0.28204 0.00642 0.0
C778 C 0.48575 0.30009 0.0062 0.0
C779 C 0.48333 0.26514 0.00867 0.0
C780 C 0.46296 0.26475 0.00787 0.0
C781 C 0.49495 0.28286 0.00801 0.0
C782 C 0.46542 0.29968 0.00543 0.0
C783 C 0.43273 0.28182 0.00676 0.0
O784 O 0.38374 0.30558 0.02502 0.0
O785 O 0.3794 0.3025 0.99296 0.0
O786 O 0.42336 0.28731 0.99106 0.0
O787 O 0.42716 0.28976 0.02312 0.0
H788 H 0.38378 0.26428 1.00019 0.0
H789 H 0.3668 0.23239 0.00376 0.0
H790 H 0.31778 0.26069 0.02383 0.0
H791 H 0.33505 0.29269 0.02037 0.0
H792 H 0.40462 0.40227 0.04127 0.0
H793 H 0.41624 0.36989 0.04054 0.0
H794 H 0.40189 0.39889 0.97824 0.0
H795 H 0.41398 0.36682 0.97754 0.0
H796 H 0.49428 0.31402 0.00596 0.0
H797 H 0.48997 0.2516 0.00987 0.0
H798 H 0.45426 0.25102 0.00865 0.0
H799 H 0.45865 0.31319 0.00443 0.0
C800 C 0.36962 0.65076 0.68349 0.0
C801 C 0.379 0.63966 0.66979 0.0
C802 C 0.37069 0.66137 0.64498 0.0
C803 C 0.37954 0.64491 0.65072 0.0
C804 C 0.36152 0.6726 0.65889 0.0
C805 C 0.36096 0.6673 0.67798 0.0
U806 U 0.38014 0.61413 0.71929 0.0
O807 O 0.38963 0.61694 0.75076 0.0
O808 O 0.3617 0.60005 0.73958 0.0
C809 C 0.37353 0.60722 0.75506 0.0
C810 C 0.36826 0.64459 0.70323 0.0
C811 C 0.3643 0.61527 0.77216 0.0
C812 C 0.36151 0.64118 0.79786 0.0
C813 C 0.3685 0.63483 0.78014 0.0
C814 C 0.34539 0.60879 0.79938 0.0
C815 C 0.35028 0.62808 0.80794 0.0
C816 C 0.35236 0.60247 0.78173 0.0
C817 C 0.40716 0.57068 0.70017 0.0
C818 C 0.40347 0.5356 0.70254 0.0
C819 C 0.43512 0.55166 0.69773 0.0
C820 C 0.42709 0.5696 0.69784 0.0
C821 C 0.42329 0.53442 0.6997 0.0
C822 C 0.39549 0.55353 0.70283 0.0
C823 C 0.3986 0.58943 0.69831 0.0
O824 O 0.3569 0.62837 0.70384 0.0
O825 O 0.38503 0.64514 0.71408 0.0
O826 O 0.40762 0.60484 0.70908 0.0
O827 O 0.37943 0.58885 0.69746 0.0
H828 H 0.38576 0.62681 0.6738 0.0
H829 H 0.38695 0.63608 0.6405 0.0
H830 H 0.35437 0.68523 0.65491 0.0
H831 H 0.35356 0.67597 0.68835 0.0
H832 H 0.36566 0.6561 0.80409 0.0
H833 H 0.37768 0.64503 0.77306 0.0
H834 H 0.3365 0.59841 0.80656 0.0
H835 H 0.34891 0.58733 0.77586 0.0
H836 H 0.39407 0.5226 0.7044 0.0
H837 H 0.45041 0.55118 0.69541 0.0
H838 H 0.43637 0.58258 0.69564 0.0
H839 H 0.3801 0.55383 0.70473 0.0
C840 C 0.01867 0.71315 0.23009 0.0
C841 C 0.03342 0.71979 0.2452 0.0
C842 C 0.01754 0.69933 0.26723 0.0
C843 C 0.03293 0.71282 0.26356 0.0
C844 C 0.00319 0.69218 0.25187 0.0
C845 C 0.00377 0.69903 0.23345 0.0
U846 U 0.02517 0.7589 0.2049 0.0
O847 O 0.03651 0.76548 0.17725 0.0
O848 O 0.00623 0.77043 0.18215 0.0
C849 C 0.01952 0.76999 0.16965 0.0
C850 C 0.01743 0.72247 0.21173 0.0
C851 C 0.01285 0.76017 0.15017 0.0
C852 C 0.0063 0.73062 0.12781 0.0
C853 C 0.0111 0.73971 0.14677 0.0
C854 C 0.00414 0.76234 0.11567 0.0
C855 C 0.00311 0.74186 0.112 0.0
C856 C 0.00901 0.7714 0.13461 0.0
C857 C 0.04381 0.80583 0.23672 0.0
C858 C 0.04929 0.83662 0.22267 0.0
C859 C 0.05134 0.83605 0.25787 0.0
C860 C 0.04715 0.81575 0.25548 0.0
C861 C 0.05225 0.84676 0.24149 0.0
C862 C 0.04506 0.81631 0.22031 0.0
C863 C 0.03831 0.78469 0.23445 0.0
O864 O 0.00399 0.73477 0.21047 0.0
O865 O 0.03418 0.72918 0.20589 0.0
O866 O 0.04976 0.77422 0.22449 0.0
O867 O 0.0196 0.77944 0.22953 0.0
H868 H 0.045 0.73084 0.24303 0.0
H869 H 0.04442 0.7184 0.27489 0.0
H870 H 0.99101 0.68194 0.25412 0.0
H871 H 0.99215 0.6939 0.22205 0.0
H872 H 0.00541 0.71482 0.12547 0.0
H873 H 0.01391 0.73083 0.15871 0.0
H874 H 0.00203 0.77143 0.10379 0.0
H875 H 0.0103 0.78722 0.13702 0.0
H876 H 0.0501 0.84439 0.20976 0.0
H877 H 0.05323 0.8434 0.27254 0.0
H878 H 0.04614 0.80783 0.26828 0.0
H879 H 0.04249 0.80882 0.2057 0.0
C880 C 0.6782 0.24114 0.80647 0.0
C881 C 0.66347 0.24157 0.81924 0.0
C882 C 0.6868 0.25827 0.84529 0.0
C883 C 0.66771 0.25016 0.83844 0.0
C884 C 0.70163 0.25733 0.83262 0.0
C885 C 0.69733 0.2489 0.81332 0.0
U886 U 0.6484 0.20554 0.76715 0.0
O887 O 0.63478 0.21021 0.73826 0.0
O888 O 0.65742 0.18981 0.74062 0.0
C889 C 0.64587 0.19877 0.72894 0.0
C890 C 0.67372 0.23299 0.78593 0.0
C891 C 0.65408 0.20622 0.71171 0.0
C892 C 0.65971 0.23257 0.69111 0.0
C893 C 0.65576 0.22626 0.70919 0.0
C894 C 0.66189 0.19907 0.67835 0.0
C895 C 0.66208 0.21896 0.67525 0.0
C896 C 0.65784 0.19277 0.69638 0.0
C897 C 0.60812 0.16933 0.77815 0.0
C898 C 0.58822 0.15144 0.75037 0.0
C899 C 0.58379 0.14295 0.78312 0.0
C900 C 0.59846 0.15777 0.79073 0.0
C901 C 0.57866 0.13949 0.76281 0.0
C902 C 0.60283 0.16612 0.75795 0.0
C903 C 0.62387 0.18461 0.78575 0.0
O904 O 0.67788 0.21493 0.78191 0.0
O905 O 0.65663 0.23642 0.77755 0.0
O906 O 0.62093 0.20219 0.78095 0.0
O907 O 0.64165 0.18001 0.78328 0.0
H908 H 0.64864 0.23545 0.81433 0.0
H909 H 0.65606 0.2504 0.84797 0.0
H910 H 0.71644 0.26352 0.83749 0.0
H911 H 0.70889 0.24864 0.80368 0.0
H912 H 0.65964 0.24798 0.68924 0.0
H913 H 0.653 0.23697 0.72083 0.0
H914 H 0.66404 0.18824 0.66658 0.0
H915 H 0.65668 0.17725 0.69804 0.0
H916 H 0.58441 0.14947 0.7347 0.0
H917 H 0.57683 0.13392 0.79307 0.0
H918 H 0.6024 0.16006 0.80637 0.0
H919 H 0.6101 0.17494 0.748 0.0
C920 C 0.00732 0.36004 0.28061 0.0
C921 C 1.00002 0.36888 0.26429 0.0
C922 C 0.00814 0.34169 0.24253 0.0
C923 C 1.00031 0.35974 0.24546 0.0
C924 C 0.01486 0.33258 0.25898 0.0
C925 C 0.01447 0.34172 0.27787 0.0
U926 U 0.01265 0.40844 0.31074 0.0
O927 O 1.00003 0.41925 0.33733 0.0
O928 O 0.03191 0.41988 0.33716 0.0
C929 C 0.01718 0.42261 0.34762 0.0
C930 C 0.00928 0.37081 0.30016 0.0
C931 C 0.01841 0.41468 0.36668 0.0
C932 C 0.0213 0.38748 0.38642 0.0
C933 C 0.02068 0.39486 0.36817 0.0
C934 C 0.0175 0.41971 0.40183 0.0
C935 C 0.01955 0.3998 0.40344 0.0
C936 C 0.01696 0.42707 0.38359 0.0
C937 C 0.0138 0.45417 0.28308 0.0
C938 C 0.03374 0.48537 0.28547 0.0
C939 C 0.99849 0.48428 0.27959 0.0
C940 C 0.99697 0.46396 0.27973 0.0
C941 C 0.01689 0.49521 0.28257 0.0
C942 C 0.03223 0.46509 0.2857 0.0
C943 C 0.01204 0.43267 0.28352 0.0
O944 O 0.02626 0.38114 0.30493 0.0
O945 O 0.99433 0.38041 0.30447 0.0
O946 O 0.99611 0.42491 0.29014 0.0
O947 O 0.0279 0.425 0.28993 0.0
H948 H 0.99458 0.38313 0.26607 0.0
H949 H 0.99473 0.36702 0.23315 0.0
H950 H 0.02117 0.31878 0.25725 0.0
H951 H 0.02036 0.33479 0.29029 0.0
H952 H 0.02262 0.37203 0.38715 0.0
H953 H 0.02173 0.38507 0.3552 0.0
H954 H 0.0163 0.4296 0.41467 0.0
H955 H 0.01524 0.44243 0.38267 0.0
H956 H 0.04812 0.49341 0.288 0.0
H957 H 0.98527 0.49144 0.27705 0.0
H958 H 0.98259 0.45593 0.27733 0.0
H959 H 0.04553 0.45803 0.28809 0.0
H960 H 0.29701 0.57644 0.61179 0.0
H961 H 0.30424 0.5152 0.61129 0.0
H962 H 0.28425 0.54622 0.66163 0.0
C963 C 0.29678 0.56325 0.61927 0.0
C964 C 0.2904 0.56357 0.63799 0.0
C965 C 0.30168 0.54593 0.6095 0.0
C966 C 0.30055 0.52862 0.61883 0.0
C967 C 0.29451 0.52878 0.63786 0.0
C968 C 0.28919 0.54621 0.64715 0.0
N969 N 0.29328 0.51177 0.64805 0.0
C970 C 0.30043 0.49419 0.64214 0.0
H971 H 0.31886 0.49972 0.96374 0.0
H972 H 0.28355 0.54682 0.9758 0.0
H973 H 0.32946 0.53535 0.01863 0.0
C974 C 0.3157 0.5122 0.97324 0.0
C975 C 0.32626 0.51646 0.99165 0.0
C976 C 0.30017 0.52291 0.9675 0.0
C977 C 0.29561 0.5386 0.98015 0.0
C978 C 0.30645 0.5433 0.99854 0.0
C979 C 0.32143 0.53194 0.00431 0.0
N980 N 0.30243 0.55899 0.01184 0.0
C981 C 0.29148 0.57406 0.00679 0.0
H982 H 0.6866 0.94255 0.38217 0.0
H983 H 0.70643 0.99519 0.35807 0.0
H984 H 0.69965 0.94005 0.32229 0.0
C985 C 0.69127 0.9499 0.36988 0.0
C986 C 0.69252 0.93889 0.35203 0.0
C987 C 0.69614 0.9702 0.37213 0.0
C988 C 0.70259 0.97952 0.35629 0.0
C989 C 0.70386 0.96867 0.33821 0.0
C990 C 0.69859 0.94842 0.33615 0.0
N991 N 0.71057 0.97766 0.32198 0.0
C992 C 0.71653 0.99751 0.32269 0.0
H993 H 0.73659 0.97448 0.013 0.0
H994 H 0.72346 0.91366 0.99264 0.0
H995 H 0.70942 0.95787 0.95469 0.0
C996 C 0.73091 0.96316 0.00146 0.0
C997 C 0.72291 0.96849 0.98356 0.0
C998 C 0.73139 0.94345 0.00477 0.0
C999 C 0.7233 0.9289 0.99003 0.0
C1000 C 0.71543 0.93408 0.97184 0.0
C1001 C 0.71566 0.95388 0.96859 0.0
N1002 N 0.70689 0.91976 0.95672 0.0
C1003 C 0.70059 0.90078 0.96011 0.0
H1004 H 0.60173 0.26724 0.55662 0.0
H1005 H 0.60762 0.30112 0.50771 0.0
H1006 H 0.65862 0.28182 0.53817 0.0
C1007 C 0.6108 0.27384 0.54645 0.0
C1008 C 0.63109 0.27301 0.54893 0.0
C1009 C 0.60221 0.2841 0.53179 0.0
C1010 C 0.61416 0.29316 0.51903 0.0
C1011 C 0.63457 0.2921 0.52119 0.0
C1012 C 0.6429 0.28237 0.53638 0.0
N1013 N 0.64727 0.30088 0.50866 0.0
C1014 C 0.64127 0.30686 0.49056 0.0
H1015 H 0.04034 0.72414 0.97908 0.0
H1016 H 0.02558 0.70948 0.91747 0.0
H1017 H 0.98353 0.69529 0.95798 0.0
C1018 C 0.02993 0.71757 0.96706 0.0
C1019 C 0.01148 0.70939 0.97088 0.0
C1020 C 0.035 0.71769 0.94787 0.0
C1021 C 0.02157 0.70928 0.93228 0.0
C1022 C 0.00284 0.70127 0.93593 0.0
C1023 C 0.99791 0.7015 0.95521 0.0
N1024 N 0.98853 0.69309 0.92063 0.0
C1025 C 0.99191 0.69117 0.90105 0.0
H1026 H 0.96805 0.31865 0.49967 0.0
H1027 H 0.97776 0.28455 0.54813 0.0
H1028 H 0.0215 0.33008 0.53763 0.0
C1029 C 0.977 0.31575 0.51264 0.0
C1030 C 0.9953 0.3264 0.51754 0.0
C1031 C 0.97069 0.30052 0.52343 0.0
C1032 C 0.98261 0.29636 0.53982 0.0
C1033 C 1.00087 0.3073 0.5452 0.0
C1034 C 0.00728 0.32196 0.53374 0.0
N1035 N 0.01327 0.30375 0.56179 0.0
C1036 C 0.00712 0.29295 0.57658 0.0
H1037 H 0.3656 0.67251 0.95003 0.0
H1038 H 0.34147 0.69676 0.00098 0.0
H1039 H 0.30405 0.67915 0.94772 0.0
C1040 C 0.35304 0.67668 0.95725 0.0
C1041 C 0.33456 0.67466 0.9466 0.0
C1042 C 0.35567 0.68478 0.97679 0.0
C1043 C 0.33945 0.69067 0.98584 0.0
C1044 C 0.32072 0.68851 0.97545 0.0
C1045 C 0.31843 0.68072 0.95577 0.0
N1046 N 0.30397 0.69398 0.98438 0.0
C1047 C 0.3046 0.70181 0.00374 0.0
H1048 H 0.56797 0.61075 0.28702 0.0
H1049 H 0.50643 0.60741 0.29383 0.0
H1050 H 0.53454 0.65739 0.27061 0.0
C1051 C 0.55429 0.6174 0.28621 0.0
C1052 C 0.55345 0.63547 0.27853 0.0
C1053 C 0.53744 0.60713 0.29161 0.0
C1054 C 0.5195 0.61536 0.28981 0.0
C1055 C 0.51854 0.63371 0.28246 0.0
C1056 C 0.53544 0.64344 0.27655 0.0
N1057 N 0.50081 0.64263 0.28021 0.0
C1058 C 0.48436 0.63797 0.28978 0.0
H1059 H 0.98447 0.03426 0.71225 0.0
H1060 H 0.92213 0.02 0.70431 0.0
H1061 H 0.96054 0.97431 0.69963 0.0
C1062 C 0.97191 0.02352 0.70868 0.0
C1063 C 0.97486 0.00366 0.70557 0.0
C1064 C 0.95297 0.02957 0.70836 0.0
C1065 C 0.93677 0.01542 0.70459 0.0
C1066 C 0.93951 0.99544 0.70137 0.0
C1067 C 0.95853 0.9897 0.70206 0.0
N1068 N 0.92352 0.9807 0.69765 0.0
C1069 C 0.90416 0.98453 0.69398 0.0
H1070 H 0.49844 0.9704 0.31005 0.0
H1071 H 0.54488 0.98486 0.27456 0.0
H1072 H 0.52872 0.02813 0.31747 0.0
C1073 C 0.51014 0.98068 0.30651 0.0
C1074 C 0.51255 0.99969 0.31595 0.0
C1075 C 0.52148 0.97525 0.2914 0.0
C1076 C 0.53617 0.98884 0.28634 0.0
C1077 C 0.53898 0.00787 0.29606 0.0
C1078 C 0.52682 0.01331 0.31042 0.0
N1079 N 0.55314 0.02221 0.29099 0.0
C1080 C 0.57186 0.01835 0.28693 0.0
H1081 H 0.95191 0.36873 0.67777 0.0
H1082 H 0.00457 0.34246 0.6924 0.0
H1083 H 0.94959 0.30647 0.68047 0.0
C1084 C 0.95922 0.35574 0.68015 0.0
C1085 C 0.94824 0.33745 0.67861 0.0
C1086 C 0.97947 0.35753 0.68511 0.0
C1087 C 0.98891 0.34088 0.6886 0.0
C1088 C 0.9782 0.32234 0.68685 0.0
C1089 C 0.95789 0.32069 0.68158 0.0
N1090 N 0.98742 0.30527 0.69067 0.0
C1091 C 0.00657 0.30584 0.6992 0.0
H1092 H 0.72518 0.43068 0.39847 0.0
H1093 H 0.70988 0.4897 0.39701 0.0
H1094 H 0.7205 0.45604 0.34391 0.0
C1095 C 0.72218 0.44299 0.39031 0.0
C1096 C 0.72312 0.44128 0.37009 0.0
C1097 C 0.71771 0.46045 0.40018 0.0
C1098 C 0.71344 0.47623 0.38945 0.0
C1099 C 0.7145 0.47463 0.36903 0.0
C1100 C 0.71959 0.45723 0.35957 0.0
N1101 N 0.71087 0.49014 0.35742 0.0
C1102 C 0.7039 0.50763 0.36385 0.0
H1103 H 0.68971 0.51014 0.02094 0.0
H1104 H 0.69331 0.45023 0.0326 0.0
H1105 H 0.6472 0.46516 0.99206 0.0
C1106 C 0.68456 0.49477 0.01776 0.0
C1107 C 0.66763 0.48933 0.00496 0.0
C1108 C 0.69389 0.48085 0.02789 0.0
C1109 C 0.68644 0.46102 0.02459 0.0
C1110 C 0.66967 0.4554 0.01137 0.0
C1111 C 0.66034 0.46959 0.00186 0.0
N1112 N 0.66088 0.43588 0.00799 0.0
C1113 C 0.6699 0.41927 0.01188 0.0
H1114 H 0.31043 0.06152 0.61978 0.0
H1115 H 0.30051 0.00469 0.63974 0.0
H1116 H 0.32307 0.054 0.68074 0.0
C1117 C 0.31044 0.05226 0.63168 0.0
C1118 C 0.31718 0.06035 0.65075 0.0
C1119 C 0.30457 0.03221 0.62761 0.0
C1120 C 0.30523 0.02013 0.64289 0.0
C1121 C 0.31181 0.02796 0.66213 0.0
C1122 C 0.31796 0.04801 0.66592 0.0
N1123 N 0.31236 0.01603 0.67789 0.0
C1124 C 0.30538 0.99633 0.67593 0.0
H1125 H 0.25363 0.03417 0.99725 0.0
H1126 H 0.27156 0.09526 0.01206 0.0
H1127 H 0.28381 0.05401 0.05376 0.0
C1128 C 0.26005 0.04603 0.0079 0.0
C1129 C 0.26825 0.04177 0.02619 0.0
C1130 C 0.26131 0.06525 0.00268 0.0
C1131 C 0.27061 0.08043 0.01612 0.0
C1132 C 0.27863 0.07642 0.03468 0.0
C1133 C 0.27739 0.0571 0.03958 0.0
N1134 N 0.28836 0.0914 0.04854 0.0
C1135 C 0.29302 0.1104 0.04409 0.0
H1136 H 0.40157 0.73593 0.44133 0.0
H1137 H 0.39516 0.70507 0.49221 0.0
H1138 H 0.34419 0.71944 0.45755 0.0
C1139 C 0.39233 0.72944 0.45143 0.0
C1140 C 0.37199 0.72904 0.44778 0.0
C1141 C 0.40084 0.72068 0.46726 0.0
C1142 C 0.38867 0.71181 0.47994 0.0
C1143 C 0.36815 0.71156 0.47658 0.0
C1144 C 0.35995 0.71983 0.46026 0.0
N1145 N 0.3553 0.70299 0.48913 0.0
C1146 C 0.3611 0.69783 0.50765 0.0
H1147 H 0.98514 0.26078 0.02943 0.0
H1148 H 0.99755 0.2727 0.09165 0.0
H1149 H 0.04483 0.27136 0.05482 0.0
C1150 C 0.99568 0.26389 0.04222 0.0
C1151 C 0.01572 0.26554 0.03991 0.0
C1152 C 0.98905 0.26656 0.0608 0.0
C1153 C 0.00271 0.27063 0.07731 0.0
C1154 C 0.02293 0.27244 0.0752 0.0
C1155 C 0.0293 0.26988 0.05647 0.0
N1156 N 0.03716 0.27708 0.09153 0.0
C1157 C 0.03259 0.28375 0.11001 0.0
H1158 H 0.01563 0.68973 0.50895 0.0
H1159 H 0.02382 0.69245 0.44817 0.0
H1160 H 0.9786 0.65208 0.46506 0.0
C1161 C 0.01093 0.68504 0.49371 0.0
C1162 C 0.99574 0.67002 0.48886 0.0
C1163 C 0.02109 0.69324 0.47918 0.0
C1164 C 0.01583 0.68638 0.45941 0.0
C1165 C 1.00027 0.67157 0.4544 0.0
C1166 C 0.99043 0.66356 0.46913 0.0
N1167 N 0.99421 0.66375 0.43488 0.0
C1168 C 1.00066 0.67079 0.41812 0.0
H1169 H 0.63529 0.30721 0.06876 0.0
H1170 H 0.64576 0.30212 0.01077 0.0
H1171 H 0.69207 0.32464 0.05846 0.0
C1172 C 0.64601 0.30828 0.0582 0.0
C1173 C 0.66484 0.31604 0.06407 0.0
C1174 C 0.64027 0.30391 0.03871 0.0
C1175 C 0.65395 0.30601 0.02493 0.0
C1176 C 0.67595 0.31234 0.02813 0.0
C1177 C 0.67856 0.31821 0.05022 0.0
N1178 N 0.69946 0.3144 0.00508 0.0
C1179 C 0.70378 0.3113 0.98516 0.0
H1180 H 0.4281 0.39482 0.70567 0.0
H1181 H 0.49015 0.39809 0.70167 0.0
H1182 H 0.4599 0.34634 0.71972 0.0
C1183 C 0.44167 0.38796 0.70654 0.0
C1184 C 0.44178 0.3692 0.71279 0.0
C1185 C 0.45899 0.39852 0.70262 0.0
C1186 C 0.47673 0.38995 0.70461 0.0
C1187 C 0.477 0.37092 0.71055 0.0
C1188 C 0.45957 0.36083 0.71488 0.0
N1189 N 0.49447 0.36153 0.71273 0.0
C1190 C 0.51218 0.36803 0.70617 0.0
H1191 H 0.01975 0.98345 0.2723 0.0
H1192 H 0.0815 0.00108 0.27993 0.0
H1193 H 0.04045 0.04326 0.29162 0.0
C1194 C 0.0318 0.99475 0.27618 0.0
C1195 C 0.02782 0.01381 0.28216 0.0
C1196 C 0.05108 0.99009 0.27512 0.0
C1197 C 0.0666 0.00467 0.2807 0.0
C1198 C 0.06282 0.02394 0.28668 0.0
C1199 C 0.04339 0.02846 0.28702 0.0
N1200 N 0.07822 0.03898 0.29252 0.0
C1201 C 0.09758 0.03529 0.29663 0.0
H1202 H 0.50938 0.01449 0.69518 0.0
H1203 H 0.45474 0.03888 0.70165 0.0
H1204 H 0.45649 0.98638 0.66346 0.0
C1205 C 0.49358 0.01346 0.69219 0.0
C1206 C 0.48412 0.99824 0.67898 0.0
C1207 C 0.4833 0.02848 0.70004 0.0
C1208 C 0.46283 0.02721 0.696 0.0
C1209 C 0.45314 0.01175 0.68295 0.0
C1210 C 0.4639 0.99767 0.67419 0.0
N1211 N 0.43304 0.01131 0.67643 0.0
C1212 C 0.41847 0.01364 0.68882 0.0
H1213 H 0.06861 0.6381 0.30855 0.0
H1214 H 0.00979 0.64535 0.30109 0.0
H1215 H 0.05458 0.6934 0.3265 0.0
C1216 C 0.05732 0.64806 0.30931 0.0
C1217 C 0.06197 0.66698 0.31733 0.0
C1218 C 0.03812 0.64128 0.30433 0.0
C1219 C 0.02349 0.65414 0.30579 0.0
C1220 C 0.02537 0.67609 0.3124 0.0
C1221 C 0.04723 0.67974 0.31933 0.0
N1222 N 1.00093 0.69821 0.31345 0.0
C1223 C 0.98075 0.70148 0.30941 0.0
H1224 H 0.16428 0.66386 0.39513 0.0
H1225 H 0.09467 0.66711 0.2978 0.0
H1226 H 0.18545 0.66415 0.33811 0.0
H1227 H 0.07597 0.67835 0.3553 0.0
H1228 H 0.12861 0.66907 0.31229 0.0
H1229 H 0.13266 0.67203 0.38117 0.0
C1230 C 0.16245 0.66595 0.37974 0.0
C1231 C 0.17764 0.6631 0.36779 0.0
C1232 C 0.11718 0.6715 0.32175 0.0
C1233 C 0.14111 0.6721 0.35158 0.0
C1234 C 0.09785 0.67047 0.31346 0.0
C1235 C 0.08261 0.67259 0.32541 0.0
C1236 C 0.12126 0.6743 0.34219 0.0
C1237 C 0.08738 0.67676 0.34562 0.0
C1238 C 0.14428 0.67053 0.37174 0.0
C1239 C 0.17412 0.66573 0.34785 0.0
N1240 N 0.10627 0.67717 0.35342 0.0
N1241 N 0.1562 0.66987 0.34036 0.0
H1242 H 0.35197 0.33152 0.78354 0.0
H1243 H 0.40547 0.36539 0.69253 0.0
H1244 H 0.32243 0.35141 0.73224 0.0
H1245 H 0.43612 0.35064 0.74566 0.0
H1246 H 0.37446 0.35415 0.70436 0.0
H1247 H 0.38225 0.33249 0.76755 0.0
C1248 C 0.35178 0.3359 0.76884 0.0
C1249 C 0.33464 0.34166 0.75936 0.0
C1250 C 0.38796 0.35312 0.71335 0.0
C1251 C 0.36927 0.34272 0.74093 0.0
C1252 C 0.40566 0.35955 0.70661 0.0
C1253 C 0.42337 0.35922 0.71827 0.0
C1254 C 0.3879 0.34644 0.73199 0.0
C1255 C 0.42281 0.35118 0.73622 0.0
C1256 C 0.36907 0.33638 0.7597 0.0
C1257 C 0.33521 0.34677 0.74015 0.0
N1258 N 0.40534 0.34537 0.74266 0.0
N1259 N 0.35227 0.3474 0.73168 0.0
H1260 H 0.56069 0.97307 0.59423 0.0
H1261 H 0.51293 0.97754 0.69405 0.0
H1262 H 0.58825 0.95486 0.64738 0.0
H1263 H 0.48318 0.98976 0.6395 0.0
H1264 H 0.53796 0.96313 0.67608 0.0
H1265 H 0.52996 0.97323 0.60902 0.0
C1266 C 0.56023 0.96868 0.60887 0.0
C1267 C 0.57725 0.96426 0.61967 0.0
C1268 C 0.52575 0.96856 0.66797 0.0
C1269 C 0.54205 0.96489 0.63691 0.0
C1270 C 0.51145 0.97673 0.67823 0.0
C1271 C 0.49615 0.98505 0.66824 0.0
C1272 C 0.5249 0.96902 0.6476 0.0
C1273 C 0.49477 0.98352 0.64775 0.0
C1274 C 0.54264 0.96889 0.61737 0.0
C1275 C 0.57567 0.95889 0.63867 0.0
N1276 N 0.5092 0.97604 0.63812 0.0
N1277 N 0.55847 0.95965 0.64679 0.0
H1278 H 0.91122 0.03521 0.24283 0.0
H1279 H 1.00075 0.99558 0.30238 0.0
H1280 H 0.90492 0.99745 0.28895 0.0
H1281 H 0.00815 0.04093 0.26384 0.0
H1282 H 0.96562 0.9986 0.29989 0.0
H1283 H 0.94644 0.04027 0.25243 0.0
C1284 C 0.91716 0.02827 0.25521 0.0
C1285 C 0.90508 0.01565 0.26492 0.0
C1286 C 0.97488 0.00813 0.29218 0.0
C1287 C 0.94548 0.02112 0.27575 0.0
C1288 C 0.99493 0.00639 0.29361 0.0
C1289 C 0.00724 0.01793 0.28318 0.0
C1290 C 0.96701 0.02128 0.27994 0.0
C1291 C 0.99907 0.03179 0.2721 0.0
C1292 C 0.93731 0.03109 0.26062 0.0
C1293 C 0.91369 0.00693 0.28074 0.0
N1294 N 0.97938 0.03288 0.27051 0.0
N1295 N 0.93335 0.00965 0.2855 0.0
H1296 H 0.33502 0.18247 0.63375 0.0
H1297 H 0.35044 0.07832 0.67234 0.0
H1298 H 0.38801 0.17029 0.66673 0.0
H1299 H 0.29903 0.09075 0.63705 0.0
H1300 H 0.36284 0.11297 0.67427 0.0
H1301 H 0.32007 0.15014 0.63868 0.0
C1302 C 0.34344 0.17315 0.64231 0.0
C1303 C 0.3629 0.17915 0.64971 0.0
C1304 C 0.34876 0.10814 0.66627 0.0
C1305 C 0.34589 0.14176 0.6551 0.0
C1306 C 0.34163 0.08839 0.66527 0.0
C1307 C 0.32379 0.0816 0.65432 0.0
C1308 C 0.33793 0.12118 0.65629 0.0
C1309 C 0.31302 0.09528 0.64535 0.0
C1310 C 0.33492 0.15457 0.64499 0.0
C1311 C 0.37311 0.1662 0.66043 0.0
N1312 N 0.32031 0.11433 0.64641 0.0
N1313 N 0.36455 0.14809 0.66268 0.0
H1314 H 0.30698 0.9278 0.03708 0.0
H1315 H 0.23795 0.01281 0.02028 0.0
H1316 H 0.24417 0.91758 0.02505 0.0
H1317 H 0.29917 0.02365 0.04116 0.0
H1318 H 0.2397 0.97793 0.02308 0.0
H1319 H 0.30431 0.96295 0.03971 0.0
C1320 C 0.2926 0.93291 0.03518 0.0
C1321 C 0.27578 0.91964 0.03074 0.0
C1322 C 0.25272 0.98793 0.02727 0.0
C1323 C 0.27266 0.95997 0.03347 0.0
C1324 C 0.25172 0.00783 0.02565 0.0
C1325 C 0.26846 0.02109 0.03041 0.0
C1326 C 0.27065 0.9812 0.03349 0.0
C1327 C 0.28589 0.01392 0.03746 0.0
C1328 C 0.2911 0.95302 0.03661 0.0
C1329 C 0.25758 0.92722 0.02813 0.0
N1330 N 0.28659 0.99442 0.03858 0.0
N1331 N 0.25652 0.94685 0.02943 0.0
H1332 H 0.732 0.31895 0.33953 0.0
H1333 H 0.75498 0.43534 0.35034 0.0
H1334 H 0.79059 0.34826 0.34568 0.0
H1335 H 0.70312 0.40531 0.3684 0.0
H1336 H 0.76577 0.40357 0.33901 0.0
H1337 H 0.719 0.3508 0.34055 0.0
C1338 C 0.74215 0.33202 0.34092 0.0
C1339 C 0.76247 0.33083 0.34293 0.0
C1340 C 0.75187 0.404 0.34515 0.0
C1341 C 0.74759 0.36731 0.34369 0.0
C1342 C 0.7457 0.42205 0.35148 0.0
C1343 C 0.72824 0.42277 0.36034 0.0
C1344 C 0.74032 0.38669 0.3475 0.0
C1345 C 0.71674 0.40524 0.3617 0.0
C1346 C 0.73469 0.35018 0.34139 0.0
C1347 C 0.77484 0.34833 0.34404 0.0
N1348 N 0.72302 0.38788 0.35543 0.0
N1349 N 0.76721 0.36585 0.34461 0.0
H1350 H 0.58241 0.57102 0.99248 0.0
H1351 H 0.68193 0.52156 0.98822 0.0
H1352 H 0.63381 0.59859 0.97085 0.0
H1353 H 0.62819 0.49197 0.00293 0.0
H1354 H 0.6639 0.54874 0.97871 0.0
H1355 H 0.59798 0.54076 0.99302 0.0
C1356 C 0.59684 0.57066 0.9875 0.0
C1357 C 0.60687 0.58751 0.98179 0.0
C1358 C 0.656 0.53618 0.98376 0.0
C1359 C 0.62502 0.55288 0.98284 0.0
C1360 C 0.6663 0.52071 0.98924 0.0
C1361 C 0.65657 0.50457 0.99653 0.0
C1362 C 0.63587 0.5356 0.98579 0.0
C1363 C 0.63627 0.50407 0.99731 0.0
C1364 C 0.60579 0.55336 0.98794 0.0
C1365 C 0.62568 0.58612 0.97579 0.0
N1366 N 0.62664 0.51948 0.99225 0.0
N1367 N 0.63423 0.56918 0.97668 0.0
H1368 H 0.67404 0.39479 0.16912 0.0
H1369 H 0.65903 0.29666 0.09629 0.0
H1370 H 0.64813 0.3394 0.18387 0.0
H1371 H 0.68035 0.35273 0.07941 0.0
H1372 H 0.66037 0.31102 0.13015 0.0
H1373 H 0.68132 0.37875 0.13793 0.0
C1374 C 0.66995 0.37924 0.16587 0.0
C1375 C 0.66022 0.36851 0.17911 0.0
C1376 C 0.66504 0.32016 0.11913 0.0
C1377 C 0.6687 0.35 0.14341 0.0
C1378 C 0.66435 0.31194 0.09983 0.0
C1379 C 0.66948 0.32357 0.08505 0.0
C1380 C 0.67077 0.34022 0.12371 0.0
C1381 C 0.67635 0.34325 0.09039 0.0
C1382 C 0.67422 0.37008 0.14808 0.0
C1383 C 0.65572 0.3483 0.17423 0.0
N1384 N 0.67655 0.35103 0.10925 0.0
N1385 N 0.65982 0.33977 0.15673 0.0
H1386 H 0.04022 0.29714 0.92707 0.0
H1387 H 0.00532 0.23561 0.01136 0.0
H1388 H 0.02062 0.23552 0.91752 0.0
H1389 H 0.03989 0.29133 0.02311 0.0
H1390 H 0.01168 0.23489 0.97701 0.0
H1391 H 0.04126 0.29514 0.96225 0.0
C1392 C 0.03641 0.28311 0.93232 0.0
C1393 C 0.03015 0.2665 0.9192 0.0
C1394 C 0.01814 0.24716 0.98712 0.0
C1395 C 0.03095 0.26424 0.95959 0.0
C1396 C 0.0145 0.24756 0.00669 0.0
C1397 C 0.02204 0.26359 0.01997 0.0
C1398 C 0.02912 0.26307 0.98071 0.0
C1399 C 0.03389 0.27868 0.01328 0.0
C1400 C 0.03693 0.28201 0.95246 0.0
C1401 C 0.0251 0.24882 0.92699 0.0
N1402 N 0.03683 0.27821 0.99402 0.0
N1403 N 0.02542 0.2482 0.94664 0.0
H1404 H 0.33299 0.74325 0.32835 0.0
H1405 H 0.38042 0.76611 0.43853 0.0
H1406 H 0.36179 0.79932 0.35289 0.0
H1407 H 0.34544 0.71214 0.41769 0.0
H1408 H 0.37098 0.77934 0.4078 0.0
H1409 H 0.33487 0.73216 0.36118 0.0
C1410 C 0.33954 0.75329 0.34062 0.0
C1411 C 0.34733 0.77224 0.33776 0.0
C1412 C 0.36512 0.76468 0.40996 0.0
C1413 C 0.34951 0.75964 0.37538 0.0
C1414 C 0.3705 0.75716 0.42751 0.0
C1415 C 0.36376 0.73801 0.43054 0.0
C1416 C 0.35314 0.75286 0.39512 0.0
C1417 C 0.35089 0.72701 0.41588 0.0
C1418 C 0.34051 0.74698 0.35938 0.0
C1419 C 0.35539 0.78468 0.3543 0.0
N1420 N 0.3462 0.73449 0.39864 0.0
N1421 N 0.35644 0.7781 0.37229 0.0
H1422 H 0.96164 0.58344 0.56506 0.0
H1423 H 0.98543 0.68659 0.52369 0.0
H1424 H 0.97744 0.63781 0.60142 0.0
H1425 H 0.98534 0.63084 0.48981 0.0
H1426 H 0.97469 0.66951 0.55099 0.0
H1427 H 0.96245 0.6014 0.53612 0.0
C1428 C 0.9651 0.59916 0.56699 0.0
C1429 C 0.96979 0.60907 0.58574 0.0
C1430 C 0.9768 0.66106 0.53748 0.0
C1431 C 0.9705 0.62968 0.55268 0.0
C1432 C 0.98301 0.67078 0.52193 0.0
C1433 C 0.98658 0.66014 0.50451 0.0
C1434 C 0.97409 0.64055 0.53561 0.0
C1435 C 0.98272 0.63969 0.5029 0.0
C1436 C 0.96548 0.60939 0.55046 0.0
C1437 C 0.97365 0.62952 0.58732 0.0
N1438 N 0.97687 0.63055 0.51832 0.0
N1439 N 0.97412 0.63911 0.57101 0.0
H1440 H 0.83022 0.36943 0.67425 0.0
H1441 H 0.92418 0.31448 0.64991 0.0
H1442 H 0.8332 0.33433 0.6198 0.0
H1443 H 0.92338 0.35855 0.69813 0.0
H1444 H 0.88908 0.31683 0.64127 0.0
H1445 H 0.8626 0.36097 0.68571 0.0
C1446 C 0.83765 0.3599 0.6647 0.0
C1447 C 0.82902 0.35282 0.64591 0.0
C1448 C 0.89658 0.32582 0.65386 0.0
C1449 C 0.8662 0.3429 0.65905 0.0
C1450 C 0.91652 0.32439 0.65884 0.0
C1451 C 0.92666 0.33648 0.67461 0.0
C1452 C 0.88676 0.33931 0.66488 0.0
C1453 C 0.91613 0.34915 0.68569 0.0
C1454 C 0.85614 0.35499 0.67129 0.0
C1455 C 0.83922 0.3401 0.63441 0.0
N1456 N 0.89683 0.3503 0.68057 0.0
N1457 N 0.85733 0.33569 0.64109 0.0
H1458 H 0.67338 0.65643 0.25732 0.0
H1459 H 0.55695 0.6519 0.24408 0.0
H1460 H 0.64032 0.66633 0.20356 0.0
H1461 H 0.59062 0.64068 0.29696 0.0
H1462 H 0.58736 0.66287 0.23077 0.0
H1463 H 0.64354 0.65648 0.27371 0.0
C1464 C 0.65994 0.65903 0.24901 0.0
C1465 C 0.65939 0.66114 0.22892 0.0
C1466 C 0.58808 0.65826 0.24539 0.0
C1467 C 0.62492 0.66073 0.2476 0.0
C1468 C 0.57071 0.65212 0.25304 0.0
C1469 C 0.57129 0.64511 0.27154 0.0
C1470 C 0.60613 0.65737 0.25633 0.0
C1471 C 0.58954 0.64561 0.28247 0.0
C1472 C 0.64282 0.65888 0.25838 0.0
C1473 C 0.64139 0.66421 0.21896 0.0
N1474 N 0.60622 0.6514 0.27463 0.0
N1475 N 0.62485 0.66367 0.22833 0.0
H1476 H 0.42789 0.99166 0.39966 0.0
H1477 H 0.49178 0.03171 0.31784 0.0
H1478 H 0.41072 0.03628 0.3634 0.0
H1479 H 0.50228 0.98024 0.34681 0.0
H1480 H 0.46571 0.03785 0.33888 0.0
H1481 H 0.45868 0.99159 0.3848 0.0
C1482 C 0.43071 0.00166 0.38877 0.0
C1483 C 0.41662 0.0139 0.38266 0.0
C1484 C 0.47389 0.02535 0.34078 0.0
C1485 C 0.4518 0.01369 0.36539 0.0
C1486 C 0.48885 0.02194 0.3289 0.0
C1487 C 0.49902 0.00535 0.3305 0.0
C1488 C 0.46919 0.01211 0.35438 0.0
C1489 C 0.49457 0.99305 0.34495 0.0
C1490 C 0.44826 0.00152 0.3802 0.0
C1491 C 0.42102 0.02637 0.36831 0.0
N1492 N 0.47988 0.9966 0.35623 0.0
N1493 N 0.43818 0.02586 0.36007 0.0
H1494 H 0.08236 0.96038 0.74877 0.0
H1495 H 0.00665 0.02011 0.6898 0.0
H1496 H 0.09916 0.00857 0.71599 0.0
H1497 H 0.98912 0.97378 0.72451 0.0
H1498 H 0.04057 0.01278 0.69542 0.0
H1499 H 0.04822 0.96173 0.73623 0.0
C1500 C 0.07891 0.97111 0.73878 0.0
C1501 C 0.09367 0.98452 0.73361 0.0
C1502 C 0.02931 0.00407 0.70167 0.0
C1503 C 0.05461 0.98613 0.71919 0.0
C1504 C 0.00995 0.0083 0.69851 0.0
C1505 C 0.99507 0.99771 0.70691 0.0
C1506 C 0.03392 0.9892 0.71343 0.0
C1507 C 1.00012 0.9823 0.71775 0.0
C1508 C 0.05942 0.97184 0.73158 0.0
C1509 C 0.08835 0.99785 0.72032 0.0
N1510 N 0.01916 0.97866 0.72089 0.0
N1511 N 0.06927 0.99846 0.71376 0.0
H1512 H 0.67455 0.82061 0.38176 0.0
H1513 H 0.66715 0.91611 0.32447 0.0
H1514 H 0.62709 0.82682 0.33825 0.0
H1515 H 0.70633 0.91308 0.37619 0.0
H1516 H 0.65604 0.88131 0.32498 0.0
H1517 H 0.69011 0.85227 0.37539 0.0
C1518 C 0.66754 0.82848 0.37062 0.0
C1519 C 0.6494 0.82108 0.36062 0.0
C1520 C 0.66722 0.88824 0.33608 0.0
C1521 C 0.66705 0.85756 0.35345 0.0
C1522 C 0.67363 0.90801 0.33571 0.0
C1523 C 0.68751 0.91744 0.35043 0.0
C1524 C 0.67492 0.87787 0.35116 0.0
C1525 C 0.6954 0.90638 0.36474 0.0
C1526 C 0.67637 0.84664 0.3671 0.0
C1527 C 0.64092 0.8321 0.34652 0.0
N1528 N 0.68893 0.88723 0.36481 0.0
N1529 N 0.64975 0.84984 0.34343 0.0
H1530 H 0.75739 0.08695 0.96342 0.0
H1531 H 0.70601 0.99472 0.00657 0.0
H1532 H 0.71899 0.09078 0.00941 0.0
H1533 H 0.73742 0.98973 0.95539 0.0
H1534 H 0.70802 0.03009 0.00556 0.0
H1535 H 0.74798 0.05169 0.95798 0.0
C1536 C 0.74684 0.08041 0.97224 0.0
C1537 C 0.73912 0.09182 0.98704 0.0
C1538 C 0.71428 0.02132 0.99437 0.0
C1539 C 0.72831 0.0515 0.9809 0.0
C1540 C 0.71314 0.00115 0.99497 0.0
C1541 C 0.72173 0.98943 0.98115 0.0
C1542 C 0.72438 0.02992 0.98001 0.0
C1543 C 0.73066 0.99835 0.96631 0.0
C1544 C 0.74141 0.0603 0.96906 0.0
C1545 C 0.72526 0.08262 0.99779 0.0
N1546 N 0.73202 0.01816 0.96629 0.0
N1547 N 0.7205 0.063 0.99467 0.0
H1548 H 0.26895 0.68353 0.64858 0.0
H1549 H 0.25676 0.56855 0.65551 0.0
H1550 H 0.21633 0.65245 0.66417 0.0
H1551 H 0.30911 0.60047 0.64057 0.0
H1552 H 0.24366 0.59965 0.6644 0.0
H1553 H 0.28571 0.65415 0.65132 0.0
C1554 C 0.26098 0.67067 0.65298 0.0
C1555 C 0.24106 0.67047 0.65588 0.0
C1556 C 0.25815 0.59986 0.65948 0.0
C1557 C 0.26015 0.63645 0.65858 0.0
C1558 C 0.26568 0.5821 0.65454 0.0
C1559 C 0.28392 0.58195 0.64702 0.0
C1560 C 0.26895 0.61755 0.65684 0.0
C1561 C 0.29482 0.59994 0.64595 0.0
C1562 C 0.27056 0.65379 0.65439 0.0
C1563 C 0.23154 0.65319 0.66133 0.0
N1564 N 0.28707 0.61698 0.65055 0.0
N1565 N 0.24109 0.63682 0.66224 0.0
H1566 H 0.41159 0.43294 0.98738 0.0
H1567 H 0.33026 0.49874 0.02552 0.0
H1568 H 0.3755 0.41793 0.03288 0.0
H1569 H 0.3562 0.50481 0.97153 0.0
H1570 H 0.35195 0.47347 0.03281 0.0
H1571 H 0.3963 0.4634 0.98565 0.0
C1572 C 0.40048 0.43605 0.99704 0.0
C1573 C 0.39461 0.42266 0.01007 0.0
C1574 C 0.35307 0.48053 0.0195 0.0
C1575 C 0.37722 0.45768 0.00834 0.0
C1576 C 0.34082 0.49503 0.01542 0.0
C1577 C 0.34136 0.50369 0.99782 0.0
C1578 C 0.366 0.47479 0.00593 0.0
C1579 C 0.35518 0.49827 0.98514 0.0
C1580 C 0.39184 0.4535 0.99612 0.0
C1581 C 0.38053 0.42779 0.02263 0.0
N1582 N 0.36685 0.48407 0.98937 0.0
N1583 N 0.37219 0.44481 0.02133 0.0
H1584 H 0.35165 0.60688 0.83956 0.0
H1585 H 0.31858 0.69043 0.91441 0.0
H1586 H 0.33709 0.66275 0.82208 0.0
H1587 H 0.34675 0.6405 0.93167 0.0
H1588 H 0.31989 0.67843 0.87991 0.0
H1589 H 0.34455 0.61696 0.87269 0.0
C1590 C 0.3467 0.6212 0.84261 0.0
C1591 C 0.34496 0.63397 0.82794 0.0
C1592 C 0.3256 0.67003 0.89127 0.0
C1593 C 0.33703 0.64576 0.86614 0.0
C1594 C 0.32471 0.67677 0.9109 0.0
C1595 C 0.33265 0.66645 0.92583 0.0
C1596 C 0.33429 0.65274 0.88664 0.0
C1597 C 0.3406 0.64895 0.92057 0.0
C1598 C 0.34279 0.62701 0.86162 0.0
C1599 C 0.33883 0.65251 0.83296 0.0
N1600 N 0.34127 0.64269 0.90145 0.0
N1601 N 0.33511 0.65786 0.85165 0.0
H1602 H 0.02273 0.71267 0.09599 0.0
H1603 H 0.97919 0.72239 0.98628 0.0
H1604 H 0.97773 0.75007 0.08142 0.0
H1605 H 0.03276 0.69719 0.00184 0.0
H1606 H 0.97371 0.72654 0.02103 0.0
H1607 H 0.02149 0.70061 0.06154 0.0
C1608 C 0.01231 0.71808 0.0856 0.0
C1609 C 1.00045 0.73256 0.09158 0.0
C1610 C 0.98653 0.71989 0.01679 0.0
C1611 C 0.99921 0.71903 0.05203 0.0
C1612 C 0.98959 0.71743 0.997 0.0
C1613 C 0.00655 0.70965 0.99131 0.0
C1614 C 1.00046 0.71435 0.03085 0.0
C1615 C 0.01965 0.70351 0.00571 0.0
C1616 C 0.01173 0.7113 0.0659 0.0
C1617 C 0.98738 0.73917 0.07739 0.0
N1618 N 0.01639 0.7061 0.02483 0.0
N1619 N 0.98722 0.73247 0.05823 0.0
H1620 H 0.68064 0.25237 0.66333 0.0
H1621 H 0.62002 0.23642 0.55835 0.0
H1622 H 0.64342 0.19994 0.64132 0.0
H1623 H 0.66137 0.28675 0.57663 0.0
H1624 H 0.63116 0.22153 0.58761 0.0
H1625 H 0.67648 0.26409 0.63087 0.0
C1626 C 0.67178 0.24323 0.65165 0.0
C1627 C 0.66227 0.22518 0.65516 0.0
C1628 C 0.638 0.23574 0.58518 0.0
C1629 C 0.65746 0.2385 0.61799 0.0
C1630 C 0.63161 0.24423 0.56849 0.0
C1631 C 0.63968 0.26289 0.56521 0.0
C1632 C 0.65241 0.24608 0.59889 0.0
C1633 C 0.6548 0.27232 0.57865 0.0
C1634 C 0.66948 0.24989 0.6331 0.0
C1635 C 0.6512 0.21385 0.63937 0.0
N1636 N 0.66051 0.26393 0.59508 0.0
N1637 N 0.64895 0.22078 0.6216 0.0
H1638 H 0.04252 0.37338 0.41901 0.0
H1639 H 0.97608 0.35673 0.50568 0.0
H1640 H 0.99502 0.40774 0.43154 0.0
H1641 H 0.02926 0.32923 0.49985 0.0
H1642 H 0.98435 0.3774 0.48006 0.0
H1643 H 0.03932 0.35845 0.4496 0.0
C1644 C 0.03148 0.37784 0.42824 0.0
C1645 C 0.01892 0.39173 0.42264 0.0
C1646 C 0.99439 0.36707 0.48454 0.0
C1647 C 0.01522 0.37475 0.45766 0.0
C1648 C 0.98968 0.35531 0.49917 0.0
C1649 C 0.00197 0.34123 0.50474 0.0
C1650 C 0.01138 0.36452 0.47516 0.0
C1651 C 0.01945 0.33998 0.49596 0.0
C1652 C 0.02975 0.36942 0.44576 0.0
C1653 C 0.00509 0.39719 0.43531 0.0
N1654 N 0.02351 0.35127 0.48136 0.0
N1655 N 0.00348 0.38855 0.4521 0.0
H1656 H 0.32855 0.59826 0.50681 0.0
H1657 H 0.285 0.52283 0.57683 0.0
H1658 H 0.28656 0.54912 0.4857 0.0
H1659 H 0.32905 0.5707 0.59585 0.0
H1660 H 0.28817 0.52928 0.54275 0.0
H1661 H 0.33117 0.58612 0.53893 0.0
C1662 C 0.31984 0.58491 0.50896 0.0
C1663 C 0.30712 0.57483 0.49361 0.0
C1664 C 0.2974 0.53814 0.55437 0.0
C1665 C 0.31014 0.56068 0.53045 0.0
C1666 C 0.29573 0.53432 0.57377 0.0
C1667 C 0.30668 0.54635 0.5891 0.0
C1668 C 0.31009 0.55411 0.55039 0.0
C1669 C 0.32021 0.56121 0.58442 0.0
C1670 C 0.32145 0.57788 0.52729 0.0
C1671 C 0.29653 0.55735 0.49714 0.0
N1672 N 0.32135 0.56481 0.56552 0.0
N1673 N 0.29812 0.55092 0.51525 0.0
H1674 H 0.26617 0.45848 0.85612 0.0
H1675 H 0.26059 0.51358 0.96218 0.0
H1676 H 0.21864 0.44708 0.89151 0.0
H1677 H 0.31219 0.51587 0.93118 0.0
H1678 H 0.24207 0.49504 0.93335 0.0
H1679 H 0.28038 0.48476 0.88066 0.0
C1680 C 0.25869 0.46152 0.86904 0.0
C1681 C 0.24134 0.45031 0.87189 0.0
C1682 C 0.25736 0.49992 0.93273 0.0
C1683 C 0.25744 0.48062 0.89998 0.0
C1684 C 0.26785 0.51066 0.94909 0.0
C1685 C 0.28793 0.5161 0.94902 0.0
C1686 C 0.26705 0.49471 0.91625 0.0
C1687 C 0.29674 0.51177 0.93181 0.0
C1688 C 0.26675 0.47663 0.88299 0.0
C1689 C 0.23203 0.45532 0.88868 0.0
N1690 N 0.2863 0.50116 0.91619 0.0
N1691 N 0.2403 0.46997 0.90218 0.0
H1692 H 0.67052 0.99433 0.49005 0.0
H1693 H 0.7232 0.99813 0.39218 0.0
H1694 H 0.72688 0.02623 0.48739 0.0
H1695 H 0.66652 0.96742 0.39578 0.0
H1696 H 0.72282 0.01276 0.4258 0.0
H1697 H 0.66674 0.98875 0.45458 0.0
C1698 C 0.68197 1.00051 0.48203 0.0
C1699 C 0.69916 0.01061 0.49182 0.0
C1700 C 0.71037 0.00301 0.41915 0.0
C1701 C 0.69511 0.00377 0.45101 0.0
C1702 C 0.71054 0.99474 0.39994 0.0
C1703 C 0.69501 0.9813 0.39133 0.0
C1704 C 0.69456 0.99777 0.42978 0.0
C1705 C 0.67899 0.97738 0.40204 0.0
C1706 C 0.67986 0.99716 0.46171 0.0
C1707 C 0.71358 0.01799 0.48051 0.0
N1708 N 0.67927 0.9854 0.42075 0.0
N1709 N 0.71133 0.01422 0.46072 0.0
H1710 H 0.73771 0.91867 0.12453 0.0
H1711 H 0.76633 0.95792 0.02466 0.0
H1712 H 0.78517 0.96278 0.12001 0.0
H1713 H 0.71531 0.91807 0.02872 0.0
H1714 H 0.77731 0.95436 0.05866 0.0
H1715 H 0.73309 0.91308 0.08884 0.0
C1716 C 0.74731 0.92703 0.11606 0.0
C1717 C 0.76165 0.94145 0.12532 0.0
C1718 C 0.76384 0.94617 0.05209 0.0
C1719 C 0.75651 0.93502 0.08449 0.0
C1720 C 0.75757 0.94821 0.0327 0.0
C1721 C 0.73974 0.93852 0.02403 0.0
C1722 C 0.7521 0.93449 0.063 0.0
C1723 C 0.72912 0.92585 0.03492 0.0
C1724 C 0.74471 0.92376 0.09569 0.0
C1725 C 0.77396 0.95148 0.1136 0.0
N1726 N 0.7353 0.92444 0.05398 0.0
N1727 N 0.77093 0.94825 0.09382 0.0
H1728 H 0.48203 0.26526 0.55551 0.0
H1729 H 0.58408 0.31777 0.53103 0.0
H1730 H 0.49751 0.32765 0.56449 0.0
H1731 H 0.57223 0.25547 0.53204 0.0
H1732 H 0.55003 0.32165 0.53698 0.0
H1733 H 0.51287 0.2615 0.54138 0.0
C1734 C 0.49188 0.27818 0.55451 0.0
C1735 C 0.48719 0.29679 0.56143 0.0
C1736 C 0.55481 0.30711 0.53561 0.0
C1737 C 0.52249 0.29258 0.54496 0.0
C1738 C 0.57417 0.30488 0.53201 0.0
C1739 C 0.58097 0.2863 0.53121 0.0
C1740 C 0.54219 0.29061 0.53833 0.0
C1741 C 0.56759 0.27008 0.53279 0.0
C1742 C 0.50944 0.27603 0.5463 0.0
C1743 C 0.50038 0.31303 0.55926 0.0
N1744 N 0.5489 0.27263 0.53645 0.0
N1745 N 0.51747 0.31053 0.55136 0.0
H1746 H 0.15958 0.74051 0.94775 0.0
H1747 H 0.04762 0.75603 0.95601 0.0
H1748 H 0.13809 0.79699 0.95836 0.0
H1749 H 0.06588 0.70122 0.93296 0.0
H1750 H 0.0808 0.77144 0.95523 0.0
H1751 H 0.12568 0.72572 0.94084 0.0
C1752 C 0.14776 0.74981 0.94847 0.0
C1753 C 0.15171 0.77003 0.9537 0.0
C1754 C 0.07759 0.7561 0.95006 0.0
C1755 C 0.11297 0.75323 0.94585 0.0
C1756 C 0.05866 0.74736 0.9505 0.0
C1757 C 0.05418 0.72741 0.94454 0.0
C1758 C 0.09226 0.74472 0.944 0.0
C1759 C 0.06888 0.71669 0.93758 0.0
C1760 C 0.12844 0.74138 0.94442 0.0
C1761 C 0.13582 0.7814 0.9542 0.0
N1762 N 0.08742 0.72543 0.93774 0.0
N1763 N 0.11721 0.77282 0.95052 0.0
H1764 H 0.86099 0.26436 0.45619 0.0
H1765 H 0.96565 0.26083 0.51523 0.0
H1766 H 0.89711 0.21695 0.44746 0.0
H1767 H 0.93461 0.31232 0.51421 0.0
H1768 H 0.93738 0.2418 0.49622 0.0
H1769 H 0.88484 0.27946 0.48269 0.0
C1770 C 0.87394 0.25711 0.45985 0.0
C1771 C 0.8772 0.23951 0.44933 0.0
C1772 C 0.93663 0.25719 0.50046 0.0
C1773 C 0.90447 0.25663 0.47991 0.0
C1774 C 0.95265 0.26798 0.51146 0.0
C1775 C 0.95242 0.28815 0.51612 0.0
C1776 C 0.92031 0.26668 0.49421 0.0
C1777 C 0.93537 0.2968 0.51073 0.0
C1778 C 0.88748 0.26568 0.47508 0.0
C1779 C 0.89397 0.23051 0.45514 0.0
N1780 N 0.92006 0.28607 0.49989 0.0
N1781 N 0.90708 0.23926 0.46992 0.0
H1782 H 0.47801 0.67617 0.00382 0.0
H1783 H 0.37332 0.71733 0.99947 0.0
H1784 H 0.46954 0.73572 0.02356 0.0
H1785 H 0.38334 0.65884 0.97778 0.0
H1786 H 0.40765 0.72309 0.013 0.0
H1787 H 0.44273 0.66839 0.99898 0.0
C1788 C 0.46875 0.68757 0.00749 0.0
C1789 C 0.47683 0.70669 0.01401 0.0
C1790 C 0.40228 0.70893 0.00547 0.0
C1791 C 0.4362 0.69792 0.008 0.0
C1792 C 0.38267 0.7056 0.99785 0.0
C1793 C 0.37558 0.68767 0.98727 0.0
C1794 C 0.41482 0.6942 0.00249 0.0
C1795 C 0.38833 0.67301 0.98551 0.0
C1796 C 0.44854 0.68313 0.00456 0.0
C1797 C 0.46398 0.72087 0.01817 0.0
N1798 N 0.40735 0.67665 0.99288 0.0
N1799 N 0.4443 0.71624 0.01492 0.0
H1800 H 0.58939 0.50756 0.33135 0.0
H1801 H 0.51641 0.57303 0.27578 0.0
H1802 H 0.5507 0.48561 0.27992 0.0
H1803 H 0.56257 0.59602 0.32033 0.0
H1804 H 0.52433 0.53977 0.28104 0.0
H1805 H 0.57562 0.53888 0.33105 0.0
C1806 C 0.57784 0.50925 0.3201 0.0
C1807 C 0.57124 0.49392 0.30559 0.0
C1808 C 0.53251 0.55208 0.28988 0.0
C1809 C 0.55548 0.52993 0.30507 0.0
C1810 C 0.52785 0.57101 0.28703 0.0
C1811 C 0.53892 0.58721 0.2976 0.0
C1812 C 0.54828 0.54942 0.30345 0.0
C1813 C 0.55377 0.58387 0.31183 0.0
C1814 C 0.57003 0.5272 0.31989 0.0
C1815 C 0.55642 0.49711 0.29122 0.0
N1816 N 0.55812 0.56538 0.31422 0.0
N1817 N 0.54907 0.51478 0.29129 0.0
H1818 H 0.98271 0.15267 0.73638 0.0
H1819 H 0.92773 0.0455 0.73244 0.0
H1820 H 0.93667 0.13752 0.77242 0.0
H1821 H 0.97276 0.06146 0.69559 0.0
H1822 H 0.92741 0.08003 0.74395 0.0
H1823 H 0.97592 0.12052 0.71807 0.0
C1824 C 0.97092 0.14274 0.74024 0.0
C1825 C 0.9604 0.14778 0.75615 0.0
C1826 C 0.93719 0.07601 0.73316 0.0
C1827 C 0.95281 0.11067 0.73543 0.0
C1828 C 0.93729 0.0563 0.72649 0.0
C1829 C 0.95048 0.05056 0.71322 0.0
C1830 C 0.95043 0.09007 0.72657 0.0
C1831 C 0.96263 0.06519 0.70613 0.0
C1832 C 0.96714 0.12429 0.72984 0.0
C1833 C 0.94545 0.13413 0.76055 0.0
N1834 N 0.96246 0.08422 0.71304 0.0
N1835 N 0.94224 0.11615 0.7504 0.0
H1836 H 0.44683 0.89517 0.21106 0.0
H1837 H 0.51809 0.93914 0.3046 0.0
H1838 H 0.45935 0.86371 0.26133 0.0
H1839 H 0.51082 0.96838 0.25218 0.0
H1840 H 0.5002 0.90957 0.2872 0.0
H1841 H 0.47306 0.9204 0.22406 0.0
C1842 C 0.45524 0.89341 0.2247 0.0
C1843 C 0.45067 0.87736 0.23522 0.0
C1844 C 0.50284 0.92228 0.27933 0.0
C1845 C 0.48065 0.90636 0.2503 0.0
C1846 C 0.51317 0.9391 0.28923 0.0
C1847 C 0.51586 0.95617 0.27979 0.0
C1848 C 0.49482 0.92264 0.25992 0.0
C1849 C 0.50913 0.95545 0.25992 0.0
C1850 C 0.4702 0.90787 0.23215 0.0
C1851 C 0.46201 0.87602 0.25292 0.0
N1852 N 0.49859 0.93906 0.25072 0.0
N1853 N 0.47632 0.89039 0.25996 0.0
H1854 H 0.01602 0.47317 0.73494 0.0
H1855 H 0.98148 0.38372 0.65801 0.0
H1856 H 0.02043 0.47608 0.6732 0.0
H1857 H 0.00186 0.37565 0.71736 0.0
H1858 H 0.99606 0.41767 0.66323 0.0
H1859 H 0.01182 0.43754 0.72928 0.0
C1860 C 0.01651 0.46637 0.72026 0.0
C1861 C 0.01822 0.47773 0.70447 0.0
C1862 C 0.99765 0.40841 0.67502 0.0
C1863 C 0.01293 0.43695 0.69788 0.0
C1864 C 0.98929 0.38911 0.67206 0.0
C1865 C 0.99045 0.37707 0.68732 0.0
C1866 C 0.0068 0.4158 0.69354 0.0
C1867 C 1.00072 0.38459 0.70526 0.0
C1868 C 0.01402 0.446 0.71704 0.0
C1869 C 0.01855 0.46799 0.68574 0.0
N1870 N 0.00823 0.40364 0.70801 0.0
N1871 N 0.01557 0.44819 0.68292 0.0
H1872 H 0.68198 0.44972 0.51583 0.0
H1873 H 0.74755 0.45339 0.42609 0.0
H1874 H 0.73882 0.42814 0.51492 0.0
H1875 H 0.68854 0.4697 0.42303 0.0
H1876 H 0.74629 0.44927 0.46071 0.0
H1877 H 0.68549 0.46141 0.48375 0.0
C1878 C 0.69521 0.44745 0.50894 0.0
C1879 C 0.71006 0.43774 0.51811 0.0
C1880 C 0.73365 0.45397 0.4526 0.0
C1881 C 0.71426 0.45139 0.48148 0.0
C1882 C 0.73441 0.45639 0.43287 0.0
C1883 C 0.71806 0.46171 0.42173 0.0
C1884 C 0.71633 0.45669 0.46131 0.0
C1885 C 0.70144 0.46558 0.43118 0.0
C1886 C 0.69724 0.45426 0.49067 0.0
C1887 C 0.72704 0.43566 0.50861 0.0
N1888 N 0.70089 0.46273 0.45042 0.0
N1889 N 0.7286 0.4423 0.49082 0.0
H1890 H 0.77673 0.56439 0.09712 0.0
H1891 H 0.6966 0.47322 0.06618 0.0
H1892 H 0.74065 0.53749 0.13723 0.0
H1893 H 0.7266 0.50551 0.02522 0.0
H1894 H 0.71794 0.49183 0.09308 0.0
H1895 H 0.76349 0.53862 0.07151 0.0
C1896 C 0.76623 0.55291 0.10063 0.0
C1897 C 0.75962 0.55325 0.1193 0.0
C1898 C 0.72012 0.49459 0.07818 0.0
C1899 C 0.74428 0.52374 0.08999 0.0
C1900 C 0.70809 0.4838 0.06283 0.0
C1901 C 0.70977 0.48797 0.0435 0.0
C1902 C 0.73389 0.50961 0.07412 0.0
C1903 C 0.72474 0.50201 0.03996 0.0
C1904 C 0.75861 0.53824 0.08597 0.0
C1905 C 0.74588 0.53804 0.12294 0.0
N1906 N 0.73604 0.5125 0.05513 0.0
N1907 N 0.73856 0.524 0.10839 0.0
H1908 H 0.2583 0.01776 0.50646 0.0
H1909 H 0.31556 0.99923 0.60814 0.0
H1910 H 0.30184 0.97677 0.51135 0.0
H1911 H 0.27939 0.04645 0.60076 0.0
H1912 H 0.30696 0.98737 0.57365 0.0
H1913 H 0.26201 0.02479 0.54192 0.0
C1914 C 0.26842 0.00999 0.51501 0.0
C1915 C 0.27984 0.9967 0.5059 0.0
C1916 C 0.30081 1.00024 0.57962 0.0
C1917 C 0.28441 0.00496 0.54655 0.0
C1918 C 0.30561 0.00695 0.59931 0.0
C1919 C 0.29828 0.02393 0.60724 0.0
C1920 C 0.2885 0.01055 0.56785 0.0
C1921 C 0.28559 0.03347 0.59513 0.0
C1922 C 0.27066 0.01414 0.53526 0.0
C1923 C 0.29295 0.98732 0.51775 0.0
N1924 N 0.28116 0.02669 0.57603 0.0
N1925 N 0.29495 0.9917 0.53747 0.0
H1926 H 0.20263 0.04901 0.88619 0.0
H1927 H 0.28044 0.0869 0.97763 0.0
H1928 H 0.2627 0.07034 0.88148 0.0
H1929 H 0.22636 0.05165 0.9819 0.0
H1930 H 0.27083 0.08829 0.9428 0.0
H1931 H 0.20817 0.05687 0.92162 0.0
C1932 C 0.21693 0.05547 0.89255 0.0
C1933 C 0.23229 0.05873 0.88079 0.0
C1934 C 0.26095 0.08048 0.95143 0.0
C1935 C 0.23861 0.06801 0.9213 0.0
C1936 C 0.26636 0.07981 0.97132 0.0
C1937 C 0.25426 0.06895 0.98256 0.0
C1938 C 0.24329 0.0703 0.94279 0.0
C1939 C 0.23623 0.05992 0.97363 0.0
C1940 C 0.22004 0.06004 0.91276 0.0
C1941 C 0.25036 0.06763 0.88985 0.0
N1942 N 0.23136 0.06064 0.95422 0.0
N1943 N 0.25306 0.07178 0.90957 0.0
H1944 H 0.51444 0.6795 0.45741 0.0
H1945 H 0.42926 0.75045 0.46518 0.0
H1946 H 0.51705 0.73752 0.43829 0.0
H1947 H 0.42134 0.68913 0.47349 0.0
H1948 H 0.46386 0.74757 0.4618 0.0
H1949 H 0.48253 0.68426 0.46899 0.0
C1950 C 0.50837 0.69325 0.45566 0.0
C1951 C 0.51846 0.70806 0.44665 0.0
C1952 C 0.45464 0.73477 0.4646 0.0
C1953 C 0.48204 0.71368 0.46023 0.0
C1954 C 0.4349 0.73642 0.46658 0.0
C1955 C 0.42237 0.71993 0.46934 0.0
C1956 C 0.46195 0.71648 0.46533 0.0
C1957 C 0.4305 0.7022 0.47137 0.0
C1958 C 0.4902 0.69599 0.46241 0.0
C1959 C 0.51 0.72573 0.44526 0.0
N1960 N 0.44975 0.70087 0.46905 0.0
N1961 N 0.49227 0.72798 0.45185 0.0
H1962 H 0.86992 0.22541 0.07641 0.0
H1963 H 0.96206 0.28559 0.04086 0.0
H1964 H 0.86589 0.27489 0.04269 0.0
H1965 H 0.96781 0.24508 0.08464 0.0
H1966 H 0.92663 0.28173 0.0416 0.0
H1967 H 0.90567 0.23199 0.07979 0.0
C1968 C 0.87656 0.23769 0.06979 0.0
C1969 C 0.86492 0.24962 0.05924 0.0
C1970 C 0.93559 0.27377 0.05118 0.0
C1971 C 0.90569 0.2572 0.06303 0.0
C1972 C 0.95579 0.27594 0.0507 0.0
C1973 C 0.96778 0.26552 0.06259 0.0
C1974 C 0.92723 0.2609 0.06348 0.0
C1975 C 0.95901 0.25338 0.07527 0.0
C1976 C 0.89692 0.2415 0.07182 0.0
C1977 C 0.87426 0.26544 0.05112 0.0
N1978 N 0.93919 0.25122 0.07524 0.0
N1979 N 0.89406 0.26868 0.05306 0.0
H1980 H 0.13651 0.73602 0.52936 0.0
H1981 H 0.02121 0.72766 0.50167 0.0
H1982 H 0.09845 0.77571 0.5544 0.0
H1983 H 0.0593 0.69146 0.47197 0.0
H1984 H 0.04984 0.74779 0.51839 0.0
H1985 H 0.1091 0.72134 0.50617 0.0
C1986 C 0.1224 0.74169 0.52995 0.0
C1987 C 0.11976 0.75703 0.54399 0.0
C1988 C 0.05202 0.73568 0.50796 0.0
C1989 C 0.08831 0.74036 0.51736 0.0
C1990 C 0.03567 0.72428 0.49835 0.0
C1991 C 0.03797 0.70793 0.48547 0.0
C1992 C 0.07085 0.7305 0.50495 0.0
C1993 C 0.05696 0.70404 0.48171 0.0
C1994 C 0.10679 0.7334 0.5166 0.0
C1995 C 0.10123 0.76401 0.5438 0.0
N1996 N 0.07271 0.71507 0.49166 0.0
N1997 N 0.08621 0.75551 0.53085 0.0
H1998 H 0.52101 0.3037 0.9881 0.0
H1999 H 0.61538 0.27606 0.05225 0.0
H2000 H 0.51827 0.26393 0.03287 0.0
H2001 H 0.61708 0.31966 0.0112 0.0
H2002 H 0.58014 0.26887 0.04306 0.0
H2003 H 0.55666 0.30708 0.99395 0.0
C2004 C 0.52792 0.29564 0.99913 0.0
C2005 C 0.51662 0.28364 0.01013 0.0
C2006 C 0.58825 0.2799 0.03595 0.0
C2007 C 0.55745 0.28738 0.01685 0.0
C2008 C 0.60832 0.28402 0.04123 0.0
C2009 C 0.61912 0.29843 0.03243 0.0
C2010 C 0.57893 0.29033 0.02184 0.0
C2011 C 0.60933 0.30827 0.01816 0.0
C2012 C 0.54827 0.29752 0.00242 0.0
C2013 C 0.52638 0.27324 0.02396 0.0
N2014 N 0.58978 0.30409 0.01336 0.0
N2015 N 0.54622 0.27546 0.02702 0.0
H2016 H 0.45812 0.52418 0.71662 0.0
H2017 H 0.4343 0.41172 0.67484 0.0
H2018 H 0.4067 0.50077 0.67863 0.0
H2019 H 0.48107 0.43168 0.71983 0.0
H2020 H 0.4279 0.44557 0.67174 0.0
H2021 H 0.47011 0.49166 0.71426 0.0
C2022 C 0.44944 0.51224 0.70768 0.0
C2023 C 0.43127 0.51511 0.698 0.0
C2024 C 0.43975 0.44264 0.68214 0.0
C2025 C 0.44491 0.47802 0.69514 0.0
C2026 C 0.44346 0.42332 0.68382 0.0
C2027 C 0.45811 0.41893 0.69773 0.0
C2028 C 0.45066 0.45775 0.69455 0.0
C2029 C 0.46966 0.43448 0.7089 0.0
C2030 C 0.45626 0.4937 0.70637 0.0
C2031 C 0.4206 0.49914 0.68664 0.0
N2032 N 0.46551 0.45324 0.70728 0.0
N2033 N 0.42754 0.48132 0.68558 0.0
H2034 H 0.03383 0.87243 0.21995 0.0
H2035 H 0.07757 0.96707 0.29112 0.0
H2036 H 0.07689 0.87062 0.26903 0.0
H2037 H 0.03275 0.9672 0.24333 0.0
H2038 H 0.08069 0.93258 0.28103 0.0
H2039 H 0.03647 0.90791 0.226 0.0
C2040 C 0.04408 0.8795 0.23184 0.0
C2041 C 0.05507 0.86847 0.24407 0.0
C2042 C 0.07028 0.94021 0.27267 0.0
C2043 C 0.05789 0.90922 0.25134 0.0
C2044 C 0.06858 0.9599 0.27836 0.0
C2045 C 0.0547 0.96989 0.26819 0.0
C2046 C 0.05806 0.93054 0.25667 0.0
C2047 C 0.04336 0.95992 0.25181 0.0
C2048 C 0.04547 0.89979 0.23538 0.0
C2049 C 0.06787 0.8785 0.25944 0.0
N2050 N 0.0452 0.94079 0.24665 0.0
N2051 N 0.06883 0.8983 0.26272 0.0
H2052 H 0.58047 0.11462 0.73018 0.0
H2053 H 0.48012 0.04866 0.73604 0.0
H2054 H 0.54346 0.12683 0.77615 0.0
H2055 H 0.51271 0.04932 0.68557 0.0
H2056 H 0.50275 0.07639 0.75223 0.0
H2057 H 0.556 0.08898 0.71518 0.0
C2058 C 0.56709 0.11202 0.73707 0.0
C2059 C 0.56393 0.12316 0.75431 0.0
C2060 C 0.50479 0.07047 0.73756 0.0
C2061 C 0.53569 0.09337 0.73721 0.0
C2062 C 0.49187 0.05477 0.72834 0.0
C2063 C 0.4948 0.04653 0.70962 0.0
C2064 C 0.52062 0.07779 0.72789 0.0
C2065 C 0.51017 0.05497 0.70018 0.0
C2066 C 0.55309 0.09728 0.7285 0.0
C2067 C 0.54652 0.11859 0.76286 0.0
N2068 N 0.52253 0.06995 0.70945 0.0
N2069 N 0.53299 0.10404 0.7542 0.0
H2070 H 0.04335 0.51921 0.26614 0.0
H2071 H 0.01036 0.61707 0.31861 0.0
H2072 H 0.9943 0.52047 0.3008 0.0
H2073 H 0.05467 0.61683 0.27824 0.0
H2074 H 0.00352 0.58174 0.31128 0.0
H2075 H 0.04723 0.55496 0.26959 0.0
C2076 C 0.03337 0.52702 0.27444 0.0
C2077 C 0.01855 0.51685 0.2833 0.0
C2078 C 0.01463 0.58941 0.30387 0.0
C2079 C 0.02286 0.55774 0.28726 0.0
C2080 C 0.01845 0.6096 0.30797 0.0
C2081 C 0.03304 0.61992 0.29894 0.0
C2082 C 0.02561 0.57936 0.2908 0.0
C2083 C 0.04338 0.60941 0.28561 0.0
C2084 C 0.03552 0.54742 0.27632 0.0
C2085 C 0.00584 0.5277 0.29362 0.0
N2086 N 0.03954 0.58969 0.28201 0.0
N2087 N 0.00838 0.54755 0.29544 0.0
H2088 H 0.37149 0.60087 0.32694 0.0
H2089 H 0.46986 0.66646 0.31132 0.0
H2090 H 0.38042 0.6635 0.34034 0.0
H2091 H 0.45844 0.60575 0.28924 0.0
H2092 H 0.43832 0.66466 0.32512 0.0
H2093 H 0.40436 0.6014 0.31592 0.0
C2094 C 0.3804 0.61471 0.32766 0.0
C2095 C 0.37314 0.63219 0.33447 0.0
C2096 C 0.44269 0.65167 0.31737 0.0
C2097 C 0.41073 0.63289 0.32188 0.0
C2098 C 0.46069 0.65269 0.30959 0.0
C2099 C 0.46656 0.63622 0.29926 0.0
C2100 C 0.43047 0.63401 0.31474 0.0
C2101 C 0.45429 0.61873 0.29722 0.0
C2102 C 0.39911 0.61501 0.32129 0.0
C2103 C 0.38528 0.64971 0.33493 0.0
N2104 N 0.43672 0.61806 0.30487 0.0
N2105 N 0.40343 0.64961 0.32874 0.0
H2106 H 0.12053 0.34907 0.75516 0.0
H2107 H 0.03167 0.27791 0.69787 0.0
H2108 H 0.12513 0.28845 0.7362 0.0
H2109 H 0.02626 0.33695 0.72116 0.0
H2110 H 0.06575 0.28108 0.71235 0.0
H2111 H 0.08585 0.34462 0.74347 0.0
C2112 C 0.11423 0.33475 0.74873 0.0
C2113 C 0.12585 0.31911 0.74669 0.0
C2114 C 0.05712 0.29335 0.71435 0.0
C2115 C 0.08604 0.314 0.73291 0.0
C2116 C 0.03771 0.2915 0.70609 0.0
C2117 C 0.02638 0.30723 0.70826 0.0
C2118 C 0.06519 0.31113 0.72474 0.0
C2119 C 0.0347 0.32456 0.71906 0.0
C2120 C 0.0944 0.33226 0.74193 0.0
C2121 C 0.11685 0.301 0.73785 0.0
N2122 N 0.05367 0.3261 0.72683 0.0
N2123 N 0.09752 0.29897 0.73125 0.0
H2124 H 0.78039 0.99471 0.69561 0.0
H2125 H 0.88698 0.98951 0.65851 0.0
H2126 H 0.79206 0.99412 0.63513 0.0
H2127 H 0.87585 0.98645 0.71863 0.0
H2128 H 0.85232 0.99323 0.65006 0.0
H2129 H 0.81536 0.99335 0.7048 0.0
C2130 C 0.79028 0.99429 0.68426 0.0
C2131 C 0.78324 0.99458 0.66456 0.0
C2132 C 0.8574 0.99182 0.66513 0.0
C2133 C 0.82327 0.99316 0.67499 0.0
C2134 C 0.87715 0.98974 0.66991 0.0
C2135 C 0.88401 0.98769 0.68921 0.0
C2136 C 0.8445 0.9918 0.67982 0.0
C2137 C 0.87091 0.98801 0.70356 0.0
C2138 C 0.81025 0.9936 0.68953 0.0
C2139 C 0.79679 0.99425 0.65053 0.0
N2140 N 0.85169 0.98998 0.69857 0.0
N2141 N 0.8161 0.99352 0.65601 0.0
H2142 H 0.68416 0.98199 0.26125 0.0
H2143 H 0.60092 0.04679 0.29703 0.0
H2144 H 0.69558 0.0412 0.28863 0.0
H2145 H 0.58887 0.98716 0.27156 0.0
H2146 H 0.63577 0.04497 0.29362 0.0
H2147 H 0.6494 0.98344 0.26465 0.0
C2148 C 0.67947 0.99525 0.26815 0.0
C2149 C 0.69303 0.01144 0.27483 0.0
C2150 C 0.62557 0.03225 0.28873 0.0
C2151 C 0.653 0.01328 0.27841 0.0
C2152 C 0.60573 0.03332 0.29066 0.0
C2153 C 0.59225 0.01712 0.28449 0.0
C2154 C 0.63193 0.01481 0.28056 0.0
C2155 C 0.59898 0.99995 0.2764 0.0
C2156 C 0.65954 0.9961 0.26994 0.0
C2157 C 0.68581 0.02837 0.28313 0.0
N2158 N 0.61843 0.99922 0.27465 0.0
N2159 N 0.66636 0.02881 0.28471 0.0
H2160 H 0.36978 0.39642 0.64468 0.0
H2161 H 0.27894 0.46025 0.62871 0.0
H2162 H 0.3105 0.37138 0.6272 0.0
H2163 H 0.33772 0.48523 0.64799 0.0
H2164 H 0.2906 0.42762 0.62597 0.0
H2165 H 0.35874 0.42908 0.64411 0.0
C2166 C 0.35446 0.39777 0.64059 0.0
C2167 C 0.34106 0.38107 0.63602 0.0
C2168 C 0.30101 0.44022 0.63065 0.0
C2169 C 0.32826 0.41852 0.63548 0.0
C2170 C 0.29436 0.4588 0.63211 0.0
C2171 C 0.30748 0.47526 0.63846 0.0
C2172 C 0.3209 0.43817 0.6357 0.0
C2173 C 0.32724 0.47278 0.64292 0.0
C2174 C 0.34815 0.41644 0.64036 0.0
C2175 C 0.32132 0.38379 0.63111 0.0
N2176 N 0.33338 0.45454 0.64153 0.0
N2177 N 0.31554 0.40212 0.63098 0.0
H2178 H 0.25525 0.68059 0.96507 0.0
H2179 H 0.27309 0.59449 0.03318 0.0
H2180 H 0.25381 0.68588 0.02781 0.0
H2181 H 0.28803 0.59264 0.97381 0.0
H2182 H 0.25976 0.62584 0.02953 0.0
H2183 H 0.2615 0.64636 0.96626 0.0
C2184 C 0.25602 0.67462 0.97906 0.0
C2185 C 0.2541 0.68641 0.99638 0.0
C2186 C 0.26575 0.61853 0.0172 0.0
C2187 C 0.26092 0.64704 0.99772 0.0
C2188 C 0.27326 0.60064 0.01928 0.0
C2189 C 0.28156 0.5912 0.00376 0.0
C2190 C 0.26666 0.627 0.99947 0.0
C2191 C 0.28164 0.59964 0.98606 0.0
C2192 C 0.25953 0.65502 0.97969 0.0
C2193 C 0.25482 0.67753 0.01397 0.0
N2194 N 0.2744 0.6172 0.9844 0.0
N2195 N 0.2583 0.6585 0.01417 0.0
H2196 H 0.77934 0.11062 0.31844 0.0
H2197 H 0.69479 0.02676 0.33226 0.0
H2198 H 0.72134 0.12212 0.33216 0.0
H2199 H 0.75139 0.0148 0.31511 0.0
H2200 H 0.70449 0.06191 0.33284 0.0
H2201 H 0.76962 0.07553 0.31738 0.0
C2202 C 0.76456 0.10576 0.32124 0.0
C2203 C 0.75114 0.11935 0.32541 0.0
C2204 C 0.71484 0.05164 0.32896 0.0
C2205 C 0.7399 0.07919 0.3242 0.0
C2206 C 0.7093 0.03165 0.32869 0.0
C2207 C 0.72235 0.01815 0.32358 0.0
C2208 C 0.73358 0.05804 0.32411 0.0
C2209 C 0.74097 0.02495 0.31907 0.0
C2210 C 0.759 0.08573 0.32057 0.0
C2211 C 0.73211 0.1122 0.32867 0.0
N2212 N 0.74606 0.04449 0.3194 0.0
N2213 N 0.7271 0.09264 0.32808 0.0
H2214 H 0.68605 0.78242 0.99161 0.0
H2215 H 0.66284 0.88632 0.9564 0.0
H2216 H 0.62788 0.79785 0.97547 0.0
H2217 H 0.72119 0.87204 0.97293 0.0
H2218 H 0.64982 0.85379 0.96353 0.0
H2219 H 0.6994 0.81499 0.985 0.0
C2220 C 0.67609 0.79264 0.98666 0.0
C2221 C 0.6558 0.78739 0.98415 0.0
C2222 C 0.66548 0.85769 0.96559 0.0
C2223 C 0.67096 0.8247 0.97664 0.0
C2224 C 0.67286 0.8762 0.9615 0.0
C2225 C 0.69301 0.88157 0.96404 0.0
C2226 C 0.67842 0.84453 0.97227 0.0
C2227 C 0.70552 0.86821 0.97074 0.0
C2228 C 0.68371 0.81125 0.98297 0.0
C2229 C 0.64359 0.80132 0.97791 0.0
N2230 N 0.69802 0.85021 0.97464 0.0
N2231 N 0.65135 0.81928 0.97435 0.0
H2232 H 0.64152 0.37238 0.39032 0.0
H2233 H 0.63097 0.28344 0.45712 0.0
H2234 H 0.63001 0.31191 0.36687 0.0
H2235 H 0.64396 0.34373 0.48022 0.0
H2236 H 0.62838 0.29366 0.42387 0.0
H2237 H 0.64056 0.3623 0.42326 0.0
C2238 C 0.63865 0.35698 0.39208 0.0
C2239 C 0.63583 0.34298 0.37575 0.0
C2240 C 0.63163 0.30469 0.43619 0.0
C2241 C 0.63489 0.33129 0.41356 0.0
C2242 C 0.633 0.29886 0.4551 0.0
C2243 C 0.63756 0.31284 0.4712 0.0
C2244 C 0.63497 0.32464 0.43347 0.0
C2245 C 0.64029 0.33259 0.46804 0.0
C2246 C 0.63819 0.35122 0.41092 0.0
C2247 C 0.6325 0.3232 0.37901 0.0
N2248 N 0.63903 0.33793 0.4495 0.0
N2249 N 0.63213 0.31795 0.39752 0.0
H2250 H 0.01825 0.24326 0.68489 0.0
H2251 H 0.97369 0.29413 0.59417 0.0
H2252 H 0.96029 0.26276 0.68123 0.0
H2253 H 0.02905 0.26963 0.59659 0.0
H2254 H 0.96683 0.27991 0.62455 0.0
H2255 H 0.02046 0.24905 0.65102 0.0
C2256 C 0.00574 0.24833 0.67695 0.0
C2257 C 0.98919 0.2529 0.68632 0.0
C2258 C 0.98036 0.27738 0.61831 0.0
C2259 C 0.99195 0.26009 0.64724 0.0
C2260 C 0.98423 0.28548 0.60102 0.0
C2261 C 0.00192 0.28295 0.5931 0.0
C2262 C 0.99439 0.26685 0.62768 0.0
C2263 C 0.01523 0.27181 0.60238 0.0
C2264 C 0.00715 0.25186 0.65753 0.0
C2265 C 0.97363 0.25961 0.67497 0.0
N2266 N 0.01127 0.26428 0.61929 0.0
N2267 N 0.97552 0.2633 0.65616 0.0
H2268 H 0.29873 0.71906 0.12824 0.0
H2269 H 0.3156 0.73922 0.01814 0.0
H2270 H 0.3342 0.76951 0.11366 0.0
H2271 H 0.29559 0.68268 0.03467 0.0
H2272 H 0.31826 0.75244 0.05268 0.0
H2273 H 0.29335 0.70727 0.09357 0.0
C2274 C 0.30546 0.72766 0.11781 0.0
C2275 C 0.31711 0.74527 0.12404 0.0
C2276 C 0.31323 0.73716 0.04876 0.0
C2277 C 0.31064 0.73195 0.08415 0.0
C2278 C 0.31171 0.72967 0.02912 0.0
C2279 C 0.30545 0.70991 0.02382 0.0
C2280 C 0.30833 0.72476 0.06305 0.0
C2281 C 0.30046 0.69803 0.03835 0.0
C2282 C 0.30227 0.72095 0.09798 0.0
C2283 C 0.32496 0.75598 0.10965 0.0
N2284 N 0.302 0.70563 0.05736 0.0
N2285 N 0.32161 0.74913 0.09043 0.0
H2286 H 0.97284 0.67093 0.77615 0.0
H2287 H 0.02436 0.68035 0.88568 0.0
H2288 H 0.03059 0.65388 0.79124 0.0
H2289 H 0.96608 0.6956 0.87051 0.0
H2290 H 0.02829 0.67355 0.85079 0.0
H2291 H 0.97155 0.68339 0.81018 0.0
C2292 C 0.98539 0.67008 0.78656 0.0
C2293 C 0.00181 0.66123 0.78084 0.0
C2294 C 0.01468 0.67852 0.85505 0.0
C2295 C 1.00027 0.67515 0.81995 0.0
C2296 C 0.01248 0.68239 0.8749 0.0
C2297 C 0.99488 0.68843 0.88068 0.0
C2298 C 0.99909 0.68068 0.84105 0.0
C2299 C 0.97985 0.69091 0.86641 0.0
C2300 C 0.98458 0.67706 0.80604 0.0
C2301 C 0.0175 0.66028 0.79506 0.0
N2302 N 0.98225 0.68692 0.84719 0.0
N2303 N 0.0163 0.66704 0.81397 0.0
H2304 H 0.63682 0.38396 0.70145 0.0
H2305 H 0.52149 0.36579 0.66891 0.0
H2306 H 0.61221 0.36891 0.64169 0.0
H2307 H 0.54606 0.37901 0.72873 0.0
H2308 H 0.55459 0.36928 0.65833 0.0
H2309 H 0.60374 0.38414 0.71152 0.0
C2310 C 0.62447 0.38063 0.69044 0.0
C2311 C 0.62736 0.37632 0.67068 0.0
C2312 C 0.55277 0.37161 0.67376 0.0
C2313 C 0.58935 0.37672 0.68212 0.0
C2314 C 0.53391 0.36971 0.67975 0.0
C2315 C 0.53126 0.37225 0.69964 0.0
C2316 C 0.56901 0.37596 0.68783 0.0
C2317 C 0.54766 0.37708 0.71322 0.0
C2318 C 0.60557 0.38086 0.69619 0.0
C2319 C 0.61075 0.3725 0.65705 0.0
N2320 N 0.56589 0.3787 0.70708 0.0
N2321 N 0.59249 0.37271 0.66303 0.0
H2322 H 0.86849 0.71502 0.2482 0.0
H2323 H 0.95145 0.67897 0.32179 0.0
H2324 H 0.86193 0.66133 0.2756 0.0
H2325 H 0.96364 0.72349 0.28342 0.0
H2326 H 0.91694 0.67579 0.30875 0.0
H2327 H 0.90189 0.72162 0.26446 0.0
C2328 C 0.87404 0.70469 0.25772 0.0
C2329 C 0.86248 0.68752 0.26044 0.0
C2330 C 0.92709 0.68641 0.30329 0.0
C2331 C 0.90054 0.69501 0.27911 0.0
C2332 C 0.9467 0.6883 0.31082 0.0
C2333 C 0.96014 0.70159 0.30369 0.0
C2334 C 0.92095 0.69792 0.28852 0.0
C2335 C 0.95351 0.71321 0.28935 0.0
C2336 C 0.8931 0.70843 0.26692 0.0
C2337 C 0.87043 0.67459 0.27286 0.0
N2338 N 0.93431 0.71109 0.28215 0.0
N2339 N 0.88893 0.67861 0.28173 0.0
H2340 H 0.20471 0.01257 0.36004 0.0
H2341 H 0.12527 0.02833 0.27214 0.0
H2342 H 0.21713 0.00927 0.29969 0.0
H2343 H 0.11436 0.03231 0.33277 0.0
H2344 H 0.15883 0.02078 0.28153 0.0
H2345 H 0.17134 0.019 0.34998 0.0
C2346 C 0.20037 0.01299 0.34462 0.0
C2347 C 0.21376 0.01023 0.33068 0.0
C2348 C 0.14912 0.02332 0.29279 0.0
C2349 C 0.17547 0.01798 0.31904 0.0
C2350 C 0.13005 0.02763 0.28743 0.0
C2351 C 0.11732 0.03099 0.30179 0.0
C2352 C 0.15532 0.02236 0.31264 0.0
C2353 C 0.12392 0.02986 0.32136 0.0
C2354 C 0.18131 0.01682 0.33889 0.0
C2355 C 0.20736 0.01144 0.31095 0.0
N2356 N 0.1425 0.02564 0.32623 0.0
N2357 N 0.18867 0.01521 0.30571 0.0
H2358 H 0.30675 0.03763 0.72607 0.0
H2359 H 0.40079 0.98259 0.70322 0.0
H2360 H 0.30888 0.97531 0.72618 0.0
H2361 H 0.39648 0.04354 0.69643 0.0
H2362 H 0.36868 0.98054 0.71596 0.0
H2363 H 0.34106 0.04094 0.71953 0.0
C2364 C 0.31449 0.02466 0.72496 0.0
C2365 C 0.30484 0.00613 0.72655 0.0
C2366 C 0.37482 0.99444 0.71195 0.0
C2367 C 0.34414 0.00982 0.71886 0.0
C2368 C 0.39316 0.99562 0.70482 0.0
C2369 C 0.40114 0.01328 0.69902 0.0
C2370 C 0.36443 0.01106 0.71316 0.0
C2371 C 0.39073 0.02972 0.70099 0.0
C2372 C 0.33407 0.02656 0.72113 0.0
C2373 C 0.3156 0.98983 0.72473 0.0
N2374 N 0.37281 0.02821 0.70783 0.0
N2375 N 0.33462 0.99205 0.7209 0.0
H2376 H 0.67785 0.62308 0.40728 0.0
H2377 H 0.68192 0.52448 0.33755 0.0
H2378 H 0.65971 0.6163 0.34537 0.0
H2379 H 0.70921 0.53325 0.3967 0.0
H2380 H 0.67091 0.55722 0.34133 0.0
H2381 H 0.68692 0.58944 0.40484 0.0
C2382 C 0.6757 0.61449 0.3932 0.0
C2383 C 0.66809 0.62254 0.37647 0.0
C2384 C 0.67923 0.55204 0.35355 0.0
C2385 C 0.67842 0.5841 0.3736 0.0
C2386 C 0.68543 0.53335 0.35141 0.0
C2387 C 0.69638 0.52637 0.36686 0.0
C2388 C 0.68407 0.56381 0.37132 0.0
C2389 C 0.7007 0.53827 0.3845 0.0
C2390 C 0.68095 0.59534 0.39181 0.0
C2391 C 0.66577 0.61081 0.35858 0.0
N2392 N 0.69455 0.55652 0.38628 0.0
N2393 N 0.67088 0.59221 0.35763 0.0
H2394 H 0.66543 0.28222 0.98858 0.0
H2395 H 0.69658 0.40626 0.03817 0.0
H2396 H 0.72081 0.306 0.04472 0.0
H2397 H 0.65532 0.38808 0.98778 0.0
H2398 H 0.70374 0.37188 0.03955 0.0
H2399 H 0.65917 0.32545 0.98625 0.0
C2400 C 0.67407 0.29343 0.99847 0.0
C2401 C 0.69374 0.28729 0.01804 0.0
C2402 C 0.69326 0.37555 0.02815 0.0
C2403 C 0.68628 0.34032 0.01482 0.0
C2404 C 0.68921 0.39502 0.02737 0.0
C2405 C 0.67544 0.39973 0.0128 0.0
C2406 C 0.68333 0.36104 0.01432 0.0
C2407 C 0.66608 0.38486 0.99916 0.0
C2408 C 0.67011 0.32114 0.99683 0.0
C2409 C 0.70904 0.30866 0.03419 0.0
N2410 N 0.67014 0.3661 1.00029 0.0
N2411 N 0.70411 0.33276 0.03111 0.0
H2412 H 0.23134 0.88744 0.6569 0.0
H2413 H 0.32552 0.96558 0.68335 0.0
H2414 H 0.28974 0.87152 0.67093 0.0
H2415 H 0.26833 0.98118 0.66412 0.0
H2416 H 0.31242 0.93104 0.68021 0.0
H2417 H 0.24429 0.92186 0.66064 0.0
C2418 C 0.2469 0.89114 0.66068 0.0
C2419 C 0.25945 0.87647 0.66356 0.0
C2420 C 0.3027 0.94198 0.67664 0.0
C2421 C 0.27437 0.91598 0.66808 0.0
C2422 C 0.31019 0.96162 0.67843 0.0
C2423 C 0.29791 0.97599 0.67394 0.0
C2424 C 0.28279 0.93677 0.67031 0.0
C2425 C 0.27819 0.97035 0.66766 0.0
C2426 C 0.25427 0.91084 0.66292 0.0
C2427 C 0.27944 0.88227 0.66881 0.0
N2428 N 0.2712 0.95114 0.66604 0.0
N2429 N 0.28625 0.90152 0.67086 0.0
H2430 H 0.32147 0.23452 0.04536 0.0
H2431 H 0.30578 0.11985 0.01009 0.0
H2432 H 0.33872 0.20933 0.99077 0.0
H2433 H 0.29205 0.14457 0.06617 0.0
H2434 H 0.31566 0.15285 0.00162 0.0
H2435 H 0.308 0.20209 0.052 0.0
C2436 C 0.3222 0.22221 0.03465 0.0
C2437 C 0.33132 0.22465 0.01751 0.0
C2438 C 0.31043 0.15111 0.01576 0.0
C2439 C 0.31617 0.1874 0.02517 0.0
C2440 C 0.30482 0.13233 0.02056 0.0
C2441 C 0.29824 0.12975 0.03882 0.0
C2442 C 0.30942 0.16732 0.02939 0.0
C2443 C 0.29714 0.14616 0.05195 0.0
C2444 C 0.31464 0.20366 0.03852 0.0
C2445 C 0.33208 0.2081 0.0043 0.0
N2446 N 0.30274 0.16432 0.047 0.0
N2447 N 0.32468 0.19018 0.00843 0.0
H2448 H 0.36506 0.63664 0.61111 0.0
H2449 H 0.37205 0.72248 0.54018 0.0
H2450 H 0.37623 0.69783 0.63199 0.0
H2451 H 0.3586 0.66157 0.51962 0.0
H2452 H 0.37581 0.71365 0.57392 0.0
H2453 H 0.36468 0.64533 0.57756 0.0
C2454 C 0.3676 0.65191 0.60867 0.0
C2455 C 0.37069 0.66652 0.62446 0.0
C2456 C 0.37218 0.70218 0.56205 0.0
C2457 C 0.37007 0.67661 0.58593 0.0
C2458 C 0.37012 0.70722 0.54285 0.0
C2459 C 0.36511 0.69267 0.52732 0.0
C2460 C 0.36911 0.68243 0.56564 0.0
C2461 C 0.36257 0.67314 0.53134 0.0
C2462 C 0.36728 0.65687 0.58947 0.0
C2463 C 0.37356 0.68608 0.62031 0.0
N2464 N 0.36453 0.66857 0.55015 0.0
N2465 N 0.37317 0.69054 0.60147 0.0
H2466 H 0.98761 0.6643 0.28017 0.0
H2467 H 0.02638 0.6989 0.40661 0.0
H2468 H 0.0403 0.72177 0.30758 0.0
H2469 H 0.98208 0.65188 0.38542 0.0
H2470 H 0.03051 0.70516 0.37242 0.0
H2471 H 0.98324 0.65692 0.3229 0.0
C2472 C 0.99657 0.67312 0.29196 0.0
C2473 C 0.01568 0.69389 0.28724 0.0
C2474 C 0.01992 0.6935 0.37536 0.0
C2475 C 0.01005 0.685 0.33953 0.0
C2476 C 0.0176 0.68995 0.39472 0.0
C2477 C 0.0039 0.6749 0.39854 0.0
C2478 C 0.0084 0.68189 0.36007 0.0
C2479 C 0.99279 0.66362 0.38288 0.0
C2480 C 0.99366 0.66841 0.31933 0.0
C2481 C 0.0301 0.70942 0.3095 0.0
N2482 N 0.99527 0.66735 0.36424 0.0
N2483 N 0.026 0.70377 0.33314 0.0
H2484 H 0.66571 0.28445 0.86407 0.0
H2485 H 0.72599 0.28539 0.96835 0.0
H2486 H 0.71748 0.25421 0.87242 0.0
H2487 H 0.68312 0.32536 0.9556 0.0
H2488 H 0.72371 0.27383 0.93337 0.0
H2489 H 0.67195 0.2994 0.89773 0.0
C2490 C 0.67839 0.28095 0.87303 0.0
C2491 C 0.69101 0.26796 0.8655 0.0
C2492 C 0.71502 0.28534 0.93817 0.0
C2493 C 0.69832 0.28508 0.90409 0.0
C2494 C 0.71641 0.29196 0.95805 0.0
C2495 C 0.70486 0.3064 0.96458 0.0
C2496 C 0.70174 0.29306 0.92495 0.0
C2497 C 0.69236 0.31428 0.95095 0.0
C2498 C 0.68204 0.28959 0.89221 0.0
C2499 C 0.70742 0.26419 0.87765 0.0
N2500 N 0.691 0.3074 0.93176 0.0
N2501 N 0.71052 0.27257 0.89643 0.0
H2502 H 0.01931 0.36077 0.21163 0.0
H2503 H 0.01905 0.26358 0.13871 0.0
H2504 H 0.00248 0.30298 0.22757 0.0
H2505 H 0.03565 0.32166 0.12386 0.0
H2506 H 0.01183 0.27752 0.17104 0.0
H2507 H 0.02404 0.34661 0.17903 0.0
C2508 C 0.01638 0.3451 0.20823 0.0
C2509 C 0.0104 0.33308 0.22241 0.0
C2510 C 0.01702 0.28723 0.16072 0.0
C2511 C 0.0162 0.31665 0.18502 0.0
C2512 C 0.02113 0.27928 0.14235 0.0
C2513 C 0.02798 0.2916 0.1289 0.0
C2514 C 0.01983 0.3076 0.1655 0.0
C2515 C 0.03043 0.31178 0.13402 0.0
C2516 C 0.01924 0.33699 0.1896 0.0
C2517 C 0.00729 0.31281 0.21719 0.0
N2518 N 0.02639 0.31918 0.15196 0.0
N2519 N 0.01025 0.30523 0.19892 0.0
loop_
_geom_bond_atom_site_label_1
_geom_bond_atom_site_label_2
_geom_bond_distance
_geom_bond_site_symmetry_2
_ccdc_geom_bond_type
C0 C1 1.264 . S
C0 C5 1.479 . S
C0 C10 1.465 . S
C1 C0 1.264 . S
C1 C3 1.339 . S
C1 H28 0.931 . S
C2 C3 1.395 . S
C2 C4 1.320 . S
C3 C1 1.339 . S
C3 C2 1.395 . S
C3 H29 0.929 . S
C4 C2 1.320 . S
C4 C5 1.405 . S
C4 H30 0.930 . S
C5 C0 1.479 . S
C5 C4 1.405 . S
C5 H31 0.931 . S
U6 O7 2.454 . S
U6 O8 2.458 . S
U6 C9 2.984 . S
U6 C10 2.847 . S
U6 C23 2.882 . S
U6 O24 2.441 . S
U6 O25 2.420 . S
U6 O26 2.455 . S
U6 O27 2.449 . S
O7 U6 2.454 . S
O7 C9 1.353 . S
O8 U6 2.458 . S
O8 C9 1.286 . S
C9 U6 2.984 . S
C9 O7 1.353 . S
C9 O8 1.286 . S
C9 C11 1.363 . S
C10 C0 1.465 . S
C10 U6 2.847 . S
C10 O24 1.249 . S
C10 O25 1.202 . S
C11 C9 1.363 . S
C11 C13 1.408 . S
C11 C16 1.342 . S
C12 C13 1.310 . S
C12 C15 1.461 . S
C12 H32 0.932 . S
C13 C11 1.408 . S
C13 C12 1.310 . S
C13 H33 0.930 . S
C14 C15 1.474 . S
C14 C16 1.285 . S
C14 H34 0.929 . S
C15 C12 1.461 . S
C15 C14 1.474 . S
C16 C11 1.342 . S
C16 C14 1.285 . S
C16 H35 0.930 . S
C17 C20 1.424 . S
C17 C22 1.245 . S
C17 C23 1.428 . S
C18 C21 1.260 . S
C18 C22 1.477 . S
C18 H36 0.932 . S
C19 C20 1.384 . S
C19 C21 1.479 . S
C19 H37 0.929 . S
C20 C17 1.424 . S
C20 C19 1.384 . S
C20 H38 0.928 . S
C21 C18 1.260 . S
C21 C19 1.479 . S
C22 C17 1.245 . S
C22 C18 1.477 . S
C22 H39 0.932 . S
C23 U6 2.882 . S
C23 C17 1.428 . S
C23 O26 1.301 . S
C23 O27 1.282 . S
O24 U6 2.441 . S
O24 C10 1.249 . S
O25 U6 2.420 . S
O25 C10 1.202 . S
O26 U6 2.455 . S
O26 C23 1.301 . S
O27 U6 2.449 . S
O27 C23 1.282 . S
H28 C1 0.931 . S
H29 C3 0.929 . S
H30 C4 0.930 . S
H31 C5 0.931 . S
H32 C12 0.932 . S
H33 C13 0.930 . S
H34 C14 0.929 . S
H35 C16 0.930 . S
H36 C18 0.932 . S
H37 C19 0.929 . S
H38 C20 0.928 . S
H39 C22 0.932 . S
C40 C41 1.264 . S
C40 C45 1.479 . S
C40 C50 1.465 . S
C41 C40 1.264 . S
C41 C43 1.339 . S
C41 H68 0.931 . S
C42 C43 1.395 . S
C42 C44 1.320 . S
C43 C41 1.339 . S
C43 C42 1.395 . S
C43 H69 0.929 . S
C44 C42 1.320 . S
C44 C45 1.405 . S
C44 H70 0.930 . S
C45 C40 1.479 . S
C45 C44 1.405 . S
C45 H71 0.931 . S
U46 O47 2.454 . S
U46 O48 2.458 . S
U46 C49 2.984 . S
U46 C50 2.847 . S
U46 C63 2.882 . S
U46 O64 2.441 . S
U46 O65 2.420 . S
U46 O66 2.455 . S
U46 O67 2.449 . S
O47 U46 2.454 . S
O47 C49 1.353 . S
O48 U46 2.458 . S
O48 C49 1.286 . S
C49 U46 2.984 . S
C49 O47 1.353 . S
C49 O48 1.286 . S
C49 C51 1.363 . S
C50 C40 1.465 . S
C50 U46 2.847 . S
C50 O64 1.249 . S
C50 O65 1.202 . S
C51 C49 1.363 . S
C51 C53 1.408 . S
C51 C56 1.342 . S
C52 C53 1.310 . S
C52 C55 1.461 . S
C52 H72 0.932 . S
C53 C51 1.408 . S
C53 C52 1.310 . S
C53 H73 0.930 . S
C54 C55 1.474 . S
C54 C56 1.285 . S
C54 H74 0.929 . S
C55 C52 1.461 . S
C55 C54 1.474 . S
C56 C51 1.342 . S
C56 C54 1.285 . S
C56 H75 0.930 . S
C57 C60 1.424 . S
C57 C62 1.245 . S
C57 C63 1.428 . S
C58 C61 1.260 . S
C58 C62 1.477 . S
C58 H76 0.932 . S
C59 C60 1.384 . S
C59 C61 1.479 . S
C59 H77 0.929 . S
C60 C57 1.424 . S
C60 C59 1.384 . S
C60 H78 0.928 . S
C61 C58 1.260 . S
C61 C59 1.479 . S
C62 C57 1.245 . S
C62 C58 1.477 . S
C62 H79 0.932 . S
C63 U46 2.882 . S
C63 C57 1.428 . S
C63 O66 1.301 . S
C63 O67 1.282 . S
O64 U46 2.441 . S
O64 C50 1.249 . S
O65 U46 2.420 . S
O65 C50 1.202 . S
O66 U46 2.455 . S
O66 C63 1.301 . S
O67 U46 2.449 . S
O67 C63 1.282 . S
H68 C41 0.931 . S
H69 C43 0.929 . S
H70 C44 0.930 . S
H71 C45 0.931 . S
H72 C52 0.932 . S
H73 C53 0.930 . S
H74 C54 0.929 . S
H75 C56 0.930 . S
H76 C58 0.932 . S
H77 C59 0.929 . S
H78 C60 0.928 . S
H79 C62 0.932 . S
C80 C81 1.264 . S
C80 C85 1.479 . S
C80 C90 1.465 . S
C81 C80 1.264 . S
C81 C83 1.339 . S
C81 H108 0.931 . S
C82 C83 1.395 . S
C82 C84 1.320 . S
C83 C81 1.339 . S
C83 C82 1.395 . S
C83 H109 0.929 . S
C84 C82 1.320 . S
C84 C85 1.405 . S
C84 H110 0.925 1_565 S
C85 C80 1.479 . S
C85 C84 1.405 . S
C85 H111 0.931 . S
U86 O87 2.454 . S
U86 O88 2.458 . S
U86 C89 2.984 . S
U86 C90 2.847 . S
U86 C103 2.882 . S
U86 O104 2.441 . S
U86 O105 2.420 . S
U86 O106 2.455 . S
U86 O107 2.449 . S
O87 U86 2.454 . S
O87 C89 1.353 . S
O88 U86 2.458 . S
O88 C89 1.286 . S
C89 U86 2.984 . S
C89 O87 1.353 . S
C89 O88 1.286 . S
C89 C91 1.363 . S
C90 C80 1.465 . S
C90 U86 2.847 . S
C90 O104 1.249 . S
C90 O105 1.202 . S
C91 C89 1.363 . S
C91 C93 1.408 . S
C91 C96 1.342 . S
C92 C93 1.310 . S
C92 C95 1.461 . S
C92 H112 0.932 . S
C93 C91 1.408 . S
C93 C92 1.310 . S
C93 H113 0.930 . S
C94 C95 1.473 1_545 S
C94 C96 1.284 1_545 S
C94 H114 0.932 . S
C95 C92 1.461 . S
C95 C94 1.473 1_565 S
C96 C91 1.342 . S
C96 C94 1.284 1_565 S
C96 H115 0.935 . S
C97 C100 1.424 . S
C97 C102 1.245 . S
C97 C103 1.428 . S
C98 C101 1.260 . S
C98 C102 1.477 . S
C98 H116 0.932 . S
C99 C100 1.384 . S
C99 C101 1.479 . S
C99 H117 0.929 . S
C100 C97 1.424 . S
C100 C99 1.384 . S
C100 H118 0.928 . S
C101 C98 1.260 . S
C101 C99 1.479 . S
C102 C97 1.245 . S
C102 C98 1.477 . S
C102 H119 0.932 . S
C103 U86 2.882 . S
C103 C97 1.428 . S
C103 O106 1.301 . S
C103 O107 1.282 . S
O104 U86 2.441 . S
O104 C90 1.249 . S
O105 U86 2.420 . S
O105 C90 1.202 . S
O106 U86 2.455 . S
O106 C103 1.301 . S
O107 U86 2.449 . S
O107 C103 1.282 . S
H108 C81 0.931 . S
H109 C83 0.929 . S
H110 C84 0.925 1_545 S
H111 C85 0.931 . S
H112 C92 0.932 . S
H113 C93 0.930 . S
H114 C94 0.932 . S
H115 C96 0.935 . S
H116 C98 0.932 . S
H117 C99 0.929 . S
H118 C100 0.928 . S
H119 C102 0.932 . S
C120 C121 1.264 . S
C120 C125 1.479 . S
C120 C130 1.465 . S
C121 C120 1.264 . S
C121 C123 1.339 . S
C121 H148 0.931 . S
C122 C123 1.395 . S
C122 C124 1.320 . S
C123 C121 1.339 . S
C123 C122 1.395 . S
C123 H149 0.929 . S
C124 C122 1.320 . S
C124 C125 1.405 . S
C124 H150 0.930 . S
C125 C120 1.479 . S
C125 C124 1.405 . S
C125 H151 0.931 . S
U126 O127 2.454 . S
U126 O128 2.458 . S
U126 C129 2.984 . S
U126 C130 2.847 . S
U126 C143 2.882 . S
U126 O144 2.441 . S
U126 O145 2.420 . S
U126 O146 2.455 . S
U126 O147 2.449 . S
O127 U126 2.454 . S
O127 C129 1.353 . S
O128 U126 2.458 . S
O128 C129 1.286 . S
C129 U126 2.984 . S
C129 O127 1.353 . S
C129 O128 1.286 . S
C129 C131 1.363 . S
C130 C120 1.465 . S
C130 U126 2.847 . S
C130 O144 1.249 . S
C130 O145 1.202 . S
C131 C129 1.363 . S
C131 C133 1.408 . S
C131 C136 1.342 . S
C132 C133 1.310 . S
C132 C135 1.461 . S
C132 H152 0.932 . S
C133 C131 1.408 . S
C133 C132 1.310 . S
C133 H153 0.930 . S
C134 C135 1.474 . S
C134 C136 1.285 . S
C134 H154 0.929 . S
C135 C132 1.461 . S
C135 C134 1.474 . S
C136 C131 1.342 . S
C136 C134 1.285 . S
C136 H155 0.930 . S
C137 C140 1.424 . S
C137 C142 1.245 . S
C137 C143 1.428 1_565 S
C138 C141 1.260 . S
C138 C142 1.477 . S
C138 H156 0.932 . S
C139 C140 1.384 . S
C139 C141 1.479 . S
C139 H157 0.929 . S
C140 C137 1.424 . S
C140 C139 1.384 . S
C140 H158 0.928 . S
C141 C138 1.260 . S
C141 C139 1.479 . S
C142 C137 1.245 . S
C142 C138 1.477 . S
C142 H159 0.932 . S
C143 U126 2.882 . S
C143 C137 1.428 1_545 S
C143 O146 1.301 . S
C143 O147 1.282 . S
O144 U126 2.441 . S
O144 C130 1.249 . S
O145 U126 2.420 . S
O145 C130 1.202 . S
O146 U126 2.455 . S
O146 C143 1.301 . S
O147 U126 2.449 . S
O147 C143 1.282 . S
H148 C121 0.931 . S
H149 C123 0.929 . S
H150 C124 0.930 . S
H151 C125 0.931 . S
H152 C132 0.932 . S
H153 C133 0.930 . S
H154 C134 0.929 . S
H155 C136 0.930 . S
H156 C138 0.932 . S
H157 C139 0.929 . S
H158 C140 0.928 . S
H159 C142 0.932 . S
C160 C161 1.264 . S
C160 C165 1.479 . S
C160 C170 1.465 . S
C161 C160 1.264 . S
C161 C163 1.339 . S
C161 H188 0.931 . S
C162 C163 1.395 . S
C162 C164 1.320 . S
C163 C161 1.339 . S
C163 C162 1.395 . S
C163 H189 0.929 . S
C164 C162 1.320 . S
C164 C165 1.405 . S
C164 H190 0.930 . S
C165 C160 1.479 . S
C165 C164 1.405 . S
C165 H191 0.931 . S
U166 O167 2.454 . S
U166 O168 2.458 . S
U166 C169 2.984 . S
U166 C170 2.847 . S
U166 C183 2.882 . S
U166 O184 2.441 . S
U166 O185 2.420 . S
U166 O186 2.455 . S
U166 O187 2.449 . S
O167 U166 2.454 . S
O167 C169 1.353 . S
O168 U166 2.458 . S
O168 C169 1.286 . S
C169 U166 2.984 . S
C169 O167 1.353 . S
C169 O168 1.286 . S
C169 C171 1.363 . S
C170 C160 1.465 . S
C170 U166 2.847 . S
C170 O184 1.249 . S
C170 O185 1.202 . S
C171 C169 1.363 . S
C171 C173 1.408 . S
C171 C176 1.342 . S
C172 C173 1.310 . S
C172 C175 1.461 . S
C172 H192 0.932 . S
C173 C171 1.408 . S
C173 C172 1.310 . S
C173 H193 0.930 . S
C174 C175 1.474 . S
C174 C176 1.285 . S
C174 H194 0.929 . S
C175 C172 1.461 . S
C175 C174 1.474 . S
C176 C171 1.342 . S
C176 C174 1.285 . S
C176 H195 0.930 . S
C177 C180 1.424 . S
C177 C182 1.245 . S
C177 C183 1.428 . S
C178 C181 1.260 . S
C178 C182 1.477 . S
C178 H196 0.932 . S
C179 C180 1.384 . S
C179 C181 1.479 . S
C179 H197 0.929 . S
C180 C177 1.424 . S
C180 C179 1.384 . S
C180 H198 0.928 . S
C181 C178 1.260 . S
C181 C179 1.479 . S
C182 C177 1.245 . S
C182 C178 1.477 . S
C182 H199 0.932 . S
C183 U166 2.882 . S
C183 C177 1.428 . S
C183 O186 1.301 . S
C183 O187 1.282 . S
O184 U166 2.441 . S
O184 C170 1.249 . S
O185 U166 2.420 . S
O185 C170 1.202 . S
O186 U166 2.455 . S
O186 C183 1.301 . S
O187 U166 2.449 . S
O187 C183 1.282 . S
H188 C161 0.931 . S
H189 C163 0.929 . S
H190 C164 0.930 . S
H191 C165 0.931 . S
H192 C172 0.932 . S
H193 C173 0.930 . S
H194 C174 0.929 . S
H195 C176 0.930 . S
H196 C178 0.932 . S
H197 C179 0.929 . S
H198 C180 0.928 . S
H199 C182 0.932 . S
C200 C201 1.264 . S
C200 C205 1.479 . S
C200 C210 1.465 . S
C201 C200 1.264 . S
C201 C203 1.339 . S
C201 H228 0.931 . S
C202 C203 1.395 . S
C202 C204 1.320 . S
C203 C201 1.339 . S
C203 C202 1.395 . S
C203 H229 0.929 . S
C204 C202 1.320 . S
C204 C205 1.405 . S
C204 H230 0.930 . S
C205 C200 1.479 . S
C205 C204 1.405 . S
C205 H231 0.931 . S
U206 O207 2.454 . S
U206 O208 2.458 . S
U206 C209 2.984 . S
U206 C210 2.847 . S
U206 C223 2.882 . S
U206 O224 2.441 . S
U206 O225 2.420 . S
U206 O226 2.455 . S
U206 O227 2.449 . S
O207 U206 2.454 . S
O207 C209 1.353 . S
O208 U206 2.458 . S
O208 C209 1.286 . S
C209 U206 2.984 . S
C209 O207 1.353 . S
C209 O208 1.286 . S
C209 C211 1.363 . S
C210 C200 1.465 . S
C210 U206 2.847 . S
C210 O224 1.249 . S
C210 O225 1.202 . S
C211 C209 1.363 . S
C211 C213 1.408 . S
C211 C216 1.342 . S
C212 C213 1.310 . S
C212 C215 1.461 . S
C212 H232 0.932 . S
C213 C211 1.408 . S
C213 C212 1.310 . S
C213 H233 0.930 . S
C214 C215 1.474 . S
C214 C216 1.285 . S
C214 H234 0.929 . S
C215 C212 1.461 . S
C215 C214 1.474 . S
C216 C211 1.342 . S
C216 C214 1.285 . S
C216 H235 0.930 . S
C217 C220 1.424 . S
C217 C222 1.245 . S
C217 C223 1.428 1_556 S
C218 C221 1.260 . S
C218 C222 1.477 . S
C218 H236 0.932 . S
C219 C220 1.384 . S
C219 C221 1.479 . S
C219 H237 0.929 . S
C220 C217 1.424 . S
C220 C219 1.384 . S
C220 H238 0.928 . S
C221 C218 1.260 . S
C221 C219 1.479 . S
C222 C217 1.245 . S
C222 C218 1.477 . S
C222 H239 0.932 . S
C223 U206 2.882 . S
C223 C217 1.428 1_554 S
C223 O226 1.301 . S
C223 O227 1.282 . S
O224 U206 2.441 . S
O224 C210 1.249 . S
O225 U206 2.420 . S
O225 C210 1.202 . S
O226 U206 2.455 . S
O226 C223 1.301 . S
O227 U206 2.449 . S
O227 C223 1.282 . S
H228 C201 0.931 . S
H229 C203 0.929 . S
H230 C204 0.930 . S
H231 C205 0.931 . S
H232 C212 0.932 . S
H233 C213 0.930 . S
H234 C214 0.929 . S
H235 C216 0.930 . S
H236 C218 0.932 . S
H237 C219 0.929 . S
H238 C220 0.928 . S
H239 C222 0.932 . S
C240 C241 1.264 . S
C240 C245 1.479 . S
C240 C250 1.465 . S
C241 C240 1.264 . S
C241 C243 1.339 . S
C241 H268 0.931 . S
C242 C243 1.395 . S
C242 C244 1.320 . S
C243 C241 1.339 . S
C243 C242 1.395 . S
C243 H269 0.929 . S
C244 C242 1.320 . S
C244 C245 1.405 . S
C244 H270 0.930 . S
C245 C240 1.479 . S
C245 C244 1.405 . S
C245 H271 0.931 . S
U246 O247 2.454 . S
U246 O248 2.458 . S
U246 C249 2.984 . S
U246 C250 2.847 . S
U246 C263 2.882 . S
U246 O264 2.441 . S
U246 O265 2.420 . S
U246 O266 2.455 . S
U246 O267 2.449 . S
O247 U246 2.454 . S
O247 C249 1.353 . S
O248 U246 2.458 . S
O248 C249 1.286 . S
C249 U246 2.984 . S
C249 O247 1.353 . S
C249 O248 1.286 . S
C249 C251 1.363 . S
C250 C240 1.465 . S
C250 U246 2.847 . S
C250 O264 1.249 . S
C250 O265 1.202 . S
C251 C249 1.363 . S
C251 C253 1.408 . S
C251 C256 1.342 . S
C252 C253 1.310 . S
C252 C255 1.461 . S
C252 H272 0.932 . S
C253 C251 1.408 . S
C253 C252 1.310 . S
C253 H273 0.930 . S
C254 C255 1.474 . S
C254 C256 1.285 . S
C254 H274 0.929 . S
C255 C252 1.461 . S
C255 C254 1.474 . S
C256 C251 1.342 . S
C256 C254 1.285 . S
C256 H275 0.930 . S
C257 C260 1.424 . S
C257 C262 1.245 . S
C257 C263 1.428 . S
C258 C261 1.260 . S
C258 C262 1.477 . S
C258 H276 0.932 . S
C259 C260 1.384 . S
C259 C261 1.479 . S
C259 H277 0.929 . S
C260 C257 1.424 . S
C260 C259 1.384 . S
C260 H278 0.928 . S
C261 C258 1.260 . S
C261 C259 1.479 . S
C262 C257 1.245 . S
C262 C258 1.477 . S
C262 H279 0.932 . S
C263 U246 2.882 . S
C263 C257 1.428 . S
C263 O266 1.301 . S
C263 O267 1.282 . S
O264 U246 2.441 . S
O264 C250 1.249 . S
O265 U246 2.420 . S
O265 C250 1.202 . S
O266 U246 2.455 . S
O266 C263 1.301 . S
O267 U246 2.449 . S
O267 C263 1.282 . S
H268 C241 0.931 . S
H269 C243 0.929 . S
H270 C244 0.930 . S
H271 C245 0.931 . S
H272 C252 0.932 . S
H273 C253 0.930 . S
H274 C254 0.929 . S
H275 C256 0.930 . S
H276 C258 0.932 . S
H277 C259 0.929 . S
H278 C260 0.928 . S
H279 C262 0.932 . S
C280 C281 1.264 . S
C280 C285 1.479 . S
C280 C290 1.465 . S
C281 C280 1.264 . S
C281 C283 1.339 . S
C281 H308 0.931 . S
C282 C283 1.395 . S
C282 C284 1.320 . S
C283 C281 1.339 . S
C283 C282 1.395 . S
C283 H309 0.929 . S
C284 C282 1.320 . S
C284 C285 1.405 . S
C284 H310 0.925 1_556 S
C285 C280 1.479 . S
C285 C284 1.405 . S
C285 H311 0.931 . S
U286 O287 2.454 . S
U286 O288 2.458 . S
U286 C289 2.984 . S
U286 C290 2.847 . S
U286 C303 2.882 . S
U286 O304 2.441 . S
U286 O305 2.420 . S
U286 O306 2.455 . S
U286 O307 2.449 . S
O287 U286 2.454 . S
O287 C289 1.353 . S
O288 U286 2.458 . S
O288 C289 1.286 . S
C289 U286 2.984 . S
C289 O287 1.353 . S
C289 O288 1.286 . S
C289 C291 1.363 . S
C290 C280 1.465 . S
C290 U286 2.847 . S
C290 O304 1.249 . S
C290 O305 1.202 . S
C291 C289 1.363 . S
C291 C293 1.408 . S
C291 C296 1.342 . S
C292 C293 1.310 . S
C292 C295 1.461 . S
C292 H312 0.932 . S
C293 C291 1.408 . S
C293 C292 1.310 . S
C293 H313 0.930 . S
C294 C295 1.473 1_554 S
C294 C296 1.284 1_554 S
C294 H314 0.932 . S
C295 C292 1.461 . S
C295 C294 1.473 1_556 S
C296 C291 1.342 . S
C296 C294 1.284 1_556 S
C296 H315 0.935 . S
C297 C300 1.424 . S
C297 C302 1.245 . S
C297 C303 1.428 . S
C298 C301 1.260 . S
C298 C302 1.477 . S
C298 H316 0.932 . S
C299 C300 1.384 . S
C299 C301 1.479 . S
C299 H317 0.929 . S
C300 C297 1.424 . S
C300 C299 1.384 . S
C300 H318 0.928 . S
C301 C298 1.260 . S
C301 C299 1.479 . S
C302 C297 1.245 . S
C302 C298 1.477 . S
C302 H319 0.932 . S
C303 U286 2.882 . S
C303 C297 1.428 . S
C303 O306 1.301 . S
C303 O307 1.282 . S
O304 U286 2.441 . S
O304 C290 1.249 . S
O305 U286 2.420 . S
O305 C290 1.202 . S
O306 U286 2.455 . S
O306 C303 1.301 . S
O307 U286 2.449 . S
O307 C303 1.282 . S
H308 C281 0.931 . S
H309 C283 0.929 . S
H310 C284 0.925 1_554 S
H311 C285 0.931 . S
H312 C292 0.932 . S
H313 C293 0.930 . S
H314 C294 0.932 . S
H315 C296 0.935 . S
H316 C298 0.932 . S
H317 C299 0.929 . S
H318 C300 0.928 . S
H319 C302 0.932 . S
C320 C321 1.264 . S
C320 C325 1.479 . S
C320 C330 1.465 . S
C321 C320 1.264 . S
C321 C323 1.339 . S
C321 H348 0.931 . S
C322 C323 1.395 . S
C322 C324 1.320 . S
C323 C321 1.339 . S
C323 C322 1.395 . S
C323 H349 0.929 . S
C324 C322 1.320 . S
C324 C325 1.405 . S
C324 H350 0.930 . S
C325 C320 1.479 . S
C325 C324 1.405 . S
C325 H351 0.931 . S
U326 O327 2.454 . S
U326 O328 2.458 . S
U326 C329 2.984 . S
U326 C330 2.847 . S
U326 C343 2.882 . S
U326 O344 2.441 . S
U326 O345 2.420 . S
U326 O346 2.455 . S
U326 O347 2.449 . S
O327 U326 2.454 . S
O327 C329 1.353 . S
O328 U326 2.458 . S
O328 C329 1.286 . S
C329 U326 2.984 . S
C329 O327 1.353 . S
C329 O328 1.286 . S
C329 C331 1.363 . S
C330 C320 1.465 . S
C330 U326 2.847 . S
C330 O344 1.249 . S
C330 O345 1.202 . S
C331 C329 1.363 . S
C331 C333 1.408 . S
C331 C336 1.342 . S
C332 C333 1.310 . S
C332 C335 1.461 . S
C332 H352 0.932 . S
C333 C331 1.408 . S
C333 C332 1.310 . S
C333 H353 0.930 . S
C334 C335 1.474 . S
C334 C336 1.285 . S
C334 H354 0.929 . S
C335 C332 1.461 . S
C335 C334 1.474 . S
C336 C331 1.342 . S
C336 C334 1.285 . S
C336 H355 0.930 . S
C337 C340 1.424 . S
C337 C342 1.245 . S
C337 C343 1.428 . S
C338 C341 1.260 . S
C338 C342 1.477 . S
C338 H356 0.932 . S
C339 C340 1.384 . S
C339 C341 1.479 . S
C339 H357 0.929 . S
C340 C337 1.424 . S
C340 C339 1.384 . S
C340 H358 0.928 . S
C341 C338 1.260 . S
C341 C339 1.479 . S
C342 C337 1.245 . S
C342 C338 1.477 . S
C342 H359 0.932 . S
C343 U326 2.882 . S
C343 C337 1.428 . S
C343 O346 1.301 . S
C343 O347 1.282 . S
O344 U326 2.441 . S
O344 C330 1.249 . S
O345 U326 2.420 . S
O345 C330 1.202 . S
O346 U326 2.455 . S
O346 C343 1.301 . S
O347 U326 2.449 . S
O347 C343 1.282 . S
H348 C321 0.931 . S
H349 C323 0.929 . S
H350 C324 0.930 . S
H351 C325 0.931 . S
H352 C332 0.932 . S
H353 C333 0.930 . S
H354 C334 0.929 . S
H355 C336 0.930 . S
H356 C338 0.932 . S
H357 C339 0.929 . S
H358 C340 0.928 . S
H359 C342 0.932 . S
C360 C361 1.264 . S
C360 C365 1.479 . S
C360 C370 1.465 . S
C361 C360 1.264 . S
C361 C363 1.339 . S
C361 H388 0.931 . S
C362 C363 1.395 . S
C362 C364 1.320 . S
C363 C361 1.339 . S
C363 C362 1.395 . S
C363 H389 0.929 . S
C364 C362 1.320 . S
C364 C365 1.405 . S
C364 H390 0.930 . S
C365 C360 1.479 . S
C365 C364 1.405 . S
C365 H391 0.931 . S
U366 O367 2.454 . S
U366 O368 2.458 . S
U366 C369 2.984 . S
U366 C370 2.847 . S
U366 C383 2.882 . S
U366 O384 2.441 . S
U366 O385 2.420 . S
U366 O386 2.455 . S
U366 O387 2.449 . S
O367 U366 2.454 . S
O367 C369 1.353 . S
O368 U366 2.458 . S
O368 C369 1.286 . S
C369 U366 2.984 . S
C369 O367 1.353 . S
C369 O368 1.286 . S
C369 C371 1.363 . S
C370 C360 1.465 . S
C370 U366 2.847 . S
C370 O384 1.249 . S
C370 O385 1.202 . S
C371 C369 1.363 . S
C371 C373 1.408 . S
C371 C376 1.342 . S
C372 C373 1.310 . S
C372 C375 1.461 . S
C372 H392 0.932 . S
C373 C371 1.408 . S
C373 C372 1.310 . S
C373 H393 0.930 . S
C374 C375 1.474 . S
C374 C376 1.285 . S
C374 H394 0.929 . S
C375 C372 1.461 . S
C375 C374 1.474 . S
C376 C371 1.342 . S
C376 C374 1.285 . S
C376 H395 0.930 . S
C377 C380 1.424 . S
C377 C382 1.245 . S
C377 C383 1.428 1_655 S
C378 C381 1.260 . S
C378 C382 1.477 . S
C378 H396 0.932 . S
C379 C380 1.384 . S
C379 C381 1.479 . S
C379 H397 0.929 . S
C380 C377 1.424 . S
C380 C379 1.384 . S
C380 H398 0.928 . S
C381 C378 1.260 . S
C381 C379 1.479 . S
C382 C377 1.245 . S
C382 C378 1.477 . S
C382 H399 0.932 . S
C383 U366 2.882 . S
C383 C377 1.428 1_455 S
C383 O386 1.301 . S
C383 O387 1.282 . S
O384 U366 2.441 . S
O384 C370 1.249 . S
O385 U366 2.420 . S
O385 C370 1.202 . S
O386 U366 2.455 . S
O386 C383 1.301 . S
O387 U366 2.449 . S
O387 C383 1.282 . S
H388 C361 0.931 . S
H389 C363 0.929 . S
H390 C364 0.930 . S
H391 C365 0.931 . S
H392 C372 0.932 . S
H393 C373 0.930 . S
H394 C374 0.929 . S
H395 C376 0.930 . S
H396 C378 0.932 . S
H397 C379 0.929 . S
H398 C380 0.928 . S
H399 C382 0.932 . S
C400 C401 1.264 . S
C400 C405 1.479 . S
C400 C410 1.465 . S
C401 C400 1.264 . S
C401 C403 1.339 . S
C401 H428 0.931 . S
C402 C403 1.395 . S
C402 C404 1.320 . S
C403 C401 1.339 . S
C403 C402 1.395 . S
C403 H429 0.929 . S
C404 C402 1.320 . S
C404 C405 1.405 . S
C404 H430 0.930 . S
C405 C400 1.479 . S
C405 C404 1.405 . S
C405 H431 0.931 . S
U406 O407 2.454 . S
U406 O408 2.458 . S
U406 C409 2.984 . S
U406 C410 2.847 . S
U406 C423 2.882 . S
U406 O424 2.441 . S
U406 O425 2.420 . S
U406 O426 2.455 . S
U406 O427 2.449 . S
O407 U406 2.454 . S
O407 C409 1.353 . S
O408 U406 2.458 . S
O408 C409 1.286 . S
C409 U406 2.984 . S
C409 O407 1.353 . S
C409 O408 1.286 . S
C409 C411 1.363 . S
C410 C400 1.465 . S
C410 U406 2.847 . S
C410 O424 1.249 . S
C410 O425 1.202 . S
C411 C409 1.363 . S
C411 C413 1.408 . S
C411 C416 1.342 . S
C412 C413 1.310 . S
C412 C415 1.461 . S
C412 H432 0.932 . S
C413 C411 1.408 . S
C413 C412 1.310 . S
C413 H433 0.930 . S
C414 C415 1.474 . S
C414 C416 1.285 . S
C414 H434 0.929 . S
C415 C412 1.461 . S
C415 C414 1.474 . S
C416 C411 1.342 . S
C416 C414 1.285 . S
C416 H435 0.930 . S
C417 C420 1.424 . S
C417 C422 1.245 . S
C417 C423 1.428 . S
C418 C421 1.260 . S
C418 C422 1.477 . S
C418 H436 0.932 . S
C419 C420 1.384 . S
C419 C421 1.479 . S
C419 H437 0.929 . S
C420 C417 1.424 . S
C420 C419 1.384 . S
C420 H438 0.928 . S
C421 C418 1.260 . S
C421 C419 1.479 . S
C422 C417 1.245 . S
C422 C418 1.477 . S
C422 H439 0.932 . S
C423 U406 2.882 . S
C423 C417 1.428 . S
C423 O426 1.301 . S
C423 O427 1.282 . S
O424 U406 2.441 . S
O424 C410 1.249 . S
O425 U406 2.420 . S
O425 C410 1.202 . S
O426 U406 2.455 . S
O426 C423 1.301 . S
O427 U406 2.449 . S
O427 C423 1.282 . S
H428 C401 0.931 . S
H429 C403 0.929 . S
H430 C404 0.930 . S
H431 C405 0.931 . S
H432 C412 0.932 . S
H433 C413 0.930 . S
H434 C414 0.929 . S
H435 C416 0.930 . S
H436 C418 0.932 . S
H437 C419 0.929 . S
H438 C420 0.928 . S
H439 C422 0.932 . S
C440 C441 1.264 . S
C440 C445 1.479 . S
C440 C450 1.465 . S
C441 C440 1.264 . S
C441 C443 1.339 . S
C441 H468 0.931 . S
C442 C443 1.395 . S
C442 C444 1.320 . S
C443 C441 1.339 . S
C443 C442 1.395 . S
C443 H469 0.929 . S
C444 C442 1.320 . S
C444 C445 1.405 . S
C444 H470 0.925 1_655 S
C445 C440 1.479 . S
C445 C444 1.405 . S
C445 H471 0.931 . S
U446 O447 2.454 . S
U446 O448 2.458 . S
U446 C449 2.984 . S
U446 C450 2.847 . S
U446 C463 2.882 . S
U446 O464 2.441 . S
U446 O465 2.420 . S
U446 O466 2.455 . S
U446 O467 2.449 . S
O447 U446 2.454 . S
O447 C449 1.353 . S
O448 U446 2.458 . S
O448 C449 1.286 . S
C449 U446 2.984 . S
C449 O447 1.353 . S
C449 O448 1.286 . S
C449 C451 1.363 . S
C450 C440 1.465 . S
C450 U446 2.847 . S
C450 O464 1.249 . S
C450 O465 1.202 . S
C451 C449 1.363 . S
C451 C453 1.408 . S
C451 C456 1.342 . S
C452 C453 1.310 . S
C452 C455 1.461 . S
C452 H472 0.932 . S
C453 C451 1.408 . S
C453 C452 1.310 . S
C453 H473 0.930 . S
C454 C455 1.473 1_455 S
C454 C456 1.284 1_455 S
C454 H474 0.932 . S
C455 C452 1.461 . S
C455 C454 1.473 1_655 S
C456 C451 1.342 . S
C456 C454 1.284 1_655 S
C456 H475 0.935 . S
C457 C460 1.424 . S
C457 C462 1.245 . S
C457 C463 1.428 . S
C458 C461 1.260 . S
C458 C462 1.477 . S
C458 H476 0.932 . S
C459 C460 1.384 . S
C459 C461 1.479 . S
C459 H477 0.929 . S
C460 C457 1.424 . S
C460 C459 1.384 . S
C460 H478 0.928 . S
C461 C458 1.260 . S
C461 C459 1.479 . S
C462 C457 1.245 . S
C462 C458 1.477 . S
C462 H479 0.932 . S
C463 U446 2.882 . S
C463 C457 1.428 . S
C463 O466 1.301 . S
C463 O467 1.282 . S
O464 U446 2.441 . S
O464 C450 1.249 . S
O465 U446 2.420 . S
O465 C450 1.202 . S
O466 U446 2.455 . S
O466 C463 1.301 . S
O467 U446 2.449 . S
O467 C463 1.282 . S
H468 C441 0.931 . S
H469 C443 0.929 . S
H470 C444 0.925 1_455 S
H471 C445 0.931 . S
H472 C452 0.932 . S
H473 C453 0.930 . S
H474 C454 0.932 . S
H475 C456 0.935 . S
H476 C458 0.932 . S
H477 C459 0.929 . S
H478 C460 0.928 . S
H479 C462 0.932 . S
C480 C481 1.264 . S
C480 C485 1.479 . S
C480 C490 1.465 . S
C481 C480 1.264 . S
C481 C483 1.339 . S
C481 H508 0.931 . S
C482 C483 1.395 . S
C482 C484 1.320 . S
C483 C481 1.339 . S
C483 C482 1.395 . S
C483 H509 0.929 . S
C484 C482 1.320 . S
C484 C485 1.405 . S
C484 H510 0.930 . S
C485 C480 1.479 . S
C485 C484 1.405 . S
C485 H511 0.931 . S
U486 O487 2.454 . S
U486 O488 2.458 . S
U486 C489 2.984 . S
U486 C490 2.847 . S
U486 C503 2.882 . S
U486 O504 2.441 . S
U486 O505 2.420 . S
U486 O506 2.455 . S
U486 O507 2.449 . S
O487 U486 2.454 . S
O487 C489 1.353 . S
O488 U486 2.458 . S
O488 C489 1.286 . S
C489 U486 2.984 . S
C489 O487 1.353 . S
C489 O488 1.286 . S
C489 C491 1.363 . S
C490 C480 1.465 . S
C490 U486 2.847 . S
C490 O504 1.249 . S
C490 O505 1.202 . S
C491 C489 1.363 . S
C491 C493 1.408 . S
C491 C496 1.342 . S
C492 C493 1.310 . S
C492 C495 1.461 . S
C492 H512 0.932 . S
C493 C491 1.408 . S
C493 C492 1.310 . S
C493 H513 0.930 . S
C494 C495 1.474 . S
C494 C496 1.285 . S
C494 H514 0.929 . S
C495 C492 1.461 . S
C495 C494 1.474 . S
C496 C491 1.342 . S
C496 C494 1.285 . S
C496 H515 0.930 . S
C497 C500 1.424 . S
C497 C502 1.245 . S
C497 C503 1.428 . S
C498 C501 1.260 . S
C498 C502 1.477 . S
C498 H516 0.932 . S
C499 C500 1.384 . S
C499 C501 1.479 . S
C499 H517 0.929 . S
C500 C497 1.424 . S
C500 C499 1.384 . S
C500 H518 0.928 . S
C501 C498 1.260 . S
C501 C499 1.479 . S
C502 C497 1.245 . S
C502 C498 1.477 . S
C502 H519 0.932 . S
C503 U486 2.882 . S
C503 C497 1.428 . S
C503 O506 1.301 . S
C503 O507 1.282 . S
O504 U486 2.441 . S
O504 C490 1.249 . S
O505 U486 2.420 . S
O505 C490 1.202 . S
O506 U486 2.455 . S
O506 C503 1.301 . S
O507 U486 2.449 . S
O507 C503 1.282 . S
H508 C481 0.931 . S
H509 C483 0.929 . S
H510 C484 0.930 . S
H511 C485 0.931 . S
H512 C492 0.932 . S
H513 C493 0.930 . S
H514 C494 0.929 . S
H515 C496 0.930 . S
H516 C498 0.932 . S
H517 C499 0.929 . S
H518 C500 0.928 . S
H519 C502 0.932 . S
C520 C521 1.264 . S
C520 C525 1.479 . S
C520 C530 1.465 . S
C521 C520 1.264 . S
C521 C523 1.339 . S
C521 H548 0.931 . S
C522 C523 1.395 . S
C522 C524 1.320 . S
C523 C521 1.339 . S
C523 C522 1.395 . S
C523 H549 0.929 . S
C524 C522 1.320 . S
C524 C525 1.405 . S
C524 H550 0.930 . S
C525 C520 1.479 . S
C525 C524 1.405 . S
C525 H551 0.931 . S
U526 O527 2.454 . S
U526 O528 2.458 . S
U526 C529 2.984 . S
U526 C530 2.847 . S
U526 C543 2.882 . S
U526 O544 2.441 . S
U526 O545 2.420 . S
U526 O546 2.455 . S
U526 O547 2.449 . S
O527 U526 2.454 . S
O527 C529 1.353 . S
O528 U526 2.458 . S
O528 C529 1.286 . S
C529 U526 2.984 . S
C529 O527 1.353 . S
C529 O528 1.286 . S
C529 C531 1.363 . S
C530 C520 1.465 . S
C530 U526 2.847 . S
C530 O544 1.249 . S
C530 O545 1.202 . S
C531 C529 1.363 . S
C531 C533 1.408 . S
C531 C536 1.342 . S
C532 C533 1.310 . S
C532 C535 1.461 . S
C532 H552 0.932 . S
C533 C531 1.408 . S
C533 C532 1.310 . S
C533 H553 0.930 . S
C534 C535 1.474 . S
C534 C536 1.285 . S
C534 H554 0.929 . S
C535 C532 1.461 . S
C535 C534 1.474 . S
C536 C531 1.342 . S
C536 C534 1.285 . S
C536 H555 0.930 . S
C537 C540 1.424 . S
C537 C542 1.245 . S
C537 C543 1.428 . S
C538 C541 1.260 . S
C538 C542 1.477 . S
C538 H556 0.932 . S
C539 C540 1.384 . S
C539 C541 1.479 . S
C539 H557 0.929 . S
C540 C537 1.424 . S
C540 C539 1.384 . S
C540 H558 0.928 . S
C541 C538 1.260 . S
C541 C539 1.479 . S
C542 C537 1.245 . S
C542 C538 1.477 . S
C542 H559 0.932 . S
C543 U526 2.882 . S
C543 C537 1.428 . S
C543 O546 1.301 . S
C543 O547 1.282 . S
O544 U526 2.441 . S
O544 C530 1.249 . S
O545 U526 2.420 . S
O545 C530 1.202 . S
O546 U526 2.455 . S
O546 C543 1.301 . S
O547 U526 2.449 . S
O547 C543 1.282 . S
H548 C521 0.931 . S
H549 C523 0.929 . S
H550 C524 0.930 . S
H551 C525 0.931 . S
H552 C532 0.932 . S
H553 C533 0.930 . S
H554 C534 0.929 . S
H555 C536 0.930 . S
H556 C538 0.932 . S
H557 C539 0.929 . S
H558 C540 0.928 . S
H559 C542 0.932 . S
C560 C561 1.264 . S
C560 C565 1.479 . S
C560 C570 1.465 . S
C561 C560 1.264 . S
C561 C563 1.339 . S
C561 H588 0.931 . S
C562 C563 1.395 . S
C562 C564 1.320 . S
C563 C561 1.339 . S
C563 C562 1.395 . S
C563 H589 0.929 . S
C564 C562 1.320 . S
C564 C565 1.405 . S
C564 H590 0.920 1_565 S
C565 C560 1.479 . S
C565 C564 1.405 . S
C565 H591 0.931 . S
U566 O567 2.454 . S
U566 O568 2.458 . S
U566 C569 2.984 . S
U566 C570 2.847 . S
U566 C583 2.882 . S
U566 O584 2.441 . S
U566 O585 2.420 . S
U566 O586 2.455 . S
U566 O587 2.449 . S
O567 U566 2.454 . S
O567 C569 1.353 . S
O568 U566 2.458 . S
O568 C569 1.286 . S
C569 U566 2.984 . S
C569 O567 1.353 . S
C569 O568 1.286 . S
C569 C571 1.363 . S
C570 C560 1.465 . S
C570 U566 2.847 . S
C570 O584 1.249 . S
C570 O585 1.202 . S
C571 C569 1.363 . S
C571 C573 1.408 . S
C571 C576 1.342 . S
C572 C573 1.310 . S
C572 C575 1.460 . S
C572 H592 0.932 . S
C573 C571 1.408 . S
C573 C572 1.310 . S
C573 H593 0.930 . S
C574 C575 1.475 1_545 S
C574 C576 1.286 1_545 S
C574 H594 0.930 . S
C575 C572 1.460 . S
C575 C574 1.475 1_565 S
C576 C571 1.342 . S
C576 C574 1.286 1_565 S
C576 H595 0.929 . S
C577 C580 1.424 . S
C577 C582 1.245 . S
C577 C583 1.428 . S
C578 C581 1.260 . S
C578 C582 1.477 . S
C578 H596 0.932 . S
C579 C580 1.384 . S
C579 C581 1.479 . S
C579 H597 0.929 . S
C580 C577 1.424 . S
C580 C579 1.384 . S
C580 H598 0.928 . S
C581 C578 1.260 . S
C581 C579 1.479 . S
C582 C577 1.245 . S
C582 C578 1.477 . S
C582 H599 0.932 . S
C583 U566 2.882 . S
C583 C577 1.428 . S
C583 O586 1.301 . S
C583 O587 1.282 . S
O584 U566 2.441 . S
O584 C570 1.249 . S
O585 U566 2.420 . S
O585 C570 1.202 . S
O586 U566 2.455 . S
O586 C583 1.301 . S
O587 U566 2.449 . S
O587 C583 1.282 . S
H588 C561 0.931 . S
H589 C563 0.929 . S
H590 C564 0.920 1_545 S
H591 C565 0.931 . S
H592 C572 0.932 . S
H593 C573 0.930 . S
H594 C574 0.930 . S
H595 C576 0.929 . S
H596 C578 0.932 . S
H597 C579 0.929 . S
H598 C580 0.928 . S
H599 C582 0.932 . S
C600 C601 1.264 . S
C600 C605 1.479 1_545 S
C600 C610 1.465 . S
C601 C600 1.264 . S
C601 C603 1.339 1_545 S
C601 H628 0.931 . S
C602 C603 1.395 . S
C602 C604 1.320 . S
C603 C601 1.339 1_565 S
C603 C602 1.395 . S
C603 H629 0.929 1_565 S
C604 C602 1.320 . S
C604 C605 1.405 . S
C604 H630 0.930 . S
C605 C600 1.479 1_565 S
C605 C604 1.405 . S
C605 H631 0.931 . S
U606 O607 2.454 1_545 S
U606 O608 2.458 . S
U606 C609 2.988 . S
U606 C610 2.847 . S
U606 C623 2.882 . S
U606 O624 2.441 . S
U606 O625 2.420 . S
U606 O626 2.455 . S
U606 O627 2.449 . S
O607 U606 2.454 1_565 S
O607 C609 1.350 1_565 S
O608 U606 2.458 . S
O608 C609 1.290 . S
C609 U606 2.988 . S
C609 O607 1.350 1_545 S
C609 O608 1.290 . S
C609 C611 1.361 1_545 S
C610 C600 1.465 . S
C610 U606 2.847 . S
C610 O624 1.249 . S
C610 O625 1.202 . S
C611 C609 1.361 1_565 S
C611 C613 1.408 . S
C611 C616 1.342 . S
C612 C613 1.310 . S
C612 C615 1.461 . S
C612 H632 0.932 . S
C613 C611 1.408 . S
C613 C612 1.310 . S
C613 H633 0.930 . S
C614 C615 1.474 . S
C614 C616 1.285 . S
C614 H634 0.929 . S
C615 C612 1.461 . S
C615 C614 1.474 . S
C616 C611 1.342 . S
C616 C614 1.285 . S
C616 H635 0.932 . S
C617 C620 1.424 . S
C617 C622 1.245 . S
C617 C623 1.428 . S
C618 C621 1.260 . S
C618 C622 1.477 . S
C618 H636 0.932 . S
C619 C620 1.384 . S
C619 C621 1.479 . S
C619 H637 0.929 . S
C620 C617 1.424 . S
C620 C619 1.384 . S
C620 H638 0.928 . S
C621 C618 1.260 . S
C621 C619 1.479 . S
C622 C617 1.245 . S
C622 C618 1.477 . S
C622 H639 0.932 . S
C623 U606 2.882 . S
C623 C617 1.428 . S
C623 O626 1.301 . S
C623 O627 1.282 . S
O624 U606 2.441 . S
O624 C610 1.249 . S
O625 U606 2.420 . S
O625 C610 1.202 . S
O626 U606 2.455 . S
O626 C623 1.301 . S
O627 U606 2.449 . S
O627 C623 1.282 . S
H628 C601 0.931 . S
H629 C603 0.929 1_545 S
H630 C604 0.930 . S
H631 C605 0.931 . S
H632 C612 0.932 . S
H633 C613 0.930 . S
H634 C614 0.929 . S
H635 C616 0.932 . S
H636 C618 0.932 . S
H637 C619 0.929 . S
H638 C620 0.928 . S
H639 C622 0.932 . S
C640 C641 1.264 . S
C640 C645 1.479 . S
C640 C650 1.465 . S
C641 C640 1.264 . S
C641 C643 1.339 . S
C641 H668 0.931 . S
C642 C643 1.395 . S
C642 C644 1.320 . S
C643 C641 1.339 . S
C643 C642 1.395 . S
C643 H669 0.929 . S
C644 C642 1.320 . S
C644 C645 1.405 . S
C644 H670 0.930 . S
C645 C640 1.479 . S
C645 C644 1.405 . S
C645 H671 0.931 . S
U646 O647 2.454 . S
U646 O648 2.458 . S
U646 C649 2.984 . S
U646 C650 2.847 . S
U646 C663 2.882 . S
U646 O664 2.441 . S
U646 O665 2.420 . S
U646 O666 2.455 . S
U646 O667 2.449 . S
O647 U646 2.454 . S
O647 C649 1.353 . S
O648 U646 2.458 . S
O648 C649 1.286 . S
C649 U646 2.984 . S
C649 O647 1.353 . S
C649 O648 1.286 . S
C649 C651 1.363 . S
C650 C640 1.465 . S
C650 U646 2.847 . S
C650 O664 1.249 . S
C650 O665 1.202 . S
C651 C649 1.363 . S
C651 C653 1.408 . S
C651 C656 1.342 . S
C652 C653 1.310 . S
C652 C655 1.461 . S
C652 H672 0.932 . S
C653 C651 1.408 . S
C653 C652 1.310 . S
C653 H673 0.930 . S
C654 C655 1.474 . S
C654 C656 1.285 . S
C654 H674 0.929 . S
C655 C652 1.461 . S
C655 C654 1.474 . S
C656 C651 1.342 . S
C656 C654 1.285 . S
C656 H675 0.930 . S
C657 C660 1.424 . S
C657 C662 1.245 . S
C657 C663 1.428 . S
C658 C661 1.260 . S
C658 C662 1.477 . S
C658 H676 0.932 . S
C659 C660 1.384 . S
C659 C661 1.479 . S
C659 H677 0.929 . S
C660 C657 1.424 . S
C660 C659 1.384 . S
C660 H678 0.928 . S
C661 C658 1.260 . S
C661 C659 1.479 . S
C662 C657 1.245 . S
C662 C658 1.477 . S
C662 H679 0.932 . S
C663 U646 2.882 . S
C663 C657 1.428 . S
C663 O666 1.301 . S
C663 O667 1.282 . S
O664 U646 2.441 . S
O664 C650 1.249 . S
O665 U646 2.420 . S
O665 C650 1.202 . S
O666 U646 2.455 . S
O666 C663 1.301 . S
O667 U646 2.449 . S
O667 C663 1.282 . S
H668 C641 0.931 . S
H669 C643 0.929 . S
H670 C644 0.930 . S
H671 C645 0.931 . S
H672 C652 0.932 . S
H673 C653 0.930 . S
H674 C654 0.929 . S
H675 C656 0.930 . S
H676 C658 0.932 . S
H677 C659 0.929 . S
H678 C660 0.928 . S
H679 C662 0.932 . S
C680 C681 1.264 . S
C680 C685 1.479 1_554 S
C680 C690 1.465 . S
C681 C680 1.264 . S
C681 C683 1.339 1_554 S
C681 H708 0.931 . S
C682 C683 1.395 . S
C682 C684 1.320 . S
C683 C681 1.339 1_556 S
C683 C682 1.395 . S
C683 H709 0.929 1_556 S
C684 C682 1.320 . S
C684 C685 1.405 . S
C684 H710 0.930 . S
C685 C680 1.479 1_556 S
C685 C684 1.405 . S
C685 H711 0.931 . S
U686 O687 2.454 1_554 S
U686 O688 2.458 . S
U686 C689 2.988 . S
U686 C690 2.847 . S
U686 C703 2.882 . S
U686 O704 2.441 . S
U686 O705 2.420 . S
U686 O706 2.455 . S
U686 O707 2.449 . S
O687 U686 2.454 1_556 S
O687 C689 1.350 1_556 S
O688 U686 2.458 . S
O688 C689 1.290 . S
C689 U686 2.988 . S
C689 O687 1.350 1_554 S
C689 O688 1.290 . S
C689 C691 1.361 1_554 S
C690 C680 1.465 . S
C690 U686 2.847 . S
C690 O704 1.249 . S
C690 O705 1.202 . S
C691 C689 1.361 1_556 S
C691 C693 1.408 . S
C691 C696 1.342 . S
C692 C693 1.310 . S
C692 C695 1.461 . S
C692 H712 0.932 . S
C693 C691 1.408 . S
C693 C692 1.310 . S
C693 H713 0.930 . S
C694 C695 1.474 . S
C694 C696 1.285 . S
C694 H714 0.929 . S
C695 C692 1.461 . S
C695 C694 1.474 . S
C696 C691 1.342 . S
C696 C694 1.285 . S
C696 H715 0.932 . S
C697 C700 1.424 . S
C697 C702 1.245 . S
C697 C703 1.428 . S
C698 C701 1.260 . S
C698 C702 1.477 . S
C698 H716 0.932 . S
C699 C700 1.384 . S
C699 C701 1.479 . S
C699 H717 0.929 . S
C700 C697 1.424 . S
C700 C699 1.384 . S
C700 H718 0.928 . S
C701 C698 1.260 . S
C701 C699 1.479 . S
C702 C697 1.245 . S
C702 C698 1.477 . S
C702 H719 0.932 . S
C703 U686 2.882 . S
C703 C697 1.428 . S
C703 O706 1.301 . S
C703 O707 1.282 . S
O704 U686 2.441 . S
O704 C690 1.249 . S
O705 U686 2.420 . S
O705 C690 1.202 . S
O706 U686 2.455 . S
O706 C703 1.301 . S
O707 U686 2.449 . S
O707 C703 1.282 . S
H708 C681 0.931 . S
H709 C683 0.929 1_554 S
H710 C684 0.930 . S
H711 C685 0.931 . S
H712 C692 0.932 . S
H713 C693 0.930 . S
H714 C694 0.929 . S
H715 C696 0.932 . S
H716 C698 0.932 . S
H717 C699 0.929 . S
H718 C700 0.928 . S
H719 C702 0.932 . S
C720 C721 1.264 . S
C720 C725 1.479 . S
C720 C730 1.465 . S
C721 C720 1.264 . S
C721 C723 1.339 . S
C721 H748 0.931 . S
C722 C723 1.395 . S
C722 C724 1.320 . S
C723 C721 1.339 . S
C723 C722 1.395 . S
C723 H749 0.929 . S
C724 C722 1.320 . S
C724 C725 1.405 . S
C724 H750 0.930 . S
C725 C720 1.479 . S
C725 C724 1.405 . S
C725 H751 0.931 . S
U726 O727 2.454 . S
U726 O728 2.458 . S
U726 C729 2.984 . S
U726 C730 2.847 . S
U726 C743 2.882 . S
U726 O744 2.441 . S
U726 O745 2.420 . S
U726 O746 2.455 . S
U726 O747 2.449 . S
O727 U726 2.454 . S
O727 C729 1.353 . S
O728 U726 2.458 . S
O728 C729 1.286 . S
C729 U726 2.984 . S
C729 O727 1.353 . S
C729 O728 1.286 . S
C729 C731 1.363 . S
C730 C720 1.465 . S
C730 U726 2.847 . S
C730 O744 1.249 . S
C730 O745 1.202 . S
C731 C729 1.363 . S
C731 C733 1.408 . S
C731 C736 1.342 . S
C732 C733 1.310 . S
C732 C735 1.461 . S
C732 H752 0.932 . S
C733 C731 1.408 . S
C733 C732 1.310 . S
C733 H753 0.930 . S
C734 C735 1.474 . S
C734 C736 1.285 . S
C734 H754 0.929 . S
C735 C732 1.461 . S
C735 C734 1.474 . S
C736 C731 1.342 . S
C736 C734 1.285 . S
C736 H755 0.930 . S
C737 C740 1.424 . S
C737 C742 1.245 . S
C737 C743 1.428 . S
C738 C741 1.260 . S
C738 C742 1.477 . S
C738 H756 0.932 . S
C739 C740 1.384 . S
C739 C741 1.479 . S
C739 H757 0.929 . S
C740 C737 1.424 . S
C740 C739 1.384 . S
C740 H758 0.928 . S
C741 C738 1.260 . S
C741 C739 1.479 . S
C742 C737 1.245 . S
C742 C738 1.477 . S
C742 H759 0.932 . S
C743 U726 2.882 . S
C743 C737 1.428 . S
C743 O746 1.301 . S
C743 O747 1.282 . S
O744 U726 2.441 . S
O744 C730 1.249 . S
O745 U726 2.420 . S
O745 C730 1.202 . S
O746 U726 2.455 . S
O746 C743 1.301 . S
O747 U726 2.449 . S
O747 C743 1.282 . S
H748 C721 0.931 . S
H749 C723 0.929 . S
H750 C724 0.930 . S
H751 C725 0.931 . S
H752 C732 0.932 . S
H753 C733 0.930 . S
H754 C734 0.929 . S
H755 C736 0.930 . S
H756 C738 0.932 . S
H757 C739 0.929 . S
H758 C740 0.928 . S
H759 C742 0.932 . S
C760 C761 1.264 . S
C760 C765 1.479 . S
C760 C770 1.465 . S
C761 C760 1.264 . S
C761 C763 1.339 . S
C761 H788 0.931 . S
C762 C763 1.395 . S
C762 C764 1.320 . S
C763 C761 1.339 . S
C763 C762 1.395 . S
C763 H789 0.929 . S
C764 C762 1.320 . S
C764 C765 1.405 . S
C764 H790 0.920 1_556 S
C765 C760 1.479 . S
C765 C764 1.405 . S
C765 H791 0.931 . S
U766 O767 2.454 . S
U766 O768 2.458 . S
U766 C769 2.984 . S
U766 C770 2.847 . S
U766 C783 2.882 . S
U766 O784 2.441 . S
U766 O785 2.420 . S
U766 O786 2.455 . S
U766 O787 2.449 . S
O767 U766 2.454 . S
O767 C769 1.353 . S
O768 U766 2.458 . S
O768 C769 1.286 . S
C769 U766 2.984 . S
C769 O767 1.353 . S
C769 O768 1.286 . S
C769 C771 1.363 . S
C770 C760 1.465 . S
C770 U766 2.847 . S
C770 O784 1.249 . S
C770 O785 1.202 . S
C771 C769 1.363 . S
C771 C773 1.408 . S
C771 C776 1.342 . S
C772 C773 1.310 . S
C772 C775 1.460 . S
C772 H792 0.932 . S
C773 C771 1.408 . S
C773 C772 1.310 . S
C773 H793 0.930 . S
C774 C775 1.475 1_554 S
C774 C776 1.286 1_554 S
C774 H794 0.930 . S
C775 C772 1.460 . S
C775 C774 1.475 1_556 S
C776 C771 1.342 . S
C776 C774 1.286 1_556 S
C776 H795 0.929 . S
C777 C780 1.424 . S
C777 C782 1.245 . S
C777 C783 1.428 . S
C778 C781 1.260 . S
C778 C782 1.477 . S
C778 H796 0.932 . S
C779 C780 1.384 . S
C779 C781 1.479 . S
C779 H797 0.929 . S
C780 C777 1.424 . S
C780 C779 1.384 . S
C780 H798 0.928 . S
C781 C778 1.260 . S
C781 C779 1.479 . S
C782 C777 1.245 . S
C782 C778 1.477 . S
C782 H799 0.932 . S
C783 U766 2.882 . S
C783 C777 1.428 . S
C783 O786 1.301 . S
C783 O787 1.282 . S
O784 U766 2.441 . S
O784 C770 1.249 . S
O785 U766 2.420 . S
O785 C770 1.202 . S
O786 U766 2.455 . S
O786 C783 1.301 . S
O787 U766 2.449 . S
O787 C783 1.282 . S
H788 C761 0.931 . S
H789 C763 0.929 . S
H790 C764 0.920 1_554 S
H791 C765 0.931 . S
H792 C772 0.932 . S
H793 C773 0.930 . S
H794 C774 0.930 . S
H795 C776 0.929 . S
H796 C778 0.932 . S
H797 C779 0.929 . S
H798 C780 0.928 . S
H799 C782 0.932 . S
C800 C801 1.264 . S
C800 C805 1.479 . S
C800 C810 1.465 . S
C801 C800 1.264 . S
C801 C803 1.339 . S
C801 H828 0.931 . S
C802 C803 1.395 . S
C802 C804 1.320 . S
C803 C801 1.339 . S
C803 C802 1.395 . S
C803 H829 0.929 . S
C804 C802 1.320 . S
C804 C805 1.405 . S
C804 H830 0.930 . S
C805 C800 1.479 . S
C805 C804 1.405 . S
C805 H831 0.931 . S
U806 O807 2.454 . S
U806 O808 2.458 . S
U806 C809 2.984 . S
U806 C810 2.847 . S
U806 C823 2.882 . S
U806 O824 2.441 . S
U806 O825 2.420 . S
U806 O826 2.455 . S
U806 O827 2.449 . S
O807 U806 2.454 . S
O807 C809 1.353 . S
O808 U806 2.458 . S
O808 C809 1.286 . S
C809 U806 2.984 . S
C809 O807 1.353 . S
C809 O808 1.286 . S
C809 C811 1.363 . S
C810 C800 1.465 . S
C810 U806 2.847 . S
C810 O824 1.249 . S
C810 O825 1.202 . S
C811 C809 1.363 . S
C811 C813 1.408 . S
C811 C816 1.342 . S
C812 C813 1.310 . S
C812 C815 1.461 . S
C812 H832 0.932 . S
C813 C811 1.408 . S
C813 C812 1.310 . S
C813 H833 0.930 . S
C814 C815 1.474 . S
C814 C816 1.285 . S
C814 H834 0.929 . S
C815 C812 1.461 . S
C815 C814 1.474 . S
C816 C811 1.342 . S
C816 C814 1.285 . S
C816 H835 0.930 . S
C817 C820 1.424 . S
C817 C822 1.245 . S
C817 C823 1.428 . S
C818 C821 1.260 . S
C818 C822 1.477 . S
C818 H836 0.932 . S
C819 C820 1.384 . S
C819 C821 1.479 . S
C819 H837 0.929 . S
C820 C817 1.424 . S
C820 C819 1.384 . S
C820 H838 0.928 . S
C821 C818 1.260 . S
C821 C819 1.479 . S
C822 C817 1.245 . S
C822 C818 1.477 . S
C822 H839 0.932 . S
C823 U806 2.882 . S
C823 C817 1.428 . S
C823 O826 1.301 . S
C823 O827 1.282 . S
O824 U806 2.441 . S
O824 C810 1.249 . S
O825 U806 2.420 . S
O825 C810 1.202 . S
O826 U806 2.455 . S
O826 C823 1.301 . S
O827 U806 2.449 . S
O827 C823 1.282 . S
H828 C801 0.931 . S
H829 C803 0.929 . S
H830 C804 0.930 . S
H831 C805 0.931 . S
H832 C812 0.932 . S
H833 C813 0.930 . S
H834 C814 0.929 . S
H835 C816 0.930 . S
H836 C818 0.932 . S
H837 C819 0.929 . S
H838 C820 0.928 . S
H839 C822 0.932 . S
C840 C841 1.264 . S
C840 C845 1.479 1_455 S
C840 C850 1.465 . S
C841 C840 1.264 . S
C841 C843 1.339 1_455 S
C841 H868 0.931 . S
C842 C843 1.395 . S
C842 C844 1.320 . S
C843 C841 1.339 1_655 S
C843 C842 1.395 . S
C843 H869 0.929 1_655 S
C844 C842 1.320 . S
C844 C845 1.405 . S
C844 H870 0.930 . S
C845 C840 1.479 1_655 S
C845 C844 1.405 . S
C845 H871 0.931 . S
U846 O847 2.454 1_455 S
U846 O848 2.458 . S
U846 C849 2.988 . S
U846 C850 2.847 . S
U846 C863 2.882 . S
U846 O864 2.441 . S
U846 O865 2.420 . S
U846 O866 2.455 . S
U846 O867 2.449 . S
O847 U846 2.454 1_655 S
O847 C849 1.350 1_655 S
O848 U846 2.458 . S
O848 C849 1.290 . S
C849 U846 2.988 . S
C849 O847 1.350 1_455 S
C849 O848 1.290 . S
C849 C851 1.361 1_455 S
C850 C840 1.465 . S
C850 U846 2.847 . S
C850 O864 1.249 . S
C850 O865 1.202 . S
C851 C849 1.361 1_655 S
C851 C853 1.408 . S
C851 C856 1.342 . S
C852 C853 1.310 . S
C852 C855 1.461 . S
C852 H872 0.932 . S
C853 C851 1.408 . S
C853 C852 1.310 . S
C853 H873 0.930 . S
C854 C855 1.474 . S
C854 C856 1.285 . S
C854 H874 0.929 . S
C855 C852 1.461 . S
C855 C854 1.474 . S
C856 C851 1.342 . S
C856 C854 1.285 . S
C856 H875 0.932 . S
C857 C860 1.424 . S
C857 C862 1.245 . S
C857 C863 1.428 . S
C858 C861 1.260 . S
C858 C862 1.477 . S
C858 H876 0.932 . S
C859 C860 1.384 . S
C859 C861 1.479 . S
C859 H877 0.929 . S
C860 C857 1.424 . S
C860 C859 1.384 . S
C860 H878 0.928 . S
C861 C858 1.260 . S
C861 C859 1.479 . S
C862 C857 1.245 . S
C862 C858 1.477 . S
C862 H879 0.932 . S
C863 U846 2.882 . S
C863 C857 1.428 . S
C863 O866 1.301 . S
C863 O867 1.282 . S
O864 U846 2.441 . S
O864 C850 1.249 . S
O865 U846 2.420 . S
O865 C850 1.202 . S
O866 U846 2.455 . S
O866 C863 1.301 . S
O867 U846 2.449 . S
O867 C863 1.282 . S
H868 C841 0.931 . S
H869 C843 0.929 1_455 S
H870 C844 0.930 . S
H871 C845 0.931 . S
H872 C852 0.932 . S
H873 C853 0.930 . S
H874 C854 0.929 . S
H875 C856 0.932 . S
H876 C858 0.932 . S
H877 C859 0.929 . S
H878 C860 0.928 . S
H879 C862 0.932 . S
C880 C881 1.264 . S
C880 C885 1.479 . S
C880 C890 1.465 . S
C881 C880 1.264 . S
C881 C883 1.339 . S
C881 H908 0.931 . S
C882 C883 1.395 . S
C882 C884 1.320 . S
C883 C881 1.339 . S
C883 C882 1.395 . S
C883 H909 0.929 . S
C884 C882 1.320 . S
C884 C885 1.405 . S
C884 H910 0.930 . S
C885 C880 1.479 . S
C885 C884 1.405 . S
C885 H911 0.931 . S
U886 O887 2.454 . S
U886 O888 2.458 . S
U886 C889 2.984 . S
U886 C890 2.847 . S
U886 C903 2.882 . S
U886 O904 2.441 . S
U886 O905 2.420 . S
U886 O906 2.455 . S
U886 O907 2.449 . S
O887 U886 2.454 . S
O887 C889 1.353 . S
O888 U886 2.458 . S
O888 C889 1.286 . S
C889 U886 2.984 . S
C889 O887 1.353 . S
C889 O888 1.286 . S
C889 C891 1.363 . S
C890 C880 1.465 . S
C890 U886 2.847 . S
C890 O904 1.249 . S
C890 O905 1.202 . S
C891 C889 1.363 . S
C891 C893 1.408 . S
C891 C896 1.342 . S
C892 C893 1.310 . S
C892 C895 1.461 . S
C892 H912 0.932 . S
C893 C891 1.408 . S
C893 C892 1.310 . S
C893 H913 0.930 . S
C894 C895 1.474 . S
C894 C896 1.285 . S
C894 H914 0.929 . S
C895 C892 1.461 . S
C895 C894 1.474 . S
C896 C891 1.342 . S
C896 C894 1.285 . S
C896 H915 0.930 . S
C897 C900 1.424 . S
C897 C902 1.245 . S
C897 C903 1.428 . S
C898 C901 1.260 . S
C898 C902 1.477 . S
C898 H916 0.932 . S
C899 C900 1.384 . S
C899 C901 1.479 . S
C899 H917 0.929 . S
C900 C897 1.424 . S
C900 C899 1.384 . S
C900 H918 0.928 . S
C901 C898 1.260 . S
C901 C899 1.479 . S
C902 C897 1.245 . S
C902 C898 1.477 . S
C902 H919 0.932 . S
C903 U886 2.882 . S
C903 C897 1.428 . S
C903 O906 1.301 . S
C903 O907 1.282 . S
O904 U886 2.441 . S
O904 C890 1.249 . S
O905 U886 2.420 . S
O905 C890 1.202 . S
O906 U886 2.455 . S
O906 C903 1.301 . S
O907 U886 2.449 . S
O907 C903 1.282 . S
H908 C881 0.931 . S
H909 C883 0.929 . S
H910 C884 0.930 . S
H911 C885 0.931 . S
H912 C892 0.932 . S
H913 C893 0.930 . S
H914 C894 0.929 . S
H915 C896 0.930 . S
H916 C898 0.932 . S
H917 C899 0.929 . S
H918 C900 0.928 . S
H919 C902 0.932 . S
C920 C921 1.264 . S
C920 C925 1.479 . S
C920 C930 1.465 . S
C921 C920 1.264 . S
C921 C923 1.339 . S
C921 H948 0.931 . S
C922 C923 1.395 . S
C922 C924 1.320 . S
C923 C921 1.339 . S
C923 C922 1.395 . S
C923 H949 0.929 . S
C924 C922 1.320 . S
C924 C925 1.405 . S
C924 H950 0.920 1_655 S
C925 C920 1.479 . S
C925 C924 1.405 . S
C925 H951 0.931 . S
U926 O927 2.454 . S
U926 O928 2.458 . S
U926 C929 2.984 . S
U926 C930 2.847 . S
U926 C943 2.882 . S
U926 O944 2.441 . S
U926 O945 2.420 . S
U926 O946 2.455 . S
U926 O947 2.449 . S
O927 U926 2.454 . S
O927 C929 1.353 . S
O928 U926 2.458 . S
O928 C929 1.286 . S
C929 U926 2.984 . S
C929 O927 1.353 . S
C929 O928 1.286 . S
C929 C931 1.363 . S
C930 C920 1.465 . S
C930 U926 2.847 . S
C930 O944 1.249 . S
C930 O945 1.202 . S
C931 C929 1.363 . S
C931 C933 1.408 . S
C931 C936 1.342 . S
C932 C933 1.310 . S
C932 C935 1.460 . S
C932 H952 0.932 . S
C933 C931 1.408 . S
C933 C932 1.310 . S
C933 H953 0.930 . S
C934 C935 1.475 1_455 S
C934 C936 1.286 1_455 S
C934 H954 0.930 . S
C935 C932 1.460 . S
C935 C934 1.475 1_655 S
C936 C931 1.342 . S
C936 C934 1.286 1_655 S
C936 H955 0.929 . S
C937 C940 1.424 . S
C937 C942 1.245 . S
C937 C943 1.428 . S
C938 C941 1.260 . S
C938 C942 1.477 . S
C938 H956 0.932 . S
C939 C940 1.384 . S
C939 C941 1.479 . S
C939 H957 0.929 . S
C940 C937 1.424 . S
C940 C939 1.384 . S
C940 H958 0.928 . S
C941 C938 1.260 . S
C941 C939 1.479 . S
C942 C937 1.245 . S
C942 C938 1.477 . S
C942 H959 0.932 . S
C943 U926 2.882 . S
C943 C937 1.428 . S
C943 O946 1.301 . S
C943 O947 1.282 . S
O944 U926 2.441 . S
O944 C930 1.249 . S
O945 U926 2.420 . S
O945 C930 1.202 . S
O946 U926 2.455 . S
O946 C943 1.301 . S
O947 U926 2.449 . S
O947 C943 1.282 . S
H948 C921 0.931 . S
H949 C923 0.929 . S
H950 C924 0.920 1_455 S
H951 C925 0.931 . S
H952 C932 0.932 . S
H953 C933 0.930 . S
H954 C934 0.930 . S
H955 C936 0.929 . S
H956 C938 0.932 . S
H957 C939 0.929 . S
H958 C940 0.928 . S
H959 C942 0.932 . S
H960 C963 0.929 . S
H961 C966 0.929 . S
H962 C968 0.930 . S
C963 H960 0.929 . S
C963 C964 1.398 . S
C963 C965 1.396 . S
C964 C963 1.398 . S
C964 C968 1.407 . S
C965 C963 1.396 . S
C965 C966 1.394 . S
C966 H961 0.929 . S
C966 C965 1.394 . S
C966 C967 1.382 . S
C967 C966 1.382 . S
C967 C968 1.392 . S
C967 N969 1.420 . S
C968 H962 0.930 . S
C968 C964 1.407 . S
C968 C967 1.392 . S
N969 C967 1.420 . S
N969 C970 1.244 . S
C970 N969 1.244 . S
H971 C974 0.929 . S
H972 C977 0.929 . S
H973 C979 0.930 . S
C974 H971 0.929 . S
C974 C975 1.398 1_556 S
C974 C976 1.396 . S
C975 C974 1.398 1_554 S
C975 C979 1.407 . S
C976 C974 1.396 . S
C976 C977 1.394 . S
C977 H972 0.929 . S
C977 C976 1.394 . S
C977 C978 1.382 1_556 S
C978 C977 1.382 1_554 S
C978 C979 1.392 . S
C978 N980 1.420 . S
C979 H973 0.930 . S
C979 C975 1.407 . S
C979 C978 1.392 . S
N980 C978 1.420 . S
N980 C981 1.244 . S
C981 N980 1.244 . S
H982 C985 0.929 . S
H983 C988 0.929 . S
H984 C990 0.930 . S
C985 H982 0.929 . S
C985 C986 1.398 . S
C985 C987 1.396 . S
C986 C985 1.398 . S
C986 C990 1.407 . S
C987 C985 1.396 . S
C987 C988 1.394 1_565 S
C988 H983 0.929 . S
C988 C987 1.394 1_545 S
C988 C989 1.382 . S
C989 C988 1.382 . S
C989 C990 1.392 1_545 S
C989 N991 1.420 . S
C990 H984 0.930 . S
C990 C986 1.407 . S
C990 C989 1.392 1_565 S
N991 C989 1.420 . S
N991 C992 1.244 . S
C992 N991 1.244 . S
H993 C996 0.929 . S
H994 C999 0.929 . S
H995 C1001 0.930 . S
C996 H993 0.929 . S
C996 C997 1.398 1_554 S
C996 C998 1.396 . S
C997 C996 1.398 1_556 S
C997 C1001 1.407 . S
C998 C996 1.396 . S
C998 C999 1.394 . S
C999 H994 0.929 . S
C999 C998 1.394 . S
C999 C1000 1.382 1_554 S
C1000 C999 1.382 1_556 S
C1000 C1001 1.392 . S
C1000 N1002 1.420 . S
C1001 H995 0.930 . S
C1001 C997 1.407 . S
C1001 C1000 1.392 . S
N1002 C1000 1.420 . S
N1002 C1003 1.244 . S
C1003 N1002 1.244 . S
H1004 C1007 0.929 . S
H1005 C1010 0.929 . S
H1006 C1012 0.930 . S
C1007 H1004 0.929 . S
C1007 C1008 1.398 . S
C1007 C1009 1.396 . S
C1008 C1007 1.398 . S
C1008 C1012 1.407 . S
C1009 C1007 1.396 . S
C1009 C1010 1.394 . S
C1010 H1005 0.929 . S
C1010 C1009 1.394 . S
C1010 C1011 1.382 . S
C1011 C1010 1.382 . S
C1011 C1012 1.392 . S
C1011 N1013 1.420 . S
C1012 H1006 0.930 . S
C1012 C1008 1.407 . S
C1012 C1011 1.392 . S
N1013 C1011 1.420 . S
N1013 C1014 1.244 . S
C1014 N1013 1.244 . S
H1015 C1018 0.929 . S
H1016 C1021 0.929 . S
H1017 C1023 0.930 . S
C1018 H1015 0.929 . S
C1018 C1019 1.398 1_455 S
C1018 C1020 1.396 . S
C1019 C1018 1.398 1_655 S
C1019 C1023 1.407 . S
C1020 C1018 1.396 . S
C1020 C1021 1.394 . S
C1021 H1016 0.929 . S
C1021 C1020 1.394 . S
C1021 C1022 1.382 1_455 S
C1022 C1021 1.382 1_655 S
C1022 C1023 1.392 . S
C1022 N1024 1.420 . S
C1023 H1017 0.930 . S
C1023 C1019 1.407 . S
C1023 C1022 1.392 . S
N1024 C1022 1.420 . S
N1024 C1025 1.244 . S
C1025 N1024 1.244 . S
H1026 C1029 0.929 . S
H1027 C1032 0.929 . S
H1028 C1034 0.930 . S
C1029 H1026 0.929 . S
C1029 C1030 1.398 1_655 S
C1029 C1031 1.396 . S
C1030 C1029 1.398 1_455 S
C1030 C1034 1.407 . S
C1031 C1029 1.396 . S
C1031 C1032 1.394 . S
C1032 H1027 0.929 . S
C1032 C1031 1.394 . S
C1032 C1033 1.382 1_655 S
C1033 C1032 1.382 1_455 S
C1033 C1034 1.392 . S
C1033 N1035 1.420 . S
C1034 H1028 0.930 . S
C1034 C1030 1.407 . S
C1034 C1033 1.392 . S
N1035 C1033 1.420 . S
N1035 C1036 1.244 . S
C1036 N1035 1.244 . S
H1037 C1040 0.929 . S
H1038 C1043 0.929 . S
H1039 C1045 0.930 . S
C1040 H1037 0.929 . S
C1040 C1041 1.398 . S
C1040 C1042 1.396 . S
C1041 C1040 1.398 . S
C1041 C1045 1.407 . S
C1042 C1040 1.396 . S
C1042 C1043 1.394 1_556 S
C1043 H1038 0.929 . S
C1043 C1042 1.394 1_554 S
C1043 C1044 1.382 . S
C1044 C1043 1.382 . S
C1044 C1045 1.392 1_554 S
C1044 N1046 1.420 . S
C1045 H1039 0.930 . S
C1045 C1041 1.407 . S
C1045 C1044 1.392 1_556 S
N1046 C1044 1.420 . S
N1046 C1047 1.244 . S
C1047 N1046 1.244 . S
H1048 C1051 0.929 . S
H1049 C1054 0.929 . S
H1050 C1056 0.930 . S
C1051 H1048 0.929 . S
C1051 C1052 1.398 . S
C1051 C1053 1.396 . S
C1052 C1051 1.398 . S
C1052 C1056 1.407 . S
C1053 C1051 1.396 . S
C1053 C1054 1.394 . S
C1054 H1049 0.929 . S
C1054 C1053 1.394 . S
C1054 C1055 1.382 . S
C1055 C1054 1.382 . S
C1055 C1056 1.392 . S
C1055 N1057 1.420 . S
C1056 H1050 0.930 . S
C1056 C1052 1.407 . S
C1056 C1055 1.392 . S
N1057 C1055 1.420 . S
N1057 C1058 1.244 . S
C1058 N1057 1.244 . S
H1059 C1062 0.929 . S
H1060 C1065 0.929 . S
H1061 C1067 0.930 . S
C1062 H1059 0.929 . S
C1062 C1063 1.398 1_545 S
C1062 C1064 1.396 . S
C1063 C1062 1.398 1_565 S
C1063 C1067 1.407 . S
C1064 C1062 1.396 . S
C1064 C1065 1.394 . S
C1065 H1060 0.929 . S
C1065 C1064 1.394 . S
C1065 C1066 1.382 1_545 S
C1066 C1065 1.382 1_565 S
C1066 C1067 1.392 . S
C1066 N1068 1.420 . S
C1067 H1061 0.930 . S
C1067 C1063 1.407 . S
C1067 C1066 1.392 . S
N1068 C1066 1.420 . S
N1068 C1069 1.244 . S
C1069 N1068 1.244 . S
H1070 C1073 0.929 . S
H1071 C1076 0.929 . S
H1072 C1078 0.930 . S
C1073 H1070 0.929 . S
C1073 C1074 1.398 1_565 S
C1073 C1075 1.396 . S
C1074 C1073 1.398 1_545 S
C1074 C1078 1.407 . S
C1075 C1073 1.396 . S
C1075 C1076 1.394 . S
C1076 H1071 0.929 . S
C1076 C1075 1.394 . S
C1076 C1077 1.382 1_565 S
C1077 C1076 1.382 1_545 S
C1077 C1078 1.392 . S
C1077 N1079 1.420 . S
C1078 H1072 0.930 . S
C1078 C1074 1.407 . S
C1078 C1077 1.392 . S
N1079 C1077 1.420 . S
N1079 C1080 1.244 . S
C1080 N1079 1.244 . S
H1081 C1084 0.929 . S
H1082 C1087 0.929 . S
H1083 C1089 0.930 . S
C1084 H1081 0.929 . S
C1084 C1085 1.398 . S
C1084 C1086 1.396 . S
C1085 C1084 1.398 . S
C1085 C1089 1.407 . S
C1086 C1084 1.396 . S
C1086 C1087 1.394 1_655 S
C1087 H1082 0.929 . S
C1087 C1086 1.394 1_455 S
C1087 C1088 1.382 . S
C1088 C1087 1.382 . S
C1088 C1089 1.392 1_455 S
C1088 N1090 1.420 . S
C1089 H1083 0.930 . S
C1089 C1085 1.407 . S
C1089 C1088 1.392 1_655 S
N1090 C1088 1.420 . S
N1090 C1091 1.244 . S
C1091 N1090 1.244 . S
H1092 C1095 0.929 . S
H1093 C1098 0.929 . S
H1094 C1100 0.930 . S
C1095 H1092 0.929 . S
C1095 C1096 1.398 . S
C1095 C1097 1.396 . S
C1096 C1095 1.398 . S
C1096 C1100 1.407 . S
C1097 C1095 1.396 . S
C1097 C1098 1.394 . S
C1098 H1093 0.929 . S
C1098 C1097 1.394 . S
C1098 C1099 1.382 . S
C1099 C1098 1.382 . S
C1099 C1100 1.392 . S
C1099 N1101 1.420 . S
C1100 H1094 0.930 . S
C1100 C1096 1.407 . S
C1100 C1099 1.392 . S
N1101 C1099 1.420 . S
N1101 C1102 1.244 . S
C1102 N1101 1.244 . S
H1103 C1106 0.929 . S
H1104 C1109 0.929 . S
H1105 C1111 0.930 . S
C1106 H1103 0.929 . S
C1106 C1107 1.398 1_554 S
C1106 C1108 1.396 . S
C1107 C1106 1.398 1_556 S
C1107 C1111 1.407 . S
C1108 C1106 1.396 . S
C1108 C1109 1.394 . S
C1109 H1104 0.929 . S
C1109 C1108 1.394 . S
C1109 C1110 1.382 1_554 S
C1110 C1109 1.382 1_556 S
C1110 C1111 1.392 . S
C1110 N1112 1.420 . S
C1111 H1105 0.930 . S
C1111 C1107 1.407 . S
C1111 C1110 1.392 . S
N1112 C1110 1.420 . S
N1112 C1113 1.244 . S
C1113 N1112 1.244 . S
H1114 C1117 0.929 . S
H1115 C1120 0.929 . S
H1116 C1122 0.930 . S
C1117 H1114 0.929 . S
C1117 C1118 1.398 . S
C1117 C1119 1.396 . S
C1118 C1117 1.398 . S
C1118 C1122 1.407 . S
C1119 C1117 1.396 . S
C1119 C1120 1.394 1_545 S
C1120 H1115 0.929 . S
C1120 C1119 1.394 1_565 S
C1120 C1121 1.382 . S
C1121 C1120 1.382 . S
C1121 C1122 1.392 1_565 S
C1121 N1123 1.420 . S
C1122 H1116 0.930 . S
C1122 C1118 1.407 . S
C1122 C1121 1.392 1_545 S
N1123 C1121 1.420 . S
N1123 C1124 1.244 . S
C1124 N1123 1.244 . S
H1125 C1128 0.929 . S
H1126 C1131 0.929 . S
H1127 C1133 0.930 . S
C1128 H1125 0.929 . S
C1128 C1129 1.398 1_556 S
C1128 C1130 1.396 . S
C1129 C1128 1.398 1_554 S
C1129 C1133 1.407 . S
C1130 C1128 1.396 . S
C1130 C1131 1.394 . S
C1131 H1126 0.929 . S
C1131 C1130 1.394 . S
C1131 C1132 1.382 1_556 S
C1132 C1131 1.382 1_554 S
C1132 C1133 1.392 . S
C1132 N1134 1.420 . S
C1133 H1127 0.930 . S
C1133 C1129 1.407 . S
C1133 C1132 1.392 . S
N1134 C1132 1.420 . S
N1134 C1135 1.244 . S
C1135 N1134 1.244 . S
H1136 C1139 0.929 . S
H1137 C1142 0.929 . S
H1138 C1144 0.930 . S
C1139 H1136 0.929 . S
C1139 C1140 1.398 . S
C1139 C1141 1.396 . S
C1140 C1139 1.398 . S
C1140 C1144 1.407 . S
C1141 C1139 1.396 . S
C1141 C1142 1.394 . S
C1142 H1137 0.929 . S
C1142 C1141 1.394 . S
C1142 C1143 1.382 . S
C1143 C1142 1.382 . S
C1143 C1144 1.392 . S
C1143 N1145 1.420 . S
C1144 H1138 0.930 . S
C1144 C1140 1.407 . S
C1144 C1143 1.392 . S
N1145 C1143 1.420 . S
N1145 C1146 1.244 . S
C1146 N1145 1.244 . S
H1147 C1150 0.929 . S
H1148 C1153 0.929 . S
H1149 C1155 0.930 . S
C1150 H1147 0.929 . S
C1150 C1151 1.398 1_655 S
C1150 C1152 1.396 . S
C1151 C1150 1.398 1_455 S
C1151 C1155 1.407 . S
C1152 C1150 1.396 . S
C1152 C1153 1.394 . S
C1153 H1148 0.929 . S
C1153 C1152 1.394 . S
C1153 C1154 1.382 1_655 S
C1154 C1153 1.382 1_455 S
C1154 C1155 1.392 . S
C1154 N1156 1.420 . S
C1155 H1149 0.930 . S
C1155 C1151 1.407 . S
C1155 C1154 1.392 . S
N1156 C1154 1.420 . S
N1156 C1157 1.244 . S
C1157 N1156 1.244 . S
H1158 C1161 0.929 . S
H1159 C1164 0.929 . S
H1160 C1166 0.930 . S
C1161 H1158 0.929 . S
C1161 C1162 1.398 1_455 S
C1161 C1163 1.396 . S
C1162 C1161 1.398 1_655 S
C1162 C1166 1.407 . S
C1163 C1161 1.396 . S
C1163 C1164 1.394 . S
C1164 H1159 0.929 . S
C1164 C1163 1.394 . S
C1164 C1165 1.382 1_455 S
C1165 C1164 1.382 1_655 S
C1165 C1166 1.392 . S
C1165 N1167 1.420 . S
C1166 H1160 0.930 . S
C1166 C1162 1.407 . S
C1166 C1165 1.392 . S
N1167 C1165 1.420 . S
N1167 C1168 1.244 . S
C1168 N1167 1.244 . S
H1169 C1172 0.929 . S
H1170 C1175 0.929 . S
H1171 C1177 0.930 . S
C1172 H1169 0.929 . S
C1172 C1173 1.398 . S
C1172 C1174 1.396 . S
C1173 C1172 1.398 . S
C1173 C1177 1.407 . S
C1174 C1172 1.396 . S
C1174 C1175 1.394 1_554 S
C1175 H1170 0.929 . S
C1175 C1174 1.394 1_556 S
C1175 C1176 1.382 . S
C1176 C1175 1.382 . S
C1176 C1177 1.392 1_556 S
C1176 N1178 1.420 . S
C1177 H1171 0.930 . S
C1177 C1173 1.407 . S
C1177 C1176 1.392 1_554 S
N1178 C1176 1.420 . S
N1178 C1179 1.244 . S
C1179 N1178 1.244 . S
H1180 C1183 0.929 . S
H1181 C1186 0.929 . S
H1182 C1188 0.930 . S
C1183 H1180 0.929 . S
C1183 C1184 1.398 . S
C1183 C1185 1.396 . S
C1184 C1183 1.398 . S
C1184 C1188 1.407 . S
C1185 C1183 1.396 . S
C1185 C1186 1.394 . S
C1186 H1181 0.929 . S
C1186 C1185 1.394 . S
C1186 C1187 1.382 . S
C1187 C1186 1.382 . S
C1187 C1188 1.392 . S
C1187 N1189 1.420 . S
C1188 H1182 0.930 . S
C1188 C1184 1.407 . S
C1188 C1187 1.392 . S
N1189 C1187 1.420 . S
N1189 C1190 1.244 . S
C1190 N1189 1.244 . S
H1191 C1194 0.929 . S
H1192 C1197 0.929 . S
H1193 C1199 0.930 . S
C1194 H1191 0.929 . S
C1194 C1195 1.398 1_565 S
C1194 C1196 1.396 . S
C1195 C1194 1.398 1_545 S
C1195 C1199 1.407 . S
C1196 C1194 1.396 . S
C1196 C1197 1.394 . S
C1197 H1192 0.929 . S
C1197 C1196 1.394 . S
C1197 C1198 1.382 1_565 S
C1198 C1197 1.382 1_545 S
C1198 C1199 1.392 . S
C1198 N1200 1.420 . S
C1199 H1193 0.930 . S
C1199 C1195 1.407 . S
C1199 C1198 1.392 . S
N1200 C1198 1.420 . S
N1200 C1201 1.244 . S
C1201 N1200 1.244 . S
H1202 C1205 0.929 . S
H1203 C1208 0.929 . S
H1204 C1210 0.930 . S
C1205 H1202 0.929 . S
C1205 C1206 1.398 1_545 S
C1205 C1207 1.396 . S
C1206 C1205 1.398 1_565 S
C1206 C1210 1.407 . S
C1207 C1205 1.396 . S
C1207 C1208 1.394 . S
C1208 H1203 0.929 . S
C1208 C1207 1.394 . S
C1208 C1209 1.382 1_545 S
C1209 C1208 1.382 1_565 S
C1209 C1210 1.392 . S
C1209 N1211 1.420 . S
C1210 H1204 0.930 . S
C1210 C1206 1.407 . S
C1210 C1209 1.392 . S
N1211 C1209 1.420 . S
N1211 C1212 1.244 . S
C1212 N1211 1.244 . S
H1213 C1216 0.929 . S
H1214 C1219 0.929 . S
H1215 C1221 0.930 . S
C1216 H1213 0.929 . S
C1216 C1217 1.398 . S
C1216 C1218 1.396 . S
C1217 C1216 1.398 . S
C1217 C1221 1.407 . S
C1218 C1216 1.396 . S
C1218 C1219 1.394 1_455 S
C1219 H1214 0.929 . S
C1219 C1218 1.394 1_655 S
C1219 C1220 1.382 . S
C1220 C1219 1.382 . S
C1220 C1221 1.392 1_655 S
C1220 N1222 1.420 . S
C1221 H1215 0.930 . S
C1221 C1217 1.407 . S
C1221 C1220 1.392 1_455 S
N1222 C1220 1.420 . S
N1222 C1223 1.244 . S
C1223 N1222 1.244 . S
H1224 C1230 0.930 . S
H1225 C1234 0.930 . S
H1226 C1239 0.929 . S
H1227 C1237 0.929 . S
H1228 C1232 0.929 . S
H1229 C1238 0.929 . S
C1230 H1224 0.930 . S
C1230 C1231 1.367 . S
C1230 C1238 1.378 . S
C1231 C1230 1.367 . S
C1231 C1239 1.433 . S
C1232 H1228 0.929 . S
C1232 C1234 1.378 . S
C1232 C1236 1.350 . S
C1233 C1236 1.463 . S
C1233 C1238 1.350 . S
C1233 N1241 1.427 . S
C1234 H1225 0.930 . S
C1234 C1232 1.378 . S
C1234 C1235 1.367 . S
C1235 C1234 1.367 . S
C1235 C1237 1.433 . S
C1236 C1232 1.350 . S
C1236 C1233 1.463 . S
C1236 N1240 1.427 . S
C1237 H1227 0.929 . S
C1237 C1235 1.433 . S
C1237 N1240 1.384 . S
C1238 H1229 0.929 . S
C1238 C1230 1.378 . S
C1238 C1233 1.350 . S
C1239 H1226 0.929 . S
C1239 C1231 1.433 . S
C1239 N1241 1.384 . S
N1240 C1236 1.427 . S
N1240 C1237 1.384 . S
N1241 C1233 1.427 . S
N1241 C1239 1.384 . S
H1242 C1248 0.930 . S
H1243 C1252 0.930 . S
H1244 C1257 0.929 . S
H1245 C1255 0.929 . S
H1246 C1250 0.929 . S
H1247 C1256 0.929 . S
C1248 H1242 0.930 . S
C1248 C1249 1.367 . S
C1248 C1256 1.378 . S
C1249 C1248 1.367 . S
C1249 C1257 1.433 . S
C1250 H1246 0.929 . S
C1250 C1252 1.378 . S
C1250 C1254 1.350 . S
C1251 C1254 1.463 . S
C1251 C1256 1.350 . S
C1251 N1259 1.427 . S
C1252 H1243 0.930 . S
C1252 C1250 1.378 . S
C1252 C1253 1.367 . S
C1253 C1252 1.367 . S
C1253 C1255 1.433 . S
C1254 C1250 1.350 . S
C1254 C1251 1.463 . S
C1254 N1258 1.427 . S
C1255 H1245 0.929 . S
C1255 C1253 1.433 . S
C1255 N1258 1.384 . S
C1256 H1247 0.929 . S
C1256 C1248 1.378 . S
C1256 C1251 1.350 . S
C1257 H1244 0.929 . S
C1257 C1249 1.433 . S
C1257 N1259 1.384 . S
N1258 C1254 1.427 . S
N1258 C1255 1.384 . S
N1259 C1251 1.427 . S
N1259 C1257 1.384 . S
H1260 C1266 0.930 . S
H1261 C1270 0.930 . S
H1262 C1275 0.929 . S
H1263 C1273 0.929 . S
H1264 C1268 0.929 . S
H1265 C1274 0.929 . S
C1266 H1260 0.930 . S
C1266 C1267 1.378 . S
C1266 C1274 1.378 . S
C1267 C1266 1.378 . S
C1267 C1275 1.420 1_545 S
C1268 H1264 0.929 . S
C1268 C1270 1.378 . S
C1268 C1272 1.350 . S
C1269 C1272 1.463 . S
C1269 C1274 1.350 1_565 S
C1269 N1277 1.427 . S
C1270 H1261 0.930 . S
C1270 C1268 1.378 . S
C1270 C1271 1.367 . S
C1271 C1270 1.367 . S
C1271 C1273 1.433 1_565 S
C1272 C1268 1.350 . S
C1272 C1269 1.463 . S
C1272 N1276 1.427 1_565 S
C1273 H1263 0.929 . S
C1273 C1271 1.433 1_545 S
C1273 N1276 1.384 . S
C1274 H1265 0.929 . S
C1274 C1266 1.378 . S
C1274 C1269 1.350 1_545 S
C1275 H1262 0.929 . S
C1275 C1267 1.420 1_565 S
C1275 N1277 1.384 . S
N1276 C1272 1.427 1_545 S
N1276 C1273 1.384 . S
N1277 C1269 1.427 . S
N1277 C1275 1.384 . S
H1278 C1284 0.930 . S
H1279 C1288 0.930 1_565 S
H1280 C1293 0.929 1_565 S
H1281 C1291 0.929 . S
H1282 C1286 0.929 1_565 S
H1283 C1292 0.929 . S
C1284 H1278 0.930 . S
C1284 C1285 1.367 . S
C1284 C1292 1.378 . S
C1285 C1284 1.367 . S
C1285 C1293 1.433 . S
C1286 H1282 0.929 1_545 S
C1286 C1288 1.378 1_655 S
C1286 C1290 1.350 . S
C1287 C1290 1.463 . S
C1287 C1292 1.350 . S
C1287 N1295 1.427 . S
C1288 H1279 0.930 1_545 S
C1288 C1286 1.378 1_455 S
C1288 C1289 1.367 . S
C1289 C1288 1.367 . S
C1289 C1291 1.433 . S
C1290 C1286 1.350 . S
C1290 C1287 1.463 . S
C1290 N1294 1.427 . S
C1291 H1281 0.929 . S
C1291 C1289 1.433 . S
C1291 N1294 1.384 1_455 S
C1292 H1283 0.929 . S
C1292 C1284 1.378 . S
C1292 C1287 1.350 . S
C1293 H1280 0.929 1_545 S
C1293 C1285 1.433 . S
C1293 N1295 1.384 . S
N1294 C1290 1.427 . S
N1294 C1291 1.384 1_655 S
N1295 C1287 1.427 . S
N1295 C1293 1.384 . S
H1296 C1302 0.930 . S
H1297 C1306 0.930 . S
H1298 C1311 0.929 . S
H1299 C1309 0.929 . S
H1300 C1304 0.929 . S
H1301 C1310 0.929 . S
C1302 H1296 0.930 . S
C1302 C1303 1.367 . S
C1302 C1310 1.378 . S
C1303 C1302 1.367 . S
C1303 C1311 1.433 . S
C1304 H1300 0.929 . S
C1304 C1306 1.378 . S
C1304 C1308 1.350 . S
C1305 C1308 1.463 . S
C1305 C1310 1.350 . S
C1305 N1313 1.427 . S
C1306 H1297 0.930 . S
C1306 C1304 1.378 . S
C1306 C1307 1.367 . S
C1307 C1306 1.367 . S
C1307 C1309 1.433 . S
C1308 C1304 1.350 . S
C1308 C1305 1.463 . S
C1308 N1312 1.427 . S
C1309 H1299 0.929 . S
C1309 C1307 1.433 . S
C1309 N1312 1.384 . S
C1310 H1301 0.929 . S
C1310 C1302 1.378 . S
C1310 C1305 1.350 . S
C1311 H1298 0.929 . S
C1311 C1303 1.433 . S
C1311 N1313 1.384 . S
N1312 C1308 1.427 . S
N1312 C1309 1.384 . S
N1313 C1305 1.427 . S
N1313 C1311 1.384 . S
H1314 C1320 0.930 . S
H1315 C1324 0.930 . S
H1316 C1329 0.929 . S
H1317 C1327 0.929 . S
H1318 C1322 0.929 . S
H1319 C1328 0.929 . S
C1320 H1314 0.930 . S
C1320 C1321 1.367 . S
C1320 C1328 1.378 . S
C1321 C1320 1.367 . S
C1321 C1329 1.433 . S
C1322 H1318 0.929 . S
C1322 C1324 1.378 1_565 S
C1322 C1326 1.350 . S
C1323 C1326 1.463 . S
C1323 C1328 1.350 . S
C1323 N1331 1.427 . S
C1324 H1315 0.930 . S
C1324 C1322 1.378 1_545 S
C1324 C1325 1.367 . S
C1325 C1324 1.367 . S
C1325 C1327 1.433 . S
C1326 C1322 1.350 . S
C1326 C1323 1.463 . S
C1326 N1330 1.427 . S
C1327 H1317 0.929 . S
C1327 C1325 1.433 . S
C1327 N1330 1.384 1_545 S
C1328 H1319 0.929 . S
C1328 C1320 1.378 . S
C1328 C1323 1.350 . S
C1329 H1316 0.929 . S
C1329 C1321 1.433 . S
C1329 N1331 1.384 . S
N1330 C1326 1.427 . S
N1330 C1327 1.384 1_565 S
N1331 C1323 1.427 . S
N1331 C1329 1.384 . S
H1332 C1338 0.930 . S
H1333 C1342 0.930 . S
H1334 C1347 0.929 . S
H1335 C1345 0.929 . S
H1336 C1340 0.929 . S
H1337 C1346 0.929 . S
C1338 H1332 0.930 . S
C1338 C1339 1.367 . S
C1338 C1346 1.378 . S
C1339 C1338 1.367 . S
C1339 C1347 1.433 . S
C1340 H1336 0.929 . S
C1340 C1342 1.378 . S
C1340 C1344 1.350 . S
C1341 C1344 1.463 . S
C1341 C1346 1.350 . S
C1341 N1349 1.427 . S
C1342 H1333 0.930 . S
C1342 C1340 1.378 . S
C1342 C1343 1.367 . S
C1343 C1342 1.367 . S
C1343 C1345 1.433 . S
C1344 C1340 1.350 . S
C1344 C1341 1.463 . S
C1344 N1348 1.427 . S
C1345 H1335 0.929 . S
C1345 C1343 1.433 . S
C1345 N1348 1.384 . S
C1346 H1337 0.929 . S
C1346 C1338 1.378 . S
C1346 C1341 1.350 . S
C1347 H1334 0.929 . S
C1347 C1339 1.433 . S
C1347 N1349 1.384 . S
N1348 C1344 1.427 . S
N1348 C1345 1.384 . S
N1349 C1341 1.427 . S
N1349 C1347 1.384 . S
H1350 C1356 0.930 . S
H1351 C1360 0.930 . S
H1352 C1365 0.929 . S
H1353 C1363 0.917 1_554 S
H1354 C1358 0.929 . S
H1355 C1364 0.929 . S
C1356 H1350 0.930 . S
C1356 C1357 1.371 . S
C1356 C1364 1.378 . S
C1357 C1356 1.371 . S
C1357 C1365 1.428 1_554 S
C1358 H1354 0.929 . S
C1358 C1360 1.378 . S
C1358 C1362 1.350 . S
C1359 C1362 1.463 . S
C1359 C1364 1.350 1_556 S
C1359 N1367 1.427 . S
C1360 H1351 0.930 . S
C1360 C1358 1.378 . S
C1360 C1361 1.367 . S
C1361 C1360 1.367 . S
C1361 C1363 1.448 . S
C1362 C1358 1.350 . S
C1362 C1359 1.463 . S
C1362 N1366 1.427 1_556 S
C1363 H1353 0.917 1_556 S
C1363 C1361 1.448 . S
C1363 N1366 1.382 1_556 S
C1364 H1355 0.929 . S
C1364 C1356 1.378 . S
C1364 C1359 1.350 1_554 S
C1365 H1352 0.929 . S
C1365 C1357 1.428 1_556 S
C1365 N1367 1.384 . S
N1366 C1362 1.427 1_554 S
N1366 C1363 1.382 1_554 S
N1367 C1359 1.427 . S
N1367 C1365 1.384 . S
H1368 C1374 0.930 . S
H1369 C1378 0.930 . S
H1370 C1383 0.929 . S
H1371 C1381 0.929 . S
H1372 C1376 0.929 . S
H1373 C1382 0.929 . S
C1374 H1368 0.930 . S
C1374 C1375 1.367 . S
C1374 C1382 1.378 . S
C1375 C1374 1.367 . S
C1375 C1383 1.433 . S
C1376 H1372 0.929 . S
C1376 C1378 1.378 . S
C1376 C1380 1.350 . S
C1377 C1380 1.463 . S
C1377 C1382 1.350 . S
C1377 N1385 1.427 . S
C1378 H1369 0.930 . S
C1378 C1376 1.378 . S
C1378 C1379 1.367 . S
C1379 C1378 1.367 . S
C1379 C1381 1.433 . S
C1380 C1376 1.350 . S
C1380 C1377 1.463 . S
C1380 N1384 1.427 . S
C1381 H1371 0.929 . S
C1381 C1379 1.433 . S
C1381 N1384 1.384 . S
C1382 H1373 0.929 . S
C1382 C1374 1.378 . S
C1382 C1377 1.350 . S
C1383 H1370 0.929 . S
C1383 C1375 1.433 . S
C1383 N1385 1.384 . S
N1384 C1380 1.427 . S
N1384 C1381 1.384 . S
N1385 C1377 1.427 . S
N1385 C1383 1.384 . S
H1386 C1392 0.947 . S
H1387 C1396 0.930 . S
H1388 C1401 0.929 . S
H1389 C1399 0.929 . S
H1390 C1394 0.929 . S
H1391 C1400 0.958 . S
C1392 H1386 0.947 . S
C1392 C1393 1.367 . S
C1392 C1400 1.378 . S
C1393 C1392 1.367 . S
C1393 C1401 1.433 . S
C1394 H1390 0.929 . S
C1394 C1396 1.378 1_556 S
C1394 C1398 1.350 . S
C1395 C1398 1.463 . S
C1395 C1400 1.350 . S
C1395 N1403 1.427 . S
C1396 H1387 0.930 . S
C1396 C1394 1.378 1_554 S
C1396 C1397 1.367 . S
C1397 C1396 1.367 . S
C1397 C1399 1.433 . S
C1398 C1394 1.350 . S
C1398 C1395 1.463 . S
C1398 N1402 1.427 . S
C1399 H1389 0.929 . S
C1399 C1397 1.433 . S
C1399 N1402 1.384 1_554 S
C1400 H1391 0.958 . S
C1400 C1392 1.378 . S
C1400 C1395 1.350 . S
C1401 H1388 0.929 . S
C1401 C1393 1.433 . S
C1401 N1403 1.384 . S
N1402 C1398 1.427 . S
N1402 C1399 1.384 1_556 S
N1403 C1395 1.427 . S
N1403 C1401 1.384 . S
H1404 C1410 0.930 . S
H1405 C1414 0.930 . S
H1406 C1419 0.929 . S
H1407 C1417 0.929 . S
H1408 C1412 0.929 . S
H1409 C1418 0.929 . S
C1410 H1404 0.930 . S
C1410 C1411 1.367 . S
C1410 C1418 1.378 . S
C1411 C1410 1.367 . S
C1411 C1419 1.433 . S
C1412 H1408 0.929 . S
C1412 C1414 1.378 . S
C1412 C1416 1.350 . S
C1413 C1416 1.463 . S
C1413 C1418 1.350 . S
C1413 N1421 1.427 . S
C1414 H1405 0.930 . S
C1414 C1412 1.378 . S
C1414 C1415 1.367 . S
C1415 C1414 1.367 . S
C1415 C1417 1.433 . S
C1416 C1412 1.350 . S
C1416 C1413 1.463 . S
C1416 N1420 1.427 . S
C1417 H1407 0.929 . S
C1417 C1415 1.433 . S
C1417 N1420 1.384 . S
C1418 H1409 0.929 . S
C1418 C1410 1.378 . S
C1418 C1413 1.350 . S
C1419 H1406 0.929 . S
C1419 C1411 1.433 . S
C1419 N1421 1.384 . S
N1420 C1416 1.427 . S
N1420 C1417 1.384 . S
N1421 C1413 1.427 . S
N1421 C1419 1.384 . S
H1422 C1428 0.915 1_455 S
H1423 C1432 0.930 . S
H1424 C1437 0.929 . S
H1425 C1435 0.929 . S
H1426 C1430 0.929 . S
H1427 C1436 0.929 . S
C1428 H1422 0.915 1_655 S
C1428 C1429 1.372 . S
C1428 C1436 1.383 . S
C1429 C1428 1.372 . S
C1429 C1437 1.433 . S
C1430 H1426 0.929 . S
C1430 C1432 1.378 . S
C1430 C1434 1.350 . S
C1431 C1434 1.463 . S
C1431 C1436 1.350 . S
C1431 N1439 1.427 . S
C1432 H1423 0.930 . S
C1432 C1430 1.378 . S
C1432 C1433 1.367 . S
C1433 C1432 1.367 . S
C1433 C1435 1.433 . S
C1434 C1430 1.350 . S
C1434 C1431 1.463 . S
C1434 N1438 1.427 . S
C1435 H1425 0.929 . S
C1435 C1433 1.433 . S
C1435 N1438 1.384 . S
C1436 H1427 0.929 . S
C1436 C1428 1.383 . S
C1436 C1431 1.350 . S
C1437 H1424 0.929 . S
C1437 C1429 1.433 . S
C1437 N1439 1.384 . S
N1438 C1434 1.427 . S
N1438 C1435 1.384 . S
N1439 C1431 1.427 . S
N1439 C1437 1.384 . S
H1440 C1446 0.930 . S
H1441 C1450 0.930 . S
H1442 C1455 0.929 . S
H1443 C1453 0.929 . S
H1444 C1448 0.929 . S
H1445 C1454 0.929 . S
C1446 H1440 0.930 . S
C1446 C1447 1.367 . S
C1446 C1454 1.378 . S
C1447 C1446 1.367 . S
C1447 C1455 1.433 . S
C1448 H1444 0.929 . S
C1448 C1450 1.378 . S
C1448 C1452 1.350 . S
C1449 C1452 1.463 . S
C1449 C1454 1.350 . S
C1449 N1457 1.427 . S
C1450 H1441 0.930 . S
C1450 C1448 1.378 . S
C1450 C1451 1.367 . S
C1451 C1450 1.367 . S
C1451 C1453 1.433 . S
C1452 C1448 1.350 . S
C1452 C1449 1.463 . S
C1452 N1456 1.427 . S
C1453 H1443 0.929 . S
C1453 C1451 1.433 . S
C1453 N1456 1.384 . S
C1454 H1445 0.929 . S
C1454 C1446 1.378 . S
C1454 C1449 1.350 . S
C1455 H1442 0.929 . S
C1455 C1447 1.433 . S
C1455 N1457 1.384 . S
N1456 C1452 1.427 . S
N1456 C1453 1.384 . S
N1457 C1449 1.427 . S
N1457 C1455 1.384 . S
H1458 C1464 0.930 . S
H1459 C1468 0.930 . S
H1460 C1473 0.929 . S
H1461 C1471 0.929 . S
H1462 C1466 0.929 . S
H1463 C1472 0.929 . S
C1464 H1458 0.930 . S
C1464 C1465 1.367 . S
C1464 C1472 1.378 . S
C1465 C1464 1.367 . S
C1465 C1473 1.433 . S
C1466 H1462 0.929 . S
C1466 C1468 1.378 . S
C1466 C1470 1.350 . S
C1467 C1470 1.463 . S
C1467 C1472 1.350 . S
C1467 N1475 1.427 . S
C1468 H1459 0.930 . S
C1468 C1466 1.378 . S
C1468 C1469 1.367 . S
C1469 C1468 1.367 . S
C1469 C1471 1.433 . S
C1470 C1466 1.350 . S
C1470 C1467 1.463 . S
C1470 N1474 1.427 . S
C1471 H1461 0.929 . S
C1471 C1469 1.433 . S
C1471 N1474 1.384 . S
C1472 H1463 0.929 . S
C1472 C1464 1.378 . S
C1472 C1467 1.350 . S
C1473 H1460 0.929 . S
C1473 C1465 1.433 . S
C1473 N1475 1.384 . S
N1474 C1470 1.427 . S
N1474 C1471 1.384 . S
N1475 C1467 1.427 . S
N1475 C1473 1.384 . S
H1476 C1482 0.930 . S
H1477 C1486 0.930 . S
H1478 C1491 0.929 . S
H1479 C1489 0.929 . S
H1480 C1484 0.929 . S
H1481 C1490 0.929 . S
C1482 H1476 0.930 . S
C1482 C1483 1.378 . S
C1482 C1490 1.378 . S
C1483 C1482 1.378 . S
C1483 C1491 1.421 1_565 S
C1484 H1480 0.929 . S
C1484 C1486 1.378 . S
C1484 C1488 1.350 . S
C1485 C1488 1.463 . S
C1485 C1490 1.350 1_545 S
C1485 N1493 1.427 . S
C1486 H1477 0.930 . S
C1486 C1484 1.378 . S
C1486 C1487 1.367 . S
C1487 C1486 1.367 . S
C1487 C1489 1.433 1_545 S
C1488 C1484 1.350 . S
C1488 C1485 1.463 . S
C1488 N1492 1.427 1_545 S
C1489 H1479 0.929 . S
C1489 C1487 1.433 1_565 S
C1489 N1492 1.384 . S
C1490 H1481 0.929 . S
C1490 C1482 1.378 . S
C1490 C1485 1.350 1_565 S
C1491 H1478 0.929 . S
C1491 C1483 1.421 1_545 S
C1491 N1493 1.384 . S
N1492 C1488 1.427 1_565 S
N1492 C1489 1.384 . S
N1493 C1485 1.427 . S
N1493 C1491 1.384 . S
H1494 C1500 0.930 . S
H1495 C1504 0.930 . S
H1496 C1509 0.929 . S
H1497 C1507 0.929 . S
H1498 C1502 0.929 . S
H1499 C1508 0.929 . S
C1500 H1494 0.930 . S
C1500 C1501 1.367 . S
C1500 C1508 1.378 . S
C1501 C1500 1.367 . S
C1501 C1509 1.433 1_565 S
C1502 H1498 0.929 . S
C1502 C1504 1.378 1_455 S
C1502 C1506 1.350 1_545 S
C1503 C1506 1.463 . S
C1503 C1508 1.350 . S
C1503 N1511 1.427 1_565 S
C1504 H1495 0.930 . S
C1504 C1502 1.378 1_655 S
C1504 C1505 1.367 1_545 S
C1505 C1504 1.367 1_565 S
C1505 C1507 1.433 . S
C1506 C1502 1.350 1_565 S
C1506 C1503 1.463 . S
C1506 N1510 1.427 . S
C1507 H1497 0.929 . S
C1507 C1505 1.433 . S
C1507 N1510 1.384 1_655 S
C1508 H1499 0.929 . S
C1508 C1500 1.378 . S
C1508 C1503 1.350 . S
C1509 H1496 0.929 . S
C1509 C1501 1.433 1_545 S
C1509 N1511 1.384 . S
N1510 C1506 1.427 . S
N1510 C1507 1.384 1_455 S
N1511 C1503 1.427 1_545 S
N1511 C1509 1.384 . S
H1512 C1518 0.930 . S
H1513 C1522 0.930 . S
H1514 C1527 0.929 . S
H1515 C1525 0.929 . S
H1516 C1520 0.929 . S
H1517 C1526 0.929 . S
C1518 H1512 0.930 . S
C1518 C1519 1.367 . S
C1518 C1526 1.378 . S
C1519 C1518 1.367 . S
C1519 C1527 1.433 . S
C1520 H1516 0.929 . S
C1520 C1522 1.378 . S
C1520 C1524 1.350 . S
C1521 C1524 1.463 . S
C1521 C1526 1.350 . S
C1521 N1529 1.427 . S
C1522 H1513 0.930 . S
C1522 C1520 1.378 . S
C1522 C1523 1.367 . S
C1523 C1522 1.367 . S
C1523 C1525 1.433 . S
C1524 C1520 1.350 . S
C1524 C1521 1.463 . S
C1524 N1528 1.427 . S
C1525 H1515 0.929 . S
C1525 C1523 1.433 . S
C1525 N1528 1.384 . S
C1526 H1517 0.929 . S
C1526 C1518 1.378 . S
C1526 C1521 1.350 . S
C1527 H1514 0.929 . S
C1527 C1519 1.433 . S
C1527 N1529 1.384 . S
N1528 C1524 1.427 . S
N1528 C1525 1.384 . S
N1529 C1521 1.427 . S
N1529 C1527 1.384 . S
H1530 C1536 0.930 . S
H1531 C1540 0.930 . S
H1532 C1545 0.929 . S
H1533 C1543 0.929 . S
H1534 C1538 0.929 . S
H1535 C1544 0.929 . S
C1536 H1530 0.930 . S
C1536 C1537 1.367 . S
C1536 C1544 1.378 . S
C1537 C1536 1.367 . S
C1537 C1545 1.433 1_556 S
C1538 H1534 0.929 . S
C1538 C1540 1.378 1_545 S
C1538 C1542 1.350 1_554 S
C1539 C1542 1.463 . S
C1539 C1544 1.350 . S
C1539 N1547 1.427 1_556 S
C1540 H1531 0.930 . S
C1540 C1538 1.378 1_565 S
C1540 C1541 1.367 1_554 S
C1541 C1540 1.367 1_556 S
C1541 C1543 1.433 . S
C1542 C1538 1.350 1_556 S
C1542 C1539 1.463 . S
C1542 N1546 1.427 . S
C1543 H1533 0.929 . S
C1543 C1541 1.433 . S
C1543 N1546 1.384 1_565 S
C1544 H1535 0.929 . S
C1544 C1536 1.378 . S
C1544 C1539 1.350 . S
C1545 H1532 0.929 . S
C1545 C1537 1.433 1_554 S
C1545 N1547 1.384 . S
N1546 C1542 1.427 . S
N1546 C1543 1.384 1_545 S
N1547 C1539 1.427 1_554 S
N1547 C1545 1.384 . S
H1548 C1554 0.930 . S
H1549 C1558 0.930 . S
H1550 C1563 0.929 . S
H1551 C1561 0.929 . S
H1552 C1556 0.929 . S
H1553 C1562 0.929 . S
C1554 H1548 0.930 . S
C1554 C1555 1.367 . S
C1554 C1562 1.378 . S
C1555 C1554 1.367 . S
C1555 C1563 1.433 . S
C1556 H1552 0.929 . S
C1556 C1558 1.378 . S
C1556 C1560 1.350 . S
C1557 C1560 1.463 . S
C1557 C1562 1.350 . S
C1557 N1565 1.427 . S
C1558 H1549 0.930 . S
C1558 C1556 1.378 . S
C1558 C1559 1.367 . S
C1559 C1558 1.367 . S
C1559 C1561 1.433 . S
C1560 C1556 1.350 . S
C1560 C1557 1.463 . S
C1560 N1564 1.427 . S
C1561 H1551 0.929 . S
C1561 C1559 1.433 . S
C1561 N1564 1.384 . S
C1562 H1553 0.929 . S
C1562 C1554 1.378 . S
C1562 C1557 1.350 . S
C1563 H1550 0.929 . S
C1563 C1555 1.433 . S
C1563 N1565 1.384 . S
N1564 C1560 1.427 . S
N1564 C1561 1.384 . S
N1565 C1557 1.427 . S
N1565 C1563 1.384 . S
H1566 C1572 0.930 . S
H1567 C1576 0.923 1_556 S
H1568 C1581 0.929 . S
H1569 C1579 0.929 . S
H1570 C1574 0.929 . S
H1571 C1580 0.929 . S
C1572 H1566 0.930 . S
C1572 C1573 1.382 . S
C1572 C1580 1.378 . S
C1573 C1572 1.382 . S
C1573 C1581 1.420 1_554 S
C1574 H1570 0.929 . S
C1574 C1576 1.377 1_556 S
C1574 C1578 1.350 1_556 S
C1575 C1578 1.463 . S
C1575 C1580 1.350 . S
C1575 N1583 1.427 1_554 S
C1576 H1567 0.923 1_554 S
C1576 C1574 1.377 1_554 S
C1576 C1577 1.375 . S
C1577 C1576 1.375 . S
C1577 C1579 1.433 . S
C1578 C1574 1.350 1_554 S
C1578 C1575 1.463 . S
C1578 N1582 1.427 . S
C1579 H1569 0.929 . S
C1579 C1577 1.433 . S
C1579 N1582 1.384 . S
C1580 H1571 0.929 . S
C1580 C1572 1.378 . S
C1580 C1575 1.350 . S
C1581 H1568 0.929 . S
C1581 C1573 1.420 1_556 S
C1581 N1583 1.384 . S
N1582 C1578 1.427 . S
N1582 C1579 1.384 . S
N1583 C1575 1.427 1_556 S
N1583 C1581 1.384 . S
H1584 C1590 0.930 . S
H1585 C1594 0.930 . S
H1586 C1599 0.929 . S
H1587 C1597 0.929 . S
H1588 C1592 0.929 . S
H1589 C1598 0.929 . S
C1590 H1584 0.930 . S
C1590 C1591 1.367 . S
C1590 C1598 1.378 . S
C1591 C1590 1.367 . S
C1591 C1599 1.433 . S
C1592 H1588 0.929 . S
C1592 C1594 1.378 . S
C1592 C1596 1.350 . S
C1593 C1596 1.463 . S
C1593 C1598 1.350 . S
C1593 N1601 1.427 . S
C1594 H1585 0.930 . S
C1594 C1592 1.378 . S
C1594 C1595 1.367 . S
C1595 C1594 1.367 . S
C1595 C1597 1.433 . S
C1596 C1592 1.350 . S
C1596 C1593 1.463 . S
C1596 N1600 1.427 . S
C1597 H1587 0.929 . S
C1597 C1595 1.433 . S
C1597 N1600 1.384 . S
C1598 H1589 0.929 . S
C1598 C1590 1.378 . S
C1598 C1593 1.350 . S
C1599 H1586 0.929 . S
C1599 C1591 1.433 . S
C1599 N1601 1.384 . S
N1600 C1596 1.427 . S
N1600 C1597 1.384 . S
N1601 C1593 1.427 . S
N1601 C1599 1.384 . S
H1602 C1608 0.930 . S
H1603 C1612 0.930 . S
H1604 C1617 0.929 . S
H1605 C1615 0.929 . S
H1606 C1610 0.929 . S
H1607 C1616 0.929 . S
C1608 H1602 0.930 . S
C1608 C1609 1.367 1_455 S
C1608 C1616 1.378 . S
C1609 C1608 1.367 1_655 S
C1609 C1617 1.433 . S
C1610 H1606 0.929 . S
C1610 C1612 1.378 1_554 S
C1610 C1614 1.350 . S
C1611 C1614 1.463 . S
C1611 C1616 1.350 1_655 S
C1611 N1619 1.427 . S
C1612 H1603 0.930 . S
C1612 C1610 1.378 1_556 S
C1612 C1613 1.367 . S
C1613 C1612 1.367 . S
C1613 C1615 1.433 1_655 S
C1614 C1610 1.350 . S
C1614 C1611 1.463 . S
C1614 N1618 1.427 1_655 S
C1615 H1605 0.929 . S
C1615 C1613 1.433 1_455 S
C1615 N1618 1.384 1_556 S
C1616 H1607 0.929 . S
C1616 C1608 1.378 . S
C1616 C1611 1.350 1_455 S
C1617 H1604 0.929 . S
C1617 C1609 1.433 . S
C1617 N1619 1.384 . S
N1618 C1614 1.427 1_455 S
N1618 C1615 1.384 1_554 S
N1619 C1611 1.427 . S
N1619 C1617 1.384 . S
H1620 C1626 0.930 . S
H1621 C1630 0.930 . S
H1622 C1635 0.929 . S
H1623 C1633 0.929 . S
H1624 C1628 0.929 . S
H1625 C1634 0.929 . S
C1626 H1620 0.930 . S
C1626 C1627 1.367 . S
C1626 C1634 1.378 . S
C1627 C1626 1.367 . S
C1627 C1635 1.433 . S
C1628 H1624 0.929 . S
C1628 C1630 1.378 . S
C1628 C1632 1.350 . S
C1629 C1632 1.463 . S
C1629 C1634 1.350 . S
C1629 N1637 1.427 . S
C1630 H1621 0.930 . S
C1630 C1628 1.378 . S
C1630 C1631 1.367 . S
C1631 C1630 1.367 . S
C1631 C1633 1.433 . S
C1632 C1628 1.350 . S
C1632 C1629 1.463 . S
C1632 N1636 1.427 . S
C1633 H1623 0.929 . S
C1633 C1631 1.433 . S
C1633 N1636 1.384 . S
C1634 H1625 0.929 . S
C1634 C1626 1.378 . S
C1634 C1629 1.350 . S
C1635 H1622 0.929 . S
C1635 C1627 1.433 . S
C1635 N1637 1.384 . S
N1636 C1632 1.427 . S
N1636 C1633 1.384 . S
N1637 C1629 1.427 . S
N1637 C1635 1.384 . S
H1638 C1644 0.930 . S
H1639 C1648 0.930 . S
H1640 C1653 0.929 . S
H1641 C1651 0.929 . S
H1642 C1646 0.929 . S
H1643 C1652 0.929 . S
C1644 H1638 0.930 . S
C1644 C1645 1.370 . S
C1644 C1652 1.378 . S
C1645 C1644 1.370 . S
C1645 C1653 1.431 1_455 S
C1646 H1642 0.929 . S
C1646 C1648 1.378 . S
C1646 C1650 1.350 . S
C1647 C1650 1.463 . S
C1647 C1652 1.350 . S
C1647 N1655 1.418 1_455 S
C1648 H1639 0.930 . S
C1648 C1646 1.378 . S
C1648 C1649 1.367 . S
C1649 C1648 1.367 . S
C1649 C1651 1.433 . S
C1650 C1646 1.350 . S
C1650 C1647 1.463 . S
C1650 N1654 1.427 . S
C1651 H1641 0.929 . S
C1651 C1649 1.433 . S
C1651 N1654 1.384 . S
C1652 H1643 0.929 . S
C1652 C1644 1.378 . S
C1652 C1647 1.350 . S
C1653 H1640 0.929 . S
C1653 C1645 1.431 1_655 S
C1653 N1655 1.386 . S
N1654 C1650 1.427 . S
N1654 C1651 1.384 . S
N1655 C1647 1.418 1_655 S
N1655 C1653 1.386 . S
H1656 C1662 0.930 . S
H1657 C1666 0.930 . S
H1658 C1671 0.929 . S
H1659 C1669 0.929 . S
H1660 C1664 0.929 . S
H1661 C1670 0.929 . S
C1662 H1656 0.930 . S
C1662 C1663 1.367 . S
C1662 C1670 1.378 . S
C1663 C1662 1.367 . S
C1663 C1671 1.433 . S
C1664 H1660 0.929 . S
C1664 C1666 1.378 . S
C1664 C1668 1.350 . S
C1665 C1668 1.463 . S
C1665 C1670 1.350 . S
C1665 N1673 1.427 . S
C1666 H1657 0.930 . S
C1666 C1664 1.378 . S
C1666 C1667 1.367 . S
C1667 C1666 1.367 . S
C1667 C1669 1.433 . S
C1668 C1664 1.350 . S
C1668 C1665 1.463 . S
C1668 N1672 1.427 . S
C1669 H1659 0.929 . S
C1669 C1667 1.433 . S
C1669 N1672 1.384 . S
C1670 H1661 0.929 . S
C1670 C1662 1.378 . S
C1670 C1665 1.350 . S
C1671 H1658 0.929 . S
C1671 C1663 1.433 . S
C1671 N1673 1.384 . S
N1672 C1668 1.427 . S
N1672 C1669 1.384 . S
N1673 C1665 1.427 . S
N1673 C1671 1.384 . S
H1674 C1680 0.930 . S
H1675 C1684 0.930 . S
H1676 C1689 0.929 . S
H1677 C1687 0.929 . S
H1678 C1682 0.929 . S
H1679 C1688 0.929 . S
C1680 H1674 0.930 . S
C1680 C1681 1.367 . S
C1680 C1688 1.378 . S
C1681 C1680 1.367 . S
C1681 C1689 1.433 . S
C1682 H1678 0.929 . S
C1682 C1684 1.378 . S
C1682 C1686 1.350 . S
C1683 C1686 1.463 . S
C1683 C1688 1.350 . S
C1683 N1691 1.427 . S
C1684 H1675 0.930 . S
C1684 C1682 1.378 . S
C1684 C1685 1.367 . S
C1685 C1684 1.367 . S
C1685 C1687 1.433 . S
C1686 C1682 1.350 . S
C1686 C1683 1.463 . S
C1686 N1690 1.427 . S
C1687 H1677 0.929 . S
C1687 C1685 1.433 . S
C1687 N1690 1.384 . S
C1688 H1679 0.929 . S
C1688 C1680 1.378 . S
C1688 C1683 1.350 . S
C1689 H1676 0.929 . S
C1689 C1681 1.433 . S
C1689 N1691 1.384 . S
N1690 C1686 1.427 . S
N1690 C1687 1.384 . S
N1691 C1683 1.427 . S
N1691 C1689 1.384 . S
H1692 C1698 0.930 . S
H1693 C1702 0.930 . S
H1694 C1707 0.929 . S
H1695 C1705 0.929 . S
H1696 C1700 0.929 . S
H1697 C1706 0.929 . S
C1698 H1692 0.930 . S
C1698 C1699 1.367 . S
C1698 C1706 1.378 . S
C1699 C1698 1.367 . S
C1699 C1707 1.434 1_565 S
C1700 H1696 0.929 . S
C1700 C1702 1.378 . S
C1700 C1704 1.350 1_545 S
C1701 C1704 1.463 . S
C1701 C1706 1.350 . S
C1701 N1709 1.427 1_565 S
C1702 H1693 0.930 . S
C1702 C1700 1.378 . S
C1702 C1703 1.367 1_545 S
C1703 C1702 1.367 1_565 S
C1703 C1705 1.433 . S
C1704 C1700 1.350 1_565 S
C1704 C1701 1.463 . S
C1704 N1708 1.427 . S
C1705 H1695 0.929 . S
C1705 C1703 1.433 . S
C1705 N1708 1.384 . S
C1706 H1697 0.929 . S
C1706 C1698 1.378 . S
C1706 C1701 1.350 . S
C1707 H1694 0.929 . S
C1707 C1699 1.434 1_545 S
C1707 N1709 1.384 . S
N1708 C1704 1.427 . S
N1708 C1705 1.384 . S
N1709 C1701 1.427 1_545 S
N1709 C1707 1.384 . S
H1710 C1716 0.930 . S
H1711 C1720 0.930 . S
H1712 C1725 0.929 . S
H1713 C1723 0.929 . S
H1714 C1718 0.929 . S
H1715 C1724 0.929 . S
C1716 H1710 0.930 . S
C1716 C1717 1.367 . S
C1716 C1724 1.378 . S
C1717 C1716 1.367 . S
C1717 C1725 1.433 . S
C1718 H1714 0.929 . S
C1718 C1720 1.378 . S
C1718 C1722 1.350 . S
C1719 C1722 1.463 . S
C1719 C1724 1.350 . S
C1719 N1727 1.427 . S
C1720 H1711 0.930 . S
C1720 C1718 1.378 . S
C1720 C1721 1.367 . S
C1721 C1720 1.367 . S
C1721 C1723 1.433 . S
C1722 C1718 1.350 . S
C1722 C1719 1.463 . S
C1722 N1726 1.427 . S
C1723 H1713 0.929 . S
C1723 C1721 1.433 . S
C1723 N1726 1.384 . S
C1724 H1715 0.929 . S
C1724 C1716 1.378 . S
C1724 C1719 1.350 . S
C1725 H1712 0.929 . S
C1725 C1717 1.433 . S
C1725 N1727 1.384 . S
N1726 C1722 1.427 . S
N1726 C1723 1.384 . S
N1727 C1719 1.427 . S
N1727 C1725 1.384 . S
H1728 C1734 0.930 . S
H1729 C1738 0.930 . S
H1730 C1743 0.929 . S
H1731 C1741 0.929 . S
H1732 C1736 0.929 . S
H1733 C1742 0.929 . S
C1734 H1728 0.930 . S
C1734 C1735 1.367 . S
C1734 C1742 1.378 . S
C1735 C1734 1.367 . S
C1735 C1743 1.433 . S
C1736 H1732 0.929 . S
C1736 C1738 1.378 . S
C1736 C1740 1.350 . S
C1737 C1740 1.463 . S
C1737 C1742 1.350 . S
C1737 N1745 1.427 . S
C1738 H1729 0.930 . S
C1738 C1736 1.378 . S
C1738 C1739 1.367 . S
C1739 C1738 1.367 . S
C1739 C1741 1.433 . S
C1740 C1736 1.350 . S
C1740 C1737 1.463 . S
C1740 N1744 1.427 . S
C1741 H1731 0.929 . S
C1741 C1739 1.433 . S
C1741 N1744 1.384 . S
C1742 H1733 0.929 . S
C1742 C1734 1.378 . S
C1742 C1737 1.350 . S
C1743 H1730 0.929 . S
C1743 C1735 1.433 . S
C1743 N1745 1.384 . S
N1744 C1740 1.427 . S
N1744 C1741 1.384 . S
N1745 C1737 1.427 . S
N1745 C1743 1.384 . S
H1746 C1752 0.930 . S
H1747 C1756 0.930 . S
H1748 C1761 0.929 . S
H1749 C1759 0.929 . S
H1750 C1754 0.929 . S
H1751 C1760 0.929 . S
C1752 H1746 0.930 . S
C1752 C1753 1.367 . S
C1752 C1760 1.378 . S
C1753 C1752 1.367 . S
C1753 C1761 1.433 . S
C1754 H1750 0.929 . S
C1754 C1756 1.378 . S
C1754 C1758 1.350 . S
C1755 C1758 1.463 . S
C1755 C1760 1.350 . S
C1755 N1763 1.427 . S
C1756 H1747 0.930 . S
C1756 C1754 1.378 . S
C1756 C1757 1.367 . S
C1757 C1756 1.367 . S
C1757 C1759 1.433 . S
C1758 C1754 1.350 . S
C1758 C1755 1.463 . S
C1758 N1762 1.427 . S
C1759 H1749 0.929 . S
C1759 C1757 1.433 . S
C1759 N1762 1.384 . S
C1760 H1751 0.929 . S
C1760 C1752 1.378 . S
C1760 C1755 1.350 . S
C1761 H1748 0.929 . S
C1761 C1753 1.433 . S
C1761 N1763 1.384 . S
N1762 C1758 1.427 . S
N1762 C1759 1.384 . S
N1763 C1755 1.427 . S
N1763 C1761 1.384 . S
H1764 C1770 0.930 . S
H1765 C1774 0.930 . S
H1766 C1779 0.929 . S
H1767 C1777 0.929 . S
H1768 C1772 0.929 . S
H1769 C1778 0.929 . S
C1770 H1764 0.930 . S
C1770 C1771 1.367 . S
C1770 C1778 1.378 . S
C1771 C1770 1.367 . S
C1771 C1779 1.433 . S
C1772 H1768 0.929 . S
C1772 C1774 1.378 . S
C1772 C1776 1.350 . S
C1773 C1776 1.463 . S
C1773 C1778 1.350 . S
C1773 N1781 1.427 . S
C1774 H1765 0.930 . S
C1774 C1772 1.378 . S
C1774 C1775 1.367 . S
C1775 C1774 1.367 . S
C1775 C1777 1.433 . S
C1776 C1772 1.350 . S
C1776 C1773 1.463 . S
C1776 N1780 1.427 . S
C1777 H1767 0.929 . S
C1777 C1775 1.433 . S
C1777 N1780 1.384 . S
C1778 H1769 0.929 . S
C1778 C1770 1.378 . S
C1778 C1773 1.350 . S
C1779 H1766 0.929 . S
C1779 C1771 1.433 . S
C1779 N1781 1.384 . S
N1780 C1776 1.427 . S
N1780 C1777 1.384 . S
N1781 C1773 1.427 . S
N1781 C1779 1.384 . S
H1782 C1788 0.930 . S
H1783 C1792 0.930 . S
H1784 C1797 0.929 . S
H1785 C1795 0.929 . S
H1786 C1790 0.929 . S
H1787 C1796 0.929 . S
C1788 H1782 0.930 . S
C1788 C1789 1.369 . S
C1788 C1796 1.378 . S
C1789 C1788 1.369 . S
C1789 C1797 1.431 1_556 S
C1790 H1786 0.929 . S
C1790 C1792 1.378 . S
C1790 C1794 1.324 1_554 S
C1791 C1794 1.468 . S
C1791 C1796 1.350 . S
C1791 N1799 1.427 1_556 S
C1792 H1783 0.930 . S
C1792 C1790 1.378 . S
C1792 C1793 1.367 1_554 S
C1793 C1792 1.367 1_556 S
C1793 C1795 1.433 . S
C1794 C1790 1.324 1_556 S
C1794 C1791 1.468 . S
C1794 N1798 1.453 . S
C1795 H1785 0.929 . S
C1795 C1793 1.433 . S
C1795 N1798 1.384 . S
C1796 H1787 0.929 . S
C1796 C1788 1.378 . S
C1796 C1791 1.350 . S
C1797 H1784 0.929 . S
C1797 C1789 1.431 1_554 S
C1797 N1799 1.384 . S
N1798 C1794 1.453 . S
N1798 C1795 1.384 . S
N1799 C1791 1.427 1_554 S
N1799 C1797 1.384 . S
H1800 C1806 0.930 . S
H1801 C1810 0.930 . S
H1802 C1815 0.929 . S
H1803 C1813 0.929 . S
H1804 C1808 0.929 . S
H1805 C1814 0.929 . S
C1806 H1800 0.930 . S
C1806 C1807 1.367 . S
C1806 C1814 1.378 . S
C1807 C1806 1.367 . S
C1807 C1815 1.433 . S
C1808 H1804 0.929 . S
C1808 C1810 1.378 . S
C1808 C1812 1.350 . S
C1809 C1812 1.463 . S
C1809 C1814 1.350 . S
C1809 N1817 1.427 . S
C1810 H1801 0.930 . S
C1810 C1808 1.378 . S
C1810 C1811 1.367 . S
C1811 C1810 1.367 . S
C1811 C1813 1.433 . S
C1812 C1808 1.350 . S
C1812 C1809 1.463 . S
C1812 N1816 1.427 . S
C1813 H1803 0.929 . S
C1813 C1811 1.433 . S
C1813 N1816 1.384 . S
C1814 H1805 0.929 . S
C1814 C1806 1.378 . S
C1814 C1809 1.350 . S
C1815 H1802 0.929 . S
C1815 C1807 1.433 . S
C1815 N1817 1.384 . S
N1816 C1812 1.427 . S
N1816 C1813 1.384 . S
N1817 C1809 1.427 . S
N1817 C1815 1.384 . S
H1818 C1824 0.930 . S
H1819 C1828 0.930 . S
H1820 C1833 0.929 . S
H1821 C1831 0.929 . S
H1822 C1826 0.929 . S
H1823 C1832 0.929 . S
C1824 H1818 0.930 . S
C1824 C1825 1.367 . S
C1824 C1832 1.378 . S
C1825 C1824 1.367 . S
C1825 C1833 1.433 . S
C1826 H1822 0.929 . S
C1826 C1828 1.378 . S
C1826 C1830 1.350 . S
C1827 C1830 1.463 . S
C1827 C1832 1.350 . S
C1827 N1835 1.427 . S
C1828 H1819 0.930 . S
C1828 C1826 1.378 . S
C1828 C1829 1.367 . S
C1829 C1828 1.367 . S
C1829 C1831 1.433 . S
C1830 C1826 1.350 . S
C1830 C1827 1.463 . S
C1830 N1834 1.427 . S
C1831 H1821 0.929 . S
C1831 C1829 1.433 . S
C1831 N1834 1.384 . S
C1832 H1823 0.929 . S
C1832 C1824 1.378 . S
C1832 C1827 1.350 . S
C1833 H1820 0.929 . S
C1833 C1825 1.433 . S
C1833 N1835 1.384 . S
N1834 C1830 1.427 . S
N1834 C1831 1.384 . S
N1835 C1827 1.427 . S
N1835 C1833 1.384 . S
H1836 C1842 0.930 . S
H1837 C1846 0.930 . S
H1838 C1851 0.929 . S
H1839 C1849 0.929 . S
H1840 C1844 0.929 . S
H1841 C1850 0.929 . S
C1842 H1836 0.930 . S
C1842 C1843 1.367 . S
C1842 C1850 1.378 . S
C1843 C1842 1.367 . S
C1843 C1851 1.433 . S
C1844 H1840 0.929 . S
C1844 C1846 1.378 . S
C1844 C1848 1.350 . S
C1845 C1848 1.463 . S
C1845 C1850 1.350 . S
C1845 N1853 1.427 . S
C1846 H1837 0.930 . S
C1846 C1844 1.378 . S
C1846 C1847 1.367 . S
C1847 C1846 1.367 . S
C1847 C1849 1.433 . S
C1848 C1844 1.350 . S
C1848 C1845 1.463 . S
C1848 N1852 1.427 . S
C1849 H1839 0.929 . S
C1849 C1847 1.433 . S
C1849 N1852 1.384 . S
C1850 H1841 0.929 . S
C1850 C1842 1.378 . S
C1850 C1845 1.350 . S
C1851 H1838 0.929 . S
C1851 C1843 1.433 . S
C1851 N1853 1.384 . S
N1852 C1848 1.427 . S
N1852 C1849 1.384 . S
N1853 C1845 1.427 . S
N1853 C1851 1.384 . S
H1854 C1860 0.930 . S
H1855 C1864 0.930 . S
H1856 C1869 0.929 . S
H1857 C1867 0.929 . S
H1858 C1862 0.929 . S
H1859 C1868 0.929 . S
C1860 H1854 0.930 . S
C1860 C1861 1.367 . S
C1860 C1868 1.378 . S
C1861 C1860 1.367 . S
C1861 C1869 1.433 1_655 S
C1862 H1858 0.929 . S
C1862 C1864 1.378 . S
C1862 C1866 1.320 1_455 S
C1863 C1866 1.469 . S
C1863 C1868 1.350 . S
C1863 N1871 1.427 1_655 S
C1864 H1855 0.930 . S
C1864 C1862 1.378 . S
C1864 C1865 1.367 1_455 S
C1865 C1864 1.367 1_655 S
C1865 C1867 1.433 . S
C1866 C1862 1.320 1_655 S
C1866 C1863 1.469 . S
C1866 N1870 1.457 . S
C1867 H1857 0.929 . S
C1867 C1865 1.433 . S
C1867 N1870 1.384 . S
C1868 H1859 0.929 . S
C1868 C1860 1.378 . S
C1868 C1863 1.350 . S
C1869 H1856 0.929 . S
C1869 C1861 1.433 1_455 S
C1869 N1871 1.384 . S
N1870 C1866 1.457 . S
N1870 C1867 1.384 . S
N1871 C1863 1.427 1_455 S
N1871 C1869 1.384 . S
H1872 C1878 0.930 . S
H1873 C1882 0.930 . S
H1874 C1887 0.929 . S
H1875 C1885 0.929 . S
H1876 C1880 0.929 . S
H1877 C1886 0.929 . S
C1878 H1872 0.930 . S
C1878 C1879 1.367 . S
C1878 C1886 1.378 . S
C1879 C1878 1.367 . S
C1879 C1887 1.433 . S
C1880 H1876 0.929 . S
C1880 C1882 1.378 . S
C1880 C1884 1.350 . S
C1881 C1884 1.463 . S
C1881 C1886 1.350 . S
C1881 N1889 1.427 . S
C1882 H1873 0.930 . S
C1882 C1880 1.378 . S
C1882 C1883 1.367 . S
C1883 C1882 1.367 . S
C1883 C1885 1.433 . S
C1884 C1880 1.350 . S
C1884 C1881 1.463 . S
C1884 N1888 1.427 . S
C1885 H1875 0.929 . S
C1885 C1883 1.433 . S
C1885 N1888 1.384 . S
C1886 H1877 0.929 . S
C1886 C1878 1.378 . S
C1886 C1881 1.350 . S
C1887 H1874 0.929 . S
C1887 C1879 1.433 . S
C1887 N1889 1.384 . S
N1888 C1884 1.427 . S
N1888 C1885 1.384 . S
N1889 C1881 1.427 . S
N1889 C1887 1.384 . S
H1890 C1896 0.930 . S
H1891 C1900 0.930 . S
H1892 C1905 0.929 . S
H1893 C1903 0.929 . S
H1894 C1898 0.929 . S
H1895 C1904 0.929 . S
C1896 H1890 0.930 . S
C1896 C1897 1.367 . S
C1896 C1904 1.378 . S
C1897 C1896 1.367 . S
C1897 C1905 1.433 . S
C1898 H1894 0.929 . S
C1898 C1900 1.378 . S
C1898 C1902 1.350 . S
C1899 C1902 1.463 . S
C1899 C1904 1.350 . S
C1899 N1907 1.427 . S
C1900 H1891 0.930 . S
C1900 C1898 1.378 . S
C1900 C1901 1.367 . S
C1901 C1900 1.367 . S
C1901 C1903 1.433 . S
C1902 C1898 1.350 . S
C1902 C1899 1.463 . S
C1902 N1906 1.427 . S
C1903 H1893 0.929 . S
C1903 C1901 1.433 . S
C1903 N1906 1.384 . S
C1904 H1895 0.929 . S
C1904 C1896 1.378 . S
C1904 C1899 1.350 . S
C1905 H1892 0.929 . S
C1905 C1897 1.433 . S
C1905 N1907 1.384 . S
N1906 C1902 1.427 . S
N1906 C1903 1.384 . S
N1907 C1899 1.427 . S
N1907 C1905 1.384 . S
H1908 C1914 0.930 . S
H1909 C1918 0.930 . S
H1910 C1923 0.929 . S
H1911 C1921 0.929 . S
H1912 C1916 0.929 . S
H1913 C1922 0.929 . S
C1914 H1908 0.930 . S
C1914 C1915 1.374 . S
C1914 C1922 1.378 . S
C1915 C1914 1.374 . S
C1915 C1923 1.425 1_545 S
C1916 H1912 0.929 . S
C1916 C1918 1.378 . S
C1916 C1920 1.314 1_565 S
C1917 C1920 1.468 . S
C1917 C1922 1.350 . S
C1917 N1925 1.427 1_545 S
C1918 H1909 0.930 . S
C1918 C1916 1.378 . S
C1918 C1919 1.367 1_565 S
C1919 C1918 1.367 1_545 S
C1919 C1921 1.433 . S
C1920 C1916 1.314 1_545 S
C1920 C1917 1.468 . S
C1920 N1924 1.462 . S
C1921 H1911 0.929 . S
C1921 C1919 1.433 . S
C1921 N1924 1.384 . S
C1922 H1913 0.929 . S
C1922 C1914 1.378 . S
C1922 C1917 1.350 . S
C1923 H1910 0.929 . S
C1923 C1915 1.425 1_565 S
C1923 N1925 1.384 . S
N1924 C1920 1.462 . S
N1924 C1921 1.384 . S
N1925 C1917 1.427 1_565 S
N1925 C1923 1.384 . S
H1926 C1932 0.930 . S
H1927 C1936 0.930 . S
H1928 C1941 0.929 . S
H1929 C1939 0.929 . S
H1930 C1934 0.929 . S
H1931 C1940 0.929 . S
C1932 H1926 0.930 . S
C1932 C1933 1.367 . S
C1932 C1940 1.378 . S
C1933 C1932 1.367 . S
C1933 C1941 1.433 . S
C1934 H1930 0.929 . S
C1934 C1936 1.378 . S
C1934 C1938 1.350 . S
C1935 C1938 1.463 . S
C1935 C1940 1.350 . S
C1935 N1943 1.427 . S
C1936 H1927 0.930 . S
C1936 C1934 1.378 . S
C1936 C1937 1.367 . S
C1937 C1936 1.367 . S
C1937 C1939 1.433 . S
C1938 C1934 1.350 . S
C1938 C1935 1.463 . S
C1938 N1942 1.427 . S
C1939 H1929 0.929 . S
C1939 C1937 1.433 . S
C1939 N1942 1.384 . S
C1940 H1931 0.929 . S
C1940 C1932 1.378 . S
C1940 C1935 1.350 . S
C1941 H1928 0.929 . S
C1941 C1933 1.433 . S
C1941 N1943 1.384 . S
N1942 C1938 1.427 . S
N1942 C1939 1.384 . S
N1943 C1935 1.427 . S
N1943 C1941 1.384 . S
H1944 C1950 0.930 . S
H1945 C1954 0.930 . S
H1946 C1959 0.929 . S
H1947 C1957 0.929 . S
H1948 C1952 0.929 . S
H1949 C1958 0.929 . S
C1950 H1944 0.930 . S
C1950 C1951 1.367 . S
C1950 C1958 1.378 . S
C1951 C1950 1.367 . S
C1951 C1959 1.433 . S
C1952 H1948 0.929 . S
C1952 C1954 1.378 . S
C1952 C1956 1.350 . S
C1953 C1956 1.463 . S
C1953 C1958 1.350 . S
C1953 N1961 1.427 . S
C1954 H1945 0.930 . S
C1954 C1952 1.378 . S
C1954 C1955 1.367 . S
C1955 C1954 1.367 . S
C1955 C1957 1.433 . S
C1956 C1952 1.350 . S
C1956 C1953 1.463 . S
C1956 N1960 1.427 . S
C1957 H1947 0.929 . S
C1957 C1955 1.433 . S
C1957 N1960 1.384 . S
C1958 H1949 0.929 . S
C1958 C1950 1.378 . S
C1958 C1953 1.350 . S
C1959 H1946 0.929 . S
C1959 C1951 1.433 . S
C1959 N1961 1.384 . S
N1960 C1956 1.427 . S
N1960 C1957 1.384 . S
N1961 C1953 1.427 . S
N1961 C1959 1.384 . S
H1962 C1968 0.930 . S
H1963 C1972 0.930 . S
H1964 C1977 0.929 . S
H1965 C1975 0.929 . S
H1966 C1970 0.929 . S
H1967 C1976 0.929 . S
C1968 H1962 0.930 . S
C1968 C1969 1.367 . S
C1968 C1976 1.378 . S
C1969 C1968 1.367 . S
C1969 C1977 1.433 . S
C1970 H1966 0.929 . S
C1970 C1972 1.378 . S
C1970 C1974 1.350 . S
C1971 C1974 1.463 . S
C1971 C1976 1.350 . S
C1971 N1979 1.427 . S
C1972 H1963 0.930 . S
C1972 C1970 1.378 . S
C1972 C1973 1.367 . S
C1973 C1972 1.367 . S
C1973 C1975 1.433 . S
C1974 C1970 1.350 . S
C1974 C1971 1.463 . S
C1974 N1978 1.427 . S
C1975 H1965 0.929 . S
C1975 C1973 1.433 . S
C1975 N1978 1.384 . S
C1976 H1967 0.929 . S
C1976 C1968 1.378 . S
C1976 C1971 1.350 . S
C1977 H1964 0.929 . S
C1977 C1969 1.433 . S
C1977 N1979 1.384 . S
N1978 C1974 1.427 . S
N1978 C1975 1.384 . S
N1979 C1971 1.427 . S
N1979 C1977 1.384 . S
H1980 C1986 0.930 . S
H1981 C1990 0.930 . S
H1982 C1995 0.929 . S
H1983 C1993 0.929 . S
H1984 C1988 0.929 . S
H1985 C1994 0.929 . S
C1986 H1980 0.930 . S
C1986 C1987 1.367 . S
C1986 C1994 1.378 . S
C1987 C1986 1.367 . S
C1987 C1995 1.433 . S
C1988 H1984 0.929 . S
C1988 C1990 1.378 . S
C1988 C1992 1.350 . S
C1989 C1992 1.463 . S
C1989 C1994 1.350 . S
C1989 N1997 1.427 . S
C1990 H1981 0.930 . S
C1990 C1988 1.378 . S
C1990 C1991 1.367 . S
C1991 C1990 1.367 . S
C1991 C1993 1.433 . S
C1992 C1988 1.350 . S
C1992 C1989 1.463 . S
C1992 N1996 1.427 . S
C1993 H1983 0.929 . S
C1993 C1991 1.433 . S
C1993 N1996 1.384 . S
C1994 H1985 0.929 . S
C1994 C1986 1.378 . S
C1994 C1989 1.350 . S
C1995 H1982 0.929 . S
C1995 C1987 1.433 . S
C1995 N1997 1.384 . S
N1996 C1992 1.427 . S
N1996 C1993 1.384 . S
N1997 C1989 1.427 . S
N1997 C1995 1.384 . S
H1998 C2004 0.930 . S
H1999 C2008 0.930 . S
H2000 C2013 0.929 . S
H2001 C2011 0.929 . S
H2002 C2006 0.929 . S
H2003 C2012 0.929 . S
C2004 H1998 0.930 . S
C2004 C2005 1.368 . S
C2004 C2012 1.378 . S
C2005 C2004 1.368 . S
C2005 C2013 1.432 1_556 S
C2006 H2002 0.929 . S
C2006 C2008 1.378 . S
C2006 C2010 1.350 . S
C2007 C2010 1.462 . S
C2007 C2012 1.342 1_554 S
C2007 N2015 1.439 . S
C2008 H1999 0.930 . S
C2008 C2006 1.378 . S
C2008 C2009 1.367 . S
C2009 C2008 1.367 . S
C2009 C2011 1.433 1_554 S
C2010 C2006 1.350 . S
C2010 C2007 1.462 . S
C2010 N2014 1.427 1_554 S
C2011 H2001 0.929 . S
C2011 C2009 1.433 1_556 S
C2011 N2014 1.384 . S
C2012 H2003 0.929 . S
C2012 C2004 1.378 . S
C2012 C2007 1.342 1_556 S
C2013 H2000 0.929 . S
C2013 C2005 1.432 1_554 S
C2013 N2015 1.384 . S
N2014 C2010 1.427 1_556 S
N2014 C2011 1.384 . S
N2015 C2007 1.439 . S
N2015 C2013 1.384 . S
H2016 C2022 0.930 . S
H2017 C2026 0.930 . S
H2018 C2031 0.929 . S
H2019 C2029 0.929 . S
H2020 C2024 0.929 . S
H2021 C2030 0.929 . S
C2022 H2016 0.930 . S
C2022 C2023 1.367 . S
C2022 C2030 1.378 . S
C2023 C2022 1.367 . S
C2023 C2031 1.433 . S
C2024 H2020 0.929 . S
C2024 C2026 1.378 . S
C2024 C2028 1.350 . S
C2025 C2028 1.463 . S
C2025 C2030 1.350 . S
C2025 N2033 1.427 . S
C2026 H2017 0.930 . S
C2026 C2024 1.378 . S
C2026 C2027 1.367 . S
C2027 C2026 1.367 . S
C2027 C2029 1.433 . S
C2028 C2024 1.350 . S
C2028 C2025 1.463 . S
C2028 N2032 1.427 . S
C2029 H2019 0.929 . S
C2029 C2027 1.433 . S
C2029 N2032 1.384 . S
C2030 H2021 0.929 . S
C2030 C2022 1.378 . S
C2030 C2025 1.350 . S
C2031 H2018 0.929 . S
C2031 C2023 1.433 . S
C2031 N2033 1.384 . S
N2032 C2028 1.427 . S
N2032 C2029 1.384 . S
N2033 C2025 1.427 . S
N2033 C2031 1.384 . S
H2034 C2040 0.930 . S
H2035 C2044 0.930 . S
H2036 C2049 0.929 . S
H2037 C2047 0.929 . S
H2038 C2042 0.929 . S
H2039 C2048 0.929 . S
C2040 H2034 0.930 . S
C2040 C2041 1.367 . S
C2040 C2048 1.378 . S
C2041 C2040 1.367 . S
C2041 C2049 1.433 . S
C2042 H2038 0.929 . S
C2042 C2044 1.378 . S
C2042 C2046 1.350 . S
C2043 C2046 1.463 . S
C2043 C2048 1.350 . S
C2043 N2051 1.427 . S
C2044 H2035 0.930 . S
C2044 C2042 1.378 . S
C2044 C2045 1.367 . S
C2045 C2044 1.367 . S
C2045 C2047 1.433 . S
C2046 C2042 1.350 . S
C2046 C2043 1.463 . S
C2046 N2050 1.427 . S
C2047 H2037 0.929 . S
C2047 C2045 1.433 . S
C2047 N2050 1.384 . S
C2048 H2039 0.929 . S
C2048 C2040 1.378 . S
C2048 C2043 1.350 . S
C2049 H2036 0.929 . S
C2049 C2041 1.433 . S
C2049 N2051 1.384 . S
N2050 C2046 1.427 . S
N2050 C2047 1.384 . S
N2051 C2043 1.427 . S
N2051 C2049 1.384 . S
H2052 C2058 0.930 . S
H2053 C2062 0.930 . S
H2054 C2067 0.929 . S
H2055 C2065 0.929 . S
H2056 C2060 0.929 . S
H2057 C2066 0.929 . S
C2058 H2052 0.930 . S
C2058 C2059 1.367 . S
C2058 C2066 1.378 . S
C2059 C2058 1.367 . S
C2059 C2067 1.433 . S
C2060 H2056 0.929 . S
C2060 C2062 1.378 . S
C2060 C2064 1.350 . S
C2061 C2064 1.463 . S
C2061 C2066 1.350 . S
C2061 N2069 1.427 . S
C2062 H2053 0.930 . S
C2062 C2060 1.378 . S
C2062 C2063 1.367 . S
C2063 C2062 1.367 . S
C2063 C2065 1.433 . S
C2064 C2060 1.350 . S
C2064 C2061 1.463 . S
C2064 N2068 1.427 . S
C2065 H2055 0.929 . S
C2065 C2063 1.433 . S
C2065 N2068 1.384 . S
C2066 H2057 0.929 . S
C2066 C2058 1.378 . S
C2066 C2061 1.350 . S
C2067 H2054 0.929 . S
C2067 C2059 1.433 . S
C2067 N2069 1.384 . S
N2068 C2064 1.427 . S
N2068 C2065 1.384 . S
N2069 C2061 1.427 . S
N2069 C2067 1.384 . S
H2070 C2076 0.930 . S
H2071 C2080 0.930 . S
H2072 C2085 0.929 . S
H2073 C2083 0.929 . S
H2074 C2078 0.929 . S
H2075 C2084 0.929 . S
C2076 H2070 0.930 . S
C2076 C2077 1.380 . S
C2076 C2084 1.378 . S
C2077 C2076 1.380 . S
C2077 C2085 1.419 1_455 S
C2078 H2074 0.929 . S
C2078 C2080 1.378 . S
C2078 C2082 1.316 1_655 S
C2079 C2082 1.467 . S
C2079 C2084 1.350 . S
C2079 N2087 1.427 1_455 S
C2080 H2071 0.930 . S
C2080 C2078 1.378 . S
C2080 C2081 1.367 1_655 S
C2081 C2080 1.367 1_455 S
C2081 C2083 1.433 . S
C2082 C2078 1.316 1_455 S
C2082 C2079 1.467 . S
C2082 N2086 1.460 . S
C2083 H2073 0.929 . S
C2083 C2081 1.433 . S
C2083 N2086 1.384 . S
C2084 H2075 0.929 . S
C2084 C2076 1.378 . S
C2084 C2079 1.350 . S
C2085 H2072 0.929 . S
C2085 C2077 1.419 1_655 S
C2085 N2087 1.384 . S
N2086 C2082 1.460 . S
N2086 C2083 1.384 . S
N2087 C2079 1.427 1_655 S
N2087 C2085 1.384 . S
H2088 C2094 0.930 . S
H2089 C2098 0.930 . S
H2090 C2103 0.929 . S
H2091 C2101 0.929 . S
H2092 C2096 0.929 . S
H2093 C2102 0.929 . S
C2094 H2088 0.930 . S
C2094 C2095 1.367 . S
C2094 C2102 1.378 . S
C2095 C2094 1.367 . S
C2095 C2103 1.433 . S
C2096 H2092 0.929 . S
C2096 C2098 1.378 . S
C2096 C2100 1.350 . S
C2097 C2100 1.463 . S
C2097 C2102 1.350 . S
C2097 N2105 1.427 . S
C2098 H2089 0.930 . S
C2098 C2096 1.378 . S
C2098 C2099 1.367 . S
C2099 C2098 1.367 . S
C2099 C2101 1.433 . S
C2100 C2096 1.350 . S
C2100 C2097 1.463 . S
C2100 N2104 1.427 . S
C2101 H2091 0.929 . S
C2101 C2099 1.433 . S
C2101 N2104 1.384 . S
C2102 H2093 0.929 . S
C2102 C2094 1.378 . S
C2102 C2097 1.350 . S
C2103 H2090 0.929 . S
C2103 C2095 1.433 . S
C2103 N2105 1.384 . S
N2104 C2100 1.427 . S
N2104 C2101 1.384 . S
N2105 C2097 1.427 . S
N2105 C2103 1.384 . S
H2106 C2112 0.930 . S
H2107 C2116 0.930 . S
H2108 C2121 0.929 . S
H2109 C2119 0.929 . S
H2110 C2114 0.929 . S
H2111 C2120 0.929 . S
C2112 H2106 0.930 . S
C2112 C2113 1.367 . S
C2112 C2120 1.378 . S
C2113 C2112 1.367 . S
C2113 C2121 1.433 . S
C2114 H2110 0.929 . S
C2114 C2116 1.378 . S
C2114 C2118 1.350 . S
C2115 C2118 1.463 . S
C2115 C2120 1.350 . S
C2115 N2123 1.427 . S
C2116 H2107 0.930 . S
C2116 C2114 1.378 . S
C2116 C2117 1.367 . S
C2117 C2116 1.367 . S
C2117 C2119 1.433 . S
C2118 C2114 1.350 . S
C2118 C2115 1.463 . S
C2118 N2122 1.427 . S
C2119 H2109 0.929 . S
C2119 C2117 1.433 . S
C2119 N2122 1.384 . S
C2120 H2111 0.929 . S
C2120 C2112 1.378 . S
C2120 C2115 1.350 . S
C2121 H2108 0.929 . S
C2121 C2113 1.433 . S
C2121 N2123 1.384 . S
N2122 C2118 1.427 . S
N2122 C2119 1.384 . S
N2123 C2115 1.427 . S
N2123 C2121 1.384 . S
H2124 C2130 0.930 . S
H2125 C2134 0.930 . S
H2126 C2139 0.929 . S
H2127 C2137 0.926 1_545 S
H2128 C2132 0.929 . S
H2129 C2138 0.929 . S
C2130 H2124 0.930 . S
C2130 C2131 1.367 1_545 S
C2130 C2138 1.378 . S
C2131 C2130 1.367 1_565 S
C2131 C2139 1.433 . S
C2132 H2128 0.929 . S
C2132 C2134 1.378 . S
C2132 C2136 1.350 . S
C2133 C2136 1.463 . S
C2133 C2138 1.350 1_565 S
C2133 N2141 1.427 . S
C2134 H2125 0.930 . S
C2134 C2132 1.378 . S
C2134 C2135 1.367 . S
C2135 C2134 1.367 . S
C2135 C2137 1.438 . S
C2136 C2132 1.350 . S
C2136 C2133 1.463 . S
C2136 N2140 1.427 1_565 S
C2137 H2127 0.926 1_565 S
C2137 C2135 1.438 . S
C2137 N2140 1.382 1_565 S
C2138 H2129 0.929 . S
C2138 C2130 1.378 . S
C2138 C2133 1.350 1_545 S
C2139 H2126 0.929 . S
C2139 C2131 1.433 . S
C2139 N2141 1.384 . S
N2140 C2136 1.427 1_545 S
N2140 C2137 1.382 1_545 S
N2141 C2133 1.427 . S
N2141 C2139 1.384 . S
H2142 C2148 0.930 1_565 S
H2143 C2152 0.930 . S
H2144 C2157 0.929 . S
H2145 C2155 0.929 . S
H2146 C2150 0.929 . S
H2147 C2156 0.906 1_565 S
C2148 H2142 0.930 1_545 S
C2148 C2149 1.367 . S
C2148 C2156 1.377 . S
C2149 C2148 1.367 . S
C2149 C2157 1.433 . S
C2150 H2146 0.929 . S
C2150 C2152 1.378 . S
C2150 C2154 1.350 . S
C2151 C2154 1.463 . S
C2151 C2156 1.376 . S
C2151 N2159 1.427 . S
C2152 H2143 0.930 . S
C2152 C2150 1.378 . S
C2152 C2153 1.367 . S
C2153 C2152 1.367 . S
C2153 C2155 1.433 1_545 S
C2154 C2150 1.350 . S
C2154 C2151 1.463 . S
C2154 N2158 1.427 1_545 S
C2155 H2145 0.929 . S
C2155 C2153 1.433 1_565 S
C2155 N2158 1.384 . S
C2156 H2147 0.906 1_545 S
C2156 C2148 1.377 . S
C2156 C2151 1.376 . S
C2157 H2144 0.929 . S
C2157 C2149 1.433 . S
C2157 N2159 1.384 . S
N2158 C2154 1.427 1_565 S
N2158 C2155 1.384 . S
N2159 C2151 1.427 . S
N2159 C2157 1.384 . S
H2160 C2166 0.930 . S
H2161 C2170 0.930 . S
H2162 C2175 0.929 . S
H2163 C2173 0.929 . S
H2164 C2168 0.929 . S
H2165 C2174 0.929 . S
C2166 H2160 0.930 . S
C2166 C2167 1.367 . S
C2166 C2174 1.378 . S
C2167 C2166 1.367 . S
C2167 C2175 1.433 . S
C2168 H2164 0.929 . S
C2168 C2170 1.378 . S
C2168 C2172 1.350 . S
C2169 C2172 1.463 . S
C2169 C2174 1.350 . S
C2169 N2177 1.427 . S
C2170 H2161 0.930 . S
C2170 C2168 1.378 . S
C2170 C2171 1.367 . S
C2171 C2170 1.367 . S
C2171 C2173 1.433 . S
C2172 C2168 1.350 . S
C2172 C2169 1.463 . S
C2172 N2176 1.427 . S
C2173 H2163 0.929 . S
C2173 C2171 1.433 . S
C2173 N2176 1.384 . S
C2174 H2165 0.929 . S
C2174 C2166 1.378 . S
C2174 C2169 1.350 . S
C2175 H2162 0.929 . S
C2175 C2167 1.433 . S
C2175 N2177 1.384 . S
N2176 C2172 1.427 . S
N2176 C2173 1.384 . S
N2177 C2169 1.427 . S
N2177 C2175 1.384 . S
H2178 C2184 0.917 1_556 S
H2179 C2188 0.930 . S
H2180 C2193 0.929 . S
H2181 C2191 0.918 1_556 S
H2182 C2186 0.929 . S
H2183 C2192 0.929 1_556 S
C2184 H2178 0.917 1_554 S
C2184 C2185 1.367 . S
C2184 C2192 1.378 . S
C2185 C2184 1.367 . S
C2185 C2193 1.433 . S
C2186 H2182 0.929 . S
C2186 C2188 1.378 . S
C2186 C2190 1.350 . S
C2187 C2190 1.463 . S
C2187 C2192 1.350 . S
C2187 N2195 1.427 . S
C2188 H2179 0.930 . S
C2188 C2186 1.378 . S
C2188 C2189 1.367 . S
C2189 C2188 1.367 . S
C2189 C2191 1.448 . S
C2190 C2186 1.350 . S
C2190 C2187 1.463 . S
C2190 N2194 1.427 . S
C2191 H2181 0.918 1_554 S
C2191 C2189 1.448 . S
C2191 N2194 1.383 . S
C2192 H2183 0.929 1_554 S
C2192 C2184 1.378 . S
C2192 C2187 1.350 . S
C2193 H2180 0.929 . S
C2193 C2185 1.433 . S
C2193 N2195 1.384 . S
N2194 C2190 1.427 . S
N2194 C2191 1.383 . S
N2195 C2187 1.427 . S
N2195 C2193 1.384 . S
H2196 C2202 0.930 . S
H2197 C2206 0.930 . S
H2198 C2211 0.929 . S
H2199 C2209 0.929 . S
H2200 C2204 0.929 . S
H2201 C2210 0.929 . S
C2202 H2196 0.930 . S
C2202 C2203 1.367 . S
C2202 C2210 1.378 . S
C2203 C2202 1.367 . S
C2203 C2211 1.433 . S
C2204 H2200 0.929 . S
C2204 C2206 1.378 . S
C2204 C2208 1.350 . S
C2205 C2208 1.463 . S
C2205 C2210 1.350 . S
C2205 N2213 1.427 . S
C2206 H2197 0.930 . S
C2206 C2204 1.378 . S
C2206 C2207 1.367 . S
C2207 C2206 1.367 . S
C2207 C2209 1.433 . S
C2208 C2204 1.350 . S
C2208 C2205 1.463 . S
C2208 N2212 1.427 . S
C2209 H2199 0.929 . S
C2209 C2207 1.433 . S
C2209 N2212 1.384 . S
C2210 H2201 0.929 . S
C2210 C2202 1.378 . S
C2210 C2205 1.350 . S
C2211 H2198 0.929 . S
C2211 C2203 1.433 . S
C2211 N2213 1.384 . S
N2212 C2208 1.427 . S
N2212 C2209 1.384 . S
N2213 C2205 1.427 . S
N2213 C2211 1.384 . S
H2214 C2220 0.930 . S
H2215 C2224 0.930 . S
H2216 C2229 0.929 . S
H2217 C2227 0.929 1_554 S
H2218 C2222 0.929 . S
H2219 C2228 0.929 . S
C2220 H2214 0.930 . S
C2220 C2221 1.367 1_554 S
C2220 C2228 1.378 . S
C2221 C2220 1.367 1_556 S
C2221 C2229 1.433 . S
C2222 H2218 0.929 . S
C2222 C2224 1.378 . S
C2222 C2226 1.350 . S
C2223 C2226 1.463 . S
C2223 C2228 1.350 1_556 S
C2223 N2231 1.427 . S
C2224 H2215 0.930 . S
C2224 C2222 1.378 . S
C2224 C2225 1.367 . S
C2225 C2224 1.367 . S
C2225 C2227 1.433 . S
C2226 C2222 1.350 . S
C2226 C2223 1.463 . S
C2226 N2230 1.427 . S
C2227 H2217 0.929 1_556 S
C2227 C2225 1.433 . S
C2227 N2230 1.384 . S
C2228 H2219 0.929 . S
C2228 C2220 1.378 . S
C2228 C2223 1.350 1_554 S
C2229 H2216 0.929 . S
C2229 C2221 1.433 . S
C2229 N2231 1.384 . S
N2230 C2226 1.427 . S
N2230 C2227 1.384 . S
N2231 C2223 1.427 . S
N2231 C2229 1.384 . S
H2232 C2238 0.930 . S
H2233 C2242 0.930 . S
H2234 C2247 0.929 . S
H2235 C2245 0.929 . S
H2236 C2240 0.929 . S
H2237 C2246 0.929 . S
C2238 H2232 0.930 . S
C2238 C2239 1.367 . S
C2238 C2246 1.378 . S
C2239 C2238 1.367 . S
C2239 C2247 1.433 . S
C2240 H2236 0.929 . S
C2240 C2242 1.378 . S
C2240 C2244 1.350 . S
C2241 C2244 1.463 . S
C2241 C2246 1.350 . S
C2241 N2249 1.427 . S
C2242 H2233 0.930 . S
C2242 C2240 1.378 . S
C2242 C2243 1.367 . S
C2243 C2242 1.367 . S
C2243 C2245 1.433 . S
C2244 C2240 1.350 . S
C2244 C2241 1.463 . S
C2244 N2248 1.427 . S
C2245 H2235 0.929 . S
C2245 C2243 1.433 . S
C2245 N2248 1.384 . S
C2246 H2237 0.929 . S
C2246 C2238 1.378 . S
C2246 C2241 1.350 . S
C2247 H2234 0.929 . S
C2247 C2239 1.433 . S
C2247 N2249 1.384 . S
N2248 C2244 1.427 . S
N2248 C2245 1.384 . S
N2249 C2241 1.427 . S
N2249 C2247 1.384 . S
H2250 C2256 0.930 . S
H2251 C2260 0.930 . S
H2252 C2265 0.929 1_655 S
H2253 C2263 0.929 . S
H2254 C2258 0.951 . S
H2255 C2264 0.929 . S
C2256 H2250 0.930 . S
C2256 C2257 1.367 . S
C2256 C2264 1.378 . S
C2257 C2256 1.367 . S
C2257 C2265 1.433 . S
C2258 H2254 0.951 . S
C2258 C2260 1.377 . S
C2258 C2262 1.331 1_655 S
C2259 C2262 1.463 . S
C2259 C2264 1.350 . S
C2259 N2267 1.454 . S
C2260 H2251 0.930 . S
C2260 C2258 1.377 . S
C2260 C2261 1.367 1_655 S
C2261 C2260 1.367 1_455 S
C2261 C2263 1.433 . S
C2262 C2258 1.331 1_455 S
C2262 C2259 1.463 . S
C2262 N2266 1.427 . S
C2263 H2253 0.929 . S
C2263 C2261 1.433 . S
C2263 N2266 1.384 . S
C2264 H2255 0.929 . S
C2264 C2256 1.378 . S
C2264 C2259 1.350 . S
C2265 H2252 0.929 1_455 S
C2265 C2257 1.433 . S
C2265 N2267 1.382 . S
N2266 C2262 1.427 . S
N2266 C2263 1.384 . S
N2267 C2259 1.454 . S
N2267 C2265 1.382 . S
H2268 C2274 0.930 . S
H2269 C2278 0.930 . S
H2270 C2283 0.929 . S
H2271 C2281 0.929 . S
H2272 C2276 0.929 . S
H2273 C2282 0.929 . S
C2274 H2268 0.930 . S
C2274 C2275 1.367 . S
C2274 C2282 1.378 . S
C2275 C2274 1.367 . S
C2275 C2283 1.433 . S
C2276 H2272 0.929 . S
C2276 C2278 1.378 . S
C2276 C2280 1.350 . S
C2277 C2280 1.463 . S
C2277 C2282 1.350 . S
C2277 N2285 1.427 . S
C2278 H2269 0.930 . S
C2278 C2276 1.378 . S
C2278 C2279 1.367 . S
C2279 C2278 1.367 . S
C2279 C2281 1.433 . S
C2280 C2276 1.350 . S
C2280 C2277 1.463 . S
C2280 N2284 1.427 . S
C2281 H2271 0.929 . S
C2281 C2279 1.433 . S
C2281 N2284 1.384 . S
C2282 H2273 0.929 . S
C2282 C2274 1.378 . S
C2282 C2277 1.350 . S
C2283 H2270 0.929 . S
C2283 C2275 1.433 . S
C2283 N2285 1.384 . S
N2284 C2280 1.427 . S
N2284 C2281 1.384 . S
N2285 C2277 1.427 . S
N2285 C2283 1.384 . S
H2286 C2292 0.930 . S
H2287 C2296 0.930 . S
H2288 C2301 0.929 . S
H2289 C2299 0.929 . S
H2290 C2294 0.902 1_455 S
H2291 C2300 0.929 . S
C2292 H2286 0.930 . S
C2292 C2293 1.367 . S
C2292 C2300 1.378 . S
C2293 C2292 1.367 . S
C2293 C2301 1.433 1_655 S
C2294 H2290 0.902 1_655 S
C2294 C2296 1.378 . S
C2294 C2298 1.350 . S
C2295 C2298 1.463 . S
C2295 C2300 1.350 . S
C2295 N2303 1.427 1_655 S
C2296 H2287 0.930 . S
C2296 C2294 1.378 . S
C2296 C2297 1.367 . S
C2297 C2296 1.367 . S
C2297 C2299 1.433 . S
C2298 C2294 1.350 . S
C2298 C2295 1.463 . S
C2298 N2302 1.427 . S
C2299 H2289 0.929 . S
C2299 C2297 1.433 . S
C2299 N2302 1.384 . S
C2300 H2291 0.929 . S
C2300 C2292 1.378 . S
C2300 C2295 1.350 . S
C2301 H2288 0.929 . S
C2301 C2293 1.433 1_455 S
C2301 N2303 1.384 . S
N2302 C2298 1.427 . S
N2302 C2299 1.384 . S
N2303 C2295 1.427 1_455 S
N2303 C2301 1.384 . S
H2304 C2310 0.930 . S
H2305 C2314 0.930 . S
H2306 C2319 0.929 . S
H2307 C2317 0.929 . S
H2308 C2312 0.929 . S
H2309 C2318 0.929 . S
C2310 H2304 0.930 . S
C2310 C2311 1.367 . S
C2310 C2318 1.378 . S
C2311 C2310 1.367 . S
C2311 C2319 1.433 . S
C2312 H2308 0.929 . S
C2312 C2314 1.378 . S
C2312 C2316 1.350 . S
C2313 C2316 1.463 . S
C2313 C2318 1.350 . S
C2313 N2321 1.427 . S
C2314 H2305 0.930 . S
C2314 C2312 1.378 . S
C2314 C2315 1.367 . S
C2315 C2314 1.367 . S
C2315 C2317 1.433 . S
C2316 C2312 1.350 . S
C2316 C2313 1.463 . S
C2316 N2320 1.427 . S
C2317 H2307 0.929 . S
C2317 C2315 1.433 . S
C2317 N2320 1.384 . S
C2318 H2309 0.929 . S
C2318 C2310 1.378 . S
C2318 C2313 1.350 . S
C2319 H2306 0.929 . S
C2319 C2311 1.433 . S
C2319 N2321 1.384 . S
N2320 C2316 1.427 . S
N2320 C2317 1.384 . S
N2321 C2313 1.427 . S
N2321 C2319 1.384 . S
H2322 C2328 0.930 . S
H2323 C2332 0.930 . S
H2324 C2337 0.929 . S
H2325 C2335 0.929 . S
H2326 C2330 0.929 . S
H2327 C2336 0.929 . S
C2328 H2322 0.930 . S
C2328 C2329 1.367 . S
C2328 C2336 1.378 . S
C2329 C2328 1.367 . S
C2329 C2337 1.433 . S
C2330 H2326 0.929 . S
C2330 C2332 1.378 . S
C2330 C2334 1.350 . S
C2331 C2334 1.463 . S
C2331 C2336 1.350 . S
C2331 N2339 1.427 . S
C2332 H2323 0.930 . S
C2332 C2330 1.378 . S
C2332 C2333 1.367 . S
C2333 C2332 1.367 . S
C2333 C2335 1.433 . S
C2334 C2330 1.350 . S
C2334 C2331 1.463 . S
C2334 N2338 1.427 . S
C2335 H2325 0.929 . S
C2335 C2333 1.433 . S
C2335 N2338 1.384 . S
C2336 H2327 0.929 . S
C2336 C2328 1.378 . S
C2336 C2331 1.350 . S
C2337 H2324 0.929 . S
C2337 C2329 1.433 . S
C2337 N2339 1.384 . S
N2338 C2334 1.427 . S
N2338 C2335 1.384 . S
N2339 C2331 1.427 . S
N2339 C2337 1.384 . S
H2340 C2346 0.930 . S
H2341 C2350 0.924 1_565 S
H2342 C2355 0.929 . S
H2343 C2353 0.929 . S
H2344 C2348 0.929 1_565 S
H2345 C2354 0.929 . S
C2346 H2340 0.930 . S
C2346 C2347 1.367 . S
C2346 C2354 1.378 . S
C2347 C2346 1.367 . S
C2347 C2355 1.433 1_545 S
C2348 H2344 0.929 1_545 S
C2348 C2350 1.378 . S
C2348 C2352 1.350 . S
C2349 C2352 1.463 . S
C2349 C2354 1.350 . S
C2349 N2357 1.427 1_545 S
C2350 H2341 0.924 1_545 S
C2350 C2348 1.378 . S
C2350 C2351 1.367 . S
C2351 C2350 1.367 . S
C2351 C2353 1.433 . S
C2352 C2348 1.350 . S
C2352 C2349 1.463 . S
C2352 N2356 1.427 . S
C2353 H2343 0.929 . S
C2353 C2351 1.433 . S
C2353 N2356 1.384 . S
C2354 H2345 0.929 . S
C2354 C2346 1.378 . S
C2354 C2349 1.350 . S
C2355 H2342 0.929 . S
C2355 C2347 1.433 1_565 S
C2355 N2357 1.384 . S
N2356 C2352 1.427 . S
N2356 C2353 1.384 . S
N2357 C2349 1.427 1_565 S
N2357 C2355 1.384 . S
H2358 C2364 0.930 . S
H2359 C2368 0.930 . S
H2360 C2373 0.929 . S
H2361 C2371 0.929 . S
H2362 C2366 0.929 . S
H2363 C2372 0.929 . S
C2364 H2358 0.930 . S
C2364 C2365 1.367 1_545 S
C2364 C2372 1.378 . S
C2365 C2364 1.367 1_565 S
C2365 C2373 1.433 . S
C2366 H2362 0.929 . S
C2366 C2368 1.378 . S
C2366 C2370 1.350 . S
C2367 C2370 1.463 . S
C2367 C2372 1.350 1_565 S
C2367 N2375 1.427 . S
C2368 H2359 0.930 . S
C2368 C2366 1.378 . S
C2368 C2369 1.367 . S
C2369 C2368 1.367 . S
C2369 C2371 1.433 1_565 S
C2370 C2366 1.350 . S
C2370 C2367 1.463 . S
C2370 N2374 1.427 1_565 S
C2371 H2361 0.929 . S
C2371 C2369 1.433 1_545 S
C2371 N2374 1.384 . S
C2372 H2363 0.929 . S
C2372 C2364 1.378 . S
C2372 C2367 1.350 1_545 S
C2373 H2360 0.929 . S
C2373 C2365 1.433 . S
C2373 N2375 1.384 . S
N2374 C2370 1.427 1_545 S
N2374 C2371 1.384 . S
N2375 C2367 1.427 . S
N2375 C2373 1.384 . S
H2376 C2382 0.930 . S
H2377 C2386 0.930 . S
H2378 C2391 0.929 . S
H2379 C2389 0.929 . S
H2380 C2384 0.929 . S
H2381 C2390 0.929 . S
C2382 H2376 0.930 . S
C2382 C2383 1.367 . S
C2382 C2390 1.378 . S
C2383 C2382 1.367 . S
C2383 C2391 1.433 . S
C2384 H2380 0.929 . S
C2384 C2386 1.378 . S
C2384 C2388 1.350 . S
C2385 C2388 1.463 . S
C2385 C2390 1.350 . S
C2385 N2393 1.427 . S
C2386 H2377 0.930 . S
C2386 C2384 1.378 . S
C2386 C2387 1.367 . S
C2387 C2386 1.367 . S
C2387 C2389 1.433 . S
C2388 C2384 1.350 . S
C2388 C2385 1.463 . S
C2388 N2392 1.427 . S
C2389 H2379 0.929 . S
C2389 C2387 1.433 . S
C2389 N2392 1.384 . S
C2390 H2381 0.929 . S
C2390 C2382 1.378 . S
C2390 C2385 1.350 . S
C2391 H2378 0.929 . S
C2391 C2383 1.433 . S
C2391 N2393 1.384 . S
N2392 C2388 1.427 . S
N2392 C2389 1.384 . S
N2393 C2385 1.427 . S
N2393 C2391 1.384 . S
H2394 C2400 0.930 . S
H2395 C2404 0.930 . S
H2396 C2409 0.929 . S
H2397 C2407 0.929 . S
H2398 C2402 0.929 . S
H2399 C2408 0.929 . S
C2400 H2394 0.930 . S
C2400 C2401 1.367 . S
C2400 C2408 1.378 . S
C2401 C2400 1.367 . S
C2401 C2409 1.433 1_556 S
C2402 H2398 0.929 . S
C2402 C2404 1.378 . S
C2402 C2406 1.350 1_554 S
C2403 C2406 1.463 . S
C2403 C2408 1.350 . S
C2403 N2411 1.427 1_556 S
C2404 H2395 0.930 . S
C2404 C2402 1.378 . S
C2404 C2405 1.367 1_554 S
C2405 C2404 1.367 1_556 S
C2405 C2407 1.433 . S
C2406 C2402 1.350 1_556 S
C2406 C2403 1.463 . S
C2406 N2410 1.427 . S
C2407 H2397 0.929 . S
C2407 C2405 1.433 . S
C2407 N2410 1.384 . S
C2408 H2399 0.929 . S
C2408 C2400 1.378 . S
C2408 C2403 1.350 . S
C2409 H2396 0.929 . S
C2409 C2401 1.433 1_554 S
C2409 N2411 1.384 . S
N2410 C2406 1.427 . S
N2410 C2407 1.384 . S
N2411 C2403 1.427 1_554 S
N2411 C2409 1.384 . S
H2412 C2418 0.930 . S
H2413 C2422 0.930 . S
H2414 C2427 0.929 . S
H2415 C2425 0.929 . S
H2416 C2420 0.929 . S
H2417 C2426 0.929 . S
C2418 H2412 0.930 . S
C2418 C2419 1.367 . S
C2418 C2426 1.378 . S
C2419 C2418 1.367 . S
C2419 C2427 1.433 . S
C2420 H2416 0.929 . S
C2420 C2422 1.378 . S
C2420 C2424 1.350 . S
C2421 C2424 1.463 . S
C2421 C2426 1.350 . S
C2421 N2429 1.427 . S
C2422 H2413 0.930 . S
C2422 C2420 1.378 . S
C2422 C2423 1.367 . S
C2423 C2422 1.367 . S
C2423 C2425 1.433 . S
C2424 C2420 1.350 . S
C2424 C2421 1.463 . S
C2424 N2428 1.427 . S
C2425 H2415 0.929 . S
C2425 C2423 1.433 . S
C2425 N2428 1.384 . S
C2426 H2417 0.929 . S
C2426 C2418 1.378 . S
C2426 C2421 1.350 . S
C2427 H2414 0.929 . S
C2427 C2419 1.433 . S
C2427 N2429 1.384 . S
N2428 C2424 1.427 . S
N2428 C2425 1.384 . S
N2429 C2421 1.427 . S
N2429 C2427 1.384 . S
H2430 C2436 0.930 . S
H2431 C2440 0.930 . S
H2432 C2445 0.929 . S
H2433 C2443 0.929 . S
H2434 C2438 0.929 . S
H2435 C2444 0.929 . S
C2436 H2430 0.930 . S
C2436 C2437 1.367 . S
C2436 C2444 1.378 . S
C2437 C2436 1.367 . S
C2437 C2445 1.433 1_554 S
C2438 H2434 0.929 . S
C2438 C2440 1.378 . S
C2438 C2442 1.350 1_556 S
C2439 C2442 1.463 . S
C2439 C2444 1.350 . S
C2439 N2447 1.427 1_554 S
C2440 H2431 0.930 . S
C2440 C2438 1.378 . S
C2440 C2441 1.367 1_556 S
C2441 C2440 1.367 1_554 S
C2441 C2443 1.433 . S
C2442 C2438 1.350 1_554 S
C2442 C2439 1.463 . S
C2442 N2446 1.427 . S
C2443 H2433 0.929 . S
C2443 C2441 1.433 . S
C2443 N2446 1.384 . S
C2444 H2435 0.929 . S
C2444 C2436 1.378 . S
C2444 C2439 1.350 . S
C2445 H2432 0.929 . S
C2445 C2437 1.433 1_556 S
C2445 N2447 1.384 . S
N2446 C2442 1.427 . S
N2446 C2443 1.384 . S
N2447 C2439 1.427 1_556 S
N2447 C2445 1.384 . S
H2448 C2454 0.930 . S
H2449 C2458 0.930 . S
H2450 C2463 0.929 . S
H2451 C2461 0.929 . S
H2452 C2456 0.929 . S
H2453 C2462 0.929 . S
C2454 H2448 0.930 . S
C2454 C2455 1.367 . S
C2454 C2462 1.378 . S
C2455 C2454 1.367 . S
C2455 C2463 1.433 . S
C2456 H2452 0.929 . S
C2456 C2458 1.378 . S
C2456 C2460 1.350 . S
C2457 C2460 1.463 . S
C2457 C2462 1.350 . S
C2457 N2465 1.427 . S
C2458 H2449 0.930 . S
C2458 C2456 1.378 . S
C2458 C2459 1.367 . S
C2459 C2458 1.367 . S
C2459 C2461 1.433 . S
C2460 C2456 1.350 . S
C2460 C2457 1.463 . S
C2460 N2464 1.427 . S
C2461 H2451 0.929 . S
C2461 C2459 1.433 . S
C2461 N2464 1.384 . S
C2462 H2453 0.929 . S
C2462 C2454 1.378 . S
C2462 C2457 1.350 . S
C2463 H2450 0.929 . S
C2463 C2455 1.433 . S
C2463 N2465 1.384 . S
N2464 C2460 1.427 . S
N2464 C2461 1.384 . S
N2465 C2457 1.427 . S
N2465 C2463 1.384 . S
H2466 C2472 0.930 . S
H2467 C2476 0.930 . S
H2468 C2481 0.929 . S
H2469 C2479 0.929 . S
H2470 C2474 0.929 . S
H2471 C2480 0.929 . S
C2472 H2466 0.930 . S
C2472 C2473 1.367 . S
C2472 C2480 1.378 . S
C2473 C2472 1.367 . S
C2473 C2481 1.433 . S
C2474 H2470 0.929 . S
C2474 C2476 1.378 . S
C2474 C2478 1.350 . S
C2475 C2478 1.463 . S
C2475 C2480 1.350 . S
C2475 N2483 1.427 . S
C2476 H2467 0.930 . S
C2476 C2474 1.378 . S
C2476 C2477 1.367 . S
C2477 C2476 1.367 . S
C2477 C2479 1.433 . S
C2478 C2474 1.350 . S
C2478 C2475 1.463 . S
C2478 N2482 1.427 . S
C2479 H2469 0.929 . S
C2479 C2477 1.433 . S
C2479 N2482 1.384 . S
C2480 H2471 0.929 . S
C2480 C2472 1.378 . S
C2480 C2475 1.350 . S
C2481 H2468 0.929 . S
C2481 C2473 1.433 . S
C2481 N2483 1.384 . S
N2482 C2478 1.427 . S
N2482 C2479 1.384 . S
N2483 C2475 1.427 . S
N2483 C2481 1.384 . S
H2484 C2490 0.930 . S
H2485 C2494 0.930 . S
H2486 C2499 0.929 . S
H2487 C2497 0.929 . S
H2488 C2492 0.929 . S
H2489 C2498 0.929 . S
C2490 H2484 0.930 . S
C2490 C2491 1.367 . S
C2490 C2498 1.378 . S
C2491 C2490 1.367 . S
C2491 C2499 1.433 . S
C2492 H2488 0.929 . S
C2492 C2494 1.378 . S
C2492 C2496 1.350 . S
C2493 C2496 1.463 . S
C2493 C2498 1.350 . S
C2493 N2501 1.427 . S
C2494 H2485 0.930 . S
C2494 C2492 1.378 . S
C2494 C2495 1.367 . S
C2495 C2494 1.367 . S
C2495 C2497 1.433 . S
C2496 C2492 1.350 . S
C2496 C2493 1.463 . S
C2496 N2500 1.427 . S
C2497 H2487 0.929 . S
C2497 C2495 1.433 . S
C2497 N2500 1.384 . S
C2498 H2489 0.929 . S
C2498 C2490 1.378 . S
C2498 C2493 1.350 . S
C2499 H2486 0.929 . S
C2499 C2491 1.433 . S
C2499 N2501 1.384 . S
N2500 C2496 1.427 . S
N2500 C2497 1.384 . S
N2501 C2493 1.427 . S
N2501 C2499 1.384 . S
H2502 C2508 0.930 . S
H2503 C2512 0.930 1_655 S
H2504 C2517 0.929 . S
H2505 C2515 0.929 . S
H2506 C2510 0.929 1_655 S
H2507 C2516 0.929 . S
C2508 H2502 0.930 . S
C2508 C2509 1.367 . S
C2508 C2516 1.378 . S
C2509 C2508 1.367 . S
C2509 C2517 1.433 1_455 S
C2510 H2506 0.929 1_455 S
C2510 C2512 1.378 . S
C2510 C2514 1.350 . S
C2511 C2514 1.463 . S
C2511 C2516 1.350 . S
C2511 N2519 1.427 1_455 S
C2512 H2503 0.930 1_455 S
C2512 C2510 1.378 . S
C2512 C2513 1.367 . S
C2513 C2512 1.367 . S
C2513 C2515 1.433 . S
C2514 C2510 1.350 . S
C2514 C2511 1.463 . S
C2514 N2518 1.427 . S
C2515 H2505 0.929 . S
C2515 C2513 1.433 . S
C2515 N2518 1.384 . S
C2516 H2507 0.929 . S
C2516 C2508 1.378 . S
C2516 C2511 1.350 . S
C2517 H2504 0.929 . S
C2517 C2509 1.433 1_655 S
C2517 N2519 1.384 . S
N2518 C2514 1.427 . S
N2518 C2515 1.384 . S
N2519 C2511 1.427 1_655 S
N2519 C2517 1.384 . S
C1235 C1217 1.751 . S
C1231 C15 1.825 . S
C1253 C1184 1.522 . S
C1249 C55 1.465 . S
C1271 C1206 0.824 . S
C1267 C95 0.837 1_545 S
C1289 C1195 1.487 . S
C1285 C135 1.497 . S
C1307 C1118 1.755 . S
C1303 C175 1.826 . S
C1321 C215 1.508 . S
C1325 C1129 1.493 . S
C1343 C1096 1.520 . S
C1339 C255 1.473 . S
C1357 C295 0.838 1_554 S
C1361 C1107 0.826 . S
C1379 C1173 1.755 . S
C1375 C335 1.823 . S
C1393 C375 1.507 . S
C1397 C1151 1.496 . S
C1411 C415 1.473 . S
C1415 C1140 1.521 . S
C1433 C1162 0.797 . S
C1429 C455 0.831 . S
C1451 C1085 1.755 . S
C1447 C495 1.820 . S
C1465 C535 1.455 . S
C1469 C1052 1.524 . S
C1487 C1074 0.819 . S
C1483 C575 0.837 . S
C1501 C615 1.502 . S
C1505 C1063 1.466 . S
C1523 C986 1.756 . S
C1519 C655 1.821 . S
C1541 C997 1.466 . S
C1537 C695 1.500 . S
C1555 C735 1.454 . S
C1559 C964 1.524 . S
C1573 C775 0.830 1_554 S
C1577 C975 0.786 . S
C1591 C815 1.814 . S
C1595 C1041 1.760 . S
C1609 C855 1.498 . S
C1613 C1019 1.479 . S
C1631 C1008 1.518 . S
C1627 C895 1.465 . S
C1645 C935 0.836 1_455 S
C1649 C1030 0.814 . S
C1667 C965 1.646 . S
C1663 C21 1.686 . S
C1685 C976 1.670 . S
C1681 C61 1.750 . S
C1699 C101 0.801 . S
C1703 C987 0.804 . S
C1717 C141 0.924 . S
C1721 C998 0.903 . S
C1739 C1009 1.642 . S
C1735 C181 1.687 . S
C1753 C221 0.924 . S
C1757 C1020 0.903 . S
C1775 C1031 1.671 . S
C1771 C261 1.750 . S
C1793 C1042 0.805 . S
C1789 C301 0.801 . S
C1811 C1053 1.643 . S
C1807 C341 1.684 . S
C1825 C381 0.918 . S
C1829 C1064 0.917 . S
C1843 C421 1.761 . S
C1847 C1075 1.673 . S
C1861 C461 0.794 . S
C1865 C1086 0.804 . S
C1879 C501 1.639 . S
C1883 C1097 1.634 . S
C1897 C541 1.619 . S
C1901 C1108 1.680 . S
C1915 C581 0.802 1_545 S
C1919 C1119 0.805 . S
C1933 C621 0.911 . S
C1937 C1130 0.903 . S
C1951 C661 1.639 . S
C1955 C1141 1.634 . S
C1973 C1152 0.909 . S
C1969 C701 0.905 . S
C1991 C1163 1.679 . S
C1987 C741 1.601 . S
C2009 C1174 0.802 . S
C2005 C781 0.804 . S
C2027 C1185 1.634 . S
C2023 C821 1.638 . S
C2041 C861 0.921 . S
C2045 C1196 0.911 . S
C2059 C901 1.621 . S
C2063 C1207 1.690 . S
C2077 C941 0.804 1_455 S
C2081 C1218 0.807 . S
C2095 C2 1.657 . S
C2099 C1058 1.642 . S
C2117 C1091 1.759 . S
C2113 C42 1.784 . S
C2131 C82 1.534 . S
C2135 C1069 1.489 . S
C2153 C1080 1.572 . S
C2149 C122 1.550 . S
C2167 C162 1.654 . S
C2171 C970 1.635 . S
C2185 C202 1.540 . S
C2189 C981 1.570 . S
C2203 C242 1.794 . S
C2207 C992 1.748 . S
C2221 C282 1.533 . S
C2225 C1003 1.488 . S
C2243 C1014 1.635 . S
C2239 C322 1.654 . S
C2261 C1036 1.567 . S
C2257 C362 1.548 . S
C2275 C402 1.791 . S
C2279 C1047 1.745 . S
C2293 C442 1.528 . S
C2297 C1025 1.480 . S
C2315 C1190 1.638 . S
C2311 C482 1.636 . S
C2333 C1223 1.743 . S
C2329 C522 1.702 . S
C2347 C562 1.556 1_545 S
C2351 C1201 1.471 . S
C2369 C1212 1.577 . S
C2365 C602 1.535 . S
C2383 C642 1.631 . S
C2387 C1102 1.644 . S
C2401 C682 1.543 . S
C2405 C1113 1.572 . S
C2419 C722 1.711 . S
C2423 C1124 1.743 . S
C2441 C1135 1.468 . S
C2437 C762 1.556 1_554 S
C2459 C1146 1.639 . S
C2455 C802 1.637 . S
C2477 C1168 1.575 . S
C2473 C842 1.540 . S
C2491 C882 1.697 . S
C2495 C1179 1.747 . S
C2513 C1157 1.471 . S
C2509 C922 1.556 1_455 S
