# Generated by pormake.
# Topology pyr, (3,6)-cn, num edge types: 1
# Building blocks:
#     Node 0, Type 0, BuildingBlock: KAKCAD_clean_linker_0, # of connection points: 3
#     Node 1, Type 0, BuildingBlock: KAKCAD_clean_linker_0, # of connection points: 3
#     Node 2, Type 0, BuildingBlock: KAKCAD_clean_linker_0, # of connection points: 3
#     Node 3, Type 0, BuildingBlock: KAKCAD_clean_linker_0, # of connection points: 3
#     Node 4, Type 0, BuildingBlock: KAKCAD_clean_linker_0, # of connection points: 3
#     Node 5, Type 0, BuildingBlock: KAKCAD_clean_linker_0, # of connection points: 3
#     Node 6, Type 0, BuildingBlock: KAKCAD_clean_linker_0, # of connection points: 3
#     Node 7, Type 0, BuildingBlock: KAKCAD_clean_linker_0, # of connection points: 3
#     Node 8, Type 1, BuildingBlock: PAMTUU_clean_sbu_0, # of connection points: 6
#     Node 9, Type 1, BuildingBlock: PAMTUU_clean_sbu_0, # of connection points: 6
#     Node 10, Type 1, BuildingBlock: PAMTUU_clean_sbu_0, # of connection points: 6
#     Node 11, Type 1, BuildingBlock: PAMTUU_clean_sbu_0, # of connection points: 6
#     Edge 12, Type (0, 1), BuildingBlock: CIFDUS_clean_linker_0, # of connection points: 2
#     Edge 13, Type (0, 1), BuildingBlock: CIFDUS_clean_linker_0, # of connection points: 2
#     Edge 14, Type (0, 1), BuildingBlock: CIFDUS_clean_linker_0, # of connection points: 2
#     Edge 15, Type (0, 1), BuildingBlock: CIFDUS_clean_linker_0, # of connection points: 2
#     Edge 16, Type (0, 1), BuildingBlock: CIFDUS_clean_linker_0, # of connection points: 2
#     Edge 17, Type (0, 1), BuildingBlock: CIFDUS_clean_linker_0, # of connection points: 2
#     Edge 18, Type (0, 1), BuildingBlock: CIFDUS_clean_linker_0, # of connection points: 2
#     Edge 19, Type (0, 1), BuildingBlock: CIFDUS_clean_linker_0, # of connection points: 2
#     Edge 20, Type (0, 1), BuildingBlock: CIFDUS_clean_linker_0, # of connection points: 2
#     Edge 21, Type (0, 1), BuildingBlock: CIFDUS_clean_linker_0, # of connection points: 2
#     Edge 22, Type (0, 1), BuildingBlock: CIFDUS_clean_linker_0, # of connection points: 2
#     Edge 23, Type (0, 1), BuildingBlock: CIFDUS_clean_linker_0, # of connection points: 2
#     Edge 24, Type (0, 1), BuildingBlock: CIFDUS_clean_linker_0, # of connection points: 2
#     Edge 25, Type (0, 1), BuildingBlock: CIFDUS_clean_linker_0, # of connection points: 2
#     Edge 26, Type (0, 1), BuildingBlock: CIFDUS_clean_linker_0, # of connection points: 2
#     Edge 27, Type (0, 1), BuildingBlock: CIFDUS_clean_linker_0, # of connection points: 2
#     Edge 28, Type (0, 1), BuildingBlock: CIFDUS_clean_linker_0, # of connection points: 2
#     Edge 29, Type (0, 1), BuildingBlock: CIFDUS_clean_linker_0, # of connection points: 2
#     Edge 30, Type (0, 1), BuildingBlock: CIFDUS_clean_linker_0, # of connection points: 2
#     Edge 31, Type (0, 1), BuildingBlock: CIFDUS_clean_linker_0, # of connection points: 2
#     Edge 32, Type (0, 1), BuildingBlock: CIFDUS_clean_linker_0, # of connection points: 2
#     Edge 33, Type (0, 1), BuildingBlock: CIFDUS_clean_linker_0, # of connection points: 2
#     Edge 34, Type (0, 1), BuildingBlock: CIFDUS_clean_linker_0, # of connection points: 2
#     Edge 35, Type (0, 1), BuildingBlock: CIFDUS_clean_linker_0, # of connection points: 2
# Relax obj value: 0.099
# Max RMSD: 0.130
# Mean RMSD: 0.053
data_MOF--net-pyr--node1-PAMTUU_clean_sbu_0--node2-KAKCAD_clean_linker_0--edge1-CIFDUS_clean_linker_0
_symmetry_space_group_name_H-M    P1
_symmetry_Int_Tables_number       1
_symmetry_cell_setting            triclinic
loop_
_symmetry_equiv_pos_as_xyz
'x, y, z'
_cell_length_a     42.215276
_cell_length_b     43.045756
_cell_length_c     41.133657
_cell_angle_alpha  90.397621
_cell_angle_beta   89.180495
_cell_angle_gamma 101.13884
loop_
_atom_site_label
_atom_site_type_symbol
_atom_site_fract_x
_atom_site_fract_y
_atom_site_fract_z
_atom_type_partial_charge
C0 C 0.27164 0.22376 0.32045 0.0
C1 C 0.29245 0.21372 0.34261 0.0
C2 C 0.28384 0.23984 0.29238 0.0
C3 C 0.31729 0.24688 0.28597 0.0
C4 C 0.33825 0.23765 0.30877 0.0
C5 C 0.32589 0.22092 0.33672 0.0
C6 C 0.32953 0.26134 0.25432 0.0
C7 C 0.31311 0.28236 0.23882 0.0
C8 C 0.31965 0.29073 0.20624 0.0
C9 C 0.34473 0.28014 0.1896 0.0
C10 C 0.36212 0.25974 0.20491 0.0
C11 C 0.35447 0.25061 0.2373 0.0
C12 C 0.38447 0.24375 0.18591 0.0
C13 C 0.37539 0.23073 0.15523 0.0
C14 C 0.41319 0.2383 0.19968 0.0
C15 C 0.43157 0.21892 0.18382 0.0
C16 C 0.42147 0.20454 0.15398 0.0
C17 C 0.29625 0.30528 0.18839 0.0
C18 C 0.26376 0.28991 0.18833 0.0
C19 C 0.30565 0.33392 0.17162 0.0
C20 C 0.28245 0.34756 0.15596 0.0
C21 C 0.24982 0.33226 0.15632 0.0
C22 C 0.24082 0.30318 0.17236 0.0
C23 C 0.39371 0.21136 0.13943 0.0
H24 H 0.2457 0.21786 0.32407 0.0
H25 H 0.26672 0.24546 0.27508 0.0
H26 H 0.36414 0.24288 0.30478 0.0
H27 H 0.34237 0.21334 0.35353 0.0
H28 H 0.29369 0.29086 0.2514 0.0
H29 H 0.36611 0.233 0.24824 0.0
H30 H 0.34925 0.28611 0.16417 0.0
H31 H 0.35321 0.23414 0.14412 0.0
H32 H 0.42085 0.24821 0.22322 0.0
H33 H 0.45284 0.21402 0.19562 0.0
H34 H 0.25608 0.26758 0.20084 0.0
H35 H 0.33066 0.346 0.1713 0.0
H36 H 0.38564 0.20097 0.1162 0.0
H37 H 0.2158 0.29109 0.17336 0.0
H38 H 0.28991 0.37001 0.14368 0.0
C39 C 0.21072 0.79394 0.86351 0.0
C40 C 0.21735 0.82709 0.8671 0.0
C41 C 0.19688 0.77991 0.83495 0.0
C42 C 0.18929 0.79876 0.80952 0.0
C43 C 0.19392 0.83169 0.81409 0.0
C44 C 0.20777 0.84567 0.84247 0.0
C45 C 0.1807 0.78508 0.77683 0.0
C46 C 0.15821 0.7966 0.75781 0.0
C47 C 0.15493 0.78903 0.72457 0.0
C48 C 0.17366 0.76848 0.71072 0.0
C49 C 0.19633 0.75675 0.72942 0.0
C50 C 0.19911 0.76461 0.7626 0.0
C51 C 0.22026 0.74025 0.71351 0.0
C52 C 0.21089 0.71612 0.6904 0.0
C53 C 0.2532 0.74969 0.72061 0.0
C54 C 0.27625 0.73541 0.70507 0.0
C55 C 0.26703 0.71135 0.68193 0.0
C56 C 0.13626 0.80699 0.70377 0.0
C57 C 0.10733 0.81513 0.71523 0.0
C58 C 0.14961 0.81985 0.67416 0.0
C59 C 0.13569 0.84193 0.65766 0.0
C60 C 0.10828 0.85196 0.67047 0.0
C61 C 0.09352 0.83745 0.6988 0.0
C62 C 0.23407 0.70165 0.67488 0.0
H63 H 0.2174 0.77892 0.8822 0.0
H64 H 0.19327 0.75443 0.83223 0.0
H65 H 0.18894 0.84701 0.79481 0.0
H66 H 0.21303 0.87127 0.84398 0.0
H67 H 0.14492 0.81338 0.76848 0.0
H68 H 0.2173 0.75646 0.77684 0.0
H69 H 0.1721 0.76323 0.68492 0.0
H70 H 0.18568 0.70841 0.68443 0.0
H71 H 0.26132 0.7686 0.73784 0.0
H72 H 0.30138 0.74314 0.71136 0.0
H73 H 0.09617 0.8053 0.73773 0.0
H74 H 0.17199 0.81446 0.66466 0.0
H75 H 0.22628 0.68324 0.65704 0.0
H76 H 0.07236 0.8446 0.70929 0.0
H77 H 0.14724 0.85216 0.63548 0.0
C78 C 0.77026 0.45726 0.90526 0.0
C79 C 0.79443 0.44135 0.91626 0.0
C80 C 0.74257 0.44095 0.88924 0.0
C81 C 0.73774 0.40802 0.88381 0.0
C82 C 0.7619 0.39213 0.89464 0.0
C83 C 0.78967 0.40843 0.91044 0.0
C84 C 0.70737 0.39005 0.86797 0.0
C85 C 0.69335 0.40241 0.84105 0.0
C86 C 0.66487 0.38558 0.82624 0.0
C87 C 0.65018 0.35568 0.83951 0.0
C88 C 0.66403 0.34237 0.86613 0.0
C89 C 0.69234 0.36013 0.87998 0.0
C90 C 0.65009 0.30977 0.87972 0.0
C91 C 0.61671 0.29925 0.88546 0.0
C92 C 0.67079 0.28934 0.88891 0.0
C93 C 0.65892 0.26021 0.90423 0.0
C94 C 0.62573 0.25007 0.91127 0.0
C95 C 0.65146 0.39907 0.79635 0.0
C96 C 0.67227 0.41348 0.77126 0.0
C97 C 0.61808 0.39818 0.7925 0.0
C98 C 0.60613 0.41151 0.76487 0.0
C99 C 0.62702 0.42561 0.73965 0.0
C100 C 0.66032 0.42622 0.74347 0.0
C101 C 0.60475 0.26996 0.90103 0.0
H102 H 0.77232 0.4824 0.90953 0.0
H103 H 0.72451 0.45412 0.88179 0.0
H104 H 0.75957 0.36691 0.89057 0.0
H105 H 0.80767 0.39511 0.91763 0.0
H106 H 0.70481 0.42524 0.83143 0.0
H107 H 0.70248 0.35077 0.90099 0.0
H108 H 0.62874 0.34222 0.82833 0.0
H109 H 0.59987 0.31416 0.87896 0.0
H110 H 0.69654 0.29595 0.88435 0.0
H111 H 0.67606 0.24558 0.91054 0.0
H112 H 0.69805 0.41457 0.77284 0.0
H113 H 0.60113 0.38755 0.81115 0.0
H114 H 0.57907 0.26343 0.90593 0.0
H115 H 0.67742 0.43693 0.72498 0.0
H116 H 0.58035 0.41024 0.76299 0.0
C117 C 0.88303 0.63951 0.25212 0.0
C118 C 0.91538 0.63553 0.25197 0.0
C119 C 0.87001 0.654 0.27868 0.0
C120 C 0.88914 0.66567 0.30559 0.0
C121 C 0.92173 0.66246 0.30499 0.0
C122 C 0.93452 0.64734 0.27881 0.0
C123 C 0.87499 0.68015 0.33459 0.0
C124 C 0.84539 0.66482 0.34869 0.0
C125 C 0.83231 0.67717 0.37667 0.0
C126 C 0.84915 0.7058 0.39007 0.0
C127 C 0.8784 0.72234 0.37627 0.0
C128 C 0.89122 0.70888 0.34866 0.0
C129 C 0.89519 0.75346 0.39104 0.0
C130 C 0.87732 0.77419 0.40624 0.0
C131 C 0.92912 0.76259 0.39092 0.0
C132 C 0.94449 0.79097 0.40588 0.0
C133 C 0.9266 0.81122 0.42192 0.0
C134 C 0.8011 0.66034 0.39212 0.0
C135 C 0.77494 0.64575 0.37299 0.0
C136 C 0.79692 0.65917 0.42622 0.0
C137 C 0.76762 0.64403 0.44066 0.0
C138 C 0.74145 0.62944 0.42152 0.0
C139 C 0.74565 0.63063 0.38741 0.0
C140 C 0.89266 0.80226 0.42158 0.0
H141 H 0.86748 0.6306 0.23205 0.0
H142 H 0.84488 0.65614 0.27812 0.0
H143 H 0.93719 0.67093 0.32525 0.0
H144 H 0.95956 0.64488 0.27956 0.0
H145 H 0.83309 0.64256 0.33846 0.0
H146 H 0.91347 0.72111 0.33744 0.0
H147 H 0.83926 0.71525 0.41154 0.0
H148 H 0.85119 0.76885 0.4064 0.0
H149 H 0.94404 0.74754 0.37981 0.0
H150 H 0.97058 0.79693 0.40474 0.0
H151 H 0.77684 0.6465 0.34671 0.0
H152 H 0.81652 0.66958 0.44195 0.0
H153 H 0.87763 0.81656 0.43377 0.0
H154 H 0.72606 0.62023 0.37166 0.0
H155 H 0.76576 0.64327 0.46693 0.0
C156 C 0.72683 0.77679 0.72416 0.0
C157 C 0.73091 0.80932 0.71738 0.0
C158 C 0.7115 0.76451 0.75304 0.0
C159 C 0.70018 0.7846 0.77571 0.0
C160 C 0.7031 0.81682 0.76805 0.0
C161 C 0.71812 0.82895 0.73932 0.0
C162 C 0.68891 0.77352 0.80884 0.0
C163 C 0.70551 0.7539 0.82629 0.0
C164 C 0.70022 0.74939 0.8599 0.0
C165 C 0.67804 0.76481 0.8761 0.0
C166 C 0.66108 0.78432 0.85889 0.0
C167 C 0.6655 0.78715 0.8251 0.0
C168 C 0.64269 0.80554 0.87639 0.0
C169 C 0.62243 0.79489 0.90306 0.0
C170 C 0.64689 0.83752 0.86725 0.0
C171 C 0.63139 0.85841 0.88437 0.0
C172 C 0.61136 0.84796 0.91119 0.0
C173 C 0.72127 0.73214 0.87835 0.0
C174 C 0.72787 0.70332 0.86653 0.0
C175 C 0.73736 0.7459 0.90614 0.0
C176 C 0.76065 0.73186 0.92089 0.0
C177 C 0.76817 0.70371 0.90828 0.0
C178 C 0.75099 0.68917 0.88143 0.0
C179 C 0.60686 0.81592 0.9203 0.0
H180 H 0.73632 0.76106 0.70762 0.0
H181 H 0.7094 0.73953 0.75807 0.0
H182 H 0.69561 0.83332 0.78516 0.0
H183 H 0.72154 0.85424 0.73541 0.0
H184 H 0.72456 0.74426 0.81437 0.0
H185 H 0.65215 0.80188 0.81173 0.0
H186 H 0.67527 0.76292 0.90229 0.0
H187 H 0.61868 0.77039 0.91061 0.0
H188 H 0.66305 0.84677 0.84741 0.0
H189 H 0.636 0.88306 0.8772 0.0
H190 H 0.71573 0.69218 0.84521 0.0
H191 H 0.73304 0.76828 0.91559 0.0
H192 H 0.59138 0.80714 0.94078 0.0
H193 H 0.75643 0.66758 0.87103 0.0
H194 H 0.77331 0.74341 0.94175 0.0
C195 C 0.81733 0.2054 0.24297 0.0
C196 C 0.80326 0.22369 0.22135 0.0
C197 C 0.83103 0.21856 0.27176 0.0
C198 C 0.8314 0.25052 0.27952 0.0
C199 C 0.81903 0.26933 0.25686 0.0
C200 C 0.80485 0.25597 0.22818 0.0
C201 C 0.84133 0.26281 0.31254 0.0
C202 C 0.86549 0.25135 0.32924 0.0
C203 C 0.87037 0.25736 0.36261 0.0
C204 C 0.85223 0.27705 0.37881 0.0
C205 C 0.82905 0.28997 0.36215 0.0
C206 C 0.82371 0.28269 0.32912 0.0
C207 C 0.80791 0.30843 0.37969 0.0
C208 C 0.79208 0.29691 0.40869 0.0
C209 C 0.80153 0.33645 0.36626 0.0
C210 C 0.77903 0.35213 0.38099 0.0
C211 C 0.76211 0.33993 0.40928 0.0
C212 C 0.89163 0.24021 0.38112 0.0
C213 C 0.89164 0.20814 0.3742 0.0
C214 C 0.91037 0.25482 0.40702 0.0
C215 C 0.92789 0.23749 0.42611 0.0
C216 C 0.92719 0.20526 0.41954 0.0
C217 C 0.90929 0.19095 0.39308 0.0
C218 C 0.76933 0.31243 0.42327 0.0
H219 H 0.81597 0.18032 0.23864 0.0
H220 H 0.83957 0.20303 0.28874 0.0
H221 H 0.81939 0.29415 0.26173 0.0
H222 H 0.79434 0.27062 0.21176 0.0
H223 H 0.87979 0.23665 0.31649 0.0
H224 H 0.80418 0.2908 0.31704 0.0
H225 H 0.85521 0.28141 0.40467 0.0
H226 H 0.79622 0.27512 0.41933 0.0
H227 H 0.81365 0.34597 0.34407 0.0
H228 H 0.77459 0.37362 0.36993 0.0
H229 H 0.87693 0.19584 0.35498 0.0
H230 H 0.9112 0.27955 0.41277 0.0
H231 H 0.75651 0.30211 0.44479 0.0
H232 H 0.90776 0.16602 0.38779 0.0
H233 H 0.94171 0.24918 0.44623 0.0
C234 C 0.24509 0.63101 0.19877 0.0
C235 C 0.24117 0.63066 0.16465 0.0
C236 C 0.2745 0.64524 0.21323 0.0
C237 C 0.30119 0.65991 0.19423 0.0
C238 C 0.29732 0.65951 0.16014 0.0
C239 C 0.26796 0.64521 0.14567 0.0
C240 C 0.33252 0.6764 0.20963 0.0
C241 C 0.34529 0.66406 0.23745 0.0
C242 C 0.37478 0.67945 0.25173 0.0
C243 C 0.39111 0.70822 0.23721 0.0
C244 C 0.37879 0.72142 0.20967 0.0
C245 C 0.34956 0.70509 0.1964 0.0
C246 C 0.39589 0.75239 0.19453 0.0
C247 C 0.4107 0.77828 0.21373 0.0
C248 C 0.39643 0.75683 0.16052 0.0
C249 C 0.41072 0.786 0.14632 0.0
C250 C 0.4251 0.81213 0.16549 0.0
C251 C 0.38835 0.66572 0.28171 0.0
C252 C 0.38191 0.63286 0.28856 0.0
C253 C 0.40801 0.68539 0.30415 0.0
C254 C 0.42051 0.67299 0.33185 0.0
C255 C 0.4136 0.64025 0.33911 0.0
C256 C 0.39411 0.62046 0.31661 0.0
C257 C 0.42493 0.80756 0.19953 0.0
H258 H 0.22518 0.6207 0.21459 0.0
H259 H 0.276 0.64534 0.23948 0.0
H260 H 0.31723 0.67 0.14438 0.0
H261 H 0.26654 0.64514 0.11941 0.0
H262 H 0.33205 0.64236 0.24798 0.0
H263 H 0.33936 0.7154 0.17604 0.0
H264 H 0.41402 0.72016 0.24676 0.0
H265 H 0.41058 0.77625 0.23996 0.0
H266 H 0.38594 0.73755 0.1446 0.0
H267 H 0.41079 0.78783 0.12009 0.0
H268 H 0.36754 0.61632 0.27213 0.0
H269 H 0.4136 0.71076 0.3008 0.0
H270 H 0.4352 0.82686 0.21549 0.0
H271 H 0.38769 0.59523 0.32076 0.0
H272 H 0.43591 0.6895 0.3475 0.0
C273 C 0.15093 0.26093 0.67213 0.0
C274 C 0.11753 0.25031 0.66808 0.0
C275 C 0.16308 0.28992 0.68739 0.0
C276 C 0.14239 0.30972 0.69905 0.0
C277 C 0.10883 0.2986 0.69625 0.0
C278 C 0.09657 0.26928 0.68103 0.0
C279 C 0.15643 0.34217 0.7125 0.0
C280 C 0.18445 0.36 0.6978 0.0
C281 C 0.20026 0.38938 0.71046 0.0
C282 C 0.18645 0.40157 0.73817 0.0
C283 C 0.15751 0.38513 0.75287 0.0
C284 C 0.1428 0.35533 0.73973 0.0
C285 C 0.14265 0.39938 0.78169 0.0
C286 C 0.16189 0.41537 0.80675 0.0
C287 C 0.10907 0.39802 0.78394 0.0
C288 C 0.09535 0.4128 0.80976 0.0
C289 C 0.11461 0.42924 0.83455 0.0
C290 C 0.23102 0.40692 0.69435 0.0
C291 C 0.25225 0.39027 0.678 0.0
C292 C 0.23931 0.44027 0.6943 0.0
C293 C 0.26743 0.45623 0.67824 0.0
C294 C 0.28812 0.43951 0.66106 0.0
C295 C 0.27984 0.40616 0.66135 0.0
C296 C 0.1481 0.42986 0.83282 0.0
H297 H 0.1679 0.24679 0.66332 0.0
H298 H 0.18899 0.29694 0.68983 0.0
H299 H 0.09203 0.31302 0.70481 0.0
H300 H 0.07071 0.26201 0.67839 0.0
H301 H 0.19366 0.35097 0.67572 0.0
H302 H 0.12125 0.34198 0.75128 0.0
H303 H 0.19809 0.42408 0.74831 0.0
H304 H 0.18778 0.41673 0.80627 0.0
H305 H 0.09335 0.38618 0.76521 0.0
H306 H 0.06945 0.41138 0.81025 0.0
H307 H 0.24771 0.36465 0.67791 0.0
H308 H 0.22384 0.45431 0.70619 0.0
H309 H 0.16386 0.44232 0.8512 0.0
H310 H 0.29431 0.39193 0.64825 0.0
H311 H 0.27283 0.48181 0.67949 0.0
Tb312 Tb 0.04691 0.03112 0.535 0.0
Tb313 Tb 0.97696 1.0265 0.57063 0.0
C314 C 0.98786 0.97823 0.51542 0.0
C315 C 0.12535 0.06065 0.49344 0.0
C316 C 0.17097 0.10971 0.46508 0.0
C317 C 0.18109 0.08532 0.48232 0.0
C318 C 0.15843 0.06096 0.49631 0.0
C319 C 0.11508 0.08517 0.4768 0.0
C320 C 0.13768 0.10936 0.46256 0.0
C321 C 0.10193 0.03517 0.50874 0.0
O322 O 0.01907 0.05576 0.50333 0.0
O323 O 0.98358 0.0689 0.54136 0.0
O324 O 1.01086 0.06114 0.59887 0.0
O325 O 0.05014 0.07677 0.56002 0.0
O326 O 0.92749 0.02689 0.56688 0.0
O327 O 0.94891 1.02152 0.61341 0.0
O328 O 0.99522 0.9853 0.5865 0.0
O329 O 0.04835 1.00799 0.5814 0.0
O330 O 0.01899 0.98439 0.52148 0.0
O331 O 0.96889 0.99671 0.52703 0.0
C332 C 0.99795 0.07284 0.5128 0.0
O333 O 0.09726 0.03851 0.53981 0.0
O334 O 0.07486 1.0258 0.4935 0.0
C335 C 0.03594 0.08172 0.5878 0.0
C336 C 0.89596 0.99234 0.60449 0.0
C337 C 0.84548 0.94049 0.61789 0.0
C338 C 0.87413 0.94524 0.63584 0.0
C339 C 0.8991 0.97081 0.62921 0.0
C340 C 0.86743 0.98759 0.58641 0.0
C341 C 0.84248 0.96186 0.59295 0.0
C342 C 0.92208 1.01975 0.59748 0.0
C343 C 0.02556 0.98568 0.593 0.0
H344 H 0.20651 0.0851 0.48513 0.0
H345 H 0.16673 0.04238 0.50945 0.0
H346 H 0.0896 0.08552 0.47462 0.0
H347 H 0.12897 0.12743 0.44902 0.0
H348 H 0.87699 0.92969 0.65573 0.0
H349 H 0.92068 0.97382 0.64374 0.0
H350 H 0.86435 1.00387 0.56726 0.0
H351 H 0.82079 0.9588 0.57858 0.0
Tb352 Tb 0.5445 0.03301 0.05087 0.0
Tb353 Tb 0.48233 1.02217 1.0029 0.0
C354 C 0.5405 0.99075 0.98944 0.0
C355 C 0.61746 0.06898 0.0976 0.0
C356 C 0.66382 0.12024 0.12017 0.0
C357 C 0.66717 0.08886 0.12597 0.0
C358 C 0.64417 0.06349 0.11476 0.0
C359 C 0.61406 0.10016 0.09128 0.0
C360 C 0.63706 0.12566 0.1026 0.0
C361 C 0.59344 0.04188 0.08659 0.0
O362 O 0.55809 0.06957 1.01279 0.0
O363 O 0.5084 0.06957 0.99047 0.0
O364 O 0.46753 0.0384 0.04975 0.0
O365 O 0.51611 0.0682 0.06345 0.0
O366 O 0.45693 0.99722 0.9645 0.0
O367 O 0.44014 0.03654 0.98725 0.0
O368 O 0.47503 0.97865 1.03154 0.0
O369 O 0.51009 0.99358 0.07382 0.0
O370 O 0.54609 0.99213 1.0206 0.0
O371 O 0.52279 1.00911 0.97649 0.0
C372 C 0.53908 0.08255 0.99394 0.0
O373 O 0.564 0.04046 0.09751 0.0
O374 O 0.59428 0.03536 0.05559 0.0
C375 C 0.48457 0.0624 0.06542 0.0
C376 C 0.40085 0.99456 0.96712 0.0
C377 C 0.3398 0.95498 0.96143 0.0
C378 C 0.34722 0.98371 0.94432 0.0
C379 C 0.37754 1.00329 0.94711 0.0
C380 C 0.393 0.96686 0.98572 0.0
C381 C 0.36271 0.94713 0.98282 0.0
C382 C 0.4338 1.01332 0.96641 0.0
C383 C 0.48624 0.97326 0.06034 0.0
H384 H 0.68715 0.08388 0.13994 0.0
H385 H 0.64708 0.03953 0.11981 0.0
H386 H 0.59355 0.10472 0.07783 0.0
H387 H 0.63394 0.14955 0.09764 0.0
H388 H 0.33027 0.99022 0.92733 0.0
H389 H 0.38323 1.02463 0.93263 0.0
H390 H 0.41069 0.95993 1.00151 0.0
H391 H 0.35757 0.92527 0.99647 0.0
Tb392 Tb 0.51912 0.49997 0.52231 0.0
Tb393 Tb 0.51271 0.56394 0.56157 0.0
C394 C 0.48475 0.55191 0.48998 0.0
C395 C 0.55458 0.43904 0.47832 0.0
C396 C 0.60856 0.41603 0.45411 0.0
C397 C 0.60192 0.44479 0.4428 0.0
C398 C 0.5753 0.45628 0.45488 0.0
C399 C 0.5612 0.41029 0.4896 0.0
C400 C 0.58805 0.39896 0.47775 0.0
C401 C 0.52629 0.4508 0.4914 0.0
O402 O 0.55959 0.53533 0.50454 0.0
O403 O 0.56371 0.57108 0.54655 0.0
O404 O 0.527 0.5317 0.5975 0.0
O405 O 0.55139 0.50052 0.56416 0.0
O406 O 0.51751 0.61349 0.56356 0.0
O407 O 0.50198 0.5848 0.60556 0.0
O408 O 0.46387 0.53522 0.56262 0.0
O409 O 0.47786 0.48685 0.55547 0.0
O410 O 0.4853 0.52152 0.49347 0.0
O411 O 0.49771 0.57266 0.51202 0.0
C412 C 0.57562 0.56012 0.51998 0.0
O413 O 0.5237 0.45211 0.52292 0.0
O414 O 0.51957 0.47593 0.47783 0.0
C415 C 0.54551 0.51051 0.5936 0.0
C416 C 0.47873 0.62928 0.59828 0.0
C417 C 0.4259 0.65865 0.61203 0.0
C418 C 0.45658 0.67097 0.62476 0.0
C419 C 0.48274 0.65636 0.61795 0.0
C420 C 0.44838 0.61714 0.585 0.0
C421 C 0.42215 0.6317 0.59186 0.0
C422 C 0.50582 0.61295 0.59304 0.0
C423 C 0.45725 0.50425 0.56567 0.0
H424 H 0.61754 0.45856 0.42483 0.0
H425 H 0.57105 0.47867 0.44585 0.0
H426 H 0.54558 0.39658 0.50762 0.0
H427 H 0.59248 0.37659 0.48666 0.0
H428 H 0.46018 0.69142 0.64075 0.0
H429 H 0.50599 0.66587 0.62853 0.0
H430 H 0.44491 0.59619 0.56972 0.0
H431 H 0.39894 0.62184 0.58142 0.0
Tb432 Tb 0.01692 0.56769 1.01818 0.0
Tb433 Tb 0.01755 0.50655 0.06392 0.0
C434 C 0.04949 0.51149 0.99397 0.0
C435 C 0.98754 0.6317 0.97794 0.0
C436 C 0.93429 0.65975 0.96423 0.0
C437 C 0.96413 0.66996 0.94816 0.0
C438 C 0.99055 0.65594 0.95493 0.0
C439 C 0.95807 0.62193 0.99454 0.0
C440 C 0.93166 0.63581 0.98774 0.0
C441 C 0.0144 0.61542 0.98365 0.0
O442 O 0.96751 0.54069 1.01411 0.0
O443 O 0.97497 0.49263 1.03321 0.0
O444 O 0.98564 0.53179 0.09156 0.0
O445 O 0.99554 0.57942 0.06446 0.0
O446 O 0.0168 0.45764 0.06549 0.0
O447 O 0.02028 0.48552 0.10941 0.0
O448 O 0.05784 0.54218 0.08136 0.0
O449 O 0.06657 0.57459 1.03686 0.0
O450 O 0.03166 0.53204 0.98607 0.0
O451 O 0.05304 0.50485 1.02471 0.0
C452 C 0.95756 0.50997 1.01763 0.0
O453 O 0.02527 0.61719 1.0132 0.0
O454 O 1.01023 0.58661 0.97244 0.0
C455 C 0.98328 0.56176 0.08934 0.0
C456 C 0.05243 0.44711 0.10495 0.0
C457 C 0.10923 0.42506 0.11879 0.0
C458 C 0.0788 0.40529 0.12332 0.0
C459 C 0.05055 0.41629 0.11647 0.0
C460 C 0.08274 0.46685 0.10033 0.0
C461 C 0.1109 0.45599 0.10737 0.0
C462 C 0.02313 0.45852 0.0964 0.0
C463 C 0.07606 0.56517 0.06499 0.0
H464 H 0.96678 0.68814 0.92971 0.0
H465 H 1.01312 0.66361 0.94181 0.0
H466 H 0.95536 0.60323 1.01245 0.0
H467 H 0.90915 0.62774 1.0008 0.0
H468 H 0.07684 0.38142 0.13239 0.0
H469 H 0.02733 0.40074 0.11997 0.0
H470 H 0.08464 0.4906 0.09098 0.0
H471 H 0.134 0.47159 0.10329 0.0
H472 H 0.24794 0.22562 0.38639 0.0
H473 H 0.30502 0.15635 0.3595 0.0
H474 H 0.27393 0.11843 0.3976 0.0
H475 H 0.22618 0.10308 0.43288 0.0
H476 H 0.16942 0.17277 0.4602 0.0
H477 H 0.2045 0.21237 0.42716 0.0
C478 C 0.25386 0.20239 0.38939 0.0
C479 C 0.27844 0.19358 0.37014 0.0
C480 C 0.2356 0.18066 0.41085 0.0
C481 C 0.28626 0.16362 0.37428 0.0
C482 C 0.2683 0.14188 0.39579 0.0
C483 C 0.22189 0.1271 0.4323 0.0
C484 C 0.19481 0.13474 0.44856 0.0
C485 C 0.24227 0.14984 0.41342 0.0
C486 C 0.18956 0.16599 0.44723 0.0
C487 C 0.20973 0.18873 0.42853 0.0
H488 H 0.21181 0.8807 0.90089 0.0
H489 H 0.2704 0.80907 0.89258 0.0
H490 H 0.31137 0.84064 0.92648 0.0
H491 H 0.33478 0.8923 0.94972 0.0
H492 H 0.27843 0.96584 0.95454 0.0
H493 H 0.23261 0.93004 0.9304 0.0
C494 C 0.23337 0.87182 0.90683 0.0
C495 C 0.23814 0.84275 0.89372 0.0
C496 C 0.25756 0.89074 0.9252 0.0
C497 C 0.26586 0.83124 0.90238 0.0
C498 C 0.28958 0.84949 0.92149 0.0
C499 C 0.31216 0.90021 0.94643 0.0
C500 C 0.31009 0.93176 0.95357 0.0
C501 C 0.28629 0.87981 0.9318 0.0
C502 C 0.28072 0.94176 0.94879 0.0
C503 C 0.25456 0.92133 0.935 0.0
H504 H 0.58012 0.46256 0.73375 0.0
H505 H 0.6457 0.419 0.67601 0.0
H506 H 0.62704 0.44056 0.62655 0.0
H507 H 0.59179 0.47222 0.59869 0.0
H508 H 0.52785 0.51736 0.65713 0.0
H509 H 0.54593 0.49503 0.7062 0.0
C510 C 0.59027 0.45758 0.71037 0.0
C511 C 0.61452 0.43893 0.70916 0.0
C512 C 0.57965 0.47059 0.68162 0.0
C513 C 0.62736 0.43336 0.67825 0.0
C514 C 0.61654 0.44569 0.64969 0.0
C515 C 0.58181 0.47728 0.62212 0.0
C516 C 0.55827 0.49677 0.62359 0.0
C517 C 0.59271 0.46447 0.65091 0.0
C518 C 0.54599 0.50278 0.65463 0.0
C519 C 0.55631 0.48985 0.68301 0.0
H520 H 0.91225 0.64389 0.18566 0.0
H521 H 0.94913 0.58763 0.25693 0.0
H522 H 0.97142 0.55868 0.21362 0.0
H523 H 0.98163 0.54969 0.15505 0.0
H524 H 0.94852 0.60881 0.08396 0.0
H525 H 0.92363 0.63579 0.1271 0.0
C526 C 0.92504 0.6252 0.19171 0.0
C527 C 0.92887 0.61805 0.22476 0.0
C528 C 0.93854 0.60897 0.16648 0.0
C529 C 0.94593 0.59392 0.23191 0.0
C530 C 0.95862 0.5772 0.20704 0.0
C531 C 0.9687 0.56827 0.14897 0.0
C532 C 0.96678 0.57687 0.11605 0.0
C533 C 0.95522 0.58452 0.17418 0.0
C534 C 0.95042 0.60153 0.1089 0.0
C535 C 0.93614 0.61705 0.13366 0.0
H536 H 0.39447 0.14748 0.12888 0.0
H537 H 0.4866 0.20832 0.14629 0.0
H538 H 0.51434 0.16875 0.12194 0.0
H539 H 0.51217 0.1177 0.09441 0.0
H540 H 0.41976 0.05739 0.07616 0.0
H541 H 0.39232 0.09611 0.10218 0.0
C542 C 0.42062 0.15222 0.12703 0.0
C543 C 0.43848 0.18087 0.13904 0.0
C544 C 0.43631 0.12948 0.113 0.0
C545 C 0.47236 0.18638 0.13726 0.0
C546 C 0.48819 0.16383 0.12329 0.0
C547 C 0.48603 0.11287 0.09631 0.0
C548 C 0.46805 0.08468 0.0833 0.0
C549 C 0.47038 0.13536 0.11098 0.0
C550 C 0.4342 0.07888 0.08593 0.0
C551 C 0.41847 0.10105 0.10074 0.0
H552 H 0.04613 0.85966 0.66063 0.0
H553 H 0.14566 0.90658 0.6486 0.0
H554 H 0.12866 0.95225 0.62507 0.0
H555 H 0.08613 0.97865 0.60716 0.0
H556 H 0.98621 0.93288 0.61857 0.0
H557 H 1.00281 0.88732 0.64382 0.0
C558 C 0.06404 0.87996 0.65301 0.0
C559 C 0.09714 0.87943 0.65596 0.0
C560 C 0.05409 0.90646 0.63963 0.0
C561 C 0.12006 0.90594 0.64588 0.0
C562 C 0.11038 0.93225 0.63269 0.0
C563 C 0.06785 0.95886 0.61533 0.0
C564 C 0.03496 0.95921 0.61091 0.0
C565 C 0.07752 0.9327 0.62933 0.0
C566 C 1.01172 0.93328 0.6217 0.0
C567 C 0.0212 0.90715 0.63603 0.0
H568 H 0.83024 0.42031 0.9647 0.0
H569 H 0.82738 0.50271 0.90635 0.0
H570 H 0.87545 0.53135 0.93324 0.0
H571 H 0.91997 0.5331 0.97246 0.0
H572 H 0.92402 0.44975 1.02872 0.0
H573 H 0.87467 0.42184 1.00336 0.0
C574 C 0.84013 0.44442 0.95745 0.0
C575 C 0.82445 0.45897 0.93323 0.0
C576 C 0.86845 0.46088 0.97276 0.0
C577 C 0.83799 0.49062 0.9251 0.0
C578 C 0.86588 0.50714 0.94039 0.0
C579 C 0.91 0.5089 0.97939 0.0
C580 C 0.92611 0.4938 1.00277 0.0
C581 C 0.88147 0.49255 0.96424 0.0
C582 C 0.91257 0.46224 1.01095 0.0
C583 C 0.88416 0.44611 0.99636 0.0
H584 H 0.70993 0.64581 0.47662 0.0
H585 H 0.70219 0.5744 0.40138 0.0
H586 H 0.65119 0.54707 0.42496 0.0
H587 H 0.60824 0.54316 0.46662 0.0
H588 H 0.6158 0.61384 0.54252 0.0
H589 H 0.66729 0.64113 0.51933 0.0
C590 C 0.69732 0.62412 0.46547 0.0
C591 C 0.7102 0.61256 0.43688 0.0
C592 C 0.66777 0.60818 0.47938 0.0
C593 C 0.69293 0.58447 0.42287 0.0
C594 C 0.66371 0.56858 0.43653 0.0
C595 C 0.62109 0.5645 0.47826 0.0
C596 C 0.60779 0.57628 0.50645 0.0
C597 C 0.65078 0.58023 0.4647 0.0
C598 C 0.62517 0.60402 0.52093 0.0
C599 C 0.65472 0.61975 0.5076 0.0
H600 H 0.24056 0.39223 0.16545 0.0
H601 H 0.20195 0.30486 0.11578 0.0
H602 H 0.15535 0.3264 0.09872 0.0
H603 H 0.12393 0.36872 0.10111 0.0
H604 H 0.16177 0.45566 0.15194 0.0
H605 H 0.21053 0.43584 0.16509 0.0
C606 C 0.22225 0.37822 0.15031 0.0
C607 C 0.22451 0.34705 0.14192 0.0
C608 C 0.19528 0.39054 0.14113 0.0
C609 C 0.20049 0.32889 0.12267 0.0
C610 C 0.17386 0.34114 0.113 0.0
C611 C 0.14284 0.38324 0.11514 0.0
C612 C 0.13918 0.41343 0.12581 0.0
C613 C 0.17065 0.37165 0.12275 0.0
C614 C 0.16411 0.43234 0.14339 0.0
C615 C 0.19194 0.421 0.15099 0.0
H616 H 0.56803 0.20656 0.90523 0.0
H617 H 0.65604 0.22384 0.96021 0.0
H618 H 0.63841 0.1743 0.98935 0.0
H619 H 0.59759 0.12526 1.00021 0.0
H620 H 0.50903 0.10926 0.94609 0.0
H621 H 0.52711 0.1584 0.9166 0.0
C622 C 0.58337 0.19979 0.92373 0.0
C623 C 0.61372 0.21943 0.92982 0.0
C624 C 0.57291 0.17099 0.94094 0.0
C625 C 0.63296 0.20941 0.954 0.0
C626 C 0.62275 0.18092 0.97106 0.0
C627 C 0.58226 0.13239 0.98189 0.0
C628 C 0.55181 0.11296 0.97569 0.0
C629 C 0.59278 0.16131 0.96475 0.0
C630 C 0.53249 0.12325 0.95181 0.0
C631 C 0.54284 0.1516 0.93472 0.0
H632 H 0.90524 0.86766 0.43153 0.0
H633 H 0.98562 0.82268 0.45271 0.0
H634 H 1.01218 0.87012 0.48125 0.0
H635 H 1.01233 0.92437 0.50222 0.0
H636 H 0.92997 0.9673 0.48446 0.0
H637 H 0.9046 0.92076 0.45355 0.0
C638 C 0.92837 0.8678 0.44264 0.0
C639 C 0.9431 0.84101 0.43941 0.0
C640 C 0.94337 0.89509 0.46002 0.0
C641 C 0.97358 0.8427 0.45377 0.0
C642 C 0.98883 0.86992 0.47054 0.0
C643 C 0.98892 0.92365 0.49142 0.0
C644 C 0.97329 0.94965 0.49573 0.0
C645 C 0.97397 0.8963 0.47397 0.0
C646 C 0.94272 0.94786 0.48176 0.0
C647 C 0.92811 0.92114 0.46396 0.0
H648 H 0.32458 0.74102 0.6567 0.0
H649 H 0.26552 0.64835 0.67064 0.0
H650 H 0.30881 0.62383 0.6482 0.0
H651 H 0.36492 0.62876 0.62857 0.0
H652 H 0.42394 0.72164 0.61534 0.0
H653 H 0.37933 0.74604 0.63411 0.0
C654 C 0.32119 0.71544 0.65483 0.0
C655 C 0.29202 0.69651 0.66562 0.0
C656 C 0.34627 0.70156 0.64235 0.0
C657 C 0.2877 0.66344 0.66238 0.0
C658 C 0.31252 0.64942 0.64976 0.0
C659 C 0.36785 0.65434 0.62927 0.0
C660 C 0.39783 0.67334 0.62081 0.0
C661 C 0.3421 0.66824 0.64017 0.0
C662 C 0.40131 0.70647 0.62223 0.0
C663 C 0.37577 0.72044 0.63282 0.0
H664 H 0.72066 0.85618 0.67721 0.0
H665 H 0.78885 0.79611 0.69714 0.0
H666 H 0.82931 0.82928 0.66296 0.0
H667 H 0.84802 0.8801 0.63549 0.0
H668 H 0.78131 0.94304 0.62105 0.0
H669 H 0.73767 0.90403 0.64466 0.0
C670 C 0.74424 0.8501 0.67367 0.0
C671 C 0.75189 0.82407 0.69019 0.0
C672 C 0.76788 0.87013 0.65533 0.0
C673 C 0.78224 0.81596 0.68469 0.0
C674 C 0.80557 0.83518 0.66547 0.0
C675 C 0.82388 0.88519 0.63731 0.0
C676 C 0.81812 0.91469 0.62702 0.0
C677 C 0.79911 0.86312 0.652 0.0
C678 C 0.78649 0.92054 0.62868 0.0
C679 C 0.76152 0.89832 0.64243 0.0
H680 H 0.74262 0.22923 0.20539 0.0
H681 H 0.81996 0.18184 0.17719 0.0
H682 H 0.78402 0.14773 0.13995 0.0
H683 H 0.72917 0.12729 0.12073 0.0
H684 H 0.65116 0.17284 0.15134 0.0
H685 H 0.68897 0.21236 0.18157 0.0
C686 C 0.75182 0.21204 0.19039 0.0
C687 C 0.78379 0.20787 0.19413 0.0
C688 C 0.73082 0.19202 0.1697 0.0
C689 C 0.79532 0.18524 0.17489 0.0
C690 C 0.77479 0.16571 0.15369 0.0
C691 C 0.72051 0.14603 0.13383 0.0
C692 C 0.68737 0.14687 0.13417 0.0
C693 C 0.74222 0.16816 0.1518 0.0
C694 C 0.67657 0.17169 0.15061 0.0
C695 C 0.69814 0.19416 0.16811 0.0
H696 H 0.42773 0.58027 0.35178 0.0
H697 H 0.4276 0.67057 0.39834 0.0
H698 H 0.44952 0.65212 0.44718 0.0
H699 H 0.46934 0.61056 0.47798 0.0
H700 H 0.46642 0.51913 0.43336 0.0
H701 H 0.44478 0.53759 0.38375 0.0
C702 C 0.43207 0.59603 0.37256 0.0
C703 C 0.4262 0.62741 0.37012 0.0
C704 C 0.44423 0.58492 0.40162 0.0
C705 C 0.43254 0.64683 0.39807 0.0
C706 C 0.4449 0.63611 0.4266 0.0
C707 C 0.46392 0.59451 0.4575 0.0
C708 C 0.46981 0.56326 0.45995 0.0
C709 C 0.45106 0.60527 0.42875 0.0
C710 C 0.46224 0.54316 0.43276 0.0
C711 C 0.44986 0.55381 0.4041 0.0
H712 H 0.12781 0.43305 0.90048 0.0
H713 H 0.06803 0.46516 0.82872 0.0
H714 H 0.04351 0.49352 0.87071 0.0
H715 H 0.0384 0.5094 0.92811 0.0
H716 H 0.09679 0.47619 1.00046 0.0
H717 H 0.12232 0.44866 0.95829 0.0
C718 C 0.10955 0.44637 0.89394 0.0
C719 C 0.09987 0.44662 0.86112 0.0
C720 C 0.09516 0.46267 0.91852 0.0
C721 C 0.07582 0.46393 0.85357 0.0
C722 C 0.06183 0.48042 0.87767 0.0
C723 C 0.05683 0.4963 0.93474 0.0
C724 C 0.06561 0.49522 0.96772 0.0
C725 C 0.0712 0.47997 0.91027 0.0
C726 C 0.08939 0.47767 0.9755 0.0
C727 C 0.10408 0.46182 0.95128 0.0
H728 H 0.58308 0.89512 0.88838 0.0
H729 H 0.60735 0.85283 0.97722 0.0
H730 H 0.58744 0.89329 1.00901 0.0
H731 H 0.5652 0.94154 1.01155 0.0
H732 H 0.54103 0.98452 0.92306 0.0
H733 H 0.55949 0.94311 0.89103 0.0
C734 C 0.58406 0.89481 0.9147 0.0
C735 C 0.59676 0.87102 0.9304 0.0
C736 C 0.57297 0.9184 0.93282 0.0
C737 C 0.59735 0.87061 0.96454 0.0
C738 C 0.58626 0.89392 0.98273 0.0
C739 C 0.56408 0.94203 0.98523 0.0
C740 C 0.55205 0.96627 0.96968 0.0
C741 C 0.57439 0.91809 0.9671 0.0
C742 C 0.55034 0.9662 0.9356 0.0
C743 C 0.56082 0.94251 0.9173 0.0
H744 H 0.96351 0.16164 0.40271 0.0
H745 H 0.92543 0.20488 0.48573 0.0
H746 H 0.94552 0.16866 0.52202 0.0
H747 H 0.97024 0.12238 0.52981 0.0
H748 H 1.00843 0.0787 0.44712 0.0
H749 H 0.99185 0.1174 0.41099 0.0
C750 C 0.95979 0.16319 0.42877 0.0
C751 C 0.94287 0.18579 0.44151 0.0
C752 C 0.97112 0.14207 0.44948 0.0
C753 C 0.93863 0.1879 0.47534 0.0
C754 C 0.94986 0.16702 0.49608 0.0
C755 C 0.97501 0.12133 0.50388 0.0
C756 C 0.99011 0.09743 0.49109 0.0
C757 C 0.96554 0.14364 0.48335 0.0
C758 C 0.99669 0.09678 0.45754 0.0
C759 C 0.98717 0.11886 0.43688 0.0
H760 H 0.21175 0.64736 0.10891 0.0
H761 H 0.19881 0.57709 0.18486 0.0
H762 H 0.14775 0.5514 0.16136 0.0
H763 H 0.10603 0.54834 0.11942 0.0
H764 H 0.11908 0.61736 0.04242 0.0
H765 H 0.1705 0.64335 0.06581 0.0
C766 C 0.19804 0.62627 0.12029 0.0
C767 C 0.20964 0.61469 0.14916 0.0
C768 C 0.16837 0.61111 0.10633 0.0
C769 C 0.19075 0.58735 0.16327 0.0
C770 C 0.16141 0.57233 0.14962 0.0
C771 C 0.12002 0.56906 0.1076 0.0
C772 C 0.10819 0.58072 0.07898 0.0
C773 C 0.14983 0.584 0.12123 0.0
C774 C 0.12719 0.60761 0.06431 0.0
C775 C 0.15674 0.62261 0.07778 0.0
H776 H 0.34514 0.41896 0.64735 0.0
H777 H 0.29903 0.499 0.63251 0.0
H778 H 0.34673 0.52627 0.60317 0.0
H779 H 0.40187 0.52743 0.58033 0.0
H780 H 0.44485 0.44494 0.59129 0.0
H781 H 0.39784 0.41866 0.62222 0.0
C782 C 0.34488 0.44209 0.63731 0.0
C783 C 0.31781 0.4565 0.64271 0.0
C784 C 0.37209 0.4574 0.61923 0.0
C785 C 0.31927 0.4871 0.62982 0.0
C786 C 0.34662 0.50277 0.61253 0.0
C787 C 0.40089 0.50365 0.58935 0.0
C788 C 0.42715 0.48833 0.58323 0.0
C789 C 0.37323 0.48817 0.60696 0.0
C790 C 0.42516 0.45742 0.59521 0.0
C791 C 0.39821 0.44231 0.61314 0.0
H792 H 0.82785 0.73614 0.92323 0.0
H793 H 0.76965 0.64202 0.92229 0.0
H794 H 0.81579 0.62024 0.94041 0.0
H795 H 0.87314 0.62782 0.95435 0.0
H796 H 0.93143 0.72193 0.95484 0.0
H797 H 0.88471 0.74392 0.93901 0.0
C798 C 0.82513 0.71093 0.9275 0.0
C799 C 0.79538 0.69071 0.92153 0.0
C800 C 0.8518 0.69859 0.93757 0.0
C801 C 0.79238 0.65801 0.92654 0.0
C802 C 0.81871 0.64558 0.93693 0.0
C803 C 0.8755 0.65319 0.95141 0.0
C804 C 0.9057 0.67323 0.95575 0.0
C805 C 0.84861 0.66562 0.9422 0.0
C806 C 0.90853 0.70599 0.9513 0.0
C807 C 0.88181 0.71858 0.9424 0.0
H808 H 0.40649 0.84046 0.11044 0.0
H809 H 0.4784 0.85595 0.18539 0.0
H810 H 0.50278 0.90664 0.16099 0.0
H811 H 0.50476 0.94703 0.11733 0.0
H812 H 0.43344 0.92971 0.04183 0.0
H813 H 0.40865 0.87993 0.06709 0.0
C814 C 0.42771 0.85458 0.12143 0.0
C815 C 0.44022 0.84371 0.1501 0.0
C816 C 0.44206 0.88389 0.10697 0.0
C817 C 0.46752 0.86332 0.16382 0.0
C818 C 0.48179 0.89248 0.14964 0.0
C819 C 0.48374 0.93248 0.10641 0.0
C820 C 0.47123 0.94277 0.07742 0.0
C821 C 0.46936 0.90314 0.12112 0.0
C822 C 0.44393 0.92302 0.06393 0.0
C823 C 0.42957 0.89424 0.07844 0.0
H824 H 0.06513 0.20244 0.68162 0.0
H825 H 0.14231 0.23027 0.61163 0.0
H826 H 0.12459 0.18133 0.58122 0.0
H827 H 0.08734 0.13008 0.57409 0.0
H828 H 1.01026 0.10171 0.64411 0.0
H829 H 0.02765 0.15089 0.67438 0.0
C830 C 0.07796 0.19792 0.65961 0.0
C831 C 0.10528 0.22026 0.64927 0.0
C832 C 0.06768 0.16932 0.64206 0.0
C833 C 0.12158 0.21356 0.62068 0.0
C834 C 0.11135 0.18549 0.60308 0.0
C835 C 0.07431 0.13453 0.596 0.0
C836 C 0.04743 0.11181 0.6066 0.0
C837 C 0.08452 0.16306 0.61355 0.0
C838 C 0.03104 0.11841 0.63516 0.0
C839 C 0.04097 0.14672 0.65259 0.0
H840 H 0.71762 0.36486 0.3762 0.0
H841 H 0.74718 0.34813 0.47356 0.0
H842 H 0.70209 0.36977 0.49598 0.0
H843 H 0.65388 0.39309 0.48788 0.0
H844 H 0.62576 0.41134 0.39053 0.0
H845 H 0.67118 0.39012 0.36816 0.0
C846 C 0.71462 0.36643 0.40235 0.0
C847 C 0.73583 0.3548 0.42311 0.0
C848 C 0.68889 0.3792 0.41509 0.0
C849 C 0.73102 0.35647 0.45695 0.0
C850 C 0.70531 0.36899 0.46982 0.0
C851 C 0.65771 0.39229 0.46178 0.0
C852 C 0.63651 0.40364 0.44086 0.0
C853 C 0.68397 0.38022 0.44911 0.0
C854 C 0.64192 0.40292 0.4071 0.0
C855 C 0.66779 0.3907 0.39432 0.0
loop_
_geom_bond_atom_site_label_1
_geom_bond_atom_site_label_2
_geom_bond_distance
_geom_bond_site_symmetry_2
_ccdc_geom_bond_type
C0 C1 1.386 . S
C0 C2 1.397 . S
C0 H24 0.931 . S
C1 C0 1.386 . S
C1 C5 1.397 . S
C2 C0 1.397 . S
C2 C3 1.384 . S
C2 H25 0.930 . S
C3 C2 1.384 . S
C3 C4 1.377 . S
C3 C6 1.481 . S
C4 C3 1.377 . S
C4 C5 1.389 . S
C4 H26 0.929 . S
C5 C1 1.397 . S
C5 C4 1.389 . S
C5 H27 0.931 . S
C6 C3 1.481 . S
C6 C7 1.387 . S
C6 C11 1.390 . S
C7 C6 1.387 . S
C7 C8 1.401 . S
C7 H28 0.930 . S
C8 C7 1.401 . S
C8 C9 1.376 . S
C8 C17 1.511 . S
C9 C8 1.376 . S
C9 C10 1.392 . S
C9 H30 0.931 . S
C10 C9 1.392 . S
C10 C11 1.361 . S
C10 C12 1.500 . S
C11 C6 1.390 . S
C11 C10 1.361 . S
C11 H29 0.931 . S
C12 C10 1.500 . S
C12 C13 1.371 . S
C12 C14 1.365 . S
C13 C12 1.371 . S
C13 C23 1.386 . S
C13 H31 0.931 . S
C14 C12 1.365 . S
C14 C15 1.409 . S
C14 H32 0.929 . S
C15 C14 1.409 . S
C15 C16 1.380 . S
C15 H33 0.930 . S
C16 C15 1.380 . S
C16 C23 1.357 . S
C17 C8 1.511 . S
C17 C18 1.341 . S
C17 C19 1.371 . S
C18 C17 1.341 . S
C18 C22 1.394 . S
C18 H34 0.930 . S
C19 C17 1.371 . S
C19 C20 1.392 . S
C19 H35 0.931 . S
C20 C19 1.392 . S
C20 C21 1.331 . S
C20 H38 0.932 . S
C21 C20 1.331 . S
C21 C22 1.336 . S
C22 C18 1.394 . S
C22 C21 1.336 . S
C22 H37 0.929 . S
C23 C13 1.386 . S
C23 C16 1.357 . S
C23 H36 0.928 . S
H24 C0 0.931 . S
H25 C2 0.930 . S
H26 C4 0.929 . S
H27 C5 0.931 . S
H28 C7 0.930 . S
H29 C11 0.931 . S
H30 C9 0.931 . S
H31 C13 0.931 . S
H32 C14 0.929 . S
H33 C15 0.930 . S
H34 C18 0.930 . S
H35 C19 0.931 . S
H36 C23 0.928 . S
H37 C22 0.929 . S
H38 C20 0.932 . S
C39 C40 1.386 . S
C39 C41 1.397 . S
C39 H63 0.931 . S
C40 C39 1.386 . S
C40 C44 1.397 . S
C41 C39 1.397 . S
C41 C42 1.384 . S
C41 H64 0.930 . S
C42 C41 1.384 . S
C42 C43 1.377 . S
C42 C45 1.481 . S
C43 C42 1.377 . S
C43 C44 1.389 . S
C43 H65 0.929 . S
C44 C40 1.397 . S
C44 C43 1.389 . S
C44 H66 0.931 . S
C45 C42 1.481 . S
C45 C46 1.387 . S
C45 C50 1.390 . S
C46 C45 1.387 . S
C46 C47 1.401 . S
C46 H67 0.930 . S
C47 C46 1.401 . S
C47 C48 1.376 . S
C47 C56 1.511 . S
C48 C47 1.376 . S
C48 C49 1.392 . S
C48 H69 0.931 . S
C49 C48 1.392 . S
C49 C50 1.361 . S
C49 C51 1.500 . S
C50 C45 1.390 . S
C50 C49 1.361 . S
C50 H68 0.931 . S
C51 C49 1.500 . S
C51 C52 1.371 . S
C51 C53 1.365 . S
C52 C51 1.371 . S
C52 C62 1.386 . S
C52 H70 0.931 . S
C53 C51 1.365 . S
C53 C54 1.409 . S
C53 H71 0.929 . S
C54 C53 1.409 . S
C54 C55 1.380 . S
C54 H72 0.930 . S
C55 C54 1.380 . S
C55 C62 1.357 . S
C56 C47 1.511 . S
C56 C57 1.341 . S
C56 C58 1.371 . S
C57 C56 1.341 . S
C57 C61 1.394 . S
C57 H73 0.930 . S
C58 C56 1.371 . S
C58 C59 1.392 . S
C58 H74 0.931 . S
C59 C58 1.392 . S
C59 C60 1.331 . S
C59 H77 0.932 . S
C60 C59 1.331 . S
C60 C61 1.336 . S
C61 C57 1.394 . S
C61 C60 1.336 . S
C61 H76 0.929 . S
C62 C52 1.386 . S
C62 C55 1.357 . S
C62 H75 0.928 . S
H63 C39 0.931 . S
H64 C41 0.930 . S
H65 C43 0.929 . S
H66 C44 0.931 . S
H67 C46 0.930 . S
H68 C50 0.931 . S
H69 C48 0.931 . S
H70 C52 0.931 . S
H71 C53 0.929 . S
H72 C54 0.930 . S
H73 C57 0.930 . S
H74 C58 0.931 . S
H75 C62 0.928 . S
H76 C61 0.929 . S
H77 C59 0.932 . S
C78 C79 1.386 . S
C78 C80 1.397 . S
C78 H102 0.931 . S
C79 C78 1.386 . S
C79 C83 1.397 . S
C80 C78 1.397 . S
C80 C81 1.384 . S
C80 H103 0.930 . S
C81 C80 1.384 . S
C81 C82 1.377 . S
C81 C84 1.481 . S
C82 C81 1.377 . S
C82 C83 1.389 . S
C82 H104 0.929 . S
C83 C79 1.397 . S
C83 C82 1.389 . S
C83 H105 0.931 . S
C84 C81 1.481 . S
C84 C85 1.387 . S
C84 C89 1.390 . S
C85 C84 1.387 . S
C85 C86 1.401 . S
C85 H106 0.930 . S
C86 C85 1.401 . S
C86 C87 1.376 . S
C86 C95 1.511 . S
C87 C86 1.376 . S
C87 C88 1.392 . S
C87 H108 0.931 . S
C88 C87 1.392 . S
C88 C89 1.361 . S
C88 C90 1.500 . S
C89 C84 1.390 . S
C89 C88 1.361 . S
C89 H107 0.931 . S
C90 C88 1.500 . S
C90 C91 1.371 . S
C90 C92 1.365 . S
C91 C90 1.371 . S
C91 C101 1.386 . S
C91 H109 0.931 . S
C92 C90 1.365 . S
C92 C93 1.409 . S
C92 H110 0.929 . S
C93 C92 1.409 . S
C93 C94 1.380 . S
C93 H111 0.930 . S
C94 C93 1.380 . S
C94 C101 1.357 . S
C95 C86 1.511 . S
C95 C96 1.341 . S
C95 C97 1.371 . S
C96 C95 1.341 . S
C96 C100 1.394 . S
C96 H112 0.930 . S
C97 C95 1.371 . S
C97 C98 1.392 . S
C97 H113 0.931 . S
C98 C97 1.392 . S
C98 C99 1.331 . S
C98 H116 0.932 . S
C99 C98 1.331 . S
C99 C100 1.336 . S
C100 C96 1.394 . S
C100 C99 1.336 . S
C100 H115 0.929 . S
C101 C91 1.386 . S
C101 C94 1.357 . S
C101 H114 0.928 . S
H102 C78 0.931 . S
H103 C80 0.930 . S
H104 C82 0.929 . S
H105 C83 0.931 . S
H106 C85 0.930 . S
H107 C89 0.931 . S
H108 C87 0.931 . S
H109 C91 0.931 . S
H110 C92 0.929 . S
H111 C93 0.930 . S
H112 C96 0.930 . S
H113 C97 0.931 . S
H114 C101 0.928 . S
H115 C100 0.929 . S
H116 C98 0.932 . S
C117 C118 1.386 . S
C117 C119 1.397 . S
C117 H141 0.931 . S
C118 C117 1.386 . S
C118 C122 1.397 . S
C119 C117 1.397 . S
C119 C120 1.384 . S
C119 H142 0.930 . S
C120 C119 1.384 . S
C120 C121 1.377 . S
C120 C123 1.481 . S
C121 C120 1.377 . S
C121 C122 1.389 . S
C121 H143 0.929 . S
C122 C118 1.397 . S
C122 C121 1.389 . S
C122 H144 0.931 . S
C123 C120 1.481 . S
C123 C124 1.387 . S
C123 C128 1.390 . S
C124 C123 1.387 . S
C124 C125 1.401 . S
C124 H145 0.930 . S
C125 C124 1.401 . S
C125 C126 1.376 . S
C125 C134 1.511 . S
C126 C125 1.376 . S
C126 C127 1.392 . S
C126 H147 0.931 . S
C127 C126 1.392 . S
C127 C128 1.361 . S
C127 C129 1.500 . S
C128 C123 1.390 . S
C128 C127 1.361 . S
C128 H146 0.931 . S
C129 C127 1.500 . S
C129 C130 1.371 . S
C129 C131 1.365 . S
C130 C129 1.371 . S
C130 C140 1.386 . S
C130 H148 0.931 . S
C131 C129 1.365 . S
C131 C132 1.409 . S
C131 H149 0.929 . S
C132 C131 1.409 . S
C132 C133 1.380 . S
C132 H150 0.930 . S
C133 C132 1.380 . S
C133 C140 1.357 . S
C134 C125 1.511 . S
C134 C135 1.341 . S
C134 C136 1.371 . S
C135 C134 1.341 . S
C135 C139 1.394 . S
C135 H151 0.930 . S
C136 C134 1.371 . S
C136 C137 1.392 . S
C136 H152 0.931 . S
C137 C136 1.392 . S
C137 C138 1.331 . S
C137 H155 0.932 . S
C138 C137 1.331 . S
C138 C139 1.336 . S
C139 C135 1.394 . S
C139 C138 1.336 . S
C139 H154 0.929 . S
C140 C130 1.386 . S
C140 C133 1.357 . S
C140 H153 0.928 . S
H141 C117 0.931 . S
H142 C119 0.930 . S
H143 C121 0.929 . S
H144 C122 0.931 . S
H145 C124 0.930 . S
H146 C128 0.931 . S
H147 C126 0.931 . S
H148 C130 0.931 . S
H149 C131 0.929 . S
H150 C132 0.930 . S
H151 C135 0.930 . S
H152 C136 0.931 . S
H153 C140 0.928 . S
H154 C139 0.929 . S
H155 C137 0.932 . S
C156 C157 1.386 . S
C156 C158 1.397 . S
C156 H180 0.931 . S
C157 C156 1.386 . S
C157 C161 1.397 . S
C158 C156 1.397 . S
C158 C159 1.384 . S
C158 H181 0.930 . S
C159 C158 1.384 . S
C159 C160 1.377 . S
C159 C162 1.481 . S
C160 C159 1.377 . S
C160 C161 1.389 . S
C160 H182 0.929 . S
C161 C157 1.397 . S
C161 C160 1.389 . S
C161 H183 0.931 . S
C162 C159 1.481 . S
C162 C163 1.387 . S
C162 C167 1.390 . S
C163 C162 1.387 . S
C163 C164 1.401 . S
C163 H184 0.930 . S
C164 C163 1.401 . S
C164 C165 1.376 . S
C164 C173 1.511 . S
C165 C164 1.376 . S
C165 C166 1.392 . S
C165 H186 0.931 . S
C166 C165 1.392 . S
C166 C167 1.361 . S
C166 C168 1.500 . S
C167 C162 1.390 . S
C167 C166 1.361 . S
C167 H185 0.931 . S
C168 C166 1.500 . S
C168 C169 1.371 . S
C168 C170 1.365 . S
C169 C168 1.371 . S
C169 C179 1.386 . S
C169 H187 0.931 . S
C170 C168 1.365 . S
C170 C171 1.409 . S
C170 H188 0.929 . S
C171 C170 1.409 . S
C171 C172 1.380 . S
C171 H189 0.930 . S
C172 C171 1.380 . S
C172 C179 1.357 . S
C173 C164 1.511 . S
C173 C174 1.341 . S
C173 C175 1.371 . S
C174 C173 1.341 . S
C174 C178 1.394 . S
C174 H190 0.930 . S
C175 C173 1.371 . S
C175 C176 1.392 . S
C175 H191 0.931 . S
C176 C175 1.392 . S
C176 C177 1.331 . S
C176 H194 0.932 . S
C177 C176 1.331 . S
C177 C178 1.336 . S
C178 C174 1.394 . S
C178 C177 1.336 . S
C178 H193 0.929 . S
C179 C169 1.386 . S
C179 C172 1.357 . S
C179 H192 0.928 . S
H180 C156 0.931 . S
H181 C158 0.930 . S
H182 C160 0.929 . S
H183 C161 0.931 . S
H184 C163 0.930 . S
H185 C167 0.931 . S
H186 C165 0.931 . S
H187 C169 0.931 . S
H188 C170 0.929 . S
H189 C171 0.930 . S
H190 C174 0.930 . S
H191 C175 0.931 . S
H192 C179 0.928 . S
H193 C178 0.929 . S
H194 C176 0.932 . S
C195 C196 1.386 . S
C195 C197 1.397 . S
C195 H219 0.931 . S
C196 C195 1.386 . S
C196 C200 1.397 . S
C197 C195 1.397 . S
C197 C198 1.384 . S
C197 H220 0.930 . S
C198 C197 1.384 . S
C198 C199 1.377 . S
C198 C201 1.481 . S
C199 C198 1.377 . S
C199 C200 1.389 . S
C199 H221 0.929 . S
C200 C196 1.397 . S
C200 C199 1.389 . S
C200 H222 0.931 . S
C201 C198 1.481 . S
C201 C202 1.387 . S
C201 C206 1.390 . S
C202 C201 1.387 . S
C202 C203 1.401 . S
C202 H223 0.930 . S
C203 C202 1.401 . S
C203 C204 1.376 . S
C203 C212 1.511 . S
C204 C203 1.376 . S
C204 C205 1.392 . S
C204 H225 0.931 . S
C205 C204 1.392 . S
C205 C206 1.361 . S
C205 C207 1.500 . S
C206 C201 1.390 . S
C206 C205 1.361 . S
C206 H224 0.931 . S
C207 C205 1.500 . S
C207 C208 1.371 . S
C207 C209 1.365 . S
C208 C207 1.371 . S
C208 C218 1.386 . S
C208 H226 0.931 . S
C209 C207 1.365 . S
C209 C210 1.409 . S
C209 H227 0.929 . S
C210 C209 1.409 . S
C210 C211 1.380 . S
C210 H228 0.930 . S
C211 C210 1.380 . S
C211 C218 1.357 . S
C212 C203 1.511 . S
C212 C213 1.341 . S
C212 C214 1.371 . S
C213 C212 1.341 . S
C213 C217 1.394 . S
C213 H229 0.930 . S
C214 C212 1.371 . S
C214 C215 1.392 . S
C214 H230 0.931 . S
C215 C214 1.392 . S
C215 C216 1.331 . S
C215 H233 0.932 . S
C216 C215 1.331 . S
C216 C217 1.336 . S
C217 C213 1.394 . S
C217 C216 1.336 . S
C217 H232 0.929 . S
C218 C208 1.386 . S
C218 C211 1.357 . S
C218 H231 0.928 . S
H219 C195 0.931 . S
H220 C197 0.930 . S
H221 C199 0.929 . S
H222 C200 0.931 . S
H223 C202 0.930 . S
H224 C206 0.931 . S
H225 C204 0.931 . S
H226 C208 0.931 . S
H227 C209 0.929 . S
H228 C210 0.930 . S
H229 C213 0.930 . S
H230 C214 0.931 . S
H231 C218 0.928 . S
H232 C217 0.929 . S
H233 C215 0.932 . S
C234 C235 1.386 . S
C234 C236 1.397 . S
C234 H258 0.931 . S
C235 C234 1.386 . S
C235 C239 1.397 . S
C236 C234 1.397 . S
C236 C237 1.384 . S
C236 H259 0.930 . S
C237 C236 1.384 . S
C237 C238 1.377 . S
C237 C240 1.481 . S
C238 C237 1.377 . S
C238 C239 1.389 . S
C238 H260 0.929 . S
C239 C235 1.397 . S
C239 C238 1.389 . S
C239 H261 0.931 . S
C240 C237 1.481 . S
C240 C241 1.387 . S
C240 C245 1.390 . S
C241 C240 1.387 . S
C241 C242 1.401 . S
C241 H262 0.930 . S
C242 C241 1.401 . S
C242 C243 1.376 . S
C242 C251 1.511 . S
C243 C242 1.376 . S
C243 C244 1.392 . S
C243 H264 0.931 . S
C244 C243 1.392 . S
C244 C245 1.361 . S
C244 C246 1.500 . S
C245 C240 1.390 . S
C245 C244 1.361 . S
C245 H263 0.931 . S
C246 C244 1.500 . S
C246 C247 1.371 . S
C246 C248 1.365 . S
C247 C246 1.371 . S
C247 C257 1.386 . S
C247 H265 0.931 . S
C248 C246 1.365 . S
C248 C249 1.409 . S
C248 H266 0.929 . S
C249 C248 1.409 . S
C249 C250 1.380 . S
C249 H267 0.930 . S
C250 C249 1.380 . S
C250 C257 1.357 . S
C251 C242 1.511 . S
C251 C252 1.341 . S
C251 C253 1.371 . S
C252 C251 1.341 . S
C252 C256 1.394 . S
C252 H268 0.930 . S
C253 C251 1.371 . S
C253 C254 1.392 . S
C253 H269 0.931 . S
C254 C253 1.392 . S
C254 C255 1.331 . S
C254 H272 0.932 . S
C255 C254 1.331 . S
C255 C256 1.336 . S
C256 C252 1.394 . S
C256 C255 1.336 . S
C256 H271 0.929 . S
C257 C247 1.386 . S
C257 C250 1.357 . S
C257 H270 0.928 . S
H258 C234 0.931 . S
H259 C236 0.930 . S
H260 C238 0.929 . S
H261 C239 0.931 . S
H262 C241 0.930 . S
H263 C245 0.931 . S
H264 C243 0.931 . S
H265 C247 0.931 . S
H266 C248 0.929 . S
H267 C249 0.930 . S
H268 C252 0.930 . S
H269 C253 0.931 . S
H270 C257 0.928 . S
H271 C256 0.929 . S
H272 C254 0.932 . S
C273 C274 1.386 . S
C273 C275 1.397 . S
C273 H297 0.931 . S
C274 C273 1.386 . S
C274 C278 1.397 . S
C275 C273 1.397 . S
C275 C276 1.384 . S
C275 H298 0.930 . S
C276 C275 1.384 . S
C276 C277 1.377 . S
C276 C279 1.481 . S
C277 C276 1.377 . S
C277 C278 1.389 . S
C277 H299 0.929 . S
C278 C274 1.397 . S
C278 C277 1.389 . S
C278 H300 0.931 . S
C279 C276 1.481 . S
C279 C280 1.387 . S
C279 C284 1.390 . S
C280 C279 1.387 . S
C280 C281 1.401 . S
C280 H301 0.930 . S
C281 C280 1.401 . S
C281 C282 1.376 . S
C281 C290 1.511 . S
C282 C281 1.376 . S
C282 C283 1.392 . S
C282 H303 0.931 . S
C283 C282 1.392 . S
C283 C284 1.361 . S
C283 C285 1.500 . S
C284 C279 1.390 . S
C284 C283 1.361 . S
C284 H302 0.931 . S
C285 C283 1.500 . S
C285 C286 1.371 . S
C285 C287 1.365 . S
C286 C285 1.371 . S
C286 C296 1.386 . S
C286 H304 0.931 . S
C287 C285 1.365 . S
C287 C288 1.409 . S
C287 H305 0.929 . S
C288 C287 1.409 . S
C288 C289 1.380 . S
C288 H306 0.930 . S
C289 C288 1.380 . S
C289 C296 1.357 . S
C290 C281 1.511 . S
C290 C291 1.341 . S
C290 C292 1.371 . S
C291 C290 1.341 . S
C291 C295 1.394 . S
C291 H307 0.930 . S
C292 C290 1.371 . S
C292 C293 1.392 . S
C292 H308 0.931 . S
C293 C292 1.392 . S
C293 C294 1.331 . S
C293 H311 0.932 . S
C294 C293 1.331 . S
C294 C295 1.336 . S
C295 C291 1.394 . S
C295 C294 1.336 . S
C295 H310 0.929 . S
C296 C286 1.386 . S
C296 C289 1.357 . S
C296 H309 0.928 . S
H297 C273 0.931 . S
H298 C275 0.930 . S
H299 C277 0.929 . S
H300 C278 0.931 . S
H301 C280 0.930 . S
H302 C284 0.931 . S
H303 C282 0.931 . S
H304 C286 0.931 . S
H305 C287 0.929 . S
H306 C288 0.930 . S
H307 C291 0.930 . S
H308 C292 0.931 . S
H309 C296 0.928 . S
H310 C295 0.929 . S
H311 C293 0.932 . S
Tb312 C321 2.764 . S
Tb312 O322 2.325 1_455 S
Tb312 O325 2.303 . S
Tb312 O329 2.322 1_545 S
Tb312 O330 2.349 1_545 S
Tb312 O333 2.415 . S
Tb312 O334 2.399 . S
Tb313 O323 2.322 . S
Tb313 O324 2.349 . S
Tb313 O326 2.415 1_545 S
Tb313 O327 2.399 1_545 S
Tb313 O328 2.325 1_645 S
Tb313 O331 2.303 1_545 S
Tb313 C342 2.764 1_545 S
C314 O330 1.261 1_655 S
C314 O331 1.257 . S
C315 C318 1.358 . S
C315 C319 1.332 . S
C315 C321 1.504 . S
C316 C317 1.373 . S
C316 C320 1.308 . S
C317 C316 1.373 . S
C317 C318 1.429 . S
C317 H344 0.932 . S
C318 C315 1.358 . S
C318 C317 1.429 . S
C318 H345 0.930 . S
C319 C315 1.332 . S
C319 C320 1.394 . S
C319 H346 0.932 . S
C320 C316 1.308 . S
C320 C319 1.394 . S
C320 H347 0.929 . S
C321 Tb312 2.764 . S
C321 C315 1.504 . S
C321 O333 1.239 . S
C321 O334 1.263 . S
O322 Tb312 2.325 1_655 S
O322 C332 1.236 . S
O323 Tb313 2.322 . S
O323 C332 1.257 . S
O324 Tb313 2.349 . S
O324 C335 1.261 1_655 S
O325 Tb312 2.303 . S
O325 C335 1.257 . S
O326 Tb313 2.415 1_565 S
O326 C342 1.239 . S
O327 Tb313 2.399 1_565 S
O327 C342 1.263 . S
O328 Tb313 2.325 1_465 S
O328 C343 1.236 . S
O329 Tb312 2.322 1_565 S
O329 C343 1.257 . S
O330 Tb312 2.349 1_565 S
O330 C314 1.261 1_455 S
O331 Tb313 2.303 1_565 S
O331 C314 1.257 . S
C332 O322 1.236 . S
C332 O323 1.257 . S
O333 Tb312 2.415 . S
O333 C321 1.239 . S
O334 Tb312 2.399 . S
O334 C321 1.263 . S
C335 O324 1.261 1_455 S
C335 O325 1.257 . S
C336 C339 1.358 . S
C336 C340 1.332 . S
C336 C342 1.504 . S
C337 C338 1.373 . S
C337 C341 1.308 . S
C338 C337 1.373 . S
C338 C339 1.429 . S
C338 H348 0.932 . S
C339 C336 1.358 . S
C339 C338 1.429 . S
C339 H349 0.930 . S
C340 C336 1.332 . S
C340 C341 1.394 . S
C340 H350 0.932 . S
C341 C337 1.308 . S
C341 C340 1.394 . S
C341 H351 0.929 . S
C342 Tb313 2.764 1_565 S
C342 O326 1.239 . S
C342 O327 1.263 . S
C342 C336 1.504 . S
C343 O328 1.236 . S
C343 O329 1.257 . S
H344 C317 0.932 . S
H345 C318 0.930 . S
H346 C319 0.932 . S
H347 C320 0.929 . S
H348 C338 0.932 . S
H349 C339 0.930 . S
H350 C340 0.932 . S
H351 C341 0.929 . S
Tb352 C361 2.764 . S
Tb352 O362 2.325 1_554 S
Tb352 O365 2.303 . S
Tb352 O369 2.322 1_545 S
Tb352 O370 2.349 1_544 S
Tb352 O373 2.415 . S
Tb352 O374 2.399 . S
Tb353 O363 2.321 . S
Tb353 O364 2.348 1_556 S
Tb353 O366 2.417 1_545 S
Tb353 O367 2.400 1_545 S
Tb353 O368 2.326 1_546 S
Tb353 O371 2.304 1_545 S
Tb353 C382 2.765 1_545 S
C354 O370 1.261 . S
C354 O371 1.257 . S
C355 C358 1.358 . S
C355 C359 1.332 . S
C355 C361 1.504 . S
C356 C357 1.373 . S
C356 C360 1.308 . S
C357 C356 1.373 . S
C357 C358 1.429 . S
C357 H384 0.932 . S
C358 C355 1.358 . S
C358 C357 1.429 . S
C358 H385 0.930 . S
C359 C355 1.332 . S
C359 C360 1.394 . S
C359 H386 0.932 . S
C360 C356 1.308 . S
C360 C359 1.394 . S
C360 H387 0.929 . S
C361 Tb352 2.764 . S
C361 C355 1.504 . S
C361 O373 1.239 . S
C361 O374 1.263 . S
O362 Tb352 2.325 1_556 S
O362 C372 1.236 . S
O363 Tb353 2.321 . S
O363 C372 1.257 . S
O364 Tb353 2.348 1_554 S
O364 C375 1.261 . S
O365 Tb352 2.303 . S
O365 C375 1.257 . S
O366 Tb353 2.417 1_565 S
O366 C382 1.239 . S
O367 Tb353 2.400 1_565 S
O367 C382 1.263 . S
O368 Tb353 2.326 1_564 S
O368 C383 1.236 . S
O369 Tb352 2.322 1_565 S
O369 C383 1.257 . S
O370 Tb352 2.349 1_566 S
O370 C354 1.261 . S
O371 Tb353 2.304 1_565 S
O371 C354 1.257 . S
C372 O362 1.236 . S
C372 O363 1.257 . S
O373 Tb352 2.415 . S
O373 C361 1.239 . S
O374 Tb352 2.399 . S
O374 C361 1.263 . S
C375 O364 1.261 . S
C375 O365 1.257 . S
C376 C379 1.358 . S
C376 C380 1.332 . S
C376 C382 1.504 . S
C377 C378 1.373 . S
C377 C381 1.308 . S
C378 C377 1.373 . S
C378 C379 1.429 . S
C378 H388 0.932 . S
C379 C376 1.358 . S
C379 C378 1.429 . S
C379 H389 0.930 . S
C380 C376 1.332 . S
C380 C381 1.394 . S
C380 H390 0.932 . S
C381 C377 1.308 . S
C381 C380 1.394 . S
C381 H391 0.929 . S
C382 Tb353 2.765 1_565 S
C382 O366 1.239 . S
C382 O367 1.263 . S
C382 C376 1.504 . S
C383 O368 1.236 . S
C383 O369 1.257 . S
H384 C357 0.932 . S
H385 C358 0.930 . S
H386 C359 0.932 . S
H387 C360 0.929 . S
H388 C378 0.932 . S
H389 C379 0.930 . S
H390 C380 0.932 . S
H391 C381 0.929 . S
Tb392 C401 2.764 . S
Tb392 O402 2.325 . S
Tb392 O405 2.303 . S
Tb392 O409 2.322 . S
Tb392 O410 2.349 . S
Tb392 O413 2.415 . S
Tb392 O414 2.399 . S
Tb393 O403 2.322 . S
Tb393 O404 2.349 . S
Tb393 O406 2.415 . S
Tb393 O407 2.399 . S
Tb393 O408 2.325 . S
Tb393 O411 2.303 . S
Tb393 C422 2.764 . S
C394 O410 1.261 . S
C394 O411 1.257 . S
C395 C398 1.358 . S
C395 C399 1.332 . S
C395 C401 1.504 . S
C396 C397 1.373 . S
C396 C400 1.308 . S
C397 C396 1.373 . S
C397 C398 1.429 . S
C397 H424 0.932 . S
C398 C395 1.358 . S
C398 C397 1.429 . S
C398 H425 0.930 . S
C399 C395 1.332 . S
C399 C400 1.394 . S
C399 H426 0.932 . S
C400 C396 1.308 . S
C400 C399 1.394 . S
C400 H427 0.929 . S
C401 Tb392 2.764 . S
C401 C395 1.504 . S
C401 O413 1.239 . S
C401 O414 1.263 . S
O402 Tb392 2.325 . S
O402 C412 1.236 . S
O403 Tb393 2.322 . S
O403 C412 1.257 . S
O404 Tb393 2.349 . S
O404 C415 1.261 . S
O405 Tb392 2.303 . S
O405 C415 1.257 . S
O406 Tb393 2.415 . S
O406 C422 1.239 . S
O407 Tb393 2.399 . S
O407 C422 1.263 . S
O408 Tb393 2.325 . S
O408 C423 1.236 . S
O409 Tb392 2.322 . S
O409 C423 1.257 . S
O410 Tb392 2.349 . S
O410 C394 1.261 . S
O411 Tb393 2.303 . S
O411 C394 1.257 . S
C412 O402 1.236 . S
C412 O403 1.257 . S
O413 Tb392 2.415 . S
O413 C401 1.239 . S
O414 Tb392 2.399 . S
O414 C401 1.263 . S
C415 O404 1.261 . S
C415 O405 1.257 . S
C416 C419 1.358 . S
C416 C420 1.332 . S
C416 C422 1.504 . S
C417 C418 1.373 . S
C417 C421 1.308 . S
C418 C417 1.373 . S
C418 C419 1.429 . S
C418 H428 0.932 . S
C419 C416 1.358 . S
C419 C418 1.429 . S
C419 H429 0.930 . S
C420 C416 1.332 . S
C420 C421 1.394 . S
C420 H430 0.932 . S
C421 C417 1.308 . S
C421 C420 1.394 . S
C421 H431 0.929 . S
C422 Tb393 2.764 . S
C422 O406 1.239 . S
C422 O407 1.263 . S
C422 C416 1.504 . S
C423 O408 1.236 . S
C423 O409 1.257 . S
H424 C397 0.932 . S
H425 C398 0.930 . S
H426 C399 0.932 . S
H427 C400 0.929 . S
H428 C418 0.932 . S
H429 C419 0.930 . S
H430 C420 0.932 . S
H431 C421 0.929 . S
Tb432 C441 2.764 . S
Tb432 O442 2.325 . S
Tb432 O445 2.303 1_556 S
Tb432 O449 2.330 1_655 S
Tb432 O450 2.349 1_655 S
Tb432 O453 2.415 . S
Tb432 O454 2.399 . S
Tb433 O443 2.322 1_455 S
Tb433 O444 2.349 1_455 S
Tb433 O446 2.415 . S
Tb433 O447 2.399 . S
Tb433 O448 2.325 . S
Tb433 O451 2.303 1_554 S
Tb433 C462 2.764 . S
C434 O450 1.261 . S
C434 O451 1.257 . S
C435 C438 1.358 . S
C435 C439 1.332 . S
C435 C441 1.504 . S
C436 C437 1.373 . S
C436 C440 1.308 . S
C437 C436 1.373 . S
C437 C438 1.429 . S
C437 H464 0.932 . S
C438 C435 1.358 . S
C438 C437 1.429 . S
C438 H465 0.930 . S
C439 C435 1.332 . S
C439 C440 1.394 . S
C439 H466 0.932 . S
C440 C436 1.308 . S
C440 C439 1.394 . S
C440 H467 0.929 . S
C441 Tb432 2.764 . S
C441 C435 1.504 . S
C441 O453 1.239 . S
C441 O454 1.263 . S
O442 Tb432 2.325 . S
O442 C452 1.236 . S
O443 Tb433 2.322 1_655 S
O443 C452 1.257 1_554 S
O444 Tb433 2.349 1_655 S
O444 C455 1.261 . S
O445 Tb432 2.303 1_554 S
O445 C455 1.257 . S
O446 Tb433 2.415 . S
O446 C462 1.239 . S
O447 Tb433 2.399 . S
O447 C462 1.263 . S
O448 Tb433 2.325 . S
O448 C463 1.236 . S
O449 Tb432 2.330 1_455 S
O449 C463 1.245 1_556 S
O450 Tb432 2.349 1_455 S
O450 C434 1.261 . S
O451 Tb433 2.303 1_556 S
O451 C434 1.257 . S
C452 O442 1.236 . S
C452 O443 1.257 1_556 S
O453 Tb432 2.415 . S
O453 C441 1.239 . S
O454 Tb432 2.399 . S
O454 C441 1.263 . S
C455 O444 1.261 . S
C455 O445 1.257 . S
C456 C459 1.358 . S
C456 C460 1.332 . S
C456 C462 1.504 . S
C457 C458 1.373 . S
C457 C461 1.308 . S
C458 C457 1.373 . S
C458 C459 1.429 . S
C458 H468 0.932 . S
C459 C456 1.358 . S
C459 C458 1.429 . S
C459 H469 0.930 . S
C460 C456 1.332 . S
C460 C461 1.394 . S
C460 H470 0.932 . S
C461 C457 1.308 . S
C461 C460 1.394 . S
C461 H471 0.929 . S
C462 Tb433 2.764 . S
C462 O446 1.239 . S
C462 O447 1.263 . S
C462 C456 1.504 . S
C463 O448 1.236 . S
C463 O449 1.245 1_554 S
H464 C437 0.932 . S
H465 C438 0.930 . S
H466 C439 0.932 . S
H467 C440 0.929 . S
H468 C458 0.932 . S
H469 C459 0.930 . S
H470 C460 0.932 . S
H471 C461 0.929 . S
H472 C478 0.930 . S
H473 C481 0.930 . S
H474 C482 0.930 . S
H475 C483 0.930 . S
H476 C486 0.930 . S
H477 C487 0.930 . S
C478 H472 0.930 . S
C478 C479 1.355 . S
C478 C480 1.415 . S
C479 C478 1.355 . S
C479 C481 1.419 . S
C480 C478 1.415 . S
C480 C485 1.425 . S
C480 C487 1.409 . S
C481 H473 0.930 . S
C481 C479 1.419 . S
C481 C482 1.362 . S
C482 H474 0.930 . S
C482 C481 1.362 . S
C482 C485 1.409 . S
C483 H475 0.930 . S
C483 C484 1.355 . S
C483 C485 1.415 . S
C484 C483 1.355 . S
C484 C486 1.419 . S
C485 C480 1.425 . S
C485 C482 1.409 . S
C485 C483 1.415 . S
C486 H476 0.930 . S
C486 C484 1.419 . S
C486 C487 1.362 . S
C487 H477 0.930 . S
C487 C480 1.409 . S
C487 C486 1.362 . S
H488 C494 0.930 . S
H489 C497 0.930 . S
H490 C498 0.930 . S
H491 C499 0.930 . S
H492 C502 0.930 . S
H493 C503 0.930 . S
C494 H488 0.930 . S
C494 C495 1.355 . S
C494 C496 1.415 . S
C495 C494 1.355 . S
C495 C497 1.419 . S
C496 C494 1.415 . S
C496 C501 1.425 . S
C496 C503 1.409 . S
C497 H489 0.930 . S
C497 C495 1.419 . S
C497 C498 1.362 . S
C498 H490 0.930 . S
C498 C497 1.362 . S
C498 C501 1.409 . S
C499 H491 0.930 . S
C499 C500 1.355 . S
C499 C501 1.415 . S
C500 C499 1.355 . S
C500 C502 1.419 . S
C501 C496 1.425 . S
C501 C498 1.409 . S
C501 C499 1.415 . S
C502 H492 0.930 . S
C502 C500 1.419 . S
C502 C503 1.362 . S
C503 H493 0.930 . S
C503 C496 1.409 . S
C503 C502 1.362 . S
H504 C510 0.930 . S
H505 C513 0.930 . S
H506 C514 0.930 . S
H507 C515 0.930 . S
H508 C518 0.930 . S
H509 C519 0.930 . S
C510 H504 0.930 . S
C510 C511 1.355 . S
C510 C512 1.415 . S
C511 C510 1.355 . S
C511 C513 1.419 . S
C512 C510 1.415 . S
C512 C517 1.425 . S
C512 C519 1.409 . S
C513 H505 0.930 . S
C513 C511 1.419 . S
C513 C514 1.362 . S
C514 H506 0.930 . S
C514 C513 1.362 . S
C514 C517 1.409 . S
C515 H507 0.930 . S
C515 C516 1.355 . S
C515 C517 1.415 . S
C516 C515 1.355 . S
C516 C518 1.419 . S
C517 C512 1.425 . S
C517 C514 1.409 . S
C517 C515 1.415 . S
C518 H508 0.930 . S
C518 C516 1.419 . S
C518 C519 1.362 . S
C519 H509 0.930 . S
C519 C512 1.409 . S
C519 C518 1.362 . S
H520 C526 0.930 . S
H521 C529 0.930 . S
H522 C530 0.930 . S
H523 C531 0.930 . S
H524 C534 0.930 . S
H525 C535 0.930 . S
C526 H520 0.930 . S
C526 C527 1.355 . S
C526 C528 1.415 . S
C527 C526 1.355 . S
C527 C529 1.419 . S
C528 C526 1.415 . S
C528 C533 1.425 . S
C528 C535 1.409 . S
C529 H521 0.930 . S
C529 C527 1.419 . S
C529 C530 1.362 . S
C530 H522 0.930 . S
C530 C529 1.362 . S
C530 C533 1.409 . S
C531 H523 0.930 . S
C531 C532 1.355 . S
C531 C533 1.415 . S
C532 C531 1.355 . S
C532 C534 1.419 . S
C533 C528 1.425 . S
C533 C530 1.409 . S
C533 C531 1.415 . S
C534 H524 0.930 . S
C534 C532 1.419 . S
C534 C535 1.362 . S
C535 H525 0.930 . S
C535 C528 1.409 . S
C535 C534 1.362 . S
H536 C542 0.930 . S
H537 C545 0.930 . S
H538 C546 0.930 . S
H539 C547 0.930 . S
H540 C550 0.930 . S
H541 C551 0.930 . S
C542 H536 0.930 . S
C542 C543 1.355 . S
C542 C544 1.415 . S
C543 C542 1.355 . S
C543 C545 1.419 . S
C544 C542 1.415 . S
C544 C549 1.425 . S
C544 C551 1.409 . S
C545 H537 0.930 . S
C545 C543 1.419 . S
C545 C546 1.362 . S
C546 H538 0.930 . S
C546 C545 1.362 . S
C546 C549 1.409 . S
C547 H539 0.930 . S
C547 C548 1.355 . S
C547 C549 1.415 . S
C548 C547 1.355 . S
C548 C550 1.419 . S
C549 C544 1.425 . S
C549 C546 1.409 . S
C549 C547 1.415 . S
C550 H540 0.930 . S
C550 C548 1.419 . S
C550 C551 1.362 . S
C551 H541 0.930 . S
C551 C544 1.409 . S
C551 C550 1.362 . S
H552 C558 0.930 . S
H553 C561 0.930 . S
H554 C562 0.930 . S
H555 C563 0.930 . S
H556 C566 0.930 1_655 S
H557 C567 0.930 1_655 S
C558 H552 0.930 . S
C558 C559 1.355 . S
C558 C560 1.415 . S
C559 C558 1.355 . S
C559 C561 1.419 . S
C560 C558 1.415 . S
C560 C565 1.425 . S
C560 C567 1.409 . S
C561 H553 0.930 . S
C561 C559 1.419 . S
C561 C562 1.362 . S
C562 H554 0.930 . S
C562 C561 1.362 . S
C562 C565 1.409 . S
C563 H555 0.930 . S
C563 C564 1.355 . S
C563 C565 1.415 . S
C564 C563 1.355 . S
C564 C566 1.419 . S
C565 C560 1.425 . S
C565 C562 1.409 . S
C565 C563 1.415 . S
C566 H556 0.930 1_455 S
C566 C564 1.419 . S
C566 C567 1.362 . S
C567 H557 0.930 1_455 S
C567 C560 1.409 . S
C567 C566 1.362 . S
H568 C574 0.930 . S
H569 C577 0.930 . S
H570 C578 0.930 . S
H571 C579 0.930 . S
H572 C582 0.930 1_554 S
H573 C583 0.930 . S
C574 H568 0.930 . S
C574 C575 1.355 . S
C574 C576 1.415 . S
C575 C574 1.355 . S
C575 C577 1.419 . S
C576 C574 1.415 . S
C576 C581 1.425 . S
C576 C583 1.409 . S
C577 H569 0.930 . S
C577 C575 1.419 . S
C577 C578 1.362 . S
C578 H570 0.930 . S
C578 C577 1.362 . S
C578 C581 1.409 . S
C579 H571 0.930 . S
C579 C580 1.355 . S
C579 C581 1.415 . S
C580 C579 1.355 . S
C580 C582 1.419 . S
C581 C576 1.425 . S
C581 C578 1.409 . S
C581 C579 1.415 . S
C582 H572 0.930 1_556 S
C582 C580 1.419 . S
C582 C583 1.362 . S
C583 H573 0.930 . S
C583 C576 1.409 . S
C583 C582 1.362 . S
H584 C590 0.930 . S
H585 C593 0.930 . S
H586 C594 0.930 . S
H587 C595 0.930 . S
H588 C598 0.930 . S
H589 C599 0.930 . S
C590 H584 0.930 . S
C590 C591 1.355 . S
C590 C592 1.415 . S
C591 C590 1.355 . S
C591 C593 1.419 . S
C592 C590 1.415 . S
C592 C597 1.425 . S
C592 C599 1.409 . S
C593 H585 0.930 . S
C593 C591 1.419 . S
C593 C594 1.362 . S
C594 H586 0.930 . S
C594 C593 1.362 . S
C594 C597 1.409 . S
C595 H587 0.930 . S
C595 C596 1.355 . S
C595 C597 1.415 . S
C596 C595 1.355 . S
C596 C598 1.419 . S
C597 C592 1.425 . S
C597 C594 1.409 . S
C597 C595 1.415 . S
C598 H588 0.930 . S
C598 C596 1.419 . S
C598 C599 1.362 . S
C599 H589 0.930 . S
C599 C592 1.409 . S
C599 C598 1.362 . S
H600 C606 0.930 . S
H601 C609 0.930 . S
H602 C610 0.930 . S
H603 C611 0.930 . S
H604 C614 0.930 . S
H605 C615 0.930 . S
C606 H600 0.930 . S
C606 C607 1.355 . S
C606 C608 1.415 . S
C607 C606 1.355 . S
C607 C609 1.419 . S
C608 C606 1.415 . S
C608 C613 1.425 . S
C608 C615 1.409 . S
C609 H601 0.930 . S
C609 C607 1.419 . S
C609 C610 1.362 . S
C610 H602 0.930 . S
C610 C609 1.362 . S
C610 C613 1.409 . S
C611 H603 0.930 . S
C611 C612 1.355 . S
C611 C613 1.415 . S
C612 C611 1.355 . S
C612 C614 1.419 . S
C613 C608 1.425 . S
C613 C610 1.409 . S
C613 C611 1.415 . S
C614 H604 0.930 . S
C614 C612 1.419 . S
C614 C615 1.362 . S
C615 H605 0.930 . S
C615 C608 1.409 . S
C615 C614 1.362 . S
H616 C622 0.930 . S
H617 C625 0.930 . S
H618 C626 0.930 . S
H619 C627 0.930 . S
H620 C630 0.930 . S
H621 C631 0.930 . S
C622 H616 0.930 . S
C622 C623 1.355 . S
C622 C624 1.415 . S
C623 C622 1.355 . S
C623 C625 1.419 . S
C624 C622 1.415 . S
C624 C629 1.425 . S
C624 C631 1.409 . S
C625 H617 0.930 . S
C625 C623 1.419 . S
C625 C626 1.362 . S
C626 H618 0.930 . S
C626 C625 1.362 . S
C626 C629 1.409 . S
C627 H619 0.930 . S
C627 C628 1.355 . S
C627 C629 1.415 . S
C628 C627 1.355 . S
C628 C630 1.419 . S
C629 C624 1.425 . S
C629 C626 1.409 . S
C629 C627 1.415 . S
C630 H620 0.930 . S
C630 C628 1.419 . S
C630 C631 1.362 . S
C631 H621 0.930 . S
C631 C624 1.409 . S
C631 C630 1.362 . S
H632 C638 0.930 . S
H633 C641 0.930 . S
H634 C642 0.930 . S
H635 C643 0.930 . S
H636 C646 0.930 . S
H637 C647 0.930 . S
C638 H632 0.930 . S
C638 C639 1.355 . S
C638 C640 1.415 . S
C639 C638 1.355 . S
C639 C641 1.419 . S
C640 C638 1.415 . S
C640 C645 1.425 . S
C640 C647 1.409 . S
C641 H633 0.930 . S
C641 C639 1.419 . S
C641 C642 1.362 . S
C642 H634 0.930 . S
C642 C641 1.362 . S
C642 C645 1.409 . S
C643 H635 0.930 . S
C643 C644 1.355 . S
C643 C645 1.415 . S
C644 C643 1.355 . S
C644 C646 1.419 . S
C645 C640 1.425 . S
C645 C642 1.409 . S
C645 C643 1.415 . S
C646 H636 0.930 . S
C646 C644 1.419 . S
C646 C647 1.362 . S
C647 H637 0.930 . S
C647 C640 1.409 . S
C647 C646 1.362 . S
H648 C654 0.930 . S
H649 C657 0.930 . S
H650 C658 0.930 . S
H651 C659 0.930 . S
H652 C662 0.930 . S
H653 C663 0.930 . S
C654 H648 0.930 . S
C654 C655 1.355 . S
C654 C656 1.415 . S
C655 C654 1.355 . S
C655 C657 1.419 . S
C656 C654 1.415 . S
C656 C661 1.425 . S
C656 C663 1.409 . S
C657 H649 0.930 . S
C657 C655 1.419 . S
C657 C658 1.362 . S
C658 H650 0.930 . S
C658 C657 1.362 . S
C658 C661 1.409 . S
C659 H651 0.930 . S
C659 C660 1.355 . S
C659 C661 1.415 . S
C660 C659 1.355 . S
C660 C662 1.419 . S
C661 C656 1.425 . S
C661 C658 1.409 . S
C661 C659 1.415 . S
C662 H652 0.930 . S
C662 C660 1.419 . S
C662 C663 1.362 . S
C663 H653 0.930 . S
C663 C656 1.409 . S
C663 C662 1.362 . S
H664 C670 0.930 . S
H665 C673 0.930 . S
H666 C674 0.930 . S
H667 C675 0.930 . S
H668 C678 0.930 . S
H669 C679 0.930 . S
C670 H664 0.930 . S
C670 C671 1.355 . S
C670 C672 1.415 . S
C671 C670 1.355 . S
C671 C673 1.419 . S
C672 C670 1.415 . S
C672 C677 1.425 . S
C672 C679 1.409 . S
C673 H665 0.930 . S
C673 C671 1.419 . S
C673 C674 1.362 . S
C674 H666 0.930 . S
C674 C673 1.362 . S
C674 C677 1.409 . S
C675 H667 0.930 . S
C675 C676 1.355 . S
C675 C677 1.415 . S
C676 C675 1.355 . S
C676 C678 1.419 . S
C677 C672 1.425 . S
C677 C674 1.409 . S
C677 C675 1.415 . S
C678 H668 0.930 . S
C678 C676 1.419 . S
C678 C679 1.362 . S
C679 H669 0.930 . S
C679 C672 1.409 . S
C679 C678 1.362 . S
H680 C686 0.930 . S
H681 C689 0.930 . S
H682 C690 0.930 . S
H683 C691 0.930 . S
H684 C694 0.930 . S
H685 C695 0.930 . S
C686 H680 0.930 . S
C686 C687 1.355 . S
C686 C688 1.415 . S
C687 C686 1.355 . S
C687 C689 1.419 . S
C688 C686 1.415 . S
C688 C693 1.425 . S
C688 C695 1.409 . S
C689 H681 0.930 . S
C689 C687 1.419 . S
C689 C690 1.362 . S
C690 H682 0.930 . S
C690 C689 1.362 . S
C690 C693 1.409 . S
C691 H683 0.930 . S
C691 C692 1.355 . S
C691 C693 1.415 . S
C692 C691 1.355 . S
C692 C694 1.419 . S
C693 C688 1.425 . S
C693 C690 1.409 . S
C693 C691 1.415 . S
C694 H684 0.930 . S
C694 C692 1.419 . S
C694 C695 1.362 . S
C695 H685 0.930 . S
C695 C688 1.409 . S
C695 C694 1.362 . S
H696 C702 0.930 . S
H697 C705 0.930 . S
H698 C706 0.930 . S
H699 C707 0.930 . S
H700 C710 0.930 . S
H701 C711 0.930 . S
C702 H696 0.930 . S
C702 C703 1.355 . S
C702 C704 1.415 . S
C703 C702 1.355 . S
C703 C705 1.419 . S
C704 C702 1.415 . S
C704 C709 1.425 . S
C704 C711 1.409 . S
C705 H697 0.930 . S
C705 C703 1.419 . S
C705 C706 1.362 . S
C706 H698 0.930 . S
C706 C705 1.362 . S
C706 C709 1.409 . S
C707 H699 0.930 . S
C707 C708 1.355 . S
C707 C709 1.415 . S
C708 C707 1.355 . S
C708 C710 1.419 . S
C709 C704 1.425 . S
C709 C706 1.409 . S
C709 C707 1.415 . S
C710 H700 0.930 . S
C710 C708 1.419 . S
C710 C711 1.362 . S
C711 H701 0.930 . S
C711 C704 1.409 . S
C711 C710 1.362 . S
H712 C718 0.930 . S
H713 C721 0.930 . S
H714 C722 0.930 . S
H715 C723 0.930 . S
H716 C726 0.930 . S
H717 C727 0.930 . S
C718 H712 0.930 . S
C718 C719 1.355 . S
C718 C720 1.415 . S
C719 C718 1.355 . S
C719 C721 1.419 . S
C720 C718 1.415 . S
C720 C725 1.425 . S
C720 C727 1.409 . S
C721 H713 0.930 . S
C721 C719 1.419 . S
C721 C722 1.362 . S
C722 H714 0.930 . S
C722 C721 1.362 . S
C722 C725 1.409 . S
C723 H715 0.930 . S
C723 C724 1.355 . S
C723 C725 1.415 . S
C724 C723 1.355 . S
C724 C726 1.419 . S
C725 C720 1.425 . S
C725 C722 1.409 . S
C725 C723 1.415 . S
C726 H716 0.930 . S
C726 C724 1.419 . S
C726 C727 1.362 . S
C727 H717 0.930 . S
C727 C720 1.409 . S
C727 C726 1.362 . S
H728 C734 0.930 . S
H729 C737 0.930 . S
H730 C738 0.930 . S
H731 C739 0.930 . S
H732 C742 0.930 . S
H733 C743 0.930 . S
C734 H728 0.930 . S
C734 C735 1.355 . S
C734 C736 1.415 . S
C735 C734 1.355 . S
C735 C737 1.419 . S
C736 C734 1.415 . S
C736 C741 1.425 . S
C736 C743 1.409 . S
C737 H729 0.930 . S
C737 C735 1.419 . S
C737 C738 1.362 . S
C738 H730 0.930 . S
C738 C737 1.362 . S
C738 C741 1.409 . S
C739 H731 0.930 . S
C739 C740 1.355 . S
C739 C741 1.415 . S
C740 C739 1.355 . S
C740 C742 1.419 . S
C741 C736 1.425 . S
C741 C738 1.409 . S
C741 C739 1.415 . S
C742 H732 0.930 . S
C742 C740 1.419 . S
C742 C743 1.362 . S
C743 H733 0.930 . S
C743 C736 1.409 . S
C743 C742 1.362 . S
H744 C750 0.930 . S
H745 C753 0.930 . S
H746 C754 0.930 . S
H747 C755 0.930 . S
H748 C758 0.930 . S
H749 C759 0.930 . S
C750 H744 0.930 . S
C750 C751 1.355 . S
C750 C752 1.415 . S
C751 C750 1.355 . S
C751 C753 1.419 . S
C752 C750 1.415 . S
C752 C757 1.425 . S
C752 C759 1.409 . S
C753 H745 0.930 . S
C753 C751 1.419 . S
C753 C754 1.362 . S
C754 H746 0.930 . S
C754 C753 1.362 . S
C754 C757 1.409 . S
C755 H747 0.930 . S
C755 C756 1.355 . S
C755 C757 1.415 . S
C756 C755 1.355 . S
C756 C758 1.419 . S
C757 C752 1.425 . S
C757 C754 1.409 . S
C757 C755 1.415 . S
C758 H748 0.930 . S
C758 C756 1.419 . S
C758 C759 1.362 . S
C759 H749 0.930 . S
C759 C752 1.409 . S
C759 C758 1.362 . S
H760 C766 0.930 . S
H761 C769 0.930 . S
H762 C770 0.930 . S
H763 C771 0.930 . S
H764 C774 0.930 . S
H765 C775 0.930 . S
C766 H760 0.930 . S
C766 C767 1.355 . S
C766 C768 1.415 . S
C767 C766 1.355 . S
C767 C769 1.419 . S
C768 C766 1.415 . S
C768 C773 1.425 . S
C768 C775 1.409 . S
C769 H761 0.930 . S
C769 C767 1.419 . S
C769 C770 1.362 . S
C770 H762 0.930 . S
C770 C769 1.362 . S
C770 C773 1.409 . S
C771 H763 0.930 . S
C771 C772 1.355 . S
C771 C773 1.415 . S
C772 C771 1.355 . S
C772 C774 1.419 . S
C773 C768 1.425 . S
C773 C770 1.409 . S
C773 C771 1.415 . S
C774 H764 0.930 . S
C774 C772 1.419 . S
C774 C775 1.362 . S
C775 H765 0.930 . S
C775 C768 1.409 . S
C775 C774 1.362 . S
H776 C782 0.930 . S
H777 C785 0.930 . S
H778 C786 0.930 . S
H779 C787 0.930 . S
H780 C790 0.930 . S
H781 C791 0.930 . S
C782 H776 0.930 . S
C782 C783 1.355 . S
C782 C784 1.415 . S
C783 C782 1.355 . S
C783 C785 1.419 . S
C784 C782 1.415 . S
C784 C789 1.425 . S
C784 C791 1.409 . S
C785 H777 0.930 . S
C785 C783 1.419 . S
C785 C786 1.362 . S
C786 H778 0.930 . S
C786 C785 1.362 . S
C786 C789 1.409 . S
C787 H779 0.930 . S
C787 C788 1.355 . S
C787 C789 1.415 . S
C788 C787 1.355 . S
C788 C790 1.419 . S
C789 C784 1.425 . S
C789 C786 1.409 . S
C789 C787 1.415 . S
C790 H780 0.930 . S
C790 C788 1.419 . S
C790 C791 1.362 . S
C791 H781 0.930 . S
C791 C784 1.409 . S
C791 C790 1.362 . S
H792 C798 0.930 . S
H793 C801 0.930 . S
H794 C802 0.930 . S
H795 C803 0.930 . S
H796 C806 0.930 . S
H797 C807 0.930 . S
C798 H792 0.930 . S
C798 C799 1.355 . S
C798 C800 1.415 . S
C799 C798 1.355 . S
C799 C801 1.419 . S
C800 C798 1.415 . S
C800 C805 1.425 . S
C800 C807 1.409 . S
C801 H793 0.930 . S
C801 C799 1.419 . S
C801 C802 1.362 . S
C802 H794 0.930 . S
C802 C801 1.362 . S
C802 C805 1.409 . S
C803 H795 0.930 . S
C803 C804 1.355 . S
C803 C805 1.415 . S
C804 C803 1.355 . S
C804 C806 1.419 . S
C805 C800 1.425 . S
C805 C802 1.409 . S
C805 C803 1.415 . S
C806 H796 0.930 . S
C806 C804 1.419 . S
C806 C807 1.362 . S
C807 H797 0.930 . S
C807 C800 1.409 . S
C807 C806 1.362 . S
H808 C814 0.930 . S
H809 C817 0.930 . S
H810 C818 0.930 . S
H811 C819 0.930 . S
H812 C822 0.930 1_556 S
H813 C823 0.930 . S
C814 H808 0.930 . S
C814 C815 1.355 . S
C814 C816 1.415 . S
C815 C814 1.355 . S
C815 C817 1.419 . S
C816 C814 1.415 . S
C816 C821 1.425 . S
C816 C823 1.409 . S
C817 H809 0.930 . S
C817 C815 1.419 . S
C817 C818 1.362 . S
C818 H810 0.930 . S
C818 C817 1.362 . S
C818 C821 1.409 . S
C819 H811 0.930 . S
C819 C820 1.355 . S
C819 C821 1.415 . S
C820 C819 1.355 . S
C820 C822 1.419 . S
C821 C816 1.425 . S
C821 C818 1.409 . S
C821 C819 1.415 . S
C822 H812 0.930 1_554 S
C822 C820 1.419 . S
C822 C823 1.362 . S
C823 H813 0.930 . S
C823 C816 1.409 . S
C823 C822 1.362 . S
H824 C830 0.930 . S
H825 C833 0.930 . S
H826 C834 0.930 . S
H827 C835 0.930 . S
H828 C838 0.930 . S
H829 C839 0.930 . S
C830 H824 0.930 . S
C830 C831 1.355 . S
C830 C832 1.415 . S
C831 C830 1.355 . S
C831 C833 1.419 . S
C832 C830 1.415 . S
C832 C837 1.425 . S
C832 C839 1.409 . S
C833 H825 0.930 . S
C833 C831 1.419 . S
C833 C834 1.362 . S
C834 H826 0.930 . S
C834 C833 1.362 . S
C834 C837 1.409 . S
C835 H827 0.930 . S
C835 C836 1.355 . S
C835 C837 1.415 . S
C836 C835 1.355 . S
C836 C838 1.419 . S
C837 C832 1.425 . S
C837 C834 1.409 . S
C837 C835 1.415 . S
C838 H828 0.930 . S
C838 C836 1.419 . S
C838 C839 1.362 . S
C839 H829 0.930 . S
C839 C832 1.409 . S
C839 C838 1.362 . S
H840 C846 0.930 . S
H841 C849 0.930 . S
H842 C850 0.930 . S
H843 C851 0.930 . S
H844 C854 0.930 . S
H845 C855 0.930 . S
C846 H840 0.930 . S
C846 C847 1.355 . S
C846 C848 1.415 . S
C847 C846 1.355 . S
C847 C849 1.419 . S
C848 C846 1.415 . S
C848 C853 1.425 . S
C848 C855 1.409 . S
C849 H841 0.930 . S
C849 C847 1.419 . S
C849 C850 1.362 . S
C850 H842 0.930 . S
C850 C849 1.362 . S
C850 C853 1.409 . S
C851 H843 0.930 . S
C851 C852 1.355 . S
C851 C853 1.415 . S
C852 C851 1.355 . S
C852 C854 1.419 . S
C853 C848 1.425 . S
C853 C850 1.409 . S
C853 C851 1.415 . S
C854 H844 0.930 . S
C854 C852 1.419 . S
C854 C855 1.362 . S
C855 H845 0.930 . S
C855 C848 1.409 . S
C855 C854 1.362 . S
C479 C1 0.925 . S
C484 C316 0.968 . S
C495 C40 1.164 . S
C500 C377 1.243 . S
C516 C415 2.486 . S
C511 C99 2.572 . S
C527 C118 2.362 . S
C532 C455 2.329 . S
C548 C375 1.372 . S
C543 C16 1.346 . S
C564 C343 2.177 . S
C559 C60 2.043 . S
C580 C452 1.786 . S
C575 C79 1.788 . S
C596 C412 1.858 . S
C591 C138 1.868 . S
C607 C21 1.136 . S
C612 C457 1.173 . S
C628 C372 2.392 . S
C623 C94 2.386 . S
C639 C133 2.194 . S
C644 C314 2.153 . S
C655 C55 1.613 . S
C660 C417 1.673 . S
C676 C337 0.977 . S
C671 C157 0.947 . S
C687 C196 1.252 . S
C692 C356 1.277 . S
C703 C255 2.562 . S
C708 C394 2.488 . S
C719 C289 2.360 . S
C724 C434 2.325 . S
C735 C172 1.284 . S
C740 C354 1.375 . S
C756 C332 2.182 . S
C751 C216 2.027 . S
C772 C463 1.781 . S
C767 C235 1.793 . S
C788 C423 1.849 . S
C783 C294 1.868 . S
C799 C177 1.214 . S
C804 C436 1.223 . S
C820 C383 2.402 . S
C815 C250 2.395 . S
C836 C335 2.132 . S
C831 C274 2.183 . S
C847 C211 1.614 . S
C852 C396 1.671 . S
