# Generated by pormake.
# Topology anh, (6,3)-cn, num edge types: 1
# Building blocks:
#     Node 0, Type 0, BuildingBlock: BETGAK_clean_sbu_0, # of connection points: 6
#     Node 1, Type 0, BuildingBlock: BETGAK_clean_sbu_0, # of connection points: 6
#     Node 2, Type 0, BuildingBlock: BETGAK_clean_sbu_0, # of connection points: 6
#     Node 3, Type 1, BuildingBlock: KAKCAD_clean_linker_0, # of connection points: 3
#     Node 4, Type 1, BuildingBlock: KAKCAD_clean_linker_0, # of connection points: 3
#     Node 5, Type 1, BuildingBlock: KAKCAD_clean_linker_0, # of connection points: 3
#     Node 6, Type 1, BuildingBlock: KAKCAD_clean_linker_0, # of connection points: 3
#     Node 7, Type 1, BuildingBlock: KAKCAD_clean_linker_0, # of connection points: 3
#     Node 8, Type 1, BuildingBlock: KAKCAD_clean_linker_0, # of connection points: 3
#     Edge 9, Type (0, 1), BuildingBlock: EZIPEK_clean_linker_0, # of connection points: 2
#     Edge 10, Type (0, 1), BuildingBlock: EZIPEK_clean_linker_0, # of connection points: 2
#     Edge 11, Type (0, 1), BuildingBlock: EZIPEK_clean_linker_0, # of connection points: 2
#     Edge 12, Type (0, 1), BuildingBlock: EZIPEK_clean_linker_0, # of connection points: 2
#     Edge 13, Type (0, 1), BuildingBlock: EZIPEK_clean_linker_0, # of connection points: 2
#     Edge 14, Type (0, 1), BuildingBlock: EZIPEK_clean_linker_0, # of connection points: 2
#     Edge 15, Type (0, 1), BuildingBlock: EZIPEK_clean_linker_0, # of connection points: 2
#     Edge 16, Type (0, 1), BuildingBlock: EZIPEK_clean_linker_0, # of connection points: 2
#     Edge 17, Type (0, 1), BuildingBlock: EZIPEK_clean_linker_0, # of connection points: 2
#     Edge 18, Type (0, 1), BuildingBlock: EZIPEK_clean_linker_0, # of connection points: 2
#     Edge 19, Type (0, 1), BuildingBlock: EZIPEK_clean_linker_0, # of connection points: 2
#     Edge 20, Type (0, 1), BuildingBlock: EZIPEK_clean_linker_0, # of connection points: 2
#     Edge 21, Type (0, 1), BuildingBlock: EZIPEK_clean_linker_0, # of connection points: 2
#     Edge 22, Type (0, 1), BuildingBlock: EZIPEK_clean_linker_0, # of connection points: 2
#     Edge 23, Type (0, 1), BuildingBlock: EZIPEK_clean_linker_0, # of connection points: 2
#     Edge 24, Type (0, 1), BuildingBlock: EZIPEK_clean_linker_0, # of connection points: 2
#     Edge 25, Type (0, 1), BuildingBlock: EZIPEK_clean_linker_0, # of connection points: 2
#     Edge 26, Type (0, 1), BuildingBlock: EZIPEK_clean_linker_0, # of connection points: 2
# Relax obj value: 0.215
# Max RMSD: 0.223
# Mean RMSD: 0.164
data_MOF--net-anh--node1-BETGAK_clean_sbu_0--node2-KAKCAD_clean_linker_0--edge1-EZIPEK_clean_linker_0
_symmetry_space_group_name_H-M    P1
_symmetry_Int_Tables_number       1
_symmetry_cell_setting            triclinic
loop_
_symmetry_equiv_pos_as_xyz
'x, y, z'
_cell_length_a     30.45206
_cell_length_b     35.680272
_cell_length_c     52.887808
_cell_angle_alpha  91.798729
_cell_angle_beta   89.76683
_cell_angle_gamma 130.5253
loop_
_atom_site_label
_atom_site_type_symbol
_atom_site_fract_x
_atom_site_fract_y
_atom_site_fract_z
_atom_type_partial_charge
La0 La 0.14713 0.54169 0.14457 0.0
La1 La 0.08213 0.57526 0.15005 0.0
C2 C 0.20159 0.51451 0.13052 0.0
C3 C 0.18976 0.46823 0.13422 0.0
C4 C 0.14132 0.43052 0.14787 0.0
C5 C 0.12952 0.386 0.15104 0.0
C6 C 0.16609 0.37898 0.14052 0.0
C7 C 0.21444 0.41673 0.12693 0.0
C8 C 0.22621 0.46113 0.12379 0.0
C9 C 0.1163 0.53983 0.19183 0.0
C10 C 0.21944 0.65768 0.1483 0.0
C11 C 1.03702 0.61184 0.16314 0.0
C12 C 0.97685 0.59111 0.16448 0.0
C13 C 0.93766 0.56161 0.14438 0.0
C14 C 0.87919 0.53699 0.14712 0.0
C15 C 0.85904 0.54108 0.17002 0.0
C16 C 0.898 0.57107 0.19003 0.0
C17 C 0.95679 0.59616 0.18722 0.0
C18 C 0.08191 0.54553 0.103 0.0
C19 C 1.01127 0.46041 0.15053 0.0
O20 O 0.16373 0.51048 0.11609 0.0
O21 O 0.21496 0.54166 0.15111 0.0
O22 O 0.11868 0.508 0.18133 0.0
O23 O 0.13355 0.57256 0.17607 0.0
O24 O 0.2215 0.62179 0.1454 0.0
O25 O 0.16954 0.6478 0.15031 0.0
O26 O 1.05766 0.61635 0.14061 0.0
O27 O 1.05052 0.59312 0.17885 0.0
O28 O 1.03853 0.53824 0.11348 0.0
O29 O 0.12394 0.57089 0.11857 0.0
O30 O 1.01263 0.49678 0.15837 0.0
O31 O 1.05779 0.47028 0.14074 0.0
H32 H 0.11265 0.43548 0.156 0.0
H33 H 0.09216 0.3572 0.16159 0.0
H34 H 0.24306 0.4117 0.11874 0.0
H35 H 0.26357 0.4898 0.11318 0.0
H36 H 0.95183 0.55641 0.12681 0.0
H37 H 0.84931 0.51376 0.13157 0.0
H38 H 0.88277 0.57436 0.20781 0.0
H39 H 0.98637 0.61823 0.20303 0.0
La40 La 0.65414 0.0515 0.46879 0.0
La41 La 0.58157 0.07944 0.46446 0.0
C42 C 0.69742 0.0156 0.4848 0.0
C43 C 0.67806 0.96646 0.49049 0.0
C44 C 0.68572 0.94098 0.47276 0.0
C45 C 0.67196 0.89656 0.47878 0.0
C46 C 0.6507 0.87706 0.50269 0.0
C47 C 0.64193 0.90176 0.52029 0.0
C48 C 0.65551 0.9461 0.51427 0.0
C49 C 0.64091 0.06668 0.42195 0.0
C50 C 0.51625 0.96564 0.46224 0.0
C51 C 0.53658 0.11674 0.45379 0.0
C52 C 0.54741 0.1613 0.46338 0.0
C53 C 0.58125 0.18666 0.48545 0.0
C54 C 0.58961 0.22785 0.49514 0.0
C55 C 0.56458 0.24439 0.4828 0.0
C56 C 0.53178 0.21971 0.46045 0.0
C57 C 0.52315 0.1783 0.45082 0.0
C58 C 0.59854 0.06704 0.51161 0.0
C59 C 0.72123 0.16503 0.46591 0.0
O60 O 0.69688 0.02435 0.46101 0.0
O61 O 0.67943 0.03317 0.49958 0.0
O62 O 0.68613 0.07484 0.43086 0.0
O63 O 0.60222 0.04585 0.43856 0.0
O64 O 0.56617 0.97845 0.46958 0.0
O65 O 0.51385 0.99987 0.45553 0.0
O66 O 0.51551 0.0823 0.47012 0.0
O67 O 0.57828 0.12419 0.44104 0.0
O68 O 0.55368 0.05996 0.50353 0.0
O69 O 0.63439 0.08596 0.49401 0.0
O70 O 0.66986 0.15216 0.46179 0.0
O71 O 0.72568 0.13165 0.47163 0.0
H72 H 0.70357 0.95591 0.4544 0.0
H73 H 0.67932 0.87805 0.46507 0.0
H74 H 0.62584 0.88726 0.53888 0.0
H75 H 0.64954 0.96491 0.52846 0.0
H76 H 0.6005 0.17414 0.49534 0.0
H77 H 0.61508 0.24654 0.51239 0.0
H78 H 0.51216 0.23206 0.45074 0.0
H79 H 0.49708 0.15925 0.43375 0.0
La80 La 0.61577 0.58089 0.84666 0.0
La81 La 0.53815 0.47364 0.83672 0.0
C82 C 0.68358 0.67284 0.83956 0.0
C83 C 0.67635 0.7095 0.83494 0.0
C84 C 0.72511 0.75987 0.83406 0.0
C85 C 0.71983 0.79411 0.82625 0.0
C86 C 0.66566 0.77858 0.81896 0.0
C87 C 0.61664 0.72838 0.82052 0.0
C88 C 0.62191 0.69424 0.82847 0.0
C89 C 0.56378 0.52784 0.88726 0.0
C90 C 0.47599 0.52248 0.84387 0.0
C91 C 0.49069 0.38306 0.83297 0.0
C92 C 0.51026 0.35442 0.8293 0.0
C93 C 0.55699 0.37119 0.81361 0.0
C94 C 0.57012 0.34095 0.80746 0.0
C95 C 0.53722 0.29348 0.81703 0.0
C96 C 0.4922 0.27749 0.8336 0.0
C97 C 0.4787 0.30761 0.83957 0.0
C98 C 0.56257 0.52609 0.79649 0.0
C99 C 0.67896 0.53272 0.84485 0.0
O100 O 0.67193 0.65423 0.86202 0.0
O101 O 0.66248 0.63878 0.82163 0.0
O102 O 0.577 0.56994 0.88373 0.0
O103 O 0.58383 0.51934 0.86935 0.0
O104 O 0.53028 0.56484 0.84052 0.0
O105 O 0.46964 0.48137 0.84557 0.0
O106 O 0.49916 0.40952 0.81408 0.0
O107 O 0.50254 0.40694 0.85462 0.0
O108 O 0.51226 0.48492 0.80135 0.0
O109 O 0.59673 0.53573 0.81406 0.0
O110 O 0.62562 0.49129 0.83742 0.0
O111 O 0.68472 0.57298 0.85068 0.0
H112 H 0.76761 0.77257 0.83868 0.0
H113 H 0.75826 0.83258 0.82521 0.0
H114 H 0.57444 0.71542 0.81498 0.0
H115 H 0.58362 0.65569 0.82876 0.0
H116 H 0.58227 0.40708 0.80542 0.0
H117 H 0.60515 0.35414 0.79474 0.0
H118 H 0.46629 0.24104 0.84121 0.0
H119 H 0.44242 0.2937 0.85161 0.0
C120 C 0.65197 0.10223 0.29976 0.0
C121 C 0.61741 0.05741 0.31219 0.0
C122 C 0.65047 0.1031 0.27333 0.0
C123 C 0.61676 0.05898 0.25814 0.0
C124 C 0.58297 1.01404 0.271 0.0
C125 C 0.58194 1.01339 0.29746 0.0
C126 C 0.61699 0.05971 0.2294 0.0
C127 C 0.65973 0.10305 0.21643 0.0
C128 C 0.6599 0.1047 0.1898 0.0
C129 C 0.61783 0.06008 0.1755 0.0
C130 C 0.57529 0.0155 0.188 0.0
C131 C 0.57451 0.01682 0.21459 0.0
C132 C 0.53077 0.96584 0.17473 0.0
C133 C 0.48551 0.95535 0.15976 0.0
C134 C 0.52683 0.92579 0.18149 0.0
C135 C 0.4782 0.87683 0.17469 0.0
C136 C 0.43172 0.8661 0.16085 0.0
C137 C 0.70492 0.15431 0.17823 0.0
C138 C 0.71329 0.19594 0.18791 0.0
C139 C 0.74475 0.16245 0.16045 0.0
C140 C 0.79291 0.21093 0.15364 0.0
C141 C 0.80223 0.25246 0.16428 0.0
C142 C 0.76092 0.244 0.18106 0.0
C143 C 0.43655 0.90603 0.1529 0.0
H144 H 0.67971 0.1369 0.3106 0.0
H145 H 0.67598 0.13896 0.26524 0.0
H146 H 0.55741 0.97862 0.26107 0.0
H147 H 0.55462 0.97819 0.30649 0.0
H148 H 0.69443 0.13642 0.22682 0.0
H149 H 0.53935 0.98327 0.22345 0.0
H150 H 0.61812 0.06005 0.15503 0.0
H151 H 0.48633 0.98495 0.15467 0.0
H152 H 0.56036 0.93229 0.19329 0.0
H153 H 0.47583 0.84707 0.18116 0.0
H154 H 0.68376 0.1914 0.20162 0.0
H155 H 0.74035 0.13162 0.15281 0.0
H156 H 0.40128 0.89894 0.14234 0.0
H157 H 0.76663 0.27495 0.18962 0.0
H158 H 0.82403 0.21612 0.14074 0.0
C159 C 0.55867 0.55272 0.67545 0.0
C160 C 0.60063 0.55622 0.68919 0.0
C161 C 0.56034 0.55414 0.64906 0.0
C162 C 0.60339 0.55818 0.63594 0.0
C163 C 0.64573 0.5622 0.6497 0.0
C164 C 0.64477 0.56183 0.67614 0.0
C165 C 0.60365 0.55776 0.60793 0.0
C166 C 0.60178 0.59042 0.59504 0.0
C167 C 0.60133 0.5902 0.56846 0.0
C168 C 0.60183 0.55598 0.55478 0.0
C169 C 0.6032 0.52257 0.56744 0.0
C170 C 0.60475 0.5242 0.59407 0.0
C171 C 0.60125 0.48492 0.55306 0.0
C172 C 0.56282 0.45806 0.53228 0.0
C173 C 0.63595 0.47397 0.5607 0.0
C174 C 0.63139 0.43636 0.54824 0.0
C175 C 0.59201 0.40895 0.52797 0.0
C176 C 0.60212 0.62691 0.55532 0.0
C177 C 0.56833 0.63852 0.56406 0.0
C178 C 0.6395 0.65304 0.53512 0.0
C179 C 0.64482 0.69136 0.52468 0.0
C180 C 0.61275 0.70405 0.53423 0.0
C181 C 0.57367 0.67678 0.55363 0.0
C182 C 0.55815 0.42032 0.51989 0.0
H183 H 0.5242 0.54823 0.68517 0.0
H184 H 0.52715 0.55085 0.63884 0.0
H185 H 0.6796 0.56576 0.63998 0.0
H186 H 0.67757 0.56466 0.68643 0.0
H187 H 0.60231 0.61705 0.60585 0.0
H188 H 0.60473 0.49816 0.6041 0.0
H189 H 0.60112 0.55533 0.53428 0.0
H190 H 0.53505 0.46517 0.5261 0.0
H191 H 0.66644 0.49432 0.57642 0.0
H192 H 0.65788 0.42805 0.55468 0.0
H193 H 0.5385 0.6186 0.57933 0.0
H194 H 0.66644 0.6453 0.5281 0.0
H195 H 0.52738 0.39935 0.50431 0.0
H196 H 0.54853 0.68607 0.56117 0.0
H197 H 0.67531 0.7122 0.50974 0.0
C198 C 0.14144 0.57251 0.97876 0.0
C199 C 0.09016 0.54303 0.99248 0.0
C200 C 0.13976 0.57001 0.95214 0.0
C201 C 0.08668 0.53808 0.93858 0.0
C202 C 1.03545 0.50856 0.95251 0.0
C203 C 1.0372 0.51096 0.97908 0.0
C204 C 0.08442 0.5355 0.91008 0.0
C205 C 0.1235 0.53435 0.89648 0.0
C206 C 0.12345 0.5308 0.86984 0.0
C207 C 0.07771 0.5283 0.85673 0.0
C208 C 1.03534 0.52954 0.87059 0.0
C209 C 1.0426 0.53371 0.89718 0.0
C210 C 0.98161 0.52588 0.86119 0.0
C211 C 0.98343 0.55619 0.84322 0.0
C212 C 0.92804 0.497 0.87459 0.0
C213 C 0.88216 0.49882 0.87113 0.0
C214 C 0.88409 0.52946 0.85363 0.0
C215 C 0.17392 0.53107 0.85937 0.0
C216 C 0.23363 0.5704 0.86634 0.0
C217 C 0.16504 0.48892 0.84891 0.0
C218 C 0.21126 0.48681 0.84562 0.0
C219 C 0.2709 0.52637 0.85274 0.0
C220 C 0.27961 0.56841 0.86299 0.0
C221 C 0.9367 0.5576 0.83951 0.0
H222 H 0.18281 0.59752 0.98867 0.0
H223 H 0.18005 0.59363 0.94217 0.0
H224 H 0.99383 0.48306 0.94285 0.0
H225 H 0.99711 0.48771 0.98923 0.0
H226 H 0.15451 0.53526 0.90716 0.0
H227 H 1.01515 0.53658 0.90854 0.0
H228 H 0.07506 0.52531 0.83628 0.0
H229 H 1.02225 0.58065 0.83241 0.0
H230 H 0.92158 0.47275 0.88882 0.0
H231 H 0.84439 0.47581 0.88272 0.0
H232 H 0.24516 0.60343 0.87543 0.0
H233 H 0.12126 0.45605 0.84404 0.0
H234 H 0.94276 0.58224 0.82567 0.0
H235 H 0.32287 0.60038 0.86919 0.0
H236 H 0.19956 0.45292 0.83776 0.0
C237 C 0.07138 0.52313 0.31443 0.0
C238 C 0.12379 0.55654 0.30195 0.0
C239 C 0.06946 0.52457 0.34085 0.0
C240 C 0.12035 0.55821 0.35569 0.0
C241 C 0.17307 0.59084 0.34297 0.0
C242 C 0.17452 0.59074 0.31651 0.0
C243 C 0.11836 0.55968 0.38413 0.0
C244 C 0.07452 0.5174 0.39728 0.0
C245 C 0.07031 0.51836 0.42383 0.0
C246 C 0.11438 0.56303 0.4377 0.0
C247 C 0.16012 0.60582 0.42481 0.0
C248 C 0.16019 0.60356 0.39826 0.0
C249 C 0.20992 0.65402 0.43765 0.0
C250 C 0.20312 0.68644 0.44862 0.0
C251 C 0.26664 0.67247 0.43365 0.0
C252 C 0.31494 0.72206 0.43951 0.0
C253 C 0.30817 0.75499 0.44943 0.0
C254 C 1.01897 0.47156 0.43577 0.0
C255 C 0.96368 0.44346 0.42407 0.0
C256 C 1.02482 0.45123 0.4566 0.0
C257 C 0.97764 0.4033 0.46444 0.0
C258 C 0.92349 0.37453 0.45166 0.0
C259 C 0.917 0.39583 0.43177 0.0
C260 C 0.25171 0.73634 0.45448 0.0
H261 H 1.03156 0.49645 0.30363 0.0
H262 H 1.02762 0.4996 0.34945 0.0
H263 H 0.2137 0.61646 0.35329 0.0
H264 H 0.21552 0.61693 0.30736 0.0
H265 H 1.04343 0.48274 0.38683 0.0
H266 H 0.19342 0.63703 0.38865 0.0
H267 H 0.11306 0.56455 0.45815 0.0
H268 H 0.16021 0.67396 0.45131 0.0
H269 H 0.27347 0.64891 0.42473 0.0
H270 H 0.35771 0.7352 0.43542 0.0
H271 H 0.95687 0.4578 0.40822 0.0
H272 H 0.06647 0.47131 0.46602 0.0
H273 H 0.24513 0.76086 0.46209 0.0
H274 H 0.87597 0.37492 0.42165 0.0
H275 H 0.98401 0.38791 0.47986 0.0
C276 C 0.60373 1.01006 0.63129 0.0
C277 C 0.62585 0.05401 0.61964 0.0
C278 C 0.60445 1.00831 0.65775 0.0
C279 C 0.62821 0.05073 0.67326 0.0
C280 C 0.65267 0.09518 0.66134 0.0
C281 C 0.65104 0.09667 0.63494 0.0
C282 C 0.62562 0.04841 0.70162 0.0
C283 C 0.62995 0.01681 0.71444 0.0
C284 C 0.62615 1.01371 0.74103 0.0
C285 C 0.61876 0.04374 0.75494 0.0
C286 C 0.61489 0.07605 0.74257 0.0
C287 C 0.61773 0.07746 0.71601 0.0
C288 C 0.60704 0.10825 0.75687 0.0
C289 C 0.566 0.08952 0.77605 0.0
C290 C 0.6383 0.15758 0.75017 0.0
C291 C 0.62761 0.18681 0.76169 0.0
C292 C 0.58529 0.1675 0.78016 0.0
C293 C 0.63018 0.9791 0.75399 0.0
C294 C 0.60242 0.93153 0.74339 0.0
C295 C 0.66293 0.9935 0.77655 0.0
C296 C 0.66874 0.96168 0.78782 0.0
C297 C 0.64152 0.91453 0.77695 0.0
C298 C 0.60793 0.8997 0.75474 0.0
C299 C 0.55502 0.11879 0.78748 0.0
H300 H 0.58408 0.97665 0.61989 0.0
H301 H 0.58463 0.97324 0.666 0.0
H302 H 0.6728 0.12901 0.67239 0.0
H303 H 0.66867 0.13107 0.62643 0.0
H304 H 0.63759 0.99523 0.70373 0.0
H305 H 0.61205 0.1005 0.70644 0.0
H306 H 0.61592 0.04194 0.77535 0.0
H307 H 0.54085 0.05169 0.78155 0.0
H308 H 0.67068 0.17346 0.73571 0.0
H309 H 0.65151 0.22425 0.75577 0.0
H310 H 0.57618 0.91875 0.72627 0.0
H311 H 0.68534 0.02988 0.78516 0.0
H312 H 0.52206 0.10312 0.80166 0.0
H313 H 0.58636 0.86352 0.74602 0.0
H314 H 0.69502 0.97406 0.8049 0.0
C315 C 0.53745 0.41904 0.9926 0.0
C316 C 0.52112 0.44648 0.98642 0.0
C317 C 0.5184 0.39303 0.01492 0.0
C318 C 0.48216 0.39367 0.03111 0.0
C319 C 0.4675 0.42254 0.02518 0.0
C320 C 0.48701 0.44889 0.00304 0.0
C321 C 0.46039 0.36523 0.05445 0.0
C322 C 0.49888 0.37018 0.0716 0.0
C323 C 0.48052 0.34969 0.09558 0.0
C324 C 0.4225 0.32279 0.102 0.0
C325 C 0.38342 0.31759 0.08499 0.0
C326 C 0.40244 0.33783 0.061 0.0
C327 C 0.32697 0.30017 0.09406 0.0
C328 C 0.29256 0.25981 0.10995 0.0
C329 C 0.31091 0.32834 0.08922 0.0
C330 C 0.26375 0.31836 0.10106 0.0
C331 C 0.23142 0.28002 0.118 0.0
C332 C 0.52437 0.36396 0.11499 0.0
C333 C 0.57096 0.36657 0.10834 0.0
C334 C 0.5248 0.38242 0.13902 0.0
C335 C 0.57325 0.40698 0.15509 0.0
C336 C 0.62181 0.41369 0.14714 0.0
C337 C 0.61944 0.39143 0.12429 0.0
C338 C 0.24461 0.24952 0.12175 0.0
H339 H 0.56334 0.41654 0.97977 0.0
H340 H 0.53052 0.37127 0.01917 0.0
H341 H 0.44067 0.42452 0.03763 0.0
H342 H 0.4738 0.46969 -0.00161 0.0
H343 H 0.54426 0.39352 0.06703 0.0
H344 H 0.3727 0.3344 0.04783 0.0
H345 H 0.40888 0.30902 0.12089 0.0
H346 H 0.3039 0.23739 0.1139 0.0
H347 H 0.3369 0.36022 0.07752 0.0
H348 H 0.25425 0.34238 0.09799 0.0
H349 H 0.57135 0.35202 0.09013 0.0
H350 H 0.48975 0.38135 0.1446 0.0
H351 H 0.21972 0.21955 0.13466 0.0
H352 H 0.65659 0.39602 0.11807 0.0
H353 H 0.57462 0.42394 0.17276 0.0
C354 C 0.18958 0.33278 0.16166 0.0
C355 C 0.15572 0.33275 0.14346 0.0
C356 C 0.14106 0.2659 0.11939 0.0
C357 C 0.18827 0.27712 0.13303 0.0
N358 N 0.2477 0.31011 0.1708 0.0
N359 N 0.08815 0.29284 0.10834 0.0
C360 C 0.20781 0.30563 0.15598 0.0
C361 C 0.12631 0.29595 0.12378 0.0
N362 N 0.20617 0.36074 0.18351 0.0
N363 N 0.11413 0.22903 0.10113 0.0
H364 H 0.07623 0.31409 0.11187 0.0
H365 H 0.06884 0.26994 0.09216 0.0
H366 H 0.12648 0.20799 0.09792 0.0
H367 H 0.07795 0.2172 0.0907 0.0
H368 H 0.22908 0.36133 0.19828 0.0
H369 H 0.19286 0.38084 0.18751 0.0
H370 H 0.26876 0.33427 0.18646 0.0
H371 H 0.25981 0.28907 0.16715 0.0
C372 C 0.78034 0.25675 0.4774 0.0
C373 C 0.7753 0.21883 0.46389 0.0
C374 C 0.87233 0.28327 0.44638 0.0
C375 C 0.87431 0.32109 0.45759 0.0
N376 N 0.82718 0.34377 0.48185 0.0
N377 N 0.81355 0.19786 0.43179 0.0
C378 C 0.82735 0.30771 0.47255 0.0
C379 C 0.82084 0.23262 0.44759 0.0
N380 N 0.7415 0.24421 0.49572 0.0
N381 N 0.91982 0.29568 0.43437 0.0
H382 H 0.77642 0.16095 0.43131 0.0
H383 H 0.84172 0.20627 0.41734 0.0
H384 H 0.95724 0.33208 0.432 0.0
H385 H 0.92396 0.26996 0.42858 0.0
H386 H 0.74567 0.26982 0.50797 0.0
H387 H 0.70784 0.2078 0.50038 0.0
H388 H 0.79138 0.33653 0.49014 0.0
H389 H 0.86185 0.38126 0.47981 0.0
C390 C 0.68259 0.834 0.78434 0.0
C391 C 0.66056 0.81441 0.80858 0.0
C392 C 0.6228 0.85806 0.81152 0.0
C393 C 0.64922 0.88095 0.78831 0.0
N394 N 0.71388 0.89794 0.75512 0.0
N395 N 0.61827 0.81443 0.84718 0.0
C396 C 0.6819 0.87096 0.77545 0.0
C397 C 0.63307 0.82836 0.82273 0.0
N398 N 0.70214 0.81587 0.76931 0.0
N399 N 0.58609 0.86316 0.82243 0.0
H400 H 0.62521 0.79288 0.85601 0.0
H401 H 0.60383 0.82771 0.8594 0.0
H402 H 0.57737 0.8844 0.81482 0.0
H403 H 0.56054 0.84311 0.83778 0.0
H404 H 0.71268 0.82464 0.75043 0.0
H405 H 0.70286 0.78851 0.77493 0.0
H406 H 0.74344 0.89616 0.74664 0.0
H407 H 0.71501 0.92559 0.74818 0.0
C408 C 0.76075 0.46202 0.17887 0.0
C409 C 0.79636 0.51229 0.17261 0.0
C410 C 0.71326 0.5002 0.15597 0.0
C411 C 0.6781 0.44911 0.16063 0.0
N412 N 0.6632 0.38366 0.18239 0.0
N413 N 0.80589 0.58256 0.16279 0.0
C414 C 0.70023 0.43086 0.17425 0.0
C415 C 0.77212 0.53254 0.16391 0.0
N416 N 0.78536 0.44382 0.18794 0.0
N417 N 0.69161 0.51715 0.14231 0.0
H418 H 0.84949 0.60689 0.16823 0.0
H419 H 0.78976 0.60007 0.1588 0.0
H420 H 0.64852 0.49492 0.13636 0.0
H421 H 0.71699 0.55266 0.13556 0.0
H422 H 0.76295 0.40645 0.1901 0.0
H423 H 0.82934 0.46637 0.1925 0.0
H424 H 0.67566 0.36893 0.19407 0.0
H425 H 0.61863 0.36044 0.17912 0.0
C426 C 0.44437 0.87832 0.47939 0.0
C427 C 0.46297 0.9113 0.45922 0.0
C428 C 0.37878 0.84198 0.43321 0.0
C429 C 0.3604 0.80926 0.45324 0.0
N430 N 0.37133 0.79651 0.49626 0.0
N431 N 0.45552 0.92046 0.41481 0.0
C432 C 0.39232 0.82755 0.47651 0.0
C433 C 0.43185 0.89207 0.43563 0.0
N434 N 0.47731 0.89506 0.50111 0.0
N435 N 0.34459 0.82537 0.41191 0.0
H436 H 0.49563 0.956 0.4152 0.0
H437 H 0.43877 0.90725 0.39651 0.0
H438 H 0.30668 0.78885 0.40904 0.0
H439 H 0.35111 0.84838 0.39796 0.0
H440 H 0.47087 0.8725 0.51529 0.0
H441 H 0.51384 0.9317 0.50471 0.0
H442 H 0.38774 0.80759 0.5147 0.0
H443 H 0.3344 0.7593 0.49462 0.0
C444 C 0.59327 0.26377 0.81986 0.0
C445 C 0.54796 0.25959 0.80848 0.0
C446 C 0.52722 0.19512 0.77859 0.0
C447 C 0.57082 0.19777 0.79068 0.0
N448 N 0.64038 0.22945 0.82467 0.0
N449 N 0.46716 0.21768 0.77907 0.0
C450 C 0.60242 0.23067 0.81187 0.0
C451 C 0.51349 0.22406 0.78848 0.0
N452 N 0.62829 0.30012 0.83797 0.0
N453 N 0.50026 0.16608 0.75706 0.0
H454 H 0.45742 0.23975 0.78479 0.0
H455 H 0.43606 0.18864 0.76675 0.0
H456 H 0.50766 0.14318 0.74972 0.0
H457 H 0.47329 0.16678 0.74548 0.0
H458 H 0.66614 0.30922 0.84502 0.0
H459 H 0.62134 0.32348 0.84503 0.0
H460 H 0.66055 0.2485 0.84179 0.0
H461 H 0.6488 0.2064 0.81905 0.0
C462 C 0.68449 0.83826 0.52459 0.0
C463 C 0.64133 0.83249 0.50999 0.0
C464 C 0.58242 0.74256 0.50872 0.0
C465 C 0.62311 0.74825 0.52528 0.0
N466 N 0.7084 0.80066 0.55223 0.0
N467 N 0.54636 0.77986 0.49043 0.0
C468 C 0.67305 0.79591 0.53407 0.0
C469 C 0.58946 0.78478 0.50262 0.0
N470 N 0.73703 0.88423 0.5289 0.0
N471 N 0.53792 0.69696 0.49835 0.0
H472 H 0.55049 0.81001 0.48532 0.0
H473 H 0.50509 0.74612 0.48699 0.0
H474 H 0.53136 0.66529 0.50257 0.0
H475 H 0.5102 0.69095 0.48414 0.0
H476 H 0.77248 0.89034 0.53689 0.0
H477 H 0.74687 0.91629 0.52256 0.0
H478 H 0.74157 0.83403 0.56152 0.0
H479 H 0.7018 0.77061 0.55961 0.0
C480 C 0.74546 0.51214 0.82722 0.0
C481 C 0.73301 0.53322 0.8468 0.0
C482 C 0.82283 0.55618 0.86946 0.0
C483 C 0.83246 0.53181 0.85083 0.0
N484 N 0.79289 0.47977 0.81316 0.0
N485 N 0.75931 0.56824 0.88924 0.0
C486 C 0.79073 0.50811 0.83012 0.0
C487 C 0.77215 0.55354 0.86847 0.0
N488 N 0.71569 0.49779 0.80476 0.0
N489 N 0.86363 0.58367 0.88828 0.0
H490 H 0.72359 0.56619 0.88976 0.0
H491 H 0.78044 0.57785 0.90671 0.0
H492 H 0.89945 0.58596 0.88995 0.0
H493 H 0.86483 0.60746 0.90078 0.0
H494 H 0.72553 0.48725 0.78863 0.0
H495 H 0.68474 0.5012 0.80146 0.0
H496 H 0.76072 0.45613 0.79954 0.0
H497 H 0.82477 0.47684 0.81413 0.0
C498 C 0.28666 0.73794 0.17433 0.0
C499 C 0.2746 0.71085 0.15125 0.0
C500 C 0.3669 0.78502 0.13455 0.0
C501 C 0.37647 0.81302 0.15687 0.0
N502 N 0.34088 0.81775 0.19653 0.0
N503 N 0.29948 0.71059 0.10802 0.0
C504 C 0.33488 0.78985 0.17629 0.0
C505 C 0.31389 0.73494 0.131 0.0
N506 N 0.25351 0.71352 0.19492 0.0
N507 N 0.40912 0.80605 0.11691 0.0
H508 H 0.26144 0.67425 0.10478 0.0
H509 H 0.32275 0.72738 0.09168 0.0
H510 H 0.4473 0.84274 0.11852 0.0
H511 H 0.40821 0.78643 0.10162 0.0
H512 H 0.2636 0.72973 0.21304 0.0
H513 H 0.21869 0.67564 0.1945 0.0
H514 H 0.30894 0.80461 0.20985 0.0
H515 H 0.37593 0.85542 0.19896 0.0
C516 C 0.52959 0.27758 0.51115 0.0
C517 C 0.57109 0.28664 0.49387 0.0
C518 C 0.62346 0.37555 0.49721 0.0
C519 C 0.58444 0.36679 0.51591 0.0
N520 N 0.50502 0.3109 0.54332 0.0
N521 N 0.66096 0.34369 0.47238 0.0
C522 C 0.53864 0.31814 0.52357 0.0
C523 C 0.61904 0.33553 0.48742 0.0
N524 N 0.48099 0.23012 0.51534 0.0
N525 N 0.66373 0.42197 0.48836 0.0
H526 H 0.65821 0.31519 0.46424 0.0
H527 H 0.70022 0.37857 0.46926 0.0
H528 H 0.66866 0.4522 0.49537 0.0
H529 H 0.68943 0.43004 0.47287 0.0
H530 H 0.44587 0.22098 0.52535 0.0
H531 H 0.47373 0.19941 0.50727 0.0
H532 H 0.47533 0.27717 0.55179 0.0
H533 H 0.50967 0.33955 0.55263 0.0
C534 C 0.37865 0.49718 0.86515 0.0
C535 C 0.42181 0.52196 0.84576 0.0
C536 C 0.36853 0.55216 0.832 0.0
C537 C 0.32279 0.52414 0.85004 0.0
N538 N 0.28457 0.4644 0.88213 0.0
N539 N 0.44677 0.56624 0.80761 0.0
C540 C 0.32823 0.49498 0.86588 0.0
C541 C 0.4135 0.54781 0.82859 0.0
N542 N 0.38752 0.47794 0.88433 0.0
N543 N 0.36961 0.58389 0.81769 0.0
H544 H 0.47696 0.56206 0.80375 0.0
H545 H 0.4403 0.5807 0.79273 0.0
H546 H 0.33706 0.58604 0.81822 0.0
H547 H 0.4045 0.61039 0.80671 0.0
H548 H 0.3631 0.46445 0.90063 0.0
H549 H 0.42335 0.48021 0.88518 0.0
H550 H 0.28044 0.43744 0.89193 0.0
H551 H 0.24996 0.46364 0.88439 0.0
C552 C 0.94608 0.38447 0.1774 0.0
C553 C 0.95714 0.40704 0.15377 0.0
C554 C 0.86542 0.32824 0.13673 0.0
C555 C 0.85702 0.30496 0.15981 0.0
N556 N 0.89597 0.30895 0.2003 0.0
N557 N 0.92959 0.39866 0.11003 0.0
C558 C 0.89932 0.33264 0.17959 0.0
C559 C 0.91747 0.37823 0.13315 0.0
N560 N 0.97928 0.41281 0.19816 0.0
N561 N 0.82253 0.30317 0.11857 0.0
H562 H 0.96483 0.43563 0.10716 0.0
H563 H 0.90676 0.37856 0.09346 0.0
H564 H 0.78462 0.26676 0.12043 0.0
H565 H 0.82248 0.31925 0.1025 0.0
H566 H 0.96958 0.4001 0.21649 0.0
H567 H 1.01361 0.45043 0.19741 0.0
H568 H 0.92869 0.32553 0.21404 0.0
H569 H 0.86292 0.27122 0.20257 0.0
C570 C 0.07812 0.50646 0.06126 0.0
C571 C 0.08826 0.54658 0.07482 0.0
C572 C 0.09896 0.58424 0.03438 0.0
C573 C 0.09159 0.54531 0.02092 0.0
N574 N 0.0843 0.474 0.02157 0.0
N575 N 0.11821 0.6279 0.07458 0.0
C576 C 0.08412 0.50776 0.03441 0.0
C577 C 0.10173 0.58678 0.06143 0.0
N578 N 1.06114 0.46632 0.07395 0.0
N579 N 0.10114 0.61783 0.02128 0.0
H580 H 0.11975 0.63088 0.09429 0.0
H581 H 0.13483 0.66061 0.06608 0.0
H582 H 0.10011 0.61762 0.00156 0.0
H583 H 0.09962 0.64364 0.02982 0.0
H584 H 1.04603 0.4333 0.06507 0.0
H585 H 1.05851 0.46484 0.09355 0.0
H586 H 0.08552 0.44902 0.0304 0.0
H587 H 0.08807 0.47355 0.00197 0.0
C588 C 0.62705 0.02586 0.37962 0.0
C589 C 0.62904 0.061 0.3942 0.0
C590 C 0.61116 0.08573 0.35559 0.0
C591 C 0.61897 0.05678 0.34056 0.0
N592 N 0.64862 1.00807 0.33927 0.0
N593 N 0.63945 0.13398 0.39457 0.0
C594 C 0.63053 0.02892 0.35282 0.0
C595 C 0.62546 0.09357 0.38183 0.0
N596 N 0.62174 0.98949 0.39126 0.0
N597 N 0.58892 0.10489 0.34508 0.0
H598 H 0.65559 0.14337 0.4131 0.0
H599 H 0.64193 0.16102 0.38575 0.0
H600 H 0.57488 0.09777 0.32622 0.0
H601 H 0.57846 0.12302 0.35585 0.0
H602 H 0.61489 0.96038 0.38127 0.0
H603 H 0.61819 0.98566 0.41082 0.0
H604 H 0.66251 0.99129 0.34777 0.0
H605 H 0.65626 1.01248 0.31993 0.0
C606 C 0.58352 0.50682 0.75461 0.0
C607 C 0.58056 0.53853 0.76985 0.0
C608 C 0.60255 0.58766 0.73292 0.0
C609 C 0.59643 0.55146 0.71715 0.0
N610 N 0.57085 0.47167 0.71272 0.0
N611 N 0.58221 0.6069 0.77338 0.0
C612 C 0.58449 0.50981 0.72792 0.0
C613 C 0.58894 0.57855 0.759 0.0
N614 N 0.58616 0.4742 0.76564 0.0
N615 N 0.62272 0.6312 0.72312 0.0
H616 H 0.57351 0.60176 0.79262 0.0
H617 H 0.58137 0.63313 0.76596 0.0
H618 H 0.63396 0.63936 0.7042 0.0
H619 H 0.63336 0.66089 0.73415 0.0
H620 H 0.59411 0.45363 0.75558 0.0
H621 H 0.58671 0.47162 0.78517 0.0
H622 H 0.55567 0.43818 0.71967 0.0
H623 H 0.56906 0.47135 0.69302 0.0
C624 C 0.66341 0.09389 0.55103 0.0
C625 C 0.60784 0.06171 0.53876 0.0
C626 C 0.56422 0.0269 0.58004 0.0
C627 C 0.61982 0.05499 0.59158 0.0
N628 N 0.72264 0.10633 0.5864 0.0
N629 N 0.50711 0.98773 0.5416 0.0
C630 C 0.6695 0.08557 0.57651 0.0
C631 C 0.55884 0.02522 0.55326 0.0
N632 N 0.70986 0.13448 0.53937 0.0
N633 N 0.51627 1.00345 0.5946 0.0
H634 H 0.50067 0.98322 0.52207 0.0
H635 H 0.47225 0.95771 0.55125 0.0
H636 H 0.51802 1.00483 0.61432 0.0
H637 H 0.47543 0.98697 0.58715 0.0
H638 H 0.74951 0.16125 0.54861 0.0
H639 H 0.7076 0.14506 0.5217 0.0
H640 H 0.75956 0.12484 0.5755 0.0
H641 H 0.72864 0.10064 0.60485 0.0
C642 C 0.50088 0.45854 0.91729 0.0
C643 C 0.55329 0.50687 0.9127 0.0
C644 C 0.58598 0.5152 0.95659 0.0
C645 C 0.53321 0.46734 0.96104 0.0
N646 N 0.4378 0.39477 0.94716 0.0
N647 N 0.65081 0.57695 0.92612 0.0
C648 C 0.49007 0.43931 0.94176 0.0
C649 C 0.5972 0.53424 0.93191 0.0
N650 N 0.46232 0.43002 0.89791 0.0
N651 N 0.62439 0.543 0.97626 0.0
H652 H 0.66131 0.59162 0.90819 0.0
H653 H 0.68659 0.5959 0.93832 0.0
H654 H 0.61806 0.52963 0.99435 0.0
H655 H 0.66051 0.58023 0.97526 0.0
H656 H 0.42691 0.39258 0.89879 0.0
H657 H 0.46822 0.443 0.87998 0.0
H658 H 0.40133 0.37558 0.93538 0.0
H659 H 0.42925 0.3777 0.96431 0.0
C660 C 0.16428 0.55276 0.23376 0.0
C661 C 0.12122 0.54842 0.21989 0.0
C662 C 0.0892 0.56039 0.25959 0.0
C663 C 0.12507 0.55587 0.27364 0.0
N664 N 0.1883 0.53693 0.27326 0.0
N665 N 1.03302 0.53557 0.22114 0.0
C666 C 0.16051 0.54919 0.26052 0.0
C667 C 0.0811 0.54903 0.23318 0.0
N668 N 0.20963 0.5615 0.22158 0.0
N669 N 1.0637 0.57647 0.27124 0.0
H670 H 1.02316 0.52303 0.20237 0.0
H671 H 0.99992 0.53122 0.23059 0.0
H672 H 0.07055 0.58727 0.29037 0.0
H673 H 1.04113 0.58425 0.26126 0.0
H674 H 0.24464 0.56913 0.23117 0.0
H675 H 0.21556 0.56681 0.20218 0.0
H676 H 0.21011 0.52713 0.26409 0.0
H677 H 0.18435 0.53126 0.29264 0.0
loop_
_geom_bond_atom_site_label_1
_geom_bond_atom_site_label_2
_geom_bond_distance
_geom_bond_site_symmetry_2
_ccdc_geom_bond_type
La0 C2 2.928 . S
La0 O20 2.521 . S
La0 O21 2.628 . S
La0 O22 2.554 . S
La0 O23 2.757 . S
La0 O24 2.470 . S
La0 O29 2.482 . S
La0 O31 2.503 1_455 S
La1 C11 2.928 . S
La1 O23 2.482 1_655 S
La1 O25 2.503 1_655 S
La1 O26 2.521 . S
La1 O27 2.628 . S
La1 O28 2.554 . S
La1 O29 2.757 1_655 S
La1 O30 2.470 . S
C2 La0 2.928 . S
C2 C3 1.503 . S
C2 O20 1.261 . S
C2 O21 1.243 . S
C3 C2 1.503 . S
C3 C4 1.394 . S
C3 C8 1.373 . S
C4 C3 1.394 . S
C4 C5 1.380 . S
C4 H32 0.930 . S
C5 C4 1.380 . S
C5 C6 1.376 . S
C5 H33 0.930 . S
C6 C5 1.376 . S
C6 C7 1.370 . S
C7 C6 1.370 . S
C7 C8 1.396 . S
C7 H34 0.929 . S
C8 C3 1.373 . S
C8 C7 1.396 . S
C8 H35 0.929 . S
C9 O22 1.240 . S
C9 O23 1.289 . S
C10 O24 1.258 . S
C10 O25 1.256 . S
C11 La1 2.928 . S
C11 C12 1.503 . S
C11 O26 1.261 . S
C11 O27 1.243 . S
C12 C11 1.503 . S
C12 C13 1.394 . S
C12 C17 1.373 . S
C13 C12 1.394 . S
C13 C14 1.380 . S
C13 H36 0.930 . S
C14 C13 1.380 . S
C14 C15 1.376 . S
C14 H37 0.930 . S
C15 C14 1.376 . S
C15 C16 1.370 . S
C16 C15 1.370 . S
C16 C17 1.396 . S
C16 H38 0.929 . S
C17 C12 1.373 . S
C17 C16 1.396 . S
C17 H39 0.929 . S
C18 O28 1.240 1_455 S
C18 O29 1.289 . S
C19 O30 1.258 . S
C19 O31 1.256 . S
O20 La0 2.521 . S
O20 C2 1.261 . S
O21 La0 2.628 . S
O21 C2 1.243 . S
O22 La0 2.554 . S
O22 C9 1.240 . S
O23 La0 2.757 . S
O23 La1 2.482 1_455 S
O23 C9 1.289 . S
O24 La0 2.470 . S
O24 C10 1.258 . S
O25 La1 2.503 1_455 S
O25 C10 1.256 . S
O26 La1 2.521 . S
O26 C11 1.261 . S
O27 La1 2.628 . S
O27 C11 1.243 . S
O28 La1 2.554 . S
O28 C18 1.240 1_655 S
O29 La0 2.482 . S
O29 La1 2.757 1_455 S
O29 C18 1.289 . S
O30 La1 2.470 . S
O30 C19 1.258 . S
O31 La0 2.503 1_655 S
O31 C19 1.256 . S
H32 C4 0.930 . S
H33 C5 0.930 . S
H34 C7 0.929 . S
H35 C8 0.929 . S
H36 C13 0.930 . S
H37 C14 0.930 . S
H38 C16 0.929 . S
H39 C17 0.929 . S
La40 C42 2.928 . S
La40 O60 2.521 . S
La40 O61 2.628 . S
La40 O62 2.554 . S
La40 O63 2.757 1_565 S
La40 O64 2.470 . S
La40 O69 2.482 . S
La40 O71 2.503 1_565 S
La41 C51 2.928 . S
La41 O63 2.482 . S
La41 O65 2.503 1_545 S
La41 O66 2.521 . S
La41 O67 2.628 . S
La41 O68 2.554 . S
La41 O69 2.757 1_545 S
La41 O70 2.470 . S
C42 La40 2.928 . S
C42 C43 1.503 . S
C42 O60 1.261 . S
C42 O61 1.243 . S
C43 C42 1.503 . S
C43 C44 1.394 . S
C43 C48 1.373 . S
C44 C43 1.394 . S
C44 C45 1.380 . S
C44 H72 0.930 . S
C45 C44 1.380 . S
C45 C46 1.376 . S
C45 H73 0.930 . S
C46 C45 1.376 . S
C46 C47 1.370 . S
C47 C46 1.370 . S
C47 C48 1.396 . S
C47 H74 0.929 . S
C48 C43 1.373 . S
C48 C47 1.396 . S
C48 H75 0.929 . S
C49 O62 1.240 1_545 S
C49 O63 1.289 . S
C50 O64 1.258 . S
C50 O65 1.256 . S
C51 La41 2.928 . S
C51 C52 1.503 . S
C51 O66 1.261 . S
C51 O67 1.243 . S
C52 C51 1.503 . S
C52 C53 1.394 . S
C52 C57 1.373 . S
C53 C52 1.394 . S
C53 C54 1.380 . S
C53 H76 0.930 . S
C54 C53 1.380 . S
C54 C55 1.376 . S
C54 H77 0.930 . S
C55 C54 1.376 . S
C55 C56 1.370 . S
C56 C55 1.370 . S
C56 C57 1.396 . S
C56 H78 0.929 . S
C57 C52 1.373 . S
C57 C56 1.396 . S
C57 H79 0.929 . S
C58 O68 1.240 . S
C58 O69 1.289 1_545 S
C59 O70 1.258 . S
C59 O71 1.256 . S
O60 La40 2.521 . S
O60 C42 1.261 . S
O61 La40 2.628 . S
O61 C42 1.243 . S
O62 La40 2.554 . S
O62 C49 1.240 1_565 S
O63 La40 2.757 1_545 S
O63 La41 2.482 . S
O63 C49 1.289 . S
O64 La40 2.470 . S
O64 C50 1.258 . S
O65 La41 2.503 1_565 S
O65 C50 1.256 . S
O66 La41 2.521 . S
O66 C51 1.261 . S
O67 La41 2.628 . S
O67 C51 1.243 . S
O68 La41 2.554 . S
O68 C58 1.240 . S
O69 La40 2.482 . S
O69 La41 2.757 1_565 S
O69 C58 1.289 1_565 S
O70 La41 2.470 . S
O70 C59 1.258 . S
O71 La40 2.503 1_545 S
O71 C59 1.256 . S
H72 C44 0.930 . S
H73 C45 0.930 . S
H74 C47 0.929 . S
H75 C48 0.929 . S
H76 C53 0.930 . S
H77 C54 0.930 . S
H78 C56 0.929 . S
H79 C57 0.929 . S
La80 C82 2.928 . S
La80 O100 2.521 . S
La80 O101 2.628 . S
La80 O102 2.554 . S
La80 O103 2.757 . S
La80 O104 2.470 . S
La80 O109 2.482 . S
La80 O111 2.503 . S
La81 C91 2.928 . S
La81 O103 2.482 . S
La81 O105 2.503 . S
La81 O106 2.521 . S
La81 O107 2.628 . S
La81 O108 2.554 . S
La81 O109 2.757 . S
La81 O110 2.470 . S
C82 La80 2.928 . S
C82 C83 1.503 . S
C82 O100 1.261 . S
C82 O101 1.243 . S
C83 C82 1.503 . S
C83 C84 1.394 . S
C83 C88 1.373 . S
C84 C83 1.394 . S
C84 C85 1.380 . S
C84 H112 0.930 . S
C85 C84 1.380 . S
C85 C86 1.376 . S
C85 H113 0.930 . S
C86 C85 1.376 . S
C86 C87 1.370 . S
C87 C86 1.370 . S
C87 C88 1.396 . S
C87 H114 0.929 . S
C88 C83 1.373 . S
C88 C87 1.396 . S
C88 H115 0.929 . S
C89 O102 1.240 . S
C89 O103 1.289 . S
C90 O104 1.258 . S
C90 O105 1.256 . S
C91 La81 2.928 . S
C91 C92 1.503 . S
C91 O106 1.261 . S
C91 O107 1.243 . S
C92 C91 1.503 . S
C92 C93 1.394 . S
C92 C97 1.373 . S
C93 C92 1.394 . S
C93 C94 1.380 . S
C93 H116 0.930 . S
C94 C93 1.380 . S
C94 C95 1.376 . S
C94 H117 0.930 . S
C95 C94 1.376 . S
C95 C96 1.370 . S
C96 C95 1.370 . S
C96 C97 1.396 . S
C96 H118 0.929 . S
C97 C92 1.373 . S
C97 C96 1.396 . S
C97 H119 0.929 . S
C98 O108 1.240 . S
C98 O109 1.289 . S
C99 O110 1.258 . S
C99 O111 1.256 . S
O100 La80 2.521 . S
O100 C82 1.261 . S
O101 La80 2.628 . S
O101 C82 1.243 . S
O102 La80 2.554 . S
O102 C89 1.240 . S
O103 La80 2.757 . S
O103 La81 2.482 . S
O103 C89 1.289 . S
O104 La80 2.470 . S
O104 C90 1.258 . S
O105 La81 2.503 . S
O105 C90 1.256 . S
O106 La81 2.521 . S
O106 C91 1.261 . S
O107 La81 2.628 . S
O107 C91 1.243 . S
O108 La81 2.554 . S
O108 C98 1.240 . S
O109 La80 2.482 . S
O109 La81 2.757 . S
O109 C98 1.289 . S
O110 La81 2.470 . S
O110 C99 1.258 . S
O111 La80 2.503 . S
O111 C99 1.256 . S
H112 C84 0.930 . S
H113 C85 0.930 . S
H114 C87 0.929 . S
H115 C88 0.929 . S
H116 C93 0.930 . S
H117 C94 0.930 . S
H118 C96 0.929 . S
H119 C97 0.929 . S
C120 C121 1.386 . S
C120 C122 1.397 . S
C120 H144 0.931 . S
C121 C120 1.386 . S
C121 C125 1.397 1_545 S
C122 C120 1.397 . S
C122 C123 1.384 . S
C122 H145 0.930 . S
C123 C122 1.384 . S
C123 C124 1.377 1_545 S
C123 C126 1.481 . S
C124 C123 1.377 1_565 S
C124 C125 1.389 . S
C124 H146 0.929 . S
C125 C121 1.397 1_565 S
C125 C124 1.389 . S
C125 H147 0.931 . S
C126 C123 1.481 . S
C126 C127 1.387 . S
C126 C131 1.390 1_545 S
C127 C126 1.387 . S
C127 C128 1.401 . S
C127 H148 0.930 . S
C128 C127 1.401 . S
C128 C129 1.376 . S
C128 C137 1.511 . S
C129 C128 1.376 . S
C129 C130 1.392 1_545 S
C129 H150 0.931 . S
C130 C129 1.392 1_565 S
C130 C131 1.361 . S
C130 C132 1.500 . S
C131 C126 1.390 1_565 S
C131 C130 1.361 . S
C131 H149 0.931 . S
C132 C130 1.500 . S
C132 C133 1.371 . S
C132 C134 1.365 . S
C133 C132 1.371 . S
C133 C143 1.386 . S
C133 H151 0.931 . S
C134 C132 1.365 . S
C134 C135 1.409 . S
C134 H152 0.929 . S
C135 C134 1.409 . S
C135 C136 1.380 . S
C135 H153 0.930 . S
C136 C135 1.380 . S
C136 C143 1.357 . S
C137 C128 1.511 . S
C137 C138 1.341 . S
C137 C139 1.371 . S
C138 C137 1.341 . S
C138 C142 1.394 . S
C138 H154 0.930 . S
C139 C137 1.371 . S
C139 C140 1.392 . S
C139 H155 0.931 . S
C140 C139 1.392 . S
C140 C141 1.331 . S
C140 H158 0.932 . S
C141 C140 1.331 . S
C141 C142 1.336 . S
C142 C138 1.394 . S
C142 C141 1.336 . S
C142 H157 0.929 . S
C143 C133 1.386 . S
C143 C136 1.357 . S
C143 H156 0.928 . S
H144 C120 0.931 . S
H145 C122 0.930 . S
H146 C124 0.929 . S
H147 C125 0.931 . S
H148 C127 0.930 . S
H149 C131 0.931 . S
H150 C129 0.931 . S
H151 C133 0.931 . S
H152 C134 0.929 . S
H153 C135 0.930 . S
H154 C138 0.930 . S
H155 C139 0.931 . S
H156 C143 0.928 . S
H157 C142 0.929 . S
H158 C140 0.932 . S
C159 C160 1.386 . S
C159 C161 1.397 . S
C159 H183 0.931 . S
C160 C159 1.386 . S
C160 C164 1.397 . S
C161 C159 1.397 . S
C161 C162 1.384 . S
C161 H184 0.930 . S
C162 C161 1.384 . S
C162 C163 1.377 . S
C162 C165 1.481 . S
C163 C162 1.377 . S
C163 C164 1.389 . S
C163 H185 0.929 . S
C164 C160 1.397 . S
C164 C163 1.389 . S
C164 H186 0.931 . S
C165 C162 1.481 . S
C165 C166 1.387 . S
C165 C170 1.390 . S
C166 C165 1.387 . S
C166 C167 1.401 . S
C166 H187 0.930 . S
C167 C166 1.401 . S
C167 C168 1.376 . S
C167 C176 1.511 . S
C168 C167 1.376 . S
C168 C169 1.392 . S
C168 H189 0.931 . S
C169 C168 1.392 . S
C169 C170 1.361 . S
C169 C171 1.500 . S
C170 C165 1.390 . S
C170 C169 1.361 . S
C170 H188 0.931 . S
C171 C169 1.500 . S
C171 C172 1.371 . S
C171 C173 1.365 . S
C172 C171 1.371 . S
C172 C182 1.386 . S
C172 H190 0.931 . S
C173 C171 1.365 . S
C173 C174 1.409 . S
C173 H191 0.929 . S
C174 C173 1.409 . S
C174 C175 1.380 . S
C174 H192 0.930 . S
C175 C174 1.380 . S
C175 C182 1.357 . S
C176 C167 1.511 . S
C176 C177 1.341 . S
C176 C178 1.371 . S
C177 C176 1.341 . S
C177 C181 1.394 . S
C177 H193 0.930 . S
C178 C176 1.371 . S
C178 C179 1.392 . S
C178 H194 0.931 . S
C179 C178 1.392 . S
C179 C180 1.331 . S
C179 H197 0.932 . S
C180 C179 1.331 . S
C180 C181 1.336 . S
C181 C177 1.394 . S
C181 C180 1.336 . S
C181 H196 0.929 . S
C182 C172 1.386 . S
C182 C175 1.357 . S
C182 H195 0.928 . S
H183 C159 0.931 . S
H184 C161 0.930 . S
H185 C163 0.929 . S
H186 C164 0.931 . S
H187 C166 0.930 . S
H188 C170 0.931 . S
H189 C168 0.931 . S
H190 C172 0.931 . S
H191 C173 0.929 . S
H192 C174 0.930 . S
H193 C177 0.930 . S
H194 C178 0.931 . S
H195 C182 0.928 . S
H196 C181 0.929 . S
H197 C179 0.932 . S
C198 C199 1.386 . S
C198 C200 1.397 . S
C198 H222 0.931 . S
C199 C198 1.386 . S
C199 C203 1.397 1_455 S
C200 C198 1.397 . S
C200 C201 1.384 . S
C200 H223 0.930 . S
C201 C200 1.384 . S
C201 C202 1.372 1_455 S
C201 C204 1.481 . S
C202 C201 1.372 1_655 S
C202 C203 1.389 . S
C202 H224 0.934 . S
C203 C199 1.397 1_655 S
C203 C202 1.389 . S
C203 H225 0.931 . S
C204 C201 1.481 . S
C204 C205 1.387 . S
C204 C209 1.390 . S
C205 C204 1.387 . S
C205 C206 1.401 . S
C205 H226 0.930 . S
C206 C205 1.401 . S
C206 C207 1.376 . S
C206 C215 1.511 . S
C207 C206 1.376 . S
C207 C208 1.392 . S
C207 H228 0.931 . S
C208 C207 1.392 . S
C208 C209 1.361 . S
C208 C210 1.500 1_455 S
C209 C204 1.390 . S
C209 C208 1.361 . S
C209 H227 0.931 1_455 S
C210 C208 1.500 1_655 S
C210 C211 1.371 . S
C210 C212 1.365 . S
C211 C210 1.371 . S
C211 C221 1.386 . S
C211 H229 0.931 1_655 S
C212 C210 1.365 . S
C212 C213 1.409 . S
C212 H230 0.929 . S
C213 C212 1.409 . S
C213 C214 1.380 . S
C213 H231 0.930 . S
C214 C213 1.380 . S
C214 C221 1.357 . S
C215 C206 1.511 . S
C215 C216 1.341 . S
C215 C217 1.371 . S
C216 C215 1.341 . S
C216 C220 1.394 . S
C216 H232 0.930 . S
C217 C215 1.371 . S
C217 C218 1.392 . S
C217 H233 0.931 . S
C218 C217 1.392 . S
C218 C219 1.331 . S
C218 H236 0.932 . S
C219 C218 1.331 . S
C219 C220 1.336 . S
C220 C216 1.394 . S
C220 C219 1.336 . S
C220 H235 0.929 . S
C221 C211 1.386 . S
C221 C214 1.357 . S
C221 H234 0.928 . S
H222 C198 0.931 . S
H223 C200 0.930 . S
H224 C202 0.934 . S
H225 C203 0.931 . S
H226 C205 0.930 . S
H227 C209 0.931 1_655 S
H228 C207 0.931 . S
H229 C211 0.931 1_455 S
H230 C212 0.929 . S
H231 C213 0.930 . S
H232 C216 0.930 . S
H233 C217 0.931 . S
H234 C221 0.928 . S
H235 C220 0.929 . S
H236 C218 0.932 . S
C237 C238 1.384 . S
C237 C239 1.397 . S
C237 H261 0.931 . S
C238 C237 1.384 . S
C238 C242 1.399 1_655 S
C239 C237 1.397 . S
C239 C240 1.384 . S
C239 H262 0.930 . S
C240 C239 1.384 . S
C240 C241 1.377 1_655 S
C240 C243 1.481 . S
C241 C240 1.377 1_455 S
C241 C242 1.389 . S
C241 H263 0.929 . S
C242 C238 1.399 1_455 S
C242 C241 1.389 . S
C242 H264 0.931 . S
C243 C240 1.481 . S
C243 C244 1.387 . S
C243 C248 1.390 1_655 S
C244 C243 1.387 . S
C244 C245 1.401 . S
C244 H265 0.930 . S
C245 C244 1.401 . S
C245 C246 1.376 . S
C245 C254 1.511 . S
C246 C245 1.376 . S
C246 C247 1.392 1_655 S
C246 H267 0.931 . S
C247 C246 1.392 1_455 S
C247 C248 1.361 . S
C247 C249 1.500 . S
C248 C243 1.390 1_455 S
C248 C247 1.361 . S
C248 H266 0.931 . S
C249 C247 1.500 . S
C249 C250 1.371 . S
C249 C251 1.365 . S
C250 C249 1.371 . S
C250 C260 1.386 . S
C250 H268 0.931 . S
C251 C249 1.365 . S
C251 C252 1.409 . S
C251 H269 0.929 . S
C252 C251 1.409 . S
C252 C253 1.380 . S
C252 H270 0.930 . S
C253 C252 1.380 . S
C253 C260 1.357 . S
C254 C245 1.511 . S
C254 C255 1.341 . S
C254 C256 1.371 . S
C255 C254 1.341 . S
C255 C259 1.394 . S
C255 H271 0.930 . S
C256 C254 1.371 . S
C256 C257 1.392 . S
C256 H272 0.931 . S
C257 C256 1.392 . S
C257 C258 1.331 . S
C257 H275 0.932 . S
C258 C257 1.331 . S
C258 C259 1.336 . S
C259 C255 1.394 . S
C259 C258 1.336 . S
C259 H274 0.929 . S
C260 C250 1.386 . S
C260 C253 1.357 . S
C260 H273 0.928 . S
H261 C237 0.931 . S
H262 C239 0.930 . S
H263 C241 0.929 . S
H264 C242 0.931 . S
H265 C244 0.930 . S
H266 C248 0.931 . S
H267 C246 0.931 . S
H268 C250 0.931 . S
H269 C251 0.929 . S
H270 C252 0.930 . S
H271 C255 0.930 . S
H272 C256 0.931 . S
H273 C260 0.928 . S
H274 C259 0.929 . S
H275 C257 0.932 . S
C276 C277 1.386 . S
C276 C278 1.397 . S
C276 H300 0.931 . S
C277 C276 1.386 . S
C277 C281 1.397 1_565 S
C278 C276 1.397 . S
C278 C279 1.384 . S
C278 H301 0.930 . S
C279 C278 1.384 . S
C279 C280 1.377 1_565 S
C279 C282 1.481 . S
C280 C279 1.377 1_545 S
C280 C281 1.389 . S
C280 H302 0.929 . S
C281 C277 1.397 1_545 S
C281 C280 1.389 . S
C281 H303 0.931 . S
C282 C279 1.481 . S
C282 C283 1.387 . S
C282 C287 1.390 1_565 S
C283 C282 1.387 . S
C283 C284 1.401 . S
C283 H304 0.930 . S
C284 C283 1.401 . S
C284 C285 1.376 1_565 S
C284 C293 1.511 . S
C285 C284 1.376 1_545 S
C285 C286 1.392 . S
C285 H306 0.931 . S
C286 C285 1.392 . S
C286 C287 1.361 . S
C286 C288 1.500 . S
C287 C282 1.390 1_545 S
C287 C286 1.361 . S
C287 H305 0.931 . S
C288 C286 1.500 . S
C288 C289 1.371 . S
C288 C290 1.365 . S
C289 C288 1.371 . S
C289 C299 1.386 . S
C289 H307 0.931 . S
C290 C288 1.365 . S
C290 C291 1.409 . S
C290 H308 0.929 . S
C291 C290 1.409 . S
C291 C292 1.380 . S
C291 H309 0.930 . S
C292 C291 1.380 . S
C292 C299 1.357 . S
C293 C284 1.511 . S
C293 C294 1.341 . S
C293 C295 1.371 . S
C294 C293 1.341 . S
C294 C298 1.394 . S
C294 H310 0.930 . S
C295 C293 1.371 . S
C295 C296 1.392 . S
C295 H311 0.931 . S
C296 C295 1.392 . S
C296 C297 1.331 . S
C296 H314 0.932 . S
C297 C296 1.331 . S
C297 C298 1.336 . S
C298 C294 1.394 . S
C298 C297 1.336 . S
C298 H313 0.929 . S
C299 C289 1.386 . S
C299 C292 1.357 . S
C299 H312 0.928 . S
H300 C276 0.931 . S
H301 C278 0.930 . S
H302 C280 0.929 . S
H303 C281 0.931 . S
H304 C283 0.930 . S
H305 C287 0.931 . S
H306 C285 0.931 . S
H307 C289 0.931 . S
H308 C290 0.929 . S
H309 C291 0.930 . S
H310 C294 0.930 . S
H311 C295 0.931 . S
H312 C299 0.928 . S
H313 C298 0.929 . S
H314 C296 0.932 . S
C315 C316 1.386 . S
C315 C317 1.397 1_556 S
C315 H339 0.931 . S
C316 C315 1.386 . S
C316 C320 1.397 . S
C317 C315 1.397 1_554 S
C317 C318 1.384 . S
C317 H340 0.930 . S
C318 C317 1.384 . S
C318 C319 1.377 . S
C318 C321 1.481 . S
C319 C318 1.377 . S
C319 C320 1.389 1_554 S
C319 H341 0.929 . S
C320 C316 1.397 . S
C320 C319 1.389 1_556 S
C320 H342 0.931 . S
C321 C318 1.481 . S
C321 C322 1.387 . S
C321 C326 1.390 . S
C322 C321 1.387 . S
C322 C323 1.401 . S
C322 H343 0.930 . S
C323 C322 1.401 . S
C323 C324 1.376 . S
C323 C332 1.511 . S
C324 C323 1.376 . S
C324 C325 1.392 . S
C324 H345 0.931 . S
C325 C324 1.392 . S
C325 C326 1.361 . S
C325 C327 1.500 . S
C326 C321 1.390 . S
C326 C325 1.361 . S
C326 H344 0.931 . S
C327 C325 1.500 . S
C327 C328 1.371 . S
C327 C329 1.365 . S
C328 C327 1.371 . S
C328 C338 1.386 . S
C328 H346 0.931 . S
C329 C327 1.365 . S
C329 C330 1.409 . S
C329 H347 0.929 . S
C330 C329 1.409 . S
C330 C331 1.380 . S
C330 H348 0.930 . S
C331 C330 1.380 . S
C331 C338 1.357 . S
C332 C323 1.511 . S
C332 C333 1.341 . S
C332 C334 1.371 . S
C333 C332 1.341 . S
C333 C337 1.394 . S
C333 H349 0.930 . S
C334 C332 1.371 . S
C334 C335 1.392 . S
C334 H350 0.931 . S
C335 C334 1.392 . S
C335 C336 1.331 . S
C335 H353 0.932 . S
C336 C335 1.331 . S
C336 C337 1.336 . S
C337 C333 1.394 . S
C337 C336 1.336 . S
C337 H352 0.929 . S
C338 C328 1.386 . S
C338 C331 1.357 . S
C338 H351 0.928 . S
H339 C315 0.931 . S
H340 C317 0.930 . S
H341 C319 0.929 . S
H342 C320 0.931 . S
H343 C322 0.930 . S
H344 C326 0.931 . S
H345 C324 0.931 . S
H346 C328 0.931 . S
H347 C329 0.929 . S
H348 C330 0.930 . S
H349 C333 0.930 . S
H350 C334 0.931 . S
H351 C338 0.928 . S
H352 C337 0.929 . S
H353 C335 0.932 . S
C354 C355 1.363 . S
C354 C360 1.379 . S
C354 N362 1.356 . S
C355 C354 1.363 . S
C355 C361 1.363 . S
C356 C357 1.363 . S
C356 C361 1.379 . S
C356 N363 1.356 . S
C357 C356 1.363 . S
C357 C360 1.363 . S
N358 C360 1.356 . S
N358 H370 0.984 . S
N358 H371 0.985 . S
N359 C361 1.356 . S
N359 H364 0.984 . S
N359 H365 0.985 . S
C360 C354 1.379 . S
C360 C357 1.363 . S
C360 N358 1.356 . S
C361 C355 1.363 . S
C361 C356 1.379 . S
C361 N359 1.356 . S
N362 C354 1.356 . S
N362 H368 0.984 . S
N362 H369 0.984 . S
N363 C356 1.356 . S
N363 H366 0.984 . S
N363 H367 0.985 . S
H364 N359 0.984 . S
H365 N359 0.985 . S
H366 N363 0.984 . S
H367 N363 0.985 . S
H368 N362 0.984 . S
H369 N362 0.984 . S
H370 N358 0.984 . S
H371 N358 0.985 . S
C372 C373 1.363 . S
C372 C378 1.379 . S
C372 N380 1.356 . S
C373 C372 1.363 . S
C373 C379 1.363 . S
C374 C375 1.363 . S
C374 C379 1.379 . S
C374 N381 1.356 . S
C375 C374 1.363 . S
C375 C378 1.363 . S
N376 C378 1.356 . S
N376 H388 0.984 . S
N376 H389 0.985 . S
N377 C379 1.356 . S
N377 H382 0.984 . S
N377 H383 0.985 . S
C378 C372 1.379 . S
C378 C375 1.363 . S
C378 N376 1.356 . S
C379 C373 1.363 . S
C379 C374 1.379 . S
C379 N377 1.356 . S
N380 C372 1.356 . S
N380 H386 0.984 . S
N380 H387 0.984 . S
N381 C374 1.356 . S
N381 H384 0.984 . S
N381 H385 0.985 . S
H382 N377 0.984 . S
H383 N377 0.985 . S
H384 N381 0.984 . S
H385 N381 0.985 . S
H386 N380 0.984 . S
H387 N380 0.984 . S
H388 N376 0.984 . S
H389 N376 0.985 . S
C390 C391 1.363 . S
C390 C396 1.379 . S
C390 N398 1.356 . S
C391 C390 1.363 . S
C391 C397 1.363 . S
C392 C393 1.363 . S
C392 C397 1.379 . S
C392 N399 1.356 . S
C393 C392 1.363 . S
C393 C396 1.363 . S
N394 C396 1.356 . S
N394 H406 0.984 . S
N394 H407 0.985 . S
N395 C397 1.356 . S
N395 H400 0.984 . S
N395 H401 0.985 . S
C396 C390 1.379 . S
C396 C393 1.363 . S
C396 N394 1.356 . S
C397 C391 1.363 . S
C397 C392 1.379 . S
C397 N395 1.356 . S
N398 C390 1.356 . S
N398 H404 0.984 . S
N398 H405 0.984 . S
N399 C392 1.356 . S
N399 H402 0.984 . S
N399 H403 0.985 . S
H400 N395 0.984 . S
H401 N395 0.985 . S
H402 N399 0.984 . S
H403 N399 0.985 . S
H404 N398 0.984 . S
H405 N398 0.984 . S
H406 N394 0.984 . S
H407 N394 0.985 . S
C408 C409 1.363 . S
C408 C414 1.379 . S
C408 N416 1.356 . S
C409 C408 1.363 . S
C409 C415 1.363 . S
C410 C411 1.363 . S
C410 C415 1.379 . S
C410 N417 1.356 . S
C411 C410 1.363 . S
C411 C414 1.363 . S
N412 C414 1.356 . S
N412 H424 0.984 . S
N412 H425 0.985 . S
N413 C415 1.356 . S
N413 H418 0.984 . S
N413 H419 0.985 . S
C414 C408 1.379 . S
C414 C411 1.363 . S
C414 N412 1.356 . S
C415 C409 1.363 . S
C415 C410 1.379 . S
C415 N413 1.356 . S
N416 C408 1.356 . S
N416 H422 0.984 . S
N416 H423 0.984 . S
N417 C410 1.356 . S
N417 H420 0.984 . S
N417 H421 0.985 . S
H418 N413 0.984 . S
H419 N413 0.985 . S
H420 N417 0.984 . S
H421 N417 0.985 . S
H422 N416 0.984 . S
H423 N416 0.984 . S
H424 N412 0.984 . S
H425 N412 0.985 . S
C426 C427 1.363 . S
C426 C432 1.379 . S
C426 N434 1.356 . S
C427 C426 1.363 . S
C427 C433 1.363 . S
C428 C429 1.363 . S
C428 C433 1.379 . S
C428 N435 1.356 . S
C429 C428 1.363 . S
C429 C432 1.363 . S
N430 C432 1.356 . S
N430 H442 0.984 . S
N430 H443 0.985 . S
N431 C433 1.356 . S
N431 H436 0.984 . S
N431 H437 0.985 . S
C432 C426 1.379 . S
C432 C429 1.363 . S
C432 N430 1.356 . S
C433 C427 1.363 . S
C433 C428 1.379 . S
C433 N431 1.356 . S
N434 C426 1.356 . S
N434 H440 0.984 . S
N434 H441 0.984 . S
N435 C428 1.356 . S
N435 H438 0.984 . S
N435 H439 0.985 . S
H436 N431 0.984 . S
H437 N431 0.985 . S
H438 N435 0.984 . S
H439 N435 0.985 . S
H440 N434 0.984 . S
H441 N434 0.984 . S
H442 N430 0.984 . S
H443 N430 0.985 . S
C444 C445 1.363 . S
C444 C450 1.379 . S
C444 N452 1.356 . S
C445 C444 1.363 . S
C445 C451 1.363 . S
C446 C447 1.363 . S
C446 C451 1.379 . S
C446 N453 1.356 . S
C447 C446 1.363 . S
C447 C450 1.363 . S
N448 C450 1.356 . S
N448 H460 0.984 . S
N448 H461 0.985 . S
N449 C451 1.356 . S
N449 H454 0.984 . S
N449 H455 0.985 . S
C450 C444 1.379 . S
C450 C447 1.363 . S
C450 N448 1.356 . S
C451 C445 1.363 . S
C451 C446 1.379 . S
C451 N449 1.356 . S
N452 C444 1.356 . S
N452 H458 0.984 . S
N452 H459 0.984 . S
N453 C446 1.356 . S
N453 H456 0.984 . S
N453 H457 0.985 . S
H454 N449 0.984 . S
H455 N449 0.985 . S
H456 N453 0.984 . S
H457 N453 0.985 . S
H458 N452 0.984 . S
H459 N452 0.984 . S
H460 N448 0.984 . S
H461 N448 0.985 . S
C462 C463 1.363 . S
C462 C468 1.379 . S
C462 N470 1.356 . S
C463 C462 1.363 . S
C463 C469 1.363 . S
C464 C465 1.363 . S
C464 C469 1.379 . S
C464 N471 1.356 . S
C465 C464 1.363 . S
C465 C468 1.363 . S
N466 C468 1.356 . S
N466 H478 0.984 . S
N466 H479 0.985 . S
N467 C469 1.356 . S
N467 H472 0.984 . S
N467 H473 0.985 . S
C468 C462 1.379 . S
C468 C465 1.363 . S
C468 N466 1.356 . S
C469 C463 1.363 . S
C469 C464 1.379 . S
C469 N467 1.356 . S
N470 C462 1.356 . S
N470 H476 0.984 . S
N470 H477 0.984 . S
N471 C464 1.356 . S
N471 H474 0.984 . S
N471 H475 0.985 . S
H472 N467 0.984 . S
H473 N467 0.985 . S
H474 N471 0.984 . S
H475 N471 0.985 . S
H476 N470 0.984 . S
H477 N470 0.984 . S
H478 N466 0.984 . S
H479 N466 0.985 . S
C480 C481 1.363 . S
C480 C486 1.379 . S
C480 N488 1.356 . S
C481 C480 1.363 . S
C481 C487 1.363 . S
C482 C483 1.363 . S
C482 C487 1.379 . S
C482 N489 1.356 . S
C483 C482 1.363 . S
C483 C486 1.363 . S
N484 C486 1.356 . S
N484 H496 0.984 . S
N484 H497 0.985 . S
N485 C487 1.356 . S
N485 H490 0.984 . S
N485 H491 0.985 . S
C486 C480 1.379 . S
C486 C483 1.363 . S
C486 N484 1.356 . S
C487 C481 1.363 . S
C487 C482 1.379 . S
C487 N485 1.356 . S
N488 C480 1.356 . S
N488 H494 0.984 . S
N488 H495 0.984 . S
N489 C482 1.356 . S
N489 H492 0.984 . S
N489 H493 0.985 . S
H490 N485 0.984 . S
H491 N485 0.985 . S
H492 N489 0.984 . S
H493 N489 0.985 . S
H494 N488 0.984 . S
H495 N488 0.984 . S
H496 N484 0.984 . S
H497 N484 0.985 . S
C498 C499 1.363 . S
C498 C504 1.379 . S
C498 N506 1.356 . S
C499 C498 1.363 . S
C499 C505 1.363 . S
C500 C501 1.363 . S
C500 C505 1.379 . S
C500 N507 1.356 . S
C501 C500 1.363 . S
C501 C504 1.363 . S
N502 C504 1.356 . S
N502 H514 0.984 . S
N502 H515 0.985 . S
N503 C505 1.356 . S
N503 H508 0.984 . S
N503 H509 0.985 . S
C504 C498 1.379 . S
C504 C501 1.363 . S
C504 N502 1.356 . S
C505 C499 1.363 . S
C505 C500 1.379 . S
C505 N503 1.356 . S
N506 C498 1.356 . S
N506 H512 0.984 . S
N506 H513 0.984 . S
N507 C500 1.356 . S
N507 H510 0.984 . S
N507 H511 0.985 . S
H508 N503 0.984 . S
H509 N503 0.985 . S
H510 N507 0.984 . S
H511 N507 0.985 . S
H512 N506 0.984 . S
H513 N506 0.984 . S
H514 N502 0.984 . S
H515 N502 0.985 . S
C516 C517 1.363 . S
C516 C522 1.379 . S
C516 N524 1.356 . S
C517 C516 1.363 . S
C517 C523 1.363 . S
C518 C519 1.363 . S
C518 C523 1.379 . S
C518 N525 1.356 . S
C519 C518 1.363 . S
C519 C522 1.363 . S
N520 C522 1.356 . S
N520 H532 0.984 . S
N520 H533 0.985 . S
N521 C523 1.356 . S
N521 H526 0.984 . S
N521 H527 0.985 . S
C522 C516 1.379 . S
C522 C519 1.363 . S
C522 N520 1.356 . S
C523 C517 1.363 . S
C523 C518 1.379 . S
C523 N521 1.356 . S
N524 C516 1.356 . S
N524 H530 0.984 . S
N524 H531 0.984 . S
N525 C518 1.356 . S
N525 H528 0.984 . S
N525 H529 0.985 . S
H526 N521 0.984 . S
H527 N521 0.985 . S
H528 N525 0.984 . S
H529 N525 0.985 . S
H530 N524 0.984 . S
H531 N524 0.984 . S
H532 N520 0.984 . S
H533 N520 0.985 . S
C534 C535 1.363 . S
C534 C540 1.379 . S
C534 N542 1.356 . S
C535 C534 1.363 . S
C535 C541 1.363 . S
C536 C537 1.363 . S
C536 C541 1.379 . S
C536 N543 1.356 . S
C537 C536 1.363 . S
C537 C540 1.363 . S
N538 C540 1.356 . S
N538 H550 0.984 . S
N538 H551 0.985 . S
N539 C541 1.356 . S
N539 H544 0.984 . S
N539 H545 0.985 . S
C540 C534 1.379 . S
C540 C537 1.363 . S
C540 N538 1.356 . S
C541 C535 1.363 . S
C541 C536 1.379 . S
C541 N539 1.356 . S
N542 C534 1.356 . S
N542 H548 0.984 . S
N542 H549 0.984 . S
N543 C536 1.356 . S
N543 H546 0.984 . S
N543 H547 0.985 . S
H544 N539 0.984 . S
H545 N539 0.985 . S
H546 N543 0.984 . S
H547 N543 0.985 . S
H548 N542 0.984 . S
H549 N542 0.984 . S
H550 N538 0.984 . S
H551 N538 0.985 . S
C552 C553 1.363 . S
C552 C558 1.379 . S
C552 N560 1.356 . S
C553 C552 1.363 . S
C553 C559 1.363 . S
C554 C555 1.363 . S
C554 C559 1.379 . S
C554 N561 1.356 . S
C555 C554 1.363 . S
C555 C558 1.363 . S
N556 C558 1.356 . S
N556 H568 0.984 . S
N556 H569 0.985 . S
N557 C559 1.356 . S
N557 H562 0.984 . S
N557 H563 0.985 . S
C558 C552 1.379 . S
C558 C555 1.363 . S
C558 N556 1.356 . S
C559 C553 1.363 . S
C559 C554 1.379 . S
C559 N557 1.356 . S
N560 C552 1.356 . S
N560 H566 0.984 . S
N560 H567 0.984 . S
N561 C554 1.356 . S
N561 H564 0.984 . S
N561 H565 0.985 . S
H562 N557 0.984 . S
H563 N557 0.985 . S
H564 N561 0.984 . S
H565 N561 0.985 . S
H566 N560 0.984 . S
H567 N560 0.984 . S
H568 N556 0.984 . S
H569 N556 0.985 . S
C570 C571 1.363 . S
C570 C576 1.379 . S
C570 N578 1.356 . S
C571 C570 1.363 . S
C571 C577 1.363 . S
C572 C573 1.363 . S
C572 C577 1.379 . S
C572 N579 1.356 . S
C573 C572 1.363 . S
C573 C576 1.363 . S
N574 C576 1.356 . S
N574 H586 0.984 . S
N574 H587 0.985 . S
N575 C577 1.356 . S
N575 H580 0.984 . S
N575 H581 0.985 . S
C576 C570 1.379 . S
C576 C573 1.363 . S
C576 N574 1.356 . S
C577 C571 1.363 . S
C577 C572 1.379 . S
C577 N575 1.356 . S
N578 C570 1.356 . S
N578 H584 0.984 . S
N578 H585 0.984 . S
N579 C572 1.356 . S
N579 H582 0.984 . S
N579 H583 0.985 . S
H580 N575 0.984 . S
H581 N575 0.985 . S
H582 N579 0.984 . S
H583 N579 0.985 . S
H584 N578 0.984 . S
H585 N578 0.984 . S
H586 N574 0.984 . S
H587 N574 0.985 . S
C588 C589 1.363 1_565 S
C588 C594 1.379 . S
C588 N596 1.356 . S
C589 C588 1.363 1_545 S
C589 C595 1.363 . S
C590 C591 1.363 . S
C590 C595 1.379 . S
C590 N597 1.356 . S
C591 C590 1.363 . S
C591 C594 1.363 1_545 S
N592 C594 1.356 . S
N592 H604 0.984 . S
N592 H605 0.985 . S
N593 C595 1.356 . S
N593 H598 0.984 . S
N593 H599 0.985 . S
C594 C588 1.379 . S
C594 C591 1.363 1_565 S
C594 N592 1.356 . S
C595 C589 1.363 . S
C595 C590 1.379 . S
C595 N593 1.356 . S
N596 C588 1.356 . S
N596 H602 0.984 . S
N596 H603 0.984 . S
N597 C590 1.356 . S
N597 H600 0.984 . S
N597 H601 0.985 . S
H598 N593 0.984 . S
H599 N593 0.985 . S
H600 N597 0.984 . S
H601 N597 0.985 . S
H602 N596 0.984 . S
H603 N596 0.984 . S
H604 N592 0.984 . S
H605 N592 0.985 . S
C606 C607 1.363 . S
C606 C612 1.379 . S
C606 N614 1.356 . S
C607 C606 1.363 . S
C607 C613 1.363 . S
C608 C609 1.363 . S
C608 C613 1.379 . S
C608 N615 1.356 . S
C609 C608 1.363 . S
C609 C612 1.363 . S
N610 C612 1.356 . S
N610 H622 0.984 . S
N610 H623 0.985 . S
N611 C613 1.356 . S
N611 H616 0.984 . S
N611 H617 0.985 . S
C612 C606 1.379 . S
C612 C609 1.363 . S
C612 N610 1.356 . S
C613 C607 1.363 . S
C613 C608 1.379 . S
C613 N611 1.356 . S
N614 C606 1.356 . S
N614 H620 0.984 . S
N614 H621 0.984 . S
N615 C608 1.356 . S
N615 H618 0.984 . S
N615 H619 0.985 . S
H616 N611 0.984 . S
H617 N611 0.985 . S
H618 N615 0.984 . S
H619 N615 0.985 . S
H620 N614 0.984 . S
H621 N614 0.984 . S
H622 N610 0.984 . S
H623 N610 0.985 . S
C624 C625 1.363 . S
C624 C630 1.379 . S
C624 N632 1.356 . S
C625 C624 1.363 . S
C625 C631 1.363 1_545 S
C626 C627 1.363 . S
C626 C631 1.379 . S
C626 N633 1.356 . S
C627 C626 1.363 . S
C627 C630 1.363 1_565 S
N628 C630 1.356 . S
N628 H640 0.984 . S
N628 H641 0.985 . S
N629 C631 1.356 . S
N629 H634 0.984 . S
N629 H635 0.985 . S
C630 C624 1.379 . S
C630 C627 1.363 1_545 S
C630 N628 1.356 . S
C631 C625 1.363 1_565 S
C631 C626 1.379 . S
C631 N629 1.356 . S
N632 C624 1.356 . S
N632 H638 0.984 . S
N632 H639 0.984 . S
N633 C626 1.356 . S
N633 H636 0.984 . S
N633 H637 0.985 . S
H634 N629 0.984 . S
H635 N629 0.985 . S
H636 N633 0.984 . S
H637 N633 0.985 . S
H638 N632 0.984 . S
H639 N632 0.984 . S
H640 N628 0.984 . S
H641 N628 0.985 . S
C642 C643 1.363 . S
C642 C648 1.379 . S
C642 N650 1.356 . S
C643 C642 1.363 . S
C643 C649 1.363 . S
C644 C645 1.363 . S
C644 C649 1.379 . S
C644 N651 1.356 . S
C645 C644 1.363 . S
C645 C648 1.363 . S
N646 C648 1.356 . S
N646 H658 0.984 . S
N646 H659 0.985 . S
N647 C649 1.356 . S
N647 H652 0.984 . S
N647 H653 0.985 . S
C648 C642 1.379 . S
C648 C645 1.363 . S
C648 N646 1.356 . S
C649 C643 1.363 . S
C649 C644 1.379 . S
C649 N647 1.356 . S
N650 C642 1.356 . S
N650 H656 0.984 . S
N650 H657 0.984 . S
N651 C644 1.356 . S
N651 H654 0.984 . S
N651 H655 0.985 . S
H652 N647 0.984 . S
H653 N647 0.985 . S
H654 N651 0.984 . S
H655 N651 0.985 . S
H656 N650 0.984 . S
H657 N650 0.984 . S
H658 N646 0.984 . S
H659 N646 0.985 . S
C660 C661 1.363 . S
C660 C666 1.379 . S
C660 N668 1.356 . S
C661 C660 1.363 . S
C661 C667 1.363 1_455 S
C662 C663 1.363 1_655 S
C662 C667 1.379 . S
C662 N669 1.356 . S
C663 C662 1.363 1_455 S
C663 C666 1.363 . S
N664 C666 1.356 . S
N664 H676 0.984 . S
N664 H677 0.985 . S
N665 C667 1.356 . S
N665 H670 0.984 . S
N665 H671 0.985 . S
C666 C660 1.379 . S
C666 C663 1.363 . S
C666 N664 1.356 . S
C667 C661 1.363 1_655 S
C667 C662 1.379 . S
C667 N665 1.356 . S
N668 C660 1.356 . S
N668 H674 0.984 . S
N668 H675 0.984 . S
N669 C662 1.356 . S
N669 H672 0.984 . S
N669 H673 0.985 . S
H670 N665 0.984 . S
H671 N665 0.985 . S
H672 N669 0.984 . S
H673 N669 0.985 . S
H674 N668 0.984 . S
H675 N668 0.984 . S
H676 N664 0.984 . S
H677 N664 0.985 . S
C355 C6 0.906 . S
C357 C331 0.959 . S
C373 C59 2.019 . S
C375 C258 1.974 . S
C391 C86 1.362 . S
C393 C297 1.405 . S
C409 C15 0.642 . S
C411 C336 0.554 . S
C429 C253 2.051 . S
C427 C50 2.150 . S
C447 C292 1.381 . S
C445 C95 1.353 . S
C463 C46 1.287 . S
C465 C180 1.313 . S
C481 C99 3.202 . S
C483 C214 3.148 . S
C499 C10 2.179 . S
C501 C136 2.101 . S
C519 C175 1.385 . S
C517 C55 1.342 . S
C537 C219 3.076 . S
C535 C90 3.129 . S
C553 C19 2.015 . S
C555 C141 1.987 . S
C573 C199 1.797 1_554 S
C571 C18 1.719 . S
C589 C49 1.320 . S
C591 C121 1.368 . S
C607 C98 1.448 . S
C609 C160 1.506 . S
C627 C277 1.486 . S
C625 C58 1.439 . S
C645 C316 1.076 . S
C643 C89 1.078 . S
C661 C9 1.312 . S
C663 C238 1.353 1_455 S
