# Generated by pormake.
# Topology pth, (4,4)-cn, num edge types: 1
# Building blocks:
#     Node 0, Type 0, BuildingBlock: NAHDIM_clean_sbu_0, # of connection points: 4
#     Node 1, Type 0, BuildingBlock: NAHDIM_clean_sbu_0, # of connection points: 4
#     Node 2, Type 0, BuildingBlock: NAHDIM_clean_sbu_0, # of connection points: 4
#     Node 3, Type 1, BuildingBlock: MIFKUJ_clean_linker_1, # of connection points: 4
#     Node 4, Type 1, BuildingBlock: MIFKUJ_clean_linker_1, # of connection points: 4
#     Node 5, Type 1, BuildingBlock: MIFKUJ_clean_linker_1, # of connection points: 4
#     Edge 6, Type (0, 1), BuildingBlock: CIFDUS_clean_linker_0, # of connection points: 2
#     Edge 7, Type (0, 1), BuildingBlock: CIFDUS_clean_linker_0, # of connection points: 2
#     Edge 8, Type (0, 1), BuildingBlock: CIFDUS_clean_linker_0, # of connection points: 2
#     Edge 9, Type (0, 1), BuildingBlock: CIFDUS_clean_linker_0, # of connection points: 2
#     Edge 10, Type (0, 1), BuildingBlock: CIFDUS_clean_linker_0, # of connection points: 2
#     Edge 11, Type (0, 1), BuildingBlock: CIFDUS_clean_linker_0, # of connection points: 2
#     Edge 12, Type (0, 1), BuildingBlock: CIFDUS_clean_linker_0, # of connection points: 2
#     Edge 13, Type (0, 1), BuildingBlock: CIFDUS_clean_linker_0, # of connection points: 2
#     Edge 14, Type (0, 1), BuildingBlock: CIFDUS_clean_linker_0, # of connection points: 2
#     Edge 15, Type (0, 1), BuildingBlock: CIFDUS_clean_linker_0, # of connection points: 2
#     Edge 16, Type (0, 1), BuildingBlock: CIFDUS_clean_linker_0, # of connection points: 2
#     Edge 17, Type (0, 1), BuildingBlock: CIFDUS_clean_linker_0, # of connection points: 2
# Relax obj value: 0.043
# Max RMSD: 0.165
# Mean RMSD: 0.093
data_MOF--net-pth--node1-NAHDIM_clean_sbu_0--node2-MIFKUJ_clean_linker_1--edge1-CIFDUS_clean_linker_0
_symmetry_space_group_name_H-M    P1
_symmetry_Int_Tables_number       1
_symmetry_cell_setting            triclinic
loop_
_symmetry_equiv_pos_as_xyz
'x, y, z'
_cell_length_a     26.578754
_cell_length_b     26.770278
_cell_length_c     56.378443
_cell_angle_alpha  91.927755
_cell_angle_beta   90.102064
_cell_angle_gamma 120.47434
loop_
_atom_site_label
_atom_site_type_symbol
_atom_site_fract_x
_atom_site_fract_y
_atom_site_fract_z
_atom_type_partial_charge
C0 C 0.99504 0.92939 0.06283 0.0
O1 O 0.94418 0.92609 0.0608 0.0
O2 O 0.01449 0.07535 0.05204 0.0
Zn3 Zn 0.01987 0.01654 0.03084 0.0
O4 O 0.94552 0.96523 0.0124 0.0
C5 C 0.12531 0.11006 0.01331 0.0
O6 O 0.1309 0.12879 0.03554 0.0
O7 O 0.03758 0.96667 0.05107 0.0
C8 C 0.91809 0.98379 0.00055 0.0
O9 O 0.93724 0.03972 0.00088 0.0
C10 C 0.96966 0.0721 0.06151 0.0
O11 O 0.91825 0.02543 0.05758 0.0
O12 O 0.08235 0.06046 0.00725 0.0
C13 C 0.06267 0.12315 0.32247 0.0
O14 O 0.05074 0.07639 0.30965 0.0
O15 O 0.03755 0.98659 0.33944 0.0
Zn16 Zn 0.05118 0.05185 0.3623 0.0
O17 O 0.97933 0.02966 0.38149 0.0
C18 C 0.11363 0.03164 0.39842 0.0
O19 O 0.06159 0.9862 0.40129 0.0
O20 O 0.06728 0.12296 0.34491 0.0
C21 C 0.98227 0.04988 0.4025 0.0
O22 O 0.03368 0.08402 0.41266 0.0
C23 C 0.98764 0.94582 0.33228 0.0
O24 O 0.9406 0.94557 0.33958 0.0
O25 O 0.12004 0.06794 0.38303 0.0
C26 C 0.10716 0.00585 0.67163 0.0
O27 O 0.11182 0.05672 0.67551 0.0
O28 O 0.96418 0.99453 0.67839 0.0
Zn29 Zn 0.01434 0.98106 0.70102 0.0
O30 O 0.06698 0.04986 0.72259 0.0
C31 C 0.91749 0.92078 0.72935 0.0
O32 O 0.91366 0.96581 0.72346 0.0
O33 O 0.06595 0.96197 0.68131 0.0
C34 C 0.05783 0.08799 0.73228 0.0
O35 O 0.00834 0.08626 0.72809 0.0
C36 C 0.97138 0.04076 0.66962 0.0
O37 O 0.01821 0.09072 0.67541 0.0
O38 O 0.95971 0.91584 0.72154 0.0
H39 H 0.03947 0.46353 0.14381 0.0
H40 H 0.02266 0.37867 0.11981 0.0
H41 H 0.89551 0.26677 0.16984 0.0
H42 H 0.91085 0.35212 0.19331 0.0
H43 H 0.97217 0.50459 0.1549 0.0
H44 H 0.07883 0.43848 0.19686 0.0
H45 H 0.09585 0.36739 0.21579 0.0
H46 H 0.97049 0.34491 0.2692 0.0
H47 H 0.95261 0.41525 0.2499 0.0
H48 H 0.93682 0.56103 0.24923 0.0
H49 H 0.94512 0.64313 0.27296 0.0
H50 H 0.08745 0.76129 0.22968 0.0
H51 H 0.07998 0.67879 0.20647 0.0
H52 H 0.01679 0.52567 0.24137 0.0
H53 H 0.91753 0.60242 0.19487 0.0
H54 H 0.91119 0.67597 0.17269 0.0
H55 H 0.04261 0.68493 0.12503 0.0
H56 H 0.05112 0.61413 0.1481 0.0
C57 C 0.97689 0.4142 0.17048 0.0
C58 C 0.0077 0.42074 0.14953 0.0
C59 C -0.00159 0.37216 0.13595 0.0
C60 C 0.95809 0.31594 0.14303 0.0
C61 C 0.92658 0.30946 0.16383 0.0
C62 C 0.93576 0.35818 0.17739 0.0
C63 C 0.9875 0.46613 0.18493 0.0
C64 C 0.98265 0.50953 0.17376 0.0
C65 C 0.00136 0.4726 0.20951 0.0
C66 C 0.01361 0.43145 0.2217 0.0
C67 C 0.05459 0.41792 0.21253 0.0
C68 C 0.06442 0.37741 0.22337 0.0
C69 C 0.03429 0.35046 0.24388 0.0
C70 C 0.99462 0.36535 0.25349 0.0
C71 C 0.98432 0.40544 0.24247 0.0
C72 C 0.00743 0.61385 0.22598 0.0
C73 C 0.97004 0.60463 0.24497 0.0
C74 C 0.97446 0.6516 0.25835 0.0
C75 C 0.01663 0.70874 0.25308 0.0
C76 C 0.05474 0.7178 0.23428 0.0
C77 C 0.05028 0.67076 0.2209 0.0
C78 C 0.00073 0.56374 0.21135 0.0
C79 C 0.00636 0.52064 0.22251 0.0
C80 C 0.98975 0.55859 0.18655 0.0
C81 C 0.98535 0.60329 0.17334 0.0
C82 C 0.94566 0.621 0.17989 0.0
C83 C 0.94161 0.66258 0.167 0.0
C84 C 0.97648 0.68655 0.14706 0.0
C85 C 0.01589 0.66835 0.14052 0.0
C86 C 0.02034 0.62732 0.15355 0.0
H87 H 0.65097 0.10011 0.48357 0.0
H88 H 0.73059 0.09782 0.46265 0.0
H89 H 0.71762 0.96688 0.50894 0.0
H90 H 0.63594 0.96669 0.52902 0.0
H91 H 0.54253 0.02977 0.48958 0.0
H92 H 0.70755 0.1267 0.54298 0.0
H93 H 0.79087 0.13875 0.56644 0.0
H94 H 0.67364 0.99252 0.60762 0.0
H95 H 0.59119 0.9792 0.5835 0.0
H96 H 0.43356 0.96145 0.58009 0.0
H97 H 0.35887 0.96358 0.60454 0.0
H98 H 0.37656 0.10808 0.56572 0.0
H99 H 0.45369 0.10797 0.54246 0.0
H100 H 0.54605 0.04446 0.5776 0.0
H101 H 0.38617 0.94019 0.5165 0.0
H102 H 0.30383 0.93362 0.49435 0.0
H103 H 0.41482 0.10969 0.4724 0.0
H104 H 0.49742 0.11391 0.49328 0.0
C105 C 0.63809 0.03444 0.50822 0.0
C106 C 0.6646 0.07027 0.48903 0.0
C107 C 0.71008 0.06906 0.47712 0.0
C108 C 0.73028 0.03255 0.48441 0.0
C109 C 0.70311 -0.00414 0.50324 0.0
C110 C 0.65676 -0.00392 0.51478 0.0
C111 C 0.59138 0.03751 0.52152 0.0
C112 C 0.54384 0.03355 0.50882 0.0
C113 C 0.59261 0.04262 0.54666 0.0
C114 C 0.64322 0.0515 0.56126 0.0
C115 C 0.69996 0.09698 0.55694 0.0
C116 C 0.74746 0.10418 0.57051 0.0
C117 C 0.73895 0.06633 0.58878 0.0
C118 C 0.68187 0.02174 0.59338 0.0
C119 C 0.63458 0.01439 0.57976 0.0
C120 C 0.44877 0.03408 0.55924 0.0
C121 C 0.42118 0.99349 0.57684 0.0
C122 C 0.37806 0.99442 0.59066 0.0
C123 C 0.36157 0.03597 0.58711 0.0
C124 C 0.38863 0.07592 0.56915 0.0
C125 C 0.43217 0.07535 0.55554 0.0
C126 C 0.49703 0.03503 0.54569 0.0
C127 C 0.54503 0.04039 0.55836 0.0
C128 C 0.49685 0.03238 0.52062 0.0
C129 C 0.44765 0.02744 0.50642 0.0
C130 C 0.39262 0.97696 0.50662 0.0
C131 C 0.34546 0.97366 0.49416 0.0
C132 C 0.35218 0.02127 0.4816 0.0
C133 C 0.40786 0.07167 0.4814 0.0
C134 C 0.45522 0.07439 0.49344 0.0
H135 H 0.42862 0.4317 0.82007 0.0
H136 H 0.34821 0.35426 0.79667 0.0
H137 H 0.22499 0.37478 0.83977 0.0
H138 H 0.30614 0.4548 0.86233 0.0
H139 H 0.46486 0.53928 0.82388 0.0
H140 H 0.40165 0.39088 0.8798 0.0
H141 H 0.34503 0.31661 0.90827 0.0
H142 H 0.30546 0.43576 0.94566 0.0
H143 H 0.36269 0.50995 0.91732 0.0
H144 H 0.51996 0.67382 0.91172 0.0
H145 H 0.60312 0.74739 0.93581 0.0
H146 H 0.71541 0.6958 0.90109 0.0
H147 H 0.632 0.62183 0.87732 0.0
H148 H 0.47761 0.55537 0.91179 0.0
H149 H 0.56056 0.70771 0.85565 0.0
H150 H 0.63834 0.77935 0.83156 0.0
H151 H 0.65102 0.64215 0.79456 0.0
H152 H 0.57529 0.57112 0.81954 0.0
C153 C 0.37357 0.44895 0.84309 0.0
C154 C 0.38431 0.41967 0.82448 0.0
C155 C 0.33815 0.37488 0.81125 0.0
C156 C 0.27999 0.35793 0.81642 0.0
C157 C 0.26922 0.38703 0.83518 0.0
C158 C 0.31559 0.43229 0.84831 0.0
C159 C 0.42328 0.49851 0.8562 0.0
C160 C 0.46783 0.54233 0.84312 0.0
C161 C 0.42701 0.50324 0.88128 0.0
C162 C 0.38615 0.45585 0.8964 0.0
C163 C 0.37972 0.40053 0.89384 0.0
C164 C 0.34744 0.35816 0.91015 0.0
C165 C 0.3213 0.37053 0.92937 0.0
C166 C 0.32603 0.42527 0.93132 0.0
C167 C 0.35832 0.46756 0.91505 0.0
C168 C 0.56998 0.64272 0.89267 0.0
C169 C 0.56264 0.67877 0.9092 0.0
C170 C 0.61015 0.72092 0.92282 0.0
C171 C 0.66564 0.72719 0.92033 0.0
C172 C 0.67301 0.69156 0.9035 0.0
C173 C 0.62557 0.64967 0.8898 0.0
C174 C 0.51885 0.5955 0.87947 0.0
C175 C 0.47406 0.55231 0.89255 0.0
C176 C 0.51596 0.59036 0.85441 0.0
C177 C 0.56247 0.63409 0.83957 0.0
C178 C 0.58062 0.69316 0.84256 0.0
C179 C 0.62469 0.734 0.82858 0.0
C180 C 0.65098 0.71651 0.81112 0.0
C181 C 0.6324 0.65724 0.80808 0.0
C182 C 0.58862 0.61649 0.82217 0.0
H183 H 0.88405 0.08382 0.08314 0.0
H184 H 0.0708 0.17109 0.07427 0.0
H185 H 0.08333 0.25299 0.09899 0.0
H186 H 0.04195 0.30038 0.12296 0.0
H187 H 0.85548 0.21568 0.13139 0.0
H188 H 0.84236 0.13191 0.10738 0.0
C189 C 0.92746 0.12072 0.08664 0.0
C190 C 0.97631 0.1212 0.0768 0.0
C191 C 0.93453 0.1681 0.10088 0.0
C192 C 0.03231 0.16944 0.08154 0.0
C193 C 0.03963 0.21642 0.09571 0.0
C194 C -0.00165 0.26386 0.11936 0.0
C195 C 0.94979 0.26447 0.12884 0.0
C196 C 0.99111 0.21631 0.10538 0.0
C197 C 0.89369 0.21615 0.12446 0.0
C198 C 0.88612 0.16838 0.11062 0.0
H199 H 0.96831 0.0606 0.44973 0.0
H200 H 0.87585 0.01559 0.38225 0.0
H201 H 0.78938 0.00584 0.40165 0.0
H202 H 0.74126 0.01405 0.43768 0.0
H203 H 0.83177 0.05417 0.50534 0.0
H204 H 0.91782 0.06182 0.48608 0.0
C205 C 0.92912 0.04838 0.43931 0.0
C206 C 0.92863 0.0393 0.41459 0.0
C207 C 0.87934 0.04221 0.45061 0.0
C208 C 0.87732 0.02277 0.40132 0.0
C209 C 0.82793 0.01741 0.41238 0.0
C210 C 0.77989 0.02429 0.44811 0.0
C211 C 0.78072 0.03399 0.47278 0.0
C212 C 0.82867 0.02769 0.43697 0.0
C213 C 0.83045 0.0465 0.4863 0.0
C214 C 0.87956 0.05101 0.4753 0.0
H215 H 0.81956 0.9169 0.74504 0.0
H216 H 0.91566 0.82691 0.74842 0.0
H217 H 0.84196 0.75609 0.77432 0.0
H218 H 0.75061 0.72048 0.79619 0.0
H219 H 0.65384 0.80965 0.79138 0.0
H220 H 0.72824 0.88076 0.76613 0.0
C221 C 0.82456 0.88186 0.75142 0.0
C222 C 0.87311 0.87726 0.74482 0.0
C223 C 0.78211 0.84138 0.76616 0.0
C224 C 0.87866 0.83141 0.75321 0.0
C225 C 0.83659 0.79096 0.76804 0.0
C226 C 0.7455 0.75514 0.78944 0.0
C227 C 0.69672 0.75974 0.79579 0.0
C228 C 0.78811 0.79555 0.77461 0.0
C229 C 0.69134 0.80553 0.78715 0.0
C230 C 0.73366 0.84601 0.77255 0.0
H231 H 0.90989 0.8386 0.08578 0.0
H232 H 0.09593 0.93164 0.07506 0.0
H233 H 0.10679 0.86602 0.1009 0.0
H234 H 0.06329 0.78202 0.12631 0.0
H235 H 0.87653 0.68653 0.13528 0.0
H236 H 0.86644 0.75434 0.11077 0.0
C237 C 0.9529 0.84469 0.08911 0.0
C238 C 0.00202 0.88996 0.07849 0.0
C239 C 0.95876 0.80663 0.1038 0.0
C240 C 0.05736 0.89704 0.08296 0.0
C241 C 0.06362 0.85959 0.09776 0.0
C242 C 0.02028 0.77565 0.12275 0.0
C243 C 0.97078 0.72911 0.1327 0.0
C244 C 0.01457 0.8141 0.10819 0.0
C245 C 0.91555 0.72238 0.12823 0.0
C246 C 0.90962 0.76087 0.11402 0.0
H247 H 0.11307 0.98258 0.43982 0.0
H248 H 0.22851 0.09554 0.38711 0.0
H249 H 0.31222 0.10151 0.40793 0.0
H250 H 0.35186 0.07166 0.44015 0.0
H251 H 0.23735 0.96525 0.49476 0.0
H252 H 0.15396 0.95854 0.47374 0.0
C253 C 0.1566 0.00865 0.43295 0.0
C254 C 0.16456 0.0383 0.41191 0.0
C255 C 0.20461 0.01249 0.44516 0.0
C256 C 0.22125 0.07243 0.40333 0.0
C257 C 0.2691 0.07566 0.41516 0.0
C258 C 0.30897 0.04778 0.44778 0.0
C259 C 0.30135 0.01857 0.469 0.0
C260 C 0.26123 0.04555 0.43601 0.0
C261 C 0.24481 0.98701 0.47819 0.0
C262 C 0.19695 0.98359 0.4663 0.0
H263 H 0.06071 0.18406 0.75202 0.0
H264 H 0.15648 0.09328 0.74913 0.0
H265 H 0.23166 0.1671 0.77565 0.0
H266 H 0.27102 0.25755 0.79931 0.0
H267 H 0.17896 0.35191 0.80095 0.0
H268 H 0.10095 0.27583 0.7758 0.0
C269 C 0.09796 0.1804 0.75724 0.0
C270 C 0.10289 0.13321 0.74853 0.0
C271 C 0.14159 0.22342 0.77241 0.0
C272 C 0.15157 0.12922 0.75545 0.0
C273 C 0.19465 0.17138 0.77067 0.0
C274 C 0.23422 0.26189 0.79401 0.0
C275 C 0.23115 0.31061 0.80196 0.0
C276 C 0.19026 0.21876 0.77914 0.0
C277 C 0.18227 0.31461 0.79534 0.0
C278 C 0.13781 0.27133 0.78078 0.0
H279 H 0.96125 0.12988 0.65265 0.0
H280 H 0.87929 0.94312 0.64972 0.0
H281 H 0.80206 0.93515 0.62386 0.0
H282 H 0.75635 0.9803 0.60274 0.0
H283 H 0.83464 0.16643 0.60644 0.0
H284 H 0.91524 0.17552 0.63089 0.0
C285 C 0.92664 0.0875 0.64625 0.0
C286 C 0.92607 0.03724 0.65322 0.0
C287 C 0.88171 0.08302 0.63147 0.0
C288 C 0.88078 0.9826 0.64479 0.0
C289 C 0.8365 0.97789 0.62995 0.0
C290 C 0.79074 0.02288 0.60906 0.0
C291 C 0.78916 0.07252 0.60292 0.0
C292 C 0.83625 0.02771 0.62336 0.0
C293 C 0.83495 0.12747 0.61077 0.0
C294 C 0.88087 0.13269 0.62488 0.0
H295 H 0.88193 0.87108 0.9898 0.0
H296 H 0.8405 0.00448 0.97713 0.0
H297 H 0.75826 0.93668 0.95125 0.0
H298 H 0.69909 0.83964 0.93175 0.0
H299 H 0.74273 0.70774 0.94416 0.0
H300 H 0.82366 0.77516 0.97045 0.0
C301 C 0.85481 0.88539 0.98149 0.0
C302 C 0.86724 0.94272 0.98545 0.0
C303 C 0.80828 0.84655 0.96645 0.0
C304 C 0.83188 0.96057 0.97437 0.0
C305 C 0.78488 0.92185 0.95956 0.0
C306 C 0.72622 0.82571 0.94033 0.0
C307 C 0.71513 0.76891 0.93597 0.0
C308 C 0.77282 0.86478 0.95541 0.0
C309 C 0.75092 0.75149 0.94698 0.0
C310 C 0.79694 0.78987 0.96213 0.0
H311 H 0.07637 0.93374 0.31495 0.0
H312 H 0.88833 0.85069 0.3142 0.0
H313 H 0.88083 0.77062 0.2893 0.0
H314 H 0.92767 0.72352 0.26824 0.0
H315 H 0.11559 0.80604 0.26973 0.0
H316 H 0.12307 0.8874 0.29362 0.0
C317 C 0.03368 0.89825 0.30932 0.0
C318 C 0.98298 0.89821 0.31652 0.0
C319 C 0.02966 0.85228 0.29509 0.0
C320 C 0.92808 0.85185 0.30896 0.0
C321 C 0.92374 0.80598 0.29473 0.0
C322 C 0.97024 0.75913 0.27394 0.0
C323 C 0.02098 0.7586 0.26725 0.0
C324 C 0.97422 0.80558 0.28783 0.0
C325 C 0.07587 0.80561 0.27442 0.0
C326 C 0.08018 0.852 0.2882 0.0
H327 H 0.20522 0.09339 0.65351 0.0
H328 H 0.10347 0.90662 0.65481 0.0
H329 H 0.17269 0.89931 0.6284 0.0
H330 H 0.26159 0.94635 0.60461 0.0
H331 H 0.36454 0.13345 0.60511 0.0
H332 H 0.2945 0.14005 0.6308 0.0
C333 C 0.19802 0.05098 0.64804 0.0
C334 C 0.14916 0.00063 0.65608 0.0
C335 C 0.23796 0.04715 0.63302 0.0
C336 C 0.1408 0.94609 0.6489 0.0
C337 C 0.18029 0.94189 0.63377 0.0
C338 C 0.26902 0.98858 0.6105 0.0
C339 C 0.31819 0.0393 0.60272 0.0
C340 C 0.22902 0.99219 0.6257 0.0
C341 C 0.32657 0.09364 0.61034 0.0
C342 C 0.28678 0.09753 0.62523 0.0
H343 H 0.20881 0.22344 0.01957 0.0
H344 H 0.12574 0.08566 0.96578 0.0
H345 H 0.1803 0.15379 0.93505 0.0
H346 H 0.24714 0.25377 0.92327 0.0
H347 H 0.3292 0.39104 0.9773 0.0
H348 H 0.27875 0.32187 0.00806 0.0
C349 C 0.20304 0.20806 0.00117 0.0
C350 C 0.16308 0.14956 0.99501 0.0
C351 C 0.23374 0.24756 0.98357 0.0
C352 C 0.15615 0.13051 0.97103 0.0
C353 C 0.18718 0.16948 0.95343 0.0
C354 C 0.25442 0.2684 0.94179 0.0
C355 C 0.29139 0.32761 0.94793 0.0
C356 C 0.22537 0.22831 0.95945 0.0
C357 C 0.30002 0.34593 0.97202 0.0
C358 C 0.27156 0.30635 0.98966 0.0
H359 H 0.05639 0.13825 0.2753 0.0
H360 H 0.07231 0.22039 0.34436 0.0
H361 H 0.06628 0.29859 0.3261 0.0
H362 H 0.05215 0.34156 0.29065 0.0
H363 H 0.03633 0.25954 0.22168 0.0
H364 H 0.04702 0.18362 0.23976 0.0
C365 C 0.05896 0.17344 0.28637 0.0
C366 C 0.06442 0.17316 0.31118 0.0
C367 C 0.05525 0.21822 0.27577 0.0
C368 C 0.06803 0.21937 0.32522 0.0
C369 C 0.06439 0.26408 0.3148 0.0
C370 C 0.05097 0.30697 0.27962 0.0
C371 C 0.04318 0.30594 0.25491 0.0
C372 C 0.05716 0.26351 0.29014 0.0
C373 C 0.04266 0.26144 0.24075 0.0
C374 C 0.04851 0.21791 0.25108 0.0
loop_
_geom_bond_atom_site_label_1
_geom_bond_atom_site_label_2
_geom_bond_distance
_geom_bond_site_symmetry_2
_ccdc_geom_bond_type
C0 O1 1.160 . S
C0 O7 1.185 . S
O1 C0 1.160 . S
O2 Zn3 1.899 . S
O2 C10 1.284 1_455 S
Zn3 O2 1.899 . S
Zn3 O4 2.032 1_445 S
Zn3 O7 2.086 1_545 S
Zn3 O12 1.977 . S
O4 Zn3 2.032 1_665 S
O4 C8 1.278 . S
C5 O6 1.203 . S
C5 O12 1.267 . S
O6 C5 1.203 . S
O7 C0 1.185 . S
O7 Zn3 2.086 1_565 S
C8 O4 1.278 . S
C8 O9 1.211 1_564 S
O9 C8 1.211 1_546 S
C10 O2 1.284 1_655 S
C10 O11 1.273 . S
O11 C10 1.273 . S
O12 Zn3 1.977 . S
O12 C5 1.267 . S
C13 O14 1.160 . S
C13 O20 1.185 . S
O14 C13 1.160 . S
O15 Zn16 1.899 . S
O15 C23 1.284 1_545 S
Zn16 O15 1.899 . S
Zn16 O17 2.032 1_455 S
Zn16 O20 2.086 . S
Zn16 O25 1.977 . S
O17 Zn16 2.032 1_655 S
O17 C21 1.278 . S
C18 O19 1.209 . S
C18 O25 1.267 . S
O19 C18 1.209 . S
O20 C13 1.185 . S
O20 Zn16 2.086 . S
C21 O17 1.278 . S
C21 O22 1.211 . S
O22 C21 1.211 . S
C23 O15 1.284 1_565 S
C23 O24 1.273 1_455 S
O24 C23 1.273 1_655 S
O25 Zn16 1.977 . S
O25 C18 1.267 . S
C26 O27 1.146 1_565 S
C26 O33 1.190 . S
O27 C26 1.146 1_545 S
O28 Zn29 1.899 1_655 S
O28 C36 1.284 . S
Zn29 O28 1.899 1_455 S
Zn29 O30 2.032 . S
Zn29 O33 2.086 1_545 S
Zn29 O38 1.977 1_445 S
O30 Zn29 2.032 . S
O30 C34 1.278 . S
C31 O32 1.203 . S
C31 O38 1.267 . S
O32 C31 1.203 . S
O33 C26 1.190 . S
O33 Zn29 2.086 1_565 S
C34 O30 1.278 . S
C34 O35 1.211 . S
O35 C34 1.211 . S
C36 O28 1.284 . S
C36 O37 1.273 . S
O37 C36 1.273 . S
O38 Zn29 1.977 1_665 S
O38 C31 1.267 . S
H39 C58 0.949 . S
H40 C59 0.950 . S
H41 C61 0.950 . S
H42 C62 0.950 . S
H43 C64 0.950 . S
H44 C67 0.950 . S
H45 C68 0.950 . S
H46 C70 0.951 . S
H47 C71 0.949 . S
H48 C73 0.949 . S
H49 C74 0.950 . S
H50 C76 0.950 . S
H51 C77 0.950 . S
H52 C79 0.950 . S
H53 C82 0.950 . S
H54 C83 0.950 . S
H55 C85 0.951 . S
H56 C86 0.949 . S
C57 C58 1.376 . S
C57 C62 1.386 1_455 S
C57 C63 1.483 . S
C58 H39 0.949 . S
C58 C57 1.376 . S
C58 C59 1.397 . S
C59 H40 0.950 . S
C59 C58 1.397 . S
C59 C60 1.391 . S
C60 C59 1.391 . S
C60 C61 1.405 1_455 S
C61 H41 0.950 . S
C61 C60 1.405 1_655 S
C61 C62 1.367 . S
C62 H42 0.950 . S
C62 C57 1.386 1_655 S
C62 C61 1.367 . S
C63 C57 1.483 . S
C63 C64 1.382 . S
C63 C65 1.403 . S
C64 H43 0.950 . S
C64 C63 1.382 . S
C64 C80 1.411 . S
C65 C63 1.403 . S
C65 C66 1.489 . S
C65 C79 1.411 1_455 S
C66 C65 1.489 . S
C66 C67 1.383 . S
C66 C71 1.382 1_455 S
C67 H44 0.950 . S
C67 C66 1.383 . S
C67 C68 1.395 . S
C68 H45 0.950 . S
C68 C67 1.395 . S
C68 C69 1.288 . S
C69 C68 1.288 . S
C69 C70 1.392 1_455 S
C70 H46 0.951 . S
C70 C69 1.392 1_655 S
C70 C71 1.392 . S
C71 H47 0.949 . S
C71 C66 1.382 1_655 S
C71 C70 1.392 . S
C72 C73 1.376 1_455 S
C72 C77 1.386 . S
C72 C78 1.483 . S
C73 H48 0.949 . S
C73 C72 1.376 1_655 S
C73 C74 1.397 . S
C74 H49 0.950 . S
C74 C73 1.397 . S
C74 C75 1.391 1_655 S
C75 C74 1.391 1_455 S
C75 C76 1.405 . S
C76 H50 0.950 . S
C76 C75 1.405 . S
C76 C77 1.367 . S
C77 H51 0.950 . S
C77 C72 1.386 . S
C77 C76 1.367 . S
C78 C72 1.483 . S
C78 C79 1.382 1_455 S
C78 C80 1.403 . S
C79 H52 0.950 . S
C79 C65 1.411 1_655 S
C79 C78 1.382 1_655 S
C80 C64 1.411 . S
C80 C78 1.403 . S
C80 C81 1.489 . S
C81 C80 1.489 . S
C81 C82 1.383 1_455 S
C81 C86 1.382 . S
C82 H53 0.950 . S
C82 C81 1.383 1_655 S
C82 C83 1.395 . S
C83 H54 0.950 . S
C83 C82 1.395 . S
C83 C84 1.288 1_655 S
C84 C83 1.288 1_455 S
C84 C85 1.392 . S
C85 H55 0.951 . S
C85 C84 1.392 . S
C85 C86 1.392 . S
C86 H56 0.949 . S
C86 C81 1.382 . S
C86 C85 1.392 . S
H87 C106 0.949 . S
H88 C107 0.950 . S
H89 C109 0.950 . S
H90 C110 0.950 . S
H91 C112 0.950 . S
H92 C115 0.950 . S
H93 C116 0.950 . S
H94 C118 0.951 . S
H95 C119 0.949 . S
H96 C121 0.949 . S
H97 C122 0.950 . S
H98 C124 0.950 . S
H99 C125 0.950 . S
H100 C127 0.950 . S
H101 C130 0.950 . S
H102 C131 0.950 . S
H103 C133 0.951 . S
H104 C134 0.949 . S
C105 C106 1.376 . S
C105 C110 1.386 1_545 S
C105 C111 1.483 . S
C106 H87 0.949 . S
C106 C105 1.376 . S
C106 C107 1.397 . S
C107 H88 0.950 . S
C107 C106 1.397 . S
C107 C108 1.391 . S
C108 C107 1.391 . S
C108 C109 1.405 1_545 S
C109 H89 0.950 . S
C109 C108 1.405 1_565 S
C109 C110 1.367 . S
C110 H90 0.950 . S
C110 C105 1.386 1_565 S
C110 C109 1.367 . S
C111 C105 1.483 . S
C111 C112 1.382 . S
C111 C113 1.403 . S
C112 H91 0.950 . S
C112 C111 1.382 . S
C112 C128 1.411 . S
C113 C111 1.403 . S
C113 C114 1.489 . S
C113 C127 1.411 . S
C114 C113 1.489 . S
C114 C115 1.383 . S
C114 C119 1.382 1_545 S
C115 H92 0.950 . S
C115 C114 1.383 . S
C115 C116 1.395 . S
C116 H93 0.950 . S
C116 C115 1.395 . S
C116 C117 1.288 . S
C117 C116 1.288 . S
C117 C118 1.392 1_545 S
C118 H94 0.951 . S
C118 C117 1.392 1_565 S
C118 C119 1.392 . S
C119 H95 0.949 . S
C119 C114 1.382 1_565 S
C119 C118 1.392 . S
C120 C121 1.376 1_545 S
C120 C125 1.386 . S
C120 C126 1.483 . S
C121 H96 0.949 . S
C121 C120 1.376 1_565 S
C121 C122 1.397 . S
C122 H97 0.950 . S
C122 C121 1.397 . S
C122 C123 1.391 1_565 S
C123 C122 1.391 1_545 S
C123 C124 1.405 . S
C124 H98 0.950 . S
C124 C123 1.405 . S
C124 C125 1.367 . S
C125 H99 0.950 . S
C125 C120 1.386 . S
C125 C124 1.367 . S
C126 C120 1.483 . S
C126 C127 1.382 . S
C126 C128 1.403 . S
C127 H100 0.950 . S
C127 C113 1.411 . S
C127 C126 1.382 . S
C128 C112 1.411 . S
C128 C126 1.403 . S
C128 C129 1.489 . S
C129 C128 1.489 . S
C129 C130 1.383 1_545 S
C129 C134 1.382 . S
C130 H101 0.950 . S
C130 C129 1.383 1_565 S
C130 C131 1.395 . S
C131 H102 0.950 . S
C131 C130 1.395 . S
C131 C132 1.288 1_565 S
C132 C131 1.288 1_545 S
C132 C133 1.392 . S
C133 H103 0.951 . S
C133 C132 1.392 . S
C133 C134 1.392 . S
C134 H104 0.949 . S
C134 C129 1.382 . S
C134 C133 1.392 . S
H135 C154 0.949 . S
H136 C155 0.950 . S
H137 C157 0.950 . S
H138 C158 0.950 . S
H139 C160 0.950 . S
H140 C163 0.950 . S
H141 C164 0.950 . S
H142 C166 0.951 . S
H143 C167 0.949 . S
H144 C169 0.949 . S
H145 C170 0.950 . S
H146 C172 0.950 . S
H147 C173 0.950 . S
H148 C175 0.950 . S
H149 C178 0.950 . S
H150 C179 0.950 . S
H151 C181 0.951 . S
H152 C182 0.949 . S
C153 C154 1.376 . S
C153 C158 1.386 . S
C153 C159 1.483 . S
C154 H135 0.949 . S
C154 C153 1.376 . S
C154 C155 1.397 . S
C155 H136 0.950 . S
C155 C154 1.397 . S
C155 C156 1.391 . S
C156 C155 1.391 . S
C156 C157 1.405 . S
C157 H137 0.950 . S
C157 C156 1.405 . S
C157 C158 1.367 . S
C158 H138 0.950 . S
C158 C153 1.386 . S
C158 C157 1.367 . S
C159 C153 1.483 . S
C159 C160 1.382 . S
C159 C161 1.403 . S
C160 H139 0.950 . S
C160 C159 1.382 . S
C160 C176 1.411 . S
C161 C159 1.403 . S
C161 C162 1.489 . S
C161 C175 1.411 . S
C162 C161 1.489 . S
C162 C163 1.383 . S
C162 C167 1.382 . S
C163 H140 0.950 . S
C163 C162 1.383 . S
C163 C164 1.395 . S
C164 H141 0.950 . S
C164 C163 1.395 . S
C164 C165 1.288 . S
C165 C164 1.288 . S
C165 C166 1.392 . S
C166 H142 0.951 . S
C166 C165 1.392 . S
C166 C167 1.392 . S
C167 H143 0.949 . S
C167 C162 1.382 . S
C167 C166 1.392 . S
C168 C169 1.376 . S
C168 C173 1.386 . S
C168 C174 1.483 . S
C169 H144 0.949 . S
C169 C168 1.376 . S
C169 C170 1.397 . S
C170 H145 0.950 . S
C170 C169 1.397 . S
C170 C171 1.391 . S
C171 C170 1.391 . S
C171 C172 1.405 . S
C172 H146 0.950 . S
C172 C171 1.405 . S
C172 C173 1.367 . S
C173 H147 0.950 . S
C173 C168 1.386 . S
C173 C172 1.367 . S
C174 C168 1.483 . S
C174 C175 1.382 . S
C174 C176 1.403 . S
C175 H148 0.950 . S
C175 C161 1.411 . S
C175 C174 1.382 . S
C176 C160 1.411 . S
C176 C174 1.403 . S
C176 C177 1.489 . S
C177 C176 1.489 . S
C177 C178 1.383 . S
C177 C182 1.382 . S
C178 H149 0.950 . S
C178 C177 1.383 . S
C178 C179 1.395 . S
C179 H150 0.950 . S
C179 C178 1.395 . S
C179 C180 1.288 . S
C180 C179 1.288 . S
C180 C181 1.392 . S
C181 H151 0.951 . S
C181 C180 1.392 . S
C181 C182 1.392 . S
C182 H152 0.949 . S
C182 C177 1.382 . S
C182 C181 1.392 . S
H183 C189 0.930 . S
H184 C192 0.930 . S
H185 C193 0.930 . S
H186 C194 0.930 . S
H187 C197 0.930 . S
H188 C198 0.930 . S
C189 H183 0.930 . S
C189 C190 1.355 1_655 S
C189 C191 1.415 . S
C190 C189 1.355 1_455 S
C190 C192 1.419 . S
C191 C189 1.415 . S
C191 C196 1.425 1_655 S
C191 C198 1.409 . S
C192 H184 0.930 . S
C192 C190 1.419 . S
C192 C193 1.362 . S
C193 H185 0.930 . S
C193 C192 1.362 . S
C193 C196 1.409 . S
C194 H186 0.930 . S
C194 C195 1.355 1_455 S
C194 C196 1.415 . S
C195 C194 1.355 1_655 S
C195 C197 1.419 . S
C196 C191 1.425 1_455 S
C196 C193 1.409 . S
C196 C194 1.415 . S
C197 H187 0.930 . S
C197 C195 1.419 . S
C197 C198 1.362 . S
C198 H188 0.930 . S
C198 C191 1.409 . S
C198 C197 1.362 . S
H199 C205 0.930 1_565 S
H200 C208 0.930 . S
H201 C209 0.930 . S
H202 C210 0.930 . S
H203 C213 0.930 . S
H204 C214 0.930 1_565 S
C205 H199 0.930 1_545 S
C205 C206 1.355 . S
C205 C207 1.415 . S
C206 C205 1.355 . S
C206 C208 1.419 . S
C207 C205 1.415 . S
C207 C212 1.425 . S
C207 C214 1.409 . S
C208 H200 0.930 . S
C208 C206 1.419 . S
C208 C209 1.362 . S
C209 H201 0.930 . S
C209 C208 1.362 . S
C209 C212 1.409 . S
C210 H202 0.930 . S
C210 C211 1.355 . S
C210 C212 1.415 . S
C211 C210 1.355 . S
C211 C213 1.419 . S
C212 C207 1.425 . S
C212 C209 1.409 . S
C212 C210 1.415 . S
C213 H203 0.930 . S
C213 C211 1.419 . S
C213 C214 1.362 . S
C214 H204 0.930 1_545 S
C214 C207 1.409 . S
C214 C213 1.362 . S
H215 C221 0.930 . S
H216 C224 0.930 . S
H217 C225 0.930 . S
H218 C226 0.930 . S
H219 C229 0.930 . S
H220 C230 0.930 . S
C221 H215 0.930 . S
C221 C222 1.355 . S
C221 C223 1.415 . S
C222 C221 1.355 . S
C222 C224 1.419 . S
C223 C221 1.415 . S
C223 C228 1.425 . S
C223 C230 1.409 . S
C224 H216 0.930 . S
C224 C222 1.419 . S
C224 C225 1.362 . S
C225 H217 0.930 . S
C225 C224 1.362 . S
C225 C228 1.409 . S
C226 H218 0.930 . S
C226 C227 1.355 . S
C226 C228 1.415 . S
C227 C226 1.355 . S
C227 C229 1.419 . S
C228 C223 1.425 . S
C228 C225 1.409 . S
C228 C226 1.415 . S
C229 H219 0.930 . S
C229 C227 1.419 . S
C229 C230 1.362 . S
C230 H220 0.930 . S
C230 C223 1.409 . S
C230 C229 1.362 . S
H231 C237 0.930 . S
H232 C240 0.930 . S
H233 C241 0.930 . S
H234 C242 0.930 . S
H235 C245 0.930 . S
H236 C246 0.930 . S
C237 H231 0.930 . S
C237 C238 1.355 1_655 S
C237 C239 1.415 . S
C238 C237 1.355 1_455 S
C238 C240 1.419 . S
C239 C237 1.415 . S
C239 C244 1.425 1_655 S
C239 C246 1.409 . S
C240 H232 0.930 . S
C240 C238 1.419 . S
C240 C241 1.362 . S
C241 H233 0.930 . S
C241 C240 1.362 . S
C241 C244 1.409 . S
C242 H234 0.930 . S
C242 C243 1.355 . S
C242 C244 1.415 . S
C243 C242 1.355 . S
C243 C245 1.419 1_455 S
C244 C239 1.425 1_455 S
C244 C241 1.409 . S
C244 C242 1.415 . S
C245 H235 0.930 . S
C245 C243 1.419 1_655 S
C245 C246 1.362 . S
C246 H236 0.930 . S
C246 C239 1.409 . S
C246 C245 1.362 . S
H247 C253 0.930 . S
H248 C256 0.930 . S
H249 C257 0.930 . S
H250 C258 0.930 . S
H251 C261 0.930 . S
H252 C262 0.930 . S
C253 H247 0.930 . S
C253 C254 1.355 . S
C253 C255 1.415 . S
C254 C253 1.355 . S
C254 C256 1.419 . S
C255 C253 1.415 . S
C255 C260 1.425 . S
C255 C262 1.409 . S
C256 H248 0.930 . S
C256 C254 1.419 . S
C256 C257 1.362 . S
C257 H249 0.930 . S
C257 C256 1.362 . S
C257 C260 1.409 . S
C258 H250 0.930 . S
C258 C259 1.355 . S
C258 C260 1.415 . S
C259 C258 1.355 . S
C259 C261 1.419 . S
C260 C255 1.425 . S
C260 C257 1.409 . S
C260 C258 1.415 . S
C261 H251 0.930 . S
C261 C259 1.419 . S
C261 C262 1.362 . S
C262 H252 0.930 . S
C262 C255 1.409 . S
C262 C261 1.362 . S
H263 C269 0.930 . S
H264 C272 0.930 . S
H265 C273 0.930 . S
H266 C274 0.930 . S
H267 C277 0.930 . S
H268 C278 0.930 . S
C269 H263 0.930 . S
C269 C270 1.355 . S
C269 C271 1.415 . S
C270 C269 1.355 . S
C270 C272 1.419 . S
C271 C269 1.415 . S
C271 C276 1.425 . S
C271 C278 1.409 . S
C272 H264 0.930 . S
C272 C270 1.419 . S
C272 C273 1.362 . S
C273 H265 0.930 . S
C273 C272 1.362 . S
C273 C276 1.409 . S
C274 H266 0.930 . S
C274 C275 1.355 . S
C274 C276 1.415 . S
C275 C274 1.355 . S
C275 C277 1.419 . S
C276 C271 1.425 . S
C276 C273 1.409 . S
C276 C274 1.415 . S
C277 H267 0.930 . S
C277 C275 1.419 . S
C277 C278 1.362 . S
C278 H268 0.930 . S
C278 C271 1.409 . S
C278 C277 1.362 . S
H279 C285 0.930 . S
H280 C288 0.930 . S
H281 C289 0.930 . S
H282 C290 0.930 . S
H283 C293 0.930 . S
H284 C294 0.930 . S
C285 H279 0.930 . S
C285 C286 1.355 . S
C285 C287 1.415 . S
C286 C285 1.355 . S
C286 C288 1.419 1_545 S
C287 C285 1.415 . S
C287 C292 1.425 1_545 S
C287 C294 1.409 . S
C288 H280 0.930 . S
C288 C286 1.419 1_565 S
C288 C289 1.362 . S
C289 H281 0.930 . S
C289 C288 1.362 . S
C289 C292 1.409 . S
C290 H282 0.930 . S
C290 C291 1.355 1_565 S
C290 C292 1.415 . S
C291 C290 1.355 1_545 S
C291 C293 1.419 . S
C292 C287 1.425 1_565 S
C292 C289 1.409 . S
C292 C290 1.415 . S
C293 H283 0.930 . S
C293 C291 1.419 . S
C293 C294 1.362 . S
C294 H284 0.930 . S
C294 C287 1.409 . S
C294 C293 1.362 . S
H295 C301 0.930 1_554 S
H296 C304 0.930 1_545 S
H297 C305 0.930 . S
H298 C306 0.930 . S
H299 C309 0.930 . S
H300 C310 0.930 . S
C301 H295 0.930 1_556 S
C301 C302 1.355 . S
C301 C303 1.415 . S
C302 C301 1.355 . S
C302 C304 1.419 . S
C303 C301 1.415 . S
C303 C308 1.425 . S
C303 C310 1.409 . S
C304 H296 0.930 1_565 S
C304 C302 1.419 . S
C304 C305 1.362 . S
C305 H297 0.930 . S
C305 C304 1.362 . S
C305 C308 1.409 . S
C306 H298 0.930 . S
C306 C307 1.355 . S
C306 C308 1.415 . S
C307 C306 1.355 . S
C307 C309 1.419 . S
C308 C303 1.425 . S
C308 C305 1.409 . S
C308 C306 1.415 . S
C309 H299 0.930 . S
C309 C307 1.419 . S
C309 C310 1.362 . S
C310 H300 0.930 . S
C310 C303 1.409 . S
C310 C309 1.362 . S
H311 C317 0.930 . S
H312 C320 0.930 . S
H313 C321 0.930 . S
H314 C322 0.930 . S
H315 C325 0.930 . S
H316 C326 0.930 . S
C317 H311 0.930 . S
C317 C318 1.355 . S
C317 C319 1.415 . S
C318 C317 1.355 . S
C318 C320 1.419 1_455 S
C319 C317 1.415 . S
C319 C324 1.425 1_455 S
C319 C326 1.409 . S
C320 H312 0.930 . S
C320 C318 1.419 1_655 S
C320 C321 1.362 . S
C321 H313 0.930 . S
C321 C320 1.362 . S
C321 C324 1.409 . S
C322 H314 0.930 . S
C322 C323 1.355 1_655 S
C322 C324 1.415 . S
C323 C322 1.355 1_455 S
C323 C325 1.419 . S
C324 C319 1.425 1_655 S
C324 C321 1.409 . S
C324 C322 1.415 . S
C325 H315 0.930 . S
C325 C323 1.419 . S
C325 C326 1.362 . S
C326 H316 0.930 . S
C326 C319 1.409 . S
C326 C325 1.362 . S
H327 C333 0.930 . S
H328 C336 0.930 . S
H329 C337 0.930 . S
H330 C338 0.930 . S
H331 C341 0.930 . S
H332 C342 0.930 . S
C333 H327 0.930 . S
C333 C334 1.355 1_545 S
C333 C335 1.415 . S
C334 C333 1.355 1_565 S
C334 C336 1.419 . S
C335 C333 1.415 . S
C335 C340 1.425 1_545 S
C335 C342 1.409 . S
C336 H328 0.930 . S
C336 C334 1.419 . S
C336 C337 1.362 . S
C337 H329 0.930 . S
C337 C336 1.362 . S
C337 C340 1.409 . S
C338 H330 0.930 . S
C338 C339 1.355 1_565 S
C338 C340 1.415 . S
C339 C338 1.355 1_545 S
C339 C341 1.419 . S
C340 C335 1.425 1_565 S
C340 C337 1.409 . S
C340 C338 1.415 . S
C341 H331 0.930 . S
C341 C339 1.419 . S
C341 C342 1.362 . S
C342 H332 0.930 . S
C342 C335 1.409 . S
C342 C341 1.362 . S
H343 C349 0.930 1_554 S
H344 C352 0.930 . S
H345 C353 0.930 . S
H346 C354 0.930 . S
H347 C357 0.930 . S
H348 C358 0.930 . S
C349 H343 0.930 1_556 S
C349 C350 1.355 . S
C349 C351 1.415 . S
C350 C349 1.355 . S
C350 C352 1.419 . S
C351 C349 1.415 . S
C351 C356 1.425 . S
C351 C358 1.409 . S
C352 H344 0.930 . S
C352 C350 1.419 . S
C352 C353 1.362 . S
C353 H345 0.930 . S
C353 C352 1.362 . S
C353 C356 1.409 . S
C354 H346 0.930 . S
C354 C355 1.355 . S
C354 C356 1.415 . S
C355 C354 1.355 . S
C355 C357 1.419 . S
C356 C351 1.425 . S
C356 C353 1.409 . S
C356 C354 1.415 . S
C357 H347 0.930 . S
C357 C355 1.419 . S
C357 C358 1.362 . S
C358 H348 0.930 . S
C358 C351 1.409 . S
C358 C357 1.362 . S
H359 C365 0.930 . S
H360 C368 0.930 . S
H361 C369 0.930 . S
H362 C370 0.930 . S
H363 C373 0.930 . S
H364 C374 0.930 . S
C365 H359 0.930 . S
C365 C366 1.355 . S
C365 C367 1.415 . S
C366 C365 1.355 . S
C366 C368 1.419 . S
C367 C365 1.415 . S
C367 C372 1.425 . S
C367 C374 1.409 . S
C368 H360 0.930 . S
C368 C366 1.419 . S
C368 C369 1.362 . S
C369 H361 0.930 . S
C369 C368 1.362 . S
C369 C372 1.409 . S
C370 H362 0.930 . S
C370 C371 1.355 . S
C370 C372 1.415 . S
C371 C370 1.355 . S
C371 C373 1.419 . S
C372 C367 1.425 . S
C372 C369 1.409 . S
C372 C370 1.415 . S
C373 H363 0.930 . S
C373 C371 1.419 . S
C373 C374 1.362 . S
C374 H364 0.930 . S
C374 C367 1.409 . S
C374 C373 1.362 . S
C195 C60 1.425 1_655 S
C190 C10 1.424 1_455 S
C206 C21 1.470 . S
C211 C108 1.474 . S
C222 C31 1.430 . S
C227 C180 1.468 . S
C238 C0 1.416 . S
C243 C84 1.452 . S
C259 C132 1.467 . S
C254 C18 1.408 . S
C270 C34 1.422 . S
C275 C156 1.444 . S
C291 C117 1.418 . S
C286 C36 1.409 . S
C302 C8 1.390 1_556 S
C307 C171 1.444 . S
C323 C75 1.430 . S
C318 C23 1.426 . S
C339 C123 1.402 . S
C334 C26 1.360 . S
C355 C165 1.475 . S
C350 C5 1.379 1_556 S
C366 C13 1.437 . S
C371 C69 1.458 . S
