# Generated by pormake.
# Topology tsx, (6,3)-cn, num edge types: 1
# Building blocks:
#     Node 0, Type 0, BuildingBlock: VOLQOD_clean_sbu_1, # of connection points: 6
#     Node 1, Type 0, BuildingBlock: VOLQOD_clean_sbu_1, # of connection points: 6
#     Node 2, Type 1, BuildingBlock: INOVEN_clean_linker_0, # of connection points: 3
#     Node 3, Type 1, BuildingBlock: INOVEN_clean_linker_0, # of connection points: 3
#     Node 4, Type 1, BuildingBlock: INOVEN_clean_linker_0, # of connection points: 3
#     Node 5, Type 1, BuildingBlock: INOVEN_clean_linker_0, # of connection points: 3
#     Edge 6, Type (0, 1), BuildingBlock: CIFDUS_clean_linker_0, # of connection points: 2
#     Edge 7, Type (0, 1), BuildingBlock: CIFDUS_clean_linker_0, # of connection points: 2
#     Edge 8, Type (0, 1), BuildingBlock: CIFDUS_clean_linker_0, # of connection points: 2
#     Edge 9, Type (0, 1), BuildingBlock: CIFDUS_clean_linker_0, # of connection points: 2
#     Edge 10, Type (0, 1), BuildingBlock: CIFDUS_clean_linker_0, # of connection points: 2
#     Edge 11, Type (0, 1), BuildingBlock: CIFDUS_clean_linker_0, # of connection points: 2
#     Edge 12, Type (0, 1), BuildingBlock: CIFDUS_clean_linker_0, # of connection points: 2
#     Edge 13, Type (0, 1), BuildingBlock: CIFDUS_clean_linker_0, # of connection points: 2
#     Edge 14, Type (0, 1), BuildingBlock: CIFDUS_clean_linker_0, # of connection points: 2
#     Edge 15, Type (0, 1), BuildingBlock: CIFDUS_clean_linker_0, # of connection points: 2
#     Edge 16, Type (0, 1), BuildingBlock: CIFDUS_clean_linker_0, # of connection points: 2
#     Edge 17, Type (0, 1), BuildingBlock: CIFDUS_clean_linker_0, # of connection points: 2
# Relax obj value: 0.050
# Max RMSD: 0.105
# Mean RMSD: 0.095
data_MOF--net-tsx--node1-VOLQOD_clean_sbu_1--node2-INOVEN_clean_linker_0--edge1-CIFDUS_clean_linker_0
_symmetry_space_group_name_H-M    P1
_symmetry_Int_Tables_number       1
_symmetry_cell_setting            triclinic
loop_
_symmetry_equiv_pos_as_xyz
'x, y, z'
_cell_length_a     18.483065
_cell_length_b     19.262368
_cell_length_c     32.999325
_cell_angle_alpha  90.446745
_cell_angle_beta   98.517725
_cell_angle_gamma 89.187659
loop_
_atom_site_label
_atom_site_type_symbol
_atom_site_fract_x
_atom_site_fract_y
_atom_site_fract_z
_atom_type_partial_charge
O0 O 0.06669 0.01815 0.09561 0.0
Zn1 Zn 0.08639 0.0072 0.03793 0.0
O2 O 0.99885 0.02173 -0.00111 0.0
Zn3 Zn 0.97286 0.93302 0.97152 0.0
Zn4 Zn 0.92282 0.05687 0.02924 0.0
Zn5 Zn 0.01516 0.09111 0.95874 0.0
O6 O 0.96085 0.94525 0.90984 0.0
O7 O 0.01532 0.04616 0.90314 0.0
O8 O 0.13284 0.91406 0.03226 0.0
O9 O 0.0541 0.85984 0.98588 0.0
O10 O 0.87948 0.89729 0.98912 0.0
O11 O 0.84817 0.98287 0.02904 0.0
O12 O 0.87119 0.1427 0.00412 0.0
O13 O 0.15925 0.07879 0.03031 0.0
O14 O 0.93179 0.16154 0.95203 0.0
O15 O 0.11022 0.14189 0.97689 0.0
C16 C 0.01718 0.05107 0.11111 0.0
C17 C 0.98613 0.99044 0.88773 0.0
C18 C 0.83684 0.92327 0.01252 0.0
C19 C 0.11415 0.86058 0.01062 0.0
C20 C 0.88035 0.17693 0.9725 0.0
C21 C 0.16215 0.12922 0.006 0.0
O22 O 0.96074 0.07565 0.08877 0.0
O23 O 0.59468 0.48566 0.59368 0.0
Zn24 Zn 0.61067 0.48026 0.53519 0.0
O25 O 0.51839 0.4884 0.49863 0.0
Zn26 Zn 0.4961 0.39967 0.46956 0.0
Zn27 Zn 0.44161 0.51512 0.53098 0.0
Zn28 Zn 0.5268 0.56148 0.45957 0.0
O29 O 0.48571 0.4136 0.40765 0.0
O30 O 0.52095 0.52274 0.40282 0.0
O31 O 0.66029 0.38915 0.52801 0.0
O32 O 0.57986 0.33051 0.48457 0.0
O33 O 0.40305 0.35779 0.48525 0.0
O34 O 0.3693 0.43796 0.52778 0.0
O35 O 0.38519 0.60156 0.50996 0.0
O36 O 0.6788 0.55767 0.52655 0.0
O37 O 0.44157 0.62691 0.45712 0.0
O38 O 0.61936 0.61669 0.47419 0.0
C39 C 0.54233 0.50858 0.61122 0.0
C40 C 0.50059 0.46497 0.38621 0.0
C41 C 0.35935 0.37984 0.50921 0.0
C42 C 0.64138 0.33418 0.5078 0.0
C43 C 0.39125 0.63839 0.47885 0.0
C44 C 0.67488 0.60828 0.50167 0.0
O45 O 0.48131 0.52724 0.59085 0.0
H46 H 0.03318 0.95695 0.46506 0.0
H47 H 0.1667 0.95304 0.36884 0.0
H48 H 0.95382 0.05011 0.3492 0.0
N49 N 0.9259 0.03849 0.42318 0.0
N50 N 0.92033 0.04787 0.46 0.0
C51 C 0.0425 0.97148 0.43468 0.0
C52 C 0.10464 0.94642 0.41894 0.0
C53 C 0.98972 0.01156 0.40955 0.0
C54 C 0.99794 0.02401 0.36878 0.0
C55 C 0.06107 0.00197 0.35325 0.0
C56 C 0.11613 0.96768 0.37974 0.0
H57 H 0.00682 0.91643 0.53123 0.0
H58 H 0.96022 0.85663 0.64977 0.0
H59 H 0.06803 0.04941 0.63544 0.0
N60 N 0.07697 0.03235 0.55547 0.0
N61 N 0.0927 0.09295 0.56677 0.0
C62 C 0.00859 0.92717 0.56362 0.0
C63 C 0.97785 0.88032 0.58847 0.0
C64 C 0.04195 0.98777 0.58051 0.0
C65 C 0.04356 0.00186 0.62264 0.0
C66 C 0.01478 0.95478 0.64829 0.0
C67 C 0.98247 0.89387 0.6307 0.0
H68 H 0.50712 0.47835 0.96237 0.0
H69 H 0.63435 0.49122 0.86332 0.0
H70 H 0.41597 0.57494 0.84949 0.0
N71 N 0.39375 0.55801 0.92374 0.0
N72 N 0.39232 0.57436 0.96023 0.0
C73 C 0.51384 0.49531 0.93201 0.0
C74 C 0.57639 0.47502 0.91458 0.0
C75 C 0.45751 0.53423 0.90857 0.0
C76 C 0.46234 0.54981 0.86781 0.0
C77 C 0.5254 0.53339 0.85077 0.0
C78 C 0.58376 0.50033 0.87548 0.0
H79 H 0.45083 0.49056 0.02346 0.0
H80 H 0.38815 0.41701 0.13563 0.0
H81 H 0.53841 0.5862 0.1378 0.0
N82 N 0.53821 0.58929 0.05625 0.0
N83 N 0.56243 0.64507 0.07167 0.0
C84 C 0.45386 0.4942 0.05639 0.0
C85 C 0.41455 0.44813 0.07707 0.0
C86 C 0.49765 0.54455 0.07802 0.0
C87 C 0.50265 0.54844 0.12097 0.0
C88 C 0.46395 0.50217 0.14234 0.0
C89 C 0.4198 0.45214 0.11993 0.0
H90 H 0.17162 0.26185 0.97859 0.0
H91 H 0.2914 0.10497 0.05499 0.0
H92 H 0.38308 0.18951 0.0816 0.0
H93 H 0.42192 0.31029 0.08915 0.0
H94 H 0.3041 0.46833 0.01358 0.0
H95 H 0.21921 0.38118 0.98039 0.0
C96 C 0.21857 0.24589 0.00039 0.0
C97 C 0.22391 0.17749 0.01527 0.0
C98 C 0.27088 0.29516 0.01615 0.0
C99 C 0.28529 0.15756 0.04346 0.0
C100 C 0.33777 0.20587 0.05882 0.0
C101 C 0.37789 0.32527 0.06516 0.0
C102 C 0.36812 0.39519 0.05411 0.0
C103 C 0.32974 0.27517 0.04644 0.0
C104 C 0.31205 0.41447 0.02255 0.0
C105 C 0.26358 0.36478 0.00372 0.0
H106 H 0.10509 0.74399 0.96228 0.0
H107 H 0.24141 0.84246 0.06349 0.0
H108 H 0.33591 0.75378 0.06099 0.0
H109 H 0.38706 0.65733 0.02398 0.0
H110 H 0.25311 0.56273 0.92099 0.0
H111 H 0.15046 0.63899 0.93088 0.0
C112 C 0.15491 0.7455 0.98422 0.0
C113 C 0.1663 0.80072 0.01252 0.0
C114 C 0.20993 0.69481 0.98224 0.0
C115 C 0.23126 0.80129 0.04091 0.0
C116 C 0.28556 0.75045 0.03959 0.0
C117 C 0.33461 0.65241 0.00458 0.0
C118 C 0.32799 0.60554 0.9716 0.0
C119 C 0.27652 0.69823 0.00955 0.0
C120 C 0.2599 0.59929 0.94632 0.0
C121 C 0.20125 0.64312 0.95183 0.0
H122 H 0.78696 0.79794 0.98091 0.0
H123 H 0.74981 0.95541 0.06987 0.0
H124 H 0.65858 0.88347 0.09423 0.0
H125 H 0.59544 0.77244 0.09406 0.0
H126 H 0.62903 0.61528 0.00504 0.0
H127 H 0.71509 0.69023 0.9768 0.0
C128 C 0.75842 0.81677 0.00535 0.0
C129 C 0.776 0.88177 0.02373 0.0
C130 C 0.70557 0.77502 0.01938 0.0
C131 C 0.73786 0.90556 0.05516 0.0
C132 C 0.68566 0.86439 0.06929 0.0
C133 C 0.62119 0.75539 0.06815 0.0
C134 C 0.6066 0.68913 0.05178 0.0
C135 C 0.67013 0.79864 0.05218 0.0
C136 C 0.63959 0.66653 0.01813 0.0
C137 C 0.68891 0.70923 0.0021 0.0
H138 H 0.80449 0.26668 0.01639 0.0
H139 H 0.83424 0.20823 0.8933 0.0
H140 H 0.74023 0.29175 0.86547 0.0
H141 H 0.64839 0.37743 0.8755 0.0
H142 H 0.62595 0.45039 0.99722 0.0
H143 H 0.71625 0.36277 0.02631 0.0
C144 C 0.79045 0.27273 0.98352 0.0
C145 C 0.82628 0.23132 0.95688 0.0
C146 C 0.73728 0.32257 0.96755 0.0
C147 C 0.80802 0.23981 0.91439 0.0
C148 C 0.75395 0.28727 0.89845 0.0
C149 C 0.6644 0.37649 0.90844 0.0
C150 C 0.63105 0.42233 0.9339 0.0
C151 C 0.71837 0.32872 0.9247 0.0
C152 C 0.65033 0.41624 0.97664 0.0
C153 C 0.70248 0.36638 0.99331 0.0
H154 H 0.80296 0.6039 0.5542 0.0
H155 H 0.678 0.73215 0.46157 0.0
H156 H 0.76629 0.8253 0.47704 0.0
H157 H 0.87158 0.87489 0.52215 0.0
H158 H 0.99378 0.74708 0.61576 0.0
H159 H 0.91431 0.64911 0.59441 0.0
C160 C 0.79529 0.65188 0.53701 0.0
C161 C 0.73325 0.66116 0.50713 0.0
C162 C 0.84565 0.70558 0.54643 0.0
C163 C 0.7249 0.72356 0.48492 0.0
C164 C 0.77532 0.77704 0.49382 0.0
C165 C 0.88169 0.82507 0.5372 0.0
C166 C 0.93789 0.81831 0.57074 0.0
C167 C 0.83488 0.76928 0.52524 0.0
C168 C 0.95019 0.75369 0.59021 0.0
C169 C 0.90478 0.69773 0.57804 0.0
H170 H 0.63382 0.2186 0.4593 0.0
H171 H 0.76791 0.31701 0.56138 0.0
H172 H 0.86239 0.22783 0.55981 0.0
H173 H 0.91388 0.13062 0.52358 0.0
H174 H 0.78303 0.03808 0.41881 0.0
H175 H 0.67994 0.11452 0.42785 0.0
C176 C 0.68318 0.22002 0.48161 0.0
C177 C 0.69409 0.27511 0.50995 0.0
C178 C 0.73812 0.16939 0.48002 0.0
C179 C 0.75839 0.27581 0.53878 0.0
C180 C 0.81255 0.22472 0.538 0.0
C181 C 0.86194 0.12628 0.5036 0.0
C182 C 0.85599 0.07985 0.47048 0.0
C183 C 0.804 0.17248 0.50796 0.0
C184 C 0.78887 0.0743 0.44432 0.0
C185 C 0.73013 0.11818 0.44935 0.0
H186 H 0.32127 0.24882 0.48018 0.0
H187 H 0.2585 0.41276 0.55872 0.0
H188 H 0.16601 0.33917 0.58026 0.0
H189 H 0.10999 0.22514 0.58208 0.0
H190 H 0.16948 0.06024 0.50427 0.0
H191 H 0.25521 0.13698 0.47686 0.0
C192 C 0.28682 0.26869 0.50164 0.0
C193 C 0.29796 0.33615 0.51815 0.0
C194 C 0.23315 0.22575 0.5142 0.0
C195 C 0.25215 0.36102 0.54571 0.0
C196 C 0.19897 0.31894 0.55816 0.0
C197 C 0.14093 0.20679 0.55854 0.0
C198 C 0.13393 0.13777 0.54536 0.0
C199 C 0.19014 0.25089 0.54335 0.0
C200 C 0.17401 0.11352 0.5149 0.0
C201 C 0.22328 0.15731 0.49942 0.0
H202 H 0.32495 0.73571 0.52303 0.0
H203 H 0.32915 0.65471 0.40103 0.0
H204 H 0.23583 0.7386 0.37316 0.0
H205 H 0.15663 0.83538 0.38246 0.0
H206 H 0.15794 0.92915 0.50172 0.0
H207 H 0.24365 0.8383 0.5321 0.0
C208 C 0.30498 0.73673 0.49044 0.0
C209 C 0.33392 0.68962 0.46396 0.0
C210 C 0.2525 0.78695 0.47427 0.0
C211 C 0.30817 0.6911 0.4218 0.0
C212 C 0.25467 0.73877 0.40588 0.0
C213 C 0.17664 0.83733 0.41506 0.0
C214 C 0.15288 0.89061 0.4395 0.0
C215 C 0.22737 0.7873 0.4317 0.0
C216 C 0.17626 0.88943 0.48204 0.0
C217 C 0.22547 0.83766 0.49934 0.0
H218 H 0.09151 0.96466 0.16651 0.0
H219 H 0.95628 0.14982 0.15636 0.0
H220 H 0.96358 0.155 0.2311 0.0
H221 H 0.00494 0.10386 0.29889 0.0
H222 H 0.12673 0.90965 0.30611 0.0
H223 H 0.13029 0.91285 0.23325 0.0
C224 C 0.0642 0.0066 0.18065 0.0
C225 C 0.02365 0.05688 0.15608 0.0
C226 C 0.06676 0.00798 0.22323 0.0
C227 C 0.98766 0.11034 0.17475 0.0
C228 C 0.99191 0.11334 0.21741 0.0
C229 C 0.03187 0.0619 0.28464 0.0
C230 C 0.06627 0.00718 0.30867 0.0
C231 C 0.03057 0.06181 0.24195 0.0
C232 C 0.10172 0.95391 0.28923 0.0
C233 C 0.10297 0.95495 0.24719 0.0
H234 H 0.07986 0.03336 0.83726 0.0
H235 H 0.88064 0.91987 0.83816 0.0
H236 H 0.87006 0.90168 0.76409 0.0
H237 H 0.91648 0.91935 0.69925 0.0
H238 H 0.1237 0.02101 0.69975 0.0
H239 H 0.13063 0.04426 0.77276 0.0
C240 C 0.03409 0.00476 0.82116 0.0
C241 C 0.98088 0.97834 0.84306 0.0
C242 C 0.02935 0.99296 0.77876 0.0
C243 C 0.92241 0.94054 0.82198 0.0
C244 C 0.91623 0.93032 0.77962 0.0
C245 C 0.96402 0.94549 0.71519 0.0
C246 C 0.01915 0.9686 0.69334 0.0
C247 C 0.96945 0.95622 0.75771 0.0
C248 C 0.07923 0.00394 0.71503 0.0
C249 C 0.0838 0.01668 0.75709 0.0
H250 H 0.48259 0.5992 0.66098 0.0
H251 H 0.62197 0.41739 0.66208 0.0
H252 H 0.63051 0.41036 0.73639 0.0
H253 H 0.59197 0.45078 0.79971 0.0
H254 H 0.46279 0.63943 0.80096 0.0
H255 H 0.45556 0.64801 0.72671 0.0
C256 C 0.5151 0.55841 0.67766 0.0
C257 C 0.5511 0.50855 0.65625 0.0
C258 C 0.52106 0.55547 0.72054 0.0
C259 C 0.59392 0.45641 0.67802 0.0
C260 C 0.59862 0.4522 0.72044 0.0
C261 C 0.56397 0.49517 0.78427 0.0
C262 C 0.52768 0.54411 0.80629 0.0
C263 C 0.5618 0.501 0.74189 0.0
C264 C 0.49005 0.6 0.78494 0.0
C265 C 0.48623 0.60528 0.74244 0.0
H266 H 0.49411 0.5701 0.33164 0.0
H267 H 0.48816 0.34664 0.33881 0.0
H268 H 0.47637 0.33836 0.26404 0.0
H269 H 0.47016 0.39487 0.19681 0.0
H270 H 0.47027 0.6188 0.19051 0.0
H271 H 0.4832 0.62632 0.26493 0.0
C272 C 0.49048 0.51942 0.31697 0.0
C273 C 0.49255 0.45903 0.34091 0.0
C274 C 0.48306 0.51511 0.27411 0.0
C275 C 0.48677 0.39396 0.32118 0.0
C276 C 0.48013 0.38921 0.27842 0.0
C277 C 0.47209 0.44539 0.21162 0.0
C278 C 0.46978 0.50617 0.18786 0.0
C279 C 0.47833 0.44949 0.25458 0.0
C280 C 0.4734 0.57108 0.20785 0.0
C281 C 0.48026 0.57551 0.25047 0.0
loop_
_geom_bond_atom_site_label_1
_geom_bond_atom_site_label_2
_geom_bond_distance
_geom_bond_site_symmetry_2
_ccdc_geom_bond_type
O0 Zn1 1.953 . S
O0 C16 1.225 1_565 S
Zn1 O0 1.953 . S
Zn1 O2 1.949 1_565 S
Zn1 O8 1.919 . S
Zn1 O13 1.924 1_565 S
O2 Zn1 1.949 1_545 S
O2 Zn3 1.923 1_444 S
O2 Zn4 1.950 1_455 S
O2 Zn5 1.945 1_554 S
Zn3 O2 1.923 1_666 S
Zn3 O6 1.933 . S
Zn3 O9 1.941 1_655 S
Zn3 O10 1.965 . S
Zn4 O2 1.950 1_655 S
Zn4 O11 1.938 1_545 S
Zn4 O12 1.906 . S
Zn4 O22 1.953 . S
Zn5 O2 1.945 1_556 S
Zn5 O7 1.932 . S
Zn5 O14 1.977 1_455 S
Zn5 O15 1.910 . S
O6 Zn3 1.933 . S
O6 C17 1.226 1_565 S
O7 Zn5 1.932 . S
O7 C17 1.307 1_455 S
O8 Zn1 1.919 . S
O8 C19 1.253 1_554 S
O9 Zn3 1.941 1_455 S
O9 C19 1.283 . S
O10 Zn3 1.965 . S
O10 C18 1.303 1_556 S
O11 Zn4 1.938 1_565 S
O11 C18 1.247 . S
O12 Zn4 1.906 . S
O12 C20 1.304 1_554 S
O13 Zn1 1.924 1_545 S
O13 C21 1.311 . S
O14 Zn5 1.977 1_655 S
O14 C20 1.272 . S
O15 Zn5 1.910 . S
O15 C21 1.231 1_556 S
C16 O0 1.225 1_545 S
C16 O22 1.298 1_455 S
C17 O6 1.226 1_545 S
C17 O7 1.307 1_655 S
C18 O10 1.303 1_554 S
C18 O11 1.247 . S
C19 O8 1.253 1_556 S
C19 O9 1.283 . S
C20 O12 1.304 1_556 S
C20 O14 1.272 . S
C21 O13 1.311 . S
C21 O15 1.231 1_554 S
O22 Zn4 1.953 . S
O22 C16 1.298 1_655 S
O23 Zn24 1.953 . S
O23 C39 1.225 . S
Zn24 O23 1.953 . S
Zn24 O25 1.949 . S
Zn24 O31 1.919 . S
Zn24 O36 1.924 . S
O25 Zn24 1.949 . S
O25 Zn26 1.923 . S
O25 Zn27 1.950 . S
O25 Zn28 1.945 . S
Zn26 O25 1.923 . S
Zn26 O29 1.933 . S
Zn26 O32 1.941 . S
Zn26 O33 1.965 . S
Zn27 O25 1.950 . S
Zn27 O34 1.938 . S
Zn27 O35 1.906 . S
Zn27 O45 1.953 . S
Zn28 O25 1.945 . S
Zn28 O30 1.932 . S
Zn28 O37 1.977 . S
Zn28 O38 1.910 . S
O29 Zn26 1.933 . S
O29 C40 1.226 . S
O30 Zn28 1.932 . S
O30 C40 1.307 . S
O31 Zn24 1.919 . S
O31 C42 1.253 . S
O32 Zn26 1.941 . S
O32 C42 1.283 . S
O33 Zn26 1.965 . S
O33 C41 1.303 . S
O34 Zn27 1.938 . S
O34 C41 1.247 . S
O35 Zn27 1.906 . S
O35 C43 1.304 . S
O36 Zn24 1.924 . S
O36 C44 1.311 . S
O37 Zn28 1.977 . S
O37 C43 1.272 . S
O38 Zn28 1.910 . S
O38 C44 1.231 . S
C39 O23 1.225 . S
C39 O45 1.298 . S
C40 O29 1.226 . S
C40 O30 1.307 . S
C41 O33 1.303 . S
C41 O34 1.247 . S
C42 O31 1.253 . S
C42 O32 1.283 . S
C43 O35 1.304 . S
C43 O37 1.272 . S
C44 O36 1.311 . S
C44 O38 1.231 . S
O45 Zn27 1.953 . S
O45 C39 1.298 . S
H46 C51 0.929 . S
H47 C56 0.931 . S
H48 C54 0.930 . S
N49 N50 1.234 . S
N49 C53 1.453 . S
N50 N49 1.234 . S
C51 H46 0.929 . S
C51 C52 1.373 . S
C51 C53 1.368 1_465 S
C52 C51 1.373 . S
C52 C56 1.397 . S
C53 N49 1.453 . S
C53 C51 1.368 1_645 S
C53 C54 1.373 . S
C54 H48 0.930 . S
C54 C53 1.373 . S
C54 C55 1.371 1_645 S
C55 C54 1.371 1_465 S
C55 C56 1.383 . S
C56 H47 0.931 . S
C56 C52 1.397 . S
C56 C55 1.383 . S
H57 C62 0.929 . S
H58 C67 0.931 . S
H59 C65 0.930 . S
N60 N61 1.234 . S
N60 C64 1.453 . S
N61 N60 1.234 . S
C62 H57 0.929 . S
C62 C63 1.373 . S
C62 C64 1.368 1_665 S
C63 C62 1.373 . S
C63 C67 1.397 . S
C64 N60 1.453 . S
C64 C62 1.368 1_445 S
C64 C65 1.373 . S
C65 H59 0.930 . S
C65 C64 1.373 . S
C65 C66 1.371 1_445 S
C66 C65 1.371 1_665 S
C66 C67 1.383 . S
C67 H58 0.931 . S
C67 C63 1.397 . S
C67 C66 1.383 . S
H68 C73 0.929 . S
H69 C78 0.931 . S
H70 C76 0.930 . S
N71 N72 1.234 . S
N71 C75 1.453 . S
N72 N71 1.234 . S
C73 H68 0.929 . S
C73 C74 1.373 . S
C73 C75 1.368 . S
C74 C73 1.373 . S
C74 C78 1.397 . S
C75 N71 1.453 . S
C75 C73 1.368 . S
C75 C76 1.373 . S
C76 H70 0.930 . S
C76 C75 1.373 . S
C76 C77 1.371 . S
C77 C76 1.371 . S
C77 C78 1.383 . S
C78 H69 0.931 . S
C78 C74 1.397 . S
C78 C77 1.383 . S
H79 C84 0.929 . S
H80 C89 0.931 . S
H81 C87 0.930 . S
N82 N83 1.234 . S
N82 C86 1.453 . S
N83 N82 1.234 . S
C84 H79 0.929 . S
C84 C85 1.373 . S
C84 C86 1.368 . S
C85 C84 1.373 . S
C85 C89 1.397 . S
C86 N82 1.453 . S
C86 C84 1.368 . S
C86 C87 1.373 . S
C87 H81 0.930 . S
C87 C86 1.373 . S
C87 C88 1.371 . S
C88 C87 1.371 . S
C88 C89 1.383 . S
C89 H80 0.931 . S
C89 C85 1.397 . S
C89 C88 1.383 . S
H90 C96 0.930 . S
H91 C99 0.930 1_556 S
H92 C100 0.930 1_556 S
H93 C101 0.930 . S
H94 C104 0.930 . S
H95 C105 0.930 . S
C96 H90 0.930 . S
C96 C97 1.355 . S
C96 C98 1.415 . S
C97 C96 1.355 . S
C97 C99 1.419 . S
C98 C96 1.415 . S
C98 C103 1.425 . S
C98 C105 1.409 . S
C99 H91 0.930 1_554 S
C99 C97 1.419 . S
C99 C100 1.362 . S
C100 H92 0.930 1_554 S
C100 C99 1.362 . S
C100 C103 1.409 . S
C101 H93 0.930 . S
C101 C102 1.355 . S
C101 C103 1.415 . S
C102 C101 1.355 . S
C102 C104 1.419 . S
C103 C98 1.425 . S
C103 C100 1.409 . S
C103 C101 1.415 . S
C104 H94 0.930 . S
C104 C102 1.419 . S
C104 C105 1.362 . S
C105 H95 0.930 . S
C105 C98 1.409 . S
C105 C104 1.362 . S
H106 C112 0.930 . S
H107 C115 0.930 . S
H108 C116 0.930 . S
H109 C117 0.930 . S
H110 C120 0.930 . S
H111 C121 0.930 . S
C112 H106 0.930 . S
C112 C113 1.355 . S
C112 C114 1.415 . S
C113 C112 1.355 . S
C113 C115 1.419 . S
C114 C112 1.415 . S
C114 C119 1.425 . S
C114 C121 1.409 . S
C115 H107 0.930 . S
C115 C113 1.419 . S
C115 C116 1.362 . S
C116 H108 0.930 . S
C116 C115 1.362 . S
C116 C119 1.409 . S
C117 H109 0.930 . S
C117 C118 1.355 . S
C117 C119 1.415 . S
C118 C117 1.355 . S
C118 C120 1.419 . S
C119 C114 1.425 . S
C119 C116 1.409 . S
C119 C117 1.415 . S
C120 H110 0.930 . S
C120 C118 1.419 . S
C120 C121 1.362 . S
C121 H111 0.930 . S
C121 C114 1.409 . S
C121 C120 1.362 . S
H122 C128 0.930 1_556 S
H123 C131 0.930 . S
H124 C132 0.930 . S
H125 C133 0.930 . S
H126 C136 0.930 1_556 S
H127 C137 0.930 . S
C128 H122 0.930 1_554 S
C128 C129 1.355 . S
C128 C130 1.415 . S
C129 C128 1.355 . S
C129 C131 1.419 . S
C130 C128 1.415 . S
C130 C135 1.425 . S
C130 C137 1.409 1_554 S
C131 H123 0.930 . S
C131 C129 1.419 . S
C131 C132 1.362 . S
C132 H124 0.930 . S
C132 C131 1.362 . S
C132 C135 1.409 . S
C133 H125 0.930 . S
C133 C134 1.355 . S
C133 C135 1.415 . S
C134 C133 1.355 . S
C134 C136 1.419 . S
C135 C130 1.425 . S
C135 C132 1.409 . S
C135 C133 1.415 . S
C136 H126 0.930 1_554 S
C136 C134 1.419 . S
C136 C137 1.362 1_554 S
C137 H127 0.930 . S
C137 C130 1.409 1_556 S
C137 C136 1.362 1_556 S
H138 C144 0.930 1_554 S
H139 C147 0.930 . S
H140 C148 0.930 . S
H141 C149 0.930 . S
H142 C152 0.930 . S
H143 C153 0.930 1_554 S
C144 H138 0.930 1_556 S
C144 C145 1.355 . S
C144 C146 1.415 . S
C145 C144 1.355 . S
C145 C147 1.419 . S
C146 C144 1.415 . S
C146 C151 1.425 . S
C146 C153 1.409 . S
C147 H139 0.930 . S
C147 C145 1.419 . S
C147 C148 1.362 . S
C148 H140 0.930 . S
C148 C147 1.362 . S
C148 C151 1.409 . S
C149 H141 0.930 . S
C149 C150 1.355 . S
C149 C151 1.415 . S
C150 C149 1.355 . S
C150 C152 1.419 . S
C151 C146 1.425 . S
C151 C148 1.409 . S
C151 C149 1.415 . S
C152 H142 0.930 . S
C152 C150 1.419 . S
C152 C153 1.362 . S
C153 H143 0.930 1_556 S
C153 C146 1.409 . S
C153 C152 1.362 . S
H154 C160 0.930 . S
H155 C163 0.930 . S
H156 C164 0.930 . S
H157 C165 0.930 . S
H158 C168 0.930 . S
H159 C169 0.930 . S
C160 H154 0.930 . S
C160 C161 1.355 . S
C160 C162 1.415 . S
C161 C160 1.355 . S
C161 C163 1.419 . S
C162 C160 1.415 . S
C162 C167 1.425 . S
C162 C169 1.409 . S
C163 H155 0.930 . S
C163 C161 1.419 . S
C163 C164 1.362 . S
C164 H156 0.930 . S
C164 C163 1.362 . S
C164 C167 1.409 . S
C165 H157 0.930 . S
C165 C166 1.355 . S
C165 C167 1.415 . S
C166 C165 1.355 . S
C166 C168 1.419 . S
C167 C162 1.425 . S
C167 C164 1.409 . S
C167 C165 1.415 . S
C168 H158 0.930 . S
C168 C166 1.419 . S
C168 C169 1.362 . S
C169 H159 0.930 . S
C169 C162 1.409 . S
C169 C168 1.362 . S
H170 C176 0.930 . S
H171 C179 0.930 . S
H172 C180 0.930 . S
H173 C181 0.930 . S
H174 C184 0.930 . S
H175 C185 0.930 . S
C176 H170 0.930 . S
C176 C177 1.355 . S
C176 C178 1.415 . S
C177 C176 1.355 . S
C177 C179 1.419 . S
C178 C176 1.415 . S
C178 C183 1.425 . S
C178 C185 1.409 . S
C179 H171 0.930 . S
C179 C177 1.419 . S
C179 C180 1.362 . S
C180 H172 0.930 . S
C180 C179 1.362 . S
C180 C183 1.409 . S
C181 H173 0.930 . S
C181 C182 1.355 . S
C181 C183 1.415 . S
C182 C181 1.355 . S
C182 C184 1.419 . S
C183 C178 1.425 . S
C183 C180 1.409 . S
C183 C181 1.415 . S
C184 H174 0.930 . S
C184 C182 1.419 . S
C184 C185 1.362 . S
C185 H175 0.930 . S
C185 C178 1.409 . S
C185 C184 1.362 . S
H186 C192 0.930 . S
H187 C195 0.930 . S
H188 C196 0.930 . S
H189 C197 0.930 . S
H190 C200 0.930 . S
H191 C201 0.930 . S
C192 H186 0.930 . S
C192 C193 1.355 . S
C192 C194 1.415 . S
C193 C192 1.355 . S
C193 C195 1.419 . S
C194 C192 1.415 . S
C194 C199 1.425 . S
C194 C201 1.409 . S
C195 H187 0.930 . S
C195 C193 1.419 . S
C195 C196 1.362 . S
C196 H188 0.930 . S
C196 C195 1.362 . S
C196 C199 1.409 . S
C197 H189 0.930 . S
C197 C198 1.355 . S
C197 C199 1.415 . S
C198 C197 1.355 . S
C198 C200 1.419 . S
C199 C194 1.425 . S
C199 C196 1.409 . S
C199 C197 1.415 . S
C200 H190 0.930 . S
C200 C198 1.419 . S
C200 C201 1.362 . S
C201 H191 0.930 . S
C201 C194 1.409 . S
C201 C200 1.362 . S
H202 C208 0.930 . S
H203 C211 0.930 . S
H204 C212 0.930 . S
H205 C213 0.930 . S
H206 C216 0.930 . S
H207 C217 0.930 . S
C208 H202 0.930 . S
C208 C209 1.355 . S
C208 C210 1.415 . S
C209 C208 1.355 . S
C209 C211 1.419 . S
C210 C208 1.415 . S
C210 C215 1.425 . S
C210 C217 1.409 . S
C211 H203 0.930 . S
C211 C209 1.419 . S
C211 C212 1.362 . S
C212 H204 0.930 . S
C212 C211 1.362 . S
C212 C215 1.409 . S
C213 H205 0.930 . S
C213 C214 1.355 . S
C213 C215 1.415 . S
C214 C213 1.355 . S
C214 C216 1.419 . S
C215 C210 1.425 . S
C215 C212 1.409 . S
C215 C213 1.415 . S
C216 H206 0.930 . S
C216 C214 1.419 . S
C216 C217 1.362 . S
C217 H207 0.930 . S
C217 C210 1.409 . S
C217 C216 1.362 . S
H218 C224 0.930 . S
H219 C227 0.930 . S
H220 C228 0.930 . S
H221 C229 0.930 . S
H222 C232 0.930 . S
H223 C233 0.930 . S
C224 H218 0.930 . S
C224 C225 1.355 1_565 S
C224 C226 1.415 . S
C225 C224 1.355 1_545 S
C225 C227 1.419 1_455 S
C226 C224 1.415 . S
C226 C231 1.425 1_565 S
C226 C233 1.409 . S
C227 H219 0.930 . S
C227 C225 1.419 1_655 S
C227 C228 1.362 . S
C228 H220 0.930 . S
C228 C227 1.362 . S
C228 C231 1.409 1_655 S
C229 H221 0.930 . S
C229 C230 1.355 1_645 S
C229 C231 1.415 1_655 S
C230 C229 1.355 1_465 S
C230 C232 1.419 . S
C231 C226 1.425 1_545 S
C231 C228 1.409 1_455 S
C231 C229 1.415 1_455 S
C232 H222 0.930 . S
C232 C230 1.419 . S
C232 C233 1.362 . S
C233 H223 0.930 . S
C233 C226 1.409 . S
C233 C232 1.362 . S
H234 C240 0.930 . S
H235 C243 0.930 . S
H236 C244 0.930 . S
H237 C245 0.930 . S
H238 C248 0.930 . S
H239 C249 0.930 . S
C240 H234 0.930 . S
C240 C241 1.355 1_455 S
C240 C242 1.415 . S
C241 C240 1.355 1_655 S
C241 C243 1.419 1_545 S
C242 C240 1.415 . S
C242 C247 1.425 1_445 S
C242 C249 1.409 . S
C243 H235 0.930 . S
C243 C241 1.419 1_565 S
C243 C244 1.362 . S
C244 H236 0.930 . S
C244 C243 1.362 . S
C244 C247 1.409 . S
C245 H237 0.930 . S
C245 C246 1.357 1_655 S
C245 C247 1.415 . S
C246 C245 1.357 1_455 S
C246 C248 1.417 1_565 S
C247 C242 1.425 1_665 S
C247 C244 1.409 . S
C247 C245 1.415 . S
C248 H238 0.930 . S
C248 C246 1.417 1_545 S
C248 C249 1.362 . S
C249 H239 0.930 . S
C249 C242 1.409 . S
C249 C248 1.362 . S
H250 C256 0.930 . S
H251 C259 0.930 . S
H252 C260 0.930 . S
H253 C261 0.930 . S
H254 C264 0.930 . S
H255 C265 0.930 . S
C256 H250 0.930 . S
C256 C257 1.355 . S
C256 C258 1.415 . S
C257 C256 1.355 . S
C257 C259 1.419 . S
C258 C256 1.415 . S
C258 C263 1.425 . S
C258 C265 1.409 . S
C259 H251 0.930 . S
C259 C257 1.419 . S
C259 C260 1.362 . S
C260 H252 0.930 . S
C260 C259 1.362 . S
C260 C263 1.409 . S
C261 H253 0.930 . S
C261 C262 1.355 . S
C261 C263 1.415 . S
C262 C261 1.355 . S
C262 C264 1.419 . S
C263 C258 1.425 . S
C263 C260 1.409 . S
C263 C261 1.415 . S
C264 H254 0.930 . S
C264 C262 1.419 . S
C264 C265 1.362 . S
C265 H255 0.930 . S
C265 C258 1.409 . S
C265 C264 1.362 . S
H266 C272 0.930 . S
H267 C275 0.930 . S
H268 C276 0.930 . S
H269 C277 0.930 . S
H270 C280 0.930 . S
H271 C281 0.930 . S
C272 H266 0.930 . S
C272 C273 1.355 . S
C272 C274 1.415 . S
C273 C272 1.355 . S
C273 C275 1.419 . S
C274 C272 1.415 . S
C274 C279 1.425 . S
C274 C281 1.409 . S
C275 H267 0.930 . S
C275 C273 1.419 . S
C275 C276 1.362 . S
C276 H268 0.930 . S
C276 C275 1.362 . S
C276 C279 1.409 . S
C277 H269 0.930 . S
C277 C278 1.355 . S
C277 C279 1.415 . S
C278 C277 1.355 . S
C278 C280 1.419 . S
C279 C274 1.425 . S
C279 C276 1.409 . S
C279 C277 1.415 . S
C280 H270 0.930 . S
C280 C278 1.419 . S
C280 C281 1.362 . S
C281 H271 0.930 . S
C281 C274 1.409 . S
C281 C280 1.362 . S
C102 C85 1.493 . S
C97 C21 1.487 . S
C113 C19 1.425 . S
C118 N72 1.393 . S
C129 C18 1.405 . S
C134 N83 1.411 . S
C145 C20 1.512 . S
C150 C74 1.514 . S
C161 C44 1.513 . S
C166 C63 1.502 . S
C177 C42 1.431 . S
C182 N50 1.404 . S
C198 N61 1.369 . S
C193 C41 1.367 . S
C214 C52 1.512 . S
C209 C43 1.512 . S
C225 C16 1.520 . S
C230 C55 1.503 . S
C241 C17 1.486 . S
C246 C66 1.487 1_455 S
C262 C77 1.526 . S
C257 C39 1.522 . S
C273 C40 1.485 . S
C278 C88 1.493 . S
