# Generated by pormake.
# Topology myd, (4,6)-cn, num edge types: 1
# Building blocks:
#     Node 0, Type 0, BuildingBlock: IZENUY_clean_linker_0, # of connection points: 4
#     Node 1, Type 0, BuildingBlock: IZENUY_clean_linker_0, # of connection points: 4
#     Node 2, Type 0, BuildingBlock: IZENUY_clean_linker_0, # of connection points: 4
#     Node 3, Type 0, BuildingBlock: IZENUY_clean_linker_0, # of connection points: 4
#     Node 4, Type 0, BuildingBlock: IZENUY_clean_linker_0, # of connection points: 4
#     Node 5, Type 0, BuildingBlock: IZENUY_clean_linker_0, # of connection points: 4
#     Node 6, Type 0, BuildingBlock: IZENUY_clean_linker_0, # of connection points: 4
#     Node 7, Type 0, BuildingBlock: IZENUY_clean_linker_0, # of connection points: 4
#     Node 8, Type 0, BuildingBlock: IZENUY_clean_linker_0, # of connection points: 4
#     Node 9, Type 0, BuildingBlock: IZENUY_clean_linker_0, # of connection points: 4
#     Node 10, Type 0, BuildingBlock: IZENUY_clean_linker_0, # of connection points: 4
#     Node 11, Type 0, BuildingBlock: IZENUY_clean_linker_0, # of connection points: 4
#     Node 12, Type 1, BuildingBlock: MIDCAF_clean_sbu_0, # of connection points: 6
#     Node 13, Type 1, BuildingBlock: MIDCAF_clean_sbu_0, # of connection points: 6
#     Node 14, Type 1, BuildingBlock: MIDCAF_clean_sbu_0, # of connection points: 6
#     Node 15, Type 1, BuildingBlock: MIDCAF_clean_sbu_0, # of connection points: 6
#     Node 16, Type 1, BuildingBlock: MIDCAF_clean_sbu_0, # of connection points: 6
#     Node 17, Type 1, BuildingBlock: MIDCAF_clean_sbu_0, # of connection points: 6
#     Node 18, Type 1, BuildingBlock: MIDCAF_clean_sbu_0, # of connection points: 6
#     Node 19, Type 1, BuildingBlock: MIDCAF_clean_sbu_0, # of connection points: 6
#     Edge 20, Type (0, 1), None
#     Edge 21, Type (0, 1), None
#     Edge 22, Type (0, 1), None
#     Edge 23, Type (0, 1), None
#     Edge 24, Type (0, 1), None
#     Edge 25, Type (0, 1), None
#     Edge 26, Type (0, 1), None
#     Edge 27, Type (0, 1), None
#     Edge 28, Type (0, 1), None
#     Edge 29, Type (0, 1), None
#     Edge 30, Type (0, 1), None
#     Edge 31, Type (0, 1), None
#     Edge 32, Type (0, 1), None
#     Edge 33, Type (0, 1), None
#     Edge 34, Type (0, 1), None
#     Edge 35, Type (0, 1), None
#     Edge 36, Type (0, 1), None
#     Edge 37, Type (0, 1), None
#     Edge 38, Type (0, 1), None
#     Edge 39, Type (0, 1), None
#     Edge 40, Type (0, 1), None
#     Edge 41, Type (0, 1), None
#     Edge 42, Type (0, 1), None
#     Edge 43, Type (0, 1), None
#     Edge 44, Type (0, 1), None
#     Edge 45, Type (0, 1), None
#     Edge 46, Type (0, 1), None
#     Edge 47, Type (0, 1), None
#     Edge 48, Type (0, 1), None
#     Edge 49, Type (0, 1), None
#     Edge 50, Type (0, 1), None
#     Edge 51, Type (0, 1), None
#     Edge 52, Type (0, 1), None
#     Edge 53, Type (0, 1), None
#     Edge 54, Type (0, 1), None
#     Edge 55, Type (0, 1), None
#     Edge 56, Type (0, 1), None
#     Edge 57, Type (0, 1), None
#     Edge 58, Type (0, 1), None
#     Edge 59, Type (0, 1), None
#     Edge 60, Type (0, 1), None
#     Edge 61, Type (0, 1), None
#     Edge 62, Type (0, 1), None
#     Edge 63, Type (0, 1), None
#     Edge 64, Type (0, 1), None
#     Edge 65, Type (0, 1), None
#     Edge 66, Type (0, 1), None
#     Edge 67, Type (0, 1), None
# Relax obj value: 0.187
# Max RMSD: 0.238
# Mean RMSD: 0.171
data_MOF--net-myd--node1-MIDCAF_clean_sbu_0--node2-IZENUY_clean_linker_0--edge1-none
_symmetry_space_group_name_H-M    P1
_symmetry_Int_Tables_number       1
_symmetry_cell_setting            triclinic
loop_
_symmetry_equiv_pos_as_xyz
'x, y, z'
_cell_length_a     24.161589
_cell_length_b     24.16284
_cell_length_c     24.154578
_cell_angle_alpha  91.306604
_cell_angle_beta   91.249662
_cell_angle_gamma 91.329176
loop_
_atom_site_label
_atom_site_type_symbol
_atom_site_fract_x
_atom_site_fract_y
_atom_site_fract_z
_atom_type_partial_charge
H0 H 0.02418 0.36118 0.40256 0.0
H1 H 0.02294 0.32151 0.22914 0.0
H2 H 0.96107 0.47658 0.28593 0.0
H3 H 0.01069 0.20682 0.24376 0.0
H4 H 0.99875 0.15785 0.41183 0.0
H5 H 0.06302 0.04629 0.28976 0.0
N6 N 0.03542 0.27904 0.32372 0.0
N7 N 1.00142 0.24581 0.34388 0.0
C8 C 0.01685 0.37371 0.36031 0.0
C9 C 0.99903 0.42776 0.34854 0.0
C10 C 0.02439 0.33561 0.31662 0.0
C11 C 0.01687 0.35186 0.26218 0.0
C12 C 0.99387 0.40272 0.24988 0.0
C13 C 0.98435 0.44025 0.29351 0.0
C14 C 0.01437 0.17461 0.27415 0.0
C15 C 0.03324 0.12252 0.25799 0.0
C16 C 1.00649 0.18878 0.32972 0.0
C17 C 1.00721 0.14721 0.36909 0.0
C18 C 0.02294 0.09298 0.35342 0.0
C19 C 0.03985 0.08263 0.29868 0.0
H20 H 0.02934 0.66079 0.11899 0.0
H21 H 0.03661 0.69583 0.29345 0.0
H22 H 0.96702 0.54173 0.23215 0.0
H23 H 0.0119 0.81083 0.27197 0.0
H24 H 0.01818 0.86168 0.10415 0.0
H25 H 0.03618 0.98246 0.23761 0.0
N26 N 0.04443 0.74179 0.20087 0.0
N27 N 0.01623 0.77264 0.1711 0.0
C28 C 0.02379 0.64703 0.16091 0.0
C29 C 1.005 0.59224 0.17137 0.0
C30 C 0.0348 0.6841 0.20564 0.0
C31 C 0.02887 0.66611 0.2596 0.0
C32 C 1.00286 0.61536 0.27029 0.0
C33 C 0.99139 0.57845 0.22583 0.0
C34 C 0.01609 0.84406 0.24279 0.0
C35 C 0.02618 0.89829 0.2626 0.0
C36 C 0.01648 0.83005 0.18637 0.0
C37 C 0.01874 0.87255 0.14791 0.0
C38 C 0.02469 0.92872 0.16644 0.0
C39 C 0.02887 0.94074 0.22389 0.0
H40 H 0.24429 0.01307 0.20509 0.0
H41 H 0.41223 1.00071 0.1559 0.0
H42 H 0.29028 0.06471 0.04419 0.0
H43 H 0.40319 0.02621 0.35916 0.0
H44 H 0.22979 0.02537 0.31986 0.0
H45 H 0.28655 0.9629 0.47466 0.0
N46 N 0.34437 1.00366 0.24395 0.0
N47 N 0.32432 0.03771 0.27719 0.0
C48 C 0.27465 0.01661 0.17281 0.0
C49 C 0.25851 0.03527 0.12063 0.0
C50 C 0.33019 1.00869 0.18692 0.0
C51 C 0.36952 1.00921 0.14528 0.0
C52 C 0.35388 0.0248 0.091 0.0
C53 C 0.29919 0.0417 0.08064 0.0
C54 C 0.36095 0.01894 0.37178 0.0
C55 C 0.34919 1.00095 0.42581 0.0
C56 C 0.31726 0.0267 0.3338 0.0
C57 C 0.26283 0.0192 0.35014 0.0
C58 C 0.25053 0.99595 0.40093 0.0
C59 C 0.29415 0.9863 0.43837 0.0
H60 H 0.61984 0.53095 0.15876 0.0
H61 H 0.79428 0.5381 0.19353 0.0
H62 H 0.73272 0.46807 0.03972 0.0
H63 H 0.7726 0.51331 0.30868 0.0
H64 H 0.60484 0.52003 0.35961 0.0
H65 H 0.73825 0.5374 0.48042 0.0
N66 N 0.70176 0.546 0.23964 0.0
N67 N 0.67181 0.51794 0.27053 0.0
C68 C 0.66172 0.52533 0.14494 0.0
C69 C 0.6721 0.50639 0.09018 0.0
C70 C 0.70648 0.53637 0.18193 0.0
C71 C 0.7604 0.53034 0.16386 0.0
C72 C 0.771 0.50418 0.11316 0.0
C73 C 0.72649 0.49263 0.07636 0.0
C74 C 0.74343 0.51757 0.34193 0.0
C75 C 0.76324 0.52757 0.39617 0.0
C76 C 0.68705 0.51812 0.32794 0.0
C77 C 0.64858 0.52046 0.37046 0.0
C78 C 0.66709 0.52629 0.42665 0.0
C79 C 0.72453 0.53028 0.43867 0.0
H80 H 0.35977 0.40454 0.02383 0.0
H81 H 0.32011 0.23117 0.02267 0.0
H82 H 0.47535 0.2879 0.96094 0.0
H83 H 0.20542 0.24576 0.01039 0.0
H84 H 0.15654 0.41374 0.99816 0.0
H85 H 0.04477 0.29185 0.06249 0.0
N86 N 0.27762 0.32572 0.03509 0.0
N87 N 0.24448 0.34583 1.00103 0.0
C88 C 0.37233 0.36231 0.01655 0.0
C89 C 0.42642 0.35054 0.99876 0.0
C90 C 0.33422 0.31863 0.02411 0.0
C91 C 0.35048 0.2642 0.01661 0.0
C92 C 0.40138 0.25189 0.99361 0.0
C93 C 0.43895 0.2955 0.98415 0.0
C94 C 0.17322 0.27614 0.01399 0.0
C95 C 0.12107 0.26003 0.03282 0.0
C96 C 0.18743 0.33168 1.00606 0.0
C97 C 0.14587 0.37103 1.00666 0.0
C98 C 0.09159 0.3554 0.02236 0.0
C99 C 0.08118 0.30072 0.03934 0.0
H100 H 0.30948 0.77396 0.51067 0.0
H101 H 0.36016 0.60621 0.51765 0.0
H102 H 0.481 0.73964 0.53549 0.0
H103 H 0.15934 0.62125 0.52838 0.0
H104 H 0.19433 0.79568 0.53581 0.0
H105 H 0.04043 0.73425 0.46593 0.0
N106 N 0.27118 0.67319 0.51543 0.0
N107 N 0.24033 0.70316 0.54347 0.0
C108 C 0.34267 0.7448 0.51504 0.0
C109 C 0.39687 0.76462 0.52525 0.0
C110 C 0.3286 0.68842 0.51562 0.0
C111 C 0.37106 0.64995 0.51808 0.0
C112 C 0.42724 0.66847 0.52406 0.0
C113 C 0.43929 0.72592 0.52813 0.0
C114 C 0.14559 0.66314 0.52285 0.0
C115 C 0.09083 0.67356 0.50404 0.0
C116 C 0.18263 0.70788 0.53389 0.0
C117 C 0.16463 0.76181 0.52801 0.0
C118 C 0.11392 0.77247 0.50197 0.0
C119 C 0.07707 0.72798 0.4904 0.0
H120 H 0.70533 0.74576 0.51032 0.0
H121 H 0.65642 0.91372 0.49804 0.0
H122 H 0.54471 0.79186 0.5625 0.0
H123 H 0.8597 0.9046 0.5238 0.0
H124 H 0.81998 0.73124 0.52247 0.0
H125 H 0.97524 0.78798 0.4608 0.0
N126 N 0.74436 0.84582 0.50089 0.0
N127 N 0.77752 0.8258 0.53498 0.0
C128 C 0.67313 0.77613 0.51392 0.0
C129 C 0.62098 0.76003 0.53278 0.0
C130 C 0.68732 0.83167 0.50595 0.0
C131 C 0.64576 0.87102 0.50657 0.0
C132 C 0.59149 0.85539 0.52231 0.0
C133 C 0.5811 0.80072 0.53931 0.0
C134 C 0.87224 0.86237 0.51648 0.0
C135 C 0.92632 0.8506 0.49868 0.0
C136 C 0.83412 0.81869 0.52399 0.0
C137 C 0.85036 0.76427 0.51644 0.0
C138 C 0.90126 0.75196 0.49346 0.0
C139 C 0.93884 0.79557 0.48402 0.0
H140 H 0.52417 0.86112 0.90256 0.0
H141 H 0.52283 0.82146 0.72914 0.0
H142 H 0.46096 0.9765 0.78598 0.0
H143 H 0.51062 0.70675 0.74376 0.0
H144 H 0.49876 0.65779 0.91184 0.0
H145 H 0.56304 0.54625 0.78975 0.0
N146 N 0.53537 0.77898 0.82371 0.0
N147 N 0.50138 0.74575 0.84389 0.0
C148 C 0.51681 0.87365 0.86032 0.0
C149 C 0.49898 0.92769 0.84856 0.0
C150 C 0.52433 0.83555 0.81663 0.0
C151 C 0.51678 0.8518 0.76219 0.0
C152 C 0.49377 0.90266 0.7499 0.0
C153 C 0.48427 0.94019 0.79354 0.0
C154 C 0.51432 0.67455 0.77414 0.0
C155 C 0.53321 0.62247 0.75798 0.0
C156 C 0.50646 0.68872 0.82972 0.0
C157 C 0.50721 0.64715 0.86909 0.0
C158 C 0.52296 0.59293 0.85342 0.0
C159 C 0.53985 0.58259 0.79867 0.0
H160 H 0.5292 0.16077 0.61901 0.0
H161 H 0.5366 0.19583 0.79346 0.0
H162 H 0.46708 0.04167 0.73224 0.0
H163 H 0.5118 0.31083 0.77196 0.0
H164 H 0.51809 0.36166 0.60413 0.0
H165 H 0.53625 0.48243 0.73758 0.0
N166 N 0.54433 0.24178 0.70087 0.0
N167 N 0.51613 0.27263 0.6711 0.0
C168 C 0.5237 0.14701 0.66093 0.0
C169 C 0.50495 0.09221 0.67141 0.0
C170 C 0.53473 0.18409 0.70565 0.0
C171 C 0.52885 0.1661 0.75961 0.0
C172 C 0.50287 0.11534 0.77034 0.0
C173 C 0.4914 0.07842 0.72589 0.0
C174 C 0.51601 0.34405 0.74278 0.0
C175 C 0.52616 0.39827 0.76258 0.0
C176 C 0.51638 0.33003 0.68636 0.0
C177 C 0.51866 0.37253 0.64789 0.0
C178 C 0.52465 0.4287 0.66642 0.0
C179 C 0.52888 0.44072 0.72387 0.0
H180 H 0.74429 0.51313 0.70508 0.0
H181 H 0.91221 0.50071 0.65584 0.0
H182 H 0.79026 0.56476 0.54416 0.0
H183 H 0.90325 0.52625 0.85914 0.0
H184 H 0.72986 0.52527 0.81982 0.0
H185 H 0.78667 0.46274 0.97458 0.0
N186 N 0.84437 0.50365 0.74391 0.0
N187 N 0.82439 0.53771 0.77717 0.0
C188 C 0.77465 0.51667 0.67279 0.0
C189 C 0.75849 0.53532 0.62061 0.0
C190 C 0.83018 0.50871 0.68689 0.0
C191 C 0.86951 0.50923 0.64524 0.0
C192 C 0.85386 0.52483 0.59097 0.0
C193 C 0.79917 0.54175 0.58062 0.0
C194 C 0.86102 0.51893 0.87176 0.0
C195 C 0.84927 0.5009 0.92577 0.0
C196 C 0.81732 0.52666 0.83377 0.0
C197 C 0.7629 0.5191 0.8501 0.0
C198 C 0.75062 0.49584 0.90089 0.0
C199 C 0.79424 0.48618 0.93832 0.0
H200 H 0.2726 0.01344 0.80867 0.0
H201 H 0.10485 0.02007 0.85963 0.0
H202 H 0.23828 0.03738 0.98044 0.0
H203 H 0.11978 0.03108 0.65878 0.0
H204 H 0.29423 0.0381 0.69352 0.0
H205 H 0.23258 0.96795 0.5398 0.0
N206 N 0.17181 0.01802 0.77054 0.0
N207 N 0.20172 0.04609 0.73965 0.0
C208 C 0.24344 0.01767 0.84193 0.0
C209 C 0.26326 0.02762 0.89618 0.0
C210 C 0.18705 0.01821 0.82795 0.0
C211 C 0.14859 0.02051 0.87048 0.0
C212 C 0.16711 0.02632 0.92667 0.0
C213 C 0.22455 0.0303 0.93868 0.0
C214 C 0.16166 0.0254 0.64496 0.0
C215 C 0.17201 1.00641 0.59021 0.0
C216 C 0.20643 0.03643 0.68194 0.0
C217 C 0.26034 0.03035 0.66386 0.0
C218 C 0.27091 1.00415 0.61317 0.0
C219 C 0.22639 0.99258 0.5764 0.0
H220 H 0.65938 0.1212 0.02851 0.0
H221 H 0.69433 0.29564 0.03582 0.0
H222 H 0.54053 0.23412 0.96581 0.0
H223 H 0.80949 0.27397 0.01082 0.0
H224 H 0.8602 0.10623 0.01772 0.0
H225 H 0.98105 0.23967 0.03545 0.0
N226 N 0.74035 0.20313 0.04357 0.0
N227 N 0.77122 0.17319 0.01553 0.0
C228 C 0.64563 0.16309 0.02292 0.0
C229 C 0.59088 0.17348 1.00406 0.0
C230 C 0.68266 0.20784 0.03396 0.0
C231 C 0.66465 0.26176 0.02803 0.0
C232 C 0.61396 0.27239 1.00193 0.0
C233 C 0.57713 0.22788 0.99035 0.0
C234 C 0.84269 0.24481 0.01516 0.0
C235 C 0.8969 0.26464 0.02531 0.0
C236 C 0.82864 0.18842 0.01573 0.0
C237 C 0.8711 0.14997 0.01816 0.0
C238 C 0.92728 0.16849 0.0241 0.0
C239 C 0.93933 0.22594 0.02815 0.0
Zn240 Zn 0.13438 0.13613 0.13401 0.0
Zn241 Zn 0.02391 0.02543 0.02336 0.0
Zn242 Zn 0.08306 0.08461 0.08252 0.0
C243 C 0.12608 0.03285 0.97151 0.0
C244 C 0.03123 0.97354 0.12543 0.0
O245 O 0.06073 0.07346 0.17254 0.0
O246 O 0.07969 0.16216 0.1848 0.0
C247 C 0.11678 0.20464 0.0576 0.0
O248 O 0.14047 0.04851 0.0214 0.0
O249 O 0.07531 0.02498 0.95939 0.0
O250 O 0.02336 0.96142 0.07464 0.0
O251 O 0.04689 0.02343 0.13984 0.0
O252 O 0.16056 0.18699 0.07947 0.0
O253 O 0.07194 0.1746 0.06023 0.0
O254 O 0.17312 0.06249 0.07144 0.0
O255 O 0.18522 0.08161 0.16014 0.0
C256 C 0.20304 0.05987 0.11633 0.0
O257 O 0.02194 0.14191 0.04636 0.0
O258 O 0.95992 0.07671 0.02286 0.0
C259 C 0.05796 0.11831 0.20253 0.0
C260 C 0.97206 0.12749 0.03071 0.0
Zn261 Zn 0.99934 0.50293 0.01865 0.0
Zn262 Zn 0.88671 0.39254 0.12454 0.0
Zn263 Zn 0.94065 0.44144 0.0767 0.0
C264 C 0.82378 0.47479 0.10955 0.0
C265 C 0.90306 0.32366 0.04438 0.0
O266 O 0.99836 0.3838 0.04068 0.0
O267 O 0.06067 0.44776 0.01963 0.0
C268 C 0.99478 0.5509 0.12565 0.0
O269 O 0.85229 0.46914 0.06522 0.0
O270 O 0.83985 0.45101 0.15267 0.0
O271 O 0.85985 0.34598 0.06169 0.0
O272 O 0.94939 0.3506 0.05247 0.0
O273 O 1.00096 0.5652 0.07605 0.0
O274 O 0.97962 0.50068 0.13588 0.0
O275 O 0.88321 0.4775 0.01686 0.0
O276 O 0.94404 0.50257 0.95474 0.0
C277 C 0.89427 0.49327 0.96755 0.0
O278 O 0.96514 0.45198 0.16672 0.0
O279 O 0.9428 0.36407 0.17512 0.0
C280 C 0.04804 0.39742 0.02718 0.0
C281 C 0.96718 0.40713 0.19466 0.0
Zn282 Zn 0.01937 1.00071 0.50102 0.0
Zn283 Zn 0.12546 0.88845 0.39055 0.0
Zn284 Zn 0.07735 0.94211 0.43942 0.0
C285 C 0.1103 0.82537 0.47277 0.0
C286 C 0.04533 0.90449 0.32159 0.0
O287 O 0.04133 0.99977 0.38179 0.0
O288 O 0.0204 0.06204 0.44582 0.0
C289 C 0.12626 0.9962 0.54895 0.0
O290 O 0.06591 0.85368 0.46701 0.0
O291 O 0.15347 0.8417 0.44915 0.0
O292 O 0.06284 0.86135 0.34385 0.0
O293 O 0.0532 0.95083 0.34857 0.0
O294 O 0.07669 1.00235 0.56332 0.0
O295 O 0.13646 0.98109 0.49869 0.0
O296 O 0.01752 0.88454 0.47545 0.0
O297 O 0.95547 0.94534 0.50058 0.0
C298 C 0.96821 0.89558 0.49121 0.0
O299 O 0.16731 0.96689 0.45003 0.0
O300 O 0.176 0.94467 0.3621 0.0
C301 C 0.02786 0.04944 0.39545 0.0
C302 C 0.19537 0.96908 0.40522 0.0
Zn303 Zn 0.89118 0.62673 0.38611 0.0
Zn304 Zn 1.00142 0.52093 0.49855 0.0
Zn305 Zn 0.94 0.57887 0.43995 0.0
C306 C 0.99159 0.46966 0.39351 0.0
C307 C 0.04949 0.62784 0.49386 0.0
O308 O 0.95056 0.66887 0.46455 0.0
O309 O 0.86264 0.6772 0.44234 0.0
C310 C 0.82228 0.54657 0.40234 0.0
O311 O 0.97597 0.51898 0.38243 0.0
O312 O 1.00087 0.45693 0.4433 0.0
O313 O 0.06377 0.57826 0.49999 0.0
O314 O 0.99925 0.63806 0.47884 0.0
O315 O 0.8447 0.56383 0.35914 0.0
O316 O 0.84914 0.55469 0.4487 0.0
O317 O 0.96774 0.56735 0.35154 0.0
O318 O 0.94986 0.65485 0.33941 0.0
C319 C 0.97355 0.61172 0.32318 0.0
O320 O 0.88227 0.54295 0.49766 0.0
O321 O 0.94623 0.52212 0.55995 0.0
C322 C 0.90569 0.69676 0.46671 0.0
C323 C 0.89588 0.52959 0.54736 0.0
Zn324 Zn 0.38662 0.89249 0.62454 0.0
Zn325 Zn 0.49924 1.00291 0.51869 0.0
Zn326 Zn 0.44056 0.94142 0.57673 0.0
C327 C 0.39418 0.99329 0.46759 0.0
C328 C 0.49471 0.05087 0.62569 0.0
O329 O 0.46505 0.95194 0.66675 0.0
O330 O 0.44269 0.86403 0.67514 0.0
C331 C 0.403 0.82363 0.54436 0.0
O332 O 0.38312 0.97751 0.51689 0.0
O333 O 0.44396 1.00259 0.45477 0.0
O334 O 0.50088 0.06517 0.5761 0.0
O335 O 0.47954 1.00065 0.63592 0.0
O336 O 0.35978 0.84592 0.56169 0.0
O337 O 0.44932 0.85059 0.55246 0.0
O338 O 0.35221 0.96912 0.56525 0.0
O339 O 0.33971 0.95091 0.65268 0.0
C340 C 0.32367 0.97473 0.60957 0.0
O341 O 0.49828 0.8838 0.54068 0.0
O342 O 0.56058 0.94776 0.51962 0.0
C343 C 0.46708 0.90709 0.69469 0.0
C344 C 0.54796 0.89742 0.52716 0.0
Zn345 Zn 0.52387 0.52541 0.52333 0.0
Zn346 Zn 0.63433 0.63614 0.63399 0.0
Zn347 Zn 0.58303 0.5846 0.5825 0.0
C348 C 0.70302 0.55991 0.61631 0.0
C349 C 0.61672 0.70465 0.55759 0.0
O350 O 0.5219 0.64189 0.54634 0.0
O351 O 0.45988 0.57669 0.52283 0.0
C352 C 0.5312 0.47352 0.6254 0.0
O353 O 0.67309 0.56251 0.57142 0.0
O354 O 0.6852 0.58165 0.66012 0.0
O355 O 0.6605 0.68703 0.57947 0.0
O356 O 0.57188 0.67458 0.5602 0.0
O357 O 0.52332 0.4614 0.57461 0.0
O358 O 0.54687 0.5234 0.63982 0.0
O359 O 0.64045 0.5485 0.52138 0.0
O360 O 0.57529 0.52497 0.45937 0.0
C361 C 0.62606 0.53284 0.47149 0.0
O362 O 0.5607 0.57343 0.67252 0.0
O363 O 0.57963 0.66214 0.68479 0.0
C364 C 0.47202 0.62747 0.53068 0.0
C365 C 0.55792 0.61828 0.70251 0.0
Zn366 Zn 0.51946 0.50063 1.001 0.0
Zn367 Zn 0.62551 0.38836 0.8905 0.0
Zn368 Zn 0.57743 0.44204 0.93939 0.0
C369 C 0.61035 0.32527 0.9727 0.0
C370 C 0.54536 0.40445 0.82156 0.0
O371 O 0.54139 0.49972 0.88178 0.0
O372 O 0.52044 0.56198 0.94582 0.0
C373 C 0.62636 0.49615 0.04891 0.0
O374 O 0.56597 0.35362 0.96698 0.0
O375 O 0.65351 0.34156 0.94905 0.0
O376 O 0.56289 0.36131 0.84378 0.0
O377 O 0.55324 0.45078 0.84855 0.0
O378 O 0.57679 0.50229 0.06329 0.0
O379 O 0.63655 0.48103 0.99866 0.0
O380 O 0.51759 0.38449 0.97546 0.0
O381 O 0.45555 0.44528 1.00061 0.0
C382 C 0.4683 0.39552 0.99124 0.0
O383 O 0.6674 0.46679 0.94999 0.0
O384 O 0.67609 0.44456 0.86206 0.0
C385 C 0.52791 0.54938 0.89544 0.0
C386 C 0.69546 0.46896 0.90518 0.0
Zn387 Zn 0.50146 0.02086 0.9986 0.0
Zn388 Zn 0.39125 0.12673 0.8862 0.0
Zn389 Zn 0.44003 0.0788 0.93999 0.0
C390 C 0.47361 0.1117 0.82325 0.0
C391 C 0.32231 0.04659 0.90237 0.0
O392 O 0.3823 0.0429 0.99769 0.0
O393 O 0.44625 0.02207 0.05999 0.0
C394 C 0.54954 0.12775 0.9939 0.0
O395 O 0.46775 0.0673 0.85158 0.0
O396 O 0.44997 0.15484 0.83953 0.0
O397 O 0.34474 0.06387 0.85918 0.0
O398 O 0.34916 0.05467 0.94874 0.0
O399 O 0.56383 0.07818 1.00003 0.0
O400 O 0.49931 0.13797 0.97888 0.0
O401 O 0.47597 0.01892 0.88246 0.0
O402 O 0.50087 0.95686 0.94332 0.0
C403 C 0.49157 0.9696 0.89354 0.0
O404 O 0.45063 0.16879 0.96465 0.0
O405 O 0.36272 0.17718 0.94246 0.0
C406 C 0.39591 0.02954 0.0474 0.0
C407 C 0.40578 0.1967 0.96684 0.0
loop_
_geom_bond_atom_site_label_1
_geom_bond_atom_site_label_2
_geom_bond_distance
_geom_bond_site_symmetry_2
_ccdc_geom_bond_type
H0 C8 0.940 . S
H1 C11 0.940 . S
H2 C13 0.940 . S
H3 C14 0.940 . S
H4 C17 0.940 . S
H5 C19 0.940 . S
N6 N7 1.190 . S
N6 C10 1.477 . S
N7 N6 1.190 . S
N7 C16 1.477 1_655 S
C8 H0 0.940 . S
C8 C9 1.390 . S
C8 C10 1.322 . S
C9 C8 1.390 . S
C9 C13 1.370 . S
C10 N6 1.477 . S
C10 C8 1.322 . S
C10 C11 1.447 . S
C11 H1 0.940 . S
C11 C10 1.447 . S
C11 C12 1.373 . S
C12 C11 1.373 . S
C12 C13 1.417 . S
C13 H2 0.940 . S
C13 C9 1.370 . S
C13 C12 1.417 . S
C14 H3 0.940 . S
C14 C15 1.390 . S
C14 C16 1.322 . S
C15 C14 1.390 . S
C15 C19 1.370 . S
C16 N7 1.477 1_455 S
C16 C14 1.322 . S
C16 C17 1.447 . S
C17 H4 0.940 . S
C17 C16 1.447 . S
C17 C18 1.373 . S
C18 C17 1.373 . S
C18 C19 1.417 . S
C19 H5 0.940 . S
C19 C15 1.370 . S
C19 C18 1.417 . S
H20 C28 0.940 . S
H21 C31 0.940 . S
H22 C33 0.940 . S
H23 C34 0.940 . S
H24 C37 0.940 . S
H25 C39 0.940 . S
N26 N27 1.190 . S
N26 C30 1.477 . S
N27 N26 1.190 . S
N27 C36 1.477 1_655 S
C28 H20 0.940 . S
C28 C29 1.390 . S
C28 C30 1.322 . S
C29 C28 1.390 . S
C29 C33 1.370 . S
C30 N26 1.477 . S
C30 C28 1.322 . S
C30 C31 1.447 . S
C31 H21 0.940 . S
C31 C30 1.447 . S
C31 C32 1.373 . S
C32 C31 1.373 . S
C32 C33 1.417 . S
C33 H22 0.940 . S
C33 C29 1.370 . S
C33 C32 1.417 . S
C34 H23 0.940 . S
C34 C35 1.390 . S
C34 C36 1.322 . S
C35 C34 1.390 . S
C35 C39 1.370 . S
C36 N27 1.477 1_455 S
C36 C34 1.322 . S
C36 C37 1.447 . S
C37 H24 0.940 . S
C37 C36 1.447 . S
C37 C38 1.373 . S
C38 C37 1.373 . S
C38 C39 1.417 . S
C39 H25 0.940 . S
C39 C35 1.370 . S
C39 C38 1.417 . S
H40 C48 0.940 . S
H41 C51 0.940 . S
H42 C53 0.940 . S
H43 C54 0.940 . S
H44 C57 0.940 . S
H45 C59 0.940 . S
N46 N47 1.190 . S
N46 C50 1.477 1_565 S
N47 N46 1.190 . S
N47 C56 1.477 . S
C48 H40 0.940 . S
C48 C49 1.390 . S
C48 C50 1.322 . S
C49 C48 1.390 . S
C49 C53 1.370 . S
C50 N46 1.477 1_545 S
C50 C48 1.322 . S
C50 C51 1.447 . S
C51 H41 0.940 . S
C51 C50 1.447 . S
C51 C52 1.373 . S
C52 C51 1.373 . S
C52 C53 1.417 . S
C53 H42 0.940 . S
C53 C49 1.370 . S
C53 C52 1.417 . S
C54 H43 0.940 . S
C54 C55 1.390 . S
C54 C56 1.322 . S
C55 C54 1.390 . S
C55 C59 1.370 . S
C56 N47 1.477 . S
C56 C54 1.322 . S
C56 C57 1.447 . S
C57 H44 0.940 . S
C57 C56 1.447 . S
C57 C58 1.373 . S
C58 C57 1.373 . S
C58 C59 1.417 . S
C59 H45 0.940 . S
C59 C55 1.370 . S
C59 C58 1.417 . S
H60 C68 0.940 . S
H61 C71 0.940 . S
H62 C73 0.940 . S
H63 C74 0.940 . S
H64 C77 0.940 . S
H65 C79 0.940 . S
N66 N67 1.190 . S
N66 C70 1.477 . S
N67 N66 1.190 . S
N67 C76 1.477 . S
C68 H60 0.940 . S
C68 C69 1.390 . S
C68 C70 1.322 . S
C69 C68 1.390 . S
C69 C73 1.370 . S
C70 N66 1.477 . S
C70 C68 1.322 . S
C70 C71 1.447 . S
C71 H61 0.940 . S
C71 C70 1.447 . S
C71 C72 1.373 . S
C72 C71 1.373 . S
C72 C73 1.417 . S
C73 H62 0.940 . S
C73 C69 1.370 . S
C73 C72 1.417 . S
C74 H63 0.940 . S
C74 C75 1.390 . S
C74 C76 1.322 . S
C75 C74 1.390 . S
C75 C79 1.370 . S
C76 N67 1.477 . S
C76 C74 1.322 . S
C76 C77 1.447 . S
C77 H64 0.940 . S
C77 C76 1.447 . S
C77 C78 1.373 . S
C78 C77 1.373 . S
C78 C79 1.417 . S
C79 H65 0.940 . S
C79 C75 1.370 . S
C79 C78 1.417 . S
H80 C88 0.940 . S
H81 C91 0.940 . S
H82 C93 0.940 . S
H83 C94 0.940 . S
H84 C97 0.940 . S
H85 C99 0.940 . S
N86 N87 1.190 . S
N86 C90 1.477 . S
N87 N86 1.190 . S
N87 C96 1.477 1_556 S
C88 H80 0.940 . S
C88 C89 1.390 . S
C88 C90 1.322 . S
C89 C88 1.390 . S
C89 C93 1.370 . S
C90 N86 1.477 . S
C90 C88 1.322 . S
C90 C91 1.447 . S
C91 H81 0.940 . S
C91 C90 1.447 . S
C91 C92 1.373 . S
C92 C91 1.373 . S
C92 C93 1.417 . S
C93 H82 0.940 . S
C93 C89 1.370 . S
C93 C92 1.417 . S
C94 H83 0.940 . S
C94 C95 1.390 . S
C94 C96 1.322 . S
C95 C94 1.390 . S
C95 C99 1.370 . S
C96 N87 1.477 1_554 S
C96 C94 1.322 . S
C96 C97 1.447 . S
C97 H84 0.940 . S
C97 C96 1.447 . S
C97 C98 1.373 . S
C98 C97 1.373 . S
C98 C99 1.417 . S
C99 H85 0.940 . S
C99 C95 1.370 . S
C99 C98 1.417 . S
H100 C108 0.940 . S
H101 C111 0.940 . S
H102 C113 0.940 . S
H103 C114 0.940 . S
H104 C117 0.940 . S
H105 C119 0.940 . S
N106 N107 1.190 . S
N106 C110 1.477 . S
N107 N106 1.190 . S
N107 C116 1.477 . S
C108 H100 0.940 . S
C108 C109 1.390 . S
C108 C110 1.322 . S
C109 C108 1.390 . S
C109 C113 1.370 . S
C110 N106 1.477 . S
C110 C108 1.322 . S
C110 C111 1.447 . S
C111 H101 0.940 . S
C111 C110 1.447 . S
C111 C112 1.373 . S
C112 C111 1.373 . S
C112 C113 1.417 . S
C113 H102 0.940 . S
C113 C109 1.370 . S
C113 C112 1.417 . S
C114 H103 0.940 . S
C114 C115 1.390 . S
C114 C116 1.322 . S
C115 C114 1.390 . S
C115 C119 1.370 . S
C116 N107 1.477 . S
C116 C114 1.322 . S
C116 C117 1.447 . S
C117 H104 0.940 . S
C117 C116 1.447 . S
C117 C118 1.373 . S
C118 C117 1.373 . S
C118 C119 1.417 . S
C119 H105 0.940 . S
C119 C115 1.370 . S
C119 C118 1.417 . S
H120 C128 0.940 . S
H121 C131 0.940 . S
H122 C133 0.940 . S
H123 C134 0.940 . S
H124 C137 0.940 . S
H125 C139 0.940 . S
N126 N127 1.190 . S
N126 C130 1.477 . S
N127 N126 1.190 . S
N127 C136 1.477 . S
C128 H120 0.940 . S
C128 C129 1.390 . S
C128 C130 1.322 . S
C129 C128 1.390 . S
C129 C133 1.370 . S
C130 N126 1.477 . S
C130 C128 1.322 . S
C130 C131 1.447 . S
C131 H121 0.940 . S
C131 C130 1.447 . S
C131 C132 1.373 . S
C132 C131 1.373 . S
C132 C133 1.417 . S
C133 H122 0.940 . S
C133 C129 1.370 . S
C133 C132 1.417 . S
C134 H123 0.940 . S
C134 C135 1.390 . S
C134 C136 1.322 . S
C135 C134 1.390 . S
C135 C139 1.370 . S
C136 N127 1.477 . S
C136 C134 1.322 . S
C136 C137 1.447 . S
C137 H124 0.940 . S
C137 C136 1.447 . S
C137 C138 1.373 . S
C138 C137 1.373 . S
C138 C139 1.417 . S
C139 H125 0.940 . S
C139 C135 1.370 . S
C139 C138 1.417 . S
H140 C148 0.940 . S
H141 C151 0.940 . S
H142 C153 0.940 . S
H143 C154 0.940 . S
H144 C157 0.940 . S
H145 C159 0.940 . S
N146 N147 1.190 . S
N146 C150 1.477 . S
N147 N146 1.190 . S
N147 C156 1.477 . S
C148 H140 0.940 . S
C148 C149 1.390 . S
C148 C150 1.322 . S
C149 C148 1.390 . S
C149 C153 1.370 . S
C150 N146 1.477 . S
C150 C148 1.322 . S
C150 C151 1.447 . S
C151 H141 0.940 . S
C151 C150 1.447 . S
C151 C152 1.373 . S
C152 C151 1.373 . S
C152 C153 1.417 . S
C153 H142 0.940 . S
C153 C149 1.370 . S
C153 C152 1.417 . S
C154 H143 0.940 . S
C154 C155 1.390 . S
C154 C156 1.322 . S
C155 C154 1.390 . S
C155 C159 1.370 . S
C156 N147 1.477 . S
C156 C154 1.322 . S
C156 C157 1.447 . S
C157 H144 0.940 . S
C157 C156 1.447 . S
C157 C158 1.373 . S
C158 C157 1.373 . S
C158 C159 1.417 . S
C159 H145 0.940 . S
C159 C155 1.370 . S
C159 C158 1.417 . S
H160 C168 0.940 . S
H161 C171 0.940 . S
H162 C173 0.940 . S
H163 C174 0.940 . S
H164 C177 0.940 . S
H165 C179 0.940 . S
N166 N167 1.190 . S
N166 C170 1.477 . S
N167 N166 1.190 . S
N167 C176 1.477 . S
C168 H160 0.940 . S
C168 C169 1.390 . S
C168 C170 1.322 . S
C169 C168 1.390 . S
C169 C173 1.370 . S
C170 N166 1.477 . S
C170 C168 1.322 . S
C170 C171 1.447 . S
C171 H161 0.940 . S
C171 C170 1.447 . S
C171 C172 1.373 . S
C172 C171 1.373 . S
C172 C173 1.417 . S
C173 H162 0.940 . S
C173 C169 1.370 . S
C173 C172 1.417 . S
C174 H163 0.940 . S
C174 C175 1.390 . S
C174 C176 1.322 . S
C175 C174 1.390 . S
C175 C179 1.370 . S
C176 N167 1.477 . S
C176 C174 1.322 . S
C176 C177 1.447 . S
C177 H164 0.940 . S
C177 C176 1.447 . S
C177 C178 1.373 . S
C178 C177 1.373 . S
C178 C179 1.417 . S
C179 H165 0.940 . S
C179 C175 1.370 . S
C179 C178 1.417 . S
H180 C188 0.940 . S
H181 C191 0.940 . S
H182 C193 0.940 . S
H183 C194 0.940 . S
H184 C197 0.940 . S
H185 C199 0.940 . S
N186 N187 1.190 . S
N186 C190 1.477 . S
N187 N186 1.190 . S
N187 C196 1.477 . S
C188 H180 0.940 . S
C188 C189 1.390 . S
C188 C190 1.322 . S
C189 C188 1.390 . S
C189 C193 1.370 . S
C190 N186 1.477 . S
C190 C188 1.322 . S
C190 C191 1.447 . S
C191 H181 0.940 . S
C191 C190 1.447 . S
C191 C192 1.373 . S
C192 C191 1.373 . S
C192 C193 1.417 . S
C193 H182 0.940 . S
C193 C189 1.370 . S
C193 C192 1.417 . S
C194 H183 0.940 . S
C194 C195 1.390 . S
C194 C196 1.322 . S
C195 C194 1.390 . S
C195 C199 1.370 . S
C196 N187 1.477 . S
C196 C194 1.322 . S
C196 C197 1.447 . S
C197 H184 0.940 . S
C197 C196 1.447 . S
C197 C198 1.373 . S
C198 C197 1.373 . S
C198 C199 1.417 . S
C199 H185 0.940 . S
C199 C195 1.370 . S
C199 C198 1.417 . S
H200 C208 0.940 . S
H201 C211 0.940 . S
H202 C213 0.940 . S
H203 C214 0.940 . S
H204 C217 0.940 . S
H205 C219 0.940 . S
N206 N207 1.190 . S
N206 C210 1.477 1_565 S
N207 N206 1.190 . S
N207 C216 1.477 . S
C208 H200 0.940 . S
C208 C209 1.390 . S
C208 C210 1.322 . S
C209 C208 1.390 . S
C209 C213 1.370 . S
C210 N206 1.477 1_545 S
C210 C208 1.322 . S
C210 C211 1.447 . S
C211 H201 0.940 . S
C211 C210 1.447 . S
C211 C212 1.373 . S
C212 C211 1.373 . S
C212 C213 1.417 . S
C213 H202 0.940 . S
C213 C209 1.370 . S
C213 C212 1.417 . S
C214 H203 0.940 . S
C214 C215 1.390 . S
C214 C216 1.322 . S
C215 C214 1.390 . S
C215 C219 1.370 . S
C216 N207 1.477 . S
C216 C214 1.322 . S
C216 C217 1.447 . S
C217 H204 0.940 . S
C217 C216 1.447 . S
C217 C218 1.373 . S
C218 C217 1.373 . S
C218 C219 1.417 . S
C219 H205 0.940 . S
C219 C215 1.370 . S
C219 C218 1.417 . S
H220 C228 0.940 . S
H221 C231 0.940 . S
H222 C233 0.940 . S
H223 C234 0.940 . S
H224 C237 0.940 . S
H225 C239 0.940 . S
N226 N227 1.190 . S
N226 C230 1.477 . S
N227 N226 1.190 . S
N227 C236 1.477 1_556 S
C228 H220 0.940 . S
C228 C229 1.390 . S
C228 C230 1.322 . S
C229 C228 1.390 . S
C229 C233 1.370 . S
C230 N226 1.477 . S
C230 C228 1.322 . S
C230 C231 1.447 . S
C231 H221 0.940 . S
C231 C230 1.447 . S
C231 C232 1.373 . S
C232 C231 1.373 . S
C232 C233 1.417 . S
C233 H222 0.940 . S
C233 C229 1.370 . S
C233 C232 1.417 . S
C234 H223 0.940 . S
C234 C235 1.390 . S
C234 C236 1.322 . S
C235 C234 1.390 . S
C235 C239 1.370 . S
C236 N227 1.477 1_554 S
C236 C234 1.322 . S
C236 C237 1.447 . S
C237 H224 0.940 . S
C237 C236 1.447 . S
C237 C238 1.373 . S
C238 C237 1.373 . S
C238 C239 1.417 . S
C239 H225 0.940 . S
C239 C235 1.370 . S
C239 C238 1.417 . S
Zn240 O246 1.920 . S
Zn240 O252 1.898 . S
Zn240 O255 1.905 . S
Zn241 O249 1.905 1_665 S
Zn241 O250 1.898 1_656 S
Zn241 O258 1.920 1_566 S
Zn242 O245 2.080 . S
Zn242 O248 2.114 . S
Zn242 O251 2.120 . S
Zn242 O253 2.120 . S
Zn242 O254 2.114 . S
Zn242 O257 2.080 . S
C243 O248 1.166 1_556 S
C243 O249 1.182 . S
C244 O250 1.167 . S
C244 O251 1.299 1_565 S
O245 Zn242 2.080 . S
O245 C259 1.305 . S
O246 Zn240 1.920 . S
O246 C259 1.234 . S
C247 O252 1.167 . S
C247 O253 1.299 . S
O248 Zn242 2.114 . S
O248 C243 1.166 1_554 S
O249 Zn241 1.905 1_445 S
O249 C243 1.182 . S
O250 Zn241 1.898 1_454 S
O250 C244 1.167 . S
O251 Zn242 2.120 . S
O251 C244 1.299 1_545 S
O252 Zn240 1.898 . S
O252 C247 1.167 . S
O253 Zn242 2.120 . S
O253 C247 1.299 . S
O254 Zn242 2.114 . S
O254 C256 1.166 . S
O255 Zn240 1.905 . S
O255 C256 1.182 . S
C256 O254 1.166 . S
C256 O255 1.182 . S
O257 Zn242 2.080 . S
O257 C260 1.305 1_455 S
O258 Zn241 1.920 1_544 S
O258 C260 1.234 . S
C259 O245 1.305 . S
C259 O246 1.234 . S
C260 O257 1.305 1_655 S
C260 O258 1.234 . S
Zn261 O267 1.920 1_556 S
Zn261 O273 1.898 1_456 S
Zn261 O276 1.905 1_455 S
Zn262 O270 1.905 . S
Zn262 O271 1.898 . S
Zn262 O279 1.920 . S
Zn263 O266 2.084 . S
Zn263 O269 2.114 . S
Zn263 O272 2.120 . S
Zn263 O274 2.120 . S
Zn263 O275 2.114 1_554 S
Zn263 O278 2.080 . S
C264 O269 1.166 . S
C264 O270 1.182 . S
C265 O271 1.167 . S
C265 O272 1.299 . S
O266 Zn263 2.084 . S
O266 C280 1.301 1_655 S
O267 Zn261 1.920 1_554 S
O267 C280 1.234 . S
C268 O273 1.167 . S
C268 O274 1.299 . S
O269 Zn263 2.114 . S
O269 C264 1.166 . S
O270 Zn262 1.905 . S
O270 C264 1.182 . S
O271 Zn262 1.898 . S
O271 C265 1.167 . S
O272 Zn263 2.120 . S
O272 C265 1.299 . S
O273 Zn261 1.898 1_654 S
O273 C268 1.167 . S
O274 Zn263 2.120 . S
O274 C268 1.299 . S
O275 Zn263 2.114 1_556 S
O275 C277 1.166 . S
O276 Zn261 1.905 1_655 S
O276 C277 1.182 . S
C277 O275 1.166 . S
C277 O276 1.182 . S
O278 Zn263 2.080 . S
O278 C281 1.305 . S
O279 Zn262 1.920 . S
O279 C281 1.234 . S
C280 O266 1.301 1_455 S
C280 O267 1.234 . S
C281 O278 1.305 . S
C281 O279 1.234 . S
Zn282 O288 1.920 1_655 S
Zn282 O294 1.898 1_645 S
Zn282 O297 1.905 1_545 S
Zn283 O291 1.905 . S
Zn283 O292 1.898 . S
Zn283 O300 1.920 . S
Zn284 O287 2.080 1_565 S
Zn284 O290 2.114 . S
Zn284 O293 2.120 . S
Zn284 O295 2.120 . S
Zn284 O296 2.114 1_455 S
Zn284 O299 2.080 . S
C285 O290 1.166 . S
C285 O291 1.182 . S
C286 O292 1.167 . S
C286 O293 1.299 . S
O287 Zn284 2.080 1_545 S
O287 C301 1.305 . S
O288 Zn282 1.920 1_455 S
O288 C301 1.234 . S
C289 O294 1.167 . S
C289 O295 1.299 . S
O290 Zn284 2.114 . S
O290 C285 1.166 . S
O291 Zn283 1.905 . S
O291 C285 1.182 . S
O292 Zn283 1.898 . S
O292 C286 1.167 . S
O293 Zn284 2.120 . S
O293 C286 1.299 . S
O294 Zn282 1.898 1_465 S
O294 C289 1.167 . S
O295 Zn284 2.120 . S
O295 C289 1.299 . S
O296 Zn284 2.114 1_655 S
O296 C298 1.166 . S
O297 Zn282 1.905 1_565 S
O297 C298 1.182 . S
C298 O296 1.166 . S
C298 O297 1.182 . S
O299 Zn284 2.080 . S
O299 C302 1.305 . S
O300 Zn283 1.920 . S
O300 C302 1.234 . S
C301 O287 1.305 . S
C301 O288 1.234 . S
C302 O299 1.305 . S
C302 O300 1.234 . S
Zn303 O309 1.920 . S
Zn303 O315 1.898 . S
Zn303 O318 1.905 . S
Zn304 O312 1.905 1_455 S
Zn304 O313 1.898 . S
Zn304 O321 1.920 1_455 S
Zn305 O308 2.080 . S
Zn305 O311 2.114 . S
Zn305 O314 2.120 1_655 S
Zn305 O316 2.120 . S
Zn305 O317 2.114 . S
Zn305 O320 2.080 . S
C306 O311 1.166 . S
C306 O312 1.182 . S
C307 O313 1.167 . S
C307 O314 1.299 . S
O308 Zn305 2.080 . S
O308 C322 1.305 . S
O309 Zn303 1.920 . S
O309 C322 1.234 . S
C310 O315 1.167 . S
C310 O316 1.299 . S
O311 Zn305 2.114 . S
O311 C306 1.166 . S
O312 Zn304 1.905 1_655 S
O312 C306 1.182 . S
O313 Zn304 1.898 . S
O313 C307 1.167 . S
O314 Zn305 2.120 1_455 S
O314 C307 1.299 . S
O315 Zn303 1.898 . S
O315 C310 1.167 . S
O316 Zn305 2.120 . S
O316 C310 1.299 . S
O317 Zn305 2.114 . S
O317 C319 1.166 . S
O318 Zn303 1.905 . S
O318 C319 1.182 . S
C319 O317 1.166 . S
C319 O318 1.182 . S
O320 Zn305 2.080 . S
O320 C323 1.305 . S
O321 Zn304 1.920 1_655 S
O321 C323 1.234 . S
C322 O308 1.305 . S
C322 O309 1.234 . S
C323 O320 1.305 . S
C323 O321 1.234 . S
Zn324 O330 1.920 . S
Zn324 O336 1.898 . S
Zn324 O339 1.905 . S
Zn325 O333 1.905 1_545 S
Zn325 O334 1.898 . S
Zn325 O342 1.920 1_545 S
Zn326 O329 2.080 . S
Zn326 O332 2.114 . S
Zn326 O335 2.120 1_565 S
Zn326 O337 2.120 . S
Zn326 O338 2.114 . S
Zn326 O341 2.080 . S
C327 O332 1.166 . S
C327 O333 1.182 . S
C328 O334 1.167 . S
C328 O335 1.299 . S
O329 Zn326 2.080 . S
O329 C343 1.305 . S
O330 Zn324 1.920 . S
O330 C343 1.234 . S
C331 O336 1.167 . S
C331 O337 1.299 . S
O332 Zn326 2.114 . S
O332 C327 1.166 . S
O333 Zn325 1.905 1_565 S
O333 C327 1.182 . S
O334 Zn325 1.898 . S
O334 C328 1.167 . S
O335 Zn326 2.120 1_545 S
O335 C328 1.299 . S
O336 Zn324 1.898 . S
O336 C331 1.167 . S
O337 Zn326 2.120 . S
O337 C331 1.299 . S
O338 Zn326 2.114 . S
O338 C340 1.166 . S
O339 Zn324 1.905 . S
O339 C340 1.182 . S
C340 O338 1.166 . S
C340 O339 1.182 . S
O341 Zn326 2.080 . S
O341 C344 1.305 . S
O342 Zn325 1.920 1_565 S
O342 C344 1.234 . S
C343 O329 1.305 . S
C343 O330 1.234 . S
C344 O341 1.305 . S
C344 O342 1.234 . S
Zn345 O351 1.920 . S
Zn345 O357 1.898 . S
Zn345 O360 1.905 . S
Zn346 O354 1.905 . S
Zn346 O355 1.898 . S
Zn346 O363 1.920 . S
Zn347 O350 2.080 . S
Zn347 O353 2.114 . S
Zn347 O356 2.120 . S
Zn347 O358 2.120 . S
Zn347 O359 2.114 . S
Zn347 O362 2.080 . S
C348 O353 1.166 . S
C348 O354 1.182 . S
C349 O355 1.167 . S
C349 O356 1.299 . S
O350 Zn347 2.080 . S
O350 C364 1.305 . S
O351 Zn345 1.920 . S
O351 C364 1.234 . S
C352 O357 1.167 . S
C352 O358 1.299 . S
O353 Zn347 2.114 . S
O353 C348 1.166 . S
O354 Zn346 1.905 . S
O354 C348 1.182 . S
O355 Zn346 1.898 . S
O355 C349 1.167 . S
O356 Zn347 2.120 . S
O356 C349 1.299 . S
O357 Zn345 1.898 . S
O357 C352 1.167 . S
O358 Zn347 2.120 . S
O358 C352 1.299 . S
O359 Zn347 2.114 . S
O359 C361 1.166 . S
O360 Zn345 1.905 . S
O360 C361 1.182 . S
C361 O359 1.166 . S
C361 O360 1.182 . S
O362 Zn347 2.080 . S
O362 C365 1.305 . S
O363 Zn346 1.920 . S
O363 C365 1.234 . S
C364 O350 1.305 . S
C364 O351 1.234 . S
C365 O362 1.305 . S
C365 O363 1.234 . S
Zn366 O372 1.920 1_554 S
Zn366 O378 1.898 . S
Zn366 O381 1.905 1_554 S
Zn367 O375 1.905 . S
Zn367 O376 1.898 . S
Zn367 O384 1.920 . S
Zn368 O371 2.080 . S
Zn368 O374 2.114 . S
Zn368 O377 2.120 . S
Zn368 O379 2.120 1_556 S
Zn368 O380 2.114 . S
Zn368 O383 2.080 . S
C369 O374 1.166 . S
C369 O375 1.182 . S
C370 O376 1.167 . S
C370 O377 1.299 . S
O371 Zn368 2.080 . S
O371 C385 1.305 . S
O372 Zn366 1.920 1_556 S
O372 C385 1.234 . S
C373 O378 1.167 . S
C373 O379 1.299 . S
O374 Zn368 2.114 . S
O374 C369 1.166 . S
O375 Zn367 1.905 . S
O375 C369 1.182 . S
O376 Zn367 1.898 . S
O376 C370 1.167 . S
O377 Zn368 2.120 . S
O377 C370 1.299 . S
O378 Zn366 1.898 . S
O378 C373 1.167 . S
O379 Zn368 2.120 1_554 S
O379 C373 1.299 . S
O380 Zn368 2.114 . S
O380 C382 1.166 . S
O381 Zn366 1.905 1_556 S
O381 C382 1.182 . S
C382 O380 1.166 . S
C382 O381 1.182 . S
O383 Zn368 2.080 . S
O383 C386 1.305 . S
O384 Zn367 1.920 . S
O384 C386 1.234 . S
C385 O371 1.305 . S
C385 O372 1.234 . S
C386 O383 1.305 . S
C386 O384 1.234 . S
Zn387 O393 1.920 1_565 S
Zn387 O399 1.898 1_564 S
Zn387 O402 1.905 1_554 S
Zn388 O396 1.905 . S
Zn388 O397 1.898 . S
Zn388 O405 1.920 . S
Zn389 O392 2.080 1_556 S
Zn389 O395 2.114 . S
Zn389 O398 2.120 . S
Zn389 O400 2.120 . S
Zn389 O401 2.114 1_545 S
Zn389 O404 2.080 . S
C390 O395 1.166 . S
C390 O396 1.182 . S
C391 O397 1.167 . S
C391 O398 1.299 . S
O392 Zn389 2.080 1_554 S
O392 C406 1.305 . S
O393 Zn387 1.920 1_545 S
O393 C406 1.234 . S
C394 O399 1.167 . S
C394 O400 1.299 . S
O395 Zn389 2.114 . S
O395 C390 1.166 . S
O396 Zn388 1.905 . S
O396 C390 1.182 . S
O397 Zn388 1.898 . S
O397 C391 1.167 . S
O398 Zn389 2.120 . S
O398 C391 1.299 . S
O399 Zn387 1.898 1_546 S
O399 C394 1.167 . S
O400 Zn389 2.120 . S
O400 C394 1.299 . S
O401 Zn389 2.114 1_565 S
O401 C403 1.166 . S
O402 Zn387 1.905 1_556 S
O402 C403 1.182 . S
C403 O401 1.166 . S
C403 O402 1.182 . S
O404 Zn389 2.080 . S
O404 C407 1.305 . S
O405 Zn388 1.920 . S
O405 C407 1.234 . S
C406 O392 1.305 . S
C406 O393 1.234 . S
C407 O404 1.305 . S
C407 O405 1.234 . S
C18 C301 1.984 . S
C306 C9 1.919 . S
C244 C38 1.861 . S
C29 C268 1.918 . S
C52 C406 1.989 . S
C69 C373 1.954 . S
C327 C55 1.921 . S
C78 C361 1.904 . S
C280 C98 2.010 . S
C307 C115 1.945 . S
C135 C298 1.916 . S
C112 C364 1.873 . S
C385 C158 1.984 . S
C403 C149 1.919 . S
C178 C352 1.861 . S
C328 C169 1.919 . S
C192 C323 1.989 . S
C215 C289 1.954 . S
C277 C195 1.921 . S
C212 C243 1.904 . S
C344 C132 2.010 . S
C394 C229 1.944 . S
C89 C382 1.916 . S
C238 C260 1.873 . S
C259 C15 2.519 . S
C12 C281 2.570 . S
C286 C35 2.584 . S
C319 C32 2.519 . S
C49 C256 2.539 . S
C72 C264 2.524 . S
C302 C58 2.565 . S
C75 C310 2.611 . S
C95 C247 2.546 . S
C285 C118 2.526 . S
C138 C322 2.566 . S
C109 C331 2.587 . S
C365 C155 2.519 . S
C152 C343 2.570 . S
C175 C370 2.584 . S
C172 C390 2.519 . S
C189 C348 2.539 . S
C340 C218 2.524 . S
C198 C386 2.565 . S
C391 C209 2.611 . S
C349 C129 2.546 . S
C369 C232 2.526 . S
C407 C92 2.566 . S
C235 C265 2.588 . S
