# Generated by pormake.
# Topology zzz, (3,6)-cn, num edge types: 1
# Building blocks:
#     Node 0, Type 0, BuildingBlock: BETDAH_clean_linker_0, # of connection points: 3
#     Node 1, Type 0, BuildingBlock: BETDAH_clean_linker_0, # of connection points: 3
#     Node 2, Type 0, BuildingBlock: BETDAH_clean_linker_0, # of connection points: 3
#     Node 3, Type 0, BuildingBlock: BETDAH_clean_linker_0, # of connection points: 3
#     Node 4, Type 0, BuildingBlock: BETDAH_clean_linker_0, # of connection points: 3
#     Node 5, Type 0, BuildingBlock: BETDAH_clean_linker_0, # of connection points: 3
#     Node 6, Type 0, BuildingBlock: BETDAH_clean_linker_0, # of connection points: 3
#     Node 7, Type 0, BuildingBlock: BETDAH_clean_linker_0, # of connection points: 3
#     Node 8, Type 1, BuildingBlock: MIFKUJ_clean_sbu_0, # of connection points: 6
#     Node 9, Type 1, BuildingBlock: MIFKUJ_clean_sbu_0, # of connection points: 6
#     Node 10, Type 1, BuildingBlock: MIFKUJ_clean_sbu_0, # of connection points: 6
#     Node 11, Type 1, BuildingBlock: MIFKUJ_clean_sbu_0, # of connection points: 6
#     Edge 12, Type (0, 1), BuildingBlock: TEMPAE_clean_linker_10, # of connection points: 2
#     Edge 13, Type (0, 1), BuildingBlock: TEMPAE_clean_linker_10, # of connection points: 2
#     Edge 14, Type (0, 1), BuildingBlock: TEMPAE_clean_linker_10, # of connection points: 2
#     Edge 15, Type (0, 1), BuildingBlock: TEMPAE_clean_linker_10, # of connection points: 2
#     Edge 16, Type (0, 1), BuildingBlock: TEMPAE_clean_linker_10, # of connection points: 2
#     Edge 17, Type (0, 1), BuildingBlock: TEMPAE_clean_linker_10, # of connection points: 2
#     Edge 18, Type (0, 1), BuildingBlock: TEMPAE_clean_linker_10, # of connection points: 2
#     Edge 19, Type (0, 1), BuildingBlock: TEMPAE_clean_linker_10, # of connection points: 2
#     Edge 20, Type (0, 1), BuildingBlock: TEMPAE_clean_linker_10, # of connection points: 2
#     Edge 21, Type (0, 1), BuildingBlock: TEMPAE_clean_linker_10, # of connection points: 2
#     Edge 22, Type (0, 1), BuildingBlock: TEMPAE_clean_linker_10, # of connection points: 2
#     Edge 23, Type (0, 1), BuildingBlock: TEMPAE_clean_linker_10, # of connection points: 2
#     Edge 24, Type (0, 1), BuildingBlock: TEMPAE_clean_linker_10, # of connection points: 2
#     Edge 25, Type (0, 1), BuildingBlock: TEMPAE_clean_linker_10, # of connection points: 2
#     Edge 26, Type (0, 1), BuildingBlock: TEMPAE_clean_linker_10, # of connection points: 2
#     Edge 27, Type (0, 1), BuildingBlock: TEMPAE_clean_linker_10, # of connection points: 2
#     Edge 28, Type (0, 1), BuildingBlock: TEMPAE_clean_linker_10, # of connection points: 2
#     Edge 29, Type (0, 1), BuildingBlock: TEMPAE_clean_linker_10, # of connection points: 2
#     Edge 30, Type (0, 1), BuildingBlock: TEMPAE_clean_linker_10, # of connection points: 2
#     Edge 31, Type (0, 1), BuildingBlock: TEMPAE_clean_linker_10, # of connection points: 2
#     Edge 32, Type (0, 1), BuildingBlock: TEMPAE_clean_linker_10, # of connection points: 2
#     Edge 33, Type (0, 1), BuildingBlock: TEMPAE_clean_linker_10, # of connection points: 2
#     Edge 34, Type (0, 1), BuildingBlock: TEMPAE_clean_linker_10, # of connection points: 2
#     Edge 35, Type (0, 1), BuildingBlock: TEMPAE_clean_linker_10, # of connection points: 2
# Relax obj value: 0.118
# Max RMSD: 0.119
# Mean RMSD: 0.086
data_MOF--net-zzz--node1-MIFKUJ_clean_sbu_0--node2-BETDAH_clean_linker_0--edge1-TEMPAE_clean_linker_10
_symmetry_space_group_name_H-M    P1
_symmetry_Int_Tables_number       1
_symmetry_cell_setting            triclinic
loop_
_symmetry_equiv_pos_as_xyz
'x, y, z'
_cell_length_a     51.431294
_cell_length_b     51.127607
_cell_length_c     16.131569
_cell_angle_alpha  90.092312
_cell_angle_beta   90.050097
_cell_angle_gamma 89.891591
loop_
_atom_site_label
_atom_site_type_symbol
_atom_site_fract_x
_atom_site_fract_y
_atom_site_fract_z
_atom_type_partial_charge
H0 H 0.82616 0.48737 0.09869 0.0
H1 H 0.74906 0.48517 0.99784 0.0
H2 H 0.76284 0.51955 0.23913 0.0
C3 C 0.80556 0.49156 0.10505 0.0
C4 C 0.79669 0.5046 0.17572 0.0
C5 C 0.78853 0.48429 0.0415 0.0
C6 C 0.76203 0.49031 0.04819 0.0
C7 C 0.75256 0.50284 0.12032 0.0
C8 C 0.77 0.5097 0.18414 0.0
N9 N 0.72581 0.50912 0.13024 0.0
C10 C 0.70701 0.50502 0.06956 0.0
H11 H 0.97662 0.81116 0.07012 0.0
H12 H 0.99192 0.73273 0.99039 0.0
H13 H 0.97796 0.74919 0.24955 0.0
C14 C 0.97803 0.79049 0.08475 0.0
C15 C 0.97584 0.78238 0.1671 0.0
C16 C 0.98371 0.77279 0.02121 0.0
C17 C 0.98719 0.74627 0.03985 0.0
C18 C 0.98468 0.73755 0.12256 0.0
C19 C 0.97935 0.75578 0.18589 0.0
N20 N 0.98775 0.71079 0.14426 0.0
C21 C 0.9911 0.69083 0.08657 0.0
H22 H 0.69608 0.01603 0.08905 0.0
H23 H 0.77272 0.01441 0.98462 0.0
H24 H 0.75811 0.97924 0.22379 0.0
C25 C 0.71646 0.01068 0.09415 0.0
C26 C 0.72488 0.99659 0.16324 0.0
C27 C 0.73354 0.01735 0.03026 0.0
C28 C 0.75971 0.00978 0.03526 0.0
C29 C 0.7688 0.99628 0.10605 0.0
C30 C 0.75128 0.98994 0.17004 0.0
N31 N 0.79519 0.98839 0.11445 0.0
C32 C 0.8141 0.99182 0.05377 0.0
H33 H 0.49902 0.69667 0.11357 0.0
H34 H 0.51411 0.77259 0.01228 0.0
H35 H 0.50161 0.7633 0.2757 0.0
C36 C 0.50102 0.71764 0.12251 0.0
C37 C 0.49914 0.72813 0.20214 0.0
C38 C 0.50667 0.73345 0.05454 0.0
C39 C 0.50963 0.76048 0.06538 0.0
C40 C 0.50755 0.77144 0.14568 0.0
C41 C 0.50278 0.75504 0.2139 0.0
N42 N 0.51052 0.79866 0.16028 0.0
C43 C 0.51188 0.81718 0.09754 0.0
H44 H 0.203 0.52076 0.11922 0.0
H45 H 0.27886 0.51846 0.2295 0.0
H46 H 0.26522 0.48191 0.99142 0.0
C47 C 0.22335 0.51517 0.11579 0.0
C48 C 0.23195 0.50039 0.04832 0.0
C49 C 0.24011 0.52193 0.18066 0.0
C50 C 0.26614 0.51382 0.17801 0.0
C51 C 0.27546 0.49966 0.10876 0.0
C52 C 0.25826 0.4932 0.04382 0.0
N53 N 0.30172 0.49111 0.10328 0.0
C54 C 0.31998 0.49408 0.16632 0.0
H55 H 0.01064 0.193 0.10174 0.0
H56 H 0.01386 0.27074 0.20106 0.0
H57 H 0.04828 0.25351 0.96243 0.0
C58 C 0.01642 0.21331 0.09533 0.0
C59 C 0.03045 0.22096 0.02544 0.0
C60 C 0.01017 0.23111 0.15809 0.0
C61 C 0.01822 0.25719 0.15128 0.0
C62 C 0.03179 0.26549 0.07982 0.0
C63 C 0.03764 0.24728 0.01687 0.0
N64 N 0.04014 0.29178 0.06978 0.0
C65 C 0.03665 0.31124 0.12913 0.0
H66 H 0.32149 0.00979 0.15246 0.0
H67 H 0.2429 0.99568 0.22563 0.0
H68 H 0.26104 0.00899 0.96796 0.0
C69 C 0.30114 0.00821 0.13549 0.0
C70 C 0.29392 0.00917 0.05192 0.0
C71 C 0.28311 0.00235 0.1973 0.0
C72 C 0.2567 1.0006 0.17747 0.0
C73 C 0.24851 0.00443 0.09478 0.0
C74 C 0.26726 0.00802 0.03205 0.0
N75 N 0.22179 0.0035 0.07225 0.0
C76 C 0.20159 0.00248 0.12955 0.0
H77 H 0.46921 0.30432 0.09744 0.0
H78 H 0.47155 0.2271 0.20011 0.0
H79 H 0.43297 0.2411 0.96576 0.0
C80 C 0.46414 0.28374 0.09325 0.0
C81 C 0.44979 0.27487 0.02534 0.0
C82 C 0.47233 0.26663 0.15548 0.0
C83 C 0.46552 0.24016 0.1509 0.0
C84 C 0.45126 0.23076 0.08199 0.0
C85 C 0.44368 0.24823 0.01905 0.0
N86 N 0.44438 0.20399 0.07397 0.0
C87 C 0.45178 0.18489 0.13053 0.0
Zn88 Zn 0.99819 0.02866 0.55341 0.0
Zn89 Zn 0.01583 0.97452 0.62419 0.0
C90 C 1.00107 0.06347 0.68564 0.0
O91 O 0.97591 0.06194 0.67236 0.0
C92 C 0.01053 0.94495 0.47776 0.0
O93 O 0.03593 0.94513 0.48634 0.0
O94 O 0.98417 0.05895 0.48782 0.0
O95 O 0.02499 0.01058 0.48113 0.0
O96 O 0.04765 0.99376 0.5836 0.0
C97 C 1.00124 0.07252 0.45083 0.0
O98 O 0.02552 0.06452 0.45054 0.0
O99 O 0.01619 0.04849 0.64501 0.0
C100 C 0.00841 0.92517 0.68864 0.0
O101 O 0.98504 0.93198 0.66401 0.0
O102 O 0.02693 0.94155 0.68361 0.0
O103 O 0.99053 0.9923 0.70142 0.0
O104 O 0.96736 0.00898 0.60007 0.0
O105 O 0.99679 0.95908 0.52574 0.0
C106 C 0.04667 0.00293 0.51044 0.0
C107 C 0.96876 1.00009 0.67347 0.0
Zn108 Zn 0.48586 0.98729 0.55403 0.0
Zn109 Zn 0.53186 0.01501 0.64079 0.0
C110 C 0.44582 0.98576 0.66818 0.0
O111 O 0.44936 0.96113 0.64757 0.0
C112 C 0.56833 0.0149 0.51368 0.0
O113 O 0.5643 0.03996 0.52677 0.0
O114 O 0.45934 0.96847 0.48386 0.0
O115 O 0.50178 0.01574 0.48391 0.0
O116 O 0.50859 0.04228 0.5886 0.0
C117 C 0.44913 0.97933 0.42105 0.0
O118 O 0.46015 1.0002 0.38955 0.0
O119 O 0.46166 0.0028 0.64075 0.0
C120 C 0.57348 0.01822 0.75234 0.0
O121 O 0.56717 0.99343 0.75904 0.0
O122 O 0.55943 0.03319 0.70816 0.0
O123 O 0.51564 0.98731 0.71321 0.0
O124 O 0.50863 0.96042 0.60936 0.0
O125 O 0.55456 0.99839 0.55292 0.0
C126 C 0.50288 0.03884 0.51274 0.0
C127 C 0.51319 0.96411 0.6859 0.0
Zn128 Zn 0.51507 0.46092 0.59281 0.0
Zn129 Zn 0.50514 0.52828 0.64501 0.0
C130 C 0.50222 0.42898 0.72686 0.0
O131 O 0.5277 0.42713 0.72706 0.0
C132 C 0.4892 0.56526 0.53587 0.0
O133 O 0.46893 0.56073 0.58323 0.0
O134 O 0.52289 0.42934 0.52323 0.0
O135 O 0.49468 0.48601 0.52126 0.0
O136 O 0.47381 0.5052 0.62328 0.0
C137 C 0.50298 0.41929 0.48925 0.0
O138 O 0.48041 0.43112 0.49673 0.0
O139 O 0.49142 0.44516 0.67807 0.0
C140 C 0.51545 0.57471 0.72034 0.0
O141 O 0.53555 0.57003 0.67231 0.0
O142 O 0.49804 0.55715 0.72813 0.0
O143 O 0.53941 0.51317 0.68282 0.0
O144 O 0.54851 0.47261 0.64532 0.0
O145 O 0.50889 0.55023 0.54169 0.0
C146 C 0.47367 0.49516 0.55105 0.0
C147 C 0.55479 0.49371 0.68161 0.0
Zn148 Zn 0.03887 0.51412 0.56802 0.0
Zn149 Zn 0.99022 0.48813 0.64914 0.0
C150 C 0.07539 0.51488 0.69502 0.0
O151 O 0.07097 0.53983 0.68124 0.0
C152 C 0.95463 0.4887 0.5197 0.0
O153 O 0.95861 0.4636 0.53185 0.0
O154 O 0.06603 0.53264 0.50077 0.0
O155 O 0.02323 0.48604 0.49478 0.0
O156 O 0.01269 0.46006 0.59763 0.0
C157 C 0.08066 0.5179 0.4578 0.0
O158 O 0.07524 0.49287 0.45224 0.0
O159 O 0.06188 0.49801 0.65611 0.0
C160 C 0.94739 0.48631 0.7544 0.0
O161 O 0.95339 0.51124 0.75712 0.0
O162 O 0.96201 0.47063 0.7148 0.0
O163 O 0.00641 0.51548 0.72355 0.0
O164 O 0.01592 0.54165 0.62031 0.0
O165 O 0.96816 0.5051 0.56045 0.0
C166 C 0.01943 0.46311 0.5225 0.0
C167 C 0.0097 0.53848 0.69583 0.0
C168 C 0.17696 0.02264 0.24379 0.0
C169 C 0.18035 0.00199 0.18797 0.0
C170 C 0.15584 0.02292 0.29902 0.0
C171 C 0.1378 0.00198 0.29803 0.0
C172 C 0.1415 0.98087 0.24215 0.0
C173 C 0.16279 0.98116 0.18757 0.0
C174 C 0.15259 0.04578 0.35747 0.0
C175 C 0.12277 0.95819 0.23919 0.0
C176 C 0.09361 0.99183 0.48464 0.0
C177 C 0.07023 0.00308 0.45717 0.0
C178 C 0.11578 0.9914 0.43368 0.0
C179 C 0.11461 0.00257 0.35347 0.0
C180 C 0.09114 0.01414 0.3257 0.0
C181 C 0.06926 0.0142 0.3777 0.0
C182 C 0.14042 0.9788 0.46544 0.0
C183 C 0.08909 0.02637 0.24077 0.0
H184 H 0.1907 0.03871 0.24364 0.0
H185 H 0.16558 0.96521 0.14403 0.0
H186 H 0.13399 0.05599 0.34421 0.0
H187 H 0.15165 0.03875 0.42242 0.0
H188 H 0.16873 0.06009 0.35219 0.0
H189 H 0.12888 0.94291 0.19416 0.0
H190 H 0.1211 0.94915 0.30143 0.0
H191 H 0.10313 0.96528 0.22159 0.0
H192 H 0.09456 0.98314 0.54579 0.0
H193 H 0.05133 0.02297 0.35579 0.0
H194 H 0.15657 0.99316 0.46458 0.0
H195 H 0.1461 0.96237 0.42421 0.0
H196 H 0.13825 0.97122 0.52954 0.0
H197 H 0.10392 0.04195 0.23389 0.0
H198 H 0.06959 0.035 0.22909 0.0
H199 H 0.09305 0.01143 0.19243 0.0
C200 C 0.48615 0.1608 0.20381 0.0
C201 C 0.45973 0.16509 0.18867 0.0
C202 C 0.49424 0.14108 0.25863 0.0
C203 C 0.47534 0.12547 0.29887 0.0
C204 C 0.44855 0.13014 0.2843 0.0
C205 C 0.44106 0.14998 0.22908 0.0
C206 C 0.52295 0.13666 0.27242 0.0
C207 C 0.42784 0.11394 0.32602 0.0
C208 C 0.49403 0.05753 0.3724 0.0
C209 C 0.49711 0.06137 0.458 0.0
C210 C 0.48728 0.07829 0.3199 0.0
C211 C 0.48355 0.10358 0.35367 0.0
C212 C 0.48712 0.10775 0.43973 0.0
C213 C 0.49391 0.08659 0.49091 0.0
C214 C 0.48377 0.07306 0.22838 0.0
C215 C 0.48332 0.13446 0.47793 0.0
H216 H 0.50046 0.17271 0.17219 0.0
H217 H 0.42061 0.15352 0.21693 0.0
H218 H 0.52756 0.13793 0.3395 0.0
H219 H 0.52839 0.11672 0.25142 0.0
H220 H 0.53509 0.15109 0.23864 0.0
H221 H 0.40789 0.12069 0.3103 0.0
H222 H 0.42984 0.09316 0.30707 0.0
H223 H 0.4303 0.11474 0.39431 0.0
H224 H 0.49675 0.03819 0.3462 0.0
H225 H 0.49626 0.08973 0.55695 0.0
H226 H 0.49673 0.08597 0.19186 0.0
H227 H 0.46348 0.07762 0.20979 0.0
H228 H 0.48802 0.0524 0.21166 0.0
H229 H 0.49605 0.14893 0.44689 0.0
H230 H 0.48764 0.13462 0.54541 0.0
H231 H 0.46294 0.14099 0.46858 0.0
C232 C 0.35715 0.51708 0.229 0.0
C233 C 0.33992 0.49598 0.22907 0.0
C234 C 0.37793 0.51811 0.28558 0.0
C235 C 0.38145 0.49746 0.34309 0.0
C236 C 0.3635 0.47646 0.34456 0.0
C237 C 0.34291 0.47597 0.28725 0.0
C238 C 0.3966 0.54083 0.28197 0.0
C239 C 0.36656 0.45407 0.40472 0.0
C240 C 0.45013 0.48441 0.4196 0.0
C241 C 0.44983 0.49572 0.49897 0.0
C242 C 0.428 0.48476 0.36873 0.0
C243 C 0.40492 0.49687 0.39743 0.0
C244 C 0.40442 0.50834 0.47742 0.0
C245 C 0.42687 0.50759 0.52734 0.0
C246 C 0.42938 0.47219 0.28402 0.0
C247 C 0.38019 0.52146 0.5101 0.0
H248 H 0.3547 0.5325 0.18352 0.0
H249 H 0.32946 0.45965 0.28673 0.0
H250 H 0.3988 0.54978 0.34427 0.0
H251 H 0.41608 0.53376 0.2626 0.0
H252 H 0.39012 0.55616 0.23777 0.0
H253 H 0.35 0.44018 0.4017 0.0
H254 H 0.38474 0.44321 0.39087 0.0
H255 H 0.36821 0.46162 0.46902 0.0
H256 H 0.46774 0.47521 0.39686 0.0
H257 H 0.42644 0.51643 0.58844 0.0
H258 H 0.42527 0.48698 0.23548 0.0
H259 H 0.41435 0.45674 0.27849 0.0
H260 H 0.4487 0.46329 0.2714 0.0
H261 H 0.37441 0.53771 0.46841 0.0
H262 H 0.38292 0.52941 0.57365 0.0
H263 H 0.36386 0.50731 0.51105 0.0
C264 C 0.01001 0.34532 0.19569 0.0
C265 C 0.03365 0.33197 0.18911 0.0
C266 C 0.00717 0.36625 0.25154 0.0
C267 C 0.02854 0.37386 0.30158 0.0
C268 C 0.05239 0.36004 0.29552 0.0
C269 C 0.05465 0.3392 0.2391 0.0
C270 C 0.98145 0.38046 0.25617 0.0
C271 C 0.0756 0.36753 0.34769 0.0
C272 C 0.03005 0.44353 0.3841 0.0
C273 C 0.02185 0.44019 0.46637 0.0
C274 C 0.03233 0.42212 0.32998 0.0
C275 C 0.02619 0.39671 0.35856 0.0
C276 C 0.01787 0.39317 0.44144 0.0
C277 C 0.01583 0.41494 0.49438 0.0
C278 C 0.04133 0.42672 0.2421 0.0
C279 C 0.01111 0.36638 0.47416 0.0
H280 H 0.99384 0.33956 0.15654 0.0
H281 H 0.07292 0.32872 0.23345 0.0
H282 H 0.97403 0.38027 0.32072 0.0
H283 H 0.9841 0.40124 0.23834 0.0
H284 H 0.96655 0.37163 0.21488 0.0
H285 H 0.09249 0.35436 0.33719 0.0
H286 H 0.08155 0.38786 0.33321 0.0
H287 H 0.07041 0.36698 0.4144 0.0
H288 H 0.03474 0.46293 0.36176 0.0
H289 H 0.00942 0.41214 0.55772 0.0
H290 H 0.02626 0.41993 0.19782 0.0
H291 H 0.05922 0.4152 0.22967 0.0
H292 H 0.04546 0.44767 0.22964 0.0
H293 H 0.9952 0.35775 0.4366 0.0
H294 H 0.00491 0.36693 0.54009 0.0
H295 H 0.02816 0.35317 0.46855 0.0
C296 C 0.83865 0.97471 0.93456 0.0
C297 C 0.83482 0.99425 0.99398 0.0
C298 C 0.85978 0.97588 0.8795 0.0
C299 C 0.87739 0.99712 0.88449 0.0
C300 C 0.87316 0.01718 0.94379 0.0
C301 C 0.85187 0.01547 0.99806 0.0
C302 C 0.86358 0.95412 0.81728 0.0
C303 C 0.89145 0.04014 0.95108 0.0
C304 C 0.94626 0.987 0.8047 0.0
C305 C 0.94529 0.99926 0.72697 0.0
C306 C 0.92431 0.98611 0.85632 0.0
C307 C 0.90076 0.99785 0.82987 0.0
C308 C 0.89962 0.01025 0.75151 0.0
C309 C 0.92186 0.01076 0.70095 0.0
C310 C 0.92632 0.9726 0.93928 0.0
C311 C 0.8749 0.02304 0.72121 0.0
H312 H 0.82535 0.95828 0.93207 0.0
H313 H 0.84878 0.03049 0.04457 0.0
H314 H 0.86477 0.96229 0.75372 0.0
H315 H 0.88222 0.94389 0.82974 0.0
H316 H 0.84758 0.93956 0.81918 0.0
H317 H 0.88481 0.05463 0.99795 0.0
H318 H 0.91111 0.03315 0.96877 0.0
H319 H 0.89329 0.05012 0.89034 0.0
H320 H 0.96421 0.97796 0.82531 0.0
H321 H 0.92092 0.02034 0.64113 0.0
H322 H 0.91189 0.95655 0.94289 0.0
H323 H 0.92175 0.98663 0.98978 0.0
H324 H 0.94599 0.96431 0.9505 0.0
H325 H 0.85899 0.00844 0.7187 0.0
H326 H 0.87718 0.03185 0.65873 0.0
H327 H 0.8688 0.03858 0.7652 0.0
C328 C 0.53569 0.8426 0.99303 0.0
C329 C 0.51252 0.83705 0.03452 0.0
C330 C 0.53669 0.86263 0.93366 0.0
C331 C 0.51393 0.87729 0.91602 0.0
C332 C 0.49039 0.87137 0.95746 0.0
C333 C 0.48999 0.85124 0.01647 0.0
C334 C 0.56212 0.86838 0.89078 0.0
C335 C 0.46575 0.88654 0.94038 0.0
C336 C 0.52016 0.94578 0.82788 0.0
C337 C 0.51434 0.94168 0.74385 0.0
C338 C 0.52051 0.92492 0.88424 0.0
C339 C 0.51484 0.89933 0.85603 0.0
C340 C 0.50929 0.89498 0.77116 0.0
C341 C 0.50914 0.9162 0.71603 0.0
C342 C 0.52659 0.93034 0.97427 0.0
C343 C 0.50314 0.86795 0.73885 0.0
H344 H 0.55305 0.83144 0.00762 0.0
H345 H 0.47213 0.84676 0.04913 0.0
H346 H 0.5596 0.86713 0.82258 0.0
H347 H 0.56838 0.88863 0.90533 0.0
H348 H 0.57781 0.85467 0.9097 0.0
H349 H 0.44892 0.87898 0.97617 0.0
H350 H 0.46862 0.90744 0.95656 0.0
H351 H 0.46096 0.88566 0.87337 0.0
H352 H 0.52429 0.96537 0.84997 0.0
H353 H 0.50461 0.91285 0.65125 0.0
H354 H 0.54321 0.9181 0.99482 0.0
H355 H 0.50965 0.92504 0.01328 0.0
H356 H 0.53142 0.95121 0.98568 0.0
H357 H 0.51921 0.85427 0.75414 0.0
H358 H 0.50005 0.86772 0.67069 0.0
H359 H 0.48535 0.86043 0.76941 0.0
C360 C 0.69142 0.5069 0.92522 0.0
C361 C 0.68668 0.50163 0.00884 0.0
C362 C 0.67134 0.50496 0.86633 0.0
C363 C 0.64606 0.49764 0.89228 0.0
C364 C 0.64146 0.49183 0.97692 0.0
C365 C 0.6619 0.49393 0.0343 0.0
C366 C 0.67702 0.51127 0.7768 0.0
C367 C 0.61483 0.48395 0.00718 0.0
C368 C 0.58666 0.51858 0.7688 0.0
C369 C 0.5796 0.49524 0.72874 0.0
C370 C 0.60866 0.51979 0.82019 0.0
C371 C 0.62407 0.49713 0.83203 0.0
C372 C 0.6176 0.47374 0.78968 0.0
C373 C 0.59545 0.47307 0.73854 0.0
C374 C 0.61491 0.54515 0.86401 0.0
C375 C 0.63357 0.44918 0.80056 0.0
H376 H 0.71073 0.51288 0.90612 0.0
H377 H 0.65842 0.48991 0.09935 0.0
H378 H 0.67105 0.49475 0.7364 0.0
H379 H 0.66555 0.52862 0.75751 0.0
H380 H 0.69796 0.51537 0.76607 0.0
H381 H 0.61475 0.47911 0.07429 0.0
H382 H 0.60081 0.5001 0.99625 0.0
H383 H 0.60779 0.46671 0.97192 0.0
H384 H 0.57465 0.53587 0.7616 0.0
H385 H 0.5902 0.45493 0.708 0.0
H386 H 0.63531 0.55093 0.85141 0.0
H387 H 0.61304 0.54247 0.93199 0.0
H388 H 0.60185 0.56137 0.8447 0.0
H389 H 0.65438 0.45325 0.78806 0.0
H390 H 0.62705 0.43313 0.75899 0.0
H391 H 0.63214 0.44236 0.86566 0.0
C392 C 0.01768 0.65618 0.02289 0.0
C393 C 0.99413 0.66976 0.02782 0.0
C394 C 0.02064 0.63512 0.96762 0.0
C395 C 0.99948 0.62761 0.91656 0.0
C396 C 0.9757 0.6416 0.92116 0.0
C397 C 0.97333 0.66259 0.97695 0.0
C398 C 0.04629 0.62073 0.96448 0.0
C399 C 0.9527 0.63419 0.8679 0.0
C400 C 0.01314 0.58661 0.72435 0.0
C401 C 0.007 0.56135 0.75196 0.0
C402 C 0.01082 0.60835 0.77723 0.0
C403 C 0.00204 0.60478 0.85961 0.0
C404 C 0.99573 0.57936 0.88777 0.0
C405 C 0.99836 0.55797 0.83375 0.0
C406 C 0.01781 0.63515 0.74503 0.0
C407 C 0.98621 0.57475 0.97505 0.0
H408 H 0.0337 0.6619 0.06268 0.0
H409 H 0.95514 0.67327 0.98131 0.0
H410 H 0.0434 0.59996 0.98189 0.0
H411 H 0.0541 0.62095 0.9004 0.0
H412 H 0.061 0.62942 0.00677 0.0
H413 H 0.93578 0.64736 0.87784 0.0
H414 H 0.95818 0.63483 0.80144 0.0
H415 H 0.94669 0.61384 0.88182 0.0
H416 H 0.01991 0.58943 0.66138 0.0
H417 H 0.99355 0.53855 0.85573 0.0
H418 H 0.03356 0.6437 0.78343 0.0
H419 H 1.00078 0.64841 0.74989 0.0
H420 H 0.02433 0.63463 0.67942 0.0
H421 H 1.00106 0.5814 0.02026 0.0
H422 H 0.98188 0.55381 0.98708 0.0
H423 H 0.96832 0.58637 0.98656 0.0
C424 C 0.97445 0.20617 0.22223 0.0
C425 C 0.99742 0.22052 0.23265 0.0
C426 C 0.96895 0.18488 0.27381 0.0
C427 C 0.98673 0.1783 0.3374 0.0
C428 C 0.0071 0.19583 0.35754 0.0
C429 C 0.01238 0.21681 0.30415 0.0
C430 C 0.94658 0.16716 0.25155 0.0
C431 C 0.02567 0.19019 0.42768 0.0
C432 C 0.9782 0.11543 0.46081 0.0
C433 C 0.99498 0.09856 0.41777 0.0
C434 C 0.97501 0.14156 0.43561 0.0
C435 C 0.98858 0.15065 0.365 0.0
C436 C 0.00472 0.13322 0.31962 0.0
C437 C 0.00799 0.10752 0.3474 0.0
C438 C 0.9582 0.15956 0.48697 0.0
C439 C 0.01901 0.1418 0.24239 0.0
H440 H 0.96277 0.2093 0.16708 0.0
H441 H 0.03005 0.22805 0.31252 0.0
H442 H 0.95401 0.15049 0.21425 0.0
H443 H 0.93727 0.15907 0.30793 0.0
H444 H 0.93164 0.1776 0.21429 0.0
H445 H 0.03645 0.20803 0.44677 0.0
H446 H 0.01517 0.18225 0.48213 0.0
H447 H 0.04003 0.17527 0.40731 0.0
H448 H 0.96855 0.10856 0.51639 0.0
H449 H 0.02097 0.09439 0.3144 0.0
H450 H 0.94722 0.1735 0.44755 0.0
H451 H 0.97082 0.17117 0.52894 0.0
H452 H 0.94422 0.14844 0.52574 0.0
H453 H 0.00507 0.14988 0.19652 0.0
H454 H 0.02985 0.12549 0.21262 0.0
H455 H 0.03304 0.15751 0.25804 0.0
C456 C 0.30661 0.01134 0.32721 0.0
C457 C 0.29394 0.99317 0.27647 0.0
C458 C 0.32919 0.00422 0.37052 0.0
C459 C 0.33932 0.97863 0.36057 0.0
C460 C 0.3241 0.95926 0.3211 0.0
C461 C 0.30122 0.96677 0.28015 0.0
C462 C 0.34411 0.025 0.41681 0.0
C463 C 0.33383 0.93159 0.31126 0.0
C464 C 0.41184 0.98141 0.32319 0.0
C465 C 0.42177 0.9737 0.40007 0.0
C466 C 0.385 0.98144 0.30822 0.0
C467 C 0.36765 0.97421 0.37259 0.0
C468 C 0.37764 0.96491 0.44871 0.0
C469 C 0.40466 0.96453 0.46126 0.0
C470 C 0.37523 0.99065 0.22484 0.0
C471 C 0.36012 0.95719 0.51945 0.0
H472 H 0.30093 0.03176 0.32432 0.0
H473 H 0.29136 0.95274 0.24062 0.0
H474 H 0.35259 0.01689 0.47463 0.0
H475 H 0.36035 0.03206 0.37753 0.0
H476 H 0.33155 0.04198 0.43276 0.0
H477 H 0.31784 0.91797 0.29463 0.0
H478 H 0.34858 0.93098 0.26108 0.0
H479 H 0.34329 0.92465 0.36903 0.0
H480 H 0.42502 0.98837 0.27572 0.0
H481 H 0.4122 0.95868 0.52114 0.0
H482 H 0.36536 0.00984 0.23202 0.0
H483 H 0.36083 0.97662 0.19953 0.0
H484 H 0.3912 0.99291 0.17908 0.0
H485 H 0.35704 0.97445 0.56011 0.0
H486 H 0.36928 0.94157 0.55737 0.0
H487 H 0.34084 0.95027 0.49795 0.0
C488 C 0.47526 0.27979 0.30341 0.0
C489 C 0.48703 0.27788 0.2255 0.0
C490 C 0.48301 0.29933 0.35949 0.0
C491 C 0.50257 0.31731 0.33574 0.0
C492 C 0.51689 0.31292 0.26218 0.0
C493 C 0.50902 0.29303 0.20806 0.0
C494 C 0.46794 0.3028 0.43895 0.0
C495 C 0.53794 0.33147 0.23444 0.0
C496 C 0.48681 0.38802 0.38384 0.0
C497 C 0.50437 0.39371 0.44754 0.0
C498 C 0.48639 0.3633 0.34659 0.0
C499 C 0.50352 0.34353 0.37537 0.0
C500 C 0.52138 0.34916 0.43975 0.0
C501 C 0.52177 0.37438 0.47466 0.0
C502 C 0.46745 0.35836 0.27653 0.0
C503 C 0.53946 0.32845 0.4733 0.0
H504 H 0.45829 0.26799 0.31687 0.0
H505 H 0.51816 0.29134 0.1477 0.0
H506 H 0.48092 0.30905 0.49022 0.0
H507 H 0.45302 0.31826 0.43024 0.0
H508 H 0.4579 0.28447 0.4572 0.0
H509 H 0.55054 0.32253 0.18611 0.0
H510 H 0.5288 0.34928 0.20793 0.0
H511 H 0.55028 0.33766 0.28732 0.0
H512 H 0.47339 0.40301 0.3629 0.0
H513 H 0.53507 0.3787 0.52502 0.0
H514 H 0.4536 0.34273 0.29428 0.0
H515 H 0.47804 0.35154 0.22057 0.0
H516 H 0.45612 0.37612 0.2599 0.0
H517 H 0.52796 0.31351 0.50693 0.0
H518 H 0.55412 0.33671 0.51662 0.0
H519 H 0.54973 0.31827 0.42211 0.0
C520 C 0.21287 0.55672 0.24237 0.0
C521 C 0.2283 0.53439 0.25412 0.0
C522 C 0.19087 0.56105 0.2917 0.0
C523 C 0.18466 0.54273 0.35418 0.0
C524 C 0.20309 0.52333 0.37637 0.0
C525 C 0.22483 0.51926 0.3254 0.0
C526 C 0.17224 0.58258 0.26793 0.0
C527 C 0.19781 0.50428 0.44557 0.0
C528 C 0.12047 0.54548 0.47135 0.0
C529 C 0.1057 0.52741 0.42589 0.0
C530 C 0.14617 0.5513 0.44831 0.0
C531 C 0.157 0.53897 0.37766 0.0
C532 C 0.14155 0.52174 0.3293 0.0
C533 C 0.11621 0.51595 0.35472 0.0
C534 C 0.16197 0.56941 0.50233 0.0
C535 C 0.15199 0.5087 0.25189 0.0
H536 H 0.21585 0.56863 0.18761 0.0
H537 H 0.23695 0.50214 0.33501 0.0
H538 H 0.15675 0.57436 0.22765 0.0
H539 H 0.16277 0.59115 0.32348 0.0
H540 H 0.18223 0.59837 0.23313 0.0
H541 H 0.21592 0.49441 0.46651 0.0
H542 H 0.18871 0.51432 0.49924 0.0
H543 H 0.18408 0.48907 0.42331 0.0
H544 H 0.11244 0.554 0.52738 0.0
H545 H 0.10471 0.50202 0.31967 0.0
H546 H 0.17575 0.58128 0.46529 0.0
H547 H 0.17351 0.55757 0.54673 0.0
H548 H 0.14928 0.58277 0.53869 0.0
H549 H 0.15923 0.52366 0.20791 0.0
H550 H 0.13705 0.49673 0.21969 0.0
H551 H 0.1686 0.49578 0.26803 0.0
C552 C 0.96831 0.79966 0.90429 0.0
C553 C 0.98781 0.7837 0.93774 0.0
C554 C 0.97446 0.81931 0.84746 0.0
C555 C 1.00063 0.82257 0.82257 0.0
C556 C 0.01954 0.80386 0.84613 0.0
C557 C 0.01297 0.78468 0.90477 0.0
C558 C 0.95345 0.83822 0.82097 0.0
C559 C 0.0471 0.80553 0.81494 0.0
C560 C 0.00666 0.87736 0.66647 0.0
C561 C 0.0125 0.89847 0.71866 0.0
C562 C 0.00482 0.85188 0.69787 0.0
C563 C 0.00845 0.84768 0.78379 0.0
C564 C 0.01582 0.86888 0.83577 0.0
C565 C 0.01803 0.89407 0.80213 0.0
C566 C 0.99814 0.82994 0.63882 0.0
C567 C 0.01912 0.86543 0.9282 0.0
H568 H 0.94881 0.79863 0.92959 0.0
H569 H 0.02802 0.77219 0.93041 0.0
H570 H 0.95763 0.85793 0.84671 0.0
H571 H 0.9531 0.83993 0.75242 0.0
H572 H 0.93386 0.83209 0.84236 0.0
H573 H 0.05797 0.78706 0.82604 0.0
H574 H 0.04727 0.80993 0.74755 0.0
H575 H 0.05738 0.82165 0.84723 0.0
H576 H 0.00259 0.88094 0.60148 0.0
H577 H 0.02222 0.91059 0.8422 0.0
H578 H 0.98972 0.81261 0.66995 0.0
H579 H 0.01616 0.82364 0.60666 0.0
H580 H 0.98421 0.8368 0.5909 0.0
H581 H 1.00026 0.8597 0.9562 0.0
H582 H 0.02597 0.8836 0.95912 0.0
H583 H 0.03324 0.84956 0.94132 0.0
C584 C 0.70745 0.05263 0.96697 0.0
C585 C 0.72205 0.02969 0.95618 0.0
C586 C 0.6855 0.05747 0.91775 0.0
C587 C 0.67843 0.039 0.85645 0.0
C588 C 0.69599 0.01866 0.8354 0.0
C589 C 0.71771 0.01412 0.88618 0.0
C590 C 0.66781 0.07993 0.9404 0.0
C591 C 0.68976 0.9993 0.76766 0.0
C592 C 0.60874 0.01555 0.85645 0.0
C593 C 0.59883 0.02695 0.78437 0.0
C594 C 0.63431 0.0203 0.88192 0.0
C595 C 0.65061 0.03641 0.83278 0.0
C596 C 0.64041 0.04873 0.7612 0.0
C597 C 0.61447 0.04396 0.73806 0.0
C598 C 0.64409 0.00731 0.96022 0.0
C599 C 0.6571 0.06568 0.70638 0.0
H600 H 0.71103 0.06479 0.02094 0.0
H601 H 0.72912 0.99646 0.87755 0.0
H602 H 0.65868 0.08854 0.88439 0.0
H603 H 0.65202 0.07263 0.98108 0.0
H604 H 0.67848 0.0955 0.97436 0.0
H605 H 0.70737 0.98843 0.74739 0.0
H606 H 0.67537 0.98494 0.79107 0.0
H607 H 0.68107 0.0093 0.71328 0.0
H608 H 0.59658 0.00242 0.89213 0.0
H609 H 0.60691 0.05243 0.68133 0.0
H610 H 0.65198 0.02222 0.00344 0.0
H611 H 0.6601 0.99353 0.94509 0.0
H612 H 0.62859 0.99628 0.99286 0.0
H613 H 0.6712 0.07731 0.74308 0.0
H614 H 0.64508 0.07919 0.66837 0.0
H615 H 0.66833 0.05298 0.66352 0.0
C616 C 0.49027 0.71626 0.92064 0.0
C617 C 0.51112 0.72011 0.97508 0.0
C618 C 0.49053 0.69529 0.86423 0.0
C619 C 0.51178 0.67763 0.86478 0.0
C620 C 0.53392 0.68312 0.91393 0.0
C621 C 0.53339 0.70451 0.9681 0.0
C622 C 0.46722 0.69075 0.80935 0.0
C623 C 0.55714 0.66498 0.91548 0.0
C624 C 0.49998 0.60518 0.83121 0.0
C625 C 0.51206 0.60118 0.7547 0.0
C626 C 0.49898 0.63028 0.86654 0.0
C627 C 0.50977 0.65182 0.82304 0.0
C628 C 0.52076 0.64797 0.74373 0.0
C629 C 0.52186 0.62265 0.71068 0.0
C630 C 0.48755 0.63355 0.95215 0.0
C631 C 0.53163 0.67042 0.69395 0.0
H632 H 0.47295 0.72821 0.92706 0.0
H633 H 0.54931 0.70743 0.01127 0.0
H634 H 0.47349 0.68557 0.74557 0.0
H635 H 0.45575 0.67409 0.83368 0.0
H636 H 0.45438 0.70823 0.8065 0.0
H637 H 0.57354 0.67315 0.95212 0.0
H638 H 0.55141 0.64599 0.94318 0.0
H639 H 0.56403 0.66101 0.85155 0.0
H640 H 0.49233 0.58855 0.86489 0.0
H641 H 0.53057 0.61962 0.6502 0.0
H642 H 0.47204 0.64865 0.95134 0.0
H643 H 0.50285 0.64037 0.99568 0.0
H644 H 0.47923 0.61505 0.97641 0.0
H645 H 0.51529 0.68175 0.66687 0.0
H646 H 0.54428 0.66346 0.64268 0.0
H647 H 0.54306 0.68396 0.7334 0.0
C648 C 0.81552 0.45018 0.97568 0.0
C649 C 0.80015 0.47265 0.96654 0.0
C650 C 0.83711 0.44601 0.92447 0.0
C651 C 0.84308 0.46473 0.86295 0.0
C652 C 0.8248 0.48461 0.84395 0.0
C653 C 0.80344 0.48848 0.8967 0.0
C654 C 0.85563 0.42405 0.94511 0.0
C655 C 0.82987 0.5042 0.77611 0.0
C656 C 0.91229 0.48951 0.85853 0.0
C657 C 0.92205 0.47784 0.78664 0.0
C658 C 0.88689 0.48457 0.88506 0.0
C659 C 0.87058 0.46808 0.83698 0.0
C660 C 0.88055 0.45575 0.76503 0.0
C661 C 0.90637 0.46064 0.741 0.0
C662 C 0.87735 0.4976 0.96366 0.0
C663 C 0.86376 0.43859 0.71096 0.0
H664 H 0.81274 0.43784 0.0296 0.0
H665 H 0.79143 0.50579 0.88944 0.0
H666 H 0.86433 0.41562 0.88811 0.0
H667 H 0.8717 0.43182 0.98397 0.0
H668 H 0.84579 0.40824 0.98023 0.0
H669 H 0.81176 0.51452 0.75741 0.0
H670 H 0.84397 0.51901 0.79867 0.0
H671 H 0.83843 0.49452 0.7209 0.0
H672 H 0.92449 0.50285 0.89349 0.0
H673 H 0.91382 0.45206 0.68425 0.0
H674 H 0.86994 0.48268 0.00751 0.0
H675 H 0.86105 0.51109 0.94917 0.0
H676 H 0.89286 0.50896 0.99532 0.0
H677 H 0.85189 0.45115 0.66952 0.0
H678 H 0.8502 0.42659 0.74841 0.0
H679 H 0.87569 0.42539 0.67151 0.0
C680 C 0.02729 0.20249 0.88213 0.0
C681 C 0.03686 0.20064 0.96314 0.0
C682 C 0.02634 0.18026 0.8307 0.0
C683 C 0.03503 0.1558 0.8617 0.0
C684 C 0.04713 0.15456 0.94038 0.0
C685 C 0.048 0.17705 0.98996 0.0
C686 C 0.01377 0.18247 0.74643 0.0
C687 C 0.05665 0.12899 0.97605 0.0
C688 C 0.99515 0.0971 0.7954 0.0
C689 C 0.01131 0.08519 0.73656 0.0
C690 C 0.00294 0.11979 0.83732 0.0
C691 C 0.02739 0.13113 0.81908 0.0
C692 C 0.0441 0.11887 0.76105 0.0
C693 C 0.03591 0.09589 0.72073 0.0
C694 C 0.98471 0.13191 0.90007 0.0
C695 C 0.07019 0.13048 0.73965 0.0
H696 H 0.01862 0.2207 0.86145 0.0
H697 H 0.05559 0.17571 0.05258 0.0
H698 H 0.02491 0.17121 0.69951 0.0
H699 H 0.9939 0.17408 0.74898 0.0
H700 H 0.01223 0.20313 0.72578 0.0
H701 H 0.06941 0.13204 0.03082 0.0
H702 H 0.0397 0.11712 0.99573 0.0
H703 H 0.06747 0.11752 0.92893 0.0
H704 H 0.97614 0.08886 0.80788 0.0
H705 H 0.04833 0.08692 0.6744 0.0
H706 H 0.97906 0.15185 0.87976 0.0
H707 H 0.99463 0.13386 0.96088 0.0
H708 H 0.96675 0.1202 0.90884 0.0
H709 H 0.06732 0.14969 0.70899 0.0
H710 H 0.08161 0.11765 0.69757 0.0
H711 H 0.08169 0.13404 0.79676 0.0
C712 C 0.31295 0.02234 0.91299 0.0
C713 C 0.31483 0.00843 0.98771 0.0
C714 C 0.33333 0.02162 0.8545 0.0
C715 C 0.35621 0.00711 0.87212 0.0
C716 C 0.35816 0.99318 0.94744 0.0
C717 C 0.33731 0.99346 0.00282 0.0
C718 C 0.33031 0.03608 0.7736 0.0
C719 C 0.38215 0.97745 0.96917 0.0
C720 C 0.4004 0.97676 0.71167 0.0
C721 C 0.42221 0.99316 0.71497 0.0
C722 C 0.378 0.98226 0.75784 0.0
C723 C 0.37753 0.00445 0.81025 0.0
C724 C 0.39914 0.02165 0.81178 0.0
C725 C 0.42118 0.01596 0.76317 0.0
C726 C 0.35523 0.96366 0.75324 0.0
C727 C 0.39961 0.04514 0.86846 0.0
H728 H 0.2957 0.03386 0.90044 0.0
H729 H 0.33866 0.98162 0.05827 0.0
H730 H 0.3465 0.05014 0.7656 0.0
H731 H 0.33132 0.02204 0.72116 0.0
H732 H 0.31159 0.04689 0.7699 0.0
H733 H 0.38129 0.96929 0.0329 0.0
H734 H 0.38444 0.96098 0.92492 0.0
H735 H 0.39976 0.98985 0.96413 0.0
H736 H 0.4009 0.95932 0.67342 0.0
H737 H 0.43797 0.02872 0.76557 0.0
H738 H 0.33742 0.97448 0.73484 0.0
H739 H 0.35151 0.95494 0.81501 0.0
H740 H 0.35852 0.9475 0.7084 0.0
H741 H 0.38138 0.0566 0.86228 0.0
H742 H 0.41639 0.05817 0.85554 0.0
H743 H 0.40091 0.03848 0.93378 0.0
C744 C 0.45627 0.29272 0.88396 0.0
C745 C 0.44342 0.2941 0.96021 0.0
C746 C 0.45963 0.31531 0.83574 0.0
C747 C 0.45003 0.3396 0.8654 0.0
C748 C 0.43393 0.3402 0.93642 0.0
C749 C 0.43077 0.31733 0.98304 0.0
C750 C 0.47626 0.31373 0.75887 0.0
C751 C 0.42295 0.36553 0.96952 0.0
C752 C 0.49758 0.39524 0.83638 0.0
C753 C 0.48673 0.40878 0.76942 0.0
C754 C 0.48523 0.37326 0.86973 0.0
C755 C 0.4616 0.36434 0.83433 0.0
C756 C 0.44999 0.37853 0.76875 0.0
C757 C 0.46267 0.40073 0.73722 0.0
C758 C 0.49803 0.35904 0.94111 0.0
C759 C 0.42494 0.3696 0.72909 0.0
H760 H 0.46608 0.27474 0.86646 0.0
H761 H 0.42073 0.31829 0.04209 0.0
H762 H 0.4682 0.32624 0.70892 0.0
H763 H 0.49608 0.32095 0.77345 0.0
H764 H 0.47791 0.29334 0.73553 0.0
H765 H 0.40667 0.36205 0.01334 0.0
H766 H 0.43846 0.37629 0.00306 0.0
H767 H 0.41595 0.37822 0.91841 0.0
H768 H 0.51613 0.40147 0.86147 0.0
H769 H 0.45437 0.41097 0.68463 0.0
H770 H 0.50364 0.33901 0.92138 0.0
H771 H 0.4842 0.35709 0.99348 0.0
H772 H 0.5157 0.36925 0.96387 0.0
H773 H 0.42891 0.35236 0.6892 0.0
H774 H 0.4161 0.38514 0.69002 0.0
H775 H 0.41063 0.36353 0.7767 0.0
C776 C 0.18932 0.48066 0.01218 0.0
C777 C 0.21244 0.49246 0.98549 0.0
C778 C 0.16741 0.47959 0.96066 0.0
C779 C 0.16874 0.49042 0.88013 0.0
C780 C 0.19283 0.49995 0.84996 0.0
C781 C 0.21449 0.50094 0.90331 0.0
C782 C 0.14221 0.4693 0.99569 0.0
C783 C 0.19513 0.5113 0.76399 0.0
C784 C 0.11041 0.48308 0.73564 0.0
C785 C 0.09786 0.50721 0.74692 0.0
C786 C 0.13362 0.47722 0.77821 0.0
C787 C 0.14422 0.49582 0.83388 0.0
C788 C 0.13115 0.51988 0.84706 0.0
C789 C 0.10827 0.52531 0.80311 0.0
C790 C 0.14708 0.45146 0.76228 0.0
C791 C 0.14148 0.5401 0.90702 0.0
H792 H 0.18782 0.47396 0.07577 0.0
H793 H 0.23233 0.51014 0.88276 0.0
H794 H 0.12918 0.48599 0.01048 0.0
H795 H 0.13204 0.45679 0.94979 0.0
H796 H 0.14536 0.45784 0.05332 0.0
H797 H 0.21575 0.51371 0.74501 0.0
H798 H 0.18512 0.49869 0.71797 0.0
H799 H 0.18559 0.53078 0.76247 0.0
H800 H 0.1026 0.46914 0.6915 0.0
H801 H 0.09861 0.54396 0.81225 0.0
H802 H 0.1502 0.44088 0.82146 0.0
H803 H 0.16652 0.45504 0.73483 0.0
H804 H 0.13583 0.43869 0.71959 0.0
H805 H 0.14339 0.53148 0.96983 0.0
H806 H 0.12872 0.55761 0.91118 0.0
H807 H 0.16114 0.54649 0.88739 0.0
C808 C 0.95513 0.82359 0.21744 0.0
C809 C 0.97246 0.80282 0.23167 0.0
C810 C 0.9572 0.8471 0.26169 0.0
C811 C 0.9766 0.84959 0.32331 0.0
C812 C 0.99215 0.82763 0.34441 0.0
C813 C 0.99001 0.8045 0.29784 0.0
C814 C 0.9404 0.87001 0.2367 0.0
C815 C 0.01277 0.82909 0.41084 0.0
C816 C 0.011 0.91415 0.3586 0.0
C817 C 0.99858 0.92354 0.42981 0.0
C818 C 0.00303 0.89075 0.321 0.0
C819 C 0.98291 0.87583 0.35777 0.0
C820 C 0.9699 0.88556 0.42875 0.0
C821 C 0.9774 0.90975 0.46242 0.0
C822 C 0.01688 0.8815 0.24375 0.0
C823 C 0.9488 0.8701 0.47134 0.0
H824 H 0.94125 0.82216 0.16699 0.0
H825 H 0.00351 0.78857 0.3091 0.0
H826 H 0.93128 0.87908 0.29194 0.0
H827 H 0.95268 0.88514 0.20687 0.0
H828 H 0.92483 0.86426 0.19254 0.0
H829 H 0.01559 0.80974 0.44081 0.0
H830 H 0.03152 0.83476 0.38209 0.0
H831 H 0.00795 0.84374 0.45919 0.0
H832 H 0.02739 0.92482 0.33344 0.0
H833 H 0.96781 0.91691 0.51773 0.0
H834 H 0.00256 0.87588 0.19538 0.0
H835 H 0.02868 0.86392 0.25832 0.0
H836 H 0.02997 0.8967 0.21794 0.0
H837 H 0.93023 0.87272 0.43738 0.0
H838 H 0.9458 0.87674 0.53627 0.0
H839 H 0.95342 0.84889 0.47197 0.0
C840 C 0.68202 0.97745 0.19966 0.0
C841 C 0.70522 0.98921 0.22608 0.0
C842 C 0.66006 0.97689 0.25091 0.0
C843 C 0.66143 0.98818 0.33091 0.0
C844 C 0.68559 0.99763 0.361 0.0
C845 C 0.70729 0.9981 0.30792 0.0
C846 C 0.63479 0.96666 0.21603 0.0
C847 C 0.68794 0.00943 0.44648 0.0
C848 C 0.60137 0.02428 0.40541 0.0
C849 C 0.59071 0.00665 0.46233 0.0
C850 C 0.62419 0.01829 0.36196 0.0
C851 C 0.63694 0.99415 0.37648 0.0
C852 C 0.62607 0.97601 0.43291 0.0
C853 C 0.60293 0.98242 0.47491 0.0
C854 C 0.63481 0.03802 0.30113 0.0
C855 C 0.63921 0.95018 0.45032 0.0
H856 H 0.6805 0.97037 0.1364 0.0
H857 H 0.7252 0.00725 0.32831 0.0
H858 H 0.62442 0.95458 0.26244 0.0
H859 H 0.62197 0.9834 0.20004 0.0
H860 H 0.63787 0.95478 0.15913 0.0
H861 H 0.70857 0.0117 0.46567 0.0
H862 H 0.67863 0.02903 0.44693 0.0
H863 H 0.67773 0.99721 0.49292 0.0
H864 H 0.59195 0.043 0.39531 0.0
H865 H 0.59492 0.96885 0.51964 0.0
H866 H 0.63667 0.02899 0.2388 0.0
H867 H 0.65452 0.04429 0.32072 0.0
H868 H 0.62226 0.05565 0.29588 0.0
H869 H 0.64235 0.93926 0.3917 0.0
H870 H 0.62772 0.93778 0.49324 0.0
H871 H 0.65863 0.95369 0.47818 0.0
C872 C 0.51411 0.70629 0.3316 0.0
C873 C 0.49483 0.70986 0.27139 0.0
C874 C 0.51369 0.68428 0.38358 0.0
C875 C 0.49357 0.66559 0.37437 0.0
C876 C 0.47308 0.67023 0.31766 0.0
C877 C 0.47396 0.69237 0.26693 0.0
C878 C 0.53562 0.6802 0.44432 0.0
C879 C 0.45116 0.65092 0.30645 0.0
C880 C 0.50562 0.59388 0.42182 0.0
C881 C 0.49136 0.59084 0.49486 0.0
C882 C 0.5071 0.61839 0.38286 0.0
C883 C 0.49461 0.64032 0.41942 0.0
C884 C 0.48136 0.63752 0.49557 0.0
C885 C 0.47955 0.61272 0.53167 0.0
C886 C 0.52134 0.62067 0.30141 0.0
C887 C 0.46855 0.66053 0.53795 0.0
H888 H 0.53041 0.71969 0.33418 0.0
H889 H 0.45911 0.69523 0.21998 0.0
H890 H 0.52809 0.67297 0.50437 0.0
H891 H 0.54914 0.66515 0.41967 0.0
H892 H 0.54677 0.69847 0.45528 0.0
H893 H 0.43593 0.65827 0.26345 0.0
H894 H 0.45897 0.63227 0.28136 0.0
H895 H 0.44199 0.64651 0.36702 0.0
H896 H 0.51498 0.57698 0.39409 0.0
H897 H 0.46911 0.61053 0.5896 0.0
H898 H 0.53634 0.63618 0.30545 0.0
H899 H 0.5075 0.62643 0.25185 0.0
H900 H 0.5309 0.60204 0.28302 0.0
H901 H 0.48185 0.67759 0.53942 0.0
H902 H 0.46265 0.65588 0.60251 0.0
H903 H 0.45099 0.66642 0.5026 0.0
C904 C 0.8385 0.52579 0.21343 0.0
C905 C 0.81615 0.51233 0.23886 0.0
C906 C 0.86066 0.52685 0.26384 0.0
C907 C 0.86038 0.51425 0.34184 0.0
C908 C 0.83696 0.50299 0.37135 0.0
C909 C 0.81503 0.50211 0.3192 0.0
C910 C 0.8851 0.53911 0.22979 0.0
C911 C 0.83577 0.48971 0.45474 0.0
C912 C 0.92237 0.47997 0.40845 0.0
C913 C 0.93222 0.49703 0.46872 0.0
C914 C 0.89927 0.48567 0.36604 0.0
C915 C 0.88541 0.50888 0.38517 0.0
C916 C 0.89554 0.52653 0.44472 0.0
C917 C 0.91899 0.52046 0.48554 0.0
C918 C 0.88946 0.46654 0.30173 0.0
C919 C 0.88122 0.55134 0.46708 0.0
H920 H 0.83927 0.53386 0.15132 0.0
H921 H 0.79779 0.49163 0.33877 0.0
H922 H 0.89511 0.55088 0.27796 0.0
H923 H 0.89869 0.52343 0.20985 0.0
H924 H 0.88099 0.55182 0.17551 0.0
H925 H 0.81542 0.48591 0.47435 0.0
H926 H 0.84621 0.47072 0.45142 0.0
H927 H 0.8455 0.50176 0.50283 0.0
H928 H 0.93258 0.46188 0.39517 0.0
H929 H 0.92638 0.53354 0.53296 0.0
H930 H 0.8868 0.47658 0.24137 0.0
H931 H 0.87023 0.4588 0.32072 0.0
H932 H 0.90295 0.44978 0.2926 0.0
H933 H 0.87677 0.5628 0.41047 0.0
H934 H 0.89251 0.56382 0.51048 0.0
H935 H 0.86239 0.54636 0.49656 0.0
loop_
_geom_bond_atom_site_label_1
_geom_bond_atom_site_label_2
_geom_bond_distance
_geom_bond_site_symmetry_2
_ccdc_geom_bond_type
H0 C3 0.929 . S
H1 C6 0.929 . S
H2 C8 0.930 . S
C3 H0 0.929 . S
C3 C4 1.398 . S
C3 C5 1.396 1_554 S
C4 C3 1.398 . S
C4 C8 1.407 . S
C5 C3 1.396 1_556 S
C5 C6 1.394 . S
C6 H1 0.929 . S
C6 C5 1.394 . S
C6 C7 1.382 1_556 S
C7 C6 1.382 1_554 S
C7 C8 1.392 . S
C7 N9 1.420 . S
C8 H2 0.930 . S
C8 C4 1.407 . S
C8 C7 1.392 . S
N9 C7 1.420 . S
N9 C10 1.244 1_554 S
C10 N9 1.244 1_556 S
H11 C14 0.929 . S
H12 C17 0.929 . S
H13 C19 0.930 . S
C14 H11 0.929 . S
C14 C15 1.398 . S
C14 C16 1.396 1_554 S
C15 C14 1.398 . S
C15 C19 1.407 . S
C16 C14 1.396 1_556 S
C16 C17 1.394 . S
C17 H12 0.929 . S
C17 C16 1.394 . S
C17 C18 1.382 1_556 S
C18 C17 1.382 1_554 S
C18 C19 1.392 . S
C18 N20 1.420 . S
C19 H13 0.930 . S
C19 C15 1.407 . S
C19 C18 1.392 . S
N20 C18 1.420 . S
N20 C21 1.244 1_554 S
C21 N20 1.244 1_556 S
H22 C25 0.929 . S
H23 C28 0.929 . S
H24 C30 0.930 . S
C25 H22 0.929 . S
C25 C26 1.395 1_565 S
C25 C27 1.394 1_564 S
C26 C25 1.395 1_545 S
C26 C30 1.414 . S
C27 C25 1.394 1_546 S
C27 C28 1.397 . S
C28 H23 0.929 . S
C28 C27 1.397 . S
C28 C29 1.382 1_556 S
C29 C28 1.382 1_554 S
C29 C30 1.392 . S
C29 N31 1.420 . S
C30 H24 0.930 . S
C30 C26 1.414 . S
C30 C29 1.392 . S
N31 C29 1.420 . S
N31 C32 1.232 1_544 S
C32 N31 1.232 1_566 S
H33 C36 0.929 . S
H34 C39 0.929 . S
H35 C41 0.930 . S
C36 H33 0.929 . S
C36 C37 1.398 . S
C36 C38 1.396 1_554 S
C37 C36 1.398 . S
C37 C41 1.407 . S
C38 C36 1.396 1_556 S
C38 C39 1.394 . S
C39 H34 0.929 . S
C39 C38 1.394 . S
C39 C40 1.382 1_556 S
C40 C39 1.382 1_554 S
C40 C41 1.392 . S
C40 N42 1.420 . S
C41 H35 0.930 . S
C41 C37 1.407 . S
C41 C40 1.392 . S
N42 C40 1.420 . S
N42 C43 1.244 1_554 S
C43 N42 1.244 1_556 S
H44 C47 0.929 . S
H45 C50 0.929 . S
H46 C52 0.930 . S
C47 H44 0.929 . S
C47 C48 1.398 . S
C47 C49 1.396 . S
C48 C47 1.398 . S
C48 C52 1.407 . S
C49 C47 1.396 . S
C49 C50 1.394 . S
C50 H45 0.929 . S
C50 C49 1.394 . S
C50 C51 1.382 . S
C51 C50 1.382 . S
C51 C52 1.392 . S
C51 N53 1.420 . S
C52 H46 0.930 . S
C52 C48 1.407 . S
C52 C51 1.392 . S
N53 C51 1.420 . S
N53 C54 1.244 . S
C54 N53 1.244 . S
H55 C58 0.929 . S
H56 C61 0.929 . S
H57 C63 0.930 . S
C58 H55 0.929 . S
C58 C59 1.398 . S
C58 C60 1.396 . S
C59 C58 1.398 . S
C59 C63 1.407 . S
C60 C58 1.396 . S
C60 C61 1.394 . S
C61 H56 0.929 . S
C61 C60 1.394 . S
C61 C62 1.382 . S
C62 C61 1.382 . S
C62 C63 1.392 . S
C62 N64 1.420 . S
C63 H57 0.930 . S
C63 C59 1.407 . S
C63 C62 1.392 . S
N64 C62 1.420 . S
N64 C65 1.244 . S
C65 N64 1.244 . S
H66 C69 0.929 . S
H67 C72 0.929 . S
H68 C74 0.930 . S
C69 H66 0.929 . S
C69 C70 1.395 1_565 S
C69 C71 1.394 1_565 S
C70 C69 1.395 1_545 S
C70 C74 1.416 . S
C71 C69 1.394 1_545 S
C71 C72 1.398 . S
C72 H67 0.929 . S
C72 C71 1.398 . S
C72 C73 1.382 . S
C73 C72 1.382 . S
C73 C74 1.392 . S
C73 N75 1.420 . S
C74 H68 0.930 . S
C74 C70 1.416 . S
C74 C73 1.392 . S
N75 C73 1.420 . S
N75 C76 1.236 1_545 S
C76 N75 1.236 1_565 S
H77 C80 0.929 . S
H78 C83 0.929 . S
H79 C85 0.930 . S
C80 H77 0.929 . S
C80 C81 1.398 . S
C80 C82 1.396 . S
C81 C80 1.398 . S
C81 C85 1.407 . S
C82 C80 1.396 . S
C82 C83 1.394 . S
C83 H78 0.929 . S
C83 C82 1.394 . S
C83 C84 1.382 . S
C84 C83 1.382 . S
C84 C85 1.392 . S
C84 N86 1.420 . S
C85 H79 0.930 . S
C85 C81 1.407 . S
C85 C84 1.392 . S
N86 C84 1.420 . S
N86 C87 1.244 . S
C87 N86 1.244 . S
Zn88 O94 1.969 1_455 S
Zn88 O95 1.965 . S
Zn88 O99 2.024 . S
Zn88 O104 1.969 1_455 S
Zn89 O96 1.968 . S
Zn89 O102 1.969 . S
Zn89 O103 1.965 1_455 S
Zn89 O105 2.024 1_455 S
C90 O91 1.229 . S
C90 O99 1.058 . S
O91 C90 1.229 . S
C92 O93 1.229 1_655 S
C92 O105 1.058 . S
O93 C92 1.229 1_455 S
O94 Zn88 1.969 1_655 S
O94 C97 1.267 1_655 S
O95 Zn88 1.965 . S
O95 C106 1.260 1_545 S
O96 Zn89 1.968 . S
O96 C106 1.258 . S
C97 O94 1.267 1_455 S
C97 O98 1.228 . S
O98 C97 1.228 . S
O99 Zn88 2.024 . S
O99 C90 1.058 . S
C100 O101 1.228 . S
C100 O102 1.267 1_655 S
O101 C100 1.228 . S
O102 Zn89 1.969 . S
O102 C100 1.267 1_455 S
O103 Zn89 1.965 1_655 S
O103 C107 1.260 1_565 S
O104 Zn88 1.969 1_655 S
O104 C107 1.258 . S
O105 Zn89 2.024 1_655 S
O105 C92 1.058 . S
C106 O95 1.260 1_565 S
C106 O96 1.258 . S
C107 O103 1.260 1_545 S
C107 O104 1.258 . S
Zn108 O114 1.969 . S
Zn108 O115 1.965 1_565 S
Zn108 O119 2.024 1_565 S
Zn108 O124 1.969 . S
Zn109 O116 1.969 . S
Zn109 O122 1.969 . S
Zn109 O123 1.965 1_545 S
Zn109 O125 2.024 1_545 S
C110 O111 1.229 1_545 S
C110 O119 1.058 . S
O111 C110 1.229 1_565 S
C112 O113 1.229 1_565 S
C112 O125 1.058 . S
O113 C112 1.229 1_545 S
O114 Zn108 1.969 . S
O114 C117 1.267 . S
O115 Zn108 1.965 1_545 S
O115 C126 1.260 . S
O116 Zn109 1.969 . S
O116 C126 1.258 . S
C117 O114 1.267 . S
C117 O118 1.228 1_565 S
O118 C117 1.228 1_545 S
O119 Zn108 2.024 1_545 S
O119 C110 1.058 . S
C120 O121 1.228 1_545 S
C120 O122 1.267 . S
O121 C120 1.228 1_565 S
O122 Zn109 1.969 . S
O122 C120 1.267 . S
O123 Zn109 1.965 1_565 S
O123 C127 1.260 . S
O124 Zn108 1.969 . S
O124 C127 1.258 . S
O125 Zn109 2.024 1_565 S
O125 C112 1.058 . S
C126 O115 1.260 . S
C126 O116 1.258 . S
C127 O123 1.260 . S
C127 O124 1.258 . S
Zn128 O134 1.969 . S
Zn128 O135 1.965 . S
Zn128 O139 2.024 . S
Zn128 O144 1.969 . S
Zn129 O136 1.969 . S
Zn129 O142 1.969 . S
Zn129 O143 1.965 . S
Zn129 O145 2.024 . S
C130 O131 1.229 . S
C130 O139 1.058 . S
O131 C130 1.229 . S
C132 O133 1.229 . S
C132 O145 1.058 . S
O133 C132 1.229 . S
O134 Zn128 1.969 . S
O134 C137 1.267 . S
O135 Zn128 1.965 . S
O135 C146 1.260 . S
O136 Zn129 1.969 . S
O136 C146 1.258 . S
C137 O134 1.267 . S
C137 O138 1.228 . S
O138 C137 1.228 . S
O139 Zn128 2.024 . S
O139 C130 1.058 . S
C140 O141 1.228 . S
C140 O142 1.267 . S
O141 C140 1.228 . S
O142 Zn129 1.969 . S
O142 C140 1.267 . S
O143 Zn129 1.965 . S
O143 C147 1.260 . S
O144 Zn128 1.969 . S
O144 C147 1.258 . S
O145 Zn129 2.024 . S
O145 C132 1.058 . S
C146 O135 1.260 . S
C146 O136 1.258 . S
C147 O143 1.260 . S
C147 O144 1.258 . S
Zn148 O154 1.969 . S
Zn148 O155 1.965 . S
Zn148 O159 2.024 . S
Zn148 O164 1.969 . S
Zn149 O156 1.969 . S
Zn149 O162 1.969 . S
Zn149 O163 1.965 . S
Zn149 O165 2.024 . S
C150 O151 1.229 . S
C150 O159 1.058 . S
O151 C150 1.229 . S
C152 O153 1.229 . S
C152 O165 1.058 . S
O153 C152 1.229 . S
O154 Zn148 1.969 . S
O154 C157 1.267 . S
O155 Zn148 1.965 . S
O155 C166 1.260 . S
O156 Zn149 1.969 . S
O156 C166 1.258 1_655 S
C157 O154 1.267 . S
C157 O158 1.228 . S
O158 C157 1.228 . S
O159 Zn148 2.024 . S
O159 C150 1.058 . S
C160 O161 1.228 . S
C160 O162 1.267 . S
O161 C160 1.228 . S
O162 Zn149 1.969 . S
O162 C160 1.267 . S
O163 Zn149 1.965 . S
O163 C167 1.260 1_655 S
O164 Zn148 1.969 . S
O164 C167 1.258 . S
O165 Zn149 2.024 . S
O165 C152 1.058 . S
C166 O155 1.260 . S
C166 O156 1.258 1_455 S
C167 O163 1.260 1_455 S
C167 O164 1.258 . S
C168 C169 1.391 . S
C168 C170 1.394 . S
C168 H184 0.931 . S
C169 C168 1.391 . S
C169 C173 1.376 1_545 S
C170 C168 1.394 . S
C170 C171 1.369 . S
C170 C174 1.531 . S
C171 C170 1.369 . S
C171 C172 1.407 1_545 S
C171 C179 1.503 . S
C172 C171 1.407 1_565 S
C172 C173 1.393 . S
C172 C175 1.513 . S
C173 C169 1.376 1_565 S
C173 C172 1.393 . S
C173 H185 0.929 . S
C174 C170 1.531 . S
C174 H186 0.960 . S
C174 H187 0.962 . S
C174 H188 0.960 . S
C175 C172 1.513 . S
C175 H189 0.961 . S
C175 H190 0.961 . S
C175 H191 0.961 1_565 S
C176 C177 1.387 . S
C176 C178 1.363 . S
C176 H192 0.931 . S
C177 C176 1.387 . S
C177 C181 1.389 1_565 S
C178 C176 1.363 . S
C178 C179 1.370 1_565 S
C178 C182 1.524 . S
C179 C171 1.503 . S
C179 C178 1.370 1_545 S
C179 C180 1.403 . S
C180 C179 1.403 . S
C180 C181 1.404 . S
C180 C183 1.539 . S
C181 C177 1.389 1_545 S
C181 C180 1.404 . S
C181 H193 0.930 . S
C182 C178 1.524 . S
C182 H194 0.956 . S
C182 H195 0.961 . S
C182 H196 0.961 . S
C183 C180 1.539 . S
C183 H197 0.958 . S
C183 H198 0.961 . S
C183 H199 0.960 . S
H184 C168 0.931 . S
H185 C173 0.929 . S
H186 C174 0.960 . S
H187 C174 0.962 . S
H188 C174 0.960 . S
H189 C175 0.961 . S
H190 C175 0.961 . S
H191 C175 0.961 1_545 S
H192 C176 0.931 . S
H193 C181 0.930 . S
H194 C182 0.956 . S
H195 C182 0.961 . S
H196 C182 0.961 . S
H197 C183 0.958 . S
H198 C183 0.961 . S
H199 C183 0.960 . S
C200 C201 1.391 . S
C200 C202 1.394 . S
C200 H216 0.931 . S
C201 C200 1.391 . S
C201 C205 1.376 . S
C202 C200 1.394 . S
C202 C203 1.369 . S
C202 C206 1.531 . S
C203 C202 1.369 . S
C203 C204 1.410 . S
C203 C211 1.503 . S
C204 C203 1.410 . S
C204 C205 1.392 . S
C204 C207 1.511 . S
C205 C201 1.376 . S
C205 C204 1.392 . S
C205 H217 0.929 . S
C206 C202 1.531 . S
C206 H218 0.960 . S
C206 H219 0.962 . S
C206 H220 0.960 . S
C207 C204 1.511 . S
C207 H221 0.961 . S
C207 H222 0.961 . S
C207 H223 0.961 . S
C208 C209 1.370 . S
C208 C210 1.363 . S
C208 H224 0.931 . S
C209 C208 1.370 . S
C209 C213 1.408 . S
C210 C208 1.363 . S
C210 C211 1.370 . S
C210 C214 1.524 . S
C211 C203 1.503 . S
C211 C210 1.370 . S
C211 C212 1.403 . S
C212 C211 1.403 . S
C212 C213 1.404 . S
C212 C215 1.539 . S
C213 C209 1.408 . S
C213 C212 1.404 . S
C213 H225 0.930 . S
C214 C210 1.524 . S
C214 H226 0.956 . S
C214 H227 0.961 . S
C214 H228 0.961 . S
C215 C212 1.539 . S
C215 H229 0.958 . S
C215 H230 0.961 . S
C215 H231 0.960 . S
H216 C200 0.931 . S
H217 C205 0.929 . S
H218 C206 0.960 . S
H219 C206 0.962 . S
H220 C206 0.960 . S
H221 C207 0.961 . S
H222 C207 0.961 . S
H223 C207 0.961 . S
H224 C208 0.931 . S
H225 C213 0.930 . S
H226 C214 0.956 . S
H227 C214 0.961 . S
H228 C214 0.961 . S
H229 C215 0.958 . S
H230 C215 0.961 . S
H231 C215 0.960 . S
C232 C233 1.391 . S
C232 C234 1.394 . S
C232 H248 0.931 . S
C233 C232 1.391 . S
C233 C237 1.376 . S
C234 C232 1.394 . S
C234 C235 1.369 . S
C234 C238 1.531 . S
C235 C234 1.369 . S
C235 C236 1.410 . S
C235 C243 1.503 . S
C236 C235 1.410 . S
C236 C237 1.392 . S
C236 C239 1.511 . S
C237 C233 1.376 . S
C237 C236 1.392 . S
C237 H249 0.929 . S
C238 C234 1.531 . S
C238 H250 0.960 . S
C238 H251 0.962 . S
C238 H252 0.960 . S
C239 C236 1.511 . S
C239 H253 0.961 . S
C239 H254 0.961 . S
C239 H255 0.961 . S
C240 C241 1.370 . S
C240 C242 1.363 . S
C240 H256 0.931 . S
C241 C240 1.370 . S
C241 C245 1.408 . S
C242 C240 1.363 . S
C242 C243 1.370 . S
C242 C246 1.524 . S
C243 C235 1.503 . S
C243 C242 1.370 . S
C243 C244 1.403 . S
C244 C243 1.403 . S
C244 C245 1.404 . S
C244 C247 1.539 . S
C245 C241 1.408 . S
C245 C244 1.404 . S
C245 H257 0.930 . S
C246 C242 1.524 . S
C246 H258 0.956 . S
C246 H259 0.961 . S
C246 H260 0.961 . S
C247 C244 1.539 . S
C247 H261 0.958 . S
C247 H262 0.961 . S
C247 H263 0.960 . S
H248 C232 0.931 . S
H249 C237 0.929 . S
H250 C238 0.960 . S
H251 C238 0.962 . S
H252 C238 0.960 . S
H253 C239 0.961 . S
H254 C239 0.961 . S
H255 C239 0.961 . S
H256 C240 0.931 . S
H257 C245 0.930 . S
H258 C246 0.956 . S
H259 C246 0.961 . S
H260 C246 0.961 . S
H261 C247 0.958 . S
H262 C247 0.961 . S
H263 C247 0.960 . S
C264 C265 1.391 . S
C264 C266 1.394 . S
C264 H280 0.931 . S
C265 C264 1.391 . S
C265 C269 1.376 . S
C266 C264 1.394 . S
C266 C267 1.369 . S
C266 C270 1.531 1_455 S
C267 C266 1.369 . S
C267 C268 1.410 . S
C267 C275 1.503 . S
C268 C267 1.410 . S
C268 C269 1.392 . S
C268 C271 1.511 . S
C269 C265 1.376 . S
C269 C268 1.392 . S
C269 H281 0.929 . S
C270 C266 1.531 1_655 S
C270 H282 0.960 . S
C270 H283 0.962 . S
C270 H284 0.960 . S
C271 C268 1.511 . S
C271 H285 0.961 . S
C271 H286 0.961 . S
C271 H287 0.961 . S
C272 C273 1.370 . S
C272 C274 1.363 . S
C272 H288 0.931 1_455 S
C273 C272 1.370 . S
C273 C277 1.408 . S
C274 C272 1.363 . S
C274 C275 1.370 . S
C274 C278 1.524 . S
C275 C267 1.503 . S
C275 C274 1.370 . S
C275 C276 1.403 . S
C276 C275 1.403 . S
C276 C277 1.404 . S
C276 C279 1.539 . S
C277 C273 1.408 . S
C277 C276 1.404 . S
C277 H289 0.930 . S
C278 C274 1.524 . S
C278 H290 0.956 1_455 S
C278 H291 0.961 . S
C278 H292 0.961 1_455 S
C279 C276 1.539 . S
C279 H293 0.958 . S
C279 H294 0.961 . S
C279 H295 0.960 . S
H280 C264 0.931 . S
H281 C269 0.929 . S
H282 C270 0.960 . S
H283 C270 0.962 . S
H284 C270 0.960 . S
H285 C271 0.961 . S
H286 C271 0.961 . S
H287 C271 0.961 . S
H288 C272 0.931 1_655 S
H289 C277 0.930 . S
H290 C278 0.956 1_655 S
H291 C278 0.961 . S
H292 C278 0.961 1_655 S
H293 C279 0.958 . S
H294 C279 0.961 . S
H295 C279 0.960 . S
C296 C297 1.391 1_565 S
C296 C298 1.393 1_565 S
C296 H312 0.931 . S
C297 C296 1.391 1_545 S
C297 C301 1.376 . S
C298 C296 1.393 1_545 S
C298 C299 1.372 . S
C298 C302 1.529 1_545 S
C299 C298 1.372 . S
C299 C300 1.410 . S
C299 C307 1.503 . S
C300 C299 1.410 . S
C300 C301 1.392 . S
C300 C303 1.511 . S
C301 C297 1.376 . S
C301 C300 1.392 . S
C301 H313 0.929 1_556 S
C302 C298 1.529 1_565 S
C302 H314 0.960 1_565 S
C302 H315 0.962 . S
C302 H316 0.957 1_565 S
C303 C300 1.511 . S
C303 H317 0.961 1_556 S
C303 H318 0.961 . S
C303 H319 0.961 . S
C304 C305 1.370 1_565 S
C304 C306 1.363 . S
C304 H320 0.931 . S
C305 C304 1.370 1_545 S
C305 C309 1.408 . S
C306 C304 1.363 . S
C306 C307 1.370 1_565 S
C306 C310 1.524 . S
C307 C299 1.503 . S
C307 C306 1.370 1_545 S
C307 C308 1.403 . S
C308 C307 1.403 . S
C308 C309 1.404 . S
C308 C311 1.539 . S
C309 C305 1.408 . S
C309 C308 1.404 . S
C309 H321 0.930 . S
C310 C306 1.524 . S
C310 H322 0.956 . S
C310 H323 0.961 . S
C310 H324 0.961 . S
C311 C308 1.539 . S
C311 H325 0.958 . S
C311 H326 0.961 . S
C311 H327 0.960 . S
H312 C296 0.931 . S
H313 C301 0.929 1_554 S
H314 C302 0.960 1_545 S
H315 C302 0.962 . S
H316 C302 0.957 1_545 S
H317 C303 0.961 1_554 S
H318 C303 0.961 . S
H319 C303 0.961 . S
H320 C304 0.931 . S
H321 C309 0.930 . S
H322 C310 0.956 . S
H323 C310 0.961 . S
H324 C310 0.961 . S
H325 C311 0.958 . S
H326 C311 0.961 . S
H327 C311 0.960 . S
C328 C329 1.391 . S
C328 C330 1.394 . S
C328 H344 0.931 . S
C329 C328 1.391 . S
C329 C333 1.376 . S
C330 C328 1.394 . S
C330 C331 1.369 . S
C330 C334 1.531 . S
C331 C330 1.369 . S
C331 C332 1.410 . S
C331 C339 1.503 . S
C332 C331 1.410 . S
C332 C333 1.392 . S
C332 C335 1.511 . S
C333 C329 1.376 . S
C333 C332 1.392 . S
C333 H345 0.926 1_556 S
C334 C330 1.531 . S
C334 H346 0.960 . S
C334 H347 0.962 . S
C334 H348 0.960 . S
C335 C332 1.511 . S
C335 H349 0.961 . S
C335 H350 0.961 . S
C335 H351 0.961 . S
C336 C337 1.370 . S
C336 C338 1.363 . S
C336 H352 0.931 . S
C337 C336 1.370 . S
C337 C341 1.408 . S
C338 C336 1.363 . S
C338 C339 1.370 . S
C338 C342 1.524 . S
C339 C331 1.503 . S
C339 C338 1.370 . S
C339 C340 1.403 . S
C340 C339 1.403 . S
C340 C341 1.404 . S
C340 C343 1.539 . S
C341 C337 1.408 . S
C341 C340 1.404 . S
C341 H353 0.930 . S
C342 C338 1.524 . S
C342 H354 0.956 . S
C342 H355 0.961 . S
C342 H356 0.961 . S
C343 C340 1.539 . S
C343 H357 0.958 . S
C343 H358 0.961 . S
C343 H359 0.960 . S
H344 C328 0.931 . S
H345 C333 0.926 1_554 S
H346 C334 0.960 . S
H347 C334 0.962 . S
H348 C334 0.960 . S
H349 C335 0.961 . S
H350 C335 0.961 . S
H351 C335 0.961 . S
H352 C336 0.931 . S
H353 C341 0.930 . S
H354 C342 0.956 . S
H355 C342 0.961 . S
H356 C342 0.961 . S
H357 C343 0.958 . S
H358 C343 0.961 . S
H359 C343 0.960 . S
C360 C361 1.391 . S
C360 C362 1.394 . S
C360 H376 0.931 . S
C361 C360 1.391 . S
C361 C365 1.376 . S
C362 C360 1.394 . S
C362 C363 1.369 . S
C362 C366 1.531 . S
C363 C362 1.369 . S
C363 C364 1.410 . S
C363 C371 1.503 . S
C364 C363 1.410 . S
C364 C365 1.392 . S
C364 C367 1.511 . S
C365 C361 1.376 . S
C365 C364 1.392 . S
C365 H377 0.929 1_556 S
C366 C362 1.531 . S
C366 H378 0.960 . S
C366 H379 0.962 . S
C366 H380 0.960 . S
C367 C364 1.511 . S
C367 H381 0.961 1_556 S
C367 H382 0.961 . S
C367 H383 0.961 . S
C368 C369 1.370 . S
C368 C370 1.363 . S
C368 H384 0.931 . S
C369 C368 1.370 . S
C369 C373 1.408 . S
C370 C368 1.363 . S
C370 C371 1.370 . S
C370 C374 1.524 . S
C371 C363 1.503 . S
C371 C370 1.370 . S
C371 C372 1.403 . S
C372 C371 1.403 . S
C372 C373 1.404 . S
C372 C375 1.539 . S
C373 C369 1.408 . S
C373 C372 1.404 . S
C373 H385 0.930 . S
C374 C370 1.524 . S
C374 H386 0.956 . S
C374 H387 0.961 . S
C374 H388 0.961 . S
C375 C372 1.539 . S
C375 H389 0.958 . S
C375 H390 0.961 . S
C375 H391 0.960 . S
H376 C360 0.931 . S
H377 C365 0.929 1_554 S
H378 C366 0.960 . S
H379 C366 0.962 . S
H380 C366 0.960 . S
H381 C367 0.961 1_554 S
H382 C367 0.961 . S
H383 C367 0.961 . S
H384 C368 0.931 . S
H385 C373 0.930 . S
H386 C374 0.956 . S
H387 C374 0.961 . S
H388 C374 0.961 . S
H389 C375 0.958 . S
H390 C375 0.961 . S
H391 C375 0.960 . S
C392 C393 1.391 . S
C392 C394 1.394 . S
C392 H408 0.931 1_556 S
C393 C392 1.391 . S
C393 C397 1.376 . S
C394 C392 1.394 . S
C394 C395 1.369 . S
C394 C398 1.531 1_655 S
C395 C394 1.369 . S
C395 C396 1.410 . S
C395 C403 1.503 . S
C396 C395 1.410 . S
C396 C397 1.392 . S
C396 C399 1.511 . S
C397 C393 1.376 . S
C397 C396 1.392 . S
C397 H409 0.929 . S
C398 C394 1.531 1_455 S
C398 H410 0.960 . S
C398 H411 0.962 . S
C398 H412 0.960 . S
C399 C396 1.511 . S
C399 H413 0.961 . S
C399 H414 0.961 . S
C399 H415 0.961 . S
C400 C401 1.382 . S
C400 C402 1.374 . S
C400 H416 0.910 1_655 S
C401 C400 1.382 . S
C401 C405 1.408 . S
C402 C400 1.374 . S
C402 C403 1.370 . S
C402 C406 1.516 1_655 S
C403 C395 1.503 . S
C403 C402 1.370 . S
C403 C404 1.403 . S
C404 C403 1.403 . S
C404 C405 1.404 . S
C404 C407 1.539 . S
C405 C401 1.408 . S
C405 C404 1.404 . S
C405 H417 0.930 . S
C406 C402 1.516 1_455 S
C406 H418 0.976 . S
C406 H419 0.937 1_455 S
C406 H420 0.974 . S
C407 C404 1.539 . S
C407 H421 0.958 . S
C407 H422 0.961 . S
C407 H423 0.960 . S
H408 C392 0.931 1_554 S
H409 C397 0.929 . S
H410 C398 0.960 . S
H411 C398 0.962 . S
H412 C398 0.960 . S
H413 C399 0.961 . S
H414 C399 0.961 . S
H415 C399 0.961 . S
H416 C400 0.910 1_455 S
H417 C405 0.930 . S
H418 C406 0.976 . S
H419 C406 0.937 1_655 S
H420 C406 0.974 . S
H421 C407 0.958 . S
H422 C407 0.961 . S
H423 C407 0.960 . S
C424 C425 1.391 . S
C424 C426 1.394 . S
C424 H440 0.931 . S
C425 C424 1.391 . S
C425 C429 1.376 . S
C426 C424 1.394 . S
C426 C427 1.369 . S
C426 C430 1.531 1_455 S
C427 C426 1.369 . S
C427 C428 1.410 . S
C427 C435 1.503 . S
C428 C427 1.410 . S
C428 C429 1.392 . S
C428 C431 1.511 . S
C429 C425 1.376 . S
C429 C428 1.392 . S
C429 H441 0.929 . S
C430 C426 1.531 1_655 S
C430 H442 0.955 1_655 S
C430 H443 0.962 . S
C430 H444 0.960 . S
C431 C428 1.511 . S
C431 H445 0.961 . S
C431 H446 0.961 . S
C431 H447 0.961 . S
C432 C433 1.359 1_655 S
C432 C434 1.352 1_655 S
C432 H448 0.955 . S
C433 C432 1.359 1_455 S
C433 C437 1.408 . S
C434 C432 1.352 1_455 S
C434 C435 1.370 . S
C434 C438 1.524 1_455 S
C435 C427 1.503 . S
C435 C434 1.370 . S
C435 C436 1.403 . S
C436 C435 1.403 . S
C436 C437 1.404 . S
C436 C439 1.539 . S
C437 C433 1.408 . S
C437 C436 1.404 . S
C437 H449 0.930 . S
C438 C434 1.524 1_655 S
C438 H450 0.956 . S
C438 H451 0.961 1_655 S
C438 H452 0.961 . S
C439 C436 1.539 . S
C439 H453 0.958 . S
C439 H454 0.961 . S
C439 H455 0.960 . S
H440 C424 0.931 . S
H441 C429 0.929 . S
H442 C430 0.955 1_455 S
H443 C430 0.962 . S
H444 C430 0.960 . S
H445 C431 0.961 . S
H446 C431 0.961 . S
H447 C431 0.961 . S
H448 C432 0.955 . S
H449 C437 0.930 . S
H450 C438 0.956 . S
H451 C438 0.961 1_455 S
H452 C438 0.961 . S
H453 C439 0.958 . S
H454 C439 0.961 . S
H455 C439 0.960 . S
C456 C457 1.361 1_545 S
C456 C458 1.394 . S
C456 H472 0.931 . S
C457 C456 1.361 1_565 S
C457 C461 1.411 . S
C458 C456 1.394 . S
C458 C459 1.369 1_545 S
C458 C462 1.531 . S
C459 C458 1.369 1_565 S
C459 C460 1.410 . S
C459 C467 1.503 . S
C460 C459 1.410 . S
C460 C461 1.392 . S
C460 C463 1.511 . S
C461 C457 1.411 . S
C461 C460 1.392 . S
C461 H473 0.929 . S
C462 C458 1.531 . S
C462 H474 0.960 . S
C462 H475 0.962 . S
C462 H476 0.960 . S
C463 C460 1.511 . S
C463 H477 0.961 . S
C463 H478 0.961 . S
C463 H479 0.961 . S
C464 C465 1.370 . S
C464 C466 1.363 . S
C464 H480 0.931 1_565 S
C465 C464 1.370 . S
C465 C469 1.408 . S
C466 C464 1.363 . S
C466 C467 1.370 . S
C466 C470 1.524 1_565 S
C467 C459 1.503 . S
C467 C466 1.370 . S
C467 C468 1.403 . S
C468 C467 1.403 . S
C468 C469 1.404 . S
C468 C471 1.539 . S
C469 C465 1.408 . S
C469 C468 1.404 . S
C469 H481 0.930 . S
C470 C466 1.524 1_545 S
C470 H482 0.956 . S
C470 H483 0.961 1_545 S
C470 H484 0.961 . S
C471 C468 1.539 . S
C471 H485 0.958 . S
C471 H486 0.961 . S
C471 H487 0.960 . S
H472 C456 0.931 . S
H473 C461 0.929 . S
H474 C462 0.960 . S
H475 C462 0.962 . S
H476 C462 0.960 . S
H477 C463 0.961 . S
H478 C463 0.961 . S
H479 C463 0.961 . S
H480 C464 0.931 1_545 S
H481 C469 0.930 . S
H482 C470 0.956 . S
H483 C470 0.961 1_565 S
H484 C470 0.961 . S
H485 C471 0.958 . S
H486 C471 0.961 . S
H487 C471 0.960 . S
C488 C489 1.391 . S
C488 C490 1.394 . S
C488 H504 0.931 . S
C489 C488 1.391 . S
C489 C493 1.376 . S
C490 C488 1.394 . S
C490 C491 1.369 . S
C490 C494 1.531 . S
C491 C490 1.369 . S
C491 C492 1.410 . S
C491 C499 1.503 . S
C492 C491 1.410 . S
C492 C493 1.392 . S
C492 C495 1.511 . S
C493 C489 1.376 . S
C493 C492 1.392 . S
C493 H505 0.929 . S
C494 C490 1.531 . S
C494 H506 0.960 . S
C494 H507 0.962 . S
C494 H508 0.960 . S
C495 C492 1.511 . S
C495 H509 0.961 . S
C495 H510 0.961 . S
C495 H511 0.961 . S
C496 C497 1.370 . S
C496 C498 1.363 . S
C496 H512 0.931 . S
C497 C496 1.370 . S
C497 C501 1.408 . S
C498 C496 1.363 . S
C498 C499 1.370 . S
C498 C502 1.524 . S
C499 C491 1.503 . S
C499 C498 1.370 . S
C499 C500 1.403 . S
C500 C499 1.403 . S
C500 C501 1.404 . S
C500 C503 1.539 . S
C501 C497 1.408 . S
C501 C500 1.404 . S
C501 H513 0.930 . S
C502 C498 1.524 . S
C502 H514 0.956 . S
C502 H515 0.961 . S
C502 H516 0.961 . S
C503 C500 1.539 . S
C503 H517 0.958 . S
C503 H518 0.961 . S
C503 H519 0.960 . S
H504 C488 0.931 . S
H505 C493 0.929 . S
H506 C494 0.960 . S
H507 C494 0.962 . S
H508 C494 0.960 . S
H509 C495 0.961 . S
H510 C495 0.961 . S
H511 C495 0.961 . S
H512 C496 0.931 . S
H513 C501 0.930 . S
H514 C502 0.956 . S
H515 C502 0.961 . S
H516 C502 0.961 . S
H517 C503 0.958 . S
H518 C503 0.961 . S
H519 C503 0.960 . S
C520 C521 1.391 . S
C520 C522 1.394 . S
C520 H536 0.931 . S
C521 C520 1.391 . S
C521 C525 1.376 . S
C522 C520 1.394 . S
C522 C523 1.369 . S
C522 C526 1.531 . S
C523 C522 1.369 . S
C523 C524 1.410 . S
C523 C531 1.503 . S
C524 C523 1.410 . S
C524 C525 1.392 . S
C524 C527 1.511 . S
C525 C521 1.376 . S
C525 C524 1.392 . S
C525 H537 0.929 . S
C526 C522 1.531 . S
C526 H538 0.960 . S
C526 H539 0.962 . S
C526 H540 0.960 . S
C527 C524 1.511 . S
C527 H541 0.961 . S
C527 H542 0.961 . S
C527 H543 0.961 . S
C528 C529 1.370 . S
C528 C530 1.363 . S
C528 H544 0.931 . S
C529 C528 1.370 . S
C529 C533 1.408 . S
C530 C528 1.363 . S
C530 C531 1.370 . S
C530 C534 1.524 . S
C531 C523 1.503 . S
C531 C530 1.370 . S
C531 C532 1.403 . S
C532 C531 1.403 . S
C532 C533 1.404 . S
C532 C535 1.539 . S
C533 C529 1.408 . S
C533 C532 1.404 . S
C533 H545 0.930 . S
C534 C530 1.524 . S
C534 H546 0.956 . S
C534 H547 0.961 . S
C534 H548 0.961 . S
C535 C532 1.539 . S
C535 H549 0.958 . S
C535 H550 0.961 . S
C535 H551 0.960 . S
H536 C520 0.931 . S
H537 C525 0.929 . S
H538 C526 0.960 . S
H539 C526 0.962 . S
H540 C526 0.960 . S
H541 C527 0.961 . S
H542 C527 0.961 . S
H543 C527 0.961 . S
H544 C528 0.931 . S
H545 C533 0.930 . S
H546 C534 0.956 . S
H547 C534 0.961 . S
H548 C534 0.961 . S
H549 C535 0.958 . S
H550 C535 0.961 . S
H551 C535 0.960 . S
C552 C553 1.391 . S
C552 C554 1.394 . S
C552 H568 0.931 1_556 S
C553 C552 1.391 . S
C553 C557 1.376 . S
C554 C552 1.394 . S
C554 C555 1.369 . S
C554 C558 1.531 1_556 S
C555 C554 1.369 . S
C555 C556 1.410 . S
C555 C563 1.503 . S
C556 C555 1.410 . S
C556 C557 1.392 . S
C556 C559 1.511 . S
C557 C553 1.376 . S
C557 C556 1.392 . S
C557 H569 0.929 . S
C558 C554 1.531 1_554 S
C558 H570 0.960 1_554 S
C558 H571 0.962 1_554 S
C558 H572 0.960 . S
C559 C556 1.511 . S
C559 H573 0.961 . S
C559 H574 0.961 . S
C559 H575 0.961 1_655 S
C560 C561 1.364 1_655 S
C560 C562 1.363 . S
C560 H576 0.931 . S
C561 C560 1.364 1_455 S
C561 C565 1.413 . S
C562 C560 1.363 . S
C562 C563 1.370 . S
C562 C566 1.524 . S
C563 C555 1.503 . S
C563 C562 1.370 . S
C563 C564 1.403 1_655 S
C564 C563 1.403 1_455 S
C564 C565 1.404 . S
C564 C567 1.539 . S
C565 C561 1.413 . S
C565 C564 1.404 . S
C565 H577 0.930 . S
C566 C562 1.524 . S
C566 H578 0.956 . S
C566 H579 0.961 . S
C566 H580 0.961 . S
C567 C564 1.539 . S
C567 H581 0.958 . S
C567 H582 0.961 . S
C567 H583 0.960 . S
H568 C552 0.931 1_554 S
H569 C557 0.929 . S
H570 C558 0.960 1_556 S
H571 C558 0.962 1_556 S
H572 C558 0.960 . S
H573 C559 0.961 . S
H574 C559 0.961 . S
H575 C559 0.961 1_455 S
H576 C560 0.931 . S
H577 C565 0.930 . S
H578 C566 0.956 . S
H579 C566 0.961 . S
H580 C566 0.961 . S
H581 C567 0.958 . S
H582 C567 0.961 . S
H583 C567 0.960 . S
C584 C585 1.391 . S
C584 C586 1.394 . S
C584 H600 0.931 1_556 S
C585 C584 1.391 . S
C585 C589 1.376 1_545 S
C586 C584 1.394 . S
C586 C587 1.369 . S
C586 C590 1.531 . S
C587 C586 1.369 . S
C587 C588 1.410 1_545 S
C587 C595 1.503 . S
C588 C587 1.410 1_565 S
C588 C589 1.392 . S
C588 C591 1.511 . S
C589 C585 1.376 1_565 S
C589 C588 1.392 . S
C589 H601 0.929 . S
C590 C586 1.531 . S
C590 H602 0.960 . S
C590 H603 0.962 1_556 S
C590 H604 0.960 1_556 S
C591 C588 1.511 . S
C591 H605 0.961 . S
C591 H606 0.961 . S
C591 H607 0.961 . S
C592 C593 1.370 1_565 S
C592 C594 1.363 . S
C592 H608 0.931 . S
C593 C592 1.370 1_545 S
C593 C597 1.408 . S
C594 C592 1.363 . S
C594 C595 1.370 1_565 S
C594 C598 1.524 . S
C595 C587 1.503 . S
C595 C594 1.370 1_545 S
C595 C596 1.403 . S
C596 C595 1.403 . S
C596 C597 1.404 . S
C596 C599 1.539 . S
C597 C593 1.408 . S
C597 C596 1.404 . S
C597 H609 0.930 . S
C598 C594 1.524 . S
C598 H610 0.956 . S
C598 H611 0.961 . S
C598 H612 0.961 . S
C599 C596 1.539 . S
C599 H613 0.958 . S
C599 H614 0.961 . S
C599 H615 0.960 . S
H600 C584 0.931 1_554 S
H601 C589 0.929 . S
H602 C590 0.960 . S
H603 C590 0.962 1_554 S
H604 C590 0.960 1_554 S
H605 C591 0.961 . S
H606 C591 0.961 . S
H607 C591 0.961 . S
H608 C592 0.931 . S
H609 C597 0.930 . S
H610 C598 0.956 . S
H611 C598 0.961 . S
H612 C598 0.961 . S
H613 C599 0.958 . S
H614 C599 0.961 . S
H615 C599 0.960 . S
C616 C617 1.391 . S
C616 C618 1.394 . S
C616 H632 0.931 . S
C617 C616 1.391 . S
C617 C621 1.376 . S
C618 C616 1.394 . S
C618 C619 1.369 . S
C618 C622 1.531 . S
C619 C618 1.369 . S
C619 C620 1.410 . S
C619 C627 1.503 . S
C620 C619 1.410 . S
C620 C621 1.392 . S
C620 C623 1.511 . S
C621 C617 1.376 . S
C621 C620 1.392 . S
C621 H633 0.929 1_556 S
C622 C618 1.531 . S
C622 H634 0.960 . S
C622 H635 0.962 . S
C622 H636 0.960 . S
C623 C620 1.511 . S
C623 H637 0.961 1_556 S
C623 H638 0.961 . S
C623 H639 0.961 . S
C624 C625 1.370 . S
C624 C626 1.363 . S
C624 H640 0.931 . S
C625 C624 1.370 . S
C625 C629 1.408 . S
C626 C624 1.363 . S
C626 C627 1.370 . S
C626 C630 1.524 . S
C627 C619 1.503 . S
C627 C626 1.370 . S
C627 C628 1.403 . S
C628 C627 1.403 . S
C628 C629 1.404 . S
C628 C631 1.539 . S
C629 C625 1.408 . S
C629 C628 1.404 . S
C629 H641 0.930 . S
C630 C626 1.524 . S
C630 H642 0.956 . S
C630 H643 0.961 . S
C630 H644 0.961 . S
C631 C628 1.539 . S
C631 H645 0.958 . S
C631 H646 0.961 . S
C631 H647 0.960 . S
H632 C616 0.931 . S
H633 C621 0.929 1_554 S
H634 C622 0.960 . S
H635 C622 0.962 . S
H636 C622 0.960 . S
H637 C623 0.961 1_554 S
H638 C623 0.961 . S
H639 C623 0.961 . S
H640 C624 0.931 . S
H641 C629 0.930 . S
H642 C630 0.956 . S
H643 C630 0.961 . S
H644 C630 0.961 . S
H645 C631 0.958 . S
H646 C631 0.961 . S
H647 C631 0.960 . S
C648 C649 1.391 . S
C648 C650 1.394 . S
C648 H664 0.931 . S
C649 C648 1.391 . S
C649 C653 1.376 . S
C650 C648 1.394 . S
C650 C651 1.369 . S
C650 C654 1.531 . S
C651 C650 1.369 . S
C651 C652 1.410 . S
C651 C659 1.503 . S
C652 C651 1.410 . S
C652 C653 1.392 . S
C652 C655 1.511 . S
C653 C649 1.376 . S
C653 C652 1.392 . S
C653 H665 0.929 1_556 S
C654 C650 1.531 . S
C654 H666 0.960 . S
C654 H667 0.962 . S
C654 H668 0.960 . S
C655 C652 1.511 . S
C655 H669 0.961 1_556 S
C655 H670 0.961 . S
C655 H671 0.961 . S
C656 C657 1.370 . S
C656 C658 1.363 . S
C656 H672 0.931 . S
C657 C656 1.370 . S
C657 C661 1.408 . S
C658 C656 1.363 . S
C658 C659 1.370 . S
C658 C662 1.524 . S
C659 C651 1.503 . S
C659 C658 1.370 . S
C659 C660 1.403 . S
C660 C659 1.403 . S
C660 C661 1.404 . S
C660 C663 1.539 . S
C661 C657 1.408 . S
C661 C660 1.404 . S
C661 H673 0.930 . S
C662 C658 1.524 . S
C662 H674 0.956 . S
C662 H675 0.961 . S
C662 H676 0.961 . S
C663 C660 1.539 . S
C663 H677 0.958 . S
C663 H678 0.961 . S
C663 H679 0.960 . S
H664 C648 0.931 . S
H665 C653 0.929 1_554 S
H666 C654 0.960 . S
H667 C654 0.962 . S
H668 C654 0.960 . S
H669 C655 0.961 1_554 S
H670 C655 0.961 . S
H671 C655 0.961 . S
H672 C656 0.931 . S
H673 C661 0.930 . S
H674 C662 0.956 . S
H675 C662 0.961 . S
H676 C662 0.961 . S
H677 C663 0.958 . S
H678 C663 0.961 . S
H679 C663 0.960 . S
C680 C681 1.387 1_556 S
C680 C682 1.394 . S
C680 H696 0.931 . S
C681 C680 1.387 1_554 S
C681 C685 1.375 1_554 S
C682 C680 1.394 . S
C682 C683 1.369 . S
C682 C686 1.531 1_455 S
C683 C682 1.369 . S
C683 C684 1.410 . S
C683 C691 1.503 . S
C684 C683 1.410 . S
C684 C685 1.392 . S
C684 C687 1.511 . S
C685 C681 1.375 1_556 S
C685 C684 1.392 . S
C685 H697 0.929 1_556 S
C686 C682 1.531 1_655 S
C686 H698 0.960 . S
C686 H699 0.962 . S
C686 H700 0.960 . S
C687 C684 1.511 . S
C687 H701 0.961 . S
C687 H702 0.961 . S
C687 H703 0.961 . S
C688 C689 1.370 . S
C688 C690 1.363 . S
C688 H704 0.931 . S
C689 C688 1.370 . S
C689 C693 1.408 . S
C690 C688 1.363 . S
C690 C691 1.370 . S
C690 C694 1.524 1_556 S
C691 C683 1.503 . S
C691 C690 1.370 . S
C691 C692 1.403 . S
C692 C691 1.403 . S
C692 C693 1.404 . S
C692 C695 1.539 . S
C693 C689 1.408 . S
C693 C692 1.404 . S
C693 H705 0.930 . S
C694 C690 1.524 1_554 S
C694 H706 0.956 . S
C694 H707 0.961 . S
C694 H708 0.961 . S
C695 C692 1.539 . S
C695 H709 0.958 . S
C695 H710 0.961 . S
C695 H711 0.960 . S
H696 C680 0.931 . S
H697 C685 0.929 1_554 S
H698 C686 0.960 . S
H699 C686 0.962 . S
H700 C686 0.960 . S
H701 C687 0.961 . S
H702 C687 0.961 . S
H703 C687 0.961 . S
H704 C688 0.931 . S
H705 C693 0.930 . S
H706 C694 0.956 . S
H707 C694 0.961 . S
H708 C694 0.961 . S
H709 C695 0.958 . S
H710 C695 0.961 . S
H711 C695 0.960 . S
C712 C713 1.391 1_556 S
C712 C714 1.394 . S
C712 H728 0.931 . S
C713 C712 1.391 1_554 S
C713 C717 1.376 1_545 S
C714 C712 1.394 . S
C714 C715 1.369 . S
C714 C718 1.531 . S
C715 C714 1.369 . S
C715 C716 1.410 1_546 S
C715 C723 1.503 . S
C716 C715 1.410 1_564 S
C716 C717 1.392 . S
C716 C719 1.511 . S
C717 C713 1.376 1_565 S
C717 C716 1.392 . S
C717 H729 0.929 . S
C718 C714 1.531 . S
C718 H730 0.960 . S
C718 H731 0.962 . S
C718 H732 0.960 . S
C719 C716 1.511 . S
C719 H733 0.961 . S
C719 H734 0.961 1_554 S
C719 H735 0.961 . S
C720 C721 1.370 1_565 S
C720 C722 1.363 . S
C720 H736 0.931 . S
C721 C720 1.370 1_545 S
C721 C725 1.408 . S
C722 C720 1.363 . S
C722 C723 1.370 1_565 S
C722 C726 1.524 . S
C723 C715 1.503 . S
C723 C722 1.370 1_545 S
C723 C724 1.403 . S
C724 C723 1.403 . S
C724 C725 1.404 . S
C724 C727 1.539 . S
C725 C721 1.408 . S
C725 C724 1.404 . S
C725 H737 0.930 . S
C726 C722 1.524 . S
C726 H738 0.956 . S
C726 H739 0.961 . S
C726 H740 0.961 . S
C727 C724 1.539 . S
C727 H741 0.958 . S
C727 H742 0.961 . S
C727 H743 0.960 1_556 S
H728 C712 0.931 . S
H729 C717 0.929 . S
H730 C718 0.960 . S
H731 C718 0.962 . S
H732 C718 0.960 . S
H733 C719 0.961 . S
H734 C719 0.961 1_556 S
H735 C719 0.961 . S
H736 C720 0.931 . S
H737 C725 0.930 . S
H738 C726 0.956 . S
H739 C726 0.961 . S
H740 C726 0.961 . S
H741 C727 0.958 . S
H742 C727 0.961 . S
H743 C727 0.960 1_554 S
C744 C745 1.391 . S
C744 C746 1.394 1_554 S
C744 H760 0.931 . S
C745 C744 1.391 . S
C745 C749 1.376 1_554 S
C746 C744 1.394 1_556 S
C746 C747 1.369 . S
C746 C750 1.531 1_556 S
C747 C746 1.369 . S
C747 C748 1.410 . S
C747 C755 1.503 . S
C748 C747 1.410 . S
C748 C749 1.392 . S
C748 C751 1.511 . S
C749 C745 1.376 1_556 S
C749 C748 1.392 . S
C749 H761 0.929 . S
C750 C746 1.531 1_554 S
C750 H762 0.960 1_554 S
C750 H763 0.962 . S
C750 H764 0.960 . S
C751 C748 1.511 . S
C751 H765 0.961 . S
C751 H766 0.961 . S
C751 H767 0.961 . S
C752 C753 1.370 . S
C752 C754 1.363 . S
C752 H768 0.931 . S
C753 C752 1.370 . S
C753 C757 1.408 . S
C754 C752 1.363 . S
C754 C755 1.370 . S
C754 C758 1.524 . S
C755 C747 1.503 . S
C755 C754 1.370 . S
C755 C756 1.403 . S
C756 C755 1.403 . S
C756 C757 1.404 . S
C756 C759 1.539 . S
C757 C753 1.408 . S
C757 C756 1.404 . S
C757 H769 0.930 . S
C758 C754 1.524 . S
C758 H770 0.956 . S
C758 H771 0.961 . S
C758 H772 0.961 . S
C759 C756 1.539 . S
C759 H773 0.958 . S
C759 H774 0.961 . S
C759 H775 0.960 . S
H760 C744 0.931 . S
H761 C749 0.929 . S
H762 C750 0.960 1_556 S
H763 C750 0.962 . S
H764 C750 0.960 . S
H765 C751 0.961 . S
H766 C751 0.961 . S
H767 C751 0.961 . S
H768 C752 0.931 . S
H769 C757 0.930 . S
H770 C758 0.956 . S
H771 C758 0.961 . S
H772 C758 0.961 . S
H773 C759 0.958 . S
H774 C759 0.961 . S
H775 C759 0.960 . S
C776 C777 1.391 . S
C776 C778 1.394 1_554 S
C776 H792 0.931 . S
C777 C776 1.391 . S
C777 C781 1.376 1_554 S
C778 C776 1.394 1_556 S
C778 C779 1.369 . S
C778 C782 1.531 1_556 S
C779 C778 1.369 . S
C779 C780 1.410 . S
C779 C787 1.503 . S
C780 C779 1.410 . S
C780 C781 1.392 . S
C780 C783 1.511 . S
C781 C777 1.376 1_556 S
C781 C780 1.392 . S
C781 H793 0.929 . S
C782 C778 1.531 1_554 S
C782 H794 0.960 . S
C782 H795 0.962 1_554 S
C782 H796 0.960 . S
C783 C780 1.511 . S
C783 H797 0.961 . S
C783 H798 0.961 . S
C783 H799 0.961 . S
C784 C785 1.370 . S
C784 C786 1.363 . S
C784 H800 0.931 . S
C785 C784 1.370 . S
C785 C789 1.408 . S
C786 C784 1.363 . S
C786 C787 1.370 . S
C786 C790 1.524 . S
C787 C779 1.503 . S
C787 C786 1.370 . S
C787 C788 1.403 . S
C788 C787 1.403 . S
C788 C789 1.404 . S
C788 C791 1.539 . S
C789 C785 1.408 . S
C789 C788 1.404 . S
C789 H801 0.930 . S
C790 C786 1.524 . S
C790 H802 0.956 . S
C790 H803 0.961 . S
C790 H804 0.961 . S
C791 C788 1.539 . S
C791 H805 0.958 1_556 S
C791 H806 0.961 . S
C791 H807 0.960 . S
H792 C776 0.931 . S
H793 C781 0.929 . S
H794 C782 0.960 . S
H795 C782 0.962 1_556 S
H796 C782 0.960 . S
H797 C783 0.961 . S
H798 C783 0.961 . S
H799 C783 0.961 . S
H800 C784 0.931 . S
H801 C789 0.930 . S
H802 C790 0.956 . S
H803 C790 0.961 . S
H804 C790 0.961 . S
H805 C791 0.958 1_554 S
H806 C791 0.961 . S
H807 C791 0.960 . S
C808 C809 1.391 . S
C808 C810 1.394 . S
C808 H824 0.931 . S
C809 C808 1.391 . S
C809 C813 1.376 . S
C810 C808 1.394 . S
C810 C811 1.369 . S
C810 C814 1.531 . S
C811 C810 1.369 . S
C811 C812 1.410 . S
C811 C819 1.503 . S
C812 C811 1.410 . S
C812 C813 1.392 . S
C812 C815 1.511 . S
C813 C809 1.376 . S
C813 C812 1.392 . S
C813 H825 0.929 . S
C814 C810 1.531 . S
C814 H826 0.960 . S
C814 H827 0.962 . S
C814 H828 0.960 . S
C815 C812 1.511 . S
C815 H829 0.961 . S
C815 H830 0.961 . S
C815 H831 0.961 . S
C816 C817 1.370 . S
C816 C818 1.363 . S
C816 H832 0.931 1_655 S
C817 C816 1.370 . S
C817 C821 1.408 . S
C818 C816 1.363 . S
C818 C819 1.370 . S
C818 C822 1.524 1_655 S
C819 C811 1.503 . S
C819 C818 1.370 . S
C819 C820 1.403 . S
C820 C819 1.403 . S
C820 C821 1.404 . S
C820 C823 1.539 . S
C821 C817 1.408 . S
C821 C820 1.404 . S
C821 H833 0.930 . S
C822 C818 1.524 1_455 S
C822 H834 0.956 . S
C822 H835 0.961 . S
C822 H836 0.961 . S
C823 C820 1.539 . S
C823 H837 0.958 . S
C823 H838 0.961 . S
C823 H839 0.960 . S
H824 C808 0.931 . S
H825 C813 0.929 . S
H826 C814 0.960 . S
H827 C814 0.962 . S
H828 C814 0.960 . S
H829 C815 0.961 . S
H830 C815 0.961 . S
H831 C815 0.961 . S
H832 C816 0.931 1_455 S
H833 C821 0.930 . S
H834 C822 0.956 . S
H835 C822 0.961 . S
H836 C822 0.961 . S
H837 C823 0.958 . S
H838 C823 0.961 . S
H839 C823 0.960 . S
C840 C841 1.391 . S
C840 C842 1.394 . S
C840 H856 0.931 . S
C841 C840 1.391 . S
C841 C845 1.376 1_565 S
C842 C840 1.394 . S
C842 C843 1.369 . S
C842 C846 1.531 . S
C843 C842 1.369 . S
C843 C844 1.410 1_565 S
C843 C851 1.503 . S
C844 C843 1.410 1_545 S
C844 C845 1.392 . S
C844 C847 1.511 . S
C845 C841 1.376 1_545 S
C845 C844 1.392 . S
C845 H857 0.929 . S
C846 C842 1.531 . S
C846 H858 0.960 . S
C846 H859 0.962 . S
C846 H860 0.960 . S
C847 C844 1.511 . S
C847 H861 0.961 . S
C847 H862 0.961 . S
C847 H863 0.961 . S
C848 C849 1.370 1_545 S
C848 C850 1.363 . S
C848 H864 0.931 . S
C849 C848 1.370 1_565 S
C849 C853 1.408 . S
C850 C848 1.363 . S
C850 C851 1.370 1_545 S
C850 C854 1.524 . S
C851 C843 1.503 . S
C851 C850 1.370 1_565 S
C851 C852 1.403 . S
C852 C851 1.403 . S
C852 C853 1.404 . S
C852 C855 1.539 . S
C853 C849 1.408 . S
C853 C852 1.404 . S
C853 H865 0.930 . S
C854 C850 1.524 . S
C854 H866 0.956 . S
C854 H867 0.961 . S
C854 H868 0.961 . S
C855 C852 1.539 . S
C855 H869 0.958 . S
C855 H870 0.961 . S
C855 H871 0.960 . S
H856 C840 0.931 . S
H857 C845 0.929 . S
H858 C846 0.960 . S
H859 C846 0.962 . S
H860 C846 0.960 . S
H861 C847 0.961 . S
H862 C847 0.961 . S
H863 C847 0.961 . S
H864 C848 0.931 . S
H865 C853 0.930 . S
H866 C854 0.956 . S
H867 C854 0.961 . S
H868 C854 0.961 . S
H869 C855 0.958 . S
H870 C855 0.961 . S
H871 C855 0.960 . S
C872 C873 1.391 . S
C872 C874 1.394 . S
C872 H888 0.931 . S
C873 C872 1.391 . S
C873 C877 1.376 . S
C874 C872 1.394 . S
C874 C875 1.369 . S
C874 C878 1.531 . S
C875 C874 1.369 . S
C875 C876 1.410 . S
C875 C883 1.503 . S
C876 C875 1.410 . S
C876 C877 1.392 . S
C876 C879 1.511 . S
C877 C873 1.376 . S
C877 C876 1.392 . S
C877 H889 0.929 . S
C878 C874 1.531 . S
C878 H890 0.960 . S
C878 H891 0.962 . S
C878 H892 0.960 . S
C879 C876 1.511 . S
C879 H893 0.961 . S
C879 H894 0.961 . S
C879 H895 0.961 . S
C880 C881 1.370 . S
C880 C882 1.363 . S
C880 H896 0.931 . S
C881 C880 1.370 . S
C881 C885 1.408 . S
C882 C880 1.363 . S
C882 C883 1.370 . S
C882 C886 1.524 . S
C883 C875 1.503 . S
C883 C882 1.370 . S
C883 C884 1.403 . S
C884 C883 1.403 . S
C884 C885 1.404 . S
C884 C887 1.539 . S
C885 C881 1.408 . S
C885 C884 1.404 . S
C885 H897 0.930 . S
C886 C882 1.524 . S
C886 H898 0.956 . S
C886 H899 0.961 . S
C886 H900 0.961 . S
C887 C884 1.539 . S
C887 H901 0.958 . S
C887 H902 0.961 . S
C887 H903 0.960 . S
H888 C872 0.931 . S
H889 C877 0.929 . S
H890 C878 0.960 . S
H891 C878 0.962 . S
H892 C878 0.960 . S
H893 C879 0.961 . S
H894 C879 0.961 . S
H895 C879 0.961 . S
H896 C880 0.931 . S
H897 C885 0.930 . S
H898 C886 0.956 . S
H899 C886 0.961 . S
H900 C886 0.961 . S
H901 C887 0.958 . S
H902 C887 0.961 . S
H903 C887 0.960 . S
C904 C905 1.391 . S
C904 C906 1.394 . S
C904 H920 0.931 . S
C905 C904 1.391 . S
C905 C909 1.376 . S
C906 C904 1.394 . S
C906 C907 1.369 . S
C906 C910 1.531 . S
C907 C906 1.369 . S
C907 C908 1.410 . S
C907 C915 1.503 . S
C908 C907 1.410 . S
C908 C909 1.392 . S
C908 C911 1.511 . S
C909 C905 1.376 . S
C909 C908 1.392 . S
C909 H921 0.929 . S
C910 C906 1.531 . S
C910 H922 0.960 . S
C910 H923 0.962 . S
C910 H924 0.960 . S
C911 C908 1.511 . S
C911 H925 0.961 . S
C911 H926 0.961 . S
C911 H927 0.961 . S
C912 C913 1.370 . S
C912 C914 1.363 . S
C912 H928 0.931 . S
C913 C912 1.370 . S
C913 C917 1.408 . S
C914 C912 1.363 . S
C914 C915 1.370 . S
C914 C918 1.524 . S
C915 C907 1.503 . S
C915 C914 1.370 . S
C915 C916 1.403 . S
C916 C915 1.403 . S
C916 C917 1.404 . S
C916 C919 1.539 . S
C917 C913 1.408 . S
C917 C916 1.404 . S
C917 H929 0.930 . S
C918 C914 1.524 . S
C918 H930 0.956 . S
C918 H931 0.961 . S
C918 H932 0.961 . S
C919 C916 1.539 . S
C919 H933 0.958 . S
C919 H934 0.961 . S
C919 H935 0.960 . S
H920 C904 0.931 . S
H921 C909 0.929 . S
H922 C910 0.960 . S
H923 C910 0.962 . S
H924 C910 0.960 . S
H925 C911 0.961 . S
H926 C911 0.961 . S
H927 C911 0.961 . S
H928 C912 0.931 . S
H929 C917 0.930 . S
H930 C918 0.956 . S
H931 C918 0.961 . S
H932 C918 0.961 . S
H933 C919 0.958 . S
H934 C919 0.961 . S
H935 C919 0.960 . S
C169 C76 1.473 1_545 S
C177 C106 1.474 . S
C209 C126 1.564 . S
C201 C87 1.511 . S
C241 C146 1.467 . S
C233 C54 1.456 . S
C273 C166 1.562 . S
C265 C65 1.511 . S
C305 C107 1.466 . S
C297 C32 1.458 1_545 S
C329 C43 1.508 . S
C337 C127 1.562 . S
C361 C10 1.470 . S
C369 C147 1.459 . S
C393 C21 1.563 . S
C401 C167 1.547 1_655 S
C433 C97 0.844 . S
C425 C60 0.832 . S
C465 C117 0.825 . S
C457 C71 0.880 1_565 S
C497 C137 0.880 . S
C489 C82 0.836 . S
C521 C49 0.822 . S
C529 C157 0.825 . S
C553 C16 0.812 . S
C561 C100 0.875 1_455 S
C593 C120 0.834 . S
C585 C27 0.858 . S
C625 C140 0.828 . S
C617 C38 0.911 . S
C649 C5 0.882 . S
C657 C160 0.810 . S
C681 C59 1.589 . S
C689 C90 1.486 . S
C713 C70 1.475 . S
C721 C110 1.471 . S
C753 C130 1.477 . S
C745 C81 1.558 . S
C785 C150 1.448 . S
C777 C48 1.468 . S
C809 C15 1.565 . S
C817 C92 1.500 . S
C849 C112 1.448 . S
C841 C26 1.519 1_565 S
C881 C132 1.476 . S
C873 C37 1.569 . S
C905 C4 1.516 . S
C913 C152 1.442 . S
