# Generated by pormake.
# Topology ptr, (4,4)-cn, num edge types: 1
# Building blocks:
#     Node 0, Type 0, BuildingBlock: GALJAG_clean_sbu_0, # of connection points: 4
#     Node 1, Type 0, BuildingBlock: GALJAG_clean_sbu_0, # of connection points: 4
#     Node 2, Type 0, BuildingBlock: GALJAG_clean_sbu_0, # of connection points: 4
#     Node 3, Type 0, BuildingBlock: GALJAG_clean_sbu_0, # of connection points: 4
#     Node 4, Type 0, BuildingBlock: GALJAG_clean_sbu_0, # of connection points: 4
#     Node 5, Type 0, BuildingBlock: GALJAG_clean_sbu_0, # of connection points: 4
#     Node 6, Type 0, BuildingBlock: GALJAG_clean_sbu_0, # of connection points: 4
#     Node 7, Type 0, BuildingBlock: GALJAG_clean_sbu_0, # of connection points: 4
#     Node 8, Type 0, BuildingBlock: GALJAG_clean_sbu_0, # of connection points: 4
#     Node 9, Type 0, BuildingBlock: GALJAG_clean_sbu_0, # of connection points: 4
#     Node 10, Type 0, BuildingBlock: GALJAG_clean_sbu_0, # of connection points: 4
#     Node 11, Type 0, BuildingBlock: GALJAG_clean_sbu_0, # of connection points: 4
#     Node 12, Type 0, BuildingBlock: GALJAG_clean_sbu_0, # of connection points: 4
#     Node 13, Type 0, BuildingBlock: GALJAG_clean_sbu_0, # of connection points: 4
#     Node 14, Type 0, BuildingBlock: GALJAG_clean_sbu_0, # of connection points: 4
#     Node 15, Type 0, BuildingBlock: GALJAG_clean_sbu_0, # of connection points: 4
#     Node 16, Type 0, BuildingBlock: GALJAG_clean_sbu_0, # of connection points: 4
#     Node 17, Type 0, BuildingBlock: GALJAG_clean_sbu_0, # of connection points: 4
#     Node 18, Type 1, BuildingBlock: MUDLON_clean_linker_0, # of connection points: 4
#     Node 19, Type 1, BuildingBlock: MUDLON_clean_linker_0, # of connection points: 4
#     Node 20, Type 1, BuildingBlock: MUDLON_clean_linker_0, # of connection points: 4
#     Node 21, Type 1, BuildingBlock: MUDLON_clean_linker_0, # of connection points: 4
#     Node 22, Type 1, BuildingBlock: MUDLON_clean_linker_0, # of connection points: 4
#     Node 23, Type 1, BuildingBlock: MUDLON_clean_linker_0, # of connection points: 4
#     Node 24, Type 1, BuildingBlock: MUDLON_clean_linker_0, # of connection points: 4
#     Node 25, Type 1, BuildingBlock: MUDLON_clean_linker_0, # of connection points: 4
#     Node 26, Type 1, BuildingBlock: MUDLON_clean_linker_0, # of connection points: 4
#     Node 27, Type 1, BuildingBlock: MUDLON_clean_linker_0, # of connection points: 4
#     Node 28, Type 1, BuildingBlock: MUDLON_clean_linker_0, # of connection points: 4
#     Node 29, Type 1, BuildingBlock: MUDLON_clean_linker_0, # of connection points: 4
#     Node 30, Type 1, BuildingBlock: MUDLON_clean_linker_0, # of connection points: 4
#     Node 31, Type 1, BuildingBlock: MUDLON_clean_linker_0, # of connection points: 4
#     Node 32, Type 1, BuildingBlock: MUDLON_clean_linker_0, # of connection points: 4
#     Node 33, Type 1, BuildingBlock: MUDLON_clean_linker_0, # of connection points: 4
#     Node 34, Type 1, BuildingBlock: MUDLON_clean_linker_0, # of connection points: 4
#     Node 35, Type 1, BuildingBlock: MUDLON_clean_linker_0, # of connection points: 4
#     Edge 36, Type (0, 1), BuildingBlock: OJICUG_clean_linker_0, # of connection points: 2
#     Edge 37, Type (0, 1), BuildingBlock: OJICUG_clean_linker_0, # of connection points: 2
#     Edge 38, Type (0, 1), BuildingBlock: OJICUG_clean_linker_0, # of connection points: 2
#     Edge 39, Type (0, 1), BuildingBlock: OJICUG_clean_linker_0, # of connection points: 2
#     Edge 40, Type (0, 1), BuildingBlock: OJICUG_clean_linker_0, # of connection points: 2
#     Edge 41, Type (0, 1), BuildingBlock: OJICUG_clean_linker_0, # of connection points: 2
#     Edge 42, Type (0, 1), BuildingBlock: OJICUG_clean_linker_0, # of connection points: 2
#     Edge 43, Type (0, 1), BuildingBlock: OJICUG_clean_linker_0, # of connection points: 2
#     Edge 44, Type (0, 1), BuildingBlock: OJICUG_clean_linker_0, # of connection points: 2
#     Edge 45, Type (0, 1), BuildingBlock: OJICUG_clean_linker_0, # of connection points: 2
#     Edge 46, Type (0, 1), BuildingBlock: OJICUG_clean_linker_0, # of connection points: 2
#     Edge 47, Type (0, 1), BuildingBlock: OJICUG_clean_linker_0, # of connection points: 2
#     Edge 48, Type (0, 1), BuildingBlock: OJICUG_clean_linker_0, # of connection points: 2
#     Edge 49, Type (0, 1), BuildingBlock: OJICUG_clean_linker_0, # of connection points: 2
#     Edge 50, Type (0, 1), BuildingBlock: OJICUG_clean_linker_0, # of connection points: 2
#     Edge 51, Type (0, 1), BuildingBlock: OJICUG_clean_linker_0, # of connection points: 2
#     Edge 52, Type (0, 1), BuildingBlock: OJICUG_clean_linker_0, # of connection points: 2
#     Edge 53, Type (0, 1), BuildingBlock: OJICUG_clean_linker_0, # of connection points: 2
#     Edge 54, Type (0, 1), BuildingBlock: OJICUG_clean_linker_0, # of connection points: 2
#     Edge 55, Type (0, 1), BuildingBlock: OJICUG_clean_linker_0, # of connection points: 2
#     Edge 56, Type (0, 1), BuildingBlock: OJICUG_clean_linker_0, # of connection points: 2
#     Edge 57, Type (0, 1), BuildingBlock: OJICUG_clean_linker_0, # of connection points: 2
#     Edge 58, Type (0, 1), BuildingBlock: OJICUG_clean_linker_0, # of connection points: 2
#     Edge 59, Type (0, 1), BuildingBlock: OJICUG_clean_linker_0, # of connection points: 2
#     Edge 60, Type (0, 1), BuildingBlock: OJICUG_clean_linker_0, # of connection points: 2
#     Edge 61, Type (0, 1), BuildingBlock: OJICUG_clean_linker_0, # of connection points: 2
#     Edge 62, Type (0, 1), BuildingBlock: OJICUG_clean_linker_0, # of connection points: 2
#     Edge 63, Type (0, 1), BuildingBlock: OJICUG_clean_linker_0, # of connection points: 2
#     Edge 64, Type (0, 1), BuildingBlock: OJICUG_clean_linker_0, # of connection points: 2
#     Edge 65, Type (0, 1), BuildingBlock: OJICUG_clean_linker_0, # of connection points: 2
#     Edge 66, Type (0, 1), BuildingBlock: OJICUG_clean_linker_0, # of connection points: 2
#     Edge 67, Type (0, 1), BuildingBlock: OJICUG_clean_linker_0, # of connection points: 2
#     Edge 68, Type (0, 1), BuildingBlock: OJICUG_clean_linker_0, # of connection points: 2
#     Edge 69, Type (0, 1), BuildingBlock: OJICUG_clean_linker_0, # of connection points: 2
#     Edge 70, Type (0, 1), BuildingBlock: OJICUG_clean_linker_0, # of connection points: 2
#     Edge 71, Type (0, 1), BuildingBlock: OJICUG_clean_linker_0, # of connection points: 2
#     Edge 72, Type (0, 1), BuildingBlock: OJICUG_clean_linker_0, # of connection points: 2
#     Edge 73, Type (0, 1), BuildingBlock: OJICUG_clean_linker_0, # of connection points: 2
#     Edge 74, Type (0, 1), BuildingBlock: OJICUG_clean_linker_0, # of connection points: 2
#     Edge 75, Type (0, 1), BuildingBlock: OJICUG_clean_linker_0, # of connection points: 2
#     Edge 76, Type (0, 1), BuildingBlock: OJICUG_clean_linker_0, # of connection points: 2
#     Edge 77, Type (0, 1), BuildingBlock: OJICUG_clean_linker_0, # of connection points: 2
#     Edge 78, Type (0, 1), BuildingBlock: OJICUG_clean_linker_0, # of connection points: 2
#     Edge 79, Type (0, 1), BuildingBlock: OJICUG_clean_linker_0, # of connection points: 2
#     Edge 80, Type (0, 1), BuildingBlock: OJICUG_clean_linker_0, # of connection points: 2
#     Edge 81, Type (0, 1), BuildingBlock: OJICUG_clean_linker_0, # of connection points: 2
#     Edge 82, Type (0, 1), BuildingBlock: OJICUG_clean_linker_0, # of connection points: 2
#     Edge 83, Type (0, 1), BuildingBlock: OJICUG_clean_linker_0, # of connection points: 2
#     Edge 84, Type (0, 1), BuildingBlock: OJICUG_clean_linker_0, # of connection points: 2
#     Edge 85, Type (0, 1), BuildingBlock: OJICUG_clean_linker_0, # of connection points: 2
#     Edge 86, Type (0, 1), BuildingBlock: OJICUG_clean_linker_0, # of connection points: 2
#     Edge 87, Type (0, 1), BuildingBlock: OJICUG_clean_linker_0, # of connection points: 2
#     Edge 88, Type (0, 1), BuildingBlock: OJICUG_clean_linker_0, # of connection points: 2
#     Edge 89, Type (0, 1), BuildingBlock: OJICUG_clean_linker_0, # of connection points: 2
#     Edge 90, Type (0, 1), BuildingBlock: OJICUG_clean_linker_0, # of connection points: 2
#     Edge 91, Type (0, 1), BuildingBlock: OJICUG_clean_linker_0, # of connection points: 2
#     Edge 92, Type (0, 1), BuildingBlock: OJICUG_clean_linker_0, # of connection points: 2
#     Edge 93, Type (0, 1), BuildingBlock: OJICUG_clean_linker_0, # of connection points: 2
#     Edge 94, Type (0, 1), BuildingBlock: OJICUG_clean_linker_0, # of connection points: 2
#     Edge 95, Type (0, 1), BuildingBlock: OJICUG_clean_linker_0, # of connection points: 2
#     Edge 96, Type (0, 1), BuildingBlock: OJICUG_clean_linker_0, # of connection points: 2
#     Edge 97, Type (0, 1), BuildingBlock: OJICUG_clean_linker_0, # of connection points: 2
#     Edge 98, Type (0, 1), BuildingBlock: OJICUG_clean_linker_0, # of connection points: 2
#     Edge 99, Type (0, 1), BuildingBlock: OJICUG_clean_linker_0, # of connection points: 2
#     Edge 100, Type (0, 1), BuildingBlock: OJICUG_clean_linker_0, # of connection points: 2
#     Edge 101, Type (0, 1), BuildingBlock: OJICUG_clean_linker_0, # of connection points: 2
#     Edge 102, Type (0, 1), BuildingBlock: OJICUG_clean_linker_0, # of connection points: 2
#     Edge 103, Type (0, 1), BuildingBlock: OJICUG_clean_linker_0, # of connection points: 2
#     Edge 104, Type (0, 1), BuildingBlock: OJICUG_clean_linker_0, # of connection points: 2
#     Edge 105, Type (0, 1), BuildingBlock: OJICUG_clean_linker_0, # of connection points: 2
#     Edge 106, Type (0, 1), BuildingBlock: OJICUG_clean_linker_0, # of connection points: 2
#     Edge 107, Type (0, 1), BuildingBlock: OJICUG_clean_linker_0, # of connection points: 2
# Relax obj value: 0.049
# Max RMSD: 0.093
# Mean RMSD: 0.082
data_MOF--net-ptr--node1-GALJAG_clean_sbu_0--node2-MUDLON_clean_linker_0--edge1-OJICUG_clean_linker_0
_symmetry_space_group_name_H-M    P1
_symmetry_Int_Tables_number       1
_symmetry_cell_setting            triclinic
loop_
_symmetry_equiv_pos_as_xyz
'x, y, z'
_cell_length_a     83.314446
_cell_length_b     83.430774
_cell_length_c     52.852323
_cell_angle_alpha  89.978351
_cell_angle_beta   90.046696
_cell_angle_gamma 120.12962
loop_
_atom_site_label
_atom_site_type_symbol
_atom_site_fract_x
_atom_site_fract_y
_atom_site_fract_z
_atom_type_partial_charge
In0 In 0.01196 0.37821 0.01599 0.0
O1 O 0.00434 0.37537 0.05809 0.0
O2 O 0.01023 0.40023 0.03928 0.0
C3 C 0.98573 0.34466 0.99864 0.0
C4 C 0.0439 0.37938 0.02944 0.0
C5 C 0.01156 0.39817 0.97601 0.0
O6 O 0.98271 0.35257 0.01691 0.0
O7 O 0.00197 0.35344 0.98984 0.0
O8 O 0.02475 0.39505 0.97967 0.0
O9 O 0.99905 0.39158 0.99266 0.0
C10 C 0.00618 0.39131 0.05975 0.0
O11 O 0.04317 0.39382 0.0246 0.0
O12 O 0.02879 0.36444 0.02641 0.0
In13 In 0.6507 0.65045 0.01782 0.0
O14 O 0.64601 0.62741 0.0456 0.0
O15 O 0.62928 0.63986 0.04939 0.0
C16 C 0.68158 0.65508 0.99424 0.0
C17 C 0.66222 0.68443 0.03773 0.0
C18 C 0.62571 0.63386 0.98037 0.0
O19 O 0.67809 0.64994 0.01703 0.0
O20 O 0.66961 0.6578 0.98363 0.0
O21 O 0.63335 0.65106 0.98474 0.0
O22 O 0.63032 0.62505 0.99529 0.0
C23 C 0.63326 0.62809 0.05762 0.0
O24 O 0.64823 0.67653 0.02337 0.0
O25 O 0.67034 0.67535 0.04153 0.0
In26 In 0.37396 0.01093 0.01807 0.0
O27 O 0.38033 0.04082 0.01377 0.0
O28 O 0.35986 0.02029 0.98964 0.0
C29 C 0.39532 0.01475 0.05888 0.0
C30 C 0.39101 0.00557 0.97816 0.0
C31 C 0.33992 0.98738 0.03709 0.0
O32 O 0.39162 0.02708 0.05234 0.0
O33 O 0.38857 1.00076 0.04463 0.0
O34 O 0.34864 0.98188 0.02344 0.0
O35 O 0.34826 0.00463 0.04082 0.0
C36 C 0.36889 0.03717 0.99592 0.0
O37 O 0.37565 0.99291 0.98661 0.0
O38 O 0.39786 0.02066 0.99016 0.0
In39 In 0.01164 0.65047 0.01443 0.0
O40 O 0.02758 0.65073 0.97906 0.0
O41 O 0.0032 0.62555 0.98874 0.0
C42 C 0.03802 0.6816 0.03731 0.0
C43 C 0.98726 0.65938 0.9942 0.0
C44 C 0.00589 0.62769 0.05395 0.0
O45 O 0.04187 0.67361 0.02002 0.0
O46 O 0.02101 0.67402 0.04266 0.0
O47 O 0.99517 0.6339 0.04903 0.0
O48 O 0.01916 0.63263 0.03864 0.0
C49 C 0.01652 0.63397 0.97353 0.0
O50 O 0.98197 0.6448 0.00705 0.0
O51 O 0.0046 0.66928 0.99189 0.0
In52 In 0.37512 0.3712 0.02043 0.0
O53 O 0.37782 0.38804 0.98447 0.0
O54 O 0.40085 0.38548 0.99605 0.0
C55 C 0.34279 0.36727 0.0376 0.0
C56 C 0.36661 0.33819 1.00021 0.0
C57 C 0.39592 0.38563 0.0626 0.0
O58 O 0.35537 0.38242 0.02848 0.0
O59 O 0.34656 0.35441 0.03792 0.0
O60 O 0.38702 0.36839 0.05841 0.0
O61 O 0.39429 0.39533 0.04565 0.0
C62 C 0.39429 0.39186 0.98007 0.0
O63 O 0.38097 0.34742 0.0136 0.0
O64 O 0.35669 0.34553 0.99731 0.0
In65 In 0.64647 0.0073 0.01308 0.0
O66 O 0.64175 0.0213 0.04736 0.0
O67 O 0.61895 0.99633 0.03332 0.0
C68 C 0.68069 0.03368 0.99806 0.0
C69 C 0.65366 0.98243 0.03519 0.0
C70 C 0.62633 0.00256 0.9708 0.0
O71 O 0.66988 0.03765 0.00968 0.0
O72 O 0.67433 0.01659 0.99457 0.0
O73 O 0.62659 0.98923 0.98177 0.0
O74 O 0.63614 0.01812 0.98118 0.0
C75 C 0.62489 0.00894 0.04985 0.0
O76 O 0.6487 0.98094 0.01229 0.0
O77 O 0.65508 0.99638 0.04654 0.0
In78 In 0.67866 0.70714 0.34767 0.0
O79 O 0.66029 0.71013 0.37747 0.0
O80 O 0.68902 0.73013 0.37704 0.0
C81 C 0.65229 0.67608 0.32465 0.0
C82 C 0.70193 0.69646 0.36732 0.0
C83 C 0.68632 0.73121 0.30924 0.0
O84 O 0.65054 0.68005 0.34716 0.0
O85 O 0.66719 0.68767 0.31398 0.0
O86 O 0.69667 0.72468 0.31478 0.0
O87 O 0.67229 0.7258 0.32332 0.0
C88 C 0.67345 0.72454 0.3873 0.0
O89 O 0.70779 0.7114 0.35518 0.0
O90 O 0.68453 0.68696 0.36909 0.0
In91 In 0.31451 0.98116 0.35095 0.0
O92 O 0.31641 0.96501 0.38484 0.0
O93 O 0.29023 0.96236 0.3761 0.0
C94 C 0.34767 0.98552 0.33585 0.0
C95 C 0.31778 0.01316 0.36884 0.0
C96 C 0.29133 0.9672 0.31072 0.0
O97 O 0.3323 0.97184 0.32961 0.0
O98 O 0.34643 0.99671 0.35058 0.0
O99 O 0.30116 0.9844 0.31459 0.0
O100 O 0.29293 0.95726 0.32729 0.0
C101 C 0.29942 0.95787 0.39051 0.0
O102 O 0.32193 0.01162 0.34635 0.0
O103 O 0.31166 0.99859 0.38178 0.0
In104 In 0.04274 0.3463 0.35152 0.0
O105 O 0.0456 0.37508 0.35155 0.0
O106 O 0.02732 0.35527 0.32482 0.0
C107 C 0.06316 0.3491 0.3927 0.0
C108 C 0.06397 0.34747 0.31209 0.0
C109 C 0.00994 0.31872 0.36888 0.0
O110 O 0.05926 0.36143 0.38676 0.0
O111 O 0.05701 0.33554 0.37765 0.0
O112 O 0.01937 0.31586 0.35265 0.0
O113 O 0.01688 0.33539 0.3757 0.0
C114 C 0.0345 0.37156 0.33332 0.0
O115 O 0.04743 0.33443 0.31478 0.0
O116 O 0.06977 0.35935 0.32957 0.0
In117 In 0.67929 0.98216 0.34485 0.0
O118 O 0.69823 0.98453 0.31148 0.0
O119 O 0.67122 0.96102 0.31331 0.0
C120 C 0.70589 0.01548 0.36267 0.0
C121 C 0.64932 0.98393 0.32948 0.0
C122 C 0.6751 0.96077 0.38569 0.0
O123 O 0.70855 0.00196 0.35999 0.0
O124 O 0.69011 0.01236 0.35569 0.0
O125 O 0.66883 0.97176 0.38516 0.0
O126 O 0.68282 0.96022 0.36552 0.0
C127 C 0.68634 0.96941 0.30152 0.0
O128 O 0.64788 0.97003 0.34113 0.0
O129 O 0.66575 0.99697 0.32617 0.0
In130 In 0.03987 0.70612 0.35403 0.0
O131 O 0.04318 0.72421 0.31922 0.0
O132 O 0.06648 0.72251 0.33179 0.0
C133 C 0.00703 0.69833 0.37443 0.0
C134 C 0.0312 0.67356 0.33189 0.0
C135 C 0.06111 0.72199 0.39526 0.0
O136 O 0.01604 0.71214 0.36002 0.0
O137 O 0.01457 0.68867 0.37823 0.0
O138 O 0.05868 0.70692 0.38614 0.0
O139 O 0.05286 0.72896 0.38358 0.0
C140 C 0.05999 0.72891 0.31575 0.0
O141 O 0.04356 0.68085 0.34879 0.0
O142 O 0.02325 0.6826 0.32645 0.0
In143 In 0.31351 0.34391 0.34798 0.0
O144 O 0.31045 0.31491 0.35076 0.0
O145 O 0.33269 0.33723 0.37031 0.0
C146 C 0.29168 0.34109 0.30866 0.0
C147 C 0.29308 0.3438 0.38767 0.0
C148 C 0.3451 0.37129 0.32774 0.0
O149 O 0.2962 0.32897 0.31316 0.0
O150 O 0.29785 0.35431 0.32431 0.0
O151 O 0.33968 0.37277 0.34952 0.0
O152 O 0.33478 0.35612 0.31665 0.0
C153 C 0.3243 0.32018 0.3652 0.0
O154 O 0.30868 0.35775 0.38251 0.0
O155 O 0.28793 0.33033 0.3727 0.0
In156 In 0.34988 0.04405 0.67732 0.0
O157 O 0.37857 0.04687 0.68334 0.0
O158 O 0.35581 0.02719 0.70539 0.0
C159 C 0.35428 0.0649 0.63608 0.0
C160 C 0.34751 0.0644 0.71528 0.0
C161 C 0.32553 0.01111 0.65668 0.0
O162 O 0.36735 0.06304 0.64501 0.0
O163 O 0.33919 0.05644 0.64813 0.0
O164 O 0.3205 0.01894 0.67281 0.0
O165 O 0.3426 0.01992 0.65128 0.0
C166 C 0.37286 0.03455 0.70036 0.0
O167 O 0.33458 0.04806 0.71079 0.0
O168 O 0.36106 0.07037 0.70028 0.0
In169 In 0.9806 0.31396 0.68422 0.0
O170 O 0.97513 0.33832 0.68405 0.0
O171 O 0.99346 0.33781 0.71182 0.0
C172 C 0.96175 0.29467 0.64288 0.0
C173 C 0.96018 0.29337 0.72375 0.0
C174 C 0.01502 0.32277 0.66903 0.0
O175 O 0.96542 0.31115 0.6466 0.0
O176 O 0.96736 0.28815 0.66002 0.0
O177 O 0.0045 0.30783 0.68057 0.0
O178 O 0.0083 0.33318 0.66561 0.0
C179 C 0.98553 0.34611 0.70296 0.0
O180 O 0.97703 0.2979 0.72106 0.0
O181 O 0.95375 0.29884 0.70629 0.0
In182 In 0.70522 0.6794 0.68408 0.0
O183 O 0.70716 0.70763 0.67907 0.0
O184 O 0.68876 0.68536 0.6552 0.0
C185 C 0.72828 0.68576 0.7237 0.0
C186 C 0.72256 0.67389 0.64463 0.0
C187 C 0.67235 0.6556 0.70578 0.0
O188 O 0.72644 0.69849 0.7137 0.0
O189 O 0.71878 0.67009 0.71349 0.0
O190 O 0.68051 0.65022 0.6908 0.0
O191 O 0.68072 0.67285 0.70962 0.0
C192 C 0.69545 0.70216 0.66123 0.0
O193 O 0.70795 0.66093 0.65435 0.0
O194 O 0.72856 0.68945 0.65508 0.0
In195 In 0.34768 0.31566 0.6802 0.0
O196 O 0.36544 0.31315 0.64905 0.0
O197 O 0.33683 0.29277 0.65052 0.0
C198 C 0.37242 0.34868 0.70078 0.0
C199 C 0.32151 0.32238 0.66123 0.0
C200 C 0.34369 0.29295 0.71927 0.0
O201 O 0.37643 0.34183 0.68222 0.0
O202 O 0.35592 0.3391 0.70845 0.0
O203 O 0.33119 0.29646 0.71288 0.0
O204 O 0.35801 0.30053 0.7056 0.0
C205 C 0.35216 0.29876 0.63936 0.0
O206 O 0.31805 0.31044 0.67823 0.0
O207 O 0.33824 0.33118 0.65417 0.0
In208 In 0.70723 0.0395 0.68455 0.0
O209 O 0.70773 0.05657 0.65018 0.0
O210 O 0.73208 0.05541 0.65866 0.0
C211 C 0.67326 0.02992 0.70285 0.0
C212 C 0.70319 0.00814 0.66373 0.0
C213 C 0.72789 0.05659 0.72601 0.0
O214 O 0.68272 0.04459 0.6902 0.0
O215 O 0.68092 0.02032 0.70601 0.0
O216 O 0.7218 0.03967 0.72135 0.0
O217 O 0.72375 0.06492 0.70965 0.0
C218 C 0.7242 0.06131 0.64408 0.0
O219 O 0.7159 0.01765 0.67947 0.0
O220 O 0.69251 0.01437 0.65881 0.0
In221 In 0.98265 0.68068 0.68285 0.0
O222 O 0.9781 0.65129 0.68659 0.0
O223 O 0.00216 0.67344 0.70348 0.0
C224 C 0.95857 0.67476 0.64492 0.0
C225 C 0.9662 0.68571 0.72389 0.0
C226 C 0.01458 0.70598 0.66069 0.0
O227 O 0.9617 0.66228 0.65276 0.0
O228 O 0.96718 0.68996 0.65662 0.0
O229 O 0.01078 0.70766 0.68333 0.0
O230 O 0.00245 0.69158 0.64956 0.0
C231 C 0.99262 0.65625 0.69946 0.0
O232 O 0.9786 0.69914 0.71146 0.0
O233 O 0.96207 0.66999 0.71546 0.0
H234 H 0.26209 0.37086 0.16688 0.0
N235 N 0.23305 0.34156 0.1432 0.0
H236 H 0.27479 0.37043 0.20845 0.0
H237 H 0.21983 0.31361 0.17587 0.0
H238 H 0.23241 0.31301 0.21761 0.0
H239 H 0.24361 0.31849 0.12638 0.0
H240 H 0.26919 0.32512 0.09816 0.0
H241 H 0.25363 0.37402 0.11588 0.0
H242 H 0.27839 0.38043 0.08629 0.0
H243 H 0.2386 0.37652 0.15077 0.0
H244 H 0.19743 0.32049 0.1317 0.0
H245 H 0.21527 0.38575 0.14883 0.0
H246 H 0.17343 0.32908 0.13205 0.0
H247 H 0.13096 0.39997 0.18168 0.0
H248 H 0.11406 0.39136 0.22183 0.0
H249 H 0.10018 0.33454 0.21045 0.0
H250 H 0.11713 0.34334 0.17016 0.0
H251 H 0.10248 0.34874 0.1329 0.0
H252 H 0.08247 0.34953 0.10012 0.0
H253 H 0.12404 0.4061 0.08254 0.0
H254 H 0.14349 0.40544 0.11679 0.0
H255 H 0.1675 0.39304 0.17355 0.0
H256 H 0.19137 0.38448 0.17101 0.0
H257 H 0.15914 0.34358 0.11395 0.0
N258 N 0.13531 0.3781 0.14942 0.0
H259 H 0.13467 0.35122 0.11838 0.0
C260 C 0.23994 0.34224 0.16841 0.0
C261 C 0.25534 0.3583 0.17803 0.0
C262 C 0.26258 0.35802 0.2018 0.0
C263 C 0.25463 0.34165 0.2163 0.0
C264 C 0.23897 0.32575 0.20679 0.0
C265 C 0.2317 0.32609 0.1831 0.0
C266 C 0.24646 0.34556 0.12334 0.0
C267 C 0.25099 0.33196 0.11738 0.0
C268 C 0.26563 0.3358 0.10102 0.0
C269 C 0.27602 0.35338 0.08967 0.0
C270 C 0.27101 0.36685 0.09492 0.0
C271 C 0.25655 0.36308 0.11178 0.0
C272 C 0.21985 0.34784 0.14071 0.0
C273 C 0.22454 0.3662 0.14587 0.0
C274 C 0.21098 0.37138 0.14526 0.0
C275 C 0.19222 0.35819 0.14049 0.0
C276 C 0.18766 0.33981 0.13528 0.0
C277 C 0.20135 0.33479 0.13521 0.0
C278 C 0.12531 0.37237 0.17302 0.0
C279 C 0.1243 0.38568 0.18793 0.0
C280 C 0.11473 0.38074 0.21088 0.0
C281 C 0.10588 0.36227 0.2194 0.0
C282 C 0.10677 0.34884 0.20433 0.0
C283 C 0.11648 0.35386 0.18137 0.0
C284 C 0.12438 0.37722 0.12768 0.0
C285 C 0.10734 0.36131 0.12201 0.0
C286 C 0.09595 0.36173 0.1029 0.0
C287 C 0.10146 0.37797 0.08866 0.0
C288 C 0.11906 0.39349 0.09344 0.0
C289 C 0.13031 0.39312 0.11283 0.0
C290 C 0.14938 0.373 0.14608 0.0
C291 C 0.16564 0.38223 0.1605 0.0
C292 C 0.1794 0.37741 0.15876 0.0
C293 C 0.17747 0.36341 0.14201 0.0
C294 C 0.16114 0.35424 0.12733 0.0
C295 C 0.14713 0.35877 0.12961 0.0
H296 H 0.72858 0.80436 0.17721 0.0
N297 N 0.7014 0.79681 0.14456 0.0
H298 H 0.72596 0.79065 0.21914 0.0
H299 H 0.66913 0.77276 0.1689 0.0
H300 H 0.66638 0.75875 0.21024 0.0
H301 H 0.66665 0.77505 0.1248 0.0
H302 H 0.6573 0.74872 0.09618 0.0
H303 H 0.7236 0.78844 0.11925 0.0
H304 H 0.71469 0.76293 0.0895 0.0
H305 H 0.72631 0.82801 0.12264 0.0
H306 H 0.67221 0.80172 0.15718 0.0
H307 H 0.72553 0.85674 0.11821 0.0
H308 H 0.67166 0.83064 0.15426 0.0
H309 H 0.7227 0.95137 0.15497 0.0
H310 H 0.71986 0.96441 0.19498 0.0
H311 H 0.67678 0.90991 0.21841 0.0
H312 H 0.67904 0.89732 0.17792 0.0
H313 H 0.66578 0.90911 0.14053 0.0
H314 H 0.65154 0.92185 0.11264 0.0
H315 H 0.70071 0.94655 0.06604 0.0
H316 H 0.71508 0.93399 0.09436 0.0
H317 H 0.72968 0.9105 0.14447 0.0
H318 H 0.72868 0.88078 0.14442 0.0
H319 H 0.66982 0.85293 0.12855 0.0
N320 N 0.70184 0.91686 0.13833 0.0
H321 H 0.67086 0.88266 0.12993 0.0
C322 C 0.69914 0.78964 0.16992 0.0
C323 C 0.71497 0.7946 0.18456 0.0
C324 C 0.71344 0.78665 0.20838 0.0
C325 C 0.69596 0.77353 0.21802 0.0
C326 C 0.68004 0.76897 0.20356 0.0
C327 C 0.6816 0.77693 0.17976 0.0
C328 C 0.6958 0.7834 0.1245 0.0
C329 C 0.67717 0.77248 0.11706 0.0
C330 C 0.67189 0.75754 0.10048 0.0
C331 C 0.6852 0.75344 0.09088 0.0
C332 C 0.70399 0.76531 0.09706 0.0
C333 C 0.70917 0.78002 0.11383 0.0
C334 C 0.69953 0.81286 0.14056 0.0
C335 C 0.71426 0.82849 0.12926 0.0
C336 C 0.71383 0.84494 0.127 0.0
C337 C 0.69869 0.84622 0.13634 0.0
C338 C 0.68354 0.83022 0.14676 0.0
C339 C 0.68389 0.81365 0.14867 0.0
C340 C 0.70126 0.92341 0.16343 0.0
C341 C 0.71283 0.94226 0.16894 0.0
C342 C 0.71121 0.94965 0.19189 0.0
C343 C 0.69801 0.93827 0.21 0.0
C344 C 0.68685 0.91921 0.20478 0.0
C345 C 0.68831 0.91188 0.18167 0.0
C346 C 0.69167 0.92086 0.11967 0.0
C347 C 0.67339 0.91694 0.12407 0.0
C348 C 0.66525 0.92424 0.10814 0.0
C349 C 0.67511 0.93532 0.08735 0.0
C350 C 0.69278 0.93798 0.08186 0.0
C351 C 0.701 0.93086 0.09799 0.0
C352 C 0.70051 0.89894 0.13692 0.0
C353 C 0.7166 0.89796 0.14086 0.0
C354 C 0.71598 0.88093 0.14062 0.0
C355 C 0.69918 0.86436 0.13619 0.0
C356 C 0.68298 0.86534 0.13221 0.0
C357 C 0.68359 0.88243 0.13273 0.0
H358 H 0.12959 0.75452 0.18617 0.0
N359 N 0.12958 0.77872 0.15378 0.0
H360 H 0.11324 0.74449 0.22658 0.0
H361 H 0.10897 0.7922 0.17576 0.0
H362 H 0.09255 0.7823 0.21633 0.0
H363 H 0.09864 0.77806 0.13479 0.0
H364 H 0.07766 0.75682 0.10289 0.0
H365 H 0.1344 0.75499 0.12601 0.0
H366 H 0.11303 0.73302 0.09473 0.0
H367 H 0.16511 0.79373 0.1656 0.0
H368 H 0.12547 0.80693 0.13397 0.0
H369 H 0.18942 0.8262 0.16218 0.0
H370 H 0.14975 0.83923 0.12937 0.0
H371 H 0.24265 0.89804 0.17974 0.0
H372 H 0.25648 0.91146 0.22056 0.0
H373 H 0.24395 0.95529 0.20845 0.0
H374 H 0.2307 0.94201 0.16705 0.0
H375 H 0.2295 0.93261 0.10585 0.0
H376 H 0.25496 0.94942 0.07566 0.0
H377 H 0.28563 0.92648 0.11133 0.0
H378 H 0.26045 0.91004 0.14141 0.0
H379 H 0.23291 0.88229 0.13429 0.0
H380 H 0.20856 0.85001 0.13385 0.0
H381 H 0.16832 0.86613 0.15377 0.0
N382 N 0.2288 0.91243 0.14517 0.0
H383 H 0.19282 0.89866 0.153 0.0
C384 C 0.12052 0.77405 0.17804 0.0
C385 C 0.12165 0.76073 0.1928 0.0
C386 C 0.11236 0.7551 0.21589 0.0
C387 C 0.10165 0.76267 0.22473 0.0
C388 C 0.10058 0.77613 0.20994 0.0
C389 C 0.11 0.78184 0.18681 0.0
C390 C 0.11823 0.76821 0.13266 0.0
C391 C 0.1022 0.76867 0.12566 0.0
C392 C 0.09004 0.7563 0.10758 0.0
C393 C 0.0935 0.74302 0.09637 0.0
C394 C 0.10998 0.74315 0.10268 0.0
C395 C 0.1222 0.75565 0.12061 0.0
C396 C 0.14355 0.79782 0.1499 0.0
C397 C 0.16175 0.80363 0.15754 0.0
C398 C 0.17564 0.82219 0.15539 0.0
C399 C 0.17164 0.83543 0.14536 0.0
C400 C 0.15334 0.82951 0.13746 0.0
C401 C 0.1394 0.81092 0.13985 0.0
C402 C 0.23565 0.91909 0.17031 0.0
C403 C 0.24279 0.91047 0.18589 0.0
C404 C 0.25059 0.91813 0.20937 0.0
C405 C 0.25136 0.9345 0.21786 0.0
C406 C 0.24384 0.94284 0.2024 0.0
C407 C 0.23613 0.93521 0.17887 0.0
C408 C 0.24289 0.91994 0.12576 0.0
C409 C 0.24157 0.93095 0.10678 0.0
C410 C 0.25614 0.94059 0.08969 0.0
C411 C 0.27227 0.93925 0.09117 0.0
C412 C 0.27327 0.92759 0.10952 0.0
C413 C 0.25881 0.91816 0.12678 0.0
C414 C 0.21471 0.89309 0.14345 0.0
C415 C 0.21889 0.87905 0.1382 0.0
C416 C 0.20487 0.86043 0.13822 0.0
C417 C 0.1864 0.85534 0.14386 0.0
C418 C 0.18227 0.86945 0.14891 0.0
C419 C 0.19627 0.88807 0.14863 0.0
H420 H 0.36565 0.26074 0.86483 0.0
N421 N 0.33516 0.23088 0.88516 0.0
H422 H 0.36767 0.27432 0.82307 0.0
H423 H 0.30944 0.21806 0.84912 0.0
H424 H 0.31135 0.23138 0.80713 0.0
H425 H 0.31615 0.24774 0.89523 0.0
H426 H 0.32362 0.27263 0.92504 0.0
H427 H 0.36374 0.24462 0.92079 0.0
H428 H 0.37053 0.26854 0.95178 0.0
H429 H 0.37011 0.23591 0.88001 0.0
H430 H 0.31308 0.19511 0.89475 0.0
H431 H 0.37865 0.21203 0.8818 0.0
H432 H 0.32109 0.1707 0.8946 0.0
H433 H 0.39247 0.12881 0.84844 0.0
H434 H 0.38565 0.11314 0.80746 0.0
H435 H 0.32799 0.09758 0.81539 0.0
H436 H 0.33506 0.11338 0.85658 0.0
H437 H 0.33755 0.1009 0.89701 0.0
H438 H 0.33607 0.07893 0.92873 0.0
H439 H 0.3953 0.11266 0.94029 0.0
H440 H 0.39645 0.13483 0.909 0.0
H441 H 0.38515 0.16385 0.8564 0.0
H442 H 0.37726 0.18819 0.85878 0.0
H443 H 0.33488 0.15601 0.91415 0.0
N444 N 0.36904 0.13138 0.87966 0.0
H445 H 0.34194 0.13122 0.91008 0.0
C446 C 0.33733 0.23838 0.86 0.0
C447 C 0.35386 0.25412 0.85218 0.0
C448 C 0.35499 0.26183 0.82828 0.0
C449 C 0.33963 0.25397 0.8118 0.0
C450 C 0.32333 0.23792 0.81949 0.0
C451 C 0.32223 0.23022 0.84335 0.0
C452 C 0.3393 0.24422 0.90527 0.0
C453 C 0.32801 0.25216 0.90761 0.0
C454 C 0.33225 0.26635 0.92495 0.0
C455 C 0.34774 0.27275 0.94108 0.0
C456 C 0.35873 0.26433 0.9394 0.0
C457 C 0.3547 0.25038 0.92157 0.0
C458 C 0.34095 0.21731 0.88774 0.0
C459 C 0.35941 0.22177 0.88374 0.0
C460 C 0.36422 0.20796 0.88442 0.0
C461 C 0.35058 0.18924 0.88817 0.0
C462 C 0.33211 0.1849 0.89219 0.0
C463 C 0.32743 0.19882 0.89214 0.0
C464 C 0.36434 0.12224 0.85544 0.0
C465 C 0.3784 0.12208 0.84123 0.0
C466 C 0.37447 0.11321 0.81781 0.0
C467 C 0.35629 0.10423 0.8081 0.0
C468 C 0.3421 0.10429 0.82245 0.0
C469 C 0.34611 0.11331 0.84592 0.0
C470 C 0.36718 0.11957 0.9007 0.0
C471 C 0.35014 0.10376 0.90673 0.0
C472 C 0.34935 0.09112 0.92476 0.0
C473 C 0.3656 0.09391 0.93694 0.0
C474 C 0.38247 0.11015 0.93157 0.0
C475 C 0.3832 0.12282 0.91365 0.0
C476 C 0.3643 0.1457 0.88301 0.0
C477 C 0.37416 0.16209 0.86904 0.0
C478 C 0.36971 0.17611 0.87068 0.0
C479 C 0.35548 0.17429 0.88685 0.0
C480 C 0.34573 0.15789 0.90117 0.0
C481 C 0.34992 0.14365 0.89904 0.0
H482 H 0.77317 0.12738 0.85811 0.0
N483 N 0.78976 0.11475 0.891 0.0
H484 H 0.75889 0.11348 0.81765 0.0
H485 H 0.79063 0.08711 0.86748 0.0
H486 H 0.77736 0.07369 0.82625 0.0
H487 H 0.79081 0.09492 0.92958 0.0
H488 H 0.76625 0.0773 0.96055 0.0
H489 H 0.75775 0.1162 0.89712 0.0
H490 H 0.73322 0.0986 0.92759 0.0
H491 H 0.78546 0.14481 0.90056 0.0
H492 H 0.82585 0.12828 0.88502 0.0
H493 H 0.81002 0.17712 0.9023 0.0
H494 H 0.85054 0.16072 0.88551 0.0
H495 H 0.89254 0.27331 0.85505 0.0
H496 H 0.90885 0.28265 0.8145 0.0
H497 H 0.92565 0.2417 0.82371 0.0
H498 H 0.90925 0.23245 0.86431 0.0
H499 H 0.92119 0.24708 0.90445 0.0
H500 H 0.94308 0.26763 0.93611 0.0
H501 H 0.90924 0.29283 0.94754 0.0
H502 H 0.887 0.27162 0.91636 0.0
H503 H 0.85546 0.23373 0.87335 0.0
H504 H 0.83057 0.20144 0.87555 0.0
H505 H 0.86832 0.18694 0.91116 0.0
N506 N 0.89059 0.24787 0.8869 0.0
H507 H 0.89321 0.21903 0.90774 0.0
C508 C 0.78277 0.10807 0.86595 0.0
C509 C 0.77409 0.11564 0.85132 0.0
C510 C 0.76609 0.10775 0.82798 0.0
C511 C 0.76681 0.09231 0.81862 0.0
C512 C 0.77612 0.08526 0.83301 0.0
C513 C 0.78389 0.09301 0.85646 0.0
C514 C 0.77621 0.10685 0.911 0.0
C515 C 0.77842 0.09606 0.92945 0.0
C516 C 0.76434 0.08594 0.94699 0.0
C517 C 0.74772 0.08644 0.94641 0.0
C518 C 0.74592 0.09805 0.92874 0.0
C519 C 0.75998 0.10811 0.91116 0.0
C520 C 0.80385 0.13403 0.89291 0.0
C521 C 0.7996 0.14807 0.89758 0.0
C522 C 0.81373 0.16666 0.89833 0.0
C523 C 0.83236 0.17164 0.89406 0.0
C524 C 0.83647 0.15748 0.88941 0.0
C525 C 0.82237 0.13892 0.88893 0.0
C526 C 0.89968 0.25227 0.86265 0.0
C527 C 0.89964 0.26629 0.84818 0.0
C528 C 0.90889 0.27152 0.82501 0.0
C529 C 0.9185 0.26286 0.81587 0.0
C530 C 0.9185 0.24872 0.83037 0.0
C531 C 0.90909 0.24339 0.85353 0.0
C532 C 0.90233 0.25776 0.90807 0.0
C533 C 0.91815 0.25662 0.91421 0.0
C534 C 0.93082 0.26858 0.9322 0.0
C535 C 0.92807 0.28206 0.94422 0.0
C536 C 0.91174 0.28251 0.93892 0.0
C537 C 0.89903 0.27046 0.92104 0.0
C538 C 0.87614 0.2289 0.8905 0.0
C539 C 0.85826 0.22356 0.88179 0.0
C540 C 0.84403 0.20509 0.88323 0.0
C541 C 0.84735 0.19149 0.8936 0.0
C542 C 0.86528 0.19695 0.90273 0.0
C543 C 0.87956 0.21543 0.90102 0.0
H544 H 0.78177 0.72131 0.86987 0.0
N545 N 0.79415 0.69996 0.88861 0.0
H546 H 0.76708 0.7186 0.82884 0.0
H547 H 0.79005 0.67579 0.85072 0.0
H548 H 0.77623 0.67349 0.80915 0.0
H549 H 0.76542 0.66404 0.88753 0.0
H550 H 0.73849 0.65052 0.91572 0.0
H551 H 0.79051 0.7142 0.93182 0.0
H552 H 0.76376 0.70049 0.96059 0.0
H553 H 0.82767 0.72556 0.87358 0.0
H554 H 0.79817 0.67112 0.90701 0.0
H555 H 0.85623 0.72441 0.87438 0.0
H556 H 0.82695 0.67043 0.90996 0.0
H557 H 0.94471 0.72308 0.86678 0.0
H558 H 0.95715 0.72077 0.82591 0.0
H559 H 0.90764 0.66779 0.81304 0.0
H560 H 0.89594 0.66982 0.85426 0.0
H561 H 0.9055 0.66223 0.89592 0.0
H562 H 0.92169 0.65221 0.925 0.0
H563 H 0.95212 0.70769 0.95555 0.0
H564 H 0.93621 0.7176 0.92593 0.0
H565 H 0.90876 0.72663 0.89633 0.0
H566 H 0.87965 0.72678 0.8991 0.0
H567 H 0.84937 0.66721 0.88917 0.0
N568 N 0.91348 0.69793 0.88879 0.0
H569 H 0.87864 0.66723 0.88907 0.0
C570 C 0.78709 0.6989 0.86331 0.0
C571 C 0.78072 0.71098 0.85654 0.0
C572 C 0.77244 0.70945 0.83299 0.0
C573 C 0.77044 0.69582 0.81554 0.0
C574 C 0.77726 0.68398 0.82218 0.0
C575 C 0.78537 0.68539 0.84588 0.0
C576 C 0.77985 0.69033 0.90736 0.0
C577 C 0.76531 0.67202 0.90358 0.0
C578 C 0.74995 0.66429 0.91971 0.0
C579 C 0.74903 0.67454 0.94018 0.0
C580 C 0.76419 0.69227 0.94503 0.0
C581 C 0.77942 0.70012 0.92864 0.0
C582 C 0.81077 0.69864 0.89042 0.0
C583 C 0.82745 0.71348 0.88151 0.0
C584 C 0.84386 0.71284 0.88229 0.0
C585 C 0.84417 0.69743 0.89264 0.0
C586 C 0.82736 0.68247 0.9016 0.0
C587 C 0.8108 0.68294 0.9002 0.0
C588 C 0.91937 0.69678 0.86357 0.0
C589 C 0.93652 0.71108 0.85494 0.0
C590 C 0.94354 0.70976 0.83151 0.0
C591 C 0.93344 0.69406 0.81608 0.0
C592 C 0.91598 0.67995 0.82454 0.0
C593 C 0.9091 0.6812 0.84811 0.0
C594 C 0.91985 0.69074 0.9087 0.0
C595 C 0.91536 0.6721 0.90925 0.0
C596 C 0.9246 0.66639 0.92594 0.0
C597 C 0.93842 0.67924 0.94231 0.0
C598 C 0.94184 0.69754 0.94284 0.0
C599 C 0.93266 0.70321 0.92614 0.0
C600 C 0.8959 0.69706 0.89183 0.0
C601 C 0.89578 0.71362 0.89505 0.0
C602 C 0.87906 0.71365 0.89628 0.0
C603 C 0.86194 0.69705 0.89365 0.0
C604 C 0.86213 0.6803 0.89131 0.0
C605 C 0.87894 0.68028 0.8908 0.0
H606 H 0.73938 0.63545 0.50049 0.0
N607 N 0.77216 0.65731 0.47938 0.0
H608 H 0.72807 0.63933 0.5413 0.0
H609 H 0.79201 0.68479 0.51374 0.0
H610 H 0.7813 0.68834 0.55533 0.0
H611 H 0.77884 0.69263 0.47262 0.0
H612 H 0.76356 0.70243 0.44175 0.0
H613 H 0.75115 0.63773 0.44067 0.0
H614 H 0.73605 0.64744 0.40934 0.0
H615 H 0.78112 0.63309 0.4968 0.0
H616 H 0.80431 0.68572 0.45858 0.0
H617 H 0.81116 0.6349 0.49565 0.0
H618 H 0.83412 0.68704 0.45549 0.0
H619 H 0.90402 0.63871 0.49953 0.0
H620 H 0.91836 0.64134 0.54075 0.0
H621 H 0.91473 0.69032 0.55656 0.0
H622 H 0.9018 0.68828 0.51473 0.0
H623 H 0.92295 0.69728 0.47215 0.0
H624 H 0.94931 0.70705 0.44322 0.0
H625 H 0.92316 0.65174 0.41202 0.0
H626 H 0.89716 0.64212 0.44129 0.0
H627 H 0.86115 0.63255 0.47278 0.0
H628 H 0.83159 0.63183 0.47017 0.0
H629 H 0.86059 0.69165 0.47629 0.0
N630 N 0.89461 0.66179 0.47875 0.0
H631 H 0.89015 0.69211 0.47651 0.0
C632 C 0.7665 0.65968 0.50422 0.0
C633 C 0.74857 0.64696 0.5125 0.0
C634 C 0.74222 0.64916 0.53596 0.0
C635 C 0.75378 0.66409 0.55188 0.0
C636 C 0.77189 0.67679 0.54355 0.0
C637 C 0.77814 0.67471 0.51986 0.0
C638 C 0.76598 0.66436 0.45897 0.0
C639 C 0.76979 0.68281 0.45856 0.0
C640 C 0.7611 0.6884 0.44082 0.0
C641 C 0.74842 0.67565 0.42326 0.0
C642 C 0.74551 0.65752 0.42287 0.0
C643 C 0.75421 0.65197 0.44058 0.0
C644 C 0.79027 0.65905 0.47757 0.0
C645 C 0.79268 0.64491 0.48779 0.0
C646 C 0.80989 0.64592 0.48682 0.0
C647 C 0.8252 0.66098 0.47504 0.0
C648 C 0.8228 0.67528 0.46489 0.0
C649 C 0.80559 0.67444 0.4664 0.0
C650 C 0.90162 0.66309 0.50406 0.0
C651 C 0.90626 0.64993 0.51204 0.0
C652 C 0.91433 0.65141 0.53575 0.0
C653 C 0.91772 0.66603 0.55226 0.0
C654 C 0.91267 0.67903 0.54434 0.0
C655 C 0.90496 0.67774 0.52039 0.0
C656 C 0.90821 0.66892 0.45887 0.0
C657 C 0.92273 0.68744 0.45862 0.0
C658 C 0.93776 0.69299 0.44206 0.0
C659 C 0.93845 0.68008 0.42561 0.0
C660 C 0.92321 0.66192 0.42478 0.0
C661 C 0.90828 0.65643 0.44128 0.0
C662 C 0.87772 0.66227 0.47543 0.0
C663 C 0.86104 0.64548 0.47323 0.0
C664 C 0.84414 0.64514 0.47208 0.0
C665 C 0.84347 0.66166 0.47373 0.0
C666 C 0.8604 0.67862 0.47494 0.0
C667 C 0.87737 0.67893 0.47542 0.0
H668 H 0.3864 0.11604 0.48792 0.0
N669 N 0.36457 0.12801 0.46973 0.0
H670 H 0.38424 0.10148 0.52882 0.0
H671 H 0.34003 0.12288 0.50758 0.0
H672 H 0.3383 0.10925 0.54915 0.0
H673 H 0.32785 0.10139 0.46804 0.0
H674 H 0.31382 0.07455 0.43982 0.0
H675 H 0.38008 0.1224 0.42935 0.0
H676 H 0.36634 0.09542 0.4013 0.0
H677 H 0.38971 0.16094 0.48722 0.0
H678 H 0.33653 0.13295 0.44973 0.0
H679 H 0.38876 0.18959 0.48729 0.0
H680 H 0.33611 0.16181 0.44792 0.0
H681 H 0.38734 0.27968 0.49325 0.0
H682 H 0.38503 0.29173 0.53435 0.0
H683 H 0.33398 0.24048 0.54905 0.0
H684 H 0.33584 0.22923 0.50741 0.0
H685 H 0.32763 0.23994 0.46471 0.0
H686 H 0.3177 0.25571 0.43468 0.0
H687 H 0.37337 0.28567 0.40451 0.0
H688 H 0.38314 0.27005 0.43486 0.0
H689 H 0.39209 0.24285 0.46612 0.0
H690 H 0.39215 0.21373 0.46303 0.0
H691 H 0.33227 0.1836 0.4698 0.0
N692 N 0.36324 0.24762 0.4721 0.0
H693 H 0.33245 0.21294 0.4705 0.0
C694 C 0.36353 0.12066 0.49479 0.0
C695 C 0.37596 0.11466 0.50134 0.0
C696 C 0.37476 0.10646 0.52483 0.0
C697 C 0.36114 0.10421 0.5425 0.0
C698 C 0.34881 0.11049 0.53598 0.0
C699 C 0.34988 0.11847 0.51229 0.0
C700 C 0.35507 0.11388 0.45077 0.0
C701 C 0.3362 0.10039 0.45314 0.0
C702 C 0.32824 0.08499 0.43708 0.0
C703 C 0.339 0.0827 0.41845 0.0
C704 C 0.35758 0.09679 0.41523 0.0
C705 C 0.36549 0.1122 0.43127 0.0
C706 C 0.36337 0.14472 0.46844 0.0
C707 C 0.37794 0.16105 0.47867 0.0
C708 C 0.37744 0.17751 0.4784 0.0
C709 C 0.36246 0.17827 0.46728 0.0
C710 C 0.3478 0.16185 0.45694 0.0
C711 C 0.34812 0.14522 0.45775 0.0
C712 C 0.36196 0.25352 0.49729 0.0
C713 C 0.37573 0.27106 0.5055 0.0
C714 C 0.37443 0.27785 0.52912 0.0
C715 C 0.35933 0.2671 0.54527 0.0
C716 C 0.34567 0.24933 0.53709 0.0
C717 C 0.34684 0.24271 0.51326 0.0
C718 C 0.35618 0.25398 0.45201 0.0
C719 C 0.33754 0.24958 0.45122 0.0
C720 C 0.3319 0.25858 0.43401 0.0
C721 C 0.34482 0.27212 0.41743 0.0
C722 C 0.36316 0.27554 0.4173 0.0
C723 C 0.36874 0.26656 0.43445 0.0
C724 C 0.36238 0.23007 0.46912 0.0
C725 C 0.379 0.2299 0.46668 0.0
C726 C 0.37897 0.21318 0.46524 0.0
C727 C 0.36223 0.1961 0.46678 0.0
C728 C 0.34546 0.19635 0.46845 0.0
C729 C 0.34552 0.21317 0.46926 0.0
H730 H 0.78076 0.09359 0.50018 0.0
N731 N 0.77989 0.12282 0.47814 0.0
H732 H 0.76796 0.07991 0.5414 0.0
H733 H 0.76394 0.13418 0.51163 0.0
H734 H 0.75108 0.12058 0.5531 0.0
H735 H 0.74678 0.11136 0.45803 0.0
H736 H 0.73024 0.08657 0.42741 0.0
H737 H 0.7943 0.10399 0.45232 0.0
H738 H 0.77838 0.08003 0.42074 0.0
H739 H 0.81014 0.11915 0.48903 0.0
H740 H 0.7935 0.158 0.46492 0.0
H741 H 0.84249 0.14332 0.48728 0.0
H742 H 0.82593 0.18284 0.46496 0.0
H743 H 0.94067 0.22673 0.51136 0.0
H744 H 0.95115 0.24403 0.55105 0.0
H745 H 0.90959 0.26023 0.54325 0.0
H746 H 0.89923 0.24281 0.50335 0.0
H747 H 0.91141 0.25235 0.46087 0.0
H748 H 0.93194 0.2741 0.42895 0.0
H749 H 0.95979 0.24238 0.4218 0.0
H750 H 0.93862 0.22031 0.45306 0.0
H751 H 0.8969 0.19326 0.50944 0.0
H752 H 0.86451 0.16893 0.50855 0.0
H753 H 0.85483 0.19628 0.44573 0.0
N754 N 0.91387 0.22343 0.48098 0.0
H755 H 0.88686 0.22114 0.44792 0.0
C756 C 0.77337 0.11501 0.50291 0.0
C757 C 0.77455 0.09973 0.51173 0.0
C758 C 0.76722 0.09192 0.53534 0.0
C759 C 0.75849 0.09916 0.55054 0.0
C760 C 0.75753 0.11457 0.54175 0.0
C761 C 0.76496 0.12242 0.51819 0.0
C762 C 0.77181 0.10976 0.45753 0.0
C763 C 0.75382 0.10472 0.44967 0.0
C764 C 0.74443 0.09057 0.432 0.0
C765 C 0.75292 0.08118 0.42143 0.0
C766 C 0.77123 0.08668 0.42871 0.0
C767 C 0.78052 0.10066 0.44672 0.0
C768 C 0.79932 0.13669 0.47664 0.0
C769 C 0.81342 0.13289 0.48325 0.0
C770 C 0.83204 0.14692 0.48262 0.0
C771 C 0.83703 0.16523 0.47613 0.0
C772 C 0.82281 0.16893 0.46959 0.0
C773 C 0.80421 0.15478 0.4697 0.0
C774 C 0.91923 0.23347 0.50454 0.0
C775 C 0.9338 0.23396 0.51832 0.0
C776 C 0.93969 0.24379 0.54099 0.0
C777 C 0.93112 0.25342 0.55036 0.0
C778 C 0.91654 0.25305 0.53641 0.0
C779 C 0.91058 0.24309 0.5137 0.0
C780 C 0.92344 0.23461 0.45924 0.0
C781 C 0.9216 0.24981 0.45194 0.0
C782 C 0.93351 0.26236 0.43382 0.0
C783 C 0.94773 0.26018 0.42296 0.0
C784 C 0.9489 0.24443 0.42945 0.0
C785 C 0.93685 0.2318 0.44737 0.0
C786 C 0.89454 0.20918 0.47896 0.0
C787 C 0.88775 0.19405 0.49555 0.0
C788 C 0.86919 0.17999 0.49479 0.0
C789 C 0.85688 0.18042 0.47691 0.0
C790 C 0.86372 0.19554 0.46006 0.0
C791 C 0.88227 0.20984 0.46119 0.0
H792 H 0.03153 0.58426 0.18697 0.0
N793 N 0.00196 0.56635 0.21908 0.0
H794 H 0.03157 0.59796 0.14622 0.0
H795 H 0.97291 0.56369 0.19458 0.0
H796 H 0.97249 0.57645 0.15306 0.0
H797 H 0.97976 0.56644 0.25495 0.0
H798 H 0.98657 0.59104 0.28581 0.0
H799 H 0.03597 0.59741 0.22742 0.0
H800 H 0.0429 0.62168 0.25833 0.0
H801 H 0.03659 0.57045 0.22604 0.0
H802 H 0.97864 0.5302 0.21648 0.0
H803 H 0.04392 0.54571 0.22828 0.0
H804 H 0.9859 0.50524 0.21759 0.0
H805 H 0.05255 0.4533 0.19372 0.0
H806 H 0.04349 0.43364 0.1559 0.0
H807 H 0.99095 0.43209 0.15452 0.0
H808 H 0.99975 0.45119 0.19291 0.0
H809 H 1.00083 0.43418 0.23643 0.0
H810 H 0.99908 0.41263 0.26905 0.0
H811 H 0.05789 0.44743 0.28299 0.0
H812 H 0.05929 0.4692 0.2509 0.0
H813 H 0.05277 0.49852 0.20122 0.0
H814 H 0.04578 0.52367 0.20211 0.0
H815 H 0.99545 0.48852 0.24379 0.0
N816 N 0.03251 0.46444 0.21922 0.0
H817 H 0.00216 0.46333 0.24178 0.0
C818 C 0.0022 0.57313 0.19394 0.0
C819 C 0.01861 0.58254 0.17975 0.0
C820 C 0.01855 0.59021 0.15624 0.0
C821 C 0.00204 0.58844 0.14628 0.0
C822 C 0.98554 0.57845 0.16027 0.0
C823 C 0.98568 0.57099 0.18388 0.0
C824 C 0.0073 0.57987 0.23904 0.0
C825 C 0.99366 0.57831 0.25597 0.0
C826 C 0.99754 0.59238 0.27344 0.0
C827 C 0.01528 0.60826 0.27445 0.0
C828 C 0.02919 0.60949 0.2582 0.0
C829 C 0.02522 0.59552 0.2405 0.0
C830 C 0.00694 0.55218 0.22137 0.0
C831 C 0.02538 0.55632 0.22451 0.0
C832 C 0.0296 0.54207 0.22554 0.0
C833 C 0.01552 0.52339 0.22311 0.0
C834 C 0.99709 0.51937 0.22001 0.0
C835 C 0.99289 0.53361 0.21921 0.0
C836 C 0.02704 0.45398 0.19594 0.0
C837 C 0.03912 0.44878 0.18518 0.0
C838 C 0.03389 0.43747 0.16378 0.0
C839 C 0.01652 0.43135 0.15246 0.0
C840 C 0.00444 0.43671 0.16294 0.0
C841 C 0.00952 0.44771 0.18476 0.0
C842 C 0.03025 0.45338 0.24133 0.0
C843 C 0.01321 0.43748 0.24709 0.0
C844 C 0.01228 0.42504 0.26556 0.0
C845 C 0.02839 0.42815 0.27845 0.0
C846 C 0.04517 0.44465 0.27368 0.0
C847 C 0.04603 0.45712 0.25531 0.0
C848 C 0.02818 0.4791 0.22154 0.0
C849 C 0.04029 0.49634 0.21065 0.0
C850 C 0.03631 0.51072 0.21134 0.0
C851 C 0.02006 0.50821 0.22311 0.0
C852 C 0.00798 0.49093 0.23428 0.0
C853 C 0.01191 0.47648 0.23337 0.0
H854 H 0.61348 0.57283 0.20218 0.0
N855 N 0.58042 0.56259 0.22195 0.0
H856 H 0.62549 0.58723 0.16099 0.0
H857 H 0.56069 0.56796 0.18481 0.0
H858 H 0.57231 0.5818 0.14322 0.0
H859 H 0.57411 0.59184 0.22095 0.0
H860 H 0.58888 0.61912 0.24837 0.0
H861 H 0.59879 0.56616 0.26474 0.0
H862 H 0.61312 0.59327 0.29284 0.0
H863 H 0.57245 0.52851 0.21058 0.0
H864 H 0.54745 0.55964 0.23766 0.0
H865 H 0.5425 0.50011 0.21241 0.0
H866 H 0.51762 0.53111 0.24146 0.0
H867 H 0.45487 0.41269 0.20799 0.0
H868 H 0.44153 0.39836 0.16706 0.0
H869 H 0.43262 0.44397 0.14973 0.0
H870 H 0.4466 0.45838 0.18973 0.0
H871 H 0.43059 0.45229 0.2281 0.0
H872 H 0.40339 0.43793 0.25572 0.0
H873 H 0.42738 0.41049 0.29714 0.0
H874 H 0.45432 0.42433 0.26871 0.0
H875 H 0.49168 0.44903 0.23775 0.0
H876 H 0.52107 0.4782 0.23905 0.0
H877 H 0.4922 0.50769 0.22045 0.0
N878 N 0.4584 0.4438 0.22706 0.0
H879 H 0.46277 0.47851 0.22155 0.0
C880 C 0.58625 0.56927 0.19651 0.0
C881 C 0.6044 0.57456 0.18921 0.0
C882 C 0.61118 0.58271 0.16561 0.0
C883 C 0.59988 0.58571 0.14874 0.0
C884 C 0.58147 0.57993 0.15586 0.0
C885 C 0.57473 0.57185 0.17954 0.0
C886 C 0.58566 0.57706 0.24056 0.0
C887 C 0.58237 0.59187 0.23676 0.0
C888 C 0.59078 0.60745 0.25245 0.0
C889 C 0.60223 0.6083 0.27255 0.0
C890 C 0.60429 0.5929 0.27754 0.0
C891 C 0.59614 0.57745 0.26154 0.0
C892 C 0.56236 0.54616 0.22427 0.0
C893 C 0.5605 0.52913 0.21735 0.0
C894 C 0.54333 0.51285 0.21868 0.0
C895 C 0.5275 0.51308 0.22752 0.0
C896 C 0.52937 0.53028 0.23437 0.0
C897 C 0.54656 0.54668 0.23249 0.0
C898 C 0.45181 0.43659 0.20203 0.0
C899 C 0.45027 0.41966 0.19509 0.0
C900 C 0.44246 0.41142 0.17182 0.0
C901 C 0.4359 0.41994 0.15502 0.0
C902 C 0.43778 0.43711 0.16189 0.0
C903 C 0.44571 0.44538 0.18503 0.0
C904 C 0.44435 0.43904 0.24606 0.0
C905 C 0.43021 0.44345 0.24329 0.0
C906 C 0.41469 0.4353 0.25915 0.0
C907 C 0.41331 0.42307 0.27841 0.0
C908 C 0.42819 0.41997 0.28252 0.0
C909 C 0.44352 0.42782 0.26633 0.0
C910 C 0.47515 0.46151 0.22897 0.0
C911 C 0.49176 0.46186 0.23422 0.0
C912 C 0.50858 0.47858 0.23463 0.0
C913 C 0.50925 0.49545 0.22921 0.0
C914 C 0.49238 0.4951 0.22476 0.0
C915 C 0.47547 0.47832 0.22496 0.0
H916 H 0.55925 0.96166 0.18185 0.0
N917 N 0.55579 0.98464 0.21305 0.0
H918 H 0.57516 0.96891 0.14095 0.0
H919 H 0.57312 0.01857 0.18994 0.0
H920 H 0.58913 0.02602 0.14893 0.0
H921 H 0.59011 0.01379 0.22537 0.0
H922 H 0.61106 0.01365 0.25698 0.0
H923 H 0.54762 0.95946 0.24918 0.0
H924 H 0.56795 0.95979 0.28278 0.0
H925 H 0.52373 0.97015 0.18866 0.0
H926 H 0.5565 0.01132 0.24461 0.0
H927 H 0.4999 0.97865 0.19168 0.0
H928 H 0.53192 0.01877 0.2497 0.0
H929 H 0.42693 0.98923 0.20249 0.0
H930 H 0.41328 0.98871 0.16146 0.0
H931 H 0.45439 0.04636 0.1503 0.0
H932 H 0.46789 0.04678 0.19173 0.0
H933 H 0.44736 0.04137 0.2484 0.0
H934 H 0.42246 0.03288 0.27914 0.0
H935 H 0.41162 0.9765 0.2789 0.0
H936 H 0.43593 0.9849 0.24784 0.0
H937 H 0.45215 0.98496 0.21369 0.0
H938 H 0.47597 0.97652 0.21409 0.0
H939 H 0.51687 0.03302 0.23347 0.0
N940 N 0.45654 0.01913 0.22473 0.0
H941 H 0.49224 0.04072 0.23571 0.0
C942 C 0.56503 0.98951 0.18885 0.0
C943 C 0.56568 0.9757 0.17466 0.0
C944 C 0.57467 0.97987 0.1513 0.0
C945 C 0.58331 0.99803 0.14167 0.0
C946 C 0.58269 0.01194 0.15593 0.0
C947 C 0.57352 0.00769 0.17928 0.0
C948 C 0.5674 0.98633 0.23437 0.0
C949 C 0.58514 0.00191 0.23773 0.0
C950 C 0.5971 0.0019 0.25627 0.0
C951 C 0.59146 0.98657 0.27249 0.0
C952 C 0.57314 0.97162 0.27025 0.0
C953 C 0.56135 0.97146 0.25124 0.0
C954 C 0.54182 0.98987 0.21649 0.0
C955 C 0.52559 0.98082 0.20198 0.0
C956 C 0.51182 0.98559 0.20402 0.0
C957 C 0.51363 0.99927 0.22128 0.0
C958 C 0.52998 0.00834 0.23595 0.0
C959 C 0.54405 0.00391 0.23331 0.0
C960 C 0.4485 0.01812 0.20018 0.0
C961 C 0.43313 0.00173 0.19119 0.0
C962 C 0.42535 0.00143 0.16762 0.0
C963 C 0.43274 0.0175 0.15257 0.0
C964 C 0.44823 0.03381 0.16153 0.0
C965 C 0.45603 0.03407 0.18508 0.0
C966 C 0.44369 0.01394 0.24564 0.0
C967 C 0.43982 0.02726 0.25537 0.0
C968 C 0.42562 0.02237 0.27303 0.0
C969 C 0.41492 0.00395 0.28144 0.0
C970 C 0.41937 0.99076 0.27255 0.0
C971 C 0.43351 0.99564 0.25478 0.0
C972 C 0.47028 0.01344 0.22543 0.0
C973 C 0.46608 0.99542 0.21887 0.0
C974 C 0.47996 0.99071 0.21852 0.0
C975 C 0.49861 0.00407 0.22356 0.0
C976 C 0.50274 0.02215 0.22997 0.0
C977 C 0.48869 0.02667 0.23109 0.0
H978 H 0.40975 0.9704 0.83195 0.0
N979 N 0.44234 0.99383 0.81147 0.0
H980 H 0.3977 0.97281 0.87296 0.0
H981 H 0.46129 0.02047 0.84747 0.0
H982 H 0.45006 0.02233 0.88913 0.0
H983 H 0.45142 0.02972 0.80345 0.0
H984 H 0.43631 0.0403 0.77313 0.0
H985 H 0.4188 0.97402 0.77514 0.0
H986 H 0.40369 0.9844 0.74478 0.0
H987 H 0.44605 0.96447 0.80432 0.0
H988 H 0.47749 0.02392 0.81045 0.0
H989 H 0.4747 0.96351 0.80037 0.0
H990 H 0.50638 0.02315 0.80886 0.0
H991 H 0.57041 0.966 0.82595 0.0
H992 H 0.58601 0.96916 0.86632 0.0
H993 H 0.58282 0.01828 0.88276 0.0
H994 H 0.56803 0.01539 0.8417 0.0
H995 H 0.58821 0.02433 0.80089 0.0
H996 H 0.61432 0.03499 0.77157 0.0
H997 H 0.58806 0.98075 0.73698 0.0
H998 H 0.56219 0.97014 0.76677 0.0
H999 H 0.52677 0.96391 0.82355 0.0
H1000 H 0.49862 0.96584 0.82431 0.0
H1001 H 0.52763 0.01882 0.7861 0.0
N1002 N 0.5599 0.98854 0.80623 0.0
H1003 H 0.55607 0.01733 0.78727 0.0
C1004 C 0.43645 0.99505 0.83667 0.0
C1005 C 0.4186 0.98169 0.8445 0.0
C1006 C 0.41181 0.98305 0.86809 0.0
C1007 C 0.42287 0.99775 0.88465 0.0
C1008 C 0.44095 0.01097 0.87687 0.0
C1009 C 0.44757 0.00978 0.85303 0.0
C1010 C 0.43612 0.00106 0.79145 0.0
C1011 C 0.44136 0.01989 0.79025 0.0
C1012 C 0.43273 0.0259 0.77293 0.0
C1013 C 0.41868 0.01312 0.75678 0.0
C1014 C 0.41429 0.9945 0.7572 0.0
C1015 C 0.42295 0.98857 0.77436 0.0
C1016 C 0.45964 0.99414 0.80828 0.0
C1017 C 0.45923 0.97731 0.80511 0.0
C1018 C 0.47568 0.97682 0.80315 0.0
C1019 C 0.49306 0.99322 0.8049 0.0
C1020 C 0.49338 0.01021 0.80734 0.0
C1021 C 0.47682 0.01068 0.80866 0.0
C1022 C 0.56796 0.99032 0.83095 0.0
C1023 C 0.57301 0.97736 0.83841 0.0
C1024 C 0.58182 0.97915 0.86158 0.0
C1025 C 0.58565 0.99395 0.87797 0.0
C1026 C 0.58034 0.00685 0.87053 0.0
C1027 C 0.5717 0.00514 0.84717 0.0
C1028 C 0.57331 0.99635 0.78606 0.0
C1029 C 0.58787 0.01488 0.7866 0.0
C1030 C 0.60277 0.02098 0.76975 0.0
C1031 C 0.60338 0.00864 0.75218 0.0
C1032 C 0.58814 0.99051 0.75057 0.0
C1033 C 0.57329 0.98445 0.76739 0.0
C1034 C 0.54351 0.99027 0.80517 0.0
C1035 C 0.52701 0.97593 0.81534 0.0
C1036 C 0.51084 0.97702 0.8155 0.0
C1037 C 0.51059 0.99238 0.8049 0.0
C1038 C 0.52721 0.00683 0.79467 0.0
C1039 C 0.54356 0.00591 0.79506 0.0
H1040 H 0.99293 0.56457 0.84085 0.0
N1041 N 0.02257 0.57747 0.80856 0.0
H1042 H 0.99219 0.5781 0.88134 0.0
H1043 H 0.05101 0.6048 0.83291 0.0
H1044 H 0.0508 0.61783 0.87427 0.0
H1045 H 0.04401 0.5983 0.77094 0.0
H1046 H 0.0371 0.61596 0.73997 0.0
H1047 H 0.98898 0.57574 0.80193 0.0
H1048 H 0.98202 0.59309 0.77122 0.0
H1049 H 0.9879 0.54764 0.79837 0.0
H1050 H 0.04469 0.56351 0.8146 0.0
H1051 H 0.97963 0.51529 0.7966 0.0
H1052 H 0.03637 0.53094 0.81402 0.0
H1053 H 0.96398 0.41813 0.84436 0.0
H1054 H 0.97084 0.40859 0.8848 0.0
H1055 H 0.02875 0.44999 0.87632 0.0
H1056 H 0.02171 0.45931 0.83572 0.0
H1057 H 0.01879 0.44413 0.79554 0.0
H1058 H 0.01969 0.42312 0.7644 0.0
H1059 H 0.96057 0.39838 0.7529 0.0
H1060 H 0.95998 0.42009 0.7835 0.0
H1061 H 0.9672 0.45853 0.82619 0.0
H1062 H 0.97533 0.49098 0.82379 0.0
H1063 H 0.0274 0.50453 0.78831 0.0
N1064 N 0.98761 0.44381 0.81283 0.0
H1065 H 0.01946 0.47228 0.79186 0.0
C1066 C 0.02203 0.58389 0.83369 0.0
C1067 C 0.0056 0.57622 0.84796 0.0
C1068 C 0.00527 0.58389 0.87134 0.0
C1069 C 0.02142 0.5992 0.88116 0.0
C1070 C 0.03798 0.60635 0.86716 0.0
C1071 C 0.03821 0.59882 0.84363 0.0
C1072 C 0.01708 0.5856 0.78867 0.0
C1073 C 0.03034 0.59686 0.77072 0.0
C1074 C 0.02641 0.60699 0.75318 0.0
C1075 C 0.00902 0.60592 0.75319 0.0
C1076 C 0.99546 0.59401 0.7705 0.0
C1077 C 0.99946 0.58405 0.78817 0.0
C1078 C 0.01708 0.55815 0.80638 0.0
C1079 C 0.99867 0.54426 0.80146 0.0
C1080 C 0.99388 0.52561 0.8007 0.0
C1081 C 0.0073 0.52039 0.80519 0.0
C1082 C 0.0257 0.53438 0.80999 0.0
C1083 C 0.03049 0.553 0.81051 0.0
C1084 C 0.99224 0.43938 0.83712 0.0
C1085 C 0.9781 0.42521 0.85138 0.0
C1086 C 0.98207 0.41986 0.87449 0.0
C1087 C 1.00035 0.4286 0.88384 0.0
C1088 C 0.01456 0.4429 0.86953 0.0
C1089 C 0.01054 0.44829 0.84638 0.0
C1090 C 0.98925 0.43375 0.79178 0.0
C1091 C 0.00611 0.43461 0.78581 0.0
C1092 C 0.00656 0.42239 0.76815 0.0
C1093 C 0.99016 0.40887 0.75634 0.0
C1094 C 0.9735 0.40871 0.76139 0.0
C1095 C 0.9731 0.42105 0.77893 0.0
C1096 C 0.99255 0.46287 0.80909 0.0
C1097 C 0.98029 0.46853 0.81772 0.0
C1098 C 0.98494 0.48708 0.81617 0.0
C1099 C 0.00203 0.50046 0.80577 0.0
C1100 C 0.01423 0.49469 0.79674 0.0
C1101 C 0.00961 0.47612 0.79853 0.0
H1102 H 0.46222 0.41821 0.84759 0.0
N1103 N 0.46335 0.44432 0.81792 0.0
H1104 H 0.44571 0.40686 0.88769 0.0
H1105 H 0.44355 0.45778 0.84225 0.0
H1106 H 0.42701 0.44661 0.88257 0.0
H1107 H 0.43206 0.44389 0.80097 0.0
H1108 H 0.41089 0.42357 0.7684 0.0
H1109 H 0.46864 0.42238 0.78697 0.0
H1110 H 0.44724 0.40148 0.75482 0.0
H1111 H 0.49859 0.45908 0.83125 0.0
H1112 H 0.45959 0.473 0.79919 0.0
H1113 H 0.52292 0.49161 0.82955 0.0
H1114 H 0.48395 0.5054 0.7962 0.0
H1115 H 0.57821 0.56469 0.84881 0.0
H1116 H 0.59188 0.57787 0.88979 0.0
H1117 H 0.57446 0.61847 0.88133 0.0
H1118 H 0.56177 0.60574 0.83959 0.0
H1119 H 0.56322 0.59959 0.77804 0.0
H1120 H 0.58853 0.61724 0.74796 0.0
H1121 H 0.61932 0.59328 0.78029 0.0
H1122 H 0.59433 0.57604 0.81031 0.0
H1123 H 0.56703 0.54831 0.80459 0.0
H1124 H 0.54271 0.51604 0.80269 0.0
H1125 H 0.502 0.53178 0.8215 0.0
N1126 N 0.56261 0.5782 0.81567 0.0
H1127 H 0.52649 0.56431 0.8221 0.0
C1128 C 0.45417 0.4388 0.84205 0.0
C1129 C 0.45467 0.42454 0.85527 0.0
C1130 C 0.44528 0.41815 0.87819 0.0
C1131 C 0.43511 0.4259 0.88839 0.0
C1132 C 0.43461 0.44027 0.87511 0.0
C1133 C 0.44412 0.44672 0.85214 0.0
C1134 C 0.45202 0.43468 0.79634 0.0
C1135 C 0.43575 0.43507 0.79055 0.0
C1136 C 0.42353 0.42326 0.77205 0.0
C1137 C 0.42724 0.41072 0.75913 0.0
C1138 C 0.444 0.41107 0.76414 0.0
C1139 C 0.45624 0.42295 0.78255 0.0
C1140 C 0.47736 0.46354 0.81519 0.0
C1141 C 0.49539 0.46917 0.82347 0.0
C1142 C 0.50929 0.48777 0.8223 0.0
C1143 C 0.5055 0.50123 0.81258 0.0
C1144 C 0.48737 0.49551 0.80408 0.0
C1145 C 0.4734 0.47687 0.80554 0.0
C1146 C 0.56918 0.58444 0.841 0.0
C1147 C 0.57737 0.57644 0.85575 0.0
C1148 C 0.58501 0.5839 0.87939 0.0
C1149 C 0.58441 0.59936 0.88895 0.0
C1150 C 0.57556 0.60684 0.87445 0.0
C1151 C 0.56814 0.5995 0.85069 0.0
C1152 C 0.57667 0.58634 0.79629 0.0
C1153 C 0.57529 0.59791 0.77827 0.0
C1154 C 0.58977 0.60804 0.76125 0.0
C1155 C 0.60589 0.60662 0.7618 0.0
C1156 C 0.60698 0.59447 0.7792 0.0
C1157 C 0.5926 0.58455 0.79643 0.0
C1158 C 0.54859 0.5589 0.81324 0.0
C1159 C 0.55292 0.54498 0.80794 0.0
C1160 C 0.53891 0.52636 0.80713 0.0
C1161 C 0.5203 0.52117 0.81201 0.0
C1162 C 0.51606 0.53518 0.81717 0.0
C1163 C 0.53005 0.55379 0.81769 0.0
H1164 H 0.71858 0.92361 0.50458 0.0
N1165 N 0.69857 0.91262 0.54665 0.0
H1166 H 0.71101 0.93337 0.46483 0.0
H1167 H 0.6659 0.91173 0.53558 0.0
H1168 H 0.65807 0.92112 0.49589 0.0
H1169 H 0.67022 0.90593 0.57908 0.0
H1170 H 0.67082 0.92728 0.61139 0.0
H1171 H 0.72772 0.94388 0.56211 0.0
H1172 H 0.72853 0.96526 0.59445 0.0
H1173 H 0.72077 0.89967 0.55909 0.0
H1174 H 0.66346 0.88232 0.54435 0.0
H1175 H 0.71266 0.86729 0.5639 0.0
H1176 H 0.65531 0.84999 0.54785 0.0
H1177 H 0.69294 0.77879 0.53145 0.0
H1178 H 0.69478 0.76643 0.49073 0.0
H1179 H 0.63866 0.75315 0.4738 0.0
H1180 H 0.63674 0.76519 0.51536 0.0
H1181 H 0.63886 0.74743 0.57394 0.0
H1182 H 0.64593 0.72953 0.60401 0.0
H1183 H 0.70351 0.77289 0.60428 0.0
H1184 H 0.69618 0.79089 0.5749 0.0
H1185 H 0.69581 0.80884 0.53663 0.0
H1186 H 0.7041 0.84119 0.53806 0.0
H1187 H 0.65187 0.82569 0.57459 0.0
N1188 N 0.66258 0.77892 0.55141 0.0
H1189 H 0.64331 0.79305 0.57194 0.0
C1190 C 0.69293 0.91698 0.52305 0.0
C1191 C 0.70529 0.92289 0.50266 0.0
C1192 C 0.70088 0.92836 0.47995 0.0
C1193 C 0.6839 0.92802 0.47717 0.0
C1194 C 0.67133 0.92175 0.49751 0.0
C1195 C 0.67577 0.91626 0.52022 0.0
C1196 C 0.69896 0.92345 0.56809 0.0
C1197 C 0.68304 0.91873 0.58254 0.0
C1198 C 0.68339 0.93096 0.60095 0.0
C1199 C 0.69971 0.94799 0.60539 0.0
C1200 C 0.71581 0.95218 0.59171 0.0
C1201 C 0.71538 0.94005 0.57319 0.0
C1202 C 0.69285 0.89344 0.55108 0.0
C1203 C 0.70643 0.88883 0.55694 0.0
C1204 C 0.70177 0.87032 0.55945 0.0
C1205 C 0.68334 0.85593 0.55594 0.0
C1206 C 0.66961 0.86064 0.55091 0.0
C1207 C 0.67428 0.8792 0.54866 0.0
C1208 C 0.66458 0.77287 0.5266 0.0
C1209 C 0.68101 0.77333 0.51907 0.0
C1210 C 0.6821 0.76634 0.49556 0.0
C1211 C 0.66687 0.75879 0.4789 0.0
C1212 C 0.65057 0.75865 0.48627 0.0
C1213 C 0.64948 0.76563 0.50989 0.0
C1214 C 0.66691 0.7704 0.57205 0.0
C1215 C 0.65291 0.75322 0.58098 0.0
C1216 C 0.65703 0.74296 0.59794 0.0
C1217 C 0.67536 0.74964 0.60624 0.0
C1218 C 0.68924 0.76737 0.59839 0.0
C1219 C 0.68506 0.77768 0.58147 0.0
C1220 C 0.66873 0.7984 0.55389 0.0
C1221 C 0.6861 0.8123 0.54496 0.0
C1222 C 0.69093 0.83094 0.54604 0.0
C1223 C 0.67863 0.83615 0.55634 0.0
C1224 C 0.66155 0.82222 0.56608 0.0
C1225 C 0.65668 0.80357 0.56478 0.0
H1226 H 0.26901 0.88795 0.52621 0.0
N1227 N 0.24872 0.89579 0.55715 0.0
H1228 H 0.28064 0.90094 0.48404 0.0
H1229 H 0.24087 0.91932 0.53096 0.0
H1230 H 0.25248 0.93243 0.48931 0.0
H1231 H 0.23607 0.91818 0.57526 0.0
H1232 H 0.25371 0.94551 0.60222 0.0
H1233 H 0.27923 0.90447 0.58289 0.0
H1234 H 0.29655 0.93111 0.61074 0.0
H1235 H 0.24162 0.86457 0.57964 0.0
H1236 H 0.21486 0.89133 0.54371 0.0
H1237 H 0.21178 0.83592 0.58312 0.0
H1238 H 0.18512 0.8625 0.54567 0.0
H1239 H 0.1161 0.74204 0.54083 0.0
H1240 H 0.10075 0.72926 0.50044 0.0
H1241 H 0.11012 0.7833 0.47873 0.0
H1242 H 0.12451 0.79561 0.5197 0.0
H1243 H 0.09942 0.7826 0.55677 0.0
H1244 H 0.07215 0.76847 0.58431 0.0
H1245 H 0.09787 0.74474 0.63014 0.0
H1246 H 0.125 0.75854 0.60206 0.0
H1247 H 0.16285 0.78261 0.55381 0.0
H1248 H 0.19162 0.81237 0.55549 0.0
H1249 H 0.16014 0.83975 0.57018 0.0
N1250 N 0.12847 0.77601 0.55854 0.0
H1251 H 0.13137 0.8099 0.56722 0.0
C1252 C 0.25401 0.90253 0.53167 0.0
C1253 C 0.26519 0.89747 0.51802 0.0
C1254 C 0.27192 0.905 0.49408 0.0
C1255 C 0.26749 0.91772 0.48332 0.0
C1256 C 0.25593 0.92247 0.49687 0.0
C1257 C 0.24929 0.91498 0.52081 0.0
C1258 C 0.2566 0.90955 0.57677 0.0
C1259 C 0.24917 0.92086 0.58317 0.0
C1260 C 0.25921 0.93639 0.59874 0.0
C1261 C 0.27674 0.94072 0.60821 0.0
C1262 C 0.28334 0.92847 0.60324 0.0
C1263 C 0.27341 0.91314 0.58758 0.0
C1264 C 0.23056 0.87995 0.56108 0.0
C1265 C 0.22925 0.86423 0.57257 0.0
C1266 C 0.21219 0.84782 0.57427 0.0
C1267 C 0.19601 0.84669 0.56415 0.0
C1268 C 0.19722 0.86281 0.55372 0.0
C1269 C 0.21432 0.87933 0.55236 0.0
C1270 C 0.1216 0.76974 0.53326 0.0
C1271 C 0.11502 0.75113 0.52716 0.0
C1272 C 0.10632 0.7439 0.50397 0.0
C1273 C 0.10412 0.75521 0.48618 0.0
C1274 C 0.11126 0.77407 0.49206 0.0
C1275 C 0.11975 0.78123 0.51543 0.0
C1276 C 0.11415 0.77134 0.57719 0.0
C1277 C 0.09938 0.77467 0.57298 0.0
C1278 C 0.08381 0.76659 0.5887 0.0
C1279 C 0.08289 0.75541 0.60917 0.0
C1280 C 0.09829 0.75338 0.61456 0.0
C1281 C 0.11374 0.76121 0.59857 0.0
C1282 C 0.14502 0.79394 0.56064 0.0
C1283 C 0.16221 0.79505 0.55749 0.0
C1284 C 0.17865 0.8121 0.55869 0.0
C1285 C 0.17831 0.82854 0.56331 0.0
C1286 C 0.16098 0.82743 0.56644 0.0
C1287 C 0.14447 0.8103 0.56499 0.0
H1288 H 0.22779 0.29831 0.52108 0.0
N1289 N 0.22448 0.32186 0.55114 0.0
H1290 H 0.24391 0.3048 0.48051 0.0
H1291 H 0.24165 0.35533 0.52686 0.0
H1292 H 0.25773 0.36204 0.48593 0.0
H1293 H 0.25501 0.35367 0.56761 0.0
H1294 H 0.27787 0.35564 0.5983 0.0
H1295 H 0.22172 0.29494 0.5808 0.0
H1296 H 0.24472 0.29659 0.61104 0.0
H1297 H 0.1923 0.3065 0.52697 0.0
H1298 H 0.22435 0.34836 0.5826 0.0
H1299 H 0.1679 0.31431 0.52974 0.0
H1300 H 0.19948 0.3553 0.58697 0.0
H1301 H 0.09472 0.32486 0.5378 0.0
H1302 H 0.08094 0.32339 0.49633 0.0
H1303 H 0.12313 0.38024 0.48215 0.0
H1304 H 0.13672 0.38156 0.52379 0.0
H1305 H 0.10956 0.37546 0.57192 0.0
H1306 H 0.08444 0.36775 0.60146 0.0
H1307 H 0.08473 0.31772 0.62227 0.0
H1308 H 0.10886 0.32488 0.59139 0.0
H1309 H 0.11971 0.3205 0.55188 0.0
H1310 H 0.14377 0.31217 0.55299 0.0
H1311 H 0.18477 0.36941 0.56821 0.0
N1312 N 0.12443 0.35517 0.55878 0.0
H1313 H 0.16015 0.37718 0.56904 0.0
C1314 C 0.23349 0.32625 0.52683 0.0
C1315 C 0.2342 0.3122 0.51338 0.0
C1316 C 0.24334 0.31595 0.49018 0.0
C1317 C 0.252 0.33393 0.47989 0.0
C1318 C 0.2513 0.34809 0.49343 0.0
C1319 C 0.24208 0.34428 0.51673 0.0
C1320 C 0.2366 0.32409 0.572 0.0
C1321 C 0.25247 0.34124 0.57744 0.0
C1322 C 0.26562 0.34231 0.59485 0.0
C1323 C 0.26326 0.32624 0.607 0.0
C1324 C 0.24692 0.30929 0.60234 0.0
C1325 C 0.23376 0.30827 0.58503 0.0
C1326 C 0.21021 0.32671 0.55446 0.0
C1327 C 0.19395 0.31721 0.54006 0.0
C1328 C 0.17988 0.32158 0.54193 0.0
C1329 C 0.18149 0.33538 0.55878 0.0
C1330 C 0.19776 0.3448 0.57347 0.0
C1331 C 0.21206 0.34068 0.57114 0.0
C1332 C 0.11679 0.35337 0.53377 0.0
C1333 C 0.10115 0.33689 0.52558 0.0
C1334 C 0.0933 0.33608 0.50187 0.0
C1335 C 0.1009 0.35174 0.48599 0.0
C1336 C 0.1168 0.36803 0.49406 0.0
C1337 C 0.12466 0.3688 0.51771 0.0
C1338 C 0.11124 0.35089 0.57909 0.0
C1339 C 0.1043 0.3629 0.58304 0.0
C1340 C 0.08997 0.35849 0.60021 0.0
C1341 C 0.08238 0.34204 0.61452 0.0
C1342 C 0.08986 0.33032 0.61131 0.0
C1343 C 0.10395 0.33455 0.59362 0.0
C1344 C 0.1381 0.34946 0.5609 0.0
C1345 C 0.1338 0.33117 0.55605 0.0
C1346 C 0.14772 0.32649 0.5563 0.0
C1347 C 0.16642 0.34011 0.5605 0.0
C1348 C 0.17059 0.3584 0.56541 0.0
C1349 C 0.15656 0.36294 0.56576 0.0
C1350 C 0.00952 0.39346 0.10679 0.0
C1351 C 0.00599 0.39989 0.08409 0.0
H1352 H 0.01584 0.39862 0.14635 0.0
C1353 C 0.0043 0.41583 0.08451 0.0
H1354 H 0.011 0.38128 0.10698 0.0
C1355 C 0.00678 0.42555 0.10708 0.0
C1356 C 0.01137 0.41971 0.12946 0.0
H1357 H 0.0016 0.42109 0.06725 0.0
H1358 H 0.006 0.43813 0.1068 0.0
C1359 C 0.01239 0.40341 0.12924 0.0
C1360 C 0.62837 0.6031 0.08832 0.0
C1361 C 0.62405 0.61649 0.08007 0.0
H1362 H 0.62383 0.58255 0.1161 0.0
C1363 C 0.61117 0.61913 0.0939 0.0
H1364 H 0.63818 0.60069 0.07796 0.0
C1365 C 0.60308 0.6089 0.11585 0.0
C1366 C 0.60762 0.5957 0.12445 0.0
H1367 H 0.60759 0.6294 0.08806 0.0
H1368 H 0.59368 0.61175 0.12647 0.0
C1369 C 0.62021 0.59278 0.11024 0.0
C1370 C 0.41247 0.03148 0.09814 0.0
C1371 C 0.40588 0.01603 0.08206 0.0
H1372 H 0.42597 0.044 0.13309 0.0
C1373 C 0.4088 0.00141 0.08886 0.0
H1374 H 0.41038 0.04293 0.09344 0.0
C1375 C 0.41776 0.00202 0.1115 0.0
C1376 C 0.42404 0.01729 0.12788 0.0
H1377 H 0.40393 0.98933 0.07681 0.0
H1378 H 0.41976 0.9905 0.11621 0.0
C1379 C 0.42147 0.03211 0.12079 0.0
C1380 C 0.41305 0.01913 0.94198 0.0
C1381 C 0.39978 0.00341 0.95512 0.0
H1382 H 0.43017 0.02977 0.90924 0.0
C1383 C 0.39454 0.98577 0.94552 0.0
H1384 H 0.41722 0.03292 0.94882 0.0
C1385 C 0.40236 0.9839 0.92307 0.0
C1386 C 0.41532 0.99965 0.90942 0.0
H1387 H 0.38441 0.97341 0.95538 0.0
H1388 H 0.39821 0.97007 0.91647 0.0
C1389 C 0.42058 0.01729 0.91931 0.0
C1390 C 0.99501 0.41085 0.95107 0.0
C1391 C 0.00999 0.40767 0.95331 0.0
H1392 H 0.98045 0.42025 0.92765 0.0
C1393 C 0.02259 0.41263 0.93315 0.0
H1394 H 0.98512 0.40731 0.96634 0.0
C1395 C 0.01983 0.41998 0.91081 0.0
C1396 C 0.00441 0.42247 0.90824 0.0
H1397 H 0.03426 0.41032 0.93435 0.0
H1398 H 0.02938 0.42306 0.89523 0.0
C1399 C 0.99226 0.41817 0.92883 0.0
C1400 C 0.61283 0.63583 0.93847 0.0
C1401 C 0.61366 0.62499 0.95817 0.0
H1402 H 0.60343 0.63637 0.90104 0.0
C1403 C 0.60393 0.60561 0.95565 0.0
H1404 H 0.6203 0.65081 0.9398 0.0
C1405 C 0.59396 0.59726 0.93357 0.0
C1406 C 0.59368 0.6081 0.91336 0.0
H1407 H 0.60424 0.59689 0.97061 0.0
H1408 H 0.58661 0.58228 0.93229 0.0
C1409 C 0.60305 0.6275 0.91626 0.0
C1410 C 0.0305 0.63577 0.93099 0.0
C1411 C 0.01854 0.62504 0.95056 0.0
H1412 H 0.04041 0.63619 0.8936 0.0
C1413 C 0.008 0.60572 0.94761 0.0
H1414 H 0.0387 0.65071 0.93268 0.0
C1415 C 0.00924 0.5973 0.92541 0.0
C1416 C 0.02086 0.60803 0.90545 0.0
H1417 H 0.99875 0.59708 0.96248 0.0
H1418 H 1.00107 0.58235 0.92394 0.0
C1419 C 0.03155 0.62739 0.90863 0.0
C1420 C 0.39679 0.40698 0.93791 0.0
C1421 C 0.40498 0.4021 0.95746 0.0
H1422 H 0.39989 0.41829 0.90058 0.0
C1423 C 0.42345 0.40625 0.95476 0.0
H1424 H 0.38257 0.40394 0.93948 0.0
C1425 C 0.43333 0.41448 0.93269 0.0
C1426 C 0.425 0.41875 0.91268 0.0
H1427 H 0.43022 0.40282 0.96957 0.0
H1428 H 0.44749 0.41732 0.93117 0.0
C1429 C 0.40673 0.41525 0.91571 0.0
C1430 C 0.60244 0.98258 0.93876 0.0
C1431 C 0.61559 1.00028 0.94747 0.0
H1432 H 0.58224 0.96669 0.91053 0.0
C1433 C 0.61854 0.0159 0.9336 0.0
H1434 H 0.59977 0.97031 0.94918 0.0
C1435 C 0.60876 0.01385 0.91122 0.0
C1436 C 0.59562 0.99614 0.90231 0.0
H1437 H 0.62867 0.02973 0.93981 0.0
H1438 H 0.61182 0.02618 0.90064 0.0
C1439 C 0.59247 0.98053 0.91651 0.0
C1440 C 0.62117 0.02055 0.09202 0.0
C1441 C 0.61351 0.00785 0.07195 0.0
H1442 H 0.61759 0.02738 0.12994 0.0
C1443 C 0.59527 0.99292 0.07418 0.0
H1444 H 0.6352 0.03217 0.09084 0.0
C1445 C 0.58525 0.99017 0.09648 0.0
C1446 C 0.5932 0.00231 0.11705 0.0
H1447 H 0.58893 0.98295 0.059 0.0
H1448 H 0.57139 0.97827 0.09783 0.0
C1449 C 0.61108 0.01782 0.11436 0.0
C1450 C 0.01475 0.60813 0.07963 0.0
C1451 C 0.00384 0.61649 0.07669 0.0
H1452 H 0.02237 0.59228 0.10344 0.0
C1453 C 0.99175 0.6149 0.09626 0.0
H1454 H 0.02414 0.60904 0.06479 0.0
C1455 C 0.99099 0.6056 0.11864 0.0
C1456 C 0.00215 0.59749 0.12188 0.0
H1457 H 0.98327 0.62132 0.09459 0.0
H1458 H 0.98203 0.60528 0.1337 0.0
C1459 C 0.01384 0.59865 0.10189 0.0
C1460 C 0.41917 0.41323 0.08688 0.0
C1461 C 0.40701 0.394 0.08572 0.0
H1462 H 0.43826 0.43637 0.10917 0.0
C1463 C 0.40513 0.38315 0.10703 0.0
H1464 H 0.42106 0.42195 0.07065 0.0
C1465 C 0.41475 0.39148 0.12939 0.0
C1466 C 0.42662 0.41082 0.13079 0.0
H1467 H 0.39581 0.36829 0.10667 0.0
H1468 H 0.41243 0.3828 0.14579 0.0
C1469 C 0.42894 0.42152 0.10906 0.0
C1470 C 0.6544 0.72574 0.4232 0.0
C1471 C 0.67115 0.73385 0.40965 0.0
H1472 H 0.63995 0.7271 0.45589 0.0
C1473 C 0.68608 0.75071 0.41819 0.0
H1474 H 0.64267 0.71273 0.41707 0.0
C1475 C 0.68448 0.75905 0.4402 0.0
C1476 C 0.66795 0.75067 0.45433 0.0
H1477 H 0.69913 0.75739 0.40802 0.0
H1478 H 0.69629 0.77203 0.44625 0.0
C1479 C 0.65282 0.73404 0.44536 0.0
C1480 C 0.27215 0.93915 0.41851 0.0
C1481 C 0.29105 0.94622 0.41318 0.0
H1482 H 0.24984 0.92435 0.44459 0.0
C1483 C 0.30192 0.94288 0.43033 0.0
H1484 H 0.26338 0.9414 0.40559 0.0
C1485 C 0.29416 0.93315 0.45279 0.0
C1486 C 0.27538 0.92661 0.45853 0.0
H1487 H 0.31653 0.94818 0.42673 0.0
H1488 H 0.30303 0.93133 0.46606 0.0
C1489 C 0.26441 0.92946 0.44092 0.0
C1490 C 0.08047 0.36567 0.43184 0.0
C1491 C 0.07351 0.3501 0.41596 0.0
H1492 H 0.09445 0.37833 0.46644 0.0
C1493 C 0.07602 0.33524 0.42291 0.0
H1494 H 0.0787 0.37732 0.42702 0.0
C1495 C 0.08505 0.33582 0.4455 0.0
C1496 C 0.09186 0.35131 0.46154 0.0
H1497 H 0.07081 0.32305 0.41104 0.0
H1498 H 0.08675 0.32415 0.45038 0.0
C1499 C 0.08958 0.36629 0.45435 0.0
C1500 C 0.0933 0.36516 0.28746 0.0
C1501 C 0.07526 0.34982 0.28929 0.0
H1502 H 0.11714 0.38092 0.26416 0.0
C1503 C 0.06782 0.33777 0.26851 0.0
H1504 H 0.09949 0.37466 0.30318 0.0
C1505 C 0.07797 0.34142 0.24601 0.0
C1506 C 0.09571 0.35724 0.24387 0.0
H1507 H 0.05394 0.32585 0.26936 0.0
H1508 H 0.07166 0.33227 0.22999 0.0
C1509 C 0.10339 0.36882 0.26504 0.0
C1510 C 0.6774 0.74973 0.28131 0.0
C1511 C 0.68966 0.74327 0.28702 0.0
H1512 H 0.66996 0.76462 0.25533 0.0
C1513 C 0.70457 0.74769 0.27062 0.0
H1514 H 0.66582 0.74662 0.29364 0.0
C1515 C 0.70688 0.7579 0.24858 0.0
C1516 C 0.69433 0.76394 0.24245 0.0
H1517 H 0.71422 0.74287 0.27449 0.0
H1518 H 0.71815 0.76052 0.23591 0.0
C1519 C 0.67972 0.75995 0.25928 0.0
C1520 C 0.26822 0.93986 0.28578 0.0
C1521 C 0.27986 0.95915 0.2878 0.0
H1522 H 0.24978 0.91702 0.26246 0.0
C1523 C 0.28127 0.9704 0.26719 0.0
H1524 H 0.26676 0.93083 0.30142 0.0
C1525 C 0.27172 0.96245 0.24467 0.0
C1526 C 0.26048 0.94308 0.24235 0.0
H1527 H 0.2902 0.9853 0.26818 0.0
H1528 H 0.27367 0.97147 0.2288 0.0
C1529 C 0.2586 0.93193 0.26337 0.0
C1530 C 0.67458 0.947 0.26566 0.0
C1531 C 0.6896 0.96183 0.27806 0.0
H1532 H 0.66532 0.92836 0.23434 0.0
C1533 C 0.70751 0.96895 0.26806 0.0
H1534 H 0.66057 0.9413 0.27281 0.0
C1535 C 0.71034 0.96122 0.24616 0.0
C1536 C 0.69527 0.94635 0.23367 0.0
H1537 H 0.71936 0.98031 0.27733 0.0
H1538 H 0.72437 0.96678 0.23922 0.0
C1539 C 0.67735 0.93945 0.24368 0.0
C1540 C 0.06271 0.74366 0.27327 0.0
C1541 C 0.071 0.73968 0.29363 0.0
H1542 H 0.0659 0.75402 0.23533 0.0
C1543 C 0.08981 0.7448 0.29193 0.0
H1544 H 0.04822 0.73985 0.27404 0.0
C1545 C 0.09989 0.75292 0.26994 0.0
C1546 C 0.09142 0.75609 0.24905 0.0
H1547 H 0.09665 0.74207 0.30739 0.0
H1548 H 0.11428 0.75639 0.26912 0.0
C1549 C 0.07284 0.75181 0.25115 0.0
C1550 C 0.27827 0.35549 0.28043 0.0
C1551 C 0.28106 0.34058 0.28593 0.0
H1552 H 0.26762 0.36747 0.25423 0.0
C1553 C 0.27443 0.32568 0.26889 0.0
H1554 H 0.28322 0.36718 0.29321 0.0
C1555 C 0.2655 0.32586 0.24656 0.0
C1556 C 0.26311 0.34099 0.24074 0.0
H1557 H 0.27642 0.31402 0.27258 0.0
H1558 H 0.26096 0.31438 0.23349 0.0
C1559 C 0.26945 0.35572 0.25804 0.0
C1560 C 0.28938 0.35603 0.42939 0.0
C1561 C 0.28202 0.34259 0.41018 0.0
H1562 H 0.28571 0.36379 0.46671 0.0
C1563 C 0.2642 0.32713 0.41328 0.0
H1564 H 0.3031 0.36808 0.4275 0.0
C1565 C 0.25424 0.32474 0.43551 0.0
C1566 C 0.26188 0.33769 0.45528 0.0
H1567 H 0.25805 0.31662 0.39871 0.0
H1568 H 0.24062 0.31254 0.43737 0.0
C1569 C 0.2794 0.3536 0.45178 0.0
C1570 C 0.66946 0.95407 0.43212 0.0
C1571 C 0.67518 0.95072 0.4087 0.0
H1572 H 0.6679 0.94968 0.47219 0.0
C1573 C 0.68246 0.93876 0.40773 0.0
H1574 H 0.66385 0.96327 0.43346 0.0
C1575 C 0.6847 0.93091 0.42983 0.0
C1576 C 0.67975 0.93487 0.45345 0.0
H1577 H 0.6869 0.93582 0.38993 0.0
H1578 H 0.69059 0.92195 0.42845 0.0
C1579 C 0.67173 0.94623 0.45429 0.0
C1580 C 0.07169 0.74525 0.43024 0.0
C1581 C 0.07252 0.73075 0.41801 0.0
H1582 H 0.08054 0.76398 0.46151 0.0
C1583 C 0.08419 0.72465 0.42784 0.0
H1584 H 0.06273 0.75019 0.42317 0.0
C1585 C 0.09476 0.73284 0.44958 0.0
C1586 C 0.0937 0.74716 0.46219 0.0
H1587 H 0.08522 0.71359 0.41867 0.0
H1588 H 0.1038 0.72796 0.45645 0.0
C1589 C 0.08205 0.75327 0.45215 0.0
C1590 C 0.36258 0.09353 0.74051 0.0
C1591 C 0.34792 0.07524 0.73765 0.0
H1592 H 0.37646 0.11711 0.76478 0.0
C1593 C 0.3349 0.0671 0.75727 0.0
H1594 H 0.37275 0.10026 0.72565 0.0
C1595 C 0.33711 0.07678 0.77988 0.0
C1596 C 0.35239 0.09473 0.78321 0.0
H1597 H 0.32348 0.053 0.75558 0.0
H1598 H 0.32737 0.0699 0.79516 0.0
C1599 C 0.36477 0.10317 0.76299 0.0
C1600 C 0.93068 0.27995 0.74834 0.0
C1601 C 0.94909 0.28375 0.74641 0.0
H1602 H 0.90655 0.27014 0.7716 0.0
C1603 C 0.95698 0.27939 0.76689 0.0
H1604 H 0.92415 0.28305 0.73284 0.0
C1605 C 0.94685 0.272 0.78922 0.0
C1606 C 0.92869 0.26893 0.79148 0.0
H1607 H 0.97114 0.28219 0.76594 0.0
H1608 H 0.95348 0.26936 0.80503 0.0
C1609 C 0.92061 0.27264 0.7706 0.0
C1610 C 0.73866 0.67324 0.75907 0.0
C1611 C 0.73989 0.68858 0.74631 0.0
H1612 H 0.74689 0.6634 0.79102 0.0
C1613 C 0.75179 0.70643 0.75583 0.0
H1614 H 0.72953 0.65929 0.75227 0.0
C1615 C 0.76206 0.70885 0.77791 0.0
C1616 C 0.76051 0.69345 0.7911 0.0
H1617 H 0.75309 0.71852 0.7463 0.0
H1618 H 0.77119 0.7228 0.78465 0.0
C1619 C 0.74876 0.67562 0.78125 0.0
C1620 C 0.74446 0.6868 0.60807 0.0
C1621 C 0.73141 0.67135 0.62192 0.0
H1622 H 0.76135 0.69669 0.57493 0.0
C1623 C 0.72638 0.65353 0.6133 0.0
H1624 H 0.74853 0.70072 0.61419 0.0
C1625 C 0.73404 0.65119 0.59103 0.0
C1626 C 0.74668 0.66662 0.57662 0.0
H1627 H 0.71646 0.64137 0.62371 0.0
H1628 H 0.72997 0.63724 0.5851 0.0
C1629 C 0.75191 0.68447 0.5856 0.0
C1630 C 0.34036 0.07372 0.60063 0.0
C1631 C 0.35619 0.07559 0.61283 0.0
H1632 H 0.3294 0.08079 0.56872 0.0
C1633 C 0.37372 0.08738 0.6023 0.0
H1634 H 0.32664 0.06464 0.60823 0.0
C1635 C 0.37537 0.097 0.57985 0.0
C1636 C 0.3595 0.09483 0.56722 0.0
H1637 H 0.38618 0.0892 0.6114 0.0
H1638 H 0.38913 0.10615 0.57245 0.0
C1639 C 0.34197 0.08312 0.57802 0.0
C1640 C 0.94892 0.26561 0.61756 0.0
C1641 C 0.95247 0.28389 0.61985 0.0
H1642 H 0.93913 0.24164 0.59409 0.0
C1643 C 0.94786 0.29177 0.59963 0.0
H1644 H 0.95217 0.25907 0.63287 0.0
C1645 C 0.94039 0.28173 0.57723 0.0
C1646 C 0.93749 0.26367 0.57468 0.0
H1647 H 0.95043 0.30583 0.60088 0.0
H1648 H 0.93748 0.28831 0.56163 0.0
C1649 C 0.94153 0.25564 0.59528 0.0
C1650 C 0.37165 0.29449 0.60695 0.0
C1651 C 0.35409 0.29009 0.61605 0.0
H1652 H 0.38712 0.29023 0.57812 0.0
C1653 C 0.33826 0.27771 0.60223 0.0
H1654 H 0.38409 0.30392 0.61732 0.0
C1655 C 0.33997 0.27021 0.57944 0.0
C1656 C 0.35754 0.27464 0.57009 0.0
H1657 H 0.32453 0.27417 0.60868 0.0
H1658 H 0.32746 0.2613 0.56888 0.0
C1659 C 0.37336 0.28674 0.58435 0.0
C1660 C 0.72413 0.07818 0.60478 0.0
C1661 C 0.73332 0.07202 0.62094 0.0
H1662 H 0.72484 0.09151 0.56979 0.0
C1663 C 0.7511 0.07547 0.61426 0.0
H1664 H 0.7104 0.07568 0.6094 0.0
C1665 C 0.75936 0.0845 0.59162 0.0
C1666 C 0.75006 0.09037 0.57518 0.0
H1667 H 0.75857 0.07093 0.62634 0.0
H1668 H 0.77304 0.08687 0.58696 0.0
C1669 C 0.73244 0.0873 0.58216 0.0
C1670 C 0.93459 0.65462 0.61307 0.0
C1671 C 0.94702 0.67235 0.62245 0.0
H1672 H 0.91501 0.63864 0.58427 0.0
C1673 C 0.94915 0.68794 0.60935 0.0
H1674 H 0.9326 0.64236 0.62289 0.0
C1675 C 0.93952 0.68588 0.58683 0.0
C1676 C 0.92721 0.66815 0.57706 0.0
H1677 H 0.95879 0.7018 0.61603 0.0
H1678 H 0.94224 0.69828 0.57671 0.0
C1679 C 0.92464 0.65253 0.59077 0.0
C1680 C 0.96043 0.70545 0.75417 0.0
C1681 C 0.9575 0.68799 0.74693 0.0
H1682 H 0.95475 0.72104 0.78125 0.0
C1683 C 0.94635 0.67256 0.7622 0.0
H1684 H 0.9689 0.71758 0.74269 0.0
C1685 C 0.93851 0.67455 0.78445 0.0
C1686 C 0.94142 0.692 0.79188 0.0
H1687 H 0.94394 0.65893 0.75721 0.0
H1688 H 0.9305 0.66241 0.7961 0.0
C1689 C 0.9524 0.70743 0.77636 0.0
C1690 C 0.3261 0.2741 0.75687 0.0
C1691 C 0.34219 0.28187 0.74192 0.0
H1692 H 0.31274 0.25938 0.79071 0.0
C1693 C 0.35719 0.27975 0.74952 0.0
H1694 H 0.31434 0.27556 0.75155 0.0
C1695 C 0.35628 0.27043 0.77197 0.0
C1696 C 0.34031 0.26298 0.78722 0.0
H1697 H 0.36978 0.28557 0.73836 0.0
H1698 H 0.3681 0.26911 0.77742 0.0
C1699 C 0.32516 0.26475 0.77926 0.0
C1700 C 0.73931 0.05525 0.7693 0.0
C1701 C 0.73847 0.06578 0.74918 0.0
H1702 H 0.74838 0.0552 0.80709 0.0
C1703 C 0.74736 0.08514 0.75171 0.0
H1704 H 0.73247 0.04029 0.76796 0.0
C1705 C 0.75683 0.09378 0.77399 0.0
C1706 C 0.75742 0.08324 0.7944 0.0
H1707 H 0.74703 0.09363 0.73644 0.0
H1708 H 0.76373 0.10874 0.77514 0.0
C1709 C 0.74857 0.06385 0.79169 0.0
C1710 C 0.06141 0.36362 0.04252 0.0
C1711 C 0.06029 0.37984 0.04102 0.0
H1712 H 0.07567 0.35047 0.05773 0.0
C1713 C 0.07389 0.39593 0.05313 0.0
H1714 H 0.05117 0.35103 0.0332 0.0
C1715 C 0.08767 0.39552 0.0678 0.0
C1716 C 0.08833 0.37904 0.07037 0.0
H1717 H 0.0733 0.40861 0.05246 0.0
H1718 H 0.09717 0.4079 0.07813 0.0
C1719 C 0.07537 0.36327 0.05682 0.0
C1720 C 0.68307 0.70941 0.06754 0.0
C1721 C 0.66832 0.70247 0.05019 0.0
H1722 H 0.69959 0.73047 0.09421 0.0
C1723 C 0.65929 0.71261 0.04571 0.0
H1724 H 0.69024 0.70187 0.07157 0.0
C1725 C 0.66485 0.72931 0.05857 0.0
C1726 C 0.67953 0.73615 0.07616 0.0
H1727 H 0.64787 0.7076 0.03243 0.0
H1728 H 0.65769 0.73687 0.05468 0.0
C1729 C 0.68854 0.72595 0.08041 0.0
C1730 C 0.31147 0.98186 0.06022 0.0
C1731 C 0.3218 0.9747 0.04889 0.0
H1732 H 0.28764 0.9762 0.08223 0.0
C1733 C 0.31512 0.95555 0.05014 0.0
H1734 H 0.31626 0.99656 0.05952 0.0
C1735 C 0.29876 0.94389 0.06335 0.0
C1736 C 0.28865 0.95114 0.07517 0.0
H1737 H 0.32282 0.94966 0.0416 0.0
H1738 H 0.29412 0.92924 0.06458 0.0
C1739 C 0.29502 0.97019 0.07308 0.0
C1740 C 0.35516 0.04681 0.96121 0.0
C1741 C 0.36693 0.05159 0.98232 0.0
H1742 H 0.34568 0.05634 0.93024 0.0
C1743 C 0.37744 0.07031 0.98942 0.0
H1744 H 0.34692 0.0325 0.95521 0.0
C1745 C 0.37659 0.08403 0.97522 0.0
C1746 C 0.36524 0.07932 0.95358 0.0
H1747 H 0.38658 0.0744 0.00568 0.0
H1748 H 0.38497 0.09836 0.98105 0.0
C1749 C 0.35435 0.0605 0.94698 0.0
C1750 C 0.97553 0.31984 0.96599 0.0
C1751 C 0.97114 0.32735 0.98685 0.0
H1752 H 0.96548 0.29992 0.93614 0.0
C1753 C 0.9526 0.31895 0.99491 0.0
H1754 H 0.98969 0.32601 0.95926 0.0
C1755 C 0.93862 0.30378 0.98171 0.0
C1756 C 0.94293 0.29672 0.96019 0.0
H1757 H 0.9488 0.32441 0.01097 0.0
H1758 H 0.92441 0.2978 0.98809 0.0
C1759 C 0.96162 0.30475 0.95282 0.0
C1760 C 0.69866 0.6579 0.95436 0.0
C1761 C 0.69852 0.65834 0.98091 0.0
H1762 H 0.71473 0.66235 0.9208 0.0
C1763 C 0.71489 0.66298 0.99422 0.0
H1764 H 0.68622 0.65433 0.94363 0.0
C1765 C 0.73134 0.66789 0.98109 0.0
C1766 C 0.73151 0.66774 0.95449 0.0
H1767 H 0.71514 0.66349 0.01471 0.0
H1768 H 0.74398 0.67201 0.99166 0.0
C1769 C 0.71493 0.66237 0.9413 0.0
C1770 C 0.98157 0.68164 0.96988 0.0
C1771 C 0.97439 0.66446 0.98214 0.0
H1772 H 0.97592 0.69962 0.94768 0.0
C1773 C 0.95511 0.65223 0.98197 0.0
H1774 H 0.99636 0.69136 0.9696 0.0
C1775 C 0.94328 0.65701 0.96934 0.0
C1776 C 0.95053 0.67418 0.9569 0.0
H1777 H 0.94919 0.63888 0.99124 0.0
H1778 H 0.92849 0.6473 0.96932 0.0
C1779 C 0.96981 0.68644 0.95746 0.0
C1780 C 0.37591 0.31727 0.97899 0.0
C1781 C 0.36194 0.32056 0.98778 0.0
H1782 H 0.38254 0.30005 0.95663 0.0
C1783 C 0.34333 0.30742 0.98295 0.0
H1784 H 0.39039 0.3273 0.98236 0.0
C1785 C 0.33873 0.29149 0.96896 0.0
C1786 C 0.35267 0.28858 0.95871 0.0
H1787 H 0.33229 0.30955 0.98982 0.0
H1788 H 0.32418 0.28162 0.96589 0.0
C1789 C 0.37135 0.30156 0.96434 0.0
C1790 C 0.70386 0.06653 0.98632 0.0
C1791 C 0.69881 0.04775 0.98756 0.0
H1792 H 0.72343 0.09362 0.97246 0.0
C1793 C 0.71069 0.04217 0.97696 0.0
H1794 H 0.69497 0.07122 0.99433 0.0
C1795 C 0.72692 0.05492 0.96456 0.0
C1796 C 0.73164 0.07357 0.96232 0.0
H1797 H 0.70719 0.02779 0.97763 0.0
H1798 H 0.73535 0.04997 0.95574 0.0
C1799 C 0.72009 0.07931 0.9737 0.0
C1800 C 0.66278 0.95795 0.03423 0.0
C1801 C 0.65779 0.96919 0.04801 0.0
H1802 H 0.67239 0.93839 0.03597 0.0
C1803 C 0.65751 0.96834 0.07454 0.0
H1804 H 0.66314 0.9584 0.01374 0.0
C1805 C 0.66242 0.95673 0.08713 0.0
C1806 C 0.66804 0.94595 0.07348 0.0
H1807 H 0.65366 0.97681 0.08564 0.0
H1808 H 0.66249 0.95672 0.10763 0.0
C1809 C 0.66808 0.94657 0.04689 0.0
C1810 C 0.047 0.70518 0.07156 0.0
C1811 C 0.05225 0.69807 0.05112 0.0
H1812 H 0.05579 0.72461 0.10196 0.0
C1813 C 0.07113 0.7064 0.04477 0.0
H1814 H 0.03256 0.69903 0.07699 0.0
C1815 C 0.08453 0.72133 0.05896 0.0
C1816 C 0.07932 0.72818 0.07984 0.0
H1817 H 0.07558 0.70126 0.02904 0.0
H1818 H 0.09898 0.72742 0.05366 0.0
C1819 C 0.06035 0.72 0.08577 0.0
C1820 C 0.32453 0.37903 0.06074 0.0
C1821 C 0.32522 0.36462 0.04808 0.0
H1822 H 0.30878 0.38675 0.08451 0.0
C1823 C 0.30925 0.34703 0.0472 0.0
H1824 H 0.33674 0.3927 0.06179 0.0
C1825 C 0.29302 0.3437 0.05945 0.0
C1826 C 0.29252 0.35773 0.07364 0.0
H1827 H 0.30938 0.33574 0.03726 0.0
H1828 H 0.28098 0.32995 0.05816 0.0
C1829 C 0.30842 0.37559 0.07364 0.0
C1830 C 0.70661 0.67331 0.39114 0.0
C1831 C 0.71426 0.69084 0.37975 0.0
H1832 H 0.71135 0.65487 0.41378 0.0
C1833 C 0.73348 0.7031 0.38157 0.0
H1834 H 0.69185 0.66356 0.3901 0.0
C1835 C 0.74474 0.6981 0.39522 0.0
C1836 C 0.73699 0.68068 0.40707 0.0
H1837 H 0.73975 0.71672 0.37298 0.0
H1838 H 0.75947 0.70791 0.39666 0.0
C1839 C 0.71783 0.66828 0.40458 0.0
C1840 C 0.33104 0.04764 0.36681 0.0
C1841 C 0.32124 0.03085 0.3801 0.0
H1842 H 0.34414 0.07728 0.36836 0.0
C1843 C 0.31596 0.0312 0.40523 0.0
H1844 H 0.33527 0.0478 0.34739 0.0
C1845 C 0.32105 0.04799 0.41722 0.0
C1846 C 0.33158 0.0649 0.40439 0.0
H1847 H 0.30839 0.01849 0.416 0.0
H1848 H 0.31747 0.04772 0.43697 0.0
C1849 C 0.3362 0.06451 0.37886 0.0
C1850 C 0.98417 0.30792 0.40019 0.0
C1851 C 0.99285 0.30372 0.38062 0.0
H1852 H 0.96347 0.29763 0.42901 0.0
C1853 C 0.98573 0.2851 0.37369 0.0
H1854 H 0.98935 0.32213 0.40604 0.0
C1855 C 0.9706 0.27094 0.38672 0.0
C1856 C 0.96235 0.27511 0.407 0.0
H1857 H 0.99209 0.28145 0.3586 0.0
H1858 H 0.96557 0.25671 0.38114 0.0
C1859 C 0.96918 0.29382 0.41326 0.0
C1860 C 0.01965 0.38112 0.30013 0.0
C1861 C 0.03129 0.38574 0.32136 0.0
H1862 H 0.00975 0.39082 0.2699 0.0
C1863 C 0.04075 0.4042 0.32979 0.0
H1864 H 0.01218 0.36701 0.29314 0.0
C1865 C 0.03923 0.41792 0.31655 0.0
C1866 C 0.0282 0.41343 0.29462 0.0
H1867 H 0.04977 0.40816 0.34618 0.0
H1868 H 0.04698 0.4321 0.3232 0.0
C1869 C 0.01815 0.39479 0.28689 0.0
C1870 C 0.63778 0.65839 0.28516 0.0
C1871 C 0.63835 0.65904 0.31171 0.0
H1872 H 0.62557 0.64186 0.25209 0.0
C1873 C 0.62616 0.6431 0.32549 0.0
H1874 H 0.64699 0.6705 0.27408 0.0
C1875 C 0.6141 0.62658 0.31286 0.0
C1876 C 0.61372 0.62593 0.28629 0.0
H1877 H 0.62639 0.64324 0.34599 0.0
H1878 H 0.60519 0.61428 0.3238 0.0
C1879 C 0.62545 0.64206 0.27259 0.0
C1880 C 0.36553 0.97702 0.30616 0.0
C1881 C 0.36542 0.98914 0.3245 0.0
H1882 H 0.38108 0.97227 0.27805 0.0
C1883 C 0.38208 0.00548 0.33013 0.0
H1884 H 0.3529 0.96434 0.30134 0.0
C1885 C 0.39836 0.00999 0.31687 0.0
C1886 C 0.3983 0.99826 0.29769 0.0
H1887 H 0.38243 0.01507 0.34422 0.0
H1888 H 0.41091 0.02284 0.32133 0.0
C1889 C 0.38176 0.98154 0.29289 0.0
C1890 C 0.61779 0.96795 0.30988 0.0
C1891 C 0.63331 0.98436 0.31829 0.0
H1892 H 0.59286 0.95573 0.28816 0.0
C1893 C 0.63418 0.00134 0.31372 0.0
H1894 H 0.61688 0.95468 0.31297 0.0
C1895 C 0.62007 0.00197 0.30023 0.0
C1896 C 0.60503 0.98568 0.29021 0.0
H1897 H 0.64595 0.01418 0.32025 0.0
H1898 H 0.62124 0.01535 0.29721 0.0
C1899 C 0.60393 0.9686 0.29574 0.0
C1900 C 0.01039 0.64685 0.30423 0.0
C1901 C 0.02667 0.65614 0.31876 0.0
H1902 H 0.994 0.62435 0.27908 0.0
C1903 C 0.03881 0.64906 0.31968 0.0
H1904 H 1.00076 0.65197 0.30319 0.0
C1905 C 0.03501 0.6333 0.30564 0.0
C1906 C 0.01884 0.62417 0.29082 0.0
H1907 H 0.05147 0.65597 0.3307 0.0
H1908 H 0.04476 0.6283 0.30622 0.0
C1909 C 0.00646 0.63097 0.29055 0.0
C1910 C 0.37782 0.39791 0.33018 0.0
C1911 C 0.36215 0.38594 0.31573 0.0
H1912 H 0.40666 0.41905 0.32954 0.0
C1913 C 0.36313 0.38729 0.28925 0.0
H1914 H 0.37739 0.39704 0.35064 0.0
C1915 C 0.37956 0.40008 0.27733 0.0
C1916 C 0.39549 0.4115 0.29163 0.0
H1917 H 0.35122 0.37825 0.27769 0.0
H1918 H 0.38005 0.40051 0.25683 0.0
C1919 C 0.39449 0.41042 0.31817 0.0
C1920 C 0.31796 0.28818 0.37629 0.0
C1921 C 0.32987 0.3075 0.37657 0.0
H1922 H 0.31331 0.26172 0.38908 0.0
C1923 C 0.34693 0.31488 0.38928 0.0
H1924 H 0.30468 0.28211 0.36672 0.0
C1925 C 0.35187 0.30329 0.40188 0.0
C1926 C 0.33982 0.284 0.40226 0.0
H1927 H 0.3564 0.3297 0.38987 0.0
H1928 H 0.36492 0.30955 0.41206 0.0
C1929 C 0.32284 0.27653 0.38919 0.0
C1930 C 0.73346 0.03373 0.39061 0.0
C1931 C 0.71938 0.03298 0.37518 0.0
H1932 H 0.7547 0.04919 0.41778 0.0
C1933 C 0.71735 0.04866 0.37346 0.0
H1934 H 0.73526 0.02179 0.39242 0.0
C1935 C 0.72877 0.06458 0.38756 0.0
C1936 C 0.74227 0.06507 0.40411 0.0
H1937 H 0.7067 0.04852 0.36154 0.0
H1938 H 0.72677 0.07638 0.38576 0.0
C1939 C 0.74468 0.04953 0.40506 0.0
C1940 C 0.9824 0.70614 0.38596 0.0
C1941 C 0.98917 0.69373 0.38643 0.0
H1942 H 0.96097 0.71161 0.39804 0.0
C1943 C 0.97894 0.67679 0.39922 0.0
H1944 H 0.99003 0.71932 0.37629 0.0
C1945 C 0.9624 0.67238 0.41145 0.0
C1946 C 0.95566 0.68481 0.41135 0.0
H1947 H 0.98378 0.66694 0.39999 0.0
H1948 H 0.9551 0.65934 0.42156 0.0
C1949 C 0.96584 0.70177 0.39848 0.0
C1950 C 0.40439 0.03994 0.71274 0.0
C1951 C 0.38494 0.02906 0.71379 0.0
H1952 H 0.43046 0.04351 0.72575 0.0
C1953 C 0.37684 0.01289 0.72855 0.0
H1954 H 0.41099 0.05252 0.70156 0.0
C1955 C 0.38788 0.0077 0.74207 0.0
C1956 C 0.40732 0.01863 0.74139 0.0
H1957 H 0.36189 0.00422 0.72977 0.0
H1958 H 0.38115 0.99528 0.75356 0.0
C1959 C 0.4155 0.03485 0.72662 0.0
C1960 C 0.97756 0.37139 0.70648 0.0
C1961 C 0.9877 0.36312 0.71493 0.0
H1962 H 0.97059 0.39259 0.71264 0.0
C1963 C 0.99942 0.37069 0.736 0.0
H1964 H 0.96844 0.36587 0.69025 0.0
C1965 C 1.00058 0.38584 0.74885 0.0
C1966 C 0.99009 0.39388 0.74093 0.0
H1967 H 0.0074 0.36463 0.74303 0.0
H1968 H 0.00921 0.39078 0.7656 0.0
C1969 C 0.97873 0.38663 0.71938 0.0
C1970 C 0.64471 0.64978 0.73127 0.0
C1971 C 0.65469 0.64278 0.71856 0.0
H1972 H 0.62139 0.6438 0.75467 0.0
C1973 C 0.648 0.62361 0.71905 0.0
H1974 H 0.64951 0.66449 0.73119 0.0
C1975 C 0.63193 0.61175 0.73269 0.0
C1976 C 0.62212 0.61882 0.74573 0.0
H1977 H 0.65542 0.61783 0.70943 0.0
H1978 H 0.62725 0.59707 0.73319 0.0
C1979 C 0.62854 0.63792 0.74457 0.0
C1980 C 0.67694 0.70721 0.62838 0.0
C1981 C 0.69007 0.71438 0.64799 0.0
H1982 H 0.66223 0.71268 0.59976 0.0
C1983 C 0.6981 0.73323 0.65434 0.0
H1984 H 0.67054 0.69277 0.62295 0.0
C1985 C 0.6932 0.7447 0.64109 0.0
C1986 C 0.68014 0.73752 0.6213 0.0
H1987 H 0.70825 0.73913 0.66941 0.0
H1988 H 0.6996 0.75917 0.64637 0.0
C1989 C 0.67205 0.71863 0.6152 0.0
C1990 C 0.2937 0.98318 0.6507 0.0
C1991 C 0.31272 0.99307 0.64474 0.0
H1992 H 0.26733 0.9587 0.644 0.0
C1993 C 0.31965 0.98562 0.62691 0.0
H1994 H 0.28797 0.9886 0.66437 0.0
C1995 C 0.30794 0.96869 0.6153 0.0
C1996 C 0.28894 0.95865 0.62123 0.0
H1997 H 0.3342 0.99293 0.62176 0.0
H1998 H 0.31379 0.96362 0.60128 0.0
C1999 C 0.28189 0.96612 0.63899 0.0
C2000 C 0.03608 0.31342 0.64847 0.0
C2001 C 0.03319 0.32733 0.65847 0.0
H2002 H 0.05345 0.30704 0.62601 0.0
C2003 C 0.04721 0.34591 0.65609 0.0
H2004 H 0.02537 0.29898 0.6499 0.0
C2005 C 0.0636 0.35058 0.64318 0.0
C2006 C 0.06612 0.33681 0.63152 0.0
H2007 H 0.04535 0.35688 0.6639 0.0
H2008 H 0.0741 0.36508 0.6419 0.0
C2009 C 0.05227 0.3181 0.63486 0.0
C2010 C 0.31109 0.33665 0.62819 0.0
C2011 C 0.30688 0.32485 0.64915 0.0
H2012 H 0.30068 0.34618 0.59833 0.0
C2013 C 0.28839 0.31459 0.6574 0.0
H2014 H 0.32521 0.34471 0.62135 0.0
C2015 C 0.27429 0.31557 0.64436 0.0
C2016 C 0.27837 0.3268 0.62273 0.0
H2017 H 0.28473 0.30545 0.6736 0.0
H2018 H 0.26014 0.3073 0.65099 0.0
C2019 C 0.29701 0.33758 0.61509 0.0
C2020 C 0.6862 0.98082 0.63514 0.0
C2021 C 0.70148 0.99162 0.6509 0.0
H2022 H 0.67363 0.95851 0.60854 0.0
C2023 C 0.71552 0.98705 0.65313 0.0
H2024 H 0.67514 0.98397 0.63308 0.0
C2025 C 0.71467 0.97246 0.63902 0.0
C2026 C 0.69967 0.96203 0.6226 0.0
H2027 H 0.72745 0.99511 0.66518 0.0
H2028 H 0.7259 0.96951 0.64062 0.0
C2029 C 0.68527 0.96614 0.62122 0.0
C2030 C 0.04785 0.73155 0.66186 0.0
C2031 C 0.03186 0.71961 0.64794 0.0
H2032 H 0.07679 0.75225 0.66041 0.0
C2033 C 0.03258 0.72032 0.6214 0.0
H2034 H 0.04764 0.73123 0.68235 0.0
C2035 C 0.04902 0.73253 0.60897 0.0
C2036 C 0.06518 0.74404 0.6228 0.0
H2037 H 0.02044 0.71132 0.6102 0.0
H2038 H 0.04926 0.7325 0.58847 0.0
C2039 C 0.06447 0.74352 0.64937 0.0
C2040 C 0.98451 0.62391 0.71117 0.0
C2041 C 0.99748 0.64299 0.71065 0.0
H2042 H 0.97803 0.59714 0.72499 0.0
C2043 C 0.01476 0.6495 0.72249 0.0
H2044 H 0.97107 0.6185 0.7022 0.0
C2045 C 0.01877 0.6373 0.73536 0.0
C2046 C 0.00552 0.61833 0.73686 0.0
H2047 H 0.02504 0.66413 0.72237 0.0
H2048 H 0.03196 0.64286 0.74506 0.0
C2049 C 0.98845 0.61171 0.7243 0.0
C2050 C 0.40485 0.37536 0.7062 0.0
C2051 C 0.38619 0.36579 0.71387 0.0
H2052 H 0.43246 0.39734 0.71415 0.0
C2053 C 0.38095 0.372 0.73532 0.0
H2054 H 0.40929 0.37093 0.68968 0.0
C2055 C 0.39418 0.38699 0.7494 0.0
C2056 C 0.413 0.39619 0.74235 0.0
H2057 H 0.36667 0.3649 0.74174 0.0
H2058 H 0.38973 0.39084 0.76645 0.0
C2059 C 0.41813 0.39041 0.7203 0.0
C2060 C 0.64433 0.00674 0.72468 0.0
C2061 C 0.65487 0.02439 0.71381 0.0
H2062 H 0.61996 0.98802 0.74521 0.0
C2063 C 0.64795 0.03666 0.71447 0.0
H2064 H 0.64927 0.99695 0.72448 0.0
C2065 C 0.63102 0.03151 0.72645 0.0
C2066 C 0.62063 0.01392 0.73767 0.0
H2067 H 0.65579 0.05037 0.70624 0.0
H2068 H 0.62611 0.04131 0.72707 0.0
C2069 C 0.62742 0.00155 0.73639 0.0
loop_
_geom_bond_atom_site_label_1
_geom_bond_atom_site_label_2
_geom_bond_distance
_geom_bond_site_symmetry_2
_ccdc_geom_bond_type
In0 O1 2.273 1_455 S
In0 O2 2.326 . S
In0 O6 2.266 1_455 S
In0 O7 2.322 1_554 S
In0 O8 2.266 1_554 S
In0 O9 2.326 1_454 S
In0 O11 2.294 . S
In0 O12 2.326 . S
O1 In0 2.273 1_655 S
O1 C10 1.222 1_655 S
O2 In0 2.326 . S
O2 C10 1.252 . S
C3 O6 1.252 1_556 S
C3 O7 1.207 1_655 S
C4 O11 1.240 . S
C4 O12 1.252 . S
C5 O8 1.252 . S
C5 O9 1.260 1_455 S
O6 In0 2.266 1_655 S
O6 C3 1.252 1_554 S
O7 In0 2.322 1_556 S
O7 C3 1.207 1_455 S
O8 In0 2.266 1_556 S
O8 C5 1.252 . S
O9 In0 2.326 1_656 S
O9 C5 1.260 1_655 S
C10 O1 1.222 1_455 S
C10 O2 1.252 . S
O11 In0 2.294 . S
O11 C4 1.240 . S
O12 In0 2.326 . S
O12 C4 1.252 . S
In13 O14 2.294 . S
In13 O15 2.326 . S
In13 O19 2.266 . S
In13 O20 2.326 1_554 S
In13 O21 2.266 1_554 S
In13 O22 2.326 1_554 S
In13 O24 2.294 . S
In13 O25 2.326 . S
O14 In13 2.294 . S
O14 C23 1.240 . S
O15 In13 2.326 . S
O15 C23 1.252 . S
C16 O19 1.252 1_556 S
C16 O20 1.260 . S
C17 O24 1.240 . S
C17 O25 1.252 . S
C18 O21 1.252 . S
C18 O22 1.260 . S
O19 In13 2.266 . S
O19 C16 1.252 1_554 S
O20 In13 2.326 1_556 S
O20 C16 1.260 . S
O21 In13 2.266 1_556 S
O21 C18 1.252 . S
O22 In13 2.326 1_556 S
O22 C18 1.260 . S
C23 O14 1.240 . S
C23 O15 1.252 . S
O24 In13 2.294 . S
O24 C17 1.240 . S
O25 In13 2.326 . S
O25 C17 1.252 . S
In26 O27 2.294 . S
In26 O28 2.326 1_554 S
In26 O32 2.266 . S
In26 O33 2.326 1_545 S
In26 O34 2.266 1_545 S
In26 O35 2.326 . S
In26 O37 2.290 1_554 S
In26 O38 2.326 1_554 S
O27 In26 2.294 . S
O27 C36 1.240 1_554 S
O28 In26 2.326 1_556 S
O28 C36 1.252 . S
C29 O32 1.252 . S
C29 O33 1.260 1_545 S
C30 O37 1.236 . S
C30 O38 1.252 . S
C31 O34 1.252 . S
C31 O35 1.260 1_565 S
O32 In26 2.266 . S
O32 C29 1.252 . S
O33 In26 2.326 1_565 S
O33 C29 1.260 1_565 S
O34 In26 2.266 1_565 S
O34 C31 1.252 . S
O35 In26 2.326 . S
O35 C31 1.260 1_545 S
C36 O27 1.240 1_556 S
C36 O28 1.252 . S
O37 In26 2.290 1_556 S
O37 C30 1.236 . S
O38 In26 2.326 1_556 S
O38 C30 1.252 . S
In39 O40 2.294 1_554 S
In39 O41 2.326 1_454 S
In39 O45 2.266 . S
In39 O46 2.326 . S
In39 O47 2.262 1_455 S
In39 O48 2.326 . S
In39 O50 2.294 1_455 S
In39 O51 2.323 1_554 S
O40 In39 2.294 1_556 S
O40 C49 1.240 . S
O41 In39 2.326 1_656 S
O41 C49 1.252 1_655 S
C42 O45 1.252 . S
C42 O46 1.260 . S
C43 O50 1.240 1_556 S
C43 O51 1.257 1_655 S
C44 O47 1.214 1_455 S
C44 O48 1.260 . S
O45 In39 2.266 . S
O45 C42 1.252 . S
O46 In39 2.326 . S
O46 C42 1.260 . S
O47 In39 2.262 1_655 S
O47 C44 1.214 1_655 S
O48 In39 2.326 . S
O48 C44 1.260 . S
C49 O40 1.240 . S
C49 O41 1.252 1_455 S
O50 In39 2.294 1_655 S
O50 C43 1.240 1_554 S
O51 In39 2.323 1_556 S
O51 C43 1.257 1_455 S
In52 O53 2.294 1_554 S
In52 O54 2.326 1_554 S
In52 O58 2.266 . S
In52 O59 2.326 . S
In52 O60 2.266 . S
In52 O61 2.326 . S
In52 O63 2.294 . S
In52 O64 2.326 1_554 S
O53 In52 2.294 1_556 S
O53 C62 1.240 . S
O54 In52 2.326 1_556 S
O54 C62 1.252 . S
C55 O58 1.252 . S
C55 O59 1.260 . S
C56 O63 1.240 1_556 S
C56 O64 1.252 . S
C57 O60 1.252 . S
C57 O61 1.260 . S
O58 In52 2.266 . S
O58 C55 1.252 . S
O59 In52 2.326 . S
O59 C55 1.260 . S
O60 In52 2.266 . S
O60 C57 1.252 . S
O61 In52 2.326 . S
O61 C57 1.260 . S
C62 O53 1.240 . S
C62 O54 1.252 . S
O63 In52 2.294 . S
O63 C56 1.240 1_554 S
O64 In52 2.326 1_556 S
O64 C56 1.252 . S
In65 O66 2.294 . S
In65 O67 2.326 1_545 S
In65 O71 2.266 . S
In65 O72 2.326 1_554 S
In65 O73 2.265 1_544 S
In65 O74 2.326 1_554 S
In65 O76 2.294 1_545 S
In65 O77 2.339 . S
O66 In65 2.294 . S
O66 C75 1.240 . S
O67 In65 2.326 1_565 S
O67 C75 1.252 1_565 S
C68 O71 1.252 1_556 S
C68 O72 1.260 . S
C69 O76 1.240 . S
C69 O77 1.235 1_565 S
C70 O73 1.244 1_545 S
C70 O74 1.260 . S
O71 In65 2.266 . S
O71 C68 1.252 1_554 S
O72 In65 2.326 1_556 S
O72 C68 1.260 . S
O73 In65 2.265 1_566 S
O73 C70 1.244 1_565 S
O74 In65 2.326 1_556 S
O74 C70 1.260 . S
C75 O66 1.240 . S
C75 O67 1.252 1_545 S
O76 In65 2.294 1_565 S
O76 C69 1.240 . S
O77 In65 2.339 . S
O77 C69 1.235 1_545 S
In78 O79 2.294 . S
In78 O80 2.326 . S
In78 O84 2.266 . S
In78 O85 2.326 . S
In78 O86 2.266 . S
In78 O87 2.326 . S
In78 O89 2.294 . S
In78 O90 2.326 . S
O79 In78 2.294 . S
O79 C88 1.240 . S
O80 In78 2.326 . S
O80 C88 1.252 . S
C81 O84 1.252 . S
C81 O85 1.260 . S
C82 O89 1.240 . S
C82 O90 1.252 . S
C83 O86 1.252 . S
C83 O87 1.260 . S
O84 In78 2.266 . S
O84 C81 1.252 . S
O85 In78 2.326 . S
O85 C81 1.260 . S
O86 In78 2.266 . S
O86 C83 1.252 . S
O87 In78 2.326 . S
O87 C83 1.260 . S
C88 O79 1.240 . S
C88 O80 1.252 . S
O89 In78 2.294 . S
O89 C82 1.240 . S
O90 In78 2.326 . S
O90 C82 1.252 . S
In91 O92 2.294 . S
In91 O93 2.326 . S
In91 O97 2.266 . S
In91 O98 2.326 . S
In91 O99 2.266 . S
In91 O100 2.326 . S
In91 O102 2.294 1_565 S
In91 O103 2.326 1_565 S
O92 In91 2.294 . S
O92 C101 1.240 . S
O93 In91 2.326 . S
O93 C101 1.252 . S
C94 O97 1.252 . S
C94 O98 1.260 . S
C95 O102 1.240 . S
C95 O103 1.252 . S
C96 O99 1.252 . S
C96 O100 1.260 . S
O97 In91 2.266 . S
O97 C94 1.252 . S
O98 In91 2.326 . S
O98 C94 1.260 . S
O99 In91 2.266 . S
O99 C96 1.252 . S
O100 In91 2.326 . S
O100 C96 1.260 . S
C101 O92 1.240 . S
C101 O93 1.252 . S
O102 In91 2.294 1_545 S
O102 C95 1.240 . S
O103 In91 2.326 1_545 S
O103 C95 1.252 . S
In104 O105 2.294 . S
In104 O106 2.326 . S
In104 O110 2.266 . S
In104 O111 2.326 . S
In104 O112 2.266 . S
In104 O113 2.326 . S
In104 O115 2.294 . S
In104 O116 2.326 . S
O105 In104 2.294 . S
O105 C114 1.240 . S
O106 In104 2.326 . S
O106 C114 1.252 . S
C107 O110 1.252 . S
C107 O111 1.260 . S
C108 O115 1.240 . S
C108 O116 1.252 . S
C109 O112 1.252 . S
C109 O113 1.260 . S
O110 In104 2.266 . S
O110 C107 1.252 . S
O111 In104 2.326 . S
O111 C107 1.260 . S
O112 In104 2.266 . S
O112 C109 1.252 . S
O113 In104 2.326 . S
O113 C109 1.260 . S
C114 O105 1.240 . S
C114 O106 1.252 . S
O115 In104 2.294 . S
O115 C108 1.240 . S
O116 In104 2.326 . S
O116 C108 1.252 . S
In117 O118 2.294 . S
In117 O119 2.326 . S
In117 O123 2.266 1_565 S
In117 O124 2.326 1_565 S
In117 O125 2.266 . S
In117 O126 2.326 . S
In117 O128 2.294 . S
In117 O129 2.326 . S
O118 In117 2.294 . S
O118 C127 1.240 . S
O119 In117 2.326 . S
O119 C127 1.252 . S
C120 O123 1.252 . S
C120 O124 1.260 . S
C121 O128 1.240 . S
C121 O129 1.252 . S
C122 O125 1.252 . S
C122 O126 1.260 . S
O123 In117 2.266 1_545 S
O123 C120 1.252 . S
O124 In117 2.326 1_545 S
O124 C120 1.260 . S
O125 In117 2.266 . S
O125 C122 1.252 . S
O126 In117 2.326 . S
O126 C122 1.260 . S
C127 O118 1.240 . S
C127 O119 1.252 . S
O128 In117 2.294 . S
O128 C121 1.240 . S
O129 In117 2.326 . S
O129 C121 1.252 . S
In130 O131 2.294 . S
In130 O132 2.326 . S
In130 O136 2.266 . S
In130 O137 2.326 . S
In130 O138 2.266 . S
In130 O139 2.326 . S
In130 O141 2.294 . S
In130 O142 2.326 . S
O131 In130 2.294 . S
O131 C140 1.240 . S
O132 In130 2.326 . S
O132 C140 1.252 . S
C133 O136 1.252 . S
C133 O137 1.260 . S
C134 O141 1.240 . S
C134 O142 1.252 . S
C135 O138 1.252 . S
C135 O139 1.260 . S
O136 In130 2.266 . S
O136 C133 1.252 . S
O137 In130 2.326 . S
O137 C133 1.260 . S
O138 In130 2.266 . S
O138 C135 1.252 . S
O139 In130 2.326 . S
O139 C135 1.260 . S
C140 O131 1.240 . S
C140 O132 1.252 . S
O141 In130 2.294 . S
O141 C134 1.240 . S
O142 In130 2.326 . S
O142 C134 1.252 . S
In143 O144 2.294 . S
In143 O145 2.326 . S
In143 O149 2.266 . S
In143 O150 2.326 . S
In143 O151 2.266 . S
In143 O152 2.326 . S
In143 O154 2.294 . S
In143 O155 2.326 . S
O144 In143 2.294 . S
O144 C153 1.240 . S
O145 In143 2.326 . S
O145 C153 1.252 . S
C146 O149 1.252 . S
C146 O150 1.260 . S
C147 O154 1.240 . S
C147 O155 1.252 . S
C148 O151 1.252 . S
C148 O152 1.260 . S
O149 In143 2.266 . S
O149 C146 1.252 . S
O150 In143 2.326 . S
O150 C146 1.260 . S
O151 In143 2.266 . S
O151 C148 1.252 . S
O152 In143 2.326 . S
O152 C148 1.260 . S
C153 O144 1.240 . S
C153 O145 1.252 . S
O154 In143 2.294 . S
O154 C147 1.240 . S
O155 In143 2.326 . S
O155 C147 1.252 . S
In156 O157 2.294 . S
In156 O158 2.326 . S
In156 O162 2.266 . S
In156 O163 2.326 . S
In156 O164 2.266 . S
In156 O165 2.326 . S
In156 O167 2.294 . S
In156 O168 2.326 . S
O157 In156 2.294 . S
O157 C166 1.240 . S
O158 In156 2.326 . S
O158 C166 1.252 . S
C159 O162 1.252 . S
C159 O163 1.260 . S
C160 O167 1.240 . S
C160 O168 1.252 . S
C161 O164 1.252 . S
C161 O165 1.260 . S
O162 In156 2.266 . S
O162 C159 1.252 . S
O163 In156 2.326 . S
O163 C159 1.260 . S
O164 In156 2.266 . S
O164 C161 1.252 . S
O165 In156 2.326 . S
O165 C161 1.260 . S
C166 O157 1.240 . S
C166 O158 1.252 . S
O167 In156 2.294 . S
O167 C160 1.240 . S
O168 In156 2.326 . S
O168 C160 1.252 . S
In169 O170 2.294 . S
In169 O171 2.326 . S
In169 O175 2.266 . S
In169 O176 2.326 . S
In169 O177 2.266 1_655 S
In169 O178 2.326 1_655 S
In169 O180 2.294 . S
In169 O181 2.326 . S
O170 In169 2.294 . S
O170 C179 1.240 . S
O171 In169 2.326 . S
O171 C179 1.252 . S
C172 O175 1.252 . S
C172 O176 1.260 . S
C173 O180 1.240 . S
C173 O181 1.252 . S
C174 O177 1.252 . S
C174 O178 1.260 . S
O175 In169 2.266 . S
O175 C172 1.252 . S
O176 In169 2.326 . S
O176 C172 1.260 . S
O177 In169 2.266 1_455 S
O177 C174 1.252 . S
O178 In169 2.326 1_455 S
O178 C174 1.260 . S
C179 O170 1.240 . S
C179 O171 1.252 . S
O180 In169 2.294 . S
O180 C173 1.240 . S
O181 In169 2.326 . S
O181 C173 1.252 . S
In182 O183 2.294 . S
In182 O184 2.326 . S
In182 O188 2.266 . S
In182 O189 2.326 . S
In182 O190 2.266 . S
In182 O191 2.326 . S
In182 O193 2.294 . S
In182 O194 2.326 . S
O183 In182 2.294 . S
O183 C192 1.240 . S
O184 In182 2.326 . S
O184 C192 1.252 . S
C185 O188 1.252 . S
C185 O189 1.260 . S
C186 O193 1.240 . S
C186 O194 1.252 . S
C187 O190 1.252 . S
C187 O191 1.260 . S
O188 In182 2.266 . S
O188 C185 1.252 . S
O189 In182 2.326 . S
O189 C185 1.260 . S
O190 In182 2.266 . S
O190 C187 1.252 . S
O191 In182 2.326 . S
O191 C187 1.260 . S
C192 O183 1.240 . S
C192 O184 1.252 . S
O193 In182 2.294 . S
O193 C186 1.240 . S
O194 In182 2.326 . S
O194 C186 1.252 . S
In195 O196 2.294 . S
In195 O197 2.326 . S
In195 O201 2.266 . S
In195 O202 2.326 . S
In195 O203 2.266 . S
In195 O204 2.326 . S
In195 O206 2.294 . S
In195 O207 2.326 . S
O196 In195 2.294 . S
O196 C205 1.240 . S
O197 In195 2.326 . S
O197 C205 1.252 . S
C198 O201 1.252 . S
C198 O202 1.260 . S
C199 O206 1.240 . S
C199 O207 1.252 . S
C200 O203 1.252 . S
C200 O204 1.260 . S
O201 In195 2.266 . S
O201 C198 1.252 . S
O202 In195 2.326 . S
O202 C198 1.260 . S
O203 In195 2.266 . S
O203 C200 1.252 . S
O204 In195 2.326 . S
O204 C200 1.260 . S
C205 O196 1.240 . S
C205 O197 1.252 . S
O206 In195 2.294 . S
O206 C199 1.240 . S
O207 In195 2.326 . S
O207 C199 1.252 . S
In208 O209 2.294 . S
In208 O210 2.326 . S
In208 O214 2.266 . S
In208 O215 2.326 . S
In208 O216 2.266 . S
In208 O217 2.326 . S
In208 O219 2.294 . S
In208 O220 2.326 . S
O209 In208 2.294 . S
O209 C218 1.240 . S
O210 In208 2.326 . S
O210 C218 1.252 . S
C211 O214 1.252 . S
C211 O215 1.260 . S
C212 O219 1.240 . S
C212 O220 1.252 . S
C213 O216 1.252 . S
C213 O217 1.260 . S
O214 In208 2.266 . S
O214 C211 1.252 . S
O215 In208 2.326 . S
O215 C211 1.260 . S
O216 In208 2.266 . S
O216 C213 1.252 . S
O217 In208 2.326 . S
O217 C213 1.260 . S
C218 O209 1.240 . S
C218 O210 1.252 . S
O219 In208 2.294 . S
O219 C212 1.240 . S
O220 In208 2.326 . S
O220 C212 1.252 . S
In221 O222 2.294 . S
In221 O223 2.326 . S
In221 O227 2.266 . S
In221 O228 2.326 . S
In221 O229 2.266 1_655 S
In221 O230 2.326 1_655 S
In221 O232 2.294 . S
In221 O233 2.326 . S
O222 In221 2.294 . S
O222 C231 1.240 . S
O223 In221 2.326 . S
O223 C231 1.252 . S
C224 O227 1.252 . S
C224 O228 1.260 . S
C225 O232 1.240 . S
C225 O233 1.252 . S
C226 O229 1.252 . S
C226 O230 1.260 . S
O227 In221 2.266 . S
O227 C224 1.252 . S
O228 In221 2.326 . S
O228 C224 1.260 . S
O229 In221 2.266 1_455 S
O229 C226 1.252 . S
O230 In221 2.326 1_455 S
O230 C226 1.260 . S
C231 O222 1.240 . S
C231 O223 1.252 . S
O232 In221 2.294 . S
O232 C225 1.240 . S
O233 In221 2.326 . S
O233 C225 1.252 . S
H234 C261 0.929 . S
N235 C260 1.433 . S
N235 C266 1.435 . S
N235 C272 1.423 . S
H236 C262 0.930 . S
H237 C265 0.931 . S
H238 C264 0.929 . S
H239 C267 0.930 . S
H240 C268 0.932 . S
H241 C271 0.929 . S
H242 C270 0.931 . S
H243 C273 0.929 . S
H244 C277 0.932 . S
H245 C274 0.931 . S
H246 C276 0.929 . S
H247 C279 0.929 . S
H248 C280 0.930 . S
H249 C282 0.929 . S
H250 C283 0.931 . S
H251 C285 0.930 . S
H252 C286 0.932 . S
H253 C288 0.931 . S
H254 C289 0.929 . S
H255 C291 0.929 . S
H256 C292 0.931 . S
H257 C294 0.929 . S
N258 C278 1.433 . S
N258 C284 1.435 . S
N258 C290 1.423 . S
H259 C295 0.932 . S
C260 N235 1.433 . S
C260 C261 1.363 . S
C260 C265 1.370 . S
C261 H234 0.929 . S
C261 C260 1.363 . S
C261 C262 1.385 . S
C262 H236 0.930 . S
C262 C261 1.385 . S
C262 C263 1.357 . S
C263 C262 1.357 . S
C263 C264 1.406 . S
C264 H238 0.929 . S
C264 C263 1.406 . S
C264 C265 1.391 . S
C265 H237 0.931 . S
C265 C260 1.370 . S
C265 C264 1.391 . S
C266 N235 1.435 . S
C266 C267 1.358 . S
C266 C271 1.371 . S
C267 H239 0.930 . S
C267 C266 1.358 . S
C267 C268 1.405 . S
C268 H240 0.932 . S
C268 C267 1.405 . S
C268 C269 1.383 . S
C269 C268 1.383 . S
C269 C270 1.393 . S
C270 H242 0.931 . S
C270 C269 1.393 . S
C270 C271 1.382 . S
C271 H241 0.929 . S
C271 C266 1.371 . S
C271 C270 1.382 . S
C272 N235 1.423 . S
C272 C273 1.362 . S
C272 C277 1.388 . S
C273 H243 0.929 . S
C273 C272 1.362 . S
C273 C274 1.376 . S
C274 H245 0.931 . S
C274 C273 1.376 . S
C274 C275 1.396 . S
C275 C274 1.396 . S
C275 C276 1.348 . S
C275 C293 1.472 . S
C276 H246 0.929 . S
C276 C275 1.348 . S
C276 C277 1.443 . S
C277 H244 0.932 . S
C277 C272 1.388 . S
C277 C276 1.443 . S
C278 N258 1.433 . S
C278 C279 1.363 . S
C278 C283 1.370 . S
C279 H247 0.929 . S
C279 C278 1.363 . S
C279 C280 1.385 . S
C280 H248 0.930 . S
C280 C279 1.385 . S
C280 C281 1.357 . S
C281 C280 1.357 . S
C281 C282 1.406 . S
C282 H249 0.929 . S
C282 C281 1.406 . S
C282 C283 1.391 . S
C283 H250 0.931 . S
C283 C278 1.370 . S
C283 C282 1.391 . S
C284 N258 1.435 . S
C284 C285 1.358 . S
C284 C289 1.371 . S
C285 H251 0.930 . S
C285 C284 1.358 . S
C285 C286 1.405 . S
C286 H252 0.932 . S
C286 C285 1.405 . S
C286 C287 1.383 . S
C287 C286 1.383 . S
C287 C288 1.393 . S
C288 H253 0.931 . S
C288 C287 1.393 . S
C288 C289 1.382 . S
C289 H254 0.929 . S
C289 C284 1.371 . S
C289 C288 1.382 . S
C290 N258 1.423 . S
C290 C291 1.362 . S
C290 C295 1.388 . S
C291 H255 0.929 . S
C291 C290 1.362 . S
C291 C292 1.376 . S
C292 H256 0.931 . S
C292 C291 1.376 . S
C292 C293 1.396 . S
C293 C275 1.472 . S
C293 C292 1.396 . S
C293 C294 1.348 . S
C294 H257 0.929 . S
C294 C293 1.348 . S
C294 C295 1.443 . S
C295 H259 0.932 . S
C295 C290 1.388 . S
C295 C294 1.443 . S
H296 C323 0.929 . S
N297 C322 1.433 . S
N297 C328 1.435 . S
N297 C334 1.423 . S
H298 C324 0.930 . S
H299 C327 0.931 . S
H300 C326 0.929 . S
H301 C329 0.930 . S
H302 C330 0.932 . S
H303 C333 0.929 . S
H304 C332 0.931 . S
H305 C335 0.929 . S
H306 C339 0.932 . S
H307 C336 0.931 . S
H308 C338 0.929 . S
H309 C341 0.929 . S
H310 C342 0.930 . S
H311 C344 0.929 . S
H312 C345 0.931 . S
H313 C347 0.930 . S
H314 C348 0.932 . S
H315 C350 0.931 . S
H316 C351 0.929 . S
H317 C353 0.929 . S
H318 C354 0.931 . S
H319 C356 0.929 . S
N320 C340 1.433 . S
N320 C346 1.435 . S
N320 C352 1.423 . S
H321 C357 0.932 . S
C322 N297 1.433 . S
C322 C323 1.363 . S
C322 C327 1.370 . S
C323 H296 0.929 . S
C323 C322 1.363 . S
C323 C324 1.385 . S
C324 H298 0.930 . S
C324 C323 1.385 . S
C324 C325 1.357 . S
C325 C324 1.357 . S
C325 C326 1.406 . S
C326 H300 0.929 . S
C326 C325 1.406 . S
C326 C327 1.391 . S
C327 H299 0.931 . S
C327 C322 1.370 . S
C327 C326 1.391 . S
C328 N297 1.435 . S
C328 C329 1.358 . S
C328 C333 1.371 . S
C329 H301 0.930 . S
C329 C328 1.358 . S
C329 C330 1.405 . S
C330 H302 0.932 . S
C330 C329 1.405 . S
C330 C331 1.383 . S
C331 C330 1.383 . S
C331 C332 1.393 . S
C332 H304 0.931 . S
C332 C331 1.393 . S
C332 C333 1.382 . S
C333 H303 0.929 . S
C333 C328 1.371 . S
C333 C332 1.382 . S
C334 N297 1.423 . S
C334 C335 1.362 . S
C334 C339 1.388 . S
C335 H305 0.929 . S
C335 C334 1.362 . S
C335 C336 1.376 . S
C336 H307 0.931 . S
C336 C335 1.376 . S
C336 C337 1.396 . S
C337 C336 1.396 . S
C337 C338 1.348 . S
C337 C355 1.472 . S
C338 H308 0.929 . S
C338 C337 1.348 . S
C338 C339 1.443 . S
C339 H306 0.932 . S
C339 C334 1.388 . S
C339 C338 1.443 . S
C340 N320 1.433 . S
C340 C341 1.363 . S
C340 C345 1.370 . S
C341 H309 0.929 . S
C341 C340 1.363 . S
C341 C342 1.385 . S
C342 H310 0.930 . S
C342 C341 1.385 . S
C342 C343 1.357 . S
C343 C342 1.357 . S
C343 C344 1.406 . S
C344 H311 0.929 . S
C344 C343 1.406 . S
C344 C345 1.391 . S
C345 H312 0.931 . S
C345 C340 1.370 . S
C345 C344 1.391 . S
C346 N320 1.435 . S
C346 C347 1.358 . S
C346 C351 1.371 . S
C347 H313 0.930 . S
C347 C346 1.358 . S
C347 C348 1.405 . S
C348 H314 0.932 . S
C348 C347 1.405 . S
C348 C349 1.383 . S
C349 C348 1.383 . S
C349 C350 1.393 . S
C350 H315 0.931 . S
C350 C349 1.393 . S
C350 C351 1.382 . S
C351 H316 0.929 . S
C351 C346 1.371 . S
C351 C350 1.382 . S
C352 N320 1.423 . S
C352 C353 1.362 . S
C352 C357 1.388 . S
C353 H317 0.929 . S
C353 C352 1.362 . S
C353 C354 1.376 . S
C354 H318 0.931 . S
C354 C353 1.376 . S
C354 C355 1.396 . S
C355 C337 1.472 . S
C355 C354 1.396 . S
C355 C356 1.348 . S
C356 H319 0.929 . S
C356 C355 1.348 . S
C356 C357 1.443 . S
C357 H321 0.932 . S
C357 C352 1.388 . S
C357 C356 1.443 . S
H358 C385 0.929 . S
N359 C384 1.433 . S
N359 C390 1.435 . S
N359 C396 1.423 . S
H360 C386 0.930 . S
H361 C389 0.931 . S
H362 C388 0.929 . S
H363 C391 0.930 . S
H364 C392 0.932 . S
H365 C395 0.929 . S
H366 C394 0.931 . S
H367 C397 0.929 . S
H368 C401 0.932 . S
H369 C398 0.931 . S
H370 C400 0.929 . S
H371 C403 0.929 . S
H372 C404 0.930 . S
H373 C406 0.929 . S
H374 C407 0.931 . S
H375 C409 0.930 . S
H376 C410 0.932 . S
H377 C412 0.931 . S
H378 C413 0.929 . S
H379 C415 0.929 . S
H380 C416 0.931 . S
H381 C418 0.929 . S
N382 C402 1.433 . S
N382 C408 1.435 . S
N382 C414 1.423 . S
H383 C419 0.932 . S
C384 N359 1.433 . S
C384 C385 1.363 . S
C384 C389 1.370 . S
C385 H358 0.929 . S
C385 C384 1.363 . S
C385 C386 1.385 . S
C386 H360 0.930 . S
C386 C385 1.385 . S
C386 C387 1.357 . S
C387 C386 1.357 . S
C387 C388 1.406 . S
C388 H362 0.929 . S
C388 C387 1.406 . S
C388 C389 1.391 . S
C389 H361 0.931 . S
C389 C384 1.370 . S
C389 C388 1.391 . S
C390 N359 1.435 . S
C390 C391 1.358 . S
C390 C395 1.371 . S
C391 H363 0.930 . S
C391 C390 1.358 . S
C391 C392 1.405 . S
C392 H364 0.932 . S
C392 C391 1.405 . S
C392 C393 1.383 . S
C393 C392 1.383 . S
C393 C394 1.393 . S
C394 H366 0.931 . S
C394 C393 1.393 . S
C394 C395 1.382 . S
C395 H365 0.929 . S
C395 C390 1.371 . S
C395 C394 1.382 . S
C396 N359 1.423 . S
C396 C397 1.362 . S
C396 C401 1.388 . S
C397 H367 0.929 . S
C397 C396 1.362 . S
C397 C398 1.376 . S
C398 H369 0.931 . S
C398 C397 1.376 . S
C398 C399 1.396 . S
C399 C398 1.396 . S
C399 C400 1.348 . S
C399 C417 1.472 . S
C400 H370 0.929 . S
C400 C399 1.348 . S
C400 C401 1.443 . S
C401 H368 0.932 . S
C401 C396 1.388 . S
C401 C400 1.443 . S
C402 N382 1.433 . S
C402 C403 1.363 . S
C402 C407 1.370 . S
C403 H371 0.929 . S
C403 C402 1.363 . S
C403 C404 1.385 . S
C404 H372 0.930 . S
C404 C403 1.385 . S
C404 C405 1.357 . S
C405 C404 1.357 . S
C405 C406 1.406 . S
C406 H373 0.929 . S
C406 C405 1.406 . S
C406 C407 1.391 . S
C407 H374 0.931 . S
C407 C402 1.370 . S
C407 C406 1.391 . S
C408 N382 1.435 . S
C408 C409 1.358 . S
C408 C413 1.371 . S
C409 H375 0.930 . S
C409 C408 1.358 . S
C409 C410 1.405 . S
C410 H376 0.932 . S
C410 C409 1.405 . S
C410 C411 1.383 . S
C411 C410 1.383 . S
C411 C412 1.393 . S
C412 H377 0.931 . S
C412 C411 1.393 . S
C412 C413 1.382 . S
C413 H378 0.929 . S
C413 C408 1.371 . S
C413 C412 1.382 . S
C414 N382 1.423 . S
C414 C415 1.362 . S
C414 C419 1.388 . S
C415 H379 0.929 . S
C415 C414 1.362 . S
C415 C416 1.376 . S
C416 H380 0.931 . S
C416 C415 1.376 . S
C416 C417 1.396 . S
C417 C399 1.472 . S
C417 C416 1.396 . S
C417 C418 1.348 . S
C418 H381 0.929 . S
C418 C417 1.348 . S
C418 C419 1.443 . S
C419 H383 0.932 . S
C419 C414 1.388 . S
C419 C418 1.443 . S
H420 C447 0.929 . S
N421 C446 1.433 . S
N421 C452 1.435 . S
N421 C458 1.423 . S
H422 C448 0.930 . S
H423 C451 0.931 . S
H424 C450 0.929 . S
H425 C453 0.930 . S
H426 C454 0.932 . S
H427 C457 0.929 . S
H428 C456 0.931 . S
H429 C459 0.929 . S
H430 C463 0.932 . S
H431 C460 0.931 . S
H432 C462 0.929 . S
H433 C465 0.929 . S
H434 C466 0.930 . S
H435 C468 0.929 . S
H436 C469 0.931 . S
H437 C471 0.930 . S
H438 C472 0.932 . S
H439 C474 0.931 . S
H440 C475 0.929 . S
H441 C477 0.929 . S
H442 C478 0.931 . S
H443 C480 0.929 . S
N444 C464 1.433 . S
N444 C470 1.435 . S
N444 C476 1.423 . S
H445 C481 0.932 . S
C446 N421 1.433 . S
C446 C447 1.363 . S
C446 C451 1.370 . S
C447 H420 0.929 . S
C447 C446 1.363 . S
C447 C448 1.385 . S
C448 H422 0.930 . S
C448 C447 1.385 . S
C448 C449 1.357 . S
C449 C448 1.357 . S
C449 C450 1.406 . S
C450 H424 0.929 . S
C450 C449 1.406 . S
C450 C451 1.391 . S
C451 H423 0.931 . S
C451 C446 1.370 . S
C451 C450 1.391 . S
C452 N421 1.435 . S
C452 C453 1.358 . S
C452 C457 1.371 . S
C453 H425 0.930 . S
C453 C452 1.358 . S
C453 C454 1.405 . S
C454 H426 0.932 . S
C454 C453 1.405 . S
C454 C455 1.383 . S
C455 C454 1.383 . S
C455 C456 1.393 . S
C456 H428 0.931 . S
C456 C455 1.393 . S
C456 C457 1.382 . S
C457 H427 0.929 . S
C457 C452 1.371 . S
C457 C456 1.382 . S
C458 N421 1.423 . S
C458 C459 1.362 . S
C458 C463 1.388 . S
C459 H429 0.929 . S
C459 C458 1.362 . S
C459 C460 1.376 . S
C460 H431 0.931 . S
C460 C459 1.376 . S
C460 C461 1.396 . S
C461 C460 1.396 . S
C461 C462 1.348 . S
C461 C479 1.472 . S
C462 H432 0.929 . S
C462 C461 1.348 . S
C462 C463 1.443 . S
C463 H430 0.932 . S
C463 C458 1.388 . S
C463 C462 1.443 . S
C464 N444 1.433 . S
C464 C465 1.363 . S
C464 C469 1.370 . S
C465 H433 0.929 . S
C465 C464 1.363 . S
C465 C466 1.385 . S
C466 H434 0.930 . S
C466 C465 1.385 . S
C466 C467 1.357 . S
C467 C466 1.357 . S
C467 C468 1.406 . S
C468 H435 0.929 . S
C468 C467 1.406 . S
C468 C469 1.391 . S
C469 H436 0.931 . S
C469 C464 1.370 . S
C469 C468 1.391 . S
C470 N444 1.435 . S
C470 C471 1.358 . S
C470 C475 1.371 . S
C471 H437 0.930 . S
C471 C470 1.358 . S
C471 C472 1.405 . S
C472 H438 0.932 . S
C472 C471 1.405 . S
C472 C473 1.383 . S
C473 C472 1.383 . S
C473 C474 1.393 . S
C474 H439 0.931 . S
C474 C473 1.393 . S
C474 C475 1.382 . S
C475 H440 0.929 . S
C475 C470 1.371 . S
C475 C474 1.382 . S
C476 N444 1.423 . S
C476 C477 1.362 . S
C476 C481 1.388 . S
C477 H441 0.929 . S
C477 C476 1.362 . S
C477 C478 1.376 . S
C478 H442 0.931 . S
C478 C477 1.376 . S
C478 C479 1.396 . S
C479 C461 1.472 . S
C479 C478 1.396 . S
C479 C480 1.348 . S
C480 H443 0.929 . S
C480 C479 1.348 . S
C480 C481 1.443 . S
C481 H445 0.932 . S
C481 C476 1.388 . S
C481 C480 1.443 . S
H482 C509 0.929 . S
N483 C508 1.433 . S
N483 C514 1.435 . S
N483 C520 1.423 . S
H484 C510 0.930 . S
H485 C513 0.931 . S
H486 C512 0.929 . S
H487 C515 0.930 . S
H488 C516 0.932 . S
H489 C519 0.929 . S
H490 C518 0.931 . S
H491 C521 0.929 . S
H492 C525 0.932 . S
H493 C522 0.931 . S
H494 C524 0.929 . S
H495 C527 0.929 . S
H496 C528 0.930 . S
H497 C530 0.929 . S
H498 C531 0.931 . S
H499 C533 0.930 . S
H500 C534 0.932 . S
H501 C536 0.931 . S
H502 C537 0.929 . S
H503 C539 0.929 . S
H504 C540 0.931 . S
H505 C542 0.929 . S
N506 C526 1.433 . S
N506 C532 1.435 . S
N506 C538 1.423 . S
H507 C543 0.932 . S
C508 N483 1.433 . S
C508 C509 1.363 . S
C508 C513 1.370 . S
C509 H482 0.929 . S
C509 C508 1.363 . S
C509 C510 1.385 . S
C510 H484 0.930 . S
C510 C509 1.385 . S
C510 C511 1.357 . S
C511 C510 1.357 . S
C511 C512 1.406 . S
C512 H486 0.929 . S
C512 C511 1.406 . S
C512 C513 1.391 . S
C513 H485 0.931 . S
C513 C508 1.370 . S
C513 C512 1.391 . S
C514 N483 1.435 . S
C514 C515 1.358 . S
C514 C519 1.371 . S
C515 H487 0.930 . S
C515 C514 1.358 . S
C515 C516 1.405 . S
C516 H488 0.932 . S
C516 C515 1.405 . S
C516 C517 1.383 . S
C517 C516 1.383 . S
C517 C518 1.393 . S
C518 H490 0.931 . S
C518 C517 1.393 . S
C518 C519 1.382 . S
C519 H489 0.929 . S
C519 C514 1.371 . S
C519 C518 1.382 . S
C520 N483 1.423 . S
C520 C521 1.362 . S
C520 C525 1.388 . S
C521 H491 0.929 . S
C521 C520 1.362 . S
C521 C522 1.376 . S
C522 H493 0.931 . S
C522 C521 1.376 . S
C522 C523 1.396 . S
C523 C522 1.396 . S
C523 C524 1.348 . S
C523 C541 1.472 . S
C524 H494 0.929 . S
C524 C523 1.348 . S
C524 C525 1.443 . S
C525 H492 0.932 . S
C525 C520 1.388 . S
C525 C524 1.443 . S
C526 N506 1.433 . S
C526 C527 1.363 . S
C526 C531 1.370 . S
C527 H495 0.929 . S
C527 C526 1.363 . S
C527 C528 1.385 . S
C528 H496 0.930 . S
C528 C527 1.385 . S
C528 C529 1.357 . S
C529 C528 1.357 . S
C529 C530 1.406 . S
C530 H497 0.929 . S
C530 C529 1.406 . S
C530 C531 1.391 . S
C531 H498 0.931 . S
C531 C526 1.370 . S
C531 C530 1.391 . S
C532 N506 1.435 . S
C532 C533 1.358 . S
C532 C537 1.371 . S
C533 H499 0.930 . S
C533 C532 1.358 . S
C533 C534 1.405 . S
C534 H500 0.932 . S
C534 C533 1.405 . S
C534 C535 1.383 . S
C535 C534 1.383 . S
C535 C536 1.393 . S
C536 H501 0.931 . S
C536 C535 1.393 . S
C536 C537 1.382 . S
C537 H502 0.929 . S
C537 C532 1.371 . S
C537 C536 1.382 . S
C538 N506 1.423 . S
C538 C539 1.362 . S
C538 C543 1.388 . S
C539 H503 0.929 . S
C539 C538 1.362 . S
C539 C540 1.376 . S
C540 H504 0.931 . S
C540 C539 1.376 . S
C540 C541 1.396 . S
C541 C523 1.472 . S
C541 C540 1.396 . S
C541 C542 1.348 . S
C542 H505 0.929 . S
C542 C541 1.348 . S
C542 C543 1.443 . S
C543 H507 0.932 . S
C543 C538 1.388 . S
C543 C542 1.443 . S
H544 C571 0.929 . S
N545 C570 1.433 . S
N545 C576 1.435 . S
N545 C582 1.423 . S
H546 C572 0.930 . S
H547 C575 0.931 . S
H548 C574 0.929 . S
H549 C577 0.930 . S
H550 C578 0.932 . S
H551 C581 0.929 . S
H552 C580 0.931 . S
H553 C583 0.929 . S
H554 C587 0.932 . S
H555 C584 0.931 . S
H556 C586 0.929 . S
H557 C589 0.929 . S
H558 C590 0.930 . S
H559 C592 0.929 . S
H560 C593 0.931 . S
H561 C595 0.930 . S
H562 C596 0.932 . S
H563 C598 0.931 . S
H564 C599 0.929 . S
H565 C601 0.929 . S
H566 C602 0.931 . S
H567 C604 0.929 . S
N568 C588 1.433 . S
N568 C594 1.435 . S
N568 C600 1.423 . S
H569 C605 0.932 . S
C570 N545 1.433 . S
C570 C571 1.363 . S
C570 C575 1.370 . S
C571 H544 0.929 . S
C571 C570 1.363 . S
C571 C572 1.385 . S
C572 H546 0.930 . S
C572 C571 1.385 . S
C572 C573 1.357 . S
C573 C572 1.357 . S
C573 C574 1.406 . S
C574 H548 0.929 . S
C574 C573 1.406 . S
C574 C575 1.391 . S
C575 H547 0.931 . S
C575 C570 1.370 . S
C575 C574 1.391 . S
C576 N545 1.435 . S
C576 C577 1.358 . S
C576 C581 1.371 . S
C577 H549 0.930 . S
C577 C576 1.358 . S
C577 C578 1.405 . S
C578 H550 0.932 . S
C578 C577 1.405 . S
C578 C579 1.383 . S
C579 C578 1.383 . S
C579 C580 1.393 . S
C580 H552 0.931 . S
C580 C579 1.393 . S
C580 C581 1.382 . S
C581 H551 0.929 . S
C581 C576 1.371 . S
C581 C580 1.382 . S
C582 N545 1.423 . S
C582 C583 1.362 . S
C582 C587 1.388 . S
C583 H553 0.929 . S
C583 C582 1.362 . S
C583 C584 1.376 . S
C584 H555 0.931 . S
C584 C583 1.376 . S
C584 C585 1.396 . S
C585 C584 1.396 . S
C585 C586 1.348 . S
C585 C603 1.472 . S
C586 H556 0.929 . S
C586 C585 1.348 . S
C586 C587 1.443 . S
C587 H554 0.932 . S
C587 C582 1.388 . S
C587 C586 1.443 . S
C588 N568 1.433 . S
C588 C589 1.363 . S
C588 C593 1.370 . S
C589 H557 0.929 . S
C589 C588 1.363 . S
C589 C590 1.385 . S
C590 H558 0.930 . S
C590 C589 1.385 . S
C590 C591 1.357 . S
C591 C590 1.357 . S
C591 C592 1.406 . S
C592 H559 0.929 . S
C592 C591 1.406 . S
C592 C593 1.391 . S
C593 H560 0.931 . S
C593 C588 1.370 . S
C593 C592 1.391 . S
C594 N568 1.435 . S
C594 C595 1.358 . S
C594 C599 1.371 . S
C595 H561 0.930 . S
C595 C594 1.358 . S
C595 C596 1.405 . S
C596 H562 0.932 . S
C596 C595 1.405 . S
C596 C597 1.383 . S
C597 C596 1.383 . S
C597 C598 1.393 . S
C598 H563 0.931 . S
C598 C597 1.393 . S
C598 C599 1.382 . S
C599 H564 0.929 . S
C599 C594 1.371 . S
C599 C598 1.382 . S
C600 N568 1.423 . S
C600 C601 1.362 . S
C600 C605 1.388 . S
C601 H565 0.929 . S
C601 C600 1.362 . S
C601 C602 1.376 . S
C602 H566 0.931 . S
C602 C601 1.376 . S
C602 C603 1.396 . S
C603 C585 1.472 . S
C603 C602 1.396 . S
C603 C604 1.348 . S
C604 H567 0.929 . S
C604 C603 1.348 . S
C604 C605 1.443 . S
C605 H569 0.932 . S
C605 C600 1.388 . S
C605 C604 1.443 . S
H606 C633 0.929 . S
N607 C632 1.433 . S
N607 C638 1.435 . S
N607 C644 1.423 . S
H608 C634 0.930 . S
H609 C637 0.931 . S
H610 C636 0.929 . S
H611 C639 0.930 . S
H612 C640 0.932 . S
H613 C643 0.929 . S
H614 C642 0.931 . S
H615 C645 0.929 . S
H616 C649 0.932 . S
H617 C646 0.931 . S
H618 C648 0.929 . S
H619 C651 0.929 . S
H620 C652 0.930 . S
H621 C654 0.929 . S
H622 C655 0.931 . S
H623 C657 0.930 . S
H624 C658 0.932 . S
H625 C660 0.931 . S
H626 C661 0.929 . S
H627 C663 0.929 . S
H628 C664 0.931 . S
H629 C666 0.929 . S
N630 C650 1.433 . S
N630 C656 1.435 . S
N630 C662 1.423 . S
H631 C667 0.932 . S
C632 N607 1.433 . S
C632 C633 1.363 . S
C632 C637 1.370 . S
C633 H606 0.929 . S
C633 C632 1.363 . S
C633 C634 1.385 . S
C634 H608 0.930 . S
C634 C633 1.385 . S
C634 C635 1.357 . S
C635 C634 1.357 . S
C635 C636 1.406 . S
C636 H610 0.929 . S
C636 C635 1.406 . S
C636 C637 1.391 . S
C637 H609 0.931 . S
C637 C632 1.370 . S
C637 C636 1.391 . S
C638 N607 1.435 . S
C638 C639 1.358 . S
C638 C643 1.371 . S
C639 H611 0.930 . S
C639 C638 1.358 . S
C639 C640 1.405 . S
C640 H612 0.932 . S
C640 C639 1.405 . S
C640 C641 1.383 . S
C641 C640 1.383 . S
C641 C642 1.393 . S
C642 H614 0.931 . S
C642 C641 1.393 . S
C642 C643 1.382 . S
C643 H613 0.929 . S
C643 C638 1.371 . S
C643 C642 1.382 . S
C644 N607 1.423 . S
C644 C645 1.362 . S
C644 C649 1.388 . S
C645 H615 0.929 . S
C645 C644 1.362 . S
C645 C646 1.376 . S
C646 H617 0.931 . S
C646 C645 1.376 . S
C646 C647 1.396 . S
C647 C646 1.396 . S
C647 C648 1.348 . S
C647 C665 1.472 . S
C648 H618 0.929 . S
C648 C647 1.348 . S
C648 C649 1.443 . S
C649 H616 0.932 . S
C649 C644 1.388 . S
C649 C648 1.443 . S
C650 N630 1.433 . S
C650 C651 1.363 . S
C650 C655 1.370 . S
C651 H619 0.929 . S
C651 C650 1.363 . S
C651 C652 1.385 . S
C652 H620 0.930 . S
C652 C651 1.385 . S
C652 C653 1.357 . S
C653 C652 1.357 . S
C653 C654 1.406 . S
C654 H621 0.929 . S
C654 C653 1.406 . S
C654 C655 1.391 . S
C655 H622 0.931 . S
C655 C650 1.370 . S
C655 C654 1.391 . S
C656 N630 1.435 . S
C656 C657 1.358 . S
C656 C661 1.371 . S
C657 H623 0.930 . S
C657 C656 1.358 . S
C657 C658 1.405 . S
C658 H624 0.932 . S
C658 C657 1.405 . S
C658 C659 1.383 . S
C659 C658 1.383 . S
C659 C660 1.393 . S
C660 H625 0.931 . S
C660 C659 1.393 . S
C660 C661 1.382 . S
C661 H626 0.929 . S
C661 C656 1.371 . S
C661 C660 1.382 . S
C662 N630 1.423 . S
C662 C663 1.362 . S
C662 C667 1.388 . S
C663 H627 0.929 . S
C663 C662 1.362 . S
C663 C664 1.376 . S
C664 H628 0.931 . S
C664 C663 1.376 . S
C664 C665 1.396 . S
C665 C647 1.472 . S
C665 C664 1.396 . S
C665 C666 1.348 . S
C666 H629 0.929 . S
C666 C665 1.348 . S
C666 C667 1.443 . S
C667 H631 0.932 . S
C667 C662 1.388 . S
C667 C666 1.443 . S
H668 C695 0.929 . S
N669 C694 1.433 . S
N669 C700 1.435 . S
N669 C706 1.423 . S
H670 C696 0.930 . S
H671 C699 0.931 . S
H672 C698 0.929 . S
H673 C701 0.930 . S
H674 C702 0.932 . S
H675 C705 0.929 . S
H676 C704 0.931 . S
H677 C707 0.929 . S
H678 C711 0.932 . S
H679 C708 0.931 . S
H680 C710 0.929 . S
H681 C713 0.929 . S
H682 C714 0.930 . S
H683 C716 0.929 . S
H684 C717 0.931 . S
H685 C719 0.930 . S
H686 C720 0.932 . S
H687 C722 0.931 . S
H688 C723 0.929 . S
H689 C725 0.929 . S
H690 C726 0.931 . S
H691 C728 0.929 . S
N692 C712 1.433 . S
N692 C718 1.435 . S
N692 C724 1.423 . S
H693 C729 0.932 . S
C694 N669 1.433 . S
C694 C695 1.363 . S
C694 C699 1.370 . S
C695 H668 0.929 . S
C695 C694 1.363 . S
C695 C696 1.385 . S
C696 H670 0.930 . S
C696 C695 1.385 . S
C696 C697 1.357 . S
C697 C696 1.357 . S
C697 C698 1.406 . S
C698 H672 0.929 . S
C698 C697 1.406 . S
C698 C699 1.391 . S
C699 H671 0.931 . S
C699 C694 1.370 . S
C699 C698 1.391 . S
C700 N669 1.435 . S
C700 C701 1.358 . S
C700 C705 1.371 . S
C701 H673 0.930 . S
C701 C700 1.358 . S
C701 C702 1.405 . S
C702 H674 0.932 . S
C702 C701 1.405 . S
C702 C703 1.383 . S
C703 C702 1.383 . S
C703 C704 1.393 . S
C704 H676 0.931 . S
C704 C703 1.393 . S
C704 C705 1.382 . S
C705 H675 0.929 . S
C705 C700 1.371 . S
C705 C704 1.382 . S
C706 N669 1.423 . S
C706 C707 1.362 . S
C706 C711 1.388 . S
C707 H677 0.929 . S
C707 C706 1.362 . S
C707 C708 1.376 . S
C708 H679 0.931 . S
C708 C707 1.376 . S
C708 C709 1.396 . S
C709 C708 1.396 . S
C709 C710 1.348 . S
C709 C727 1.472 . S
C710 H680 0.929 . S
C710 C709 1.348 . S
C710 C711 1.443 . S
C711 H678 0.932 . S
C711 C706 1.388 . S
C711 C710 1.443 . S
C712 N692 1.433 . S
C712 C713 1.363 . S
C712 C717 1.370 . S
C713 H681 0.929 . S
C713 C712 1.363 . S
C713 C714 1.385 . S
C714 H682 0.930 . S
C714 C713 1.385 . S
C714 C715 1.357 . S
C715 C714 1.357 . S
C715 C716 1.406 . S
C716 H683 0.929 . S
C716 C715 1.406 . S
C716 C717 1.391 . S
C717 H684 0.931 . S
C717 C712 1.370 . S
C717 C716 1.391 . S
C718 N692 1.435 . S
C718 C719 1.358 . S
C718 C723 1.371 . S
C719 H685 0.930 . S
C719 C718 1.358 . S
C719 C720 1.405 . S
C720 H686 0.932 . S
C720 C719 1.405 . S
C720 C721 1.383 . S
C721 C720 1.383 . S
C721 C722 1.393 . S
C722 H687 0.931 . S
C722 C721 1.393 . S
C722 C723 1.382 . S
C723 H688 0.929 . S
C723 C718 1.371 . S
C723 C722 1.382 . S
C724 N692 1.423 . S
C724 C725 1.362 . S
C724 C729 1.388 . S
C725 H689 0.929 . S
C725 C724 1.362 . S
C725 C726 1.376 . S
C726 H690 0.931 . S
C726 C725 1.376 . S
C726 C727 1.396 . S
C727 C709 1.472 . S
C727 C726 1.396 . S
C727 C728 1.348 . S
C728 H691 0.929 . S
C728 C727 1.348 . S
C728 C729 1.443 . S
C729 H693 0.932 . S
C729 C724 1.388 . S
C729 C728 1.443 . S
H730 C757 0.929 . S
N731 C756 1.433 . S
N731 C762 1.435 . S
N731 C768 1.423 . S
H732 C758 0.930 . S
H733 C761 0.931 . S
H734 C760 0.929 . S
H735 C763 0.930 . S
H736 C764 0.932 . S
H737 C767 0.929 . S
H738 C766 0.931 . S
H739 C769 0.929 . S
H740 C773 0.932 . S
H741 C770 0.931 . S
H742 C772 0.929 . S
H743 C775 0.929 . S
H744 C776 0.930 . S
H745 C778 0.929 . S
H746 C779 0.931 . S
H747 C781 0.930 . S
H748 C782 0.932 . S
H749 C784 0.931 . S
H750 C785 0.929 . S
H751 C787 0.929 . S
H752 C788 0.931 . S
H753 C790 0.929 . S
N754 C774 1.433 . S
N754 C780 1.435 . S
N754 C786 1.423 . S
H755 C791 0.932 . S
C756 N731 1.433 . S
C756 C757 1.363 . S
C756 C761 1.370 . S
C757 H730 0.929 . S
C757 C756 1.363 . S
C757 C758 1.385 . S
C758 H732 0.930 . S
C758 C757 1.385 . S
C758 C759 1.357 . S
C759 C758 1.357 . S
C759 C760 1.406 . S
C760 H734 0.929 . S
C760 C759 1.406 . S
C760 C761 1.391 . S
C761 H733 0.931 . S
C761 C756 1.370 . S
C761 C760 1.391 . S
C762 N731 1.435 . S
C762 C763 1.358 . S
C762 C767 1.371 . S
C763 H735 0.930 . S
C763 C762 1.358 . S
C763 C764 1.405 . S
C764 H736 0.932 . S
C764 C763 1.405 . S
C764 C765 1.383 . S
C765 C764 1.383 . S
C765 C766 1.393 . S
C766 H738 0.931 . S
C766 C765 1.393 . S
C766 C767 1.382 . S
C767 H737 0.929 . S
C767 C762 1.371 . S
C767 C766 1.382 . S
C768 N731 1.423 . S
C768 C769 1.362 . S
C768 C773 1.388 . S
C769 H739 0.929 . S
C769 C768 1.362 . S
C769 C770 1.376 . S
C770 H741 0.931 . S
C770 C769 1.376 . S
C770 C771 1.396 . S
C771 C770 1.396 . S
C771 C772 1.348 . S
C771 C789 1.472 . S
C772 H742 0.929 . S
C772 C771 1.348 . S
C772 C773 1.443 . S
C773 H740 0.932 . S
C773 C768 1.388 . S
C773 C772 1.443 . S
C774 N754 1.433 . S
C774 C775 1.363 . S
C774 C779 1.370 . S
C775 H743 0.929 . S
C775 C774 1.363 . S
C775 C776 1.385 . S
C776 H744 0.930 . S
C776 C775 1.385 . S
C776 C777 1.357 . S
C777 C776 1.357 . S
C777 C778 1.406 . S
C778 H745 0.929 . S
C778 C777 1.406 . S
C778 C779 1.391 . S
C779 H746 0.931 . S
C779 C774 1.370 . S
C779 C778 1.391 . S
C780 N754 1.435 . S
C780 C781 1.358 . S
C780 C785 1.371 . S
C781 H747 0.930 . S
C781 C780 1.358 . S
C781 C782 1.405 . S
C782 H748 0.932 . S
C782 C781 1.405 . S
C782 C783 1.383 . S
C783 C782 1.383 . S
C783 C784 1.393 . S
C784 H749 0.931 . S
C784 C783 1.393 . S
C784 C785 1.382 . S
C785 H750 0.929 . S
C785 C780 1.371 . S
C785 C784 1.382 . S
C786 N754 1.423 . S
C786 C787 1.362 . S
C786 C791 1.388 . S
C787 H751 0.929 . S
C787 C786 1.362 . S
C787 C788 1.376 . S
C788 H752 0.931 . S
C788 C787 1.376 . S
C788 C789 1.396 . S
C789 C771 1.472 . S
C789 C788 1.396 . S
C789 C790 1.348 . S
C790 H753 0.929 . S
C790 C789 1.348 . S
C790 C791 1.443 . S
C791 H755 0.932 . S
C791 C786 1.388 . S
C791 C790 1.443 . S
H792 C819 0.929 . S
N793 C818 1.433 . S
N793 C824 1.435 . S
N793 C830 1.423 . S
H794 C820 0.930 . S
H795 C823 0.931 . S
H796 C822 0.929 . S
H797 C825 0.930 . S
H798 C826 0.932 . S
H799 C829 0.929 . S
H800 C828 0.931 . S
H801 C831 0.929 . S
H802 C835 0.932 . S
H803 C832 0.931 . S
H804 C834 0.929 . S
H805 C837 0.929 . S
H806 C838 0.930 . S
H807 C840 0.929 . S
H808 C841 0.931 . S
H809 C843 0.930 . S
H810 C844 0.932 . S
H811 C846 0.931 . S
H812 C847 0.929 . S
H813 C849 0.929 . S
H814 C850 0.931 . S
H815 C852 0.929 . S
N816 C836 1.433 . S
N816 C842 1.435 . S
N816 C848 1.423 . S
H817 C853 0.932 . S
C818 N793 1.433 . S
C818 C819 1.363 . S
C818 C823 1.370 . S
C819 H792 0.929 . S
C819 C818 1.363 . S
C819 C820 1.385 . S
C820 H794 0.930 . S
C820 C819 1.385 . S
C820 C821 1.357 . S
C821 C820 1.357 . S
C821 C822 1.406 . S
C822 H796 0.929 . S
C822 C821 1.406 . S
C822 C823 1.391 . S
C823 H795 0.931 . S
C823 C818 1.370 . S
C823 C822 1.391 . S
C824 N793 1.435 . S
C824 C825 1.358 . S
C824 C829 1.371 . S
C825 H797 0.930 . S
C825 C824 1.358 . S
C825 C826 1.405 . S
C826 H798 0.932 . S
C826 C825 1.405 . S
C826 C827 1.383 . S
C827 C826 1.383 . S
C827 C828 1.393 . S
C828 H800 0.931 . S
C828 C827 1.393 . S
C828 C829 1.382 . S
C829 H799 0.929 . S
C829 C824 1.371 . S
C829 C828 1.382 . S
C830 N793 1.423 . S
C830 C831 1.362 . S
C830 C835 1.388 . S
C831 H801 0.929 . S
C831 C830 1.362 . S
C831 C832 1.376 . S
C832 H803 0.931 . S
C832 C831 1.376 . S
C832 C833 1.396 . S
C833 C832 1.396 . S
C833 C834 1.348 . S
C833 C851 1.472 . S
C834 H804 0.929 . S
C834 C833 1.348 . S
C834 C835 1.443 . S
C835 H802 0.932 . S
C835 C830 1.388 . S
C835 C834 1.443 . S
C836 N816 1.433 . S
C836 C837 1.363 . S
C836 C841 1.370 . S
C837 H805 0.929 . S
C837 C836 1.363 . S
C837 C838 1.385 . S
C838 H806 0.930 . S
C838 C837 1.385 . S
C838 C839 1.357 . S
C839 C838 1.357 . S
C839 C840 1.406 . S
C840 H807 0.929 . S
C840 C839 1.406 . S
C840 C841 1.391 . S
C841 H808 0.931 . S
C841 C836 1.370 . S
C841 C840 1.391 . S
C842 N816 1.435 . S
C842 C843 1.358 . S
C842 C847 1.371 . S
C843 H809 0.930 . S
C843 C842 1.358 . S
C843 C844 1.405 . S
C844 H810 0.932 . S
C844 C843 1.405 . S
C844 C845 1.383 . S
C845 C844 1.383 . S
C845 C846 1.393 . S
C846 H811 0.931 . S
C846 C845 1.393 . S
C846 C847 1.382 . S
C847 H812 0.929 . S
C847 C842 1.371 . S
C847 C846 1.382 . S
C848 N816 1.423 . S
C848 C849 1.362 . S
C848 C853 1.388 . S
C849 H813 0.929 . S
C849 C848 1.362 . S
C849 C850 1.376 . S
C850 H814 0.931 . S
C850 C849 1.376 . S
C850 C851 1.396 . S
C851 C833 1.472 . S
C851 C850 1.396 . S
C851 C852 1.348 . S
C852 H815 0.929 . S
C852 C851 1.348 . S
C852 C853 1.443 . S
C853 H817 0.932 . S
C853 C848 1.388 . S
C853 C852 1.443 . S
H854 C881 0.929 . S
N855 C880 1.433 . S
N855 C886 1.435 . S
N855 C892 1.423 . S
H856 C882 0.930 . S
H857 C885 0.931 . S
H858 C884 0.929 . S
H859 C887 0.930 . S
H860 C888 0.932 . S
H861 C891 0.929 . S
H862 C890 0.931 . S
H863 C893 0.929 . S
H864 C897 0.932 . S
H865 C894 0.931 . S
H866 C896 0.929 . S
H867 C899 0.929 . S
H868 C900 0.930 . S
H869 C902 0.929 . S
H870 C903 0.931 . S
H871 C905 0.930 . S
H872 C906 0.932 . S
H873 C908 0.931 . S
H874 C909 0.929 . S
H875 C911 0.929 . S
H876 C912 0.931 . S
H877 C914 0.929 . S
N878 C898 1.433 . S
N878 C904 1.435 . S
N878 C910 1.423 . S
H879 C915 0.932 . S
C880 N855 1.433 . S
C880 C881 1.363 . S
C880 C885 1.370 . S
C881 H854 0.929 . S
C881 C880 1.363 . S
C881 C882 1.385 . S
C882 H856 0.930 . S
C882 C881 1.385 . S
C882 C883 1.357 . S
C883 C882 1.357 . S
C883 C884 1.406 . S
C884 H858 0.929 . S
C884 C883 1.406 . S
C884 C885 1.391 . S
C885 H857 0.931 . S
C885 C880 1.370 . S
C885 C884 1.391 . S
C886 N855 1.435 . S
C886 C887 1.358 . S
C886 C891 1.371 . S
C887 H859 0.930 . S
C887 C886 1.358 . S
C887 C888 1.405 . S
C888 H860 0.932 . S
C888 C887 1.405 . S
C888 C889 1.383 . S
C889 C888 1.383 . S
C889 C890 1.393 . S
C890 H862 0.931 . S
C890 C889 1.393 . S
C890 C891 1.382 . S
C891 H861 0.929 . S
C891 C886 1.371 . S
C891 C890 1.382 . S
C892 N855 1.423 . S
C892 C893 1.362 . S
C892 C897 1.388 . S
C893 H863 0.929 . S
C893 C892 1.362 . S
C893 C894 1.376 . S
C894 H865 0.931 . S
C894 C893 1.376 . S
C894 C895 1.396 . S
C895 C894 1.396 . S
C895 C896 1.348 . S
C895 C913 1.472 . S
C896 H866 0.929 . S
C896 C895 1.348 . S
C896 C897 1.443 . S
C897 H864 0.932 . S
C897 C892 1.388 . S
C897 C896 1.443 . S
C898 N878 1.433 . S
C898 C899 1.363 . S
C898 C903 1.370 . S
C899 H867 0.929 . S
C899 C898 1.363 . S
C899 C900 1.385 . S
C900 H868 0.930 . S
C900 C899 1.385 . S
C900 C901 1.357 . S
C901 C900 1.357 . S
C901 C902 1.406 . S
C902 H869 0.929 . S
C902 C901 1.406 . S
C902 C903 1.391 . S
C903 H870 0.931 . S
C903 C898 1.370 . S
C903 C902 1.391 . S
C904 N878 1.435 . S
C904 C905 1.358 . S
C904 C909 1.371 . S
C905 H871 0.930 . S
C905 C904 1.358 . S
C905 C906 1.405 . S
C906 H872 0.932 . S
C906 C905 1.405 . S
C906 C907 1.383 . S
C907 C906 1.383 . S
C907 C908 1.393 . S
C908 H873 0.931 . S
C908 C907 1.393 . S
C908 C909 1.382 . S
C909 H874 0.929 . S
C909 C904 1.371 . S
C909 C908 1.382 . S
C910 N878 1.423 . S
C910 C911 1.362 . S
C910 C915 1.388 . S
C911 H875 0.929 . S
C911 C910 1.362 . S
C911 C912 1.376 . S
C912 H876 0.931 . S
C912 C911 1.376 . S
C912 C913 1.396 . S
C913 C895 1.472 . S
C913 C912 1.396 . S
C913 C914 1.348 . S
C914 H877 0.929 . S
C914 C913 1.348 . S
C914 C915 1.443 . S
C915 H879 0.932 . S
C915 C910 1.388 . S
C915 C914 1.443 . S
H916 C943 0.929 . S
N917 C942 1.433 . S
N917 C948 1.435 . S
N917 C954 1.423 . S
H918 C944 0.930 . S
H919 C947 0.931 . S
H920 C946 0.929 . S
H921 C949 0.930 . S
H922 C950 0.932 . S
H923 C953 0.929 . S
H924 C952 0.931 . S
H925 C955 0.929 . S
H926 C959 0.932 1_545 S
H927 C956 0.931 . S
H928 C958 0.929 . S
H929 C961 0.929 . S
H930 C962 0.930 . S
H931 C964 0.929 . S
H932 C965 0.931 . S
H933 C967 0.930 . S
H934 C968 0.932 . S
H935 C970 0.931 . S
H936 C971 0.929 . S
H937 C973 0.929 . S
H938 C974 0.931 . S
H939 C976 0.929 . S
N940 C960 1.433 . S
N940 C966 1.435 . S
N940 C972 1.423 . S
H941 C977 0.932 1_545 S
C942 N917 1.433 . S
C942 C943 1.363 . S
C942 C947 1.370 1_565 S
C943 H916 0.929 . S
C943 C942 1.363 . S
C943 C944 1.385 . S
C944 H918 0.930 . S
C944 C943 1.385 . S
C944 C945 1.357 1_565 S
C945 C944 1.357 1_545 S
C945 C946 1.406 . S
C946 H920 0.929 . S
C946 C945 1.406 . S
C946 C947 1.391 . S
C947 H919 0.931 . S
C947 C942 1.370 1_545 S
C947 C946 1.391 . S
C948 N917 1.435 . S
C948 C949 1.358 1_565 S
C948 C953 1.371 . S
C949 H921 0.930 . S
C949 C948 1.358 1_545 S
C949 C950 1.405 . S
C950 H922 0.932 . S
C950 C949 1.405 . S
C950 C951 1.383 1_545 S
C951 C950 1.383 1_565 S
C951 C952 1.393 . S
C952 H924 0.931 . S
C952 C951 1.393 . S
C952 C953 1.382 . S
C953 H923 0.929 . S
C953 C948 1.371 . S
C953 C952 1.382 . S
C954 N917 1.423 . S
C954 C955 1.362 . S
C954 C959 1.388 . S
C955 H925 0.929 . S
C955 C954 1.362 . S
C955 C956 1.376 . S
C956 H927 0.931 . S
C956 C955 1.376 . S
C956 C957 1.396 . S
C957 C956 1.396 . S
C957 C958 1.348 . S
C957 C975 1.472 . S
C958 H928 0.929 . S
C958 C957 1.348 . S
C958 C959 1.443 . S
C959 H926 0.932 1_565 S
C959 C954 1.388 . S
C959 C958 1.443 . S
C960 N940 1.433 . S
C960 C961 1.363 . S
C960 C965 1.370 1_565 S
C961 H929 0.929 . S
C961 C960 1.363 . S
C961 C962 1.385 . S
C962 H930 0.930 . S
C962 C961 1.385 . S
C962 C963 1.357 1_565 S
C963 C962 1.357 1_545 S
C963 C964 1.406 . S
C964 H931 0.929 . S
C964 C963 1.406 . S
C964 C965 1.391 . S
C965 H932 0.931 . S
C965 C960 1.370 1_545 S
C965 C964 1.391 . S
C966 N940 1.435 . S
C966 C967 1.358 1_565 S
C966 C971 1.371 . S
C967 H933 0.930 . S
C967 C966 1.358 1_545 S
C967 C968 1.405 . S
C968 H934 0.932 . S
C968 C967 1.405 . S
C968 C969 1.383 1_545 S
C969 C968 1.383 1_565 S
C969 C970 1.393 . S
C970 H935 0.931 . S
C970 C969 1.393 . S
C970 C971 1.382 . S
C971 H936 0.929 . S
C971 C966 1.371 . S
C971 C970 1.382 . S
C972 N940 1.423 . S
C972 C973 1.362 . S
C972 C977 1.388 . S
C973 H937 0.929 . S
C973 C972 1.362 . S
C973 C974 1.376 . S
C974 H938 0.931 . S
C974 C973 1.376 . S
C974 C975 1.396 . S
C975 C957 1.472 . S
C975 C974 1.396 . S
C975 C976 1.348 . S
C976 H939 0.929 . S
C976 C975 1.348 . S
C976 C977 1.443 . S
C977 H941 0.932 1_565 S
C977 C972 1.388 . S
C977 C976 1.443 . S
H978 C1005 0.928 1_565 S
N979 C1004 1.433 . S
N979 C1010 1.435 . S
N979 C1016 1.423 . S
H980 C1006 0.929 . S
H981 C1009 0.931 . S
H982 C1008 0.929 . S
H983 C1011 0.930 . S
H984 C1012 0.932 . S
H985 C1015 0.997 . S
H986 C1014 0.931 . S
H987 C1017 0.929 . S
H988 C1021 0.932 . S
H989 C1018 0.931 . S
H990 C1020 0.929 . S
H991 C1023 0.912 1_565 S
H992 C1024 0.924 . S
H993 C1026 0.929 . S
H994 C1027 0.931 . S
H995 C1029 0.930 . S
H996 C1030 0.932 . S
H997 C1032 0.931 . S
H998 C1033 0.942 . S
H999 C1035 0.929 . S
H1000 C1036 0.931 . S
H1001 C1038 0.929 . S
N1002 C1022 1.433 . S
N1002 C1028 1.435 . S
N1002 C1034 1.423 . S
H1003 C1039 0.932 . S
C1004 N979 1.433 . S
C1004 C1005 1.363 . S
C1004 C1009 1.370 . S
C1005 H978 0.928 1_545 S
C1005 C1004 1.363 . S
C1005 C1006 1.385 . S
C1006 H980 0.929 . S
C1006 C1005 1.385 . S
C1006 C1007 1.357 . S
C1007 C1006 1.357 . S
C1007 C1008 1.406 . S
C1008 H982 0.929 . S
C1008 C1007 1.406 . S
C1008 C1009 1.391 . S
C1009 H981 0.931 . S
C1009 C1004 1.370 . S
C1009 C1008 1.391 . S
C1010 N979 1.435 . S
C1010 C1011 1.358 . S
C1010 C1015 1.371 . S
C1011 H983 0.930 . S
C1011 C1010 1.358 . S
C1011 C1012 1.405 . S
C1012 H984 0.932 . S
C1012 C1011 1.405 . S
C1012 C1013 1.383 . S
C1013 C1012 1.383 . S
C1013 C1014 1.393 . S
C1014 H986 0.931 . S
C1014 C1013 1.393 . S
C1014 C1015 1.382 . S
C1015 H985 0.997 . S
C1015 C1010 1.371 . S
C1015 C1014 1.382 . S
C1016 N979 1.423 . S
C1016 C1017 1.362 1_545 S
C1016 C1021 1.388 . S
C1017 H987 0.929 . S
C1017 C1016 1.362 1_565 S
C1017 C1018 1.376 . S
C1018 H989 0.931 . S
C1018 C1017 1.376 . S
C1018 C1019 1.396 1_565 S
C1019 C1018 1.396 1_545 S
C1019 C1020 1.348 . S
C1019 C1037 1.472 . S
C1020 H990 0.929 . S
C1020 C1019 1.348 . S
C1020 C1021 1.443 . S
C1021 H988 0.932 . S
C1021 C1016 1.388 . S
C1021 C1020 1.443 . S
C1022 N1002 1.433 . S
C1022 C1023 1.363 . S
C1022 C1027 1.370 . S
C1023 H991 0.912 1_545 S
C1023 C1022 1.363 . S
C1023 C1024 1.385 . S
C1024 H992 0.924 . S
C1024 C1023 1.385 . S
C1024 C1025 1.357 . S
C1025 C1024 1.357 . S
C1025 C1026 1.406 . S
C1026 H993 0.929 . S
C1026 C1025 1.406 . S
C1026 C1027 1.391 . S
C1027 H994 0.931 . S
C1027 C1022 1.370 . S
C1027 C1026 1.391 . S
C1028 N1002 1.435 . S
C1028 C1029 1.358 . S
C1028 C1033 1.371 . S
C1029 H995 0.930 . S
C1029 C1028 1.358 . S
C1029 C1030 1.405 . S
C1030 H996 0.932 . S
C1030 C1029 1.405 . S
C1030 C1031 1.383 . S
C1031 C1030 1.383 . S
C1031 C1032 1.393 . S
C1032 H997 0.931 . S
C1032 C1031 1.393 . S
C1032 C1033 1.382 . S
C1033 H998 0.942 . S
C1033 C1028 1.371 . S
C1033 C1032 1.382 . S
C1034 N1002 1.423 . S
C1034 C1035 1.362 1_545 S
C1034 C1039 1.388 . S
C1035 H999 0.929 . S
C1035 C1034 1.362 1_565 S
C1035 C1036 1.376 . S
C1036 H1000 0.931 . S
C1036 C1035 1.376 . S
C1036 C1037 1.396 1_565 S
C1037 C1019 1.472 . S
C1037 C1036 1.396 1_545 S
C1037 C1038 1.348 . S
C1038 H1001 0.929 . S
C1038 C1037 1.348 . S
C1038 C1039 1.443 . S
C1039 H1003 0.932 . S
C1039 C1034 1.388 . S
C1039 C1038 1.443 . S
H1040 C1067 0.929 . S
N1041 C1066 1.433 . S
N1041 C1072 1.435 . S
N1041 C1078 1.423 . S
H1042 C1068 0.930 . S
H1043 C1071 0.931 . S
H1044 C1070 0.929 . S
H1045 C1073 0.930 . S
H1046 C1074 0.932 . S
H1047 C1077 0.929 . S
H1048 C1076 0.931 . S
H1049 C1079 0.929 . S
H1050 C1083 0.932 1_455 S
H1051 C1080 0.931 . S
H1052 C1082 0.929 . S
H1053 C1085 0.929 . S
H1054 C1086 0.930 . S
H1055 C1088 0.929 . S
H1056 C1089 0.931 . S
H1057 C1091 0.930 . S
H1058 C1092 0.932 . S
H1059 C1094 0.931 . S
H1060 C1095 0.929 . S
H1061 C1097 0.929 . S
H1062 C1098 0.931 . S
H1063 C1100 0.929 . S
N1064 C1084 1.433 . S
N1064 C1090 1.435 . S
N1064 C1096 1.423 . S
H1065 C1101 0.932 1_455 S
C1066 N1041 1.433 . S
C1066 C1067 1.363 . S
C1066 C1071 1.370 1_655 S
C1067 H1040 0.929 . S
C1067 C1066 1.363 . S
C1067 C1068 1.385 . S
C1068 H1042 0.930 . S
C1068 C1067 1.385 . S
C1068 C1069 1.357 1_655 S
C1069 C1068 1.357 1_455 S
C1069 C1070 1.406 . S
C1070 H1044 0.929 . S
C1070 C1069 1.406 . S
C1070 C1071 1.391 . S
C1071 H1043 0.931 . S
C1071 C1066 1.370 1_455 S
C1071 C1070 1.391 . S
C1072 N1041 1.435 . S
C1072 C1073 1.358 1_655 S
C1072 C1077 1.371 . S
C1073 H1045 0.930 . S
C1073 C1072 1.358 1_455 S
C1073 C1074 1.405 . S
C1074 H1046 0.932 . S
C1074 C1073 1.405 . S
C1074 C1075 1.383 1_455 S
C1075 C1074 1.383 1_655 S
C1075 C1076 1.393 . S
C1076 H1048 0.931 . S
C1076 C1075 1.393 . S
C1076 C1077 1.382 . S
C1077 H1047 0.929 . S
C1077 C1072 1.371 . S
C1077 C1076 1.382 . S
C1078 N1041 1.423 . S
C1078 C1079 1.362 . S
C1078 C1083 1.388 . S
C1079 H1049 0.929 . S
C1079 C1078 1.362 . S
C1079 C1080 1.376 . S
C1080 H1051 0.931 . S
C1080 C1079 1.376 . S
C1080 C1081 1.396 . S
C1081 C1080 1.396 . S
C1081 C1082 1.348 . S
C1081 C1099 1.472 . S
C1082 H1052 0.929 . S
C1082 C1081 1.348 . S
C1082 C1083 1.443 . S
C1083 H1050 0.932 1_655 S
C1083 C1078 1.388 . S
C1083 C1082 1.443 . S
C1084 N1064 1.433 . S
C1084 C1085 1.363 . S
C1084 C1089 1.370 1_655 S
C1085 H1053 0.929 . S
C1085 C1084 1.363 . S
C1085 C1086 1.385 . S
C1086 H1054 0.930 . S
C1086 C1085 1.385 . S
C1086 C1087 1.357 1_655 S
C1087 C1086 1.357 1_455 S
C1087 C1088 1.406 . S
C1088 H1055 0.929 . S
C1088 C1087 1.406 . S
C1088 C1089 1.391 . S
C1089 H1056 0.931 . S
C1089 C1084 1.370 1_455 S
C1089 C1088 1.391 . S
C1090 N1064 1.435 . S
C1090 C1091 1.358 1_655 S
C1090 C1095 1.371 . S
C1091 H1057 0.930 . S
C1091 C1090 1.358 1_455 S
C1091 C1092 1.405 . S
C1092 H1058 0.932 . S
C1092 C1091 1.405 . S
C1092 C1093 1.383 1_455 S
C1093 C1092 1.383 1_655 S
C1093 C1094 1.393 . S
C1094 H1059 0.931 . S
C1094 C1093 1.393 . S
C1094 C1095 1.382 . S
C1095 H1060 0.929 . S
C1095 C1090 1.371 . S
C1095 C1094 1.382 . S
C1096 N1064 1.423 . S
C1096 C1097 1.362 . S
C1096 C1101 1.388 . S
C1097 H1061 0.929 . S
C1097 C1096 1.362 . S
C1097 C1098 1.376 . S
C1098 H1062 0.931 . S
C1098 C1097 1.376 . S
C1098 C1099 1.396 . S
C1099 C1081 1.472 . S
C1099 C1098 1.396 . S
C1099 C1100 1.348 . S
C1100 H1063 0.929 . S
C1100 C1099 1.348 . S
C1100 C1101 1.443 . S
C1101 H1065 0.932 1_655 S
C1101 C1096 1.388 . S
C1101 C1100 1.443 . S
H1102 C1129 0.929 . S
N1103 C1128 1.433 . S
N1103 C1134 1.435 . S
N1103 C1140 1.423 . S
H1104 C1130 0.930 . S
H1105 C1133 0.931 . S
H1106 C1132 0.929 . S
H1107 C1135 0.930 . S
H1108 C1136 0.932 . S
H1109 C1139 0.929 . S
H1110 C1138 0.931 . S
H1111 C1141 0.929 . S
H1112 C1145 0.932 . S
H1113 C1142 0.931 . S
H1114 C1144 0.929 . S
H1115 C1147 0.929 . S
H1116 C1148 0.930 . S
H1117 C1150 0.929 . S
H1118 C1151 0.931 . S
H1119 C1153 0.930 . S
H1120 C1154 0.932 . S
H1121 C1156 0.931 . S
H1122 C1157 0.929 . S
H1123 C1159 0.929 . S
H1124 C1160 0.931 . S
H1125 C1162 0.929 . S
N1126 C1146 1.433 . S
N1126 C1152 1.435 . S
N1126 C1158 1.423 . S
H1127 C1163 0.932 . S
C1128 N1103 1.433 . S
C1128 C1129 1.363 . S
C1128 C1133 1.370 . S
C1129 H1102 0.929 . S
C1129 C1128 1.363 . S
C1129 C1130 1.385 . S
C1130 H1104 0.930 . S
C1130 C1129 1.385 . S
C1130 C1131 1.357 . S
C1131 C1130 1.357 . S
C1131 C1132 1.406 . S
C1132 H1106 0.929 . S
C1132 C1131 1.406 . S
C1132 C1133 1.391 . S
C1133 H1105 0.931 . S
C1133 C1128 1.370 . S
C1133 C1132 1.391 . S
C1134 N1103 1.435 . S
C1134 C1135 1.358 . S
C1134 C1139 1.371 . S
C1135 H1107 0.930 . S
C1135 C1134 1.358 . S
C1135 C1136 1.405 . S
C1136 H1108 0.932 . S
C1136 C1135 1.405 . S
C1136 C1137 1.383 . S
C1137 C1136 1.383 . S
C1137 C1138 1.393 . S
C1138 H1110 0.931 . S
C1138 C1137 1.393 . S
C1138 C1139 1.382 . S
C1139 H1109 0.929 . S
C1139 C1134 1.371 . S
C1139 C1138 1.382 . S
C1140 N1103 1.423 . S
C1140 C1141 1.362 . S
C1140 C1145 1.388 . S
C1141 H1111 0.929 . S
C1141 C1140 1.362 . S
C1141 C1142 1.376 . S
C1142 H1113 0.931 . S
C1142 C1141 1.376 . S
C1142 C1143 1.396 . S
C1143 C1142 1.396 . S
C1143 C1144 1.348 . S
C1143 C1161 1.472 . S
C1144 H1114 0.929 . S
C1144 C1143 1.348 . S
C1144 C1145 1.443 . S
C1145 H1112 0.932 . S
C1145 C1140 1.388 . S
C1145 C1144 1.443 . S
C1146 N1126 1.433 . S
C1146 C1147 1.363 . S
C1146 C1151 1.370 . S
C1147 H1115 0.929 . S
C1147 C1146 1.363 . S
C1147 C1148 1.385 . S
C1148 H1116 0.930 . S
C1148 C1147 1.385 . S
C1148 C1149 1.357 . S
C1149 C1148 1.357 . S
C1149 C1150 1.406 . S
C1150 H1117 0.929 . S
C1150 C1149 1.406 . S
C1150 C1151 1.391 . S
C1151 H1118 0.931 . S
C1151 C1146 1.370 . S
C1151 C1150 1.391 . S
C1152 N1126 1.435 . S
C1152 C1153 1.358 . S
C1152 C1157 1.371 . S
C1153 H1119 0.930 . S
C1153 C1152 1.358 . S
C1153 C1154 1.405 . S
C1154 H1120 0.932 . S
C1154 C1153 1.405 . S
C1154 C1155 1.383 . S
C1155 C1154 1.383 . S
C1155 C1156 1.393 . S
C1156 H1121 0.931 . S
C1156 C1155 1.393 . S
C1156 C1157 1.382 . S
C1157 H1122 0.929 . S
C1157 C1152 1.371 . S
C1157 C1156 1.382 . S
C1158 N1126 1.423 . S
C1158 C1159 1.362 . S
C1158 C1163 1.388 . S
C1159 H1123 0.929 . S
C1159 C1158 1.362 . S
C1159 C1160 1.376 . S
C1160 H1124 0.931 . S
C1160 C1159 1.376 . S
C1160 C1161 1.396 . S
C1161 C1143 1.472 . S
C1161 C1160 1.396 . S
C1161 C1162 1.348 . S
C1162 H1125 0.929 . S
C1162 C1161 1.348 . S
C1162 C1163 1.443 . S
C1163 H1127 0.932 . S
C1163 C1158 1.388 . S
C1163 C1162 1.443 . S
H1164 C1191 0.929 . S
N1165 C1190 1.433 . S
N1165 C1196 1.435 . S
N1165 C1202 1.423 . S
H1166 C1192 0.930 . S
H1167 C1195 0.931 . S
H1168 C1194 0.929 . S
H1169 C1197 0.930 . S
H1170 C1198 0.932 . S
H1171 C1201 0.929 . S
H1172 C1200 0.931 . S
H1173 C1203 0.929 . S
H1174 C1207 0.932 . S
H1175 C1204 0.931 . S
H1176 C1206 0.929 . S
H1177 C1209 0.929 . S
H1178 C1210 0.930 . S
H1179 C1212 0.929 . S
H1180 C1213 0.931 . S
H1181 C1215 0.930 . S
H1182 C1216 0.932 . S
H1183 C1218 0.931 . S
H1184 C1219 0.929 . S
H1185 C1221 0.929 . S
H1186 C1222 0.931 . S
H1187 C1224 0.929 . S
N1188 C1208 1.433 . S
N1188 C1214 1.435 . S
N1188 C1220 1.423 . S
H1189 C1225 0.932 . S
C1190 N1165 1.433 . S
C1190 C1191 1.363 . S
C1190 C1195 1.370 . S
C1191 H1164 0.929 . S
C1191 C1190 1.363 . S
C1191 C1192 1.385 . S
C1192 H1166 0.930 . S
C1192 C1191 1.385 . S
C1192 C1193 1.357 . S
C1193 C1192 1.357 . S
C1193 C1194 1.406 . S
C1194 H1168 0.929 . S
C1194 C1193 1.406 . S
C1194 C1195 1.391 . S
C1195 H1167 0.931 . S
C1195 C1190 1.370 . S
C1195 C1194 1.391 . S
C1196 N1165 1.435 . S
C1196 C1197 1.358 . S
C1196 C1201 1.371 . S
C1197 H1169 0.930 . S
C1197 C1196 1.358 . S
C1197 C1198 1.405 . S
C1198 H1170 0.932 . S
C1198 C1197 1.405 . S
C1198 C1199 1.383 . S
C1199 C1198 1.383 . S
C1199 C1200 1.393 . S
C1200 H1172 0.931 . S
C1200 C1199 1.393 . S
C1200 C1201 1.382 . S
C1201 H1171 0.929 . S
C1201 C1196 1.371 . S
C1201 C1200 1.382 . S
C1202 N1165 1.423 . S
C1202 C1203 1.362 . S
C1202 C1207 1.388 . S
C1203 H1173 0.929 . S
C1203 C1202 1.362 . S
C1203 C1204 1.376 . S
C1204 H1175 0.931 . S
C1204 C1203 1.376 . S
C1204 C1205 1.396 . S
C1205 C1204 1.396 . S
C1205 C1206 1.348 . S
C1205 C1223 1.472 . S
C1206 H1176 0.929 . S
C1206 C1205 1.348 . S
C1206 C1207 1.443 . S
C1207 H1174 0.932 . S
C1207 C1202 1.388 . S
C1207 C1206 1.443 . S
C1208 N1188 1.433 . S
C1208 C1209 1.363 . S
C1208 C1213 1.370 . S
C1209 H1177 0.929 . S
C1209 C1208 1.363 . S
C1209 C1210 1.385 . S
C1210 H1178 0.930 . S
C1210 C1209 1.385 . S
C1210 C1211 1.357 . S
C1211 C1210 1.357 . S
C1211 C1212 1.406 . S
C1212 H1179 0.929 . S
C1212 C1211 1.406 . S
C1212 C1213 1.391 . S
C1213 H1180 0.931 . S
C1213 C1208 1.370 . S
C1213 C1212 1.391 . S
C1214 N1188 1.435 . S
C1214 C1215 1.358 . S
C1214 C1219 1.371 . S
C1215 H1181 0.930 . S
C1215 C1214 1.358 . S
C1215 C1216 1.405 . S
C1216 H1182 0.932 . S
C1216 C1215 1.405 . S
C1216 C1217 1.383 . S
C1217 C1216 1.383 . S
C1217 C1218 1.393 . S
C1218 H1183 0.931 . S
C1218 C1217 1.393 . S
C1218 C1219 1.382 . S
C1219 H1184 0.929 . S
C1219 C1214 1.371 . S
C1219 C1218 1.382 . S
C1220 N1188 1.423 . S
C1220 C1221 1.362 . S
C1220 C1225 1.388 . S
C1221 H1185 0.929 . S
C1221 C1220 1.362 . S
C1221 C1222 1.376 . S
C1222 H1186 0.931 . S
C1222 C1221 1.376 . S
C1222 C1223 1.396 . S
C1223 C1205 1.472 . S
C1223 C1222 1.396 . S
C1223 C1224 1.348 . S
C1224 H1187 0.929 . S
C1224 C1223 1.348 . S
C1224 C1225 1.443 . S
C1225 H1189 0.932 . S
C1225 C1220 1.388 . S
C1225 C1224 1.443 . S
H1226 C1253 0.929 . S
N1227 C1252 1.433 . S
N1227 C1258 1.435 . S
N1227 C1264 1.423 . S
H1228 C1254 0.930 . S
H1229 C1257 0.931 . S
H1230 C1256 0.929 . S
H1231 C1259 0.930 . S
H1232 C1260 0.932 . S
H1233 C1263 0.929 . S
H1234 C1262 0.931 . S
H1235 C1265 0.929 . S
H1236 C1269 0.932 . S
H1237 C1266 0.931 . S
H1238 C1268 0.929 . S
H1239 C1271 0.929 . S
H1240 C1272 0.930 . S
H1241 C1274 0.929 . S
H1242 C1275 0.931 . S
H1243 C1277 0.930 . S
H1244 C1278 0.932 . S
H1245 C1280 0.931 . S
H1246 C1281 0.929 . S
H1247 C1283 0.929 . S
H1248 C1284 0.931 . S
H1249 C1286 0.929 . S
N1250 C1270 1.433 . S
N1250 C1276 1.435 . S
N1250 C1282 1.423 . S
H1251 C1287 0.932 . S
C1252 N1227 1.433 . S
C1252 C1253 1.363 . S
C1252 C1257 1.370 . S
C1253 H1226 0.929 . S
C1253 C1252 1.363 . S
C1253 C1254 1.385 . S
C1254 H1228 0.930 . S
C1254 C1253 1.385 . S
C1254 C1255 1.357 . S
C1255 C1254 1.357 . S
C1255 C1256 1.406 . S
C1256 H1230 0.929 . S
C1256 C1255 1.406 . S
C1256 C1257 1.391 . S
C1257 H1229 0.931 . S
C1257 C1252 1.370 . S
C1257 C1256 1.391 . S
C1258 N1227 1.435 . S
C1258 C1259 1.358 . S
C1258 C1263 1.371 . S
C1259 H1231 0.930 . S
C1259 C1258 1.358 . S
C1259 C1260 1.405 . S
C1260 H1232 0.932 . S
C1260 C1259 1.405 . S
C1260 C1261 1.383 . S
C1261 C1260 1.383 . S
C1261 C1262 1.393 . S
C1262 H1234 0.931 . S
C1262 C1261 1.393 . S
C1262 C1263 1.382 . S
C1263 H1233 0.929 . S
C1263 C1258 1.371 . S
C1263 C1262 1.382 . S
C1264 N1227 1.423 . S
C1264 C1265 1.362 . S
C1264 C1269 1.388 . S
C1265 H1235 0.929 . S
C1265 C1264 1.362 . S
C1265 C1266 1.376 . S
C1266 H1237 0.931 . S
C1266 C1265 1.376 . S
C1266 C1267 1.396 . S
C1267 C1266 1.396 . S
C1267 C1268 1.348 . S
C1267 C1285 1.472 . S
C1268 H1238 0.929 . S
C1268 C1267 1.348 . S
C1268 C1269 1.443 . S
C1269 H1236 0.932 . S
C1269 C1264 1.388 . S
C1269 C1268 1.443 . S
C1270 N1250 1.433 . S
C1270 C1271 1.363 . S
C1270 C1275 1.370 . S
C1271 H1239 0.929 . S
C1271 C1270 1.363 . S
C1271 C1272 1.385 . S
C1272 H1240 0.930 . S
C1272 C1271 1.385 . S
C1272 C1273 1.357 . S
C1273 C1272 1.357 . S
C1273 C1274 1.406 . S
C1274 H1241 0.929 . S
C1274 C1273 1.406 . S
C1274 C1275 1.391 . S
C1275 H1242 0.931 . S
C1275 C1270 1.370 . S
C1275 C1274 1.391 . S
C1276 N1250 1.435 . S
C1276 C1277 1.358 . S
C1276 C1281 1.371 . S
C1277 H1243 0.930 . S
C1277 C1276 1.358 . S
C1277 C1278 1.405 . S
C1278 H1244 0.932 . S
C1278 C1277 1.405 . S
C1278 C1279 1.383 . S
C1279 C1278 1.383 . S
C1279 C1280 1.393 . S
C1280 H1245 0.931 . S
C1280 C1279 1.393 . S
C1280 C1281 1.382 . S
C1281 H1246 0.929 . S
C1281 C1276 1.371 . S
C1281 C1280 1.382 . S
C1282 N1250 1.423 . S
C1282 C1283 1.362 . S
C1282 C1287 1.388 . S
C1283 H1247 0.929 . S
C1283 C1282 1.362 . S
C1283 C1284 1.376 . S
C1284 H1248 0.931 . S
C1284 C1283 1.376 . S
C1284 C1285 1.396 . S
C1285 C1267 1.472 . S
C1285 C1284 1.396 . S
C1285 C1286 1.348 . S
C1286 H1249 0.929 . S
C1286 C1285 1.348 . S
C1286 C1287 1.443 . S
C1287 H1251 0.932 . S
C1287 C1282 1.388 . S
C1287 C1286 1.443 . S
H1288 C1315 0.929 . S
N1289 C1314 1.433 . S
N1289 C1320 1.435 . S
N1289 C1326 1.423 . S
H1290 C1316 0.930 . S
H1291 C1319 0.931 . S
H1292 C1318 0.929 . S
H1293 C1321 0.930 . S
H1294 C1322 0.932 . S
H1295 C1325 0.929 . S
H1296 C1324 0.931 . S
H1297 C1327 0.929 . S
H1298 C1331 0.932 . S
H1299 C1328 0.931 . S
H1300 C1330 0.929 . S
H1301 C1333 0.929 . S
H1302 C1334 0.930 . S
H1303 C1336 0.929 . S
H1304 C1337 0.931 . S
H1305 C1339 0.930 . S
H1306 C1340 0.932 . S
H1307 C1342 0.931 . S
H1308 C1343 0.929 . S
H1309 C1345 0.929 . S
H1310 C1346 0.931 . S
H1311 C1348 0.929 . S
N1312 C1332 1.433 . S
N1312 C1338 1.435 . S
N1312 C1344 1.423 . S
H1313 C1349 0.932 . S
C1314 N1289 1.433 . S
C1314 C1315 1.363 . S
C1314 C1319 1.370 . S
C1315 H1288 0.929 . S
C1315 C1314 1.363 . S
C1315 C1316 1.385 . S
C1316 H1290 0.930 . S
C1316 C1315 1.385 . S
C1316 C1317 1.357 . S
C1317 C1316 1.357 . S
C1317 C1318 1.406 . S
C1318 H1292 0.929 . S
C1318 C1317 1.406 . S
C1318 C1319 1.391 . S
C1319 H1291 0.931 . S
C1319 C1314 1.370 . S
C1319 C1318 1.391 . S
C1320 N1289 1.435 . S
C1320 C1321 1.358 . S
C1320 C1325 1.371 . S
C1321 H1293 0.930 . S
C1321 C1320 1.358 . S
C1321 C1322 1.405 . S
C1322 H1294 0.932 . S
C1322 C1321 1.405 . S
C1322 C1323 1.383 . S
C1323 C1322 1.383 . S
C1323 C1324 1.393 . S
C1324 H1296 0.931 . S
C1324 C1323 1.393 . S
C1324 C1325 1.382 . S
C1325 H1295 0.929 . S
C1325 C1320 1.371 . S
C1325 C1324 1.382 . S
C1326 N1289 1.423 . S
C1326 C1327 1.362 . S
C1326 C1331 1.388 . S
C1327 H1297 0.929 . S
C1327 C1326 1.362 . S
C1327 C1328 1.376 . S
C1328 H1299 0.931 . S
C1328 C1327 1.376 . S
C1328 C1329 1.396 . S
C1329 C1328 1.396 . S
C1329 C1330 1.348 . S
C1329 C1347 1.472 . S
C1330 H1300 0.929 . S
C1330 C1329 1.348 . S
C1330 C1331 1.443 . S
C1331 H1298 0.932 . S
C1331 C1326 1.388 . S
C1331 C1330 1.443 . S
C1332 N1312 1.433 . S
C1332 C1333 1.363 . S
C1332 C1337 1.370 . S
C1333 H1301 0.929 . S
C1333 C1332 1.363 . S
C1333 C1334 1.385 . S
C1334 H1302 0.930 . S
C1334 C1333 1.385 . S
C1334 C1335 1.357 . S
C1335 C1334 1.357 . S
C1335 C1336 1.406 . S
C1336 H1303 0.929 . S
C1336 C1335 1.406 . S
C1336 C1337 1.391 . S
C1337 H1304 0.931 . S
C1337 C1332 1.370 . S
C1337 C1336 1.391 . S
C1338 N1312 1.435 . S
C1338 C1339 1.358 . S
C1338 C1343 1.371 . S
C1339 H1305 0.930 . S
C1339 C1338 1.358 . S
C1339 C1340 1.405 . S
C1340 H1306 0.932 . S
C1340 C1339 1.405 . S
C1340 C1341 1.383 . S
C1341 C1340 1.383 . S
C1341 C1342 1.393 . S
C1342 H1307 0.931 . S
C1342 C1341 1.393 . S
C1342 C1343 1.382 . S
C1343 H1308 0.929 . S
C1343 C1338 1.371 . S
C1343 C1342 1.382 . S
C1344 N1312 1.423 . S
C1344 C1345 1.362 . S
C1344 C1349 1.388 . S
C1345 H1309 0.929 . S
C1345 C1344 1.362 . S
C1345 C1346 1.376 . S
C1346 H1310 0.931 . S
C1346 C1345 1.376 . S
C1346 C1347 1.396 . S
C1347 C1329 1.472 . S
C1347 C1346 1.396 . S
C1347 C1348 1.348 . S
C1348 H1311 0.929 . S
C1348 C1347 1.348 . S
C1348 C1349 1.443 . S
C1349 H1313 0.932 . S
C1349 C1344 1.388 . S
C1349 C1348 1.443 . S
C1350 C1351 1.387 . S
C1350 H1354 0.950 . S
C1350 C1359 1.390 . S
C1351 C1350 1.387 . S
C1351 C1353 1.387 . S
H1352 C1359 0.950 . S
C1353 C1351 1.387 . S
C1353 C1355 1.390 . S
C1353 H1357 0.950 . S
H1354 C1350 0.950 . S
C1355 C1353 1.390 . S
C1355 C1356 1.387 . S
C1355 H1358 0.950 . S
C1356 C1355 1.387 . S
C1356 C1359 1.387 . S
H1357 C1353 0.950 . S
H1358 C1355 0.950 . S
C1359 C1350 1.390 . S
C1359 H1352 0.950 . S
C1359 C1356 1.387 . S
C1360 C1361 1.387 . S
C1360 H1364 0.950 . S
C1360 C1369 1.390 . S
C1361 C1360 1.387 . S
C1361 C1363 1.387 . S
H1362 C1369 0.950 . S
C1363 C1361 1.387 . S
C1363 C1365 1.390 . S
C1363 H1367 0.950 . S
H1364 C1360 0.950 . S
C1365 C1363 1.390 . S
C1365 C1366 1.387 . S
C1365 H1368 0.950 . S
C1366 C1365 1.387 . S
C1366 C1369 1.387 . S
H1367 C1363 0.950 . S
H1368 C1365 0.950 . S
C1369 C1360 1.390 . S
C1369 H1362 0.950 . S
C1369 C1366 1.387 . S
C1370 C1371 1.387 . S
C1370 H1374 0.950 . S
C1370 C1379 1.390 . S
C1371 C1370 1.387 . S
C1371 C1373 1.387 1_545 S
H1372 C1379 0.950 . S
C1373 C1371 1.387 1_565 S
C1373 C1375 1.390 . S
C1373 H1377 0.950 . S
H1374 C1370 0.950 . S
C1375 C1373 1.390 . S
C1375 C1376 1.387 1_565 S
C1375 H1378 0.950 . S
C1376 C1375 1.387 1_545 S
C1376 C1379 1.387 . S
H1377 C1373 0.950 . S
H1378 C1375 0.950 . S
C1379 C1370 1.390 . S
C1379 H1372 0.950 . S
C1379 C1376 1.387 . S
C1380 C1381 1.387 . S
C1380 H1384 0.950 . S
C1380 C1389 1.390 . S
C1381 C1380 1.387 . S
C1381 C1383 1.387 1_545 S
H1382 C1389 0.950 . S
C1383 C1381 1.387 1_565 S
C1383 C1385 1.390 . S
C1383 H1387 0.950 . S
H1384 C1380 0.950 . S
C1385 C1383 1.390 . S
C1385 C1386 1.387 1_565 S
C1385 H1388 0.950 . S
C1386 C1385 1.387 1_545 S
C1386 C1389 1.387 . S
H1387 C1383 0.950 . S
H1388 C1385 0.950 . S
C1389 C1380 1.390 . S
C1389 H1382 0.950 . S
C1389 C1386 1.387 . S
C1390 C1391 1.387 . S
C1390 H1394 0.950 . S
C1390 C1399 1.390 . S
C1391 C1390 1.387 . S
C1391 C1393 1.387 1_455 S
H1392 C1399 0.950 . S
C1393 C1391 1.387 1_655 S
C1393 C1395 1.390 . S
C1393 H1397 0.950 . S
H1394 C1390 0.950 . S
C1395 C1393 1.390 . S
C1395 C1396 1.387 1_655 S
C1395 H1398 0.950 . S
C1396 C1395 1.387 1_455 S
C1396 C1399 1.387 . S
H1397 C1393 0.950 . S
H1398 C1395 0.950 . S
C1399 C1390 1.390 . S
C1399 H1392 0.950 . S
C1399 C1396 1.387 . S
C1400 C1401 1.387 . S
C1400 H1404 0.950 . S
C1400 C1409 1.390 . S
C1401 C1400 1.387 . S
C1401 C1403 1.387 . S
H1402 C1409 0.950 . S
C1403 C1401 1.387 . S
C1403 C1405 1.390 . S
C1403 H1407 0.950 . S
H1404 C1400 0.950 . S
C1405 C1403 1.390 . S
C1405 C1406 1.387 . S
C1405 H1408 0.950 . S
C1406 C1405 1.387 . S
C1406 C1409 1.387 . S
H1407 C1403 0.950 . S
H1408 C1405 0.950 . S
C1409 C1400 1.390 . S
C1409 H1402 0.950 . S
C1409 C1406 1.387 . S
C1410 C1411 1.387 . S
C1410 H1414 0.950 . S
C1410 C1419 1.390 . S
C1411 C1410 1.387 . S
C1411 C1413 1.387 1_455 S
H1412 C1419 0.950 . S
C1413 C1411 1.387 1_655 S
C1413 C1415 1.390 . S
C1413 H1417 0.950 . S
H1414 C1410 0.950 . S
C1415 C1413 1.390 . S
C1415 C1416 1.387 1_655 S
C1415 H1418 0.950 . S
C1416 C1415 1.387 1_455 S
C1416 C1419 1.387 . S
H1417 C1413 0.950 . S
H1418 C1415 0.950 . S
C1419 C1410 1.390 . S
C1419 H1412 0.950 . S
C1419 C1416 1.387 . S
C1420 C1421 1.387 . S
C1420 H1424 0.950 . S
C1420 C1429 1.390 . S
C1421 C1420 1.387 . S
C1421 C1423 1.387 . S
H1422 C1429 0.950 . S
C1423 C1421 1.387 . S
C1423 C1425 1.390 . S
C1423 H1427 0.950 . S
H1424 C1420 0.950 . S
C1425 C1423 1.390 . S
C1425 C1426 1.387 . S
C1425 H1428 0.950 . S
C1426 C1425 1.387 . S
C1426 C1429 1.387 . S
H1427 C1423 0.950 . S
H1428 C1425 0.950 . S
C1429 C1420 1.390 . S
C1429 H1422 0.950 . S
C1429 C1426 1.387 . S
C1430 C1431 1.387 1_565 S
C1430 H1434 0.950 . S
C1430 C1439 1.390 . S
C1431 C1430 1.387 1_545 S
C1431 C1433 1.387 . S
H1432 C1439 0.950 . S
C1433 C1431 1.387 . S
C1433 C1435 1.390 . S
C1433 H1437 0.950 . S
H1434 C1430 0.950 . S
C1435 C1433 1.390 . S
C1435 C1436 1.387 . S
C1435 H1438 0.950 . S
C1436 C1435 1.387 . S
C1436 C1439 1.387 1_545 S
H1437 C1433 0.950 . S
H1438 C1435 0.950 . S
C1439 C1430 1.390 . S
C1439 H1432 0.950 . S
C1439 C1436 1.387 1_565 S
C1440 C1441 1.387 . S
C1440 H1444 0.950 . S
C1440 C1449 1.390 . S
C1441 C1440 1.387 . S
C1441 C1443 1.387 1_545 S
H1442 C1449 0.950 . S
C1443 C1441 1.387 1_565 S
C1443 C1445 1.390 . S
C1443 H1447 0.950 . S
H1444 C1440 0.950 . S
C1445 C1443 1.390 . S
C1445 C1446 1.387 1_565 S
C1445 H1448 0.950 . S
C1446 C1445 1.387 1_545 S
C1446 C1449 1.387 . S
H1447 C1443 0.950 . S
H1448 C1445 0.950 . S
C1449 C1440 1.390 . S
C1449 H1442 0.950 . S
C1449 C1446 1.387 . S
C1450 C1451 1.387 . S
C1450 H1454 0.950 . S
C1450 C1459 1.390 . S
C1451 C1450 1.387 . S
C1451 C1453 1.399 . S
H1452 C1459 0.950 . S
C1453 C1451 1.399 . S
C1453 C1455 1.392 . S
C1453 H1457 0.926 1_455 S
H1454 C1450 0.950 . S
C1455 C1453 1.392 . S
C1455 C1456 1.410 . S
C1455 H1458 0.941 1_455 S
C1456 C1455 1.410 . S
C1456 C1459 1.387 . S
H1457 C1453 0.926 1_655 S
H1458 C1455 0.941 1_655 S
C1459 C1450 1.390 . S
C1459 H1452 0.950 . S
C1459 C1456 1.387 . S
C1460 C1461 1.387 . S
C1460 H1464 0.950 . S
C1460 C1469 1.390 . S
C1461 C1460 1.387 . S
C1461 C1463 1.387 . S
H1462 C1469 0.950 . S
C1463 C1461 1.387 . S
C1463 C1465 1.390 . S
C1463 H1467 0.950 . S
H1464 C1460 0.950 . S
C1465 C1463 1.390 . S
C1465 C1466 1.387 . S
C1465 H1468 0.950 . S
C1466 C1465 1.387 . S
C1466 C1469 1.387 . S
H1467 C1463 0.950 . S
H1468 C1465 0.950 . S
C1469 C1460 1.390 . S
C1469 H1462 0.950 . S
C1469 C1466 1.387 . S
C1470 C1471 1.387 . S
C1470 H1474 0.950 . S
C1470 C1479 1.390 . S
C1471 C1470 1.387 . S
C1471 C1473 1.387 . S
H1472 C1479 0.950 . S
C1473 C1471 1.387 . S
C1473 C1475 1.390 . S
C1473 H1477 0.950 . S
H1474 C1470 0.950 . S
C1475 C1473 1.390 . S
C1475 C1476 1.387 . S
C1475 H1478 0.950 . S
C1476 C1475 1.387 . S
C1476 C1479 1.387 . S
H1477 C1473 0.950 . S
H1478 C1475 0.950 . S
C1479 C1470 1.390 . S
C1479 H1472 0.950 . S
C1479 C1476 1.387 . S
C1480 C1481 1.387 . S
C1480 H1484 0.950 . S
C1480 C1489 1.390 . S
C1481 C1480 1.387 . S
C1481 C1483 1.387 . S
H1482 C1489 0.950 . S
C1483 C1481 1.387 . S
C1483 C1485 1.390 . S
C1483 H1487 0.950 . S
H1484 C1480 0.950 . S
C1485 C1483 1.390 . S
C1485 C1486 1.387 . S
C1485 H1488 0.950 . S
C1486 C1485 1.387 . S
C1486 C1489 1.387 . S
H1487 C1483 0.950 . S
H1488 C1485 0.950 . S
C1489 C1480 1.390 . S
C1489 H1482 0.950 . S
C1489 C1486 1.387 . S
C1490 C1491 1.387 . S
C1490 H1494 0.950 . S
C1490 C1499 1.390 . S
C1491 C1490 1.387 . S
C1491 C1493 1.387 . S
H1492 C1499 0.950 . S
C1493 C1491 1.387 . S
C1493 C1495 1.390 . S
C1493 H1497 0.950 . S
H1494 C1490 0.950 . S
C1495 C1493 1.390 . S
C1495 C1496 1.387 . S
C1495 H1498 0.950 . S
C1496 C1495 1.387 . S
C1496 C1499 1.387 . S
H1497 C1493 0.950 . S
H1498 C1495 0.950 . S
C1499 C1490 1.390 . S
C1499 H1492 0.950 . S
C1499 C1496 1.387 . S
C1500 C1501 1.387 . S
C1500 H1504 0.950 . S
C1500 C1509 1.390 . S
C1501 C1500 1.387 . S
C1501 C1503 1.387 . S
H1502 C1509 0.950 . S
C1503 C1501 1.387 . S
C1503 C1505 1.390 . S
C1503 H1507 0.950 . S
H1504 C1500 0.950 . S
C1505 C1503 1.390 . S
C1505 C1506 1.387 . S
C1505 H1508 0.950 . S
C1506 C1505 1.387 . S
C1506 C1509 1.387 . S
H1507 C1503 0.950 . S
H1508 C1505 0.950 . S
C1509 C1500 1.390 . S
C1509 H1502 0.950 . S
C1509 C1506 1.387 . S
C1510 C1511 1.387 . S
C1510 H1514 0.950 . S
C1510 C1519 1.390 . S
C1511 C1510 1.387 . S
C1511 C1513 1.387 . S
H1512 C1519 0.950 . S
C1513 C1511 1.387 . S
C1513 C1515 1.390 . S
C1513 H1517 0.950 . S
H1514 C1510 0.950 . S
C1515 C1513 1.390 . S
C1515 C1516 1.387 . S
C1515 H1518 0.950 . S
C1516 C1515 1.387 . S
C1516 C1519 1.387 . S
H1517 C1513 0.950 . S
H1518 C1515 0.950 . S
C1519 C1510 1.390 . S
C1519 H1512 0.950 . S
C1519 C1516 1.387 . S
C1520 C1521 1.387 . S
C1520 H1524 0.950 . S
C1520 C1529 1.390 . S
C1521 C1520 1.387 . S
C1521 C1523 1.387 . S
H1522 C1529 0.950 . S
C1523 C1521 1.387 . S
C1523 C1525 1.390 . S
C1523 H1527 0.950 . S
H1524 C1520 0.950 . S
C1525 C1523 1.390 . S
C1525 C1526 1.387 . S
C1525 H1528 0.950 . S
C1526 C1525 1.387 . S
C1526 C1529 1.387 . S
H1527 C1523 0.950 . S
H1528 C1525 0.950 . S
C1529 C1520 1.390 . S
C1529 H1522 0.950 . S
C1529 C1526 1.387 . S
C1530 C1531 1.387 . S
C1530 H1534 0.950 . S
C1530 C1539 1.390 . S
C1531 C1530 1.387 . S
C1531 C1533 1.387 . S
H1532 C1539 0.950 . S
C1533 C1531 1.387 . S
C1533 C1535 1.390 . S
C1533 H1537 0.950 . S
H1534 C1530 0.950 . S
C1535 C1533 1.390 . S
C1535 C1536 1.387 . S
C1535 H1538 0.950 . S
C1536 C1535 1.387 . S
C1536 C1539 1.387 . S
H1537 C1533 0.950 . S
H1538 C1535 0.950 . S
C1539 C1530 1.390 . S
C1539 H1532 0.950 . S
C1539 C1536 1.387 . S
C1540 C1541 1.387 . S
C1540 H1544 0.950 . S
C1540 C1549 1.390 . S
C1541 C1540 1.387 . S
C1541 C1543 1.387 . S
H1542 C1549 0.950 . S
C1543 C1541 1.387 . S
C1543 C1545 1.390 . S
C1543 H1547 0.950 . S
H1544 C1540 0.950 . S
C1545 C1543 1.390 . S
C1545 C1546 1.387 . S
C1545 H1548 0.950 . S
C1546 C1545 1.387 . S
C1546 C1549 1.387 . S
H1547 C1543 0.950 . S
H1548 C1545 0.950 . S
C1549 C1540 1.390 . S
C1549 H1542 0.950 . S
C1549 C1546 1.387 . S
C1550 C1551 1.387 . S
C1550 H1554 0.950 . S
C1550 C1559 1.390 . S
C1551 C1550 1.387 . S
C1551 C1553 1.387 . S
H1552 C1559 0.950 . S
C1553 C1551 1.387 . S
C1553 C1555 1.390 . S
C1553 H1557 0.950 . S
H1554 C1550 0.950 . S
C1555 C1553 1.390 . S
C1555 C1556 1.387 . S
C1555 H1558 0.950 . S
C1556 C1555 1.387 . S
C1556 C1559 1.387 . S
H1557 C1553 0.950 . S
H1558 C1555 0.950 . S
C1559 C1550 1.390 . S
C1559 H1552 0.950 . S
C1559 C1556 1.387 . S
C1560 C1561 1.387 . S
C1560 H1564 0.950 . S
C1560 C1569 1.390 . S
C1561 C1560 1.387 . S
C1561 C1563 1.387 . S
H1562 C1569 0.950 . S
C1563 C1561 1.387 . S
C1563 C1565 1.390 . S
C1563 H1567 0.950 . S
H1564 C1560 0.950 . S
C1565 C1563 1.390 . S
C1565 C1566 1.387 . S
C1565 H1568 0.950 . S
C1566 C1565 1.387 . S
C1566 C1569 1.387 . S
H1567 C1563 0.950 . S
H1568 C1565 0.950 . S
C1569 C1560 1.390 . S
C1569 H1562 0.950 . S
C1569 C1566 1.387 . S
C1570 C1571 1.387 . S
C1570 H1574 0.950 . S
C1570 C1579 1.390 . S
C1571 C1570 1.387 . S
C1571 C1573 1.387 . S
H1572 C1579 0.950 . S
C1573 C1571 1.387 . S
C1573 C1575 1.390 . S
C1573 H1577 0.950 . S
H1574 C1570 0.950 . S
C1575 C1573 1.390 . S
C1575 C1576 1.387 . S
C1575 H1578 0.950 . S
C1576 C1575 1.387 . S
C1576 C1579 1.387 . S
H1577 C1573 0.950 . S
H1578 C1575 0.950 . S
C1579 C1570 1.390 . S
C1579 H1572 0.950 . S
C1579 C1576 1.387 . S
C1580 C1581 1.387 . S
C1580 H1584 0.950 . S
C1580 C1589 1.390 . S
C1581 C1580 1.387 . S
C1581 C1583 1.387 . S
H1582 C1589 0.950 . S
C1583 C1581 1.387 . S
C1583 C1585 1.390 . S
C1583 H1587 0.950 . S
H1584 C1580 0.950 . S
C1585 C1583 1.390 . S
C1585 C1586 1.387 . S
C1585 H1588 0.950 . S
C1586 C1585 1.387 . S
C1586 C1589 1.387 . S
H1587 C1583 0.950 . S
H1588 C1585 0.950 . S
C1589 C1580 1.390 . S
C1589 H1582 0.950 . S
C1589 C1586 1.387 . S
C1590 C1591 1.387 . S
C1590 H1594 0.950 . S
C1590 C1599 1.390 . S
C1591 C1590 1.387 . S
C1591 C1593 1.387 . S
H1592 C1599 0.950 . S
C1593 C1591 1.387 . S
C1593 C1595 1.390 . S
C1593 H1597 0.950 . S
H1594 C1590 0.950 . S
C1595 C1593 1.390 . S
C1595 C1596 1.387 . S
C1595 H1598 0.950 . S
C1596 C1595 1.387 . S
C1596 C1599 1.387 . S
H1597 C1593 0.950 . S
H1598 C1595 0.950 . S
C1599 C1590 1.390 . S
C1599 H1592 0.950 . S
C1599 C1596 1.387 . S
C1600 C1601 1.387 . S
C1600 H1604 0.950 . S
C1600 C1609 1.390 . S
C1601 C1600 1.387 . S
C1601 C1603 1.387 . S
H1602 C1609 0.950 . S
C1603 C1601 1.387 . S
C1603 C1605 1.390 . S
C1603 H1607 0.950 . S
H1604 C1600 0.950 . S
C1605 C1603 1.390 . S
C1605 C1606 1.387 . S
C1605 H1608 0.950 . S
C1606 C1605 1.387 . S
C1606 C1609 1.387 . S
H1607 C1603 0.950 . S
H1608 C1605 0.950 . S
C1609 C1600 1.390 . S
C1609 H1602 0.950 . S
C1609 C1606 1.387 . S
C1610 C1611 1.387 . S
C1610 H1614 0.950 . S
C1610 C1619 1.390 . S
C1611 C1610 1.387 . S
C1611 C1613 1.387 . S
H1612 C1619 0.950 . S
C1613 C1611 1.387 . S
C1613 C1615 1.390 . S
C1613 H1617 0.950 . S
H1614 C1610 0.950 . S
C1615 C1613 1.390 . S
C1615 C1616 1.387 . S
C1615 H1618 0.950 . S
C1616 C1615 1.387 . S
C1616 C1619 1.387 . S
H1617 C1613 0.950 . S
H1618 C1615 0.950 . S
C1619 C1610 1.390 . S
C1619 H1612 0.950 . S
C1619 C1616 1.387 . S
C1620 C1621 1.387 . S
C1620 H1624 0.950 . S
C1620 C1629 1.390 . S
C1621 C1620 1.387 . S
C1621 C1623 1.387 . S
H1622 C1629 0.950 . S
C1623 C1621 1.387 . S
C1623 C1625 1.390 . S
C1623 H1627 0.950 . S
H1624 C1620 0.950 . S
C1625 C1623 1.390 . S
C1625 C1626 1.387 . S
C1625 H1628 0.950 . S
C1626 C1625 1.387 . S
C1626 C1629 1.387 . S
H1627 C1623 0.950 . S
H1628 C1625 0.950 . S
C1629 C1620 1.390 . S
C1629 H1622 0.950 . S
C1629 C1626 1.387 . S
C1630 C1631 1.387 . S
C1630 H1634 0.950 . S
C1630 C1639 1.390 . S
C1631 C1630 1.387 . S
C1631 C1633 1.387 . S
H1632 C1639 0.950 . S
C1633 C1631 1.387 . S
C1633 C1635 1.390 . S
C1633 H1637 0.950 . S
H1634 C1630 0.950 . S
C1635 C1633 1.390 . S
C1635 C1636 1.387 . S
C1635 H1638 0.950 . S
C1636 C1635 1.387 . S
C1636 C1639 1.387 . S
H1637 C1633 0.950 . S
H1638 C1635 0.950 . S
C1639 C1630 1.390 . S
C1639 H1632 0.950 . S
C1639 C1636 1.387 . S
C1640 C1641 1.387 . S
C1640 H1644 0.950 . S
C1640 C1649 1.390 . S
C1641 C1640 1.387 . S
C1641 C1643 1.387 . S
H1642 C1649 0.950 . S
C1643 C1641 1.387 . S
C1643 C1645 1.390 . S
C1643 H1647 0.950 . S
H1644 C1640 0.950 . S
C1645 C1643 1.390 . S
C1645 C1646 1.387 . S
C1645 H1648 0.950 . S
C1646 C1645 1.387 . S
C1646 C1649 1.387 . S
H1647 C1643 0.950 . S
H1648 C1645 0.950 . S
C1649 C1640 1.390 . S
C1649 H1642 0.950 . S
C1649 C1646 1.387 . S
C1650 C1651 1.387 . S
C1650 H1654 0.950 . S
C1650 C1659 1.390 . S
C1651 C1650 1.387 . S
C1651 C1653 1.387 . S
H1652 C1659 0.950 . S
C1653 C1651 1.387 . S
C1653 C1655 1.390 . S
C1653 H1657 0.950 . S
H1654 C1650 0.950 . S
C1655 C1653 1.390 . S
C1655 C1656 1.387 . S
C1655 H1658 0.950 . S
C1656 C1655 1.387 . S
C1656 C1659 1.387 . S
H1657 C1653 0.950 . S
H1658 C1655 0.950 . S
C1659 C1650 1.390 . S
C1659 H1652 0.950 . S
C1659 C1656 1.387 . S
C1660 C1661 1.387 . S
C1660 H1664 0.950 . S
C1660 C1669 1.390 . S
C1661 C1660 1.387 . S
C1661 C1663 1.387 . S
H1662 C1669 0.950 . S
C1663 C1661 1.387 . S
C1663 C1665 1.390 . S
C1663 H1667 0.950 . S
H1664 C1660 0.950 . S
C1665 C1663 1.390 . S
C1665 C1666 1.387 . S
C1665 H1668 0.950 . S
C1666 C1665 1.387 . S
C1666 C1669 1.387 . S
H1667 C1663 0.950 . S
H1668 C1665 0.950 . S
C1669 C1660 1.390 . S
C1669 H1662 0.950 . S
C1669 C1666 1.387 . S
C1670 C1671 1.387 . S
C1670 H1674 0.950 . S
C1670 C1679 1.390 . S
C1671 C1670 1.387 . S
C1671 C1673 1.387 . S
H1672 C1679 0.950 . S
C1673 C1671 1.387 . S
C1673 C1675 1.390 . S
C1673 H1677 0.950 . S
H1674 C1670 0.950 . S
C1675 C1673 1.390 . S
C1675 C1676 1.387 . S
C1675 H1678 0.950 . S
C1676 C1675 1.387 . S
C1676 C1679 1.387 . S
H1677 C1673 0.950 . S
H1678 C1675 0.950 . S
C1679 C1670 1.390 . S
C1679 H1672 0.950 . S
C1679 C1676 1.387 . S
C1680 C1681 1.387 . S
C1680 H1684 0.950 . S
C1680 C1689 1.390 . S
C1681 C1680 1.387 . S
C1681 C1683 1.387 . S
H1682 C1689 0.950 . S
C1683 C1681 1.387 . S
C1683 C1685 1.390 . S
C1683 H1687 0.950 . S
H1684 C1680 0.950 . S
C1685 C1683 1.390 . S
C1685 C1686 1.387 . S
C1685 H1688 0.950 . S
C1686 C1685 1.387 . S
C1686 C1689 1.387 . S
H1687 C1683 0.950 . S
H1688 C1685 0.950 . S
C1689 C1680 1.390 . S
C1689 H1682 0.950 . S
C1689 C1686 1.387 . S
C1690 C1691 1.387 . S
C1690 H1694 0.950 . S
C1690 C1699 1.390 . S
C1691 C1690 1.387 . S
C1691 C1693 1.387 . S
H1692 C1699 0.950 . S
C1693 C1691 1.387 . S
C1693 C1695 1.390 . S
C1693 H1697 0.950 . S
H1694 C1690 0.950 . S
C1695 C1693 1.390 . S
C1695 C1696 1.387 . S
C1695 H1698 0.950 . S
C1696 C1695 1.387 . S
C1696 C1699 1.387 . S
H1697 C1693 0.950 . S
H1698 C1695 0.950 . S
C1699 C1690 1.390 . S
C1699 H1692 0.950 . S
C1699 C1696 1.387 . S
C1700 C1701 1.387 . S
C1700 H1704 0.950 . S
C1700 C1709 1.390 . S
C1701 C1700 1.387 . S
C1701 C1703 1.387 . S
H1702 C1709 0.950 . S
C1703 C1701 1.387 . S
C1703 C1705 1.390 . S
C1703 H1707 0.950 . S
H1704 C1700 0.950 . S
C1705 C1703 1.390 . S
C1705 C1706 1.387 . S
C1705 H1708 0.950 . S
C1706 C1705 1.387 . S
C1706 C1709 1.387 . S
H1707 C1703 0.950 . S
H1708 C1705 0.950 . S
C1709 C1700 1.390 . S
C1709 H1702 0.950 . S
C1709 C1706 1.387 . S
C1710 C1711 1.387 . S
C1710 H1714 0.950 . S
C1710 C1719 1.390 . S
C1711 C1710 1.387 . S
C1711 C1713 1.387 . S
H1712 C1719 0.950 . S
C1713 C1711 1.387 . S
C1713 C1715 1.390 . S
C1713 H1717 0.950 . S
H1714 C1710 0.950 . S
C1715 C1713 1.390 . S
C1715 C1716 1.387 . S
C1715 H1718 0.950 . S
C1716 C1715 1.387 . S
C1716 C1719 1.387 . S
H1717 C1713 0.950 . S
H1718 C1715 0.950 . S
C1719 C1710 1.390 . S
C1719 H1712 0.950 . S
C1719 C1716 1.387 . S
C1720 C1721 1.387 . S
C1720 H1724 0.950 . S
C1720 C1729 1.390 . S
C1721 C1720 1.387 . S
C1721 C1723 1.387 . S
H1722 C1729 0.950 . S
C1723 C1721 1.387 . S
C1723 C1725 1.390 . S
C1723 H1727 0.950 . S
H1724 C1720 0.950 . S
C1725 C1723 1.390 . S
C1725 C1726 1.387 . S
C1725 H1728 0.950 . S
C1726 C1725 1.387 . S
C1726 C1729 1.387 . S
H1727 C1723 0.950 . S
H1728 C1725 0.950 . S
C1729 C1720 1.390 . S
C1729 H1722 0.950 . S
C1729 C1726 1.387 . S
C1730 C1731 1.387 . S
C1730 H1734 0.950 . S
C1730 C1739 1.390 . S
C1731 C1730 1.387 . S
C1731 C1733 1.387 . S
H1732 C1739 0.950 . S
C1733 C1731 1.387 . S
C1733 C1735 1.390 . S
C1733 H1737 0.950 . S
H1734 C1730 0.950 . S
C1735 C1733 1.390 . S
C1735 C1736 1.387 . S
C1735 H1738 0.950 . S
C1736 C1735 1.387 . S
C1736 C1739 1.387 . S
H1737 C1733 0.950 . S
H1738 C1735 0.950 . S
C1739 C1730 1.390 . S
C1739 H1732 0.950 . S
C1739 C1736 1.387 . S
C1740 C1741 1.387 . S
C1740 H1744 0.950 . S
C1740 C1749 1.390 . S
C1741 C1740 1.387 . S
C1741 C1743 1.365 1_556 S
H1742 C1749 0.950 . S
C1743 C1741 1.365 1_554 S
C1743 C1745 1.380 1_554 S
C1743 H1747 0.983 . S
H1744 C1740 0.950 . S
C1745 C1743 1.380 1_556 S
C1745 C1746 1.387 . S
C1745 H1748 0.950 1_556 S
C1746 C1745 1.387 . S
C1746 C1749 1.387 . S
H1747 C1743 0.983 . S
H1748 C1745 0.950 1_554 S
C1749 C1740 1.390 . S
C1749 H1742 0.950 . S
C1749 C1746 1.387 . S
C1750 C1751 1.387 . S
C1750 H1754 0.950 . S
C1750 C1759 1.390 . S
C1751 C1750 1.387 . S
C1751 C1753 1.387 . S
H1752 C1759 0.950 . S
C1753 C1751 1.387 . S
C1753 C1755 1.390 . S
C1753 H1757 0.950 1_556 S
H1754 C1750 0.950 . S
C1755 C1753 1.390 . S
C1755 C1756 1.387 . S
C1755 H1758 0.950 . S
C1756 C1755 1.387 . S
C1756 C1759 1.387 . S
H1757 C1753 0.950 1_554 S
H1758 C1755 0.950 . S
C1759 C1750 1.390 . S
C1759 H1752 0.950 . S
C1759 C1756 1.387 . S
C1760 C1761 1.387 . S
C1760 H1764 0.950 . S
C1760 C1769 1.390 . S
C1761 C1760 1.387 . S
C1761 C1763 1.387 1_556 S
H1762 C1769 0.950 . S
C1763 C1761 1.387 1_554 S
C1763 C1765 1.390 1_554 S
C1763 H1767 0.950 . S
H1764 C1760 0.950 . S
C1765 C1763 1.390 1_556 S
C1765 C1766 1.387 . S
C1765 H1768 0.950 1_556 S
C1766 C1765 1.387 . S
C1766 C1769 1.387 . S
H1767 C1763 0.950 . S
H1768 C1765 0.950 1_554 S
C1769 C1760 1.390 . S
C1769 H1762 0.950 . S
C1769 C1766 1.387 . S
C1770 C1771 1.387 . S
C1770 H1774 0.950 1_556 S
C1770 C1779 1.390 . S
C1771 C1770 1.387 . S
C1771 C1773 1.387 . S
H1772 C1779 0.950 . S
C1773 C1771 1.387 . S
C1773 C1775 1.390 . S
C1773 H1777 0.950 . S
H1774 C1770 0.950 1_554 S
C1775 C1773 1.390 . S
C1775 C1776 1.387 . S
C1775 H1778 0.950 . S
C1776 C1775 1.387 . S
C1776 C1779 1.387 . S
H1777 C1773 0.950 . S
H1778 C1775 0.950 . S
C1779 C1770 1.390 . S
C1779 H1772 0.950 . S
C1779 C1776 1.387 . S
C1780 C1781 1.387 . S
C1780 H1784 0.950 . S
C1780 C1789 1.390 . S
C1781 C1780 1.387 . S
C1781 C1783 1.387 . S
H1782 C1789 0.950 . S
C1783 C1781 1.387 . S
C1783 C1785 1.390 . S
C1783 H1787 0.950 . S
H1784 C1780 0.950 . S
C1785 C1783 1.390 . S
C1785 C1786 1.387 . S
C1785 H1788 0.950 . S
C1786 C1785 1.387 . S
C1786 C1789 1.387 . S
H1787 C1783 0.950 . S
H1788 C1785 0.950 . S
C1789 C1780 1.390 . S
C1789 H1782 0.950 . S
C1789 C1786 1.387 . S
C1790 C1791 1.360 1_554 S
C1790 H1794 0.991 . S
C1790 C1799 1.377 1_554 S
C1791 C1790 1.360 1_556 S
C1791 C1793 1.387 . S
H1792 C1799 0.950 1_554 S
C1793 C1791 1.387 . S
C1793 C1795 1.390 . S
C1793 H1797 0.950 . S
H1794 C1790 0.991 . S
C1795 C1793 1.390 . S
C1795 C1796 1.387 . S
C1795 H1798 0.950 . S
C1796 C1795 1.387 . S
C1796 C1799 1.387 . S
H1797 C1793 0.950 . S
H1798 C1795 0.950 . S
C1799 C1790 1.377 1_556 S
C1799 H1792 0.950 1_556 S
C1799 C1796 1.387 . S
C1800 C1801 1.387 . S
C1800 H1804 0.950 . S
C1800 C1809 1.390 . S
C1801 C1800 1.387 . S
C1801 C1803 1.387 . S
H1802 C1809 0.950 . S
C1803 C1801 1.387 . S
C1803 C1805 1.390 . S
C1803 H1807 0.950 . S
H1804 C1800 0.950 . S
C1805 C1803 1.390 . S
C1805 C1806 1.387 . S
C1805 H1808 0.950 . S
C1806 C1805 1.387 . S
C1806 C1809 1.387 . S
H1807 C1803 0.950 . S
H1808 C1805 0.950 . S
C1809 C1800 1.390 . S
C1809 H1802 0.950 . S
C1809 C1806 1.387 . S
C1810 C1811 1.387 . S
C1810 H1814 0.950 . S
C1810 C1819 1.390 . S
C1811 C1810 1.387 . S
C1811 C1813 1.387 . S
H1812 C1819 0.950 . S
C1813 C1811 1.387 . S
C1813 C1815 1.390 . S
C1813 H1817 0.950 . S
H1814 C1810 0.950 . S
C1815 C1813 1.390 . S
C1815 C1816 1.387 . S
C1815 H1818 0.950 . S
C1816 C1815 1.387 . S
C1816 C1819 1.387 . S
H1817 C1813 0.950 . S
H1818 C1815 0.950 . S
C1819 C1810 1.390 . S
C1819 H1812 0.950 . S
C1819 C1816 1.387 . S
C1820 C1821 1.387 . S
C1820 H1824 0.950 . S
C1820 C1829 1.390 . S
C1821 C1820 1.387 . S
C1821 C1823 1.387 . S
H1822 C1829 0.950 . S
C1823 C1821 1.387 . S
C1823 C1825 1.390 . S
C1823 H1827 0.950 . S
H1824 C1820 0.950 . S
C1825 C1823 1.390 . S
C1825 C1826 1.387 . S
C1825 H1828 0.950 . S
C1826 C1825 1.387 . S
C1826 C1829 1.387 . S
H1827 C1823 0.950 . S
H1828 C1825 0.950 . S
C1829 C1820 1.390 . S
C1829 H1822 0.950 . S
C1829 C1826 1.387 . S
C1830 C1831 1.387 . S
C1830 H1834 0.950 . S
C1830 C1839 1.390 . S
C1831 C1830 1.387 . S
C1831 C1833 1.387 . S
H1832 C1839 0.950 . S
C1833 C1831 1.387 . S
C1833 C1835 1.390 . S
C1833 H1837 0.950 . S
H1834 C1830 0.950 . S
C1835 C1833 1.390 . S
C1835 C1836 1.387 . S
C1835 H1838 0.950 . S
C1836 C1835 1.387 . S
C1836 C1839 1.387 . S
H1837 C1833 0.950 . S
H1838 C1835 0.950 . S
C1839 C1830 1.390 . S
C1839 H1832 0.950 . S
C1839 C1836 1.387 . S
C1840 C1841 1.387 . S
C1840 H1844 0.950 . S
C1840 C1849 1.390 . S
C1841 C1840 1.387 . S
C1841 C1843 1.387 . S
H1842 C1849 0.950 . S
C1843 C1841 1.387 . S
C1843 C1845 1.390 . S
C1843 H1847 0.950 . S
H1844 C1840 0.950 . S
C1845 C1843 1.390 . S
C1845 C1846 1.387 . S
C1845 H1848 0.950 . S
C1846 C1845 1.387 . S
C1846 C1849 1.387 . S
H1847 C1843 0.950 . S
H1848 C1845 0.950 . S
C1849 C1840 1.390 . S
C1849 H1842 0.950 . S
C1849 C1846 1.387 . S
C1850 C1851 1.387 . S
C1850 H1854 0.950 . S
C1850 C1859 1.390 . S
C1851 C1850 1.387 . S
C1851 C1853 1.387 . S
H1852 C1859 0.950 . S
C1853 C1851 1.387 . S
C1853 C1855 1.390 . S
C1853 H1857 0.950 . S
H1854 C1850 0.950 . S
C1855 C1853 1.390 . S
C1855 C1856 1.387 . S
C1855 H1858 0.950 . S
C1856 C1855 1.387 . S
C1856 C1859 1.387 . S
H1857 C1853 0.950 . S
H1858 C1855 0.950 . S
C1859 C1850 1.390 . S
C1859 H1852 0.950 . S
C1859 C1856 1.387 . S
C1860 C1861 1.387 . S
C1860 H1864 0.950 . S
C1860 C1869 1.390 . S
C1861 C1860 1.387 . S
C1861 C1863 1.387 . S
H1862 C1869 0.950 . S
C1863 C1861 1.387 . S
C1863 C1865 1.390 . S
C1863 H1867 0.950 . S
H1864 C1860 0.950 . S
C1865 C1863 1.390 . S
C1865 C1866 1.387 . S
C1865 H1868 0.950 . S
C1866 C1865 1.387 . S
C1866 C1869 1.387 . S
H1867 C1863 0.950 . S
H1868 C1865 0.950 . S
C1869 C1860 1.390 . S
C1869 H1862 0.950 . S
C1869 C1866 1.387 . S
C1870 C1871 1.387 . S
C1870 H1874 0.950 . S
C1870 C1879 1.390 . S
C1871 C1870 1.387 . S
C1871 C1873 1.387 . S
H1872 C1879 0.950 . S
C1873 C1871 1.387 . S
C1873 C1875 1.390 . S
C1873 H1877 0.950 . S
H1874 C1870 0.950 . S
C1875 C1873 1.390 . S
C1875 C1876 1.387 . S
C1875 H1878 0.950 . S
C1876 C1875 1.387 . S
C1876 C1879 1.387 . S
H1877 C1873 0.950 . S
H1878 C1875 0.950 . S
C1879 C1870 1.390 . S
C1879 H1872 0.950 . S
C1879 C1876 1.387 . S
C1880 C1881 1.387 . S
C1880 H1884 0.950 . S
C1880 C1889 1.390 . S
C1881 C1880 1.387 . S
C1881 C1883 1.387 1_565 S
H1882 C1889 0.950 . S
C1883 C1881 1.387 1_545 S
C1883 C1885 1.390 . S
C1883 H1887 0.950 . S
H1884 C1880 0.950 . S
C1885 C1883 1.390 . S
C1885 C1886 1.387 1_545 S
C1885 H1888 0.950 . S
C1886 C1885 1.387 1_565 S
C1886 C1889 1.387 . S
H1887 C1883 0.950 . S
H1888 C1885 0.950 . S
C1889 C1880 1.390 . S
C1889 H1882 0.950 . S
C1889 C1886 1.387 . S
C1890 C1891 1.387 . S
C1890 H1894 0.950 . S
C1890 C1899 1.390 . S
C1891 C1890 1.387 . S
C1891 C1893 1.387 1_565 S
H1892 C1899 0.950 . S
C1893 C1891 1.387 1_545 S
C1893 C1895 1.390 . S
C1893 H1897 0.950 . S
H1894 C1890 0.950 . S
C1895 C1893 1.390 . S
C1895 C1896 1.387 1_545 S
C1895 H1898 0.950 . S
C1896 C1895 1.387 1_565 S
C1896 C1899 1.387 . S
H1897 C1893 0.950 . S
H1898 C1895 0.950 . S
C1899 C1890 1.390 . S
C1899 H1892 0.950 . S
C1899 C1896 1.387 . S
C1900 C1901 1.387 . S
C1900 H1904 0.950 . S
C1900 C1909 1.390 . S
C1901 C1900 1.387 . S
C1901 C1903 1.387 . S
H1902 C1909 0.950 . S
C1903 C1901 1.387 . S
C1903 C1905 1.390 . S
C1903 H1907 0.950 . S
H1904 C1900 0.950 . S
C1905 C1903 1.390 . S
C1905 C1906 1.387 . S
C1905 H1908 0.950 . S
C1906 C1905 1.387 . S
C1906 C1909 1.387 . S
H1907 C1903 0.950 . S
H1908 C1905 0.950 . S
C1909 C1900 1.390 . S
C1909 H1902 0.950 . S
C1909 C1906 1.387 . S
C1910 C1911 1.387 . S
C1910 H1914 0.950 . S
C1910 C1919 1.390 . S
C1911 C1910 1.387 . S
C1911 C1913 1.387 . S
H1912 C1919 0.950 . S
C1913 C1911 1.387 . S
C1913 C1915 1.390 . S
C1913 H1917 0.950 . S
H1914 C1910 0.950 . S
C1915 C1913 1.390 . S
C1915 C1916 1.387 . S
C1915 H1918 0.950 . S
C1916 C1915 1.387 . S
C1916 C1919 1.387 . S
H1917 C1913 0.950 . S
H1918 C1915 0.950 . S
C1919 C1910 1.390 . S
C1919 H1912 0.950 . S
C1919 C1916 1.387 . S
C1920 C1921 1.387 . S
C1920 H1924 0.950 . S
C1920 C1929 1.390 . S
C1921 C1920 1.387 . S
C1921 C1923 1.387 . S
H1922 C1929 0.950 . S
C1923 C1921 1.387 . S
C1923 C1925 1.390 . S
C1923 H1927 0.950 . S
H1924 C1920 0.950 . S
C1925 C1923 1.390 . S
C1925 C1926 1.387 . S
C1925 H1928 0.950 . S
C1926 C1925 1.387 . S
C1926 C1929 1.387 . S
H1927 C1923 0.950 . S
H1928 C1925 0.950 . S
C1929 C1920 1.390 . S
C1929 H1922 0.950 . S
C1929 C1926 1.387 . S
C1930 C1931 1.387 . S
C1930 H1934 0.950 . S
C1930 C1939 1.390 . S
C1931 C1930 1.387 . S
C1931 C1933 1.387 . S
H1932 C1939 0.950 . S
C1933 C1931 1.387 . S
C1933 C1935 1.390 . S
C1933 H1937 0.950 . S
H1934 C1930 0.950 . S
C1935 C1933 1.390 . S
C1935 C1936 1.387 . S
C1935 H1938 0.950 . S
C1936 C1935 1.387 . S
C1936 C1939 1.387 . S
H1937 C1933 0.950 . S
H1938 C1935 0.950 . S
C1939 C1930 1.390 . S
C1939 H1932 0.950 . S
C1939 C1936 1.387 . S
C1940 C1941 1.387 . S
C1940 H1944 0.931 1_655 S
C1940 C1949 1.390 . S
C1941 C1940 1.387 . S
C1941 C1943 1.387 . S
H1942 C1949 0.950 . S
C1943 C1941 1.387 . S
C1943 C1945 1.390 . S
C1943 H1947 0.950 . S
H1944 C1940 0.931 1_455 S
C1945 C1943 1.390 . S
C1945 C1946 1.387 . S
C1945 H1948 0.950 . S
C1946 C1945 1.387 . S
C1946 C1949 1.387 . S
H1947 C1943 0.950 . S
H1948 C1945 0.950 . S
C1949 C1940 1.390 . S
C1949 H1942 0.950 . S
C1949 C1946 1.387 . S
C1950 C1951 1.387 . S
C1950 H1954 0.950 . S
C1950 C1959 1.390 . S
C1951 C1950 1.387 . S
C1951 C1953 1.387 . S
H1952 C1959 0.950 . S
C1953 C1951 1.387 . S
C1953 C1955 1.390 . S
C1953 H1957 0.950 . S
H1954 C1950 0.950 . S
C1955 C1953 1.390 . S
C1955 C1956 1.387 . S
C1955 H1958 0.950 . S
C1956 C1955 1.387 . S
C1956 C1959 1.387 . S
H1957 C1953 0.950 . S
H1958 C1955 0.950 . S
C1959 C1950 1.390 . S
C1959 H1952 0.950 . S
C1959 C1956 1.387 . S
C1960 C1961 1.387 . S
C1960 H1964 0.950 . S
C1960 C1969 1.390 . S
C1961 C1960 1.387 . S
C1961 C1963 1.387 . S
H1962 C1969 0.950 . S
C1963 C1961 1.387 . S
C1963 C1965 1.390 . S
C1963 H1967 0.950 . S
H1964 C1960 0.950 . S
C1965 C1963 1.390 . S
C1965 C1966 1.387 . S
C1965 H1968 0.950 . S
C1966 C1965 1.387 . S
C1966 C1969 1.387 . S
H1967 C1963 0.950 . S
H1968 C1965 0.950 . S
C1969 C1960 1.390 . S
C1969 H1962 0.950 . S
C1969 C1966 1.387 . S
C1970 C1971 1.387 . S
C1970 H1974 0.950 . S
C1970 C1979 1.390 . S
C1971 C1970 1.387 . S
C1971 C1973 1.387 . S
H1972 C1979 0.950 . S
C1973 C1971 1.387 . S
C1973 C1975 1.390 . S
C1973 H1977 0.950 . S
H1974 C1970 0.950 . S
C1975 C1973 1.390 . S
C1975 C1976 1.387 . S
C1975 H1978 0.950 . S
C1976 C1975 1.387 . S
C1976 C1979 1.387 . S
H1977 C1973 0.950 . S
H1978 C1975 0.950 . S
C1979 C1970 1.390 . S
C1979 H1972 0.950 . S
C1979 C1976 1.387 . S
C1980 C1981 1.387 . S
C1980 H1984 0.950 . S
C1980 C1989 1.390 . S
C1981 C1980 1.387 . S
C1981 C1983 1.387 . S
H1982 C1989 0.950 . S
C1983 C1981 1.387 . S
C1983 C1985 1.390 . S
C1983 H1987 0.950 . S
H1984 C1980 0.950 . S
C1985 C1983 1.390 . S
C1985 C1986 1.387 . S
C1985 H1988 0.950 . S
C1986 C1985 1.387 . S
C1986 C1989 1.387 . S
H1987 C1983 0.950 . S
H1988 C1985 0.950 . S
C1989 C1980 1.390 . S
C1989 H1982 0.950 . S
C1989 C1986 1.387 . S
C1990 C1991 1.387 . S
C1990 H1994 0.950 . S
C1990 C1999 1.390 . S
C1991 C1990 1.387 . S
C1991 C1993 1.387 . S
H1992 C1999 0.950 . S
C1993 C1991 1.387 . S
C1993 C1995 1.390 . S
C1993 H1997 0.950 . S
H1994 C1990 0.950 . S
C1995 C1993 1.390 . S
C1995 C1996 1.387 . S
C1995 H1998 0.950 . S
C1996 C1995 1.387 . S
C1996 C1999 1.387 . S
H1997 C1993 0.950 . S
H1998 C1995 0.950 . S
C1999 C1990 1.390 . S
C1999 H1992 0.950 . S
C1999 C1996 1.387 . S
C2000 C2001 1.387 . S
C2000 H2004 0.950 . S
C2000 C2009 1.390 . S
C2001 C2000 1.387 . S
C2001 C2003 1.387 . S
H2002 C2009 0.950 . S
C2003 C2001 1.387 . S
C2003 C2005 1.390 . S
C2003 H2007 0.950 . S
H2004 C2000 0.950 . S
C2005 C2003 1.390 . S
C2005 C2006 1.387 . S
C2005 H2008 0.950 . S
C2006 C2005 1.387 . S
C2006 C2009 1.387 . S
H2007 C2003 0.950 . S
H2008 C2005 0.950 . S
C2009 C2000 1.390 . S
C2009 H2002 0.950 . S
C2009 C2006 1.387 . S
C2010 C2011 1.387 . S
C2010 H2014 0.950 . S
C2010 C2019 1.390 . S
C2011 C2010 1.387 . S
C2011 C2013 1.387 . S
H2012 C2019 0.950 . S
C2013 C2011 1.387 . S
C2013 C2015 1.390 . S
C2013 H2017 0.950 . S
H2014 C2010 0.950 . S
C2015 C2013 1.390 . S
C2015 C2016 1.387 . S
C2015 H2018 0.950 . S
C2016 C2015 1.387 . S
C2016 C2019 1.387 . S
H2017 C2013 0.950 . S
H2018 C2015 0.950 . S
C2019 C2010 1.390 . S
C2019 H2012 0.950 . S
C2019 C2016 1.387 . S
C2020 C2021 1.387 . S
C2020 H2024 0.950 . S
C2020 C2029 1.390 . S
C2021 C2020 1.387 . S
C2021 C2023 1.387 . S
H2022 C2029 0.950 . S
C2023 C2021 1.387 . S
C2023 C2025 1.390 . S
C2023 H2027 0.950 . S
H2024 C2020 0.950 . S
C2025 C2023 1.390 . S
C2025 C2026 1.387 . S
C2025 H2028 0.950 . S
C2026 C2025 1.387 . S
C2026 C2029 1.387 . S
H2027 C2023 0.950 . S
H2028 C2025 0.950 . S
C2029 C2020 1.390 . S
C2029 H2022 0.950 . S
C2029 C2026 1.387 . S
C2030 C2031 1.387 . S
C2030 H2034 0.950 . S
C2030 C2039 1.390 . S
C2031 C2030 1.387 . S
C2031 C2033 1.387 . S
H2032 C2039 0.950 . S
C2033 C2031 1.387 . S
C2033 C2035 1.390 . S
C2033 H2037 0.950 . S
H2034 C2030 0.950 . S
C2035 C2033 1.390 . S
C2035 C2036 1.387 . S
C2035 H2038 0.950 . S
C2036 C2035 1.387 . S
C2036 C2039 1.387 . S
H2037 C2033 0.950 . S
H2038 C2035 0.950 . S
C2039 C2030 1.390 . S
C2039 H2032 0.950 . S
C2039 C2036 1.387 . S
C2040 C2041 1.387 . S
C2040 H2044 0.950 . S
C2040 C2049 1.390 . S
C2041 C2040 1.387 . S
C2041 C2043 1.387 . S
H2042 C2049 0.950 . S
C2043 C2041 1.387 . S
C2043 C2045 1.390 . S
C2043 H2047 0.950 1_655 S
H2044 C2040 0.950 . S
C2045 C2043 1.390 . S
C2045 C2046 1.387 . S
C2045 H2048 0.950 1_655 S
C2046 C2045 1.387 . S
C2046 C2049 1.387 . S
H2047 C2043 0.950 1_455 S
H2048 C2045 0.950 1_455 S
C2049 C2040 1.390 . S
C2049 H2042 0.950 . S
C2049 C2046 1.387 . S
C2050 C2051 1.387 . S
C2050 H2054 0.950 . S
C2050 C2059 1.390 . S
C2051 C2050 1.387 . S
C2051 C2053 1.387 . S
H2052 C2059 0.950 . S
C2053 C2051 1.387 . S
C2053 C2055 1.390 . S
C2053 H2057 0.950 . S
H2054 C2050 0.950 . S
C2055 C2053 1.390 . S
C2055 C2056 1.387 . S
C2055 H2058 0.950 . S
C2056 C2055 1.387 . S
C2056 C2059 1.387 . S
H2057 C2053 0.950 . S
H2058 C2055 0.950 . S
C2059 C2050 1.390 . S
C2059 H2052 0.950 . S
C2059 C2056 1.387 . S
C2060 C2061 1.387 . S
C2060 H2064 0.950 . S
C2060 C2069 1.390 . S
C2061 C2060 1.387 . S
C2061 C2063 1.387 . S
H2062 C2069 0.950 . S
C2063 C2061 1.387 . S
C2063 C2065 1.390 . S
C2063 H2067 0.950 . S
H2064 C2060 0.950 . S
C2065 C2063 1.390 . S
C2065 C2066 1.387 . S
C2065 H2068 0.950 . S
C2066 C2065 1.387 . S
C2066 C2069 1.387 . S
H2067 C2063 0.950 . S
H2068 C2065 0.950 . S
C2069 C2060 1.390 . S
C2069 H2062 0.950 . S
C2069 C2066 1.387 . S
C1351 C10 1.694 . S
C1356 C839 1.654 . S
C1361 C23 1.685 . S
C1366 C883 1.657 . S
C1376 C963 1.654 . S
C1371 C29 1.696 . S
C1381 C30 1.692 . S
C1386 C1007 1.666 . S
C1391 C5 1.701 . S
C1396 C1087 1.664 . S
C1401 C18 1.691 . S
C1406 C1149 1.652 . S
C1411 C49 1.695 . S
C1416 C1069 1.655 . S
C1426 C1131 1.647 . S
C1421 C62 1.685 . S
C1436 C1025 1.669 . S
C1431 C70 1.694 . S
C1441 C75 1.691 . S
C1446 C945 1.652 . S
C1456 C821 1.661 . S
C1451 C44 1.701 . S
C1461 C57 1.691 . S
C1466 C901 1.665 . S
C1471 C88 1.694 . S
C1476 C1211 1.655 . S
C1481 C101 1.685 . S
C1486 C1255 1.658 . S
C1496 C1335 1.654 . S
C1491 C107 1.693 . S
C1501 C108 1.692 . S
C1506 C281 1.653 . S
C1511 C83 1.701 . S
C1516 C325 1.674 . S
C1521 C96 1.691 . S
C1526 C405 1.654 . S
C1531 C127 1.694 . S
C1536 C343 1.668 . S
C1541 C140 1.685 . S
C1546 C387 1.647 . S
C1556 C263 1.654 . S
C1551 C146 1.693 . S
C1566 C1317 1.653 . S
C1561 C147 1.691 . S
C1576 C1193 1.661 . S
C1571 C122 1.700 . S
C1586 C1273 1.664 . S
C1581 C135 1.691 . S
C1591 C160 1.694 . S
C1596 C467 1.656 . S
C1601 C173 1.685 . S
C1606 C529 1.648 . S
C1611 C185 1.694 . S
C1616 C573 1.669 . S
C1621 C186 1.691 . S
C1626 C635 1.666 . S
C1636 C697 1.676 . S
C1631 C159 1.701 . S
C1646 C777 1.653 . S
C1641 C172 1.691 . S
C1656 C715 1.669 . S
C1651 C205 1.694 . S
C1666 C759 1.647 . S
C1661 C218 1.685 . S
C1671 C224 1.693 . S
C1676 C653 1.669 . S
C1686 C591 1.666 . S
C1681 C225 1.691 . S
C1691 C200 1.701 . S
C1696 C449 1.662 . S
C1706 C511 1.654 . S
C1701 C213 1.691 . S
C1716 C287 1.447 . S
C1711 C4 1.516 . S
C1721 C17 1.509 . S
C1726 C331 1.442 . S
C1736 C411 1.447 . S
C1731 C31 1.517 . S
C1746 C473 1.444 . S
C1741 C36 1.515 . S
C1756 C535 1.452 . S
C1751 C3 1.522 . S
C1766 C579 1.447 . S
C1761 C16 1.517 . S
C1771 C43 1.514 . S
C1776 C597 1.445 . S
C1781 C56 1.509 . S
C1786 C455 1.441 . S
C1791 C68 1.517 . S
C1796 C517 1.447 . S
C1801 C69 1.514 . S
C1806 C349 1.445 . S
C1816 C393 1.450 . S
C1811 C42 1.523 . S
C1821 C55 1.517 . S
C1826 C269 1.447 . S
C1836 C641 1.449 . S
C1831 C82 1.516 . S
C1841 C95 1.509 . S
C1846 C703 1.442 . S
C1851 C109 1.517 1_655 S
C1856 C783 1.447 . S
C1866 C845 1.443 . S
C1861 C114 1.514 . S
C1871 C81 1.522 . S
C1876 C889 1.452 . S
C1881 C94 1.516 . S
C1886 C969 1.446 . S
C1891 C121 1.515 . S
C1896 C951 1.443 . S
C1901 C134 1.510 . S
C1906 C827 1.439 . S
C1916 C907 1.448 . S
C1911 C148 1.517 . S
C1921 C153 1.514 . S
C1926 C721 1.446 . S
C1931 C120 1.523 . S
C1936 C765 1.452 . S
C1946 C659 1.449 . S
C1941 C133 1.516 1_655 S
C1956 C1013 1.445 . S
C1951 C166 1.515 . S
C1961 C179 1.509 . S
C1966 C1093 1.442 . S
C1971 C187 1.517 . S
C1976 C1155 1.447 . S
C1986 C1217 1.442 . S
C1981 C192 1.514 . S
C1996 C1261 1.453 . S
C1991 C161 1.523 1_565 S
C2001 C174 1.517 . S
C2006 C1341 1.444 . S
C2011 C199 1.515 . S
C2016 C1323 1.444 . S
C2021 C212 1.509 1_565 S
C2026 C1199 1.438 . S
C2036 C1279 1.448 . S
C2031 C226 1.517 . S
C2046 C1075 1.445 . S
C2041 C231 1.510 . S
C2056 C1137 1.450 . S
C2051 C198 1.522 . S
C2061 C211 1.517 . S
C2066 C1031 1.446 . S
