# Generated by pormake.
# Topology apo, (3,6)-cn, num edge types: 1
# Building blocks:
#     Node 0, Type 0, BuildingBlock: BETDAH_clean_linker_0, # of connection points: 3
#     Node 1, Type 0, BuildingBlock: BETDAH_clean_linker_0, # of connection points: 3
#     Node 2, Type 0, BuildingBlock: BETDAH_clean_linker_0, # of connection points: 3
#     Node 3, Type 0, BuildingBlock: BETDAH_clean_linker_0, # of connection points: 3
#     Node 4, Type 0, BuildingBlock: BETDAH_clean_linker_0, # of connection points: 3
#     Node 5, Type 0, BuildingBlock: BETDAH_clean_linker_0, # of connection points: 3
#     Node 6, Type 0, BuildingBlock: BETDAH_clean_linker_0, # of connection points: 3
#     Node 7, Type 0, BuildingBlock: BETDAH_clean_linker_0, # of connection points: 3
#     Node 8, Type 1, BuildingBlock: KUMBUR_clean_sbu_1, # of connection points: 6
#     Node 9, Type 1, BuildingBlock: KUMBUR_clean_sbu_1, # of connection points: 6
#     Node 10, Type 1, BuildingBlock: KUMBUR_clean_sbu_1, # of connection points: 6
#     Node 11, Type 1, BuildingBlock: KUMBUR_clean_sbu_1, # of connection points: 6
#     Edge 12, Type (0, 1), BuildingBlock: CIFDUS_clean_linker_0, # of connection points: 2
#     Edge 13, Type (0, 1), BuildingBlock: CIFDUS_clean_linker_0, # of connection points: 2
#     Edge 14, Type (0, 1), BuildingBlock: CIFDUS_clean_linker_0, # of connection points: 2
#     Edge 15, Type (0, 1), BuildingBlock: CIFDUS_clean_linker_0, # of connection points: 2
#     Edge 16, Type (0, 1), BuildingBlock: CIFDUS_clean_linker_0, # of connection points: 2
#     Edge 17, Type (0, 1), BuildingBlock: CIFDUS_clean_linker_0, # of connection points: 2
#     Edge 18, Type (0, 1), BuildingBlock: CIFDUS_clean_linker_0, # of connection points: 2
#     Edge 19, Type (0, 1), BuildingBlock: CIFDUS_clean_linker_0, # of connection points: 2
#     Edge 20, Type (0, 1), BuildingBlock: CIFDUS_clean_linker_0, # of connection points: 2
#     Edge 21, Type (0, 1), BuildingBlock: CIFDUS_clean_linker_0, # of connection points: 2
#     Edge 22, Type (0, 1), BuildingBlock: CIFDUS_clean_linker_0, # of connection points: 2
#     Edge 23, Type (0, 1), BuildingBlock: CIFDUS_clean_linker_0, # of connection points: 2
#     Edge 24, Type (0, 1), BuildingBlock: CIFDUS_clean_linker_0, # of connection points: 2
#     Edge 25, Type (0, 1), BuildingBlock: CIFDUS_clean_linker_0, # of connection points: 2
#     Edge 26, Type (0, 1), BuildingBlock: CIFDUS_clean_linker_0, # of connection points: 2
#     Edge 27, Type (0, 1), BuildingBlock: CIFDUS_clean_linker_0, # of connection points: 2
#     Edge 28, Type (0, 1), BuildingBlock: CIFDUS_clean_linker_0, # of connection points: 2
#     Edge 29, Type (0, 1), BuildingBlock: CIFDUS_clean_linker_0, # of connection points: 2
#     Edge 30, Type (0, 1), BuildingBlock: CIFDUS_clean_linker_0, # of connection points: 2
#     Edge 31, Type (0, 1), BuildingBlock: CIFDUS_clean_linker_0, # of connection points: 2
#     Edge 32, Type (0, 1), BuildingBlock: CIFDUS_clean_linker_0, # of connection points: 2
#     Edge 33, Type (0, 1), BuildingBlock: CIFDUS_clean_linker_0, # of connection points: 2
#     Edge 34, Type (0, 1), BuildingBlock: CIFDUS_clean_linker_0, # of connection points: 2
#     Edge 35, Type (0, 1), BuildingBlock: CIFDUS_clean_linker_0, # of connection points: 2
# Relax obj value: 0.036
# Max RMSD: 0.229
# Mean RMSD: 0.160
data_MOF--net-apo--node1-KUMBUR_clean_sbu_1--node2-BETDAH_clean_linker_0--edge1-CIFDUS_clean_linker_0
_symmetry_space_group_name_H-M    P1
_symmetry_Int_Tables_number       1
_symmetry_cell_setting            triclinic
loop_
_symmetry_equiv_pos_as_xyz
'x, y, z'
_cell_length_a     24.251486
_cell_length_b     36.530321
_cell_length_c     45.664759
_cell_angle_alpha  89.764705
_cell_angle_beta   89.506565
_cell_angle_gamma 90.61061
loop_
_atom_site_label
_atom_site_type_symbol
_atom_site_fract_x
_atom_site_fract_y
_atom_site_fract_z
_atom_type_partial_charge
H0 H 0.37411 0.45036 0.42876 0.0
H1 H 0.29172 0.3798 0.36728 0.0
H2 H 0.29476 0.35091 0.45861 0.0
C3 C 0.35129 0.42533 0.42431 0.0
C4 C 0.33665 0.40162 0.44748 0.0
C5 C 0.33524 0.41763 0.39543 0.0
C6 C 0.30447 0.38559 0.38947 0.0
C7 C 0.28975 0.36154 0.41252 0.0
C8 C 0.30599 0.36981 0.44115 0.0
N9 N 0.25787 0.32904 0.40854 0.0
C10 C 0.24035 0.31374 0.38228 0.0
H11 H 0.17692 0.06142 0.943 0.0
H12 H 0.15307 0.1274 0.8656 0.0
H13 H 0.22167 0.17584 0.94207 0.0
C14 C 0.17973 0.08731 0.93146 0.0
C15 C 0.19965 0.11834 0.94651 0.0
C16 C 0.16322 0.08962 0.90195 0.0
C17 C 0.16819 0.12374 0.88764 0.0
C18 C 0.19164 0.15407 0.90157 0.0
C19 C 0.20722 0.15145 0.93096 0.0
N20 N 0.19225 0.18817 0.88672 0.0
C21 C 0.23989 0.20863 0.88116 0.0
H22 H 0.86574 0.0926 0.60012 0.0
H23 H 0.82547 0.13331 0.68605 0.0
H24 H 0.81454 0.20442 0.61211 0.0
C25 C 0.8517 0.11443 0.61418 0.0
C26 C 0.8394 0.14892 0.60185 0.0
C27 C 0.84757 0.10827 0.64465 0.0
C28 C 0.82947 0.13704 0.66259 0.0
C29 C 0.81682 0.17122 0.65083 0.0
C30 C 0.82167 0.17717 0.6206 0.0
N31 N 0.80782 0.20071 0.67023 0.0
C32 C 0.75823 0.21919 0.6726 0.0
H33 H 0.64471 0.43425 0.10464 0.0
H34 H 0.69236 0.35933 0.17348 0.0
H35 H 0.6756 0.32114 0.08574 0.0
C36 C 0.65784 0.40751 0.11195 0.0
C37 C 0.66094 0.37897 0.09136 0.0
C38 C 0.66801 0.40089 0.14201 0.0
C39 C 0.6839 0.36537 0.15074 0.0
C40 C 0.68582 0.33679 0.1304 0.0
C41 C 0.67407 0.34368 0.10109 0.0
N42 N 0.692 0.29996 0.13942 0.0
C43 C 0.73707 0.2869 0.15465 0.0
H44 H 0.6354 0.56135 0.61019 0.0
H45 H 0.70545 0.64383 0.66611 0.0
H46 H 0.70349 0.66068 0.573 0.0
C47 C 0.65592 0.58765 0.61264 0.0
C48 C 0.66772 0.60926 0.58779 0.0
C49 C 0.66893 0.60004 0.64089 0.0
C50 C 0.69562 0.63416 0.64435 0.0
C51 C 0.70929 0.65555 0.61957 0.0
C52 C 0.69465 0.64314 0.59168 0.0
N53 N 0.73677 0.69001 0.62133 0.0
C54 C 0.75606 0.70686 0.64657 0.0
H55 H 0.84961 0.94228 0.09352 0.0
H56 H 0.79007 0.83106 0.09542 0.0
H57 H 0.86035 0.87764 0.17261 0.0
C58 C 0.84312 0.91706 0.10564 0.0
C59 C 0.85656 0.915 0.13559 0.0
C60 C 0.82034 0.88679 0.09086 0.0
C61 C 0.80763 0.8545 0.10659 0.0
C62 C 0.82164 0.85168 0.13631 0.0
C63 C 0.84742 0.88134 0.15018 0.0
N64 N 0.81575 0.81835 0.15222 0.0
C65 C 0.76921 0.79566 0.15237 0.0
H66 H 0.12556 0.91438 0.42963 0.0
H67 H 0.24906 0.90591 0.36203 0.0
H68 H 0.2623 0.84091 0.43972 0.0
C69 C 0.16298 0.90214 0.42129 0.0
C70 C 0.19143 0.87676 0.4387 0.0
C71 C 0.18365 0.91346 0.39381 0.0
C72 C 0.23113 0.89668 0.38263 0.0
C73 C 0.25788 0.86937 0.39856 0.0
C74 C 0.23838 0.85966 0.42665 0.0
N75 N 0.30981 0.85715 0.38834 0.0
C76 C 0.32055 0.82118 0.38046 0.0
H77 H 0.34799 0.57428 0.92426 0.0
H78 H 0.32193 0.68603 0.949 0.0
H79 H 0.31451 0.65654 0.85846 0.0
C80 C 0.33846 0.60213 0.91802 0.0
C81 C 0.33314 0.61191 0.88818 0.0
C82 C 0.33415 0.62875 0.94001 0.0
C83 C 0.32497 0.66524 0.93219 0.0
C84 C 0.31683 0.67509 0.90305 0.0
C85 C 0.32026 0.64845 0.88107 0.0
N86 N 0.30732 0.71236 0.89648 0.0
C87 C 0.2701 0.72395 0.87559 0.0
Tb88 Tb 0.06006 0.12617 0.2369 0.0
C89 C 0.83245 0.09185 0.29364 0.0
N90 N 0.86188 0.12376 0.29317 0.0
C91 C 0.77972 0.15652 0.28097 0.0
C92 C 0.77602 0.09083 0.28643 0.0
C93 C 0.83515 0.15615 0.28917 0.0
C94 C 0.75028 0.12361 0.27896 0.0
C95 C 0.82763 0.0278 0.30781 0.0
C96 C 0.85775 0.06071 0.30404 0.0
C97 C 0.77222 0.02613 0.29919 0.0
C98 C 0.74652 0.05756 0.28838 0.0
Tb99 Tb 0.95306 0.1189 0.30576 0.0
N100 N 0.91168 0.06314 0.3116 0.0
C101 C 0.85395 0.99786 0.32066 0.0
C102 C 0.93667 0.03482 0.32565 0.0
C103 C 0.90851 1.00157 0.32997 0.0
H104 H 0.85576 0.18189 0.29314 0.0
H105 H 0.92879 0.97891 0.34059 0.0
H106 H 0.16656 0.08435 0.26669 0.0
H107 H 0.03618 0.26352 0.19375 0.0
H108 H 0.97828 0.03798 0.33342 0.0
H109 H 0.83222 0.97209 0.32402 0.0
H110 H 0.0094 0.19929 0.20171 0.0
H111 H 0.75936 0.18228 0.27702 0.0
H112 H 0.74852 1.00095 0.30149 0.0
H113 H 0.70328 0.05618 0.28265 0.0
H114 H 0.2612 0.10047 0.28149 0.0
H115 H 0.70703 0.12403 0.27322 0.0
H116 H 0.12694 0.28618 0.2106 0.0
N117 N 0.14776 0.13815 0.25204 0.0
C118 C 0.1673 0.17255 0.24671 0.0
C119 C 0.23504 0.12109 0.27197 0.0
C120 C 0.22123 0.18294 0.2547 0.0
C121 C 0.18107 0.11215 0.26388 0.0
C122 C 0.25514 0.15669 0.26752 0.0
N123 N 0.08072 0.18623 0.2264 0.0
C124 C 0.04739 0.20909 0.21095 0.0
C125 C 0.15033 0.23388 0.22888 0.0
C126 C 0.13219 0.19762 0.23408 0.0
C127 C 0.11461 0.25808 0.21499 0.0
C128 C 0.06322 0.24545 0.20561 0.0
H129 H 0.29685 0.16357 0.27398 0.0
H130 H 0.28028 0.22782 0.25627 0.0
H131 H 0.21825 0.27244 0.23357 0.0
O132 O 0.07591 0.13369 0.1919 0.0
O133 O 0.08034 0.1489 0.28038 0.0
O134 O 0.99901 0.17031 0.29941 0.0
O135 O 0.09652 0.0832 0.21313 0.0
O136 O 0.97686 0.14877 0.23105 0.0
O137 O 0.94613 0.16727 0.27695 0.0
O138 O 0.98627 0.11792 0.34835 0.0
O139 O 0.95528 0.07353 0.27395 0.0
O140 O 0.9775 0.10271 0.23096 0.0
O141 O 0.90195 0.13209 0.34145 0.0
O142 O 0.03577 0.09546 0.30943 0.0
O143 O 0.06525 0.07611 0.26357 0.0
C144 C 0.05248 0.17381 0.29485 0.0
C145 C 0.14898 0.10072 0.17077 0.0
C146 C 0.19168 0.09986 0.12188 0.0
C147 C 0.2438 0.09819 0.13512 0.0
C148 C 0.20136 0.09901 0.18339 0.0
C149 C 0.24845 0.09787 0.16561 0.0
C150 C 0.14443 0.10133 0.14008 0.0
C151 C 0.94665 0.16992 0.24809 0.0
C152 C 0.09818 0.10183 0.18876 0.0
C153 C 0.23915 0.21919 0.25004 0.0
C154 C 0.20374 0.24463 0.23723 0.0
C155 C 0.95737 0.07424 0.24513 0.0
C156 C 0.94417 0.15708 0.38292 0.0
C157 C 0.93288 0.17524 0.434 0.0
C158 C 0.94112 0.21197 0.42565 0.0
C159 C 0.95275 0.19382 0.37496 0.0
C160 C 0.93496 0.14785 0.41247 0.0
C161 C 0.95151 0.2211 0.39631 0.0
C162 C 0.06139 0.07199 0.29229 0.0
C163 C 0.94055 0.12829 0.36064 0.0
H164 H 0.28101 0.09645 0.12195 0.0
H165 H 0.20601 0.09835 0.20687 0.0
H166 H 0.28877 0.0964 0.17552 0.0
H167 H 0.10386 0.10321 0.13044 0.0
H168 H 0.93992 0.23353 0.44185 0.0
H169 H 0.95938 0.20138 0.35225 0.0
H170 H 0.92772 0.11947 0.4186 0.0
H171 H 0.95798 0.24945 0.39007 0.0
Tb172 Tb 0.44044 0.40137 0.73501 0.0
C173 C 0.65238 0.44542 0.78747 0.0
N174 N 0.63287 0.41045 0.78582 0.0
C175 C 0.71833 0.39093 0.76469 0.0
C176 C 0.70532 0.45475 0.77674 0.0
C177 C 0.66526 0.38303 0.77533 0.0
C178 C 0.73834 0.42696 0.76523 0.0
C179 C 0.63614 0.50881 0.80013 0.0
C180 C 0.61785 0.47209 0.79881 0.0
C181 C 0.68874 0.51836 0.78921 0.0
C182 C 0.72323 0.4914 0.77756 0.0
Tb183 Tb 0.54627 0.40086 0.804 0.0
N184 N 0.56657 0.46201 0.80853 0.0
C185 C 0.60129 0.53474 0.81274 0.0
C186 C 0.5347 0.48665 0.82318 0.0
C187 C 0.55077 0.52347 0.82478 0.0
H188 H 0.65012 0.35515 0.77522 0.0
H189 H 0.52464 0.54299 0.83583 0.0
H190 H 0.36706 0.47762 0.74019 0.0
H191 H 0.38058 0.26038 0.71809 0.0
H192 H 0.4978 0.47808 0.83464 0.0
H193 H 0.61375 0.56324 0.81415 0.0
H194 H 0.44611 0.31254 0.72086 0.0
H195 H 0.74378 0.36924 0.75611 0.0
H196 H 0.7033 0.54648 0.78986 0.0
H197 H 0.7637 0.49919 0.76928 0.0
H198 H 0.26914 0.49362 0.74704 0.0
H199 H 0.77933 0.43301 0.75678 0.0
H200 H 0.28079 0.27033 0.72623 0.0
N201 N 0.35131 0.42018 0.73934 0.0
C202 C 0.31238 0.39318 0.73883 0.0
C203 C 0.2808 0.46523 0.74498 0.0
C204 C 0.25594 0.40107 0.7421 0.0
C205 C 0.33631 0.45603 0.74143 0.0
C206 C 0.24046 0.43761 0.74559 0.0
N207 N 0.38416 0.35116 0.73161 0.0
C208 C 0.40273 0.31707 0.72462 0.0
C209 C 0.29038 0.32871 0.73291 0.0
C210 C 0.32924 0.35754 0.73431 0.0
C211 C 0.30934 0.29328 0.72747 0.0
C212 C 0.36569 0.28753 0.72293 0.0
H213 H 0.19749 0.44484 0.74822 0.0
H214 H 0.17335 0.37781 0.74408 0.0
H215 H 0.20354 0.31443 0.73603 0.0
O216 O 0.48185 0.39398 0.69475 0.0
O217 O 0.41713 0.36404 0.77073 0.0
O218 O 0.47528 0.36415 0.81159 0.0
O219 O 0.40259 0.41955 0.69632 0.0
O220 O 0.51224 0.36475 0.73338 0.0
O221 O 0.54127 0.34906 0.78052 0.0
O222 O 0.5528 0.41135 0.84909 0.0
O223 O 0.56629 0.41724 0.75844 0.0
O224 O 0.49231 0.4491 0.74314 0.0
O225 O 0.59752 0.36729 0.8296 0.0
O226 O 0.46385 0.42318 0.81136 0.0
O227 O 0.44179 0.44679 0.76626 0.0
C228 C 0.43087 0.3534 0.79727 0.0
C229 C 0.46075 0.43546 0.65651 0.0
C230 C 0.46337 0.45235 0.60451 0.0
C231 C 0.49352 0.48416 0.61179 0.0
C232 C 0.4899 0.46758 0.66324 0.0
C233 C 0.50658 0.49165 0.64095 0.0
C234 C 0.44742 0.42801 0.62719 0.0
C235 C 0.53799 0.34314 0.75207 0.0
C236 C 0.44319 0.40949 0.67961 0.0
C237 C 0.21693 0.37234 0.74142 0.0
C238 C 0.23411 0.33625 0.73681 0.0
C239 C 0.54571 0.44595 0.74538 0.0
C240 C 0.63748 0.39725 0.87078 0.0
C241 C 0.67648 0.41255 0.91866 0.0
C242 C 0.72748 0.41989 0.90475 0.0
C243 C 0.68889 0.40453 0.85758 0.0
C244 C 0.63149 0.40137 0.9013 0.0
C245 C 0.73345 0.41595 0.87449 0.0
C246 C 0.43212 0.44305 0.79449 0.0
C247 C 0.58915 0.38614 0.85331 0.0
H248 H 0.50608 0.50365 0.59502 0.0
H249 H 0.49935 0.47409 0.68569 0.0
H250 H 0.5293 0.51637 0.64631 0.0
H251 H 0.42496 0.40306 0.62207 0.0
H252 H 0.76327 0.42787 0.91732 0.0
H253 H 0.69489 0.40131 0.83429 0.0
H254 H 0.5916 0.3961 0.91144 0.0
H255 H 0.773 0.42144 0.86412 0.0
Tb256 Tb 0.05174 0.88624 0.73554 0.0
C257 C 0.82647 0.83886 0.78365 0.0
N258 N 0.84571 0.87351 0.77924 0.0
C259 C 0.76108 0.89006 0.75626 0.0
C260 C 0.77411 0.82804 0.77351 0.0
C261 C 0.8136 0.89941 0.76644 0.0
C262 C 0.74134 0.85417 0.75966 0.0
C263 C 0.84257 0.7775 0.80168 0.0
C264 C 0.86049 0.81401 0.79751 0.0
C265 C 0.79082 0.7663 0.79111 0.0
C266 C 0.75661 0.79153 0.77714 0.0
Tb267 Tb 0.9298 0.88655 0.79818 0.0
N268 N 0.91046 0.82585 0.80738 0.0
C269 C 0.87669 0.7535 0.81687 0.0
C270 C 0.94172 0.80314 0.82422 0.0
C271 C 0.92605 0.76655 0.82856 0.0
H272 H 0.82864 0.92722 0.76403 0.0
H273 H 0.95155 0.74861 0.84148 0.0
H274 H 0.14083 0.82258 0.75611 0.0
H275 H 0.09249 0.02275 0.69581 0.0
H276 H 0.97783 0.81297 0.83535 0.0
H277 H 0.86446 0.72522 0.82053 0.0
H278 H 0.03839 0.96543 0.70251 0.0
H279 H 0.73586 0.9105 0.74581 0.0
H280 H 0.77657 0.73829 0.79397 0.0
H281 H 0.71673 0.78254 0.76924 0.0
H282 H 0.23376 0.82043 0.77758 0.0
H283 H 0.70084 0.84693 0.75154 0.0
H284 H 0.18499 0.02879 0.71802 0.0
N285 N 0.13958 0.88065 0.7533 0.0
C286 C 0.17087 0.91168 0.75359 0.0
C287 C 0.21624 0.84645 0.77143 0.0
C288 C 0.22543 0.91168 0.76398 0.0
C289 C 0.16293 0.84785 0.76001 0.0
C290 C 0.24728 0.87868 0.77401 0.0
N291 N 0.09828 0.94042 0.72947 0.0
C292 C 0.07815 0.96824 0.71274 0.0
C293 C 0.18264 0.9744 0.73709 0.0
C294 C 0.14997 0.94254 0.74049 0.0
C295 C 0.16118 1.00382 0.72124 0.0
C296 C 0.10893 1.00053 0.7087 0.0
H297 H 0.28898 0.87746 0.78226 0.0
H298 H 0.29907 0.94472 0.77058 0.0
H299 H 0.26153 0.99974 0.74691 0.0
O300 O 0.03564 0.89024 0.69004 0.0
O301 O 0.04839 0.93341 0.76583 0.0
O302 O 0.0085 0.91291 0.80942 0.0
O303 O 0.10004 0.85632 0.70597 0.0
O304 O 0.97272 0.91289 0.7257 0.0
O305 O 0.93545 0.93474 0.76949 0.0
O306 O 0.89971 0.87974 0.84165 0.0
O307 O 0.91635 0.86471 0.7539 0.0
O308 O 0.99861 0.83827 0.74289 0.0
O309 O 0.88629 0.93023 0.81728 0.0
O310 O 0.01075 0.86622 0.81104 0.0
O311 O 0.04677 0.84192 0.7684 0.0
C312 C 0.03977 0.93609 0.79435 0.0
C313 C 0.11721 0.88591 0.66095 0.0
C314 C 0.14556 0.89743 0.61021 0.0
C315 C 0.19414 0.91423 0.6202 0.0
C316 C 0.16692 0.90209 0.67024 0.0
C317 C 0.20475 0.91641 0.65003 0.0
C318 C 0.10679 0.88335 0.63065 0.0
C319 C 0.94646 0.93791 0.74116 0.0
C320 C 0.0779 0.87047 0.68286 0.0
C321 C 0.25723 0.94405 0.76245 0.0
C322 C 0.23593 0.97535 0.7489 0.0
C323 C 0.94468 0.83855 0.74144 0.0
C324 C 0.84713 0.92737 0.86663 0.0
C325 C 0.82345 0.92812 0.91893 0.0
C326 C 0.78324 0.95456 0.91317 0.0
C327 C 0.80722 0.95417 0.86161 0.0
C328 C 0.85541 0.91454 0.89545 0.0
C329 C 0.77544 0.96755 0.88474 0.0
C330 C 0.04692 0.84591 0.79704 0.0
C331 C 0.87797 0.91206 0.84151 0.0
H332 H 0.22418 0.92538 0.60478 0.0
H333 H 0.1772 0.90314 0.69312 0.0
H334 H 0.24269 0.92896 0.65755 0.0
H335 H 0.06906 0.87053 0.62306 0.0
H336 H 0.75853 0.96575 0.9308 0.0
H337 H 0.79991 0.96437 0.83969 0.0
H338 H 0.88628 0.89396 0.89959 0.0
H339 H 0.7446 0.9881 0.88062 0.0
Tb340 Tb 0.45237 0.60713 0.2299 0.0
C341 C 0.68137 0.65574 0.2666 0.0
N342 N 0.65734 0.62246 0.27123 0.0
C343 C 0.73874 0.59329 0.25264 0.0
C344 C 0.73394 0.65924 0.25342 0.0
C345 C 0.68685 0.59134 0.26624 0.0
C346 C 0.76192 0.6274 0.24562 0.0
C347 C 0.67982 0.7211 0.27525 0.0
C348 C 0.65491 0.68618 0.27725 0.0
C349 C 0.73072 0.72514 0.26062 0.0
C350 C 0.75769 0.69424 0.24963 0.0
Tb351 Tb 0.5697 0.62317 0.29085 0.0
N352 N 0.60525 0.68123 0.29059 0.0
C353 C 0.65319 0.75065 0.28851 0.0
C354 C 0.58059 0.7094 0.3051 0.0
C355 C 0.60376 0.74464 0.30391 0.0
H356 H 0.67068 0.56481 0.27271 0.0
H357 H 0.58346 0.76713 0.31477 0.0
H358 H 0.34056 0.63199 0.26563 0.0
H359 H 0.50483 0.47879 0.17767 0.0
H360 H 0.54239 0.7047 0.31695 0.0
H361 H 0.67094 0.77797 0.2875 0.0
H362 H 0.51025 0.54538 0.18507 0.0
H363 H 0.76112 0.56848 0.24796 0.0
H364 H 0.75018 0.75185 0.25833 0.0
H365 H 0.79771 0.69756 0.23916 0.0
H366 H 0.25783 0.60208 0.28756 0.0
H367 H 0.80239 0.62884 0.23541 0.0
H368 H 0.4339 0.44194 0.20402 0.0
N369 N 0.375 0.58203 0.25082 0.0
C370 C 0.36736 0.54547 0.24721 0.0
C371 C 0.28857 0.5858 0.27647 0.0
C372 C 0.32114 0.52719 0.25941 0.0
C373 C 0.33547 0.60265 0.26416 0.0
C374 C 0.28169 0.54784 0.27441 0.0
N375 N 0.44875 0.54586 0.21869 0.0
C376 C 0.48159 0.52946 0.19822 0.0
C377 C 0.39989 0.48865 0.22663 0.0
C378 C 0.40635 0.5266 0.2312 0.0
C379 C 0.43732 0.47107 0.20811 0.0
C380 C 0.47755 0.49175 0.1933 0.0
H381 H 0.24555 0.53484 0.28414 0.0
H382 H 0.28098 0.47441 0.26565 0.0
H383 H 0.34987 0.44063 0.23681 0.0
O384 O 0.42056 0.59776 0.18746 0.0
O385 O 0.44478 0.58615 0.2753 0.0
O386 O 0.53155 0.56892 0.28761 0.0
O387 O 0.40003 0.64694 0.21195 0.0
O388 O 0.53777 0.59376 0.21781 0.0
O389 O 0.57608 0.57535 0.26153 0.0
O390 O 0.54538 0.62499 0.33508 0.0
O391 O 0.54812 0.66659 0.25962 0.0
O392 O 0.52578 0.63926 0.21611 0.0
O393 O 0.62865 0.61236 0.32341 0.0
O394 O 0.48625 0.64348 0.30139 0.0
O395 O 0.44186 0.65576 0.25731 0.0
C396 C 0.47817 0.56283 0.28772 0.0
C397 C 0.35792 0.64047 0.16416 0.0
C398 C 0.33556 0.64234 0.11221 0.0
C399 C 0.2858 0.65977 0.11911 0.0
C400 C 0.30855 0.65856 0.17059 0.0
C401 C 0.27262 0.66801 0.14815 0.0
C402 C 0.37157 0.63263 0.13485 0.0
C403 C 0.57428 0.57501 0.23268 0.0
C404 C 0.39315 0.62802 0.18819 0.0
C405 C 0.31581 0.48911 0.2561 0.0
C406 C 0.35518 0.46986 0.23979 0.0
C407 C 0.55133 0.6651 0.23098 0.0
C408 C 0.59328 0.58688 0.36742 0.0
C409 C 0.60874 0.56903 0.41831 0.0
C410 C 0.58791 0.53388 0.41203 0.0
C411 C 0.57349 0.55153 0.36149 0.0
C412 C 0.61118 0.59545 0.39576 0.0
C413 C 0.57064 0.52521 0.38374 0.0
C414 C 0.44901 0.66098 0.28569 0.0
C415 C 0.59339 0.61559 0.34475 0.0
H416 H 0.25768 0.66765 0.10195 0.0
H417 H 0.29721 0.66466 0.19304 0.0
H418 H 0.23438 0.68169 0.15327 0.0
H419 H 0.40983 0.6189 0.12968 0.0
H420 H 0.58578 0.51294 0.42888 0.0
H421 H 0.56005 0.54444 0.33975 0.0
H422 H 0.62605 0.62291 0.40036 0.0
H423 H 0.555 0.49802 0.37903 0.0
H424 H 0.1672 0.92338 0.33486 0.0
H425 H 0.14672 0.97652 0.41852 0.0
H426 H 0.10831 0.02987 0.3945 0.0
H427 H 0.08096 0.06184 0.35014 0.0
H428 H 0.10164 0.01024 0.26596 0.0
H429 H 0.1409 0.95642 0.28976 0.0
C430 C 0.15454 0.94669 0.34781 0.0
C431 C 0.15923 0.94554 0.37855 0.0
C432 C 0.13301 0.97777 0.33377 0.0
C433 C 0.14237 0.97607 0.39494 0.0
C434 C 0.12087 1.00685 0.3812 0.0
C435 C 0.09405 0.03889 0.33689 0.0
C436 C 0.08809 0.04011 0.30629 0.0
C437 C 0.11599 1.008 0.35068 0.0
C438 C 0.1058 0.01013 0.28956 0.0
C439 C 0.12804 0.97925 0.30317 0.0
H440 H 0.30962 0.53827 0.8876 0.0
H441 H 0.38485 0.62448 0.8354 0.0
H442 H 0.41287 0.58006 0.79886 0.0
H443 H 0.42659 0.51602 0.78454 0.0
H444 H 0.36196 0.42941 0.83963 0.0
H445 H 0.31924 0.47443 0.87202 0.0
C446 C 0.33215 0.54744 0.86827 0.0
C447 C 0.34507 0.58487 0.86455 0.0
C448 C 0.35022 0.52151 0.84774 0.0
C449 C 0.37334 0.59608 0.83888 0.0
C450 C 0.38995 0.57059 0.81797 0.0
C451 C 0.40174 0.50712 0.80318 0.0
C452 C 0.39699 0.46965 0.80975 0.0
C453 C 0.3798 0.53317 0.82248 0.0
C454 C 0.36588 0.45826 0.83425 0.0
C455 C 0.34185 0.48396 0.85284 0.0
H456 H 0.69532 0.5298 0.65362 0.0
H457 H 0.59961 0.62068 0.68465 0.0
H458 H 0.55507 0.58117 0.72154 0.0
H459 H 0.53655 0.51925 0.74129 0.0
H460 H 0.63461 0.4288 0.71161 0.0
H461 H 0.68571 0.46957 0.67807 0.0
C462 C 0.66549 0.54098 0.6689 0.0
C463 C 0.65045 0.57794 0.66647 0.0
C464 C 0.64022 0.51812 0.69002 0.0
C465 C 0.61196 0.59234 0.68633 0.0
C466 C 0.58624 0.56971 0.70722 0.0
C467 C 0.56959 0.50872 0.72765 0.0
C468 C 0.58139 0.47117 0.72835 0.0
C469 C 0.59895 0.53236 0.7087 0.0
C470 C 0.62478 0.45766 0.71116 0.0
C471 C 0.65378 0.48091 0.69197 0.0
H472 H 0.84784 0.93095 0.19425 0.0
H473 H 0.91869 0.97364 0.11365 0.0
H474 H 0.95246 0.02719 0.13969 0.0
H475 H 0.9635 0.06197 0.18579 0.0
H476 H 0.90809 0.0122 0.26664 0.0
H477 H 0.86816 0.96126 0.24021 0.0
C478 C 0.87178 0.9512 0.18215 0.0
C479 C 0.87981 0.94759 0.15164 0.0
C480 C 0.89387 0.98116 0.19746 0.0
C481 C 0.90991 0.97546 0.13685 0.0
C482 C 0.93005 1.00618 0.15184 0.0
C483 C 0.94254 0.04005 0.19764 0.0
C484 C 0.93647 0.04209 0.22836 0.0
C485 C 0.92224 1.00938 0.18219 0.0
C486 C 0.91085 0.01265 0.24316 0.0
C487 C 0.88862 0.98304 0.22796 0.0
H488 H 0.89765 0.09742 0.69732 0.0
H489 H 0.83627 0.03839 0.62234 0.0
H490 H 0.86414 0.98071 0.6447 0.0
H491 H 0.90372 0.9466 0.68653 0.0
H492 H 0.95491 1.0061 0.76317 0.0
H493 H 0.93165 0.06393 0.73952 0.0
C494 C 0.88904 0.07204 0.68595 0.0
C495 C 0.86438 0.07266 0.6581 0.0
C496 C 0.90312 0.03887 0.69939 0.0
C497 C 0.85579 0.03916 0.64356 0.0
C498 C 0.87129 1.006 0.65647 0.0
C499 C 0.90957 0.97231 0.69795 0.0
C500 C 0.9307 0.97225 0.72654 0.0
C501 C 0.89475 1.00549 0.68446 0.0
C502 C 0.93801 1.00556 0.74127 0.0
C503 C 0.92502 0.0386 0.72771 0.0
H504 H 0.68333 0.47547 0.13716 0.0
H505 H 0.62628 0.39185 0.19778 0.0
H506 H 0.60188 0.43844 0.23319 0.0
H507 H 0.58681 0.50314 0.24524 0.0
H508 H 0.6318 0.58657 0.18232 0.0
H509 H 0.67062 0.5402 0.14974 0.0
C510 C 0.66547 0.46728 0.15804 0.0
C511 C 0.65711 0.42982 0.16449 0.0
C512 C 0.64918 0.49441 0.17808 0.0
C513 C 0.63466 0.42016 0.1921 0.0
C514 C 0.62004 0.44692 0.21244 0.0
C515 C 0.60655 0.51112 0.22475 0.0
C516 C 0.60697 0.54807 0.21617 0.0
C517 C 0.62614 0.48412 0.2055 0.0
C518 C 0.63131 0.55818 0.18929 0.0
C519 C 0.65311 0.53166 0.17062 0.0
H520 H 0.42735 0.41937 0.36151 0.0
H521 H 0.27617 0.47646 0.37855 0.0
H522 H 0.30571 0.52622 0.34552 0.0
H523 H 0.37849 0.55583 0.31537 0.0
H524 H 0.52898 0.49803 0.29747 0.0
H525 H 0.49655 0.44654 0.32756 0.0
C526 C 0.40062 0.44242 0.35743 0.0
C527 C 0.34959 0.44434 0.37208 0.0
C528 C 0.41824 0.47104 0.33872 0.0
C529 C 0.31539 0.47445 0.36715 0.0
C530 C 0.33245 0.50293 0.34848 0.0
C531 C 0.40357 0.53162 0.31753 0.0
C532 C 0.45606 0.53079 0.30423 0.0
C533 C 0.38431 0.50189 0.33462 0.0
C534 C 0.48858 0.49948 0.3077 0.0
C535 C 0.47 0.46996 0.32482 0.0
H536 H 0.16704 0.07422 0.84308 0.0
H537 H 0.10338 0.03116 0.92519 0.0
H538 H 0.06344 0.97919 0.89958 0.0
H539 H 0.04348 0.94669 0.85365 0.0
H540 H 0.09172 0.99665 0.77157 0.0
H541 H 0.13974 0.04533 0.79733 0.0
C542 C 0.14359 0.05409 0.85559 0.0
C543 C 0.13893 0.05718 0.88632 0.0
C544 C 0.11791 0.02515 0.8406 0.0
C545 C 0.1094 0.02962 0.90173 0.0
C546 C 0.08571 0.99989 0.88702 0.0
C547 C 0.06448 0.96819 0.84133 0.0
C548 C 0.06619 0.96685 0.81047 0.0
C549 C 0.08939 0.99748 0.85642 0.0
C550 C 0.0925 0.99559 0.79512 0.0
C551 C 0.11919 0.02392 0.80994 0.0
H552 H 0.13536 0.08364 0.9874 0.0
H553 H 0.28239 0.15052 0.97857 0.0
H554 H 0.29247 0.15113 0.0318 0.0
H555 H 0.25841 0.13365 0.08094 0.0
H556 H 0.11337 0.06462 0.08919 0.0
H557 H 0.10371 0.06408 0.03613 0.0
C558 C 0.17024 0.09784 0.99701 0.0
C559 C 0.20817 0.11689 0.97884 0.0
C560 C 0.17589 0.098 0.02762 0.0
C561 C 0.25229 0.13586 0.99192 0.0
C562 C 0.25818 0.13613 0.0224 0.0
C563 C 0.22502 0.11811 0.07118 0.0
C564 C 0.18651 0.0994 0.08929 0.0
C565 C 0.22004 0.11746 0.04049 0.0
C566 C 0.14307 0.0799 0.07604 0.0
C567 C 0.13773 0.07929 0.0456 0.0
H568 H 0.4348 0.42899 0.46778 0.0
H569 H 0.27288 0.39366 0.49681 0.0
H570 H 0.29793 0.40551 0.54751 0.0
H571 H 0.36538 0.42617 0.58383 0.0
H572 H 0.52719 0.46201 0.55513 0.0
H573 H 0.50218 0.45049 0.50425 0.0
C574 C 0.40481 0.4242 0.48516 0.0
C575 C 0.3521 0.41016 0.47834 0.0
C576 C 0.41939 0.43127 0.51443 0.0
C577 C 0.31405 0.40381 0.50131 0.0
C578 C 0.32822 0.41078 0.53038 0.0
C579 C 0.39543 0.43111 0.5665 0.0
C580 C 0.44819 0.44485 0.57345 0.0
C581 C 0.38083 0.42434 0.53723 0.0
C582 C 0.48612 0.45176 0.55052 0.0
C583 C 0.47193 0.44501 0.52137 0.0
H584 H 0.70064 0.43361 0.05563 0.0
H585 H 0.59598 0.33741 0.05585 0.0
H586 H 0.58859 0.34069 1.00268 0.0
H587 H 0.61916 0.36707 0.95582 0.0
H588 H 0.72249 0.464 0.95504 0.0
H589 H 0.72308 0.46417 1.00851 0.0
C590 C 0.67535 0.41384 0.04406 0.0
C591 C 0.64964 0.38498 0.05968 0.0
C592 C 0.67165 0.41567 1.01328 0.0
C593 C 0.61709 0.3595 0.04432 0.0
C594 C 0.61277 0.36136 1.01389 0.0
C595 C 0.64088 0.38874 0.96725 0.0
C596 C 0.67136 0.41516 0.95123 0.0
C597 C 0.64104 0.38873 0.99806 0.0
C598 C 0.69968 0.44276 0.96668 0.0
C599 C 0.69982 0.44302 0.99733 0.0
H600 H 0.91981 0.12166 0.56551 0.0
H601 H 0.77862 0.19283 0.5656 0.0
H602 H 0.79606 0.20799 0.51431 0.0
H603 H 0.85194 0.20163 0.46925 0.0
H604 H 0.98811 0.12683 0.4681 0.0
H605 H 0.97123 0.11181 0.51977 0.0
C606 C 0.89198 0.13992 0.55432 0.0
C607 C 0.84807 0.15619 0.56982 0.0
C608 C 0.9014 0.14791 0.52451 0.0
C609 C 0.81346 0.18039 0.55467 0.0
C610 C 0.82314 0.18894 0.52518 0.0
C611 C 0.87784 0.18208 0.48041 0.0
C612 C 0.92147 0.16556 0.46508 0.0
C613 C 0.86723 0.1731 0.50994 0.0
C614 C 0.95431 0.13985 0.47953 0.0
C615 C 0.94471 0.13134 0.50905 0.0
H616 H 0.89798 0.90136 0.04945 0.0
H617 H 0.72481 0.87709 0.06042 0.0
H618 H 0.71066 0.88597 1.0077 0.0
H619 H 0.74709 0.90426 0.95898 0.0
H620 H 0.92109 0.9261 0.94794 0.0
H621 H 0.93574 0.91408 1.00006 0.0
C622 C 0.85725 0.89781 0.04017 0.0
C623 C 0.81232 0.88898 0.0587 0.0
C624 C 0.84972 0.9025 1.00988 0.0
C625 C 0.75987 0.88393 0.04651 0.0
C626 C 0.75184 0.88911 1.01643 0.0
C627 C 0.78825 0.90604 0.968 0.0
C628 C 0.83294 0.91627 0.94968 0.0
C629 C 0.79633 0.89892 0.99798 0.0
C630 C 0.88615 0.91809 0.96153 0.0
C631 C 0.89444 0.91146 0.99137 0.0
H632 H 0.72228 0.6195 0.53563 0.0
H633 H 0.57304 0.57218 0.57255 0.0
H634 H 0.54309 0.55418 0.52385 0.0
H635 H 0.55719 0.55408 0.47034 0.0
H636 H 0.70374 0.60451 0.43339 0.0
H637 H 0.7358 0.62011 0.48241 0.0
C638 C 0.68287 0.60563 0.53312 0.0
C639 C 0.6502 0.59729 0.55798 0.0
C640 C 0.66502 0.59623 0.5049 0.0
C641 C 0.59977 0.5785 0.55406 0.0
C642 C 0.58222 0.56847 0.5261 0.0
C643 C 0.59632 0.56825 0.47307 0.0
C644 C 0.62802 0.57815 0.44825 0.0
C645 C 0.61431 0.57741 0.50134 0.0
C646 C 0.67831 0.59692 0.45211 0.0
C647 C 0.69679 0.60569 0.48014 0.0
H648 H 0.40669 0.65413 0.98002 0.0
H649 H 0.26523 0.58308 0.97024 0.0
H650 H 0.2555 0.57821 0.0236 0.0
H651 H 0.28038 0.60094 0.07273 0.0
H652 H 0.42342 0.67061 0.08244 0.0
H653 H 0.43999 0.66915 0.02945 0.0
C654 C 0.37465 0.63689 0.9897 0.0
C655 C 0.33652 0.61912 0.97146 0.0
C656 C 0.36928 0.63442 0.02029 0.0
C657 C 0.29514 0.59678 0.984 0.0
C658 C 0.28932 0.5943 1.01444 0.0
C659 C 0.31569 0.61518 0.06316 0.0
C660 C 0.35041 0.63614 0.08117 0.0
C661 C 0.32502 0.614 0.03276 0.0
C662 C 0.39631 0.65432 0.06884 0.0
C663 C 0.40558 0.65362 0.03859 0.0
H664 H 0.15093 0.92838 0.47598 0.0
H665 H 0.19835 0.81477 0.47345 0.0
H666 H 0.18224 0.8098 0.52629 0.0
H667 H 0.16208 0.83959 0.57402 0.0
H668 H 0.11385 0.9527 0.57517 0.0
H669 H 0.1204 0.95553 0.52173 0.0
C670 C 0.15616 0.90204 0.48654 0.0
C671 C 0.17599 0.87199 0.47037 0.0
C672 C 0.14624 0.89926 0.5168 0.0
C673 C 0.18401 0.8386 0.48517 0.0
C674 C 0.17443 0.83565 0.51543 0.0
C675 C 0.1514 0.8644 0.56235 0.0
C676 C 0.13677 0.8958 0.57826 0.0
C677 C 0.15652 0.86601 0.53158 0.0
C678 C 0.12433 0.92815 0.56319 0.0
C679 C 0.12864 0.92983 0.53272 0.0
H680 H 0.1372 0.31515 0.36122 0.0
H681 H 0.29075 0.25738 0.35592 0.0
H682 H 0.24654 0.20885 0.32719 0.0
H683 H 0.16162 0.17971 0.30873 0.0
H684 H 0.00863 0.23863 0.31226 0.0
H685 H 0.05446 0.28921 0.33739 0.0
C686 C 0.16113 0.29238 0.35304 0.0
C687 C 0.21712 0.28984 0.36025 0.0
C688 C 0.13514 0.26435 0.33696 0.0
C689 C 0.24771 0.26 0.35017 0.0
C690 C 0.2223 0.23211 0.33404 0.0
C691 C 0.1387 0.20409 0.31408 0.0
C692 C 0.0818 0.20532 0.30841 0.0
C693 C 0.16568 0.23352 0.32797 0.0
C694 C 0.05234 0.23668 0.3166 0.0
C695 C 0.07862 0.26579 0.33082 0.0
H696 H 0.22478 0.26832 0.84934 0.0
H697 H 0.35087 0.2023 0.8881 0.0
H698 H 0.42277 0.24222 0.86622 0.0
H699 H 0.4491 0.29531 0.83429 0.0
H700 H 0.32047 0.36015 0.79613 0.0
H701 H 0.25035 0.32138 0.81913 0.0
C702 C 0.26809 0.26296 0.85314 0.0
C703 C 0.28297 0.23286 0.8703 0.0
C704 C 0.30865 0.28563 0.84027 0.0
C705 C 0.33887 0.22568 0.87504 0.0
C706 C 0.3798 0.24839 0.86246 0.0
C707 C 0.4057 0.30088 0.83121 0.0
C708 C 0.38994 0.32996 0.81286 0.0
C709 C 0.36518 0.27837 0.8448 0.0
C710 C 0.33362 0.33712 0.80919 0.0
C711 C 0.29342 0.31521 0.82264 0.0
H712 H 0.70637 0.21732 0.72416 0.0
H713 H 0.70544 0.26914 0.63934 0.0
H714 H 0.63229 0.31054 0.6558 0.0
H715 H 0.57466 0.33505 0.69575 0.0
H716 H 0.57897 0.28416 0.78122 0.0
H717 H 0.64432 0.23913 0.76308 0.0
C718 C 0.68929 0.23732 0.70922 0.0
C719 C 0.71051 0.24032 0.68064 0.0
C720 C 0.64825 0.26129 0.71905 0.0
C721 C 0.68905 0.26639 0.6614 0.0
C722 C 0.64754 0.29008 0.67086 0.0
C723 C 0.58914 0.31376 0.71031 0.0
C724 C 0.57207 0.3132 0.73991 0.0
C725 C 0.62759 0.28824 0.69985 0.0
C726 C 0.59165 0.28547 0.75844 0.0
C727 C 0.62911 0.25969 0.74809 0.0
H728 H 0.78345 0.29454 0.2081 0.0
H729 H 0.78702 0.23098 0.12887 0.0
H730 H 0.85386 0.18931 0.15046 0.0
H731 H 0.90683 0.16889 0.19278 0.0
H732 H 0.90688 0.23326 0.27174 0.0
H733 H 0.84292 0.27645 0.24961 0.0
C734 C 0.79963 0.27181 0.19559 0.0
C735 C 0.78087 0.26559 0.16705 0.0
C736 C 0.83799 0.24787 0.20823 0.0
C737 C 0.80143 0.23613 0.1509 0.0
C738 C 0.83937 0.21227 0.16325 0.0
C739 C 0.89322 0.19253 0.20508 0.0
C740 C 0.91061 0.19737 0.2341 0.0
C741 C 0.85728 0.21754 0.19205 0.0
C742 C 0.89295 0.22835 0.24962 0.0
C743 C 0.85666 0.25321 0.23691 0.0
H744 H 0.85582 0.70109 0.67137 0.0
H745 H 0.71004 0.76725 0.66873 0.0
H746 H 0.75565 0.81434 0.69828 0.0
H747 H 0.83984 0.83889 0.72073 0.0
H748 H 0.98481 0.77189 0.72543 0.0
H749 H 0.93757 0.7234 0.69836 0.0
C750 C 0.83386 0.72549 0.67791 0.0
C751 C 0.77972 0.73083 0.66829 0.0
C752 C 0.86064 0.75257 0.69461 0.0
C753 C 0.75162 0.76261 0.67631 0.0
C754 C 0.77783 0.78961 0.69294 0.0
C755 C 0.86061 0.81331 0.71659 0.0
C756 C 0.91554 0.80893 0.72546 0.0
C757 C 0.83274 0.78522 0.70165 0.0
C758 C 0.94255 0.77608 0.71882 0.0
C759 C 0.91545 0.74822 0.70348 0.0
H760 H 0.68584 0.80508 0.19027 0.0
H761 H 0.75678 0.7274 0.1306 0.0
H762 H 0.69169 0.67997 0.148 0.0
H763 H 0.61963 0.65939 0.18349 0.0
H764 H 0.55077 0.7374 0.24373 0.0
H765 H 0.60927 0.7859 0.22285 0.0
C766 C 0.68602 0.77796 0.18066 0.0
C767 C 0.72524 0.76966 0.15899 0.0
C768 C 0.64913 0.75083 0.19114 0.0
C769 C 0.7262 0.73437 0.14704 0.0
C770 C 0.68927 0.70725 0.15713 0.0
C771 C 0.61681 0.68719 0.19156 0.0
C772 C 0.58137 0.69483 0.21527 0.0
C773 C 0.65121 0.71495 0.1796 0.0
C774 C 0.57826 0.73085 0.22572 0.0
C775 C 0.61165 0.75859 0.21377 0.0
H776 H 0.30867 0.79738 0.32557 0.0
H777 H 0.37763 0.76929 0.40914 0.0
H778 H 0.42185 0.71549 0.38749 0.0
H779 H 0.44587 0.67911 0.34391 0.0
H780 H 0.37732 0.70841 0.2601 0.0
H781 H 0.32789 0.75875 0.28268 0.0
C782 C 0.33258 0.77899 0.33905 0.0
C783 C 0.33974 0.78678 0.36883 0.0
C784 C 0.35842 0.74856 0.32633 0.0
C785 C 0.37129 0.76336 0.38618 0.0
C786 C 0.39679 0.73281 0.37376 0.0
C787 C 0.41988 0.69632 0.33057 0.0
C788 C 0.41596 0.68996 0.30021 0.0
C789 C 0.39149 0.72552 0.3437 0.0
C790 C 0.38158 0.71255 0.28344 0.0
C791 C 0.35318 0.74148 0.29634 0.0
H792 H 0.22676 0.78916 0.88422 0.0
H793 H 0.22204 0.69581 0.82705 0.0
H794 H 0.15037 0.72509 0.79745 0.0
H795 H 0.08893 0.77769 0.78833 0.0
H796 H 0.09598 0.87097 0.84585 0.0
H797 H 0.16619 0.84117 0.87524 0.0
C798 C 0.20997 0.77541 0.86519 0.0
C799 C 0.22916 0.74075 0.85749 0.0
C800 C 0.16908 0.7923 0.84859 0.0
C801 C 0.20753 0.72273 0.83306 0.0
C802 C 0.16665 0.7394 0.81629 0.0
C803 C 0.10614 0.79139 0.80725 0.0
C804 C 0.08786 0.82652 0.81485 0.0
C805 C 0.14705 0.77421 0.82388 0.0
C806 C 0.1095 0.84387 0.83966 0.0
C807 C 0.14982 0.82697 0.85636 0.0
loop_
_geom_bond_atom_site_label_1
_geom_bond_atom_site_label_2
_geom_bond_distance
_geom_bond_site_symmetry_2
_ccdc_geom_bond_type
H0 C3 0.929 . S
H1 C6 0.929 . S
H2 C8 0.930 . S
C3 H0 0.929 . S
C3 C4 1.398 . S
C3 C5 1.396 . S
C4 C3 1.398 . S
C4 C8 1.407 . S
C5 C3 1.396 . S
C5 C6 1.394 . S
C6 H1 0.929 . S
C6 C5 1.394 . S
C6 C7 1.382 . S
C7 C6 1.382 . S
C7 C8 1.392 . S
C7 N9 1.420 . S
C8 H2 0.930 . S
C8 C4 1.407 . S
C8 C7 1.392 . S
N9 C7 1.420 . S
N9 C10 1.244 . S
C10 N9 1.244 . S
H11 C14 0.929 . S
H12 C17 0.929 . S
H13 C19 0.930 . S
C14 H11 0.929 . S
C14 C15 1.398 . S
C14 C16 1.396 . S
C15 C14 1.398 . S
C15 C19 1.407 . S
C16 C14 1.396 . S
C16 C17 1.394 . S
C17 H12 0.929 . S
C17 C16 1.394 . S
C17 C18 1.382 . S
C18 C17 1.382 . S
C18 C19 1.392 . S
C18 N20 1.420 . S
C19 H13 0.930 . S
C19 C15 1.407 . S
C19 C18 1.392 . S
N20 C18 1.420 . S
N20 C21 1.244 . S
C21 N20 1.244 . S
H22 C25 0.929 . S
H23 C28 0.929 . S
H24 C30 0.930 . S
C25 H22 0.929 . S
C25 C26 1.398 . S
C25 C27 1.396 . S
C26 C25 1.398 . S
C26 C30 1.407 . S
C27 C25 1.396 . S
C27 C28 1.394 . S
C28 H23 0.929 . S
C28 C27 1.394 . S
C28 C29 1.382 . S
C29 C28 1.382 . S
C29 C30 1.392 . S
C29 N31 1.420 . S
C30 H24 0.930 . S
C30 C26 1.407 . S
C30 C29 1.392 . S
N31 C29 1.420 . S
N31 C32 1.244 . S
C32 N31 1.244 . S
H33 C36 0.929 . S
H34 C39 0.929 . S
H35 C41 0.930 . S
C36 H33 0.929 . S
C36 C37 1.398 . S
C36 C38 1.396 . S
C37 C36 1.398 . S
C37 C41 1.407 . S
C38 C36 1.396 . S
C38 C39 1.394 . S
C39 H34 0.929 . S
C39 C38 1.394 . S
C39 C40 1.382 . S
C40 C39 1.382 . S
C40 C41 1.392 . S
C40 N42 1.420 . S
C41 H35 0.930 . S
C41 C37 1.407 . S
C41 C40 1.392 . S
N42 C40 1.420 . S
N42 C43 1.244 . S
C43 N42 1.244 . S
H44 C47 0.929 . S
H45 C50 0.929 . S
H46 C52 0.930 . S
C47 H44 0.929 . S
C47 C48 1.398 . S
C47 C49 1.396 . S
C48 C47 1.398 . S
C48 C52 1.407 . S
C49 C47 1.396 . S
C49 C50 1.394 . S
C50 H45 0.929 . S
C50 C49 1.394 . S
C50 C51 1.382 . S
C51 C50 1.382 . S
C51 C52 1.392 . S
C51 N53 1.420 . S
C52 H46 0.930 . S
C52 C48 1.407 . S
C52 C51 1.392 . S
N53 C51 1.420 . S
N53 C54 1.244 . S
C54 N53 1.244 . S
H55 C58 0.929 . S
H56 C61 0.929 . S
H57 C63 0.930 . S
C58 H55 0.929 . S
C58 C59 1.398 . S
C58 C60 1.396 . S
C59 C58 1.398 . S
C59 C63 1.407 . S
C60 C58 1.396 . S
C60 C61 1.394 . S
C61 H56 0.929 . S
C61 C60 1.394 . S
C61 C62 1.382 . S
C62 C61 1.382 . S
C62 C63 1.392 . S
C62 N64 1.420 . S
C63 H57 0.930 . S
C63 C59 1.407 . S
C63 C62 1.392 . S
N64 C62 1.420 . S
N64 C65 1.244 . S
C65 N64 1.244 . S
H66 C69 0.929 . S
H67 C72 0.929 . S
H68 C74 0.930 . S
C69 H66 0.929 . S
C69 C70 1.398 . S
C69 C71 1.396 . S
C70 C69 1.398 . S
C70 C74 1.407 . S
C71 C69 1.396 . S
C71 C72 1.394 . S
C72 H67 0.929 . S
C72 C71 1.394 . S
C72 C73 1.382 . S
C73 C72 1.382 . S
C73 C74 1.392 . S
C73 N75 1.420 . S
C74 H68 0.930 . S
C74 C70 1.407 . S
C74 C73 1.392 . S
N75 C73 1.420 . S
N75 C76 1.244 . S
C76 N75 1.244 . S
H77 C80 0.929 . S
H78 C83 0.929 . S
H79 C85 0.930 . S
C80 H77 0.929 . S
C80 C81 1.398 . S
C80 C82 1.396 . S
C81 C80 1.398 . S
C81 C85 1.407 . S
C82 C80 1.396 . S
C82 C83 1.394 . S
C83 H78 0.929 . S
C83 C82 1.394 . S
C83 C84 1.382 . S
C84 C83 1.382 . S
C84 C85 1.392 . S
C84 N86 1.420 . S
C85 H79 0.930 . S
C85 C81 1.407 . S
C85 C84 1.392 . S
N86 C84 1.420 . S
N86 C87 1.244 . S
C87 N86 1.244 . S
Tb88 N117 2.617 . S
Tb88 N123 2.572 . S
Tb88 O132 2.465 . S
Tb88 O133 2.387 . S
Tb88 O135 2.428 . S
Tb88 O136 2.308 . S
Tb88 O140 2.349 . S
Tb88 O143 2.393 . S
Tb88 C152 2.802 . S
C89 N90 1.379 . S
C89 C92 1.416 . S
C89 C96 1.424 . S
N90 C89 1.379 . S
N90 C93 1.334 . S
N90 Tb99 2.617 . S
C91 C93 1.390 . S
C91 C94 1.339 . S
C91 H111 0.930 . S
C92 C89 1.416 . S
C92 C94 1.416 . S
C92 C98 1.448 . S
C93 N90 1.334 . S
C93 C91 1.390 . S
C93 H104 0.930 . S
C94 C91 1.339 . S
C94 C92 1.416 . S
C94 H115 0.930 . S
C95 C96 1.413 . S
C95 C97 1.427 . S
C95 C101 1.416 1_545 S
C96 C89 1.424 . S
C96 C95 1.413 . S
C96 N100 1.361 . S
C97 C95 1.427 . S
C97 C98 1.328 . S
C97 H112 0.929 1_545 S
C98 C92 1.448 . S
C98 C97 1.328 . S
C98 H113 0.930 . S
Tb99 N90 2.617 . S
Tb99 N100 2.572 . S
Tb99 O134 2.349 1_655 S
Tb99 O137 2.393 . S
Tb99 O138 2.465 . S
Tb99 O139 2.387 . S
Tb99 O141 2.428 . S
Tb99 O142 2.308 1_655 S
Tb99 C163 2.802 . S
N100 C96 1.361 . S
N100 Tb99 2.572 . S
N100 C102 1.340 . S
C101 C95 1.416 1_565 S
C101 C103 1.332 . S
C101 H109 0.931 . S
C102 N100 1.340 . S
C102 C103 1.407 1_545 S
C102 H108 0.930 . S
C103 C101 1.332 . S
C103 C102 1.407 1_565 S
C103 H105 0.929 . S
H104 C93 0.930 . S
H105 C103 0.929 . S
H106 C121 0.930 . S
H107 C128 0.929 . S
H108 C102 0.930 . S
H109 C101 0.931 . S
H110 C124 0.930 . S
H111 C91 0.930 . S
H112 C97 0.929 1_565 S
H113 C98 0.930 . S
H114 C119 0.930 . S
H115 C94 0.930 . S
H116 C127 0.931 . S
N117 Tb88 2.617 . S
N117 C118 1.379 . S
N117 C121 1.334 . S
C118 N117 1.379 . S
C118 C120 1.416 . S
C118 C126 1.424 . S
C119 H114 0.930 . S
C119 C121 1.390 . S
C119 C122 1.339 . S
C120 C118 1.416 . S
C120 C122 1.416 . S
C120 C153 1.448 . S
C121 H106 0.930 . S
C121 N117 1.334 . S
C121 C119 1.390 . S
C122 C119 1.339 . S
C122 C120 1.416 . S
C122 H129 0.930 . S
N123 Tb88 2.572 . S
N123 C124 1.340 . S
N123 C126 1.361 . S
C124 H110 0.930 . S
C124 N123 1.340 . S
C124 C128 1.407 . S
C125 C126 1.413 . S
C125 C127 1.416 . S
C125 C154 1.427 . S
C126 C118 1.424 . S
C126 N123 1.361 . S
C126 C125 1.413 . S
C127 H116 0.931 . S
C127 C125 1.416 . S
C127 C128 1.332 . S
C128 H107 0.929 . S
C128 C124 1.407 . S
C128 C127 1.332 . S
H129 C122 0.930 . S
H130 C153 0.930 . S
H131 C154 0.929 . S
O132 Tb88 2.465 . S
O132 C152 1.264 . S
O133 Tb88 2.387 . S
O133 C144 1.264 . S
O134 Tb99 2.349 1_455 S
O134 C144 1.243 . S
O135 Tb88 2.428 . S
O135 C152 1.256 . S
O136 Tb88 2.308 . S
O136 C151 1.266 1_455 S
O137 Tb99 2.393 . S
O137 C151 1.248 . S
O138 Tb99 2.465 . S
O138 C163 1.264 . S
O139 Tb99 2.387 . S
O139 C155 1.264 . S
O140 Tb88 2.349 . S
O140 C155 1.243 1_455 S
O141 Tb99 2.428 . S
O141 C163 1.256 . S
O142 Tb99 2.308 1_455 S
O142 C162 1.266 . S
O143 Tb88 2.393 . S
O143 C162 1.248 . S
C144 O133 1.264 . S
C144 O134 1.243 . S
C145 C148 1.399 . S
C145 C150 1.383 . S
C145 C152 1.496 . S
C146 C147 1.399 . S
C146 C150 1.389 . S
C147 C146 1.399 . S
C147 C149 1.380 . S
C147 H164 0.929 . S
C148 C145 1.399 . S
C148 C149 1.392 . S
C148 H165 0.929 . S
C149 C147 1.380 . S
C149 C148 1.392 . S
C149 H166 0.929 . S
C150 C145 1.383 . S
C150 C146 1.389 . S
C150 H167 0.931 . S
C151 O136 1.266 1_655 S
C151 O137 1.248 . S
C152 Tb88 2.802 . S
C152 O132 1.264 . S
C152 O135 1.256 . S
C152 C145 1.496 . S
C153 C120 1.448 . S
C153 H130 0.930 . S
C153 C154 1.328 . S
C154 C125 1.427 . S
C154 H131 0.929 . S
C154 C153 1.328 . S
C155 O139 1.264 . S
C155 O140 1.243 1_655 S
C156 C159 1.399 . S
C156 C160 1.383 . S
C156 C163 1.496 . S
C157 C158 1.399 . S
C157 C160 1.389 . S
C158 C157 1.399 . S
C158 C161 1.380 . S
C158 H168 0.929 . S
C159 C156 1.399 . S
C159 C161 1.392 . S
C159 H169 0.929 . S
C160 C156 1.383 . S
C160 C157 1.389 . S
C160 H170 0.931 . S
C161 C158 1.380 . S
C161 C159 1.392 . S
C161 H171 0.929 . S
C162 O142 1.266 . S
C162 O143 1.248 . S
C163 Tb99 2.802 . S
C163 O138 1.264 . S
C163 O141 1.256 . S
C163 C156 1.496 . S
H164 C147 0.929 . S
H165 C148 0.929 . S
H166 C149 0.929 . S
H167 C150 0.931 . S
H168 C158 0.929 . S
H169 C159 0.929 . S
H170 C160 0.931 . S
H171 C161 0.929 . S
Tb172 N201 2.617 . S
Tb172 N207 2.572 . S
Tb172 O216 2.465 . S
Tb172 O217 2.387 . S
Tb172 O219 2.428 . S
Tb172 O220 2.308 . S
Tb172 O224 2.349 . S
Tb172 O227 2.393 . S
Tb172 C236 2.802 . S
C173 N174 1.379 . S
C173 C176 1.416 . S
C173 C180 1.424 . S
N174 C173 1.379 . S
N174 C177 1.334 . S
N174 Tb183 2.617 . S
C175 C177 1.390 . S
C175 C178 1.339 . S
C175 H195 0.930 . S
C176 C173 1.416 . S
C176 C178 1.416 . S
C176 C182 1.448 . S
C177 N174 1.334 . S
C177 C175 1.390 . S
C177 H188 0.930 . S
C178 C175 1.339 . S
C178 C176 1.416 . S
C178 H199 0.930 . S
C179 C180 1.413 . S
C179 C181 1.427 . S
C179 C185 1.416 . S
C180 C173 1.424 . S
C180 C179 1.413 . S
C180 N184 1.361 . S
C181 C179 1.427 . S
C181 C182 1.328 . S
C181 H196 0.929 . S
C182 C176 1.448 . S
C182 C181 1.328 . S
C182 H197 0.930 . S
Tb183 N174 2.617 . S
Tb183 N184 2.572 . S
Tb183 O218 2.349 . S
Tb183 O221 2.393 . S
Tb183 O222 2.465 . S
Tb183 O223 2.387 . S
Tb183 O225 2.428 . S
Tb183 O226 2.308 . S
Tb183 C247 2.802 . S
N184 C180 1.361 . S
N184 Tb183 2.572 . S
N184 C186 1.340 . S
C185 C179 1.416 . S
C185 C187 1.332 . S
C185 H193 0.931 . S
C186 N184 1.340 . S
C186 C187 1.407 . S
C186 H192 0.930 . S
C187 C185 1.332 . S
C187 C186 1.407 . S
C187 H189 0.929 . S
H188 C177 0.930 . S
H189 C187 0.929 . S
H190 C205 0.930 . S
H191 C212 0.929 . S
H192 C186 0.930 . S
H193 C185 0.931 . S
H194 C208 0.930 . S
H195 C175 0.930 . S
H196 C181 0.929 . S
H197 C182 0.930 . S
H198 C203 0.930 . S
H199 C178 0.930 . S
H200 C211 0.931 . S
N201 Tb172 2.617 . S
N201 C202 1.379 . S
N201 C205 1.334 . S
C202 N201 1.379 . S
C202 C204 1.416 . S
C202 C210 1.424 . S
C203 H198 0.930 . S
C203 C205 1.390 . S
C203 C206 1.339 . S
C204 C202 1.416 . S
C204 C206 1.416 . S
C204 C237 1.448 . S
C205 H190 0.930 . S
C205 N201 1.334 . S
C205 C203 1.390 . S
C206 C203 1.339 . S
C206 C204 1.416 . S
C206 H213 0.930 . S
N207 Tb172 2.572 . S
N207 C208 1.340 . S
N207 C210 1.361 . S
C208 H194 0.930 . S
C208 N207 1.340 . S
C208 C212 1.407 . S
C209 C210 1.413 . S
C209 C211 1.416 . S
C209 C238 1.427 . S
C210 C202 1.424 . S
C210 N207 1.361 . S
C210 C209 1.413 . S
C211 H200 0.931 . S
C211 C209 1.416 . S
C211 C212 1.332 . S
C212 H191 0.929 . S
C212 C208 1.407 . S
C212 C211 1.332 . S
H213 C206 0.930 . S
H214 C237 0.930 . S
H215 C238 0.929 . S
O216 Tb172 2.465 . S
O216 C236 1.264 . S
O217 Tb172 2.387 . S
O217 C228 1.264 . S
O218 Tb183 2.349 . S
O218 C228 1.243 . S
O219 Tb172 2.428 . S
O219 C236 1.256 . S
O220 Tb172 2.308 . S
O220 C235 1.266 . S
O221 Tb183 2.393 . S
O221 C235 1.248 . S
O222 Tb183 2.465 . S
O222 C247 1.264 . S
O223 Tb183 2.387 . S
O223 C239 1.264 . S
O224 Tb172 2.349 . S
O224 C239 1.243 . S
O225 Tb183 2.428 . S
O225 C247 1.256 . S
O226 Tb183 2.308 . S
O226 C246 1.266 . S
O227 Tb172 2.393 . S
O227 C246 1.248 . S
C228 O217 1.264 . S
C228 O218 1.243 . S
C229 C232 1.399 . S
C229 C234 1.383 . S
C229 C236 1.496 . S
C230 C231 1.399 . S
C230 C234 1.389 . S
C231 C230 1.399 . S
C231 C233 1.380 . S
C231 H248 0.929 . S
C232 C229 1.399 . S
C232 C233 1.392 . S
C232 H249 0.929 . S
C233 C231 1.380 . S
C233 C232 1.392 . S
C233 H250 0.929 . S
C234 C229 1.383 . S
C234 C230 1.389 . S
C234 H251 0.931 . S
C235 O220 1.266 . S
C235 O221 1.248 . S
C236 Tb172 2.802 . S
C236 O216 1.264 . S
C236 O219 1.256 . S
C236 C229 1.496 . S
C237 C204 1.448 . S
C237 H214 0.930 . S
C237 C238 1.328 . S
C238 C209 1.427 . S
C238 H215 0.929 . S
C238 C237 1.328 . S
C239 O223 1.264 . S
C239 O224 1.243 . S
C240 C243 1.399 . S
C240 C244 1.383 . S
C240 C247 1.496 . S
C241 C242 1.399 . S
C241 C244 1.389 . S
C242 C241 1.399 . S
C242 C245 1.380 . S
C242 H252 0.929 . S
C243 C240 1.399 . S
C243 C245 1.392 . S
C243 H253 0.929 . S
C244 C240 1.383 . S
C244 C241 1.389 . S
C244 H254 0.931 . S
C245 C242 1.380 . S
C245 C243 1.392 . S
C245 H255 0.929 . S
C246 O226 1.266 . S
C246 O227 1.248 . S
C247 Tb183 2.802 . S
C247 O222 1.264 . S
C247 O225 1.256 . S
C247 C240 1.496 . S
H248 C231 0.929 . S
H249 C232 0.929 . S
H250 C233 0.929 . S
H251 C234 0.931 . S
H252 C242 0.929 . S
H253 C243 0.929 . S
H254 C244 0.931 . S
H255 C245 0.929 . S
Tb256 N285 2.617 . S
Tb256 N291 2.572 . S
Tb256 O300 2.465 . S
Tb256 O301 2.387 . S
Tb256 O303 2.428 . S
Tb256 O304 2.294 1_455 S
Tb256 O308 2.349 1_455 S
Tb256 O311 2.393 . S
Tb256 C320 2.802 . S
C257 N258 1.379 . S
C257 C260 1.416 . S
C257 C264 1.424 . S
N258 C257 1.379 . S
N258 C261 1.334 . S
N258 Tb267 2.617 . S
C259 C261 1.390 . S
C259 C262 1.339 . S
C259 H279 0.930 . S
C260 C257 1.416 . S
C260 C262 1.416 . S
C260 C266 1.448 . S
C261 N258 1.334 . S
C261 C259 1.390 . S
C261 H272 0.930 . S
C262 C259 1.339 . S
C262 C260 1.416 . S
C262 H283 0.930 . S
C263 C264 1.413 . S
C263 C265 1.427 . S
C263 C269 1.416 . S
C264 C257 1.424 . S
C264 C263 1.413 . S
C264 N268 1.361 . S
C265 C263 1.427 . S
C265 C266 1.328 . S
C265 H280 0.929 . S
C266 C260 1.448 . S
C266 C265 1.328 . S
C266 H281 0.930 . S
Tb267 N258 2.617 . S
Tb267 N268 2.572 . S
Tb267 O302 2.349 1_655 S
Tb267 O305 2.393 . S
Tb267 O306 2.465 . S
Tb267 O307 2.387 . S
Tb267 O309 2.428 . S
Tb267 O310 2.308 1_655 S
Tb267 C331 2.802 . S
N268 C264 1.361 . S
N268 Tb267 2.572 . S
N268 C270 1.340 . S
C269 C263 1.416 . S
C269 C271 1.332 . S
C269 H277 0.931 . S
C270 N268 1.340 . S
C270 C271 1.407 . S
C270 H276 0.930 . S
C271 C269 1.332 . S
C271 C270 1.407 . S
C271 H273 0.929 . S
H272 C261 0.930 . S
H273 C271 0.929 . S
H274 C289 0.930 . S
H275 C296 0.929 . S
H276 C270 0.930 . S
H277 C269 0.931 . S
H278 C292 0.930 . S
H279 C259 0.930 . S
H280 C265 0.929 . S
H281 C266 0.930 . S
H282 C287 0.930 . S
H283 C262 0.930 . S
H284 C295 0.931 . S
N285 Tb256 2.617 . S
N285 C286 1.379 . S
N285 C289 1.334 . S
C286 N285 1.379 . S
C286 C288 1.416 . S
C286 C294 1.424 . S
C287 H282 0.930 . S
C287 C289 1.390 . S
C287 C290 1.339 . S
C288 C286 1.416 . S
C288 C290 1.416 . S
C288 C321 1.448 . S
C289 H274 0.930 . S
C289 N285 1.334 . S
C289 C287 1.390 . S
C290 C287 1.339 . S
C290 C288 1.416 . S
C290 H297 0.930 . S
N291 Tb256 2.572 . S
N291 C292 1.340 . S
N291 C294 1.361 . S
C292 H278 0.930 . S
C292 N291 1.340 . S
C292 C296 1.407 1_565 S
C293 C294 1.413 . S
C293 C295 1.416 1_565 S
C293 C322 1.427 . S
C294 C286 1.424 . S
C294 N291 1.361 . S
C294 C293 1.413 . S
C295 H284 0.931 . S
C295 C293 1.416 1_545 S
C295 C296 1.332 . S
C296 H275 0.929 . S
C296 C292 1.407 1_545 S
C296 C295 1.332 . S
H297 C290 0.930 . S
H298 C321 0.930 . S
H299 C322 0.929 1_545 S
O300 Tb256 2.465 . S
O300 C320 1.264 . S
O301 Tb256 2.387 . S
O301 C312 1.264 . S
O302 Tb267 2.349 1_455 S
O302 C312 1.243 . S
O303 Tb256 2.428 . S
O303 C320 1.256 . S
O304 Tb256 2.294 1_655 S
O304 C319 1.283 . S
O305 Tb267 2.393 . S
O305 C319 1.248 . S
O306 Tb267 2.465 . S
O306 C331 1.264 . S
O307 Tb267 2.387 . S
O307 C323 1.264 . S
O308 Tb256 2.349 1_655 S
O308 C323 1.243 . S
O309 Tb267 2.428 . S
O309 C331 1.256 . S
O310 Tb267 2.308 1_455 S
O310 C330 1.266 . S
O311 Tb256 2.393 . S
O311 C330 1.248 . S
C312 O301 1.264 . S
C312 O302 1.243 . S
C313 C316 1.399 . S
C313 C318 1.383 . S
C313 C320 1.496 . S
C314 C315 1.399 . S
C314 C318 1.389 . S
C315 C314 1.399 . S
C315 C317 1.380 . S
C315 H332 0.929 . S
C316 C313 1.399 . S
C316 C317 1.392 . S
C316 H333 0.929 . S
C317 C315 1.380 . S
C317 C316 1.392 . S
C317 H334 0.929 . S
C318 C313 1.383 . S
C318 C314 1.389 . S
C318 H335 0.931 . S
C319 O304 1.283 . S
C319 O305 1.248 . S
C320 Tb256 2.802 . S
C320 O300 1.264 . S
C320 O303 1.256 . S
C320 C313 1.496 . S
C321 C288 1.448 . S
C321 H298 0.930 . S
C321 C322 1.328 . S
C322 C293 1.427 . S
C322 H299 0.929 1_565 S
C322 C321 1.328 . S
C323 O307 1.264 . S
C323 O308 1.243 . S
C324 C327 1.399 . S
C324 C328 1.383 . S
C324 C331 1.496 . S
C325 C326 1.399 . S
C325 C328 1.389 . S
C326 C325 1.399 . S
C326 C329 1.380 . S
C326 H336 0.929 . S
C327 C324 1.399 . S
C327 C329 1.392 . S
C327 H337 0.929 . S
C328 C324 1.383 . S
C328 C325 1.389 . S
C328 H338 0.931 . S
C329 C326 1.380 . S
C329 C327 1.392 . S
C329 H339 0.929 . S
C330 O310 1.266 . S
C330 O311 1.248 . S
C331 Tb267 2.802 . S
C331 O306 1.264 . S
C331 O309 1.256 . S
C331 C324 1.496 . S
H332 C315 0.929 . S
H333 C316 0.929 . S
H334 C317 0.929 . S
H335 C318 0.931 . S
H336 C326 0.929 . S
H337 C327 0.929 . S
H338 C328 0.931 . S
H339 C329 0.929 . S
Tb340 N369 2.617 . S
Tb340 N375 2.572 . S
Tb340 O384 2.465 . S
Tb340 O385 2.387 . S
Tb340 O387 2.428 . S
Tb340 O388 2.308 . S
Tb340 O392 2.349 . S
Tb340 O395 2.393 . S
Tb340 C404 2.802 . S
C341 N342 1.379 . S
C341 C344 1.416 . S
C341 C348 1.424 . S
N342 C341 1.379 . S
N342 C345 1.334 . S
N342 Tb351 2.617 . S
C343 C345 1.390 . S
C343 C346 1.339 . S
C343 H363 0.930 . S
C344 C341 1.416 . S
C344 C346 1.416 . S
C344 C350 1.448 . S
C345 N342 1.334 . S
C345 C343 1.390 . S
C345 H356 0.930 . S
C346 C343 1.339 . S
C346 C344 1.416 . S
C346 H367 0.930 . S
C347 C348 1.413 . S
C347 C349 1.427 . S
C347 C353 1.416 . S
C348 C341 1.424 . S
C348 C347 1.413 . S
C348 N352 1.361 . S
C349 C347 1.427 . S
C349 C350 1.328 . S
C349 H364 0.929 . S
C350 C344 1.448 . S
C350 C349 1.328 . S
C350 H365 0.930 . S
Tb351 N342 2.617 . S
Tb351 N352 2.572 . S
Tb351 O386 2.349 . S
Tb351 O389 2.393 . S
Tb351 O390 2.465 . S
Tb351 O391 2.387 . S
Tb351 O393 2.428 . S
Tb351 O394 2.308 . S
Tb351 C415 2.802 . S
N352 C348 1.361 . S
N352 Tb351 2.572 . S
N352 C354 1.340 . S
C353 C347 1.416 . S
C353 C355 1.332 . S
C353 H361 0.931 . S
C354 N352 1.340 . S
C354 C355 1.407 . S
C354 H360 0.930 . S
C355 C353 1.332 . S
C355 C354 1.407 . S
C355 H357 0.929 . S
H356 C345 0.930 . S
H357 C355 0.929 . S
H358 C373 0.930 . S
H359 C380 0.929 . S
H360 C354 0.930 . S
H361 C353 0.931 . S
H362 C376 0.930 . S
H363 C343 0.930 . S
H364 C349 0.929 . S
H365 C350 0.930 . S
H366 C371 0.930 . S
H367 C346 0.930 . S
H368 C379 0.931 . S
N369 Tb340 2.617 . S
N369 C370 1.379 . S
N369 C373 1.334 . S
C370 N369 1.379 . S
C370 C372 1.416 . S
C370 C378 1.424 . S
C371 H366 0.930 . S
C371 C373 1.390 . S
C371 C374 1.339 . S
C372 C370 1.416 . S
C372 C374 1.416 . S
C372 C405 1.448 . S
C373 H358 0.930 . S
C373 N369 1.334 . S
C373 C371 1.390 . S
C374 C371 1.339 . S
C374 C372 1.416 . S
C374 H381 0.930 . S
N375 Tb340 2.572 . S
N375 C376 1.340 . S
N375 C378 1.361 . S
C376 H362 0.930 . S
C376 N375 1.340 . S
C376 C380 1.407 . S
C377 C378 1.413 . S
C377 C379 1.416 . S
C377 C406 1.427 . S
C378 C370 1.424 . S
C378 N375 1.361 . S
C378 C377 1.413 . S
C379 H368 0.931 . S
C379 C377 1.416 . S
C379 C380 1.332 . S
C380 H359 0.929 . S
C380 C376 1.407 . S
C380 C379 1.332 . S
H381 C374 0.930 . S
H382 C405 0.930 . S
H383 C406 0.929 . S
O384 Tb340 2.465 . S
O384 C404 1.264 . S
O385 Tb340 2.387 . S
O385 C396 1.264 . S
O386 Tb351 2.349 . S
O386 C396 1.243 . S
O387 Tb340 2.428 . S
O387 C404 1.256 . S
O388 Tb340 2.308 . S
O388 C403 1.266 . S
O389 Tb351 2.393 . S
O389 C403 1.248 . S
O390 Tb351 2.465 . S
O390 C415 1.264 . S
O391 Tb351 2.387 . S
O391 C407 1.264 . S
O392 Tb340 2.349 . S
O392 C407 1.243 . S
O393 Tb351 2.428 . S
O393 C415 1.256 . S
O394 Tb351 2.308 . S
O394 C414 1.266 . S
O395 Tb340 2.393 . S
O395 C414 1.248 . S
C396 O385 1.264 . S
C396 O386 1.243 . S
C397 C400 1.399 . S
C397 C402 1.383 . S
C397 C404 1.496 . S
C398 C399 1.399 . S
C398 C402 1.389 . S
C399 C398 1.399 . S
C399 C401 1.380 . S
C399 H416 0.929 . S
C400 C397 1.399 . S
C400 C401 1.392 . S
C400 H417 0.929 . S
C401 C399 1.380 . S
C401 C400 1.392 . S
C401 H418 0.929 . S
C402 C397 1.383 . S
C402 C398 1.389 . S
C402 H419 0.931 . S
C403 O388 1.266 . S
C403 O389 1.248 . S
C404 Tb340 2.802 . S
C404 O384 1.264 . S
C404 O387 1.256 . S
C404 C397 1.496 . S
C405 C372 1.448 . S
C405 H382 0.930 . S
C405 C406 1.328 . S
C406 C377 1.427 . S
C406 H383 0.929 . S
C406 C405 1.328 . S
C407 O391 1.264 . S
C407 O392 1.243 . S
C408 C411 1.399 . S
C408 C412 1.383 . S
C408 C415 1.496 . S
C409 C410 1.399 . S
C409 C412 1.389 . S
C410 C409 1.399 . S
C410 C413 1.380 . S
C410 H420 0.929 . S
C411 C408 1.399 . S
C411 C413 1.392 . S
C411 H421 0.929 . S
C412 C408 1.383 . S
C412 C409 1.389 . S
C412 H422 0.931 . S
C413 C410 1.380 . S
C413 C411 1.392 . S
C413 H423 0.929 . S
C414 O394 1.266 . S
C414 O395 1.248 . S
C415 Tb351 2.802 . S
C415 O390 1.264 . S
C415 O393 1.256 . S
C415 C408 1.496 . S
H416 C399 0.929 . S
H417 C400 0.929 . S
H418 C401 0.929 . S
H419 C402 0.931 . S
H420 C410 0.929 . S
H421 C411 0.929 . S
H422 C412 0.931 . S
H423 C413 0.929 . S
H424 C430 0.930 . S
H425 C433 0.930 . S
H426 C434 0.930 . S
H427 C435 0.930 . S
H428 C438 0.930 . S
H429 C439 0.930 . S
C430 H424 0.930 . S
C430 C431 1.355 . S
C430 C432 1.415 . S
C431 C430 1.355 . S
C431 C433 1.419 . S
C432 C430 1.415 . S
C432 C437 1.425 . S
C432 C439 1.409 . S
C433 H425 0.930 . S
C433 C431 1.419 . S
C433 C434 1.362 . S
C434 H426 0.930 . S
C434 C433 1.362 . S
C434 C437 1.409 . S
C435 H427 0.930 . S
C435 C436 1.355 . S
C435 C437 1.415 1_545 S
C436 C435 1.355 . S
C436 C438 1.419 . S
C437 C432 1.425 . S
C437 C434 1.409 . S
C437 C435 1.415 1_565 S
C438 H428 0.930 . S
C438 C436 1.419 . S
C438 C439 1.362 1_545 S
C439 H429 0.930 . S
C439 C432 1.409 . S
C439 C438 1.362 1_565 S
H440 C446 0.930 . S
H441 C449 0.930 . S
H442 C450 0.930 . S
H443 C451 0.930 . S
H444 C454 0.930 . S
H445 C455 0.930 . S
C446 H440 0.930 . S
C446 C447 1.355 . S
C446 C448 1.415 . S
C447 C446 1.355 . S
C447 C449 1.419 . S
C448 C446 1.415 . S
C448 C453 1.425 . S
C448 C455 1.409 . S
C449 H441 0.930 . S
C449 C447 1.419 . S
C449 C450 1.362 . S
C450 H442 0.930 . S
C450 C449 1.362 . S
C450 C453 1.409 . S
C451 H443 0.930 . S
C451 C452 1.355 . S
C451 C453 1.415 . S
C452 C451 1.355 . S
C452 C454 1.419 . S
C453 C448 1.425 . S
C453 C450 1.409 . S
C453 C451 1.415 . S
C454 H444 0.930 . S
C454 C452 1.419 . S
C454 C455 1.362 . S
C455 H445 0.930 . S
C455 C448 1.409 . S
C455 C454 1.362 . S
H456 C462 0.930 . S
H457 C465 0.930 . S
H458 C466 0.930 . S
H459 C467 0.930 . S
H460 C470 0.930 . S
H461 C471 0.930 . S
C462 H456 0.930 . S
C462 C463 1.355 . S
C462 C464 1.415 . S
C463 C462 1.355 . S
C463 C465 1.419 . S
C464 C462 1.415 . S
C464 C469 1.425 . S
C464 C471 1.409 . S
C465 H457 0.930 . S
C465 C463 1.419 . S
C465 C466 1.362 . S
C466 H458 0.930 . S
C466 C465 1.362 . S
C466 C469 1.409 . S
C467 H459 0.930 . S
C467 C468 1.355 . S
C467 C469 1.415 . S
C468 C467 1.355 . S
C468 C470 1.419 . S
C469 C464 1.425 . S
C469 C466 1.409 . S
C469 C467 1.415 . S
C470 H460 0.930 . S
C470 C468 1.419 . S
C470 C471 1.362 . S
C471 H461 0.930 . S
C471 C464 1.409 . S
C471 C470 1.362 . S
H472 C478 0.930 . S
H473 C481 0.930 . S
H474 C482 0.930 . S
H475 C483 0.930 . S
H476 C486 0.930 . S
H477 C487 0.930 . S
C478 H472 0.930 . S
C478 C479 1.355 . S
C478 C480 1.415 . S
C479 C478 1.355 . S
C479 C481 1.419 . S
C480 C478 1.415 . S
C480 C485 1.425 . S
C480 C487 1.409 . S
C481 H473 0.930 . S
C481 C479 1.419 . S
C481 C482 1.362 . S
C482 H474 0.930 . S
C482 C481 1.362 . S
C482 C485 1.409 . S
C483 H475 0.930 . S
C483 C484 1.355 . S
C483 C485 1.415 1_545 S
C484 C483 1.355 . S
C484 C486 1.419 . S
C485 C480 1.425 . S
C485 C482 1.409 . S
C485 C483 1.415 1_565 S
C486 H476 0.930 . S
C486 C484 1.419 . S
C486 C487 1.362 1_545 S
C487 H477 0.930 . S
C487 C480 1.409 . S
C487 C486 1.362 1_565 S
H488 C494 0.930 . S
H489 C497 0.930 . S
H490 C498 0.930 1_565 S
H491 C499 0.930 . S
H492 C502 0.930 . S
H493 C503 0.930 . S
C494 H488 0.930 . S
C494 C495 1.355 . S
C494 C496 1.415 . S
C495 C494 1.355 . S
C495 C497 1.419 . S
C496 C494 1.415 . S
C496 C501 1.425 . S
C496 C503 1.409 . S
C497 H489 0.930 . S
C497 C495 1.419 . S
C497 C498 1.362 . S
C498 H490 0.930 1_545 S
C498 C497 1.362 . S
C498 C501 1.409 . S
C499 H491 0.930 . S
C499 C500 1.355 . S
C499 C501 1.415 1_565 S
C500 C499 1.355 . S
C500 C502 1.419 1_565 S
C501 C496 1.425 . S
C501 C498 1.409 . S
C501 C499 1.415 1_545 S
C502 H492 0.930 . S
C502 C500 1.419 1_545 S
C502 C503 1.362 . S
C503 H493 0.930 . S
C503 C496 1.409 . S
C503 C502 1.362 . S
H504 C510 0.930 . S
H505 C513 0.930 . S
H506 C514 0.930 . S
H507 C515 0.930 . S
H508 C518 0.930 . S
H509 C519 0.930 . S
C510 H504 0.930 . S
C510 C511 1.355 . S
C510 C512 1.415 . S
C511 C510 1.355 . S
C511 C513 1.419 . S
C512 C510 1.415 . S
C512 C517 1.425 . S
C512 C519 1.409 . S
C513 H505 0.930 . S
C513 C511 1.419 . S
C513 C514 1.362 . S
C514 H506 0.930 . S
C514 C513 1.362 . S
C514 C517 1.409 . S
C515 H507 0.930 . S
C515 C516 1.355 . S
C515 C517 1.415 . S
C516 C515 1.355 . S
C516 C518 1.419 . S
C517 C512 1.425 . S
C517 C514 1.409 . S
C517 C515 1.415 . S
C518 H508 0.930 . S
C518 C516 1.419 . S
C518 C519 1.362 . S
C519 H509 0.930 . S
C519 C512 1.409 . S
C519 C518 1.362 . S
H520 C526 0.930 . S
H521 C529 0.930 . S
H522 C530 0.930 . S
H523 C531 0.930 . S
H524 C534 0.930 . S
H525 C535 0.930 . S
C526 H520 0.930 . S
C526 C527 1.355 . S
C526 C528 1.415 . S
C527 C526 1.355 . S
C527 C529 1.419 . S
C528 C526 1.415 . S
C528 C533 1.425 . S
C528 C535 1.409 . S
C529 H521 0.930 . S
C529 C527 1.419 . S
C529 C530 1.362 . S
C530 H522 0.930 . S
C530 C529 1.362 . S
C530 C533 1.409 . S
C531 H523 0.930 . S
C531 C532 1.355 . S
C531 C533 1.415 . S
C532 C531 1.355 . S
C532 C534 1.419 . S
C533 C528 1.425 . S
C533 C530 1.409 . S
C533 C531 1.415 . S
C534 H524 0.930 . S
C534 C532 1.419 . S
C534 C535 1.362 . S
C535 H525 0.930 . S
C535 C528 1.409 . S
C535 C534 1.362 . S
H536 C542 0.930 . S
H537 C545 0.930 . S
H538 C546 0.930 . S
H539 C547 0.930 . S
H540 C550 0.930 . S
H541 C551 0.930 . S
C542 H536 0.930 . S
C542 C543 1.355 . S
C542 C544 1.415 . S
C543 C542 1.355 . S
C543 C545 1.419 . S
C544 C542 1.415 . S
C544 C549 1.425 . S
C544 C551 1.409 . S
C545 H537 0.930 . S
C545 C543 1.419 . S
C545 C546 1.362 . S
C546 H538 0.930 . S
C546 C545 1.362 . S
C546 C549 1.409 . S
C547 H539 0.930 . S
C547 C548 1.355 . S
C547 C549 1.415 1_565 S
C548 C547 1.355 . S
C548 C550 1.419 . S
C549 C544 1.425 . S
C549 C546 1.409 . S
C549 C547 1.415 1_545 S
C550 H540 0.930 . S
C550 C548 1.419 . S
C550 C551 1.362 1_565 S
C551 H541 0.930 . S
C551 C544 1.409 . S
C551 C550 1.362 1_545 S
H552 C558 0.930 . S
H553 C561 0.930 . S
H554 C562 0.930 . S
H555 C563 0.930 . S
H556 C566 0.930 . S
H557 C567 0.930 . S
C558 H552 0.930 . S
C558 C559 1.355 . S
C558 C560 1.415 1_556 S
C559 C558 1.355 . S
C559 C561 1.419 . S
C560 C558 1.415 1_554 S
C560 C565 1.425 . S
C560 C567 1.409 . S
C561 H553 0.930 . S
C561 C559 1.419 . S
C561 C562 1.362 1_556 S
C562 H554 0.930 . S
C562 C561 1.362 1_554 S
C562 C565 1.409 . S
C563 H555 0.930 . S
C563 C564 1.355 . S
C563 C565 1.415 . S
C564 C563 1.355 . S
C564 C566 1.419 . S
C565 C560 1.425 . S
C565 C562 1.409 . S
C565 C563 1.415 . S
C566 H556 0.930 . S
C566 C564 1.419 . S
C566 C567 1.362 . S
C567 H557 0.930 . S
C567 C560 1.409 . S
C567 C566 1.362 . S
H568 C574 0.930 . S
H569 C577 0.930 . S
H570 C578 0.930 . S
H571 C579 0.930 . S
H572 C582 0.930 . S
H573 C583 0.930 . S
C574 H568 0.930 . S
C574 C575 1.355 . S
C574 C576 1.415 . S
C575 C574 1.355 . S
C575 C577 1.419 . S
C576 C574 1.415 . S
C576 C581 1.425 . S
C576 C583 1.409 . S
C577 H569 0.930 . S
C577 C575 1.419 . S
C577 C578 1.362 . S
C578 H570 0.930 . S
C578 C577 1.362 . S
C578 C581 1.409 . S
C579 H571 0.930 . S
C579 C580 1.355 . S
C579 C581 1.415 . S
C580 C579 1.355 . S
C580 C582 1.419 . S
C581 C576 1.425 . S
C581 C578 1.409 . S
C581 C579 1.415 . S
C582 H572 0.930 . S
C582 C580 1.419 . S
C582 C583 1.362 . S
C583 H573 0.930 . S
C583 C576 1.409 . S
C583 C582 1.362 . S
H584 C590 0.930 . S
H585 C593 0.930 . S
H586 C594 0.930 . S
H587 C595 0.930 . S
H588 C598 0.930 . S
H589 C599 0.930 . S
C590 H584 0.930 . S
C590 C591 1.355 . S
C590 C592 1.415 1_554 S
C591 C590 1.355 . S
C591 C593 1.419 . S
C592 C590 1.415 1_556 S
C592 C597 1.425 . S
C592 C599 1.409 . S
C593 H585 0.930 . S
C593 C591 1.419 . S
C593 C594 1.362 1_554 S
C594 H586 0.930 . S
C594 C593 1.362 1_556 S
C594 C597 1.409 . S
C595 H587 0.930 . S
C595 C596 1.355 . S
C595 C597 1.415 . S
C596 C595 1.355 . S
C596 C598 1.419 . S
C597 C592 1.425 . S
C597 C594 1.409 . S
C597 C595 1.415 . S
C598 H588 0.930 . S
C598 C596 1.419 . S
C598 C599 1.362 . S
C599 H589 0.930 . S
C599 C592 1.409 . S
C599 C598 1.362 . S
H600 C606 0.930 . S
H601 C609 0.930 . S
H602 C610 0.930 . S
H603 C611 0.930 . S
H604 C614 0.930 . S
H605 C615 0.930 . S
C606 H600 0.930 . S
C606 C607 1.355 . S
C606 C608 1.415 . S
C607 C606 1.355 . S
C607 C609 1.419 . S
C608 C606 1.415 . S
C608 C613 1.425 . S
C608 C615 1.409 . S
C609 H601 0.930 . S
C609 C607 1.419 . S
C609 C610 1.362 . S
C610 H602 0.930 . S
C610 C609 1.362 . S
C610 C613 1.409 . S
C611 H603 0.930 . S
C611 C612 1.355 . S
C611 C613 1.415 . S
C612 C611 1.355 . S
C612 C614 1.419 . S
C613 C608 1.425 . S
C613 C610 1.409 . S
C613 C611 1.415 . S
C614 H604 0.930 . S
C614 C612 1.419 . S
C614 C615 1.362 . S
C615 H605 0.930 . S
C615 C608 1.409 . S
C615 C614 1.362 . S
H616 C622 0.930 . S
H617 C625 0.930 . S
H618 C626 0.930 . S
H619 C627 0.930 . S
H620 C630 0.930 . S
H621 C631 0.920 1_554 S
C622 H616 0.930 . S
C622 C623 1.355 . S
C622 C624 1.432 . S
C623 C622 1.355 . S
C623 C625 1.419 . S
C624 C622 1.432 . S
C624 C629 1.414 1_554 S
C624 C631 1.402 1_554 S
C625 H617 0.930 . S
C625 C623 1.419 . S
C625 C626 1.362 1_554 S
C626 H618 0.930 . S
C626 C625 1.362 1_556 S
C626 C629 1.409 . S
C627 H619 0.930 . S
C627 C628 1.355 . S
C627 C629 1.415 . S
C628 C627 1.355 . S
C628 C630 1.419 . S
C629 C624 1.414 1_556 S
C629 C626 1.409 . S
C629 C627 1.415 . S
C630 H620 0.930 . S
C630 C628 1.419 . S
C630 C631 1.362 . S
C631 H621 0.920 1_556 S
C631 C624 1.402 1_556 S
C631 C630 1.362 . S
H632 C638 0.930 . S
H633 C641 0.930 . S
H634 C642 0.930 . S
H635 C643 0.930 . S
H636 C646 0.930 . S
H637 C647 0.930 . S
C638 H632 0.930 . S
C638 C639 1.355 . S
C638 C640 1.415 . S
C639 C638 1.355 . S
C639 C641 1.419 . S
C640 C638 1.415 . S
C640 C645 1.425 . S
C640 C647 1.409 . S
C641 H633 0.930 . S
C641 C639 1.419 . S
C641 C642 1.362 . S
C642 H634 0.930 . S
C642 C641 1.362 . S
C642 C645 1.409 . S
C643 H635 0.930 . S
C643 C644 1.355 . S
C643 C645 1.415 . S
C644 C643 1.355 . S
C644 C646 1.419 . S
C645 C640 1.425 . S
C645 C642 1.409 . S
C645 C643 1.415 . S
C646 H636 0.930 . S
C646 C644 1.419 . S
C646 C647 1.362 . S
C647 H637 0.930 . S
C647 C640 1.409 . S
C647 C646 1.362 . S
H648 C654 0.930 . S
H649 C657 0.930 . S
H650 C658 0.924 1_554 S
H651 C659 0.930 . S
H652 C662 0.930 . S
H653 C663 0.930 . S
C654 H648 0.930 . S
C654 C655 1.355 . S
C654 C656 1.415 . S
C655 C654 1.355 . S
C655 C657 1.419 . S
C656 C654 1.415 . S
C656 C661 1.425 1_556 S
C656 C663 1.409 1_556 S
C657 H649 0.930 . S
C657 C655 1.419 . S
C657 C658 1.374 . S
C658 H650 0.924 1_556 S
C658 C657 1.374 . S
C658 C661 1.403 1_556 S
C659 H651 0.930 . S
C659 C660 1.355 . S
C659 C661 1.415 . S
C660 C659 1.355 . S
C660 C662 1.419 . S
C661 C656 1.425 1_554 S
C661 C658 1.403 1_554 S
C661 C659 1.415 . S
C662 H652 0.930 . S
C662 C660 1.419 . S
C662 C663 1.362 . S
C663 H653 0.930 . S
C663 C656 1.409 1_554 S
C663 C662 1.362 . S
H664 C670 0.930 . S
H665 C673 0.930 . S
H666 C674 0.930 . S
H667 C675 0.930 . S
H668 C678 0.930 . S
H669 C679 0.930 . S
C670 H664 0.930 . S
C670 C671 1.355 . S
C670 C672 1.415 . S
C671 C670 1.355 . S
C671 C673 1.419 . S
C672 C670 1.415 . S
C672 C677 1.425 . S
C672 C679 1.409 . S
C673 H665 0.930 . S
C673 C671 1.419 . S
C673 C674 1.362 . S
C674 H666 0.930 . S
C674 C673 1.362 . S
C674 C677 1.409 . S
C675 H667 0.930 . S
C675 C676 1.355 . S
C675 C677 1.415 . S
C676 C675 1.355 . S
C676 C678 1.419 . S
C677 C672 1.425 . S
C677 C674 1.409 . S
C677 C675 1.415 . S
C678 H668 0.930 . S
C678 C676 1.419 . S
C678 C679 1.362 . S
C679 H669 0.930 . S
C679 C672 1.409 . S
C679 C678 1.362 . S
H680 C686 0.930 . S
H681 C689 0.930 . S
H682 C690 0.930 . S
H683 C691 0.930 . S
H684 C694 0.930 . S
H685 C695 0.930 . S
C686 H680 0.930 . S
C686 C687 1.355 . S
C686 C688 1.415 . S
C687 C686 1.355 . S
C687 C689 1.419 . S
C688 C686 1.415 . S
C688 C693 1.425 . S
C688 C695 1.409 . S
C689 H681 0.930 . S
C689 C687 1.419 . S
C689 C690 1.362 . S
C690 H682 0.930 . S
C690 C689 1.362 . S
C690 C693 1.409 . S
C691 H683 0.930 . S
C691 C692 1.355 . S
C691 C693 1.415 . S
C692 C691 1.355 . S
C692 C694 1.419 . S
C693 C688 1.425 . S
C693 C690 1.409 . S
C693 C691 1.415 . S
C694 H684 0.930 . S
C694 C692 1.419 . S
C694 C695 1.362 . S
C695 H685 0.930 . S
C695 C688 1.409 . S
C695 C694 1.362 . S
H696 C702 0.930 . S
H697 C705 0.930 . S
H698 C706 0.930 . S
H699 C707 0.930 . S
H700 C710 0.930 . S
H701 C711 0.930 . S
C702 H696 0.930 . S
C702 C703 1.355 . S
C702 C704 1.415 . S
C703 C702 1.355 . S
C703 C705 1.419 . S
C704 C702 1.415 . S
C704 C709 1.425 . S
C704 C711 1.409 . S
C705 H697 0.930 . S
C705 C703 1.419 . S
C705 C706 1.362 . S
C706 H698 0.930 . S
C706 C705 1.362 . S
C706 C709 1.409 . S
C707 H699 0.930 . S
C707 C708 1.355 . S
C707 C709 1.415 . S
C708 C707 1.355 . S
C708 C710 1.419 . S
C709 C704 1.425 . S
C709 C706 1.409 . S
C709 C707 1.415 . S
C710 H700 0.930 . S
C710 C708 1.419 . S
C710 C711 1.362 . S
C711 H701 0.930 . S
C711 C704 1.409 . S
C711 C710 1.362 . S
H712 C718 0.930 . S
H713 C721 0.930 . S
H714 C722 0.930 . S
H715 C723 0.930 . S
H716 C726 0.930 . S
H717 C727 0.930 . S
C718 H712 0.930 . S
C718 C719 1.355 . S
C718 C720 1.415 . S
C719 C718 1.355 . S
C719 C721 1.419 . S
C720 C718 1.415 . S
C720 C725 1.425 . S
C720 C727 1.409 . S
C721 H713 0.930 . S
C721 C719 1.419 . S
C721 C722 1.362 . S
C722 H714 0.930 . S
C722 C721 1.362 . S
C722 C725 1.409 . S
C723 H715 0.930 . S
C723 C724 1.355 . S
C723 C725 1.415 . S
C724 C723 1.355 . S
C724 C726 1.419 . S
C725 C720 1.425 . S
C725 C722 1.409 . S
C725 C723 1.415 . S
C726 H716 0.930 . S
C726 C724 1.419 . S
C726 C727 1.362 . S
C727 H717 0.930 . S
C727 C720 1.409 . S
C727 C726 1.362 . S
H728 C734 0.930 . S
H729 C737 0.930 . S
H730 C738 0.930 . S
H731 C739 0.930 . S
H732 C742 0.930 . S
H733 C743 0.930 . S
C734 H728 0.930 . S
C734 C735 1.355 . S
C734 C736 1.415 . S
C735 C734 1.355 . S
C735 C737 1.419 . S
C736 C734 1.415 . S
C736 C741 1.425 . S
C736 C743 1.409 . S
C737 H729 0.930 . S
C737 C735 1.419 . S
C737 C738 1.362 . S
C738 H730 0.930 . S
C738 C737 1.362 . S
C738 C741 1.409 . S
C739 H731 0.930 . S
C739 C740 1.355 . S
C739 C741 1.415 . S
C740 C739 1.355 . S
C740 C742 1.419 . S
C741 C736 1.425 . S
C741 C738 1.409 . S
C741 C739 1.415 . S
C742 H732 0.930 . S
C742 C740 1.419 . S
C742 C743 1.362 . S
C743 H733 0.930 . S
C743 C736 1.409 . S
C743 C742 1.362 . S
H744 C750 0.930 . S
H745 C753 0.930 . S
H746 C754 0.930 . S
H747 C755 0.930 . S
H748 C758 0.930 1_455 S
H749 C759 0.930 . S
C750 H744 0.930 . S
C750 C751 1.355 . S
C750 C752 1.415 . S
C751 C750 1.355 . S
C751 C753 1.419 . S
C752 C750 1.415 . S
C752 C757 1.425 . S
C752 C759 1.409 . S
C753 H745 0.930 . S
C753 C751 1.419 . S
C753 C754 1.362 . S
C754 H746 0.930 . S
C754 C753 1.362 . S
C754 C757 1.409 . S
C755 H747 0.930 . S
C755 C756 1.355 . S
C755 C757 1.415 . S
C756 C755 1.355 . S
C756 C758 1.419 . S
C757 C752 1.425 . S
C757 C754 1.409 . S
C757 C755 1.415 . S
C758 H748 0.930 1_655 S
C758 C756 1.419 . S
C758 C759 1.362 . S
C759 H749 0.930 . S
C759 C752 1.409 . S
C759 C758 1.362 . S
H760 C766 0.930 . S
H761 C769 0.930 . S
H762 C770 0.930 . S
H763 C771 0.930 . S
H764 C774 0.930 . S
H765 C775 0.930 . S
C766 H760 0.930 . S
C766 C767 1.355 . S
C766 C768 1.415 . S
C767 C766 1.355 . S
C767 C769 1.419 . S
C768 C766 1.415 . S
C768 C773 1.425 . S
C768 C775 1.409 . S
C769 H761 0.930 . S
C769 C767 1.419 . S
C769 C770 1.362 . S
C770 H762 0.930 . S
C770 C769 1.362 . S
C770 C773 1.409 . S
C771 H763 0.930 . S
C771 C772 1.355 . S
C771 C773 1.415 . S
C772 C771 1.355 . S
C772 C774 1.419 . S
C773 C768 1.425 . S
C773 C770 1.409 . S
C773 C771 1.415 . S
C774 H764 0.930 . S
C774 C772 1.419 . S
C774 C775 1.362 . S
C775 H765 0.930 . S
C775 C768 1.409 . S
C775 C774 1.362 . S
H776 C782 0.930 . S
H777 C785 0.930 . S
H778 C786 0.930 . S
H779 C787 0.930 . S
H780 C790 0.930 . S
H781 C791 0.930 . S
C782 H776 0.930 . S
C782 C783 1.355 . S
C782 C784 1.415 . S
C783 C782 1.355 . S
C783 C785 1.419 . S
C784 C782 1.415 . S
C784 C789 1.425 . S
C784 C791 1.409 . S
C785 H777 0.930 . S
C785 C783 1.419 . S
C785 C786 1.362 . S
C786 H778 0.930 . S
C786 C785 1.362 . S
C786 C789 1.409 . S
C787 H779 0.930 . S
C787 C788 1.355 . S
C787 C789 1.415 . S
C788 C787 1.355 . S
C788 C790 1.419 . S
C789 C784 1.425 . S
C789 C786 1.409 . S
C789 C787 1.415 . S
C790 H780 0.930 . S
C790 C788 1.419 . S
C790 C791 1.362 . S
C791 H781 0.930 . S
C791 C784 1.409 . S
C791 C790 1.362 . S
H792 C798 0.930 . S
H793 C801 0.930 . S
H794 C802 0.930 . S
H795 C803 0.930 . S
H796 C806 0.930 . S
H797 C807 0.930 . S
C798 H792 0.930 . S
C798 C799 1.355 . S
C798 C800 1.415 . S
C799 C798 1.355 . S
C799 C801 1.419 . S
C800 C798 1.415 . S
C800 C805 1.425 . S
C800 C807 1.409 . S
C801 H793 0.930 . S
C801 C799 1.419 . S
C801 C802 1.362 . S
C802 H794 0.930 . S
C802 C801 1.362 . S
C802 C805 1.409 . S
C803 H795 0.930 . S
C803 C804 1.355 . S
C803 C805 1.415 . S
C804 C803 1.355 . S
C804 C806 1.419 . S
C805 C800 1.425 . S
C805 C802 1.409 . S
C805 C803 1.415 . S
C806 H796 0.930 . S
C806 C804 1.419 . S
C806 C807 1.362 . S
C807 H797 0.930 . S
C807 C800 1.409 . S
C807 C806 1.362 . S
C431 C71 1.644 . S
C436 C162 1.620 . S
C452 C246 1.631 . S
C447 C81 1.617 . S
C468 C239 1.640 . S
C463 C49 1.638 . S
C479 C59 1.629 . S
C484 C155 1.631 . S
C500 C319 1.623 . S
C495 C27 1.646 . S
C516 C403 1.673 . S
C511 C38 1.677 . S
C527 C5 1.646 . S
C532 C396 1.659 . S
C543 C16 1.670 . S
C548 C312 1.685 . S
C564 C146 1.359 . S
C559 C15 1.551 . S
C580 C230 1.460 . S
C575 C4 1.581 . S
C596 C241 1.386 . S
C591 C37 1.554 . S
C612 C157 1.397 . S
C607 C26 1.581 . S
C628 C325 1.466 . S
C623 C60 1.622 . S
C639 C48 1.619 . S
C644 C409 1.408 . S
C660 C398 1.380 . S
C655 C82 1.600 . S
C671 C70 1.637 . S
C676 C314 1.468 . S
C692 C144 1.494 . S
C687 C10 1.485 . S
C708 C228 1.527 . S
C703 C21 1.512 . S
C719 C32 1.490 . S
C724 C235 1.429 . S
C740 C151 1.479 . S
C735 C43 1.530 . S
C756 C323 1.574 . S
C751 C54 1.540 . S
C767 C65 1.533 . S
C772 C407 1.535 . S
C783 C76 1.547 . S
C788 C414 1.547 . S
C799 C87 1.520 . S
C804 C330 1.526 . S
