# Generated by pormake.
# Topology eea, (3,6)-cn, num edge types: 1
# Building blocks:
#     Node 0, Type 0, BuildingBlock: PAMTOO_clean_linker_0, # of connection points: 3
#     Node 1, Type 0, BuildingBlock: PAMTOO_clean_linker_0, # of connection points: 3
#     Node 2, Type 0, BuildingBlock: PAMTOO_clean_linker_0, # of connection points: 3
#     Node 3, Type 0, BuildingBlock: PAMTOO_clean_linker_0, # of connection points: 3
#     Node 4, Type 0, BuildingBlock: PAMTOO_clean_linker_0, # of connection points: 3
#     Node 5, Type 0, BuildingBlock: PAMTOO_clean_linker_0, # of connection points: 3
#     Node 6, Type 0, BuildingBlock: PAMTOO_clean_linker_0, # of connection points: 3
#     Node 7, Type 0, BuildingBlock: PAMTOO_clean_linker_0, # of connection points: 3
#     Node 8, Type 0, BuildingBlock: PAMTOO_clean_linker_0, # of connection points: 3
#     Node 9, Type 0, BuildingBlock: PAMTOO_clean_linker_0, # of connection points: 3
#     Node 10, Type 0, BuildingBlock: PAMTOO_clean_linker_0, # of connection points: 3
#     Node 11, Type 0, BuildingBlock: PAMTOO_clean_linker_0, # of connection points: 3
#     Node 12, Type 0, BuildingBlock: PAMTOO_clean_linker_0, # of connection points: 3
#     Node 13, Type 0, BuildingBlock: PAMTOO_clean_linker_0, # of connection points: 3
#     Node 14, Type 0, BuildingBlock: PAMTOO_clean_linker_0, # of connection points: 3
#     Node 15, Type 0, BuildingBlock: PAMTOO_clean_linker_0, # of connection points: 3
#     Node 16, Type 0, BuildingBlock: PAMTOO_clean_linker_0, # of connection points: 3
#     Node 17, Type 0, BuildingBlock: PAMTOO_clean_linker_0, # of connection points: 3
#     Node 18, Type 1, BuildingBlock: KUMBOL_clean_sbu_0, # of connection points: 6
#     Node 19, Type 1, BuildingBlock: KUMBOL_clean_sbu_0, # of connection points: 6
#     Node 20, Type 1, BuildingBlock: KUMBOL_clean_sbu_0, # of connection points: 6
#     Node 21, Type 1, BuildingBlock: KUMBOL_clean_sbu_0, # of connection points: 6
#     Node 22, Type 1, BuildingBlock: KUMBOL_clean_sbu_0, # of connection points: 6
#     Node 23, Type 1, BuildingBlock: KUMBOL_clean_sbu_0, # of connection points: 6
#     Node 24, Type 1, BuildingBlock: KUMBOL_clean_sbu_0, # of connection points: 6
#     Node 25, Type 1, BuildingBlock: KUMBOL_clean_sbu_0, # of connection points: 6
#     Node 26, Type 1, BuildingBlock: KUMBOL_clean_sbu_0, # of connection points: 6
#     Edge 27, Type (0, 1), BuildingBlock: CIFDUS_clean_linker_0, # of connection points: 2
#     Edge 28, Type (0, 1), BuildingBlock: CIFDUS_clean_linker_0, # of connection points: 2
#     Edge 29, Type (0, 1), BuildingBlock: CIFDUS_clean_linker_0, # of connection points: 2
#     Edge 30, Type (0, 1), BuildingBlock: CIFDUS_clean_linker_0, # of connection points: 2
#     Edge 31, Type (0, 1), BuildingBlock: CIFDUS_clean_linker_0, # of connection points: 2
#     Edge 32, Type (0, 1), BuildingBlock: CIFDUS_clean_linker_0, # of connection points: 2
#     Edge 33, Type (0, 1), BuildingBlock: CIFDUS_clean_linker_0, # of connection points: 2
#     Edge 34, Type (0, 1), BuildingBlock: CIFDUS_clean_linker_0, # of connection points: 2
#     Edge 35, Type (0, 1), BuildingBlock: CIFDUS_clean_linker_0, # of connection points: 2
#     Edge 36, Type (0, 1), BuildingBlock: CIFDUS_clean_linker_0, # of connection points: 2
#     Edge 37, Type (0, 1), BuildingBlock: CIFDUS_clean_linker_0, # of connection points: 2
#     Edge 38, Type (0, 1), BuildingBlock: CIFDUS_clean_linker_0, # of connection points: 2
#     Edge 39, Type (0, 1), BuildingBlock: CIFDUS_clean_linker_0, # of connection points: 2
#     Edge 40, Type (0, 1), BuildingBlock: CIFDUS_clean_linker_0, # of connection points: 2
#     Edge 41, Type (0, 1), BuildingBlock: CIFDUS_clean_linker_0, # of connection points: 2
#     Edge 42, Type (0, 1), BuildingBlock: CIFDUS_clean_linker_0, # of connection points: 2
#     Edge 43, Type (0, 1), BuildingBlock: CIFDUS_clean_linker_0, # of connection points: 2
#     Edge 44, Type (0, 1), BuildingBlock: CIFDUS_clean_linker_0, # of connection points: 2
#     Edge 45, Type (0, 1), BuildingBlock: CIFDUS_clean_linker_0, # of connection points: 2
#     Edge 46, Type (0, 1), BuildingBlock: CIFDUS_clean_linker_0, # of connection points: 2
#     Edge 47, Type (0, 1), BuildingBlock: CIFDUS_clean_linker_0, # of connection points: 2
#     Edge 48, Type (0, 1), BuildingBlock: CIFDUS_clean_linker_0, # of connection points: 2
#     Edge 49, Type (0, 1), BuildingBlock: CIFDUS_clean_linker_0, # of connection points: 2
#     Edge 50, Type (0, 1), BuildingBlock: CIFDUS_clean_linker_0, # of connection points: 2
#     Edge 51, Type (0, 1), BuildingBlock: CIFDUS_clean_linker_0, # of connection points: 2
#     Edge 52, Type (0, 1), BuildingBlock: CIFDUS_clean_linker_0, # of connection points: 2
#     Edge 53, Type (0, 1), BuildingBlock: CIFDUS_clean_linker_0, # of connection points: 2
#     Edge 54, Type (0, 1), BuildingBlock: CIFDUS_clean_linker_0, # of connection points: 2
#     Edge 55, Type (0, 1), BuildingBlock: CIFDUS_clean_linker_0, # of connection points: 2
#     Edge 56, Type (0, 1), BuildingBlock: CIFDUS_clean_linker_0, # of connection points: 2
#     Edge 57, Type (0, 1), BuildingBlock: CIFDUS_clean_linker_0, # of connection points: 2
#     Edge 58, Type (0, 1), BuildingBlock: CIFDUS_clean_linker_0, # of connection points: 2
#     Edge 59, Type (0, 1), BuildingBlock: CIFDUS_clean_linker_0, # of connection points: 2
#     Edge 60, Type (0, 1), BuildingBlock: CIFDUS_clean_linker_0, # of connection points: 2
#     Edge 61, Type (0, 1), BuildingBlock: CIFDUS_clean_linker_0, # of connection points: 2
#     Edge 62, Type (0, 1), BuildingBlock: CIFDUS_clean_linker_0, # of connection points: 2
#     Edge 63, Type (0, 1), BuildingBlock: CIFDUS_clean_linker_0, # of connection points: 2
#     Edge 64, Type (0, 1), BuildingBlock: CIFDUS_clean_linker_0, # of connection points: 2
#     Edge 65, Type (0, 1), BuildingBlock: CIFDUS_clean_linker_0, # of connection points: 2
#     Edge 66, Type (0, 1), BuildingBlock: CIFDUS_clean_linker_0, # of connection points: 2
#     Edge 67, Type (0, 1), BuildingBlock: CIFDUS_clean_linker_0, # of connection points: 2
#     Edge 68, Type (0, 1), BuildingBlock: CIFDUS_clean_linker_0, # of connection points: 2
#     Edge 69, Type (0, 1), BuildingBlock: CIFDUS_clean_linker_0, # of connection points: 2
#     Edge 70, Type (0, 1), BuildingBlock: CIFDUS_clean_linker_0, # of connection points: 2
#     Edge 71, Type (0, 1), BuildingBlock: CIFDUS_clean_linker_0, # of connection points: 2
#     Edge 72, Type (0, 1), BuildingBlock: CIFDUS_clean_linker_0, # of connection points: 2
#     Edge 73, Type (0, 1), BuildingBlock: CIFDUS_clean_linker_0, # of connection points: 2
#     Edge 74, Type (0, 1), BuildingBlock: CIFDUS_clean_linker_0, # of connection points: 2
#     Edge 75, Type (0, 1), BuildingBlock: CIFDUS_clean_linker_0, # of connection points: 2
#     Edge 76, Type (0, 1), BuildingBlock: CIFDUS_clean_linker_0, # of connection points: 2
#     Edge 77, Type (0, 1), BuildingBlock: CIFDUS_clean_linker_0, # of connection points: 2
#     Edge 78, Type (0, 1), BuildingBlock: CIFDUS_clean_linker_0, # of connection points: 2
#     Edge 79, Type (0, 1), BuildingBlock: CIFDUS_clean_linker_0, # of connection points: 2
#     Edge 80, Type (0, 1), BuildingBlock: CIFDUS_clean_linker_0, # of connection points: 2
# Relax obj value: 0.023
# Max RMSD: 0.173
# Mean RMSD: 0.123
data_MOF--net-eea--node1-KUMBOL_clean_sbu_0--node2-PAMTOO_clean_linker_0--edge1-CIFDUS_clean_linker_0
_symmetry_space_group_name_H-M    P1
_symmetry_Int_Tables_number       1
_symmetry_cell_setting            triclinic
loop_
_symmetry_equiv_pos_as_xyz
'x, y, z'
_cell_length_a     47.037435
_cell_length_b     48.625771
_cell_length_c     59.34863
_cell_angle_alpha  90.018866
_cell_angle_beta   89.620595
_cell_angle_gamma 120.14425
loop_
_atom_site_label
_atom_site_type_symbol
_atom_site_fract_x
_atom_site_fract_y
_atom_site_fract_z
_atom_type_partial_charge
H0 H 0.27404 0.08367 0.42674 0.0
H1 H 0.27079 0.17063 0.4259 0.0
H2 H 0.22518 0.10267 0.37291 0.0
H3 H 0.25397 0.16737 0.35664 0.0
C4 C 0.2543 0.17954 0.3726 0.0
O5 O 0.23653 0.15722 0.38895 0.0
H6 H 0.28039 0.19452 0.37786 0.0
C7 C 0.26627 0.09893 0.4189 0.0
C8 C 0.2488 0.08963 0.39853 0.0
C9 C 0.27466 0.12826 0.42884 0.0
C10 C 0.265 0.14813 0.41834 0.0
C11 C 0.24713 0.13875 0.3983 0.0
C12 C 0.23924 0.10972 0.38835 0.0
H13 H 0.96554 0.18902 0.43566 0.0
H14 H 0.88199 0.09415 0.43128 0.0
H15 H 0.95285 0.13082 0.3775 0.0
H16 H 0.88507 0.09 0.36033 0.0
C17 C 0.87319 0.07835 0.37656 0.0
O18 O 0.89715 0.0821 0.39164 0.0
H19 H 0.85978 0.09027 0.38297 0.0
C20 C 0.95143 0.16694 0.42654 0.0
C21 C 0.96289 0.16309 0.40538 0.0
C22 C 0.92257 0.14199 0.43635 0.0
C23 C 0.90467 0.1134 0.42436 0.0
C24 C 0.91533 0.10954 0.40313 0.0
C25 C 0.94468 0.13411 0.39387 0.0
H26 H 0.83334 0.77734 0.4349 0.0
H27 H 0.93304 0.79564 0.4331 0.0
H28 H 0.89467 0.82242 0.37702 0.0
H29 H 0.94848 0.80729 0.36259 0.0
C30 C 0.95651 0.80658 0.38004 0.0
O31 O 0.9475 0.82386 0.394 0.0
H32 H 0.94383 0.78123 0.38555 0.0
C33 C 0.85668 0.78603 0.42626 0.0
C34 C 0.86036 0.79899 0.40455 0.0
C35 C 0.8823 0.78405 0.43685 0.0
C36 C 0.91284 0.79697 0.4256 0.0
C37 C 0.91752 0.81109 0.40421 0.0
C38 C 0.89123 0.81211 0.39369 0.0
H39 H 0.07313 0.24509 0.60462 0.0
H40 H 0.15688 0.23174 0.60831 0.0
H41 H 0.07951 0.18715 0.65735 0.0
H42 H 0.14688 0.20203 0.67712 0.0
C43 C 0.15973 0.20957 0.66057 0.0
O44 O 0.13684 0.19501 0.64356 0.0
H45 H 0.17095 0.23589 0.65947 0.0
C46 C 0.0861 0.23479 0.61287 0.0
C47 C 0.0721 0.21539 0.6322 0.0
C48 C 0.11682 0.24116 0.60412 0.0
C49 C 0.1335 0.22759 0.61488 0.0
C50 C 0.12025 0.20826 0.63398 0.0
C51 C 0.08952 0.20206 0.64253 0.0
H52 H 0.76742 0.83123 0.59999 0.0
H53 H 0.78898 0.92734 0.61086 0.0
H54 H 0.81983 0.88297 0.65929 0.0
H55 H 0.80758 0.93118 0.68171 0.0
C56 C 0.80341 0.94027 0.66561 0.0
O57 O 0.82002 0.93496 0.64846 0.0
H58 H 0.77639 0.92713 0.66256 0.0
C59 C 0.77816 0.85248 0.61023 0.0
C60 C 0.79415 0.85337 0.63051 0.0
C61 C 0.77552 0.87874 0.6031 0.0
C62 C 0.79003 0.90655 0.61616 0.0
C63 C 0.80613 0.90793 0.63618 0.0
C64 C 0.80799 0.88148 0.6434 0.0
H65 H 0.1979 0.93786 0.59328 0.0
H66 H 0.10463 0.85203 0.60076 0.0
H67 H 0.139 0.92239 0.65313 0.0
H68 H 0.08769 0.85662 0.67286 0.0
C69 C 0.08534 0.84547 0.65611 0.0
O70 O 0.08965 0.8673 0.63953 0.0
H71 H 0.10502 0.83911 0.65504 0.0
C72 C 0.17604 0.92321 0.60331 0.0
C73 C 0.17227 0.93383 0.6246 0.0
C74 C 0.15202 0.8938 0.59467 0.0
C75 C 0.12344 0.87469 0.60734 0.0
C76 C 0.11847 0.88519 0.62823 0.0
C77 C 0.14286 0.91472 0.63684 0.0
H78 H 0.9288 0.40056 0.774 0.0
H79 H 0.9255 0.48712 0.76848 0.0
H80 H 0.87217 0.41154 0.72158 0.0
H81 H 0.90325 0.47903 0.7005 0.0
C82 C 0.9069 0.49165 0.71679 0.0
O83 O 0.88803 0.46962 0.73313 0.0
H84 H 0.93347 0.50351 0.72111 0.0
C85 C 0.91954 0.41439 0.76582 0.0
C86 C 0.89869 0.40171 0.74711 0.0
C87 C 0.92944 0.44512 0.7737 0.0
C88 C 0.91843 0.46346 0.76256 0.0
C89 C 0.8982 0.45147 0.74368 0.0
C90 C 0.8883 0.42068 0.73597 0.0
H91 H 0.62785 0.52165 0.77069 0.0
H92 H 0.55071 0.42379 0.76578 0.0
H93 H 0.61627 0.46895 0.70979 0.0
H94 H 0.54786 0.42231 0.69434 0.0
C95 C 0.53824 0.41037 0.71088 0.0
O96 O 0.56445 0.41606 0.72447 0.0
H97 H 0.52415 0.42087 0.71854 0.0
C98 C 0.61514 0.49967 0.76128 0.0
C99 C 0.62565 0.49871 0.73915 0.0
C100 C 0.58822 0.4729 0.77125 0.0
C101 C 0.5715 0.44477 0.75857 0.0
C102 C 0.58144 0.44333 0.73646 0.0
C103 C 0.60881 0.47015 0.7269 0.0
H104 H 0.49737 0.10042 0.76975 0.0
H105 H 0.59606 0.11639 0.76491 0.0
H106 H 0.55623 0.14483 0.71063 0.0
H107 H 0.60726 0.12913 0.69321 0.0
C108 C 0.61577 0.12656 0.71009 0.0
O109 O 0.60914 0.14412 0.72556 0.0
H110 H 0.60154 0.10086 0.71467 0.0
C111 C 0.52015 0.10875 0.76046 0.0
C112 C 0.52306 0.12206 0.73888 0.0
C113 C 0.54605 0.10632 0.77025 0.0
C114 C 0.57583 0.11828 0.75805 0.0
C115 C 0.57976 0.13232 0.73668 0.0
C116 C 0.55337 0.1344 0.72721 0.0
H117 H 0.75729 0.58396 0.93282 0.0
H118 H 0.8421 0.57412 0.9442 0.0
H119 H 0.76491 0.53965 0.9937 0.0
H120 H 0.82096 0.51264 0.96333 0.0
C121 C 0.82726 0.52183 0.98086 0.0
O122 O 0.8241 0.5485 0.98365 0.0
H123 H 0.8096 0.50293 0.99247 0.0
C124 C 0.77036 0.57551 0.94305 0.0
C125 C 0.75681 0.56082 0.96403 0.0
C126 C 0.80115 0.58062 0.93559 0.0
C127 C 0.81832 0.57045 0.9494 0.0
C128 C 0.80536 0.55552 0.97012 0.0
C129 C 0.77438 0.55032 0.97733 0.0
H130 H 0.43596 0.15457 0.92063 0.0
H131 H 0.45234 0.24947 0.92736 0.0
H132 H 0.47717 0.20782 0.98176 0.0
H133 H 0.45142 0.2522 0.99742 0.0
C134 C 0.45396 0.26307 0.9805 0.0
O135 O 0.47593 0.25835 0.96787 0.0
H136 H 0.42927 0.25135 0.97251 0.0
C137 C 0.44413 0.17582 0.93067 0.0
C138 C 0.4571 0.17771 0.95232 0.0
C139 C 0.44226 0.20151 0.92154 0.0
C140 C 0.45394 0.22955 0.93404 0.0
C141 C 0.46625 0.23162 0.9557 0.0
C142 C 0.46789 0.20587 0.96483 0.0
H143 H 0.86499 0.27395 0.94027 0.0
H144 H 0.77065 0.1885 0.93646 0.0
H145 H 0.7901 0.25465 0.99015 0.0
H146 H 0.74947 0.19244 1.0068 0.0
C147 C 0.74151 0.1789 0.99077 0.0
O148 O 0.74676 0.19973 0.9732 0.0
H149 H 0.75675 0.16752 0.98807 0.0
C150 C 0.84041 0.25903 0.94693 0.0
C151 C 0.83064 0.26832 0.96667 0.0
C152 C 0.81904 0.2306 0.93561 0.0
C153 C 0.78735 0.21077 0.9446 0.0
C154 C 0.7772 0.21928 0.96444 0.0
C155 C 0.79862 0.24816 0.97516 0.0
H156 H 0.58442 0.72105 0.09773 0.0
H157 H 0.58296 0.80886 0.09904 0.0
H158 H 0.53745 0.74359 0.04457 0.0
H159 H 0.56833 0.80737 0.02983 0.0
C160 C 0.56844 0.81984 0.04558 0.0
O161 O 0.54947 0.79775 0.06181 0.0
H162 H 0.5944 0.83395 0.05132 0.0
C163 C 0.57778 0.73721 0.09002 0.0
C164 C 0.56045 0.72877 0.06957 0.0
C165 C 0.58636 0.7661 0.10083 0.0
C166 C 0.57636 0.7863 0.09124 0.0
C167 C 0.55854 0.77794 0.0711 0.0
C168 C 0.55055 0.74927 0.06038 0.0
H169 H 0.28018 0.86228 0.10256 0.0
H170 H 0.2037 0.76421 0.09843 0.0
H171 H 0.27613 0.80501 0.04573 0.0
H172 H 0.20673 0.74942 0.02785 0.0
C173 C 0.19692 0.74499 0.04537 0.0
O174 O 0.22264 0.75306 0.06012 0.0
H175 H 0.1859 0.76038 0.04807 0.0
C176 C 0.26873 0.83973 0.09377 0.0
C177 C 0.28205 0.83714 0.07302 0.0
C178 C 0.24035 0.81373 0.10306 0.0
C179 C 0.22547 0.78461 0.09154 0.0
C180 C 0.23818 0.78142 0.07098 0.0
C181 C 0.26663 0.80758 0.06178 0.0
H182 H 0.17472 0.44461 0.10285 0.0
H183 H 0.26766 0.44728 0.10475 0.0
H184 H 0.24323 0.48541 0.04751 0.0
H185 H 0.28998 0.46616 0.032 0.0
C186 C 0.29209 0.457 0.04869 0.0
O187 O 0.28833 0.47487 0.06541 0.0
H188 H 0.27185 0.43175 0.04972 0.0
C189 C 0.19816 0.45088 0.0951 0.0
C190 C 0.20588 0.46537 0.07367 0.0
C191 C 0.22028 0.44452 0.10672 0.0
C192 C 0.25027 0.45199 0.09618 0.0
C193 C 0.25868 0.46679 0.0749 0.0
C194 C 0.23667 0.47395 0.06389 0.0
H195 H 0.41111 0.92235 0.27152 0.0
H196 H 0.49711 0.9126 0.27733 0.0
H197 H 0.41822 0.86636 0.32514 0.0
H198 H 0.4832 0.87832 0.34699 0.0
C199 C 0.49684 0.89093 0.33146 0.0
O200 O 0.47688 0.87664 0.31303 0.0
H201 H 0.50277 0.9161 0.33316 0.0
C202 C 0.42472 0.91297 0.28009 0.0
C203 C 0.41101 0.89381 0.29944 0.0
C204 C 0.4559 0.92001 0.27183 0.0
C205 C 0.47329 0.90784 0.28342 0.0
C206 C 0.45991 0.88873 0.30259 0.0
C207 C 0.42864 0.88145 0.31043 0.0
H208 H 0.12565 0.50854 0.26366 0.0
H209 H 0.12577 0.59721 0.26251 0.0
H210 H 0.16047 0.57169 0.32074 0.0
H211 H 0.11909 0.60146 0.33121 0.0
C212 C 0.12244 0.61356 0.3147 0.0
O213 O 0.14793 0.61355 0.30306 0.0
H214 H 0.09902 0.60032 0.3052 0.0
C215 C 0.13112 0.53069 0.27162 0.0
C216 C 0.14483 0.53773 0.29338 0.0
C217 C 0.12362 0.5517 0.26035 0.0
C218 C 0.13093 0.58038 0.27085 0.0
C219 C 0.14384 0.58723 0.29256 0.0
C220 C 0.151 0.56618 0.30374 0.0
H221 H 0.53631 0.60354 0.2702 0.0
H222 H 0.44085 0.5196 0.27311 0.0
H223 H 0.46847 0.59207 0.32351 0.0
H224 H 0.41651 0.53288 0.343 0.0
C225 C 0.41477 0.51855 0.32793 0.0
O226 O 0.4207 0.53711 0.30884 0.0
H227 H 0.43395 0.51168 0.32981 0.0
C228 C 0.51288 0.58961 0.27875 0.0
C229 C 0.50613 0.60145 0.29845 0.0
C230 C 0.48996 0.56007 0.26965 0.0
C231 C 0.45884 0.54248 0.27989 0.0
C232 C 0.45099 0.55419 0.29918 0.0
C233 C 0.47458 0.58367 0.30836 0.0
Gd234 Gd 0.52121 0.02138 0.04565 0.0
Gd235 Gd 0.49798 0.98574 0.98853 0.0
C236 C 0.39806 0.89651 0.978 0.0
C237 C 0.41352 0.85706 0.96867 0.0
C238 C 0.45555 0.91182 0.97593 0.0
C239 C 0.43159 0.91969 0.97993 0.0
C240 C 0.44687 0.88063 0.96964 0.0
C241 C 0.38914 0.86498 0.97288 0.0
C242 C 0.37458 0.90589 0.98072 0.0
C243 C 0.38487 0.9379 0.98443 0.0
N244 N 0.44115 0.95041 0.98466 0.0
C245 C 0.41846 0.96004 0.98604 0.0
H246 H 0.42602 0.98464 0.98905 0.0
C247 C 0.51191 0.92977 0.96979 0.0
N248 N 0.48745 0.93526 0.97679 0.0
C249 C 0.50459 0.89917 0.96353 0.0
C250 C 0.47195 0.87436 0.96378 0.0
H251 H 0.5372 0.94884 0.96972 0.0
H252 H 0.36349 0.84675 0.97156 0.0
H253 H 0.59374 0.02407 0.05066 0.0
H254 H 0.34856 0.8888 0.97947 0.0
H255 H 0.36695 0.94553 0.98615 0.0
H256 H 0.40632 0.83285 0.9641 0.0
H257 H 0.47859 0.05737 0.05898 0.0
H258 H 0.66836 0.1205 0.0622 0.0
H259 H 0.6519 0.06401 0.05667 0.0
H260 H 0.60726 0.17458 0.07035 0.0
H261 H 0.5241 0.89472 0.95858 0.0
H262 H 0.46632 0.8507 0.95887 0.0
H263 H 0.6515 0.16173 0.06695 0.0
H264 H 0.48942 0.11127 0.0685 0.0
N265 N 0.57721 0.05752 0.05224 0.0
C266 C 0.64271 0.10302 0.05962 0.0
C267 C 0.63351 0.07116 0.05657 0.0
C268 C 0.61856 0.11178 0.05999 0.0
C269 C 0.58556 0.0881 0.05643 0.0
C270 C 0.60042 0.04853 0.05317 0.0
N271 N 0.52922 0.0715 0.05603 0.0
C272 C 0.56076 0.09532 0.05845 0.0
C273 C 0.50971 0.10713 0.06564 0.0
C274 C 0.54209 0.13223 0.06716 0.0
C275 C 0.50366 0.07663 0.06034 0.0
C276 C 0.56811 0.12642 0.06389 0.0
H277 H 0.54671 0.15582 0.07132 0.0
O278 O 0.49225 0.00839 0.07658 0.0
O279 O 0.48339 0.9825 0.02456 0.0
O280 O 0.48381 0.02369 0.99544 0.0
O281 O 0.52129 0.05743 0.02199 0.0
O282 O 0.46622 1.00239 0.04742 0.0
O283 O 0.53575 1.004 0.07465 0.0
O284 O 0.5254 0.9998 0.95691 0.0
O285 O 0.53658 0.02302 0.00995 0.0
O286 O 0.53766 0.98526 0.03951 0.0
O287 O 0.50522 0.95168 0.01049 0.0
O288 O 0.55244 1.00377 0.98526 0.0
O289 O 0.48169 1.0033 0.96049 0.0
C290 C 0.45742 0.9801 0.03273 0.0
C291 C 0.60106 0.15045 0.06639 0.0
C292 C 0.62625 0.14314 0.06444 0.0
C293 C 0.51202 1.00174 0.0875 0.0
C294 C 0.52095 0.015 0.11044 0.0
C295 C 0.54423 0.04719 0.11348 0.0
C296 C 0.50556 0.99561 0.12947 0.0
C297 C 0.51342 0.00835 0.1515 0.0
C298 C 0.552 0.06 0.13508 0.0
C299 C 0.53673 0.04088 0.15392 0.0
C300 C 0.50053 0.05183 1.00538 0.0
C301 C 0.56186 0.02438 1.00123 0.0
C302 C 0.50485 0.00616 0.94681 0.0
C303 C 0.49455 0.99269 0.92397 0.0
C304 C 0.47768 0.95962 0.92114 0.0
C305 C 0.50159 0.01259 0.90486 0.0
C306 C 0.49136 0.99922 0.88316 0.0
C307 C 0.46813 0.94637 0.8998 0.0
C308 C 0.47488 0.96589 0.88099 0.0
C309 C 0.52522 0.95834 0.0279 0.0
H310 H 0.55628 0.06245 0.09916 0.0
H311 H 0.48777 0.97066 0.12709 0.0
H312 H 0.56984 0.08496 0.13725 0.0
H313 H 0.54292 0.05179 0.17041 0.0
H314 H 0.47193 0.94396 0.93542 0.0
H315 H 0.51431 0.03818 0.90693 0.0
H316 H 0.45531 0.92079 0.89783 0.0
H317 H 0.46717 0.95482 0.86462 0.0
Gd318 Gd 1.00365 0.4925 0.04786 0.0
Gd319 Gd 0.04338 0.50469 0.99209 0.0
C320 C 0.14054 0.50683 0.9816 0.0
C321 C 0.17798 0.56263 0.97297 0.0
C322 C 0.12006 0.54362 0.97998 0.0
C323 C 0.11453 0.51321 0.98371 0.0
C324 C 0.1517 0.56856 0.97418 0.0
C325 C 0.17241 0.53182 0.97668 0.0
C326 C 0.13357 0.4754 0.98392 0.0
C327 C 0.10114 0.45116 0.98745 0.0
N328 N 0.08342 0.48959 0.98833 0.0
C329 C 0.07614 0.45867 0.98929 0.0
H330 H 0.05118 0.43978 0.99213 0.0
C331 C 0.09762 0.57731 0.97557 0.0
N332 N 0.09412 0.54854 0.9813 0.0
C333 C 0.12858 0.60284 0.96983 0.0
C334 C 0.15582 0.59855 0.96937 0.0
H335 H 0.07665 0.58075 0.97611 0.0
H336 H 0.19277 0.52745 0.97522 0.0
H337 H 1.00471 0.56235 0.04514 0.0
H338 H 0.15288 0.46952 0.9825 0.0
H339 H 0.09539 0.4267 0.98885 0.0
H340 H 0.20255 0.58154 0.96873 0.0
H341 H 0.96245 0.41853 0.06818 0.0
H342 H 0.9062 0.54392 0.05187 0.0
H343 H 0.96556 0.58175 0.0464 0.0
H344 H 0.84442 0.43218 0.06774 0.0
H345 H 0.13145 0.62581 0.96583 0.0
H346 H 0.17977 0.61836 0.96489 0.0
H347 H 0.86098 0.48784 0.05926 0.0
H348 H 0.90531 0.37819 0.07843 0.0
N349 N 0.96812 0.51364 0.04962 0.0
C350 C 0.92334 0.53521 0.05145 0.0
C351 C 0.95683 0.55663 0.04841 0.0
C352 C 0.91251 0.5029 0.0545 0.0
C353 C 0.93585 0.49279 0.05369 0.0
C354 C 0.97903 0.54543 0.04772 0.0
N355 N 0.95012 0.45343 0.05879 0.0
C356 C 0.92648 0.46155 0.05823 0.0
C357 C 0.91088 0.4015 0.07265 0.0
C358 C 0.88586 0.40887 0.0708 0.0
C359 C 0.94317 0.42437 0.0669 0.0
C360 C 0.89361 0.43944 0.06399 0.0
H361 H 0.86089 0.39118 0.07537 0.0
O362 O 1.01325 0.47886 0.08053 0.0
O363 O 0.04485 0.49354 0.02836 0.0
O364 O 1.0063 0.45236 0.99806 0.0
O365 O 0.96999 0.44979 0.02628 0.0
O366 O 0.02195 0.45798 0.0522 0.0
O367 O 0.02152 0.52639 0.07539 0.0
O368 O 0.03077 0.51597 0.95969 0.0
O369 O 1.00189 0.50155 0.01175 0.0
O370 O 0.0437 0.5449 0.04146 0.0
O371 O 0.07914 0.54285 0.01489 0.0
O372 O 0.01918 0.53508 0.98699 0.0
O373 O 0.03045 0.47145 0.9644 0.0
C374 C 0.04532 0.47021 0.03744 0.0
C375 C 0.8699 0.44891 0.06365 0.0
C376 C 0.87934 0.48061 0.05888 0.0
C377 C 0.02075 0.50588 0.08987 0.0
C378 C 1.00472 0.50394 0.11161 0.0
C379 C 0.97081 0.4924 0.11287 0.0
C380 C 0.02348 0.5136 0.13135 0.0
C381 C 1.00843 0.51159 0.15237 0.0
C382 C 0.95567 0.49008 0.1336 0.0
C383 C 0.97425 0.4995 0.15325 0.0
C384 C 0.97739 0.43767 1.00862 0.0
C385 C 0.99661 0.52163 1.00221 0.0
C386 C 0.02681 0.49003 0.95029 0.0
C387 C 0.04131 0.49367 0.92778 0.0
C388 C 0.07545 0.50947 0.92446 0.0
C389 C 0.02037 0.48191 0.90919 0.0
C390 C 0.03329 0.48612 0.88723 0.0
C391 C 0.08849 0.5137 0.90269 0.0
C392 C 0.06759 0.50224 0.88412 0.0
C393 C 0.07273 0.55769 0.03098 0.0
H394 H 0.95604 0.48516 0.0979 0.0
H395 H 0.0498 0.52307 0.13024 0.0
H396 H 0.92942 0.48091 0.13444 0.0
H397 H 0.96178 0.49706 0.16916 0.0
H398 H 0.09194 0.51867 0.9386 0.0
H399 H 0.99397 0.47001 0.91183 0.0
H400 H 0.11487 0.52596 0.90019 0.0
H401 H 0.0782 0.50564 0.86739 0.0
Gd402 Gd 0.51341 0.50921 0.98917 0.0
Gd403 Gd 0.5388 0.50139 0.0466 0.0
C404 C 0.63421 0.49953 0.05626 0.0
C405 C 0.61401 0.44572 0.06998 0.0
C406 C 0.5758 0.46415 0.06162 0.0
C407 C 0.60155 0.49327 0.05493 0.0
C408 C 0.58178 0.44043 0.07004 0.0
C409 C 0.64021 0.47525 0.06306 0.0
C410 C 0.65986 0.53035 0.05164 0.0
C411 C 0.65263 0.55428 0.04691 0.0
N412 N 0.59482 0.51631 0.04895 0.0
C413 C 0.61982 0.54692 0.046 0.0
H414 H 0.61471 0.56568 0.04222 0.0
C415 C 0.52005 0.4347 0.0728 0.0
N416 N 0.54518 0.46023 0.06198 0.0
C417 C 0.52456 0.41026 0.08111 0.0
C418 C 0.55544 0.41283 0.07931 0.0
H419 H 0.49623 0.43282 0.07435 0.0
H420 H 0.6651 0.47946 0.06389 0.0
H421 H 0.43941 0.44214 0.99269 0.0
H422 H 0.68528 0.53614 0.0524 0.0
H423 H 0.67229 0.57839 0.04385 0.0
H424 H 0.61908 0.42763 0.07608 0.0
H425 H 0.55509 0.58328 0.96874 0.0
H426 H 0.36503 0.46598 0.98012 0.0
H427 H 0.38104 0.42606 0.98939 0.0
H428 H 0.42657 0.57675 0.96107 0.0
H429 H 0.50429 0.38955 0.08898 0.0
H430 H 0.55899 0.39404 0.08597 0.0
H431 H 0.38224 0.52239 0.96989 0.0
H432 H 0.54405 0.6255 0.95611 0.0
N433 N 0.4568 0.4911 0.98583 0.0
C434 C 0.39082 0.47325 0.98149 0.0
C435 C 0.39977 0.45064 0.98669 0.0
C436 C 0.41528 0.50484 0.97766 0.0
C437 C 0.44849 0.51308 0.97983 0.0
C438 C 0.43304 0.45994 0.98854 0.0
N439 N 0.5049 0.55012 0.97596 0.0
C440 C 0.47334 0.54362 0.97488 0.0
C441 C 0.52394 0.60262 0.96143 0.0
C442 C 0.49169 0.59682 0.96126 0.0
C443 C 0.5301 0.57869 0.9685 0.0
C444 C 0.46584 0.56685 0.96764 0.0
H445 H 0.48695 0.61533 0.95565 0.0
O446 O 0.53755 0.52016 0.9563 0.0
O447 O 0.55151 0.50649 0.0098 0.0
O448 O 0.55863 0.5529 0.03615 0.0
O449 O 0.52203 0.55198 0.00955 0.0
O450 O 0.56825 0.54055 0.98465 0.0
O451 O 0.49565 0.47349 0.9628 0.0
O452 O 0.51217 0.49683 0.07776 0.0
O453 O 0.50116 0.50371 0.0256 0.0
O454 O 0.49587 0.45722 0.99772 0.0
O455 O 0.52407 0.45506 0.02959 0.0
O456 O 0.48349 0.47172 0.05181 0.0
O457 O 0.56154 0.53614 0.07348 0.0
C458 C 0.57721 0.52769 0.99992 0.0
C459 C 0.43284 0.55915 0.96639 0.0
C460 C 0.4076 0.52819 0.97138 0.0
C461 C 0.51674 0.49258 0.94778 0.0
C462 C 0.50333 0.49306 0.92545 0.0
C463 C 0.47875 0.50116 0.92358 0.0
C464 C 0.51483 0.48516 0.90587 0.0
C465 C 0.50151 0.48509 0.88458 0.0
C466 C 0.46581 0.50155 0.90262 0.0
C467 C 0.47703 0.4936 0.88327 0.0
C468 C 0.54463 0.56668 0.02518 0.0
C469 C 0.47505 0.48376 0.03562 0.0
C470 C 0.53688 0.52087 0.08737 0.0
C471 C 0.54449 0.51467 0.11023 0.0
C472 C 0.56515 0.50195 0.11318 0.0
C473 C 0.52959 0.51978 0.1292 0.0
C474 C 0.53494 0.51179 0.15106 0.0
C475 C 0.57011 0.49346 0.13458 0.0
C476 C 0.55496 0.49802 0.15334 0.0
C477 C 0.50467 0.4419 0.01207 0.0
H478 H 0.46948 0.50712 0.93829 0.0
H479 H 0.53362 0.47858 0.90728 0.0
H480 H 0.44695 0.50801 0.90137 0.0
H481 H 0.46673 0.49444 0.86719 0.0
H482 H 0.57724 0.4983 0.09894 0.0
H483 H 0.51417 0.53022 0.12687 0.0
H484 H 0.58566 0.48314 0.13663 0.0
H485 H 0.55888 0.49056 0.16964 0.0
Gd486 Gd 0.18655 0.3674 0.38338 0.0
Gd487 Gd 0.1646 0.3313 0.32638 0.0
C488 C 0.07042 0.23642 0.31537 0.0
C489 C 0.09173 0.20149 0.30586 0.0
C490 C 0.12919 0.25749 0.31336 0.0
C491 C 0.10288 0.26195 0.31754 0.0
C492 C 0.12397 0.22744 0.30684 0.0
C493 C 0.06499 0.20597 0.31016 0.0
C494 C 0.04447 0.24252 0.31766 0.0
C495 C 0.05134 0.2737 0.32098 0.0
N496 N 0.10909 0.29179 0.32213 0.0
C497 C 0.08401 0.29826 0.3228 0.0
H498 H 0.08898 0.32221 0.32547 0.0
C499 C 0.18645 0.28098 0.30722 0.0
N500 N 0.15991 0.28313 0.31428 0.0
C501 C 0.18256 0.25166 0.30064 0.0
C502 C 0.15123 0.22465 0.30078 0.0
H503 H 0.21074 0.30173 0.30729 0.0
H504 H 0.04022 0.18597 0.30869 0.0
H505 H 0.26106 0.3731 0.38459 0.0
H506 H 0.01916 0.22355 0.3162 0.0
H507 H 0.0315 0.27882 0.32224 0.0
H508 H 0.0872 0.1781 0.30115 0.0
H509 H 0.14238 0.40103 0.39852 0.0
H510 H 0.33309 0.46867 0.40066 0.0
H511 H 0.31858 0.41365 0.39112 0.0
H512 H 0.26902 0.51871 0.41411 0.0
H513 H 0.20373 0.24987 0.2956 0.0
H514 H 0.14828 0.20197 0.29568 0.0
H515 H 0.31441 0.50779 0.409 0.0
H516 H 0.15156 0.45349 0.41042 0.0
N517 N 0.24248 0.40454 0.38995 0.0
C518 C 0.30761 0.45085 0.39788 0.0
C519 C 0.29951 0.41983 0.39253 0.0
C520 C 0.28266 0.45837 0.39993 0.0
C521 C 0.2499 0.43433 0.39597 0.0
C522 C 0.26665 0.39679 0.38887 0.0
N523 N 0.19335 0.4164 0.39566 0.0
C524 C 0.22451 0.44049 0.39881 0.0
C525 C 0.17232 0.4502 0.40713 0.0
C526 C 0.20434 0.4756 0.40956 0.0
C527 C 0.16722 0.42049 0.40044 0.0
C528 C 0.23094 0.47083 0.40571 0.0
H529 H 0.20824 0.49857 0.41484 0.0
O530 O 0.1573 0.35192 0.41424 0.0
O531 O 0.14908 0.3275 0.36248 0.0
O532 O 0.1455 0.3651 0.33341 0.0
O533 O 0.1804 0.40106 0.36034 0.0
O534 O 0.13208 0.34831 0.38515 0.0
O535 O 0.20101 0.34817 0.41133 0.0
O536 O 0.19204 0.3477 0.29485 0.0
O537 O 0.20131 0.37072 0.34747 0.0
O538 O 0.20601 0.33378 0.3762 0.0
O539 O 0.1729 0.29842 0.34837 0.0
O540 O 0.22005 0.35421 0.32302 0.0
O541 O 0.1452 0.34546 0.29825 0.0
C542 C 0.12331 0.32588 0.37061 0.0
C543 C 0.26356 0.49517 0.40897 0.0
C544 C 0.28938 0.48895 0.40608 0.0
C545 C 0.17681 0.34425 0.42438 0.0
C546 C 0.18487 0.35468 0.44803 0.0
C547 C 0.20775 0.38644 0.45292 0.0
C548 C 0.16927 0.33285 0.46589 0.0
C549 C 0.17664 0.34268 0.48861 0.0
C550 C 0.21505 0.39639 0.47524 0.0
C551 C 0.19968 0.37483 0.49292 0.0
C552 C 0.15908 0.39307 0.34365 0.0
C553 C 0.22778 0.37512 0.33865 0.0
C554 C 0.16938 0.35079 0.28465 0.0
C555 C 0.16049 0.33676 0.26189 0.0
C556 C 0.13819 0.30416 0.25944 0.0
C557 C 0.17525 0.35559 0.24248 0.0
C558 C 0.16821 0.34162 0.22085 0.0
C559 C 0.13096 0.29033 0.23812 0.0
C560 C 0.14594 0.30881 0.21899 0.0
C561 C 0.19412 0.30656 0.36506 0.0
H562 H 0.21989 0.40354 0.43949 0.0
H563 H 0.15175 0.30825 0.46206 0.0
H564 H 0.23262 0.42102 0.47888 0.0
H565 H 0.20553 0.38354 0.51003 0.0
H566 H 0.12647 0.28933 0.27401 0.0
H567 H 0.19266 0.38077 0.24424 0.0
H568 H 0.11376 0.26513 0.23642 0.0
H569 H 0.13987 0.29747 0.20262 0.0
Gd570 Gd 0.66137 0.83284 0.38178 0.0
Gd571 Gd 0.6944 0.84271 0.32379 0.0
C572 C 0.78962 0.84132 0.31179 0.0
C573 C 0.8275 0.89607 0.30076 0.0
C574 C 0.77032 0.87893 0.30915 0.0
C575 C 0.7643 0.84867 0.31399 0.0
C576 C 0.80175 0.90278 0.30189 0.0
C577 C 0.82145 0.86539 0.30572 0.0
C578 C 0.78196 0.80984 0.31511 0.0
C579 C 0.74949 0.78644 0.31966 0.0
N580 N 0.7332 0.82596 0.3196 0.0
C581 C 0.7252 0.7949 0.32159 0.0
H582 H 0.70028 0.77662 0.3253 0.0
C583 C 0.7483 0.91247 0.30244 0.0
N584 N 0.7448 0.88443 0.31017 0.0
C585 C 0.77908 0.93698 0.29526 0.0
C586 C 0.80605 0.93229 0.2953 0.0
H587 H 0.72752 0.91622 0.3026 0.0
H588 H 0.84132 0.8603 0.3042 0.0
H589 H 0.65356 0.89798 0.38127 0.0
H590 H 0.80073 0.80323 0.31366 0.0
H591 H 0.74318 0.76191 0.32184 0.0
H592 H 0.85194 0.91417 0.29547 0.0
H593 H 0.62989 0.75813 0.4003 0.0
H594 H 0.55436 0.87006 0.3987 0.0
H595 H 0.61053 0.91179 0.38773 0.0
H596 H 0.50623 0.75921 0.4162 0.0
H597 H 0.78199 0.95948 0.28976 0.0
H598 H 0.82984 0.95127 0.28966 0.0
H599 H 0.51548 0.81297 0.40902 0.0
H600 H 0.57674 0.71425 0.41433 0.0
N601 N 0.6221 0.84861 0.38796 0.0
C602 C 0.5732 0.86381 0.39591 0.0
C603 C 0.60489 0.88744 0.38977 0.0
C604 C 0.56641 0.83253 0.39886 0.0
C605 C 0.59177 0.82564 0.39487 0.0
C606 C 0.62928 0.87946 0.38611 0.0
N607 N 0.61205 0.79022 0.39597 0.0
C608 C 0.58657 0.79548 0.39899 0.0
C609 C 0.57913 0.73694 0.40999 0.0
C610 C 0.55223 0.74154 0.41225 0.0
C611 C 0.60919 0.76183 0.40212 0.0
C612 C 0.55586 0.77123 0.40706 0.0
H613 H 0.52901 0.72226 0.41846 0.0
O614 O 0.67829 0.8232 0.41318 0.0
O615 O 0.70124 0.83587 0.35981 0.0
O616 O 0.65785 0.79043 0.33267 0.0
O617 O 0.6243 0.79158 0.36136 0.0
O618 O 0.68472 0.80189 0.38458 0.0
O619 O 0.67997 0.8682 0.40834 0.0
O620 O 0.67873 0.85248 0.29191 0.0
O621 O 0.65517 0.84054 0.34577 0.0
O622 O 0.69583 0.88507 0.37282 0.0
O623 O 0.72994 0.88582 0.34379 0.0
O624 O 0.67062 0.87324 0.32003 0.0
O625 O 0.67702 0.80757 0.29702 0.0
C626 C 0.70614 0.81507 0.36864 0.0
C627 C 0.5301 0.77759 0.41018 0.0
C628 C 0.53537 0.8082 0.4061 0.0
C629 C 0.68421 0.84991 0.42235 0.0
C630 C 0.67158 0.84763 0.44543 0.0
C631 C 0.63933 0.84106 0.44929 0.0
C632 C 0.69192 0.85162 0.46384 0.0
C633 C 0.68016 0.84902 0.48611 0.0
C634 C 0.62743 0.83831 0.47125 0.0
C635 C 0.64759 0.84218 0.48955 0.0
C636 C 0.63 0.77703 0.34461 0.0
C637 C 0.65003 0.86099 0.33653 0.0
C638 C 0.67327 0.82592 0.28275 0.0
C639 C 0.68717 0.82861 0.26001 0.0
C640 C 0.7209 0.84027 0.25704 0.0
C641 C 0.66668 0.82002 0.24105 0.0
C642 C 0.67984 0.8232 0.21913 0.0
C643 C 0.73418 0.84376 0.23546 0.0
C644 C 0.71392 0.83544 0.21663 0.0
C645 C 0.72338 0.89963 0.36068 0.0
H646 H 0.62335 0.83804 0.4354 0.0
H647 H 0.71697 0.85707 0.46078 0.0
H648 H 0.60243 0.83304 0.4741 0.0
H649 H 0.63751 0.83941 0.5064 0.0
H650 H 0.73699 0.84677 0.27134 0.0
H651 H 0.64052 0.81055 0.24345 0.0
H652 H 0.76031 0.85305 0.23331 0.0
H653 H 0.72508 0.83893 0.20008 0.0
Gd654 Gd 0.17968 0.85713 0.32814 0.0
Gd655 Gd 0.20252 0.84978 0.38563 0.0
C656 C 0.30672 0.91631 0.41111 0.0
C657 C 0.33681 0.89183 0.39601 0.0
C658 C 0.27809 0.86791 0.38933 0.0
C659 C 0.27777 0.89235 0.40094 0.0
C660 C 0.30751 0.867 0.38715 0.0
C661 C 0.33641 0.91644 0.408 0.0
C662 C 0.30464 0.93854 0.42495 0.0
C663 C 0.27398 0.93543 0.42937 0.0
N664 N 0.24865 0.89133 0.4038 0.0
C665 C 0.246 0.911 0.41911 0.0
H666 H 0.22222 0.90808 0.42308 0.0
C667 C 0.24806 0.81821 0.3713 0.0
N668 N 0.24936 0.84436 0.38091 0.0
C669 C 0.27651 0.8161 0.36892 0.0
C670 C 0.30648 0.84082 0.37658 0.0
H671 H 0.22532 0.7989 0.36519 0.0
H672 H 0.35896 0.93488 0.41542 0.0
H673 H 0.11024 0.78654 0.33047 0.0
H674 H 0.32628 0.95727 0.4331 0.0
H675 H 0.27181 0.95158 0.44085 0.0
H676 H 0.35971 0.89174 0.39423 0.0
H677 H 0.21441 0.93043 0.30637 0.0
H678 H 0.02877 0.80079 0.31948 0.0
H679 H 0.05056 0.76477 0.32692 0.0
H680 H 0.08039 0.91214 0.30264 0.0
H681 H 0.27533 0.79551 0.36097 0.0
H682 H 0.32852 0.83923 0.37455 0.0
H683 H 0.04012 0.85616 0.31119 0.0
H684 H 0.19798 0.9692 0.29439 0.0
N685 N 0.12237 0.83449 0.32515 0.0
C686 C 0.05506 0.81047 0.32087 0.0
C687 C 0.06727 0.79006 0.32501 0.0
C688 C 0.07699 0.84302 0.31796 0.0
C689 C 0.11096 0.85436 0.31996 0.0
C690 C 0.10119 0.80253 0.32703 0.0
N691 N 0.16586 0.89491 0.31562 0.0
C692 C 0.13349 0.88572 0.31522 0.0
C693 C 0.17959 0.94588 0.30037 0.0
C694 C 0.14652 0.93748 0.30133 0.0
C695 C 0.18881 0.92391 0.30711 0.0
C696 C 0.12287 0.90681 0.30829 0.0
H697 H 0.13939 0.95443 0.29591 0.0
O698 O 0.20842 0.87055 0.29698 0.0
O699 O 0.21836 0.85618 0.34953 0.0
O700 O 0.21761 0.90105 0.37911 0.0
O701 O 0.18675 0.90013 0.34795 0.0
O702 O 0.2332 0.89414 0.32736 0.0
O703 O 0.1635 0.8255 0.29926 0.0
O704 O 0.19547 0.8108 0.40729 0.0
O705 O 0.16066 0.83899 0.36268 0.0
O706 O 0.16972 0.80678 0.33311 0.0
O707 O 0.17505 0.80049 0.37149 0.0
O708 O 0.16127 0.85931 0.39355 0.0
O709 O 0.1826 0.84501 0.41949 0.0
C710 C 0.24316 0.88121 0.34185 0.0
C711 C 0.08906 0.89619 0.30762 0.0
C712 C 0.06613 0.86431 0.31244 0.0
C713 C 0.18748 0.84517 0.28624 0.0
C714 C 0.17847 0.84998 0.26346 0.0
C715 C 0.15427 0.8584 0.26048 0.0
C716 C 0.19388 0.84569 0.24447 0.0
C717 C 0.18499 0.84954 0.22253 0.0
C718 C 0.14564 0.86264 0.23886 0.0
C719 C 0.16081 0.85824 0.22001 0.0
C720 C 0.20494 0.91405 0.36592 0.0
C721 C 0.14511 0.84831 0.37515 0.0
C722 C 0.18655 0.82118 0.42464 0.0
C723 C 0.20263 0.82337 0.44639 0.0
C724 C 0.2308 0.82039 0.44763 0.0
C725 C 0.1894 0.82831 0.46632 0.0
C726 C 0.20372 0.82967 0.48734 0.0
C727 C 0.24507 0.82171 0.46845 0.0
C728 C 0.23156 0.82612 0.4882 0.0
C729 C 0.16729 0.78921 0.35084 0.0
H730 H 0.14191 0.86151 0.27481 0.0
H731 H 0.21226 0.83874 0.24679 0.0
H732 H 0.12703 0.86928 0.23669 0.0
H733 H 0.15378 0.86192 0.20343 0.0
H734 H 0.24177 0.81697 0.43256 0.0
H735 H 0.16772 0.83071 0.46549 0.0
H736 H 0.26672 0.81933 0.46928 0.0
H737 H 0.24322 0.82731 0.50414 0.0
Gd738 Gd 0.86062 0.68704 0.71007 0.0
Gd739 Gd 0.83412 0.65942 0.65146 0.0
C740 C 0.73263 0.57063 0.64422 0.0
C741 C 0.74635 0.53202 0.6296 0.0
C742 C 0.78947 0.58632 0.637 0.0
C743 C 0.76636 0.59375 0.64453 0.0
C744 C 0.77965 0.55577 0.62851 0.0
C745 C 0.72286 0.53943 0.63751 0.0
C746 C 0.70971 0.57989 0.6498 0.0
C747 C 0.72061 0.61179 0.65444 0.0
N748 N 0.77671 0.62429 0.65041 0.0
C749 C 0.75433 0.63387 0.65437 0.0
H750 H 0.76224 0.65834 0.65817 0.0
C751 C 0.84365 0.60599 0.62356 0.0
N752 N 0.82119 0.61009 0.63561 0.0
C753 C 0.83529 0.57603 0.61509 0.0
C754 C 0.8033 0.5506 0.61802 0.0
H755 H 0.86842 0.62568 0.62134 0.0
H756 H 0.6971 0.52123 0.63748 0.0
H757 H 0.93247 0.68768 0.70519 0.0
H758 H 0.68359 0.56286 0.64985 0.0
H759 H 0.70306 0.61938 0.65823 0.0
H760 H 0.73836 0.50825 0.62349 0.0
H761 H 0.82202 0.7223 0.7328 0.0
H762 H 1.01038 0.78055 0.72208 0.0
H763 H 0.99146 0.72545 0.70981 0.0
H764 H 0.9539 0.83499 0.74521 0.0
H765 H 0.85349 0.57259 0.60629 0.0
H766 H 0.79677 0.52748 0.61125 0.0
H767 H 0.99615 0.82142 0.73494 0.0
H768 H 0.83594 0.7748 0.74837 0.0
N769 N 0.91765 0.72104 0.71431 0.0
C770 C 0.98432 0.76402 0.72014 0.0
C771 C 0.97373 0.73292 0.71325 0.0
C772 C 0.96112 0.77323 0.72486 0.0
C773 C 0.92751 0.75085 0.72188 0.0
C774 C 0.94012 0.71152 0.71065 0.0
N775 N 0.87172 0.7359 0.72557 0.0
C776 C 0.9038 0.75857 0.72758 0.0
C777 C 0.85525 0.77061 0.74248 0.0
C778 C 0.88812 0.79477 0.7436 0.0
C779 C 0.84746 0.74095 0.73373 0.0
C780 C 0.91292 0.78875 0.73649 0.0
H781 H 0.89412 0.81767 0.75051 0.0
O782 O 0.83358 0.67107 0.74174 0.0
O783 O 0.82209 0.65015 0.68812 0.0
O784 O 0.81977 0.6957 0.66305 0.0
O785 O 0.85597 0.72509 0.69175 0.0
O786 O 0.80597 0.66733 0.71398 0.0
O787 O 0.87692 0.66708 0.73638 0.0
O788 O 0.85787 0.67565 0.6187 0.0
O789 O 0.87297 0.69482 0.67363 0.0
O790 O 0.87522 0.65054 0.69991 0.0
O791 O 0.84795 0.62532 0.66653 0.0
O792 O 0.88921 0.68213 0.64546 0.0
O793 O 0.815 0.67905 0.62679 0.0
C794 C 0.79663 0.64653 0.69812 0.0
C795 C 0.94638 0.81156 0.7386 0.0
C796 C 0.97044 0.80381 0.73279 0.0
C797 C 0.85418 0.66378 0.75068 0.0
C798 C 0.86495 0.67551 0.77379 0.0
C799 C 0.89045 0.70674 0.77728 0.0
C800 C 0.84922 0.65569 0.79256 0.0
C801 C 0.85885 0.66714 0.81475 0.0
C802 C 0.89982 0.71839 0.79904 0.0
C803 C 0.88411 0.69892 0.81761 0.0
C804 C 0.83519 0.72166 0.67561 0.0
C805 C 0.89859 0.70023 0.66295 0.0
C806 C 0.83597 0.68212 0.61112 0.0
C807 C 0.82209 0.66861 0.58887 0.0
C808 C 0.7998 0.63596 0.58699 0.0
C809 C 0.83124 0.68792 0.56938 0.0
C810 C 0.81818 0.67437 0.54814 0.0
C811 C 0.78764 0.62231 0.5661 0.0
C812 C 0.7969 0.64121 0.54682 0.0
C813 C 0.86606 0.62808 0.68432 0.0
H814 H 0.90308 0.7222 0.7632 0.0
H815 H 0.82984 0.63138 0.78982 0.0
H816 H 0.9193 0.74269 0.80153 0.0
H817 H 0.89162 0.70899 0.83427 0.0
H818 H 0.79176 0.62092 0.60166 0.0
H819 H 0.84786 0.7133 0.57084 0.0
H820 H 0.77085 0.59695 0.56486 0.0
H821 H 0.78721 0.62974 0.5308 0.0
Gd822 Gd 0.32686 0.16303 0.70942 0.0
Gd823 Gd 0.36646 0.17403 0.65382 0.0
C824 C 0.45991 0.16792 0.64692 0.0
C825 C 0.5007 0.22231 0.63703 0.0
C826 C 0.44354 0.20755 0.64274 0.0
C827 C 0.43556 0.17674 0.64768 0.0
C828 C 0.47602 0.23052 0.63677 0.0
C829 C 0.49266 0.19105 0.64212 0.0
C830 C 0.45045 0.136 0.65046 0.0
C831 C 0.41729 0.11364 0.65384 0.0
N832 N 0.40366 0.15501 0.65213 0.0
C833 C 0.39403 0.12354 0.65436 0.0
H834 H 0.36855 0.10602 0.65717 0.0
C835 C 0.42473 0.24326 0.63445 0.0
N836 N 0.41901 0.21449 0.64236 0.0
C837 C 0.45659 0.26695 0.62853 0.0
C838 C 0.48246 0.26071 0.63001 0.0
H839 H 0.4048 0.24821 0.63346 0.0
H840 H 0.51178 0.18483 0.64171 0.0
H841 H 0.32094 0.22908 0.71085 0.0
H842 H 0.46841 0.12827 0.65011 0.0
H843 H 0.40962 0.08879 0.6562 0.0
H844 H 0.52589 0.23971 0.63274 0.0
H845 H 0.29181 0.08664 0.72512 0.0
H846 H 0.22017 0.20168 0.72186 0.0
H847 H 0.27807 0.24359 0.71565 0.0
H848 H 0.16774 0.08905 0.7334 0.0
H849 H 0.46119 0.29 0.62288 0.0
H850 H 0.50711 0.27906 0.62533 0.0
H851 H 0.17903 0.14384 0.72798 0.0
H852 H 0.23661 0.04231 0.73525 0.0
N853 N 0.28771 0.17931 0.71379 0.0
C854 C 0.23893 0.19515 0.71982 0.0
C855 C 0.27159 0.21887 0.71636 0.0
C856 C 0.23102 0.16335 0.7212 0.0
C857 C 0.25635 0.15613 0.71833 0.0
C858 C 0.29585 0.21052 0.71362 0.0
N859 N 0.2755 0.11981 0.72015 0.0
C860 C 0.25005 0.12542 0.72167 0.0
C861 C 0.24003 0.06554 0.7314 0.0
C862 C 0.21329 0.07057 0.73203 0.0
C863 C 0.27126 0.0907 0.72574 0.0
C864 C 0.21818 0.1009 0.7275 0.0
H865 H 0.18914 0.05107 0.73652 0.0
O866 O 0.33897 0.15098 0.74177 0.0
O867 O 0.36906 0.1659 0.69026 0.0
O868 O 0.32733 0.12188 0.66113 0.0
O869 O 0.29097 0.12461 0.68649 0.0
O870 O 0.34873 0.1309 0.71418 0.0
O871 O 0.34181 0.19659 0.73708 0.0
O872 O 0.35513 0.18537 0.62092 0.0
O873 O 0.32554 0.17334 0.67318 0.0
O874 O 0.36355 0.21544 0.70231 0.0
O875 O 0.40038 0.21651 0.67522 0.0
O876 O 0.34626 0.20712 0.64807 0.0
O877 O 0.35027 0.13924 0.62687 0.0
C878 C 0.37232 0.14443 0.69969 0.0
C879 C 0.19248 0.10762 0.72915 0.0
C880 C 0.1989 0.13881 0.72604 0.0
C881 C 0.34356 0.17704 0.75132 0.0
C882 C 0.32739 0.17297 0.77331 0.0
C883 C 0.29515 0.16738 0.77499 0.0
C884 C 0.34412 0.17346 0.79291 0.0
C885 C 0.32867 0.16804 0.81412 0.0
C886 C 0.27966 0.16194 0.79598 0.0
C887 C 0.29622 0.16212 0.81547 0.0
C888 C 0.29783 0.10943 0.67085 0.0
C889 C 0.32361 0.1954 0.66335 0.0
C890 C 0.34906 0.15844 0.61207 0.0
C891 C 0.36451 0.16053 0.59004 0.0
C892 C 0.39845 0.1724 0.58819 0.0
C893 C 0.34521 0.15141 0.57053 0.0
C894 C 0.3598 0.15466 0.54917 0.0
C895 C 0.41304 0.1756 0.56707 0.0
C896 C 0.39392 0.16696 0.54764 0.0
C897 C 0.39234 0.23009 0.69152 0.0
H898 H 0.28192 0.16712 0.76017 0.0
H899 H 0.36895 0.17752 0.79161 0.0
H900 H 0.25476 0.15758 0.79715 0.0
H901 H 0.28386 0.15809 0.83162 0.0
H902 H 0.41365 0.17931 0.60299 0.0
H903 H 0.31898 0.14238 0.57193 0.0
H904 H 0.43927 0.18486 0.56577 0.0
H905 H 0.40572 0.16951 0.53142 0.0
Gd906 Gd 0.83665 0.18269 0.65119 0.0
Gd907 Gd 0.86243 0.17443 0.70815 0.0
C908 C 0.96535 0.18923 0.71793 0.0
C909 C 0.9536 0.13593 0.72761 0.0
C910 C 0.90892 0.14627 0.72073 0.0
C911 C 0.93133 0.17784 0.71627 0.0
C912 C 0.91975 0.12515 0.72714 0.0
C913 C 0.97637 0.16792 0.72297 0.0
C914 C 0.98719 0.22183 0.71518 0.0
C915 C 0.97484 0.2423 0.71178 0.0
N916 N 0.91979 0.19779 0.71167 0.0
C917 C 0.94087 0.22986 0.71037 0.0
H918 H 0.93172 0.24593 0.70753 0.0
C919 C 0.85354 0.10724 0.728 0.0
N920 N 0.87645 0.13676 0.72032 0.0
C921 C 0.86305 0.08538 0.73445 0.0
C922 C 0.89626 0.09419 0.73365 0.0
H923 H 0.82782 0.10028 0.72841 0.0
H924 H 1.00242 0.17614 0.72401 0.0
H925 H 0.76596 0.11198 0.65164 0.0
H926 H 1.01351 0.23152 0.71624 0.0
H927 H 0.99149 0.26763 0.7101 0.0
H928 H 0.96243 0.11998 0.7322 0.0
H929 H 0.87242 0.25429 0.62698 0.0
H930 H 0.68596 0.12845 0.64118 0.0
H931 H 0.70662 0.09148 0.64832 0.0
H932 H 0.73983 0.23924 0.62239 0.0
H933 H 0.84476 0.06172 0.73992 0.0
H934 H 0.90357 0.07723 0.73868 0.0
H935 H 0.6986 0.184 0.63211 0.0
H936 H 0.85719 0.29308 0.61313 0.0
N937 N 0.77929 0.16047 0.64714 0.0
C938 C 0.71216 0.13765 0.64262 0.0
C939 C 0.72374 0.11671 0.64656 0.0
C940 C 0.73465 0.17004 0.63961 0.0
C941 C 0.76849 0.18076 0.64177 0.0
C942 C 0.75756 0.12851 0.64842 0.0
N943 N 0.82366 0.22012 0.63683 0.0
C944 C 0.79151 0.2117 0.6364 0.0
C945 C 0.83847 0.27036 0.61981 0.0
C946 C 0.80568 0.26291 0.62076 0.0
C947 C 0.847 0.24834 0.62762 0.0
C948 C 0.78159 0.23297 0.62864 0.0
H949 H 0.79909 0.27993 0.6146 0.0
O950 O 0.86559 0.19462 0.62022 0.0
O951 O 0.87694 0.18422 0.67196 0.0
O952 O 0.87311 0.2249 0.70168 0.0
O953 O 0.84237 0.22497 0.67073 0.0
O954 O 0.89041 0.2199 0.64846 0.0
O955 O 0.8212 0.14914 0.62334 0.0
O956 O 0.83527 0.16016 0.73985 0.0
O957 O 0.8221 0.17313 0.68755 0.0
O958 O 0.8231 0.13167 0.65926 0.0
O959 O 0.85928 0.13451 0.68699 0.0
O960 O 0.80871 0.13753 0.71131 0.0
O961 O 0.87803 0.20701 0.73662 0.0
C962 C 0.90146 0.20835 0.6633 0.0
C963 C 0.74796 0.22312 0.62798 0.0
C964 C 0.72449 0.19167 0.6335 0.0
C965 C 0.84497 0.16856 0.60999 0.0
C966 C 0.83587 0.17255 0.58697 0.0
C967 C 0.81002 0.17862 0.58365 0.0
C968 C 0.854 0.17175 0.56818 0.0
C969 C 0.8467 0.17765 0.54629 0.0
C970 C 0.8026 0.18427 0.56205 0.0
C971 C 0.82085 0.18397 0.54351 0.0
C972 C 0.86041 0.23836 0.68885 0.0
C973 C 0.79767 0.14915 0.69652 0.0
C974 C 0.85521 0.18654 0.75014 0.0
C975 C 0.86556 0.1831 0.77292 0.0
C976 C 0.88776 0.17213 0.77555 0.0
C977 C 0.8525 0.18989 0.79223 0.0
C978 C 0.86136 0.18542 0.81413 0.0
C979 C 0.89636 0.16731 0.79699 0.0
C980 C 0.88317 0.17363 0.81609 0.0
C981 C 0.83819 0.11926 0.67063 0.0
H982 H 0.79568 0.17915 0.59777 0.0
H983 H 0.87413 0.16726 0.57065 0.0
H984 H 0.78266 0.18902 0.55966 0.0
H985 H 0.81452 0.18834 0.5269 0.0
H986 H 0.8983 0.16708 0.76105 0.0
H987 H 0.83576 0.19889 0.79013 0.0
H988 H 0.91321 0.15842 0.79882 0.0
H989 H 0.88988 0.16887 0.83244 0.0
H990 H 0.33791 0.84195 0.05383 0.0
H991 H 0.29195 0.89723 0.06987 0.0
H992 H 0.34108 0.94562 0.0574 0.0
H993 H 0.39857 0.97316 0.04434 0.0
H994 H 0.4457 0.91885 0.02924 0.0
H995 H 0.39491 0.8695 0.03841 0.0
C996 C 0.33851 0.86452 0.05429 0.0
C997 C 0.31129 0.86586 0.06313 0.0
C998 C 0.3672 0.89259 0.04722 0.0
C999 C 0.31266 0.89545 0.06362 0.0
C1000 C 0.34076 0.92321 0.0564 0.0
C1001 C 0.39754 0.95045 0.04279 0.0
C1002 C 0.42576 0.94973 0.03571 0.0
C1003 C 0.36841 0.9222 0.04858 0.0
C1004 C 0.42421 0.92014 0.03414 0.0
C1005 C 0.39517 0.89186 0.03959 0.0
H1006 H 0.14199 0.42258 0.06539 0.0
H1007 H 0.21445 0.52132 0.05582 0.0
H1008 H 0.17186 0.53179 0.04143 0.0
H1009 H 0.11232 0.51348 0.03556 0.0
H1010 H 0.04115 0.4141 0.04486 0.0
H1011 H 0.08465 0.40331 0.05528 0.0
C1012 C 0.14852 0.44634 0.05994 0.0
C1013 C 0.18128 0.47119 0.06196 0.0
C1014 C 0.12396 0.45212 0.05176 0.0
C1015 C 0.18942 0.50177 0.05448 0.0
C1016 C 0.16501 0.50778 0.04638 0.0
C1017 C 0.10656 0.48939 0.0393 0.0
C1018 C 0.07346 0.46452 0.03926 0.0
C1019 C 0.13195 0.48327 0.04546 0.0
C1020 C 0.06636 0.43356 0.04463 0.0
C1021 C 0.09124 0.42737 0.05069 0.0
H1022 H 0.60045 0.70352 0.06594 0.0
H1023 H 0.50477 0.68672 0.04646 0.0
H1024 H 0.49279 0.63661 0.0288 0.0
H1025 H 0.50801 0.59563 0.02132 0.0
H1026 H 0.60206 0.61125 0.04383 0.0
H1027 H 0.61593 0.66352 0.05806 0.0
C1028 C 0.57679 0.68882 0.05807 0.0
C1029 C 0.55344 0.69886 0.05784 0.0
C1030 C 0.5697 0.65968 0.04852 0.0
C1031 C 0.52335 0.6798 0.04685 0.0
C1032 C 0.51637 0.651 0.03685 0.0
C1033 C 0.53167 0.61066 0.02912 0.0
C1034 C 0.55392 0.59951 0.0316 0.0
C1035 C 0.53918 0.64046 0.03788 0.0
C1036 C 0.5844 0.61915 0.04186 0.0
C1037 C 0.59237 0.64906 0.05002 0.0
H1038 H 0.87739 0.32444 0.94759 0.0
H1039 H 0.83755 0.28129 0.01235 0.0
H1040 H 0.87803 0.32997 0.03115 0.0
H1041 H 0.92705 0.38432 0.02923 0.0
H1042 H 0.96855 0.42436 0.96418 0.0
H1043 H 0.9261 0.37705 0.94568 0.0
C1044 C 0.87769 0.32521 0.96584 0.0
C1045 C 0.8543 0.29872 0.97837 0.0
C1046 C 0.90182 0.3528 0.97661 0.0
C1047 C 0.85478 0.30117 1.00206 0.0
C1048 C 0.87824 0.329 0.01291 0.0
C1049 C 0.92668 0.38269 0.01105 0.0
C1050 C 0.95126 0.4079 0.9982 0.0
C1051 C 0.90218 0.3549 1.00037 0.0
C1052 C 0.95047 0.4052 0.97459 0.0
C1053 C 0.92597 0.37817 0.96392 0.0
H1054 H 0.701 0.51006 0.98296 0.0
H1055 H 0.74316 0.60878 0.96424 0.0
H1056 H 0.69239 0.60741 0.97487 0.0
H1057 H 0.635 0.57795 0.98751 0.0
H1058 H 0.5908 0.47902 1.00544 0.0
H1059 H 0.64301 0.48066 0.99743 0.0
C1060 C 0.69911 0.5313 0.98143 0.0
C1061 C 0.72592 0.5594 0.97245 0.0
C1062 C 0.66935 0.53031 0.98744 0.0
C1063 C 0.7229 0.58668 0.97063 0.0
C1064 C 0.69383 0.58598 0.9768 0.0
C1065 C 0.63691 0.55682 0.98988 0.0
C1066 C 0.60923 0.52859 0.99747 0.0
C1067 C 0.66676 0.55787 0.98487 0.0
C1068 C 0.61193 0.50125 1.00011 0.0
C1069 C 0.64176 0.50216 0.99535 0.0
H1070 H 0.5062 0.17987 0.97797 0.0
H1071 H 0.41328 0.11384 0.94768 0.0
H1072 H 0.41874 0.06926 0.9609 0.0
H1073 H 0.45017 0.0488 0.98078 0.0
H1074 H 0.5417 0.11504 0.01255 0.0
H1075 H 0.53602 0.1595 0.99948 0.0
C1076 C 0.48683 0.15576 0.97453 0.0
C1077 C 0.45952 0.15044 0.96162 0.0
C1078 C 0.48982 0.13012 0.9825 0.0
C1079 C 0.43497 0.11886 0.95713 0.0
C1080 C 0.43793 0.09325 0.96482 0.0
C1081 C 0.46886 0.07296 0.98483 0.0
C1082 C 0.49631 0.0785 0.9976 0.0
C1083 C 0.46537 0.09858 0.97738 0.0
C1084 C 0.52018 0.10999 1.00286 0.0
C1085 C 0.51704 0.13551 0.99533 0.0
H1086 H 0.71484 0.11452 0.99272 0.0
H1087 H 0.68781 0.18696 0.99527 0.0
H1088 H 0.62983 0.14604 1.00087 0.0
H1089 H 0.58639 0.08891 1.00348 0.0
H1090 H 0.61472 0.01734 1.00034 0.0
H1091 H 0.67247 0.05847 0.99666 0.0
C1092 C 0.69622 0.12135 0.9943 0.0
C1093 C 0.70549 0.15367 0.99302 0.0
C1094 C 0.66314 0.09776 0.9976 0.0
C1095 C 0.68115 0.16216 0.99567 0.0
C1096 C 0.64806 0.13879 0.99899 0.0
C1097 C 0.60536 0.0825 1.00247 0.0
C1098 C 0.59648 0.05018 1.0027 0.0
C1099 C 0.63868 0.10642 0.99985 0.0
C1100 C 0.62112 0.04209 1.00059 0.0
C1101 C 0.6541 0.06558 0.99834 0.0
H1102 H 0.84595 0.47934 0.99227 0.0
H1103 H 0.88688 0.5792 0.97837 0.0
H1104 H 0.94249 0.58803 0.98376 0.0
H1105 H 0.97998 0.5669 0.99202 0.0
H1106 H 0.9376 0.46634 1.00375 0.0
H1107 H 0.88274 0.45832 0.9996 0.0
C1108 C 0.86704 0.50312 0.99069 0.0
C1109 C 0.86203 0.52863 0.98557 0.0
C1110 C 0.89896 0.50791 0.99336 0.0
C1111 C 0.88978 0.55918 0.98289 0.0
C1112 C 0.92169 0.56421 0.98581 0.0
C1113 C 0.95867 0.5433 0.99373 0.0
C1114 C 0.96313 0.51746 0.99917 0.0
C1115 C 0.92666 0.53872 0.99099 0.0
C1116 C 0.93522 0.48691 1.00064 0.0
C1117 C 0.9036 0.4822 0.99801 0.0
H1118 H 0.45098 0.29462 0.01737 0.0
H1119 H 0.48077 0.30922 0.94756 0.0
H1120 H 0.49775 0.36569 0.95064 0.0
H1121 H 0.50523 0.4114 0.97375 0.0
H1122 H 0.47351 0.39547 0.04313 0.0
H1123 H 0.45629 0.33926 0.03982 0.0
C1124 C 0.46149 0.31028 1.00291 0.0
C1125 C 0.4656 0.29808 0.98249 0.0
C1126 C 0.47085 0.34251 1.00478 0.0
C1127 C 0.47824 0.31833 0.96364 0.0
C1128 C 0.48775 0.35054 0.96537 0.0
C1129 C 0.49431 0.39544 0.98802 0.0
C1130 C 0.49141 0.40756 1.00886 0.0
C1131 C 0.4843 0.36296 0.9859 0.0
C1132 C 0.47712 0.38682 0.02722 0.0
C1133 C 0.46697 0.35462 0.02526 0.0
H1134 H 0.20153 0.6927 0.03499 0.0
H1135 H 0.13324 0.71956 0.06089 0.0
H1136 H 0.089 0.66387 0.06053 0.0
H1137 H 0.06863 0.60757 0.04986 0.0
H1138 H 0.13801 0.58167 0.02411 0.0
H1139 H 0.18242 0.63633 0.02743 0.0
C1140 C 0.17704 0.68622 0.04084 0.0
C1141 C 0.17066 0.71023 0.0478 0.0
C1142 C 0.15167 0.65416 0.04041 0.0
C1143 C 0.13879 0.70153 0.05536 0.0
C1144 C 0.11344 0.66966 0.0551 0.0
C1145 C 0.09354 0.61383 0.04535 0.0
C1146 C 0.09968 0.59044 0.0364 0.0
C1147 C 0.11938 0.64574 0.04724 0.0
C1148 C 0.13226 0.59912 0.03065 0.0
C1149 C 0.15786 0.63049 0.03259 0.0
H1150 H 0.35356 0.50721 0.03818 0.0
H1151 H 0.30474 0.41004 0.06146 0.0
H1152 H 0.35644 0.40965 0.05907 0.0
H1153 H 0.41529 0.43611 0.04887 0.0
H1154 H 0.46514 0.53404 0.02751 0.0
H1155 H 0.41379 0.53505 0.03052 0.0
C1156 C 0.35443 0.48614 0.04301 0.0
C1157 C 0.32523 0.45864 0.04991 0.0
C1158 C 0.38444 0.48608 0.04159 0.0
C1159 C 0.32675 0.4315 0.05609 0.0
C1160 C 0.35633 0.43121 0.05462 0.0
C1161 C 0.41482 0.45762 0.04478 0.0
C1162 C 0.44378 0.48453 0.03698 0.0
C1163 C 0.38523 0.45818 0.04708 0.0
C1164 C 0.44303 0.51257 0.03257 0.0
C1165 C 0.41364 0.51325 0.03456 0.0
H1166 H 0.58914 0.87887 0.0627 0.0
H1167 H 0.51725 0.80891 0.01818 0.0
H1168 H 0.49663 0.845 1.00916 0.0
H1169 H 0.50011 0.89701 0.01343 0.0
H1170 H 0.57329 0.96719 0.05752 0.0
H1171 H 0.592 0.93039 0.0674 0.0
C1172 C 0.56896 0.87161 0.05103 0.0
C1173 C 0.55502 0.8416 0.04081 0.0
C1174 C 0.55748 0.89252 0.04585 0.0
C1175 C 0.52854 0.83213 0.02601 0.0
C1176 C 0.5168 0.85273 0.02087 0.0
C1177 C 0.52038 0.90442 0.02499 0.0
C1178 C 0.53557 0.93516 0.03433 0.0
C1179 C 0.53132 0.88314 0.03053 0.0
C1180 C 0.56119 0.94387 0.04985 0.0
C1181 C 0.572 0.92281 0.05555 0.0
H1182 H 0.97914 0.22457 0.39918 0.0
H1183 H 0.01596 0.16032 0.38894 0.0
H1184 H 0.06841 0.20436 0.375 0.0
H1185 H 0.10564 0.2625 0.36896 0.0
H1186 H 0.06707 0.3256 0.37829 0.0
H1187 H 1.0137 0.2809 0.38919 0.0
C1188 C 0.99864 0.22023 0.39383 0.0
C1189 C 0.99387 0.18936 0.39542 0.0
C1190 C 0.02853 0.24556 0.38566 0.0
C1191 C 0.0191 0.18394 0.38798 0.0
C1192 C 0.04913 0.20913 0.38006 0.0
C1193 C 0.08526 0.26623 0.37282 0.0
C1194 C 0.09021 0.29731 0.37268 0.0
C1195 C 0.05439 0.24022 0.37921 0.0
C1196 C 0.06378 0.30188 0.37817 0.0
C1197 C 0.03328 0.27635 0.38451 0.0
H1198 H 0.85256 0.84666 0.38564 0.0
H1199 H 0.80115 0.74591 0.39933 0.0
H1200 H 0.74937 0.74165 0.388 0.0
H1201 H 0.71749 0.76715 0.37787 0.0
H1202 H 0.76776 0.86777 0.36428 0.0
H1203 H 0.82074 0.87151 0.3716 0.0
C1204 C 0.83012 0.82373 0.38564 0.0
C1205 C 0.83073 0.79669 0.39356 0.0
C1206 C 0.80002 0.82146 0.37933 0.0
C1207 C 0.80133 0.76713 0.39356 0.0
C1208 C 0.77165 0.76467 0.38713 0.0
C1209 C 0.74013 0.7898 0.37622 0.0
C1210 C 0.73865 0.81701 0.37027 0.0
C1211 C 0.7705 0.79177 0.38062 0.0
C1212 C 0.76816 0.8463 0.36843 0.0
C1213 C 0.79853 0.84849 0.37277 0.0
H1214 H 0.22066 0.03231 0.41903 0.0
H1215 H 0.25736 0.0779 0.35465 0.0
H1216 H 0.24517 0.02697 0.33803 0.0
H1217 H 0.22688 0.96967 0.34265 0.0
H1218 H 0.18884 0.92486 0.40706 0.0
H1219 H 0.19898 0.97518 0.42294 0.0
C1220 C 0.22604 0.03106 0.40138 0.0
C1221 C 0.24019 0.05873 0.38814 0.0
C1222 C 0.21893 1.00186 0.39201 0.0
C1223 C 0.24644 0.05678 0.36516 0.0
C1224 C 0.23958 0.02774 0.35568 0.0
C1225 C 0.22046 0.97101 0.36002 0.0
C1226 C 0.208 0.94399 0.3739 0.0
C1227 C 0.22614 1.00013 0.36902 0.0
C1228 C 0.19963 0.94577 0.39638 0.0
C1229 C 0.20513 0.97443 0.4054 0.0
H1230 H 0.50038 0.64861 0.32038 0.0
H1231 H 0.57239 0.62327 0.29944 0.0
H1232 H 0.61657 0.67513 0.3108 0.0
H1233 H 0.63553 0.72883 0.32557 0.0
H1234 H 0.5641 0.75235 0.35057 0.0
H1235 H 0.51941 0.70026 0.33919 0.0
C1236 C 0.52565 0.65414 0.3186 0.0
C1237 C 0.53267 0.63206 0.30827 0.0
C1238 C 0.55135 0.68396 0.32587 0.0
C1239 C 0.56588 0.63999 0.30638 0.0
C1240 C 0.59138 0.66969 0.31309 0.0
C1241 C 0.61018 0.72252 0.32852 0.0
C1242 C 0.60324 0.74468 0.33856 0.0
C1243 C 0.58449 0.6921 0.3225 0.0
C1244 C 0.57022 0.73586 0.34271 0.0
C1245 C 0.54456 0.70601 0.3362 0.0
H1246 H 0.39367 0.93206 0.32206 0.0
H1247 H 0.35413 0.83745 0.29557 0.0
H1248 H 0.29869 0.82415 0.30771 0.0
H1249 H 0.26092 0.84061 0.32389 0.0
H1250 H 0.30047 0.93459 0.35148 0.0
H1251 H 0.35628 0.94708 0.34108 0.0
C1252 C 0.37284 0.90853 0.31907 0.0
C1253 C 0.37779 0.88581 0.30775 0.0
C1254 C 0.34108 0.90097 0.32639 0.0
C1255 C 0.35078 0.8553 0.30414 0.0
C1256 C 0.31913 0.84774 0.31107 0.0
C1257 C 0.28192 0.86347 0.32819 0.0
C1258 C 0.2768 0.88633 0.33912 0.0
C1259 C 0.3139 0.87046 0.32201 0.0
C1260 C 0.30399 0.91639 0.34362 0.0
C1261 C 0.33584 0.92357 0.33753 0.0
H1262 H 0.10647 0.47338 0.29499 0.0
H1263 H 0.19795 0.55076 0.31956 0.0
H1264 H 0.20909 0.51298 0.33916 0.0
H1265 H 0.19422 0.45762 0.34754 0.0
H1266 H 0.10401 0.38066 0.3209 0.0
H1267 H 0.09119 0.41862 0.30381 0.0
C1268 C 0.12904 0.48202 0.30442 0.0
C1269 C 0.15146 0.51485 0.30559 0.0
C1270 C 0.13555 0.46021 0.3153 0.0
C1271 C 0.18015 0.52562 0.31845 0.0
C1272 C 0.18663 0.50403 0.32959 0.0
C1273 C 0.17159 0.44921 0.33821 0.0
C1274 C 0.1502 0.41638 0.3354 0.0
C1275 C 0.16464 0.47122 0.32795 0.0
C1276 C 0.12105 0.40581 0.32316 0.0
C1277 C 0.11367 0.42749 0.31335 0.0
H1278 H 0.35482 0.51281 0.33775 0.0
H1279 H 0.39921 0.45795 0.31687 0.0
H1280 H 0.34578 0.40901 0.31921 0.0
H1281 H 0.28659 0.38149 0.32812 0.0
H1282 H 0.24113 0.43617 0.34677 0.0
H1283 H 0.29449 0.48526 0.3447 0.0
C1284 C 0.35262 0.49012 0.33356 0.0
C1285 C 0.38099 0.48895 0.32736 0.0
C1286 C 0.32168 0.46198 0.3349 0.0
C1287 C 0.37781 0.45944 0.32181 0.0
C1288 C 0.34728 0.43145 0.32323 0.0
C1289 C 0.28847 0.40417 0.33188 0.0
C1290 C 0.26013 0.40502 0.33851 0.0
C1291 C 0.31912 0.43237 0.33 0.0
C1292 C 0.26271 0.43466 0.34256 0.0
C1293 C 0.29323 0.46282 0.34109 0.0
H1294 H 0.50572 0.84033 0.33978 0.0
H1295 H 0.55835 0.93866 0.31919 0.0
H1296 H 0.61017 0.93822 0.31926 0.0
H1297 H 0.64093 0.91025 0.32631 0.0
H1298 H 0.588 0.81132 0.34521 0.0
H1299 H 0.5362 0.81149 0.34479 0.0
C1300 C 0.52856 0.86154 0.33517 0.0
C1301 C 0.52829 0.8896 0.32974 0.0
C1302 C 0.5583 0.86107 0.33521 0.0
C1303 C 0.55798 0.91687 0.32361 0.0
C1304 C 0.58762 0.91664 0.32369 0.0
C1305 C 0.61802 0.88881 0.33044 0.0
C1306 C 0.61852 0.86115 0.33671 0.0
C1307 C 0.58816 0.88899 0.32972 0.0
C1308 C 0.58855 0.83325 0.34126 0.0
C1309 C 0.5588 0.83326 0.34077 0.0
H1310 H 0.12918 0.6451 0.35402 0.0
H1311 H 0.13182 0.65669 0.28195 0.0
H1312 H 0.14462 0.71189 0.2865 0.0
H1313 H 0.15642 0.75705 0.31116 0.0
H1314 H 0.15356 0.74463 0.38341 0.0
H1315 H 0.13921 0.68952 0.37859 0.0
C1316 C 0.13253 0.65976 0.33936 0.0
C1317 C 0.12985 0.64717 0.3177 0.0
C1318 C 0.13975 0.69124 0.34213 0.0
C1319 C 0.13401 0.66619 0.29877 0.0
C1320 C 0.14125 0.69762 0.30138 0.0
C1321 C 0.15242 0.74225 0.32585 0.0
C1322 C 0.15624 0.75513 0.34759 0.0
C1323 C 0.14435 0.71046 0.32301 0.0
C1324 C 0.15098 0.73552 0.36644 0.0
C1325 C 0.14278 0.70392 0.36374 0.0
H1326 H 0.81063 0.04219 0.39319 0.0
H1327 H 0.88241 0.03663 0.35097 0.0
H1328 H 0.84274 0.98088 0.34239 0.0
H1329 H 0.78727 0.93419 0.34636 0.0
H1330 H 0.71525 0.94029 0.38826 0.0
H1331 H 0.75537 0.99519 0.39758 0.0
C1332 C 0.81755 0.02868 0.38218 0.0
C1333 C 0.84924 0.04349 0.37253 0.0
C1334 C 0.79454 0.99679 0.37721 0.0
C1335 C 0.85806 0.0257 0.35846 0.0
C1336 C 0.83539 0.9939 0.35354 0.0
C1337 C 0.78018 0.94758 0.35734 0.0
C1338 C 0.74802 0.93309 0.36631 0.0
C1339 C 0.80343 0.97929 0.36264 0.0
C1340 C 0.73968 0.95072 0.38098 0.0
C1341 C 0.76265 0.9822 0.38635 0.0
H1342 H 0.99018 0.77437 0.38329 0.0
H1343 H 1.00574 0.86895 0.3748 0.0
H1344 H 0.0653 0.89033 0.372 0.0
H1345 H 0.11331 0.88197 0.37211 0.0
H1346 H 0.09701 0.78706 0.37983 0.0
H1347 H 0.03763 0.76597 0.38312 0.0
C1348 C 1.00664 0.79972 0.38111 0.0
C1349 C 0.99354 0.82015 0.37984 0.0
C1350 C 0.04079 0.81174 0.3793 0.0
C1351 C 0.01522 0.85284 0.37638 0.0
C1352 C 0.04926 0.86503 0.37467 0.0
C1353 C 0.09657 0.85665 0.37425 0.0
C1354 C 0.10923 0.83586 0.37494 0.0
C1355 C 0.06237 0.84471 0.37609 0.0
C1356 C 0.0876 0.80328 0.37851 0.0
C1357 C 0.05372 0.79128 0.38056 0.0
H1358 H 0.27211 0.23699 0.39134 0.0
H1359 H 0.20132 0.16632 0.34663 0.0
H1360 H 0.17494 0.19837 0.34148 0.0
H1361 H 0.17258 0.24661 0.34954 0.0
H1362 H 0.24496 0.31836 0.39315 0.0
H1363 H 0.26962 0.28538 0.39941 0.0
C1364 C 0.25109 0.22886 0.38033 0.0
C1365 C 0.23903 0.19984 0.36893 0.0
C1366 C 0.23622 0.24741 0.37744 0.0
C1367 C 0.21129 0.18897 0.35516 0.0
C1368 C 0.19619 0.20717 0.35232 0.0
C1369 C 0.19404 0.25532 0.36013 0.0
C1370 C 0.20737 0.28538 0.37031 0.0
C1371 C 0.20858 0.23653 0.36328 0.0
C1372 C 0.23437 0.29557 0.38479 0.0
C1373 C 0.2486 0.27674 0.38837 0.0
H1374 H 0.68058 0.5059 0.71701 0.0
H1375 H 0.6335 0.55799 0.7389 0.0
H1376 H 0.68129 0.60782 0.72683 0.0
H1377 H 0.73809 0.63731 0.71264 0.0
H1378 H 0.78655 0.58633 0.69156 0.0
H1379 H 0.73688 0.53563 0.70042 0.0
C1380 C 0.68065 0.52813 0.71879 0.0
C1381 C 0.65357 0.52818 0.7291 0.0
C1382 C 0.70862 0.557 0.71204 0.0
C1383 C 0.65415 0.55727 0.73136 0.0
C1384 C 0.68149 0.58582 0.72443 0.0
C1385 C 0.73758 0.61504 0.70976 0.0
C1386 C 0.76573 0.61556 0.7011 0.0
C1387 C 0.70912 0.58607 0.71521 0.0
C1388 C 0.76497 0.58656 0.69777 0.0
C1389 C 0.73661 0.55756 0.70298 0.0
H1390 H 0.51699 0.17089 0.71975 0.0
H1391 H 0.46172 0.07085 0.73575 0.0
H1392 H 0.41096 0.06866 0.72425 0.0
H1393 H 0.38116 0.09556 0.712 0.0
H1394 H 0.43527 0.19567 0.69665 0.0
H1395 H 0.48699 0.19744 0.70528 0.0
C1396 C 0.4939 0.14855 0.72036 0.0
C1397 C 0.49332 0.1211 0.72882 0.0
C1398 C 0.46433 0.14749 0.71394 0.0
C1399 C 0.46299 0.09241 0.72958 0.0
C1400 C 0.43384 0.09112 0.72301 0.0
C1401 C 0.40433 0.11769 0.71035 0.0
C1402 C 0.40423 0.14527 0.70325 0.0
C1403 C 0.43404 0.11858 0.7156 0.0
C1404 C 0.4345 0.17389 0.70156 0.0
C1405 C 0.46419 0.17495 0.70665 0.0
H1406 H 0.89302 0.37997 0.70385 0.0
H1407 H 0.88077 0.34917 0.77325 0.0
H1408 H 0.86825 0.29633 0.76132 0.0
H1409 H 0.86217 0.25906 0.73132 0.0
H1410 H 0.87289 0.289 0.662 0.0
H1411 H 0.88388 0.34158 0.67365 0.0
C1412 C 0.88713 0.36159 0.71636 0.0
C1413 C 0.8883 0.3688 0.73944 0.0
C1414 C 0.87961 0.331 0.70938 0.0
C1415 C 0.8808 0.34461 0.75538 0.0
C1416 C 0.87346 0.31427 0.74859 0.0
C1417 C 0.86691 0.27713 0.71877 0.0
C1418 C 0.86647 0.27006 0.69578 0.0
C1419 C 0.8732 0.30731 0.72567 0.0
C1420 C 0.87235 0.29357 0.67972 0.0
C1421 C 0.87895 0.32378 0.68643 0.0
H1422 H 0.16754 0.98028 0.64805 0.0
H1423 H 0.23861 0.95718 0.62147 0.0
H1424 H 0.28334 0.00913 0.63266 0.0
H1425 H 0.30282 0.06205 0.64933 0.0
H1426 H 0.23192 0.08438 0.67731 0.0
H1427 H 0.18716 0.03214 0.66658 0.0
C1428 C 0.19279 0.98639 0.64497 0.0
C1429 C 0.1994 0.96476 0.63355 0.0
C1430 C 0.21871 0.01645 0.65168 0.0
C1431 C 0.2325 0.97344 0.62969 0.0
C1432 C 0.25826 1.00321 0.6362 0.0
C1433 C 0.27759 0.05551 0.65304 0.0
C1434 C 0.27094 0.07731 0.6641 0.0
C1435 C 0.25172 0.02511 0.64697 0.0
C1436 C 0.23797 0.06817 0.66893 0.0
C1437 C 0.21221 0.03821 0.66275 0.0
H1438 H 0.04975 0.25741 0.63692 0.0
H1439 H 0.0203 0.15906 0.64831 0.0
H1440 H 0.96586 0.14819 0.66086 0.0
H1441 H 0.92465 0.16587 0.66577 0.0
H1442 H 0.95524 0.26442 0.65401 0.0
H1443 H 1.01056 0.2757 0.64431 0.0
C1444 C 0.03145 0.23352 0.64206 0.0
C1445 C 0.03932 0.20908 0.64131 0.0
C1446 C 1.00005 0.22736 0.64916 0.0
C1447 C 0.01526 0.17847 0.64866 0.0
C1448 C 0.98392 0.17215 0.65575 0.0
C1449 C 0.94364 0.1899 0.66155 0.0
C1450 C 0.93579 0.21439 0.6609 0.0
C1451 C 0.97575 0.1963 0.65574 0.0
C1452 C 0.96061 0.24522 0.65483 0.0
C1453 C 0.9923 0.25169 0.6492 0.0
H1454 H 0.84354 0.85251 0.65439 0.0
H1455 H 0.74913 0.78975 0.62438 0.0
H1456 H 0.7537 0.74392 0.63525 0.0
H1457 H 0.78464 0.72129 0.65302 0.0
H1458 H 0.87614 0.7839 0.68628 0.0
H1459 H 0.87177 0.82984 0.67512 0.0
C1460 C 0.82352 0.82889 0.65054 0.0
C1461 C 0.79624 0.82505 0.63819 0.0
C1462 C 0.82563 0.80237 0.65759 0.0
C1463 C 0.77101 0.79391 0.63319 0.0
C1464 C 0.77336 0.76748 0.63965 0.0
C1465 C 0.80354 0.74498 0.65791 0.0
C1466 C 0.83079 0.74907 0.67031 0.0
C1467 C 0.80066 0.77141 0.65173 0.0
C1468 C 0.85487 0.77994 0.67674 0.0
C1469 C 0.85247 0.80632 0.67028 0.0
H1470 H 0.02509 0.83806 0.66702 0.0
H1471 H 0.07048 0.78614 0.64167 0.0
H1472 H 0.01718 0.7369 0.64193 0.0
H1473 H 0.95762 0.70808 0.65038 0.0
H1474 H 0.91177 0.7603 0.67405 0.0
H1475 H 0.96478 0.80959 0.67353 0.0
C1476 C 0.02315 0.81596 0.6614 0.0
C1477 C 0.05175 0.81572 0.6545 0.0
C1478 C 0.9923 0.78766 0.66156 0.0
C1479 C 0.0489 0.78695 0.64716 0.0
C1480 C 0.01842 0.75876 0.64736 0.0
C1481 C 0.95935 0.73027 0.65555 0.0
C1482 C 0.93094 0.7302 0.66324 0.0
C1483 C 0.98999 0.75872 0.65476 0.0
C1484 C 0.93335 0.75931 0.66907 0.0
C1485 C 0.96371 0.78766 0.66849 0.0
H1486 H 0.22629 0.24911 0.65594 0.0
H1487 H 0.15348 0.15027 0.66455 0.0
H1488 H 0.1971 0.13658 0.66679 0.0
H1489 H 0.25672 0.1532 0.66673 0.0
H1490 H 0.32862 0.25251 0.65849 0.0
H1491 H 0.2849 0.2655 0.65561 0.0
C1492 C 0.21992 0.22451 0.65803 0.0
C1493 C 0.18656 0.20069 0.65975 0.0
C1494 C 0.24514 0.21694 0.65955 0.0
C1495 C 0.17889 0.16899 0.66281 0.0
C1496 C 0.20387 0.1612 0.6642 0.0
C1497 C 0.2627 0.17767 0.66461 0.0
C1498 C 0.29598 0.20203 0.66348 0.0
C1499 C 0.23718 0.18501 0.66275 0.0
C1500 C 0.30328 0.23347 0.65987 0.0
C1501 C 0.27826 0.2409 0.65813 0.0
H1502 H 0.77717 0.97366 0.64683 0.0
H1503 H 0.85748 0.98524 0.68804 0.0
H1504 H 0.87658 0.04208 0.69222 0.0
H1505 H 0.8693 0.08791 0.68499 0.0
H1506 H 0.78757 0.07566 0.64483 0.0
H1507 H 0.77058 0.0199 0.63899 0.0
C1508 C 0.79881 0.98872 0.65673 0.0
C1509 C 0.81558 0.97535 0.6675 0.0
C1510 C 0.80941 0.02121 0.65918 0.0
C1511 C 0.84398 0.99507 0.67991 0.0
C1512 C 0.85488 0.02748 0.68227 0.0
C1513 C 0.84755 0.07301 0.67519 0.0
C1514 C 0.82936 0.08594 0.66584 0.0
C1515 C 0.83755 0.04073 0.67219 0.0
C1516 C 0.80192 0.06643 0.65246 0.0
C1517 C 0.7921 0.03443 0.64913 0.0
H1518 H 0.47484 0.37245 0.72573 0.0
H1519 H 0.55095 0.36941 0.68698 0.0
H1520 H 0.51306 0.31342 0.67771 0.0
H1521 H 0.45761 0.26579 0.67978 0.0
H1522 H 0.38148 0.26982 0.71817 0.0
H1523 H 0.41999 0.32467 0.72848 0.0
C1524 C 0.48319 0.35943 0.71541 0.0
C1525 C 0.51566 0.37504 0.70702 0.0
C1526 C 0.46116 0.32741 0.70997 0.0
C1527 C 0.52611 0.35785 0.69367 0.0
C1528 C 0.5044 0.32591 0.6883 0.0
C1529 C 0.44932 0.2787 0.69025 0.0
C1530 C 0.41639 0.26355 0.69789 0.0
C1531 C 0.47171 0.31051 0.69615 0.0
C1532 C 0.40649 0.28065 0.71189 0.0
C1533 C 0.42856 0.31215 0.71784 0.0
H1534 H 0.64483 0.09006 0.71233 0.0
H1535 H 0.66864 0.18703 0.70236 0.0
H1536 H 0.72672 0.20308 0.69602 0.0
H1537 H 0.77131 0.18915 0.69359 0.0
H1538 H 0.74546 0.09145 0.7036 0.0
H1539 H 0.68809 0.07622 0.70961 0.0
C1540 C 0.66277 0.11483 0.7091 0.0
C1541 C 0.65239 0.13742 0.70841 0.0
C1542 C 0.69596 0.12374 0.70527 0.0
C1543 C 0.67601 0.16926 0.70356 0.0
C1544 C 0.70922 0.17839 0.69978 0.0
C1545 C 0.75297 0.16452 0.69678 0.0
C1546 C 0.76267 0.14132 0.69769 0.0
C1547 C 0.71959 0.15581 0.70055 0.0
C1548 C 0.73868 0.10966 0.7025 0.0
C1549 C 0.7058 0.10092 0.70604 0.0
H1550 H 0.90413 0.52099 0.67865 0.0
H1551 H 0.89135 0.52082 0.75061 0.0
H1552 H 0.87859 0.56369 0.74714 0.0
H1553 H 0.87029 0.60087 0.72333 0.0
H1554 H 0.8857 0.60203 0.65163 0.0
H1555 H 0.89793 0.55915 0.65518 0.0
C1556 C 0.89819 0.53014 0.69352 0.0
C1557 C 0.89761 0.5171 0.71475 0.0
C1558 C 0.89131 0.55498 0.69141 0.0
C1559 C 0.89099 0.52988 0.73401 0.0
C1560 C 0.88391 0.55451 0.73204 0.0
C1561 C 0.87654 0.59181 0.70855 0.0
C1562 C 0.87617 0.60399 0.68712 0.0
C1563 C 0.88391 0.56722 0.7108 0.0
C1564 C 0.88446 0.59217 0.66813 0.0
C1565 C 0.89185 0.56788 0.67021 0.0
H1566 H 0.42623 0.91668 0.23138 0.0
H1567 H 0.51909 0.96797 0.26571 0.0
H1568 H 0.54495 0.99864 0.23162 0.0
H1569 H 0.54176 0.01054 0.19199 0.0
H1570 H 0.44902 0.96079 0.15737 0.0
H1571 H 0.42286 0.92961 0.1914 0.0
C1572 C 0.45203 0.93482 0.23145 0.0
C1573 C 0.47066 0.93987 0.25116 0.0
C1574 C 0.46693 0.95244 0.21163 0.0
C1575 C 0.5042 0.96325 0.25079 0.0
C1576 C 0.51903 0.98089 0.23128 0.0
C1577 C 0.51572 0.99314 0.19186 0.0
C1578 C 0.49749 0.98827 0.172 0.0
C1579 C 0.50072 0.9756 0.21158 0.0
C1580 C 0.4639 0.96494 0.17221 0.0
C1581 C 0.44881 0.94724 0.19178 0.0
H1582 H 0.07414 0.56128 0.24713 0.0
H1583 H 0.13355 0.52192 0.22426 0.0
H1584 H 0.10323 0.50603 0.18884 0.0
H1585 H 0.05916 0.50264 0.16466 0.0
H1586 H 1.00212 0.54474 0.18726 0.0
H1587 H 0.03252 0.56048 0.22245 0.0
C1588 C 0.08096 0.54975 0.23427 0.0
C1589 C 0.10622 0.54294 0.23838 0.0
C1590 C 0.06374 0.54104 0.21392 0.0
C1591 C 0.114 0.52719 0.22169 0.0
C1592 C 0.09679 0.51824 0.20137 0.0
C1593 C 0.05366 0.51562 0.17715 0.0
C1594 C 0.02815 0.52223 0.17335 0.0
C1595 C 0.07152 0.52496 0.19734 0.0
C1596 C 0.02114 0.53875 0.18989 0.0
C1597 C 0.03866 0.54796 0.20998 0.0
H1598 H 0.45762 0.53664 0.22961 0.0
H1599 H 0.54544 0.55679 0.2655 0.0
H1600 H 0.56692 0.54398 0.23216 0.0
H1601 H 0.56267 0.53049 0.19246 0.0
H1602 H 0.4744 0.50768 0.15603 0.0
H1603 H 0.45168 0.51893 0.18967 0.0
C1604 C 0.48118 0.53767 0.23016 0.0
C1605 C 0.50004 0.54792 0.24995 0.0
C1606 C 0.49363 0.53042 0.21072 0.0
C1607 C 0.53064 0.54934 0.2504 0.0
C1608 C 0.54298 0.54206 0.23133 0.0
C1609 C 0.53815 0.52727 0.19184 0.0
C1610 C 0.5204 0.51814 0.17156 0.0
C1611 C 0.52497 0.53311 0.21132 0.0
C1612 C 0.489 0.51512 0.1712 0.0
C1613 C 0.47581 0.52127 0.19054 0.0
H1614 H 0.92501 0.4149 0.81314 0.0
H1615 H 0.98346 0.50424 0.77843 0.0
H1616 H 0.02088 0.52482 0.81043 0.0
H1617 H 0.03736 0.51709 0.84814 0.0
H1618 H 0.97877 0.42763 0.88267 0.0
H1619 H 0.94115 0.40732 0.85081 0.0
C1620 C 0.94606 0.43881 0.81253 0.0
C1621 C 0.95153 0.45797 0.79342 0.0
C1622 C 0.96748 0.45041 0.83092 0.0
C1623 C 0.97856 0.48912 0.79304 0.0
C1624 C 1.00007 0.50082 0.81126 0.0
C1625 C 0.01649 0.49307 0.84857 0.0
C1626 C 1.01089 0.47384 0.86767 0.0
C1627 C 0.99486 0.48161 0.83024 0.0
C1628 C 0.98346 0.44294 0.8682 0.0
C1629 C 0.962 0.43129 0.84998 0.0
H1630 H 0.52528 0.44771 0.78715 0.0
H1631 H 0.62643 0.50285 0.80803 0.0
H1632 H 0.60875 0.51013 0.84522 0.0
H1633 H 0.56451 0.50341 0.87129 0.0
H1634 H 0.4635 0.44719 0.85041 0.0
H1635 H 0.48119 0.43742 0.81406 0.0
C1636 C 0.54351 0.46085 0.79993 0.0
C1637 C 0.5772 0.47495 0.79458 0.0
C1638 C 0.53318 0.46489 0.82137 0.0
C1639 C 0.60035 0.49223 0.81141 0.0
C1640 C 0.59026 0.49627 0.83279 0.0
C1641 C 0.54637 0.48859 0.85893 0.0
C1642 C 0.51272 0.47641 0.86354 0.0
C1643 C 0.55673 0.48312 0.83788 0.0
C1644 C 0.48958 0.4574 0.8472 0.0
C1645 C 0.49966 0.45169 0.82639 0.0
H1646 H 0.49017 0.05573 0.78771 0.0
H1647 H 0.59145 0.12135 0.80427 0.0
H1648 H 0.58356 0.09537 0.84091 0.0
H1649 H 0.54774 0.05286 0.8683 0.0
H1650 H 0.44607 0.98966 0.85145 0.0
H1651 H 0.45411 0.01656 0.81541 0.0
C1652 C 0.51052 0.06495 0.79938 0.0
C1653 C 0.54141 0.09071 0.79294 0.0
C1654 C 0.50567 0.05033 0.82063 0.0
C1655 C 0.56748 0.10135 0.80838 0.0
C1656 C 0.56291 0.08664 0.82952 0.0
C1657 C 0.52729 0.04535 0.85686 0.0
C1658 C 0.4964 0.01897 0.86257 0.0
C1659 C 0.5321 0.06099 0.83586 0.0
C1660 C 0.47021 0.00951 0.84743 0.0
C1661 C 0.47477 0.0249 0.82676 0.0
H1662 H 0.08792 0.24227 0.56413 0.0
H1663 H 0.18064 0.2882 0.59899 0.0
H1664 H 0.20717 0.32231 0.5664 0.0
H1665 H 0.20451 0.33937 0.52805 0.0
H1666 H 0.11209 0.29476 0.49286 0.0
H1667 H 0.08531 0.25973 0.52523 0.0
C1668 C 0.11387 0.25991 0.56465 0.0
C1669 C 0.1322 0.26248 0.58409 0.0
C1670 C 0.12919 0.2796 0.54566 0.0
C1671 C 0.16593 0.28531 0.58426 0.0
C1672 C 0.18116 0.30497 0.56561 0.0
C1673 C 0.17843 0.32219 0.52744 0.0
C1674 C 0.16044 0.32 0.50792 0.0
C1675 C 0.1631 0.30232 0.54622 0.0
C1676 C 0.12677 0.29693 0.50746 0.0
C1677 C 0.11133 0.277 0.52609 0.0
H1678 H 0.77503 0.85174 0.56247 0.0
H1679 H 0.73342 0.90142 0.59736 0.0
H1680 H 0.70169 0.89789 0.5641 0.0
H1681 H 0.68469 0.87977 0.52546 0.0
H1682 H 0.72384 0.82768 0.49097 0.0
H1683 H 0.75763 0.83324 0.52365 0.0
C1684 C 0.75884 0.86159 0.56287 0.0
C1685 C 0.75674 0.87687 0.58246 0.0
C1686 C 0.74022 0.8591 0.54372 0.0
C1687 C 0.73598 0.88994 0.58247 0.0
C1688 C 0.71761 0.88775 0.56348 0.0
C1689 C 0.70038 0.86936 0.52512 0.0
C1690 C 0.70154 0.85321 0.50576 0.0
C1691 C 0.71938 0.87223 0.54408 0.0
C1692 C 0.72265 0.84053 0.50551 0.0
C1693 C 0.74184 0.8435 0.52428 0.0
H1694 H 0.15579 0.84117 0.58495 0.0
H1695 H 0.16118 0.92413 0.55461 0.0
H1696 H 0.17525 0.91033 0.51814 0.0
H1697 H 0.18957 0.8765 0.49548 0.0
H1698 H 0.18797 0.79557 0.52645 0.0
H1699 H 0.16891 0.80655 0.56199 0.0
C1700 C 0.1596 0.85587 0.57022 0.0
C1701 C 0.15733 0.88348 0.57231 0.0
C1702 C 0.16865 0.84827 0.54949 0.0
C1703 C 0.1628 0.90273 0.55328 0.0
C1704 C 0.17089 0.89488 0.53249 0.0
C1705 C 0.18463 0.86108 0.50996 0.0
C1706 C 0.19013 0.83527 0.50838 0.0
C1707 C 0.17441 0.86799 0.53046 0.0
C1708 C 0.18409 0.8157 0.52733 0.0
C1709 C 0.17315 0.82194 0.54762 0.0
H1710 H 0.57987 0.79432 0.13906 0.0
H1711 H 0.63911 0.75881 0.10924 0.0
H1712 H 0.67198 0.77208 0.14327 0.0
H1713 H 0.68406 0.79351 0.18142 0.0
H1714 H 0.62719 0.83167 0.21109 0.0
H1715 H 0.5931 0.81727 0.17736 0.0
C1716 C 0.60015 0.78974 0.13995 0.0
C1717 C 0.60674 0.7753 0.12161 0.0
C1718 C 0.6193 0.79771 0.15961 0.0
C1719 C 0.63299 0.76931 0.12319 0.0
C1720 C 0.65198 0.77706 0.14262 0.0
C1721 C 0.66448 0.79907 0.18048 0.0
C1722 C 0.6584 0.81381 0.19883 0.0
C1723 C 0.64534 0.79121 0.16093 0.0
C1724 C 0.63229 0.82003 0.19739 0.0
C1725 C 0.61291 0.81202 0.17801 0.0
H1726 H 0.27113 0.84296 0.14226 0.0
H1727 H 0.17553 0.79243 0.11139 0.0
H1728 H 0.15011 0.79819 0.14565 0.0
H1729 H 0.15486 0.81815 0.18415 0.0
H1730 H 0.25016 0.86927 0.21529 0.0
H1731 H 0.27577 0.86249 0.18131 0.0
C1732 C 0.24476 0.83336 0.14303 0.0
C1733 C 0.22529 0.81724 0.12425 0.0
C1734 C 0.23021 0.83678 0.16286 0.0
C1735 C 0.19108 0.80459 0.12564 0.0
C1736 C 0.17651 0.80801 0.14521 0.0
C1737 C 0.18128 0.82801 0.18347 0.0
C1738 C 0.20055 0.84438 0.20223 0.0
C1739 C 0.19582 0.82414 0.16388 0.0
C1740 C 0.23468 0.85637 0.20119 0.0
C1741 C 0.24937 0.85267 0.1817 0.0
H1742 H 0.22731 0.3961 0.12414 0.0
H1743 H 0.19441 0.46172 0.14167 0.0
H1744 H 0.17779 0.43757 0.17905 0.0
H1745 H 0.16982 0.39578 0.20635 0.0
H1746 H 0.20094 0.32907 0.18822 0.0
H1747 H 0.22139 0.35579 0.1519 0.0
C1748 C 0.21687 0.40535 0.13623 0.0
C1749 C 0.21194 0.43059 0.12995 0.0
C1750 C 0.20699 0.39109 0.15772 0.0
C1751 C 0.19805 0.44203 0.14585 0.0
C1752 C 0.18866 0.42832 0.16732 0.0
C1753 C 0.18156 0.38747 0.19456 0.0
C1754 C 0.18387 0.36049 0.2 0.0
C1755 C 0.19262 0.40256 0.17339 0.0
C1756 C 0.19875 0.34972 0.1844 0.0
C1757 C 0.21041 0.36496 0.1636 0.0
H1758 H 0.77138 0.57689 0.89496 0.0
H1759 H 0.86573 0.62472 0.92787 0.0
H1760 H 0.89165 0.65339 0.8933 0.0
H1761 H 0.88796 0.66591 0.85404 0.0
H1762 H 0.79362 0.62178 0.82127 0.0
H1763 H 0.76758 0.59048 0.85527 0.0
C1764 C 0.79757 0.59375 0.89464 0.0
C1765 C 0.81647 0.59823 0.91413 0.0
C1766 C 0.81247 0.61081 0.87464 0.0
C1767 C 0.8505 0.62005 0.91316 0.0
C1768 C 0.86541 0.63674 0.89337 0.0
C1769 C 0.86161 0.64975 0.8543 0.0
C1770 C 0.84288 0.64657 0.83501 0.0
C1771 C 0.84667 0.63242 0.87406 0.0
C1772 C 0.80887 0.62466 0.83567 0.0
C1773 C 0.79386 0.6069 0.85523 0.0
H1774 H 0.38323 0.15396 0.90767 0.0
H1775 H 0.46619 0.24309 0.8862 0.0
H1776 H 0.43882 0.23998 0.85057 0.0
H1777 H 0.39032 0.21285 0.82623 0.0
H1778 H 0.30654 0.12472 0.84838 0.0
H1779 H 0.33513 0.12643 0.88309 0.0
C1780 C 0.39543 0.17245 0.89503 0.0
C1781 C 0.42666 0.19863 0.89942 0.0
C1782 C 0.3793 0.17077 0.87483 0.0
C1783 C 0.44206 0.22277 0.88315 0.0
C1784 C 0.42645 0.22098 0.86281 0.0
C1785 C 0.37851 0.19389 0.83858 0.0
C1786 C 0.34642 0.16871 0.83482 0.0
C1787 C 0.39493 0.19525 0.85858 0.0
C1788 C 0.33114 0.14449 0.85106 0.0
C1789 C 0.34751 0.1454 0.87083 0.0
H1790 H 0.78572 0.20626 0.89595 0.0
H1791 H 0.87862 0.23534 0.92807 0.0
H1792 H 0.89996 0.2255 0.8934 0.0
H1793 H 0.89313 0.20992 0.85388 0.0
H1794 H 0.79963 0.17753 0.82165 0.0
H1795 H 0.77808 0.18808 0.85617 0.0
C1796 C 0.81049 0.21008 0.89542 0.0
C1797 C 0.83058 0.2219 0.91465 0.0
C1798 C 0.82273 0.20417 0.87529 0.0
C1799 C 0.86274 0.22688 0.91352 0.0
C1800 C 0.87498 0.22114 0.89367 0.0
C1801 C 0.86783 0.20462 0.85436 0.0
C1802 C 0.84813 0.19273 0.83498 0.0
C1803 C 0.85532 0.21002 0.87442 0.0
C1804 C 0.81569 0.18705 0.83604 0.0
C1805 C 0.80318 0.1928 0.85592 0.0
H1806 H 0.26215 0.09399 0.46748 0.0
H1807 H 0.32962 0.18492 0.43767 0.0
H1808 H 0.36189 0.20121 0.47229 0.0
H1809 H 0.37132 0.18928 0.51088 0.0
H1810 H 0.30293 0.09908 0.54123 0.0
H1811 H 0.27049 0.08279 0.50664 0.0
C1812 C 0.28399 0.11732 0.4686 0.0
C1813 C 0.29364 0.13819 0.45006 0.0
C1814 C 0.30217 0.12663 0.48864 0.0
C1815 C 0.32167 0.16853 0.45178 0.0
C1816 C 0.34016 0.1778 0.47153 0.0
C1817 C 0.34935 0.16604 0.50985 0.0
C1818 C 0.33959 0.14531 0.52848 0.0
C1819 C 0.33071 0.157 0.49002 0.0
C1820 C 0.3108 0.11547 0.52711 0.0
C1821 C 0.29236 0.10612 0.50733 0.0
H1822 H 0.91758 0.19209 0.45242 0.0
H1823 H 0.90089 0.09947 0.47125 0.0
H1824 H 0.87828 0.10318 0.50757 0.0
H1825 H 0.86033 0.13157 0.53335 0.0
H1826 H 0.87509 0.22322 0.51379 0.0
H1827 H 0.90162 0.22131 0.47873 0.0
C1828 C 0.90938 0.17292 0.4646 0.0
C1829 C 0.91082 0.14549 0.45903 0.0
C1830 C 0.89594 0.17502 0.48539 0.0
C1831 C 0.89971 0.12069 0.47495 0.0
C1832 C 0.88687 0.12284 0.49579 0.0
C1833 C 0.86981 0.15128 0.52153 0.0
C1834 C 0.86571 0.17747 0.52616 0.0
C1835 C 0.88444 0.1497 0.50111 0.0
C1836 C 0.87776 0.2027 0.51055 0.0
C1837 C 0.89293 0.20162 0.49049 0.0
H1838 H 0.82537 0.73307 0.45229 0.0
H1839 H 0.92571 0.79709 0.47205 0.0
H1840 H 0.9151 0.76934 0.50819 0.0
H1841 H 0.87691 0.72628 0.53428 0.0
H1842 H 0.77541 0.66713 0.5149 0.0
H1843 H 0.78685 0.69444 0.47892 0.0
C1844 C 0.84493 0.74174 0.46457 0.0
C1845 C 0.87631 0.76751 0.4592 0.0
C1846 C 0.83841 0.72649 0.48559 0.0
C1847 C 0.90138 0.77715 0.47535 0.0
C1848 C 0.89524 0.76144 0.4962 0.0
C1849 C 0.85722 0.71967 0.52232 0.0
C1850 C 0.82547 0.69404 0.52725 0.0
C1851 C 0.86378 0.73602 0.50154 0.0
C1852 C 0.80031 0.68598 0.51144 0.0
C1853 C 0.80674 0.70173 0.49082 0.0
loop_
_geom_bond_atom_site_label_1
_geom_bond_atom_site_label_2
_geom_bond_distance
_geom_bond_site_symmetry_2
_ccdc_geom_bond_type
H0 C7 0.929 . S
H1 C10 0.930 . S
H2 C12 0.929 . S
H3 C4 0.969 . S
C4 H3 0.969 . S
C4 O5 1.550 . S
C4 H6 0.973 . S
O5 C4 1.550 . S
O5 C11 1.412 . S
H6 C4 0.973 . S
C7 H0 0.929 . S
C7 C8 1.400 . S
C7 C9 1.364 . S
C8 C7 1.400 . S
C8 C12 1.377 . S
C9 C7 1.364 . S
C9 C10 1.374 . S
C10 H1 0.930 . S
C10 C9 1.374 . S
C10 C11 1.383 . S
C11 O5 1.412 . S
C11 C10 1.383 . S
C11 C12 1.394 . S
C12 H2 0.929 . S
C12 C8 1.377 . S
C12 C11 1.394 . S
H13 C20 0.929 . S
H14 C23 0.930 . S
H15 C25 0.929 . S
H16 C17 0.969 . S
C17 H16 0.969 . S
C17 O18 1.550 . S
C17 H19 0.973 . S
O18 C17 1.550 . S
O18 C24 1.412 . S
H19 C17 0.973 . S
C20 H13 0.929 . S
C20 C21 1.400 . S
C20 C22 1.364 . S
C21 C20 1.400 . S
C21 C25 1.377 . S
C22 C20 1.364 . S
C22 C23 1.374 . S
C23 H14 0.930 . S
C23 C22 1.374 . S
C23 C24 1.383 . S
C24 O18 1.412 . S
C24 C23 1.383 . S
C24 C25 1.394 . S
C25 H15 0.929 . S
C25 C21 1.377 . S
C25 C24 1.394 . S
H26 C33 0.929 . S
H27 C36 0.930 . S
H28 C38 0.929 . S
H29 C30 0.969 . S
C30 H29 0.969 . S
C30 O31 1.550 . S
C30 H32 0.973 . S
O31 C30 1.550 . S
O31 C37 1.412 . S
H32 C30 0.973 . S
C33 H26 0.929 . S
C33 C34 1.400 . S
C33 C35 1.364 . S
C34 C33 1.400 . S
C34 C38 1.377 . S
C35 C33 1.364 . S
C35 C36 1.374 . S
C36 H27 0.930 . S
C36 C35 1.374 . S
C36 C37 1.383 . S
C37 O31 1.412 . S
C37 C36 1.383 . S
C37 C38 1.394 . S
C38 H28 0.929 . S
C38 C34 1.377 . S
C38 C37 1.394 . S
H39 C46 0.929 . S
H40 C49 0.930 . S
H41 C51 0.929 . S
H42 C43 0.969 . S
C43 H42 0.969 . S
C43 O44 1.550 . S
C43 H45 0.973 . S
O44 C43 1.550 . S
O44 C50 1.412 . S
H45 C43 0.973 . S
C46 H39 0.929 . S
C46 C47 1.400 . S
C46 C48 1.364 . S
C47 C46 1.400 . S
C47 C51 1.377 . S
C48 C46 1.364 . S
C48 C49 1.374 . S
C49 H40 0.930 . S
C49 C48 1.374 . S
C49 C50 1.383 . S
C50 O44 1.412 . S
C50 C49 1.383 . S
C50 C51 1.394 . S
C51 H41 0.929 . S
C51 C47 1.377 . S
C51 C50 1.394 . S
H52 C59 0.929 . S
H53 C62 0.930 . S
H54 C64 0.929 . S
H55 C56 0.969 . S
C56 H55 0.969 . S
C56 O57 1.550 . S
C56 H58 0.973 . S
O57 C56 1.550 . S
O57 C63 1.412 . S
H58 C56 0.973 . S
C59 H52 0.929 . S
C59 C60 1.400 . S
C59 C61 1.364 . S
C60 C59 1.400 . S
C60 C64 1.377 . S
C61 C59 1.364 . S
C61 C62 1.374 . S
C62 H53 0.930 . S
C62 C61 1.374 . S
C62 C63 1.383 . S
C63 O57 1.412 . S
C63 C62 1.383 . S
C63 C64 1.394 . S
C64 H54 0.929 . S
C64 C60 1.377 . S
C64 C63 1.394 . S
H65 C72 0.929 . S
H66 C75 0.930 . S
H67 C77 0.929 . S
H68 C69 0.969 . S
C69 H68 0.969 . S
C69 O70 1.550 . S
C69 H71 0.973 . S
O70 C69 1.550 . S
O70 C76 1.412 . S
H71 C69 0.973 . S
C72 H65 0.929 . S
C72 C73 1.400 . S
C72 C74 1.364 . S
C73 C72 1.400 . S
C73 C77 1.377 . S
C74 C72 1.364 . S
C74 C75 1.374 . S
C75 H66 0.930 . S
C75 C74 1.374 . S
C75 C76 1.383 . S
C76 O70 1.412 . S
C76 C75 1.383 . S
C76 C77 1.394 . S
C77 H67 0.929 . S
C77 C73 1.377 . S
C77 C76 1.394 . S
H78 C85 0.929 . S
H79 C88 0.930 . S
H80 C90 0.929 . S
H81 C82 0.969 . S
C82 H81 0.969 . S
C82 O83 1.550 . S
C82 H84 0.973 . S
O83 C82 1.550 . S
O83 C89 1.412 . S
H84 C82 0.973 . S
C85 H78 0.929 . S
C85 C86 1.400 . S
C85 C87 1.364 . S
C86 C85 1.400 . S
C86 C90 1.377 . S
C87 C85 1.364 . S
C87 C88 1.374 . S
C88 H79 0.930 . S
C88 C87 1.374 . S
C88 C89 1.383 . S
C89 O83 1.412 . S
C89 C88 1.383 . S
C89 C90 1.394 . S
C90 H80 0.929 . S
C90 C86 1.377 . S
C90 C89 1.394 . S
H91 C98 0.929 . S
H92 C101 0.930 . S
H93 C103 0.929 . S
H94 C95 0.969 . S
C95 H94 0.969 . S
C95 O96 1.550 . S
C95 H97 0.973 . S
O96 C95 1.550 . S
O96 C102 1.412 . S
H97 C95 0.973 . S
C98 H91 0.929 . S
C98 C99 1.400 . S
C98 C100 1.364 . S
C99 C98 1.400 . S
C99 C103 1.377 . S
C100 C98 1.364 . S
C100 C101 1.374 . S
C101 H92 0.930 . S
C101 C100 1.374 . S
C101 C102 1.383 . S
C102 O96 1.412 . S
C102 C101 1.383 . S
C102 C103 1.394 . S
C103 H93 0.929 . S
C103 C99 1.377 . S
C103 C102 1.394 . S
H104 C111 0.929 . S
H105 C114 0.930 . S
H106 C116 0.929 . S
H107 C108 0.969 . S
C108 H107 0.969 . S
C108 O109 1.550 . S
C108 H110 0.973 . S
O109 C108 1.550 . S
O109 C115 1.412 . S
H110 C108 0.973 . S
C111 H104 0.929 . S
C111 C112 1.400 . S
C111 C113 1.364 . S
C112 C111 1.400 . S
C112 C116 1.377 . S
C113 C111 1.364 . S
C113 C114 1.374 . S
C114 H105 0.930 . S
C114 C113 1.374 . S
C114 C115 1.383 . S
C115 O109 1.412 . S
C115 C114 1.383 . S
C115 C116 1.394 . S
C116 H106 0.929 . S
C116 C112 1.377 . S
C116 C115 1.394 . S
H117 C124 0.929 . S
H118 C127 0.930 . S
H119 C129 0.929 . S
H120 C121 0.969 . S
C121 H120 0.969 . S
C121 O122 1.550 . S
C121 H123 0.973 . S
O122 C121 1.550 . S
O122 C128 1.412 . S
H123 C121 0.973 . S
C124 H117 0.929 . S
C124 C125 1.400 . S
C124 C126 1.364 . S
C125 C124 1.400 . S
C125 C129 1.377 . S
C126 C124 1.364 . S
C126 C127 1.374 . S
C127 H118 0.930 . S
C127 C126 1.374 . S
C127 C128 1.383 . S
C128 O122 1.412 . S
C128 C127 1.383 . S
C128 C129 1.394 . S
C129 H119 0.929 . S
C129 C125 1.377 . S
C129 C128 1.394 . S
H130 C137 0.929 . S
H131 C140 0.930 . S
H132 C142 0.929 . S
H133 C134 0.969 . S
C134 H133 0.969 . S
C134 O135 1.550 . S
C134 H136 0.973 . S
O135 C134 1.550 . S
O135 C141 1.412 . S
H136 C134 0.973 . S
C137 H130 0.929 . S
C137 C138 1.400 . S
C137 C139 1.364 . S
C138 C137 1.400 . S
C138 C142 1.377 . S
C139 C137 1.364 . S
C139 C140 1.374 . S
C140 H131 0.930 . S
C140 C139 1.374 . S
C140 C141 1.383 . S
C141 O135 1.412 . S
C141 C140 1.383 . S
C141 C142 1.394 . S
C142 H132 0.929 . S
C142 C138 1.377 . S
C142 C141 1.394 . S
H143 C150 0.929 . S
H144 C153 0.930 . S
H145 C155 0.929 . S
H146 C147 0.969 . S
C147 H146 0.969 . S
C147 O148 1.550 . S
C147 H149 0.973 . S
O148 C147 1.550 . S
O148 C154 1.412 . S
H149 C147 0.973 . S
C150 H143 0.929 . S
C150 C151 1.400 . S
C150 C152 1.364 . S
C151 C150 1.400 . S
C151 C155 1.377 . S
C152 C150 1.364 . S
C152 C153 1.374 . S
C153 H144 0.930 . S
C153 C152 1.374 . S
C153 C154 1.383 . S
C154 O148 1.412 . S
C154 C153 1.383 . S
C154 C155 1.394 . S
C155 H145 0.929 . S
C155 C151 1.377 . S
C155 C154 1.394 . S
H156 C163 0.929 . S
H157 C166 0.930 . S
H158 C168 0.929 . S
H159 C160 0.969 . S
C160 H159 0.969 . S
C160 O161 1.550 . S
C160 H162 0.973 . S
O161 C160 1.550 . S
O161 C167 1.412 . S
H162 C160 0.973 . S
C163 H156 0.929 . S
C163 C164 1.400 . S
C163 C165 1.364 . S
C164 C163 1.400 . S
C164 C168 1.377 . S
C165 C163 1.364 . S
C165 C166 1.374 . S
C166 H157 0.930 . S
C166 C165 1.374 . S
C166 C167 1.383 . S
C167 O161 1.412 . S
C167 C166 1.383 . S
C167 C168 1.394 . S
C168 H158 0.929 . S
C168 C164 1.377 . S
C168 C167 1.394 . S
H169 C176 0.929 . S
H170 C179 0.930 . S
H171 C181 0.929 . S
H172 C173 0.969 . S
C173 H172 0.969 . S
C173 O174 1.550 . S
C173 H175 0.973 . S
O174 C173 1.550 . S
O174 C180 1.412 . S
H175 C173 0.973 . S
C176 H169 0.929 . S
C176 C177 1.400 . S
C176 C178 1.364 . S
C177 C176 1.400 . S
C177 C181 1.377 . S
C178 C176 1.364 . S
C178 C179 1.374 . S
C179 H170 0.930 . S
C179 C178 1.374 . S
C179 C180 1.383 . S
C180 O174 1.412 . S
C180 C179 1.383 . S
C180 C181 1.394 . S
C181 H171 0.929 . S
C181 C177 1.377 . S
C181 C180 1.394 . S
H182 C189 0.929 . S
H183 C192 0.930 . S
H184 C194 0.929 . S
H185 C186 0.969 . S
C186 H185 0.969 . S
C186 O187 1.550 . S
C186 H188 0.973 . S
O187 C186 1.550 . S
O187 C193 1.412 . S
H188 C186 0.973 . S
C189 H182 0.929 . S
C189 C190 1.400 . S
C189 C191 1.364 . S
C190 C189 1.400 . S
C190 C194 1.377 . S
C191 C189 1.364 . S
C191 C192 1.374 . S
C192 H183 0.930 . S
C192 C191 1.374 . S
C192 C193 1.383 . S
C193 O187 1.412 . S
C193 C192 1.383 . S
C193 C194 1.394 . S
C194 H184 0.929 . S
C194 C190 1.377 . S
C194 C193 1.394 . S
H195 C202 0.929 . S
H196 C205 0.930 . S
H197 C207 0.929 . S
H198 C199 0.969 . S
C199 H198 0.969 . S
C199 O200 1.550 . S
C199 H201 0.973 . S
O200 C199 1.550 . S
O200 C206 1.412 . S
H201 C199 0.973 . S
C202 H195 0.929 . S
C202 C203 1.400 . S
C202 C204 1.364 . S
C203 C202 1.400 . S
C203 C207 1.377 . S
C204 C202 1.364 . S
C204 C205 1.374 . S
C205 H196 0.930 . S
C205 C204 1.374 . S
C205 C206 1.383 . S
C206 O200 1.412 . S
C206 C205 1.383 . S
C206 C207 1.394 . S
C207 H197 0.929 . S
C207 C203 1.377 . S
C207 C206 1.394 . S
H208 C215 0.929 . S
H209 C218 0.930 . S
H210 C220 0.929 . S
H211 C212 0.969 . S
C212 H211 0.969 . S
C212 O213 1.550 . S
C212 H214 0.973 . S
O213 C212 1.550 . S
O213 C219 1.412 . S
H214 C212 0.973 . S
C215 H208 0.929 . S
C215 C216 1.400 . S
C215 C217 1.364 . S
C216 C215 1.400 . S
C216 C220 1.377 . S
C217 C215 1.364 . S
C217 C218 1.374 . S
C218 H209 0.930 . S
C218 C217 1.374 . S
C218 C219 1.383 . S
C219 O213 1.412 . S
C219 C218 1.383 . S
C219 C220 1.394 . S
C220 H210 0.929 . S
C220 C216 1.377 . S
C220 C219 1.394 . S
H221 C228 0.929 . S
H222 C231 0.930 . S
H223 C233 0.929 . S
H224 C225 0.969 . S
C225 H224 0.969 . S
C225 O226 1.550 . S
C225 H227 0.973 . S
O226 C225 1.550 . S
O226 C232 1.412 . S
H227 C225 0.973 . S
C228 H221 0.929 . S
C228 C229 1.400 . S
C228 C230 1.364 . S
C229 C228 1.400 . S
C229 C233 1.377 . S
C230 C228 1.364 . S
C230 C231 1.374 . S
C231 H222 0.930 . S
C231 C230 1.374 . S
C231 C232 1.383 . S
C232 O226 1.412 . S
C232 C231 1.383 . S
C232 C233 1.394 . S
C233 H223 0.929 . S
C233 C229 1.377 . S
C233 C232 1.394 . S
Gd234 N265 2.661 . S
Gd234 N271 2.601 . S
Gd234 O278 2.545 . S
Gd234 O279 2.606 1_545 S
Gd234 O281 2.429 . S
Gd234 O282 2.545 1_545 S
Gd234 O283 2.412 1_545 S
Gd234 O285 2.362 . S
Gd234 O286 2.324 1_545 S
Gd234 C293 2.828 . S
Gd235 N244 2.661 . S
Gd235 N248 2.601 . S
Gd235 O279 2.362 1_556 S
Gd235 O280 2.324 1_565 S
Gd235 O284 2.545 . S
Gd235 O285 2.606 1_566 S
Gd235 O287 2.429 . S
Gd235 O288 2.545 1_565 S
Gd235 O289 2.412 1_565 S
Gd235 C302 2.828 . S
C236 C239 1.417 . S
C236 C241 1.431 . S
C236 C242 1.412 . S
C237 C240 1.437 . S
C237 C241 1.317 . S
C237 H256 0.929 . S
C238 C239 1.426 . S
C238 C240 1.413 . S
C238 N248 1.359 . S
C239 C236 1.417 . S
C239 C238 1.426 . S
C239 N244 1.350 . S
C240 C237 1.437 . S
C240 C238 1.413 . S
C240 C250 1.391 . S
C241 C236 1.431 . S
C241 C237 1.317 . S
C241 H252 0.930 . S
C242 C236 1.412 . S
C242 C243 1.355 . S
C242 H254 0.930 . S
C243 C242 1.355 . S
C243 C245 1.402 . S
C243 H255 0.930 . S
N244 Gd235 2.661 . S
N244 C239 1.350 . S
N244 C245 1.307 . S
C245 C243 1.402 . S
C245 N244 1.307 . S
C245 H246 0.930 . S
H246 C245 0.930 . S
C247 N248 1.334 . S
C247 C249 1.394 . S
C247 H251 0.930 . S
N248 Gd235 2.601 . S
N248 C238 1.359 . S
N248 C247 1.334 . S
C249 C247 1.394 . S
C249 C250 1.359 . S
C249 H261 0.930 . S
C250 C240 1.391 . S
C250 C249 1.359 . S
C250 H262 0.929 . S
H251 C247 0.930 . S
H252 C241 0.930 . S
H253 C270 0.930 . S
H254 C242 0.930 . S
H255 C243 0.930 . S
H256 C237 0.929 . S
H257 C275 0.930 . S
H258 C266 0.930 . S
H259 C267 0.930 . S
H260 C291 0.929 . S
H261 C249 0.930 . S
H262 C250 0.929 . S
H263 C292 0.930 . S
H264 C273 0.930 . S
N265 Gd234 2.661 . S
N265 C269 1.350 . S
N265 C270 1.307 . S
C266 H258 0.930 . S
C266 C267 1.355 . S
C266 C268 1.412 . S
C267 H259 0.930 . S
C267 C266 1.355 . S
C267 C270 1.402 . S
C268 C266 1.412 . S
C268 C269 1.417 . S
C268 C292 1.431 . S
C269 N265 1.350 . S
C269 C268 1.417 . S
C269 C272 1.426 . S
C270 H253 0.930 . S
C270 N265 1.307 . S
C270 C267 1.402 . S
N271 Gd234 2.601 . S
N271 C272 1.359 . S
N271 C275 1.334 . S
C272 C269 1.426 . S
C272 N271 1.359 . S
C272 C276 1.413 . S
C273 H264 0.930 . S
C273 C274 1.359 . S
C273 C275 1.394 . S
C274 C273 1.359 . S
C274 C276 1.391 . S
C274 H277 0.929 . S
C275 H257 0.930 . S
C275 N271 1.334 . S
C275 C273 1.394 . S
C276 C272 1.413 . S
C276 C274 1.391 . S
C276 C291 1.437 . S
H277 C274 0.929 . S
O278 Gd234 2.545 . S
O278 C293 1.258 . S
O279 Gd234 2.606 1_565 S
O279 Gd235 2.362 1_554 S
O279 C290 1.284 . S
O280 Gd235 2.324 1_545 S
O280 C300 1.279 . S
O281 Gd234 2.429 . S
O281 C300 1.232 1_554 S
O282 Gd234 2.545 1_565 S
O282 C290 1.250 . S
O283 Gd234 2.412 1_565 S
O283 C293 1.252 1_565 S
O284 Gd235 2.545 . S
O284 C302 1.258 . S
O285 Gd234 2.362 . S
O285 Gd235 2.606 1_544 S
O285 C301 1.284 1_554 S
O286 Gd234 2.324 1_565 S
O286 C309 1.254 . S
O287 Gd235 2.429 . S
O287 C309 1.268 1_556 S
O288 Gd235 2.545 1_545 S
O288 C301 1.250 . S
O289 Gd235 2.412 1_545 S
O289 C302 1.252 1_545 S
C290 O279 1.284 . S
C290 O282 1.250 . S
C291 H260 0.929 . S
C291 C276 1.437 . S
C291 C292 1.317 . S
C292 H263 0.930 . S
C292 C268 1.431 . S
C292 C291 1.317 . S
C293 Gd234 2.828 . S
C293 O278 1.258 . S
C293 O283 1.252 1_545 S
C293 C294 1.493 1_545 S
C294 C293 1.493 1_565 S
C294 C295 1.373 1_565 S
C294 C296 1.406 . S
C295 C294 1.373 1_545 S
C295 C298 1.398 . S
C295 H310 0.930 . S
C296 C294 1.406 . S
C296 C297 1.391 . S
C296 H311 0.930 . S
C297 C296 1.391 . S
C297 C299 1.387 . S
C298 C295 1.398 . S
C298 C299 1.380 1_545 S
C298 H312 0.930 . S
C299 C297 1.387 . S
C299 C298 1.380 1_565 S
C299 H313 0.930 . S
C300 O280 1.279 . S
C300 O281 1.232 1_556 S
C301 O285 1.284 1_556 S
C301 O288 1.250 . S
C302 Gd235 2.828 . S
C302 O284 1.258 . S
C302 O289 1.252 1_565 S
C302 C303 1.497 1_565 S
C303 C302 1.497 1_545 S
C303 C304 1.395 1_545 S
C303 C305 1.380 . S
C304 C303 1.395 1_565 S
C304 C307 1.398 . S
C304 H314 0.930 . S
C305 C303 1.380 . S
C305 C306 1.391 . S
C305 H315 0.930 . S
C306 C305 1.391 . S
C306 C308 1.387 . S
C307 C304 1.398 . S
C307 C308 1.380 1_565 S
C307 H316 0.930 . S
C308 C306 1.387 . S
C308 C307 1.380 1_545 S
C308 H317 0.930 . S
C309 O286 1.254 . S
C309 O287 1.268 1_554 S
H310 C295 0.930 . S
H311 C296 0.930 . S
H312 C298 0.930 . S
H313 C299 0.930 . S
H314 C304 0.930 . S
H315 C305 0.930 . S
H316 C307 0.930 . S
H317 C308 0.930 . S
Gd318 N349 2.661 . S
Gd318 N355 2.601 . S
Gd318 O362 2.545 . S
Gd318 O363 2.606 1_655 S
Gd318 O365 2.429 . S
Gd318 O366 2.545 1_655 S
Gd318 O367 2.412 1_655 S
Gd318 O369 2.362 . S
Gd318 O370 2.324 1_655 S
Gd318 C377 2.828 . S
Gd319 N328 2.661 . S
Gd319 N332 2.601 . S
Gd319 O363 2.362 1_556 S
Gd319 O364 2.324 1_455 S
Gd319 O368 2.545 . S
Gd319 O369 2.606 1_456 S
Gd319 O371 2.429 . S
Gd319 O372 2.545 1_455 S
Gd319 O373 2.412 1_455 S
Gd319 C386 2.828 . S
C320 C323 1.417 . S
C320 C325 1.431 . S
C320 C326 1.412 . S
C321 C324 1.437 . S
C321 C325 1.317 . S
C321 H340 0.929 . S
C322 C323 1.426 . S
C322 C324 1.413 . S
C322 N332 1.359 . S
C323 C320 1.417 . S
C323 C322 1.426 . S
C323 N328 1.350 . S
C324 C321 1.437 . S
C324 C322 1.413 . S
C324 C334 1.391 . S
C325 C320 1.431 . S
C325 C321 1.317 . S
C325 H336 0.930 . S
C326 C320 1.412 . S
C326 C327 1.355 . S
C326 H338 0.930 . S
C327 C326 1.355 . S
C327 C329 1.402 . S
C327 H339 0.930 . S
N328 Gd319 2.661 . S
N328 C323 1.350 . S
N328 C329 1.307 . S
C329 C327 1.402 . S
C329 N328 1.307 . S
C329 H330 0.930 . S
H330 C329 0.930 . S
C331 N332 1.334 . S
C331 C333 1.394 . S
C331 H335 0.930 . S
N332 Gd319 2.601 . S
N332 C322 1.359 . S
N332 C331 1.334 . S
C333 C331 1.394 . S
C333 C334 1.359 . S
C333 H345 0.930 . S
C334 C324 1.391 . S
C334 C333 1.359 . S
C334 H346 0.929 . S
H335 C331 0.930 . S
H336 C325 0.930 . S
H337 C354 0.930 . S
H338 C326 0.930 . S
H339 C327 0.930 . S
H340 C321 0.929 . S
H341 C359 0.930 . S
H342 C350 0.930 . S
H343 C351 0.930 . S
H344 C375 0.929 . S
H345 C333 0.930 . S
H346 C334 0.929 . S
H347 C376 0.930 . S
H348 C357 0.930 . S
N349 Gd318 2.661 . S
N349 C353 1.350 . S
N349 C354 1.307 . S
C350 H342 0.930 . S
C350 C351 1.355 . S
C350 C352 1.412 . S
C351 H343 0.930 . S
C351 C350 1.355 . S
C351 C354 1.402 . S
C352 C350 1.412 . S
C352 C353 1.417 . S
C352 C376 1.431 . S
C353 N349 1.350 . S
C353 C352 1.417 . S
C353 C356 1.426 . S
C354 H337 0.930 . S
C354 N349 1.307 . S
C354 C351 1.402 . S
N355 Gd318 2.601 . S
N355 C356 1.359 . S
N355 C359 1.334 . S
C356 C353 1.426 . S
C356 N355 1.359 . S
C356 C360 1.413 . S
C357 H348 0.930 . S
C357 C358 1.359 . S
C357 C359 1.394 . S
C358 C357 1.359 . S
C358 C360 1.391 . S
C358 H361 0.929 . S
C359 H341 0.930 . S
C359 N355 1.334 . S
C359 C357 1.394 . S
C360 C356 1.413 . S
C360 C358 1.391 . S
C360 C375 1.437 . S
H361 C358 0.929 . S
O362 Gd318 2.545 . S
O362 C377 1.258 . S
O363 Gd318 2.606 1_455 S
O363 Gd319 2.362 1_554 S
O363 C374 1.284 . S
O364 Gd319 2.324 1_655 S
O364 C384 1.254 . S
O365 Gd318 2.429 . S
O365 C384 1.268 1_554 S
O366 Gd318 2.545 1_455 S
O366 C374 1.250 . S
O367 Gd318 2.412 1_455 S
O367 C377 1.252 1_455 S
O368 Gd319 2.545 . S
O368 C386 1.258 . S
O369 Gd318 2.362 . S
O369 Gd319 2.606 1_654 S
O369 C385 1.284 1_554 S
O370 Gd318 2.324 1_455 S
O370 C393 1.254 . S
O371 Gd319 2.429 . S
O371 C393 1.268 1_556 S
O372 Gd319 2.545 1_655 S
O372 C385 1.250 . S
O373 Gd319 2.412 1_655 S
O373 C386 1.252 1_655 S
C374 O363 1.284 . S
C374 O366 1.250 . S
C375 H344 0.929 . S
C375 C360 1.437 . S
C375 C376 1.317 . S
C376 H347 0.930 . S
C376 C352 1.431 . S
C376 C375 1.317 . S
C377 Gd318 2.828 . S
C377 O362 1.258 . S
C377 O367 1.252 1_655 S
C377 C378 1.497 1_655 S
C378 C377 1.497 1_455 S
C378 C379 1.395 1_455 S
C378 C380 1.380 . S
C379 C378 1.395 1_655 S
C379 C382 1.398 . S
C379 H394 0.930 . S
C380 C378 1.380 . S
C380 C381 1.391 . S
C380 H395 0.930 . S
C381 C380 1.391 . S
C381 C383 1.387 . S
C382 C379 1.398 . S
C382 C383 1.380 1_655 S
C382 H396 0.930 . S
C383 C381 1.387 . S
C383 C382 1.380 1_455 S
C383 H397 0.930 . S
C384 O364 1.254 . S
C384 O365 1.268 1_556 S
C385 O369 1.284 1_556 S
C385 O372 1.250 . S
C386 Gd319 2.828 . S
C386 O368 1.258 . S
C386 O373 1.252 1_455 S
C386 C387 1.497 . S
C387 C386 1.497 . S
C387 C388 1.395 . S
C387 C389 1.380 1_455 S
C388 C387 1.395 . S
C388 C391 1.398 . S
C388 H398 0.930 . S
C389 C387 1.380 1_655 S
C389 C390 1.391 . S
C389 H399 0.930 . S
C390 C389 1.391 . S
C390 C392 1.387 . S
C391 C388 1.398 . S
C391 C392 1.380 1_455 S
C391 H400 0.930 . S
C392 C390 1.387 . S
C392 C391 1.380 1_655 S
C392 H401 0.930 . S
C393 O370 1.254 . S
C393 O371 1.268 1_554 S
H394 C379 0.930 . S
H395 C380 0.930 . S
H396 C382 0.930 . S
H397 C383 0.930 . S
H398 C388 0.930 . S
H399 C389 0.930 . S
H400 C391 0.930 . S
H401 C392 0.930 . S
Gd402 N433 2.661 . S
Gd402 N439 2.601 . S
Gd402 O446 2.545 . S
Gd402 O447 2.606 1_556 S
Gd402 O449 2.429 . S
Gd402 O450 2.545 . S
Gd402 O451 2.412 . S
Gd402 O453 2.362 1_556 S
Gd402 O454 2.324 . S
Gd402 C461 2.828 . S
Gd403 N412 2.661 . S
Gd403 N416 2.601 . S
Gd403 O447 2.362 . S
Gd403 O448 2.324 . S
Gd403 O452 2.545 . S
Gd403 O453 2.606 . S
Gd403 O455 2.429 . S
Gd403 O456 2.545 . S
Gd403 O457 2.412 . S
Gd403 C470 2.828 . S
C404 C407 1.417 . S
C404 C409 1.431 . S
C404 C410 1.412 . S
C405 C408 1.437 . S
C405 C409 1.317 . S
C405 H424 0.929 . S
C406 C407 1.426 . S
C406 C408 1.413 . S
C406 N416 1.359 . S
C407 C404 1.417 . S
C407 C406 1.426 . S
C407 N412 1.350 . S
C408 C405 1.437 . S
C408 C406 1.413 . S
C408 C418 1.391 . S
C409 C404 1.431 . S
C409 C405 1.317 . S
C409 H420 0.930 . S
C410 C404 1.412 . S
C410 C411 1.355 . S
C410 H422 0.930 . S
C411 C410 1.355 . S
C411 C413 1.402 . S
C411 H423 0.930 . S
N412 Gd403 2.661 . S
N412 C407 1.350 . S
N412 C413 1.307 . S
C413 C411 1.402 . S
C413 N412 1.307 . S
C413 H414 0.930 . S
H414 C413 0.930 . S
C415 N416 1.334 . S
C415 C417 1.394 . S
C415 H419 0.930 . S
N416 Gd403 2.601 . S
N416 C406 1.359 . S
N416 C415 1.334 . S
C417 C415 1.394 . S
C417 C418 1.359 . S
C417 H429 0.930 . S
C418 C408 1.391 . S
C418 C417 1.359 . S
C418 H430 0.929 . S
H419 C415 0.930 . S
H420 C409 0.930 . S
H421 C438 0.930 . S
H422 C410 0.930 . S
H423 C411 0.930 . S
H424 C405 0.929 . S
H425 C443 0.930 . S
H426 C434 0.930 . S
H427 C435 0.930 . S
H428 C459 0.929 . S
H429 C417 0.930 . S
H430 C418 0.929 . S
H431 C460 0.930 . S
H432 C441 0.930 . S
N433 Gd402 2.661 . S
N433 C437 1.350 . S
N433 C438 1.307 . S
C434 H426 0.930 . S
C434 C435 1.355 . S
C434 C436 1.412 . S
C435 H427 0.930 . S
C435 C434 1.355 . S
C435 C438 1.402 . S
C436 C434 1.412 . S
C436 C437 1.417 . S
C436 C460 1.431 . S
C437 N433 1.350 . S
C437 C436 1.417 . S
C437 C440 1.426 . S
C438 H421 0.930 . S
C438 N433 1.307 . S
C438 C435 1.402 . S
N439 Gd402 2.601 . S
N439 C440 1.359 . S
N439 C443 1.334 . S
C440 C437 1.426 . S
C440 N439 1.359 . S
C440 C444 1.413 . S
C441 H432 0.930 . S
C441 C442 1.359 . S
C441 C443 1.394 . S
C442 C441 1.359 . S
C442 C444 1.391 . S
C442 H445 0.929 . S
C443 H425 0.930 . S
C443 N439 1.334 . S
C443 C441 1.394 . S
C444 C440 1.413 . S
C444 C442 1.391 . S
C444 C459 1.437 . S
H445 C442 0.929 . S
O446 Gd402 2.545 . S
O446 C461 1.258 . S
O447 Gd402 2.606 1_554 S
O447 Gd403 2.362 . S
O447 C458 1.284 1_554 S
O448 Gd403 2.324 . S
O448 C468 1.254 . S
O449 Gd402 2.429 . S
O449 C468 1.268 1_556 S
O450 Gd402 2.545 . S
O450 C458 1.250 . S
O451 Gd402 2.412 . S
O451 C461 1.252 . S
O452 Gd403 2.545 . S
O452 C470 1.258 . S
O453 Gd402 2.362 1_554 S
O453 Gd403 2.606 . S
O453 C469 1.284 . S
O454 Gd402 2.324 . S
O454 C477 1.261 . S
O455 Gd403 2.429 . S
O455 C477 1.258 1_554 S
O456 Gd403 2.545 . S
O456 C469 1.250 . S
O457 Gd403 2.412 . S
O457 C470 1.252 . S
C458 O447 1.284 1_556 S
C458 O450 1.250 . S
C459 H428 0.929 . S
C459 C444 1.437 . S
C459 C460 1.317 . S
C460 H431 0.930 . S
C460 C436 1.431 . S
C460 C459 1.317 . S
C461 Gd402 2.828 . S
C461 O446 1.258 . S
C461 O451 1.252 . S
C461 C462 1.497 . S
C462 C461 1.497 . S
C462 C463 1.395 . S
C462 C464 1.380 . S
C463 C462 1.395 . S
C463 C466 1.398 . S
C463 H478 0.930 . S
C464 C462 1.380 . S
C464 C465 1.391 . S
C464 H479 0.930 . S
C465 C464 1.391 . S
C465 C467 1.387 . S
C466 C463 1.398 . S
C466 C467 1.380 . S
C466 H480 0.930 . S
C467 C465 1.387 . S
C467 C466 1.380 . S
C467 H481 0.930 . S
C468 O448 1.254 . S
C468 O449 1.268 1_554 S
C469 O453 1.284 . S
C469 O456 1.250 . S
C470 Gd403 2.828 . S
C470 O452 1.258 . S
C470 O457 1.252 . S
C470 C471 1.497 . S
C471 C470 1.497 . S
C471 C472 1.395 . S
C471 C473 1.380 . S
C472 C471 1.395 . S
C472 C475 1.398 . S
C472 H482 0.930 . S
C473 C471 1.380 . S
C473 C474 1.391 . S
C473 H483 0.930 . S
C474 C473 1.391 . S
C474 C476 1.387 . S
C475 C472 1.398 . S
C475 C476 1.380 . S
C475 H484 0.930 . S
C476 C474 1.387 . S
C476 C475 1.380 . S
C476 H485 0.930 . S
C477 O454 1.261 . S
C477 O455 1.258 1_556 S
H478 C463 0.930 . S
H479 C464 0.930 . S
H480 C466 0.930 . S
H481 C467 0.930 . S
H482 C472 0.930 . S
H483 C473 0.930 . S
H484 C475 0.930 . S
H485 C476 0.930 . S
Gd486 N517 2.661 . S
Gd486 N523 2.601 . S
Gd486 O530 2.545 . S
Gd486 O531 2.606 . S
Gd486 O533 2.429 . S
Gd486 O534 2.545 . S
Gd486 O535 2.412 . S
Gd486 O537 2.362 . S
Gd486 O538 2.324 . S
Gd486 C545 2.828 . S
Gd487 N496 2.661 . S
Gd487 N500 2.601 . S
Gd487 O531 2.362 . S
Gd487 O532 2.324 . S
Gd487 O536 2.545 . S
Gd487 O537 2.606 . S
Gd487 O539 2.429 . S
Gd487 O540 2.545 . S
Gd487 O541 2.412 . S
Gd487 C554 2.828 . S
C488 C491 1.417 . S
C488 C493 1.431 . S
C488 C494 1.397 1_455 S
C489 C492 1.437 . S
C489 C493 1.317 . S
C489 H508 0.929 . S
C490 C491 1.426 . S
C490 C492 1.413 . S
C490 N500 1.359 . S
C491 C488 1.417 . S
C491 C490 1.426 . S
C491 N496 1.350 . S
C492 C489 1.437 . S
C492 C490 1.413 . S
C492 C502 1.391 . S
C493 C488 1.431 . S
C493 C489 1.317 . S
C493 H504 0.930 1_455 S
C494 C488 1.397 1_655 S
C494 C495 1.354 1_655 S
C494 H506 0.946 . S
C495 C494 1.354 1_455 S
C495 C497 1.402 . S
C495 H507 0.930 . S
N496 Gd487 2.661 . S
N496 C491 1.350 . S
N496 C497 1.307 . S
C497 C495 1.402 . S
C497 N496 1.307 . S
C497 H498 0.930 . S
H498 C497 0.930 . S
C499 N500 1.334 . S
C499 C501 1.394 . S
C499 H503 0.930 . S
N500 Gd487 2.601 . S
N500 C490 1.359 . S
N500 C499 1.334 . S
C501 C499 1.394 . S
C501 C502 1.359 . S
C501 H513 0.930 . S
C502 C492 1.391 . S
C502 C501 1.359 . S
C502 H514 0.929 . S
H503 C499 0.930 . S
H504 C493 0.930 1_655 S
H505 C522 0.930 . S
H506 C494 0.946 . S
H507 C495 0.930 . S
H508 C489 0.929 . S
H509 C527 0.930 . S
H510 C518 0.930 . S
H511 C519 0.930 . S
H512 C543 0.929 . S
H513 C501 0.930 . S
H514 C502 0.929 . S
H515 C544 0.930 . S
H516 C525 0.930 . S
N517 Gd486 2.661 . S
N517 C521 1.350 . S
N517 C522 1.307 . S
C518 H510 0.930 . S
C518 C519 1.355 . S
C518 C520 1.412 . S
C519 H511 0.930 . S
C519 C518 1.355 . S
C519 C522 1.402 . S
C520 C518 1.412 . S
C520 C521 1.417 . S
C520 C544 1.431 . S
C521 N517 1.350 . S
C521 C520 1.417 . S
C521 C524 1.426 . S
C522 H505 0.930 . S
C522 N517 1.307 . S
C522 C519 1.402 . S
N523 Gd486 2.601 . S
N523 C524 1.359 . S
N523 C527 1.334 . S
C524 C521 1.426 . S
C524 N523 1.359 . S
C524 C528 1.413 . S
C525 H516 0.930 . S
C525 C526 1.359 . S
C525 C527 1.394 . S
C526 C525 1.359 . S
C526 C528 1.391 . S
C526 H529 0.929 . S
C527 H509 0.930 . S
C527 N523 1.334 . S
C527 C525 1.394 . S
C528 C524 1.413 . S
C528 C526 1.391 . S
C528 C543 1.437 . S
H529 C526 0.929 . S
O530 Gd486 2.545 . S
O530 C545 1.258 . S
O531 Gd486 2.606 . S
O531 Gd487 2.362 . S
O531 C542 1.284 . S
O532 Gd487 2.324 . S
O532 C552 1.254 . S
O533 Gd486 2.429 . S
O533 C552 1.268 . S
O534 Gd486 2.545 . S
O534 C542 1.250 . S
O535 Gd486 2.412 . S
O535 C545 1.252 . S
O536 Gd487 2.545 . S
O536 C554 1.258 . S
O537 Gd486 2.362 . S
O537 Gd487 2.606 . S
O537 C553 1.284 . S
O538 Gd486 2.324 . S
O538 C561 1.254 . S
O539 Gd487 2.429 . S
O539 C561 1.268 . S
O540 Gd487 2.545 . S
O540 C553 1.250 . S
O541 Gd487 2.412 . S
O541 C554 1.252 . S
C542 O531 1.284 . S
C542 O534 1.250 . S
C543 H512 0.929 . S
C543 C528 1.437 . S
C543 C544 1.317 . S
C544 H515 0.930 . S
C544 C520 1.431 . S
C544 C543 1.317 . S
C545 Gd486 2.828 . S
C545 O530 1.258 . S
C545 O535 1.252 . S
C545 C546 1.497 . S
C546 C545 1.497 . S
C546 C547 1.395 . S
C546 C548 1.380 . S
C547 C546 1.395 . S
C547 C550 1.398 . S
C547 H562 0.930 . S
C548 C546 1.380 . S
C548 C549 1.391 . S
C548 H563 0.930 . S
C549 C548 1.391 . S
C549 C551 1.387 . S
C550 C547 1.398 . S
C550 C551 1.380 . S
C550 H564 0.930 . S
C551 C549 1.387 . S
C551 C550 1.380 . S
C551 H565 0.930 . S
C552 O532 1.254 . S
C552 O533 1.268 . S
C553 O537 1.284 . S
C553 O540 1.250 . S
C554 Gd487 2.828 . S
C554 O536 1.258 . S
C554 O541 1.252 . S
C554 C555 1.497 . S
C555 C554 1.497 . S
C555 C556 1.395 . S
C555 C557 1.380 . S
C556 C555 1.395 . S
C556 C559 1.398 . S
C556 H566 0.930 . S
C557 C555 1.380 . S
C557 C558 1.391 . S
C557 H567 0.930 . S
C558 C557 1.391 . S
C558 C560 1.387 . S
C559 C556 1.398 . S
C559 C560 1.380 . S
C559 H568 0.930 . S
C560 C558 1.387 . S
C560 C559 1.380 . S
C560 H569 0.930 . S
C561 O538 1.254 . S
C561 O539 1.268 . S
H562 C547 0.930 . S
H563 C548 0.930 . S
H564 C550 0.930 . S
H565 C551 0.930 . S
H566 C556 0.930 . S
H567 C557 0.930 . S
H568 C559 0.930 . S
H569 C560 0.930 . S
Gd570 N601 2.661 . S
Gd570 N607 2.601 . S
Gd570 O614 2.545 . S
Gd570 O615 2.606 . S
Gd570 O617 2.429 . S
Gd570 O618 2.545 . S
Gd570 O619 2.412 . S
Gd570 O621 2.362 . S
Gd570 O622 2.324 . S
Gd570 C629 2.828 . S
Gd571 N580 2.661 . S
Gd571 N584 2.601 . S
Gd571 O615 2.362 . S
Gd571 O616 2.324 . S
Gd571 O620 2.545 . S
Gd571 O621 2.606 . S
Gd571 O623 2.429 . S
Gd571 O624 2.545 . S
Gd571 O625 2.412 . S
Gd571 C638 2.828 . S
C572 C575 1.417 . S
C572 C577 1.431 . S
C572 C578 1.412 . S
C573 C576 1.437 . S
C573 C577 1.317 . S
C573 H592 0.929 . S
C574 C575 1.426 . S
C574 C576 1.413 . S
C574 N584 1.359 . S
C575 C572 1.417 . S
C575 C574 1.426 . S
C575 N580 1.350 . S
C576 C573 1.437 . S
C576 C574 1.413 . S
C576 C586 1.391 . S
C577 C572 1.431 . S
C577 C573 1.317 . S
C577 H588 0.930 . S
C578 C572 1.412 . S
C578 C579 1.355 . S
C578 H590 0.930 . S
C579 C578 1.355 . S
C579 C581 1.402 . S
C579 H591 0.930 . S
N580 Gd571 2.661 . S
N580 C575 1.350 . S
N580 C581 1.307 . S
C581 C579 1.402 . S
C581 N580 1.307 . S
C581 H582 0.930 . S
H582 C581 0.930 . S
C583 N584 1.334 . S
C583 C585 1.394 . S
C583 H587 0.930 . S
N584 Gd571 2.601 . S
N584 C574 1.359 . S
N584 C583 1.334 . S
C585 C583 1.394 . S
C585 C586 1.359 . S
C585 H597 0.930 . S
C586 C576 1.391 . S
C586 C585 1.359 . S
C586 H598 0.929 . S
H587 C583 0.930 . S
H588 C577 0.930 . S
H589 C606 0.930 . S
H590 C578 0.930 . S
H591 C579 0.930 . S
H592 C573 0.929 . S
H593 C611 0.930 . S
H594 C602 0.930 . S
H595 C603 0.930 . S
H596 C627 0.929 . S
H597 C585 0.930 . S
H598 C586 0.929 . S
H599 C628 0.930 . S
H600 C609 0.930 . S
N601 Gd570 2.661 . S
N601 C605 1.350 . S
N601 C606 1.307 . S
C602 H594 0.930 . S
C602 C603 1.355 . S
C602 C604 1.412 . S
C603 H595 0.930 . S
C603 C602 1.355 . S
C603 C606 1.402 . S
C604 C602 1.412 . S
C604 C605 1.417 . S
C604 C628 1.431 . S
C605 N601 1.350 . S
C605 C604 1.417 . S
C605 C608 1.426 . S
C606 H589 0.930 . S
C606 N601 1.307 . S
C606 C603 1.402 . S
N607 Gd570 2.601 . S
N607 C608 1.359 . S
N607 C611 1.334 . S
C608 C605 1.426 . S
C608 N607 1.359 . S
C608 C612 1.413 . S
C609 H600 0.930 . S
C609 C610 1.359 . S
C609 C611 1.394 . S
C610 C609 1.359 . S
C610 C612 1.391 . S
C610 H613 0.929 . S
C611 H593 0.930 . S
C611 N607 1.334 . S
C611 C609 1.394 . S
C612 C608 1.413 . S
C612 C610 1.391 . S
C612 C627 1.437 . S
H613 C610 0.929 . S
O614 Gd570 2.545 . S
O614 C629 1.258 . S
O615 Gd570 2.606 . S
O615 Gd571 2.362 . S
O615 C626 1.284 . S
O616 Gd571 2.324 . S
O616 C636 1.254 . S
O617 Gd570 2.429 . S
O617 C636 1.268 . S
O618 Gd570 2.545 . S
O618 C626 1.250 . S
O619 Gd570 2.412 . S
O619 C629 1.252 . S
O620 Gd571 2.545 . S
O620 C638 1.258 . S
O621 Gd570 2.362 . S
O621 Gd571 2.606 . S
O621 C637 1.284 . S
O622 Gd570 2.324 . S
O622 C645 1.254 . S
O623 Gd571 2.429 . S
O623 C645 1.268 . S
O624 Gd571 2.545 . S
O624 C637 1.250 . S
O625 Gd571 2.412 . S
O625 C638 1.252 . S
C626 O615 1.284 . S
C626 O618 1.250 . S
C627 H596 0.929 . S
C627 C612 1.437 . S
C627 C628 1.317 . S
C628 H599 0.930 . S
C628 C604 1.431 . S
C628 C627 1.317 . S
C629 Gd570 2.828 . S
C629 O614 1.258 . S
C629 O619 1.252 . S
C629 C630 1.497 . S
C630 C629 1.497 . S
C630 C631 1.395 . S
C630 C632 1.380 . S
C631 C630 1.395 . S
C631 C634 1.398 . S
C631 H646 0.930 . S
C632 C630 1.380 . S
C632 C633 1.391 . S
C632 H647 0.930 . S
C633 C632 1.391 . S
C633 C635 1.387 . S
C634 C631 1.398 . S
C634 C635 1.380 . S
C634 H648 0.930 . S
C635 C633 1.387 . S
C635 C634 1.380 . S
C635 H649 0.930 . S
C636 O616 1.254 . S
C636 O617 1.268 . S
C637 O621 1.284 . S
C637 O624 1.250 . S
C638 Gd571 2.828 . S
C638 O620 1.258 . S
C638 O625 1.252 . S
C638 C639 1.497 . S
C639 C638 1.497 . S
C639 C640 1.395 . S
C639 C641 1.380 . S
C640 C639 1.395 . S
C640 C643 1.398 . S
C640 H650 0.930 . S
C641 C639 1.380 . S
C641 C642 1.391 . S
C641 H651 0.930 . S
C642 C641 1.391 . S
C642 C644 1.387 . S
C643 C640 1.398 . S
C643 C644 1.380 . S
C643 H652 0.930 . S
C644 C642 1.387 . S
C644 C643 1.380 . S
C644 H653 0.930 . S
C645 O622 1.254 . S
C645 O623 1.268 . S
H646 C631 0.930 . S
H647 C632 0.930 . S
H648 C634 0.930 . S
H649 C635 0.930 . S
H650 C640 0.930 . S
H651 C641 0.930 . S
H652 C643 0.930 . S
H653 C644 0.930 . S
Gd654 N685 2.661 . S
Gd654 N691 2.601 . S
Gd654 O698 2.545 . S
Gd654 O699 2.606 . S
Gd654 O701 2.429 . S
Gd654 O702 2.545 . S
Gd654 O703 2.412 . S
Gd654 O705 2.362 . S
Gd654 O706 2.324 . S
Gd654 C713 2.828 . S
Gd655 N664 2.661 . S
Gd655 N668 2.601 . S
Gd655 O699 2.362 . S
Gd655 O700 2.324 . S
Gd655 O704 2.545 . S
Gd655 O705 2.606 . S
Gd655 O707 2.429 . S
Gd655 O708 2.545 . S
Gd655 O709 2.412 . S
Gd655 C722 2.828 . S
C656 C659 1.417 . S
C656 C661 1.431 . S
C656 C662 1.412 . S
C657 C660 1.437 . S
C657 C661 1.317 . S
C657 H676 0.929 . S
C658 C659 1.426 . S
C658 C660 1.413 . S
C658 N668 1.359 . S
C659 C656 1.417 . S
C659 C658 1.426 . S
C659 N664 1.350 . S
C660 C657 1.437 . S
C660 C658 1.413 . S
C660 C670 1.391 . S
C661 C656 1.431 . S
C661 C657 1.317 . S
C661 H672 0.930 . S
C662 C656 1.412 . S
C662 C663 1.355 . S
C662 H674 0.930 . S
C663 C662 1.355 . S
C663 C665 1.402 . S
C663 H675 0.930 . S
N664 Gd655 2.661 . S
N664 C659 1.350 . S
N664 C665 1.307 . S
C665 C663 1.402 . S
C665 N664 1.307 . S
C665 H666 0.930 . S
H666 C665 0.930 . S
C667 N668 1.334 . S
C667 C669 1.394 . S
C667 H671 0.930 . S
N668 Gd655 2.601 . S
N668 C658 1.359 . S
N668 C667 1.334 . S
C669 C667 1.394 . S
C669 C670 1.359 . S
C669 H681 0.930 . S
C670 C660 1.391 . S
C670 C669 1.359 . S
C670 H682 0.929 . S
H671 C667 0.930 . S
H672 C661 0.930 . S
H673 C690 0.930 . S
H674 C662 0.930 . S
H675 C663 0.930 . S
H676 C657 0.929 . S
H677 C695 0.930 . S
H678 C686 0.930 . S
H679 C687 0.930 . S
H680 C711 0.929 . S
H681 C669 0.930 . S
H682 C670 0.929 . S
H683 C712 0.930 . S
H684 C693 0.930 . S
N685 Gd654 2.661 . S
N685 C689 1.350 . S
N685 C690 1.307 . S
C686 H678 0.930 . S
C686 C687 1.355 . S
C686 C688 1.412 . S
C687 H679 0.930 . S
C687 C686 1.355 . S
C687 C690 1.402 . S
C688 C686 1.412 . S
C688 C689 1.417 . S
C688 C712 1.431 . S
C689 N685 1.350 . S
C689 C688 1.417 . S
C689 C692 1.426 . S
C690 H673 0.930 . S
C690 N685 1.307 . S
C690 C687 1.402 . S
N691 Gd654 2.601 . S
N691 C692 1.359 . S
N691 C695 1.334 . S
C692 C689 1.426 . S
C692 N691 1.359 . S
C692 C696 1.413 . S
C693 H684 0.930 . S
C693 C694 1.359 . S
C693 C695 1.394 . S
C694 C693 1.359 . S
C694 C696 1.391 . S
C694 H697 0.929 . S
C695 H677 0.930 . S
C695 N691 1.334 . S
C695 C693 1.394 . S
C696 C692 1.413 . S
C696 C694 1.391 . S
C696 C711 1.437 . S
H697 C694 0.929 . S
O698 Gd654 2.545 . S
O698 C713 1.258 . S
O699 Gd654 2.606 . S
O699 Gd655 2.362 . S
O699 C710 1.284 . S
O700 Gd655 2.324 . S
O700 C720 1.254 . S
O701 Gd654 2.429 . S
O701 C720 1.268 . S
O702 Gd654 2.545 . S
O702 C710 1.250 . S
O703 Gd654 2.412 . S
O703 C713 1.252 . S
O704 Gd655 2.545 . S
O704 C722 1.258 . S
O705 Gd654 2.362 . S
O705 Gd655 2.606 . S
O705 C721 1.284 . S
O706 Gd654 2.324 . S
O706 C729 1.254 . S
O707 Gd655 2.429 . S
O707 C729 1.268 . S
O708 Gd655 2.545 . S
O708 C721 1.250 . S
O709 Gd655 2.412 . S
O709 C722 1.252 . S
C710 O699 1.284 . S
C710 O702 1.250 . S
C711 H680 0.929 . S
C711 C696 1.437 . S
C711 C712 1.317 . S
C712 H683 0.930 . S
C712 C688 1.431 . S
C712 C711 1.317 . S
C713 Gd654 2.828 . S
C713 O698 1.258 . S
C713 O703 1.252 . S
C713 C714 1.497 . S
C714 C713 1.497 . S
C714 C715 1.395 . S
C714 C716 1.380 . S
C715 C714 1.395 . S
C715 C718 1.398 . S
C715 H730 0.930 . S
C716 C714 1.380 . S
C716 C717 1.391 . S
C716 H731 0.930 . S
C717 C716 1.391 . S
C717 C719 1.387 . S
C718 C715 1.398 . S
C718 C719 1.380 . S
C718 H732 0.930 . S
C719 C717 1.387 . S
C719 C718 1.380 . S
C719 H733 0.930 . S
C720 O700 1.254 . S
C720 O701 1.268 . S
C721 O705 1.284 . S
C721 O708 1.250 . S
C722 Gd655 2.828 . S
C722 O704 1.258 . S
C722 O709 1.252 . S
C722 C723 1.497 . S
C723 C722 1.497 . S
C723 C724 1.395 . S
C723 C725 1.380 . S
C724 C723 1.395 . S
C724 C727 1.398 . S
C724 H734 0.930 . S
C725 C723 1.380 . S
C725 C726 1.391 . S
C725 H735 0.930 . S
C726 C725 1.391 . S
C726 C728 1.387 . S
C727 C724 1.398 . S
C727 C728 1.380 . S
C727 H736 0.930 . S
C728 C726 1.387 . S
C728 C727 1.380 . S
C728 H737 0.930 . S
C729 O706 1.254 . S
C729 O707 1.268 . S
H730 C715 0.930 . S
H731 C716 0.930 . S
H732 C718 0.930 . S
H733 C719 0.930 . S
H734 C724 0.930 . S
H735 C725 0.930 . S
H736 C727 0.930 . S
H737 C728 0.930 . S
Gd738 N769 2.661 . S
Gd738 N775 2.601 . S
Gd738 O782 2.545 . S
Gd738 O783 2.606 . S
Gd738 O785 2.429 . S
Gd738 O786 2.545 . S
Gd738 O787 2.412 . S
Gd738 O789 2.362 . S
Gd738 O790 2.324 . S
Gd738 C797 2.828 . S
Gd739 N748 2.661 . S
Gd739 N752 2.601 . S
Gd739 O783 2.362 . S
Gd739 O784 2.324 . S
Gd739 O788 2.545 . S
Gd739 O789 2.606 . S
Gd739 O791 2.429 . S
Gd739 O792 2.545 . S
Gd739 O793 2.412 . S
Gd739 C806 2.828 . S
C740 C743 1.417 . S
C740 C745 1.431 . S
C740 C746 1.412 . S
C741 C744 1.437 . S
C741 C745 1.317 . S
C741 H760 0.929 . S
C742 C743 1.426 . S
C742 C744 1.413 . S
C742 N752 1.359 . S
C743 C740 1.417 . S
C743 C742 1.426 . S
C743 N748 1.350 . S
C744 C741 1.437 . S
C744 C742 1.413 . S
C744 C754 1.391 . S
C745 C740 1.431 . S
C745 C741 1.317 . S
C745 H756 0.930 . S
C746 C740 1.412 . S
C746 C747 1.355 . S
C746 H758 0.930 . S
C747 C746 1.355 . S
C747 C749 1.402 . S
C747 H759 0.930 . S
N748 Gd739 2.661 . S
N748 C743 1.350 . S
N748 C749 1.307 . S
C749 C747 1.402 . S
C749 N748 1.307 . S
C749 H750 0.930 . S
H750 C749 0.930 . S
C751 N752 1.334 . S
C751 C753 1.394 . S
C751 H755 0.930 . S
N752 Gd739 2.601 . S
N752 C742 1.359 . S
N752 C751 1.334 . S
C753 C751 1.394 . S
C753 C754 1.359 . S
C753 H765 0.930 . S
C754 C744 1.391 . S
C754 C753 1.359 . S
C754 H766 0.929 . S
H755 C751 0.930 . S
H756 C745 0.930 . S
H757 C774 0.930 . S
H758 C746 0.930 . S
H759 C747 0.930 . S
H760 C741 0.929 . S
H761 C779 0.930 . S
H762 C770 0.930 . S
H763 C771 0.930 . S
H764 C795 0.929 . S
H765 C753 0.930 . S
H766 C754 0.929 . S
H767 C796 0.930 . S
H768 C777 0.930 . S
N769 Gd738 2.661 . S
N769 C773 1.350 . S
N769 C774 1.307 . S
C770 H762 0.930 . S
C770 C771 1.355 . S
C770 C772 1.412 . S
C771 H763 0.930 . S
C771 C770 1.355 . S
C771 C774 1.402 . S
C772 C770 1.412 . S
C772 C773 1.417 . S
C772 C796 1.431 . S
C773 N769 1.350 . S
C773 C772 1.417 . S
C773 C776 1.426 . S
C774 H757 0.930 . S
C774 N769 1.307 . S
C774 C771 1.402 . S
N775 Gd738 2.601 . S
N775 C776 1.359 . S
N775 C779 1.334 . S
C776 C773 1.426 . S
C776 N775 1.359 . S
C776 C780 1.413 . S
C777 H768 0.930 . S
C777 C778 1.359 . S
C777 C779 1.394 . S
C778 C777 1.359 . S
C778 C780 1.391 . S
C778 H781 0.929 . S
C779 H761 0.930 . S
C779 N775 1.334 . S
C779 C777 1.394 . S
C780 C776 1.413 . S
C780 C778 1.391 . S
C780 C795 1.437 . S
H781 C778 0.929 . S
O782 Gd738 2.545 . S
O782 C797 1.258 . S
O783 Gd738 2.606 . S
O783 Gd739 2.362 . S
O783 C794 1.284 . S
O784 Gd739 2.324 . S
O784 C804 1.254 . S
O785 Gd738 2.429 . S
O785 C804 1.268 . S
O786 Gd738 2.545 . S
O786 C794 1.250 . S
O787 Gd738 2.412 . S
O787 C797 1.252 . S
O788 Gd739 2.545 . S
O788 C806 1.258 . S
O789 Gd738 2.362 . S
O789 Gd739 2.606 . S
O789 C805 1.284 . S
O790 Gd738 2.324 . S
O790 C813 1.254 . S
O791 Gd739 2.429 . S
O791 C813 1.268 . S
O792 Gd739 2.545 . S
O792 C805 1.250 . S
O793 Gd739 2.412 . S
O793 C806 1.252 . S
C794 O783 1.284 . S
C794 O786 1.250 . S
C795 H764 0.929 . S
C795 C780 1.437 . S
C795 C796 1.317 . S
C796 H767 0.930 . S
C796 C772 1.431 . S
C796 C795 1.317 . S
C797 Gd738 2.828 . S
C797 O782 1.258 . S
C797 O787 1.252 . S
C797 C798 1.497 . S
C798 C797 1.497 . S
C798 C799 1.395 . S
C798 C800 1.380 . S
C799 C798 1.395 . S
C799 C802 1.398 . S
C799 H814 0.930 . S
C800 C798 1.380 . S
C800 C801 1.391 . S
C800 H815 0.930 . S
C801 C800 1.391 . S
C801 C803 1.387 . S
C802 C799 1.398 . S
C802 C803 1.380 . S
C802 H816 0.930 . S
C803 C801 1.387 . S
C803 C802 1.380 . S
C803 H817 0.930 . S
C804 O784 1.254 . S
C804 O785 1.268 . S
C805 O789 1.284 . S
C805 O792 1.250 . S
C806 Gd739 2.828 . S
C806 O788 1.258 . S
C806 O793 1.252 . S
C806 C807 1.497 . S
C807 C806 1.497 . S
C807 C808 1.395 . S
C807 C809 1.380 . S
C808 C807 1.395 . S
C808 C811 1.398 . S
C808 H818 0.930 . S
C809 C807 1.380 . S
C809 C810 1.391 . S
C809 H819 0.930 . S
C810 C809 1.391 . S
C810 C812 1.387 . S
C811 C808 1.398 . S
C811 C812 1.380 . S
C811 H820 0.930 . S
C812 C810 1.387 . S
C812 C811 1.380 . S
C812 H821 0.930 . S
C813 O790 1.254 . S
C813 O791 1.268 . S
H814 C799 0.930 . S
H815 C800 0.930 . S
H816 C802 0.930 . S
H817 C803 0.930 . S
H818 C808 0.930 . S
H819 C809 0.930 . S
H820 C811 0.930 . S
H821 C812 0.930 . S
Gd822 N853 2.661 . S
Gd822 N859 2.601 . S
Gd822 O866 2.545 . S
Gd822 O867 2.606 . S
Gd822 O869 2.429 . S
Gd822 O870 2.545 . S
Gd822 O871 2.412 . S
Gd822 O873 2.362 . S
Gd822 O874 2.324 . S
Gd822 C881 2.828 . S
Gd823 N832 2.661 . S
Gd823 N836 2.601 . S
Gd823 O867 2.362 . S
Gd823 O868 2.324 . S
Gd823 O872 2.545 . S
Gd823 O873 2.606 . S
Gd823 O875 2.429 . S
Gd823 O876 2.545 . S
Gd823 O877 2.412 . S
Gd823 C890 2.828 . S
C824 C827 1.417 . S
C824 C829 1.431 . S
C824 C830 1.412 . S
C825 C828 1.437 . S
C825 C829 1.317 . S
C825 H844 0.929 . S
C826 C827 1.426 . S
C826 C828 1.413 . S
C826 N836 1.359 . S
C827 C824 1.417 . S
C827 C826 1.426 . S
C827 N832 1.350 . S
C828 C825 1.437 . S
C828 C826 1.413 . S
C828 C838 1.391 . S
C829 C824 1.431 . S
C829 C825 1.317 . S
C829 H840 0.930 . S
C830 C824 1.412 . S
C830 C831 1.355 . S
C830 H842 0.930 . S
C831 C830 1.355 . S
C831 C833 1.402 . S
C831 H843 0.930 . S
N832 Gd823 2.661 . S
N832 C827 1.350 . S
N832 C833 1.307 . S
C833 C831 1.402 . S
C833 N832 1.307 . S
C833 H834 0.930 . S
H834 C833 0.930 . S
C835 N836 1.334 . S
C835 C837 1.394 . S
C835 H839 0.930 . S
N836 Gd823 2.601 . S
N836 C826 1.359 . S
N836 C835 1.334 . S
C837 C835 1.394 . S
C837 C838 1.359 . S
C837 H849 0.930 . S
C838 C828 1.391 . S
C838 C837 1.359 . S
C838 H850 0.929 . S
H839 C835 0.930 . S
H840 C829 0.930 . S
H841 C858 0.930 . S
H842 C830 0.930 . S
H843 C831 0.930 . S
H844 C825 0.929 . S
H845 C863 0.930 . S
H846 C854 0.930 . S
H847 C855 0.930 . S
H848 C879 0.929 . S
H849 C837 0.930 . S
H850 C838 0.929 . S
H851 C880 0.930 . S
H852 C861 0.930 . S
N853 Gd822 2.661 . S
N853 C857 1.350 . S
N853 C858 1.307 . S
C854 H846 0.930 . S
C854 C855 1.355 . S
C854 C856 1.412 . S
C855 H847 0.930 . S
C855 C854 1.355 . S
C855 C858 1.402 . S
C856 C854 1.412 . S
C856 C857 1.417 . S
C856 C880 1.431 . S
C857 N853 1.350 . S
C857 C856 1.417 . S
C857 C860 1.426 . S
C858 H841 0.930 . S
C858 N853 1.307 . S
C858 C855 1.402 . S
N859 Gd822 2.601 . S
N859 C860 1.359 . S
N859 C863 1.334 . S
C860 C857 1.426 . S
C860 N859 1.359 . S
C860 C864 1.413 . S
C861 H852 0.930 . S
C861 C862 1.359 . S
C861 C863 1.394 . S
C862 C861 1.359 . S
C862 C864 1.391 . S
C862 H865 0.929 . S
C863 H845 0.930 . S
C863 N859 1.334 . S
C863 C861 1.394 . S
C864 C860 1.413 . S
C864 C862 1.391 . S
C864 C879 1.437 . S
H865 C862 0.929 . S
O866 Gd822 2.545 . S
O866 C881 1.258 . S
O867 Gd822 2.606 . S
O867 Gd823 2.362 . S
O867 C878 1.284 . S
O868 Gd823 2.324 . S
O868 C888 1.254 . S
O869 Gd822 2.429 . S
O869 C888 1.268 . S
O870 Gd822 2.545 . S
O870 C878 1.250 . S
O871 Gd822 2.412 . S
O871 C881 1.252 . S
O872 Gd823 2.545 . S
O872 C890 1.258 . S
O873 Gd822 2.362 . S
O873 Gd823 2.606 . S
O873 C889 1.284 . S
O874 Gd822 2.324 . S
O874 C897 1.254 . S
O875 Gd823 2.429 . S
O875 C897 1.268 . S
O876 Gd823 2.545 . S
O876 C889 1.250 . S
O877 Gd823 2.412 . S
O877 C890 1.252 . S
C878 O867 1.284 . S
C878 O870 1.250 . S
C879 H848 0.929 . S
C879 C864 1.437 . S
C879 C880 1.317 . S
C880 H851 0.930 . S
C880 C856 1.431 . S
C880 C879 1.317 . S
C881 Gd822 2.828 . S
C881 O866 1.258 . S
C881 O871 1.252 . S
C881 C882 1.497 . S
C882 C881 1.497 . S
C882 C883 1.395 . S
C882 C884 1.380 . S
C883 C882 1.395 . S
C883 C886 1.398 . S
C883 H898 0.930 . S
C884 C882 1.380 . S
C884 C885 1.391 . S
C884 H899 0.930 . S
C885 C884 1.391 . S
C885 C887 1.387 . S
C886 C883 1.398 . S
C886 C887 1.380 . S
C886 H900 0.930 . S
C887 C885 1.387 . S
C887 C886 1.380 . S
C887 H901 0.930 . S
C888 O868 1.254 . S
C888 O869 1.268 . S
C889 O873 1.284 . S
C889 O876 1.250 . S
C890 Gd823 2.828 . S
C890 O872 1.258 . S
C890 O877 1.252 . S
C890 C891 1.497 . S
C891 C890 1.497 . S
C891 C892 1.395 . S
C891 C893 1.380 . S
C892 C891 1.395 . S
C892 C895 1.398 . S
C892 H902 0.930 . S
C893 C891 1.380 . S
C893 C894 1.391 . S
C893 H903 0.930 . S
C894 C893 1.391 . S
C894 C896 1.387 . S
C895 C892 1.398 . S
C895 C896 1.380 . S
C895 H904 0.930 . S
C896 C894 1.387 . S
C896 C895 1.380 . S
C896 H905 0.930 . S
C897 O874 1.254 . S
C897 O875 1.268 . S
H898 C883 0.930 . S
H899 C884 0.930 . S
H900 C886 0.930 . S
H901 C887 0.930 . S
H902 C892 0.930 . S
H903 C893 0.930 . S
H904 C895 0.930 . S
H905 C896 0.930 . S
Gd906 N937 2.661 . S
Gd906 N943 2.601 . S
Gd906 O950 2.545 . S
Gd906 O951 2.606 . S
Gd906 O953 2.429 . S
Gd906 O954 2.545 . S
Gd906 O955 2.412 . S
Gd906 O957 2.362 . S
Gd906 O958 2.324 . S
Gd906 C965 2.828 . S
Gd907 N916 2.661 . S
Gd907 N920 2.601 . S
Gd907 O951 2.362 . S
Gd907 O952 2.324 . S
Gd907 O956 2.545 . S
Gd907 O957 2.606 . S
Gd907 O959 2.429 . S
Gd907 O960 2.545 . S
Gd907 O961 2.412 . S
Gd907 C974 2.828 . S
C908 C911 1.417 . S
C908 C913 1.431 1_655 S
C908 C914 1.412 1_655 S
C909 C912 1.437 . S
C909 C913 1.317 1_655 S
C909 H928 0.934 . S
C910 C911 1.426 . S
C910 C912 1.413 . S
C910 N920 1.359 . S
C911 C908 1.417 . S
C911 C910 1.426 . S
C911 N916 1.350 . S
C912 C909 1.437 . S
C912 C910 1.413 . S
C912 C922 1.391 . S
C913 C908 1.431 1_455 S
C913 C909 1.317 1_455 S
C913 H924 0.930 . S
C914 C908 1.412 1_455 S
C914 C915 1.355 1_455 S
C914 H926 0.930 . S
C915 C914 1.355 1_655 S
C915 C917 1.402 . S
C915 H927 0.930 1_655 S
N916 Gd907 2.661 . S
N916 C911 1.350 . S
N916 C917 1.307 . S
C917 C915 1.402 . S
C917 N916 1.307 . S
C917 H918 0.930 . S
H918 C917 0.930 . S
C919 N920 1.334 . S
C919 C921 1.394 . S
C919 H923 0.930 . S
N920 Gd907 2.601 . S
N920 C910 1.359 . S
N920 C919 1.334 . S
C921 C919 1.394 . S
C921 C922 1.359 . S
C921 H933 0.930 . S
C922 C912 1.391 . S
C922 C921 1.359 . S
C922 H934 0.929 . S
H923 C919 0.930 . S
H924 C913 0.930 . S
H925 C942 0.930 . S
H926 C914 0.930 . S
H927 C915 0.930 1_455 S
H928 C909 0.934 . S
H929 C947 0.930 . S
H930 C938 0.930 . S
H931 C939 0.930 . S
H932 C963 0.929 . S
H933 C921 0.930 . S
H934 C922 0.929 . S
H935 C964 0.930 . S
H936 C945 0.930 . S
N937 Gd906 2.661 . S
N937 C941 1.350 . S
N937 C942 1.307 . S
C938 H930 0.930 . S
C938 C939 1.355 . S
C938 C940 1.412 . S
C939 H931 0.930 . S
C939 C938 1.355 . S
C939 C942 1.402 . S
C940 C938 1.412 . S
C940 C941 1.417 . S
C940 C964 1.431 . S
C941 N937 1.350 . S
C941 C940 1.417 . S
C941 C944 1.426 . S
C942 H925 0.930 . S
C942 N937 1.307 . S
C942 C939 1.402 . S
N943 Gd906 2.601 . S
N943 C944 1.359 . S
N943 C947 1.334 . S
C944 C941 1.426 . S
C944 N943 1.359 . S
C944 C948 1.413 . S
C945 H936 0.930 . S
C945 C946 1.359 . S
C945 C947 1.394 . S
C946 C945 1.359 . S
C946 C948 1.391 . S
C946 H949 0.929 . S
C947 H929 0.930 . S
C947 N943 1.334 . S
C947 C945 1.394 . S
C948 C944 1.413 . S
C948 C946 1.391 . S
C948 C963 1.437 . S
H949 C946 0.929 . S
O950 Gd906 2.545 . S
O950 C965 1.258 . S
O951 Gd906 2.606 . S
O951 Gd907 2.362 . S
O951 C962 1.284 . S
O952 Gd907 2.324 . S
O952 C972 1.254 . S
O953 Gd906 2.429 . S
O953 C972 1.268 . S
O954 Gd906 2.545 . S
O954 C962 1.250 . S
O955 Gd906 2.412 . S
O955 C965 1.252 . S
O956 Gd907 2.545 . S
O956 C974 1.258 . S
O957 Gd906 2.362 . S
O957 Gd907 2.606 . S
O957 C973 1.284 . S
O958 Gd906 2.324 . S
O958 C981 1.254 . S
O959 Gd907 2.429 . S
O959 C981 1.268 . S
O960 Gd907 2.545 . S
O960 C973 1.250 . S
O961 Gd907 2.412 . S
O961 C974 1.252 . S
C962 O951 1.284 . S
C962 O954 1.250 . S
C963 H932 0.929 . S
C963 C948 1.437 . S
C963 C964 1.317 . S
C964 H935 0.930 . S
C964 C940 1.431 . S
C964 C963 1.317 . S
C965 Gd906 2.828 . S
C965 O950 1.258 . S
C965 O955 1.252 . S
C965 C966 1.497 . S
C966 C965 1.497 . S
C966 C967 1.395 . S
C966 C968 1.380 . S
C967 C966 1.395 . S
C967 C970 1.398 . S
C967 H982 0.930 . S
C968 C966 1.380 . S
C968 C969 1.391 . S
C968 H983 0.930 . S
C969 C968 1.391 . S
C969 C971 1.387 . S
C970 C967 1.398 . S
C970 C971 1.380 . S
C970 H984 0.930 . S
C971 C969 1.387 . S
C971 C970 1.380 . S
C971 H985 0.930 . S
C972 O952 1.254 . S
C972 O953 1.268 . S
C973 O957 1.284 . S
C973 O960 1.250 . S
C974 Gd907 2.828 . S
C974 O956 1.258 . S
C974 O961 1.252 . S
C974 C975 1.497 . S
C975 C974 1.497 . S
C975 C976 1.395 . S
C975 C977 1.380 . S
C976 C975 1.395 . S
C976 C979 1.398 . S
C976 H986 0.930 . S
C977 C975 1.380 . S
C977 C978 1.391 . S
C977 H987 0.930 . S
C978 C977 1.391 . S
C978 C980 1.387 . S
C979 C976 1.398 . S
C979 C980 1.380 . S
C979 H988 0.930 . S
C980 C978 1.387 . S
C980 C979 1.380 . S
C980 H989 0.930 . S
C981 O958 1.254 . S
C981 O959 1.268 . S
H982 C967 0.930 . S
H983 C968 0.930 . S
H984 C970 0.930 . S
H985 C971 0.930 . S
H986 C976 0.930 . S
H987 C977 0.930 . S
H988 C979 0.930 . S
H989 C980 0.930 . S
H990 C996 0.930 . S
H991 C999 0.930 . S
H992 C1000 0.930 . S
H993 C1001 0.930 . S
H994 C1004 0.930 . S
H995 C1005 0.930 . S
C996 H990 0.930 . S
C996 C997 1.355 . S
C996 C998 1.415 . S
C997 C996 1.355 . S
C997 C999 1.419 . S
C998 C996 1.415 . S
C998 C1003 1.425 . S
C998 C1005 1.409 . S
C999 H991 0.930 . S
C999 C997 1.419 . S
C999 C1000 1.362 . S
C1000 H992 0.930 . S
C1000 C999 1.362 . S
C1000 C1003 1.409 . S
C1001 H993 0.930 . S
C1001 C1002 1.355 . S
C1001 C1003 1.415 . S
C1002 C1001 1.355 . S
C1002 C1004 1.419 . S
C1003 C998 1.425 . S
C1003 C1000 1.409 . S
C1003 C1001 1.415 . S
C1004 H994 0.930 . S
C1004 C1002 1.419 . S
C1004 C1005 1.362 . S
C1005 H995 0.930 . S
C1005 C998 1.409 . S
C1005 C1004 1.362 . S
H1006 C1012 0.930 . S
H1007 C1015 0.930 . S
H1008 C1016 0.930 . S
H1009 C1017 0.930 . S
H1010 C1020 0.930 . S
H1011 C1021 0.930 . S
C1012 H1006 0.930 . S
C1012 C1013 1.355 . S
C1012 C1014 1.415 . S
C1013 C1012 1.355 . S
C1013 C1015 1.419 . S
C1014 C1012 1.415 . S
C1014 C1019 1.425 . S
C1014 C1021 1.409 . S
C1015 H1007 0.930 . S
C1015 C1013 1.419 . S
C1015 C1016 1.362 . S
C1016 H1008 0.930 . S
C1016 C1015 1.362 . S
C1016 C1019 1.409 . S
C1017 H1009 0.930 . S
C1017 C1018 1.355 . S
C1017 C1019 1.415 . S
C1018 C1017 1.355 . S
C1018 C1020 1.419 . S
C1019 C1014 1.425 . S
C1019 C1016 1.409 . S
C1019 C1017 1.415 . S
C1020 H1010 0.930 . S
C1020 C1018 1.419 . S
C1020 C1021 1.362 . S
C1021 H1011 0.930 . S
C1021 C1014 1.409 . S
C1021 C1020 1.362 . S
H1022 C1028 0.930 . S
H1023 C1031 0.930 . S
H1024 C1032 0.930 . S
H1025 C1033 0.930 . S
H1026 C1036 0.930 . S
H1027 C1037 0.930 . S
C1028 H1022 0.930 . S
C1028 C1029 1.355 . S
C1028 C1030 1.415 . S
C1029 C1028 1.355 . S
C1029 C1031 1.419 . S
C1030 C1028 1.415 . S
C1030 C1035 1.425 . S
C1030 C1037 1.409 . S
C1031 H1023 0.930 . S
C1031 C1029 1.419 . S
C1031 C1032 1.362 . S
C1032 H1024 0.930 . S
C1032 C1031 1.362 . S
C1032 C1035 1.409 . S
C1033 H1025 0.930 . S
C1033 C1034 1.355 . S
C1033 C1035 1.415 . S
C1034 C1033 1.355 . S
C1034 C1036 1.419 . S
C1035 C1030 1.425 . S
C1035 C1032 1.409 . S
C1035 C1033 1.415 . S
C1036 H1026 0.930 . S
C1036 C1034 1.419 . S
C1036 C1037 1.362 . S
C1037 H1027 0.930 . S
C1037 C1030 1.409 . S
C1037 C1036 1.362 . S
H1038 C1044 0.930 . S
H1039 C1047 0.930 . S
H1040 C1048 0.930 1_554 S
H1041 C1049 0.930 1_554 S
H1042 C1052 0.930 . S
H1043 C1053 0.930 . S
C1044 H1038 0.930 . S
C1044 C1045 1.355 . S
C1044 C1046 1.415 . S
C1045 C1044 1.355 . S
C1045 C1047 1.419 . S
C1046 C1044 1.415 . S
C1046 C1051 1.425 . S
C1046 C1053 1.409 . S
C1047 H1039 0.930 . S
C1047 C1045 1.419 . S
C1047 C1048 1.362 . S
C1048 H1040 0.930 1_556 S
C1048 C1047 1.362 . S
C1048 C1051 1.409 . S
C1049 H1041 0.930 1_556 S
C1049 C1050 1.355 . S
C1049 C1051 1.415 . S
C1050 C1049 1.355 . S
C1050 C1052 1.419 . S
C1051 C1046 1.425 . S
C1051 C1048 1.409 . S
C1051 C1049 1.415 . S
C1052 H1042 0.930 . S
C1052 C1050 1.419 . S
C1052 C1053 1.362 . S
C1053 H1043 0.930 . S
C1053 C1046 1.409 . S
C1053 C1052 1.362 . S
H1054 C1060 0.930 . S
H1055 C1063 0.930 . S
H1056 C1064 0.930 . S
H1057 C1065 0.930 . S
H1058 C1068 0.930 . S
H1059 C1069 0.930 . S
C1060 H1054 0.930 . S
C1060 C1061 1.355 . S
C1060 C1062 1.415 . S
C1061 C1060 1.355 . S
C1061 C1063 1.419 . S
C1062 C1060 1.415 . S
C1062 C1067 1.425 . S
C1062 C1069 1.409 1_556 S
C1063 H1055 0.930 . S
C1063 C1061 1.419 . S
C1063 C1064 1.362 . S
C1064 H1056 0.930 . S
C1064 C1063 1.362 . S
C1064 C1067 1.409 . S
C1065 H1057 0.930 . S
C1065 C1066 1.355 . S
C1065 C1067 1.415 . S
C1066 C1065 1.355 . S
C1066 C1068 1.419 1_556 S
C1067 C1062 1.425 . S
C1067 C1064 1.409 . S
C1067 C1065 1.415 . S
C1068 H1058 0.930 . S
C1068 C1066 1.419 1_554 S
C1068 C1069 1.362 . S
C1069 H1059 0.930 . S
C1069 C1062 1.409 1_554 S
C1069 C1068 1.362 . S
H1070 C1076 0.930 . S
H1071 C1079 0.930 . S
H1072 C1080 0.930 . S
H1073 C1081 0.930 . S
H1074 C1084 0.930 . S
H1075 C1085 0.930 . S
C1076 H1070 0.930 . S
C1076 C1077 1.355 . S
C1076 C1078 1.415 . S
C1077 C1076 1.355 . S
C1077 C1079 1.419 . S
C1078 C1076 1.415 . S
C1078 C1083 1.425 . S
C1078 C1085 1.409 . S
C1079 H1071 0.930 . S
C1079 C1077 1.419 . S
C1079 C1080 1.362 . S
C1080 H1072 0.930 . S
C1080 C1079 1.362 . S
C1080 C1083 1.409 . S
C1081 H1073 0.930 . S
C1081 C1082 1.355 . S
C1081 C1083 1.415 . S
C1082 C1081 1.355 . S
C1082 C1084 1.419 . S
C1083 C1078 1.425 . S
C1083 C1080 1.409 . S
C1083 C1081 1.415 . S
C1084 H1074 0.930 . S
C1084 C1082 1.419 . S
C1084 C1085 1.362 . S
C1085 H1075 0.930 . S
C1085 C1078 1.409 . S
C1085 C1084 1.362 . S
H1086 C1092 0.954 . S
H1087 C1095 0.930 . S
H1088 C1096 0.930 . S
H1089 C1097 0.930 . S
H1090 C1100 0.930 . S
H1091 C1101 0.930 . S
C1092 H1086 0.954 . S
C1092 C1093 1.355 . S
C1092 C1094 1.415 . S
C1093 C1092 1.355 . S
C1093 C1095 1.419 . S
C1094 C1092 1.415 . S
C1094 C1099 1.425 . S
C1094 C1101 1.409 1_556 S
C1095 H1087 0.930 . S
C1095 C1093 1.419 . S
C1095 C1096 1.362 . S
C1096 H1088 0.930 . S
C1096 C1095 1.362 . S
C1096 C1099 1.409 . S
C1097 H1089 0.930 . S
C1097 C1098 1.355 . S
C1097 C1099 1.415 . S
C1098 C1097 1.355 . S
C1098 C1100 1.419 1_556 S
C1099 C1094 1.425 . S
C1099 C1096 1.409 . S
C1099 C1097 1.415 . S
C1100 H1090 0.930 . S
C1100 C1098 1.419 1_554 S
C1100 C1101 1.362 . S
C1101 H1091 0.930 . S
C1101 C1094 1.409 1_554 S
C1101 C1100 1.362 . S
H1102 C1108 0.930 . S
H1103 C1111 0.930 . S
H1104 C1112 0.930 . S
H1105 C1113 0.930 . S
H1106 C1116 0.930 . S
H1107 C1117 0.930 . S
C1108 H1102 0.930 . S
C1108 C1109 1.355 . S
C1108 C1110 1.415 . S
C1109 C1108 1.355 . S
C1109 C1111 1.419 . S
C1110 C1108 1.415 . S
C1110 C1115 1.425 . S
C1110 C1117 1.409 . S
C1111 H1103 0.930 . S
C1111 C1109 1.419 . S
C1111 C1112 1.362 . S
C1112 H1104 0.930 . S
C1112 C1111 1.362 . S
C1112 C1115 1.409 . S
C1113 H1105 0.930 . S
C1113 C1114 1.355 . S
C1113 C1115 1.415 . S
C1114 C1113 1.355 . S
C1114 C1116 1.419 . S
C1115 C1110 1.425 . S
C1115 C1112 1.409 . S
C1115 C1113 1.415 . S
C1116 H1106 0.930 . S
C1116 C1114 1.419 . S
C1116 C1117 1.362 . S
C1117 H1107 0.930 . S
C1117 C1110 1.409 . S
C1117 C1116 1.362 . S
H1118 C1124 0.930 1_554 S
H1119 C1127 0.930 . S
H1120 C1128 0.930 . S
H1121 C1129 0.930 . S
H1122 C1132 0.930 . S
H1123 C1133 0.930 . S
C1124 H1118 0.930 1_556 S
C1124 C1125 1.355 . S
C1124 C1126 1.415 . S
C1125 C1124 1.355 . S
C1125 C1127 1.419 . S
C1126 C1124 1.415 . S
C1126 C1131 1.425 . S
C1126 C1133 1.409 1_556 S
C1127 H1119 0.930 . S
C1127 C1125 1.419 . S
C1127 C1128 1.362 . S
C1128 H1120 0.930 . S
C1128 C1127 1.362 . S
C1128 C1131 1.409 . S
C1129 H1121 0.930 . S
C1129 C1130 1.355 . S
C1129 C1131 1.415 . S
C1130 C1129 1.355 . S
C1130 C1132 1.419 1_556 S
C1131 C1126 1.425 . S
C1131 C1128 1.409 . S
C1131 C1129 1.415 . S
C1132 H1122 0.930 . S
C1132 C1130 1.419 1_554 S
C1132 C1133 1.362 . S
C1133 H1123 0.930 . S
C1133 C1126 1.409 1_554 S
C1133 C1132 1.362 . S
H1134 C1140 0.930 . S
H1135 C1143 0.930 . S
H1136 C1144 0.930 . S
H1137 C1145 0.930 . S
H1138 C1148 0.912 1_556 S
H1139 C1149 0.930 . S
C1140 H1134 0.930 . S
C1140 C1141 1.355 . S
C1140 C1142 1.415 . S
C1141 C1140 1.355 . S
C1141 C1143 1.419 . S
C1142 C1140 1.415 . S
C1142 C1147 1.425 . S
C1142 C1149 1.409 . S
C1143 H1135 0.930 . S
C1143 C1141 1.419 . S
C1143 C1144 1.362 . S
C1144 H1136 0.930 . S
C1144 C1143 1.362 . S
C1144 C1147 1.409 . S
C1145 H1137 0.930 . S
C1145 C1146 1.355 . S
C1145 C1147 1.415 . S
C1146 C1145 1.355 . S
C1146 C1148 1.419 . S
C1147 C1142 1.425 . S
C1147 C1144 1.409 . S
C1147 C1145 1.415 . S
C1148 H1138 0.912 1_554 S
C1148 C1146 1.419 . S
C1148 C1149 1.362 . S
C1149 H1139 0.930 . S
C1149 C1142 1.409 . S
C1149 C1148 1.362 . S
H1150 C1156 0.930 . S
H1151 C1159 0.930 . S
H1152 C1160 0.930 . S
H1153 C1161 0.930 . S
H1154 C1164 0.930 1_556 S
H1155 C1165 0.930 1_556 S
C1156 H1150 0.930 . S
C1156 C1157 1.355 . S
C1156 C1158 1.415 . S
C1157 C1156 1.355 . S
C1157 C1159 1.419 . S
C1158 C1156 1.415 . S
C1158 C1163 1.425 . S
C1158 C1165 1.409 . S
C1159 H1151 0.930 . S
C1159 C1157 1.419 . S
C1159 C1160 1.362 . S
C1160 H1152 0.930 . S
C1160 C1159 1.362 . S
C1160 C1163 1.409 . S
C1161 H1153 0.930 . S
C1161 C1162 1.355 . S
C1161 C1163 1.415 . S
C1162 C1161 1.355 . S
C1162 C1164 1.419 . S
C1163 C1158 1.425 . S
C1163 C1160 1.409 . S
C1163 C1161 1.415 . S
C1164 H1154 0.930 1_554 S
C1164 C1162 1.419 . S
C1164 C1165 1.362 . S
C1165 H1155 0.930 1_554 S
C1165 C1158 1.409 . S
C1165 C1164 1.362 . S
H1166 C1172 0.930 . S
H1167 C1175 0.930 . S
H1168 C1176 0.930 . S
H1169 C1177 0.930 . S
H1170 C1180 0.930 . S
H1171 C1181 0.930 . S
C1172 H1166 0.930 . S
C1172 C1173 1.355 . S
C1172 C1174 1.415 . S
C1173 C1172 1.355 . S
C1173 C1175 1.419 . S
C1174 C1172 1.415 . S
C1174 C1179 1.425 . S
C1174 C1181 1.409 . S
C1175 H1167 0.930 . S
C1175 C1173 1.419 . S
C1175 C1176 1.362 . S
C1176 H1168 0.930 . S
C1176 C1175 1.362 . S
C1176 C1179 1.409 . S
C1177 H1169 0.930 . S
C1177 C1178 1.355 . S
C1177 C1179 1.415 . S
C1178 C1177 1.355 . S
C1178 C1180 1.419 . S
C1179 C1174 1.425 . S
C1179 C1176 1.409 . S
C1179 C1177 1.415 . S
C1180 H1170 0.930 . S
C1180 C1178 1.419 . S
C1180 C1181 1.362 . S
C1181 H1171 0.930 . S
C1181 C1174 1.409 . S
C1181 C1180 1.362 . S
H1182 C1188 0.930 . S
H1183 C1191 0.930 . S
H1184 C1192 0.930 . S
H1185 C1193 0.930 . S
H1186 C1196 0.930 . S
H1187 C1197 0.930 1_655 S
C1188 H1182 0.930 . S
C1188 C1189 1.355 . S
C1188 C1190 1.415 . S
C1189 C1188 1.355 . S
C1189 C1191 1.419 . S
C1190 C1188 1.415 . S
C1190 C1195 1.425 1_655 S
C1190 C1197 1.409 1_655 S
C1191 H1183 0.930 . S
C1191 C1189 1.419 . S
C1191 C1192 1.362 1_655 S
C1192 H1184 0.930 . S
C1192 C1191 1.362 1_455 S
C1192 C1195 1.409 . S
C1193 H1185 0.930 . S
C1193 C1194 1.355 . S
C1193 C1195 1.415 . S
C1194 C1193 1.355 . S
C1194 C1196 1.419 . S
C1195 C1190 1.425 1_455 S
C1195 C1192 1.409 . S
C1195 C1193 1.415 . S
C1196 H1186 0.930 . S
C1196 C1194 1.419 . S
C1196 C1197 1.362 . S
C1197 H1187 0.930 1_455 S
C1197 C1190 1.409 1_455 S
C1197 C1196 1.362 . S
H1198 C1204 0.930 . S
H1199 C1207 0.930 . S
H1200 C1208 0.930 . S
H1201 C1209 0.930 . S
H1202 C1212 0.930 . S
H1203 C1213 0.930 . S
C1204 H1198 0.930 . S
C1204 C1205 1.355 . S
C1204 C1206 1.415 . S
C1205 C1204 1.355 . S
C1205 C1207 1.419 . S
C1206 C1204 1.415 . S
C1206 C1211 1.425 . S
C1206 C1213 1.409 . S
C1207 H1199 0.930 . S
C1207 C1205 1.419 . S
C1207 C1208 1.362 . S
C1208 H1200 0.930 . S
C1208 C1207 1.362 . S
C1208 C1211 1.409 . S
C1209 H1201 0.930 . S
C1209 C1210 1.355 . S
C1209 C1211 1.415 . S
C1210 C1209 1.355 . S
C1210 C1212 1.419 . S
C1211 C1206 1.425 . S
C1211 C1208 1.409 . S
C1211 C1209 1.415 . S
C1212 H1202 0.930 . S
C1212 C1210 1.419 . S
C1212 C1213 1.362 . S
C1213 H1203 0.930 . S
C1213 C1206 1.409 . S
C1213 C1212 1.362 . S
H1214 C1220 0.930 . S
H1215 C1223 0.930 . S
H1216 C1224 0.930 . S
H1217 C1225 0.930 . S
H1218 C1228 0.930 . S
H1219 C1229 0.930 . S
C1220 H1214 0.930 . S
C1220 C1221 1.355 . S
C1220 C1222 1.415 . S
C1221 C1220 1.355 . S
C1221 C1223 1.419 . S
C1222 C1220 1.415 . S
C1222 C1227 1.425 . S
C1222 C1229 1.409 1_545 S
C1223 H1215 0.930 . S
C1223 C1221 1.419 . S
C1223 C1224 1.362 . S
C1224 H1216 0.930 . S
C1224 C1223 1.362 . S
C1224 C1227 1.409 . S
C1225 H1217 0.930 . S
C1225 C1226 1.355 . S
C1225 C1227 1.415 1_565 S
C1226 C1225 1.355 . S
C1226 C1228 1.419 . S
C1227 C1222 1.425 . S
C1227 C1224 1.409 . S
C1227 C1225 1.415 1_545 S
C1228 H1218 0.930 . S
C1228 C1226 1.419 . S
C1228 C1229 1.362 . S
C1229 H1219 0.930 . S
C1229 C1222 1.409 1_565 S
C1229 C1228 1.362 . S
H1230 C1236 0.930 . S
H1231 C1239 0.930 . S
H1232 C1240 0.930 . S
H1233 C1241 0.930 . S
H1234 C1244 0.930 . S
H1235 C1245 0.930 . S
C1236 H1230 0.930 . S
C1236 C1237 1.355 . S
C1236 C1238 1.415 . S
C1237 C1236 1.355 . S
C1237 C1239 1.419 . S
C1238 C1236 1.415 . S
C1238 C1243 1.425 . S
C1238 C1245 1.409 . S
C1239 H1231 0.930 . S
C1239 C1237 1.419 . S
C1239 C1240 1.362 . S
C1240 H1232 0.930 . S
C1240 C1239 1.362 . S
C1240 C1243 1.409 . S
C1241 H1233 0.930 . S
C1241 C1242 1.355 . S
C1241 C1243 1.415 . S
C1242 C1241 1.355 . S
C1242 C1244 1.419 . S
C1243 C1238 1.425 . S
C1243 C1240 1.409 . S
C1243 C1241 1.415 . S
C1244 H1234 0.930 . S
C1244 C1242 1.419 . S
C1244 C1245 1.362 . S
C1245 H1235 0.930 . S
C1245 C1238 1.409 . S
C1245 C1244 1.362 . S
H1246 C1252 0.930 . S
H1247 C1255 0.930 . S
H1248 C1256 0.930 . S
H1249 C1257 0.930 . S
H1250 C1260 0.930 . S
H1251 C1261 0.930 . S
C1252 H1246 0.930 . S
C1252 C1253 1.355 . S
C1252 C1254 1.415 . S
C1253 C1252 1.355 . S
C1253 C1255 1.419 . S
C1254 C1252 1.415 . S
C1254 C1259 1.425 . S
C1254 C1261 1.409 . S
C1255 H1247 0.930 . S
C1255 C1253 1.419 . S
C1255 C1256 1.362 . S
C1256 H1248 0.930 . S
C1256 C1255 1.362 . S
C1256 C1259 1.409 . S
C1257 H1249 0.930 . S
C1257 C1258 1.355 . S
C1257 C1259 1.415 . S
C1258 C1257 1.355 . S
C1258 C1260 1.419 . S
C1259 C1254 1.425 . S
C1259 C1256 1.409 . S
C1259 C1257 1.415 . S
C1260 H1250 0.930 . S
C1260 C1258 1.419 . S
C1260 C1261 1.362 . S
C1261 H1251 0.930 . S
C1261 C1254 1.409 . S
C1261 C1260 1.362 . S
H1262 C1268 0.930 . S
H1263 C1271 0.930 . S
H1264 C1272 0.930 . S
H1265 C1273 0.930 . S
H1266 C1276 0.930 . S
H1267 C1277 0.930 . S
C1268 H1262 0.930 . S
C1268 C1269 1.355 . S
C1268 C1270 1.415 . S
C1269 C1268 1.355 . S
C1269 C1271 1.419 . S
C1270 C1268 1.415 . S
C1270 C1275 1.425 . S
C1270 C1277 1.409 . S
C1271 H1263 0.930 . S
C1271 C1269 1.419 . S
C1271 C1272 1.362 . S
C1272 H1264 0.930 . S
C1272 C1271 1.362 . S
C1272 C1275 1.409 . S
C1273 H1265 0.930 . S
C1273 C1274 1.355 . S
C1273 C1275 1.415 . S
C1274 C1273 1.355 . S
C1274 C1276 1.419 . S
C1275 C1270 1.425 . S
C1275 C1272 1.409 . S
C1275 C1273 1.415 . S
C1276 H1266 0.930 . S
C1276 C1274 1.419 . S
C1276 C1277 1.362 . S
C1277 H1267 0.930 . S
C1277 C1270 1.409 . S
C1277 C1276 1.362 . S
H1278 C1284 0.930 . S
H1279 C1287 0.930 . S
H1280 C1288 0.930 . S
H1281 C1289 0.930 . S
H1282 C1292 0.930 . S
H1283 C1293 0.930 . S
C1284 H1278 0.930 . S
C1284 C1285 1.355 . S
C1284 C1286 1.415 . S
C1285 C1284 1.355 . S
C1285 C1287 1.419 . S
C1286 C1284 1.415 . S
C1286 C1291 1.425 . S
C1286 C1293 1.409 . S
C1287 H1279 0.930 . S
C1287 C1285 1.419 . S
C1287 C1288 1.362 . S
C1288 H1280 0.930 . S
C1288 C1287 1.362 . S
C1288 C1291 1.409 . S
C1289 H1281 0.930 . S
C1289 C1290 1.355 . S
C1289 C1291 1.415 . S
C1290 C1289 1.355 . S
C1290 C1292 1.419 . S
C1291 C1286 1.425 . S
C1291 C1288 1.409 . S
C1291 C1289 1.415 . S
C1292 H1282 0.930 . S
C1292 C1290 1.419 . S
C1292 C1293 1.362 . S
C1293 H1283 0.930 . S
C1293 C1286 1.409 . S
C1293 C1292 1.362 . S
H1294 C1300 0.930 . S
H1295 C1303 0.930 . S
H1296 C1304 0.930 . S
H1297 C1305 0.930 . S
H1298 C1308 0.930 . S
H1299 C1309 0.930 . S
C1300 H1294 0.930 . S
C1300 C1301 1.355 . S
C1300 C1302 1.415 . S
C1301 C1300 1.355 . S
C1301 C1303 1.419 . S
C1302 C1300 1.415 . S
C1302 C1307 1.425 . S
C1302 C1309 1.409 . S
C1303 H1295 0.930 . S
C1303 C1301 1.419 . S
C1303 C1304 1.362 . S
C1304 H1296 0.930 . S
C1304 C1303 1.362 . S
C1304 C1307 1.409 . S
C1305 H1297 0.930 . S
C1305 C1306 1.355 . S
C1305 C1307 1.415 . S
C1306 C1305 1.355 . S
C1306 C1308 1.419 . S
C1307 C1302 1.425 . S
C1307 C1304 1.409 . S
C1307 C1305 1.415 . S
C1308 H1298 0.930 . S
C1308 C1306 1.419 . S
C1308 C1309 1.362 . S
C1309 H1299 0.930 . S
C1309 C1302 1.409 . S
C1309 C1308 1.362 . S
H1310 C1316 0.930 . S
H1311 C1319 0.930 . S
H1312 C1320 0.930 . S
H1313 C1321 0.930 . S
H1314 C1324 0.930 . S
H1315 C1325 0.930 . S
C1316 H1310 0.930 . S
C1316 C1317 1.355 . S
C1316 C1318 1.415 . S
C1317 C1316 1.355 . S
C1317 C1319 1.419 . S
C1318 C1316 1.415 . S
C1318 C1323 1.425 . S
C1318 C1325 1.409 . S
C1319 H1311 0.930 . S
C1319 C1317 1.419 . S
C1319 C1320 1.362 . S
C1320 H1312 0.930 . S
C1320 C1319 1.362 . S
C1320 C1323 1.409 . S
C1321 H1313 0.930 . S
C1321 C1322 1.355 . S
C1321 C1323 1.415 . S
C1322 C1321 1.355 . S
C1322 C1324 1.419 . S
C1323 C1318 1.425 . S
C1323 C1320 1.409 . S
C1323 C1321 1.415 . S
C1324 H1314 0.930 . S
C1324 C1322 1.419 . S
C1324 C1325 1.362 . S
C1325 H1315 0.930 . S
C1325 C1318 1.409 . S
C1325 C1324 1.362 . S
H1326 C1332 0.930 . S
H1327 C1335 0.930 1_545 S
H1328 C1336 0.930 . S
H1329 C1337 0.930 . S
H1330 C1340 0.930 . S
H1331 C1341 0.930 . S
C1332 H1326 0.930 . S
C1332 C1333 1.355 1_565 S
C1332 C1334 1.415 . S
C1333 C1332 1.355 1_545 S
C1333 C1335 1.419 1_545 S
C1334 C1332 1.415 . S
C1334 C1339 1.425 . S
C1334 C1341 1.409 . S
C1335 H1327 0.930 1_565 S
C1335 C1333 1.419 1_565 S
C1335 C1336 1.362 . S
C1336 H1328 0.930 . S
C1336 C1335 1.362 . S
C1336 C1339 1.409 . S
C1337 H1329 0.930 . S
C1337 C1338 1.355 . S
C1337 C1339 1.415 . S
C1338 C1337 1.355 . S
C1338 C1340 1.419 . S
C1339 C1334 1.425 . S
C1339 C1336 1.409 . S
C1339 C1337 1.415 . S
C1340 H1330 0.930 . S
C1340 C1338 1.419 . S
C1340 C1341 1.362 . S
C1341 H1331 0.930 . S
C1341 C1334 1.409 . S
C1341 C1340 1.362 . S
H1342 C1348 0.930 . S
H1343 C1351 0.930 . S
H1344 C1352 0.930 . S
H1345 C1353 0.930 . S
H1346 C1356 0.930 . S
H1347 C1357 0.930 . S
C1348 H1342 0.930 . S
C1348 C1349 1.355 . S
C1348 C1350 1.415 . S
C1349 C1348 1.355 . S
C1349 C1351 1.419 . S
C1350 C1348 1.415 . S
C1350 C1355 1.425 . S
C1350 C1357 1.409 . S
C1351 H1343 0.930 . S
C1351 C1349 1.419 . S
C1351 C1352 1.362 . S
C1352 H1344 0.930 . S
C1352 C1351 1.362 . S
C1352 C1355 1.409 . S
C1353 H1345 0.930 . S
C1353 C1354 1.355 . S
C1353 C1355 1.415 . S
C1354 C1353 1.355 . S
C1354 C1356 1.419 . S
C1355 C1350 1.425 . S
C1355 C1352 1.409 . S
C1355 C1353 1.415 . S
C1356 H1346 0.930 . S
C1356 C1354 1.419 . S
C1356 C1357 1.362 . S
C1357 H1347 0.930 . S
C1357 C1350 1.409 . S
C1357 C1356 1.362 . S
H1358 C1364 0.930 . S
H1359 C1367 0.930 . S
H1360 C1368 0.930 . S
H1361 C1369 0.930 . S
H1362 C1372 0.930 . S
H1363 C1373 0.930 . S
C1364 H1358 0.930 . S
C1364 C1365 1.355 . S
C1364 C1366 1.415 . S
C1365 C1364 1.355 . S
C1365 C1367 1.419 . S
C1366 C1364 1.415 . S
C1366 C1371 1.425 . S
C1366 C1373 1.409 . S
C1367 H1359 0.930 . S
C1367 C1365 1.419 . S
C1367 C1368 1.362 . S
C1368 H1360 0.930 . S
C1368 C1367 1.362 . S
C1368 C1371 1.409 . S
C1369 H1361 0.930 . S
C1369 C1370 1.355 . S
C1369 C1371 1.415 . S
C1370 C1369 1.355 . S
C1370 C1372 1.419 . S
C1371 C1366 1.425 . S
C1371 C1368 1.409 . S
C1371 C1369 1.415 . S
C1372 H1362 0.930 . S
C1372 C1370 1.419 . S
C1372 C1373 1.362 . S
C1373 H1363 0.930 . S
C1373 C1366 1.409 . S
C1373 C1372 1.362 . S
H1374 C1380 0.930 . S
H1375 C1383 0.930 . S
H1376 C1384 0.930 . S
H1377 C1385 0.930 . S
H1378 C1388 0.930 . S
H1379 C1389 0.930 . S
C1380 H1374 0.930 . S
C1380 C1381 1.355 . S
C1380 C1382 1.415 . S
C1381 C1380 1.355 . S
C1381 C1383 1.419 . S
C1382 C1380 1.415 . S
C1382 C1387 1.425 . S
C1382 C1389 1.409 . S
C1383 H1375 0.930 . S
C1383 C1381 1.419 . S
C1383 C1384 1.362 . S
C1384 H1376 0.930 . S
C1384 C1383 1.362 . S
C1384 C1387 1.409 . S
C1385 H1377 0.930 . S
C1385 C1386 1.355 . S
C1385 C1387 1.415 . S
C1386 C1385 1.355 . S
C1386 C1388 1.419 . S
C1387 C1382 1.425 . S
C1387 C1384 1.409 . S
C1387 C1385 1.415 . S
C1388 H1378 0.930 . S
C1388 C1386 1.419 . S
C1388 C1389 1.362 . S
C1389 H1379 0.930 . S
C1389 C1382 1.409 . S
C1389 C1388 1.362 . S
H1390 C1396 0.930 . S
H1391 C1399 0.930 . S
H1392 C1400 0.930 . S
H1393 C1401 0.930 . S
H1394 C1404 0.930 . S
H1395 C1405 0.930 . S
C1396 H1390 0.930 . S
C1396 C1397 1.355 . S
C1396 C1398 1.415 . S
C1397 C1396 1.355 . S
C1397 C1399 1.419 . S
C1398 C1396 1.415 . S
C1398 C1403 1.425 . S
C1398 C1405 1.409 . S
C1399 H1391 0.930 . S
C1399 C1397 1.419 . S
C1399 C1400 1.362 . S
C1400 H1392 0.930 . S
C1400 C1399 1.362 . S
C1400 C1403 1.409 . S
C1401 H1393 0.930 . S
C1401 C1402 1.355 . S
C1401 C1403 1.415 . S
C1402 C1401 1.355 . S
C1402 C1404 1.419 . S
C1403 C1398 1.425 . S
C1403 C1400 1.409 . S
C1403 C1401 1.415 . S
C1404 H1394 0.930 . S
C1404 C1402 1.419 . S
C1404 C1405 1.362 . S
C1405 H1395 0.930 . S
C1405 C1398 1.409 . S
C1405 C1404 1.362 . S
H1406 C1412 0.930 . S
H1407 C1415 0.930 . S
H1408 C1416 0.930 . S
H1409 C1417 0.930 . S
H1410 C1420 0.930 . S
H1411 C1421 0.930 . S
C1412 H1406 0.930 . S
C1412 C1413 1.355 . S
C1412 C1414 1.415 . S
C1413 C1412 1.355 . S
C1413 C1415 1.419 . S
C1414 C1412 1.415 . S
C1414 C1419 1.425 . S
C1414 C1421 1.409 . S
C1415 H1407 0.930 . S
C1415 C1413 1.419 . S
C1415 C1416 1.362 . S
C1416 H1408 0.930 . S
C1416 C1415 1.362 . S
C1416 C1419 1.409 . S
C1417 H1409 0.930 . S
C1417 C1418 1.355 . S
C1417 C1419 1.415 . S
C1418 C1417 1.355 . S
C1418 C1420 1.419 . S
C1419 C1414 1.425 . S
C1419 C1416 1.409 . S
C1419 C1417 1.415 . S
C1420 H1410 0.930 . S
C1420 C1418 1.419 . S
C1420 C1421 1.362 . S
C1421 H1411 0.930 . S
C1421 C1414 1.409 . S
C1421 C1420 1.362 . S
H1422 C1428 0.930 . S
H1423 C1431 0.930 . S
H1424 C1432 0.930 . S
H1425 C1433 0.930 . S
H1426 C1436 0.930 . S
H1427 C1437 0.930 . S
C1428 H1422 0.930 . S
C1428 C1429 1.355 . S
C1428 C1430 1.413 1_565 S
C1429 C1428 1.355 . S
C1429 C1431 1.419 . S
C1430 C1428 1.413 1_545 S
C1430 C1435 1.424 . S
C1430 C1437 1.412 . S
C1431 H1423 0.930 . S
C1431 C1429 1.419 . S
C1431 C1432 1.362 . S
C1432 H1424 0.930 . S
C1432 C1431 1.362 . S
C1432 C1435 1.409 1_565 S
C1433 H1425 0.930 . S
C1433 C1434 1.355 . S
C1433 C1435 1.415 . S
C1434 C1433 1.355 . S
C1434 C1436 1.419 . S
C1435 C1430 1.424 . S
C1435 C1432 1.409 1_545 S
C1435 C1433 1.415 . S
C1436 H1426 0.930 . S
C1436 C1434 1.419 . S
C1436 C1437 1.362 . S
C1437 H1427 0.930 . S
C1437 C1430 1.412 . S
C1437 C1436 1.362 . S
H1438 C1444 0.930 . S
H1439 C1447 0.930 . S
H1440 C1448 0.930 . S
H1441 C1449 0.930 . S
H1442 C1452 0.930 . S
H1443 C1453 0.924 1_455 S
C1444 H1438 0.930 . S
C1444 C1445 1.355 . S
C1444 C1446 1.415 . S
C1445 C1444 1.355 . S
C1445 C1447 1.419 . S
C1446 C1444 1.415 . S
C1446 C1451 1.425 1_455 S
C1446 C1453 1.405 1_455 S
C1447 H1439 0.930 . S
C1447 C1445 1.419 . S
C1447 C1448 1.362 1_455 S
C1448 H1440 0.930 . S
C1448 C1447 1.362 1_655 S
C1448 C1451 1.409 . S
C1449 H1441 0.930 . S
C1449 C1450 1.355 . S
C1449 C1451 1.415 . S
C1450 C1449 1.355 . S
C1450 C1452 1.419 . S
C1451 C1446 1.425 1_655 S
C1451 C1448 1.409 . S
C1451 C1449 1.415 . S
C1452 H1442 0.930 . S
C1452 C1450 1.419 . S
C1452 C1453 1.372 . S
C1453 H1443 0.924 1_655 S
C1453 C1446 1.405 1_655 S
C1453 C1452 1.372 . S
H1454 C1460 0.930 . S
H1455 C1463 0.930 . S
H1456 C1464 0.930 . S
H1457 C1465 0.930 . S
H1458 C1468 0.930 . S
H1459 C1469 0.930 . S
C1460 H1454 0.930 . S
C1460 C1461 1.355 . S
C1460 C1462 1.415 . S
C1461 C1460 1.355 . S
C1461 C1463 1.419 . S
C1462 C1460 1.415 . S
C1462 C1467 1.425 . S
C1462 C1469 1.409 . S
C1463 H1455 0.930 . S
C1463 C1461 1.419 . S
C1463 C1464 1.362 . S
C1464 H1456 0.930 . S
C1464 C1463 1.362 . S
C1464 C1467 1.409 . S
C1465 H1457 0.930 . S
C1465 C1466 1.355 . S
C1465 C1467 1.415 . S
C1466 C1465 1.355 . S
C1466 C1468 1.419 . S
C1467 C1462 1.425 . S
C1467 C1464 1.409 . S
C1467 C1465 1.415 . S
C1468 H1458 0.930 . S
C1468 C1466 1.419 . S
C1468 C1469 1.362 . S
C1469 H1459 0.930 . S
C1469 C1462 1.409 . S
C1469 C1468 1.362 . S
H1470 C1476 0.930 . S
H1471 C1479 0.930 1_455 S
H1472 C1480 0.930 . S
H1473 C1481 0.930 . S
H1474 C1484 0.930 . S
H1475 C1485 0.930 . S
C1476 H1470 0.930 . S
C1476 C1477 1.355 1_655 S
C1476 C1478 1.415 . S
C1477 C1476 1.355 1_455 S
C1477 C1479 1.419 1_455 S
C1478 C1476 1.415 . S
C1478 C1483 1.425 . S
C1478 C1485 1.409 . S
C1479 H1471 0.930 1_655 S
C1479 C1477 1.419 1_655 S
C1479 C1480 1.362 . S
C1480 H1472 0.930 . S
C1480 C1479 1.362 . S
C1480 C1483 1.409 . S
C1481 H1473 0.930 . S
C1481 C1482 1.355 . S
C1481 C1483 1.415 . S
C1482 C1481 1.355 . S
C1482 C1484 1.419 . S
C1483 C1478 1.425 . S
C1483 C1480 1.409 . S
C1483 C1481 1.415 . S
C1484 H1474 0.930 . S
C1484 C1482 1.419 . S
C1484 C1485 1.362 . S
C1485 H1475 0.930 . S
C1485 C1478 1.409 . S
C1485 C1484 1.362 . S
H1486 C1492 0.930 . S
H1487 C1495 0.930 . S
H1488 C1496 0.930 . S
H1489 C1497 0.930 . S
H1490 C1500 0.930 . S
H1491 C1501 0.930 . S
C1492 H1486 0.930 . S
C1492 C1493 1.355 . S
C1492 C1494 1.415 . S
C1493 C1492 1.355 . S
C1493 C1495 1.419 . S
C1494 C1492 1.415 . S
C1494 C1499 1.425 . S
C1494 C1501 1.409 . S
C1495 H1487 0.930 . S
C1495 C1493 1.419 . S
C1495 C1496 1.362 . S
C1496 H1488 0.930 . S
C1496 C1495 1.362 . S
C1496 C1499 1.409 . S
C1497 H1489 0.930 . S
C1497 C1498 1.355 . S
C1497 C1499 1.415 . S
C1498 C1497 1.355 . S
C1498 C1500 1.419 . S
C1499 C1494 1.425 . S
C1499 C1496 1.409 . S
C1499 C1497 1.415 . S
C1500 H1490 0.930 . S
C1500 C1498 1.419 . S
C1500 C1501 1.362 . S
C1501 H1491 0.930 . S
C1501 C1494 1.409 . S
C1501 C1500 1.362 . S
H1502 C1508 0.930 . S
H1503 C1511 0.922 1_565 S
H1504 C1512 0.930 . S
H1505 C1513 0.930 . S
H1506 C1516 0.930 . S
H1507 C1517 0.930 . S
C1508 H1502 0.930 . S
C1508 C1509 1.355 1_545 S
C1508 C1510 1.415 . S
C1509 C1508 1.355 1_565 S
C1509 C1511 1.417 1_565 S
C1510 C1508 1.415 . S
C1510 C1515 1.425 . S
C1510 C1517 1.409 . S
C1511 H1503 0.922 1_545 S
C1511 C1509 1.417 1_545 S
C1511 C1512 1.372 . S
C1512 H1504 0.930 . S
C1512 C1511 1.372 . S
C1512 C1515 1.409 . S
C1513 H1505 0.930 . S
C1513 C1514 1.355 . S
C1513 C1515 1.415 . S
C1514 C1513 1.355 . S
C1514 C1516 1.419 . S
C1515 C1510 1.425 . S
C1515 C1512 1.409 . S
C1515 C1513 1.415 . S
C1516 H1506 0.930 . S
C1516 C1514 1.419 . S
C1516 C1517 1.362 . S
C1517 H1507 0.930 . S
C1517 C1510 1.409 . S
C1517 C1516 1.362 . S
H1518 C1524 0.930 . S
H1519 C1527 0.930 . S
H1520 C1528 0.930 . S
H1521 C1529 0.930 . S
H1522 C1532 0.930 . S
H1523 C1533 0.930 . S
C1524 H1518 0.930 . S
C1524 C1525 1.355 . S
C1524 C1526 1.415 . S
C1525 C1524 1.355 . S
C1525 C1527 1.419 . S
C1526 C1524 1.415 . S
C1526 C1531 1.425 . S
C1526 C1533 1.409 . S
C1527 H1519 0.930 . S
C1527 C1525 1.419 . S
C1527 C1528 1.362 . S
C1528 H1520 0.930 . S
C1528 C1527 1.362 . S
C1528 C1531 1.409 . S
C1529 H1521 0.930 . S
C1529 C1530 1.355 . S
C1529 C1531 1.415 . S
C1530 C1529 1.355 . S
C1530 C1532 1.419 . S
C1531 C1526 1.425 . S
C1531 C1528 1.409 . S
C1531 C1529 1.415 . S
C1532 H1522 0.930 . S
C1532 C1530 1.419 . S
C1532 C1533 1.362 . S
C1533 H1523 0.930 . S
C1533 C1526 1.409 . S
C1533 C1532 1.362 . S
H1534 C1540 0.930 . S
H1535 C1543 0.930 . S
H1536 C1544 0.930 . S
H1537 C1545 0.930 . S
H1538 C1548 0.930 . S
H1539 C1549 0.930 . S
C1540 H1534 0.930 . S
C1540 C1541 1.355 . S
C1540 C1542 1.415 . S
C1541 C1540 1.355 . S
C1541 C1543 1.419 . S
C1542 C1540 1.415 . S
C1542 C1547 1.425 . S
C1542 C1549 1.409 . S
C1543 H1535 0.930 . S
C1543 C1541 1.419 . S
C1543 C1544 1.362 . S
C1544 H1536 0.930 . S
C1544 C1543 1.362 . S
C1544 C1547 1.409 . S
C1545 H1537 0.930 . S
C1545 C1546 1.355 . S
C1545 C1547 1.415 . S
C1546 C1545 1.355 . S
C1546 C1548 1.419 . S
C1547 C1542 1.425 . S
C1547 C1544 1.409 . S
C1547 C1545 1.415 . S
C1548 H1538 0.930 . S
C1548 C1546 1.419 . S
C1548 C1549 1.362 . S
C1549 H1539 0.930 . S
C1549 C1542 1.409 . S
C1549 C1548 1.362 . S
H1550 C1556 0.930 . S
H1551 C1559 0.930 . S
H1552 C1560 0.930 . S
H1553 C1561 0.930 . S
H1554 C1564 0.930 . S
H1555 C1565 0.930 . S
C1556 H1550 0.930 . S
C1556 C1557 1.355 . S
C1556 C1558 1.415 . S
C1557 C1556 1.355 . S
C1557 C1559 1.419 . S
C1558 C1556 1.415 . S
C1558 C1563 1.425 . S
C1558 C1565 1.409 . S
C1559 H1551 0.930 . S
C1559 C1557 1.419 . S
C1559 C1560 1.362 . S
C1560 H1552 0.930 . S
C1560 C1559 1.362 . S
C1560 C1563 1.409 . S
C1561 H1553 0.930 . S
C1561 C1562 1.355 . S
C1561 C1563 1.415 . S
C1562 C1561 1.355 . S
C1562 C1564 1.419 . S
C1563 C1558 1.425 . S
C1563 C1560 1.409 . S
C1563 C1561 1.415 . S
C1564 H1554 0.930 . S
C1564 C1562 1.419 . S
C1564 C1565 1.362 . S
C1565 H1555 0.930 . S
C1565 C1558 1.409 . S
C1565 C1564 1.362 . S
H1566 C1572 0.930 . S
H1567 C1575 0.930 . S
H1568 C1576 0.930 . S
H1569 C1577 0.930 . S
H1570 C1580 0.930 . S
H1571 C1581 0.930 . S
C1572 H1566 0.930 . S
C1572 C1573 1.355 . S
C1572 C1574 1.415 . S
C1573 C1572 1.355 . S
C1573 C1575 1.419 . S
C1574 C1572 1.415 . S
C1574 C1579 1.425 . S
C1574 C1581 1.409 . S
C1575 H1567 0.930 . S
C1575 C1573 1.419 . S
C1575 C1576 1.362 . S
C1576 H1568 0.930 . S
C1576 C1575 1.362 . S
C1576 C1579 1.409 . S
C1577 H1569 0.930 . S
C1577 C1578 1.355 . S
C1577 C1579 1.415 . S
C1578 C1577 1.355 . S
C1578 C1580 1.419 . S
C1579 C1574 1.425 . S
C1579 C1576 1.409 . S
C1579 C1577 1.415 . S
C1580 H1570 0.930 . S
C1580 C1578 1.419 . S
C1580 C1581 1.362 . S
C1581 H1571 0.930 . S
C1581 C1574 1.409 . S
C1581 C1580 1.362 . S
H1582 C1588 0.930 . S
H1583 C1591 0.930 . S
H1584 C1592 0.930 . S
H1585 C1593 0.930 . S
H1586 C1596 0.930 . S
H1587 C1597 0.930 . S
C1588 H1582 0.930 . S
C1588 C1589 1.355 . S
C1588 C1590 1.415 . S
C1589 C1588 1.355 . S
C1589 C1591 1.419 . S
C1590 C1588 1.415 . S
C1590 C1595 1.425 . S
C1590 C1597 1.409 . S
C1591 H1583 0.930 . S
C1591 C1589 1.419 . S
C1591 C1592 1.362 . S
C1592 H1584 0.930 . S
C1592 C1591 1.362 . S
C1592 C1595 1.409 . S
C1593 H1585 0.930 . S
C1593 C1594 1.355 . S
C1593 C1595 1.415 . S
C1594 C1593 1.355 . S
C1594 C1596 1.419 . S
C1595 C1590 1.425 . S
C1595 C1592 1.409 . S
C1595 C1593 1.415 . S
C1596 H1586 0.930 . S
C1596 C1594 1.419 . S
C1596 C1597 1.362 . S
C1597 H1587 0.930 . S
C1597 C1590 1.409 . S
C1597 C1596 1.362 . S
H1598 C1604 0.930 . S
H1599 C1607 0.930 . S
H1600 C1608 0.930 . S
H1601 C1609 0.930 . S
H1602 C1612 0.930 . S
H1603 C1613 0.930 . S
C1604 H1598 0.930 . S
C1604 C1605 1.355 . S
C1604 C1606 1.415 . S
C1605 C1604 1.355 . S
C1605 C1607 1.419 . S
C1606 C1604 1.415 . S
C1606 C1611 1.425 . S
C1606 C1613 1.409 . S
C1607 H1599 0.930 . S
C1607 C1605 1.419 . S
C1607 C1608 1.362 . S
C1608 H1600 0.930 . S
C1608 C1607 1.362 . S
C1608 C1611 1.409 . S
C1609 H1601 0.930 . S
C1609 C1610 1.355 . S
C1609 C1611 1.415 . S
C1610 C1609 1.355 . S
C1610 C1612 1.419 . S
C1611 C1606 1.425 . S
C1611 C1608 1.409 . S
C1611 C1609 1.415 . S
C1612 H1602 0.930 . S
C1612 C1610 1.419 . S
C1612 C1613 1.362 . S
C1613 H1603 0.930 . S
C1613 C1606 1.409 . S
C1613 C1612 1.362 . S
H1614 C1620 0.930 . S
H1615 C1623 0.930 . S
H1616 C1624 0.930 . S
H1617 C1625 0.930 . S
H1618 C1628 0.930 . S
H1619 C1629 0.930 . S
C1620 H1614 0.930 . S
C1620 C1621 1.355 . S
C1620 C1622 1.415 . S
C1621 C1620 1.355 . S
C1621 C1623 1.419 . S
C1622 C1620 1.415 . S
C1622 C1627 1.425 . S
C1622 C1629 1.409 . S
C1623 H1615 0.930 . S
C1623 C1621 1.419 . S
C1623 C1624 1.362 . S
C1624 H1616 0.930 . S
C1624 C1623 1.362 . S
C1624 C1627 1.409 . S
C1625 H1617 0.930 . S
C1625 C1626 1.355 . S
C1625 C1627 1.415 . S
C1626 C1625 1.355 . S
C1626 C1628 1.419 . S
C1627 C1622 1.425 . S
C1627 C1624 1.409 . S
C1627 C1625 1.415 . S
C1628 H1618 0.930 . S
C1628 C1626 1.419 . S
C1628 C1629 1.362 . S
C1629 H1619 0.930 . S
C1629 C1622 1.409 . S
C1629 C1628 1.362 . S
H1630 C1636 0.930 . S
H1631 C1639 0.930 . S
H1632 C1640 0.930 . S
H1633 C1641 0.930 . S
H1634 C1644 0.930 . S
H1635 C1645 0.930 . S
C1636 H1630 0.930 . S
C1636 C1637 1.355 . S
C1636 C1638 1.415 . S
C1637 C1636 1.355 . S
C1637 C1639 1.419 . S
C1638 C1636 1.415 . S
C1638 C1643 1.425 . S
C1638 C1645 1.409 . S
C1639 H1631 0.930 . S
C1639 C1637 1.419 . S
C1639 C1640 1.362 . S
C1640 H1632 0.930 . S
C1640 C1639 1.362 . S
C1640 C1643 1.409 . S
C1641 H1633 0.930 . S
C1641 C1642 1.355 . S
C1641 C1643 1.415 . S
C1642 C1641 1.355 . S
C1642 C1644 1.419 . S
C1643 C1638 1.425 . S
C1643 C1640 1.409 . S
C1643 C1641 1.415 . S
C1644 H1634 0.930 . S
C1644 C1642 1.419 . S
C1644 C1645 1.362 . S
C1645 H1635 0.930 . S
C1645 C1638 1.409 . S
C1645 C1644 1.362 . S
H1646 C1652 0.930 . S
H1647 C1655 0.930 . S
H1648 C1656 0.930 . S
H1649 C1657 0.930 . S
H1650 C1660 0.930 . S
H1651 C1661 0.930 . S
C1652 H1646 0.930 . S
C1652 C1653 1.355 . S
C1652 C1654 1.415 . S
C1653 C1652 1.355 . S
C1653 C1655 1.419 . S
C1654 C1652 1.415 . S
C1654 C1659 1.425 . S
C1654 C1661 1.409 . S
C1655 H1647 0.930 . S
C1655 C1653 1.419 . S
C1655 C1656 1.362 . S
C1656 H1648 0.930 . S
C1656 C1655 1.362 . S
C1656 C1659 1.409 . S
C1657 H1649 0.930 . S
C1657 C1658 1.355 . S
C1657 C1659 1.415 . S
C1658 C1657 1.355 . S
C1658 C1660 1.419 . S
C1659 C1654 1.425 . S
C1659 C1656 1.409 . S
C1659 C1657 1.415 . S
C1660 H1650 0.930 . S
C1660 C1658 1.419 . S
C1660 C1661 1.362 . S
C1661 H1651 0.930 . S
C1661 C1654 1.409 . S
C1661 C1660 1.362 . S
H1662 C1668 0.930 . S
H1663 C1671 0.930 . S
H1664 C1672 0.930 . S
H1665 C1673 0.930 . S
H1666 C1676 0.930 . S
H1667 C1677 0.930 . S
C1668 H1662 0.930 . S
C1668 C1669 1.355 . S
C1668 C1670 1.415 . S
C1669 C1668 1.355 . S
C1669 C1671 1.419 . S
C1670 C1668 1.415 . S
C1670 C1675 1.425 . S
C1670 C1677 1.409 . S
C1671 H1663 0.930 . S
C1671 C1669 1.419 . S
C1671 C1672 1.362 . S
C1672 H1664 0.930 . S
C1672 C1671 1.362 . S
C1672 C1675 1.409 . S
C1673 H1665 0.930 . S
C1673 C1674 1.355 . S
C1673 C1675 1.415 . S
C1674 C1673 1.355 . S
C1674 C1676 1.419 . S
C1675 C1670 1.425 . S
C1675 C1672 1.409 . S
C1675 C1673 1.415 . S
C1676 H1666 0.930 . S
C1676 C1674 1.419 . S
C1676 C1677 1.362 . S
C1677 H1667 0.930 . S
C1677 C1670 1.409 . S
C1677 C1676 1.362 . S
H1678 C1684 0.930 . S
H1679 C1687 0.930 . S
H1680 C1688 0.930 . S
H1681 C1689 0.930 . S
H1682 C1692 0.930 . S
H1683 C1693 0.930 . S
C1684 H1678 0.930 . S
C1684 C1685 1.355 . S
C1684 C1686 1.415 . S
C1685 C1684 1.355 . S
C1685 C1687 1.419 . S
C1686 C1684 1.415 . S
C1686 C1691 1.425 . S
C1686 C1693 1.409 . S
C1687 H1679 0.930 . S
C1687 C1685 1.419 . S
C1687 C1688 1.362 . S
C1688 H1680 0.930 . S
C1688 C1687 1.362 . S
C1688 C1691 1.409 . S
C1689 H1681 0.930 . S
C1689 C1690 1.355 . S
C1689 C1691 1.415 . S
C1690 C1689 1.355 . S
C1690 C1692 1.419 . S
C1691 C1686 1.425 . S
C1691 C1688 1.409 . S
C1691 C1689 1.415 . S
C1692 H1682 0.930 . S
C1692 C1690 1.419 . S
C1692 C1693 1.362 . S
C1693 H1683 0.930 . S
C1693 C1686 1.409 . S
C1693 C1692 1.362 . S
H1694 C1700 0.930 . S
H1695 C1703 0.930 . S
H1696 C1704 0.930 . S
H1697 C1705 0.930 . S
H1698 C1708 0.930 . S
H1699 C1709 0.930 . S
C1700 H1694 0.930 . S
C1700 C1701 1.355 . S
C1700 C1702 1.415 . S
C1701 C1700 1.355 . S
C1701 C1703 1.419 . S
C1702 C1700 1.415 . S
C1702 C1707 1.425 . S
C1702 C1709 1.409 . S
C1703 H1695 0.930 . S
C1703 C1701 1.419 . S
C1703 C1704 1.362 . S
C1704 H1696 0.930 . S
C1704 C1703 1.362 . S
C1704 C1707 1.409 . S
C1705 H1697 0.930 . S
C1705 C1706 1.355 . S
C1705 C1707 1.415 . S
C1706 C1705 1.355 . S
C1706 C1708 1.419 . S
C1707 C1702 1.425 . S
C1707 C1704 1.409 . S
C1707 C1705 1.415 . S
C1708 H1698 0.930 . S
C1708 C1706 1.419 . S
C1708 C1709 1.362 . S
C1709 H1699 0.930 . S
C1709 C1702 1.409 . S
C1709 C1708 1.362 . S
H1710 C1716 0.930 . S
H1711 C1719 0.930 . S
H1712 C1720 0.930 . S
H1713 C1721 0.930 . S
H1714 C1724 0.930 . S
H1715 C1725 0.930 . S
C1716 H1710 0.930 . S
C1716 C1717 1.355 . S
C1716 C1718 1.415 . S
C1717 C1716 1.355 . S
C1717 C1719 1.419 . S
C1718 C1716 1.415 . S
C1718 C1723 1.425 . S
C1718 C1725 1.409 . S
C1719 H1711 0.930 . S
C1719 C1717 1.419 . S
C1719 C1720 1.362 . S
C1720 H1712 0.930 . S
C1720 C1719 1.362 . S
C1720 C1723 1.409 . S
C1721 H1713 0.930 . S
C1721 C1722 1.355 . S
C1721 C1723 1.415 . S
C1722 C1721 1.355 . S
C1722 C1724 1.419 . S
C1723 C1718 1.425 . S
C1723 C1720 1.409 . S
C1723 C1721 1.415 . S
C1724 H1714 0.930 . S
C1724 C1722 1.419 . S
C1724 C1725 1.362 . S
C1725 H1715 0.930 . S
C1725 C1718 1.409 . S
C1725 C1724 1.362 . S
H1726 C1732 0.930 . S
H1727 C1735 0.930 . S
H1728 C1736 0.930 . S
H1729 C1737 0.930 . S
H1730 C1740 0.930 . S
H1731 C1741 0.930 . S
C1732 H1726 0.930 . S
C1732 C1733 1.355 . S
C1732 C1734 1.415 . S
C1733 C1732 1.355 . S
C1733 C1735 1.419 . S
C1734 C1732 1.415 . S
C1734 C1739 1.425 . S
C1734 C1741 1.409 . S
C1735 H1727 0.930 . S
C1735 C1733 1.419 . S
C1735 C1736 1.362 . S
C1736 H1728 0.930 . S
C1736 C1735 1.362 . S
C1736 C1739 1.409 . S
C1737 H1729 0.930 . S
C1737 C1738 1.355 . S
C1737 C1739 1.415 . S
C1738 C1737 1.355 . S
C1738 C1740 1.419 . S
C1739 C1734 1.425 . S
C1739 C1736 1.409 . S
C1739 C1737 1.415 . S
C1740 H1730 0.930 . S
C1740 C1738 1.419 . S
C1740 C1741 1.362 . S
C1741 H1731 0.930 . S
C1741 C1734 1.409 . S
C1741 C1740 1.362 . S
H1742 C1748 0.930 . S
H1743 C1751 0.930 . S
H1744 C1752 0.930 . S
H1745 C1753 0.930 . S
H1746 C1756 0.930 . S
H1747 C1757 0.930 . S
C1748 H1742 0.930 . S
C1748 C1749 1.355 . S
C1748 C1750 1.415 . S
C1749 C1748 1.355 . S
C1749 C1751 1.419 . S
C1750 C1748 1.415 . S
C1750 C1755 1.425 . S
C1750 C1757 1.409 . S
C1751 H1743 0.930 . S
C1751 C1749 1.419 . S
C1751 C1752 1.362 . S
C1752 H1744 0.930 . S
C1752 C1751 1.362 . S
C1752 C1755 1.409 . S
C1753 H1745 0.930 . S
C1753 C1754 1.355 . S
C1753 C1755 1.415 . S
C1754 C1753 1.355 . S
C1754 C1756 1.419 . S
C1755 C1750 1.425 . S
C1755 C1752 1.409 . S
C1755 C1753 1.415 . S
C1756 H1746 0.930 . S
C1756 C1754 1.419 . S
C1756 C1757 1.362 . S
C1757 H1747 0.930 . S
C1757 C1750 1.409 . S
C1757 C1756 1.362 . S
H1758 C1764 0.930 . S
H1759 C1767 0.930 . S
H1760 C1768 0.930 . S
H1761 C1769 0.930 . S
H1762 C1772 0.930 . S
H1763 C1773 0.930 . S
C1764 H1758 0.930 . S
C1764 C1765 1.355 . S
C1764 C1766 1.415 . S
C1765 C1764 1.355 . S
C1765 C1767 1.419 . S
C1766 C1764 1.415 . S
C1766 C1771 1.425 . S
C1766 C1773 1.409 . S
C1767 H1759 0.930 . S
C1767 C1765 1.419 . S
C1767 C1768 1.362 . S
C1768 H1760 0.930 . S
C1768 C1767 1.362 . S
C1768 C1771 1.409 . S
C1769 H1761 0.930 . S
C1769 C1770 1.355 . S
C1769 C1771 1.415 . S
C1770 C1769 1.355 . S
C1770 C1772 1.419 . S
C1771 C1766 1.425 . S
C1771 C1768 1.409 . S
C1771 C1769 1.415 . S
C1772 H1762 0.930 . S
C1772 C1770 1.419 . S
C1772 C1773 1.362 . S
C1773 H1763 0.930 . S
C1773 C1766 1.409 . S
C1773 C1772 1.362 . S
H1774 C1780 0.930 . S
H1775 C1783 0.930 . S
H1776 C1784 0.930 . S
H1777 C1785 0.930 . S
H1778 C1788 0.930 . S
H1779 C1789 0.930 . S
C1780 H1774 0.930 . S
C1780 C1781 1.355 . S
C1780 C1782 1.415 . S
C1781 C1780 1.355 . S
C1781 C1783 1.419 . S
C1782 C1780 1.415 . S
C1782 C1787 1.425 . S
C1782 C1789 1.409 . S
C1783 H1775 0.930 . S
C1783 C1781 1.419 . S
C1783 C1784 1.362 . S
C1784 H1776 0.930 . S
C1784 C1783 1.362 . S
C1784 C1787 1.409 . S
C1785 H1777 0.930 . S
C1785 C1786 1.355 . S
C1785 C1787 1.415 . S
C1786 C1785 1.355 . S
C1786 C1788 1.419 . S
C1787 C1782 1.425 . S
C1787 C1784 1.409 . S
C1787 C1785 1.415 . S
C1788 H1778 0.930 . S
C1788 C1786 1.419 . S
C1788 C1789 1.362 . S
C1789 H1779 0.930 . S
C1789 C1782 1.409 . S
C1789 C1788 1.362 . S
H1790 C1796 0.930 . S
H1791 C1799 0.930 . S
H1792 C1800 0.930 . S
H1793 C1801 0.930 . S
H1794 C1804 0.930 . S
H1795 C1805 0.930 . S
C1796 H1790 0.930 . S
C1796 C1797 1.355 . S
C1796 C1798 1.415 . S
C1797 C1796 1.355 . S
C1797 C1799 1.419 . S
C1798 C1796 1.415 . S
C1798 C1803 1.425 . S
C1798 C1805 1.409 . S
C1799 H1791 0.930 . S
C1799 C1797 1.419 . S
C1799 C1800 1.362 . S
C1800 H1792 0.930 . S
C1800 C1799 1.362 . S
C1800 C1803 1.409 . S
C1801 H1793 0.930 . S
C1801 C1802 1.355 . S
C1801 C1803 1.415 . S
C1802 C1801 1.355 . S
C1802 C1804 1.419 . S
C1803 C1798 1.425 . S
C1803 C1800 1.409 . S
C1803 C1801 1.415 . S
C1804 H1794 0.930 . S
C1804 C1802 1.419 . S
C1804 C1805 1.362 . S
C1805 H1795 0.930 . S
C1805 C1798 1.409 . S
C1805 C1804 1.362 . S
H1806 C1812 0.930 . S
H1807 C1815 0.930 . S
H1808 C1816 0.930 . S
H1809 C1817 0.930 . S
H1810 C1820 0.930 . S
H1811 C1821 0.930 . S
C1812 H1806 0.930 . S
C1812 C1813 1.355 . S
C1812 C1814 1.415 . S
C1813 C1812 1.355 . S
C1813 C1815 1.419 . S
C1814 C1812 1.415 . S
C1814 C1819 1.425 . S
C1814 C1821 1.409 . S
C1815 H1807 0.930 . S
C1815 C1813 1.419 . S
C1815 C1816 1.362 . S
C1816 H1808 0.930 . S
C1816 C1815 1.362 . S
C1816 C1819 1.409 . S
C1817 H1809 0.930 . S
C1817 C1818 1.355 . S
C1817 C1819 1.415 . S
C1818 C1817 1.355 . S
C1818 C1820 1.419 . S
C1819 C1814 1.425 . S
C1819 C1816 1.409 . S
C1819 C1817 1.415 . S
C1820 H1810 0.930 . S
C1820 C1818 1.419 . S
C1820 C1821 1.362 . S
C1821 H1811 0.930 . S
C1821 C1814 1.409 . S
C1821 C1820 1.362 . S
H1822 C1828 0.930 . S
H1823 C1831 0.930 . S
H1824 C1832 0.930 . S
H1825 C1833 0.930 . S
H1826 C1836 0.930 . S
H1827 C1837 0.930 . S
C1828 H1822 0.930 . S
C1828 C1829 1.355 . S
C1828 C1830 1.415 . S
C1829 C1828 1.355 . S
C1829 C1831 1.419 . S
C1830 C1828 1.415 . S
C1830 C1835 1.425 . S
C1830 C1837 1.409 . S
C1831 H1823 0.930 . S
C1831 C1829 1.419 . S
C1831 C1832 1.362 . S
C1832 H1824 0.930 . S
C1832 C1831 1.362 . S
C1832 C1835 1.409 . S
C1833 H1825 0.930 . S
C1833 C1834 1.355 . S
C1833 C1835 1.415 . S
C1834 C1833 1.355 . S
C1834 C1836 1.419 . S
C1835 C1830 1.425 . S
C1835 C1832 1.409 . S
C1835 C1833 1.415 . S
C1836 H1826 0.930 . S
C1836 C1834 1.419 . S
C1836 C1837 1.362 . S
C1837 H1827 0.930 . S
C1837 C1830 1.409 . S
C1837 C1836 1.362 . S
H1838 C1844 0.930 . S
H1839 C1847 0.930 . S
H1840 C1848 0.930 . S
H1841 C1849 0.930 . S
H1842 C1852 0.930 . S
H1843 C1853 0.930 . S
C1844 H1838 0.930 . S
C1844 C1845 1.355 . S
C1844 C1846 1.415 . S
C1845 C1844 1.355 . S
C1845 C1847 1.419 . S
C1846 C1844 1.415 . S
C1846 C1851 1.425 . S
C1846 C1853 1.409 . S
C1847 H1839 0.930 . S
C1847 C1845 1.419 . S
C1847 C1848 1.362 . S
C1848 H1840 0.930 . S
C1848 C1847 1.362 . S
C1848 C1851 1.409 . S
C1849 H1841 0.930 . S
C1849 C1850 1.355 . S
C1849 C1851 1.415 . S
C1850 C1849 1.355 . S
C1850 C1852 1.419 . S
C1851 C1846 1.425 . S
C1851 C1848 1.409 . S
C1851 C1849 1.415 . S
C1852 H1842 0.930 . S
C1852 C1850 1.419 . S
C1852 C1853 1.362 . S
C1853 H1843 0.930 . S
C1853 C1846 1.409 . S
C1853 C1852 1.362 . S
C997 C177 1.446 . S
C1002 C290 1.433 . S
C1013 C190 1.489 . S
C1018 C374 1.428 . S
C1029 C164 1.453 . S
C1034 C468 1.430 . S
C1045 C151 1.441 . S
C1050 C384 1.451 . S
C1066 C458 1.424 . S
C1061 C125 1.439 . S
C1077 C138 1.411 . S
C1082 C300 1.438 . S
C1098 C301 1.475 . S
C1093 C147 1.423 . S
C1114 C385 1.488 . S
C1109 C121 1.445 . S
C1125 C134 1.430 . S
C1130 C477 1.471 . S
C1141 C173 1.404 . S
C1146 C393 1.475 . S
C1157 C186 1.388 . S
C1162 C469 1.463 . S
C1178 C309 1.395 . S
C1173 C160 1.448 . S
C1194 C542 1.368 . S
C1189 C21 1.468 . S
C1205 C34 1.483 . S
C1210 C626 1.402 . S
C1221 C8 1.464 . S
C1226 C720 1.459 . S
C1237 C229 1.431 . S
C1242 C636 1.449 . S
C1253 C203 1.446 . S
C1258 C710 1.406 . S
C1269 C216 1.429 . S
C1274 C552 1.407 . S
C1285 C225 1.483 . S
C1290 C553 1.411 . S
C1301 C199 1.460 . S
C1306 C637 1.474 . S
C1322 C729 1.480 . S
C1317 C212 1.427 . S
C1333 C17 1.465 . S
C1338 C645 1.418 . S
C1354 C721 1.426 . S
C1349 C30 1.429 1_455 S
C1365 C4 1.430 . S
C1370 C561 1.394 . S
C1386 C794 1.425 . S
C1381 C99 1.447 . S
C1397 C112 1.488 . S
C1402 C878 1.393 . S
C1418 C972 1.429 . S
C1413 C86 1.452 . S
C1434 C888 1.437 . S
C1429 C73 1.427 . S
C1450 C962 1.422 . S
C1445 C47 1.440 . S
C1461 C60 1.408 . S
C1466 C804 1.423 . S
C1477 C69 1.430 . S
C1482 C805 1.465 . S
C1493 C43 1.505 . S
C1498 C889 1.434 . S
C1514 C981 1.489 . S
C1509 C56 1.500 . S
C1525 C95 1.481 . S
C1530 C897 1.447 . S
C1541 C108 1.432 . S
C1546 C973 1.422 . S
C1557 C82 1.418 . S
C1562 C813 1.399 . S
C1573 C204 1.579 . S
C1578 C297 1.445 . S
C1594 C381 1.446 . S
C1589 C217 1.590 . S
C1605 C230 1.548 . S
C1610 C474 1.401 . S
C1621 C87 1.595 . S
C1626 C390 1.413 . S
C1637 C100 1.555 . S
C1642 C465 1.440 . S
C1658 C306 1.302 . S
C1653 C113 1.528 . S
C1669 C48 1.579 . S
C1674 C549 1.426 . S
C1685 C61 1.623 . S
C1690 C633 1.433 . S
C1701 C74 1.543 . S
C1706 C726 1.349 . S
C1717 C165 1.585 . S
C1722 C642 1.446 . S
C1738 C717 1.486 . S
C1733 C178 1.579 . S
C1749 C191 1.516 . S
C1754 C558 1.319 . S
C1765 C126 1.575 . S
C1770 C801 1.467 . S
C1781 C139 1.617 . S
C1786 C885 1.418 . S
C1802 C978 1.400 . S
C1797 C152 1.548 . S
C1813 C9 1.596 . S
C1818 C894 1.428 . S
C1829 C22 1.583 . S
C1834 C969 1.390 . S
C1845 C35 1.545 . S
C1850 C810 1.340 . S
