# Generated by pormake.
# Topology ptr, (4,4)-cn, num edge types: 1
# Building blocks:
#     Node 0, Type 0, BuildingBlock: AZAVOO_clean_sbu_0, # of connection points: 4
#     Node 1, Type 0, BuildingBlock: AZAVOO_clean_sbu_0, # of connection points: 4
#     Node 2, Type 0, BuildingBlock: AZAVOO_clean_sbu_0, # of connection points: 4
#     Node 3, Type 0, BuildingBlock: AZAVOO_clean_sbu_0, # of connection points: 4
#     Node 4, Type 0, BuildingBlock: AZAVOO_clean_sbu_0, # of connection points: 4
#     Node 5, Type 0, BuildingBlock: AZAVOO_clean_sbu_0, # of connection points: 4
#     Node 6, Type 0, BuildingBlock: AZAVOO_clean_sbu_0, # of connection points: 4
#     Node 7, Type 0, BuildingBlock: AZAVOO_clean_sbu_0, # of connection points: 4
#     Node 8, Type 0, BuildingBlock: AZAVOO_clean_sbu_0, # of connection points: 4
#     Node 9, Type 0, BuildingBlock: AZAVOO_clean_sbu_0, # of connection points: 4
#     Node 10, Type 0, BuildingBlock: AZAVOO_clean_sbu_0, # of connection points: 4
#     Node 11, Type 0, BuildingBlock: AZAVOO_clean_sbu_0, # of connection points: 4
#     Node 12, Type 0, BuildingBlock: AZAVOO_clean_sbu_0, # of connection points: 4
#     Node 13, Type 0, BuildingBlock: AZAVOO_clean_sbu_0, # of connection points: 4
#     Node 14, Type 0, BuildingBlock: AZAVOO_clean_sbu_0, # of connection points: 4
#     Node 15, Type 0, BuildingBlock: AZAVOO_clean_sbu_0, # of connection points: 4
#     Node 16, Type 0, BuildingBlock: AZAVOO_clean_sbu_0, # of connection points: 4
#     Node 17, Type 0, BuildingBlock: AZAVOO_clean_sbu_0, # of connection points: 4
#     Node 18, Type 1, BuildingBlock: GIZVER_clean_linker_0, # of connection points: 4
#     Node 19, Type 1, BuildingBlock: GIZVER_clean_linker_0, # of connection points: 4
#     Node 20, Type 1, BuildingBlock: GIZVER_clean_linker_0, # of connection points: 4
#     Node 21, Type 1, BuildingBlock: GIZVER_clean_linker_0, # of connection points: 4
#     Node 22, Type 1, BuildingBlock: GIZVER_clean_linker_0, # of connection points: 4
#     Node 23, Type 1, BuildingBlock: GIZVER_clean_linker_0, # of connection points: 4
#     Node 24, Type 1, BuildingBlock: GIZVER_clean_linker_0, # of connection points: 4
#     Node 25, Type 1, BuildingBlock: GIZVER_clean_linker_0, # of connection points: 4
#     Node 26, Type 1, BuildingBlock: GIZVER_clean_linker_0, # of connection points: 4
#     Node 27, Type 1, BuildingBlock: GIZVER_clean_linker_0, # of connection points: 4
#     Node 28, Type 1, BuildingBlock: GIZVER_clean_linker_0, # of connection points: 4
#     Node 29, Type 1, BuildingBlock: GIZVER_clean_linker_0, # of connection points: 4
#     Node 30, Type 1, BuildingBlock: GIZVER_clean_linker_0, # of connection points: 4
#     Node 31, Type 1, BuildingBlock: GIZVER_clean_linker_0, # of connection points: 4
#     Node 32, Type 1, BuildingBlock: GIZVER_clean_linker_0, # of connection points: 4
#     Node 33, Type 1, BuildingBlock: GIZVER_clean_linker_0, # of connection points: 4
#     Node 34, Type 1, BuildingBlock: GIZVER_clean_linker_0, # of connection points: 4
#     Node 35, Type 1, BuildingBlock: GIZVER_clean_linker_0, # of connection points: 4
#     Edge 36, Type (0, 1), BuildingBlock: EZIPEK_clean_linker_0, # of connection points: 2
#     Edge 37, Type (0, 1), BuildingBlock: EZIPEK_clean_linker_0, # of connection points: 2
#     Edge 38, Type (0, 1), BuildingBlock: EZIPEK_clean_linker_0, # of connection points: 2
#     Edge 39, Type (0, 1), BuildingBlock: EZIPEK_clean_linker_0, # of connection points: 2
#     Edge 40, Type (0, 1), BuildingBlock: EZIPEK_clean_linker_0, # of connection points: 2
#     Edge 41, Type (0, 1), BuildingBlock: EZIPEK_clean_linker_0, # of connection points: 2
#     Edge 42, Type (0, 1), BuildingBlock: EZIPEK_clean_linker_0, # of connection points: 2
#     Edge 43, Type (0, 1), BuildingBlock: EZIPEK_clean_linker_0, # of connection points: 2
#     Edge 44, Type (0, 1), BuildingBlock: EZIPEK_clean_linker_0, # of connection points: 2
#     Edge 45, Type (0, 1), BuildingBlock: EZIPEK_clean_linker_0, # of connection points: 2
#     Edge 46, Type (0, 1), BuildingBlock: EZIPEK_clean_linker_0, # of connection points: 2
#     Edge 47, Type (0, 1), BuildingBlock: EZIPEK_clean_linker_0, # of connection points: 2
#     Edge 48, Type (0, 1), BuildingBlock: EZIPEK_clean_linker_0, # of connection points: 2
#     Edge 49, Type (0, 1), BuildingBlock: EZIPEK_clean_linker_0, # of connection points: 2
#     Edge 50, Type (0, 1), BuildingBlock: EZIPEK_clean_linker_0, # of connection points: 2
#     Edge 51, Type (0, 1), BuildingBlock: EZIPEK_clean_linker_0, # of connection points: 2
#     Edge 52, Type (0, 1), BuildingBlock: EZIPEK_clean_linker_0, # of connection points: 2
#     Edge 53, Type (0, 1), BuildingBlock: EZIPEK_clean_linker_0, # of connection points: 2
#     Edge 54, Type (0, 1), BuildingBlock: EZIPEK_clean_linker_0, # of connection points: 2
#     Edge 55, Type (0, 1), BuildingBlock: EZIPEK_clean_linker_0, # of connection points: 2
#     Edge 56, Type (0, 1), BuildingBlock: EZIPEK_clean_linker_0, # of connection points: 2
#     Edge 57, Type (0, 1), BuildingBlock: EZIPEK_clean_linker_0, # of connection points: 2
#     Edge 58, Type (0, 1), BuildingBlock: EZIPEK_clean_linker_0, # of connection points: 2
#     Edge 59, Type (0, 1), BuildingBlock: EZIPEK_clean_linker_0, # of connection points: 2
#     Edge 60, Type (0, 1), BuildingBlock: EZIPEK_clean_linker_0, # of connection points: 2
#     Edge 61, Type (0, 1), BuildingBlock: EZIPEK_clean_linker_0, # of connection points: 2
#     Edge 62, Type (0, 1), BuildingBlock: EZIPEK_clean_linker_0, # of connection points: 2
#     Edge 63, Type (0, 1), BuildingBlock: EZIPEK_clean_linker_0, # of connection points: 2
#     Edge 64, Type (0, 1), BuildingBlock: EZIPEK_clean_linker_0, # of connection points: 2
#     Edge 65, Type (0, 1), BuildingBlock: EZIPEK_clean_linker_0, # of connection points: 2
#     Edge 66, Type (0, 1), BuildingBlock: EZIPEK_clean_linker_0, # of connection points: 2
#     Edge 67, Type (0, 1), BuildingBlock: EZIPEK_clean_linker_0, # of connection points: 2
#     Edge 68, Type (0, 1), BuildingBlock: EZIPEK_clean_linker_0, # of connection points: 2
#     Edge 69, Type (0, 1), BuildingBlock: EZIPEK_clean_linker_0, # of connection points: 2
#     Edge 70, Type (0, 1), BuildingBlock: EZIPEK_clean_linker_0, # of connection points: 2
#     Edge 71, Type (0, 1), BuildingBlock: EZIPEK_clean_linker_0, # of connection points: 2
#     Edge 72, Type (0, 1), BuildingBlock: EZIPEK_clean_linker_0, # of connection points: 2
#     Edge 73, Type (0, 1), BuildingBlock: EZIPEK_clean_linker_0, # of connection points: 2
#     Edge 74, Type (0, 1), BuildingBlock: EZIPEK_clean_linker_0, # of connection points: 2
#     Edge 75, Type (0, 1), BuildingBlock: EZIPEK_clean_linker_0, # of connection points: 2
#     Edge 76, Type (0, 1), BuildingBlock: EZIPEK_clean_linker_0, # of connection points: 2
#     Edge 77, Type (0, 1), BuildingBlock: EZIPEK_clean_linker_0, # of connection points: 2
#     Edge 78, Type (0, 1), BuildingBlock: EZIPEK_clean_linker_0, # of connection points: 2
#     Edge 79, Type (0, 1), BuildingBlock: EZIPEK_clean_linker_0, # of connection points: 2
#     Edge 80, Type (0, 1), BuildingBlock: EZIPEK_clean_linker_0, # of connection points: 2
#     Edge 81, Type (0, 1), BuildingBlock: EZIPEK_clean_linker_0, # of connection points: 2
#     Edge 82, Type (0, 1), BuildingBlock: EZIPEK_clean_linker_0, # of connection points: 2
#     Edge 83, Type (0, 1), BuildingBlock: EZIPEK_clean_linker_0, # of connection points: 2
#     Edge 84, Type (0, 1), BuildingBlock: EZIPEK_clean_linker_0, # of connection points: 2
#     Edge 85, Type (0, 1), BuildingBlock: EZIPEK_clean_linker_0, # of connection points: 2
#     Edge 86, Type (0, 1), BuildingBlock: EZIPEK_clean_linker_0, # of connection points: 2
#     Edge 87, Type (0, 1), BuildingBlock: EZIPEK_clean_linker_0, # of connection points: 2
#     Edge 88, Type (0, 1), BuildingBlock: EZIPEK_clean_linker_0, # of connection points: 2
#     Edge 89, Type (0, 1), BuildingBlock: EZIPEK_clean_linker_0, # of connection points: 2
#     Edge 90, Type (0, 1), BuildingBlock: EZIPEK_clean_linker_0, # of connection points: 2
#     Edge 91, Type (0, 1), BuildingBlock: EZIPEK_clean_linker_0, # of connection points: 2
#     Edge 92, Type (0, 1), BuildingBlock: EZIPEK_clean_linker_0, # of connection points: 2
#     Edge 93, Type (0, 1), BuildingBlock: EZIPEK_clean_linker_0, # of connection points: 2
#     Edge 94, Type (0, 1), BuildingBlock: EZIPEK_clean_linker_0, # of connection points: 2
#     Edge 95, Type (0, 1), BuildingBlock: EZIPEK_clean_linker_0, # of connection points: 2
#     Edge 96, Type (0, 1), BuildingBlock: EZIPEK_clean_linker_0, # of connection points: 2
#     Edge 97, Type (0, 1), BuildingBlock: EZIPEK_clean_linker_0, # of connection points: 2
#     Edge 98, Type (0, 1), BuildingBlock: EZIPEK_clean_linker_0, # of connection points: 2
#     Edge 99, Type (0, 1), BuildingBlock: EZIPEK_clean_linker_0, # of connection points: 2
#     Edge 100, Type (0, 1), BuildingBlock: EZIPEK_clean_linker_0, # of connection points: 2
#     Edge 101, Type (0, 1), BuildingBlock: EZIPEK_clean_linker_0, # of connection points: 2
#     Edge 102, Type (0, 1), BuildingBlock: EZIPEK_clean_linker_0, # of connection points: 2
#     Edge 103, Type (0, 1), BuildingBlock: EZIPEK_clean_linker_0, # of connection points: 2
#     Edge 104, Type (0, 1), BuildingBlock: EZIPEK_clean_linker_0, # of connection points: 2
#     Edge 105, Type (0, 1), BuildingBlock: EZIPEK_clean_linker_0, # of connection points: 2
#     Edge 106, Type (0, 1), BuildingBlock: EZIPEK_clean_linker_0, # of connection points: 2
#     Edge 107, Type (0, 1), BuildingBlock: EZIPEK_clean_linker_0, # of connection points: 2
# Relax obj value: 0.077
# Max RMSD: 0.241
# Mean RMSD: 0.126
data_MOF--net-ptr--node1-AZAVOO_clean_sbu_0--node2-GIZVER_clean_linker_0--edge1-EZIPEK_clean_linker_0
_symmetry_space_group_name_H-M    P1
_symmetry_Int_Tables_number       1
_symmetry_cell_setting            triclinic
loop_
_symmetry_equiv_pos_as_xyz
'x, y, z'
_cell_length_a     60.358588
_cell_length_b     59.441354
_cell_length_c     34.06028
_cell_angle_alpha  91.81556
_cell_angle_beta   91.68958
_cell_angle_gamma 120.11719
loop_
_atom_site_label
_atom_site_type_symbol
_atom_site_fract_x
_atom_site_fract_y
_atom_site_fract_z
_atom_type_partial_charge
Mg0 Mg 0.0018 0.36439 0.99309 0.0
O1 O 0.00846 0.39129 0.04847 0.0
O2 O 0.97623 0.39994 0.04616 0.0
Mg3 Mg 0.95094 0.38129 0.98997 0.0
C4 C 0.99654 0.40218 0.06285 0.0
C5 C 0.03439 0.3374 0.99189 0.0
O6 O 0.0251 0.33307 0.95533 0.0
O7 O 0.96784 0.33075 0.02026 0.0
O8 O 0.93666 0.34002 0.01183 0.0
O9 O 0.02515 0.39798 0.95547 0.0
O10 O 0.98435 0.38227 0.96505 0.0
C11 C 0.94445 0.32469 0.02294 0.0
C12 C 0.00451 0.3991 0.94865 0.0
O13 O 0.02895 0.35055 0.01598 0.0
Mg14 Mg 0.61553 0.64618 0.03947 0.0
O15 O 0.59494 0.62503 0.9811 0.0
O16 O 0.55497 0.61811 0.9798 0.0
Mg17 Mg 0.55062 0.6368 0.0369 0.0
C18 C 0.57271 0.61569 0.96423 0.0
C19 C 0.66416 0.64144 0.02463 0.0
O20 O 0.65437 0.6247 0.05223 0.0
O21 O 0.62046 0.68408 0.01827 0.0
O22 O 0.58134 0.67867 0.022 0.0
O23 O 0.59997 0.60846 0.06908 0.0
O24 O 0.58025 0.63089 0.06587 0.0
C25 C 0.60507 0.69286 0.01517 0.0
C26 C 0.5801 0.61038 0.07697 0.0
O27 O 0.65324 0.65394 0.01387 0.0
Mg28 Mg 0.37165 0.00376 0.95947 0.0
O29 O 0.39099 -0.00031 0.01508 0.0
O30 O 0.43319 0.02794 0.01521 0.0
Mg31 Mg 0.44106 0.04964 0.95857 0.0
C32 C 0.41358 0.01015 0.03107 0.0
C33 C 0.32676 0.957 0.99464 0.0
O34 O 0.34184 0.94781 0.98569 0.0
O35 O 0.3766 0.04166 0.98545 0.0
O36 O 0.41828 0.06898 0.97941 0.0
O37 O 0.37785 0.97513 0.92406 0.0
O38 O 0.40569 0.01694 0.9318 0.0
C39 C 0.39616 0.06455 0.98904 0.0
C40 C 0.40015 0.99452 0.91702 0.0
O41 O 0.33309 0.98009 0.98642 0.0
Mg42 Mg 0.98666 0.64084 0.04944 0.0
O43 O 0.99161 0.61578 0.00127 0.0
O44 O 0.02832 0.61639 0.0166 0.0
Mg45 Mg 0.04577 0.64005 0.07464 0.0
C46 C 0.00831 0.60915 0.99423 0.0
C47 C 0.93981 0.64663 0.03191 0.0
O48 O 0.94336 0.65113 0.07023 0.0
O49 O 0.01807 0.67794 0.02321 0.0
O50 O 0.05288 0.67663 0.04348 0.0
O51 O 0.96606 0.60652 0.08704 0.0
O52 O 0.008 0.63305 0.08923 0.0
C53 C 0.04241 0.68797 0.02605 0.0
C54 C 0.9886 0.61273 0.10154 0.0
O55 O 0.95485 0.64159 0.01313 0.0
Mg56 Mg 0.35438 0.36591 0.97026 0.0
O57 O 0.38249 0.38531 0.02375 0.0
O58 O 0.41869 0.38583 0.00871 0.0
Mg59 Mg 0.41471 0.37108 0.94409 0.0
C60 C 0.40536 0.3905 0.03258 0.0
C61 C 0.3001 0.35358 0.98543 0.0
O62 O 0.3015 0.3572 0.94755 0.0
O63 O 0.35055 0.32678 0.98467 0.0
O64 O 0.38557 0.32917 0.96038 0.0
O65 O 0.36663 0.40489 0.94608 0.0
O66 O 0.38465 0.38122 0.93346 0.0
C67 C 0.36393 0.31634 0.97593 0.0
C68 C 0.38409 0.40237 0.92867 0.0
O69 O 0.31969 0.35664 0.00525 0.0
Mg70 Mg 0.62774 0.01905 0.03672 0.0
O71 O 0.60146 0.00158 0.98122 0.0
O72 O 0.5672 0.96425 -0.00298 0.0
Mg73 Mg 0.57056 0.95964 0.06337 0.0
C74 C 0.58003 0.98101 0.97208 0.0
C75 C 0.67799 0.06818 0.01621 0.0
O76 O 0.67409 0.07635 0.05016 0.0
O77 O 0.63853 0.98741 0.03118 0.0
O78 O 0.60492 0.95341 0.05581 0.0
O79 O 0.60833 0.04164 0.05415 0.0
O80 O 0.59657 0.00186 0.07125 0.0
C81 C 0.62758 0.96435 0.04328 0.0
C82 C 0.59282 0.02131 0.07254 0.0
O83 O 0.66171 0.04565 0.00159 0.0
Mg84 Mg 0.69261 0.70341 0.2994 0.0
O85 O 0.6865 0.72183 0.35486 0.0
O86 O 0.65298 0.72706 0.34408 0.0
Mg87 Mg 0.63845 0.71339 0.27962 0.0
C88 C 0.67097 0.72878 0.36704 0.0
C89 C 0.74003 0.69693 0.32153 0.0
O90 O 0.74893 0.71062 0.2904 0.0
O91 O 0.65757 0.66459 0.31171 0.0
O92 O 0.62525 0.67046 0.29209 0.0
O93 O 0.71869 0.74268 0.27642 0.0
O94 O 0.67667 0.72052 0.26485 0.0
C95 C 0.63375 0.65584 0.30393 0.0
C96 C 0.69829 0.74122 0.26024 0.0
O97 O 0.71822 0.69174 0.33324 0.0
Mg98 Mg 0.28767 0.96765 0.36839 0.0
O99 O 0.26087 0.94584 0.31528 0.0
O100 O 0.22217 0.94087 0.32437 0.0
Mg101 Mg 0.22497 0.95976 0.38566 0.0
C102 C 0.23773 0.93771 0.30356 0.0
C103 C 0.34328 0.98159 0.35164 0.0
O104 O 0.34612 0.98762 0.38959 0.0
O105 O 0.29088 0.00543 0.34965 0.0
O106 O 0.25306 0.00056 0.36395 0.0
O107 O 0.27578 0.93032 0.39552 0.0
O108 O 0.25695 0.9537 0.40533 0.0
C109 C 0.2754 0.01415 0.35084 0.0
C110 C 0.25827 0.93315 0.41222 0.0
O111 O 0.32164 0.97362 0.33373 0.0
Mg112 Mg 0.04626 0.34101 0.30347 0.0
O113 O 0.06297 0.33614 0.36129 0.0
O114 O 0.10581 0.35937 0.36225 0.0
Mg115 Mg 0.11705 0.37892 0.3043 0.0
C116 C 0.08497 0.34413 0.37812 0.0
C117 C -0.0013 0.29876 0.33937 0.0
O118 O 0.01199 0.28742 0.33087 0.0
O119 O 0.05655 0.38221 0.32165 0.0
O120 O 0.09938 0.40425 0.3196 0.0
O121 O 0.04843 0.30873 0.27149 0.0
O122 O 0.07973 0.34933 0.27736 0.0
C123 C 0.07805 0.40354 0.32345 0.0
C124 C 0.07144 0.32614 0.26325 0.0
O125 O 0.00714 0.32221 0.33046 0.0
Mg126 Mg 0.66571 0.9802 0.37051 0.0
O127 O 0.67199 0.95654 0.32135 0.0
O128 O 0.70915 0.95814 0.33709 0.0
Mg129 Mg 0.7258 0.98111 0.39575 0.0
C130 C 0.68929 0.95075 0.31425 0.0
C131 C 0.61302 0.97467 0.35198 0.0
O132 O 0.61143 0.96871 0.38899 0.0
O133 O 0.6968 0.01867 0.34661 0.0
O134 O 0.73197 0.01815 0.36708 0.0
O135 O 0.64558 0.94502 0.40686 0.0
O136 O 0.68728 0.97204 0.40928 0.0
C137 C 0.72121 0.02946 0.35038 0.0
C138 C 0.66818 0.95125 0.42106 0.0
O139 O 0.63341 0.98049 0.33448 0.0
Mg140 Mg 0.04004 0.70005 0.32241 0.0
O141 O 0.06776 0.72337 0.37445 0.0
O142 O 0.10245 0.71919 0.36812 0.0
Mg143 Mg 0.09922 0.69911 0.30741 0.0
C144 C 0.0896 0.7273 0.38707 0.0
C145 C 0.98423 0.68161 0.33661 0.0
O146 O 0.98301 0.67037 0.30218 0.0
O147 O 0.03356 0.66239 0.34816 0.0
O148 O 0.06677 0.65972 0.32672 0.0
O149 O 0.05429 0.735 0.28561 0.0
O150 O 0.07068 0.70928 0.28816 0.0
C151 C 0.0449 0.64951 0.34198 0.0
C152 C 0.07109 0.72917 0.27379 0.0
O153 O 0.00597 0.6966 0.35396 0.0
Mg154 Mg 0.28802 0.34279 0.35491 0.0
O155 O 0.25999 0.32522 0.30087 0.0
O156 O 0.2276 0.28687 0.31794 0.0
Mg157 Mg 0.233 0.28239 0.38381 0.0
C158 C 0.23888 0.30403 0.29276 0.0
C159 C 0.34244 0.38252 0.33864 0.0
O160 O 0.34339 0.37815 0.37605 0.0
O161 O 0.29987 0.31201 0.34643 0.0
O162 O 0.26772 0.2774 0.37256 0.0
O163 O 0.26856 0.3645 0.3759 0.0
O164 O 0.2581 0.32482 0.39169 0.0
C165 C 0.28989 0.28893 0.35836 0.0
C166 C 0.25414 0.3441 0.39502 0.0
O167 O 0.32103 0.37076 0.31905 0.0
Mg168 Mg 0.35778 0.04394 0.63705 0.0
O169 O 0.3585 0.06837 0.69144 0.0
O170 O 0.32542 0.07504 0.68124 0.0
Mg171 Mg 0.30681 0.05884 0.61907 0.0
C172 C 0.34443 0.07759 0.70252 0.0
C173 C 0.39224 0.02041 0.6432 0.0
O174 O 0.38698 0.01915 0.60522 0.0
O175 O 0.32167 0.00848 0.65722 0.0
O176 O 0.29092 0.01601 0.63513 0.0
O177 O 0.3849 0.07979 0.60675 0.0
O178 O 0.34277 0.06155 0.60176 0.0
C179 C 0.29805 0.00087 0.6494 0.0
C180 C 0.36484 0.07975 0.5921 0.0
O181 O 0.38336 0.03066 0.66675 0.0
Mg182 Mg 0.96682 0.30937 0.71773 0.0
O183 O 0.93953 0.28721 0.66466 0.0
O184 O 0.90118 0.28293 0.67467 0.0
Mg185 Mg 0.90452 0.30226 0.73564 0.0
C186 C 0.91631 0.27934 0.65345 0.0
C187 C 0.02168 0.32115 0.70193 0.0
O188 O 0.02413 0.32646 0.74006 0.0
O189 O 0.97045 0.34724 0.69802 0.0
O190 O 0.93276 0.34263 0.71249 0.0
O191 O 0.95514 0.27247 0.74624 0.0
O192 O 0.9363 0.29593 0.75506 0.0
C193 C 0.95503 0.35603 0.69897 0.0
C194 C 0.9376 0.27544 0.76252 0.0
O195 O 0.00052 0.31448 0.68338 0.0
Mg196 Mg 0.69424 0.6482 0.61802 0.0
O197 O 0.71382 0.65178 0.678 0.0
O198 O 0.75635 0.67372 0.67351 0.0
Mg199 Mg 0.76357 0.68478 0.60976 0.0
C200 C 0.73648 0.6615 0.69327 0.0
C201 C 0.63748 0.6112 0.6378 0.0
O202 O 0.6559 0.63427 0.65065 0.0
O203 O 0.70416 0.6903 0.62357 0.0
O204 O 0.74672 0.71171 0.61874 0.0
O205 O 0.69519 0.61207 0.60269 0.0
O206 O 0.72545 0.65179 0.58918 0.0
C207 C 0.72558 0.71145 0.62233 0.0
C208 C 0.71678 0.62705 0.58714 0.0
O209 O 0.65594 0.63361 0.64937 0.0
Mg210 Mg 0.32155 0.28212 0.69522 0.0
O211 O 0.32856 0.26323 0.64087 0.0
O212 O 0.35818 0.25268 0.6582 0.0
Mg213 Mg 0.36923 0.26367 0.72312 0.0
C214 C 0.34279 0.25366 0.63287 0.0
C215 C 0.28097 0.29635 0.67771 0.0
O216 O 0.27954 0.29234 0.71547 0.0
O217 O 0.36001 0.31992 0.69085 0.0
O218 O 0.38735 0.30688 0.71062 0.0
O219 O 0.29156 0.24355 0.71589 0.0
O220 O 0.33303 0.26284 0.73185 0.0
C221 C 0.38273 0.32467 0.70018 0.0
C222 C 0.31031 0.24364 0.73544 0.0
O223 O 0.29818 0.29499 0.65883 0.0
Mg224 Mg 0.70706 0.03071 0.64931 0.0
O225 O 0.73275 0.05619 0.70253 0.0
O226 O 0.77206 0.06184 0.69562 0.0
Mg227 Mg 0.77197 0.04149 0.63768 0.0
C228 C 0.75612 0.0655 0.71456 0.0
C229 C 0.64874 0.01157 0.65888 0.0
O230 O 0.66977 0.02329 0.68156 0.0
O231 O 0.70547 0.99468 0.67468 0.0
O232 O 0.7446 0.00207 0.66293 0.0
O233 O 0.71793 0.06551 0.61326 0.0
O234 O 0.739 0.04419 0.61618 0.0
C235 C 0.7223 0.98766 0.67578 0.0
C236 C 0.73697 0.06296 0.60241 0.0
O237 O 0.66971 0.02297 0.67991 0.0
Mg238 Mg 0.9574 0.68412 0.71227 0.0
O239 O 0.93042 0.66728 0.65743 0.0
O240 O 0.89622 0.62993 0.67339 0.0
Mg241 Mg 0.89951 0.62565 0.73993 0.0
C242 C 0.90891 0.64679 0.64848 0.0
C243 C 0.00744 0.73323 0.68674 0.0
O244 O 0.00361 0.7436 0.71857 0.0
O245 O 0.96683 0.6513 0.70649 0.0
O246 O 0.93299 0.61812 0.73211 0.0
O247 O 0.93902 0.7077 0.73044 0.0
O248 O 0.92634 0.66781 0.74771 0.0
C249 C 0.95546 0.62832 0.71901 0.0
C250 C 0.92323 0.68767 0.74915 0.0
O251 O 0.99144 0.70973 0.67566 0.0
H252 H 0.12707 0.27749 0.14284 0.0
H253 H 0.10941 0.28205 0.02026 0.0
H254 H 0.08229 0.31207 0.11172 0.0
H255 H 0.12468 0.2447 0.0818 0.0
H256 H 0.13239 0.25985 0.03595 0.0
H257 H 0.1556 0.26517 0.14188 0.0
H258 H 0.2345 0.31457 0.11789 0.0
H259 H 0.17626 0.2931 0.02548 0.0
C260 C 0.11847 0.28327 0.12006 0.0
C261 C 0.10489 0.29547 0.13134 0.0
C262 C 0.12058 0.27846 0.07999 0.0
C263 C 0.10835 0.28585 0.05126 0.0
C264 C 0.09438 0.2979 0.06287 0.0
C265 C 0.09284 0.30257 0.10277 0.0
C266 C 0.13427 0.26393 0.06835 0.0
C267 C 0.16234 0.27832 0.08234 0.0
C268 C 0.16976 0.27701 0.12151 0.0
C269 C 0.19565 0.29091 0.13462 0.0
C270 C 0.2144 0.30453 0.10802 0.0
C271 C 0.2075 0.30489 0.06864 0.0
C272 C 0.18148 0.29252 0.056 0.0
H273 H 0.71028 0.84204 0.15981 0.0
H274 H 0.66869 0.82461 0.04725 0.0
H275 H 0.66004 0.7626 0.11849 0.0
H276 H 0.72399 0.87502 0.11007 0.0
H277 H 0.70726 0.86751 0.0631 0.0
H278 H 0.70008 0.87825 0.17111 0.0
H279 H 0.66285 0.9219 0.14626 0.0
H280 H 0.68099 0.88594 0.05093 0.0
C281 C 0.69627 0.82808 0.13801 0.0
C282 C 0.6852 0.80134 0.1436 0.0
C283 C 0.69025 0.8367 0.10337 0.0
C284 C 0.67288 0.81825 0.07453 0.0
C285 C 0.662 0.79153 0.08003 0.0
C286 C 0.668 0.78327 0.11469 0.0
C287 C 0.7045 0.86527 0.0952 0.0
C288 C 0.69069 0.87901 0.10945 0.0
C289 C 0.69084 0.88459 0.15002 0.0
C290 C 0.68077 0.90007 0.16315 0.0
C291 C 0.66988 0.90927 0.13598 0.0
C292 C 0.66999 0.90437 0.09561 0.0
C293 C 0.68017 0.88901 0.08227 0.0
H294 H 0.16817 0.80442 0.16208 0.0
H295 H 0.15296 0.80408 0.03736 0.0
H296 H 0.09194 0.75699 0.11163 0.0
H297 H 0.20191 0.81519 0.11374 0.0
H298 H 0.1956 0.81779 0.0631 0.0
H299 H 0.18959 0.84951 0.15883 0.0
H300 H 0.25047 0.92484 0.13168 0.0
H301 H 0.22623 0.85998 0.04874 0.0
C302 C 0.15476 0.79883 0.13686 0.0
C303 C 0.12868 0.78154 0.14143 0.0
C304 C 0.16368 0.80757 0.09944 0.0
C305 C 0.14615 0.79832 0.06649 0.0
C306 C 0.12051 0.77901 0.07054 0.0
C307 C 0.11176 0.77186 0.10826 0.0
C308 C 0.19216 0.82225 0.09355 0.0
C309 C 0.20481 0.8514 0.1014 0.0
C310 C 0.20259 0.86196 0.13766 0.0
C311 C 0.21902 0.8884 0.14862 0.0
C312 C 0.23711 0.90464 0.12266 0.0
C313 C 0.23952 0.89442 0.08652 0.0
C314 C 0.22328 0.86796 0.07584 0.0
H315 H 0.35699 0.20081 0.8434 0.0
H316 H 0.37488 0.21724 0.96655 0.0
H317 H 0.30751 0.21469 0.91329 0.0
H318 H 0.39991 0.21362 0.87461 0.0
H319 H 0.40377 0.21268 0.92654 0.0
H320 H 0.37443 0.17207 0.83252 0.0
H321 H 0.37002 0.10425 0.88131 0.0
H322 H 0.38964 0.17159 0.95697 0.0
C323 C 0.35138 0.20358 0.87227 0.0
C324 C 0.33052 0.20742 0.87554 0.0
C325 C 0.36635 0.20553 0.90571 0.0
C326 C 0.36136 0.21332 0.94235 0.0
C327 C 0.34064 0.21798 0.94622 0.0
C328 C 0.32365 0.21157 0.91281 0.0
C329 C 0.38988 0.20321 0.90083 0.0
C330 C 0.3828 0.17506 0.89541 0.0
C331 C 0.37562 0.16208 0.85784 0.0
C332 C 0.37066 0.13637 0.85275 0.0
C333 C 0.37315 0.12384 0.88528 0.0
C334 C 0.38016 0.13656 0.92274 0.0
C335 C 0.3842 0.16183 0.92793 0.0
H336 H 0.86293 0.17814 0.87396 0.0
H337 H 0.85969 0.19395 -0.00234 0.0
H338 H 0.90126 0.25683 0.92234 0.0
H339 H 0.85494 0.14514 0.92789 0.0
H340 H 0.84442 0.15011 0.97399 0.0
H341 H 0.82748 0.13481 0.86629 0.0
H342 H 0.74669 0.09833 0.88251 0.0
H343 H 0.80035 0.1399 0.98012 0.0
C344 C 0.86688 0.19177 0.89866 0.0
C345 C 0.88209 0.21854 0.89365 0.0
C346 C 0.85816 0.18264 0.93601 0.0
C347 C 0.86521 0.20069 0.96842 0.0
C348 C 0.88089 0.22744 0.96342 0.0
C349 C 0.88861 0.23618 0.92595 0.0
C350 C 0.84438 0.15379 0.94216 0.0
C351 C 0.81717 0.1401 0.9248 0.0
C352 C 0.81194 0.13128 0.88493 0.0
C353 C 0.78655 0.11652 0.86959 0.0
C354 C 0.76632 0.11068 0.89398 0.0
C355 C 0.77123 0.11892 0.93378 0.0
C356 C 0.79664 0.13406 0.94905 0.0
H357 H 0.8185 0.65255 0.85219 0.0
H358 H 0.82677 0.62924 0.96817 0.0
H359 H 0.89225 0.67008 0.89897 0.0
H360 H 0.78408 0.60586 0.89038 0.0
H361 H 0.78507 0.61285 0.94148 0.0
H362 H 0.77726 0.63363 0.84135 0.0
H363 H 0.72456 0.6569 0.87961 0.0
H364 H 0.76285 0.63413 0.96441 0.0
C365 C 0.8301 0.65252 0.87678 0.0
C366 C 0.85648 0.66308 0.87203 0.0
C367 C 0.81886 0.6399 0.91132 0.0
C368 C 0.83494 0.63953 0.94191 0.0
C369 C 0.86139 0.65068 0.93751 0.0
C370 C 0.87196 0.66244 0.90279 0.0
C371 C 0.79 0.62216 0.91275 0.0
C372 C 0.77403 0.63479 0.90441 0.0
C373 C 0.76906 0.63875 0.86543 0.0
C374 C 0.75216 0.64777 0.85677 0.0
C375 C 0.73875 0.65136 0.88676 0.0
C376 C 0.74227 0.64606 0.92548 0.0
C377 C 0.76058 0.6387 0.93454 0.0
H378 H 0.79135 0.59815 0.47544 0.0
H379 H 0.80738 0.63859 0.36757 0.0
H380 H 0.75885 0.6461 0.45042 0.0
H381 H 0.80979 0.58616 0.41945 0.0
H382 H 0.81892 0.60508 0.37684 0.0
H383 H 0.8342 0.61413 0.48796 0.0
H384 H 0.91523 0.65689 0.47454 0.0
H385 H 0.86368 0.63087 0.37198 0.0
C386 C 0.78987 0.61175 0.45664 0.0
C387 C 0.77479 0.6224 0.46764 0.0
C388 C 0.80251 0.6182 0.42116 0.0
C389 C 0.79869 0.63439 0.39578 0.0
C390 C 0.78269 0.64423 0.40624 0.0
C391 C 0.77137 0.63867 0.4425 0.0
C392 C 0.81855 0.60637 0.40946 0.0
C393 C 0.84555 0.62181 0.42776 0.0
C394 C 0.85 0.62344 0.46888 0.0
C395 C 0.87507 0.63634 0.48565 0.0
C396 C 0.89583 0.64751 0.46151 0.0
C397 C 0.89178 0.64542 0.4206 0.0
C398 C 0.86668 0.63284 0.40373 0.0
H399 H 0.37932 0.17349 0.4702 0.0
H400 H 0.33474 0.14699 0.35967 0.0
H401 H 0.32901 0.09183 0.44308 0.0
H402 H 0.39004 0.20272 0.41419 0.0
H403 H 0.37055 0.19172 0.36931 0.0
H404 H 0.36353 0.20203 0.47817 0.0
H405 H 0.32447 0.24401 0.4556 0.0
H406 H 0.34765 0.21401 0.35854 0.0
C407 C 0.36493 0.15796 0.45063 0.0
C408 C 0.35416 0.1321 0.46141 0.0
C409 C 0.35758 0.16363 0.41422 0.0
C410 C 0.33995 0.143 0.38826 0.0
C411 C 0.32991 0.11713 0.39859 0.0
C412 C 0.33668 0.11188 0.43532 0.0
C413 C 0.36989 0.19142 0.40192 0.0
C414 C 0.35578 0.20481 0.41649 0.0
C415 C 0.35469 0.20882 0.45719 0.0
C416 C 0.34315 0.22265 0.47114 0.0
C417 C 0.33272 0.23264 0.44456 0.0
C418 C 0.33453 0.22986 0.40406 0.0
C419 C 0.34583 0.21571 0.3899 0.0
H420 H 0.83641 0.14782 0.50345 0.0
H421 H 0.82746 0.14842 0.37736 0.0
H422 H 0.76329 0.09843 0.44434 0.0
H423 H 0.87239 0.15852 0.45916 0.0
H424 H 0.86879 0.16235 0.40825 0.0
H425 H 0.86312 0.19239 0.50584 0.0
H426 H 0.92389 0.26813 0.4798 0.0
H427 H 0.89697 0.20489 0.3931 0.0
C428 C 0.82426 0.14235 0.47675 0.0
C429 C 0.79815 0.12391 0.47818 0.0
C430 C 0.83504 0.15173 0.44048 0.0
C431 C 0.81918 0.14227 0.40559 0.0
C432 C 0.79358 0.12204 0.40672 0.0
C433 C 0.783 0.11415 0.44321 0.0
C434 C 0.86389 0.16632 0.43795 0.0
C435 C 0.87679 0.1954 0.44705 0.0
C436 C 0.87561 0.2053 0.48458 0.0
C437 C 0.89258 0.23152 0.49642 0.0
C438 C 0.91008 0.24817 0.47015 0.0
C439 C 0.91157 0.23861 0.43286 0.0
C440 C 0.89472 0.21241 0.4212 0.0
H441 H 0.03541 0.55106 0.18623 0.0
H442 H 0.04414 0.54556 0.31013 0.0
H443 H 0.99334 0.57114 0.26386 0.0
H444 H 0.07039 0.5472 0.2123 0.0
H445 H 0.07735 0.55068 0.26407 0.0
H446 H 0.03518 0.50305 0.18176 0.0
H447 H 0.03691 0.43962 0.23559 0.0
H448 H 0.06877 0.51364 0.29929 0.0
C449 C 0.02953 0.55187 0.21577 0.0
C450 C 0.01253 0.56089 0.22218 0.0
C451 C 0.04058 0.546 0.24767 0.0
C452 C 0.03445 0.54919 0.28625 0.0
C453 C 0.01753 0.55859 0.29347 0.0
C454 C 0.00574 0.56302 0.26042 0.0
C455 C 0.06169 0.54007 0.24092 0.0
C456 C 0.05193 0.5113 0.24124 0.0
C457 C 0.03926 0.49508 0.20735 0.0
C458 C 0.03355 0.46907 0.20548 0.0
C459 C 0.04003 0.45926 0.23784 0.0
C460 C 0.05281 0.4753 0.27156 0.0
C461 C 0.05802 0.50106 0.27376 0.0
H462 H 0.50416 0.50615 0.1854 0.0
H463 H 0.53988 0.52416 0.30313 0.0
H464 H 0.56353 0.58359 0.22005 0.0
H465 H 0.51746 0.47485 0.24029 0.0
H466 H 0.5078 0.48045 0.2863 0.0
H467 H 0.48759 0.4615 0.17946 0.0
H468 H 0.40792 0.41707 0.2034 0.0
H469 H 0.46298 0.46528 0.29604 0.0
C470 C 0.51715 0.5198 0.20825 0.0
C471 C 0.53342 0.54568 0.19877 0.0
C472 C 0.51924 0.51158 0.24599 0.0
C473 C 0.53719 0.53014 0.27449 0.0
C474 C 0.55286 0.55618 0.26516 0.0
C475 C 0.5507 0.56365 0.22754 0.0
C476 C 0.50627 0.48287 0.25425 0.0
C477 C 0.47853 0.46648 0.2391 0.0
C478 C 0.47248 0.45644 0.19974 0.0
C479 C 0.44696 0.43919 0.18674 0.0
C480 C 0.42753 0.43111 0.21325 0.0
C481 C 0.43323 0.44028 0.25258 0.0
C482 C 0.45861 0.45854 0.26534 0.0
H483 H 0.48912 0.98056 0.17725 0.0
H484 H 0.49827 0.95377 0.28987 0.0
H485 H 0.5632 0.99735 0.22054 0.0
H486 H 0.45462 0.93264 0.21303 0.0
H487 H 0.4561 0.93854 0.26464 0.0
H488 H 0.44816 0.96206 0.16665 0.0
H489 H 0.40167 0.99155 0.21135 0.0
H490 H 0.43581 0.96128 0.29078 0.0
C491 C 0.50082 0.97971 0.20092 0.0
C492 C 0.52711 0.99069 0.19549 0.0
C493 C 0.48986 0.96592 0.23471 0.0
C494 C 0.5062 0.96478 0.2641 0.0
C495 C 0.53266 0.97638 0.25908 0.0
C496 C 0.5429 0.98922 0.22489 0.0
C497 C 0.46099 0.94846 0.2364 0.0
C498 C 0.44567 0.96199 0.22999 0.0
C499 C 0.44093 0.96744 0.19178 0.0
C500 C 0.42614 0.97919 0.18539 0.0
C501 C 0.4141 0.98354 0.21669 0.0
C502 C 0.41709 0.97659 0.25446 0.0
C503 C 0.43359 0.96667 0.26144 0.0
H504 H 0.47201 0.95676 0.81227 0.0
H505 H 0.46545 0.96473 0.68723 0.0
H506 H 0.42989 0.99178 0.76852 0.0
H507 H 0.47357 0.92496 0.75587 0.0
H508 H 0.48243 0.9382 0.7089 0.0
H509 H 0.50339 0.94778 0.81642 0.0
H510 H 0.58327 0.98988 0.79385 0.0
H511 H 0.52698 0.96816 0.69822 0.0
C512 C 0.46555 0.96333 0.78761 0.0
C513 C 0.45078 0.97504 0.79471 0.0
C514 C 0.47093 0.9593 0.74881 0.0
C515 C 0.46173 0.96781 0.71727 0.0
C516 C 0.44699 0.97962 0.72464 0.0
C517 C 0.44152 0.98289 0.7631 0.0
C518 C 0.48394 0.94357 0.74086 0.0
C519 C 0.51177 0.95748 0.75578 0.0
C520 C 0.51821 0.9576 0.79588 0.0
C521 C 0.54393 0.97009 0.80977 0.0
C522 C 0.56339 0.98109 0.78325 0.0
C523 C 0.55735 0.97986 0.74297 0.0
C524 C 0.53158 0.96889 0.7294 0.0
H525 H 0.02431 0.50362 0.84644 0.0
H526 H 0.00697 0.48895 0.72095 0.0
H527 H 0.99028 0.42587 0.79494 0.0
H528 H 0.04915 0.5382 0.79581 0.0
H529 H 0.03606 0.53275 0.74659 0.0
H530 H 0.02427 0.54238 0.85216 0.0
H531 H 0.98394 0.58196 0.82123 0.0
H532 H 0.00697 0.54766 0.73006 0.0
C533 C 0.01643 0.4903 0.82078 0.0
C534 C 0.00691 0.46362 0.82513 0.0
C535 C 0.01685 0.49979 0.78315 0.0
C536 C 0.0067 0.48203 0.75008 0.0
C537 C 0.99701 0.45537 0.75458 0.0
C538 C 0.99747 0.44649 0.79183 0.0
C539 C 0.03079 0.52879 0.77768 0.0
C540 C 0.01549 0.54146 0.78975 0.0
C541 C 0.0146 0.54742 0.82987 0.0
C542 C 0.00297 0.56177 0.84117 0.0
C543 C 0.99195 0.56991 0.81244 0.0
C544 C 0.99375 0.56535 0.77248 0.0
C545 C 0.005 0.5506 0.76103 0.0
H546 H 0.48525 0.48574 0.82856 0.0
H547 H 0.48943 0.44698 0.72219 0.0
H548 H 0.41875 0.41725 0.7797 0.0
H549 H 0.52508 0.48024 0.80651 0.0
H550 H 0.52781 0.47839 0.75507 0.0
H551 H 0.52562 0.51909 0.83966 0.0
H552 H 0.57537 0.58981 0.78473 0.0
H553 H 0.54361 0.51656 0.71876 0.0
C554 C 0.47596 0.47169 0.80405 0.0
C555 C 0.45028 0.45224 0.80675 0.0
C556 C 0.49043 0.47018 0.7734 0.0
C557 C 0.47821 0.44981 0.744 0.0
C558 C 0.45225 0.43085 0.74614 0.0
C559 C 0.43828 0.43292 0.7766 0.0
C560 C 0.5194 0.48511 0.77807 0.0
C561 C 0.53133 0.51436 0.77816 0.0
C562 C 0.53386 0.5289 0.81315 0.0
C563 C 0.54918 0.55616 0.81527 0.0
C564 C 0.56218 0.56895 0.78238 0.0
C565 C 0.56022 0.55466 0.74772 0.0
C566 C 0.54414 0.52753 0.74517 0.0
H567 H 0.70119 0.8737 0.50281 0.0
H568 H 0.71377 0.87301 0.62792 0.0
H569 H 0.68253 0.91835 0.582 0.0
H570 H 0.7344 0.86571 0.52932 0.0
H571 H 0.74002 0.86599 0.58076 0.0
H572 H 0.697 0.82663 0.4935 0.0
H573 H 0.68696 0.75594 0.53916 0.0
H574 H 0.72391 0.82642 0.61209 0.0
C575 C 0.69883 0.87872 0.53267 0.0
C576 C 0.68908 0.89544 0.53907 0.0
C577 C 0.70781 0.87054 0.56463 0.0
C578 C 0.70617 0.87863 0.60327 0.0
C579 C 0.69839 0.89705 0.60956 0.0
C580 C 0.68843 0.904 0.57752 0.0
C581 C 0.72447 0.85882 0.55718 0.0
C582 C 0.7097 0.82948 0.55456 0.0
C583 C 0.69755 0.81598 0.5184 0.0
C584 C 0.68924 0.78934 0.51298 0.0
C585 C 0.69181 0.77607 0.54428 0.0
C586 C 0.70478 0.78944 0.57962 0.0
C587 C 0.71271 0.81588 0.58545 0.0
H588 H 0.18276 0.84281 0.53766 0.0
H589 H 0.19993 0.87124 0.65933 0.0
H590 H 0.2303 0.92407 0.56666 0.0
H591 H 0.1857 0.81734 0.60498 0.0
H592 H 0.17339 0.82579 0.64597 0.0
H593 H 0.1593 0.79994 0.54054 0.0
H594 H 0.07796 0.75895 0.55188 0.0
H595 H 0.1279 0.80957 0.6477 0.0
C596 C 0.19022 0.85859 0.55981 0.0
C597 C 0.20576 0.88395 0.54792 0.0
C598 C 0.18679 0.85368 0.60013 0.0
C599 C 0.20016 0.87479 0.6283 0.0
C600 C 0.21593 0.9002 0.61612 0.0
C601 C 0.21728 0.90465 0.57605 0.0
C602 C 0.17372 0.82592 0.61334 0.0
C603 C 0.14682 0.80843 0.59526 0.0
C604 C 0.14304 0.79655 0.5573 0.0
C605 C 0.11824 0.77949 0.54115 0.0
C606 C 0.09707 0.77303 0.56374 0.0
C607 C 0.10052 0.78347 0.60232 0.0
C608 C 0.12531 0.80169 0.6177 0.0
H609 H 0.15619 0.30772 0.51222 0.0
H610 H 0.17015 0.28506 0.62545 0.0
H611 H 0.23164 0.32523 0.54868 0.0
H612 H 0.12277 0.26312 0.55274 0.0
H613 H 0.12721 0.26957 0.60446 0.0
H614 H 0.11577 0.29338 0.509 0.0
H615 H 0.07463 0.32653 0.56186 0.0
H616 H 0.10968 0.29392 0.63481 0.0
C617 C 0.16889 0.30787 0.53517 0.0
C618 C 0.19477 0.31832 0.52708 0.0
C619 C 0.15952 0.29574 0.57073 0.0
C620 C 0.17696 0.29522 0.59866 0.0
C621 C 0.20298 0.30608 0.59075 0.0
C622 C 0.21174 0.31778 0.55528 0.0
C623 C 0.13088 0.27918 0.57597 0.0
C624 C 0.11637 0.29376 0.57265 0.0
C625 C 0.11031 0.29945 0.53547 0.0
C626 C 0.09643 0.31237 0.53188 0.0
C627 C 0.08642 0.31761 0.56503 0.0
C628 C 0.09067 0.31046 0.60197 0.0
C629 C 0.10644 0.29942 0.6061 0.0
C630 C 0.03145 0.44135 0.10197 0.0
C631 C 0.00667 0.41875 0.0999 0.0
C632 C -0.00166 0.43142 0.16472 0.0
C633 C 0.02386 0.45267 0.16818 0.0
N634 N 0.06638 0.47499 0.14355 0.0
N635 N 0.96835 0.38957 0.13227 0.0
C636 C 0.04091 0.45684 0.13777 0.0
C637 C 0.99058 0.41304 0.13213 0.0
N638 N 0.04553 0.44876 0.06927 0.0
N639 N 0.98139 0.42912 0.19225 0.0
H640 H 0.96239 0.37531 0.10943 0.0
H641 H 0.95708 0.38317 0.15655 0.0
H642 H 0.98649 0.44223 0.21653 0.0
H643 H 0.96183 0.41564 0.18927 0.0
H644 H 0.06236 0.46662 0.06784 0.0
H645 H 0.03931 0.43813 0.04237 0.0
H646 H 0.08018 0.47674 0.12428 0.0
H647 H 0.07416 0.48687 0.16922 0.0
C648 C 0.55523 0.56421 0.09593 0.0
C649 C 0.55866 0.58966 0.09866 0.0
C650 C 0.53035 0.57613 0.15399 0.0
C651 C 0.53452 0.55498 0.15848 0.0
N652 N 0.55091 0.52819 0.13237 0.0
N653 N 0.54689 0.61923 0.13085 0.0
C654 C 0.54637 0.54834 0.12857 0.0
C655 C 0.54488 0.59532 0.12705 0.0
N656 N 0.56037 0.55527 0.06205 0.0
N657 N 0.51319 0.57823 0.17682 0.0
H658 H 0.55572 0.63388 0.11141 0.0
H659 H 0.54037 0.62505 0.15494 0.0
H660 H 0.50267 0.56429 0.19691 0.0
H661 H 0.50755 0.59198 0.17287 0.0
H662 H 0.55654 0.5362 0.05746 0.0
H663 H 0.56527 0.56607 0.03702 0.0
H664 H 0.56229 0.52475 0.11346 0.0
H665 H 0.54469 0.51587 0.15564 0.0
C666 C 0.42951 0.02121 0.10172 0.0
C667 C 0.41696 0.00209 0.07038 0.0
C668 C 0.40789 0.96765 0.11569 0.0
C669 C 0.42308 0.98692 0.14562 0.0
N670 N 0.45248 0.03204 0.16519 0.0
N671 N 0.39833 0.95734 0.04578 0.0
C672 C 0.43516 0.01373 0.13805 0.0
C673 C 0.40723 0.97532 0.07685 0.0
N674 N 0.43483 0.04622 0.09761 0.0
N675 N 0.3935 0.94214 0.12459 0.0
H676 H 0.39822 0.96225 0.0167 0.0
H677 H 0.39339 0.93799 0.04847 0.0
H678 H 0.39341 0.93579 0.15282 0.0
H679 H 0.37992 0.92771 0.10484 0.0
H680 H 0.44159 0.06019 0.12092 0.0
H681 H 0.42995 0.05237 0.07211 0.0
H682 H 0.46384 0.05162 0.15937 0.0
H683 H 0.45727 0.02736 0.19219 0.0
C684 C 0.41726 0.96649 0.89036 0.0
C685 C 0.41837 0.99099 0.89249 0.0
C686 C 0.45211 0.00637 0.84538 0.0
C687 C 0.44498 0.98037 0.83484 0.0
N688 N 0.41924 0.93463 0.84704 0.0
N689 N 0.43504 0.03354 0.86439 0.0
C690 C 0.42742 0.96005 0.85762 0.0
C691 C 0.43575 0.01111 0.86868 0.0
N692 N 0.40706 0.94964 0.91971 0.0
N693 N 0.47351 0.02635 0.83076 0.0
H694 H 0.42119 0.03704 0.87568 0.0
H695 H 0.44622 0.04738 0.84469 0.0
H696 H 0.48555 0.02304 0.8131 0.0
H697 H 0.48049 0.0458 0.83969 0.0
H698 H 0.40747 0.93233 0.92045 0.0
H699 H 0.40134 0.95458 0.94562 0.0
H700 H 0.40432 0.91917 0.86052 0.0
H701 H 0.42606 0.92898 0.82316 0.0
C702 C 0.98175 0.41253 0.89862 0.0
C703 C 0.00411 0.41863 0.92242 0.0
C704 C 0.02875 0.45791 0.8858 0.0
C705 C 0.00605 0.45237 0.86394 0.0
N706 N 0.95991 0.43006 0.86072 0.0
N707 N 0.04616 0.45269 0.94736 0.0
C708 C 0.98217 0.4318 0.87476 0.0
C709 C 0.02678 0.44314 0.91889 0.0
N710 N 0.96098 0.38789 0.89522 0.0
N711 N 0.05228 0.47605 0.87403 0.0
H712 H 0.04469 0.44344 0.97342 0.0
H713 H 0.06215 0.47134 0.94727 0.0
H714 H 0.05479 0.48696 0.84951 0.0
H715 H 0.06934 0.47861 0.88686 0.0
H716 H 0.94538 0.38264 0.87555 0.0
H717 H 0.9605 0.37182 0.90731 0.0
H718 H 0.94199 0.41638 0.87008 0.0
H719 H 0.95981 0.4441 0.84315 0.0
C720 C 0.55437 0.60564 0.89419 0.0
C721 C 0.56706 0.60074 0.92577 0.0
C722 C 0.5706 0.56884 0.88291 0.0
C723 C 0.55488 0.57118 0.85351 0.0
N724 N 0.52851 0.58898 0.83308 0.0
N725 N 0.58281 0.57357 0.95197 0.0
C726 C 0.54574 0.58873 0.85974 0.0
C727 C 0.57402 0.58125 0.92064 0.0
N728 N 0.55181 0.62722 0.89608 0.0
N729 N 0.58305 0.55551 0.8745 0.0
H730 H 0.5852 0.58147 0.98048 0.0
H731 H 0.58536 0.55748 0.95037 0.0
H732 H 0.58133 0.54629 0.84709 0.0
H733 H 0.59706 0.55579 0.89348 0.0
H734 H 0.54494 0.63303 0.87236 0.0
H735 H 0.55919 0.64097 0.91973 0.0
H736 H 0.51916 0.59943 0.83812 0.0
H737 H 0.52185 0.57692 0.80744 0.0
C738 C 0.99298 0.56868 0.9502 0.0
C739 C 0.00677 0.59623 0.95564 0.0
C740 C 0.02248 0.59989 0.88951 0.0
C741 C 0.00612 0.57268 0.88212 0.0
N742 N 0.97404 0.53108 0.9038 0.0
N743 N 0.03108 0.63837 0.92851 0.0
C744 C 0.99095 0.55694 0.91211 0.0
C745 C 0.02055 0.61193 0.92473 0.0
N746 N 0.98222 0.55382 0.98152 0.0
N747 N 0.04028 0.61413 0.86313 0.0
H748 H 0.02967 0.6479 0.95372 0.0
H749 H 0.03902 0.65056 0.90539 0.0
H750 H 0.0427 0.60581 0.83737 0.0
H751 H 0.05436 0.63358 0.86867 0.0
H752 H 0.97413 0.53367 0.9805 0.0
H753 H 0.98308 0.56195 0.00949 0.0
H754 H 0.96045 0.51914 0.92308 0.0
H755 H 0.97249 0.52184 0.87646 0.0
C756 C 0.39456 0.43133 0.87086 0.0
C757 C 0.40281 0.42271 0.90373 0.0
C758 C 0.445 0.43939 0.87718 0.0
C759 C 0.4369 0.44795 0.84409 0.0
N760 N 0.40727 0.45955 0.81586 0.0
N761 N 0.43852 0.42908 0.94534 0.0
C762 C 0.41282 0.44669 0.84345 0.0
C763 C 0.42898 0.43034 0.90926 0.0
N764 N 0.3692 0.42336 0.86393 0.0
N765 N 0.46676 0.43769 0.87706 0.0
H766 H 0.42725 0.42405 0.96964 0.0
H767 H 0.45798 0.43622 0.95185 0.0
H768 H 0.47885 0.44284 0.85376 0.0
H769 H 0.47155 0.42877 0.89896 0.0
H770 H 0.36196 0.42663 0.83796 0.0
H771 H 0.35499 0.41183 0.88266 0.0
H772 H 0.39085 0.46114 0.81578 0.0
H773 H 0.42048 0.47082 0.79551 0.0
C774 C 0.56138 0.99438 0.91703 0.0
C775 C 0.56917 0.97703 0.9312 0.0
C776 C 0.55873 0.95395 0.86625 0.0
C777 C 0.55082 0.9712 0.85224 0.0
N778 N 0.54089 0.00526 0.86442 0.0
N779 N 0.57299 0.93876 0.9216 0.0
C780 C 0.55099 0.99063 0.87775 0.0
C781 C 0.56702 0.95624 0.9065 0.0
N782 N 0.56435 0.01473 0.94101 0.0
N783 N 0.55888 0.93582 0.84063 0.0
H784 H 0.58077 0.94078 0.95009 0.0
H785 H 0.56921 0.92152 0.90681 0.0
H786 H 0.55152 0.93257 0.8116 0.0
H787 H 0.56718 0.92463 0.84726 0.0
H788 H 0.56218 0.02998 0.93137 0.0
H789 H 0.57025 0.01723 0.97068 0.0
H790 H 0.53761 0.01765 0.8824 0.0
H791 H 0.53412 0.00388 0.83541 0.0
C792 C 0.54759 0.99684 0.09004 0.0
C793 C 0.57171 0.01979 0.09562 0.0
C794 C 0.55888 0.02847 0.1592 0.0
C795 C 0.53858 0.00223 0.158 0.0
N796 N 0.51403 0.96054 0.1216 0.0
N797 N 0.60009 0.05912 0.13489 0.0
C798 C 0.53252 0.98627 0.12287 0.0
C799 C 0.57706 0.03655 0.12954 0.0
N800 N 0.53952 0.98502 0.05335 0.0
N801 N 0.56093 0.04535 0.18914 0.0
H802 H 0.61351 0.06626 0.11337 0.0
H803 H 0.60633 0.07027 0.16135 0.0
H804 H 0.54766 0.03971 0.21101 0.0
H805 H 0.57409 0.06525 0.19008 0.0
H806 H 0.52125 0.96912 0.04669 0.0
H807 H 0.5503 0.99327 0.02902 0.0
H808 H 0.51109 0.94766 0.09789 0.0
H809 H 0.503 0.95142 0.14526 0.0
C810 C 0.98328 0.5711 0.12812 0.0
C811 C 0.99252 0.59826 0.13299 0.0
C812 C 0.01697 0.60087 0.19311 0.0
C813 C 0.00597 0.57341 0.19041 0.0
N814 N 0.97576 0.5317 0.15888 0.0
N815 N 0.0122 0.6373 0.17581 0.0
C816 C 0.98824 0.55827 0.1589 0.0
C817 C 0.00763 0.61265 0.16717 0.0
N818 N 0.97076 0.55778 0.09364 0.0
N819 N 0.03696 0.61588 0.21964 0.0
H820 H 0.00475 0.64635 0.15846 0.0
H821 H 0.02083 0.64753 0.20248 0.0
H822 H 0.04503 0.60818 0.23862 0.0
H823 H 0.04727 0.63616 0.22 0.0
H824 H 0.96618 0.53869 0.08669 0.0
H825 H 0.96659 0.56641 0.07062 0.0
H826 H 0.96065 0.51958 0.13896 0.0
H827 H 0.97921 0.52177 0.18074 0.0
C828 C 0.422 0.42927 0.0802 0.0
C829 C 0.41746 0.40372 0.07131 0.0
C830 C 0.43798 0.40447 0.13498 0.0
C831 C 0.43993 0.42869 0.14542 0.0
N832 N 0.43252 0.46372 0.13001 0.0
N833 N 0.41814 0.36554 0.09148 0.0
C834 C 0.43174 0.44107 0.11848 0.0
C835 C 0.42489 0.391 0.09889 0.0
N836 N 0.41772 0.44255 0.0517 0.0
N837 N 0.4487 0.39441 0.15965 0.0
H838 H 0.40808 0.3549 0.06573 0.0
H839 H 0.42052 0.35424 0.11204 0.0
H840 H 0.45799 0.40359 0.18665 0.0
H841 H 0.45031 0.3782 0.1521 0.0
H842 H 0.42349 0.46224 0.05485 0.0
H843 H 0.41003 0.43446 0.02357 0.0
H844 H 0.42379 0.47199 0.11382 0.0
H845 H 0.44076 0.47364 0.15708 0.0
C846 C 0.65402 0.74158 0.42589 0.0
C847 C 0.67494 0.74135 0.40776 0.0
C848 C 0.70503 0.77545 0.45589 0.0
C849 C 0.68438 0.77628 0.47315 0.0
N850 N 0.63964 0.76254 0.47325 0.0
N851 N 0.71806 0.74884 0.42036 0.0
C852 C 0.65894 0.75999 0.45772 0.0
C853 C 0.69991 0.75572 0.42666 0.0
N854 N 0.6295 0.72243 0.41524 0.0
N855 N 0.72974 0.79353 0.46774 0.0
H856 H 0.71404 0.73135 0.40624 0.0
H857 H 0.73591 0.75778 0.43552 0.0
H858 H 0.73438 0.80812 0.48956 0.0
H859 H 0.74557 0.7957 0.45311 0.0
H860 H 0.61331 0.72018 0.42865 0.0
H861 H 0.62548 0.70665 0.39607 0.0
H862 H 0.62088 0.75317 0.46136 0.0
H863 H 0.64295 0.77589 0.49653 0.0
C864 C 0.25629 0.91177 0.47534 0.0
C865 C 0.24322 0.91566 0.4432 0.0
C866 C 0.2028 0.8929 0.4766 0.0
C867 C 0.21603 0.88897 0.50816 0.0
N868 N 0.2527 0.88634 0.53133 0.0
N869 N 0.20314 0.90341 0.40826 0.0
C870 C 0.24183 0.89534 0.50502 0.0
C871 C 0.2161 0.90415 0.44223 0.0
N872 N 0.28249 0.92546 0.47966 0.0
N873 N 0.17792 0.88672 0.48007 0.0
H874 H 0.21243 0.91038 0.38232 0.0
H875 H 0.18321 0.89355 0.40476 0.0
H876 H 0.16756 0.87751 0.50434 0.0
H877 H 0.16807 0.89178 0.4599 0.0
H878 H 0.29257 0.92526 0.50489 0.0
H879 H 0.29424 0.93927 0.46042 0.0
H880 H 0.27084 0.88859 0.52845 0.0
H881 H 0.24247 0.87425 0.55359 0.0
C882 C 0.07479 0.3089 0.42506 0.0
C883 C 0.08648 0.33581 0.41796 0.0
C884 C 0.10563 0.3472 0.48503 0.0
C885 C 0.0923 0.32043 0.49303 0.0
N886 N 0.05986 0.27625 0.47375 0.0
N887 N 0.1076 0.38046 0.44378 0.0
C888 C 0.0755 0.30138 0.46397 0.0
C889 C 0.10034 0.35497 0.44872 0.0
N890 N 0.06414 0.29057 0.39449 0.0
N891 N 0.12396 0.36513 0.5115 0.0
H892 H 0.10331 0.38683 0.418 0.0
H893 H 0.11548 0.39478 0.46661 0.0
H894 H 0.12856 0.36026 0.53849 0.0
H895 H 0.13619 0.38447 0.50522 0.0
H896 H 0.05775 0.2709 0.39759 0.0
H897 H 0.06378 0.29522 0.36532 0.0
H898 H 0.04529 0.26218 0.45476 0.0
H899 H 0.05984 0.27008 0.5021 0.0
C900 C 0.10391 0.33818 0.21021 0.0
C901 C 0.08686 0.31979 0.23662 0.0
C902 C 0.088 0.28466 0.19905 0.0
C903 C 0.10439 0.30306 0.17287 0.0
N904 N 0.13668 0.34729 0.16381 0.0
N905 N 0.07265 0.27818 0.26488 0.0
C906 C 0.11573 0.32987 0.18274 0.0
C907 C 0.08223 0.29384 0.23402 0.0
N908 N 0.10688 0.36247 0.20758 0.0
N909 N 0.07688 0.25861 0.18974 0.0
H910 H 0.06991 0.28502 0.29186 0.0
H911 H 0.07053 0.25968 0.26521 0.0
H912 H 0.08098 0.25124 0.16454 0.0
H913 H 0.06254 0.24451 0.20596 0.0
H914 H 0.11734 0.37492 0.18587 0.0
H915 H 0.09683 0.36948 0.22294 0.0
H916 H 0.14692 0.36713 0.172 0.0
H917 H 0.14526 0.34128 0.14297 0.0
C918 C 0.68645 0.77479 0.2435 0.0
C919 C 0.69971 0.76141 0.23421 0.0
C920 C 0.71043 0.78216 0.17108 0.0
C921 C 0.69333 0.79155 0.17747 0.0
N922 N 0.6645 0.79679 0.21912 0.0
N923 N 0.72307 0.75079 0.18779 0.0
C924 C 0.68139 0.78815 0.21375 0.0
C925 C 0.7118 0.76503 0.19791 0.0
N926 N 0.67928 0.77517 0.28105 0.0
N927 N 0.72524 0.78956 0.13913 0.0
H928 H 0.72452 0.73792 0.2063 0.0
H929 H 0.72932 0.75021 0.1598 0.0
H930 H 0.72449 0.80196 0.11879 0.0
H931 H 0.73991 0.78549 0.13483 0.0
H932 H 0.67134 0.78623 0.29074 0.0
H933 H 0.68385 0.76647 0.30356 0.0
H934 H 0.6529 0.79225 0.24302 0.0
H935 H 0.66107 0.8074 0.19842 0.0
C936 C 0.23148 0.90059 0.25951 0.0
C937 C 0.2286 0.92267 0.26533 0.0
C938 C 0.21307 0.9177 0.19653 0.0
C939 C 0.22011 0.89853 0.18945 0.0
N940 N 0.23997 0.87455 0.21329 0.0
N941 N 0.2189 0.9541 0.23867 0.0
C942 C 0.23019 0.89053 0.22074 0.0
C943 C 0.21968 0.9316 0.23378 0.0
N944 N 0.23507 0.88897 0.29117 0.0
N945 N 0.19994 0.92245 0.16772 0.0
H946 H 0.22376 0.96496 0.26536 0.0
H947 H 0.21535 0.96309 0.21553 0.0
H948 H 0.19483 0.91252 0.14016 0.0
H949 H 0.19212 0.93439 0.1723 0.0
H950 H 0.23484 0.87133 0.28879 0.0
H951 H 0.23552 0.8955 0.32016 0.0
H952 H 0.25012 0.87058 0.23455 0.0
H953 H 0.24018 0.8672 0.1852 0.0
C954 C 0.66816 0.91024 0.26925 0.0
C955 C 0.68756 0.9367 0.27655 0.0
C956 C 0.70601 0.93592 0.21376 0.0
C957 C 0.68493 0.9106 0.20443 0.0
N958 N 0.64503 0.87383 0.22133 0.0
N959 N 0.72275 0.97607 0.25365 0.0
C960 C 0.6658 0.8977 0.23176 0.0
C961 C 0.70605 0.94986 0.24837 0.0
N962 N 0.65249 0.89696 0.29851 0.0
N963 N 0.72597 0.94665 0.18935 0.0
H964 H 0.72297 0.98714 0.27817 0.0
H965 H 0.73478 0.98736 0.2322 0.0
H966 H 0.7264 0.93714 0.16337 0.0
H967 H 0.74309 0.96389 0.19649 0.0
H968 H 0.63971 0.87697 0.29657 0.0
H969 H 0.65364 0.90569 0.32609 0.0
H970 H 0.62888 0.86466 0.2379 0.0
H971 H 0.6434 0.86369 0.19482 0.0
C972 C 0.10244 0.77118 0.24395 0.0
C973 C 0.08883 0.74349 0.24266 0.0
C974 C 0.10951 0.74291 0.18223 0.0
C975 C 0.119 0.76991 0.17958 0.0
N976 N 0.12335 0.80998 0.20663 0.0
N977 N 0.07545 0.70293 0.20501 0.0
C978 C 0.1154 0.78424 0.21029 0.0
C979 C 0.0915 0.72925 0.21058 0.0
N980 N 0.10356 0.78498 0.27752 0.0
N981 N 0.11743 0.73026 0.15715 0.0
H982 H 0.06029 0.69206 0.22274 0.0
H983 H 0.07518 0.69231 0.17987 0.0
H984 H 0.13085 0.73988 0.13615 0.0
H985 H 0.11278 0.711 0.16009 0.0
H986 H 0.11517 0.80513 0.28133 0.0
H987 H 0.09488 0.77607 0.30301 0.0
H988 H 0.1186 0.82065 0.22596 0.0
H989 H 0.13332 0.82027 0.18276 0.0
C990 C 0.21529 0.31473 0.24181 0.0
C991 C 0.2264 0.29958 0.25297 0.0
C992 C 0.21234 0.27515 0.18905 0.0
C993 C 0.20365 0.29206 0.17657 0.0
N994 N 0.19804 0.32899 0.18915 0.0
N995 N 0.23798 0.26718 0.23673 0.0
C996 C 0.20528 0.31204 0.20253 0.0
C997 C 0.2254 0.28009 0.22657 0.0
N998 N 0.21374 0.33121 0.2691 0.0
N999 N 0.20785 0.25425 0.16505 0.0
H1000 H 0.2478 0.27039 0.2639 0.0
H1001 H 0.2404 0.25477 0.21739 0.0
H1002 H 0.1986 0.25034 0.13721 0.0
H1003 H 0.21135 0.23964 0.17374 0.0
H1004 H 0.20327 0.34051 0.26427 0.0
H1005 H 0.22145 0.33424 0.29787 0.0
H1006 H 0.20167 0.34591 0.20485 0.0
H1007 H 0.18958 0.32698 0.16113 0.0
C1008 C 0.21046 0.31925 0.41966 0.0
C1009 C 0.23441 0.34262 0.42155 0.0
C1010 C 0.22434 0.3541 0.48564 0.0
C1011 C 0.20442 0.32794 0.48787 0.0
N1012 N 0.17905 0.28463 0.45669 0.0
N1013 N 0.26423 0.38344 0.45678 0.0
C1014 C 0.19713 0.31031 0.45449 0.0
C1015 C 0.24113 0.3608 0.45416 0.0
N1016 N 0.20074 0.30556 0.3845 0.0
N1017 N 0.2274 0.37229 0.51409 0.0
H1018 H 0.27698 0.38967 0.43432 0.0
H1019 H 0.27139 0.39554 0.48228 0.0
H1020 H 0.21519 0.36768 0.53734 0.0
H1021 H 0.24019 0.39215 0.51243 0.0
H1022 H 0.1824 0.2893 0.38057 0.0
H1023 H 0.21012 0.31246 0.35858 0.0
H1024 H 0.17534 0.27063 0.43431 0.0
H1025 H 0.16922 0.27677 0.48187 0.0
C1026 C 0.65953 0.90813 0.44752 0.0
C1027 C 0.67252 0.93586 0.45071 0.0
C1028 C 0.69982 0.93589 0.50504 0.0
C1029 C 0.68439 0.90849 0.50601 0.0
N1030 N 0.64705 0.86851 0.48141 0.0
N1031 N 0.69968 0.97518 0.49125 0.0
C1032 C 0.66351 0.89451 0.47811 0.0
C1033 C 0.69121 0.94951 0.48189 0.0
N1034 N 0.64431 0.89477 0.41486 0.0
N1035 N 0.72287 0.94896 0.52595 0.0
H1036 H 0.69226 0.98562 0.47757 0.0
H1037 H 0.71153 0.985 0.51615 0.0
H1038 H 0.73039 0.93952 0.54223 0.0
H1039 H 0.73568 0.96877 0.52343 0.0
H1040 H 0.63662 0.87481 0.40947 0.0
H1041 H 0.64133 0.90384 0.39133 0.0
H1042 H 0.62996 0.85798 0.4644 0.0
H1043 H 0.64946 0.85792 0.5033 0.0
C1044 C 0.11023 0.76857 0.42949 0.0
C1045 C 0.1 0.74125 0.42586 0.0
C1046 C 0.10721 0.74041 0.49685 0.0
C1047 C 0.11417 0.76702 0.50108 0.0
N1048 N 0.12092 0.80642 0.47236 0.0
N1049 N 0.08678 0.70043 0.45565 0.0
C1050 C 0.11554 0.78121 0.4676 0.0
C1051 C 0.09816 0.72697 0.45939 0.0
N1052 N 0.1153 0.78244 0.3964 0.0
N1053 N 0.1097 0.72819 0.52861 0.0
H1054 H 0.08037 0.68993 0.42859 0.0
H1055 H 0.08209 0.68859 0.47948 0.0
H1056 H 0.11631 0.73752 0.55645 0.0
H1057 H 0.10741 0.70962 0.52676 0.0
H1058 H 0.12508 0.8027 0.39684 0.0
H1059 H 0.11171 0.77368 0.36813 0.0
H1060 H 0.11936 0.8169 0.4496 0.0
H1061 H 0.1254 0.81649 0.49973 0.0
C1062 C 0.33275 0.08511 0.77012 0.0
C1063 C 0.35104 0.09293 0.74072 0.0
C1064 C 0.38254 0.12903 0.78512 0.0
C1065 C 0.3636 0.12244 0.81321 0.0
N1066 N 0.3194 0.09732 0.82972 0.0
N1067 N 0.39142 0.12562 0.71698 0.0
C1068 C 0.33829 0.1014 0.80484 0.0
C1069 C 0.37543 0.11582 0.7473 0.0
N1070 N 0.31055 0.06156 0.76568 0.0
N1071 N 0.40753 0.14726 0.79498 0.0
H1072 H 0.38678 0.1169 0.6886 0.0
H1073 H 0.40819 0.14372 0.71896 0.0
H1074 H 0.41355 0.15746 0.82227 0.0
H1075 H 0.42261 0.15069 0.77734 0.0
H1076 H 0.29774 0.05356 0.78789 0.0
H1077 H 0.30601 0.04884 0.74108 0.0
H1078 H 0.30006 0.08403 0.82322 0.0
H1079 H 0.32276 0.10892 0.85534 0.0
C1080 C 0.89541 0.2442 0.79061 0.0
C1081 C 0.92263 0.25819 0.79374 0.0
C1082 C 0.9218 0.2389 0.85648 0.0
C1083 C 0.89495 0.22858 0.85649 0.0
N1084 N 0.85584 0.22219 0.82483 0.0
N1085 N 0.96188 0.27223 0.83312 0.0
C1086 C 0.88155 0.23123 0.82373 0.0
C1087 C 0.93592 0.25626 0.82741 0.0
N1088 N 0.8829 0.24267 0.7557 0.0
N1089 N 0.93379 0.23209 0.8844 0.0
H1090 H 0.9731 0.28619 0.81361 0.0
H1091 H 0.97198 0.27355 0.85924 0.0
H1092 H 0.92392 0.21922 0.90607 0.0
H1093 H 0.95295 0.23703 0.88359 0.0
H1094 H 0.86317 0.23088 0.75042 0.0
H1095 H 0.89266 0.25129 0.73075 0.0
H1096 H 0.84554 0.22611 0.80378 0.0
H1097 H 0.84505 0.21201 0.84818 0.0
C1098 C 0.75369 0.68028 0.76166 0.0
C1099 C 0.73979 0.65807 0.73541 0.0
C1100 C 0.73068 0.62946 0.79019 0.0
C1101 C 0.74707 0.65149 0.8154 0.0
N1102 N 0.77681 0.69762 0.82482 0.0
N1103 N 0.71841 0.6114 0.72318 0.0
C1104 C 0.75932 0.67687 0.80107 0.0
C1105 C 0.72904 0.63258 0.74927 0.0
N1106 N 0.76059 0.70451 0.74939 0.0
N1107 N 0.71634 0.60564 0.80552 0.0
H1108 H 0.71737 0.61281 0.69282 0.0
H1109 H 0.71272 0.59258 0.73126 0.0
H1110 H 0.71721 0.60258 0.83538 0.0
H1111 H 0.70195 0.58945 0.7893 0.0
H1112 H 0.76838 0.7211 0.76828 0.0
H1113 H 0.75632 0.70775 0.72095 0.0
H1114 H 0.78852 0.7161 0.81469 0.0
H1115 H 0.78104 0.69595 0.85413 0.0
C1116 C 0.71806 0.60114 0.52839 0.0
C1117 C 0.73014 0.61658 0.56365 0.0
C1118 C 0.77241 0.62863 0.54029 0.0
C1119 C 0.7604 0.61518 0.50389 0.0
N1120 N 0.72286 0.58136 0.46819 0.0
N1121 N 0.76696 0.63627 0.60889 0.0
C1122 C 0.7335 0.59872 0.49989 0.0
C1123 C 0.75681 0.62732 0.57153 0.0
N1124 N 0.69232 0.59071 0.52043 0.0
N1125 N 0.79851 0.64376 0.54416 0.0
H1126 H 0.75537 0.63449 0.63212 0.0
H1127 H 0.78602 0.64282 0.61744 0.0
H1128 H 0.81042 0.64447 0.52207 0.0
H1129 H 0.80825 0.6564 0.56847 0.0
H1130 H 0.68331 0.58248 0.49296 0.0
H1131 H 0.67994 0.59134 0.54044 0.0
H1132 H 0.70352 0.56717 0.46515 0.0
H1133 H 0.73401 0.57954 0.44684 0.0
C1134 C 0.35527 0.11348 0.56709 0.0
C1135 C 0.36689 0.09801 0.56175 0.0
C1136 C 0.37822 0.11395 0.49565 0.0
C1137 C 0.36244 0.12517 0.49836 0.0
N1138 N 0.33551 0.13582 0.53614 0.0
N1139 N 0.38724 0.08127 0.51886 0.0
C1140 C 0.35109 0.12533 0.53416 0.0
C1141 C 0.37825 0.09799 0.52574 0.0
N1142 N 0.34876 0.11721 0.60378 0.0
N1143 N 0.39292 0.11831 0.46388 0.0
H1144 H 0.38701 0.06849 0.53928 0.0
H1145 H 0.39286 0.07832 0.49146 0.0
H1146 H 0.39313 0.12986 0.44127 0.0
H1147 H 0.40671 0.11274 0.46194 0.0
H1148 H 0.34215 0.12998 0.61039 0.0
H1149 H 0.35244 0.10941 0.62846 0.0
H1150 H 0.32429 0.13387 0.55985 0.0
H1151 H 0.33278 0.1454 0.51297 0.0
C1152 C 0.90911 0.24275 0.60677 0.0
C1153 C 0.90669 0.26496 0.61468 0.0
C1154 C 0.88858 0.26045 0.54754 0.0
C1155 C 0.89494 0.24104 0.53807 0.0
N1156 N 0.91516 0.21649 0.55745 0.0
N1157 N 0.89698 0.29715 0.59116 0.0
C1158 C 0.90608 0.23275 0.5674 0.0
C1159 C 0.8969 0.27428 0.58483 0.0
N1160 N 0.91379 0.23086 0.63702 0.0
N1161 N 0.87449 0.26553 0.5209 0.0
H1162 H 0.90343 0.30825 0.61768 0.0
H1163 H 0.89273 0.30631 0.56904 0.0
H1164 H 0.86812 0.25566 0.49337 0.0
H1165 H 0.86713 0.27766 0.52747 0.0
H1166 H 0.91326 0.21313 0.63332 0.0
H1167 H 0.91549 0.23727 0.66643 0.0
H1168 H 0.92605 0.2123 0.57696 0.0
H1169 H 0.9139 0.20901 0.52886 0.0
C1170 C 0.32798 0.21855 0.57936 0.0
C1171 C 0.34309 0.24524 0.59187 0.0
C1172 C 0.36162 0.25567 0.52749 0.0
C1173 C 0.34445 0.22958 0.51361 0.0
N1174 N 0.30989 0.1864 0.52449 0.0
N1175 N 0.37254 0.28985 0.57782 0.0
C1176 C 0.32734 0.21097 0.53911 0.0
C1177 C 0.35944 0.264 0.56591 0.0
N1178 N 0.31451 0.20051 0.60608 0.0
N1179 N 0.38051 0.27221 0.50422 0.0
H1180 H 0.37214 0.29667 0.60625 0.0
H1181 H 0.38236 0.30475 0.55888 0.0
H1182 H 0.3829 0.26666 0.47601 0.0
H1183 H 0.39525 0.29064 0.51398 0.0
H1184 H 0.30537 0.18049 0.59991 0.0
H1185 H 0.31388 0.20555 0.63548 0.0
H1186 H 0.29504 0.17274 0.54041 0.0
H1187 H 0.30925 0.18006 0.49534 0.0
C1188 C 0.76593 0.1073 0.57624 0.0
C1189 C 0.75495 0.07977 0.57317 0.0
C1190 C 0.78001 0.08395 0.51591 0.0
C1191 C 0.78714 0.11049 0.51469 0.0
N1192 N 0.78577 0.14759 0.54214 0.0
N1193 N 0.74737 0.0416 0.53378 0.0
C1194 C 0.77998 0.12234 0.54462 0.0
C1195 C 0.76105 0.06797 0.54155 0.0
N1196 N 0.76364 0.11913 0.60965 0.0
N1197 N 0.79112 0.07392 0.49202 0.0
H1198 H 0.73159 0.02905 0.54929 0.0
H1199 H 0.74962 0.03254 0.50876 0.0
H1200 H 0.8053 0.08527 0.47297 0.0
H1201 H 0.78822 0.0552 0.49426 0.0
H1202 H 0.7733 0.13927 0.61497 0.0
H1203 H 0.75407 0.10884 0.63374 0.0
H1204 H 0.7785 0.15636 0.56062 0.0
H1205 H 0.79659 0.15928 0.51995 0.0
C1206 C 0.89025 0.66005 0.59334 0.0
C1207 C 0.89802 0.64275 0.60768 0.0
C1208 C 0.88508 0.61801 0.54411 0.0
C1209 C 0.88013 0.63701 0.5286 0.0
N1210 N 0.87895 0.67678 0.53672 0.0
N1211 N 0.90554 0.60694 0.59627 0.0
C1212 C 0.88278 0.65813 0.55283 0.0
C1213 C 0.89591 0.62198 0.58308 0.0
N1214 N 0.88943 0.6779 0.6187 0.0
N1215 N 0.87927 0.59612 0.52151 0.0
H1216 H 0.91379 0.60937 0.62455 0.0
H1217 H 0.90726 0.59341 0.57843 0.0
H1218 H 0.87171 0.59284 0.49259 0.0
H1219 H 0.87988 0.58024 0.53228 0.0
H1220 H 0.88125 0.68908 0.61119 0.0
H1221 H 0.89527 0.68028 0.64838 0.0
H1222 H 0.88358 0.69433 0.55143 0.0
H1223 H 0.87237 0.67537 0.50757 0.0
C1224 C 0.87791 0.66435 0.76776 0.0
C1225 C 0.90243 0.68695 0.77243 0.0
C1226 C 0.88942 0.69869 0.83362 0.0
C1227 C 0.86842 0.67287 0.83397 0.0
N1228 N 0.84344 0.63002 0.80102 0.0
N1229 N 0.93161 0.72684 0.81009 0.0
C1230 C 0.86241 0.65549 0.80056 0.0
C1231 C 0.90803 0.70491 0.80491 0.0
N1232 N 0.86966 0.65134 0.73189 0.0
N1233 N 0.89175 0.71696 0.86133 0.0
H1234 H 0.94565 0.73255 0.7896 0.0
H1235 H 0.93774 0.73874 0.83585 0.0
H1236 H 0.8782 0.71269 0.88248 0.0
H1237 H 0.90547 0.73665 0.86082 0.0
H1238 H 0.85114 0.63572 0.72582 0.0
H1239 H 0.88058 0.6584 0.70737 0.0
H1240 H 0.84049 0.61615 0.77886 0.0
H1241 H 0.83202 0.62209 0.82476 0.0
C1242 C 0.31032 0.24355 0.80675 0.0
C1243 C 0.30596 0.229 0.77102 0.0
C1244 C 0.3099 0.19597 0.80645 0.0
C1245 C 0.32003 0.21363 0.84009 0.0
N1246 N 0.33632 0.25795 0.8668 0.0
N1247 N 0.30163 0.19138 0.73544 0.0
C1248 C 0.32167 0.23835 0.83916 0.0
C1249 C 0.30543 0.20496 0.77041 0.0
N1250 N 0.30514 0.26343 0.80888 0.0
N1251 N 0.30456 0.17088 0.80903 0.0
H1252 H 0.29739 0.19732 0.70914 0.0
H1253 H 0.3038 0.1751 0.73244 0.0
H1254 H 0.30722 0.16375 0.83528 0.0
H1255 H 0.29544 0.15671 0.7862 0.0
H1256 H 0.30637 0.27344 0.83531 0.0
H1257 H 0.297 0.26784 0.78501 0.0
H1258 H 0.33944 0.27679 0.86507 0.0
H1259 H 0.34821 0.25669 0.88833 0.0
C1260 C 0.76177 0.06412 0.78702 0.0
C1261 C 0.76458 0.07898 0.75386 0.0
C1262 C 0.78244 0.11892 0.79633 0.0
C1263 C 0.78071 0.10419 0.82925 0.0
N1264 N 0.77388 0.06409 0.85547 0.0
N1265 N 0.78117 0.1206 0.72518 0.0
C1266 C 0.77187 0.07714 0.82444 0.0
C1267 C 0.77603 0.10646 0.75797 0.0
N1268 N 0.74897 0.0375 0.78284 0.0
N1269 N 0.78939 0.14456 0.80192 0.0
H1270 H 0.77631 0.11197 0.69676 0.0
H1271 H 0.79186 0.14085 0.72588 0.0
H1272 H 0.79472 0.1544 0.82953 0.0
H1273 H 0.78834 0.15568 0.77973 0.0
H1274 H 0.74365 0.02548 0.80648 0.0
H1275 H 0.74194 0.02723 0.7557 0.0
H1276 H 0.77028 0.04503 0.85294 0.0
H1277 H 0.78144 0.07305 0.88329 0.0
C1278 C 0.0392 0.29915 0.00886 0.0
C1279 C 0.0506 0.32644 0.0049 0.0
C1280 C 0.09271 0.3326 0.02576 0.0
C1281 C 0.08074 0.30602 0.03465 0.0
N1282 N 0.04306 0.2636 0.03507 0.0
N1283 N 0.08793 0.36944 0.0089 0.0
C1284 C 0.05416 0.28907 0.02559 0.0
C1285 C 0.07736 0.34324 0.01287 0.0
N1286 N 0.01399 0.28294 -0.00288 0.0
N1287 N 0.11885 0.34754 0.0298 0.0
H1288 H 0.07753 0.37772 -0.00225 0.0
H1289 H 0.10664 0.38323 0.01824 0.0
H1290 H 0.13037 0.34005 0.0391 0.0
H1291 H 0.12932 0.36657 0.02109 0.0
H1292 H 0.00517 0.26273 0.99514 0.0
H1293 H 0.00195 0.28966 0.98718 0.0
H1294 H 0.02337 0.25078 0.03418 0.0
H1295 H 0.05374 0.25542 0.04545 0.0
C1296 C 0.64261 0.73683 0.00347 0.0
C1297 C 0.61648 0.72168 0.01199 0.0
C1298 C 0.61899 0.75893 0.0488 0.0
C1299 C 0.64609 0.7715 0.04854 0.0
N1300 N 0.68402 0.77506 0.02121 0.0
N1301 N 0.57817 0.7238 0.02095 0.0
C1302 C 0.65797 0.7616 0.02349 0.0
C1303 C 0.60398 0.73448 0.02769 0.0
N1304 N 0.65227 0.72741 0.97591 0.0
N1305 N 0.60781 0.76963 0.07105 0.0
H1306 H 0.56755 0.70747 0.00182 0.0
H1307 H 0.56808 0.73291 0.02973 0.0
H1308 H 0.61839 0.788 0.08548 0.0
H1309 H 0.58835 0.75994 0.07639 0.0
H1310 H 0.6708 0.73788 0.96624 0.0
H1311 H 0.64052 0.70983 0.95984 0.0
H1312 H 0.69428 0.76762 0.00726 0.0
H1313 H 0.69556 0.79364 0.03454 0.0
C1314 C 0.30806 0.93344 0.0553 0.0
C1315 C 0.3043 0.94165 0.01827 0.0
C1316 C 0.25814 0.92102 0.02773 0.0
C1317 C 0.26169 0.91059 0.06266 0.0
N1318 N 0.28919 0.90287 0.10625 0.0
N1319 N 0.27561 0.94044 0.96631 0.0
C1320 C 0.28643 0.91564 0.07546 0.0
C1321 C 0.27929 0.93478 0.00369 0.0
N1322 N 0.33228 0.94356 0.07209 0.0
N1323 N 0.23472 0.91822 0.01803 0.0
H1324 H 0.2906 0.95034 0.94774 0.0
H1325 H 0.25757 0.93351 0.9525 0.0
H1326 H 0.21876 0.90791 0.03472 0.0
H1327 H 0.23158 0.92775 0.99528 0.0
H1328 H 0.336 0.94032 0.10078 0.0
H1329 H 0.34866 0.95739 0.05894 0.0
H1330 H 0.30638 0.90361 0.114 0.0
H1331 H 0.27383 0.88962 0.12192 0.0
C1332 C 0.3672 0.08358 0.99221 0.0
C1333 C 0.39224 0.08731 0.99522 0.0
C1334 C 0.40971 0.13004 0.96829 0.0
C1335 C 0.38433 0.1233 0.95585 0.0
N1336 N 0.33875 0.0967 0.96188 0.0
N1337 N 0.43633 0.11944 0.00972 0.0
C1338 C 0.36294 0.10126 0.97056 0.0
C1339 C 0.41326 0.11255 0.99134 0.0
N1340 N 0.34804 0.06365 0.01086 0.0
N1341 N 0.43034 0.15177 0.95538 0.0
H1342 H 0.43842 0.10679 0.02808 0.0
H1343 H 0.45215 0.13821 0.0104 0.0
H1344 H 0.42863 0.16514 0.93838 0.0
H1345 H 0.44916 0.15581 0.95975 0.0
H1346 H 0.32941 0.06032 0.01159 0.0
H1347 H 0.35181 0.05214 0.02932 0.0
H1348 H 0.32212 0.07962 0.96791 0.0
H1349 H 0.33539 0.11008 0.94761 0.0
C1350 C 0.93268 0.27821 0.03261 0.0
C1351 C 0.92496 0.29703 0.03043 0.0
C1352 C 0.88218 0.26331 0.00554 0.0
C1353 C 0.89237 0.2469 -0.00289 0.0
N1354 N 0.92591 0.23655 0.00719 0.0
N1355 N 0.88917 0.30365 0.03781 0.0
C1356 C 0.91694 0.25333 0.01323 0.0
C1357 C 0.89848 0.28828 0.02447 0.0
N1358 N 0.95465 0.28414 0.05377 0.0
N1359 N 0.8576 0.25562 0.99296 0.0
H1360 H 0.90084 0.321 0.05444 0.0
H1361 H 0.86981 0.298 0.03638 0.0
H1362 H 0.8452 0.23697 0.98037 0.0
H1363 H 0.84978 0.26774 0.99401 0.0
H1364 H 0.96071 0.2708 0.05851 0.0
H1365 H 0.96509 0.30169 0.07049 0.0
H1366 H 0.94483 0.24148 0.01368 0.0
H1367 H 0.91448 0.21786 0.99418 0.0
C1368 C 0.70953 0.66529 0.00318 0.0
C1369 C 0.68501 0.64238 0.00153 0.0
C1370 C 0.70012 0.62071 0.95618 0.0
C1371 C 0.72377 0.64441 0.95472 0.0
N1372 N 0.75076 0.68988 0.97387 0.0
N1373 N 0.65545 0.59968 0.97194 0.0
C1374 C 0.72847 0.66689 0.97755 0.0
C1375 C 0.67993 0.62036 0.97706 0.0
N1376 N 0.71484 0.68522 0.02992 0.0
N1377 N 0.69697 0.59847 0.93763 0.0
H1378 H 0.63997 0.5987 0.98625 0.0
H1379 H 0.64992 0.58447 0.95091 0.0
H1380 H 0.71099 0.59801 0.92101 0.0
H1381 H 0.68134 0.58004 0.94131 0.0
H1382 H 0.73304 0.70139 0.03548 0.0
H1383 H 0.70132 0.6847 0.04885 0.0
H1384 H 0.75423 0.7077 0.9861 0.0
H1385 H 0.76537 0.69139 0.95654 0.0
C1386 C 0.91686 0.67009 0.01115 0.0
C1387 C 0.91808 0.64684 0.01098 0.0
C1388 C 0.88 0.62492 0.96583 0.0
C1389 C 0.87831 0.6479 0.96702 0.0
N1390 N 0.89145 0.69034 -0.00353 0.0
N1391 N 0.89768 0.60056 0.99601 0.0
C1392 C 0.89555 0.66983 0.9917 0.0
C1393 C 0.89868 0.62375 0.99067 0.0
N1394 N 0.93674 0.69276 0.02794 0.0
N1395 N 0.86452 0.60464 0.93971 0.0
H1396 H 0.91089 0.59889 0.01432 0.0
H1397 H 0.88247 0.58265 0.98526 0.0
H1398 H 0.85011 0.6044 0.92173 0.0
H1399 H 0.86706 0.58879 0.93396 0.0
H1400 H 0.9383 0.71089 0.02523 0.0
H1401 H 0.95289 0.69388 0.04194 0.0
H1402 H 0.90183 0.70588 0.01694 0.0
H1403 H 0.87602 0.69066 0.98236 0.0
C1404 C 0.32835 0.26878 0.97328 0.0
C1405 C 0.35423 0.28837 0.98371 0.0
C1406 C 0.3633 0.25367 0.00033 0.0
C1407 C 0.3403 0.23561 0.97933 0.0
N1408 N 0.29602 0.22333 0.97867 0.0
N1409 N 0.39466 0.299 0.01687 0.0
C1410 C 0.32103 0.24236 0.97764 0.0
C1411 C 0.37119 0.28068 0.00073 0.0
N1412 N 0.31149 0.27466 0.95536 0.0
N1413 N 0.3755 0.24456 0.02357 0.0
H1414 H 0.39999 0.31853 0.02138 0.0
H1415 H 0.4089 0.29483 0.02518 0.0
H1416 H 0.36746 0.22459 0.02704 0.0
H1417 H 0.39138 0.25639 0.04241 0.0
H1418 H 0.29325 0.26036 0.94458 0.0
H1419 H 0.31641 0.29327 0.94729 0.0
H1420 H 0.28106 0.22729 0.98003 0.0
H1421 H 0.29106 0.2039 0.98139 0.0
C1422 C 0.71987 0.07257 -0.00062 0.0
C1423 C 0.7032 0.08291 -0.00123 0.0
C1424 C 0.73453 0.12036 0.9639 0.0
C1425 C 0.74947 0.1082 0.96002 0.0
N1426 N 0.75589 0.07191 0.97114 0.0
N1427 N 0.69347 0.11577 0.97939 0.0
C1428 C 0.74213 0.08416 0.97723 0.0
C1429 C 0.71032 0.10677 0.98113 0.0
N1430 N 0.7148 0.05212 0.02215 0.0
N1431 N 0.74365 0.14493 0.95126 0.0
H1432 H 0.67574 0.10644 0.99213 0.0
H1433 H 0.69622 0.13148 0.96329 0.0
H1434 H 0.76122 0.15516 0.93822 0.0
H1435 H 0.73495 0.15599 0.9564 0.0
H1436 H 0.72758 0.04544 0.02714 0.0
H1437 H 0.69878 0.04324 0.03914 0.0
H1438 H 0.74963 0.05283 0.97842 0.0
H1439 H 0.77293 0.08019 0.95648 0.0
C1440 C 0.6288 0.92294 0.03435 0.0
C1441 C 0.64185 0.94997 0.04572 0.0
C1442 C 0.6784 0.94643 0.07056 0.0
C1443 C 0.66273 0.91901 0.06866 0.0
N1444 N 0.62297 0.88051 0.04782 0.0
N1445 N 0.6791 0.98713 0.07902 0.0
C1446 C 0.63805 0.90699 0.04956 0.0
C1447 C 0.66699 0.9619 0.06409 0.0
N1448 N 0.60771 0.91265 0.00892 0.0
N1449 N 0.704 0.95754 0.08034 0.0
H1450 H 0.67121 -0.00085 0.07798 0.0
H1451 H 0.69615 0.99547 0.0963 0.0
H1452 H 0.7126 0.94638 0.08564 0.0
H1453 H 0.71688 0.97742 0.07903 0.0
H1454 H 0.59858 0.89352 -0.0028 0.0
H1455 H 0.60108 0.9241 -0.00363 0.0
H1456 H 0.60365 0.87076 0.03846 0.0
H1457 H 0.62957 0.86836 0.05768 0.0
C1458 C 0.05647 0.7359 0.02274 0.0
C1459 C 0.06013 0.71466 0.01277 0.0
C1460 C 0.10655 0.7431 0.01812 0.0
C1461 C 0.10291 0.76267 0.03671 0.0
N1462 N 0.07672 0.78219 0.04234 0.0
N1463 N 0.08691 0.7018 0.9801 0.0
C1464 C 0.0785 0.76063 0.03337 0.0
C1465 C 0.08472 0.71987 0.0027 0.0
N1466 N 0.03228 0.73216 0.02366 0.0
N1467 N 0.13021 0.74532 0.0187 0.0
H1468 H 0.07072 0.68461 0.96927 0.0
H1469 H 0.10413 0.70503 0.96909 0.0
H1470 H 0.14698 0.76218 0.02835 0.0
H1471 H 0.13312 0.72998 0.01069 0.0
H1472 H 0.02803 0.74589 0.03516 0.0
H1473 H 0.01633 0.71536 0.01135 0.0
H1474 H 0.05985 0.78284 0.03947 0.0
H1475 H 0.09303 0.80015 0.05019 0.0
C1476 C 0.26201 0.31358 0.0074 0.0
C1477 C 0.27479 0.34085 0.00281 0.0
C1478 C 0.24082 0.34394 0.03588 0.0
C1479 C 0.22821 0.31674 0.04074 0.0
N1480 N 0.22339 0.27469 0.02486 0.0
N1481 N 0.27465 0.38132 0.00532 0.0
C1482 C 0.23773 0.30124 0.02433 0.0
C1483 C 0.26356 0.35583 0.01459 0.0
N1484 N 0.27344 0.29963 -0.00354 0.0
N1485 N 0.23152 0.35845 0.05295 0.0
H1486 H 0.29171 0.39074 0.99076 0.0
H1487 H 0.26619 0.39269 0.00958 0.0
H1488 H 0.2143 0.35011 0.06718 0.0
H1489 H 0.2413 0.37871 0.05466 0.0
H1490 H 0.26681 0.28042 0.00333 0.0
H1491 H 0.29057 0.30771 0.98209 0.0
H1492 H 0.22789 0.26203 0.01006 0.0
H1493 H 0.20568 0.26504 0.03759 0.0
C1494 C 0.74195 0.65659 0.33273 0.0
C1495 C 0.7532 0.68396 0.33894 0.0
C1496 C 0.78816 0.68557 0.37998 0.0
C1497 C 0.77494 0.65797 0.37818 0.0
N1498 N 0.73881 0.61673 0.35462 0.0
N1499 N 0.78642 0.72487 0.36888 0.0
C1500 C 0.75184 0.64334 0.35466 0.0
C1501 C 0.77638 0.69864 0.36225 0.0
N1502 N 0.72217 0.64338 0.30512 0.0
N1503 N 0.81193 0.69913 0.39872 0.0
H1504 H 0.77844 0.73504 0.35594 0.0
H1505 H 0.80167 0.73635 0.38893 0.0
H1506 H 0.82078 0.68993 0.41216 0.0
H1507 H 0.82373 0.71923 0.39832 0.0
H1508 H 0.71485 0.62391 0.29625 0.0
H1509 H 0.71446 0.65246 0.28839 0.0
H1510 H 0.72023 0.60503 0.34248 0.0
H1511 H 0.74603 0.60624 0.36872 0.0
C1512 C 0.31085 0.05785 0.3319 0.0
C1513 C 0.28546 0.04239 0.34375 0.0
C1514 C 0.2868 0.0811 0.37326 0.0
C1515 C 0.31379 0.09474 0.37055 0.0
N1516 N 0.35157 0.09804 0.34297 0.0
N1517 N 0.24619 0.04268 0.3525 0.0
C1518 C 0.32575 0.08396 0.34749 0.0
C1519 C 0.27228 0.05507 0.35709 0.0
N1520 N 0.32015 0.04767 0.30492 0.0
N1521 N 0.27541 0.09251 0.39327 0.0
H1522 H 0.23568 0.02484 0.33659 0.0
H1523 H 0.23548 0.05142 0.35955 0.0
H1524 H 0.28557 0.11194 0.40391 0.0
H1525 H 0.25629 0.08255 0.40054 0.0
H1526 H 0.33799 0.05832 0.29299 0.0
H1527 H 0.30851 0.02923 0.29111 0.0
H1528 H 0.36202 0.09022 0.33079 0.0
H1529 H 0.36276 0.11753 0.35291 0.0
C1530 C 0.95156 0.27946 0.35028 0.0
C1531 C 0.97642 0.28543 0.36421 0.0
C1532 C 0.9584 0.25937 0.42129 0.0
C1533 C 0.93377 0.25487 0.40898 0.0
N1534 N 0.90724 0.26379 0.3655 0.0
N1535 N 0.0043 0.2867 0.4176 0.0
C1536 C 0.93043 0.2659 0.37454 0.0
C1537 C 0.98007 0.27703 0.40111 0.0
N1538 N 0.94794 0.28571 0.31329 0.0
N1539 N 0.96102 0.24606 0.45143 0.0
H1540 H 0.02066 0.30049 0.40439 0.0
H1541 H 0.00803 0.28324 0.44615 0.0
H1542 H 0.94562 0.23267 0.46688 0.0
H1543 H 0.9781 0.24646 0.4587 0.0
H1544 H 0.92992 0.27935 0.2998 0.0
H1545 H 0.96295 0.29571 0.2948 0.0
H1546 H 0.90427 0.27368 0.34313 0.0
H1547 H 0.89134 0.25369 0.3824 0.0
C1548 C 0.09194 0.44649 0.29247 0.0
C1549 C 0.07748 0.42815 0.32086 0.0
C1550 C 0.05122 0.44867 0.32806 0.0
C1551 C 0.06548 0.46619 0.2994 0.0
N1552 N 0.10565 0.48913 0.26849 0.0
N1553 N 0.04932 0.41773 0.37463 0.0
C1554 C 0.08843 0.46799 0.28758 0.0
C1555 C 0.05918 0.43138 0.34195 0.0
N1556 N 0.1063 0.44205 0.26633 0.0
N1557 N 0.02949 0.44775 0.34034 0.0
H1558 H 0.05548 0.40553 0.38583 0.0
H1559 H 0.03714 0.42055 0.39257 0.0
H1560 H 0.02408 0.46104 0.3314 0.0
H1561 H 0.01659 0.4334 0.35791 0.0
H1562 H 0.11493 0.45406 0.24322 0.0
H1563 H 0.10702 0.42499 0.26342 0.0
H1564 H 0.12364 0.49213 0.26168 0.0
H1565 H 0.10302 0.50489 0.26362 0.0
C1566 C 0.61922 0.60846 0.28611 0.0
C1567 C 0.61514 0.62746 0.30605 0.0
C1568 C 0.57019 0.59429 0.31374 0.0
C1569 C 0.57407 0.57609 0.29179 0.0
N1570 N 0.60326 0.56249 0.27085 0.0
N1571 N 0.58956 0.63604 0.35046 0.0
C1572 C 0.59914 0.58205 0.28346 0.0
C1573 C 0.59151 0.61949 0.32391 0.0
N1574 N 0.64098 0.61566 0.26628 0.0
N1575 N 0.5459 0.58791 0.32274 0.0
H1576 H 0.60515 0.65432 0.35913 0.0
H1577 H 0.57343 0.6307 0.36663 0.0
H1578 H 0.53028 0.56916 0.3169 0.0
H1579 H 0.54119 0.60127 0.33447 0.0
H1580 H 0.64333 0.60281 0.24778 0.0
H1581 H 0.65587 0.63476 0.26501 0.0
H1582 H 0.62148 0.56511 0.26726 0.0
H1583 H 0.58844 0.54311 0.26809 0.0
C1584 C 0.38714 0.00329 0.32441 0.0
C1585 C 0.36383 0.98021 0.33105 0.0
C1586 C 0.37695 0.95427 0.29129 0.0
C1587 C 0.40047 0.97724 0.28513 0.0
N1588 N 0.43038 0.02254 0.30141 0.0
N1589 N 0.33934 0.93328 0.32977 0.0
C1590 C 0.40636 0.00144 0.30366 0.0
C1591 C 0.35961 0.95553 0.31723 0.0
N1592 N 0.39036 0.02698 0.33628 0.0
N1593 N 0.37061 0.93146 0.27088 0.0
H1594 H 0.32635 0.93342 0.34918 0.0
H1595 H 0.33679 0.91479 0.32403 0.0
H1596 H 0.38296 0.92943 0.25222 0.0
H1597 H 0.35242 0.91497 0.27028 0.0
H1598 H 0.40565 0.04467 0.3286 0.0
H1599 H 0.37675 0.02902 0.35174 0.0
H1600 H 0.43679 0.0402 0.31715 0.0
H1601 H 0.44471 0.02165 0.28622 0.0
C1602 C 0.57644 0.95371 0.30133 0.0
C1603 C 0.59085 0.97384 0.33068 0.0
C1604 C 0.56445 0.9937 0.31688 0.0
C1605 C 0.55005 0.97356 0.28763 0.0
N1606 N 0.53886 0.93212 0.25614 0.0
N1607 N 0.59665 0.01072 0.37099 0.0
C1608 C 0.55497 0.9528 0.28123 0.0
C1609 C 0.58412 0.99304 0.34005 0.0
N1610 N 0.58358 0.93573 0.29228 0.0
N1611 N 0.55995 0.014 0.32124 0.0
H1612 H 0.61217 0.0119 0.38715 0.0
H1613 H 0.59085 0.02331 0.38225 0.0
H1614 H 0.54493 0.01444 0.30602 0.0
H1615 H 0.57169 0.03097 0.3384 0.0
H1616 H 0.57599 0.92245 0.26815 0.0
H1617 H 0.59819 0.93479 0.30791 0.0
H1618 H 0.53969 0.9151 0.25277 0.0
H1619 H 0.52318 0.93105 0.2406 0.0
C1620 C 0.00575 0.60343 0.3394 0.0
C1621 C 0.03221 0.62133 0.35039 0.0
C1622 C 0.03885 0.58412 0.35693 0.0
C1623 C 0.01598 0.56909 0.33371 0.0
N1624 N 0.97213 0.55773 0.33359 0.0
N1625 N 0.07108 0.62734 0.38297 0.0
C1626 C 0.99735 0.57642 0.33758 0.0
C1627 C 0.04782 0.61115 0.36411 0.0
N1628 N 0.98953 0.61158 0.326 0.0
N1629 N 0.05026 0.57201 0.37454 0.0
H1630 H 0.07683 0.64658 0.39166 0.0
H1631 H 0.08451 0.62177 0.38979 0.0
H1632 H 0.04146 0.55172 0.37287 0.0
H1633 H 0.06638 0.58145 0.39381 0.0
H1634 H 0.97106 0.59873 0.31428 0.0
H1635 H 0.99469 0.6309 0.32326 0.0
H1636 H 0.95731 0.56163 0.33778 0.0
H1637 H 0.9667 0.53809 0.32936 0.0
C1638 C 0.37224 0.42299 0.30483 0.0
C1639 C 0.36656 0.39853 0.31885 0.0
C1640 C 0.40801 0.40542 0.29835 0.0
C1641 C 0.41236 0.42838 0.28033 0.0
N1642 N 0.39858 0.45871 0.26397 0.0
N1643 N 0.37714 0.36462 0.32483 0.0
C1644 C 0.39452 0.43719 0.28311 0.0
C1645 C 0.38406 0.38935 0.31489 0.0
N1646 N 0.35668 0.43289 0.31319 0.0
N1647 N 0.42678 0.39892 0.2994 0.0
H1648 H 0.35953 0.352 0.33626 0.0
H1649 H 0.38778 0.35567 0.31864 0.0
H1650 H 0.4443 0.40981 0.28657 0.0
H1651 H 0.42593 0.38403 0.31574 0.0
H1652 H 0.36109 0.45175 0.30739 0.0
H1653 H 0.3401 0.42287 0.32871 0.0
H1654 H 0.38493 0.46442 0.26067 0.0
H1655 H 0.41534 0.47028 0.24957 0.0
C1656 C 0.29245 0.24854 0.34563 0.0
C1657 C 0.30487 0.27525 0.35873 0.0
C1658 C 0.34205 0.27231 0.3821 0.0
C1659 C 0.32704 0.24486 0.37822 0.0
N1660 N 0.28806 0.20622 0.35516 0.0
N1661 N 0.34141 0.31217 0.39355 0.0
C1662 C 0.30242 0.23275 0.35888 0.0
C1663 C 0.32999 0.28733 0.37715 0.0
N1664 N 0.27119 0.23839 0.32057 0.0
N1665 N 0.36762 0.28383 0.3923 0.0
H1666 H 0.33301 0.32374 0.3933 0.0
H1667 H 0.35841 0.32056 0.41095 0.0
H1668 H 0.37667 0.27297 0.39648 0.0
H1669 H 0.3801 0.30388 0.39243 0.0
H1670 H 0.26247 0.21962 0.30754 0.0
H1671 H 0.2639 0.24974 0.30975 0.0
H1672 H 0.26877 0.19615 0.34564 0.0
H1673 H 0.29526 0.19426 0.36346 0.0
C1674 C 0.76421 0.06443 0.33393 0.0
C1675 C 0.73853 0.05713 0.34031 0.0
C1676 C 0.7532 0.1019 0.36439 0.0
C1677 C 0.77809 0.10547 0.37134 0.0
N1678 N 0.80818 0.09065 0.35834 0.0
N1679 N 0.70799 0.07163 0.34732 0.0
C1680 C 0.7842 0.08743 0.35344 0.0
C1681 C 0.73275 0.07693 0.35019 0.0
N1682 N 0.76912 0.04843 0.31087 0.0
N1683 N 0.74934 0.12221 0.3731 0.0
H1684 H 0.69352 0.05496 0.33212 0.0
H1685 H 0.70192 0.08401 0.35851 0.0
H1686 H 0.76445 0.1404 0.38339 0.0
H1687 H 0.73207 0.12175 0.36765 0.0
H1688 H 0.78745 0.05336 0.30263 0.0
H1689 H 0.75422 0.03146 0.29678 0.0
H1690 H 0.81239 0.07618 0.35045 0.0
H1691 H 0.82375 0.10718 0.3718 0.0
C1692 C 0.95209 0.65098 0.38128 0.0
C1693 C 0.96058 0.67286 0.35792 0.0
C1694 C 0.92359 0.67701 0.37512 0.0
C1695 C 0.91419 0.65393 0.39597 0.0
N1696 N 0.91624 0.61565 0.41138 0.0
N1697 N 0.95316 0.70475 0.32767 0.0
C1698 C 0.92747 0.63989 0.39672 0.0
C1699 C 0.9459 0.68528 0.35324 0.0
N1700 N 0.96787 0.64127 0.38976 0.0
N1701 N 0.91182 0.69151 0.37748 0.0
H1702 H 0.96986 0.71181 0.31225 0.0
H1703 H 0.94183 0.71269 0.31975 0.0
H1704 H 0.8953 0.68586 0.39288 0.0
H1705 H 0.91935 0.70996 0.36653 0.0
H1706 H 0.96369 0.627 0.40987 0.0
H1707 H 0.98632 0.64926 0.3797 0.0
H1708 H 0.92388 0.6034 0.40904 0.0
H1709 H 0.89796 0.60666 0.42239 0.0
C1710 C 0.397 0.98195 0.65822 0.0
C1711 C 0.40791 0.00942 0.65818 0.0
C1712 C 0.44833 0.01563 0.68761 0.0
C1713 C 0.43613 0.98856 0.69318 0.0
N1714 N 0.39938 0.94551 0.68398 0.0
N1715 N 0.44386 0.05275 0.67151 0.0
C1716 C 0.41075 0.97151 0.67776 0.0
C1717 C 0.43368 0.02638 0.67215 0.0
N1718 N 0.37338 0.9659 0.64005 0.0
N1719 N 0.47394 0.0309 0.69747 0.0
H1720 H 0.43407 0.06122 0.6588 0.0
H1721 H 0.46149 0.06634 0.68504 0.0
H1722 H 0.48491 0.02323 0.70865 0.0
H1723 H 0.48479 0.0505 0.69167 0.0
H1724 H 0.36549 0.94589 0.63535 0.0
H1725 H 0.36212 0.97275 0.62732 0.0
H1726 H 0.37994 0.93232 0.67827 0.0
H1727 H 0.40938 0.93719 0.69651 0.0
C1728 C 0.99127 0.40145 0.68743 0.0
C1729 C 0.96475 0.38416 0.69133 0.0
C1730 C 0.95961 0.42056 0.7143 0.0
C1731 C 0.98657 0.43566 0.72115 0.0
N1732 N 0.02862 0.4429 0.70881 0.0
N1733 N 0.92342 0.38073 0.68479 0.0
C1734 C 0.00262 0.42712 0.70489 0.0
C1735 C 0.94869 0.39489 0.697 0.0
N1736 N 0.00512 0.39353 0.666 0.0
N1737 N 0.94456 0.43014 0.72707 0.0
H1738 H 0.91594 0.36279 0.66917 0.0
H1739 H 0.91083 0.38788 0.68593 0.0
H1740 H 0.95235 0.44927 0.7385 0.0
H1741 H 0.92467 0.41906 0.72742 0.0
H1742 H 0.02429 0.40566 0.66019 0.0
H1743 H 0.99633 0.3757 0.64983 0.0
H1744 H 0.04154 0.43677 0.70206 0.0
H1745 H 0.03719 0.46212 0.72019 0.0
C1746 C 0.62351 0.58576 0.69812 0.0
C1747 C 0.61715 0.59519 0.6643 0.0
C1748 C 0.57293 0.57702 0.68407 0.0
C1749 C 0.57924 0.56749 0.71767 0.0
N1750 N 0.60862 0.55832 0.75369 0.0
N1751 N 0.58545 0.59586 0.62055 0.0
C1752 C 0.60402 0.57059 0.72384 0.0
C1753 C 0.59167 0.58948 0.65578 0.0
N1754 N 0.64822 0.59134 0.70559 0.0
N1755 N 0.54932 0.57484 0.67997 0.0
H1756 H 0.59891 0.60546 0.59961 0.0
H1757 H 0.56676 0.59008 0.61077 0.0
H1758 H 0.53502 0.56524 0.69975 0.0
H1759 H 0.54433 0.5838 0.65849 0.0
H1760 H 0.655 0.58843 0.73228 0.0
H1761 H 0.66253 0.59992 0.68553 0.0
H1762 H 0.62527 0.55732 0.75728 0.0
H1763 H 0.59498 0.54731 0.77361 0.0
C1764 C 0.73911 0.75388 0.59037 0.0
C1765 C 0.72529 0.7362 0.61967 0.0
C1766 C 0.70248 0.75994 0.63246 0.0
C1767 C 0.71643 0.77722 0.60335 0.0
N1768 N 0.75466 0.79695 0.56688 0.0
N1769 N 0.70004 0.72773 0.67687 0.0
C1770 C 0.73745 0.77661 0.58737 0.0
C1771 C 0.70902 0.74104 0.64362 0.0
N1772 N 0.75136 0.74786 0.56232 0.0
N1773 N 0.68241 0.76093 0.64807 0.0
H1774 H 0.70537 0.71453 0.68648 0.0
H1775 H 0.68959 0.73178 0.69682 0.0
H1776 H 0.67814 0.77539 0.64128 0.0
H1777 H 0.66961 0.74694 0.66617 0.0
H1778 H 0.75939 0.75928 0.53842 0.0
H1779 H 0.75075 0.73009 0.55937 0.0
H1780 H 0.77142 0.7982 0.55701 0.0
H1781 H 0.75353 0.81373 0.56364 0.0
C1782 C 0.25377 0.96678 0.66724 0.0
C1783 C 0.27814 0.97295 0.6534 0.0
C1784 C 0.26134 0.9263 0.63927 0.0
C1785 C 0.23611 0.92161 0.64242 0.0
N1786 N 0.20774 0.93677 0.66156 0.0
N1787 N 0.30377 0.95737 0.62096 0.0
C1788 C 0.23216 0.94159 0.65782 0.0
C1789 C 0.2819 0.95235 0.63897 0.0
N1790 N 0.2514 0.98493 0.6894 0.0
N1791 N 0.26528 0.90575 0.63377 0.0
H1792 H 0.31874 0.97592 0.61616 0.0
H1793 H 0.30588 0.9429 0.60651 0.0
H1794 H 0.25023 0.8865 0.63309 0.0
H1795 H 0.2835 0.90783 0.63419 0.0
H1796 H 0.23454 0.98094 0.70258 0.0
H1797 H 0.26712 0.00313 0.698 0.0
H1798 H 0.20336 0.95128 0.66824 0.0
H1799 H 0.19183 0.91813 0.65628 0.0
C1800 C 0.06525 0.34044 0.67412 0.0
C1801 C 0.04155 0.31821 0.68196 0.0
C1802 C 0.05235 0.29009 0.64297 0.0
C1803 C 0.07601 0.3123 0.63482 0.0
N1804 N 0.10767 0.35735 0.64873 0.0
N1805 N 0.01556 0.27151 0.68345 0.0
C1806 C 0.08337 0.33711 0.65262 0.0
C1807 C 0.03608 0.29289 0.66943 0.0
N1808 N 0.06986 0.36473 0.68559 0.0
N1809 N 0.04472 0.2666 0.62371 0.0
H1810 H 0.00328 0.27285 0.70313 0.0
H1811 H 0.01209 0.2526 0.67863 0.0
H1812 H 0.05625 0.26345 0.60473 0.0
H1813 H 0.02629 0.2506 0.62449 0.0
H1814 H 0.08548 0.3819 0.67711 0.0
H1815 H 0.05712 0.36778 0.70184 0.0
H1816 H 0.11513 0.37546 0.66358 0.0
H1817 H 0.12119 0.35526 0.63305 0.0
C1818 C 0.24267 0.27783 0.63069 0.0
C1819 C 0.26044 0.29862 0.65674 0.0
C1820 C 0.23743 0.32232 0.64483 0.0
C1821 C 0.22089 0.30231 0.61663 0.0
N1822 N 0.20756 0.26034 0.58327 0.0
N1823 N 0.27649 0.34154 0.687 0.0
C1824 C 0.22338 0.28002 0.60981 0.0
C1825 C 0.25815 0.32105 0.66373 0.0
N1826 N 0.24394 0.25559 0.62574 0.0
N1827 N 0.23299 0.34226 0.65375 0.0
H1828 H 0.29188 0.34121 0.70115 0.0
H1829 H 0.27757 0.35953 0.69041 0.0
H1830 H 0.21809 0.34372 0.64005 0.0
H1831 H 0.2427 0.35632 0.67646 0.0
H1832 H 0.23119 0.23999 0.60666 0.0
H1833 H 0.25718 0.2524 0.64125 0.0
H1834 H 0.19262 0.25994 0.56643 0.0
H1835 H 0.19262 0.25994 0.56643 0.0
C1836 C 0.68914 0.93976 0.68086 0.0
C1837 C 0.71499 0.96026 0.6845 0.0
C1838 C 0.72983 0.9316 0.65982 0.0
C1839 C 0.70403 0.913 0.64722 0.0
N1840 N 0.65934 0.89448 0.65892 0.0
N1841 N 0.75746 0.9696 0.70286 0.0
C1842 C 0.68368 0.91532 0.66303 0.0
C1843 C 0.73442 0.95376 0.68323 0.0
N1844 N 0.67026 0.94392 0.69379 0.0
N1845 N 0.7501 0.92995 0.64642 0.0
H1846 H 0.76055 0.98583 0.72024 0.0
H1847 H 0.77199 0.96501 0.70522 0.0
H1848 H 0.74835 0.91439 0.62919 0.0
H1849 H 0.76903 0.94503 0.65095 0.0
H1850 H 0.65074 0.93076 0.68906 0.0
H1851 H 0.67451 0.96053 0.71112 0.0
H1852 H 0.64333 0.89425 0.66984 0.0
H1853 H 0.65564 0.87665 0.6461 0.0
C1854 C 0.04975 0.73826 0.67013 0.0
C1855 C 0.03213 0.74742 0.6674 0.0
C1856 C 0.06207 0.78353 0.62868 0.0
C1857 C 0.0782 0.77257 0.62767 0.0
N1858 N 0.08678 0.7384 0.64425 0.0
N1859 N 0.02014 0.77745 0.64214 0.0
C1860 C 0.07192 0.74968 0.64768 0.0
C1861 C 0.03802 0.76988 0.64645 0.0
N1862 N 0.04575 0.71925 0.69536 0.0
N1863 N 0.0699 0.80705 0.61286 0.0
H1864 H 0.00244 0.768 0.65496 0.0
H1865 H 0.02199 0.79189 0.62377 0.0
H1866 H 0.08721 0.81722 0.59911 0.0
H1867 H 0.06035 0.81746 0.61589 0.0
H1868 H 0.05922 0.71369 0.70192 0.0
H1869 H 0.02986 0.71054 0.71264 0.0
H1870 H 0.08142 0.71995 0.6537 0.0
H1871 H 0.10386 0.74676 0.62967 0.0
C1872 C 0.95473 0.58588 0.71013 0.0
C1873 C 0.96885 0.61301 0.72097 0.0
C1874 C 0.00437 0.60761 0.74562 0.0
C1875 C 0.98768 0.58035 0.74437 0.0
N1876 N 0.94717 0.54282 0.72395 0.0
N1877 N 0.00739 0.64951 0.75271 0.0
C1878 C 0.96304 0.56919 0.72546 0.0
C1879 C 0.99408 0.62407 0.73874 0.0
N1880 N 0.93348 0.5762 0.68514 0.0
N1881 N 0.02985 0.61767 0.75514 0.0
H1882 H 0.00057 0.66241 0.75083 0.0
H1883 H 0.02448 0.65733 0.7698 0.0
H1884 H 0.03762 0.60577 0.7606 0.0
H1885 H 0.04345 0.63731 0.75341 0.0
H1886 H 0.92352 0.55698 0.67381 0.0
H1887 H 0.92749 0.58817 0.67255 0.0
H1888 H 0.92785 0.53365 0.71477 0.0
H1889 H 0.95325 0.53022 0.73368 0.0
C1890 C 0.40831 0.37134 0.67961 0.0
C1891 C 0.40377 0.35217 0.70718 0.0
C1892 C 0.44036 0.38488 0.74852 0.0
C1893 C 0.4412 0.40472 0.72579 0.0
N1894 N 0.42597 0.4175 0.66965 0.0
N1895 N 0.41176 0.34345 0.77386 0.0
C1896 C 0.42535 0.39815 0.69095 0.0
C1897 C 0.41903 0.3595 0.74306 0.0
N1898 N 0.39673 0.36397 0.64274 0.0
N1899 N 0.45904 0.39069 0.77716 0.0
H1900 H 0.39438 0.326 0.77393 0.0
H1901 H 0.42126 0.3492 0.80156 0.0
H1902 H 0.47477 0.4094 0.7824 0.0
H1903 H 0.4602 0.37641 0.79259 0.0
H1904 H 0.40092 0.37693 0.62049 0.0
H1905 H 0.38472 0.34449 0.63338 0.0
H1906 H 0.41288 0.41409 0.6464 0.0
H1907 H 0.43909 0.43713 0.67668 0.0
C1908 C 0.60373 0.97838 0.67096 0.0
C1909 C 0.62373 0.00471 0.67517 0.0
C1910 C 0.59642 0.0156 0.71405 0.0
C1911 C 0.5784 0.98863 0.71536 0.0
N1912 N 0.56558 0.94388 0.69791 0.0
N1913 N 0.63867 0.04932 0.69664 0.0
C1914 C 0.582 0.96988 0.69408 0.0
C1915 C 0.61993 0.02367 0.69551 0.0
N1916 N 0.60562 0.96145 0.64503 0.0
N1917 N 0.59064 0.03336 0.72987 0.0
H1918 H 0.65463 0.05625 0.67955 0.0
H1919 H 0.63873 0.06374 0.71485 0.0
H1920 H 0.57338 0.02787 0.74308 0.0
H1921 H 0.6018 0.05337 0.72745 0.0
H1922 H 0.59056 0.94269 0.63768 0.0
H1923 H 0.62148 0.96694 0.62801 0.0
H1924 H 0.56902 0.92938 0.68709 0.0
H1925 H 0.54939 0.93668 0.71451 0.0
loop_
_geom_bond_atom_site_label_1
_geom_bond_atom_site_label_2
_geom_bond_distance
_geom_bond_site_symmetry_2
_ccdc_geom_bond_type
Mg0 O1 2.028 1_556 S
Mg0 O7 1.986 1_455 S
Mg0 O9 2.114 . S
Mg0 O10 2.251 1_455 S
Mg0 O13 2.010 1_556 S
O1 Mg0 2.028 1_554 S
O1 C4 1.250 1_455 S
O2 Mg3 2.028 1_554 S
O2 C4 1.248 . S
Mg3 O2 2.028 1_556 S
Mg3 O8 2.032 . S
Mg3 O10 2.079 . S
C4 O1 1.250 1_655 S
C4 O2 1.248 . S
C5 O6 1.264 1_554 S
C5 O13 1.249 . S
O6 C5 1.264 1_556 S
O7 Mg0 1.986 1_655 S
O7 C11 1.246 . S
O8 Mg3 2.032 . S
O8 C11 1.259 . S
O9 Mg0 2.114 . S
O9 C12 1.252 . S
O10 Mg0 2.251 1_655 S
O10 Mg3 2.079 . S
O10 C12 1.273 1_655 S
C11 O7 1.246 . S
C11 O8 1.259 . S
C12 O9 1.252 . S
C12 O10 1.273 1_455 S
O13 Mg0 2.010 1_554 S
O13 C5 1.249 . S
Mg14 O15 2.028 1_554 S
Mg14 O21 1.986 . S
Mg14 O23 2.114 . S
Mg14 O24 2.251 . S
Mg14 O27 2.010 . S
O15 Mg14 2.028 1_556 S
O15 C18 1.250 . S
O16 Mg17 2.028 1_556 S
O16 C18 1.248 . S
Mg17 O16 2.028 1_554 S
Mg17 O22 2.032 . S
Mg17 O24 2.079 . S
C18 O15 1.250 . S
C18 O16 1.248 . S
C19 O20 1.264 . S
C19 O27 1.249 . S
O20 C19 1.264 . S
O21 Mg14 1.986 . S
O21 C25 1.246 . S
O22 Mg17 2.032 . S
O22 C25 1.259 . S
O23 Mg14 2.114 . S
O23 C26 1.252 . S
O24 Mg14 2.251 . S
O24 Mg17 2.079 . S
O24 C26 1.273 . S
C25 O21 1.246 . S
C25 O22 1.259 . S
C26 O23 1.252 . S
C26 O24 1.273 . S
O27 Mg14 2.010 . S
O27 C19 1.249 . S
Mg28 O29 2.022 1_556 S
Mg28 O35 1.986 1_565 S
Mg28 O37 2.114 . S
Mg28 O38 2.251 1_565 S
Mg28 O41 2.010 1_556 S
O29 Mg28 2.022 1_554 S
O29 C32 1.244 1_565 S
O30 Mg31 2.028 1_554 S
O30 C32 1.248 . S
Mg31 O30 2.028 1_556 S
Mg31 O36 2.032 . S
Mg31 O38 2.079 . S
C32 O29 1.244 1_545 S
C32 O30 1.248 . S
C33 O34 1.264 1_554 S
C33 O41 1.249 . S
O34 C33 1.264 1_556 S
O35 Mg28 1.986 1_545 S
O35 C39 1.246 . S
O36 Mg31 2.032 . S
O36 C39 1.259 . S
O37 Mg28 2.114 . S
O37 C40 1.252 . S
O38 Mg28 2.251 1_545 S
O38 Mg31 2.079 . S
O38 C40 1.273 1_545 S
C39 O35 1.246 . S
C39 O36 1.259 . S
C40 O37 1.252 . S
C40 O38 1.273 1_565 S
O41 Mg28 2.010 1_554 S
O41 C33 1.249 . S
Mg42 O43 2.028 1_554 S
Mg42 O49 1.986 1_655 S
Mg42 O51 2.114 . S
Mg42 O52 2.251 1_655 S
Mg42 O55 2.010 . S
O43 Mg42 2.028 1_556 S
O43 C46 1.250 1_655 S
O44 Mg45 2.028 1_556 S
O44 C46 1.248 . S
Mg45 O44 2.028 1_554 S
Mg45 O50 2.032 . S
Mg45 O52 2.079 . S
C46 O43 1.250 1_455 S
C46 O44 1.248 . S
C47 O48 1.282 . S
C47 O55 1.258 . S
O48 C47 1.282 . S
O49 Mg42 1.986 1_455 S
O49 C53 1.246 . S
O50 Mg45 2.032 . S
O50 C53 1.259 . S
O51 Mg42 2.114 . S
O51 C54 1.252 . S
O52 Mg42 2.251 1_455 S
O52 Mg45 2.079 . S
O52 C54 1.273 1_455 S
C53 O49 1.246 . S
C53 O50 1.259 . S
C54 O51 1.252 . S
C54 O52 1.273 1_655 S
O55 Mg42 2.010 . S
O55 C47 1.258 . S
Mg56 O57 2.028 1_556 S
Mg56 O63 1.986 . S
Mg56 O65 2.114 . S
Mg56 O66 2.251 . S
Mg56 O69 2.010 1_556 S
O57 Mg56 2.028 1_554 S
O57 C60 1.250 . S
O58 Mg59 2.028 1_554 S
O58 C60 1.248 . S
Mg59 O58 2.028 1_556 S
Mg59 O64 2.032 . S
Mg59 O66 2.079 . S
C60 O57 1.250 . S
C60 O58 1.248 . S
C61 O62 1.264 1_554 S
C61 O69 1.249 . S
O62 C61 1.264 1_556 S
O63 Mg56 1.986 . S
O63 C67 1.246 . S
O64 Mg59 2.032 . S
O64 C67 1.259 . S
O65 Mg56 2.114 . S
O65 C68 1.252 . S
O66 Mg56 2.251 . S
O66 Mg59 2.079 . S
O66 C68 1.273 . S
C67 O63 1.246 . S
C67 O64 1.259 . S
C68 O65 1.252 . S
C68 O66 1.273 . S
O69 Mg56 2.010 1_554 S
O69 C61 1.249 . S
Mg70 O71 2.028 1_554 S
Mg70 O77 1.986 1_545 S
Mg70 O79 2.114 . S
Mg70 O80 2.251 1_545 S
Mg70 O83 2.010 . S
O71 Mg70 2.028 1_556 S
O71 C74 1.250 1_545 S
O72 Mg73 2.028 1_556 S
O72 C74 1.248 . S
Mg73 O72 2.028 1_554 S
Mg73 O78 2.032 . S
Mg73 O80 2.079 . S
C74 O71 1.250 1_565 S
C74 O72 1.248 . S
C75 O76 1.264 . S
C75 O83 1.249 . S
O76 C75 1.264 . S
O77 Mg70 1.986 1_565 S
O77 C81 1.246 . S
O78 Mg73 2.032 . S
O78 C81 1.259 . S
O79 Mg70 2.114 . S
O79 C82 1.252 . S
O80 Mg70 2.251 1_565 S
O80 Mg73 2.079 . S
O80 C82 1.273 1_565 S
C81 O77 1.246 . S
C81 O78 1.259 . S
C82 O79 1.252 . S
C82 O80 1.273 1_545 S
O83 Mg70 2.010 . S
O83 C75 1.249 . S
Mg84 O85 2.028 . S
Mg84 O91 1.986 . S
Mg84 O93 2.114 . S
Mg84 O94 2.251 . S
Mg84 O97 2.010 . S
O85 Mg84 2.028 . S
O85 C88 1.250 . S
O86 Mg87 2.028 . S
O86 C88 1.248 . S
Mg87 O86 2.028 . S
Mg87 O92 2.032 . S
Mg87 O94 2.079 . S
C88 O85 1.250 . S
C88 O86 1.248 . S
C89 O90 1.264 . S
C89 O97 1.249 . S
O90 C89 1.264 . S
O91 Mg84 1.986 . S
O91 C95 1.246 . S
O92 Mg87 2.032 . S
O92 C95 1.259 . S
O93 Mg84 2.114 . S
O93 C96 1.252 . S
O94 Mg84 2.251 . S
O94 Mg87 2.079 . S
O94 C96 1.273 . S
C95 O91 1.246 . S
C95 O92 1.259 . S
C96 O93 1.252 . S
C96 O94 1.273 . S
O97 Mg84 2.010 . S
O97 C89 1.249 . S
Mg98 O99 2.028 . S
Mg98 O105 1.986 1_565 S
Mg98 O107 2.114 . S
Mg98 O108 2.251 . S
Mg98 O111 2.010 . S
O99 Mg98 2.028 . S
O99 C102 1.250 . S
O100 Mg101 2.028 . S
O100 C102 1.248 . S
Mg101 O100 2.028 . S
Mg101 O106 2.032 1_565 S
Mg101 O108 2.079 . S
C102 O99 1.250 . S
C102 O100 1.248 . S
C103 O104 1.264 . S
C103 O111 1.249 . S
O104 C103 1.264 . S
O105 Mg98 1.986 1_545 S
O105 C109 1.246 . S
O106 Mg101 2.032 1_545 S
O106 C109 1.259 . S
O107 Mg98 2.114 . S
O107 C110 1.252 . S
O108 Mg98 2.251 . S
O108 Mg101 2.079 . S
O108 C110 1.273 . S
C109 O105 1.246 . S
C109 O106 1.259 . S
C110 O107 1.252 . S
C110 O108 1.273 . S
O111 Mg98 2.010 . S
O111 C103 1.249 . S
Mg112 O113 2.028 . S
Mg112 O119 1.986 . S
Mg112 O121 2.114 . S
Mg112 O122 2.251 . S
Mg112 O125 2.010 1_455 S
O113 Mg112 2.028 . S
O113 C116 1.250 . S
O114 Mg115 2.028 . S
O114 C116 1.248 . S
Mg115 O114 2.028 . S
Mg115 O120 2.032 . S
Mg115 O122 2.079 . S
C116 O113 1.250 . S
C116 O114 1.248 . S
C117 O118 1.264 . S
C117 O125 1.249 . S
O118 C117 1.264 . S
O119 Mg112 1.986 . S
O119 C123 1.246 . S
O120 Mg115 2.032 . S
O120 C123 1.259 . S
O121 Mg112 2.114 . S
O121 C124 1.252 . S
O122 Mg112 2.251 . S
O122 Mg115 2.079 . S
O122 C124 1.273 . S
C123 O119 1.246 . S
C123 O120 1.259 . S
C124 O121 1.252 . S
C124 O122 1.273 . S
O125 Mg112 2.010 1_655 S
O125 C117 1.249 . S
Mg126 O127 2.028 . S
Mg126 O133 1.986 1_565 S
Mg126 O135 2.114 . S
Mg126 O136 2.251 . S
Mg126 O139 2.010 . S
O127 Mg126 2.028 . S
O127 C130 1.250 . S
O128 Mg129 2.028 . S
O128 C130 1.248 . S
Mg129 O128 2.028 . S
Mg129 O134 2.032 1_565 S
Mg129 O136 2.079 . S
C130 O127 1.250 . S
C130 O128 1.248 . S
C131 O132 1.264 . S
C131 O139 1.249 . S
O132 C131 1.264 . S
O133 Mg126 1.986 1_545 S
O133 C137 1.246 . S
O134 Mg129 2.032 1_545 S
O134 C137 1.259 . S
O135 Mg126 2.114 . S
O135 C138 1.252 . S
O136 Mg126 2.251 . S
O136 Mg129 2.079 . S
O136 C138 1.273 . S
C137 O133 1.246 . S
C137 O134 1.259 . S
C138 O135 1.252 . S
C138 O136 1.273 . S
O139 Mg126 2.010 . S
O139 C131 1.249 . S
Mg140 O141 2.028 . S
Mg140 O147 1.986 . S
Mg140 O149 2.114 . S
Mg140 O150 2.251 . S
Mg140 O153 2.010 1_455 S
O141 Mg140 2.028 . S
O141 C144 1.250 . S
O142 Mg143 2.028 . S
O142 C144 1.248 . S
Mg143 O142 2.028 . S
Mg143 O148 2.032 . S
Mg143 O150 2.079 . S
C144 O141 1.250 . S
C144 O142 1.248 . S
C145 O146 1.264 . S
C145 O153 1.249 . S
O146 C145 1.264 . S
O147 Mg140 1.986 . S
O147 C151 1.246 . S
O148 Mg143 2.032 . S
O148 C151 1.259 . S
O149 Mg140 2.114 . S
O149 C152 1.252 . S
O150 Mg140 2.251 . S
O150 Mg143 2.079 . S
O150 C152 1.273 . S
C151 O147 1.246 . S
C151 O148 1.259 . S
C152 O149 1.252 . S
C152 O150 1.273 . S
O153 Mg140 2.010 1_655 S
O153 C145 1.249 . S
Mg154 O155 2.028 . S
Mg154 O161 1.986 . S
Mg154 O163 2.114 . S
Mg154 O164 2.251 . S
Mg154 O167 2.010 . S
O155 Mg154 2.028 . S
O155 C158 1.250 . S
O156 Mg157 2.028 . S
O156 C158 1.248 . S
Mg157 O156 2.028 . S
Mg157 O162 2.032 . S
Mg157 O164 2.079 . S
C158 O155 1.250 . S
C158 O156 1.248 . S
C159 O160 1.264 . S
C159 O167 1.249 . S
O160 C159 1.264 . S
O161 Mg154 1.986 . S
O161 C165 1.246 . S
O162 Mg157 2.032 . S
O162 C165 1.259 . S
O163 Mg154 2.114 . S
O163 C166 1.252 . S
O164 Mg154 2.251 . S
O164 Mg157 2.079 . S
O164 C166 1.273 . S
C165 O161 1.246 . S
C165 O162 1.259 . S
C166 O163 1.252 . S
C166 O164 1.273 . S
O167 Mg154 2.010 . S
O167 C159 1.249 . S
Mg168 O169 2.028 . S
Mg168 O175 1.986 1_545 S
Mg168 O177 2.114 . S
Mg168 O178 2.251 . S
Mg168 O181 2.010 . S
O169 Mg168 2.028 . S
O169 C172 1.250 . S
O170 Mg171 2.028 . S
O170 C172 1.248 . S
Mg171 O170 2.028 . S
Mg171 O176 2.032 1_545 S
Mg171 O178 2.079 . S
C172 O169 1.250 . S
C172 O170 1.248 . S
C173 O174 1.264 . S
C173 O181 1.249 . S
O174 C173 1.264 . S
O175 Mg168 1.986 1_565 S
O175 C179 1.246 . S
O176 Mg171 2.032 1_565 S
O176 C179 1.259 . S
O177 Mg168 2.114 . S
O177 C180 1.252 . S
O178 Mg168 2.251 . S
O178 Mg171 2.079 . S
O178 C180 1.273 . S
C179 O175 1.246 . S
C179 O176 1.259 . S
C180 O177 1.252 . S
C180 O178 1.273 . S
O181 Mg168 2.010 . S
O181 C173 1.249 . S
Mg182 O183 2.028 . S
Mg182 O189 1.986 . S
Mg182 O191 2.114 . S
Mg182 O192 2.251 . S
Mg182 O195 2.010 1_655 S
O183 Mg182 2.028 . S
O183 C186 1.250 . S
O184 Mg185 2.028 . S
O184 C186 1.248 . S
Mg185 O184 2.028 . S
Mg185 O190 2.032 . S
Mg185 O192 2.079 . S
C186 O183 1.250 . S
C186 O184 1.248 . S
C187 O188 1.264 . S
C187 O195 1.249 . S
O188 C187 1.264 . S
O189 Mg182 1.986 . S
O189 C193 1.246 . S
O190 Mg185 2.032 . S
O190 C193 1.259 . S
O191 Mg182 2.114 . S
O191 C194 1.252 . S
O192 Mg182 2.251 . S
O192 Mg185 2.079 . S
O192 C194 1.273 . S
C193 O189 1.246 . S
C193 O190 1.259 . S
C194 O191 1.252 . S
C194 O192 1.273 . S
O195 Mg182 2.010 1_455 S
O195 C187 1.249 . S
Mg196 O197 2.028 . S
Mg196 O203 1.986 . S
Mg196 O205 2.114 . S
Mg196 O206 2.251 . S
Mg196 O209 2.010 . S
O197 Mg196 2.028 . S
O197 C200 1.250 . S
O198 Mg199 2.028 . S
O198 C200 1.248 . S
Mg199 O198 2.028 . S
Mg199 O204 2.032 . S
Mg199 O206 2.079 . S
C200 O197 1.250 . S
C200 O198 1.248 . S
C201 O202 1.264 . S
C201 O209 1.249 . S
O202 C201 1.264 . S
O203 Mg196 1.986 . S
O203 C207 1.246 . S
O204 Mg199 2.032 . S
O204 C207 1.259 . S
O205 Mg196 2.114 . S
O205 C208 1.252 . S
O206 Mg196 2.251 . S
O206 Mg199 2.079 . S
O206 C208 1.273 . S
C207 O203 1.246 . S
C207 O204 1.259 . S
C208 O205 1.252 . S
C208 O206 1.273 . S
O209 Mg196 2.010 . S
O209 C201 1.249 . S
Mg210 O211 2.028 . S
Mg210 O217 1.986 . S
Mg210 O219 2.114 . S
Mg210 O220 2.251 . S
Mg210 O223 2.010 . S
O211 Mg210 2.028 . S
O211 C214 1.250 . S
O212 Mg213 2.028 . S
O212 C214 1.248 . S
Mg213 O212 2.028 . S
Mg213 O218 2.032 . S
Mg213 O220 2.079 . S
C214 O211 1.250 . S
C214 O212 1.248 . S
C215 O216 1.264 . S
C215 O223 1.249 . S
O216 C215 1.264 . S
O217 Mg210 1.986 . S
O217 C221 1.246 . S
O218 Mg213 2.032 . S
O218 C221 1.259 . S
O219 Mg210 2.114 . S
O219 C222 1.252 . S
O220 Mg210 2.251 . S
O220 Mg213 2.079 . S
O220 C222 1.273 . S
C221 O217 1.246 . S
C221 O218 1.259 . S
C222 O219 1.252 . S
C222 O220 1.273 . S
O223 Mg210 2.010 . S
O223 C215 1.249 . S
Mg224 O225 2.028 . S
Mg224 O231 1.986 1_545 S
Mg224 O233 2.114 . S
Mg224 O234 2.251 . S
Mg224 O237 2.010 . S
O225 Mg224 2.028 . S
O225 C228 1.250 . S
O226 Mg227 2.028 . S
O226 C228 1.248 . S
Mg227 O226 2.028 . S
Mg227 O232 2.032 1_545 S
Mg227 O234 2.079 . S
C228 O225 1.250 . S
C228 O226 1.248 . S
C229 O230 1.264 . S
C229 O237 1.249 . S
O230 C229 1.264 . S
O231 Mg224 1.986 1_565 S
O231 C235 1.246 . S
O232 Mg227 2.032 1_565 S
O232 C235 1.259 . S
O233 Mg224 2.114 . S
O233 C236 1.252 . S
O234 Mg224 2.251 . S
O234 Mg227 2.079 . S
O234 C236 1.273 . S
C235 O231 1.246 . S
C235 O232 1.259 . S
C236 O233 1.252 . S
C236 O234 1.273 . S
O237 Mg224 2.010 . S
O237 C229 1.249 . S
Mg238 O239 2.028 . S
Mg238 O245 1.986 . S
Mg238 O247 2.114 . S
Mg238 O248 2.251 . S
Mg238 O251 2.010 1_655 S
O239 Mg238 2.028 . S
O239 C242 1.250 . S
O240 Mg241 2.028 . S
O240 C242 1.248 . S
Mg241 O240 2.028 . S
Mg241 O246 2.032 . S
Mg241 O248 2.079 . S
C242 O239 1.250 . S
C242 O240 1.248 . S
C243 O244 1.264 . S
C243 O251 1.249 . S
O244 C243 1.264 . S
O245 Mg238 1.986 . S
O245 C249 1.246 . S
O246 Mg241 2.032 . S
O246 C249 1.259 . S
O247 Mg238 2.114 . S
O247 C250 1.252 . S
O248 Mg238 2.251 . S
O248 Mg241 2.079 . S
O248 C250 1.273 . S
C249 O245 1.246 . S
C249 O246 1.259 . S
C250 O247 1.252 . S
C250 O248 1.273 . S
O251 Mg238 2.010 1_455 S
O251 C243 1.249 . S
H252 C260 0.930 . S
H253 C263 0.930 . S
H254 C265 0.930 . S
H255 C266 0.970 . S
H256 C266 0.970 . S
H257 C268 0.930 . S
H258 C270 0.930 . S
H259 C272 0.930 . S
C260 H252 0.930 . S
C260 C261 1.382 . S
C260 C262 1.426 . S
C261 C260 1.382 . S
C261 C265 1.389 . S
C262 C260 1.426 . S
C262 C263 1.375 . S
C262 C266 1.532 . S
C263 H253 0.930 . S
C263 C262 1.375 . S
C263 C264 1.416 . S
C264 C263 1.416 . S
C264 C265 1.371 . S
C265 H254 0.930 . S
C265 C261 1.389 . S
C265 C264 1.371 . S
C266 H255 0.970 . S
C266 H256 0.970 . S
C266 C262 1.532 . S
C266 C267 1.499 . S
C267 C266 1.499 . S
C267 C268 1.370 . S
C267 C272 1.415 . S
C268 H257 0.930 . S
C268 C267 1.370 . S
C268 C269 1.407 . S
C269 C268 1.407 . S
C269 C270 1.365 . S
C270 H258 0.930 . S
C270 C269 1.365 . S
C270 C271 1.393 . S
C271 C270 1.393 . S
C271 C272 1.387 . S
C272 H259 0.930 . S
C272 C267 1.415 . S
C272 C271 1.387 . S
H273 C281 0.930 . S
H274 C284 0.930 . S
H275 C286 0.930 . S
H276 C287 0.970 . S
H277 C287 0.970 . S
H278 C289 0.930 . S
H279 C291 0.930 . S
H280 C293 0.930 . S
C281 H273 0.930 . S
C281 C282 1.382 . S
C281 C283 1.426 . S
C282 C281 1.382 . S
C282 C286 1.389 . S
C283 C281 1.426 . S
C283 C284 1.375 . S
C283 C287 1.532 . S
C284 H274 0.930 . S
C284 C283 1.375 . S
C284 C285 1.416 . S
C285 C284 1.416 . S
C285 C286 1.371 . S
C286 H275 0.930 . S
C286 C282 1.389 . S
C286 C285 1.371 . S
C287 H276 0.970 . S
C287 H277 0.970 . S
C287 C283 1.532 . S
C287 C288 1.499 . S
C288 C287 1.499 . S
C288 C289 1.370 . S
C288 C293 1.415 . S
C289 H278 0.930 . S
C289 C288 1.370 . S
C289 C290 1.407 . S
C290 C289 1.407 . S
C290 C291 1.365 . S
C291 H279 0.930 . S
C291 C290 1.365 . S
C291 C292 1.393 . S
C292 C291 1.393 . S
C292 C293 1.387 . S
C293 H280 0.930 . S
C293 C288 1.415 . S
C293 C292 1.387 . S
H294 C302 0.930 . S
H295 C305 0.930 . S
H296 C307 0.930 . S
H297 C308 0.970 . S
H298 C308 0.970 . S
H299 C310 0.930 . S
H300 C312 0.930 . S
H301 C314 0.930 . S
C302 H294 0.930 . S
C302 C303 1.382 . S
C302 C304 1.426 . S
C303 C302 1.382 . S
C303 C307 1.389 . S
C304 C302 1.426 . S
C304 C305 1.375 . S
C304 C308 1.532 . S
C305 H295 0.930 . S
C305 C304 1.375 . S
C305 C306 1.416 . S
C306 C305 1.416 . S
C306 C307 1.371 . S
C307 H296 0.930 . S
C307 C303 1.389 . S
C307 C306 1.371 . S
C308 H297 0.970 . S
C308 H298 0.970 . S
C308 C304 1.532 . S
C308 C309 1.499 . S
C309 C308 1.499 . S
C309 C310 1.370 . S
C309 C314 1.415 . S
C310 H299 0.930 . S
C310 C309 1.370 . S
C310 C311 1.407 . S
C311 C310 1.407 . S
C311 C312 1.365 . S
C312 H300 0.930 . S
C312 C311 1.365 . S
C312 C313 1.393 . S
C313 C312 1.393 . S
C313 C314 1.387 . S
C314 H301 0.930 . S
C314 C309 1.415 . S
C314 C313 1.387 . S
H315 C323 0.930 . S
H316 C326 0.930 . S
H317 C328 0.930 . S
H318 C329 0.970 . S
H319 C329 0.970 . S
H320 C331 0.930 . S
H321 C333 0.930 . S
H322 C335 0.930 . S
C323 H315 0.930 . S
C323 C324 1.382 . S
C323 C325 1.426 . S
C324 C323 1.382 . S
C324 C328 1.389 . S
C325 C323 1.426 . S
C325 C326 1.375 . S
C325 C329 1.532 . S
C326 H316 0.930 . S
C326 C325 1.375 . S
C326 C327 1.416 . S
C327 C326 1.416 . S
C327 C328 1.371 . S
C328 H317 0.930 . S
C328 C324 1.389 . S
C328 C327 1.371 . S
C329 H318 0.970 . S
C329 H319 0.970 . S
C329 C325 1.532 . S
C329 C330 1.499 . S
C330 C329 1.499 . S
C330 C331 1.370 . S
C330 C335 1.415 . S
C331 H320 0.930 . S
C331 C330 1.370 . S
C331 C332 1.407 . S
C332 C331 1.407 . S
C332 C333 1.365 . S
C333 H321 0.930 . S
C333 C332 1.365 . S
C333 C334 1.393 . S
C334 C333 1.393 . S
C334 C335 1.387 . S
C335 H322 0.930 . S
C335 C330 1.415 . S
C335 C334 1.387 . S
H336 C344 0.930 . S
H337 C347 0.930 . S
H338 C349 0.930 . S
H339 C350 0.970 . S
H340 C350 0.970 . S
H341 C352 0.930 . S
H342 C354 0.930 . S
H343 C356 0.930 . S
C344 H336 0.930 . S
C344 C345 1.382 . S
C344 C346 1.426 . S
C345 C344 1.382 . S
C345 C349 1.389 . S
C346 C344 1.426 . S
C346 C347 1.375 . S
C346 C350 1.532 . S
C347 H337 0.930 . S
C347 C346 1.375 . S
C347 C348 1.416 . S
C348 C347 1.416 . S
C348 C349 1.371 . S
C349 H338 0.930 . S
C349 C345 1.389 . S
C349 C348 1.371 . S
C350 H339 0.970 . S
C350 H340 0.970 . S
C350 C346 1.532 . S
C350 C351 1.499 . S
C351 C350 1.499 . S
C351 C352 1.370 . S
C351 C356 1.415 . S
C352 H341 0.930 . S
C352 C351 1.370 . S
C352 C353 1.407 . S
C353 C352 1.407 . S
C353 C354 1.365 . S
C354 H342 0.930 . S
C354 C353 1.365 . S
C354 C355 1.393 . S
C355 C354 1.393 . S
C355 C356 1.387 . S
C356 H343 0.930 . S
C356 C351 1.415 . S
C356 C355 1.387 . S
H357 C365 0.930 . S
H358 C368 0.930 . S
H359 C370 0.930 . S
H360 C371 0.970 . S
H361 C371 0.970 . S
H362 C373 0.930 . S
H363 C375 0.930 . S
H364 C377 0.930 . S
C365 H357 0.930 . S
C365 C366 1.382 . S
C365 C367 1.426 . S
C366 C365 1.382 . S
C366 C370 1.389 . S
C367 C365 1.426 . S
C367 C368 1.375 . S
C367 C371 1.532 . S
C368 H358 0.930 . S
C368 C367 1.375 . S
C368 C369 1.416 . S
C369 C368 1.416 . S
C369 C370 1.371 . S
C370 H359 0.930 . S
C370 C366 1.389 . S
C370 C369 1.371 . S
C371 H360 0.970 . S
C371 H361 0.970 . S
C371 C367 1.532 . S
C371 C372 1.499 . S
C372 C371 1.499 . S
C372 C373 1.370 . S
C372 C377 1.415 . S
C373 H362 0.930 . S
C373 C372 1.370 . S
C373 C374 1.407 . S
C374 C373 1.407 . S
C374 C375 1.365 . S
C375 H363 0.930 . S
C375 C374 1.365 . S
C375 C376 1.393 . S
C376 C375 1.393 . S
C376 C377 1.387 . S
C377 H364 0.930 . S
C377 C372 1.415 . S
C377 C376 1.387 . S
H378 C386 0.930 . S
H379 C389 0.930 . S
H380 C391 0.930 . S
H381 C392 0.970 . S
H382 C392 0.970 . S
H383 C394 0.930 . S
H384 C396 0.930 . S
H385 C398 0.930 . S
C386 H378 0.930 . S
C386 C387 1.382 . S
C386 C388 1.426 . S
C387 C386 1.382 . S
C387 C391 1.389 . S
C388 C386 1.426 . S
C388 C389 1.375 . S
C388 C392 1.532 . S
C389 H379 0.930 . S
C389 C388 1.375 . S
C389 C390 1.416 . S
C390 C389 1.416 . S
C390 C391 1.371 . S
C391 H380 0.930 . S
C391 C387 1.389 . S
C391 C390 1.371 . S
C392 H381 0.970 . S
C392 H382 0.970 . S
C392 C388 1.532 . S
C392 C393 1.499 . S
C393 C392 1.499 . S
C393 C394 1.370 . S
C393 C398 1.415 . S
C394 H383 0.930 . S
C394 C393 1.370 . S
C394 C395 1.407 . S
C395 C394 1.407 . S
C395 C396 1.365 . S
C396 H384 0.930 . S
C396 C395 1.365 . S
C396 C397 1.393 . S
C397 C396 1.393 . S
C397 C398 1.387 . S
C398 H385 0.930 . S
C398 C393 1.415 . S
C398 C397 1.387 . S
H399 C407 0.930 . S
H400 C410 0.930 . S
H401 C412 0.930 . S
H402 C413 0.970 . S
H403 C413 0.970 . S
H404 C415 0.930 . S
H405 C417 0.930 . S
H406 C419 0.930 . S
C407 H399 0.930 . S
C407 C408 1.382 . S
C407 C409 1.426 . S
C408 C407 1.382 . S
C408 C412 1.389 . S
C409 C407 1.426 . S
C409 C410 1.375 . S
C409 C413 1.532 . S
C410 H400 0.930 . S
C410 C409 1.375 . S
C410 C411 1.416 . S
C411 C410 1.416 . S
C411 C412 1.371 . S
C412 H401 0.930 . S
C412 C408 1.389 . S
C412 C411 1.371 . S
C413 H402 0.970 . S
C413 H403 0.970 . S
C413 C409 1.532 . S
C413 C414 1.499 . S
C414 C413 1.499 . S
C414 C415 1.370 . S
C414 C419 1.415 . S
C415 H404 0.930 . S
C415 C414 1.370 . S
C415 C416 1.407 . S
C416 C415 1.407 . S
C416 C417 1.365 . S
C417 H405 0.930 . S
C417 C416 1.365 . S
C417 C418 1.393 . S
C418 C417 1.393 . S
C418 C419 1.387 . S
C419 H406 0.930 . S
C419 C414 1.415 . S
C419 C418 1.387 . S
H420 C428 0.930 . S
H421 C431 0.930 . S
H422 C433 0.930 . S
H423 C434 0.970 . S
H424 C434 0.970 . S
H425 C436 0.930 . S
H426 C438 0.930 . S
H427 C440 0.930 . S
C428 H420 0.930 . S
C428 C429 1.382 . S
C428 C430 1.426 . S
C429 C428 1.382 . S
C429 C433 1.389 . S
C430 C428 1.426 . S
C430 C431 1.375 . S
C430 C434 1.532 . S
C431 H421 0.930 . S
C431 C430 1.375 . S
C431 C432 1.416 . S
C432 C431 1.416 . S
C432 C433 1.371 . S
C433 H422 0.930 . S
C433 C429 1.389 . S
C433 C432 1.371 . S
C434 H423 0.970 . S
C434 H424 0.970 . S
C434 C430 1.532 . S
C434 C435 1.499 . S
C435 C434 1.499 . S
C435 C436 1.370 . S
C435 C440 1.415 . S
C436 H425 0.930 . S
C436 C435 1.370 . S
C436 C437 1.407 . S
C437 C436 1.407 . S
C437 C438 1.365 . S
C438 H426 0.930 . S
C438 C437 1.365 . S
C438 C439 1.393 . S
C439 C438 1.393 . S
C439 C440 1.387 . S
C440 H427 0.930 . S
C440 C435 1.415 . S
C440 C439 1.387 . S
H441 C449 0.930 . S
H442 C452 0.930 . S
H443 C454 0.930 . S
H444 C455 0.970 . S
H445 C455 0.970 . S
H446 C457 0.930 . S
H447 C459 0.930 . S
H448 C461 0.930 . S
C449 H441 0.930 . S
C449 C450 1.382 . S
C449 C451 1.426 . S
C450 C449 1.382 . S
C450 C454 1.389 1_455 S
C451 C449 1.426 . S
C451 C452 1.375 . S
C451 C455 1.532 . S
C452 H442 0.930 . S
C452 C451 1.375 . S
C452 C453 1.416 . S
C453 C452 1.416 . S
C453 C454 1.371 1_455 S
C454 H443 0.930 . S
C454 C450 1.389 1_655 S
C454 C453 1.371 1_655 S
C455 H444 0.970 . S
C455 H445 0.970 . S
C455 C451 1.532 . S
C455 C456 1.499 . S
C456 C455 1.499 . S
C456 C457 1.370 . S
C456 C461 1.415 . S
C457 H446 0.930 . S
C457 C456 1.370 . S
C457 C458 1.409 . S
C458 C457 1.409 . S
C458 C459 1.367 1_455 S
C459 H447 0.930 . S
C459 C458 1.367 1_655 S
C459 C460 1.393 1_655 S
C460 C459 1.393 1_455 S
C460 C461 1.387 . S
C461 H448 0.930 . S
C461 C456 1.415 . S
C461 C460 1.387 . S
H462 C470 0.930 . S
H463 C473 0.930 . S
H464 C475 0.930 . S
H465 C476 0.970 . S
H466 C476 0.970 . S
H467 C478 0.930 . S
H468 C480 0.930 . S
H469 C482 0.930 . S
C470 H462 0.930 . S
C470 C471 1.382 . S
C470 C472 1.426 . S
C471 C470 1.382 . S
C471 C475 1.389 . S
C472 C470 1.426 . S
C472 C473 1.375 . S
C472 C476 1.532 . S
C473 H463 0.930 . S
C473 C472 1.375 . S
C473 C474 1.416 . S
C474 C473 1.416 . S
C474 C475 1.371 . S
C475 H464 0.930 . S
C475 C471 1.389 . S
C475 C474 1.371 . S
C476 H465 0.970 . S
C476 H466 0.970 . S
C476 C472 1.532 . S
C476 C477 1.499 . S
C477 C476 1.499 . S
C477 C478 1.370 . S
C477 C482 1.415 . S
C478 H467 0.930 . S
C478 C477 1.370 . S
C478 C479 1.407 . S
C479 C478 1.407 . S
C479 C480 1.365 . S
C480 H468 0.930 . S
C480 C479 1.365 . S
C480 C481 1.393 . S
C481 C480 1.393 . S
C481 C482 1.387 . S
C482 H469 0.930 . S
C482 C477 1.415 . S
C482 C481 1.387 . S
H483 C491 0.930 . S
H484 C494 0.930 . S
H485 C496 0.930 . S
H486 C497 0.970 . S
H487 C497 0.970 . S
H488 C499 0.930 . S
H489 C501 0.930 . S
H490 C503 0.930 . S
C491 H483 0.930 . S
C491 C492 1.382 . S
C491 C493 1.426 . S
C492 C491 1.382 . S
C492 C496 1.389 1_565 S
C493 C491 1.426 . S
C493 C494 1.375 . S
C493 C497 1.532 . S
C494 H484 0.930 . S
C494 C493 1.375 . S
C494 C495 1.416 . S
C495 C494 1.416 . S
C495 C496 1.371 1_565 S
C496 H485 0.930 . S
C496 C492 1.389 1_545 S
C496 C495 1.371 1_545 S
C497 H486 0.970 . S
C497 H487 0.970 . S
C497 C493 1.532 . S
C497 C498 1.499 . S
C498 C497 1.499 . S
C498 C499 1.370 . S
C498 C503 1.415 . S
C499 H488 0.930 . S
C499 C498 1.370 . S
C499 C500 1.431 . S
C500 C499 1.431 . S
C500 C501 1.356 1_565 S
C501 H489 0.930 . S
C501 C500 1.356 1_545 S
C501 C502 1.393 1_545 S
C502 C501 1.393 1_565 S
C502 C503 1.387 . S
C503 H490 0.930 . S
C503 C498 1.415 . S
C503 C502 1.387 . S
H504 C512 0.930 . S
H505 C515 0.930 . S
H506 C517 0.930 . S
H507 C518 0.970 . S
H508 C518 0.970 . S
H509 C520 0.930 . S
H510 C522 0.930 . S
H511 C524 0.930 . S
C512 H504 0.930 . S
C512 C513 1.382 . S
C512 C514 1.426 . S
C513 C512 1.382 . S
C513 C517 1.389 1_565 S
C514 C512 1.426 . S
C514 C515 1.375 . S
C514 C518 1.532 . S
C515 H505 0.930 . S
C515 C514 1.375 . S
C515 C516 1.416 . S
C516 C515 1.416 . S
C516 C517 1.371 1_565 S
C517 H506 0.930 . S
C517 C513 1.389 1_545 S
C517 C516 1.371 1_545 S
C518 H507 0.970 . S
C518 H508 0.970 . S
C518 C514 1.532 . S
C518 C519 1.499 . S
C519 C518 1.499 . S
C519 C520 1.370 . S
C519 C524 1.415 . S
C520 H509 0.930 . S
C520 C519 1.370 . S
C520 C521 1.407 . S
C521 C520 1.407 . S
C521 C522 1.365 1_565 S
C522 H510 0.930 . S
C522 C521 1.365 1_545 S
C522 C523 1.393 1_545 S
C523 C522 1.393 1_565 S
C523 C524 1.387 . S
C524 H511 0.930 . S
C524 C519 1.415 . S
C524 C523 1.387 . S
H525 C533 0.930 . S
H526 C536 0.930 . S
H527 C538 0.930 . S
H528 C539 0.970 . S
H529 C539 0.970 . S
H530 C541 0.930 . S
H531 C543 0.930 . S
H532 C545 0.930 . S
C533 H525 0.930 . S
C533 C534 1.382 . S
C533 C535 1.426 . S
C534 C533 1.382 . S
C534 C538 1.389 1_455 S
C535 C533 1.426 . S
C535 C536 1.375 . S
C535 C539 1.532 . S
C536 H526 0.930 . S
C536 C535 1.375 . S
C536 C537 1.416 . S
C537 C536 1.416 . S
C537 C538 1.371 1_455 S
C538 H527 0.930 . S
C538 C534 1.389 1_655 S
C538 C537 1.371 1_655 S
C539 H528 0.970 . S
C539 H529 0.970 . S
C539 C535 1.532 . S
C539 C540 1.499 . S
C540 C539 1.499 . S
C540 C541 1.370 . S
C540 C545 1.415 . S
C541 H530 0.930 . S
C541 C540 1.370 . S
C541 C542 1.407 . S
C542 C541 1.407 . S
C542 C543 1.365 1_455 S
C543 H531 0.930 . S
C543 C542 1.365 1_655 S
C543 C544 1.393 1_655 S
C544 C543 1.393 1_455 S
C544 C545 1.387 . S
C545 H532 0.930 . S
C545 C540 1.415 . S
C545 C544 1.387 . S
H546 C554 0.930 . S
H547 C557 0.930 . S
H548 C559 0.930 . S
H549 C560 0.970 . S
H550 C560 0.970 . S
H551 C562 0.930 . S
H552 C564 0.930 . S
H553 C566 0.930 . S
C554 H546 0.930 . S
C554 C555 1.382 . S
C554 C556 1.426 . S
C555 C554 1.382 . S
C555 C559 1.389 . S
C556 C554 1.426 . S
C556 C557 1.375 . S
C556 C560 1.532 . S
C557 H547 0.930 . S
C557 C556 1.375 . S
C557 C558 1.416 . S
C558 C557 1.416 . S
C558 C559 1.371 . S
C559 H548 0.930 . S
C559 C555 1.389 . S
C559 C558 1.371 . S
C560 H549 0.970 . S
C560 H550 0.970 . S
C560 C556 1.532 . S
C560 C561 1.499 . S
C561 C560 1.499 . S
C561 C562 1.370 . S
C561 C566 1.415 . S
C562 H551 0.930 . S
C562 C561 1.370 . S
C562 C563 1.407 . S
C563 C562 1.407 . S
C563 C564 1.365 . S
C564 H552 0.930 . S
C564 C563 1.365 . S
C564 C565 1.393 . S
C565 C564 1.393 . S
C565 C566 1.387 . S
C566 H553 0.930 . S
C566 C561 1.415 . S
C566 C565 1.387 . S
H567 C575 0.930 . S
H568 C578 0.930 . S
H569 C580 0.930 . S
H570 C581 0.970 . S
H571 C581 0.970 . S
H572 C583 0.930 . S
H573 C585 0.930 . S
H574 C587 0.930 . S
C575 H567 0.930 . S
C575 C576 1.382 . S
C575 C577 1.426 . S
C576 C575 1.382 . S
C576 C580 1.389 . S
C577 C575 1.426 . S
C577 C578 1.375 . S
C577 C581 1.532 . S
C578 H568 0.930 . S
C578 C577 1.375 . S
C578 C579 1.416 . S
C579 C578 1.416 . S
C579 C580 1.371 . S
C580 H569 0.930 . S
C580 C576 1.389 . S
C580 C579 1.371 . S
C581 H570 0.970 . S
C581 H571 0.970 . S
C581 C577 1.532 . S
C581 C582 1.499 . S
C582 C581 1.499 . S
C582 C583 1.370 . S
C582 C587 1.415 . S
C583 H572 0.930 . S
C583 C582 1.370 . S
C583 C584 1.407 . S
C584 C583 1.407 . S
C584 C585 1.365 . S
C585 H573 0.930 . S
C585 C584 1.365 . S
C585 C586 1.393 . S
C586 C585 1.393 . S
C586 C587 1.387 . S
C587 H574 0.930 . S
C587 C582 1.415 . S
C587 C586 1.387 . S
H588 C596 0.930 . S
H589 C599 0.930 . S
H590 C601 0.930 . S
H591 C602 0.970 . S
H592 C602 0.970 . S
H593 C604 0.930 . S
H594 C606 0.930 . S
H595 C608 0.930 . S
C596 H588 0.930 . S
C596 C597 1.382 . S
C596 C598 1.426 . S
C597 C596 1.382 . S
C597 C601 1.389 . S
C598 C596 1.426 . S
C598 C599 1.375 . S
C598 C602 1.532 . S
C599 H589 0.930 . S
C599 C598 1.375 . S
C599 C600 1.416 . S
C600 C599 1.416 . S
C600 C601 1.371 . S
C601 H590 0.930 . S
C601 C597 1.389 . S
C601 C600 1.371 . S
C602 H591 0.970 . S
C602 H592 0.970 . S
C602 C598 1.532 . S
C602 C603 1.499 . S
C603 C602 1.499 . S
C603 C604 1.370 . S
C603 C608 1.415 . S
C604 H593 0.930 . S
C604 C603 1.370 . S
C604 C605 1.407 . S
C605 C604 1.407 . S
C605 C606 1.365 . S
C606 H594 0.930 . S
C606 C605 1.365 . S
C606 C607 1.393 . S
C607 C606 1.393 . S
C607 C608 1.387 . S
C608 H595 0.930 . S
C608 C603 1.415 . S
C608 C607 1.387 . S
H609 C617 0.930 . S
H610 C620 0.930 . S
H611 C622 0.930 . S
H612 C623 0.970 . S
H613 C623 0.970 . S
H614 C625 0.930 . S
H615 C627 0.930 . S
H616 C629 0.930 . S
C617 H609 0.930 . S
C617 C618 1.382 . S
C617 C619 1.426 . S
C618 C617 1.382 . S
C618 C622 1.389 . S
C619 C617 1.426 . S
C619 C620 1.375 . S
C619 C623 1.532 . S
C620 H610 0.930 . S
C620 C619 1.375 . S
C620 C621 1.416 . S
C621 C620 1.416 . S
C621 C622 1.371 . S
C622 H611 0.930 . S
C622 C618 1.389 . S
C622 C621 1.371 . S
C623 H612 0.970 . S
C623 H613 0.970 . S
C623 C619 1.532 . S
C623 C624 1.499 . S
C624 C623 1.499 . S
C624 C625 1.370 . S
C624 C629 1.415 . S
C625 H614 0.930 . S
C625 C624 1.370 . S
C625 C626 1.407 . S
C626 C625 1.407 . S
C626 C627 1.365 . S
C627 H615 0.930 . S
C627 C626 1.365 . S
C627 C628 1.393 . S
C628 C627 1.393 . S
C628 C629 1.387 . S
C629 H616 0.930 . S
C629 C624 1.415 . S
C629 C628 1.387 . S
C630 C631 1.365 1_455 S
C630 C636 1.386 . S
C630 N638 1.358 . S
C631 C630 1.365 1_655 S
C631 C637 1.363 . S
C632 C633 1.363 . S
C632 C637 1.379 . S
C632 N639 1.356 . S
C633 C632 1.363 . S
C633 C636 1.359 1_655 S
N634 C636 1.348 . S
N634 H646 0.984 . S
N634 H647 0.985 . S
N635 C637 1.356 . S
N635 H640 0.984 . S
N635 H641 0.985 . S
C636 C630 1.386 . S
C636 C633 1.359 1_455 S
C636 N634 1.348 . S
C637 C631 1.363 . S
C637 C632 1.379 . S
C637 N635 1.356 . S
N638 C630 1.358 . S
N638 H644 0.984 . S
N638 H645 0.984 . S
N639 C632 1.356 . S
N639 H642 0.984 . S
N639 H643 0.985 . S
H640 N635 0.984 . S
H641 N635 0.985 . S
H642 N639 0.984 . S
H643 N639 0.985 . S
H644 N638 0.984 . S
H645 N638 0.984 . S
H646 N634 0.984 . S
H647 N634 0.985 . S
C648 C649 1.363 . S
C648 C654 1.379 . S
C648 N656 1.356 . S
C649 C648 1.363 . S
C649 C655 1.363 . S
C650 C651 1.363 . S
C650 C655 1.379 . S
C650 N657 1.356 . S
C651 C650 1.363 . S
C651 C654 1.363 . S
N652 C654 1.356 . S
N652 H664 0.984 . S
N652 H665 0.985 . S
N653 C655 1.356 . S
N653 H658 0.984 . S
N653 H659 0.985 . S
C654 C648 1.379 . S
C654 C651 1.363 . S
C654 N652 1.356 . S
C655 C649 1.363 . S
C655 C650 1.379 . S
C655 N653 1.356 . S
N656 C648 1.356 . S
N656 H662 0.984 . S
N656 H663 0.984 . S
N657 C650 1.356 . S
N657 H660 0.984 . S
N657 H661 0.985 . S
H658 N653 0.984 . S
H659 N653 0.985 . S
H660 N657 0.984 . S
H661 N657 0.985 . S
H662 N656 0.984 . S
H663 N656 0.984 . S
H664 N652 0.984 . S
H665 N652 0.985 . S
C666 C667 1.363 . S
C666 C672 1.379 . S
C666 N674 1.356 . S
C667 C666 1.363 . S
C667 C673 1.363 1_545 S
C668 C669 1.363 1_565 S
C668 C673 1.379 . S
C668 N675 1.356 . S
C669 C668 1.363 1_545 S
C669 C672 1.363 . S
N670 C672 1.356 . S
N670 H682 0.984 . S
N670 H683 0.985 . S
N671 C673 1.356 . S
N671 H676 0.984 . S
N671 H677 0.985 . S
C672 C666 1.379 . S
C672 C669 1.363 . S
C672 N670 1.356 . S
C673 C667 1.363 1_565 S
C673 C668 1.379 . S
C673 N671 1.356 . S
N674 C666 1.356 . S
N674 H680 0.984 . S
N674 H681 0.984 . S
N675 C668 1.356 . S
N675 H678 0.984 . S
N675 H679 0.985 . S
H676 N671 0.984 . S
H677 N671 0.985 . S
H678 N675 0.984 . S
H679 N675 0.985 . S
H680 N674 0.984 . S
H681 N674 0.984 . S
H682 N670 0.984 . S
H683 N670 0.985 . S
C684 C685 1.363 . S
C684 C690 1.379 . S
C684 N692 1.356 . S
C685 C684 1.363 . S
C685 C691 1.363 1_565 S
C686 C687 1.363 1_545 S
C686 C691 1.379 . S
C686 N693 1.356 . S
C687 C686 1.363 1_565 S
C687 C690 1.363 . S
N688 C690 1.356 . S
N688 H700 0.984 . S
N688 H701 0.985 . S
N689 C691 1.356 . S
N689 H694 0.984 . S
N689 H695 0.985 . S
C690 C684 1.379 . S
C690 C687 1.363 . S
C690 N688 1.356 . S
C691 C685 1.363 1_545 S
C691 C686 1.379 . S
C691 N689 1.356 . S
N692 C684 1.356 . S
N692 H698 0.984 . S
N692 H699 0.984 . S
N693 C686 1.356 . S
N693 H696 0.984 . S
N693 H697 0.985 . S
H694 N689 0.984 . S
H695 N689 0.985 . S
H696 N693 0.984 . S
H697 N693 0.985 . S
H698 N692 0.984 . S
H699 N692 0.984 . S
H700 N688 0.984 . S
H701 N688 0.985 . S
C702 C703 1.363 1_655 S
C702 C708 1.379 . S
C702 N710 1.356 . S
C703 C702 1.363 1_455 S
C703 C709 1.363 . S
C704 C705 1.363 . S
C704 C709 1.379 . S
C704 N711 1.356 . S
C705 C704 1.363 . S
C705 C708 1.363 1_455 S
N706 C708 1.356 . S
N706 H718 0.984 . S
N706 H719 0.985 . S
N707 C709 1.356 . S
N707 H712 0.984 . S
N707 H713 0.985 . S
C708 C702 1.379 . S
C708 C705 1.363 1_655 S
C708 N706 1.356 . S
C709 C703 1.363 . S
C709 C704 1.379 . S
C709 N707 1.356 . S
N710 C702 1.356 . S
N710 H716 0.984 . S
N710 H717 0.984 . S
N711 C704 1.356 . S
N711 H714 0.984 . S
N711 H715 0.985 . S
H712 N707 0.984 . S
H713 N707 0.985 . S
H714 N711 0.984 . S
H715 N711 0.985 . S
H716 N710 0.984 . S
H717 N710 0.984 . S
H718 N706 0.984 . S
H719 N706 0.985 . S
C720 C721 1.363 . S
C720 C726 1.379 . S
C720 N728 1.356 . S
C721 C720 1.363 . S
C721 C727 1.363 . S
C722 C723 1.363 . S
C722 C727 1.379 . S
C722 N729 1.356 . S
C723 C722 1.363 . S
C723 C726 1.363 . S
N724 C726 1.356 . S
N724 H736 0.984 . S
N724 H737 0.985 . S
N725 C727 1.356 . S
N725 H730 0.984 . S
N725 H731 0.985 . S
C726 C720 1.379 . S
C726 C723 1.363 . S
C726 N724 1.356 . S
C727 C721 1.363 . S
C727 C722 1.379 . S
C727 N725 1.356 . S
N728 C720 1.356 . S
N728 H734 0.984 . S
N728 H735 0.984 . S
N729 C722 1.356 . S
N729 H732 0.984 . S
N729 H733 0.985 . S
H730 N725 0.984 . S
H731 N725 0.985 . S
H732 N729 0.984 . S
H733 N729 0.985 . S
H734 N728 0.984 . S
H735 N728 0.984 . S
H736 N724 0.984 . S
H737 N724 0.985 . S
C738 C739 1.355 . S
C738 C744 1.395 1_455 S
C738 N746 1.347 1_455 S
C739 C738 1.355 . S
C739 C745 1.363 . S
C740 C741 1.363 . S
C740 C745 1.379 . S
C740 N747 1.356 . S
C741 C740 1.363 . S
C741 C744 1.363 1_455 S
N742 C744 1.356 . S
N742 H754 0.984 . S
N742 H755 0.985 . S
N743 C745 1.356 . S
N743 H748 0.984 . S
N743 H749 0.985 . S
C744 C738 1.395 1_655 S
C744 C741 1.363 1_655 S
C744 N742 1.356 . S
C745 C739 1.363 . S
C745 C740 1.379 . S
C745 N743 1.356 . S
N746 C738 1.347 1_655 S
N746 H752 0.984 . S
N746 H753 0.984 1_655 S
N747 C740 1.356 . S
N747 H750 0.984 . S
N747 H751 0.985 . S
H748 N743 0.984 . S
H749 N743 0.985 . S
H750 N747 0.984 . S
H751 N747 0.985 . S
H752 N746 0.984 . S
H753 N746 0.984 1_455 S
H754 N742 0.984 . S
H755 N742 0.985 . S
C756 C757 1.363 . S
C756 C762 1.379 . S
C756 N764 1.356 . S
C757 C756 1.363 . S
C757 C763 1.363 . S
C758 C759 1.363 . S
C758 C763 1.379 . S
C758 N765 1.356 . S
C759 C758 1.363 . S
C759 C762 1.363 . S
N760 C762 1.356 . S
N760 H772 0.984 . S
N760 H773 0.985 . S
N761 C763 1.356 . S
N761 H766 0.984 . S
N761 H767 0.985 . S
C762 C756 1.379 . S
C762 C759 1.363 . S
C762 N760 1.356 . S
C763 C757 1.363 . S
C763 C758 1.379 . S
C763 N761 1.356 . S
N764 C756 1.356 . S
N764 H770 0.984 . S
N764 H771 0.984 . S
N765 C758 1.356 . S
N765 H768 0.984 . S
N765 H769 0.985 . S
H766 N761 0.984 . S
H767 N761 0.985 . S
H768 N765 0.984 . S
H769 N765 0.985 . S
H770 N764 0.984 . S
H771 N764 0.984 . S
H772 N760 0.984 . S
H773 N760 0.985 . S
C774 C775 1.363 1_545 S
C774 C780 1.379 . S
C774 N782 1.356 . S
C775 C774 1.363 1_565 S
C775 C781 1.363 . S
C776 C777 1.363 . S
C776 C781 1.379 . S
C776 N783 1.356 . S
C777 C776 1.363 . S
C777 C780 1.363 1_565 S
N778 C780 1.356 . S
N778 H790 0.984 . S
N778 H791 0.985 . S
N779 C781 1.356 . S
N779 H784 0.984 . S
N779 H785 0.985 . S
C780 C774 1.379 . S
C780 C777 1.363 1_545 S
C780 N778 1.356 . S
C781 C775 1.363 . S
C781 C776 1.379 . S
C781 N779 1.356 . S
N782 C774 1.356 . S
N782 H788 0.984 . S
N782 H789 0.984 . S
N783 C776 1.356 . S
N783 H786 0.984 . S
N783 H787 0.985 . S
H784 N779 0.984 . S
H785 N779 0.985 . S
H786 N783 0.984 . S
H787 N783 0.985 . S
H788 N782 0.984 . S
H789 N782 0.984 . S
H790 N778 0.984 . S
H791 N778 0.985 . S
C792 C793 1.363 1_565 S
C792 C798 1.379 . S
C792 N800 1.356 . S
C793 C792 1.363 1_545 S
C793 C799 1.363 . S
C794 C795 1.363 . S
C794 C799 1.379 . S
C794 N801 1.356 . S
C795 C794 1.363 . S
C795 C798 1.363 1_545 S
N796 C798 1.356 . S
N796 H808 0.984 . S
N796 H809 0.985 . S
N797 C799 1.356 . S
N797 H802 0.984 . S
N797 H803 0.985 . S
C798 C792 1.379 . S
C798 C795 1.363 1_565 S
C798 N796 1.356 . S
C799 C793 1.363 . S
C799 C794 1.379 . S
C799 N797 1.356 . S
N800 C792 1.356 . S
N800 H806 0.984 . S
N800 H807 0.984 . S
N801 C794 1.356 . S
N801 H804 0.984 . S
N801 H805 0.985 . S
H802 N797 0.984 . S
H803 N797 0.985 . S
H804 N801 0.984 . S
H805 N801 0.985 . S
H806 N800 0.984 . S
H807 N800 0.984 . S
H808 N796 0.984 . S
H809 N796 0.985 . S
C810 C811 1.363 . S
C810 C816 1.379 . S
C810 N818 1.356 . S
C811 C810 1.363 . S
C811 C817 1.363 1_655 S
C812 C813 1.363 1_455 S
C812 C817 1.379 . S
C812 N819 1.356 . S
C813 C812 1.363 1_655 S
C813 C816 1.363 . S
N814 C816 1.356 . S
N814 H826 0.984 . S
N814 H827 0.985 . S
N815 C817 1.356 . S
N815 H820 0.984 . S
N815 H821 0.985 . S
C816 C810 1.379 . S
C816 C813 1.363 . S
C816 N814 1.356 . S
C817 C811 1.363 1_455 S
C817 C812 1.379 . S
C817 N815 1.356 . S
N818 C810 1.356 . S
N818 H824 0.984 . S
N818 H825 0.984 . S
N819 C812 1.356 . S
N819 H822 0.984 . S
N819 H823 0.985 . S
H820 N815 0.984 . S
H821 N815 0.985 . S
H822 N819 0.984 . S
H823 N819 0.985 . S
H824 N818 0.984 . S
H825 N818 0.984 . S
H826 N814 0.984 . S
H827 N814 0.985 . S
C828 C829 1.363 . S
C828 C834 1.379 . S
C828 N836 1.356 . S
C829 C828 1.363 . S
C829 C835 1.363 . S
C830 C831 1.363 . S
C830 C835 1.379 . S
C830 N837 1.356 . S
C831 C830 1.363 . S
C831 C834 1.363 . S
N832 C834 1.356 . S
N832 H844 0.984 . S
N832 H845 0.985 . S
N833 C835 1.356 . S
N833 H838 0.984 . S
N833 H839 0.985 . S
C834 C828 1.379 . S
C834 C831 1.363 . S
C834 N832 1.356 . S
C835 C829 1.363 . S
C835 C830 1.379 . S
C835 N833 1.356 . S
N836 C828 1.356 . S
N836 H842 0.984 . S
N836 H843 0.984 . S
N837 C830 1.356 . S
N837 H840 0.984 . S
N837 H841 0.985 . S
H838 N833 0.984 . S
H839 N833 0.985 . S
H840 N837 0.984 . S
H841 N837 0.985 . S
H842 N836 0.984 . S
H843 N836 0.984 . S
H844 N832 0.984 . S
H845 N832 0.985 . S
C846 C847 1.363 . S
C846 C852 1.379 . S
C846 N854 1.356 . S
C847 C846 1.363 . S
C847 C853 1.363 . S
C848 C849 1.363 . S
C848 C853 1.379 . S
C848 N855 1.356 . S
C849 C848 1.363 . S
C849 C852 1.363 . S
N850 C852 1.356 . S
N850 H862 0.984 . S
N850 H863 0.985 . S
N851 C853 1.356 . S
N851 H856 0.984 . S
N851 H857 0.985 . S
C852 C846 1.379 . S
C852 C849 1.363 . S
C852 N850 1.356 . S
C853 C847 1.363 . S
C853 C848 1.379 . S
C853 N851 1.356 . S
N854 C846 1.356 . S
N854 H860 0.984 . S
N854 H861 0.984 . S
N855 C848 1.356 . S
N855 H858 0.984 . S
N855 H859 0.985 . S
H856 N851 0.984 . S
H857 N851 0.985 . S
H858 N855 0.984 . S
H859 N855 0.985 . S
H860 N854 0.984 . S
H861 N854 0.984 . S
H862 N850 0.984 . S
H863 N850 0.985 . S
C864 C865 1.363 . S
C864 C870 1.379 . S
C864 N872 1.356 . S
C865 C864 1.363 . S
C865 C871 1.363 . S
C866 C867 1.363 . S
C866 C871 1.379 . S
C866 N873 1.356 . S
C867 C866 1.363 . S
C867 C870 1.363 . S
N868 C870 1.356 . S
N868 H880 0.984 . S
N868 H881 0.985 . S
N869 C871 1.356 . S
N869 H874 0.984 . S
N869 H875 0.985 . S
C870 C864 1.379 . S
C870 C867 1.363 . S
C870 N868 1.356 . S
C871 C865 1.363 . S
C871 C866 1.379 . S
C871 N869 1.356 . S
N872 C864 1.356 . S
N872 H878 0.984 . S
N872 H879 0.984 . S
N873 C866 1.356 . S
N873 H876 0.984 . S
N873 H877 0.985 . S
H874 N869 0.984 . S
H875 N869 0.985 . S
H876 N873 0.984 . S
H877 N873 0.985 . S
H878 N872 0.984 . S
H879 N872 0.984 . S
H880 N868 0.984 . S
H881 N868 0.985 . S
C882 C883 1.363 . S
C882 C888 1.379 . S
C882 N890 1.356 . S
C883 C882 1.363 . S
C883 C889 1.363 . S
C884 C885 1.363 . S
C884 C889 1.379 . S
C884 N891 1.356 . S
C885 C884 1.363 . S
C885 C888 1.363 . S
N886 C888 1.356 . S
N886 H898 0.984 . S
N886 H899 0.985 . S
N887 C889 1.356 . S
N887 H892 0.984 . S
N887 H893 0.985 . S
C888 C882 1.379 . S
C888 C885 1.363 . S
C888 N886 1.356 . S
C889 C883 1.363 . S
C889 C884 1.379 . S
C889 N887 1.356 . S
N890 C882 1.356 . S
N890 H896 0.984 . S
N890 H897 0.984 . S
N891 C884 1.356 . S
N891 H894 0.984 . S
N891 H895 0.985 . S
H892 N887 0.984 . S
H893 N887 0.985 . S
H894 N891 0.984 . S
H895 N891 0.985 . S
H896 N890 0.984 . S
H897 N890 0.984 . S
H898 N886 0.984 . S
H899 N886 0.985 . S
C900 C901 1.363 . S
C900 C906 1.379 . S
C900 N908 1.356 . S
C901 C900 1.363 . S
C901 C907 1.363 . S
C902 C903 1.363 . S
C902 C907 1.379 . S
C902 N909 1.356 . S
C903 C902 1.363 . S
C903 C906 1.363 . S
N904 C906 1.356 . S
N904 H916 0.984 . S
N904 H917 0.985 . S
N905 C907 1.356 . S
N905 H910 0.984 . S
N905 H911 0.985 . S
C906 C900 1.379 . S
C906 C903 1.363 . S
C906 N904 1.356 . S
C907 C901 1.363 . S
C907 C902 1.379 . S
C907 N905 1.356 . S
N908 C900 1.356 . S
N908 H914 0.984 . S
N908 H915 0.984 . S
N909 C902 1.356 . S
N909 H912 0.984 . S
N909 H913 0.985 . S
H910 N905 0.984 . S
H911 N905 0.985 . S
H912 N909 0.984 . S
H913 N909 0.985 . S
H914 N908 0.984 . S
H915 N908 0.984 . S
H916 N904 0.984 . S
H917 N904 0.985 . S
C918 C919 1.363 . S
C918 C924 1.379 . S
C918 N926 1.356 . S
C919 C918 1.363 . S
C919 C925 1.363 . S
C920 C921 1.363 . S
C920 C925 1.379 . S
C920 N927 1.356 . S
C921 C920 1.363 . S
C921 C924 1.363 . S
N922 C924 1.356 . S
N922 H934 0.984 . S
N922 H935 0.985 . S
N923 C925 1.356 . S
N923 H928 0.984 . S
N923 H929 0.985 . S
C924 C918 1.379 . S
C924 C921 1.363 . S
C924 N922 1.356 . S
C925 C919 1.363 . S
C925 C920 1.379 . S
C925 N923 1.356 . S
N926 C918 1.356 . S
N926 H932 0.984 . S
N926 H933 0.984 . S
N927 C920 1.356 . S
N927 H930 0.984 . S
N927 H931 0.985 . S
H928 N923 0.984 . S
H929 N923 0.985 . S
H930 N927 0.984 . S
H931 N927 0.985 . S
H932 N926 0.984 . S
H933 N926 0.984 . S
H934 N922 0.984 . S
H935 N922 0.985 . S
C936 C937 1.363 . S
C936 C942 1.379 . S
C936 N944 1.356 . S
C937 C936 1.363 . S
C937 C943 1.363 . S
C938 C939 1.363 . S
C938 C943 1.379 . S
C938 N945 1.356 . S
C939 C938 1.363 . S
C939 C942 1.363 . S
N940 C942 1.356 . S
N940 H952 0.984 . S
N940 H953 0.985 . S
N941 C943 1.356 . S
N941 H946 0.984 . S
N941 H947 0.985 . S
C942 C936 1.379 . S
C942 C939 1.363 . S
C942 N940 1.356 . S
C943 C937 1.363 . S
C943 C938 1.379 . S
C943 N941 1.356 . S
N944 C936 1.356 . S
N944 H950 0.984 . S
N944 H951 0.984 . S
N945 C938 1.356 . S
N945 H948 0.984 . S
N945 H949 0.985 . S
H946 N941 0.984 . S
H947 N941 0.985 . S
H948 N945 0.984 . S
H949 N945 0.985 . S
H950 N944 0.984 . S
H951 N944 0.984 . S
H952 N940 0.984 . S
H953 N940 0.985 . S
C954 C955 1.363 . S
C954 C960 1.379 . S
C954 N962 1.356 . S
C955 C954 1.363 . S
C955 C961 1.363 . S
C956 C957 1.363 . S
C956 C961 1.379 . S
C956 N963 1.356 . S
C957 C956 1.363 . S
C957 C960 1.363 . S
N958 C960 1.356 . S
N958 H970 0.984 . S
N958 H971 0.985 . S
N959 C961 1.356 . S
N959 H964 0.984 . S
N959 H965 0.985 . S
C960 C954 1.379 . S
C960 C957 1.363 . S
C960 N958 1.356 . S
C961 C955 1.363 . S
C961 C956 1.379 . S
C961 N959 1.356 . S
N962 C954 1.356 . S
N962 H968 0.984 . S
N962 H969 0.984 . S
N963 C956 1.356 . S
N963 H966 0.984 . S
N963 H967 0.985 . S
H964 N959 0.984 . S
H965 N959 0.985 . S
H966 N963 0.984 . S
H967 N963 0.985 . S
H968 N962 0.984 . S
H969 N962 0.984 . S
H970 N958 0.984 . S
H971 N958 0.985 . S
C972 C973 1.363 . S
C972 C978 1.379 . S
C972 N980 1.356 . S
C973 C972 1.363 . S
C973 C979 1.363 . S
C974 C975 1.363 . S
C974 C979 1.379 . S
C974 N981 1.356 . S
C975 C974 1.363 . S
C975 C978 1.363 . S
N976 C978 1.356 . S
N976 H988 0.984 . S
N976 H989 0.985 . S
N977 C979 1.356 . S
N977 H982 0.984 . S
N977 H983 0.985 . S
C978 C972 1.379 . S
C978 C975 1.363 . S
C978 N976 1.356 . S
C979 C973 1.363 . S
C979 C974 1.379 . S
C979 N977 1.356 . S
N980 C972 1.356 . S
N980 H986 0.984 . S
N980 H987 0.984 . S
N981 C974 1.356 . S
N981 H984 0.984 . S
N981 H985 0.985 . S
H982 N977 0.984 . S
H983 N977 0.985 . S
H984 N981 0.984 . S
H985 N981 0.985 . S
H986 N980 0.984 . S
H987 N980 0.984 . S
H988 N976 0.984 . S
H989 N976 0.985 . S
C990 C991 1.363 . S
C990 C996 1.379 . S
C990 N998 1.356 . S
C991 C990 1.363 . S
C991 C997 1.363 . S
C992 C993 1.363 . S
C992 C997 1.379 . S
C992 N999 1.356 . S
C993 C992 1.363 . S
C993 C996 1.363 . S
N994 C996 1.356 . S
N994 H1006 0.984 . S
N994 H1007 0.985 . S
N995 C997 1.356 . S
N995 H1000 0.984 . S
N995 H1001 0.985 . S
C996 C990 1.379 . S
C996 C993 1.363 . S
C996 N994 1.356 . S
C997 C991 1.363 . S
C997 C992 1.379 . S
C997 N995 1.356 . S
N998 C990 1.356 . S
N998 H1004 0.984 . S
N998 H1005 0.984 . S
N999 C992 1.356 . S
N999 H1002 0.984 . S
N999 H1003 0.985 . S
H1000 N995 0.984 . S
H1001 N995 0.985 . S
H1002 N999 0.984 . S
H1003 N999 0.985 . S
H1004 N998 0.984 . S
H1005 N998 0.984 . S
H1006 N994 0.984 . S
H1007 N994 0.985 . S
C1008 C1009 1.363 . S
C1008 C1014 1.379 . S
C1008 N1016 1.356 . S
C1009 C1008 1.363 . S
C1009 C1015 1.363 . S
C1010 C1011 1.363 . S
C1010 C1015 1.379 . S
C1010 N1017 1.356 . S
C1011 C1010 1.363 . S
C1011 C1014 1.363 . S
N1012 C1014 1.356 . S
N1012 H1024 0.984 . S
N1012 H1025 0.985 . S
N1013 C1015 1.356 . S
N1013 H1018 0.984 . S
N1013 H1019 0.985 . S
C1014 C1008 1.379 . S
C1014 C1011 1.363 . S
C1014 N1012 1.356 . S
C1015 C1009 1.363 . S
C1015 C1010 1.379 . S
C1015 N1013 1.356 . S
N1016 C1008 1.356 . S
N1016 H1022 0.984 . S
N1016 H1023 0.984 . S
N1017 C1010 1.356 . S
N1017 H1020 0.984 . S
N1017 H1021 0.985 . S
H1018 N1013 0.984 . S
H1019 N1013 0.985 . S
H1020 N1017 0.984 . S
H1021 N1017 0.985 . S
H1022 N1016 0.984 . S
H1023 N1016 0.984 . S
H1024 N1012 0.984 . S
H1025 N1012 0.985 . S
C1026 C1027 1.363 . S
C1026 C1032 1.379 . S
C1026 N1034 1.356 . S
C1027 C1026 1.363 . S
C1027 C1033 1.363 . S
C1028 C1029 1.363 . S
C1028 C1033 1.379 . S
C1028 N1035 1.356 . S
C1029 C1028 1.363 . S
C1029 C1032 1.363 . S
N1030 C1032 1.356 . S
N1030 H1042 0.984 . S
N1030 H1043 0.985 . S
N1031 C1033 1.356 . S
N1031 H1036 0.984 . S
N1031 H1037 0.985 . S
C1032 C1026 1.379 . S
C1032 C1029 1.363 . S
C1032 N1030 1.356 . S
C1033 C1027 1.363 . S
C1033 C1028 1.379 . S
C1033 N1031 1.356 . S
N1034 C1026 1.356 . S
N1034 H1040 0.984 . S
N1034 H1041 0.984 . S
N1035 C1028 1.356 . S
N1035 H1038 0.984 . S
N1035 H1039 0.985 . S
H1036 N1031 0.984 . S
H1037 N1031 0.985 . S
H1038 N1035 0.984 . S
H1039 N1035 0.985 . S
H1040 N1034 0.984 . S
H1041 N1034 0.984 . S
H1042 N1030 0.984 . S
H1043 N1030 0.985 . S
C1044 C1045 1.363 . S
C1044 C1050 1.379 . S
C1044 N1052 1.356 . S
C1045 C1044 1.363 . S
C1045 C1051 1.363 . S
C1046 C1047 1.363 . S
C1046 C1051 1.379 . S
C1046 N1053 1.356 . S
C1047 C1046 1.363 . S
C1047 C1050 1.363 . S
N1048 C1050 1.356 . S
N1048 H1060 0.984 . S
N1048 H1061 0.985 . S
N1049 C1051 1.356 . S
N1049 H1054 0.984 . S
N1049 H1055 0.985 . S
C1050 C1044 1.379 . S
C1050 C1047 1.363 . S
C1050 N1048 1.356 . S
C1051 C1045 1.363 . S
C1051 C1046 1.379 . S
C1051 N1049 1.356 . S
N1052 C1044 1.356 . S
N1052 H1058 0.984 . S
N1052 H1059 0.984 . S
N1053 C1046 1.356 . S
N1053 H1056 0.984 . S
N1053 H1057 0.985 . S
H1054 N1049 0.984 . S
H1055 N1049 0.985 . S
H1056 N1053 0.984 . S
H1057 N1053 0.985 . S
H1058 N1052 0.984 . S
H1059 N1052 0.984 . S
H1060 N1048 0.984 . S
H1061 N1048 0.985 . S
C1062 C1063 1.363 . S
C1062 C1068 1.379 . S
C1062 N1070 1.356 . S
C1063 C1062 1.363 . S
C1063 C1069 1.363 . S
C1064 C1065 1.363 . S
C1064 C1069 1.379 . S
C1064 N1071 1.356 . S
C1065 C1064 1.363 . S
C1065 C1068 1.363 . S
N1066 C1068 1.356 . S
N1066 H1078 0.984 . S
N1066 H1079 0.985 . S
N1067 C1069 1.356 . S
N1067 H1072 0.984 . S
N1067 H1073 0.985 . S
C1068 C1062 1.379 . S
C1068 C1065 1.363 . S
C1068 N1066 1.356 . S
C1069 C1063 1.363 . S
C1069 C1064 1.379 . S
C1069 N1067 1.356 . S
N1070 C1062 1.356 . S
N1070 H1076 0.984 . S
N1070 H1077 0.984 . S
N1071 C1064 1.356 . S
N1071 H1074 0.984 . S
N1071 H1075 0.985 . S
H1072 N1067 0.984 . S
H1073 N1067 0.985 . S
H1074 N1071 0.984 . S
H1075 N1071 0.985 . S
H1076 N1070 0.984 . S
H1077 N1070 0.984 . S
H1078 N1066 0.984 . S
H1079 N1066 0.985 . S
C1080 C1081 1.363 . S
C1080 C1086 1.379 . S
C1080 N1088 1.356 . S
C1081 C1080 1.363 . S
C1081 C1087 1.363 . S
C1082 C1083 1.363 . S
C1082 C1087 1.379 . S
C1082 N1089 1.356 . S
C1083 C1082 1.363 . S
C1083 C1086 1.363 . S
N1084 C1086 1.356 . S
N1084 H1096 0.984 . S
N1084 H1097 0.985 . S
N1085 C1087 1.356 . S
N1085 H1090 0.984 . S
N1085 H1091 0.985 . S
C1086 C1080 1.379 . S
C1086 C1083 1.363 . S
C1086 N1084 1.356 . S
C1087 C1081 1.363 . S
C1087 C1082 1.379 . S
C1087 N1085 1.356 . S
N1088 C1080 1.356 . S
N1088 H1094 0.984 . S
N1088 H1095 0.984 . S
N1089 C1082 1.356 . S
N1089 H1092 0.984 . S
N1089 H1093 0.985 . S
H1090 N1085 0.984 . S
H1091 N1085 0.985 . S
H1092 N1089 0.984 . S
H1093 N1089 0.985 . S
H1094 N1088 0.984 . S
H1095 N1088 0.984 . S
H1096 N1084 0.984 . S
H1097 N1084 0.985 . S
C1098 C1099 1.363 . S
C1098 C1104 1.379 . S
C1098 N1106 1.356 . S
C1099 C1098 1.363 . S
C1099 C1105 1.363 . S
C1100 C1101 1.363 . S
C1100 C1105 1.379 . S
C1100 N1107 1.356 . S
C1101 C1100 1.363 . S
C1101 C1104 1.363 . S
N1102 C1104 1.356 . S
N1102 H1114 0.984 . S
N1102 H1115 0.985 . S
N1103 C1105 1.356 . S
N1103 H1108 0.984 . S
N1103 H1109 0.985 . S
C1104 C1098 1.379 . S
C1104 C1101 1.363 . S
C1104 N1102 1.356 . S
C1105 C1099 1.363 . S
C1105 C1100 1.379 . S
C1105 N1103 1.356 . S
N1106 C1098 1.356 . S
N1106 H1112 0.984 . S
N1106 H1113 0.984 . S
N1107 C1100 1.356 . S
N1107 H1110 0.984 . S
N1107 H1111 0.985 . S
H1108 N1103 0.984 . S
H1109 N1103 0.985 . S
H1110 N1107 0.984 . S
H1111 N1107 0.985 . S
H1112 N1106 0.984 . S
H1113 N1106 0.984 . S
H1114 N1102 0.984 . S
H1115 N1102 0.985 . S
C1116 C1117 1.363 . S
C1116 C1122 1.379 . S
C1116 N1124 1.356 . S
C1117 C1116 1.363 . S
C1117 C1123 1.363 . S
C1118 C1119 1.363 . S
C1118 C1123 1.379 . S
C1118 N1125 1.356 . S
C1119 C1118 1.363 . S
C1119 C1122 1.363 . S
N1120 C1122 1.356 . S
N1120 H1132 0.984 . S
N1120 H1133 0.985 . S
N1121 C1123 1.356 . S
N1121 H1126 0.984 . S
N1121 H1127 0.985 . S
C1122 C1116 1.379 . S
C1122 C1119 1.363 . S
C1122 N1120 1.356 . S
C1123 C1117 1.363 . S
C1123 C1118 1.379 . S
C1123 N1121 1.356 . S
N1124 C1116 1.356 . S
N1124 H1130 0.984 . S
N1124 H1131 0.984 . S
N1125 C1118 1.356 . S
N1125 H1128 0.984 . S
N1125 H1129 0.985 . S
H1126 N1121 0.984 . S
H1127 N1121 0.985 . S
H1128 N1125 0.984 . S
H1129 N1125 0.985 . S
H1130 N1124 0.984 . S
H1131 N1124 0.984 . S
H1132 N1120 0.984 . S
H1133 N1120 0.985 . S
C1134 C1135 1.363 . S
C1134 C1140 1.379 . S
C1134 N1142 1.356 . S
C1135 C1134 1.363 . S
C1135 C1141 1.363 . S
C1136 C1137 1.363 . S
C1136 C1141 1.379 . S
C1136 N1143 1.356 . S
C1137 C1136 1.363 . S
C1137 C1140 1.363 . S
N1138 C1140 1.356 . S
N1138 H1150 0.984 . S
N1138 H1151 0.985 . S
N1139 C1141 1.356 . S
N1139 H1144 0.984 . S
N1139 H1145 0.985 . S
C1140 C1134 1.379 . S
C1140 C1137 1.363 . S
C1140 N1138 1.356 . S
C1141 C1135 1.363 . S
C1141 C1136 1.379 . S
C1141 N1139 1.356 . S
N1142 C1134 1.356 . S
N1142 H1148 0.984 . S
N1142 H1149 0.984 . S
N1143 C1136 1.356 . S
N1143 H1146 0.984 . S
N1143 H1147 0.985 . S
H1144 N1139 0.984 . S
H1145 N1139 0.985 . S
H1146 N1143 0.984 . S
H1147 N1143 0.985 . S
H1148 N1142 0.984 . S
H1149 N1142 0.984 . S
H1150 N1138 0.984 . S
H1151 N1138 0.985 . S
C1152 C1153 1.363 . S
C1152 C1158 1.379 . S
C1152 N1160 1.356 . S
C1153 C1152 1.363 . S
C1153 C1159 1.363 . S
C1154 C1155 1.363 . S
C1154 C1159 1.379 . S
C1154 N1161 1.356 . S
C1155 C1154 1.363 . S
C1155 C1158 1.363 . S
N1156 C1158 1.356 . S
N1156 H1168 0.984 . S
N1156 H1169 0.985 . S
N1157 C1159 1.356 . S
N1157 H1162 0.984 . S
N1157 H1163 0.985 . S
C1158 C1152 1.379 . S
C1158 C1155 1.363 . S
C1158 N1156 1.356 . S
C1159 C1153 1.363 . S
C1159 C1154 1.379 . S
C1159 N1157 1.356 . S
N1160 C1152 1.356 . S
N1160 H1166 0.984 . S
N1160 H1167 0.984 . S
N1161 C1154 1.356 . S
N1161 H1164 0.984 . S
N1161 H1165 0.985 . S
H1162 N1157 0.984 . S
H1163 N1157 0.985 . S
H1164 N1161 0.984 . S
H1165 N1161 0.985 . S
H1166 N1160 0.984 . S
H1167 N1160 0.984 . S
H1168 N1156 0.984 . S
H1169 N1156 0.985 . S
C1170 C1171 1.363 . S
C1170 C1176 1.379 . S
C1170 N1178 1.356 . S
C1171 C1170 1.363 . S
C1171 C1177 1.363 . S
C1172 C1173 1.363 . S
C1172 C1177 1.379 . S
C1172 N1179 1.356 . S
C1173 C1172 1.363 . S
C1173 C1176 1.363 . S
N1174 C1176 1.356 . S
N1174 H1186 0.984 . S
N1174 H1187 0.985 . S
N1175 C1177 1.356 . S
N1175 H1180 0.984 . S
N1175 H1181 0.985 . S
C1176 C1170 1.379 . S
C1176 C1173 1.363 . S
C1176 N1174 1.356 . S
C1177 C1171 1.363 . S
C1177 C1172 1.379 . S
C1177 N1175 1.356 . S
N1178 C1170 1.356 . S
N1178 H1184 0.984 . S
N1178 H1185 0.984 . S
N1179 C1172 1.356 . S
N1179 H1182 0.984 . S
N1179 H1183 0.985 . S
H1180 N1175 0.984 . S
H1181 N1175 0.985 . S
H1182 N1179 0.984 . S
H1183 N1179 0.985 . S
H1184 N1178 0.984 . S
H1185 N1178 0.984 . S
H1186 N1174 0.984 . S
H1187 N1174 0.985 . S
C1188 C1189 1.363 . S
C1188 C1194 1.379 . S
C1188 N1196 1.356 . S
C1189 C1188 1.363 . S
C1189 C1195 1.363 . S
C1190 C1191 1.363 . S
C1190 C1195 1.379 . S
C1190 N1197 1.356 . S
C1191 C1190 1.363 . S
C1191 C1194 1.363 . S
N1192 C1194 1.356 . S
N1192 H1204 0.984 . S
N1192 H1205 0.985 . S
N1193 C1195 1.356 . S
N1193 H1198 0.984 . S
N1193 H1199 0.985 . S
C1194 C1188 1.379 . S
C1194 C1191 1.363 . S
C1194 N1192 1.356 . S
C1195 C1189 1.363 . S
C1195 C1190 1.379 . S
C1195 N1193 1.356 . S
N1196 C1188 1.356 . S
N1196 H1202 0.984 . S
N1196 H1203 0.984 . S
N1197 C1190 1.356 . S
N1197 H1200 0.984 . S
N1197 H1201 0.985 . S
H1198 N1193 0.984 . S
H1199 N1193 0.985 . S
H1200 N1197 0.984 . S
H1201 N1197 0.985 . S
H1202 N1196 0.984 . S
H1203 N1196 0.984 . S
H1204 N1192 0.984 . S
H1205 N1192 0.985 . S
C1206 C1207 1.363 . S
C1206 C1212 1.379 . S
C1206 N1214 1.356 . S
C1207 C1206 1.363 . S
C1207 C1213 1.363 . S
C1208 C1209 1.363 . S
C1208 C1213 1.379 . S
C1208 N1215 1.356 . S
C1209 C1208 1.363 . S
C1209 C1212 1.363 . S
N1210 C1212 1.356 . S
N1210 H1222 0.984 . S
N1210 H1223 0.985 . S
N1211 C1213 1.356 . S
N1211 H1216 0.984 . S
N1211 H1217 0.985 . S
C1212 C1206 1.379 . S
C1212 C1209 1.363 . S
C1212 N1210 1.356 . S
C1213 C1207 1.363 . S
C1213 C1208 1.379 . S
C1213 N1211 1.356 . S
N1214 C1206 1.356 . S
N1214 H1220 0.984 . S
N1214 H1221 0.984 . S
N1215 C1208 1.356 . S
N1215 H1218 0.984 . S
N1215 H1219 0.985 . S
H1216 N1211 0.984 . S
H1217 N1211 0.985 . S
H1218 N1215 0.984 . S
H1219 N1215 0.985 . S
H1220 N1214 0.984 . S
H1221 N1214 0.984 . S
H1222 N1210 0.984 . S
H1223 N1210 0.985 . S
C1224 C1225 1.363 . S
C1224 C1230 1.379 . S
C1224 N1232 1.356 . S
C1225 C1224 1.363 . S
C1225 C1231 1.363 . S
C1226 C1227 1.363 . S
C1226 C1231 1.379 . S
C1226 N1233 1.356 . S
C1227 C1226 1.363 . S
C1227 C1230 1.363 . S
N1228 C1230 1.356 . S
N1228 H1240 0.984 . S
N1228 H1241 0.985 . S
N1229 C1231 1.356 . S
N1229 H1234 0.984 . S
N1229 H1235 0.985 . S
C1230 C1224 1.379 . S
C1230 C1227 1.363 . S
C1230 N1228 1.356 . S
C1231 C1225 1.363 . S
C1231 C1226 1.379 . S
C1231 N1229 1.356 . S
N1232 C1224 1.356 . S
N1232 H1238 0.984 . S
N1232 H1239 0.984 . S
N1233 C1226 1.356 . S
N1233 H1236 0.984 . S
N1233 H1237 0.985 . S
H1234 N1229 0.984 . S
H1235 N1229 0.985 . S
H1236 N1233 0.984 . S
H1237 N1233 0.985 . S
H1238 N1232 0.984 . S
H1239 N1232 0.984 . S
H1240 N1228 0.984 . S
H1241 N1228 0.985 . S
C1242 C1243 1.363 . S
C1242 C1248 1.379 . S
C1242 N1250 1.356 . S
C1243 C1242 1.363 . S
C1243 C1249 1.363 . S
C1244 C1245 1.363 . S
C1244 C1249 1.379 . S
C1244 N1251 1.356 . S
C1245 C1244 1.363 . S
C1245 C1248 1.363 . S
N1246 C1248 1.356 . S
N1246 H1258 0.984 . S
N1246 H1259 0.985 . S
N1247 C1249 1.356 . S
N1247 H1252 0.984 . S
N1247 H1253 0.985 . S
C1248 C1242 1.379 . S
C1248 C1245 1.363 . S
C1248 N1246 1.356 . S
C1249 C1243 1.363 . S
C1249 C1244 1.379 . S
C1249 N1247 1.356 . S
N1250 C1242 1.356 . S
N1250 H1256 0.984 . S
N1250 H1257 0.984 . S
N1251 C1244 1.356 . S
N1251 H1254 0.984 . S
N1251 H1255 0.985 . S
H1252 N1247 0.984 . S
H1253 N1247 0.985 . S
H1254 N1251 0.984 . S
H1255 N1251 0.985 . S
H1256 N1250 0.984 . S
H1257 N1250 0.984 . S
H1258 N1246 0.984 . S
H1259 N1246 0.985 . S
C1260 C1261 1.363 . S
C1260 C1266 1.379 . S
C1260 N1268 1.356 . S
C1261 C1260 1.363 . S
C1261 C1267 1.363 . S
C1262 C1263 1.363 . S
C1262 C1267 1.379 . S
C1262 N1269 1.356 . S
C1263 C1262 1.363 . S
C1263 C1266 1.363 . S
N1264 C1266 1.356 . S
N1264 H1276 0.984 . S
N1264 H1277 0.985 . S
N1265 C1267 1.356 . S
N1265 H1270 0.984 . S
N1265 H1271 0.985 . S
C1266 C1260 1.379 . S
C1266 C1263 1.363 . S
C1266 N1264 1.356 . S
C1267 C1261 1.363 . S
C1267 C1262 1.379 . S
C1267 N1265 1.356 . S
N1268 C1260 1.356 . S
N1268 H1274 0.984 . S
N1268 H1275 0.984 . S
N1269 C1262 1.356 . S
N1269 H1272 0.984 . S
N1269 H1273 0.985 . S
H1270 N1265 0.984 . S
H1271 N1265 0.985 . S
H1272 N1269 0.984 . S
H1273 N1269 0.985 . S
H1274 N1268 0.984 . S
H1275 N1268 0.984 . S
H1276 N1264 0.984 . S
H1277 N1264 0.985 . S
C1278 C1279 1.363 . S
C1278 C1284 1.379 . S
C1278 N1286 1.356 1_554 S
C1279 C1278 1.363 . S
C1279 C1285 1.363 . S
C1280 C1281 1.363 . S
C1280 C1285 1.379 . S
C1280 N1287 1.356 . S
C1281 C1280 1.363 . S
C1281 C1284 1.363 . S
N1282 C1284 1.356 . S
N1282 H1294 0.984 . S
N1282 H1295 0.985 . S
N1283 C1285 1.356 . S
N1283 H1288 0.984 . S
N1283 H1289 0.985 . S
C1284 C1278 1.379 . S
C1284 C1281 1.363 . S
C1284 N1282 1.356 . S
C1285 C1279 1.363 . S
C1285 C1280 1.379 . S
C1285 N1283 1.356 . S
N1286 C1278 1.356 1_556 S
N1286 H1292 0.984 . S
N1286 H1293 0.984 . S
N1287 C1280 1.356 . S
N1287 H1290 0.984 . S
N1287 H1291 0.985 . S
H1288 N1283 0.984 . S
H1289 N1283 0.985 . S
H1290 N1287 0.984 . S
H1291 N1287 0.985 . S
H1292 N1286 0.984 . S
H1293 N1286 0.984 . S
H1294 N1282 0.984 . S
H1295 N1282 0.985 . S
C1296 C1297 1.363 . S
C1296 C1302 1.379 . S
C1296 N1304 1.356 . S
C1297 C1296 1.363 . S
C1297 C1303 1.363 . S
C1298 C1299 1.363 . S
C1298 C1303 1.379 . S
C1298 N1305 1.356 . S
C1299 C1298 1.363 . S
C1299 C1302 1.363 . S
N1300 C1302 1.356 . S
N1300 H1312 0.984 . S
N1300 H1313 0.985 . S
N1301 C1303 1.356 . S
N1301 H1306 0.984 . S
N1301 H1307 0.985 . S
C1302 C1296 1.379 . S
C1302 C1299 1.363 . S
C1302 N1300 1.356 . S
C1303 C1297 1.363 . S
C1303 C1298 1.379 . S
C1303 N1301 1.356 . S
N1304 C1296 1.356 . S
N1304 H1310 0.984 1_554 S
N1304 H1311 0.984 . S
N1305 C1298 1.356 . S
N1305 H1308 0.984 . S
N1305 H1309 0.985 . S
H1306 N1301 0.984 . S
H1307 N1301 0.985 . S
H1308 N1305 0.984 . S
H1309 N1305 0.985 . S
H1310 N1304 0.984 1_556 S
H1311 N1304 0.984 . S
H1312 N1300 0.984 . S
H1313 N1300 0.985 . S
C1314 C1315 1.363 . S
C1314 C1320 1.379 . S
C1314 N1322 1.356 . S
C1315 C1314 1.363 . S
C1315 C1321 1.363 . S
C1316 C1317 1.363 . S
C1316 C1321 1.379 . S
C1316 N1323 1.356 . S
C1317 C1316 1.363 . S
C1317 C1320 1.363 . S
N1318 C1320 1.356 . S
N1318 H1330 0.984 . S
N1318 H1331 0.985 . S
N1319 C1321 1.356 1_556 S
N1319 H1324 0.984 . S
N1319 H1325 0.985 . S
C1320 C1314 1.379 . S
C1320 C1317 1.363 . S
C1320 N1318 1.356 . S
C1321 C1315 1.363 . S
C1321 C1316 1.379 . S
C1321 N1319 1.356 1_554 S
N1322 C1314 1.356 . S
N1322 H1328 0.984 . S
N1322 H1329 0.984 . S
N1323 C1316 1.356 . S
N1323 H1326 0.984 . S
N1323 H1327 0.985 . S
H1324 N1319 0.984 . S
H1325 N1319 0.985 . S
H1326 N1323 0.984 . S
H1327 N1323 0.985 . S
H1328 N1322 0.984 . S
H1329 N1322 0.984 . S
H1330 N1318 0.984 . S
H1331 N1318 0.985 . S
C1332 C1333 1.363 . S
C1332 C1338 1.379 . S
C1332 N1340 1.356 . S
C1333 C1332 1.363 . S
C1333 C1339 1.363 . S
C1334 C1335 1.363 . S
C1334 C1339 1.379 . S
C1334 N1341 1.356 . S
C1335 C1334 1.363 . S
C1335 C1338 1.363 . S
N1336 C1338 1.356 . S
N1336 H1348 0.984 . S
N1336 H1349 0.985 . S
N1337 C1339 1.356 . S
N1337 H1342 0.984 1_556 S
N1337 H1343 0.985 . S
C1338 C1332 1.379 . S
C1338 C1335 1.363 . S
C1338 N1336 1.356 . S
C1339 C1333 1.363 . S
C1339 C1334 1.379 . S
C1339 N1337 1.356 . S
N1340 C1332 1.356 . S
N1340 H1346 0.984 . S
N1340 H1347 0.984 . S
N1341 C1334 1.356 . S
N1341 H1344 0.984 . S
N1341 H1345 0.985 . S
H1342 N1337 0.984 1_554 S
H1343 N1337 0.985 . S
H1344 N1341 0.984 . S
H1345 N1341 0.985 . S
H1346 N1340 0.984 . S
H1347 N1340 0.984 . S
H1348 N1336 0.984 . S
H1349 N1336 0.985 . S
C1350 C1351 1.363 1_554 S
C1350 C1356 1.379 1_554 S
C1350 N1358 1.356 . S
C1351 C1350 1.363 1_556 S
C1351 C1357 1.363 . S
C1352 C1353 1.363 . S
C1352 C1357 1.379 . S
C1352 N1359 1.356 . S
C1353 C1352 1.363 . S
C1353 C1356 1.363 . S
N1354 C1356 1.356 1_554 S
N1354 H1366 0.984 . S
N1354 H1367 0.985 1_554 S
N1355 C1357 1.356 . S
N1355 H1360 0.984 . S
N1355 H1361 0.985 . S
C1356 C1350 1.379 1_556 S
C1356 C1353 1.363 . S
C1356 N1354 1.356 1_556 S
C1357 C1351 1.363 . S
C1357 C1352 1.379 . S
C1357 N1355 1.356 . S
N1358 C1350 1.356 . S
N1358 H1364 0.984 . S
N1358 H1365 0.984 . S
N1359 C1352 1.356 . S
N1359 H1362 0.984 . S
N1359 H1363 0.985 . S
H1360 N1355 0.984 . S
H1361 N1355 0.985 . S
H1362 N1359 0.984 . S
H1363 N1359 0.985 . S
H1364 N1358 0.984 . S
H1365 N1358 0.984 . S
H1366 N1354 0.984 . S
H1367 N1354 0.985 1_556 S
C1368 C1369 1.363 . S
C1368 C1374 1.379 . S
C1368 N1376 1.356 1_556 S
C1369 C1368 1.363 . S
C1369 C1375 1.363 . S
C1370 C1371 1.363 . S
C1370 C1375 1.379 . S
C1370 N1377 1.356 . S
C1371 C1370 1.363 . S
C1371 C1374 1.363 . S
N1372 C1374 1.356 . S
N1372 H1384 0.984 . S
N1372 H1385 0.985 . S
N1373 C1375 1.356 . S
N1373 H1378 0.984 . S
N1373 H1379 0.985 . S
C1374 C1368 1.379 . S
C1374 C1371 1.363 . S
C1374 N1372 1.356 . S
C1375 C1369 1.363 . S
C1375 C1370 1.379 . S
C1375 N1373 1.356 . S
N1376 C1368 1.356 1_554 S
N1376 H1382 0.984 . S
N1376 H1383 0.984 . S
N1377 C1370 1.356 . S
N1377 H1380 0.984 . S
N1377 H1381 0.985 . S
H1378 N1373 0.984 . S
H1379 N1373 0.985 . S
H1380 N1377 0.984 . S
H1381 N1377 0.985 . S
H1382 N1376 0.984 . S
H1383 N1376 0.984 . S
H1384 N1372 0.984 . S
H1385 N1372 0.985 . S
C1386 C1387 1.363 . S
C1386 C1392 1.379 . S
C1386 N1394 1.356 . S
C1387 C1386 1.363 . S
C1387 C1393 1.363 . S
C1388 C1389 1.363 . S
C1388 C1393 1.379 . S
C1388 N1395 1.356 . S
C1389 C1388 1.363 . S
C1389 C1392 1.363 . S
N1390 C1392 1.356 . S
N1390 H1402 0.984 . S
N1390 H1403 0.985 . S
N1391 C1393 1.356 1_554 S
N1391 H1396 0.984 . S
N1391 H1397 0.985 . S
C1392 C1386 1.379 . S
C1392 C1389 1.363 . S
C1392 N1390 1.356 . S
C1393 C1387 1.363 . S
C1393 C1388 1.379 . S
C1393 N1391 1.356 1_556 S
N1394 C1386 1.356 . S
N1394 H1400 0.984 . S
N1394 H1401 0.984 . S
N1395 C1388 1.356 . S
N1395 H1398 0.984 . S
N1395 H1399 0.985 1_556 S
H1396 N1391 0.984 . S
H1397 N1391 0.985 . S
H1398 N1395 0.984 . S
H1399 N1395 0.985 1_554 S
H1400 N1394 0.984 . S
H1401 N1394 0.984 . S
H1402 N1390 0.984 . S
H1403 N1390 0.985 . S
C1404 C1405 1.363 . S
C1404 C1410 1.379 . S
C1404 N1412 1.356 . S
C1405 C1404 1.363 . S
C1405 C1411 1.345 1_556 S
C1406 C1407 1.363 . S
C1406 C1411 1.371 1_556 S
C1406 N1413 1.356 1_556 S
C1407 C1406 1.363 . S
C1407 C1410 1.363 . S
N1408 C1410 1.356 . S
N1408 H1420 0.984 . S
N1408 H1421 0.985 . S
N1409 C1411 1.381 . S
N1409 H1414 0.984 . S
N1409 H1415 0.985 . S
C1410 C1404 1.379 . S
C1410 C1407 1.363 . S
C1410 N1408 1.356 . S
C1411 C1405 1.345 1_554 S
C1411 C1406 1.371 1_554 S
C1411 N1409 1.381 . S
N1412 C1404 1.356 . S
N1412 H1418 0.984 . S
N1412 H1419 0.984 . S
N1413 C1406 1.356 1_554 S
N1413 H1416 0.984 1_554 S
N1413 H1417 0.985 . S
H1414 N1409 0.984 . S
H1415 N1409 0.985 . S
H1416 N1413 0.984 1_556 S
H1417 N1413 0.985 . S
H1418 N1412 0.984 . S
H1419 N1412 0.984 . S
H1420 N1408 0.984 . S
H1421 N1408 0.985 . S
C1422 C1423 1.363 . S
C1422 C1428 1.379 . S
C1422 N1430 1.356 . S
C1423 C1422 1.363 . S
C1423 C1429 1.363 . S
C1424 C1425 1.363 . S
C1424 C1429 1.379 . S
C1424 N1431 1.356 . S
C1425 C1424 1.363 . S
C1425 C1428 1.363 . S
N1426 C1428 1.356 . S
N1426 H1438 0.984 . S
N1426 H1439 0.985 . S
N1427 C1429 1.356 . S
N1427 H1432 0.989 . S
N1427 H1433 0.985 . S
C1428 C1422 1.379 . S
C1428 C1425 1.363 . S
C1428 N1426 1.356 . S
C1429 C1423 1.363 . S
C1429 C1424 1.379 . S
C1429 N1427 1.356 . S
N1430 C1422 1.356 . S
N1430 H1436 0.984 . S
N1430 H1437 0.984 . S
N1431 C1424 1.356 . S
N1431 H1434 0.984 . S
N1431 H1435 0.985 . S
H1432 N1427 0.989 . S
H1433 N1427 0.985 . S
H1434 N1431 0.984 . S
H1435 N1431 0.985 . S
H1436 N1430 0.984 . S
H1437 N1430 0.984 . S
H1438 N1426 0.984 . S
H1439 N1426 0.985 . S
C1440 C1441 1.363 . S
C1440 C1446 1.379 . S
C1440 N1448 1.356 . S
C1441 C1440 1.363 . S
C1441 C1447 1.363 . S
C1442 C1443 1.363 . S
C1442 C1447 1.379 . S
C1442 N1449 1.356 . S
C1443 C1442 1.363 . S
C1443 C1446 1.363 . S
N1444 C1446 1.356 . S
N1444 H1456 0.984 . S
N1444 H1457 0.985 . S
N1445 C1447 1.356 . S
N1445 H1450 0.984 . S
N1445 H1451 0.985 . S
C1446 C1440 1.379 . S
C1446 C1443 1.363 . S
C1446 N1444 1.356 . S
C1447 C1441 1.363 . S
C1447 C1442 1.379 . S
C1447 N1445 1.356 . S
N1448 C1440 1.356 . S
N1448 H1454 0.984 . S
N1448 H1455 0.984 . S
N1449 C1442 1.356 . S
N1449 H1452 0.984 . S
N1449 H1453 0.985 . S
H1450 N1445 0.984 . S
H1451 N1445 0.985 . S
H1452 N1449 0.984 . S
H1453 N1449 0.985 . S
H1454 N1448 0.984 . S
H1455 N1448 0.984 . S
H1456 N1444 0.984 . S
H1457 N1444 0.985 . S
C1458 C1459 1.363 . S
C1458 C1464 1.379 . S
C1458 N1466 1.356 . S
C1459 C1458 1.363 . S
C1459 C1465 1.363 . S
C1460 C1461 1.363 . S
C1460 C1465 1.379 . S
C1460 N1467 1.356 . S
C1461 C1460 1.363 . S
C1461 C1464 1.363 . S
N1462 C1464 1.356 . S
N1462 H1474 0.984 . S
N1462 H1475 0.985 . S
N1463 C1465 1.356 1_556 S
N1463 H1468 0.984 . S
N1463 H1469 0.985 . S
C1464 C1458 1.379 . S
C1464 C1461 1.363 . S
C1464 N1462 1.356 . S
C1465 C1459 1.363 . S
C1465 C1460 1.379 . S
C1465 N1463 1.356 1_554 S
N1466 C1458 1.356 . S
N1466 H1472 0.984 . S
N1466 H1473 0.984 . S
N1467 C1460 1.356 . S
N1467 H1470 0.984 . S
N1467 H1471 0.985 . S
H1468 N1463 0.984 . S
H1469 N1463 0.985 . S
H1470 N1467 0.984 . S
H1471 N1467 0.985 . S
H1472 N1466 0.984 . S
H1473 N1466 0.984 . S
H1474 N1462 0.984 . S
H1475 N1462 0.985 . S
C1476 C1477 1.363 . S
C1476 C1482 1.379 . S
C1476 N1484 1.356 . S
C1477 C1476 1.363 . S
C1477 C1483 1.363 . S
C1478 C1479 1.363 . S
C1478 C1483 1.379 . S
C1478 N1485 1.356 . S
C1479 C1478 1.363 . S
C1479 C1482 1.363 . S
N1480 C1482 1.356 . S
N1480 H1492 0.984 . S
N1480 H1493 0.985 . S
N1481 C1483 1.356 . S
N1481 H1486 0.984 . S
N1481 H1487 0.985 1_554 S
C1482 C1476 1.379 . S
C1482 C1479 1.363 . S
C1482 N1480 1.356 . S
C1483 C1477 1.363 . S
C1483 C1478 1.379 . S
C1483 N1481 1.356 . S
N1484 C1476 1.356 . S
N1484 H1490 0.984 . S
N1484 H1491 0.984 . S
N1485 C1478 1.356 . S
N1485 H1488 0.984 . S
N1485 H1489 0.985 . S
H1486 N1481 0.984 . S
H1487 N1481 0.985 1_556 S
H1488 N1485 0.984 . S
H1489 N1485 0.985 . S
H1490 N1484 0.984 . S
H1491 N1484 0.984 . S
H1492 N1480 0.984 . S
H1493 N1480 0.985 . S
C1494 C1495 1.363 . S
C1494 C1500 1.379 . S
C1494 N1502 1.356 . S
C1495 C1494 1.363 . S
C1495 C1501 1.363 . S
C1496 C1497 1.363 . S
C1496 C1501 1.379 . S
C1496 N1503 1.356 . S
C1497 C1496 1.363 . S
C1497 C1500 1.363 . S
N1498 C1500 1.356 . S
N1498 H1510 0.984 . S
N1498 H1511 0.985 . S
N1499 C1501 1.356 . S
N1499 H1504 0.984 . S
N1499 H1505 0.985 . S
C1500 C1494 1.379 . S
C1500 C1497 1.363 . S
C1500 N1498 1.356 . S
C1501 C1495 1.363 . S
C1501 C1496 1.379 . S
C1501 N1499 1.356 . S
N1502 C1494 1.356 . S
N1502 H1508 0.984 . S
N1502 H1509 0.984 . S
N1503 C1496 1.356 . S
N1503 H1506 0.984 . S
N1503 H1507 0.985 . S
H1504 N1499 0.984 . S
H1505 N1499 0.985 . S
H1506 N1503 0.984 . S
H1507 N1503 0.985 . S
H1508 N1502 0.984 . S
H1509 N1502 0.984 . S
H1510 N1498 0.984 . S
H1511 N1498 0.985 . S
C1512 C1513 1.363 . S
C1512 C1518 1.379 . S
C1512 N1520 1.356 . S
C1513 C1512 1.363 . S
C1513 C1519 1.363 . S
C1514 C1515 1.363 . S
C1514 C1519 1.379 . S
C1514 N1521 1.356 . S
C1515 C1514 1.363 . S
C1515 C1518 1.363 . S
N1516 C1518 1.356 . S
N1516 H1528 0.984 . S
N1516 H1529 0.985 . S
N1517 C1519 1.356 . S
N1517 H1522 0.984 . S
N1517 H1523 0.985 . S
C1518 C1512 1.379 . S
C1518 C1515 1.363 . S
C1518 N1516 1.356 . S
C1519 C1513 1.363 . S
C1519 C1514 1.379 . S
C1519 N1517 1.356 . S
N1520 C1512 1.356 . S
N1520 H1526 0.984 . S
N1520 H1527 0.984 . S
N1521 C1514 1.356 . S
N1521 H1524 0.984 . S
N1521 H1525 0.985 . S
H1522 N1517 0.984 . S
H1523 N1517 0.985 . S
H1524 N1521 0.984 . S
H1525 N1521 0.985 . S
H1526 N1520 0.984 . S
H1527 N1520 0.984 . S
H1528 N1516 0.984 . S
H1529 N1516 0.985 . S
C1530 C1531 1.363 . S
C1530 C1536 1.379 . S
C1530 N1538 1.356 . S
C1531 C1530 1.363 . S
C1531 C1537 1.363 . S
C1532 C1533 1.363 . S
C1532 C1537 1.379 . S
C1532 N1539 1.356 . S
C1533 C1532 1.363 . S
C1533 C1536 1.363 . S
N1534 C1536 1.356 . S
N1534 H1546 0.984 . S
N1534 H1547 0.985 . S
N1535 C1537 1.356 . S
N1535 H1540 0.984 . S
N1535 H1541 0.985 . S
C1536 C1530 1.379 . S
C1536 C1533 1.363 . S
C1536 N1534 1.356 . S
C1537 C1531 1.363 . S
C1537 C1532 1.379 . S
C1537 N1535 1.356 . S
N1538 C1530 1.356 . S
N1538 H1544 0.984 . S
N1538 H1545 0.984 . S
N1539 C1532 1.356 . S
N1539 H1542 0.984 . S
N1539 H1543 0.985 . S
H1540 N1535 0.984 . S
H1541 N1535 0.985 . S
H1542 N1539 0.984 . S
H1543 N1539 0.985 . S
H1544 N1538 0.984 . S
H1545 N1538 0.984 . S
H1546 N1534 0.984 . S
H1547 N1534 0.985 . S
C1548 C1549 1.363 . S
C1548 C1554 1.379 . S
C1548 N1556 1.356 . S
C1549 C1548 1.363 . S
C1549 C1555 1.363 . S
C1550 C1551 1.363 1_655 S
C1550 C1555 1.379 1_655 S
C1550 N1557 1.356 . S
C1551 C1550 1.363 1_455 S
C1551 C1554 1.363 . S
N1552 C1554 1.356 . S
N1552 H1564 0.984 . S
N1552 H1565 0.985 . S
N1553 C1555 1.356 1_655 S
N1553 H1558 0.984 1_655 S
N1553 H1559 0.985 . S
C1554 C1548 1.379 . S
C1554 C1551 1.363 . S
C1554 N1552 1.356 . S
C1555 C1549 1.363 . S
C1555 C1550 1.379 1_455 S
C1555 N1553 1.356 1_455 S
N1556 C1548 1.356 . S
N1556 H1562 0.984 . S
N1556 H1563 0.984 . S
N1557 C1550 1.356 . S
N1557 H1560 0.984 . S
N1557 H1561 0.985 . S
H1558 N1553 0.984 1_455 S
H1559 N1553 0.985 . S
H1560 N1557 0.984 . S
H1561 N1557 0.985 . S
H1562 N1556 0.984 . S
H1563 N1556 0.984 . S
H1564 N1552 0.984 . S
H1565 N1552 0.985 . S
C1566 C1567 1.363 . S
C1566 C1572 1.379 . S
C1566 N1574 1.356 . S
C1567 C1566 1.363 . S
C1567 C1573 1.363 . S
C1568 C1569 1.363 . S
C1568 C1573 1.379 . S
C1568 N1575 1.356 . S
C1569 C1568 1.363 . S
C1569 C1572 1.363 . S
N1570 C1572 1.356 . S
N1570 H1582 0.984 . S
N1570 H1583 0.985 . S
N1571 C1573 1.356 . S
N1571 H1576 0.984 . S
N1571 H1577 0.985 . S
C1572 C1566 1.379 . S
C1572 C1569 1.363 . S
C1572 N1570 1.356 . S
C1573 C1567 1.363 . S
C1573 C1568 1.379 . S
C1573 N1571 1.356 . S
N1574 C1566 1.356 . S
N1574 H1580 0.984 . S
N1574 H1581 0.984 . S
N1575 C1568 1.356 . S
N1575 H1578 0.984 . S
N1575 H1579 0.985 . S
H1576 N1571 0.984 . S
H1577 N1571 0.985 . S
H1578 N1575 0.984 . S
H1579 N1575 0.985 . S
H1580 N1574 0.984 . S
H1581 N1574 0.984 . S
H1582 N1570 0.984 . S
H1583 N1570 0.985 . S
C1584 C1585 1.363 1_545 S
C1584 C1590 1.379 . S
C1584 N1592 1.356 . S
C1585 C1584 1.363 1_565 S
C1585 C1591 1.363 . S
C1586 C1587 1.363 . S
C1586 C1591 1.379 . S
C1586 N1593 1.356 . S
C1587 C1586 1.363 . S
C1587 C1590 1.363 1_565 S
N1588 C1590 1.356 . S
N1588 H1600 0.984 . S
N1588 H1601 0.985 . S
N1589 C1591 1.356 . S
N1589 H1594 0.984 . S
N1589 H1595 0.985 . S
C1590 C1584 1.379 . S
C1590 C1587 1.363 1_545 S
C1590 N1588 1.356 . S
C1591 C1585 1.363 . S
C1591 C1586 1.379 . S
C1591 N1589 1.356 . S
N1592 C1584 1.356 . S
N1592 H1598 0.984 . S
N1592 H1599 0.984 . S
N1593 C1586 1.356 . S
N1593 H1596 0.984 . S
N1593 H1597 0.985 . S
H1594 N1589 0.984 . S
H1595 N1589 0.985 . S
H1596 N1593 0.984 . S
H1597 N1593 0.985 . S
H1598 N1592 0.984 . S
H1599 N1592 0.984 . S
H1600 N1588 0.984 . S
H1601 N1588 0.985 . S
C1602 C1603 1.363 . S
C1602 C1608 1.379 . S
C1602 N1610 1.356 . S
C1603 C1602 1.363 . S
C1603 C1609 1.363 1_565 S
C1604 C1605 1.363 1_545 S
C1604 C1609 1.379 . S
C1604 N1611 1.356 . S
C1605 C1604 1.363 1_565 S
C1605 C1608 1.363 . S
N1606 C1608 1.356 . S
N1606 H1618 0.984 . S
N1606 H1619 0.985 . S
N1607 C1609 1.356 . S
N1607 H1612 0.984 . S
N1607 H1613 0.985 . S
C1608 C1602 1.379 . S
C1608 C1605 1.363 . S
C1608 N1606 1.356 . S
C1609 C1603 1.363 1_545 S
C1609 C1604 1.379 . S
C1609 N1607 1.356 . S
N1610 C1602 1.356 . S
N1610 H1616 0.984 . S
N1610 H1617 0.984 . S
N1611 C1604 1.356 . S
N1611 H1614 0.984 . S
N1611 H1615 0.985 . S
H1612 N1607 0.984 . S
H1613 N1607 0.985 . S
H1614 N1611 0.984 . S
H1615 N1611 0.985 . S
H1616 N1610 0.984 . S
H1617 N1610 0.984 . S
H1618 N1606 0.984 . S
H1619 N1606 0.985 . S
C1620 C1621 1.363 . S
C1620 C1626 1.379 1_455 S
C1620 N1628 1.356 1_455 S
C1621 C1620 1.363 . S
C1621 C1627 1.363 . S
C1622 C1623 1.363 . S
C1622 C1627 1.379 . S
C1622 N1629 1.356 . S
C1623 C1622 1.363 . S
C1623 C1626 1.363 1_455 S
N1624 C1626 1.356 . S
N1624 H1636 0.984 . S
N1624 H1637 0.985 . S
N1625 C1627 1.356 . S
N1625 H1630 0.984 . S
N1625 H1631 0.985 . S
C1626 C1620 1.379 1_655 S
C1626 C1623 1.363 1_655 S
C1626 N1624 1.356 . S
C1627 C1621 1.363 . S
C1627 C1622 1.379 . S
C1627 N1625 1.356 . S
N1628 C1620 1.356 1_655 S
N1628 H1634 0.984 . S
N1628 H1635 0.984 1_655 S
N1629 C1622 1.356 . S
N1629 H1632 0.984 . S
N1629 H1633 0.985 . S
H1630 N1625 0.984 . S
H1631 N1625 0.985 . S
H1632 N1629 0.984 . S
H1633 N1629 0.985 . S
H1634 N1628 0.984 . S
H1635 N1628 0.984 1_455 S
H1636 N1624 0.984 . S
H1637 N1624 0.985 . S
C1638 C1639 1.363 . S
C1638 C1644 1.379 . S
C1638 N1646 1.356 . S
C1639 C1638 1.363 . S
C1639 C1645 1.363 . S
C1640 C1641 1.363 . S
C1640 C1645 1.379 . S
C1640 N1647 1.356 . S
C1641 C1640 1.363 . S
C1641 C1644 1.363 . S
N1642 C1644 1.356 . S
N1642 H1654 0.984 . S
N1642 H1655 0.985 . S
N1643 C1645 1.356 . S
N1643 H1648 0.984 . S
N1643 H1649 0.985 . S
C1644 C1638 1.379 . S
C1644 C1641 1.363 . S
C1644 N1642 1.356 . S
C1645 C1639 1.363 . S
C1645 C1640 1.379 . S
C1645 N1643 1.356 . S
N1646 C1638 1.356 . S
N1646 H1652 0.984 . S
N1646 H1653 0.984 . S
N1647 C1640 1.356 . S
N1647 H1650 0.984 . S
N1647 H1651 0.985 . S
H1648 N1643 0.984 . S
H1649 N1643 0.985 . S
H1650 N1647 0.984 . S
H1651 N1647 0.985 . S
H1652 N1646 0.984 . S
H1653 N1646 0.984 . S
H1654 N1642 0.984 . S
H1655 N1642 0.985 . S
C1656 C1657 1.363 . S
C1656 C1662 1.379 . S
C1656 N1664 1.356 . S
C1657 C1656 1.363 . S
C1657 C1663 1.363 . S
C1658 C1659 1.363 . S
C1658 C1663 1.379 . S
C1658 N1665 1.356 . S
C1659 C1658 1.363 . S
C1659 C1662 1.363 . S
N1660 C1662 1.356 . S
N1660 H1672 0.984 . S
N1660 H1673 0.985 . S
N1661 C1663 1.356 . S
N1661 H1666 0.984 . S
N1661 H1667 0.985 . S
C1662 C1656 1.379 . S
C1662 C1659 1.363 . S
C1662 N1660 1.356 . S
C1663 C1657 1.363 . S
C1663 C1658 1.379 . S
C1663 N1661 1.356 . S
N1664 C1656 1.356 . S
N1664 H1670 0.984 . S
N1664 H1671 0.984 . S
N1665 C1658 1.356 . S
N1665 H1668 0.984 . S
N1665 H1669 0.985 . S
H1666 N1661 0.984 . S
H1667 N1661 0.985 . S
H1668 N1665 0.984 . S
H1669 N1665 0.985 . S
H1670 N1664 0.984 . S
H1671 N1664 0.984 . S
H1672 N1660 0.984 . S
H1673 N1660 0.985 . S
C1674 C1675 1.363 . S
C1674 C1680 1.379 . S
C1674 N1682 1.356 . S
C1675 C1674 1.363 . S
C1675 C1681 1.363 . S
C1676 C1677 1.363 . S
C1676 C1681 1.379 . S
C1676 N1683 1.356 . S
C1677 C1676 1.363 . S
C1677 C1680 1.363 . S
N1678 C1680 1.356 . S
N1678 H1690 0.984 . S
N1678 H1691 0.985 . S
N1679 C1681 1.356 . S
N1679 H1684 0.984 . S
N1679 H1685 0.985 . S
C1680 C1674 1.379 . S
C1680 C1677 1.363 . S
C1680 N1678 1.356 . S
C1681 C1675 1.363 . S
C1681 C1676 1.379 . S
C1681 N1679 1.356 . S
N1682 C1674 1.356 . S
N1682 H1688 0.984 . S
N1682 H1689 0.984 . S
N1683 C1676 1.356 . S
N1683 H1686 0.984 . S
N1683 H1687 0.985 . S
H1684 N1679 0.984 . S
H1685 N1679 0.985 . S
H1686 N1683 0.984 . S
H1687 N1683 0.985 . S
H1688 N1682 0.984 . S
H1689 N1682 0.984 . S
H1690 N1678 0.984 . S
H1691 N1678 0.985 . S
C1692 C1693 1.363 . S
C1692 C1698 1.379 . S
C1692 N1700 1.356 . S
C1693 C1692 1.363 . S
C1693 C1699 1.363 . S
C1694 C1695 1.363 . S
C1694 C1699 1.379 . S
C1694 N1701 1.356 . S
C1695 C1694 1.363 . S
C1695 C1698 1.363 . S
N1696 C1698 1.356 . S
N1696 H1708 0.984 . S
N1696 H1709 0.985 . S
N1697 C1699 1.356 . S
N1697 H1702 0.984 . S
N1697 H1703 0.985 . S
C1698 C1692 1.379 . S
C1698 C1695 1.363 . S
C1698 N1696 1.356 . S
C1699 C1693 1.363 . S
C1699 C1694 1.379 . S
C1699 N1697 1.356 . S
N1700 C1692 1.356 . S
N1700 H1706 0.984 . S
N1700 H1707 0.984 . S
N1701 C1694 1.356 . S
N1701 H1704 0.984 . S
N1701 H1705 0.985 . S
H1702 N1697 0.984 . S
H1703 N1697 0.985 . S
H1704 N1701 0.984 . S
H1705 N1701 0.985 . S
H1706 N1700 0.984 . S
H1707 N1700 0.984 . S
H1708 N1696 0.984 . S
H1709 N1696 0.985 . S
C1710 C1711 1.363 1_565 S
C1710 C1716 1.379 . S
C1710 N1718 1.356 . S
C1711 C1710 1.363 1_545 S
C1711 C1717 1.363 . S
C1712 C1713 1.363 . S
C1712 C1717 1.379 . S
C1712 N1719 1.356 . S
C1713 C1712 1.363 . S
C1713 C1716 1.363 1_545 S
N1714 C1716 1.356 . S
N1714 H1726 0.984 . S
N1714 H1727 0.985 . S
N1715 C1717 1.356 . S
N1715 H1720 0.984 . S
N1715 H1721 0.985 . S
C1716 C1710 1.379 . S
C1716 C1713 1.363 1_565 S
C1716 N1714 1.356 . S
C1717 C1711 1.363 . S
C1717 C1712 1.379 . S
C1717 N1715 1.356 . S
N1718 C1710 1.356 . S
N1718 H1724 0.984 . S
N1718 H1725 0.984 . S
N1719 C1712 1.356 . S
N1719 H1722 0.984 . S
N1719 H1723 0.985 . S
H1720 N1715 0.984 . S
H1721 N1715 0.985 . S
H1722 N1719 0.984 . S
H1723 N1719 0.985 . S
H1724 N1718 0.984 . S
H1725 N1718 0.984 . S
H1726 N1714 0.984 . S
H1727 N1714 0.985 . S
C1728 C1729 1.361 1_455 S
C1728 C1734 1.376 . S
C1728 N1736 1.361 . S
C1729 C1728 1.361 1_655 S
C1729 C1735 1.363 . S
C1730 C1731 1.363 . S
C1730 C1735 1.379 . S
C1730 N1737 1.356 . S
C1731 C1730 1.363 . S
C1731 C1734 1.363 1_655 S
N1732 C1734 1.356 . S
N1732 H1744 0.984 . S
N1732 H1745 0.985 . S
N1733 C1735 1.356 . S
N1733 H1738 0.984 . S
N1733 H1739 0.985 . S
C1734 C1728 1.376 . S
C1734 C1731 1.363 1_455 S
C1734 N1732 1.356 . S
C1735 C1729 1.363 . S
C1735 C1730 1.379 . S
C1735 N1733 1.356 . S
N1736 C1728 1.361 . S
N1736 H1742 0.984 . S
N1736 H1743 0.984 . S
N1737 C1730 1.356 . S
N1737 H1740 0.984 . S
N1737 H1741 0.985 . S
H1738 N1733 0.984 . S
H1739 N1733 0.985 . S
H1740 N1737 0.984 . S
H1741 N1737 0.985 . S
H1742 N1736 0.984 . S
H1743 N1736 0.984 . S
H1744 N1732 0.984 . S
H1745 N1732 0.985 . S
C1746 C1747 1.363 . S
C1746 C1752 1.379 . S
C1746 N1754 1.356 . S
C1747 C1746 1.363 . S
C1747 C1753 1.363 . S
C1748 C1749 1.363 . S
C1748 C1753 1.379 . S
C1748 N1755 1.356 . S
C1749 C1748 1.363 . S
C1749 C1752 1.363 . S
N1750 C1752 1.356 . S
N1750 H1762 0.984 . S
N1750 H1763 0.985 . S
N1751 C1753 1.356 . S
N1751 H1756 0.984 . S
N1751 H1757 0.985 . S
C1752 C1746 1.379 . S
C1752 C1749 1.363 . S
C1752 N1750 1.356 . S
C1753 C1747 1.363 . S
C1753 C1748 1.379 . S
C1753 N1751 1.356 . S
N1754 C1746 1.356 . S
N1754 H1760 0.984 . S
N1754 H1761 0.984 . S
N1755 C1748 1.356 . S
N1755 H1758 0.984 . S
N1755 H1759 0.985 . S
H1756 N1751 0.984 . S
H1757 N1751 0.985 . S
H1758 N1755 0.984 . S
H1759 N1755 0.985 . S
H1760 N1754 0.984 . S
H1761 N1754 0.984 . S
H1762 N1750 0.984 . S
H1763 N1750 0.985 . S
C1764 C1765 1.363 . S
C1764 C1770 1.379 . S
C1764 N1772 1.356 . S
C1765 C1764 1.363 . S
C1765 C1771 1.363 . S
C1766 C1767 1.363 . S
C1766 C1771 1.379 . S
C1766 N1773 1.356 . S
C1767 C1766 1.363 . S
C1767 C1770 1.363 . S
N1768 C1770 1.356 . S
N1768 H1780 0.984 . S
N1768 H1781 0.985 . S
N1769 C1771 1.356 . S
N1769 H1774 0.984 . S
N1769 H1775 0.985 . S
C1770 C1764 1.379 . S
C1770 C1767 1.363 . S
C1770 N1768 1.356 . S
C1771 C1765 1.363 . S
C1771 C1766 1.379 . S
C1771 N1769 1.356 . S
N1772 C1764 1.356 . S
N1772 H1778 0.984 . S
N1772 H1779 0.984 . S
N1773 C1766 1.356 . S
N1773 H1776 0.984 . S
N1773 H1777 0.985 . S
H1774 N1769 0.984 . S
H1775 N1769 0.985 . S
H1776 N1773 0.984 . S
H1777 N1773 0.985 . S
H1778 N1772 0.984 . S
H1779 N1772 0.984 . S
H1780 N1768 0.984 . S
H1781 N1768 0.985 . S
C1782 C1783 1.363 . S
C1782 C1788 1.379 . S
C1782 N1790 1.356 . S
C1783 C1782 1.363 . S
C1783 C1789 1.363 . S
C1784 C1785 1.363 . S
C1784 C1789 1.379 . S
C1784 N1791 1.356 . S
C1785 C1784 1.363 . S
C1785 C1788 1.363 . S
N1786 C1788 1.356 . S
N1786 H1798 0.984 . S
N1786 H1799 0.985 . S
N1787 C1789 1.356 . S
N1787 H1792 0.984 . S
N1787 H1793 0.985 . S
C1788 C1782 1.379 . S
C1788 C1785 1.363 . S
C1788 N1786 1.356 . S
C1789 C1783 1.363 . S
C1789 C1784 1.379 . S
C1789 N1787 1.356 . S
N1790 C1782 1.356 . S
N1790 H1796 0.984 . S
N1790 H1797 0.984 . S
N1791 C1784 1.356 . S
N1791 H1794 0.984 . S
N1791 H1795 0.985 . S
H1792 N1787 0.984 . S
H1793 N1787 0.985 . S
H1794 N1791 0.984 . S
H1795 N1791 0.985 . S
H1796 N1790 0.984 . S
H1797 N1790 0.984 . S
H1798 N1786 0.984 . S
H1799 N1786 0.985 . S
C1800 C1801 1.363 . S
C1800 C1806 1.379 . S
C1800 N1808 1.356 . S
C1801 C1800 1.363 . S
C1801 C1807 1.363 . S
C1802 C1803 1.363 . S
C1802 C1807 1.379 . S
C1802 N1809 1.356 . S
C1803 C1802 1.363 . S
C1803 C1806 1.363 . S
N1804 C1806 1.356 . S
N1804 H1816 0.984 . S
N1804 H1817 0.985 . S
N1805 C1807 1.356 . S
N1805 H1810 0.984 . S
N1805 H1811 0.985 . S
C1806 C1800 1.379 . S
C1806 C1803 1.363 . S
C1806 N1804 1.356 . S
C1807 C1801 1.363 . S
C1807 C1802 1.379 . S
C1807 N1805 1.356 . S
N1808 C1800 1.356 . S
N1808 H1814 0.984 . S
N1808 H1815 0.984 . S
N1809 C1802 1.356 . S
N1809 H1812 0.984 . S
N1809 H1813 0.985 . S
H1810 N1805 0.984 . S
H1811 N1805 0.985 . S
H1812 N1809 0.984 . S
H1813 N1809 0.985 . S
H1814 N1808 0.984 . S
H1815 N1808 0.984 . S
H1816 N1804 0.984 . S
H1817 N1804 0.985 . S
C1818 C1819 1.363 . S
C1818 C1824 1.379 . S
C1818 N1826 1.356 . S
C1819 C1818 1.363 . S
C1819 C1825 1.363 . S
C1820 C1821 1.363 . S
C1820 C1825 1.379 . S
C1820 N1827 1.356 . S
C1821 C1820 1.363 . S
C1821 C1824 1.363 . S
N1822 C1824 1.356 . S
N1822 H1834 0.984 . S
N1822 H1835 0.985 . S
N1823 C1825 1.356 . S
N1823 H1828 0.984 . S
N1823 H1829 0.985 . S
C1824 C1818 1.379 . S
C1824 C1821 1.363 . S
C1824 N1822 1.356 . S
C1825 C1819 1.363 . S
C1825 C1820 1.379 . S
C1825 N1823 1.356 . S
N1826 C1818 1.356 . S
N1826 H1832 0.984 . S
N1826 H1833 0.984 . S
N1827 C1820 1.356 . S
N1827 H1830 0.984 . S
N1827 H1831 0.985 . S
H1828 N1823 0.984 . S
H1829 N1823 0.985 . S
H1830 N1827 0.984 . S
H1831 N1827 0.985 . S
H1832 N1826 0.984 . S
H1833 N1826 0.984 . S
H1834 N1822 0.984 . S
H1835 N1822 0.985 . S
C1836 C1837 1.363 . S
C1836 C1842 1.379 . S
C1836 N1844 1.356 . S
C1837 C1836 1.363 . S
C1837 C1843 1.363 . S
C1838 C1839 1.363 . S
C1838 C1843 1.379 . S
C1838 N1845 1.356 . S
C1839 C1838 1.363 . S
C1839 C1842 1.363 . S
N1840 C1842 1.356 . S
N1840 H1852 0.984 . S
N1840 H1853 0.985 . S
N1841 C1843 1.356 . S
N1841 H1846 0.984 . S
N1841 H1847 0.985 . S
C1842 C1836 1.379 . S
C1842 C1839 1.363 . S
C1842 N1840 1.356 . S
C1843 C1837 1.363 . S
C1843 C1838 1.379 . S
C1843 N1841 1.356 . S
N1844 C1836 1.356 . S
N1844 H1850 0.984 . S
N1844 H1851 0.984 . S
N1845 C1838 1.356 . S
N1845 H1848 0.984 . S
N1845 H1849 0.985 . S
H1846 N1841 0.984 . S
H1847 N1841 0.985 . S
H1848 N1845 0.984 . S
H1849 N1845 0.985 . S
H1850 N1844 0.984 . S
H1851 N1844 0.984 . S
H1852 N1840 0.984 . S
H1853 N1840 0.985 . S
C1854 C1855 1.363 . S
C1854 C1860 1.379 . S
C1854 N1862 1.356 . S
C1855 C1854 1.363 . S
C1855 C1861 1.363 . S
C1856 C1857 1.363 . S
C1856 C1861 1.379 . S
C1856 N1863 1.356 . S
C1857 C1856 1.363 . S
C1857 C1860 1.363 . S
N1858 C1860 1.356 . S
N1858 H1870 0.984 . S
N1858 H1871 0.985 . S
N1859 C1861 1.356 . S
N1859 H1864 0.984 . S
N1859 H1865 0.985 . S
C1860 C1854 1.379 . S
C1860 C1857 1.363 . S
C1860 N1858 1.356 . S
C1861 C1855 1.363 . S
C1861 C1856 1.379 . S
C1861 N1859 1.356 . S
N1862 C1854 1.356 . S
N1862 H1868 0.984 . S
N1862 H1869 0.984 . S
N1863 C1856 1.356 . S
N1863 H1866 0.984 . S
N1863 H1867 0.985 . S
H1864 N1859 0.984 . S
H1865 N1859 0.985 . S
H1866 N1863 0.984 . S
H1867 N1863 0.985 . S
H1868 N1862 0.984 . S
H1869 N1862 0.984 . S
H1870 N1858 0.984 . S
H1871 N1858 0.985 . S
C1872 C1873 1.363 . S
C1872 C1878 1.379 . S
C1872 N1880 1.356 . S
C1873 C1872 1.363 . S
C1873 C1879 1.363 1_655 S
C1874 C1875 1.363 1_455 S
C1874 C1879 1.379 . S
C1874 N1881 1.356 . S
C1875 C1874 1.363 1_655 S
C1875 C1878 1.363 . S
N1876 C1878 1.356 . S
N1876 H1888 0.984 . S
N1876 H1889 0.985 . S
N1877 C1879 1.356 . S
N1877 H1882 0.984 . S
N1877 H1883 0.985 . S
C1878 C1872 1.379 . S
C1878 C1875 1.363 . S
C1878 N1876 1.356 . S
C1879 C1873 1.363 1_455 S
C1879 C1874 1.379 . S
C1879 N1877 1.356 . S
N1880 C1872 1.356 . S
N1880 H1886 0.984 . S
N1880 H1887 0.984 . S
N1881 C1874 1.356 . S
N1881 H1884 0.984 . S
N1881 H1885 0.985 . S
H1882 N1877 0.984 . S
H1883 N1877 0.985 . S
H1884 N1881 0.984 . S
H1885 N1881 0.985 . S
H1886 N1880 0.984 . S
H1887 N1880 0.984 . S
H1888 N1876 0.984 . S
H1889 N1876 0.985 . S
C1890 C1891 1.363 . S
C1890 C1896 1.379 . S
C1890 N1898 1.356 . S
C1891 C1890 1.363 . S
C1891 C1897 1.363 . S
C1892 C1893 1.363 . S
C1892 C1897 1.379 . S
C1892 N1899 1.356 . S
C1893 C1892 1.363 . S
C1893 C1896 1.363 . S
N1894 C1896 1.356 . S
N1894 H1906 0.984 . S
N1894 H1907 0.985 . S
N1895 C1897 1.356 . S
N1895 H1900 0.984 . S
N1895 H1901 0.985 . S
C1896 C1890 1.379 . S
C1896 C1893 1.363 . S
C1896 N1894 1.356 . S
C1897 C1891 1.363 . S
C1897 C1892 1.379 . S
C1897 N1895 1.356 . S
N1898 C1890 1.356 . S
N1898 H1904 0.984 . S
N1898 H1905 0.984 . S
N1899 C1892 1.356 . S
N1899 H1902 0.984 . S
N1899 H1903 0.985 . S
H1900 N1895 0.984 . S
H1901 N1895 0.985 . S
H1902 N1899 0.984 . S
H1903 N1899 0.985 . S
H1904 N1898 0.984 . S
H1905 N1898 0.984 . S
H1906 N1894 0.984 . S
H1907 N1894 0.985 . S
C1908 C1909 1.363 . S
C1908 C1914 1.366 . S
C1908 N1916 1.356 . S
C1909 C1908 1.363 . S
C1909 C1915 1.363 . S
C1910 C1911 1.363 . S
C1910 C1915 1.379 . S
C1910 N1917 1.356 . S
C1911 C1910 1.363 . S
C1911 C1914 1.371 . S
N1912 C1914 1.367 1_565 S
N1912 H1924 0.984 . S
N1912 H1925 0.985 . S
N1913 C1915 1.356 . S
N1913 H1918 0.984 . S
N1913 H1919 0.985 . S
C1914 C1908 1.366 . S
C1914 C1911 1.371 . S
C1914 N1912 1.367 1_545 S
C1915 C1909 1.363 . S
C1915 C1910 1.379 . S
C1915 N1913 1.356 . S
N1916 C1908 1.356 . S
N1916 H1922 0.984 . S
N1916 H1923 0.984 . S
N1917 C1910 1.356 . S
N1917 H1920 0.984 . S
N1917 H1921 0.985 . S
H1918 N1913 0.984 . S
H1919 N1913 0.985 . S
H1920 N1917 0.984 . S
H1921 N1917 0.985 . S
H1922 N1916 0.984 . S
H1923 N1916 0.984 . S
H1924 N1912 0.984 . S
H1925 N1912 0.985 . S
C631 C4 1.556 . S
C633 C458 1.550 1_655 S
C649 C26 1.573 . S
C651 C471 1.530 . S
C669 C500 1.485 1_545 S
C667 C32 1.509 . S
C685 C40 1.515 . S
C687 C513 1.467 . S
C703 C12 1.559 . S
C705 C534 1.513 . S
C721 C18 1.523 . S
C723 C563 1.506 . S
C739 C46 1.556 . S
C741 C542 1.538 . S
C759 C555 1.500 . S
C757 C68 1.558 . S
C777 C521 1.499 . S
C775 C74 1.514 . S
C793 C82 1.514 . S
C795 C492 1.491 1_545 S
C813 C450 1.524 1_655 S
C811 C54 1.563 . S
C829 C60 1.516 . S
C831 C479 1.516 . S
C847 C88 1.579 . S
C849 C584 1.557 . S
C865 C110 1.588 . S
C867 C597 1.547 . S
C885 C626 1.511 . S
C883 C116 1.538 . S
C901 C124 1.530 . S
C903 C261 1.489 . S
C919 C96 1.573 . S
C921 C282 1.531 . S
C937 C102 1.532 . S
C939 C311 1.508 . S
C955 C130 1.557 . S
C957 C290 1.560 . S
C973 C152 1.579 . S
C975 C303 1.518 . S
C993 C269 1.534 . S
C991 C158 1.528 . S
C1011 C618 1.477 . S
C1009 C166 1.531 . S
C1029 C576 1.505 . S
C1027 C138 1.557 . S
C1047 C605 1.538 . S
C1045 C144 1.534 . S
C1063 C172 1.569 . S
C1065 C332 1.546 . S
C1081 C194 1.591 . S
C1083 C345 1.551 . S
C1099 C200 1.539 . S
C1101 C374 1.512 . S
C1117 C208 1.539 . S
C1119 C387 1.498 . S
C1137 C408 1.529 . S
C1135 C180 1.572 . S
C1155 C437 1.518 . S
C1153 C186 1.538 . S
C1173 C416 1.580 . S
C1171 C214 1.573 . S
C1191 C429 1.508 . S
C1189 C236 1.573 . S
C1207 C242 1.520 . S
C1209 C395 1.529 . S
C1227 C366 1.463 . S
C1225 C250 1.515 . S
C1243 C222 1.564 . S
C1245 C324 1.514 . S
C1263 C353 1.529 . S
C1261 C228 1.528 . S
C1281 C264 1.362 . S
C1279 C5 1.220 . S
C1297 C25 1.398 . S
C1299 C285 1.300 . S
C1317 C313 1.323 . S
C1315 C33 1.234 . S
C1335 C334 1.277 . S
C1333 C39 1.368 . S
C1353 C348 1.318 . S
C1351 C11 1.408 . S
C1371 C376 1.292 . S
C1369 C19 1.187 1_556 S
C1387 C47 1.219 1_556 S
C1389 C369 1.299 . S
C1405 C67 1.428 . S
C1407 C327 1.237 . S
C1423 C75 1.247 1_556 S
C1425 C355 1.406 . S
C1441 C81 1.407 . S
C1443 C292 1.346 . S
C1461 C306 1.250 . S
C1459 C53 1.431 . S
C1477 C61 1.198 . S
C1479 C271 1.365 . S
C1497 C390 1.347 . S
C1495 C89 1.200 . S
C1513 C109 1.424 . S
C1515 C411 1.324 . S
C1531 C117 1.212 . S
C1533 C439 1.310 . S
C1551 C460 1.251 . S
C1549 C123 1.335 . S
C1567 C95 1.394 . S
C1569 C474 1.299 . S
C1585 C103 1.176 . S
C1587 C502 1.276 . S
C1603 C131 1.179 . S
C1605 C495 1.242 . S
C1621 C151 1.390 . S
C1623 C453 1.229 . S
C1641 C481 1.370 . S
C1639 C159 1.208 . S
C1657 C165 1.403 . S
C1659 C418 1.329 . S
C1675 C137 1.451 . S
C1677 C432 1.266 . S
C1695 C397 1.382 . S
C1693 C145 1.216 . S
C1713 C516 1.287 1_545 S
C1711 C173 1.180 . S
C1729 C193 1.356 . S
C1731 C537 1.256 1_655 S
C1747 C201 1.191 . S
C1749 C565 1.291 . S
C1767 C586 1.260 . S
C1765 C207 1.368 . S
C1785 C600 1.330 . S
C1783 C179 1.428 . S
C1801 C187 1.206 . S
C1803 C628 1.312 . S
C1819 C215 1.222 . S
C1821 C621 1.282 . S
C1837 C235 1.452 . S
C1839 C579 1.262 . S
C1857 C607 1.386 . S
C1855 C243 1.223 . S
C1875 C544 1.276 1_655 S
C1873 C249 1.339 . S
C1893 C558 1.248 . S
C1891 C221 1.425 . S
C1909 C229 1.178 . S
C1911 C523 1.310 1_545 S
