# Generated by pormake.
# Topology wbl, (4,4)-cn, num edge types: 1
# Building blocks:
#     Node 0, Type 0, BuildingBlock: MIFKUJ_clean_linker_1, # of connection points: 4
#     Node 1, Type 0, BuildingBlock: MIFKUJ_clean_linker_1, # of connection points: 4
#     Node 2, Type 0, BuildingBlock: MIFKUJ_clean_linker_1, # of connection points: 4
#     Node 3, Type 0, BuildingBlock: MIFKUJ_clean_linker_1, # of connection points: 4
#     Node 4, Type 0, BuildingBlock: MIFKUJ_clean_linker_1, # of connection points: 4
#     Node 5, Type 0, BuildingBlock: MIFKUJ_clean_linker_1, # of connection points: 4
#     Node 6, Type 0, BuildingBlock: MIFKUJ_clean_linker_1, # of connection points: 4
#     Node 7, Type 0, BuildingBlock: MIFKUJ_clean_linker_1, # of connection points: 4
#     Node 8, Type 1, BuildingBlock: TATPOV_clean_sbu_0, # of connection points: 4
#     Node 9, Type 1, BuildingBlock: TATPOV_clean_sbu_0, # of connection points: 4
#     Node 10, Type 1, BuildingBlock: TATPOV_clean_sbu_0, # of connection points: 4
#     Node 11, Type 1, BuildingBlock: TATPOV_clean_sbu_0, # of connection points: 4
#     Node 12, Type 1, BuildingBlock: TATPOV_clean_sbu_0, # of connection points: 4
#     Node 13, Type 1, BuildingBlock: TATPOV_clean_sbu_0, # of connection points: 4
#     Node 14, Type 1, BuildingBlock: TATPOV_clean_sbu_0, # of connection points: 4
#     Node 15, Type 1, BuildingBlock: TATPOV_clean_sbu_0, # of connection points: 4
#     Edge 16, Type (0, 1), None
#     Edge 17, Type (0, 1), None
#     Edge 18, Type (0, 1), None
#     Edge 19, Type (0, 1), None
#     Edge 20, Type (0, 1), None
#     Edge 21, Type (0, 1), None
#     Edge 22, Type (0, 1), None
#     Edge 23, Type (0, 1), None
#     Edge 24, Type (0, 1), None
#     Edge 25, Type (0, 1), None
#     Edge 26, Type (0, 1), None
#     Edge 27, Type (0, 1), None
#     Edge 28, Type (0, 1), None
#     Edge 29, Type (0, 1), None
#     Edge 30, Type (0, 1), None
#     Edge 31, Type (0, 1), None
#     Edge 32, Type (0, 1), None
#     Edge 33, Type (0, 1), None
#     Edge 34, Type (0, 1), None
#     Edge 35, Type (0, 1), None
#     Edge 36, Type (0, 1), None
#     Edge 37, Type (0, 1), None
#     Edge 38, Type (0, 1), None
#     Edge 39, Type (0, 1), None
#     Edge 40, Type (0, 1), None
#     Edge 41, Type (0, 1), None
#     Edge 42, Type (0, 1), None
#     Edge 43, Type (0, 1), None
#     Edge 44, Type (0, 1), None
#     Edge 45, Type (0, 1), None
#     Edge 46, Type (0, 1), None
#     Edge 47, Type (0, 1), None
# Relax obj value: 0.162
# Max RMSD: 0.156
# Mean RMSD: 0.128
data_MOF--net-wbl--node1-TATPOV_clean_sbu_0--node2-MIFKUJ_clean_linker_1--edge1-none
_symmetry_space_group_name_H-M    P1
_symmetry_Int_Tables_number       1
_symmetry_cell_setting            triclinic
loop_
_symmetry_equiv_pos_as_xyz
'x, y, z'
_cell_length_a     24.840167
_cell_length_b     24.836762
_cell_length_c     39.597187
_cell_angle_alpha  91.596052
_cell_angle_beta   91.529514
_cell_angle_gamma 90.331982
loop_
_atom_site_label
_atom_site_type_symbol
_atom_site_fract_x
_atom_site_fract_y
_atom_site_fract_z
_atom_type_partial_charge
H0 H 0.01454 0.18765 0.36388 0.0
H1 H 0.96379 0.24092 0.40525 0.0
H2 H 0.91755 0.09406 0.4534 0.0
H3 H 0.96688 0.04172 0.41201 0.0
H4 H 0.06827 0.03873 0.40032 0.0
H5 H 0.0214 0.15775 0.27799 0.0
H6 H 0.94766 0.21353 0.25593 0.0
H7 H 0.83679 0.13141 0.31972 0.0
H8 H 0.90937 0.07523 0.34024 0.0
H9 H 0.04936 0.90729 0.29072 0.0
H10 H 0.11001 0.83885 0.26734 0.0
H11 H 0.23745 0.95789 0.26626 0.0
H12 H 0.17787 0.02458 0.29159 0.0
H13 H 0.03609 0.0452 0.27625 0.0
H14 H 0.07445 0.89464 0.35015 0.0
H15 H 0.12077 0.8293 0.38554 0.0
H16 H 0.21777 0.95738 0.43162 0.0
H17 H 0.17464 0.02205 0.39415 0.0
C18 C 0.99449 0.11073 0.3849 0.0
C19 C 0.99314 0.16715 0.38329 0.0
C20 C 0.96429 0.19749 0.40696 0.0
C21 C 0.93685 0.17175 0.43268 0.0
C22 C 0.93847 0.1153 0.43409 0.0
C23 C 0.96685 0.08521 0.41046 0.0
C24 C 0.0247 0.0774 0.36032 0.0
C25 C 0.06157 0.04045 0.37316 0.0
C26 C 0.01481 0.07902 0.325 0.0
C27 C 0.97093 0.11263 0.31093 0.0
C28 C 0.98107 0.15194 0.28705 0.0
C29 C 0.93907 0.18418 0.27481 0.0
C30 C 0.88638 0.17753 0.28636 0.0
C31 C 0.87684 0.13834 0.3105 0.0
C32 C 0.91839 0.1059 0.32226 0.0
C33 C 0.10974 0.97042 0.29356 0.0
C34 C 0.09001 0.91879 0.28459 0.0
C35 C 0.12454 0.87984 0.27111 0.0
C36 C 0.17854 0.89287 0.26518 0.0
C37 C 0.196 0.94656 0.27037 0.0
C38 C 0.16208 0.98481 0.28495 0.0
C39 C 0.07953 0.00622 0.31658 0.0
C40 C 0.0434 0.04417 0.30335 0.0
C41 C 0.08818 0.00406 0.35197 0.0
C42 C 0.12236 0.9631 0.36849 0.0
C43 C 0.10787 0.90829 0.36628 0.0
C44 C 0.13357 0.87109 0.38702 0.0
C45 C 0.1723 0.88864 0.41135 0.0
C46 C 0.18768 0.9431 0.41312 0.0
C47 C 0.16339 0.97989 0.39159 0.0
H48 H 0.97901 0.43098 0.52767 0.0
H49 H 0.92408 0.35323 0.51037 0.0
H50 H 0.78956 0.42093 0.56371 0.0
H51 H 0.84424 0.50027 0.57948 0.0
H52 H 0.98868 0.53685 0.52832 0.0
H53 H 0.94924 0.40241 0.61499 0.0
H54 H 0.89831 0.35223 0.6561 0.0
H55 H 0.83388 0.50185 0.69564 0.0
H56 H 0.8847 0.55137 0.65452 0.0
H57 H 0.01931 0.64325 0.66165 0.0
H58 H 0.08905 0.68878 0.6966 0.0
H59 H 0.21142 0.621 0.63302 0.0
H60 H 0.14183 0.57219 0.5994 0.0
H61 H -0.00164 0.5453 0.65369 0.0
H62 H 0.03922 0.68099 0.57746 0.0
H63 H 0.10456 0.73821 0.55101 0.0
H64 H 0.16494 0.60021 0.49519 0.0
H65 H 0.09944 0.54239 0.52275 0.0
C66 C 0.91638 0.47044 0.55595 0.0
C67 C 0.93705 0.43027 0.53446 0.0
C68 C 0.90545 0.38563 0.52463 0.0
C69 C 0.85291 0.38011 0.53661 0.0
C70 C 0.83019 0.42354 0.5546 0.0
C71 C 0.86155 0.46876 0.56382 0.0
C72 C 0.95403 0.50845 0.57411 0.0
C73 C 0.99077 0.53878 0.55572 0.0
C74 C 0.9563 0.51198 0.60992 0.0
C75 C 0.92059 0.48058 0.63165 0.0
C76 C 0.92332 0.42417 0.63212 0.0
C77 C 0.89432 0.39562 0.65572 0.0
C78 C 0.8623 0.42308 0.67937 0.0
C79 C 0.85818 0.4794 0.67791 0.0
C80 C 0.88722 0.50782 0.65441 0.0
C81 C 0.07513 0.60463 0.62763 0.0
C82 C 0.06111 0.63785 0.65526 0.0
C83 C 0.1009 0.6639 0.67517 0.0
C84 C 0.15535 0.65828 0.66734 0.0
C85 C 0.16954 0.62623 0.63929 0.0
C86 C 0.12978 0.59873 0.61996 0.0
C87 C 0.0326 0.57404 0.60814 0.0
C88 C 0.99551 0.54452 0.62627 0.0
C89 C 0.02949 0.57233 0.57235 0.0
C90 C 0.0648 0.60729 0.55244 0.0
C91 C 0.06637 0.66293 0.55947 0.0
C92 C 0.10411 0.6956 0.5444 0.0
C93 C 0.14078 0.67368 0.52135 0.0
C94 C 0.13766 0.61824 0.51307 0.0
C95 C 0.09994 0.58527 0.52854 0.0
H96 H 0.5086 0.5687 0.8933 0.0
H97 H 0.46571 0.63906 0.92721 0.0
H98 H 0.3236 0.62762 0.86227 0.0
H99 H 0.36506 0.55414 0.8296 0.0
H100 H 0.48191 0.46885 0.88577 0.0
H101 H 0.50169 0.61794 0.80709 0.0
H102 H 0.44858 0.69218 0.78351 0.0
H103 H 0.34019 0.57642 0.73449 0.0
H104 H 0.39317 0.50257 0.7577 0.0
H105 H 0.53218 0.31791 0.81428 0.0
H106 H 0.60837 0.26114 0.79896 0.0
H107 H 0.6779 0.39384 0.74651 0.0
H108 H 0.60437 0.45118 0.76385 0.0
H109 H 0.50737 0.4697 0.76198 0.0
H110 H 0.47435 0.35326 0.88365 0.0
H111 H 0.51969 0.30676 0.9301 0.0
H112 H 0.67092 0.37905 0.90342 0.0
H113 H 0.6254 0.42479 0.85698 0.0
C114 C 0.44025 0.55616 0.85875 0.0
C115 C 0.46818 0.58114 0.88628 0.0
C116 C 0.44395 0.62162 0.90544 0.0
C117 C 0.39186 0.63892 0.89694 0.0
C118 C 0.36431 0.61547 0.86879 0.0
C119 C 0.38798 0.57358 0.85017 0.0
C120 C 0.46617 0.51109 0.84 0.0
C121 C 0.48712 0.46868 0.85862 0.0
C122 C 0.4735 0.51127 0.80474 0.0
C123 C 0.45098 0.55491 0.7842 0.0
C124 C 0.46752 0.60869 0.79031 0.0
C125 C 0.43728 0.65091 0.77703 0.0
C126 C 0.3905 0.63946 0.75758 0.0
C127 C 0.3763 0.58578 0.74954 0.0
C128 C 0.40665 0.54371 0.76251 0.0
C129 C 0.56347 0.38967 0.79155 0.0
C130 C 0.56362 0.33471 0.79927 0.0
C131 C 0.60681 0.30197 0.79008 0.0
C132 C 0.64957 0.32318 0.77195 0.0
C133 C 0.64568 0.37613 0.7605 0.0
C134 C 0.60341 0.40918 0.77051 0.0
C135 C 0.52603 0.42824 0.80816 0.0
C136 C 0.50205 0.46923 0.78906 0.0
C137 C 0.51793 0.42819 0.84351 0.0
C138 C 0.54669 0.39199 0.86678 0.0
C139 C 0.51752 0.35784 0.88736 0.0
C140 C 0.5434 0.33152 0.91393 0.0
C141 C 0.59867 0.33989 0.92069 0.0
C142 C 0.62815 0.37225 0.89906 0.0
C143 C 0.60237 0.39801 0.8723 0.0
H144 H 0.5052 0.86472 0.07209 0.0
H145 H 0.44146 0.80195 0.04497 0.0
H146 H 0.38432 0.92719 0.97951 0.0
H147 H 0.44791 0.99096 0.00794 0.0
H148 H 0.55774 0.99401 0.0156 0.0
H149 H 0.53757 0.9167 0.15118 0.0
H150 H 0.47381 0.87751 0.18925 0.0
H151 H 0.34156 0.93622 0.12772 0.0
H152 H 0.40603 0.97727 0.09008 0.0
H153 H 0.61561 0.1452 0.09006 0.0
H154 H 0.66934 0.20283 0.12961 0.0
H155 H 0.70909 0.06409 0.18843 0.0
H156 H 0.65829 0.00624 0.148 0.0
H157 H 0.5536 0.0161 0.14035 0.0
H158 H 0.57583 0.09766 0.00768 0.0
H159 H 0.63478 0.16824 0.98848 0.0
H160 H 0.76538 0.1068 0.0503 0.0
H161 H 0.7067 0.03387 0.0678 0.0
C162 C 0.48072 0.93272 0.04244 0.0
C163 C 0.47861 0.87896 0.05217 0.0
C164 C 0.44194 0.84308 0.03659 0.0
C165 C 0.40718 0.85973 0.0103 0.0
C166 C 0.41022 0.9133 -0.00014 0.0
C167 C 0.44674 0.9496 0.01589 0.0
C168 C 0.51769 0.97101 0.06084 0.0
C169 C 0.55687 -0.0011 0.04288 0.0
C170 C 0.51673 0.97721 0.09649 0.0
C171 C 0.47676 0.94991 0.11766 0.0
C172 C 0.49486 0.92132 0.14584 0.0
C173 C 0.45829 0.89897 0.16766 0.0
C174 C 0.40259 0.90411 0.16166 0.0
C175 C 0.38426 0.93162 0.13301 0.0
C176 C 0.42106 0.95476 0.11135 0.0
C177 C 0.63314 0.07136 0.11602 0.0
C178 C 0.63752 0.12694 0.11074 0.0
C179 C 0.66809 0.15978 0.1333 0.0
C180 C 0.69293 0.13758 0.16193 0.0
C181 C 0.69012 0.08191 0.16649 0.0
C182 C 0.66103 0.049 0.1435 0.0
C183 C 0.59499 0.03699 0.09557 0.0
C184 C 0.55518 0.0103 0.11311 0.0
C185 C 0.59623 0.0314 0.05989 0.0
C186 C 0.63611 0.06182 0.04032 0.0
C187 C 0.61779 0.09769 0.01589 0.0
C188 C 0.65179 0.13832 0.00497 0.0
C189 C 0.70441 0.14439 0.01883 0.0
C190 C 0.72484 0.1039 0.03962 0.0
C191 C 0.69112 0.06236 0.04982 0.0
H192 H 0.9896 0.65709 0.85702 0.0
H193 H 0.03925 0.70777 0.8159 0.0
H194 H 0.18868 0.64315 0.85541 0.0
H195 H 0.13837 0.59236 0.89652 0.0
H196 H 0.99555 0.54339 0.85777 0.0
H197 H 0.04064 0.69747 0.9321 0.0
H198 H 0.11999 0.75205 0.94797 0.0
H199 H 0.18725 0.61743 0.00129 0.0
H200 H 0.1095 0.56259 0.98388 0.0
H201 H -0.00158 0.44215 0.98853 0.0
H202 H 0.94072 0.37638 0.01593 0.0
H203 H 0.80268 0.4367 0.96029 0.0
H204 H 0.85979 0.50232 0.934 0.0
H205 H 0.00378 0.55299 0.98314 0.0
H206 H 0.96882 0.39986 0.91193 0.0
H207 H 0.92005 0.33018 0.87835 0.0
H208 H 0.85212 0.45242 0.81487 0.0
H209 H 0.89761 0.52227 0.8498 0.0
C210 C 0.06028 0.62113 0.87988 0.0
C211 C 0.03313 0.6545 0.85712 0.0
C212 C 0.06163 0.68346 0.83362 0.0
C213 C 0.11794 0.67924 0.83215 0.0
C214 C 0.14531 0.64722 0.85579 0.0
C215 C 0.11668 0.6183 0.8794 0.0
C216 C 0.02879 0.58544 0.90158 0.0
C217 C 0.99629 0.54623 0.88518 0.0
C218 C 0.03226 0.58768 0.93739 0.0
C219 C 0.07027 0.62529 0.95559 0.0
C220 C 0.07206 0.68011 0.94777 0.0
C221 C 0.11728 0.71142 0.95706 0.0
C222 C 0.1606 0.68862 0.97507 0.0
C223 C 0.15494 0.6361 0.98702 0.0
C224 C 0.1103 0.60456 0.97712 0.0
C225 C 0.93349 0.47679 0.95895 0.0
C226 C 0.95555 0.44159 0.98275 0.0
C227 C 0.92266 0.40371 0.99812 0.0
C228 C 0.86725 0.40049 0.98984 0.0
C229 C 0.84528 0.43722 0.9669 0.0
C230 C 0.87787 0.47513 0.95191 0.0
C231 C 0.96841 0.51219 0.93907 0.0
C232 C 0.0019 0.55092 0.95574 0.0
C233 C 0.96678 0.5091 0.90328 0.0
C234 C 0.93629 0.46651 0.88376 0.0
C235 C 0.94226 0.41187 0.8914 0.0
C236 C 0.91478 0.37205 0.8721 0.0
C237 C 0.88268 0.38619 0.8441 0.0
C238 C 0.87702 0.44063 0.83627 0.0
C239 C 0.90305 0.48047 0.85616 0.0
H240 H 0.46587 0.63141 0.17093 0.0
H241 H 0.40977 0.70412 0.19146 0.0
H242 H 0.32751 0.59348 0.25532 0.0
H243 H 0.38321 0.51961 0.23325 0.0
H244 H 0.49584 0.50487 0.23489 0.0
H245 H 0.49901 0.57375 0.09911 0.0
H246 H 0.44659 0.62315 0.05787 0.0
H247 H 0.29987 0.57693 0.10623 0.0
H248 H 0.35322 0.52614 0.14747 0.0
H249 H 0.51889 0.36605 0.11692 0.0
H250 H 0.58361 0.3229 0.07941 0.0
H251 H 0.71158 0.42001 0.12548 0.0
H252 H 0.6462 0.46634 0.1609 0.0
H253 H 0.50206 0.47232 0.11082 0.0
H254 H 0.51653 0.36292 0.21946 0.0
H255 H 0.58326 0.30347 0.24476 0.0
H256 H 0.70208 0.43111 0.24372 0.0
H257 H 0.63359 0.49164 0.22035 0.0
C258 C 0.42839 0.56996 0.20028 0.0
C259 C 0.43519 0.62247 0.18893 0.0
C260 C 0.4028 0.66409 0.20069 0.0
C261 C 0.36359 0.65465 0.22486 0.0
C262 C 0.35688 0.60199 0.23643 0.0
C263 C 0.38907 0.55992 0.22419 0.0
C264 C 0.46192 0.526 0.18619 0.0
C265 C 0.49681 0.49747 0.2078 0.0
C266 C 0.46346 0.51601 0.15087 0.0
C267 C 0.43007 0.54616 0.12632 0.0
C268 C 0.45553 0.5738 0.10074 0.0
C269 C 0.4254 0.60222 0.0772 0.0
C270 C 0.36896 0.60388 0.07871 0.0
C271 C 0.34329 0.57641 0.10444 0.0
C272 C 0.37367 0.54753 0.12803 0.0
C273 C 0.57779 0.41838 0.14257 0.0
C274 C 0.56104 0.37732 0.11947 0.0
C275 C 0.59785 0.35302 0.09792 0.0
C276 C 0.6523 0.36842 0.09968 0.0
C277 C 0.6698 0.40719 0.12401 0.0
C278 C 0.63258 0.43289 0.14477 0.0
C279 C 0.53681 0.45255 0.15913 0.0
C280 C 0.50038 0.47909 0.13798 0.0
C281 C 0.53472 0.4613 0.19453 0.0
C282 C 0.57056 0.43115 0.21751 0.0
C283 C 0.55626 0.37878 0.22609 0.0
C284 C 0.59453 0.34493 0.24067 0.0
C285 C 0.64818 0.36249 0.24587 0.0
C286 C 0.66113 0.41651 0.23994 0.0
C287 C 0.62215 0.45097 0.22648 0.0
H288 H 0.53465 0.88331 0.36306 0.0
H289 H 0.47685 0.83243 0.32264 0.0
H290 H 0.33808 0.87218 0.38153 0.0
H291 H 0.39565 0.926 0.42108 0.0
H292 H 0.52485 0.988 0.37082 0.0
H293 H 0.507 0.83483 0.4432 0.0
H294 H 0.43406 0.77609 0.4606 0.0
H295 H 0.37241 0.90661 0.52255 0.0
H296 H 0.44302 0.96563 0.50345 0.0
H297 H 0.54996 0.09351 0.50337 0.0
H298 H 0.6138 0.1569 0.53194 0.0
H299 H 0.73902 0.09974 0.46634 0.0
H300 H 0.67619 0.0362 0.43909 0.0
H301 H 0.54677 0.98373 0.49555 0.0
H302 H 0.56391 0.13551 0.42118 0.0
H303 H 0.60505 0.19988 0.38351 0.0
H304 H 0.66355 0.06743 0.32191 0.0
H305 H 0.62428 0.00378 0.36 0.0
C306 C 0.4695 0.90846 0.39507 0.0
C307 C 0.49189 0.88056 0.36757 0.0
C308 C 0.45901 0.85143 0.34459 0.0
C309 C 0.40335 0.84858 0.34918 0.0
C310 C 0.38113 0.87346 0.37782 0.0
C311 C 0.41393 0.90408 0.40037 0.0
C312 C 0.50386 0.94659 0.41556 0.0
C313 C 0.53061 0.98639 0.39805 0.0
C314 C 0.50941 0.94531 0.45124 0.0
C315 C 0.47896 0.90539 0.47076 0.0
C316 C 0.47846 0.85038 0.46118 0.0
C317 C 0.43691 0.81662 0.47133 0.0
C318 C 0.39636 0.83702 0.49213 0.0
C319 C 0.40238 0.88964 0.50604 0.0
C320 C 0.44302 0.92367 0.49519 0.0
C321 C 0.60818 0.06071 0.46879 0.0
C322 C 0.59133 0.09464 0.49542 0.0
C323 C 0.62767 0.13104 0.51152 0.0
C324 C 0.68127 0.13401 0.5011 0.0
C325 C 0.69788 0.09931 0.47473 0.0
C326 C 0.66196 0.06277 0.45906 0.0
C327 C 0.56988 0.02381 0.45035 0.0
C328 C 0.54192 0.98463 0.46828 0.0
C329 C 0.56374 0.02478 0.41471 0.0
C330 C 0.59116 0.0647 0.39356 0.0
C331 C 0.5864 0.12042 0.39989 0.0
C332 C 0.60958 0.15716 0.37821 0.0
C333 C 0.63704 0.13874 0.34953 0.0
C334 C 0.64212 0.08302 0.34352 0.0
C335 C 0.61972 0.04651 0.36536 0.0
H336 H 0.0385 0.14803 0.75357 0.0
H337 H 0.96475 0.20121 0.7768 0.0
H338 H 0.84885 0.09232 0.7284 0.0
H339 H 0.92299 0.03904 0.70477 0.0
H340 H 0.07134 0.03363 0.74946 0.0
H341 H 0.9867 0.1757 0.68188 0.0
H342 H 0.91326 0.21712 0.64925 0.0
H343 H 0.90153 0.07473 0.58446 0.0
H344 H 0.97186 0.03188 0.61833 0.0
H345 H 0.11609 0.91539 0.65425 0.0
H346 H 0.1618 0.86999 0.60768 0.0
H347 H 0.23401 0.02133 0.58118 0.0
H348 H 0.18752 0.06656 0.62775 0.0
H349 H 0.07178 0.05865 0.62564 0.0
H350 H 0.0899 0.93662 0.7476 0.0
H351 H 0.14735 0.86325 0.76497 0.0
H352 H 0.27986 0.93267 0.71226 0.0
H353 H 0.22298 0.00873 0.69692 0.0
C354 C 0.98608 0.08996 0.72736 0.0
C355 C 0.99736 0.13449 0.7489 0.0
C356 C 0.95534 0.16496 0.76188 0.0
C357 C 0.90165 0.15067 0.75402 0.0
C358 C 0.89013 0.1037 0.73473 0.0
C359 C 0.9323 0.07335 0.72143 0.0
C360 C 0.02961 0.06732 0.70675 0.0
C361 C 0.07171 0.03885 0.72237 0.0
C362 C 0.02966 0.0745 0.67148 0.0
C363 C 0.98454 0.10037 0.6528 0.0
C364 C 0.96719 0.1527 0.66136 0.0
C365 C 0.92532 0.17636 0.64276 0.0
C366 C 0.90181 0.14872 0.61466 0.0
C367 C 0.91901 0.09656 0.60619 0.0
C368 C 0.95947 0.07235 0.62533 0.0
C369 C 0.14884 0.99415 0.64454 0.0
C370 C 0.14284 0.93846 0.63894 0.0
C371 C 0.16858 0.91276 0.61211 0.0
C372 C 0.20092 0.94231 0.59049 0.0
C373 C 0.20927 0.99757 0.59734 0.0
C374 C 0.18296 0.02339 0.62398 0.0
C375 C 0.11261 0.02285 0.66786 0.0
C376 C 0.07202 0.05353 0.65279 0.0
C377 C 0.11266 0.01484 0.70321 0.0
C378 C 0.1513 0.97747 0.71978 0.0
C379 C 0.13188 0.93759 0.74089 0.0
C380 C 0.165 0.89541 0.75092 0.0
C381 C 0.21794 0.89154 0.7394 0.0
C382 C 0.23904 0.93423 0.72119 0.0
C383 C 0.20624 0.97733 0.71198 0.0
Zn384 Zn 0.30144 0.76895 0.94174 0.0
Zn385 Zn 0.33416 0.70136 0.99242 0.0
O386 O 0.25317 0.692 0.99137 0.0
O387 O 0.22417 0.75067 0.95448 0.0
O388 O 0.36277 0.65539 0.02931 0.0
O389 O 0.34611 0.82984 0.96562 0.0
O390 O 0.36655 0.7734 0.00571 0.0
C391 C 0.21459 0.71408 0.97529 0.0
C392 C 0.36468 0.67655 0.91992 0.0
O393 O 0.36766 0.66799 0.95137 0.0
O394 O 0.3377 0.71572 0.90867 0.0
C395 C 0.338 0.6345 0.05339 0.0
O396 O 0.28582 0.64127 0.05583 0.0
C397 C 0.37038 0.8198 0.99331 0.0
Zn398 Zn 0.27993 0.76366 0.2903 0.0
Zn399 Zn 0.33787 0.82513 0.24748 0.0
O400 O 0.26476 0.86198 0.24913 0.0
O401 O 0.21316 0.80648 0.27649 0.0
O402 O 0.38146 0.86513 0.21399 0.0
O403 O 0.30586 0.69514 0.26572 0.0
O404 O 0.34661 0.74812 0.23081 0.0
C405 C 0.21924 0.85013 0.26109 0.0
C406 C 0.36846 0.8259 0.32188 0.0
O407 O 0.37833 0.83795 0.29166 0.0
O408 O 0.32785 0.79722 0.32847 0.0
C409 C 0.3644 0.88046 0.18528 0.0
O410 O 0.31349 0.87313 0.17641 0.0
C411 C 0.33521 0.70108 0.24038 0.0
Zn412 Zn 0.25089 0.75442 0.45888 0.0
Zn413 Zn 0.22521 0.82771 0.50861 0.0
O414 O 0.30648 0.83159 0.51044 0.0
O415 O 0.33036 0.77423 0.47032 0.0
O416 O 0.20276 0.87146 0.5491 0.0
O417 O 0.20815 0.69407 0.48103 0.0
O418 O 0.1852 0.75802 0.51706 0.0
C419 C 0.34294 0.81 0.49277 0.0
C420 C 0.19451 0.8513 0.43621 0.0
O421 O 0.19803 0.86634 0.4672 0.0
O422 O 0.21069 0.80508 0.42661 0.0
C423 C 0.2229 0.91594 0.55996 0.0
O424 O 0.26131 0.9389 0.54317 0.0
C425 C 0.18066 0.70968 0.50593 0.0
Zn426 Zn 0.2946 0.74821 0.70457 0.0
Zn427 Zn 0.23479 0.7207 0.75925 0.0
O428 O 0.22808 0.80244 0.75897 0.0
O429 O 0.27658 0.82653 0.71602 0.0
O430 O 0.19705 0.69634 0.80085 0.0
O431 O 0.36065 0.70973 0.7228 0.0
O432 O 0.30754 0.68327 0.76295 0.0
C433 C 0.24528 0.83876 0.73981 0.0
C434 C 0.19685 0.6849 0.68906 0.0
O435 O 0.18942 0.68927 0.72065 0.0
O436 O 0.2389 0.70403 0.67625 0.0
C437 C 0.14716 0.705 0.8046 0.0
O438 O 0.12079 0.73271 0.78179 0.0
C439 C 0.35262 0.68186 0.74845 0.0
Zn440 Zn 0.77212 0.23944 0.56985 0.0
Zn441 Zn 0.83977 0.20653 0.5192 0.0
O442 O 0.84935 0.28749 0.52031 0.0
O443 O 0.79065 0.3167 0.55718 0.0
O444 O 0.88572 0.17787 0.48228 0.0
O445 O 0.71117 0.19494 0.54588 0.0
O446 O 0.7677 0.17435 0.50582 0.0
C447 C 0.82735 0.32616 0.53639 0.0
C448 C 0.86428 0.17592 0.59166 0.0
O449 O 0.87294 0.17289 0.56022 0.0
O450 O 0.82516 0.20302 0.60291 0.0
C451 C 0.9063 0.20266 0.45809 0.0
O452 O 0.89922 0.25479 0.45562 0.0
C453 C 0.72124 0.17065 0.51818 0.0
Zn454 Zn 0.79283 0.24679 0.80695 0.0
Zn455 Zn 0.82047 0.30643 0.75224 0.0
O456 O 0.73874 0.31308 0.75246 0.0
O457 O 0.71456 0.26473 0.79544 0.0
O458 O 0.84496 0.34402 0.71062 0.0
O459 O 0.83133 0.18066 0.78878 0.0
O460 O 0.85791 0.23366 0.74861 0.0
C461 C 0.70237 0.29591 0.77161 0.0
C462 C 0.85608 0.34463 0.8224 0.0
O463 O 0.85177 0.35195 0.79081 0.0
O464 O 0.83694 0.30261 0.83524 0.0
C465 C 0.83643 0.39393 0.7069 0.0
O466 O 0.80876 0.4204 0.72973 0.0
C467 C 0.85928 0.18862 0.76314 0.0
Zn468 Zn 0.78668 0.29001 0.0521 0.0
Zn469 Zn 0.71343 0.31557 0.00239 0.0
O470 O 0.70972 0.23426 0.00052 0.0
O471 O 0.76708 0.21051 0.04061 0.0
O472 O 0.66967 0.33795 0.96193 0.0
O473 O 0.84696 0.33291 0.03001 0.0
O474 O 0.78303 0.35578 0.99401 0.0
C475 C 0.73136 0.19786 0.01817 0.0
C476 C 0.68968 0.34621 0.07481 0.0
O477 O 0.67468 0.34267 0.04382 0.0
O478 O 0.73591 0.33012 0.08438 0.0
C479 C 0.62511 0.31788 0.95116 0.0
O480 O 0.60212 0.27958 0.96802 0.0
C481 C 0.83133 0.36043 0.00516 0.0
Zn482 Zn 0.7776 0.26116 0.22088 0.0
Zn483 Zn 0.716 0.20324 0.26364 0.0
O484 O 0.67912 0.27634 0.26195 0.0
O485 O 0.73467 0.32795 0.23463 0.0
O486 O 0.67593 0.15974 0.29713 0.0
O487 O 0.84604 0.23527 0.24551 0.0
O488 O 0.79294 0.19453 0.28036 0.0
C489 C 0.69096 0.32185 0.25 0.0
C490 C 0.71551 0.17251 0.18925 0.0
O491 O 0.70334 0.16268 0.21946 0.0
O492 O 0.7442 0.21313 0.18269 0.0
C493 C 0.66072 0.17686 0.32588 0.0
O494 O 0.66823 0.22776 0.33477 0.0
C495 C 0.84001 0.20593 0.27083 0.0
loop_
_geom_bond_atom_site_label_1
_geom_bond_atom_site_label_2
_geom_bond_distance
_geom_bond_site_symmetry_2
_ccdc_geom_bond_type
H0 C19 0.949 1_455 S
H1 C20 0.950 . S
H2 C22 0.950 . S
H3 C23 0.950 . S
H4 C25 0.950 . S
H5 C28 0.950 . S
H6 C29 0.950 . S
H7 C31 0.951 . S
H8 C32 0.949 1_565 S
H9 C34 0.949 . S
H10 C35 0.950 . S
H11 C37 0.950 . S
H12 C38 0.950 . S
H13 C40 0.950 . S
H14 C43 0.950 . S
H15 C44 0.950 . S
H16 C46 0.951 . S
H17 C47 0.949 1_545 S
C18 C19 1.376 . S
C18 C23 1.386 . S
C18 C24 1.483 1_655 S
C19 H0 0.949 1_655 S
C19 C18 1.376 . S
C19 C20 1.397 . S
C20 H1 0.950 . S
C20 C19 1.397 . S
C20 C21 1.391 . S
C21 C20 1.391 . S
C21 C22 1.405 . S
C22 H2 0.950 . S
C22 C21 1.405 . S
C22 C23 1.367 . S
C23 H3 0.950 . S
C23 C18 1.386 . S
C23 C22 1.367 . S
C24 C18 1.483 1_455 S
C24 C25 1.382 . S
C24 C26 1.403 . S
C25 H4 0.950 . S
C25 C24 1.382 . S
C25 C41 1.411 1_545 S
C26 C24 1.403 . S
C26 C27 1.489 1_455 S
C26 C40 1.411 1_545 S
C27 C26 1.489 1_655 S
C27 C28 1.383 . S
C27 C32 1.382 . S
C28 H5 0.950 . S
C28 C27 1.383 . S
C28 C29 1.395 . S
C29 H6 0.950 . S
C29 C28 1.395 . S
C29 C30 1.288 . S
C30 C29 1.288 . S
C30 C31 1.392 . S
C31 H7 0.951 . S
C31 C30 1.392 . S
C31 C32 1.392 . S
C32 H8 0.949 1_545 S
C32 C27 1.382 . S
C32 C31 1.392 . S
C33 C34 1.376 . S
C33 C38 1.386 . S
C33 C39 1.483 . S
C34 H9 0.949 . S
C34 C33 1.376 . S
C34 C35 1.397 . S
C35 H10 0.950 . S
C35 C34 1.397 . S
C35 C36 1.391 . S
C36 C35 1.391 . S
C36 C37 1.405 . S
C37 H11 0.950 . S
C37 C36 1.405 . S
C37 C38 1.367 . S
C38 H12 0.950 . S
C38 C33 1.386 . S
C38 C37 1.367 . S
C39 C33 1.483 . S
C39 C40 1.382 . S
C39 C41 1.403 . S
C40 H13 0.950 . S
C40 C26 1.411 1_565 S
C40 C39 1.382 . S
C41 C25 1.411 1_565 S
C41 C39 1.403 . S
C41 C42 1.489 . S
C42 C41 1.489 . S
C42 C43 1.383 . S
C42 C47 1.382 . S
C43 H14 0.950 . S
C43 C42 1.383 . S
C43 C44 1.395 . S
C44 H15 0.950 . S
C44 C43 1.395 . S
C44 C45 1.288 . S
C45 C44 1.288 . S
C45 C46 1.392 . S
C46 H16 0.951 . S
C46 C45 1.392 . S
C46 C47 1.392 . S
C47 H17 0.949 1_565 S
C47 C42 1.382 . S
C47 C46 1.392 . S
H48 C67 0.949 1_455 S
H49 C68 0.950 . S
H50 C70 0.950 . S
H51 C71 0.950 . S
H52 C73 0.950 . S
H53 C76 0.950 . S
H54 C77 0.950 . S
H55 C79 0.951 . S
H56 C80 0.949 . S
H57 C82 0.949 1_655 S
H58 C83 0.950 . S
H59 C85 0.950 . S
H60 C86 0.950 . S
H61 C88 0.950 1_655 S
H62 C91 0.950 . S
H63 C92 0.950 . S
H64 C94 0.951 . S
H65 C95 0.949 . S
C66 C67 1.376 . S
C66 C71 1.386 . S
C66 C72 1.483 . S
C67 H48 0.949 1_655 S
C67 C66 1.376 . S
C67 C68 1.397 . S
C68 H49 0.950 . S
C68 C67 1.397 . S
C68 C69 1.391 . S
C69 C68 1.391 . S
C69 C70 1.405 . S
C70 H50 0.950 . S
C70 C69 1.405 . S
C70 C71 1.367 . S
C71 H51 0.950 . S
C71 C66 1.386 . S
C71 C70 1.367 . S
C72 C66 1.483 . S
C72 C73 1.382 1_655 S
C72 C74 1.403 . S
C73 H52 0.950 . S
C73 C72 1.382 1_455 S
C73 C89 1.411 . S
C74 C72 1.403 . S
C74 C75 1.489 . S
C74 C88 1.411 1_655 S
C75 C74 1.489 . S
C75 C76 1.383 . S
C75 C80 1.382 . S
C76 H53 0.950 . S
C76 C75 1.383 . S
C76 C77 1.395 . S
C77 H54 0.950 . S
C77 C76 1.395 . S
C77 C78 1.288 . S
C78 C77 1.288 . S
C78 C79 1.392 . S
C79 H55 0.951 . S
C79 C78 1.392 . S
C79 C80 1.392 . S
C80 H56 0.949 . S
C80 C75 1.382 . S
C80 C79 1.392 . S
C81 C82 1.376 . S
C81 C86 1.386 . S
C81 C87 1.483 . S
C82 H57 0.949 1_455 S
C82 C81 1.376 . S
C82 C83 1.397 . S
C83 H58 0.950 . S
C83 C82 1.397 . S
C83 C84 1.391 . S
C84 C83 1.391 . S
C84 C85 1.405 . S
C85 H59 0.950 . S
C85 C84 1.405 . S
C85 C86 1.367 . S
C86 H60 0.950 . S
C86 C81 1.386 . S
C86 C85 1.367 . S
C87 C81 1.483 . S
C87 C88 1.381 . S
C87 C89 1.403 . S
C88 H61 0.950 1_455 S
C88 C74 1.411 1_455 S
C88 C87 1.381 . S
C89 C73 1.411 . S
C89 C87 1.403 . S
C89 C90 1.489 . S
C90 C89 1.489 . S
C90 C91 1.383 . S
C90 C95 1.382 . S
C91 H62 0.950 . S
C91 C90 1.383 . S
C91 C92 1.395 . S
C92 H63 0.950 . S
C92 C91 1.395 . S
C92 C93 1.288 . S
C93 C92 1.288 . S
C93 C94 1.392 . S
C94 H64 0.951 . S
C94 C93 1.392 . S
C94 C95 1.392 . S
C95 H65 0.949 . S
C95 C90 1.382 . S
C95 C94 1.392 . S
H96 C115 0.949 . S
H97 C116 0.950 . S
H98 C118 0.950 . S
H99 C119 0.950 . S
H100 C121 0.950 . S
H101 C124 0.950 . S
H102 C125 0.950 . S
H103 C127 0.951 . S
H104 C128 0.949 . S
H105 C130 0.949 . S
H106 C131 0.950 . S
H107 C133 0.950 . S
H108 C134 0.950 . S
H109 C136 0.950 . S
H110 C139 0.950 . S
H111 C140 0.950 . S
H112 C142 0.951 . S
H113 C143 0.949 . S
C114 C115 1.376 . S
C114 C119 1.386 . S
C114 C120 1.483 . S
C115 H96 0.949 . S
C115 C114 1.376 . S
C115 C116 1.397 . S
C116 H97 0.950 . S
C116 C115 1.397 . S
C116 C117 1.391 . S
C117 C116 1.391 . S
C117 C118 1.405 . S
C118 H98 0.950 . S
C118 C117 1.405 . S
C118 C119 1.367 . S
C119 H99 0.950 . S
C119 C114 1.386 . S
C119 C118 1.367 . S
C120 C114 1.483 . S
C120 C121 1.382 . S
C120 C122 1.403 . S
C121 H100 0.950 . S
C121 C120 1.382 . S
C121 C137 1.411 . S
C122 C120 1.403 . S
C122 C123 1.489 . S
C122 C136 1.411 . S
C123 C122 1.489 . S
C123 C124 1.383 . S
C123 C128 1.382 . S
C124 H101 0.950 . S
C124 C123 1.383 . S
C124 C125 1.395 . S
C125 H102 0.950 . S
C125 C124 1.395 . S
C125 C126 1.288 . S
C126 C125 1.288 . S
C126 C127 1.392 . S
C127 H103 0.951 . S
C127 C126 1.392 . S
C127 C128 1.392 . S
C128 H104 0.949 . S
C128 C123 1.382 . S
C128 C127 1.392 . S
C129 C130 1.376 . S
C129 C134 1.386 . S
C129 C135 1.483 . S
C130 H105 0.949 . S
C130 C129 1.376 . S
C130 C131 1.397 . S
C131 H106 0.950 . S
C131 C130 1.397 . S
C131 C132 1.391 . S
C132 C131 1.391 . S
C132 C133 1.405 . S
C133 H107 0.950 . S
C133 C132 1.405 . S
C133 C134 1.367 . S
C134 H108 0.950 . S
C134 C129 1.386 . S
C134 C133 1.367 . S
C135 C129 1.483 . S
C135 C136 1.382 . S
C135 C137 1.403 . S
C136 H109 0.950 . S
C136 C122 1.411 . S
C136 C135 1.382 . S
C137 C121 1.411 . S
C137 C135 1.403 . S
C137 C138 1.489 . S
C138 C137 1.489 . S
C138 C139 1.383 . S
C138 C143 1.382 . S
C139 H110 0.950 . S
C139 C138 1.383 . S
C139 C140 1.395 . S
C140 H111 0.950 . S
C140 C139 1.395 . S
C140 C141 1.288 . S
C141 C140 1.288 . S
C141 C142 1.392 . S
C142 H112 0.951 . S
C142 C141 1.392 . S
C142 C143 1.392 . S
C143 H113 0.949 . S
C143 C138 1.382 . S
C143 C142 1.392 . S
H144 C163 0.949 . S
H145 C164 0.969 . S
H146 C166 0.950 . S
H147 C167 0.950 . S
H148 C169 0.950 1_565 S
H149 C172 0.950 . S
H150 C173 0.950 . S
H151 C175 0.951 . S
H152 C176 0.949 . S
H153 C178 0.949 . S
H154 C179 0.950 . S
H155 C181 0.950 . S
H156 C182 0.950 . S
H157 C184 0.950 . S
H158 C187 0.950 . S
H159 C188 0.950 . S
H160 C190 0.951 . S
H161 C191 0.949 . S
C162 C163 1.376 . S
C162 C167 1.386 . S
C162 C168 1.483 . S
C163 H144 0.949 . S
C163 C162 1.376 . S
C163 C164 1.380 1_554 S
C164 H145 0.969 . S
C164 C163 1.380 1_556 S
C164 C165 1.389 1_556 S
C165 C164 1.389 1_554 S
C165 C166 1.404 . S
C166 H146 0.950 . S
C166 C165 1.404 . S
C166 C167 1.367 . S
C167 H147 0.950 . S
C167 C162 1.386 . S
C167 C166 1.367 . S
C168 C162 1.483 . S
C168 C169 1.382 1_565 S
C168 C170 1.403 . S
C169 H148 0.950 1_545 S
C169 C168 1.382 1_545 S
C169 C185 1.411 . S
C170 C168 1.403 . S
C170 C171 1.489 . S
C170 C184 1.411 1_565 S
C171 C170 1.489 . S
C171 C172 1.383 . S
C171 C176 1.382 . S
C172 H149 0.950 . S
C172 C171 1.383 . S
C172 C173 1.395 . S
C173 H150 0.950 . S
C173 C172 1.395 . S
C173 C174 1.288 . S
C174 C173 1.288 . S
C174 C175 1.392 . S
C175 H151 0.951 . S
C175 C174 1.392 . S
C175 C176 1.392 . S
C176 H152 0.949 . S
C176 C171 1.382 . S
C176 C175 1.392 . S
C177 C178 1.376 . S
C177 C182 1.386 . S
C177 C183 1.483 . S
C178 H153 0.949 . S
C178 C177 1.376 . S
C178 C179 1.397 . S
C179 H154 0.950 . S
C179 C178 1.397 . S
C179 C180 1.391 . S
C180 C179 1.391 . S
C180 C181 1.405 . S
C181 H155 0.950 . S
C181 C180 1.405 . S
C181 C182 1.367 . S
C182 H156 0.950 . S
C182 C177 1.386 . S
C182 C181 1.367 . S
C183 C177 1.483 . S
C183 C184 1.382 . S
C183 C185 1.403 . S
C184 H157 0.950 . S
C184 C170 1.411 1_545 S
C184 C183 1.382 . S
C185 C169 1.411 . S
C185 C183 1.403 . S
C185 C186 1.489 . S
C186 C185 1.489 . S
C186 C187 1.383 . S
C186 C191 1.382 . S
C187 H158 0.950 . S
C187 C186 1.383 . S
C187 C188 1.395 . S
C188 H159 0.950 . S
C188 C187 1.395 . S
C188 C189 1.263 1_554 S
C189 C188 1.263 1_556 S
C189 C190 1.395 . S
C190 H160 0.951 . S
C190 C189 1.395 . S
C190 C191 1.392 1_556 S
C191 H161 0.949 . S
C191 C186 1.382 . S
C191 C190 1.392 1_554 S
H192 C211 0.949 . S
H193 C212 0.950 . S
H194 C214 0.950 . S
H195 C215 0.950 . S
H196 C217 0.950 . S
H197 C220 0.950 . S
H198 C221 0.950 . S
H199 C223 0.951 . S
H200 C224 0.949 . S
H201 C226 0.949 . S
H202 C227 0.950 . S
H203 C229 0.950 . S
H204 C230 0.950 . S
H205 C232 0.950 . S
H206 C235 0.950 . S
H207 C236 0.950 . S
H208 C238 0.951 . S
H209 C239 0.949 . S
C210 C211 1.376 . S
C210 C215 1.386 . S
C210 C216 1.483 . S
C211 H192 0.949 . S
C211 C210 1.376 . S
C211 C212 1.397 . S
C212 H193 0.950 . S
C212 C211 1.397 . S
C212 C213 1.391 . S
C213 C212 1.391 . S
C213 C214 1.405 . S
C214 H194 0.950 . S
C214 C213 1.405 . S
C214 C215 1.367 . S
C215 H195 0.950 . S
C215 C210 1.386 . S
C215 C214 1.367 . S
C216 C210 1.483 . S
C216 C217 1.382 1_455 S
C216 C218 1.403 . S
C217 H196 0.950 . S
C217 C216 1.382 1_655 S
C217 C233 1.411 . S
C218 C216 1.403 . S
C218 C219 1.489 . S
C218 C232 1.411 . S
C219 C218 1.489 . S
C219 C220 1.383 . S
C219 C224 1.382 . S
C220 H197 0.950 . S
C220 C219 1.383 . S
C220 C221 1.395 . S
C221 H198 0.950 . S
C221 C220 1.395 . S
C221 C222 1.288 1_556 S
C222 C221 1.288 1_554 S
C222 C223 1.392 . S
C223 H199 0.951 . S
C223 C222 1.392 . S
C223 C224 1.392 1_554 S
C224 H200 0.949 . S
C224 C219 1.382 . S
C224 C223 1.392 1_556 S
C225 C226 1.376 . S
C225 C230 1.386 . S
C225 C231 1.483 . S
C226 H201 0.949 . S
C226 C225 1.376 . S
C226 C227 1.397 1_556 S
C227 H202 0.950 . S
C227 C226 1.397 1_554 S
C227 C228 1.391 . S
C228 C227 1.391 . S
C228 C229 1.405 1_554 S
C229 H203 0.950 . S
C229 C228 1.405 1_556 S
C229 C230 1.367 . S
C230 H204 0.950 . S
C230 C225 1.386 . S
C230 C229 1.367 . S
C231 C225 1.483 . S
C231 C232 1.382 1_655 S
C231 C233 1.403 . S
C232 H205 0.950 . S
C232 C218 1.411 . S
C232 C231 1.382 1_455 S
C233 C217 1.411 . S
C233 C231 1.403 . S
C233 C234 1.489 . S
C234 C233 1.489 . S
C234 C235 1.383 . S
C234 C239 1.382 . S
C235 H206 0.950 . S
C235 C234 1.383 . S
C235 C236 1.395 . S
C236 H207 0.950 . S
C236 C235 1.395 . S
C236 C237 1.288 . S
C237 C236 1.288 . S
C237 C238 1.392 . S
C238 H208 0.951 . S
C238 C237 1.392 . S
C238 C239 1.392 . S
C239 H209 0.949 . S
C239 C234 1.382 . S
C239 C238 1.392 . S
H240 C259 0.949 . S
H241 C260 0.950 . S
H242 C262 0.950 . S
H243 C263 0.950 . S
H244 C265 0.950 . S
H245 C268 0.950 . S
H246 C269 0.950 . S
H247 C271 0.951 . S
H248 C272 0.949 . S
H249 C274 0.949 . S
H250 C275 0.950 . S
H251 C277 0.950 . S
H252 C278 0.950 . S
H253 C280 0.950 . S
H254 C283 0.950 . S
H255 C284 0.950 . S
H256 C286 0.951 . S
H257 C287 0.949 . S
C258 C259 1.376 . S
C258 C263 1.386 . S
C258 C264 1.483 . S
C259 H240 0.949 . S
C259 C258 1.376 . S
C259 C260 1.397 . S
C260 H241 0.950 . S
C260 C259 1.397 . S
C260 C261 1.391 . S
C261 C260 1.391 . S
C261 C262 1.405 . S
C262 H242 0.950 . S
C262 C261 1.405 . S
C262 C263 1.367 . S
C263 H243 0.950 . S
C263 C258 1.386 . S
C263 C262 1.367 . S
C264 C258 1.483 . S
C264 C265 1.382 . S
C264 C266 1.403 . S
C265 H244 0.950 . S
C265 C264 1.382 . S
C265 C281 1.411 . S
C266 C264 1.403 . S
C266 C267 1.489 . S
C266 C280 1.411 . S
C267 C266 1.489 . S
C267 C268 1.383 . S
C267 C272 1.382 . S
C268 H245 0.950 . S
C268 C267 1.383 . S
C268 C269 1.395 . S
C269 H246 0.950 . S
C269 C268 1.395 . S
C269 C270 1.288 . S
C270 C269 1.288 . S
C270 C271 1.392 . S
C271 H247 0.951 . S
C271 C270 1.392 . S
C271 C272 1.392 . S
C272 H248 0.949 . S
C272 C267 1.382 . S
C272 C271 1.392 . S
C273 C274 1.376 . S
C273 C278 1.386 . S
C273 C279 1.483 . S
C274 H249 0.949 . S
C274 C273 1.376 . S
C274 C275 1.397 . S
C275 H250 0.950 . S
C275 C274 1.397 . S
C275 C276 1.391 . S
C276 C275 1.391 . S
C276 C277 1.405 . S
C277 H251 0.950 . S
C277 C276 1.405 . S
C277 C278 1.367 . S
C278 H252 0.950 . S
C278 C273 1.386 . S
C278 C277 1.367 . S
C279 C273 1.483 . S
C279 C280 1.382 . S
C279 C281 1.403 . S
C280 H253 0.950 . S
C280 C266 1.411 . S
C280 C279 1.382 . S
C281 C265 1.411 . S
C281 C279 1.403 . S
C281 C282 1.489 . S
C282 C281 1.489 . S
C282 C283 1.383 . S
C282 C287 1.382 . S
C283 H254 0.950 . S
C283 C282 1.383 . S
C283 C284 1.395 . S
C284 H255 0.950 . S
C284 C283 1.395 . S
C284 C285 1.288 . S
C285 C284 1.288 . S
C285 C286 1.392 . S
C286 H256 0.951 . S
C286 C285 1.392 . S
C286 C287 1.392 . S
C287 H257 0.949 . S
C287 C282 1.382 . S
C287 C286 1.392 . S
H288 C307 0.949 . S
H289 C308 0.950 . S
H290 C310 0.950 . S
H291 C311 0.950 . S
H292 C313 0.950 . S
H293 C316 0.950 . S
H294 C317 0.950 . S
H295 C319 0.951 . S
H296 C320 0.949 1_545 S
H297 C322 0.949 . S
H298 C323 0.950 . S
H299 C325 0.950 . S
H300 C326 0.950 . S
H301 C328 0.950 . S
H302 C331 0.950 . S
H303 C332 0.950 . S
H304 C334 0.951 . S
H305 C335 0.949 1_565 S
C306 C307 1.376 . S
C306 C311 1.386 . S
C306 C312 1.483 . S
C307 H288 0.949 . S
C307 C306 1.376 . S
C307 C308 1.397 . S
C308 H289 0.950 . S
C308 C307 1.397 . S
C308 C309 1.391 . S
C309 C308 1.391 . S
C309 C310 1.405 . S
C310 H290 0.950 . S
C310 C309 1.405 . S
C310 C311 1.367 . S
C311 H291 0.950 . S
C311 C306 1.386 . S
C311 C310 1.367 . S
C312 C306 1.483 . S
C312 C313 1.382 . S
C312 C314 1.403 . S
C313 H292 0.950 . S
C313 C312 1.382 . S
C313 C329 1.411 1_565 S
C314 C312 1.403 . S
C314 C315 1.489 . S
C314 C328 1.411 1_565 S
C315 C314 1.489 . S
C315 C316 1.383 . S
C315 C320 1.382 . S
C316 H293 0.950 . S
C316 C315 1.383 . S
C316 C317 1.395 . S
C317 H294 0.950 . S
C317 C316 1.395 . S
C317 C318 1.288 . S
C318 C317 1.288 . S
C318 C319 1.392 . S
C319 H295 0.951 . S
C319 C318 1.392 . S
C319 C320 1.392 . S
C320 H296 0.949 1_565 S
C320 C315 1.382 . S
C320 C319 1.392 . S
C321 C322 1.376 . S
C321 C326 1.386 . S
C321 C327 1.483 . S
C322 H297 0.949 . S
C322 C321 1.376 . S
C322 C323 1.397 . S
C323 H298 0.950 . S
C323 C322 1.397 . S
C323 C324 1.391 . S
C324 C323 1.391 . S
C324 C325 1.405 . S
C325 H299 0.950 . S
C325 C324 1.405 . S
C325 C326 1.367 . S
C326 H300 0.950 . S
C326 C321 1.386 . S
C326 C325 1.367 . S
C327 C321 1.483 . S
C327 C328 1.382 . S
C327 C329 1.403 . S
C328 H301 0.950 . S
C328 C314 1.411 1_545 S
C328 C327 1.382 . S
C329 C313 1.411 1_545 S
C329 C327 1.403 . S
C329 C330 1.489 . S
C330 C329 1.489 . S
C330 C331 1.383 . S
C330 C335 1.382 . S
C331 H302 0.950 . S
C331 C330 1.383 . S
C331 C332 1.395 . S
C332 H303 0.950 . S
C332 C331 1.395 . S
C332 C333 1.288 . S
C333 C332 1.288 . S
C333 C334 1.392 . S
C334 H304 0.951 . S
C334 C333 1.392 . S
C334 C335 1.392 . S
C335 H305 0.949 1_545 S
C335 C330 1.382 . S
C335 C334 1.392 . S
H336 C355 0.949 1_455 S
H337 C356 0.950 . S
H338 C358 0.950 . S
H339 C359 0.950 . S
H340 C361 0.950 . S
H341 C364 0.950 1_455 S
H342 C365 0.950 . S
H343 C367 0.951 . S
H344 C368 0.949 . S
H345 C370 0.949 . S
H346 C371 0.950 . S
H347 C373 0.950 . S
H348 C374 0.950 . S
H349 C376 0.950 . S
H350 C379 0.950 . S
H351 C380 0.950 . S
H352 C382 0.951 . S
H353 C383 0.949 1_545 S
C354 C355 1.376 . S
C354 C359 1.386 . S
C354 C360 1.483 1_655 S
C355 H336 0.949 1_655 S
C355 C354 1.376 . S
C355 C356 1.397 . S
C356 H337 0.950 . S
C356 C355 1.397 . S
C356 C357 1.391 . S
C357 C356 1.391 . S
C357 C358 1.405 . S
C358 H338 0.950 . S
C358 C357 1.405 . S
C358 C359 1.367 . S
C359 H339 0.950 . S
C359 C354 1.386 . S
C359 C358 1.367 . S
C360 C354 1.483 1_455 S
C360 C361 1.382 . S
C360 C362 1.403 . S
C361 H340 0.950 . S
C361 C360 1.382 . S
C361 C377 1.411 . S
C362 C360 1.403 . S
C362 C363 1.489 1_455 S
C362 C376 1.411 . S
C363 C362 1.489 1_655 S
C363 C364 1.383 . S
C363 C368 1.382 . S
C364 H341 0.950 1_655 S
C364 C363 1.383 . S
C364 C365 1.395 . S
C365 H342 0.950 . S
C365 C364 1.395 . S
C365 C366 1.288 . S
C366 C365 1.288 . S
C366 C367 1.392 . S
C367 H343 0.951 . S
C367 C366 1.392 . S
C367 C368 1.392 . S
C368 H344 0.949 . S
C368 C363 1.382 . S
C368 C367 1.392 . S
C369 C370 1.376 . S
C369 C374 1.386 . S
C369 C375 1.483 1_565 S
C370 H345 0.949 . S
C370 C369 1.376 . S
C370 C371 1.397 . S
C371 H346 0.950 . S
C371 C370 1.397 . S
C371 C372 1.391 . S
C372 C371 1.391 . S
C372 C373 1.405 . S
C373 H347 0.950 . S
C373 C372 1.405 . S
C373 C374 1.367 . S
C374 H348 0.950 . S
C374 C369 1.386 . S
C374 C373 1.367 . S
C375 C369 1.483 1_545 S
C375 C376 1.382 . S
C375 C377 1.403 . S
C376 H349 0.950 . S
C376 C362 1.411 . S
C376 C375 1.382 . S
C377 C361 1.411 . S
C377 C375 1.403 . S
C377 C378 1.489 1_545 S
C378 C377 1.489 1_565 S
C378 C379 1.383 . S
C378 C383 1.382 . S
C379 H350 0.950 . S
C379 C378 1.383 . S
C379 C380 1.395 . S
C380 H351 0.950 . S
C380 C379 1.395 . S
C380 C381 1.288 . S
C381 C380 1.288 . S
C381 C382 1.392 . S
C382 H352 0.951 . S
C382 C381 1.392 . S
C382 C383 1.392 . S
C383 H353 0.949 1_565 S
C383 C378 1.382 . S
C383 C382 1.392 . S
Zn384 O387 2.031 . S
Zn384 O389 2.049 . S
Zn384 O394 2.067 . S
Zn385 O386 1.962 . S
Zn385 O388 1.986 . S
Zn385 O390 1.996 . S
Zn385 O393 1.943 1_554 S
O386 Zn385 1.962 . S
O386 C391 1.254 1_554 S
O387 Zn384 2.031 . S
O387 C391 1.269 . S
O388 Zn385 1.986 . S
O388 C395 1.262 . S
O389 Zn384 2.049 . S
O389 C397 1.260 1_556 S
O390 Zn385 1.996 . S
O390 C397 1.257 . S
C391 O386 1.254 1_556 S
C391 O387 1.269 . S
C392 O393 1.249 . S
C392 O394 1.270 . S
O393 Zn385 1.943 1_556 S
O393 C392 1.249 . S
O394 Zn384 2.067 . S
O394 C392 1.270 . S
C395 O388 1.262 . S
C395 O396 1.232 . S
O396 C395 1.232 . S
C397 O389 1.260 1_554 S
C397 O390 1.257 . S
Zn398 O401 2.031 . S
Zn398 O403 2.049 . S
Zn398 O408 2.067 . S
Zn399 O400 1.962 . S
Zn399 O402 1.986 . S
Zn399 O404 1.996 . S
Zn399 O407 1.943 . S
O400 Zn399 1.962 . S
O400 C405 1.254 . S
O401 Zn398 2.031 . S
O401 C405 1.269 . S
O402 Zn399 1.986 . S
O402 C409 1.262 . S
O403 Zn398 2.049 . S
O403 C411 1.260 . S
O404 Zn399 1.996 . S
O404 C411 1.257 . S
C405 O400 1.254 . S
C405 O401 1.269 . S
C406 O407 1.249 . S
C406 O408 1.270 . S
O407 Zn399 1.943 . S
O407 C406 1.249 . S
O408 Zn398 2.067 . S
O408 C406 1.270 . S
C409 O402 1.262 . S
C409 O410 1.232 . S
O410 C409 1.232 . S
C411 O403 1.260 . S
C411 O404 1.257 . S
Zn412 O415 2.031 . S
Zn412 O417 2.049 . S
Zn412 O422 2.067 . S
Zn413 O414 1.962 . S
Zn413 O416 1.986 . S
Zn413 O418 1.996 . S
Zn413 O421 1.943 . S
O414 Zn413 1.962 . S
O414 C419 1.254 . S
O415 Zn412 2.031 . S
O415 C419 1.269 . S
O416 Zn413 1.986 . S
O416 C423 1.262 . S
O417 Zn412 2.049 . S
O417 C425 1.260 . S
O418 Zn413 1.996 . S
O418 C425 1.257 . S
C419 O414 1.254 . S
C419 O415 1.269 . S
C420 O421 1.249 . S
C420 O422 1.270 . S
O421 Zn413 1.943 . S
O421 C420 1.249 . S
O422 Zn412 2.067 . S
O422 C420 1.270 . S
C423 O416 1.262 . S
C423 O424 1.232 . S
O424 C423 1.232 . S
C425 O417 1.260 . S
C425 O418 1.257 . S
Zn426 O429 2.031 . S
Zn426 O431 2.049 . S
Zn426 O436 2.067 . S
Zn427 O428 1.962 . S
Zn427 O430 1.986 . S
Zn427 O432 1.996 . S
Zn427 O435 1.943 . S
O428 Zn427 1.962 . S
O428 C433 1.254 . S
O429 Zn426 2.031 . S
O429 C433 1.269 . S
O430 Zn427 1.986 . S
O430 C437 1.262 . S
O431 Zn426 2.049 . S
O431 C439 1.260 . S
O432 Zn427 1.996 . S
O432 C439 1.257 . S
C433 O428 1.254 . S
C433 O429 1.269 . S
C434 O435 1.249 . S
C434 O436 1.270 . S
O435 Zn427 1.943 . S
O435 C434 1.249 . S
O436 Zn426 2.067 . S
O436 C434 1.270 . S
C437 O430 1.262 . S
C437 O438 1.232 . S
O438 C437 1.232 . S
C439 O431 1.260 . S
C439 O432 1.257 . S
Zn440 O443 2.031 . S
Zn440 O445 2.049 . S
Zn440 O450 2.067 . S
Zn441 O442 1.962 . S
Zn441 O444 1.986 . S
Zn441 O446 1.996 . S
Zn441 O449 1.943 . S
O442 Zn441 1.962 . S
O442 C447 1.254 . S
O443 Zn440 2.031 . S
O443 C447 1.269 . S
O444 Zn441 1.986 . S
O444 C451 1.262 . S
O445 Zn440 2.049 . S
O445 C453 1.260 . S
O446 Zn441 1.996 . S
O446 C453 1.257 . S
C447 O442 1.254 . S
C447 O443 1.269 . S
C448 O449 1.249 . S
C448 O450 1.270 . S
O449 Zn441 1.943 . S
O449 C448 1.249 . S
O450 Zn440 2.067 . S
O450 C448 1.270 . S
C451 O444 1.262 . S
C451 O452 1.232 . S
O452 C451 1.232 . S
C453 O445 1.260 . S
C453 O446 1.257 . S
Zn454 O457 2.031 . S
Zn454 O459 2.049 . S
Zn454 O464 2.067 . S
Zn455 O456 1.962 . S
Zn455 O458 1.986 . S
Zn455 O460 1.996 . S
Zn455 O463 1.943 . S
O456 Zn455 1.962 . S
O456 C461 1.254 . S
O457 Zn454 2.031 . S
O457 C461 1.269 . S
O458 Zn455 1.986 . S
O458 C465 1.262 . S
O459 Zn454 2.049 . S
O459 C467 1.260 . S
O460 Zn455 1.996 . S
O460 C467 1.257 . S
C461 O456 1.254 . S
C461 O457 1.269 . S
C462 O463 1.249 . S
C462 O464 1.270 . S
O463 Zn455 1.943 . S
O463 C462 1.249 . S
O464 Zn454 2.067 . S
O464 C462 1.270 . S
C465 O458 1.262 . S
C465 O466 1.232 . S
O466 C465 1.232 . S
C467 O459 1.260 . S
C467 O460 1.257 . S
Zn468 O471 2.031 . S
Zn468 O473 2.049 . S
Zn468 O478 2.067 . S
Zn469 O470 1.962 . S
Zn469 O472 1.986 . S
Zn469 O474 1.996 . S
Zn469 O477 1.943 1_556 S
O470 Zn469 1.962 . S
O470 C475 1.254 1_556 S
O471 Zn468 2.031 . S
O471 C475 1.269 . S
O472 Zn469 1.986 . S
O472 C479 1.262 . S
O473 Zn468 2.049 . S
O473 C481 1.260 . S
O474 Zn469 1.996 . S
O474 C481 1.257 1_556 S
C475 O470 1.254 1_554 S
C475 O471 1.269 . S
C476 O477 1.249 . S
C476 O478 1.270 . S
O477 Zn469 1.943 1_554 S
O477 C476 1.249 . S
O478 Zn468 2.067 . S
O478 C476 1.270 . S
C479 O472 1.262 . S
C479 O480 1.232 . S
O480 C479 1.232 . S
C481 O473 1.260 . S
C481 O474 1.257 1_554 S
Zn482 O485 2.031 . S
Zn482 O487 2.049 . S
Zn482 O492 2.067 . S
Zn483 O484 1.962 . S
Zn483 O486 1.986 . S
Zn483 O488 1.996 . S
Zn483 O491 1.943 . S
O484 Zn483 1.962 . S
O484 C489 1.254 . S
O485 Zn482 2.031 . S
O485 C489 1.269 . S
O486 Zn483 1.986 . S
O486 C493 1.262 . S
O487 Zn482 2.049 . S
O487 C495 1.260 . S
O488 Zn483 1.996 . S
O488 C495 1.257 . S
C489 O484 1.254 . S
C489 O485 1.269 . S
C490 O491 1.249 . S
C490 O492 1.270 . S
O491 Zn483 1.943 . S
O491 C490 1.249 . S
O492 Zn482 2.067 . S
O492 C490 1.270 . S
C493 O486 1.262 . S
C493 O494 1.232 . S
O494 C493 1.232 . S
C495 O487 1.260 . S
C495 O488 1.257 . S
C405 C36 1.925 . S
C425 C93 1.951 . S
C439 C126 2.028 . S
C165 C397 1.884 . S
C222 C391 2.246 1_554 S
C261 C411 1.877 . S
C419 C318 1.991 . S
C433 C381 2.156 . S
C132 C461 2.081 . S
C475 C189 1.952 1_554 S
C30 C495 1.946 . S
C447 C69 2.189 . S
C324 C453 1.858 . S
C357 C467 1.953 . S
C481 C228 1.965 . S
C285 C489 1.970 . S
C420 C45 2.311 . S
C434 C84 2.407 . S
C117 C392 2.219 . S
C174 C409 1.792 . S
C213 C437 1.739 . S
C395 C270 1.684 . S
C406 C309 2.135 . S
C423 C372 1.878 . S
C479 C141 1.870 . S
C490 C180 2.178 . S
C21 C451 1.764 . S
C465 C78 1.665 . S
C493 C333 1.931 . S
C366 C448 2.136 . S
C462 C237 2.429 . S
C476 C276 2.306 . S
