# Generated by pormake.
# Topology wbl, (4,4)-cn, num edge types: 1
# Building blocks:
#     Node 0, Type 0, BuildingBlock: NAWXER_clean_linker_0, # of connection points: 4
#     Node 1, Type 0, BuildingBlock: NAWXER_clean_linker_0, # of connection points: 4
#     Node 2, Type 0, BuildingBlock: NAWXER_clean_linker_0, # of connection points: 4
#     Node 3, Type 0, BuildingBlock: NAWXER_clean_linker_0, # of connection points: 4
#     Node 4, Type 0, BuildingBlock: NAWXER_clean_linker_0, # of connection points: 4
#     Node 5, Type 0, BuildingBlock: NAWXER_clean_linker_0, # of connection points: 4
#     Node 6, Type 0, BuildingBlock: NAWXER_clean_linker_0, # of connection points: 4
#     Node 7, Type 0, BuildingBlock: NAWXER_clean_linker_0, # of connection points: 4
#     Node 8, Type 1, BuildingBlock: GALJAG_clean_sbu_0, # of connection points: 4
#     Node 9, Type 1, BuildingBlock: GALJAG_clean_sbu_0, # of connection points: 4
#     Node 10, Type 1, BuildingBlock: GALJAG_clean_sbu_0, # of connection points: 4
#     Node 11, Type 1, BuildingBlock: GALJAG_clean_sbu_0, # of connection points: 4
#     Node 12, Type 1, BuildingBlock: GALJAG_clean_sbu_0, # of connection points: 4
#     Node 13, Type 1, BuildingBlock: GALJAG_clean_sbu_0, # of connection points: 4
#     Node 14, Type 1, BuildingBlock: GALJAG_clean_sbu_0, # of connection points: 4
#     Node 15, Type 1, BuildingBlock: GALJAG_clean_sbu_0, # of connection points: 4
#     Edge 16, Type (0, 1), BuildingBlock: XUDNAN_clean_linker_2, # of connection points: 2
#     Edge 17, Type (0, 1), BuildingBlock: XUDNAN_clean_linker_2, # of connection points: 2
#     Edge 18, Type (0, 1), BuildingBlock: XUDNAN_clean_linker_2, # of connection points: 2
#     Edge 19, Type (0, 1), BuildingBlock: XUDNAN_clean_linker_2, # of connection points: 2
#     Edge 20, Type (0, 1), BuildingBlock: XUDNAN_clean_linker_2, # of connection points: 2
#     Edge 21, Type (0, 1), BuildingBlock: XUDNAN_clean_linker_2, # of connection points: 2
#     Edge 22, Type (0, 1), BuildingBlock: XUDNAN_clean_linker_2, # of connection points: 2
#     Edge 23, Type (0, 1), BuildingBlock: XUDNAN_clean_linker_2, # of connection points: 2
#     Edge 24, Type (0, 1), BuildingBlock: XUDNAN_clean_linker_2, # of connection points: 2
#     Edge 25, Type (0, 1), BuildingBlock: XUDNAN_clean_linker_2, # of connection points: 2
#     Edge 26, Type (0, 1), BuildingBlock: XUDNAN_clean_linker_2, # of connection points: 2
#     Edge 27, Type (0, 1), BuildingBlock: XUDNAN_clean_linker_2, # of connection points: 2
#     Edge 28, Type (0, 1), BuildingBlock: XUDNAN_clean_linker_2, # of connection points: 2
#     Edge 29, Type (0, 1), BuildingBlock: XUDNAN_clean_linker_2, # of connection points: 2
#     Edge 30, Type (0, 1), BuildingBlock: XUDNAN_clean_linker_2, # of connection points: 2
#     Edge 31, Type (0, 1), BuildingBlock: XUDNAN_clean_linker_2, # of connection points: 2
#     Edge 32, Type (0, 1), BuildingBlock: XUDNAN_clean_linker_2, # of connection points: 2
#     Edge 33, Type (0, 1), BuildingBlock: XUDNAN_clean_linker_2, # of connection points: 2
#     Edge 34, Type (0, 1), BuildingBlock: XUDNAN_clean_linker_2, # of connection points: 2
#     Edge 35, Type (0, 1), BuildingBlock: XUDNAN_clean_linker_2, # of connection points: 2
#     Edge 36, Type (0, 1), BuildingBlock: XUDNAN_clean_linker_2, # of connection points: 2
#     Edge 37, Type (0, 1), BuildingBlock: XUDNAN_clean_linker_2, # of connection points: 2
#     Edge 38, Type (0, 1), BuildingBlock: XUDNAN_clean_linker_2, # of connection points: 2
#     Edge 39, Type (0, 1), BuildingBlock: XUDNAN_clean_linker_2, # of connection points: 2
#     Edge 40, Type (0, 1), BuildingBlock: XUDNAN_clean_linker_2, # of connection points: 2
#     Edge 41, Type (0, 1), BuildingBlock: XUDNAN_clean_linker_2, # of connection points: 2
#     Edge 42, Type (0, 1), BuildingBlock: XUDNAN_clean_linker_2, # of connection points: 2
#     Edge 43, Type (0, 1), BuildingBlock: XUDNAN_clean_linker_2, # of connection points: 2
#     Edge 44, Type (0, 1), BuildingBlock: XUDNAN_clean_linker_2, # of connection points: 2
#     Edge 45, Type (0, 1), BuildingBlock: XUDNAN_clean_linker_2, # of connection points: 2
#     Edge 46, Type (0, 1), BuildingBlock: XUDNAN_clean_linker_2, # of connection points: 2
#     Edge 47, Type (0, 1), BuildingBlock: XUDNAN_clean_linker_2, # of connection points: 2
# Relax obj value: 0.140
# Max RMSD: 0.149
# Mean RMSD: 0.132
data_MOF--net-wbl--node1-GALJAG_clean_sbu_0--node2-NAWXER_clean_linker_0--edge1-XUDNAN_clean_linker_2
_symmetry_space_group_name_H-M    P1
_symmetry_Int_Tables_number       1
_symmetry_cell_setting            triclinic
loop_
_symmetry_equiv_pos_as_xyz
'x, y, z'
_cell_length_a     43.706717
_cell_length_b     43.817037
_cell_length_c     85.148296
_cell_angle_alpha  90.019127
_cell_angle_beta   89.991586
_cell_angle_gamma 90.014586
loop_
_atom_site_label
_atom_site_type_symbol
_atom_site_fract_x
_atom_site_fract_y
_atom_site_fract_z
_atom_type_partial_charge
C0 C 0.07543 0.94277 0.37756 0.0
C1 C 0.09662 0.96189 0.38523 0.0
C2 C 0.0572 0.95409 0.36538 0.0
C3 C 0.05973 0.9847 0.36076 0.0
C4 C 0.10076 0.9918 0.37957 0.0
C5 C 0.08215 0.00322 0.36763 0.0
C6 C 0.03559 0.99888 0.35114 0.0
C7 C 0.0946 0.94832 0.31666 0.0
C8 C 0.07953 0.92501 0.30833 0.0
C9 C 0.07803 0.96889 0.32587 0.0
C10 C 0.04607 0.96651 0.32698 0.0
C11 C 0.04757 0.92253 0.30954 0.0
C12 C 0.03098 0.94326 0.31867 0.0
C13 C 0.02805 0.98933 0.33584 0.0
C14 C 0.92515 0.07736 0.31924 0.0
C15 C 0.90666 0.05696 0.31068 0.0
C16 C 0.95142 0.06701 0.32696 0.0
C17 C 0.95916 0.03587 0.32673 0.0
C18 C 0.91584 0.02625 0.30957 0.0
C19 C 0.94164 0.01583 0.31756 0.0
C20 C 0.9855 0.02368 0.33575 0.0
C21 C 0.92447 0.06694 0.37259 0.0
C22 C 0.93896 0.08809 0.38249 0.0
C23 C 0.9417 0.04914 0.3622 0.0
C24 C 0.97359 0.05305 0.36114 0.0
C25 C 0.97078 0.09179 0.38157 0.0
C26 C 0.9879 0.07453 0.37095 0.0
C27 C 0.99276 0.03268 0.35129 0.0
H28 H 0.07137 0.91973 0.38165 0.0
H29 H 0.03965 0.93959 0.36037 0.0
H30 H 0.11741 0.00692 0.38488 0.0
H31 H 0.08435 0.02694 0.36422 0.0
H32 H 0.11924 0.95066 0.31605 0.0
H33 H 0.09018 0.98709 0.3318 0.0
H34 H 0.03532 0.90498 0.30315 0.0
H35 H 0.0063 0.94117 0.31923 0.0
H36 H 0.91895 0.10118 0.32037 0.0
H37 H 0.96528 0.08329 0.33335 0.0
H38 H 0.90292 0.01003 0.30264 0.0
H39 H 0.94747 0.99184 0.31684 0.0
H40 H 0.89998 0.06339 0.37331 0.0
H41 H 0.93015 0.03183 0.35534 0.0
H42 H 0.9824 0.10794 0.38915 0.0
H43 H 0.01249 0.07764 0.37057 0.0
N44 N 0.0177 0.02008 0.35823 0.0
N45 N 0.00333 0.00215 0.32873 0.0
C46 C 0.93831 0.44 0.62962 0.0
C47 C 0.95763 0.42332 0.63969 0.0
C48 C 0.95039 0.45574 0.61673 0.0
C49 C 0.98196 0.45511 0.61371 0.0
C50 C 0.98894 0.42125 0.63597 0.0
C51 C 0.00101 0.43729 0.62324 0.0
C52 C 0.99584 0.47644 0.60232 0.0
C53 C 0.94895 0.40556 0.57323 0.0
C54 C 0.92516 0.41647 0.56365 0.0
C55 C 0.96869 0.42583 0.5808 0.0
C56 C 0.9649 0.45748 0.57907 0.0
C57 C 0.9214 0.44815 0.5619 0.0
C58 C 0.94125 0.46846 0.56945 0.0
C59 C 0.98651 0.47907 0.58654 0.0
C60 C 0.0721 0.57936 0.56283 0.0
C61 C 0.05191 0.59297 0.55199 0.0
C62 C 0.06234 0.55556 0.57255 0.0
C63 C 0.0317 0.54576 0.57232 0.0
C64 C 0.02189 0.58138 0.55098 0.0
C65 C 0.01188 0.55841 0.56111 0.0
C66 C 0.01999 0.52188 0.58322 0.0
C67 C 0.06186 0.59054 0.61764 0.0
C68 C 0.08567 0.57825 0.6268 0.0
C69 C 0.04416 0.57158 0.60801 0.0
C70 C 0.05027 0.54015 0.60725 0.0
C71 C 0.0923 0.54696 0.62555 0.0
C72 C 0.07466 0.52811 0.61596 0.0
C73 C 0.02936 0.51896 0.59908 0.0
H74 H 0.91416 0.44236 0.63218 0.0
H75 H 0.93534 0.46984 0.60969 0.0
H76 H 0.00439 0.40803 0.64322 0.0
H77 H 0.02545 0.43655 0.62112 0.0
H78 H 0.95232 0.38129 0.5749 0.0
H79 H 0.98725 0.4167 0.58779 0.0
H80 H 0.90352 0.45723 0.55444 0.0
H81 H 0.93811 0.49277 0.5678 0.0
H82 H 0.09538 0.58733 0.56414 0.0
H83 H 0.0789 0.54507 0.58029 0.0
H84 H 0.00584 0.59007 0.54241 0.0
H85 H 0.98834 0.55081 0.56028 0.0
H86 H 0.05599 0.61449 0.6185 0.0
H87 H 0.02501 0.58124 0.60165 0.0
H88 H 0.11076 0.5369 0.63227 0.0
H89 H 0.07964 0.50389 0.61561 0.0
N90 N 0.01698 0.49631 0.60789 0.0
N91 N 0.99883 0.50175 0.57764 0.0
C92 C 0.55243 0.42084 0.87356 0.0
C93 C 0.56855 0.43387 0.88611 0.0
C94 C 0.54214 0.43915 0.8612 0.0
C95 C 0.54786 0.47076 0.86126 0.0
C96 C 0.57571 0.46503 0.8858 0.0
C97 C 0.56537 0.48337 0.87348 0.0
C98 C 0.53101 0.49126 0.85049 0.0
C99 C 0.59408 0.4415 0.81774 0.0
C100 C 0.57945 0.42087 0.80759 0.0
C101 C 0.57697 0.46186 0.82679 0.0
C102 C 0.54492 0.46214 0.82573 0.0
C103 C 0.54737 0.42074 0.80674 0.0
C104 C 0.53025 0.44153 0.81559 0.0
C105 C 0.52695 0.4853 0.83434 0.0
C106 C 0.44626 0.59035 0.81326 0.0
C107 C 0.42793 0.57396 0.80265 0.0
C108 C 0.46686 0.57506 0.82305 0.0
C109 C 0.46887 0.54302 0.82271 0.0
C110 C 0.43037 0.54203 0.80211 0.0
C111 C 0.45061 0.52674 0.81203 0.0
C112 C 0.49079 0.52608 0.83274 0.0
C113 C 0.43164 0.57246 0.87026 0.0
C114 C 0.44771 0.59543 0.87831 0.0
C115 C 0.44696 0.553 0.85988 0.0
C116 C 0.47862 0.55599 0.85761 0.0
C117 C 0.47915 0.59915 0.87551 0.0
C118 C 0.49455 0.5793 0.8654 0.0
C119 C 0.4958 0.53272 0.84876 0.0
H120 H 0.54626 0.3969 0.87379 0.0
H121 H 0.52784 0.42893 0.85225 0.0
H122 H 0.58776 0.47548 0.89554 0.0
H123 H 0.56971 0.50771 0.8739 0.0
H124 H 0.61881 0.44192 0.81864 0.0
H125 H 0.58882 0.47792 0.83432 0.0
H126 H 0.53562 0.40513 0.79892 0.0
H127 H 0.50555 0.44155 0.81452 0.0
H128 H 0.4451 0.61503 0.81373 0.0
H129 H 0.48154 0.58839 0.83065 0.0
H130 H 0.41632 0.52881 0.79413 0.0
H131 H 0.45183 0.50207 0.81143 0.0
H132 H 0.40739 0.56917 0.87228 0.0
H133 H 0.43439 0.53482 0.85416 0.0
H134 H 0.49206 0.61647 0.88172 0.0
H135 H 0.51906 0.58168 0.86393 0.0
N136 N 0.51554 0.51497 0.85699 0.0
N137 N 0.50677 0.5027 0.82614 0.0
C138 C 0.45582 0.89927 0.07633 0.0
C139 C 0.4357 0.91105 0.06496 0.0
C140 C 0.47553 0.91857 0.08457 0.0
C141 C 0.47524 0.95017 0.08181 0.0
C142 C 0.43539 0.94269 0.06222 0.0
C143 C 0.45509 0.96202 0.07051 0.0
C144 C 0.49733 0.9706 0.08978 0.0
C145 C 0.44088 0.93784 0.13194 0.0
C146 C 0.45807 0.92183 0.14323 0.0
C147 C 0.4554 0.95149 0.11905 0.0
C148 C 0.48727 0.94919 0.11726 0.0
C149 C 0.48963 0.91794 0.14076 0.0
C150 C 0.50408 0.93169 0.128 0.0
C151 C 0.50396 0.96872 0.106 0.0
C152 C 0.5732 0.079 0.12212 0.0
C153 C 0.59725 0.06686 0.13108 0.0
C154 C 0.55601 0.06005 0.11228 0.0
C155 C 0.56233 0.02867 0.11154 0.0
C156 C 0.60428 0.0357 0.12985 0.0
C157 C 0.58664 0.01666 0.12032 0.0
C158 C 0.54145 0.00782 0.10322 0.0
C159 C 0.60017 0.05298 0.0675 0.0
C160 C 0.58445 0.0709 0.05643 0.0
C161 C 0.58434 0.03268 0.07718 0.0
C162 C 0.55232 0.03027 0.0763 0.0
C163 C 0.55252 0.06742 0.05508 0.0
C164 C 0.53665 0.04728 0.06489 0.0
C165 C 0.53522 0.00967 0.08699 0.0
H166 H 0.45649 0.87504 0.07882 0.0
H167 H 0.49149 0.9086 0.09283 0.0
H168 H 0.42049 0.95245 0.05339 0.0
H169 H 0.45472 0.98627 0.06803 0.0
H170 H 0.41656 0.94139 0.13356 0.0
H171 H 0.44204 0.96534 0.11106 0.0
H172 H 0.50342 0.90517 0.14903 0.0
H173 H 0.52869 0.92965 0.12684 0.0
H174 H 0.56739 0.10298 0.12297 0.0
H175 H 0.53699 0.0696 0.10577 0.0
H176 H 0.62254 0.02586 0.1368 0.0
H177 H 0.59157 0.99244 0.12002 0.0
H178 H 0.62469 0.05507 0.06897 0.0
H179 H 0.59725 0.01892 0.0854 0.0
H180 H 0.5397 0.08034 0.04647 0.0
H181 H 0.51203 0.04542 0.06376 0.0
N182 N 0.51321 0.9911 0.0809 0.0
N183 N 0.52575 0.98738 0.11202 0.0
C184 C 0.06546 0.56269 0.87474 0.0
C185 C 0.07787 0.54394 0.86294 0.0
C186 C 0.0507 0.54973 0.88773 0.0
C187 C 0.04844 0.51785 0.88919 0.0
C188 C 0.07745 0.51213 0.86504 0.0
C189 C 0.06275 0.49924 0.87797 0.0
C190 C 0.02646 0.50384 0.90026 0.0
C191 C 0.09816 0.5423 0.93316 0.0
C192 C 0.08809 0.5692 0.94066 0.0
C193 C 0.07766 0.52385 0.92488 0.0
C194 C 0.04659 0.53154 0.92419 0.0
C195 C 0.05688 0.577 0.93961 0.0
C196 C 0.0363 0.5581 0.93167 0.0
C197 C 0.02452 0.51124 0.91632 0.0
C198 C 0.92078 0.42716 0.93755 0.0
C199 C 0.9084 0.44623 0.94925 0.0
C200 C 0.94493 0.43722 0.92808 0.0
C201 C 0.95637 0.46709 0.92959 0.0
C202 C 0.92174 0.47516 0.95156 0.0
C203 C 0.94514 0.48553 0.94177 0.0
C204 C 0.98028 0.47943 0.91888 0.0
C205 C 0.90545 0.45167 0.88462 0.0
C206 C 0.91454 0.43085 0.87292 0.0
C207 C 0.92701 0.46441 0.89483 0.0
C208 C 0.95798 0.45608 0.89375 0.0
C209 C 0.94542 0.42195 0.8722 0.0
C210 C 0.96687 0.43449 0.88248 0.0
C211 C 0.98179 0.47277 0.90263 0.0
H212 H 0.06522 0.58726 0.87338 0.0
H213 H 0.03914 0.56464 0.89596 0.0
H214 H 0.08724 0.49712 0.85626 0.0
H215 H 0.06116 0.47461 0.8788 0.0
H216 H 0.12174 0.53496 0.93395 0.0
H217 H 0.08591 0.50315 0.91935 0.0
H218 H 0.04822 0.59776 0.94487 0.0
H219 H 0.01233 0.56438 0.93121 0.0
H220 H 0.91142 0.4047 0.93534 0.0
H221 H 0.95423 0.42168 0.91944 0.0
H222 H 0.91394 0.49014 0.96084 0.0
H223 H 0.95403 0.50835 0.94357 0.0
H224 H 0.88182 0.45882 0.88559 0.0
H225 H 0.91965 0.48164 0.90313 0.0
H226 H 0.95342 0.40645 0.86318 0.0
H227 H 0.99071 0.42809 0.88127 0.0
N228 N 0.005 0.48495 0.8941 0.0
N229 N 0.00165 0.49869 0.92502 0.0
C230 C 0.41338 0.54806 0.13455 0.0
C231 C 0.4253 0.56658 0.1225 0.0
C232 C 0.43276 0.53514 0.1458 0.0
C233 C 0.46441 0.54056 0.14525 0.0
C234 C 0.45695 0.57247 0.12224 0.0
C235 C 0.47629 0.55938 0.13341 0.0
C236 C 0.48561 0.52435 0.15593 0.0
C237 C 0.43522 0.58999 0.18671 0.0
C238 C 0.41706 0.57665 0.1985 0.0
C239 C 0.45575 0.57235 0.17806 0.0
C240 C 0.45844 0.54091 0.18089 0.0
C241 C 0.41981 0.54514 0.20133 0.0
C242 C 0.44045 0.52748 0.19266 0.0
C243 C 0.48149 0.52254 0.17237 0.0
C244 C 0.59647 0.46043 0.19382 0.0
C245 C 0.5858 0.43382 0.20133 0.0
C246 C 0.57646 0.47891 0.18526 0.0
C247 C 0.54531 0.47152 0.18428 0.0
C248 C 0.55427 0.42707 0.20059 0.0
C249 C 0.5342 0.44599 0.19234 0.0
C250 C 0.52461 0.48937 0.17417 0.0
C251 C 0.57639 0.4267 0.14129 0.0
C252 C 0.59265 0.44171 0.12934 0.0
C253 C 0.55646 0.443 0.15101 0.0
C254 C 0.55292 0.47468 0.14914 0.0
C255 C 0.58976 0.4735 0.12779 0.0
C256 C 0.57002 0.48979 0.13757 0.0
C257 C 0.52902 0.49164 0.1578 0.0
H258 H 0.38922 0.54265 0.13498 0.0
H259 H 0.42313 0.52005 0.15458 0.0
H260 H 0.46688 0.58707 0.11334 0.0
H261 H 0.50065 0.56376 0.13273 0.0
H262 H 0.43432 0.61431 0.18449 0.0
H263 H 0.47013 0.5835 0.16943 0.0
H264 H 0.40605 0.53413 0.21026 0.0
H265 H 0.44236 0.5033 0.19514 0.0
H266 H 0.62034 0.46692 0.1944 0.0
H267 H 0.58535 0.49879 0.17922 0.0
H268 H 0.54507 0.40657 0.20587 0.0
H269 H 0.51021 0.4399 0.19164 0.0
H270 H 0.57777 0.40214 0.14256 0.0
H271 H 0.54273 0.43055 0.15943 0.0
H272 H 0.60218 0.48565 0.11873 0.0
H273 H 0.56751 0.51416 0.13583 0.0
N274 N 0.50935 0.50904 0.14934 0.0
N275 N 0.50102 0.50486 0.18087 0.0
C276 C 0.43454 0.90794 0.38182 0.0
C277 C 0.414 0.92441 0.37236 0.0
C278 C 0.45543 0.92334 0.39144 0.0
C279 C 0.45622 0.95539 0.3916 0.0
C280 C 0.41469 0.95645 0.37272 0.0
C281 C 0.43576 0.97177 0.38215 0.0
C282 C 0.47931 0.97223 0.40084 0.0
C283 C 0.41276 0.93461 0.43598 0.0
C284 C 0.42507 0.90972 0.44423 0.0
C285 C 0.43169 0.95363 0.42713 0.0
C286 C 0.4633 0.94825 0.4265 0.0
C287 C 0.45673 0.90429 0.44357 0.0
C288 C 0.47578 0.92369 0.4349 0.0
C289 C 0.48317 0.96848 0.41715 0.0
C290 C 0.55483 0.05758 0.44865 0.0
C291 C 0.58544 0.06076 0.44385 0.0
C292 C 0.53453 0.03957 0.44001 0.0
C293 C 0.54431 0.02472 0.4263 0.0
C294 C 0.5954 0.04521 0.43033 0.0
C295 C 0.57503 0.0273 0.42165 0.0
C296 C 0.52219 0.00658 0.41704 0.0
C297 C 0.5612 0.04588 0.367 0.0
C298 C 0.56067 0.07709 0.37084 0.0
C299 C 0.54809 0.02434 0.377 0.0
C300 C 0.53455 0.03341 0.39118 0.0
C301 C 0.54751 0.08613 0.3852 0.0
C302 C 0.53443 0.06448 0.39525 0.0
C303 C 0.51803 0.01051 0.4007 0.0
H304 H 0.43448 0.88322 0.38173 0.0
H305 H 0.47139 0.91026 0.39847 0.0
H306 H 0.39944 0.96972 0.36537 0.0
H307 H 0.43615 0.9965 0.38203 0.0
H308 H 0.3884 0.93915 0.43622 0.0
H309 H 0.42169 0.97264 0.42083 0.0
H310 H 0.46672 0.88532 0.4499 0.0
H311 H 0.50016 0.91931 0.43457 0.0
H312 H 0.54661 0.0689 0.45915 0.0
H313 H 0.51099 0.03767 0.44388 0.0
H314 H 0.61881 0.04731 0.42631 0.0
H315 H 0.58326 0.01554 0.41129 0.0
H316 H 0.57164 0.03805 0.35618 0.0
H317 H 0.54828 0.00051 0.37359 0.0
H318 H 0.54641 0.11001 0.38842 0.0
H319 H 0.52337 0.07213 0.40593 0.0
N320 N 0.49682 0.9931 0.39326 0.0
N321 N 0.50447 0.98576 0.42468 0.0
C322 C 0.08764 0.94014 0.63949 0.0
C323 C 0.07509 0.92301 0.62711 0.0
C324 C 0.06861 0.95659 0.64962 0.0
C325 C 0.03665 0.95579 0.64772 0.0
C326 C 0.04312 0.9217 0.62545 0.0
C327 C 0.02413 0.93801 0.63561 0.0
C328 C 0.01633 0.97574 0.65713 0.0
C329 C 0.05596 0.91009 0.69164 0.0
C330 C 0.07518 0.92314 0.70305 0.0
C331 C 0.03797 0.92851 0.682 0.0
C332 C 0.03902 0.96041 0.68344 0.0
C333 C 0.07605 0.95508 0.70458 0.0
C334 C 0.0579 0.97354 0.69494 0.0
C335 C 0.01925 0.97987 0.67351 0.0
C336 C 0.91316 0.06296 0.68945 0.0
C337 C 0.92784 0.08082 0.70089 0.0
C338 C 0.92998 0.04259 0.6802 0.0
C339 C 0.96192 0.04039 0.68192 0.0
C340 C 0.95965 0.07832 0.70275 0.0
C341 C 0.9765 0.05834 0.69335 0.0
C342 C 0.98026 0.01809 0.6728 0.0
C343 C 0.93823 0.07592 0.63338 0.0
C344 C 0.91566 0.05943 0.62523 0.0
C345 C 0.95738 0.06112 0.64413 0.0
C346 C 0.9545 0.0296 0.64663 0.0
C347 C 0.91238 0.02805 0.62808 0.0
C348 C 0.93192 0.01319 0.63853 0.0
C349 C 0.97652 0.01295 0.65654 0.0
H350 H 0.1122 0.94192 0.6409 0.0
H351 H 0.07897 0.97086 0.65854 0.0
H352 H 0.03277 0.90841 0.61613 0.0
H353 H 0.99959 0.93713 0.63385 0.0
H354 H 0.05499 0.88558 0.69006 0.0
H355 H 0.02299 0.91776 0.6735 0.0
H356 H 0.09042 0.96575 0.71337 0.0
H357 H 0.05875 0.99809 0.69638 0.0
H358 H 0.88857 0.06415 0.68796 0.0
H359 H 0.91781 0.02809 0.67203 0.0
H360 H 0.97156 0.092 0.7114 0.0
H361 H 0.00103 0.05689 0.69504 0.0
H362 H 0.94116 0.10015 0.63133 0.0
H363 H 0.97499 0.07405 0.65014 0.0
H364 H 0.89535 0.01483 0.62181 0.0
H365 H 0.9296 0.98879 0.64021 0.0
N366 N 0.99477 0.99214 0.64936 0.0
N367 N 0.00144 0.00119 0.68066 0.0
In368 In 0.32073 0.68384 0.00085 0.0
O369 O 0.35545 0.71759 0.01027 0.0
O370 O 0.31108 0.73467 0.00501 0.0
C371 C 0.26425 0.66824 0.99079 0.0
C372 C 0.33108 0.65155 0.02745 0.0
C373 C 0.35169 0.67544 0.97382 0.0
O374 O 0.26861 0.69074 0.99978 0.0
O375 O 0.28807 0.6538 0.98709 0.0
O376 O 0.34844 0.65464 0.98396 0.0
O377 O 0.33982 0.70077 0.97744 0.0
C378 C 0.33762 0.74021 0.01017 0.0
O379 O 0.34991 0.65242 0.01624 0.0
O380 O 0.30671 0.66615 0.02505 0.0
In381 In 0.30276 0.80944 0.25225 0.0
O382 O 0.30609 0.76937 0.23529 0.0
O383 O 0.31423 0.76047 0.25943 0.0
C384 C 0.24197 0.81985 0.25325 0.0
C385 C 0.33882 0.8403 0.23183 0.0
C386 C 0.31765 0.83076 0.28103 0.0
O387 O 0.25362 0.79485 0.25756 0.0
O388 O 0.26081 0.83871 0.24758 0.0
O389 O 0.29545 0.84074 0.27312 0.0
O390 O 0.33288 0.80991 0.27439 0.0
C391 C 0.31324 0.75005 0.24563 0.0
O392 O 0.34637 0.83493 0.24583 0.0
O393 O 0.31269 0.83051 0.22806 0.0
In394 In 0.18822 0.82102 0.50379 0.0
O395 O 0.16056 0.84921 0.52099 0.0
O396 O 0.19679 0.82257 0.53039 0.0
C397 C 0.17064 0.85749 0.47994 0.0
C398 C 0.15449 0.76943 0.50515 0.0
C399 C 0.24856 0.82306 0.49717 0.0
O400 O 0.17429 0.86687 0.49381 0.0
O401 O 0.17549 0.82931 0.47801 0.0
O402 O 0.23197 0.80086 0.49303 0.0
O403 O 0.23499 0.84311 0.50517 0.0
C404 C 0.17505 0.84084 0.53303 0.0
O405 O 0.1825 0.76982 0.50881 0.0
O406 O 0.14421 0.79453 0.50023 0.0
In407 In 0.19101 0.68796 0.75019 0.0
O408 O 0.15642 0.65196 0.75754 0.0
O409 O 0.17695 0.67794 0.77571 0.0
C410 C 0.17645 0.67135 0.72062 0.0
C411 C 0.24999 0.67154 0.7553 0.0
C412 C 0.17412 0.74729 0.74992 0.0
O413 O 0.17336 0.65378 0.73227 0.0
O414 O 0.18748 0.69726 0.72382 0.0
O415 O 0.20172 0.73904 0.74906 0.0
O416 O 0.15528 0.7257 0.7515 0.0
C417 C 0.15873 0.65675 0.77208 0.0
O418 O 0.23466 0.68664 0.76513 0.0
O419 O 0.23589 0.66543 0.74282 0.0
In420 In 0.81364 0.18321 0.50422 0.0
O421 O 0.80027 0.23138 0.51228 0.0
O422 O 0.84737 0.22156 0.50905 0.0
C423 C 0.75791 0.16329 0.49553 0.0
C424 C 0.8267 0.15327 0.53119 0.0
C425 C 0.84038 0.17349 0.47609 0.0
O426 O 0.76291 0.19078 0.49925 0.0
O427 O 0.78085 0.14587 0.49654 0.0
O428 O 0.84704 0.15805 0.48813 0.0
O429 O 0.82088 0.19425 0.47834 0.0
C430 C 0.82749 0.24085 0.51307 0.0
O431 O 0.84638 0.15777 0.52061 0.0
O432 O 0.80039 0.16332 0.52805 0.0
In433 In 0.80795 0.31405 0.7518 0.0
O434 O 0.8532 0.3346 0.74408 0.0
O435 O 0.81783 0.33237 0.72704 0.0
C436 C 0.82162 0.34295 0.77888 0.0
C437 C 0.8222 0.25497 0.74698 0.0
C438 C 0.7467 0.32109 0.75364 0.0
O439 O 0.80821 0.3558 0.76757 0.0
O440 O 0.82864 0.31536 0.77652 0.0
O441 O 0.76019 0.29796 0.75909 0.0
O442 O 0.76383 0.33953 0.74645 0.0
C443 C 0.84506 0.33987 0.73015 0.0
O444 O 0.8096 0.27124 0.73658 0.0
O445 O 0.82653 0.26823 0.75995 0.0
In446 In 0.67831 0.31796 0.00575 0.0
O447 O 0.69376 0.26777 0.00753 0.0
O448 O 0.64645 0.27814 0.00971 0.0
C449 C 0.72951 0.34934 0.99856 0.0
C450 C 0.66879 0.339 0.03505 0.0
C451 C 0.64346 0.3329 0.98077 0.0
O452 O 0.72821 0.32064 0.99692 0.0
O453 O 0.70559 0.36134 0.00401 0.0
O454 O 0.63499 0.33694 0.99477 0.0
O455 O 0.66937 0.3205 0.97928 0.0
C456 C 0.66694 0.25794 0.00992 0.0
O457 O 0.65383 0.34814 0.02329 0.0
O458 O 0.68879 0.31901 0.03209 0.0
In459 In 0.68051 0.19348 0.25455 0.0
O460 O 0.64094 0.17263 0.26827 0.0
O461 O 0.67145 0.2024 0.2804 0.0
C462 C 0.66928 0.1714 0.22554 0.0
C463 C 0.7276 0.15879 0.26423 0.0
C464 C 0.67615 0.25361 0.24841 0.0
O465 O 0.64861 0.1732 0.23589 0.0
O466 O 0.69521 0.18078 0.22986 0.0
O467 O 0.70157 0.23985 0.24828 0.0
O468 O 0.6535 0.23723 0.25199 0.0
C469 C 0.64846 0.18497 0.28114 0.0
O470 O 0.73009 0.1875 0.26309 0.0
O471 O 0.70196 0.14817 0.26021 0.0
H472 H 0.12552 0.93905 0.28778 0.0
H473 H 0.07369 0.86279 0.3064 0.0
H474 H 0.10548 0.82709 0.29089 0.0
H475 H 0.13881 0.90675 0.24817 0.0
H476 H 0.17692 0.92235 0.24713 0.0
H477 H 0.1477 0.94192 0.25817 0.0
H478 H 0.18213 0.94078 0.28298 0.0
H479 H 0.21144 0.9215 0.27199 0.0
H480 H 0.19694 0.90476 0.28983 0.0
H481 H 0.14728 0.79962 0.27614 0.0
H482 H 0.19553 0.78293 0.26359 0.0
H483 H 0.2186 0.87734 0.25395 0.0
C484 C 0.12065 0.91485 0.28847 0.0
C485 C 0.09718 0.90365 0.29829 0.0
C486 C 0.09138 0.87186 0.29882 0.0
C487 C 0.1093 0.85144 0.29005 0.0
C488 C 0.1326 0.86323 0.28064 0.0
C489 C 0.13813 0.89425 0.27973 0.0
C490 C 0.16583 0.90106 0.26967 0.0
C491 C 0.15676 0.91908 0.25491 0.0
C492 C 0.19054 0.91801 0.27919 0.0
C493 C 0.17578 0.86898 0.26555 0.0
C494 C 0.15617 0.84744 0.27183 0.0
C495 C 0.16242 0.81627 0.27087 0.0
C496 C 0.18983 0.80698 0.26371 0.0
C497 C 0.21054 0.82881 0.2576 0.0
C498 C 0.20285 0.86008 0.25813 0.0
H499 H 0.11026 0.60784 0.54128 0.0
H500 H 0.01606 0.64012 0.54089 0.0
H501 H 0.03188 0.68469 0.5256 0.0
H502 H 0.14133 0.68042 0.54926 0.0
H503 H 0.17551 0.6747 0.53778 0.0
H504 H 0.15632 0.64248 0.54642 0.0
H505 H 0.15217 0.61715 0.519 0.0
H506 H 0.17121 0.64944 0.51025 0.0
H507 H 0.13421 0.63765 0.50313 0.0
H508 H 0.05765 0.72747 0.51179 0.0
H509 H 0.09243 0.76825 0.503 0.0
H510 H 0.17063 0.71165 0.51481 0.0
C511 C 0.09276 0.6241 0.53805 0.0
C512 C 0.06163 0.61965 0.5422 0.0
C513 C 0.03984 0.6419 0.53749 0.0
C514 C 0.04862 0.66763 0.52884 0.0
C515 C 0.07939 0.67129 0.52514 0.0
C516 C 0.10122 0.65039 0.52976 0.0
C517 C 0.13317 0.66148 0.52577 0.0
C518 C 0.15272 0.66499 0.5407 0.0
C519 C 0.14859 0.64016 0.51382 0.0
C520 C 0.12585 0.69219 0.5185 0.0
C521 C 0.09462 0.69699 0.51792 0.0
C522 C 0.08214 0.72394 0.51211 0.0
C523 C 0.10212 0.74695 0.50712 0.0
C524 C 0.13422 0.74311 0.50822 0.0
C525 C 0.14619 0.71513 0.51373 0.0
H526 H 0.38594 0.61756 0.81072 0.0
H527 H 0.42028 0.56555 0.77113 0.0
H528 H 0.3813 0.58919 0.75398 0.0
H529 H 0.30854 0.6094 0.80163 0.0
H530 H 0.29736 0.64708 0.80788 0.0
H531 H 0.33017 0.62898 0.81659 0.0
H532 H 0.36391 0.67523 0.80883 0.0
H533 H 0.33113 0.69354 0.8001 0.0
H534 H 0.36522 0.68739 0.78862 0.0
H535 H 0.3363 0.61497 0.74174 0.0
H536 H 0.28727 0.64003 0.73537 0.0
H537 H 0.28185 0.67515 0.78295 0.0
C538 C 0.38567 0.61175 0.79836 0.0
C539 C 0.40615 0.58991 0.79219 0.0
C540 C 0.40467 0.58221 0.77605 0.0
C541 C 0.38278 0.59564 0.76623 0.0
C542 C 0.36258 0.61674 0.77272 0.0
C543 C 0.3638 0.62479 0.78841 0.0
C544 C 0.33789 0.64617 0.79272 0.0
C545 C 0.31728 0.63205 0.80545 0.0
C546 C 0.35029 0.67744 0.79787 0.0
C547 C 0.32149 0.64828 0.77709 0.0
C548 C 0.33634 0.63145 0.76567 0.0
C549 C 0.32466 0.62854 0.75052 0.0
C550 C 0.2968 0.64282 0.74702 0.0
C551 C 0.28089 0.65964 0.75864 0.0
C552 C 0.29372 0.66277 0.77378 0.0
H553 H 0.45093 0.85532 0.05266 0.0
H554 H 0.37565 0.91952 0.05626 0.0
H555 H 0.34278 0.88413 0.04115 0.0
H556 H 0.43429 0.8282 0.01347 0.0
H557 H 0.445 0.78944 0.01793 0.0
H558 H 0.46285 0.82062 0.02824 0.0
H559 H 0.44644 0.797 0.05486 0.0
H560 H 0.42866 0.76572 0.04464 0.0
H561 H 0.40665 0.78833 0.05825 0.0
H562 H 0.31756 0.84022 0.02649 0.0
H563 H 0.30216 0.79142 0.01407 0.0
H564 H 0.39411 0.75647 0.02076 0.0
C565 C 0.42749 0.86196 0.05035 0.0
C566 C 0.41586 0.8902 0.05568 0.0
C567 C 0.38518 0.89815 0.05216 0.0
C568 C 0.36631 0.87816 0.04363 0.0
C569 C 0.37851 0.85038 0.03867 0.0
C570 C 0.40842 0.84234 0.04191 0.0
C571 C 0.41589 0.81087 0.03572 0.0
C572 C 0.44099 0.81239 0.02309 0.0
C573 C 0.42493 0.78921 0.04917 0.0
C574 C 0.38536 0.80218 0.02869 0.0
C575 C 0.3641 0.8253 0.03036 0.0
C576 C 0.33408 0.82205 0.02504 0.0
C577 C 0.32555 0.7943 0.018 0.0
C578 C 0.34695 0.77024 0.01644 0.0
C579 C 0.37726 0.77449 0.02173 0.0
H580 H 0.14954 0.57899 0.93495 0.0
H581 H 0.07657 0.60315 0.96737 0.0
H582 H 0.11281 0.63441 0.98254 0.0
H583 H 0.20556 0.56823 0.96469 0.0
H584 H 0.23664 0.58256 0.95289 0.0
H585 H 0.20421 0.56482 0.9436 0.0
H586 H 0.19591 0.61329 0.92667 0.0
H587 H 0.22829 0.63123 0.93596 0.0
H588 H 0.19149 0.64979 0.93618 0.0
H589 H 0.15771 0.66248 0.99465 0.0
H590 H 0.20828 0.68125 0.0037 0.0
H591 H 0.25188 0.63427 0.96485 0.0
C592 C 0.14099 0.59061 0.94527 0.0
C593 C 0.10988 0.58863 0.94976 0.0
C594 C 0.09998 0.60477 0.96331 0.0
C595 C 0.12048 0.62249 0.97213 0.0
C596 C 0.15095 0.62362 0.96741 0.0
C597 C 0.16121 0.60784 0.95438 0.0
C598 C 0.19545 0.61105 0.95238 0.0
C599 C 0.21139 0.57981 0.95346 0.0
C600 C 0.20323 0.62731 0.93688 0.0
C601 C 0.2029 0.63088 0.9664 0.0
C602 C 0.17691 0.63837 0.9748 0.0
C603 C 0.17823 0.6567 0.98819 0.0
C604 C 0.20695 0.6673 0.99322 0.0
C605 C 0.23384 0.65901 0.98502 0.0
C606 C 0.23166 0.64077 0.9714 0.0
H607 H 0.381 0.62428 0.18876 0.0
H608 H 0.40757 0.57348 0.23032 0.0
H609 H 0.37783 0.60907 0.24681 0.0
H610 H 0.39031 0.696 0.20505 0.0
H611 H 0.3584 0.71339 0.19507 0.0
H612 H 0.37759 0.68127 0.18638 0.0
H613 H 0.32614 0.65199 0.18482 0.0
H614 H 0.30672 0.68412 0.19351 0.0
H615 H 0.30359 0.64687 0.20235 0.0
H616 H 0.35084 0.65384 0.25902 0.0
H617 H 0.32871 0.70405 0.26588 0.0
H618 H 0.32037 0.72572 0.21635 0.0
C619 C 0.38025 0.62037 0.20131 0.0
C620 C 0.39655 0.59599 0.20823 0.0
C621 C 0.39486 0.59165 0.2247 0.0
C622 C 0.3781 0.61183 0.23418 0.0
C623 C 0.36296 0.63608 0.227 0.0
C624 C 0.36373 0.6403 0.21092 0.0
C625 C 0.34773 0.66952 0.2062 0.0
C626 C 0.36983 0.69132 0.19768 0.0
C627 C 0.31935 0.66271 0.19613 0.0
C628 C 0.3388 0.68167 0.22219 0.0
C629 C 0.3474 0.66188 0.23403 0.0
C630 C 0.34352 0.66927 0.24984 0.0
C631 C 0.33098 0.69783 0.25362 0.0
C632 C 0.32265 0.71863 0.24165 0.0
C633 C 0.32609 0.71009 0.22576 0.0
H634 H 0.38285 0.92705 0.46598 0.0
H635 H 0.42086 0.84742 0.44295 0.0
H636 H 0.38277 0.81465 0.45643 0.0
H637 H 0.36417 0.88897 0.50369 0.0
H638 H 0.32958 0.91089 0.50605 0.0
H639 H 0.36188 0.92715 0.49589 0.0
H640 H 0.3276 0.93781 0.47164 0.0
H641 H 0.2953 0.92163 0.48171 0.0
H642 H 0.30659 0.90681 0.46283 0.0
H643 H 0.33585 0.79208 0.46969 0.0
H644 H 0.28605 0.78147 0.48253 0.0
H645 H 0.28118 0.87575 0.49782 0.0
C646 C 0.38342 0.90263 0.46399 0.0
C647 C 0.40464 0.88965 0.45346 0.0
C648 C 0.40485 0.85767 0.45111 0.0
C649 C 0.38332 0.83895 0.45869 0.0
C650 C 0.36222 0.85259 0.46879 0.0
C651 C 0.36245 0.88368 0.47161 0.0
C652 C 0.3365 0.89308 0.4823 0.0
C653 C 0.34877 0.90576 0.49791 0.0
C654 C 0.31525 0.91618 0.47413 0.0
C655 C 0.3209 0.86263 0.48462 0.0
C656 C 0.33605 0.83946 0.47682 0.0
C657 C 0.32419 0.8099 0.47614 0.0
C658 C 0.29592 0.80407 0.48344 0.0
C659 C 0.28004 0.82767 0.49134 0.0
C660 C 0.29313 0.85707 0.49218 0.0
H661 H 0.05818 0.87007 0.71753 0.0
H662 H 0.13548 0.9309 0.7111 0.0
H663 H 0.16839 0.89501 0.72584 0.0
H664 H 0.07971 0.84162 0.75707 0.0
H665 H 0.06655 0.80358 0.75266 0.0
H666 H 0.04836 0.83604 0.74361 0.0
H667 H 0.05883 0.81302 0.71607 0.0
H668 H 0.07695 0.78057 0.72501 0.0
H669 H 0.09743 0.80296 0.7107 0.0
H670 H 0.19411 0.84936 0.73814 0.0
H671 H 0.21027 0.79808 0.74702 0.0
H672 H 0.11586 0.76768 0.74555 0.0
C673 C 0.08195 0.87604 0.7194 0.0
C674 C 0.0943 0.90326 0.71318 0.0
C675 C 0.12547 0.91034 0.71594 0.0
C676 C 0.14432 0.89008 0.72427 0.0
C677 C 0.13154 0.86306 0.72993 0.0
C678 C 0.10098 0.85618 0.72771 0.0
C679 C 0.09328 0.8247 0.73384 0.0
C680 C 0.07063 0.82661 0.74762 0.0
C681 C 0.08091 0.80411 0.72062 0.0
C682 C 0.12452 0.81442 0.73932 0.0
C683 C 0.14626 0.83696 0.73716 0.0
C684 C 0.17719 0.83175 0.74017 0.0
C685 C 0.18616 0.80258 0.74519 0.0
C686 C 0.16427 0.77904 0.7471 0.0
C687 C 0.13303 0.78538 0.74448 0.0
H688 H 0.62625 0.43641 0.78809 0.0
H689 H 0.5743 0.35882 0.80495 0.0
H690 H 0.60809 0.32401 0.78988 0.0
H691 H 0.64198 0.40539 0.74834 0.0
H692 H 0.67975 0.4219 0.74787 0.0
H693 H 0.64958 0.44051 0.75867 0.0
H694 H 0.68295 0.43958 0.78385 0.0
H695 H 0.71318 0.42118 0.77313 0.0
H696 H 0.69822 0.40374 0.79069 0.0
H697 H 0.65219 0.29781 0.77609 0.0
H698 H 0.70143 0.28267 0.76395 0.0
H699 H 0.72188 0.37777 0.75465 0.0
C700 C 0.62178 0.4121 0.78841 0.0
C701 C 0.59785 0.40015 0.79765 0.0
C702 C 0.59249 0.3683 0.79782 0.0
C703 C 0.61152 0.34844 0.7893 0.0
C704 C 0.6353 0.36095 0.78046 0.0
C705 C 0.64018 0.39211 0.7798 0.0
C706 C 0.66815 0.3998 0.77013 0.0
C707 C 0.65932 0.41797 0.75537 0.0
C708 C 0.69202 0.41707 0.78005 0.0
C709 C 0.67902 0.36807 0.76594 0.0
C710 C 0.65975 0.3459 0.77193 0.0
C711 C 0.66701 0.31494 0.77099 0.0
C712 C 0.69496 0.30654 0.76408 0.0
C713 C 0.71507 0.32901 0.75809 0.0
C714 C 0.7065 0.36003 0.75867 0.0
H715 H 0.56498 0.12817 0.04806 0.0
H716 H 0.64203 0.06632 0.04333 0.0
H717 H 0.67106 0.10652 0.02949 0.0
H718 H 0.57395 0.16485 0.00949 0.0
H719 H 0.5625 0.2016 0.01697 0.0
H720 H 0.54742 0.16725 0.02566 0.0
H721 H 0.56679 0.18492 0.05297 0.0
H722 H 0.58204 0.21919 0.04437 0.0
H723 H 0.60666 0.19428 0.05549 0.0
H724 H 0.69316 0.15546 0.018 0.0
H725 H 0.70527 0.20806 0.00919 0.0
H726 H 0.61253 0.23587 0.02035 0.0
C727 C 0.58765 0.12268 0.04379 0.0
C728 C 0.60115 0.09399 0.04685 0.0
C729 C 0.63126 0.08823 0.04136 0.0
C730 C 0.64788 0.11086 0.03336 0.0
C731 C 0.63398 0.13902 0.03078 0.0
C732 C 0.6044 0.14483 0.0357 0.0
C733 C 0.59496 0.17723 0.032 0.0
C734 C 0.56812 0.17775 0.02033 0.0
C735 C 0.58717 0.19494 0.04711 0.0
C736 C 0.62403 0.18898 0.02453 0.0
C737 C 0.64634 0.16669 0.02386 0.0
C738 C 0.6757 0.17296 0.01825 0.0
C739 C 0.6824 0.20285 0.01329 0.0
C740 C 0.65978 0.22592 0.01395 0.0
C741 C 0.6302 0.21863 0.01947 0.0
H742 H 0.8929 0.11286 0.29712 0.0
H743 H 0.85327 0.02446 0.30835 0.0
H744 H 0.80471 0.04048 0.29648 0.0
H745 H 0.82553 0.15589 0.30702 0.0
H746 H 0.83076 0.18363 0.29163 0.0
H747 H 0.86345 0.16472 0.30005 0.0
H748 H 0.88003 0.14656 0.27236 0.0
H749 H 0.84732 0.16534 0.26386 0.0
H750 H 0.8535 0.12521 0.26044 0.0
H751 H 0.76057 0.06536 0.28373 0.0
H752 H 0.72176 0.09917 0.27215 0.0
H753 H 0.78787 0.17314 0.27068 0.0
C754 C 0.87404 0.09686 0.29717 0.0
C755 C 0.87733 0.06711 0.30347 0.0
C756 C 0.85188 0.04699 0.30319 0.0
C757 C 0.82401 0.05595 0.29658 0.0
C758 C 0.82167 0.08527 0.29046 0.0
C759 C 0.8458 0.10558 0.29081 0.0
C760 C 0.83655 0.13623 0.28401 0.0
C761 C 0.83923 0.16161 0.29642 0.0
C762 C 0.85548 0.14377 0.26929 0.0
C763 C 0.80341 0.1299 0.27987 0.0
C764 C 0.79553 0.10021 0.28357 0.0
C765 C 0.76639 0.08868 0.2808 0.0
C766 C 0.74453 0.10808 0.27419 0.0
C767 C 0.7518 0.13878 0.27054 0.0
C768 C 0.78169 0.14979 0.27339 0.0
H769 H 0.94164 0.36431 0.54813 0.0
H770 H 0.86269 0.41942 0.56038 0.0
H771 H 0.82885 0.38199 0.54724 0.0
H772 H 0.91427 0.33917 0.50997 0.0
H773 H 0.93034 0.30151 0.51208 0.0
H774 H 0.94823 0.33357 0.52164 0.0
H775 H 0.94409 0.30588 0.54847 0.0
H776 H 0.92628 0.27375 0.539 0.0
H777 H 0.90728 0.29253 0.55511 0.0
H778 H 0.80349 0.33651 0.53413 0.0
H779 H 0.78898 0.2872 0.52199 0.0
H780 H 0.88492 0.26273 0.51842 0.0
C781 C 0.91723 0.36854 0.54806 0.0
C782 C 0.90477 0.39474 0.55531 0.0
C783 C 0.87274 0.39963 0.55477 0.0
C784 C 0.85335 0.37847 0.54738 0.0
C785 C 0.86641 0.3527 0.54049 0.0
C786 C 0.89764 0.34778 0.54073 0.0
C787 C 0.90598 0.31793 0.53291 0.0
C788 C 0.92588 0.32338 0.51828 0.0
C789 C 0.92183 0.29625 0.54457 0.0
C790 C 0.87451 0.30648 0.52847 0.0
C791 C 0.85194 0.32686 0.53286 0.0
C792 C 0.821 0.32053 0.53051 0.0
C793 C 0.81298 0.2925 0.52362 0.0
C794 C 0.83583 0.27127 0.5192 0.0
C795 C 0.86694 0.27863 0.52152 0.0
H796 H 0.64485 0.04838 0.45208 0.0
H797 H 0.57435 0.11771 0.45585 0.0
H798 H 0.61015 0.15089 0.47047 0.0
H799 H 0.67814 0.06032 0.49049 0.0
H800 H 0.71674 0.05399 0.48379 0.0
H801 H 0.68526 0.03543 0.47403 0.0
H802 H 0.70258 0.05859 0.44746 0.0
H803 H 0.73414 0.07715 0.45713 0.0
H804 H 0.70736 0.09933 0.44579 0.0
H805 H 0.65448 0.17738 0.48368 0.0
H806 H 0.7038 0.19475 0.49481 0.0
H807 H 0.74481 0.10772 0.48263 0.0
C808 C 0.63697 0.07057 0.45595 0.0
C809 C 0.60681 0.08046 0.45285 0.0
C810 C 0.59726 0.10953 0.45826 0.0
C811 C 0.61745 0.12857 0.46651 0.0
C812 C 0.64705 0.11814 0.46933 0.0
C813 C 0.65675 0.08978 0.46425 0.0
C814 C 0.68982 0.0841 0.46863 0.0
C815 C 0.69264 0.05685 0.47991 0.0
C816 C 0.70964 0.07954 0.45387 0.0
C817 C 0.69733 0.11384 0.4768 0.0
C818 C 0.67237 0.13319 0.4771 0.0
C819 C 0.67412 0.16234 0.48362 0.0
C820 C 0.70218 0.17201 0.4899 0.0
C821 C 0.72801 0.15252 0.48966 0.0
C822 C 0.72536 0.12301 0.48312 0.0
H823 H 0.88559 0.12333 0.69169 0.0
H824 H 0.93087 0.08626 0.73278 0.0
H825 H 0.90391 0.12362 0.74957 0.0
H826 H 0.89164 0.19983 0.70278 0.0
H827 H 0.85507 0.21133 0.69499 0.0
H828 H 0.87495 0.17939 0.68652 0.0
H829 H 0.82758 0.14504 0.69133 0.0
H830 H 0.80752 0.17694 0.69985 0.0
H831 H 0.81184 0.14205 0.71084 0.0
H832 H 0.87551 0.16734 0.76151 0.0
H833 H 0.84942 0.21587 0.76766 0.0
H834 H 0.82287 0.22493 0.71878 0.0
C835 C 0.88924 0.12269 0.70427 0.0
C836 C 0.91012 0.10188 0.711 0.0
C837 C 0.91499 0.10214 0.72743 0.0
C838 C 0.89964 0.12309 0.73705 0.0
C839 C 0.8795 0.14362 0.73004 0.0
C840 C 0.87429 0.14363 0.71402 0.0
C841 C 0.85354 0.16974 0.70928 0.0
C842 C 0.86978 0.19134 0.69771 0.0
C843 C 0.82332 0.15771 0.70242 0.0
C844 C 0.84852 0.18483 0.72508 0.0
C845 C 0.86333 0.16914 0.73693 0.0
C846 C 0.86349 0.17963 0.75238 0.0
C847 C 0.84862 0.2072 0.75576 0.0
C848 C 0.83399 0.22404 0.74372 0.0
C849 C 0.83348 0.21233 0.72826 0.0
H850 H 0.89061 0.38782 0.95838 0.0
H851 H 0.86262 0.48304 0.96068 0.0
H852 H 0.81704 0.46825 0.97553 0.0
H853 H 0.81546 0.35977 0.95069 0.0
H854 H 0.82025 0.32511 0.96181 0.0
H855 H 0.85294 0.34314 0.95289 0.0
H856 H 0.87987 0.34533 0.97996 0.0
H857 H 0.84719 0.3274 0.98899 0.0
H858 H 0.86089 0.36355 0.99626 0.0
H859 H 0.77377 0.44401 0.98922 0.0
H860 H 0.73274 0.41107 0.99927 0.0
H861 H 0.78523 0.3307 0.98636 0.0
C862 C 0.87499 0.40567 0.96195 0.0
C863 C 0.88095 0.43681 0.95853 0.0
C864 C 0.85958 0.45918 0.96356 0.0
C865 C 0.83331 0.451 0.97193 0.0
C866 C 0.82824 0.42028 0.97502 0.0
C867 C 0.8482 0.39787 0.97007 0.0
C868 C 0.83593 0.36633 0.97397 0.0
C869 C 0.83084 0.34748 0.95894 0.0
C870 C 0.85725 0.34967 0.98548 0.0
C871 C 0.8058 0.37465 0.98172 0.0
C872 C 0.8022 0.40595 0.98238 0.0
C873 C 0.77628 0.41945 0.98879 0.0
C874 C 0.7531 0.40049 0.99448 0.0
C875 C 0.75575 0.3683 0.99358 0.0
C876 C 0.78263 0.35522 0.98725 0.0
H877 H 0.57527 0.39705 0.22711 0.0
H878 H 0.64543 0.42077 0.19305 0.0
H879 H 0.6796 0.38231 0.20462 0.0
H880 H 0.62591 0.37559 0.26003 0.0
H881 H 0.602 0.34377 0.26544 0.0
H882 H 0.58524 0.37722 0.25662 0.0
H883 H 0.56116 0.34365 0.23479 0.0
H884 H 0.57769 0.31021 0.24356 0.0
H885 H 0.58547 0.31906 0.22328 0.0
H886 H 0.70437 0.33748 0.21803 0.0
H887 H 0.71542 0.28768 0.23052 0.0
H888 H 0.6274 0.29066 0.25397 0.0
C889 C 0.59786 0.39447 0.22209 0.0
C890 C 0.60752 0.4124 0.20919 0.0
C891 C 0.63752 0.40811 0.20318 0.0
C892 C 0.65717 0.38613 0.20963 0.0
C893 C 0.64654 0.3684 0.22206 0.0
C894 C 0.6175 0.37224 0.22816 0.0
C895 C 0.61009 0.34788 0.24017 0.0
C896 C 0.60555 0.36197 0.25654 0.0
C897 C 0.58195 0.32909 0.23514 0.0
C898 C 0.6391 0.32911 0.23947 0.0
C899 C 0.66021 0.34174 0.22928 0.0
C900 C 0.68815 0.32757 0.22617 0.0
C901 C 0.69428 0.29936 0.23333 0.0
C902 C 0.67227 0.28546 0.2432 0.0
C903 C 0.6447 0.30091 0.24654 0.0
H904 H 0.11834 0.90453 0.39325 0.0
H905 H 0.10733 0.99666 0.41135 0.0
H906 H 0.12793 0.98028 0.43678 0.0
H907 H 0.09333 0.86733 0.42777 0.0
H908 H 0.11987 0.83596 0.42635 0.0
H909 H 0.10733 0.85529 0.40884 0.0
H910 H 0.16367 0.86632 0.40126 0.0
H911 H 0.17641 0.84687 0.41872 0.0
H912 H 0.18828 0.88562 0.41505 0.0
H913 H 0.14594 0.95389 0.46076 0.0
H914 H 0.1614 0.91875 0.4819 0.0
H915 H 0.15952 0.84306 0.44898 0.0
C916 C 0.12049 0.92134 0.40251 0.0
C917 C 0.11157 0.95206 0.40011 0.0
C918 C 0.11477 0.97323 0.41262 0.0
C919 C 0.12622 0.9641 0.42722 0.0
C920 C 0.13432 0.93368 0.42922 0.0
C921 C 0.13174 0.91258 0.41724 0.0
C922 C 0.14067 0.88094 0.42284 0.0
C923 C 0.11369 0.85857 0.42136 0.0
C924 C 0.16894 0.86926 0.41394 0.0
C925 C 0.14812 0.88757 0.43989 0.0
C926 C 0.14446 0.9182 0.44326 0.0
C927 C 0.14912 0.92988 0.45827 0.0
C928 C 0.15781 0.90972 0.4702 0.0
C929 C 0.16167 0.87821 0.46707 0.0
C930 C 0.15684 0.86706 0.45169 0.0
H931 H 0.09988 0.56297 0.65698 0.0
H932 H 0.10776 0.63673 0.62324 0.0
H933 H 0.13377 0.66842 0.64333 0.0
H934 H 0.08362 0.60892 0.69006 0.0
H935 H 0.10511 0.58563 0.70358 0.0
H936 H 0.0884 0.56869 0.68634 0.0
H937 H 0.1416 0.5482 0.67795 0.0
H938 H 0.1585 0.56506 0.69519 0.0
H939 H 0.17319 0.57439 0.676 0.0
H940 H 0.15811 0.69219 0.66758 0.0
H941 H 0.17725 0.70644 0.69395 0.0
H942 H 0.15307 0.61652 0.71131 0.0
C943 C 0.10754 0.5856 0.6537 0.0
C944 C 0.10208 0.5973 0.6385 0.0
C945 C 0.11167 0.62736 0.63484 0.0
C946 C 0.12657 0.64542 0.64613 0.0
C947 C 0.1316 0.63308 0.66101 0.0
C948 C 0.1223 0.60385 0.66479 0.0
C949 C 0.12937 0.59615 0.68171 0.0
C950 C 0.09987 0.58947 0.69096 0.0
C951 C 0.15202 0.56937 0.68277 0.0
C952 C 0.14398 0.62569 0.68696 0.0
C953 C 0.14524 0.64671 0.67487 0.0
C954 C 0.15733 0.67585 0.67709 0.0
C955 C 0.16817 0.68372 0.69209 0.0
C956 C 0.16669 0.66255 0.70464 0.0
C957 C 0.15462 0.63315 0.70194 0.0
H958 H 0.41588 0.57417 0.90348 0.0
H959 H 0.44655 0.65764 0.88119 0.0
H960 H 0.42403 0.68781 0.90296 0.0
H961 H 0.34436 0.60325 0.9196 0.0
H962 H 0.34807 0.58176 0.93754 0.0
H963 H 0.36446 0.56733 0.9196 0.0
H964 H 0.4174 0.56352 0.93319 0.0
H965 H 0.40124 0.57815 0.95113 0.0
H966 H 0.43365 0.59695 0.9423 0.0
H967 H 0.39837 0.70852 0.92746 0.0
H968 H 0.37374 0.71804 0.95321 0.0
H969 H 0.36309 0.6205 0.95997 0.0
C970 C 0.4173 0.59884 0.90306 0.0
C971 C 0.43247 0.61374 0.89061 0.0
C972 C 0.43476 0.64596 0.89062 0.0
C973 C 0.42204 0.66319 0.9029 0.0
C974 C 0.4075 0.64776 0.91513 0.0
C975 C 0.40522 0.61628 0.91533 0.0
C976 C 0.39006 0.60507 0.93022 0.0
C977 C 0.35995 0.58837 0.92651 0.0
C978 C 0.4119 0.58473 0.93977 0.0
C979 C 0.38423 0.63511 0.93843 0.0
C980 C 0.39411 0.65952 0.92948 0.0
C981 C 0.39065 0.68957 0.93458 0.0
C982 C 0.37668 0.69476 0.9492 0.0
C983 C 0.36682 0.66999 0.95859 0.0
C984 C 0.37076 0.63985 0.95311 0.0
H985 H 0.40189 0.89411 0.14795 0.0
H986 H 0.48226 0.92737 0.1726 0.0
H987 H 0.45986 0.9111 0.19774 0.0
H988 H 0.34674 0.91719 0.17756 0.0
H989 H 0.32294 0.88395 0.17503 0.0
H990 H 0.3451 0.89826 0.15878 0.0
H991 H 0.37059 0.84526 0.15547 0.0
H992 H 0.34847 0.83079 0.17169 0.0
H993 H 0.38961 0.82794 0.172 0.0
H994 H 0.42972 0.89091 0.22012 0.0
H995 H 0.39333 0.86726 0.23859 0.0
H996 H 0.33157 0.84771 0.19993 0.0
C997 C 0.41466 0.89809 0.15865 0.0
C998 C 0.44402 0.9117 0.15826 0.0
C999 C 0.46006 0.91638 0.17253 0.0
C1000 C 0.44742 0.90747 0.18691 0.0
C1001 C 0.41861 0.894 0.18689 0.0
C1002 C 0.40235 0.8893 0.17318 0.0
C1003 C 0.37193 0.87395 0.17654 0.0
C1004 C 0.34509 0.89458 0.17169 0.0
C1005 C 0.37005 0.84262 0.16845 0.0
C1006 C 0.37379 0.8707 0.19426 0.0
C1007 C 0.40092 0.88251 0.19994 0.0
C1008 C 0.40831 0.88168 0.21584 0.0
C1009 C 0.3875 0.8682 0.22623 0.0
C1010 C 0.35961 0.85576 0.2207 0.0
C1011 C 0.35262 0.85725 0.2045 0.0
H1012 H 0.11428 0.59452 0.85761 0.0
H1013 H 0.06296 0.52339 0.8338 0.0
H1014 H 0.07719 0.54537 0.80822 0.0
H1015 H 0.09512 0.65548 0.83082 0.0
H1016 H 0.13242 0.67297 0.83159 0.0
H1017 H 0.11833 0.6518 0.84822 0.0
H1018 H 0.16654 0.61742 0.84754 0.0
H1019 H 0.18084 0.63858 0.83095 0.0
H1020 H 0.1764 0.59776 0.82963 0.0
H1021 H 0.09595 0.57486 0.78534 0.0
H1022 H 0.12071 0.60897 0.76617 0.0
H1023 H 0.16068 0.66122 0.80435 0.0
C1024 C 0.10608 0.58364 0.847 0.0
C1025 C 0.08775 0.55707 0.8477 0.0
C1026 C 0.07751 0.5434 0.83355 0.0
C1027 C 0.08524 0.55586 0.81896 0.0
C1028 C 0.10328 0.582 0.81866 0.0
C1029 C 0.11378 0.59569 0.83225 0.0
C1030 C 0.13334 0.62337 0.8285 0.0
C1031 C 0.11893 0.65263 0.83518 0.0
C1032 C 0.16623 0.61901 0.83451 0.0
C1033 C 0.13211 0.623 0.81069 0.0
C1034 C 0.11446 0.59901 0.80532 0.0
C1035 C 0.10986 0.59372 0.78938 0.0
C1036 C 0.12398 0.61327 0.77858 0.0
C1037 C 0.1426 0.63773 0.78377 0.0
C1038 C 0.14651 0.64275 0.80006 0.0
H1039 H 0.43806 0.57209 0.09103 0.0
H1040 H 0.36676 0.58903 0.12547 0.0
H1041 H 0.33345 0.60937 0.1045 0.0
H1042 H 0.42651 0.64053 0.06924 0.0
H1043 H 0.43458 0.6231 0.05052 0.0
H1044 H 0.45187 0.60816 0.06809 0.0
H1045 H 0.42955 0.5547 0.06183 0.0
H1046 H 0.412 0.56954 0.04428 0.0
H1047 H 0.38893 0.55049 0.05883 0.0
H1048 H 0.30862 0.62959 0.07985 0.0
H1049 H 0.29501 0.64985 0.05368 0.0
H1050 H 0.38327 0.62092 0.03569 0.0
C1051 C 0.41553 0.58024 0.09424 0.0
C1052 C 0.40507 0.57889 0.10994 0.0
C1053 C 0.37518 0.58939 0.11351 0.0
C1054 C 0.35612 0.60109 0.10169 0.0
C1055 C 0.36726 0.60215 0.08636 0.0
C1056 C 0.39632 0.5921 0.08263 0.0
C1057 C 0.40331 0.59674 0.06538 0.0
C1058 C 0.43068 0.61843 0.06318 0.0
C1059 C 0.40876 0.56603 0.05709 0.0
C1060 C 0.37375 0.61134 0.05999 0.0
C1061 C 0.35314 0.61403 0.07223 0.0
C1062 C 0.32453 0.62747 0.07017 0.0
C1063 C 0.31699 0.63886 0.05526 0.0
C1064 C 0.33805 0.63687 0.04266 0.0
C1065 C 0.36662 0.62258 0.04507 0.0
H1066 H 0.42719 0.87838 0.35165 0.0
H1067 H 0.35312 0.93573 0.36834 0.0
H1068 H 0.31895 0.91406 0.3481 0.0
H1069 H 0.41205 0.88692 0.31197 0.0
H1070 H 0.42142 0.84838 0.30634 0.0
H1071 H 0.43897 0.86507 0.32341 0.0
H1072 H 0.41933 0.82034 0.34056 0.0
H1073 H 0.40188 0.80331 0.32348 0.0
H1074 H 0.37909 0.81124 0.34065 0.0
H1075 H 0.29485 0.89097 0.32452 0.0
H1076 H 0.28163 0.86684 0.29926 0.0
H1077 H 0.37096 0.82369 0.29777 0.0
C1078 C 0.40352 0.88565 0.35132 0.0
C1079 C 0.39267 0.90858 0.36158 0.0
C1080 C 0.36182 0.91821 0.36054 0.0
C1081 C 0.34225 0.90595 0.34915 0.0
C1082 C 0.35385 0.88397 0.33894 0.0
C1083 C 0.38368 0.8737 0.33996 0.0
C1084 C 0.39105 0.85166 0.32676 0.0
C1085 C 0.41743 0.86375 0.31652 0.0
C1086 C 0.39826 0.81974 0.33326 0.0
C1087 C 0.36099 0.85187 0.31791 0.0
C1088 C 0.33979 0.87046 0.32524 0.0
C1089 C 0.31105 0.87597 0.31879 0.0
C1090 C 0.30382 0.86227 0.30441 0.0
C1091 C 0.32522 0.84329 0.29663 0.0
C1092 C 0.35401 0.83774 0.30359 0.0
H1093 H 0.06865 0.92418 0.59527 0.0
H1094 H 0.12701 0.88893 0.63225 0.0
H1095 H 0.16024 0.86469 0.61221 0.0
H1096 H 0.07214 0.85894 0.57018 0.0
H1097 H 0.07244 0.88119 0.55237 0.0
H1098 H 0.05394 0.89585 0.56969 0.0
H1099 H 0.08745 0.94462 0.56823 0.0
H1100 H 0.10614 0.93006 0.55093 0.0
H1101 H 0.12853 0.94104 0.56778 0.0
H1102 H 0.18621 0.84319 0.58772 0.0
H1103 H 0.2028 0.82707 0.56114 0.0
H1104 H 0.12702 0.87733 0.5408 0.0
C1105 C 0.08826 0.91112 0.59919 0.0
C1106 C 0.09515 0.90819 0.61531 0.0
C1107 C 0.12141 0.8915 0.61993 0.0
C1108 C 0.14032 0.87762 0.60865 0.0
C1109 C 0.13273 0.88089 0.59282 0.0
C1110 C 0.10735 0.89734 0.58813 0.0
C1111 C 0.10405 0.89762 0.57047 0.0
C1112 C 0.07386 0.88249 0.56539 0.0
C1113 C 0.10671 0.93028 0.56398 0.0
C1114 C 0.13136 0.87848 0.5659 0.0
C1115 C 0.14773 0.86901 0.5789 0.0
C1116 C 0.17362 0.8506 0.57747 0.0
C1117 C 0.18287 0.84157 0.56235 0.0
C1118 C 0.16625 0.85103 0.54894 0.0
C1119 C 0.14031 0.86983 0.55082 0.0
H1120 H 0.61897 0.40048 0.89468 0.0
H1121 H 0.52894 0.42887 0.91013 0.0
H1122 H 0.53673 0.40224 0.93544 0.0
H1123 H 0.61771 0.32469 0.9139 0.0
H1124 H 0.65767 0.32627 0.91907 0.0
H1125 H 0.64415 0.34554 0.9017 0.0
H1126 H 0.66716 0.39637 0.91185 0.0
H1127 H 0.68076 0.37728 0.9292 0.0
H1128 H 0.65639 0.41028 0.931 0.0
H1129 H 0.55557 0.37637 0.95952 0.0
H1130 H 0.5844 0.35259 0.9812 0.0
H1131 H 0.66217 0.33965 0.95021 0.0
C1132 C 0.60087 0.40057 0.90337 0.0
C1133 C 0.57329 0.41635 0.90062 0.0
C1134 C 0.55008 0.41657 0.91216 0.0
C1135 C 0.5543 0.40152 0.92649 0.0
C1136 C 0.5818 0.38623 0.92898 0.0
C1137 C 0.60468 0.38548 0.91775 0.0
C1138 C 0.63254 0.36852 0.92376 0.0
C1139 C 0.63835 0.33953 0.91403 0.0
C1140 C 0.66088 0.38937 0.92396 0.0
C1141 C 0.62206 0.36069 0.94024 0.0
C1142 C 0.59261 0.3709 0.94293 0.0
C1143 C 0.57849 0.36787 0.95751 0.0
C1144 C 0.59505 0.35438 0.96975 0.0
C1145 C 0.62538 0.34408 0.96733 0.0
C1146 C 0.63884 0.34688 0.95231 0.0
H1147 H 0.57245 0.09782 0.15568 0.0
H1148 H 0.65868 0.07719 0.13292 0.0
H1149 H 0.68637 0.1052 0.15384 0.0
H1150 H 0.5929 0.1739 0.17096 0.0
H1151 H 0.57274 0.16791 0.18917 0.0
H1152 H 0.55968 0.14953 0.17146 0.0
H1153 H 0.56298 0.09695 0.18528 0.0
H1154 H 0.57623 0.11511 0.20298 0.0
H1155 H 0.59861 0.08521 0.19407 0.0
H1156 H 0.70455 0.13301 0.1778 0.0
H1157 H 0.71251 0.15669 0.20377 0.0
H1158 H 0.61441 0.15674 0.21173 0.0
C1159 C 0.59711 0.09993 0.15495 0.0
C1160 C 0.61357 0.08594 0.14265 0.0
C1161 C 0.64583 0.08813 0.14223 0.0
C1162 C 0.66165 0.10399 0.15402 0.0
C1163 C 0.64479 0.11717 0.16616 0.0
C1164 C 0.61325 0.11521 0.16675 0.0
C1165 C 0.6008 0.12913 0.18174 0.0
C1166 C 0.58032 0.15676 0.17811 0.0
C1167 C 0.58365 0.10516 0.1916 0.0
C1168 C 0.6303 0.13884 0.1896 0.0
C1169 C 0.65536 0.13213 0.1803 0.0
C1170 C 0.6851 0.1385 0.18515 0.0
C1171 C 0.68938 0.15193 0.19992 0.0
C1172 C 0.66407 0.15849 0.20975 0.0
C1173 C 0.63417 0.15196 0.20446 0.0
H1174 H 0.94793 0.08897 0.41413 0.0
H1175 H 0.88963 0.12504 0.37741 0.0
H1176 H 0.8596 0.1534 0.39736 0.0
H1177 H 0.88796 0.07656 0.4418 0.0
H1178 H 0.91084 0.08642 0.45867 0.0
H1179 H 0.9288 0.07088 0.4414 0.0
H1180 H 0.96473 0.11787 0.43999 0.0
H1181 H 0.94681 0.13361 0.45724 0.0
H1182 H 0.94845 0.15566 0.4394 0.0
H1183 H 0.83628 0.17777 0.42139 0.0
H1184 H 0.81823 0.19268 0.44781 0.0
H1185 H 0.89006 0.13803 0.4689 0.0
C1186 C 0.92903 0.10315 0.41033 0.0
C1187 C 0.92115 0.10525 0.3943 0.0
C1188 C 0.89593 0.12336 0.38968 0.0
C1189 C 0.87892 0.13957 0.4009 0.0
C1190 C 0.88727 0.13704 0.41666 0.0
C1191 C 0.91153 0.11901 0.42139 0.0
C1192 C 0.91464 0.11866 0.43909 0.0
C1193 C 0.91029 0.0862 0.44562 0.0
C1194 C 0.94549 0.13227 0.44423 0.0
C1195 C 0.88829 0.13926 0.44362 0.0
C1196 C 0.87306 0.14998 0.43051 0.0
C1197 C 0.848 0.16948 0.43174 0.0
C1198 C 0.83799 0.17789 0.44678 0.0
C1199 C 0.85274 0.16645 0.46036 0.0
C1200 C 0.87833 0.14706 0.45872 0.0
H1201 H 0.9018 0.39556 0.64546 0.0
H1202 H 0.98647 0.42304 0.66819 0.0
H1203 H 0.96709 0.40375 0.69339 0.0
H1204 H 0.85248 0.41776 0.67714 0.0
H1205 H 0.82644 0.38622 0.67467 0.0
H1206 H 0.84741 0.4007 0.65805 0.0
H1207 H 0.86924 0.34671 0.65271 0.0
H1208 H 0.84827 0.33204 0.66929 0.0
H1209 H 0.88912 0.3268 0.66818 0.0
H1210 H 0.9387 0.38281 0.71622 0.0
H1211 H 0.90261 0.36114 0.73546 0.0
H1212 H 0.83529 0.34863 0.69851 0.0
C1213 C 0.91628 0.39753 0.65573 0.0
C1214 C 0.9459 0.41049 0.65472 0.0
C1215 C 0.96407 0.41251 0.66849 0.0
C1216 C 0.95316 0.40186 0.68293 0.0
C1217 C 0.92393 0.38937 0.6835 0.0
C1218 C 0.90568 0.38713 0.67031 0.0
C1219 C 0.87484 0.37328 0.67432 0.0
C1220 C 0.84875 0.39584 0.67084 0.0
C1221 C 0.8701 0.3429 0.66561 0.0
C1222 C 0.87864 0.36828 0.69184 0.0
C1223 C 0.90721 0.37766 0.69684 0.0
C1224 C 0.91625 0.37536 0.71246 0.0
C1225 C 0.89558 0.36304 0.7233 0.0
C1226 C 0.86615 0.35327 0.71848 0.0
C1227 C 0.8576 0.35601 0.70253 0.0
H1228 H 0.55481 0.07779 0.3388 0.0
H1229 H 0.59508 0.12796 0.3776 0.0
H1230 H 0.61775 0.16451 0.35878 0.0
H1231 H 0.61818 0.08311 0.31363 0.0
H1232 H 0.59587 0.08695 0.29594 0.0
H1233 H 0.58034 0.06686 0.31254 0.0
H1234 H 0.53318 0.10273 0.31247 0.0
H1235 H 0.54866 0.12305 0.29588 0.0
H1236 H 0.53875 0.14345 0.31355 0.0
H1237 H 0.63959 0.19287 0.33558 0.0
H1238 H 0.65945 0.2103 0.30994 0.0
H1239 H 0.60509 0.14115 0.28643 0.0
C1240 C 0.56833 0.0965 0.34337 0.0
C1241 C 0.5732 0.09999 0.35969 0.0
C1242 C 0.59074 0.12502 0.36517 0.0
C1243 C 0.60375 0.14585 0.35457 0.0
C1244 C 0.59882 0.14144 0.33855 0.0
C1245 C 0.58146 0.11741 0.33299 0.0
C1246 C 0.58101 0.11665 0.31522 0.0
C1247 C 0.59467 0.08662 0.30897 0.0
C1248 C 0.54846 0.12178 0.30891 0.0
C1249 C 0.60151 0.14357 0.31161 0.0
C1250 C 0.6113 0.15778 0.32521 0.0
C1251 C 0.63176 0.18216 0.32486 0.0
C1252 C 0.64292 0.1919 0.31024 0.0
C1253 C 0.63364 0.1772 0.29621 0.0
C1254 C 0.61224 0.15311 0.29694 0.0
H1255 H 0.93502 0.09183 0.59973 0.0
H1256 H 0.85336 0.05939 0.6233 0.0
H1257 H 0.82137 0.08107 0.60204 0.0
H1258 H 0.90299 0.16254 0.58408 0.0
H1259 H 0.92346 0.15943 0.56577 0.0
H1260 H 0.9395 0.14344 0.58343 0.0
H1261 H 0.94384 0.0908 0.56972 0.0
H1262 H 0.92759 0.10655 0.55207 0.0
H1263 H 0.9102 0.07372 0.56118 0.0
H1264 H 0.79855 0.10565 0.57804 0.0
H1265 H 0.78648 0.12984 0.55255 0.0
H1266 H 0.88336 0.14357 0.54393 0.0
C1267 C 0.91036 0.08984 0.60051 0.0
C1268 C 0.89648 0.07435 0.61317 0.0
C1269 C 0.86426 0.07138 0.61368 0.0
C1270 C 0.84599 0.08362 0.6017 0.0
C1271 C 0.86039 0.09843 0.58924 0.0
C1272 C 0.89184 0.10149 0.58853 0.0
C1273 C 0.9017 0.11695 0.57344 0.0
C1274 C 0.91786 0.1474 0.57689 0.0
C1275 C 0.92203 0.09573 0.56352 0.0
C1276 C 0.87089 0.12199 0.56575 0.0
C1277 C 0.84734 0.11144 0.57512 0.0
C1278 C 0.8168 0.11394 0.57059 0.0
C1279 C 0.81018 0.12768 0.5561 0.0
C1280 C 0.834 0.13834 0.54626 0.0
C1281 C 0.86471 0.13533 0.55116 0.0
H1282 H 0.9105 0.37426 0.8589 0.0
H1283 H 0.87015 0.46483 0.85843 0.0
H1284 H 0.83834 0.4502 0.83579 0.0
H1285 H 0.91821 0.36775 0.81839 0.0
H1286 H 0.90944 0.3276 0.81738 0.0
H1287 H 0.92574 0.34337 0.835 0.0
H1288 H 0.88029 0.32234 0.85127 0.0
H1289 H 0.86391 0.30628 0.83369 0.0
H1290 H 0.8417 0.33195 0.84568 0.0
H1291 H 0.81555 0.4282 0.81147 0.0
H1292 H 0.802 0.39952 0.78752 0.0
H1293 H 0.85771 0.32348 0.80328 0.0
C1294 C 0.89467 0.39091 0.85418 0.0
C1295 C 0.89273 0.42066 0.86057 0.0
C1296 C 0.87165 0.4417 0.85402 0.0
C1297 C 0.85358 0.43367 0.84107 0.0
C1298 C 0.85674 0.40448 0.83482 0.0
C1299 C 0.87656 0.38332 0.84121 0.0
C1300 C 0.87722 0.35426 0.83155 0.0
C1301 C 0.90957 0.34789 0.8252 0.0
C1302 C 0.86505 0.3271 0.84112 0.0
C1303 C 0.85537 0.36278 0.81847 0.0
C1304 C 0.84361 0.39175 0.82067 0.0
C1305 C 0.82426 0.40533 0.80972 0.0
C1306 C 0.81682 0.38892 0.79613 0.0
C1307 C 0.82875 0.35928 0.79359 0.0
C1308 C 0.84802 0.34598 0.805 0.0
H1309 H 0.59 0.44775 0.0976 0.0
H1310 H 0.63347 0.39496 0.13443 0.0
H1311 H 0.65979 0.36366 0.11426 0.0
H1312 H 0.57545 0.38604 0.07227 0.0
H1313 H 0.58245 0.40733 0.05451 0.0
H1314 H 0.56905 0.42668 0.07184 0.0
H1315 H 0.61559 0.46334 0.07066 0.0
H1316 H 0.62906 0.44419 0.05326 0.0
H1317 H 0.65375 0.44776 0.07012 0.0
H1318 H 0.68021 0.33743 0.08969 0.0
H1319 H 0.69151 0.31763 0.06303 0.0
H1320 H 0.63311 0.38747 0.04292 0.0
C1321 C 0.60557 0.43003 0.10144 0.0
C1322 C 0.61007 0.42398 0.11755 0.0
C1323 C 0.62984 0.39996 0.12212 0.0
C1324 C 0.64491 0.38219 0.11077 0.0
C1325 C 0.63976 0.38869 0.09495 0.0
C1326 C 0.62049 0.41203 0.09033 0.0
C1327 C 0.61744 0.41352 0.07267 0.0
C1328 C 0.58413 0.40805 0.06753 0.0
C1329 C 0.6297 0.44401 0.06631 0.0
C1330 C 0.63784 0.38723 0.06802 0.0
C1331 C 0.65077 0.37328 0.08097 0.0
C1332 C 0.67026 0.34824 0.07947 0.0
C1333 C 0.67654 0.33716 0.06432 0.0
C1334 C 0.66311 0.351 0.05097 0.0
C1335 C 0.64365 0.37638 0.05292 0.0
loop_
_geom_bond_atom_site_label_1
_geom_bond_atom_site_label_2
_geom_bond_distance
_geom_bond_site_symmetry_2
_ccdc_geom_bond_type
C0 C1 1.384 . S
C0 C2 1.384 . S
C0 H28 0.931 . S
C1 C0 1.384 . S
C1 C4 1.382 . S
C2 C0 1.384 . S
C2 C3 1.381 . S
C2 H29 0.930 . S
C3 C2 1.381 . S
C3 C5 1.381 . S
C3 C6 1.487 . S
C4 C1 1.382 . S
C4 C5 1.387 . S
C4 H30 0.930 . S
C5 C3 1.381 . S
C5 C4 1.387 . S
C5 H31 0.931 1_565 S
C6 C3 1.487 . S
C6 C13 1.399 . S
C6 N44 1.343 1_565 S
C7 C8 1.384 . S
C7 C9 1.384 . S
C7 H32 0.931 . S
C8 C7 1.384 . S
C8 C11 1.382 . S
C9 C7 1.384 . S
C9 C10 1.381 . S
C9 H33 0.930 . S
C10 C9 1.381 . S
C10 C12 1.381 . S
C10 C13 1.487 . S
C11 C8 1.382 . S
C11 C12 1.387 . S
C11 H34 0.930 . S
C12 C10 1.381 . S
C12 C11 1.387 . S
C12 H35 0.931 . S
C13 C6 1.399 . S
C13 C10 1.487 . S
C13 N45 1.331 1_455 S
C14 C15 1.384 . S
C14 C16 1.384 . S
C14 H36 0.931 . S
C15 C14 1.384 . S
C15 C18 1.382 . S
C16 C14 1.384 . S
C16 C17 1.381 . S
C16 H37 0.930 . S
C17 C16 1.381 . S
C17 C19 1.381 . S
C17 C20 1.487 . S
C18 C15 1.382 . S
C18 C19 1.387 . S
C18 H38 0.930 . S
C19 C17 1.381 . S
C19 C18 1.387 . S
C19 H39 0.931 1_545 S
C20 C17 1.487 . S
C20 C27 1.399 . S
C20 N45 1.354 1_545 S
C21 C22 1.384 . S
C21 C23 1.384 . S
C21 H40 0.931 . S
C22 C21 1.384 . S
C22 C25 1.382 . S
C23 C21 1.384 . S
C23 C24 1.381 . S
C23 H41 0.930 . S
C24 C23 1.381 . S
C24 C26 1.381 . S
C24 C27 1.487 . S
C25 C22 1.382 . S
C25 C26 1.387 . S
C25 H42 0.930 . S
C26 C24 1.381 . S
C26 C25 1.387 . S
C26 H43 0.931 . S
C27 C20 1.399 . S
C27 C24 1.487 . S
C27 N44 1.343 1_655 S
H28 C0 0.931 . S
H29 C2 0.930 . S
H30 C4 0.930 . S
H31 C5 0.931 1_545 S
H32 C7 0.931 . S
H33 C9 0.930 . S
H34 C11 0.930 . S
H35 C12 0.931 . S
H36 C14 0.931 . S
H37 C16 0.930 . S
H38 C18 0.930 . S
H39 C19 0.931 1_565 S
H40 C21 0.931 . S
H41 C23 0.930 . S
H42 C25 0.930 . S
H43 C26 0.931 . S
N44 C6 1.343 1_545 S
N44 C27 1.343 1_455 S
N45 C13 1.331 1_655 S
N45 C20 1.354 1_565 S
C46 C47 1.384 . S
C46 C48 1.384 . S
C46 H74 0.931 . S
C47 C46 1.384 . S
C47 C50 1.382 . S
C48 C46 1.384 . S
C48 C49 1.381 . S
C48 H75 0.930 . S
C49 C48 1.381 . S
C49 C51 1.381 . S
C49 C52 1.487 . S
C50 C47 1.382 . S
C50 C51 1.387 . S
C50 H76 0.930 . S
C51 C49 1.381 . S
C51 C50 1.387 . S
C51 H77 0.931 1_655 S
C52 C49 1.487 . S
C52 C59 1.399 . S
C52 N90 1.343 1_655 S
C53 C54 1.384 . S
C53 C55 1.384 . S
C53 H78 0.931 . S
C54 C53 1.384 . S
C54 C57 1.382 . S
C55 C53 1.384 . S
C55 C56 1.381 . S
C55 H79 0.930 . S
C56 C55 1.381 . S
C56 C58 1.381 . S
C56 C59 1.487 . S
C57 C54 1.382 . S
C57 C58 1.387 . S
C57 H80 0.930 . S
C58 C56 1.381 . S
C58 C57 1.387 . S
C58 H81 0.931 . S
C59 C52 1.399 . S
C59 C56 1.487 . S
C59 N91 1.343 . S
C60 C61 1.384 . S
C60 C62 1.384 . S
C60 H82 0.931 . S
C61 C60 1.384 . S
C61 C64 1.382 . S
C62 C60 1.384 . S
C62 C63 1.381 . S
C62 H83 0.930 . S
C63 C62 1.381 . S
C63 C65 1.381 . S
C63 C66 1.487 . S
C64 C61 1.382 . S
C64 C65 1.387 . S
C64 H84 0.930 . S
C65 C63 1.381 . S
C65 C64 1.387 . S
C65 H85 0.931 1_455 S
C66 C63 1.487 . S
C66 C73 1.399 . S
C66 N91 1.343 1_455 S
C67 C68 1.384 . S
C67 C69 1.384 . S
C67 H86 0.931 . S
C68 C67 1.384 . S
C68 C71 1.382 . S
C69 C67 1.384 . S
C69 C70 1.381 . S
C69 H87 0.930 . S
C70 C69 1.381 . S
C70 C72 1.381 . S
C70 C73 1.487 . S
C71 C68 1.382 . S
C71 C72 1.387 . S
C71 H88 0.930 . S
C72 C70 1.381 . S
C72 C71 1.387 . S
C72 H89 0.931 . S
C73 C66 1.399 . S
C73 C70 1.487 . S
C73 N90 1.343 . S
H74 C46 0.931 . S
H75 C48 0.930 . S
H76 C50 0.930 . S
H77 C51 0.931 1_455 S
H78 C53 0.931 . S
H79 C55 0.930 . S
H80 C57 0.930 . S
H81 C58 0.931 . S
H82 C60 0.931 . S
H83 C62 0.930 . S
H84 C64 0.930 . S
H85 C65 0.931 1_655 S
H86 C67 0.931 . S
H87 C69 0.930 . S
H88 C71 0.930 . S
H89 C72 0.931 . S
N90 C52 1.343 1_455 S
N90 C73 1.343 . S
N91 C59 1.343 . S
N91 C66 1.343 1_655 S
C92 C93 1.384 . S
C92 C94 1.384 . S
C92 H120 0.931 . S
C93 C92 1.384 . S
C93 C96 1.382 . S
C94 C92 1.384 . S
C94 C95 1.381 . S
C94 H121 0.930 . S
C95 C94 1.381 . S
C95 C97 1.381 . S
C95 C98 1.487 . S
C96 C93 1.382 . S
C96 C97 1.387 . S
C96 H122 0.930 . S
C97 C95 1.381 . S
C97 C96 1.387 . S
C97 H123 0.931 . S
C98 C95 1.487 . S
C98 C105 1.399 . S
C98 N136 1.343 . S
C99 C100 1.384 . S
C99 C101 1.384 . S
C99 H124 0.931 . S
C100 C99 1.384 . S
C100 C103 1.382 . S
C101 C99 1.384 . S
C101 C102 1.381 . S
C101 H125 0.930 . S
C102 C101 1.381 . S
C102 C104 1.381 . S
C102 C105 1.487 . S
C103 C100 1.382 . S
C103 C104 1.387 . S
C103 H126 0.930 . S
C104 C102 1.381 . S
C104 C103 1.387 . S
C104 H127 0.931 . S
C105 C98 1.399 . S
C105 C102 1.487 . S
C105 N137 1.343 . S
C106 C107 1.384 . S
C106 C108 1.384 . S
C106 H128 0.931 . S
C107 C106 1.384 . S
C107 C110 1.382 . S
C108 C106 1.384 . S
C108 C109 1.381 . S
C108 H129 0.930 . S
C109 C108 1.381 . S
C109 C111 1.381 . S
C109 C112 1.487 . S
C110 C107 1.382 . S
C110 C111 1.387 . S
C110 H130 0.930 . S
C111 C109 1.381 . S
C111 C110 1.387 . S
C111 H131 0.931 . S
C112 C109 1.487 . S
C112 C119 1.399 . S
C112 N137 1.343 . S
C113 C114 1.384 . S
C113 C115 1.384 . S
C113 H132 0.931 . S
C114 C113 1.384 . S
C114 C117 1.382 . S
C115 C113 1.384 . S
C115 C116 1.381 . S
C115 H133 0.930 . S
C116 C115 1.381 . S
C116 C118 1.381 . S
C116 C119 1.487 . S
C117 C114 1.382 . S
C117 C118 1.387 . S
C117 H134 0.930 . S
C118 C116 1.381 . S
C118 C117 1.387 . S
C118 H135 0.931 . S
C119 C112 1.399 . S
C119 C116 1.487 . S
C119 N136 1.343 . S
H120 C92 0.931 . S
H121 C94 0.930 . S
H122 C96 0.930 . S
H123 C97 0.931 . S
H124 C99 0.931 . S
H125 C101 0.930 . S
H126 C103 0.930 . S
H127 C104 0.931 . S
H128 C106 0.931 . S
H129 C108 0.930 . S
H130 C110 0.930 . S
H131 C111 0.931 . S
H132 C113 0.931 . S
H133 C115 0.930 . S
H134 C117 0.930 . S
H135 C118 0.931 . S
N136 C98 1.343 . S
N136 C119 1.343 . S
N137 C105 1.343 . S
N137 C112 1.343 . S
C138 C139 1.384 . S
C138 C140 1.384 . S
C138 H166 0.931 . S
C139 C138 1.384 . S
C139 C142 1.382 . S
C140 C138 1.384 . S
C140 C141 1.381 . S
C140 H167 0.930 . S
C141 C140 1.381 . S
C141 C143 1.381 . S
C141 C144 1.487 . S
C142 C139 1.382 . S
C142 C143 1.387 . S
C142 H168 0.930 . S
C143 C141 1.381 . S
C143 C142 1.387 . S
C143 H169 0.931 . S
C144 C141 1.487 . S
C144 C151 1.399 . S
C144 N182 1.343 1_565 S
C145 C146 1.384 . S
C145 C147 1.384 . S
C145 H170 0.931 . S
C146 C145 1.384 . S
C146 C149 1.382 . S
C147 C145 1.384 . S
C147 C148 1.381 . S
C147 H171 0.930 . S
C148 C147 1.381 . S
C148 C150 1.381 . S
C148 C151 1.487 . S
C149 C146 1.382 . S
C149 C150 1.387 . S
C149 H172 0.930 . S
C150 C148 1.381 . S
C150 C149 1.387 . S
C150 H173 0.931 . S
C151 C144 1.399 . S
C151 C148 1.487 . S
C151 N183 1.346 . S
C152 C153 1.384 . S
C152 C154 1.384 . S
C152 H174 0.931 . S
C153 C152 1.384 . S
C153 C156 1.382 . S
C154 C152 1.384 . S
C154 C155 1.381 . S
C154 H175 0.930 . S
C155 C154 1.381 . S
C155 C157 1.381 . S
C155 C158 1.487 . S
C156 C153 1.382 . S
C156 C157 1.387 . S
C156 H176 0.930 . S
C157 C155 1.381 . S
C157 C156 1.387 . S
C157 H177 0.931 . S
C158 C155 1.487 . S
C158 C165 1.399 . S
C158 N183 1.340 1_545 S
C159 C160 1.384 . S
C159 C161 1.384 . S
C159 H178 0.931 . S
C160 C159 1.384 . S
C160 C163 1.382 . S
C161 C159 1.384 . S
C161 C162 1.381 . S
C161 H179 0.930 . S
C162 C161 1.381 . S
C162 C164 1.381 . S
C162 C165 1.487 . S
C163 C160 1.382 . S
C163 C164 1.387 . S
C163 H180 0.930 . S
C164 C162 1.381 . S
C164 C163 1.387 . S
C164 H181 0.931 . S
C165 C158 1.399 . S
C165 C162 1.487 . S
C165 N182 1.343 . S
H166 C138 0.931 . S
H167 C140 0.930 . S
H168 C142 0.930 . S
H169 C143 0.931 . S
H170 C145 0.931 . S
H171 C147 0.930 . S
H172 C149 0.930 . S
H173 C150 0.931 . S
H174 C152 0.931 . S
H175 C154 0.930 . S
H176 C156 0.930 . S
H177 C157 0.931 . S
H178 C159 0.931 . S
H179 C161 0.930 . S
H180 C163 0.930 . S
H181 C164 0.931 . S
N182 C144 1.343 1_545 S
N182 C165 1.343 . S
N183 C151 1.346 . S
N183 C158 1.340 1_565 S
C184 C185 1.384 . S
C184 C186 1.384 . S
C184 H212 0.931 . S
C185 C184 1.384 . S
C185 C188 1.382 . S
C186 C184 1.384 . S
C186 C187 1.381 . S
C186 H213 0.930 . S
C187 C186 1.381 . S
C187 C189 1.381 . S
C187 C190 1.487 . S
C188 C185 1.382 . S
C188 C189 1.387 . S
C188 H214 0.930 . S
C189 C187 1.381 . S
C189 C188 1.387 . S
C189 H215 0.931 . S
C190 C187 1.487 . S
C190 C197 1.399 . S
C190 N228 1.343 . S
C191 C192 1.384 . S
C191 C193 1.384 . S
C191 H216 0.931 . S
C192 C191 1.384 . S
C192 C195 1.382 . S
C193 C191 1.384 . S
C193 C194 1.381 . S
C193 H217 0.930 . S
C194 C193 1.381 . S
C194 C196 1.381 . S
C194 C197 1.487 . S
C195 C192 1.382 . S
C195 C196 1.387 . S
C195 H218 0.930 . S
C196 C194 1.381 . S
C196 C195 1.387 . S
C196 H219 0.931 . S
C197 C190 1.399 . S
C197 C194 1.487 . S
C197 N229 1.343 1_455 S
C198 C199 1.384 . S
C198 C200 1.384 . S
C198 H220 0.931 . S
C199 C198 1.384 . S
C199 C202 1.382 . S
C200 C198 1.384 . S
C200 C201 1.381 . S
C200 H221 0.930 . S
C201 C200 1.381 . S
C201 C203 1.381 . S
C201 C204 1.487 . S
C202 C199 1.382 . S
C202 C203 1.387 . S
C202 H222 0.930 . S
C203 C201 1.381 . S
C203 C202 1.387 . S
C203 H223 0.931 . S
C204 C201 1.487 . S
C204 C211 1.399 . S
C204 N229 1.343 . S
C205 C206 1.384 . S
C205 C207 1.384 . S
C205 H224 0.931 . S
C206 C205 1.384 . S
C206 C209 1.382 . S
C207 C205 1.384 . S
C207 C208 1.381 . S
C207 H225 0.930 . S
C208 C207 1.381 . S
C208 C210 1.381 . S
C208 C211 1.487 . S
C209 C206 1.382 . S
C209 C210 1.387 . S
C209 H226 0.930 . S
C210 C208 1.381 . S
C210 C209 1.387 . S
C210 H227 0.931 . S
C211 C204 1.399 . S
C211 C208 1.487 . S
C211 N228 1.343 1_655 S
H212 C184 0.931 . S
H213 C186 0.930 . S
H214 C188 0.930 . S
H215 C189 0.931 . S
H216 C191 0.931 . S
H217 C193 0.930 . S
H218 C195 0.930 . S
H219 C196 0.931 . S
H220 C198 0.931 . S
H221 C200 0.930 . S
H222 C202 0.930 . S
H223 C203 0.931 . S
H224 C205 0.931 . S
H225 C207 0.930 . S
H226 C209 0.930 . S
H227 C210 0.931 . S
N228 C190 1.343 . S
N228 C211 1.343 1_455 S
N229 C197 1.343 1_655 S
N229 C204 1.343 . S
C230 C231 1.384 . S
C230 C232 1.384 . S
C230 H258 0.931 . S
C231 C230 1.384 . S
C231 C234 1.382 . S
C232 C230 1.384 . S
C232 C233 1.381 . S
C232 H259 0.930 . S
C233 C232 1.381 . S
C233 C235 1.381 . S
C233 C236 1.487 . S
C234 C231 1.382 . S
C234 C235 1.387 . S
C234 H260 0.930 . S
C235 C233 1.381 . S
C235 C234 1.387 . S
C235 H261 0.931 . S
C236 C233 1.487 . S
C236 C243 1.399 . S
C236 N274 1.343 . S
C237 C238 1.384 . S
C237 C239 1.384 . S
C237 H262 0.931 . S
C238 C237 1.384 . S
C238 C241 1.382 . S
C239 C237 1.384 . S
C239 C240 1.381 . S
C239 H263 0.930 . S
C240 C239 1.381 . S
C240 C242 1.381 . S
C240 C243 1.487 . S
C241 C238 1.382 . S
C241 C242 1.387 . S
C241 H264 0.930 . S
C242 C240 1.381 . S
C242 C241 1.387 . S
C242 H265 0.931 . S
C243 C236 1.399 . S
C243 C240 1.487 . S
C243 N275 1.343 . S
C244 C245 1.384 . S
C244 C246 1.384 . S
C244 H266 0.931 . S
C245 C244 1.384 . S
C245 C248 1.382 . S
C246 C244 1.384 . S
C246 C247 1.381 . S
C246 H267 0.930 . S
C247 C246 1.381 . S
C247 C249 1.381 . S
C247 C250 1.487 . S
C248 C245 1.382 . S
C248 C249 1.387 . S
C248 H268 0.930 . S
C249 C247 1.381 . S
C249 C248 1.387 . S
C249 H269 0.931 . S
C250 C247 1.487 . S
C250 C257 1.399 . S
C250 N275 1.343 . S
C251 C252 1.384 . S
C251 C253 1.384 . S
C251 H270 0.931 . S
C252 C251 1.384 . S
C252 C255 1.382 . S
C253 C251 1.384 . S
C253 C254 1.381 . S
C253 H271 0.930 . S
C254 C253 1.381 . S
C254 C256 1.381 . S
C254 C257 1.487 . S
C255 C252 1.382 . S
C255 C256 1.387 . S
C255 H272 0.930 . S
C256 C254 1.381 . S
C256 C255 1.387 . S
C256 H273 0.931 . S
C257 C250 1.399 . S
C257 C254 1.487 . S
C257 N274 1.343 . S
H258 C230 0.931 . S
H259 C232 0.930 . S
H260 C234 0.930 . S
H261 C235 0.931 . S
H262 C237 0.931 . S
H263 C239 0.930 . S
H264 C241 0.930 . S
H265 C242 0.931 . S
H266 C244 0.931 . S
H267 C246 0.930 . S
H268 C248 0.930 . S
H269 C249 0.931 . S
H270 C251 0.931 . S
H271 C253 0.930 . S
H272 C255 0.930 . S
H273 C256 0.931 . S
N274 C236 1.343 . S
N274 C257 1.343 . S
N275 C243 1.343 . S
N275 C250 1.343 . S
C276 C277 1.384 . S
C276 C278 1.384 . S
C276 H304 0.931 . S
C277 C276 1.384 . S
C277 C280 1.382 . S
C278 C276 1.384 . S
C278 C279 1.381 . S
C278 H305 0.930 . S
C279 C278 1.381 . S
C279 C281 1.381 . S
C279 C282 1.487 . S
C280 C277 1.382 . S
C280 C281 1.387 . S
C280 H306 0.930 . S
C281 C279 1.381 . S
C281 C280 1.387 . S
C281 H307 0.931 1_565 S
C282 C279 1.487 . S
C282 C289 1.399 . S
C282 N320 1.343 1_565 S
C283 C284 1.384 . S
C283 C285 1.384 . S
C283 H308 0.931 . S
C284 C283 1.384 . S
C284 C287 1.382 . S
C285 C283 1.384 . S
C285 C286 1.381 . S
C285 H309 0.930 . S
C286 C285 1.381 . S
C286 C288 1.381 . S
C286 C289 1.487 . S
C287 C284 1.382 . S
C287 C288 1.387 . S
C287 H310 0.930 . S
C288 C286 1.381 . S
C288 C287 1.387 . S
C288 H311 0.931 . S
C289 C282 1.399 . S
C289 C286 1.487 . S
C289 N321 1.343 . S
C290 C291 1.384 . S
C290 C292 1.384 . S
C290 H312 0.931 . S
C291 C290 1.384 . S
C291 C294 1.382 . S
C292 C290 1.384 . S
C292 C293 1.381 . S
C292 H313 0.930 . S
C293 C292 1.381 . S
C293 C295 1.381 . S
C293 C296 1.487 . S
C294 C291 1.382 . S
C294 C295 1.387 . S
C294 H314 0.930 . S
C295 C293 1.381 . S
C295 C294 1.387 . S
C295 H315 0.931 1_545 S
C296 C293 1.487 . S
C296 C303 1.399 . S
C296 N321 1.343 1_545 S
C297 C298 1.384 . S
C297 C299 1.384 . S
C297 H316 0.931 . S
C298 C297 1.384 . S
C298 C301 1.382 . S
C299 C297 1.384 . S
C299 C300 1.381 . S
C299 H317 0.930 . S
C300 C299 1.381 . S
C300 C302 1.381 . S
C300 C303 1.487 . S
C301 C298 1.382 . S
C301 C302 1.387 . S
C301 H318 0.930 . S
C302 C300 1.381 . S
C302 C301 1.387 . S
C302 H319 0.931 . S
C303 C296 1.399 . S
C303 C300 1.487 . S
C303 N320 1.343 . S
H304 C276 0.931 . S
H305 C278 0.930 . S
H306 C280 0.930 . S
H307 C281 0.931 1_545 S
H308 C283 0.931 . S
H309 C285 0.930 . S
H310 C287 0.930 . S
H311 C288 0.931 . S
H312 C290 0.931 . S
H313 C292 0.930 . S
H314 C294 0.930 . S
H315 C295 0.931 1_565 S
H316 C297 0.931 . S
H317 C299 0.930 . S
H318 C301 0.930 . S
H319 C302 0.931 . S
N320 C282 1.343 1_545 S
N320 C303 1.343 . S
N321 C289 1.343 . S
N321 C296 1.343 1_565 S
C322 C323 1.384 . S
C322 C324 1.384 . S
C322 H350 0.931 . S
C323 C322 1.384 . S
C323 C326 1.382 . S
C324 C322 1.384 . S
C324 C325 1.381 . S
C324 H351 0.930 . S
C325 C324 1.381 . S
C325 C327 1.381 . S
C325 C328 1.487 . S
C326 C323 1.382 . S
C326 C327 1.387 . S
C326 H352 0.930 . S
C327 C325 1.381 . S
C327 C326 1.387 . S
C327 H353 0.931 1_455 S
C328 C325 1.487 . S
C328 C335 1.399 . S
C328 N366 1.343 1_455 S
C329 C330 1.384 . S
C329 C331 1.384 . S
C329 H354 0.931 . S
C330 C329 1.384 . S
C330 C333 1.382 . S
C331 C329 1.384 . S
C331 C332 1.381 . S
C331 H355 0.930 . S
C332 C331 1.381 . S
C332 C334 1.381 . S
C332 C335 1.487 . S
C333 C330 1.382 . S
C333 C334 1.387 . S
C333 H356 0.930 . S
C334 C332 1.381 . S
C334 C333 1.387 . S
C334 H357 0.931 . S
C335 C328 1.399 . S
C335 C332 1.487 . S
C335 N367 1.343 1_565 S
C336 C337 1.384 . S
C336 C338 1.384 . S
C336 H358 0.931 . S
C337 C336 1.384 . S
C337 C340 1.382 . S
C338 C336 1.384 . S
C338 C339 1.381 . S
C338 H359 0.930 . S
C339 C338 1.381 . S
C339 C341 1.381 . S
C339 C342 1.487 . S
C340 C337 1.382 . S
C340 C341 1.387 . S
C340 H360 0.930 . S
C341 C339 1.381 . S
C341 C340 1.387 . S
C341 H361 0.931 1_655 S
C342 C339 1.487 . S
C342 C349 1.399 . S
C342 N367 1.343 1_655 S
C343 C344 1.384 . S
C343 C345 1.384 . S
C343 H362 0.931 . S
C344 C343 1.384 . S
C344 C347 1.382 . S
C345 C343 1.384 . S
C345 C346 1.381 . S
C345 H363 0.930 . S
C346 C345 1.381 . S
C346 C348 1.381 . S
C346 C349 1.487 . S
C347 C344 1.382 . S
C347 C348 1.387 . S
C347 H364 0.930 . S
C348 C346 1.381 . S
C348 C347 1.387 . S
C348 H365 0.931 . S
C349 C342 1.399 . S
C349 C346 1.487 . S
C349 N366 1.343 1_545 S
H350 C322 0.931 . S
H351 C324 0.930 . S
H352 C326 0.930 . S
H353 C327 0.931 1_655 S
H354 C329 0.931 . S
H355 C331 0.930 . S
H356 C333 0.930 . S
H357 C334 0.931 . S
H358 C336 0.931 . S
H359 C338 0.930 . S
H360 C340 0.930 . S
H361 C341 0.931 1_455 S
H362 C343 0.931 . S
H363 C345 0.930 . S
H364 C347 0.930 . S
H365 C348 0.931 . S
N366 C328 1.343 1_655 S
N366 C349 1.343 1_565 S
N367 C335 1.343 1_545 S
N367 C342 1.343 1_455 S
In368 O369 2.294 . S
In368 O370 2.326 . S
In368 O374 2.266 1_554 S
In368 O375 2.326 1_554 S
In368 O376 2.266 1_554 S
In368 O377 2.326 1_554 S
In368 O379 2.294 . S
In368 O380 2.326 . S
O369 In368 2.294 . S
O369 C378 1.240 . S
O370 In368 2.326 . S
O370 C378 1.252 . S
C371 O374 1.252 . S
C371 O375 1.260 . S
C372 O379 1.240 . S
C372 O380 1.252 . S
C373 O376 1.252 . S
C373 O377 1.260 . S
O374 In368 2.266 1_556 S
O374 C371 1.252 . S
O375 In368 2.326 1_556 S
O375 C371 1.260 . S
O376 In368 2.266 1_556 S
O376 C373 1.252 . S
O377 In368 2.326 1_556 S
O377 C373 1.260 . S
C378 O369 1.240 . S
C378 O370 1.252 . S
O379 In368 2.294 . S
O379 C372 1.240 . S
O380 In368 2.326 . S
O380 C372 1.252 . S
In381 O382 2.294 . S
In381 O383 2.326 . S
In381 O387 2.266 . S
In381 O388 2.326 . S
In381 O389 2.266 . S
In381 O390 2.326 . S
In381 O392 2.294 . S
In381 O393 2.326 . S
O382 In381 2.294 . S
O382 C391 1.240 . S
O383 In381 2.326 . S
O383 C391 1.252 . S
C384 O387 1.252 . S
C384 O388 1.260 . S
C385 O392 1.240 . S
C385 O393 1.252 . S
C386 O389 1.252 . S
C386 O390 1.260 . S
O387 In381 2.266 . S
O387 C384 1.252 . S
O388 In381 2.326 . S
O388 C384 1.260 . S
O389 In381 2.266 . S
O389 C386 1.252 . S
O390 In381 2.326 . S
O390 C386 1.260 . S
C391 O382 1.240 . S
C391 O383 1.252 . S
O392 In381 2.294 . S
O392 C385 1.240 . S
O393 In381 2.326 . S
O393 C385 1.252 . S
In394 O395 2.294 . S
In394 O396 2.326 . S
In394 O400 2.266 . S
In394 O401 2.326 . S
In394 O402 2.266 . S
In394 O403 2.326 . S
In394 O405 2.294 . S
In394 O406 2.326 . S
O395 In394 2.294 . S
O395 C404 1.240 . S
O396 In394 2.326 . S
O396 C404 1.252 . S
C397 O400 1.252 . S
C397 O401 1.260 . S
C398 O405 1.240 . S
C398 O406 1.252 . S
C399 O402 1.252 . S
C399 O403 1.260 . S
O400 In394 2.266 . S
O400 C397 1.252 . S
O401 In394 2.326 . S
O401 C397 1.260 . S
O402 In394 2.266 . S
O402 C399 1.252 . S
O403 In394 2.326 . S
O403 C399 1.260 . S
C404 O395 1.240 . S
C404 O396 1.252 . S
O405 In394 2.294 . S
O405 C398 1.240 . S
O406 In394 2.326 . S
O406 C398 1.252 . S
In407 O408 2.294 . S
In407 O409 2.326 . S
In407 O413 2.266 . S
In407 O414 2.326 . S
In407 O415 2.266 . S
In407 O416 2.326 . S
In407 O418 2.294 . S
In407 O419 2.326 . S
O408 In407 2.294 . S
O408 C417 1.240 . S
O409 In407 2.326 . S
O409 C417 1.252 . S
C410 O413 1.252 . S
C410 O414 1.260 . S
C411 O418 1.240 . S
C411 O419 1.252 . S
C412 O415 1.252 . S
C412 O416 1.260 . S
O413 In407 2.266 . S
O413 C410 1.252 . S
O414 In407 2.326 . S
O414 C410 1.260 . S
O415 In407 2.266 . S
O415 C412 1.252 . S
O416 In407 2.326 . S
O416 C412 1.260 . S
C417 O408 1.240 . S
C417 O409 1.252 . S
O418 In407 2.294 . S
O418 C411 1.240 . S
O419 In407 2.326 . S
O419 C411 1.252 . S
In420 O421 2.294 . S
In420 O422 2.326 . S
In420 O426 2.266 . S
In420 O427 2.326 . S
In420 O428 2.266 . S
In420 O429 2.326 . S
In420 O431 2.294 . S
In420 O432 2.326 . S
O421 In420 2.294 . S
O421 C430 1.240 . S
O422 In420 2.326 . S
O422 C430 1.252 . S
C423 O426 1.252 . S
C423 O427 1.260 . S
C424 O431 1.240 . S
C424 O432 1.252 . S
C425 O428 1.252 . S
C425 O429 1.260 . S
O426 In420 2.266 . S
O426 C423 1.252 . S
O427 In420 2.326 . S
O427 C423 1.260 . S
O428 In420 2.266 . S
O428 C425 1.252 . S
O429 In420 2.326 . S
O429 C425 1.260 . S
C430 O421 1.240 . S
C430 O422 1.252 . S
O431 In420 2.294 . S
O431 C424 1.240 . S
O432 In420 2.326 . S
O432 C424 1.252 . S
In433 O434 2.294 . S
In433 O435 2.326 . S
In433 O439 2.266 . S
In433 O440 2.326 . S
In433 O441 2.266 . S
In433 O442 2.326 . S
In433 O444 2.294 . S
In433 O445 2.326 . S
O434 In433 2.294 . S
O434 C443 1.240 . S
O435 In433 2.326 . S
O435 C443 1.252 . S
C436 O439 1.252 . S
C436 O440 1.260 . S
C437 O444 1.240 . S
C437 O445 1.252 . S
C438 O441 1.252 . S
C438 O442 1.260 . S
O439 In433 2.266 . S
O439 C436 1.252 . S
O440 In433 2.326 . S
O440 C436 1.260 . S
O441 In433 2.266 . S
O441 C438 1.252 . S
O442 In433 2.326 . S
O442 C438 1.260 . S
C443 O434 1.240 . S
C443 O435 1.252 . S
O444 In433 2.294 . S
O444 C437 1.240 . S
O445 In433 2.326 . S
O445 C437 1.252 . S
In446 O447 2.294 . S
In446 O448 2.326 . S
In446 O452 2.266 1_554 S
In446 O453 2.326 1_554 S
In446 O454 2.266 1_554 S
In446 O455 2.326 1_554 S
In446 O457 2.294 . S
In446 O458 2.326 . S
O447 In446 2.294 . S
O447 C456 1.240 . S
O448 In446 2.326 . S
O448 C456 1.252 . S
C449 O452 1.252 . S
C449 O453 1.260 . S
C450 O457 1.240 . S
C450 O458 1.252 . S
C451 O454 1.252 . S
C451 O455 1.260 . S
O452 In446 2.266 1_556 S
O452 C449 1.252 . S
O453 In446 2.326 1_556 S
O453 C449 1.260 . S
O454 In446 2.266 1_556 S
O454 C451 1.252 . S
O455 In446 2.326 1_556 S
O455 C451 1.260 . S
C456 O447 1.240 . S
C456 O448 1.252 . S
O457 In446 2.294 . S
O457 C450 1.240 . S
O458 In446 2.326 . S
O458 C450 1.252 . S
In459 O460 2.294 . S
In459 O461 2.326 . S
In459 O465 2.266 . S
In459 O466 2.326 . S
In459 O467 2.266 . S
In459 O468 2.326 . S
In459 O470 2.294 . S
In459 O471 2.326 . S
O460 In459 2.294 . S
O460 C469 1.240 . S
O461 In459 2.326 . S
O461 C469 1.252 . S
C462 O465 1.252 . S
C462 O466 1.260 . S
C463 O470 1.240 . S
C463 O471 1.252 . S
C464 O467 1.252 . S
C464 O468 1.260 . S
O465 In459 2.266 . S
O465 C462 1.252 . S
O466 In459 2.326 . S
O466 C462 1.260 . S
O467 In459 2.266 . S
O467 C464 1.252 . S
O468 In459 2.326 . S
O468 C464 1.260 . S
C469 O460 1.240 . S
C469 O461 1.252 . S
O470 In459 2.294 . S
O470 C463 1.240 . S
O471 In459 2.326 . S
O471 C463 1.252 . S
H472 C484 0.930 . S
H473 C486 0.930 . S
H474 C487 0.930 . S
H475 C491 0.959 . S
H476 C491 0.959 . S
H477 C491 0.961 . S
H478 C492 0.960 . S
H479 C492 0.961 . S
H480 C492 0.959 . S
H481 C495 0.929 . S
H482 C496 0.931 . S
H483 C498 0.930 . S
C484 H472 0.930 . S
C484 C485 1.399 . S
C484 C489 1.399 . S
C485 C484 1.399 . S
C485 C486 1.376 . S
C486 H473 0.930 . S
C486 C485 1.376 . S
C486 C487 1.388 . S
C487 H474 0.930 . S
C487 C486 1.388 . S
C487 C488 1.390 . S
C488 C487 1.390 . S
C488 C489 1.394 . S
C488 C494 1.465 . S
C489 C484 1.399 . S
C489 C488 1.394 . S
C489 C490 1.516 . S
C490 C489 1.516 . S
C490 C491 1.502 . S
C490 C492 1.561 . S
C490 C493 1.526 . S
C491 H475 0.959 . S
C491 H476 0.959 . S
C491 H477 0.961 . S
C491 C490 1.502 . S
C492 H478 0.960 . S
C492 H479 0.961 . S
C492 H480 0.959 . S
C492 C490 1.561 . S
C493 C490 1.526 . S
C493 C494 1.396 . S
C493 C498 1.390 . S
C494 C488 1.465 . S
C494 C493 1.396 . S
C494 C495 1.399 . S
C495 H481 0.929 . S
C495 C494 1.399 . S
C495 C496 1.385 . S
C496 H482 0.931 . S
C496 C495 1.385 . S
C496 C497 1.389 . S
C497 C496 1.389 . S
C497 C498 1.387 . S
C498 H483 0.930 . S
C498 C493 1.390 . S
C498 C497 1.387 . S
H499 C511 0.930 . S
H500 C513 0.930 . S
H501 C514 0.930 . S
H502 C518 0.959 . S
H503 C518 0.959 . S
H504 C518 0.961 . S
H505 C519 0.960 . S
H506 C519 0.961 . S
H507 C519 0.959 . S
H508 C522 0.929 . S
H509 C523 0.931 . S
H510 C525 0.930 . S
C511 H499 0.930 . S
C511 C512 1.399 . S
C511 C516 1.399 . S
C512 C511 1.399 . S
C512 C513 1.376 . S
C513 H500 0.930 . S
C513 C512 1.376 . S
C513 C514 1.388 . S
C514 H501 0.930 . S
C514 C513 1.388 . S
C514 C515 1.390 . S
C515 C514 1.390 . S
C515 C516 1.394 . S
C515 C521 1.465 . S
C516 C511 1.399 . S
C516 C515 1.394 . S
C516 C517 1.516 . S
C517 C516 1.516 . S
C517 C518 1.502 . S
C517 C519 1.561 . S
C517 C520 1.526 . S
C518 H502 0.959 . S
C518 H503 0.959 . S
C518 H504 0.961 . S
C518 C517 1.502 . S
C519 H505 0.960 . S
C519 H506 0.961 . S
C519 H507 0.959 . S
C519 C517 1.561 . S
C520 C517 1.526 . S
C520 C521 1.396 . S
C520 C525 1.390 . S
C521 C515 1.465 . S
C521 C520 1.396 . S
C521 C522 1.399 . S
C522 H508 0.929 . S
C522 C521 1.399 . S
C522 C523 1.385 . S
C523 H509 0.931 . S
C523 C522 1.385 . S
C523 C524 1.389 . S
C524 C523 1.389 . S
C524 C525 1.387 . S
C525 H510 0.930 . S
C525 C520 1.390 . S
C525 C524 1.387 . S
H526 C538 0.930 . S
H527 C540 0.930 . S
H528 C541 0.930 . S
H529 C545 0.959 . S
H530 C545 0.959 . S
H531 C545 0.961 . S
H532 C546 0.960 . S
H533 C546 0.961 . S
H534 C546 0.959 . S
H535 C549 0.929 . S
H536 C550 0.931 . S
H537 C552 0.930 . S
C538 H526 0.930 . S
C538 C539 1.399 . S
C538 C543 1.399 . S
C539 C538 1.399 . S
C539 C540 1.376 . S
C540 H527 0.930 . S
C540 C539 1.376 . S
C540 C541 1.388 . S
C541 H528 0.930 . S
C541 C540 1.388 . S
C541 C542 1.390 . S
C542 C541 1.390 . S
C542 C543 1.394 . S
C542 C548 1.465 . S
C543 C538 1.399 . S
C543 C542 1.394 . S
C543 C544 1.516 . S
C544 C543 1.516 . S
C544 C545 1.502 . S
C544 C546 1.561 . S
C544 C547 1.526 . S
C545 H529 0.959 . S
C545 H530 0.959 . S
C545 H531 0.961 . S
C545 C544 1.502 . S
C546 H532 0.960 . S
C546 H533 0.961 . S
C546 H534 0.959 . S
C546 C544 1.561 . S
C547 C544 1.526 . S
C547 C548 1.396 . S
C547 C552 1.390 . S
C548 C542 1.465 . S
C548 C547 1.396 . S
C548 C549 1.399 . S
C549 H535 0.929 . S
C549 C548 1.399 . S
C549 C550 1.385 . S
C550 H536 0.931 . S
C550 C549 1.385 . S
C550 C551 1.389 . S
C551 C550 1.389 . S
C551 C552 1.387 . S
C552 H537 0.930 . S
C552 C547 1.390 . S
C552 C551 1.387 . S
H553 C565 0.930 . S
H554 C567 0.930 . S
H555 C568 0.930 . S
H556 C572 0.959 . S
H557 C572 0.960 . S
H558 C572 0.961 . S
H559 C573 0.955 1_556 S
H560 C573 0.936 1_556 S
H561 C573 0.966 . S
H562 C576 0.929 . S
H563 C577 0.931 . S
H564 C579 0.930 . S
C565 H553 0.930 . S
C565 C566 1.399 . S
C565 C570 1.399 . S
C566 C565 1.399 . S
C566 C567 1.376 . S
C567 H554 0.930 . S
C567 C566 1.376 . S
C567 C568 1.388 . S
C568 H555 0.930 . S
C568 C567 1.388 . S
C568 C569 1.390 . S
C569 C568 1.390 . S
C569 C570 1.394 . S
C569 C575 1.465 . S
C570 C565 1.399 . S
C570 C569 1.394 . S
C570 C571 1.516 . S
C571 C570 1.516 . S
C571 C572 1.502 . S
C571 C573 1.585 . S
C571 C574 1.526 . S
C572 H556 0.959 . S
C572 H557 0.960 . S
C572 H558 0.961 . S
C572 C571 1.502 . S
C573 H559 0.955 1_554 S
C573 H560 0.936 1_554 S
C573 H561 0.966 . S
C573 C571 1.585 . S
C574 C571 1.526 . S
C574 C575 1.396 . S
C574 C579 1.390 . S
C575 C569 1.465 . S
C575 C574 1.396 . S
C575 C576 1.399 . S
C576 H562 0.929 . S
C576 C575 1.399 . S
C576 C577 1.385 . S
C577 H563 0.931 . S
C577 C576 1.385 . S
C577 C578 1.389 . S
C578 C577 1.389 . S
C578 C579 1.387 . S
C579 H564 0.930 . S
C579 C574 1.390 . S
C579 C578 1.387 . S
H580 C592 0.930 . S
H581 C594 0.930 . S
H582 C595 0.930 . S
H583 C599 0.959 . S
H584 C599 0.959 . S
H585 C599 0.961 . S
H586 C600 0.960 . S
H587 C600 0.961 . S
H588 C600 0.959 . S
H589 C603 0.929 1_554 S
H590 C604 0.932 1_554 S
H591 C606 0.930 . S
C592 H580 0.930 . S
C592 C593 1.399 . S
C592 C597 1.399 . S
C593 C592 1.399 . S
C593 C594 1.376 . S
C594 H581 0.930 . S
C594 C593 1.376 . S
C594 C595 1.388 . S
C595 H582 0.930 . S
C595 C594 1.388 . S
C595 C596 1.390 . S
C596 C595 1.390 . S
C596 C597 1.394 . S
C596 C602 1.465 . S
C597 C592 1.399 . S
C597 C596 1.394 . S
C597 C598 1.516 . S
C598 C597 1.516 . S
C598 C599 1.502 . S
C598 C600 1.561 . S
C598 C601 1.526 . S
C599 H583 0.959 . S
C599 H584 0.959 . S
C599 H585 0.961 . S
C599 C598 1.502 . S
C600 H586 0.960 . S
C600 H587 0.961 . S
C600 H588 0.959 . S
C600 C598 1.561 . S
C601 C598 1.526 . S
C601 C602 1.396 . S
C601 C606 1.390 . S
C602 C596 1.465 . S
C602 C601 1.396 . S
C602 C603 1.399 . S
C603 H589 0.929 1_556 S
C603 C602 1.399 . S
C603 C604 1.385 . S
C604 H590 0.932 1_556 S
C604 C603 1.385 . S
C604 C605 1.389 . S
C605 C604 1.389 . S
C605 C606 1.387 . S
C606 H591 0.930 . S
C606 C601 1.390 . S
C606 C605 1.387 . S
H607 C619 0.930 . S
H608 C621 0.930 . S
H609 C622 0.930 . S
H610 C626 0.959 . S
H611 C626 0.959 . S
H612 C626 0.961 . S
H613 C627 0.960 . S
H614 C627 0.961 . S
H615 C627 0.959 . S
H616 C630 0.929 . S
H617 C631 0.931 . S
H618 C633 0.930 . S
C619 H607 0.930 . S
C619 C620 1.399 . S
C619 C624 1.399 . S
C620 C619 1.399 . S
C620 C621 1.376 . S
C621 H608 0.930 . S
C621 C620 1.376 . S
C621 C622 1.388 . S
C622 H609 0.930 . S
C622 C621 1.388 . S
C622 C623 1.390 . S
C623 C622 1.390 . S
C623 C624 1.394 . S
C623 C629 1.465 . S
C624 C619 1.399 . S
C624 C623 1.394 . S
C624 C625 1.516 . S
C625 C624 1.516 . S
C625 C626 1.502 . S
C625 C627 1.561 . S
C625 C628 1.526 . S
C626 H610 0.959 . S
C626 H611 0.959 . S
C626 H612 0.961 . S
C626 C625 1.502 . S
C627 H613 0.960 . S
C627 H614 0.961 . S
C627 H615 0.959 . S
C627 C625 1.561 . S
C628 C625 1.526 . S
C628 C629 1.396 . S
C628 C633 1.390 . S
C629 C623 1.465 . S
C629 C628 1.396 . S
C629 C630 1.399 . S
C630 H616 0.929 . S
C630 C629 1.399 . S
C630 C631 1.385 . S
C631 H617 0.931 . S
C631 C630 1.385 . S
C631 C632 1.389 . S
C632 C631 1.389 . S
C632 C633 1.387 . S
C633 H618 0.930 . S
C633 C628 1.390 . S
C633 C632 1.387 . S
H634 C646 0.930 . S
H635 C648 0.930 . S
H636 C649 0.930 . S
H637 C653 0.959 . S
H638 C653 0.959 . S
H639 C653 0.961 . S
H640 C654 0.960 . S
H641 C654 0.961 . S
H642 C654 0.959 . S
H643 C657 0.929 . S
H644 C658 0.931 . S
H645 C660 0.930 . S
C646 H634 0.930 . S
C646 C647 1.399 . S
C646 C651 1.399 . S
C647 C646 1.399 . S
C647 C648 1.376 . S
C648 H635 0.930 . S
C648 C647 1.376 . S
C648 C649 1.388 . S
C649 H636 0.930 . S
C649 C648 1.388 . S
C649 C650 1.390 . S
C650 C649 1.390 . S
C650 C651 1.394 . S
C650 C656 1.465 . S
C651 C646 1.399 . S
C651 C650 1.394 . S
C651 C652 1.516 . S
C652 C651 1.516 . S
C652 C653 1.502 . S
C652 C654 1.561 . S
C652 C655 1.526 . S
C653 H637 0.959 . S
C653 H638 0.959 . S
C653 H639 0.961 . S
C653 C652 1.502 . S
C654 H640 0.960 . S
C654 H641 0.961 . S
C654 H642 0.959 . S
C654 C652 1.561 . S
C655 C652 1.526 . S
C655 C656 1.396 . S
C655 C660 1.390 . S
C656 C650 1.465 . S
C656 C655 1.396 . S
C656 C657 1.399 . S
C657 H643 0.929 . S
C657 C656 1.399 . S
C657 C658 1.385 . S
C658 H644 0.931 . S
C658 C657 1.385 . S
C658 C659 1.389 . S
C659 C658 1.389 . S
C659 C660 1.387 . S
C660 H645 0.930 . S
C660 C655 1.390 . S
C660 C659 1.387 . S
H661 C673 0.930 . S
H662 C675 0.930 . S
H663 C676 0.930 . S
H664 C680 0.959 . S
H665 C680 0.959 . S
H666 C680 0.961 . S
H667 C681 0.960 . S
H668 C681 0.961 . S
H669 C681 0.959 . S
H670 C684 0.929 . S
H671 C685 0.931 . S
H672 C687 0.930 . S
C673 H661 0.930 . S
C673 C674 1.399 . S
C673 C678 1.399 . S
C674 C673 1.399 . S
C674 C675 1.376 . S
C675 H662 0.930 . S
C675 C674 1.376 . S
C675 C676 1.388 . S
C676 H663 0.930 . S
C676 C675 1.388 . S
C676 C677 1.390 . S
C677 C676 1.390 . S
C677 C678 1.394 . S
C677 C683 1.465 . S
C678 C673 1.399 . S
C678 C677 1.394 . S
C678 C679 1.516 . S
C679 C678 1.516 . S
C679 C680 1.502 . S
C679 C681 1.561 . S
C679 C682 1.526 . S
C680 H664 0.959 . S
C680 H665 0.959 . S
C680 H666 0.961 . S
C680 C679 1.502 . S
C681 H667 0.960 . S
C681 H668 0.961 . S
C681 H669 0.959 . S
C681 C679 1.561 . S
C682 C679 1.526 . S
C682 C683 1.396 . S
C682 C687 1.390 . S
C683 C677 1.465 . S
C683 C682 1.396 . S
C683 C684 1.399 . S
C684 H670 0.929 . S
C684 C683 1.399 . S
C684 C685 1.385 . S
C685 H671 0.931 . S
C685 C684 1.385 . S
C685 C686 1.389 . S
C686 C685 1.389 . S
C686 C687 1.387 . S
C687 H672 0.930 . S
C687 C682 1.390 . S
C687 C686 1.387 . S
H688 C700 0.930 . S
H689 C702 0.930 . S
H690 C703 0.930 . S
H691 C707 0.959 . S
H692 C707 0.959 . S
H693 C707 0.961 . S
H694 C708 0.960 . S
H695 C708 0.961 . S
H696 C708 0.959 . S
H697 C711 0.929 . S
H698 C712 0.931 . S
H699 C714 0.930 . S
C700 H688 0.930 . S
C700 C701 1.399 . S
C700 C705 1.399 . S
C701 C700 1.399 . S
C701 C702 1.376 . S
C702 H689 0.930 . S
C702 C701 1.376 . S
C702 C703 1.388 . S
C703 H690 0.930 . S
C703 C702 1.388 . S
C703 C704 1.390 . S
C704 C703 1.390 . S
C704 C705 1.394 . S
C704 C710 1.465 . S
C705 C700 1.399 . S
C705 C704 1.394 . S
C705 C706 1.516 . S
C706 C705 1.516 . S
C706 C707 1.502 . S
C706 C708 1.561 . S
C706 C709 1.526 . S
C707 H691 0.959 . S
C707 H692 0.959 . S
C707 H693 0.961 . S
C707 C706 1.502 . S
C708 H694 0.960 . S
C708 H695 0.961 . S
C708 H696 0.959 . S
C708 C706 1.561 . S
C709 C706 1.526 . S
C709 C710 1.396 . S
C709 C714 1.390 . S
C710 C704 1.465 . S
C710 C709 1.396 . S
C710 C711 1.399 . S
C711 H697 0.929 . S
C711 C710 1.399 . S
C711 C712 1.385 . S
C712 H698 0.931 . S
C712 C711 1.385 . S
C712 C713 1.389 . S
C713 C712 1.389 . S
C713 C714 1.387 . S
C714 H699 0.930 . S
C714 C709 1.390 . S
C714 C713 1.387 . S
H715 C727 0.930 . S
H716 C729 0.930 . S
H717 C730 0.930 . S
H718 C734 0.959 . S
H719 C734 0.959 . S
H720 C734 0.961 . S
H721 C735 0.960 . S
H722 C735 0.961 . S
H723 C735 0.959 . S
H724 C738 0.929 . S
H725 C739 0.931 . S
H726 C741 0.930 . S
C727 H715 0.930 . S
C727 C728 1.399 . S
C727 C732 1.399 . S
C728 C727 1.399 . S
C728 C729 1.376 . S
C729 H716 0.930 . S
C729 C728 1.376 . S
C729 C730 1.388 . S
C730 H717 0.930 . S
C730 C729 1.388 . S
C730 C731 1.390 . S
C731 C730 1.390 . S
C731 C732 1.394 . S
C731 C737 1.465 . S
C732 C727 1.399 . S
C732 C731 1.394 . S
C732 C733 1.516 . S
C733 C732 1.516 . S
C733 C734 1.502 . S
C733 C735 1.561 . S
C733 C736 1.526 . S
C734 H718 0.959 . S
C734 H719 0.959 . S
C734 H720 0.961 . S
C734 C733 1.502 . S
C735 H721 0.960 . S
C735 H722 0.961 . S
C735 H723 0.959 . S
C735 C733 1.561 . S
C736 C733 1.526 . S
C736 C737 1.396 . S
C736 C741 1.390 . S
C737 C731 1.465 . S
C737 C736 1.396 . S
C737 C738 1.399 . S
C738 H724 0.929 . S
C738 C737 1.399 . S
C738 C739 1.385 . S
C739 H725 0.931 . S
C739 C738 1.385 . S
C739 C740 1.389 . S
C740 C739 1.389 . S
C740 C741 1.387 . S
C741 H726 0.930 . S
C741 C736 1.390 . S
C741 C740 1.387 . S
H742 C754 0.930 . S
H743 C756 0.930 . S
H744 C757 0.930 . S
H745 C761 0.959 . S
H746 C761 0.959 . S
H747 C761 0.961 . S
H748 C762 0.960 . S
H749 C762 0.961 . S
H750 C762 0.959 . S
H751 C765 0.929 . S
H752 C766 0.931 . S
H753 C768 0.930 . S
C754 H742 0.930 . S
C754 C755 1.399 . S
C754 C759 1.399 . S
C755 C754 1.399 . S
C755 C756 1.376 . S
C756 H743 0.930 . S
C756 C755 1.376 . S
C756 C757 1.388 . S
C757 H744 0.930 . S
C757 C756 1.388 . S
C757 C758 1.390 . S
C758 C757 1.390 . S
C758 C759 1.394 . S
C758 C764 1.465 . S
C759 C754 1.399 . S
C759 C758 1.394 . S
C759 C760 1.516 . S
C760 C759 1.516 . S
C760 C761 1.502 . S
C760 C762 1.561 . S
C760 C763 1.526 . S
C761 H745 0.959 . S
C761 H746 0.959 . S
C761 H747 0.961 . S
C761 C760 1.502 . S
C762 H748 0.960 . S
C762 H749 0.961 . S
C762 H750 0.959 . S
C762 C760 1.561 . S
C763 C760 1.526 . S
C763 C764 1.396 . S
C763 C768 1.390 . S
C764 C758 1.465 . S
C764 C763 1.396 . S
C764 C765 1.399 . S
C765 H751 0.929 . S
C765 C764 1.399 . S
C765 C766 1.385 . S
C766 H752 0.931 . S
C766 C765 1.385 . S
C766 C767 1.389 . S
C767 C766 1.389 . S
C767 C768 1.387 . S
C768 H753 0.930 . S
C768 C763 1.390 . S
C768 C767 1.387 . S
H769 C781 0.930 . S
H770 C783 0.930 . S
H771 C784 0.930 . S
H772 C788 0.959 . S
H773 C788 0.959 . S
H774 C788 0.961 . S
H775 C789 0.960 . S
H776 C789 0.961 . S
H777 C789 0.959 . S
H778 C792 0.929 . S
H779 C793 0.931 . S
H780 C795 0.930 . S
C781 H769 0.930 . S
C781 C782 1.399 . S
C781 C786 1.399 . S
C782 C781 1.399 . S
C782 C783 1.376 . S
C783 H770 0.930 . S
C783 C782 1.376 . S
C783 C784 1.388 . S
C784 H771 0.930 . S
C784 C783 1.388 . S
C784 C785 1.390 . S
C785 C784 1.390 . S
C785 C786 1.394 . S
C785 C791 1.465 . S
C786 C781 1.399 . S
C786 C785 1.394 . S
C786 C787 1.516 . S
C787 C786 1.516 . S
C787 C788 1.502 . S
C787 C789 1.561 . S
C787 C790 1.526 . S
C788 H772 0.959 . S
C788 H773 0.959 . S
C788 H774 0.961 . S
C788 C787 1.502 . S
C789 H775 0.960 . S
C789 H776 0.961 . S
C789 H777 0.959 . S
C789 C787 1.561 . S
C790 C787 1.526 . S
C790 C791 1.396 . S
C790 C795 1.390 . S
C791 C785 1.465 . S
C791 C790 1.396 . S
C791 C792 1.399 . S
C792 H778 0.929 . S
C792 C791 1.399 . S
C792 C793 1.385 . S
C793 H779 0.931 . S
C793 C792 1.385 . S
C793 C794 1.389 . S
C794 C793 1.389 . S
C794 C795 1.387 . S
C795 H780 0.930 . S
C795 C790 1.390 . S
C795 C794 1.387 . S
H796 C808 0.930 . S
H797 C810 0.930 . S
H798 C811 0.930 . S
H799 C815 0.959 . S
H800 C815 0.959 . S
H801 C815 0.961 . S
H802 C816 0.960 . S
H803 C816 0.961 . S
H804 C816 0.959 . S
H805 C819 0.929 . S
H806 C820 0.931 . S
H807 C822 0.930 . S
C808 H796 0.930 . S
C808 C809 1.399 . S
C808 C813 1.399 . S
C809 C808 1.399 . S
C809 C810 1.376 . S
C810 H797 0.930 . S
C810 C809 1.376 . S
C810 C811 1.388 . S
C811 H798 0.930 . S
C811 C810 1.388 . S
C811 C812 1.390 . S
C812 C811 1.390 . S
C812 C813 1.394 . S
C812 C818 1.465 . S
C813 C808 1.399 . S
C813 C812 1.394 . S
C813 C814 1.516 . S
C814 C813 1.516 . S
C814 C815 1.502 . S
C814 C816 1.561 . S
C814 C817 1.526 . S
C815 H799 0.959 . S
C815 H800 0.959 . S
C815 H801 0.961 . S
C815 C814 1.502 . S
C816 H802 0.960 . S
C816 H803 0.961 . S
C816 H804 0.959 . S
C816 C814 1.561 . S
C817 C814 1.526 . S
C817 C818 1.396 . S
C817 C822 1.390 . S
C818 C812 1.465 . S
C818 C817 1.396 . S
C818 C819 1.399 . S
C819 H805 0.929 . S
C819 C818 1.399 . S
C819 C820 1.385 . S
C820 H806 0.931 . S
C820 C819 1.385 . S
C820 C821 1.389 . S
C821 C820 1.389 . S
C821 C822 1.387 . S
C822 H807 0.930 . S
C822 C817 1.390 . S
C822 C821 1.387 . S
H823 C835 0.930 . S
H824 C837 0.930 . S
H825 C838 0.930 . S
H826 C842 0.959 . S
H827 C842 0.959 . S
H828 C842 0.961 . S
H829 C843 0.960 . S
H830 C843 0.961 . S
H831 C843 0.959 . S
H832 C846 0.929 . S
H833 C847 0.931 . S
H834 C849 0.930 . S
C835 H823 0.930 . S
C835 C836 1.399 . S
C835 C840 1.399 . S
C836 C835 1.399 . S
C836 C837 1.376 . S
C837 H824 0.930 . S
C837 C836 1.376 . S
C837 C838 1.388 . S
C838 H825 0.930 . S
C838 C837 1.388 . S
C838 C839 1.390 . S
C839 C838 1.390 . S
C839 C840 1.394 . S
C839 C845 1.465 . S
C840 C835 1.399 . S
C840 C839 1.394 . S
C840 C841 1.516 . S
C841 C840 1.516 . S
C841 C842 1.502 . S
C841 C843 1.561 . S
C841 C844 1.526 . S
C842 H826 0.959 . S
C842 H827 0.959 . S
C842 H828 0.961 . S
C842 C841 1.502 . S
C843 H829 0.960 . S
C843 H830 0.961 . S
C843 H831 0.959 . S
C843 C841 1.561 . S
C844 C841 1.526 . S
C844 C845 1.396 . S
C844 C849 1.390 . S
C845 C839 1.465 . S
C845 C844 1.396 . S
C845 C846 1.399 . S
C846 H832 0.929 . S
C846 C845 1.399 . S
C846 C847 1.385 . S
C847 H833 0.931 . S
C847 C846 1.385 . S
C847 C848 1.389 . S
C848 C847 1.389 . S
C848 C849 1.387 . S
C849 H834 0.930 . S
C849 C844 1.390 . S
C849 C848 1.387 . S
H850 C862 0.930 . S
H851 C864 0.930 . S
H852 C865 0.930 . S
H853 C869 0.959 . S
H854 C869 0.959 . S
H855 C869 0.961 . S
H856 C870 0.960 . S
H857 C870 0.962 1_554 S
H858 C870 0.960 1_554 S
H859 C873 0.929 . S
H860 C874 0.931 . S
H861 C876 0.930 . S
C862 H850 0.930 . S
C862 C863 1.399 . S
C862 C867 1.399 . S
C863 C862 1.399 . S
C863 C864 1.376 . S
C864 H851 0.930 . S
C864 C863 1.376 . S
C864 C865 1.388 . S
C865 H852 0.930 . S
C865 C864 1.388 . S
C865 C866 1.390 . S
C866 C865 1.390 . S
C866 C867 1.394 . S
C866 C872 1.465 . S
C867 C862 1.399 . S
C867 C866 1.394 . S
C867 C868 1.516 . S
C868 C867 1.516 . S
C868 C869 1.502 . S
C868 C870 1.559 . S
C868 C871 1.526 . S
C869 H853 0.959 . S
C869 H854 0.959 . S
C869 H855 0.961 . S
C869 C868 1.502 . S
C870 H856 0.960 . S
C870 H857 0.962 1_556 S
C870 H858 0.960 1_556 S
C870 C868 1.559 . S
C871 C868 1.526 . S
C871 C872 1.396 . S
C871 C876 1.390 . S
C872 C866 1.465 . S
C872 C871 1.396 . S
C872 C873 1.399 . S
C873 H859 0.929 . S
C873 C872 1.399 . S
C873 C874 1.385 . S
C874 H860 0.931 . S
C874 C873 1.385 . S
C874 C875 1.389 . S
C875 C874 1.389 . S
C875 C876 1.387 . S
C876 H861 0.930 . S
C876 C871 1.390 . S
C876 C875 1.387 . S
H877 C889 0.930 . S
H878 C891 0.930 . S
H879 C892 0.930 . S
H880 C896 0.959 . S
H881 C896 0.959 . S
H882 C896 0.961 . S
H883 C897 0.960 . S
H884 C897 0.961 . S
H885 C897 0.959 . S
H886 C900 0.929 . S
H887 C901 0.931 . S
H888 C903 0.930 . S
C889 H877 0.930 . S
C889 C890 1.399 . S
C889 C894 1.399 . S
C890 C889 1.399 . S
C890 C891 1.376 . S
C891 H878 0.930 . S
C891 C890 1.376 . S
C891 C892 1.388 . S
C892 H879 0.930 . S
C892 C891 1.388 . S
C892 C893 1.390 . S
C893 C892 1.390 . S
C893 C894 1.394 . S
C893 C899 1.465 . S
C894 C889 1.399 . S
C894 C893 1.394 . S
C894 C895 1.516 . S
C895 C894 1.516 . S
C895 C896 1.502 . S
C895 C897 1.561 . S
C895 C898 1.526 . S
C896 H880 0.959 . S
C896 H881 0.959 . S
C896 H882 0.961 . S
C896 C895 1.502 . S
C897 H883 0.960 . S
C897 H884 0.961 . S
C897 H885 0.959 . S
C897 C895 1.561 . S
C898 C895 1.526 . S
C898 C899 1.396 . S
C898 C903 1.390 . S
C899 C893 1.465 . S
C899 C898 1.396 . S
C899 C900 1.399 . S
C900 H886 0.929 . S
C900 C899 1.399 . S
C900 C901 1.385 . S
C901 H887 0.931 . S
C901 C900 1.385 . S
C901 C902 1.389 . S
C902 C901 1.389 . S
C902 C903 1.387 . S
C903 H888 0.930 . S
C903 C898 1.390 . S
C903 C902 1.387 . S
H904 C916 0.930 . S
H905 C918 0.930 . S
H906 C919 0.930 . S
H907 C923 0.959 . S
H908 C923 0.959 . S
H909 C923 0.961 . S
H910 C924 0.960 . S
H911 C924 0.961 . S
H912 C924 0.959 . S
H913 C927 0.929 . S
H914 C928 0.931 . S
H915 C930 0.930 . S
C916 H904 0.930 . S
C916 C917 1.399 . S
C916 C921 1.399 . S
C917 C916 1.399 . S
C917 C918 1.376 . S
C918 H905 0.930 . S
C918 C917 1.376 . S
C918 C919 1.388 . S
C919 H906 0.930 . S
C919 C918 1.388 . S
C919 C920 1.390 . S
C920 C919 1.390 . S
C920 C921 1.394 . S
C920 C926 1.465 . S
C921 C916 1.399 . S
C921 C920 1.394 . S
C921 C922 1.516 . S
C922 C921 1.516 . S
C922 C923 1.502 . S
C922 C924 1.561 . S
C922 C925 1.526 . S
C923 H907 0.959 . S
C923 H908 0.959 . S
C923 H909 0.961 . S
C923 C922 1.502 . S
C924 H910 0.960 . S
C924 H911 0.961 . S
C924 H912 0.959 . S
C924 C922 1.561 . S
C925 C922 1.526 . S
C925 C926 1.396 . S
C925 C930 1.390 . S
C926 C920 1.465 . S
C926 C925 1.396 . S
C926 C927 1.399 . S
C927 H913 0.929 . S
C927 C926 1.399 . S
C927 C928 1.385 . S
C928 H914 0.931 . S
C928 C927 1.385 . S
C928 C929 1.389 . S
C929 C928 1.389 . S
C929 C930 1.387 . S
C930 H915 0.930 . S
C930 C925 1.390 . S
C930 C929 1.387 . S
H931 C943 0.930 . S
H932 C945 0.930 . S
H933 C946 0.930 . S
H934 C950 0.959 . S
H935 C950 0.959 . S
H936 C950 0.961 . S
H937 C951 0.960 . S
H938 C951 0.961 . S
H939 C951 0.959 . S
H940 C954 0.929 . S
H941 C955 0.931 . S
H942 C957 0.930 . S
C943 H931 0.930 . S
C943 C944 1.399 . S
C943 C948 1.399 . S
C944 C943 1.399 . S
C944 C945 1.376 . S
C945 H932 0.930 . S
C945 C944 1.376 . S
C945 C946 1.388 . S
C946 H933 0.930 . S
C946 C945 1.388 . S
C946 C947 1.390 . S
C947 C946 1.390 . S
C947 C948 1.394 . S
C947 C953 1.465 . S
C948 C943 1.399 . S
C948 C947 1.394 . S
C948 C949 1.516 . S
C949 C948 1.516 . S
C949 C950 1.502 . S
C949 C951 1.561 . S
C949 C952 1.526 . S
C950 H934 0.959 . S
C950 H935 0.959 . S
C950 H936 0.961 . S
C950 C949 1.502 . S
C951 H937 0.960 . S
C951 H938 0.961 . S
C951 H939 0.959 . S
C951 C949 1.561 . S
C952 C949 1.526 . S
C952 C953 1.396 . S
C952 C957 1.390 . S
C953 C947 1.465 . S
C953 C952 1.396 . S
C953 C954 1.399 . S
C954 H940 0.929 . S
C954 C953 1.399 . S
C954 C955 1.385 . S
C955 H941 0.931 . S
C955 C954 1.385 . S
C955 C956 1.389 . S
C956 C955 1.389 . S
C956 C957 1.387 . S
C957 H942 0.930 . S
C957 C952 1.390 . S
C957 C956 1.387 . S
H958 C970 0.930 . S
H959 C972 0.930 . S
H960 C973 0.930 . S
H961 C977 0.959 . S
H962 C977 0.959 . S
H963 C977 0.961 . S
H964 C978 0.960 . S
H965 C978 0.961 . S
H966 C978 0.959 . S
H967 C981 0.929 . S
H968 C982 0.931 . S
H969 C984 0.930 . S
C970 H958 0.930 . S
C970 C971 1.399 . S
C970 C975 1.399 . S
C971 C970 1.399 . S
C971 C972 1.376 . S
C972 H959 0.930 . S
C972 C971 1.376 . S
C972 C973 1.388 . S
C973 H960 0.930 . S
C973 C972 1.388 . S
C973 C974 1.390 . S
C974 C973 1.390 . S
C974 C975 1.394 . S
C974 C980 1.465 . S
C975 C970 1.399 . S
C975 C974 1.394 . S
C975 C976 1.516 . S
C976 C975 1.516 . S
C976 C977 1.502 . S
C976 C978 1.561 . S
C976 C979 1.526 . S
C977 H961 0.959 . S
C977 H962 0.959 . S
C977 H963 0.961 . S
C977 C976 1.502 . S
C978 H964 0.960 . S
C978 H965 0.961 . S
C978 H966 0.959 . S
C978 C976 1.561 . S
C979 C976 1.526 . S
C979 C980 1.396 . S
C979 C984 1.390 . S
C980 C974 1.465 . S
C980 C979 1.396 . S
C980 C981 1.399 . S
C981 H967 0.929 . S
C981 C980 1.399 . S
C981 C982 1.385 . S
C982 H968 0.931 . S
C982 C981 1.385 . S
C982 C983 1.389 . S
C983 C982 1.389 . S
C983 C984 1.387 . S
C984 H969 0.930 . S
C984 C979 1.390 . S
C984 C983 1.387 . S
H985 C997 0.930 . S
H986 C999 0.930 . S
H987 C1000 0.930 . S
H988 C1004 0.959 . S
H989 C1004 0.959 . S
H990 C1004 0.961 . S
H991 C1005 0.960 . S
H992 C1005 0.961 . S
H993 C1005 0.959 . S
H994 C1008 0.929 . S
H995 C1009 0.931 . S
H996 C1011 0.930 . S
C997 H985 0.930 . S
C997 C998 1.399 . S
C997 C1002 1.399 . S
C998 C997 1.399 . S
C998 C999 1.376 . S
C999 H986 0.930 . S
C999 C998 1.376 . S
C999 C1000 1.388 . S
C1000 H987 0.930 . S
C1000 C999 1.388 . S
C1000 C1001 1.390 . S
C1001 C1000 1.390 . S
C1001 C1002 1.394 . S
C1001 C1007 1.465 . S
C1002 C997 1.399 . S
C1002 C1001 1.394 . S
C1002 C1003 1.516 . S
C1003 C1002 1.516 . S
C1003 C1004 1.502 . S
C1003 C1005 1.561 . S
C1003 C1006 1.526 . S
C1004 H988 0.959 . S
C1004 H989 0.959 . S
C1004 H990 0.961 . S
C1004 C1003 1.502 . S
C1005 H991 0.960 . S
C1005 H992 0.961 . S
C1005 H993 0.959 . S
C1005 C1003 1.561 . S
C1006 C1003 1.526 . S
C1006 C1007 1.396 . S
C1006 C1011 1.390 . S
C1007 C1001 1.465 . S
C1007 C1006 1.396 . S
C1007 C1008 1.399 . S
C1008 H994 0.929 . S
C1008 C1007 1.399 . S
C1008 C1009 1.385 . S
C1009 H995 0.931 . S
C1009 C1008 1.385 . S
C1009 C1010 1.389 . S
C1010 C1009 1.389 . S
C1010 C1011 1.387 . S
C1011 H996 0.930 . S
C1011 C1006 1.390 . S
C1011 C1010 1.387 . S
H1012 C1024 0.930 . S
H1013 C1026 0.930 . S
H1014 C1027 0.930 . S
H1015 C1031 0.959 . S
H1016 C1031 0.959 . S
H1017 C1031 0.961 . S
H1018 C1032 0.960 . S
H1019 C1032 0.961 . S
H1020 C1032 0.959 . S
H1021 C1035 0.929 . S
H1022 C1036 0.931 . S
H1023 C1038 0.930 . S
C1024 H1012 0.930 . S
C1024 C1025 1.399 . S
C1024 C1029 1.399 . S
C1025 C1024 1.399 . S
C1025 C1026 1.376 . S
C1026 H1013 0.930 . S
C1026 C1025 1.376 . S
C1026 C1027 1.388 . S
C1027 H1014 0.930 . S
C1027 C1026 1.388 . S
C1027 C1028 1.390 . S
C1028 C1027 1.390 . S
C1028 C1029 1.394 . S
C1028 C1034 1.465 . S
C1029 C1024 1.399 . S
C1029 C1028 1.394 . S
C1029 C1030 1.516 . S
C1030 C1029 1.516 . S
C1030 C1031 1.502 . S
C1030 C1032 1.561 . S
C1030 C1033 1.526 . S
C1031 H1015 0.959 . S
C1031 H1016 0.959 . S
C1031 H1017 0.961 . S
C1031 C1030 1.502 . S
C1032 H1018 0.960 . S
C1032 H1019 0.961 . S
C1032 H1020 0.959 . S
C1032 C1030 1.561 . S
C1033 C1030 1.526 . S
C1033 C1034 1.396 . S
C1033 C1038 1.390 . S
C1034 C1028 1.465 . S
C1034 C1033 1.396 . S
C1034 C1035 1.399 . S
C1035 H1021 0.929 . S
C1035 C1034 1.399 . S
C1035 C1036 1.385 . S
C1036 H1022 0.931 . S
C1036 C1035 1.385 . S
C1036 C1037 1.389 . S
C1037 C1036 1.389 . S
C1037 C1038 1.387 . S
C1038 H1023 0.930 . S
C1038 C1033 1.390 . S
C1038 C1037 1.387 . S
H1039 C1051 0.930 . S
H1040 C1053 0.930 . S
H1041 C1054 0.930 . S
H1042 C1058 0.959 . S
H1043 C1058 0.959 . S
H1044 C1058 0.961 . S
H1045 C1059 0.960 . S
H1046 C1059 0.961 . S
H1047 C1059 0.959 . S
H1048 C1062 0.929 . S
H1049 C1063 0.931 . S
H1050 C1065 0.930 . S
C1051 H1039 0.930 . S
C1051 C1052 1.399 . S
C1051 C1056 1.399 . S
C1052 C1051 1.399 . S
C1052 C1053 1.376 . S
C1053 H1040 0.930 . S
C1053 C1052 1.376 . S
C1053 C1054 1.388 . S
C1054 H1041 0.930 . S
C1054 C1053 1.388 . S
C1054 C1055 1.390 . S
C1055 C1054 1.390 . S
C1055 C1056 1.394 . S
C1055 C1061 1.465 . S
C1056 C1051 1.399 . S
C1056 C1055 1.394 . S
C1056 C1057 1.516 . S
C1057 C1056 1.516 . S
C1057 C1058 1.502 . S
C1057 C1059 1.561 . S
C1057 C1060 1.526 . S
C1058 H1042 0.959 . S
C1058 H1043 0.959 . S
C1058 H1044 0.961 . S
C1058 C1057 1.502 . S
C1059 H1045 0.960 . S
C1059 H1046 0.961 . S
C1059 H1047 0.959 . S
C1059 C1057 1.561 . S
C1060 C1057 1.526 . S
C1060 C1061 1.396 . S
C1060 C1065 1.390 . S
C1061 C1055 1.465 . S
C1061 C1060 1.396 . S
C1061 C1062 1.399 . S
C1062 H1048 0.929 . S
C1062 C1061 1.399 . S
C1062 C1063 1.385 . S
C1063 H1049 0.931 . S
C1063 C1062 1.385 . S
C1063 C1064 1.389 . S
C1064 C1063 1.389 . S
C1064 C1065 1.387 . S
C1065 H1050 0.930 . S
C1065 C1060 1.390 . S
C1065 C1064 1.387 . S
H1066 C1078 0.930 . S
H1067 C1080 0.930 . S
H1068 C1081 0.930 . S
H1069 C1085 0.959 . S
H1070 C1085 0.959 . S
H1071 C1085 0.961 . S
H1072 C1086 0.960 . S
H1073 C1086 0.961 . S
H1074 C1086 0.959 . S
H1075 C1089 0.929 . S
H1076 C1090 0.931 . S
H1077 C1092 0.930 . S
C1078 H1066 0.930 . S
C1078 C1079 1.399 . S
C1078 C1083 1.399 . S
C1079 C1078 1.399 . S
C1079 C1080 1.376 . S
C1080 H1067 0.930 . S
C1080 C1079 1.376 . S
C1080 C1081 1.388 . S
C1081 H1068 0.930 . S
C1081 C1080 1.388 . S
C1081 C1082 1.390 . S
C1082 C1081 1.390 . S
C1082 C1083 1.394 . S
C1082 C1088 1.465 . S
C1083 C1078 1.399 . S
C1083 C1082 1.394 . S
C1083 C1084 1.516 . S
C1084 C1083 1.516 . S
C1084 C1085 1.502 . S
C1084 C1086 1.561 . S
C1084 C1087 1.526 . S
C1085 H1069 0.959 . S
C1085 H1070 0.959 . S
C1085 H1071 0.961 . S
C1085 C1084 1.502 . S
C1086 H1072 0.960 . S
C1086 H1073 0.961 . S
C1086 H1074 0.959 . S
C1086 C1084 1.561 . S
C1087 C1084 1.526 . S
C1087 C1088 1.396 . S
C1087 C1092 1.390 . S
C1088 C1082 1.465 . S
C1088 C1087 1.396 . S
C1088 C1089 1.399 . S
C1089 H1075 0.929 . S
C1089 C1088 1.399 . S
C1089 C1090 1.385 . S
C1090 H1076 0.931 . S
C1090 C1089 1.385 . S
C1090 C1091 1.389 . S
C1091 C1090 1.389 . S
C1091 C1092 1.387 . S
C1092 H1077 0.930 . S
C1092 C1087 1.390 . S
C1092 C1091 1.387 . S
H1093 C1105 0.930 . S
H1094 C1107 0.930 . S
H1095 C1108 0.930 . S
H1096 C1112 0.959 . S
H1097 C1112 0.959 . S
H1098 C1112 0.961 . S
H1099 C1113 0.960 . S
H1100 C1113 0.961 . S
H1101 C1113 0.959 . S
H1102 C1116 0.929 . S
H1103 C1117 0.931 . S
H1104 C1119 0.930 . S
C1105 H1093 0.930 . S
C1105 C1106 1.399 . S
C1105 C1110 1.399 . S
C1106 C1105 1.399 . S
C1106 C1107 1.376 . S
C1107 H1094 0.930 . S
C1107 C1106 1.376 . S
C1107 C1108 1.388 . S
C1108 H1095 0.930 . S
C1108 C1107 1.388 . S
C1108 C1109 1.390 . S
C1109 C1108 1.390 . S
C1109 C1110 1.394 . S
C1109 C1115 1.465 . S
C1110 C1105 1.399 . S
C1110 C1109 1.394 . S
C1110 C1111 1.516 . S
C1111 C1110 1.516 . S
C1111 C1112 1.502 . S
C1111 C1113 1.561 . S
C1111 C1114 1.526 . S
C1112 H1096 0.959 . S
C1112 H1097 0.959 . S
C1112 H1098 0.961 . S
C1112 C1111 1.502 . S
C1113 H1099 0.960 . S
C1113 H1100 0.961 . S
C1113 H1101 0.959 . S
C1113 C1111 1.561 . S
C1114 C1111 1.526 . S
C1114 C1115 1.396 . S
C1114 C1119 1.390 . S
C1115 C1109 1.465 . S
C1115 C1114 1.396 . S
C1115 C1116 1.399 . S
C1116 H1102 0.929 . S
C1116 C1115 1.399 . S
C1116 C1117 1.385 . S
C1117 H1103 0.931 . S
C1117 C1116 1.385 . S
C1117 C1118 1.389 . S
C1118 C1117 1.389 . S
C1118 C1119 1.387 . S
C1119 H1104 0.930 . S
C1119 C1114 1.390 . S
C1119 C1118 1.387 . S
H1120 C1132 0.930 . S
H1121 C1134 0.930 . S
H1122 C1135 0.930 . S
H1123 C1139 0.959 . S
H1124 C1139 0.959 . S
H1125 C1139 0.961 . S
H1126 C1140 0.960 . S
H1127 C1140 0.961 . S
H1128 C1140 0.959 . S
H1129 C1143 0.929 . S
H1130 C1144 0.931 . S
H1131 C1146 0.930 . S
C1132 H1120 0.930 . S
C1132 C1133 1.399 . S
C1132 C1137 1.399 . S
C1133 C1132 1.399 . S
C1133 C1134 1.376 . S
C1134 H1121 0.930 . S
C1134 C1133 1.376 . S
C1134 C1135 1.388 . S
C1135 H1122 0.930 . S
C1135 C1134 1.388 . S
C1135 C1136 1.390 . S
C1136 C1135 1.390 . S
C1136 C1137 1.394 . S
C1136 C1142 1.465 . S
C1137 C1132 1.399 . S
C1137 C1136 1.394 . S
C1137 C1138 1.516 . S
C1138 C1137 1.516 . S
C1138 C1139 1.502 . S
C1138 C1140 1.561 . S
C1138 C1141 1.526 . S
C1139 H1123 0.959 . S
C1139 H1124 0.959 . S
C1139 H1125 0.961 . S
C1139 C1138 1.502 . S
C1140 H1126 0.960 . S
C1140 H1127 0.961 . S
C1140 H1128 0.959 . S
C1140 C1138 1.561 . S
C1141 C1138 1.526 . S
C1141 C1142 1.396 . S
C1141 C1146 1.390 . S
C1142 C1136 1.465 . S
C1142 C1141 1.396 . S
C1142 C1143 1.399 . S
C1143 H1129 0.929 . S
C1143 C1142 1.399 . S
C1143 C1144 1.385 . S
C1144 H1130 0.931 . S
C1144 C1143 1.385 . S
C1144 C1145 1.389 . S
C1145 C1144 1.389 . S
C1145 C1146 1.387 . S
C1146 H1131 0.930 . S
C1146 C1141 1.390 . S
C1146 C1145 1.387 . S
H1147 C1159 0.930 . S
H1148 C1161 0.930 . S
H1149 C1162 0.930 . S
H1150 C1166 0.959 . S
H1151 C1166 0.959 . S
H1152 C1166 0.961 . S
H1153 C1167 0.960 . S
H1154 C1167 0.961 . S
H1155 C1167 0.959 . S
H1156 C1170 0.929 . S
H1157 C1171 0.931 . S
H1158 C1173 0.930 . S
C1159 H1147 0.930 . S
C1159 C1160 1.399 . S
C1159 C1164 1.399 . S
C1160 C1159 1.399 . S
C1160 C1161 1.376 . S
C1161 H1148 0.930 . S
C1161 C1160 1.376 . S
C1161 C1162 1.388 . S
C1162 H1149 0.930 . S
C1162 C1161 1.388 . S
C1162 C1163 1.390 . S
C1163 C1162 1.390 . S
C1163 C1164 1.394 . S
C1163 C1169 1.465 . S
C1164 C1159 1.399 . S
C1164 C1163 1.394 . S
C1164 C1165 1.516 . S
C1165 C1164 1.516 . S
C1165 C1166 1.502 . S
C1165 C1167 1.561 . S
C1165 C1168 1.526 . S
C1166 H1150 0.959 . S
C1166 H1151 0.959 . S
C1166 H1152 0.961 . S
C1166 C1165 1.502 . S
C1167 H1153 0.960 . S
C1167 H1154 0.961 . S
C1167 H1155 0.959 . S
C1167 C1165 1.561 . S
C1168 C1165 1.526 . S
C1168 C1169 1.396 . S
C1168 C1173 1.390 . S
C1169 C1163 1.465 . S
C1169 C1168 1.396 . S
C1169 C1170 1.399 . S
C1170 H1156 0.929 . S
C1170 C1169 1.399 . S
C1170 C1171 1.385 . S
C1171 H1157 0.931 . S
C1171 C1170 1.385 . S
C1171 C1172 1.389 . S
C1172 C1171 1.389 . S
C1172 C1173 1.387 . S
C1173 H1158 0.930 . S
C1173 C1168 1.390 . S
C1173 C1172 1.387 . S
H1174 C1186 0.930 . S
H1175 C1188 0.930 . S
H1176 C1189 0.930 . S
H1177 C1193 0.959 . S
H1178 C1193 0.959 . S
H1179 C1193 0.961 . S
H1180 C1194 0.960 . S
H1181 C1194 0.961 . S
H1182 C1194 0.959 . S
H1183 C1197 0.929 . S
H1184 C1198 0.931 . S
H1185 C1200 0.930 . S
C1186 H1174 0.930 . S
C1186 C1187 1.399 . S
C1186 C1191 1.399 . S
C1187 C1186 1.399 . S
C1187 C1188 1.376 . S
C1188 H1175 0.930 . S
C1188 C1187 1.376 . S
C1188 C1189 1.388 . S
C1189 H1176 0.930 . S
C1189 C1188 1.388 . S
C1189 C1190 1.390 . S
C1190 C1189 1.390 . S
C1190 C1191 1.394 . S
C1190 C1196 1.465 . S
C1191 C1186 1.399 . S
C1191 C1190 1.394 . S
C1191 C1192 1.516 . S
C1192 C1191 1.516 . S
C1192 C1193 1.502 . S
C1192 C1194 1.561 . S
C1192 C1195 1.526 . S
C1193 H1177 0.959 . S
C1193 H1178 0.959 . S
C1193 H1179 0.961 . S
C1193 C1192 1.502 . S
C1194 H1180 0.960 . S
C1194 H1181 0.961 . S
C1194 H1182 0.959 . S
C1194 C1192 1.561 . S
C1195 C1192 1.526 . S
C1195 C1196 1.396 . S
C1195 C1200 1.390 . S
C1196 C1190 1.465 . S
C1196 C1195 1.396 . S
C1196 C1197 1.399 . S
C1197 H1183 0.929 . S
C1197 C1196 1.399 . S
C1197 C1198 1.385 . S
C1198 H1184 0.931 . S
C1198 C1197 1.385 . S
C1198 C1199 1.389 . S
C1199 C1198 1.389 . S
C1199 C1200 1.387 . S
C1200 H1185 0.930 . S
C1200 C1195 1.390 . S
C1200 C1199 1.387 . S
H1201 C1213 0.930 . S
H1202 C1215 0.930 . S
H1203 C1216 0.930 . S
H1204 C1220 0.959 . S
H1205 C1220 0.959 . S
H1206 C1220 0.961 . S
H1207 C1221 0.960 . S
H1208 C1221 0.961 . S
H1209 C1221 0.959 . S
H1210 C1224 0.929 . S
H1211 C1225 0.931 . S
H1212 C1227 0.930 . S
C1213 H1201 0.930 . S
C1213 C1214 1.399 . S
C1213 C1218 1.399 . S
C1214 C1213 1.399 . S
C1214 C1215 1.376 . S
C1215 H1202 0.930 . S
C1215 C1214 1.376 . S
C1215 C1216 1.388 . S
C1216 H1203 0.930 . S
C1216 C1215 1.388 . S
C1216 C1217 1.390 . S
C1217 C1216 1.390 . S
C1217 C1218 1.394 . S
C1217 C1223 1.465 . S
C1218 C1213 1.399 . S
C1218 C1217 1.394 . S
C1218 C1219 1.516 . S
C1219 C1218 1.516 . S
C1219 C1220 1.502 . S
C1219 C1221 1.561 . S
C1219 C1222 1.526 . S
C1220 H1204 0.959 . S
C1220 H1205 0.959 . S
C1220 H1206 0.961 . S
C1220 C1219 1.502 . S
C1221 H1207 0.960 . S
C1221 H1208 0.961 . S
C1221 H1209 0.959 . S
C1221 C1219 1.561 . S
C1222 C1219 1.526 . S
C1222 C1223 1.396 . S
C1222 C1227 1.390 . S
C1223 C1217 1.465 . S
C1223 C1222 1.396 . S
C1223 C1224 1.399 . S
C1224 H1210 0.929 . S
C1224 C1223 1.399 . S
C1224 C1225 1.385 . S
C1225 H1211 0.931 . S
C1225 C1224 1.385 . S
C1225 C1226 1.389 . S
C1226 C1225 1.389 . S
C1226 C1227 1.387 . S
C1227 H1212 0.930 . S
C1227 C1222 1.390 . S
C1227 C1226 1.387 . S
H1228 C1240 0.930 . S
H1229 C1242 0.930 . S
H1230 C1243 0.930 . S
H1231 C1247 0.959 . S
H1232 C1247 0.959 . S
H1233 C1247 0.961 . S
H1234 C1248 0.960 . S
H1235 C1248 0.961 . S
H1236 C1248 0.959 . S
H1237 C1251 0.929 . S
H1238 C1252 0.931 . S
H1239 C1254 0.930 . S
C1240 H1228 0.930 . S
C1240 C1241 1.399 . S
C1240 C1245 1.399 . S
C1241 C1240 1.399 . S
C1241 C1242 1.376 . S
C1242 H1229 0.930 . S
C1242 C1241 1.376 . S
C1242 C1243 1.388 . S
C1243 H1230 0.930 . S
C1243 C1242 1.388 . S
C1243 C1244 1.390 . S
C1244 C1243 1.390 . S
C1244 C1245 1.394 . S
C1244 C1250 1.465 . S
C1245 C1240 1.399 . S
C1245 C1244 1.394 . S
C1245 C1246 1.516 . S
C1246 C1245 1.516 . S
C1246 C1247 1.502 . S
C1246 C1248 1.561 . S
C1246 C1249 1.526 . S
C1247 H1231 0.959 . S
C1247 H1232 0.959 . S
C1247 H1233 0.961 . S
C1247 C1246 1.502 . S
C1248 H1234 0.960 . S
C1248 H1235 0.961 . S
C1248 H1236 0.959 . S
C1248 C1246 1.561 . S
C1249 C1246 1.526 . S
C1249 C1250 1.396 . S
C1249 C1254 1.390 . S
C1250 C1244 1.465 . S
C1250 C1249 1.396 . S
C1250 C1251 1.399 . S
C1251 H1237 0.929 . S
C1251 C1250 1.399 . S
C1251 C1252 1.385 . S
C1252 H1238 0.931 . S
C1252 C1251 1.385 . S
C1252 C1253 1.389 . S
C1253 C1252 1.389 . S
C1253 C1254 1.387 . S
C1254 H1239 0.930 . S
C1254 C1249 1.390 . S
C1254 C1253 1.387 . S
H1255 C1267 0.930 . S
H1256 C1269 0.930 . S
H1257 C1270 0.930 . S
H1258 C1274 0.959 . S
H1259 C1274 0.959 . S
H1260 C1274 0.961 . S
H1261 C1275 0.960 . S
H1262 C1275 0.961 . S
H1263 C1275 0.959 . S
H1264 C1278 0.929 . S
H1265 C1279 0.931 . S
H1266 C1281 0.930 . S
C1267 H1255 0.930 . S
C1267 C1268 1.399 . S
C1267 C1272 1.399 . S
C1268 C1267 1.399 . S
C1268 C1269 1.376 . S
C1269 H1256 0.930 . S
C1269 C1268 1.376 . S
C1269 C1270 1.388 . S
C1270 H1257 0.930 . S
C1270 C1269 1.388 . S
C1270 C1271 1.390 . S
C1271 C1270 1.390 . S
C1271 C1272 1.394 . S
C1271 C1277 1.465 . S
C1272 C1267 1.399 . S
C1272 C1271 1.394 . S
C1272 C1273 1.516 . S
C1273 C1272 1.516 . S
C1273 C1274 1.502 . S
C1273 C1275 1.561 . S
C1273 C1276 1.526 . S
C1274 H1258 0.959 . S
C1274 H1259 0.959 . S
C1274 H1260 0.961 . S
C1274 C1273 1.502 . S
C1275 H1261 0.960 . S
C1275 H1262 0.961 . S
C1275 H1263 0.959 . S
C1275 C1273 1.561 . S
C1276 C1273 1.526 . S
C1276 C1277 1.396 . S
C1276 C1281 1.390 . S
C1277 C1271 1.465 . S
C1277 C1276 1.396 . S
C1277 C1278 1.399 . S
C1278 H1264 0.929 . S
C1278 C1277 1.399 . S
C1278 C1279 1.385 . S
C1279 H1265 0.931 . S
C1279 C1278 1.385 . S
C1279 C1280 1.389 . S
C1280 C1279 1.389 . S
C1280 C1281 1.387 . S
C1281 H1266 0.930 . S
C1281 C1276 1.390 . S
C1281 C1280 1.387 . S
H1282 C1294 0.930 . S
H1283 C1296 0.930 . S
H1284 C1297 0.930 . S
H1285 C1301 0.959 . S
H1286 C1301 0.959 . S
H1287 C1301 0.961 . S
H1288 C1302 0.960 . S
H1289 C1302 0.961 . S
H1290 C1302 0.959 . S
H1291 C1305 0.929 . S
H1292 C1306 0.931 . S
H1293 C1308 0.930 . S
C1294 H1282 0.930 . S
C1294 C1295 1.399 . S
C1294 C1299 1.399 . S
C1295 C1294 1.399 . S
C1295 C1296 1.376 . S
C1296 H1283 0.930 . S
C1296 C1295 1.376 . S
C1296 C1297 1.388 . S
C1297 H1284 0.930 . S
C1297 C1296 1.388 . S
C1297 C1298 1.390 . S
C1298 C1297 1.390 . S
C1298 C1299 1.394 . S
C1298 C1304 1.465 . S
C1299 C1294 1.399 . S
C1299 C1298 1.394 . S
C1299 C1300 1.516 . S
C1300 C1299 1.516 . S
C1300 C1301 1.502 . S
C1300 C1302 1.561 . S
C1300 C1303 1.526 . S
C1301 H1285 0.959 . S
C1301 H1286 0.959 . S
C1301 H1287 0.961 . S
C1301 C1300 1.502 . S
C1302 H1288 0.960 . S
C1302 H1289 0.961 . S
C1302 H1290 0.959 . S
C1302 C1300 1.561 . S
C1303 C1300 1.526 . S
C1303 C1304 1.396 . S
C1303 C1308 1.390 . S
C1304 C1298 1.465 . S
C1304 C1303 1.396 . S
C1304 C1305 1.399 . S
C1305 H1291 0.929 . S
C1305 C1304 1.399 . S
C1305 C1306 1.385 . S
C1306 H1292 0.931 . S
C1306 C1305 1.385 . S
C1306 C1307 1.389 . S
C1307 C1306 1.389 . S
C1307 C1308 1.387 . S
C1308 H1293 0.930 . S
C1308 C1303 1.390 . S
C1308 C1307 1.387 . S
H1309 C1321 0.930 . S
H1310 C1323 0.930 . S
H1311 C1324 0.930 . S
H1312 C1328 0.959 . S
H1313 C1328 0.959 . S
H1314 C1328 0.961 . S
H1315 C1329 0.960 . S
H1316 C1329 0.961 . S
H1317 C1329 0.959 . S
H1318 C1332 0.929 . S
H1319 C1333 0.931 . S
H1320 C1335 0.930 . S
C1321 H1309 0.930 . S
C1321 C1322 1.399 . S
C1321 C1326 1.399 . S
C1322 C1321 1.399 . S
C1322 C1323 1.376 . S
C1323 H1310 0.930 . S
C1323 C1322 1.376 . S
C1323 C1324 1.388 . S
C1324 H1311 0.930 . S
C1324 C1323 1.388 . S
C1324 C1325 1.390 . S
C1325 C1324 1.390 . S
C1325 C1326 1.394 . S
C1325 C1331 1.465 . S
C1326 C1321 1.399 . S
C1326 C1325 1.394 . S
C1326 C1327 1.516 . S
C1327 C1326 1.516 . S
C1327 C1328 1.502 . S
C1327 C1329 1.561 . S
C1327 C1330 1.526 . S
C1328 H1312 0.959 . S
C1328 H1313 0.959 . S
C1328 H1314 0.961 . S
C1328 C1327 1.502 . S
C1329 H1315 0.960 . S
C1329 H1316 0.961 . S
C1329 H1317 0.959 . S
C1329 C1327 1.561 . S
C1330 C1327 1.526 . S
C1330 C1331 1.396 . S
C1330 C1335 1.390 . S
C1331 C1325 1.465 . S
C1331 C1330 1.396 . S
C1331 C1332 1.399 . S
C1332 H1318 0.929 . S
C1332 C1331 1.399 . S
C1332 C1333 1.385 . S
C1333 H1319 0.931 . S
C1333 C1332 1.385 . S
C1333 C1334 1.389 . S
C1334 C1333 1.389 . S
C1334 C1335 1.387 . S
C1335 H1320 0.930 . S
C1335 C1330 1.390 . S
C1335 C1334 1.387 . S
C497 C384 1.315 . S
C485 C8 1.285 . S
C524 C398 1.300 . S
C512 C61 1.285 . S
C551 C411 1.318 . S
C539 C107 1.330 . S
C566 C139 1.295 . S
C578 C378 1.311 . S
C593 C192 1.339 . S
C605 C371 1.345 . S
C620 C238 1.343 . S
C632 C391 1.335 . S
C659 C399 1.307 . S
C647 C284 1.298 . S
C686 C412 1.315 . S
C674 C330 1.293 . S
C701 C100 1.292 . S
C713 C438 1.308 . S
C740 C456 1.336 . S
C728 C160 1.321 . S
C755 C15 1.290 . S
C767 C463 1.305 . S
C794 C430 1.310 . S
C782 C54 1.294 . S
C809 C291 1.292 . S
C821 C423 1.337 . S
C836 C337 1.342 . S
C848 C437 1.340 . S
C875 C449 1.304 . S
C863 C199 1.300 . S
C890 C245 1.292 . S
C902 C464 1.310 . S
C929 C397 1.707 . S
C917 C1 1.739 . S
C956 C410 1.733 . S
C944 C68 1.752 . S
C971 C114 1.715 . S
C983 C373 1.742 . S
C998 C146 1.732 . S
C1010 C385 1.690 . S
C1025 C185 1.730 . S
C1037 C417 1.683 . S
C1064 C372 1.711 . S
C1052 C231 1.746 . S
C1091 C386 1.704 . S
C1079 C277 1.747 . S
C1118 C404 1.712 . S
C1106 C323 1.751 . S
C1145 C451 1.706 . S
C1133 C93 1.744 . S
C1172 C462 1.749 . S
C1160 C153 1.721 . S
C1187 C22 1.731 . S
C1199 C425 1.743 . S
C1226 C443 1.706 . S
C1214 C47 1.722 . S
C1253 C469 1.729 . S
C1241 C298 1.706 . S
C1268 C344 1.713 . S
C1280 C424 1.734 . S
C1307 C436 1.704 . S
C1295 C206 1.746 . S
C1334 C450 1.729 . S
C1322 C252 1.735 . S
