# Generated by pormake.
# Topology the, (3,8)-cn, num edge types: 1
# Building blocks:
#     Node 0, Type 0, BuildingBlock: BETDAH_clean_linker_0, # of connection points: 3
#     Node 1, Type 0, BuildingBlock: BETDAH_clean_linker_0, # of connection points: 3
#     Node 2, Type 0, BuildingBlock: BETDAH_clean_linker_0, # of connection points: 3
#     Node 3, Type 0, BuildingBlock: BETDAH_clean_linker_0, # of connection points: 3
#     Node 4, Type 0, BuildingBlock: BETDAH_clean_linker_0, # of connection points: 3
#     Node 5, Type 0, BuildingBlock: BETDAH_clean_linker_0, # of connection points: 3
#     Node 6, Type 0, BuildingBlock: BETDAH_clean_linker_0, # of connection points: 3
#     Node 7, Type 0, BuildingBlock: BETDAH_clean_linker_0, # of connection points: 3
#     Node 8, Type 1, BuildingBlock: GIZVER_clean_sbu_0, # of connection points: 8
#     Node 9, Type 1, BuildingBlock: GIZVER_clean_sbu_0, # of connection points: 8
#     Node 10, Type 1, BuildingBlock: GIZVER_clean_sbu_0, # of connection points: 8
#     Edge 11, Type (0, 1), BuildingBlock: EZIPEK_clean_linker_0, # of connection points: 2
#     Edge 12, Type (0, 1), BuildingBlock: EZIPEK_clean_linker_0, # of connection points: 2
#     Edge 13, Type (0, 1), BuildingBlock: EZIPEK_clean_linker_0, # of connection points: 2
#     Edge 14, Type (0, 1), BuildingBlock: EZIPEK_clean_linker_0, # of connection points: 2
#     Edge 15, Type (0, 1), BuildingBlock: EZIPEK_clean_linker_0, # of connection points: 2
#     Edge 16, Type (0, 1), BuildingBlock: EZIPEK_clean_linker_0, # of connection points: 2
#     Edge 17, Type (0, 1), BuildingBlock: EZIPEK_clean_linker_0, # of connection points: 2
#     Edge 18, Type (0, 1), BuildingBlock: EZIPEK_clean_linker_0, # of connection points: 2
#     Edge 19, Type (0, 1), BuildingBlock: EZIPEK_clean_linker_0, # of connection points: 2
#     Edge 20, Type (0, 1), BuildingBlock: EZIPEK_clean_linker_0, # of connection points: 2
#     Edge 21, Type (0, 1), BuildingBlock: EZIPEK_clean_linker_0, # of connection points: 2
#     Edge 22, Type (0, 1), BuildingBlock: EZIPEK_clean_linker_0, # of connection points: 2
#     Edge 23, Type (0, 1), BuildingBlock: EZIPEK_clean_linker_0, # of connection points: 2
#     Edge 24, Type (0, 1), BuildingBlock: EZIPEK_clean_linker_0, # of connection points: 2
#     Edge 25, Type (0, 1), BuildingBlock: EZIPEK_clean_linker_0, # of connection points: 2
#     Edge 26, Type (0, 1), BuildingBlock: EZIPEK_clean_linker_0, # of connection points: 2
#     Edge 27, Type (0, 1), BuildingBlock: EZIPEK_clean_linker_0, # of connection points: 2
#     Edge 28, Type (0, 1), BuildingBlock: EZIPEK_clean_linker_0, # of connection points: 2
#     Edge 29, Type (0, 1), BuildingBlock: EZIPEK_clean_linker_0, # of connection points: 2
#     Edge 30, Type (0, 1), BuildingBlock: EZIPEK_clean_linker_0, # of connection points: 2
#     Edge 31, Type (0, 1), BuildingBlock: EZIPEK_clean_linker_0, # of connection points: 2
#     Edge 32, Type (0, 1), BuildingBlock: EZIPEK_clean_linker_0, # of connection points: 2
#     Edge 33, Type (0, 1), BuildingBlock: EZIPEK_clean_linker_0, # of connection points: 2
#     Edge 34, Type (0, 1), BuildingBlock: EZIPEK_clean_linker_0, # of connection points: 2
# Relax obj value: 0.074
# Max RMSD: 0.201
# Mean RMSD: 0.122
data_MOF--net-the--node1-GIZVER_clean_sbu_0--node2-BETDAH_clean_linker_0--edge1-EZIPEK_clean_linker_0
_symmetry_space_group_name_H-M    P1
_symmetry_Int_Tables_number       1
_symmetry_cell_setting            triclinic
loop_
_symmetry_equiv_pos_as_xyz
'x, y, z'
_cell_length_a     30.465804
_cell_length_b     28.738673
_cell_length_c     26.655444
_cell_angle_alpha  87.053541
_cell_angle_beta   97.395476
_cell_angle_gamma 113.68047
loop_
_atom_site_label
_atom_site_type_symbol
_atom_site_fract_x
_atom_site_fract_y
_atom_site_fract_z
_atom_type_partial_charge
H0 H 0.41756 0.2944 0.35278 0.0
H1 H 0.39822 0.29643 0.50938 0.0
H2 H 0.38652 0.41417 0.40942 0.0
C3 C 0.40867 0.31129 0.38336 0.0
C4 C 0.40142 0.35641 0.37508 0.0
C5 C 0.40806 0.28997 0.43181 0.0
C6 C 0.3984 0.31266 0.47172 0.0
C7 C 0.38856 0.35594 0.4634 0.0
C8 C 0.39101 0.37867 0.4152 0.0
N9 N 0.37813 0.37685 0.50478 0.0
C10 C 0.339 0.39023 0.50137 0.0
H11 H 0.77282 0.26417 0.40151 0.0
H12 H 0.81223 0.35856 0.26957 0.0
H13 H 0.66977 0.24472 0.27121 0.0
C14 C 0.76621 0.2739 0.36256 0.0
C15 C 0.7188 0.24881 0.33882 0.0
C16 C 0.80279 0.31188 0.33789 0.0
C17 C 0.78809 0.32676 0.28927 0.0
C18 C 0.7409 0.30276 0.26511 0.0
C19 C 0.70611 0.26374 0.28995 0.0
N20 N 0.73102 0.31562 0.21394 0.0
C21 C 0.69432 0.3315 0.19589 0.0
H22 H 0.77149 0.64212 0.28194 0.0
H23 H 0.82862 0.76491 0.38769 0.0
H24 H 0.72135 0.76403 0.26805 0.0
C25 C 0.77324 0.67865 0.29264 0.0
C26 C 0.74642 0.70278 0.26272 0.0
C27 C 0.80304 0.70089 0.3371 0.0
C28 C 0.80423 0.74651 0.35456 0.0
C29 C 0.77454 0.7689 0.32918 0.0
C30 C 0.74479 0.74626 0.2846 0.0
N31 N 0.78217 0.81905 0.34263 0.0
C32 C 0.7525 0.83153 0.37028 0.0
H33 H 0.30932 0.76556 0.40874 0.0
H34 H 0.41532 0.79567 0.30672 0.0
H35 H 0.28608 0.65864 0.28985 0.0
C36 C 0.32046 0.75458 0.37582 0.0
C37 C 0.29138 0.70809 0.35129 0.0
C38 C 0.36637 0.78417 0.36214 0.0
C39 C 0.38035 0.77199 0.31836 0.0
C40 C 0.351 0.72745 0.29147 0.0
C41 C 0.30759 0.69425 0.30929 0.0
N42 N 0.36551 0.71828 0.24583 0.0
C43 C 0.36461 0.67191 0.2319 0.0
H44 H 0.32027 0.76584 0.66949 0.0
H45 H 0.28287 0.64911 0.78244 0.0
H46 H 0.42524 0.76804 0.7959 0.0
C47 C 0.33028 0.75003 0.70471 0.0
C48 C 0.37743 0.77345 0.73032 0.0
C49 C 0.29717 0.70375 0.72174 0.0
C50 C 0.30879 0.68407 0.76831 0.0
C51 C 0.35463 0.70742 0.79546 0.0
C52 C 0.38949 0.75084 0.77545 0.0
N53 N 0.36322 0.6889 0.84454 0.0
C54 C 0.39988 0.67216 0.85994 0.0
H55 H 0.43811 0.27747 0.77221 0.0
H56 H 0.30913 0.30229 0.78337 0.0
H57 H 0.30735 0.195 0.67565 0.0
C58 C 0.40037 0.26898 0.75997 0.0
C59 C 0.3757 0.23371 0.72065 0.0
C60 C 0.37656 0.29392 0.78291 0.0
C61 C 0.32781 0.28355 0.76581 0.0
C62 C 0.30283 0.24763 0.72723 0.0
C63 C 0.32681 0.22273 0.7053 0.0
N64 N 0.25266 0.23272 0.71255 0.0
C65 C 0.23146 0.2663 0.6955 0.0
H66 H 0.8178 0.28831 0.66548 0.0
H67 H 0.88846 0.38223 0.79655 0.0
H68 H 0.74718 0.26303 0.80027 0.0
C69 C 0.81886 0.29659 0.70496 0.0
C70 C 0.77873 0.26915 0.73075 0.0
C71 C 0.85844 0.33765 0.72834 0.0
C72 C 0.85863 0.3498 0.77868 0.0
C73 C 0.81859 0.32317 0.80463 0.0
C74 C 0.77859 0.28284 0.78064 0.0
N75 N 0.81861 0.33835 0.85438 0.0
C76 C 0.78851 0.36127 0.86552 0.0
H77 H 0.7858 0.60709 0.69572 0.0
H78 H 0.87038 0.75377 0.63613 0.0
H79 H 0.76567 0.73996 0.73525 0.0
C80 C 0.79445 0.64746 0.69174 0.0
C81 C 0.77257 0.67026 0.71991 0.0
C82 C 0.83037 0.67748 0.66174 0.0
C83 C 0.84223 0.72993 0.65843 0.0
C84 C 0.81708 0.75186 0.68222 0.0
C85 C 0.7828 0.72225 0.71388 0.0
N86 N 0.82839 0.80427 0.67517 0.0
C87 C 0.79305 0.82314 0.66284 0.0
Co88 Co 0.11714 0.45042 0.5787 0.0
Co89 Co 0.12146 0.46615 0.48401 0.0
Co90 Co 0.05085 0.51846 0.51426 0.0
O91 O 0.07475 0.46179 0.52361 0.0
H92 H 0.04771 0.42973 0.51613 0.0
O93 O 0.02407 0.57197 0.50353 0.0
Co94 Co 0.95908 0.558 0.47232 0.0
Co95 Co 1.00343 0.57908 0.56333 0.0
H96 H 0.04734 0.60425 0.49325 0.0
O97 O 0.13987 0.41478 0.46988 0.0
O98 O 0.16982 0.47033 0.53433 0.0
O99 O 0.14337 0.52408 0.4423 0.0
O100 O 0.09761 0.56157 0.46512 0.0
O101 O 1.00397 0.47751 0.45755 0.0
O102 O 0.90109 0.55031 0.44159 0.0
O103 O 0.9674 0.62277 0.45548 0.0
O104 O 0.94119 0.48687 0.48207 0.0
O105 O 1.00383 0.47591 0.56324 0.0
O106 O 1.002 0.53078 0.61713 0.0
O107 O 0.94019 0.56817 0.53978 0.0
O108 O 0.99933 0.63766 0.57952 0.0
C109 C 0.13268 0.38947 0.60654 0.0
C110 C 0.13446 0.55792 0.59733 0.0
C111 C 0.1305 0.56081 0.44008 0.0
C112 C 0.17541 0.44016 0.5036 0.0
C113 C 0.92199 0.59932 0.4372 0.0
C114 C 0.95848 0.46359 0.45629 0.0
C115 C 0.9931 0.48565 0.60513 0.0
C116 C 0.95404 0.61075 0.56496 0.0
O117 O 0.15368 0.43403 0.62763 0.0
O118 O 0.10004 0.38286 0.56745 0.0
O119 O 0.09864 0.56263 0.57034 0.0
O120 O 0.14061 0.517 0.59873 0.0
Co121 Co 0.60867 0.94014 0.5214 0.0
Co122 Co 0.61989 0.9623 0.6155 0.0
Co123 Co 0.56279 0.02423 0.55585 0.0
O124 O 0.6161 0.9998 0.5578 0.0
H125 H 0.64662 0.02686 0.55262 0.0
O126 O 0.50859 0.04709 0.55388 0.0
Co127 Co 0.51714 0.10971 0.58349 0.0
Co128 Co 0.49854 0.07434 0.4919 0.0
H129 H 0.47887 0.01995 0.5615 0.0
O130 O 0.67855 0.96651 0.64359 0.0
O131 O 0.62546 0.90892 0.58598 0.0
O132 O 0.56594 0.93516 0.65395 0.0
O133 O 0.52423 0.97242 0.60607 0.0
O134 O 0.60222 0.07433 0.61216 0.0
O135 O 0.52003 0.16555 0.61269 0.0
O136 O 0.45474 0.09293 0.59521 0.0
O137 O 0.58344 0.1355 0.57734 0.0
O138 O 0.60011 0.07672 0.50477 0.0
O139 O 0.54636 0.08879 0.44651 0.0
O140 O 0.50464 0.13621 0.51529 0.0
O141 O 0.44084 0.07802 0.46775 0.0
C142 C 0.65144 0.91573 0.48429 0.0
C143 C 0.51275 0.92696 0.50434 0.0
C144 C 0.52732 0.9417 0.64149 0.0
C145 C 0.66589 0.92581 0.61653 0.0
C146 C 0.47446 0.13858 0.61494 0.0
C147 C 0.61158 0.12193 0.60783 0.0
C148 C 0.58936 0.09504 0.46221 0.0
C149 C 0.46362 0.12349 0.48646 0.0
O150 O 0.60606 0.88753 0.48633 0.0
O151 O 0.67052 0.96019 0.50662 0.0
O152 O 0.52395 0.97475 0.50003 0.0
O153 O 0.54263 0.91134 0.52945 0.0
Co154 Co 0.49824 0.53126 0.12367 0.0
Co155 Co 0.4823 0.43818 0.11204 0.0
Co156 Co 0.55124 0.50486 1.02579 0.0
O157 O 0.49596 0.49115 0.06664 0.0
H158 H 0.46685 0.4855 0.04398 0.0
O159 O 0.60704 0.51913 0.98625 0.0
Co160 Co 0.6116 0.47514 0.93712 0.0
Co161 Co 0.61228 0.56136 0.93298 0.0
H162 H 0.63694 0.53212 1.00861 0.0
O163 O 0.42349 0.40269 0.13741 0.0
O164 O 0.48583 0.47264 0.17013 0.0
O165 O 0.52889 0.40934 0.12151 0.0
O166 O 0.57843 0.45816 0.06693 0.0
O167 O 0.50548 0.44666 0.97959 0.0
O168 O 0.62119 0.43455 0.89541 0.0
O169 O 0.67505 0.48863 0.9539 0.0
O170 O 0.54633 0.45407 0.91359 0.0
O171 O 0.52459 0.55234 0.98558 0.0
O172 O 0.55993 0.58148 0.91528 0.0
O173 O 0.62621 0.52956 0.88357 0.0
O174 O 0.67165 0.60651 0.92077 0.0
C175 C 0.44964 0.55298 0.15172 0.0
C176 C 0.60007 0.57027 0.11743 0.0
C177 C 0.56753 0.42357 0.1012 0.0
C178 C 0.44637 0.43294 0.17539 0.0
C179 C 0.66445 0.45369 0.91954 0.0
C180 C 0.50729 0.43707 0.93352 0.0
C181 C 0.52796 0.57678 0.94353 0.0
C182 C 0.66204 0.57431 0.8842 0.0
O183 O 0.49402 0.56826 0.17291 0.0
O184 O 0.43501 0.52092 0.114 0.0
O185 O 0.59683 0.56381 0.06991 0.0
O186 O 0.56453 0.5483 0.14222 0.0
C187 C 0.28776 0.41515 0.54904 0.0
C188 C 0.29829 0.40375 0.5022 0.0
C189 C 0.23627 0.42856 0.45692 0.0
C190 C 0.22298 0.43655 0.50385 0.0
N191 N 0.25162 0.45983 0.59217 0.0
N192 N 0.27639 0.3887 0.41264 0.0
C193 C 0.25292 0.43622 0.54952 0.0
C194 C 0.27105 0.40766 0.45635 0.0
N195 N 0.30984 0.4041 0.59328 0.0
N196 N 0.21842 0.44493 0.41303 0.0
H197 H 0.29954 0.37033 0.41163 0.0
H198 H 0.25401 0.38582 0.3789 0.0
H199 H 0.19672 0.46531 0.41258 0.0
H200 H 0.23017 0.44452 0.37812 0.0
H201 H 0.29882 0.40485 0.62853 0.0
H202 H 0.33608 0.38923 0.59443 0.0
H203 H 0.275 0.46328 0.62521 0.0
H204 H 0.23345 0.48347 0.59279 0.0
C205 C 0.67414 0.2209 0.41486 0.0
C206 C 0.68289 0.20816 0.36761 0.0
C207 C 0.63136 0.11848 0.38288 0.0
C208 C 0.62781 0.13102 0.43265 0.0
N209 N 0.66013 0.19273 0.50002 0.0
N210 N 0.67645 0.14271 0.31023 0.0
C211 C 0.65343 0.18182 0.44984 0.0
C212 C 0.6632 0.15628 0.35238 0.0
N213 N 0.68515 0.27045 0.42626 0.0
N214 N 0.60448 0.07048 0.36481 0.0
H215 H 0.69999 0.16899 0.28737 0.0
H216 H 0.6672 0.10508 0.30027 0.0
H217 H 0.58344 0.04123 0.38726 0.0
H218 H 0.60122 0.06053 0.32705 0.0
H219 H 0.67545 0.2812 0.45849 0.0
H220 H 0.69914 0.30009 0.40085 0.0
H221 H 0.68115 0.22877 0.51501 0.0
H222 H 0.6515 0.16413 0.52685 0.0
C223 C 0.88214 0.69071 0.35232 0.0
C224 C 0.83445 0.67676 0.36446 0.0
C225 C 0.84659 0.61723 0.42856 0.0
C226 C 0.89282 0.62763 0.4132 0.0
N227 N 0.95038 0.66734 0.35354 0.0
N228 N 0.7687 0.62268 0.40946 0.0
C229 C 0.9097 0.66287 0.37349 0.0
C230 C 0.81596 0.63879 0.40122 0.0
N231 N 0.90121 0.73075 0.32053 0.0
N232 N 0.83271 0.58863 0.47082 0.0
H233 H 0.74575 0.63909 0.39189 0.0
H234 H 0.75117 0.59074 0.43086 0.0
H235 H 0.85419 0.57325 0.49316 0.0
H236 H 0.80211 0.58455 0.48716 0.0
H237 H 0.9375 0.74664 0.31484 0.0
H238 H 0.88159 0.75076 0.30273 0.0
H239 H 0.96154 0.68811 0.321 0.0
H240 H 0.97064 0.64634 0.36635 0.0
C241 C 0.42963 0.80359 0.4367 0.0
C242 C 0.40244 0.82126 0.3993 0.0
C243 C 0.43664 0.90486 0.44052 0.0
C244 C 0.46812 0.88893 0.47452 0.0
N245 N 0.47327 0.81581 0.52029 0.0
N246 N 0.38179 0.88897 0.3625 0.0
C247 C 0.45877 0.83615 0.47706 0.0
C248 C 0.4063 0.87196 0.40044 0.0
N249 N 0.4284 0.75572 0.43325 0.0
N250 N 0.43166 0.9487 0.44974 0.0
H251 H 0.35859 0.86547 0.33334 0.0
H252 H 0.38736 0.92703 0.35757 0.0
H253 H 0.4461 0.96877 0.48348 0.0
H254 H 0.40714 0.96082 0.42837 0.0
H255 H 0.45243 0.74334 0.45532 0.0
H256 H 0.40625 0.72958 0.40554 0.0
H257 H 0.46394 0.77701 0.52569 0.0
H258 H 0.48748 0.83598 0.55401 0.0
C259 C 0.20785 0.66879 0.68948 0.0
C260 C 0.25487 0.67101 0.68662 0.0
C261 C 0.22285 0.61022 0.61646 0.0
C262 C 0.17483 0.60218 0.62388 0.0
N263 N 0.12133 0.62084 0.67099 0.0
N264 N 0.30632 0.63813 0.65234 0.0
C265 C 0.16715 0.63117 0.66091 0.0
C266 C 0.26214 0.6403 0.65132 0.0
N267 N 0.20221 0.70268 0.71943 0.0
N268 N 0.23112 0.58981 0.57521 0.0
H269 H 0.33651 0.65976 0.67684 0.0
H270 H 0.31211 0.61152 0.63201 0.0
H271 H 0.20369 0.56924 0.5474 0.0
H272 H 0.26544 0.59834 0.56515 0.0
H273 H 0.1697 0.70659 0.71952 0.0
H274 H 0.23121 0.72975 0.74138 0.0
H275 H 0.11357 0.63656 0.70127 0.0
H276 H 0.0909 0.59367 0.65117 0.0
C277 C 0.42676 0.23467 0.65306 0.0
C278 C 0.40098 0.20902 0.69384 0.0
C279 C 0.42279 0.13667 0.68291 0.0
C280 C 0.44615 0.16091 0.64008 0.0
N281 N 0.46504 0.23018 0.5802 0.0
N282 N 0.36848 0.13315 0.74361 0.0
C283 C 0.44672 0.20923 0.6241 0.0
C284 C 0.3971 0.15919 0.70742 0.0
N285 N 0.43285 0.28384 0.64248 0.0
N286 N 0.42767 0.09376 0.70225 0.0
H287 H 0.35122 0.14923 0.76424 0.0
H288 H 0.35919 0.09462 0.75091 0.0
H289 H 0.44667 0.07638 0.6862 0.0
H290 H 0.41644 0.07763 0.73668 0.0
H291 H 0.456 0.30697 0.61746 0.0
H292 H 0.41714 0.30306 0.66129 0.0
H293 H 0.46119 0.26182 0.56286 0.0
H294 H 0.48109 0.2137 0.5586 0.0
C295 C 0.87963 0.40806 0.66536 0.0
C296 C 0.89404 0.37429 0.69681 0.0
C297 C 0.97485 0.41289 0.66818 0.0
C298 C 0.9588 0.44391 0.63401 0.0
N299 N 0.89152 0.45931 0.59026 0.0
N300 N 0.95299 0.33946 0.72433 0.0
C301 C 0.90991 0.43801 0.62979 0.0
C302 C 0.94107 0.37516 0.69712 0.0
N303 N 0.83752 0.4129 0.67044 0.0
N304 N 0.02241 0.42035 0.67376 0.0
H305 H 0.92927 0.31218 0.74638 0.0
H306 H 0.98486 0.3347 0.72247 0.0
H307 H 0.04735 0.44644 0.65194 0.0
H308 H 0.03766 0.40293 0.70178 0.0
H309 H 0.82825 0.44133 0.6525 0.0
H310 H 0.81408 0.39201 0.69633 0.0
H311 H 0.85495 0.45189 0.58214 0.0
H312 H 0.91218 0.47983 0.56248 0.0
C313 C 0.70974 0.81956 0.64676 0.0
C314 C 0.76006 0.84736 0.64708 0.0
C315 C 0.7467 0.92289 0.61668 0.0
C316 C 0.69717 0.89724 0.62349 0.0
N317 N 0.63263 0.82328 0.65257 0.0
N318 N 0.82782 0.9263 0.63614 0.0
C319 C 0.67878 0.84598 0.64029 0.0
C320 C 0.77896 0.89923 0.63292 0.0
N321 N 0.69142 0.76789 0.65169 0.0
N322 N 0.76268 0.96928 0.59341 0.0
H323 H 0.85269 0.90993 0.6462 0.0
H324 H 0.84384 0.96563 0.63227 0.0
H325 H 0.74028 0.98811 0.58111 0.0
H326 H 0.79709 0.98716 0.58222 0.0
H327 H 0.6546 0.74511 0.64679 0.0
H328 H 0.71315 0.74739 0.65552 0.0
H329 H 0.61921 0.78791 0.67009 0.0
H330 H 0.60894 0.8415 0.64961 0.0
C331 C 0.38574 0.19894 0.45731 0.0
C332 C 0.42079 0.24564 0.44199 0.0
C333 C 0.47972 0.20762 0.44573 0.0
C334 C 0.44714 0.16362 0.46824 0.0
N335 N 0.37129 0.11978 0.50226 0.0
N336 N 0.50409 0.2976 0.43133 0.0
C337 C 0.40049 0.15962 0.4756 0.0
C338 C 0.46863 0.25091 0.43869 0.0
N339 N 0.33832 0.19191 0.45348 0.0
N340 N 0.5206 0.20762 0.42972 0.0
H341 H 0.49799 0.33084 0.4276 0.0
H342 H 0.54051 0.30405 0.43404 0.0
H343 H 0.52917 0.17585 0.43231 0.0
H344 H 0.54318 0.23721 0.40883 0.0
H345 H 0.31058 0.15697 0.45952 0.0
H346 H 0.32617 0.21981 0.43966 0.0
H347 H 0.33929 0.11816 0.51374 0.0
H348 H 0.38096 0.09037 0.51672 0.0
C349 C 0.88954 0.38054 0.3415 0.0
C350 C 0.8537 0.34027 0.36499 0.0
C351 C 0.89805 0.37285 0.44773 0.0
C352 C 0.92527 0.41948 0.42469 0.0
N353 N 0.94898 0.46713 0.34818 0.0
N354 N 0.8555 0.28274 0.43318 0.0
C355 C 0.92227 0.42295 0.37108 0.0
C356 C 0.86638 0.33131 0.41656 0.0
N357 N 0.89681 0.37476 0.29323 0.0
N358 N 0.90222 0.36786 0.49912 0.0
H359 H 0.84022 0.25206 0.4081 0.0
H360 H 0.86767 0.27391 0.46929 0.0
H361 H 0.92665 0.39651 0.5233 0.0
H362 H 0.87931 0.33611 0.51742 0.0
H363 H 0.92538 0.40086 0.27556 0.0
H364 H 0.87789 0.34039 0.2739 0.0
H365 H 0.94405 0.47285 0.30928 0.0
H366 H 0.97345 0.49917 0.36831 0.0
C367 C 0.69975 0.82356 0.43736 0.0
C368 C 0.72747 0.85295 0.39951 0.0
C369 C 0.70553 0.92383 0.41664 0.0
C370 C 0.68048 0.89585 0.4571 0.0
N371 N 0.66083 0.82214 0.51153 0.0
N372 N 0.76381 0.93386 0.35845 0.0
C373 C 0.67953 0.84649 0.46894 0.0
C374 C 0.73257 0.90398 0.39088 0.0
N375 N 0.69188 0.77333 0.44249 0.0
N376 N 0.7012 0.96793 0.40063 0.0
H377 H 0.78307 0.9204 0.33767 0.0
H378 H 0.7735 0.97291 0.35506 0.0
H379 H 0.68105 0.98338 0.41749 0.0
H380 H 0.71391 0.98692 0.36776 0.0
H381 H 0.66751 0.74818 0.46533 0.0
H382 H 0.70706 0.75573 0.42083 0.0
H383 H 0.66416 0.78909 0.5256 0.0
H384 H 0.64557 0.83725 0.53556 0.0
C385 C 0.20149 0.64915 0.34113 0.0
C386 C 0.2461 0.67311 0.37258 0.0
C387 C 0.20269 0.64112 0.44636 0.0
C388 C 0.1623 0.60762 0.41566 0.0
N389 N 0.12325 0.5779 0.33232 0.0
N390 N 0.28919 0.677 0.45666 0.0
C391 C 0.16161 0.61105 0.3624 0.0
C392 C 0.24677 0.66531 0.4258 0.0
N393 N 0.19633 0.664 0.29205 0.0
N394 N 0.19938 0.64924 0.49534 0.0
H395 H 0.32246 0.68854 0.44284 0.0
H396 H 0.29034 0.66874 0.49526 0.0
H397 H 0.16687 0.63284 0.51095 0.0
H398 H 0.22763 0.67641 0.51798 0.0
H399 H 0.16345 0.65011 0.26898 0.0
H400 H 0.22337 0.69422 0.27628 0.0
H401 H 0.12303 0.5752 0.29344 0.0
H402 H 0.09272 0.5516 0.34712 0.0
C403 C 0.41808 0.82309 0.65559 0.0
C404 C 0.41427 0.82022 0.70838 0.0
C405 C 0.48323 0.90343 0.71801 0.0
C406 C 0.48324 0.90729 0.66469 0.0
N407 N 0.43298 0.88047 0.58496 0.0
N408 N 0.43441 0.86785 0.78648 0.0
C409 C 0.44496 0.87043 0.63405 0.0
C410 C 0.44435 0.86339 0.73891 0.0
N411 N 0.39864 0.78055 0.62604 0.0
N412 N 0.51966 0.93831 0.74865 0.0
H413 H 0.40393 0.84183 0.80141 0.0
H414 H 0.45309 0.90036 0.80854 0.0
H415 H 0.54645 0.97008 0.7344 0.0
H416 H 0.52416 0.93419 0.78783 0.0
H417 H 0.40287 0.78151 0.58774 0.0
H418 H 0.38392 0.74403 0.64095 0.0
H419 H 0.4033 0.85481 0.56253 0.0
H420 H 0.44786 0.91664 0.56954 0.0
C421 C 0.18782 0.32187 0.70346 0.0
C422 C 0.20395 0.2949 0.67249 0.0
C423 C 0.16429 0.32083 0.59651 0.0
C424 C 0.14836 0.34844 0.62764 0.0
N425 N 0.13197 0.36137 0.71062 0.0
N426 N 0.20138 0.26079 0.59099 0.0
C427 C 0.15631 0.34471 0.68117 0.0
C428 C 0.19033 0.29206 0.61943 0.0
N429 N 0.20346 0.32665 0.75411 0.0
N430 N 0.15606 0.32314 0.54509 0.0
H431 H 0.22198 0.24072 0.60598 0.0
H432 H 0.18772 0.25197 0.55325 0.0
H433 H 0.13156 0.33672 0.52648 0.0
H434 H 0.17417 0.31221 0.52055 0.0
H435 H 0.19744 0.35064 0.77781 0.0
H436 H 0.22577 0.30953 0.77183 0.0
H437 H 0.13261 0.35578 0.74956 0.0
H438 H 0.10675 0.37581 0.6952 0.0
C439 C 0.699 0.24682 0.67724 0.0
C440 C 0.73454 0.23101 0.70225 0.0
C441 C 0.69625 0.15008 0.65625 0.0
C442 C 0.65643 0.16221 0.63605 0.0
N443 N 0.62367 0.2275 0.62517 0.0
N444 N 0.76353 0.16502 0.72176 0.0
C445 C 0.6589 0.21204 0.64589 0.0
C446 C 0.73181 0.18169 0.69389 0.0
N447 N 0.70501 0.29644 0.68093 0.0
N448 N 0.70321 0.11145 0.63566 0.0
H449 H 0.79046 0.18754 0.74906 0.0
H450 H 0.76017 0.1275 0.72109 0.0
H451 H 0.68329 0.09372 0.60231 0.0
H452 H 0.73332 0.10301 0.64625 0.0
H453 H 0.68436 0.31257 0.65821 0.0
H454 H 0.73267 0.32282 0.70473 0.0
H455 H 0.61595 0.25479 0.64215 0.0
H456 H 0.60615 0.21799 0.58877 0.0
C457 C 0.88165 0.62669 0.66256 0.0
C458 C 0.85769 0.65529 0.63537 0.0
C459 C 0.90043 0.65839 0.56296 0.0
C460 C 0.91827 0.6235 0.58717 0.0
N461 N 0.91752 0.56639 0.65715 0.0
N462 N 0.83415 0.68501 0.55389 0.0
C463 C 0.90569 0.60459 0.63582 0.0
C464 C 0.86374 0.66684 0.58359 0.0
N465 N 0.88511 0.62387 0.71416 0.0
N466 N 0.9197 0.68522 0.52179 0.0
H467 H 0.80508 0.68909 0.56707 0.0
H468 H 0.83534 0.69039 0.51501 0.0
H469 H 0.94879 0.68232 0.50759 0.0
H470 H 0.90995 0.71392 0.50531 0.0
H471 H 0.90611 0.60723 0.73551 0.0
H472 H 0.87215 0.64338 0.73607 0.0
H473 H 0.90486 0.54803 0.69037 0.0
H474 H 0.93602 0.55001 0.63914 0.0
C475 C 0.37442 0.3814 0.2879 0.0
C476 C 0.41202 0.38319 0.32616 0.0
C477 C 0.4706 0.41433 0.26521 0.0
C478 C 0.43398 0.41634 0.22732 0.0
N479 N 0.3531 0.41214 0.20572 0.0
N480 N 0.4972 0.41561 0.35467 0.0
C481 C 0.38635 0.4029 0.23953 0.0
C482 C 0.46056 0.40464 0.31589 0.0
N483 N 0.32744 0.35777 0.29718 0.0
N484 N 0.51391 0.41783 0.25259 0.0
H485 H 0.49103 0.40976 0.39255 0.0
H486 H 0.53339 0.43555 0.34952 0.0
H487 H 0.52175 0.4205 0.21546 0.0
H488 H 0.5398 0.41167 0.27838 0.0
H489 H 0.29831 0.3505 0.26917 0.0
H490 H 0.31768 0.34236 0.33237 0.0
H491 H 0.3193 0.40774 0.21445 0.0
H492 H 0.361 0.42877 0.17048 0.0
C493 C 0.48286 0.67637 0.88726 0.0
C494 C 0.43223 0.64851 0.8823 0.0
C495 C 0.44346 0.57337 0.91958 0.0
C496 C 0.49422 0.60202 0.92682 0.0
N497 N 0.56103 0.68391 0.92886 0.0
N498 N 0.36352 0.57395 0.90211 0.0
C499 C 0.51358 0.65446 0.91378 0.0
C500 C 0.41231 0.59808 0.9011 0.0
N501 N 0.50171 0.72353 0.86598 0.0
N502 N 0.42495 0.52209 0.92787 0.0
H503 H 0.33932 0.58999 0.88752 0.0
H504 H 0.3473 0.53973 0.9209 0.0
H505 H 0.44597 0.50232 0.94203 0.0
H506 H 0.3891 0.49826 0.91704 0.0
H507 H 0.53838 0.7434 0.86316 0.0
H508 H 0.48023 0.74126 0.84767 0.0
H509 H 0.57627 0.72326 0.92493 0.0
H510 H 0.58415 0.66973 0.95017 0.0
C511 C 0.4243 0.38418 0.81305 0.0
C512 C 0.40325 0.33161 0.82445 0.0
C513 C 0.44281 0.34915 0.91216 0.0
C514 C 0.46404 0.40191 0.90077 0.0
N515 N 0.46666 0.47068 0.844 0.0
N516 N 0.38313 0.26512 0.88689 0.0
C517 C 0.45179 0.41961 0.85233 0.0
C518 C 0.40942 0.31453 0.8748 0.0
N519 N 0.41994 0.40004 0.76409 0.0
N520 N 0.45696 0.33153 0.95728 0.0
H521 H 0.3591 0.23872 0.8603 0.0
H522 H 0.38197 0.25135 0.92381 0.0
H523 H 0.48042 0.35531 0.986 0.0
H524 H 0.44781 0.29314 0.96523 0.0
H525 H 0.43921 0.43686 0.75197 0.0
H526 H 0.39929 0.37548 0.73452 0.0
H527 H 0.45498 0.48643 0.81169 0.0
H528 H 0.48754 0.4975 0.8716 0.0
C529 C 0.73708 0.40965 0.84176 0.0
C530 C 0.75958 0.38738 0.87965 0.0
C531 C 0.72206 0.41104 0.94477 0.0
C532 C 0.70092 0.43512 0.90711 0.0
N533 N 0.69658 0.4669 0.82192 0.0
N534 N 0.7817 0.37511 0.96787 0.0
C535 C 0.71084 0.43715 0.85616 0.0
C536 C 0.75473 0.3908 0.93141 0.0
N537 N 0.73992 0.4036 0.79188 0.0
N538 N 0.70889 0.40485 0.99262 0.0
H539 H 0.80499 0.35888 0.95944 0.0
H540 H 0.78402 0.38179 1.00634 0.0
H541 H 0.68456 0.4182 1.00396 0.0
H542 H 0.71917 0.38309 1.02026 0.0
H543 H 0.71969 0.41366 0.76218 0.0
H544 H 0.7602 0.38526 0.78003 0.0
H545 H 0.70708 0.4745 0.7857 0.0
H546 H 0.67781 0.48798 0.83123 0.0
C547 C 0.69238 0.62108 0.75148 0.0
C548 C 0.74342 0.64112 0.76019 0.0
C549 C 0.73954 0.6063 0.84616 0.0
C550 C 0.68895 0.59208 0.83973 0.0
N551 N 0.61713 0.59108 0.78835 0.0
N552 N 0.8164 0.65911 0.81757 0.0
C553 C 0.66513 0.60027 0.79274 0.0
C554 C 0.76728 0.63515 0.80792 0.0
N555 N 0.67004 0.62178 0.70373 0.0
N556 N 0.76094 0.59142 0.88853 0.0
H557 H 0.83814 0.68118 0.79084 0.0
H558 H 0.8353 0.66082 0.85335 0.0
H559 H 0.74164 0.57043 0.91742 0.0
H560 H 0.79683 0.59572 0.8929 0.0
H561 H 0.63299 0.60302 0.69377 0.0
H562 H 0.68908 0.63776 0.67297 0.0
H563 H 0.59917 0.60189 0.75706 0.0
H564 H 0.59575 0.57616 0.81755 0.0
C565 C 0.72589 0.64052 0.18809 0.0
C566 C 0.71819 0.67957 0.21165 0.0
C567 C 0.6414 0.65698 0.15724 0.0
C568 C 0.64358 0.61073 0.14404 0.0
N569 N 0.69026 0.56014 0.14306 0.0
N570 N 0.69051 0.74413 0.17973 0.0
C571 C 0.68687 0.60331 0.15761 0.0
C572 C 0.68186 0.69397 0.18585 0.0
N573 N 0.77173 0.64312 0.18927 0.0
N574 N 0.60106 0.66615 0.14215 0.0
H575 H 0.72508 0.77223 0.18867 0.0
H576 H 0.66667 0.75699 0.1579 0.0
H577 H 0.57175 0.64173 0.11835 0.0
H578 H 0.5962 0.69704 0.15554 0.0
H579 H 0.78045 0.61851 0.16914 0.0
H580 H 0.80155 0.6742 0.20516 0.0
H581 H 0.71872 0.54995 0.15706 0.0
H582 H 0.66319 0.53318 0.11918 0.0
C583 C 0.3951 0.60345 0.24497 0.0
C584 C 0.37364 0.6307 0.21215 0.0
C585 C 0.39408 0.59961 0.13831 0.0
C586 C 0.4169 0.5731 0.17109 0.0
N587 N 0.42791 0.53887 0.25403 0.0
N588 N 0.33959 0.64309 0.12873 0.0
C589 C 0.41367 0.57147 0.22401 0.0
C590 C 0.3685 0.62451 0.15913 0.0
N591 N 0.39943 0.6098 0.29611 0.0
N592 N 0.40001 0.6047 0.08804 0.0
H593 H 0.32071 0.66164 0.14326 0.0
H594 H 0.33058 0.63573 0.09007 0.0
H595 H 0.41932 0.58843 0.07098 0.0
H596 H 0.38908 0.6286 0.06376 0.0
H597 H 0.41995 0.59611 0.32212 0.0
H598 H 0.38403 0.63098 0.31245 0.0
H599 H 0.4222 0.53204 0.29187 0.0
H600 H 0.44169 0.51512 0.23981 0.0
C601 C 0.64395 0.34454 0.11945 0.0
C602 C 0.66135 0.3536 0.17168 0.0
C603 C 0.62416 0.41475 0.17418 0.0
C604 C 0.60333 0.40274 0.12314 0.0
N605 N 0.58996 0.35403 0.04768 0.0
N606 N 0.66311 0.39149 0.25076 0.0
C607 C 0.61252 0.3672 0.09573 0.0
C608 C 0.65005 0.38706 0.1996 0.0
N609 N 0.65799 0.31468 0.09252 0.0
N610 N 0.62058 0.45403 0.19778 0.0
H611 H 0.68262 0.37225 0.27048 0.0
H612 H 0.65135 0.41081 0.27431 0.0
H613 H 0.60239 0.47556 0.18023 0.0
H614 H 0.63916 0.46839 0.23291 0.0
H615 H 0.65042 0.30995 0.05349 0.0
H616 H 0.67959 0.29627 0.10904 0.0
H617 H 0.59077 0.32463 1.02715 0.0
H618 H 0.56802 0.37106 0.02889 0.0
loop_
_geom_bond_atom_site_label_1
_geom_bond_atom_site_label_2
_geom_bond_distance
_geom_bond_site_symmetry_2
_ccdc_geom_bond_type
H0 C3 0.929 . S
H1 C6 0.929 . S
H2 C8 0.930 . S
C3 H0 0.929 . S
C3 C4 1.398 . S
C3 C5 1.396 . S
C4 C3 1.398 . S
C4 C8 1.407 . S
C5 C3 1.396 . S
C5 C6 1.394 . S
C6 H1 0.929 . S
C6 C5 1.394 . S
C6 C7 1.382 . S
C7 C6 1.382 . S
C7 C8 1.392 . S
C7 N9 1.420 . S
C8 H2 0.930 . S
C8 C4 1.407 . S
C8 C7 1.392 . S
N9 C7 1.420 . S
N9 C10 1.244 . S
C10 N9 1.244 . S
H11 C14 0.929 . S
H12 C17 0.929 . S
H13 C19 0.930 . S
C14 H11 0.929 . S
C14 C15 1.398 . S
C14 C16 1.396 . S
C15 C14 1.398 . S
C15 C19 1.407 . S
C16 C14 1.396 . S
C16 C17 1.394 . S
C17 H12 0.929 . S
C17 C16 1.394 . S
C17 C18 1.382 . S
C18 C17 1.382 . S
C18 C19 1.392 . S
C18 N20 1.420 . S
C19 H13 0.930 . S
C19 C15 1.407 . S
C19 C18 1.392 . S
N20 C18 1.420 . S
N20 C21 1.244 . S
C21 N20 1.244 . S
H22 C25 0.929 . S
H23 C28 0.929 . S
H24 C30 0.930 . S
C25 H22 0.929 . S
C25 C26 1.398 . S
C25 C27 1.396 . S
C26 C25 1.398 . S
C26 C30 1.407 . S
C27 C25 1.396 . S
C27 C28 1.394 . S
C28 H23 0.929 . S
C28 C27 1.394 . S
C28 C29 1.382 . S
C29 C28 1.382 . S
C29 C30 1.392 . S
C29 N31 1.420 . S
C30 H24 0.930 . S
C30 C26 1.407 . S
C30 C29 1.392 . S
N31 C29 1.420 . S
N31 C32 1.244 . S
C32 N31 1.244 . S
H33 C36 0.929 . S
H34 C39 0.929 . S
H35 C41 0.930 . S
C36 H33 0.929 . S
C36 C37 1.398 . S
C36 C38 1.396 . S
C37 C36 1.398 . S
C37 C41 1.407 . S
C38 C36 1.396 . S
C38 C39 1.394 . S
C39 H34 0.929 . S
C39 C38 1.394 . S
C39 C40 1.382 . S
C40 C39 1.382 . S
C40 C41 1.392 . S
C40 N42 1.420 . S
C41 H35 0.930 . S
C41 C37 1.407 . S
C41 C40 1.392 . S
N42 C40 1.420 . S
N42 C43 1.244 . S
C43 N42 1.244 . S
H44 C47 0.929 . S
H45 C50 0.929 . S
H46 C52 0.930 . S
C47 H44 0.929 . S
C47 C48 1.398 . S
C47 C49 1.396 . S
C48 C47 1.398 . S
C48 C52 1.407 . S
C49 C47 1.396 . S
C49 C50 1.394 . S
C50 H45 0.929 . S
C50 C49 1.394 . S
C50 C51 1.382 . S
C51 C50 1.382 . S
C51 C52 1.392 . S
C51 N53 1.420 . S
C52 H46 0.930 . S
C52 C48 1.407 . S
C52 C51 1.392 . S
N53 C51 1.420 . S
N53 C54 1.244 . S
C54 N53 1.244 . S
H55 C58 0.929 . S
H56 C61 0.929 . S
H57 C63 0.930 . S
C58 H55 0.929 . S
C58 C59 1.398 . S
C58 C60 1.396 . S
C59 C58 1.398 . S
C59 C63 1.407 . S
C60 C58 1.396 . S
C60 C61 1.394 . S
C61 H56 0.929 . S
C61 C60 1.394 . S
C61 C62 1.382 . S
C62 C61 1.382 . S
C62 C63 1.392 . S
C62 N64 1.420 . S
C63 H57 0.930 . S
C63 C59 1.407 . S
C63 C62 1.392 . S
N64 C62 1.420 . S
N64 C65 1.244 . S
C65 N64 1.244 . S
H66 C69 0.929 . S
H67 C72 0.929 . S
H68 C74 0.930 . S
C69 H66 0.929 . S
C69 C70 1.398 . S
C69 C71 1.396 . S
C70 C69 1.398 . S
C70 C74 1.407 . S
C71 C69 1.396 . S
C71 C72 1.394 . S
C72 H67 0.929 . S
C72 C71 1.394 . S
C72 C73 1.382 . S
C73 C72 1.382 . S
C73 C74 1.392 . S
C73 N75 1.420 . S
C74 H68 0.930 . S
C74 C70 1.407 . S
C74 C73 1.392 . S
N75 C73 1.420 . S
N75 C76 1.244 . S
C76 N75 1.244 . S
H77 C80 0.929 . S
H78 C83 0.929 . S
H79 C85 0.930 . S
C80 H77 0.929 . S
C80 C81 1.398 . S
C80 C82 1.396 . S
C81 C80 1.398 . S
C81 C85 1.407 . S
C82 C80 1.396 . S
C82 C83 1.394 . S
C83 H78 0.929 . S
C83 C82 1.394 . S
C83 C84 1.382 . S
C84 C83 1.382 . S
C84 C85 1.392 . S
C84 N86 1.420 . S
C85 H79 0.930 . S
C85 C81 1.407 . S
C85 C84 1.392 . S
N86 C84 1.420 . S
N86 C87 1.244 . S
C87 N86 1.244 . S
Co88 O91 2.042 . S
Co88 O98 2.264 . S
Co88 O117 2.286 . S
Co88 O118 2.069 . S
Co88 O120 2.015 . S
Co89 O91 2.122 . S
Co89 O97 2.073 . S
Co89 O98 2.327 . S
Co89 O99 1.976 . S
Co90 O91 2.087 . S
Co90 O93 2.087 1_455 S
Co90 O100 2.111 . S
Co90 O101 2.143 1_455 S
Co90 O105 2.111 1_455 S
Co90 O119 2.143 . S
O91 Co88 2.042 . S
O91 Co89 2.122 . S
O91 Co90 2.087 . S
O91 H92 0.980 . S
H92 O91 0.980 . S
O93 Co90 2.087 1_655 S
O93 Co94 2.042 . S
O93 Co95 2.122 . S
O93 H96 0.980 1_655 S
Co94 O93 2.042 . S
Co94 O102 2.286 . S
Co94 O103 2.069 . S
Co94 O104 2.015 . S
Co94 O107 2.264 . S
Co95 O93 2.122 . S
Co95 O106 1.976 . S
Co95 O107 2.327 . S
Co95 O108 2.073 . S
H96 O93 0.980 1_455 S
O97 Co89 2.073 . S
O97 C112 1.245 . S
O98 Co88 2.264 . S
O98 Co89 2.327 . S
O98 C112 1.257 . S
O99 Co89 1.976 . S
O99 C111 1.251 . S
O100 Co90 2.111 . S
O100 C111 1.274 . S
O101 Co90 2.143 1_655 S
O101 C114 1.246 . S
O102 Co94 2.286 . S
O102 C113 1.259 . S
O103 Co94 2.069 . S
O103 C113 1.289 . S
O104 Co94 2.015 . S
O104 C114 1.257 . S
O105 Co90 2.111 1_655 S
O105 C115 1.274 . S
O106 Co95 1.976 . S
O106 C115 1.251 . S
O107 Co94 2.264 . S
O107 Co95 2.327 . S
O107 C116 1.257 . S
O108 Co95 2.073 . S
O108 C116 1.245 . S
C109 O117 1.259 . S
C109 O118 1.289 . S
C110 O119 1.246 . S
C110 O120 1.257 . S
C111 O99 1.251 . S
C111 O100 1.274 . S
C112 O97 1.245 . S
C112 O98 1.257 . S
C113 O102 1.259 . S
C113 O103 1.289 . S
C114 O101 1.246 . S
C114 O104 1.257 . S
C115 O105 1.274 . S
C115 O106 1.251 . S
C116 O107 1.257 . S
C116 O108 1.245 . S
O117 Co88 2.286 . S
O117 C109 1.259 . S
O118 Co88 2.069 . S
O118 C109 1.289 . S
O119 Co90 2.143 . S
O119 C110 1.246 . S
O120 Co88 2.015 . S
O120 C110 1.257 . S
Co121 O124 2.042 . S
Co121 O131 2.264 . S
Co121 O150 2.286 . S
Co121 O151 2.069 . S
Co121 O153 2.015 . S
Co122 O124 2.122 . S
Co122 O130 2.073 . S
Co122 O131 2.327 . S
Co122 O132 1.976 . S
Co123 O124 2.087 1_545 S
Co123 O126 2.087 . S
Co123 O133 2.111 1_545 S
Co123 O134 2.143 . S
Co123 O138 2.111 . S
Co123 O152 2.143 1_545 S
O124 Co121 2.042 . S
O124 Co122 2.122 . S
O124 Co123 2.087 1_565 S
O124 H125 0.980 1_565 S
H125 O124 0.980 1_545 S
O126 Co123 2.087 . S
O126 Co127 2.042 . S
O126 Co128 2.122 . S
O126 H129 0.980 . S
Co127 O126 2.042 . S
Co127 O135 2.286 . S
Co127 O136 2.069 . S
Co127 O137 2.015 . S
Co127 O140 2.264 . S
Co128 O126 2.122 . S
Co128 O139 1.976 . S
Co128 O140 2.327 . S
Co128 O141 2.073 . S
H129 O126 0.980 . S
O130 Co122 2.073 . S
O130 C145 1.245 . S
O131 Co121 2.264 . S
O131 Co122 2.327 . S
O131 C145 1.257 . S
O132 Co122 1.976 . S
O132 C144 1.251 . S
O133 Co123 2.111 1_565 S
O133 C144 1.274 . S
O134 Co123 2.143 . S
O134 C147 1.246 . S
O135 Co127 2.286 . S
O135 C146 1.259 . S
O136 Co127 2.069 . S
O136 C146 1.289 . S
O137 Co127 2.015 . S
O137 C147 1.257 . S
O138 Co123 2.111 . S
O138 C148 1.274 . S
O139 Co128 1.976 . S
O139 C148 1.251 . S
O140 Co127 2.264 . S
O140 Co128 2.327 . S
O140 C149 1.257 . S
O141 Co128 2.073 . S
O141 C149 1.245 . S
C142 O150 1.259 . S
C142 O151 1.289 . S
C143 O152 1.246 . S
C143 O153 1.257 . S
C144 O132 1.251 . S
C144 O133 1.274 . S
C145 O130 1.245 . S
C145 O131 1.257 . S
C146 O135 1.259 . S
C146 O136 1.289 . S
C147 O134 1.246 . S
C147 O137 1.257 . S
C148 O138 1.274 . S
C148 O139 1.251 . S
C149 O140 1.257 . S
C149 O141 1.245 . S
O150 Co121 2.286 . S
O150 C142 1.259 . S
O151 Co121 2.069 . S
O151 C142 1.289 . S
O152 Co123 2.143 1_565 S
O152 C143 1.246 . S
O153 Co121 2.015 . S
O153 C143 1.257 . S
Co154 O157 2.042 . S
Co154 O164 2.264 . S
Co154 O183 2.286 . S
Co154 O184 2.069 . S
Co154 O186 2.015 . S
Co155 O157 2.122 . S
Co155 O163 2.073 . S
Co155 O164 2.327 . S
Co155 O165 1.976 . S
Co156 O157 2.087 . S
Co156 O159 2.087 1_554 S
Co156 O166 2.111 . S
Co156 O167 2.143 1_554 S
Co156 O171 2.111 1_554 S
Co156 O185 2.143 . S
O157 Co154 2.042 . S
O157 Co155 2.122 . S
O157 Co156 2.087 . S
O157 H158 0.980 . S
H158 O157 0.980 . S
O159 Co156 2.087 1_556 S
O159 Co160 2.042 . S
O159 Co161 2.122 . S
O159 H162 0.980 . S
Co160 O159 2.042 . S
Co160 O168 2.286 . S
Co160 O169 2.069 . S
Co160 O170 2.015 . S
Co160 O173 2.264 . S
Co161 O159 2.122 . S
Co161 O172 1.976 . S
Co161 O173 2.327 . S
Co161 O174 2.073 . S
H162 O159 0.980 . S
O163 Co155 2.073 . S
O163 C178 1.245 . S
O164 Co154 2.264 . S
O164 Co155 2.327 . S
O164 C178 1.257 . S
O165 Co155 1.976 . S
O165 C177 1.251 . S
O166 Co156 2.111 . S
O166 C177 1.274 . S
O167 Co156 2.143 1_556 S
O167 C180 1.246 . S
O168 Co160 2.286 . S
O168 C179 1.259 . S
O169 Co160 2.069 . S
O169 C179 1.289 . S
O170 Co160 2.015 . S
O170 C180 1.257 . S
O171 Co156 2.111 1_556 S
O171 C181 1.274 . S
O172 Co161 1.976 . S
O172 C181 1.251 . S
O173 Co160 2.264 . S
O173 Co161 2.327 . S
O173 C182 1.257 . S
O174 Co161 2.073 . S
O174 C182 1.245 . S
C175 O183 1.259 . S
C175 O184 1.289 . S
C176 O185 1.246 . S
C176 O186 1.257 . S
C177 O165 1.251 . S
C177 O166 1.274 . S
C178 O163 1.245 . S
C178 O164 1.257 . S
C179 O168 1.259 . S
C179 O169 1.289 . S
C180 O167 1.246 . S
C180 O170 1.257 . S
C181 O171 1.274 . S
C181 O172 1.251 . S
C182 O173 1.257 . S
C182 O174 1.245 . S
O183 Co154 2.286 . S
O183 C175 1.259 . S
O184 Co154 2.069 . S
O184 C175 1.289 . S
O185 Co156 2.143 . S
O185 C176 1.246 . S
O186 Co154 2.015 . S
O186 C176 1.257 . S
C187 C188 1.363 . S
C187 C193 1.379 . S
C187 N195 1.356 . S
C188 C187 1.363 . S
C188 C194 1.363 . S
C189 C190 1.363 . S
C189 C194 1.379 . S
C189 N196 1.356 . S
C190 C189 1.363 . S
C190 C193 1.363 . S
N191 C193 1.356 . S
N191 H203 0.984 . S
N191 H204 0.985 . S
N192 C194 1.356 . S
N192 H197 0.984 . S
N192 H198 0.985 . S
C193 C187 1.379 . S
C193 C190 1.363 . S
C193 N191 1.356 . S
C194 C188 1.363 . S
C194 C189 1.379 . S
C194 N192 1.356 . S
N195 C187 1.356 . S
N195 H201 0.984 . S
N195 H202 0.984 . S
N196 C189 1.356 . S
N196 H199 0.984 . S
N196 H200 0.985 . S
H197 N192 0.984 . S
H198 N192 0.985 . S
H199 N196 0.984 . S
H200 N196 0.985 . S
H201 N195 0.984 . S
H202 N195 0.984 . S
H203 N191 0.984 . S
H204 N191 0.985 . S
C205 C206 1.363 . S
C205 C211 1.379 . S
C205 N213 1.356 . S
C206 C205 1.363 . S
C206 C212 1.363 . S
C207 C208 1.363 . S
C207 C212 1.379 . S
C207 N214 1.356 . S
C208 C207 1.363 . S
C208 C211 1.363 . S
N209 C211 1.356 . S
N209 H221 0.984 . S
N209 H222 0.985 . S
N210 C212 1.356 . S
N210 H215 0.984 . S
N210 H216 0.985 . S
C211 C205 1.379 . S
C211 C208 1.363 . S
C211 N209 1.356 . S
C212 C206 1.363 . S
C212 C207 1.379 . S
C212 N210 1.356 . S
N213 C205 1.356 . S
N213 H219 0.984 . S
N213 H220 0.984 . S
N214 C207 1.356 . S
N214 H217 0.984 . S
N214 H218 0.985 . S
H215 N210 0.984 . S
H216 N210 0.985 . S
H217 N214 0.984 . S
H218 N214 0.985 . S
H219 N213 0.984 . S
H220 N213 0.984 . S
H221 N209 0.984 . S
H222 N209 0.985 . S
C223 C224 1.363 . S
C223 C229 1.379 . S
C223 N231 1.356 . S
C224 C223 1.363 . S
C224 C230 1.363 . S
C225 C226 1.363 . S
C225 C230 1.379 . S
C225 N232 1.356 . S
C226 C225 1.363 . S
C226 C229 1.363 . S
N227 C229 1.356 . S
N227 H239 0.984 . S
N227 H240 0.985 . S
N228 C230 1.356 . S
N228 H233 0.984 . S
N228 H234 0.985 . S
C229 C223 1.379 . S
C229 C226 1.363 . S
C229 N227 1.356 . S
C230 C224 1.363 . S
C230 C225 1.379 . S
C230 N228 1.356 . S
N231 C223 1.356 . S
N231 H237 0.984 . S
N231 H238 0.984 . S
N232 C225 1.356 . S
N232 H235 0.984 . S
N232 H236 0.985 . S
H233 N228 0.984 . S
H234 N228 0.985 . S
H235 N232 0.984 . S
H236 N232 0.985 . S
H237 N231 0.984 . S
H238 N231 0.984 . S
H239 N227 0.984 . S
H240 N227 0.985 . S
C241 C242 1.363 . S
C241 C247 1.379 . S
C241 N249 1.356 . S
C242 C241 1.363 . S
C242 C248 1.363 . S
C243 C244 1.363 . S
C243 C248 1.379 . S
C243 N250 1.356 . S
C244 C243 1.363 . S
C244 C247 1.363 . S
N245 C247 1.356 . S
N245 H257 0.984 . S
N245 H258 0.985 . S
N246 C248 1.356 . S
N246 H251 0.984 . S
N246 H252 0.985 . S
C247 C241 1.379 . S
C247 C244 1.363 . S
C247 N245 1.356 . S
C248 C242 1.363 . S
C248 C243 1.379 . S
C248 N246 1.356 . S
N249 C241 1.356 . S
N249 H255 0.984 . S
N249 H256 0.984 . S
N250 C243 1.356 . S
N250 H253 0.984 . S
N250 H254 0.985 . S
H251 N246 0.984 . S
H252 N246 0.985 . S
H253 N250 0.984 . S
H254 N250 0.985 . S
H255 N249 0.984 . S
H256 N249 0.984 . S
H257 N245 0.984 . S
H258 N245 0.985 . S
C259 C260 1.363 . S
C259 C265 1.379 . S
C259 N267 1.356 . S
C260 C259 1.363 . S
C260 C266 1.363 . S
C261 C262 1.363 . S
C261 C266 1.379 . S
C261 N268 1.356 . S
C262 C261 1.363 . S
C262 C265 1.363 . S
N263 C265 1.356 . S
N263 H275 0.984 . S
N263 H276 0.985 . S
N264 C266 1.356 . S
N264 H269 0.984 . S
N264 H270 0.985 . S
C265 C259 1.379 . S
C265 C262 1.363 . S
C265 N263 1.356 . S
C266 C260 1.363 . S
C266 C261 1.379 . S
C266 N264 1.356 . S
N267 C259 1.356 . S
N267 H273 0.984 . S
N267 H274 0.984 . S
N268 C261 1.356 . S
N268 H271 0.984 . S
N268 H272 0.985 . S
H269 N264 0.984 . S
H270 N264 0.985 . S
H271 N268 0.984 . S
H272 N268 0.985 . S
H273 N267 0.984 . S
H274 N267 0.984 . S
H275 N263 0.984 . S
H276 N263 0.985 . S
C277 C278 1.363 . S
C277 C283 1.379 . S
C277 N285 1.356 . S
C278 C277 1.363 . S
C278 C284 1.363 . S
C279 C280 1.363 . S
C279 C284 1.379 . S
C279 N286 1.356 . S
C280 C279 1.363 . S
C280 C283 1.363 . S
N281 C283 1.356 . S
N281 H293 0.984 . S
N281 H294 0.985 . S
N282 C284 1.356 . S
N282 H287 0.984 . S
N282 H288 0.985 . S
C283 C277 1.379 . S
C283 C280 1.363 . S
C283 N281 1.356 . S
C284 C278 1.363 . S
C284 C279 1.379 . S
C284 N282 1.356 . S
N285 C277 1.356 . S
N285 H291 0.984 . S
N285 H292 0.984 . S
N286 C279 1.356 . S
N286 H289 0.984 . S
N286 H290 0.985 . S
H287 N282 0.984 . S
H288 N282 0.985 . S
H289 N286 0.984 . S
H290 N286 0.985 . S
H291 N285 0.984 . S
H292 N285 0.984 . S
H293 N281 0.984 . S
H294 N281 0.985 . S
C295 C296 1.363 . S
C295 C301 1.379 . S
C295 N303 1.356 . S
C296 C295 1.363 . S
C296 C302 1.363 . S
C297 C298 1.363 . S
C297 C302 1.379 . S
C297 N304 1.356 . S
C298 C297 1.363 . S
C298 C301 1.363 . S
N299 C301 1.356 . S
N299 H311 0.984 . S
N299 H312 0.985 . S
N300 C302 1.356 . S
N300 H305 0.984 . S
N300 H306 0.985 . S
C301 C295 1.379 . S
C301 C298 1.363 . S
C301 N299 1.356 . S
C302 C296 1.363 . S
C302 C297 1.379 . S
C302 N300 1.356 . S
N303 C295 1.356 . S
N303 H309 0.984 . S
N303 H310 0.984 . S
N304 C297 1.356 . S
N304 H307 0.984 . S
N304 H308 0.985 . S
H305 N300 0.984 . S
H306 N300 0.985 . S
H307 N304 0.984 . S
H308 N304 0.985 . S
H309 N303 0.984 . S
H310 N303 0.984 . S
H311 N299 0.984 . S
H312 N299 0.985 . S
C313 C314 1.363 . S
C313 C319 1.379 . S
C313 N321 1.356 . S
C314 C313 1.363 . S
C314 C320 1.363 . S
C315 C316 1.363 . S
C315 C320 1.379 . S
C315 N322 1.356 . S
C316 C315 1.363 . S
C316 C319 1.363 . S
N317 C319 1.356 . S
N317 H329 0.984 . S
N317 H330 0.985 . S
N318 C320 1.356 . S
N318 H323 0.984 . S
N318 H324 0.985 . S
C319 C313 1.379 . S
C319 C316 1.363 . S
C319 N317 1.356 . S
C320 C314 1.363 . S
C320 C315 1.379 . S
C320 N318 1.356 . S
N321 C313 1.356 . S
N321 H327 0.984 . S
N321 H328 0.984 . S
N322 C315 1.356 . S
N322 H325 0.984 . S
N322 H326 0.985 . S
H323 N318 0.984 . S
H324 N318 0.985 . S
H325 N322 0.984 . S
H326 N322 0.985 . S
H327 N321 0.984 . S
H328 N321 0.984 . S
H329 N317 0.984 . S
H330 N317 0.985 . S
C331 C332 1.363 . S
C331 C337 1.379 . S
C331 N339 1.356 . S
C332 C331 1.363 . S
C332 C338 1.363 . S
C333 C334 1.363 . S
C333 C338 1.379 . S
C333 N340 1.356 . S
C334 C333 1.363 . S
C334 C337 1.363 . S
N335 C337 1.356 . S
N335 H347 0.984 . S
N335 H348 0.985 . S
N336 C338 1.356 . S
N336 H341 0.984 . S
N336 H342 0.985 . S
C337 C331 1.379 . S
C337 C334 1.363 . S
C337 N335 1.356 . S
C338 C332 1.363 . S
C338 C333 1.379 . S
C338 N336 1.356 . S
N339 C331 1.356 . S
N339 H345 0.984 . S
N339 H346 0.984 . S
N340 C333 1.356 . S
N340 H343 0.984 . S
N340 H344 0.985 . S
H341 N336 0.984 . S
H342 N336 0.985 . S
H343 N340 0.984 . S
H344 N340 0.985 . S
H345 N339 0.984 . S
H346 N339 0.984 . S
H347 N335 0.984 . S
H348 N335 0.985 . S
C349 C350 1.363 . S
C349 C355 1.379 . S
C349 N357 1.356 . S
C350 C349 1.363 . S
C350 C356 1.363 . S
C351 C352 1.363 . S
C351 C356 1.379 . S
C351 N358 1.356 . S
C352 C351 1.363 . S
C352 C355 1.363 . S
N353 C355 1.356 . S
N353 H365 0.984 . S
N353 H366 0.985 . S
N354 C356 1.356 . S
N354 H359 0.984 . S
N354 H360 0.985 . S
C355 C349 1.379 . S
C355 C352 1.363 . S
C355 N353 1.356 . S
C356 C350 1.363 . S
C356 C351 1.379 . S
C356 N354 1.356 . S
N357 C349 1.356 . S
N357 H363 0.984 . S
N357 H364 0.984 . S
N358 C351 1.356 . S
N358 H361 0.984 . S
N358 H362 0.985 . S
H359 N354 0.984 . S
H360 N354 0.985 . S
H361 N358 0.984 . S
H362 N358 0.985 . S
H363 N357 0.984 . S
H364 N357 0.984 . S
H365 N353 0.984 . S
H366 N353 0.985 . S
C367 C368 1.363 . S
C367 C373 1.379 . S
C367 N375 1.356 . S
C368 C367 1.363 . S
C368 C374 1.363 . S
C369 C370 1.363 . S
C369 C374 1.379 . S
C369 N376 1.356 . S
C370 C369 1.363 . S
C370 C373 1.363 . S
N371 C373 1.356 . S
N371 H383 0.984 . S
N371 H384 0.985 . S
N372 C374 1.356 . S
N372 H377 0.984 . S
N372 H378 0.985 . S
C373 C367 1.379 . S
C373 C370 1.363 . S
C373 N371 1.356 . S
C374 C368 1.363 . S
C374 C369 1.379 . S
C374 N372 1.356 . S
N375 C367 1.356 . S
N375 H381 0.984 . S
N375 H382 0.984 . S
N376 C369 1.356 . S
N376 H379 0.984 . S
N376 H380 0.985 . S
H377 N372 0.984 . S
H378 N372 0.985 . S
H379 N376 0.984 . S
H380 N376 0.985 . S
H381 N375 0.984 . S
H382 N375 0.984 . S
H383 N371 0.984 . S
H384 N371 0.985 . S
C385 C386 1.363 . S
C385 C391 1.379 . S
C385 N393 1.356 . S
C386 C385 1.363 . S
C386 C392 1.363 . S
C387 C388 1.363 . S
C387 C392 1.379 . S
C387 N394 1.356 . S
C388 C387 1.363 . S
C388 C391 1.363 . S
N389 C391 1.356 . S
N389 H401 0.984 . S
N389 H402 0.985 . S
N390 C392 1.356 . S
N390 H395 0.984 . S
N390 H396 0.985 . S
C391 C385 1.379 . S
C391 C388 1.363 . S
C391 N389 1.356 . S
C392 C386 1.363 . S
C392 C387 1.379 . S
C392 N390 1.356 . S
N393 C385 1.356 . S
N393 H399 0.984 . S
N393 H400 0.984 . S
N394 C387 1.356 . S
N394 H397 0.984 . S
N394 H398 0.985 . S
H395 N390 0.984 . S
H396 N390 0.985 . S
H397 N394 0.984 . S
H398 N394 0.985 . S
H399 N393 0.984 . S
H400 N393 0.984 . S
H401 N389 0.984 . S
H402 N389 0.985 . S
C403 C404 1.363 . S
C403 C409 1.379 . S
C403 N411 1.356 . S
C404 C403 1.363 . S
C404 C410 1.363 . S
C405 C406 1.363 . S
C405 C410 1.379 . S
C405 N412 1.356 . S
C406 C405 1.363 . S
C406 C409 1.363 . S
N407 C409 1.356 . S
N407 H419 0.984 . S
N407 H420 0.985 . S
N408 C410 1.356 . S
N408 H413 0.984 . S
N408 H414 0.985 . S
C409 C403 1.379 . S
C409 C406 1.363 . S
C409 N407 1.356 . S
C410 C404 1.363 . S
C410 C405 1.379 . S
C410 N408 1.356 . S
N411 C403 1.356 . S
N411 H417 0.984 . S
N411 H418 0.984 . S
N412 C405 1.356 . S
N412 H415 0.984 . S
N412 H416 0.985 . S
H413 N408 0.984 . S
H414 N408 0.985 . S
H415 N412 0.984 . S
H416 N412 0.985 . S
H417 N411 0.984 . S
H418 N411 0.984 . S
H419 N407 0.984 . S
H420 N407 0.985 . S
C421 C422 1.363 . S
C421 C427 1.379 . S
C421 N429 1.356 . S
C422 C421 1.363 . S
C422 C428 1.363 . S
C423 C424 1.363 . S
C423 C428 1.379 . S
C423 N430 1.356 . S
C424 C423 1.363 . S
C424 C427 1.363 . S
N425 C427 1.356 . S
N425 H437 0.984 . S
N425 H438 0.985 . S
N426 C428 1.356 . S
N426 H431 0.984 . S
N426 H432 0.985 . S
C427 C421 1.379 . S
C427 C424 1.363 . S
C427 N425 1.356 . S
C428 C422 1.363 . S
C428 C423 1.379 . S
C428 N426 1.356 . S
N429 C421 1.356 . S
N429 H435 0.984 . S
N429 H436 0.984 . S
N430 C423 1.356 . S
N430 H433 0.984 . S
N430 H434 0.985 . S
H431 N426 0.984 . S
H432 N426 0.985 . S
H433 N430 0.984 . S
H434 N430 0.985 . S
H435 N429 0.984 . S
H436 N429 0.984 . S
H437 N425 0.984 . S
H438 N425 0.985 . S
C439 C440 1.363 . S
C439 C445 1.379 . S
C439 N447 1.356 . S
C440 C439 1.363 . S
C440 C446 1.363 . S
C441 C442 1.363 . S
C441 C446 1.379 . S
C441 N448 1.356 . S
C442 C441 1.363 . S
C442 C445 1.363 . S
N443 C445 1.356 . S
N443 H455 0.984 . S
N443 H456 0.985 . S
N444 C446 1.356 . S
N444 H449 0.984 . S
N444 H450 0.985 . S
C445 C439 1.379 . S
C445 C442 1.363 . S
C445 N443 1.356 . S
C446 C440 1.363 . S
C446 C441 1.379 . S
C446 N444 1.356 . S
N447 C439 1.356 . S
N447 H453 0.984 . S
N447 H454 0.984 . S
N448 C441 1.356 . S
N448 H451 0.984 . S
N448 H452 0.985 . S
H449 N444 0.984 . S
H450 N444 0.985 . S
H451 N448 0.984 . S
H452 N448 0.985 . S
H453 N447 0.984 . S
H454 N447 0.984 . S
H455 N443 0.984 . S
H456 N443 0.985 . S
C457 C458 1.363 . S
C457 C463 1.379 . S
C457 N465 1.356 . S
C458 C457 1.363 . S
C458 C464 1.363 . S
C459 C460 1.363 . S
C459 C464 1.379 . S
C459 N466 1.356 . S
C460 C459 1.363 . S
C460 C463 1.363 . S
N461 C463 1.356 . S
N461 H473 0.984 . S
N461 H474 0.985 . S
N462 C464 1.356 . S
N462 H467 0.984 . S
N462 H468 0.985 . S
C463 C457 1.379 . S
C463 C460 1.363 . S
C463 N461 1.356 . S
C464 C458 1.363 . S
C464 C459 1.379 . S
C464 N462 1.356 . S
N465 C457 1.356 . S
N465 H471 0.984 . S
N465 H472 0.984 . S
N466 C459 1.356 . S
N466 H469 0.984 . S
N466 H470 0.985 . S
H467 N462 0.984 . S
H468 N462 0.985 . S
H469 N466 0.984 . S
H470 N466 0.985 . S
H471 N465 0.984 . S
H472 N465 0.984 . S
H473 N461 0.984 . S
H474 N461 0.985 . S
C475 C476 1.363 . S
C475 C481 1.379 . S
C475 N483 1.356 . S
C476 C475 1.363 . S
C476 C482 1.363 . S
C477 C478 1.363 . S
C477 C482 1.379 . S
C477 N484 1.356 . S
C478 C477 1.363 . S
C478 C481 1.363 . S
N479 C481 1.356 . S
N479 H491 0.984 . S
N479 H492 0.985 . S
N480 C482 1.356 . S
N480 H485 0.984 . S
N480 H486 0.985 . S
C481 C475 1.379 . S
C481 C478 1.363 . S
C481 N479 1.356 . S
C482 C476 1.363 . S
C482 C477 1.379 . S
C482 N480 1.356 . S
N483 C475 1.356 . S
N483 H489 0.984 . S
N483 H490 0.984 . S
N484 C477 1.356 . S
N484 H487 0.984 . S
N484 H488 0.985 . S
H485 N480 0.984 . S
H486 N480 0.985 . S
H487 N484 0.984 . S
H488 N484 0.985 . S
H489 N483 0.984 . S
H490 N483 0.984 . S
H491 N479 0.984 . S
H492 N479 0.985 . S
C493 C494 1.363 . S
C493 C499 1.379 . S
C493 N501 1.356 . S
C494 C493 1.363 . S
C494 C500 1.363 . S
C495 C496 1.363 . S
C495 C500 1.379 . S
C495 N502 1.356 . S
C496 C495 1.363 . S
C496 C499 1.363 . S
N497 C499 1.356 . S
N497 H509 0.984 . S
N497 H510 0.985 . S
N498 C500 1.356 . S
N498 H503 0.984 . S
N498 H504 0.985 . S
C499 C493 1.379 . S
C499 C496 1.363 . S
C499 N497 1.356 . S
C500 C494 1.363 . S
C500 C495 1.379 . S
C500 N498 1.356 . S
N501 C493 1.356 . S
N501 H507 0.984 . S
N501 H508 0.984 . S
N502 C495 1.356 . S
N502 H505 0.984 . S
N502 H506 0.985 . S
H503 N498 0.984 . S
H504 N498 0.985 . S
H505 N502 0.984 . S
H506 N502 0.985 . S
H507 N501 0.984 . S
H508 N501 0.984 . S
H509 N497 0.984 . S
H510 N497 0.985 . S
C511 C512 1.363 . S
C511 C517 1.379 . S
C511 N519 1.356 . S
C512 C511 1.363 . S
C512 C518 1.363 . S
C513 C514 1.363 . S
C513 C518 1.379 . S
C513 N520 1.356 . S
C514 C513 1.363 . S
C514 C517 1.363 . S
N515 C517 1.356 . S
N515 H527 0.984 . S
N515 H528 0.985 . S
N516 C518 1.356 . S
N516 H521 0.984 . S
N516 H522 0.985 . S
C517 C511 1.379 . S
C517 C514 1.363 . S
C517 N515 1.356 . S
C518 C512 1.363 . S
C518 C513 1.379 . S
C518 N516 1.356 . S
N519 C511 1.356 . S
N519 H525 0.984 . S
N519 H526 0.984 . S
N520 C513 1.356 . S
N520 H523 0.984 . S
N520 H524 0.985 . S
H521 N516 0.984 . S
H522 N516 0.985 . S
H523 N520 0.984 . S
H524 N520 0.985 . S
H525 N519 0.984 . S
H526 N519 0.984 . S
H527 N515 0.984 . S
H528 N515 0.985 . S
C529 C530 1.363 . S
C529 C535 1.379 . S
C529 N537 1.356 . S
C530 C529 1.363 . S
C530 C536 1.363 . S
C531 C532 1.363 . S
C531 C536 1.379 . S
C531 N538 1.356 . S
C532 C531 1.363 . S
C532 C535 1.363 . S
N533 C535 1.356 . S
N533 H545 0.984 . S
N533 H546 0.985 . S
N534 C536 1.356 . S
N534 H539 0.984 . S
N534 H540 0.985 . S
C535 C529 1.379 . S
C535 C532 1.363 . S
C535 N533 1.356 . S
C536 C530 1.363 . S
C536 C531 1.379 . S
C536 N534 1.356 . S
N537 C529 1.356 . S
N537 H543 0.984 . S
N537 H544 0.984 . S
N538 C531 1.356 . S
N538 H541 0.984 . S
N538 H542 0.985 . S
H539 N534 0.984 . S
H540 N534 0.985 . S
H541 N538 0.984 . S
H542 N538 0.985 . S
H543 N537 0.984 . S
H544 N537 0.984 . S
H545 N533 0.984 . S
H546 N533 0.985 . S
C547 C548 1.363 . S
C547 C553 1.379 . S
C547 N555 1.356 . S
C548 C547 1.363 . S
C548 C554 1.363 . S
C549 C550 1.363 . S
C549 C554 1.379 . S
C549 N556 1.356 . S
C550 C549 1.363 . S
C550 C553 1.363 . S
N551 C553 1.356 . S
N551 H563 0.984 . S
N551 H564 0.985 . S
N552 C554 1.356 . S
N552 H557 0.984 . S
N552 H558 0.985 . S
C553 C547 1.379 . S
C553 C550 1.363 . S
C553 N551 1.356 . S
C554 C548 1.363 . S
C554 C549 1.379 . S
C554 N552 1.356 . S
N555 C547 1.356 . S
N555 H561 0.984 . S
N555 H562 0.984 . S
N556 C549 1.356 . S
N556 H559 0.984 . S
N556 H560 0.985 . S
H557 N552 0.984 . S
H558 N552 0.985 . S
H559 N556 0.984 . S
H560 N556 0.985 . S
H561 N555 0.984 . S
H562 N555 0.984 . S
H563 N551 0.984 . S
H564 N551 0.985 . S
C565 C566 1.363 . S
C565 C571 1.379 . S
C565 N573 1.356 . S
C566 C565 1.363 . S
C566 C572 1.363 . S
C567 C568 1.363 . S
C567 C572 1.379 . S
C567 N574 1.356 . S
C568 C567 1.363 . S
C568 C571 1.363 . S
N569 C571 1.356 . S
N569 H581 0.984 . S
N569 H582 0.985 . S
N570 C572 1.356 . S
N570 H575 0.984 . S
N570 H576 0.985 . S
C571 C565 1.379 . S
C571 C568 1.363 . S
C571 N569 1.356 . S
C572 C566 1.363 . S
C572 C567 1.379 . S
C572 N570 1.356 . S
N573 C565 1.356 . S
N573 H579 0.984 . S
N573 H580 0.984 . S
N574 C567 1.356 . S
N574 H577 0.984 . S
N574 H578 0.985 . S
H575 N570 0.984 . S
H576 N570 0.985 . S
H577 N574 0.984 . S
H578 N574 0.985 . S
H579 N573 0.984 . S
H580 N573 0.984 . S
H581 N569 0.984 . S
H582 N569 0.985 . S
C583 C584 1.363 . S
C583 C589 1.379 . S
C583 N591 1.356 . S
C584 C583 1.363 . S
C584 C590 1.363 . S
C585 C586 1.363 . S
C585 C590 1.379 . S
C585 N592 1.356 . S
C586 C585 1.363 . S
C586 C589 1.363 . S
N587 C589 1.356 . S
N587 H599 0.984 . S
N587 H600 0.985 . S
N588 C590 1.356 . S
N588 H593 0.984 . S
N588 H594 0.985 . S
C589 C583 1.379 . S
C589 C586 1.363 . S
C589 N587 1.356 . S
C590 C584 1.363 . S
C590 C585 1.379 . S
C590 N588 1.356 . S
N591 C583 1.356 . S
N591 H597 0.984 . S
N591 H598 0.984 . S
N592 C585 1.356 . S
N592 H595 0.984 . S
N592 H596 0.985 . S
H593 N588 0.984 . S
H594 N588 0.985 . S
H595 N592 0.984 . S
H596 N592 0.985 . S
H597 N591 0.984 . S
H598 N591 0.984 . S
H599 N587 0.984 . S
H600 N587 0.985 . S
C601 C602 1.363 . S
C601 C607 1.379 . S
C601 N609 1.356 . S
C602 C601 1.363 . S
C602 C608 1.363 . S
C603 C604 1.363 . S
C603 C608 1.379 . S
C603 N610 1.356 . S
C604 C603 1.363 . S
C604 C607 1.363 . S
N605 C607 1.356 . S
N605 H617 0.984 . S
N605 H618 0.985 . S
N606 C608 1.356 . S
N606 H611 0.984 . S
N606 H612 0.985 . S
C607 C601 1.379 . S
C607 C604 1.363 . S
C607 N605 1.356 . S
C608 C602 1.363 . S
C608 C603 1.379 . S
C608 N606 1.356 . S
N609 C601 1.356 . S
N609 H615 0.984 . S
N609 H616 0.984 . S
N610 C603 1.356 . S
N610 H613 0.984 . S
N610 H614 0.985 . S
H611 N606 0.984 . S
H612 N606 0.985 . S
H613 N610 0.984 . S
H614 N610 0.985 . S
H615 N609 0.984 . S
H616 N609 0.984 . S
H617 N605 0.984 . S
H618 N605 0.985 . S
C190 C112 1.442 . S
C188 C10 1.527 . S
C208 C148 1.404 . S
C206 C15 1.485 . S
C226 C113 1.593 . S
C224 C27 1.616 . S
C244 C143 1.550 . S
C242 C38 1.603 . S
C262 C110 1.465 . S
C260 C49 1.527 . S
C278 C59 1.804 . S
C280 C146 1.823 . S
C296 C71 0.926 . S
C298 C115 0.876 . S
C316 C145 1.516 . S
C314 C87 1.540 . S
C334 C149 1.694 . S
C332 C5 1.726 . S
C352 C114 1.252 . S
C350 C16 1.288 . S
C370 C142 1.594 . S
C368 C32 1.561 . S
C388 C111 1.222 . S
C386 C37 1.377 . S
C406 C144 1.681 . S
C404 C48 1.797 . S
C422 C65 1.314 . S
C424 C109 1.306 . S
C440 C70 1.253 . S
C442 C147 1.252 . S
C460 C116 1.496 . S
C458 C82 1.593 . S
C478 C178 1.707 . S
C476 C4 1.815 . S
C494 C54 1.953 . S
C496 C181 1.815 . S
C514 C180 1.851 . S
C512 C60 1.896 . S
C530 C76 1.361 . S
C532 C179 1.352 . S
C550 C182 1.772 . S
C548 C81 1.902 . S
C566 C26 1.805 . S
C568 C176 1.750 . S
C586 C175 1.897 . S
C584 C43 1.923 . S
C602 C21 1.337 . S
C604 C177 1.253 . S
