# Generated by pormake.
# Topology pyr, (3,6)-cn, num edge types: 1
# Building blocks:
#     Node 0, Type 0, BuildingBlock: PAMTOO_clean_linker_0, # of connection points: 3
#     Node 1, Type 0, BuildingBlock: PAMTOO_clean_linker_0, # of connection points: 3
#     Node 2, Type 0, BuildingBlock: PAMTOO_clean_linker_0, # of connection points: 3
#     Node 3, Type 0, BuildingBlock: PAMTOO_clean_linker_0, # of connection points: 3
#     Node 4, Type 0, BuildingBlock: PAMTOO_clean_linker_0, # of connection points: 3
#     Node 5, Type 0, BuildingBlock: PAMTOO_clean_linker_0, # of connection points: 3
#     Node 6, Type 0, BuildingBlock: PAMTOO_clean_linker_0, # of connection points: 3
#     Node 7, Type 0, BuildingBlock: PAMTOO_clean_linker_0, # of connection points: 3
#     Node 8, Type 1, BuildingBlock: PAMTOO_clean_sbu_0, # of connection points: 6
#     Node 9, Type 1, BuildingBlock: PAMTOO_clean_sbu_0, # of connection points: 6
#     Node 10, Type 1, BuildingBlock: PAMTOO_clean_sbu_0, # of connection points: 6
#     Node 11, Type 1, BuildingBlock: PAMTOO_clean_sbu_0, # of connection points: 6
#     Edge 12, Type (0, 1), BuildingBlock: UVAHIK_clean_linker_0, # of connection points: 2
#     Edge 13, Type (0, 1), BuildingBlock: UVAHIK_clean_linker_0, # of connection points: 2
#     Edge 14, Type (0, 1), BuildingBlock: UVAHIK_clean_linker_0, # of connection points: 2
#     Edge 15, Type (0, 1), BuildingBlock: UVAHIK_clean_linker_0, # of connection points: 2
#     Edge 16, Type (0, 1), BuildingBlock: UVAHIK_clean_linker_0, # of connection points: 2
#     Edge 17, Type (0, 1), BuildingBlock: UVAHIK_clean_linker_0, # of connection points: 2
#     Edge 18, Type (0, 1), BuildingBlock: UVAHIK_clean_linker_0, # of connection points: 2
#     Edge 19, Type (0, 1), BuildingBlock: UVAHIK_clean_linker_0, # of connection points: 2
#     Edge 20, Type (0, 1), BuildingBlock: UVAHIK_clean_linker_0, # of connection points: 2
#     Edge 21, Type (0, 1), BuildingBlock: UVAHIK_clean_linker_0, # of connection points: 2
#     Edge 22, Type (0, 1), BuildingBlock: UVAHIK_clean_linker_0, # of connection points: 2
#     Edge 23, Type (0, 1), BuildingBlock: UVAHIK_clean_linker_0, # of connection points: 2
#     Edge 24, Type (0, 1), BuildingBlock: UVAHIK_clean_linker_0, # of connection points: 2
#     Edge 25, Type (0, 1), BuildingBlock: UVAHIK_clean_linker_0, # of connection points: 2
#     Edge 26, Type (0, 1), BuildingBlock: UVAHIK_clean_linker_0, # of connection points: 2
#     Edge 27, Type (0, 1), BuildingBlock: UVAHIK_clean_linker_0, # of connection points: 2
#     Edge 28, Type (0, 1), BuildingBlock: UVAHIK_clean_linker_0, # of connection points: 2
#     Edge 29, Type (0, 1), BuildingBlock: UVAHIK_clean_linker_0, # of connection points: 2
#     Edge 30, Type (0, 1), BuildingBlock: UVAHIK_clean_linker_0, # of connection points: 2
#     Edge 31, Type (0, 1), BuildingBlock: UVAHIK_clean_linker_0, # of connection points: 2
#     Edge 32, Type (0, 1), BuildingBlock: UVAHIK_clean_linker_0, # of connection points: 2
#     Edge 33, Type (0, 1), BuildingBlock: UVAHIK_clean_linker_0, # of connection points: 2
#     Edge 34, Type (0, 1), BuildingBlock: UVAHIK_clean_linker_0, # of connection points: 2
#     Edge 35, Type (0, 1), BuildingBlock: UVAHIK_clean_linker_0, # of connection points: 2
# Relax obj value: 0.125
# Max RMSD: 0.252
# Mean RMSD: 0.142
data_MOF--net-pyr--node1-PAMTOO_clean_sbu_0--node2-PAMTOO_clean_linker_0--edge1-UVAHIK_clean_linker_0
_symmetry_space_group_name_H-M    P1
_symmetry_Int_Tables_number       1
_symmetry_cell_setting            triclinic
loop_
_symmetry_equiv_pos_as_xyz
'x, y, z'
_cell_length_a     46.477359
_cell_length_b     51.027386
_cell_length_c     50.685586
_cell_angle_alpha  90.345347
_cell_angle_beta   90.499667
_cell_angle_gamma 106.47228
loop_
_atom_site_label
_atom_site_type_symbol
_atom_site_fract_x
_atom_site_fract_y
_atom_site_fract_z
_atom_type_partial_charge
H0 H 0.30385 0.28361 0.25416 0.0
H1 H 0.36954 0.239 0.24723 0.0
H2 H 0.34583 0.27848 0.17967 0.0
H3 H 0.34726 0.22375 0.16817 0.0
C4 C 0.36225 0.22073 0.18441 0.0
O5 O 0.37562 0.24552 0.19657 0.0
H6 H 0.3481 0.20623 0.19869 0.0
C7 C 0.32042 0.27742 0.24271 0.0
C8 C 0.32349 0.284 0.21577 0.0
C9 C 0.33692 0.26126 0.25451 0.0
C10 C 0.35676 0.25174 0.23887 0.0
C11 C 0.35941 0.2576 0.21194 0.0
C12 C 0.34337 0.27412 0.20056 0.0
H13 H 0.21968 0.83033 0.72346 0.0
H14 H 0.19721 0.78095 0.65304 0.0
H15 H 0.2694 0.77372 0.703 0.0
H16 H 0.26351 0.78529 0.63538 0.0
C17 C 0.25426 0.76268 0.63721 0.0
O18 O 0.23812 0.75567 0.66013 0.0
H19 H 0.23886 0.75574 0.62006 0.0
C20 C 0.22371 0.81503 0.71021 0.0
C21 C 0.2469 0.80323 0.71604 0.0
C22 C 0.20592 0.80767 0.68734 0.0
C23 C 0.21031 0.78683 0.67101 0.0
C24 C 0.23306 0.77459 0.67681 0.0
C25 C 0.25136 0.78281 0.6992 0.0
H26 H 0.71493 0.33404 0.8935 0.0
H27 H 0.64932 0.32093 0.83068 0.0
H28 H 0.72403 0.39346 0.83192 0.0
H29 H 0.6604 0.39748 0.82197 0.0
C30 C 0.65455 0.38153 0.80615 0.0
O31 O 0.67532 0.36676 0.80619 0.0
H32 H 0.63199 0.36761 0.81047 0.0
C33 C 0.70668 0.34077 0.87545 0.0
C34 C 0.72294 0.36563 0.86423 0.0
C35 C 0.68006 0.3244 0.86376 0.0
C36 C 0.66976 0.33318 0.84012 0.0
C37 C 0.68544 0.35826 0.82886 0.0
C38 C 0.7119 0.37439 0.84097 0.0
H39 H 0.88762 0.71428 0.39916 0.0
H40 H 0.88434 0.64961 0.34331 0.0
H41 H 0.95576 0.72461 0.34002 0.0
H42 H 0.93056 0.70024 0.28648 0.0
C43 C 0.92393 0.67828 0.29198 0.0
O44 O 0.93269 0.67595 0.31787 0.0
H45 H 0.89906 0.67063 0.29021 0.0
C46 C 0.89731 0.70619 0.38273 0.0
C47 C 0.92384 0.72255 0.37145 0.0
C48 C 0.88288 0.67978 0.37314 0.0
C49 C 0.89482 0.67 0.35092 0.0
C50 C 0.92084 0.68623 0.33869 0.0
C51 C 0.93529 0.71249 0.34902 0.0
H52 H 0.71161 0.81986 0.85319 0.0
H53 H 0.70971 0.76932 0.9211 0.0
H54 H 0.76668 0.76461 0.85639 0.0
H55 H 0.72708 0.71224 0.87978 0.0
C56 C 0.73575 0.71785 0.90023 0.0
O57 O 0.74844 0.74565 0.90271 0.0
H58 H 0.71655 0.71123 0.91395 0.0
C59 C 0.71897 0.80412 0.86315 0.0
C60 C 0.74046 0.79329 0.85132 0.0
C61 C 0.70806 0.79592 0.88841 0.0
C62 C 0.71764 0.77568 0.90146 0.0
C63 C 0.73814 0.76405 0.8895 0.0
C64 C 0.7497 0.77294 0.86466 0.0
H65 H 0.8526 0.21467 0.35623 0.0
H66 H 0.83233 0.29192 0.36047 0.0
H67 H 0.90155 0.27761 0.40987 0.0
H68 H 0.87979 0.33037 0.4337 0.0
C69 C 0.86146 0.31592 0.42227 0.0
O70 O 0.87216 0.31243 0.39752 0.0
H71 H 0.85551 0.29647 0.43357 0.0
C72 C 0.8566 0.23494 0.36475 0.0
C73 C 0.87899 0.24383 0.38424 0.0
C74 C 0.83975 0.25214 0.3558 0.0
C75 C 0.84541 0.27851 0.36672 0.0
C76 C 0.86763 0.28752 0.3862 0.0
C77 C 0.88475 0.27045 0.39449 0.0
H78 H 0.38303 0.70828 0.16413 0.0
H79 H 0.37861 0.64719 0.22347 0.0
H80 H 0.44704 0.72391 0.2283 0.0
H81 H 0.46777 0.67721 0.24581 0.0
C82 C 0.44587 0.66286 0.2514 0.0
O83 O 0.42409 0.67653 0.25123 0.0
H84 H 0.4402 0.64602 0.23648 0.0
C85 C 0.39201 0.70137 0.18172 0.0
C86 C 0.41713 0.71907 0.19444 0.0
C87 C 0.37778 0.67533 0.19178 0.0
C88 C 0.3889 0.66721 0.21536 0.0
C89 C 0.41376 0.6847 0.22851 0.0
C90 C 0.42772 0.71064 0.21813 0.0
H91 H 0.12392 0.32034 0.76008 0.0
H92 H 0.19409 0.39679 0.7625 0.0
H93 H 0.19577 0.33765 0.70327 0.0
H94 H 0.25232 0.36592 0.73308 0.0
C95 C 0.25083 0.38696 0.72914 0.0
O96 O 0.22212 0.38617 0.72109 0.0
H97 H 0.25628 0.39879 0.74791 0.0
C98 C 0.14458 0.33355 0.75236 0.0
C99 C 0.15764 0.32547 0.72957 0.0
C100 C 0.1575 0.35943 0.76447 0.0
C101 C 0.18379 0.37689 0.75369 0.0
C102 C 0.19728 0.36889 0.73171 0.0
C103 C 0.18447 0.34335 0.72002 0.0
Dy104 Dy 0.07023 0.03544 0.52836 0.0
Dy105 Dy 0.00703 0.01737 0.56141 0.0
C106 C 0.05901 0.07292 0.57671 0.0
O107 O 0.07205 0.99957 0.55245 0.0
O108 O 0.0381 1.00013 0.58495 0.0
O109 O 0.11849 0.04487 0.52652 0.0
O110 O 0.09188 0.0415 0.4905 0.0
O111 O 0.00867 0.97994 0.53881 0.0
O112 O 0.03733 1.00231 0.50502 0.0
O113 O 0.99903 0.03887 0.52491 0.0
O114 O 0.04655 0.06613 0.51766 0.0
O115 O 0.95899 0.99891 0.56069 0.0
O116 O 0.98149 0.01777 0.59658 0.0
C117 C 0.06017 0.99166 0.5755 0.0
O118 O 0.07878 0.06511 0.56251 0.0
O119 O 0.03024 0.05971 0.57598 0.0
C120 C 0.14172 0.06976 0.4891 0.0
C121 C 0.18694 0.11145 0.46527 0.0
C122 C 0.17598 0.11569 0.49027 0.0
C123 C 0.15349 0.09495 0.50214 0.0
C124 C 0.15235 0.06567 0.46412 0.0
C125 C 0.17462 0.08628 0.45228 0.0
C126 C 0.11874 0.04706 0.50086 0.0
C127 C 0.01885 0.98005 0.51471 0.0
C128 C 0.01746 0.06055 0.51432 0.0
C129 C 0.9375 0.98148 0.60126 0.0
C130 C 0.90186 0.94201 0.63492 0.0
C131 C 0.93134 0.94177 0.62914 0.0
C132 C 0.9491 0.96146 0.61242 0.0
C133 C 0.90782 0.98111 0.60616 0.0
C134 C 0.89012 0.96154 0.62281 0.0
C135 C 0.95624 1.00385 0.58566 0.0
H136 H 0.18505 0.13484 0.50079 0.0
H137 H 0.14546 0.09854 0.52145 0.0
H138 H 0.14339 0.04642 0.45371 0.0
H139 H 0.18195 0.08253 0.43274 0.0
H140 H 0.94102 0.92706 0.63829 0.0
H141 H 0.97205 0.9615 0.60876 0.0
H142 H 0.89852 0.99637 0.59756 0.0
H143 H 0.86733 0.96194 0.62654 0.0
Dy144 Dy 0.52279 0.0165 1.0142 0.0
Dy145 Dy 0.58271 0.03283 0.05282 0.0
C146 C 0.53009 0.97785 0.06199 0.0
O147 O 0.52057 0.05289 0.03762 0.0
O148 O 0.54765 0.04695 0.07389 0.0
O149 O 0.47443 1.00511 1.00917 0.0
O150 O 0.5036 0.01281 0.97515 0.0
O151 O 0.58408 0.07041 0.02967 0.0
O152 O 0.55819 0.04865 0.99355 0.0
O153 O 0.59428 1.01068 0.01806 0.0
O154 O 0.54701 0.98601 1.00438 0.0
O155 O 0.62992 0.053 0.05889 0.0
O156 O 0.60344 0.02977 0.09042 0.0
C157 C 0.52838 0.05785 0.06248 0.0
O158 O 0.5115 0.98826 0.04879 0.0
O159 O 0.55918 0.98927 0.06163 0.0
C160 C 0.45594 0.98104 0.96956 0.0
C161 C 0.4183 0.94077 0.93669 0.0
C162 C 0.44795 0.94042 0.94198 0.0
C163 C 0.46666 0.96042 0.95832 0.0
C164 C 0.42596 0.98051 0.96552 0.0
C165 C 0.40726 0.96052 0.94931 0.0
C166 C 0.47607 1.00457 0.98351 0.0
C167 C 0.57628 0.07049 1.00472 0.0
C168 C 0.5762 0.99022 1.0048 0.0
C169 C 0.64343 0.06744 0.10284 0.0
C170 C 0.66778 0.10607 0.14281 0.0
C171 C 0.64734 0.11107 0.12422 0.0
C172 C 0.63509 0.09177 0.10443 0.0
C173 C 0.6643 0.06273 0.12092 0.0
C174 C 0.67637 0.08185 0.14074 0.0
C175 C 0.62937 0.04594 0.08363 0.0
H176 H 0.45714 0.92554 0.93248 0.0
H177 H 0.48976 0.96041 0.96133 0.0
H178 H 0.41727 0.99617 0.97416 0.0
H179 H 0.38435 0.961 0.94604 0.0
H180 H 0.64021 0.12948 0.12547 0.0
H181 H 0.61875 0.09556 0.0907 0.0
H182 H 0.67089 0.044 0.11997 0.0
H183 H 0.69239 0.07763 0.15455 0.0
Dy184 Dy 0.54695 0.49973 0.51463 0.0
Dy185 Dy 0.55717 0.55649 0.54924 0.0
C186 C 0.58096 0.50706 0.5705 0.0
O187 O 0.51059 0.49055 0.5446 0.0
O188 O 0.50836 0.53411 0.55308 0.0
O189 O 0.54061 0.45609 0.51244 0.0
O190 O 0.54161 0.47935 0.47674 0.0
O191 O 0.54277 0.56499 0.50877 0.0
O192 O 0.51648 0.52167 0.49611 0.0
O193 O 0.60271 0.55838 0.53352 0.0
O194 O 0.58699 0.53003 0.49777 0.0
O195 O 0.57068 0.60061 0.55193 0.0
O196 O 0.55406 0.57646 0.58636 0.0
C197 C 0.4969 0.50747 0.55472 0.0
O198 O 0.58034 0.49763 0.54623 0.0
O199 O 0.56915 0.52684 0.57638 0.0
C200 C 0.5641 0.44334 0.47562 0.0
C201 C 0.60736 0.41871 0.45728 0.0
C202 C 0.61343 0.4473 0.45764 0.0
C203 C 0.59208 0.45953 0.46689 0.0
C204 C 0.55777 0.41481 0.47489 0.0
C205 C 0.57926 0.40257 0.46587 0.0
C206 C 0.54212 0.45602 0.48678 0.0
C207 C 0.52339 0.54827 0.49298 0.0
C208 C 0.60771 0.54915 0.5102 0.0
C209 C 0.53972 0.61643 0.58076 0.0
C210 C 0.49608 0.64347 0.59202 0.0
C211 C 0.49204 0.62497 0.57069 0.0
C212 C 0.51362 0.61152 0.56516 0.0
C213 C 0.54408 0.63504 0.60186 0.0
C214 C 0.52242 0.64847 0.60749 0.0
C215 C 0.56125 0.60074 0.57607 0.0
H216 H 0.63505 0.46025 0.4515 0.0
H217 H 0.59763 0.48163 0.46762 0.0
H218 H 0.53637 0.40202 0.48168 0.0
H219 H 0.57396 0.38048 0.46568 0.0
H220 H 0.47181 0.62034 0.55867 0.0
H221 H 0.50969 0.59689 0.549 0.0
H222 H 0.56402 0.63889 0.6142 0.0
H223 H 0.52626 0.66276 0.62391 0.0
Dy224 Dy 0.05211 0.53992 0.01862 0.0
Dy225 Dy 0.04134 0.48416 0.05344 0.0
C226 C 0.02289 0.53532 0.07643 0.0
O227 O 0.09817 0.54037 0.03216 0.0
O228 O 0.08383 0.51335 0.06837 0.0
O229 O 0.06563 0.58399 1.01583 0.0
O230 O 0.04965 0.55911 0.98118 0.0
O231 O 0.07082 0.47857 0.02009 0.0
O232 O 0.05911 0.50804 0.99075 0.0
O233 O 1.0029 0.476 0.02499 0.0
O234 O 1.00258 0.52002 0.0171 0.0
O235 O 0.03042 0.44023 0.05634 0.0
O236 O 0.04017 0.46534 0.09165 0.0
C237 C 0.10425 0.53152 0.05525 0.0
O238 O 0.04181 0.55069 0.05981 0.0
O239 O 0.01428 0.50856 0.07359 0.0
C240 C 0.03411 0.59838 0.98629 0.0
C241 C 0.9885 0.62253 0.97308 0.0
C242 C 0.98428 0.60315 0.99335 0.0
C243 C 0.00687 0.5912 0.99988 0.0
C244 C 0.03878 0.61806 0.96643 0.0
C245 C 0.01615 0.63011 0.95989 0.0
C246 C 0.05632 0.58356 0.99146 0.0
C247 C 0.06976 0.4873 0.99581 0.0
C248 C 0.98967 0.49359 1.01565 0.0
C249 C 0.05774 0.4266 0.09053 0.0
C250 C 0.10147 0.4028 0.10975 0.0
C251 C 0.1036 0.41356 0.08415 0.0
C252 C 0.08203 0.42553 0.07467 0.0
C253 C 0.05525 0.41545 0.11588 0.0
C254 C 0.07697 0.40369 0.12546 0.0
C255 C 0.03621 0.44101 0.0816 0.0
H256 H 0.96313 0.59649 1.00359 0.0
H257 H 1.00279 0.57579 1.01509 0.0
H258 H 0.05964 0.62368 0.95567 0.0
H259 H 0.02018 0.64518 0.94437 0.0
H260 H 0.12242 0.41345 0.07173 0.0
H261 H 0.08466 0.4344 0.05516 0.0
H262 H 0.03678 0.41628 0.12845 0.0
H263 H 0.07466 0.39535 0.14519 0.0
C264 C 0.33029 0.22551 0.28961 0.0
C265 C 0.33116 0.2523 0.28237 0.0
C266 C 0.32177 0.21607 0.31496 0.0
C267 C 0.27239 0.22427 0.36654 0.0
H268 H 0.30965 0.17786 0.4065 0.0
C269 C 0.21017 0.16047 0.45257 0.0
C270 C 0.21072 0.13307 0.45221 0.0
C271 C 0.23042 0.18 0.43741 0.0
C272 C 0.29889 0.19072 0.39556 0.0
H273 H 0.32534 0.29061 0.29682 0.0
H274 H 0.3093 0.27361 0.34085 0.0
H275 H 0.33556 0.203 0.36869 0.0
H276 H 0.23449 0.10518 0.43734 0.0
H277 H 0.26869 0.13867 0.41022 0.0
H278 H 0.23484 0.2107 0.392 0.0
C279 C 0.31535 0.26008 0.32677 0.0
C280 C 0.31384 0.2052 0.37403 0.0
C281 C 0.32434 0.2697 0.30151 0.0
C282 C 0.23303 0.126 0.43762 0.0
C283 C 0.25304 0.14539 0.42235 0.0
C284 C 0.25724 0.2095 0.38783 0.0
C285 C 0.31354 0.23304 0.33356 0.0
C286 C 0.30034 0.2215 0.35889 0.0
C287 C 0.25154 0.17251 0.4215 0.0
C288 C 0.26989 0.19186 0.40211 0.0
H289 H 0.33479 0.2113 0.27538 0.0
H290 H 0.32012 0.19499 0.31956 0.0
H291 H 0.26136 0.23651 0.35503 0.0
H292 H 0.19327 0.1666 0.46361 0.0
H293 H 0.22894 0.2008 0.43758 0.0
C294 C 0.27618 0.84155 0.7449 0.0
C295 C 0.2669 0.8134 0.73915 0.0
C296 C 0.29242 0.85134 0.76784 0.0
C297 C 0.34235 0.83938 0.81833 0.0
H298 H 0.30896 0.88751 0.86 0.0
C299 C 0.39909 0.89462 0.91448 0.0
C300 C 0.39971 0.92229 0.91641 0.0
C301 C 0.3819 0.87776 0.89475 0.0
C302 C 0.31867 0.87421 0.84857 0.0
H303 H 0.269 0.77359 0.75226 0.0
H304 H 0.29828 0.79105 0.79249 0.0
H305 H 0.28186 0.86456 0.82118 0.0
H306 H 0.38372 0.95416 0.89855 0.0
H307 H 0.35403 0.92504 0.86442 0.0
H308 H 0.37987 0.85003 0.84521 0.0
C309 C 0.29244 0.8053 0.77918 0.0
C310 C 0.30309 0.86102 0.82642 0.0
C311 C 0.2758 0.79538 0.75619 0.0
C312 C 0.38309 0.93277 0.8981 0.0
C313 C 0.36604 0.91604 0.87849 0.0
C314 C 0.35818 0.85284 0.8405 0.0
C315 C 0.30014 0.8333 0.78546 0.0
C316 C 0.31514 0.84409 0.8107 0.0
C317 C 0.36508 0.88832 0.87662 0.0
C318 C 0.34685 0.87102 0.85538 0.0
H319 H 0.27051 0.85608 0.7318 0.0
H320 H 0.2987 0.8731 0.77198 0.0
H321 H 0.35205 0.82639 0.80646 0.0
H322 H 0.41165 0.88597 0.92835 0.0
H323 H 0.38152 0.85646 0.89385 0.0
C324 C 0.64879 0.37909 0.75619 0.0
C325 C 0.65316 0.39467 0.77961 0.0
C326 C 0.64471 0.39083 0.73197 0.0
C327 C 0.65311 0.45835 0.69953 0.0
H328 H 0.59347 0.41565 0.65036 0.0
C329 C 0.59972 0.50748 0.61714 0.0
C330 C 0.59413 0.49453 0.59227 0.0
C331 C 0.61005 0.49508 0.63834 0.0
C332 C 0.61051 0.42776 0.66368 0.0
H333 H 0.65606 0.43462 0.79605 0.0
H334 H 0.64862 0.45499 0.75415 0.0
H335 H 0.60562 0.3944 0.69034 0.0
H336 H 0.59552 0.45836 0.57023 0.0
H337 H 0.61345 0.43658 0.60742 0.0
H338 H 0.65732 0.4919 0.6732 0.0
C339 C 0.64917 0.43392 0.75416 0.0
C340 C 0.61755 0.41555 0.68665 0.0
C341 C 0.65334 0.42221 0.77828 0.0
C342 C 0.59967 0.46897 0.58906 0.0
C343 C 0.60973 0.45639 0.61043 0.0
C344 C 0.64592 0.47058 0.67668 0.0
C345 C 0.64459 0.41839 0.73062 0.0
C346 C 0.63865 0.43077 0.70513 0.0
C347 C 0.61487 0.46923 0.6354 0.0
C348 C 0.62423 0.45556 0.65862 0.0
H349 H 0.6481 0.3577 0.75671 0.0
H350 H 0.64154 0.37824 0.71431 0.0
H351 H 0.66996 0.47064 0.71289 0.0
H352 H 0.59575 0.52716 0.6204 0.0
H353 H 0.61343 0.50545 0.65731 0.0
C354 C 0.95941 0.67539 0.25476 0.0
C355 C 0.93756 0.66198 0.27294 0.0
C356 C 0.9694 0.66066 0.23507 0.0
C357 C 0.94689 0.59384 0.19852 0.0
H358 H 0.02851 0.61795 0.17318 0.0
C359 C 0.99252 0.53335 0.1182 0.0
C360 C 0.01213 0.54872 0.09928 0.0
C361 C 0.98348 0.54618 0.14003 0.0
C362 C 0.00551 0.61103 0.17976 0.0
H363 H 0.90987 0.62243 0.2852 0.0
H364 H 0.92766 0.59651 0.25123 0.0
H365 H 0.01372 0.64156 0.21029 0.0
H366 H 0.0372 0.58996 0.08867 0.0
H367 H 0.02143 0.61211 0.12627 0.0
H368 H 0.93877 0.56327 0.1679 0.0
C369 C 0.93672 0.61853 0.25178 0.0
C370 C 0.99697 0.62465 0.20118 0.0
C371 C 0.92672 0.63333 0.27148 0.0
C372 C 0.02219 0.5773 0.10276 0.0
C373 C 0.01328 0.59007 0.12456 0.0
C374 C 0.95547 0.58014 0.17712 0.0
C375 C 0.95793 0.63199 0.23296 0.0
C376 C 0.96743 0.61648 0.21082 0.0
C377 C 0.99392 0.57476 0.14368 0.0
C378 C 0.98486 0.58868 0.16721 0.0
H379 H 0.96813 0.69745 0.25524 0.0
H380 H 0.98543 0.67196 0.22093 0.0
H381 H 0.92383 0.58705 0.20495 0.0
H382 H 0.98432 0.51132 0.11631 0.0
H383 H 0.96876 0.53359 0.15434 0.0
C384 C 0.39076 0.20773 0.14682 0.0
C385 C 0.38572 0.20845 0.17402 0.0
C386 C 0.41098 0.19448 0.13706 0.0
C387 C 0.44566 0.14036 0.15446 0.0
H388 H 0.49285 0.16594 0.09214 0.0
C389 C 0.52019 0.0804 0.10489 0.0
C390 C 0.51599 0.07709 0.07743 0.0
C391 C 0.50809 0.09855 0.11873 0.0
C392 C 0.47978 0.15855 0.10956 0.0
H393 H 0.39871 0.19733 0.2125 0.0
H394 H 0.43451 0.17433 0.1955 0.0
H395 H 0.46551 0.19474 0.11291 0.0
H396 H 0.49621 0.09058 0.04295 0.0
H397 H 0.47529 0.12205 0.06703 0.0
H398 H 0.45965 0.10395 0.15078 0.0
C399 C 0.42241 0.18349 0.18166 0.0
C400 C 0.46407 0.175 0.12142 0.0
C401 C 0.40212 0.19673 0.19141 0.0
C402 C 0.49981 0.09252 0.0641 0.0
C403 C 0.48802 0.11077 0.07786 0.0
C404 C 0.46152 0.12395 0.14265 0.0
C405 C 0.42673 0.18185 0.15433 0.0
C406 C 0.44624 0.16583 0.14363 0.0
C407 C 0.49193 0.11394 0.10531 0.0
C408 C 0.47815 0.13261 0.11971 0.0
H409 H 0.37845 0.21677 0.13305 0.0
H410 H 0.41345 0.19334 0.11589 0.0
H411 H 0.43189 0.13253 0.17137 0.0
H412 H 0.5326 0.06884 0.11572 0.0
H413 H 0.51153 0.10068 0.13989 0.0
C414 C 0.15678 0.8105 0.6677 0.0
C415 C 0.18468 0.82338 0.67966 0.0
C416 C 0.13779 0.82588 0.65943 0.0
C417 C 0.12398 0.89369 0.66705 0.0
H418 H 0.09394 0.88143 0.59511 0.0
C419 C 0.05979 0.96215 0.61524 0.0
C420 C 0.07052 0.97082 0.58996 0.0
C421 C 0.06918 0.94175 0.62816 0.0
C422 C 0.10205 0.885 0.61529 0.0
H423 H 0.21449 0.86264 0.692 0.0
H424 H 0.1814 0.88916 0.67796 0.0
H425 H 0.11837 0.84979 0.61498 0.0
H426 H 0.09951 0.96474 0.55848 0.0
H427 H 0.11572 0.9295 0.58095 0.0
H428 H 0.10876 0.9296 0.66691 0.0
C429 C 0.17389 0.86716 0.67541 0.0
C430 C 0.11576 0.86673 0.62676 0.0
C431 C 0.19289 0.85189 0.68348 0.0
C432 C 0.09076 0.95865 0.57794 0.0
C433 C 0.09988 0.93821 0.59071 0.0
C434 C 0.11011 0.9119 0.65562 0.0
C435 C 0.14626 0.85441 0.66309 0.0
C436 C 0.12764 0.87132 0.6525 0.0
C437 C 0.08916 0.92946 0.61589 0.0
C438 C 0.09981 0.90817 0.62935 0.0
H439 H 0.14965 0.78856 0.66468 0.0
H440 H 0.11654 0.81549 0.65008 0.0
H441 H 0.13262 0.89756 0.68705 0.0
H442 H 0.04412 0.97104 0.62501 0.0
H443 H 0.06056 0.93536 0.64759 0.0
C444 C 0.75783 0.41048 0.8805 0.0
C445 C 0.75133 0.38197 0.87722 0.0
C446 C 0.78305 0.42506 0.89528 0.0
C447 C 0.83183 0.41437 0.94901 0.0
H448 H 0.88898 0.48141 0.92634 0.0
C449 C 0.94711 0.45477 0.99915 0.0
C450 C 0.9602 0.48309 1.00197 0.0
C451 C 0.92046 0.44451 0.98482 0.0
C452 C 0.87296 0.46296 0.93319 0.0
H453 H 0.7675 0.34686 0.88527 0.0
H454 H 0.8109 0.37209 0.9112 0.0
H455 H 0.84505 0.46001 0.89863 0.0
H456 H 0.95507 0.52287 0.99215 0.0
H457 H 0.90807 0.50485 0.96744 0.0
H458 H 0.85928 0.41712 0.98351 0.0
C459 C 0.79625 0.38312 0.90285 0.0
C460 C 0.84786 0.45068 0.91725 0.0
C461 C 0.77134 0.36866 0.88799 0.0
C462 C 0.94561 0.50093 0.99041 0.0
C463 C 0.91877 0.4906 0.97606 0.0
C464 C 0.85666 0.4267 0.96498 0.0
C465 C 0.80208 0.41136 0.90715 0.0
C466 C 0.82742 0.42592 0.92475 0.0
C467 C 0.90594 0.46223 0.97297 0.0
C468 C 0.87796 0.45082 0.95704 0.0
H469 H 0.74284 0.42134 0.87254 0.0
H470 H 0.78703 0.44684 0.89826 0.0
H471 H 0.8161 0.39561 0.95559 0.0
H472 H 0.95773 0.44037 1.00759 0.0
H473 H 0.91165 0.42257 0.9825 0.0
C474 C 0.85413 0.66384 0.41472 0.0
C475 C 0.85568 0.66279 0.387 0.0
C476 C 0.82791 0.65026 0.42791 0.0
C477 C 0.75723 0.59483 0.42235 0.0
H478 H 0.72974 0.63646 0.47589 0.0
C479 C 0.64044 0.5544 0.47028 0.0
C480 C 0.63689 0.56101 0.49683 0.0
C481 C 0.66736 0.566 0.45714 0.0
C482 C 0.73724 0.62428 0.46136 0.0
H483 H 0.83088 0.64538 0.35161 0.0
H484 H 0.78509 0.62108 0.37481 0.0
H485 H 0.77595 0.65734 0.45243 0.0
H486 H 0.6594 0.58474 0.53048 0.0
H487 H 0.70669 0.60439 0.50786 0.0
H488 H 0.7189 0.56157 0.43155 0.0
C489 C 0.80432 0.63273 0.38623 0.0
C490 C 0.76375 0.63636 0.44778 0.0
C491 C 0.8306 0.64659 0.37294 0.0
C492 C 0.66123 0.57929 0.51001 0.0
C493 C 0.68834 0.59072 0.49691 0.0
C494 C 0.73085 0.58261 0.43615 0.0
C495 C 0.80249 0.63488 0.41385 0.0
C496 C 0.77409 0.62182 0.42809 0.0
C497 C 0.69177 0.58439 0.47019 0.0
C498 C 0.72036 0.59717 0.45584 0.0
H499 H 0.87322 0.67543 0.42635 0.0
H500 H 0.82752 0.65185 0.44922 0.0
H501 H 0.76474 0.58296 0.40751 0.0
H502 H 0.62219 0.54053 0.45936 0.0
H503 H 0.66873 0.5609 0.43652 0.0
C504 C 0.29084 0.2914 0.17838 0.0
C505 C 0.30414 0.29931 0.20331 0.0
C506 C 0.27079 0.30438 0.1676 0.0
C507 C 0.21771 0.34142 0.18753 0.0
H508 H 0.2191 0.36188 0.1139 0.0
C509 C 0.13717 0.39872 0.14573 0.0
C510 C 0.12523 0.39145 0.12029 0.0
C511 C 0.15998 0.38852 0.15554 0.0
C512 C 0.21816 0.35598 0.13443 0.0
H513 H 0.3077 0.32787 0.23589 0.0
H514 H 0.27229 0.35021 0.21719 0.0
H515 H 0.25782 0.34268 0.13131 0.0
H516 H 0.1275 0.36756 0.0853 0.0
H517 H 0.1669 0.34921 0.1026 0.0
H518 H 0.17777 0.354 0.19065 0.0
C519 C 0.27724 0.33379 0.20616 0.0
C520 C 0.24042 0.34509 0.1444 0.0
C521 C 0.29747 0.32096 0.21686 0.0
C522 C 0.1365 0.3737 0.10488 0.0
C523 C 0.15916 0.3633 0.11478 0.0
C524 C 0.19534 0.35208 0.17753 0.0
C525 C 0.26341 0.32539 0.18157 0.0
C526 C 0.2404 0.3377 0.17105 0.0
C527 C 0.17122 0.37062 0.14022 0.0
C528 C 0.19525 0.35948 0.15085 0.0
H529 H 0.29505 0.27452 0.16758 0.0
H530 H 0.26022 0.29729 0.14873 0.0
H531 H 0.21685 0.33547 0.20805 0.0
H532 H 0.12924 0.41273 0.15787 0.0
H533 H 0.16909 0.39499 0.17502 0.0
C534 C 0.65262 0.27395 0.86176 0.0
C535 C 0.66376 0.29816 0.87657 0.0
C536 C 0.64045 0.24888 0.8744 0.0
C537 C 0.61238 0.21861 0.93979 0.0
H538 H 0.63278 0.15509 0.91252 0.0
C539 C 0.5999 0.12123 1.00172 0.0
C540 C 0.58663 0.09599 0.98915 0.0
C541 C 0.60803 0.14544 0.98719 0.0
C542 C 0.62667 0.17258 0.92026 0.0
H543 H 0.66911 0.31513 0.91625 0.0
H544 H 0.64894 0.27177 0.93815 0.0
H545 H 0.64769 0.19796 0.88834 0.0
H546 H 0.57209 0.07646 0.95126 0.0
H547 H 0.58664 0.11866 0.92595 0.0
H548 H 0.59209 0.19334 0.97207 0.0
C549 C 0.64925 0.2719 0.91679 0.0
C550 C 0.63508 0.19718 0.90632 0.0
C551 C 0.66123 0.29684 0.9042 0.0
C552 C 0.58224 0.09552 0.96161 0.0
C553 C 0.59069 0.1197 0.94706 0.0
C554 C 0.60426 0.19412 0.95383 0.0
C555 C 0.63908 0.24745 0.90215 0.0
C556 C 0.6283 0.22066 0.916 0.0
C557 C 0.60339 0.14499 0.9597 0.0
C558 C 0.61151 0.17086 0.94436 0.0
H559 H 0.65428 0.2742 0.84045 0.0
H560 H 0.6324 0.23059 0.86239 0.0
H561 H 0.60614 0.23598 0.94765 0.0
H562 H 0.60356 0.12238 0.02288 0.0
H563 H 0.61808 0.16455 0.99749 0.0
C564 C 0.94078 0.7519 0.41189 0.0
C565 C 0.93926 0.74959 0.38418 0.0
C566 C 0.95199 0.77729 0.42443 0.0
C567 C 0.96722 0.85218 0.41308 0.0
H568 H 0.00593 0.85677 0.48172 0.0
C569 C 0.01642 0.95484 0.47129 0.0
C570 C 0.01018 0.95443 0.49846 0.0
C571 C 0.00906 0.93058 0.45625 0.0
C572 C 0.99496 0.85584 0.46265 0.0
H573 H 0.94981 0.7725 0.34799 0.0
H574 H 0.97034 0.81699 0.36991 0.0
H575 H 0.99307 0.81381 0.45718 0.0
H576 H 0.9912 0.92789 0.53097 0.0
H577 H 0.97872 0.88572 0.50489 0.0
H578 H 0.96966 0.89455 0.41864 0.0
C579 C 0.96205 0.79904 0.38197 0.0
C580 C 0.98747 0.8311 0.44851 0.0
C581 C 0.95063 0.77346 0.36934 0.0
C582 C 0.9963 0.92909 0.51013 0.0
C583 C 0.98932 0.90483 0.49518 0.0
C584 C 0.97505 0.87708 0.42715 0.0
C585 C 0.96253 0.80139 0.40977 0.0
C586 C 0.97296 0.82865 0.42368 0.0
C587 C 0.99567 0.90519 0.46805 0.0
C588 C 0.98859 0.87912 0.45233 0.0
H589 H 0.93272 0.73399 0.42406 0.0
H590 H 0.95147 0.77797 0.44576 0.0
H591 H 0.95579 0.85123 0.39425 0.0
H592 H 0.02708 0.97394 0.46159 0.0
H593 H 0.01444 0.93164 0.43547 0.0
C594 C 0.30888 0.76439 0.64183 0.0
C595 C 0.27916 0.74929 0.63624 0.0
C596 C 0.33221 0.7523 0.63931 0.0
C597 C 0.35019 0.69515 0.60481 0.0
H598 H 0.41993 0.7133 0.65122 0.0
C599 C 0.45768 0.66684 0.57819 0.0
C600 C 0.47244 0.65684 0.59842 0.0
C601 C 0.43439 0.67815 0.584 0.0
C602 C 0.40051 0.70784 0.63821 0.0
H603 H 0.25006 0.70947 0.62538 0.0
H604 H 0.29074 0.68804 0.62131 0.0
H605 H 0.37795 0.73167 0.66055 0.0
H606 H 0.47441 0.65105 0.64067 0.0
H607 H 0.43363 0.67074 0.65085 0.0
H608 H 0.37242 0.67097 0.58272 0.0
C609 C 0.29622 0.70943 0.6269 0.0
C610 C 0.37658 0.7186 0.6434 0.0
C611 C 0.27293 0.72157 0.62935 0.0
C612 C 0.46373 0.65888 0.62467 0.0
C613 C 0.44035 0.67015 0.6305 0.0
C614 C 0.37406 0.68439 0.59965 0.0
C615 C 0.32621 0.72478 0.63137 0.0
C616 C 0.35119 0.71249 0.62667 0.0
C617 C 0.42521 0.67968 0.61019 0.0
C618 C 0.39961 0.69076 0.61615 0.0
H619 H 0.31413 0.78574 0.64751 0.0
H620 H 0.35503 0.76477 0.64275 0.0
H621 H 0.33118 0.69027 0.59132 0.0
H622 H 0.4642 0.66598 0.55781 0.0
H623 H 0.42365 0.68582 0.56794 0.0
C624 C 0.76284 0.78817 0.80703 0.0
C625 C 0.75484 0.80485 0.82621 0.0
C626 C 0.77702 0.79952 0.7838 0.0
C627 C 0.78669 0.85875 0.74084 0.0
H628 H 0.86244 0.84709 0.72064 0.0
C629 C 0.86771 0.93318 0.67361 0.0
C630 C 0.88382 0.92314 0.65465 0.0
C631 C 0.8505 0.91582 0.69225 0.0
C632 C 0.84104 0.85016 0.7257 0.0
H633 H 0.75652 0.84674 0.83621 0.0
H634 H 0.78016 0.86615 0.79554 0.0
H635 H 0.83426 0.82129 0.7573 0.0
H636 H 0.89475 0.887 0.64048 0.0
H637 H 0.86432 0.85636 0.67317 0.0
H638 H 0.79332 0.88769 0.70962 0.0
C639 C 0.77516 0.84429 0.79834 0.0
C640 C 0.82496 0.83542 0.74668 0.0
C641 C 0.76143 0.83308 0.82161 0.0
C642 C 0.88264 0.8953 0.65495 0.0
C643 C 0.86525 0.87781 0.67364 0.0
C644 C 0.80255 0.87326 0.71981 0.0
C645 C 0.78307 0.82767 0.77921 0.0
C646 C 0.79808 0.84019 0.75487 0.0
C647 C 0.84883 0.88788 0.6924 0.0
C648 C 0.83036 0.86977 0.7125 0.0
H649 H 0.75795 0.76633 0.80986 0.0
H650 H 0.78289 0.7863 0.76928 0.0
H651 H 0.76574 0.86244 0.7465 0.0
H652 H 0.86874 0.95466 0.67431 0.0
H653 H 0.83884 0.92443 0.70686 0.0
C654 C 0.81417 0.25876 0.31351 0.0
C655 C 0.8163 0.24227 0.33514 0.0
C656 C 0.79375 0.2484 0.29294 0.0
C657 C 0.72646 0.19148 0.275 0.0
H658 H 0.75895 0.20157 0.20437 0.0
C659 C 0.6808 0.11574 0.1905 0.0
C660 C 0.67969 0.12553 0.16479 0.0
C661 C 0.69349 0.1336 0.21112 0.0
C662 C 0.74929 0.19898 0.22388 0.0
H663 H 0.79764 0.2026 0.35289 0.0
H664 H 0.76242 0.18444 0.31698 0.0
H665 H 0.78835 0.22679 0.24124 0.0
H666 H 0.69029 0.16182 0.14059 0.0
H667 H 0.71264 0.19324 0.17682 0.0
H668 H 0.68786 0.16292 0.25776 0.0
C669 C 0.77634 0.20538 0.31586 0.0
C670 C 0.76614 0.21344 0.24503 0.0
C671 C 0.79679 0.21566 0.3363 0.0
C672 C 0.69081 0.15373 0.16025 0.0
C673 C 0.70375 0.17165 0.18091 0.0
C674 C 0.70966 0.17701 0.25389 0.0
C675 C 0.77491 0.22145 0.29373 0.0
C676 C 0.75526 0.20927 0.27093 0.0
C677 C 0.70546 0.16171 0.20653 0.0
C678 C 0.72124 0.18002 0.22821 0.0
H679 H 0.82899 0.27932 0.31205 0.0
H680 H 0.79298 0.26135 0.27625 0.0
H681 H 0.71721 0.18822 0.29465 0.0
H682 H 0.67206 0.09415 0.19465 0.0
H683 H 0.69477 0.12522 0.23054 0.0
C684 C 0.4382 0.62331 0.28321 0.0
C685 C 0.44888 0.6515 0.27848 0.0
C686 C 0.44341 0.61254 0.30759 0.0
C687 C 0.49504 0.62906 0.36548 0.0
H688 H 0.43781 0.56676 0.39677 0.0
C689 C 0.51739 0.58842 0.46735 0.0
C690 C 0.51068 0.55992 0.47027 0.0
C691 C 0.50767 0.59969 0.44505 0.0
C692 C 0.45415 0.58401 0.38819 0.0
H693 H 0.47198 0.69068 0.29589 0.0
H694 H 0.48072 0.67208 0.33867 0.0
H695 H 0.42445 0.58654 0.35631 0.0
H696 H 0.48764 0.52094 0.45211 0.0
H697 H 0.4708 0.54062 0.41309 0.0
H698 H 0.5248 0.62648 0.39717 0.0
C699 C 0.46894 0.65811 0.32339 0.0
C700 C 0.44649 0.59539 0.36495 0.0
C701 C 0.46376 0.66884 0.29898 0.0
C702 C 0.49319 0.54297 0.45059 0.0
C703 C 0.48344 0.55428 0.42822 0.0
C704 C 0.50265 0.61773 0.38869 0.0
C705 C 0.45931 0.62973 0.3279 0.0
C706 C 0.46687 0.61805 0.3532 0.0
C707 C 0.49096 0.58281 0.42495 0.0
C708 C 0.48237 0.59502 0.40038 0.0
H709 H 0.42654 0.60947 0.26778 0.0
H710 H 0.43583 0.59061 0.31015 0.0
H711 H 0.5116 0.6461 0.35682 0.0
H712 H 0.53058 0.60218 0.48215 0.0
H713 H 0.51341 0.62172 0.44352 0.0
C714 C 0.13657 0.35323 0.81087 0.0
C715 C 0.14384 0.36914 0.78798 0.0
C716 C 0.12707 0.36399 0.83382 0.0
C717 C 0.09528 0.41931 0.85739 0.0
H718 H 0.13067 0.41017 0.92499 0.0
C719 C 0.08238 0.48451 0.9478 0.0
C720 C 0.07955 0.47299 0.97315 0.0
C721 C 0.08969 0.47068 0.92601 0.0
C722 C 0.12016 0.41267 0.9064 0.0
H723 H 0.14562 0.40846 0.7711 0.0
H724 H 0.12882 0.42695 0.81063 0.0
H725 H 0.14266 0.38737 0.88574 0.0
H726 H 0.08269 0.43764 0.99522 0.0
H727 H 0.09491 0.41323 0.95715 0.0
H728 H 0.07256 0.4443 0.87776 0.0
C729 C 0.13052 0.40623 0.81108 0.0
C730 C 0.1271 0.39954 0.8838 0.0
C731 C 0.14034 0.39565 0.78837 0.0
C732 C 0.08478 0.44728 0.97608 0.0
C733 C 0.09191 0.43328 0.95415 0.0
C734 C 0.08818 0.43223 0.87993 0.0
C735 C 0.12412 0.39076 0.83431 0.0
C736 C 0.11509 0.40299 0.85887 0.0
C737 C 0.09417 0.44462 0.92864 0.0
C738 C 0.10084 0.42953 0.90481 0.0
H739 H 0.13921 0.33282 0.81132 0.0
H740 H 0.1221 0.35136 0.85122 0.0
H741 H 0.08512 0.42209 0.83869 0.0
H742 H 0.07881 0.50434 0.94466 0.0
H743 H 0.09193 0.48061 0.90702 0.0
C744 C 0.69827 0.82267 0.92693 0.0
C745 C 0.68936 0.81079 0.90205 0.0
C746 C 0.68331 0.83997 0.93837 0.0
C747 C 0.63492 0.88365 0.91975 0.0
H748 H 0.62969 0.89107 0.99561 0.0
C749 C 0.57214 0.95274 0.97172 0.0
C750 C 0.58877 0.97022 0.99144 0.0
C751 C 0.58314 0.93256 0.96033 0.0
C752 C 0.63113 0.88923 0.97439 0.0
H753 H 0.65701 0.8064 0.87018 0.0
H754 H 0.62995 0.83575 0.89059 0.0
H755 H 0.64895 0.85509 0.97742 0.0
H756 H 0.63001 0.9804 1.01457 0.0
H757 H 0.64895 0.94477 0.99492 0.0
H758 H 0.61642 0.91756 0.91693 0.0
C759 C 0.6491 0.83249 0.90095 0.0
C760 C 0.64224 0.8687 0.96393 0.0
C761 C 0.66438 0.8155 0.88933 0.0
C762 C 0.61676 0.96734 0.99932 0.0
C763 C 0.6275 0.94685 0.98826 0.0
C764 C 0.62334 0.90389 0.93023 0.0
C765 C 0.65883 0.84549 0.92533 0.0
C766 C 0.64472 0.86588 0.93647 0.0
C767 C 0.6107 0.92919 0.96879 0.0
C768 C 0.62177 0.90709 0.95763 0.0
H769 H 0.71777 0.81968 0.93695 0.0
H770 H 0.69184 0.8499 0.95692 0.0
H771 H 0.63697 0.88251 0.89854 0.0
H772 H 0.55051 0.95451 0.96522 0.0
H773 H 0.56978 0.91913 0.94537 0.0
C774 C 0.87953 0.19775 0.40057 0.0
C775 C 0.89526 0.22488 0.39473 0.0
C776 C 0.89444 0.18007 0.41138 0.0
C777 C 0.96296 0.18006 0.4487 0.0
H778 H 0.93999 0.10338 0.42871 0.0
C779 C 0.02375 0.1042 0.48957 0.0
C780 C 0.00506 0.07908 0.49836 0.0
C781 C 0.0118 0.12204 0.47522 0.0
C782 C 0.94653 0.12471 0.43458 0.0
H783 H 0.9391 0.2546 0.39509 0.0
H784 H 0.96529 0.22361 0.41377 0.0
H785 H 0.91681 0.13455 0.40635 0.0
H786 H 0.95922 0.05288 0.49862 0.0
H787 H 0.93847 0.08401 0.4736 0.0
H788 H 0.99261 0.17013 0.47701 0.0
C789 C 0.9413 0.21614 0.41039 0.0
C790 C 0.93323 0.14258 0.42181 0.0
C791 C 0.92633 0.23388 0.39966 0.0
C792 C 0.97426 0.07205 0.49217 0.0
C793 C 0.96238 0.08981 0.47768 0.0
C794 C 0.97637 0.16221 0.46138 0.0
C795 C 0.92549 0.18906 0.41653 0.0
C796 C 0.94101 0.17041 0.42895 0.0
C797 C 0.98098 0.11507 0.46919 0.0
C798 C 0.96803 0.13429 0.45467 0.0
H799 H 0.85549 0.19034 0.39742 0.0
H800 H 0.88145 0.15953 0.41631 0.0
H801 H 0.96918 0.20128 0.45496 0.0
H802 H 0.04757 0.11025 0.494 0.0
H803 H 0.02672 0.14127 0.46874 0.0
C804 C 0.32653 0.64095 0.19161 0.0
C805 C 0.35116 0.65711 0.17764 0.0
C806 C 0.30082 0.62537 0.1782 0.0
C807 C 0.2719 0.59844 0.11119 0.0
H808 H 0.19479 0.59421 0.14222 0.0
C809 C 0.15766 0.56168 0.05442 0.0
C810 C 0.13402 0.54357 0.068 0.0
C811 C 0.185 0.5741 0.06732 0.0
C812 C 0.21617 0.59502 0.13339 0.0
H813 H 0.36839 0.66833 0.13836 0.0
H814 H 0.32337 0.64233 0.11518 0.0
H815 H 0.24065 0.6181 0.16579 0.0
H816 H 0.12097 0.524 0.10573 0.0
H817 H 0.16831 0.54581 0.12805 0.0
H818 H 0.24703 0.57596 0.07838 0.0
C819 C 0.32391 0.64129 0.13649 0.0
C820 C 0.24254 0.60861 0.14698 0.0
C821 C 0.34968 0.65662 0.14987 0.0
C822 C 0.13859 0.53785 0.09459 0.0
C823 C 0.16569 0.55047 0.1075 0.0
C824 C 0.24546 0.58513 0.09745 0.0
C825 C 0.29895 0.62566 0.15044 0.0
C826 C 0.27082 0.61051 0.13612 0.0
C827 C 0.18911 0.56892 0.09412 0.0
C828 C 0.21731 0.58322 0.10844 0.0
H829 H 0.32671 0.64088 0.21297 0.0
H830 H 0.28234 0.6132 0.18967 0.0
H831 H 0.29317 0.59904 0.10232 0.0
H832 H 0.15494 0.56652 0.03394 0.0
H833 H 0.20264 0.58833 0.05653 0.0
C834 C 0.28236 0.38396 0.68935 0.0
C835 C 0.27325 0.4001 0.70826 0.0
C836 C 0.30455 0.39593 0.67107 0.0
C837 C 0.34512 0.4619 0.64024 0.0
H838 H 0.40665 0.42542 0.62862 0.0
C839 C 0.45614 0.51287 0.58504 0.0
C840 C 0.46855 0.49602 0.56941 0.0
C841 C 0.43088 0.50156 0.60059 0.0
C842 C 0.38946 0.43574 0.63124 0.0
H843 H 0.27883 0.4415 0.72194 0.0
H844 H 0.31774 0.46256 0.69006 0.0
H845 H 0.36511 0.40503 0.65768 0.0
H846 H 0.46319 0.45408 0.55715 0.0
H847 H 0.41905 0.43456 0.58363 0.0
H848 H 0.3696 0.49267 0.61376 0.0
C849 C 0.30788 0.44062 0.68937 0.0
C850 C 0.36557 0.424 0.648 0.0
C851 C 0.28573 0.4286 0.70772 0.0
C852 C 0.45448 0.46771 0.56909 0.0
C853 C 0.4292 0.45645 0.58449 0.0
C854 C 0.36902 0.47363 0.62335 0.0
C855 C 0.31796 0.42439 0.67109 0.0
C856 C 0.34306 0.43689 0.65275 0.0
C857 C 0.41731 0.47312 0.60083 0.0
C858 C 0.39154 0.46069 0.6186 0.0
H859 H 0.27271 0.36198 0.68907 0.0
H860 H 0.31129 0.38285 0.65695 0.0
H861 H 0.32804 0.47228 0.64323 0.0
H862 H 0.46643 0.53476 0.58587 0.0
H863 H 0.42259 0.51507 0.61306 0.0
C864 C 0.77797 0.69886 0.88698 0.0
C865 C 0.75935 0.70399 0.90681 0.0
C866 C 0.80211 0.68881 0.89345 0.0
C867 C 0.83349 0.65574 0.94708 0.0
H868 H 0.90889 0.68751 0.91169 0.0
C869 C 0.94485 0.64021 0.98418 0.0
C870 C 0.96356 0.63373 0.96508 0.0
C871 C 0.92003 0.64877 0.97661 0.0
C872 C 0.88791 0.67826 0.92155 0.0
H873 H 0.75151 0.70343 0.94883 0.0
H874 H 0.79382 0.68602 0.96032 0.0
H875 H 0.8646 0.70132 0.89908 0.0
H876 H 0.97102 0.63147 0.92303 0.0
H877 H 0.92786 0.64677 0.90985 0.0
H878 H 0.85696 0.63294 0.96976 0.0
C879 C 0.78938 0.68899 0.9397 0.0
C880 C 0.86251 0.6861 0.91429 0.0
C881 C 0.76521 0.69897 0.9332 0.0
C882 C 0.95732 0.63669 0.93825 0.0
C883 C 0.93254 0.64536 0.93068 0.0
C884 C 0.85891 0.64799 0.9544 0.0
C885 C 0.8083 0.68406 0.91993 0.0
C886 C 0.83502 0.675 0.92704 0.0
C887 C 0.91344 0.65116 0.94979 0.0
C888 C 0.88642 0.65926 0.94179 0.0
H889 H 0.77414 0.70309 0.86653 0.0
H890 H 0.81606 0.68497 0.87773 0.0
H891 H 0.81256 0.64649 0.957 0.0
H892 H 0.94932 0.63859 1.00502 0.0
H893 H 0.90601 0.65359 0.99179 0.0
C894 C 0.43991 0.77022 0.198 0.0
C895 C 0.43182 0.7462 0.18257 0.0
C896 C 0.45109 0.79584 0.18612 0.0
C897 C 0.45178 0.82976 0.12136 0.0
H898 H 0.51543 0.88788 0.15307 0.0
C899 C 0.48734 0.93886 0.07788 0.0
C900 C 0.51827 0.9522 0.07713 0.0
C901 C 0.47651 0.91444 0.09181 0.0
C902 C 0.49773 0.87182 0.14385 0.0
H903 H 0.43087 0.7302 0.14274 0.0
H904 H 0.45052 0.77456 0.12217 0.0
H905 H 0.49837 0.84383 0.1751 0.0
H906 H 0.56202 0.95018 0.09072 0.0
H907 H 0.54323 0.90766 0.1146 0.0
H908 H 0.45157 0.8574 0.08983 0.0
C909 C 0.44746 0.77382 0.14333 0.0
C910 C 0.48772 0.84664 0.15666 0.0
C911 C 0.43628 0.74833 0.15516 0.0
C912 C 0.53804 0.94059 0.09086 0.0
C913 C 0.52723 0.91622 0.10476 0.0
C914 C 0.46174 0.8549 0.1086 0.0
C915 C 0.45451 0.79798 0.15855 0.0
C916 C 0.46477 0.82517 0.14546 0.0
C917 C 0.49633 0.90273 0.10537 0.0
C918 C 0.48499 0.87625 0.11956 0.0
H919 H 0.43658 0.7693 0.21914 0.0
H920 H 0.45614 0.81401 0.19845 0.0
H921 H 0.43373 0.81389 0.11232 0.0
H922 H 0.47142 0.94721 0.06763 0.0
H923 H 0.45254 0.90483 0.09209 0.0
C924 C 0.14644 0.29771 0.68729 0.0
C925 C 0.14362 0.29904 0.71491 0.0
C926 C 0.13605 0.27301 0.67339 0.0
C927 C 0.10975 0.19663 0.68284 0.0
H928 H 0.09017 0.19791 0.60841 0.0
C929 C 0.05313 0.10056 0.61659 0.0
C930 C 0.06906 0.09792 0.59368 0.0
C931 C 0.0619 0.12432 0.63229 0.0
C932 C 0.09571 0.19724 0.62916 0.0
H933 H 0.1258 0.27478 0.74914 0.0
H934 H 0.10592 0.23195 0.72473 0.0
H935 H 0.10299 0.24019 0.63395 0.0
H936 H 0.10666 0.11845 0.5693 0.0
H937 H 0.12122 0.16045 0.59619 0.0
H938 H 0.1007 0.15311 0.67782 0.0
C939 C 0.1175 0.24998 0.71387 0.0
C940 C 0.10336 0.22162 0.64394 0.0
C941 C 0.12853 0.2748 0.72795 0.0
C942 C 0.094 0.11972 0.58687 0.0
C943 C 0.10226 0.14381 0.60219 0.0
C944 C 0.10131 0.17212 0.66813 0.0
C945 C 0.12145 0.24855 0.68631 0.0
C946 C 0.1111 0.22194 0.671 0.0
C947 C 0.08632 0.14637 0.6251 0.0
C948 C 0.09463 0.17222 0.64103 0.0
H949 H 0.15702 0.31585 0.67614 0.0
H950 H 0.14023 0.27324 0.65243 0.0
H951 H 0.11586 0.19566 0.70338 0.0
H952 H 0.03387 0.08415 0.62247 0.0
H953 H 0.04913 0.12574 0.64975 0.0
C954 C 0.83654 0.35362 0.42714 0.0
C955 C 0.83443 0.32649 0.42022 0.0
C956 C 0.81097 0.36285 0.42711 0.0
C957 C 0.7282 0.33671 0.43065 0.0
H958 H 0.73284 0.41226 0.41602 0.0
C959 C 0.63716 0.38548 0.46461 0.0
C960 C 0.63083 0.40591 0.4491 0.0
C961 C 0.6606 0.37465 0.45798 0.0
C962 C 0.73093 0.39097 0.41979 0.0
H963 H 0.80441 0.28794 0.40695 0.0
H964 H 0.75982 0.30424 0.40578 0.0
H965 H 0.77634 0.39585 0.40849 0.0
H966 H 0.64328 0.43034 0.41398 0.0
H967 H 0.68378 0.41097 0.40196 0.0
H968 H 0.68257 0.33166 0.44132 0.0
C969 C 0.781 0.31827 0.41196 0.0
C970 C 0.75609 0.38165 0.41584 0.0
C971 C 0.80654 0.30898 0.41233 0.0
C972 C 0.64791 0.41481 0.42645 0.0
C973 C 0.67117 0.40378 0.41964 0.0
C974 C 0.70295 0.34596 0.43433 0.0
C975 C 0.78278 0.34521 0.41981 0.0
C976 C 0.75524 0.35453 0.42169 0.0
C977 C 0.67808 0.38381 0.43552 0.0
C978 C 0.70414 0.37334 0.42943 0.0
H979 H 0.85784 0.36751 0.43329 0.0
H980 H 0.81322 0.38358 0.43366 0.0
H981 H 0.72669 0.31577 0.43564 0.0
H982 H 0.62463 0.37851 0.48239 0.0
H983 H 0.66556 0.35971 0.47098 0.0
loop_
_geom_bond_atom_site_label_1
_geom_bond_atom_site_label_2
_geom_bond_distance
_geom_bond_site_symmetry_2
_ccdc_geom_bond_type
H0 C7 0.929 . S
H1 C10 0.930 . S
H2 C12 0.929 . S
H3 C4 0.969 . S
C4 H3 0.969 . S
C4 O5 1.550 . S
C4 H6 0.973 . S
O5 C4 1.550 . S
O5 C11 1.412 . S
H6 C4 0.973 . S
C7 H0 0.929 . S
C7 C8 1.400 . S
C7 C9 1.364 . S
C8 C7 1.400 . S
C8 C12 1.377 . S
C9 C7 1.364 . S
C9 C10 1.374 . S
C10 H1 0.930 . S
C10 C9 1.374 . S
C10 C11 1.383 . S
C11 O5 1.412 . S
C11 C10 1.383 . S
C11 C12 1.394 . S
C12 H2 0.929 . S
C12 C8 1.377 . S
C12 C11 1.394 . S
H13 C20 0.929 . S
H14 C23 0.930 . S
H15 C25 0.929 . S
H16 C17 0.969 . S
C17 H16 0.969 . S
C17 O18 1.550 . S
C17 H19 0.973 . S
O18 C17 1.550 . S
O18 C24 1.412 . S
H19 C17 0.973 . S
C20 H13 0.929 . S
C20 C21 1.400 . S
C20 C22 1.364 . S
C21 C20 1.400 . S
C21 C25 1.377 . S
C22 C20 1.364 . S
C22 C23 1.374 . S
C23 H14 0.930 . S
C23 C22 1.374 . S
C23 C24 1.383 . S
C24 O18 1.412 . S
C24 C23 1.383 . S
C24 C25 1.394 . S
C25 H15 0.929 . S
C25 C21 1.377 . S
C25 C24 1.394 . S
H26 C33 0.929 . S
H27 C36 0.930 . S
H28 C38 0.929 . S
H29 C30 0.969 . S
C30 H29 0.969 . S
C30 O31 1.550 . S
C30 H32 0.973 . S
O31 C30 1.550 . S
O31 C37 1.412 . S
H32 C30 0.973 . S
C33 H26 0.929 . S
C33 C34 1.400 . S
C33 C35 1.364 . S
C34 C33 1.400 . S
C34 C38 1.377 . S
C35 C33 1.364 . S
C35 C36 1.374 . S
C36 H27 0.930 . S
C36 C35 1.374 . S
C36 C37 1.383 . S
C37 O31 1.412 . S
C37 C36 1.383 . S
C37 C38 1.394 . S
C38 H28 0.929 . S
C38 C34 1.377 . S
C38 C37 1.394 . S
H39 C46 0.929 . S
H40 C49 0.930 . S
H41 C51 0.929 . S
H42 C43 0.969 . S
C43 H42 0.969 . S
C43 O44 1.550 . S
C43 H45 0.973 . S
O44 C43 1.550 . S
O44 C50 1.412 . S
H45 C43 0.973 . S
C46 H39 0.929 . S
C46 C47 1.400 . S
C46 C48 1.364 . S
C47 C46 1.400 . S
C47 C51 1.377 . S
C48 C46 1.364 . S
C48 C49 1.374 . S
C49 H40 0.930 . S
C49 C48 1.374 . S
C49 C50 1.383 . S
C50 O44 1.412 . S
C50 C49 1.383 . S
C50 C51 1.394 . S
C51 H41 0.929 . S
C51 C47 1.377 . S
C51 C50 1.394 . S
H52 C59 0.929 . S
H53 C62 0.930 . S
H54 C64 0.929 . S
H55 C56 0.969 . S
C56 H55 0.969 . S
C56 O57 1.550 . S
C56 H58 0.973 . S
O57 C56 1.550 . S
O57 C63 1.412 . S
H58 C56 0.973 . S
C59 H52 0.929 . S
C59 C60 1.400 . S
C59 C61 1.364 . S
C60 C59 1.400 . S
C60 C64 1.377 . S
C61 C59 1.364 . S
C61 C62 1.374 . S
C62 H53 0.930 . S
C62 C61 1.374 . S
C62 C63 1.383 . S
C63 O57 1.412 . S
C63 C62 1.383 . S
C63 C64 1.394 . S
C64 H54 0.929 . S
C64 C60 1.377 . S
C64 C63 1.394 . S
H65 C72 0.929 . S
H66 C75 0.930 . S
H67 C77 0.929 . S
H68 C69 0.969 . S
C69 H68 0.969 . S
C69 O70 1.550 . S
C69 H71 0.973 . S
O70 C69 1.550 . S
O70 C76 1.412 . S
H71 C69 0.973 . S
C72 H65 0.929 . S
C72 C73 1.400 . S
C72 C74 1.364 . S
C73 C72 1.400 . S
C73 C77 1.377 . S
C74 C72 1.364 . S
C74 C75 1.374 . S
C75 H66 0.930 . S
C75 C74 1.374 . S
C75 C76 1.383 . S
C76 O70 1.412 . S
C76 C75 1.383 . S
C76 C77 1.394 . S
C77 H67 0.929 . S
C77 C73 1.377 . S
C77 C76 1.394 . S
H78 C85 0.929 . S
H79 C88 0.930 . S
H80 C90 0.929 . S
H81 C82 0.969 . S
C82 H81 0.969 . S
C82 O83 1.550 . S
C82 H84 0.973 . S
O83 C82 1.550 . S
O83 C89 1.412 . S
H84 C82 0.973 . S
C85 H78 0.929 . S
C85 C86 1.400 . S
C85 C87 1.364 . S
C86 C85 1.400 . S
C86 C90 1.377 . S
C87 C85 1.364 . S
C87 C88 1.374 . S
C88 H79 0.930 . S
C88 C87 1.374 . S
C88 C89 1.383 . S
C89 O83 1.412 . S
C89 C88 1.383 . S
C89 C90 1.394 . S
C90 H80 0.929 . S
C90 C86 1.377 . S
C90 C89 1.394 . S
H91 C98 0.929 . S
H92 C101 0.930 . S
H93 C103 0.929 . S
H94 C95 0.969 . S
C95 H94 0.969 . S
C95 O96 1.550 . S
C95 H97 0.973 . S
O96 C95 1.550 . S
O96 C102 1.412 . S
H97 C95 0.973 . S
C98 H91 0.929 . S
C98 C99 1.400 . S
C98 C100 1.364 . S
C99 C98 1.400 . S
C99 C103 1.377 . S
C100 C98 1.364 . S
C100 C101 1.374 . S
C101 H92 0.930 . S
C101 C100 1.374 . S
C101 C102 1.383 . S
C102 O96 1.412 . S
C102 C101 1.383 . S
C102 C103 1.394 . S
C103 H93 0.929 . S
C103 C99 1.377 . S
C103 C102 1.394 . S
Dy104 O107 2.309 1_545 S
Dy104 O109 2.395 . S
Dy104 O110 2.379 . S
Dy104 O112 2.339 1_545 S
Dy104 O114 2.298 . S
Dy104 O118 2.275 . S
Dy104 C126 2.738 . S
Dy105 O108 2.297 1_645 S
Dy105 O111 2.275 1_545 S
Dy105 O113 2.307 . S
Dy105 O115 2.395 1_545 S
Dy105 O116 2.379 . S
Dy105 O119 2.339 1_655 S
Dy105 C135 2.738 1_545 S
C106 O118 1.254 . S
C106 O119 1.257 . S
O107 Dy104 2.309 1_565 S
O107 C117 1.266 . S
O108 Dy105 2.297 1_465 S
O108 C117 1.237 . S
O109 Dy104 2.395 . S
O109 C126 1.255 . S
O110 Dy104 2.379 . S
O110 C126 1.249 . S
O111 Dy105 2.275 1_565 S
O111 C127 1.254 1_655 S
O112 Dy104 2.339 1_565 S
O112 C127 1.257 . S
O113 Dy105 2.307 . S
O113 C128 1.266 . S
O114 Dy104 2.298 . S
O114 C128 1.236 1_455 S
O115 Dy105 2.395 1_565 S
O115 C135 1.255 . S
O116 Dy105 2.379 . S
O116 C135 1.249 1_545 S
C117 O107 1.266 . S
C117 O108 1.237 . S
O118 Dy104 2.275 . S
O118 C106 1.254 . S
O119 Dy105 2.339 1_455 S
O119 C106 1.257 . S
C120 C123 1.344 . S
C120 C124 1.328 . S
C120 C126 1.516 . S
C121 C122 1.304 . S
C121 C125 1.323 . S
C122 C121 1.304 . S
C122 C123 1.371 . S
C122 H136 0.930 . S
C123 C120 1.344 . S
C123 C122 1.371 . S
C123 H137 0.931 . S
C124 C120 1.328 . S
C124 C125 1.433 . S
C124 H138 0.931 . S
C125 C121 1.323 . S
C125 C124 1.433 . S
C125 H139 0.933 . S
C126 Dy104 2.738 . S
C126 O109 1.255 . S
C126 O110 1.249 . S
C126 C120 1.516 . S
C127 O111 1.254 1_455 S
C127 O112 1.257 . S
C128 O113 1.266 . S
C128 O114 1.236 1_655 S
C129 C132 1.344 . S
C129 C133 1.328 . S
C129 C135 1.516 . S
C130 C131 1.304 . S
C130 C134 1.323 . S
C131 C130 1.304 . S
C131 C132 1.371 . S
C131 H140 0.930 . S
C132 C129 1.344 . S
C132 C131 1.371 . S
C132 H141 0.931 . S
C133 C129 1.328 . S
C133 C134 1.433 . S
C133 H142 0.931 . S
C134 C130 1.323 . S
C134 C133 1.433 . S
C134 H143 0.933 . S
C135 Dy105 2.738 1_565 S
C135 O115 1.255 . S
C135 O116 1.249 1_565 S
C135 C129 1.516 . S
H136 C122 0.930 . S
H137 C123 0.931 . S
H138 C124 0.931 . S
H139 C125 0.933 . S
H140 C131 0.930 . S
H141 C132 0.931 . S
H142 C133 0.931 . S
H143 C134 0.933 . S
Dy144 O147 2.307 1_556 S
Dy144 O149 2.395 1_545 S
Dy144 O150 2.379 1_545 S
Dy144 O152 2.339 . S
Dy144 O154 2.298 1_545 S
Dy144 O158 2.275 1_546 S
Dy144 C166 2.738 1_545 S
Dy145 O148 2.298 . S
Dy145 O151 2.240 1_554 S
Dy145 O153 2.307 1_545 S
Dy145 O155 2.395 . S
Dy145 O156 2.379 . S
Dy145 O159 2.339 1_545 S
Dy145 C175 2.738 . S
C146 O158 1.254 . S
C146 O159 1.257 . S
O147 Dy144 2.307 1_554 S
O147 C157 1.266 . S
O148 Dy145 2.298 . S
O148 C157 1.236 . S
O149 Dy144 2.395 1_565 S
O149 C166 1.255 . S
O150 Dy144 2.379 1_565 S
O150 C166 1.249 . S
O151 Dy145 2.240 1_556 S
O151 C167 1.288 . S
O152 Dy144 2.339 . S
O152 C167 1.257 . S
O153 Dy145 2.307 1_565 S
O153 C168 1.266 1_554 S
O154 Dy144 2.298 1_565 S
O154 C168 1.236 . S
O155 Dy145 2.395 . S
O155 C175 1.255 . S
O156 Dy145 2.379 . S
O156 C175 1.249 . S
C157 O147 1.266 . S
C157 O148 1.236 . S
O158 Dy144 2.275 1_564 S
O158 C146 1.254 . S
O159 Dy145 2.339 1_565 S
O159 C146 1.257 . S
C160 C163 1.344 . S
C160 C164 1.328 . S
C160 C166 1.516 . S
C161 C162 1.304 . S
C161 C165 1.323 . S
C162 C161 1.304 . S
C162 C163 1.371 . S
C162 H176 0.930 . S
C163 C160 1.344 . S
C163 C162 1.371 . S
C163 H177 0.931 . S
C164 C160 1.328 . S
C164 C165 1.433 . S
C164 H178 0.931 . S
C165 C161 1.323 . S
C165 C164 1.433 . S
C165 H179 0.933 . S
C166 Dy144 2.738 1_565 S
C166 O149 1.255 . S
C166 O150 1.249 . S
C166 C160 1.516 . S
C167 O151 1.288 . S
C167 O152 1.257 . S
C168 O153 1.266 1_556 S
C168 O154 1.236 . S
C169 C172 1.344 . S
C169 C173 1.328 . S
C169 C175 1.516 . S
C170 C171 1.304 . S
C170 C174 1.323 . S
C171 C170 1.304 . S
C171 C172 1.371 . S
C171 H180 0.930 . S
C172 C169 1.344 . S
C172 C171 1.371 . S
C172 H181 0.931 . S
C173 C169 1.328 . S
C173 C174 1.433 . S
C173 H182 0.931 . S
C174 C170 1.323 . S
C174 C173 1.433 . S
C174 H183 0.933 . S
C175 Dy145 2.738 . S
C175 O155 1.255 . S
C175 O156 1.249 . S
C175 C169 1.516 . S
H176 C162 0.930 . S
H177 C163 0.931 . S
H178 C164 0.931 . S
H179 C165 0.933 . S
H180 C171 0.930 . S
H181 C172 0.931 . S
H182 C173 0.931 . S
H183 C174 0.933 . S
Dy184 O187 2.307 . S
Dy184 O189 2.395 . S
Dy184 O190 2.379 . S
Dy184 O192 2.339 . S
Dy184 O194 2.298 . S
Dy184 O198 2.275 . S
Dy184 C206 2.738 . S
Dy185 O188 2.298 . S
Dy185 O191 2.275 . S
Dy185 O193 2.307 . S
Dy185 O195 2.395 . S
Dy185 O196 2.379 . S
Dy185 O199 2.339 . S
Dy185 C215 2.738 . S
C186 O198 1.254 . S
C186 O199 1.257 . S
O187 Dy184 2.307 . S
O187 C197 1.266 . S
O188 Dy185 2.298 . S
O188 C197 1.236 . S
O189 Dy184 2.395 . S
O189 C206 1.255 . S
O190 Dy184 2.379 . S
O190 C206 1.249 . S
O191 Dy185 2.275 . S
O191 C207 1.254 . S
O192 Dy184 2.339 . S
O192 C207 1.257 . S
O193 Dy185 2.307 . S
O193 C208 1.266 . S
O194 Dy184 2.298 . S
O194 C208 1.236 . S
O195 Dy185 2.395 . S
O195 C215 1.255 . S
O196 Dy185 2.379 . S
O196 C215 1.249 . S
C197 O187 1.266 . S
C197 O188 1.236 . S
O198 Dy184 2.275 . S
O198 C186 1.254 . S
O199 Dy185 2.339 . S
O199 C186 1.257 . S
C200 C203 1.344 . S
C200 C204 1.328 . S
C200 C206 1.516 . S
C201 C202 1.304 . S
C201 C205 1.323 . S
C202 C201 1.304 . S
C202 C203 1.371 . S
C202 H216 0.930 . S
C203 C200 1.344 . S
C203 C202 1.371 . S
C203 H217 0.931 . S
C204 C200 1.328 . S
C204 C205 1.433 . S
C204 H218 0.931 . S
C205 C201 1.323 . S
C205 C204 1.433 . S
C205 H219 0.933 . S
C206 Dy184 2.738 . S
C206 O189 1.255 . S
C206 O190 1.249 . S
C206 C200 1.516 . S
C207 O191 1.254 . S
C207 O192 1.257 . S
C208 O193 1.266 . S
C208 O194 1.236 . S
C209 C212 1.344 . S
C209 C213 1.328 . S
C209 C215 1.516 . S
C210 C211 1.304 . S
C210 C214 1.323 . S
C211 C210 1.304 . S
C211 C212 1.371 . S
C211 H220 0.930 . S
C212 C209 1.344 . S
C212 C211 1.371 . S
C212 H221 0.931 . S
C213 C209 1.328 . S
C213 C214 1.433 . S
C213 H222 0.931 . S
C214 C210 1.323 . S
C214 C213 1.433 . S
C214 H223 0.933 . S
C215 Dy185 2.738 . S
C215 O195 1.255 . S
C215 O196 1.249 . S
C215 C209 1.516 . S
H216 C202 0.930 . S
H217 C203 0.931 . S
H218 C204 0.931 . S
H219 C205 0.933 . S
H220 C211 0.930 . S
H221 C212 0.931 . S
H222 C213 0.931 . S
H223 C214 0.933 . S
Dy224 O227 2.307 . S
Dy224 O229 2.395 1_455 S
Dy224 O230 2.379 1_554 S
Dy224 O232 2.339 1_554 S
Dy224 O234 2.298 1_455 S
Dy224 O238 2.275 . S
Dy224 C246 2.738 1_454 S
Dy225 O228 2.298 . S
Dy225 O231 2.275 . S
Dy225 O233 2.307 1_455 S
Dy225 O235 2.395 . S
Dy225 O236 2.379 . S
Dy225 O239 2.339 . S
Dy225 C255 2.738 . S
C226 O238 1.254 . S
C226 O239 1.257 . S
O227 Dy224 2.307 . S
O227 C237 1.266 . S
O228 Dy225 2.298 . S
O228 C237 1.236 . S
O229 Dy224 2.395 1_655 S
O229 C246 1.255 1_554 S
O230 Dy224 2.379 1_556 S
O230 C246 1.249 1_455 S
O231 Dy225 2.275 . S
O231 C247 1.254 1_554 S
O232 Dy224 2.339 1_556 S
O232 C247 1.257 . S
O233 Dy225 2.307 1_655 S
O233 C248 1.266 . S
O234 Dy224 2.298 1_655 S
O234 C248 1.236 . S
O235 Dy225 2.395 . S
O235 C255 1.255 . S
O236 Dy225 2.379 . S
O236 C255 1.249 . S
C237 O227 1.266 . S
C237 O228 1.236 . S
O238 Dy224 2.275 . S
O238 C226 1.254 . S
O239 Dy225 2.339 . S
O239 C226 1.257 . S
C240 C243 1.344 . S
C240 C244 1.328 . S
C240 C246 1.516 . S
C241 C242 1.304 . S
C241 C245 1.323 . S
C242 C241 1.304 . S
C242 C243 1.371 . S
C242 H256 0.930 . S
C243 C240 1.344 . S
C243 C242 1.371 . S
C243 H257 0.931 1_556 S
C244 C240 1.328 . S
C244 C245 1.433 . S
C244 H258 0.931 . S
C245 C241 1.323 . S
C245 C244 1.433 . S
C245 H259 0.933 . S
C246 Dy224 2.738 1_656 S
C246 O229 1.255 1_556 S
C246 O230 1.249 1_655 S
C246 C240 1.516 . S
C247 O231 1.254 1_556 S
C247 O232 1.257 . S
C248 O233 1.266 . S
C248 O234 1.236 . S
C249 C252 1.344 . S
C249 C253 1.328 . S
C249 C255 1.516 . S
C250 C251 1.304 . S
C250 C254 1.323 . S
C251 C250 1.304 . S
C251 C252 1.371 . S
C251 H260 0.930 . S
C252 C249 1.344 . S
C252 C251 1.371 . S
C252 H261 0.931 . S
C253 C249 1.328 . S
C253 C254 1.433 . S
C253 H262 0.931 . S
C254 C250 1.323 . S
C254 C253 1.433 . S
C254 H263 0.933 . S
C255 Dy225 2.738 . S
C255 O235 1.255 . S
C255 O236 1.249 . S
C255 C249 1.516 . S
H256 C242 0.930 . S
H257 C243 0.931 1_554 S
H258 C244 0.931 . S
H259 C245 0.933 . S
H260 C251 0.930 . S
H261 C252 0.931 . S
H262 C253 0.931 . S
H263 C254 0.933 . S
C264 C265 1.349 . S
C264 C266 1.327 . S
C264 H289 0.950 . S
C265 C264 1.349 . S
C265 C281 1.349 . S
C266 C264 1.327 . S
C266 C285 1.429 . S
C266 H290 0.950 . S
C267 C284 1.574 . S
C267 C286 1.368 . S
C267 H291 0.949 . S
H268 C272 0.949 . S
C269 C270 1.349 . S
C269 C271 1.327 . S
C269 H292 0.950 . S
C270 C269 1.349 . S
C270 C282 1.349 . S
C271 C269 1.327 . S
C271 C287 1.429 . S
C271 H293 0.950 . S
C272 H268 0.949 . S
C272 C280 1.574 . S
C272 C288 1.368 . S
H273 C281 0.950 . S
H274 C279 0.950 . S
H275 C280 0.949 . S
H276 C282 0.950 . S
H277 C283 0.950 . S
H278 C284 0.949 . S
C279 H274 0.950 . S
C279 C281 1.327 . S
C279 C285 1.429 . S
C280 C272 1.574 . S
C280 H275 0.949 . S
C280 C286 1.368 . S
C281 C265 1.349 . S
C281 H273 0.950 . S
C281 C279 1.327 . S
C282 C270 1.349 . S
C282 H276 0.950 . S
C282 C283 1.327 . S
C283 H277 0.950 . S
C283 C282 1.327 . S
C283 C287 1.429 . S
C284 C267 1.574 . S
C284 H278 0.949 . S
C284 C288 1.368 . S
C285 C266 1.429 . S
C285 C279 1.429 . S
C285 C286 1.523 . S
C286 C267 1.368 . S
C286 C280 1.368 . S
C286 C285 1.523 . S
C287 C271 1.429 . S
C287 C283 1.429 . S
C287 C288 1.523 . S
C288 C272 1.368 . S
C288 C284 1.368 . S
C288 C287 1.523 . S
H289 C264 0.950 . S
H290 C266 0.950 . S
H291 C267 0.949 . S
H292 C269 0.950 . S
H293 C271 0.950 . S
C294 C295 1.349 . S
C294 C296 1.327 . S
C294 H319 0.950 . S
C295 C294 1.349 . S
C295 C311 1.349 . S
C296 C294 1.327 . S
C296 C315 1.429 . S
C296 H320 0.950 . S
C297 C314 1.574 . S
C297 C316 1.368 . S
C297 H321 0.949 . S
H298 C302 0.949 . S
C299 C300 1.349 . S
C299 C301 1.327 . S
C299 H322 0.950 . S
C300 C299 1.349 . S
C300 C312 1.349 . S
C301 C299 1.327 . S
C301 C317 1.429 . S
C301 H323 0.950 . S
C302 H298 0.949 . S
C302 C310 1.574 . S
C302 C318 1.368 . S
H303 C311 0.950 . S
H304 C309 0.950 . S
H305 C310 0.949 . S
H306 C312 0.950 . S
H307 C313 0.950 . S
H308 C314 0.949 . S
C309 H304 0.950 . S
C309 C311 1.327 . S
C309 C315 1.429 . S
C310 C302 1.574 . S
C310 H305 0.949 . S
C310 C316 1.368 . S
C311 C295 1.349 . S
C311 H303 0.950 . S
C311 C309 1.327 . S
C312 C300 1.349 . S
C312 H306 0.950 . S
C312 C313 1.327 . S
C313 H307 0.950 . S
C313 C312 1.327 . S
C313 C317 1.429 . S
C314 C297 1.574 . S
C314 H308 0.949 . S
C314 C318 1.368 . S
C315 C296 1.429 . S
C315 C309 1.429 . S
C315 C316 1.523 . S
C316 C297 1.368 . S
C316 C310 1.368 . S
C316 C315 1.523 . S
C317 C301 1.429 . S
C317 C313 1.429 . S
C317 C318 1.523 . S
C318 C302 1.368 . S
C318 C314 1.368 . S
C318 C317 1.523 . S
H319 C294 0.950 . S
H320 C296 0.950 . S
H321 C297 0.949 . S
H322 C299 0.950 . S
H323 C301 0.950 . S
C324 C325 1.349 . S
C324 C326 1.327 . S
C324 H349 0.950 . S
C325 C324 1.349 . S
C325 C341 1.349 . S
C326 C324 1.327 . S
C326 C345 1.429 . S
C326 H350 0.950 . S
C327 C344 1.574 . S
C327 C346 1.368 . S
C327 H351 0.949 . S
H328 C332 0.949 . S
C329 C330 1.349 . S
C329 C331 1.327 . S
C329 H352 0.950 . S
C330 C329 1.349 . S
C330 C342 1.349 . S
C331 C329 1.327 . S
C331 C347 1.429 . S
C331 H353 0.950 . S
C332 H328 0.949 . S
C332 C340 1.574 . S
C332 C348 1.368 . S
H333 C341 0.950 . S
H334 C339 0.950 . S
H335 C340 0.949 . S
H336 C342 0.950 . S
H337 C343 0.950 . S
H338 C344 0.949 . S
C339 H334 0.950 . S
C339 C341 1.327 . S
C339 C345 1.429 . S
C340 C332 1.574 . S
C340 H335 0.949 . S
C340 C346 1.368 . S
C341 C325 1.349 . S
C341 H333 0.950 . S
C341 C339 1.327 . S
C342 C330 1.349 . S
C342 H336 0.950 . S
C342 C343 1.327 . S
C343 H337 0.950 . S
C343 C342 1.327 . S
C343 C347 1.429 . S
C344 C327 1.574 . S
C344 H338 0.949 . S
C344 C348 1.368 . S
C345 C326 1.429 . S
C345 C339 1.429 . S
C345 C346 1.523 . S
C346 C327 1.368 . S
C346 C340 1.368 . S
C346 C345 1.523 . S
C347 C331 1.429 . S
C347 C343 1.429 . S
C347 C348 1.523 . S
C348 C332 1.368 . S
C348 C344 1.368 . S
C348 C347 1.523 . S
H349 C324 0.950 . S
H350 C326 0.950 . S
H351 C327 0.949 . S
H352 C329 0.950 . S
H353 C331 0.950 . S
C354 C355 1.349 . S
C354 C356 1.327 . S
C354 H379 0.950 . S
C355 C354 1.349 . S
C355 C371 1.349 . S
C356 C354 1.327 . S
C356 C375 1.429 . S
C356 H380 0.950 . S
C357 C374 1.574 . S
C357 C376 1.368 . S
C357 H381 0.949 . S
H358 C362 0.949 . S
C359 C360 1.349 . S
C359 C361 1.327 . S
C359 H382 0.950 . S
C360 C359 1.349 . S
C360 C372 1.349 . S
C361 C359 1.327 . S
C361 C377 1.429 . S
C361 H383 0.950 . S
C362 H358 0.949 . S
C362 C370 1.574 . S
C362 C378 1.368 . S
H363 C371 0.950 . S
H364 C369 0.950 . S
H365 C370 0.949 . S
H366 C372 0.950 1_455 S
H367 C373 0.950 . S
H368 C374 0.949 . S
C369 H364 0.950 . S
C369 C371 1.327 . S
C369 C375 1.429 . S
C370 C362 1.574 . S
C370 H365 0.949 . S
C370 C376 1.368 . S
C371 C355 1.349 . S
C371 H363 0.950 . S
C371 C369 1.327 . S
C372 C360 1.349 . S
C372 H366 0.950 1_655 S
C372 C373 1.327 . S
C373 H367 0.950 . S
C373 C372 1.327 . S
C373 C377 1.429 . S
C374 C357 1.574 . S
C374 H368 0.949 . S
C374 C378 1.368 . S
C375 C356 1.429 . S
C375 C369 1.429 . S
C375 C376 1.523 . S
C376 C357 1.368 . S
C376 C370 1.368 . S
C376 C375 1.523 . S
C377 C361 1.429 . S
C377 C373 1.429 . S
C377 C378 1.523 . S
C378 C362 1.368 . S
C378 C374 1.368 . S
C378 C377 1.523 . S
H379 C354 0.950 . S
H380 C356 0.950 . S
H381 C357 0.949 . S
H382 C359 0.950 . S
H383 C361 0.950 . S
C384 C385 1.349 . S
C384 C386 1.327 . S
C384 H409 0.950 . S
C385 C384 1.349 . S
C385 C401 1.349 . S
C386 C384 1.327 . S
C386 C405 1.429 . S
C386 H410 0.950 . S
C387 C404 1.574 . S
C387 C406 1.368 . S
C387 H411 0.949 . S
H388 C392 0.949 . S
C389 C390 1.349 . S
C389 C391 1.327 . S
C389 H412 0.950 . S
C390 C389 1.349 . S
C390 C402 1.349 . S
C391 C389 1.327 . S
C391 C407 1.429 . S
C391 H413 0.950 . S
C392 H388 0.949 . S
C392 C400 1.574 . S
C392 C408 1.368 . S
H393 C401 0.950 . S
H394 C399 0.950 . S
H395 C400 0.949 . S
H396 C402 0.950 . S
H397 C403 0.950 . S
H398 C404 0.949 . S
C399 H394 0.950 . S
C399 C401 1.327 . S
C399 C405 1.429 . S
C400 C392 1.574 . S
C400 H395 0.949 . S
C400 C406 1.368 . S
C401 C385 1.349 . S
C401 H393 0.950 . S
C401 C399 1.327 . S
C402 C390 1.349 . S
C402 H396 0.950 . S
C402 C403 1.327 . S
C403 H397 0.950 . S
C403 C402 1.327 . S
C403 C407 1.429 . S
C404 C387 1.574 . S
C404 H398 0.949 . S
C404 C408 1.368 . S
C405 C386 1.429 . S
C405 C399 1.429 . S
C405 C406 1.523 . S
C406 C387 1.368 . S
C406 C400 1.368 . S
C406 C405 1.523 . S
C407 C391 1.429 . S
C407 C403 1.429 . S
C407 C408 1.523 . S
C408 C392 1.368 . S
C408 C404 1.368 . S
C408 C407 1.523 . S
H409 C384 0.950 . S
H410 C386 0.950 . S
H411 C387 0.949 . S
H412 C389 0.950 . S
H413 C391 0.950 . S
C414 C415 1.349 . S
C414 C416 1.327 . S
C414 H439 0.950 . S
C415 C414 1.349 . S
C415 C431 1.349 . S
C416 C414 1.327 . S
C416 C435 1.429 . S
C416 H440 0.950 . S
C417 C434 1.574 . S
C417 C436 1.368 . S
C417 H441 0.949 . S
H418 C422 0.949 . S
C419 C420 1.349 . S
C419 C421 1.327 . S
C419 H442 0.950 . S
C420 C419 1.349 . S
C420 C432 1.349 . S
C421 C419 1.327 . S
C421 C437 1.429 . S
C421 H443 0.950 . S
C422 H418 0.949 . S
C422 C430 1.574 . S
C422 C438 1.368 . S
H423 C431 0.950 . S
H424 C429 0.950 . S
H425 C430 0.949 . S
H426 C432 0.950 . S
H427 C433 0.950 . S
H428 C434 0.949 . S
C429 H424 0.950 . S
C429 C431 1.327 . S
C429 C435 1.429 . S
C430 C422 1.574 . S
C430 H425 0.949 . S
C430 C436 1.368 . S
C431 C415 1.349 . S
C431 H423 0.950 . S
C431 C429 1.327 . S
C432 C420 1.349 . S
C432 H426 0.950 . S
C432 C433 1.327 . S
C433 H427 0.950 . S
C433 C432 1.327 . S
C433 C437 1.429 . S
C434 C417 1.574 . S
C434 H428 0.949 . S
C434 C438 1.368 . S
C435 C416 1.429 . S
C435 C429 1.429 . S
C435 C436 1.523 . S
C436 C417 1.368 . S
C436 C430 1.368 . S
C436 C435 1.523 . S
C437 C421 1.429 . S
C437 C433 1.429 . S
C437 C438 1.523 . S
C438 C422 1.368 . S
C438 C434 1.368 . S
C438 C437 1.523 . S
H439 C414 0.950 . S
H440 C416 0.950 . S
H441 C417 0.949 . S
H442 C419 0.950 . S
H443 C421 0.950 . S
C444 C445 1.349 . S
C444 C446 1.327 . S
C444 H469 0.950 . S
C445 C444 1.349 . S
C445 C461 1.349 . S
C446 C444 1.327 . S
C446 C465 1.429 . S
C446 H470 0.950 . S
C447 C464 1.574 . S
C447 C466 1.368 . S
C447 H471 0.949 . S
H448 C452 0.949 . S
C449 C450 1.349 . S
C449 C451 1.327 1_554 S
C449 H472 0.950 . S
C450 C449 1.349 . S
C450 C462 1.349 . S
C451 C449 1.327 1_556 S
C451 C467 1.429 . S
C451 H473 0.950 . S
C452 H448 0.949 . S
C452 C460 1.574 . S
C452 C468 1.368 . S
H453 C461 0.950 . S
H454 C459 0.950 . S
H455 C460 0.949 . S
H456 C462 0.950 . S
H457 C463 0.950 . S
H458 C464 0.949 . S
C459 H454 0.950 . S
C459 C461 1.327 . S
C459 C465 1.429 . S
C460 C452 1.574 . S
C460 H455 0.949 . S
C460 C466 1.368 . S
C461 C445 1.349 . S
C461 H453 0.950 . S
C461 C459 1.327 . S
C462 C450 1.349 . S
C462 H456 0.950 . S
C462 C463 1.327 1_554 S
C463 H457 0.950 . S
C463 C462 1.327 1_556 S
C463 C467 1.429 . S
C464 C447 1.574 . S
C464 H458 0.949 . S
C464 C468 1.368 . S
C465 C446 1.429 . S
C465 C459 1.429 . S
C465 C466 1.523 . S
C466 C447 1.368 . S
C466 C460 1.368 . S
C466 C465 1.523 . S
C467 C451 1.429 . S
C467 C463 1.429 . S
C467 C468 1.523 . S
C468 C452 1.368 . S
C468 C464 1.368 . S
C468 C467 1.523 . S
H469 C444 0.950 . S
H470 C446 0.950 . S
H471 C447 0.949 . S
H472 C449 0.950 . S
H473 C451 0.950 . S
C474 C475 1.349 . S
C474 C476 1.327 . S
C474 H499 0.950 . S
C475 C474 1.349 . S
C475 C491 1.349 . S
C476 C474 1.327 . S
C476 C495 1.429 . S
C476 H500 0.950 . S
C477 C494 1.574 . S
C477 C496 1.368 . S
C477 H501 0.949 . S
H478 C482 0.949 . S
C479 C480 1.349 . S
C479 C481 1.327 . S
C479 H502 0.950 . S
C480 C479 1.349 . S
C480 C492 1.349 . S
C481 C479 1.327 . S
C481 C497 1.429 . S
C481 H503 0.950 . S
C482 H478 0.949 . S
C482 C490 1.574 . S
C482 C498 1.368 . S
H483 C491 0.950 . S
H484 C489 0.950 . S
H485 C490 0.949 . S
H486 C492 0.950 . S
H487 C493 0.950 . S
H488 C494 0.949 . S
C489 H484 0.950 . S
C489 C491 1.327 . S
C489 C495 1.429 . S
C490 C482 1.574 . S
C490 H485 0.949 . S
C490 C496 1.368 . S
C491 C475 1.349 . S
C491 H483 0.950 . S
C491 C489 1.327 . S
C492 C480 1.349 . S
C492 H486 0.950 . S
C492 C493 1.327 . S
C493 H487 0.950 . S
C493 C492 1.327 . S
C493 C497 1.429 . S
C494 C477 1.574 . S
C494 H488 0.949 . S
C494 C498 1.368 . S
C495 C476 1.429 . S
C495 C489 1.429 . S
C495 C496 1.523 . S
C496 C477 1.368 . S
C496 C490 1.368 . S
C496 C495 1.523 . S
C497 C481 1.429 . S
C497 C493 1.429 . S
C497 C498 1.523 . S
C498 C482 1.368 . S
C498 C494 1.368 . S
C498 C497 1.523 . S
H499 C474 0.950 . S
H500 C476 0.950 . S
H501 C477 0.949 . S
H502 C479 0.950 . S
H503 C481 0.950 . S
C504 C505 1.349 . S
C504 C506 1.327 . S
C504 H529 0.950 . S
C505 C504 1.349 . S
C505 C521 1.349 . S
C506 C504 1.327 . S
C506 C525 1.429 . S
C506 H530 0.950 . S
C507 C524 1.574 . S
C507 C526 1.368 . S
C507 H531 0.949 . S
H508 C512 0.949 . S
C509 C510 1.349 . S
C509 C511 1.327 . S
C509 H532 0.950 . S
C510 C509 1.349 . S
C510 C522 1.349 . S
C511 C509 1.327 . S
C511 C527 1.429 . S
C511 H533 0.950 . S
C512 H508 0.949 . S
C512 C520 1.574 . S
C512 C528 1.368 . S
H513 C521 0.950 . S
H514 C519 0.950 . S
H515 C520 0.949 . S
H516 C522 0.950 . S
H517 C523 0.950 . S
H518 C524 0.949 . S
C519 H514 0.950 . S
C519 C521 1.327 . S
C519 C525 1.429 . S
C520 C512 1.574 . S
C520 H515 0.949 . S
C520 C526 1.368 . S
C521 C505 1.349 . S
C521 H513 0.950 . S
C521 C519 1.327 . S
C522 C510 1.349 . S
C522 H516 0.950 . S
C522 C523 1.327 . S
C523 H517 0.950 . S
C523 C522 1.327 . S
C523 C527 1.429 . S
C524 C507 1.574 . S
C524 H518 0.949 . S
C524 C528 1.368 . S
C525 C506 1.429 . S
C525 C519 1.429 . S
C525 C526 1.523 . S
C526 C507 1.368 . S
C526 C520 1.368 . S
C526 C525 1.523 . S
C527 C511 1.429 . S
C527 C523 1.429 . S
C527 C528 1.523 . S
C528 C512 1.368 . S
C528 C524 1.368 . S
C528 C527 1.523 . S
H529 C504 0.950 . S
H530 C506 0.950 . S
H531 C507 0.949 . S
H532 C509 0.950 . S
H533 C511 0.950 . S
C534 C535 1.349 . S
C534 C536 1.327 . S
C534 H559 0.950 . S
C535 C534 1.349 . S
C535 C551 1.349 . S
C536 C534 1.327 . S
C536 C555 1.429 . S
C536 H560 0.950 . S
C537 C554 1.574 . S
C537 C556 1.368 . S
C537 H561 0.949 . S
H538 C542 0.949 . S
C539 C540 1.349 . S
C539 C541 1.327 . S
C539 H562 0.950 . S
C540 C539 1.349 . S
C540 C552 1.349 . S
C541 C539 1.327 . S
C541 C557 1.429 . S
C541 H563 0.950 . S
C542 H538 0.949 . S
C542 C550 1.574 . S
C542 C558 1.368 . S
H543 C551 0.950 . S
H544 C549 0.950 . S
H545 C550 0.949 . S
H546 C552 0.950 . S
H547 C553 0.950 . S
H548 C554 0.949 . S
C549 H544 0.950 . S
C549 C551 1.327 . S
C549 C555 1.429 . S
C550 C542 1.574 . S
C550 H545 0.949 . S
C550 C556 1.368 . S
C551 C535 1.349 . S
C551 H543 0.950 . S
C551 C549 1.327 . S
C552 C540 1.349 . S
C552 H546 0.950 . S
C552 C553 1.327 . S
C553 H547 0.950 . S
C553 C552 1.327 . S
C553 C557 1.429 . S
C554 C537 1.574 . S
C554 H548 0.949 . S
C554 C558 1.368 . S
C555 C536 1.429 . S
C555 C549 1.429 . S
C555 C556 1.523 . S
C556 C537 1.368 . S
C556 C550 1.368 . S
C556 C555 1.523 . S
C557 C541 1.429 . S
C557 C553 1.429 . S
C557 C558 1.523 . S
C558 C542 1.368 . S
C558 C554 1.368 . S
C558 C557 1.523 . S
H559 C534 0.950 . S
H560 C536 0.950 . S
H561 C537 0.949 . S
H562 C539 0.950 . S
H563 C541 0.950 . S
C564 C565 1.349 . S
C564 C566 1.327 . S
C564 H589 0.950 . S
C565 C564 1.349 . S
C565 C581 1.349 . S
C566 C564 1.327 . S
C566 C585 1.429 . S
C566 H590 0.950 . S
C567 C584 1.574 . S
C567 C586 1.368 . S
C567 H591 0.949 . S
H568 C572 0.949 . S
C569 C570 1.349 . S
C569 C571 1.327 . S
C569 H592 0.950 . S
C570 C569 1.349 . S
C570 C582 1.349 . S
C571 C569 1.327 . S
C571 C587 1.429 . S
C571 H593 0.950 . S
C572 H568 0.949 . S
C572 C580 1.574 . S
C572 C588 1.368 . S
H573 C581 0.950 . S
H574 C579 0.950 . S
H575 C580 0.949 . S
H576 C582 0.951 . S
H577 C583 0.950 . S
H578 C584 0.949 . S
C579 H574 0.950 . S
C579 C581 1.327 . S
C579 C585 1.429 . S
C580 C572 1.574 . S
C580 H575 0.949 . S
C580 C586 1.368 . S
C581 C565 1.349 . S
C581 H573 0.950 . S
C581 C579 1.327 . S
C582 C570 1.349 . S
C582 H576 0.951 . S
C582 C583 1.327 . S
C583 H577 0.950 . S
C583 C582 1.327 . S
C583 C587 1.429 . S
C584 C567 1.574 . S
C584 H578 0.949 . S
C584 C588 1.368 . S
C585 C566 1.429 . S
C585 C579 1.429 . S
C585 C586 1.523 . S
C586 C567 1.368 . S
C586 C580 1.368 . S
C586 C585 1.523 . S
C587 C571 1.429 . S
C587 C583 1.429 . S
C587 C588 1.523 . S
C588 C572 1.368 . S
C588 C584 1.368 . S
C588 C587 1.523 . S
H589 C564 0.950 . S
H590 C566 0.950 . S
H591 C567 0.949 . S
H592 C569 0.950 . S
H593 C571 0.950 . S
C594 C595 1.349 . S
C594 C596 1.327 . S
C594 H619 0.950 . S
C595 C594 1.349 . S
C595 C611 1.349 . S
C596 C594 1.327 . S
C596 C615 1.429 . S
C596 H620 0.950 . S
C597 C614 1.574 . S
C597 C616 1.368 . S
C597 H621 0.949 . S
H598 C602 0.949 . S
C599 C600 1.349 . S
C599 C601 1.327 . S
C599 H622 0.950 . S
C600 C599 1.349 . S
C600 C612 1.349 . S
C601 C599 1.327 . S
C601 C617 1.429 . S
C601 H623 0.950 . S
C602 H598 0.949 . S
C602 C610 1.574 . S
C602 C618 1.368 . S
H603 C611 0.950 . S
H604 C609 0.950 . S
H605 C610 0.949 . S
H606 C612 0.950 . S
H607 C613 0.950 . S
H608 C614 0.949 . S
C609 H604 0.950 . S
C609 C611 1.327 . S
C609 C615 1.429 . S
C610 C602 1.574 . S
C610 H605 0.949 . S
C610 C616 1.368 . S
C611 C595 1.349 . S
C611 H603 0.950 . S
C611 C609 1.327 . S
C612 C600 1.349 . S
C612 H606 0.950 . S
C612 C613 1.327 . S
C613 H607 0.950 . S
C613 C612 1.327 . S
C613 C617 1.429 . S
C614 C597 1.574 . S
C614 H608 0.949 . S
C614 C618 1.368 . S
C615 C596 1.429 . S
C615 C609 1.429 . S
C615 C616 1.523 . S
C616 C597 1.368 . S
C616 C610 1.368 . S
C616 C615 1.523 . S
C617 C601 1.429 . S
C617 C613 1.429 . S
C617 C618 1.523 . S
C618 C602 1.368 . S
C618 C614 1.368 . S
C618 C617 1.523 . S
H619 C594 0.950 . S
H620 C596 0.950 . S
H621 C597 0.949 . S
H622 C599 0.950 . S
H623 C601 0.950 . S
C624 C625 1.349 . S
C624 C626 1.327 . S
C624 H649 0.950 . S
C625 C624 1.349 . S
C625 C641 1.349 . S
C626 C624 1.327 . S
C626 C645 1.429 . S
C626 H650 0.950 . S
C627 C644 1.574 . S
C627 C646 1.368 . S
C627 H651 0.949 . S
H628 C632 0.949 . S
C629 C630 1.349 . S
C629 C631 1.327 . S
C629 H652 0.950 . S
C630 C629 1.349 . S
C630 C642 1.349 . S
C631 C629 1.327 . S
C631 C647 1.429 . S
C631 H653 0.950 . S
C632 H628 0.949 . S
C632 C640 1.574 . S
C632 C648 1.368 . S
H633 C641 0.950 . S
H634 C639 0.950 . S
H635 C640 0.949 . S
H636 C642 0.950 . S
H637 C643 0.950 . S
H638 C644 0.949 . S
C639 H634 0.950 . S
C639 C641 1.327 . S
C639 C645 1.429 . S
C640 C632 1.574 . S
C640 H635 0.949 . S
C640 C646 1.368 . S
C641 C625 1.349 . S
C641 H633 0.950 . S
C641 C639 1.327 . S
C642 C630 1.349 . S
C642 H636 0.950 . S
C642 C643 1.327 . S
C643 H637 0.950 . S
C643 C642 1.327 . S
C643 C647 1.429 . S
C644 C627 1.574 . S
C644 H638 0.949 . S
C644 C648 1.368 . S
C645 C626 1.429 . S
C645 C639 1.429 . S
C645 C646 1.523 . S
C646 C627 1.368 . S
C646 C640 1.368 . S
C646 C645 1.523 . S
C647 C631 1.429 . S
C647 C643 1.429 . S
C647 C648 1.523 . S
C648 C632 1.368 . S
C648 C644 1.368 . S
C648 C647 1.523 . S
H649 C624 0.950 . S
H650 C626 0.950 . S
H651 C627 0.949 . S
H652 C629 0.950 . S
H653 C631 0.950 . S
C654 C655 1.349 . S
C654 C656 1.327 . S
C654 H679 0.950 . S
C655 C654 1.349 . S
C655 C671 1.349 . S
C656 C654 1.327 . S
C656 C675 1.429 . S
C656 H680 0.950 . S
C657 C674 1.574 . S
C657 C676 1.368 . S
C657 H681 0.949 . S
H658 C662 0.949 . S
C659 C660 1.349 . S
C659 C661 1.327 . S
C659 H682 0.950 . S
C660 C659 1.349 . S
C660 C672 1.349 . S
C661 C659 1.327 . S
C661 C677 1.429 . S
C661 H683 0.950 . S
C662 H658 0.949 . S
C662 C670 1.574 . S
C662 C678 1.368 . S
H663 C671 0.950 . S
H664 C669 0.950 . S
H665 C670 0.949 . S
H666 C672 0.950 . S
H667 C673 0.950 . S
H668 C674 0.949 . S
C669 H664 0.950 . S
C669 C671 1.327 . S
C669 C675 1.429 . S
C670 C662 1.574 . S
C670 H665 0.949 . S
C670 C676 1.368 . S
C671 C655 1.349 . S
C671 H663 0.950 . S
C671 C669 1.327 . S
C672 C660 1.349 . S
C672 H666 0.950 . S
C672 C673 1.327 . S
C673 H667 0.950 . S
C673 C672 1.327 . S
C673 C677 1.429 . S
C674 C657 1.574 . S
C674 H668 0.949 . S
C674 C678 1.368 . S
C675 C656 1.429 . S
C675 C669 1.429 . S
C675 C676 1.523 . S
C676 C657 1.368 . S
C676 C670 1.368 . S
C676 C675 1.523 . S
C677 C661 1.429 . S
C677 C673 1.429 . S
C677 C678 1.523 . S
C678 C662 1.368 . S
C678 C674 1.368 . S
C678 C677 1.523 . S
H679 C654 0.950 . S
H680 C656 0.950 . S
H681 C657 0.949 . S
H682 C659 0.950 . S
H683 C661 0.950 . S
C684 C685 1.349 . S
C684 C686 1.327 . S
C684 H709 0.950 . S
C685 C684 1.349 . S
C685 C701 1.349 . S
C686 C684 1.327 . S
C686 C705 1.429 . S
C686 H710 0.950 . S
C687 C704 1.574 . S
C687 C706 1.368 . S
C687 H711 0.949 . S
H688 C692 0.949 . S
C689 C690 1.349 . S
C689 C691 1.327 . S
C689 H712 0.950 . S
C690 C689 1.349 . S
C690 C702 1.349 . S
C691 C689 1.327 . S
C691 C707 1.429 . S
C691 H713 0.950 . S
C692 H688 0.949 . S
C692 C700 1.574 . S
C692 C708 1.368 . S
H693 C701 0.950 . S
H694 C699 0.950 . S
H695 C700 0.949 . S
H696 C702 0.950 . S
H697 C703 0.950 . S
H698 C704 0.949 . S
C699 H694 0.950 . S
C699 C701 1.327 . S
C699 C705 1.429 . S
C700 C692 1.574 . S
C700 H695 0.949 . S
C700 C706 1.368 . S
C701 C685 1.349 . S
C701 H693 0.950 . S
C701 C699 1.327 . S
C702 C690 1.349 . S
C702 H696 0.950 . S
C702 C703 1.327 . S
C703 H697 0.950 . S
C703 C702 1.327 . S
C703 C707 1.429 . S
C704 C687 1.574 . S
C704 H698 0.949 . S
C704 C708 1.368 . S
C705 C686 1.429 . S
C705 C699 1.429 . S
C705 C706 1.523 . S
C706 C687 1.368 . S
C706 C700 1.368 . S
C706 C705 1.523 . S
C707 C691 1.429 . S
C707 C703 1.429 . S
C707 C708 1.523 . S
C708 C692 1.368 . S
C708 C704 1.368 . S
C708 C707 1.523 . S
H709 C684 0.950 . S
H710 C686 0.950 . S
H711 C687 0.949 . S
H712 C689 0.950 . S
H713 C691 0.950 . S
C714 C715 1.349 . S
C714 C716 1.327 . S
C714 H739 0.950 . S
C715 C714 1.349 . S
C715 C731 1.349 . S
C716 C714 1.327 . S
C716 C735 1.429 . S
C716 H740 0.950 . S
C717 C734 1.574 . S
C717 C736 1.368 . S
C717 H741 0.949 . S
H718 C722 0.949 . S
C719 C720 1.349 . S
C719 C721 1.327 . S
C719 H742 0.950 . S
C720 C719 1.349 . S
C720 C732 1.349 . S
C721 C719 1.327 . S
C721 C737 1.429 . S
C721 H743 0.950 . S
C722 H718 0.949 . S
C722 C730 1.574 . S
C722 C738 1.368 . S
H723 C731 0.950 . S
H724 C729 0.950 . S
H725 C730 0.949 . S
H726 C732 0.950 . S
H727 C733 0.950 . S
H728 C734 0.949 . S
C729 H724 0.950 . S
C729 C731 1.327 . S
C729 C735 1.429 . S
C730 C722 1.574 . S
C730 H725 0.949 . S
C730 C736 1.368 . S
C731 C715 1.349 . S
C731 H723 0.950 . S
C731 C729 1.327 . S
C732 C720 1.349 . S
C732 H726 0.950 . S
C732 C733 1.327 . S
C733 H727 0.950 . S
C733 C732 1.327 . S
C733 C737 1.429 . S
C734 C717 1.574 . S
C734 H728 0.949 . S
C734 C738 1.368 . S
C735 C716 1.429 . S
C735 C729 1.429 . S
C735 C736 1.523 . S
C736 C717 1.368 . S
C736 C730 1.368 . S
C736 C735 1.523 . S
C737 C721 1.429 . S
C737 C733 1.429 . S
C737 C738 1.523 . S
C738 C722 1.368 . S
C738 C734 1.368 . S
C738 C737 1.523 . S
H739 C714 0.950 . S
H740 C716 0.950 . S
H741 C717 0.949 . S
H742 C719 0.950 . S
H743 C721 0.950 . S
C744 C745 1.349 . S
C744 C746 1.327 . S
C744 H769 0.950 . S
C745 C744 1.349 . S
C745 C761 1.349 . S
C746 C744 1.327 . S
C746 C765 1.429 . S
C746 H770 0.950 . S
C747 C764 1.574 . S
C747 C766 1.368 . S
C747 H771 0.949 . S
H748 C752 0.949 . S
C749 C750 1.349 . S
C749 C751 1.327 . S
C749 H772 0.950 . S
C750 C749 1.349 . S
C750 C762 1.349 . S
C751 C749 1.327 . S
C751 C767 1.429 . S
C751 H773 0.950 . S
C752 H748 0.949 . S
C752 C760 1.574 . S
C752 C768 1.368 . S
H753 C761 0.950 . S
H754 C759 0.950 . S
H755 C760 0.949 . S
H756 C762 0.950 . S
H757 C763 0.950 . S
H758 C764 0.949 . S
C759 H754 0.950 . S
C759 C761 1.327 . S
C759 C765 1.429 . S
C760 C752 1.574 . S
C760 H755 0.949 . S
C760 C766 1.368 . S
C761 C745 1.349 . S
C761 H753 0.950 . S
C761 C759 1.327 . S
C762 C750 1.349 . S
C762 H756 0.950 . S
C762 C763 1.327 . S
C763 H757 0.950 . S
C763 C762 1.327 . S
C763 C767 1.429 . S
C764 C747 1.574 . S
C764 H758 0.949 . S
C764 C768 1.368 . S
C765 C746 1.429 . S
C765 C759 1.429 . S
C765 C766 1.523 . S
C766 C747 1.368 . S
C766 C760 1.368 . S
C766 C765 1.523 . S
C767 C751 1.429 . S
C767 C763 1.429 . S
C767 C768 1.523 . S
C768 C752 1.368 . S
C768 C764 1.368 . S
C768 C767 1.523 . S
H769 C744 0.950 . S
H770 C746 0.950 . S
H771 C747 0.949 . S
H772 C749 0.950 . S
H773 C751 0.950 . S
C774 C775 1.349 . S
C774 C776 1.327 . S
C774 H799 0.950 . S
C775 C774 1.349 . S
C775 C791 1.349 . S
C776 C774 1.327 . S
C776 C795 1.429 . S
C776 H800 0.950 . S
C777 C794 1.574 . S
C777 C796 1.368 . S
C777 H801 0.949 . S
H778 C782 0.949 . S
C779 C780 1.335 1_455 S
C779 C781 1.309 1_455 S
C779 H802 0.983 . S
C780 C779 1.335 1_655 S
C780 C792 1.349 . S
C781 C779 1.309 1_655 S
C781 C797 1.429 . S
C781 H803 0.950 1_655 S
C782 H778 0.949 . S
C782 C790 1.574 . S
C782 C798 1.368 . S
H783 C791 0.950 . S
H784 C789 0.950 . S
H785 C790 0.949 . S
H786 C792 0.950 . S
H787 C793 0.950 . S
H788 C794 0.949 . S
C789 H784 0.950 . S
C789 C791 1.327 . S
C789 C795 1.429 . S
C790 C782 1.574 . S
C790 H785 0.949 . S
C790 C796 1.368 . S
C791 C775 1.349 . S
C791 H783 0.950 . S
C791 C789 1.327 . S
C792 C780 1.349 . S
C792 H786 0.950 . S
C792 C793 1.327 . S
C793 H787 0.950 . S
C793 C792 1.327 . S
C793 C797 1.429 . S
C794 C777 1.574 . S
C794 H788 0.949 . S
C794 C798 1.368 . S
C795 C776 1.429 . S
C795 C789 1.429 . S
C795 C796 1.523 . S
C796 C777 1.368 . S
C796 C790 1.368 . S
C796 C795 1.523 . S
C797 C781 1.429 . S
C797 C793 1.429 . S
C797 C798 1.523 . S
C798 C782 1.368 . S
C798 C794 1.368 . S
C798 C797 1.523 . S
H799 C774 0.950 . S
H800 C776 0.950 . S
H801 C777 0.949 . S
H802 C779 0.983 . S
H803 C781 0.950 1_455 S
C804 C805 1.349 . S
C804 C806 1.327 . S
C804 H829 0.950 . S
C805 C804 1.349 . S
C805 C821 1.349 . S
C806 C804 1.327 . S
C806 C825 1.429 . S
C806 H830 0.950 . S
C807 C824 1.574 . S
C807 C826 1.368 . S
C807 H831 0.949 . S
H808 C812 0.949 . S
C809 C810 1.349 . S
C809 C811 1.327 . S
C809 H832 0.950 . S
C810 C809 1.349 . S
C810 C822 1.349 . S
C811 C809 1.327 . S
C811 C827 1.429 . S
C811 H833 0.950 . S
C812 H808 0.949 . S
C812 C820 1.574 . S
C812 C828 1.368 . S
H813 C821 0.950 . S
H814 C819 0.950 . S
H815 C820 0.949 . S
H816 C822 0.950 . S
H817 C823 0.950 . S
H818 C824 0.949 . S
C819 H814 0.950 . S
C819 C821 1.327 . S
C819 C825 1.429 . S
C820 C812 1.574 . S
C820 H815 0.949 . S
C820 C826 1.368 . S
C821 C805 1.349 . S
C821 H813 0.950 . S
C821 C819 1.327 . S
C822 C810 1.349 . S
C822 H816 0.950 . S
C822 C823 1.327 . S
C823 H817 0.950 . S
C823 C822 1.327 . S
C823 C827 1.429 . S
C824 C807 1.574 . S
C824 H818 0.949 . S
C824 C828 1.368 . S
C825 C806 1.429 . S
C825 C819 1.429 . S
C825 C826 1.523 . S
C826 C807 1.368 . S
C826 C820 1.368 . S
C826 C825 1.523 . S
C827 C811 1.429 . S
C827 C823 1.429 . S
C827 C828 1.523 . S
C828 C812 1.368 . S
C828 C824 1.368 . S
C828 C827 1.523 . S
H829 C804 0.950 . S
H830 C806 0.950 . S
H831 C807 0.949 . S
H832 C809 0.950 . S
H833 C811 0.950 . S
C834 C835 1.349 . S
C834 C836 1.327 . S
C834 H859 0.950 . S
C835 C834 1.349 . S
C835 C851 1.349 . S
C836 C834 1.327 . S
C836 C855 1.429 . S
C836 H860 0.950 . S
C837 C854 1.574 . S
C837 C856 1.368 . S
C837 H861 0.949 . S
H838 C842 0.949 . S
C839 C840 1.349 . S
C839 C841 1.327 . S
C839 H862 0.950 . S
C840 C839 1.349 . S
C840 C852 1.349 . S
C841 C839 1.327 . S
C841 C857 1.429 . S
C841 H863 0.950 . S
C842 H838 0.949 . S
C842 C850 1.574 . S
C842 C858 1.368 . S
H843 C851 0.950 . S
H844 C849 0.950 . S
H845 C850 0.949 . S
H846 C852 0.950 . S
H847 C853 0.950 . S
H848 C854 0.949 . S
C849 H844 0.950 . S
C849 C851 1.327 . S
C849 C855 1.429 . S
C850 C842 1.574 . S
C850 H845 0.949 . S
C850 C856 1.368 . S
C851 C835 1.349 . S
C851 H843 0.950 . S
C851 C849 1.327 . S
C852 C840 1.349 . S
C852 H846 0.950 . S
C852 C853 1.327 . S
C853 H847 0.950 . S
C853 C852 1.327 . S
C853 C857 1.429 . S
C854 C837 1.574 . S
C854 H848 0.949 . S
C854 C858 1.368 . S
C855 C836 1.429 . S
C855 C849 1.429 . S
C855 C856 1.523 . S
C856 C837 1.368 . S
C856 C850 1.368 . S
C856 C855 1.523 . S
C857 C841 1.429 . S
C857 C853 1.429 . S
C857 C858 1.523 . S
C858 C842 1.368 . S
C858 C854 1.368 . S
C858 C857 1.523 . S
H859 C834 0.950 . S
H860 C836 0.950 . S
H861 C837 0.949 . S
H862 C839 0.950 . S
H863 C841 0.950 . S
C864 C865 1.349 . S
C864 C866 1.327 . S
C864 H889 0.950 . S
C865 C864 1.349 . S
C865 C881 1.349 . S
C866 C864 1.327 . S
C866 C885 1.429 . S
C866 H890 0.950 . S
C867 C884 1.574 . S
C867 C886 1.368 . S
C867 H891 0.949 . S
H868 C872 0.949 . S
C869 C870 1.349 . S
C869 C871 1.327 . S
C869 H892 0.950 . S
C870 C869 1.349 . S
C870 C882 1.349 . S
C871 C869 1.327 . S
C871 C887 1.429 . S
C871 H893 0.950 . S
C872 H868 0.949 . S
C872 C880 1.574 . S
C872 C888 1.368 . S
H873 C881 0.950 . S
H874 C879 0.950 . S
H875 C880 0.949 . S
H876 C882 0.950 . S
H877 C883 0.950 . S
H878 C884 0.949 . S
C879 H874 0.950 . S
C879 C881 1.327 . S
C879 C885 1.429 . S
C880 C872 1.574 . S
C880 H875 0.949 . S
C880 C886 1.368 . S
C881 C865 1.349 . S
C881 H873 0.950 . S
C881 C879 1.327 . S
C882 C870 1.349 . S
C882 H876 0.950 . S
C882 C883 1.327 . S
C883 H877 0.950 . S
C883 C882 1.327 . S
C883 C887 1.429 . S
C884 C867 1.574 . S
C884 H878 0.949 . S
C884 C888 1.368 . S
C885 C866 1.429 . S
C885 C879 1.429 . S
C885 C886 1.523 . S
C886 C867 1.368 . S
C886 C880 1.368 . S
C886 C885 1.523 . S
C887 C871 1.429 . S
C887 C883 1.429 . S
C887 C888 1.523 . S
C888 C872 1.368 . S
C888 C884 1.368 . S
C888 C887 1.523 . S
H889 C864 0.950 . S
H890 C866 0.950 . S
H891 C867 0.949 . S
H892 C869 0.950 . S
H893 C871 0.950 . S
C894 C895 1.349 . S
C894 C896 1.327 . S
C894 H919 0.950 . S
C895 C894 1.349 . S
C895 C911 1.349 . S
C896 C894 1.327 . S
C896 C915 1.429 . S
C896 H920 0.950 . S
C897 C914 1.574 . S
C897 C916 1.368 . S
C897 H921 0.949 . S
H898 C902 0.949 . S
C899 C900 1.349 . S
C899 C901 1.327 . S
C899 H922 0.950 . S
C900 C899 1.349 . S
C900 C912 1.349 . S
C901 C899 1.327 . S
C901 C917 1.429 . S
C901 H923 0.950 . S
C902 H898 0.949 . S
C902 C910 1.574 . S
C902 C918 1.368 . S
H903 C911 0.950 . S
H904 C909 0.950 . S
H905 C910 0.949 . S
H906 C912 0.950 . S
H907 C913 0.950 . S
H908 C914 0.949 . S
C909 H904 0.950 . S
C909 C911 1.327 . S
C909 C915 1.429 . S
C910 C902 1.574 . S
C910 H905 0.949 . S
C910 C916 1.368 . S
C911 C895 1.349 . S
C911 H903 0.950 . S
C911 C909 1.327 . S
C912 C900 1.349 . S
C912 H906 0.950 . S
C912 C913 1.327 . S
C913 H907 0.950 . S
C913 C912 1.327 . S
C913 C917 1.429 . S
C914 C897 1.574 . S
C914 H908 0.949 . S
C914 C918 1.368 . S
C915 C896 1.429 . S
C915 C909 1.429 . S
C915 C916 1.523 . S
C916 C897 1.368 . S
C916 C910 1.368 . S
C916 C915 1.523 . S
C917 C901 1.429 . S
C917 C913 1.429 . S
C917 C918 1.523 . S
C918 C902 1.368 . S
C918 C914 1.368 . S
C918 C917 1.523 . S
H919 C894 0.950 . S
H920 C896 0.950 . S
H921 C897 0.949 . S
H922 C899 0.950 . S
H923 C901 0.950 . S
C924 C925 1.349 . S
C924 C926 1.327 . S
C924 H949 0.950 . S
C925 C924 1.349 . S
C925 C941 1.349 . S
C926 C924 1.327 . S
C926 C945 1.429 . S
C926 H950 0.950 . S
C927 C944 1.574 . S
C927 C946 1.368 . S
C927 H951 0.949 . S
H928 C932 0.949 . S
C929 C930 1.349 . S
C929 C931 1.327 . S
C929 H952 0.950 . S
C930 C929 1.349 . S
C930 C942 1.349 . S
C931 C929 1.327 . S
C931 C947 1.429 . S
C931 H953 0.950 . S
C932 H928 0.949 . S
C932 C940 1.574 . S
C932 C948 1.368 . S
H933 C941 0.950 . S
H934 C939 0.950 . S
H935 C940 0.949 . S
H936 C942 0.950 . S
H937 C943 0.950 . S
H938 C944 0.949 . S
C939 H934 0.950 . S
C939 C941 1.327 . S
C939 C945 1.429 . S
C940 C932 1.574 . S
C940 H935 0.949 . S
C940 C946 1.368 . S
C941 C925 1.349 . S
C941 H933 0.950 . S
C941 C939 1.327 . S
C942 C930 1.349 . S
C942 H936 0.950 . S
C942 C943 1.327 . S
C943 H937 0.950 . S
C943 C942 1.327 . S
C943 C947 1.429 . S
C944 C927 1.574 . S
C944 H938 0.949 . S
C944 C948 1.368 . S
C945 C926 1.429 . S
C945 C939 1.429 . S
C945 C946 1.523 . S
C946 C927 1.368 . S
C946 C940 1.368 . S
C946 C945 1.523 . S
C947 C931 1.429 . S
C947 C943 1.429 . S
C947 C948 1.523 . S
C948 C932 1.368 . S
C948 C944 1.368 . S
C948 C947 1.523 . S
H949 C924 0.950 . S
H950 C926 0.950 . S
H951 C927 0.949 . S
H952 C929 0.950 . S
H953 C931 0.950 . S
C954 C955 1.349 . S
C954 C956 1.327 . S
C954 H979 0.950 . S
C955 C954 1.349 . S
C955 C971 1.349 . S
C956 C954 1.327 . S
C956 C975 1.429 . S
C956 H980 0.950 . S
C957 C974 1.574 . S
C957 C976 1.368 . S
C957 H981 0.949 . S
H958 C962 0.949 . S
C959 C960 1.349 . S
C959 C961 1.327 . S
C959 H982 0.950 . S
C960 C959 1.349 . S
C960 C972 1.349 . S
C961 C959 1.327 . S
C961 C977 1.429 . S
C961 H983 0.950 . S
C962 H958 0.949 . S
C962 C970 1.574 . S
C962 C978 1.368 . S
H963 C971 0.950 . S
H964 C969 0.950 . S
H965 C970 0.949 . S
H966 C972 0.950 . S
H967 C973 0.950 . S
H968 C974 0.949 . S
C969 H964 0.950 . S
C969 C971 1.327 . S
C969 C975 1.429 . S
C970 C962 1.574 . S
C970 H965 0.949 . S
C970 C976 1.368 . S
C971 C955 1.349 . S
C971 H963 0.950 . S
C971 C969 1.327 . S
C972 C960 1.349 . S
C972 H966 0.950 . S
C972 C973 1.327 . S
C973 H967 0.950 . S
C973 C972 1.327 . S
C973 C977 1.429 . S
C974 C957 1.574 . S
C974 H968 0.949 . S
C974 C978 1.368 . S
C975 C956 1.429 . S
C975 C969 1.429 . S
C975 C976 1.523 . S
C976 C957 1.368 . S
C976 C970 1.368 . S
C976 C975 1.523 . S
C977 C961 1.429 . S
C977 C973 1.429 . S
C977 C978 1.523 . S
C978 C962 1.368 . S
C978 C974 1.368 . S
C978 C977 1.523 . S
H979 C954 0.950 . S
H980 C956 0.950 . S
H981 C957 0.949 . S
H982 C959 0.950 . S
H983 C961 0.950 . S
C265 C9 1.484 . S
C270 C121 1.527 . S
C295 C21 1.017 . S
C300 C161 1.038 . S
C330 C186 1.992 . S
C325 C30 1.998 . S
C355 C43 2.115 . S
C360 C226 2.181 1_655 S
C390 C157 1.593 . S
C385 C4 1.447 . S
C420 C117 2.369 . S
C415 C22 2.319 . S
C450 C248 1.193 . S
C445 C34 1.218 . S
C480 C208 1.417 . S
C475 C48 1.425 . S
C505 C8 1.304 . S
C510 C250 1.317 . S
C540 C167 2.057 . S
C535 C35 2.074 . S
C565 C47 2.340 . S
C570 C127 2.292 1_655 S
C595 C17 1.081 . S
C600 C210 1.111 . S
C630 C130 0.965 . S
C625 C60 0.958 . S
C655 C74 1.161 . S
C660 C170 1.175 . S
C685 C82 1.712 . S
C690 C207 1.723 . S
C715 C100 2.795 . S
C720 C247 2.728 . S
C745 C61 2.044 . S
C750 C168 2.096 . S
C780 C128 1.669 . S
C775 C73 1.627 . S
C810 C237 1.810 . S
C805 C87 1.826 . S
C840 C197 1.299 . S
C835 C95 1.307 . S
C865 C56 1.192 . S
C870 C241 1.186 . S
C900 C146 2.277 . S
C895 C86 2.311 . S
C930 C106 2.175 . S
C925 C99 2.201 . S
C955 C69 0.966 . S
C960 C201 1.045 . S
