# Generated by pormake.
# Topology cml, (3,6)-cn, num edge types: 1
# Building blocks:
#     Node 0, Type 0, BuildingBlock: BETDAH_clean_linker_0, # of connection points: 3
#     Node 1, Type 0, BuildingBlock: BETDAH_clean_linker_0, # of connection points: 3
#     Node 2, Type 0, BuildingBlock: BETDAH_clean_linker_0, # of connection points: 3
#     Node 3, Type 0, BuildingBlock: BETDAH_clean_linker_0, # of connection points: 3
#     Node 4, Type 0, BuildingBlock: BETDAH_clean_linker_0, # of connection points: 3
#     Node 5, Type 0, BuildingBlock: BETDAH_clean_linker_0, # of connection points: 3
#     Node 6, Type 0, BuildingBlock: BETDAH_clean_linker_0, # of connection points: 3
#     Node 7, Type 0, BuildingBlock: BETDAH_clean_linker_0, # of connection points: 3
#     Node 8, Type 1, BuildingBlock: OJICUG_clean_sbu_0, # of connection points: 6
#     Node 9, Type 1, BuildingBlock: OJICUG_clean_sbu_0, # of connection points: 6
#     Node 10, Type 1, BuildingBlock: OJICUG_clean_sbu_0, # of connection points: 6
#     Node 11, Type 1, BuildingBlock: OJICUG_clean_sbu_0, # of connection points: 6
#     Edge 12, Type (0, 1), BuildingBlock: OJICUG_clean_linker_0, # of connection points: 2
#     Edge 13, Type (0, 1), BuildingBlock: OJICUG_clean_linker_0, # of connection points: 2
#     Edge 14, Type (0, 1), BuildingBlock: OJICUG_clean_linker_0, # of connection points: 2
#     Edge 15, Type (0, 1), BuildingBlock: OJICUG_clean_linker_0, # of connection points: 2
#     Edge 16, Type (0, 1), BuildingBlock: OJICUG_clean_linker_0, # of connection points: 2
#     Edge 17, Type (0, 1), BuildingBlock: OJICUG_clean_linker_0, # of connection points: 2
#     Edge 18, Type (0, 1), BuildingBlock: OJICUG_clean_linker_0, # of connection points: 2
#     Edge 19, Type (0, 1), BuildingBlock: OJICUG_clean_linker_0, # of connection points: 2
#     Edge 20, Type (0, 1), BuildingBlock: OJICUG_clean_linker_0, # of connection points: 2
#     Edge 21, Type (0, 1), BuildingBlock: OJICUG_clean_linker_0, # of connection points: 2
#     Edge 22, Type (0, 1), BuildingBlock: OJICUG_clean_linker_0, # of connection points: 2
#     Edge 23, Type (0, 1), BuildingBlock: OJICUG_clean_linker_0, # of connection points: 2
#     Edge 24, Type (0, 1), BuildingBlock: OJICUG_clean_linker_0, # of connection points: 2
#     Edge 25, Type (0, 1), BuildingBlock: OJICUG_clean_linker_0, # of connection points: 2
#     Edge 26, Type (0, 1), BuildingBlock: OJICUG_clean_linker_0, # of connection points: 2
#     Edge 27, Type (0, 1), BuildingBlock: OJICUG_clean_linker_0, # of connection points: 2
#     Edge 28, Type (0, 1), BuildingBlock: OJICUG_clean_linker_0, # of connection points: 2
#     Edge 29, Type (0, 1), BuildingBlock: OJICUG_clean_linker_0, # of connection points: 2
#     Edge 30, Type (0, 1), BuildingBlock: OJICUG_clean_linker_0, # of connection points: 2
#     Edge 31, Type (0, 1), BuildingBlock: OJICUG_clean_linker_0, # of connection points: 2
#     Edge 32, Type (0, 1), BuildingBlock: OJICUG_clean_linker_0, # of connection points: 2
#     Edge 33, Type (0, 1), BuildingBlock: OJICUG_clean_linker_0, # of connection points: 2
#     Edge 34, Type (0, 1), BuildingBlock: OJICUG_clean_linker_0, # of connection points: 2
#     Edge 35, Type (0, 1), BuildingBlock: OJICUG_clean_linker_0, # of connection points: 2
# Relax obj value: 0.007
# Max RMSD: 0.047
# Mean RMSD: 0.041
data_MOF--net-cml--node1-OJICUG_clean_sbu_0--node2-BETDAH_clean_linker_0--edge1-OJICUG_clean_linker_0
_symmetry_space_group_name_H-M    P1
_symmetry_Int_Tables_number       1
_symmetry_cell_setting            triclinic
loop_
_symmetry_equiv_pos_as_xyz
'x, y, z'
_cell_length_a     29.999581
_cell_length_b     29.061185
_cell_length_c     25.853836
_cell_angle_alpha  89.283938
_cell_angle_beta   90.850631
_cell_angle_gamma 91.67261
loop_
_atom_site_label
_atom_site_type_symbol
_atom_site_fract_x
_atom_site_fract_y
_atom_site_fract_z
_atom_type_partial_charge
H0 H 0.36599 0.44346 0.0564 0.0
H1 H 0.26361 0.39145 0.9526 0.0
H2 H 0.31134 0.30645 0.07755 0.0
C3 C 0.34159 0.41677 0.04603 0.0
C4 C 0.34127 0.37487 0.07341 0.0
C5 C 0.31369 0.42333 0.00261 0.0
C6 C 0.28435 0.3873 0.9869 0.0
C7 C 0.28371 0.34511 0.0143 0.0
C8 C 0.31212 0.33923 0.05709 0.0
N9 N 0.25737 0.30656 -0.0018 0.0
C10 C 0.21751 0.30872 0.97054 0.0
H11 H 0.64781 0.54812 0.56305 0.0
H12 H 0.74775 0.59862 0.45687 0.0
H13 H 0.70266 0.68543 0.57754 0.0
C14 C 0.6719 0.57457 0.55126 0.0
C15 C 0.673 0.61688 0.57682 0.0
C16 C 0.69864 0.56728 0.50803 0.0
C17 C 0.72769 0.60318 0.49082 0.0
C18 C 0.72888 0.64584 0.51618 0.0
C19 C 0.70153 0.65231 0.55867 0.0
N20 N 0.75416 0.68452 0.49794 0.0
C21 C 0.79404 0.68325 0.47149 0.0
H22 H 0.62343 0.41173 0.04489 0.0
H23 H 0.71743 0.46799 0.93538 0.0
H24 H 0.75951 0.36843 0.04889 0.0
C25 C 0.65662 0.41287 0.02874 0.0
C26 C 0.69008 0.3861 0.05137 0.0
C27 C 0.66609 0.44239 0.98678 0.0
C28 C 0.70936 0.44465 0.96715 0.0
C29 C 0.7427 0.41741 0.98853 0.0
C30 C 0.73323 0.38818 0.03096 0.0
N31 N 0.78612 0.422 0.96838 0.0
C32 C 0.80966 0.38428 0.95327 0.0
H33 H 0.38182 0.56098 0.5406 0.0
H34 H 0.29557 0.67361 0.50682 0.0
H35 H 0.3421 0.59062 0.38358 0.0
C36 C 0.36206 0.58039 0.513 0.0
C37 C 0.36436 0.57045 0.46022 0.0
C38 C 0.33739 0.61748 0.53024 0.0
C39 C 0.31384 0.6443 0.49406 0.0
C40 C 0.31561 0.63414 0.44108 0.0
C41 C 0.34095 0.5977 0.4246 0.0
N42 N 0.2946 0.66147 0.40283 0.0
C43 C 0.25349 0.68096 0.40911 0.0
H44 H 0.85706 0.94237 0.04405 0.0
H45 H 0.78106 0.89401 0.91208 0.0
H46 H 0.79814 0.80577 0.04457 0.0
C47 C 0.83522 0.91659 0.02621 0.0
C48 C 0.82805 0.87408 0.05167 0.0
C49 C 0.81858 0.92448 0.97587 0.0
C50 C 0.79313 0.88932 0.95145 0.0
C51 C 0.78547 0.84682 0.97658 0.0
C52 C 0.803 0.83929 0.02637 0.0
N53 N 0.76694 0.80911 0.94887 0.0
C54 C 0.72135 0.8021 0.94162 0.0
H55 H 0.14356 0.06817 0.54569 0.0
H56 H 0.22398 0.11442 0.41762 0.0
H57 H 0.20409 0.20392 0.5455 0.0
C58 C 0.16616 0.09355 0.52841 0.0
C59 C 0.17327 0.13604 0.55286 0.0
C60 C 0.18402 0.08509 0.47962 0.0
C61 C 0.21083 0.11964 0.45584 0.0
C62 C 0.21835 0.16227 0.48002 0.0
C63 C 0.19924 0.17041 0.52805 0.0
N64 N 0.23903 0.19956 0.45306 0.0
C65 C 0.28431 0.20199 0.44266 0.0
H66 H 0.1256 0.9353 0.04055 0.0
H67 H 0.23244 0.97619 0.93932 0.0
H68 H 0.25383 0.8742 0.05856 0.0
C69 C 0.15958 0.93179 0.02766 0.0
C70 C 0.18755 0.90131 0.05383 0.0
C71 C 0.17537 0.95888 0.98633 0.0
C72 C 0.21954 0.9548 0.97066 0.0
C73 C 0.24755 0.92368 0.99575 0.0
C74 C 0.23164 0.89683 0.03764 0.0
N75 N 0.29249 0.92242 0.9805 0.0
C76 C 0.31187 0.88196 0.966 0.0
H77 H 0.8774 0.07188 0.53033 0.0
H78 H 0.74546 0.11259 0.56994 0.0
H79 H 0.76267 0.00638 0.45819 0.0
C80 C 0.84151 0.06932 0.52465 0.0
C81 C 0.8233 0.0367 0.49036 0.0
C82 C 0.81368 0.09615 0.55435 0.0
C83 C 0.76729 0.09189 0.54735 0.0
C84 C 0.749 0.05992 0.51208 0.0
C85 C 0.77696 0.03146 0.48484 0.0
N86 N 0.70254 0.05678 0.50282 0.0
C87 C 0.67998 0.09545 0.48675 0.0
Sc88 Sc 0.01385 0.79013 0.29104 0.0
Sc89 Sc 0.0153 0.91144 0.29592 0.0
Sc90 Sc 0.0221 0.84674 0.41114 0.0
O91 O 0.01704 0.84943 0.33266 0.0
C92 C 0.95328 0.76264 0.38703 0.0
C93 C 0.9457 0.85222 0.22745 0.0
C94 C 0.95216 0.9258 0.39229 0.0
C95 C 0.07965 0.85446 0.22455 0.0
C96 C 0.08729 0.76867 0.37906 0.0
C97 C 0.08505 0.93515 0.38617 0.0
O98 O 0.96242 0.75973 0.33933 0.0
O99 O 0.96126 0.88991 0.2455 0.0
O100 O 0.96802 0.89313 0.41945 0.0
O101 O 0.0646 0.81473 0.23793 0.0
O102 O 0.07647 0.80046 0.40932 0.0
O103 O 0.06878 0.94156 0.3412 0.0
O104 O 0.06626 0.75986 0.33704 0.0
O105 O 0.06462 0.89169 0.24172 0.0
O106 O 0.0711 0.90286 0.41598 0.0
O107 O 0.96162 0.81342 0.23957 0.0
O108 O 0.97369 0.79062 0.41723 0.0
O109 O 0.96655 0.93713 0.34773 0.0
Sc110 Sc 0.9898 0.22 0.78702 0.0
Sc111 Sc 0.98673 0.09858 0.79257 0.0
Sc112 Sc 0.98097 0.16095 0.90725 0.0
O113 O 0.98568 0.15994 0.8289 0.0
C114 C 0.05346 0.2416 0.8838 0.0
C115 C 0.05542 0.15796 0.72388 0.0
C116 C 0.04893 0.07981 0.89026 0.0
C117 C 0.92186 0.15767 0.72066 0.0
C118 C 0.92103 0.2452 0.87571 0.0
C119 C 0.91615 0.07526 0.88142 0.0
O120 O 0.04266 0.24746 0.83642 0.0
O121 O 0.03931 0.12026 0.74166 0.0
O122 O 0.03091 0.10984 0.91785 0.0
O123 O 0.93787 0.19713 0.73324 0.0
O124 O 0.93115 0.21229 0.90597 0.0
O125 O 0.93467 0.06754 0.83869 0.0
O126 O 0.93974 0.25225 0.83236 0.0
O127 O 0.93619 0.11992 0.73878 0.0
O128 O 0.92818 0.10877 0.91008 0.0
O129 O 0.04068 0.1968 0.73608 0.0
O130 O 0.03333 0.21286 0.91349 0.0
O131 O 0.03726 0.07223 0.84363 0.0
Sc132 Sc 0.53237 0.28228 0.3019 0.0
Sc133 Sc 0.5495 0.40264 0.30382 0.0
Sc134 Sc 0.53793 0.34121 0.42106 0.0
O135 O 0.54026 0.34194 0.34233 0.0
C136 C 0.46022 0.268 0.3913 0.0
C137 C 0.47641 0.35126 0.23233 0.0
C138 C 0.48419 0.43159 0.39278 0.0
C139 C 0.60804 0.33599 0.23732 0.0
C140 C 0.59136 0.25017 0.39887 0.0
C141 C 0.61504 0.41773 0.40093 0.0
O142 O 0.47579 0.2591 0.34714 0.0
O143 O 0.49674 0.38723 0.24889 0.0
O144 O 0.49406 0.39874 0.42341 0.0
O145 O 0.58696 0.29899 0.25007 0.0
O146 O 0.5805 0.28284 0.42806 0.0
O147 O 0.6023 0.42622 0.35479 0.0
O148 O 0.57749 0.24642 0.35234 0.0
O149 O 0.59877 0.37518 0.25471 0.0
O150 O 0.59592 0.38711 0.42931 0.0
O151 O 0.48571 0.31096 0.24764 0.0
O152 O 0.47915 0.29665 0.42194 0.0
O153 O 0.50139 0.43695 0.3485 0.0
Sc154 Sc 0.47899 0.70663 0.79715 0.0
Sc155 Sc 0.47006 0.58558 0.80444 0.0
Sc156 Sc 0.47347 0.64973 0.91881 0.0
O157 O 0.47398 0.64739 0.84013 0.0
C158 C 0.5484 0.72605 0.8903 0.0
C159 C 0.54142 0.64017 0.73496 0.0
C160 C 0.53294 0.56213 0.90075 0.0
C161 C 0.40888 0.64696 0.73023 0.0
C162 C 0.41554 0.73667 0.88825 0.0
C163 C 0.40057 0.57001 0.89591 0.0
O164 O 0.533 0.73367 0.84495 0.0
O165 O 0.52353 0.60337 0.75304 0.0
O166 O 0.51902 0.59427 0.92857 0.0
O167 O 0.4263 0.68555 0.74367 0.0
O168 O 0.42817 0.7056 0.9197 0.0
O169 O 0.41655 0.56025 0.85228 0.0
O170 O 0.43027 0.74071 0.84247 0.0
O171 O 0.42115 0.60881 0.74943 0.0
O172 O 0.41685 0.6022 0.92409 0.0
O173 O 0.52868 0.68 0.74677 0.0
O174 O 0.53056 0.69675 0.92126 0.0
O175 O 0.51898 0.55532 0.85482 0.0
C176 C 0.16791 0.29982 0.89401 0.0
C177 C 0.17399 0.30091 0.94782 0.0
H178 H 0.12411 0.28063 0.83106 0.0
C179 C 0.13891 0.28737 0.98015 0.0
H180 H 0.19503 0.30972 0.86859 0.0
C181 C 0.09878 0.27035 0.95907 0.0
C182 C 0.09307 0.2667 0.90517 0.0
H183 H 0.1433 0.28769 0.02185 0.0
H184 H 0.07284 0.25838 0.98511 0.0
C185 C 0.12746 0.28314 0.87271 0.0
C186 C 0.87147 0.70999 0.48247 0.0
C187 C 0.83705 0.69406 0.44963 0.0
H188 H 0.93551 0.74384 0.48844 0.0
C189 C 0.8426 0.69628 0.39593 0.0
H190 H 0.86746 0.70902 0.52408 0.0
C191 C 0.88168 0.71621 0.37524 0.0
C192 C 0.91528 0.73484 0.40813 0.0
H193 H 0.81597 0.6847 0.37003 0.0
H194 H 0.88444 0.71929 0.33361 0.0
C195 C 0.91023 0.73022 0.46198 0.0
C196 C 0.8526 0.35231 0.88314 0.0
C197 C 0.83492 0.34767 0.93277 0.0
H198 H 0.89339 0.32321 0.82565 0.0
C199 C 0.84285 0.30813 0.96243 0.0
H200 H 0.8465 0.38277 0.85977 0.0
C201 C 0.86954 0.27387 0.94307 0.0
C202 C 0.88871 0.27886 0.89377 0.0
H203 H 0.82914 0.30412 0.00083 0.0
H204 H 0.876 0.24408 0.96732 0.0
C205 C 0.87928 0.31817 0.86369 0.0
C206 C 0.17968 0.68372 0.36858 0.0
C207 C 0.20984 0.69976 0.40646 0.0
H208 H 0.11685 0.69263 0.33045 0.0
C209 C 0.19859 0.73613 0.43819 0.0
H210 H 0.18813 0.6556 0.34372 0.0
C211 C 0.15774 0.75746 0.43082 0.0
C212 C 0.12795 0.74278 0.39128 0.0
H213 H 0.22182 0.7489 0.46752 0.0
H214 H 0.15031 0.78646 0.45482 0.0
C215 C 0.13901 0.70502 0.361 0.0
C216 C 0.65352 0.75844 0.9667 0.0
C217 C 0.67551 0.7883 0.93196 0.0
H218 H 0.59577 0.71554 0.98114 0.0
C219 C 0.65447 0.80051 0.88531 0.0
H220 H 0.66958 0.7484 0.00277 0.0
C221 C 0.61231 0.78172 0.87263 0.0
C222 C 0.59063 0.75018 0.90639 0.0
H223 H 0.67125 0.82331 0.85789 0.0
H224 H 0.59742 0.79081 0.83562 0.0
C225 C 0.61135 0.73961 0.95415 0.0
C226 C 0.3486 0.20264 0.3841 0.0
C227 C 0.33056 0.21277 0.43215 0.0
H228 H 0.4041 0.21178 0.33347 0.0
C229 C 0.35615 0.23816 0.46806 0.0
H230 H 0.32902 0.18339 0.35573 0.0
C231 C 0.39893 0.25468 0.4555 0.0
C232 C 0.41684 0.24618 0.40659 0.0
H233 H 0.34249 0.2466 0.50523 0.0
H234 H 0.41737 0.27526 0.48365 0.0
C235 C 0.39149 0.21905 0.37145 0.0
C236 C 0.34619 0.80661 0.97834 0.0
C237 C 0.3342 0.84314 0.94583 0.0
H238 H 0.38104 0.74366 0.98545 0.0
C239 C 0.34613 0.84327 0.89371 0.0
H240 H 0.33711 0.80616 0.01877 0.0
C241 C 0.37121 0.80777 0.87441 0.0
C242 C 0.38482 0.77159 0.90712 0.0
H243 H 0.33698 0.87143 0.86817 0.0
H244 H 0.38089 0.80938 0.83423 0.0
C245 C 0.37125 0.77096 0.95913 0.0
C246 C 0.65069 0.13743 0.41179 0.0
C247 C 0.65933 0.13533 0.46503 0.0
H248 H 0.62307 0.17583 0.34878 0.0
C249 C 0.64853 0.17216 0.49636 0.0
H250 H 0.65938 0.10928 0.3871 0.0
C251 C 0.62792 0.21054 0.47462 0.0
C252 C 0.61788 0.2124 0.42123 0.0
H253 H 0.65552 0.17103 0.53759 0.0
H254 H 0.61888 0.23813 0.49985 0.0
C255 C 0.63015 0.17564 0.38999 0.0
C256 C 0.33143 0.46122 0.91799 0.0
C257 C 0.32133 0.46535 0.9705 0.0
H258 H 0.36405 0.49166 0.85261 0.0
C259 C 0.32852 0.50818 0.99442 0.0
H260 H 0.32628 0.42865 0.89853 0.0
C261 C 0.3508 0.54423 0.96844 0.0
C262 C 0.36608 0.53811 0.91793 0.0
H263 H 0.32037 0.51246 0.03474 0.0
H264 H 0.35904 0.57545 0.98939 0.0
C265 C 0.35353 0.49734 0.89185 0.0
C266 C 0.68311 0.52717 0.42412 0.0
C267 C 0.69049 0.52448 0.4778 0.0
H268 H 0.65423 0.49503 0.35727 0.0
C269 C 0.68158 0.48225 0.50346 0.0
H270 H 0.68956 0.55909 0.4031 0.0
C271 C 0.66054 0.44555 0.47738 0.0
C272 C 0.64837 0.45017 0.42491 0.0
H273 H 0.68784 0.47875 0.54468 0.0
H274 H 0.65101 0.4149 0.49928 0.0
C275 C 0.66243 0.49034 0.39789 0.0
C276 C 0.60585 0.49908 -0.0026 0.0
C277 C 0.6314 0.47234 0.96481 0.0
H278 H 0.55497 0.54879 0.0027 0.0
C279 C 0.62431 0.47513 0.91109 0.0
H280 H 0.61102 0.49785 0.03895 0.0
C281 C 0.59209 0.50403 0.89028 0.0
C282 C 0.56676 0.53119 0.92281 0.0
H283 H 0.64351 0.45469 0.8852 0.0
H284 H 0.58739 0.50545 0.84867 0.0
C285 C 0.57404 0.52845 0.97659 0.0
C286 C 0.41939 0.541 0.39771 0.0
C287 C 0.39359 0.53377 0.44214 0.0
H288 H 0.46786 0.51463 0.34735 0.0
C289 C 0.39715 0.49204 0.46985 0.0
H290 H 0.41822 0.57308 0.37602 0.0
C291 C 0.42633 0.45857 0.45382 0.0
C292 C 0.45228 0.46606 0.40952 0.0
H293 H 0.37733 0.48519 0.50392 0.0
H294 H 0.4285 0.42688 0.47609 0.0
C295 C 0.44816 0.50751 0.38146 0.0
C296 C 0.83923 0.00899 0.97242 0.0
C297 C 0.83409 0.96653 0.94708 0.0
H298 H 0.86889 0.07688 0.97159 0.0
C299 C 0.85021 0.96297 0.89659 0.0
H300 H 0.82646 0.01314 0.01101 0.0
C301 C 0.8742 0.99963 0.87378 0.0
C302 C 0.8829 0.04064 0.90105 0.0
H303 H 0.84717 0.93078 0.87599 0.0
H304 H 0.88823 0.99462 0.83597 0.0
C305 C 0.86348 0.0456 0.94975 0.0
C306 C 0.15279 0.04655 0.40018 0.0
C307 C 0.16845 0.04305 0.45151 0.0
H308 H 0.11452 0.01517 0.33912 0.0
C309 C 0.16221 0.0009 0.47825 0.0
H310 H 0.15669 0.07852 0.37854 0.0
C311 C 0.13729 0.96466 0.45598 0.0
C312 C 0.11836 0.96961 0.40624 0.0
H313 H 0.17456 0.99683 0.51758 0.0
H314 H 0.13112 0.93366 0.47875 0.0
C315 C 0.12815 0.01021 0.37775 0.0
C316 C 0.12114 0.02197 0.99127 0.0
C317 C 0.14578 0.99233 0.96105 0.0
H318 H 0.07157 0.0731 0.99264 0.0
C319 C 0.14039 0.99343 0.90707 0.0
H320 H 0.12519 0.02211 0.03299 0.0
C321 C 0.10946 0.02248 0.88381 0.0
C322 C 0.08379 0.05126 0.91418 0.0
H323 H 0.15902 0.97077 0.88305 0.0
H324 H 0.10524 0.0219 0.84214 0.0
C325 C 0.09061 0.05128 0.96809 0.0
C326 C 0.85599 0.96048 0.47489 0.0
C327 C 0.85317 0.00727 0.46186 0.0
H328 H 0.89017 0.89781 0.46322 0.0
C329 C 0.88133 0.02666 0.42419 0.0
H330 H 0.83459 0.94514 0.5042 0.0
C331 C 0.9125 0.99966 0.40019 0.0
C332 C 0.91665 0.95313 0.41449 0.0
H333 H 0.87962 0.06284 0.41396 0.0
H334 H 0.93441 0.01562 0.37181 0.0
C335 C 0.88784 0.93365 0.45173 0.0
C336 C 0.39529 0.32556 0.12239 0.0
C337 C 0.37374 0.36768 0.1165 0.0
H338 H 0.44456 0.28733 0.16367 0.0
C339 C 0.38526 0.40377 0.15038 0.0
H340 H 0.38788 0.29728 0.09648 0.0
C341 C 0.41852 0.39839 0.18807 0.0
C342 C 0.44048 0.35655 0.19332 0.0
H343 H 0.36875 0.43638 0.14758 0.0
H344 H 0.42693 0.427 0.21321 0.0
C345 C 0.42807 0.31995 0.16065 0.0
C346 C 0.62012 0.66647 0.62442 0.0
C347 C 0.64212 0.62458 0.62019 0.0
H348 H 0.57123 0.70439 0.66416 0.0
C349 C 0.63264 0.58912 0.6562 0.0
H350 H 0.62614 0.69433 0.59698 0.0
C351 C 0.60065 0.59464 0.69408 0.0
C352 C 0.5777 0.63597 0.69731 0.0
H353 H 0.64961 0.55678 0.65476 0.0
H354 H 0.59362 0.56627 0.72059 0.0
C355 C 0.58843 0.67219 0.66278 0.0
C356 C 0.69641 0.37951 0.14685 0.0
C357 C 0.68007 0.36123 0.1001 0.0
H358 H 0.6861 0.38515 0.22831 0.0
C359 C 0.64641 0.32664 0.10111 0.0
H360 H 0.72197 0.40664 0.14679 0.0
C361 C 0.62653 0.31356 0.14786 0.0
C362 C 0.63928 0.33593 0.19384 0.0
H363 H 0.63308 0.31252 0.06531 0.0
H364 H 0.59805 0.28976 0.14705 0.0
C365 C 0.67586 0.36727 0.19338 0.0
C366 C 0.35969 0.67388 0.59865 0.0
C367 C 0.34172 0.6304 0.58529 0.0
H368 H 0.39495 0.71369 0.65608 0.0
C369 C 0.33714 0.59624 0.62383 0.0
H370 H 0.3637 0.70073 0.56951 0.0
C371 C 0.35506 0.60349 0.67323 0.0
C372 C 0.37808 0.64501 0.68492 0.0
H373 H 0.32296 0.56258 0.61451 0.0
H374 H 0.35395 0.57519 0.7009 0.0
C375 C 0.37773 0.68119 0.64824 0.0
C376 C 0.87393 0.82349 0.10988 0.0
C377 C 0.85164 0.86493 0.10159 0.0
H378 H 0.92094 0.78675 0.15647 0.0
C379 C 0.85638 0.89968 0.13878 0.0
H380 H 0.87139 0.79614 0.08183 0.0
C381 C 0.88532 0.89459 0.18109 0.0
C382 C 0.90986 0.85439 0.18755 0.0
H383 H 0.83897 0.93164 0.13409 0.0
H384 H 0.88958 0.92285 0.20782 0.0
C385 C 0.90259 0.81819 0.15258 0.0
C386 C 0.12691 0.18668 0.60761 0.0
C387 C 0.14929 0.14527 0.60142 0.0
H388 H 0.07975 0.22337 0.65151 0.0
C389 C 0.1445 0.11053 0.63941 0.0
H390 H 0.12959 0.214 0.57885 0.0
C391 C 0.11547 0.1156 0.68046 0.0
C392 C 0.09091 0.15578 0.68489 0.0
H393 H 0.16198 0.07861 0.63634 0.0
H394 H 0.11126 0.08738 0.70791 0.0
C395 C 0.09814 0.19196 0.64912 0.0
C396 C 0.14123 0.84158 0.09961 0.0
C397 C 0.17084 0.87983 0.10183 0.0
H398 H 0.08928 0.80265 0.13806 0.0
C399 C 0.17485 0.90508 0.14755 0.0
H400 H 0.137 0.82242 0.06411 0.0
C401 C 0.14692 0.89474 0.18899 0.0
C402 C 0.11497 0.85857 0.18559 0.0
H403 H 0.19686 0.93528 0.14952 0.0
H404 H 0.14862 0.91664 0.22263 0.0
C405 C 0.11381 0.83056 0.14165 0.0
C406 C 0.82209 0.11109 0.64823 0.0
C407 C 0.83349 0.12312 0.5973 0.0
H408 H 0.84202 0.11303 0.72809 0.0
C409 C 0.86952 0.15411 0.58857 0.0
H410 H 0.79479 0.08682 0.65579 0.0
C411 C 0.89592 0.16994 0.63007 0.0
C412 C 0.88707 0.15402 0.68041 0.0
H413 H 0.87894 0.16356 0.54948 0.0
H414 H 0.92549 0.19105 0.62231 0.0
C415 C 0.84907 0.12597 0.68948 0.0
loop_
_geom_bond_atom_site_label_1
_geom_bond_atom_site_label_2
_geom_bond_distance
_geom_bond_site_symmetry_2
_ccdc_geom_bond_type
H0 C3 0.929 . S
H1 C6 0.929 . S
H2 C8 0.930 . S
C3 H0 0.929 . S
C3 C4 1.398 . S
C3 C5 1.396 1_554 S
C4 C3 1.398 . S
C4 C8 1.407 . S
C5 C3 1.396 1_556 S
C5 C6 1.394 . S
C6 H1 0.929 . S
C6 C5 1.394 . S
C6 C7 1.382 1_556 S
C7 C6 1.382 1_554 S
C7 C8 1.392 . S
C7 N9 1.420 1_554 S
C8 H2 0.930 . S
C8 C4 1.407 . S
C8 C7 1.392 . S
N9 C7 1.420 1_556 S
N9 C10 1.244 . S
C10 N9 1.244 . S
H11 C14 0.929 . S
H12 C17 0.929 . S
H13 C19 0.930 . S
C14 H11 0.929 . S
C14 C15 1.398 . S
C14 C16 1.396 . S
C15 C14 1.398 . S
C15 C19 1.407 . S
C16 C14 1.396 . S
C16 C17 1.394 . S
C17 H12 0.929 . S
C17 C16 1.394 . S
C17 C18 1.382 . S
C18 C17 1.382 . S
C18 C19 1.392 . S
C18 N20 1.420 . S
C19 H13 0.930 . S
C19 C15 1.407 . S
C19 C18 1.392 . S
N20 C18 1.420 . S
N20 C21 1.244 . S
C21 N20 1.244 . S
H22 C25 0.929 . S
H23 C28 0.929 . S
H24 C30 0.930 . S
C25 H22 0.929 . S
C25 C26 1.398 . S
C25 C27 1.396 1_554 S
C26 C25 1.398 . S
C26 C30 1.407 . S
C27 C25 1.396 1_556 S
C27 C28 1.394 . S
C28 H23 0.929 . S
C28 C27 1.394 . S
C28 C29 1.382 1_556 S
C29 C28 1.382 1_554 S
C29 C30 1.392 . S
C29 N31 1.420 . S
C30 H24 0.930 . S
C30 C26 1.407 . S
C30 C29 1.392 . S
N31 C29 1.420 . S
N31 C32 1.244 1_554 S
C32 N31 1.244 1_556 S
H33 C36 0.929 . S
H34 C39 0.929 . S
H35 C41 0.930 . S
C36 H33 0.929 . S
C36 C37 1.398 . S
C36 C38 1.396 . S
C37 C36 1.398 . S
C37 C41 1.407 . S
C38 C36 1.396 . S
C38 C39 1.394 . S
C39 H34 0.929 . S
C39 C38 1.394 . S
C39 C40 1.382 . S
C40 C39 1.382 . S
C40 C41 1.392 . S
C40 N42 1.420 . S
C41 H35 0.930 . S
C41 C37 1.407 . S
C41 C40 1.392 . S
N42 C40 1.420 . S
N42 C43 1.244 . S
C43 N42 1.244 . S
H44 C47 0.929 . S
H45 C50 0.929 . S
H46 C52 0.930 . S
C47 H44 0.929 . S
C47 C48 1.398 . S
C47 C49 1.396 1_554 S
C48 C47 1.398 . S
C48 C52 1.407 . S
C49 C47 1.396 1_556 S
C49 C50 1.394 . S
C50 H45 0.929 . S
C50 C49 1.394 . S
C50 C51 1.382 1_556 S
C51 C50 1.382 1_554 S
C51 C52 1.392 . S
C51 N53 1.420 1_554 S
C52 H46 0.930 . S
C52 C48 1.407 . S
C52 C51 1.392 . S
N53 C51 1.420 1_556 S
N53 C54 1.244 . S
C54 N53 1.244 . S
H55 C58 0.929 . S
H56 C61 0.929 . S
H57 C63 0.930 . S
C58 H55 0.929 . S
C58 C59 1.398 . S
C58 C60 1.396 . S
C59 C58 1.398 . S
C59 C63 1.407 . S
C60 C58 1.396 . S
C60 C61 1.394 . S
C61 H56 0.929 . S
C61 C60 1.394 . S
C61 C62 1.382 . S
C62 C61 1.382 . S
C62 C63 1.392 . S
C62 N64 1.420 . S
C63 H57 0.930 . S
C63 C59 1.407 . S
C63 C62 1.392 . S
N64 C62 1.420 . S
N64 C65 1.244 . S
C65 N64 1.244 . S
H66 C69 0.929 . S
H67 C72 0.929 . S
H68 C74 0.930 . S
C69 H66 0.929 . S
C69 C70 1.398 . S
C69 C71 1.396 1_554 S
C70 C69 1.398 . S
C70 C74 1.407 . S
C71 C69 1.396 1_556 S
C71 C72 1.394 . S
C72 H67 0.929 . S
C72 C71 1.394 . S
C72 C73 1.382 1_556 S
C73 C72 1.382 1_554 S
C73 C74 1.392 . S
C73 N75 1.420 . S
C74 H68 0.930 . S
C74 C70 1.407 . S
C74 C73 1.392 . S
N75 C73 1.420 . S
N75 C76 1.244 1_554 S
C76 N75 1.244 1_556 S
H77 C80 0.929 . S
H78 C83 0.929 . S
H79 C85 0.930 . S
C80 H77 0.929 . S
C80 C81 1.398 . S
C80 C82 1.396 . S
C81 C80 1.398 . S
C81 C85 1.407 . S
C82 C80 1.396 . S
C82 C83 1.394 . S
C83 H78 0.929 . S
C83 C82 1.394 . S
C83 C84 1.382 . S
C84 C83 1.382 . S
C84 C85 1.392 . S
C84 N86 1.420 . S
C85 H79 0.930 . S
C85 C81 1.407 . S
C85 C84 1.392 . S
N86 C84 1.420 . S
N86 C87 1.244 . S
C87 N86 1.244 . S
Sc88 O91 2.025 . S
Sc88 O98 2.105 1_455 S
Sc88 O101 2.105 . S
Sc88 O104 2.105 . S
Sc88 O107 2.105 1_455 S
Sc89 O91 2.025 . S
Sc89 O99 2.105 1_455 S
Sc89 O103 2.105 . S
Sc89 O105 2.105 . S
Sc89 O109 2.105 1_455 S
Sc90 O91 2.025 . S
Sc90 O100 2.105 1_455 S
Sc90 O102 2.105 . S
Sc90 O106 2.105 . S
Sc90 O108 2.105 1_455 S
O91 Sc88 2.025 . S
O91 Sc89 2.025 . S
O91 Sc90 2.025 . S
C92 O98 1.268 . S
C92 O108 1.268 . S
C93 O99 1.268 . S
C93 O107 1.268 . S
C94 O100 1.268 . S
C94 O109 1.268 . S
C95 O101 1.268 . S
C95 O105 1.268 . S
C96 O102 1.268 . S
C96 O104 1.268 . S
C97 O103 1.268 . S
C97 O106 1.268 . S
O98 Sc88 2.105 1_655 S
O98 C92 1.268 . S
O99 Sc89 2.105 1_655 S
O99 C93 1.268 . S
O100 Sc90 2.105 1_655 S
O100 C94 1.268 . S
O101 Sc88 2.105 . S
O101 C95 1.268 . S
O102 Sc90 2.105 . S
O102 C96 1.268 . S
O103 Sc89 2.105 . S
O103 C97 1.268 . S
O104 Sc88 2.105 . S
O104 C96 1.268 . S
O105 Sc89 2.105 . S
O105 C95 1.268 . S
O106 Sc90 2.105 . S
O106 C97 1.268 . S
O107 Sc88 2.105 1_655 S
O107 C93 1.268 . S
O108 Sc90 2.105 1_655 S
O108 C92 1.268 . S
O109 Sc89 2.105 1_655 S
O109 C94 1.268 . S
Sc110 O113 2.025 . S
Sc110 O120 2.105 . S
Sc110 O123 2.105 1_455 S
Sc110 O126 2.105 1_455 S
Sc110 O129 2.105 . S
Sc111 O113 2.025 . S
Sc111 O121 2.105 . S
Sc111 O125 2.105 1_455 S
Sc111 O127 2.105 1_455 S
Sc111 O131 2.105 . S
Sc112 O113 2.025 . S
Sc112 O122 2.105 . S
Sc112 O124 2.105 1_455 S
Sc112 O128 2.105 1_455 S
Sc112 O130 2.105 . S
O113 Sc110 2.025 . S
O113 Sc111 2.025 . S
O113 Sc112 2.025 . S
C114 O120 1.268 . S
C114 O130 1.268 . S
C115 O121 1.268 . S
C115 O129 1.268 . S
C116 O122 1.268 . S
C116 O131 1.268 . S
C117 O123 1.268 . S
C117 O127 1.268 . S
C118 O124 1.268 . S
C118 O126 1.268 . S
C119 O125 1.268 . S
C119 O128 1.268 . S
O120 Sc110 2.105 . S
O120 C114 1.268 . S
O121 Sc111 2.105 . S
O121 C115 1.268 . S
O122 Sc112 2.105 . S
O122 C116 1.268 . S
O123 Sc110 2.105 1_655 S
O123 C117 1.268 . S
O124 Sc112 2.105 1_655 S
O124 C118 1.268 . S
O125 Sc111 2.105 1_655 S
O125 C119 1.268 . S
O126 Sc110 2.105 1_655 S
O126 C118 1.268 . S
O127 Sc111 2.105 1_655 S
O127 C117 1.268 . S
O128 Sc112 2.105 1_655 S
O128 C119 1.268 . S
O129 Sc110 2.105 . S
O129 C115 1.268 . S
O130 Sc112 2.105 . S
O130 C114 1.268 . S
O131 Sc111 2.105 . S
O131 C116 1.268 . S
Sc132 O135 2.025 . S
Sc132 O142 2.105 . S
Sc132 O145 2.105 . S
Sc132 O148 2.105 . S
Sc132 O151 2.105 . S
Sc133 O135 2.025 . S
Sc133 O143 2.105 . S
Sc133 O147 2.105 . S
Sc133 O149 2.105 . S
Sc133 O153 2.105 . S
Sc134 O135 2.025 . S
Sc134 O144 2.105 . S
Sc134 O146 2.105 . S
Sc134 O150 2.105 . S
Sc134 O152 2.105 . S
O135 Sc132 2.025 . S
O135 Sc133 2.025 . S
O135 Sc134 2.025 . S
C136 O142 1.268 . S
C136 O152 1.268 . S
C137 O143 1.268 . S
C137 O151 1.268 . S
C138 O144 1.268 . S
C138 O153 1.268 . S
C139 O145 1.268 . S
C139 O149 1.268 . S
C140 O146 1.268 . S
C140 O148 1.268 . S
C141 O147 1.268 . S
C141 O150 1.268 . S
O142 Sc132 2.105 . S
O142 C136 1.268 . S
O143 Sc133 2.105 . S
O143 C137 1.268 . S
O144 Sc134 2.105 . S
O144 C138 1.268 . S
O145 Sc132 2.105 . S
O145 C139 1.268 . S
O146 Sc134 2.105 . S
O146 C140 1.268 . S
O147 Sc133 2.105 . S
O147 C141 1.268 . S
O148 Sc132 2.105 . S
O148 C140 1.268 . S
O149 Sc133 2.105 . S
O149 C139 1.268 . S
O150 Sc134 2.105 . S
O150 C141 1.268 . S
O151 Sc132 2.105 . S
O151 C137 1.268 . S
O152 Sc134 2.105 . S
O152 C136 1.268 . S
O153 Sc133 2.105 . S
O153 C138 1.268 . S
Sc154 O157 2.025 . S
Sc154 O164 2.105 . S
Sc154 O167 2.105 . S
Sc154 O170 2.105 . S
Sc154 O173 2.105 . S
Sc155 O157 2.025 . S
Sc155 O165 2.105 . S
Sc155 O169 2.105 . S
Sc155 O171 2.105 . S
Sc155 O175 2.105 . S
Sc156 O157 2.025 . S
Sc156 O166 2.105 . S
Sc156 O168 2.105 . S
Sc156 O172 2.105 . S
Sc156 O174 2.105 . S
O157 Sc154 2.025 . S
O157 Sc155 2.025 . S
O157 Sc156 2.025 . S
C158 O164 1.268 . S
C158 O174 1.268 . S
C159 O165 1.268 . S
C159 O173 1.268 . S
C160 O166 1.268 . S
C160 O175 1.268 . S
C161 O167 1.268 . S
C161 O171 1.268 . S
C162 O168 1.268 . S
C162 O170 1.268 . S
C163 O169 1.268 . S
C163 O172 1.268 . S
O164 Sc154 2.105 . S
O164 C158 1.268 . S
O165 Sc155 2.105 . S
O165 C159 1.268 . S
O166 Sc156 2.105 . S
O166 C160 1.268 . S
O167 Sc154 2.105 . S
O167 C161 1.268 . S
O168 Sc156 2.105 . S
O168 C162 1.268 . S
O169 Sc155 2.105 . S
O169 C163 1.268 . S
O170 Sc154 2.105 . S
O170 C162 1.268 . S
O171 Sc155 2.105 . S
O171 C161 1.268 . S
O172 Sc156 2.105 . S
O172 C163 1.268 . S
O173 Sc154 2.105 . S
O173 C159 1.268 . S
O174 Sc156 2.105 . S
O174 C158 1.268 . S
O175 Sc155 2.105 . S
O175 C160 1.268 . S
C176 C177 1.387 . S
C176 H180 0.950 . S
C176 C185 1.390 . S
C177 C176 1.387 . S
C177 C179 1.387 . S
H178 C185 0.950 . S
C179 C177 1.387 . S
C179 C181 1.390 . S
C179 H183 0.950 1_556 S
H180 C176 0.950 . S
C181 C179 1.390 . S
C181 C182 1.387 . S
C181 H184 0.950 . S
C182 C181 1.387 . S
C182 C185 1.387 . S
H183 C179 0.950 1_554 S
H184 C181 0.950 . S
C185 C176 1.390 . S
C185 H178 0.950 . S
C185 C182 1.387 . S
C186 C187 1.387 . S
C186 H190 0.950 . S
C186 C195 1.390 . S
C187 C186 1.387 . S
C187 C189 1.387 . S
H188 C195 0.950 . S
C189 C187 1.387 . S
C189 C191 1.390 . S
C189 H193 0.950 . S
H190 C186 0.950 . S
C191 C189 1.390 . S
C191 C192 1.387 . S
C191 H194 0.950 . S
C192 C191 1.387 . S
C192 C195 1.387 . S
H193 C189 0.950 . S
H194 C191 0.950 . S
C195 C186 1.390 . S
C195 H188 0.950 . S
C195 C192 1.387 . S
C196 C197 1.387 . S
C196 H200 0.950 . S
C196 C205 1.390 . S
C197 C196 1.387 . S
C197 C199 1.387 . S
H198 C205 0.950 . S
C199 C197 1.387 . S
C199 C201 1.390 . S
C199 H203 0.950 1_556 S
H200 C196 0.950 . S
C201 C199 1.390 . S
C201 C202 1.387 . S
C201 H204 0.950 . S
C202 C201 1.387 . S
C202 C205 1.387 . S
H203 C199 0.950 1_554 S
H204 C201 0.950 . S
C205 C196 1.390 . S
C205 H198 0.950 . S
C205 C202 1.387 . S
C206 C207 1.387 . S
C206 H210 0.950 . S
C206 C215 1.390 . S
C207 C206 1.387 . S
C207 C209 1.387 . S
H208 C215 0.950 . S
C209 C207 1.387 . S
C209 C211 1.390 . S
C209 H213 0.950 . S
H210 C206 0.950 . S
C211 C209 1.390 . S
C211 C212 1.387 . S
C211 H214 0.950 . S
C212 C211 1.387 . S
C212 C215 1.387 . S
H213 C209 0.950 . S
H214 C211 0.950 . S
C215 C206 1.390 . S
C215 H208 0.950 . S
C215 C212 1.387 . S
C216 C217 1.387 . S
C216 H220 0.950 1_556 S
C216 C225 1.390 . S
C217 C216 1.387 . S
C217 C219 1.387 . S
H218 C225 0.950 . S
C219 C217 1.387 . S
C219 C221 1.390 . S
C219 H223 0.950 . S
H220 C216 0.950 1_554 S
C221 C219 1.390 . S
C221 C222 1.387 . S
C221 H224 0.950 . S
C222 C221 1.387 . S
C222 C225 1.387 . S
H223 C219 0.950 . S
H224 C221 0.950 . S
C225 C216 1.390 . S
C225 H218 0.950 . S
C225 C222 1.387 . S
C226 C227 1.387 . S
C226 H230 0.950 . S
C226 C235 1.390 . S
C227 C226 1.387 . S
C227 C229 1.387 . S
H228 C235 0.950 . S
C229 C227 1.387 . S
C229 C231 1.390 . S
C229 H233 0.950 . S
H230 C226 0.950 . S
C231 C229 1.390 . S
C231 C232 1.387 . S
C231 H234 0.950 . S
C232 C231 1.387 . S
C232 C235 1.387 . S
H233 C229 0.950 . S
H234 C231 0.950 . S
C235 C226 1.390 . S
C235 H228 0.950 . S
C235 C232 1.387 . S
C236 C237 1.387 . S
C236 H240 0.950 . S
C236 C245 1.390 . S
C237 C236 1.387 . S
C237 C239 1.387 . S
H238 C245 0.950 . S
C239 C237 1.387 . S
C239 C241 1.390 . S
C239 H243 0.950 . S
H240 C236 0.950 . S
C241 C239 1.390 . S
C241 C242 1.387 . S
C241 H244 0.950 . S
C242 C241 1.387 . S
C242 C245 1.387 . S
H243 C239 0.950 . S
H244 C241 0.950 . S
C245 C236 1.390 . S
C245 H238 0.950 . S
C245 C242 1.387 . S
C246 C247 1.387 . S
C246 H250 0.950 . S
C246 C255 1.390 . S
C247 C246 1.387 . S
C247 C249 1.387 . S
H248 C255 0.950 . S
C249 C247 1.387 . S
C249 C251 1.390 . S
C249 H253 0.950 . S
H250 C246 0.950 . S
C251 C249 1.390 . S
C251 C252 1.387 . S
C251 H254 0.950 . S
C252 C251 1.387 . S
C252 C255 1.387 . S
H253 C249 0.950 . S
H254 C251 0.950 . S
C255 C246 1.390 . S
C255 H248 0.950 . S
C255 C252 1.387 . S
C256 C257 1.387 . S
C256 H260 0.950 . S
C256 C265 1.390 . S
C257 C256 1.387 . S
C257 C259 1.387 . S
H258 C265 0.950 . S
C259 C257 1.387 . S
C259 C261 1.390 . S
C259 H263 0.950 . S
H260 C256 0.950 . S
C261 C259 1.390 . S
C261 C262 1.387 . S
C261 H264 0.950 . S
C262 C261 1.387 . S
C262 C265 1.387 . S
H263 C259 0.950 . S
H264 C261 0.950 . S
C265 C256 1.390 . S
C265 H258 0.950 . S
C265 C262 1.387 . S
C266 C267 1.387 . S
C266 H270 0.950 . S
C266 C275 1.390 . S
C267 C266 1.387 . S
C267 C269 1.387 . S
H268 C275 0.950 . S
C269 C267 1.387 . S
C269 C271 1.390 . S
C269 H273 0.950 . S
H270 C266 0.950 . S
C271 C269 1.390 . S
C271 C272 1.387 . S
C271 H274 0.950 . S
C272 C271 1.387 . S
C272 C275 1.387 . S
H273 C269 0.950 . S
H274 C271 0.950 . S
C275 C266 1.390 . S
C275 H268 0.950 . S
C275 C272 1.387 . S
C276 C277 1.387 . S
C276 H280 0.950 1_556 S
C276 C285 1.390 . S
C277 C276 1.387 . S
C277 C279 1.387 . S
H278 C285 0.950 . S
C279 C277 1.387 . S
C279 C281 1.390 . S
C279 H283 0.950 . S
H280 C276 0.950 1_554 S
C281 C279 1.390 . S
C281 C282 1.387 . S
C281 H284 0.950 . S
C282 C281 1.387 . S
C282 C285 1.387 . S
H283 C279 0.950 . S
H284 C281 0.950 . S
C285 C276 1.390 . S
C285 H278 0.950 . S
C285 C282 1.387 . S
C286 C287 1.387 . S
C286 H290 0.950 . S
C286 C295 1.390 . S
C287 C286 1.387 . S
C287 C289 1.387 . S
H288 C295 0.950 . S
C289 C287 1.387 . S
C289 C291 1.390 . S
C289 H293 0.950 . S
H290 C286 0.950 . S
C291 C289 1.390 . S
C291 C292 1.387 . S
C291 H294 0.950 . S
C292 C291 1.387 . S
C292 C295 1.387 . S
H293 C289 0.950 . S
H294 C291 0.950 . S
C295 C286 1.390 . S
C295 H288 0.950 . S
C295 C292 1.387 . S
C296 C297 1.387 . S
C296 H300 0.950 1_556 S
C296 C305 1.390 1_565 S
C297 C296 1.387 . S
C297 C299 1.387 . S
H298 C305 0.950 . S
C299 C297 1.387 . S
C299 C301 1.390 . S
C299 H303 0.950 . S
H300 C296 0.950 1_554 S
C301 C299 1.390 . S
C301 C302 1.387 1_565 S
C301 H304 0.951 . S
C302 C301 1.387 1_545 S
C302 C305 1.387 . S
H303 C299 0.950 . S
H304 C301 0.951 . S
C305 C296 1.390 1_545 S
C305 H298 0.950 . S
C305 C302 1.387 . S
C306 C307 1.387 . S
C306 H310 0.950 . S
C306 C315 1.390 . S
C307 C306 1.387 . S
C307 C309 1.387 . S
H308 C315 0.949 1_565 S
C309 C307 1.387 . S
C309 C311 1.390 1_545 S
C309 H313 0.950 . S
H310 C306 0.950 . S
C311 C309 1.390 1_565 S
C311 C312 1.387 . S
C311 H314 0.950 . S
C312 C311 1.387 . S
C312 C315 1.387 1_565 S
H313 C309 0.950 . S
H314 C311 0.950 . S
C315 C306 1.390 . S
C315 H308 0.949 1_545 S
C315 C312 1.387 1_545 S
C316 C317 1.387 . S
C316 H320 0.950 1_556 S
C316 C325 1.390 1_565 S
C317 C316 1.387 . S
C317 C319 1.387 . S
H318 C325 0.950 . S
C319 C317 1.387 . S
C319 C321 1.390 1_565 S
C319 H323 0.950 . S
H320 C316 0.950 1_554 S
C321 C319 1.390 1_545 S
C321 C322 1.387 . S
C321 H324 0.950 . S
C322 C321 1.387 . S
C322 C325 1.387 . S
H323 C319 0.950 . S
H324 C321 0.950 . S
C325 C316 1.390 1_545 S
C325 H318 0.950 . S
C325 C322 1.387 . S
C326 C327 1.387 1_565 S
C326 H330 0.950 . S
C326 C335 1.390 . S
C327 C326 1.387 1_545 S
C327 C329 1.387 . S
H328 C335 0.950 . S
C329 C327 1.387 . S
C329 C331 1.390 . S
C329 H333 0.950 . S
H330 C326 0.950 . S
C331 C329 1.390 . S
C331 C332 1.387 1_545 S
C331 H334 0.950 . S
C332 C331 1.387 1_565 S
C332 C335 1.387 . S
H333 C329 0.950 . S
H334 C331 0.950 . S
C335 C326 1.390 . S
C335 H328 0.950 . S
C335 C332 1.387 . S
C336 C337 1.387 . S
C336 H340 0.950 . S
C336 C345 1.390 . S
C337 C336 1.387 . S
C337 C339 1.387 . S
H338 C345 0.950 . S
C339 C337 1.387 . S
C339 C341 1.390 . S
C339 H343 0.950 . S
H340 C336 0.950 . S
C341 C339 1.390 . S
C341 C342 1.387 . S
C341 H344 0.950 . S
C342 C341 1.387 . S
C342 C345 1.387 . S
H343 C339 0.950 . S
H344 C341 0.950 . S
C345 C336 1.390 . S
C345 H338 0.950 . S
C345 C342 1.387 . S
C346 C347 1.387 . S
C346 H350 0.950 . S
C346 C355 1.390 . S
C347 C346 1.387 . S
C347 C349 1.387 . S
H348 C355 0.950 . S
C349 C347 1.387 . S
C349 C351 1.390 . S
C349 H353 0.950 . S
H350 C346 0.950 . S
C351 C349 1.390 . S
C351 C352 1.387 . S
C351 H354 0.950 . S
C352 C351 1.387 . S
C352 C355 1.387 . S
H353 C349 0.950 . S
H354 C351 0.950 . S
C355 C346 1.390 . S
C355 H348 0.950 . S
C355 C352 1.387 . S
C356 C357 1.387 . S
C356 H360 0.950 . S
C356 C365 1.390 . S
C357 C356 1.387 . S
C357 C359 1.387 . S
H358 C365 0.950 . S
C359 C357 1.387 . S
C359 C361 1.390 . S
C359 H363 0.950 . S
H360 C356 0.950 . S
C361 C359 1.390 . S
C361 C362 1.387 . S
C361 H364 0.950 . S
C362 C361 1.387 . S
C362 C365 1.387 . S
H363 C359 0.950 . S
H364 C361 0.950 . S
C365 C356 1.390 . S
C365 H358 0.950 . S
C365 C362 1.387 . S
C366 C367 1.387 . S
C366 H370 0.950 . S
C366 C375 1.390 . S
C367 C366 1.387 . S
C367 C369 1.387 . S
H368 C375 0.950 . S
C369 C367 1.387 . S
C369 C371 1.390 . S
C369 H373 0.950 . S
H370 C366 0.950 . S
C371 C369 1.390 . S
C371 C372 1.387 . S
C371 H374 0.950 . S
C372 C371 1.387 . S
C372 C375 1.387 . S
H373 C369 0.950 . S
H374 C371 0.950 . S
C375 C366 1.390 . S
C375 H368 0.950 . S
C375 C372 1.387 . S
C376 C377 1.387 . S
C376 H380 0.950 . S
C376 C385 1.390 . S
C377 C376 1.387 . S
C377 C379 1.387 . S
H378 C385 0.950 . S
C379 C377 1.387 . S
C379 C381 1.390 . S
C379 H383 0.950 . S
H380 C376 0.950 . S
C381 C379 1.390 . S
C381 C382 1.387 . S
C381 H384 0.950 . S
C382 C381 1.387 . S
C382 C385 1.387 . S
H383 C379 0.950 . S
H384 C381 0.950 . S
C385 C376 1.390 . S
C385 H378 0.950 . S
C385 C382 1.387 . S
C386 C387 1.387 . S
C386 H390 0.950 . S
C386 C395 1.390 . S
C387 C386 1.387 . S
C387 C389 1.387 . S
H388 C395 0.950 . S
C389 C387 1.387 . S
C389 C391 1.390 . S
C389 H393 0.950 . S
H390 C386 0.950 . S
C391 C389 1.390 . S
C391 C392 1.387 . S
C391 H394 0.950 . S
C392 C391 1.387 . S
C392 C395 1.387 . S
H393 C389 0.950 . S
H394 C391 0.950 . S
C395 C386 1.390 . S
C395 H388 0.950 . S
C395 C392 1.387 . S
C396 C397 1.387 . S
C396 H400 0.950 . S
C396 C405 1.390 . S
C397 C396 1.387 . S
C397 C399 1.387 . S
H398 C405 0.950 . S
C399 C397 1.387 . S
C399 C401 1.390 . S
C399 H403 0.950 . S
H400 C396 0.950 . S
C401 C399 1.390 . S
C401 C402 1.387 . S
C401 H404 0.950 . S
C402 C401 1.387 . S
C402 C405 1.387 . S
H403 C399 0.950 . S
H404 C401 0.950 . S
C405 C396 1.390 . S
C405 H398 0.950 . S
C405 C402 1.387 . S
C406 C407 1.387 . S
C406 H410 0.950 . S
C406 C415 1.390 . S
C407 C406 1.387 . S
C407 C409 1.387 . S
H408 C415 0.950 . S
C409 C407 1.387 . S
C409 C411 1.390 . S
C409 H413 0.950 . S
H410 C406 0.950 . S
C411 C409 1.390 . S
C411 C412 1.387 . S
C411 H414 0.950 . S
C412 C411 1.387 . S
C412 C415 1.387 . S
H413 C409 0.950 . S
H414 C411 0.950 . S
C415 C406 1.390 . S
C415 H408 0.950 . S
C415 C412 1.387 . S
C177 C10 1.534 . S
C182 C114 1.510 . S
C192 C92 1.511 . S
C187 C21 1.534 . S
C202 C118 1.564 . S
C197 C32 1.585 . S
C212 C96 1.468 . S
C207 C43 1.496 . S
C222 C158 1.508 . S
C217 C54 1.533 . S
C232 C136 1.513 . S
C227 C65 1.536 . S
C237 C76 1.586 . S
C242 C162 1.566 . S
C252 C140 1.469 . S
C247 C87 1.496 . S
C257 C5 1.501 . S
C262 C163 1.533 . S
C272 C141 1.508 . S
C267 C16 1.479 . S
C277 C27 1.548 . S
C282 C160 1.581 . S
C287 C37 1.439 . S
C292 C138 1.452 . S
C302 C119 1.531 . S
C297 C49 1.504 . S
C307 C60 1.480 . S
C312 C97 1.508 . S
C322 C116 1.581 . S
C317 C71 1.548 . S
C332 C94 1.453 . S
C327 C81 1.437 . S
C342 C137 1.491 . S
C337 C4 1.488 . S
C352 C159 1.493 . S
C347 C15 1.483 . S
C357 C26 1.499 . S
C362 C139 1.489 . S
C372 C161 1.495 . S
C367 C38 1.471 . S
C382 C93 1.492 . S
C377 C48 1.487 . S
C387 C59 1.483 . S
C392 C115 1.493 . S
C397 C70 1.498 . S
C402 C95 1.491 . S
C407 C82 1.473 . S
C412 C117 1.493 . S
