# Generated by pormake.
# Topology nom, (4,4)-cn, num edge types: 1
# Building blocks:
#     Node 0, Type 0, BuildingBlock: KUFVIS_clean_linker_0, # of connection points: 4
#     Node 1, Type 0, BuildingBlock: KUFVIS_clean_linker_0, # of connection points: 4
#     Node 2, Type 0, BuildingBlock: KUFVIS_clean_linker_0, # of connection points: 4
#     Node 3, Type 0, BuildingBlock: KUFVIS_clean_linker_0, # of connection points: 4
#     Node 4, Type 0, BuildingBlock: KUFVIS_clean_linker_0, # of connection points: 4
#     Node 5, Type 0, BuildingBlock: KUFVIS_clean_linker_0, # of connection points: 4
#     Node 6, Type 1, BuildingBlock: AZAVOO_clean_sbu_0, # of connection points: 4
#     Node 7, Type 1, BuildingBlock: AZAVOO_clean_sbu_0, # of connection points: 4
#     Node 8, Type 1, BuildingBlock: AZAVOO_clean_sbu_0, # of connection points: 4
#     Node 9, Type 1, BuildingBlock: AZAVOO_clean_sbu_0, # of connection points: 4
#     Node 10, Type 1, BuildingBlock: AZAVOO_clean_sbu_0, # of connection points: 4
#     Node 11, Type 1, BuildingBlock: AZAVOO_clean_sbu_0, # of connection points: 4
#     Edge 12, Type (0, 1), BuildingBlock: XIVTED_clean_linker_0, # of connection points: 2
#     Edge 13, Type (0, 1), BuildingBlock: XIVTED_clean_linker_0, # of connection points: 2
#     Edge 14, Type (0, 1), BuildingBlock: XIVTED_clean_linker_0, # of connection points: 2
#     Edge 15, Type (0, 1), BuildingBlock: XIVTED_clean_linker_0, # of connection points: 2
#     Edge 16, Type (0, 1), BuildingBlock: XIVTED_clean_linker_0, # of connection points: 2
#     Edge 17, Type (0, 1), BuildingBlock: XIVTED_clean_linker_0, # of connection points: 2
#     Edge 18, Type (0, 1), BuildingBlock: XIVTED_clean_linker_0, # of connection points: 2
#     Edge 19, Type (0, 1), BuildingBlock: XIVTED_clean_linker_0, # of connection points: 2
#     Edge 20, Type (0, 1), BuildingBlock: XIVTED_clean_linker_0, # of connection points: 2
#     Edge 21, Type (0, 1), BuildingBlock: XIVTED_clean_linker_0, # of connection points: 2
#     Edge 22, Type (0, 1), BuildingBlock: XIVTED_clean_linker_0, # of connection points: 2
#     Edge 23, Type (0, 1), BuildingBlock: XIVTED_clean_linker_0, # of connection points: 2
#     Edge 24, Type (0, 1), BuildingBlock: XIVTED_clean_linker_0, # of connection points: 2
#     Edge 25, Type (0, 1), BuildingBlock: XIVTED_clean_linker_0, # of connection points: 2
#     Edge 26, Type (0, 1), BuildingBlock: XIVTED_clean_linker_0, # of connection points: 2
#     Edge 27, Type (0, 1), BuildingBlock: XIVTED_clean_linker_0, # of connection points: 2
#     Edge 28, Type (0, 1), BuildingBlock: XIVTED_clean_linker_0, # of connection points: 2
#     Edge 29, Type (0, 1), BuildingBlock: XIVTED_clean_linker_0, # of connection points: 2
#     Edge 30, Type (0, 1), BuildingBlock: XIVTED_clean_linker_0, # of connection points: 2
#     Edge 31, Type (0, 1), BuildingBlock: XIVTED_clean_linker_0, # of connection points: 2
#     Edge 32, Type (0, 1), BuildingBlock: XIVTED_clean_linker_0, # of connection points: 2
#     Edge 33, Type (0, 1), BuildingBlock: XIVTED_clean_linker_0, # of connection points: 2
#     Edge 34, Type (0, 1), BuildingBlock: XIVTED_clean_linker_0, # of connection points: 2
#     Edge 35, Type (0, 1), BuildingBlock: XIVTED_clean_linker_0, # of connection points: 2
# Relax obj value: 0.031
# Max RMSD: 0.159
# Mean RMSD: 0.094
data_MOF--net-nom--node1-AZAVOO_clean_sbu_0--node2-KUFVIS_clean_linker_0--edge1-XIVTED_clean_linker_0
_symmetry_space_group_name_H-M    P1
_symmetry_Int_Tables_number       1
_symmetry_cell_setting            triclinic
loop_
_symmetry_equiv_pos_as_xyz
'x, y, z'
_cell_length_a     45.777776
_cell_length_b     46.401103
_cell_length_c     46.592557
_cell_angle_alpha  91.985641
_cell_angle_beta   91.999296
_cell_angle_gamma 120.10145
loop_
_atom_site_label
_atom_site_type_symbol
_atom_site_fract_x
_atom_site_fract_y
_atom_site_fract_z
_atom_type_partial_charge
H0 H 0.13264 0.59187 0.33551 0.0
H1 H 0.05069 0.55925 0.27241 0.0
H2 H 0.03171 0.53054 0.36065 0.0
H3 H 0.98257 0.5262 0.35101 0.0
H4 H 0.90076 0.4734 0.28788 0.0
H5 H 1.00203 0.51462 0.26193 0.0
C6 C 0.10563 0.57801 0.3299 0.0
C7 C 0.08322 0.56268 0.35131 0.0
C8 C 0.09398 0.57578 0.3014 0.0
C9 C 0.05903 0.559 0.29433 0.0
C10 C 0.03551 0.54201 0.31538 0.0
C11 C 0.04838 0.54365 0.34392 0.0
C12 C 0.99796 0.52279 0.3077 0.0
C13 C 0.97435 0.51654 0.32898 0.0
C14 C 0.93947 0.49783 0.32185 0.0
C15 C 0.92781 0.48708 0.2933 0.0
C16 C 0.95028 0.49426 0.27158 0.0
C17 C 0.9852 0.51083 0.27892 0.0
H18 H 0.55661 0.12934 0.49447 0.0
H19 H 0.50641 0.05088 0.42887 0.0
H20 H 0.51726 0.02872 0.51719 0.0
H21 H 0.47451 0.97984 0.50583 0.0
H22 H 0.44261 0.90204 0.43997 0.0
H23 H 0.50087 1.00305 0.41743 0.0
C24 C 0.54343 0.10289 0.48807 0.0
C25 C 0.53655 0.07989 0.50899 0.0
C26 C 0.53373 0.09255 0.45913 0.0
C27 C 0.51529 0.05823 0.45115 0.0
C28 C 0.50891 0.0341 0.4717 0.0
C29 C 0.52058 0.04575 0.50071 0.0
C30 C 0.49041 0.99721 0.46296 0.0
C31 C 0.47452 0.97281 0.48349 0.0
C32 C 0.45859 0.9386 0.47535 0.0
C33 C 0.45588 0.92848 0.44639 0.0
C34 C 0.47009 0.95168 0.42554 0.0
C35 C 0.48848 0.98583 0.43389 0.0
H36 H 0.54968 0.42088 0.58404 0.0
H37 H 0.52062 0.46839 0.64822 0.0
H38 H 0.53019 0.49832 0.5605 0.0
H39 H 0.48753 0.50754 0.57269 0.0
H40 H 0.49105 0.57986 0.63453 0.0
H41 H 0.53725 0.52264 0.65719 0.0
C42 C 0.54153 0.43847 0.58981 0.0
C43 C 0.53923 0.45815 0.56879 0.0
C44 C 0.53533 0.44236 0.61846 0.0
C45 C 0.52623 0.46622 0.62614 0.0
C46 C 0.52391 0.48662 0.60536 0.0
C47 C 0.53092 0.4825 0.57672 0.0
C48 C 0.51477 0.51249 0.61345 0.0
C49 C 0.49643 0.52079 0.5936 0.0
C50 C 0.48872 0.54575 0.60084 0.0
C51 C 0.49866 0.56193 0.62829 0.0
C52 C 0.5152 0.55294 0.64878 0.0
C53 C 0.52373 0.5287 0.64123 0.0
H54 H 0.13846 0.57737 0.77936 0.0
H55 H 0.06685 0.52431 0.84208 0.0
H56 H 0.03276 0.53392 0.75688 0.0
H57 H 0.98767 0.48309 0.76774 0.0
H58 H 0.91588 0.4724 0.82931 0.0
H59 H 0.02181 0.53219 0.85288 0.0
C60 C 0.1125 0.56384 0.78558 0.0
C61 C 0.08624 0.55648 0.76523 0.0
C62 C 0.10571 0.55237 0.81326 0.0
C63 C 0.07198 0.53366 0.82076 0.0
C64 C 0.04512 0.52724 0.80074 0.0
C65 C 0.0527 0.53848 0.77276 0.0
C66 C 1.00939 0.51022 0.80908 0.0
C67 C 0.98251 0.48916 0.78893 0.0
C68 C 0.94875 0.47608 0.79593 0.0
C69 C 0.9419 0.48333 0.82343 0.0
C70 C 0.96815 0.5028 0.84406 0.0
C71 C 1.00178 0.51632 0.8369 0.0
H72 H 0.47556 0.91133 0.00283 0.0
H73 H 0.52905 0.98036 0.93872 0.0
H74 H 0.50866 0.0148 0.01894 0.0
H75 H 0.5616 0.06076 0.00937 0.0
H76 H 0.57081 0.12673 0.94351 0.0
H77 H 0.51623 0.02112 0.92366 0.0
C78 C 0.48855 0.93657 -0.00431 0.0
C79 C 0.49117 0.96253 0.01372 0.0
C80 C 0.50226 0.94269 0.96867 0.0
C81 C 0.51828 0.97548 0.95956 0.0
C82 C 0.521 1.00197 -0.02238 0.0
C83 C 0.50748 0.99511 0.00487 0.0
C84 C 0.53648 0.03653 0.96787 0.0
C85 C 0.55586 0.06434 -0.01253 0.0
C86 C 0.56774 0.0969 -0.02108 0.0
C87 C 0.56077 0.1016 0.95055 0.0
C88 C 0.5429 0.07442 0.9306 0.0
C89 C 0.53073 0.04196 0.9392 0.0
H90 H 0.47445 0.59621 0.0987 0.0
H91 H 0.50757 0.55197 0.16145 0.0
H92 H 0.50604 0.52751 0.07067 0.0
H93 H 0.55006 0.52072 0.08738 0.0
H94 H 0.54726 0.44818 0.14357 0.0
H95 H 0.4923 0.49758 0.16344 0.0
C96 C 0.48428 0.57987 0.10364 0.0
C97 C 0.49094 0.56344 0.08129 0.0
C98 C 0.48977 0.57533 0.13238 0.0
C99 C 0.50253 0.55438 0.13905 0.0
C100 C 0.50815 0.53637 0.11695 0.0
C101 C 0.50217 0.54115 0.08802 0.0
C102 C 0.51914 0.51191 0.12407 0.0
C103 C 0.54047 0.50642 0.10615 0.0
C104 C 0.54994 0.48273 0.11267 0.0
C105 C 0.53853 0.46508 0.13746 0.0
C106 C 0.51838 0.47086 0.15591 0.0
C107 C 0.50842 0.49391 0.1491 0.0
Mg108 Mg 0.63096 0.37026 0.33697 0.0
O109 O 0.61859 0.39372 0.37569 0.0
O110 O 0.63654 0.44699 0.36667 0.0
Mg111 Mg 0.66052 0.45787 0.32355 0.0
C112 C 0.62234 0.42237 0.38267 0.0
C113 C 0.59597 0.29601 0.35114 0.0
O114 O 0.57823 0.2948 0.32789 0.0
O115 O 0.68699 0.39778 0.3525 0.0
O116 O 0.70296 0.45019 0.34244 0.0
O117 O 0.58103 0.35615 0.31538 0.0
O118 O 0.62766 0.4045 0.31116 0.0
C119 C 0.70963 0.42856 0.35209 0.0
C120 C 0.59541 0.38584 0.30606 0.0
O121 O 0.62019 0.32416 0.36115 0.0
Mg122 Mg 0.28624 0.64945 0.57832 0.0
O123 O 0.24759 0.62499 0.53926 0.0
O124 O 0.21491 0.57104 0.54774 0.0
Mg125 Mg 0.23229 0.56069 0.59048 0.0
C126 C 0.22284 0.59568 0.5321 0.0
C127 C 0.32242 0.72416 0.56772 0.0
O128 O 0.30693 0.72238 0.59136 0.0
O129 O 0.31666 0.6257 0.56282 0.0
O130 O 0.28309 0.57244 0.57252 0.0
O131 O 0.24983 0.65976 0.6 0.0
O132 O 0.2516 0.61333 0.60394 0.0
C133 C 0.31052 0.59566 0.56333 0.0
C134 C 0.23679 0.63016 0.60939 0.0
O135 O 0.31876 0.6974 0.55562 0.0
Mg136 Mg 0.64317 0.26837 0.74394 0.0
O137 O 0.63142 0.2322 0.70456 0.0
O138 O 0.65381 0.20018 0.71417 0.0
Mg139 Mg 0.67989 0.21594 0.7592 0.0
C140 C 0.63696 0.20856 0.6975 0.0
C141 C 0.62615 0.32353 0.7315 0.0
O142 O 0.63728 0.33131 0.75863 0.0
O143 O 0.69822 0.30008 0.73301 0.0
O144 O 0.71945 0.26777 0.74504 0.0
O145 O 0.59561 0.23107 0.76197 0.0
O146 O 0.64482 0.23365 0.77012 0.0
C147 C 0.72312 0.29506 0.73608 0.0
C148 C 0.61262 0.21833 0.77303 0.0
O149 O 0.62674 0.2993 0.71846 0.0
Mg150 Mg 0.41546 0.655 0.84371 0.0
O151 O 0.42673 0.63063 0.88158 0.0
O152 O 0.40414 0.5764 0.86857 0.0
Mg153 Mg 0.37913 0.56615 0.82334 0.0
C154 C 0.42056 0.60124 0.88676 0.0
C155 C 0.43392 0.72742 0.85778 0.0
O156 O 0.42718 0.72358 0.8298 0.0
O157 O 0.36028 0.63146 0.85507 0.0
O158 O 0.33932 0.57805 0.8402 0.0
O159 O 0.4633 0.66525 0.82448 0.0
O160 O 0.41437 0.61868 0.81534 0.0
C161 C 0.33556 0.60155 0.85114 0.0
C162 C 0.44645 0.63558 0.81203 0.0
O163 O 0.43072 0.70266 0.87121 0.0
Mg164 Mg 0.76911 0.40459 0.02882 0.0
O165 O 0.80312 0.41504 0.07027 0.0
O166 O 0.8367 0.39409 0.06086 0.0
Mg167 Mg 0.82491 0.37086 0.01506 0.0
C168 C 0.8269 0.40938 0.07777 0.0
C169 C 0.73119 0.44224 0.04357 0.0
O170 O 0.75236 0.46147 0.02505 0.0
O171 O 0.73744 0.34943 0.03765 0.0
O172 O 0.77196 0.33019 0.02677 0.0
O173 O 0.80763 0.45294 0.01262 0.0
O174 O 0.80693 0.40539 0.00469 0.0
C175 C 0.74349 0.32549 0.03465 0.0
C176 C 0.8218 0.43715 0.00209 0.0
O177 O 0.73252 0.41681 0.0512 0.0
Mg178 Mg 0.37774 0.76192 0.19084 0.0
O179 O 0.40256 0.79684 0.23171 0.0
O180 O 0.45721 0.8302 0.22368 0.0
Mg181 Mg 0.46759 0.81688 0.17923 0.0
C182 C 0.43223 0.82086 0.2396 0.0
C183 C 0.3021 0.72388 0.20266 0.0
O184 O 0.30269 0.74108 0.18067 0.0
O185 O 0.40223 0.73102 0.2023 0.0
O186 O 0.45604 0.76525 0.19281 0.0
O187 O 0.36663 0.79931 0.1728 0.0
O188 O 0.41406 0.79868 0.16699 0.0
C189 C 0.43264 0.73728 0.20066 0.0
C190 C 0.39676 0.81342 0.16353 0.0
O191 O 0.3298 0.72724 0.21308 0.0
H192 H 0.14499 0.56416 0.29061 0.0
H193 H 0.24026 0.71829 0.19153 0.0
H194 H 0.10163 0.62346 0.2641 0.0
H195 H 0.28939 0.67511 0.23993 0.0
H196 H 0.18632 0.67836 0.21066 0.0
H197 H 0.19427 0.59799 0.26333 0.0
C198 C 0.14566 0.584 0.27852 0.0
C199 C 0.11947 0.59132 0.27974 0.0
C200 C 0.20892 0.67763 0.21699 0.0
C201 C 0.176 0.63049 0.24887 0.0
C202 C 0.23972 0.70039 0.20614 0.0
C203 C 0.26944 0.70014 0.21429 0.0
C204 C 0.20777 0.65421 0.23584 0.0
C205 C 0.2672 0.67638 0.23323 0.0
C206 C 0.17386 0.60344 0.26315 0.0
C207 C 0.12135 0.61708 0.26361 0.0
N208 N 0.23691 0.65436 0.2433 0.0
N209 N 0.14944 0.63609 0.24903 0.0
H210 H 0.49396 0.09791 0.41622 0.0
H211 H 0.63278 0.28735 0.3941 0.0
H212 H 0.59592 0.14667 0.45425 0.0
H213 H 0.54067 0.23368 0.33995 0.0
H214 H 0.6187 0.23567 0.41684 0.0
H215 H 0.50985 0.14644 0.38729 0.0
C216 C 0.51978 0.11853 0.41807 0.0
C217 C 0.54355 0.11852 0.43789 0.0
C218 C 0.60161 0.23512 0.39988 0.0
C219 C 0.5617 0.17411 0.40548 0.0
C220 C 0.60958 0.2647 0.38699 0.0
C221 C 0.58785 0.26489 0.36514 0.0
C222 C 0.57148 0.2055 0.39111 0.0
C223 C 0.55818 0.23469 0.35673 0.0
C224 C 0.5288 0.14629 0.40175 0.0
C225 C 0.57665 0.14595 0.43959 0.0
N226 N 0.55075 0.20626 0.36984 0.0
N227 N 0.58462 0.17272 0.4239 0.0
H228 H 0.50006 0.60633 0.58462 0.0
H229 H 0.304 0.53411 0.55355 0.0
H230 H 0.4268 0.50123 0.57497 0.0
H231 H 0.37811 0.63925 0.55749 0.0
H232 H 0.34952 0.52138 0.55155 0.0
H233 H 0.45762 0.61858 0.56472 0.0
C234 C 0.47522 0.58581 0.57756 0.0
C235 C 0.46674 0.55275 0.58172 0.0
C236 C 0.35586 0.54725 0.55236 0.0
C237 C 0.41777 0.56652 0.55958 0.0
C238 C 0.32984 0.55457 0.55354 0.0
C239 C 0.33724 0.58784 0.5563 0.0
C240 C 0.38965 0.57336 0.55433 0.0
C241 C 0.37118 0.61323 0.55571 0.0
C242 C 0.45095 0.59278 0.5663 0.0
C243 C 0.43433 0.52705 0.57213 0.0
N244 N 0.39616 0.60547 0.55534 0.0
N245 N 0.41078 0.5345 0.56205 0.0
H246 H 0.93763 0.41854 0.7675 0.0
H247 H 0.74385 0.36104 0.72926 0.0
H248 H 0.89414 0.48145 0.77916 0.0
H249 H 0.78207 0.29315 0.73627 0.0
H250 H 0.80191 0.40788 0.73416 0.0
H251 H 0.88423 0.37549 0.74287 0.0
C252 C 0.91713 0.4236 0.76414 0.0
C253 C 0.92002 0.45331 0.7756 0.0
C254 C 0.79759 0.38269 0.73416 0.0
C255 C 0.859 0.40432 0.74787 0.0
C256 C 0.76441 0.35588 0.73123 0.0
C257 C 0.75795 0.32305 0.73294 0.0
C258 C 0.82451 0.37667 0.73875 0.0
C259 C 0.78576 0.31803 0.73534 0.0
C260 C 0.88662 0.39899 0.75031 0.0
C261 C 0.89269 0.45863 0.7709 0.0
N262 N 0.81777 0.34455 0.73857 0.0
N263 N 0.8632 0.43423 0.75769 0.0
H264 H 0.5142 0.89334 -0.01537 0.0
H265 H 0.43887 0.78366 0.83595 0.0
H266 H 0.48179 0.92674 0.91128 0.0
H267 H 0.45716 0.74652 0.91421 0.0
H268 H 0.45976 0.83812 0.86125 0.0
H269 H 0.49992 0.84196 0.95686 0.0
C270 C 0.5043 0.88993 0.96254 0.0
C271 C 0.49876 0.91416 0.95034 0.0
C272 C 0.45924 0.81807 0.87286 0.0
C273 C 0.48222 0.85522 0.91837 0.0
C274 C 0.44728 0.78693 0.85846 0.0
C275 C 0.44612 0.76038 0.87301 0.0
C276 C 0.47034 0.82283 0.90201 0.0
C277 C 0.45742 0.76616 0.90214 0.0
C278 C 0.4961 0.86056 0.94671 0.0
C279 C 0.48649 0.90872 0.92148 0.0
N280 N 0.46905 0.79672 0.91565 0.0
N281 N 0.47831 0.87965 0.90653 0.0
H282 H 0.60993 0.53003 0.09198 0.0
H283 H 0.67369 0.40003 0.07006 0.0
H284 H 0.5451 0.4236 0.09543 0.0
H285 H 0.72707 0.49868 0.03818 0.0
H286 H 0.62788 0.40987 0.08262 0.0
H287 H 0.65405 0.52053 0.07316 0.0
C288 C 0.60469 0.50467 0.08815 0.0
C289 C 0.57395 0.47758 0.09558 0.0
C290 C 0.6496 0.42936 0.07283 0.0
C291 C 0.62449 0.46662 0.07497 0.0
C292 C 0.6759 0.42385 0.06589 0.0
C293 C 0.70427 0.44857 0.05308 0.0
C294 C 0.65183 0.45996 0.06727 0.0
C295 C 0.70562 0.47889 0.04799 0.0
C296 C 0.62997 0.49928 0.0777 0.0
C297 C 0.56866 0.44524 0.09046 0.0
N298 N 0.67984 0.48381 0.05522 0.0
N299 N 0.59381 0.4407 0.0809 0.0
H300 H 0.41123 0.92723 0.51494 0.0
H301 H 0.36905 0.73968 0.52703 0.0
H302 H 0.47313 0.88934 0.48206 0.0
H303 H 0.32643 0.78369 0.58246 0.0
H304 H 0.40612 0.7946 0.5092 0.0
H305 H 0.37967 0.87579 0.54054 0.0
C306 C 0.41869 0.90847 0.51376 0.0
C307 C 0.44454 0.91226 0.49625 0.0
C308 C 0.38877 0.79229 0.52538 0.0
C309 C 0.40827 0.85339 0.52456 0.0
C310 C 0.36743 0.76087 0.53539 0.0
C311 C 0.34457 0.75707 0.5562 0.0
C312 C 0.38696 0.82009 0.53594 0.0
C313 C 0.34372 0.7855 0.56641 0.0
C314 C 0.40055 0.87905 0.5281 0.0
C315 C 0.45308 0.88713 0.49514 0.0
N316 N 0.36444 0.81579 0.55604 0.0
N317 N 0.43471 0.85861 0.50871 0.0
H318 H 0.51185 0.37544 0.61508 0.0
H319 H 0.62779 0.38109 0.75014 0.0
H320 H 0.57207 0.46433 0.67031 0.0
H321 H 0.58886 0.30547 0.68019 0.0
H322 H 0.60058 0.40857 0.72623 0.0
H323 H 0.53125 0.3454 0.64494 0.0
C324 C 0.52876 0.38846 0.63383 0.0
C325 C 0.54075 0.42251 0.64004 0.0
C326 C 0.598 0.38594 0.7162 0.0
C327 C 0.56336 0.38839 0.67414 0.0
C328 C 0.61355 0.37027 0.72977 0.0
C329 C 0.61077 0.34104 0.71704 0.0
C330 C 0.57921 0.37202 0.68993 0.0
C331 C 0.59193 0.32808 0.69069 0.0
C332 C 0.53997 0.37137 0.65075 0.0
C333 C 0.56224 0.43809 0.6648 0.0
N334 N 0.57684 0.34362 0.67806 0.0
N335 N 0.57324 0.42099 0.6808 0.0
H336 H 0.11958 0.50673 0.83577 0.0
H337 H 0.31414 0.64582 0.8648 0.0
H338 H 0.15843 0.61247 0.83326 0.0
H339 H 0.27764 0.54042 0.85065 0.0
H340 H 0.25568 0.63341 0.86665 0.0
H341 H 0.17523 0.51828 0.85515 0.0
C342 C 0.13952 0.53237 0.84034 0.0
C343 C 0.13466 0.55872 0.83288 0.0
C344 C 0.26051 0.61297 0.86357 0.0
C345 C 0.19832 0.57216 0.85425 0.0
C346 C 0.29393 0.62003 0.86255 0.0
C347 C 0.30088 0.5942 0.85697 0.0
C348 C 0.23382 0.57985 0.85903 0.0
C349 C 0.27354 0.56123 0.85447 0.0
C350 C 0.17135 0.53899 0.85107 0.0
C351 C 0.16136 0.59153 0.83873 0.0
N352 N 0.24125 0.55505 0.85516 0.0
N353 N 0.19219 0.59733 0.84868 0.0
H354 H 0.62612 0.11203 0.00975 0.0
H355 H 0.6756 0.30252 0.03824 0.0
H356 H 0.559 0.14983 -0.00862 0.0
H357 H 0.74807 0.26889 0.03675 0.0
H358 H 0.62982 0.24434 0.034 0.0
H359 H 0.66764 0.16672 0.0327 0.0
C360 C 0.61979 0.13159 0.0113 0.0
C361 C 0.58935 0.12666 -0.00155 0.0
C362 C 0.65577 0.24972 0.03503 0.0
C363 C 0.63662 0.18914 0.02421 0.0
C364 C 0.68195 0.28296 0.03756 0.0
C365 C 0.71579 0.29069 0.03731 0.0
C366 C 0.66344 0.22402 0.03236 0.0
C367 C 0.72238 0.26418 0.03653 0.0
C368 C 0.64354 0.16283 0.02415 0.0
C369 C 0.58241 0.15284 0.00079 0.0
N370 N 0.69646 0.23206 0.03374 0.0
N371 N 0.60601 0.18307 0.01309 0.0
H372 H 0.53325 0.62799 0.16904 0.0
H373 H 0.3882 0.6699 0.20144 0.0
H374 H 0.4274 0.56289 0.14525 0.0
H375 H 0.49493 0.74265 0.20674 0.0
H376 H 0.40194 0.62556 0.19542 0.0
H377 H 0.51906 0.6647 0.19707 0.0
C378 C 0.50696 0.62097 0.17055 0.0
C379 C 0.4814 0.59265 0.1549 0.0
C380 C 0.42235 0.6512 0.19845 0.0
C381 C 0.465 0.6344 0.18624 0.0
C382 C 0.41454 0.67655 0.20203 0.0
C383 C 0.44043 0.71013 0.2039 0.0
C384 C 0.45627 0.6595 0.19682 0.0
C385 C 0.4741 0.71715 0.20473 0.0
C386 C 0.49886 0.64194 0.18631 0.0
C387 C 0.44773 0.58465 0.15709 0.0
N388 N 0.48104 0.6921 0.20073 0.0
N389 N 0.44051 0.60564 0.17217 0.0
H390 H 0.89822 0.43783 0.34306 0.0
H391 H 0.76191 0.4924 0.36361 0.0
H392 H 0.92065 0.53978 0.34599 0.0
H393 H 0.73905 0.39003 0.36012 0.0
H394 H 0.82197 0.51085 0.36931 0.0
H395 H 0.8432 0.42103 0.36224 0.0
C396 C 0.89203 0.45684 0.34898 0.0
C397 C 0.91383 0.49019 0.34311 0.0
C398 C 0.80386 0.48434 0.36776 0.0
C399 C 0.8505 0.47113 0.36375 0.0
C400 C 0.76947 0.47374 0.36442 0.0
C401 C 0.74536 0.43957 0.36071 0.0
C402 C 0.81439 0.46066 0.36704 0.0
C403 C 0.75672 0.41662 0.36252 0.0
C404 C 0.86048 0.44724 0.35959 0.0
C405 C 0.90454 0.51387 0.3505 0.0
N406 N 0.79045 0.42759 0.36502 0.0
N407 N 0.87323 0.50379 0.35989 0.0
H408 H 0.12446 0.6212 0.3816 0.0
H409 H 0.17073 0.53639 0.50827 0.0
H410 H 0.07549 0.51471 0.38814 0.0
H411 H 0.22452 0.64226 0.49629 0.0
H412 H 0.13278 0.52795 0.46672 0.0
H413 H 0.15702 0.62935 0.42677 0.0
C414 C 0.12022 0.59953 0.39292 0.0
C415 C 0.09746 0.56724 0.38119 0.0
C416 C 0.15288 0.55301 0.47318 0.0
C417 C 0.13505 0.57629 0.43262 0.0
C418 C 0.1747 0.5579 0.49687 0.0
C419 C 0.20103 0.59015 0.50583 0.0
C420 C 0.15726 0.58053 0.45829 0.0
C421 C 0.20476 0.61696 0.49016 0.0
C422 C 0.13894 0.60417 0.41858 0.0
C423 C 0.09273 0.53999 0.39662 0.0
N424 N 0.1831 0.61154 0.4672 0.0
N425 N 0.11169 0.54511 0.42147 0.0
H426 H 0.57538 0.06852 0.54825 0.0
H427 H 0.59421 0.2141 0.65837 0.0
H428 H 0.52071 0.12119 0.53828 0.0
H429 H 0.6438 0.15726 0.67401 0.0
H430 H 0.56654 0.17924 0.61453 0.0
H431 H 0.59887 0.09835 0.59552 0.0
C432 C 0.56785 0.08586 0.55631 0.0
C433 C 0.54637 0.09269 0.53939 0.0
C434 C 0.58345 0.17433 0.62754 0.0
C435 C 0.57339 0.12719 0.59281 0.0
C436 C 0.59945 0.19441 0.65255 0.0
C437 C 0.62149 0.18874 0.66995 0.0
C438 C 0.58954 0.14837 0.61968 0.0
C439 C 0.62707 0.16264 0.66127 0.0
C440 C 0.58143 0.10308 0.5831 0.0
C441 C 0.53753 0.11555 0.5506 0.0
N442 N 0.61124 0.14346 0.63672 0.0
N443 N 0.55129 0.13216 0.57644 0.0
H444 H 0.54708 0.61784 0.66993 0.0
H445 H 0.42279 0.57055 0.79296 0.0
H446 H 0.48853 0.51676 0.69523 0.0
H447 H 0.50874 0.66984 0.79023 0.0
H448 H 0.44867 0.5501 0.75916 0.0
H449 H 0.53735 0.63787 0.71592 0.0
C450 C 0.53312 0.6 0.68565 0.0
C451 C 0.51849 0.56567 0.67891 0.0
C452 C 0.46216 0.57627 0.76632 0.0
C453 C 0.50621 0.58813 0.7309 0.0
C454 C 0.44726 0.58802 0.78553 0.0
C455 C 0.4634 0.62203 0.7942 0.0
C456 C 0.4931 0.59882 0.75519 0.0
C457 C 0.4953 0.64343 0.78397 0.0
C458 C 0.52742 0.61136 0.7118 0.0
C459 C 0.50033 0.54344 0.69976 0.0
N460 N 0.50883 0.63159 0.76458 0.0
N461 N 0.49401 0.55501 0.7246 0.0
H462 H 0.93317 0.53252 0.86199 0.0
H463 H 0.86575 0.41571 -0.01207 0.0
H464 H 0.98175 0.47932 0.89222 0.0
H465 H 0.8487 0.49862 -0.0196 0.0
H466 H 0.91183 0.44156 0.9558 0.0
H467 H 0.90615 0.5249 0.90772 0.0
C468 C 0.93888 0.52012 0.87872 0.0
C469 C 0.95949 0.50641 0.87357 0.0
C470 C 0.89846 0.45444 0.96162 0.0
C471 C 0.92797 0.49656 0.92526 0.0
C472 C 0.87196 0.43955 -0.02014 0.0
C473 C 0.85296 0.45473 -0.01353 0.0
C474 C 0.90546 0.48432 0.94939 0.0
C475 C 0.86251 0.4859 0.97563 0.0
C476 C 0.92346 0.51569 0.90474 0.0
C477 C 0.96602 0.49028 0.89561 0.0
N478 N 0.88765 0.49936 0.95712 0.0
N479 N 0.94964 0.48509 0.92034 0.0
H480 H 0.52581 0.97643 0.06549 0.0
H481 H 0.36152 0.83902 0.13697 0.0
H482 H 0.42499 0.92937 0.02549 0.0
H483 H 0.46321 0.86003 0.15754 0.0
H484 H 0.38427 0.88693 0.10679 0.0
H485 H 0.50228 0.94923 0.11001 0.0
C486 C 0.49862 0.96132 0.06655 0.0
C487 C 0.47714 0.95476 0.04209 0.0
C488 C 0.40157 0.8813 0.11837 0.0
C489 C 0.45028 0.92344 0.09219 0.0
C490 C 0.38866 0.85403 0.13556 0.0
C491 C 0.4105 0.845 0.1491 0.0
C492 C 0.43652 0.89976 0.11506 0.0
C493 C 0.4454 0.86544 0.1468 0.0
C494 C 0.48525 0.94567 0.09175 0.0
C495 C 0.44218 0.93477 0.0441 0.0
N496 N 0.45734 0.89169 0.12981 0.0
N497 N 0.42977 0.91936 0.06868 0.0
H498 H 0.48681 0.40484 0.16648 0.0
H499 H 0.61014 0.45044 0.30106 0.0
H500 H 0.53928 0.50335 0.20863 0.0
H501 H 0.53438 0.34859 0.27627 0.0
H502 H 0.57948 0.46965 0.27116 0.0
H503 H 0.49639 0.38232 0.2102 0.0
C504 C 0.49918 0.42147 0.18542 0.0
C505 C 0.51256 0.45594 0.18406 0.0
C506 C 0.56922 0.44307 0.27255 0.0
C507 C 0.52484 0.43078 0.23355 0.0
C508 C 0.58702 0.43208 0.28941 0.0
C509 C 0.5753 0.39789 0.29059 0.0
C510 C 0.53982 0.4197 0.25625 0.0
C511 C 0.54453 0.37523 0.27565 0.0
C512 C 0.50488 0.40871 0.21029 0.0
C513 C 0.52862 0.4766 0.20894 0.0
N514 N 0.52818 0.38654 0.25861 0.0
N515 N 0.53514 0.46382 0.2325 0.0
H516 H 0.51839 0.96363 0.387 0.0
H517 H 0.38481 0.81521 0.27699 0.0
H518 H 0.41068 0.90973 0.39585 0.0
H519 H 0.49189 0.872 0.2644 0.0
H520 H 0.39399 0.85078 0.32012 0.0
H521 H 0.50934 0.93301 0.34038 0.0
C522 C 0.49284 0.94591 0.37877 0.0
C523 C 0.46524 0.93896 0.3952 0.0
C524 C 0.4155 0.85547 0.30791 0.0
C525 C 0.45469 0.90344 0.34257 0.0
C526 C 0.41028 0.83498 0.28337 0.0
C527 C 0.43759 0.8405 0.26701 0.0
C528 C 0.44827 0.88167 0.31628 0.0
C529 C 0.47003 0.86673 0.27631 0.0
C530 C 0.48766 0.92819 0.35237 0.0
C531 C 0.43262 0.91553 0.38384 0.0
N532 N 0.47445 0.8863 0.30031 0.0
N533 N 0.42827 0.8984 0.35839 0.0
H534 H 0.57889 0.50646 0.53271 0.0
H535 H 0.58252 0.37507 0.41942 0.0
H536 H 0.51822 0.39967 0.53729 0.0
H537 H 0.63101 0.48078 0.40731 0.0
H538 H 0.55921 0.38382 0.46305 0.0
H539 H 0.59756 0.49785 0.48622 0.0
C540 C 0.56907 0.48124 0.52371 0.0
C541 C 0.54723 0.45374 0.53897 0.0
C542 C 0.5749 0.40509 0.45079 0.0
C543 C 0.56896 0.44367 0.48621 0.0
C544 C 0.58837 0.40012 0.42595 0.0
C545 C 0.60883 0.42721 0.40966 0.0
C546 C 0.58207 0.4374 0.45952 0.0
C547 C 0.61537 0.45911 0.41914 0.0
C548 C 0.57993 0.47631 0.4973 0.0
C549 C 0.53556 0.42157 0.52644 0.0
N550 N 0.60212 0.46332 0.44348 0.0
N551 N 0.54679 0.41742 0.50094 0.0
H552 H 0.11562 0.6186 0.74525 0.0
H553 H 0.1985 0.56648 0.62684 0.0
H554 H 0.0786 0.5155 0.71929 0.0
H555 H 0.20513 0.6627 0.62947 0.0
H556 H 0.15143 0.54639 0.6581 0.0
H557 H 0.14445 0.63502 0.70032 0.0
C558 C 0.11269 0.59945 0.72951 0.0
C559 C 0.09481 0.56577 0.73562 0.0
C560 C 0.16277 0.57172 0.65141 0.0
C561 C 0.12859 0.58415 0.68508 0.0
C562 C 0.1898 0.58327 0.63362 0.0
C563 C 0.20605 0.61643 0.62576 0.0
C564 C 0.15242 0.59371 0.6619 0.0
C565 C 0.19354 0.63701 0.63523 0.0
C566 C 0.12921 0.60874 0.704 0.0
C567 C 0.09206 0.54172 0.71502 0.0
N568 N 0.16784 0.62549 0.65323 0.0
N569 N 0.10946 0.55142 0.69085 0.0
H570 H 0.50804 0.10228 0.90795 0.0
H571 H 0.63831 0.17956 0.79162 0.0
H572 H 0.57322 0.06396 0.88573 0.0
H573 H 0.54811 0.1872 0.79061 0.0
H574 H 0.61197 0.13322 0.82281 0.0
H575 H 0.51755 0.12849 0.86189 0.0
C576 C 0.52342 0.0985 0.89281 0.0
C577 C 0.53996 0.08114 0.90037 0.0
C578 C 0.59766 0.14459 0.81531 0.0
C579 C 0.55207 0.11193 0.84847 0.0
C580 C 0.6128 0.17123 0.79759 0.0
C581 C 0.59561 0.18763 0.78882 0.0
C582 C 0.56541 0.13479 0.82486 0.0
C583 C 0.56244 0.1755 0.79713 0.0
C584 C 0.52899 0.11352 0.86663 0.0
C585 C 0.55999 0.07713 0.88042 0.0
N586 N 0.54865 0.15021 0.81517 0.0
N587 N 0.56619 0.09315 0.85557 0.0
H588 H 0.51029 0.62328 0.05837 0.0
H589 H 0.41141 0.54221 0.90587 0.0
H590 H 0.45847 0.51753 0.03566 0.0
H591 H 0.45833 0.64721 0.93113 0.0
H592 H 0.43176 0.53312 0.9518 0.0
H593 H 0.4954 0.63289 0.01028 0.0
C594 C 0.49588 0.60207 0.04315 0.0
C595 C 0.48528 0.56951 0.0511 0.0
C596 C 0.43767 0.55816 0.94728 0.0
C597 C 0.46813 0.58033 -0.00407 0.0
C598 C 0.42601 0.56342 0.92103 0.0
C599 C 0.43301 0.59556 0.91458 0.0
C600 C 0.45651 0.5852 0.96732 0.0
C601 C 0.45217 0.62199 0.93513 0.0
C602 C 0.48741 0.60758 0.01569 0.0
C603 C 0.46722 0.54303 0.03039 0.0
N604 N 0.46318 0.61619 0.96057 0.0
N605 N 0.45896 0.549 0.0038 0.0
H606 H 0.96412 0.46077 0.2291 0.0
H607 H 0.81792 0.44718 0.11946 0.0
H608 H 0.90433 0.507 0.24549 0.0
H609 H 0.87803 0.40153 0.10128 0.0
H610 H 0.85036 0.47022 0.16543 0.0
H611 H 0.93495 0.44084 0.18113 0.0
C612 C 0.9452 0.46706 0.22243 0.0
C613 C 0.93633 0.4852 0.24132 0.0
C614 C 0.85646 0.45515 0.15137 0.0
C615 C 0.90267 0.46232 0.1869 0.0
C616 C 0.8378 0.44186 0.12514 0.0
C617 C 0.84514 0.42231 0.1064 0.0
C618 C 0.88266 0.44887 0.15902 0.0
C619 C 0.87138 0.41642 0.11497 0.0
C620 C 0.92838 0.45551 0.1952 0.0
C621 C 0.91152 0.49259 0.23172 0.0
N622 N 0.88916 0.42963 0.14061 0.0
N623 N 0.89546 0.48097 0.20532 0.0
loop_
_geom_bond_atom_site_label_1
_geom_bond_atom_site_label_2
_geom_bond_distance
_geom_bond_site_symmetry_2
_ccdc_geom_bond_type
H0 C6 0.930 . S
H1 C9 0.931 . S
H2 C11 0.931 . S
H3 C13 0.930 . S
H4 C15 0.930 . S
H5 C17 0.931 . S
C6 H0 0.930 . S
C6 C7 1.380 . S
C6 C8 1.394 . S
C7 C6 1.380 . S
C7 C11 1.382 . S
C8 C6 1.394 . S
C8 C9 1.400 . S
C9 H1 0.931 . S
C9 C8 1.400 . S
C9 C10 1.375 . S
C10 C9 1.375 . S
C10 C11 1.415 . S
C10 C12 1.501 1_455 S
C11 H2 0.931 . S
C11 C7 1.382 . S
C11 C10 1.415 . S
C12 C10 1.501 1_655 S
C12 C13 1.384 . S
C12 C17 1.408 . S
C13 H3 0.930 . S
C13 C12 1.384 . S
C13 C14 1.389 . S
C14 C13 1.389 . S
C14 C15 1.405 . S
C15 H4 0.930 . S
C15 C14 1.405 . S
C15 C16 1.364 . S
C16 C15 1.364 . S
C16 C17 1.400 . S
C17 H5 0.931 . S
C17 C12 1.408 . S
C17 C16 1.400 . S
H18 C24 0.930 . S
H19 C27 0.931 . S
H20 C29 0.931 . S
H21 C31 0.930 . S
H22 C33 0.930 . S
H23 C35 0.941 . S
C24 H18 0.930 . S
C24 C25 1.380 . S
C24 C26 1.394 . S
C25 C24 1.380 . S
C25 C29 1.382 . S
C26 C24 1.394 . S
C26 C27 1.400 . S
C27 H19 0.931 . S
C27 C26 1.400 . S
C27 C28 1.375 . S
C28 C27 1.375 . S
C28 C29 1.415 . S
C28 C30 1.501 1_545 S
C29 H20 0.931 . S
C29 C25 1.382 . S
C29 C28 1.415 . S
C30 C28 1.501 1_565 S
C30 C31 1.384 . S
C30 C35 1.408 . S
C31 H21 0.930 . S
C31 C30 1.384 . S
C31 C32 1.389 . S
C32 C31 1.389 . S
C32 C33 1.405 . S
C33 H22 0.930 . S
C33 C32 1.405 . S
C33 C34 1.364 . S
C34 C33 1.364 . S
C34 C35 1.400 . S
C35 H23 0.941 . S
C35 C30 1.408 . S
C35 C34 1.400 . S
H36 C42 0.930 . S
H37 C45 0.931 . S
H38 C47 0.931 . S
H39 C49 0.930 . S
H40 C51 0.930 . S
H41 C53 0.931 . S
C42 H36 0.930 . S
C42 C43 1.380 . S
C42 C44 1.394 . S
C43 C42 1.380 . S
C43 C47 1.382 . S
C44 C42 1.394 . S
C44 C45 1.400 . S
C45 H37 0.931 . S
C45 C44 1.400 . S
C45 C46 1.375 . S
C46 C45 1.375 . S
C46 C47 1.415 . S
C46 C48 1.501 . S
C47 H38 0.931 . S
C47 C43 1.382 . S
C47 C46 1.415 . S
C48 C46 1.501 . S
C48 C49 1.384 . S
C48 C53 1.408 . S
C49 H39 0.930 . S
C49 C48 1.384 . S
C49 C50 1.389 . S
C50 C49 1.389 . S
C50 C51 1.405 . S
C51 H40 0.930 . S
C51 C50 1.405 . S
C51 C52 1.364 . S
C52 C51 1.364 . S
C52 C53 1.400 . S
C53 H41 0.931 . S
C53 C48 1.408 . S
C53 C52 1.400 . S
H54 C60 0.930 . S
H55 C63 0.931 . S
H56 C65 0.931 . S
H57 C67 0.930 . S
H58 C69 0.930 . S
H59 C71 0.934 . S
C60 H54 0.930 . S
C60 C61 1.380 . S
C60 C62 1.394 . S
C61 C60 1.380 . S
C61 C65 1.382 . S
C62 C60 1.394 . S
C62 C63 1.400 . S
C63 H55 0.931 . S
C63 C62 1.400 . S
C63 C64 1.375 . S
C64 C63 1.375 . S
C64 C65 1.415 . S
C64 C66 1.501 1_455 S
C65 H56 0.931 . S
C65 C61 1.382 . S
C65 C64 1.415 . S
C66 C64 1.501 1_655 S
C66 C67 1.384 . S
C66 C71 1.408 . S
C67 H57 0.930 . S
C67 C66 1.384 . S
C67 C68 1.389 . S
C68 C67 1.389 . S
C68 C69 1.405 . S
C69 H58 0.930 . S
C69 C68 1.405 . S
C69 C70 1.364 . S
C70 C69 1.364 . S
C70 C71 1.400 . S
C71 H59 0.934 . S
C71 C66 1.408 . S
C71 C70 1.400 . S
H72 C78 0.930 . S
H73 C81 0.931 . S
H74 C83 0.931 1_545 S
H75 C85 0.930 . S
H76 C87 0.930 . S
H77 C89 0.931 . S
C78 H72 0.930 . S
C78 C79 1.380 . S
C78 C80 1.394 1_554 S
C79 C78 1.380 . S
C79 C83 1.382 . S
C80 C78 1.394 1_556 S
C80 C81 1.400 . S
C81 H73 0.931 . S
C81 C80 1.400 . S
C81 C82 1.375 . S
C82 C81 1.375 . S
C82 C83 1.415 1_556 S
C82 C84 1.501 1_565 S
C83 H74 0.931 1_565 S
C83 C79 1.382 . S
C83 C82 1.415 1_554 S
C84 C82 1.501 1_545 S
C84 C85 1.384 1_556 S
C84 C89 1.408 . S
C85 H75 0.930 . S
C85 C84 1.384 1_554 S
C85 C86 1.389 1_554 S
C86 C85 1.389 1_556 S
C86 C87 1.405 . S
C87 H76 0.930 . S
C87 C86 1.405 . S
C87 C88 1.364 . S
C88 C87 1.364 . S
C88 C89 1.400 . S
C89 H77 0.931 . S
C89 C84 1.408 . S
C89 C88 1.400 . S
H90 C96 0.930 . S
H91 C99 0.931 . S
H92 C101 0.931 . S
H93 C103 0.930 . S
H94 C105 0.930 . S
H95 C107 0.931 . S
C96 H90 0.930 . S
C96 C97 1.380 . S
C96 C98 1.394 . S
C97 C96 1.380 . S
C97 C101 1.382 . S
C98 C96 1.394 . S
C98 C99 1.400 . S
C99 H91 0.931 . S
C99 C98 1.400 . S
C99 C100 1.375 . S
C100 C99 1.375 . S
C100 C101 1.415 . S
C100 C102 1.501 . S
C101 H92 0.931 . S
C101 C97 1.382 . S
C101 C100 1.415 . S
C102 C100 1.501 . S
C102 C103 1.384 . S
C102 C107 1.408 . S
C103 H93 0.930 . S
C103 C102 1.384 . S
C103 C104 1.389 . S
C104 C103 1.389 . S
C104 C105 1.405 . S
C105 H94 0.930 . S
C105 C104 1.405 . S
C105 C106 1.364 . S
C106 C105 1.364 . S
C106 C107 1.400 . S
C107 H95 0.931 . S
C107 C102 1.408 . S
C107 C106 1.400 . S
Mg108 O109 2.028 . S
Mg108 O115 1.986 . S
Mg108 O117 2.114 . S
Mg108 O118 2.251 . S
Mg108 O121 2.010 . S
O109 Mg108 2.028 . S
O109 C112 1.250 . S
O110 Mg111 2.028 . S
O110 C112 1.248 . S
Mg111 O110 2.028 . S
Mg111 O116 2.032 . S
Mg111 O118 2.079 . S
C112 O109 1.250 . S
C112 O110 1.248 . S
C113 O114 1.264 . S
C113 O121 1.249 . S
O114 C113 1.264 . S
O115 Mg108 1.986 . S
O115 C119 1.246 . S
O116 Mg111 2.032 . S
O116 C119 1.259 . S
O117 Mg108 2.114 . S
O117 C120 1.252 . S
O118 Mg108 2.251 . S
O118 Mg111 2.079 . S
O118 C120 1.273 . S
C119 O115 1.246 . S
C119 O116 1.259 . S
C120 O117 1.252 . S
C120 O118 1.273 . S
O121 Mg108 2.010 . S
O121 C113 1.249 . S
Mg122 O123 2.028 . S
Mg122 O129 1.986 . S
Mg122 O131 2.114 . S
Mg122 O132 2.251 . S
Mg122 O135 2.010 . S
O123 Mg122 2.028 . S
O123 C126 1.250 . S
O124 Mg125 2.028 . S
O124 C126 1.248 . S
Mg125 O124 2.028 . S
Mg125 O130 2.032 . S
Mg125 O132 2.079 . S
C126 O123 1.250 . S
C126 O124 1.248 . S
C127 O128 1.264 . S
C127 O135 1.249 . S
O128 C127 1.264 . S
O129 Mg122 1.986 . S
O129 C133 1.246 . S
O130 Mg125 2.032 . S
O130 C133 1.259 . S
O131 Mg122 2.114 . S
O131 C134 1.252 . S
O132 Mg122 2.251 . S
O132 Mg125 2.079 . S
O132 C134 1.273 . S
C133 O129 1.246 . S
C133 O130 1.259 . S
C134 O131 1.252 . S
C134 O132 1.273 . S
O135 Mg122 2.010 . S
O135 C127 1.249 . S
Mg136 O137 2.028 . S
Mg136 O143 1.986 . S
Mg136 O145 2.114 . S
Mg136 O146 2.251 . S
Mg136 O149 2.010 . S
O137 Mg136 2.028 . S
O137 C140 1.250 . S
O138 Mg139 2.028 . S
O138 C140 1.248 . S
Mg139 O138 2.028 . S
Mg139 O144 2.032 . S
Mg139 O146 2.079 . S
C140 O137 1.250 . S
C140 O138 1.248 . S
C141 O142 1.264 . S
C141 O149 1.249 . S
O142 C141 1.264 . S
O143 Mg136 1.986 . S
O143 C147 1.246 . S
O144 Mg139 2.032 . S
O144 C147 1.259 . S
O145 Mg136 2.114 . S
O145 C148 1.252 . S
O146 Mg136 2.251 . S
O146 Mg139 2.079 . S
O146 C148 1.273 . S
C147 O143 1.246 . S
C147 O144 1.259 . S
C148 O145 1.252 . S
C148 O146 1.273 . S
O149 Mg136 2.010 . S
O149 C141 1.249 . S
Mg150 O151 2.028 . S
Mg150 O157 1.986 . S
Mg150 O159 2.114 . S
Mg150 O160 2.251 . S
Mg150 O163 2.010 . S
O151 Mg150 2.028 . S
O151 C154 1.250 . S
O152 Mg153 2.028 . S
O152 C154 1.248 . S
Mg153 O152 2.028 . S
Mg153 O158 2.032 . S
Mg153 O160 2.079 . S
C154 O151 1.250 . S
C154 O152 1.248 . S
C155 O156 1.264 . S
C155 O163 1.249 . S
O156 C155 1.264 . S
O157 Mg150 1.986 . S
O157 C161 1.246 . S
O158 Mg153 2.032 . S
O158 C161 1.259 . S
O159 Mg150 2.114 . S
O159 C162 1.252 . S
O160 Mg150 2.251 . S
O160 Mg153 2.079 . S
O160 C162 1.273 . S
C161 O157 1.246 . S
C161 O158 1.259 . S
C162 O159 1.252 . S
C162 O160 1.273 . S
O163 Mg150 2.010 . S
O163 C155 1.249 . S
Mg164 O165 2.028 . S
Mg164 O171 1.986 . S
Mg164 O173 2.114 . S
Mg164 O174 2.251 . S
Mg164 O177 2.010 . S
O165 Mg164 2.028 . S
O165 C168 1.250 . S
O166 Mg167 2.028 . S
O166 C168 1.248 . S
Mg167 O166 2.028 . S
Mg167 O172 2.032 . S
Mg167 O174 2.079 . S
C168 O165 1.250 . S
C168 O166 1.248 . S
C169 O170 1.264 . S
C169 O177 1.249 . S
O170 C169 1.264 . S
O171 Mg164 1.986 . S
O171 C175 1.246 . S
O172 Mg167 2.032 . S
O172 C175 1.259 . S
O173 Mg164 2.114 . S
O173 C176 1.252 . S
O174 Mg164 2.251 . S
O174 Mg167 2.079 . S
O174 C176 1.273 . S
C175 O171 1.246 . S
C175 O172 1.259 . S
C176 O173 1.252 . S
C176 O174 1.273 . S
O177 Mg164 2.010 . S
O177 C169 1.249 . S
Mg178 O179 2.028 . S
Mg178 O185 1.986 . S
Mg178 O187 2.114 . S
Mg178 O188 2.251 . S
Mg178 O191 2.010 . S
O179 Mg178 2.028 . S
O179 C182 1.250 . S
O180 Mg181 2.028 . S
O180 C182 1.248 . S
Mg181 O180 2.028 . S
Mg181 O186 2.032 . S
Mg181 O188 2.079 . S
C182 O179 1.250 . S
C182 O180 1.248 . S
C183 O184 1.264 . S
C183 O191 1.249 . S
O184 C183 1.264 . S
O185 Mg178 1.986 . S
O185 C189 1.246 . S
O186 Mg181 2.032 . S
O186 C189 1.259 . S
O187 Mg178 2.114 . S
O187 C190 1.252 . S
O188 Mg178 2.251 . S
O188 Mg181 2.079 . S
O188 C190 1.273 . S
C189 O185 1.246 . S
C189 O186 1.259 . S
C190 O187 1.252 . S
C190 O188 1.273 . S
O191 Mg178 2.010 . S
O191 C183 1.249 . S
H192 C198 0.930 . S
H193 C202 0.930 . S
H194 C207 0.929 . S
H195 C205 0.929 . S
H196 C200 0.929 . S
H197 C206 0.929 . S
C198 H192 0.930 . S
C198 C199 1.367 . S
C198 C206 1.378 . S
C199 C198 1.367 . S
C199 C207 1.433 . S
C200 H196 0.929 . S
C200 C202 1.378 . S
C200 C204 1.350 . S
C201 C204 1.463 . S
C201 C206 1.350 . S
C201 N209 1.427 . S
C202 H193 0.930 . S
C202 C200 1.378 . S
C202 C203 1.367 . S
C203 C202 1.367 . S
C203 C205 1.433 . S
C204 C200 1.350 . S
C204 C201 1.463 . S
C204 N208 1.427 . S
C205 H195 0.929 . S
C205 C203 1.433 . S
C205 N208 1.384 . S
C206 H197 0.929 . S
C206 C198 1.378 . S
C206 C201 1.350 . S
C207 H194 0.929 . S
C207 C199 1.433 . S
C207 N209 1.384 . S
N208 C204 1.427 . S
N208 C205 1.384 . S
N209 C201 1.427 . S
N209 C207 1.384 . S
H210 C216 0.930 . S
H211 C220 0.930 . S
H212 C225 0.929 . S
H213 C223 0.929 . S
H214 C218 0.929 . S
H215 C224 0.929 . S
C216 H210 0.930 . S
C216 C217 1.367 . S
C216 C224 1.378 . S
C217 C216 1.367 . S
C217 C225 1.433 . S
C218 H214 0.929 . S
C218 C220 1.378 . S
C218 C222 1.350 . S
C219 C222 1.463 . S
C219 C224 1.350 . S
C219 N227 1.427 . S
C220 H211 0.930 . S
C220 C218 1.378 . S
C220 C221 1.367 . S
C221 C220 1.367 . S
C221 C223 1.433 . S
C222 C218 1.350 . S
C222 C219 1.463 . S
C222 N226 1.427 . S
C223 H213 0.929 . S
C223 C221 1.433 . S
C223 N226 1.384 . S
C224 H215 0.929 . S
C224 C216 1.378 . S
C224 C219 1.350 . S
C225 H212 0.929 . S
C225 C217 1.433 . S
C225 N227 1.384 . S
N226 C222 1.427 . S
N226 C223 1.384 . S
N227 C219 1.427 . S
N227 C225 1.384 . S
H228 C234 0.930 . S
H229 C238 0.930 . S
H230 C243 0.929 . S
H231 C241 0.929 . S
H232 C236 0.929 . S
H233 C242 0.929 . S
C234 H228 0.930 . S
C234 C235 1.367 . S
C234 C242 1.378 . S
C235 C234 1.367 . S
C235 C243 1.433 . S
C236 H232 0.929 . S
C236 C238 1.378 . S
C236 C240 1.350 . S
C237 C240 1.463 . S
C237 C242 1.350 . S
C237 N245 1.427 . S
C238 H229 0.930 . S
C238 C236 1.378 . S
C238 C239 1.367 . S
C239 C238 1.367 . S
C239 C241 1.433 . S
C240 C236 1.350 . S
C240 C237 1.463 . S
C240 N244 1.427 . S
C241 H231 0.929 . S
C241 C239 1.433 . S
C241 N244 1.384 . S
C242 H233 0.929 . S
C242 C234 1.378 . S
C242 C237 1.350 . S
C243 H230 0.929 . S
C243 C235 1.433 . S
C243 N245 1.384 . S
N244 C240 1.427 . S
N244 C241 1.384 . S
N245 C237 1.427 . S
N245 C243 1.384 . S
H246 C252 0.930 . S
H247 C256 0.930 . S
H248 C261 0.929 . S
H249 C259 0.929 . S
H250 C254 0.929 . S
H251 C260 0.929 . S
C252 H246 0.930 . S
C252 C253 1.367 . S
C252 C260 1.378 . S
C253 C252 1.367 . S
C253 C261 1.433 . S
C254 H250 0.929 . S
C254 C256 1.378 . S
C254 C258 1.350 . S
C255 C258 1.463 . S
C255 C260 1.350 . S
C255 N263 1.427 . S
C256 H247 0.930 . S
C256 C254 1.378 . S
C256 C257 1.367 . S
C257 C256 1.367 . S
C257 C259 1.433 . S
C258 C254 1.350 . S
C258 C255 1.463 . S
C258 N262 1.427 . S
C259 H249 0.929 . S
C259 C257 1.433 . S
C259 N262 1.384 . S
C260 H251 0.929 . S
C260 C252 1.378 . S
C260 C255 1.350 . S
C261 H248 0.929 . S
C261 C253 1.433 . S
C261 N263 1.384 . S
N262 C258 1.427 . S
N262 C259 1.384 . S
N263 C255 1.427 . S
N263 C261 1.384 . S
H264 C270 0.930 1_554 S
H265 C274 0.930 . S
H266 C279 0.929 . S
H267 C277 0.929 . S
H268 C272 0.929 . S
H269 C278 0.929 . S
C270 H264 0.930 1_556 S
C270 C271 1.367 . S
C270 C278 1.378 . S
C271 C270 1.367 . S
C271 C279 1.433 . S
C272 H268 0.929 . S
C272 C274 1.378 . S
C272 C276 1.350 . S
C273 C276 1.463 . S
C273 C278 1.350 . S
C273 N281 1.427 . S
C274 H265 0.930 . S
C274 C272 1.378 . S
C274 C275 1.367 . S
C275 C274 1.367 . S
C275 C277 1.433 . S
C276 C272 1.350 . S
C276 C273 1.463 . S
C276 N280 1.427 . S
C277 H267 0.929 . S
C277 C275 1.433 . S
C277 N280 1.384 . S
C278 H269 0.929 . S
C278 C270 1.378 . S
C278 C273 1.350 . S
C279 H266 0.929 . S
C279 C271 1.433 . S
C279 N281 1.384 . S
N280 C276 1.427 . S
N280 C277 1.384 . S
N281 C273 1.427 . S
N281 C279 1.384 . S
H282 C288 0.930 . S
H283 C292 0.930 . S
H284 C297 0.929 . S
H285 C295 0.929 . S
H286 C290 0.929 . S
H287 C296 0.929 . S
C288 H282 0.930 . S
C288 C289 1.367 . S
C288 C296 1.378 . S
C289 C288 1.367 . S
C289 C297 1.433 . S
C290 H286 0.929 . S
C290 C292 1.378 . S
C290 C294 1.350 . S
C291 C294 1.463 . S
C291 C296 1.350 . S
C291 N299 1.427 . S
C292 H283 0.930 . S
C292 C290 1.378 . S
C292 C293 1.367 . S
C293 C292 1.367 . S
C293 C295 1.433 . S
C294 C290 1.350 . S
C294 C291 1.463 . S
C294 N298 1.427 . S
C295 H285 0.929 . S
C295 C293 1.433 . S
C295 N298 1.384 . S
C296 H287 0.929 . S
C296 C288 1.378 . S
C296 C291 1.350 . S
C297 H284 0.929 . S
C297 C289 1.433 . S
C297 N299 1.384 . S
N298 C294 1.427 . S
N298 C295 1.384 . S
N299 C291 1.427 . S
N299 C297 1.384 . S
H300 C306 0.930 . S
H301 C310 0.930 . S
H302 C315 0.929 . S
H303 C313 0.929 . S
H304 C308 0.929 . S
H305 C314 0.929 . S
C306 H300 0.930 . S
C306 C307 1.367 . S
C306 C314 1.378 . S
C307 C306 1.367 . S
C307 C315 1.433 . S
C308 H304 0.929 . S
C308 C310 1.378 . S
C308 C312 1.350 . S
C309 C312 1.463 . S
C309 C314 1.350 . S
C309 N317 1.427 . S
C310 H301 0.930 . S
C310 C308 1.378 . S
C310 C311 1.367 . S
C311 C310 1.367 . S
C311 C313 1.433 . S
C312 C308 1.350 . S
C312 C309 1.463 . S
C312 N316 1.427 . S
C313 H303 0.929 . S
C313 C311 1.433 . S
C313 N316 1.384 . S
C314 H305 0.929 . S
C314 C306 1.378 . S
C314 C309 1.350 . S
C315 H302 0.929 . S
C315 C307 1.433 . S
C315 N317 1.384 . S
N316 C312 1.427 . S
N316 C313 1.384 . S
N317 C309 1.427 . S
N317 C315 1.384 . S
H318 C324 0.930 . S
H319 C328 0.930 . S
H320 C333 0.929 . S
H321 C331 0.929 . S
H322 C326 0.929 . S
H323 C332 0.929 . S
C324 H318 0.930 . S
C324 C325 1.367 . S
C324 C332 1.378 . S
C325 C324 1.367 . S
C325 C333 1.433 . S
C326 H322 0.929 . S
C326 C328 1.378 . S
C326 C330 1.350 . S
C327 C330 1.463 . S
C327 C332 1.350 . S
C327 N335 1.427 . S
C328 H319 0.930 . S
C328 C326 1.378 . S
C328 C329 1.367 . S
C329 C328 1.367 . S
C329 C331 1.433 . S
C330 C326 1.350 . S
C330 C327 1.463 . S
C330 N334 1.427 . S
C331 H321 0.929 . S
C331 C329 1.433 . S
C331 N334 1.384 . S
C332 H323 0.929 . S
C332 C324 1.378 . S
C332 C327 1.350 . S
C333 H320 0.929 . S
C333 C325 1.433 . S
C333 N335 1.384 . S
N334 C330 1.427 . S
N334 C331 1.384 . S
N335 C327 1.427 . S
N335 C333 1.384 . S
H336 C342 0.930 . S
H337 C346 0.930 . S
H338 C351 0.929 . S
H339 C349 0.929 . S
H340 C344 0.929 . S
H341 C350 0.929 . S
C342 H336 0.930 . S
C342 C343 1.367 . S
C342 C350 1.378 . S
C343 C342 1.367 . S
C343 C351 1.433 . S
C344 H340 0.929 . S
C344 C346 1.378 . S
C344 C348 1.350 . S
C345 C348 1.463 . S
C345 C350 1.350 . S
C345 N353 1.427 . S
C346 H337 0.930 . S
C346 C344 1.378 . S
C346 C347 1.367 . S
C347 C346 1.367 . S
C347 C349 1.433 . S
C348 C344 1.350 . S
C348 C345 1.463 . S
C348 N352 1.427 . S
C349 H339 0.929 . S
C349 C347 1.433 . S
C349 N352 1.384 . S
C350 H341 0.929 . S
C350 C342 1.378 . S
C350 C345 1.350 . S
C351 H338 0.929 . S
C351 C343 1.433 . S
C351 N353 1.384 . S
N352 C348 1.427 . S
N352 C349 1.384 . S
N353 C345 1.427 . S
N353 C351 1.384 . S
H354 C360 0.930 . S
H355 C364 0.930 . S
H356 C369 0.929 . S
H357 C367 0.929 . S
H358 C362 0.929 . S
H359 C368 0.929 1_556 S
C360 H354 0.930 . S
C360 C361 1.367 1_556 S
C360 C368 1.378 1_556 S
C361 C360 1.367 1_554 S
C361 C369 1.433 . S
C362 H358 0.929 . S
C362 C364 1.378 . S
C362 C366 1.350 . S
C363 C366 1.463 . S
C363 C368 1.350 . S
C363 N371 1.427 . S
C364 H355 0.930 . S
C364 C362 1.378 . S
C364 C365 1.367 . S
C365 C364 1.367 . S
C365 C367 1.433 . S
C366 C362 1.350 . S
C366 C363 1.463 . S
C366 N370 1.427 . S
C367 H357 0.929 . S
C367 C365 1.433 . S
C367 N370 1.384 . S
C368 H359 0.929 1_554 S
C368 C360 1.378 1_554 S
C368 C363 1.350 . S
C369 H356 0.929 . S
C369 C361 1.433 . S
C369 N371 1.384 . S
N370 C366 1.427 . S
N370 C367 1.384 . S
N371 C363 1.427 . S
N371 C369 1.384 . S
H372 C378 0.930 . S
H373 C382 0.930 . S
H374 C387 0.929 . S
H375 C385 0.929 . S
H376 C380 0.929 . S
H377 C386 0.929 . S
C378 H372 0.930 . S
C378 C379 1.367 . S
C378 C386 1.378 . S
C379 C378 1.367 . S
C379 C387 1.433 . S
C380 H376 0.929 . S
C380 C382 1.378 . S
C380 C384 1.350 . S
C381 C384 1.463 . S
C381 C386 1.350 . S
C381 N389 1.427 . S
C382 H373 0.930 . S
C382 C380 1.378 . S
C382 C383 1.367 . S
C383 C382 1.367 . S
C383 C385 1.433 . S
C384 C380 1.350 . S
C384 C381 1.463 . S
C384 N388 1.427 . S
C385 H375 0.929 . S
C385 C383 1.433 . S
C385 N388 1.384 . S
C386 H377 0.929 . S
C386 C378 1.378 . S
C386 C381 1.350 . S
C387 H374 0.929 . S
C387 C379 1.433 . S
C387 N389 1.384 . S
N388 C384 1.427 . S
N388 C385 1.384 . S
N389 C381 1.427 . S
N389 C387 1.384 . S
H390 C396 0.930 . S
H391 C400 0.930 . S
H392 C405 0.929 . S
H393 C403 0.929 . S
H394 C398 0.929 . S
H395 C404 0.929 . S
C396 H390 0.930 . S
C396 C397 1.367 . S
C396 C404 1.378 . S
C397 C396 1.367 . S
C397 C405 1.433 . S
C398 H394 0.929 . S
C398 C400 1.378 . S
C398 C402 1.350 . S
C399 C402 1.463 . S
C399 C404 1.350 . S
C399 N407 1.427 . S
C400 H391 0.930 . S
C400 C398 1.378 . S
C400 C401 1.367 . S
C401 C400 1.367 . S
C401 C403 1.433 . S
C402 C398 1.350 . S
C402 C399 1.463 . S
C402 N406 1.427 . S
C403 H393 0.929 . S
C403 C401 1.433 . S
C403 N406 1.384 . S
C404 H395 0.929 . S
C404 C396 1.378 . S
C404 C399 1.350 . S
C405 H392 0.929 . S
C405 C397 1.433 . S
C405 N407 1.384 . S
N406 C402 1.427 . S
N406 C403 1.384 . S
N407 C399 1.427 . S
N407 C405 1.384 . S
H408 C414 0.930 . S
H409 C418 0.930 . S
H410 C423 0.929 . S
H411 C421 0.929 . S
H412 C416 0.929 . S
H413 C422 0.929 . S
C414 H408 0.930 . S
C414 C415 1.367 . S
C414 C422 1.378 . S
C415 C414 1.367 . S
C415 C423 1.433 . S
C416 H412 0.929 . S
C416 C418 1.378 . S
C416 C420 1.350 . S
C417 C420 1.463 . S
C417 C422 1.350 . S
C417 N425 1.427 . S
C418 H409 0.930 . S
C418 C416 1.378 . S
C418 C419 1.367 . S
C419 C418 1.367 . S
C419 C421 1.433 . S
C420 C416 1.350 . S
C420 C417 1.463 . S
C420 N424 1.427 . S
C421 H411 0.929 . S
C421 C419 1.433 . S
C421 N424 1.384 . S
C422 H413 0.929 . S
C422 C414 1.378 . S
C422 C417 1.350 . S
C423 H410 0.929 . S
C423 C415 1.433 . S
C423 N425 1.384 . S
N424 C420 1.427 . S
N424 C421 1.384 . S
N425 C417 1.427 . S
N425 C423 1.384 . S
H426 C432 0.930 . S
H427 C436 0.930 . S
H428 C441 0.929 . S
H429 C439 0.929 . S
H430 C434 0.929 . S
H431 C440 0.929 . S
C432 H426 0.930 . S
C432 C433 1.367 . S
C432 C440 1.378 . S
C433 C432 1.367 . S
C433 C441 1.433 . S
C434 H430 0.929 . S
C434 C436 1.378 . S
C434 C438 1.350 . S
C435 C438 1.463 . S
C435 C440 1.350 . S
C435 N443 1.427 . S
C436 H427 0.930 . S
C436 C434 1.378 . S
C436 C437 1.367 . S
C437 C436 1.367 . S
C437 C439 1.433 . S
C438 C434 1.350 . S
C438 C435 1.463 . S
C438 N442 1.427 . S
C439 H429 0.929 . S
C439 C437 1.433 . S
C439 N442 1.384 . S
C440 H431 0.929 . S
C440 C432 1.378 . S
C440 C435 1.350 . S
C441 H428 0.929 . S
C441 C433 1.433 . S
C441 N443 1.384 . S
N442 C438 1.427 . S
N442 C439 1.384 . S
N443 C435 1.427 . S
N443 C441 1.384 . S
H444 C450 0.930 . S
H445 C454 0.930 . S
H446 C459 0.929 . S
H447 C457 0.929 . S
H448 C452 0.929 . S
H449 C458 0.929 . S
C450 H444 0.930 . S
C450 C451 1.367 . S
C450 C458 1.378 . S
C451 C450 1.367 . S
C451 C459 1.433 . S
C452 H448 0.929 . S
C452 C454 1.378 . S
C452 C456 1.350 . S
C453 C456 1.463 . S
C453 C458 1.350 . S
C453 N461 1.427 . S
C454 H445 0.930 . S
C454 C452 1.378 . S
C454 C455 1.367 . S
C455 C454 1.367 . S
C455 C457 1.433 . S
C456 C452 1.350 . S
C456 C453 1.463 . S
C456 N460 1.427 . S
C457 H447 0.929 . S
C457 C455 1.433 . S
C457 N460 1.384 . S
C458 H449 0.929 . S
C458 C450 1.378 . S
C458 C453 1.350 . S
C459 H446 0.929 . S
C459 C451 1.433 . S
C459 N461 1.384 . S
N460 C456 1.427 . S
N460 C457 1.384 . S
N461 C453 1.427 . S
N461 C459 1.384 . S
H462 C468 0.930 . S
H463 C472 0.930 1_554 S
H464 C477 0.929 . S
H465 C475 0.929 . S
H466 C470 0.929 . S
H467 C476 0.929 . S
C468 H462 0.930 . S
C468 C469 1.367 . S
C468 C476 1.378 . S
C469 C468 1.367 . S
C469 C477 1.433 . S
C470 H466 0.929 . S
C470 C472 1.378 . S
C470 C474 1.350 . S
C471 C474 1.463 . S
C471 C476 1.350 . S
C471 N479 1.427 . S
C472 H463 0.930 1_556 S
C472 C470 1.378 . S
C472 C473 1.367 . S
C473 C472 1.367 . S
C473 C475 1.433 . S
C474 C470 1.350 . S
C474 C471 1.463 . S
C474 N478 1.427 . S
C475 H465 0.929 . S
C475 C473 1.433 . S
C475 N478 1.384 . S
C476 H467 0.929 . S
C476 C468 1.378 . S
C476 C471 1.350 . S
C477 H464 0.929 . S
C477 C469 1.433 . S
C477 N479 1.384 . S
N478 C474 1.427 . S
N478 C475 1.384 . S
N479 C471 1.427 . S
N479 C477 1.384 . S
H480 C486 0.930 . S
H481 C490 0.930 . S
H482 C495 0.929 . S
H483 C493 0.929 . S
H484 C488 0.929 . S
H485 C494 0.929 . S
C486 H480 0.930 . S
C486 C487 1.367 . S
C486 C494 1.378 . S
C487 C486 1.367 . S
C487 C495 1.433 . S
C488 H484 0.929 . S
C488 C490 1.378 . S
C488 C492 1.350 . S
C489 C492 1.463 . S
C489 C494 1.350 . S
C489 N497 1.427 . S
C490 H481 0.930 . S
C490 C488 1.378 . S
C490 C491 1.367 . S
C491 C490 1.367 . S
C491 C493 1.433 . S
C492 C488 1.350 . S
C492 C489 1.463 . S
C492 N496 1.427 . S
C493 H483 0.929 . S
C493 C491 1.433 . S
C493 N496 1.384 . S
C494 H485 0.929 . S
C494 C486 1.378 . S
C494 C489 1.350 . S
C495 H482 0.929 . S
C495 C487 1.433 . S
C495 N497 1.384 . S
N496 C492 1.427 . S
N496 C493 1.384 . S
N497 C489 1.427 . S
N497 C495 1.384 . S
H498 C504 0.930 . S
H499 C508 0.930 . S
H500 C513 0.929 . S
H501 C511 0.929 . S
H502 C506 0.929 . S
H503 C512 0.929 . S
C504 H498 0.930 . S
C504 C505 1.367 . S
C504 C512 1.378 . S
C505 C504 1.367 . S
C505 C513 1.433 . S
C506 H502 0.929 . S
C506 C508 1.378 . S
C506 C510 1.350 . S
C507 C510 1.463 . S
C507 C512 1.350 . S
C507 N515 1.427 . S
C508 H499 0.930 . S
C508 C506 1.378 . S
C508 C509 1.367 . S
C509 C508 1.367 . S
C509 C511 1.433 . S
C510 C506 1.350 . S
C510 C507 1.463 . S
C510 N514 1.427 . S
C511 H501 0.929 . S
C511 C509 1.433 . S
C511 N514 1.384 . S
C512 H503 0.929 . S
C512 C504 1.378 . S
C512 C507 1.350 . S
C513 H500 0.929 . S
C513 C505 1.433 . S
C513 N515 1.384 . S
N514 C510 1.427 . S
N514 C511 1.384 . S
N515 C507 1.427 . S
N515 C513 1.384 . S
H516 C522 0.930 . S
H517 C526 0.930 . S
H518 C531 0.929 . S
H519 C529 0.929 . S
H520 C524 0.929 . S
H521 C530 0.929 . S
C522 H516 0.930 . S
C522 C523 1.367 . S
C522 C530 1.378 . S
C523 C522 1.367 . S
C523 C531 1.433 . S
C524 H520 0.929 . S
C524 C526 1.378 . S
C524 C528 1.350 . S
C525 C528 1.463 . S
C525 C530 1.350 . S
C525 N533 1.427 . S
C526 H517 0.930 . S
C526 C524 1.378 . S
C526 C527 1.367 . S
C527 C526 1.367 . S
C527 C529 1.433 . S
C528 C524 1.350 . S
C528 C525 1.463 . S
C528 N532 1.427 . S
C529 H519 0.929 . S
C529 C527 1.433 . S
C529 N532 1.384 . S
C530 H521 0.929 . S
C530 C522 1.378 . S
C530 C525 1.350 . S
C531 H518 0.929 . S
C531 C523 1.433 . S
C531 N533 1.384 . S
N532 C528 1.427 . S
N532 C529 1.384 . S
N533 C525 1.427 . S
N533 C531 1.384 . S
H534 C540 0.930 . S
H535 C544 0.930 . S
H536 C549 0.929 . S
H537 C547 0.929 . S
H538 C542 0.929 . S
H539 C548 0.929 . S
C540 H534 0.930 . S
C540 C541 1.367 . S
C540 C548 1.378 . S
C541 C540 1.367 . S
C541 C549 1.433 . S
C542 H538 0.929 . S
C542 C544 1.378 . S
C542 C546 1.350 . S
C543 C546 1.463 . S
C543 C548 1.350 . S
C543 N551 1.427 . S
C544 H535 0.930 . S
C544 C542 1.378 . S
C544 C545 1.367 . S
C545 C544 1.367 . S
C545 C547 1.433 . S
C546 C542 1.350 . S
C546 C543 1.463 . S
C546 N550 1.427 . S
C547 H537 0.929 . S
C547 C545 1.433 . S
C547 N550 1.384 . S
C548 H539 0.929 . S
C548 C540 1.378 . S
C548 C543 1.350 . S
C549 H536 0.929 . S
C549 C541 1.433 . S
C549 N551 1.384 . S
N550 C546 1.427 . S
N550 C547 1.384 . S
N551 C543 1.427 . S
N551 C549 1.384 . S
H552 C558 0.930 . S
H553 C562 0.930 . S
H554 C567 0.929 . S
H555 C565 0.929 . S
H556 C560 0.929 . S
H557 C566 0.929 . S
C558 H552 0.930 . S
C558 C559 1.367 . S
C558 C566 1.378 . S
C559 C558 1.367 . S
C559 C567 1.433 . S
C560 H556 0.929 . S
C560 C562 1.378 . S
C560 C564 1.350 . S
C561 C564 1.463 . S
C561 C566 1.350 . S
C561 N569 1.427 . S
C562 H553 0.930 . S
C562 C560 1.378 . S
C562 C563 1.367 . S
C563 C562 1.367 . S
C563 C565 1.433 . S
C564 C560 1.350 . S
C564 C561 1.463 . S
C564 N568 1.427 . S
C565 H555 0.929 . S
C565 C563 1.433 . S
C565 N568 1.384 . S
C566 H557 0.929 . S
C566 C558 1.378 . S
C566 C561 1.350 . S
C567 H554 0.929 . S
C567 C559 1.433 . S
C567 N569 1.384 . S
N568 C564 1.427 . S
N568 C565 1.384 . S
N569 C561 1.427 . S
N569 C567 1.384 . S
H570 C576 0.930 . S
H571 C580 0.930 . S
H572 C585 0.929 . S
H573 C583 0.929 . S
H574 C578 0.929 . S
H575 C584 0.929 . S
C576 H570 0.930 . S
C576 C577 1.367 . S
C576 C584 1.378 . S
C577 C576 1.367 . S
C577 C585 1.433 . S
C578 H574 0.929 . S
C578 C580 1.378 . S
C578 C582 1.350 . S
C579 C582 1.463 . S
C579 C584 1.350 . S
C579 N587 1.427 . S
C580 H571 0.930 . S
C580 C578 1.378 . S
C580 C581 1.367 . S
C581 C580 1.367 . S
C581 C583 1.433 . S
C582 C578 1.350 . S
C582 C579 1.463 . S
C582 N586 1.427 . S
C583 H573 0.929 . S
C583 C581 1.433 . S
C583 N586 1.384 . S
C584 H575 0.929 . S
C584 C576 1.378 . S
C584 C579 1.350 . S
C585 H572 0.929 . S
C585 C577 1.433 . S
C585 N587 1.384 . S
N586 C582 1.427 . S
N586 C583 1.384 . S
N587 C579 1.427 . S
N587 C585 1.384 . S
H588 C594 0.930 . S
H589 C598 0.930 . S
H590 C603 0.929 . S
H591 C601 0.929 . S
H592 C596 0.929 . S
H593 C602 0.929 . S
C594 H588 0.930 . S
C594 C595 1.367 . S
C594 C602 1.378 . S
C595 C594 1.367 . S
C595 C603 1.433 . S
C596 H592 0.929 . S
C596 C598 1.378 1_554 S
C596 C600 1.350 . S
C597 C600 1.463 . S
C597 C602 1.350 . S
C597 N605 1.427 . S
C598 H589 0.930 . S
C598 C596 1.378 1_556 S
C598 C599 1.367 . S
C599 C598 1.367 . S
C599 C601 1.433 . S
C600 C596 1.350 . S
C600 C597 1.463 . S
C600 N604 1.427 1_554 S
C601 H591 0.929 . S
C601 C599 1.433 . S
C601 N604 1.384 . S
C602 H593 0.929 . S
C602 C594 1.378 . S
C602 C597 1.350 . S
C603 H590 0.929 . S
C603 C595 1.433 . S
C603 N605 1.384 . S
N604 C600 1.427 1_556 S
N604 C601 1.384 . S
N605 C597 1.427 . S
N605 C603 1.384 . S
H606 C612 0.930 . S
H607 C616 0.930 . S
H608 C621 0.929 . S
H609 C619 0.929 . S
H610 C614 0.929 . S
H611 C620 0.929 . S
C612 H606 0.930 . S
C612 C613 1.367 . S
C612 C620 1.378 . S
C613 C612 1.367 . S
C613 C621 1.433 . S
C614 H610 0.929 . S
C614 C616 1.378 . S
C614 C618 1.350 . S
C615 C618 1.463 . S
C615 C620 1.350 . S
C615 N623 1.427 . S
C616 H607 0.930 . S
C616 C614 1.378 . S
C616 C617 1.367 . S
C617 C616 1.367 . S
C617 C619 1.433 . S
C618 C614 1.350 . S
C618 C615 1.463 . S
C618 N622 1.427 . S
C619 H609 0.929 . S
C619 C617 1.433 . S
C619 N622 1.384 . S
C620 H611 0.929 . S
C620 C612 1.378 . S
C620 C615 1.350 . S
C621 H608 0.929 . S
C621 C613 1.433 . S
C621 N623 1.384 . S
N622 C618 1.427 . S
N622 C619 1.384 . S
N623 C615 1.427 . S
N623 C621 1.384 . S
C203 C183 1.271 . S
C199 C8 1.456 . S
C217 C26 1.485 . S
C221 C113 1.298 . S
C235 C50 1.454 . S
C239 C133 1.506 . S
C253 C68 1.416 . S
C257 C147 1.444 . S
C275 C155 1.238 . S
C271 C80 1.429 . S
C289 C104 1.444 . S
C293 C169 1.261 . S
C307 C32 1.483 . S
C311 C127 1.309 . S
C325 C44 1.429 . S
C329 C141 1.240 . S
C343 C62 1.391 . S
C347 C161 1.434 . S
C365 C175 1.471 . S
C361 C86 1.418 1_554 S
C383 C189 1.467 . S
C379 C98 1.442 . S
C401 C119 1.491 . S
C397 C14 1.451 . S
C415 C7 1.432 . S
C419 C126 1.453 . S
C433 C25 1.451 . S
C437 C140 1.469 . S
C455 C162 1.478 . S
C451 C52 1.422 . S
C469 C70 1.433 . S
C473 C176 1.485 1_556 S
C491 C190 1.454 . S
C487 C79 1.389 . S
C509 C120 1.441 . S
C505 C106 1.381 . S
C527 C182 1.447 . S
C523 C34 1.429 . S
C541 C43 1.431 . S
C545 C112 1.454 . S
C563 C134 1.477 . S
C559 C61 1.428 . S
C577 C88 1.422 . S
C581 C148 1.478 . S
C595 C97 1.478 . S
C599 C154 1.491 . S
C613 C16 1.458 . S
C617 C168 1.476 . S
