# Generated by pormake.
# Topology pth, (4,4)-cn, num edge types: 1
# Building blocks:
#     Node 0, Type 0, BuildingBlock: CEKHIL_clean_sbu_0, # of connection points: 4
#     Node 1, Type 0, BuildingBlock: CEKHIL_clean_sbu_0, # of connection points: 4
#     Node 2, Type 0, BuildingBlock: CEKHIL_clean_sbu_0, # of connection points: 4
#     Node 3, Type 1, BuildingBlock: MUDLON_clean_linker_0, # of connection points: 4
#     Node 4, Type 1, BuildingBlock: MUDLON_clean_linker_0, # of connection points: 4
#     Node 5, Type 1, BuildingBlock: MUDLON_clean_linker_0, # of connection points: 4
#     Edge 6, Type (0, 1), BuildingBlock: ZUJKAS_clean_linker_0, # of connection points: 2
#     Edge 7, Type (0, 1), BuildingBlock: ZUJKAS_clean_linker_0, # of connection points: 2
#     Edge 8, Type (0, 1), BuildingBlock: ZUJKAS_clean_linker_0, # of connection points: 2
#     Edge 9, Type (0, 1), BuildingBlock: ZUJKAS_clean_linker_0, # of connection points: 2
#     Edge 10, Type (0, 1), BuildingBlock: ZUJKAS_clean_linker_0, # of connection points: 2
#     Edge 11, Type (0, 1), BuildingBlock: ZUJKAS_clean_linker_0, # of connection points: 2
#     Edge 12, Type (0, 1), BuildingBlock: ZUJKAS_clean_linker_0, # of connection points: 2
#     Edge 13, Type (0, 1), BuildingBlock: ZUJKAS_clean_linker_0, # of connection points: 2
#     Edge 14, Type (0, 1), BuildingBlock: ZUJKAS_clean_linker_0, # of connection points: 2
#     Edge 15, Type (0, 1), BuildingBlock: ZUJKAS_clean_linker_0, # of connection points: 2
#     Edge 16, Type (0, 1), BuildingBlock: ZUJKAS_clean_linker_0, # of connection points: 2
#     Edge 17, Type (0, 1), BuildingBlock: ZUJKAS_clean_linker_0, # of connection points: 2
# Relax obj value: 0.034
# Max RMSD: 0.091
# Mean RMSD: 0.088
data_MOF--net-pth--node1-CEKHIL_clean_sbu_0--node2-MUDLON_clean_linker_0--edge1-ZUJKAS_clean_linker_0
_symmetry_space_group_name_H-M    P1
_symmetry_Int_Tables_number       1
_symmetry_cell_setting            triclinic
loop_
_symmetry_equiv_pos_as_xyz
'x, y, z'
_cell_length_a     40.674115
_cell_length_b     40.78385
_cell_length_c     84.488047
_cell_angle_alpha  90.763472
_cell_angle_beta   89.994974
_cell_angle_gamma 120.27233
loop_
_atom_site_label
_atom_site_type_symbol
_atom_site_fract_x
_atom_site_fract_y
_atom_site_fract_z
_atom_type_partial_charge
Co0 Co 0.0062 0.01807 0.05171 0.0
O1 O 0.98144 0.97741 0.06654 0.0
O2 O 0.0308 0.98796 0.05185 0.0
C3 C 0.00966 0.06409 0.06792 0.0
O4 O 0.04042 0.05801 0.03576 0.0
Co5 Co 0.96697 0.06149 0.03971 0.0
O6 O 0.01863 0.09822 0.03207 0.0
C7 C 0.94206 0.98448 0.02718 0.0
C8 C 0.0062 0.96766 0.06259 0.0
C9 C 0.04406 0.08901 0.03027 0.0
O10 O 0.96991 0.9846 0.03448 0.0
O11 O 0.93461 0.01138 0.02858 0.0
O12 O 0.0349 0.05359 0.0689 0.0
O13 O 0.98168 0.0444 0.05826 0.0
Co14 Co 0.00867 0.02053 0.37191 0.0
O15 O 0.98232 0.03387 0.35674 0.0
O16 O 0.03184 0.07529 0.3711 0.0
C17 C 0.01268 0.9774 0.3563 0.0
O18 O 0.04415 0.01726 0.38816 0.0
Co19 Co 0.97149 0.93867 0.38479 0.0
O20 O 0.02435 0.95548 0.3917 0.0
C21 C 0.94496 0.99014 0.39618 0.0
C22 C 0.00639 0.06908 0.36032 0.0
C23 C 0.0491 0.99055 0.39347 0.0
O24 O 0.97276 0.01793 0.38899 0.0
O25 O 0.93801 0.95586 0.39503 0.0
O26 O 0.03714 0.01337 0.35492 0.0
O27 O 0.98505 0.96913 0.36596 0.0
Co28 Co 0.00747 0.01657 0.70502 0.0
O29 O 0.04763 0.04165 0.68994 0.0
O30 O 0.03867 0.993 0.70441 0.0
C31 C 0.96046 0.01168 0.68922 0.0
O32 O 0.96805 0.98237 0.72124 0.0
Co33 Co 0.96334 0.05515 0.71749 0.0
O34 O 0.92741 0.00371 0.72531 0.0
C35 C 0.04048 0.08049 0.72985 0.0
C36 C 0.05834 0.01766 0.69362 0.0
C37 C 0.93702 0.97866 0.72702 0.0
O38 O 0.04111 0.05345 0.72208 0.0
O39 O 0.01302 0.08723 0.72891 0.0
O40 O 0.97169 0.98704 0.68809 0.0
O41 O 0.9801 0.04005 0.69876 0.0
H42 H 0.97911 0.66 0.21529 0.0
N43 N 0.04328 0.65709 0.20792 0.0
H44 H 0.97135 0.69367 0.23773 0.0
H45 H 0.09178 0.69186 0.23179 0.0
H46 H 0.0842 0.72579 0.25441 0.0
H47 H 0.09638 0.71683 0.19276 0.0
H48 H 0.08849 0.7465 0.16922 0.0
H49 H 0.97837 0.62923 0.18993 0.0
H50 H 0.97007 0.65863 0.16626 0.0
H51 H 0.97792 0.59874 0.22082 0.0
H52 H 0.08046 0.62489 0.19578 0.0
H53 H 0.962 0.53309 0.22301 0.0
H54 H 0.06331 0.55839 0.19678 0.0
H55 H 0.91726 0.32962 0.23112 0.0
H56 H 0.92138 0.29671 0.2544 0.0
H57 H 0.04351 0.37084 0.25533 0.0
H58 H 0.03897 0.40399 0.23251 0.0
H59 H 0.04102 0.3894 0.20566 0.0
H60 H 0.04905 0.35529 0.18351 0.0
H61 H 0.93077 0.30895 0.17056 0.0
H62 H 0.92277 0.34227 0.19322 0.0
H63 H 0.92592 0.40967 0.21321 0.0
H64 H 0.94072 0.47526 0.21046 0.0
H65 H 0.0609 0.51286 0.2133 0.0
N66 N 0.97415 0.3842 0.21513 0.0
H67 H 0.04563 0.44728 0.21469 0.0
C68 C 0.03635 0.67376 0.22177 0.0
C69 C 0.00217 0.6741 0.22376 0.0
C70 C 0.99777 0.69344 0.2366 0.0
C71 C 0.02728 0.71264 0.24776 0.0
C72 C 0.06085 0.71105 0.24607 0.0
C73 C 0.0653 0.69185 0.23316 0.0
C74 C 0.03812 0.67102 0.19308 0.0
C75 C 0.06893 0.70371 0.18686 0.0
C76 C 0.06434 0.72049 0.17338 0.0
C77 C 0.02862 0.70494 0.16586 0.0
C78 C 0.99785 0.67148 0.17187 0.0
C79 C 0.00257 0.65455 0.18534 0.0
C80 C 0.03102 0.61715 0.20838 0.0
C81 C 0.99695 0.5904 0.21564 0.0
C82 C 0.9876 0.55246 0.21673 0.0
C83 C 0.01149 0.54009 0.21023 0.0
C84 C 0.04468 0.56676 0.20238 0.0
C85 C 0.05439 0.6048 0.20161 0.0
C86 C 0.97758 0.36925 0.23002 0.0
C87 C 0.94478 0.33917 0.23658 0.0
C88 C 0.94728 0.3202 0.24977 0.0
C89 C 0.98286 0.33084 0.25665 0.0
C90 C 0.01562 0.36207 0.25044 0.0
C91 C 0.01304 0.38108 0.23726 0.0
C92 C 0.98104 0.36799 0.20118 0.0
C93 C 0.01688 0.37219 0.19803 0.0
C94 C 0.0215 0.3528 0.18524 0.0
C95 C 0.99046 0.32905 0.17531 0.0
C96 C 0.95509 0.32637 0.17813 0.0
C97 C 0.95049 0.34557 0.19097 0.0
C98 C 0.98446 0.42349 0.21447 0.0
C99 C 0.95541 0.43224 0.21328 0.0
C100 C 0.96403 0.46986 0.21181 0.0
C101 C 0.00212 0.49979 0.21173 0.0
C102 C 0.03123 0.49079 0.21306 0.0
C103 C 0.02253 0.45307 0.21419 0.0
H104 H 0.67313 0.04745 0.5547 0.0
N105 N 0.609 0.98471 0.54324 0.0
H106 H 0.71139 0.04971 0.57735 0.0
H107 H 0.59102 0.93075 0.56446 0.0
H108 H 0.62881 0.93293 0.58748 0.0
H109 H 0.61899 0.93327 0.52801 0.0
H110 H 0.66364 0.94379 0.50663 0.0
H111 H 0.65151 0.05143 0.52756 0.0
H112 H 0.69684 0.06248 0.50622 0.0
H113 H 0.61126 0.04488 0.55975 0.0
H114 H 0.54598 0.95514 0.52578 0.0
H115 H 0.56224 0.06193 0.56006 0.0
H116 H 0.49781 0.97394 0.52506 0.0
H117 H 0.39658 0.1087 0.56157 0.0
H118 H 0.35751 0.09851 0.58501 0.0
H119 H 0.33602 0.9836 0.58768 0.0
H120 H 0.37406 0.99367 0.56411 0.0
H121 H 0.34009 0.99358 0.53882 0.0
H122 H 0.29745 0.98496 0.51677 0.0
H123 H 0.37876 0.09622 0.49976 0.0
H124 H 0.42117 0.10506 0.52213 0.0
H125 H 0.48207 0.10496 0.54916 0.0
H126 H 0.53277 0.08966 0.54722 0.0
H127 H 0.44812 0.97148 0.53907 0.0
N128 N 0.40769 0.05824 0.54602 0.0
H129 H 0.39832 0.98785 0.53977 0.0
C130 C 0.62915 0.98875 0.55787 0.0
C131 C 0.66294 0.02249 0.56191 0.0
C132 C 0.68472 0.02381 0.57495 0.0
C133 C 0.67329 0.99141 0.58418 0.0
C134 C 0.63867 0.95822 0.58049 0.0
C135 C 0.61688 0.95697 0.56745 0.0
C136 C 0.63196 0.99142 0.52934 0.0
C137 C 0.63546 0.96138 0.5231 0.0
C138 C 0.66122 0.96756 0.51102 0.0
C139 C 0.68413 0.00409 0.50489 0.0
C140 C 0.67949 0.03401 0.51068 0.0
C141 C 0.65368 0.02778 0.52286 0.0
C142 C 0.58215 0.99807 0.54287 0.0
C143 C 0.58665 0.02899 0.55217 0.0
C144 C 0.55849 0.03909 0.55221 0.0
C145 C 0.52558 0.01924 0.54267 0.0
C146 C 0.52204 0.98934 0.53292 0.0
C147 C 0.5498 0.97876 0.53315 0.0
C148 C 0.38854 0.05225 0.56102 0.0
C149 C 0.38393 0.08155 0.5674 0.0
C150 C 0.3617 0.07567 0.58084 0.0
C151 C 0.34349 0.04015 0.58824 0.0
C152 C 0.34922 0.01114 0.58217 0.0
C153 C 0.3714 0.01705 0.56869 0.0
C154 C 0.38374 0.05035 0.53224 0.0
C155 C 0.34896 0.01609 0.53035 0.0
C156 C 0.32452 0.01119 0.51776 0.0
C157 C 0.33469 0.04007 0.50666 0.0
C158 C 0.37027 0.07347 0.50812 0.0
C159 C 0.39444 0.07858 0.52086 0.0
C160 C 0.43649 0.04763 0.54486 0.0
C161 C 0.47468 0.07582 0.54689 0.0
C162 C 0.50358 0.06686 0.5459 0.0
C163 C 0.49483 0.02916 0.54312 0.0
C164 C 0.4563 0.00092 0.54099 0.0
C165 C 0.42752 0.01012 0.54164 0.0
H166 H 0.62676 0.72498 0.89069 0.0
N167 N 0.61078 0.66035 0.87642 0.0
H168 H 0.66794 0.75505 0.9138 0.0
H169 H 0.64493 0.63002 0.89404 0.0
H170 H 0.68649 0.65994 0.91722 0.0
H171 H 0.66649 0.64562 0.86693 0.0
H172 H 0.70841 0.67323 0.84424 0.0
H173 H 0.60426 0.70079 0.85357 0.0
H174 H 0.6463 0.72898 0.83091 0.0
H175 H 0.54719 0.64389 0.89132 0.0
H176 H 0.59949 0.59232 0.86422 0.0
H177 H 0.48931 0.58241 0.89353 0.0
H178 H 0.54079 0.53112 0.86532 0.0
H179 H 0.30243 0.39756 0.89332 0.0
H180 H 0.27129 0.3587 0.9164 0.0
H181 H 0.36634 0.3405 0.92272 0.0
H182 H 0.39674 0.37876 0.89943 0.0
H183 H 0.37553 0.34999 0.87269 0.0
H184 H 0.34716 0.30694 0.84979 0.0
H185 H 0.30544 0.37816 0.83209 0.0
H186 H 0.33274 0.42032 0.85527 0.0
H187 H 0.37724 0.48003 0.87966 0.0
H188 H 0.43726 0.54001 0.8787 0.0
H189 H 0.49853 0.47879 0.88022 0.0
N190 N 0.36691 0.41067 0.88005 0.0
H191 H 0.43779 0.41878 0.87997 0.0
C192 C 0.63303 0.67557 0.89068 0.0
C193 C 0.63942 0.71053 0.89657 0.0
C194 C 0.66277 0.7275 0.90979 0.0
C195 C 0.68042 0.70982 0.91735 0.0
C196 C 0.67351 0.67435 0.91156 0.0
C197 C 0.6498 0.65722 0.89837 0.0
C198 C 0.63222 0.67128 0.86194 0.0
C199 C 0.66147 0.66322 0.85898 0.0
C200 C 0.68558 0.67923 0.84604 0.0
C201 C 0.68092 0.70356 0.83581 0.0
C202 C 0.65048 0.71004 0.83842 0.0
C203 C 0.62646 0.69407 0.85137 0.0
C204 C 0.57749 0.62305 0.87744 0.0
C205 C 0.54597 0.61927 0.88571 0.0
C206 C 0.51273 0.58404 0.88681 0.0
C207 C 0.50981 0.55159 0.87935 0.0
C208 C 0.54187 0.55525 0.87132 0.0
C209 C 0.57553 0.59053 0.87052 0.0
C210 C 0.35183 0.3912 0.89469 0.0
C211 C 0.3167 0.38561 0.89986 0.0
C212 C 0.29907 0.3635 0.91308 0.0
C213 C 0.3163 0.34642 0.92144 0.0
C214 C 0.35209 0.35288 0.91646 0.0
C215 C 0.36971 0.37507 0.9032 0.0
C216 C 0.35558 0.388 0.86575 0.0
C217 C 0.36055 0.35648 0.86383 0.0
C218 C 0.34442 0.33197 0.85076 0.0
C219 C 0.32406 0.33924 0.83924 0.0
C220 C 0.32124 0.37207 0.84073 0.0
C221 C 0.33667 0.39607 0.85394 0.0
C222 C 0.40314 0.44521 0.8802 0.0
C223 C 0.40373 0.47975 0.87985 0.0
C224 C 0.43819 0.51401 0.87943 0.0
C225 C 0.47312 0.5146 0.87963 0.0
C226 C 0.47237 0.47965 0.87995 0.0
C227 C 0.43766 0.44523 0.88007 0.0
H228 H 0.06426 0.1086 0.08974 0.0
H229 H 0.06588 0.15853 0.10675 0.0
H230 H 0.96251 0.14121 0.08477 0.0
H231 H 0.96088 0.09159 0.06762 0.0
H232 H 0.01886 0.21892 0.0897 0.0
H233 H 0.99122 0.13309 0.14387 0.0
H234 H 0.03163 0.14032 0.1325 0.0
H235 H 0.98459 0.11287 0.12419 0.0
C236 C 0.04202 0.11561 0.08846 0.0
C237 C 0.01223 0.09594 0.07746 0.0
C238 C 0.04293 0.14403 0.09821 0.0
C239 C 0.014 0.15312 0.09716 0.0
C240 C 0.98502 0.1345 0.08579 0.0
H241 H 0.93936 0.25546 0.16706 0.0
H242 H 0.94648 0.21548 0.14727 0.0
C243 C 0.98408 0.10609 0.07604 0.0
C244 C 0.0129 0.18084 0.10833 0.0
H245 H 0.00134 0.19496 0.14735 0.0
C246 C 0.01519 0.21385 0.10232 0.0
C247 C 0.00764 0.1738 0.12474 0.0
C248 C 0.00329 0.13798 0.13176 0.0
C249 C 0.01227 0.24006 0.11233 0.0
C250 C 0.00738 0.23317 0.12876 0.0
C251 C 0.00528 0.20024 0.13475 0.0
C252 C 0.00266 0.25876 0.13997 0.0
C253 C 0.01332 0.27427 0.10517 0.0
C254 C 0.03185 0.2965 0.14239 0.0
C255 C 0.02769 0.31969 0.15361 0.0
C256 C 0.99434 0.30544 0.16268 0.0
C257 C 0.96511 0.26766 0.1601 0.0
C258 C 0.96926 0.24461 0.14888 0.0
H259 H 0.00829 0.27081 0.09218 0.0
H260 H 0.99166 0.27967 0.11067 0.0
H261 H 0.04176 0.29964 0.10736 0.0
H262 H 0.05814 0.30782 0.13582 0.0
H263 H 0.05065 0.34871 0.15522 0.0
H264 H 0.95048 0.05898 0.4029 0.0
H265 H 0.90877 0.0711 0.41988 0.0
H266 H 0.84103 0.9515 0.42939 0.0
H267 H 0.8821 0.93897 0.41247 0.0
H268 H 0.7984 0.9875 0.42124 0.0
H269 H 0.90549 0.06463 0.46905 0.0
H270 H 0.91898 0.08136 0.44918 0.0
H271 H 0.91142 0.03554 0.45433 0.0
C272 C 0.92673 0.03522 0.40861 0.0
C273 C 0.91983 0.99798 0.40635 0.0
C274 C 0.90301 0.04226 0.41834 0.0
C275 C 0.87205 0.01222 0.42598 0.0
C276 C 0.86483 0.97508 0.4236 0.0
H277 H 0.73375 0.97779 0.50545 0.0
H278 H 0.78045 0.98557 0.48548 0.0
C279 C 0.88846 0.968 0.41394 0.0
C280 C 0.84697 0.01897 0.43658 0.0
H281 H 0.84368 0.05391 0.47314 0.0
C282 C 0.80833 0.00249 0.4325 0.0
C283 C 0.8601 0.03838 0.45127 0.0
C284 C 0.90119 0.05586 0.45636 0.0
C285 C 0.78216 0.00381 0.44294 0.0
C286 C 0.79512 0.02239 0.4578 0.0
C287 C 0.83397 0.03993 0.46168 0.0
C288 C 0.76818 0.02013 0.47013 0.0
C289 C 0.74056 0.9837 0.43837 0.0
C290 C 0.74619 0.03753 0.46821 0.0
C291 C 0.71924 0.03299 0.47962 0.0
C292 C 0.71382 0.01083 0.49305 0.0
C293 C 0.73671 0.9944 0.49508 0.0
C294 C 0.76364 0.99908 0.48376 0.0
H295 H 0.73453 0.96606 0.42744 0.0
H296 H 0.72282 0.96521 0.4481 0.0
H297 H 0.73183 0.00504 0.43625 0.0
H298 H 0.74959 0.05423 0.45784 0.0
H299 H 0.70204 0.046 0.47775 0.0
H300 H 0.94901 0.92115 0.73675 0.0
H301 H 0.90851 0.86846 0.75425 0.0
H302 H 0.82801 0.90764 0.75664 0.0
H303 H 0.86785 0.96001 0.73936 0.0
H304 H 0.85302 0.89566 0.78655 0.0
H305 H 0.80197 0.77155 0.74529 0.0
H306 H 0.8524 0.80476 0.74606 0.0
H307 H 0.82083 0.81942 0.73835 0.0
C308 C 0.9225 0.91831 0.74087 0.0
C309 C 0.91189 0.94503 0.73668 0.0
C310 C 0.89935 0.88811 0.75082 0.0
C311 C 0.86521 0.88412 0.75667 0.0
C312 C 0.85425 0.91024 0.75225 0.0
H313 H 0.66774 0.71792 0.80552 0.0
H314 H 0.71502 0.75933 0.78624 0.0
C315 C 0.87719 0.94023 0.74236 0.0
C316 C 0.84156 0.85424 0.76812 0.0
H317 H 0.78011 0.75894 0.77162 0.0
C318 C 0.83736 0.86571 0.78335 0.0
C319 C 0.82098 0.81531 0.76383 0.0
C320 C 0.8239 0.80177 0.74748 0.0
C321 C 0.81257 0.83939 0.79434 0.0
C322 C 0.79178 0.80043 0.79005 0.0
C323 C 0.79633 0.78881 0.77489 0.0
C324 C 0.76364 0.7719 0.80094 0.0
C325 C 0.80776 0.85363 0.81027 0.0
C326 C 0.7754 0.76449 0.81539 0.0
C327 C 0.74849 0.74107 0.82646 0.0
C328 C 0.70928 0.72453 0.82326 0.0
C329 C 0.69768 0.73064 0.80844 0.0
C330 C 0.72464 0.75404 0.79737 0.0
H331 H 0.82011 0.88493 0.81054 0.0
H332 H 0.77717 0.83993 0.8134 0.0
H333 H 0.82239 0.84635 0.81947 0.0
H334 H 0.8054 0.77777 0.81831 0.0
H335 H 0.75846 0.73728 0.8378 0.0
H336 H 0.95671 0.92023 0.08461 0.0
H337 H 0.96034 0.87091 0.09925 0.0
H338 H 0.06065 0.89346 0.07323 0.0
H339 H 0.05748 0.94333 0.05858 0.0
H340 H 0.96066 0.80454 0.0888 0.0
H341 H 0.0949 0.90717 0.12 0.0
H342 H 0.06612 0.92195 0.10943 0.0
H343 H 0.09629 0.90913 0.09876 0.0
C344 C 0.97948 0.91463 0.08192 0.0
C345 C 0.00702 0.93593 0.07052 0.0
C346 C 0.98143 0.88634 0.09028 0.0
C347 C 0.01104 0.87889 0.08749 0.0
C348 C 0.03791 0.89921 0.07575 0.0
H349 H 0.07595 0.73802 0.14069 0.0
H350 H 0.07058 0.77691 0.12018 0.0
C351 C 0.03596 0.92755 0.06734 0.0
C352 C 0.01424 0.8507 0.09728 0.0
H353 H 0.06946 0.84249 0.12558 0.0
C354 C 0.98452 0.81273 0.09679 0.0
C355 C 0.04538 0.86152 0.1077 0.0
C356 C 0.0774 0.90218 0.10917 0.0
C357 C 0.9851 0.78526 0.10646 0.0
C358 C 0.0159 0.79625 0.11711 0.0
C359 C 0.04592 0.83408 0.11738 0.0
C360 C 0.01704 0.76953 0.12857 0.0
C361 C 0.95288 0.74471 0.10511 0.0
C362 C 0.98858 0.75222 0.14004 0.0
C363 C 0.99159 0.72999 0.15179 0.0
C364 C 0.02334 0.72498 0.15238 0.0
C365 C 0.05133 0.74163 0.14065 0.0
C366 C 0.04824 0.76374 0.12888 0.0
H367 H 0.93818 0.73881 0.09345 0.0
H368 H 0.96322 0.72444 0.10674 0.0
H369 H 0.93164 0.73952 0.11443 0.0
H370 H 0.96472 0.75703 0.14028 0.0
H371 H 0.96987 0.71812 0.1608 0.0
H372 H 0.09135 0.053 0.41254 0.0
H373 H 0.14372 0.06415 0.43032 0.0
H374 H 0.13792 0.96152 0.4127 0.0
H375 H 0.08456 0.94941 0.39556 0.0
H376 H 0.1389 0.96162 0.44305 0.0
H377 H 0.25413 0.1026 0.42437 0.0
H378 H 0.21215 0.10371 0.4299 0.0
H379 H 0.2108 0.07557 0.41302 0.0
C380 C 0.10174 0.03321 0.4123 0.0
C381 C 0.0838 1.00027 0.40273 0.0
C382 C 0.13185 0.03971 0.4224 0.0
C383 C 0.14521 0.01392 0.42276 0.0
C384 C 0.12817 0.98181 0.4127 0.0
H385 H 0.34809 0.05296 0.47495 0.0
H386 H 0.30253 0.04599 0.45427 0.0
C387 C 0.09767 0.97493 0.40289 0.0
C388 C 0.17461 0.01837 0.43447 0.0
H389 H 0.26321 0.08058 0.44924 0.0
C390 C 0.16622 0.98758 0.44427 0.0
C391 C 0.21052 0.05199 0.436 0.0
C392 C 0.22262 0.08517 0.42514 0.0
C393 C 0.19232 0.98953 0.45563 0.0
C394 C 0.22738 0.02383 0.45775 0.0
C395 C 0.23615 0.05445 0.44778 0.0
C396 C 0.25515 0.02844 0.47028 0.0
C397 C 0.18223 0.95442 0.46498 0.0
C398 C 0.24391 0.02146 0.48618 0.0
C399 C 0.26965 0.02477 0.49791 0.0
C400 C 0.30746 0.03604 0.49405 0.0
C401 C 0.31908 0.04414 0.47822 0.0
C402 C 0.2931 0.04022 0.46643 0.0
H403 H 0.16133 0.9282 0.45849 0.0
H404 H 0.20782 0.95232 0.46766 0.0
H405 H 0.169 0.95551 0.47631 0.0
H406 H 0.2152 0.01359 0.48955 0.0
H407 H 0.26016 0.01916 0.51007 0.0
H408 H 0.11439 0.09653 0.72782 0.0
H409 H 0.16816 0.13984 0.74482 0.0
H410 H 0.09291 0.16188 0.77317 0.0
H411 H 0.03969 0.12019 0.75585 0.0
H412 H 0.15407 0.22535 0.76686 0.0
H413 H 0.19804 0.12482 0.78786 0.0
H414 H 0.19885 0.12862 0.76673 0.0
H415 H 0.15431 0.10928 0.77704 0.0
C416 C 0.10935 0.11044 0.73775 0.0
C417 C 0.07284 0.10502 0.74049 0.0
C418 C 0.14006 0.13499 0.74753 0.0
C419 C 0.13457 0.15374 0.76045 0.0
C420 C 0.09795 0.14782 0.76328 0.0
H421 H 0.27422 0.26377 0.84238 0.0
H422 H 0.2316 0.21925 0.82209 0.0
C423 C 0.0675 0.12396 0.75336 0.0
C424 C 0.16689 0.18087 0.77071 0.0
H425 H 0.2381 0.18964 0.79503 0.0
C426 C 0.17243 0.21749 0.77302 0.0
C427 C 0.19071 0.17058 0.77885 0.0
C428 C 0.18502 0.13109 0.77764 0.0
C429 C 0.20039 0.24378 0.78345 0.0
C430 C 0.22478 0.23382 0.79134 0.0
C431 C 0.21972 0.19742 0.78884 0.0
C432 C 0.25376 0.25979 0.80308 0.0
C433 C 0.20221 0.28127 0.78643 0.0
C434 C 0.28137 0.297 0.79906 0.0
C435 C 0.30528 0.32264 0.81071 0.0
C436 C 0.30273 0.31116 0.82648 0.0
C437 C 0.2769 0.27325 0.83028 0.0
C438 C 0.25252 0.24784 0.8187 0.0
H439 H 0.17526 0.28005 0.78296 0.0
H440 H 0.20804 0.28991 0.7991 0.0
H441 H 0.2254 0.30351 0.77927 0.0
H442 H 0.28371 0.30655 0.787 0.0
H443 H 0.32527 0.35164 0.80748 0.0
H444 H 0.93371 0.06107 0.68838 0.0
H445 H 0.88171 0.05613 0.67202 0.0
H446 H 0.86106 0.94854 0.65313 0.0
H447 H 0.91346 0.95361 0.66924 0.0
H448 H 0.86656 0.99789 0.63007 0.0
H449 H 0.76697 0.98962 0.67685 0.0
H450 H 0.81424 0.02968 0.67895 0.0
H451 H 0.80648 0.98243 0.68084 0.0
C452 C 0.91786 0.03619 0.68085 0.0
C453 C 0.92767 0.00773 0.68007 0.0
C454 C 0.88798 0.03329 0.67159 0.0
C455 C 0.86715 0.00171 0.66153 0.0
C456 C 0.87665 0.97306 0.66088 0.0
H457 H 0.68962 0.93567 0.59069 0.0
H458 H 0.73521 0.93765 0.61006 0.0
C459 C 0.90658 0.97599 0.67009 0.0
C460 C 0.83704 0.99958 0.65094 0.0
H461 H 0.7524 0.99833 0.6505 0.0
C462 C 0.84148 0.99774 0.63454 0.0
C463 C 0.80447 0.99962 0.65681 0.0
C464 C 0.79746 1.00009 0.67433 0.0
C465 C 0.81448 0.9964 0.62382 0.0
C466 C 0.78188 0.99633 0.62968 0.0
C467 C 0.77745 0.99836 0.64607 0.0
C468 C 0.75209 0.99404 0.61889 0.0
C469 C 0.82142 0.99579 0.6063 0.0
C470 C 0.74553 0.02457 0.61784 0.0
C471 C 0.7192 0.02341 0.60687 0.0
C472 C 0.69878 0.99155 0.59683 0.0
C473 C 0.70454 0.96048 0.59834 0.0
C474 C 0.73088 0.96171 0.60928 0.0
H475 H 0.85164 0.00502 0.60375 0.0
H476 H 0.80353 0.96642 0.60159 0.0
H477 H 0.81356 0.01446 0.59987 0.0
H478 H 0.76148 0.04968 0.62525 0.0
H479 H 0.71509 0.0476 0.60613 0.0
H480 H 0.93759 0.91504 0.02498 0.0
H481 H 0.89623 0.86153 0.00733 0.0
H482 H 0.84988 0.92684 0.98773 0.0
H483 H 0.89064 0.98019 0.00525 0.0
H484 H 0.80994 0.82471 0.0046 0.0
H485 H 0.88943 0.88776 0.94924 0.0
H486 H 0.91104 0.90248 0.96867 0.0
H487 H 0.88028 0.91874 0.96145 0.0
C488 C 0.91869 0.91807 0.01687 0.0
C489 C 0.91751 0.95198 0.01652 0.0
C490 C 0.89505 0.88745 0.00685 0.0
C491 C 0.87034 0.89049 0.99619 0.0
C492 C 0.86906 0.92416 0.9958 0.0
H493 H 0.6712 0.74708 0.94254 0.0
H494 H 0.71845 0.786 0.96272 0.0
C495 C 0.89231 0.95456 0.00588 0.0
C496 C 0.84528 0.8585 0.98549 0.0
H497 H 0.82707 0.83425 0.94636 0.0
C498 C 0.81388 0.82643 0.99188 0.0
C499 C 0.85082 0.86079 0.96895 0.0
C500 C 0.88487 0.89412 0.96161 0.0
C501 C 0.78677 0.79729 0.98203 0.0
C502 C 0.79119 0.80062 0.96541 0.0
C503 C 0.82363 0.83183 0.9591 0.0
C504 C 0.76134 0.77362 0.95428 0.0
C505 C 0.75338 0.76349 0.98946 0.0
C506 C 0.76979 0.75381 0.94281 0.0
C507 C 0.74288 0.7317 0.93119 0.0
C508 C 0.70723 0.72945 0.93073 0.0
C509 C 0.69851 0.74849 0.94252 0.0
C510 C 0.72533 0.77041 0.95416 0.0
H511 H 0.75982 0.7596 0.00184 0.0
H512 H 0.72869 0.76804 0.9897 0.0
H513 H 0.74508 0.73705 0.98255 0.0
H514 H 0.79756 0.75621 0.94262 0.0
H515 H 0.75058 0.71772 0.92216 0.0
H516 H 0.97128 0.90067 0.36014 0.0
H517 H 0.97464 0.85161 0.34444 0.0
H518 H 0.06339 0.93819 0.31607 0.0
H519 H 0.061 0.98735 0.33204 0.0
H520 H 0.95958 0.83536 0.314 0.0
H521 H 0.10849 0.87269 0.32511 0.0
H522 H 0.08531 0.89254 0.33673 0.0
H523 H 0.10587 0.91244 0.31788 0.0
C524 C 0.99185 0.90925 0.35068 0.0
C525 C 0.01596 0.94785 0.34733 0.0
C526 C 0.99373 0.88118 0.34172 0.0
C527 C 0.01967 0.89117 0.32923 0.0
C528 C 0.04388 0.92976 0.32592 0.0
H529 H 1.0007 0.76181 0.24542 0.0
H530 H 0.99717 0.80199 0.26623 0.0
C531 C 0.04228 0.95785 0.33498 0.0
C532 C 0.01963 0.86128 0.31898 0.0
H533 H 0.07767 0.83253 0.30239 0.0
C534 C 0.98534 0.83448 0.31162 0.0
C535 C 0.05303 0.8596 0.31608 0.0
C536 C 0.09014 0.88561 0.32451 0.0
C537 C 0.98384 0.80706 0.30096 0.0
C538 C 0.01777 0.80711 0.29722 0.0
C539 C 0.05175 0.83285 0.30508 0.0
C540 C 0.01894 0.78173 0.28475 0.0
C541 C 0.94583 0.77827 0.29388 0.0
C542 C 0.03334 0.75767 0.28812 0.0
C543 C 0.03575 0.7349 0.27617 0.0
C544 C 0.02376 0.73576 0.26065 0.0
C545 C 0.0094 0.7599 0.25733 0.0
C546 C 0.00728 0.78283 0.26923 0.0
H547 H 0.92199 0.77392 0.30167 0.0
H548 H 0.94197 0.78878 0.28238 0.0
H549 H 0.94402 0.75046 0.29179 0.0
H550 H 0.04271 0.75654 0.3 0.0
H551 H 0.04681 0.71648 0.27909 0.0
H552 H 0.08254 0.96581 0.69537 0.0
H553 H 0.13275 0.96466 0.67962 0.0
H554 H 0.15674 0.06901 0.65745 0.0
H555 H 0.10669 0.07013 0.67287 0.0
H556 H 0.14479 0.01158 0.63607 0.0
H557 H 0.24996 0.03078 0.68266 0.0
H558 H 0.20179 0.99323 0.68569 0.0
H559 H 0.21265 0.0417 0.68607 0.0
C560 C 0.09888 0.98871 0.68728 0.0
C561 C 0.09055 0.01797 0.68532 0.0
C562 C 0.12764 0.9881 0.67834 0.0
C563 C 0.14863 0.01689 0.66744 0.0
C564 C 0.14089 0.04652 0.66579 0.0
H565 H 0.35124 0.0876 0.61313 0.0
H566 H 0.30357 0.0781 0.63301 0.0
C567 C 0.11224 0.04709 0.67464 0.0
C568 C 0.17704 0.01539 0.65691 0.0
H569 H 0.26413 0.02184 0.65636 0.0
C570 C 0.17078 0.01357 0.64051 0.0
C571 C 0.211 0.01825 0.66275 0.0
C572 C 0.2196 0.0214 0.68024 0.0
C573 C 0.19779 0.01521 0.62975 0.0
C574 C 0.23177 0.01802 0.63555 0.0
C575 C 0.23791 0.01937 0.65197 0.0
C576 C 0.262 0.02175 0.62465 0.0
C577 C 0.19031 0.01531 0.61225 0.0
C578 C 0.25483 0.9928 0.61364 0.0
C579 C 0.28181 0.99829 0.60215 0.0
C580 C 0.31666 0.03279 0.60152 0.0
C581 C 0.32446 0.06098 0.61309 0.0
C582 C 0.2974 0.05548 0.62455 0.0
H583 H 0.16714 0.02153 0.60989 0.0
H584 H 0.21638 0.03666 0.6061 0.0
H585 H 0.18165 0.98694 0.60705 0.0
H586 H 0.22788 0.96635 0.61364 0.0
H587 H 0.27466 0.97606 0.59337 0.0
H588 H 0.06685 0.16126 0.02108 0.0
H589 H 0.12077 0.20243 0.00451 0.0
H590 H 0.15321 0.11692 0.00169 0.0
H591 H 0.09893 0.07508 0.01834 0.0
H592 H 0.20178 0.22942 0.00926 0.0
H593 H 0.14011 0.14055 0.9547 0.0
H594 H 0.11145 0.13586 0.97178 0.0
H595 H 0.14323 0.11743 0.97216 0.0
C596 C 0.0854 0.15106 0.01701 0.0
C597 C 0.07829 0.11463 0.02095 0.0
C598 C 0.11633 0.17477 0.00757 0.0
C599 C 0.1407 0.16257 0.00176 0.0
C600 C 0.13442 0.12666 0.00594 0.0
H601 H 0.31145 0.27853 0.92818 0.0
H602 H 0.27415 0.23399 0.94895 0.0
C603 C 0.10349 0.10288 0.0155 0.0
C604 C 0.17187 0.1874 0.99096 0.0
H605 H 0.19748 0.19816 0.95207 0.0
C606 C 0.20115 0.22246 0.99678 0.0
C607 C 0.171 0.17812 0.97473 0.0
C608 C 0.13973 0.14108 0.96785 0.0
C609 C 0.22917 0.24892 0.9867 0.0
C610 C 0.22728 0.2404 0.97032 0.0
C611 C 0.19885 0.2047 0.96463 0.0
C612 C 0.25279 0.26893 0.9587 0.0
C613 C 0.26042 0.28578 0.99371 0.0
C614 C 0.25331 0.30345 0.9573 0.0
C615 C 0.27485 0.32911 0.94554 0.0
C616 C 0.29604 0.32062 0.9348 0.0
C617 C 0.29594 0.28625 0.93639 0.0
C618 C 0.27442 0.26062 0.94819 0.0
H619 H 0.26533 0.28271 0.00641 0.0
H620 H 0.28757 0.29601 0.98725 0.0
H621 H 0.25196 0.30768 0.99294 0.0
H622 H 0.23621 0.31016 0.96504 0.0
H623 H 0.27451 0.35541 0.94475 0.0
H624 H 0.0529 0.14613 0.36468 0.0
H625 H 0.05062 0.19685 0.35022 0.0
H626 H 0.95529 0.11272 0.32268 0.0
H627 H 0.95695 0.06229 0.33712 0.0
H628 H 0.05861 0.2106 0.31797 0.0
H629 H 0.91699 0.18251 0.3374 0.0
H630 H 0.94239 0.16289 0.34732 0.0
H631 H 0.91538 0.14065 0.32955 0.0
C632 C 0.03125 0.13853 0.35564 0.0
C633 C 0.00497 0.1002 0.35211 0.0
C634 C 0.03001 0.1675 0.34739 0.0
C635 C 0.00231 0.15857 0.33558 0.0
C636 C 0.97626 0.12033 0.33202 0.0
H637 H 0.94396 0.25359 0.25944 0.0
H638 H 0.95059 0.21581 0.28 0.0
C639 C 0.97743 0.09149 0.34024 0.0
C640 C 0.00141 0.18881 0.32633 0.0
H641 H 0.94141 0.21898 0.31373 0.0
C642 C 0.03327 0.21297 0.31725 0.0
C643 C 0.96833 0.1919 0.32544 0.0
C644 C 0.93399 0.16835 0.33558 0.0
C645 C 0.03216 0.23866 0.30663 0.0
C646 C 0.99844 0.24044 0.30523 0.0
C647 C 0.96714 0.21737 0.31477 0.0
C648 C 0.9941 0.26411 0.29317 0.0
C649 C 0.06636 0.26238 0.29645 0.0
C650 C 0.01599 0.30388 0.29389 0.0
C651 C 0.01204 0.32569 0.28219 0.0
C652 C 0.98601 0.30808 0.26959 0.0
C653 C 0.96379 0.26819 0.26909 0.0
C654 C 0.96772 0.24649 0.28078 0.0
H655 H 0.08766 0.253 0.29705 0.0
H656 H 0.05755 0.2611 0.2839 0.0
H657 H 0.0803 0.29245 0.30051 0.0
H658 H 0.03607 0.31804 0.30351 0.0
H659 H 0.02923 0.35633 0.28306 0.0
loop_
_geom_bond_atom_site_label_1
_geom_bond_atom_site_label_2
_geom_bond_distance
_geom_bond_site_symmetry_2
_ccdc_geom_bond_type
Co0 O1 2.216 1_445 S
Co0 O2 2.091 1_545 S
Co0 O4 2.004 . S
Co0 O10 2.021 1_445 S
Co0 O12 2.137 . S
Co0 O13 2.244 1_455 S
O1 Co0 2.216 1_665 S
O1 C8 1.247 1_655 S
O2 Co0 2.091 1_565 S
O2 C8 1.261 . S
C3 O12 1.247 . S
C3 O13 1.272 1_455 S
O4 Co0 2.004 . S
O4 C9 1.259 . S
Co5 O6 2.061 1_655 S
Co5 O11 2.052 . S
Co5 O13 2.135 . S
O6 Co5 2.061 1_455 S
O6 C9 1.235 . S
C7 O10 1.238 . S
C7 O11 1.241 1_565 S
C8 O1 1.247 1_455 S
C8 O2 1.261 . S
C9 O4 1.259 . S
C9 O6 1.235 . S
O10 Co0 2.021 1_665 S
O10 C7 1.238 . S
O11 Co5 2.052 . S
O11 C7 1.241 1_545 S
O12 Co0 2.137 . S
O12 C3 1.247 . S
O13 Co0 2.244 1_655 S
O13 C3 1.272 1_655 S
O13 Co5 2.135 . S
Co14 O15 2.216 1_455 S
Co14 O16 2.091 . S
Co14 O18 2.004 . S
Co14 O24 2.021 1_455 S
Co14 O26 2.137 . S
Co14 O27 2.244 1_445 S
O15 Co14 2.216 1_655 S
O15 C22 1.247 1_655 S
O16 Co14 2.091 . S
O16 C22 1.261 . S
C17 O26 1.247 1_565 S
C17 O27 1.272 1_455 S
O18 Co14 2.004 . S
O18 C23 1.259 . S
Co19 O20 2.061 1_655 S
Co19 O25 2.052 . S
Co19 O27 2.135 . S
O20 Co19 2.061 1_455 S
O20 C23 1.235 1_565 S
C21 O24 1.238 . S
C21 O25 1.241 1_545 S
C22 O15 1.247 1_455 S
C22 O16 1.261 . S
C23 O18 1.259 . S
C23 O20 1.235 1_545 S
O24 Co14 2.021 1_655 S
O24 C21 1.238 . S
O25 Co19 2.052 . S
O25 C21 1.241 1_565 S
O26 Co14 2.137 . S
O26 C17 1.247 1_545 S
O27 Co14 2.244 1_665 S
O27 C17 1.272 1_655 S
O27 Co19 2.135 . S
Co28 O29 2.216 . S
Co28 O30 2.091 1_545 S
Co28 O32 2.004 1_445 S
Co28 O38 2.021 . S
Co28 O40 2.137 1_445 S
Co28 O41 2.244 1_455 S
O29 Co28 2.216 . S
O29 C36 1.247 . S
O30 Co28 2.091 1_565 S
O30 C36 1.261 1_565 S
C31 O40 1.247 1_545 S
C31 O41 1.272 . S
O32 Co28 2.004 1_665 S
O32 C37 1.259 . S
Co33 O34 2.061 1_545 S
Co33 O39 2.052 1_655 S
Co33 O41 2.135 . S
O34 Co33 2.061 1_565 S
O34 C37 1.235 . S
C35 O38 1.238 . S
C35 O39 1.241 . S
C36 O29 1.247 . S
C36 O30 1.261 1_545 S
C37 O32 1.259 . S
C37 O34 1.235 . S
O38 Co28 2.021 . S
O38 C35 1.238 . S
O39 Co33 2.052 1_455 S
O39 C35 1.241 . S
O40 Co28 2.137 1_665 S
O40 C31 1.247 1_565 S
O41 Co28 2.244 1_655 S
O41 C31 1.272 . S
O41 Co33 2.135 . S
H42 C69 0.929 . S
N43 C68 1.433 . S
N43 C74 1.435 . S
N43 C80 1.423 . S
H44 C70 0.930 . S
H45 C73 0.931 . S
H46 C72 0.929 . S
H47 C75 0.930 . S
H48 C76 0.932 . S
H49 C79 0.929 . S
H50 C78 0.931 . S
H51 C81 0.929 . S
H52 C85 0.932 . S
H53 C82 0.931 . S
H54 C84 0.929 1_455 S
H55 C87 0.929 . S
H56 C88 0.930 . S
H57 C90 0.929 . S
H58 C91 0.931 . S
H59 C93 0.930 . S
H60 C94 0.932 . S
H61 C96 0.931 . S
H62 C97 0.929 . S
H63 C99 0.929 . S
H64 C100 0.931 . S
H65 C102 0.929 1_455 S
N66 C86 1.433 . S
N66 C92 1.435 . S
N66 C98 1.423 . S
H67 C103 0.932 . S
C68 N43 1.433 . S
C68 C69 1.363 . S
C68 C73 1.370 1_655 S
C69 H42 0.929 . S
C69 C68 1.363 . S
C69 C70 1.385 . S
C70 H44 0.930 . S
C70 C69 1.385 . S
C70 C71 1.357 1_655 S
C71 C70 1.357 1_455 S
C71 C72 1.406 . S
C72 H46 0.929 . S
C72 C71 1.406 . S
C72 C73 1.391 . S
C73 H45 0.931 . S
C73 C68 1.370 1_455 S
C73 C72 1.391 . S
C74 N43 1.435 . S
C74 C75 1.358 1_655 S
C74 C79 1.371 . S
C75 H47 0.930 . S
C75 C74 1.358 1_455 S
C75 C76 1.405 . S
C76 H48 0.932 . S
C76 C75 1.405 . S
C76 C77 1.383 . S
C77 C76 1.383 . S
C77 C78 1.393 1_455 S
C78 H50 0.931 . S
C78 C77 1.393 1_655 S
C78 C79 1.382 . S
C79 H49 0.929 . S
C79 C74 1.371 . S
C79 C78 1.382 . S
C80 N43 1.423 . S
C80 C81 1.362 . S
C80 C85 1.388 1_655 S
C81 H51 0.929 . S
C81 C80 1.362 . S
C81 C82 1.376 . S
C82 H53 0.931 . S
C82 C81 1.376 . S
C82 C83 1.396 . S
C83 C82 1.396 . S
C83 C84 1.348 . S
C83 C101 1.472 . S
C84 H54 0.929 1_655 S
C84 C83 1.348 . S
C84 C85 1.443 1_655 S
C85 H52 0.932 . S
C85 C80 1.388 1_455 S
C85 C84 1.443 1_455 S
C86 N66 1.433 . S
C86 C87 1.363 . S
C86 C91 1.370 1_655 S
C87 H55 0.929 . S
C87 C86 1.363 . S
C87 C88 1.385 . S
C88 H56 0.930 . S
C88 C87 1.385 . S
C88 C89 1.357 1_655 S
C89 C88 1.357 1_455 S
C89 C90 1.406 . S
C90 H57 0.929 . S
C90 C89 1.406 . S
C90 C91 1.391 . S
C91 H58 0.931 . S
C91 C86 1.370 1_455 S
C91 C90 1.391 . S
C92 N66 1.435 . S
C92 C93 1.358 1_655 S
C92 C97 1.371 . S
C93 H59 0.930 . S
C93 C92 1.358 1_455 S
C93 C94 1.405 . S
C94 H60 0.932 . S
C94 C93 1.405 . S
C94 C95 1.383 . S
C95 C94 1.383 . S
C95 C96 1.393 1_455 S
C96 H61 0.931 . S
C96 C95 1.393 1_655 S
C96 C97 1.382 . S
C97 H62 0.929 . S
C97 C92 1.371 . S
C97 C96 1.382 . S
C98 N66 1.423 . S
C98 C99 1.362 . S
C98 C103 1.388 1_655 S
C99 H63 0.929 . S
C99 C98 1.362 . S
C99 C100 1.376 . S
C100 H64 0.931 . S
C100 C99 1.376 . S
C100 C101 1.396 . S
C101 C83 1.472 . S
C101 C100 1.396 . S
C101 C102 1.348 . S
C102 H65 0.929 1_655 S
C102 C101 1.348 . S
C102 C103 1.443 1_655 S
C103 H67 0.932 . S
C103 C98 1.388 1_455 S
C103 C102 1.443 1_455 S
H104 C131 0.929 . S
N105 C130 1.433 . S
N105 C136 1.435 . S
N105 C142 1.423 . S
H106 C132 0.930 . S
H107 C135 0.931 . S
H108 C134 0.929 . S
H109 C137 0.930 . S
H110 C138 0.932 . S
H111 C141 0.929 . S
H112 C140 0.931 . S
H113 C143 0.929 . S
H114 C147 0.932 1_565 S
H115 C144 0.931 . S
H116 C146 0.929 . S
H117 C149 0.929 . S
H118 C150 0.930 . S
H119 C152 0.929 . S
H120 C153 0.933 . S
H121 C155 0.930 . S
H122 C156 0.932 . S
H123 C158 0.931 . S
H124 C159 0.929 . S
H125 C161 0.929 . S
H126 C162 0.931 . S
H127 C164 0.929 . S
N128 C148 1.433 . S
N128 C154 1.435 . S
N128 C160 1.423 . S
H129 C165 0.932 1_565 S
C130 N105 1.433 . S
C130 C131 1.363 . S
C130 C135 1.369 1_545 S
C131 H104 0.929 . S
C131 C130 1.363 . S
C131 C132 1.385 . S
C132 H106 0.930 . S
C132 C131 1.385 . S
C132 C133 1.357 . S
C133 C132 1.357 . S
C133 C134 1.406 1_545 S
C134 H108 0.929 . S
C134 C133 1.406 1_565 S
C134 C135 1.392 . S
C135 H107 0.931 . S
C135 C130 1.369 1_565 S
C135 C134 1.392 . S
C136 N105 1.435 . S
C136 C137 1.358 1_545 S
C136 C141 1.371 . S
C137 H109 0.930 . S
C137 C136 1.358 1_565 S
C137 C138 1.405 . S
C138 H110 0.932 . S
C138 C137 1.405 . S
C138 C139 1.383 1_565 S
C139 C138 1.383 1_545 S
C139 C140 1.393 . S
C140 H112 0.931 . S
C140 C139 1.393 . S
C140 C141 1.382 . S
C141 H111 0.929 . S
C141 C136 1.371 . S
C141 C140 1.382 . S
C142 N105 1.423 . S
C142 C143 1.362 . S
C142 C147 1.388 . S
C143 H113 0.929 . S
C143 C142 1.362 . S
C143 C144 1.376 . S
C144 H115 0.931 . S
C144 C143 1.376 . S
C144 C145 1.396 . S
C145 C144 1.396 . S
C145 C146 1.348 . S
C145 C163 1.472 . S
C146 H116 0.929 . S
C146 C145 1.348 . S
C146 C147 1.443 . S
C147 H114 0.932 1_545 S
C147 C142 1.388 . S
C147 C146 1.443 . S
C148 N128 1.433 . S
C148 C149 1.363 . S
C148 C153 1.368 1_545 S
C149 H117 0.929 . S
C149 C148 1.363 . S
C149 C150 1.385 . S
C150 H118 0.930 . S
C150 C149 1.385 . S
C150 C151 1.357 . S
C151 C150 1.357 . S
C151 C152 1.406 1_545 S
C152 H119 0.929 . S
C152 C151 1.406 1_565 S
C152 C153 1.391 . S
C153 H120 0.933 . S
C153 C148 1.368 1_565 S
C153 C152 1.391 . S
C154 N128 1.435 . S
C154 C155 1.358 1_545 S
C154 C159 1.371 . S
C155 H121 0.930 . S
C155 C154 1.358 1_565 S
C155 C156 1.405 . S
C156 H122 0.932 . S
C156 C155 1.405 . S
C156 C157 1.383 1_565 S
C157 C156 1.383 1_545 S
C157 C158 1.393 . S
C158 H123 0.931 . S
C158 C157 1.393 . S
C158 C159 1.382 . S
C159 H124 0.929 . S
C159 C154 1.371 . S
C159 C158 1.382 . S
C160 N128 1.423 . S
C160 C161 1.362 . S
C160 C165 1.388 . S
C161 H125 0.929 . S
C161 C160 1.362 . S
C161 C162 1.376 . S
C162 H126 0.931 . S
C162 C161 1.376 . S
C162 C163 1.396 . S
C163 C145 1.472 . S
C163 C162 1.396 . S
C163 C164 1.348 . S
C164 H127 0.929 . S
C164 C163 1.348 . S
C164 C165 1.443 . S
C165 H129 0.932 1_545 S
C165 C160 1.388 . S
C165 C164 1.443 . S
H166 C193 0.929 . S
N167 C192 1.433 . S
N167 C198 1.435 . S
N167 C204 1.423 . S
H168 C194 0.930 . S
H169 C197 0.931 . S
H170 C196 0.929 . S
H171 C199 0.930 . S
H172 C200 0.932 . S
H173 C203 0.929 . S
H174 C202 0.931 . S
H175 C205 0.929 . S
H176 C209 0.932 . S
H177 C206 0.931 . S
H178 C208 0.929 . S
H179 C211 0.929 . S
H180 C212 0.930 . S
H181 C214 0.929 . S
H182 C215 0.931 . S
H183 C217 0.930 . S
H184 C218 0.932 . S
H185 C220 0.931 . S
H186 C221 0.929 . S
H187 C223 0.929 . S
H188 C224 0.931 . S
H189 C226 0.929 . S
N190 C210 1.433 . S
N190 C216 1.435 . S
N190 C222 1.423 . S
H191 C227 0.932 . S
C192 N167 1.433 . S
C192 C193 1.363 . S
C192 C197 1.370 . S
C193 H166 0.929 . S
C193 C192 1.363 . S
C193 C194 1.385 . S
C194 H168 0.930 . S
C194 C193 1.385 . S
C194 C195 1.357 . S
C195 C194 1.357 . S
C195 C196 1.406 . S
C196 H170 0.929 . S
C196 C195 1.406 . S
C196 C197 1.391 . S
C197 H169 0.931 . S
C197 C192 1.370 . S
C197 C196 1.391 . S
C198 N167 1.435 . S
C198 C199 1.358 . S
C198 C203 1.371 . S
C199 H171 0.930 . S
C199 C198 1.358 . S
C199 C200 1.405 . S
C200 H172 0.932 . S
C200 C199 1.405 . S
C200 C201 1.383 . S
C201 C200 1.383 . S
C201 C202 1.393 . S
C202 H174 0.931 . S
C202 C201 1.393 . S
C202 C203 1.382 . S
C203 H173 0.929 . S
C203 C198 1.371 . S
C203 C202 1.382 . S
C204 N167 1.423 . S
C204 C205 1.362 . S
C204 C209 1.388 . S
C205 H175 0.929 . S
C205 C204 1.362 . S
C205 C206 1.376 . S
C206 H177 0.931 . S
C206 C205 1.376 . S
C206 C207 1.396 . S
C207 C206 1.396 . S
C207 C208 1.348 . S
C207 C225 1.472 . S
C208 H178 0.929 . S
C208 C207 1.348 . S
C208 C209 1.443 . S
C209 H176 0.932 . S
C209 C204 1.388 . S
C209 C208 1.443 . S
C210 N190 1.433 . S
C210 C211 1.363 . S
C210 C215 1.370 . S
C211 H179 0.929 . S
C211 C210 1.363 . S
C211 C212 1.385 . S
C212 H180 0.930 . S
C212 C211 1.385 . S
C212 C213 1.357 . S
C213 C212 1.357 . S
C213 C214 1.406 . S
C214 H181 0.929 . S
C214 C213 1.406 . S
C214 C215 1.391 . S
C215 H182 0.931 . S
C215 C210 1.370 . S
C215 C214 1.391 . S
C216 N190 1.435 . S
C216 C217 1.358 . S
C216 C221 1.371 . S
C217 H183 0.930 . S
C217 C216 1.358 . S
C217 C218 1.405 . S
C218 H184 0.932 . S
C218 C217 1.405 . S
C218 C219 1.383 . S
C219 C218 1.383 . S
C219 C220 1.393 . S
C220 H185 0.931 . S
C220 C219 1.393 . S
C220 C221 1.382 . S
C221 H186 0.929 . S
C221 C216 1.371 . S
C221 C220 1.382 . S
C222 N190 1.423 . S
C222 C223 1.362 . S
C222 C227 1.388 . S
C223 H187 0.929 . S
C223 C222 1.362 . S
C223 C224 1.376 . S
C224 H188 0.931 . S
C224 C223 1.376 . S
C224 C225 1.396 . S
C225 C207 1.472 . S
C225 C224 1.396 . S
C225 C226 1.348 . S
C226 H189 0.929 . S
C226 C225 1.348 . S
C226 C227 1.443 . S
C227 H191 0.932 . S
C227 C222 1.388 . S
C227 C226 1.443 . S
H228 C236 0.929 . S
H229 C238 0.930 . S
H230 C240 0.930 . S
H231 C243 0.929 . S
H232 C246 0.930 . S
H233 C248 0.960 . S
H234 C248 0.960 . S
H235 C248 0.960 . S
C236 H228 0.929 . S
C236 C237 1.377 . S
C236 C238 1.384 . S
C237 C236 1.377 . S
C237 C243 1.390 1_455 S
C238 H229 0.930 . S
C238 C236 1.384 . S
C238 C239 1.372 . S
C239 C238 1.372 . S
C239 C240 1.400 1_455 S
C239 C244 1.490 . S
C240 H230 0.930 . S
C240 C239 1.400 1_655 S
C240 C243 1.386 . S
H241 C257 0.930 . S
H242 C258 0.931 . S
C243 H231 0.929 . S
C243 C237 1.390 1_655 S
C243 C240 1.386 . S
C244 C239 1.490 . S
C244 C246 1.395 . S
C244 C247 1.403 1_455 S
H245 C251 0.930 . S
C246 H232 0.930 . S
C246 C244 1.395 . S
C246 C249 1.403 . S
C247 C244 1.403 1_655 S
C247 C248 1.524 . S
C247 C251 1.400 . S
C248 H233 0.960 . S
C248 H234 0.960 . S
C248 H235 0.960 . S
C248 C247 1.524 . S
C249 C246 1.403 . S
C249 C250 1.392 . S
C249 C253 1.495 . S
C250 C249 1.392 . S
C250 C251 1.385 1_455 S
C250 C252 1.478 . S
C251 H245 0.930 . S
C251 C247 1.400 . S
C251 C250 1.385 1_655 S
C252 C250 1.478 . S
C252 C254 1.381 . S
C252 C258 1.383 1_455 S
C253 C249 1.495 . S
C253 H259 0.959 . S
C253 H260 0.961 . S
C253 H261 0.960 . S
C254 C252 1.381 . S
C254 C255 1.394 . S
C254 H262 0.930 . S
C255 C254 1.394 . S
C255 C256 1.383 . S
C255 H263 0.929 . S
C256 C255 1.383 . S
C256 C257 1.377 1_455 S
C257 H241 0.930 . S
C257 C256 1.377 1_655 S
C257 C258 1.379 . S
C258 H242 0.931 . S
C258 C252 1.383 1_655 S
C258 C257 1.379 . S
H259 C253 0.959 . S
H260 C253 0.961 . S
H261 C253 0.960 . S
H262 C254 0.930 . S
H263 C255 0.929 . S
H264 C272 0.929 . S
H265 C274 0.930 . S
H266 C276 0.930 . S
H267 C279 0.929 . S
H268 C282 0.930 . S
H269 C284 0.960 . S
H270 C284 0.960 . S
H271 C284 0.960 . S
C272 H264 0.929 . S
C272 C273 1.377 . S
C272 C274 1.384 . S
C273 C272 1.377 . S
C273 C279 1.390 . S
C274 H265 0.930 . S
C274 C272 1.384 . S
C274 C275 1.372 . S
C275 C274 1.372 . S
C275 C276 1.400 . S
C275 C280 1.490 . S
C276 H266 0.930 . S
C276 C275 1.400 . S
C276 C279 1.386 . S
H277 C293 0.930 . S
H278 C294 0.931 . S
C279 H267 0.929 . S
C279 C273 1.390 . S
C279 C276 1.386 . S
C280 C275 1.490 . S
C280 C282 1.395 1_545 S
C280 C283 1.403 . S
H281 C287 0.930 . S
C282 H268 0.930 . S
C282 C280 1.395 1_565 S
C282 C285 1.403 . S
C283 C280 1.403 . S
C283 C284 1.524 . S
C283 C287 1.400 . S
C284 H269 0.960 . S
C284 H270 0.960 . S
C284 H271 0.960 . S
C284 C283 1.524 . S
C285 C282 1.403 . S
C285 C286 1.392 1_565 S
C285 C289 1.495 . S
C286 C285 1.392 1_545 S
C286 C287 1.385 . S
C286 C288 1.478 . S
C287 H281 0.930 . S
C287 C283 1.400 . S
C287 C286 1.385 . S
C288 C286 1.478 . S
C288 C290 1.381 . S
C288 C294 1.383 1_545 S
C289 C285 1.495 . S
C289 H295 0.959 . S
C289 H296 0.961 . S
C289 H297 0.960 . S
C290 C288 1.381 . S
C290 C291 1.394 . S
C290 H298 0.930 . S
C291 C290 1.394 . S
C291 C292 1.383 . S
C291 H299 0.929 . S
C292 C291 1.383 . S
C292 C293 1.377 1_545 S
C293 H277 0.930 . S
C293 C292 1.377 1_565 S
C293 C294 1.379 . S
C294 H278 0.931 . S
C294 C288 1.383 1_565 S
C294 C293 1.379 . S
H295 C289 0.959 . S
H296 C289 0.961 . S
H297 C289 0.960 . S
H298 C290 0.930 . S
H299 C291 0.929 . S
H300 C308 0.929 . S
H301 C310 0.930 . S
H302 C312 0.930 . S
H303 C315 0.929 . S
H304 C318 0.930 . S
H305 C320 0.960 . S
H306 C320 0.960 . S
H307 C320 0.960 . S
C308 H300 0.929 . S
C308 C309 1.377 . S
C308 C310 1.384 . S
C309 C308 1.377 . S
C309 C315 1.390 . S
C310 H301 0.930 . S
C310 C308 1.384 . S
C310 C311 1.372 . S
C311 C310 1.372 . S
C311 C312 1.400 . S
C311 C316 1.490 . S
C312 H302 0.930 . S
C312 C311 1.400 . S
C312 C315 1.386 . S
H313 C329 0.930 . S
H314 C330 0.931 . S
C315 H303 0.929 . S
C315 C309 1.390 . S
C315 C312 1.386 . S
C316 C311 1.490 . S
C316 C318 1.395 . S
C316 C319 1.403 . S
H317 C323 0.930 . S
C318 H304 0.930 . S
C318 C316 1.395 . S
C318 C321 1.403 . S
C319 C316 1.403 . S
C319 C320 1.524 . S
C319 C323 1.400 . S
C320 H305 0.960 . S
C320 H306 0.960 . S
C320 H307 0.960 . S
C320 C319 1.524 . S
C321 C318 1.403 . S
C321 C322 1.392 . S
C321 C325 1.495 . S
C322 C321 1.392 . S
C322 C323 1.385 . S
C322 C324 1.478 . S
C323 H317 0.930 . S
C323 C319 1.400 . S
C323 C322 1.385 . S
C324 C322 1.478 . S
C324 C326 1.381 . S
C324 C330 1.383 . S
C325 C321 1.495 . S
C325 H331 0.959 . S
C325 H332 0.961 . S
C325 H333 0.960 . S
C326 C324 1.381 . S
C326 C327 1.394 . S
C326 H334 0.930 . S
C327 C326 1.394 . S
C327 C328 1.383 . S
C327 H335 0.929 . S
C328 C327 1.383 . S
C328 C329 1.377 . S
C329 H313 0.930 . S
C329 C328 1.377 . S
C329 C330 1.379 . S
C330 H314 0.931 . S
C330 C324 1.383 . S
C330 C329 1.379 . S
H331 C325 0.959 . S
H332 C325 0.961 . S
H333 C325 0.960 . S
H334 C326 0.930 . S
H335 C327 0.929 . S
H336 C344 0.929 . S
H337 C346 0.930 . S
H338 C348 0.930 . S
H339 C351 0.929 . S
H340 C354 0.930 . S
H341 C356 0.960 . S
H342 C356 0.960 . S
H343 C356 0.960 . S
C344 H336 0.929 . S
C344 C345 1.377 1_655 S
C344 C346 1.384 . S
C345 C344 1.377 1_455 S
C345 C351 1.390 . S
C346 H337 0.930 . S
C346 C344 1.384 . S
C346 C347 1.372 1_655 S
C347 C346 1.372 1_455 S
C347 C348 1.400 . S
C347 C352 1.490 . S
C348 H338 0.930 . S
C348 C347 1.400 . S
C348 C351 1.386 . S
H349 C365 0.930 . S
H350 C366 0.931 . S
C351 H339 0.929 . S
C351 C345 1.390 . S
C351 C348 1.386 . S
C352 C347 1.490 . S
C352 C354 1.395 1_455 S
C352 C355 1.403 . S
H353 C359 0.930 . S
C354 H340 0.930 . S
C354 C352 1.395 1_655 S
C354 C357 1.403 . S
C355 C352 1.403 . S
C355 C356 1.524 . S
C355 C359 1.400 . S
C356 H341 0.960 . S
C356 H342 0.960 . S
C356 H343 0.960 . S
C356 C355 1.524 . S
C357 C354 1.403 . S
C357 C358 1.393 . S
C357 C361 1.495 . S
C358 C357 1.393 . S
C358 C359 1.385 1_655 S
C358 C360 1.484 . S
C359 H353 0.930 . S
C359 C355 1.400 . S
C359 C358 1.385 1_455 S
C360 C358 1.484 . S
C360 C362 1.391 . S
C360 C366 1.366 1_655 S
C361 C357 1.495 . S
C361 H367 0.959 . S
C361 H368 0.961 . S
C361 H369 0.960 . S
C362 C360 1.391 . S
C362 C363 1.394 . S
C362 H370 0.930 . S
C363 C362 1.394 . S
C363 C364 1.383 1_655 S
C363 H371 0.929 . S
C364 C363 1.383 1_455 S
C364 C365 1.377 . S
C365 H349 0.930 . S
C365 C364 1.377 . S
C365 C366 1.379 . S
C366 H350 0.931 . S
C366 C360 1.366 1_455 S
C366 C365 1.379 . S
H367 C361 0.959 . S
H368 C361 0.961 . S
H369 C361 0.960 . S
H370 C362 0.930 . S
H371 C363 0.929 . S
H372 C380 0.929 . S
H373 C382 0.930 . S
H374 C384 0.930 . S
H375 C387 0.929 . S
H376 C390 0.930 . S
H377 C392 0.960 . S
H378 C392 0.960 . S
H379 C392 0.960 . S
C380 H372 0.929 . S
C380 C381 1.377 . S
C380 C382 1.384 . S
C381 C380 1.377 . S
C381 C387 1.390 . S
C382 H373 0.930 . S
C382 C380 1.384 . S
C382 C383 1.372 . S
C383 C382 1.372 . S
C383 C384 1.400 . S
C383 C388 1.490 . S
C384 H374 0.930 . S
C384 C383 1.400 . S
C384 C387 1.386 . S
H385 C401 0.930 . S
H386 C402 0.931 . S
C387 H375 0.929 . S
C387 C381 1.390 . S
C387 C384 1.386 . S
C388 C383 1.490 . S
C388 C390 1.395 1_545 S
C388 C391 1.403 . S
H389 C395 0.930 . S
C390 H376 0.930 . S
C390 C388 1.395 1_565 S
C390 C393 1.403 . S
C391 C388 1.403 . S
C391 C392 1.524 . S
C391 C395 1.400 . S
C392 H377 0.960 . S
C392 H378 0.960 . S
C392 H379 0.960 . S
C392 C391 1.524 . S
C393 C390 1.403 . S
C393 C394 1.392 1_565 S
C393 C397 1.495 . S
C394 C393 1.392 1_545 S
C394 C395 1.385 . S
C394 C396 1.478 . S
C395 H389 0.930 . S
C395 C391 1.400 . S
C395 C394 1.385 . S
C396 C394 1.478 . S
C396 C398 1.381 . S
C396 C402 1.383 1_545 S
C397 C393 1.495 . S
C397 H403 0.959 . S
C397 H404 0.961 . S
C397 H405 0.960 . S
C398 C396 1.381 . S
C398 C399 1.394 . S
C398 H406 0.930 . S
C399 C398 1.394 . S
C399 C400 1.383 . S
C399 H407 0.929 . S
C400 C399 1.383 . S
C400 C401 1.377 1_545 S
C401 H385 0.930 . S
C401 C400 1.377 1_565 S
C401 C402 1.379 . S
C402 H386 0.931 . S
C402 C396 1.383 1_565 S
C402 C401 1.379 . S
H403 C397 0.959 . S
H404 C397 0.961 . S
H405 C397 0.960 . S
H406 C398 0.930 . S
H407 C399 0.929 . S
H408 C416 0.929 . S
H409 C418 0.930 . S
H410 C420 0.930 . S
H411 C423 0.929 . S
H412 C426 0.930 . S
H413 C428 0.960 . S
H414 C428 0.960 . S
H415 C428 0.960 . S
C416 H408 0.929 . S
C416 C417 1.377 . S
C416 C418 1.384 . S
C417 C416 1.377 . S
C417 C423 1.390 . S
C418 H409 0.930 . S
C418 C416 1.384 . S
C418 C419 1.372 . S
C419 C418 1.372 . S
C419 C420 1.400 . S
C419 C424 1.490 . S
C420 H410 0.930 . S
C420 C419 1.400 . S
C420 C423 1.386 . S
H421 C437 0.930 . S
H422 C438 0.931 . S
C423 H411 0.929 . S
C423 C417 1.390 . S
C423 C420 1.386 . S
C424 C419 1.490 . S
C424 C426 1.395 . S
C424 C427 1.403 . S
H425 C431 0.930 . S
C426 H412 0.930 . S
C426 C424 1.395 . S
C426 C429 1.403 . S
C427 C424 1.403 . S
C427 C428 1.524 . S
C427 C431 1.400 . S
C428 H413 0.960 . S
C428 H414 0.960 . S
C428 H415 0.960 . S
C428 C427 1.524 . S
C429 C426 1.403 . S
C429 C430 1.392 . S
C429 C433 1.495 . S
C430 C429 1.392 . S
C430 C431 1.385 . S
C430 C432 1.478 . S
C431 H425 0.930 . S
C431 C427 1.400 . S
C431 C430 1.385 . S
C432 C430 1.478 . S
C432 C434 1.381 . S
C432 C438 1.383 . S
C433 C429 1.495 . S
C433 H439 0.959 . S
C433 H440 0.961 . S
C433 H441 0.960 . S
C434 C432 1.381 . S
C434 C435 1.394 . S
C434 H442 0.930 . S
C435 C434 1.394 . S
C435 C436 1.383 . S
C435 H443 0.929 . S
C436 C435 1.383 . S
C436 C437 1.377 . S
C437 H421 0.930 . S
C437 C436 1.377 . S
C437 C438 1.379 . S
C438 H422 0.931 . S
C438 C432 1.383 . S
C438 C437 1.379 . S
H439 C433 0.959 . S
H440 C433 0.961 . S
H441 C433 0.960 . S
H442 C434 0.930 . S
H443 C435 0.929 . S
H444 C452 0.929 . S
H445 C454 0.930 . S
H446 C456 0.930 . S
H447 C459 0.929 . S
H448 C462 0.924 1_565 S
H449 C464 0.960 . S
H450 C464 0.960 . S
H451 C464 0.960 . S
C452 H444 0.929 . S
C452 C453 1.377 . S
C452 C454 1.384 . S
C453 C452 1.377 . S
C453 C459 1.390 1_545 S
C454 H445 0.930 . S
C454 C452 1.384 . S
C454 C455 1.372 . S
C455 C454 1.372 . S
C455 C456 1.400 1_545 S
C455 C460 1.490 . S
C456 H446 0.930 . S
C456 C455 1.400 1_565 S
C456 C459 1.386 . S
H457 C473 0.930 . S
H458 C474 0.931 . S
C459 H447 0.929 . S
C459 C453 1.390 1_565 S
C459 C456 1.386 . S
C460 C455 1.490 . S
C460 C462 1.397 . S
C460 C463 1.403 . S
H461 C467 0.930 . S
C462 H448 0.924 1_545 S
C462 C460 1.397 . S
C462 C465 1.407 1_545 S
C463 C460 1.403 . S
C463 C464 1.524 . S
C463 C467 1.400 . S
C464 H449 0.960 . S
C464 H450 0.960 . S
C464 H451 0.960 . S
C464 C463 1.524 . S
C465 C462 1.407 1_565 S
C465 C466 1.392 1_565 S
C465 C469 1.495 . S
C466 C465 1.392 1_545 S
C466 C467 1.385 . S
C466 C468 1.478 . S
C467 H461 0.930 . S
C467 C463 1.400 . S
C467 C466 1.385 . S
C468 C466 1.478 . S
C468 C470 1.381 . S
C468 C474 1.383 1_545 S
C469 C465 1.495 . S
C469 H475 0.959 . S
C469 H476 0.961 . S
C469 H477 0.960 1_565 S
C470 C468 1.381 . S
C470 C471 1.394 . S
C470 H478 0.930 . S
C471 C470 1.394 . S
C471 C472 1.383 . S
C471 H479 0.929 . S
C472 C471 1.383 . S
C472 C473 1.377 1_545 S
C473 H457 0.930 . S
C473 C472 1.377 1_565 S
C473 C474 1.379 . S
C474 H458 0.931 . S
C474 C468 1.383 1_565 S
C474 C473 1.379 . S
H475 C469 0.959 . S
H476 C469 0.961 . S
H477 C469 0.960 1_545 S
H478 C470 0.930 . S
H479 C471 0.929 . S
H480 C488 0.929 . S
H481 C490 0.930 . S
H482 C492 0.930 . S
H483 C495 0.930 . S
H484 C498 0.930 1_554 S
H485 C500 0.960 . S
H486 C500 0.960 . S
H487 C500 0.960 . S
C488 H480 0.929 . S
C488 C489 1.377 . S
C488 C490 1.384 . S
C489 C488 1.377 . S
C489 C495 1.387 1_554 S
C490 H481 0.930 . S
C490 C488 1.384 . S
C490 C491 1.372 1_554 S
C491 C490 1.372 1_556 S
C491 C492 1.400 . S
C491 C496 1.490 . S
C492 H482 0.930 . S
C492 C491 1.400 . S
C492 C495 1.387 . S
H493 C509 0.930 . S
H494 C510 0.931 . S
C495 H483 0.930 . S
C495 C489 1.387 1_556 S
C495 C492 1.387 . S
C496 C491 1.490 . S
C496 C498 1.395 . S
C496 C499 1.403 . S
H497 C503 0.930 . S
C498 H484 0.930 1_556 S
C498 C496 1.395 . S
C498 C501 1.403 . S
C499 C496 1.403 . S
C499 C500 1.524 . S
C499 C503 1.400 . S
C500 H485 0.960 . S
C500 H486 0.960 . S
C500 H487 0.960 . S
C500 C499 1.524 . S
C501 C498 1.403 . S
C501 C502 1.392 . S
C501 C505 1.495 . S
C502 C501 1.392 . S
C502 C503 1.385 . S
C502 C504 1.478 . S
C503 H497 0.930 . S
C503 C499 1.400 . S
C503 C502 1.385 . S
C504 C502 1.478 . S
C504 C506 1.381 . S
C504 C510 1.383 . S
C505 C501 1.495 . S
C505 H511 0.959 1_556 S
C505 H512 0.961 . S
C505 H513 0.960 . S
C506 C504 1.381 . S
C506 C507 1.394 . S
C506 H514 0.930 . S
C507 C506 1.394 . S
C507 C508 1.383 . S
C507 H515 0.929 . S
C508 C507 1.383 . S
C508 C509 1.377 . S
C509 H493 0.930 . S
C509 C508 1.377 . S
C509 C510 1.379 . S
C510 H494 0.931 . S
C510 C504 1.383 . S
C510 C509 1.379 . S
H511 C505 0.959 1_554 S
H512 C505 0.961 . S
H513 C505 0.960 . S
H514 C506 0.930 . S
H515 C507 0.929 . S
H516 C524 0.936 . S
H517 C526 0.930 . S
H518 C528 0.930 . S
H519 C531 0.929 . S
H520 C534 0.930 . S
H521 C536 0.960 . S
H522 C536 0.960 . S
H523 C536 0.960 . S
C524 H516 0.936 . S
C524 C525 1.383 1_655 S
C524 C526 1.373 . S
C525 C524 1.383 1_455 S
C525 C531 1.390 . S
C526 H517 0.930 . S
C526 C524 1.373 . S
C526 C527 1.372 1_655 S
C527 C526 1.372 1_455 S
C527 C528 1.400 . S
C527 C532 1.490 . S
C528 H518 0.930 . S
C528 C527 1.400 . S
C528 C531 1.386 . S
H529 C545 0.930 . S
H530 C546 0.931 . S
C531 H519 0.929 . S
C531 C525 1.390 . S
C531 C528 1.386 . S
C532 C527 1.490 . S
C532 C534 1.395 1_455 S
C532 C535 1.403 . S
H533 C539 0.930 . S
C534 H520 0.930 . S
C534 C532 1.395 1_655 S
C534 C537 1.403 . S
C535 C532 1.403 . S
C535 C536 1.524 . S
C535 C539 1.400 . S
C536 H521 0.960 . S
C536 H522 0.960 . S
C536 H523 0.960 . S
C536 C535 1.524 . S
C537 C534 1.403 . S
C537 C538 1.392 1_655 S
C537 C541 1.495 . S
C538 C537 1.392 1_455 S
C538 C539 1.385 . S
C538 C540 1.491 1_455 S
C539 H533 0.930 . S
C539 C535 1.400 . S
C539 C538 1.385 . S
C540 C538 1.491 1_655 S
C540 C542 1.372 . S
C540 C546 1.377 1_655 S
C541 C537 1.495 . S
C541 H547 0.959 . S
C541 H548 0.961 . S
C541 H549 0.960 . S
C542 C540 1.372 . S
C542 C543 1.394 . S
C542 H550 0.930 . S
C543 C542 1.394 . S
C543 C544 1.383 1_655 S
C543 H551 0.929 . S
C544 C543 1.383 1_455 S
C544 C545 1.377 . S
C545 H529 0.930 . S
C545 C544 1.377 . S
C545 C546 1.379 . S
C546 H530 0.931 . S
C546 C540 1.377 1_455 S
C546 C545 1.379 . S
H547 C541 0.959 . S
H548 C541 0.961 . S
H549 C541 0.960 . S
H550 C542 0.930 . S
H551 C543 0.929 . S
H552 C560 0.929 . S
H553 C562 0.930 . S
H554 C564 0.930 . S
H555 C567 0.929 . S
H556 C570 0.930 . S
H557 C572 0.960 . S
H558 C572 0.960 . S
H559 C572 0.960 1_545 S
C560 H552 0.929 . S
C560 C561 1.377 1_565 S
C560 C562 1.384 . S
C561 C560 1.377 1_545 S
C561 C567 1.390 . S
C562 H553 0.930 . S
C562 C560 1.384 . S
C562 C563 1.372 1_565 S
C563 C562 1.372 1_545 S
C563 C564 1.400 . S
C563 C568 1.490 . S
C564 H554 0.930 . S
C564 C563 1.400 . S
C564 C567 1.386 . S
H565 C581 0.930 . S
H566 C582 0.931 . S
C567 H555 0.929 . S
C567 C561 1.390 . S
C567 C564 1.386 . S
C568 C563 1.490 . S
C568 C570 1.395 . S
C568 C571 1.403 1_545 S
H569 C575 0.953 . S
C570 H556 0.930 . S
C570 C568 1.395 . S
C570 C573 1.403 . S
C571 C568 1.403 1_565 S
C571 C572 1.524 . S
C571 C575 1.388 . S
C572 H557 0.960 . S
C572 H558 0.960 . S
C572 H559 0.960 1_565 S
C572 C571 1.524 . S
C573 C570 1.403 . S
C573 C574 1.392 . S
C573 C577 1.495 . S
C574 C573 1.392 . S
C574 C575 1.376 1_545 S
C574 C576 1.478 . S
C575 H569 0.953 . S
C575 C571 1.388 . S
C575 C574 1.376 1_565 S
C576 C574 1.478 . S
C576 C578 1.381 1_545 S
C576 C582 1.383 . S
C577 C573 1.495 . S
C577 H583 0.959 . S
C577 H584 0.961 . S
C577 H585 0.960 . S
C578 C576 1.381 1_565 S
C578 C579 1.394 . S
C578 H586 0.930 . S
C579 C578 1.394 . S
C579 C580 1.383 1_565 S
C579 H587 0.929 . S
C580 C579 1.383 1_545 S
C580 C581 1.377 . S
C581 H565 0.930 . S
C581 C580 1.377 . S
C581 C582 1.379 . S
C582 H566 0.931 . S
C582 C576 1.383 . S
C582 C581 1.379 . S
H583 C577 0.959 . S
H584 C577 0.961 . S
H585 C577 0.960 . S
H586 C578 0.930 . S
H587 C579 0.929 . S
H588 C596 0.929 . S
H589 C598 0.930 . S
H590 C600 0.930 . S
H591 C603 0.929 . S
H592 C606 0.930 1_554 S
H593 C608 0.960 . S
H594 C608 0.960 . S
H595 C608 0.960 . S
C596 H588 0.929 . S
C596 C597 1.377 . S
C596 C598 1.384 . S
C597 C596 1.377 . S
C597 C603 1.390 1_554 S
C598 H589 0.930 . S
C598 C596 1.384 . S
C598 C599 1.372 1_554 S
C599 C598 1.372 1_556 S
C599 C600 1.400 . S
C599 C604 1.490 . S
C600 H590 0.930 . S
C600 C599 1.400 . S
C600 C603 1.386 . S
H601 C617 0.930 . S
H602 C618 0.931 . S
C603 H591 0.929 . S
C603 C597 1.390 1_556 S
C603 C600 1.386 . S
C604 C599 1.490 . S
C604 C606 1.395 . S
C604 C607 1.403 . S
H605 C611 0.930 . S
C606 H592 0.930 1_556 S
C606 C604 1.395 . S
C606 C609 1.403 . S
C607 C604 1.403 . S
C607 C608 1.524 . S
C607 C611 1.400 . S
C608 H593 0.960 . S
C608 H594 0.960 . S
C608 H595 0.960 . S
C608 C607 1.524 . S
C609 C606 1.403 . S
C609 C610 1.392 . S
C609 C613 1.495 . S
C610 C609 1.392 . S
C610 C611 1.385 . S
C610 C612 1.478 . S
C611 H605 0.930 . S
C611 C607 1.400 . S
C611 C610 1.385 . S
C612 C610 1.478 . S
C612 C614 1.381 . S
C612 C618 1.383 . S
C613 C609 1.495 . S
C613 H619 0.959 1_556 S
C613 H620 0.961 . S
C613 H621 0.960 . S
C614 C612 1.381 . S
C614 C615 1.394 . S
C614 H622 0.930 . S
C615 C614 1.394 . S
C615 C616 1.383 . S
C615 H623 0.929 . S
C616 C615 1.383 . S
C616 C617 1.377 . S
C617 H601 0.930 . S
C617 C616 1.377 . S
C617 C618 1.379 . S
C618 H602 0.931 . S
C618 C612 1.383 . S
C618 C617 1.379 . S
H619 C613 0.959 1_554 S
H620 C613 0.961 . S
H621 C613 0.960 . S
H622 C614 0.930 . S
H623 C615 0.929 . S
H624 C632 0.929 . S
H625 C634 0.930 . S
H626 C636 0.930 . S
H627 C639 0.929 . S
H628 C642 0.930 . S
H629 C644 0.960 . S
H630 C644 0.960 . S
H631 C644 0.960 . S
C632 H624 0.929 . S
C632 C633 1.377 . S
C632 C634 1.384 . S
C633 C632 1.377 . S
C633 C639 1.390 . S
C634 H625 0.930 . S
C634 C632 1.384 . S
C634 C635 1.372 . S
C635 C634 1.372 . S
C635 C636 1.400 . S
C635 C640 1.490 . S
C636 H626 0.930 . S
C636 C635 1.400 . S
C636 C639 1.386 . S
H637 C653 0.930 . S
H638 C654 0.931 . S
C639 H627 0.929 . S
C639 C633 1.390 . S
C639 C636 1.386 . S
C640 C635 1.490 . S
C640 C642 1.395 . S
C640 C643 1.403 1_455 S
H641 C647 0.930 . S
C642 H628 0.930 . S
C642 C640 1.395 . S
C642 C645 1.403 . S
C643 C640 1.403 1_655 S
C643 C644 1.524 . S
C643 C647 1.400 . S
C644 H629 0.960 . S
C644 H630 0.960 . S
C644 H631 0.960 . S
C644 C643 1.524 . S
C645 C642 1.403 . S
C645 C646 1.392 . S
C645 C649 1.495 . S
C646 C645 1.392 . S
C646 C647 1.385 1_455 S
C646 C648 1.478 . S
C647 H641 0.930 . S
C647 C643 1.400 . S
C647 C646 1.385 1_655 S
C648 C646 1.478 . S
C648 C650 1.381 . S
C648 C654 1.383 . S
C649 C645 1.495 . S
C649 H655 0.959 . S
C649 H656 0.961 . S
C649 H657 0.960 . S
C650 C648 1.381 . S
C650 C651 1.394 . S
C650 H658 0.930 . S
C651 C650 1.394 . S
C651 C652 1.383 . S
C651 H659 0.929 1_455 S
C652 C651 1.383 . S
C652 C653 1.377 . S
C653 H637 0.930 . S
C653 C652 1.377 . S
C653 C654 1.379 . S
C654 H638 0.931 . S
C654 C648 1.383 . S
C654 C653 1.379 . S
H655 C649 0.959 . S
H656 C649 0.961 . S
H657 C649 0.960 . S
H658 C650 0.930 . S
H659 C651 0.929 1_655 S
C256 C95 1.385 . S
C237 C3 1.381 . S
C273 C21 1.412 . S
C292 C139 1.426 . S
C309 C37 1.395 . S
C328 C201 1.388 . S
C345 C8 1.400 . S
C364 C77 1.394 . S
C400 C157 1.398 . S
C381 C23 1.405 . S
C417 C35 1.397 . S
C436 C219 1.406 . S
C472 C133 1.588 . S
C453 C31 1.712 . S
C489 C7 1.740 . S
C508 C195 1.682 . S
C544 C71 1.627 . S
C525 C17 1.734 . S
C580 C151 1.588 . S
C561 C36 1.725 . S
C616 C213 1.683 . S
C597 C9 1.727 . S
C633 C22 1.746 . S
C652 C89 1.662 . S
