# Generated by pormake.
# Topology tsx, (6,3)-cn, num edge types: 1
# Building blocks:
#     Node 0, Type 0, BuildingBlock: MIDCAF_clean_sbu_0, # of connection points: 6
#     Node 1, Type 0, BuildingBlock: MIDCAF_clean_sbu_0, # of connection points: 6
#     Node 2, Type 1, BuildingBlock: BETDIP_clean_linker_0, # of connection points: 3
#     Node 3, Type 1, BuildingBlock: BETDIP_clean_linker_0, # of connection points: 3
#     Node 4, Type 1, BuildingBlock: BETDIP_clean_linker_0, # of connection points: 3
#     Node 5, Type 1, BuildingBlock: BETDIP_clean_linker_0, # of connection points: 3
#     Edge 6, Type (0, 1), BuildingBlock: CIFDUS_clean_linker_0, # of connection points: 2
#     Edge 7, Type (0, 1), BuildingBlock: CIFDUS_clean_linker_0, # of connection points: 2
#     Edge 8, Type (0, 1), BuildingBlock: CIFDUS_clean_linker_0, # of connection points: 2
#     Edge 9, Type (0, 1), BuildingBlock: CIFDUS_clean_linker_0, # of connection points: 2
#     Edge 10, Type (0, 1), BuildingBlock: CIFDUS_clean_linker_0, # of connection points: 2
#     Edge 11, Type (0, 1), BuildingBlock: CIFDUS_clean_linker_0, # of connection points: 2
#     Edge 12, Type (0, 1), BuildingBlock: CIFDUS_clean_linker_0, # of connection points: 2
#     Edge 13, Type (0, 1), BuildingBlock: CIFDUS_clean_linker_0, # of connection points: 2
#     Edge 14, Type (0, 1), BuildingBlock: CIFDUS_clean_linker_0, # of connection points: 2
#     Edge 15, Type (0, 1), BuildingBlock: CIFDUS_clean_linker_0, # of connection points: 2
#     Edge 16, Type (0, 1), BuildingBlock: CIFDUS_clean_linker_0, # of connection points: 2
#     Edge 17, Type (0, 1), BuildingBlock: CIFDUS_clean_linker_0, # of connection points: 2
# Relax obj value: 0.081
# Max RMSD: 0.148
# Mean RMSD: 0.111
data_MOF--net-tsx--node1-MIDCAF_clean_sbu_0--node2-BETDIP_clean_linker_0--edge1-CIFDUS_clean_linker_0
_symmetry_space_group_name_H-M    P1
_symmetry_Int_Tables_number       1
_symmetry_cell_setting            triclinic
loop_
_symmetry_equiv_pos_as_xyz
'x, y, z'
_cell_length_a     17.0156
_cell_length_b     18.288053
_cell_length_c     30.572034
_cell_angle_alpha  90.113527
_cell_angle_beta   108.06192
_cell_angle_gamma 90.72862
loop_
_atom_site_label
_atom_site_type_symbol
_atom_site_fract_x
_atom_site_fract_y
_atom_site_fract_z
_atom_type_partial_charge
Zn0 Zn 0.98813 0.02757 0.96326 0.0
Zn1 Zn 0.25691 0.09119 0.08578 0.0
Zn2 Zn 0.11758 0.06413 0.02636 0.0
C3 C 0.2006 0.22574 0.05002 0.0
C4 C 0.29441 0.0 0.02526 0.0
O5 O 0.03689 0.99663 0.0565 0.0
O6 O 0.95265 0.94478 0.99369 0.0
C7 C 0.97819 0.1771 0.98175 0.0
O8 O 0.13558 0.18636 0.03058 0.0
O9 O 0.26517 0.1964 0.07547 0.0
O10 O 0.33019 0.03025 0.06342 0.0
O11 O 0.21619 0.00852 1.00558 0.0
O12 O 0.93254 0.12303 0.9638 0.0
O13 O 0.05516 0.16774 1.00378 0.0
O14 O 0.14796 0.01211 0.96606 0.0
O15 O 1.02783 0.00391 0.91107 0.0
C16 C 0.10522 0.99729 0.92392 0.0
O17 O 0.10943 0.01769 0.09325 0.0
O18 O 0.22918 0.05666 0.14041 0.0
C19 C 0.97873 0.95021 0.0369 0.0
C20 C 0.16091 0.02371 0.13429 0.0
Zn21 Zn 0.68703 0.44612 0.58481 0.0
Zn22 Zn 0.42469 0.42983 0.44976 0.0
Zn23 Zn 0.5558 0.46073 0.51557 0.0
C24 C 0.5302 0.51924 0.41605 0.0
C25 C 0.37679 0.52541 0.50862 0.0
O26 O 0.52238 0.50762 0.57307 0.0
O27 O 0.6317 0.4746 0.6304 0.0
C28 C 0.67648 0.31387 0.54611 0.0
O29 O 0.57497 0.52246 0.45845 0.0
O30 O 0.46677 0.47812 0.40356 0.0
O31 O 0.34809 0.49015 0.47143 0.0
O32 O 0.4537 0.51946 0.53237 0.0
O33 O 0.72485 0.34522 0.58109 0.0
O34 O 0.61088 0.34739 0.52181 0.0
O35 O 0.64722 0.5348 0.4986 0.0
O36 O 0.7494 0.52319 0.56369 0.0
C37 C 0.7202 0.55269 0.5248 0.0
O38 O 0.52186 0.34044 0.50828 0.0
O39 O 0.40706 0.32307 0.45065 0.0
C40 C 0.56149 0.50376 0.61626 0.0
C41 C 0.46258 0.29774 0.48459 0.0
H42 H 1.03004 0.88112 0.48439 0.0
H43 H 0.93617 0.99268 0.35511 0.0
H44 H 0.13728 0.84238 0.37684 0.0
H45 H 0.81857 0.99626 0.37555 0.0
C46 C 0.84168 0.00745 0.41226 0.0
C47 C 1.03135 0.89106 0.4497 0.0
C48 C 0.09151 0.85767 0.434 0.0
C49 C 0.97354 0.93852 0.4211 0.0
C50 C 0.97707 0.95291 0.37628 0.0
C51 C 0.03628 0.919 0.35957 0.0
C52 C 0.09232 0.87068 0.3889 0.0
N53 N 0.91627 0.97435 0.43936 0.0
H54 H 0.14532 0.85515 0.55449 0.0
H55 H 0.25385 0.94986 0.68898 0.0
H56 H 1.03272 0.8163 0.65972 0.0
H57 H 0.36135 0.97325 0.66427 0.0
C58 C 0.33719 0.98141 0.62739 0.0
C59 C 0.14424 0.86393 0.58932 0.0
C60 C 0.08225 0.83063 0.60395 0.0
C61 C 0.20542 0.90829 0.61929 0.0
C62 C 0.20598 0.91711 0.66539 0.0
C63 C 0.14482 0.88307 0.68119 0.0
C64 C 0.08184 0.84174 0.6493 0.0
N65 N 0.26322 0.9447 0.6012 0.0
H66 H 0.70987 0.57381 0.9992 0.0
H67 H 0.58697 0.70703 0.88258 0.0
H68 H 0.66701 0.49133 0.86188 0.0
H69 H 0.69097 0.79676 0.95109 0.0
C70 C 0.64416 0.77719 0.96581 0.0
C71 C 0.6855 0.58101 0.96228 0.0
C72 C 0.69353 0.52547 0.93244 0.0
C73 C 0.64814 0.6469 0.94444 0.0
C74 C 0.61694 0.6565 0.89654 0.0
C75 C 0.62165 0.5998 0.86665 0.0
C76 C 0.66052 0.53454 0.88484 0.0
N77 N 0.63848 0.70175 0.97494 0.0
H78 H 0.45836 0.65063 0.04262 0.0
H79 H 0.55731 0.74969 0.17677 0.0
H80 H 0.37502 0.57899 0.15531 0.0
H81 H 0.56139 0.85177 0.1281 0.0
C82 C 0.5953 0.8211 0.10948 0.0
C83 C 0.45857 0.65558 0.07799 0.0
C84 C 0.40785 0.60916 0.09484 0.0
C85 C 0.51072 0.70801 0.10692 0.0
C86 C 0.51423 0.71239 0.15341 0.0
C87 C 0.46432 0.66677 0.17047 0.0
C88 C 0.41051 0.61638 0.14105 0.0
N89 N 0.56396 0.75203 0.08986 0.0
H90 H 0.3067 0.29566 0.0157 0.0
H91 H 0.10779 0.33237 0.07197 0.0
H92 H 0.14639 0.46257 0.08297 0.0
H93 H 0.25314 0.55868 0.09001 0.0
H94 H 0.45798 0.51681 0.03874 0.0
H95 H 0.39935 0.39699 1.01087 0.0
C96 C 0.27015 0.33295 0.02886 0.0
C97 C 0.20456 0.30512 0.04295 0.0
C98 C 0.29464 0.4066 0.03649 0.0
C99 C 0.15789 0.35311 0.06043 0.0
C100 C 0.18066 0.42723 0.06717 0.0
C101 C 0.28409 0.52382 0.07194 0.0
C102 C 0.36083 0.54633 0.06733 0.0
C103 C 0.25148 0.45362 0.05745 0.0
C104 C 0.39905 0.50125 0.04284 0.0
C105 C 0.36596 0.4322 0.0273 0.0
H106 H 0.44815 0.02904 0.02326 0.0
H107 H 0.25159 0.86786 0.98252 0.0
H108 H 0.34433 0.78257 0.96149 0.0
H109 H 0.48404 0.7522 0.95949 0.0
H110 H 0.67613 0.91796 0.99326 0.0
H111 H 0.58255 0.00381 1.01278 0.0
C112 C 0.42549 0.97556 1.0091 0.0
C113 C 0.34388 0.95405 1.00469 0.0
C114 C 0.47853 0.9278 0.9966 0.0
C115 C 0.31432 0.88528 0.98593 0.0
C116 C 0.36743 0.83651 0.97434 0.0
C117 C 0.5051 0.80719 0.97115 0.0
C118 C 0.58692 0.82885 0.97612 0.0
C119 C 0.45009 0.85676 0.98045 0.0
C120 C 0.61337 0.9005 0.98978 0.0
C121 C 0.55999 0.94937 1.00079 0.0
H122 H 0.89181 0.01 0.08723 0.0
H123 H 0.95123 0.80441 0.03727 0.0
H124 H 0.83798 0.7439 0.0573 0.0
H125 H 0.71272 0.75316 0.08074 0.0
H126 H 0.65094 0.95996 0.12868 0.0
H127 H 0.77502 0.01651 0.11834 0.0
C128 C 0.88239 0.95129 0.08299 0.0
C129 C 0.93107 0.91102 0.06231 0.0
C130 C 0.81554 0.91766 0.09316 0.0
C131 C 0.91568 0.83578 0.05442 0.0
C132 C 0.85034 0.8015 0.06527 0.0
C133 C 0.72675 0.81046 0.08916 0.0
C134 C 0.67235 0.85288 0.1047 0.0
C135 C 0.79817 0.84246 0.08319 0.0
C136 C 0.69178 0.92667 0.11619 0.0
C137 C 0.76268 0.95891 0.1104 0.0
H138 H 0.82496 0.20823 0.98302 0.0
H139 H 0.04743 0.30834 0.97036 0.0
H140 H 0.98096 0.42796 0.95879 0.0
H141 H 0.8549 0.50162 0.9458 0.0
H142 H 0.63189 0.40004 0.95642 0.0
H143 H 0.70272 0.28286 0.97531 0.0
C144 C 0.85892 0.25644 0.97798 0.0
C145 C 0.94102 0.25002 0.97781 0.0
C146 C 0.81991 0.32432 0.97082 0.0
C147 C 0.98475 0.31256 0.97154 0.0
C148 C 0.94646 0.38064 0.96449 0.0
C149 C 0.82276 0.45385 0.95314 0.0
C150 C 0.739 0.45856 0.95017 0.0
C151 C 0.86365 0.3869 0.96334 0.0
C152 C 0.69675 0.39697 0.95905 0.0
C153 C 0.73704 0.33024 0.96953 0.0
H154 H 0.87777 0.54817 0.52457 0.0
H155 H 0.6747 0.69462 0.50773 0.0
H156 H 0.77122 0.79925 0.52633 0.0
H157 H 0.91561 0.84444 0.56304 0.0
H158 H 0.11732 0.69611 0.57979 0.0
H159 H 1.01975 0.59679 0.54576 0.0
C160 C 0.85449 0.60342 0.52283 0.0
C161 C 0.76937 0.61382 0.51468 0.0
C162 C 0.91059 0.6627 0.53494 0.0
C163 C 0.7398 0.6854 0.51314 0.0
C164 C 0.79526 0.74508 0.52469 0.0
C165 C 0.93784 0.79079 0.55791 0.0
C166 C 1.02327 0.77707 0.57415 0.0
C167 C 0.88108 0.73383 0.53809 0.0
C168 C 0.05182 0.70763 0.56746 0.0
C169 C 0.99606 0.65089 0.5481 0.0
H170 H 0.62205 0.25206 0.46028 0.0
H171 H 0.79039 0.21813 0.59661 0.0
H172 H 0.85384 0.11725 0.56815 0.0
H173 H 0.87159 0.04688 0.50302 0.0
H174 H 0.70541 0.08252 0.36645 0.0
H175 H 0.63145 0.17394 0.3964 0.0
C176 C 0.67122 0.22148 0.484 0.0
C177 C 0.70151 0.24317 0.53052 0.0
C178 C 0.70908 0.16442 0.46715 0.0
C179 C 0.76592 0.20305 0.56059 0.0
C180 C 0.80272 0.14547 0.54428 0.0
C181 C 0.81881 0.07421 0.47989 0.0
C182 C 0.7946 0.05847 0.43243 0.0
C183 C 0.77662 0.12714 0.49736 0.0
C184 C 0.72559 0.09402 0.40307 0.0
C185 C 0.6832 0.14632 0.42018 0.0
H186 H 0.52883 0.24366 0.57109 0.0
H187 H 0.36536 0.1863 0.43632 0.0
H188 H 0.31612 0.07899 0.468 0.0
H189 H 0.30585 0.01093 0.53551 0.0
H190 H 0.46618 0.07044 0.67058 0.0
H191 H 0.53017 0.16702 0.63732 0.0
C192 C 0.48427 0.20656 0.54837 0.0
C193 C 0.45052 0.2235 0.50139 0.0
C194 C 0.45416 0.14604 0.5671 0.0
C195 C 0.39219 0.1749 0.47264 0.0
C196 C 0.36343 0.11373 0.4908 0.0
C197 C 0.35531 0.04456 0.55763 0.0
C198 C 0.3804 0.03432 0.6056 0.0
C199 C 0.39153 0.10039 0.53826 0.0
C200 C 0.44534 0.07773 0.63361 0.0
C201 C 0.48197 0.13297 0.61461 0.0
H202 H 0.40779 0.67084 0.51915 0.0
H203 H 0.22177 0.50634 0.51367 0.0
H204 H 0.115 0.59945 0.49645 0.0
H205 H 0.07137 0.72352 0.46793 0.0
H206 H 0.25634 0.88526 0.46607 0.0
H207 H 0.36617 0.79892 0.50174 0.0
C208 C 0.34451 0.65613 0.51654 0.0
C209 C 0.32283 0.58195 0.51824 0.0
C210 C 0.28263 0.70971 0.5041 0.0
C211 C 0.2401 0.56324 0.51325 0.0
C212 C 0.17878 0.61645 0.50275 0.0
C213 C 0.13582 0.74015 0.47658 0.0
C214 C 0.15602 0.81023 0.46419 0.0
C215 C 0.19866 0.68924 0.49572 0.0
C216 C 0.23962 0.8313 0.47514 0.0
C217 C 0.30236 0.78189 0.49544 0.0
H218 H 1.01336 0.00875 0.1541 0.0
H219 H 0.27512 0.9706 0.20886 0.0
H220 H 0.25977 0.93587 0.28238 0.0
H221 H 0.17562 0.92504 0.333 0.0
H222 H 0.91131 0.95219 0.27932 0.0
H223 H 0.92428 0.98349 0.20405 0.0
C224 C 0.06622 0.99055 0.18163 0.0
C225 C 0.1451 0.99211 0.17564 0.0
C226 C 0.05702 0.97023 0.22449 0.0
C227 C 0.21368 0.97046 0.21239 0.0
C228 C 0.20511 0.95065 0.25464 0.0
C229 C 0.12003 0.93574 0.30486 0.0
C230 C 0.04254 0.93591 0.31257 0.0
C231 C 0.12748 0.95165 0.26138 0.0
C232 C 0.97225 0.95272 0.27522 0.0
C233 C 0.97945 0.97005 0.23182 0.0
H234 H 0.08427 0.8715 0.87541 0.0
H235 H 0.20676 0.08161 0.89106 0.0
H236 H 0.23339 0.06463 0.81724 0.0
H237 H 0.20385 0.99686 0.74369 0.0
H238 H 0.09264 0.78077 0.73247 0.0
H239 H 0.07835 0.7941 0.80849 0.0
C240 C 0.11934 0.91235 0.86331 0.0
C241 C 0.14403 0.97745 0.88858 0.0
C242 C 0.13399 0.90222 0.82087 0.0
C243 C 0.18845 0.03052 0.87247 0.0
C244 C 0.20255 0.02119 0.82994 0.0
C245 C 0.17817 0.95171 0.75793 0.0
C246 C 0.14636 0.88897 0.73067 0.0
C247 C 0.17291 0.95826 0.80302 0.0
C248 C 0.11379 0.83151 0.75086 0.0
C249 C 0.10665 0.83843 0.79496 0.0
H250 H 0.60197 0.63075 0.66152 0.0
H251 H 0.45242 0.43607 0.65111 0.0
H252 H 0.44602 0.45643 0.72911 0.0
H253 H 0.5106 0.51379 0.80499 0.0
H254 H 0.66535 0.70565 0.81618 0.0
H255 H 0.64145 0.70351 0.733 0.0
C256 C 0.56459 0.59511 0.67569 0.0
C257 C 0.52735 0.53237 0.65109 0.0
C258 C 0.56423 0.60573 0.72104 0.0
C259 C 0.48037 0.48528 0.66954 0.0
C260 C 0.47795 0.49632 0.71433 0.0
C261 C 0.53703 0.55616 0.78882 0.0
C262 C 0.59075 0.60898 0.81629 0.0
C263 C 0.52391 0.55381 0.74124 0.0
C264 C 0.62414 0.66434 0.79542 0.0
C265 C 0.61081 0.66285 0.748 0.0
H266 H 0.41839 0.60445 0.36068 0.0
H267 H 0.67227 0.5398 0.39238 0.0
H268 H 0.67843 0.59335 0.31965 0.0
H269 H 0.60196 0.63734 0.24129 0.0
H270 H 0.34455 0.69168 0.20937 0.0
H271 H 0.34896 0.66429 0.28827 0.0
C272 C 0.47572 0.60391 0.3521 0.0
C273 C 0.54444 0.56774 0.38101 0.0
C274 C 0.4774 0.63209 0.31 0.0
C275 C 0.61878 0.56756 0.37032 0.0
C276 C 0.62182 0.59744 0.32863 0.0
C277 C 0.54779 0.64511 0.25225 0.0
C278 C 0.4728 0.66593 0.21993 0.0
C279 C 0.55022 0.62671 0.29727 0.0
C280 C 0.40252 0.67533 0.2339 0.0
C281 C 0.40505 0.65949 0.27882 0.0
loop_
_geom_bond_atom_site_label_1
_geom_bond_atom_site_label_2
_geom_bond_distance
_geom_bond_site_symmetry_2
_ccdc_geom_bond_type
Zn0 O6 1.920 1_545 S
Zn0 O12 1.898 . S
Zn0 O15 1.905 1_545 S
Zn1 O9 1.905 . S
Zn1 O10 1.898 1_545 S
Zn1 O18 1.920 1_545 S
Zn2 O5 2.080 1_445 S
Zn2 O8 2.114 . S
Zn2 O11 2.120 1_545 S
Zn2 O13 2.120 1_455 S
Zn2 O14 2.114 1_554 S
Zn2 O17 2.080 . S
C3 O8 1.166 . S
C3 O9 1.182 . S
C4 O10 1.167 . S
C4 O11 1.299 . S
O5 Zn2 2.080 1_665 S
O5 C19 1.305 . S
O6 Zn0 1.920 1_565 S
O6 C19 1.233 1_556 S
C7 O12 1.167 . S
C7 O13 1.299 1_556 S
O8 Zn2 2.114 . S
O8 C3 1.166 . S
O9 Zn1 1.905 . S
O9 C3 1.182 . S
O10 Zn1 1.898 1_565 S
O10 C4 1.167 . S
O11 Zn2 2.120 1_565 S
O11 C4 1.299 . S
O12 Zn0 1.898 . S
O12 C7 1.167 . S
O13 Zn2 2.120 1_655 S
O13 C7 1.299 1_554 S
O14 Zn2 2.114 1_556 S
O14 C16 1.166 1_445 S
O15 Zn0 1.905 1_565 S
O15 C16 1.182 . S
C16 O14 1.166 1_665 S
C16 O15 1.182 . S
O17 Zn2 2.080 . S
O17 C20 1.305 1_545 S
O18 Zn1 1.920 1_565 S
O18 C20 1.234 . S
C19 O5 1.305 . S
C19 O6 1.233 1_554 S
C20 O17 1.305 1_565 S
C20 O18 1.234 . S
Zn21 O27 1.920 . S
Zn21 O33 1.898 . S
Zn21 O36 1.905 . S
Zn22 O30 1.905 . S
Zn22 O31 1.898 . S
Zn22 O39 1.920 . S
Zn23 O26 2.080 . S
Zn23 O29 2.114 . S
Zn23 O32 2.120 . S
Zn23 O34 2.120 . S
Zn23 O35 2.114 . S
Zn23 O38 2.080 . S
C24 O29 1.166 . S
C24 O30 1.182 . S
C25 O31 1.167 . S
C25 O32 1.299 . S
O26 Zn23 2.080 . S
O26 C40 1.305 . S
O27 Zn21 1.920 . S
O27 C40 1.234 . S
C28 O33 1.167 . S
C28 O34 1.299 . S
O29 Zn23 2.114 . S
O29 C24 1.166 . S
O30 Zn22 1.905 . S
O30 C24 1.182 . S
O31 Zn22 1.898 . S
O31 C25 1.167 . S
O32 Zn23 2.120 . S
O32 C25 1.299 . S
O33 Zn21 1.898 . S
O33 C28 1.167 . S
O34 Zn23 2.120 . S
O34 C28 1.299 . S
O35 Zn23 2.114 . S
O35 C37 1.166 . S
O36 Zn21 1.905 . S
O36 C37 1.182 . S
C37 O35 1.166 . S
C37 O36 1.182 . S
O38 Zn23 2.080 . S
O38 C41 1.305 . S
O39 Zn22 1.920 . S
O39 C41 1.234 . S
C40 O26 1.305 . S
C40 O27 1.234 . S
C41 O38 1.305 . S
C41 O39 1.234 . S
H42 C47 0.930 . S
H43 C50 0.930 . S
H44 C52 0.930 . S
H45 C46 1.016 . S
C46 H45 1.016 . S
C46 N53 1.286 1_655 S
C47 H42 0.930 . S
C47 C48 1.397 . S
C47 C49 1.361 1_565 S
C48 C47 1.397 . S
C48 C52 1.390 . S
C49 C47 1.361 1_545 S
C49 C50 1.393 . S
C49 N53 1.413 . S
C50 H43 0.930 . S
C50 C49 1.393 . S
C50 C51 1.399 . S
C51 C50 1.399 . S
C51 C52 1.381 1_545 S
C52 H44 0.930 . S
C52 C48 1.390 . S
C52 C51 1.381 1_565 S
N53 C46 1.286 1_455 S
N53 C49 1.413 . S
H54 C59 0.930 . S
H55 C62 0.930 . S
H56 C64 0.930 . S
H57 C58 1.016 . S
C58 H57 1.016 . S
C58 N65 1.286 . S
C59 H54 0.930 . S
C59 C60 1.397 . S
C59 C61 1.361 1_665 S
C60 C59 1.397 . S
C60 C64 1.390 . S
C61 C59 1.361 1_445 S
C61 C62 1.393 . S
C61 N65 1.413 . S
C62 H55 0.930 . S
C62 C61 1.393 . S
C62 C63 1.399 1_455 S
C63 C62 1.399 1_655 S
C63 C64 1.381 1_545 S
C64 H56 0.930 . S
C64 C60 1.390 . S
C64 C63 1.381 1_565 S
N65 C58 1.286 . S
N65 C61 1.413 . S
H66 C71 0.930 . S
H67 C74 0.930 . S
H68 C76 0.930 . S
H69 C70 1.016 . S
C70 H69 1.016 . S
C70 N77 1.286 . S
C71 H66 0.930 . S
C71 C72 1.397 . S
C71 C73 1.361 . S
C72 C71 1.397 . S
C72 C76 1.390 . S
C73 C71 1.361 . S
C73 C74 1.393 . S
C73 N77 1.413 . S
C74 H67 0.930 . S
C74 C73 1.393 . S
C74 C75 1.399 . S
C75 C74 1.399 . S
C75 C76 1.381 . S
C76 H68 0.930 . S
C76 C72 1.390 . S
C76 C75 1.381 . S
N77 C70 1.286 . S
N77 C73 1.413 . S
H78 C83 0.930 . S
H79 C86 0.930 . S
H80 C88 0.930 . S
H81 C82 1.016 . S
C82 H81 1.016 . S
C82 N89 1.286 . S
C83 H78 0.930 . S
C83 C84 1.397 . S
C83 C85 1.361 . S
C84 C83 1.397 . S
C84 C88 1.390 . S
C85 C83 1.361 . S
C85 C86 1.393 . S
C85 N89 1.413 . S
C86 H79 0.930 . S
C86 C85 1.393 . S
C86 C87 1.399 . S
C87 C86 1.399 . S
C87 C88 1.381 . S
C88 H80 0.930 . S
C88 C84 1.390 . S
C88 C87 1.381 . S
N89 C82 1.286 . S
N89 C85 1.413 . S
H90 C96 0.930 1_556 S
H91 C99 0.930 . S
H92 C100 0.930 . S
H93 C101 0.930 . S
H94 C104 0.930 1_556 S
H95 C105 0.930 . S
C96 H90 0.930 1_554 S
C96 C97 1.355 . S
C96 C98 1.415 . S
C97 C96 1.355 . S
C97 C99 1.419 . S
C98 C96 1.415 . S
C98 C103 1.425 . S
C98 C105 1.409 1_554 S
C99 H91 0.930 . S
C99 C97 1.419 . S
C99 C100 1.362 . S
C100 H92 0.930 . S
C100 C99 1.362 . S
C100 C103 1.409 . S
C101 H93 0.930 . S
C101 C102 1.355 . S
C101 C103 1.415 . S
C102 C101 1.355 . S
C102 C104 1.419 . S
C103 C98 1.425 . S
C103 C100 1.409 . S
C103 C101 1.415 . S
C104 H94 0.930 1_554 S
C104 C102 1.419 . S
C104 C105 1.362 1_554 S
C105 H95 0.930 . S
C105 C98 1.409 1_556 S
C105 C104 1.362 1_556 S
H106 C112 0.930 . S
H107 C115 0.930 . S
H108 C116 0.930 . S
H109 C117 0.930 . S
H110 C120 0.930 . S
H111 C121 0.930 . S
C112 H106 0.930 . S
C112 C113 1.355 . S
C112 C114 1.415 . S
C113 C112 1.355 . S
C113 C115 1.419 . S
C114 C112 1.415 . S
C114 C119 1.425 . S
C114 C121 1.409 . S
C115 H107 0.930 . S
C115 C113 1.419 . S
C115 C116 1.362 . S
C116 H108 0.930 . S
C116 C115 1.362 . S
C116 C119 1.409 . S
C117 H109 0.930 . S
C117 C118 1.355 . S
C117 C119 1.415 . S
C118 C117 1.355 . S
C118 C120 1.419 . S
C119 C114 1.425 . S
C119 C116 1.409 . S
C119 C117 1.415 . S
C120 H110 0.930 . S
C120 C118 1.419 . S
C120 C121 1.362 . S
C121 H111 0.930 . S
C121 C114 1.409 . S
C121 C120 1.362 . S
H122 C128 0.930 . S
H123 C131 0.930 . S
H124 C132 0.930 . S
H125 C133 0.930 . S
H126 C136 0.930 . S
H127 C137 0.930 . S
C128 H122 0.930 . S
C128 C129 1.355 . S
C128 C130 1.415 . S
C129 C128 1.355 . S
C129 C131 1.419 . S
C130 C128 1.415 . S
C130 C135 1.425 . S
C130 C137 1.409 . S
C131 H123 0.930 . S
C131 C129 1.419 . S
C131 C132 1.362 . S
C132 H124 0.930 . S
C132 C131 1.362 . S
C132 C135 1.409 . S
C133 H125 0.930 . S
C133 C134 1.355 . S
C133 C135 1.415 . S
C134 C133 1.355 . S
C134 C136 1.419 . S
C135 C130 1.425 . S
C135 C132 1.409 . S
C135 C133 1.415 . S
C136 H126 0.930 . S
C136 C134 1.419 . S
C136 C137 1.362 . S
C137 H127 0.930 . S
C137 C130 1.409 . S
C137 C136 1.362 . S
H138 C144 0.930 . S
H139 C147 0.930 . S
H140 C148 0.930 . S
H141 C149 0.930 . S
H142 C152 0.930 . S
H143 C153 0.930 . S
C144 H138 0.930 . S
C144 C145 1.355 . S
C144 C146 1.415 . S
C145 C144 1.355 . S
C145 C147 1.419 1_556 S
C146 C144 1.415 . S
C146 C151 1.425 . S
C146 C153 1.409 . S
C147 H139 0.930 . S
C147 C145 1.419 1_554 S
C147 C148 1.362 . S
C148 H140 0.930 . S
C148 C147 1.362 . S
C148 C151 1.409 1_554 S
C149 H141 0.930 . S
C149 C150 1.355 . S
C149 C151 1.415 . S
C150 C149 1.355 . S
C150 C152 1.419 . S
C151 C146 1.425 . S
C151 C148 1.409 1_556 S
C151 C149 1.415 . S
C152 H142 0.930 . S
C152 C150 1.419 . S
C152 C153 1.362 . S
C153 H143 0.930 . S
C153 C146 1.409 . S
C153 C152 1.362 . S
H154 C160 0.930 . S
H155 C163 0.930 . S
H156 C164 0.930 . S
H157 C165 0.930 . S
H158 C168 0.930 . S
H159 C169 0.930 . S
C160 H154 0.930 . S
C160 C161 1.355 . S
C160 C162 1.415 . S
C161 C160 1.355 . S
C161 C163 1.419 . S
C162 C160 1.415 . S
C162 C167 1.425 . S
C162 C169 1.409 . S
C163 H155 0.930 . S
C163 C161 1.419 . S
C163 C164 1.362 . S
C164 H156 0.930 . S
C164 C163 1.362 . S
C164 C167 1.409 . S
C165 H157 0.930 . S
C165 C166 1.355 . S
C165 C167 1.415 . S
C166 C165 1.355 . S
C166 C168 1.419 . S
C167 C162 1.425 . S
C167 C164 1.409 . S
C167 C165 1.415 . S
C168 H158 0.930 . S
C168 C166 1.419 . S
C168 C169 1.362 . S
C169 H159 0.930 . S
C169 C162 1.409 . S
C169 C168 1.362 . S
H170 C176 0.930 . S
H171 C179 0.930 . S
H172 C180 0.930 . S
H173 C181 0.930 . S
H174 C184 0.930 . S
H175 C185 0.930 . S
C176 H170 0.930 . S
C176 C177 1.355 . S
C176 C178 1.415 . S
C177 C176 1.355 . S
C177 C179 1.419 . S
C178 C176 1.415 . S
C178 C183 1.425 . S
C178 C185 1.409 . S
C179 H171 0.930 . S
C179 C177 1.419 . S
C179 C180 1.362 . S
C180 H172 0.930 . S
C180 C179 1.362 . S
C180 C183 1.409 . S
C181 H173 0.930 . S
C181 C182 1.355 . S
C181 C183 1.415 . S
C182 C181 1.355 . S
C182 C184 1.419 . S
C183 C178 1.425 . S
C183 C180 1.409 . S
C183 C181 1.415 . S
C184 H174 0.930 . S
C184 C182 1.419 . S
C184 C185 1.362 . S
C185 H175 0.930 . S
C185 C178 1.409 . S
C185 C184 1.362 . S
H186 C192 0.930 . S
H187 C195 0.930 . S
H188 C196 0.930 . S
H189 C197 0.930 . S
H190 C200 0.930 . S
H191 C201 0.930 . S
C192 H186 0.930 . S
C192 C193 1.355 . S
C192 C194 1.415 . S
C193 C192 1.355 . S
C193 C195 1.419 . S
C194 C192 1.415 . S
C194 C199 1.425 . S
C194 C201 1.409 . S
C195 H187 0.930 . S
C195 C193 1.419 . S
C195 C196 1.362 . S
C196 H188 0.930 . S
C196 C195 1.362 . S
C196 C199 1.409 . S
C197 H189 0.930 . S
C197 C198 1.355 . S
C197 C199 1.415 . S
C198 C197 1.355 . S
C198 C200 1.419 . S
C199 C194 1.425 . S
C199 C196 1.409 . S
C199 C197 1.415 . S
C200 H190 0.930 . S
C200 C198 1.419 . S
C200 C201 1.362 . S
C201 H191 0.930 . S
C201 C194 1.409 . S
C201 C200 1.362 . S
H202 C208 0.930 . S
H203 C211 0.930 . S
H204 C212 0.930 . S
H205 C213 0.930 . S
H206 C216 0.930 . S
H207 C217 0.930 . S
C208 H202 0.930 . S
C208 C209 1.355 . S
C208 C210 1.415 . S
C209 C208 1.355 . S
C209 C211 1.419 . S
C210 C208 1.415 . S
C210 C215 1.425 . S
C210 C217 1.409 . S
C211 H203 0.930 . S
C211 C209 1.419 . S
C211 C212 1.362 . S
C212 H204 0.930 . S
C212 C211 1.362 . S
C212 C215 1.409 . S
C213 H205 0.930 . S
C213 C214 1.355 . S
C213 C215 1.415 . S
C214 C213 1.355 . S
C214 C216 1.419 . S
C215 C210 1.425 . S
C215 C212 1.409 . S
C215 C213 1.415 . S
C216 H206 0.930 . S
C216 C214 1.419 . S
C216 C217 1.362 . S
C217 H207 0.930 . S
C217 C210 1.409 . S
C217 C216 1.362 . S
H218 C224 0.930 1_655 S
H219 C227 0.930 . S
H220 C228 0.930 . S
H221 C229 0.930 . S
H222 C232 0.930 1_655 S
H223 C233 0.930 1_655 S
C224 H218 0.930 1_455 S
C224 C225 1.355 1_545 S
C224 C226 1.415 . S
C225 C224 1.355 1_565 S
C225 C227 1.419 . S
C226 C224 1.415 . S
C226 C231 1.425 1_545 S
C226 C233 1.409 . S
C227 H219 0.930 . S
C227 C225 1.419 . S
C227 C228 1.362 . S
C228 H220 0.930 . S
C228 C227 1.362 . S
C228 C231 1.409 . S
C229 H221 0.930 . S
C229 C230 1.355 1_565 S
C229 C231 1.415 . S
C230 C229 1.355 1_545 S
C230 C232 1.419 . S
C231 C226 1.425 1_565 S
C231 C228 1.409 . S
C231 C229 1.415 . S
C232 H222 0.930 1_455 S
C232 C230 1.419 . S
C232 C233 1.362 . S
C233 H223 0.930 1_455 S
C233 C226 1.409 . S
C233 C232 1.362 . S
H234 C240 0.932 . S
H235 C243 0.930 . S
H236 C244 0.930 . S
H237 C245 0.930 . S
H238 C248 0.930 . S
H239 C249 0.930 . S
C240 H234 0.932 . S
C240 C241 1.355 . S
C240 C242 1.415 . S
C241 C240 1.355 . S
C241 C243 1.419 1_565 S
C242 C240 1.415 . S
C242 C247 1.425 1_565 S
C242 C249 1.409 1_455 S
C243 H235 0.930 . S
C243 C241 1.419 1_545 S
C243 C244 1.362 . S
C244 H236 0.930 . S
C244 C243 1.362 . S
C244 C247 1.409 . S
C245 H237 0.930 . S
C245 C246 1.355 1_455 S
C245 C247 1.415 . S
C246 C245 1.355 1_655 S
C246 C248 1.419 1_545 S
C247 C242 1.425 1_545 S
C247 C244 1.409 . S
C247 C245 1.415 . S
C248 H238 0.930 . S
C248 C246 1.419 1_565 S
C248 C249 1.362 . S
C249 H239 0.930 . S
C249 C242 1.409 1_655 S
C249 C248 1.362 . S
H250 C256 0.930 . S
H251 C259 0.930 . S
H252 C260 0.930 . S
H253 C261 0.930 . S
H254 C264 0.930 . S
H255 C265 0.930 . S
C256 H250 0.930 . S
C256 C257 1.355 . S
C256 C258 1.415 . S
C257 C256 1.355 . S
C257 C259 1.419 . S
C258 C256 1.415 . S
C258 C263 1.425 . S
C258 C265 1.409 . S
C259 H251 0.930 . S
C259 C257 1.419 . S
C259 C260 1.362 . S
C260 H252 0.930 . S
C260 C259 1.362 . S
C260 C263 1.409 . S
C261 H253 0.930 . S
C261 C262 1.355 . S
C261 C263 1.415 . S
C262 C261 1.355 . S
C262 C264 1.419 . S
C263 C258 1.425 . S
C263 C260 1.409 . S
C263 C261 1.415 . S
C264 H254 0.930 . S
C264 C262 1.419 . S
C264 C265 1.362 . S
C265 H255 0.930 . S
C265 C258 1.409 . S
C265 C264 1.362 . S
H266 C272 0.930 . S
H267 C275 0.930 . S
H268 C276 0.930 . S
H269 C277 0.930 . S
H270 C280 0.930 . S
H271 C281 0.930 . S
C272 H266 0.930 . S
C272 C273 1.355 . S
C272 C274 1.415 . S
C273 C272 1.355 . S
C273 C275 1.419 . S
C274 C272 1.415 . S
C274 C279 1.425 . S
C274 C281 1.409 . S
C275 H267 0.930 . S
C275 C273 1.419 . S
C275 C276 1.362 . S
C276 H268 0.930 . S
C276 C275 1.362 . S
C276 C279 1.409 . S
C277 H269 0.930 . S
C277 C278 1.355 . S
C277 C279 1.415 . S
C278 C277 1.355 . S
C278 C280 1.419 . S
C279 C274 1.425 . S
C279 C276 1.409 . S
C279 C277 1.415 . S
C280 H270 0.930 . S
C280 C278 1.419 . S
C280 C281 1.362 . S
C281 H271 0.930 . S
C281 C274 1.409 . S
C281 C280 1.362 . S
C102 C84 1.371 . S
C97 C3 1.188 . S
C113 C4 1.471 1_556 S
C118 C70 1.516 . S
C129 C19 1.492 . S
C134 C82 1.528 . S
C145 C7 1.302 . S
C150 C72 1.337 . S
C161 C37 1.280 . S
C166 C60 1.345 . S
C177 C28 1.441 . S
C182 C46 1.494 . S
C198 C58 1.513 . S
C193 C41 1.470 . S
C214 C48 1.335 . S
C209 C25 1.262 . S
C225 C20 1.319 . S
C230 C51 1.503 . S
C241 C16 1.404 1_455 S
C246 C63 1.517 . S
C262 C75 1.502 . S
C257 C40 1.318 . S
C273 C24 1.458 . S
C278 C87 1.540 . S
