# Generated by pormake.
# Topology ssb, (4,4)-cn, num edge types: 1
# Building blocks:
#     Node 0, Type 0, BuildingBlock: GIZVER_clean_linker_0, # of connection points: 4
#     Node 1, Type 0, BuildingBlock: GIZVER_clean_linker_0, # of connection points: 4
#     Node 2, Type 0, BuildingBlock: GIZVER_clean_linker_0, # of connection points: 4
#     Node 3, Type 0, BuildingBlock: GIZVER_clean_linker_0, # of connection points: 4
#     Node 4, Type 0, BuildingBlock: GIZVER_clean_linker_0, # of connection points: 4
#     Node 5, Type 0, BuildingBlock: GIZVER_clean_linker_0, # of connection points: 4
#     Node 6, Type 0, BuildingBlock: GIZVER_clean_linker_0, # of connection points: 4
#     Node 7, Type 0, BuildingBlock: GIZVER_clean_linker_0, # of connection points: 4
#     Node 8, Type 1, BuildingBlock: NAWXER_clean_sbu_0, # of connection points: 4
#     Node 9, Type 1, BuildingBlock: NAWXER_clean_sbu_0, # of connection points: 4
#     Node 10, Type 1, BuildingBlock: NAWXER_clean_sbu_0, # of connection points: 4
#     Node 11, Type 1, BuildingBlock: NAWXER_clean_sbu_0, # of connection points: 4
#     Node 12, Type 1, BuildingBlock: NAWXER_clean_sbu_0, # of connection points: 4
#     Node 13, Type 1, BuildingBlock: NAWXER_clean_sbu_0, # of connection points: 4
#     Node 14, Type 1, BuildingBlock: NAWXER_clean_sbu_0, # of connection points: 4
#     Node 15, Type 1, BuildingBlock: NAWXER_clean_sbu_0, # of connection points: 4
#     Edge 16, Type (0, 1), BuildingBlock: KIFKEQ_clean_linker_1, # of connection points: 2
#     Edge 17, Type (0, 1), BuildingBlock: KIFKEQ_clean_linker_1, # of connection points: 2
#     Edge 18, Type (0, 1), BuildingBlock: KIFKEQ_clean_linker_1, # of connection points: 2
#     Edge 19, Type (0, 1), BuildingBlock: KIFKEQ_clean_linker_1, # of connection points: 2
#     Edge 20, Type (0, 1), BuildingBlock: KIFKEQ_clean_linker_1, # of connection points: 2
#     Edge 21, Type (0, 1), BuildingBlock: KIFKEQ_clean_linker_1, # of connection points: 2
#     Edge 22, Type (0, 1), BuildingBlock: KIFKEQ_clean_linker_1, # of connection points: 2
#     Edge 23, Type (0, 1), BuildingBlock: KIFKEQ_clean_linker_1, # of connection points: 2
#     Edge 24, Type (0, 1), BuildingBlock: KIFKEQ_clean_linker_1, # of connection points: 2
#     Edge 25, Type (0, 1), BuildingBlock: KIFKEQ_clean_linker_1, # of connection points: 2
#     Edge 26, Type (0, 1), BuildingBlock: KIFKEQ_clean_linker_1, # of connection points: 2
#     Edge 27, Type (0, 1), BuildingBlock: KIFKEQ_clean_linker_1, # of connection points: 2
#     Edge 28, Type (0, 1), BuildingBlock: KIFKEQ_clean_linker_1, # of connection points: 2
#     Edge 29, Type (0, 1), BuildingBlock: KIFKEQ_clean_linker_1, # of connection points: 2
#     Edge 30, Type (0, 1), BuildingBlock: KIFKEQ_clean_linker_1, # of connection points: 2
#     Edge 31, Type (0, 1), BuildingBlock: KIFKEQ_clean_linker_1, # of connection points: 2
#     Edge 32, Type (0, 1), BuildingBlock: KIFKEQ_clean_linker_1, # of connection points: 2
#     Edge 33, Type (0, 1), BuildingBlock: KIFKEQ_clean_linker_1, # of connection points: 2
#     Edge 34, Type (0, 1), BuildingBlock: KIFKEQ_clean_linker_1, # of connection points: 2
#     Edge 35, Type (0, 1), BuildingBlock: KIFKEQ_clean_linker_1, # of connection points: 2
#     Edge 36, Type (0, 1), BuildingBlock: KIFKEQ_clean_linker_1, # of connection points: 2
#     Edge 37, Type (0, 1), BuildingBlock: KIFKEQ_clean_linker_1, # of connection points: 2
#     Edge 38, Type (0, 1), BuildingBlock: KIFKEQ_clean_linker_1, # of connection points: 2
#     Edge 39, Type (0, 1), BuildingBlock: KIFKEQ_clean_linker_1, # of connection points: 2
#     Edge 40, Type (0, 1), BuildingBlock: KIFKEQ_clean_linker_1, # of connection points: 2
#     Edge 41, Type (0, 1), BuildingBlock: KIFKEQ_clean_linker_1, # of connection points: 2
#     Edge 42, Type (0, 1), BuildingBlock: KIFKEQ_clean_linker_1, # of connection points: 2
#     Edge 43, Type (0, 1), BuildingBlock: KIFKEQ_clean_linker_1, # of connection points: 2
#     Edge 44, Type (0, 1), BuildingBlock: KIFKEQ_clean_linker_1, # of connection points: 2
#     Edge 45, Type (0, 1), BuildingBlock: KIFKEQ_clean_linker_1, # of connection points: 2
#     Edge 46, Type (0, 1), BuildingBlock: KIFKEQ_clean_linker_1, # of connection points: 2
#     Edge 47, Type (0, 1), BuildingBlock: KIFKEQ_clean_linker_1, # of connection points: 2
# Relax obj value: 0.000
# Max RMSD: 0.030
# Mean RMSD: 0.015
data_MOF--net-ssb--node1-NAWXER_clean_sbu_0--node2-GIZVER_clean_linker_0--edge1-KIFKEQ_clean_linker_1
_symmetry_space_group_name_H-M    P1
_symmetry_Int_Tables_number       1
_symmetry_cell_setting            triclinic
loop_
_symmetry_equiv_pos_as_xyz
'x, y, z'
_cell_length_a     47.014799
_cell_length_b     47.144534
_cell_length_c     40.019105
_cell_angle_alpha  89.805594
_cell_angle_beta   90.039366
_cell_angle_gamma 90.01012
loop_
_atom_site_label
_atom_site_type_symbol
_atom_site_fract_x
_atom_site_fract_y
_atom_site_fract_z
_atom_type_partial_charge
H0 H 0.24042 0.17673 0.25454 0.0
H1 H 0.17273 0.23845 0.25712 0.0
H2 H 0.20252 0.19995 0.34806 0.0
H3 H 0.21314 0.18899 0.2037 0.0
H4 H 0.18656 0.21592 0.20446 0.0
H5 H 0.26488 0.20217 0.20314 0.0
H6 H 0.28273 0.28345 0.15822 0.0
H7 H 0.19893 0.26514 0.19461 0.0
C8 C 0.22588 0.18997 0.26857 0.0
C9 C 0.22415 0.18687 0.30339 0.0
C10 C 0.20795 0.20919 0.25167 0.0
C11 C 0.18765 0.22473 0.27004 0.0
C12 C 0.18589 0.22169 0.30495 0.0
C13 C 0.20472 0.20332 0.32134 0.0
C14 C 0.20812 0.21034 0.21391 0.0
C15 C 0.22963 0.23138 0.20054 0.0
C16 C 0.2582 0.22324 0.19566 0.0
C17 C 0.27783 0.24192 0.18059 0.0
C18 C 0.26839 0.26913 0.17111 0.0
C19 C 0.24015 0.27775 0.17627 0.0
C20 C 0.22086 0.25877 0.19101 0.0
H21 H 0.81569 0.2785 0.28856 0.0
H22 H 0.7677 0.20085 0.29405 0.0
H23 H 0.8044 0.23603 0.38285 0.0
H24 H 0.81045 0.2402 0.23929 0.0
H25 H 0.77906 0.21924 0.24076 0.0
H26 H 0.80821 0.29237 0.23243 0.0
H27 H 0.73137 0.32563 0.19022 0.0
H28 H 0.73302 0.24023 0.22884 0.0
C29 C 0.80612 0.26173 0.30323 0.0
C30 C 0.81121 0.26054 0.33788 0.0
C31 C 0.79007 0.24054 0.28718 0.0
C32 C 0.77911 0.21789 0.30628 0.0
C33 C 0.78388 0.21646 0.34091 0.0
C34 C 0.79947 0.23806 0.35648 0.0
C35 C 0.78841 0.23964 0.24937 0.0
C36 C 0.77187 0.26418 0.23448 0.0
C37 C 0.78578 0.28988 0.22699 0.0
C38 C 0.77104 0.3121 0.21141 0.0
C39 C 0.74242 0.30842 0.20274 0.0
C40 C 0.72857 0.28234 0.20782 0.0
C41 C 0.74321 0.26058 0.22487 0.0
H42 H 0.77869 0.73452 0.30526 0.0
H43 H 0.70868 0.7934 0.30568 0.0
H44 H 0.79011 0.8191 0.34326 0.0
H45 H 0.72931 0.7179 0.29914 0.0
H46 H 0.70028 0.74227 0.30027 0.0
H47 H 0.7431 0.69975 0.24678 0.0
H48 H 0.71018 0.73561 0.15594 0.0
H49 H 0.69448 0.77722 0.24951 0.0
C50 C 0.77049 0.75561 0.31003 0.0
C51 C 0.78825 0.77627 0.32454 0.0
C52 C 0.74182 0.76181 0.30265 0.0
C53 C 0.73097 0.78881 0.31004 0.0
C54 C 0.74847 0.80963 0.32409 0.0
C55 C 0.77708 0.80336 0.33081 0.0
C56 C 0.72202 0.73901 0.29002 0.0
C57 C 0.72008 0.73913 0.25231 0.0
C58 C 0.7319 0.71667 0.23392 0.0
C59 C 0.72844 0.71538 0.19914 0.0
C60 C 0.71378 0.73718 0.18265 0.0
C61 C 0.70143 0.75959 0.20053 0.0
C62 C 0.70459 0.76043 0.23545 0.0
H63 H 0.22751 0.73375 0.29717 0.0
H64 H 0.29422 0.79574 0.30299 0.0
H65 H 0.24089 0.77976 0.38842 0.0
H66 H 0.24541 0.75816 0.24679 0.0
H67 H 0.27484 0.78173 0.24916 0.0
H68 H 0.25241 0.7067 0.24353 0.0
H69 H 0.3342 0.68133 0.20747 0.0
H70 H 0.32349 0.7637 0.25168 0.0
C71 C 0.23982 0.7487 0.31178 0.0
C72 C 0.23209 0.75426 0.34501 0.0
C73 C 0.26214 0.76359 0.29651 0.0
C74 C 0.27745 0.78372 0.31508 0.0
C75 C 0.27015 0.78962 0.34846 0.0
C76 C 0.24771 0.77436 0.36337 0.0
C77 C 0.26633 0.76139 0.25924 0.0
C78 C 0.28606 0.7375 0.24968 0.0
C79 C 0.27498 0.7108 0.24084 0.0
C80 C 0.29265 0.69011 0.22654 0.0
C81 C 0.32144 0.69639 0.22129 0.0
C82 C 0.33297 0.72291 0.22975 0.0
C83 C 0.31521 0.743 0.24517 0.0
H84 H 0.29466 0.77216 0.79804 0.0
H85 H 0.2233 0.71541 0.80077 0.0
H86 H 0.27443 0.72776 0.88892 0.0
H87 H 0.27621 0.75228 0.7468 0.0
H88 H 0.2496 0.72552 0.74803 0.0
H89 H 0.26284 0.80339 0.74877 0.0
H90 H 0.18173 0.82121 0.70396 0.0
H91 H 0.20028 0.73719 0.73938 0.0
C92 C 0.28074 0.75821 0.81209 0.0
C93 C 0.28658 0.75251 0.84592 0.0
C94 C 0.25799 0.74481 0.79572 0.0
C95 C 0.24048 0.72609 0.8137 0.0
C96 C 0.24613 0.71969 0.84745 0.0
C97 C 0.26895 0.73349 0.86347 0.0
C98 C 0.25533 0.74673 0.75816 0.0
C99 C 0.23345 0.76825 0.74704 0.0
C100 C 0.24146 0.79673 0.74234 0.0
C101 C 0.22274 0.81606 0.72703 0.0
C102 C 0.19552 0.80686 0.71768 0.0
C103 C 0.18722 0.77851 0.72178 0.0
C104 C 0.20616 0.75934 0.737 0.0
H105 H 0.30734 0.24058 0.81011 0.0
H106 H 0.24531 0.30379 0.78256 0.0
H107 H 0.32165 0.32805 0.83394 0.0
H108 H 0.26112 0.22608 0.79269 0.0
H109 H 0.23341 0.25165 0.79113 0.0
H110 H 0.28878 0.21441 0.74171 0.0
H111 H 0.2421 0.2251 0.65011 0.0
H112 H 0.21601 0.26953 0.73863 0.0
C113 C 0.3012 0.26266 0.80782 0.0
C114 C 0.3177 0.28361 0.82349 0.0
C115 C 0.27527 0.26988 0.79218 0.0
C116 C 0.26615 0.29838 0.79228 0.0
C117 C 0.28299 0.31951 0.8071 0.0
C118 C 0.30914 0.31199 0.82131 0.0
C119 C 0.25501 0.24679 0.78134 0.0
C120 C 0.25349 0.24354 0.7438 0.0
C121 C 0.27209 0.22477 0.72751 0.0
C122 C 0.26808 0.21787 0.69366 0.0
C123 C 0.24574 0.23087 0.67594 0.0
C124 C 0.22662 0.2494 0.69187 0.0
C125 C 0.23112 0.25615 0.72567 0.0
H126 H 0.69402 0.22966 0.78804 0.0
H127 H 0.74831 0.30319 0.78932 0.0
H128 H 0.71002 0.27347 0.88021 0.0
H129 H 0.70216 0.26275 0.7369 0.0
H130 H 0.73179 0.28616 0.73733 0.0
H131 H 0.70893 0.21093 0.73432 0.0
H132 H 0.78595 0.18455 0.68578 0.0
H133 H 0.77988 0.26829 0.72722 0.0
C134 C 0.70524 0.2459 0.80186 0.0
C135 C 0.70092 0.24834 0.83656 0.0
C136 C 0.72281 0.26531 0.78467 0.0
C137 C 0.73578 0.28744 0.80253 0.0
C138 C 0.73132 0.29038 0.83702 0.0
C139 C 0.71453 0.27037 0.8539 0.0
C140 C 0.7241 0.26534 0.7469 0.0
C141 C 0.74259 0.24192 0.73308 0.0
C142 C 0.73072 0.21508 0.72705 0.0
C143 C 0.74629 0.1941 0.71027 0.0
C144 C 0.77433 0.20006 0.7003 0.0
C145 C 0.78681 0.22662 0.70635 0.0
C146 C 0.77079 0.24748 0.72301 0.0
H147 H 0.77417 0.6851 0.76103 0.0
H148 H 0.6993 0.73723 0.76682 0.0
H149 H 0.73478 0.70132 0.85617 0.0
H150 H 0.73514 0.69012 0.71359 0.0
H151 H 0.71402 0.72133 0.71416 0.0
H152 H 0.78461 0.69162 0.69766 0.0
H153 H 0.81262 0.76667 0.64705 0.0
H154 H 0.73713 0.76912 0.70826 0.0
C155 C 0.75837 0.69599 0.77593 0.0
C156 C 0.75789 0.6921 0.81085 0.0
C157 C 0.73747 0.71255 0.7599 0.0
C158 C 0.71611 0.72539 0.77911 0.0
C159 C 0.71517 0.72155 0.81384 0.0
C160 C 0.73644 0.70547 0.82958 0.0
C161 C 0.73488 0.71251 0.72229 0.0
C162 C 0.75841 0.72874 0.70514 0.0
C163 C 0.78216 0.71412 0.69274 0.0
C164 C 0.80167 0.72795 0.67201 0.0
C165 C 0.79791 0.75671 0.6643 0.0
C166 C 0.77496 0.77221 0.67748 0.0
C167 C 0.75533 0.75793 0.69825 0.0
C168 C 0.9642 0.25345 0.5676 0.0
C169 C 0.03686 0.25468 0.47932 0.0
O170 O 0.97405 0.27836 0.56174 0.0
Zn171 Zn 0.00483 0.29804 0.52929 0.0
O172 O 0.97415 0.23246 0.55153 0.0
Zn173 Zn 1.0014 0.25291 0.52411 0.0
O174 O 0.03277 0.26667 0.55889 0.0
O175 O 0.03339 0.31345 0.5599 0.0
O176 O 0.02416 0.23303 0.49122 0.0
O177 O 0.03153 0.27928 0.49145 0.0
O178 O 0.98039 0.32291 0.50223 0.0
O179 O 0.97483 0.27721 0.49196 0.0
C180 C 0.04322 0.28984 0.5702 0.0
C181 C 0.9686 0.3031 0.48568 0.0
C182 C 0.70256 0.0318 0.57065 0.0
C183 C 0.71364 0.97214 0.47223 0.0
O184 O 0.72855 0.02646 0.56356 0.0
Zn185 Zn 0.75223 0.00419 0.52671 0.0
O186 O 0.68268 0.02236 0.55225 0.0
Zn187 Zn 0.70705 0.00222 0.52109 0.0
O188 O 0.72571 0.9689 0.55118 0.0
O189 O 0.77204 0.97637 0.55376 0.0
O190 O 0.6903 0.98067 0.48476 0.0
O191 O 0.73724 0.97948 0.48573 0.0
O192 O 0.77344 0.03396 0.50408 0.0
O193 O 0.72726 0.03659 0.4949 0.0
C194 C 0.75045 0.96155 0.56168 0.0
C195 C 0.75243 0.0463 0.49026 0.0
C196 C 0.97048 0.69625 0.53858 0.0
C197 C 0.04751 0.71121 0.45874 0.0
O198 O 0.97617 0.72245 0.53318 0.0
Zn199 Zn 1.00358 0.74753 0.50233 0.0
O200 O 0.9833 0.67702 0.52223 0.0
Zn201 Zn 0.00771 0.70278 0.49721 0.0
O202 O 0.03239 0.72173 0.5369 0.0
O203 O 0.02472 0.76793 0.53599 0.0
O204 O 0.03735 0.68762 0.46852 0.0
O205 O 0.03651 0.7344 0.46919 0.0
O206 O 0.97718 0.76793 0.47401 0.0
O207 O 0.97746 0.72208 0.46357 0.0
C208 C 0.03692 0.74649 0.54904 0.0
C209 C 0.96764 0.74698 0.45754 0.0
C210 C 0.30632 0.04542 0.56053 0.0
C211 C 0.30511 0.96375 0.48408 0.0
O212 O 0.32816 0.03312 0.54857 0.0
Zn213 Zn 0.30748 0.00476 0.52224 0.0
O214 O 0.28143 0.03704 0.55203 0.0
Zn215 Zn 0.26191 0.00594 0.52095 0.0
O216 O 0.24004 0.98442 0.553 0.0
O217 O 0.28641 0.98044 0.56042 0.0
O218 O 0.28053 0.97369 0.49121 0.0
O219 O 0.32718 0.97488 0.49701 0.0
O220 O 0.2894 0.03091 0.4836 0.0
O221 O 0.24262 0.02854 0.4877 0.0
C222 C 0.26093 0.97439 0.56944 0.0
C223 C 0.26464 0.03817 0.47312 0.0
C224 C 0.4835 0.75335 0.05986 0.0
C225 C 0.54799 0.75543 0.9648 0.0
O226 O 0.48634 0.77822 0.04733 0.0
Zn227 Zn 0.50941 0.79854 1.00804 0.0
O228 O 0.49664 0.73251 0.04707 0.0
Zn229 Zn 0.51475 0.75359 1.01132 0.0
O230 O 0.54513 0.77818 0.03824 0.0
O231 O 0.53431 0.82368 0.0338 0.0
O232 O 0.53876 0.73381 0.98046 0.0
O233 O 0.53877 0.78023 0.97244 0.0
O234 O 0.47854 0.81373 0.98063 0.0
O235 O 0.48018 0.76698 0.98029 0.0
C236 C 0.55033 0.80415 0.04519 0.0
C237 C 0.46847 0.79017 0.9707 0.0
C238 C 0.25399 0.53625 0.06259 0.0
C239 C 0.25158 0.47551 0.96353 0.0
O240 O 0.27513 0.52735 0.0458 0.0
Zn241 Zn 0.25404 0.50536 1.01328 0.0
O242 O 0.22878 0.52891 0.05399 0.0
Zn243 Zn 0.20832 0.504 0.01643 0.0
O244 O 0.1907 0.47336 0.04295 0.0
O245 O 0.23752 0.47163 0.04248 0.0
O246 O 0.22683 0.48098 0.97539 0.0
O247 O 0.27357 0.48521 0.97816 0.0
O248 O 0.23244 0.53701 0.98531 0.0
O249 O 0.18605 0.53329 0.99299 0.0
C250 C 0.2137 0.46135 0.05213 0.0
C251 C 0.20716 0.54573 0.9794 0.0
C252 C 0.5452 0.20827 0.99421 0.0
C253 C 0.46954 0.20896 0.07912 0.0
O254 O 0.53706 0.23307 1.00303 0.0
Zn255 Zn 0.50846 0.25239 0.03771 0.0
O256 O 0.53486 0.18652 1.00874 0.0
Zn257 Zn 0.50872 0.20729 0.03802 0.0
O258 O 0.48079 0.22686 1.00172 0.0
O259 O 0.48424 0.27327 1.00759 0.0
O260 O 0.48109 0.18724 0.06612 0.0
O261 O 0.47823 0.23375 0.07091 0.0
O262 O 0.53357 0.27306 0.06671 0.0
O263 O 0.5381 0.22678 0.07271 0.0
C264 C 0.47351 0.25199 0.99274 0.0
C265 C 0.54559 0.25205 0.08079 0.0
C266 C 0.7618 0.54678 0.05054 0.0
C267 C 0.76347 0.46507 0.97586 0.0
O268 O 0.78709 0.53854 0.04349 0.0
Zn269 Zn 0.80743 0.5063 1.01421 0.0
O270 O 0.7406 0.53384 0.03804 0.0
Zn271 Zn 0.76183 0.50615 1.01278 0.0
O272 O 0.78041 0.48118 0.05142 0.0
O273 O 0.8272 0.48385 0.04841 0.0
O274 O 0.74179 0.47824 0.98674 0.0
O275 O 0.78847 0.47344 0.98418 0.0
O276 O 0.82828 0.52932 0.9815 0.0
O277 O 0.78167 0.53102 0.97503 0.0
C278 C 0.80496 0.47425 0.06267 0.0
C279 C 0.80663 0.53836 0.9656 0.0
H280 H 0.12905 0.21413 0.29551 0.0
H281 H 0.18987 0.255 0.36013 0.0
H282 H 0.09113 0.22413 0.33584 0.0
H283 H 0.15215 0.2651 0.40036 0.0
H284 H 0.07283 0.29536 0.45533 0.0
H285 H 0.10677 0.29161 0.40956 0.0
H286 H 0.08153 0.20463 0.39386 0.0
H287 H 0.0474 0.20831 0.43979 0.0
C288 C 0.13408 0.2261 0.31782 0.0
C289 C 0.16228 0.23402 0.32465 0.0
C290 C 0.11251 0.23144 0.3411 0.0
C291 C 0.11872 0.24512 0.37144 0.0
C292 C 0.14663 0.25466 0.37718 0.0
C293 C 0.16821 0.24898 0.35414 0.0
C294 C 0.07441 0.27541 0.44212 0.0
C295 C 0.05745 0.25207 0.45138 0.0
C296 C 0.09391 0.2733 0.41589 0.0
C297 C 0.09677 0.24788 0.39801 0.0
C298 C 0.07955 0.22463 0.40689 0.0
C299 C 0.0602 0.22665 0.43341 0.0
H300 H 0.79586 0.16113 0.32708 0.0
H301 H 0.75474 0.21453 0.39985 0.0
H302 H 0.78796 0.11973 0.36311 0.0
H303 H 0.74656 0.17312 0.43574 0.0
H304 H 0.71266 0.08539 0.47172 0.0
H305 H 0.71862 0.12609 0.43448 0.0
H306 H 0.80715 0.10466 0.42145 0.0
H307 H 0.80134 0.06399 0.45915 0.0
C308 C 0.78464 0.16388 0.35048 0.0
C309 C 0.77575 0.19098 0.36062 0.0
C310 C 0.78042 0.14029 0.37124 0.0
C311 C 0.76681 0.14325 0.4023 0.0
C312 C 0.75702 0.1702 0.41188 0.0
C313 C 0.76168 0.19386 0.3914 0.0
C314 C 0.73344 0.08936 0.461 0.0
C315 C 0.75656 0.07146 0.46843 0.0
C316 C 0.73683 0.11273 0.43975 0.0
C317 C 0.7633 0.11846 0.42496 0.0
C318 C 0.78643 0.10056 0.43228 0.0
C319 C 0.78316 0.07743 0.45404 0.0
H320 H 0.83677 0.80815 0.31896 0.0
H321 H 0.80542 0.72889 0.35878 0.0
H322 H 0.88223 0.80039 0.347 0.0
H323 H 0.85075 0.72117 0.387 0.0
H324 H 0.94194 0.70643 0.41905 0.0
H325 H 0.90115 0.71201 0.38195 0.0
H326 H 0.89876 0.80159 0.40414 0.0
H327 H 0.93987 0.79613 0.44069 0.0
C328 C 0.8397 0.78891 0.33342 0.0
C329 C 0.81738 0.76922 0.33677 0.0
C330 C 0.86571 0.78452 0.34964 0.0
C331 C 0.8701 0.76033 0.36966 0.0
C332 C 0.84828 0.73992 0.37157 0.0
C333 C 0.82225 0.7443 0.3553 0.0
C334 C 0.93291 0.72739 0.41577 0.0
C335 C 0.94419 0.75082 0.433 0.0
C336 C 0.90939 0.73055 0.39461 0.0
C337 C 0.89652 0.75722 0.39008 0.0
C338 C 0.9083 0.78078 0.40663 0.0
C339 C 0.93182 0.77763 0.42779 0.0
H340 H 0.2876 0.79296 0.41396 0.0
H341 H 0.28093 0.84245 0.32328 0.0
H342 H 0.30195 0.83561 0.44453 0.0
H343 H 0.29558 0.88471 0.35363 0.0
H344 H 0.2703 0.95347 0.43192 0.0
H345 H 0.26776 0.9112 0.39742 0.0
H346 H 0.33991 0.87581 0.44973 0.0
H347 H 0.3427 0.91885 0.48439 0.0
C348 C 0.28968 0.8128 0.40045 0.0
C349 C 0.283 0.81428 0.3662 0.0
C350 C 0.29814 0.83715 0.41789 0.0
C351 C 0.29976 0.86353 0.4015 0.0
C352 C 0.29438 0.86471 0.36697 0.0
C353 C 0.28619 0.8404 0.34952 0.0
C354 C 0.28595 0.93689 0.43576 0.0
C355 C 0.3067 0.93944 0.46084 0.0
C356 C 0.28457 0.91272 0.41586 0.0
C357 C 0.30364 0.89017 0.42082 0.0
C358 C 0.3249 0.89287 0.44542 0.0
C359 C 0.32664 0.9175 0.46504 0.0
H360 H 0.18158 0.73309 0.68033 0.0
H361 H 0.13429 0.80262 0.72287 0.0
H362 H 0.14269 0.72383 0.64172 0.0
H363 H 0.09504 0.79317 0.68446 0.0
H364 H 0.05535 0.79561 0.57857 0.0
H365 H 0.08849 0.80035 0.62512 0.0
H366 H 0.0944 0.70909 0.6327 0.0
H367 H 0.06189 0.70436 0.58571 0.0
C368 C 0.16243 0.74575 0.68224 0.0
C369 C 0.16104 0.76865 0.70455 0.0
C370 C 0.14012 0.74054 0.65997 0.0
C371 C 0.11588 0.75806 0.65958 0.0
C372 C 0.11367 0.77969 0.68355 0.0
C373 C 0.13602 0.78494 0.70576 0.0
C374 C 0.06363 0.77657 0.59026 0.0
C375 C 0.05615 0.74964 0.57818 0.0
C376 C 0.08246 0.77926 0.61717 0.0
C377 C 0.09415 0.75508 0.63272 0.0
C378 C 0.08613 0.72816 0.62107 0.0
C379 C 0.06741 0.72547 0.59413 0.0
H380 H 0.2799 0.16609 0.72106 0.0
H381 H 0.29091 0.21496 0.63052 0.0
H382 H 0.29654 0.12375 0.69228 0.0
H383 H 0.30718 0.1723 0.60154 0.0
H384 H 0.3457 0.08872 0.56226 0.0
H385 H 0.34386 0.13133 0.59771 0.0
H386 H 0.26959 0.09781 0.64747 0.0
H387 H 0.2712 0.056 0.61217 0.0
C388 C 0.2867 0.16804 0.6953 0.0
C389 C 0.28386 0.19391 0.67803 0.0
C390 C 0.29601 0.14368 0.67873 0.0
C391 C 0.30287 0.14463 0.64456 0.0
C392 C 0.30217 0.17092 0.62791 0.0
C393 C 0.29264 0.19529 0.64444 0.0
C394 C 0.3294 0.09035 0.58127 0.0
C395 C 0.30854 0.06916 0.58445 0.0
C396 C 0.32824 0.11473 0.60137 0.0
C397 C 0.30663 0.11787 0.62545 0.0
C398 C 0.28671 0.09593 0.62951 0.0
C399 C 0.28753 0.07203 0.60912 0.0
H400 H 0.8039 0.2739 0.6717 0.0
H401 H 0.83429 0.19302 0.70781 0.0
H402 H 0.84825 0.28073 0.6411 0.0
H403 H 0.87878 0.19989 0.6775 0.0
H404 H 0.93519 0.20463 0.58327 0.0
H405 H 0.89425 0.19945 0.62017 0.0
H406 H 0.89876 0.2886 0.6442 0.0
H407 H 0.93926 0.2939 0.60676 0.0
C408 C 0.82033 0.25789 0.67379 0.0
C409 C 0.81546 0.23286 0.69208 0.0
C410 C 0.8458 0.26175 0.65615 0.0
C411 C 0.86707 0.2407 0.65645 0.0
C412 C 0.86267 0.21627 0.67605 0.0
C413 C 0.83722 0.2124 0.69359 0.0
C414 C 0.92759 0.22309 0.59659 0.0
C415 C 0.94051 0.24969 0.59187 0.0
C416 C 0.90416 0.2201 0.61795 0.0
C417 C 0.89306 0.24363 0.63521 0.0
C418 C 0.90641 0.2701 0.631 0.0
C419 C 0.92979 0.27309 0.60963 0.0
H420 H 0.81568 0.81283 0.66511 0.0
H421 H 0.72456 0.80062 0.66596 0.0
H422 H 0.80941 0.8588 0.63918 0.0
H423 H 0.71811 0.84795 0.6433 0.0
H424 H 0.71568 0.9155 0.56224 0.0
H425 H 0.72116 0.87174 0.5936 0.0
H426 H 0.79682 0.90557 0.64059 0.0
H427 H 0.79216 0.94866 0.60715 0.0
C428 C 0.79421 0.82004 0.66017 0.0
C429 C 0.77069 0.80245 0.66704 0.0
C430 C 0.79056 0.84684 0.64574 0.0
C431 C 0.7632 0.85731 0.63847 0.0
C432 C 0.7396 0.84048 0.64746 0.0
C433 C 0.74328 0.81337 0.66121 0.0
C434 C 0.73346 0.91357 0.57933 0.0
C435 C 0.75357 0.93546 0.58209 0.0
C436 C 0.73651 0.88848 0.5977 0.0
C437 C 0.75941 0.88479 0.62002 0.0
C438 C 0.77919 0.90713 0.62328 0.0
C439 C 0.77649 0.932 0.60424 0.0
H440 H 0.80714 0.71548 0.6065 0.0
H441 H 0.84892 0.70609 0.70183 0.0
H442 H 0.84936 0.69718 0.57827 0.0
H443 H 0.89159 0.688 0.67359 0.0
H444 H 0.92676 0.65813 0.53394 0.0
H445 H 0.88485 0.65608 0.5706 0.0
H446 H 0.92363 0.71784 0.63583 0.0
H447 H 0.96485 0.72017 0.59914 0.0
C448 C 0.82521 0.70875 0.62137 0.0
C449 C 0.82509 0.71223 0.65614 0.0
C450 C 0.84925 0.69808 0.60532 0.0
C451 C 0.87374 0.69117 0.62376 0.0
C452 C 0.87296 0.69315 0.65883 0.0
C453 C 0.84868 0.70345 0.67495 0.0
C454 C 0.92657 0.67049 0.55671 0.0
C455 C 0.94875 0.68945 0.56375 0.0
C456 C 0.90264 0.66943 0.57755 0.0
C457 C 0.901 0.68686 0.60598 0.0
C458 C 0.92439 0.70394 0.61434 0.0
C459 C 0.9479 0.70542 0.59325 0.0
H460 H 0.19526 0.86717 0.7304 0.0
H461 H 0.27208 0.82772 0.69411 0.0
H462 H 0.20584 0.90955 0.69737 0.0
H463 H 0.28256 0.86975 0.66102 0.0
H464 H 0.21058 0.95244 0.5924 0.0
H465 H 0.20388 0.91817 0.63746 0.0
H466 H 0.29416 0.91954 0.65772 0.0
H467 H 0.30095 0.95327 0.61224 0.0
C468 C 0.21476 0.86785 0.716 0.0
C469 C 0.23274 0.84406 0.71468 0.0
C470 C 0.2207 0.892 0.69689 0.0
C471 C 0.24477 0.89285 0.67608 0.0
C472 C 0.26393 0.86994 0.67691 0.0
C473 C 0.25799 0.84581 0.69604 0.0
C474 C 0.22896 0.94563 0.60666 0.0
C475 C 0.25632 0.95534 0.59844 0.0
C476 C 0.22511 0.92615 0.63271 0.0
C477 C 0.24852 0.91605 0.65119 0.0
C478 C 0.27574 0.92659 0.64372 0.0
C479 C 0.27959 0.94598 0.61765 0.0
H480 H 0.19934 0.30133 0.69346 0.0
H481 H 0.19278 0.21719 0.65168 0.0
H482 H 0.15371 0.31394 0.66746 0.0
H483 H 0.14845 0.23003 0.62493 0.0
H484 H 0.05677 0.24609 0.61118 0.0
H485 H 0.10039 0.23896 0.64256 0.0
H486 H 0.12994 0.32189 0.61218 0.0
H487 H 0.08545 0.32935 0.58116 0.0
C488 C 0.18834 0.28563 0.67858 0.0
C489 C 0.19991 0.2583 0.67453 0.0
C490 C 0.16232 0.29291 0.66352 0.0
C491 C 0.14724 0.27291 0.6444 0.0
C492 C 0.15915 0.24584 0.63996 0.0
C493 C 0.18495 0.23861 0.6549 0.0
C494 C 0.07236 0.26301 0.61151 0.0
C495 C 0.0678 0.28815 0.59334 0.0
C496 C 0.0975 0.25885 0.62935 0.0
C497 C 0.11902 0.27955 0.62923 0.0
C498 C 0.11381 0.30549 0.61274 0.0
C499 C 0.08835 0.30978 0.59499 0.0
H500 H 0.692 0.18582 0.68672 0.0
H501 H 0.76982 0.14109 0.70969 0.0
H502 H 0.67267 0.1431 0.66136 0.0
H503 H 0.75158 0.09926 0.6822 0.0
H504 H 0.71881 0.02428 0.63476 0.0
H505 H 0.72156 0.06077 0.67766 0.0
H506 H 0.67975 0.1198 0.61068 0.0
H507 H 0.67533 0.08246 0.56905 0.0
C508 C 0.70482 0.16674 0.68694 0.0
C509 C 0.73268 0.16703 0.69983 0.0
C510 C 0.69386 0.1423 0.67192 0.0
C511 C 0.71061 0.11769 0.66911 0.0
C512 C 0.73776 0.11754 0.68403 0.0
C513 C 0.74851 0.14179 0.69941 0.0
C514 C 0.70919 0.04478 0.62997 0.0
C515 C 0.69683 0.05073 0.59885 0.0
C516 C 0.71109 0.06584 0.65429 0.0
C517 C 0.70165 0.0936 0.64743 0.0
C518 C 0.68713 0.09874 0.61715 0.0
C519 C 0.68456 0.07737 0.59316 0.0
H520 H 0.86198 0.27965 0.31281 0.0
H521 H 0.80829 0.28471 0.40017 0.0
H522 H 0.90074 0.30124 0.34388 0.0
H523 H 0.84764 0.30498 0.43176 0.0
H524 H 0.92376 0.34069 0.48455 0.0
H525 H 0.8845 0.34098 0.44379 0.0
H526 H 0.92825 0.27706 0.38615 0.0
H527 H 0.9668 0.27696 0.42633 0.0
C528 C 0.85809 0.28612 0.33834 0.0
C529 C 0.83212 0.27987 0.35416 0.0
C530 C 0.88048 0.29826 0.35629 0.0
C531 C 0.87754 0.30422 0.39054 0.0
C532 C 0.85071 0.30066 0.40545 0.0
C533 C 0.82822 0.28868 0.38742 0.0
C534 C 0.9252 0.32747 0.46253 0.0
C535 C 0.94812 0.3087 0.45854 0.0
C536 C 0.90271 0.32744 0.43937 0.0
C537 C 0.90316 0.30898 0.41171 0.0
C538 C 0.92724 0.29185 0.40676 0.0
C539 C 0.94931 0.29162 0.42995 0.0
H540 H 0.76744 0.86295 0.31019 0.0
H541 H 0.70306 0.81726 0.3651 0.0
H542 H 0.75382 0.90672 0.33842 0.0
H543 H 0.69013 0.8606 0.39447 0.0
H544 H 0.66906 0.94416 0.442 0.0
H545 H 0.67226 0.90844 0.39779 0.0
H546 H 0.76336 0.92061 0.39398 0.0
H547 H 0.76007 0.95636 0.43676 0.0
C548 C 0.75003 0.86247 0.3279 0.0
C549 C 0.73647 0.83682 0.33578 0.0
C550 C 0.7423 0.88743 0.34422 0.0
C551 C 0.72129 0.88708 0.36928 0.0
C552 C 0.70626 0.86176 0.37521 0.0
C553 C 0.71371 0.83687 0.35847 0.0
C554 C 0.68964 0.93949 0.43118 0.0
C555 C 0.71433 0.95287 0.44315 0.0
C556 C 0.6915 0.91897 0.40599 0.0
C557 C 0.71807 0.91158 0.3923 0.0
C558 C 0.74246 0.92599 0.40337 0.0
C559 C 0.7406 0.94636 0.42834 0.0
H560 H 0.18035 0.75141 0.31461 0.0
H561 H 0.22325 0.73072 0.40698 0.0
H562 H 0.13517 0.73645 0.33884 0.0
H563 H 0.17775 0.71578 0.43134 0.0
H564 H 0.09097 0.67263 0.45398 0.0
H565 H 0.13623 0.67889 0.42416 0.0
H566 H 0.10683 0.75951 0.38611 0.0
H567 H 0.06211 0.75353 0.41606 0.0
C568 C 0.18023 0.74309 0.33987 0.0
C569 C 0.20538 0.7422 0.3589 0.0
C570 C 0.15432 0.73472 0.35379 0.0
C571 C 0.15297 0.72502 0.38695 0.0
C572 C 0.17825 0.72296 0.40561 0.0
C573 C 0.2042 0.73169 0.39179 0.0
C574 C 0.09406 0.69141 0.43874 0.0
C575 C 0.07307 0.71261 0.43731 0.0
C576 C 0.11998 0.69508 0.42195 0.0
C577 C 0.125 0.71969 0.40289 0.0
C578 C 0.10347 0.74023 0.40038 0.0
C579 C 0.07791 0.73684 0.41761 0.0
H580 H 0.21995 0.13048 0.29108 0.0
H581 H 0.2594 0.191 0.35712 0.0
H582 H 0.23306 0.09193 0.32931 0.0
H583 H 0.27283 0.15251 0.39516 0.0
H584 H 0.30599 0.07209 0.4467 0.0
H585 H 0.30153 0.10616 0.40085 0.0
H586 H 0.21332 0.08294 0.38876 0.0
H587 H 0.2176 0.04902 0.43483 0.0
C588 C 0.23238 0.13535 0.31314 0.0
C589 C 0.23883 0.16359 0.32119 0.0
C590 C 0.23956 0.11339 0.33516 0.0
C591 C 0.25368 0.11932 0.3653 0.0
C592 C 0.26207 0.14734 0.37202 0.0
C593 C 0.25449 0.16932 0.35028 0.0
C594 C 0.28568 0.07409 0.43412 0.0
C595 C 0.26208 0.05796 0.4445 0.0
C596 C 0.28317 0.09361 0.40792 0.0
C597 C 0.25716 0.09705 0.39119 0.0
C598 C 0.23374 0.08043 0.40097 0.0
C599 C 0.23612 0.06121 0.42752 0.0
H600 H 0.7137 0.7508 0.87277 0.0
H601 H 0.65965 0.71161 0.79888 0.0
H602 H 0.67183 0.76095 0.90727 0.0
H603 H 0.61796 0.72152 0.83341 0.0
H604 H 0.56318 0.70766 0.93065 0.0
H605 H 0.60293 0.70208 0.89181 0.0
H606 H 0.62457 0.7904 0.90407 0.0
H607 H 0.5846 0.79619 0.94253 0.0
C608 C 0.69284 0.74471 0.86378 0.0
C609 C 0.68985 0.73059 0.83312 0.0
C610 C 0.66894 0.75056 0.8834 0.0
C611 C 0.64174 0.74191 0.87298 0.0
C612 C 0.63872 0.72828 0.84205 0.0
C613 C 0.66252 0.72286 0.8222 0.0
C614 C 0.57625 0.72594 0.9248 0.0
C615 C 0.57074 0.75236 0.93958 0.0
C616 C 0.5989 0.72277 0.90251 0.0
C617 C 0.61678 0.74582 0.89504 0.0
C618 C 0.61116 0.77229 0.90956 0.0
C619 C 0.58819 0.7756 0.93138 0.0
H620 H 0.23008 0.66883 0.82055 0.0
H621 H 0.22874 0.7158 0.9131 0.0
H622 H 0.21231 0.62715 0.84956 0.0
H623 H 0.21195 0.67339 0.94246 0.0
H624 H 0.17158 0.59202 0.98451 0.0
H625 H 0.17384 0.63558 0.95034 0.0
H626 H 0.23863 0.59705 0.8889 0.0
H627 H 0.2364 0.55429 0.9227 0.0
C628 C 0.22535 0.67058 0.84694 0.0
C629 C 0.23109 0.69577 0.86448 0.0
C630 C 0.2154 0.64649 0.86365 0.0
C631 C 0.21105 0.64683 0.89838 0.0
C632 C 0.21496 0.67246 0.91566 0.0
C633 C 0.22492 0.69667 0.89889 0.0
C634 C 0.18568 0.59279 0.96313 0.0
C635 C 0.20381 0.56988 0.95615 0.0
C636 C 0.18718 0.61772 0.9438 0.0
C637 C 0.20641 0.61977 0.91688 0.0
C638 C 0.22331 0.59614 0.90909 0.0
C639 C 0.22214 0.57164 0.92857 0.0
H640 H 0.36373 0.2481 0.81389 0.0
H641 H 0.3235 0.30192 0.88706 0.0
H642 H 0.40326 0.23957 0.85313 0.0
H643 H 0.36249 0.2937 0.92557 0.0
H644 H 0.44968 0.30156 0.97074 0.0
H645 H 0.41334 0.30758 0.92783 0.0
H646 H 0.41327 0.2173 0.91007 0.0
H647 H 0.44988 0.21119 0.95286 0.0
C648 C 0.36329 0.25794 0.8383 0.0
C649 C 0.34093 0.2762 0.84712 0.0
C650 C 0.38583 0.25312 0.86069 0.0
C651 C 0.38623 0.26651 0.89212 0.0
C652 C 0.36324 0.28377 0.90121 0.0
C653 C 0.34088 0.28845 0.87911 0.0
C654 C 0.44208 0.283 0.95759 0.0
C655 C 0.45248 0.25588 0.96551 0.0
C656 C 0.4212 0.28643 0.93307 0.0
C657 C 0.41029 0.26286 0.9158 0.0
C658 C 0.42137 0.23585 0.92284 0.0
C659 C 0.44218 0.23238 0.94754 0.0
H660 H 0.72301 0.34517 0.81776 0.0
H661 H 0.75916 0.29415 0.89685 0.0
H662 H 0.73211 0.38806 0.85027 0.0
H663 H 0.76839 0.33713 0.92937 0.0
H664 H 0.80339 0.42493 0.96154 0.0
H665 H 0.79807 0.38305 0.92631 0.0
H666 H 0.71109 0.40652 0.90554 0.0
H667 H 0.71622 0.44835 0.94105 0.0
C668 C 0.73347 0.34321 0.84179 0.0
C669 C 0.74053 0.31638 0.85476 0.0
C670 C 0.73837 0.3677 0.86051 0.0
C671 C 0.75078 0.36587 0.89238 0.0
C672 C 0.75891 0.33914 0.9048 0.0
C673 C 0.75361 0.31459 0.88627 0.0
C674 C 0.78314 0.42122 0.9494 0.0
C675 C 0.7602 0.43995 0.9541 0.0
C676 C 0.7801 0.39719 0.92935 0.0
C677 C 0.75422 0.39162 0.91316 0.0
C678 C 0.73137 0.41049 0.9175 0.0
C679 C 0.73426 0.43431 0.93798 0.0
H680 H 0.7103 0.30077 0.14672 0.0
H681 H 0.68269 0.25176 0.23226 0.0
H682 H 0.66436 0.29402 0.12057 0.0
H683 H 0.63648 0.24419 0.20504 0.0
H684 H 0.57423 0.21229 0.11815 0.0
H685 H 0.61689 0.21948 0.15219 0.0
H686 H 0.61379 0.30921 0.13078 0.0
H687 H 0.57132 0.30218 0.09686 0.0
C688 C 0.69431 0.2889 0.16031 0.0
C689 C 0.70016 0.27736 0.19209 0.0
C690 C 0.66793 0.28493 0.14512 0.0
C691 C 0.64665 0.26892 0.16092 0.0
C692 C 0.65251 0.25668 0.1923 0.0
C693 C 0.67898 0.26096 0.20782 0.0
C694 C 0.58244 0.23361 0.12106 0.0
C695 C 0.56948 0.25663 0.10448 0.0
C696 C 0.60679 0.23771 0.1407 0.0
C697 C 0.61882 0.26485 0.14389 0.0
C698 C 0.60519 0.28798 0.12844 0.0
C699 C 0.58078 0.28395 0.10909 0.0
H700 H 0.71674 0.66011 0.21363 0.0
H701 H 0.75883 0.71351 0.14111 0.0
H702 H 0.7256 0.61864 0.17847 0.0
H703 H 0.76774 0.67207 0.10598 0.0
H704 H 0.80155 0.58555 0.06965 0.0
H705 H 0.79548 0.62563 0.10736 0.0
H706 H 0.70717 0.60328 0.12083 0.0
H707 H 0.71311 0.56312 0.08285 0.0
C708 C 0.72837 0.66285 0.19049 0.0
C709 C 0.73721 0.68995 0.1801 0.0
C710 C 0.73314 0.63922 0.17023 0.0
C711 C 0.74717 0.64221 0.13943 0.0
C712 C 0.75698 0.66915 0.12966 0.0
C713 C 0.75186 0.69283 0.14969 0.0
C714 C 0.78081 0.58913 0.08065 0.0
C715 C 0.75778 0.57117 0.07323 0.0
C716 C 0.77736 0.61214 0.10215 0.0
C717 C 0.7509 0.61749 0.11706 0.0
C718 C 0.72789 0.59945 0.1099 0.0
C719 C 0.73123 0.57662 0.08799 0.0
H720 H 0.38038 0.68903 0.22244 0.0
H721 H 0.35094 0.77491 0.20633 0.0
H722 H 0.41931 0.69729 0.1842 0.0
H723 H 0.39195 0.78432 0.17187 0.0
H724 H 0.43355 0.77976 0.07062 0.0
H725 H 0.40185 0.77466 0.11782 0.0
H726 H 0.46058 0.71519 0.16342 0.0
H727 H 0.49116 0.71884 0.11422 0.0
C728 C 0.38258 0.70995 0.21148 0.0
C729 C 0.36158 0.73082 0.21643 0.0
C730 C 0.40533 0.71487 0.1898 0.0
C731 C 0.40833 0.74121 0.17355 0.0
C732 C 0.38962 0.76328 0.18241 0.0
C733 C 0.36629 0.75805 0.20308 0.0
C734 C 0.43957 0.76554 0.09076 0.0
C735 C 0.46459 0.74953 0.08879 0.0
C736 C 0.4216 0.76289 0.11824 0.0
C737 C 0.42863 0.74481 0.14512 0.0
C738 C 0.45408 0.72904 0.14321 0.0
C739 C 0.47169 0.7311 0.11507 0.0
H740 H 0.19516 0.29099 0.1355 0.0
H741 H 0.26477 0.32857 0.18989 0.0
H742 H 0.1854 0.33677 0.10862 0.0
H743 H 0.25461 0.37436 0.16411 0.0
H744 H 0.26023 0.43364 0.07533 0.0
H745 H 0.2627 0.39109 0.10871 0.0
H746 H 0.17095 0.38713 0.11207 0.0
H747 H 0.16837 0.43022 0.07737 0.0
C748 C 0.20786 0.30924 0.14234 0.0
C749 C 0.23096 0.30621 0.1644 0.0
C750 C 0.20225 0.33548 0.12702 0.0
C751 C 0.21955 0.35917 0.13369 0.0
C752 C 0.24133 0.35642 0.15767 0.0
C753 C 0.2471 0.33024 0.1726 0.0
C754 C 0.24042 0.42396 0.08316 0.0
C755 C 0.21405 0.43552 0.07358 0.0
C756 C 0.24189 0.39953 0.10271 0.0
C757 C 0.21705 0.38578 0.11358 0.0
C758 C 0.19051 0.39718 0.10408 0.0
C759 C 0.18902 0.4219 0.08432 0.0
H760 H 0.29746 0.18931 0.16077 0.0
H761 H 0.32636 0.27425 0.18262 0.0
H762 H 0.34531 0.17654 0.14315 0.0
H763 H 0.3731 0.26247 0.16216 0.0
H764 H 0.46011 0.23735 0.13682 0.0
H765 H 0.41576 0.24078 0.16784 0.0
H766 H 0.37677 0.18141 0.0994 0.0
H767 H 0.42207 0.17649 0.0703 0.0
C768 C 0.31399 0.20526 0.1621 0.0
C769 C 0.30771 0.23299 0.17283 0.0
C770 C 0.34148 0.19804 0.1514 0.0
C771 C 0.36344 0.21842 0.1507 0.0
C772 C 0.35725 0.24584 0.16259 0.0
C773 C 0.33002 0.25286 0.17383 0.0
C774 C 0.4422 0.22446 0.12911 0.0
C775 C 0.44449 0.20662 0.10127 0.0
C776 C 0.41653 0.22671 0.14656 0.0
C777 C 0.39206 0.21201 0.13583 0.0
C778 C 0.39494 0.19297 0.10886 0.0
C779 C 0.42096 0.1901 0.09202 0.0
H780 H 0.81338 0.31612 0.16552 0.0
H781 H 0.7605 0.36639 0.23029 0.0
H782 H 0.82764 0.35887 0.13517 0.0
H783 H 0.77569 0.40943 0.20124 0.0
H784 H 0.76234 0.4616 0.10552 0.0
H785 H 0.76102 0.42521 0.14795 0.0
H786 H 0.84927 0.40536 0.12879 0.0
H787 H 0.85034 0.44197 0.08495 0.0
C788 C 0.80582 0.33654 0.17412 0.0
C789 C 0.78575 0.3381 0.2 0.0
C790 C 0.814 0.36108 0.15679 0.0
C791 C 0.80236 0.38761 0.16527 0.0
C792 C 0.78449 0.38929 0.19345 0.0
C793 C 0.77599 0.36474 0.21035 0.0
C794 C 0.78166 0.44977 0.11048 0.0
C795 C 0.80637 0.4545 0.09153 0.0
C796 C 0.781 0.42901 0.13526 0.0
C797 C 0.80507 0.41227 0.14204 0.0
C798 C 0.83028 0.41774 0.12407 0.0
C799 C 0.83097 0.43878 0.09911 0.0
H800 H 0.71308 0.78915 0.1435 0.0
H801 H 0.6468 0.77429 0.21598 0.0
H802 H 0.67851 0.811 0.10584 0.0
H803 H 0.61207 0.7958 0.17818 0.0
H804 H 0.55337 0.83611 0.1023 0.0
H805 H 0.59276 0.83583 0.14292 0.0
H806 H 0.64211 0.78395 0.07562 0.0
H807 H 0.60308 0.78414 0.03586 0.0
C808 C 0.69124 0.79132 0.15173 0.0
C809 C 0.68253 0.77966 0.18242 0.0
C810 C 0.67143 0.80375 0.13017 0.0
C811 C 0.64245 0.80463 0.13874 0.0
C812 C 0.63424 0.79558 0.17087 0.0
C813 C 0.65414 0.78322 0.19255 0.0
C814 C 0.57308 0.82554 0.09595 0.0
C815 C 0.57539 0.81023 0.06605 0.0
C816 C 0.59548 0.82516 0.11922 0.0
C817 C 0.62059 0.80989 0.11252 0.0
C818 C 0.62335 0.7963 0.08147 0.0
C819 C 0.60094 0.79628 0.05868 0.0
H820 H 0.24606 0.68461 0.18623 0.0
H821 H 0.31396 0.63641 0.23172 0.0
H822 H 0.23478 0.64442 0.15035 0.0
H823 H 0.30274 0.59617 0.19577 0.0
H824 H 0.21268 0.56108 0.10045 0.0
H825 H 0.21857 0.59486 0.14585 0.0
H826 H 0.3098 0.58951 0.13509 0.0
H827 H 0.30398 0.55544 0.0898 0.0
C828 C 0.2579 0.66508 0.18941 0.0
C829 C 0.28103 0.66373 0.21161 0.0
C830 C 0.25156 0.64207 0.1687 0.0
C831 C 0.26824 0.6173 0.16979 0.0
C832 C 0.28992 0.61519 0.19384 0.0
C833 C 0.29618 0.63812 0.21459 0.0
C834 C 0.23404 0.5669 0.10789 0.0
C835 C 0.25789 0.55564 0.09133 0.0
C836 C 0.23736 0.58635 0.13388 0.0
C837 C 0.26461 0.59488 0.14409 0.0
C838 C 0.2885 0.58308 0.12812 0.0
C839 C 0.28518 0.56371 0.10198 0.0
H840 H 0.29314 0.77596 0.90817 0.0
H841 H 0.34016 0.75282 0.81973 0.0
H842 H 0.33777 0.78891 0.93601 0.0
H843 H 0.38454 0.76578 0.84745 0.0
H844 H 0.45355 0.74754 0.9288 0.0
H845 H 0.40981 0.74244 0.89672 0.0
H846 H 0.38092 0.8238 0.93233 0.0
H847 H 0.42524 0.82916 0.96435 0.0
C848 C 0.31295 0.774 0.89456 0.0
C849 C 0.31311 0.76338 0.86175 0.0
C850 C 0.33844 0.78158 0.9104 0.0
C851 C 0.36464 0.77827 0.89393 0.0
C852 C 0.36469 0.76844 0.86082 0.0
C853 C 0.33924 0.76122 0.84486 0.0
C854 C 0.43805 0.76452 0.92954 0.0
C855 C 0.44286 0.78876 0.94911 0.0
C856 C 0.41303 0.76165 0.91103 0.0
C857 C 0.39194 0.78272 0.912 0.0
C858 C 0.3968 0.80719 0.93122 0.0
C859 C 0.4222 0.81033 0.94933 0.0
H860 H 0.30809 0.37111 0.79699 0.0
H861 H 0.23315 0.33149 0.8382 0.0
H862 H 0.29804 0.4141 0.82878 0.0
H863 H 0.22328 0.37403 0.87037 0.0
H864 H 0.2087 0.45578 0.92378 0.0
H865 H 0.21229 0.42356 0.87652 0.0
H866 H 0.30366 0.42178 0.88812 0.0
H867 H 0.30012 0.45453 0.93486 0.0
C868 C 0.28887 0.37204 0.81187 0.0
C869 C 0.2715 0.34793 0.81532 0.0
C870 C 0.28331 0.39648 0.83044 0.0
C871 C 0.26029 0.39726 0.85284 0.0
C872 C 0.24119 0.37426 0.85337 0.0
C873 C 0.24671 0.34985 0.83472 0.0
C874 C 0.22961 0.44875 0.91605 0.0
C875 C 0.25413 0.45751 0.93336 0.0
C876 C 0.23163 0.43024 0.88894 0.0
C877 C 0.25822 0.41998 0.87849 0.0
C878 C 0.28284 0.42958 0.89508 0.0
C879 C 0.28082 0.44818 0.92214 0.0
H880 H 0.7051 0.22252 0.89781 0.0
H881 H 0.64682 0.2364 0.81597 0.0
H882 H 0.66588 0.20523 0.93239 0.0
H883 H 0.60774 0.21871 0.85034 0.0
H884 H 0.55001 0.24338 0.94122 0.0
H885 H 0.5871 0.24453 0.89906 0.0
H886 H 0.62543 0.16985 0.94271 0.0
H887 H 0.58757 0.16853 0.98523 0.0
C888 C 0.68405 0.22108 0.88691 0.0
C889 C 0.67901 0.23116 0.85429 0.0
C890 C 0.66162 0.21099 0.90665 0.0
C891 C 0.63365 0.21096 0.89424 0.0
C892 C 0.62903 0.21877 0.8607 0.0
C893 C 0.65148 0.22869 0.8409 0.0
C894 C 0.56607 0.2269 0.94157 0.0
C895 C 0.56602 0.20597 0.96663 0.0
C896 C 0.58722 0.22741 0.91718 0.0
C897 C 0.60919 0.20723 0.91744 0.0
C898 C 0.60874 0.18567 0.94191 0.0
C899 C 0.58708 0.18484 0.96611 0.0
H900 H 0.78525 0.69626 0.87124 0.0
H901 H 0.77181 0.63907 0.78864 0.0
H902 H 0.80535 0.6574 0.9041 0.0
H903 H 0.79267 0.60052 0.82109 0.0
H904 H 0.77286 0.53992 0.91119 0.0
H905 H 0.76992 0.57691 0.86901 0.0
H906 H 0.84207 0.6193 0.91337 0.0
H907 H 0.84504 0.58167 0.956 0.0
C908 C 0.78732 0.67559 0.85977 0.0
C909 C 0.77649 0.67071 0.8275 0.0
C910 C 0.79909 0.65337 0.8785 0.0
C911 C 0.80023 0.62577 0.86537 0.0
C912 C 0.79174 0.62148 0.83206 0.0
C913 C 0.78001 0.64368 0.81333 0.0
C914 C 0.78854 0.55677 0.9115 0.0
C915 C 0.80909 0.55802 0.93692 0.0
C916 C 0.787 0.57791 0.88715 0.0
C917 C 0.80574 0.60112 0.8878 0.0
C918 C 0.82727 0.60172 0.9123 0.0
C919 C 0.82912 0.58014 0.93651 0.0
loop_
_geom_bond_atom_site_label_1
_geom_bond_atom_site_label_2
_geom_bond_distance
_geom_bond_site_symmetry_2
_ccdc_geom_bond_type
H0 C8 0.930 . S
H1 C11 0.930 . S
H2 C13 0.930 . S
H3 C14 0.970 . S
H4 C14 0.970 . S
H5 C16 0.930 . S
H6 C18 0.930 . S
H7 C20 0.930 . S
C8 H0 0.930 . S
C8 C9 1.382 . S
C8 C10 1.426 . S
C9 C8 1.382 . S
C9 C13 1.389 . S
C10 C8 1.426 . S
C10 C11 1.375 . S
C10 C14 1.532 . S
C11 H1 0.930 . S
C11 C10 1.375 . S
C11 C12 1.416 . S
C12 C11 1.416 . S
C12 C13 1.371 . S
C13 H2 0.930 . S
C13 C9 1.389 . S
C13 C12 1.371 . S
C14 H3 0.970 . S
C14 H4 0.970 . S
C14 C10 1.532 . S
C14 C15 1.499 . S
C15 C14 1.499 . S
C15 C16 1.370 . S
C15 C20 1.415 . S
C16 H5 0.930 . S
C16 C15 1.370 . S
C16 C17 1.407 . S
C17 C16 1.407 . S
C17 C18 1.365 . S
C18 H6 0.930 . S
C18 C17 1.365 . S
C18 C19 1.393 . S
C19 C18 1.393 . S
C19 C20 1.387 . S
C20 H7 0.930 . S
C20 C15 1.415 . S
C20 C19 1.387 . S
H21 C29 0.930 . S
H22 C32 0.930 . S
H23 C34 0.930 . S
H24 C35 0.970 . S
H25 C35 0.970 . S
H26 C37 0.930 . S
H27 C39 0.930 . S
H28 C41 0.930 . S
C29 H21 0.930 . S
C29 C30 1.382 . S
C29 C31 1.426 . S
C30 C29 1.382 . S
C30 C34 1.389 . S
C31 C29 1.426 . S
C31 C32 1.375 . S
C31 C35 1.532 . S
C32 H22 0.930 . S
C32 C31 1.375 . S
C32 C33 1.416 . S
C33 C32 1.416 . S
C33 C34 1.371 . S
C34 H23 0.930 . S
C34 C30 1.389 . S
C34 C33 1.371 . S
C35 H24 0.970 . S
C35 H25 0.970 . S
C35 C31 1.532 . S
C35 C36 1.499 . S
C36 C35 1.499 . S
C36 C37 1.370 . S
C36 C41 1.415 . S
C37 H26 0.930 . S
C37 C36 1.370 . S
C37 C38 1.407 . S
C38 C37 1.407 . S
C38 C39 1.365 . S
C39 H27 0.930 . S
C39 C38 1.365 . S
C39 C40 1.393 . S
C40 C39 1.393 . S
C40 C41 1.387 . S
C41 H28 0.930 . S
C41 C36 1.415 . S
C41 C40 1.387 . S
H42 C50 0.930 . S
H43 C53 0.930 . S
H44 C55 0.930 . S
H45 C56 0.970 . S
H46 C56 0.970 . S
H47 C58 0.930 . S
H48 C60 0.930 . S
H49 C62 0.930 . S
C50 H42 0.930 . S
C50 C51 1.382 . S
C50 C52 1.426 . S
C51 C50 1.382 . S
C51 C55 1.389 . S
C52 C50 1.426 . S
C52 C53 1.375 . S
C52 C56 1.532 . S
C53 H43 0.930 . S
C53 C52 1.375 . S
C53 C54 1.416 . S
C54 C53 1.416 . S
C54 C55 1.371 . S
C55 H44 0.930 . S
C55 C51 1.389 . S
C55 C54 1.371 . S
C56 H45 0.970 . S
C56 H46 0.970 . S
C56 C52 1.532 . S
C56 C57 1.499 . S
C57 C56 1.499 . S
C57 C58 1.370 . S
C57 C62 1.415 . S
C58 H47 0.930 . S
C58 C57 1.370 . S
C58 C59 1.407 . S
C59 C58 1.407 . S
C59 C60 1.365 . S
C60 H48 0.930 . S
C60 C59 1.365 . S
C60 C61 1.393 . S
C61 C60 1.393 . S
C61 C62 1.387 . S
C62 H49 0.930 . S
C62 C57 1.415 . S
C62 C61 1.387 . S
H63 C71 0.930 . S
H64 C74 0.930 . S
H65 C76 0.930 . S
H66 C77 0.970 . S
H67 C77 0.970 . S
H68 C79 0.930 . S
H69 C81 0.930 . S
H70 C83 0.930 . S
C71 H63 0.930 . S
C71 C72 1.382 . S
C71 C73 1.426 . S
C72 C71 1.382 . S
C72 C76 1.389 . S
C73 C71 1.426 . S
C73 C74 1.375 . S
C73 C77 1.532 . S
C74 H64 0.930 . S
C74 C73 1.375 . S
C74 C75 1.416 . S
C75 C74 1.416 . S
C75 C76 1.371 . S
C76 H65 0.930 . S
C76 C72 1.389 . S
C76 C75 1.371 . S
C77 H66 0.970 . S
C77 H67 0.970 . S
C77 C73 1.532 . S
C77 C78 1.499 . S
C78 C77 1.499 . S
C78 C79 1.370 . S
C78 C83 1.415 . S
C79 H68 0.930 . S
C79 C78 1.370 . S
C79 C80 1.407 . S
C80 C79 1.407 . S
C80 C81 1.365 . S
C81 H69 0.930 . S
C81 C80 1.365 . S
C81 C82 1.393 . S
C82 C81 1.393 . S
C82 C83 1.387 . S
C83 H70 0.930 . S
C83 C78 1.415 . S
C83 C82 1.387 . S
H84 C92 0.930 . S
H85 C95 0.930 . S
H86 C97 0.930 . S
H87 C98 0.970 . S
H88 C98 0.970 . S
H89 C100 0.930 . S
H90 C102 0.930 . S
H91 C104 0.930 . S
C92 H84 0.930 . S
C92 C93 1.382 . S
C92 C94 1.426 . S
C93 C92 1.382 . S
C93 C97 1.389 . S
C94 C92 1.426 . S
C94 C95 1.375 . S
C94 C98 1.532 . S
C95 H85 0.930 . S
C95 C94 1.375 . S
C95 C96 1.416 . S
C96 C95 1.416 . S
C96 C97 1.371 . S
C97 H86 0.930 . S
C97 C93 1.389 . S
C97 C96 1.371 . S
C98 H87 0.970 . S
C98 H88 0.970 . S
C98 C94 1.532 . S
C98 C99 1.499 . S
C99 C98 1.499 . S
C99 C100 1.370 . S
C99 C104 1.415 . S
C100 H89 0.930 . S
C100 C99 1.370 . S
C100 C101 1.407 . S
C101 C100 1.407 . S
C101 C102 1.365 . S
C102 H90 0.930 . S
C102 C101 1.365 . S
C102 C103 1.393 . S
C103 C102 1.393 . S
C103 C104 1.387 . S
C104 H91 0.930 . S
C104 C99 1.415 . S
C104 C103 1.387 . S
H105 C113 0.930 . S
H106 C116 0.930 . S
H107 C118 0.930 . S
H108 C119 0.970 . S
H109 C119 0.970 . S
H110 C121 0.930 . S
H111 C123 0.930 . S
H112 C125 0.930 . S
C113 H105 0.930 . S
C113 C114 1.382 . S
C113 C115 1.426 . S
C114 C113 1.382 . S
C114 C118 1.389 . S
C115 C113 1.426 . S
C115 C116 1.375 . S
C115 C119 1.532 . S
C116 H106 0.930 . S
C116 C115 1.375 . S
C116 C117 1.416 . S
C117 C116 1.416 . S
C117 C118 1.371 . S
C118 H107 0.930 . S
C118 C114 1.389 . S
C118 C117 1.371 . S
C119 H108 0.970 . S
C119 H109 0.970 . S
C119 C115 1.532 . S
C119 C120 1.499 . S
C120 C119 1.499 . S
C120 C121 1.370 . S
C120 C125 1.415 . S
C121 H110 0.930 . S
C121 C120 1.370 . S
C121 C122 1.407 . S
C122 C121 1.407 . S
C122 C123 1.365 . S
C123 H111 0.930 . S
C123 C122 1.365 . S
C123 C124 1.393 . S
C124 C123 1.393 . S
C124 C125 1.387 . S
C125 H112 0.930 . S
C125 C120 1.415 . S
C125 C124 1.387 . S
H126 C134 0.930 . S
H127 C137 0.930 . S
H128 C139 0.930 . S
H129 C140 0.970 . S
H130 C140 0.970 . S
H131 C142 0.930 . S
H132 C144 0.930 . S
H133 C146 0.930 . S
C134 H126 0.930 . S
C134 C135 1.382 . S
C134 C136 1.426 . S
C135 C134 1.382 . S
C135 C139 1.389 . S
C136 C134 1.426 . S
C136 C137 1.375 . S
C136 C140 1.532 . S
C137 H127 0.930 . S
C137 C136 1.375 . S
C137 C138 1.416 . S
C138 C137 1.416 . S
C138 C139 1.371 . S
C139 H128 0.930 . S
C139 C135 1.389 . S
C139 C138 1.371 . S
C140 H129 0.970 . S
C140 H130 0.970 . S
C140 C136 1.532 . S
C140 C141 1.499 . S
C141 C140 1.499 . S
C141 C142 1.370 . S
C141 C146 1.415 . S
C142 H131 0.930 . S
C142 C141 1.370 . S
C142 C143 1.407 . S
C143 C142 1.407 . S
C143 C144 1.365 . S
C144 H132 0.930 . S
C144 C143 1.365 . S
C144 C145 1.393 . S
C145 C144 1.393 . S
C145 C146 1.387 . S
C146 H133 0.930 . S
C146 C141 1.415 . S
C146 C145 1.387 . S
H147 C155 0.930 . S
H148 C158 0.930 . S
H149 C160 0.930 . S
H150 C161 0.970 . S
H151 C161 0.970 . S
H152 C163 0.930 . S
H153 C165 0.930 . S
H154 C167 0.930 . S
C155 H147 0.930 . S
C155 C156 1.382 . S
C155 C157 1.426 . S
C156 C155 1.382 . S
C156 C160 1.389 . S
C157 C155 1.426 . S
C157 C158 1.375 . S
C157 C161 1.532 . S
C158 H148 0.930 . S
C158 C157 1.375 . S
C158 C159 1.416 . S
C159 C158 1.416 . S
C159 C160 1.371 . S
C160 H149 0.930 . S
C160 C156 1.389 . S
C160 C159 1.371 . S
C161 H150 0.970 . S
C161 H151 0.970 . S
C161 C157 1.532 . S
C161 C162 1.499 . S
C162 C161 1.499 . S
C162 C163 1.370 . S
C162 C167 1.415 . S
C163 H152 0.930 . S
C163 C162 1.370 . S
C163 C164 1.407 . S
C164 C163 1.407 . S
C164 C165 1.365 . S
C165 H153 0.930 . S
C165 C164 1.365 . S
C165 C166 1.393 . S
C166 C165 1.393 . S
C166 C167 1.387 . S
C167 H154 0.930 . S
C167 C162 1.415 . S
C167 C166 1.387 . S
C168 O170 1.247 . S
C168 O172 1.258 . S
C169 O176 1.247 . S
C169 O177 1.258 . S
O170 C168 1.247 . S
O170 Zn171 2.028 1_655 S
Zn171 O170 2.028 1_455 S
Zn171 O175 2.035 . S
Zn171 O177 2.035 . S
Zn171 O178 2.028 1_455 S
O172 C168 1.258 . S
O172 Zn173 2.035 1_655 S
Zn173 O172 2.035 1_455 S
Zn173 O174 2.028 . S
Zn173 O176 2.028 . S
Zn173 O179 2.035 1_455 S
O174 Zn173 2.028 . S
O174 C180 1.247 . S
O175 Zn171 2.035 . S
O175 C180 1.258 . S
O176 C169 1.247 . S
O176 Zn173 2.028 . S
O177 C169 1.258 . S
O177 Zn171 2.035 . S
O178 Zn171 2.028 1_655 S
O178 C181 1.247 . S
O179 Zn173 2.035 1_655 S
O179 C181 1.258 . S
C180 O174 1.247 . S
C180 O175 1.258 . S
C181 O178 1.247 . S
C181 O179 1.258 . S
C182 O184 1.247 . S
C182 O186 1.258 . S
C183 O190 1.247 . S
C183 O191 1.258 . S
O184 C182 1.247 . S
O184 Zn185 2.028 . S
Zn185 O184 2.028 . S
Zn185 O189 2.035 1_545 S
Zn185 O191 2.035 1_545 S
Zn185 O192 2.028 . S
O186 C182 1.258 . S
O186 Zn187 2.035 . S
Zn187 O186 2.035 . S
Zn187 O188 2.028 1_545 S
Zn187 O190 2.028 1_545 S
Zn187 O193 2.035 . S
O188 Zn187 2.028 1_565 S
O188 C194 1.247 . S
O189 Zn185 2.035 1_565 S
O189 C194 1.258 . S
O190 C183 1.247 . S
O190 Zn187 2.028 1_565 S
O191 C183 1.258 . S
O191 Zn185 2.035 1_565 S
O192 Zn185 2.028 . S
O192 C195 1.247 . S
O193 Zn187 2.035 . S
O193 C195 1.258 . S
C194 O188 1.247 . S
C194 O189 1.258 . S
C195 O192 1.247 . S
C195 O193 1.258 . S
C196 O198 1.247 . S
C196 O200 1.258 . S
C197 O204 1.247 . S
C197 O205 1.258 . S
O198 C196 1.247 . S
O198 Zn199 2.028 1_655 S
Zn199 O198 2.028 1_455 S
Zn199 O203 2.035 . S
Zn199 O205 2.035 . S
Zn199 O206 2.028 1_455 S
O200 C196 1.258 . S
O200 Zn201 2.035 1_655 S
Zn201 O200 2.035 1_455 S
Zn201 O202 2.028 . S
Zn201 O204 2.028 . S
Zn201 O207 2.035 1_455 S
O202 Zn201 2.028 . S
O202 C208 1.247 . S
O203 Zn199 2.035 . S
O203 C208 1.258 . S
O204 C197 1.247 . S
O204 Zn201 2.028 . S
O205 C197 1.258 . S
O205 Zn199 2.035 . S
O206 Zn199 2.028 1_655 S
O206 C209 1.247 . S
O207 Zn201 2.035 1_655 S
O207 C209 1.258 . S
C208 O202 1.247 . S
C208 O203 1.258 . S
C209 O206 1.247 . S
C209 O207 1.258 . S
C210 O212 1.247 . S
C210 O214 1.258 . S
C211 O218 1.247 . S
C211 O219 1.258 . S
O212 C210 1.247 . S
O212 Zn213 2.028 . S
Zn213 O212 2.028 . S
Zn213 O217 2.035 1_545 S
Zn213 O219 2.035 1_545 S
Zn213 O220 2.028 . S
O214 C210 1.258 . S
O214 Zn215 2.035 . S
Zn215 O214 2.035 . S
Zn215 O216 2.028 1_545 S
Zn215 O218 2.028 1_545 S
Zn215 O221 2.035 . S
O216 Zn215 2.028 1_565 S
O216 C222 1.247 . S
O217 Zn213 2.035 1_565 S
O217 C222 1.258 . S
O218 C211 1.247 . S
O218 Zn215 2.028 1_565 S
O219 C211 1.258 . S
O219 Zn213 2.035 1_565 S
O220 Zn213 2.028 . S
O220 C223 1.247 . S
O221 Zn215 2.035 . S
O221 C223 1.258 . S
C222 O216 1.247 . S
C222 O217 1.258 . S
C223 O220 1.247 . S
C223 O221 1.258 . S
C224 O226 1.247 . S
C224 O228 1.258 . S
C225 O232 1.247 . S
C225 O233 1.258 . S
O226 C224 1.247 . S
O226 Zn227 2.039 . S
Zn227 O226 2.039 . S
Zn227 O231 2.046 . S
Zn227 O233 2.025 1_554 S
Zn227 O234 2.017 1_554 S
O228 C224 1.258 . S
O228 Zn229 2.037 . S
Zn229 O228 2.037 . S
Zn229 O230 2.030 . S
Zn229 O232 2.026 1_554 S
Zn229 O235 2.033 1_554 S
O230 Zn229 2.030 . S
O230 C236 1.247 . S
O231 Zn227 2.046 . S
O231 C236 1.258 . S
O232 C225 1.247 . S
O232 Zn229 2.026 1_556 S
O233 C225 1.258 . S
O233 Zn227 2.025 1_556 S
O234 Zn227 2.017 1_556 S
O234 C237 1.247 . S
O235 Zn229 2.033 1_556 S
O235 C237 1.258 . S
C236 O230 1.247 . S
C236 O231 1.258 . S
C237 O234 1.247 . S
C237 O235 1.258 . S
C238 O240 1.247 . S
C238 O242 1.258 . S
C239 O246 1.247 . S
C239 O247 1.258 . S
O240 C238 1.247 . S
O240 Zn241 2.045 . S
Zn241 O240 2.045 . S
Zn241 O245 2.052 . S
Zn241 O247 2.019 1_554 S
Zn241 O248 2.011 1_554 S
O242 C238 1.258 . S
O242 Zn243 2.060 . S
Zn243 O242 2.060 . S
Zn243 O244 2.054 . S
Zn243 O246 2.003 1_554 S
Zn243 O249 2.010 1_554 S
O244 Zn243 2.054 . S
O244 C250 1.247 . S
O245 Zn241 2.052 . S
O245 C250 1.258 . S
O246 C239 1.247 . S
O246 Zn243 2.003 1_556 S
O247 C239 1.258 . S
O247 Zn241 2.019 1_556 S
O248 Zn241 2.011 1_556 S
O248 C251 1.247 . S
O249 Zn243 2.010 1_556 S
O249 C251 1.258 . S
C250 O244 1.247 . S
C250 O245 1.258 . S
C251 O248 1.247 . S
C251 O249 1.258 . S
C252 O254 1.247 . S
C252 O256 1.258 . S
C253 O260 1.247 . S
C253 O261 1.258 . S
O254 C252 1.247 . S
O254 Zn255 2.028 1_556 S
Zn255 O254 2.028 1_554 S
Zn255 O259 2.035 1_554 S
Zn255 O261 2.035 . S
Zn255 O262 2.028 . S
O256 C252 1.258 . S
O256 Zn257 2.035 1_556 S
Zn257 O256 2.035 1_554 S
Zn257 O258 2.028 1_554 S
Zn257 O260 2.028 . S
Zn257 O263 2.035 . S
O258 Zn257 2.028 1_556 S
O258 C264 1.247 . S
O259 Zn255 2.035 1_556 S
O259 C264 1.258 . S
O260 C253 1.247 . S
O260 Zn257 2.028 . S
O261 C253 1.258 . S
O261 Zn255 2.035 . S
O262 Zn255 2.028 . S
O262 C265 1.247 . S
O263 Zn257 2.035 . S
O263 C265 1.258 . S
C264 O258 1.247 . S
C264 O259 1.258 . S
C265 O262 1.247 . S
C265 O263 1.258 . S
C266 O268 1.247 . S
C266 O270 1.258 . S
C267 O274 1.247 . S
C267 O275 1.258 . S
O268 C266 1.247 . S
O268 Zn269 2.028 . S
Zn269 O268 2.028 . S
Zn269 O273 2.035 . S
Zn269 O275 2.035 1_554 S
Zn269 O276 2.028 1_554 S
O270 C266 1.258 . S
O270 Zn271 2.035 . S
Zn271 O270 2.035 . S
Zn271 O272 2.028 . S
Zn271 O274 2.028 1_554 S
Zn271 O277 2.035 1_554 S
O272 Zn271 2.028 . S
O272 C278 1.247 . S
O273 Zn269 2.035 . S
O273 C278 1.258 . S
O274 C267 1.247 . S
O274 Zn271 2.028 1_556 S
O275 C267 1.258 . S
O275 Zn269 2.035 1_556 S
O276 Zn269 2.028 1_556 S
O276 C279 1.247 . S
O277 Zn271 2.035 1_556 S
O277 C279 1.258 . S
C278 O272 1.247 . S
C278 O273 1.258 . S
C279 O276 1.247 . S
C279 O277 1.258 . S
H280 C288 0.950 . S
H281 C293 0.950 . S
H282 C290 0.950 . S
H283 C292 0.950 . S
H284 C294 0.950 . S
H285 C296 0.950 . S
H286 C298 0.950 . S
H287 C299 0.950 . S
C288 H280 0.950 . S
C288 C289 1.386 . S
C288 C290 1.391 . S
C289 C288 1.386 . S
C289 C293 1.393 . S
C290 H282 0.950 . S
C290 C288 1.391 . S
C290 C291 1.400 . S
C291 C290 1.400 . S
C291 C292 1.398 . S
C291 C297 1.491 . S
C292 H283 0.950 . S
C292 C291 1.398 . S
C292 C293 1.391 . S
C293 H281 0.950 . S
C293 C289 1.393 . S
C293 C292 1.391 . S
C294 H284 0.950 . S
C294 C295 1.386 . S
C294 C296 1.391 . S
C295 C294 1.386 . S
C295 C299 1.393 . S
C296 H285 0.950 . S
C296 C294 1.391 . S
C296 C297 1.400 . S
C297 C291 1.491 . S
C297 C296 1.400 . S
C297 C298 1.398 . S
C298 H286 0.950 . S
C298 C297 1.398 . S
C298 C299 1.391 . S
C299 H287 0.950 . S
C299 C295 1.393 . S
C299 C298 1.391 . S
H300 C308 0.950 . S
H301 C313 0.950 . S
H302 C310 0.950 . S
H303 C312 0.950 . S
H304 C314 0.950 . S
H305 C316 0.950 . S
H306 C318 0.950 . S
H307 C319 0.950 . S
C308 H300 0.950 . S
C308 C309 1.386 . S
C308 C310 1.391 . S
C309 C308 1.386 . S
C309 C313 1.393 . S
C310 H302 0.950 . S
C310 C308 1.391 . S
C310 C311 1.400 . S
C311 C310 1.400 . S
C311 C312 1.398 . S
C311 C317 1.491 . S
C312 H303 0.950 . S
C312 C311 1.398 . S
C312 C313 1.391 . S
C313 H301 0.950 . S
C313 C309 1.393 . S
C313 C312 1.391 . S
C314 H304 0.950 . S
C314 C315 1.386 . S
C314 C316 1.391 . S
C315 C314 1.386 . S
C315 C319 1.393 . S
C316 H305 0.950 . S
C316 C314 1.391 . S
C316 C317 1.400 . S
C317 C311 1.491 . S
C317 C316 1.400 . S
C317 C318 1.398 . S
C318 H306 0.950 . S
C318 C317 1.398 . S
C318 C319 1.391 . S
C319 H307 0.950 . S
C319 C315 1.393 . S
C319 C318 1.391 . S
H320 C328 0.950 . S
H321 C333 0.950 . S
H322 C330 0.950 . S
H323 C332 0.950 . S
H324 C334 0.950 . S
H325 C336 0.950 . S
H326 C338 0.950 . S
H327 C339 0.950 . S
C328 H320 0.950 . S
C328 C329 1.386 . S
C328 C330 1.391 . S
C329 C328 1.386 . S
C329 C333 1.393 . S
C330 H322 0.950 . S
C330 C328 1.391 . S
C330 C331 1.400 . S
C331 C330 1.400 . S
C331 C332 1.398 . S
C331 C337 1.491 . S
C332 H323 0.950 . S
C332 C331 1.398 . S
C332 C333 1.391 . S
C333 H321 0.950 . S
C333 C329 1.393 . S
C333 C332 1.391 . S
C334 H324 0.950 . S
C334 C335 1.386 . S
C334 C336 1.391 . S
C335 C334 1.386 . S
C335 C339 1.393 . S
C336 H325 0.950 . S
C336 C334 1.391 . S
C336 C337 1.400 . S
C337 C331 1.491 . S
C337 C336 1.400 . S
C337 C338 1.398 . S
C338 H326 0.950 . S
C338 C337 1.398 . S
C338 C339 1.391 . S
C339 H327 0.950 . S
C339 C335 1.393 . S
C339 C338 1.391 . S
H340 C348 0.950 . S
H341 C353 0.950 . S
H342 C350 0.950 . S
H343 C352 0.950 . S
H344 C354 0.950 . S
H345 C356 0.950 . S
H346 C358 0.950 . S
H347 C359 0.950 . S
C348 H340 0.950 . S
C348 C349 1.386 . S
C348 C350 1.391 . S
C349 C348 1.386 . S
C349 C353 1.393 . S
C350 H342 0.950 . S
C350 C348 1.391 . S
C350 C351 1.400 . S
C351 C350 1.400 . S
C351 C352 1.398 . S
C351 C357 1.491 . S
C352 H343 0.950 . S
C352 C351 1.398 . S
C352 C353 1.391 . S
C353 H341 0.950 . S
C353 C349 1.393 . S
C353 C352 1.391 . S
C354 H344 0.950 . S
C354 C355 1.386 . S
C354 C356 1.391 . S
C355 C354 1.386 . S
C355 C359 1.393 . S
C356 H345 0.950 . S
C356 C354 1.391 . S
C356 C357 1.400 . S
C357 C351 1.491 . S
C357 C356 1.400 . S
C357 C358 1.398 . S
C358 H346 0.950 . S
C358 C357 1.398 . S
C358 C359 1.391 . S
C359 H347 0.950 . S
C359 C355 1.393 . S
C359 C358 1.391 . S
H360 C368 0.950 . S
H361 C373 0.950 . S
H362 C370 0.950 . S
H363 C372 0.950 . S
H364 C374 0.950 . S
H365 C376 0.950 . S
H366 C378 0.950 . S
H367 C379 0.950 . S
C368 H360 0.950 . S
C368 C369 1.386 . S
C368 C370 1.391 . S
C369 C368 1.386 . S
C369 C373 1.393 . S
C370 H362 0.950 . S
C370 C368 1.391 . S
C370 C371 1.400 . S
C371 C370 1.400 . S
C371 C372 1.398 . S
C371 C377 1.491 . S
C372 H363 0.950 . S
C372 C371 1.398 . S
C372 C373 1.391 . S
C373 H361 0.950 . S
C373 C369 1.393 . S
C373 C372 1.391 . S
C374 H364 0.950 . S
C374 C375 1.386 . S
C374 C376 1.391 . S
C375 C374 1.386 . S
C375 C379 1.393 . S
C376 H365 0.950 . S
C376 C374 1.391 . S
C376 C377 1.400 . S
C377 C371 1.491 . S
C377 C376 1.400 . S
C377 C378 1.398 . S
C378 H366 0.950 . S
C378 C377 1.398 . S
C378 C379 1.391 . S
C379 H367 0.950 . S
C379 C375 1.393 . S
C379 C378 1.391 . S
H380 C388 0.950 . S
H381 C393 0.950 . S
H382 C390 0.950 . S
H383 C392 0.950 . S
H384 C394 0.950 . S
H385 C396 0.950 . S
H386 C398 0.950 . S
H387 C399 0.950 . S
C388 H380 0.950 . S
C388 C389 1.386 . S
C388 C390 1.391 . S
C389 C388 1.386 . S
C389 C393 1.393 . S
C390 H382 0.950 . S
C390 C388 1.391 . S
C390 C391 1.400 . S
C391 C390 1.400 . S
C391 C392 1.398 . S
C391 C397 1.491 . S
C392 H383 0.950 . S
C392 C391 1.398 . S
C392 C393 1.391 . S
C393 H381 0.950 . S
C393 C389 1.393 . S
C393 C392 1.391 . S
C394 H384 0.950 . S
C394 C395 1.386 . S
C394 C396 1.391 . S
C395 C394 1.386 . S
C395 C399 1.393 . S
C396 H385 0.950 . S
C396 C394 1.391 . S
C396 C397 1.400 . S
C397 C391 1.491 . S
C397 C396 1.400 . S
C397 C398 1.398 . S
C398 H386 0.950 . S
C398 C397 1.398 . S
C398 C399 1.391 . S
C399 H387 0.950 . S
C399 C395 1.393 . S
C399 C398 1.391 . S
H400 C408 0.950 . S
H401 C413 0.950 . S
H402 C410 0.950 . S
H403 C412 0.950 . S
H404 C414 0.950 . S
H405 C416 0.950 . S
H406 C418 0.950 . S
H407 C419 0.950 . S
C408 H400 0.950 . S
C408 C409 1.386 . S
C408 C410 1.391 . S
C409 C408 1.386 . S
C409 C413 1.393 . S
C410 H402 0.950 . S
C410 C408 1.391 . S
C410 C411 1.400 . S
C411 C410 1.400 . S
C411 C412 1.398 . S
C411 C417 1.491 . S
C412 H403 0.950 . S
C412 C411 1.398 . S
C412 C413 1.391 . S
C413 H401 0.950 . S
C413 C409 1.393 . S
C413 C412 1.391 . S
C414 H404 0.950 . S
C414 C415 1.386 . S
C414 C416 1.391 . S
C415 C414 1.386 . S
C415 C419 1.393 . S
C416 H405 0.950 . S
C416 C414 1.391 . S
C416 C417 1.400 . S
C417 C411 1.491 . S
C417 C416 1.400 . S
C417 C418 1.398 . S
C418 H406 0.950 . S
C418 C417 1.398 . S
C418 C419 1.391 . S
C419 H407 0.950 . S
C419 C415 1.393 . S
C419 C418 1.391 . S
H420 C428 0.950 . S
H421 C433 0.950 . S
H422 C430 0.950 . S
H423 C432 0.950 . S
H424 C434 0.950 . S
H425 C436 0.950 . S
H426 C438 0.950 . S
H427 C439 0.950 . S
C428 H420 0.950 . S
C428 C429 1.386 . S
C428 C430 1.391 . S
C429 C428 1.386 . S
C429 C433 1.393 . S
C430 H422 0.950 . S
C430 C428 1.391 . S
C430 C431 1.400 . S
C431 C430 1.400 . S
C431 C432 1.398 . S
C431 C437 1.491 . S
C432 H423 0.950 . S
C432 C431 1.398 . S
C432 C433 1.391 . S
C433 H421 0.950 . S
C433 C429 1.393 . S
C433 C432 1.391 . S
C434 H424 0.950 . S
C434 C435 1.386 . S
C434 C436 1.391 . S
C435 C434 1.386 . S
C435 C439 1.393 . S
C436 H425 0.950 . S
C436 C434 1.391 . S
C436 C437 1.400 . S
C437 C431 1.491 . S
C437 C436 1.400 . S
C437 C438 1.398 . S
C438 H426 0.950 . S
C438 C437 1.398 . S
C438 C439 1.391 . S
C439 H427 0.950 . S
C439 C435 1.393 . S
C439 C438 1.391 . S
H440 C448 0.950 . S
H441 C453 0.950 . S
H442 C450 0.950 . S
H443 C452 0.950 . S
H444 C454 0.950 . S
H445 C456 0.950 . S
H446 C458 0.950 . S
H447 C459 0.950 . S
C448 H440 0.950 . S
C448 C449 1.386 . S
C448 C450 1.391 . S
C449 C448 1.386 . S
C449 C453 1.393 . S
C450 H442 0.950 . S
C450 C448 1.391 . S
C450 C451 1.400 . S
C451 C450 1.400 . S
C451 C452 1.398 . S
C451 C457 1.491 . S
C452 H443 0.950 . S
C452 C451 1.398 . S
C452 C453 1.391 . S
C453 H441 0.950 . S
C453 C449 1.393 . S
C453 C452 1.391 . S
C454 H444 0.950 . S
C454 C455 1.386 . S
C454 C456 1.391 . S
C455 C454 1.386 . S
C455 C459 1.393 . S
C456 H445 0.950 . S
C456 C454 1.391 . S
C456 C457 1.400 . S
C457 C451 1.491 . S
C457 C456 1.400 . S
C457 C458 1.398 . S
C458 H446 0.950 . S
C458 C457 1.398 . S
C458 C459 1.391 . S
C459 H447 0.950 . S
C459 C455 1.393 . S
C459 C458 1.391 . S
H460 C468 0.950 . S
H461 C473 0.950 . S
H462 C470 0.950 . S
H463 C472 0.950 . S
H464 C474 0.950 . S
H465 C476 0.950 . S
H466 C478 0.950 . S
H467 C479 0.950 . S
C468 H460 0.950 . S
C468 C469 1.386 . S
C468 C470 1.391 . S
C469 C468 1.386 . S
C469 C473 1.393 . S
C470 H462 0.950 . S
C470 C468 1.391 . S
C470 C471 1.400 . S
C471 C470 1.400 . S
C471 C472 1.398 . S
C471 C477 1.491 . S
C472 H463 0.950 . S
C472 C471 1.398 . S
C472 C473 1.391 . S
C473 H461 0.950 . S
C473 C469 1.393 . S
C473 C472 1.391 . S
C474 H464 0.950 . S
C474 C475 1.386 . S
C474 C476 1.391 . S
C475 C474 1.386 . S
C475 C479 1.393 . S
C476 H465 0.950 . S
C476 C474 1.391 . S
C476 C477 1.400 . S
C477 C471 1.491 . S
C477 C476 1.400 . S
C477 C478 1.398 . S
C478 H466 0.950 . S
C478 C477 1.398 . S
C478 C479 1.391 . S
C479 H467 0.950 . S
C479 C475 1.393 . S
C479 C478 1.391 . S
H480 C488 0.950 . S
H481 C493 0.950 . S
H482 C490 0.950 . S
H483 C492 0.950 . S
H484 C494 0.950 . S
H485 C496 0.950 . S
H486 C498 0.950 . S
H487 C499 0.950 . S
C488 H480 0.950 . S
C488 C489 1.386 . S
C488 C490 1.391 . S
C489 C488 1.386 . S
C489 C493 1.393 . S
C490 H482 0.950 . S
C490 C488 1.391 . S
C490 C491 1.400 . S
C491 C490 1.400 . S
C491 C492 1.398 . S
C491 C497 1.491 . S
C492 H483 0.950 . S
C492 C491 1.398 . S
C492 C493 1.391 . S
C493 H481 0.950 . S
C493 C489 1.393 . S
C493 C492 1.391 . S
C494 H484 0.950 . S
C494 C495 1.386 . S
C494 C496 1.391 . S
C495 C494 1.386 . S
C495 C499 1.393 . S
C496 H485 0.950 . S
C496 C494 1.391 . S
C496 C497 1.400 . S
C497 C491 1.491 . S
C497 C496 1.400 . S
C497 C498 1.398 . S
C498 H486 0.950 . S
C498 C497 1.398 . S
C498 C499 1.391 . S
C499 H487 0.950 . S
C499 C495 1.393 . S
C499 C498 1.391 . S
H500 C508 0.950 . S
H501 C513 0.950 . S
H502 C510 0.950 . S
H503 C512 0.950 . S
H504 C514 0.950 . S
H505 C516 0.950 . S
H506 C518 0.950 . S
H507 C519 0.950 . S
C508 H500 0.950 . S
C508 C509 1.386 . S
C508 C510 1.391 . S
C509 C508 1.386 . S
C509 C513 1.393 . S
C510 H502 0.950 . S
C510 C508 1.391 . S
C510 C511 1.400 . S
C511 C510 1.400 . S
C511 C512 1.398 . S
C511 C517 1.491 . S
C512 H503 0.950 . S
C512 C511 1.398 . S
C512 C513 1.391 . S
C513 H501 0.950 . S
C513 C509 1.393 . S
C513 C512 1.391 . S
C514 H504 0.950 . S
C514 C515 1.386 . S
C514 C516 1.391 . S
C515 C514 1.386 . S
C515 C519 1.393 . S
C516 H505 0.950 . S
C516 C514 1.391 . S
C516 C517 1.400 . S
C517 C511 1.491 . S
C517 C516 1.400 . S
C517 C518 1.398 . S
C518 H506 0.950 . S
C518 C517 1.398 . S
C518 C519 1.391 . S
C519 H507 0.950 . S
C519 C515 1.393 . S
C519 C518 1.391 . S
H520 C528 0.950 . S
H521 C533 0.950 . S
H522 C530 0.950 . S
H523 C532 0.950 . S
H524 C534 0.950 . S
H525 C536 0.950 . S
H526 C538 0.950 . S
H527 C539 0.950 . S
C528 H520 0.950 . S
C528 C529 1.386 . S
C528 C530 1.391 . S
C529 C528 1.386 . S
C529 C533 1.393 . S
C530 H522 0.950 . S
C530 C528 1.391 . S
C530 C531 1.400 . S
C531 C530 1.400 . S
C531 C532 1.398 . S
C531 C537 1.491 . S
C532 H523 0.950 . S
C532 C531 1.398 . S
C532 C533 1.391 . S
C533 H521 0.950 . S
C533 C529 1.393 . S
C533 C532 1.391 . S
C534 H524 0.950 . S
C534 C535 1.386 . S
C534 C536 1.391 . S
C535 C534 1.386 . S
C535 C539 1.393 . S
C536 H525 0.950 . S
C536 C534 1.391 . S
C536 C537 1.400 . S
C537 C531 1.491 . S
C537 C536 1.400 . S
C537 C538 1.398 . S
C538 H526 0.950 . S
C538 C537 1.398 . S
C538 C539 1.391 . S
C539 H527 0.950 . S
C539 C535 1.393 . S
C539 C538 1.391 . S
H540 C548 0.950 . S
H541 C553 0.950 . S
H542 C550 0.950 . S
H543 C552 0.950 . S
H544 C554 0.950 . S
H545 C556 0.950 . S
H546 C558 0.950 . S
H547 C559 0.950 . S
C548 H540 0.950 . S
C548 C549 1.386 . S
C548 C550 1.391 . S
C549 C548 1.386 . S
C549 C553 1.393 . S
C550 H542 0.950 . S
C550 C548 1.391 . S
C550 C551 1.400 . S
C551 C550 1.400 . S
C551 C552 1.398 . S
C551 C557 1.491 . S
C552 H543 0.950 . S
C552 C551 1.398 . S
C552 C553 1.391 . S
C553 H541 0.950 . S
C553 C549 1.393 . S
C553 C552 1.391 . S
C554 H544 0.950 . S
C554 C555 1.386 . S
C554 C556 1.391 . S
C555 C554 1.386 . S
C555 C559 1.393 . S
C556 H545 0.950 . S
C556 C554 1.391 . S
C556 C557 1.400 . S
C557 C551 1.491 . S
C557 C556 1.400 . S
C557 C558 1.398 . S
C558 H546 0.950 . S
C558 C557 1.398 . S
C558 C559 1.391 . S
C559 H547 0.950 . S
C559 C555 1.393 . S
C559 C558 1.391 . S
H560 C568 0.950 . S
H561 C573 0.950 . S
H562 C570 0.950 . S
H563 C572 0.950 . S
H564 C574 0.950 . S
H565 C576 0.950 . S
H566 C578 0.950 . S
H567 C579 0.950 . S
C568 H560 0.950 . S
C568 C569 1.386 . S
C568 C570 1.391 . S
C569 C568 1.386 . S
C569 C573 1.393 . S
C570 H562 0.950 . S
C570 C568 1.391 . S
C570 C571 1.400 . S
C571 C570 1.400 . S
C571 C572 1.398 . S
C571 C577 1.491 . S
C572 H563 0.950 . S
C572 C571 1.398 . S
C572 C573 1.391 . S
C573 H561 0.950 . S
C573 C569 1.393 . S
C573 C572 1.391 . S
C574 H564 0.950 . S
C574 C575 1.386 . S
C574 C576 1.391 . S
C575 C574 1.386 . S
C575 C579 1.393 . S
C576 H565 0.950 . S
C576 C574 1.391 . S
C576 C577 1.400 . S
C577 C571 1.491 . S
C577 C576 1.400 . S
C577 C578 1.398 . S
C578 H566 0.950 . S
C578 C577 1.398 . S
C578 C579 1.391 . S
C579 H567 0.950 . S
C579 C575 1.393 . S
C579 C578 1.391 . S
H580 C588 0.950 . S
H581 C593 0.950 . S
H582 C590 0.950 . S
H583 C592 0.950 . S
H584 C594 0.950 . S
H585 C596 0.950 . S
H586 C598 0.950 . S
H587 C599 0.950 . S
C588 H580 0.950 . S
C588 C589 1.386 . S
C588 C590 1.391 . S
C589 C588 1.386 . S
C589 C593 1.393 . S
C590 H582 0.950 . S
C590 C588 1.391 . S
C590 C591 1.400 . S
C591 C590 1.400 . S
C591 C592 1.398 . S
C591 C597 1.491 . S
C592 H583 0.950 . S
C592 C591 1.398 . S
C592 C593 1.391 . S
C593 H581 0.950 . S
C593 C589 1.393 . S
C593 C592 1.391 . S
C594 H584 0.950 . S
C594 C595 1.386 . S
C594 C596 1.391 . S
C595 C594 1.386 . S
C595 C599 1.393 . S
C596 H585 0.950 . S
C596 C594 1.391 . S
C596 C597 1.400 . S
C597 C591 1.491 . S
C597 C596 1.400 . S
C597 C598 1.398 . S
C598 H586 0.950 . S
C598 C597 1.398 . S
C598 C599 1.391 . S
C599 H587 0.950 . S
C599 C595 1.393 . S
C599 C598 1.391 . S
H600 C608 0.950 . S
H601 C613 0.950 . S
H602 C610 0.950 . S
H603 C612 0.950 . S
H604 C614 0.950 . S
H605 C616 0.950 . S
H606 C618 0.950 . S
H607 C619 0.950 . S
C608 H600 0.950 . S
C608 C609 1.386 . S
C608 C610 1.391 . S
C609 C608 1.386 . S
C609 C613 1.393 . S
C610 H602 0.950 . S
C610 C608 1.391 . S
C610 C611 1.400 . S
C611 C610 1.400 . S
C611 C612 1.398 . S
C611 C617 1.491 . S
C612 H603 0.950 . S
C612 C611 1.398 . S
C612 C613 1.391 . S
C613 H601 0.950 . S
C613 C609 1.393 . S
C613 C612 1.391 . S
C614 H604 0.950 . S
C614 C615 1.386 . S
C614 C616 1.391 . S
C615 C614 1.386 . S
C615 C619 1.393 . S
C616 H605 0.950 . S
C616 C614 1.391 . S
C616 C617 1.400 . S
C617 C611 1.491 . S
C617 C616 1.400 . S
C617 C618 1.398 . S
C618 H606 0.950 . S
C618 C617 1.398 . S
C618 C619 1.391 . S
C619 H607 0.950 . S
C619 C615 1.393 . S
C619 C618 1.391 . S
H620 C628 0.950 . S
H621 C633 0.950 . S
H622 C630 0.950 . S
H623 C632 0.950 . S
H624 C634 0.950 . S
H625 C636 0.950 . S
H626 C638 0.950 . S
H627 C639 0.950 . S
C628 H620 0.950 . S
C628 C629 1.386 . S
C628 C630 1.391 . S
C629 C628 1.386 . S
C629 C633 1.393 . S
C630 H622 0.950 . S
C630 C628 1.391 . S
C630 C631 1.400 . S
C631 C630 1.400 . S
C631 C632 1.398 . S
C631 C637 1.491 . S
C632 H623 0.950 . S
C632 C631 1.398 . S
C632 C633 1.391 . S
C633 H621 0.950 . S
C633 C629 1.393 . S
C633 C632 1.391 . S
C634 H624 0.950 . S
C634 C635 1.386 . S
C634 C636 1.391 . S
C635 C634 1.386 . S
C635 C639 1.393 . S
C636 H625 0.950 . S
C636 C634 1.391 . S
C636 C637 1.400 . S
C637 C631 1.491 . S
C637 C636 1.400 . S
C637 C638 1.398 . S
C638 H626 0.950 . S
C638 C637 1.398 . S
C638 C639 1.391 . S
C639 H627 0.950 . S
C639 C635 1.393 . S
C639 C638 1.391 . S
H640 C648 0.950 . S
H641 C653 0.950 . S
H642 C650 0.950 . S
H643 C652 0.950 . S
H644 C654 0.950 . S
H645 C656 0.950 . S
H646 C658 0.950 . S
H647 C659 0.950 . S
C648 H640 0.950 . S
C648 C649 1.386 . S
C648 C650 1.391 . S
C649 C648 1.386 . S
C649 C653 1.393 . S
C650 H642 0.950 . S
C650 C648 1.391 . S
C650 C651 1.400 . S
C651 C650 1.400 . S
C651 C652 1.398 . S
C651 C657 1.491 . S
C652 H643 0.950 . S
C652 C651 1.398 . S
C652 C653 1.391 . S
C653 H641 0.950 . S
C653 C649 1.393 . S
C653 C652 1.391 . S
C654 H644 0.950 . S
C654 C655 1.386 . S
C654 C656 1.391 . S
C655 C654 1.386 . S
C655 C659 1.393 . S
C656 H645 0.950 . S
C656 C654 1.391 . S
C656 C657 1.400 . S
C657 C651 1.491 . S
C657 C656 1.400 . S
C657 C658 1.398 . S
C658 H646 0.950 . S
C658 C657 1.398 . S
C658 C659 1.391 . S
C659 H647 0.950 . S
C659 C655 1.393 . S
C659 C658 1.391 . S
H660 C668 0.950 . S
H661 C673 0.950 . S
H662 C670 0.950 . S
H663 C672 0.950 . S
H664 C674 0.950 . S
H665 C676 0.950 . S
H666 C678 0.950 . S
H667 C679 0.950 . S
C668 H660 0.950 . S
C668 C669 1.386 . S
C668 C670 1.391 . S
C669 C668 1.386 . S
C669 C673 1.393 . S
C670 H662 0.950 . S
C670 C668 1.391 . S
C670 C671 1.400 . S
C671 C670 1.400 . S
C671 C672 1.398 . S
C671 C677 1.491 . S
C672 H663 0.950 . S
C672 C671 1.398 . S
C672 C673 1.391 . S
C673 H661 0.950 . S
C673 C669 1.393 . S
C673 C672 1.391 . S
C674 H664 0.950 . S
C674 C675 1.386 . S
C674 C676 1.391 . S
C675 C674 1.386 . S
C675 C679 1.393 . S
C676 H665 0.950 . S
C676 C674 1.391 . S
C676 C677 1.400 . S
C677 C671 1.491 . S
C677 C676 1.400 . S
C677 C678 1.398 . S
C678 H666 0.950 . S
C678 C677 1.398 . S
C678 C679 1.391 . S
C679 H667 0.950 . S
C679 C675 1.393 . S
C679 C678 1.391 . S
H680 C688 0.950 . S
H681 C693 0.950 . S
H682 C690 0.950 . S
H683 C692 0.950 . S
H684 C694 0.950 . S
H685 C696 0.950 . S
H686 C698 0.950 . S
H687 C699 0.950 . S
C688 H680 0.950 . S
C688 C689 1.386 . S
C688 C690 1.391 . S
C689 C688 1.386 . S
C689 C693 1.393 . S
C690 H682 0.950 . S
C690 C688 1.391 . S
C690 C691 1.400 . S
C691 C690 1.400 . S
C691 C692 1.398 . S
C691 C697 1.491 . S
C692 H683 0.950 . S
C692 C691 1.398 . S
C692 C693 1.391 . S
C693 H681 0.950 . S
C693 C689 1.393 . S
C693 C692 1.391 . S
C694 H684 0.950 . S
C694 C695 1.386 . S
C694 C696 1.391 . S
C695 C694 1.386 . S
C695 C699 1.393 . S
C696 H685 0.950 . S
C696 C694 1.391 . S
C696 C697 1.400 . S
C697 C691 1.491 . S
C697 C696 1.400 . S
C697 C698 1.398 . S
C698 H686 0.950 . S
C698 C697 1.398 . S
C698 C699 1.391 . S
C699 H687 0.950 . S
C699 C695 1.393 . S
C699 C698 1.391 . S
H700 C708 0.950 . S
H701 C713 0.950 . S
H702 C710 0.950 . S
H703 C712 0.950 . S
H704 C714 0.950 . S
H705 C716 0.950 . S
H706 C718 0.950 . S
H707 C719 0.950 . S
C708 H700 0.950 . S
C708 C709 1.386 . S
C708 C710 1.391 . S
C709 C708 1.386 . S
C709 C713 1.393 . S
C710 H702 0.950 . S
C710 C708 1.391 . S
C710 C711 1.400 . S
C711 C710 1.400 . S
C711 C712 1.398 . S
C711 C717 1.491 . S
C712 H703 0.950 . S
C712 C711 1.398 . S
C712 C713 1.391 . S
C713 H701 0.950 . S
C713 C709 1.393 . S
C713 C712 1.391 . S
C714 H704 0.950 . S
C714 C715 1.386 . S
C714 C716 1.391 . S
C715 C714 1.386 . S
C715 C719 1.393 . S
C716 H705 0.950 . S
C716 C714 1.391 . S
C716 C717 1.400 . S
C717 C711 1.491 . S
C717 C716 1.400 . S
C717 C718 1.398 . S
C718 H706 0.950 . S
C718 C717 1.398 . S
C718 C719 1.391 . S
C719 H707 0.950 . S
C719 C715 1.393 . S
C719 C718 1.391 . S
H720 C728 0.950 . S
H721 C733 0.950 . S
H722 C730 0.950 . S
H723 C732 0.950 . S
H724 C734 0.950 . S
H725 C736 0.950 . S
H726 C738 0.950 . S
H727 C739 0.950 . S
C728 H720 0.950 . S
C728 C729 1.386 . S
C728 C730 1.391 . S
C729 C728 1.386 . S
C729 C733 1.393 . S
C730 H722 0.950 . S
C730 C728 1.391 . S
C730 C731 1.400 . S
C731 C730 1.400 . S
C731 C732 1.398 . S
C731 C737 1.491 . S
C732 H723 0.950 . S
C732 C731 1.398 . S
C732 C733 1.391 . S
C733 H721 0.950 . S
C733 C729 1.393 . S
C733 C732 1.391 . S
C734 H724 0.950 . S
C734 C735 1.386 . S
C734 C736 1.391 . S
C735 C734 1.386 . S
C735 C739 1.393 . S
C736 H725 0.950 . S
C736 C734 1.391 . S
C736 C737 1.400 . S
C737 C731 1.491 . S
C737 C736 1.400 . S
C737 C738 1.398 . S
C738 H726 0.950 . S
C738 C737 1.398 . S
C738 C739 1.391 . S
C739 H727 0.950 . S
C739 C735 1.393 . S
C739 C738 1.391 . S
H740 C748 0.950 . S
H741 C753 0.950 . S
H742 C750 0.950 . S
H743 C752 0.950 . S
H744 C754 0.950 . S
H745 C756 0.950 . S
H746 C758 0.950 . S
H747 C759 0.950 . S
C748 H740 0.950 . S
C748 C749 1.386 . S
C748 C750 1.391 . S
C749 C748 1.386 . S
C749 C753 1.393 . S
C750 H742 0.950 . S
C750 C748 1.391 . S
C750 C751 1.400 . S
C751 C750 1.400 . S
C751 C752 1.398 . S
C751 C757 1.491 . S
C752 H743 0.950 . S
C752 C751 1.398 . S
C752 C753 1.391 . S
C753 H741 0.950 . S
C753 C749 1.393 . S
C753 C752 1.391 . S
C754 H744 0.950 . S
C754 C755 1.386 . S
C754 C756 1.391 . S
C755 C754 1.386 . S
C755 C759 1.393 . S
C756 H745 0.950 . S
C756 C754 1.391 . S
C756 C757 1.400 . S
C757 C751 1.491 . S
C757 C756 1.400 . S
C757 C758 1.398 . S
C758 H746 0.950 . S
C758 C757 1.398 . S
C758 C759 1.391 . S
C759 H747 0.950 . S
C759 C755 1.393 . S
C759 C758 1.391 . S
H760 C768 0.950 . S
H761 C773 0.950 . S
H762 C770 0.950 . S
H763 C772 0.950 . S
H764 C774 0.950 . S
H765 C776 0.950 . S
H766 C778 0.950 . S
H767 C779 0.950 . S
C768 H760 0.950 . S
C768 C769 1.386 . S
C768 C770 1.391 . S
C769 C768 1.386 . S
C769 C773 1.393 . S
C770 H762 0.950 . S
C770 C768 1.391 . S
C770 C771 1.400 . S
C771 C770 1.400 . S
C771 C772 1.398 . S
C771 C777 1.491 . S
C772 H763 0.950 . S
C772 C771 1.398 . S
C772 C773 1.391 . S
C773 H761 0.950 . S
C773 C769 1.393 . S
C773 C772 1.391 . S
C774 H764 0.950 . S
C774 C775 1.386 . S
C774 C776 1.391 . S
C775 C774 1.386 . S
C775 C779 1.393 . S
C776 H765 0.950 . S
C776 C774 1.391 . S
C776 C777 1.400 . S
C777 C771 1.491 . S
C777 C776 1.400 . S
C777 C778 1.398 . S
C778 H766 0.950 . S
C778 C777 1.398 . S
C778 C779 1.391 . S
C779 H767 0.950 . S
C779 C775 1.393 . S
C779 C778 1.391 . S
H780 C788 0.950 . S
H781 C793 0.950 . S
H782 C790 0.950 . S
H783 C792 0.950 . S
H784 C794 0.950 . S
H785 C796 0.950 . S
H786 C798 0.950 . S
H787 C799 0.950 . S
C788 H780 0.950 . S
C788 C789 1.386 . S
C788 C790 1.391 . S
C789 C788 1.386 . S
C789 C793 1.393 . S
C790 H782 0.950 . S
C790 C788 1.391 . S
C790 C791 1.400 . S
C791 C790 1.400 . S
C791 C792 1.398 . S
C791 C797 1.491 . S
C792 H783 0.950 . S
C792 C791 1.398 . S
C792 C793 1.391 . S
C793 H781 0.950 . S
C793 C789 1.393 . S
C793 C792 1.391 . S
C794 H784 0.950 . S
C794 C795 1.386 . S
C794 C796 1.391 . S
C795 C794 1.386 . S
C795 C799 1.393 . S
C796 H785 0.950 . S
C796 C794 1.391 . S
C796 C797 1.400 . S
C797 C791 1.491 . S
C797 C796 1.400 . S
C797 C798 1.398 . S
C798 H786 0.950 . S
C798 C797 1.398 . S
C798 C799 1.391 . S
C799 H787 0.950 . S
C799 C795 1.393 . S
C799 C798 1.391 . S
H800 C808 0.950 . S
H801 C813 0.950 . S
H802 C810 0.950 . S
H803 C812 0.950 . S
H804 C814 0.950 . S
H805 C816 0.950 . S
H806 C818 0.950 . S
H807 C819 0.950 . S
C808 H800 0.950 . S
C808 C809 1.386 . S
C808 C810 1.391 . S
C809 C808 1.386 . S
C809 C813 1.393 . S
C810 H802 0.950 . S
C810 C808 1.391 . S
C810 C811 1.400 . S
C811 C810 1.400 . S
C811 C812 1.398 . S
C811 C817 1.491 . S
C812 H803 0.950 . S
C812 C811 1.398 . S
C812 C813 1.391 . S
C813 H801 0.950 . S
C813 C809 1.393 . S
C813 C812 1.391 . S
C814 H804 0.950 . S
C814 C815 1.386 . S
C814 C816 1.391 . S
C815 C814 1.386 . S
C815 C819 1.393 . S
C816 H805 0.950 . S
C816 C814 1.391 . S
C816 C817 1.400 . S
C817 C811 1.491 . S
C817 C816 1.400 . S
C817 C818 1.398 . S
C818 H806 0.950 . S
C818 C817 1.398 . S
C818 C819 1.391 . S
C819 H807 0.950 . S
C819 C815 1.393 . S
C819 C818 1.391 . S
H820 C828 0.950 . S
H821 C833 0.950 . S
H822 C830 0.950 . S
H823 C832 0.950 . S
H824 C834 0.950 . S
H825 C836 0.950 . S
H826 C838 0.950 . S
H827 C839 0.950 . S
C828 H820 0.950 . S
C828 C829 1.386 . S
C828 C830 1.391 . S
C829 C828 1.386 . S
C829 C833 1.393 . S
C830 H822 0.950 . S
C830 C828 1.391 . S
C830 C831 1.400 . S
C831 C830 1.400 . S
C831 C832 1.398 . S
C831 C837 1.491 . S
C832 H823 0.950 . S
C832 C831 1.398 . S
C832 C833 1.391 . S
C833 H821 0.950 . S
C833 C829 1.393 . S
C833 C832 1.391 . S
C834 H824 0.950 . S
C834 C835 1.386 . S
C834 C836 1.391 . S
C835 C834 1.386 . S
C835 C839 1.393 . S
C836 H825 0.950 . S
C836 C834 1.391 . S
C836 C837 1.400 . S
C837 C831 1.491 . S
C837 C836 1.400 . S
C837 C838 1.398 . S
C838 H826 0.950 . S
C838 C837 1.398 . S
C838 C839 1.391 . S
C839 H827 0.950 . S
C839 C835 1.393 . S
C839 C838 1.391 . S
H840 C848 0.950 . S
H841 C853 0.950 . S
H842 C850 0.950 . S
H843 C852 0.950 . S
H844 C854 0.950 . S
H845 C856 0.950 . S
H846 C858 0.950 . S
H847 C859 0.950 . S
C848 H840 0.950 . S
C848 C849 1.386 . S
C848 C850 1.391 . S
C849 C848 1.386 . S
C849 C853 1.393 . S
C850 H842 0.950 . S
C850 C848 1.391 . S
C850 C851 1.400 . S
C851 C850 1.400 . S
C851 C852 1.398 . S
C851 C857 1.491 . S
C852 H843 0.950 . S
C852 C851 1.398 . S
C852 C853 1.391 . S
C853 H841 0.950 . S
C853 C849 1.393 . S
C853 C852 1.391 . S
C854 H844 0.950 . S
C854 C855 1.386 . S
C854 C856 1.391 . S
C855 C854 1.386 . S
C855 C859 1.393 . S
C856 H845 0.950 . S
C856 C854 1.391 . S
C856 C857 1.400 . S
C857 C851 1.491 . S
C857 C856 1.400 . S
C857 C858 1.398 . S
C858 H846 0.950 . S
C858 C857 1.398 . S
C858 C859 1.391 . S
C859 H847 0.950 . S
C859 C855 1.393 . S
C859 C858 1.391 . S
H860 C868 0.950 . S
H861 C873 0.950 . S
H862 C870 0.950 . S
H863 C872 0.950 . S
H864 C874 0.950 . S
H865 C876 0.950 . S
H866 C878 0.950 . S
H867 C879 0.950 . S
C868 H860 0.950 . S
C868 C869 1.386 . S
C868 C870 1.391 . S
C869 C868 1.386 . S
C869 C873 1.393 . S
C870 H862 0.950 . S
C870 C868 1.391 . S
C870 C871 1.400 . S
C871 C870 1.400 . S
C871 C872 1.398 . S
C871 C877 1.491 . S
C872 H863 0.950 . S
C872 C871 1.398 . S
C872 C873 1.391 . S
C873 H861 0.950 . S
C873 C869 1.393 . S
C873 C872 1.391 . S
C874 H864 0.950 . S
C874 C875 1.386 . S
C874 C876 1.391 . S
C875 C874 1.386 . S
C875 C879 1.393 . S
C876 H865 0.950 . S
C876 C874 1.391 . S
C876 C877 1.400 . S
C877 C871 1.491 . S
C877 C876 1.400 . S
C877 C878 1.398 . S
C878 H866 0.950 . S
C878 C877 1.398 . S
C878 C879 1.391 . S
C879 H867 0.950 . S
C879 C875 1.393 . S
C879 C878 1.391 . S
H880 C888 0.950 . S
H881 C893 0.950 . S
H882 C890 0.950 . S
H883 C892 0.950 . S
H884 C894 0.950 . S
H885 C896 0.950 . S
H886 C898 0.950 . S
H887 C899 0.950 . S
C888 H880 0.950 . S
C888 C889 1.386 . S
C888 C890 1.391 . S
C889 C888 1.386 . S
C889 C893 1.393 . S
C890 H882 0.950 . S
C890 C888 1.391 . S
C890 C891 1.400 . S
C891 C890 1.400 . S
C891 C892 1.398 . S
C891 C897 1.491 . S
C892 H883 0.950 . S
C892 C891 1.398 . S
C892 C893 1.391 . S
C893 H881 0.950 . S
C893 C889 1.393 . S
C893 C892 1.391 . S
C894 H884 0.950 . S
C894 C895 1.386 . S
C894 C896 1.391 . S
C895 C894 1.386 . S
C895 C899 1.393 . S
C896 H885 0.950 . S
C896 C894 1.391 . S
C896 C897 1.400 . S
C897 C891 1.491 . S
C897 C896 1.400 . S
C897 C898 1.398 . S
C898 H886 0.950 . S
C898 C897 1.398 . S
C898 C899 1.391 . S
C899 H887 0.950 . S
C899 C895 1.393 . S
C899 C898 1.391 . S
H900 C908 0.950 . S
H901 C913 0.950 . S
H902 C910 0.950 . S
H903 C912 0.950 . S
H904 C914 0.950 . S
H905 C916 0.950 . S
H906 C918 0.950 . S
H907 C919 0.950 . S
C908 H900 0.950 . S
C908 C909 1.386 . S
C908 C910 1.391 . S
C909 C908 1.386 . S
C909 C913 1.393 . S
C910 H902 0.950 . S
C910 C908 1.391 . S
C910 C911 1.400 . S
C911 C910 1.400 . S
C911 C912 1.398 . S
C911 C917 1.491 . S
C912 H903 0.950 . S
C912 C911 1.398 . S
C912 C913 1.391 . S
C913 H901 0.950 . S
C913 C909 1.393 . S
C913 C912 1.391 . S
C914 H904 0.950 . S
C914 C915 1.386 . S
C914 C916 1.391 . S
C915 C914 1.386 . S
C915 C919 1.393 . S
C916 H905 0.950 . S
C916 C914 1.391 . S
C916 C917 1.400 . S
C917 C911 1.491 . S
C917 C916 1.400 . S
C917 C918 1.398 . S
C918 H906 0.950 . S
C918 C917 1.398 . S
C918 C919 1.391 . S
C919 H907 0.950 . S
C919 C915 1.393 . S
C919 C918 1.391 . S
C295 C169 1.505 . S
C289 C12 1.379 . S
C315 C195 1.510 . S
C309 C33 1.385 . S
C335 C209 1.502 . S
C329 C51 1.404 . S
C355 C211 1.512 . S
C349 C75 1.396 . S
C369 C103 1.444 . S
C375 C208 1.505 . S
C395 C210 1.506 . S
C389 C122 1.389 . S
C415 C168 1.497 . S
C409 C145 1.435 . S
C435 C194 1.495 . S
C429 C166 1.412 . S
C455 C196 1.513 . S
C449 C164 1.422 . S
C475 C222 1.513 . S
C469 C101 1.405 . S
C495 C180 1.498 . S
C489 C124 1.408 . S
C515 C182 1.504 . S
C509 C143 1.391 . S
C535 C181 1.505 . S
C529 C30 1.407 . S
C555 C183 1.511 . S
C549 C54 1.417 . S
C575 C197 1.502 . S
C569 C72 1.404 . S
C595 C223 1.509 . S
C589 C9 1.418 . S
C615 C225 1.509 . S
C609 C159 1.395 . S
C629 C96 1.383 . S
C635 C251 1.510 . S
C649 C114 1.409 . S
C655 C264 1.501 . S
C669 C138 1.396 . S
C675 C267 1.507 . S
C689 C40 1.423 . S
C695 C265 1.502 . S
C709 C59 1.402 . S
C715 C266 1.506 . S
C729 C82 1.408 . S
C735 C224 1.491 . S
C755 C250 1.500 . S
C749 C19 1.435 . S
C775 C253 1.508 . S
C769 C17 1.402 . S
C789 C38 1.401 . S
C795 C278 1.512 . S
C809 C61 1.409 . S
C815 C236 1.499 . S
C829 C80 1.394 . S
C835 C238 1.505 . S
C855 C237 1.501 . S
C849 C93 1.399 . S
C875 C239 1.512 . S
C869 C117 1.418 . S
C889 C135 1.419 . S
C895 C252 1.500 . S
C915 C279 1.504 . S
C909 C156 1.415 . S
