# Generated by pormake.
# Topology anh, (6,3)-cn, num edge types: 1
# Building blocks:
#     Node 0, Type 0, BuildingBlock: NUHQIS_clean_sbu_0, # of connection points: 6
#     Node 1, Type 0, BuildingBlock: NUHQIS_clean_sbu_0, # of connection points: 6
#     Node 2, Type 0, BuildingBlock: NUHQIS_clean_sbu_0, # of connection points: 6
#     Node 3, Type 1, BuildingBlock: BETDIP_clean_linker_0, # of connection points: 3
#     Node 4, Type 1, BuildingBlock: BETDIP_clean_linker_0, # of connection points: 3
#     Node 5, Type 1, BuildingBlock: BETDIP_clean_linker_0, # of connection points: 3
#     Node 6, Type 1, BuildingBlock: BETDIP_clean_linker_0, # of connection points: 3
#     Node 7, Type 1, BuildingBlock: BETDIP_clean_linker_0, # of connection points: 3
#     Node 8, Type 1, BuildingBlock: BETDIP_clean_linker_0, # of connection points: 3
#     Edge 9, Type (0, 1), BuildingBlock: KIFKEQ_clean_linker_1, # of connection points: 2
#     Edge 10, Type (0, 1), BuildingBlock: KIFKEQ_clean_linker_1, # of connection points: 2
#     Edge 11, Type (0, 1), BuildingBlock: KIFKEQ_clean_linker_1, # of connection points: 2
#     Edge 12, Type (0, 1), BuildingBlock: KIFKEQ_clean_linker_1, # of connection points: 2
#     Edge 13, Type (0, 1), BuildingBlock: KIFKEQ_clean_linker_1, # of connection points: 2
#     Edge 14, Type (0, 1), BuildingBlock: KIFKEQ_clean_linker_1, # of connection points: 2
#     Edge 15, Type (0, 1), BuildingBlock: KIFKEQ_clean_linker_1, # of connection points: 2
#     Edge 16, Type (0, 1), BuildingBlock: KIFKEQ_clean_linker_1, # of connection points: 2
#     Edge 17, Type (0, 1), BuildingBlock: KIFKEQ_clean_linker_1, # of connection points: 2
#     Edge 18, Type (0, 1), BuildingBlock: KIFKEQ_clean_linker_1, # of connection points: 2
#     Edge 19, Type (0, 1), BuildingBlock: KIFKEQ_clean_linker_1, # of connection points: 2
#     Edge 20, Type (0, 1), BuildingBlock: KIFKEQ_clean_linker_1, # of connection points: 2
#     Edge 21, Type (0, 1), BuildingBlock: KIFKEQ_clean_linker_1, # of connection points: 2
#     Edge 22, Type (0, 1), BuildingBlock: KIFKEQ_clean_linker_1, # of connection points: 2
#     Edge 23, Type (0, 1), BuildingBlock: KIFKEQ_clean_linker_1, # of connection points: 2
#     Edge 24, Type (0, 1), BuildingBlock: KIFKEQ_clean_linker_1, # of connection points: 2
#     Edge 25, Type (0, 1), BuildingBlock: KIFKEQ_clean_linker_1, # of connection points: 2
#     Edge 26, Type (0, 1), BuildingBlock: KIFKEQ_clean_linker_1, # of connection points: 2
# Relax obj value: 0.245
# Max RMSD: 0.170
# Mean RMSD: 0.124
data_MOF--net-anh--node1-NUHQIS_clean_sbu_0--node2-BETDIP_clean_linker_0--edge1-KIFKEQ_clean_linker_1
_symmetry_space_group_name_H-M    P1
_symmetry_Int_Tables_number       1
_symmetry_cell_setting            triclinic
loop_
_symmetry_equiv_pos_as_xyz
'x, y, z'
_cell_length_a     31.053805
_cell_length_b     30.975658
_cell_length_c     50.889112
_cell_angle_alpha  90.013763
_cell_angle_beta   94.190721
_cell_angle_gamma 120.22934
loop_
_atom_site_label
_atom_site_type_symbol
_atom_site_fract_x
_atom_site_fract_y
_atom_site_fract_z
_atom_type_partial_charge
Tb0 Tb 0.18289 0.62679 0.15624 0.0
Eu1 Eu 0.13024 0.69423 0.15849 0.0
C2 C 0.16505 0.65912 0.20944 0.0
C3 C 1.06355 0.57202 0.15748 0.0
C4 C 0.25688 0.56085 0.14802 0.0
C5 C 0.27317 0.50059 0.12748 0.0
C6 C 0.23971 0.5132 0.13662 0.0
C7 C 0.30827 0.5961 0.15016 0.0
C8 C 0.34203 0.58334 0.14106 0.0
C9 C 0.32462 0.53539 0.12967 0.0
C10 C 0.21983 0.57067 0.15852 0.0
O11 O 0.18782 0.65154 0.11636 0.0
O12 O 0.12697 0.67316 0.11521 0.0
O13 O 0.21107 0.75333 0.15551 0.0
O14 O 0.24793 0.70508 0.16247 0.0
C15 C 0.15738 0.66312 0.10329 0.0
O16 O 1.09799 0.73562 0.13893 0.0
O17 O 1.09548 0.72684 0.18092 0.0
O18 O 0.16746 0.69897 0.19921 0.0
O19 O 0.15423 0.6207 0.19414 0.0
O20 O 1.10207 0.57093 0.14881 0.0
O21 O 1.06819 0.61485 0.16514 0.0
C22 C 0.25138 0.74948 0.15971 0.0
O23 O 0.23512 0.60958 0.17449 0.0
O24 O 0.18284 0.5637 0.14184 0.0
C25 C 1.02095 0.7107 0.1562 0.0
C26 C 0.92101 0.63737 0.14164 0.0
C27 C 0.94725 0.67655 0.12489 0.0
C28 C 0.99701 0.71306 0.13214 0.0
C29 C 0.99237 0.67493 0.17419 0.0
C30 C 0.94295 0.63846 0.16689 0.0
C31 C 1.07624 0.73662 0.15971 0.0
H32 H 0.2588 0.46312 0.11923 0.0
H33 H 0.20022 0.48531 0.1351 0.0
H34 H 0.32232 0.6331 0.15898 0.0
H35 H 0.38159 0.61086 0.14283 0.0
H36 H 0.93093 0.67641 0.10531 0.0
H37 H 1.01803 0.74032 0.11796 0.0
H38 H 1.00924 0.67216 0.19303 0.0
H39 H 0.92307 0.60883 0.18022 0.0
Tb40 Tb 0.6703 0.19753 0.49466 0.0
Eu41 Eu 0.55088 0.14304 0.47903 0.0
C42 C 0.59479 0.14959 0.53793 0.0
C43 C 0.60757 1.07687 0.48719 0.0
C44 C 0.81191 0.27909 0.51483 0.0
C45 C 0.89808 0.30531 0.52897 0.0
C46 C 0.84813 0.26779 0.52473 0.0
C47 C 0.82533 0.32918 0.51155 0.0
C48 C 0.87547 0.36708 0.51612 0.0
C49 C 0.91286 0.35523 0.52355 0.0
C50 C 0.76368 0.23734 0.50391 0.0
O51 O 0.65485 0.17017 0.45327 0.0
O52 O 0.58833 0.18015 0.44301 0.0
O53 O 0.57359 0.22261 0.49269 0.0
O54 O 0.65852 0.26219 0.49059 0.0
C55 C 0.62565 0.17634 0.4356 0.0
O56 O 0.48315 0.09411 0.45369 0.0
O57 O 0.4797 0.13518 0.48731 0.0
O58 O 0.56094 0.12077 0.51939 0.0
O59 O 0.63656 0.1894 0.53214 0.0
O60 O 0.6484 0.11831 0.4962 0.0
O61 O 0.56706 1.07778 0.4777 0.0
C62 C 0.61737 0.26415 0.49293 0.0
O63 O 0.73184 0.2079 0.52006 0.0
O64 O 0.74202 0.24458 0.48282 0.0
C65 C 0.41109 1.05389 0.47727 0.0
C66 C 0.33416 0.96055 0.49215 0.0
C67 C 0.33964 0.97194 0.46535 0.0
C68 C 0.37753 1.0182 0.45803 0.0
C69 C 0.40448 1.04371 0.50409 0.0
C70 C 0.36616 0.99758 0.51144 0.0
C71 C 0.4543 0.09998 0.46902 0.0
H72 H 0.92535 0.29418 0.53437 0.0
H73 H 0.83845 0.22926 0.52726 0.0
H74 H 0.79774 0.33869 0.50403 0.0
H75 H 0.88521 0.40522 0.51238 0.0
H76 H 0.31653 0.9442 0.44985 0.0
H77 H 0.38192 1.0253 0.43727 0.0
H78 H 0.42976 1.07067 0.51943 0.0
H79 H 0.36269 0.99039 0.53223 0.0
Tb80 Tb 0.72625 0.71813 0.82617 0.0
Eu81 Eu 0.66549 0.59861 0.81517 0.0
C82 C 0.71125 0.6455 0.87108 0.0
C83 C 0.78976 0.66236 0.81983 0.0
C84 C 0.73919 0.83478 0.84797 0.0
C85 C 0.72459 0.90456 0.84579 0.0
C86 C 0.75619 0.88509 0.84322 0.0
C87 C 0.69224 0.80547 0.85767 0.0
C88 C 0.66035 0.82447 0.85973 0.0
C89 C 0.67495 0.87344 0.85232 0.0
C90 C 0.76469 0.80992 0.83796 0.0
O91 O 0.73002 0.70704 0.78391 0.0
O92 O 0.65823 0.63126 0.77725 0.0
O93 O 0.60701 0.61716 0.82855 0.0
O94 O 0.64755 0.70016 0.81981 0.0
C95 C 0.69409 0.67176 0.76801 0.0
O96 O 0.64381 0.53245 0.79022 0.0
O97 O 0.61248 0.52486 0.82801 0.0
O98 O 0.70986 0.61416 0.85363 0.0
O99 O 0.70246 0.68104 0.86353 0.0
O100 O 0.78895 0.70309 0.827 0.0
O101 O 0.74769 0.62027 0.81241 0.0
C102 C 0.6064 0.65924 0.82543 0.0
O103 O 0.76875 0.77857 0.85356 0.0
O104 O 0.74825 0.79061 0.81409 0.0
C105 C 0.62792 0.46122 0.81397 0.0
C106 C 0.64438 0.3811 0.8241 0.0
C107 C 0.63057 0.38881 0.79836 0.0
C108 C 0.62231 0.42836 0.79338 0.0
C109 C 0.64282 0.45443 0.8397 0.0
C110 C 0.65063 0.41438 0.84475 0.0
C111 C 0.61775 0.50189 0.80803 0.0
H112 H 0.73806 0.94308 0.84096 0.0
H113 H 0.79248 0.90834 0.83585 0.0
H114 H 0.67845 0.76647 0.86156 0.0
H115 H 0.62277 0.79897 0.86484 0.0
H116 H 0.62437 0.36314 0.78213 0.0
H117 H 0.61081 0.43289 0.77344 0.0
H118 H 0.64787 0.4796 0.85594 0.0
H119 H 0.66115 0.40919 0.86475 0.0
H120 H 0.6195 0.11495 0.16194 0.0
H121 H 0.69787 0.2013 0.23409 0.0
H122 H 0.56002 1.06295 0.23708 0.0
H123 H 0.71047 0.26503 0.20613 0.0
C124 C 0.72795 0.25535 0.19125 0.0
C125 C 0.62252 0.11972 0.1832 0.0
C126 C 0.58419 1.08262 0.19799 0.0
C127 C 0.66361 0.16418 0.19604 0.0
C128 C 0.66624 0.16919 0.22373 0.0
C129 C 0.62933 0.13305 0.23855 0.0
C130 C 0.58888 0.09031 0.22557 0.0
N131 N 0.7021 0.20364 0.18168 0.0
H132 H 0.61495 0.62899 0.4927 0.0
H133 H 0.64367 0.71957 0.56352 0.0
H134 H 0.64885 0.58401 0.56794 0.0
H135 H 0.68185 0.7812 0.53335 0.0
C136 C 0.6486 0.76874 0.51985 0.0
C137 C 0.62381 0.63547 0.51382 0.0
C138 C 0.63277 0.60109 0.52881 0.0
C139 C 0.62862 0.67954 0.52622 0.0
C140 C 0.64044 0.68694 0.55375 0.0
C141 C 0.64826 0.6532 0.56895 0.0
C142 C 0.64407 0.61075 0.55623 0.0
N143 N 0.62165 0.71626 0.51162 0.0
H144 H 0.15941 0.66293 0.82603 0.0
H145 H 0.23814 0.67083 0.9012 0.0
H146 H 1.09674 0.66521 0.89828 0.0
H147 H 0.3065 0.71706 0.87582 0.0
C148 C 0.29544 0.68865 0.86019 0.0
C149 C 0.1617 0.66426 0.84737 0.0
C150 C 1.12324 0.66592 0.86059 0.0
C151 C 0.20427 0.66637 0.86197 0.0
C152 C 0.20647 0.66912 0.88984 0.0
C153 C 0.16824 0.66925 0.90323 0.0
C154 C 0.1271 0.66684 0.88827 0.0
N155 N 0.24391 0.66486 0.849 0.0
H156 H 0.25685 0.5971 0.47552 0.0
H157 H 0.2452 0.55633 0.39345 0.0
H158 H 0.2033 0.66272 0.41712 0.0
H159 H 0.28474 0.50223 0.47466 0.0
C160 C 0.25728 0.51027 0.46514 0.0
C161 C 0.24602 0.59957 0.4551 0.0
C162 C 0.22825 0.63208 0.44868 0.0
C163 C 0.25098 0.57121 0.43524 0.0
C164 C 0.2399 0.57713 0.40876 0.0
C165 C 0.22252 0.61012 0.40206 0.0
C166 C 0.21608 0.63677 0.42218 0.0
N167 N 0.2684 0.53763 0.44169 0.0
H168 H 0.46003 1.00275 0.79284 0.0
H169 H 0.432 0.96923 0.70929 0.0
H170 H 0.5677 0.09978 0.74078 0.0
H171 H 0.34924 0.88872 0.78505 0.0
C172 C 0.386 0.90686 0.77765 0.0
C173 C 0.4724 1.01101 0.77316 0.0
C174 C 0.5183 1.05389 0.76947 0.0
C175 C 0.44159 0.97987 0.7515 0.0
C176 C 0.45635 0.99281 0.72595 0.0
C177 C 0.5025 1.0356 0.72192 0.0
C178 C 0.53341 1.06539 0.74384 0.0
N179 N 0.39471 0.93654 0.75512 0.0
H180 H 0.51843 0.34952 0.07409 0.0
H181 H 0.6348 0.39528 0.02161 0.0
H182 H 0.57864 0.49282 0.03945 0.0
H183 H 0.62514 0.2905 0.05649 0.0
C184 C 0.62246 0.32325 0.06107 0.0
C185 C 0.54356 0.37689 0.06109 0.0
C186 C 0.54614 0.42321 0.05891 0.0
C187 C 0.57614 0.36723 0.04806 0.0
C188 C 0.6097 0.40307 0.03164 0.0
C189 C 0.61098 0.44877 0.02836 0.0
C190 C 0.57914 0.45838 0.04224 0.0
N191 N 0.57734 0.3228 0.05311 0.0
H192 H 0.41212 0.55116 0.15521 0.0
H193 H 0.31527 0.48563 0.08368 0.0
H194 H 0.46607 0.52043 0.14138 0.0
H195 H 0.36891 0.45505 0.06989 0.0
H196 H 0.44577 0.3663 0.06339 0.0
H197 H 0.39258 0.39252 0.08308 0.0
H198 H 0.52286 0.5356 0.10665 0.0
H199 H 0.5759 0.50884 0.08768 0.0
C200 C 0.40277 0.53071 0.13643 0.0
C201 C 0.35952 0.52054 0.12055 0.0
C202 C 0.43338 0.51292 0.12859 0.0
C203 C 0.42118 0.48473 0.10477 0.0
C204 C 0.37849 0.47555 0.08868 0.0
C205 C 0.348 0.49331 0.09648 0.0
C206 C 0.46296 0.40286 0.0733 0.0
C207 C 0.51467 0.43583 0.07378 0.0
C208 C 0.43261 0.41806 0.08431 0.0
C209 C 0.45362 0.46634 0.09604 0.0
C210 C 0.50568 0.49816 0.09781 0.0
C211 C 0.53593 0.48302 0.08678 0.0
H212 H 0.95373 0.42913 0.48808 0.0
H213 H 0.99508 0.36459 0.55356 0.0
H214 H 1.03986 0.47463 0.4775 0.0
H215 H 1.08067 0.40671 0.54135 0.0
H216 H 0.23928 0.50406 0.51696 0.0
H217 H 0.15931 0.478 0.53535 0.0
H218 H 1.08635 0.44649 0.45626 0.0
H219 H 0.16596 0.47397 0.43832 0.0
C220 C 0.98116 0.42529 0.50065 0.0
C221 C 0.96683 0.392 0.52136 0.0
C222 C 1.03065 0.45076 0.49419 0.0
C223 C 1.06693 0.44287 0.50789 0.0
C224 C 1.05374 0.41339 0.53015 0.0
C225 C 1.00434 0.38866 0.53696 0.0
C226 C 0.20589 0.49153 0.5037 0.0
C227 C 0.20864 0.49169 0.47632 0.0
C228 C 0.16018 0.47668 0.51415 0.0
C229 C 1.11637 0.46097 0.49731 0.0
C230 C 1.11941 0.46 0.46988 0.0
C231 C 0.16498 0.47532 0.45953 0.0
H232 H 0.58861 0.84459 0.87733 0.0
H233 H 0.67231 0.9353 0.81445 0.0
H234 H 0.51704 0.85157 0.86062 0.0
H235 H 0.60302 0.94613 0.79969 0.0
H236 H 0.45527 0.89456 0.75444 0.0
H237 H 0.52596 0.89118 0.77579 0.0
H238 H 0.47822 0.90121 0.85218 0.0
H239 H 0.40595 0.90292 0.83035 0.0
C240 C 0.59236 0.86681 0.86032 0.0
C241 C 0.63633 0.88827 0.84696 0.0
C242 C 0.55136 0.87132 0.85095 0.0
C243 C 0.5538 0.89825 0.82835 0.0
C244 C 0.59926 0.92365 0.81662 0.0
C245 C 0.6397 0.9183 0.82557 0.0
C246 C 0.45992 0.89599 0.77579 0.0
C247 C 0.42598 0.89996 0.79085 0.0
C248 C 0.50064 0.89449 0.78808 0.0
C249 C 0.50864 0.89737 0.81575 0.0
C250 C 0.47328 0.89912 0.83084 0.0
C251 C 0.43199 0.90005 0.81843 0.0
H252 H 0.90747 0.54463 0.14051 0.0
H253 H 0.83337 0.62684 0.11837 0.0
H254 H 0.83475 0.46726 0.1224 0.0
H255 H 0.76002 0.54903 0.09971 0.0
H256 H 0.62218 0.38752 0.0981 0.0
H257 H 0.69375 0.46475 0.11734 0.0
H258 H 0.79279 0.43367 0.07638 0.0
H259 H 0.7206 0.35706 0.05623 0.0
C260 C 0.87511 0.54578 0.13213 0.0
C261 C 0.87542 0.59122 0.1313 0.0
C262 C 0.83385 0.50175 0.12143 0.0
C263 C 0.7919 0.50227 0.10967 0.0
C264 C 0.79189 0.54771 0.1089 0.0
C265 C 0.83365 0.59206 0.11945 0.0
C266 C 0.65912 0.39773 0.09275 0.0
C267 C 0.66593 0.36746 0.07489 0.0
C268 C 0.70002 0.44173 0.10389 0.0
C269 C 0.74858 0.45548 0.09799 0.0
C270 C 0.7556 0.42392 0.08115 0.0
C271 C 0.71452 0.38019 0.0697 0.0
H272 H 0.24123 0.89326 0.46879 0.0
H273 H 0.34945 0.90881 0.53206 0.0
H274 H 0.20164 0.80342 0.46994 0.0
H275 H 0.30683 0.81874 0.53501 0.0
H276 H 0.30554 0.69331 0.48358 0.0
H277 H 0.31618 0.76669 0.50651 0.0
H278 H 0.16199 0.72182 0.48298 0.0
H279 H 0.15264 0.64913 0.45871 0.0
C280 C 0.25557 0.8775 0.48358 0.0
C281 C 0.30002 0.90828 0.49938 0.0
C282 C 0.23221 0.82563 0.48462 0.0
C283 C 0.25226 0.80346 0.5019 0.0
C284 C 0.29162 0.83448 0.5207 0.0
C285 C 0.31576 0.88641 0.51923 0.0
C286 C 0.27344 0.69821 0.48412 0.0
C287 C 0.22872 0.66646 0.46892 0.0
C288 C 0.2793 0.74035 0.49746 0.0
C289 C 0.24029 0.75127 0.49606 0.0
C290 C 0.19335 0.71557 0.48375 0.0
C291 C 0.18783 0.67382 0.46997 0.0
H292 H 0.69121 0.34393 0.79643 0.0
H293 H 0.6033 0.31507 0.863 0.0
H294 H 0.67275 0.25812 0.79528 0.0
H295 H 0.58642 0.22914 0.86276 0.0
H296 H 0.4817 0.08892 0.80547 0.0
H297 H 0.52824 0.16684 0.83115 0.0
H298 H 0.66694 0.18228 0.80888 0.0
H299 H 0.61954 0.10401 0.78245 0.0
C300 C 0.66944 0.31956 0.81146 0.0
C301 C 0.64726 0.33554 0.82919 0.0
C302 C 0.65929 0.27033 0.81107 0.0
C303 C 0.62683 0.23614 0.82851 0.0
C304 C 0.6105 0.25422 0.84863 0.0
C305 C 0.62047 0.30356 0.84891 0.0
C306 C 0.52217 0.10776 0.80693 0.0
C307 C 0.54698 0.09118 0.79141 0.0
C308 C 0.54912 0.15263 0.82183 0.0
C309 C 0.60145 0.18171 0.82153 0.0
C310 C 0.62658 0.16147 0.80893 0.0
C311 C 0.59952 0.11669 0.79382 0.0
H312 H 0.52922 0.97632 0.48259 0.0
H313 H 0.68981 1.06615 0.49506 0.0
H314 H 0.53485 0.90017 0.48854 0.0
H315 H 0.69555 0.99158 0.50009 0.0
H316 H 0.69739 0.86345 0.53931 0.0
H317 H 0.684 0.93251 0.5305 0.0
H318 H 0.55884 0.83866 0.47472 0.0
H319 H 0.57194 0.76748 0.48447 0.0
C320 C 0.56576 0.9801 0.48633 0.0
C321 C 0.60896 1.02833 0.48863 0.0
C322 C 0.56907 0.9361 0.48969 0.0
C323 C 0.6157 0.93865 0.49544 0.0
C324 C 0.65862 0.98694 0.49664 0.0
C325 C 0.65532 1.03041 0.4935 0.0
C326 C 0.66689 0.85701 0.52503 0.0
C327 C 0.63624 0.80929 0.51255 0.0
C328 C 0.65934 0.89736 0.51973 0.0
C329 C 0.62082 0.89272 0.50134 0.0
C330 C 0.58907 0.84452 0.48901 0.0
C331 C 0.59668 0.80344 0.49449 0.0
H332 H 0.88596 0.74391 0.82651 0.0
H333 H 0.80829 0.5832 0.81787 0.0
H334 H 0.9656 0.74631 0.83148 0.0
H335 H 0.88808 0.58506 0.82405 0.0
H336 H 1.04336 0.59883 0.82501 0.0
H337 H 0.96485 0.59806 0.81265 0.0
H338 H 1.02202 0.73719 0.85758 0.0
H339 H 1.09983 0.73845 0.86863 0.0
C340 C 0.88562 0.7088 0.82575 0.0
C341 C 0.83966 0.66338 0.82174 0.0
C342 C 0.93195 0.71004 0.8289 0.0
C343 C 0.93496 0.66584 0.82864 0.0
C344 C 0.8888 0.62034 0.82419 0.0
C345 C 0.84236 0.61917 0.82072 0.0
C346 C 1.03971 0.63008 0.83144 0.0
C347 C 1.0791 0.66921 0.8475 0.0
C348 C 0.99388 0.62928 0.82478 0.0
C349 C 0.98537 0.66749 0.834 0.0
C350 C 1.02579 0.7072 0.84935 0.0
C351 C 1.07121 0.70802 0.85583 0.0
H352 H 0.27129 0.84586 0.15299 0.0
H353 H 0.34763 0.76457 0.17221 0.0
H354 H 0.35015 0.92424 0.15835 0.0
H355 H 0.42748 0.84405 0.17818 0.0
H356 H 0.57283 0.99818 0.17142 0.0
H357 H 0.49489 0.91808 0.16056 0.0
H358 H 0.4105 0.98115 0.18982 0.0
H359 H 0.48764 1.06025 0.20006 0.0
C360 C 0.30487 0.84437 0.15843 0.0
C361 C 0.302 0.79783 0.16224 0.0
C362 C 0.35072 0.89003 0.16173 0.0
C363 C 0.39635 0.89179 0.16909 0.0
C364 C 0.39383 0.84514 0.17235 0.0
C365 C 0.34762 0.79913 0.16904 0.0
C366 C 0.53745 0.99527 0.17477 0.0
C367 C 0.53694 1.03659 0.18611 0.0
C368 C 0.49247 0.94881 0.16896 0.0
C369 C 0.44522 0.94197 0.17417 0.0
C370 C 0.44515 0.98403 0.1849 0.0
C371 C 0.48982 1.02998 0.19081 0.0
H372 H 0.70003 0.36011 0.49339 0.0
H373 H 0.54073 0.28401 0.4989 0.0
H374 H 0.70414 0.44057 0.49797 0.0
H375 H 0.54481 0.3644 0.50417 0.0
H376 H 0.55794 0.51909 0.49781 0.0
H377 H 0.5542 0.43961 0.48737 0.0
H378 H 0.7024 0.49816 0.52614 0.0
H379 H 0.7062 0.57691 0.5357 0.0
C380 C 0.66571 0.36026 0.49568 0.0
C381 C 0.62007 0.31456 0.49581 0.0
C382 C 0.66805 0.40696 0.4985 0.0
C383 C 0.62485 0.41038 0.50163 0.0
C384 C 0.57911 0.36452 0.50149 0.0
C385 C 0.5768 0.31781 0.49866 0.0
C386 C 0.59022 0.51542 0.50344 0.0
C387 C 0.63257 0.55532 0.51745 0.0
C388 C 0.58786 0.46919 0.49785 0.0
C389 C 0.62786 0.46101 0.50594 0.0
C390 C 0.67076 0.50189 0.51908 0.0
C391 C 0.67298 0.54765 0.52468 0.0
H392 H 0.51054 0.583 0.83563 0.0
H393 H 0.59223 0.74053 0.82167 0.0
H394 H 0.43536 0.58825 0.84133 0.0
H395 H 0.51793 0.74601 0.82759 0.0
H396 H 0.3949 0.75386 0.8689 0.0
H397 H 0.46624 0.74576 0.85961 0.0
H398 H 0.36645 0.60008 0.82247 0.0
H399 H 0.29406 0.6087 0.83189 0.0
C400 C 0.51279 0.61888 0.83372 0.0
C401 C 0.55867 0.6614 0.82838 0.0
C402 C 0.46915 0.62188 0.83688 0.0
C403 C 0.46941 0.66767 0.83518 0.0
C404 C 0.51527 0.70996 0.82957 0.0
C405 C 0.55852 0.70681 0.8261 0.0
C406 C 0.38775 0.72015 0.85839 0.0
C407 C 0.33792 0.6823 0.85101 0.0
C408 C 0.42925 0.7155 0.85294 0.0
C409 C 0.42341 0.67222 0.8401 0.0
C410 C 0.37337 0.63405 0.83253 0.0
C411 C 0.33145 0.63914 0.83769 0.0
H412 H 1.0358 0.47306 0.14443 0.0
H413 H 0.9778 0.56044 0.17646 0.0
H414 H 0.95682 0.39612 0.15084 0.0
H415 H 0.89906 0.48487 0.1818 0.0
H416 H 0.78069 0.3459 0.2159 0.0
H417 H 0.85932 0.41809 0.20717 0.0
H418 H 0.86936 0.33763 0.14081 0.0
H419 H 0.78977 0.2632 0.15061 0.0
C420 C 1.0062 0.47616 0.15261 0.0
C421 C 1.01405 0.52384 0.15989 0.0
C422 C 0.96036 0.43164 0.15619 0.0
C423 C 0.92046 0.43291 0.16727 0.0
C424 C 0.92839 0.48089 0.17396 0.0
C425 C 0.97402 0.52503 0.17056 0.0
C426 C 0.79938 0.34316 0.19936 0.0
C427 C 0.77801 0.29812 0.18401 0.0
C428 C 0.84492 0.38539 0.19408 0.0
C429 C 0.87165 0.38542 0.17281 0.0
C430 C 0.85071 0.33992 0.15745 0.0
C431 C 0.80467 0.29692 0.16298 0.0
H432 H 0.15122 0.73036 0.07063 0.0
H433 H 0.16517 0.59886 0.07032 0.0
H434 H 0.15876 0.73578 0.0233 0.0
H435 H 0.16805 0.60083 0.02277 0.0
H436 H 0.20962 0.63075 0.93964 0.0
H437 H 0.21009 0.63276 0.98722 0.0
H438 H 0.12665 0.71033 0.98191 0.0
H439 H 0.1322 0.71417 0.93501 0.0
C440 C 0.15482 0.70195 0.06024 0.0
C441 C 0.15763 0.66425 0.07415 0.0
C442 C 0.15887 0.7047 0.0329 0.0
C443 C 0.16416 0.66876 0.01853 0.0
C444 C 0.16558 0.63028 0.03271 0.0
C445 C 0.16323 0.62861 0.0601 0.0
C446 C 0.19246 0.6494 0.94859 0.0
C447 C 0.17032 0.67168 0.93293 0.0
C448 C 0.19168 0.6496 0.97616 0.0
C449 C 0.16759 0.67094 0.98906 0.0
C450 C 0.14618 0.69386 0.97333 0.0
C451 C 0.14833 0.69502 0.94594 0.0
H452 H 0.67748 0.13979 0.41113 0.0
H453 H 0.58516 0.20592 0.39511 0.0
H454 H 0.68097 0.13032 0.36364 0.0
H455 H 0.58897 0.19676 0.34786 0.0
H456 H 0.64876 0.21761 0.26611 0.0
H457 H 0.6517 0.23028 0.31378 0.0
H458 H 0.61919 1.0789 0.32468 0.0
H459 H 0.61636 1.06624 0.2769 0.0
C460 C 0.65836 0.15274 0.39752 0.0
C461 C 0.63101 0.17359 0.40694 0.0
C462 C 0.66007 0.14699 0.37033 0.0
C463 C 0.63519 0.16273 0.35197 0.0
C464 C 0.60887 0.18462 0.36146 0.0
C465 C 0.60653 0.18967 0.38856 0.0
C466 C 0.64264 0.18716 0.2787 0.0
C467 C 0.63228 0.1409 0.26771 0.0
C468 C 0.644 0.19432 0.30598 0.0
C469 C 0.63566 0.1556 0.32303 0.0
C470 C 0.62617 0.10959 0.3121 0.0
C471 C 0.62412 0.1022 0.28474 0.0
H472 H 0.66593 0.59525 0.7327 0.0
H473 H 0.72257 0.75426 0.73771 0.0
H474 H 0.66067 0.59635 0.68468 0.0
H475 H 0.71574 0.755 0.6891 0.0
H476 H 0.61448 0.69469 0.60449 0.0
H477 H 0.63312 0.70616 0.6523 0.0
H478 H 0.72705 0.64133 0.64822 0.0
H479 H 0.71126 0.63246 0.60033 0.0
C480 C 0.6774 0.63054 0.72349 0.0
C481 C 0.69463 0.6747 0.73895 0.0
C482 C 0.67454 0.63114 0.696 0.0
C483 C 0.68775 0.6757 0.6832 0.0
C484 C 0.70527 0.72013 0.69855 0.0
C485 C 0.70942 0.71978 0.72626 0.0
C486 C 0.64017 0.68399 0.61355 0.0
C487 C 0.66093 0.66217 0.59824 0.0
C488 C 0.65069 0.69052 0.64102 0.0
C489 C 0.68147 0.6746 0.65392 0.0
C490 C 0.70296 0.65369 0.63875 0.0
C491 C 0.69333 0.6481 0.61129 0.0
H492 H 0.51284 1.06805 0.55395 0.0
H493 H 0.65219 0.19724 0.58436 0.0
H494 H 0.49305 1.04172 0.59816 0.0
H495 H 0.63128 0.17076 0.62945 0.0
H496 H 0.59487 1.07233 0.70339 0.0
H497 H 0.61972 0.10299 0.65958 0.0
H498 H 0.46853 1.06766 0.63618 0.0
H499 H 0.44379 1.03693 0.67973 0.0
C500 C 0.53933 0.09123 0.57009 0.0
C501 C 0.58416 0.13512 0.5655 0.0
C502 C 0.52765 1.07608 0.59558 0.0
C503 C 0.56022 0.10437 0.61737 0.0
C504 C 0.60548 0.14806 0.61299 0.0
C505 C 0.61735 0.16338 0.58723 0.0
C506 C 0.56701 1.07118 0.68884 0.0
C507 C 0.51721 1.05173 0.69493 0.0
C508 C 0.58134 0.08903 0.66383 0.0
C509 C 0.54613 0.08771 0.64439 0.0
C510 C 0.49643 1.06845 0.65057 0.0
C511 C 0.48213 1.05057 0.67549 0.0
H512 H 0.76181 0.60224 0.89178 0.0
H513 H 0.66914 0.66193 0.9128 0.0
H514 H 0.75128 0.56244 0.9339 0.0
H515 H 0.65848 0.62171 0.95527 0.0
H516 H 0.6625 0.55143 0.0338 0.0
H517 H 0.69978 0.61059 -0.00087 0.0
H518 H 0.66924 0.48854 0.94553 0.0
H519 H 0.63031 0.42932 0.9796 0.0
C520 C 0.74022 0.60791 0.90576 0.0
C521 C 0.71547 0.63433 0.89893 0.0
C522 C 0.73418 0.58504 0.92981 0.0
C523 C 0.70334 0.58822 0.94755 0.0
C524 C 0.68255 0.61878 0.94189 0.0
C525 C 0.68863 0.64182 0.91765 0.0
C526 C 0.66397 0.53724 0.01464 0.0
C527 C 0.6426 0.48545 0.00933 0.0
C528 C 0.68548 0.57118 -0.00511 0.0
C529 C 0.68709 0.55409 0.96969 0.0
C530 C 0.66893 0.50282 0.96492 0.0
C531 C 0.64677 0.46883 0.98449 0.0
H532 H 0.16523 0.71707 0.25084 0.0
H533 H 0.18567 0.59257 0.23268 0.0
H534 H 0.17672 0.70573 0.29811 0.0
H535 H 0.19841 0.58234 0.27907 0.0
H536 H 0.16859 0.53969 0.36256 0.0
H537 H 0.15223 0.55334 0.31661 0.0
H538 H 0.23875 0.71324 0.33262 0.0
H539 H 0.25388 0.6993 0.37875 0.0
C540 C 0.17245 0.68763 0.25691 0.0
C541 C 0.17391 0.65539 0.23806 0.0
C542 C 0.17914 0.68115 0.28392 0.0
C543 C 0.18773 0.64257 0.2924 0.0
C544 C 0.1904 0.61143 0.27337 0.0
C545 C 0.18338 0.61759 0.24666 0.0
C546 C 0.18414 0.57768 0.35618 0.0
C547 C 0.21266 0.61837 0.37413 0.0
C548 C 0.17486 0.58562 0.32989 0.0
C549 C 0.1945 0.63448 0.32085 0.0
C550 C 0.22252 0.67519 0.33895 0.0
C551 C 0.2314 0.6672 0.36533 0.0
loop_
_geom_bond_atom_site_label_1
_geom_bond_atom_site_label_2
_geom_bond_distance
_geom_bond_site_symmetry_2
_ccdc_geom_bond_type
Tb0 C10 2.825 . S
Tb0 O11 2.347 . S
Tb0 O14 2.366 . S
Tb0 O19 2.418 . S
Tb0 O20 2.384 . S
Tb0 O23 2.479 . S
Tb0 O24 2.471 . S
Eu1 O12 2.418 . S
Eu1 O13 2.384 . S
Eu1 O16 2.479 1_455 S
Eu1 O17 2.471 1_455 S
Eu1 O18 2.347 . S
Eu1 O21 2.366 1_455 S
Eu1 C31 2.825 1_455 S
C2 O18 1.259 . S
C2 O19 1.265 . S
C3 O20 1.255 1_655 S
C3 O21 1.265 . S
C4 C6 1.380 . S
C4 C7 1.374 . S
C4 C10 1.507 . S
C5 C6 1.384 . S
C5 C9 1.387 . S
C5 H32 0.930 . S
C6 C4 1.380 . S
C6 C5 1.384 . S
C6 H33 0.931 . S
C7 C4 1.374 . S
C7 C8 1.390 . S
C7 H34 0.930 . S
C8 C7 1.390 . S
C8 C9 1.391 . S
C8 H35 0.930 . S
C9 C5 1.387 . S
C9 C8 1.391 . S
C10 Tb0 2.825 . S
C10 C4 1.507 . S
C10 O23 1.238 . S
C10 O24 1.247 . S
O11 Tb0 2.347 . S
O11 C15 1.259 . S
O12 Eu1 2.418 . S
O12 C15 1.265 . S
O13 Eu1 2.384 . S
O13 C22 1.255 . S
O14 Tb0 2.366 . S
O14 C22 1.265 . S
C15 O11 1.259 . S
C15 O12 1.265 . S
O16 Eu1 2.479 1_655 S
O16 C31 1.238 . S
O17 Eu1 2.471 1_655 S
O17 C31 1.247 . S
O18 Eu1 2.347 . S
O18 C2 1.259 . S
O19 Tb0 2.418 . S
O19 C2 1.265 . S
O20 Tb0 2.384 . S
O20 C3 1.255 1_455 S
O21 Eu1 2.366 1_655 S
O21 C3 1.265 . S
C22 O13 1.255 . S
C22 O14 1.265 . S
O23 Tb0 2.479 . S
O23 C10 1.238 . S
O24 Tb0 2.471 . S
O24 C10 1.247 . S
C25 C28 1.380 . S
C25 C29 1.374 . S
C25 C31 1.507 . S
C26 C27 1.387 . S
C26 C30 1.391 . S
C27 C26 1.387 . S
C27 C28 1.384 . S
C27 H36 0.930 . S
C28 C25 1.380 . S
C28 C27 1.384 . S
C28 H37 0.931 . S
C29 C25 1.374 . S
C29 C30 1.390 . S
C29 H38 0.930 . S
C30 C26 1.391 . S
C30 C29 1.390 . S
C30 H39 0.930 . S
C31 Eu1 2.825 1_655 S
C31 O16 1.238 . S
C31 O17 1.247 . S
C31 C25 1.507 . S
H32 C5 0.930 . S
H33 C6 0.931 . S
H34 C7 0.930 . S
H35 C8 0.930 . S
H36 C27 0.930 . S
H37 C28 0.931 . S
H38 C29 0.930 . S
H39 C30 0.930 . S
Tb40 C50 2.825 . S
Tb40 O51 2.347 . S
Tb40 O54 2.366 . S
Tb40 O59 2.418 . S
Tb40 O60 2.384 . S
Tb40 O63 2.479 . S
Tb40 O64 2.471 . S
Eu41 O52 2.418 . S
Eu41 O53 2.384 . S
Eu41 O56 2.479 1_545 S
Eu41 O57 2.471 1_545 S
Eu41 O58 2.347 . S
Eu41 O61 2.366 1_545 S
Eu41 C71 2.825 1_545 S
C42 O58 1.259 . S
C42 O59 1.265 . S
C43 O60 1.255 1_565 S
C43 O61 1.265 . S
C44 C46 1.380 . S
C44 C47 1.374 . S
C44 C50 1.507 . S
C45 C46 1.384 . S
C45 C49 1.387 . S
C45 H72 0.930 . S
C46 C44 1.380 . S
C46 C45 1.384 . S
C46 H73 0.931 . S
C47 C44 1.374 . S
C47 C48 1.390 . S
C47 H74 0.930 . S
C48 C47 1.390 . S
C48 C49 1.391 . S
C48 H75 0.930 . S
C49 C45 1.387 . S
C49 C48 1.391 . S
C50 Tb40 2.825 . S
C50 C44 1.507 . S
C50 O63 1.238 . S
C50 O64 1.247 . S
O51 Tb40 2.347 . S
O51 C55 1.259 . S
O52 Eu41 2.418 . S
O52 C55 1.265 . S
O53 Eu41 2.384 . S
O53 C62 1.255 . S
O54 Tb40 2.366 . S
O54 C62 1.265 . S
C55 O51 1.259 . S
C55 O52 1.265 . S
O56 Eu41 2.479 1_565 S
O56 C71 1.238 . S
O57 Eu41 2.471 1_565 S
O57 C71 1.247 . S
O58 Eu41 2.347 . S
O58 C42 1.259 . S
O59 Tb40 2.418 . S
O59 C42 1.265 . S
O60 Tb40 2.384 . S
O60 C43 1.255 1_545 S
O61 Eu41 2.366 1_565 S
O61 C43 1.265 . S
C62 O53 1.255 . S
C62 O54 1.265 . S
O63 Tb40 2.479 . S
O63 C50 1.238 . S
O64 Tb40 2.471 . S
O64 C50 1.247 . S
C65 C68 1.380 . S
C65 C69 1.374 . S
C65 C71 1.507 . S
C66 C67 1.387 . S
C66 C70 1.391 . S
C67 C66 1.387 . S
C67 C68 1.384 . S
C67 H76 0.930 . S
C68 C65 1.380 . S
C68 C67 1.384 . S
C68 H77 0.931 . S
C69 C65 1.374 . S
C69 C70 1.390 . S
C69 H78 0.930 . S
C70 C66 1.391 . S
C70 C69 1.390 . S
C70 H79 0.930 . S
C71 Eu41 2.825 1_565 S
C71 O56 1.238 . S
C71 O57 1.247 . S
C71 C65 1.507 . S
H72 C45 0.930 . S
H73 C46 0.931 . S
H74 C47 0.930 . S
H75 C48 0.930 . S
H76 C67 0.930 . S
H77 C68 0.931 . S
H78 C69 0.930 . S
H79 C70 0.930 . S
Tb80 C90 2.825 . S
Tb80 O91 2.347 . S
Tb80 O94 2.366 . S
Tb80 O99 2.418 . S
Tb80 O100 2.384 . S
Tb80 O103 2.479 . S
Tb80 O104 2.471 . S
Eu81 O92 2.418 . S
Eu81 O93 2.384 . S
Eu81 O96 2.479 . S
Eu81 O97 2.471 . S
Eu81 O98 2.347 . S
Eu81 O101 2.366 . S
Eu81 C111 2.825 . S
C82 O98 1.259 . S
C82 O99 1.265 . S
C83 O100 1.255 . S
C83 O101 1.265 . S
C84 C86 1.380 . S
C84 C87 1.374 . S
C84 C90 1.507 . S
C85 C86 1.384 . S
C85 C89 1.387 . S
C85 H112 0.930 . S
C86 C84 1.380 . S
C86 C85 1.384 . S
C86 H113 0.931 . S
C87 C84 1.374 . S
C87 C88 1.390 . S
C87 H114 0.930 . S
C88 C87 1.390 . S
C88 C89 1.391 . S
C88 H115 0.930 . S
C89 C85 1.387 . S
C89 C88 1.391 . S
C90 Tb80 2.825 . S
C90 C84 1.507 . S
C90 O103 1.238 . S
C90 O104 1.247 . S
O91 Tb80 2.347 . S
O91 C95 1.259 . S
O92 Eu81 2.418 . S
O92 C95 1.265 . S
O93 Eu81 2.384 . S
O93 C102 1.255 . S
O94 Tb80 2.366 . S
O94 C102 1.265 . S
C95 O91 1.259 . S
C95 O92 1.265 . S
O96 Eu81 2.479 . S
O96 C111 1.238 . S
O97 Eu81 2.471 . S
O97 C111 1.247 . S
O98 Eu81 2.347 . S
O98 C82 1.259 . S
O99 Tb80 2.418 . S
O99 C82 1.265 . S
O100 Tb80 2.384 . S
O100 C83 1.255 . S
O101 Eu81 2.366 . S
O101 C83 1.265 . S
C102 O93 1.255 . S
C102 O94 1.265 . S
O103 Tb80 2.479 . S
O103 C90 1.238 . S
O104 Tb80 2.471 . S
O104 C90 1.247 . S
C105 C108 1.380 . S
C105 C109 1.374 . S
C105 C111 1.507 . S
C106 C107 1.387 . S
C106 C110 1.391 . S
C107 C106 1.387 . S
C107 C108 1.384 . S
C107 H116 0.930 . S
C108 C105 1.380 . S
C108 C107 1.384 . S
C108 H117 0.931 . S
C109 C105 1.374 . S
C109 C110 1.390 . S
C109 H118 0.930 . S
C110 C106 1.391 . S
C110 C109 1.390 . S
C110 H119 0.930 . S
C111 Eu81 2.825 . S
C111 O96 1.238 . S
C111 O97 1.247 . S
C111 C105 1.507 . S
H112 C85 0.930 . S
H113 C86 0.931 . S
H114 C87 0.930 . S
H115 C88 0.930 . S
H116 C107 0.930 . S
H117 C108 0.931 . S
H118 C109 0.930 . S
H119 C110 0.930 . S
H120 C125 0.930 . S
H121 C128 0.930 . S
H122 C130 0.930 1_565 S
H123 C124 1.016 . S
C124 H123 1.016 . S
C124 N131 1.286 . S
C125 H120 0.930 . S
C125 C126 1.397 1_545 S
C125 C127 1.361 . S
C126 C125 1.397 1_565 S
C126 C130 1.391 1_565 S
C127 C125 1.361 . S
C127 C128 1.393 . S
C127 N131 1.413 . S
C128 H121 0.930 . S
C128 C127 1.393 . S
C128 C129 1.399 . S
C129 C128 1.399 . S
C129 C130 1.381 . S
C130 H122 0.930 1_545 S
C130 C126 1.391 1_545 S
C130 C129 1.381 . S
N131 C124 1.286 . S
N131 C127 1.413 . S
H132 C137 0.930 . S
H133 C140 0.930 . S
H134 C142 0.930 . S
H135 C136 1.016 . S
C136 H135 1.016 . S
C136 N143 1.286 . S
C137 H132 0.930 . S
C137 C138 1.397 . S
C137 C139 1.361 . S
C138 C137 1.397 . S
C138 C142 1.390 . S
C139 C137 1.361 . S
C139 C140 1.393 . S
C139 N143 1.413 . S
C140 H133 0.930 . S
C140 C139 1.393 . S
C140 C141 1.399 . S
C141 C140 1.399 . S
C141 C142 1.381 . S
C142 H134 0.930 . S
C142 C138 1.390 . S
C142 C141 1.381 . S
N143 C136 1.286 . S
N143 C139 1.413 . S
H144 C149 0.930 . S
H145 C152 0.930 . S
H146 C154 0.930 . S
H147 C148 1.016 . S
C148 H147 1.016 . S
C148 N155 1.286 . S
C149 H144 0.930 . S
C149 C150 1.397 . S
C149 C151 1.361 1_655 S
C150 C149 1.397 . S
C150 C154 1.390 . S
C151 C149 1.361 1_455 S
C151 C152 1.393 . S
C151 N155 1.413 . S
C152 H145 0.930 . S
C152 C151 1.393 . S
C152 C153 1.399 . S
C153 C152 1.399 . S
C153 C154 1.381 1_455 S
C154 H146 0.930 . S
C154 C150 1.390 . S
C154 C153 1.381 1_655 S
N155 C148 1.286 . S
N155 C151 1.413 . S
H156 C161 0.930 . S
H157 C164 0.930 . S
H158 C166 0.930 . S
H159 C160 1.016 . S
C160 H159 1.016 . S
C160 N167 1.286 . S
C161 H156 0.930 . S
C161 C162 1.397 . S
C161 C163 1.361 . S
C162 C161 1.397 . S
C162 C166 1.390 . S
C163 C161 1.361 . S
C163 C164 1.393 1_455 S
C163 N167 1.413 1_455 S
C164 H157 0.930 . S
C164 C163 1.393 1_655 S
C164 C165 1.399 1_655 S
C165 C164 1.399 1_455 S
C165 C166 1.381 . S
C166 H158 0.930 . S
C166 C162 1.390 . S
C166 C165 1.381 . S
N167 C160 1.286 . S
N167 C163 1.413 1_655 S
H168 C173 0.930 . S
H169 C176 0.930 . S
H170 C178 0.930 . S
H171 C172 1.016 . S
C172 H171 1.016 . S
C172 N179 1.286 . S
C173 H168 0.930 . S
C173 C174 1.397 . S
C173 C175 1.361 . S
C174 C173 1.397 . S
C174 C178 1.390 . S
C175 C173 1.361 . S
C175 C176 1.393 1_545 S
C175 N179 1.413 1_545 S
C176 H169 0.930 . S
C176 C175 1.393 1_565 S
C176 C177 1.399 1_565 S
C177 C176 1.399 1_545 S
C177 C178 1.381 . S
C178 H170 0.930 . S
C178 C174 1.390 . S
C178 C177 1.381 . S
N179 C172 1.286 . S
N179 C175 1.413 1_565 S
H180 C185 0.930 . S
H181 C188 0.930 . S
H182 C190 0.930 . S
H183 C184 1.016 . S
C184 H183 1.016 . S
C184 N191 1.286 . S
C185 H180 0.930 . S
C185 C186 1.397 . S
C185 C187 1.361 . S
C186 C185 1.397 . S
C186 C190 1.390 . S
C187 C185 1.361 . S
C187 C188 1.393 . S
C187 N191 1.413 . S
C188 H181 0.930 . S
C188 C187 1.393 . S
C188 C189 1.399 . S
C189 C188 1.399 . S
C189 C190 1.381 . S
C190 H182 0.930 . S
C190 C186 1.390 . S
C190 C189 1.381 . S
N191 C184 1.286 . S
N191 C187 1.413 . S
H192 C200 0.950 . S
H193 C205 0.950 . S
H194 C202 0.950 . S
H195 C204 0.950 . S
H196 C206 0.950 . S
H197 C208 0.950 . S
H198 C210 0.950 . S
H199 C211 0.950 . S
C200 H192 0.950 . S
C200 C201 1.386 . S
C200 C202 1.391 . S
C201 C200 1.386 . S
C201 C205 1.393 . S
C202 H194 0.950 . S
C202 C200 1.391 . S
C202 C203 1.400 . S
C203 C202 1.400 . S
C203 C204 1.398 . S
C203 C209 1.491 . S
C204 H195 0.950 . S
C204 C203 1.398 . S
C204 C205 1.391 . S
C205 H193 0.950 . S
C205 C201 1.393 . S
C205 C204 1.391 . S
C206 H196 0.950 . S
C206 C207 1.386 . S
C206 C208 1.391 . S
C207 C206 1.386 . S
C207 C211 1.393 . S
C208 H197 0.950 . S
C208 C206 1.391 . S
C208 C209 1.400 . S
C209 C203 1.491 . S
C209 C208 1.400 . S
C209 C210 1.398 . S
C210 H198 0.950 . S
C210 C209 1.398 . S
C210 C211 1.391 . S
C211 H199 0.950 . S
C211 C207 1.393 . S
C211 C210 1.391 . S
H212 C220 0.950 . S
H213 C225 0.950 . S
H214 C222 0.950 . S
H215 C224 0.950 . S
H216 C226 0.950 . S
H217 C228 0.950 . S
H218 C230 0.950 . S
H219 C231 0.950 . S
C220 H212 0.950 . S
C220 C221 1.386 . S
C220 C222 1.391 . S
C221 C220 1.386 . S
C221 C225 1.393 . S
C222 H214 0.950 . S
C222 C220 1.391 . S
C222 C223 1.400 . S
C223 C222 1.400 . S
C223 C224 1.398 . S
C223 C229 1.491 . S
C224 H215 0.950 . S
C224 C223 1.398 . S
C224 C225 1.391 . S
C225 H213 0.950 . S
C225 C221 1.393 . S
C225 C224 1.391 . S
C226 H216 0.950 . S
C226 C227 1.386 . S
C226 C228 1.391 . S
C227 C226 1.386 . S
C227 C231 1.393 . S
C228 H217 0.950 . S
C228 C226 1.391 . S
C228 C229 1.400 . S
C229 C223 1.491 . S
C229 C228 1.400 . S
C229 C230 1.398 . S
C230 H218 0.950 . S
C230 C229 1.398 . S
C230 C231 1.391 . S
C231 H219 0.950 . S
C231 C227 1.393 . S
C231 C230 1.391 . S
H232 C240 0.950 . S
H233 C245 0.950 . S
H234 C242 0.950 . S
H235 C244 0.950 . S
H236 C246 0.950 . S
H237 C248 0.950 . S
H238 C250 0.950 . S
H239 C251 0.950 . S
C240 H232 0.950 . S
C240 C241 1.386 . S
C240 C242 1.391 . S
C241 C240 1.386 . S
C241 C245 1.393 . S
C242 H234 0.950 . S
C242 C240 1.391 . S
C242 C243 1.400 . S
C243 C242 1.400 . S
C243 C244 1.398 . S
C243 C249 1.491 . S
C244 H235 0.950 . S
C244 C243 1.398 . S
C244 C245 1.391 . S
C245 H233 0.950 . S
C245 C241 1.393 . S
C245 C244 1.391 . S
C246 H236 0.950 . S
C246 C247 1.386 . S
C246 C248 1.391 . S
C247 C246 1.386 . S
C247 C251 1.393 . S
C248 H237 0.950 . S
C248 C246 1.391 . S
C248 C249 1.400 . S
C249 C243 1.491 . S
C249 C248 1.400 . S
C249 C250 1.398 . S
C250 H238 0.950 . S
C250 C249 1.398 . S
C250 C251 1.391 . S
C251 H239 0.950 . S
C251 C247 1.393 . S
C251 C250 1.391 . S
H252 C260 0.950 . S
H253 C265 0.950 . S
H254 C262 0.950 . S
H255 C264 0.950 . S
H256 C266 0.950 . S
H257 C268 0.950 . S
H258 C270 0.950 . S
H259 C271 0.950 . S
C260 H252 0.950 . S
C260 C261 1.386 . S
C260 C262 1.391 . S
C261 C260 1.386 . S
C261 C265 1.393 . S
C262 H254 0.950 . S
C262 C260 1.391 . S
C262 C263 1.400 . S
C263 C262 1.400 . S
C263 C264 1.398 . S
C263 C269 1.491 . S
C264 H255 0.950 . S
C264 C263 1.398 . S
C264 C265 1.391 . S
C265 H253 0.950 . S
C265 C261 1.393 . S
C265 C264 1.391 . S
C266 H256 0.950 . S
C266 C267 1.386 . S
C266 C268 1.391 . S
C267 C266 1.386 . S
C267 C271 1.393 . S
C268 H257 0.950 . S
C268 C266 1.391 . S
C268 C269 1.400 . S
C269 C263 1.491 . S
C269 C268 1.400 . S
C269 C270 1.398 . S
C270 H258 0.950 . S
C270 C269 1.398 . S
C270 C271 1.391 . S
C271 H259 0.950 . S
C271 C267 1.393 . S
C271 C270 1.391 . S
H272 C280 0.950 . S
H273 C285 0.950 . S
H274 C282 0.950 . S
H275 C284 0.950 . S
H276 C286 0.950 . S
H277 C288 0.950 . S
H278 C290 0.950 . S
H279 C291 0.950 . S
C280 H272 0.950 . S
C280 C281 1.386 . S
C280 C282 1.391 . S
C281 C280 1.386 . S
C281 C285 1.393 . S
C282 H274 0.950 . S
C282 C280 1.391 . S
C282 C283 1.400 . S
C283 C282 1.400 . S
C283 C284 1.398 . S
C283 C289 1.491 . S
C284 H275 0.950 . S
C284 C283 1.398 . S
C284 C285 1.391 . S
C285 H273 0.950 . S
C285 C281 1.393 . S
C285 C284 1.391 . S
C286 H276 0.950 . S
C286 C287 1.386 . S
C286 C288 1.391 . S
C287 C286 1.386 . S
C287 C291 1.393 . S
C288 H277 0.950 . S
C288 C286 1.391 . S
C288 C289 1.400 . S
C289 C283 1.491 . S
C289 C288 1.400 . S
C289 C290 1.398 . S
C290 H278 0.950 . S
C290 C289 1.398 . S
C290 C291 1.391 . S
C291 H279 0.950 . S
C291 C287 1.393 . S
C291 C290 1.391 . S
H292 C300 0.950 . S
H293 C305 0.950 . S
H294 C302 0.950 . S
H295 C304 0.950 . S
H296 C306 0.950 . S
H297 C308 0.950 . S
H298 C310 0.950 . S
H299 C311 0.950 . S
C300 H292 0.950 . S
C300 C301 1.386 . S
C300 C302 1.391 . S
C301 C300 1.386 . S
C301 C305 1.393 . S
C302 H294 0.950 . S
C302 C300 1.391 . S
C302 C303 1.400 . S
C303 C302 1.400 . S
C303 C304 1.398 . S
C303 C309 1.491 . S
C304 H295 0.950 . S
C304 C303 1.398 . S
C304 C305 1.391 . S
C305 H293 0.950 . S
C305 C301 1.393 . S
C305 C304 1.391 . S
C306 H296 0.950 . S
C306 C307 1.386 . S
C306 C308 1.391 . S
C307 C306 1.386 . S
C307 C311 1.393 . S
C308 H297 0.950 . S
C308 C306 1.391 . S
C308 C309 1.400 . S
C309 C303 1.491 . S
C309 C308 1.400 . S
C309 C310 1.398 . S
C310 H298 0.950 . S
C310 C309 1.398 . S
C310 C311 1.391 . S
C311 H299 0.950 . S
C311 C307 1.393 . S
C311 C310 1.391 . S
H312 C320 0.950 . S
H313 C325 0.950 . S
H314 C322 0.950 . S
H315 C324 0.950 . S
H316 C326 0.950 . S
H317 C328 0.950 . S
H318 C330 0.950 . S
H319 C331 0.950 . S
C320 H312 0.950 . S
C320 C321 1.386 . S
C320 C322 1.391 . S
C321 C320 1.386 . S
C321 C325 1.393 . S
C322 H314 0.950 . S
C322 C320 1.391 . S
C322 C323 1.400 . S
C323 C322 1.400 . S
C323 C324 1.398 . S
C323 C329 1.491 . S
C324 H315 0.950 . S
C324 C323 1.398 . S
C324 C325 1.391 . S
C325 H313 0.950 . S
C325 C321 1.393 . S
C325 C324 1.391 . S
C326 H316 0.950 . S
C326 C327 1.386 . S
C326 C328 1.391 . S
C327 C326 1.386 . S
C327 C331 1.393 . S
C328 H317 0.950 . S
C328 C326 1.391 . S
C328 C329 1.400 . S
C329 C323 1.491 . S
C329 C328 1.400 . S
C329 C330 1.398 . S
C330 H318 0.950 . S
C330 C329 1.398 . S
C330 C331 1.391 . S
C331 H319 0.950 . S
C331 C327 1.393 . S
C331 C330 1.391 . S
H332 C340 0.950 . S
H333 C345 0.950 . S
H334 C342 0.950 . S
H335 C344 0.950 . S
H336 C346 0.950 . S
H337 C348 0.950 . S
H338 C350 0.950 . S
H339 C351 0.950 . S
C340 H332 0.950 . S
C340 C341 1.386 . S
C340 C342 1.391 . S
C341 C340 1.386 . S
C341 C345 1.393 . S
C342 H334 0.950 . S
C342 C340 1.391 . S
C342 C343 1.400 . S
C343 C342 1.400 . S
C343 C344 1.398 . S
C343 C349 1.491 . S
C344 H335 0.950 . S
C344 C343 1.398 . S
C344 C345 1.391 . S
C345 H333 0.950 . S
C345 C341 1.393 . S
C345 C344 1.391 . S
C346 H336 0.950 . S
C346 C347 1.386 . S
C346 C348 1.391 . S
C347 C346 1.386 . S
C347 C351 1.393 . S
C348 H337 0.950 . S
C348 C346 1.391 . S
C348 C349 1.400 . S
C349 C343 1.491 . S
C349 C348 1.400 . S
C349 C350 1.398 . S
C350 H338 0.950 . S
C350 C349 1.398 . S
C350 C351 1.391 . S
C351 H339 0.950 . S
C351 C347 1.393 . S
C351 C350 1.391 . S
H352 C360 0.950 . S
H353 C365 0.950 . S
H354 C362 0.950 . S
H355 C364 0.950 . S
H356 C366 0.950 . S
H357 C368 0.950 . S
H358 C370 0.950 . S
H359 C371 0.950 . S
C360 H352 0.950 . S
C360 C361 1.386 . S
C360 C362 1.391 . S
C361 C360 1.386 . S
C361 C365 1.393 . S
C362 H354 0.950 . S
C362 C360 1.391 . S
C362 C363 1.400 . S
C363 C362 1.400 . S
C363 C364 1.398 . S
C363 C369 1.491 . S
C364 H355 0.950 . S
C364 C363 1.398 . S
C364 C365 1.391 . S
C365 H353 0.950 . S
C365 C361 1.393 . S
C365 C364 1.391 . S
C366 H356 0.950 . S
C366 C367 1.386 . S
C366 C368 1.391 . S
C367 C366 1.386 . S
C367 C371 1.393 . S
C368 H357 0.950 . S
C368 C366 1.391 . S
C368 C369 1.400 . S
C369 C363 1.491 . S
C369 C368 1.400 . S
C369 C370 1.398 . S
C370 H358 0.950 . S
C370 C369 1.398 . S
C370 C371 1.391 . S
C371 H359 0.950 . S
C371 C367 1.393 . S
C371 C370 1.391 . S
H372 C380 0.950 . S
H373 C385 0.950 . S
H374 C382 0.950 . S
H375 C384 0.950 . S
H376 C386 0.950 . S
H377 C388 0.950 . S
H378 C390 0.950 . S
H379 C391 0.950 . S
C380 H372 0.950 . S
C380 C381 1.386 . S
C380 C382 1.391 . S
C381 C380 1.386 . S
C381 C385 1.393 . S
C382 H374 0.950 . S
C382 C380 1.391 . S
C382 C383 1.400 . S
C383 C382 1.400 . S
C383 C384 1.398 . S
C383 C389 1.491 . S
C384 H375 0.950 . S
C384 C383 1.398 . S
C384 C385 1.391 . S
C385 H373 0.950 . S
C385 C381 1.393 . S
C385 C384 1.391 . S
C386 H376 0.950 . S
C386 C387 1.386 . S
C386 C388 1.391 . S
C387 C386 1.386 . S
C387 C391 1.393 . S
C388 H377 0.950 . S
C388 C386 1.391 . S
C388 C389 1.400 . S
C389 C383 1.491 . S
C389 C388 1.400 . S
C389 C390 1.398 . S
C390 H378 0.950 . S
C390 C389 1.398 . S
C390 C391 1.391 . S
C391 H379 0.950 . S
C391 C387 1.393 . S
C391 C390 1.391 . S
H392 C400 0.950 . S
H393 C405 0.950 . S
H394 C402 0.950 . S
H395 C404 0.950 . S
H396 C406 0.950 . S
H397 C408 0.950 . S
H398 C410 0.950 . S
H399 C411 0.950 . S
C400 H392 0.950 . S
C400 C401 1.386 . S
C400 C402 1.391 . S
C401 C400 1.386 . S
C401 C405 1.393 . S
C402 H394 0.950 . S
C402 C400 1.391 . S
C402 C403 1.400 . S
C403 C402 1.400 . S
C403 C404 1.398 . S
C403 C409 1.491 . S
C404 H395 0.950 . S
C404 C403 1.398 . S
C404 C405 1.391 . S
C405 H393 0.950 . S
C405 C401 1.393 . S
C405 C404 1.391 . S
C406 H396 0.950 . S
C406 C407 1.386 . S
C406 C408 1.391 . S
C407 C406 1.386 . S
C407 C411 1.393 . S
C408 H397 0.950 . S
C408 C406 1.391 . S
C408 C409 1.400 . S
C409 C403 1.491 . S
C409 C408 1.400 . S
C409 C410 1.398 . S
C410 H398 0.950 . S
C410 C409 1.398 . S
C410 C411 1.391 . S
C411 H399 0.950 . S
C411 C407 1.393 . S
C411 C410 1.391 . S
H412 C420 0.950 . S
H413 C425 0.950 . S
H414 C422 0.950 . S
H415 C424 0.950 . S
H416 C426 0.950 . S
H417 C428 0.950 . S
H418 C430 0.950 . S
H419 C431 0.950 . S
C420 H412 0.950 . S
C420 C421 1.386 . S
C420 C422 1.391 . S
C421 C420 1.386 . S
C421 C425 1.393 . S
C422 H414 0.950 . S
C422 C420 1.391 . S
C422 C423 1.400 . S
C423 C422 1.400 . S
C423 C424 1.398 . S
C423 C429 1.491 . S
C424 H415 0.950 . S
C424 C423 1.398 . S
C424 C425 1.391 . S
C425 H413 0.950 . S
C425 C421 1.393 . S
C425 C424 1.391 . S
C426 H416 0.950 . S
C426 C427 1.386 . S
C426 C428 1.391 . S
C427 C426 1.386 . S
C427 C431 1.393 . S
C428 H417 0.950 . S
C428 C426 1.391 . S
C428 C429 1.400 . S
C429 C423 1.491 . S
C429 C428 1.400 . S
C429 C430 1.398 . S
C430 H418 0.950 . S
C430 C429 1.398 . S
C430 C431 1.391 . S
C431 H419 0.950 . S
C431 C427 1.393 . S
C431 C430 1.391 . S
H432 C440 0.950 . S
H433 C445 0.950 . S
H434 C442 0.950 . S
H435 C444 0.950 . S
H436 C446 0.950 . S
H437 C448 0.950 . S
H438 C450 0.950 . S
H439 C451 0.950 . S
C440 H432 0.950 . S
C440 C441 1.386 . S
C440 C442 1.391 . S
C441 C440 1.386 . S
C441 C445 1.393 . S
C442 H434 0.950 . S
C442 C440 1.391 . S
C442 C443 1.400 . S
C443 C442 1.400 . S
C443 C444 1.398 . S
C443 C449 1.491 1_554 S
C444 H435 0.950 . S
C444 C443 1.398 . S
C444 C445 1.391 . S
C445 H433 0.950 . S
C445 C441 1.393 . S
C445 C444 1.391 . S
C446 H436 0.950 . S
C446 C447 1.386 . S
C446 C448 1.391 . S
C447 C446 1.386 . S
C447 C451 1.393 . S
C448 H437 0.950 . S
C448 C446 1.391 . S
C448 C449 1.400 . S
C449 C443 1.491 1_556 S
C449 C448 1.400 . S
C449 C450 1.398 . S
C450 H438 0.950 . S
C450 C449 1.398 . S
C450 C451 1.391 . S
C451 H439 0.950 . S
C451 C447 1.393 . S
C451 C450 1.391 . S
H452 C460 0.950 . S
H453 C465 0.950 . S
H454 C462 0.950 . S
H455 C464 0.950 . S
H456 C466 0.950 . S
H457 C468 0.950 . S
H458 C470 0.950 . S
H459 C471 0.950 . S
C460 H452 0.950 . S
C460 C461 1.386 . S
C460 C462 1.391 . S
C461 C460 1.386 . S
C461 C465 1.393 . S
C462 H454 0.950 . S
C462 C460 1.391 . S
C462 C463 1.400 . S
C463 C462 1.400 . S
C463 C464 1.398 . S
C463 C469 1.491 . S
C464 H455 0.950 . S
C464 C463 1.398 . S
C464 C465 1.391 . S
C465 H453 0.950 . S
C465 C461 1.393 . S
C465 C464 1.391 . S
C466 H456 0.950 . S
C466 C467 1.386 . S
C466 C468 1.391 . S
C467 C466 1.386 . S
C467 C471 1.393 . S
C468 H457 0.950 . S
C468 C466 1.391 . S
C468 C469 1.400 . S
C469 C463 1.491 . S
C469 C468 1.400 . S
C469 C470 1.398 . S
C470 H458 0.950 . S
C470 C469 1.398 . S
C470 C471 1.391 . S
C471 H459 0.950 . S
C471 C467 1.393 . S
C471 C470 1.391 . S
H472 C480 0.950 . S
H473 C485 0.950 . S
H474 C482 0.950 . S
H475 C484 0.950 . S
H476 C486 0.950 . S
H477 C488 0.950 . S
H478 C490 0.950 . S
H479 C491 0.950 . S
C480 H472 0.950 . S
C480 C481 1.386 . S
C480 C482 1.391 . S
C481 C480 1.386 . S
C481 C485 1.393 . S
C482 H474 0.950 . S
C482 C480 1.391 . S
C482 C483 1.400 . S
C483 C482 1.400 . S
C483 C484 1.398 . S
C483 C489 1.491 . S
C484 H475 0.950 . S
C484 C483 1.398 . S
C484 C485 1.391 . S
C485 H473 0.950 . S
C485 C481 1.393 . S
C485 C484 1.391 . S
C486 H476 0.950 . S
C486 C487 1.386 . S
C486 C488 1.391 . S
C487 C486 1.386 . S
C487 C491 1.393 . S
C488 H477 0.950 . S
C488 C486 1.391 . S
C488 C489 1.400 . S
C489 C483 1.491 . S
C489 C488 1.400 . S
C489 C490 1.398 . S
C490 H478 0.950 . S
C490 C489 1.398 . S
C490 C491 1.391 . S
C491 H479 0.950 . S
C491 C487 1.393 . S
C491 C490 1.391 . S
H492 C500 0.950 1_565 S
H493 C505 0.950 . S
H494 C502 0.950 1_565 S
H495 C504 0.950 . S
H496 C506 0.950 . S
H497 C508 0.950 . S
H498 C510 0.950 . S
H499 C511 0.950 . S
C500 H492 0.950 1_545 S
C500 C501 1.386 . S
C500 C502 1.391 . S
C501 C500 1.386 . S
C501 C505 1.393 . S
C502 H494 0.950 1_545 S
C502 C500 1.391 . S
C502 C503 1.400 . S
C503 C502 1.400 . S
C503 C504 1.398 . S
C503 C509 1.491 . S
C504 H495 0.950 . S
C504 C503 1.398 . S
C504 C505 1.391 . S
C505 H493 0.950 . S
C505 C501 1.393 . S
C505 C504 1.391 . S
C506 H496 0.950 . S
C506 C507 1.386 . S
C506 C508 1.391 . S
C507 C506 1.386 . S
C507 C511 1.393 1_545 S
C508 H497 0.950 . S
C508 C506 1.391 . S
C508 C509 1.400 . S
C509 C503 1.491 . S
C509 C508 1.400 . S
C509 C510 1.398 1_545 S
C510 H498 0.950 . S
C510 C509 1.398 1_565 S
C510 C511 1.391 . S
C511 H499 0.950 . S
C511 C507 1.393 1_565 S
C511 C510 1.391 . S
H512 C520 0.950 . S
H513 C525 0.950 . S
H514 C522 0.950 . S
H515 C524 0.950 . S
H516 C526 0.950 . S
H517 C528 0.950 1_556 S
H518 C530 0.950 1_556 S
H519 C531 0.950 . S
C520 H512 0.950 . S
C520 C521 1.386 . S
C520 C522 1.391 . S
C521 C520 1.386 . S
C521 C525 1.393 . S
C522 H514 0.950 . S
C522 C520 1.391 . S
C522 C523 1.400 . S
C523 C522 1.400 . S
C523 C524 1.398 . S
C523 C529 1.491 . S
C524 H515 0.950 . S
C524 C523 1.398 . S
C524 C525 1.391 . S
C525 H513 0.950 . S
C525 C521 1.393 . S
C525 C524 1.391 . S
C526 H516 0.950 . S
C526 C527 1.386 . S
C526 C528 1.391 . S
C527 C526 1.386 . S
C527 C531 1.393 . S
C528 H517 0.950 1_554 S
C528 C526 1.391 . S
C528 C529 1.400 1_554 S
C529 C523 1.491 . S
C529 C528 1.400 1_556 S
C529 C530 1.398 1_556 S
C530 H518 0.950 1_554 S
C530 C529 1.398 1_554 S
C530 C531 1.391 . S
C531 H519 0.950 . S
C531 C527 1.393 . S
C531 C530 1.391 . S
H532 C540 0.950 . S
H533 C545 0.950 . S
H534 C542 0.950 . S
H535 C544 0.950 1_655 S
H536 C546 0.943 1_655 S
H537 C548 0.950 1_655 S
H538 C550 0.950 . S
H539 C551 0.950 . S
C540 H532 0.950 . S
C540 C541 1.386 . S
C540 C542 1.391 . S
C541 C540 1.386 . S
C541 C545 1.393 . S
C542 H534 0.950 . S
C542 C540 1.391 . S
C542 C543 1.400 . S
C543 C542 1.400 . S
C543 C544 1.398 . S
C543 C549 1.491 . S
C544 H535 0.950 1_455 S
C544 C543 1.398 . S
C544 C545 1.391 . S
C545 H533 0.950 . S
C545 C541 1.393 . S
C545 C544 1.391 . S
C546 H536 0.943 1_455 S
C546 C547 1.389 . S
C546 C548 1.395 . S
C547 C546 1.389 . S
C547 C551 1.393 . S
C548 H537 0.950 1_455 S
C548 C546 1.395 . S
C548 C549 1.400 . S
C549 C543 1.491 . S
C549 C548 1.400 . S
C549 C550 1.398 . S
C550 H538 0.950 . S
C550 C549 1.398 . S
C550 C551 1.391 . S
C551 H539 0.950 . S
C551 C547 1.393 . S
C551 C550 1.391 . S
C201 C9 0.730 . S
C207 C186 0.710 . S
C221 C49 0.455 . S
C227 C160 0.410 . S
C241 C89 0.376 . S
C247 C172 0.343 . S
C261 C26 0.358 . S
C267 C184 0.226 . S
C287 C162 0.181 . S
C281 C66 0.318 . S
C307 C174 0.192 . S
C301 C106 0.371 . S
C321 C43 3.041 . S
C327 C136 2.958 . S
C341 C83 3.324 . S
C347 C150 3.301 . S
C361 C22 3.033 . S
C367 C126 2.985 . S
C387 C138 2.979 . S
C381 C62 3.032 . S
C407 C148 2.668 . S
C401 C102 2.778 . S
C421 C3 3.038 . S
C427 C124 2.964 . S
C447 C153 1.776 . S
C441 C15 1.718 . S
C461 C55 1.737 . S
C467 C129 1.764 . S
C481 C95 1.717 . S
C487 C141 1.742 . S
C507 C177 1.234 . S
C501 C42 1.192 . S
C527 C189 1.256 . S
C521 C82 1.214 . S
C541 C2 1.206 . S
C547 C165 1.212 . S
