# Generated by pormake.
# Topology sqc, (4,8)-cn, num edge types: 1
# Building blocks:
#     Node 0, Type 0, BuildingBlock: KUFVIS_clean_linker_0, # of connection points: 4
#     Node 1, Type 0, BuildingBlock: KUFVIS_clean_linker_0, # of connection points: 4
#     Node 2, Type 0, BuildingBlock: KUFVIS_clean_linker_0, # of connection points: 4
#     Node 3, Type 0, BuildingBlock: KUFVIS_clean_linker_0, # of connection points: 4
#     Node 4, Type 0, BuildingBlock: KUFVIS_clean_linker_0, # of connection points: 4
#     Node 5, Type 0, BuildingBlock: KUFVIS_clean_linker_0, # of connection points: 4
#     Node 6, Type 0, BuildingBlock: KUFVIS_clean_linker_0, # of connection points: 4
#     Node 7, Type 0, BuildingBlock: KUFVIS_clean_linker_0, # of connection points: 4
#     Node 8, Type 1, BuildingBlock: VETTIZ_charged_sbu_0, # of connection points: 8
#     Node 9, Type 1, BuildingBlock: VETTIZ_charged_sbu_0, # of connection points: 8
#     Node 10, Type 1, BuildingBlock: VETTIZ_charged_sbu_0, # of connection points: 8
#     Node 11, Type 1, BuildingBlock: VETTIZ_charged_sbu_0, # of connection points: 8
#     Edge 12, Type (0, 1), BuildingBlock: KIFKEQ_clean_linker_1, # of connection points: 2
#     Edge 13, Type (0, 1), BuildingBlock: KIFKEQ_clean_linker_1, # of connection points: 2
#     Edge 14, Type (0, 1), BuildingBlock: KIFKEQ_clean_linker_1, # of connection points: 2
#     Edge 15, Type (0, 1), BuildingBlock: KIFKEQ_clean_linker_1, # of connection points: 2
#     Edge 16, Type (0, 1), BuildingBlock: KIFKEQ_clean_linker_1, # of connection points: 2
#     Edge 17, Type (0, 1), BuildingBlock: KIFKEQ_clean_linker_1, # of connection points: 2
#     Edge 18, Type (0, 1), BuildingBlock: KIFKEQ_clean_linker_1, # of connection points: 2
#     Edge 19, Type (0, 1), BuildingBlock: KIFKEQ_clean_linker_1, # of connection points: 2
#     Edge 20, Type (0, 1), BuildingBlock: KIFKEQ_clean_linker_1, # of connection points: 2
#     Edge 21, Type (0, 1), BuildingBlock: KIFKEQ_clean_linker_1, # of connection points: 2
#     Edge 22, Type (0, 1), BuildingBlock: KIFKEQ_clean_linker_1, # of connection points: 2
#     Edge 23, Type (0, 1), BuildingBlock: KIFKEQ_clean_linker_1, # of connection points: 2
#     Edge 24, Type (0, 1), BuildingBlock: KIFKEQ_clean_linker_1, # of connection points: 2
#     Edge 25, Type (0, 1), BuildingBlock: KIFKEQ_clean_linker_1, # of connection points: 2
#     Edge 26, Type (0, 1), BuildingBlock: KIFKEQ_clean_linker_1, # of connection points: 2
#     Edge 27, Type (0, 1), BuildingBlock: KIFKEQ_clean_linker_1, # of connection points: 2
#     Edge 28, Type (0, 1), BuildingBlock: KIFKEQ_clean_linker_1, # of connection points: 2
#     Edge 29, Type (0, 1), BuildingBlock: KIFKEQ_clean_linker_1, # of connection points: 2
#     Edge 30, Type (0, 1), BuildingBlock: KIFKEQ_clean_linker_1, # of connection points: 2
#     Edge 31, Type (0, 1), BuildingBlock: KIFKEQ_clean_linker_1, # of connection points: 2
#     Edge 32, Type (0, 1), BuildingBlock: KIFKEQ_clean_linker_1, # of connection points: 2
#     Edge 33, Type (0, 1), BuildingBlock: KIFKEQ_clean_linker_1, # of connection points: 2
#     Edge 34, Type (0, 1), BuildingBlock: KIFKEQ_clean_linker_1, # of connection points: 2
#     Edge 35, Type (0, 1), BuildingBlock: KIFKEQ_clean_linker_1, # of connection points: 2
#     Edge 36, Type (0, 1), BuildingBlock: KIFKEQ_clean_linker_1, # of connection points: 2
#     Edge 37, Type (0, 1), BuildingBlock: KIFKEQ_clean_linker_1, # of connection points: 2
#     Edge 38, Type (0, 1), BuildingBlock: KIFKEQ_clean_linker_1, # of connection points: 2
#     Edge 39, Type (0, 1), BuildingBlock: KIFKEQ_clean_linker_1, # of connection points: 2
#     Edge 40, Type (0, 1), BuildingBlock: KIFKEQ_clean_linker_1, # of connection points: 2
#     Edge 41, Type (0, 1), BuildingBlock: KIFKEQ_clean_linker_1, # of connection points: 2
#     Edge 42, Type (0, 1), BuildingBlock: KIFKEQ_clean_linker_1, # of connection points: 2
#     Edge 43, Type (0, 1), BuildingBlock: KIFKEQ_clean_linker_1, # of connection points: 2
# Relax obj value: 0.164
# Max RMSD: 0.278
# Mean RMSD: 0.218
data_MOF--net-sqc--node1-VETTIZ_charged_sbu_0--node2-KUFVIS_clean_linker_0--edge1-KIFKEQ_clean_linker_1
_symmetry_space_group_name_H-M    P1
_symmetry_Int_Tables_number       1
_symmetry_cell_setting            triclinic
loop_
_symmetry_equiv_pos_as_xyz
'x, y, z'
_cell_length_a     24.864839
_cell_length_b     24.863444
_cell_length_c     68.484019
_cell_angle_alpha  90.69423
_cell_angle_beta   89.95788
_cell_angle_gamma 89.846685
loop_
_atom_site_label
_atom_site_type_symbol
_atom_site_fract_x
_atom_site_fract_y
_atom_site_fract_z
_atom_type_partial_charge
H0 H 0.83946 0.03713 0.50763 0.0
H1 H 0.9819 0.03311 0.54259 0.0
H2 H 0.9912 1.01371 0.47948 0.0
H3 H 0.06782 0.97292 0.48539 0.0
H4 H 0.21328 1.00863 0.51617 0.0
H5 H 0.0642 0.06566 0.53966 0.0
C6 C 0.88285 0.03326 0.50868 0.0
C7 C 0.91262 0.02432 0.49168 0.0
C8 C 0.90737 0.03649 0.52699 0.0
C9 C 0.96376 0.03169 0.52825 0.0
C10 C 0.9958 0.02331 0.51123 0.0
C11 C 0.96894 0.01938 0.49291 0.0
C12 C 0.05658 0.01871 0.51259 0.0
C13 C 0.08717 0.99167 0.49784 0.0
C14 C 0.14374 0.98957 0.49885 0.0
C15 C 0.16973 1.01091 0.51525 0.0
C16 C 0.14124 0.03725 0.53006 0.0
C17 C 0.08503 0.04251 0.52851 0.0
H18 H 0.24823 0.95555 0.75381 0.0
H19 H 0.25245 0.80926 0.78559 0.0
H20 H 0.28551 0.80772 0.72341 0.0
H21 H 0.33431 0.73225 0.73182 0.0
H22 H 0.29979 0.58628 0.7623 0.0
H23 H 0.21591 0.73038 0.77823 0.0
C24 C 0.2538 0.91224 0.75386 0.0
C25 C 0.26768 0.8849 0.73656 0.0
C26 C 0.24765 0.88476 0.77133 0.0
C27 C 0.25567 0.82917 0.77167 0.0
C28 C 0.26895 0.79997 0.75446 0.0
C29 C 0.27551 0.8287 0.73688 0.0
C30 C 0.27557 0.73998 0.75531 0.0
C31 C 0.31178 0.71151 0.74296 0.0
C32 C 0.32027 0.65591 0.74542 0.0
C33 C 0.29337 0.62908 0.76039 0.0
C34 C 0.25613 0.65604 0.77225 0.0
C35 C 0.24625 0.71073 0.7693 0.0
H36 H 0.68909 0.0258 0.01808 0.0
H37 H 0.52992 1.00371 0.03957 0.0
H38 H 0.55563 0.04728 0.97912 0.0
H39 H 0.47266 0.08614 0.98354 0.0
H40 H 0.31826 0.03004 1.00184 0.0
H41 H 0.45991 0.96169 0.02705 0.0
C42 C 0.64604 0.02666 0.01549 0.0
C43 C 0.62642 0.04008 0.99701 0.0
C44 C 0.61134 1.01271 0.03058 0.0
C45 C 0.55589 1.01262 0.02735 0.0
C46 C 0.53443 0.0249 0.00879 0.0
C47 C 0.57055 0.03816 0.99355 0.0
C48 C 0.47461 0.02424 1.00578 0.0
C49 C 0.44926 0.05891 0.99233 0.0
C50 C 0.39294 0.05966 0.99066 0.0
C51 C 0.36174 0.02716 1.00268 0.0
C52 C 0.38566 0.99267 0.01614 0.0
C53 C 0.44194 0.99028 0.0172 0.0
H54 H 0.28508 0.45845 0.25714 0.0
H55 H 0.28921 0.30628 0.28531 0.0
H56 H 0.2531 0.31501 0.22351 0.0
H57 H 0.20577 0.2376 0.23072 0.0
H58 H 0.25299 0.08597 0.25445 0.0
H59 H 0.32878 0.22988 0.2754 0.0
C60 C 0.28125 0.41503 0.25621 0.0
C61 C 0.26796 0.39033 0.23837 0.0
C62 C 0.2895 0.3847 0.27296 0.0
C63 C 0.28403 0.32874 0.272 0.0
C64 C 0.27093 0.30232 0.2542 0.0
C65 C 0.26249 0.33394 0.23741 0.0
C66 C 0.26708 0.24207 0.25341 0.0
C67 C 0.23119 0.21514 0.24055 0.0
C68 C 0.22684 0.15871 0.24083 0.0
C69 C 0.25778 0.1293 0.25398 0.0
C70 C 0.29415 0.15477 0.2666 0.0
C71 C 0.29914 0.21087 0.26606 0.0
H72 H 0.74667 0.45877 0.25794 0.0
H73 H 0.75721 0.31982 0.29394 0.0
H74 H 0.76979 0.30476 0.23078 0.0
H75 H 0.81323 0.22957 0.2372 0.0
H76 H 0.78347 0.08705 0.26985 0.0
H77 H 0.72399 0.23731 0.29181 0.0
C78 C 0.75125 0.41554 0.25926 0.0
C79 C 0.75883 0.38432 0.24242 0.0
C80 C 0.75065 0.39269 0.27778 0.0
C81 C 0.75653 0.33662 0.27945 0.0
C82 C 0.76343 0.30317 0.26262 0.0
C83 C 0.76494 0.32824 0.24405 0.0
C84 C 0.76926 0.24278 0.26453 0.0
C85 C 0.79593 0.21119 0.24997 0.0
C86 C 0.79943 0.15488 0.25161 0.0
C87 C 0.78004 0.13038 0.26844 0.0
C88 C 0.75386 0.15995 0.28302 0.0
C89 C 0.74707 0.21572 0.28084 0.0
H90 H 0.78505 0.95144 0.76238 0.0
H91 H 0.7721 0.80781 0.79547 0.0
H92 H 0.73939 0.80515 0.73312 0.0
H93 H 0.69032 0.73331 0.73998 0.0
H94 H 0.71187 0.58429 0.76968 0.0
H95 H 0.79633 0.72337 0.79019 0.0
C96 C 0.7768 0.90861 0.76278 0.0
C97 C 0.76124 0.8814 0.74574 0.0
C98 C 0.78132 0.88207 0.78049 0.0
C99 C 0.76959 0.82697 0.78141 0.0
C100 C 0.75438 0.79748 0.76438 0.0
C101 C 0.75009 0.82586 0.74653 0.0
C102 C 0.74331 0.73771 0.7654 0.0
C103 C 0.70908 0.71136 0.7517 0.0
C104 C 0.69797 0.65603 0.75325 0.0
C105 C 0.7198 0.62709 0.76871 0.0
C106 C 0.75479 0.65127 0.78208 0.0
C107 C 0.76738 0.70606 0.78016 0.0
H108 H 0.68837 0.51013 0.01732 0.0
H109 H 0.54338 0.49089 0.98461 0.0
H110 H 0.53843 0.53373 0.04645 0.0
H111 H 0.45815 0.56085 0.0414 0.0
H112 H 0.31225 0.50845 0.01486 0.0
H113 H 0.46131 0.46424 0.9879 0.0
C114 C 0.64472 0.50978 0.01691 0.0
C115 C 0.61594 0.52414 0.03366 0.0
C116 C 0.61876 0.49689 0.99942 0.0
C117 C 0.56219 0.49929 0.99852 0.0
C118 C 0.531 0.51192 0.01545 0.0
C119 C 0.55936 0.52448 0.033 0.0
C120 C 0.46973 0.51156 0.01496 0.0
C121 C 0.43911 0.53782 0.02988 0.0
C122 C 0.38268 0.5349 0.03014 0.0
C123 C 0.35593 0.50911 0.01486 0.0
C124 C 0.38403 0.48562 0.9993 0.0
C125 C 0.44074 0.485 0.99967 0.0
H126 H 0.21079 0.56148 0.51055 0.0
H127 H 0.07213 0.47893 0.53148 0.0
H128 H 0.05805 0.5904 0.48353 0.0
H129 H 0.98219 0.5411 0.47747 0.0
H130 H 0.84128 0.50593 0.51142 0.0
H131 H 0.9936 0.51249 0.53969 0.0
C132 C 0.16784 0.55401 0.50984 0.0
C133 C 0.13727 0.57857 0.49531 0.0
C134 C 0.14428 0.51881 0.52305 0.0
C135 C 0.08924 0.50775 0.52154 0.0
C136 C 0.05646 0.53445 0.5078 0.0
C137 C 0.0815 0.56934 0.49435 0.0
C138 C 0.99649 0.52708 0.50835 0.0
C139 C 0.96409 0.53221 0.49144 0.0
C140 C 0.90795 0.52439 0.49242 0.0
C141 C 0.88443 0.51159 0.51038 0.0
C142 C 0.91559 0.50636 0.52716 0.0
C143 C 0.97099 0.51478 0.52622 0.0
Fe144 Fe 1.00856 0.73721 0.18308 0.0
O145 O 1.00588 0.73317 0.1543 0.0
Fe146 Fe 0.93761 0.76549 0.14055 0.0
Fe147 Fe 0.06238 0.76622 0.13743 0.0
O148 O 1.00027 0.73253 0.15435 0.0
O149 O 0.99426 0.79851 0.12381 0.0
O150 O 0.99963 0.79871 0.12369 0.0
Fe151 Fe 0.99167 0.79851 0.09527 0.0
C152 C 0.07304 0.83742 0.17321 0.0
O153 O 0.07093 0.68411 0.17839 0.0
O154 O 0.12058 0.72512 0.15415 0.0
O155 O 0.93189 0.74152 0.09364 0.0
O156 O 0.92984 0.69943 0.12211 0.0
O157 O 0.88696 0.72321 0.1601 0.0
O158 O 0.94631 0.68337 0.18164 0.0
O159 O 0.06275 0.69999 0.11907 0.0
O160 O 0.05042 0.74072 0.09069 0.0
C161 C 0.89961 0.6877 0.17332 0.0
O162 O 0.92911 0.85156 0.10076 0.0
O163 O 0.87958 0.80689 0.12411 0.0
O164 O 0.06617 0.79727 0.1843 0.0
O165 O 0.06539 0.83389 0.15493 0.0
C166 C 0.11355 0.68905 0.16762 0.0
C167 C 0.07147 0.70341 0.10079 0.0
C168 C 0.10333 0.8414 0.10442 0.0
O169 O 0.1135 0.80621 0.11791 0.0
O170 O 0.05579 0.85109 0.09731 0.0
C171 C 0.91496 0.70365 0.10437 0.0
O172 O 0.94126 0.83303 0.15823 0.0
O173 O 0.95 0.79564 0.18728 0.0
C174 C 0.88534 0.84353 0.11077 0.0
C175 C 0.93882 0.83585 0.17671 0.0
Fe176 Fe 0.55798 0.78078 0.43289 0.0
O177 O 0.56171 0.77375 0.40422 0.0
Fe178 Fe 0.53038 0.83775 0.38791 0.0
Fe179 Fe 0.52771 0.71286 0.38941 0.0
O180 O 0.56205 0.77931 0.40412 0.0
O181 O 0.49721 0.77674 0.37295 0.0
O182 O 0.49731 0.77134 0.37296 0.0
Fe183 Fe 0.4995 0.77041 0.34439 0.0
C184 C 0.60301 0.66995 0.42178 0.0
O185 O 0.49578 0.7261 0.43602 0.0
O186 O 0.45985 0.71733 0.40643 0.0
O187 O 0.44691 0.83458 0.34689 0.0
O188 O 0.49086 0.89074 0.36881 0.0
O189 O 0.46251 0.84058 0.40531 0.0
O190 O 0.50153 0.84217 0.43441 0.0
O191 O 0.48669 0.65649 0.37169 0.0
O192 O 0.44583 0.70802 0.34809 0.0
C193 C 0.46055 0.8492 0.42361 0.0
O194 O 0.55695 0.82923 0.34125 0.0
O195 O 0.59705 0.83849 0.37002 0.0
O196 O 0.60907 0.71556 0.43092 0.0
O197 O 0.5666 0.65956 0.40857 0.0
C198 C 0.45585 0.71605 0.4249 0.0
C199 C 0.45211 0.66349 0.35761 0.0
C200 C 0.59428 0.69355 0.35397 0.0
O201 O 0.59475 0.7049 0.37212 0.0
O202 O 0.55775 0.71086 0.34258 0.0
C203 C 0.45576 0.88141 0.35498 0.0
O204 O 0.57321 0.8935 0.40573 0.0
O205 O 0.61419 0.84017 0.42894 0.0
C206 C 0.59403 0.84905 0.35191 0.0
C207 C 0.61037 0.88373 0.41877 0.0
Fe208 Fe 0.5212 0.23243 0.68226 0.0
O209 O 0.52853 0.22946 0.65358 0.0
Fe210 Fe 0.46558 0.26322 0.63715 0.0
Fe211 Fe 0.59051 0.26303 0.63968 0.0
O212 O 0.52286 0.22933 0.65344 0.0
O213 O 0.52769 0.29503 0.62287 0.0
O214 O 0.53304 0.29511 0.623 0.0
Fe215 Fe 0.53417 0.29405 0.59438 0.0
C216 C 0.58753 0.33309 0.67595 0.0
O217 O 0.58397 0.17877 0.68003 0.0
O218 O 0.64229 0.22159 0.65897 0.0
O219 O 0.47411 0.23781 0.5903 0.0
O220 O 0.46313 0.19715 0.61871 0.0
O221 O 0.4082 0.22231 0.65423 0.0
O222 O 0.45951 0.179 0.67749 0.0
O223 O 0.59833 0.19678 0.62166 0.0
O224 O 0.59274 0.23482 0.5924 0.0
C225 C 0.41633 0.18473 0.66708 0.0
O226 O 0.47101 0.34808 0.5969 0.0
O227 O 0.41395 0.3048 0.61824 0.0
O228 O 0.57856 0.2919 0.68634 0.0
O229 O 0.58632 0.33039 0.65743 0.0
C230 C 0.63006 0.18397 0.67138 0.0
C231 C 0.60987 0.19787 0.60357 0.0
C232 C 0.64136 0.33957 0.60912 0.0
O233 O 0.64781 0.30422 0.62287 0.0
O234 O 0.59742 0.34631 0.59913 0.0
C235 C 0.45315 0.20089 0.60054 0.0
O236 O 0.46444 0.33047 0.65499 0.0
O237 O 0.4627 0.29169 0.68397 0.0
C238 C 0.42412 0.34036 0.60487 0.0
C239 C 0.4571 0.33296 0.67333 0.0
Fe240 Fe 0.9751 0.27702 0.93146 0.0
O241 O 0.97041 0.27164 0.90268 0.0
Fe242 Fe 1.00114 0.33707 0.88693 0.0
Fe243 Fe 1.00536 0.21196 0.88735 0.0
O244 O 0.97035 0.27732 0.90269 0.0
O245 O 0.0353 0.27727 0.8715 0.0
O246 O 0.03515 0.27183 0.87146 0.0
Fe247 Fe 0.0339 0.27196 0.84292 0.0
C248 C 0.07739 0.21312 0.92276 0.0
O249 O 0.92482 0.2119 0.92916 0.0
O250 O 0.96693 0.15715 0.90619 0.0
O251 O 0.97404 0.32851 0.84002 0.0
O252 O 0.93442 0.33837 0.869 0.0
O253 O 0.95767 0.39144 0.90535 0.0
O254 O 0.91851 0.33634 0.92837 0.0
O255 O 0.93869 0.20396 0.86967 0.0
O256 O 0.97866 0.21048 0.84074 0.0
C257 C 0.92174 0.38083 0.91875 0.0
O258 O 0.08379 0.33791 0.84553 0.0
O259 O 0.03947 0.39171 0.8683 0.0
O260 O 0.0376 0.22233 0.93404 0.0
O261 O 0.07315 0.21601 0.90435 0.0
C262 C 0.9311 0.16672 0.91977 0.0
C263 C 0.94155 0.19193 0.85156 0.0
C264 C 0.08343 0.1658 0.8556 0.0
O265 O 0.04798 0.15738 0.8693 0.0
O266 O 0.08959 0.21111 0.84656 0.0
C267 C 0.93657 0.34761 0.85074 0.0
O268 O 0.06926 0.33943 0.90418 0.0
O269 O 0.03088 0.33858 0.93338 0.0
C270 C 0.07351 0.3839 0.85402 0.0
C271 C 0.0715 0.34674 0.92254 0.0
H272 H 0.15003 0.88675 0.48336 0.0
H273 H 0.21754 0.0457 0.47879 0.0
H274 H 0.22371 0.85067 0.46285 0.0
H275 H 0.29082 1.00996 0.45877 0.0
H276 H 0.44907 0.91033 0.45663 0.0
H277 H 0.36591 0.94279 0.4717 0.0
H278 H 0.27328 0.86294 0.42675 0.0
H279 H 0.35706 0.83111 0.41128 0.0
C280 C 0.1795 0.9141 0.47744 0.0
C281 C 0.17823 0.96895 0.48266 0.0
C282 C 0.22175 0.89351 0.46583 0.0
C283 C 0.26335 0.9275 0.45951 0.0
C284 C 0.25971 0.98279 0.46365 0.0
C285 C 0.21759 1.00326 0.47499 0.0
C286 C 0.41106 0.89976 0.4499 0.0
C287 C 0.4097 0.86874 0.43264 0.0
C288 C 0.36345 0.91843 0.4585 0.0
C289 C 0.31318 0.90566 0.45031 0.0
C290 C 0.3115 0.87343 0.43333 0.0
C291 C 0.35939 0.85565 0.42443 0.0
H292 H 0.35665 0.88693 0.71327 0.0
H293 H 0.19932 0.95786 0.72053 0.0
H294 H 0.38086 0.95806 0.69066 0.0
H295 H 0.223 0.02877 0.69773 0.0
H296 H 0.4172 0.08745 0.64953 0.0
H297 H 0.3698 1.00726 0.66051 0.0
H298 H 0.28318 0.10461 0.70282 0.0
H299 H 0.32999 0.18461 0.69139 0.0
C300 C 0.32654 0.91651 0.70939 0.0
C301 C 0.27641 0.91728 0.71879 0.0
C302 C 0.34034 0.95745 0.69645 0.0
C303 C 0.30413 0.99978 0.69263 0.0
C304 C 0.25217 0.99746 0.70065 0.0
C305 C 0.23849 0.95666 0.71359 0.0
C306 C 0.38608 0.09182 0.66053 0.0
C307 C 0.37622 0.14208 0.66938 0.0
C308 C 0.35954 0.04586 0.66702 0.0
C309 C 0.32308 0.04927 0.68269 0.0
C310 C 0.31045 0.10047 0.69055 0.0
C311 C 0.33705 0.14644 0.68401 0.0
H312 H 0.3601 0.03454 0.95406 0.0
H313 H 0.35675 0.1611 0.99756 0.0
H314 H 0.28859 0.07946 0.93598 0.0
H315 H 0.28571 0.20707 0.97939 0.0
H316 H 0.1056 0.2108 0.9614 0.0
H317 H 0.19123 0.18364 0.97541 0.0
H318 H 0.2555 0.15616 0.91752 0.0
H319 H 0.16942 0.18254 0.90344 0.0
C320 C 0.34564 0.07334 0.95921 0.0
C321 C 0.36425 0.09494 0.97696 0.0
C322 C 0.3045 0.09902 0.94895 0.0
C323 C 0.28086 0.14655 0.95637 0.0
C324 C 0.30245 0.1701 0.97343 0.0
C325 C 0.34365 0.14436 0.98368 0.0
C326 C 0.13794 0.19909 0.95162 0.0
C327 C 0.13021 0.19817 0.93129 0.0
C328 C 0.18737 0.18412 0.95966 0.0
C329 C 0.23038 0.16779 0.94759 0.0
C330 C 0.22309 0.16807 0.92724 0.0
C331 C 0.17368 0.18323 0.91918 0.0
H332 H 0.13173 0.11286 0.2502 0.0
H333 H 0.24396 0.13117 0.20283 0.0
H334 H 0.08733 0.0396 0.23242 0.0
H335 H 0.20074 0.05699 0.18509 0.0
H336 H 0.09582 0.93153 0.15427 0.0
H337 H 0.12295 0.01763 0.16865 0.0
H338 H 0.11596 0.94823 0.22611 0.0
H339 H 0.08806 0.86276 0.21185 0.0
C340 C 0.14554 0.10238 0.23563 0.0
C341 C 0.19063 0.12803 0.22771 0.0
C342 C 0.1208 0.05985 0.22558 0.0
C343 C 0.14108 0.04158 0.20747 0.0
C344 C 0.18379 0.07008 0.19893 0.0
C345 C 0.20842 0.11283 0.209 0.0
C346 C 0.1 0.93463 0.16999 0.0
C347 C 0.09015 0.88986 0.18187 0.0
C348 C 0.11561 0.98408 0.17822 0.0
C349 C 0.12144 0.99013 0.19856 0.0
C350 C 0.11098 0.94549 0.21042 0.0
C351 C 0.09555 0.89612 0.20221 0.0
H352 H 0.19826 0.98602 0.55812 0.0
H353 H 0.15995 0.14365 0.53658 0.0
H354 H 0.27225 0.02394 0.57742 0.0
H355 H 0.2341 0.18182 0.55576 0.0
H356 H 0.41623 0.20521 0.56307 0.0
H357 H 0.33379 0.16773 0.54983 0.0
H358 H 0.30187 0.09021 0.60464 0.0
H359 H 0.38476 0.12868 0.61823 0.0
C360 C 0.20441 0.02915 0.55818 0.0
C361 C 0.17308 0.0621 0.54608 0.0
C362 C 0.24694 0.05081 0.56912 0.0
C363 C 0.25955 0.1057 0.56788 0.0
C364 C 0.22575 0.13921 0.55682 0.0
C365 C 0.18283 0.11762 0.54607 0.0
C366 C 0.39218 0.1798 0.57237 0.0
C367 C 0.40752 0.1701 0.59181 0.0
C368 C 0.34441 0.15883 0.56479 0.0
C369 C 0.31066 0.12695 0.5763 0.0
C370 C 0.32689 0.11497 0.59545 0.0
C371 C 0.37462 0.13666 0.60318 0.0
H372 H 0.30597 0.95955 0.7911 0.0
H373 H 0.15261 0.87926 0.79073 0.0
H374 H 0.2738 0.02141 0.81653 0.0
H375 H 0.11888 0.94267 0.81542 0.0
H376 H 0.17009 0.16926 0.83126 0.0
H377 H 0.21491 0.09497 0.81507 0.0
H378 H 0.1179 0.98264 0.84738 0.0
H379 H 0.07104 0.05793 0.86322 0.0
C380 C 0.26559 0.95479 0.79678 0.0
C381 C 0.23157 0.91508 0.78905 0.0
C382 C 0.2469 0.99039 0.81119 0.0
C383 C 0.19333 0.98783 0.8178 0.0
C384 C 0.16045 0.9457 0.81086 0.0
C385 C 0.17956 0.90946 0.79666 0.0
C386 C 0.1585 0.12882 0.83515 0.0
C387 C 0.11629 0.11977 0.84837 0.0
C388 C 0.1848 0.08591 0.82597 0.0
C389 C 0.17005 0.03253 0.82982 0.0
C390 C 0.12981 0.02324 0.84385 0.0
C391 C 0.10322 0.06642 0.85306 0.0
H392 H 0.39991 0.97895 0.05549 0.0
H393 H 0.29287 0.9384 0.0079 0.0
H394 H 0.33527 0.94182 0.07872 0.0
H395 H 0.22823 0.90257 0.03109 0.0
H396 H 0.09956 0.92115 0.07737 0.0
H397 H 0.17238 0.95292 0.05697 0.0
H398 H 0.28481 0.85286 0.08798 0.0
H399 H 0.21154 0.82014 0.10857 0.0
C400 C 0.36319 0.96113 0.04995 0.0
C401 C 0.35114 0.96231 0.02987 0.0
C402 C 0.32616 0.94015 0.06326 0.0
C403 C 0.2764 0.92042 0.0567 0.0
C404 C 0.26582 0.91871 0.03656 0.0
C405 C 0.30283 0.93918 0.0233 0.0
C406 C 0.13975 0.90612 0.08009 0.0
C407 C 0.14938 0.86747 0.09452 0.0
C408 C 0.18144 0.92418 0.06828 0.0
C409 C 0.23393 0.90447 0.07065 0.0
C410 C 0.24456 0.86845 0.08582 0.0
C411 C 0.20259 0.84991 0.09762 0.0
H412 H 0.31302 0.17574 0.30549 0.0
H413 H 0.34546 0.05958 0.2595 0.0
H414 H 0.35269 0.11441 0.32939 0.0
H415 H 0.38358 0.99843 0.28334 0.0
H416 H 0.367 0.87866 0.33177 0.0
H417 H 0.33201 0.95045 0.31165 0.0
H418 H 0.44618 0.06126 0.33706 0.0
H419 H 0.48232 0.98882 0.3573 0.0
C420 C 0.32948 0.13767 0.30044 0.0
C421 C 0.32529 0.12204 0.28067 0.0
C422 C 0.35193 0.10263 0.31412 0.0
C423 C 0.37007 0.05145 0.3082 0.0
C424 C 0.36878 0.03728 0.2883 0.0
C425 C 0.34691 0.07225 0.27469 0.0
C426 C 0.38442 0.91837 0.33334 0.0
C427 C 0.42806 0.92771 0.34596 0.0
C428 C 0.3644 0.95942 0.32174 0.0
C429 C 0.3872 1.01093 0.32256 0.0
C430 C 0.42816 0.02169 0.33615 0.0
C431 C 0.44861 0.98028 0.34776 0.0
H432 H 0.91558 0.11492 0.55549 0.0
H433 H 0.81745 0.98098 0.53684 0.0
H434 H 0.84322 0.14498 0.57761 0.0
H435 H 0.74508 1.01185 0.55835 0.0
H436 H 0.61757 0.15607 0.56672 0.0
H437 H 0.69375 0.1073 0.55235 0.0
H438 H 0.77533 0.11115 0.6079 0.0
H439 H 0.69805 0.15848 0.62256 0.0
C440 C 0.87947 0.09088 0.55663 0.0
C441 C 0.87195 0.04598 0.54427 0.0
C442 C 0.83798 0.10821 0.56919 0.0
C443 C 0.78834 0.08109 0.56942 0.0
C444 C 0.7827 0.03374 0.5583 0.0
C445 C 0.8242 0.01608 0.54603 0.0
C446 C 0.65114 0.14532 0.57598 0.0
C447 C 0.65159 0.16067 0.59578 0.0
C448 C 0.69475 0.11752 0.56777 0.0
C449 C 0.74044 0.10565 0.57902 0.0
C450 C 0.7406 0.11988 0.59893 0.0
C451 C 0.69621 0.14647 0.60731 0.0
H452 H 0.64798 0.14218 0.29015 0.0
H453 H 0.80694 0.10486 0.31115 0.0
H454 H 0.61114 0.06849 0.30942 0.0
H455 H 0.77024 0.03137 0.33059 0.0
H456 H 0.59274 0.88507 0.31449 0.0
H457 H 0.62941 0.96821 0.30211 0.0
H458 H 0.70233 1.00181 0.35806 0.0
H459 H 0.66432 0.91822 0.37087 0.0
C460 C 0.67459 0.11976 0.29958 0.0
C461 C 0.73012 0.1294 0.29933 0.0
C462 C 0.65374 0.07715 0.3104 0.0
C463 C 0.68801 0.04369 0.32127 0.0
C464 C 0.74289 0.0565 0.32241 0.0
C465 C 0.76382 0.0987 0.31139 0.0
C466 C 0.61694 0.90963 0.32424 0.0
C467 C 0.62531 0.89467 0.34378 0.0
C468 C 0.63745 0.95775 0.31715 0.0
C469 C 0.66763 0.99217 0.32924 0.0
C470 C 0.67871 0.97624 0.34847 0.0
C471 C 0.65736 0.92813 0.35574 0.0
H472 H 0.60519 0.91378 0.04668 0.0
H473 H 0.6721 0.07186 0.05572 0.0
H474 H 0.6647 0.87806 0.07176 0.0
H475 H 0.73002 0.03717 0.08148 0.0
H476 H 0.77848 0.82286 0.11783 0.0
H477 H 0.70094 0.87043 0.10433 0.0
H478 H 0.80836 0.98389 0.07725 0.0
H479 H 0.88478 0.93785 0.09106 0.0
C480 C 0.63106 0.94122 0.05469 0.0
C481 C 0.63468 0.99529 0.04927 0.0
C482 C 0.66512 0.9209 0.0691 0.0
C483 C 0.70301 0.95455 0.07837 0.0
C484 C 0.7023 1.00989 0.07428 0.0
C485 C 0.66889 0.02994 0.05969 0.0
C486 C 0.7853 0.85876 0.10938 0.0
C487 C 0.83787 0.87615 0.10531 0.0
C488 C 0.7409 0.8858 0.10155 0.0
C489 C 0.74828 0.93089 0.08962 0.0
C490 C 0.80081 0.94988 0.08658 0.0
C491 C 0.84491 0.92296 0.09434 0.0
H492 H 0.88478 0.89875 0.79043 0.0
H493 H 0.72258 0.94091 0.80682 0.0
H494 H 0.91898 0.97361 0.81029 0.0
H495 H 0.75686 0.01578 0.82705 0.0
H496 H 0.872 0.1238 0.87074 0.0
H497 H 0.82987 0.04187 0.85741 0.0
H498 H 0.89599 0.07643 0.80073 0.0
H499 H 0.93647 0.15817 0.81362 0.0
C500 C 0.85672 0.92254 0.79906 0.0
C501 C 0.80123 0.91367 0.79741 0.0
C502 C 0.87615 0.96569 0.81022 0.0
C503 C 0.84046 1.00067 0.82003 0.0
C504 C 0.78516 0.98919 0.81972 0.0
C505 C 0.76562 0.94622 0.8083 0.0
C506 C 0.87637 0.11462 0.85535 0.0
C507 C 0.90788 0.14769 0.84333 0.0
C508 C 0.8526 0.06753 0.84778 0.0
C509 C 0.86073 0.05239 0.82816 0.0
C510 C 0.89 0.08665 0.816 0.0
C511 C 0.91291 0.13376 0.82343 0.0
H512 H 0.8425 0.09453 0.4751 0.0
H513 H 0.91074 0.93608 0.46764 0.0
H514 H 0.77129 0.07197 0.45187 0.0
H515 H 0.83926 0.91289 0.44459 0.0
H516 H 0.70859 0.87979 0.4022 0.0
H517 H 0.78998 0.92413 0.41427 0.0
H518 H 0.69402 1.01362 0.45614 0.0
H519 H 0.61292 0.96964 0.44373 0.0
C520 C 0.84329 0.05547 0.46791 0.0
C521 C 0.88209 0.01699 0.47318 0.0
C522 C 0.80213 0.0423 0.45479 0.0
C523 C 0.79876 0.99028 0.44661 0.0
C524 C 0.8406 0.95347 0.45048 0.0
C525 C 0.88187 0.96673 0.46364 0.0
C526 C 0.70487 0.91079 0.41339 0.0
C527 C 0.65452 0.92231 0.42177 0.0
C528 C 0.75153 0.93559 0.42051 0.0
C529 C 0.74885 0.97216 0.43631 0.0
C530 C 0.69775 0.98628 0.44379 0.0
C531 C 0.65109 0.96133 0.43666 0.0
H532 H 0.89996 0.15187 0.23448 0.0
H533 H 0.74455 0.07513 0.23368 0.0
H534 H 0.93676 0.07744 0.21431 0.0
H535 H 0.78121 1.00108 0.21411 0.0
H536 H 0.89109 0.849 0.21232 0.0
H537 H 0.85898 0.93252 0.22751 0.0
H538 H 0.91583 0.02229 0.17816 0.0
H539 H 0.94716 0.93824 0.16259 0.0
C540 C 0.87343 0.12008 0.22949 0.0
C541 C 0.81954 0.11901 0.23569 0.0
C542 C 0.89446 0.07745 0.2181 0.0
C543 C 0.86188 0.03325 0.21298 0.0
C544 C 0.80727 0.03432 0.21807 0.0
C545 C 0.7863 0.07682 0.22917 0.0
C546 C 0.89691 0.88647 0.2047 0.0
C547 C 0.92108 0.88691 0.18616 0.0
C548 C 0.87847 0.93423 0.21338 0.0
C549 C 0.88477 0.9837 0.20394 0.0
C550 C 0.91054 0.98464 0.18571 0.0
C551 C 0.92804 0.93656 0.17679 0.0
H552 H 0.70703 0.1121 1.00119 0.0
H553 H 0.63603 1.00355 0.95887 0.0
H554 H 0.78244 0.12719 0.97937 0.0
H555 H 0.71197 0.02009 0.93652 0.0
H556 H 0.83573 0.14612 0.90239 0.0
H557 H 0.75756 0.10691 0.91865 0.0
H558 H 0.85855 0.06159 0.96697 0.0
H559 H 0.93652 0.10036 0.95058 0.0
C560 C 0.70736 0.09179 0.9871 0.0
C561 C 0.66602 0.056 0.98187 0.0
C562 C 0.75075 0.10015 0.97467 0.0
C563 C 0.75379 0.07354 0.95652 0.0
C564 C 0.71084 0.04044 0.95058 0.0
C565 C 0.66728 0.03145 0.96325 0.0
C566 C 0.84171 0.12463 0.91587 0.0
C567 C 0.89226 0.12498 0.92505 0.0
C568 C 0.79687 0.10278 0.92528 0.0
C569 C 0.80198 0.08193 0.94415 0.0
C570 C 0.85354 0.07777 0.95246 0.0
C571 C 0.89828 0.09927 0.94301 0.0
H572 H 0.83314 0.95093 0.7298 0.0
H573 H 0.67361 0.88673 0.72169 0.0
H574 H 0.81338 0.02242 0.70672 0.0
H575 H 0.65371 0.95813 0.6985 0.0
H576 H 0.63071 0.08599 0.65435 0.0
H577 H 0.67242 1.00466 0.66737 0.0
H578 H 0.75298 0.10119 0.71125 0.0
H579 H 0.71102 0.18223 0.69811 0.0
C580 C 0.79432 0.95124 0.72262 0.0
C581 C 0.75465 0.91359 0.72771 0.0
C582 C 0.78292 0.99239 0.7095 0.0
C583 C 0.73171 0.99662 0.70102 0.0
C584 C 0.6937 0.95597 0.70471 0.0
C585 C 0.70507 0.91484 0.71794 0.0
C586 C 0.65917 0.08982 0.66627 0.0
C587 C 0.66855 0.14025 0.67506 0.0
C588 C 0.68248 0.04326 0.67387 0.0
C589 C 0.71564 0.04626 0.69046 0.0
C590 C 0.72813 0.09741 0.69832 0.0
C591 C 0.70443 0.14397 0.69078 0.0
H592 H 0.69029 0.41526 0.99842 0.0
H593 H 0.62733 0.54348 0.96315 0.0
H594 H 0.76348 0.40137 0.97519 0.0
H595 H 0.7009 0.52851 0.93938 0.0
H596 H 0.82555 0.39687 0.9011 0.0
H597 H 0.74474 0.43186 0.91752 0.0
H598 H 0.84164 0.48132 0.96668 0.0
H599 H 0.92226 0.44729 0.95013 0.0
C600 C 0.69136 0.43951 0.98538 0.0
C601 C 0.65322 0.48051 0.98261 0.0
C602 C 0.73349 0.43188 0.9722 0.0
C603 C 0.73833 0.46462 0.95576 0.0
C604 C 0.69811 0.50307 0.95206 0.0
C605 C 0.65585 0.51121 0.9655 0.0
C606 C 0.82998 0.41854 0.91481 0.0
C607 C 0.88034 0.4208 0.92412 0.0
C608 C 0.78363 0.43792 0.92431 0.0
C609 C 0.78707 0.45895 0.94337 0.0
C610 C 0.83804 0.46543 0.95194 0.0
C611 C 0.88425 0.44655 0.94239 0.0
H612 H 0.68627 0.45121 0.22539 0.0
H613 H 0.84666 0.38721 0.21872 0.0
H614 H 0.70891 0.52543 0.20369 0.0
H615 H 0.86907 0.46137 0.1969 0.0
H616 H 0.87693 0.65947 0.21024 0.0
H617 H 0.83254 0.57738 0.22081 0.0
H618 H 0.79194 0.53855 0.16111 0.0
H619 H 0.83622 0.62204 0.15039 0.0
C620 C 0.72538 0.45138 0.2184 0.0
C621 C 0.76476 0.41345 0.22372 0.0
C622 C 0.73828 0.4939 0.20603 0.0
C623 C 0.79057 0.49883 0.19864 0.0
C624 C 0.82821 0.45783 0.20223 0.0
C625 C 0.81533 0.41525 0.21462 0.0
C626 C 0.85705 0.63439 0.1994 0.0
C627 C 0.85984 0.64718 0.17951 0.0
C628 C 0.83207 0.5873 0.20544 0.0
C629 C 0.80962 0.55163 0.19173 0.0
C630 C 0.80922 0.56559 0.1719 0.0
C631 C 0.83399 0.61343 0.16582 0.0
H632 H 0.82794 0.45757 0.47987 0.0
H633 H 0.9053 0.60813 0.46683 0.0
H634 H 0.754 0.48025 0.45801 0.0
H635 H 0.8315 0.63063 0.44474 0.0
H636 H 0.69625 0.65475 0.4024 0.0
H637 H 0.77624 0.60824 0.4147 0.0
H638 H 0.68386 0.55181 0.46377 0.0
H639 H 0.60447 0.59882 0.45148 0.0
C640 C 0.82977 0.49495 0.47193 0.0
C641 C 0.87196 0.53154 0.47531 0.0
C642 C 0.78738 0.50792 0.45945 0.0
C643 C 0.78646 0.55755 0.44991 0.0
C644 C 0.83114 0.59194 0.45184 0.0
C645 C 0.87352 0.57906 0.46445 0.0
C646 C 0.69281 0.63054 0.41539 0.0
C647 C 0.64429 0.62934 0.42588 0.0
C648 C 0.7386 0.6045 0.42253 0.0
C649 C 0.73646 0.57657 0.44024 0.0
C650 C 0.68671 0.57239 0.44996 0.0
C651 C 0.64116 0.59903 0.44294 0.0
H652 H 0.72779 0.63447 0.71576 0.0
H653 H 0.60279 0.60406 0.75777 0.0
H654 H 0.69511 0.56003 0.69539 0.0
H655 H 0.56859 0.53081 0.73721 0.0
H656 H 0.58608 0.3565 0.71513 0.0
H657 H 0.60307 0.44228 0.73126 0.0
H658 H 0.62793 0.51635 0.67525 0.0
H659 H 0.61193 0.42983 0.65903 0.0
C660 C 0.69172 0.61343 0.72015 0.0
C661 C 0.6676 0.62514 0.73825 0.0
C662 C 0.67309 0.57047 0.70855 0.0
C663 C 0.62985 0.53845 0.71484 0.0
C664 C 0.60283 0.55358 0.73214 0.0
C665 C 0.62176 0.59613 0.74377 0.0
C666 C 0.59531 0.39093 0.70619 0.0
C667 C 0.59831 0.38581 0.68575 0.0
C668 C 0.60438 0.44052 0.71547 0.0
C669 C 0.61665 0.48664 0.7046 0.0
C670 C 0.61906 0.48172 0.68412 0.0
C671 C 0.60986 0.432 0.67482 0.0
H672 H 0.60803 0.62028 0.053 0.0
H673 H 0.69646 0.47084 0.05252 0.0
H674 H 0.6768 0.66086 0.07402 0.0
H675 H 0.76543 0.51136 0.07343 0.0
H676 H 0.87448 0.60658 0.11753 0.0
H677 H 0.79375 0.55931 0.10552 0.0
H678 H 0.77011 0.68281 0.06259 0.0
H679 H 0.84922 0.72925 0.07429 0.0
C680 C 0.64101 0.5955 0.05804 0.0
C681 C 0.64706 0.54257 0.05104 0.0
C682 C 0.68074 0.61884 0.06989 0.0
C683 C 0.7271 0.58957 0.07509 0.0
C684 C 0.7303 0.53496 0.06972 0.0
C685 C 0.6908 0.51178 0.05774 0.0
C686 C 0.85189 0.62343 0.10555 0.0
C687 C 0.86869 0.67158 0.09686 0.0
C688 C 0.80571 0.59648 0.0987 0.0
C689 C 0.77496 0.61786 0.08332 0.0
C690 C 0.79204 0.6658 0.07472 0.0
C691 C 0.83817 0.69203 0.08129 0.0
H692 H 0.67602 0.3859 0.30724 0.0
H693 H 0.80646 0.48383 0.28632 0.0
H694 H 0.64814 0.45951 0.32933 0.0
H695 H 0.77792 0.55735 0.30791 0.0
H696 H 0.63649 0.68543 0.31736 0.0
H697 H 0.68507 0.60896 0.30307 0.0
H698 H 0.68084 0.52826 0.35847 0.0
H699 H 0.63341 0.60572 0.37301 0.0
C700 C 0.69982 0.4223 0.30787 0.0
C701 C 0.74296 0.4294 0.29489 0.0
C702 C 0.68377 0.46449 0.32042 0.0
C703 C 0.71045 0.51435 0.32005 0.0
C704 C 0.75631 0.5196 0.30831 0.0
C705 C 0.77266 0.47746 0.29601 0.0
C706 C 0.64713 0.652 0.32661 0.0
C707 C 0.63155 0.65178 0.34631 0.0
C708 C 0.67489 0.60823 0.31845 0.0
C709 C 0.68659 0.56269 0.32967 0.0
C710 C 0.67228 0.56287 0.34952 0.0
C711 C 0.64563 0.60738 0.35784 0.0
H712 H 0.84855 0.56593 0.55005 0.0
H713 H 0.92186 0.40928 0.54452 0.0
H714 H 0.79 0.53292 0.57593 0.0
H715 H 0.86167 0.37492 0.56963 0.0
H716 H 0.63922 0.43173 0.58817 0.0
H717 H 0.71396 0.47759 0.57338 0.0
H718 H 0.825 0.37002 0.60194 0.0
H719 H 0.74901 0.32226 0.61636 0.0
C720 C 0.85275 0.52468 0.55476 0.0
C721 C 0.88928 0.48995 0.54542 0.0
C722 C 0.81902 0.50554 0.56942 0.0
C723 C 0.82023 0.4509 0.57462 0.0
C724 C 0.85977 0.41726 0.56617 0.0
C725 C 0.89415 0.43675 0.55173 0.0
C726 C 0.67952 0.41804 0.59155 0.0
C727 C 0.68799 0.37264 0.60319 0.0
C728 C 0.72269 0.44495 0.58322 0.0
C729 C 0.77578 0.4275 0.58636 0.0
C730 C 0.78459 0.38409 0.599 0.0
C731 C 0.74108 0.35696 0.60739 0.0
H732 H 0.86199 0.6343 0.78758 0.0
H733 H 0.70583 0.58793 0.80895 0.0
H734 H 0.90338 0.56153 0.8062 0.0
H735 H 0.74718 0.5154 0.82771 0.0
H736 H 0.93501 0.38036 0.8129 0.0
H737 H 0.89201 0.45955 0.79965 0.0
H738 H 0.81727 0.49278 0.85538 0.0
H739 H 0.86166 0.41334 0.86905 0.0
C740 C 0.83681 0.60966 0.79677 0.0
C741 C 0.78081 0.61664 0.79685 0.0
C742 C 0.86032 0.56771 0.80725 0.0
C743 C 0.82833 0.53241 0.81819 0.0
C744 C 0.77277 0.54199 0.81944 0.0
C745 C 0.74918 0.58345 0.80873 0.0
C746 C 0.90905 0.40394 0.82242 0.0
C747 C 0.902 0.39021 0.84215 0.0
C748 C 0.88485 0.44979 0.81481 0.0
C749 C 0.85224 0.48296 0.82658 0.0
C750 C 0.8426 0.46805 0.84602 0.0
C751 C 0.86763 0.42233 0.85379 0.0
H752 H 0.36285 0.64154 0.03591 0.0
H753 H 0.32376 0.48466 0.0578 0.0
H754 H 0.28843 0.6807 0.05487 0.0
H755 H 0.24947 0.52351 0.07685 0.0
H756 H 0.13908 0.62947 0.11797 0.0
H757 H 0.22101 0.5897 0.10398 0.0
H758 H 0.18872 0.66866 0.04945 0.0
H759 H 0.1072 0.7076 0.06313 0.0
C760 C 0.33957 0.61588 0.04538 0.0
C761 C 0.34929 0.56033 0.04563 0.0
C762 C 0.29655 0.63802 0.056 0.0
C763 C 0.26261 0.60501 0.06715 0.0
C764 C 0.27493 0.55 0.06849 0.0
C765 C 0.31757 0.52781 0.05769 0.0
C766 C 0.1489 0.6375 0.1029 0.0
C767 C 0.11621 0.67179 0.09174 0.0
C768 C 0.19608 0.61503 0.09493 0.0
C769 C 0.21194 0.627 0.07575 0.0
C770 C 0.17835 0.6597 0.06443 0.0
C771 C 0.1311 0.68151 0.07225 0.0
H772 H 0.29856 0.59635 0.80152 0.0
H773 H 0.14767 0.64814 0.77685 0.0
H774 H 0.25007 0.53856 0.82431 0.0
H775 H 0.09923 0.5896 0.7994 0.0
H776 H 0.06711 0.4067 0.81597 0.0
H777 H 0.10741 0.48192 0.79879 0.0
H778 H 0.17269 0.54257 0.85312 0.0
H779 H 0.13049 0.46728 0.87058 0.0
C780 C 0.25499 0.59585 0.80122 0.0
C781 C 0.22669 0.62623 0.78742 0.0
C782 C 0.22736 0.56328 0.81432 0.0
C783 C 0.17108 0.55988 0.81356 0.0
C784 C 0.14268 0.59181 0.80026 0.0
C785 C 0.17027 0.62516 0.78741 0.0
C786 C 0.08971 0.43638 0.82426 0.0
C787 C 0.09632 0.43127 0.8445 0.0
C788 C 0.1123 0.47954 0.81448 0.0
C789 C 0.14288 0.51793 0.82468 0.0
C790 C 0.14909 0.51336 0.84501 0.0
C791 C 0.12512 0.4706 0.85495 0.0
H792 H 0.15022 0.41292 0.53354 0.0
H793 H 0.21379 0.57014 0.54746 0.0
H794 H 0.21338 0.37251 0.55654 0.0
H795 H 0.27614 0.53018 0.57061 0.0
H796 H 0.42887 0.43169 0.58333 0.0
H797 H 0.356 0.47589 0.56628 0.0
H798 H 0.24259 0.36387 0.59076 0.0
H799 H 0.31617 0.31851 0.60764 0.0
C800 C 0.17697 0.43885 0.54181 0.0
C801 C 0.17778 0.49449 0.53852 0.0
C802 C 0.213 0.41582 0.55502 0.0
C803 C 0.25022 0.44811 0.56523 0.0
C804 C 0.24879 0.50408 0.56268 0.0
C805 C 0.21311 0.52697 0.54944 0.0
C806 C 0.38838 0.4167 0.58529 0.0
C807 C 0.37849 0.37133 0.59678 0.0
C808 C 0.34644 0.44236 0.57561 0.0
C809 C 0.29344 0.42337 0.57713 0.0
C810 C 0.28309 0.37913 0.58916 0.0
C811 C 0.32519 0.35348 0.59896 0.0
H812 H 0.38575 0.37881 0.2916 0.0
H813 H 0.23013 0.45513 0.29458 0.0
H814 H 0.41952 0.44093 0.31664 0.0
H815 H 0.2625 0.51564 0.32032 0.0
H816 H 0.36328 0.66557 0.3344 0.0
H817 H 0.31915 0.59077 0.31843 0.0
H818 H 0.42234 0.47968 0.34894 0.0
H819 H 0.46835 0.55564 0.36461 0.0
C820 C 0.35833 0.40767 0.2982 0.0
C821 C 0.3056 0.41267 0.29118 0.0
C822 C 0.3775 0.44322 0.3126 0.0
C823 C 0.34404 0.48408 0.32031 0.0
C824 C 0.28983 0.48567 0.31437 0.0
C825 C 0.27103 0.45076 0.29979 0.0
C826 C 0.37637 0.62527 0.33796 0.0
C827 C 0.41997 0.61682 0.35062 0.0
C828 C 0.35048 0.58205 0.32891 0.0
C829 C 0.3671 0.52888 0.33231 0.0
C830 C 0.40889 0.52011 0.34579 0.0
C831 C 0.43499 0.56365 0.3549 0.0
H832 H 0.31507 0.54198 0.97706 0.0
H833 H 0.37724 0.38164 0.985 0.0
H834 H 0.2431 0.50633 0.9565 0.0
H835 H 0.30506 0.34569 0.96389 0.0
H836 H 0.17511 0.32826 0.91027 0.0
H837 H 0.25876 0.35924 0.92595 0.0
H838 H 0.16561 0.43951 0.97081 0.0
H839 H 0.08255 0.40771 0.95558 0.0
C840 C 0.31432 0.49921 0.97384 0.0
C841 C 0.35164 0.46454 0.98265 0.0
C842 C 0.27295 0.47882 0.96218 0.0
C843 C 0.26818 0.42329 0.95883 0.0
C844 C 0.30801 0.38874 0.96625 0.0
C845 C 0.34942 0.40925 0.97819 0.0
C846 C 0.17264 0.35269 0.92345 0.0
C847 C 0.12223 0.36604 0.9316 0.0
C848 C 0.22044 0.36999 0.93246 0.0
C849 C 0.21852 0.402 0.94949 0.0
C850 C 0.16817 0.41518 0.9576 0.0
C851 C 0.12065 0.39693 0.9489 0.0
H852 H 0.30405 0.63429 0.70684 0.0
H853 H 0.41124 0.60117 0.75465 0.0
H854 H 0.34377 0.5599 0.68804 0.0
H855 H 0.45258 0.52807 0.73574 0.0
H856 H 0.44296 0.35494 0.71223 0.0
H857 H 0.41999 0.44026 0.72771 0.0
H858 H 0.41842 0.51658 0.67137 0.0
H859 H 0.4404 0.43044 0.65573 0.0
C860 C 0.33773 0.6125 0.71295 0.0
C861 C 0.35472 0.62337 0.73213 0.0
C862 C 0.36043 0.56969 0.70224 0.0
C863 C 0.40067 0.53712 0.71052 0.0
C864 C 0.42072 0.55132 0.7291 0.0
C865 C 0.39768 0.59366 0.73983 0.0
C866 C 0.43763 0.38977 0.70308 0.0
C867 C 0.44288 0.38544 0.68268 0.0
C868 C 0.42511 0.43907 0.71201 0.0
C869 C 0.41759 0.48564 0.70083 0.0
C870 C 0.42345 0.48153 0.68043 0.0
C871 C 0.43607 0.43207 0.67147 0.0
H872 H 0.16327 0.55376 0.45778 0.0
H873 H 0.18056 0.67689 0.50211 0.0
H874 H 0.23614 0.59412 0.43901 0.0
H875 H 0.25233 0.71858 0.48321 0.0
H876 H 0.42963 0.71263 0.46371 0.0
H877 H 0.34372 0.68933 0.47821 0.0
H878 H 0.27519 0.66756 0.42072 0.0
H879 H 0.36173 0.68991 0.40612 0.0
C880 C 0.18099 0.59101 0.463 0.0
C881 C 0.16619 0.61259 0.48124 0.0
C882 C 0.22298 0.61405 0.45234 0.0
C883 C 0.2509 0.65904 0.45979 0.0
C884 C 0.23257 0.68326 0.47725 0.0
C885 C 0.1909 0.66002 0.48793 0.0
C886 C 0.39634 0.70293 0.45411 0.0
C887 C 0.403 0.70256 0.43373 0.0
C888 C 0.34672 0.69017 0.46245 0.0
C889 C 0.30226 0.67678 0.45065 0.0
C890 C 0.30862 0.67724 0.43025 0.0
C891 C 0.35833 0.69009 0.42189 0.0
H892 H 0.33288 0.4692 0.22441 0.0
H893 H 0.18041 0.39139 0.2143 0.0
H894 H 0.30807 0.54029 0.20182 0.0
H895 H 0.15498 0.46279 0.19191 0.0
H896 H 0.11847 0.59152 0.15018 0.0
H897 H 0.16726 0.51298 0.16211 0.0
H898 H 0.24423 0.61336 0.20577 0.0
H899 H 0.19622 0.69166 0.19338 0.0
C900 C 0.29448 0.46676 0.21699 0.0
C901 C 0.25826 0.42515 0.22126 0.0
C902 C 0.28015 0.50761 0.20414 0.0
C903 C 0.2292 0.50786 0.19528 0.0
C904 C 0.19474 0.46379 0.19834 0.0
C905 C 0.20921 0.42276 0.21118 0.0
C906 C 0.14795 0.59699 0.16167 0.0
C907 C 0.1548 0.64762 0.17059 0.0
C908 C 0.17517 0.55193 0.16874 0.0
C909 C 0.20931 0.55661 0.18503 0.0
C910 C 0.21888 0.60823 0.19304 0.0
C911 C 0.1916 0.65325 0.18594 0.0
loop_
_geom_bond_atom_site_label_1
_geom_bond_atom_site_label_2
_geom_bond_distance
_geom_bond_site_symmetry_2
_ccdc_geom_bond_type
H0 C6 0.930 . S
H1 C9 0.931 . S
H2 C11 0.931 . S
H3 C13 0.930 . S
H4 C15 0.930 . S
H5 C17 0.931 . S
C6 H0 0.930 . S
C6 C7 1.380 1_545 S
C6 C8 1.394 . S
C7 C6 1.380 1_565 S
C7 C11 1.382 . S
C8 C6 1.394 . S
C8 C9 1.400 . S
C9 H1 0.931 . S
C9 C8 1.400 . S
C9 C10 1.375 . S
C10 C9 1.375 . S
C10 C11 1.415 1_545 S
C10 C12 1.501 1_655 S
C11 H2 0.931 . S
C11 C7 1.382 . S
C11 C10 1.415 1_565 S
C12 C10 1.501 1_455 S
C12 C13 1.384 1_545 S
C12 C17 1.408 . S
C13 H3 0.930 . S
C13 C12 1.384 1_565 S
C13 C14 1.389 . S
C14 C13 1.389 . S
C14 C15 1.405 1_565 S
C15 H4 0.930 . S
C15 C14 1.405 1_545 S
C15 C16 1.364 . S
C16 C15 1.364 . S
C16 C17 1.400 . S
C17 H5 0.931 . S
C17 C12 1.408 . S
C17 C16 1.400 . S
H18 C24 0.930 . S
H19 C27 0.931 . S
H20 C29 0.931 . S
H21 C31 0.930 . S
H22 C33 0.930 . S
H23 C35 0.931 . S
C24 H18 0.930 . S
C24 C25 1.380 . S
C24 C26 1.394 . S
C25 C24 1.380 . S
C25 C29 1.382 . S
C26 C24 1.394 . S
C26 C27 1.400 . S
C27 H19 0.931 . S
C27 C26 1.400 . S
C27 C28 1.375 . S
C28 C27 1.375 . S
C28 C29 1.415 . S
C28 C30 1.501 . S
C29 H20 0.931 . S
C29 C25 1.382 . S
C29 C28 1.415 . S
C30 C28 1.501 . S
C30 C31 1.384 . S
C30 C35 1.408 . S
C31 H21 0.930 . S
C31 C30 1.384 . S
C31 C32 1.389 . S
C32 C31 1.389 . S
C32 C33 1.405 . S
C33 H22 0.930 . S
C33 C32 1.405 . S
C33 C34 1.364 . S
C34 C33 1.364 . S
C34 C35 1.400 . S
C35 H23 0.931 . S
C35 C30 1.408 . S
C35 C34 1.400 . S
H36 C42 0.930 . S
H37 C45 0.931 . S
H38 C47 0.931 . S
H39 C49 0.930 . S
H40 C51 0.930 . S
H41 C53 0.931 . S
C42 H36 0.930 . S
C42 C43 1.375 1_564 S
C42 C44 1.399 . S
C43 C42 1.375 1_546 S
C43 C47 1.382 . S
C44 C42 1.399 . S
C44 C45 1.400 . S
C45 H37 0.931 . S
C45 C44 1.400 . S
C45 C46 1.375 1_565 S
C46 C45 1.375 1_545 S
C46 C47 1.415 1_554 S
C46 C48 1.501 . S
C47 H38 0.931 . S
C47 C43 1.382 . S
C47 C46 1.415 1_556 S
C48 C46 1.501 . S
C48 C49 1.384 1_554 S
C48 C53 1.408 1_545 S
C49 H39 0.930 . S
C49 C48 1.384 1_556 S
C49 C50 1.389 . S
C50 C49 1.389 . S
C50 C51 1.405 1_556 S
C51 H40 0.930 . S
C51 C50 1.405 1_554 S
C51 C52 1.364 1_545 S
C52 C51 1.364 1_565 S
C52 C53 1.400 . S
C53 H41 0.931 . S
C53 C48 1.408 1_565 S
C53 C52 1.400 . S
H54 C60 0.930 . S
H55 C63 0.931 . S
H56 C65 0.931 . S
H57 C67 0.930 . S
H58 C69 0.930 . S
H59 C71 0.931 . S
C60 H54 0.930 . S
C60 C61 1.380 . S
C60 C62 1.394 . S
C61 C60 1.380 . S
C61 C65 1.382 . S
C62 C60 1.394 . S
C62 C63 1.400 . S
C63 H55 0.931 . S
C63 C62 1.400 . S
C63 C64 1.375 . S
C64 C63 1.375 . S
C64 C65 1.415 . S
C64 C66 1.501 . S
C65 H56 0.931 . S
C65 C61 1.382 . S
C65 C64 1.415 . S
C66 C64 1.501 . S
C66 C67 1.384 . S
C66 C71 1.408 . S
C67 H57 0.930 . S
C67 C66 1.384 . S
C67 C68 1.389 . S
C68 C67 1.389 . S
C68 C69 1.405 . S
C69 H58 0.930 . S
C69 C68 1.405 . S
C69 C70 1.364 . S
C70 C69 1.364 . S
C70 C71 1.400 . S
C71 H59 0.931 . S
C71 C66 1.408 . S
C71 C70 1.400 . S
H72 C78 0.930 . S
H73 C81 0.931 . S
H74 C83 0.931 . S
H75 C85 0.930 . S
H76 C87 0.930 . S
H77 C89 0.931 . S
C78 H72 0.930 . S
C78 C79 1.380 . S
C78 C80 1.394 . S
C79 C78 1.380 . S
C79 C83 1.382 . S
C80 C78 1.394 . S
C80 C81 1.400 . S
C81 H73 0.931 . S
C81 C80 1.400 . S
C81 C82 1.375 . S
C82 C81 1.375 . S
C82 C83 1.415 . S
C82 C84 1.501 . S
C83 H74 0.931 . S
C83 C79 1.382 . S
C83 C82 1.415 . S
C84 C82 1.501 . S
C84 C85 1.384 . S
C84 C89 1.408 . S
C85 H75 0.930 . S
C85 C84 1.384 . S
C85 C86 1.389 . S
C86 C85 1.389 . S
C86 C87 1.405 . S
C87 H76 0.930 . S
C87 C86 1.405 . S
C87 C88 1.364 . S
C88 C87 1.364 . S
C88 C89 1.400 . S
C89 H77 0.931 . S
C89 C84 1.408 . S
C89 C88 1.400 . S
H90 C96 0.930 . S
H91 C99 0.931 . S
H92 C101 0.931 . S
H93 C103 0.930 . S
H94 C105 0.930 . S
H95 C107 0.931 . S
C96 H90 0.930 . S
C96 C97 1.380 . S
C96 C98 1.394 . S
C97 C96 1.380 . S
C97 C101 1.382 . S
C98 C96 1.394 . S
C98 C99 1.400 . S
C99 H91 0.931 . S
C99 C98 1.400 . S
C99 C100 1.375 . S
C100 C99 1.375 . S
C100 C101 1.415 . S
C100 C102 1.501 . S
C101 H92 0.931 . S
C101 C97 1.382 . S
C101 C100 1.415 . S
C102 C100 1.501 . S
C102 C103 1.384 . S
C102 C107 1.408 . S
C103 H93 0.930 . S
C103 C102 1.384 . S
C103 C104 1.389 . S
C104 C103 1.389 . S
C104 C105 1.405 . S
C105 H94 0.930 . S
C105 C104 1.405 . S
C105 C106 1.364 . S
C106 C105 1.364 . S
C106 C107 1.400 . S
C107 H95 0.931 . S
C107 C102 1.408 . S
C107 C106 1.400 . S
H108 C114 0.930 . S
H109 C117 0.931 . S
H110 C119 0.931 . S
H111 C121 0.930 . S
H112 C123 0.930 . S
H113 C125 0.931 . S
C114 H108 0.930 . S
C114 C115 1.380 . S
C114 C116 1.394 1_554 S
C115 C114 1.380 . S
C115 C119 1.382 . S
C116 C114 1.394 1_556 S
C116 C117 1.400 . S
C117 H109 0.931 . S
C117 C116 1.400 . S
C117 C118 1.375 1_556 S
C118 C117 1.375 1_554 S
C118 C119 1.415 . S
C118 C120 1.501 . S
C119 H110 0.931 . S
C119 C115 1.382 . S
C119 C118 1.415 . S
C120 C118 1.501 . S
C120 C121 1.384 . S
C120 C125 1.408 1_554 S
C121 H111 0.930 . S
C121 C120 1.384 . S
C121 C122 1.389 . S
C122 C121 1.389 . S
C122 C123 1.405 . S
C123 H112 0.930 . S
C123 C122 1.405 . S
C123 C124 1.364 1_554 S
C124 C123 1.364 1_556 S
C124 C125 1.400 . S
C125 H113 0.931 . S
C125 C120 1.408 1_556 S
C125 C124 1.400 . S
H126 C132 0.930 . S
H127 C135 0.931 . S
H128 C137 0.931 . S
H129 C139 0.930 . S
H130 C141 0.930 . S
H131 C143 0.931 . S
C132 H126 0.930 . S
C132 C133 1.380 . S
C132 C134 1.394 . S
C133 C132 1.380 . S
C133 C137 1.382 . S
C134 C132 1.394 . S
C134 C135 1.400 . S
C135 H127 0.931 . S
C135 C134 1.400 . S
C135 C136 1.375 . S
C136 C135 1.375 . S
C136 C137 1.415 . S
C136 C138 1.501 1_455 S
C137 H128 0.931 . S
C137 C133 1.382 . S
C137 C136 1.415 . S
C138 C136 1.501 1_655 S
C138 C139 1.384 . S
C138 C143 1.408 . S
C139 H129 0.930 . S
C139 C138 1.384 . S
C139 C140 1.389 . S
C140 C139 1.389 . S
C140 C141 1.405 . S
C141 H130 0.930 . S
C141 C140 1.405 . S
C141 C142 1.364 . S
C142 C141 1.364 . S
C142 C143 1.400 . S
C143 H131 0.931 . S
C143 C138 1.408 . S
C143 C142 1.400 . S
Fe144 O145 1.886 . S
Fe144 O148 1.715 1_455 S
Fe144 O153 2.077 . S
Fe144 O158 1.935 1_455 S
Fe144 O164 2.077 . S
Fe144 O173 1.935 1_455 S
O145 Fe144 1.886 . S
O145 Fe147 1.715 . S
Fe146 O148 1.886 . S
Fe146 O149 1.715 . S
Fe146 O156 1.935 . S
Fe146 O157 2.077 . S
Fe146 O163 1.935 . S
Fe146 O172 2.077 . S
Fe147 O145 1.715 . S
Fe147 O150 1.886 . S
Fe147 O154 1.935 . S
Fe147 O159 2.077 . S
Fe147 O165 1.935 . S
Fe147 O169 2.077 . S
O148 Fe144 1.715 1_655 S
O148 Fe146 1.886 . S
O149 Fe146 1.715 . S
O149 Fe151 1.886 . S
O150 Fe147 1.886 . S
O150 Fe151 1.715 1_455 S
Fe151 O149 1.886 . S
Fe151 O150 1.715 1_655 S
Fe151 O155 2.077 . S
Fe151 O160 1.935 1_655 S
Fe151 O162 2.077 . S
Fe151 O170 1.935 1_655 S
C152 O164 1.381 . S
C152 O165 1.421 . S
O153 Fe144 2.077 . S
O153 C166 1.381 . S
O154 Fe147 1.935 . S
O154 C166 1.421 . S
O155 Fe151 2.077 . S
O155 C171 1.381 . S
O156 Fe146 1.935 . S
O156 C171 1.421 . S
O157 Fe146 2.077 . S
O157 C161 1.381 . S
O158 Fe144 1.935 1_655 S
O158 C161 1.421 . S
O159 Fe147 2.077 . S
O159 C167 1.381 . S
O160 Fe151 1.935 1_455 S
O160 C167 1.421 . S
C161 O157 1.381 . S
C161 O158 1.421 . S
O162 Fe151 2.077 . S
O162 C174 1.381 . S
O163 Fe146 1.935 . S
O163 C174 1.421 . S
O164 Fe144 2.077 . S
O164 C152 1.381 . S
O165 Fe147 1.935 . S
O165 C152 1.421 . S
C166 O153 1.381 . S
C166 O154 1.421 . S
C167 O159 1.381 . S
C167 O160 1.421 . S
C168 O169 1.381 . S
C168 O170 1.421 . S
O169 Fe147 2.077 . S
O169 C168 1.381 . S
O170 Fe151 1.935 1_455 S
O170 C168 1.421 . S
C171 O155 1.381 . S
C171 O156 1.421 . S
O172 Fe146 2.077 . S
O172 C175 1.381 . S
O173 Fe144 1.935 1_655 S
O173 C175 1.421 . S
C174 O162 1.381 . S
C174 O163 1.421 . S
C175 O172 1.381 . S
C175 O173 1.421 . S
Fe176 O177 1.886 . S
Fe176 O180 1.715 . S
Fe176 O185 2.077 . S
Fe176 O190 1.935 . S
Fe176 O196 2.077 . S
Fe176 O205 1.935 . S
O177 Fe176 1.886 . S
O177 Fe179 1.715 . S
Fe178 O180 1.886 . S
Fe178 O181 1.715 . S
Fe178 O188 1.935 . S
Fe178 O189 2.077 . S
Fe178 O195 1.935 . S
Fe178 O204 2.077 . S
Fe179 O177 1.715 . S
Fe179 O182 1.886 . S
Fe179 O186 1.935 . S
Fe179 O191 2.077 . S
Fe179 O197 1.935 . S
Fe179 O201 2.077 . S
O180 Fe176 1.715 . S
O180 Fe178 1.886 . S
O181 Fe178 1.715 . S
O181 Fe183 1.886 . S
O182 Fe179 1.886 . S
O182 Fe183 1.715 . S
Fe183 O181 1.886 . S
Fe183 O182 1.715 . S
Fe183 O187 2.077 . S
Fe183 O192 1.935 . S
Fe183 O194 2.077 . S
Fe183 O202 1.935 . S
C184 O196 1.381 . S
C184 O197 1.421 . S
O185 Fe176 2.077 . S
O185 C198 1.381 . S
O186 Fe179 1.935 . S
O186 C198 1.421 . S
O187 Fe183 2.077 . S
O187 C203 1.381 . S
O188 Fe178 1.935 . S
O188 C203 1.421 . S
O189 Fe178 2.077 . S
O189 C193 1.381 . S
O190 Fe176 1.935 . S
O190 C193 1.421 . S
O191 Fe179 2.077 . S
O191 C199 1.381 . S
O192 Fe183 1.935 . S
O192 C199 1.421 . S
C193 O189 1.381 . S
C193 O190 1.421 . S
O194 Fe183 2.077 . S
O194 C206 1.381 . S
O195 Fe178 1.935 . S
O195 C206 1.421 . S
O196 Fe176 2.077 . S
O196 C184 1.381 . S
O197 Fe179 1.935 . S
O197 C184 1.421 . S
C198 O185 1.381 . S
C198 O186 1.421 . S
C199 O191 1.381 . S
C199 O192 1.421 . S
C200 O201 1.381 . S
C200 O202 1.421 . S
O201 Fe179 2.077 . S
O201 C200 1.381 . S
O202 Fe183 1.935 . S
O202 C200 1.421 . S
C203 O187 1.381 . S
C203 O188 1.421 . S
O204 Fe178 2.077 . S
O204 C207 1.381 . S
O205 Fe176 1.935 . S
O205 C207 1.421 . S
C206 O194 1.381 . S
C206 O195 1.421 . S
C207 O204 1.381 . S
C207 O205 1.421 . S
Fe208 O209 1.886 . S
Fe208 O212 1.715 . S
Fe208 O217 2.077 . S
Fe208 O222 1.935 . S
Fe208 O228 2.077 . S
Fe208 O237 1.935 . S
O209 Fe208 1.886 . S
O209 Fe211 1.715 . S
Fe210 O212 1.886 . S
Fe210 O213 1.715 . S
Fe210 O220 1.935 . S
Fe210 O221 2.077 . S
Fe210 O227 1.935 . S
Fe210 O236 2.077 . S
Fe211 O209 1.715 . S
Fe211 O214 1.886 . S
Fe211 O218 1.935 . S
Fe211 O223 2.077 . S
Fe211 O229 1.935 . S
Fe211 O233 2.077 . S
O212 Fe208 1.715 . S
O212 Fe210 1.886 . S
O213 Fe210 1.715 . S
O213 Fe215 1.886 . S
O214 Fe211 1.886 . S
O214 Fe215 1.715 . S
Fe215 O213 1.886 . S
Fe215 O214 1.715 . S
Fe215 O219 2.077 . S
Fe215 O224 1.935 . S
Fe215 O226 2.077 . S
Fe215 O234 1.935 . S
C216 O228 1.381 . S
C216 O229 1.421 . S
O217 Fe208 2.077 . S
O217 C230 1.381 . S
O218 Fe211 1.935 . S
O218 C230 1.421 . S
O219 Fe215 2.077 . S
O219 C235 1.381 . S
O220 Fe210 1.935 . S
O220 C235 1.421 . S
O221 Fe210 2.077 . S
O221 C225 1.381 . S
O222 Fe208 1.935 . S
O222 C225 1.421 . S
O223 Fe211 2.077 . S
O223 C231 1.381 . S
O224 Fe215 1.935 . S
O224 C231 1.421 . S
C225 O221 1.381 . S
C225 O222 1.421 . S
O226 Fe215 2.077 . S
O226 C238 1.381 . S
O227 Fe210 1.935 . S
O227 C238 1.421 . S
O228 Fe208 2.077 . S
O228 C216 1.381 . S
O229 Fe211 1.935 . S
O229 C216 1.421 . S
C230 O217 1.381 . S
C230 O218 1.421 . S
C231 O223 1.381 . S
C231 O224 1.421 . S
C232 O233 1.381 . S
C232 O234 1.421 . S
O233 Fe211 2.077 . S
O233 C232 1.381 . S
O234 Fe215 1.935 . S
O234 C232 1.421 . S
C235 O219 1.381 . S
C235 O220 1.421 . S
O236 Fe210 2.077 . S
O236 C239 1.381 . S
O237 Fe208 1.935 . S
O237 C239 1.421 . S
C238 O226 1.381 . S
C238 O227 1.421 . S
C239 O236 1.381 . S
C239 O237 1.421 . S
Fe240 O241 1.886 . S
Fe240 O244 1.715 . S
Fe240 O249 2.077 1_455 S
Fe240 O254 1.935 1_455 S
Fe240 O260 2.077 . S
Fe240 O269 1.935 . S
O241 Fe240 1.886 . S
O241 Fe243 1.715 . S
Fe242 O244 1.886 . S
Fe242 O245 1.715 . S
Fe242 O252 1.935 1_455 S
Fe242 O253 2.077 1_455 S
Fe242 O259 1.936 . S
Fe242 O268 2.078 . S
Fe243 O241 1.715 . S
Fe243 O246 1.886 . S
Fe243 O250 1.936 1_455 S
Fe243 O255 2.078 1_455 S
Fe243 O261 1.935 . S
Fe243 O265 2.077 . S
O244 Fe240 1.715 . S
O244 Fe242 1.886 . S
O245 Fe242 1.715 . S
O245 Fe247 1.886 . S
O246 Fe243 1.886 . S
O246 Fe247 1.715 . S
Fe247 O245 1.886 . S
Fe247 O246 1.715 . S
Fe247 O251 2.077 1_455 S
Fe247 O256 1.935 1_455 S
Fe247 O258 2.077 . S
Fe247 O266 1.935 . S
C248 O260 1.381 . S
C248 O261 1.421 . S
O249 Fe240 2.077 1_655 S
O249 C262 1.381 . S
O250 Fe243 1.936 1_655 S
O250 C262 1.421 . S
O251 Fe247 2.077 1_655 S
O251 C267 1.381 . S
O252 Fe242 1.935 1_655 S
O252 C267 1.421 . S
O253 Fe242 2.077 1_655 S
O253 C257 1.381 . S
O254 Fe240 1.935 1_655 S
O254 C257 1.421 . S
O255 Fe243 2.078 1_655 S
O255 C263 1.381 . S
O256 Fe247 1.935 1_655 S
O256 C263 1.421 . S
C257 O253 1.381 . S
C257 O254 1.421 . S
O258 Fe247 2.077 . S
O258 C270 1.381 . S
O259 Fe242 1.936 . S
O259 C270 1.421 . S
O260 Fe240 2.077 . S
O260 C248 1.381 . S
O261 Fe243 1.935 . S
O261 C248 1.421 . S
C262 O249 1.381 . S
C262 O250 1.421 . S
C263 O255 1.381 . S
C263 O256 1.421 . S
C264 O265 1.381 . S
C264 O266 1.421 . S
O265 Fe243 2.077 . S
O265 C264 1.381 . S
O266 Fe247 1.935 . S
O266 C264 1.421 . S
C267 O251 1.381 . S
C267 O252 1.421 . S
O268 Fe242 2.078 . S
O268 C271 1.381 . S
O269 Fe240 1.935 . S
O269 C271 1.421 . S
C270 O258 1.381 . S
C270 O259 1.421 . S
C271 O268 1.381 . S
C271 O269 1.421 . S
H272 C280 0.950 . S
H273 C285 0.950 1_545 S
H274 C282 0.950 . S
H275 C284 0.950 . S
H276 C286 0.950 . S
H277 C288 0.950 . S
H278 C290 0.950 . S
H279 C291 0.950 . S
C280 H272 0.950 . S
C280 C281 1.386 . S
C280 C282 1.391 . S
C281 C280 1.386 . S
C281 C285 1.393 . S
C282 H274 0.950 . S
C282 C280 1.391 . S
C282 C283 1.400 . S
C283 C282 1.400 . S
C283 C284 1.398 . S
C283 C289 1.491 . S
C284 H275 0.950 . S
C284 C283 1.398 . S
C284 C285 1.391 . S
C285 H273 0.950 1_565 S
C285 C281 1.393 . S
C285 C284 1.391 . S
C286 H276 0.950 . S
C286 C287 1.386 . S
C286 C288 1.391 . S
C287 C286 1.386 . S
C287 C291 1.393 . S
C288 H277 0.950 . S
C288 C286 1.391 . S
C288 C289 1.400 . S
C289 C283 1.491 . S
C289 C288 1.400 . S
C289 C290 1.398 . S
C290 H278 0.950 . S
C290 C289 1.398 . S
C290 C291 1.391 . S
C291 H279 0.950 . S
C291 C287 1.393 . S
C291 C290 1.391 . S
H292 C300 0.950 . S
H293 C305 0.950 . S
H294 C302 0.950 . S
H295 C304 0.950 . S
H296 C306 0.950 . S
H297 C308 0.950 . S
H298 C310 0.950 . S
H299 C311 0.950 . S
C300 H292 0.950 . S
C300 C301 1.386 . S
C300 C302 1.391 . S
C301 C300 1.386 . S
C301 C305 1.393 . S
C302 H294 0.950 . S
C302 C300 1.391 . S
C302 C303 1.400 . S
C303 C302 1.400 . S
C303 C304 1.398 . S
C303 C309 1.491 1_565 S
C304 H295 0.950 . S
C304 C303 1.398 . S
C304 C305 1.391 . S
C305 H293 0.950 . S
C305 C301 1.393 . S
C305 C304 1.391 . S
C306 H296 0.950 . S
C306 C307 1.386 . S
C306 C308 1.391 . S
C307 C306 1.386 . S
C307 C311 1.393 . S
C308 H297 0.950 . S
C308 C306 1.391 . S
C308 C309 1.400 . S
C309 C303 1.491 1_545 S
C309 C308 1.400 . S
C309 C310 1.398 . S
C310 H298 0.950 . S
C310 C309 1.398 . S
C310 C311 1.391 . S
C311 H299 0.950 . S
C311 C307 1.393 . S
C311 C310 1.391 . S
H312 C320 0.950 . S
H313 C325 0.950 1_554 S
H314 C322 0.950 . S
H315 C324 0.950 . S
H316 C326 0.950 . S
H317 C328 0.950 . S
H318 C330 0.950 . S
H319 C331 0.950 . S
C320 H312 0.950 . S
C320 C321 1.386 . S
C320 C322 1.391 . S
C321 C320 1.386 . S
C321 C325 1.393 . S
C322 H314 0.950 . S
C322 C320 1.391 . S
C322 C323 1.400 . S
C323 C322 1.400 . S
C323 C324 1.398 . S
C323 C329 1.491 . S
C324 H315 0.950 . S
C324 C323 1.398 . S
C324 C325 1.391 . S
C325 H313 0.950 1_556 S
C325 C321 1.393 . S
C325 C324 1.391 . S
C326 H316 0.950 . S
C326 C327 1.386 . S
C326 C328 1.391 . S
C327 C326 1.386 . S
C327 C331 1.393 . S
C328 H317 0.950 . S
C328 C326 1.391 . S
C328 C329 1.400 . S
C329 C323 1.491 . S
C329 C328 1.400 . S
C329 C330 1.398 . S
C330 H318 0.950 . S
C330 C329 1.398 . S
C330 C331 1.391 . S
C331 H319 0.950 . S
C331 C327 1.393 . S
C331 C330 1.391 . S
H332 C340 0.950 . S
H333 C345 0.950 . S
H334 C342 0.950 . S
H335 C344 0.950 . S
H336 C346 0.950 . S
H337 C348 0.950 . S
H338 C350 0.950 . S
H339 C351 0.950 . S
C340 H332 0.950 . S
C340 C341 1.386 . S
C340 C342 1.391 . S
C341 C340 1.386 . S
C341 C345 1.393 . S
C342 H334 0.950 . S
C342 C340 1.391 . S
C342 C343 1.400 . S
C343 C342 1.400 . S
C343 C344 1.398 . S
C343 C349 1.491 1_545 S
C344 H335 0.950 . S
C344 C343 1.398 . S
C344 C345 1.391 . S
C345 H333 0.950 . S
C345 C341 1.393 . S
C345 C344 1.391 . S
C346 H336 0.950 . S
C346 C347 1.386 . S
C346 C348 1.391 . S
C347 C346 1.386 . S
C347 C351 1.393 . S
C348 H337 0.950 . S
C348 C346 1.391 . S
C348 C349 1.400 . S
C349 C343 1.491 1_565 S
C349 C348 1.400 . S
C349 C350 1.398 . S
C350 H338 0.950 . S
C350 C349 1.398 . S
C350 C351 1.391 . S
C351 H339 0.950 . S
C351 C347 1.393 . S
C351 C350 1.391 . S
H352 C360 0.950 . S
H353 C365 0.950 . S
H354 C362 0.950 . S
H355 C364 0.950 . S
H356 C366 0.950 . S
H357 C368 0.950 . S
H358 C370 0.950 . S
H359 C371 0.950 . S
C360 H352 0.950 . S
C360 C361 1.386 . S
C360 C362 1.391 . S
C361 C360 1.386 . S
C361 C365 1.393 . S
C362 H354 0.950 . S
C362 C360 1.391 . S
C362 C363 1.400 . S
C363 C362 1.400 . S
C363 C364 1.398 . S
C363 C369 1.491 . S
C364 H355 0.950 . S
C364 C363 1.398 . S
C364 C365 1.391 . S
C365 H353 0.950 . S
C365 C361 1.393 . S
C365 C364 1.391 . S
C366 H356 0.950 . S
C366 C367 1.386 . S
C366 C368 1.391 . S
C367 C366 1.386 . S
C367 C371 1.393 . S
C368 H357 0.950 . S
C368 C366 1.391 . S
C368 C369 1.400 . S
C369 C363 1.491 . S
C369 C368 1.400 . S
C369 C370 1.398 . S
C370 H358 0.950 . S
C370 C369 1.398 . S
C370 C371 1.391 . S
C371 H359 0.950 . S
C371 C367 1.393 . S
C371 C370 1.391 . S
H372 C380 0.950 . S
H373 C385 0.950 . S
H374 C382 0.950 . S
H375 C384 0.950 1_545 S
H376 C386 0.950 . S
H377 C388 0.950 . S
H378 C390 0.950 . S
H379 C391 0.950 . S
C380 H372 0.950 . S
C380 C381 1.386 . S
C380 C382 1.391 . S
C381 C380 1.386 . S
C381 C385 1.393 . S
C382 H374 0.950 . S
C382 C380 1.391 . S
C382 C383 1.400 . S
C383 C382 1.400 . S
C383 C384 1.398 . S
C383 C389 1.491 1_565 S
C384 H375 0.950 1_565 S
C384 C383 1.398 . S
C384 C385 1.391 . S
C385 H373 0.950 . S
C385 C381 1.393 . S
C385 C384 1.391 . S
C386 H376 0.950 . S
C386 C387 1.386 . S
C386 C388 1.391 . S
C387 C386 1.386 . S
C387 C391 1.393 . S
C388 H377 0.950 . S
C388 C386 1.391 . S
C388 C389 1.400 . S
C389 C383 1.491 1_545 S
C389 C388 1.400 . S
C389 C390 1.398 . S
C390 H378 0.950 . S
C390 C389 1.398 . S
C390 C391 1.391 . S
C391 H379 0.950 . S
C391 C387 1.393 . S
C391 C390 1.391 . S
H392 C400 0.950 . S
H393 C405 0.950 . S
H394 C402 0.950 . S
H395 C404 0.950 . S
H396 C406 0.950 . S
H397 C408 0.950 . S
H398 C410 0.950 . S
H399 C411 0.950 . S
C400 H392 0.950 . S
C400 C401 1.386 . S
C400 C402 1.391 . S
C401 C400 1.386 . S
C401 C405 1.393 . S
C402 H394 0.950 . S
C402 C400 1.391 . S
C402 C403 1.400 . S
C403 C402 1.400 . S
C403 C404 1.398 . S
C403 C409 1.491 . S
C404 H395 0.950 . S
C404 C403 1.398 . S
C404 C405 1.391 . S
C405 H393 0.950 . S
C405 C401 1.393 . S
C405 C404 1.391 . S
C406 H396 0.950 . S
C406 C407 1.386 . S
C406 C408 1.391 . S
C407 C406 1.386 . S
C407 C411 1.393 . S
C408 H397 0.950 . S
C408 C406 1.391 . S
C408 C409 1.400 . S
C409 C403 1.491 . S
C409 C408 1.400 . S
C409 C410 1.398 . S
C410 H398 0.950 . S
C410 C409 1.398 . S
C410 C411 1.391 . S
C411 H399 0.950 . S
C411 C407 1.393 . S
C411 C410 1.391 . S
H412 C420 0.950 . S
H413 C425 0.950 . S
H414 C422 0.950 . S
H415 C424 0.950 . S
H416 C426 0.950 . S
H417 C428 0.950 . S
H418 C430 0.950 . S
H419 C431 0.950 . S
C420 H412 0.950 . S
C420 C421 1.386 . S
C420 C422 1.391 . S
C421 C420 1.386 . S
C421 C425 1.393 . S
C422 H414 0.950 . S
C422 C420 1.391 . S
C422 C423 1.400 . S
C423 C422 1.400 . S
C423 C424 1.398 . S
C423 C429 1.491 1_545 S
C424 H415 0.950 . S
C424 C423 1.398 . S
C424 C425 1.391 . S
C425 H413 0.950 . S
C425 C421 1.393 . S
C425 C424 1.391 . S
C426 H416 0.950 . S
C426 C427 1.386 . S
C426 C428 1.391 . S
C427 C426 1.386 . S
C427 C431 1.393 . S
C428 H417 0.950 . S
C428 C426 1.391 . S
C428 C429 1.400 . S
C429 C423 1.491 1_565 S
C429 C428 1.400 . S
C429 C430 1.398 . S
C430 H418 0.950 . S
C430 C429 1.398 . S
C430 C431 1.391 . S
C431 H419 0.950 . S
C431 C427 1.393 . S
C431 C430 1.391 . S
H432 C440 0.950 . S
H433 C445 0.950 . S
H434 C442 0.950 . S
H435 C444 0.950 . S
H436 C446 0.950 . S
H437 C448 0.950 . S
H438 C450 0.950 . S
H439 C451 0.950 . S
C440 H432 0.950 . S
C440 C441 1.386 . S
C440 C442 1.391 . S
C441 C440 1.386 . S
C441 C445 1.393 . S
C442 H434 0.950 . S
C442 C440 1.391 . S
C442 C443 1.400 . S
C443 C442 1.400 . S
C443 C444 1.398 . S
C443 C449 1.491 . S
C444 H435 0.950 . S
C444 C443 1.398 . S
C444 C445 1.391 . S
C445 H433 0.950 . S
C445 C441 1.393 . S
C445 C444 1.391 . S
C446 H436 0.950 . S
C446 C447 1.386 . S
C446 C448 1.391 . S
C447 C446 1.386 . S
C447 C451 1.393 . S
C448 H437 0.950 . S
C448 C446 1.391 . S
C448 C449 1.400 . S
C449 C443 1.491 . S
C449 C448 1.400 . S
C449 C450 1.398 . S
C450 H438 0.950 . S
C450 C449 1.398 . S
C450 C451 1.391 . S
C451 H439 0.950 . S
C451 C447 1.393 . S
C451 C450 1.391 . S
H452 C460 0.950 . S
H453 C465 0.950 . S
H454 C462 0.950 . S
H455 C464 0.950 . S
H456 C466 0.950 . S
H457 C468 0.950 . S
H458 C470 0.950 . S
H459 C471 0.950 . S
C460 H452 0.950 . S
C460 C461 1.386 . S
C460 C462 1.391 . S
C461 C460 1.386 . S
C461 C465 1.393 . S
C462 H454 0.950 . S
C462 C460 1.391 . S
C462 C463 1.400 . S
C463 C462 1.400 . S
C463 C464 1.398 . S
C463 C469 1.491 1_545 S
C464 H455 0.950 . S
C464 C463 1.398 . S
C464 C465 1.391 . S
C465 H453 0.950 . S
C465 C461 1.393 . S
C465 C464 1.391 . S
C466 H456 0.950 . S
C466 C467 1.386 . S
C466 C468 1.391 . S
C467 C466 1.386 . S
C467 C471 1.393 . S
C468 H457 0.950 . S
C468 C466 1.391 . S
C468 C469 1.400 . S
C469 C463 1.491 1_565 S
C469 C468 1.400 . S
C469 C470 1.398 . S
C470 H458 0.950 . S
C470 C469 1.398 . S
C470 C471 1.391 . S
C471 H459 0.950 . S
C471 C467 1.393 . S
C471 C470 1.391 . S
H472 C480 0.950 . S
H473 C485 0.950 1_545 S
H474 C482 0.950 . S
H475 C484 0.950 . S
H476 C486 0.950 . S
H477 C488 0.950 . S
H478 C490 0.950 . S
H479 C491 0.950 . S
C480 H472 0.950 . S
C480 C481 1.386 . S
C480 C482 1.391 . S
C481 C480 1.386 . S
C481 C485 1.393 . S
C482 H474 0.950 . S
C482 C480 1.391 . S
C482 C483 1.400 . S
C483 C482 1.400 . S
C483 C484 1.398 . S
C483 C489 1.491 . S
C484 H475 0.950 . S
C484 C483 1.398 . S
C484 C485 1.391 . S
C485 H473 0.950 1_565 S
C485 C481 1.393 . S
C485 C484 1.391 . S
C486 H476 0.950 . S
C486 C487 1.386 . S
C486 C488 1.391 . S
C487 C486 1.386 . S
C487 C491 1.393 . S
C488 H477 0.950 . S
C488 C486 1.391 . S
C488 C489 1.400 . S
C489 C483 1.491 . S
C489 C488 1.400 . S
C489 C490 1.398 . S
C490 H478 0.950 . S
C490 C489 1.398 . S
C490 C491 1.391 . S
C491 H479 0.950 . S
C491 C487 1.393 . S
C491 C490 1.391 . S
H492 C500 0.950 . S
H493 C505 0.950 . S
H494 C502 0.950 1_545 S
H495 C504 0.950 . S
H496 C506 0.950 . S
H497 C508 0.950 . S
H498 C510 0.950 . S
H499 C511 0.950 . S
C500 H492 0.950 . S
C500 C501 1.386 . S
C500 C502 1.391 . S
C501 C500 1.386 . S
C501 C505 1.393 . S
C502 H494 0.950 1_565 S
C502 C500 1.391 . S
C502 C503 1.400 . S
C503 C502 1.400 . S
C503 C504 1.398 . S
C503 C509 1.491 1_565 S
C504 H495 0.950 . S
C504 C503 1.398 . S
C504 C505 1.391 . S
C505 H493 0.950 . S
C505 C501 1.393 . S
C505 C504 1.391 . S
C506 H496 0.950 . S
C506 C507 1.386 . S
C506 C508 1.391 . S
C507 C506 1.386 . S
C507 C511 1.393 . S
C508 H497 0.950 . S
C508 C506 1.391 . S
C508 C509 1.400 . S
C509 C503 1.491 1_545 S
C509 C508 1.400 . S
C509 C510 1.398 . S
C510 H498 0.950 . S
C510 C509 1.398 . S
C510 C511 1.391 . S
C511 H499 0.950 . S
C511 C507 1.393 . S
C511 C510 1.391 . S
H512 C520 0.950 1_545 S
H513 C525 0.950 . S
H514 C522 0.950 . S
H515 C524 0.950 . S
H516 C526 0.950 . S
H517 C528 0.950 . S
H518 C530 0.950 . S
H519 C531 0.950 . S
C520 H512 0.950 1_565 S
C520 C521 1.386 . S
C520 C522 1.391 . S
C521 C520 1.386 . S
C521 C525 1.393 . S
C522 H514 0.950 . S
C522 C520 1.391 . S
C522 C523 1.400 . S
C523 C522 1.400 . S
C523 C524 1.398 . S
C523 C529 1.491 . S
C524 H515 0.950 . S
C524 C523 1.398 . S
C524 C525 1.391 . S
C525 H513 0.950 . S
C525 C521 1.393 . S
C525 C524 1.391 . S
C526 H516 0.950 . S
C526 C527 1.386 . S
C526 C528 1.391 . S
C527 C526 1.386 . S
C527 C531 1.393 . S
C528 H517 0.950 . S
C528 C526 1.391 . S
C528 C529 1.400 . S
C529 C523 1.491 . S
C529 C528 1.400 . S
C529 C530 1.398 . S
C530 H518 0.950 . S
C530 C529 1.398 . S
C530 C531 1.391 . S
C531 H519 0.950 . S
C531 C527 1.393 . S
C531 C530 1.391 . S
H532 C540 0.950 . S
H533 C545 0.950 . S
H534 C542 0.950 . S
H535 C544 0.950 1_565 S
H536 C546 0.950 . S
H537 C548 0.950 . S
H538 C550 0.954 . S
H539 C551 0.950 . S
C540 H532 0.950 . S
C540 C541 1.386 . S
C540 C542 1.391 . S
C541 C540 1.386 . S
C541 C545 1.393 . S
C542 H534 0.950 . S
C542 C540 1.391 . S
C542 C543 1.400 . S
C543 C542 1.400 . S
C543 C544 1.398 . S
C543 C549 1.491 1_545 S
C544 H535 0.950 1_545 S
C544 C543 1.398 . S
C544 C545 1.391 . S
C545 H533 0.950 . S
C545 C541 1.393 . S
C545 C544 1.391 . S
C546 H536 0.950 . S
C546 C547 1.386 . S
C546 C548 1.391 . S
C547 C546 1.386 . S
C547 C551 1.393 . S
C548 H537 0.950 . S
C548 C546 1.391 . S
C548 C549 1.400 . S
C549 C543 1.491 1_565 S
C549 C548 1.400 . S
C549 C550 1.398 . S
C550 H538 0.954 . S
C550 C549 1.398 . S
C550 C551 1.391 . S
C551 H539 0.950 . S
C551 C547 1.393 . S
C551 C550 1.391 . S
H552 C560 0.950 . S
H553 C565 0.950 1_565 S
H554 C562 0.950 . S
H555 C564 0.950 . S
H556 C566 0.950 . S
H557 C568 0.950 . S
H558 C570 0.950 . S
H559 C571 0.950 . S
C560 H552 0.950 . S
C560 C561 1.386 . S
C560 C562 1.391 . S
C561 C560 1.386 . S
C561 C565 1.393 . S
C562 H554 0.950 . S
C562 C560 1.391 . S
C562 C563 1.400 . S
C563 C562 1.400 . S
C563 C564 1.398 . S
C563 C569 1.491 . S
C564 H555 0.950 . S
C564 C563 1.398 . S
C564 C565 1.391 . S
C565 H553 0.950 1_545 S
C565 C561 1.393 . S
C565 C564 1.391 . S
C566 H556 0.950 . S
C566 C567 1.386 . S
C566 C568 1.391 . S
C567 C566 1.386 . S
C567 C571 1.393 . S
C568 H557 0.950 . S
C568 C566 1.391 . S
C568 C569 1.400 . S
C569 C563 1.491 . S
C569 C568 1.400 . S
C569 C570 1.398 . S
C570 H558 0.950 . S
C570 C569 1.398 . S
C570 C571 1.391 . S
C571 H559 0.950 . S
C571 C567 1.393 . S
C571 C570 1.391 . S
H572 C580 0.950 . S
H573 C585 0.950 . S
H574 C582 0.950 1_545 S
H575 C584 0.950 . S
H576 C586 0.950 . S
H577 C588 0.950 . S
H578 C590 0.950 . S
H579 C591 0.950 . S
C580 H572 0.950 . S
C580 C581 1.386 . S
C580 C582 1.391 . S
C581 C580 1.386 . S
C581 C585 1.393 . S
C582 H574 0.950 1_565 S
C582 C580 1.391 . S
C582 C583 1.400 . S
C583 C582 1.400 . S
C583 C584 1.398 . S
C583 C589 1.491 1_565 S
C584 H575 0.950 . S
C584 C583 1.398 . S
C584 C585 1.391 . S
C585 H573 0.950 . S
C585 C581 1.393 . S
C585 C584 1.391 . S
C586 H576 0.950 . S
C586 C587 1.386 . S
C586 C588 1.391 . S
C587 C586 1.386 . S
C587 C591 1.393 . S
C588 H577 0.950 . S
C588 C586 1.391 . S
C588 C589 1.400 . S
C589 C583 1.491 1_545 S
C589 C588 1.400 . S
C589 C590 1.398 . S
C590 H578 0.950 . S
C590 C589 1.398 . S
C590 C591 1.391 . S
C591 H579 0.950 . S
C591 C587 1.393 . S
C591 C590 1.391 . S
H592 C600 0.950 1_554 S
H593 C605 0.950 . S
H594 C602 0.950 . S
H595 C604 0.950 . S
H596 C606 0.950 . S
H597 C608 0.950 . S
H598 C610 0.950 . S
H599 C611 0.950 . S
C600 H592 0.950 1_556 S
C600 C601 1.386 . S
C600 C602 1.391 . S
C601 C600 1.386 . S
C601 C605 1.393 . S
C602 H594 0.950 . S
C602 C600 1.391 . S
C602 C603 1.400 . S
C603 C602 1.400 . S
C603 C604 1.398 . S
C603 C609 1.491 . S
C604 H595 0.950 . S
C604 C603 1.398 . S
C604 C605 1.391 . S
C605 H593 0.950 . S
C605 C601 1.393 . S
C605 C604 1.391 . S
C606 H596 0.950 . S
C606 C607 1.386 . S
C606 C608 1.391 . S
C607 C606 1.386 . S
C607 C611 1.393 . S
C608 H597 0.950 . S
C608 C606 1.391 . S
C608 C609 1.400 . S
C609 C603 1.491 . S
C609 C608 1.400 . S
C609 C610 1.398 . S
C610 H598 0.950 . S
C610 C609 1.398 . S
C610 C611 1.391 . S
C611 H599 0.950 . S
C611 C607 1.393 . S
C611 C610 1.391 . S
H612 C620 0.950 . S
H613 C625 0.950 . S
H614 C622 0.950 . S
H615 C624 0.950 . S
H616 C626 0.950 . S
H617 C628 0.950 . S
H618 C630 0.950 . S
H619 C631 0.950 . S
C620 H612 0.950 . S
C620 C621 1.386 . S
C620 C622 1.391 . S
C621 C620 1.386 . S
C621 C625 1.393 . S
C622 H614 0.950 . S
C622 C620 1.391 . S
C622 C623 1.400 . S
C623 C622 1.400 . S
C623 C624 1.398 . S
C623 C629 1.491 . S
C624 H615 0.950 . S
C624 C623 1.398 . S
C624 C625 1.391 . S
C625 H613 0.950 . S
C625 C621 1.393 . S
C625 C624 1.391 . S
C626 H616 0.950 . S
C626 C627 1.386 . S
C626 C628 1.391 . S
C627 C626 1.386 . S
C627 C631 1.393 . S
C628 H617 0.950 . S
C628 C626 1.391 . S
C628 C629 1.400 . S
C629 C623 1.491 . S
C629 C628 1.400 . S
C629 C630 1.398 . S
C630 H618 0.950 . S
C630 C629 1.398 . S
C630 C631 1.391 . S
C631 H619 0.950 . S
C631 C627 1.393 . S
C631 C630 1.391 . S
H632 C640 0.950 . S
H633 C645 0.950 . S
H634 C642 0.950 . S
H635 C644 0.950 . S
H636 C646 0.950 . S
H637 C648 0.950 . S
H638 C650 0.950 . S
H639 C651 0.950 . S
C640 H632 0.950 . S
C640 C641 1.386 . S
C640 C642 1.391 . S
C641 C640 1.386 . S
C641 C645 1.393 . S
C642 H634 0.950 . S
C642 C640 1.391 . S
C642 C643 1.400 . S
C643 C642 1.400 . S
C643 C644 1.398 . S
C643 C649 1.491 . S
C644 H635 0.950 . S
C644 C643 1.398 . S
C644 C645 1.391 . S
C645 H633 0.950 . S
C645 C641 1.393 . S
C645 C644 1.391 . S
C646 H636 0.950 . S
C646 C647 1.386 . S
C646 C648 1.391 . S
C647 C646 1.386 . S
C647 C651 1.393 . S
C648 H637 0.950 . S
C648 C646 1.391 . S
C648 C649 1.400 . S
C649 C643 1.491 . S
C649 C648 1.400 . S
C649 C650 1.398 . S
C650 H638 0.950 . S
C650 C649 1.398 . S
C650 C651 1.391 . S
C651 H639 0.950 . S
C651 C647 1.393 . S
C651 C650 1.391 . S
H652 C660 0.950 . S
H653 C665 0.950 . S
H654 C662 0.950 . S
H655 C664 0.950 . S
H656 C666 0.950 . S
H657 C668 0.950 . S
H658 C670 0.950 . S
H659 C671 0.950 . S
C660 H652 0.950 . S
C660 C661 1.386 . S
C660 C662 1.391 . S
C661 C660 1.386 . S
C661 C665 1.393 . S
C662 H654 0.950 . S
C662 C660 1.391 . S
C662 C663 1.400 . S
C663 C662 1.400 . S
C663 C664 1.398 . S
C663 C669 1.491 . S
C664 H655 0.950 . S
C664 C663 1.398 . S
C664 C665 1.391 . S
C665 H653 0.950 . S
C665 C661 1.393 . S
C665 C664 1.391 . S
C666 H656 0.950 . S
C666 C667 1.386 . S
C666 C668 1.391 . S
C667 C666 1.386 . S
C667 C671 1.393 . S
C668 H657 0.950 . S
C668 C666 1.391 . S
C668 C669 1.400 . S
C669 C663 1.491 . S
C669 C668 1.400 . S
C669 C670 1.398 . S
C670 H658 0.950 . S
C670 C669 1.398 . S
C670 C671 1.391 . S
C671 H659 0.950 . S
C671 C667 1.393 . S
C671 C670 1.391 . S
H672 C680 0.950 . S
H673 C685 0.950 . S
H674 C682 0.950 . S
H675 C684 0.950 . S
H676 C686 0.950 . S
H677 C688 0.950 . S
H678 C690 0.950 . S
H679 C691 0.950 . S
C680 H672 0.950 . S
C680 C681 1.386 . S
C680 C682 1.391 . S
C681 C680 1.386 . S
C681 C685 1.393 . S
C682 H674 0.950 . S
C682 C680 1.391 . S
C682 C683 1.400 . S
C683 C682 1.400 . S
C683 C684 1.398 . S
C683 C689 1.491 . S
C684 H675 0.950 . S
C684 C683 1.398 . S
C684 C685 1.391 . S
C685 H673 0.950 . S
C685 C681 1.393 . S
C685 C684 1.391 . S
C686 H676 0.950 . S
C686 C687 1.386 . S
C686 C688 1.391 . S
C687 C686 1.386 . S
C687 C691 1.393 . S
C688 H677 0.950 . S
C688 C686 1.391 . S
C688 C689 1.400 . S
C689 C683 1.491 . S
C689 C688 1.400 . S
C689 C690 1.398 . S
C690 H678 0.950 . S
C690 C689 1.398 . S
C690 C691 1.391 . S
C691 H679 0.950 . S
C691 C687 1.393 . S
C691 C690 1.391 . S
H692 C700 0.950 . S
H693 C705 0.950 . S
H694 C702 0.950 . S
H695 C704 0.950 . S
H696 C706 0.950 . S
H697 C708 0.950 . S
H698 C710 0.950 . S
H699 C711 0.950 . S
C700 H692 0.950 . S
C700 C701 1.386 . S
C700 C702 1.391 . S
C701 C700 1.386 . S
C701 C705 1.393 . S
C702 H694 0.950 . S
C702 C700 1.391 . S
C702 C703 1.400 . S
C703 C702 1.400 . S
C703 C704 1.398 . S
C703 C709 1.491 . S
C704 H695 0.950 . S
C704 C703 1.398 . S
C704 C705 1.391 . S
C705 H693 0.950 . S
C705 C701 1.393 . S
C705 C704 1.391 . S
C706 H696 0.950 . S
C706 C707 1.386 . S
C706 C708 1.391 . S
C707 C706 1.386 . S
C707 C711 1.393 . S
C708 H697 0.950 . S
C708 C706 1.391 . S
C708 C709 1.400 . S
C709 C703 1.491 . S
C709 C708 1.400 . S
C709 C710 1.398 . S
C710 H698 0.950 . S
C710 C709 1.398 . S
C710 C711 1.391 . S
C711 H699 0.950 . S
C711 C707 1.393 . S
C711 C710 1.391 . S
H712 C720 0.950 . S
H713 C725 0.950 . S
H714 C722 0.950 . S
H715 C724 0.950 . S
H716 C726 0.950 . S
H717 C728 0.950 . S
H718 C730 0.950 . S
H719 C731 0.950 . S
C720 H712 0.950 . S
C720 C721 1.386 . S
C720 C722 1.391 . S
C721 C720 1.386 . S
C721 C725 1.393 . S
C722 H714 0.950 . S
C722 C720 1.391 . S
C722 C723 1.400 . S
C723 C722 1.400 . S
C723 C724 1.398 . S
C723 C729 1.491 . S
C724 H715 0.950 . S
C724 C723 1.398 . S
C724 C725 1.391 . S
C725 H713 0.950 . S
C725 C721 1.393 . S
C725 C724 1.391 . S
C726 H716 0.950 . S
C726 C727 1.386 . S
C726 C728 1.391 . S
C727 C726 1.386 . S
C727 C731 1.393 . S
C728 H717 0.950 . S
C728 C726 1.391 . S
C728 C729 1.400 . S
C729 C723 1.491 . S
C729 C728 1.400 . S
C729 C730 1.398 . S
C730 H718 0.950 . S
C730 C729 1.398 . S
C730 C731 1.391 . S
C731 H719 0.950 . S
C731 C727 1.393 . S
C731 C730 1.391 . S
H732 C740 0.950 . S
H733 C745 0.950 . S
H734 C742 0.950 . S
H735 C744 0.950 . S
H736 C746 0.950 . S
H737 C748 0.950 . S
H738 C750 0.950 . S
H739 C751 0.950 . S
C740 H732 0.950 . S
C740 C741 1.386 . S
C740 C742 1.391 . S
C741 C740 1.386 . S
C741 C745 1.393 . S
C742 H734 0.950 . S
C742 C740 1.391 . S
C742 C743 1.400 . S
C743 C742 1.400 . S
C743 C744 1.398 . S
C743 C749 1.491 . S
C744 H735 0.950 . S
C744 C743 1.398 . S
C744 C745 1.391 . S
C745 H733 0.950 . S
C745 C741 1.393 . S
C745 C744 1.391 . S
C746 H736 0.950 . S
C746 C747 1.386 . S
C746 C748 1.391 . S
C747 C746 1.386 . S
C747 C751 1.393 . S
C748 H737 0.950 . S
C748 C746 1.391 . S
C748 C749 1.400 . S
C749 C743 1.491 . S
C749 C748 1.400 . S
C749 C750 1.398 . S
C750 H738 0.950 . S
C750 C749 1.398 . S
C750 C751 1.391 . S
C751 H739 0.950 . S
C751 C747 1.393 . S
C751 C750 1.391 . S
H752 C760 0.950 . S
H753 C765 0.950 . S
H754 C762 0.950 . S
H755 C764 0.950 . S
H756 C766 0.950 . S
H757 C768 0.950 . S
H758 C770 0.950 . S
H759 C771 0.950 . S
C760 H752 0.950 . S
C760 C761 1.386 . S
C760 C762 1.391 . S
C761 C760 1.386 . S
C761 C765 1.393 . S
C762 H754 0.950 . S
C762 C760 1.391 . S
C762 C763 1.400 . S
C763 C762 1.400 . S
C763 C764 1.398 . S
C763 C769 1.491 . S
C764 H755 0.950 . S
C764 C763 1.398 . S
C764 C765 1.391 . S
C765 H753 0.950 . S
C765 C761 1.393 . S
C765 C764 1.391 . S
C766 H756 0.950 . S
C766 C767 1.386 . S
C766 C768 1.391 . S
C767 C766 1.386 . S
C767 C771 1.393 . S
C768 H757 0.950 . S
C768 C766 1.391 . S
C768 C769 1.400 . S
C769 C763 1.491 . S
C769 C768 1.400 . S
C769 C770 1.398 . S
C770 H758 0.950 . S
C770 C769 1.398 . S
C770 C771 1.391 . S
C771 H759 0.950 . S
C771 C767 1.393 . S
C771 C770 1.391 . S
H772 C780 0.950 . S
H773 C785 0.950 . S
H774 C782 0.950 . S
H775 C784 0.950 . S
H776 C786 0.950 . S
H777 C788 0.950 . S
H778 C790 0.950 . S
H779 C791 0.950 . S
C780 H772 0.950 . S
C780 C781 1.386 . S
C780 C782 1.391 . S
C781 C780 1.386 . S
C781 C785 1.393 . S
C782 H774 0.950 . S
C782 C780 1.391 . S
C782 C783 1.400 . S
C783 C782 1.400 . S
C783 C784 1.398 . S
C783 C789 1.491 . S
C784 H775 0.950 . S
C784 C783 1.398 . S
C784 C785 1.391 . S
C785 H773 0.950 . S
C785 C781 1.393 . S
C785 C784 1.391 . S
C786 H776 0.950 . S
C786 C787 1.386 . S
C786 C788 1.391 . S
C787 C786 1.386 . S
C787 C791 1.393 . S
C788 H777 0.950 . S
C788 C786 1.391 . S
C788 C789 1.400 . S
C789 C783 1.491 . S
C789 C788 1.400 . S
C789 C790 1.398 . S
C790 H778 0.950 . S
C790 C789 1.398 . S
C790 C791 1.391 . S
C791 H779 0.950 . S
C791 C787 1.393 . S
C791 C790 1.391 . S
H792 C800 0.950 . S
H793 C805 0.950 . S
H794 C802 0.950 . S
H795 C804 0.950 . S
H796 C806 0.950 . S
H797 C808 0.950 . S
H798 C810 0.950 . S
H799 C811 0.950 . S
C800 H792 0.950 . S
C800 C801 1.386 . S
C800 C802 1.391 . S
C801 C800 1.386 . S
C801 C805 1.393 . S
C802 H794 0.950 . S
C802 C800 1.391 . S
C802 C803 1.400 . S
C803 C802 1.400 . S
C803 C804 1.398 . S
C803 C809 1.491 . S
C804 H795 0.950 . S
C804 C803 1.398 . S
C804 C805 1.391 . S
C805 H793 0.950 . S
C805 C801 1.393 . S
C805 C804 1.391 . S
C806 H796 0.950 . S
C806 C807 1.386 . S
C806 C808 1.391 . S
C807 C806 1.386 . S
C807 C811 1.393 . S
C808 H797 0.950 . S
C808 C806 1.391 . S
C808 C809 1.400 . S
C809 C803 1.491 . S
C809 C808 1.400 . S
C809 C810 1.398 . S
C810 H798 0.950 . S
C810 C809 1.398 . S
C810 C811 1.391 . S
C811 H799 0.950 . S
C811 C807 1.393 . S
C811 C810 1.391 . S
H812 C820 0.950 . S
H813 C825 0.950 . S
H814 C822 0.950 . S
H815 C824 0.950 . S
H816 C826 0.950 . S
H817 C828 0.950 . S
H818 C830 0.950 . S
H819 C831 0.950 . S
C820 H812 0.950 . S
C820 C821 1.386 . S
C820 C822 1.391 . S
C821 C820 1.386 . S
C821 C825 1.393 . S
C822 H814 0.950 . S
C822 C820 1.391 . S
C822 C823 1.400 . S
C823 C822 1.400 . S
C823 C824 1.398 . S
C823 C829 1.491 . S
C824 H815 0.950 . S
C824 C823 1.398 . S
C824 C825 1.391 . S
C825 H813 0.950 . S
C825 C821 1.393 . S
C825 C824 1.391 . S
C826 H816 0.950 . S
C826 C827 1.386 . S
C826 C828 1.391 . S
C827 C826 1.386 . S
C827 C831 1.393 . S
C828 H817 0.950 . S
C828 C826 1.391 . S
C828 C829 1.400 . S
C829 C823 1.491 . S
C829 C828 1.400 . S
C829 C830 1.398 . S
C830 H818 0.950 . S
C830 C829 1.398 . S
C830 C831 1.391 . S
C831 H819 0.950 . S
C831 C827 1.393 . S
C831 C830 1.391 . S
H832 C840 0.950 . S
H833 C845 0.950 . S
H834 C842 0.950 . S
H835 C844 0.950 . S
H836 C846 0.950 . S
H837 C848 0.950 . S
H838 C850 0.950 . S
H839 C851 0.950 . S
C840 H832 0.950 . S
C840 C841 1.386 . S
C840 C842 1.391 . S
C841 C840 1.386 . S
C841 C845 1.393 . S
C842 H834 0.950 . S
C842 C840 1.391 . S
C842 C843 1.400 . S
C843 C842 1.400 . S
C843 C844 1.398 . S
C843 C849 1.491 . S
C844 H835 0.950 . S
C844 C843 1.398 . S
C844 C845 1.391 . S
C845 H833 0.950 . S
C845 C841 1.393 . S
C845 C844 1.391 . S
C846 H836 0.950 . S
C846 C847 1.386 . S
C846 C848 1.391 . S
C847 C846 1.386 . S
C847 C851 1.393 . S
C848 H837 0.950 . S
C848 C846 1.391 . S
C848 C849 1.400 . S
C849 C843 1.491 . S
C849 C848 1.400 . S
C849 C850 1.398 . S
C850 H838 0.950 . S
C850 C849 1.398 . S
C850 C851 1.391 . S
C851 H839 0.950 . S
C851 C847 1.393 . S
C851 C850 1.391 . S
H852 C860 0.950 . S
H853 C865 0.950 . S
H854 C862 0.950 . S
H855 C864 0.950 . S
H856 C866 0.950 . S
H857 C868 0.950 . S
H858 C870 0.950 . S
H859 C871 0.950 . S
C860 H852 0.950 . S
C860 C861 1.386 . S
C860 C862 1.391 . S
C861 C860 1.386 . S
C861 C865 1.393 . S
C862 H854 0.950 . S
C862 C860 1.391 . S
C862 C863 1.400 . S
C863 C862 1.400 . S
C863 C864 1.398 . S
C863 C869 1.491 . S
C864 H855 0.950 . S
C864 C863 1.398 . S
C864 C865 1.391 . S
C865 H853 0.950 . S
C865 C861 1.393 . S
C865 C864 1.391 . S
C866 H856 0.950 . S
C866 C867 1.386 . S
C866 C868 1.391 . S
C867 C866 1.386 . S
C867 C871 1.393 . S
C868 H857 0.950 . S
C868 C866 1.391 . S
C868 C869 1.400 . S
C869 C863 1.491 . S
C869 C868 1.400 . S
C869 C870 1.398 . S
C870 H858 0.950 . S
C870 C869 1.398 . S
C870 C871 1.391 . S
C871 H859 0.950 . S
C871 C867 1.393 . S
C871 C870 1.391 . S
H872 C880 0.950 . S
H873 C885 0.950 . S
H874 C882 0.950 . S
H875 C884 0.950 . S
H876 C886 0.950 . S
H877 C888 0.950 . S
H878 C890 0.950 . S
H879 C891 0.950 . S
C880 H872 0.950 . S
C880 C881 1.386 . S
C880 C882 1.391 . S
C881 C880 1.386 . S
C881 C885 1.393 . S
C882 H874 0.950 . S
C882 C880 1.391 . S
C882 C883 1.400 . S
C883 C882 1.400 . S
C883 C884 1.398 . S
C883 C889 1.491 . S
C884 H875 0.950 . S
C884 C883 1.398 . S
C884 C885 1.391 . S
C885 H873 0.950 . S
C885 C881 1.393 . S
C885 C884 1.391 . S
C886 H876 0.950 . S
C886 C887 1.386 . S
C886 C888 1.391 . S
C887 C886 1.386 . S
C887 C891 1.393 . S
C888 H877 0.950 . S
C888 C886 1.391 . S
C888 C889 1.400 . S
C889 C883 1.491 . S
C889 C888 1.400 . S
C889 C890 1.398 . S
C890 H878 0.950 . S
C890 C889 1.398 . S
C890 C891 1.391 . S
C891 H879 0.950 . S
C891 C887 1.393 . S
C891 C890 1.391 . S
H892 C900 0.950 . S
H893 C905 0.950 . S
H894 C902 0.950 . S
H895 C904 0.950 . S
H896 C906 0.950 . S
H897 C908 0.950 . S
H898 C910 0.950 . S
H899 C911 0.950 . S
C900 H892 0.950 . S
C900 C901 1.386 . S
C900 C902 1.391 . S
C901 C900 1.386 . S
C901 C905 1.393 . S
C902 H894 0.950 . S
C902 C900 1.391 . S
C902 C903 1.400 . S
C903 C902 1.400 . S
C903 C904 1.398 . S
C903 C909 1.491 . S
C904 H895 0.950 . S
C904 C903 1.398 . S
C904 C905 1.391 . S
C905 H893 0.950 . S
C905 C901 1.393 . S
C905 C904 1.391 . S
C906 H896 0.950 . S
C906 C907 1.386 . S
C906 C908 1.391 . S
C907 C906 1.386 . S
C907 C911 1.393 . S
C908 H897 0.950 . S
C908 C906 1.391 . S
C908 C909 1.400 . S
C909 C903 1.491 . S
C909 C908 1.400 . S
C909 C910 1.398 . S
C910 H898 0.950 . S
C910 C909 1.398 . S
C910 C911 1.391 . S
C911 H899 0.950 . S
C911 C907 1.393 . S
C911 C910 1.391 . S
C287 C193 1.547 . S
C281 C14 1.539 . S
C301 C25 1.540 . S
C307 C225 1.547 . S
C321 C50 1.527 . S
C327 C248 1.565 . S
C347 C152 1.561 . S
C341 C68 1.547 . S
C367 C235 1.378 . S
C361 C16 1.484 . S
C387 C264 1.390 . S
C381 C26 1.492 . S
C407 C168 1.398 . S
C401 C52 1.484 . S
C427 C203 1.386 . S
C421 C70 1.488 . S
C441 C8 1.485 . S
C447 C231 1.415 . S
C461 C88 1.480 . S
C467 C206 1.383 . S
C481 C44 1.478 . S
C487 C174 1.371 . S
C507 C263 1.385 . S
C501 C98 1.482 . S
C527 C207 1.546 . S
C521 C7 1.538 . S
C541 C86 1.526 . S
C547 C175 1.558 . S
C561 C43 1.521 . S
C567 C262 1.564 . S
C587 C230 1.555 . S
C581 C97 1.539 . S
C601 C116 1.540 . S
C607 C257 1.547 . S
C621 C79 1.520 . S
C627 C161 1.555 . S
C641 C140 1.530 . S
C647 C184 1.569 . S
C661 C104 1.528 . S
C667 C216 1.569 . S
C687 C171 1.408 . S
C681 C115 1.511 . S
C701 C80 1.505 . S
C707 C200 1.398 . S
C721 C142 1.487 . S
C727 C232 1.404 . S
C747 C267 1.387 . S
C741 C106 1.494 . S
C761 C122 1.494 . S
C767 C167 1.393 . S
C781 C34 1.498 . S
C787 C270 1.407 . S
C801 C134 1.482 . S
C807 C238 1.389 . S
C827 C199 1.404 . S
C821 C62 1.481 . S
C847 C271 1.543 . S
C841 C124 1.533 . S
C867 C239 1.551 . S
C861 C32 1.540 . S
C887 C198 1.560 . S
C881 C133 1.525 . S
C907 C166 1.555 . S
C901 C61 1.538 . S
