# Generated by pormake.
# Topology ctn, (3,4)-cn, num edge types: 1
# Building blocks:
#     Node 0, Type 0, BuildingBlock: BELTOD_clean_linker_0, # of connection points: 3
#     Node 1, Type 0, BuildingBlock: BELTOD_clean_linker_0, # of connection points: 3
#     Node 2, Type 0, BuildingBlock: BELTOD_clean_linker_0, # of connection points: 3
#     Node 3, Type 0, BuildingBlock: BELTOD_clean_linker_0, # of connection points: 3
#     Node 4, Type 0, BuildingBlock: BELTOD_clean_linker_0, # of connection points: 3
#     Node 5, Type 0, BuildingBlock: BELTOD_clean_linker_0, # of connection points: 3
#     Node 6, Type 0, BuildingBlock: BELTOD_clean_linker_0, # of connection points: 3
#     Node 7, Type 0, BuildingBlock: BELTOD_clean_linker_0, # of connection points: 3
#     Node 8, Type 0, BuildingBlock: BELTOD_clean_linker_0, # of connection points: 3
#     Node 9, Type 0, BuildingBlock: BELTOD_clean_linker_0, # of connection points: 3
#     Node 10, Type 0, BuildingBlock: BELTOD_clean_linker_0, # of connection points: 3
#     Node 11, Type 0, BuildingBlock: BELTOD_clean_linker_0, # of connection points: 3
#     Node 12, Type 0, BuildingBlock: BELTOD_clean_linker_0, # of connection points: 3
#     Node 13, Type 0, BuildingBlock: BELTOD_clean_linker_0, # of connection points: 3
#     Node 14, Type 0, BuildingBlock: BELTOD_clean_linker_0, # of connection points: 3
#     Node 15, Type 0, BuildingBlock: BELTOD_clean_linker_0, # of connection points: 3
#     Node 16, Type 1, BuildingBlock: KUFVIS_clean_sbu_0, # of connection points: 4
#     Node 17, Type 1, BuildingBlock: KUFVIS_clean_sbu_0, # of connection points: 4
#     Node 18, Type 1, BuildingBlock: KUFVIS_clean_sbu_0, # of connection points: 4
#     Node 19, Type 1, BuildingBlock: KUFVIS_clean_sbu_0, # of connection points: 4
#     Node 20, Type 1, BuildingBlock: KUFVIS_clean_sbu_0, # of connection points: 4
#     Node 21, Type 1, BuildingBlock: KUFVIS_clean_sbu_0, # of connection points: 4
#     Node 22, Type 1, BuildingBlock: KUFVIS_clean_sbu_0, # of connection points: 4
#     Node 23, Type 1, BuildingBlock: KUFVIS_clean_sbu_0, # of connection points: 4
#     Node 24, Type 1, BuildingBlock: KUFVIS_clean_sbu_0, # of connection points: 4
#     Node 25, Type 1, BuildingBlock: KUFVIS_clean_sbu_0, # of connection points: 4
#     Node 26, Type 1, BuildingBlock: KUFVIS_clean_sbu_0, # of connection points: 4
#     Node 27, Type 1, BuildingBlock: KUFVIS_clean_sbu_0, # of connection points: 4
#     Edge 28, Type (0, 1), BuildingBlock: KIFKEQ_clean_linker_1, # of connection points: 2
#     Edge 29, Type (0, 1), BuildingBlock: KIFKEQ_clean_linker_1, # of connection points: 2
#     Edge 30, Type (0, 1), BuildingBlock: KIFKEQ_clean_linker_1, # of connection points: 2
#     Edge 31, Type (0, 1), BuildingBlock: KIFKEQ_clean_linker_1, # of connection points: 2
#     Edge 32, Type (0, 1), BuildingBlock: KIFKEQ_clean_linker_1, # of connection points: 2
#     Edge 33, Type (0, 1), BuildingBlock: KIFKEQ_clean_linker_1, # of connection points: 2
#     Edge 34, Type (0, 1), BuildingBlock: KIFKEQ_clean_linker_1, # of connection points: 2
#     Edge 35, Type (0, 1), BuildingBlock: KIFKEQ_clean_linker_1, # of connection points: 2
#     Edge 36, Type (0, 1), BuildingBlock: KIFKEQ_clean_linker_1, # of connection points: 2
#     Edge 37, Type (0, 1), BuildingBlock: KIFKEQ_clean_linker_1, # of connection points: 2
#     Edge 38, Type (0, 1), BuildingBlock: KIFKEQ_clean_linker_1, # of connection points: 2
#     Edge 39, Type (0, 1), BuildingBlock: KIFKEQ_clean_linker_1, # of connection points: 2
#     Edge 40, Type (0, 1), BuildingBlock: KIFKEQ_clean_linker_1, # of connection points: 2
#     Edge 41, Type (0, 1), BuildingBlock: KIFKEQ_clean_linker_1, # of connection points: 2
#     Edge 42, Type (0, 1), BuildingBlock: KIFKEQ_clean_linker_1, # of connection points: 2
#     Edge 43, Type (0, 1), BuildingBlock: KIFKEQ_clean_linker_1, # of connection points: 2
#     Edge 44, Type (0, 1), BuildingBlock: KIFKEQ_clean_linker_1, # of connection points: 2
#     Edge 45, Type (0, 1), BuildingBlock: KIFKEQ_clean_linker_1, # of connection points: 2
#     Edge 46, Type (0, 1), BuildingBlock: KIFKEQ_clean_linker_1, # of connection points: 2
#     Edge 47, Type (0, 1), BuildingBlock: KIFKEQ_clean_linker_1, # of connection points: 2
#     Edge 48, Type (0, 1), BuildingBlock: KIFKEQ_clean_linker_1, # of connection points: 2
#     Edge 49, Type (0, 1), BuildingBlock: KIFKEQ_clean_linker_1, # of connection points: 2
#     Edge 50, Type (0, 1), BuildingBlock: KIFKEQ_clean_linker_1, # of connection points: 2
#     Edge 51, Type (0, 1), BuildingBlock: KIFKEQ_clean_linker_1, # of connection points: 2
#     Edge 52, Type (0, 1), BuildingBlock: KIFKEQ_clean_linker_1, # of connection points: 2
#     Edge 53, Type (0, 1), BuildingBlock: KIFKEQ_clean_linker_1, # of connection points: 2
#     Edge 54, Type (0, 1), BuildingBlock: KIFKEQ_clean_linker_1, # of connection points: 2
#     Edge 55, Type (0, 1), BuildingBlock: KIFKEQ_clean_linker_1, # of connection points: 2
#     Edge 56, Type (0, 1), BuildingBlock: KIFKEQ_clean_linker_1, # of connection points: 2
#     Edge 57, Type (0, 1), BuildingBlock: KIFKEQ_clean_linker_1, # of connection points: 2
#     Edge 58, Type (0, 1), BuildingBlock: KIFKEQ_clean_linker_1, # of connection points: 2
#     Edge 59, Type (0, 1), BuildingBlock: KIFKEQ_clean_linker_1, # of connection points: 2
#     Edge 60, Type (0, 1), BuildingBlock: KIFKEQ_clean_linker_1, # of connection points: 2
#     Edge 61, Type (0, 1), BuildingBlock: KIFKEQ_clean_linker_1, # of connection points: 2
#     Edge 62, Type (0, 1), BuildingBlock: KIFKEQ_clean_linker_1, # of connection points: 2
#     Edge 63, Type (0, 1), BuildingBlock: KIFKEQ_clean_linker_1, # of connection points: 2
#     Edge 64, Type (0, 1), BuildingBlock: KIFKEQ_clean_linker_1, # of connection points: 2
#     Edge 65, Type (0, 1), BuildingBlock: KIFKEQ_clean_linker_1, # of connection points: 2
#     Edge 66, Type (0, 1), BuildingBlock: KIFKEQ_clean_linker_1, # of connection points: 2
#     Edge 67, Type (0, 1), BuildingBlock: KIFKEQ_clean_linker_1, # of connection points: 2
#     Edge 68, Type (0, 1), BuildingBlock: KIFKEQ_clean_linker_1, # of connection points: 2
#     Edge 69, Type (0, 1), BuildingBlock: KIFKEQ_clean_linker_1, # of connection points: 2
#     Edge 70, Type (0, 1), BuildingBlock: KIFKEQ_clean_linker_1, # of connection points: 2
#     Edge 71, Type (0, 1), BuildingBlock: KIFKEQ_clean_linker_1, # of connection points: 2
#     Edge 72, Type (0, 1), BuildingBlock: KIFKEQ_clean_linker_1, # of connection points: 2
#     Edge 73, Type (0, 1), BuildingBlock: KIFKEQ_clean_linker_1, # of connection points: 2
#     Edge 74, Type (0, 1), BuildingBlock: KIFKEQ_clean_linker_1, # of connection points: 2
#     Edge 75, Type (0, 1), BuildingBlock: KIFKEQ_clean_linker_1, # of connection points: 2
# Relax obj value: 0.013
# Max RMSD: 0.066
# Mean RMSD: 0.034
data_MOF--net-ctn--node1-KUFVIS_clean_sbu_0--node2-BELTOD_clean_linker_0--edge1-KIFKEQ_clean_linker_1
_symmetry_space_group_name_H-M    P1
_symmetry_Int_Tables_number       1
_symmetry_cell_setting            triclinic
loop_
_symmetry_equiv_pos_as_xyz
'x, y, z'
_cell_length_a     62.416237
_cell_length_b     62.739332
_cell_length_c     62.488254
_cell_angle_alpha  90.306549
_cell_angle_beta   90.333746
_cell_angle_gamma 92.268754
loop_
_atom_site_label
_atom_site_type_symbol
_atom_site_fract_x
_atom_site_fract_y
_atom_site_fract_z
_atom_type_partial_charge
P0 P 0.06609 0.06644 0.06549 0.0
H1 H 0.06745 0.06173 0.11189 0.0
H2 H 0.04104 0.0491 0.13805 0.0
H3 H 0.99544 0.03567 0.08695 0.0
H4 H 0.02222 0.04803 0.06078 0.0
H5 H 0.10606 0.0676 0.04176 0.0
H6 H 0.12971 0.03989 0.02946 0.0
H7 H 0.08687 0.99158 0.05632 0.0
H8 H 0.06279 0.01928 0.06795 0.0
H9 H 0.03166 0.09643 0.06636 0.0
H10 H 0.07287 0.06998 0.01869 0.0
O11 O 0.08242 0.08392 0.0784 0.0
H12 H 0.01749 0.12054 0.03958 0.0
H13 H 0.05917 0.09439 0.99212 0.0
C14 C 0.04661 0.05627 0.08446 0.0
C15 C 0.05175 0.05612 0.10631 0.0
C16 C 0.03659 0.04896 0.12127 0.0
C17 C 0.01599 0.04164 0.11465 0.0
C18 C 0.01115 0.04115 0.0926 0.0
C19 C 0.02638 0.04835 0.07764 0.0
C20 C 0.08254 0.04555 0.05557 0.0
C21 C 0.10156 0.05103 0.04471 0.0
C22 C 0.11506 0.03521 0.0377 0.0
C23 C 0.11007 0.01363 0.04193 0.0
C24 C 0.09108 0.00813 0.05291 0.0
C25 C 0.0773 0.02397 0.0595 0.0
C26 C 0.05322 0.08119 0.0446 0.0
C27 C 0.03737 0.09548 0.05007 0.0
C28 C 0.0293 0.10929 0.03476 0.0
C29 C 0.03731 0.10941 0.01379 0.0
C30 C 0.05285 0.09477 0.00822 0.0
C31 C 0.06067 0.08074 0.02346 0.0
P32 P 0.3318 0.68164 0.18048 0.0
H33 H 0.35153 0.70072 0.14259 0.0
H34 H 0.3425 0.73093 0.12023 0.0
H35 H 0.28899 0.74335 0.16139 0.0
H36 H 0.29817 0.71295 0.18378 0.0
H37 H 0.35753 0.65672 0.20913 0.0
H38 H 0.38112 0.66615 0.23937 0.0
H39 H 0.36516 0.73222 0.23286 0.0
H40 H 0.34189 0.72269 0.20242 0.0
H41 H 0.30093 0.65515 0.15635 0.0
H42 H 0.30968 0.67598 0.2218 0.0
O43 O 0.3459 0.66537 0.16531 0.0
H44 H 0.27018 0.63229 0.16691 0.0
H45 H 0.27884 0.65335 0.23247 0.0
C46 C 0.32526 0.70436 0.16457 0.0
C47 C 0.3378 0.70987 0.14678 0.0
C48 C 0.33261 0.72713 0.13398 0.0
C49 C 0.31491 0.73939 0.13892 0.0
C50 C 0.30275 0.73423 0.15721 0.0
C51 C 0.30788 0.7168 0.16992 0.0
C52 C 0.34825 0.68902 0.20333 0.0
C53 C 0.35912 0.67323 0.21425 0.0
C54 C 0.37247 0.67863 0.23164 0.0
C55 C 0.37514 0.69997 0.23848 0.0
C56 C 0.36375 0.71569 0.22778 0.0
C57 C 0.35036 0.71025 0.21039 0.0
C58 C 0.3078 0.66692 0.18833 0.0
C59 C 0.29608 0.65495 0.17297 0.0
C60 C 0.27843 0.64199 0.17902 0.0
C61 C 0.27218 0.64083 0.20058 0.0
C62 C 0.28349 0.65358 0.2158 0.0
C63 C 0.3011 0.66659 0.2097 0.0
P64 P 0.99031 0.49183 0.02578 0.0
H65 H 0.01051 0.47798 0.98615 0.0
H66 H 0.01251 0.44348 0.96852 0.0
H67 H 0.97074 0.41534 0.01658 0.0
H68 H 0.96979 0.44995 0.03476 0.0
H69 H 0.97922 0.53582 0.03296 0.0
H70 H 0.94576 0.55463 0.03011 0.0
H71 H 0.91258 0.49615 0.01013 0.0
H72 H 0.94602 0.47722 0.01349 0.0
H73 H 0.02047 0.46329 0.04543 0.0
H74 H 0.9801 0.51348 0.06641 0.0
O75 O 0.00891 0.50792 0.01453 0.0
H76 H 0.0362 0.46169 0.08115 0.0
H77 H 0.99649 0.5128 0.1017 0.0
C78 C 0.98999 0.46655 0.01179 0.0
C79 C 1.00173 0.46442 0.9929 0.0
C80 C 1.00273 0.44461 0.98271 0.0
C81 C 0.99179 0.42646 0.99104 0.0
C82 C 0.9797 0.4288 0.00984 0.0
C83 C 0.97892 0.44863 0.02016 0.0
C84 C 0.96517 0.50506 0.02365 0.0
C85 C 0.96472 0.52696 0.02815 0.0
C86 C 0.9456 0.53771 0.02654 0.0
C87 C 0.92657 0.52684 0.01995 0.0
C88 C 0.92705 0.50493 0.01518 0.0
C89 C 0.94617 0.49408 0.01719 0.0
C90 C 0.99883 0.48829 0.05317 0.0
C91 C 0.0147 0.47375 0.05778 0.0
C92 C 0.02393 0.47307 0.0782 0.0
C93 C 0.01781 0.48725 0.09439 0.0
C94 C 1.00146 0.5014 0.08983 0.0
C95 C 0.99209 0.50191 0.06945 0.0
P96 P 0.67887 0.83099 0.17752 0.0
H97 H 0.70288 0.86396 0.15397 0.0
H98 H 0.73236 0.88903 0.16392 0.0
H99 H 0.73353 0.86202 0.22732 0.0
H100 H 0.70421 0.83693 0.21727 0.0
H101 H 0.65919 0.78829 0.17127 0.0
H102 H 0.66872 0.75809 0.14891 0.0
H103 H 0.72658 0.79278 0.12961 0.0
H104 H 0.71734 0.82245 0.15255 0.0
H105 H 0.6399 0.84889 0.19435 0.0
H106 H 0.68267 0.79956 0.21193 0.0
O107 O 0.66364 0.84366 0.16004 0.0
H108 H 0.61798 0.84089 0.22561 0.0
H109 H 0.66135 0.79199 0.24395 0.0
C110 C 0.70106 0.84883 0.18497 0.0
C111 C 0.70949 0.86343 0.17001 0.0
C112 C 0.72642 0.87764 0.17566 0.0
C113 C 0.73514 0.87758 0.19644 0.0
C114 C 0.72692 0.86263 0.21128 0.0
C115 C 0.71015 0.84826 0.20553 0.0
C116 C 0.68777 0.80748 0.16402 0.0
C117 C 0.67422 0.78915 0.16268 0.0
C118 C 0.67956 0.77198 0.14963 0.0
C119 C 0.69841 0.77296 0.13734 0.0
C120 C 0.71214 0.79124 0.13909 0.0
C121 C 0.70682 0.80833 0.15223 0.0
C122 C 0.6627 0.82457 0.20062 0.0
C123 C 0.64458 0.8363 0.20498 0.0
C124 C 0.63218 0.83186 0.22307 0.0
C125 C 0.63783 0.81579 0.23745 0.0
C126 C 0.65624 0.80423 0.23311 0.0
C127 C 0.66852 0.80857 0.21485 0.0
P128 P 0.05543 0.94575 0.46069 0.0
H129 H 0.09533 0.94408 0.48472 0.0
H130 H 0.12276 0.97121 0.49504 0.0
H131 H 0.08452 0.01992 0.46714 0.0
H132 H 0.05714 0.99277 0.45694 0.0
H133 H 0.02277 0.91151 0.46088 0.0
H134 H 0.0086 0.8884 0.48929 0.0
H135 H 0.04355 0.92697 0.53627 0.0
H136 H 0.05761 0.94998 0.50785 0.0
H137 H 0.05597 0.94586 0.41411 0.0
H138 H 0.01503 0.96819 0.46408 0.0
O139 O 0.06978 0.92727 0.44874 0.0
H140 H 0.03163 0.95886 0.38714 0.0
H141 H 0.99073 0.98222 0.43702 0.0
C142 C 0.07426 0.96635 0.46997 0.0
C143 C 0.09275 0.96064 0.48104 0.0
C144 C 0.10836 0.97616 0.48702 0.0
C145 C 0.10584 0.99768 0.48181 0.0
C146 C 0.08701 0.00342 0.47117 0.0
C147 C 0.0713 0.98789 0.46538 0.0
C148 C 0.04134 0.93238 0.48217 0.0
C149 C 0.02695 0.91529 0.47735 0.0
C150 C 0.01884 0.90211 0.49362 0.0
C151 C 0.02515 0.90571 0.51502 0.0
C152 C 0.03866 0.92358 0.5199 0.0
C153 C 0.04667 0.93682 0.50362 0.0
C154 C 0.0371 0.95571 0.44108 0.0
C155 C 0.04171 0.95364 0.41929 0.0
C156 C 0.02784 0.96138 0.40383 0.0
C157 C 0.00917 0.97175 0.40981 0.0
C158 C 0.00478 0.97409 0.43178 0.0
C159 C 0.01866 0.96614 0.44728 0.0
P160 P 0.21366 0.71057 0.79843 0.0
H161 H 0.2497 0.73227 0.81975 0.0
H162 H 0.25295 0.75466 0.85167 0.0
H163 H 0.18509 0.7444 0.86334 0.0
H164 H 0.18233 0.72095 0.83202 0.0
H165 H 0.22531 0.67945 0.76634 0.0
H166 H 0.2465 0.64751 0.7678 0.0
H167 H 0.25309 0.65511 0.83626 0.0
H168 H 0.23137 0.68676 0.83482 0.0
H169 H 0.18119 0.74197 0.79291 0.0
H170 H 0.18635 0.6745 0.78137 0.0
O171 O 0.22733 0.72488 0.78026 0.0
H172 H 0.14596 0.74078 0.77552 0.0
H173 H 0.15146 0.67347 0.76323 0.0
C174 C 0.21569 0.72545 0.82318 0.0
C175 C 0.23556 0.73475 0.82928 0.0
C176 C 0.23733 0.74771 0.84747 0.0
C177 C 0.21918 0.75184 0.85987 0.0
C178 C 0.19942 0.74164 0.85422 0.0
C179 C 0.19776 0.72838 0.83613 0.0
C180 C 0.22665 0.68546 0.80044 0.0
C181 C 0.23092 0.67399 0.78173 0.0
C182 C 0.24302 0.65575 0.78258 0.0
C183 C 0.25147 0.64887 0.80214 0.0
C184 C 0.24687 0.66015 0.82095 0.0
C185 C 0.2344 0.67821 0.82013 0.0
C186 C 0.18638 0.70832 0.78866 0.0
C187 C 0.17458 0.72682 0.78701 0.0
C188 C 0.15446 0.72614 0.77706 0.0
C189 C 0.14602 0.70703 0.76805 0.0
C190 C 0.15767 0.68841 0.77002 0.0
C191 C 0.17764 0.68902 0.78039 0.0
P192 P 0.99509 0.5176 0.49653 0.0
H193 H 0.02275 0.48676 0.47696 0.0
H194 H 0.03835 0.4836 0.4415 0.0
H195 H 0.0065 0.54022 0.42163 0.0
H196 H 0.99037 0.54284 0.45712 0.0
H197 H 0.97291 0.53593 0.53254 0.0
H198 H 0.97526 0.57106 0.5498 0.0
H199 H 0.01961 0.59352 0.5015 0.0
H200 H 0.01803 0.55806 0.4847 0.0
H201 H 0.97385 0.48894 0.52718 0.0
H202 H 0.95729 0.52049 0.46859 0.0
O203 O 0.01079 0.50426 0.51303 0.0
H204 H 0.93753 0.47337 0.52944 0.0
H205 H 0.92099 0.50447 0.47037 0.0
C206 C 0.00589 0.5154 0.4699 0.0
C207 C 0.01915 0.49855 0.46502 0.0
C208 C 0.02814 0.4968 0.4447 0.0
C209 C 0.024 0.51184 0.42873 0.0
C210 C 0.01002 0.5283 0.43347 0.0
C211 C 1.00092 0.52995 0.45383 0.0
C212 C 0.99472 0.54448 0.50687 0.0
C213 C 0.98285 0.54846 0.52537 0.0
C214 C 0.98426 0.56847 0.5353 0.0
C215 C 0.99744 0.58491 0.52679 0.0
C216 C 0.00909 0.5811 0.50811 0.0
C217 C 0.00804 0.56089 0.49842 0.0
C218 C 0.96842 0.50552 0.49747 0.0
C219 C 0.96247 0.49228 0.51461 0.0
C220 C 0.94166 0.48334 0.51587 0.0
C221 C 0.92632 0.4875 0.5 0.0
C222 C 0.93232 0.50103 0.48296 0.0
C223 C 0.95316 0.51004 0.48178 0.0
P224 P 0.82718 0.83532 0.83326 0.0
H225 H 0.86383 0.85599 0.8116 0.0
H226 H 0.88541 0.84567 0.78102 0.0
H227 H 0.84494 0.78864 0.77277 0.0
H228 H 0.82306 0.79952 0.80292 0.0
H229 H 0.79983 0.86245 0.8583 0.0
H230 H 0.76932 0.8841 0.84903 0.0
H231 H 0.77406 0.86417 0.7831 0.0
H232 H 0.80405 0.84191 0.7925 0.0
H233 H 0.84951 0.79605 0.84148 0.0
H234 H 0.78988 0.82314 0.86015 0.0
O235 O 0.8431 0.85084 0.84883 0.0
H236 H 0.84147 0.76515 0.86425 0.0
H237 H 0.78223 0.79269 0.88337 0.0
C238 C 0.84218 0.82825 0.80983 0.0
C239 C 0.85958 0.8413 0.80315 0.0
C240 C 0.87198 0.83532 0.7857 0.0
C241 C 0.86713 0.81616 0.77454 0.0
C242 C 0.84911 0.80355 0.78085 0.0
C243 C 0.83667 0.80963 0.79823 0.0
C244 C 0.80421 0.8505 0.82615 0.0
C245 C 0.79413 0.8625 0.84189 0.0
C246 C 0.7767 0.87482 0.83662 0.0
C247 C 0.76937 0.87576 0.81537 0.0
C248 C 0.77947 0.86373 0.79959 0.0
C249 C 0.79661 0.85101 0.80498 0.0
C250 C 0.82008 0.81177 0.84861 0.0
C251 C 0.83455 0.79527 0.85019 0.0
C252 C 0.83003 0.77766 0.86328 0.0
C253 C 0.81125 0.77658 0.87556 0.0
C254 C 0.79688 0.7932 0.87414 0.0
C255 C 0.80123 0.8106 0.86074 0.0
P256 P 0.33581 0.33969 0.33779 0.0
H257 H 0.38086 0.33126 0.33215 0.0
H258 H 0.40181 0.32006 0.30155 0.0
H259 H 0.34522 0.32156 0.26144 0.0
H260 H 0.32427 0.33225 0.29235 0.0
H261 H 0.32835 0.38533 0.33835 0.0
H262 H 0.29704 0.40602 0.33016 0.0
H263 H 0.2611 0.348 0.31351 0.0
H264 H 0.29261 0.32725 0.32198 0.0
H265 H 0.34256 0.29364 0.33172 0.0
H266 H 0.31192 0.33423 0.37725 0.0
O267 O 0.35173 0.3548 0.35376 0.0
H268 H 0.33369 0.26262 0.35381 0.0
H269 H 0.30256 0.30314 0.39925 0.0
C270 C 0.3511 0.33296 0.31448 0.0
C271 C 0.37302 0.32944 0.31671 0.0
C272 C 0.38501 0.32311 0.29914 0.0
C273 C 0.37528 0.32006 0.27892 0.0
C274 C 0.35323 0.32363 0.27677 0.0
C275 C 0.34123 0.32991 0.29442 0.0
C276 C 0.31271 0.35474 0.33103 0.0
C277 C 0.31373 0.37701 0.33304 0.0
C278 C 0.29578 0.38883 0.32842 0.0
C279 C 0.27654 0.37862 0.32138 0.0
C280 C 0.27571 0.3563 0.31888 0.0
C281 C 0.29366 0.34444 0.32377 0.0
C282 C 0.32785 0.31629 0.35283 0.0
C283 C 0.33376 0.2959 0.34637 0.0
C284 C 0.32861 0.27811 0.35902 0.0
C285 C 0.31751 0.28037 0.37839 0.0
C286 C 0.31145 0.30085 0.38464 0.0
C287 C 0.31659 0.31861 0.37197 0.0
P288 P 0.48946 0.99247 0.52134 0.0
H289 H 0.51936 0.97351 0.49174 0.0
H290 H 0.521 0.9382 0.47545 0.0
H291 H 0.46376 0.91787 0.50952 0.0
H292 H 0.46209 0.95354 0.52557 0.0
H293 H 0.46966 0.02432 0.54831 0.0
H294 H 0.43578 0.04226 0.54587 0.0
H295 H 0.41745 1.00295 0.49126 0.0
H296 H 0.45163 0.98532 0.49362 0.0
H297 H 0.53299 1.00106 0.53704 0.0
H298 H 0.47195 0.98082 0.56351 0.0
O299 O 0.50448 0.00934 0.50663 0.0
H300 H 0.54918 1.00082 0.57265 0.0
H301 H 0.48813 0.98034 0.59941 0.0
C302 C 0.49029 0.96629 0.50943 0.0
C303 C 0.50707 0.96152 0.49561 0.0
C304 C 0.50812 0.94121 0.48646 0.0
C305 C 0.49247 0.92518 0.49109 0.0
C306 C 0.47588 0.92993 0.50534 0.0
C307 C 0.4749 0.95028 0.51455 0.0
C308 C 0.46292 1.00295 0.52161 0.0
C309 C 0.45813 0.01915 0.53615 0.0
C310 C 0.43871 0.02945 0.5347 0.0
C311 C 0.42378 0.02401 0.51842 0.0
C312 C 0.42861 0.00765 0.50393 0.0
C313 C 0.44805 0.99733 0.50543 0.0
C314 C 0.50116 0.9915 0.54774 0.0
C315 C 0.52306 0.99656 0.55056 0.0
C316 C 0.53235 0.99622 0.57094 0.0
C317 C 0.51994 0.99065 0.58893 0.0
C318 C 0.49806 0.98501 0.58594 0.0
C319 C 0.4888 0.98525 0.56545 0.0
P320 P 0.17676 0.32846 0.67815 0.0
H321 H 0.2002 0.36206 0.65504 0.0
H322 H 0.22974 0.38683 0.66491 0.0
H323 H 0.22977 0.36068 0.72882 0.0
H324 H 0.20093 0.33533 0.71845 0.0
H325 H 0.15883 0.28509 0.6711 0.0
H326 H 0.17008 0.25572 0.64831 0.0
H327 H 0.22795 0.2921 0.63251 0.0
H328 H 0.21676 0.32123 0.65526 0.0
H329 H 0.13738 0.34638 0.6937 0.0
H330 H 0.17949 0.29698 0.71278 0.0
O331 O 0.16178 0.34038 0.6599 0.0
H332 H 0.11455 0.33857 0.72447 0.0
H333 H 0.15661 0.28905 0.74382 0.0
C334 C 0.19812 0.34706 0.68608 0.0
C335 C 0.20653 0.36173 0.67121 0.0
C336 C 0.22339 0.37599 0.67693 0.0
C337 C 0.23213 0.37594 0.69774 0.0
C338 C 0.22367 0.36106 0.71258 0.0
C339 C 0.20696 0.34665 0.70673 0.0
C340 C 0.1871 0.30525 0.66527 0.0
C341 C 0.17423 0.2865 0.66323 0.0
C342 C 0.18066 0.26973 0.65017 0.0
C343 C 0.19987 0.27165 0.63856 0.0
C344 C 0.21299 0.29022 0.64113 0.0
C345 C 0.20665 0.30686 0.65431 0.0
C346 C 0.15988 0.32195 0.70071 0.0
C347 C 0.14161 0.33369 0.70441 0.0
C348 C 0.12855 0.32921 0.72202 0.0
C349 C 0.13368 0.31308 0.73649 0.0
C350 C 0.15228 0.30161 0.73299 0.0
C351 C 0.16526 0.306 0.7152 0.0
P352 P 0.82914 0.18508 0.68176 0.0
H353 H 0.85271 0.22388 0.66881 0.0
H354 H 0.84295 0.25448 0.64712 0.0
H355 H 0.77816 0.22816 0.6417 0.0
H356 H 0.78785 0.19785 0.66355 0.0
H357 H 0.85914 0.16061 0.70639 0.0
H358 H 0.88173 0.1691 0.7377 0.0
H359 H 0.8556 0.23176 0.74093 0.0
H360 H 0.83285 0.22307 0.7098 0.0
H361 H 0.80358 0.15427 0.65648 0.0
H362 H 0.80468 0.17788 0.7214 0.0
O363 O 0.84471 0.17198 0.66499 0.0
H364 H 0.77322 0.13012 0.66497 0.0
H365 H 0.77493 0.15317 0.73034 0.0
C366 C 0.82099 0.20868 0.66804 0.0
C367 C 0.8363 0.22491 0.66329 0.0
C368 C 0.83072 0.24239 0.65093 0.0
C369 C 0.80981 0.24368 0.64271 0.0
C370 C 0.79444 0.22751 0.64771 0.0
C371 C 0.79997 0.21019 0.6603 0.0
C372 C 0.84482 0.19142 0.70541 0.0
C373 C 0.85826 0.17616 0.71387 0.0
C374 C 0.87104 0.18097 0.73184 0.0
C375 C 0.87058 0.20117 0.74162 0.0
C376 C 0.85654 0.21619 0.7335 0.0
C377 C 0.84358 0.21126 0.71567 0.0
C378 C 0.8066 0.16758 0.68838 0.0
C379 C 0.79738 0.15409 0.67263 0.0
C380 C 0.78008 0.14021 0.67756 0.0
C381 C 0.77168 0.13948 0.69842 0.0
C382 C 0.78079 0.15339 0.71407 0.0
C383 C 0.79798 0.16742 0.70904 0.0
P384 P 0.56345 0.56669 0.56689 0.0
H385 H 0.56283 0.53205 0.59776 0.0
H386 H 0.53522 0.51779 0.62208 0.0
H387 H 0.48941 0.55934 0.59405 0.0
H388 H 0.51668 0.57304 0.5694 0.0
H389 H 0.61001 0.56759 0.56275 0.0
H390 H 0.63513 0.54138 0.55046 0.0
H391 H 0.58206 0.49734 0.53567 0.0
H392 H 0.55692 0.52389 0.54784 0.0
H393 H 0.54125 0.6065 0.56868 0.0
H394 H 0.56536 0.56543 0.51952 0.0
O395 O 0.57703 0.58217 0.58449 0.0
H396 H 0.52871 0.63086 0.54122 0.0
H397 H 0.55358 0.59031 0.49204 0.0
C398 C 0.54193 0.55359 0.58164 0.0
C399 C 0.54671 0.53771 0.59646 0.0
C400 C 0.53095 0.5296 0.61038 0.0
C401 C 0.51023 0.53759 0.61003 0.0
C402 C 0.50531 0.55306 0.59479 0.0
C403 C 0.52098 0.5609 0.58064 0.0
C404 C 0.58164 0.5475 0.55663 0.0
C405 C 0.60375 0.55229 0.5569 0.0
C406 C 0.61812 0.53724 0.54993 0.0
C407 C 0.61064 0.51713 0.54235 0.0
C408 C 0.58836 0.51267 0.54138 0.0
C409 C 0.57398 0.52777 0.54844 0.0
C410 C 0.55403 0.58403 0.54618 0.0
C411 C 0.54377 0.60268 0.55198 0.0
C412 C 0.53662 0.61657 0.53632 0.0
C413 C 0.54015 0.61237 0.51458 0.0
C414 C 0.55069 0.59385 0.50874 0.0
C415 C 0.55738 0.57964 0.52443 0.0
P416 P 0.55856 0.44682 0.95941 0.0
H417 H 0.59333 0.44407 0.9899 0.0
H418 H 0.62026 0.47024 0.00342 0.0
H419 H 0.58799 0.52027 0.97057 0.0
H420 H 0.5611 0.49397 0.95698 0.0
H421 H 0.54715 0.40149 0.95943 0.0
H422 H 0.53167 0.37769 0.98623 0.0
H423 H 0.52262 0.43164 0.02817 0.0
H424 H 0.53911 0.45535 1.00131 0.0
H425 H 0.56074 0.45081 0.91313 0.0
H426 H 0.51639 0.46624 0.96303 0.0
O427 O 0.5753 0.43137 0.94626 0.0
H428 H 0.53521 0.46186 0.88612 0.0
H429 H 0.49061 0.47765 0.93576 0.0
C430 C 0.57528 0.46706 0.97243 0.0
C431 C 0.59182 0.46073 0.98594 0.0
C432 C 0.60725 0.47566 0.99355 0.0
C433 C 0.60631 0.49725 0.98789 0.0
C434 C 0.58903 0.50375 0.97528 0.0
C435 C 0.57367 0.48872 0.96748 0.0
C436 C 0.54469 0.43009 0.97858 0.0
C437 C 0.54178 0.40823 0.97436 0.0
C438 C 0.53266 0.39462 0.9897 0.0
C439 C 0.52591 0.40264 0.00952 0.0
C440 C 0.52798 0.42482 0.01328 0.0
C441 C 0.53729 0.43842 0.99791 0.0
C442 C 0.54025 0.45722 0.94005 0.0
C443 C 0.54552 0.45665 0.91831 0.0
C444 C 0.53092 0.463 0.90286 0.0
C445 C 0.51084 0.47033 0.90885 0.0
C446 C 0.50599 0.47202 0.93073 0.0
C447 C 0.52061 0.46542 0.94627 0.0
P448 P 0.71618 0.21505 0.29875 0.0
H449 H 0.74994 0.23738 0.32305 0.0
H450 H 0.75037 0.25727 0.35683 0.0
H451 H 0.68285 0.24184 0.36481 0.0
H452 H 0.68262 0.22153 0.33117 0.0
H453 H 0.73001 0.18579 0.26583 0.0
H454 H 0.75119 0.1538 0.26682 0.0
H455 H 0.75444 0.15819 0.33573 0.0
H456 H 0.73272 0.18984 0.33474 0.0
H457 H 0.68333 0.24591 0.2926 0.0
H458 H 0.69046 0.179 0.27938 0.0
O459 O 0.73047 0.23073 0.28221 0.0
H460 H 0.64861 0.24439 0.27417 0.0
H461 H 0.65611 0.17765 0.26027 0.0
C462 C 0.71618 0.2284 0.32437 0.0
C463 C 0.73525 0.23819 0.33211 0.0
C464 C 0.73549 0.24945 0.35145 0.0
C465 C 0.7166 0.25121 0.36335 0.0
C466 C 0.69757 0.24095 0.3558 0.0
C467 C 0.69743 0.22938 0.33658 0.0
C468 C 0.72966 0.19016 0.30017 0.0
C469 C 0.73493 0.17964 0.28118 0.0
C470 C 0.74702 0.16138 0.28177 0.0
C471 C 0.75447 0.15355 0.30136 0.0
C472 C 0.74899 0.16397 0.32042 0.0
C473 C 0.73652 0.18203 0.31984 0.0
C474 C 0.6895 0.21258 0.2875 0.0
C475 C 0.6773 0.23082 0.28601 0.0
C476 C 0.65748 0.22995 0.27549 0.0
C477 C 0.64972 0.2109 0.26581 0.0
C478 C 0.6618 0.19255 0.26755 0.0
C479 C 0.68147 0.19334 0.27846 0.0
P480 P 0.49655 0.01767 0.99721 0.0
H481 H 0.52615 0.98964 0.97604 0.0
H482 H 0.54037 0.98818 0.93983 0.0
H483 H 0.50113 0.0404 0.92163 0.0
H484 H 0.48709 0.04192 0.95812 0.0
H485 H 0.47779 0.03433 0.03585 0.0
H486 H 0.47964 0.06945 0.05318 0.0
H487 H 0.51665 0.09483 1.00041 0.0
H488 H 0.51563 0.05948 0.98348 0.0
H489 H 0.47899 0.9836 0.02464 0.0
H490 H 0.45578 0.02477 0.97535 0.0
O491 O 0.51343 0.00451 0.01263 0.0
H492 H 0.443 0.96777 0.029 0.0
H493 H 0.41977 0.00854 0.97911 0.0
C494 C 0.50593 0.01623 0.96996 0.0
C495 C 0.52057 1.0008 0.9643 0.0
C496 C 0.52857 0.99985 0.94349 0.0
C497 C 0.52201 0.01427 0.92785 0.0
C498 C 0.50677 0.02928 0.93339 0.0
C499 C 0.49866 0.03012 0.95423 0.0
C500 C 0.49601 0.04434 0.00805 0.0
C501 C 0.48605 0.04749 0.02781 0.0
C502 C 0.48718 0.06749 0.03776 0.0
C503 C 0.49813 0.08478 0.028 0.0
C504 C 0.50786 0.08177 0.00806 0.0
C505 C 0.50713 0.06158 0.99832 0.0
C506 C 0.47016 0.00514 0.9994 0.0
C507 C 0.46621 0.98905 0.01452 0.0
C508 C 0.44557 0.97995 0.01697 0.0
C509 C 0.42843 0.98679 0.00437 0.0
C510 C 0.4325 1.00302 0.98927 0.0
C511 C 0.45316 0.01216 0.98689 0.0
Mn512 Mn 0.25286 0.87494 0.01157 0.0
Mn513 Mn 0.25287 0.89845 0.96312 0.0
C514 C 0.23805 0.857 0.98216 0.0
C515 C 0.26898 0.8541 0.03749 0.0
C516 C 0.22309 0.91044 0.99909 0.0
O517 O 0.2758 0.89899 0.01482 0.0
O518 O 0.27613 0.91175 0.98108 0.0
C519 C 0.29457 0.88485 0.94663 0.0
N520 N 0.27287 0.88552 0.94456 0.0
C521 C 0.27349 0.86699 0.91077 0.0
C522 C 0.29586 0.86619 0.91249 0.0
C523 C 0.30643 0.87509 0.93053 0.0
C524 C 0.26253 0.87693 0.92731 0.0
H525 H 0.30276 0.89171 0.96046 0.0
C526 C 0.28342 0.91141 1.00031 0.0
O527 O 0.25452 0.86755 0.04248 0.0
O528 O 0.27453 0.85323 0.01753 0.0
N529 N 0.23123 0.88661 0.94422 0.0
C530 C 0.20951 0.88736 0.94578 0.0
C531 C 0.19648 0.87828 0.92946 0.0
C532 C 0.20592 0.86869 0.91167 0.0
C533 C 0.22831 0.86822 0.91038 0.0
C534 C 0.24047 0.87751 0.92713 0.0
H535 H 0.20217 0.89473 0.9594 0.0
O536 O 0.23224 0.85165 1.00138 0.0
O537 O 0.25208 0.87276 0.98083 0.0
O538 O 0.22888 0.89632 0.01228 0.0
O539 O 0.23145 0.91291 0.98063 0.0
C540 C 0.23904 0.85862 0.8933 0.0
C541 C 0.26161 0.85801 0.89349 0.0
H542 H 0.30505 0.85862 0.90014 0.0
H543 H 0.32367 0.87446 0.93201 0.0
H544 H 0.17921 0.87866 0.9306 0.0
H545 H 0.19581 0.86161 0.89917 0.0
H546 H 0.23006 0.85135 0.88009 0.0
H547 H 0.26965 0.85028 0.88043 0.0
Mn548 Mn 0.14011 0.50259 0.26027 0.0
Mn549 Mn 0.12017 0.55178 0.2572 0.0
C550 C 0.15926 0.52977 0.24314 0.0
C551 C 0.16039 0.47732 0.27773 0.0
C552 C 0.10425 0.51458 0.22938 0.0
O553 O 0.11707 0.50194 0.28337 0.0
O554 O 0.10621 0.53573 0.28106 0.0
C555 C 0.13698 0.56955 0.29824 0.0
N556 N 0.13548 0.57064 0.27652 0.0
C557 C 0.15774 0.60285 0.27589 0.0
C558 C 0.1594 0.60214 0.29826 0.0
C559 C 0.149 0.5854 0.30947 0.0
C560 C 0.14542 0.58668 0.26557 0.0
H561 H 0.12909 0.55667 0.30691 0.0
C562 C 0.1056 0.5172 0.28966 0.0
O563 O 0.14547 0.47166 0.26403 0.0
O564 O 0.16288 0.49754 0.2819 0.0
N565 N 0.13255 0.56907 0.23496 0.0
C566 C 0.13026 0.56682 0.21335 0.0
C567 C 0.14019 0.58195 0.19978 0.0
C568 C 0.15225 0.59928 0.20855 0.0
C569 C 0.15418 0.60138 0.23083 0.0
C570 C 0.14377 0.58591 0.24356 0.0
H571 H 0.12106 0.5535 0.20651 0.0
O572 O 0.16284 0.50999 0.23879 0.0
O573 O 0.14457 0.53302 0.25731 0.0
O574 O 0.11718 0.50107 0.23661 0.0
O575 O 0.10374 0.53374 0.23632 0.0
C576 C 0.16638 0.61799 0.24089 0.0
C577 C 0.16817 0.61871 0.2634 0.0
H578 H 0.16877 0.61426 0.30698 0.0
H579 H 0.1503 0.58469 0.32673 0.0
H580 H 0.13864 0.5802 0.1826 0.0
H581 H 0.16008 0.61078 0.19802 0.0
H582 H 0.1747 0.63012 0.23145 0.0
H583 H 0.17783 0.63139 0.27094 0.0
Mn584 Mn 0.75855 0.62709 0.00812 0.0
Mn585 Mn 0.71334 0.64155 0.98304 0.0
C586 C 0.7275 0.60566 0.01033 0.0
C587 C 0.79128 0.61019 0.0076 0.0
C588 C 0.73008 0.66212 0.02438 0.0
O589 O 0.76924 0.65012 0.98725 0.0
O590 O 0.73864 0.65549 0.96898 0.0
C591 C 0.71975 0.62028 0.94129 0.0
N592 N 0.70752 0.62332 0.95893 0.0
C593 C 0.67986 0.59882 0.94563 0.0
C594 C 0.69207 0.5956 0.92721 0.0
C595 C 0.71214 0.60631 0.92507 0.0
C596 C 0.68829 0.61292 0.96125 0.0
H597 H 0.73523 0.62839 0.93965 0.0
C598 C 0.75882 0.6587 0.97209 0.0
O599 O 0.78766 0.62536 0.02117 0.0
O600 O 0.77608 0.6052 0.994 0.0
N601 N 0.68754 0.62911 0.99482 0.0
C602 C 0.67814 0.63337 0.01392 0.0
C603 C 0.65807 0.62371 0.0187 0.0
C604 C 0.64779 0.60993 0.00374 0.0
C605 C 0.6577 0.60591 0.98413 0.0
C606 C 0.67762 0.61615 0.98017 0.0
H607 H 0.68586 0.64407 0.02542 0.0
O608 O 0.74274 0.60389 0.02435 0.0
O609 O 0.73107 0.61962 0.99538 0.0
O610 O 0.74572 0.64992 0.02712 0.0
O611 O 0.71765 0.6609 0.00803 0.0
C612 C 0.6487 0.59198 0.96845 0.0
C613 C 0.65983 0.58835 0.94925 0.0
H614 H 0.68628 0.5848 0.91469 0.0
H615 H 0.72172 0.60379 0.91097 0.0
H616 H 0.65052 0.6269 0.03387 0.0
H617 H 0.63233 0.6025 0.00751 0.0
H618 H 0.63337 0.58375 0.9711 0.0
H619 H 0.65289 0.57737 0.93746 0.0
Mn620 Mn 0.87367 0.00921 0.25954 0.0
Mn621 Mn 0.8897 0.95875 0.25324 0.0
C622 C 0.85249 0.98432 0.24085 0.0
C623 C 0.85545 0.03562 0.27758 0.0
C624 C 0.90794 0.99578 0.22747 0.0
O625 O 0.89634 0.00703 0.28301 0.0
O626 O 0.90607 0.97324 0.27697 0.0
C627 C 0.87366 0.9413 0.29434 0.0
N628 N 0.87403 0.94057 0.27255 0.0
C629 C 0.84956 0.90994 0.27179 0.0
C630 C 0.84903 0.91029 0.29422 0.0
C631 C 0.86111 0.92606 0.30553 0.0
C632 C 0.86246 0.92547 0.26151 0.0
H633 H 0.88285 0.95344 0.3031 0.0
C634 C 0.90767 0.99102 0.2872 0.0
O635 O 0.8711 0.04035 0.26465 0.0
O636 O 0.85106 0.01551 0.28085 0.0
N637 N 0.87505 0.94283 0.23098 0.0
C638 C 0.87649 0.94537 0.20939 0.0
C639 C 0.86491 0.93121 0.19574 0.0
C640 C 0.85211 0.91452 0.20442 0.0
C641 C 0.85109 0.91208 0.22669 0.0
C642 C 0.86312 0.92658 0.23949 0.0
H643 H 0.88626 0.9582 0.20263 0.0
O644 O 0.85072 0.00454 0.23732 0.0
O645 O 0.86681 0.97927 0.25492 0.0
O646 O 0.89696 0.00996 0.2365 0.0
O647 O 0.90635 0.97605 0.23235 0.0
C648 C 0.83827 0.89611 0.23669 0.0
C649 C 0.83748 0.89505 0.25923 0.0
H650 H 0.83927 0.89864 0.30291 0.0
H651 H 0.8607 0.92649 0.32284 0.0
H652 H 0.86577 0.9332 0.17857 0.0
H653 H 0.84302 0.90377 0.19386 0.0
H654 H 0.8287 0.88475 0.22721 0.0
H655 H 0.82734 0.88288 0.26673 0.0
Mn656 Mn 0.25825 0.1281 0.50617 0.0
Mn657 Mn 0.21335 0.14436 0.48176 0.0
C658 C 0.22706 0.10666 0.50659 0.0
C659 C 0.29088 0.11096 0.50546 0.0
C660 C 0.22984 0.16232 0.52427 0.0
O661 O 0.26944 0.15217 0.48657 0.0
O662 O 0.23884 0.15898 0.46891 0.0
C663 C 0.21972 0.12636 0.43848 0.0
N664 N 0.20751 0.12806 0.45634 0.0
C665 C 0.17911 0.10598 0.44071 0.0
C666 C 0.19132 0.10409 0.42207 0.0
C667 C 0.21176 0.11424 0.421 0.0
C668 C 0.18794 0.11815 0.45764 0.0
H669 H 0.2354 0.13422 0.43758 0.0
C670 C 0.25908 0.16175 0.47199 0.0
O671 O 0.28698 0.1254 0.51971 0.0
O672 O 0.27605 0.10691 0.49119 0.0
N673 N 0.18742 0.13128 0.49253 0.0
C674 C 0.1782 0.13374 0.51206 0.0
C675 C 0.158 0.12396 0.51604 0.0
C676 C 0.14736 0.11203 0.49982 0.0
C677 C 0.15705 0.10994 0.47978 0.0
C678 C 0.17724 0.11996 0.47677 0.0
H679 H 0.18621 0.14306 0.52452 0.0
O680 O 0.24199 0.10409 0.52077 0.0
O681 O 0.2309 0.1215 0.49258 0.0
O682 O 0.24539 0.14991 0.5264 0.0
O683 O 0.2175 0.16201 0.50789 0.0
C684 C 0.14755 0.09817 0.46271 0.0
C685 C 0.15861 0.0961 0.44322 0.0
H686 H 0.18522 0.09478 0.40855 0.0
H687 H 0.22132 0.11279 0.40671 0.0
H688 H 0.15062 0.12567 0.53155 0.0
H689 H 0.13179 0.10448 0.50296 0.0
H690 H 0.13189 0.09035 0.46452 0.0
H691 H 0.15131 0.08668 0.43036 0.0
Mn692 Mn 0.37261 0.50631 0.75959 0.0
Mn693 Mn 0.38966 0.45614 0.75395 0.0
C694 C 0.35164 0.48068 0.74163 0.0
C695 C 0.3542 0.53262 0.77759 0.0
C696 C 0.40665 0.49303 0.72725 0.0
O697 O 0.39589 0.5051 0.78266 0.0
O698 O 0.40592 0.4713 0.77724 0.0
C699 C 0.37442 0.43895 0.79544 0.0
N700 N 0.37464 0.43789 0.77367 0.0
C701 C 0.35159 0.40623 0.77356 0.0
C702 C 0.35121 0.4069 0.79599 0.0
C703 C 0.36262 0.42337 0.80697 0.0
C704 C 0.36363 0.42218 0.76294 0.0
H705 H 0.38317 0.45158 0.80393 0.0
C706 C 0.40748 0.48932 0.78701 0.0
O707 O 0.36944 0.53744 0.76422 0.0
O708 O 0.35033 0.51249 0.78129 0.0
N709 N 0.37521 0.43958 0.73207 0.0
C710 C 0.3763 0.44189 0.71042 0.0
C711 C 0.36521 0.42708 0.69708 0.0
C712 C 0.35334 0.40993 0.70611 0.0
C713 C 0.35267 0.40774 0.72842 0.0
C714 C 0.36405 0.42299 0.7409 0.0
H715 H 0.38545 0.45502 0.70341 0.0
O716 O 0.34931 0.50078 0.73792 0.0
O717 O 0.3663 0.47614 0.75556 0.0
O718 O 0.39529 0.50713 0.73591 0.0
O719 O 0.4058 0.47345 0.73274 0.0
C720 C 0.34092 0.39121 0.73876 0.0
C721 C 0.34027 0.39052 0.76131 0.0
H722 H 0.34209 0.39495 0.80494 0.0
H723 H 0.36233 0.42405 0.82427 0.0
H724 H 0.3658 0.42888 0.67988 0.0
H725 H 0.3447 0.3986 0.69577 0.0
H726 H 0.33206 0.37912 0.72951 0.0
H727 H 0.33088 0.37793 0.76907 0.0
Mn728 Mn 0.75089 0.37602 0.5116 0.0
Mn729 Mn 0.74814 0.39602 0.46168 0.0
C730 C 0.73398 0.35644 0.48443 0.0
C731 C 0.76809 0.35624 0.53765 0.0
C732 C 0.72064 0.41099 0.49832 0.0
O733 O 0.77439 0.39956 0.51186 0.0
O734 O 0.77232 0.4106 0.4776 0.0
C735 C 0.78905 0.38092 0.44458 0.0
N736 N 0.76728 0.38151 0.44337 0.0
C737 C 0.7663 0.35913 0.41194 0.0
C738 C 0.78871 0.35839 0.41279 0.0
C739 C 0.80012 0.36931 0.4292 0.0
C740 C 0.75614 0.37108 0.42762 0.0
H741 H 0.79789 0.38919 0.45723 0.0
C742 C 0.781 0.41118 0.49629 0.0
O743 O 0.75455 0.37056 0.54281 0.0
O744 O 0.77221 0.35403 0.51745 0.0
N745 N 0.72567 0.38278 0.44466 0.0
C746 C 0.70405 0.38394 0.44693 0.0
C747 C 0.69028 0.37327 0.4322 0.0
C748 C 0.69887 0.36156 0.41528 0.0
C749 C 0.72118 0.36068 0.41322 0.0
C750 C 0.73411 0.37179 0.42828 0.0
H751 H 0.69734 0.39283 0.45995 0.0
O752 O 0.72913 0.35265 0.50425 0.0
O753 O 0.74812 0.37179 0.48125 0.0
O754 O 0.72769 0.39823 0.51227 0.0
O755 O 0.72744 0.41168 0.47907 0.0
C756 C 0.73107 0.34883 0.39709 0.0
C757 C 0.75362 0.34805 0.39645 0.0
H758 H 0.79731 0.34932 0.40106 0.0
H759 H 0.81741 0.36872 0.43003 0.0
H760 H 0.67308 0.37397 0.43394 0.0
H761 H 0.6882 0.35315 0.4041 0.0
H762 H 0.72148 0.34 0.38529 0.0
H763 H 0.76102 0.33862 0.38417 0.0
Mn764 Mn 0.63633 0.00472 0.75825 0.0
Mn765 Mn 0.61685 0.05409 0.75513 0.0
C766 C 0.65544 0.03162 0.74063 0.0
C767 C 0.65679 0.97932 0.77523 0.0
C768 C 0.60044 0.01706 0.72742 0.0
O769 O 0.61382 0.0044 0.78185 0.0
O770 O 0.60264 0.038 0.77883 0.0
C771 C 0.6336 0.07144 0.79638 0.0
N772 N 0.63217 0.07272 0.77467 0.0
C773 C 0.65418 0.10509 0.77441 0.0
C774 C 0.65578 0.10419 0.79678 0.0
C775 C 0.64549 0.08725 0.8078 0.0
C776 C 0.64206 0.08891 0.76391 0.0
H777 H 0.62576 0.05843 0.80492 0.0
C778 C 0.60218 0.01964 0.7878 0.0
O779 O 0.6414 0.97374 0.76203 0.0
O780 O 0.6596 0.99954 0.77929 0.0
N781 N 0.62941 0.0715 0.73309 0.0
C782 C 0.62727 0.06939 0.71146 0.0
C783 C 0.63717 0.08468 0.69806 0.0
C784 C 0.64899 0.10207 0.70703 0.0
C785 C 0.65076 0.10403 0.72933 0.0
C786 C 0.64049 0.08833 0.74189 0.0
H787 H 0.61821 0.05606 0.70447 0.0
O788 O 0.65861 0.01176 0.73625 0.0
O789 O 0.64112 0.03515 0.7551 0.0
O790 O 0.61287 0.00329 0.73505 0.0
O791 O 0.60046 0.03636 0.73403 0.0
C792 C 0.66261 0.12074 0.73959 0.0
C793 C 0.6644 0.12123 0.76211 0.0
H794 H 0.665 0.11631 0.80564 0.0
H795 H 0.64673 0.08639 0.82505 0.0
H796 H 0.63575 0.08305 0.68085 0.0
H797 H 0.65674 0.11375 0.69664 0.0
H798 H 0.67069 0.13314 0.7303 0.0
H799 H 0.67385 0.13398 0.76979 0.0
Mn800 Mn 0.00568 0.25666 0.87699 0.0
Mn801 Mn 0.95592 0.25232 0.89791 0.0
C802 C 0.9782 0.23914 0.85817 0.0
C803 C 0.03203 0.27414 0.85643 0.0
C804 C 0.99256 0.22565 0.91279 0.0
O805 O 0.00643 0.27989 0.90008 0.0
O806 O 0.97231 0.27652 0.91185 0.0
C807 C 0.93886 0.29278 0.88223 0.0
N808 N 0.93745 0.2711 0.88332 0.0
C809 C 0.90545 0.26963 0.8616 0.0
C810 C 0.90649 0.29196 0.86036 0.0
C811 C 0.92328 0.30357 0.87071 0.0
C812 C 0.92133 0.25977 0.87348 0.0
H813 H 0.95181 0.30178 0.89005 0.0
C814 C 0.99105 0.28571 0.91196 0.0
O815 O 0.03692 0.26068 0.8712 0.0
O816 O 0.01189 0.27821 0.85429 0.0
N817 N 0.93843 0.22972 0.88543 0.0
C818 C 0.94057 0.20825 0.88697 0.0
C819 C 0.9255 0.19433 0.87682 0.0
C820 C 0.90836 0.2026 0.86527 0.0
C821 C 0.90641 0.22475 0.86404 0.0
C822 C 0.92181 0.23785 0.87464 0.0
H823 H 0.95377 0.20179 0.89572 0.0
O824 O 0.99802 0.23504 0.85428 0.0
O825 O 0.97509 0.25315 0.87311 0.0
O826 O 0.00636 0.23324 0.89963 0.0
O827 O 0.9734 0.23196 0.91381 0.0
C828 C 0.89008 0.23435 0.8523 0.0
C829 C 0.88959 0.25677 0.85108 0.0
H830 H 0.89461 0.30034 0.85134 0.0
H831 H 0.92426 0.3208 0.86973 0.0
H832 H 0.92715 0.17725 0.87779 0.0
H833 H 0.89692 0.19182 0.85725 0.0
H834 H 0.878 0.22463 0.84386 0.0
H835 H 0.87714 0.26396 0.84174 0.0
Mn836 Mn 0.50869 0.75691 0.37524 0.0
Mn837 Mn 0.45829 0.75138 0.39436 0.0
C838 C 0.48216 0.73912 0.35529 0.0
C839 C 0.53542 0.77514 0.35581 0.0
C840 C 0.49504 0.72542 0.41034 0.0
O841 O 0.50821 0.77977 0.39874 0.0
O842 O 0.47359 0.77588 0.40882 0.0
C843 C 0.44079 0.79138 0.37802 0.0
N844 N 0.43988 0.76968 0.37908 0.0
C845 C 0.40873 0.76745 0.35618 0.0
C846 C 0.40926 0.78977 0.35495 0.0
C847 C 0.42537 0.80178 0.3659 0.0
C848 C 0.42442 0.75797 0.36863 0.0
H849 H 0.45321 0.80067 0.38633 0.0
C850 C 0.49219 0.7853 0.40992 0.0
O851 O 0.54004 0.76158 0.37059 0.0
O852 O 0.51529 0.77891 0.35305 0.0
N853 N 0.44179 0.72838 0.38131 0.0
C854 C 0.44429 0.70698 0.38312 0.0
C855 C 0.42984 0.69271 0.37257 0.0
C856 C 0.41295 0.70057 0.36035 0.0
C857 C 0.41062 0.72264 0.35885 0.0
C858 C 0.42539 0.7361 0.36988 0.0
H859 H 0.45728 0.70085 0.39242 0.0
O860 O 0.5022 0.73552 0.35195 0.0
O861 O 0.47831 0.75283 0.37029 0.0
O862 O 0.50906 0.73315 0.39751 0.0
O863 O 0.47576 0.73149 0.41093 0.0
C864 C 0.39448 0.73183 0.34649 0.0
C865 C 0.39354 0.75422 0.34515 0.0
H866 H 0.39749 0.79785 0.34549 0.0
H867 H 0.42595 0.81901 0.36494 0.0
H868 H 0.43178 0.67569 0.37377 0.0
H869 H 0.40199 0.68951 0.35203 0.0
H870 H 0.38291 0.72183 0.33769 0.0
H871 H 0.38125 0.76109 0.33535 0.0
Mn872 Mn 1.0008 0.75065 0.63452 0.0
Mn873 Mn 0.97688 0.70516 0.65298 0.0
C874 C 0.00361 0.71922 0.61535 0.0
C875 C 0.99976 0.7826 0.61566 0.0
C876 C 0.01845 0.72444 0.67127 0.0
O877 O 0.98 0.76117 0.65699 0.0
O878 O 0.96277 0.73017 0.66547 0.0
C879 C 0.93448 0.70888 0.63215 0.0
N880 N 0.95238 0.69764 0.63566 0.0
C881 C 0.93875 0.66863 0.61351 0.0
C882 C 0.9201 0.67983 0.60976 0.0
C883 C 0.918 0.70007 0.61907 0.0
C884 C 0.95466 0.67825 0.62662 0.0
H885 H 0.93282 0.72445 0.63926 0.0
C886 C 0.96533 0.75049 0.66689 0.0
O887 O 0.0135 0.77994 0.63098 0.0
O888 O 0.98627 0.7668 0.61152 0.0
N889 N 0.98862 0.67952 0.64224 0.0
C890 C 0.0078 0.67102 0.64709 0.0
C891 C 0.0124 0.65074 0.63914 0.0
C892 C 0.99717 0.63934 0.62648 0.0
C893 C 0.97752 0.64837 0.62177 0.0
C894 C 0.97373 0.66852 0.63036 0.0
H895 H 0.01949 0.67958 0.657 0.0
O896 O 0.01716 0.73512 0.6123 0.0
O897 O 0.98852 0.72235 0.62916 0.0
O898 O 0.0204 0.73966 0.65791 0.0
O899 O 1.00232 0.71124 0.67156 0.0
C900 C 0.9616 0.63822 0.6088 0.0
C901 C 0.94228 0.6484 0.60457 0.0
H902 H 0.90736 0.67309 0.59967 0.0
H903 H 0.90369 0.70885 0.61617 0.0
H904 H 0.02761 0.64387 0.64284 0.0
H905 H 1.00072 0.62365 0.6205 0.0
H906 H 0.96416 0.6227 0.6018 0.0
H907 H 0.93026 0.64056 0.59436 0.0
Mn908 Mn 0.50208 0.25198 0.13378 0.0
Mn909 Mn 0.47867 0.20662 0.15321 0.0
C910 C 0.50408 0.22045 0.11462 0.0
C911 C 0.50077 0.28384 0.11477 0.0
C912 C 0.521 0.22566 0.16985 0.0
O913 O 0.48214 0.26277 0.15692 0.0
O914 O 0.46551 0.23179 0.16641 0.0
C915 C 0.43547 0.21094 0.1343 0.0
N916 N 0.45334 0.19945 0.13698 0.0
C917 C 0.43832 0.17061 0.11544 0.0
C918 C 0.41971 0.18208 0.11254 0.0
C919 C 0.41831 0.20237 0.12196 0.0
C920 C 0.45493 0.18002 0.12783 0.0
H921 H 0.43435 0.22654 0.14152 0.0
C922 C 0.46805 0.25212 0.16763 0.0
O923 O 0.51502 0.28107 0.12959 0.0
O924 O 0.48684 0.26824 0.11131 0.0
N925 N 0.48954 0.18079 0.14195 0.0
C926 C 0.50873 0.17195 0.14603 0.0
C927 C 0.51264 0.15156 0.13793 0.0
C928 C 0.49672 0.14039 0.12593 0.0
C929 C 0.47706 0.14974 0.12203 0.0
C930 C 0.47398 0.17 0.13073 0.0
H931 H 0.52094 0.18035 0.15546 0.0
O932 O 0.51757 0.23629 0.11107 0.0
O933 O 0.48945 0.22369 0.12891 0.0
O934 O 0.52242 0.24095 0.15654 0.0
O935 O 0.50495 0.21239 0.17062 0.0
C936 C 0.46045 0.13982 0.10977 0.0
C937 C 0.44114 0.1503 0.10637 0.0
H938 H 0.40643 0.17552 0.10303 0.0
H939 H 0.40403 0.21135 0.11972 0.0
H940 H 0.52785 0.14443 0.141 0.0
H941 H 0.49974 0.12461 0.11982 0.0
H942 H 0.46244 0.12422 0.10269 0.0
H943 H 0.42857 0.14262 0.09671 0.0
H944 H 0.24361 0.78894 0.86216 0.0
H945 H 0.19833 0.75024 0.89873 0.0
H946 H 0.24756 0.81373 0.89185 0.0
H947 H 0.20175 0.77581 0.92833 0.0
H948 H 0.19983 0.8388 0.96833 0.0
H949 H 0.19426 0.81313 0.93875 0.0
H950 H 0.2626 0.8146 0.92775 0.0
H951 H 0.26791 0.84015 0.95697 0.0
C952 C 0.23456 0.78561 0.87658 0.0
C953 C 0.22085 0.76734 0.87805 0.0
C954 C 0.2367 0.80001 0.89359 0.0
C955 C 0.22495 0.79683 0.91248 0.0
C956 C 0.21085 0.77886 0.91389 0.0
C957 C 0.20889 0.76421 0.8969 0.0
C958 C 0.21353 0.83362 0.95942 0.0
C959 C 0.23418 0.84193 0.96429 0.0
C960 C 0.21041 0.81888 0.94262 0.0
C961 C 0.22797 0.81202 0.93071 0.0
C962 C 0.24867 0.8199 0.93623 0.0
C963 C 0.25173 0.83456 0.95291 0.0
H964 H 0.06529 0.50123 0.42033 0.0
H965 H 0.00708 0.5198 0.38896 0.0
H966 H 0.08324 0.50021 0.3859 0.0
H967 H 0.02522 0.51902 0.35447 0.0
H968 H 0.07452 0.54317 0.30393 0.0
H969 H 0.05382 0.54008 0.33664 0.0
H970 H 0.08385 0.48102 0.3513 0.0
H971 H 0.10492 0.4842 0.31852 0.0
C972 C 0.05619 0.50479 0.40607 0.0
C973 C 0.03469 0.51062 0.4075 0.0
C974 C 0.06652 0.5042 0.3863 0.0
C975 C 0.05568 0.50952 0.36742 0.0
C976 C 0.03411 0.51508 0.36876 0.0
C977 C 0.02373 0.51559 0.38854 0.0
C978 C 0.07665 0.52939 0.31398 0.0
C979 C 0.09154 0.51399 0.30859 0.0
C980 C 0.06462 0.52757 0.33271 0.0
C981 C 0.06721 0.51035 0.34663 0.0
C982 C 0.08165 0.49461 0.34101 0.0
C983 C 0.09362 0.49636 0.32215 0.0
H984 H 0.80062 0.77784 0.91778 0.0
H985 H 0.81155 0.73414 0.86577 0.0
H986 H 0.79131 0.74771 0.94119 0.0
H987 H 0.80194 0.70399 0.88912 0.0
H988 H 0.74944 0.66595 0.9303 0.0
H989 H 0.76519 0.69333 0.90701 0.0
H990 H 0.80891 0.71358 0.95755 0.0
H991 H 0.7934 0.68572 0.98091 0.0
C992 C 0.8011 0.76177 0.91142 0.0
C993 C 0.80667 0.75828 0.88997 0.0
C994 C 0.79598 0.74456 0.92484 0.0
C995 C 0.79596 0.72356 0.91694 0.0
C996 C 0.80184 0.72004 0.89557 0.0
C997 C 0.80736 0.73724 0.88226 0.0
C998 C 0.76264 0.676 0.93637 0.0
C999 C 0.77017 0.67372 0.95745 0.0
C1000 C 0.7717 0.69161 0.92299 0.0
C1001 C 0.78821 0.70557 0.93051 0.0
C1002 C 0.79614 0.70302 0.95142 0.0
C1003 C 0.78737 0.68704 0.9647 0.0
H1004 H 0.0194 0.98987 0.37112 0.0
H1005 H 0.96503 0.97115 0.41029 0.0
H1006 H 0.99519 0.99782 0.34175 0.0
H1007 H 0.94085 0.98 0.38103 0.0
H1008 H 0.90483 0.01311 0.32507 0.0
H1009 H 0.92949 0.01202 0.35586 0.0
H1010 H 0.97033 0.97103 0.3201 0.0
H1011 H 0.94569 0.97173 0.28973 0.0
C1012 C 1.00231 0.98757 0.37357 0.0
C1013 C 0.99425 0.97944 0.39302 0.0
C1014 C 0.98846 0.9923 0.35677 0.0
C1015 C 0.96619 0.9894 0.3591 0.0
C1016 C 0.95797 0.98253 0.37889 0.0
C1017 C 0.97186 0.9775 0.39565 0.0
C1018 C 0.91923 0.00412 0.32376 0.0
C1019 C 0.92334 0.99247 0.30505 0.0
C1020 C 0.93323 0.0034 0.34138 0.0
C1021 C 0.9518 0.99148 0.3403 0.0
C1022 C 0.95623 0.9805 0.3213 0.0
C1023 C 0.94207 0.98082 0.30397 0.0
H1024 H 0.19871 0.22813 0.6432 0.0
H1025 H 0.21317 0.27804 0.5976 0.0
H1026 H 0.20644 0.20123 0.61596 0.0
H1027 H 0.22092 0.2513 0.57055 0.0
H1028 H 0.20512 0.19724 0.52222 0.0
H1029 H 0.19852 0.22315 0.55036 0.0
H1030 H 0.23849 0.18886 0.59379 0.0
H1031 H 0.24527 0.16282 0.56555 0.0
C1032 C 0.2036 0.23333 0.62741 0.0
C1033 C 0.2054 0.25518 0.62255 0.0
C1034 C 0.20814 0.21797 0.61188 0.0
C1035 C 0.21421 0.22419 0.59112 0.0
C1036 C 0.21612 0.24603 0.58635 0.0
C1037 C 0.21187 0.26134 0.6019 0.0
C1038 C 0.21252 0.19515 0.53774 0.0
C1039 C 0.22579 0.17795 0.54157 0.0
C1040 C 0.20881 0.21008 0.55384 0.0
C1041 C 0.21805 0.20806 0.57424 0.0
C1042 C 0.23108 0.19074 0.57823 0.0
C1043 C 0.23505 0.17592 0.56202 0.0
H1044 H 0.49793 0.49697 0.62161 0.0
H1045 H 0.48676 0.56301 0.63546 0.0
H1046 H 0.47218 0.48602 0.64907 0.0
H1047 H 0.46189 0.55233 0.66363 0.0
H1048 H 0.40433 0.52754 0.70087 0.0
H1049 H 0.42824 0.53771 0.6717 0.0
H1050 H 0.46709 0.48388 0.68578 0.0
H1051 H 0.44247 0.47316 0.71411 0.0
C1052 C 0.49001 0.50912 0.63066 0.0
C1053 C 0.49423 0.53081 0.62635 0.0
C1054 C 0.47535 0.5029 0.64653 0.0
C1055 C 0.46486 0.51825 0.65877 0.0
C1056 C 0.4692 0.53998 0.65435 0.0
C1057 C 0.48356 0.54616 0.63824 0.0
C1058 C 0.41799 0.51789 0.6977 0.0
C1059 C 0.42149 0.49955 0.70982 0.0
C1060 C 0.43182 0.52378 0.68101 0.0
C1061 C 0.44976 0.51169 0.67625 0.0
C1062 C 0.45327 0.49339 0.68855 0.0
C1063 C 0.43922 0.48731 0.70497 0.0
H1064 H 0.81865 0.28659 0.6476 0.0
H1065 H 0.78882 0.24015 0.60448 0.0
H1066 H 0.81021 0.31516 0.6226 0.0
H1067 H 0.78042 0.26856 0.57964 0.0
H1068 H 0.79089 0.32083 0.53025 0.0
H1069 H 0.80194 0.29448 0.5562 0.0
H1070 H 0.7762 0.33202 0.60738 0.0
H1071 H 0.76495 0.35847 0.58134 0.0
C1072 C 0.81032 0.28252 0.63279 0.0
C1073 C 0.80433 0.26117 0.628 0.0
C1074 C 0.80541 0.29884 0.61858 0.0
C1075 C 0.79477 0.29405 0.59915 0.0
C1076 C 0.78883 0.2727 0.5944 0.0
C1077 C 0.79345 0.25647 0.6087 0.0
C1078 C 0.7878 0.32364 0.54705 0.0
C1079 C 0.77694 0.34169 0.55373 0.0
C1080 C 0.79402 0.30847 0.56189 0.0
C1081 C 0.78974 0.31111 0.58377 0.0
C1082 C 0.77974 0.32962 0.59061 0.0
C1083 C 0.77327 0.34471 0.5757 0.0
H1084 H 0.50304 0.00639 0.62589 0.0
H1085 H 0.55923 0.97686 0.60123 0.0
H1086 H 0.52042 0.01039 0.66086 0.0
H1087 H 0.57685 0.98146 0.63595 0.0
H1088 H 0.59787 0.97898 0.70537 0.0
H1089 H 0.57662 0.97029 0.67336 0.0
H1090 H 0.54986 0.03269 0.67555 0.0
H1091 H 0.57073 0.0413 0.7076 0.0
C1092 C 0.519 1.00051 0.62799 0.0
C1093 C 0.52979 0.99143 0.61071 0.0
C1094 C 0.52905 1.003 0.64798 0.0
C1095 C 0.5501 0.99638 0.6512 0.0
C1096 C 0.56058 0.98659 0.63412 0.0
C1097 C 0.55056 0.98417 0.61412 0.0
C1098 C 0.58726 0.99077 0.6992 0.0
C1099 C 0.58614 0.01089 0.7091 0.0
C1100 C 0.57517 0.98581 0.68075 0.0
C1101 C 0.56159 1.00081 0.67181 0.0
C1102 C 0.55995 0.02065 0.68211 0.0
C1103 C 0.57206 0.02563 0.70048 0.0
H1104 H 0.87904 0.17762 0.77727 0.0
H1105 H 0.89568 0.23737 0.74645 0.0
H1106 H 0.9043 0.18667 0.80627 0.0
H1107 H 0.92135 0.24616 0.77491 0.0
H1108 H 0.95154 0.26542 0.83812 0.0
H1109 H 0.92436 0.25625 0.81115 0.0
H1110 H 0.94199 0.19032 0.81364 0.0
H1111 H 0.96861 0.19963 0.84149 0.0
C1112 C 0.88819 0.19264 0.77668 0.0
C1113 C 0.88535 0.20683 0.75965 0.0
C1114 C 0.90273 0.19779 0.79322 0.0
C1115 C 0.91494 0.21713 0.79296 0.0
C1116 C 0.91197 0.23131 0.77591 0.0
C1117 C 0.89728 0.22627 0.75954 0.0
C1118 C 0.94925 0.24891 0.83316 0.0
C1119 C 0.9615 0.23306 0.84235 0.0
C1120 C 0.93392 0.24367 0.81746 0.0
C1121 C 0.93087 0.2225 0.8102 0.0
C1122 C 0.94357 0.2067 0.81915 0.0
C1123 C 0.95888 0.21199 0.83496 0.0
H1124 H 0.52769 0.90124 0.48404 0.0
H1125 H 0.4591 0.90077 0.47438 0.0
H1126 H 0.52899 0.86673 0.46594 0.0
H1127 H 0.46039 0.86645 0.45622 0.0
H1128 H 0.4653 0.79682 0.44184 0.0
H1129 H 0.46639 0.8296 0.46268 0.0
H1130 H 0.52473 0.85034 0.43079 0.0
H1131 H 0.52392 0.8171 0.41014 0.0
C1132 C 0.51289 0.89382 0.47798 0.0
C1133 C 0.49327 0.90378 0.48071 0.0
C1134 C 0.51365 0.87404 0.46757 0.0
C1135 C 0.49481 0.86372 0.45964 0.0
C1136 C 0.47519 0.87368 0.46248 0.0
C1137 C 0.47443 0.8934 0.47291 0.0
C1138 C 0.4785 0.80825 0.43934 0.0
C1139 C 0.49445 0.80434 0.42414 0.0
C1140 C 0.47903 0.82716 0.45124 0.0
C1141 C 0.49544 0.84281 0.44821 0.0
C1142 C 0.51189 0.83859 0.43363 0.0
C1143 C 0.51143 0.81954 0.42175 0.0
H1144 H 0.14522 0.30648 0.77827 0.0
H1145 H 0.09003 0.30879 0.73653 0.0
H1146 H 0.12164 0.29934 0.8087 0.0
H1147 H 0.0665 0.30116 0.76665 0.0
H1148 H 0.02728 0.30491 0.82617 0.0
H1149 H 0.05261 0.31583 0.7984 0.0
H1150 H 0.09846 0.27254 0.82376 0.0
H1151 H 0.07341 0.26228 0.85197 0.0
C1152 C 0.12805 0.30527 0.77558 0.0
C1153 C 0.11948 0.30826 0.75502 0.0
C1154 C 0.11452 0.30117 0.79301 0.0
C1155 C 0.09209 0.29979 0.79024 0.0
C1156 C 0.08361 0.30262 0.76957 0.0
C1157 C 0.09712 0.30689 0.75223 0.0
C1158 C 0.04289 0.29797 0.82599 0.0
C1159 C 0.04829 0.28267 0.84122 0.0
C1160 C 0.05737 0.30408 0.80994 0.0
C1161 C 0.07753 0.29485 0.80858 0.0
C1162 C 0.08321 0.28014 0.82436 0.0
C1163 C 0.06879 0.27419 0.84053 0.0
H1164 H 0.56477 0.633 0.48476 0.0
H1165 H 0.49993 0.62625 0.50781 0.0
H1166 H 0.55396 0.66022 0.45964 0.0
H1167 H 0.48855 0.6524 0.48181 0.0
H1168 H 0.47815 0.71562 0.44947 0.0
H1169 H 0.48908 0.68817 0.47413 0.0
H1170 H 0.5363 0.66822 0.42851 0.0
H1171 H 0.52619 0.69662 0.40458 0.0
C1172 C 0.54809 0.63712 0.4841 0.0
C1173 C 0.53318 0.62763 0.49818 0.0
C1174 C 0.54179 0.65265 0.46962 0.0
C1175 C 0.5203 0.65875 0.46857 0.0
C1176 C 0.50532 0.64866 0.48239 0.0
C1177 C 0.51175 0.63349 0.49718 0.0
C1178 C 0.49089 0.70536 0.44477 0.0
C1179 C 0.50138 0.70837 0.42514 0.0
C1180 C 0.49709 0.68943 0.45885 0.0
C1181 C 0.51362 0.67574 0.45346 0.0
C1182 C 0.52385 0.67863 0.43358 0.0
C1183 C 0.51797 0.69487 0.41973 0.0
H1184 H 0.91103 0.81958 0.77243 0.0
H1185 H 0.85529 0.79624 0.73679 0.0
H1186 H 0.93422 0.8057 0.74485 0.0
H1187 H 0.87858 0.78206 0.70939 0.0
H1188 H 0.92753 0.73503 0.68355 0.0
H1189 H 0.90372 0.75268 0.70796 0.0
H1190 H 0.94504 0.8095 0.70659 0.0
H1191 H 0.96918 0.79173 0.68212 0.0
C1192 C 0.90368 0.81181 0.75856 0.0
C1193 C 0.88123 0.80895 0.75695 0.0
C1194 C 0.91701 0.80383 0.74275 0.0
C1195 C 0.90826 0.79268 0.72499 0.0
C1196 C 0.88583 0.7903 0.72306 0.0
C1197 C 0.87249 0.79837 0.73881 0.0
C1198 C 0.93159 0.75132 0.68835 0.0
C1199 C 0.95039 0.7619 0.68093 0.0
C1200 C 0.91779 0.7615 0.70223 0.0
C1201 C 0.92246 0.7825 0.70921 0.0
C1202 C 0.9411 0.79324 0.70162 0.0
C1203 C 0.95486 0.7831 0.68752 0.0
H1204 H 0.0513 0.88976 0.54552 0.0
H1205 H 0.98608 0.88527 0.52204 0.0
H1206 H 0.04317 0.8615 0.57092 0.0
H1207 H 0.97767 0.85713 0.54794 0.0
H1208 H 0.9801 0.78947 0.5772 0.0
H1209 H 0.98459 0.82062 0.55424 0.0
H1210 H 0.02489 0.85178 0.60248 0.0
H1211 H 0.02107 0.8203 0.62496 0.0
C1212 C 0.03505 0.88306 0.54614 0.0
C1213 C 0.01932 0.88982 0.53179 0.0
C1214 C 0.03035 0.86681 0.56076 0.0
C1215 C 0.00972 0.85696 0.56159 0.0
C1216 C 0.99381 0.8641 0.54757 0.0
C1217 C 0.99859 0.88028 0.53278 0.0
C1218 C 0.98974 0.80307 0.58296 0.0
C1219 C 1.00041 0.80235 0.60278 0.0
C1220 C 0.99223 0.82102 0.56984 0.0
C1221 C 0.00529 0.83872 0.57636 0.0
C1222 C 0.01513 0.83829 0.59667 0.0
C1223 C 0.01282 0.82028 0.60965 0.0
H1224 H 0.10732 0.72256 0.77941 0.0
H1225 H 0.13987 0.69211 0.72747 0.0
H1226 H 0.07539 0.72559 0.75663 0.0
H1227 H 0.10818 0.69549 0.70466 0.0
H1228 H 0.06037 0.73714 0.66648 0.0
H1229 H 0.09031 0.73106 0.69068 0.0
H1230 H 0.04724 0.6989 0.73477 0.0
H1231 H 0.0171 0.70453 0.71028 0.0
C1232 C 0.10753 0.71635 0.76321 0.0
C1233 C 0.126 0.70706 0.75518 0.0
C1234 C 0.0893 0.71801 0.75025 0.0
C1235 C 0.08943 0.71084 0.72892 0.0
C1236 C 0.10774 0.7012 0.72104 0.0
C1237 C 0.12578 0.69915 0.73411 0.0
C1238 C 0.0572 0.72884 0.68136 0.0
C1239 C 0.03634 0.72136 0.68649 0.0
C1240 C 0.07438 0.72524 0.69511 0.0
C1241 C 0.07104 0.71446 0.7145 0.0
C1242 C 0.05017 0.70728 0.7199 0.0
C1243 C 0.03299 0.71047 0.70588 0.0
H1244 H 0.01457 0.59194 0.56619 0.0
H1245 H 0.98583 0.62406 0.51307 0.0
H1246 H 0.01786 0.62564 0.58595 0.0
H1247 H 0.98843 0.65787 0.53313 0.0
H1248 H 0.97143 0.7041 0.58948 0.0
H1249 H 0.9713 0.67257 0.56617 0.0
H1250 H 0.0366 0.66153 0.58509 0.0
H1251 H 0.03658 0.69315 0.60836 0.0
C1252 C 0.00896 0.6063 0.55882 0.0
C1253 C 0.9999 0.60553 0.53823 0.0
C1254 C 0.01085 0.62557 0.57008 0.0
C1255 C 1.00321 0.64438 0.5612 0.0
C1256 C 0.99427 0.6436 0.54046 0.0
C1257 C 0.99285 0.62435 0.52897 0.0
C1258 C 0.98568 0.69484 0.58862 0.0
C1259 C 0.00375 0.70043 0.60118 0.0
C1260 C 0.98573 0.67699 0.57511 0.0
C1261 C 0.00388 0.66446 0.57394 0.0
C1262 C 0.02227 0.67069 0.5859 0.0
C1263 C 0.0223 0.68872 0.59917 0.0
H1264 H 0.73744 0.9019 0.23271 0.0
H1265 H 0.77156 0.88908 0.17445 0.0
H1266 H 0.76516 0.92846 0.24301 0.0
H1267 H 0.79974 0.91526 0.18499 0.0
H1268 H 0.836 0.97833 0.20063 0.0
H1269 H 0.80708 0.95295 0.18961 0.0
H1270 H 0.80112 0.93147 0.25505 0.0
H1271 H 0.82936 0.95728 0.26587 0.0
C1272 C 0.75103 0.9046 0.22223 0.0
C1273 C 0.75236 0.89339 0.2028 0.0
C1274 C 0.76696 0.91981 0.22813 0.0
C1275 C 0.78473 0.92404 0.21484 0.0
C1276 C 0.78609 0.91272 0.19542 0.0
C1277 C 0.77002 0.89764 0.18942 0.0
C1278 C 0.8284 0.96812 0.21252 0.0
C1279 C 0.83529 0.9691 0.2339 0.0
C1280 C 0.81197 0.95352 0.20627 0.0
C1281 C 0.80188 0.93997 0.2214 0.0
C1282 C 0.80835 0.9417 0.24296 0.0
C1283 C 0.82474 0.95624 0.24914 0.0
H1284 H 0.79297 0.15071 0.32189 0.0
H1285 H 0.74819 0.11509 0.28122 0.0
H1286 H 0.81791 0.12156 0.31979 0.0
H1287 H 0.773 0.08591 0.27926 0.0
H1288 H 0.81543 0.03045 0.29465 0.0
H1289 H 0.79066 0.05838 0.30353 0.0
H1290 H 0.83946 0.10648 0.28833 0.0
H1291 H 0.86417 0.07861 0.27918 0.0
C1292 C 0.78834 0.1365 0.3128 0.0
C1293 C 0.76868 0.13514 0.30168 0.0
C1294 C 0.80264 0.11991 0.3115 0.0
C1295 C 0.79737 0.10149 0.29938 0.0
C1296 C 0.77739 0.09984 0.28888 0.0
C1297 C 0.76327 0.11657 0.28988 0.0
C1298 C 0.82101 0.04698 0.29358 0.0
C1299 C 0.84173 0.05235 0.28613 0.0
C1300 C 0.80677 0.06294 0.29853 0.0
C1301 C 0.8131 0.08458 0.2965 0.0
C1302 C 0.83419 0.08994 0.29016 0.0
C1303 C 0.84831 0.07398 0.28487 0.0
H1304 H 0.38997 0.00654 0.00327 0.0
H1305 H 0.41703 0.94471 0.01118 0.0
H1306 H 0.35398 0.9901 0.00564 0.0
H1307 H 0.38107 0.92839 0.01383 0.0
H1308 H 0.31345 0.90672 0.0321 0.0
H1309 H 0.34801 0.92629 0.03597 0.0
H1310 H 0.33196 0.96605 0.98246 0.0
H1311 H 0.29759 0.94678 0.97871 0.0
C1312 C 0.38828 0.98945 0.00549 0.0
C1313 C 0.40645 0.97695 0.00687 0.0
C1314 C 0.36764 0.98005 0.00695 0.0
C1315 C 0.36466 0.95794 0.00993 0.0
C1316 C 0.38281 0.94551 0.01188 0.0
C1317 C 0.40345 0.95489 0.01032 0.0
C1318 C 0.31714 0.91993 0.02147 0.0
C1319 C 0.30281 0.9251 0.00503 0.0
C1320 C 0.337 0.93101 0.02356 0.0
C1321 C 0.34279 0.94762 0.00942 0.0
C1322 C 0.32797 0.95346 0.99372 0.0
C1323 C 0.30828 0.94231 0.99151 0.0
H1324 H 0.24986 0.37573 0.28645 0.0
H1325 H 0.26029 0.41037 0.34568 0.0
H1326 H 0.22033 0.39854 0.27755 0.0
H1327 H 0.23043 0.43279 0.3372 0.0
H1328 H 0.196 0.48564 0.3023 0.0
H1329 H 0.22257 0.4608 0.31381 0.0
H1330 H 0.18484 0.40865 0.28536 0.0
H1331 H 0.15855 0.43379 0.27314 0.0
C1332 C 0.24559 0.38801 0.29772 0.0
C1333 C 0.25752 0.3914 0.31666 0.0
C1334 C 0.2286 0.40106 0.29268 0.0
C1335 C 0.223 0.41768 0.30657 0.0
C1336 C 0.23453 0.42051 0.32587 0.0
C1337 C 0.25163 0.40762 0.33078 0.0
C1338 C 0.19323 0.46885 0.29869 0.0
C1339 C 0.17517 0.46172 0.28675 0.0
C1340 C 0.20846 0.45452 0.3054 0.0
C1341 C 0.20597 0.43263 0.30051 0.0
C1342 C 0.18751 0.42542 0.28912 0.0
C1343 C 0.17233 0.4398 0.28227 0.0
H1344 H 0.1294 0.00341 0.51874 0.0
H1345 H 0.12209 0.02812 0.4549 0.0
H1346 H 0.15926 0.02905 0.5253 0.0
H1347 H 0.15165 0.05366 0.46135 0.0
H1348 H 0.21781 0.08354 0.47098 0.0
H1349 H 0.18903 0.05661 0.4656 0.0
H1350 H 0.16847 0.06599 0.53085 0.0
H1351 H 0.198 0.09244 0.53624 0.0
C1352 C 0.13412 0.01441 0.50616 0.0
C1353 C 0.12332 0.01385 0.48635 0.0
C1354 C 0.15112 0.02922 0.50996 0.0
C1355 C 0.15784 0.04365 0.49394 0.0
C1356 C 0.14698 0.04295 0.47413 0.0
C1357 C 0.12988 0.02836 0.47044 0.0
C1358 C 0.20703 0.07983 0.4841 0.0
C1359 C 0.20958 0.09042 0.5038 0.0
C1360 C 0.19051 0.06445 0.48104 0.0
C1361 C 0.17613 0.05928 0.49768 0.0
C1362 C 0.17926 0.06943 0.5177 0.0
C1363 C 0.19603 0.08467 0.5208 0.0
H1364 H 0.73771 0.14558 0.72524 0.0
H1365 H 0.76507 0.09831 0.68409 0.0
H1366 H 0.70923 0.11989 0.73505 0.0
H1367 H 0.73621 0.0729 0.69348 0.0
H1368 H 0.66983 0.03937 0.70025 0.0
H1369 H 0.69731 0.06608 0.68929 0.0
H1370 H 0.70509 0.08648 0.75515 0.0
H1371 H 0.67764 0.05989 0.76586 0.0
C1372 C 0.73771 0.12972 0.7183 0.0
C1373 C 0.75378 0.12407 0.70387 0.0
C1374 C 0.72128 0.11503 0.72385 0.0
C1375 C 0.72036 0.09438 0.71495 0.0
C1376 C 0.73624 0.08879 0.70034 0.0
C1377 C 0.75278 0.10341 0.69493 0.0
C1378 C 0.67737 0.04974 0.71225 0.0
C1379 C 0.6712 0.0482 0.73373 0.0
C1380 C 0.69314 0.06492 0.70605 0.0
C1381 C 0.70326 0.07855 0.72133 0.0
C1382 C 0.69731 0.07657 0.74292 0.0
C1383 C 0.68158 0.06142 0.74906 0.0
H1384 H 0.39732 0.03781 0.55009 0.0
H1385 H 0.4049 0.03766 0.48143 0.0
H1386 H 0.36556 0.0589 0.54637 0.0
H1387 H 0.37311 0.05874 0.47771 0.0
H1388 H 0.30266 0.07857 0.47896 0.0
H1389 H 0.33437 0.05714 0.48186 0.0
H1390 H 0.35594 0.09462 0.53662 0.0
H1391 H 0.32411 0.11575 0.53395 0.0
C1392 C 0.39228 0.04235 0.5342 0.0
C1393 C 0.40374 0.03603 0.51607 0.0
C1394 C 0.37407 0.05449 0.53206 0.0
C1395 C 0.36681 0.06066 0.51174 0.0
C1396 C 0.37807 0.05408 0.49359 0.0
C1397 C 0.39631 0.04193 0.49573 0.0
C1398 C 0.31424 0.08231 0.49154 0.0
C1399 C 0.31082 0.09885 0.50625 0.0
C1400 C 0.33246 0.07006 0.49316 0.0
C1401 C 0.34768 0.07404 0.50956 0.0
C1402 C 0.3444 0.09085 0.52402 0.0
C1403 C 0.32621 0.10309 0.52239 0.0
H1404 H 0.64773 0.50707 0.56273 0.0
H1405 H 0.60859 0.49025 0.50749 0.0
H1406 H 0.67369 0.48114 0.55194 0.0
H1407 H 0.63436 0.46382 0.49697 0.0
H1408 H 0.69825 0.43778 0.47268 0.0
H1409 H 0.67123 0.4627 0.48332 0.0
H1410 H 0.67738 0.44257 0.54897 0.0
H1411 H 0.70461 0.41785 0.53846 0.0
C1412 C 0.64467 0.49784 0.54825 0.0
C1413 C 0.62612 0.50083 0.53591 0.0
C1414 C 0.65945 0.4828 0.5422 0.0
C1415 C 0.65611 0.47037 0.5236 0.0
C1416 C 0.63751 0.47326 0.51129 0.0
C1417 C 0.62264 0.48826 0.51742 0.0
C1418 C 0.69387 0.43863 0.4894 0.0
C1419 C 0.70376 0.42582 0.50471 0.0
C1420 C 0.67824 0.45283 0.49546 0.0
C1421 C 0.67216 0.45468 0.517 0.0
C1422 C 0.68188 0.44175 0.53228 0.0
C1423 C 0.69744 0.42747 0.52622 0.0
H1424 H 0.68888 0.28189 0.37483 0.0
H1425 H 0.74496 0.25001 0.39656 0.0
H1426 H 0.69173 0.30598 0.40572 0.0
H1427 H 0.7475 0.27355 0.4277 0.0
H1428 H 0.76347 0.33707 0.461 0.0
H1429 H 0.75777 0.31008 0.4333 0.0
H1430 H 0.68947 0.30987 0.44457 0.0
H1431 H 0.69541 0.33758 0.47221 0.0
C1432 C 0.70154 0.27977 0.38647 0.0
C1433 C 0.71682 0.26423 0.38323 0.0
C1434 C 0.70313 0.2935 0.4042 0.0
C1435 C 0.71995 0.29182 0.41911 0.0
C1436 C 0.73462 0.2756 0.4163 0.0
C1437 C 0.73315 0.26205 0.39851 0.0
C1438 C 0.74723 0.33131 0.45744 0.0
C1439 C 0.7298 0.33979 0.46812 0.0
C1440 C 0.74396 0.31561 0.4418 0.0
C1441 C 0.72315 0.30777 0.43666 0.0
C1442 C 0.70568 0.31578 0.44795 0.0
C1443 C 0.70902 0.33153 0.46376 0.0
H1444 H 0.53052 0.97972 0.90257 0.0
H1445 H 0.53584 0.04854 0.90416 0.0
H1446 H 0.54817 0.97964 0.86779 0.0
H1447 H 0.55369 0.04851 0.86967 0.0
H1448 H 0.56921 0.04422 0.79998 0.0
H1449 H 0.54823 0.0418 0.83253 0.0
H1450 H 0.58269 0.9866 0.85176 0.0
H1451 H 0.60336 0.98865 0.81872 0.0
C1452 C 0.5355 0.99483 0.89551 0.0
C1453 C 0.53173 0.01414 0.90614 0.0
C1454 C 0.54567 0.99479 0.87559 0.0
C1455 C 0.55239 0.01406 0.86584 0.0
C1456 C 0.5484 0.03336 0.87643 0.0
C1457 C 0.53815 0.0334 0.89626 0.0
C1458 C 0.57224 0.03143 0.81103 0.0
C1459 C 0.58812 0.01671 0.80675 0.0
C1460 C 0.56026 0.03013 0.82982 0.0
C1461 C 0.56392 0.01419 0.84499 0.0
C1462 C 0.57929 0.999 0.84038 0.0
C1463 C 0.59121 1.0002 0.82145 0.0
H1464 H 0.31947 0.27731 0.42214 0.0
H1465 H 0.30313 0.2406 0.36526 0.0
H1466 H 0.30793 0.24711 0.44433 0.0
H1467 H 0.29231 0.21023 0.38741 0.0
H1468 H 0.24534 0.17604 0.43348 0.0
H1469 H 0.2619 0.2032 0.41094 0.0
H1470 H 0.3154 0.20983 0.45494 0.0
H1471 H 0.29854 0.18246 0.47795 0.0
C1472 C 0.31354 0.26276 0.41436 0.0
C1473 C 0.31201 0.26148 0.39191 0.0
C1474 C 0.30721 0.24536 0.42709 0.0
C1475 C 0.29911 0.22629 0.41765 0.0
C1476 C 0.29826 0.22478 0.39519 0.0
C1477 C 0.30463 0.24214 0.38248 0.0
C1478 C 0.26071 0.18312 0.4384 0.0
C1479 C 0.27053 0.17713 0.45766 0.0
C1480 C 0.27031 0.19862 0.42531 0.0
C1481 C 0.28999 0.20869 0.4311 0.0
C1482 C 0.30013 0.20245 0.45013 0.0
C1483 C 0.29056 0.1867 0.46323 0.0
H1484 H 0.49815 0.44436 0.87615 0.0
H1485 H 0.48715 0.50608 0.90382 0.0
H1486 H 0.4734 0.45143 0.84721 0.0
H1487 H 0.46265 0.51371 0.87415 0.0
H1488 H 0.40369 0.50788 0.82666 0.0
H1489 H 0.42843 0.50478 0.85708 0.0
H1490 H 0.47248 0.47233 0.81621 0.0
H1491 H 0.44744 0.47453 0.78651 0.0
C1492 C 0.49051 0.45957 0.87588 0.0
C1493 C 0.49477 0.47478 0.89205 0.0
C1494 C 0.47641 0.46373 0.8592 0.0
C1495 C 0.46635 0.48338 0.85798 0.0
C1496 C 0.4701 0.49842 0.87455 0.0
C1497 C 0.48412 0.4941 0.89151 0.0
C1498 C 0.41884 0.50041 0.82424 0.0
C1499 C 0.42359 0.49121 0.80437 0.0
C1500 C 0.43302 0.49862 0.84163 0.0
C1501 C 0.45226 0.48782 0.83928 0.0
C1502 C 0.45752 0.48006 0.81889 0.0
C1503 C 0.44327 0.48151 0.80176 0.0
H1504 H 0.73748 0.75677 0.12753 0.0
H1505 H 0.67006 0.74998 0.11171 0.0
H1506 H 0.74532 0.73032 0.10029 0.0
H1507 H 0.67776 0.72273 0.08537 0.0
H1508 H 0.70076 0.6935 0.0233 0.0
H1509 H 0.69347 0.71967 0.05087 0.0
H1510 H 0.74181 0.69315 0.09151 0.0
H1511 H 0.74958 0.66733 0.06366 0.0
C1512 C 0.7243 0.74957 0.11834 0.0
C1513 C 0.70313 0.75562 0.12184 0.0
C1514 C 0.72878 0.73419 0.10286 0.0
C1515 C 0.71219 0.7244 0.09051 0.0
C1516 C 0.69099 0.73015 0.09432 0.0
C1517 C 0.68653 0.74558 0.10971 0.0
C1518 C 0.7099 0.69324 0.03808 0.0
C1519 C 0.7258 0.67826 0.04117 0.0
C1520 C 0.70559 0.70819 0.054 0.0
C1521 C 0.71696 0.70851 0.07352 0.0
C1522 C 0.73291 0.69358 0.0766 0.0
C1523 C 0.7373 0.67868 0.06062 0.0
H1524 H 0.00759 0.06078 0.15295 0.0
H1525 H 0.98727 0.00736 0.11283 0.0
H1526 H 0.98144 0.04953 0.1798 0.0
H1527 H 0.96053 0.9965 0.13944 0.0
H1528 H 0.93299 0.97048 0.20285 0.0
H1529 H 0.95859 0.98156 0.1754 0.0
H1530 H 0.94299 0.04728 0.18557 0.0
H1531 H 0.91768 0.03632 0.2133 0.0
C1532 C 0.99755 0.0466 0.14986 0.0
C1533 C 0.99962 0.03491 0.13076 0.0
C1534 C 0.98237 0.0403 0.16516 0.0
C1535 C 0.96884 0.02212 0.16178 0.0
C1536 C 0.97083 0.01046 0.14264 0.0
C1537 C 0.98601 0.01681 0.12729 0.0
C1538 C 0.93499 0.98731 0.19928 0.0
C1539 C 0.92328 1.0025 0.21043 0.0
C1540 C 0.94959 0.99364 0.1834 0.0
C1541 C 0.95288 0.01531 0.17828 0.0
C1542 C 0.94107 0.03048 0.1893 0.0
C1543 C 0.92644 0.02416 0.20515 0.0
H1544 H 0.30363 0.7797 0.1503 0.0
H1545 H 0.31263 0.73911 0.09536 0.0
H1546 H 0.29419 0.80881 0.12664 0.0
H1547 H 0.30274 0.76784 0.07175 0.0
H1548 H 0.30236 0.82767 0.03279 0.0
H1549 H 0.31469 0.80125 0.05799 0.0
H1550 H 0.26668 0.82 0.10321 0.0
H1551 H 0.25495 0.84696 0.07828 0.0
C1552 C 0.30343 0.77697 0.13317 0.0
C1553 C 0.30896 0.75715 0.12469 0.0
C1554 C 0.298 0.79363 0.11959 0.0
C1555 C 0.29779 0.79078 0.09721 0.0
C1556 C 0.3032 0.77085 0.08882 0.0
C1557 C 0.30879 0.75431 0.10237 0.0
C1558 C 0.29461 0.8263 0.04821 0.0
C1559 C 0.27763 0.83935 0.0535 0.0
C1560 C 0.30155 0.81102 0.06262 0.0
C1561 C 0.29153 0.80825 0.0826 0.0
C1562 C 0.27494 0.82178 0.08811 0.0
C1563 C 0.26814 0.8372 0.07375 0.0
H1564 H 0.06067 0.48244 0.1021 0.0
H1565 H 1.00132 0.4948 0.1344 0.0
H1566 H 0.08004 0.48664 0.13583 0.0
H1567 H 0.02098 0.49961 0.1681 0.0
H1568 H 0.06997 0.53574 0.21383 0.0
H1569 H 0.0481 0.52686 0.18236 0.0
H1570 H 0.08391 0.47026 0.17215 0.0
H1571 H 0.10591 0.47909 0.20366 0.0
C1572 C 0.05164 0.48567 0.11641 0.0
C1573 C 0.02935 0.48829 0.1154 0.0
C1574 C 0.06281 0.48815 0.13578 0.0
C1575 C 0.05205 0.49352 0.15461 0.0
C1576 C 0.02974 0.49572 0.15378 0.0
C1577 C 0.01851 0.49303 0.13443 0.0
C1578 C 0.0731 0.52128 0.20503 0.0
C1579 C 0.0898 0.50818 0.21128 0.0
C1580 C 0.06045 0.51614 0.18705 0.0
C1581 C 0.06431 0.49789 0.17475 0.0
C1582 C 0.08067 0.48453 0.18122 0.0
C1583 C 0.09319 0.48954 0.19936 0.0
H1584 H 0.38127 0.67887 0.27629 0.0
H1585 H 0.40345 0.73429 0.24077 0.0
H1586 H 0.40703 0.68809 0.30479 0.0
H1587 H 0.42911 0.74344 0.26917 0.0
H1588 H 0.45657 0.76532 0.3338 0.0
H1589 H 0.43011 0.7559 0.30609 0.0
H1590 H 0.4463 0.68975 0.31099 0.0
H1591 H 0.47263 0.69937 0.33911 0.0
C1592 C 0.3917 0.69295 0.27451 0.0
C1593 C 0.39027 0.70586 0.25624 0.0
C1594 C 0.40647 0.6982 0.29082 0.0
C1595 C 0.42015 0.71646 0.28922 0.0
C1596 C 0.4186 0.72943 0.27104 0.0
C1597 C 0.40385 0.7242 0.25476 0.0
C1598 C 0.45423 0.74874 0.32908 0.0
C1599 C 0.46602 0.73293 0.33896 0.0
C1600 C 0.43929 0.74337 0.31306 0.0
C1601 C 0.436 0.72205 0.3064 0.0
C1602 C 0.4482 0.70626 0.31603 0.0
C1603 C 0.4633 0.71171 0.332 0.0
H1604 H 0.99361 0.41781 0.9479 0.0
H1605 H 0.99317 0.3868 0.00954 0.0
H1606 H 0.99627 0.3833 0.93031 0.0
H1607 H 0.99503 0.35222 0.99173 0.0
H1608 H 0.9685 0.2962 0.94751 0.0
H1609 H 0.97038 0.32976 0.96741 0.0
H1610 H 0.02206 0.35285 0.92704 0.0
H1611 H 0.0203 0.31912 0.90707 0.0
C1612 C 0.99429 0.40372 0.95776 0.0
C1613 C 0.99317 0.40524 0.98023 0.0
C1614 C 0.99579 0.38391 0.94762 0.0
C1615 C 0.99594 0.36506 0.95964 0.0
C1616 C 0.9948 0.36648 0.98205 0.0
C1617 C 0.99357 0.38632 0.99223 0.0
C1618 C 0.98048 0.3083 0.94303 0.0
C1619 C 0.99422 0.30499 0.92565 0.0
C1620 C 0.9816 0.3275 0.9545 0.0
C1621 C 0.99628 0.34398 0.9487 0.0
C1622 C 0.01046 0.34048 0.93174 0.0
C1623 C 0.00957 0.32111 0.92043 0.0
H1624 H 0.6281 0.77677 0.25546 0.0
H1625 H 0.61696 0.84396 0.26312 0.0
H1626 H 0.60507 0.76887 0.28598 0.0
H1627 H 0.59338 0.83585 0.29324 0.0
H1628 H 0.53118 0.80574 0.32522 0.0
H1629 H 0.55733 0.81675 0.29807 0.0
H1630 H 0.60327 0.77509 0.32581 0.0
H1631 H 0.57719 0.76411 0.35298 0.0
C1632 C 0.621 0.7899 0.26376 0.0
C1633 C 0.6244 0.81101 0.25667 0.0
C1634 C 0.60774 0.78535 0.28125 0.0
C1635 C 0.59738 0.80175 0.29198 0.0
C1636 C 0.60095 0.82286 0.28512 0.0
C1637 C 0.6144 0.82746 0.26778 0.0
C1638 C 0.54697 0.79919 0.32573 0.0
C1639 C 0.55208 0.784 0.3412 0.0
C1640 C 0.56197 0.80553 0.31021 0.0
C1641 C 0.58229 0.79664 0.30971 0.0
C1642 C 0.58764 0.78202 0.32564 0.0
C1643 C 0.57275 0.77585 0.34129 0.0
H1644 H 0.06271 0.13519 0.98883 0.0
H1645 H 0.99643 0.12036 0.00385 0.0
H1646 H 0.05187 0.16311 0.96465 0.0
H1647 H 0.98533 0.14769 0.9789 0.0
H1648 H 0.97332 0.21268 0.95004 0.0
H1649 H 0.984 0.18453 0.97405 0.0
H1650 H 0.03625 0.17047 0.93175 0.0
H1651 H 0.02616 0.1993 0.90838 0.0
C1652 C 0.04576 0.13769 0.98664 0.0
C1653 C 0.03041 0.12558 0.99818 0.0
C1654 C 0.03949 0.15367 0.97269 0.0
C1655 C 0.01766 0.15778 0.96968 0.0
C1656 C 1.0023 0.14536 0.98105 0.0
C1657 C 0.00861 0.12957 0.99526 0.0
C1658 C 0.98712 0.20359 0.94591 0.0
C1659 C 0.99895 0.20836 0.92735 0.0
C1660 C 0.99318 0.18729 0.95961 0.0
C1661 C 0.01104 0.17508 0.95495 0.0
C1662 C 0.02269 0.17973 0.9362 0.0
C1663 C 0.01683 0.19625 0.92269 0.0
H1664 H 0.41665 0.33168 0.26797 0.0
H1665 H 0.36274 0.2908 0.24815 0.0
H1666 H 0.43844 0.31644 0.23994 0.0
H1667 H 0.38419 0.27634 0.21953 0.0
H1668 H 0.43602 0.23481 0.19242 0.0
H1669 H 0.41333 0.25267 0.21754 0.0
H1670 H 0.44432 0.31325 0.20162 0.0
H1671 H 0.46763 0.29521 0.17659 0.0
C1672 C 0.40938 0.31956 0.25754 0.0
C1673 C 0.38797 0.31233 0.2605 0.0
C1674 C 0.42182 0.31101 0.24128 0.0
C1675 C 0.41314 0.29503 0.22755 0.0
C1676 C 0.3915 0.28838 0.23002 0.0
C1677 C 0.3791 0.29688 0.2463 0.0
C1678 C 0.43807 0.25196 0.19414 0.0
C1679 C 0.4538 0.26352 0.18245 0.0
C1680 C 0.42485 0.26225 0.20849 0.0
C1681 C 0.42687 0.28444 0.21157 0.0
C1682 C 0.44246 0.29611 0.19978 0.0
C1683 C 0.45576 0.28577 0.18536 0.0
H1684 H 0.53302 0.40534 0.05291 0.0
H1685 H 0.50098 0.3658 0.00472 0.0
H1686 H 0.52354 0.37899 0.07997 0.0
H1687 H 0.49293 0.33876 0.03143 0.0
H1688 H 0.4711 0.29641 0.08538 0.0
H1689 H 0.47377 0.32729 0.06178 0.0
H1690 H 0.53524 0.3455 0.09006 0.0
H1691 H 0.53204 0.31533 0.11411 0.0
C1692 C 0.52374 0.39116 0.04807 0.0
C1693 C 0.51802 0.38766 0.02649 0.0
C1694 C 0.51858 0.37584 0.06359 0.0
C1695 C 0.50777 0.35648 0.05793 0.0
C1696 C 0.50116 0.35345 0.03653 0.0
C1697 C 0.50609 0.36888 0.02107 0.0
C1698 C 0.48502 0.3072 0.0867 0.0
C1699 C 0.50138 0.30338 0.10156 0.0
C1700 C 0.48665 0.32485 0.07307 0.0
C1701 C 0.50479 0.33894 0.07384 0.0
C1702 C 0.52084 0.33532 0.08916 0.0
C1703 C 0.51909 0.31786 0.1029 0.0
H1704 H 0.6105 0.22505 0.2772 0.0
H1705 H 0.64431 0.19673 0.22484 0.0
H1706 H 0.57852 0.22737 0.25441 0.0
H1707 H 0.61251 0.19938 0.20201 0.0
H1708 H 0.56267 0.23896 0.16426 0.0
H1709 H 0.59312 0.23359 0.18805 0.0
H1710 H 0.55133 0.20059 0.23276 0.0
H1711 H 0.52073 0.20556 0.20873 0.0
C1712 C 0.61099 0.21919 0.26088 0.0
C1713 C 0.62981 0.21069 0.25275 0.0
C1714 C 0.59273 0.22043 0.24791 0.0
C1715 C 0.59315 0.21362 0.22648 0.0
C1716 C 0.61185 0.20481 0.21847 0.0
C1717 C 0.62995 0.20318 0.23154 0.0
C1718 C 0.55992 0.2306 0.17917 0.0
C1719 C 0.53927 0.22273 0.18463 0.0
C1720 C 0.57738 0.2274 0.1927 0.0
C1721 C 0.57453 0.21663 0.21216 0.0
C1722 C 0.55389 0.20898 0.21783 0.0
C1723 C 0.53645 0.21178 0.20407 0.0
H1724 H 0.51603 0.09276 0.06698 0.0
H1725 H 0.48508 0.12345 0.01421 0.0
H1726 H 0.51901 0.12674 0.08623 0.0
H1727 H 0.48742 0.15754 0.03379 0.0
H1728 H 0.47133 0.20449 0.08986 0.0
H1729 H 0.47102 0.17259 0.06702 0.0
H1730 H 0.53702 0.16281 0.08431 0.0
H1731 H 0.53716 0.19475 0.10711 0.0
C1732 C 0.50982 0.10684 0.05958 0.0
C1733 C 0.50026 0.10557 0.03922 0.0
C1734 C 0.51155 0.12629 0.07055 0.0
C1735 C 0.50325 0.14478 0.06162 0.0
C1736 C 0.49377 0.14351 0.04115 0.0
C1737 C 0.49251 0.1241 0.02993 0.0
C1738 C 0.48569 0.19541 0.08875 0.0
C1739 C 0.50402 0.20144 0.10075 0.0
C1740 C 0.48563 0.17736 0.0755 0.0
C1741 C 0.50394 0.16506 0.07405 0.0
C1742 C 0.52257 0.17175 0.08539 0.0
C1743 C 0.52269 0.18997 0.09839 0.0
H1744 H 0.23826 0.41772 0.68545 0.0
H1745 H 0.26656 0.36911 0.72406 0.0
H1746 H 0.2675 0.44272 0.69542 0.0
H1747 H 0.29527 0.39439 0.73458 0.0
H1748 H 0.32945 0.45261 0.76653 0.0
H1749 H 0.30073 0.42716 0.75573 0.0
H1750 H 0.30635 0.44908 0.69047 0.0
H1751 H 0.3351 0.47465 0.70152 0.0
C1752 C 0.25078 0.41225 0.69589 0.0
C1753 C 0.24998 0.3913 0.70389 0.0
C1754 C 0.26754 0.42664 0.70164 0.0
C1755 C 0.2838 0.42053 0.7157 0.0
C1756 C 0.28297 0.39965 0.72379 0.0
C1757 C 0.26637 0.38518 0.71786 0.0
C1758 C 0.32472 0.45168 0.74983 0.0
C1759 C 0.33489 0.46495 0.73467 0.0
C1760 C 0.30827 0.43719 0.74364 0.0
C1761 C 0.30138 0.43594 0.72219 0.0
C1762 C 0.31123 0.44969 0.70712 0.0
C1763 C 0.32773 0.46422 0.71337 0.0
H1764 H 0.24505 0.60961 0.78359 0.0
H1765 H 0.2908 0.64733 0.82129 0.0
H1766 H 0.27038 0.58091 0.78144 0.0
H1767 H 0.31622 0.61863 0.81905 0.0
H1768 H 0.3619 0.57578 0.77801 0.0
H1769 H 0.33684 0.60323 0.78743 0.0
H1770 H 0.28972 0.55442 0.80524 0.0
H1771 H 0.31484 0.52691 0.79605 0.0
C1772 C 0.26045 0.61165 0.79158 0.0
C1773 C 0.26598 0.63068 0.80258 0.0
C1774 C 0.27488 0.59519 0.79048 0.0
C1775 C 0.29527 0.59756 0.80007 0.0
C1776 C 0.30064 0.61642 0.81145 0.0
C1777 C 0.28606 0.63275 0.81285 0.0
C1778 C 0.34634 0.57091 0.78431 0.0
C1779 C 0.34032 0.54918 0.78622 0.0
C1780 C 0.33203 0.58663 0.78977 0.0
C1781 C 0.31129 0.58095 0.79694 0.0
C1782 C 0.30555 0.55924 0.79959 0.0
C1783 C 0.31999 0.54352 0.79446 0.0
H1784 H 0.88815 0.50566 0.49035 0.0
H1785 H 0.91444 0.44691 0.51234 0.0
H1786 H 0.85215 0.48903 0.49141 0.0
H1787 H 0.87848 0.43043 0.51361 0.0
H1788 H 0.80958 0.41182 0.52994 0.0
H1789 H 0.84396 0.43167 0.53251 0.0
H1790 H 0.83177 0.46107 0.47154 0.0
H1791 H 0.79741 0.44156 0.46904 0.0
C1792 C 0.88629 0.48919 0.49533 0.0
C1793 C 0.90425 0.47762 0.50119 0.0
C1794 C 0.86564 0.47969 0.49602 0.0
C1795 C 0.86244 0.45842 0.50264 0.0
C1796 C 0.88034 0.44696 0.50879 0.0
C1797 C 0.90098 0.45642 0.50804 0.0
C1798 C 0.81406 0.42276 0.51724 0.0
C1799 C 0.80071 0.42498 0.49924 0.0
C1800 C 0.83386 0.43401 0.51864 0.0
C1801 C 0.84067 0.44784 0.50216 0.0
C1802 C 0.82695 0.45069 0.4846 0.0
C1803 C 0.80725 0.43938 0.48313 0.0
H1804 H 0.77 0.90676 0.7851 0.0
H1805 H 0.72942 0.87689 0.8329 0.0
H1806 H 0.74182 0.93161 0.77679 0.0
H1807 H 0.70097 0.90148 0.82418 0.0
H1808 H 0.6511 0.93582 0.77713 0.0
H1809 H 0.67772 0.91 0.78765 0.0
H1810 H 0.72344 0.96168 0.80139 0.0
H1811 H 0.69683 0.98747 0.79148 0.0
C1812 C 0.75495 0.90539 0.79363 0.0
C1813 C 0.75183 0.88995 0.80962 0.0
C1814 C 0.73892 0.91964 0.78898 0.0
C1815 C 0.71931 0.91844 0.79991 0.0
C1816 C 0.71595 0.90267 0.81553 0.0
C1817 C 0.73219 0.8887 0.82054 0.0
C1818 C 0.66673 0.94165 0.7827 0.0
C1819 C 0.67187 0.96366 0.78351 0.0
C1820 C 0.68191 0.92689 0.78871 0.0
C1821 C 0.70262 0.93391 0.79515 0.0
C1822 C 0.70762 0.9559 0.79633 0.0
C1823 C 0.69233 0.97063 0.79079 0.0
H1824 H 0.64894 0.49148 0.98306 0.0
H1825 H 0.60423 0.53743 0.00514 0.0
H1826 H 0.67872 0.51692 0.99033 0.0
H1827 H 0.63419 0.56292 0.0126 0.0
H1828 H 0.69762 0.59454 0.04044 0.0
H1829 H 0.66816 0.56748 0.0368 0.0
H1830 H 0.69006 0.55218 0.97332 0.0
H1831 H 0.71911 0.57925 0.97695 0.0
C1832 C 0.64552 0.50693 0.98975 0.0
C1833 C 0.62427 0.51248 0.99357 0.0
C1834 C 0.66254 0.52153 0.99377 0.0
C1835 C 0.65875 0.54191 1.00196 0.0
C1836 C 0.63757 0.54729 0.00637 0.0
C1837 C 0.62045 0.53278 1.00199 0.0
C1838 C 0.69601 0.58531 0.02579 0.0
C1839 C 0.7101 0.58924 0.00873 0.0
C1840 C 0.67921 0.56993 0.02367 0.0
C1841 C 0.67679 0.55781 0.00474 0.0
C1842 C 0.69159 0.56119 0.98812 0.0
C1843 C 0.70807 0.57676 0.9901 0.0
H1844 H 0.23347 0.63193 0.1807 0.0
H1845 H 0.27152 0.61485 0.2355 0.0
H1846 H 0.20572 0.60541 0.19098 0.0
H1847 H 0.24397 0.58835 0.24565 0.0
H1848 H 0.18133 0.5573 0.26915 0.0
H1849 H 0.20786 0.58504 0.25914 0.0
H1850 H 0.20035 0.56649 0.19271 0.0
H1851 H 0.17337 0.53897 0.20293 0.0
C1852 C 0.23594 0.62249 0.1949 0.0
C1853 C 0.2547 0.62553 0.2073 0.0
C1854 C 0.22007 0.60726 0.20075 0.0
C1855 C 0.22266 0.5947 0.21909 0.0
C1856 C 0.24131 0.59795 0.2316 0.0
C1857 C 0.25711 0.61318 0.2258 0.0
C1858 C 0.18521 0.55941 0.25239 0.0
C1859 C 0.17489 0.54662 0.23668 0.0
C1860 C 0.20057 0.57509 0.24667 0.0
C1861 C 0.20614 0.57811 0.22509 0.0
C1862 C 0.19612 0.56487 0.20941 0.0
C1863 C 0.1808 0.54907 0.21521 0.0
H1864 H 0.89871 0.52695 0.98604 0.0
H1865 H 0.90906 0.55313 0.04938 0.0
H1866 H 0.86661 0.54759 0.98211 0.0
H1867 H 0.87648 0.573 0.04606 0.0
H1868 H 0.82893 0.62206 0.02762 0.0
H1869 H 0.86159 0.60218 0.02984 0.0
H1870 H 0.83116 0.55115 0.99242 0.0
H1871 H 0.79899 0.57165 0.98931 0.0
C1872 C 0.8939 0.53692 0.99924 0.0
C1873 C 0.9064 0.5385 0.01798 0.0
C1874 C 0.87543 0.54872 0.99706 0.0
C1875 C 0.86882 0.56215 0.01372 0.0
C1876 C 0.88122 0.56332 0.03264 0.0
C1877 C 0.89985 0.5518 0.03465 0.0
C1878 C 0.82932 0.60666 0.01975 0.0
C1879 C 0.8114 0.59845 0.00828 0.0
C1880 C 0.848 0.59511 0.02117 0.0
C1881 C 0.84913 0.57485 0.01147 0.0
C1882 C 0.83116 0.56677 0.99984 0.0
C1883 C 0.81261 0.5785 0.99813 0.0
H1884 H 0.12625 0.00694 1.0022 0.0
H1885 H 0.12772 0.98327 0.06681 0.0
H1886 H 0.15221 0.98097 0.9915 0.0
H1887 H 0.15466 0.95802 0.05662 0.0
H1888 H 0.19149 0.90347 0.02882 0.0
H1889 H 0.1629 0.92703 0.03848 0.0
H1890 H 0.18815 0.97407 0.99393 0.0
H1891 H 0.21582 0.95003 0.98353 0.0
C1892 C 0.13227 0.99618 0.01412 0.0
C1893 C 0.12503 0.99708 0.0353 0.0
C1894 C 0.14732 0.98138 0.00808 0.0
C1895 C 0.15588 0.96741 0.0232 0.0
C1896 C 0.1483 0.9682 0.04439 0.0
C1897 C 0.13292 0.98274 0.05031 0.0
C1898 C 0.19085 0.91884 0.02109 0.0
C1899 C 0.20589 0.92484 0.00537 0.0
C1900 C 0.1745 0.93245 0.0267 0.0
C1901 C 0.17302 0.95258 0.017 0.0
C1902 C 0.1883 0.95857 1.00143 0.0
C1903 C 0.20435 0.94482 0.99555 0.0
loop_
_geom_bond_atom_site_label_1
_geom_bond_atom_site_label_2
_geom_bond_distance
_geom_bond_site_symmetry_2
_ccdc_geom_bond_type
P0 O11 1.490 . S
P0 C14 1.812 . S
P0 C20 1.803 . S
P0 C26 1.819 . S
H1 C15 0.941 . S
H2 C16 0.939 . S
H3 C18 0.940 . S
H4 C19 0.940 . S
H5 C21 0.939 . S
H6 C22 0.942 . S
H7 C24 0.940 . S
H8 C25 0.939 . S
H9 C27 0.941 . S
H10 C31 0.939 . S
O11 P0 1.490 . S
H12 C28 0.939 . S
H13 C30 0.940 . S
C14 P0 1.812 . S
C14 C15 1.389 . S
C14 C19 1.391 . S
C15 H1 0.941 . S
C15 C14 1.389 . S
C15 C16 1.397 . S
C16 H2 0.939 . S
C16 C15 1.397 . S
C16 C17 1.378 1_455 S
C17 C16 1.378 1_655 S
C17 C18 1.378 . S
C18 H3 0.940 . S
C18 C17 1.378 . S
C18 C19 1.396 1_655 S
C19 H4 0.940 . S
C19 C14 1.391 . S
C19 C18 1.396 1_455 S
C20 P0 1.803 . S
C20 C21 1.378 . S
C20 C25 1.400 . S
C21 H5 0.939 . S
C21 C20 1.378 . S
C21 C22 1.361 . S
C22 H6 0.942 . S
C22 C21 1.361 . S
C22 C23 1.369 1_545 S
C23 C22 1.369 1_565 S
C23 C24 1.404 . S
C24 H7 0.940 . S
C24 C23 1.404 . S
C24 C25 1.389 1_565 S
C25 H8 0.939 . S
C25 C20 1.400 . S
C25 C24 1.389 1_545 S
C26 P0 1.819 . S
C26 C27 1.391 . S
C26 C31 1.391 . S
C27 H9 0.941 . S
C27 C26 1.391 . S
C27 C28 1.396 . S
C28 H12 0.939 . S
C28 C27 1.396 . S
C28 C29 1.397 1_554 S
C29 C28 1.397 1_556 S
C29 C30 1.385 . S
C30 H13 0.940 . S
C30 C29 1.385 . S
C30 C31 1.388 1_556 S
C31 H10 0.939 . S
C31 C26 1.391 . S
C31 C30 1.388 1_554 S
P32 O43 1.490 . S
P32 C46 1.812 . S
P32 C52 1.803 . S
P32 C58 1.819 . S
H33 C47 0.941 . S
H34 C48 0.939 . S
H35 C50 0.940 . S
H36 C51 0.940 . S
H37 C53 0.939 . S
H38 C54 0.942 . S
H39 C56 0.940 . S
H40 C57 0.939 . S
H41 C59 0.941 . S
H42 C63 0.939 . S
O43 P32 1.490 . S
H44 C60 0.939 . S
H45 C62 0.940 . S
C46 P32 1.812 . S
C46 C47 1.389 . S
C46 C51 1.391 . S
C47 H33 0.941 . S
C47 C46 1.389 . S
C47 C48 1.397 . S
C48 H34 0.939 . S
C48 C47 1.397 . S
C48 C49 1.378 . S
C49 C48 1.378 . S
C49 C50 1.378 . S
C50 H35 0.940 . S
C50 C49 1.378 . S
C50 C51 1.396 . S
C51 H36 0.940 . S
C51 C46 1.391 . S
C51 C50 1.396 . S
C52 P32 1.803 . S
C52 C53 1.378 . S
C52 C57 1.400 . S
C53 H37 0.939 . S
C53 C52 1.378 . S
C53 C54 1.361 . S
C54 H38 0.942 . S
C54 C53 1.361 . S
C54 C55 1.369 . S
C55 C54 1.369 . S
C55 C56 1.404 . S
C56 H39 0.940 . S
C56 C55 1.404 . S
C56 C57 1.389 . S
C57 H40 0.939 . S
C57 C52 1.400 . S
C57 C56 1.389 . S
C58 P32 1.819 . S
C58 C59 1.391 . S
C58 C63 1.391 . S
C59 H41 0.941 . S
C59 C58 1.391 . S
C59 C60 1.396 . S
C60 H44 0.939 . S
C60 C59 1.396 . S
C60 C61 1.397 . S
C61 C60 1.397 . S
C61 C62 1.385 . S
C62 H45 0.940 . S
C62 C61 1.385 . S
C62 C63 1.388 . S
C63 H42 0.939 . S
C63 C58 1.391 . S
C63 C62 1.388 . S
P64 O75 1.490 . S
P64 C78 1.812 . S
P64 C84 1.803 . S
P64 C90 1.819 . S
H65 C79 0.941 . S
H66 C80 0.939 . S
H67 C82 0.940 . S
H68 C83 0.940 . S
H69 C85 0.939 . S
H70 C86 0.942 . S
H71 C88 0.940 . S
H72 C89 0.939 . S
H73 C91 0.941 . S
H74 C95 0.939 . S
O75 P64 1.490 . S
H76 C92 0.939 . S
H77 C94 0.940 . S
C78 P64 1.812 . S
C78 C79 1.389 1_554 S
C78 C83 1.391 . S
C79 H65 0.941 . S
C79 C78 1.389 1_556 S
C79 C80 1.397 . S
C80 H66 0.939 . S
C80 C79 1.397 . S
C80 C81 1.378 . S
C81 C80 1.378 . S
C81 C82 1.378 1_556 S
C82 H67 0.940 . S
C82 C81 1.378 1_554 S
C82 C83 1.396 . S
C83 H68 0.940 . S
C83 C78 1.391 . S
C83 C82 1.396 . S
C84 P64 1.803 . S
C84 C85 1.378 . S
C84 C89 1.400 . S
C85 H69 0.939 . S
C85 C84 1.378 . S
C85 C86 1.361 . S
C86 H70 0.942 . S
C86 C85 1.361 . S
C86 C87 1.369 . S
C87 C86 1.369 . S
C87 C88 1.404 . S
C88 H71 0.940 . S
C88 C87 1.404 . S
C88 C89 1.389 . S
C89 H72 0.939 . S
C89 C84 1.400 . S
C89 C88 1.389 . S
C90 P64 1.819 . S
C90 C91 1.391 1_655 S
C90 C95 1.391 . S
C91 H73 0.941 . S
C91 C90 1.391 1_455 S
C91 C92 1.396 . S
C92 H76 0.939 . S
C92 C91 1.396 . S
C92 C93 1.397 . S
C93 C92 1.397 . S
C93 C94 1.385 1_455 S
C94 H77 0.940 . S
C94 C93 1.385 1_655 S
C94 C95 1.388 . S
C95 H74 0.939 . S
C95 C90 1.391 . S
C95 C94 1.388 . S
P96 O107 1.490 . S
P96 C110 1.812 . S
P96 C116 1.803 . S
P96 C122 1.819 . S
H97 C111 0.941 . S
H98 C112 0.939 . S
H99 C114 0.940 . S
H100 C115 0.940 . S
H101 C117 0.939 . S
H102 C118 0.942 . S
H103 C120 0.940 . S
H104 C121 0.939 . S
H105 C123 0.941 . S
H106 C127 0.939 . S
O107 P96 1.490 . S
H108 C124 0.939 . S
H109 C126 0.940 . S
C110 P96 1.812 . S
C110 C111 1.389 . S
C110 C115 1.391 . S
C111 H97 0.941 . S
C111 C110 1.389 . S
C111 C112 1.397 . S
C112 H98 0.939 . S
C112 C111 1.397 . S
C112 C113 1.378 . S
C113 C112 1.378 . S
C113 C114 1.378 . S
C114 H99 0.940 . S
C114 C113 1.378 . S
C114 C115 1.396 . S
C115 H100 0.940 . S
C115 C110 1.391 . S
C115 C114 1.396 . S
C116 P96 1.803 . S
C116 C117 1.378 . S
C116 C121 1.400 . S
C117 H101 0.939 . S
C117 C116 1.378 . S
C117 C118 1.361 . S
C118 H102 0.942 . S
C118 C117 1.361 . S
C118 C119 1.369 . S
C119 C118 1.369 . S
C119 C120 1.404 . S
C120 H103 0.940 . S
C120 C119 1.404 . S
C120 C121 1.389 . S
C121 H104 0.939 . S
C121 C116 1.400 . S
C121 C120 1.389 . S
C122 P96 1.819 . S
C122 C123 1.391 . S
C122 C127 1.391 . S
C123 H105 0.941 . S
C123 C122 1.391 . S
C123 C124 1.396 . S
C124 H108 0.939 . S
C124 C123 1.396 . S
C124 C125 1.397 . S
C125 C124 1.397 . S
C125 C126 1.385 . S
C126 H109 0.940 . S
C126 C125 1.385 . S
C126 C127 1.388 . S
C127 H106 0.939 . S
C127 C122 1.391 . S
C127 C126 1.388 . S
P128 O139 1.490 . S
P128 C142 1.812 . S
P128 C148 1.803 . S
P128 C154 1.819 . S
H129 C143 0.941 . S
H130 C144 0.939 . S
H131 C146 0.940 . S
H132 C147 0.940 . S
H133 C149 0.939 . S
H134 C150 0.942 . S
H135 C152 0.940 . S
H136 C153 0.939 . S
H137 C155 0.941 . S
H138 C159 0.939 . S
O139 P128 1.490 . S
H140 C156 0.939 . S
H141 C158 0.940 . S
C142 P128 1.812 . S
C142 C143 1.389 . S
C142 C147 1.391 . S
C143 H129 0.941 . S
C143 C142 1.389 . S
C143 C144 1.397 . S
C144 H130 0.939 . S
C144 C143 1.397 . S
C144 C145 1.378 1_565 S
C145 C144 1.378 1_545 S
C145 C146 1.378 . S
C146 H131 0.940 . S
C146 C145 1.378 . S
C146 C147 1.396 1_545 S
C147 H132 0.940 . S
C147 C142 1.391 . S
C147 C146 1.396 1_565 S
C148 P128 1.803 . S
C148 C149 1.378 . S
C148 C153 1.400 . S
C149 H133 0.939 . S
C149 C148 1.378 . S
C149 C150 1.361 . S
C150 H134 0.942 . S
C150 C149 1.361 . S
C150 C151 1.369 . S
C151 C150 1.369 . S
C151 C152 1.404 . S
C152 H135 0.940 . S
C152 C151 1.404 . S
C152 C153 1.389 . S
C153 H136 0.939 . S
C153 C148 1.400 . S
C153 C152 1.389 . S
C154 P128 1.819 . S
C154 C155 1.391 . S
C154 C159 1.391 . S
C155 H137 0.941 . S
C155 C154 1.391 . S
C155 C156 1.396 . S
C156 H140 0.939 . S
C156 C155 1.396 . S
C156 C157 1.397 1_455 S
C157 C156 1.397 1_655 S
C157 C158 1.385 . S
C158 H141 0.940 . S
C158 C157 1.385 . S
C158 C159 1.388 1_655 S
C159 H138 0.939 . S
C159 C154 1.391 . S
C159 C158 1.388 1_455 S
P160 O171 1.490 . S
P160 C174 1.812 . S
P160 C180 1.803 . S
P160 C186 1.819 . S
H161 C175 0.941 . S
H162 C176 0.939 . S
H163 C178 0.940 . S
H164 C179 0.940 . S
H165 C181 0.939 . S
H166 C182 0.942 . S
H167 C184 0.940 . S
H168 C185 0.939 . S
H169 C187 0.941 . S
H170 C191 0.939 . S
O171 P160 1.490 . S
H172 C188 0.939 . S
H173 C190 0.940 . S
C174 P160 1.812 . S
C174 C175 1.389 . S
C174 C179 1.391 . S
C175 H161 0.941 . S
C175 C174 1.389 . S
C175 C176 1.397 . S
C176 H162 0.939 . S
C176 C175 1.397 . S
C176 C177 1.378 . S
C177 C176 1.378 . S
C177 C178 1.378 . S
C178 H163 0.940 . S
C178 C177 1.378 . S
C178 C179 1.396 . S
C179 H164 0.940 . S
C179 C174 1.391 . S
C179 C178 1.396 . S
C180 P160 1.803 . S
C180 C181 1.378 . S
C180 C185 1.400 . S
C181 H165 0.939 . S
C181 C180 1.378 . S
C181 C182 1.361 . S
C182 H166 0.942 . S
C182 C181 1.361 . S
C182 C183 1.369 . S
C183 C182 1.369 . S
C183 C184 1.404 . S
C184 H167 0.940 . S
C184 C183 1.404 . S
C184 C185 1.389 . S
C185 H168 0.939 . S
C185 C180 1.400 . S
C185 C184 1.389 . S
C186 P160 1.819 . S
C186 C187 1.391 . S
C186 C191 1.391 . S
C187 H169 0.941 . S
C187 C186 1.391 . S
C187 C188 1.396 . S
C188 H172 0.939 . S
C188 C187 1.396 . S
C188 C189 1.397 . S
C189 C188 1.397 . S
C189 C190 1.385 . S
C190 H173 0.940 . S
C190 C189 1.385 . S
C190 C191 1.388 . S
C191 H170 0.939 . S
C191 C186 1.391 . S
C191 C190 1.388 . S
P192 O203 1.490 1_655 S
P192 C206 1.818 . S
P192 C212 1.803 . S
P192 C218 1.819 . S
H193 C207 0.941 . S
H194 C208 0.939 . S
H195 C210 0.940 . S
H196 C211 0.940 . S
H197 C213 0.939 . S
H198 C214 0.942 . S
H199 C216 0.940 . S
H200 C217 0.939 . S
H201 C219 0.941 . S
H202 C223 0.939 . S
O203 P192 1.490 1_455 S
H204 C220 0.939 . S
H205 C222 0.940 . S
C206 P192 1.818 . S
C206 C207 1.368 1_655 S
C206 C211 1.404 . S
C207 H193 0.941 . S
C207 C206 1.368 1_455 S
C207 C208 1.397 . S
C208 H194 0.939 . S
C208 C207 1.397 . S
C208 C209 1.378 . S
C209 C208 1.378 . S
C209 C210 1.378 1_455 S
C210 H195 0.940 . S
C210 C209 1.378 1_655 S
C210 C211 1.396 . S
C211 H196 0.940 . S
C211 C206 1.404 . S
C211 C210 1.396 . S
C212 P192 1.803 . S
C212 C213 1.378 . S
C212 C217 1.400 . S
C213 H197 0.939 . S
C213 C212 1.378 . S
C213 C214 1.361 . S
C214 H198 0.942 . S
C214 C213 1.361 . S
C214 C215 1.369 . S
C215 C214 1.369 . S
C215 C216 1.404 . S
C216 H199 0.940 . S
C216 C215 1.404 . S
C216 C217 1.389 . S
C217 H200 0.939 . S
C217 C212 1.400 . S
C217 C216 1.389 . S
C218 P192 1.819 . S
C218 C219 1.391 . S
C218 C223 1.391 . S
C219 H201 0.941 . S
C219 C218 1.391 . S
C219 C220 1.396 . S
C220 H204 0.939 . S
C220 C219 1.396 . S
C220 C221 1.397 . S
C221 C220 1.397 . S
C221 C222 1.385 . S
C222 H205 0.940 . S
C222 C221 1.385 . S
C222 C223 1.388 . S
C223 H202 0.939 . S
C223 C218 1.391 . S
C223 C222 1.388 . S
P224 O235 1.490 . S
P224 C238 1.812 . S
P224 C244 1.803 . S
P224 C250 1.819 . S
H225 C239 0.941 . S
H226 C240 0.939 . S
H227 C242 0.940 . S
H228 C243 0.940 . S
H229 C245 0.939 . S
H230 C246 0.942 . S
H231 C248 0.940 . S
H232 C249 0.939 . S
H233 C251 0.941 . S
H234 C255 0.939 . S
O235 P224 1.490 . S
H236 C252 0.939 . S
H237 C254 0.940 . S
C238 P224 1.812 . S
C238 C239 1.389 . S
C238 C243 1.391 . S
C239 H225 0.941 . S
C239 C238 1.389 . S
C239 C240 1.397 . S
C240 H226 0.939 . S
C240 C239 1.397 . S
C240 C241 1.378 . S
C241 C240 1.378 . S
C241 C242 1.378 . S
C242 H227 0.940 . S
C242 C241 1.378 . S
C242 C243 1.396 . S
C243 H228 0.940 . S
C243 C238 1.391 . S
C243 C242 1.396 . S
C244 P224 1.803 . S
C244 C245 1.378 . S
C244 C249 1.400 . S
C245 H229 0.939 . S
C245 C244 1.378 . S
C245 C246 1.361 . S
C246 H230 0.942 . S
C246 C245 1.361 . S
C246 C247 1.369 . S
C247 C246 1.369 . S
C247 C248 1.404 . S
C248 H231 0.940 . S
C248 C247 1.404 . S
C248 C249 1.389 . S
C249 H232 0.939 . S
C249 C244 1.400 . S
C249 C248 1.389 . S
C250 P224 1.819 . S
C250 C251 1.391 . S
C250 C255 1.391 . S
C251 H233 0.941 . S
C251 C250 1.391 . S
C251 C252 1.396 . S
C252 H236 0.939 . S
C252 C251 1.396 . S
C252 C253 1.397 . S
C253 C252 1.397 . S
C253 C254 1.385 . S
C254 H237 0.940 . S
C254 C253 1.385 . S
C254 C255 1.388 . S
C255 H234 0.939 . S
C255 C250 1.391 . S
C255 C254 1.388 . S
P256 O267 1.490 . S
P256 C270 1.812 . S
P256 C276 1.803 . S
P256 C282 1.819 . S
H257 C271 0.941 . S
H258 C272 0.939 . S
H259 C274 0.940 . S
H260 C275 0.940 . S
H261 C277 0.939 . S
H262 C278 0.942 . S
H263 C280 0.940 . S
H264 C281 0.939 . S
H265 C283 0.941 . S
H266 C287 0.939 . S
O267 P256 1.490 . S
H268 C284 0.939 . S
H269 C286 0.940 . S
C270 P256 1.812 . S
C270 C271 1.389 . S
C270 C275 1.391 . S
C271 H257 0.941 . S
C271 C270 1.389 . S
C271 C272 1.397 . S
C272 H258 0.939 . S
C272 C271 1.397 . S
C272 C273 1.378 . S
C273 C272 1.378 . S
C273 C274 1.378 . S
C274 H259 0.940 . S
C274 C273 1.378 . S
C274 C275 1.396 . S
C275 H260 0.940 . S
C275 C270 1.391 . S
C275 C274 1.396 . S
C276 P256 1.803 . S
C276 C277 1.378 . S
C276 C281 1.400 . S
C277 H261 0.939 . S
C277 C276 1.378 . S
C277 C278 1.361 . S
C278 H262 0.942 . S
C278 C277 1.361 . S
C278 C279 1.369 . S
C279 C278 1.369 . S
C279 C280 1.404 . S
C280 H263 0.940 . S
C280 C279 1.404 . S
C280 C281 1.389 . S
C281 H264 0.939 . S
C281 C276 1.400 . S
C281 C280 1.389 . S
C282 P256 1.819 . S
C282 C283 1.391 . S
C282 C287 1.391 . S
C283 H265 0.941 . S
C283 C282 1.391 . S
C283 C284 1.396 . S
C284 H268 0.939 . S
C284 C283 1.396 . S
C284 C285 1.397 . S
C285 C284 1.397 . S
C285 C286 1.385 . S
C286 H269 0.940 . S
C286 C285 1.385 . S
C286 C287 1.388 . S
C287 H266 0.939 . S
C287 C282 1.391 . S
C287 C286 1.388 . S
P288 O299 1.490 1_565 S
P288 C302 1.812 . S
P288 C308 1.803 . S
P288 C314 1.819 . S
H289 C303 0.941 . S
H290 C304 0.939 . S
H291 C306 0.940 . S
H292 C307 0.940 . S
H293 C309 0.939 . S
H294 C310 0.942 . S
H295 C312 0.940 . S
H296 C313 0.939 . S
H297 C315 0.941 . S
H298 C319 0.939 . S
O299 P288 1.490 1_545 S
H300 C316 0.939 . S
H301 C318 0.940 . S
C302 P288 1.812 . S
C302 C303 1.389 . S
C302 C307 1.391 . S
C303 H289 0.941 . S
C303 C302 1.389 . S
C303 C304 1.397 . S
C304 H290 0.939 . S
C304 C303 1.397 . S
C304 C305 1.378 . S
C305 C304 1.378 . S
C305 C306 1.378 . S
C306 H291 0.940 . S
C306 C305 1.378 . S
C306 C307 1.396 . S
C307 H292 0.940 . S
C307 C302 1.391 . S
C307 C306 1.396 . S
C308 P288 1.803 . S
C308 C309 1.378 1_565 S
C308 C313 1.400 . S
C309 H293 0.939 . S
C309 C308 1.378 1_545 S
C309 C310 1.361 . S
C310 H294 0.942 . S
C310 C309 1.361 . S
C310 C311 1.369 . S
C311 C310 1.369 . S
C311 C312 1.404 1_545 S
C312 H295 0.940 . S
C312 C311 1.404 1_565 S
C312 C313 1.389 . S
C313 H296 0.939 . S
C313 C308 1.400 . S
C313 C312 1.389 . S
C314 P288 1.819 . S
C314 C315 1.391 . S
C314 C319 1.391 . S
C315 H297 0.941 . S
C315 C314 1.391 . S
C315 C316 1.396 . S
C316 H300 0.939 . S
C316 C315 1.396 . S
C316 C317 1.397 . S
C317 C316 1.397 . S
C317 C318 1.385 . S
C318 H301 0.940 . S
C318 C317 1.385 . S
C318 C319 1.388 . S
C319 H298 0.939 . S
C319 C314 1.391 . S
C319 C318 1.388 . S
P320 O331 1.490 . S
P320 C334 1.812 . S
P320 C340 1.803 . S
P320 C346 1.819 . S
H321 C335 0.941 . S
H322 C336 0.939 . S
H323 C338 0.940 . S
H324 C339 0.940 . S
H325 C341 0.939 . S
H326 C342 0.942 . S
H327 C344 0.940 . S
H328 C345 0.939 . S
H329 C347 0.941 . S
H330 C351 0.939 . S
O331 P320 1.490 . S
H332 C348 0.939 . S
H333 C350 0.940 . S
C334 P320 1.812 . S
C334 C335 1.389 . S
C334 C339 1.391 . S
C335 H321 0.941 . S
C335 C334 1.389 . S
C335 C336 1.397 . S
C336 H322 0.939 . S
C336 C335 1.397 . S
C336 C337 1.378 . S
C337 C336 1.378 . S
C337 C338 1.378 . S
C338 H323 0.940 . S
C338 C337 1.378 . S
C338 C339 1.396 . S
C339 H324 0.940 . S
C339 C334 1.391 . S
C339 C338 1.396 . S
C340 P320 1.803 . S
C340 C341 1.378 . S
C340 C345 1.400 . S
C341 H325 0.939 . S
C341 C340 1.378 . S
C341 C342 1.361 . S
C342 H326 0.942 . S
C342 C341 1.361 . S
C342 C343 1.369 . S
C343 C342 1.369 . S
C343 C344 1.404 . S
C344 H327 0.940 . S
C344 C343 1.404 . S
C344 C345 1.389 . S
C345 H328 0.939 . S
C345 C340 1.400 . S
C345 C344 1.389 . S
C346 P320 1.819 . S
C346 C347 1.391 . S
C346 C351 1.391 . S
C347 H329 0.941 . S
C347 C346 1.391 . S
C347 C348 1.396 . S
C348 H332 0.939 . S
C348 C347 1.396 . S
C348 C349 1.397 . S
C349 C348 1.397 . S
C349 C350 1.385 . S
C350 H333 0.940 . S
C350 C349 1.385 . S
C350 C351 1.388 . S
C351 H330 0.939 . S
C351 C346 1.391 . S
C351 C350 1.388 . S
P352 O363 1.490 . S
P352 C366 1.812 . S
P352 C372 1.803 . S
P352 C378 1.819 . S
H353 C367 0.941 . S
H354 C368 0.939 . S
H355 C370 0.940 . S
H356 C371 0.940 . S
H357 C373 0.939 . S
H358 C374 0.942 . S
H359 C376 0.940 . S
H360 C377 0.939 . S
H361 C379 0.941 . S
H362 C383 0.939 . S
O363 P352 1.490 . S
H364 C380 0.939 . S
H365 C382 0.940 . S
C366 P352 1.812 . S
C366 C367 1.389 . S
C366 C371 1.391 . S
C367 H353 0.941 . S
C367 C366 1.389 . S
C367 C368 1.397 . S
C368 H354 0.939 . S
C368 C367 1.397 . S
C368 C369 1.378 . S
C369 C368 1.378 . S
C369 C370 1.378 . S
C370 H355 0.940 . S
C370 C369 1.378 . S
C370 C371 1.396 . S
C371 H356 0.940 . S
C371 C366 1.391 . S
C371 C370 1.396 . S
C372 P352 1.803 . S
C372 C373 1.378 . S
C372 C377 1.400 . S
C373 H357 0.939 . S
C373 C372 1.378 . S
C373 C374 1.361 . S
C374 H358 0.942 . S
C374 C373 1.361 . S
C374 C375 1.369 . S
C375 C374 1.369 . S
C375 C376 1.404 . S
C376 H359 0.940 . S
C376 C375 1.404 . S
C376 C377 1.389 . S
C377 H360 0.939 . S
C377 C372 1.400 . S
C377 C376 1.389 . S
C378 P352 1.819 . S
C378 C379 1.391 . S
C378 C383 1.391 . S
C379 H361 0.941 . S
C379 C378 1.391 . S
C379 C380 1.396 . S
C380 H364 0.939 . S
C380 C379 1.396 . S
C380 C381 1.397 . S
C381 C380 1.397 . S
C381 C382 1.385 . S
C382 H365 0.940 . S
C382 C381 1.385 . S
C382 C383 1.388 . S
C383 H362 0.939 . S
C383 C378 1.391 . S
C383 C382 1.388 . S
P384 O395 1.490 . S
P384 C398 1.812 . S
P384 C404 1.803 . S
P384 C410 1.819 . S
H385 C399 0.941 . S
H386 C400 0.939 . S
H387 C402 0.940 . S
H388 C403 0.940 . S
H389 C405 0.939 . S
H390 C406 0.942 . S
H391 C408 0.940 . S
H392 C409 0.939 . S
H393 C411 0.941 . S
H394 C415 0.939 . S
O395 P384 1.490 . S
H396 C412 0.939 . S
H397 C414 0.940 . S
C398 P384 1.812 . S
C398 C399 1.389 . S
C398 C403 1.391 . S
C399 H385 0.941 . S
C399 C398 1.389 . S
C399 C400 1.397 . S
C400 H386 0.939 . S
C400 C399 1.397 . S
C400 C401 1.378 . S
C401 C400 1.378 . S
C401 C402 1.378 . S
C402 H387 0.940 . S
C402 C401 1.378 . S
C402 C403 1.396 . S
C403 H388 0.940 . S
C403 C398 1.391 . S
C403 C402 1.396 . S
C404 P384 1.803 . S
C404 C405 1.378 . S
C404 C409 1.400 . S
C405 H389 0.939 . S
C405 C404 1.378 . S
C405 C406 1.361 . S
C406 H390 0.942 . S
C406 C405 1.361 . S
C406 C407 1.369 . S
C407 C406 1.369 . S
C407 C408 1.404 . S
C408 H391 0.940 . S
C408 C407 1.404 . S
C408 C409 1.389 . S
C409 H392 0.939 . S
C409 C404 1.400 . S
C409 C408 1.389 . S
C410 P384 1.819 . S
C410 C411 1.391 . S
C410 C415 1.391 . S
C411 H393 0.941 . S
C411 C410 1.391 . S
C411 C412 1.396 . S
C412 H396 0.939 . S
C412 C411 1.396 . S
C412 C413 1.397 . S
C413 C412 1.397 . S
C413 C414 1.385 . S
C414 H397 0.940 . S
C414 C413 1.385 . S
C414 C415 1.388 . S
C415 H394 0.939 . S
C415 C410 1.391 . S
C415 C414 1.388 . S
P416 O427 1.490 . S
P416 C430 1.812 . S
P416 C436 1.803 . S
P416 C442 1.819 . S
H417 C431 0.941 . S
H418 C432 0.939 . S
H419 C434 0.940 . S
H420 C435 0.940 . S
H421 C437 0.939 . S
H422 C438 0.942 . S
H423 C440 0.940 . S
H424 C441 0.939 . S
H425 C443 0.941 . S
H426 C447 0.939 . S
O427 P416 1.490 . S
H428 C444 0.939 . S
H429 C446 0.940 . S
C430 P416 1.812 . S
C430 C431 1.389 . S
C430 C435 1.391 . S
C431 H417 0.941 . S
C431 C430 1.389 . S
C431 C432 1.397 . S
C432 H418 0.939 . S
C432 C431 1.397 . S
C432 C433 1.378 . S
C433 C432 1.378 . S
C433 C434 1.378 . S
C434 H419 0.940 . S
C434 C433 1.378 . S
C434 C435 1.396 . S
C435 H420 0.940 . S
C435 C430 1.391 . S
C435 C434 1.396 . S
C436 P416 1.803 . S
C436 C437 1.378 . S
C436 C441 1.400 . S
C437 H421 0.939 . S
C437 C436 1.378 . S
C437 C438 1.361 . S
C438 H422 0.942 . S
C438 C437 1.361 . S
C438 C439 1.369 1_556 S
C439 C438 1.369 1_554 S
C439 C440 1.404 . S
C440 H423 0.940 . S
C440 C439 1.404 . S
C440 C441 1.389 1_554 S
C441 H424 0.939 . S
C441 C436 1.400 . S
C441 C440 1.389 1_556 S
C442 P416 1.819 . S
C442 C443 1.391 . S
C442 C447 1.391 . S
C443 H425 0.941 . S
C443 C442 1.391 . S
C443 C444 1.396 . S
C444 H428 0.939 . S
C444 C443 1.396 . S
C444 C445 1.397 . S
C445 C444 1.397 . S
C445 C446 1.385 . S
C446 H429 0.940 . S
C446 C445 1.385 . S
C446 C447 1.388 . S
C447 H426 0.939 . S
C447 C442 1.391 . S
C447 C446 1.388 . S
P448 O459 1.490 . S
P448 C462 1.812 . S
P448 C468 1.803 . S
P448 C474 1.819 . S
H449 C463 0.941 . S
H450 C464 0.939 . S
H451 C466 0.940 . S
H452 C467 0.940 . S
H453 C469 0.939 . S
H454 C470 0.942 . S
H455 C472 0.940 . S
H456 C473 0.939 . S
H457 C475 0.941 . S
H458 C479 0.939 . S
O459 P448 1.490 . S
H460 C476 0.939 . S
H461 C478 0.940 . S
C462 P448 1.812 . S
C462 C463 1.389 . S
C462 C467 1.391 . S
C463 H449 0.941 . S
C463 C462 1.389 . S
C463 C464 1.397 . S
C464 H450 0.939 . S
C464 C463 1.397 . S
C464 C465 1.378 . S
C465 C464 1.378 . S
C465 C466 1.378 . S
C466 H451 0.940 . S
C466 C465 1.378 . S
C466 C467 1.396 . S
C467 H452 0.940 . S
C467 C462 1.391 . S
C467 C466 1.396 . S
C468 P448 1.803 . S
C468 C469 1.378 . S
C468 C473 1.400 . S
C469 H453 0.939 . S
C469 C468 1.378 . S
C469 C470 1.361 . S
C470 H454 0.942 . S
C470 C469 1.361 . S
C470 C471 1.369 . S
C471 C470 1.369 . S
C471 C472 1.404 . S
C472 H455 0.940 . S
C472 C471 1.404 . S
C472 C473 1.389 . S
C473 H456 0.939 . S
C473 C468 1.400 . S
C473 C472 1.389 . S
C474 P448 1.819 . S
C474 C475 1.391 . S
C474 C479 1.391 . S
C475 H457 0.941 . S
C475 C474 1.391 . S
C475 C476 1.396 . S
C476 H460 0.939 . S
C476 C475 1.396 . S
C476 C477 1.397 . S
C477 C476 1.397 . S
C477 C478 1.385 . S
C478 H461 0.940 . S
C478 C477 1.385 . S
C478 C479 1.388 . S
C479 H458 0.939 . S
C479 C474 1.391 . S
C479 C478 1.388 . S
P480 O491 1.490 1_556 S
P480 C494 1.812 . S
P480 C500 1.803 1_556 S
P480 C506 1.819 . S
H481 C495 0.941 . S
H482 C496 0.939 . S
H483 C498 0.940 . S
H484 C499 0.940 . S
H485 C501 0.939 . S
H486 C502 0.942 . S
H487 C504 0.940 . S
H488 C505 0.939 . S
H489 C507 0.941 . S
H490 C511 0.939 . S
O491 P480 1.490 1_554 S
H492 C508 0.939 . S
H493 C510 0.940 . S
C494 P480 1.812 . S
C494 C495 1.389 . S
C494 C499 1.391 . S
C495 H481 0.941 . S
C495 C494 1.389 . S
C495 C496 1.397 . S
C496 H482 0.939 . S
C496 C495 1.397 . S
C496 C497 1.378 . S
C497 C496 1.378 . S
C497 C498 1.378 . S
C498 H483 0.940 . S
C498 C497 1.378 . S
C498 C499 1.396 . S
C499 H484 0.940 . S
C499 C494 1.391 . S
C499 C498 1.396 . S
C500 P480 1.803 1_554 S
C500 C501 1.378 . S
C500 C505 1.400 1_554 S
C501 H485 0.939 . S
C501 C500 1.378 . S
C501 C502 1.361 . S
C502 H486 0.942 . S
C502 C501 1.361 . S
C502 C503 1.369 . S
C503 C502 1.369 . S
C503 C504 1.404 1_554 S
C504 H487 0.940 . S
C504 C503 1.404 1_556 S
C504 C505 1.389 . S
C505 H488 0.939 . S
C505 C500 1.400 1_556 S
C505 C504 1.389 . S
C506 P480 1.819 . S
C506 C507 1.391 1_545 S
C506 C511 1.391 . S
C507 H489 0.941 . S
C507 C506 1.391 1_565 S
C507 C508 1.396 . S
C508 H492 0.939 . S
C508 C507 1.396 . S
C508 C509 1.397 . S
C509 C508 1.397 . S
C509 C510 1.385 1_565 S
C510 H493 0.940 . S
C510 C509 1.385 1_545 S
C510 C511 1.388 . S
C511 H490 0.939 . S
C511 C506 1.391 . S
C511 C510 1.388 . S
Mn512 O517 2.095 . S
Mn512 O527 2.162 . S
Mn512 O528 2.297 . S
Mn512 O536 2.385 1_554 S
Mn512 O537 2.209 1_554 S
Mn512 O538 2.094 . S
Mn513 O518 2.121 . S
Mn513 N520 2.257 . S
Mn513 N529 2.282 . S
Mn513 O537 2.215 . S
Mn513 O539 2.117 . S
C514 O536 1.234 . S
C514 O537 1.283 . S
C515 O527 1.281 . S
C515 O528 1.236 . S
C516 O538 1.240 . S
C516 O539 1.264 1_554 S
O517 Mn512 2.095 . S
O517 C526 1.252 . S
O518 Mn513 2.121 . S
O518 C526 1.255 1_556 S
C519 N520 1.326 . S
C519 C523 1.460 . S
C519 H525 0.929 . S
N520 Mn513 2.257 . S
N520 C519 1.326 . S
N520 C524 1.362 . S
C521 C522 1.258 . S
C521 C524 1.431 . S
C521 C541 1.449 . S
C522 C521 1.258 . S
C522 C523 1.477 . S
C522 H542 0.931 . S
C523 C519 1.460 . S
C523 C522 1.477 . S
C523 H543 0.930 . S
C524 N520 1.362 . S
C524 C521 1.431 . S
C524 C534 1.476 . S
H525 C519 0.929 . S
C526 O517 1.252 . S
C526 O518 1.255 1_554 S
O527 Mn512 2.162 . S
O527 C515 1.281 . S
O528 Mn512 2.297 . S
O528 C515 1.236 . S
N529 Mn513 2.282 . S
N529 C530 1.328 . S
N529 C534 1.318 . S
C530 N529 1.328 . S
C530 C531 1.457 . S
C530 H535 0.929 . S
C531 C530 1.457 . S
C531 C532 1.291 . S
C531 H544 0.931 . S
C532 C531 1.291 . S
C532 C533 1.373 . S
C532 H545 0.929 . S
C533 C532 1.373 . S
C533 C534 1.396 . S
C533 C540 1.403 . S
C534 C524 1.476 . S
C534 N529 1.318 . S
C534 C533 1.396 . S
H535 C530 0.929 . S
O536 Mn512 2.385 1_556 S
O536 C514 1.234 . S
O537 Mn512 2.209 1_556 S
O537 Mn513 2.215 . S
O537 C514 1.283 . S
O538 Mn512 2.094 . S
O538 C516 1.240 . S
O539 Mn513 2.117 . S
O539 C516 1.264 1_556 S
C540 C533 1.403 . S
C540 C541 1.399 . S
C540 H546 0.929 . S
C541 C521 1.449 . S
C541 C540 1.399 . S
C541 H547 0.930 . S
H542 C522 0.931 . S
H543 C523 0.930 . S
H544 C531 0.931 . S
H545 C532 0.929 . S
H546 C540 0.929 . S
H547 C541 0.930 . S
Mn548 O553 2.095 . S
Mn548 O563 2.162 . S
Mn548 O564 2.297 . S
Mn548 O572 2.385 . S
Mn548 O573 2.209 . S
Mn548 O574 2.094 . S
Mn549 O554 2.121 . S
Mn549 N556 2.257 . S
Mn549 N565 2.282 . S
Mn549 O573 2.215 . S
Mn549 O575 2.117 . S
C550 O572 1.234 . S
C550 O573 1.283 . S
C551 O563 1.281 . S
C551 O564 1.236 . S
C552 O574 1.240 . S
C552 O575 1.264 . S
O553 Mn548 2.095 . S
O553 C562 1.250 . S
O554 Mn549 2.121 . S
O554 C562 1.258 . S
C555 N556 1.326 . S
C555 C559 1.460 . S
C555 H561 0.929 . S
N556 Mn549 2.257 . S
N556 C555 1.326 . S
N556 C560 1.362 . S
C557 C558 1.258 . S
C557 C560 1.431 . S
C557 C577 1.449 . S
C558 C557 1.258 . S
C558 C559 1.477 . S
C558 H578 0.931 . S
C559 C555 1.460 . S
C559 C558 1.477 . S
C559 H579 0.930 . S
C560 N556 1.362 . S
C560 C557 1.431 . S
C560 C570 1.476 . S
H561 C555 0.929 . S
C562 O553 1.250 . S
C562 O554 1.258 . S
O563 Mn548 2.162 . S
O563 C551 1.281 . S
O564 Mn548 2.297 . S
O564 C551 1.236 . S
N565 Mn549 2.282 . S
N565 C566 1.328 . S
N565 C570 1.318 . S
C566 N565 1.328 . S
C566 C567 1.457 . S
C566 H571 0.929 . S
C567 C566 1.457 . S
C567 C568 1.291 . S
C567 H580 0.931 . S
C568 C567 1.291 . S
C568 C569 1.373 . S
C568 H581 0.929 . S
C569 C568 1.373 . S
C569 C570 1.396 . S
C569 C576 1.403 . S
C570 C560 1.476 . S
C570 N565 1.318 . S
C570 C569 1.396 . S
H571 C566 0.929 . S
O572 Mn548 2.385 . S
O572 C550 1.234 . S
O573 Mn548 2.209 . S
O573 Mn549 2.215 . S
O573 C550 1.283 . S
O574 Mn548 2.094 . S
O574 C552 1.240 . S
O575 Mn549 2.117 . S
O575 C552 1.264 . S
C576 C569 1.403 . S
C576 C577 1.399 . S
C576 H582 0.929 . S
C577 C557 1.449 . S
C577 C576 1.399 . S
C577 H583 0.930 . S
H578 C558 0.931 . S
H579 C559 0.930 . S
H580 C567 0.931 . S
H581 C568 0.929 . S
H582 C576 0.929 . S
H583 C577 0.930 . S
Mn584 O589 2.095 1_554 S
Mn584 O599 2.162 . S
Mn584 O600 2.297 1_554 S
Mn584 O608 2.385 . S
Mn584 O609 2.209 1_554 S
Mn584 O610 2.094 . S
Mn585 O590 2.121 . S
Mn585 N592 2.257 . S
Mn585 N601 2.282 . S
Mn585 O609 2.215 . S
Mn585 O611 2.117 1_556 S
C586 O608 1.217 1_556 S
C586 O609 1.295 . S
C587 O599 1.281 . S
C587 O600 1.236 1_554 S
C588 O610 1.240 . S
C588 O611 1.264 . S
O589 Mn584 2.095 1_556 S
O589 C598 1.250 . S
O590 Mn585 2.121 . S
O590 C598 1.258 . S
C591 N592 1.326 . S
C591 C595 1.460 . S
C591 H597 0.929 . S
N592 Mn585 2.257 . S
N592 C591 1.326 . S
N592 C596 1.362 . S
C593 C594 1.258 . S
C593 C596 1.431 . S
C593 C613 1.449 . S
C594 C593 1.258 . S
C594 C595 1.477 . S
C594 H614 0.931 . S
C595 C591 1.460 . S
C595 C594 1.477 . S
C595 H615 0.930 . S
C596 N592 1.362 . S
C596 C593 1.431 . S
C596 C606 1.476 . S
H597 C591 0.929 . S
C598 O589 1.250 . S
C598 O590 1.258 . S
O599 Mn584 2.162 . S
O599 C587 1.281 . S
O600 Mn584 2.297 1_556 S
O600 C587 1.236 1_556 S
N601 Mn585 2.282 . S
N601 C602 1.328 1_556 S
N601 C606 1.318 . S
C602 N601 1.328 1_554 S
C602 C603 1.457 . S
C602 H607 0.929 . S
C603 C602 1.457 . S
C603 C604 1.291 . S
C603 H616 0.931 . S
C604 C603 1.291 . S
C604 C605 1.373 1_554 S
C604 H617 0.929 . S
C605 C604 1.373 1_556 S
C605 C606 1.396 . S
C605 C612 1.403 . S
C606 C596 1.476 . S
C606 N601 1.318 . S
C606 C605 1.396 . S
H607 C602 0.929 . S
O608 Mn584 2.385 . S
O608 C586 1.217 1_554 S
O609 Mn584 2.209 1_556 S
O609 Mn585 2.215 . S
O609 C586 1.295 . S
O610 Mn584 2.094 . S
O610 C588 1.240 . S
O611 Mn585 2.117 1_554 S
O611 C588 1.264 . S
C612 C605 1.403 . S
C612 C613 1.399 . S
C612 H618 0.929 . S
C613 C593 1.449 . S
C613 C612 1.399 . S
C613 H619 0.930 . S
H614 C594 0.931 . S
H615 C595 0.930 . S
H616 C603 0.931 . S
H617 C604 0.929 . S
H618 C612 0.929 . S
H619 C613 0.930 . S
Mn620 O625 2.095 . S
Mn620 O635 2.162 . S
Mn620 O636 2.297 . S
Mn620 O644 2.385 1_545 S
Mn620 O645 2.209 1_545 S
Mn620 O646 2.094 . S
Mn621 O626 2.121 . S
Mn621 N628 2.257 . S
Mn621 N637 2.282 . S
Mn621 O645 2.215 . S
Mn621 O647 2.117 . S
C622 O644 1.234 . S
C622 O645 1.283 . S
C623 O635 1.281 . S
C623 O636 1.236 . S
C624 O646 1.240 . S
C624 O647 1.264 1_545 S
O625 Mn620 2.095 . S
O625 C634 1.249 . S
O626 Mn621 2.121 . S
O626 C634 1.260 1_565 S
C627 N628 1.326 . S
C627 C631 1.460 . S
C627 H633 0.929 . S
N628 Mn621 2.257 . S
N628 C627 1.326 . S
N628 C632 1.362 . S
C629 C630 1.258 . S
C629 C632 1.431 . S
C629 C649 1.449 . S
C630 C629 1.258 . S
C630 C631 1.477 . S
C630 H650 0.931 . S
C631 C627 1.460 . S
C631 C630 1.477 . S
C631 H651 0.930 . S
C632 N628 1.362 . S
C632 C629 1.431 . S
C632 C642 1.476 . S
H633 C627 0.929 . S
C634 O625 1.249 . S
C634 O626 1.260 1_545 S
O635 Mn620 2.162 . S
O635 C623 1.281 . S
O636 Mn620 2.297 . S
O636 C623 1.236 . S
N637 Mn621 2.282 . S
N637 C638 1.328 . S
N637 C642 1.318 . S
C638 N637 1.328 . S
C638 C639 1.457 . S
C638 H643 0.929 . S
C639 C638 1.457 . S
C639 C640 1.291 . S
C639 H652 0.931 . S
C640 C639 1.291 . S
C640 C641 1.373 . S
C640 H653 0.929 . S
C641 C640 1.373 . S
C641 C642 1.396 . S
C641 C648 1.403 . S
C642 C632 1.476 . S
C642 N637 1.318 . S
C642 C641 1.396 . S
H643 C638 0.929 . S
O644 Mn620 2.385 1_565 S
O644 C622 1.234 . S
O645 Mn620 2.209 1_565 S
O645 Mn621 2.215 . S
O645 C622 1.283 . S
O646 Mn620 2.094 . S
O646 C624 1.240 . S
O647 Mn621 2.117 . S
O647 C624 1.264 1_565 S
C648 C641 1.403 . S
C648 C649 1.399 . S
C648 H654 0.929 . S
C649 C629 1.449 . S
C649 C648 1.399 . S
C649 H655 0.930 . S
H650 C630 0.931 . S
H651 C631 0.930 . S
H652 C639 0.931 . S
H653 C640 0.929 . S
H654 C648 0.929 . S
H655 C649 0.930 . S
Mn656 O661 2.095 . S
Mn656 O671 2.162 . S
Mn656 O672 2.297 . S
Mn656 O680 2.385 . S
Mn656 O681 2.209 . S
Mn656 O682 2.094 . S
Mn657 O662 2.121 . S
Mn657 N664 2.257 . S
Mn657 N673 2.282 . S
Mn657 O681 2.215 . S
Mn657 O683 2.117 . S
C658 O680 1.234 . S
C658 O681 1.283 . S
C659 O671 1.281 . S
C659 O672 1.236 . S
C660 O682 1.240 . S
C660 O683 1.264 . S
O661 Mn656 2.095 . S
O661 C670 1.250 . S
O662 Mn657 2.121 . S
O662 C670 1.258 . S
C663 N664 1.326 . S
C663 C667 1.460 . S
C663 H669 0.929 . S
N664 Mn657 2.257 . S
N664 C663 1.326 . S
N664 C668 1.362 . S
C665 C666 1.258 . S
C665 C668 1.431 . S
C665 C685 1.449 . S
C666 C665 1.258 . S
C666 C667 1.477 . S
C666 H686 0.931 . S
C667 C663 1.460 . S
C667 C666 1.477 . S
C667 H687 0.930 . S
C668 N664 1.362 . S
C668 C665 1.431 . S
C668 C678 1.476 . S
H669 C663 0.929 . S
C670 O661 1.250 . S
C670 O662 1.258 . S
O671 Mn656 2.162 . S
O671 C659 1.281 . S
O672 Mn656 2.297 . S
O672 C659 1.236 . S
N673 Mn657 2.282 . S
N673 C674 1.328 . S
N673 C678 1.318 . S
C674 N673 1.328 . S
C674 C675 1.457 . S
C674 H679 0.929 . S
C675 C674 1.457 . S
C675 C676 1.291 . S
C675 H688 0.931 . S
C676 C675 1.291 . S
C676 C677 1.373 . S
C676 H689 0.929 . S
C677 C676 1.373 . S
C677 C678 1.396 . S
C677 C684 1.403 . S
C678 C668 1.476 . S
C678 N673 1.318 . S
C678 C677 1.396 . S
H679 C674 0.929 . S
O680 Mn656 2.385 . S
O680 C658 1.234 . S
O681 Mn656 2.209 . S
O681 Mn657 2.215 . S
O681 C658 1.283 . S
O682 Mn656 2.094 . S
O682 C660 1.240 . S
O683 Mn657 2.117 . S
O683 C660 1.264 . S
C684 C677 1.403 . S
C684 C685 1.399 . S
C684 H690 0.929 . S
C685 C665 1.449 . S
C685 C684 1.399 . S
C685 H691 0.930 . S
H686 C666 0.931 . S
H687 C667 0.930 . S
H688 C675 0.931 . S
H689 C676 0.929 . S
H690 C684 0.929 . S
H691 C685 0.930 . S
Mn692 O697 2.095 . S
Mn692 O707 2.162 . S
Mn692 O708 2.297 . S
Mn692 O716 2.385 . S
Mn692 O717 2.209 . S
Mn692 O718 2.094 . S
Mn693 O698 2.121 . S
Mn693 N700 2.257 . S
Mn693 N709 2.282 . S
Mn693 O717 2.215 . S
Mn693 O719 2.117 . S
C694 O716 1.234 . S
C694 O717 1.283 . S
C695 O707 1.281 . S
C695 O708 1.236 . S
C696 O718 1.240 . S
C696 O719 1.264 . S
O697 Mn692 2.095 . S
O697 C706 1.250 . S
O698 Mn693 2.121 . S
O698 C706 1.258 . S
C699 N700 1.326 . S
C699 C703 1.460 . S
C699 H705 0.929 . S
N700 Mn693 2.257 . S
N700 C699 1.326 . S
N700 C704 1.362 . S
C701 C702 1.258 . S
C701 C704 1.431 . S
C701 C721 1.449 . S
C702 C701 1.258 . S
C702 C703 1.477 . S
C702 H722 0.931 . S
C703 C699 1.460 . S
C703 C702 1.477 . S
C703 H723 0.930 . S
C704 N700 1.362 . S
C704 C701 1.431 . S
C704 C714 1.476 . S
H705 C699 0.929 . S
C706 O697 1.250 . S
C706 O698 1.258 . S
O707 Mn692 2.162 . S
O707 C695 1.281 . S
O708 Mn692 2.297 . S
O708 C695 1.236 . S
N709 Mn693 2.282 . S
N709 C710 1.328 . S
N709 C714 1.318 . S
C710 N709 1.328 . S
C710 C711 1.457 . S
C710 H715 0.929 . S
C711 C710 1.457 . S
C711 C712 1.291 . S
C711 H724 0.931 . S
C712 C711 1.291 . S
C712 C713 1.373 . S
C712 H725 0.929 . S
C713 C712 1.373 . S
C713 C714 1.396 . S
C713 C720 1.403 . S
C714 C704 1.476 . S
C714 N709 1.318 . S
C714 C713 1.396 . S
H715 C710 0.929 . S
O716 Mn692 2.385 . S
O716 C694 1.234 . S
O717 Mn692 2.209 . S
O717 Mn693 2.215 . S
O717 C694 1.283 . S
O718 Mn692 2.094 . S
O718 C696 1.240 . S
O719 Mn693 2.117 . S
O719 C696 1.264 . S
C720 C713 1.403 . S
C720 C721 1.399 . S
C720 H726 0.929 . S
C721 C701 1.449 . S
C721 C720 1.399 . S
C721 H727 0.930 . S
H722 C702 0.931 . S
H723 C703 0.930 . S
H724 C711 0.931 . S
H725 C712 0.929 . S
H726 C720 0.929 . S
H727 C721 0.930 . S
Mn728 O733 2.095 . S
Mn728 O743 2.162 . S
Mn728 O744 2.297 . S
Mn728 O752 2.385 . S
Mn728 O753 2.209 . S
Mn728 O754 2.094 . S
Mn729 O734 2.121 . S
Mn729 N736 2.257 . S
Mn729 N745 2.282 . S
Mn729 O753 2.215 . S
Mn729 O755 2.117 . S
C730 O752 1.234 . S
C730 O753 1.283 . S
C731 O743 1.281 . S
C731 O744 1.236 . S
C732 O754 1.240 . S
C732 O755 1.264 . S
O733 Mn728 2.095 . S
O733 C742 1.250 . S
O734 Mn729 2.121 . S
O734 C742 1.258 . S
C735 N736 1.326 . S
C735 C739 1.460 . S
C735 H741 0.929 . S
N736 Mn729 2.257 . S
N736 C735 1.326 . S
N736 C740 1.362 . S
C737 C738 1.258 . S
C737 C740 1.431 . S
C737 C757 1.449 . S
C738 C737 1.258 . S
C738 C739 1.477 . S
C738 H758 0.931 . S
C739 C735 1.460 . S
C739 C738 1.477 . S
C739 H759 0.930 . S
C740 N736 1.362 . S
C740 C737 1.431 . S
C740 C750 1.476 . S
H741 C735 0.929 . S
C742 O733 1.250 . S
C742 O734 1.258 . S
O743 Mn728 2.162 . S
O743 C731 1.281 . S
O744 Mn728 2.297 . S
O744 C731 1.236 . S
N745 Mn729 2.282 . S
N745 C746 1.328 . S
N745 C750 1.318 . S
C746 N745 1.328 . S
C746 C747 1.457 . S
C746 H751 0.929 . S
C747 C746 1.457 . S
C747 C748 1.291 . S
C747 H760 0.931 . S
C748 C747 1.291 . S
C748 C749 1.373 . S
C748 H761 0.929 . S
C749 C748 1.373 . S
C749 C750 1.396 . S
C749 C756 1.403 . S
C750 C740 1.476 . S
C750 N745 1.318 . S
C750 C749 1.396 . S
H751 C746 0.929 . S
O752 Mn728 2.385 . S
O752 C730 1.234 . S
O753 Mn728 2.209 . S
O753 Mn729 2.215 . S
O753 C730 1.283 . S
O754 Mn728 2.094 . S
O754 C732 1.240 . S
O755 Mn729 2.117 . S
O755 C732 1.264 . S
C756 C749 1.403 . S
C756 C757 1.399 . S
C756 H762 0.929 . S
C757 C737 1.449 . S
C757 C756 1.399 . S
C757 H763 0.930 . S
H758 C738 0.931 . S
H759 C739 0.930 . S
H760 C747 0.931 . S
H761 C748 0.929 . S
H762 C756 0.929 . S
H763 C757 0.930 . S
Mn764 O769 2.095 . S
Mn764 O779 2.162 . S
Mn764 O780 2.297 . S
Mn764 O788 2.385 1_565 S
Mn764 O789 2.209 1_565 S
Mn764 O790 2.094 . S
Mn765 O770 2.121 . S
Mn765 N772 2.257 . S
Mn765 N781 2.282 . S
Mn765 O789 2.215 . S
Mn765 O791 2.117 . S
C766 O788 1.234 . S
C766 O789 1.283 . S
C767 O779 1.281 . S
C767 O780 1.236 . S
C768 O790 1.207 1_545 S
C768 O791 1.307 . S
O769 Mn764 2.095 . S
O769 C778 1.250 1_565 S
O770 Mn765 2.121 . S
O770 C778 1.258 . S
C771 N772 1.326 . S
C771 C775 1.460 . S
C771 H777 0.929 . S
N772 Mn765 2.257 . S
N772 C771 1.326 . S
N772 C776 1.362 . S
C773 C774 1.258 . S
C773 C776 1.431 . S
C773 C793 1.449 . S
C774 C773 1.258 . S
C774 C775 1.477 . S
C774 H794 0.931 . S
C775 C771 1.460 . S
C775 C774 1.477 . S
C775 H795 0.930 . S
C776 N772 1.362 . S
C776 C773 1.431 . S
C776 C786 1.476 . S
H777 C771 0.929 . S
C778 O769 1.250 1_545 S
C778 O770 1.258 . S
O779 Mn764 2.162 . S
O779 C767 1.281 . S
O780 Mn764 2.297 . S
O780 C767 1.236 . S
N781 Mn765 2.282 . S
N781 C782 1.328 . S
N781 C786 1.318 . S
C782 N781 1.328 . S
C782 C783 1.457 . S
C782 H787 0.929 . S
C783 C782 1.457 . S
C783 C784 1.291 . S
C783 H796 0.931 . S
C784 C783 1.291 . S
C784 C785 1.373 . S
C784 H797 0.929 . S
C785 C784 1.373 . S
C785 C786 1.396 . S
C785 C792 1.403 . S
C786 C776 1.476 . S
C786 N781 1.318 . S
C786 C785 1.396 . S
H787 C782 0.929 . S
O788 Mn764 2.385 1_545 S
O788 C766 1.234 . S
O789 Mn764 2.209 1_545 S
O789 Mn765 2.215 . S
O789 C766 1.283 . S
O790 Mn764 2.094 . S
O790 C768 1.207 1_565 S
O791 Mn765 2.117 . S
O791 C768 1.307 . S
C792 C785 1.403 . S
C792 C793 1.399 . S
C792 H798 0.929 . S
C793 C773 1.449 . S
C793 C792 1.399 . S
C793 H799 0.930 . S
H794 C774 0.931 . S
H795 C775 0.930 . S
H796 C783 0.931 . S
H797 C784 0.929 . S
H798 C792 0.929 . S
H799 C793 0.930 . S
Mn800 O805 2.095 . S
Mn800 O815 2.162 . S
Mn800 O816 2.297 . S
Mn800 O824 2.385 1_455 S
Mn800 O825 2.209 1_455 S
Mn800 O826 2.094 . S
Mn801 O806 2.121 . S
Mn801 N808 2.257 . S
Mn801 N817 2.282 . S
Mn801 O825 2.215 . S
Mn801 O827 2.117 . S
C802 O824 1.234 . S
C802 O825 1.283 . S
C803 O815 1.281 . S
C803 O816 1.236 . S
C804 O826 1.240 . S
C804 O827 1.264 1_455 S
O805 Mn800 2.095 . S
O805 C814 1.241 1_455 S
O806 Mn801 2.121 . S
O806 C814 1.270 . S
C807 N808 1.326 . S
C807 C811 1.460 . S
C807 H813 0.929 . S
N808 Mn801 2.257 . S
N808 C807 1.326 . S
N808 C812 1.362 . S
C809 C810 1.258 . S
C809 C812 1.431 . S
C809 C829 1.449 . S
C810 C809 1.258 . S
C810 C811 1.477 . S
C810 H830 0.931 . S
C811 C807 1.460 . S
C811 C810 1.477 . S
C811 H831 0.930 . S
C812 N808 1.362 . S
C812 C809 1.431 . S
C812 C822 1.476 . S
H813 C807 0.929 . S
C814 O805 1.241 1_655 S
C814 O806 1.270 . S
O815 Mn800 2.162 . S
O815 C803 1.281 . S
O816 Mn800 2.297 . S
O816 C803 1.236 . S
N817 Mn801 2.282 . S
N817 C818 1.328 . S
N817 C822 1.318 . S
C818 N817 1.328 . S
C818 C819 1.457 . S
C818 H823 0.929 . S
C819 C818 1.457 . S
C819 C820 1.291 . S
C819 H832 0.931 . S
C820 C819 1.291 . S
C820 C821 1.373 . S
C820 H833 0.929 . S
C821 C820 1.373 . S
C821 C822 1.396 . S
C821 C828 1.403 . S
C822 C812 1.476 . S
C822 N817 1.318 . S
C822 C821 1.396 . S
H823 C818 0.929 . S
O824 Mn800 2.385 1_655 S
O824 C802 1.234 . S
O825 Mn800 2.209 1_655 S
O825 Mn801 2.215 . S
O825 C802 1.283 . S
O826 Mn800 2.094 . S
O826 C804 1.240 . S
O827 Mn801 2.117 . S
O827 C804 1.264 1_655 S
C828 C821 1.403 . S
C828 C829 1.399 . S
C828 H834 0.929 . S
C829 C809 1.449 . S
C829 C828 1.399 . S
C829 H835 0.930 . S
H830 C810 0.931 . S
H831 C811 0.930 . S
H832 C819 0.931 . S
H833 C820 0.929 . S
H834 C828 0.929 . S
H835 C829 0.930 . S
Mn836 O841 2.095 . S
Mn836 O851 2.162 . S
Mn836 O852 2.297 . S
Mn836 O860 2.385 . S
Mn836 O861 2.209 . S
Mn836 O862 2.094 . S
Mn837 O842 2.121 . S
Mn837 N844 2.257 . S
Mn837 N853 2.282 . S
Mn837 O861 2.215 . S
Mn837 O863 2.117 . S
C838 O860 1.234 . S
C838 O861 1.283 . S
C839 O851 1.281 . S
C839 O852 1.236 . S
C840 O862 1.240 . S
C840 O863 1.264 . S
O841 Mn836 2.095 . S
O841 C850 1.250 . S
O842 Mn837 2.121 . S
O842 C850 1.258 . S
C843 N844 1.326 . S
C843 C847 1.460 . S
C843 H849 0.929 . S
N844 Mn837 2.257 . S
N844 C843 1.326 . S
N844 C848 1.362 . S
C845 C846 1.258 . S
C845 C848 1.431 . S
C845 C865 1.449 . S
C846 C845 1.258 . S
C846 C847 1.477 . S
C846 H866 0.931 . S
C847 C843 1.460 . S
C847 C846 1.477 . S
C847 H867 0.930 . S
C848 N844 1.362 . S
C848 C845 1.431 . S
C848 C858 1.476 . S
H849 C843 0.929 . S
C850 O841 1.250 . S
C850 O842 1.258 . S
O851 Mn836 2.162 . S
O851 C839 1.281 . S
O852 Mn836 2.297 . S
O852 C839 1.236 . S
N853 Mn837 2.282 . S
N853 C854 1.328 . S
N853 C858 1.318 . S
C854 N853 1.328 . S
C854 C855 1.457 . S
C854 H859 0.929 . S
C855 C854 1.457 . S
C855 C856 1.291 . S
C855 H868 0.931 . S
C856 C855 1.291 . S
C856 C857 1.373 . S
C856 H869 0.929 . S
C857 C856 1.373 . S
C857 C858 1.396 . S
C857 C864 1.403 . S
C858 C848 1.476 . S
C858 N853 1.318 . S
C858 C857 1.396 . S
H859 C854 0.929 . S
O860 Mn836 2.385 . S
O860 C838 1.234 . S
O861 Mn836 2.209 . S
O861 Mn837 2.215 . S
O861 C838 1.283 . S
O862 Mn836 2.094 . S
O862 C840 1.240 . S
O863 Mn837 2.117 . S
O863 C840 1.264 . S
C864 C857 1.403 . S
C864 C865 1.399 . S
C864 H870 0.929 . S
C865 C845 1.449 . S
C865 C864 1.399 . S
C865 H871 0.930 . S
H866 C846 0.931 . S
H867 C847 0.930 . S
H868 C855 0.931 . S
H869 C856 0.929 . S
H870 C864 0.929 . S
H871 C865 0.930 . S
Mn872 O877 2.095 1_455 S
Mn872 O887 2.162 . S
Mn872 O888 2.297 1_455 S
Mn872 O896 2.385 . S
Mn872 O897 2.209 1_455 S
Mn872 O898 2.094 . S
Mn873 O878 2.121 . S
Mn873 N880 2.257 . S
Mn873 N889 2.271 1_655 S
Mn873 O897 2.215 . S
Mn873 O899 2.117 1_655 S
C874 O896 1.234 . S
C874 O897 1.283 1_455 S
C875 O887 1.281 . S
C875 O888 1.236 1_455 S
C876 O898 1.240 . S
C876 O899 1.264 . S
O877 Mn872 2.095 1_655 S
O877 C886 1.250 . S
O878 Mn873 2.121 . S
O878 C886 1.258 . S
C879 N880 1.326 . S
C879 C883 1.460 . S
C879 H885 0.929 . S
N880 Mn873 2.257 . S
N880 C879 1.326 . S
N880 C884 1.362 . S
C881 C882 1.258 . S
C881 C884 1.431 . S
C881 C901 1.449 . S
C882 C881 1.258 . S
C882 C883 1.477 . S
C882 H902 0.931 . S
C883 C879 1.460 . S
C883 C882 1.477 . S
C883 H903 0.930 . S
C884 N880 1.362 . S
C884 C881 1.431 . S
C884 C894 1.476 . S
H885 C879 0.929 . S
C886 O877 1.250 . S
C886 O878 1.258 . S
O887 Mn872 2.162 . S
O887 C875 1.281 . S
O888 Mn872 2.297 1_655 S
O888 C875 1.236 1_655 S
N889 Mn873 2.271 1_455 S
N889 C890 1.354 . S
N889 C894 1.301 1_455 S
C890 N889 1.354 . S
C890 C891 1.457 . S
C890 H895 0.929 . S
C891 C890 1.457 . S
C891 C892 1.291 . S
C891 H904 0.931 . S
C892 C891 1.291 . S
C892 C893 1.373 1_455 S
C892 H905 0.929 . S
C893 C892 1.373 1_655 S
C893 C894 1.396 . S
C893 C900 1.403 . S
C894 C884 1.476 . S
C894 N889 1.301 1_655 S
C894 C893 1.396 . S
H895 C890 0.929 . S
O896 Mn872 2.385 . S
O896 C874 1.234 . S
O897 Mn872 2.209 1_655 S
O897 Mn873 2.215 . S
O897 C874 1.283 1_655 S
O898 Mn872 2.094 . S
O898 C876 1.240 . S
O899 Mn873 2.117 1_455 S
O899 C876 1.264 . S
C900 C893 1.403 . S
C900 C901 1.399 . S
C900 H906 0.929 . S
C901 C881 1.449 . S
C901 C900 1.399 . S
C901 H907 0.930 . S
H902 C882 0.931 . S
H903 C883 0.930 . S
H904 C891 0.931 . S
H905 C892 0.929 . S
H906 C900 0.929 . S
H907 C901 0.930 . S
Mn908 O913 2.095 . S
Mn908 O923 2.162 . S
Mn908 O924 2.297 . S
Mn908 O932 2.385 . S
Mn908 O933 2.209 . S
Mn908 O934 2.094 . S
Mn909 O914 2.121 . S
Mn909 N916 2.257 . S
Mn909 N925 2.282 . S
Mn909 O933 2.215 . S
Mn909 O935 2.117 . S
C910 O932 1.234 . S
C910 O933 1.283 . S
C911 O923 1.281 . S
C911 O924 1.236 . S
C912 O934 1.240 . S
C912 O935 1.264 . S
O913 Mn908 2.095 . S
O913 C922 1.250 . S
O914 Mn909 2.121 . S
O914 C922 1.258 . S
C915 N916 1.326 . S
C915 C919 1.460 . S
C915 H921 0.929 . S
N916 Mn909 2.257 . S
N916 C915 1.326 . S
N916 C920 1.362 . S
C917 C918 1.258 . S
C917 C920 1.431 . S
C917 C937 1.449 . S
C918 C917 1.258 . S
C918 C919 1.477 . S
C918 H938 0.931 . S
C919 C915 1.460 . S
C919 C918 1.477 . S
C919 H939 0.930 . S
C920 N916 1.362 . S
C920 C917 1.431 . S
C920 C930 1.476 . S
H921 C915 0.929 . S
C922 O913 1.250 . S
C922 O914 1.258 . S
O923 Mn908 2.162 . S
O923 C911 1.281 . S
O924 Mn908 2.297 . S
O924 C911 1.236 . S
N925 Mn909 2.282 . S
N925 C926 1.328 . S
N925 C930 1.318 . S
C926 N925 1.328 . S
C926 C927 1.457 . S
C926 H931 0.929 . S
C927 C926 1.457 . S
C927 C928 1.291 . S
C927 H940 0.931 . S
C928 C927 1.291 . S
C928 C929 1.373 . S
C928 H941 0.929 . S
C929 C928 1.373 . S
C929 C930 1.396 . S
C929 C936 1.403 . S
C930 C920 1.476 . S
C930 N925 1.318 . S
C930 C929 1.396 . S
H931 C926 0.929 . S
O932 Mn908 2.385 . S
O932 C910 1.234 . S
O933 Mn908 2.209 . S
O933 Mn909 2.215 . S
O933 C910 1.283 . S
O934 Mn908 2.094 . S
O934 C912 1.240 . S
O935 Mn909 2.117 . S
O935 C912 1.264 . S
C936 C929 1.403 . S
C936 C937 1.399 . S
C936 H942 0.929 . S
C937 C917 1.449 . S
C937 C936 1.399 . S
C937 H943 0.930 . S
H938 C918 0.931 . S
H939 C919 0.930 . S
H940 C927 0.931 . S
H941 C928 0.929 . S
H942 C936 0.929 . S
H943 C937 0.930 . S
H944 C952 0.950 . S
H945 C957 0.950 . S
H946 C954 0.950 . S
H947 C956 0.950 . S
H948 C958 0.950 . S
H949 C960 0.950 . S
H950 C962 0.950 . S
H951 C963 0.950 . S
C952 H944 0.950 . S
C952 C953 1.386 . S
C952 C954 1.391 . S
C953 C952 1.386 . S
C953 C957 1.393 . S
C954 H946 0.950 . S
C954 C952 1.391 . S
C954 C955 1.400 . S
C955 C954 1.400 . S
C955 C956 1.398 . S
C955 C961 1.491 . S
C956 H947 0.950 . S
C956 C955 1.398 . S
C956 C957 1.391 . S
C957 H945 0.950 . S
C957 C953 1.393 . S
C957 C956 1.391 . S
C958 H948 0.950 . S
C958 C959 1.386 . S
C958 C960 1.391 . S
C959 C958 1.386 . S
C959 C963 1.393 . S
C960 H949 0.950 . S
C960 C958 1.391 . S
C960 C961 1.400 . S
C961 C955 1.491 . S
C961 C960 1.400 . S
C961 C962 1.398 . S
C962 H950 0.950 . S
C962 C961 1.398 . S
C962 C963 1.391 . S
C963 H951 0.950 . S
C963 C959 1.393 . S
C963 C962 1.391 . S
H964 C972 0.950 . S
H965 C977 0.950 . S
H966 C974 0.950 . S
H967 C976 0.950 . S
H968 C978 0.950 . S
H969 C980 0.950 . S
H970 C982 0.950 . S
H971 C983 0.950 . S
C972 H964 0.950 . S
C972 C973 1.386 . S
C972 C974 1.391 . S
C973 C972 1.386 . S
C973 C977 1.393 . S
C974 H966 0.950 . S
C974 C972 1.391 . S
C974 C975 1.400 . S
C975 C974 1.400 . S
C975 C976 1.398 . S
C975 C981 1.491 . S
C976 H967 0.950 . S
C976 C975 1.398 . S
C976 C977 1.391 . S
C977 H965 0.950 . S
C977 C973 1.393 . S
C977 C976 1.391 . S
C978 H968 0.950 . S
C978 C979 1.386 . S
C978 C980 1.391 . S
C979 C978 1.386 . S
C979 C983 1.393 . S
C980 H969 0.950 . S
C980 C978 1.391 . S
C980 C981 1.400 . S
C981 C975 1.491 . S
C981 C980 1.400 . S
C981 C982 1.398 . S
C982 H970 0.950 . S
C982 C981 1.398 . S
C982 C983 1.391 . S
C983 H971 0.950 . S
C983 C979 1.393 . S
C983 C982 1.391 . S
H984 C992 0.950 . S
H985 C997 0.950 . S
H986 C994 0.950 . S
H987 C996 0.950 . S
H988 C998 0.950 . S
H989 C1000 0.950 . S
H990 C1002 0.950 . S
H991 C1003 0.950 . S
C992 H984 0.950 . S
C992 C993 1.386 . S
C992 C994 1.391 . S
C993 C992 1.386 . S
C993 C997 1.393 . S
C994 H986 0.950 . S
C994 C992 1.391 . S
C994 C995 1.400 . S
C995 C994 1.400 . S
C995 C996 1.398 . S
C995 C1001 1.491 . S
C996 H987 0.950 . S
C996 C995 1.398 . S
C996 C997 1.391 . S
C997 H985 0.950 . S
C997 C993 1.393 . S
C997 C996 1.391 . S
C998 H988 0.950 . S
C998 C999 1.386 . S
C998 C1000 1.391 . S
C999 C998 1.386 . S
C999 C1003 1.393 . S
C1000 H989 0.950 . S
C1000 C998 1.391 . S
C1000 C1001 1.400 . S
C1001 C995 1.491 . S
C1001 C1000 1.400 . S
C1001 C1002 1.398 . S
C1002 H990 0.950 . S
C1002 C1001 1.398 . S
C1002 C1003 1.391 . S
C1003 H991 0.950 . S
C1003 C999 1.393 . S
C1003 C1002 1.391 . S
H1004 C1012 0.950 . S
H1005 C1017 0.950 . S
H1006 C1014 0.950 . S
H1007 C1016 0.950 . S
H1008 C1018 0.950 . S
H1009 C1020 0.950 . S
H1010 C1022 0.950 . S
H1011 C1023 0.950 . S
C1012 H1004 0.950 . S
C1012 C1013 1.386 1_545 S
C1012 C1014 1.391 . S
C1013 C1012 1.386 1_565 S
C1013 C1017 1.393 . S
C1014 H1006 0.950 . S
C1014 C1012 1.391 . S
C1014 C1015 1.400 1_545 S
C1015 C1014 1.400 1_565 S
C1015 C1016 1.398 . S
C1015 C1021 1.491 . S
C1016 H1007 0.950 . S
C1016 C1015 1.398 . S
C1016 C1017 1.391 . S
C1017 H1005 0.950 . S
C1017 C1013 1.393 . S
C1017 C1016 1.391 . S
C1018 H1008 0.950 . S
C1018 C1019 1.386 1_565 S
C1018 C1020 1.391 . S
C1019 C1018 1.386 1_545 S
C1019 C1023 1.393 . S
C1020 H1009 0.950 . S
C1020 C1018 1.391 . S
C1020 C1021 1.400 . S
C1021 C1015 1.491 . S
C1021 C1020 1.400 . S
C1021 C1022 1.398 1_565 S
C1022 H1010 0.950 . S
C1022 C1021 1.398 1_545 S
C1022 C1023 1.391 . S
C1023 H1011 0.950 . S
C1023 C1019 1.393 . S
C1023 C1022 1.391 . S
H1024 C1032 0.950 . S
H1025 C1037 0.950 . S
H1026 C1034 0.950 . S
H1027 C1036 0.950 . S
H1028 C1038 0.950 . S
H1029 C1040 0.950 . S
H1030 C1042 0.950 . S
H1031 C1043 0.950 . S
C1032 H1024 0.950 . S
C1032 C1033 1.386 . S
C1032 C1034 1.391 . S
C1033 C1032 1.386 . S
C1033 C1037 1.393 . S
C1034 H1026 0.950 . S
C1034 C1032 1.391 . S
C1034 C1035 1.400 . S
C1035 C1034 1.400 . S
C1035 C1036 1.398 . S
C1035 C1041 1.491 . S
C1036 H1027 0.950 . S
C1036 C1035 1.398 . S
C1036 C1037 1.391 . S
C1037 H1025 0.950 . S
C1037 C1033 1.393 . S
C1037 C1036 1.391 . S
C1038 H1028 0.950 . S
C1038 C1039 1.386 . S
C1038 C1040 1.391 . S
C1039 C1038 1.386 . S
C1039 C1043 1.393 . S
C1040 H1029 0.950 . S
C1040 C1038 1.391 . S
C1040 C1041 1.400 . S
C1041 C1035 1.491 . S
C1041 C1040 1.400 . S
C1041 C1042 1.398 . S
C1042 H1030 0.950 . S
C1042 C1041 1.398 . S
C1042 C1043 1.391 . S
C1043 H1031 0.950 . S
C1043 C1039 1.393 . S
C1043 C1042 1.391 . S
H1044 C1052 0.950 . S
H1045 C1057 0.950 . S
H1046 C1054 0.950 . S
H1047 C1056 0.950 . S
H1048 C1058 0.950 . S
H1049 C1060 0.950 . S
H1050 C1062 0.950 . S
H1051 C1063 0.950 . S
C1052 H1044 0.950 . S
C1052 C1053 1.386 . S
C1052 C1054 1.391 . S
C1053 C1052 1.386 . S
C1053 C1057 1.393 . S
C1054 H1046 0.950 . S
C1054 C1052 1.391 . S
C1054 C1055 1.400 . S
C1055 C1054 1.400 . S
C1055 C1056 1.398 . S
C1055 C1061 1.491 . S
C1056 H1047 0.950 . S
C1056 C1055 1.398 . S
C1056 C1057 1.391 . S
C1057 H1045 0.950 . S
C1057 C1053 1.393 . S
C1057 C1056 1.391 . S
C1058 H1048 0.950 . S
C1058 C1059 1.386 . S
C1058 C1060 1.391 . S
C1059 C1058 1.386 . S
C1059 C1063 1.393 . S
C1060 H1049 0.950 . S
C1060 C1058 1.391 . S
C1060 C1061 1.400 . S
C1061 C1055 1.491 . S
C1061 C1060 1.400 . S
C1061 C1062 1.398 . S
C1062 H1050 0.950 . S
C1062 C1061 1.398 . S
C1062 C1063 1.391 . S
C1063 H1051 0.950 . S
C1063 C1059 1.393 . S
C1063 C1062 1.391 . S
H1064 C1072 0.950 . S
H1065 C1077 0.950 . S
H1066 C1074 0.950 . S
H1067 C1076 0.950 . S
H1068 C1078 0.950 . S
H1069 C1080 0.950 . S
H1070 C1082 0.950 . S
H1071 C1083 0.950 . S
C1072 H1064 0.950 . S
C1072 C1073 1.386 . S
C1072 C1074 1.391 . S
C1073 C1072 1.386 . S
C1073 C1077 1.393 . S
C1074 H1066 0.950 . S
C1074 C1072 1.391 . S
C1074 C1075 1.400 . S
C1075 C1074 1.400 . S
C1075 C1076 1.398 . S
C1075 C1081 1.491 . S
C1076 H1067 0.950 . S
C1076 C1075 1.398 . S
C1076 C1077 1.391 . S
C1077 H1065 0.950 . S
C1077 C1073 1.393 . S
C1077 C1076 1.391 . S
C1078 H1068 0.950 . S
C1078 C1079 1.386 . S
C1078 C1080 1.391 . S
C1079 C1078 1.386 . S
C1079 C1083 1.393 . S
C1080 H1069 0.950 . S
C1080 C1078 1.391 . S
C1080 C1081 1.400 . S
C1081 C1075 1.491 . S
C1081 C1080 1.400 . S
C1081 C1082 1.398 . S
C1082 H1070 0.950 . S
C1082 C1081 1.398 . S
C1082 C1083 1.391 . S
C1083 H1071 0.950 . S
C1083 C1079 1.393 . S
C1083 C1082 1.391 . S
H1084 C1092 0.950 . S
H1085 C1097 0.950 . S
H1086 C1094 0.950 . S
H1087 C1096 0.950 . S
H1088 C1098 0.950 . S
H1089 C1100 0.950 . S
H1090 C1102 0.950 . S
H1091 C1103 0.950 . S
C1092 H1084 0.950 . S
C1092 C1093 1.386 1_545 S
C1092 C1094 1.391 . S
C1093 C1092 1.386 1_565 S
C1093 C1097 1.393 . S
C1094 H1086 0.950 . S
C1094 C1092 1.391 . S
C1094 C1095 1.400 1_545 S
C1095 C1094 1.400 1_565 S
C1095 C1096 1.398 . S
C1095 C1101 1.491 . S
C1096 H1087 0.950 . S
C1096 C1095 1.398 . S
C1096 C1097 1.391 . S
C1097 H1085 0.950 . S
C1097 C1093 1.393 . S
C1097 C1096 1.391 . S
C1098 H1088 0.950 . S
C1098 C1099 1.386 . S
C1098 C1100 1.391 . S
C1099 C1098 1.386 . S
C1099 C1103 1.393 1_565 S
C1100 H1089 0.950 . S
C1100 C1098 1.391 . S
C1100 C1101 1.400 . S
C1101 C1095 1.491 . S
C1101 C1100 1.400 . S
C1101 C1102 1.398 1_565 S
C1102 H1090 0.950 . S
C1102 C1101 1.398 1_545 S
C1102 C1103 1.391 . S
C1103 H1091 0.950 . S
C1103 C1099 1.393 1_545 S
C1103 C1102 1.391 . S
H1104 C1112 0.950 . S
H1105 C1117 0.950 . S
H1106 C1114 0.950 . S
H1107 C1116 0.950 . S
H1108 C1118 0.950 . S
H1109 C1120 0.950 . S
H1110 C1122 0.950 . S
H1111 C1123 0.950 . S
C1112 H1104 0.950 . S
C1112 C1113 1.386 . S
C1112 C1114 1.391 . S
C1113 C1112 1.386 . S
C1113 C1117 1.393 . S
C1114 H1106 0.950 . S
C1114 C1112 1.391 . S
C1114 C1115 1.400 . S
C1115 C1114 1.400 . S
C1115 C1116 1.398 . S
C1115 C1121 1.491 . S
C1116 H1107 0.950 . S
C1116 C1115 1.398 . S
C1116 C1117 1.391 . S
C1117 H1105 0.950 . S
C1117 C1113 1.393 . S
C1117 C1116 1.391 . S
C1118 H1108 0.950 . S
C1118 C1119 1.386 . S
C1118 C1120 1.391 . S
C1119 C1118 1.386 . S
C1119 C1123 1.393 . S
C1120 H1109 0.950 . S
C1120 C1118 1.391 . S
C1120 C1121 1.400 . S
C1121 C1115 1.491 . S
C1121 C1120 1.400 . S
C1121 C1122 1.398 . S
C1122 H1110 0.950 . S
C1122 C1121 1.398 . S
C1122 C1123 1.391 . S
C1123 H1111 0.950 . S
C1123 C1119 1.393 . S
C1123 C1122 1.391 . S
H1124 C1132 0.950 . S
H1125 C1137 0.950 . S
H1126 C1134 0.950 . S
H1127 C1136 0.950 . S
H1128 C1138 0.950 . S
H1129 C1140 0.950 . S
H1130 C1142 0.950 . S
H1131 C1143 0.950 . S
C1132 H1124 0.950 . S
C1132 C1133 1.386 . S
C1132 C1134 1.391 . S
C1133 C1132 1.386 . S
C1133 C1137 1.393 . S
C1134 H1126 0.950 . S
C1134 C1132 1.391 . S
C1134 C1135 1.400 . S
C1135 C1134 1.400 . S
C1135 C1136 1.398 . S
C1135 C1141 1.491 . S
C1136 H1127 0.950 . S
C1136 C1135 1.398 . S
C1136 C1137 1.391 . S
C1137 H1125 0.950 . S
C1137 C1133 1.393 . S
C1137 C1136 1.391 . S
C1138 H1128 0.950 . S
C1138 C1139 1.386 . S
C1138 C1140 1.391 . S
C1139 C1138 1.386 . S
C1139 C1143 1.393 . S
C1140 H1129 0.950 . S
C1140 C1138 1.391 . S
C1140 C1141 1.400 . S
C1141 C1135 1.491 . S
C1141 C1140 1.400 . S
C1141 C1142 1.398 . S
C1142 H1130 0.950 . S
C1142 C1141 1.398 . S
C1142 C1143 1.391 . S
C1143 H1131 0.950 . S
C1143 C1139 1.393 . S
C1143 C1142 1.391 . S
H1144 C1152 0.950 . S
H1145 C1157 0.950 . S
H1146 C1154 0.950 . S
H1147 C1156 0.950 . S
H1148 C1158 0.950 . S
H1149 C1160 0.950 . S
H1150 C1162 0.950 . S
H1151 C1163 0.950 . S
C1152 H1144 0.950 . S
C1152 C1153 1.386 . S
C1152 C1154 1.391 . S
C1153 C1152 1.386 . S
C1153 C1157 1.393 . S
C1154 H1146 0.950 . S
C1154 C1152 1.391 . S
C1154 C1155 1.400 . S
C1155 C1154 1.400 . S
C1155 C1156 1.398 . S
C1155 C1161 1.491 . S
C1156 H1147 0.950 . S
C1156 C1155 1.398 . S
C1156 C1157 1.391 . S
C1157 H1145 0.950 . S
C1157 C1153 1.393 . S
C1157 C1156 1.391 . S
C1158 H1148 0.950 . S
C1158 C1159 1.386 . S
C1158 C1160 1.391 . S
C1159 C1158 1.386 . S
C1159 C1163 1.393 . S
C1160 H1149 0.950 . S
C1160 C1158 1.391 . S
C1160 C1161 1.400 . S
C1161 C1155 1.491 . S
C1161 C1160 1.400 . S
C1161 C1162 1.398 . S
C1162 H1150 0.950 . S
C1162 C1161 1.398 . S
C1162 C1163 1.391 . S
C1163 H1151 0.950 . S
C1163 C1159 1.393 . S
C1163 C1162 1.391 . S
H1164 C1172 0.950 . S
H1165 C1177 0.950 . S
H1166 C1174 0.950 . S
H1167 C1176 0.950 . S
H1168 C1178 0.950 . S
H1169 C1180 0.950 . S
H1170 C1182 0.950 . S
H1171 C1183 0.950 . S
C1172 H1164 0.950 . S
C1172 C1173 1.386 . S
C1172 C1174 1.391 . S
C1173 C1172 1.386 . S
C1173 C1177 1.393 . S
C1174 H1166 0.950 . S
C1174 C1172 1.391 . S
C1174 C1175 1.400 . S
C1175 C1174 1.400 . S
C1175 C1176 1.398 . S
C1175 C1181 1.491 . S
C1176 H1167 0.950 . S
C1176 C1175 1.398 . S
C1176 C1177 1.391 . S
C1177 H1165 0.950 . S
C1177 C1173 1.393 . S
C1177 C1176 1.391 . S
C1178 H1168 0.950 . S
C1178 C1179 1.386 . S
C1178 C1180 1.391 . S
C1179 C1178 1.386 . S
C1179 C1183 1.393 . S
C1180 H1169 0.950 . S
C1180 C1178 1.391 . S
C1180 C1181 1.400 . S
C1181 C1175 1.491 . S
C1181 C1180 1.400 . S
C1181 C1182 1.398 . S
C1182 H1170 0.950 . S
C1182 C1181 1.398 . S
C1182 C1183 1.391 . S
C1183 H1171 0.950 . S
C1183 C1179 1.393 . S
C1183 C1182 1.391 . S
H1184 C1192 0.950 . S
H1185 C1197 0.950 . S
H1186 C1194 0.950 . S
H1187 C1196 0.950 . S
H1188 C1198 0.950 . S
H1189 C1200 0.950 . S
H1190 C1202 0.950 . S
H1191 C1203 0.950 . S
C1192 H1184 0.950 . S
C1192 C1193 1.386 . S
C1192 C1194 1.391 . S
C1193 C1192 1.386 . S
C1193 C1197 1.393 . S
C1194 H1186 0.950 . S
C1194 C1192 1.391 . S
C1194 C1195 1.400 . S
C1195 C1194 1.400 . S
C1195 C1196 1.398 . S
C1195 C1201 1.491 . S
C1196 H1187 0.950 . S
C1196 C1195 1.398 . S
C1196 C1197 1.391 . S
C1197 H1185 0.950 . S
C1197 C1193 1.393 . S
C1197 C1196 1.391 . S
C1198 H1188 0.950 . S
C1198 C1199 1.386 . S
C1198 C1200 1.391 . S
C1199 C1198 1.386 . S
C1199 C1203 1.393 . S
C1200 H1189 0.950 . S
C1200 C1198 1.391 . S
C1200 C1201 1.400 . S
C1201 C1195 1.491 . S
C1201 C1200 1.400 . S
C1201 C1202 1.398 . S
C1202 H1190 0.950 . S
C1202 C1201 1.398 . S
C1202 C1203 1.391 . S
C1203 H1191 0.950 . S
C1203 C1199 1.393 . S
C1203 C1202 1.391 . S
H1204 C1212 0.950 . S
H1205 C1217 0.950 . S
H1206 C1214 0.950 . S
H1207 C1216 0.950 . S
H1208 C1218 0.950 . S
H1209 C1220 0.950 . S
H1210 C1222 0.950 . S
H1211 C1223 0.950 . S
C1212 H1204 0.950 . S
C1212 C1213 1.386 . S
C1212 C1214 1.391 . S
C1213 C1212 1.386 . S
C1213 C1217 1.393 . S
C1214 H1206 0.950 . S
C1214 C1212 1.391 . S
C1214 C1215 1.400 . S
C1215 C1214 1.400 . S
C1215 C1216 1.398 . S
C1215 C1221 1.491 . S
C1216 H1207 0.950 . S
C1216 C1215 1.398 . S
C1216 C1217 1.391 . S
C1217 H1205 0.950 . S
C1217 C1213 1.393 . S
C1217 C1216 1.391 . S
C1218 H1208 0.950 . S
C1218 C1219 1.386 . S
C1218 C1220 1.391 . S
C1219 C1218 1.386 . S
C1219 C1223 1.393 . S
C1220 H1209 0.950 . S
C1220 C1218 1.391 . S
C1220 C1221 1.400 . S
C1221 C1215 1.491 . S
C1221 C1220 1.400 . S
C1221 C1222 1.398 . S
C1222 H1210 0.950 . S
C1222 C1221 1.398 . S
C1222 C1223 1.391 . S
C1223 H1211 0.950 . S
C1223 C1219 1.393 . S
C1223 C1222 1.391 . S
H1224 C1232 0.950 . S
H1225 C1237 0.950 . S
H1226 C1234 0.950 . S
H1227 C1236 0.950 . S
H1228 C1238 0.950 . S
H1229 C1240 0.950 . S
H1230 C1242 0.950 . S
H1231 C1243 0.950 . S
C1232 H1224 0.950 . S
C1232 C1233 1.386 . S
C1232 C1234 1.391 . S
C1233 C1232 1.386 . S
C1233 C1237 1.393 . S
C1234 H1226 0.950 . S
C1234 C1232 1.391 . S
C1234 C1235 1.400 . S
C1235 C1234 1.400 . S
C1235 C1236 1.398 . S
C1235 C1241 1.491 . S
C1236 H1227 0.950 . S
C1236 C1235 1.398 . S
C1236 C1237 1.391 . S
C1237 H1225 0.950 . S
C1237 C1233 1.393 . S
C1237 C1236 1.391 . S
C1238 H1228 0.950 . S
C1238 C1239 1.386 . S
C1238 C1240 1.391 . S
C1239 C1238 1.386 . S
C1239 C1243 1.393 . S
C1240 H1229 0.950 . S
C1240 C1238 1.391 . S
C1240 C1241 1.400 . S
C1241 C1235 1.491 . S
C1241 C1240 1.400 . S
C1241 C1242 1.398 . S
C1242 H1230 0.950 . S
C1242 C1241 1.398 . S
C1242 C1243 1.391 . S
C1243 H1231 0.950 . S
C1243 C1239 1.393 . S
C1243 C1242 1.391 . S
H1244 C1252 0.950 . S
H1245 C1257 0.950 . S
H1246 C1254 0.950 . S
H1247 C1256 0.950 . S
H1248 C1258 0.950 . S
H1249 C1260 0.950 . S
H1250 C1262 0.950 . S
H1251 C1263 0.950 . S
C1252 H1244 0.950 . S
C1252 C1253 1.386 1_455 S
C1252 C1254 1.391 . S
C1253 C1252 1.386 1_655 S
C1253 C1257 1.393 . S
C1254 H1246 0.950 . S
C1254 C1252 1.391 . S
C1254 C1255 1.400 1_455 S
C1255 C1254 1.400 1_655 S
C1255 C1256 1.398 . S
C1255 C1261 1.491 . S
C1256 H1247 0.950 . S
C1256 C1255 1.398 . S
C1256 C1257 1.391 . S
C1257 H1245 0.950 . S
C1257 C1253 1.393 . S
C1257 C1256 1.391 . S
C1258 H1248 0.950 . S
C1258 C1259 1.386 . S
C1258 C1260 1.391 . S
C1259 C1258 1.386 . S
C1259 C1263 1.393 1_655 S
C1260 H1249 0.950 . S
C1260 C1258 1.391 . S
C1260 C1261 1.400 . S
C1261 C1255 1.491 . S
C1261 C1260 1.400 . S
C1261 C1262 1.398 1_655 S
C1262 H1250 0.950 . S
C1262 C1261 1.398 1_455 S
C1262 C1263 1.391 . S
C1263 H1251 0.950 . S
C1263 C1259 1.393 1_455 S
C1263 C1262 1.391 . S
H1264 C1272 0.950 . S
H1265 C1277 0.950 . S
H1266 C1274 0.950 . S
H1267 C1276 0.950 . S
H1268 C1278 0.950 . S
H1269 C1280 0.950 . S
H1270 C1282 0.950 . S
H1271 C1283 0.950 . S
C1272 H1264 0.950 . S
C1272 C1273 1.386 . S
C1272 C1274 1.391 . S
C1273 C1272 1.386 . S
C1273 C1277 1.393 . S
C1274 H1266 0.950 . S
C1274 C1272 1.391 . S
C1274 C1275 1.400 . S
C1275 C1274 1.400 . S
C1275 C1276 1.398 . S
C1275 C1281 1.491 . S
C1276 H1267 0.950 . S
C1276 C1275 1.398 . S
C1276 C1277 1.391 . S
C1277 H1265 0.950 . S
C1277 C1273 1.393 . S
C1277 C1276 1.391 . S
C1278 H1268 0.950 . S
C1278 C1279 1.386 . S
C1278 C1280 1.391 . S
C1279 C1278 1.386 . S
C1279 C1283 1.393 . S
C1280 H1269 0.950 . S
C1280 C1278 1.391 . S
C1280 C1281 1.400 . S
C1281 C1275 1.491 . S
C1281 C1280 1.400 . S
C1281 C1282 1.398 . S
C1282 H1270 0.950 . S
C1282 C1281 1.398 . S
C1282 C1283 1.391 . S
C1283 H1271 0.950 . S
C1283 C1279 1.393 . S
C1283 C1282 1.391 . S
H1284 C1292 0.950 . S
H1285 C1297 0.950 . S
H1286 C1294 0.950 . S
H1287 C1296 0.950 . S
H1288 C1298 0.950 . S
H1289 C1300 0.950 . S
H1290 C1302 0.950 . S
H1291 C1303 0.950 . S
C1292 H1284 0.950 . S
C1292 C1293 1.386 . S
C1292 C1294 1.391 . S
C1293 C1292 1.386 . S
C1293 C1297 1.393 . S
C1294 H1286 0.950 . S
C1294 C1292 1.391 . S
C1294 C1295 1.400 . S
C1295 C1294 1.400 . S
C1295 C1296 1.398 . S
C1295 C1301 1.491 . S
C1296 H1287 0.950 . S
C1296 C1295 1.398 . S
C1296 C1297 1.391 . S
C1297 H1285 0.950 . S
C1297 C1293 1.393 . S
C1297 C1296 1.391 . S
C1298 H1288 0.950 . S
C1298 C1299 1.386 . S
C1298 C1300 1.391 . S
C1299 C1298 1.386 . S
C1299 C1303 1.393 . S
C1300 H1289 0.950 . S
C1300 C1298 1.391 . S
C1300 C1301 1.400 . S
C1301 C1295 1.491 . S
C1301 C1300 1.400 . S
C1301 C1302 1.398 . S
C1302 H1290 0.950 . S
C1302 C1301 1.398 . S
C1302 C1303 1.391 . S
C1303 H1291 0.950 . S
C1303 C1299 1.393 . S
C1303 C1302 1.391 . S
H1304 C1312 0.942 1_554 S
H1305 C1317 0.950 . S
H1306 C1314 0.950 . S
H1307 C1316 0.950 . S
H1308 C1318 0.950 . S
H1309 C1320 0.950 . S
H1310 C1322 0.950 . S
H1311 C1323 0.950 . S
C1312 H1304 0.942 1_556 S
C1312 C1313 1.395 . S
C1312 C1314 1.389 1_556 S
C1313 C1312 1.395 . S
C1313 C1317 1.393 . S
C1314 H1306 0.950 . S
C1314 C1312 1.389 1_554 S
C1314 C1315 1.400 1_554 S
C1315 C1314 1.400 1_556 S
C1315 C1316 1.398 . S
C1315 C1321 1.491 . S
C1316 H1307 0.950 . S
C1316 C1315 1.398 . S
C1316 C1317 1.391 . S
C1317 H1305 0.950 . S
C1317 C1313 1.393 . S
C1317 C1316 1.391 . S
C1318 H1308 0.950 . S
C1318 C1319 1.386 1_556 S
C1318 C1320 1.391 . S
C1319 C1318 1.386 1_554 S
C1319 C1323 1.393 . S
C1320 H1309 0.950 . S
C1320 C1318 1.391 . S
C1320 C1321 1.400 . S
C1321 C1315 1.491 . S
C1321 C1320 1.400 . S
C1321 C1322 1.398 1_556 S
C1322 H1310 0.950 . S
C1322 C1321 1.398 1_554 S
C1322 C1323 1.391 . S
C1323 H1311 0.950 . S
C1323 C1319 1.393 . S
C1323 C1322 1.391 . S
H1324 C1332 0.950 . S
H1325 C1337 0.950 . S
H1326 C1334 0.950 . S
H1327 C1336 0.950 . S
H1328 C1338 0.950 . S
H1329 C1340 0.950 . S
H1330 C1342 0.950 . S
H1331 C1343 0.950 . S
C1332 H1324 0.950 . S
C1332 C1333 1.386 . S
C1332 C1334 1.391 . S
C1333 C1332 1.386 . S
C1333 C1337 1.393 . S
C1334 H1326 0.950 . S
C1334 C1332 1.391 . S
C1334 C1335 1.400 . S
C1335 C1334 1.400 . S
C1335 C1336 1.398 . S
C1335 C1341 1.491 . S
C1336 H1327 0.950 . S
C1336 C1335 1.398 . S
C1336 C1337 1.391 . S
C1337 H1325 0.950 . S
C1337 C1333 1.393 . S
C1337 C1336 1.391 . S
C1338 H1328 0.950 . S
C1338 C1339 1.386 . S
C1338 C1340 1.391 . S
C1339 C1338 1.386 . S
C1339 C1343 1.393 . S
C1340 H1329 0.950 . S
C1340 C1338 1.391 . S
C1340 C1341 1.400 . S
C1341 C1335 1.491 . S
C1341 C1340 1.400 . S
C1341 C1342 1.398 . S
C1342 H1330 0.950 . S
C1342 C1341 1.398 . S
C1342 C1343 1.391 . S
C1343 H1331 0.950 . S
C1343 C1339 1.393 . S
C1343 C1342 1.391 . S
H1344 C1352 0.950 . S
H1345 C1357 0.950 . S
H1346 C1354 0.950 . S
H1347 C1356 0.950 . S
H1348 C1358 0.950 . S
H1349 C1360 0.950 . S
H1350 C1362 0.950 . S
H1351 C1363 0.950 . S
C1352 H1344 0.950 . S
C1352 C1353 1.386 . S
C1352 C1354 1.391 . S
C1353 C1352 1.386 . S
C1353 C1357 1.393 . S
C1354 H1346 0.950 . S
C1354 C1352 1.391 . S
C1354 C1355 1.400 . S
C1355 C1354 1.400 . S
C1355 C1356 1.398 . S
C1355 C1361 1.491 . S
C1356 H1347 0.950 . S
C1356 C1355 1.398 . S
C1356 C1357 1.391 . S
C1357 H1345 0.950 . S
C1357 C1353 1.393 . S
C1357 C1356 1.391 . S
C1358 H1348 0.950 . S
C1358 C1359 1.386 . S
C1358 C1360 1.391 . S
C1359 C1358 1.386 . S
C1359 C1363 1.393 . S
C1360 H1349 0.950 . S
C1360 C1358 1.391 . S
C1360 C1361 1.400 . S
C1361 C1355 1.491 . S
C1361 C1360 1.400 . S
C1361 C1362 1.398 . S
C1362 H1350 0.950 . S
C1362 C1361 1.398 . S
C1362 C1363 1.391 . S
C1363 H1351 0.950 . S
C1363 C1359 1.393 . S
C1363 C1362 1.391 . S
H1364 C1372 0.950 . S
H1365 C1377 0.950 . S
H1366 C1374 0.950 . S
H1367 C1376 0.950 . S
H1368 C1378 0.950 . S
H1369 C1380 0.950 . S
H1370 C1382 0.950 . S
H1371 C1383 0.950 . S
C1372 H1364 0.950 . S
C1372 C1373 1.386 . S
C1372 C1374 1.391 . S
C1373 C1372 1.386 . S
C1373 C1377 1.393 . S
C1374 H1366 0.950 . S
C1374 C1372 1.391 . S
C1374 C1375 1.400 . S
C1375 C1374 1.400 . S
C1375 C1376 1.398 . S
C1375 C1381 1.491 . S
C1376 H1367 0.950 . S
C1376 C1375 1.398 . S
C1376 C1377 1.391 . S
C1377 H1365 0.950 . S
C1377 C1373 1.393 . S
C1377 C1376 1.391 . S
C1378 H1368 0.950 . S
C1378 C1379 1.386 . S
C1378 C1380 1.391 . S
C1379 C1378 1.386 . S
C1379 C1383 1.393 . S
C1380 H1369 0.950 . S
C1380 C1378 1.391 . S
C1380 C1381 1.400 . S
C1381 C1375 1.491 . S
C1381 C1380 1.400 . S
C1381 C1382 1.398 . S
C1382 H1370 0.950 . S
C1382 C1381 1.398 . S
C1382 C1383 1.391 . S
C1383 H1371 0.950 . S
C1383 C1379 1.393 . S
C1383 C1382 1.391 . S
H1384 C1392 0.950 . S
H1385 C1397 0.950 . S
H1386 C1394 0.950 . S
H1387 C1396 0.950 . S
H1388 C1398 0.950 . S
H1389 C1400 0.950 . S
H1390 C1402 0.950 . S
H1391 C1403 0.950 . S
C1392 H1384 0.950 . S
C1392 C1393 1.386 . S
C1392 C1394 1.391 . S
C1393 C1392 1.386 . S
C1393 C1397 1.393 . S
C1394 H1386 0.950 . S
C1394 C1392 1.391 . S
C1394 C1395 1.400 . S
C1395 C1394 1.400 . S
C1395 C1396 1.398 . S
C1395 C1401 1.491 . S
C1396 H1387 0.950 . S
C1396 C1395 1.398 . S
C1396 C1397 1.391 . S
C1397 H1385 0.950 . S
C1397 C1393 1.393 . S
C1397 C1396 1.391 . S
C1398 H1388 0.950 . S
C1398 C1399 1.386 . S
C1398 C1400 1.391 . S
C1399 C1398 1.386 . S
C1399 C1403 1.393 . S
C1400 H1389 0.950 . S
C1400 C1398 1.391 . S
C1400 C1401 1.400 . S
C1401 C1395 1.491 . S
C1401 C1400 1.400 . S
C1401 C1402 1.398 . S
C1402 H1390 0.950 . S
C1402 C1401 1.398 . S
C1402 C1403 1.391 . S
C1403 H1391 0.950 . S
C1403 C1399 1.393 . S
C1403 C1402 1.391 . S
H1404 C1412 0.950 . S
H1405 C1417 0.950 . S
H1406 C1414 0.950 . S
H1407 C1416 0.950 . S
H1408 C1418 0.950 . S
H1409 C1420 0.950 . S
H1410 C1422 0.950 . S
H1411 C1423 0.950 . S
C1412 H1404 0.950 . S
C1412 C1413 1.386 . S
C1412 C1414 1.391 . S
C1413 C1412 1.386 . S
C1413 C1417 1.393 . S
C1414 H1406 0.950 . S
C1414 C1412 1.391 . S
C1414 C1415 1.400 . S
C1415 C1414 1.400 . S
C1415 C1416 1.398 . S
C1415 C1421 1.491 . S
C1416 H1407 0.950 . S
C1416 C1415 1.398 . S
C1416 C1417 1.391 . S
C1417 H1405 0.950 . S
C1417 C1413 1.393 . S
C1417 C1416 1.391 . S
C1418 H1408 0.950 . S
C1418 C1419 1.386 . S
C1418 C1420 1.391 . S
C1419 C1418 1.386 . S
C1419 C1423 1.393 . S
C1420 H1409 0.950 . S
C1420 C1418 1.391 . S
C1420 C1421 1.400 . S
C1421 C1415 1.491 . S
C1421 C1420 1.400 . S
C1421 C1422 1.398 . S
C1422 H1410 0.950 . S
C1422 C1421 1.398 . S
C1422 C1423 1.391 . S
C1423 H1411 0.950 . S
C1423 C1419 1.393 . S
C1423 C1422 1.391 . S
H1424 C1432 0.950 . S
H1425 C1437 0.950 . S
H1426 C1434 0.950 . S
H1427 C1436 0.950 . S
H1428 C1438 0.950 . S
H1429 C1440 0.950 . S
H1430 C1442 0.950 . S
H1431 C1443 0.950 . S
C1432 H1424 0.950 . S
C1432 C1433 1.386 . S
C1432 C1434 1.391 . S
C1433 C1432 1.386 . S
C1433 C1437 1.393 . S
C1434 H1426 0.950 . S
C1434 C1432 1.391 . S
C1434 C1435 1.400 . S
C1435 C1434 1.400 . S
C1435 C1436 1.398 . S
C1435 C1441 1.491 . S
C1436 H1427 0.950 . S
C1436 C1435 1.398 . S
C1436 C1437 1.391 . S
C1437 H1425 0.950 . S
C1437 C1433 1.393 . S
C1437 C1436 1.391 . S
C1438 H1428 0.950 . S
C1438 C1439 1.386 . S
C1438 C1440 1.391 . S
C1439 C1438 1.386 . S
C1439 C1443 1.393 . S
C1440 H1429 0.950 . S
C1440 C1438 1.391 . S
C1440 C1441 1.400 . S
C1441 C1435 1.491 . S
C1441 C1440 1.400 . S
C1441 C1442 1.398 . S
C1442 H1430 0.950 . S
C1442 C1441 1.398 . S
C1442 C1443 1.391 . S
C1443 H1431 0.950 . S
C1443 C1439 1.393 . S
C1443 C1442 1.391 . S
H1444 C1452 0.950 . S
H1445 C1457 0.950 . S
H1446 C1454 0.950 . S
H1447 C1456 0.950 . S
H1448 C1458 0.950 . S
H1449 C1460 0.950 . S
H1450 C1462 0.966 . S
H1451 C1463 0.950 1_565 S
C1452 H1444 0.950 . S
C1452 C1453 1.386 . S
C1452 C1454 1.391 . S
C1453 C1452 1.386 . S
C1453 C1457 1.393 . S
C1454 H1446 0.950 . S
C1454 C1452 1.391 . S
C1454 C1455 1.400 . S
C1455 C1454 1.400 . S
C1455 C1456 1.398 . S
C1455 C1461 1.491 . S
C1456 H1447 0.950 . S
C1456 C1455 1.398 . S
C1456 C1457 1.391 . S
C1457 H1445 0.950 . S
C1457 C1453 1.393 . S
C1457 C1456 1.391 . S
C1458 H1448 0.950 . S
C1458 C1459 1.386 . S
C1458 C1460 1.391 . S
C1459 C1458 1.386 . S
C1459 C1463 1.393 . S
C1460 H1449 0.950 . S
C1460 C1458 1.391 . S
C1460 C1461 1.400 . S
C1461 C1455 1.491 . S
C1461 C1460 1.400 . S
C1461 C1462 1.398 . S
C1462 H1450 0.966 . S
C1462 C1461 1.398 . S
C1462 C1463 1.391 . S
C1463 H1451 0.950 1_545 S
C1463 C1459 1.393 . S
C1463 C1462 1.391 . S
H1464 C1472 0.950 . S
H1465 C1477 0.950 . S
H1466 C1474 0.950 . S
H1467 C1476 0.950 . S
H1468 C1478 0.950 . S
H1469 C1480 0.950 . S
H1470 C1482 0.950 . S
H1471 C1483 0.950 . S
C1472 H1464 0.950 . S
C1472 C1473 1.386 . S
C1472 C1474 1.391 . S
C1473 C1472 1.386 . S
C1473 C1477 1.393 . S
C1474 H1466 0.950 . S
C1474 C1472 1.391 . S
C1474 C1475 1.400 . S
C1475 C1474 1.400 . S
C1475 C1476 1.398 . S
C1475 C1481 1.491 . S
C1476 H1467 0.950 . S
C1476 C1475 1.398 . S
C1476 C1477 1.391 . S
C1477 H1465 0.950 . S
C1477 C1473 1.393 . S
C1477 C1476 1.391 . S
C1478 H1468 0.950 . S
C1478 C1479 1.386 . S
C1478 C1480 1.391 . S
C1479 C1478 1.386 . S
C1479 C1483 1.393 . S
C1480 H1469 0.950 . S
C1480 C1478 1.391 . S
C1480 C1481 1.400 . S
C1481 C1475 1.491 . S
C1481 C1480 1.400 . S
C1481 C1482 1.398 . S
C1482 H1470 0.950 . S
C1482 C1481 1.398 . S
C1482 C1483 1.391 . S
C1483 H1471 0.950 . S
C1483 C1479 1.393 . S
C1483 C1482 1.391 . S
H1484 C1492 0.950 . S
H1485 C1497 0.950 . S
H1486 C1494 0.950 . S
H1487 C1496 0.950 . S
H1488 C1498 0.950 . S
H1489 C1500 0.950 . S
H1490 C1502 0.950 . S
H1491 C1503 0.950 . S
C1492 H1484 0.950 . S
C1492 C1493 1.386 . S
C1492 C1494 1.391 . S
C1493 C1492 1.386 . S
C1493 C1497 1.393 . S
C1494 H1486 0.950 . S
C1494 C1492 1.391 . S
C1494 C1495 1.400 . S
C1495 C1494 1.400 . S
C1495 C1496 1.398 . S
C1495 C1501 1.491 . S
C1496 H1487 0.950 . S
C1496 C1495 1.398 . S
C1496 C1497 1.391 . S
C1497 H1485 0.950 . S
C1497 C1493 1.393 . S
C1497 C1496 1.391 . S
C1498 H1488 0.950 . S
C1498 C1499 1.386 . S
C1498 C1500 1.391 . S
C1499 C1498 1.386 . S
C1499 C1503 1.393 . S
C1500 H1489 0.950 . S
C1500 C1498 1.391 . S
C1500 C1501 1.400 . S
C1501 C1495 1.491 . S
C1501 C1500 1.400 . S
C1501 C1502 1.398 . S
C1502 H1490 0.950 . S
C1502 C1501 1.398 . S
C1502 C1503 1.391 . S
C1503 H1491 0.950 . S
C1503 C1499 1.393 . S
C1503 C1502 1.391 . S
H1504 C1512 0.950 . S
H1505 C1517 0.950 . S
H1506 C1514 0.950 . S
H1507 C1516 0.950 . S
H1508 C1518 0.950 . S
H1509 C1520 0.950 . S
H1510 C1522 0.950 . S
H1511 C1523 0.950 . S
C1512 H1504 0.950 . S
C1512 C1513 1.386 . S
C1512 C1514 1.391 . S
C1513 C1512 1.386 . S
C1513 C1517 1.393 . S
C1514 H1506 0.950 . S
C1514 C1512 1.391 . S
C1514 C1515 1.400 . S
C1515 C1514 1.400 . S
C1515 C1516 1.398 . S
C1515 C1521 1.491 . S
C1516 H1507 0.950 . S
C1516 C1515 1.398 . S
C1516 C1517 1.391 . S
C1517 H1505 0.950 . S
C1517 C1513 1.393 . S
C1517 C1516 1.391 . S
C1518 H1508 0.950 . S
C1518 C1519 1.386 . S
C1518 C1520 1.391 . S
C1519 C1518 1.386 . S
C1519 C1523 1.393 . S
C1520 H1509 0.950 . S
C1520 C1518 1.391 . S
C1520 C1521 1.400 . S
C1521 C1515 1.491 . S
C1521 C1520 1.400 . S
C1521 C1522 1.398 . S
C1522 H1510 0.950 . S
C1522 C1521 1.398 . S
C1522 C1523 1.391 . S
C1523 H1511 0.950 . S
C1523 C1519 1.393 . S
C1523 C1522 1.391 . S
H1524 C1532 0.950 . S
H1525 C1537 0.950 1_565 S
H1526 C1534 0.950 . S
H1527 C1536 0.950 1_565 S
H1528 C1538 0.950 . S
H1529 C1540 0.980 . S
H1530 C1542 0.950 . S
H1531 C1543 0.950 . S
C1532 H1524 0.950 . S
C1532 C1533 1.386 . S
C1532 C1534 1.391 . S
C1533 C1532 1.386 . S
C1533 C1537 1.393 . S
C1534 H1526 0.950 . S
C1534 C1532 1.391 . S
C1534 C1535 1.400 . S
C1535 C1534 1.400 . S
C1535 C1536 1.398 . S
C1535 C1541 1.491 . S
C1536 H1527 0.950 1_545 S
C1536 C1535 1.398 . S
C1536 C1537 1.391 . S
C1537 H1525 0.950 1_545 S
C1537 C1533 1.393 . S
C1537 C1536 1.391 . S
C1538 H1528 0.950 . S
C1538 C1539 1.386 1_565 S
C1538 C1540 1.395 . S
C1539 C1538 1.386 1_545 S
C1539 C1543 1.393 . S
C1540 H1529 0.980 . S
C1540 C1538 1.395 . S
C1540 C1541 1.368 1_565 S
C1541 C1535 1.491 . S
C1541 C1540 1.368 1_545 S
C1541 C1542 1.398 . S
C1542 H1530 0.950 . S
C1542 C1541 1.398 . S
C1542 C1543 1.391 . S
C1543 H1531 0.950 . S
C1543 C1539 1.393 . S
C1543 C1542 1.391 . S
H1544 C1552 0.950 . S
H1545 C1557 0.950 . S
H1546 C1554 0.950 . S
H1547 C1556 0.950 . S
H1548 C1558 0.950 . S
H1549 C1560 0.950 . S
H1550 C1562 0.950 . S
H1551 C1563 0.950 . S
C1552 H1544 0.950 . S
C1552 C1553 1.386 . S
C1552 C1554 1.391 . S
C1553 C1552 1.386 . S
C1553 C1557 1.393 . S
C1554 H1546 0.950 . S
C1554 C1552 1.391 . S
C1554 C1555 1.400 . S
C1555 C1554 1.400 . S
C1555 C1556 1.398 . S
C1555 C1561 1.491 . S
C1556 H1547 0.950 . S
C1556 C1555 1.398 . S
C1556 C1557 1.391 . S
C1557 H1545 0.950 . S
C1557 C1553 1.393 . S
C1557 C1556 1.391 . S
C1558 H1548 0.950 . S
C1558 C1559 1.386 . S
C1558 C1560 1.391 . S
C1559 C1558 1.386 . S
C1559 C1563 1.393 . S
C1560 H1549 0.950 . S
C1560 C1558 1.391 . S
C1560 C1561 1.400 . S
C1561 C1555 1.491 . S
C1561 C1560 1.400 . S
C1561 C1562 1.398 . S
C1562 H1550 0.950 . S
C1562 C1561 1.398 . S
C1562 C1563 1.391 . S
C1563 H1551 0.950 . S
C1563 C1559 1.393 . S
C1563 C1562 1.391 . S
H1564 C1572 0.950 . S
H1565 C1577 0.972 . S
H1566 C1574 0.950 . S
H1567 C1576 0.950 . S
H1568 C1578 0.950 . S
H1569 C1580 0.950 . S
H1570 C1582 0.950 . S
H1571 C1583 0.950 . S
C1572 H1564 0.950 . S
C1572 C1573 1.386 . S
C1572 C1574 1.391 . S
C1573 C1572 1.386 . S
C1573 C1577 1.393 . S
C1574 H1566 0.950 . S
C1574 C1572 1.391 . S
C1574 C1575 1.400 . S
C1575 C1574 1.400 . S
C1575 C1576 1.398 . S
C1575 C1581 1.491 . S
C1576 H1567 0.950 . S
C1576 C1575 1.398 . S
C1576 C1577 1.391 . S
C1577 H1565 0.972 . S
C1577 C1573 1.393 . S
C1577 C1576 1.391 . S
C1578 H1568 0.950 . S
C1578 C1579 1.386 . S
C1578 C1580 1.391 . S
C1579 C1578 1.386 . S
C1579 C1583 1.393 . S
C1580 H1569 0.950 . S
C1580 C1578 1.391 . S
C1580 C1581 1.400 . S
C1581 C1575 1.491 . S
C1581 C1580 1.400 . S
C1581 C1582 1.398 . S
C1582 H1570 0.950 . S
C1582 C1581 1.398 . S
C1582 C1583 1.391 . S
C1583 H1571 0.950 . S
C1583 C1579 1.393 . S
C1583 C1582 1.391 . S
H1584 C1592 0.950 . S
H1585 C1597 0.950 . S
H1586 C1594 0.950 . S
H1587 C1596 0.950 . S
H1588 C1598 0.950 . S
H1589 C1600 0.950 . S
H1590 C1602 0.950 . S
H1591 C1603 0.950 . S
C1592 H1584 0.950 . S
C1592 C1593 1.386 . S
C1592 C1594 1.391 . S
C1593 C1592 1.386 . S
C1593 C1597 1.393 . S
C1594 H1586 0.950 . S
C1594 C1592 1.391 . S
C1594 C1595 1.400 . S
C1595 C1594 1.400 . S
C1595 C1596 1.398 . S
C1595 C1601 1.491 . S
C1596 H1587 0.950 . S
C1596 C1595 1.398 . S
C1596 C1597 1.391 . S
C1597 H1585 0.950 . S
C1597 C1593 1.393 . S
C1597 C1596 1.391 . S
C1598 H1588 0.950 . S
C1598 C1599 1.386 . S
C1598 C1600 1.391 . S
C1599 C1598 1.386 . S
C1599 C1603 1.393 . S
C1600 H1589 0.950 . S
C1600 C1598 1.391 . S
C1600 C1601 1.400 . S
C1601 C1595 1.491 . S
C1601 C1600 1.400 . S
C1601 C1602 1.398 . S
C1602 H1590 0.950 . S
C1602 C1601 1.398 . S
C1602 C1603 1.391 . S
C1603 H1591 0.950 . S
C1603 C1599 1.393 . S
C1603 C1602 1.391 . S
H1604 C1612 0.950 . S
H1605 C1617 0.896 1_554 S
H1606 C1614 0.950 . S
H1607 C1616 0.950 1_455 S
H1608 C1618 0.950 . S
H1609 C1620 0.950 . S
H1610 C1622 0.950 . S
H1611 C1623 0.950 . S
C1612 H1604 0.950 . S
C1612 C1613 1.386 . S
C1612 C1614 1.391 . S
C1613 C1612 1.386 . S
C1613 C1617 1.393 . S
C1614 H1606 0.950 . S
C1614 C1612 1.391 . S
C1614 C1615 1.400 . S
C1615 C1614 1.400 . S
C1615 C1616 1.398 . S
C1615 C1621 1.491 . S
C1616 H1607 0.950 1_655 S
C1616 C1615 1.398 . S
C1616 C1617 1.391 . S
C1617 H1605 0.896 1_556 S
C1617 C1613 1.393 . S
C1617 C1616 1.391 . S
C1618 H1608 0.950 . S
C1618 C1619 1.385 . S
C1618 C1620 1.391 . S
C1619 C1618 1.385 . S
C1619 C1623 1.393 1_455 S
C1620 H1609 0.950 . S
C1620 C1618 1.391 . S
C1620 C1621 1.400 1_455 S
C1621 C1615 1.491 . S
C1621 C1620 1.400 1_655 S
C1621 C1622 1.398 . S
C1622 H1610 0.950 . S
C1622 C1621 1.398 . S
C1622 C1623 1.391 . S
C1623 H1611 0.950 . S
C1623 C1619 1.393 1_655 S
C1623 C1622 1.391 . S
H1624 C1632 0.950 . S
H1625 C1637 0.950 . S
H1626 C1634 0.950 . S
H1627 C1636 0.950 . S
H1628 C1638 0.950 . S
H1629 C1640 0.950 . S
H1630 C1642 0.950 . S
H1631 C1643 0.950 . S
C1632 H1624 0.950 . S
C1632 C1633 1.386 . S
C1632 C1634 1.391 . S
C1633 C1632 1.386 . S
C1633 C1637 1.393 . S
C1634 H1626 0.950 . S
C1634 C1632 1.391 . S
C1634 C1635 1.400 . S
C1635 C1634 1.400 . S
C1635 C1636 1.398 . S
C1635 C1641 1.491 . S
C1636 H1627 0.950 . S
C1636 C1635 1.398 . S
C1636 C1637 1.391 . S
C1637 H1625 0.950 . S
C1637 C1633 1.393 . S
C1637 C1636 1.391 . S
C1638 H1628 0.950 . S
C1638 C1639 1.386 . S
C1638 C1640 1.391 . S
C1639 C1638 1.386 . S
C1639 C1643 1.393 . S
C1640 H1629 0.950 . S
C1640 C1638 1.391 . S
C1640 C1641 1.400 . S
C1641 C1635 1.491 . S
C1641 C1640 1.400 . S
C1641 C1642 1.398 . S
C1642 H1630 0.950 . S
C1642 C1641 1.398 . S
C1642 C1643 1.391 . S
C1643 H1631 0.950 . S
C1643 C1639 1.393 . S
C1643 C1642 1.391 . S
H1644 C1652 0.950 . S
H1645 C1657 0.950 1_655 S
H1646 C1654 0.950 . S
H1647 C1656 0.950 1_655 S
H1648 C1658 0.950 . S
H1649 C1660 0.954 . S
H1650 C1662 0.950 . S
H1651 C1663 0.950 . S
C1652 H1644 0.950 . S
C1652 C1653 1.386 . S
C1652 C1654 1.391 . S
C1653 C1652 1.386 . S
C1653 C1657 1.393 . S
C1654 H1646 0.950 . S
C1654 C1652 1.391 . S
C1654 C1655 1.400 . S
C1655 C1654 1.400 . S
C1655 C1656 1.398 . S
C1655 C1661 1.491 . S
C1656 H1647 0.950 1_455 S
C1656 C1655 1.398 . S
C1656 C1657 1.391 . S
C1657 H1645 0.950 1_455 S
C1657 C1653 1.393 . S
C1657 C1656 1.391 . S
C1658 H1648 0.950 . S
C1658 C1659 1.386 1_655 S
C1658 C1660 1.392 . S
C1659 C1658 1.386 1_455 S
C1659 C1663 1.393 . S
C1660 H1649 0.954 . S
C1660 C1658 1.392 . S
C1660 C1661 1.395 1_655 S
C1661 C1655 1.491 . S
C1661 C1660 1.395 1_455 S
C1661 C1662 1.398 . S
C1662 H1650 0.950 . S
C1662 C1661 1.398 . S
C1662 C1663 1.391 . S
C1663 H1651 0.950 . S
C1663 C1659 1.393 . S
C1663 C1662 1.391 . S
H1664 C1672 0.950 . S
H1665 C1677 0.950 . S
H1666 C1674 0.950 . S
H1667 C1676 0.950 . S
H1668 C1678 0.950 . S
H1669 C1680 0.950 . S
H1670 C1682 0.950 . S
H1671 C1683 0.950 . S
C1672 H1664 0.950 . S
C1672 C1673 1.386 . S
C1672 C1674 1.391 . S
C1673 C1672 1.386 . S
C1673 C1677 1.393 . S
C1674 H1666 0.950 . S
C1674 C1672 1.391 . S
C1674 C1675 1.400 . S
C1675 C1674 1.400 . S
C1675 C1676 1.398 . S
C1675 C1681 1.491 . S
C1676 H1667 0.950 . S
C1676 C1675 1.398 . S
C1676 C1677 1.391 . S
C1677 H1665 0.950 . S
C1677 C1673 1.393 . S
C1677 C1676 1.391 . S
C1678 H1668 0.950 . S
C1678 C1679 1.386 . S
C1678 C1680 1.391 . S
C1679 C1678 1.386 . S
C1679 C1683 1.393 . S
C1680 H1669 0.950 . S
C1680 C1678 1.391 . S
C1680 C1681 1.400 . S
C1681 C1675 1.491 . S
C1681 C1680 1.400 . S
C1681 C1682 1.398 . S
C1682 H1670 0.950 . S
C1682 C1681 1.398 . S
C1682 C1683 1.391 . S
C1683 H1671 0.950 . S
C1683 C1679 1.393 . S
C1683 C1682 1.391 . S
H1684 C1692 0.950 . S
H1685 C1697 0.950 . S
H1686 C1694 0.950 . S
H1687 C1696 0.950 . S
H1688 C1698 0.950 . S
H1689 C1700 0.950 . S
H1690 C1702 0.950 . S
H1691 C1703 0.950 . S
C1692 H1684 0.950 . S
C1692 C1693 1.386 . S
C1692 C1694 1.391 . S
C1693 C1692 1.386 . S
C1693 C1697 1.393 . S
C1694 H1686 0.950 . S
C1694 C1692 1.391 . S
C1694 C1695 1.400 . S
C1695 C1694 1.400 . S
C1695 C1696 1.398 . S
C1695 C1701 1.491 . S
C1696 H1687 0.950 . S
C1696 C1695 1.398 . S
C1696 C1697 1.391 . S
C1697 H1685 0.950 . S
C1697 C1693 1.393 . S
C1697 C1696 1.391 . S
C1698 H1688 0.950 . S
C1698 C1699 1.386 . S
C1698 C1700 1.391 . S
C1699 C1698 1.386 . S
C1699 C1703 1.393 . S
C1700 H1689 0.950 . S
C1700 C1698 1.391 . S
C1700 C1701 1.400 . S
C1701 C1695 1.491 . S
C1701 C1700 1.400 . S
C1701 C1702 1.398 . S
C1702 H1690 0.950 . S
C1702 C1701 1.398 . S
C1702 C1703 1.391 . S
C1703 H1691 0.950 . S
C1703 C1699 1.393 . S
C1703 C1702 1.391 . S
H1704 C1712 0.950 . S
H1705 C1717 0.950 . S
H1706 C1714 0.950 . S
H1707 C1716 0.950 . S
H1708 C1718 0.950 . S
H1709 C1720 0.950 . S
H1710 C1722 0.950 . S
H1711 C1723 0.950 . S
C1712 H1704 0.950 . S
C1712 C1713 1.386 . S
C1712 C1714 1.391 . S
C1713 C1712 1.386 . S
C1713 C1717 1.393 . S
C1714 H1706 0.950 . S
C1714 C1712 1.391 . S
C1714 C1715 1.400 . S
C1715 C1714 1.400 . S
C1715 C1716 1.398 . S
C1715 C1721 1.491 . S
C1716 H1707 0.950 . S
C1716 C1715 1.398 . S
C1716 C1717 1.391 . S
C1717 H1705 0.950 . S
C1717 C1713 1.393 . S
C1717 C1716 1.391 . S
C1718 H1708 0.950 . S
C1718 C1719 1.386 . S
C1718 C1720 1.391 . S
C1719 C1718 1.386 . S
C1719 C1723 1.393 . S
C1720 H1709 0.950 . S
C1720 C1718 1.391 . S
C1720 C1721 1.400 . S
C1721 C1715 1.491 . S
C1721 C1720 1.400 . S
C1721 C1722 1.398 . S
C1722 H1710 0.950 . S
C1722 C1721 1.398 . S
C1722 C1723 1.391 . S
C1723 H1711 0.950 . S
C1723 C1719 1.393 . S
C1723 C1722 1.391 . S
H1724 C1732 0.950 . S
H1725 C1737 0.950 . S
H1726 C1734 0.950 . S
H1727 C1736 0.950 . S
H1728 C1738 0.950 . S
H1729 C1740 0.950 . S
H1730 C1742 0.950 . S
H1731 C1743 0.950 . S
C1732 H1724 0.950 . S
C1732 C1733 1.386 . S
C1732 C1734 1.391 . S
C1733 C1732 1.386 . S
C1733 C1737 1.393 . S
C1734 H1726 0.950 . S
C1734 C1732 1.391 . S
C1734 C1735 1.400 . S
C1735 C1734 1.400 . S
C1735 C1736 1.398 . S
C1735 C1741 1.491 . S
C1736 H1727 0.950 . S
C1736 C1735 1.398 . S
C1736 C1737 1.391 . S
C1737 H1725 0.950 . S
C1737 C1733 1.393 . S
C1737 C1736 1.391 . S
C1738 H1728 0.950 . S
C1738 C1739 1.386 . S
C1738 C1740 1.391 . S
C1739 C1738 1.386 . S
C1739 C1743 1.393 . S
C1740 H1729 0.950 . S
C1740 C1738 1.391 . S
C1740 C1741 1.400 . S
C1741 C1735 1.491 . S
C1741 C1740 1.400 . S
C1741 C1742 1.398 . S
C1742 H1730 0.950 . S
C1742 C1741 1.398 . S
C1742 C1743 1.391 . S
C1743 H1731 0.950 . S
C1743 C1739 1.393 . S
C1743 C1742 1.391 . S
H1744 C1752 0.950 . S
H1745 C1757 0.950 . S
H1746 C1754 0.950 . S
H1747 C1756 0.950 . S
H1748 C1758 0.950 . S
H1749 C1760 0.950 . S
H1750 C1762 0.950 . S
H1751 C1763 0.950 . S
C1752 H1744 0.950 . S
C1752 C1753 1.386 . S
C1752 C1754 1.391 . S
C1753 C1752 1.386 . S
C1753 C1757 1.393 . S
C1754 H1746 0.950 . S
C1754 C1752 1.391 . S
C1754 C1755 1.400 . S
C1755 C1754 1.400 . S
C1755 C1756 1.398 . S
C1755 C1761 1.491 . S
C1756 H1747 0.950 . S
C1756 C1755 1.398 . S
C1756 C1757 1.391 . S
C1757 H1745 0.950 . S
C1757 C1753 1.393 . S
C1757 C1756 1.391 . S
C1758 H1748 0.950 . S
C1758 C1759 1.386 . S
C1758 C1760 1.391 . S
C1759 C1758 1.386 . S
C1759 C1763 1.393 . S
C1760 H1749 0.950 . S
C1760 C1758 1.391 . S
C1760 C1761 1.400 . S
C1761 C1755 1.491 . S
C1761 C1760 1.400 . S
C1761 C1762 1.398 . S
C1762 H1750 0.950 . S
C1762 C1761 1.398 . S
C1762 C1763 1.391 . S
C1763 H1751 0.950 . S
C1763 C1759 1.393 . S
C1763 C1762 1.391 . S
H1764 C1772 0.950 . S
H1765 C1777 0.950 . S
H1766 C1774 0.950 . S
H1767 C1776 0.950 . S
H1768 C1778 0.950 . S
H1769 C1780 0.950 . S
H1770 C1782 0.950 . S
H1771 C1783 0.950 . S
C1772 H1764 0.950 . S
C1772 C1773 1.386 . S
C1772 C1774 1.391 . S
C1773 C1772 1.386 . S
C1773 C1777 1.393 . S
C1774 H1766 0.950 . S
C1774 C1772 1.391 . S
C1774 C1775 1.400 . S
C1775 C1774 1.400 . S
C1775 C1776 1.398 . S
C1775 C1781 1.491 . S
C1776 H1767 0.950 . S
C1776 C1775 1.398 . S
C1776 C1777 1.391 . S
C1777 H1765 0.950 . S
C1777 C1773 1.393 . S
C1777 C1776 1.391 . S
C1778 H1768 0.950 . S
C1778 C1779 1.386 . S
C1778 C1780 1.391 . S
C1779 C1778 1.386 . S
C1779 C1783 1.393 . S
C1780 H1769 0.950 . S
C1780 C1778 1.391 . S
C1780 C1781 1.400 . S
C1781 C1775 1.491 . S
C1781 C1780 1.400 . S
C1781 C1782 1.398 . S
C1782 H1770 0.950 . S
C1782 C1781 1.398 . S
C1782 C1783 1.391 . S
C1783 H1771 0.950 . S
C1783 C1779 1.393 . S
C1783 C1782 1.391 . S
H1784 C1792 0.950 . S
H1785 C1797 0.950 . S
H1786 C1794 0.950 . S
H1787 C1796 0.950 . S
H1788 C1798 0.950 . S
H1789 C1800 0.950 . S
H1790 C1802 0.950 . S
H1791 C1803 0.950 . S
C1792 H1784 0.950 . S
C1792 C1793 1.386 . S
C1792 C1794 1.391 . S
C1793 C1792 1.386 . S
C1793 C1797 1.393 . S
C1794 H1786 0.950 . S
C1794 C1792 1.391 . S
C1794 C1795 1.400 . S
C1795 C1794 1.400 . S
C1795 C1796 1.398 . S
C1795 C1801 1.491 . S
C1796 H1787 0.950 . S
C1796 C1795 1.398 . S
C1796 C1797 1.391 . S
C1797 H1785 0.950 . S
C1797 C1793 1.393 . S
C1797 C1796 1.391 . S
C1798 H1788 0.950 . S
C1798 C1799 1.386 . S
C1798 C1800 1.391 . S
C1799 C1798 1.386 . S
C1799 C1803 1.393 . S
C1800 H1789 0.950 . S
C1800 C1798 1.391 . S
C1800 C1801 1.400 . S
C1801 C1795 1.491 . S
C1801 C1800 1.400 . S
C1801 C1802 1.398 . S
C1802 H1790 0.950 . S
C1802 C1801 1.398 . S
C1802 C1803 1.391 . S
C1803 H1791 0.950 . S
C1803 C1799 1.393 . S
C1803 C1802 1.391 . S
H1804 C1812 0.950 . S
H1805 C1817 0.950 . S
H1806 C1814 0.950 . S
H1807 C1816 0.950 . S
H1808 C1818 0.950 . S
H1809 C1820 0.950 . S
H1810 C1822 0.950 . S
H1811 C1823 0.950 . S
C1812 H1804 0.950 . S
C1812 C1813 1.386 . S
C1812 C1814 1.391 . S
C1813 C1812 1.386 . S
C1813 C1817 1.393 . S
C1814 H1806 0.950 . S
C1814 C1812 1.391 . S
C1814 C1815 1.400 . S
C1815 C1814 1.400 . S
C1815 C1816 1.398 . S
C1815 C1821 1.491 . S
C1816 H1807 0.950 . S
C1816 C1815 1.398 . S
C1816 C1817 1.391 . S
C1817 H1805 0.950 . S
C1817 C1813 1.393 . S
C1817 C1816 1.391 . S
C1818 H1808 0.950 . S
C1818 C1819 1.386 . S
C1818 C1820 1.391 . S
C1819 C1818 1.386 . S
C1819 C1823 1.393 . S
C1820 H1809 0.950 . S
C1820 C1818 1.391 . S
C1820 C1821 1.400 . S
C1821 C1815 1.491 . S
C1821 C1820 1.400 . S
C1821 C1822 1.398 . S
C1822 H1810 0.950 . S
C1822 C1821 1.398 . S
C1822 C1823 1.391 . S
C1823 H1811 0.950 . S
C1823 C1819 1.393 . S
C1823 C1822 1.391 . S
H1824 C1832 0.950 . S
H1825 C1837 0.959 . S
H1826 C1834 0.950 . S
H1827 C1836 0.950 1_554 S
H1828 C1838 0.950 . S
H1829 C1840 0.950 . S
H1830 C1842 0.950 . S
H1831 C1843 0.950 . S
C1832 H1824 0.950 . S
C1832 C1833 1.386 . S
C1832 C1834 1.391 . S
C1833 C1832 1.386 . S
C1833 C1837 1.393 . S
C1834 H1826 0.950 . S
C1834 C1832 1.391 . S
C1834 C1835 1.400 . S
C1835 C1834 1.400 . S
C1835 C1836 1.398 . S
C1835 C1841 1.491 . S
C1836 H1827 0.950 1_556 S
C1836 C1835 1.398 . S
C1836 C1837 1.391 . S
C1837 H1825 0.959 . S
C1837 C1833 1.393 . S
C1837 C1836 1.391 . S
C1838 H1828 0.950 . S
C1838 C1839 1.386 1_554 S
C1838 C1840 1.391 . S
C1839 C1838 1.386 1_556 S
C1839 C1843 1.393 . S
C1840 H1829 0.950 . S
C1840 C1838 1.391 . S
C1840 C1841 1.400 1_554 S
C1841 C1835 1.491 . S
C1841 C1840 1.400 1_556 S
C1841 C1842 1.398 . S
C1842 H1830 0.950 . S
C1842 C1841 1.398 . S
C1842 C1843 1.391 . S
C1843 H1831 0.950 . S
C1843 C1839 1.393 . S
C1843 C1842 1.391 . S
H1844 C1852 0.950 . S
H1845 C1857 0.950 . S
H1846 C1854 0.950 . S
H1847 C1856 0.950 . S
H1848 C1858 0.950 . S
H1849 C1860 0.950 . S
H1850 C1862 0.950 . S
H1851 C1863 0.950 . S
C1852 H1844 0.950 . S
C1852 C1853 1.386 . S
C1852 C1854 1.391 . S
C1853 C1852 1.386 . S
C1853 C1857 1.393 . S
C1854 H1846 0.950 . S
C1854 C1852 1.391 . S
C1854 C1855 1.400 . S
C1855 C1854 1.400 . S
C1855 C1856 1.398 . S
C1855 C1861 1.491 . S
C1856 H1847 0.950 . S
C1856 C1855 1.398 . S
C1856 C1857 1.391 . S
C1857 H1845 0.950 . S
C1857 C1853 1.393 . S
C1857 C1856 1.391 . S
C1858 H1848 0.950 . S
C1858 C1859 1.386 . S
C1858 C1860 1.391 . S
C1859 C1858 1.386 . S
C1859 C1863 1.393 . S
C1860 H1849 0.950 . S
C1860 C1858 1.391 . S
C1860 C1861 1.400 . S
C1861 C1855 1.491 . S
C1861 C1860 1.400 . S
C1861 C1862 1.398 . S
C1862 H1850 0.950 . S
C1862 C1861 1.398 . S
C1862 C1863 1.391 . S
C1863 H1851 0.950 . S
C1863 C1859 1.393 . S
C1863 C1862 1.391 . S
H1864 C1872 0.950 . S
H1865 C1877 0.950 . S
H1866 C1874 0.950 . S
H1867 C1876 0.950 . S
H1868 C1878 0.950 . S
H1869 C1880 0.950 . S
H1870 C1882 0.950 . S
H1871 C1883 0.950 . S
C1872 H1864 0.950 . S
C1872 C1873 1.386 . S
C1872 C1874 1.391 . S
C1873 C1872 1.386 . S
C1873 C1877 1.393 . S
C1874 H1866 0.950 . S
C1874 C1872 1.391 . S
C1874 C1875 1.400 . S
C1875 C1874 1.400 . S
C1875 C1876 1.398 . S
C1875 C1881 1.491 . S
C1876 H1867 0.950 . S
C1876 C1875 1.398 . S
C1876 C1877 1.391 . S
C1877 H1865 0.950 . S
C1877 C1873 1.393 . S
C1877 C1876 1.391 . S
C1878 H1868 0.950 . S
C1878 C1879 1.386 . S
C1878 C1880 1.391 . S
C1879 C1878 1.386 . S
C1879 C1883 1.393 . S
C1880 H1869 0.950 . S
C1880 C1878 1.391 . S
C1880 C1881 1.400 . S
C1881 C1875 1.491 . S
C1881 C1880 1.400 . S
C1881 C1882 1.398 . S
C1882 H1870 0.950 . S
C1882 C1881 1.398 . S
C1882 C1883 1.391 . S
C1883 H1871 0.950 . S
C1883 C1879 1.393 . S
C1883 C1882 1.391 . S
H1884 C1892 0.950 . S
H1885 C1897 0.950 . S
H1886 C1894 0.950 . S
H1887 C1896 0.950 . S
H1888 C1898 0.950 . S
H1889 C1900 0.950 . S
H1890 C1902 0.950 1_556 S
H1891 C1903 0.950 1_556 S
C1892 H1884 0.950 . S
C1892 C1893 1.386 . S
C1892 C1894 1.391 . S
C1893 C1892 1.386 . S
C1893 C1897 1.393 . S
C1894 H1886 0.950 . S
C1894 C1892 1.391 . S
C1894 C1895 1.400 . S
C1895 C1894 1.400 . S
C1895 C1896 1.398 . S
C1895 C1901 1.491 . S
C1896 H1887 0.950 . S
C1896 C1895 1.398 . S
C1896 C1897 1.391 . S
C1897 H1885 0.950 . S
C1897 C1893 1.393 . S
C1897 C1896 1.391 . S
C1898 H1888 0.950 . S
C1898 C1899 1.386 . S
C1898 C1900 1.391 . S
C1899 C1898 1.386 . S
C1899 C1903 1.393 . S
C1900 H1889 0.950 . S
C1900 C1898 1.391 . S
C1900 C1901 1.400 . S
C1901 C1895 1.491 . S
C1901 C1900 1.400 . S
C1901 C1902 1.398 . S
C1902 H1890 0.950 1_554 S
C1902 C1901 1.398 . S
C1902 C1903 1.391 . S
C1903 H1891 0.950 1_554 S
C1903 C1899 1.393 . S
C1903 C1902 1.391 . S
C959 C514 1.414 . S
C953 C177 1.372 . S
C979 C562 1.631 . S
C973 C209 1.672 . S
C993 C253 1.384 . S
C999 C598 1.333 . S
C1019 C634 1.589 . S
C1013 C157 1.580 . S
C1039 C660 1.480 . S
C1033 C343 1.478 . S
C1059 C696 1.563 . S
C1053 C401 1.521 . S
C1073 C369 1.506 . S
C1079 C731 1.516 . S
C1099 C768 1.596 1_565 S
C1093 C317 1.586 . S
C1113 C375 1.455 . S
C1119 C802 1.453 . S
C1139 C850 1.582 . S
C1133 C305 1.622 . S
C1153 C349 1.467 . S
C1159 C803 1.467 . S
C1179 C840 1.613 . S
C1173 C413 1.574 . S
C1193 C241 1.441 . S
C1199 C886 1.392 . S
C1213 C151 1.562 . S
C1219 C875 1.587 . S
C1233 C189 1.408 . S
C1239 C876 1.488 . S
C1253 C215 1.621 . S
C1259 C874 1.631 1_655 S
C1273 C113 1.445 . S
C1279 C622 1.421 . S
C1293 C471 1.383 . S
C1299 C623 1.436 . S
C1319 C526 1.612 . S
C1313 C509 1.631 . S
C1339 C551 1.465 . S
C1333 C279 1.463 . S
C1353 C145 1.541 . S
C1359 C658 1.577 . S
C1379 C766 1.516 . S
C1373 C381 1.518 . S
C1399 C659 1.600 . S
C1393 C311 1.583 . S
C1419 C732 1.601 . S
C1413 C407 1.569 . S
C1439 C730 1.417 . S
C1433 C465 1.372 . S
C1453 C497 1.674 . S
C1459 C778 1.635 . S
C1473 C285 1.383 . S
C1479 C670 1.334 . S
C1499 C706 1.581 . S
C1493 C445 1.589 . S
C1513 C119 1.482 . S
C1519 C588 1.476 . S
C1539 C624 1.568 . S
C1533 C17 1.538 . S
C1559 C515 1.513 . S
C1553 C49 1.504 . S
C1579 C552 1.605 . S
C1573 C93 1.577 . S
C1593 C55 1.455 . S
C1599 C838 1.454 . S
C1613 C81 1.617 . S
C1619 C814 1.577 1_455 S
C1633 C125 1.468 . S
C1639 C839 1.467 . S
C1653 C29 1.575 . S
C1659 C804 1.613 . S
C1679 C922 1.382 . S
C1673 C273 1.432 . S
C1699 C911 1.589 . S
C1693 C439 1.566 . S
C1719 C912 1.489 . S
C1713 C477 1.411 . S
C1733 C503 1.620 . S
C1739 C910 1.631 . S
C1753 C337 1.449 . S
C1759 C694 1.425 . S
C1779 C695 1.437 . S
C1773 C183 1.359 . S
C1799 C742 1.612 . S
C1793 C221 1.631 . S
C1819 C767 1.466 . S
C1813 C247 1.466 . S
C1833 C433 1.554 . S
C1839 C586 1.581 . S
C1859 C550 1.519 . S
C1853 C61 1.519 . S
C1873 C87 1.594 . S
C1879 C587 1.606 . S
C1899 C516 1.595 . S
C1893 C23 1.550 . S
