# Generated by pormake.
# Topology anh, (6,3)-cn, num edge types: 1
# Building blocks:
#     Node 0, Type 0, BuildingBlock: MIFKUJ_clean_sbu_0, # of connection points: 6
#     Node 1, Type 0, BuildingBlock: MIFKUJ_clean_sbu_0, # of connection points: 6
#     Node 2, Type 0, BuildingBlock: MIFKUJ_clean_sbu_0, # of connection points: 6
#     Node 3, Type 1, BuildingBlock: VETTIZ_charged_linker_0, # of connection points: 3
#     Node 4, Type 1, BuildingBlock: VETTIZ_charged_linker_0, # of connection points: 3
#     Node 5, Type 1, BuildingBlock: VETTIZ_charged_linker_0, # of connection points: 3
#     Node 6, Type 1, BuildingBlock: VETTIZ_charged_linker_0, # of connection points: 3
#     Node 7, Type 1, BuildingBlock: VETTIZ_charged_linker_0, # of connection points: 3
#     Node 8, Type 1, BuildingBlock: VETTIZ_charged_linker_0, # of connection points: 3
#     Edge 9, Type (0, 1), BuildingBlock: UVAHIK_clean_linker_0, # of connection points: 2
#     Edge 10, Type (0, 1), BuildingBlock: UVAHIK_clean_linker_0, # of connection points: 2
#     Edge 11, Type (0, 1), BuildingBlock: UVAHIK_clean_linker_0, # of connection points: 2
#     Edge 12, Type (0, 1), BuildingBlock: UVAHIK_clean_linker_0, # of connection points: 2
#     Edge 13, Type (0, 1), BuildingBlock: UVAHIK_clean_linker_0, # of connection points: 2
#     Edge 14, Type (0, 1), BuildingBlock: UVAHIK_clean_linker_0, # of connection points: 2
#     Edge 15, Type (0, 1), BuildingBlock: UVAHIK_clean_linker_0, # of connection points: 2
#     Edge 16, Type (0, 1), BuildingBlock: UVAHIK_clean_linker_0, # of connection points: 2
#     Edge 17, Type (0, 1), BuildingBlock: UVAHIK_clean_linker_0, # of connection points: 2
#     Edge 18, Type (0, 1), BuildingBlock: UVAHIK_clean_linker_0, # of connection points: 2
#     Edge 19, Type (0, 1), BuildingBlock: UVAHIK_clean_linker_0, # of connection points: 2
#     Edge 20, Type (0, 1), BuildingBlock: UVAHIK_clean_linker_0, # of connection points: 2
#     Edge 21, Type (0, 1), BuildingBlock: UVAHIK_clean_linker_0, # of connection points: 2
#     Edge 22, Type (0, 1), BuildingBlock: UVAHIK_clean_linker_0, # of connection points: 2
#     Edge 23, Type (0, 1), BuildingBlock: UVAHIK_clean_linker_0, # of connection points: 2
#     Edge 24, Type (0, 1), BuildingBlock: UVAHIK_clean_linker_0, # of connection points: 2
#     Edge 25, Type (0, 1), BuildingBlock: UVAHIK_clean_linker_0, # of connection points: 2
#     Edge 26, Type (0, 1), BuildingBlock: UVAHIK_clean_linker_0, # of connection points: 2
# Relax obj value: 0.139
# Max RMSD: 0.185
# Mean RMSD: 0.144
data_MOF--net-anh--node1-MIFKUJ_clean_sbu_0--node2-VETTIZ_charged_linker_0--edge1-UVAHIK_clean_linker_0
_symmetry_space_group_name_H-M    P1
_symmetry_Int_Tables_number       1
_symmetry_cell_setting            triclinic
loop_
_symmetry_equiv_pos_as_xyz
'x, y, z'
_cell_length_a     45.16933
_cell_length_b     45.034572
_cell_length_c     79.59535
_cell_angle_alpha  93.678697
_cell_angle_beta   90.801407
_cell_angle_gamma 120.02081
loop_
_atom_site_label
_atom_site_type_symbol
_atom_site_fract_x
_atom_site_fract_y
_atom_site_fract_z
_atom_type_partial_charge
Zn0 Zn 0.05216 0.55465 0.16406 0.0
Zn1 Zn 0.958 0.48247 0.16245 0.0
C2 C 0.10537 0.54643 0.17842 0.0
O3 O 0.10784 0.57179 0.18862 0.0
C4 C 0.92943 0.52796 0.16717 0.0
O5 O 0.95743 0.55028 0.1603 0.0
O6 O 0.08502 0.60469 0.16229 0.0
O7 O 0.02702 0.5394 0.14149 0.0
O8 O 0.9727 0.49797 0.13945 0.0
C9 C 0.10387 0.61152 0.14976 0.0
O10 O 0.10111 0.58602 0.13958 0.0
O11 O 0.08161 0.53292 0.16684 0.0
C12 C 0.92996 0.40875 0.16669 0.0
O13 O 0.95342 0.41823 0.17896 0.0
O14 O 0.92853 0.43142 0.15859 0.0
O15 O 0.99413 0.49381 0.18092 0.0
O16 O 0.02534 0.5501 0.18463 0.0
O17 O 0.92541 0.49867 0.16985 0.0
C18 C 0.99948 0.51982 0.13276 0.0
C19 C 0.0051 0.52148 0.19033 0.0
Zn20 Zn 0.54076 0.04954 0.49784 0.0
Zn21 Zn 0.54196 0.97706 0.49705 0.0
C22 C 0.61045 0.09942 0.506 0.0
O23 O 0.59542 0.10311 0.51934 0.0
C24 C 0.4769 0.91714 0.48716 0.0
O25 O 0.49585 0.91454 0.47542 0.0
O26 O 0.52896 0.08668 0.49612 0.0
O27 O 0.51322 0.01497 0.47866 0.0
O28 O 0.55229 1.00036 0.47527 0.0
C29 C 0.53627 0.1007 0.48224 0.0
O30 O 0.54893 0.08902 0.47053 0.0
O31 O 0.59236 0.07535 0.49465 0.0
C32 C 0.58887 0.95059 0.50254 0.0
O33 O 0.60614 0.97744 0.51344 0.0
O34 O 0.5622 0.94642 0.49471 0.0
O35 O 0.55929 0.00446 0.51981 0.0
O36 O 0.53141 0.03323 0.52094 0.0
O37 O 0.49053 0.94334 0.49784 0.0
C38 C 0.52973 0.00587 0.46898 0.0
C39 C 0.54689 0.02024 0.52828 0.0
Zn40 Zn 0.55577 0.52463 0.8324 0.0
Zn41 Zn 0.48111 0.5198 0.82807 0.0
C42 C 0.54453 0.46031 0.84292 0.0
O43 O 0.56176 0.48107 0.85625 0.0
C44 C 0.49535 0.58484 0.81765 0.0
O45 O 0.47468 0.56383 0.80514 0.0
O46 O 0.60685 0.54525 0.83332 0.0
O47 O 0.54645 0.54023 0.81084 0.0
O48 O 0.49236 0.50042 0.80723 0.0
C49 C 0.61871 0.53444 0.82156 0.0
O50 O 0.59733 0.51087 0.81002 0.0
O51 O 0.53691 0.47264 0.83069 0.0
C52 C 0.40648 0.48129 0.83152 0.0
O53 O 0.41209 0.4618 0.84115 0.0
O54 O 0.43147 0.5056 0.82483 0.0
O55 O 0.48707 0.50493 0.85062 0.0
O56 O 0.54305 0.53896 0.85438 0.0
O57 O 0.50459 0.57231 0.82916 0.0
C58 C 0.52102 0.5193 0.80111 0.0
C59 C 0.51378 0.52168 0.86038 0.0
C60 C 0.58209 0.11361 0.18985 0.0
C61 C 0.61152 0.13927 0.19909 0.0
C62 C 0.61172 0.14236 0.2168 0.0
C63 C 0.55436 0.09331 0.21594 0.0
C64 C 0.55371 0.09118 0.19852 0.0
C65 C 0.52002 0.06276 0.19074 0.0
H66 H 0.36866 0.92012 0.20069 0.0
C67 C 0.52151 0.06531 0.22107 0.0
C68 C 0.50101 0.04764 0.20639 0.0
H69 H 0.40985 0.96553 0.15428 0.0
H70 H 0.45805 0.0139 0.17001 0.0
H71 H 0.43951 0.93581 0.21871 0.0
H72 H 0.38336 0.98982 0.2209 0.0
H73 H 0.4026 0.99623 0.24114 0.0
H74 H 0.37161 0.95316 0.23265 0.0
H75 H 0.39889 0.91978 0.22807 0.0
H76 H 0.43835 0.94823 0.23999 0.0
C77 C 0.52694 0.03703 0.18013 0.0
C78 C 0.50294 0.07896 0.18057 0.0
C79 C 0.50673 0.04067 0.28264 0.0
C80 C 0.47996 0.01519 0.29116 0.0
C81 C 0.44908 0.99162 0.2821 0.0
C82 C 0.44533 0.99273 0.26469 0.0
C83 C 0.47278 0.01765 0.25624 0.0
C84 C 0.50255 0.0415 0.26527 0.0
C85 C 0.52868 0.06665 0.25429 0.0
C86 C 0.50988 0.05352 0.2371 0.0
C87 C 0.47737 0.02462 0.23831 0.0
C88 C 0.56082 0.06273 0.25546 0.0
C89 C 0.53531 0.10319 0.25994 0.0
C90 C 0.38812 0.9406 0.19397 0.0
C91 C 0.38606 0.93906 0.17631 0.0
C92 C 0.41123 0.96634 0.16791 0.0
C93 C 0.43917 0.99418 0.17705 0.0
C94 C 0.44172 0.99459 0.19472 0.0
C95 C 0.41593 0.96856 0.2029 0.0
C96 C 0.42225 0.97368 0.22172 0.0
C97 C 0.45652 0.00678 0.2235 0.0
C98 C 0.46805 0.01858 0.20765 0.0
C99 C 0.42473 0.94279 0.22758 0.0
C100 C 0.39346 0.97825 0.22964 0.0
H101 H 0.58514 0.12287 0.23878 0.0
H102 H 0.58116 0.11121 0.1762 0.0
H103 H 0.51138 0.10572 0.18573 0.0
H104 H 0.47476 0.06508 0.18125 0.0
H105 H 0.5095 0.07999 0.16714 0.0
H106 H 0.54502 0.03173 0.18718 0.0
H107 H 0.53855 0.0476 0.16814 0.0
H108 H 0.5038 0.01175 0.1771 0.0
H109 H 0.53051 0.05954 0.28936 0.0
H110 H 0.42813 0.97175 0.28843 0.0
H111 H 0.42143 0.97376 0.25844 0.0
H112 H 0.5533 0.03507 0.25496 0.0
H113 H 0.57599 0.07545 0.2675 0.0
H114 H 0.57775 0.07314 0.24495 0.0
H115 H 0.51275 0.10212 0.26596 0.0
H116 H 0.53957 0.11908 0.2492 0.0
H117 H 0.55752 0.11691 0.26921 0.0
H118 H 0.63424 0.16205 0.22412 0.0
C119 C 0.58329 0.11951 0.22528 0.0
C120 C 0.59871 0.62582 0.52419 0.0
C121 C 0.59932 0.65337 0.53386 0.0
C122 C 0.59793 0.65274 0.5515 0.0
C123 C 0.59394 0.59705 0.54965 0.0
C124 C 0.59577 0.59783 0.53234 0.0
C125 C 0.59279 0.56538 0.52403 0.0
H126 H 0.57693 0.40928 0.53223 0.0
C127 C 0.58975 0.56399 0.55416 0.0
C128 C 0.58902 0.54522 0.53923 0.0
H129 H 0.58143 0.45658 0.48612 0.0
H130 H 0.5858 0.50645 0.50216 0.0
H131 H 0.63409 0.47891 0.55508 0.0
H132 H 0.52433 0.42558 0.54799 0.0
H133 H 0.53372 0.44259 0.56908 0.0
H134 H 0.54553 0.4113 0.5618 0.0
H135 H 0.60638 0.43698 0.56202 0.0
H136 H 0.61676 0.47547 0.57504 0.0
C137 C 0.62643 0.57512 0.51523 0.0
C138 C 0.56021 0.54751 0.51202 0.0
C139 C 0.57818 0.53682 0.61541 0.0
C140 C 0.57231 0.50766 0.62348 0.0
C141 C 0.57007 0.4792 0.61384 0.0
C142 C 0.57365 0.47981 0.59638 0.0
C143 C 0.57919 0.50907 0.58845 0.0
C144 C 0.58131 0.53688 0.59797 0.0
C145 C 0.58601 0.56524 0.58739 0.0
C146 C 0.58636 0.54987 0.56992 0.0
C147 C 0.58257 0.51713 0.57063 0.0
C148 C 0.62097 0.59755 0.5929 0.0
C149 C 0.55462 0.5703 0.58928 0.0
C150 C 0.57934 0.43066 0.52565 0.0
C151 C 0.57945 0.42957 0.508 0.0
C152 C 0.58153 0.45722 0.49975 0.0
C153 C 0.58409 0.48602 0.50908 0.0
C154 C 0.58399 0.48677 0.52679 0.0
C155 C 0.58128 0.45917 0.53474 0.0
C156 C 0.57941 0.46324 0.5535 0.0
C157 C 0.58226 0.49825 0.55561 0.0
C158 C 0.58522 0.51208 0.53997 0.0
C159 C 0.6106 0.46349 0.56199 0.0
C160 C 0.54411 0.43416 0.55849 0.0
H161 H 0.5942 0.62587 0.57289 0.0
H162 H 0.59938 0.62556 0.51059 0.0
H163 H 0.53996 0.55246 0.51688 0.0
H164 H 0.54816 0.51918 0.51088 0.0
H165 H 0.56589 0.55705 0.49927 0.0
H166 H 0.64897 0.59434 0.52343 0.0
H167 H 0.6271 0.58663 0.50321 0.0
H168 H 0.6305 0.55311 0.51264 0.0
H169 H 0.57943 0.55885 0.62247 0.0
H170 H 0.56573 0.45654 0.61985 0.0
H171 H 0.57179 0.45741 0.58972 0.0
H172 H 0.64034 0.59022 0.59623 0.0
H173 H 0.61872 0.61208 0.60415 0.0
H174 H 0.63221 0.61507 0.58279 0.0
H175 H 0.53113 0.54564 0.59143 0.0
H176 H 0.54796 0.57871 0.5778 0.0
H177 H 0.55883 0.58901 0.60013 0.0
H178 H 0.5987 0.67391 0.55917 0.0
C179 C 0.59537 0.62484 0.55944 0.0
C180 C 0.11619 0.5553 0.85492 0.0
C181 C 0.13944 0.54989 0.86437 0.0
C182 C 0.13802 0.55031 0.88204 0.0
C183 C 0.0911 0.56151 0.88077 0.0
C184 C 0.09243 0.56139 0.86343 0.0
C185 C 0.06619 0.56853 0.85566 0.0
H186 H 0.93887 0.60528 0.86764 0.0
C187 C 0.0637 0.56831 0.88583 0.0
C188 C 0.04906 0.57281 0.87124 0.0
H189 H 0.97705 0.5913 0.8201 0.0
H190 H 0.01792 0.58064 0.83486 0.0
H191 H 0.93357 0.54195 0.88177 0.0
H192 H 0.01263 0.64816 0.88937 0.0
H193 H 0.00452 0.63103 0.90916 0.0
H194 H 0.97061 0.63149 0.89721 0.0
H195 H 0.92977 0.57159 0.89648 0.0
H196 H 0.94988 0.54761 0.90257 0.0
C197 C 0.04115 0.53676 0.8438 0.0
C198 C 0.08535 0.60226 0.8468 0.0
C199 C 0.03611 0.56677 0.94744 0.0
C200 C 0.01123 0.57077 0.95606 0.0
C201 C 0.98904 0.57825 0.94702 0.0
C202 C 0.99154 0.58156 0.92963 0.0
C203 C 0.01631 0.57707 0.92115 0.0
C204 C 0.03807 0.56987 0.93008 0.0
C205 C 0.06231 0.56518 0.919 0.0
C206 C 0.05122 0.57034 0.90187 0.0
C207 C 0.02447 0.57744 0.90322 0.0
C208 C 0.05525 0.52792 0.92004 0.0
C209 C 0.09935 0.59381 0.92466 0.0
C210 C 0.95659 0.60075 0.86041 0.0
C211 C 0.95543 0.59991 0.84276 0.0
C212 C 0.97786 0.59243 0.83375 0.0
C213 C 1.00144 0.58622 0.84233 0.0
C214 C 1.00208 0.58698 0.86006 0.0
C215 C 0.97966 0.59397 0.86872 0.0
C216 C 0.98192 0.59152 0.88734 0.0
C217 C 0.01006 0.58277 0.8886 0.0
C218 C 0.02205 0.58028 0.87265 0.0
C219 C 0.94704 0.56187 0.89245 0.0
C220 C 0.99277 0.62726 0.89638 0.0
H221 H 0.11442 0.55592 0.90371 0.0
H222 H 0.11682 0.55524 0.84132 0.0
H223 H 0.10825 0.62182 0.85468 0.0
H224 H 0.06974 0.6144 0.84478 0.0
H225 H 0.09422 0.59771 0.83447 0.0
H226 H 0.03599 0.51254 0.84921 0.0
H227 H 0.05194 0.5373 0.83129 0.0
H228 H 0.01579 0.53445 0.842 0.0
H229 H 0.05322 0.56052 0.954 0.0
H230 H 0.96986 0.58172 0.95344 0.0
H231 H 0.97396 0.58733 0.92347 0.0
H232 H 0.0274 0.50965 0.92092 0.0
H233 H 0.06876 0.52605 0.93133 0.0
H234 H 0.06241 0.51794 0.90873 0.0
H235 H 0.09992 0.61742 0.93023 0.0
H236 H 0.11643 0.60263 0.91403 0.0
H237 H 0.11072 0.58521 0.93433 0.0
H238 H 0.15526 0.54565 0.88956 0.0
C239 C 0.1141 0.55609 0.89026 0.0
C240 C 0.94996 0.42748 0.47604 0.0
C241 C 0.91924 0.40093 0.46778 0.0
C242 C 0.91413 0.40069 0.4503 0.0
C243 C 0.9686 0.45306 0.44939 0.0
C244 C 0.97425 0.4536 0.46656 0.0
C245 C 0.00792 0.48503 0.47291 0.0
H246 H 0.14721 0.63646 0.45384 0.0
C247 C 0.99763 0.4837 0.44307 0.0
C248 C 0.02101 0.50302 0.45673 0.0
H249 H 0.12694 0.59584 0.50266 0.0
H250 H 0.07472 0.54495 0.49074 0.0
H251 H 0.13136 0.56848 0.4343 0.0
H252 H 0.0708 0.61653 0.44299 0.0
H253 H 0.06314 0.60067 0.42169 0.0
H254 H 0.10598 0.63235 0.42938 0.0
H255 H 0.13587 0.60285 0.42239 0.0
H256 H 0.10568 0.55836 0.41575 0.0
C257 C 0.03157 0.47277 0.48004 0.0
C258 C 1.00029 0.50686 0.48595 0.0
C259 C 0.99682 0.50115 0.38059 0.0
C260 C 0.0199 0.52688 0.3707 0.0
C261 C 0.0499 0.5549 0.37863 0.0
C262 C 0.05676 0.55726 0.39603 0.0
C263 C 0.03351 0.53128 0.40572 0.0
C264 C 0.0042 0.50382 0.39796 0.0
C265 C 0.98259 0.47851 0.4102 0.0
C266 C 0.00396 0.49518 0.4266 0.0
C267 C 0.03356 0.52605 0.42388 0.0
C268 C 0.98025 0.44362 0.40486 0.0
C269 C 0.94765 0.47737 0.41045 0.0
C270 C 0.13134 0.61691 0.46208 0.0
C271 C 0.14081 0.62052 0.47925 0.0
C272 C 0.12 0.59377 0.48938 0.0
C273 C 0.08971 0.56436 0.48245 0.0
C274 C 0.08042 0.56151 0.46518 0.0
C275 C 0.10162 0.58756 0.45538 0.0
C276 C 0.08953 0.58035 0.43721 0.0
C277 C 0.05705 0.54599 0.43756 0.0
C278 C 0.05127 0.53471 0.45395 0.0
C279 C 0.11694 0.57755 0.42675 0.0
C280 C 0.08211 0.60894 0.43239 0.0
H281 H 0.93265 0.4244 0.42787 0.0
H282 H 0.95448 0.42829 0.4895 0.0
H283 H 0.97874 0.50983 0.48115 0.0
H284 H 0.02216 0.53314 0.48865 0.0
H285 H 0.99296 0.4944 0.49799 0.0
H286 H 0.03053 0.4517 0.47149 0.0
H287 H 0.02359 0.46279 0.49259 0.0
H288 H 0.0587 0.49326 0.4812 0.0
H289 H 0.97333 0.47945 0.37499 0.0
H290 H 0.06845 0.57483 0.37134 0.0
H291 H 0.08004 0.57925 0.40122 0.0
H292 H 0.00463 0.44768 0.39965 0.0
H293 H 0.95949 0.42855 0.39497 0.0
H294 H 0.97634 0.42769 0.41551 0.0
H295 H 0.95029 0.5023 0.40733 0.0
H296 H 0.9369 0.47338 0.42305 0.0
H297 H 0.92863 0.45707 0.40113 0.0
H298 H 0.89095 0.38038 0.44367 0.0
C299 C 0.93849 0.42635 0.44111 0.0
C300 C 0.53642 0.94482 0.81467 0.0
C301 C 0.54038 0.91848 0.80628 0.0
C302 C 0.54463 0.91866 0.78882 0.0
C303 C 0.54163 0.97068 0.78814 0.0
C304 C 0.53758 0.97104 0.80533 0.0
C305 C 0.53552 1.00233 0.81187 0.0
H306 H 0.54567 0.15375 0.79344 0.0
C307 C 0.54237 1.00119 0.78196 0.0
C308 C 0.53922 0.02042 0.79577 0.0
H309 H 0.52913 0.11328 0.84226 0.0
H310 H 0.52947 0.06218 0.83012 0.0
H311 H 0.60102 0.13489 0.7823 0.0
H312 H 0.49196 0.08505 0.77402 0.0
H313 H 0.5067 0.07617 0.75519 0.0
H314 H 0.52066 0.12025 0.76241 0.0
H315 H 0.58052 0.14927 0.7681 0.0
H316 H 0.59214 0.11767 0.76123 0.0
C317 C 0.56576 0.02415 0.82483 0.0
C318 C 0.50012 0.98989 0.81919 0.0
C319 C 0.55194 0.01736 0.71915 0.0
C320 C 0.5538 0.04333 0.70952 0.0
C321 C 0.5544 0.07223 0.71786 0.0
C322 C 0.55248 0.07493 0.73536 0.0
C323 C 0.55002 0.04851 0.74478 0.0
C324 C 0.55012 0.02053 0.73669 0.0
C325 C 0.54805 0.99537 0.74882 0.0
C326 C 0.54579 0.01252 0.76548 0.0
C327 C 0.54691 0.04349 0.76298 0.0
C328 C 0.58158 0.99373 0.74814 0.0
C329 C 0.51482 0.9606 0.74409 0.0
C330 C 0.54249 0.13412 0.80162 0.0
C331 C 0.53808 0.13784 0.81884 0.0
C332 C 0.53288 0.11109 0.82893 0.0
C333 C 0.53322 0.08159 0.82187 0.0
C334 C 0.5384 0.07873 0.80454 0.0
C335 C 0.54239 0.10476 0.79481 0.0
C336 C 0.54604 0.09767 0.77659 0.0
C337 C 0.5444 0.06339 0.7768 0.0
C338 C 0.54018 0.05205 0.79316 0.0
C339 C 0.58159 0.12635 0.77163 0.0
C340 C 0.515 0.09483 0.7664 0.0
H341 H 0.5483 0.94262 0.76649 0.0
H342 H 0.53316 0.94529 0.82812 0.0
H343 H 0.47961 0.96898 0.81061 0.0
H344 H 0.49352 0.01038 0.82059 0.0
H345 H 0.49897 0.97966 0.83165 0.0
H346 H 0.59 0.02736 0.81985 0.0
H347 H 0.56156 0.01153 0.8368 0.0
H348 H 0.57007 0.05032 0.82768 0.0
H349 H 0.55131 0.99474 0.71318 0.0
H350 H 0.55659 0.093 0.71083 0.0
H351 H 0.55297 0.09756 0.74084 0.0
H352 H 0.60297 0.01744 0.7435 0.0
H353 H 0.57809 0.9716 0.7396 0.0
H354 H 0.59118 0.9922 0.76074 0.0
H355 H 0.49341 0.96487 0.74052 0.0
H356 H 0.50562 0.94392 0.75462 0.0
H357 H 0.51839 0.94623 0.73319 0.0
H358 H 0.54726 0.89848 0.78207 0.0
C359 C 0.54515 0.94437 0.77975 0.0
C360 C 0.59742 0.53678 0.14789 0.0
C361 C 0.62739 0.54299 0.13987 0.0
C362 C 0.6282 0.54423 0.12227 0.0
C363 C 0.57003 0.53323 0.12072 0.0
C364 C 0.56913 0.53239 0.13805 0.0
C365 C 0.5356 0.52743 0.14426 0.0
H366 H 0.37829 0.50595 0.12485 0.0
C367 C 0.53698 0.52798 0.11407 0.0
C368 C 0.51656 0.5248 0.12776 0.0
H369 H 0.42263 0.51369 0.17455 0.0
H370 H 0.47394 0.51951 0.16221 0.0
H371 H 0.44365 0.56529 0.11088 0.0
H372 H 0.40249 0.4558 0.10729 0.0
H373 H 0.4175 0.46973 0.08745 0.0
H374 H 0.38378 0.47583 0.09574 0.0
H375 H 0.40713 0.53634 0.09721 0.0
H376 H 0.45022 0.55391 0.09035 0.0
C377 C 0.54322 0.55971 0.1558 0.0
C378 C 0.51779 0.49354 0.15303 0.0
C379 C 0.51572 0.52189 0.05075 0.0
C380 C 0.48786 0.5176 0.04064 0.0
C381 C 0.45855 0.51399 0.04846 0.0
C382 C 0.45695 0.51445 0.06604 0.0
C383 C 0.48501 0.51871 0.07598 0.0
C384 C 0.51377 0.52245 0.06829 0.0
C385 C 0.54138 0.5274 0.08082 0.0
C386 C 0.52428 0.52559 0.09732 0.0
C387 C 0.49133 0.52043 0.0944 0.0
C388 C 0.57312 0.56348 0.07922 0.0
C389 C 0.54794 0.49693 0.07748 0.0
C390 C 0.39876 0.50835 0.13313 0.0
C391 C 0.39618 0.50902 0.1507 0.0
C392 C 0.42398 0.51321 0.16096 0.0
C393 C 0.45371 0.51654 0.15378 0.0
C394 C 0.45583 0.516 0.13614 0.0
C395 C 0.42847 0.51187 0.12619 0.0
C396 C 0.43487 0.51231 0.10776 0.0
C397 C 0.47069 0.51758 0.10815 0.0
C398 C 0.48306 0.51968 0.12477 0.0
C399 C 0.43373 0.54334 0.10104 0.0
C400 C 0.40826 0.47676 0.09895 0.0
H401 H 0.60215 0.54039 0.09932 0.0
H402 H 0.59633 0.53601 0.16145 0.0
H403 H 0.51979 0.47291 0.14558 0.0
H404 H 0.49014 0.48353 0.15417 0.0
H405 H 0.52988 0.49695 0.16579 0.0
H406 H 0.56395 0.58343 0.15082 0.0
H407 H 0.55166 0.5583 0.16875 0.0
H408 H 0.52112 0.56379 0.15649 0.0
H409 H 0.53883 0.5253 0.04515 0.0
H410 H 0.43664 0.51038 0.04094 0.0
H411 H 0.43388 0.51146 0.07119 0.0
H412 H 0.56571 0.58153 0.07426 0.0
H413 H 0.59142 0.56198 0.07052 0.0
H414 H 0.58669 0.57626 0.09153 0.0
H415 H 0.52342 0.47245 0.07437 0.0
H416 H 0.5595 0.49219 0.08855 0.0
H417 H 0.56456 0.50105 0.0667 0.0
H418 H 0.65094 0.54874 0.11587 0.0
C419 C 0.59976 0.53927 0.11267 0.0
C420 C 0.13164 0.51164 0.16755 0.0
C421 C 0.13225 0.53672 0.17925 0.0
C422 C 0.15886 0.5051 0.16737 0.0
C423 C 0.25097 0.54797 0.1789 0.0
H424 H 0.23874 0.45685 0.16958 0.0
C425 C 0.36738 0.52881 0.17183 0.0
C426 C 0.36492 0.50655 0.15798 0.0
C427 C 0.33828 0.52954 0.17713 0.0
C428 C 0.24262 0.4825 0.17211 0.0
H429 H 0.16135 0.57354 0.20041 0.0
H430 H 0.20862 0.56203 0.2001 0.0
H431 H 0.18877 0.46347 0.17355 0.0
H432 H 0.32955 0.46595 0.1396 0.0
H433 H 0.27922 0.46776 0.14851 0.0
H434 H 0.30459 0.5672 0.17695 0.0
C435 C 0.18733 0.54774 0.19092 0.0
C436 C 0.21396 0.48627 0.17438 0.0
C437 C 0.1601 0.55419 0.19115 0.0
C438 C 0.33244 0.4838 0.15015 0.0
C439 C 0.30344 0.48456 0.15541 0.0
C440 C 0.27959 0.54423 0.17655 0.0
C441 C 0.18734 0.52357 0.17885 0.0
C442 C 0.21777 0.5191 0.1776 0.0
C443 C 0.30606 0.50799 0.16871 0.0
C444 C 0.27579 0.51149 0.17288 0.0
H445 H 0.1106 0.49772 0.15821 0.0
H446 H 0.15818 0.4865 0.15781 0.0
H447 H 0.25482 0.57368 0.18112 0.0
H448 H 0.39201 0.54673 0.17811 0.0
H449 H 0.34117 0.54752 0.1876 0.0
C450 C 0.66629 0.15086 0.51667 0.0
C451 C 0.64651 0.126 0.50344 0.0
C452 C 0.69856 0.17871 0.51393 0.0
C453 C 0.74694 0.23094 0.47978 0.0
H454 H 0.82298 0.27249 0.51321 0.0
C455 C 0.858 0.36767 0.47472 0.0
C456 C 0.89141 0.37328 0.47673 0.0
C457 C 0.82998 0.33749 0.47947 0.0
C458 C 0.80207 0.26111 0.50371 0.0
H459 H 0.646 0.11027 0.47708 0.0
H460 H 0.70248 0.15884 0.4723 0.0
H461 H 0.77171 0.21779 0.5179 0.0
H462 H 0.9219 0.35252 0.48612 0.0
H463 H 0.87265 0.29944 0.49463 0.0
H464 H 0.77704 0.27401 0.46559 0.0
C465 C 0.69278 0.15695 0.48478 0.0
C466 C 0.77257 0.22986 0.50644 0.0
C467 C 0.66049 0.12892 0.48755 0.0
C468 C 0.89643 0.349 0.48462 0.0
C469 C 0.86821 0.31856 0.48939 0.0
C470 C 0.77623 0.26215 0.47712 0.0
C471 C 0.71194 0.18261 0.49786 0.0
C472 C 0.74447 0.2145 0.49455 0.0
C473 C 0.83454 0.31193 0.48629 0.0
C474 C 0.80403 0.27793 0.48913 0.0
H475 H 0.6564 0.14943 0.52909 0.0
H476 H 0.71233 0.19801 0.52427 0.0
H477 H 0.72578 0.22019 0.47043 0.0
H478 H 0.85342 0.38603 0.4687 0.0
H479 H 0.80455 0.33371 0.4773 0.0
C480 C 0.4919 0.63382 0.80647 0.0
C481 C 0.50399 0.62148 0.8191 0.0
C482 C 0.49692 0.66714 0.80825 0.0
C483 C 0.54942 0.75324 0.83076 0.0
H484 H 0.47434 0.76521 0.81561 0.0
C485 C 0.56669 0.88303 0.81292 0.0
C486 C 0.53987 0.89004 0.81501 0.0
C487 C 0.56327 0.85194 0.81732 0.0
C488 C 0.49544 0.76241 0.82018 0.0
H489 H 0.53176 0.63515 0.84341 0.0
H490 H 0.54074 0.69365 0.84649 0.0
H491 H 0.46656 0.70765 0.81521 0.0
H492 H 0.48923 0.8709 0.82426 0.0
H493 H 0.48321 0.81644 0.83222 0.0
H494 H 0.57839 0.80816 0.83558 0.0
C495 C 0.52732 0.67736 0.83517 0.0
C496 C 0.49113 0.72934 0.81971 0.0
C497 C 0.52217 0.64381 0.8334 0.0
C498 C 0.51039 0.86627 0.82266 0.0
C499 C 0.50684 0.83493 0.82699 0.0
C500 C 0.5538 0.78641 0.83118 0.0
C501 C 0.51424 0.68923 0.82272 0.0
C502 C 0.51825 0.72433 0.82466 0.0
C503 C 0.5328 0.82688 0.82385 0.0
C504 C 0.52704 0.79151 0.82559 0.0
H505 H 0.47795 0.61753 0.79523 0.0
H506 H 0.48716 0.6756 0.79823 0.0
H507 H 0.57088 0.75039 0.83466 0.0
H508 H 0.58964 0.90088 0.80697 0.0
H509 H 0.5837 0.84671 0.81457 0.0
C510 C 0.86928 0.5094 0.17501 0.0
C511 C 0.9009 0.53496 0.16967 0.0
C512 C 0.84109 0.51438 0.17539 0.0
C513 C 0.80797 0.56342 0.15475 0.0
H514 H 0.73818 0.52771 0.18757 0.0
C515 C 0.68989 0.5777 0.14752 0.0
C516 C 0.65822 0.54805 0.14933 0.0
C517 C 0.72028 0.57984 0.15329 0.0
C518 C 0.75737 0.53769 0.17827 0.0
H519 H 0.92813 0.58662 0.16149 0.0
H520 H 0.87914 0.59547 0.16235 0.0
H521 H 0.79044 0.52478 0.19163 0.0
H522 H 0.63314 0.49815 0.15934 0.0
H523 H 0.68642 0.50147 0.16923 0.0
H524 H 0.77488 0.57549 0.14112 0.0
C525 C 0.87594 0.57126 0.16593 0.0
C526 C 0.78733 0.53602 0.1806 0.0
C527 C 0.90411 0.56627 0.16553 0.0
C528 C 0.65728 0.5214 0.15796 0.0
C529 C 0.68782 0.52336 0.1636 0.0
C530 C 0.77814 0.56503 0.15242 0.0
C531 C 0.84384 0.54506 0.17045 0.0
C532 C 0.81291 0.54869 0.16879 0.0
C533 C 0.71977 0.55213 0.16077 0.0
C534 C 0.75232 0.55205 0.16408 0.0
H535 H 0.86589 0.48497 0.17833 0.0
H536 H 0.81675 0.49354 0.17882 0.0
H537 H 0.82668 0.57272 0.1452 0.0
H538 H 0.69119 0.59865 0.14097 0.0
H539 H 0.7443 0.60276 0.15129 0.0
C540 C 0.42102 0.88888 0.50176 0.0
C541 C 0.44125 0.88838 0.48857 0.0
C542 C 0.38823 0.86058 0.50344 0.0
C543 C 0.33486 0.76686 0.4906 0.0
H544 H 0.25834 0.77957 0.50143 0.0
C545 C 0.19875 0.64997 0.4948 0.0
C546 C 0.17283 0.65209 0.48595 0.0
C547 C 0.23118 0.67936 0.49826 0.0
C548 C 0.27944 0.77553 0.49842 0.0
H549 H 0.44234 0.85779 0.46664 0.0
H550 H 0.38551 0.80903 0.46946 0.0
H551 H 0.31553 0.82973 0.50054 0.0
H552 H 0.15982 0.68701 0.47481 0.0
H553 H 0.21593 0.73794 0.48077 0.0
H554 H 0.29872 0.71282 0.48787 0.0
C555 C 0.39507 0.83093 0.4787 0.0
C556 C 0.31232 0.80434 0.49805 0.0
C557 C 0.42766 0.85914 0.477 0.0
C558 C 0.17935 0.68452 0.48158 0.0
C559 C 0.21154 0.71382 0.4851 0.0
C560 C 0.30205 0.7381 0.49102 0.0
C561 C 0.37498 0.83105 0.49202 0.0
C562 C 0.34038 0.80042 0.4938 0.0
C563 C 0.23824 0.71154 0.49306 0.0
C564 C 0.27373 0.74202 0.49463 0.0
H565 H 0.43069 0.91092 0.51093 0.0
H566 H 0.37357 0.86154 0.51389 0.0
H567 H 0.35592 0.76278 0.48756 0.0
H568 H 0.19455 0.62533 0.49825 0.0
H569 H 0.25098 0.67672 0.50462 0.0
C570 C 0.52447 0.40304 0.82654 0.0
C571 C 0.53736 0.42415 0.8417 0.0
C572 C 0.52099 0.37021 0.82511 0.0
C573 C 0.51929 0.30179 0.85003 0.0
H574 H 0.5509 0.27796 0.80911 0.0
C575 C 0.51157 0.16892 0.83416 0.0
C576 C 0.53906 0.16991 0.82564 0.0
C577 C 0.50992 0.19911 0.83746 0.0
C578 C 0.54215 0.28425 0.82068 0.0
H579 H 0.55543 0.42657 0.86743 0.0
H580 H 0.54957 0.36971 0.8649 0.0
H581 H 0.54901 0.33106 0.81187 0.0
H582 H 0.58748 0.20351 0.81503 0.0
H583 H 0.58501 0.25589 0.82103 0.0
H584 H 0.51322 0.2551 0.85893 0.0
C585 C 0.5419 0.3783 0.85413 0.0
C586 C 0.5406 0.31455 0.82217 0.0
C587 C 0.54548 0.4111 0.85554 0.0
C588 C 0.56579 0.2019 0.82146 0.0
C589 C 0.5642 0.23188 0.82476 0.0
C590 C 0.52072 0.27129 0.84851 0.0
C591 C 0.53018 0.3576 0.83882 0.0
C592 C 0.52949 0.32398 0.83692 0.0
C593 C 0.53575 0.23079 0.8323 0.0
C594 C 0.53265 0.26238 0.8339 0.0
H595 H 0.51789 0.4122 0.81564 0.0
H596 H 0.5114 0.35481 0.81319 0.0
H597 H 0.51027 0.30802 0.86152 0.0
H598 H 0.49049 0.14459 0.83741 0.0
H599 H 0.48764 0.19733 0.84331 0.0
C600 C 0.58185 0.89704 0.48737 0.0
C601 C 0.598 0.92338 0.50043 0.0
C602 C 0.58674 0.86878 0.48656 0.0
C603 C 0.63801 0.83333 0.50441 0.0
H604 H 0.55125 0.74754 0.49948 0.0
C605 C 0.57618 0.69246 0.53005 0.0
C606 C 0.59995 0.68223 0.52574 0.0
C607 C 0.57759 0.72087 0.52331 0.0
C608 C 0.57571 0.77126 0.50074 0.0
H609 H 0.63369 0.94189 0.52225 0.0
H610 H 0.64167 0.89209 0.52107 0.0
H611 H 0.55313 0.80103 0.49425 0.0
H612 H 0.64343 0.69306 0.5108 0.0
H613 H 0.64622 0.74352 0.49904 0.0
H614 H 0.66012 0.80334 0.51177 0.0
C615 C 0.62554 0.89348 0.51132 0.0
C616 C 0.57689 0.8019 0.49759 0.0
C617 C 0.6208 0.92193 0.51207 0.0
C618 C 0.62479 0.70049 0.51425 0.0
C619 C 0.62649 0.72934 0.50763 0.0
C620 C 0.63683 0.80253 0.50751 0.0
C621 C 0.60771 0.86611 0.49885 0.0
C622 C 0.60787 0.83341 0.49982 0.0
C623 C 0.60296 0.73984 0.51219 0.0
C624 C 0.60545 0.77139 0.50619 0.0
H625 H 0.56452 0.89767 0.47804 0.0
H626 H 0.57318 0.84843 0.47661 0.0
H627 H 0.6623 0.85716 0.50607 0.0
H628 H 0.55663 0.67859 0.53879 0.0
H629 H 0.55938 0.72861 0.5272 0.0
C630 C 0.66811 0.53068 0.81014 0.0
C631 C 0.65589 0.54763 0.82091 0.0
C632 C 0.70313 0.54231 0.80988 0.0
C633 C 0.78295 0.59376 0.83642 0.0
H634 H 0.82561 0.58405 0.79607 0.0
C635 C 0.92307 0.63095 0.84008 0.0
C636 C 0.92869 0.60419 0.8342 0.0
C637 C 0.8929 0.63032 0.83537 0.0
C638 C 0.81401 0.58698 0.80741 0.0
H639 H 0.67086 0.59086 0.83939 0.0
H640 H 0.73205 0.61175 0.83865 0.0
H641 H 0.76615 0.57107 0.79418 0.0
H642 H 0.90877 0.55747 0.81766 0.0
H643 H 0.8558 0.55629 0.80937 0.0
H644 H 0.83049 0.60924 0.84968 0.0
C645 C 0.71455 0.58889 0.8307 0.0
C646 C 0.77993 0.5794 0.80637 0.0
C647 C 0.67948 0.57702 0.8311 0.0
C648 C 0.9051 0.57849 0.82228 0.0
C649 C 0.87478 0.57782 0.81757 0.0
C650 C 0.81697 0.60162 0.83742 0.0
C651 C 0.72681 0.5714 0.82027 0.0
C652 C 0.76382 0.58219 0.82093 0.0
C653 C 0.86773 0.60286 0.82472 0.0
C654 C 0.83277 0.5979 0.82298 0.0
H655 H 0.65056 0.5079 0.80215 0.0
H656 H 0.7115 0.52782 0.80189 0.0
H657 H 0.77131 0.59554 0.84796 0.0
H658 H 0.94111 0.65127 0.84914 0.0
H659 H 0.88844 0.65033 0.8408 0.0
C660 C 0.14936 0.65457 0.13276 0.0
C661 C 0.12926 0.64738 0.14689 0.0
C662 C 0.17496 0.68819 0.13057 0.0
C663 C 0.2091 0.77969 0.14598 0.0
H664 H 0.29723 0.78764 0.13808 0.0
C665 C 0.35407 0.87574 0.17011 0.0
C666 C 0.3586 0.90794 0.16685 0.0
C667 C 0.32642 0.84573 0.16255 0.0
C668 C 0.27272 0.78585 0.14007 0.0
H669 H 0.11916 0.66994 0.16941 0.0
H670 H 0.16425 0.7285 0.16576 0.0
H671 H 0.24556 0.73132 0.13463 0.0
H672 H 0.33887 0.9345 0.1528 0.0
H673 H 0.28957 0.88142 0.13966 0.0
H674 H 0.23675 0.83407 0.15249 0.0
C675 C 0.15995 0.70826 0.15624 0.0
C676 C 0.24309 0.75365 0.13798 0.0
C677 C 0.13433 0.67464 0.15843 0.0
C678 C 0.33575 0.90981 0.15543 0.0
C679 C 0.30765 0.8796 0.148 0.0
C680 C 0.2388 0.81196 0.14804 0.0
C681 C 0.18097 0.71529 0.14246 0.0
C682 C 0.21112 0.75005 0.14154 0.0
C683 C 0.30255 0.84729 0.15169 0.0
C684 C 0.27098 0.81507 0.14575 0.0
H685 H 0.14582 0.63415 0.12353 0.0
H686 H 0.19051 0.69289 0.11973 0.0
H687 H 0.18473 0.77772 0.14856 0.0
H688 H 0.37156 0.8738 0.17882 0.0
H689 H 0.32289 0.82122 0.16583 0.0
C690 C 0.54712 0.14998 0.46553 0.0
C691 C 0.53401 0.13179 0.47987 0.0
C692 C 0.54845 0.18132 0.46403 0.0
C693 C 0.51588 0.23726 0.48086 0.0
H694 H 0.60616 0.31194 0.47229 0.0
C695 C 0.59905 0.38738 0.50244 0.0
C696 C 0.57629 0.39886 0.49849 0.0
C697 C 0.59321 0.35554 0.49555 0.0
C698 C 0.58071 0.29128 0.47449 0.0
H699 H 0.5104 0.13133 0.50347 0.0
H700 H 0.51269 0.18612 0.50083 0.0
H701 H 0.59443 0.25269 0.46919 0.0
H702 H 0.53044 0.38712 0.48385 0.0
H703 H 0.51978 0.33076 0.47191 0.0
H704 H 0.50268 0.27608 0.48688 0.0
C705 C 0.52185 0.17604 0.49073 0.0
C706 C 0.57392 0.25738 0.47263 0.0
C707 C 0.52075 0.14479 0.4923 0.0
C708 C 0.54842 0.37877 0.48695 0.0
C709 C 0.54224 0.34657 0.48023 0.0
C710 C 0.52259 0.27117 0.48256 0.0
C711 C 0.53642 0.19498 0.47676 0.0
C712 C 0.54174 0.23013 0.47628 0.0
C713 C 0.56421 0.3344 0.48478 0.0
C714 C 0.55539 0.29854 0.47989 0.0
H715 H 0.55739 0.14058 0.45568 0.0
H716 H 0.55952 0.19525 0.45307 0.0
H717 H 0.49077 0.21669 0.4836 0.0
H718 H 0.62068 0.40253 0.51135 0.0
H719 H 0.61035 0.34666 0.49942 0.0
C720 C 0.34619 0.45701 0.84042 0.0
C721 C 0.37243 0.47845 0.83026 0.0
C722 C 0.31605 0.45851 0.84111 0.0
C723 C 0.26559 0.49307 0.82131 0.0
H724 H 0.24568 0.50606 0.86754 0.0
C725 C 0.15542 0.51776 0.84282 0.0
C726 C 0.16506 0.54323 0.85624 0.0
C727 C 0.17851 0.50747 0.83731 0.0
C728 C 0.25091 0.50246 0.85455 0.0
H729 H 0.38652 0.5163 0.81186 0.0
H730 H 0.33422 0.5191 0.81321 0.0
H731 H 0.28781 0.4887 0.86186 0.0
H732 H 0.20709 0.58002 0.87337 0.0
H733 H 0.24719 0.56214 0.8638 0.0
H734 H 0.22911 0.50796 0.81416 0.0
C735 C 0.33679 0.50105 0.8206 0.0
C736 C 0.27471 0.49205 0.85128 0.0
C737 C 0.36692 0.49963 0.81994 0.0
C738 C 0.19878 0.55984 0.86323 0.0
C739 C 0.22167 0.54955 0.8578 0.0
C740 C 0.24145 0.50327 0.8246 0.0
C741 C 0.31153 0.48138 0.83162 0.0
C742 C 0.28284 0.48787 0.83466 0.0
C743 C 0.21143 0.52249 0.8452 0.0
C744 C 0.23457 0.50887 0.84129 0.0
H745 H 0.34951 0.44021 0.84842 0.0
H746 H 0.29678 0.44267 0.84954 0.0
H747 H 0.27122 0.48985 0.80836 0.0
H748 H 0.12953 0.50452 0.83725 0.0
H749 H 0.17007 0.48662 0.82753 0.0
C750 C 0.89514 0.34946 0.17619 0.0
C751 C 0.90184 0.37275 0.16389 0.0
C752 C 0.86451 0.31791 0.17511 0.0
C753 C 0.77718 0.28557 0.15964 0.0
H754 H 0.76111 0.20032 0.17677 0.0
C755 C 0.65689 0.14911 0.17894 0.0
C756 C 0.64235 0.16251 0.19042 0.0
C757 C 0.68782 0.17108 0.1719 0.0
C758 C 0.76522 0.22377 0.17169 0.0
H759 H 0.88372 0.37979 0.13989 0.0
H760 H 0.83053 0.32472 0.13799 0.0
H761 H 0.81933 0.24392 0.17061 0.0
H762 H 0.64758 0.20902 0.2031 0.0
H763 H 0.70132 0.2475 0.1906 0.0
H764 H 0.72345 0.26618 0.16143 0.0
C765 C 0.84849 0.33112 0.14864 0.0
C766 C 0.79848 0.24874 0.16829 0.0
C767 C 0.87895 0.36263 0.14974 0.0
C768 C 0.65845 0.19817 0.19431 0.0
C769 C 0.68898 0.22011 0.18709 0.0
C770 C 0.74411 0.26081 0.16318 0.0
C771 C 0.84026 0.30917 0.16169 0.0
C772 C 0.80486 0.28023 0.16263 0.0
C773 C 0.70419 0.20673 0.17602 0.0
C774 C 0.738 0.23014 0.16968 0.0
H775 H 0.91238 0.3565 0.1872 0.0
H776 H 0.8588 0.30157 0.18541 0.0
H777 H 0.78128 0.30973 0.15549 0.0
H778 H 0.64493 0.12161 0.17586 0.0
H779 H 0.69909 0.16024 0.16337 0.0
C780 C 0.96785 0.50516 0.1045 0.0
C781 C 0.99873 0.52305 0.1144 0.0
C782 C 0.96741 0.50891 0.0872 0.0
C783 C 0.02334 0.53425 0.05146 0.0
H784 H 0.95565 0.55151 0.03087 0.0
C785 C 0.03757 0.58093 0.98521 0.0
C786 C 0.00812 0.56632 0.97434 0.0
C787 C 0.03497 0.57502 0.00225 0.0
C788 C 0.97445 0.54628 0.03639 0.0
H789 H 0.05333 0.5588 0.11381 0.0
H790 H 0.05248 0.56521 0.08379 0.0
H791 H 0.95332 0.54096 0.0607 0.0
H792 H 0.95281 0.53441 0.97277 0.0
H793 H 0.94822 0.52383 0.0026 0.0
H794 H 0.04451 0.53945 0.02727 0.0
C795 C 0.02868 0.54813 0.08936 0.0
C796 C 0.9731 0.54024 0.05345 0.0
C797 C 0.0291 0.54458 0.10661 0.0
C798 C 0.97591 0.54629 0.98092 0.0
C799 C 0.9733 0.54023 -0.00202 0.0
C800 C 0.02462 0.54013 0.03444 0.0
C801 C 0.99787 0.53036 0.07948 0.0
C802 C 0.99781 0.53461 0.06119 0.0
C803 C 1.00286 0.5542 0.00879 0.0
C804 C 1.00048 0.54667 0.02675 0.0
H805 H 0.94398 0.48842 0.1101 0.0
H806 H 0.94333 0.49475 0.07984 0.0
H807 H 0.04237 0.52937 0.05703 0.0
H808 H 0.06269 0.59694 0.98053 0.0
H809 H 0.05817 0.5868 0.01032 0.0
C810 C 0.54653 1.00083 0.43952 0.0
C811 C 0.5239 0.00374 0.45053 0.0
C812 C 0.54159 1.00026 0.42211 0.0
C813 C 0.47646 0.98205 0.3888 0.0
H814 H 0.55337 0.04403 0.36377 0.0
C815 C 0.45926 0.00838 0.32046 0.0
C816 C 0.48467 0.01265 0.30933 0.0
C817 C 0.46396 0.00616 0.33762 0.0
C818 C 0.53173 0.02617 0.37049 0.0
H819 H 0.47798 0.00762 0.45193 0.0
H820 H 0.46925 0.0063 0.42155 0.0
H821 H 0.56172 0.04103 0.39379 0.0
H822 H 0.53448 0.01706 0.30724 0.0
H823 H 0.54246 0.01247 0.3371 0.0
H824 H 0.44648 0.96685 0.36554 0.0
C825 C 0.49077 0.00446 0.42639 0.0
C826 C 0.53654 0.02452 0.38769 0.0
C827 C 0.4959 0.0054 0.44378 0.0
C828 C 0.51471 0.01431 0.31562 0.0
C829 C 0.51928 0.01176 0.33272 0.0
C830 C 0.4717 0.98343 0.37156 0.0
C831 C 0.5137 1.00216 0.4154 0.0
C832 C 0.5089 1.00265 0.39703 0.0
C833 C 0.49404 0.00781 0.34396 0.0
C834 C 0.49922 0.0057 0.36222 0.0
H835 H 0.56835 0.9995 0.44435 0.0
H836 H 0.5595 0.99823 0.41387 0.0
H837 H 0.45481 0.96469 0.39569 0.0
H838 H 0.436 0.00735 0.31594 0.0
H839 H 0.44425 0.0037 0.34595 0.0
C840 C 0.55519 0.54186 0.77584 0.0
C841 C 0.52502 0.51726 0.78275 0.0
C842 C 0.55936 0.53995 0.75855 0.0
C843 C 0.53157 0.48016 0.72084 0.0
H844 H 0.56504 0.56263 0.69703 0.0
C845 C 0.53995 0.47846 0.64833 0.0
C846 C 0.56771 0.50683 0.64184 0.0
C847 C 0.53433 0.47878 0.66555 0.0
C848 C 0.55616 0.53945 0.70351 0.0
H849 H 0.47564 0.4712 0.77696 0.0
H850 H 0.48319 0.46773 0.74665 0.0
H851 H 0.55564 0.56507 0.72701 0.0
H852 H 0.61213 0.55712 0.64824 0.0
H853 H 0.60297 0.55741 0.67833 0.0
H854 H 0.53275 0.45465 0.69746 0.0
C855 C 0.50351 0.48848 0.75469 0.0
C856 C 0.55063 0.54086 0.72067 0.0
C857 C 0.49914 0.4906 0.772 0.0
C858 C 0.59027 0.53511 0.65291 0.0
C859 C 0.58488 0.53531 0.67012 0.0
C860 C 0.53742 0.47881 0.70369 0.0
C861 C 0.53363 0.51321 0.74782 0.0
C862 C 0.53842 0.51128 0.72951 0.0
C863 C 0.55655 0.50738 0.67663 0.0
C864 C 0.54994 0.5085 0.69483 0.0
H865 H 0.57565 0.56269 0.78378 0.0
H866 H 0.58298 0.55915 0.7536 0.0
H867 H 0.52246 0.45706 0.72742 0.0
H868 H 0.52197 0.45648 0.64002 0.0
H869 H 0.51204 0.45702 0.67008 0.0
C870 C 0.53533 0.03933 0.55642 0.0
C871 C 0.55043 0.02351 0.54692 0.0
C872 C 0.53806 0.04198 0.57399 0.0
C873 C 0.55497 0.00392 0.61 0.0
H874 H 0.56675 0.08637 0.63489 0.0
C875 C 0.57398 0.02734 0.68295 0.0
C876 C 0.5547 0.04037 0.69086 0.0
C877 C 0.57521 0.02535 0.66539 0.0
C878 C 0.56325 0.0631 0.6281 0.0
H879 H 0.58061 0.99838 0.54851 0.0
H880 H 0.58578 0.00349 0.57925 0.0
H881 H 0.56654 0.0834 0.60422 0.0
H882 H 0.52065 0.06038 0.68645 0.0
H883 H 0.5232 0.05731 0.65592 0.0
H884 H 0.55171 0.98372 0.634 0.0
C885 C 0.57138 0.01338 0.57306 0.0
C886 C 0.56308 0.06136 0.61054 0.0
C887 C 0.56857 0.01062 0.55544 0.0
C888 C 0.53638 0.05095 0.68081 0.0
C889 C 0.53779 0.04915 0.66331 0.0
C890 C 0.55533 0.00574 0.62761 0.0
C891 C 0.5561 0.02905 0.58253 0.0
C892 C 0.55844 0.03158 0.60126 0.0
C893 C 0.55735 0.03653 0.65541 0.0
C894 C 0.55898 0.03518 0.63681 0.0
H895 H 0.52106 0.04942 0.55029 0.0
H896 H 0.52549 0.05369 0.58089 0.0
H897 H 0.55098 0.98046 0.60323 0.0
H898 H 0.58867 0.01931 0.69034 0.0
H899 H 0.59069 0.01572 0.65963 0.0
C900 C 0.47905 0.4998 0.88568 0.0
C901 C 0.51078 0.5209 0.87886 0.0
C902 C 0.47623 0.49899 0.90312 0.0
C903 C 0.47327 0.51698 0.9402 0.0
H904 H 0.54594 0.52036 0.96825 0.0
C905 C 0.47826 0.53555 0.01285 0.0
C906 C 0.48947 0.51708 0.02204 0.0
C907 C 0.48045 0.53561 0.99535 0.0
C908 C 0.52525 0.51907 0.96059 0.0
H909 H 0.56441 0.55787 0.88507 0.0
H910 H 0.55934 0.55694 0.91547 0.0
H911 H 0.55025 0.52041 0.93781 0.0
H912 H 0.511 0.48352 0.0201 0.0
H913 H 0.51442 0.4832 0.98955 0.0
H914 H 0.44784 0.51469 0.96296 0.0
C915 C 0.53674 0.54053 0.90733 0.0
C916 C 0.52794 0.51957 0.94314 0.0
C917 C 0.5396 0.54122 0.88989 0.0
C918 C 0.50262 0.4984 0.01337 0.0
C919 C 0.50464 0.49829 0.99587 0.0
C920 C 0.47051 0.51634 0.95765 0.0
C921 C 0.50503 0.51938 0.91416 0.0
C922 C 0.50203 0.51861 0.93273 0.0
C923 C 0.49374 0.51703 0.98665 0.0
C924 C 0.49649 0.51743 0.96807 0.0
H925 H 0.45634 0.48369 0.87755 0.0
H926 H 0.45152 0.48203 0.90794 0.0
H927 H 0.45301 0.51659 0.93258 0.0
H928 H 0.46842 0.55055 0.01922 0.0
H929 H 0.47233 0.55076 0.98869 0.0
C930 C 0.01257 0.55066 0.21924 0.0
C931 C 1.00022 0.52015 0.20868 0.0
C932 C 0.01007 0.54958 0.23668 0.0
C933 C 0.00509 0.49612 0.27043 0.0
H934 H 0.98124 0.55495 0.29757 0.0
C935 C 0.99912 0.49252 0.34262 0.0
C936 C 0.01312 0.52438 0.35219 0.0
C937 C 0.9939 0.49039 0.32513 0.0
C938 C 0.98826 0.53859 0.29019 0.0
H939 H 0.97443 0.46445 0.20818 0.0
H940 H 0.97025 0.46264 0.23866 0.0
H941 H 0.97839 0.55423 0.26689 0.0
H942 H 0.03164 0.57884 0.35088 0.0
H943 H 0.02365 0.57532 0.32038 0.0
H944 H 0.0159 0.48113 0.29362 0.0
C945 C 0.98213 0.4874 0.2334 0.0
C946 C 0.98653 0.53812 0.27262 0.0
C947 C 0.98441 0.48846 0.21594 0.0
C948 C 0.02127 0.55396 0.34387 0.0
C949 C 0.01622 0.55186 0.32639 0.0
C950 C 0.00703 0.49674 0.28798 0.0
C951 C 0.99532 0.51797 0.24397 0.0
C952 C 0.99518 0.51708 0.26256 0.0
C953 C 1.0027 0.52009 0.31678 0.0
C954 C 0.99891 0.51819 0.29809 0.0
H955 H 0.02473 0.5755 0.21406 0.0
H956 H 0.0207 0.57358 0.24452 0.0
H957 H 0.01241 0.48002 0.26302 0.0
H958 H 0.99283 0.46926 0.34857 0.0
H959 H 0.98304 0.46544 0.31815 0.0
loop_
_geom_bond_atom_site_label_1
_geom_bond_atom_site_label_2
_geom_bond_distance
_geom_bond_site_symmetry_2
_ccdc_geom_bond_type
Zn0 O6 1.969 . S
Zn0 O7 1.965 . S
Zn0 O11 2.024 . S
Zn0 O16 1.969 . S
Zn1 O8 1.969 . S
Zn1 O14 1.969 . S
Zn1 O15 1.965 . S
Zn1 O17 2.024 . S
C2 O3 1.229 . S
C2 O11 1.058 . S
O3 C2 1.229 . S
C4 O5 1.229 . S
C4 O17 1.058 . S
O5 C4 1.229 . S
O6 Zn0 1.969 . S
O6 C9 1.267 . S
O7 Zn0 1.965 . S
O7 C18 1.260 1_455 S
O8 Zn1 1.969 . S
O8 C18 1.258 . S
C9 O6 1.267 . S
C9 O10 1.228 . S
O10 C9 1.228 . S
O11 Zn0 2.024 . S
O11 C2 1.058 . S
C12 O13 1.228 . S
C12 O14 1.267 . S
O13 C12 1.228 . S
O14 Zn1 1.969 . S
O14 C12 1.267 . S
O15 Zn1 1.965 . S
O15 C19 1.260 1_655 S
O16 Zn0 1.969 . S
O16 C19 1.258 . S
O17 Zn1 2.024 . S
O17 C4 1.058 . S
C18 O7 1.260 1_655 S
C18 O8 1.258 . S
C19 O15 1.260 1_455 S
C19 O16 1.258 . S
Zn20 O26 1.969 . S
Zn20 O27 1.965 . S
Zn20 O31 2.024 . S
Zn20 O36 1.969 . S
Zn21 O28 1.969 . S
Zn21 O34 1.969 . S
Zn21 O35 1.965 . S
Zn21 O37 2.024 . S
C22 O23 1.229 . S
C22 O31 1.058 . S
O23 C22 1.229 . S
C24 O25 1.229 . S
C24 O37 1.058 . S
O25 C24 1.229 . S
O26 Zn20 1.969 . S
O26 C29 1.267 . S
O27 Zn20 1.965 . S
O27 C38 1.260 . S
O28 Zn21 1.969 . S
O28 C38 1.258 1_565 S
C29 O26 1.267 . S
C29 O30 1.228 . S
O30 C29 1.228 . S
O31 Zn20 2.024 . S
O31 C22 1.058 . S
C32 O33 1.228 . S
C32 O34 1.267 . S
O33 C32 1.228 . S
O34 Zn21 1.969 . S
O34 C32 1.267 . S
O35 Zn21 1.965 . S
O35 C39 1.260 1_565 S
O36 Zn20 1.969 . S
O36 C39 1.258 . S
O37 Zn21 2.024 . S
O37 C24 1.058 . S
C38 O27 1.260 . S
C38 O28 1.258 1_545 S
C39 O35 1.260 1_545 S
C39 O36 1.258 . S
Zn40 O46 1.969 . S
Zn40 O47 1.965 . S
Zn40 O51 2.024 . S
Zn40 O56 1.969 . S
Zn41 O48 1.969 . S
Zn41 O54 1.969 . S
Zn41 O55 1.965 . S
Zn41 O57 2.024 . S
C42 O43 1.229 . S
C42 O51 1.058 . S
O43 C42 1.229 . S
C44 O45 1.229 . S
C44 O57 1.058 . S
O45 C44 1.229 . S
O46 Zn40 1.969 . S
O46 C49 1.267 . S
O47 Zn40 1.965 . S
O47 C58 1.260 . S
O48 Zn41 1.969 . S
O48 C58 1.258 . S
C49 O46 1.267 . S
C49 O50 1.228 . S
O50 C49 1.228 . S
O51 Zn40 2.024 . S
O51 C42 1.058 . S
C52 O53 1.228 . S
C52 O54 1.267 . S
O53 C52 1.228 . S
O54 Zn41 1.969 . S
O54 C52 1.267 . S
O55 Zn41 1.965 . S
O55 C59 1.260 . S
O56 Zn40 1.969 . S
O56 C59 1.258 . S
O57 Zn41 2.024 . S
O57 C44 1.058 . S
C58 O47 1.260 . S
C58 O48 1.258 . S
C59 O55 1.260 . S
C59 O56 1.258 . S
C60 C61 1.391 . S
C60 C64 1.391 . S
C60 H102 0.948 . S
C61 C60 1.391 . S
C61 C62 1.391 . S
C62 C61 1.391 . S
C62 H118 0.947 . S
C62 C119 1.392 . S
C63 C64 1.391 . S
C63 C67 1.397 . S
C63 C119 1.419 . S
C64 C60 1.391 . S
C64 C63 1.391 . S
C64 C65 1.399 . S
C65 C64 1.399 . S
C65 C68 1.396 . S
C65 C77 1.453 . S
C65 C78 1.684 . S
H66 C90 0.948 . S
C67 C63 1.397 . S
C67 C68 1.394 . S
C67 C86 1.723 . S
C68 C65 1.396 . S
C68 C67 1.394 . S
C68 C98 1.723 . S
H69 C92 0.947 . S
H70 C93 0.957 . S
H71 C99 0.982 . S
H72 C100 0.979 . S
H73 C100 0.980 . S
H74 C100 0.983 . S
H75 C99 0.979 . S
H76 C99 0.977 . S
C77 C65 1.453 . S
C77 H106 0.982 . S
C77 H107 0.979 . S
C77 H108 0.977 . S
C78 C65 1.684 . S
C78 H103 0.979 . S
C78 H104 0.980 . S
C78 H105 0.983 . S
C79 C80 1.391 . S
C79 C84 1.391 . S
C79 H109 0.948 . S
C80 C79 1.391 . S
C80 C81 1.391 . S
C81 C80 1.391 . S
C81 C82 1.391 1_545 S
C81 H110 0.947 1_545 S
C82 C81 1.391 1_565 S
C82 C83 1.420 1_565 S
C82 H111 0.947 . S
C83 C82 1.420 1_545 S
C83 C84 1.391 . S
C83 C87 1.397 . S
C84 C79 1.391 . S
C84 C83 1.391 . S
C84 C85 1.399 . S
C85 C84 1.399 . S
C85 C86 1.396 . S
C85 C88 1.453 . S
C85 C89 1.684 . S
C86 C67 1.723 . S
C86 C85 1.396 . S
C86 C87 1.394 . S
C87 C83 1.397 . S
C87 C86 1.394 . S
C87 C97 1.723 1_545 S
C88 C85 1.453 . S
C88 H112 0.982 . S
C88 H113 0.979 . S
C88 H114 0.977 . S
C89 C85 1.684 . S
C89 H115 0.979 . S
C89 H116 0.980 . S
C89 H117 0.983 . S
C90 H66 0.948 . S
C90 C91 1.391 . S
C90 C95 1.391 . S
C91 C90 1.391 . S
C91 C92 1.391 . S
C92 H69 0.947 . S
C92 C91 1.391 . S
C92 C93 1.392 . S
C93 H70 0.957 . S
C93 C92 1.392 . S
C93 C94 1.419 . S
C94 C93 1.419 . S
C94 C95 1.391 . S
C94 C98 1.397 1_565 S
C95 C90 1.391 . S
C95 C94 1.391 . S
C95 C96 1.399 . S
C96 C95 1.399 . S
C96 C97 1.396 . S
C96 C99 1.453 . S
C96 C100 1.684 . S
C97 C87 1.723 1_565 S
C97 C96 1.396 . S
C97 C98 1.394 1_565 S
C98 C68 1.723 . S
C98 C94 1.397 1_545 S
C98 C97 1.394 1_545 S
C99 H71 0.982 . S
C99 H75 0.979 . S
C99 H76 0.977 . S
C99 C96 1.453 . S
C100 H72 0.979 . S
C100 H73 0.980 . S
C100 H74 0.983 . S
C100 C96 1.684 . S
H101 C119 0.948 . S
H102 C60 0.948 . S
H103 C78 0.979 . S
H104 C78 0.980 . S
H105 C78 0.983 . S
H106 C77 0.982 . S
H107 C77 0.979 . S
H108 C77 0.977 . S
H109 C79 0.948 . S
H110 C81 0.947 1_565 S
H111 C82 0.947 . S
H112 C88 0.982 . S
H113 C88 0.979 . S
H114 C88 0.977 . S
H115 C89 0.979 . S
H116 C89 0.980 . S
H117 C89 0.983 . S
H118 C62 0.947 . S
C119 C62 1.392 . S
C119 C63 1.419 . S
C119 H101 0.948 . S
C120 C121 1.391 . S
C120 C124 1.391 . S
C120 H162 0.948 . S
C121 C120 1.391 . S
C121 C122 1.391 . S
C122 C121 1.391 . S
C122 H178 0.947 . S
C122 C179 1.392 . S
C123 C124 1.391 . S
C123 C127 1.397 . S
C123 C179 1.419 . S
C124 C120 1.391 . S
C124 C123 1.391 . S
C124 C125 1.399 . S
C125 C124 1.399 . S
C125 C128 1.396 . S
C125 C137 1.453 . S
C125 C138 1.684 . S
H126 C150 0.948 . S
C127 C123 1.397 . S
C127 C128 1.394 . S
C127 C146 1.723 . S
C128 C125 1.396 . S
C128 C127 1.394 . S
C128 C158 1.723 . S
H129 C152 0.947 . S
H130 C153 0.948 . S
H131 C159 0.982 . S
H132 C160 0.979 . S
H133 C160 0.980 . S
H134 C160 0.983 . S
H135 C159 0.979 . S
H136 C159 0.977 . S
C137 C125 1.453 . S
C137 H166 0.982 . S
C137 H167 0.979 . S
C137 H168 0.977 . S
C138 C125 1.684 . S
C138 H163 0.979 . S
C138 H164 0.980 . S
C138 H165 0.983 . S
C139 C140 1.391 . S
C139 C144 1.391 . S
C139 H169 0.948 . S
C140 C139 1.391 . S
C140 C141 1.391 . S
C141 C140 1.391 . S
C141 C142 1.392 . S
C141 H170 0.947 . S
C142 C141 1.392 . S
C142 C143 1.419 . S
C142 H171 0.948 . S
C143 C142 1.419 . S
C143 C144 1.391 . S
C143 C147 1.397 . S
C144 C139 1.391 . S
C144 C143 1.391 . S
C144 C145 1.399 . S
C145 C144 1.399 . S
C145 C146 1.396 . S
C145 C148 1.453 . S
C145 C149 1.684 . S
C146 C127 1.723 . S
C146 C145 1.396 . S
C146 C147 1.394 . S
C147 C143 1.397 . S
C147 C146 1.394 . S
C147 C157 1.723 . S
C148 C145 1.453 . S
C148 H172 0.982 . S
C148 H173 0.979 . S
C148 H174 0.977 . S
C149 C145 1.684 . S
C149 H175 0.979 . S
C149 H176 0.980 . S
C149 H177 0.983 . S
C150 H126 0.948 . S
C150 C151 1.391 . S
C150 C155 1.391 . S
C151 C150 1.391 . S
C151 C152 1.391 . S
C152 H129 0.947 . S
C152 C151 1.391 . S
C152 C153 1.392 . S
C153 H130 0.948 . S
C153 C152 1.392 . S
C153 C154 1.419 . S
C154 C153 1.419 . S
C154 C155 1.391 . S
C154 C158 1.397 . S
C155 C150 1.391 . S
C155 C154 1.391 . S
C155 C156 1.399 . S
C156 C155 1.399 . S
C156 C157 1.396 . S
C156 C159 1.453 . S
C156 C160 1.684 . S
C157 C147 1.723 . S
C157 C156 1.396 . S
C157 C158 1.394 . S
C158 C128 1.723 . S
C158 C154 1.397 . S
C158 C157 1.394 . S
C159 H131 0.982 . S
C159 H135 0.979 . S
C159 H136 0.977 . S
C159 C156 1.453 . S
C160 H132 0.979 . S
C160 H133 0.980 . S
C160 H134 0.983 . S
C160 C156 1.684 . S
H161 C179 0.948 . S
H162 C120 0.948 . S
H163 C138 0.979 . S
H164 C138 0.980 . S
H165 C138 0.983 . S
H166 C137 0.982 . S
H167 C137 0.979 . S
H168 C137 0.977 . S
H169 C139 0.948 . S
H170 C141 0.947 . S
H171 C142 0.948 . S
H172 C148 0.982 . S
H173 C148 0.979 . S
H174 C148 0.977 . S
H175 C149 0.979 . S
H176 C149 0.980 . S
H177 C149 0.983 . S
H178 C122 0.947 . S
C179 C122 1.392 . S
C179 C123 1.419 . S
C179 H161 0.948 . S
C180 C181 1.391 . S
C180 C184 1.391 . S
C180 H222 0.948 . S
C181 C180 1.391 . S
C181 C182 1.391 . S
C182 C181 1.391 . S
C182 H238 0.947 . S
C182 C239 1.392 . S
C183 C184 1.391 . S
C183 C187 1.397 . S
C183 C239 1.419 . S
C184 C180 1.391 . S
C184 C183 1.391 . S
C184 C185 1.399 . S
C185 C184 1.399 . S
C185 C188 1.396 . S
C185 C197 1.453 . S
C185 C198 1.684 . S
H186 C210 0.948 . S
C187 C183 1.397 . S
C187 C188 1.394 . S
C187 C206 1.723 . S
C188 C185 1.396 . S
C188 C187 1.394 . S
C188 C218 1.723 . S
H189 C212 0.947 . S
H190 C213 0.948 1_455 S
H191 C219 0.982 . S
H192 C220 0.979 . S
H193 C220 0.980 . S
H194 C220 0.983 . S
H195 C219 0.979 . S
H196 C219 0.977 . S
C197 C185 1.453 . S
C197 H226 0.982 . S
C197 H227 0.979 . S
C197 H228 0.977 . S
C198 C185 1.684 . S
C198 H223 0.979 . S
C198 H224 0.980 . S
C198 H225 0.983 . S
C199 C200 1.391 . S
C199 C204 1.391 . S
C199 H229 0.948 . S
C200 C199 1.391 . S
C200 C201 1.391 . S
C201 C200 1.391 . S
C201 C202 1.394 . S
C201 H230 0.947 1_455 S
C202 C201 1.394 . S
C202 C203 1.447 . S
C202 H231 0.918 1_455 S
C203 C202 1.447 . S
C203 C204 1.391 . S
C203 C207 1.397 . S
C204 C199 1.391 . S
C204 C203 1.391 . S
C204 C205 1.399 . S
C205 C204 1.399 . S
C205 C206 1.396 . S
C205 C208 1.453 . S
C205 C209 1.684 . S
C206 C187 1.723 . S
C206 C205 1.396 . S
C206 C207 1.394 . S
C207 C203 1.397 . S
C207 C206 1.394 . S
C207 C217 1.723 1_455 S
C208 C205 1.453 . S
C208 H232 0.982 . S
C208 H233 0.979 . S
C208 H234 0.977 . S
C209 C205 1.684 . S
C209 H235 0.979 . S
C209 H236 0.980 . S
C209 H237 0.983 . S
C210 H186 0.948 . S
C210 C211 1.391 . S
C210 C215 1.391 . S
C211 C210 1.391 . S
C211 C212 1.391 . S
C212 H189 0.947 . S
C212 C211 1.391 . S
C212 C213 1.392 . S
C213 H190 0.948 1_655 S
C213 C212 1.392 . S
C213 C214 1.419 . S
C214 C213 1.419 . S
C214 C215 1.391 . S
C214 C218 1.397 1_655 S
C215 C210 1.391 . S
C215 C214 1.391 . S
C215 C216 1.399 . S
C216 C215 1.399 . S
C216 C217 1.396 . S
C216 C219 1.453 . S
C216 C220 1.684 . S
C217 C207 1.723 1_655 S
C217 C216 1.396 . S
C217 C218 1.394 1_655 S
C218 C188 1.723 . S
C218 C214 1.397 1_455 S
C218 C217 1.394 1_455 S
C219 H191 0.982 . S
C219 H195 0.979 . S
C219 H196 0.977 . S
C219 C216 1.453 . S
C220 H192 0.979 . S
C220 H193 0.980 . S
C220 H194 0.983 . S
C220 C216 1.684 . S
H221 C239 0.948 . S
H222 C180 0.948 . S
H223 C198 0.979 . S
H224 C198 0.980 . S
H225 C198 0.983 . S
H226 C197 0.982 . S
H227 C197 0.979 . S
H228 C197 0.977 . S
H229 C199 0.948 . S
H230 C201 0.947 1_655 S
H231 C202 0.918 1_655 S
H232 C208 0.982 . S
H233 C208 0.979 . S
H234 C208 0.977 . S
H235 C209 0.979 . S
H236 C209 0.980 . S
H237 C209 0.983 . S
H238 C182 0.947 . S
C239 C182 1.392 . S
C239 C183 1.419 . S
C239 H221 0.948 . S
C240 C241 1.391 . S
C240 C244 1.391 . S
C240 H282 0.948 . S
C241 C240 1.391 . S
C241 C242 1.391 . S
C242 C241 1.391 . S
C242 H298 0.947 . S
C242 C299 1.392 . S
C243 C244 1.391 . S
C243 C247 1.397 . S
C243 C299 1.419 . S
C244 C240 1.391 . S
C244 C243 1.391 . S
C244 C245 1.399 1_655 S
C245 C244 1.399 1_455 S
C245 C248 1.396 . S
C245 C257 1.453 . S
C245 C258 1.684 . S
H246 C270 0.948 . S
C247 C243 1.397 . S
C247 C248 1.394 1_655 S
C247 C266 1.723 . S
C248 C245 1.396 . S
C248 C247 1.394 1_455 S
C248 C278 1.723 . S
H249 C272 0.947 . S
H250 C273 0.948 . S
H251 C279 0.982 . S
H252 C280 0.979 . S
H253 C280 0.980 . S
H254 C280 0.983 . S
H255 C279 0.979 . S
H256 C279 0.977 . S
C257 C245 1.453 . S
C257 H286 0.982 . S
C257 H287 0.979 . S
C257 H288 0.977 . S
C258 C245 1.684 . S
C258 H283 0.979 1_455 S
C258 H284 0.980 . S
C258 H285 0.983 1_455 S
C259 C260 1.391 1_655 S
C259 C264 1.391 . S
C259 H289 0.948 . S
C260 C259 1.391 1_455 S
C260 C261 1.391 . S
C261 C260 1.391 . S
C261 C262 1.392 . S
C261 H290 0.947 . S
C262 C261 1.392 . S
C262 C263 1.419 . S
C262 H291 0.948 . S
C263 C262 1.419 . S
C263 C264 1.391 1_455 S
C263 C267 1.397 . S
C264 C259 1.391 . S
C264 C263 1.391 1_655 S
C264 C265 1.399 . S
C265 C264 1.399 . S
C265 C266 1.396 . S
C265 C268 1.453 . S
C265 C269 1.684 . S
C266 C247 1.723 . S
C266 C265 1.396 . S
C266 C267 1.394 1_655 S
C267 C263 1.397 . S
C267 C266 1.394 1_455 S
C267 C277 1.723 . S
C268 C265 1.453 . S
C268 H292 0.982 . S
C268 H293 0.979 . S
C268 H294 0.977 . S
C269 C265 1.684 . S
C269 H295 0.979 . S
C269 H296 0.980 . S
C269 H297 0.983 . S
C270 H246 0.948 . S
C270 C271 1.391 . S
C270 C275 1.391 . S
C271 C270 1.391 . S
C271 C272 1.391 . S
C272 H249 0.947 . S
C272 C271 1.391 . S
C272 C273 1.392 . S
C273 H250 0.948 . S
C273 C272 1.392 . S
C273 C274 1.419 . S
C274 C273 1.419 . S
C274 C275 1.391 . S
C274 C278 1.397 . S
C275 C270 1.391 . S
C275 C274 1.391 . S
C275 C276 1.399 . S
C276 C275 1.399 . S
C276 C277 1.396 . S
C276 C279 1.453 . S
C276 C280 1.684 . S
C277 C267 1.723 . S
C277 C276 1.396 . S
C277 C278 1.394 . S
C278 C248 1.723 . S
C278 C274 1.397 . S
C278 C277 1.394 . S
C279 H251 0.982 . S
C279 H255 0.979 . S
C279 H256 0.977 . S
C279 C276 1.453 . S
C280 H252 0.979 . S
C280 H253 0.980 . S
C280 H254 0.983 . S
C280 C276 1.684 . S
H281 C299 0.948 . S
H282 C240 0.948 . S
H283 C258 0.979 1_655 S
H284 C258 0.980 . S
H285 C258 0.983 1_655 S
H286 C257 0.982 . S
H287 C257 0.979 . S
H288 C257 0.977 . S
H289 C259 0.948 . S
H290 C261 0.947 . S
H291 C262 0.948 . S
H292 C268 0.982 . S
H293 C268 0.979 . S
H294 C268 0.977 . S
H295 C269 0.979 . S
H296 C269 0.980 . S
H297 C269 0.983 . S
H298 C242 0.947 . S
C299 C242 1.392 . S
C299 C243 1.419 . S
C299 H281 0.948 . S
C300 C301 1.391 . S
C300 C304 1.391 . S
C300 H342 0.948 . S
C301 C300 1.391 . S
C301 C302 1.391 . S
C302 C301 1.391 . S
C302 H358 0.947 . S
C302 C359 1.392 . S
C303 C304 1.391 . S
C303 C307 1.397 . S
C303 C359 1.419 . S
C304 C300 1.391 . S
C304 C303 1.391 . S
C304 C305 1.399 . S
C305 C304 1.399 . S
C305 C308 1.396 1_565 S
C305 C317 1.453 1_565 S
C305 C318 1.684 . S
H306 C330 0.948 . S
C307 C303 1.397 . S
C307 C308 1.394 1_565 S
C307 C326 1.723 . S
C308 C305 1.396 1_545 S
C308 C307 1.394 1_545 S
C308 C338 1.723 . S
H309 C332 0.947 . S
H310 C333 0.948 . S
H311 C339 0.982 . S
H312 C340 0.979 . S
H313 C340 0.980 . S
H314 C340 0.983 . S
H315 C339 0.979 . S
H316 C339 0.977 . S
C317 C305 1.453 1_545 S
C317 H346 0.982 . S
C317 H347 0.979 . S
C317 H348 0.977 . S
C318 C305 1.684 . S
C318 H343 0.979 . S
C318 H344 0.980 1_565 S
C318 H345 0.983 . S
C319 C320 1.391 1_565 S
C319 C324 1.391 . S
C319 H349 0.948 . S
C320 C319 1.391 1_545 S
C320 C321 1.391 . S
C321 C320 1.391 . S
C321 C322 1.392 . S
C321 H350 0.947 . S
C322 C321 1.392 . S
C322 C323 1.419 . S
C322 H351 0.948 . S
C323 C322 1.419 . S
C323 C324 1.390 1_545 S
C323 C327 1.397 . S
C324 C319 1.391 . S
C324 C323 1.390 1_565 S
C324 C325 1.400 . S
C325 C324 1.400 . S
C325 C326 1.396 . S
C325 C328 1.453 . S
C325 C329 1.684 . S
C326 C307 1.723 . S
C326 C325 1.396 . S
C326 C327 1.394 1_565 S
C327 C323 1.397 . S
C327 C326 1.394 1_545 S
C327 C337 1.723 . S
C328 C325 1.453 . S
C328 H352 0.982 . S
C328 H353 0.979 . S
C328 H354 0.977 . S
C329 C325 1.684 . S
C329 H355 0.979 . S
C329 H356 0.980 . S
C329 H357 0.983 . S
C330 H306 0.948 . S
C330 C331 1.391 . S
C330 C335 1.391 . S
C331 C330 1.391 . S
C331 C332 1.391 . S
C332 H309 0.947 . S
C332 C331 1.391 . S
C332 C333 1.392 . S
C333 H310 0.948 . S
C333 C332 1.392 . S
C333 C334 1.419 . S
C334 C333 1.419 . S
C334 C335 1.391 . S
C334 C338 1.397 . S
C335 C330 1.391 . S
C335 C334 1.391 . S
C335 C336 1.399 . S
C336 C335 1.399 . S
C336 C337 1.396 . S
C336 C339 1.453 . S
C336 C340 1.684 . S
C337 C327 1.723 . S
C337 C336 1.396 . S
C337 C338 1.394 . S
C338 C308 1.723 . S
C338 C334 1.397 . S
C338 C337 1.394 . S
C339 H311 0.982 . S
C339 H315 0.979 . S
C339 H316 0.977 . S
C339 C336 1.453 . S
C340 H312 0.979 . S
C340 H313 0.980 . S
C340 H314 0.983 . S
C340 C336 1.684 . S
H341 C359 0.948 . S
H342 C300 0.948 . S
H343 C318 0.979 . S
H344 C318 0.980 1_545 S
H345 C318 0.983 . S
H346 C317 0.982 . S
H347 C317 0.979 . S
H348 C317 0.977 . S
H349 C319 0.948 . S
H350 C321 0.947 . S
H351 C322 0.948 . S
H352 C328 0.982 . S
H353 C328 0.979 . S
H354 C328 0.977 . S
H355 C329 0.979 . S
H356 C329 0.980 . S
H357 C329 0.983 . S
H358 C302 0.947 . S
C359 C302 1.392 . S
C359 C303 1.419 . S
C359 H341 0.948 . S
C360 C361 1.391 . S
C360 C364 1.391 . S
C360 H402 0.948 . S
C361 C360 1.391 . S
C361 C362 1.391 . S
C362 C361 1.391 . S
C362 H418 0.947 . S
C362 C419 1.392 . S
C363 C364 1.391 . S
C363 C367 1.397 . S
C363 C419 1.419 . S
C364 C360 1.391 . S
C364 C363 1.391 . S
C364 C365 1.399 . S
C365 C364 1.399 . S
C365 C368 1.396 . S
C365 C377 1.453 . S
C365 C378 1.684 . S
H366 C390 0.948 . S
C367 C363 1.397 . S
C367 C368 1.394 . S
C367 C386 1.723 . S
C368 C365 1.396 . S
C368 C367 1.394 . S
C368 C398 1.723 . S
H369 C392 0.947 . S
H370 C393 0.948 . S
H371 C399 0.982 . S
H372 C400 0.979 . S
H373 C400 0.980 . S
H374 C400 0.983 . S
H375 C399 0.979 . S
H376 C399 0.977 . S
C377 C365 1.453 . S
C377 H406 0.982 . S
C377 H407 0.979 . S
C377 H408 0.977 . S
C378 C365 1.684 . S
C378 H403 0.979 . S
C378 H404 0.980 . S
C378 H405 0.983 . S
C379 C380 1.391 . S
C379 C384 1.391 . S
C379 H409 0.948 . S
C380 C379 1.391 . S
C380 C381 1.391 . S
C381 C380 1.391 . S
C381 C382 1.392 . S
C381 H410 0.947 . S
C382 C381 1.392 . S
C382 C383 1.419 . S
C382 H411 0.948 . S
C383 C382 1.419 . S
C383 C384 1.391 . S
C383 C387 1.397 . S
C384 C379 1.391 . S
C384 C383 1.391 . S
C384 C385 1.399 . S
C385 C384 1.399 . S
C385 C386 1.396 . S
C385 C388 1.453 . S
C385 C389 1.684 . S
C386 C367 1.723 . S
C386 C385 1.396 . S
C386 C387 1.394 . S
C387 C383 1.397 . S
C387 C386 1.394 . S
C387 C397 1.723 . S
C388 C385 1.453 . S
C388 H412 0.982 . S
C388 H413 0.979 . S
C388 H414 0.977 . S
C389 C385 1.684 . S
C389 H415 0.979 . S
C389 H416 0.980 . S
C389 H417 0.983 . S
C390 H366 0.948 . S
C390 C391 1.391 . S
C390 C395 1.391 . S
C391 C390 1.391 . S
C391 C392 1.391 . S
C392 H369 0.947 . S
C392 C391 1.391 . S
C392 C393 1.392 . S
C393 H370 0.948 . S
C393 C392 1.392 . S
C393 C394 1.419 . S
C394 C393 1.419 . S
C394 C395 1.391 . S
C394 C398 1.397 . S
C395 C390 1.391 . S
C395 C394 1.391 . S
C395 C396 1.399 . S
C396 C395 1.399 . S
C396 C397 1.396 . S
C396 C399 1.453 . S
C396 C400 1.684 . S
C397 C387 1.723 . S
C397 C396 1.396 . S
C397 C398 1.394 . S
C398 C368 1.723 . S
C398 C394 1.397 . S
C398 C397 1.394 . S
C399 H371 0.982 . S
C399 H375 0.979 . S
C399 H376 0.977 . S
C399 C396 1.453 . S
C400 H372 0.979 . S
C400 H373 0.980 . S
C400 H374 0.983 . S
C400 C396 1.684 . S
H401 C419 0.948 . S
H402 C360 0.948 . S
H403 C378 0.979 . S
H404 C378 0.980 . S
H405 C378 0.983 . S
H406 C377 0.982 . S
H407 C377 0.979 . S
H408 C377 0.977 . S
H409 C379 0.948 . S
H410 C381 0.947 . S
H411 C382 0.948 . S
H412 C388 0.982 . S
H413 C388 0.979 . S
H414 C388 0.977 . S
H415 C389 0.979 . S
H416 C389 0.980 . S
H417 C389 0.983 . S
H418 C362 0.947 . S
C419 C362 1.392 . S
C419 C363 1.419 . S
C419 H401 0.948 . S
C420 C421 1.349 . S
C420 C422 1.327 . S
C420 H445 0.950 . S
C421 C420 1.349 . S
C421 C437 1.349 . S
C422 C420 1.327 . S
C422 C441 1.429 . S
C422 H446 0.950 . S
C423 C440 1.574 . S
C423 C442 1.368 . S
C423 H447 0.949 . S
H424 C428 0.949 . S
C425 C426 1.349 . S
C425 C427 1.327 . S
C425 H448 0.950 . S
C426 C425 1.349 . S
C426 C438 1.349 . S
C427 C425 1.327 . S
C427 C443 1.429 . S
C427 H449 0.950 . S
C428 H424 0.949 . S
C428 C436 1.574 . S
C428 C444 1.368 . S
H429 C437 0.950 . S
H430 C435 0.950 . S
H431 C436 0.949 . S
H432 C438 0.950 . S
H433 C439 0.950 . S
H434 C440 0.949 . S
C435 H430 0.950 . S
C435 C437 1.327 . S
C435 C441 1.429 . S
C436 C428 1.574 . S
C436 H431 0.949 . S
C436 C442 1.368 . S
C437 C421 1.349 . S
C437 H429 0.950 . S
C437 C435 1.327 . S
C438 C426 1.349 . S
C438 H432 0.950 . S
C438 C439 1.327 . S
C439 H433 0.950 . S
C439 C438 1.327 . S
C439 C443 1.429 . S
C440 C423 1.574 . S
C440 H434 0.949 . S
C440 C444 1.368 . S
C441 C422 1.429 . S
C441 C435 1.429 . S
C441 C442 1.523 . S
C442 C423 1.368 . S
C442 C436 1.368 . S
C442 C441 1.523 . S
C443 C427 1.429 . S
C443 C439 1.429 . S
C443 C444 1.523 . S
C444 C428 1.368 . S
C444 C440 1.368 . S
C444 C443 1.523 . S
H445 C420 0.950 . S
H446 C422 0.950 . S
H447 C423 0.949 . S
H448 C425 0.950 . S
H449 C427 0.950 . S
C450 C451 1.349 . S
C450 C452 1.327 . S
C450 H475 0.950 . S
C451 C450 1.349 . S
C451 C467 1.349 . S
C452 C450 1.327 . S
C452 C471 1.429 . S
C452 H476 0.950 . S
C453 C470 1.574 . S
C453 C472 1.368 . S
C453 H477 0.949 . S
H454 C458 0.949 . S
C455 C456 1.349 . S
C455 C457 1.327 . S
C455 H478 0.950 . S
C456 C455 1.349 . S
C456 C468 1.349 . S
C457 C455 1.327 . S
C457 C473 1.429 . S
C457 H479 0.950 . S
C458 H454 0.949 . S
C458 C466 1.574 . S
C458 C474 1.368 . S
H459 C467 0.950 . S
H460 C465 0.950 . S
H461 C466 0.949 . S
H462 C468 0.950 . S
H463 C469 0.950 . S
H464 C470 0.949 . S
C465 H460 0.950 . S
C465 C467 1.327 . S
C465 C471 1.429 . S
C466 C458 1.574 . S
C466 H461 0.949 . S
C466 C472 1.368 . S
C467 C451 1.349 . S
C467 H459 0.950 . S
C467 C465 1.327 . S
C468 C456 1.349 . S
C468 H462 0.950 . S
C468 C469 1.327 . S
C469 H463 0.950 . S
C469 C468 1.327 . S
C469 C473 1.429 . S
C470 C453 1.574 . S
C470 H464 0.949 . S
C470 C474 1.368 . S
C471 C452 1.429 . S
C471 C465 1.429 . S
C471 C472 1.523 . S
C472 C453 1.368 . S
C472 C466 1.368 . S
C472 C471 1.523 . S
C473 C457 1.429 . S
C473 C469 1.429 . S
C473 C474 1.523 . S
C474 C458 1.368 . S
C474 C470 1.368 . S
C474 C473 1.523 . S
H475 C450 0.950 . S
H476 C452 0.950 . S
H477 C453 0.949 . S
H478 C455 0.950 . S
H479 C457 0.950 . S
C480 C481 1.349 . S
C480 C482 1.327 . S
C480 H505 0.950 . S
C481 C480 1.349 . S
C481 C497 1.349 . S
C482 C480 1.327 . S
C482 C501 1.429 . S
C482 H506 0.950 . S
C483 C500 1.574 . S
C483 C502 1.368 . S
C483 H507 0.949 . S
H484 C488 0.949 . S
C485 C486 1.349 . S
C485 C487 1.327 . S
C485 H508 0.950 . S
C486 C485 1.349 . S
C486 C498 1.349 . S
C487 C485 1.327 . S
C487 C503 1.429 . S
C487 H509 0.950 . S
C488 H484 0.949 . S
C488 C496 1.574 . S
C488 C504 1.368 . S
H489 C497 0.950 . S
H490 C495 0.950 . S
H491 C496 0.949 . S
H492 C498 0.950 . S
H493 C499 0.950 . S
H494 C500 0.949 . S
C495 H490 0.950 . S
C495 C497 1.327 . S
C495 C501 1.429 . S
C496 C488 1.574 . S
C496 H491 0.949 . S
C496 C502 1.368 . S
C497 C481 1.349 . S
C497 H489 0.950 . S
C497 C495 1.327 . S
C498 C486 1.349 . S
C498 H492 0.950 . S
C498 C499 1.327 . S
C499 H493 0.950 . S
C499 C498 1.327 . S
C499 C503 1.429 . S
C500 C483 1.574 . S
C500 H494 0.949 . S
C500 C504 1.368 . S
C501 C482 1.429 . S
C501 C495 1.429 . S
C501 C502 1.523 . S
C502 C483 1.368 . S
C502 C496 1.368 . S
C502 C501 1.523 . S
C503 C487 1.429 . S
C503 C499 1.429 . S
C503 C504 1.523 . S
C504 C488 1.368 . S
C504 C500 1.368 . S
C504 C503 1.523 . S
H505 C480 0.950 . S
H506 C482 0.950 . S
H507 C483 0.949 . S
H508 C485 0.950 . S
H509 C487 0.950 . S
C510 C511 1.349 . S
C510 C512 1.327 . S
C510 H535 0.950 . S
C511 C510 1.349 . S
C511 C527 1.349 . S
C512 C510 1.327 . S
C512 C531 1.429 . S
C512 H536 0.950 . S
C513 C530 1.574 . S
C513 C532 1.368 . S
C513 H537 0.949 . S
H514 C518 0.949 . S
C515 C516 1.349 . S
C515 C517 1.327 . S
C515 H538 0.950 . S
C516 C515 1.349 . S
C516 C528 1.349 . S
C517 C515 1.327 . S
C517 C533 1.429 . S
C517 H539 0.950 . S
C518 H514 0.949 . S
C518 C526 1.574 . S
C518 C534 1.368 . S
H519 C527 0.950 . S
H520 C525 0.950 . S
H521 C526 0.949 . S
H522 C528 0.950 . S
H523 C529 0.950 . S
H524 C530 0.949 . S
C525 H520 0.950 . S
C525 C527 1.327 . S
C525 C531 1.429 . S
C526 C518 1.574 . S
C526 H521 0.949 . S
C526 C532 1.368 . S
C527 C511 1.349 . S
C527 H519 0.950 . S
C527 C525 1.327 . S
C528 C516 1.349 . S
C528 H522 0.950 . S
C528 C529 1.327 . S
C529 H523 0.950 . S
C529 C528 1.327 . S
C529 C533 1.429 . S
C530 C513 1.574 . S
C530 H524 0.949 . S
C530 C534 1.368 . S
C531 C512 1.429 . S
C531 C525 1.429 . S
C531 C532 1.523 . S
C532 C513 1.368 . S
C532 C526 1.368 . S
C532 C531 1.523 . S
C533 C517 1.429 . S
C533 C529 1.429 . S
C533 C534 1.523 . S
C534 C518 1.368 . S
C534 C530 1.368 . S
C534 C533 1.523 . S
H535 C510 0.950 . S
H536 C512 0.950 . S
H537 C513 0.949 . S
H538 C515 0.950 . S
H539 C517 0.950 . S
C540 C541 1.349 . S
C540 C542 1.327 . S
C540 H565 0.950 . S
C541 C540 1.349 . S
C541 C557 1.349 . S
C542 C540 1.327 . S
C542 C561 1.429 . S
C542 H566 0.950 . S
C543 C560 1.574 . S
C543 C562 1.368 . S
C543 H567 0.949 . S
H544 C548 0.949 . S
C545 C546 1.349 . S
C545 C547 1.327 . S
C545 H568 0.950 . S
C546 C545 1.349 . S
C546 C558 1.349 . S
C547 C545 1.327 . S
C547 C563 1.429 . S
C547 H569 0.950 . S
C548 H544 0.949 . S
C548 C556 1.574 . S
C548 C564 1.368 . S
H549 C557 0.950 . S
H550 C555 0.950 . S
H551 C556 0.949 . S
H552 C558 0.950 . S
H553 C559 0.950 . S
H554 C560 0.949 . S
C555 H550 0.950 . S
C555 C557 1.327 . S
C555 C561 1.429 . S
C556 C548 1.574 . S
C556 H551 0.949 . S
C556 C562 1.368 . S
C557 C541 1.349 . S
C557 H549 0.950 . S
C557 C555 1.327 . S
C558 C546 1.349 . S
C558 H552 0.950 . S
C558 C559 1.327 . S
C559 H553 0.950 . S
C559 C558 1.327 . S
C559 C563 1.429 . S
C560 C543 1.574 . S
C560 H554 0.949 . S
C560 C564 1.368 . S
C561 C542 1.429 . S
C561 C555 1.429 . S
C561 C562 1.523 . S
C562 C543 1.368 . S
C562 C556 1.368 . S
C562 C561 1.523 . S
C563 C547 1.429 . S
C563 C559 1.429 . S
C563 C564 1.523 . S
C564 C548 1.368 . S
C564 C560 1.368 . S
C564 C563 1.523 . S
H565 C540 0.950 . S
H566 C542 0.950 . S
H567 C543 0.949 . S
H568 C545 0.950 . S
H569 C547 0.950 . S
C570 C571 1.349 . S
C570 C572 1.327 . S
C570 H595 0.950 . S
C571 C570 1.349 . S
C571 C587 1.349 . S
C572 C570 1.327 . S
C572 C591 1.429 . S
C572 H596 0.950 . S
C573 C590 1.574 . S
C573 C592 1.368 . S
C573 H597 0.949 . S
H574 C578 0.949 . S
C575 C576 1.349 . S
C575 C577 1.327 . S
C575 H598 0.950 . S
C576 C575 1.349 . S
C576 C588 1.349 . S
C577 C575 1.327 . S
C577 C593 1.429 . S
C577 H599 0.950 . S
C578 H574 0.949 . S
C578 C586 1.574 . S
C578 C594 1.368 . S
H579 C587 0.950 . S
H580 C585 0.950 . S
H581 C586 0.949 . S
H582 C588 0.950 . S
H583 C589 0.950 . S
H584 C590 0.949 . S
C585 H580 0.950 . S
C585 C587 1.327 . S
C585 C591 1.429 . S
C586 C578 1.574 . S
C586 H581 0.949 . S
C586 C592 1.368 . S
C587 C571 1.349 . S
C587 H579 0.950 . S
C587 C585 1.327 . S
C588 C576 1.349 . S
C588 H582 0.950 . S
C588 C589 1.327 . S
C589 H583 0.950 . S
C589 C588 1.327 . S
C589 C593 1.429 . S
C590 C573 1.574 . S
C590 H584 0.949 . S
C590 C594 1.368 . S
C591 C572 1.429 . S
C591 C585 1.429 . S
C591 C592 1.523 . S
C592 C573 1.368 . S
C592 C586 1.368 . S
C592 C591 1.523 . S
C593 C577 1.429 . S
C593 C589 1.429 . S
C593 C594 1.523 . S
C594 C578 1.368 . S
C594 C590 1.368 . S
C594 C593 1.523 . S
H595 C570 0.950 . S
H596 C572 0.950 . S
H597 C573 0.949 . S
H598 C575 0.950 . S
H599 C577 0.950 . S
C600 C601 1.349 . S
C600 C602 1.327 . S
C600 H625 0.950 . S
C601 C600 1.349 . S
C601 C617 1.349 . S
C602 C600 1.327 . S
C602 C621 1.429 . S
C602 H626 0.950 . S
C603 C620 1.574 . S
C603 C622 1.368 . S
C603 H627 0.949 . S
H604 C608 0.949 . S
C605 C606 1.349 . S
C605 C607 1.327 . S
C605 H628 0.950 . S
C606 C605 1.349 . S
C606 C618 1.349 . S
C607 C605 1.327 . S
C607 C623 1.429 . S
C607 H629 0.950 . S
C608 H604 0.949 . S
C608 C616 1.574 . S
C608 C624 1.368 . S
H609 C617 0.950 . S
H610 C615 0.950 . S
H611 C616 0.949 . S
H612 C618 0.950 . S
H613 C619 0.950 . S
H614 C620 0.949 . S
C615 H610 0.950 . S
C615 C617 1.327 . S
C615 C621 1.429 . S
C616 C608 1.574 . S
C616 H611 0.949 . S
C616 C622 1.368 . S
C617 C601 1.349 . S
C617 H609 0.950 . S
C617 C615 1.327 . S
C618 C606 1.349 . S
C618 H612 0.950 . S
C618 C619 1.327 . S
C619 H613 0.950 . S
C619 C618 1.327 . S
C619 C623 1.429 . S
C620 C603 1.574 . S
C620 H614 0.949 . S
C620 C624 1.368 . S
C621 C602 1.429 . S
C621 C615 1.429 . S
C621 C622 1.523 . S
C622 C603 1.368 . S
C622 C616 1.368 . S
C622 C621 1.523 . S
C623 C607 1.429 . S
C623 C619 1.429 . S
C623 C624 1.523 . S
C624 C608 1.368 . S
C624 C620 1.368 . S
C624 C623 1.523 . S
H625 C600 0.950 . S
H626 C602 0.950 . S
H627 C603 0.949 . S
H628 C605 0.950 . S
H629 C607 0.950 . S
C630 C631 1.349 . S
C630 C632 1.327 . S
C630 H655 0.950 . S
C631 C630 1.349 . S
C631 C647 1.349 . S
C632 C630 1.327 . S
C632 C651 1.429 . S
C632 H656 0.950 . S
C633 C650 1.574 . S
C633 C652 1.368 . S
C633 H657 0.949 . S
H634 C638 0.949 . S
C635 C636 1.349 . S
C635 C637 1.327 . S
C635 H658 0.950 . S
C636 C635 1.349 . S
C636 C648 1.349 . S
C637 C635 1.327 . S
C637 C653 1.429 . S
C637 H659 0.950 . S
C638 H634 0.949 . S
C638 C646 1.574 . S
C638 C654 1.368 . S
H639 C647 0.950 . S
H640 C645 0.950 . S
H641 C646 0.949 . S
H642 C648 0.950 . S
H643 C649 0.950 . S
H644 C650 0.949 . S
C645 H640 0.950 . S
C645 C647 1.327 . S
C645 C651 1.429 . S
C646 C638 1.574 . S
C646 H641 0.949 . S
C646 C652 1.368 . S
C647 C631 1.349 . S
C647 H639 0.950 . S
C647 C645 1.327 . S
C648 C636 1.349 . S
C648 H642 0.950 . S
C648 C649 1.327 . S
C649 H643 0.950 . S
C649 C648 1.327 . S
C649 C653 1.429 . S
C650 C633 1.574 . S
C650 H644 0.949 . S
C650 C654 1.368 . S
C651 C632 1.429 . S
C651 C645 1.429 . S
C651 C652 1.523 . S
C652 C633 1.368 . S
C652 C646 1.368 . S
C652 C651 1.523 . S
C653 C637 1.429 . S
C653 C649 1.429 . S
C653 C654 1.523 . S
C654 C638 1.368 . S
C654 C650 1.368 . S
C654 C653 1.523 . S
H655 C630 0.950 . S
H656 C632 0.950 . S
H657 C633 0.949 . S
H658 C635 0.950 . S
H659 C637 0.950 . S
C660 C661 1.349 . S
C660 C662 1.327 . S
C660 H685 0.950 . S
C661 C660 1.349 . S
C661 C677 1.349 . S
C662 C660 1.327 . S
C662 C681 1.429 . S
C662 H686 0.950 . S
C663 C680 1.574 . S
C663 C682 1.368 . S
C663 H687 0.949 . S
H664 C668 0.949 . S
C665 C666 1.349 . S
C665 C667 1.327 . S
C665 H688 0.950 . S
C666 C665 1.349 . S
C666 C678 1.349 . S
C667 C665 1.327 . S
C667 C683 1.429 . S
C667 H689 0.950 . S
C668 H664 0.949 . S
C668 C676 1.574 . S
C668 C684 1.368 . S
H669 C677 0.950 . S
H670 C675 0.950 . S
H671 C676 0.949 . S
H672 C678 0.950 . S
H673 C679 0.950 . S
H674 C680 0.949 . S
C675 H670 0.950 . S
C675 C677 1.327 . S
C675 C681 1.429 . S
C676 C668 1.574 . S
C676 H671 0.949 . S
C676 C682 1.368 . S
C677 C661 1.349 . S
C677 H669 0.950 . S
C677 C675 1.327 . S
C678 C666 1.349 . S
C678 H672 0.950 . S
C678 C679 1.327 . S
C679 H673 0.950 . S
C679 C678 1.327 . S
C679 C683 1.429 . S
C680 C663 1.574 . S
C680 H674 0.949 . S
C680 C684 1.368 . S
C681 C662 1.429 . S
C681 C675 1.429 . S
C681 C682 1.523 . S
C682 C663 1.368 . S
C682 C676 1.368 . S
C682 C681 1.523 . S
C683 C667 1.429 . S
C683 C679 1.429 . S
C683 C684 1.523 . S
C684 C668 1.368 . S
C684 C680 1.368 . S
C684 C683 1.523 . S
H685 C660 0.950 . S
H686 C662 0.950 . S
H687 C663 0.949 . S
H688 C665 0.950 . S
H689 C667 0.950 . S
C690 C691 1.349 . S
C690 C692 1.327 . S
C690 H715 0.950 . S
C691 C690 1.349 . S
C691 C707 1.349 . S
C692 C690 1.327 . S
C692 C711 1.429 . S
C692 H716 0.950 . S
C693 C710 1.574 . S
C693 C712 1.368 . S
C693 H717 0.949 . S
H694 C698 0.949 . S
C695 C696 1.349 . S
C695 C697 1.327 . S
C695 H718 0.950 . S
C696 C695 1.349 . S
C696 C708 1.349 . S
C697 C695 1.327 . S
C697 C713 1.429 . S
C697 H719 0.950 . S
C698 H694 0.949 . S
C698 C706 1.574 . S
C698 C714 1.368 . S
H699 C707 0.950 . S
H700 C705 0.950 . S
H701 C706 0.949 . S
H702 C708 0.950 . S
H703 C709 0.950 . S
H704 C710 0.949 . S
C705 H700 0.950 . S
C705 C707 1.327 . S
C705 C711 1.429 . S
C706 C698 1.574 . S
C706 H701 0.949 . S
C706 C712 1.368 . S
C707 C691 1.349 . S
C707 H699 0.950 . S
C707 C705 1.327 . S
C708 C696 1.349 . S
C708 H702 0.950 . S
C708 C709 1.327 . S
C709 H703 0.950 . S
C709 C708 1.327 . S
C709 C713 1.429 . S
C710 C693 1.574 . S
C710 H704 0.949 . S
C710 C714 1.368 . S
C711 C692 1.429 . S
C711 C705 1.429 . S
C711 C712 1.523 . S
C712 C693 1.368 . S
C712 C706 1.368 . S
C712 C711 1.523 . S
C713 C697 1.429 . S
C713 C709 1.429 . S
C713 C714 1.523 . S
C714 C698 1.368 . S
C714 C710 1.368 . S
C714 C713 1.523 . S
H715 C690 0.950 . S
H716 C692 0.950 . S
H717 C693 0.949 . S
H718 C695 0.950 . S
H719 C697 0.950 . S
C720 C721 1.349 . S
C720 C722 1.327 . S
C720 H745 0.950 . S
C721 C720 1.349 . S
C721 C737 1.349 . S
C722 C720 1.327 . S
C722 C741 1.429 . S
C722 H746 0.950 . S
C723 C740 1.574 . S
C723 C742 1.368 . S
C723 H747 0.949 . S
H724 C728 0.949 . S
C725 C726 1.349 . S
C725 C727 1.327 . S
C725 H748 0.950 . S
C726 C725 1.349 . S
C726 C738 1.349 . S
C727 C725 1.327 . S
C727 C743 1.429 . S
C727 H749 0.950 . S
C728 H724 0.949 . S
C728 C736 1.574 . S
C728 C744 1.368 . S
H729 C737 0.950 . S
H730 C735 0.950 . S
H731 C736 0.949 . S
H732 C738 0.950 . S
H733 C739 0.950 . S
H734 C740 0.949 . S
C735 H730 0.950 . S
C735 C737 1.327 . S
C735 C741 1.429 . S
C736 C728 1.574 . S
C736 H731 0.949 . S
C736 C742 1.368 . S
C737 C721 1.349 . S
C737 H729 0.950 . S
C737 C735 1.327 . S
C738 C726 1.349 . S
C738 H732 0.950 . S
C738 C739 1.327 . S
C739 H733 0.950 . S
C739 C738 1.327 . S
C739 C743 1.429 . S
C740 C723 1.574 . S
C740 H734 0.949 . S
C740 C744 1.368 . S
C741 C722 1.429 . S
C741 C735 1.429 . S
C741 C742 1.523 . S
C742 C723 1.368 . S
C742 C736 1.368 . S
C742 C741 1.523 . S
C743 C727 1.429 . S
C743 C739 1.429 . S
C743 C744 1.523 . S
C744 C728 1.368 . S
C744 C740 1.368 . S
C744 C743 1.523 . S
H745 C720 0.950 . S
H746 C722 0.950 . S
H747 C723 0.949 . S
H748 C725 0.950 . S
H749 C727 0.950 . S
C750 C751 1.349 . S
C750 C752 1.327 . S
C750 H775 0.950 . S
C751 C750 1.349 . S
C751 C767 1.349 . S
C752 C750 1.327 . S
C752 C771 1.429 . S
C752 H776 0.950 . S
C753 C770 1.574 . S
C753 C772 1.368 . S
C753 H777 0.949 . S
H754 C758 0.949 . S
C755 C756 1.349 . S
C755 C757 1.327 . S
C755 H778 0.950 . S
C756 C755 1.349 . S
C756 C768 1.349 . S
C757 C755 1.327 . S
C757 C773 1.429 . S
C757 H779 0.950 . S
C758 H754 0.949 . S
C758 C766 1.574 . S
C758 C774 1.368 . S
H759 C767 0.950 . S
H760 C765 0.950 . S
H761 C766 0.949 . S
H762 C768 0.950 . S
H763 C769 0.950 . S
H764 C770 0.949 . S
C765 H760 0.950 . S
C765 C767 1.327 . S
C765 C771 1.429 . S
C766 C758 1.574 . S
C766 H761 0.949 . S
C766 C772 1.368 . S
C767 C751 1.349 . S
C767 H759 0.950 . S
C767 C765 1.327 . S
C768 C756 1.349 . S
C768 H762 0.950 . S
C768 C769 1.327 . S
C769 H763 0.950 . S
C769 C768 1.327 . S
C769 C773 1.429 . S
C770 C753 1.574 . S
C770 H764 0.949 . S
C770 C774 1.368 . S
C771 C752 1.429 . S
C771 C765 1.429 . S
C771 C772 1.523 . S
C772 C753 1.368 . S
C772 C766 1.368 . S
C772 C771 1.523 . S
C773 C757 1.429 . S
C773 C769 1.429 . S
C773 C774 1.523 . S
C774 C758 1.368 . S
C774 C770 1.368 . S
C774 C773 1.523 . S
H775 C750 0.950 . S
H776 C752 0.950 . S
H777 C753 0.949 . S
H778 C755 0.950 . S
H779 C757 0.950 . S
C780 C781 1.349 1_655 S
C780 C782 1.327 . S
C780 H805 0.950 . S
C781 C780 1.349 1_455 S
C781 C797 1.349 . S
C782 C780 1.327 . S
C782 C801 1.429 1_655 S
C782 H806 0.950 . S
C783 C800 1.574 . S
C783 C802 1.368 . S
C783 H807 0.949 . S
H784 C788 0.949 . S
C785 C786 1.349 . S
C785 C787 1.327 1_556 S
C785 H808 0.950 . S
C786 C785 1.349 . S
C786 C798 1.349 . S
C787 C785 1.327 1_554 S
C787 C803 1.429 . S
C787 H809 0.950 . S
C788 H784 0.949 . S
C788 C796 1.574 . S
C788 C804 1.368 1_655 S
H789 C797 0.950 . S
H790 C795 0.950 . S
H791 C796 0.949 . S
H792 C798 0.950 1_655 S
H793 C799 0.945 1_655 S
H794 C800 0.949 . S
C795 H790 0.950 . S
C795 C797 1.327 . S
C795 C801 1.429 . S
C796 C788 1.574 . S
C796 H791 0.949 . S
C796 C802 1.368 1_655 S
C797 C781 1.349 . S
C797 H789 0.950 . S
C797 C795 1.327 . S
C798 C786 1.349 . S
C798 H792 0.950 1_455 S
C798 C799 1.328 1_556 S
C799 H793 0.945 1_455 S
C799 C798 1.328 1_554 S
C799 C803 1.432 . S
C800 C783 1.574 . S
C800 H794 0.949 . S
C800 C804 1.368 . S
C801 C782 1.429 1_455 S
C801 C795 1.429 . S
C801 C802 1.523 . S
C802 C783 1.368 . S
C802 C796 1.368 1_455 S
C802 C801 1.523 . S
C803 C787 1.429 . S
C803 C799 1.432 . S
C803 C804 1.523 . S
C804 C788 1.368 1_455 S
C804 C800 1.368 . S
C804 C803 1.523 . S
H805 C780 0.950 . S
H806 C782 0.950 . S
H807 C783 0.949 . S
H808 C785 0.950 . S
H809 C787 0.950 . S
C810 C811 1.349 . S
C810 C812 1.327 . S
C810 H835 0.950 . S
C811 C810 1.349 . S
C811 C827 1.349 1_545 S
C812 C810 1.327 . S
C812 C831 1.429 . S
C812 H836 0.950 . S
C813 C830 1.579 . S
C813 C832 1.368 1_565 S
C813 H837 0.949 . S
H814 C818 0.949 . S
C815 C816 1.349 . S
C815 C817 1.327 . S
C815 H838 0.950 1_545 S
C816 C815 1.349 . S
C816 C828 1.349 . S
C817 C815 1.327 . S
C817 C833 1.429 . S
C817 H839 0.950 1_545 S
C818 H814 0.949 . S
C818 C826 1.574 . S
C818 C834 1.368 . S
H819 C827 0.950 . S
H820 C825 0.950 . S
H821 C826 0.949 . S
H822 C828 0.950 . S
H823 C829 0.950 . S
H824 C830 0.958 . S
C825 H820 0.950 . S
C825 C827 1.327 . S
C825 C831 1.429 1_565 S
C826 C818 1.574 . S
C826 H821 0.949 . S
C826 C832 1.368 . S
C827 C811 1.349 1_565 S
C827 H819 0.950 . S
C827 C825 1.327 . S
C828 C816 1.349 . S
C828 H822 0.950 . S
C828 C829 1.327 . S
C829 H823 0.950 . S
C829 C828 1.327 . S
C829 C833 1.429 . S
C830 C813 1.579 . S
C830 H824 0.958 . S
C830 C834 1.354 1_565 S
C831 C812 1.429 . S
C831 C825 1.429 1_545 S
C831 C832 1.523 . S
C832 C813 1.368 1_545 S
C832 C826 1.368 . S
C832 C831 1.523 . S
C833 C817 1.429 . S
C833 C829 1.429 . S
C833 C834 1.523 . S
C834 C818 1.368 . S
C834 C830 1.354 1_545 S
C834 C833 1.523 . S
H835 C810 0.950 . S
H836 C812 0.950 . S
H837 C813 0.949 . S
H838 C815 0.950 1_565 S
H839 C817 0.950 1_565 S
C840 C841 1.349 . S
C840 C842 1.327 . S
C840 H865 0.950 . S
C841 C840 1.349 . S
C841 C857 1.349 . S
C842 C840 1.327 . S
C842 C861 1.429 . S
C842 H866 0.950 . S
C843 C860 1.574 . S
C843 C862 1.368 . S
C843 H867 0.949 . S
H844 C848 0.949 . S
C845 C846 1.349 . S
C845 C847 1.327 . S
C845 H868 0.950 . S
C846 C845 1.349 . S
C846 C858 1.349 . S
C847 C845 1.327 . S
C847 C863 1.429 . S
C847 H869 0.950 . S
C848 H844 0.949 . S
C848 C856 1.574 . S
C848 C864 1.368 . S
H849 C857 0.950 . S
H850 C855 0.950 . S
H851 C856 0.949 . S
H852 C858 0.950 . S
H853 C859 0.950 . S
H854 C860 0.949 . S
C855 H850 0.950 . S
C855 C857 1.327 . S
C855 C861 1.429 . S
C856 C848 1.574 . S
C856 H851 0.949 . S
C856 C862 1.368 . S
C857 C841 1.349 . S
C857 H849 0.950 . S
C857 C855 1.327 . S
C858 C846 1.349 . S
C858 H852 0.950 . S
C858 C859 1.327 . S
C859 H853 0.950 . S
C859 C858 1.327 . S
C859 C863 1.429 . S
C860 C843 1.574 . S
C860 H854 0.949 . S
C860 C864 1.368 . S
C861 C842 1.429 . S
C861 C855 1.429 . S
C861 C862 1.523 . S
C862 C843 1.368 . S
C862 C856 1.368 . S
C862 C861 1.523 . S
C863 C847 1.429 . S
C863 C859 1.429 . S
C863 C864 1.523 . S
C864 C848 1.368 . S
C864 C860 1.368 . S
C864 C863 1.523 . S
H865 C840 0.950 . S
H866 C842 0.950 . S
H867 C843 0.949 . S
H868 C845 0.950 . S
H869 C847 0.950 . S
C870 C871 1.349 . S
C870 C872 1.327 . S
C870 H895 0.950 . S
C871 C870 1.349 . S
C871 C887 1.349 1_545 S
C872 C870 1.327 . S
C872 C891 1.429 . S
C872 H896 0.950 . S
C873 C890 1.574 . S
C873 C892 1.368 1_565 S
C873 H897 0.949 . S
H874 C878 0.949 . S
C875 C876 1.349 1_565 S
C875 C877 1.327 . S
C875 H898 0.950 . S
C876 C875 1.349 1_545 S
C876 C888 1.349 . S
C877 C875 1.327 . S
C877 C893 1.429 1_565 S
C877 H899 0.950 . S
C878 H874 0.949 . S
C878 C886 1.574 . S
C878 C894 1.368 . S
H879 C887 0.950 . S
H880 C885 0.950 . S
H881 C886 0.949 . S
H882 C888 0.950 . S
H883 C889 0.950 . S
H884 C890 0.949 . S
C885 H880 0.950 . S
C885 C887 1.327 . S
C885 C891 1.429 1_565 S
C886 C878 1.574 . S
C886 H881 0.949 . S
C886 C892 1.368 . S
C887 C871 1.349 1_565 S
C887 H879 0.950 . S
C887 C885 1.327 . S
C888 C876 1.349 . S
C888 H882 0.950 . S
C888 C889 1.327 . S
C889 H883 0.950 . S
C889 C888 1.327 . S
C889 C893 1.429 . S
C890 C873 1.574 . S
C890 H884 0.949 . S
C890 C894 1.368 1_565 S
C891 C872 1.429 . S
C891 C885 1.429 1_545 S
C891 C892 1.523 . S
C892 C873 1.368 1_545 S
C892 C886 1.368 . S
C892 C891 1.523 . S
C893 C877 1.429 1_545 S
C893 C889 1.429 . S
C893 C894 1.523 . S
C894 C878 1.368 . S
C894 C890 1.368 1_545 S
C894 C893 1.523 . S
H895 C870 0.950 . S
H896 C872 0.950 . S
H897 C873 0.949 . S
H898 C875 0.950 . S
H899 C877 0.950 . S
C900 C901 1.349 . S
C900 C902 1.327 . S
C900 H925 0.950 . S
C901 C900 1.349 . S
C901 C917 1.349 . S
C902 C900 1.327 . S
C902 C921 1.429 . S
C902 H926 0.950 . S
C903 C920 1.574 . S
C903 C922 1.368 . S
C903 H927 0.949 . S
H904 C908 0.949 . S
C905 C906 1.349 . S
C905 C907 1.327 1_554 S
C905 H928 0.950 . S
C906 C905 1.349 . S
C906 C918 1.349 . S
C907 C905 1.327 1_556 S
C907 C923 1.429 . S
C907 H929 0.950 . S
C908 H904 0.949 . S
C908 C916 1.574 . S
C908 C924 1.368 . S
H909 C917 0.950 . S
H910 C915 0.950 . S
H911 C916 0.949 . S
H912 C918 0.950 . S
H913 C919 0.950 . S
H914 C920 0.949 . S
C915 H910 0.950 . S
C915 C917 1.327 . S
C915 C921 1.429 . S
C916 C908 1.574 . S
C916 H911 0.949 . S
C916 C922 1.368 . S
C917 C901 1.349 . S
C917 H909 0.950 . S
C917 C915 1.327 . S
C918 C906 1.349 . S
C918 H912 0.950 . S
C918 C919 1.327 1_554 S
C919 H913 0.950 . S
C919 C918 1.327 1_556 S
C919 C923 1.429 . S
C920 C903 1.574 . S
C920 H914 0.949 . S
C920 C924 1.368 . S
C921 C902 1.429 . S
C921 C915 1.429 . S
C921 C922 1.523 . S
C922 C903 1.368 . S
C922 C916 1.368 . S
C922 C921 1.523 . S
C923 C907 1.429 . S
C923 C919 1.429 . S
C923 C924 1.523 . S
C924 C908 1.368 . S
C924 C920 1.368 . S
C924 C923 1.523 . S
H925 C900 0.950 . S
H926 C902 0.950 . S
H927 C903 0.949 . S
H928 C905 0.950 . S
H929 C907 0.950 . S
C930 C931 1.340 1_655 S
C930 C932 1.327 . S
C930 H955 0.950 . S
C931 C930 1.340 1_455 S
C931 C947 1.358 . S
C932 C930 1.327 . S
C932 C951 1.429 1_655 S
C932 H956 0.949 . S
C933 C950 1.574 . S
C933 C952 1.368 . S
C933 H957 0.949 . S
H934 C938 0.949 . S
C935 C936 1.349 . S
C935 C937 1.327 . S
C935 H958 0.950 . S
C936 C935 1.349 . S
C936 C948 1.349 . S
C937 C935 1.327 . S
C937 C953 1.429 . S
C937 H959 0.950 . S
C938 H934 0.949 . S
C938 C946 1.574 . S
C938 C954 1.368 . S
H939 C947 0.950 . S
H940 C945 0.950 . S
H941 C946 0.952 . S
H942 C948 0.950 . S
H943 C949 0.950 . S
H944 C950 0.949 . S
C945 H940 0.950 . S
C945 C947 1.327 . S
C945 C951 1.429 . S
C946 C938 1.574 . S
C946 H941 0.952 . S
C946 C952 1.368 . S
C947 C931 1.358 . S
C947 H939 0.950 . S
C947 C945 1.327 . S
C948 C936 1.349 . S
C948 H942 0.950 . S
C948 C949 1.327 . S
C949 H943 0.950 . S
C949 C948 1.327 . S
C949 C953 1.429 . S
C950 C933 1.574 . S
C950 H944 0.949 . S
C950 C954 1.368 . S
C951 C932 1.429 1_455 S
C951 C945 1.429 . S
C951 C952 1.523 . S
C952 C933 1.368 . S
C952 C946 1.368 . S
C952 C951 1.523 . S
C953 C937 1.429 . S
C953 C949 1.429 . S
C953 C954 1.523 . S
C954 C938 1.368 . S
C954 C950 1.368 . S
C954 C953 1.523 . S
H955 C930 0.950 . S
H956 C932 0.949 . S
H957 C933 0.949 . S
H958 C935 0.950 . S
H959 C937 0.950 . S
C421 C2 1.278 . S
C426 C391 1.358 . S
C451 C22 1.250 . S
C456 C241 1.271 . S
C481 C44 1.314 . S
C486 C301 1.323 . S
C511 C4 1.496 . S
C516 C361 1.496 . S
C546 C271 1.634 . S
C541 C24 1.542 . S
C576 C331 1.547 . S
C571 C42 1.453 . S
C601 C32 1.266 . S
C606 C121 1.215 . S
C631 C49 1.209 . S
C636 C211 1.233 . S
C661 C9 1.194 . S
C666 C91 1.219 . S
C696 C151 1.199 . S
C691 C29 1.164 . S
C726 C181 1.197 . S
C721 C52 1.208 . S
C751 C12 1.201 . S
C756 C61 1.185 . S
C786 C200 1.412 . S
C781 C18 1.425 1_455 S
C811 C38 1.420 . S
C816 C80 1.414 . S
C841 C58 1.417 . S
C846 C140 1.409 . S
C876 C320 1.474 . S
C871 C39 1.482 . S
C906 C380 1.470 . S
C901 C59 1.462 . S
C931 C19 1.467 . S
C936 C260 1.461 . S
