# Generated by pormake.
# Topology pyr, (3,6)-cn, num edge types: 1
# Building blocks:
#     Node 0, Type 0, BuildingBlock: BELTOD_clean_linker_0, # of connection points: 3
#     Node 1, Type 0, BuildingBlock: BELTOD_clean_linker_0, # of connection points: 3
#     Node 2, Type 0, BuildingBlock: BELTOD_clean_linker_0, # of connection points: 3
#     Node 3, Type 0, BuildingBlock: BELTOD_clean_linker_0, # of connection points: 3
#     Node 4, Type 0, BuildingBlock: BELTOD_clean_linker_0, # of connection points: 3
#     Node 5, Type 0, BuildingBlock: BELTOD_clean_linker_0, # of connection points: 3
#     Node 6, Type 0, BuildingBlock: BELTOD_clean_linker_0, # of connection points: 3
#     Node 7, Type 0, BuildingBlock: BELTOD_clean_linker_0, # of connection points: 3
#     Node 8, Type 1, BuildingBlock: VOLQOD_clean_sbu_1, # of connection points: 6
#     Node 9, Type 1, BuildingBlock: VOLQOD_clean_sbu_1, # of connection points: 6
#     Node 10, Type 1, BuildingBlock: VOLQOD_clean_sbu_1, # of connection points: 6
#     Node 11, Type 1, BuildingBlock: VOLQOD_clean_sbu_1, # of connection points: 6
#     Edge 12, Type (0, 1), BuildingBlock: CIFDUS_clean_linker_0, # of connection points: 2
#     Edge 13, Type (0, 1), BuildingBlock: CIFDUS_clean_linker_0, # of connection points: 2
#     Edge 14, Type (0, 1), BuildingBlock: CIFDUS_clean_linker_0, # of connection points: 2
#     Edge 15, Type (0, 1), BuildingBlock: CIFDUS_clean_linker_0, # of connection points: 2
#     Edge 16, Type (0, 1), BuildingBlock: CIFDUS_clean_linker_0, # of connection points: 2
#     Edge 17, Type (0, 1), BuildingBlock: CIFDUS_clean_linker_0, # of connection points: 2
#     Edge 18, Type (0, 1), BuildingBlock: CIFDUS_clean_linker_0, # of connection points: 2
#     Edge 19, Type (0, 1), BuildingBlock: CIFDUS_clean_linker_0, # of connection points: 2
#     Edge 20, Type (0, 1), BuildingBlock: CIFDUS_clean_linker_0, # of connection points: 2
#     Edge 21, Type (0, 1), BuildingBlock: CIFDUS_clean_linker_0, # of connection points: 2
#     Edge 22, Type (0, 1), BuildingBlock: CIFDUS_clean_linker_0, # of connection points: 2
#     Edge 23, Type (0, 1), BuildingBlock: CIFDUS_clean_linker_0, # of connection points: 2
#     Edge 24, Type (0, 1), BuildingBlock: CIFDUS_clean_linker_0, # of connection points: 2
#     Edge 25, Type (0, 1), BuildingBlock: CIFDUS_clean_linker_0, # of connection points: 2
#     Edge 26, Type (0, 1), BuildingBlock: CIFDUS_clean_linker_0, # of connection points: 2
#     Edge 27, Type (0, 1), BuildingBlock: CIFDUS_clean_linker_0, # of connection points: 2
#     Edge 28, Type (0, 1), BuildingBlock: CIFDUS_clean_linker_0, # of connection points: 2
#     Edge 29, Type (0, 1), BuildingBlock: CIFDUS_clean_linker_0, # of connection points: 2
#     Edge 30, Type (0, 1), BuildingBlock: CIFDUS_clean_linker_0, # of connection points: 2
#     Edge 31, Type (0, 1), BuildingBlock: CIFDUS_clean_linker_0, # of connection points: 2
#     Edge 32, Type (0, 1), BuildingBlock: CIFDUS_clean_linker_0, # of connection points: 2
#     Edge 33, Type (0, 1), BuildingBlock: CIFDUS_clean_linker_0, # of connection points: 2
#     Edge 34, Type (0, 1), BuildingBlock: CIFDUS_clean_linker_0, # of connection points: 2
#     Edge 35, Type (0, 1), BuildingBlock: CIFDUS_clean_linker_0, # of connection points: 2
# Relax obj value: 0.036
# Max RMSD: 0.117
# Mean RMSD: 0.050
data_MOF--net-pry--node1-VOLQOD_clean_sbu_1--node2-BELTOD_clean_linker_0--edge1-CIFDUS_clean_linker_0
_symmetry_space_group_name_H-M    P1
_symmetry_Int_Tables_number       1
_symmetry_cell_setting            triclinic
loop_
_symmetry_equiv_pos_as_xyz
'x, y, z'
_cell_length_a     37.72315
_cell_length_b     38.151009
_cell_length_c     37.699669
_cell_angle_alpha  89.907751
_cell_angle_beta   90.06747
_cell_angle_gamma 90.09763
loop_
_atom_site_label
_atom_site_type_symbol
_atom_site_fract_x
_atom_site_fract_y
_atom_site_fract_z
_atom_type_partial_charge
P0 P 0.15896 0.16873 0.16922 0.0
H1 H 0.21499 0.17957 0.11787 0.0
H2 H 0.2576 0.13988 0.09051 0.0
H3 H 0.20427 0.05151 0.13869 0.0
H4 H 0.16166 0.09143 0.16601 0.0
H5 H 0.10863 0.2226 0.1876 0.0
H6 H 0.0748 0.26417 0.15211 0.0
H7 H 0.10836 0.21128 0.05655 0.0
H8 H 0.14272 0.17003 0.09242 0.0
H9 H 0.18497 0.14445 0.23694 0.0
H10 H 0.08595 0.14264 0.17969 0.0
O11 O 0.18679 0.19782 0.1871 0.0
H12 H 0.15683 0.11526 0.28712 0.0
H13 H 0.05717 0.11392 0.23045 0.0
C14 C 0.18549 0.13851 0.14422 0.0
C15 C 0.21209 0.1516 0.12199 0.0
C16 C 0.23631 0.12886 0.10626 0.0
C17 C 0.23438 0.09257 0.11266 0.0
C18 C 0.20662 0.07938 0.13366 0.0
C19 C 0.1822 0.1022 0.14919 0.0
C20 C 0.12828 0.19342 0.14267 0.0
C21 C 0.10803 0.21947 0.15905 0.0
C22 C 0.08853 0.24312 0.13867 0.0
C23 C 0.089 0.24118 0.10142 0.0
C24 C 0.10783 0.21374 0.08516 0.0
C25 C 0.12739 0.19005 0.10566 0.0
C26 C 0.13726 0.14659 0.20519 0.0
C27 C 0.15703 0.138 0.23535 0.0
C28 C 0.1409 0.12135 0.26399 0.0
C29 C 0.10463 0.11291 0.26295 0.0
C30 C 0.08513 0.12022 0.232 0.0
C31 C 0.10143 0.1369 0.20318 0.0
P32 P 0.42373 0.90103 0.59493 0.0
H33 H 0.49033 0.92178 0.62871 0.0
H34 H 0.50732 0.92951 0.69107 0.0
H35 H 0.40048 0.90337 0.72296 0.0
H36 H 0.38377 0.89595 0.66104 0.0
H37 H 0.43152 0.86457 0.52743 0.0
H38 H 0.44687 0.80382 0.5125 0.0
H39 H 0.45477 0.77917 0.6241 0.0
H40 H 0.43936 0.83922 0.63881 0.0
H41 H 0.38239 0.96437 0.60164 0.0
H42 H 0.36241 0.85544 0.57852 0.0
O43 O 0.44626 0.92818 0.5685 0.0
H44 H 0.31893 0.97615 0.59982 0.0
H45 H 0.29889 0.86724 0.5751 0.0
C46 C 0.43557 0.90946 0.64027 0.0
C47 C 0.47053 0.91824 0.64918 0.0
C48 C 0.48027 0.92225 0.68475 0.0
C49 C 0.45512 0.91733 0.71181 0.0
C50 C 0.42024 0.90803 0.70265 0.0
C51 C 0.41062 0.90393 0.66722 0.0
C52 C 0.43501 0.85659 0.58413 0.0
C53 C 0.43673 0.84604 0.54859 0.0
C54 C 0.44529 0.81141 0.54013 0.0
C55 C 0.45238 0.78701 0.56719 0.0
C56 C 0.45009 0.79763 0.60274 0.0
C57 C 0.44121 0.83205 0.61114 0.0
C58 C 0.37713 0.90926 0.58964 0.0
C59 C 0.36432 0.94313 0.59548 0.0
C60 C 0.328 0.9498 0.59436 0.0
C61 C 0.30373 0.92268 0.58704 0.0
C62 C 0.31677 0.88865 0.58113 0.0
C63 C 0.35319 0.88196 0.58261 0.0
P64 P 0.6631 0.34233 0.84941 0.0
H65 H 0.71635 0.32323 0.9008 0.0
H66 H 0.75376 0.3572 0.94084 0.0
H67 H 0.70196 0.45237 0.90646 0.0
H68 H 0.66452 0.41806 0.86625 0.0
H69 H 0.63374 0.27579 0.8264 0.0
H70 H 0.60356 0.22837 0.85801 0.0
H71 H 0.60644 0.28945 0.95439 0.0
H72 H 0.63645 0.3369 0.92255 0.0
H73 H 0.67852 0.38801 0.79001 0.0
H74 H 0.58586 0.35395 0.84754 0.0
O75 O 0.69226 0.32196 0.82339 0.0
H76 H 0.64084 0.41797 0.747 0.0
H77 H 0.54786 0.38419 0.8047 0.0
C78 C 0.68797 0.36815 0.88044 0.0
C79 C 0.7128 0.35138 0.90217 0.0
C80 C 0.73391 0.37079 0.92527 0.0
C81 C 0.73068 0.40745 0.92688 0.0
C82 C 0.7051 0.42416 0.90562 0.0
C83 C 0.68375 0.40459 0.88262 0.0
C84 C 0.63814 0.30931 0.87239 0.0
C85 C 0.62766 0.27902 0.85428 0.0
C86 C 0.6102 0.25211 0.87229 0.0
C87 C 0.60296 0.25518 0.90871 0.0
C88 C 0.6122 0.28626 0.92644 0.0
C89 C 0.62939 0.31331 0.90828 0.0
C90 C 0.63494 0.36826 0.82142 0.0
C91 C 0.65004 0.38744 0.79361 0.0
C92 C 0.62846 0.40479 0.76924 0.0
C93 C 0.59133 0.40327 0.77236 0.0
C94 C 0.57635 0.38543 0.80138 0.0
C95 C 0.59805 0.36817 0.82588 0.0
P96 P 0.84314 0.68024 0.36866 0.0
H97 H 0.8651 0.74947 0.34608 0.0
H98 H 0.90588 0.7924 0.37072 0.0
H99 H 0.92778 0.72272 0.45866 0.0
H100 H 0.88551 0.68016 0.43416 0.0
H101 H 0.82336 0.64026 0.3063 0.0
H102 H 0.8577 0.60695 0.2632 0.0
H103 H 0.95271 0.62505 0.32476 0.0
H104 H 0.91817 0.6587 0.36764 0.0
H105 H 0.7932 0.70147 0.42268 0.0
H106 H 0.83835 0.60473 0.38486 0.0
O107 O 0.81348 0.70167 0.34395 0.0
H108 H 0.75021 0.66849 0.45776 0.0
H109 H 0.79596 0.57151 0.42046 0.0
C110 C 0.87177 0.71211 0.38875 0.0
C111 C 0.87833 0.74359 0.37089 0.0
C112 C 0.90213 0.7679 0.38478 0.0
C113 C 0.92041 0.7609 0.41655 0.0
C114 C 0.9139 0.72906 0.43434 0.0
C115 C 0.88976 0.70477 0.42044 0.0
C116 C 0.86836 0.65265 0.33959 0.0
C117 C 0.85154 0.63685 0.31063 0.0
C118 C 0.87116 0.61754 0.28621 0.0
C119 C 0.90798 0.61356 0.2905 0.0
C120 C 0.92448 0.62811 0.32053 0.0
C121 C 0.90474 0.64735 0.34504 0.0
C122 C 0.8186 0.65557 0.40093 0.0
C123 C 0.79449 0.6731 0.42277 0.0
C124 C 0.77004 0.65418 0.44295 0.0
C125 C 0.76938 0.61734 0.44155 0.0
C126 C 0.7954 0.59987 0.42159 0.0
C127 C 0.81978 0.61886 0.40133 0.0
P128 P 0.92537 0.92998 0.95365 0.0
H129 H 0.88858 0.95989 0.01473 0.0
H130 H 0.82588 0.96996 0.02754 0.0
H131 H 0.79802 0.92626 0.92548 0.0
H132 H 0.86043 0.91528 0.9135 0.0
H133 H 0.98592 0.88793 0.93227 0.0
H134 H -0.00021 0.8256 0.93897 0.0
H135 H 0.90738 0.81209 0.00494 0.0
H136 H 0.89274 0.87429 -0.00276 0.0
H137 H 0.9503 0.99189 0.91463 0.0
H138 H 0.91773 0.8861 0.89065 0.0
O139 O 0.95034 0.95679 0.97815 0.0
H140 H 0.96451 0.00153 0.85186 0.0
H141 H 0.93198 0.89548 0.82825 0.0
C142 C 0.87922 0.9376 0.96284 0.0
C143 C 0.86894 0.95261 0.9951 0.0
C144 C 0.83308 0.95843 0.00233 0.0
C145 C 0.80688 0.94917 0.97742 0.0
C146 C 0.8174 0.93344 0.9454 0.0
C147 C 0.85321 0.9275 0.93832 0.0
C148 C 0.93777 0.88547 0.9634 0.0
C149 C 0.96864 0.87162 0.94824 0.0
C150 C 0.97658 0.83612 0.95205 0.0
C151 C 0.95438 0.81426 0.97211 0.0
C152 C 0.92474 0.82859 0.98924 0.0
C153 C 0.91636 0.86403 0.98477 0.0
C154 C 0.93382 0.93805 0.90737 0.0
C155 C 0.94621 0.97079 0.89589 0.0
C156 C 0.95415 0.9763 0.86007 0.0
C157 C 0.9498 0.94906 0.83534 0.0
C158 C 0.93627 0.91668 0.84685 0.0
C159 C 0.92808 0.91134 0.88249 0.0
P160 P 0.64185 0.11519 0.37761 0.0
H161 H 0.67886 0.17633 0.40296 0.0
H162 H 0.65859 0.23202 0.42713 0.0
H163 H 0.55133 0.19217 0.43053 0.0
H164 H 0.57223 0.13572 0.40773 0.0
H165 H 0.70207 0.07157 0.36047 0.0
H166 H 0.74926 0.04766 0.3968 0.0
H167 H 0.69104 0.0755 0.49149 0.0
H168 H 0.64428 0.10087 0.4544 0.0
H169 H 0.57955 0.13907 0.33981 0.0
H170 H 0.63006 0.04027 0.36296 0.0
O171 O 0.6672 0.13128 0.34515 0.0
H172 H 0.5431 0.11086 0.29493 0.0
H173 H 0.59424 0.01205 0.31686 0.0
C174 C 0.62679 0.15258 0.4022 0.0
C175 C 0.65107 0.17938 0.40945 0.0
C176 C 0.63943 0.21121 0.42313 0.0
C177 C 0.60321 0.2168 0.42966 0.0
C178 C 0.57936 0.18872 0.42545 0.0
C179 C 0.59119 0.1566 0.41204 0.0
C180 C 0.67022 0.08866 0.40479 0.0
C181 C 0.6991 0.07187 0.38904 0.0
C182 C 0.72602 0.0579 0.41001 0.0
C183 C 0.72432 0.06004 0.44725 0.0
C184 C 0.69361 0.07413 0.46293 0.0
C185 C 0.66672 0.08839 0.44178 0.0
C186 C 0.60708 0.0917 0.35532 0.0
C187 C 0.58165 0.11097 0.3365 0.0
C188 C 0.56104 0.09489 0.31053 0.0
C189 C 0.56616 0.05939 0.30224 0.0
C190 C 0.58956 0.03938 0.323 0.0
C191 C 0.61009 0.05554 0.34931 0.0
P192 P 0.41834 0.57563 0.08233 0.0
H193 H 0.37161 0.51646 0.06951 0.0
H194 H 0.30744 0.51188 0.06216 0.0
H195 H 0.29945 0.62492 0.06318 0.0
H196 H 0.36341 0.62918 0.07167 0.0
H197 H 0.4381 0.63501 0.12801 0.0
H198 H 0.45745 0.69448 0.11477 0.0
H199 H 0.45282 0.67156 0.00258 0.0
H200 H 0.43452 0.61147 0.01618 0.0
H201 H 0.47791 0.55237 0.12574 0.0
H202 H 0.36794 0.57897 0.14153 0.0
O203 O 0.44112 0.54622 0.05893 0.0
H204 H 0.48443 0.54189 0.18948 0.0
H205 H 0.37379 0.56723 0.20459 0.0
C206 C 0.37232 0.57309 0.0703 0.0
C207 C 0.35607 0.54023 0.06738 0.0
C208 C 0.31939 0.53769 0.06321 0.0
C209 C 0.2983 0.56807 0.06204 0.0
C210 C 0.31487 0.60103 0.06434 0.0
C211 C 0.35155 0.6035 0.06868 0.0
C212 C 0.43541 0.61866 0.07302 0.0
C213 C 0.44176 0.64249 0.10057 0.0
C214 C 0.4525 0.6767 0.09295 0.0
C215 C 0.45659 0.68784 0.05761 0.0
C216 C 0.45044 0.6637 0.03009 0.0
C217 C 0.43989 0.6294 0.03778 0.0
C218 C 0.42234 0.56567 0.12878 0.0
C219 C 0.45506 0.55535 0.14283 0.0
C220 C 0.45868 0.54928 0.17923 0.0
C221 C 0.42955 0.55353 0.20214 0.0
C222 C 0.39683 0.56403 0.18781 0.0
C223 C 0.39336 0.57034 0.15154 0.0
P224 P 0.10952 0.39716 0.62208 0.0
H225 H 0.12049 0.35462 0.55968 0.0
H226 H 0.08725 0.30398 0.53885 0.0
H227 H -0.0006 0.33281 0.60573 0.0
H228 H 0.03219 0.38452 0.62567 0.0
H229 H 0.16074 0.44589 0.64995 0.0
H230 H 0.21185 0.47356 0.62222 0.0
H231 H 0.17198 0.44483 0.51895 0.0
H232 H 0.11992 0.41792 0.54683 0.0
H233 H 0.08127 0.36007 0.68227 0.0
H234 H 0.092 0.46795 0.64951 0.0
O235 O 0.13859 0.36708 0.63574 0.0
H236 H 0.06216 0.37894 0.74089 0.0
H237 H 0.07378 0.48715 0.70891 0.0
C238 C 0.07906 0.37323 0.59449 0.0
C239 C 0.09325 0.35151 0.5682 0.0
C240 C 0.07432 0.32237 0.55647 0.0
C241 C 0.04114 0.31435 0.57125 0.0
C242 C 0.02495 0.33857 0.59396 0.0
C243 C 0.04386 0.36803 0.60551 0.0
C244 C 0.13656 0.42965 0.60054 0.0
C245 C 0.1619 0.44705 0.62126 0.0
C246 C 0.1913 0.4626 0.60543 0.0
C247 C 0.19603 0.46069 0.56857 0.0
C248 C 0.16884 0.4466 0.54745 0.0
C249 C 0.13919 0.43104 0.56343 0.0
C250 C 0.08888 0.41261 0.66198 0.0
C251 C 0.07916 0.38788 0.68765 0.0
C252 C 0.06842 0.39868 0.72116 0.0
C253 C 0.06737 0.43448 0.72967 0.0
C254 C 0.07456 0.45938 0.70306 0.0
C255 C 0.08517 0.44845 0.66925 0.0
O256 O 0.98885 0.09433 0.56768 0.0
Zn257 Zn 0.97617 0.04248 0.56503 0.0
O258 O 0.01288 0.01522 0.54134 0.0
Zn259 Zn 0.9964 -0.00103 0.49545 0.0
Zn260 Zn 0.05251 0.0457 0.53444 0.0
Zn261 Zn 0.02812 0.97519 0.56974 0.0
O262 O 0.00287 0.94702 0.49121 0.0
O263 O 0.01097 0.93019 0.54719 0.0
O264 O 0.92907 0.03646 0.54023 0.0
O265 O 0.94387 0.00637 0.49204 0.0
O266 O 0.01987 0.02444 0.45433 0.0
O267 O 0.05705 0.05886 0.48368 0.0
O268 O 0.09764 0.02304 0.54827 0.0
O269 O 0.97144 0.02523 0.6153 0.0
O270 O 0.08211 0.97247 0.57279 0.0
O271 O 0.0076 0.97929 0.61896 0.0
C272 C 0.01972 0.1079 0.5688 0.0
C273 C 0.00491 0.92306 0.51471 0.0
C274 C 0.04333 0.04851 0.45473 0.0
C275 C 0.92064 0.0211 0.51142 0.0
C276 C 0.10591 0.99411 0.56276 0.0
C277 C 0.98546 0.00035 0.63303 0.0
O278 O 0.04713 0.09034 0.56067 0.0
O279 O 0.49113 0.06037 0.96673 0.0
Zn280 Zn 0.47052 0.01317 0.9782 0.0
O281 O 0.50129 0.98599 0.0092 0.0
Zn282 Zn 0.5188 0.94501 0.98341 0.0
Zn283 Zn 0.54132 0.01507 0.02291 0.0
Zn284 Zn 0.47469 0.97173 0.05167 0.0
O285 O 0.50177 0.90096 0.00729 0.0
O286 O 0.47154 0.91903 0.05443 0.0
O287 O 0.4633 0.98911 0.93201 0.0
O288 O 0.50087 0.94439 0.93271 0.0
O289 O 0.57236 0.94358 0.98258 0.0
O290 O 0.58769 0.99214 0.01104 0.0
O291 O 0.54056 0.02399 0.07491 0.0
O292 O 0.42304 0.02091 -3e-05 0.0
O293 O 0.49764 0.99032 0.09664 0.0
O294 O 0.42477 0.99139 0.05068 0.0
C295 C 0.51907 0.07611 0.97693 0.0
C296 C 0.48351 0.89446 0.03496 0.0
C297 C 0.59605 0.9641 0.99486 0.0
C298 C 0.4778 0.9631 0.91685 0.0
C299 C 0.52287 0.01215 0.10103 0.0
C300 C 0.40832 0.0107 0.0285 0.0
O301 O 0.54057 0.06178 -0.00148 0.0
O302 O 0.52882 0.5095 0.57601 0.0
Zn303 Zn 0.52284 0.52602 0.52578 0.0
O304 O 0.49434 0.49322 0.49795 0.0
Zn305 Zn 0.52325 0.47487 0.45969 0.0
Zn306 Zn 0.47888 0.45439 0.52817 0.0
Zn307 Zn 0.45303 0.51737 0.4779 0.0
O308 O 0.50122 0.48413 0.41231 0.0
O309 O 0.4528 0.51484 0.42444 0.0
O310 O 0.57176 0.53211 0.50538 0.0
O311 O 0.57178 0.49645 0.45904 0.0
O312 O 0.52923 0.42328 0.46441 0.0
O313 O 0.49593 0.40733 0.51011 0.0
O314 O 0.42588 0.45378 0.53189 0.0
O315 O 0.50031 0.57349 0.5264 0.0
O316 O 0.40736 0.49675 0.49665 0.0
O317 O 0.45329 0.56841 0.4913 0.0
C318 C 0.51768 0.48265 0.59272 0.0
C319 C 0.47366 0.50054 0.40223 0.0
C320 C 0.51681 0.39967 0.48476 0.0
C321 C 0.58739 0.51864 0.47881 0.0
C322 C 0.40094 0.4718 0.51823 0.0
C323 C 0.47338 0.58677 0.5111 0.0
O324 O 0.49841 0.4597 0.57754 0.0
O325 O 0.95687 0.50526 0.0934 0.0
Zn326 Zn 0.96278 0.48701 0.04399 0.0
O327 O 0.9967 0.51558 0.0177 0.0
Zn328 Zn 0.97287 0.54058 0.97902 0.0
Zn329 Zn 0.01937 0.54898 0.04987 0.0
Zn330 Zn 0.03218 0.48483 -0.0023 0.0
O331 O 0.99328 0.52815 0.93109 0.0
O332 O 0.02977 0.48469 0.9449 0.0
O333 O 0.91532 0.48734 0.01987 0.0
O334 O 0.92155 0.52641 0.97658 0.0
O335 O 0.97566 0.59285 0.98602 0.0
O336 O 0.00673 0.59831 0.03585 0.0
O337 O 0.07295 0.54469 0.04872 0.0
O338 O 0.97904 0.43685 0.04865 0.0
O339 O 0.08072 0.50118 0.01053 0.0
O340 O 0.02745 0.43546 0.01545 0.0
C341 C 0.97482 0.52634 0.11247 0.0
C342 C 0.01461 0.50398 0.92191 0.0
C343 C 0.9896 0.61178 0.01012 0.0
C344 C 0.90264 0.50461 0.99385 0.0
C345 C 0.09326 0.52459 0.031 0.0
C346 C 0.00522 0.42025 0.03567 0.0
O347 O 0.00102 0.54333 0.09976 0.0
H348 H 0.11285 0.13439 0.33042 0.0
H349 H 0.05741 0.05807 0.26687 0.0
H350 H 0.032 0.03189 0.32064 0.0
H351 H 0.02812 0.0293 0.38622 0.0
H352 H 0.08565 0.10577 0.44834 0.0
H353 H 0.10795 0.13292 0.3946 0.0
C354 C 0.09539 0.11186 0.32831 0.0
C355 C 0.08739 0.09788 0.29484 0.0
C356 C 0.08139 0.09684 0.35912 0.0
C357 C 0.06393 0.06931 0.29242 0.0
C358 C 0.04958 0.05425 0.32314 0.0
C359 C 0.0454 0.05198 0.38794 0.0
C360 C 0.05535 0.06521 0.42137 0.0
C361 C 0.05848 0.06757 0.35672 0.0
C362 C 0.07773 0.09472 0.42309 0.0
C363 C 0.09052 0.1104 0.39233 0.0
H364 H 0.41792 0.9524 0.76147 0.0
H365 H 0.51412 0.89336 0.74654 0.0
H366 H 0.52922 0.90107 0.80926 0.0
H367 H 0.51496 0.92507 0.86828 0.0
H368 H 0.41878 0.9848 0.88191 0.0
H369 H 0.40348 0.97573 0.81987 0.0
C370 C 0.44204 0.94094 0.77203 0.0
C371 C 0.4648 0.92225 0.74954 0.0
C372 C 0.45046 0.94545 0.80789 0.0
C373 C 0.49632 0.90813 0.76335 0.0
C374 C 0.50484 0.91233 0.79921 0.0
C375 C 0.49053 0.93582 0.8577 0.0
C376 C 0.46806 0.95555 0.87969 0.0
C377 C 0.48207 0.93096 0.82174 0.0
C378 C 0.43664 0.96962 0.86554 0.0
C379 C 0.42784 0.96448 0.83005 0.0
H380 H 0.59854 0.46548 0.73769 0.0
H381 H 0.53371 0.37227 0.74191 0.0
H382 H 0.5023 0.39075 0.6885 0.0
H383 H 0.4981 0.42971 0.637 0.0
H384 H 0.56457 0.52186 0.63141 0.0
H385 H 0.59043 0.50742 0.68889 0.0
C386 C 0.57733 0.44939 0.72704 0.0
C387 C 0.56872 0.41742 0.74353 0.0
C388 C 0.55993 0.45976 0.69586 0.0
C389 C 0.54072 0.39713 0.72988 0.0
C390 C 0.52295 0.40751 0.69913 0.0
C391 C 0.51795 0.44689 0.64849 0.0
C392 C 0.52973 0.47652 0.62959 0.0
C393 C 0.53307 0.43823 0.68134 0.0
C394 C 0.55518 0.4987 0.64517 0.0
C395 C 0.57007 0.49044 0.67804 0.0
H396 H 0.89252 0.55377 0.25453 0.0
H397 H 0.97079 0.63597 0.26267 0.0
H398 H 0.00111 0.61345 0.21032 0.0
H399 H 0.00122 0.57483 0.15844 0.0
H400 H 0.92123 0.4942 0.1489 0.0
H401 H 0.89584 0.51172 0.20554 0.0
C402 C 0.91636 0.56658 0.24495 0.0
C403 C 0.92915 0.59668 0.26221 0.0
C404 C 0.93318 0.554 0.21439 0.0
C405 C 0.96049 0.61262 0.24999 0.0
C406 C 0.97768 0.59994 0.21987 0.0
C407 C 0.97855 0.56072 0.16894 0.0
C408 C 0.96288 0.53358 0.14912 0.0
C409 C 0.96366 0.57128 0.20128 0.0
C410 C 0.93365 0.51546 0.16335 0.0
C411 C 0.91903 0.52547 0.19575 0.0
H412 H 0.26458 0.09202 0.04733 0.0
H413 H 0.26881 0.04129 0.14957 0.0
H414 H 0.32143 0.00872 0.1314 0.0
H415 H 0.36962 -0.0007 0.08863 0.0
H416 H 0.36589 0.05162 0.98696 0.0
H417 H 0.30987 0.07888 0.00283 0.0
C418 C 0.27691 0.07364 0.06551 0.0
C419 C 0.26302 0.06929 0.09979 0.0
C420 C 0.30749 0.05552 0.05515 0.0
C421 C 0.27885 0.04494 0.12291 0.0
C422 C 0.30913 0.02653 0.11266 0.0
C423 C 0.35638 0.01633 0.06977 0.0
C424 C 0.3723 0.0237 0.03685 0.0
C425 C 0.3242 0.03229 0.07915 0.0
C426 C 0.35453 0.04568 0.01265 0.0
C427 C 0.32244 0.06136 0.02168 0.0
H428 H 0.27202 0.97993 0.55869 0.0
H429 H 0.24846 0.88216 0.61141 0.0
H430 H 0.18506 0.89532 0.60871 0.0
H431 H 0.13624 0.9352 0.59168 0.0
H432 H 0.16171 0.03384 0.54107 0.0
H433 H 0.22435 0.01998 0.54358 0.0
C434 C 0.25314 0.96164 0.57009 0.0
C435 C 0.2651 0.93018 0.58533 0.0
C436 C 0.21695 0.96961 0.56903 0.0
C437 C 0.24003 0.90644 0.59912 0.0
C438 C 0.20376 0.91406 0.59784 0.0
C439 C 0.15551 0.9537 0.58136 0.0
C440 C 0.14406 0.98549 0.5662 0.0
C441 C 0.19189 0.94565 0.58289 0.0
C442 C 0.16952 0.00915 0.55294 0.0
C443 C 0.20549 0.00127 0.55425 0.0
H444 H 0.76634 0.46595 0.9069 0.0
H445 H 0.75292 0.39437 0.99459 0.0
H446 H 0.80305 0.42133 0.02532 0.0
H447 H 0.8548 0.46008 0.02368 0.0
H448 H 0.86907 0.53066 0.9351 0.0
H449 H 0.81391 0.50979 0.90876 0.0
C450 C 0.77377 0.45689 0.93316 0.0
C451 C 0.75628 0.42796 0.94828 0.0
C452 C 0.80295 0.47211 0.95037 0.0
C453 C 0.7664 0.41627 0.98218 0.0
C454 C 0.79502 0.43166 -0.00025 0.0
C455 C 0.84563 0.47131 -0.00113 0.0
C456 C 0.86643 0.49644 0.98112 0.0
C457 C 0.81423 0.45877 0.98351 0.0
C458 C 0.85383 0.51102 0.94921 0.0
C459 C 0.82231 0.49903 0.93403 0.0
H460 H 0.73299 0.56378 0.41156 0.0
H461 H 0.73699 0.62768 0.50584 0.0
H462 H 0.68171 0.60123 0.52675 0.0
H463 H 0.63009 0.56331 0.51584 0.0
H464 H 0.62664 0.49977 0.42112 0.0
H465 H 0.68432 0.52235 0.40319 0.0
C466 C 0.72234 0.57132 0.43714 0.0
C467 C 0.73907 0.59776 0.45705 0.0
C468 C 0.69048 0.55629 0.44878 0.0
C469 C 0.72442 0.60766 0.48981 0.0
C470 C 0.69284 0.59254 0.50178 0.0
C471 C 0.64205 0.55417 0.49141 0.0
C472 C 0.62378 0.53016 0.4697 0.0
C473 C 0.67521 0.56743 0.48106 0.0
C474 C 0.6399 0.5184 0.43829 0.0
C475 C 0.67292 0.53131 0.42794 0.0
H476 H 0.02616 0.27493 0.11218 0.0
H477 H 0.11717 0.27282 0.04289 0.0
H478 H 0.09683 0.32608 0.0136 0.0
H479 H 0.05737 0.37686 0.01245 0.0
H480 H 0.96784 0.38086 0.08364 0.0
H481 H 0.98356 0.3234 0.10739 0.0
C482 C 0.04139 0.28599 0.09049 0.0
C483 C 0.0733 0.27 0.08001 0.0
C484 C 0.03007 0.31723 0.07436 0.0
C485 C 0.09235 0.2843 0.05136 0.0
C486 C 0.08093 0.31502 0.0348 0.0
C487 C 0.041 0.36506 0.03288 0.0
C488 C 0.01177 0.38347 0.04657 0.0
C489 C 0.05045 0.33226 0.04681 0.0
C490 C 0.99066 0.36748 0.07276 0.0
C491 C -0.00033 0.33461 0.08645 0.0
H492 H 0.54692 0.21452 0.8898 0.0
H493 H 0.62577 0.2283 0.97158 0.0
H494 H 0.60532 0.17499 0.00117 0.0
H495 H 0.56802 0.12239 0.00137 0.0
H496 H 0.48913 0.10835 0.9195 0.0
H497 H 0.50663 0.16387 0.89237 0.0
C498 C 0.55945 0.20587 0.91419 0.0
C499 C 0.5879 0.22509 0.9284 0.0
C500 C 0.54775 0.17509 0.93089 0.0
C501 C 0.60363 0.21402 0.96029 0.0
C502 C 0.59214 0.18343 0.97707 0.0
C503 C 0.55452 0.13154 0.97769 0.0
C504 C 0.5276 0.11106 0.96227 0.0
C505 C 0.56468 0.16344 0.96223 0.0
C506 C 0.51003 0.12355 0.93187 0.0
C507 C 0.52006 0.15525 0.91627 0.0
H508 H 0.92926 0.77986 0.48581 0.0
H509 H 0.96756 0.80169 0.38014 0.0
H510 H 0.00052 0.85211 0.40221 0.0
H511 H 0.01253 0.89381 0.44998 0.0
H512 H 0.9758 0.87166 0.55599 0.0
H513 H 0.94915 0.81681 0.53551 0.0
C514 C 0.94551 0.79508 0.46774 0.0
C515 C 0.94515 0.78752 0.43121 0.0
C516 C 0.96461 0.82402 0.48063 0.0
C517 C 0.96643 0.80759 0.40821 0.0
C518 C 0.98548 0.83632 0.42081 0.0
C519 C -0.00078 0.87665 0.46871 0.0
C520 C 0.99562 0.88695 0.50426 0.0
C521 C 0.98375 0.84544 0.45672 0.0
C522 C 0.97885 0.86429 0.52842 0.0
C523 C 0.96337 0.83306 0.51668 0.0
H524 H 0.41948 0.74314 0.521 0.0
H525 H 0.50676 0.7491 0.59479 0.0
H526 H 0.52124 0.68777 0.58349 0.0
H527 H 0.50829 0.63239 0.55388 0.0
H528 H 0.42045 0.62564 0.48058 0.0
H529 H 0.40711 0.68748 0.49035 0.0
C530 C 0.44189 0.73103 0.53425 0.0
C531 C 0.46201 0.75045 0.5587 0.0
C532 C 0.44985 0.69569 0.52787 0.0
C533 C 0.49071 0.73447 0.5761 0.0
C534 C 0.49904 0.69949 0.5696 0.0
C535 C 0.48625 0.64437 0.53993 0.0
C536 C 0.46538 0.62432 0.51659 0.0
C537 C 0.4786 0.6798 0.54578 0.0
C538 C 0.43691 0.6404 0.49879 0.0
C539 C 0.42927 0.67578 0.50432 0.0
H540 H 0.93337 0.00386 0.79224 0.0
H541 H 0.98872 0.90504 0.79422 0.0
H542 H 0.00475 0.91219 0.73187 0.0
H543 H 0.00283 0.9463 0.67685 0.0
H544 H 0.94668 0.04485 0.67443 0.0
H545 H 0.93132 0.03804 0.73689 0.0
C546 C 0.94915 0.98407 0.77902 0.0
C547 C 0.95983 0.95399 0.7977 0.0
C548 C 0.95808 0.98823 0.74312 0.0
C549 C 0.9799 0.92827 0.78022 0.0
C550 C 0.98918 0.93239 0.74465 0.0
C551 C 0.98728 0.96635 0.68994 0.0
C552 C 0.97599 0.99604 0.6709 0.0
C553 C 0.97833 0.96222 0.72581 0.0
C554 C 0.95568 0.02165 0.68835 0.0
C555 C 0.94691 0.01784 0.72413 0.0
H556 H 0.57349 0.08981 0.23879 0.0
H557 H 0.53046 -0.00234 0.28913 0.0
H558 H 0.51171 0.97498 0.23098 0.0
H559 H 0.5092 0.98135 0.16537 0.0
H560 H 0.55574 0.07317 0.11684 0.0
H561 H 0.57123 0.09615 0.17486 0.0
C562 C 0.55945 0.06501 0.23712 0.0
C563 C 0.55272 0.04568 0.26808 0.0
C564 C 0.54959 0.05205 0.20392 0.0
C565 C 0.5356 0.01307 0.26553 0.0
C566 C 0.52496 0.00016 0.23236 0.0
C567 C 0.52257 0.00643 0.16763 0.0
C568 C 0.53137 0.02546 0.13681 0.0
C569 C 0.53204 0.01939 0.20129 0.0
C570 C 0.54893 0.05782 0.14007 0.0
C571 C 0.55772 0.0711 0.17325 0.0
H572 H 0.46663 0.50176 0.23521 0.0
H573 H 0.40078 0.59181 0.25622 0.0
H574 H 0.40657 0.58183 0.31985 0.0
H575 H 0.432 0.54884 0.36961 0.0
H576 H 0.50061 0.46086 0.34859 0.0
H577 H 0.49232 0.46898 0.2849 0.0
C578 C 0.45382 0.51942 0.25369 0.0
C579 C 0.43327 0.54745 0.24088 0.0
C580 C 0.45775 0.51393 0.29027 0.0
C581 C 0.41634 0.5697 0.26527 0.0
C582 C 0.4198 0.56416 0.3017 0.0
C583 C 0.44488 0.53125 0.3511 0.0
C584 C 0.46684 0.50428 0.36382 0.0
C585 C 0.44054 0.53645 0.3145 0.0
C586 C 0.48365 0.48192 0.33948 0.0
C587 C 0.47894 0.48654 0.30305 0.0
H588 H 0.02458 0.48652 0.75522 0.0
H589 H 0.09875 0.4066 0.78775 0.0
H590 H 0.0895 0.42177 0.84968 0.0
H591 H 0.05976 0.4563 0.89452 0.0
H592 H 0.98513 0.5365 0.86374 0.0
H593 H 0.9955 0.52291 0.80116 0.0
C594 C 0.0388 0.47267 0.77594 0.0
C595 C 0.0619 0.44517 0.76698 0.0
C596 C 0.03335 0.48152 0.81172 0.0
C597 C 0.08023 0.42736 0.79402 0.0
C598 C 0.07515 0.43614 0.82943 0.0
C599 C 0.04573 0.47097 0.87424 0.0
C600 C 0.02158 0.49727 0.88389 0.0
C601 C 0.05158 0.46291 0.83857 0.0
C602 C 0.00385 0.51605 0.85709 0.0
C603 C 0.00972 0.50827 0.82129 0.0
H604 H 0.74996 0.90752 0.96229 0.0
H605 H 0.77811 0.00737 0.00824 0.0
H606 H 0.71567 0.02015 0.01863 0.0
H607 H 0.65311 0.00387 0.01321 0.0
H608 H 0.62459 0.9049 0.96547 0.0
H609 H 0.68718 0.89123 0.95676 0.0
C610 C 0.74245 0.93222 0.97432 0.0
C611 C 0.76879 0.95642 0.98445 0.0
C612 C 0.70642 0.93967 0.97976 0.0
C613 C 0.75852 0.98801 0.00062 0.0
C614 C 0.72276 0.99549 0.00634 0.0
C615 C 0.66049 0.97924 0.00096 0.0
C616 C 0.63406 0.9555 0.98999 0.0
C617 C 0.6965 0.97159 0.99586 0.0
C618 C 0.64428 0.92374 0.97412 0.0
C619 C 0.6801 0.91586 0.96913 0.0
H620 H 0.77193 0.00724 0.43698 0.0
H621 H 0.74923 0.0947 0.50586 0.0
H622 H 0.80675 0.08792 0.53439 0.0
H623 H 0.86637 0.06204 0.53479 0.0
H624 H 0.89075 0.97829 0.46191 0.0
H625 H 0.83018 0.97943 0.43942 0.0
C626 C 0.77948 0.02482 0.45827 0.0
C627 C 0.75628 0.05167 0.46884 0.0
C628 C 0.81329 0.02193 0.47344 0.0
C629 C 0.76623 0.07352 0.49725 0.0
C630 C 0.79941 0.07 0.51333 0.0
C631 C 0.85833 0.04381 0.51423 0.0
C632 C 0.88319 0.02043 0.49978 0.0
C633 C 0.82359 0.04504 0.50086 0.0
C634 C 0.87231 0.99693 0.47318 0.0
C635 C 0.83762 -0.00255 0.46036 0.0
H636 H 0.26007 0.52319 0.02122 0.0
H637 H 0.24848 0.60655 0.09755 0.0
H638 H 0.18406 0.60086 0.09452 0.0
H639 H 0.13098 0.57136 0.07098 0.0
H640 H 0.14341 0.48684 0.99585 0.0
H641 H 0.20746 0.49348 -0.00174 0.0
C642 C 0.24349 0.53993 0.03743 0.0
C643 C 0.25912 0.56524 0.05953 0.0
C644 C 0.20655 0.53619 0.03598 0.0
C645 C 0.23716 0.58715 0.07989 0.0
C646 C 0.20031 0.58374 0.0784 0.0
C647 C 0.14768 0.55435 0.05518 0.0
C648 C 0.13225 0.52864 0.03333 0.0
C649 C 0.1847 0.55824 0.05663 0.0
C650 C 0.15441 0.50686 0.01299 0.0
C651 C 0.19114 0.51063 0.01427 0.0
H652 H 0.25629 0.4309 0.59025 0.0
H653 H 0.21507 0.5033 0.51277 0.0
H654 H 0.27522 0.51269 0.48933 0.0
H655 H 0.33973 0.50094 0.49239 0.0
H656 H 0.37904 0.42671 0.56973 0.0
H657 H 0.31925 0.41733 0.59165 0.0
C658 C 0.26056 0.44898 0.5684 0.0
C659 C 0.23167 0.46698 0.55363 0.0
C660 C 0.29476 0.45376 0.55501 0.0
C661 C 0.23717 0.4895 0.52469 0.0
C662 C 0.27145 0.49479 0.51136 0.0
C663 C 0.33519 0.4826 0.51393 0.0
C664 C 0.36399 0.46473 0.52947 0.0
C665 C 0.30051 0.47716 0.5265 0.0
C666 C 0.35752 0.44088 0.55721 0.0
C667 C 0.32331 0.43553 0.5699 0.0
H668 H 0.96682 0.7745 0.03039 0.0
H669 H 0.95715 0.76949 0.91663 0.0
H670 H 0.96694 0.70608 0.91816 0.0
H671 H 0.97759 0.65209 0.95202 0.0
H672 H 0.99099 0.6575 0.06556 0.0
H673 H 0.98064 0.7207 0.06406 0.0
C674 C 0.9669 0.75935 0.00606 0.0
C675 C 0.96116 0.77625 0.97349 0.0
C676 C 0.97326 0.72311 0.00712 0.0
C677 C 0.96163 0.75676 0.94196 0.0
C678 C 0.96714 0.72061 0.94284 0.0
C679 C 0.97825 0.66714 0.97641 0.0
C680 C 0.98483 0.65017 0.00885 0.0
C681 C 0.97289 0.7035 0.97528 0.0
C682 C 0.98608 0.67001 0.04022 0.0
C683 C 0.98004 0.70611 0.03941 0.0
H684 H 0.43216 0.74664 0.08999 0.0
H685 H 0.50233 0.71201 0.00679 0.0
H686 H 0.51673 0.77283 0.99246 0.0
H687 H 0.50921 0.83567 0.00341 0.0
H688 H 0.44006 0.87018 0.08763 0.0
H689 H 0.42601 0.80939 0.10212 0.0
C690 C 0.451 0.75233 0.06904 0.0
C691 C 0.46613 0.72476 0.04951 0.0
C692 C 0.45939 0.7873 0.06115 0.0
C693 C 0.48995 0.73271 0.02197 0.0
C694 C 0.49835 0.76748 0.01388 0.0
C695 C 0.49108 0.82997 0.02497 0.0
C696 C 0.47566 0.85754 0.04431 0.0
C697 C 0.48313 0.79497 0.03322 0.0
C698 C 0.45235 0.84954 0.07228 0.0
C699 C 0.44424 0.81477 0.08057 0.0
H700 H 0.07709 0.25935 0.59488 0.0
H701 H 0.97724 0.28784 0.5476 0.0
H702 H 0.95953 0.22562 0.54604 0.0
H703 H 0.97514 0.16271 0.55461 0.0
H704 H 0.07624 0.13658 0.60143 0.0
H705 H 0.09067 0.19845 0.60726 0.0
C706 C 0.05148 0.25186 0.58409 0.0
C707 C 0.02879 0.27766 0.57052 0.0
C708 C 0.04172 0.21658 0.58349 0.0
C709 C 0.99525 0.26808 0.55763 0.0
C710 C 0.9852 0.23265 0.55685 0.0
C711 C -5e-05 0.17072 0.56671 0.0
C712 C 0.02472 0.14522 0.5774 0.0
C713 C 0.0085 0.20658 0.56928 0.0
C714 C 0.05692 0.15578 0.59278 0.0
C715 C 0.06526 0.19111 0.59602 0.0
H716 H 0.55336 0.23777 0.4781 0.0
H717 H 0.62352 0.27645 0.39643 0.0
H718 H 0.60276 0.33585 0.40634 0.0
H719 H 0.56507 0.37675 0.43745 0.0
H720 H 0.49418 0.34003 0.51936 0.0
H721 H 0.51459 0.27983 0.50977 0.0
C722 C 0.56397 0.25926 0.4625 0.0
C723 C 0.59029 0.25274 0.43691 0.0
C724 C 0.55173 0.29361 0.46819 0.0
C725 C 0.60386 0.28082 0.41687 0.0
C726 C 0.59181 0.3148 0.42228 0.0
C727 C 0.55387 0.35568 0.45325 0.0
C728 C 0.52806 0.36295 0.47904 0.0
C729 C 0.56583 0.32146 0.44782 0.0
C730 C 0.51409 0.33519 0.49928 0.0
C731 C 0.52576 0.30077 0.49384 0.0
loop_
_geom_bond_atom_site_label_1
_geom_bond_atom_site_label_2
_geom_bond_distance
_geom_bond_site_symmetry_2
_ccdc_geom_bond_type
P0 O11 1.490 . S
P0 C14 1.812 . S
P0 C20 1.803 . S
P0 C26 1.819 . S
H1 C15 0.941 . S
H2 C16 0.939 . S
H3 C18 0.940 . S
H4 C19 0.940 . S
H5 C21 0.939 . S
H6 C22 0.942 . S
H7 C24 0.940 . S
H8 C25 0.939 . S
H9 C27 0.941 . S
H10 C31 0.939 . S
O11 P0 1.490 . S
H12 C28 0.939 . S
H13 C30 0.940 . S
C14 P0 1.812 . S
C14 C15 1.389 . S
C14 C19 1.391 . S
C15 H1 0.941 . S
C15 C14 1.389 . S
C15 C16 1.397 . S
C16 H2 0.939 . S
C16 C15 1.397 . S
C16 C17 1.378 . S
C17 C16 1.378 . S
C17 C18 1.378 . S
C18 H3 0.940 . S
C18 C17 1.378 . S
C18 C19 1.396 . S
C19 H4 0.940 . S
C19 C14 1.391 . S
C19 C18 1.396 . S
C20 P0 1.803 . S
C20 C21 1.378 . S
C20 C25 1.400 . S
C21 H5 0.939 . S
C21 C20 1.378 . S
C21 C22 1.361 . S
C22 H6 0.942 . S
C22 C21 1.361 . S
C22 C23 1.369 . S
C23 C22 1.369 . S
C23 C24 1.404 . S
C24 H7 0.940 . S
C24 C23 1.404 . S
C24 C25 1.389 . S
C25 H8 0.939 . S
C25 C20 1.400 . S
C25 C24 1.389 . S
C26 P0 1.819 . S
C26 C27 1.391 . S
C26 C31 1.391 . S
C27 H9 0.941 . S
C27 C26 1.391 . S
C27 C28 1.396 . S
C28 H12 0.939 . S
C28 C27 1.396 . S
C28 C29 1.397 . S
C29 C28 1.397 . S
C29 C30 1.385 . S
C30 H13 0.940 . S
C30 C29 1.385 . S
C30 C31 1.388 . S
C31 H10 0.939 . S
C31 C26 1.391 . S
C31 C30 1.388 . S
P32 O43 1.490 . S
P32 C46 1.812 . S
P32 C52 1.803 . S
P32 C58 1.819 . S
H33 C47 0.941 . S
H34 C48 0.939 . S
H35 C50 0.940 . S
H36 C51 0.940 . S
H37 C53 0.939 . S
H38 C54 0.942 . S
H39 C56 0.940 . S
H40 C57 0.939 . S
H41 C59 0.941 . S
H42 C63 0.939 . S
O43 P32 1.490 . S
H44 C60 0.939 . S
H45 C62 0.940 . S
C46 P32 1.812 . S
C46 C47 1.389 . S
C46 C51 1.391 . S
C47 H33 0.941 . S
C47 C46 1.389 . S
C47 C48 1.397 . S
C48 H34 0.939 . S
C48 C47 1.397 . S
C48 C49 1.378 . S
C49 C48 1.378 . S
C49 C50 1.378 . S
C50 H35 0.940 . S
C50 C49 1.378 . S
C50 C51 1.396 . S
C51 H36 0.940 . S
C51 C46 1.391 . S
C51 C50 1.396 . S
C52 P32 1.803 . S
C52 C53 1.378 . S
C52 C57 1.400 . S
C53 H37 0.939 . S
C53 C52 1.378 . S
C53 C54 1.361 . S
C54 H38 0.942 . S
C54 C53 1.361 . S
C54 C55 1.369 . S
C55 C54 1.369 . S
C55 C56 1.404 . S
C56 H39 0.940 . S
C56 C55 1.404 . S
C56 C57 1.389 . S
C57 H40 0.939 . S
C57 C52 1.400 . S
C57 C56 1.389 . S
C58 P32 1.819 . S
C58 C59 1.391 . S
C58 C63 1.391 . S
C59 H41 0.941 . S
C59 C58 1.391 . S
C59 C60 1.396 . S
C60 H44 0.939 . S
C60 C59 1.396 . S
C60 C61 1.397 . S
C61 C60 1.397 . S
C61 C62 1.385 . S
C62 H45 0.940 . S
C62 C61 1.385 . S
C62 C63 1.388 . S
C63 H42 0.939 . S
C63 C58 1.391 . S
C63 C62 1.388 . S
P64 O75 1.490 . S
P64 C78 1.812 . S
P64 C84 1.803 . S
P64 C90 1.819 . S
H65 C79 0.941 . S
H66 C80 0.939 . S
H67 C82 0.940 . S
H68 C83 0.940 . S
H69 C85 0.939 . S
H70 C86 0.942 . S
H71 C88 0.940 . S
H72 C89 0.939 . S
H73 C91 0.941 . S
H74 C95 0.939 . S
O75 P64 1.490 . S
H76 C92 0.939 . S
H77 C94 0.940 . S
C78 P64 1.812 . S
C78 C79 1.389 . S
C78 C83 1.391 . S
C79 H65 0.941 . S
C79 C78 1.389 . S
C79 C80 1.397 . S
C80 H66 0.939 . S
C80 C79 1.397 . S
C80 C81 1.378 . S
C81 C80 1.378 . S
C81 C82 1.378 . S
C82 H67 0.940 . S
C82 C81 1.378 . S
C82 C83 1.396 . S
C83 H68 0.940 . S
C83 C78 1.391 . S
C83 C82 1.396 . S
C84 P64 1.803 . S
C84 C85 1.378 . S
C84 C89 1.400 . S
C85 H69 0.939 . S
C85 C84 1.378 . S
C85 C86 1.361 . S
C86 H70 0.942 . S
C86 C85 1.361 . S
C86 C87 1.369 . S
C87 C86 1.369 . S
C87 C88 1.404 . S
C88 H71 0.940 . S
C88 C87 1.404 . S
C88 C89 1.389 . S
C89 H72 0.939 . S
C89 C84 1.400 . S
C89 C88 1.389 . S
C90 P64 1.819 . S
C90 C91 1.391 . S
C90 C95 1.391 . S
C91 H73 0.941 . S
C91 C90 1.391 . S
C91 C92 1.396 . S
C92 H76 0.939 . S
C92 C91 1.396 . S
C92 C93 1.397 . S
C93 C92 1.397 . S
C93 C94 1.385 . S
C94 H77 0.940 . S
C94 C93 1.385 . S
C94 C95 1.388 . S
C95 H74 0.939 . S
C95 C90 1.391 . S
C95 C94 1.388 . S
P96 O107 1.490 . S
P96 C110 1.812 . S
P96 C116 1.803 . S
P96 C122 1.819 . S
H97 C111 0.941 . S
H98 C112 0.939 . S
H99 C114 0.940 . S
H100 C115 0.940 . S
H101 C117 0.939 . S
H102 C118 0.942 . S
H103 C120 0.940 . S
H104 C121 0.939 . S
H105 C123 0.941 . S
H106 C127 0.939 . S
O107 P96 1.490 . S
H108 C124 0.939 . S
H109 C126 0.940 . S
C110 P96 1.812 . S
C110 C111 1.389 . S
C110 C115 1.391 . S
C111 H97 0.941 . S
C111 C110 1.389 . S
C111 C112 1.397 . S
C112 H98 0.939 . S
C112 C111 1.397 . S
C112 C113 1.378 . S
C113 C112 1.378 . S
C113 C114 1.378 . S
C114 H99 0.940 . S
C114 C113 1.378 . S
C114 C115 1.396 . S
C115 H100 0.940 . S
C115 C110 1.391 . S
C115 C114 1.396 . S
C116 P96 1.803 . S
C116 C117 1.378 . S
C116 C121 1.400 . S
C117 H101 0.939 . S
C117 C116 1.378 . S
C117 C118 1.361 . S
C118 H102 0.942 . S
C118 C117 1.361 . S
C118 C119 1.369 . S
C119 C118 1.369 . S
C119 C120 1.404 . S
C120 H103 0.940 . S
C120 C119 1.404 . S
C120 C121 1.389 . S
C121 H104 0.939 . S
C121 C116 1.400 . S
C121 C120 1.389 . S
C122 P96 1.819 . S
C122 C123 1.391 . S
C122 C127 1.391 . S
C123 H105 0.941 . S
C123 C122 1.391 . S
C123 C124 1.396 . S
C124 H108 0.939 . S
C124 C123 1.396 . S
C124 C125 1.397 . S
C125 C124 1.397 . S
C125 C126 1.385 . S
C126 H109 0.940 . S
C126 C125 1.385 . S
C126 C127 1.388 . S
C127 H106 0.939 . S
C127 C122 1.391 . S
C127 C126 1.388 . S
P128 O139 1.490 . S
P128 C142 1.812 . S
P128 C148 1.803 . S
P128 C154 1.819 . S
H129 C143 0.941 1_554 S
H130 C144 0.939 1_554 S
H131 C146 0.940 . S
H132 C147 0.940 . S
H133 C149 0.939 . S
H134 C150 0.964 . S
H135 C152 0.940 . S
H136 C153 0.939 . S
H137 C155 0.941 1_545 S
H138 C159 0.939 . S
O139 P128 1.490 . S
H140 C156 0.939 . S
H141 C158 0.940 . S
C142 P128 1.812 . S
C142 C143 1.389 . S
C142 C147 1.391 . S
C143 H129 0.941 1_556 S
C143 C142 1.389 . S
C143 C144 1.397 . S
C144 H130 0.939 1_556 S
C144 C143 1.397 . S
C144 C145 1.378 . S
C145 C144 1.378 . S
C145 C146 1.378 . S
C146 H131 0.940 . S
C146 C145 1.378 . S
C146 C147 1.396 . S
C147 H132 0.940 . S
C147 C142 1.391 . S
C147 C146 1.396 . S
C148 P128 1.803 . S
C148 C149 1.378 . S
C148 C153 1.400 . S
C149 H133 0.939 . S
C149 C148 1.378 . S
C149 C150 1.361 . S
C150 H134 0.964 . S
C150 C149 1.361 . S
C150 C151 1.369 . S
C151 C150 1.369 . S
C151 C152 1.404 . S
C152 H135 0.940 . S
C152 C151 1.404 . S
C152 C153 1.389 . S
C153 H136 0.939 . S
C153 C148 1.400 . S
C153 C152 1.389 . S
C154 P128 1.819 . S
C154 C155 1.391 . S
C154 C159 1.391 . S
C155 H137 0.941 1_565 S
C155 C154 1.391 . S
C155 C156 1.396 1_565 S
C156 H140 0.939 . S
C156 C155 1.396 1_545 S
C156 C157 1.397 1_545 S
C157 C156 1.397 1_565 S
C157 C158 1.385 . S
C158 H141 0.940 . S
C158 C157 1.385 . S
C158 C159 1.388 . S
C159 H138 0.939 . S
C159 C154 1.391 . S
C159 C158 1.388 . S
P160 O171 1.490 . S
P160 C174 1.812 . S
P160 C180 1.803 . S
P160 C186 1.819 . S
H161 C175 0.941 . S
H162 C176 0.939 . S
H163 C178 0.940 . S
H164 C179 0.940 . S
H165 C181 0.939 . S
H166 C182 0.942 . S
H167 C184 0.940 . S
H168 C185 0.939 . S
H169 C187 0.941 . S
H170 C191 0.939 . S
O171 P160 1.490 . S
H172 C188 0.939 . S
H173 C190 0.940 . S
C174 P160 1.812 . S
C174 C175 1.389 . S
C174 C179 1.391 . S
C175 H161 0.941 . S
C175 C174 1.389 . S
C175 C176 1.397 . S
C176 H162 0.939 . S
C176 C175 1.397 . S
C176 C177 1.378 . S
C177 C176 1.378 . S
C177 C178 1.378 . S
C178 H163 0.940 . S
C178 C177 1.378 . S
C178 C179 1.396 . S
C179 H164 0.940 . S
C179 C174 1.391 . S
C179 C178 1.396 . S
C180 P160 1.803 . S
C180 C181 1.378 . S
C180 C185 1.400 . S
C181 H165 0.939 . S
C181 C180 1.378 . S
C181 C182 1.361 . S
C182 H166 0.942 . S
C182 C181 1.361 . S
C182 C183 1.369 . S
C183 C182 1.369 . S
C183 C184 1.404 . S
C184 H167 0.940 . S
C184 C183 1.404 . S
C184 C185 1.389 . S
C185 H168 0.939 . S
C185 C180 1.400 . S
C185 C184 1.389 . S
C186 P160 1.819 . S
C186 C187 1.391 . S
C186 C191 1.391 . S
C187 H169 0.941 . S
C187 C186 1.391 . S
C187 C188 1.396 . S
C188 H172 0.939 . S
C188 C187 1.396 . S
C188 C189 1.397 . S
C189 C188 1.397 . S
C189 C190 1.385 . S
C190 H173 0.940 . S
C190 C189 1.385 . S
C190 C191 1.388 . S
C191 H170 0.939 . S
C191 C186 1.391 . S
C191 C190 1.388 . S
P192 O203 1.490 . S
P192 C206 1.812 . S
P192 C212 1.803 . S
P192 C218 1.819 . S
H193 C207 0.941 . S
H194 C208 0.939 . S
H195 C210 0.940 . S
H196 C211 0.940 . S
H197 C213 0.939 . S
H198 C214 0.942 . S
H199 C216 0.940 . S
H200 C217 0.939 . S
H201 C219 0.941 . S
H202 C223 0.939 . S
O203 P192 1.490 . S
H204 C220 0.939 . S
H205 C222 0.940 . S
C206 P192 1.812 . S
C206 C207 1.389 . S
C206 C211 1.391 . S
C207 H193 0.941 . S
C207 C206 1.389 . S
C207 C208 1.397 . S
C208 H194 0.939 . S
C208 C207 1.397 . S
C208 C209 1.378 . S
C209 C208 1.378 . S
C209 C210 1.378 . S
C210 H195 0.940 . S
C210 C209 1.378 . S
C210 C211 1.396 . S
C211 H196 0.940 . S
C211 C206 1.391 . S
C211 C210 1.396 . S
C212 P192 1.803 . S
C212 C213 1.378 . S
C212 C217 1.400 . S
C213 H197 0.939 . S
C213 C212 1.378 . S
C213 C214 1.361 . S
C214 H198 0.942 . S
C214 C213 1.361 . S
C214 C215 1.369 . S
C215 C214 1.369 . S
C215 C216 1.404 . S
C216 H199 0.940 . S
C216 C215 1.404 . S
C216 C217 1.389 . S
C217 H200 0.939 . S
C217 C212 1.400 . S
C217 C216 1.389 . S
C218 P192 1.819 . S
C218 C219 1.391 . S
C218 C223 1.391 . S
C219 H201 0.941 . S
C219 C218 1.391 . S
C219 C220 1.396 . S
C220 H204 0.939 . S
C220 C219 1.396 . S
C220 C221 1.397 . S
C221 C220 1.397 . S
C221 C222 1.385 . S
C222 H205 0.940 . S
C222 C221 1.385 . S
C222 C223 1.388 . S
C223 H202 0.939 . S
C223 C218 1.391 . S
C223 C222 1.388 . S
P224 O235 1.490 . S
P224 C238 1.812 . S
P224 C244 1.803 . S
P224 C250 1.819 . S
H225 C239 0.941 . S
H226 C240 0.939 . S
H227 C242 0.940 . S
H228 C243 0.940 . S
H229 C245 0.939 . S
H230 C246 0.942 . S
H231 C248 0.940 . S
H232 C249 0.939 . S
H233 C251 0.941 . S
H234 C255 0.939 . S
O235 P224 1.490 . S
H236 C252 0.939 . S
H237 C254 0.940 . S
C238 P224 1.812 . S
C238 C239 1.389 . S
C238 C243 1.391 . S
C239 H225 0.941 . S
C239 C238 1.389 . S
C239 C240 1.397 . S
C240 H226 0.939 . S
C240 C239 1.397 . S
C240 C241 1.378 . S
C241 C240 1.378 . S
C241 C242 1.378 . S
C242 H227 0.940 . S
C242 C241 1.378 . S
C242 C243 1.396 . S
C243 H228 0.940 . S
C243 C238 1.391 . S
C243 C242 1.396 . S
C244 P224 1.803 . S
C244 C245 1.378 . S
C244 C249 1.400 . S
C245 H229 0.939 . S
C245 C244 1.378 . S
C245 C246 1.361 . S
C246 H230 0.942 . S
C246 C245 1.361 . S
C246 C247 1.369 . S
C247 C246 1.369 . S
C247 C248 1.404 . S
C248 H231 0.940 . S
C248 C247 1.404 . S
C248 C249 1.389 . S
C249 H232 0.939 . S
C249 C244 1.400 . S
C249 C248 1.389 . S
C250 P224 1.819 . S
C250 C251 1.391 . S
C250 C255 1.391 . S
C251 H233 0.941 . S
C251 C250 1.391 . S
C251 C252 1.396 . S
C252 H236 0.939 . S
C252 C251 1.396 . S
C252 C253 1.397 . S
C253 C252 1.397 . S
C253 C254 1.385 . S
C254 H237 0.940 . S
C254 C253 1.385 . S
C254 C255 1.388 . S
C255 H234 0.939 . S
C255 C250 1.391 . S
C255 C254 1.388 . S
O256 Zn257 1.953 . S
O256 C272 1.225 1_655 S
Zn257 O256 1.953 . S
Zn257 O258 1.949 1_655 S
Zn257 O264 1.919 . S
Zn257 O269 1.924 . S
O258 Zn257 1.949 1_455 S
O258 Zn259 1.923 1_445 S
O258 Zn260 1.950 . S
O258 Zn261 1.945 1_545 S
Zn259 O258 1.923 1_665 S
Zn259 O262 1.933 . S
Zn259 O265 1.941 1_565 S
Zn259 O266 1.965 1_665 S
Zn260 O258 1.950 . S
Zn260 O267 1.938 . S
Zn260 O268 1.906 1_545 S
Zn260 O278 1.953 . S
Zn261 O258 1.945 1_565 S
Zn261 O263 1.932 1_455 S
Zn261 O270 1.977 . S
Zn261 O271 1.910 1_455 S
O262 Zn259 1.933 . S
O262 C273 1.226 . S
O263 Zn261 1.932 1_655 S
O263 C273 1.307 . S
O264 Zn257 1.919 . S
O264 C275 1.253 . S
O265 Zn259 1.941 1_545 S
O265 C275 1.283 . S
O266 Zn259 1.965 1_445 S
O266 C274 1.303 . S
O267 Zn260 1.938 . S
O267 C274 1.247 . S
O268 Zn260 1.906 1_565 S
O268 C276 1.304 . S
O269 Zn257 1.924 . S
O269 C277 1.311 1_545 S
O270 Zn261 1.977 . S
O270 C276 1.272 . S
O271 Zn261 1.910 1_655 S
O271 C277 1.231 . S
C272 O256 1.225 1_455 S
C272 O278 1.298 . S
C273 O262 1.226 . S
C273 O263 1.307 . S
C274 O266 1.303 . S
C274 O267 1.247 . S
C275 O264 1.253 . S
C275 O265 1.283 . S
C276 O268 1.304 . S
C276 O270 1.272 . S
C277 O269 1.311 1_565 S
C277 O271 1.231 . S
O278 Zn260 1.953 . S
O278 C272 1.298 . S
O279 Zn280 1.953 . S
O279 C295 1.225 . S
Zn280 O279 1.953 . S
Zn280 O281 1.949 1_556 S
Zn280 O287 1.919 . S
Zn280 O292 1.924 1_556 S
O281 Zn280 1.949 1_554 S
O281 Zn282 1.923 1_545 S
O281 Zn283 1.950 . S
O281 Zn284 1.945 1_545 S
Zn282 O281 1.923 1_565 S
Zn282 O285 1.933 . S
Zn282 O288 1.941 1_554 S
Zn282 O289 1.965 1_554 S
Zn283 O281 1.950 . S
Zn283 O290 1.938 . S
Zn283 O291 1.906 . S
Zn283 O301 1.953 . S
Zn284 O281 1.945 1_565 S
Zn284 O286 1.932 . S
Zn284 O293 1.977 1_565 S
Zn284 O294 1.910 1_565 S
O285 Zn282 1.933 . S
O285 C296 1.226 . S
O286 Zn284 1.932 . S
O286 C296 1.307 . S
O287 Zn280 1.919 . S
O287 C298 1.253 1_545 S
O288 Zn282 1.941 1_556 S
O288 C298 1.283 . S
O289 Zn282 1.965 1_556 S
O289 C297 1.303 1_556 S
O290 Zn283 1.938 . S
O290 C297 1.247 1_545 S
O291 Zn283 1.906 . S
O291 C299 1.304 . S
O292 Zn280 1.924 1_554 S
O292 C300 1.311 . S
O293 Zn284 1.977 1_545 S
O293 C299 1.272 . S
O294 Zn284 1.910 1_545 S
O294 C300 1.231 . S
C295 O279 1.225 . S
C295 O301 1.298 1_556 S
C296 O285 1.226 . S
C296 O286 1.307 . S
C297 O289 1.303 1_554 S
C297 O290 1.247 1_565 S
C298 O287 1.253 1_565 S
C298 O288 1.283 . S
C299 O291 1.304 . S
C299 O293 1.272 . S
C300 O292 1.311 . S
C300 O294 1.231 . S
O301 Zn283 1.953 . S
O301 C295 1.298 1_554 S
O302 Zn303 1.953 . S
O302 C318 1.225 . S
Zn303 O302 1.953 . S
Zn303 O304 1.949 . S
Zn303 O310 1.919 . S
Zn303 O315 1.924 . S
O304 Zn303 1.949 . S
O304 Zn305 1.923 . S
O304 Zn306 1.950 . S
O304 Zn307 1.945 . S
Zn305 O304 1.923 . S
Zn305 O308 1.933 . S
Zn305 O311 1.941 . S
Zn305 O312 1.965 . S
Zn306 O304 1.950 . S
Zn306 O313 1.938 . S
Zn306 O314 1.906 . S
Zn306 O324 1.953 . S
Zn307 O304 1.945 . S
Zn307 O309 1.932 . S
Zn307 O316 1.977 . S
Zn307 O317 1.910 . S
O308 Zn305 1.933 . S
O308 C319 1.226 . S
O309 Zn307 1.932 . S
O309 C319 1.307 . S
O310 Zn303 1.919 . S
O310 C321 1.253 . S
O311 Zn305 1.941 . S
O311 C321 1.283 . S
O312 Zn305 1.965 . S
O312 C320 1.303 . S
O313 Zn306 1.938 . S
O313 C320 1.247 . S
O314 Zn306 1.906 . S
O314 C322 1.304 . S
O315 Zn303 1.924 . S
O315 C323 1.311 . S
O316 Zn307 1.977 . S
O316 C322 1.272 . S
O317 Zn307 1.910 . S
O317 C323 1.231 . S
C318 O302 1.225 . S
C318 O324 1.298 . S
C319 O308 1.226 . S
C319 O309 1.307 . S
C320 O312 1.303 . S
C320 O313 1.247 . S
C321 O310 1.253 . S
C321 O311 1.283 . S
C322 O314 1.304 . S
C322 O316 1.272 . S
C323 O315 1.311 . S
C323 O317 1.231 . S
O324 Zn306 1.953 . S
O324 C318 1.298 . S
O325 Zn326 1.953 . S
O325 C341 1.225 . S
Zn326 O325 1.953 . S
Zn326 O327 1.949 1_655 S
Zn326 O333 1.919 . S
Zn326 O338 1.924 . S
O327 Zn326 1.949 1_455 S
O327 Zn328 1.923 1_454 S
O327 Zn329 1.950 . S
O327 Zn330 1.945 1_554 S
Zn328 O327 1.923 1_656 S
Zn328 O331 1.933 1_655 S
Zn328 O334 1.941 . S
Zn328 O335 1.965 . S
Zn329 O327 1.950 . S
Zn329 O336 1.938 . S
Zn329 O337 1.906 . S
Zn329 O347 1.953 . S
Zn330 O327 1.945 1_556 S
Zn330 O332 1.932 . S
Zn330 O339 1.977 1_556 S
Zn330 O340 1.910 1_556 S
O331 Zn328 1.933 1_455 S
O331 C342 1.226 . S
O332 Zn330 1.932 . S
O332 C342 1.307 . S
O333 Zn326 1.919 . S
O333 C344 1.253 1_554 S
O334 Zn328 1.941 . S
O334 C344 1.283 . S
O335 Zn328 1.965 . S
O335 C343 1.303 . S
O336 Zn329 1.938 . S
O336 C343 1.247 1_454 S
O337 Zn329 1.906 . S
O337 C345 1.304 . S
O338 Zn326 1.924 . S
O338 C346 1.311 1_655 S
O339 Zn330 1.977 1_554 S
O339 C345 1.272 . S
O340 Zn330 1.910 1_554 S
O340 C346 1.231 . S
C341 O325 1.225 . S
C341 O347 1.298 1_655 S
C342 O331 1.226 . S
C342 O332 1.307 . S
C343 O335 1.303 . S
C343 O336 1.247 1_656 S
C344 O333 1.253 1_556 S
C344 O334 1.283 . S
C345 O337 1.304 . S
C345 O339 1.272 . S
C346 O338 1.311 1_455 S
C346 O340 1.231 . S
O347 Zn329 1.953 . S
O347 C341 1.298 1_455 S
H348 C354 0.930 . S
H349 C357 0.930 . S
H350 C358 0.930 . S
H351 C359 0.930 . S
H352 C362 0.930 . S
H353 C363 0.930 . S
C354 H348 0.930 . S
C354 C355 1.355 . S
C354 C356 1.415 . S
C355 C354 1.355 . S
C355 C357 1.419 . S
C356 C354 1.415 . S
C356 C361 1.425 . S
C356 C363 1.409 . S
C357 H349 0.930 . S
C357 C355 1.419 . S
C357 C358 1.362 . S
C358 H350 0.930 . S
C358 C357 1.362 . S
C358 C361 1.409 . S
C359 H351 0.930 . S
C359 C360 1.355 . S
C359 C361 1.415 . S
C360 C359 1.355 . S
C360 C362 1.419 . S
C361 C356 1.425 . S
C361 C358 1.409 . S
C361 C359 1.415 . S
C362 H352 0.930 . S
C362 C360 1.419 . S
C362 C363 1.362 . S
C363 H353 0.930 . S
C363 C356 1.409 . S
C363 C362 1.362 . S
H364 C370 0.930 . S
H365 C373 0.930 . S
H366 C374 0.930 . S
H367 C375 0.930 . S
H368 C378 0.930 . S
H369 C379 0.930 . S
C370 H364 0.930 . S
C370 C371 1.355 . S
C370 C372 1.415 . S
C371 C370 1.355 . S
C371 C373 1.419 . S
C372 C370 1.415 . S
C372 C377 1.425 . S
C372 C379 1.409 . S
C373 H365 0.930 . S
C373 C371 1.419 . S
C373 C374 1.362 . S
C374 H366 0.930 . S
C374 C373 1.362 . S
C374 C377 1.409 . S
C375 H367 0.930 . S
C375 C376 1.355 . S
C375 C377 1.415 . S
C376 C375 1.355 . S
C376 C378 1.419 . S
C377 C372 1.425 . S
C377 C374 1.409 . S
C377 C375 1.415 . S
C378 H368 0.930 . S
C378 C376 1.419 . S
C378 C379 1.362 . S
C379 H369 0.930 . S
C379 C372 1.409 . S
C379 C378 1.362 . S
H380 C386 0.930 . S
H381 C389 0.930 . S
H382 C390 0.930 . S
H383 C391 0.930 . S
H384 C394 0.930 . S
H385 C395 0.930 . S
C386 H380 0.930 . S
C386 C387 1.355 . S
C386 C388 1.415 . S
C387 C386 1.355 . S
C387 C389 1.419 . S
C388 C386 1.415 . S
C388 C393 1.425 . S
C388 C395 1.409 . S
C389 H381 0.930 . S
C389 C387 1.419 . S
C389 C390 1.362 . S
C390 H382 0.930 . S
C390 C389 1.362 . S
C390 C393 1.409 . S
C391 H383 0.930 . S
C391 C392 1.355 . S
C391 C393 1.415 . S
C392 C391 1.355 . S
C392 C394 1.419 . S
C393 C388 1.425 . S
C393 C390 1.409 . S
C393 C391 1.415 . S
C394 H384 0.930 . S
C394 C392 1.419 . S
C394 C395 1.362 . S
C395 H385 0.930 . S
C395 C388 1.409 . S
C395 C394 1.362 . S
H396 C402 0.930 . S
H397 C405 0.930 . S
H398 C406 0.930 . S
H399 C407 0.930 . S
H400 C410 0.930 . S
H401 C411 0.930 . S
C402 H396 0.930 . S
C402 C403 1.355 . S
C402 C404 1.415 . S
C403 C402 1.355 . S
C403 C405 1.419 . S
C404 C402 1.415 . S
C404 C409 1.425 . S
C404 C411 1.409 . S
C405 H397 0.930 . S
C405 C403 1.419 . S
C405 C406 1.362 . S
C406 H398 0.930 . S
C406 C405 1.362 . S
C406 C409 1.409 . S
C407 H399 0.930 . S
C407 C408 1.355 . S
C407 C409 1.415 . S
C408 C407 1.355 . S
C408 C410 1.419 . S
C409 C404 1.425 . S
C409 C406 1.409 . S
C409 C407 1.415 . S
C410 H400 0.930 . S
C410 C408 1.419 . S
C410 C411 1.362 . S
C411 H401 0.930 . S
C411 C404 1.409 . S
C411 C410 1.362 . S
H412 C418 0.930 . S
H413 C421 0.930 . S
H414 C422 0.930 . S
H415 C423 0.930 . S
H416 C426 0.930 1_556 S
H417 C427 0.930 . S
C418 H412 0.930 . S
C418 C419 1.355 . S
C418 C420 1.415 . S
C419 C418 1.355 . S
C419 C421 1.419 . S
C420 C418 1.415 . S
C420 C425 1.425 . S
C420 C427 1.409 . S
C421 H413 0.930 . S
C421 C419 1.419 . S
C421 C422 1.362 . S
C422 H414 0.930 . S
C422 C421 1.362 . S
C422 C425 1.409 . S
C423 H415 0.930 . S
C423 C424 1.355 . S
C423 C425 1.415 . S
C424 C423 1.355 . S
C424 C426 1.419 . S
C425 C420 1.425 . S
C425 C422 1.409 . S
C425 C423 1.415 . S
C426 H416 0.930 1_554 S
C426 C424 1.419 . S
C426 C427 1.362 . S
C427 H417 0.930 . S
C427 C420 1.409 . S
C427 C426 1.362 . S
H428 C434 0.930 . S
H429 C437 0.930 . S
H430 C438 0.930 . S
H431 C439 0.930 . S
H432 C442 0.930 . S
H433 C443 0.930 . S
C434 H428 0.930 . S
C434 C435 1.355 . S
C434 C436 1.415 . S
C435 C434 1.355 . S
C435 C437 1.419 . S
C436 C434 1.415 . S
C436 C441 1.425 . S
C436 C443 1.409 . S
C437 H429 0.930 . S
C437 C435 1.419 . S
C437 C438 1.362 . S
C438 H430 0.930 . S
C438 C437 1.362 . S
C438 C441 1.409 . S
C439 H431 0.930 . S
C439 C440 1.355 . S
C439 C441 1.415 . S
C440 C439 1.355 . S
C440 C442 1.419 . S
C441 C436 1.425 . S
C441 C438 1.409 . S
C441 C439 1.415 . S
C442 H432 0.930 . S
C442 C440 1.419 . S
C442 C443 1.362 . S
C443 H433 0.930 . S
C443 C436 1.409 . S
C443 C442 1.362 . S
H444 C450 0.930 . S
H445 C453 0.930 . S
H446 C454 0.930 . S
H447 C455 0.930 . S
H448 C458 0.930 . S
H449 C459 0.930 . S
C450 H444 0.930 . S
C450 C451 1.355 . S
C450 C452 1.415 . S
C451 C450 1.355 . S
C451 C453 1.419 . S
C452 C450 1.415 . S
C452 C457 1.425 . S
C452 C459 1.409 . S
C453 H445 0.930 . S
C453 C451 1.419 . S
C453 C454 1.362 . S
C454 H446 0.930 . S
C454 C453 1.362 . S
C454 C457 1.409 . S
C455 H447 0.930 . S
C455 C456 1.355 . S
C455 C457 1.415 . S
C456 C455 1.355 . S
C456 C458 1.419 . S
C457 C452 1.425 . S
C457 C454 1.409 . S
C457 C455 1.415 . S
C458 H448 0.930 . S
C458 C456 1.419 . S
C458 C459 1.362 . S
C459 H449 0.930 . S
C459 C452 1.409 . S
C459 C458 1.362 . S
H460 C466 0.930 . S
H461 C469 0.930 . S
H462 C470 0.930 . S
H463 C471 0.930 . S
H464 C474 0.930 . S
H465 C475 0.930 . S
C466 H460 0.930 . S
C466 C467 1.355 . S
C466 C468 1.415 . S
C467 C466 1.355 . S
C467 C469 1.419 . S
C468 C466 1.415 . S
C468 C473 1.425 . S
C468 C475 1.409 . S
C469 H461 0.930 . S
C469 C467 1.419 . S
C469 C470 1.362 . S
C470 H462 0.930 . S
C470 C469 1.362 . S
C470 C473 1.409 . S
C471 H463 0.930 . S
C471 C472 1.355 . S
C471 C473 1.415 . S
C472 C471 1.355 . S
C472 C474 1.419 . S
C473 C468 1.425 . S
C473 C470 1.409 . S
C473 C471 1.415 . S
C474 H464 0.930 . S
C474 C472 1.419 . S
C474 C475 1.362 . S
C475 H465 0.930 . S
C475 C468 1.409 . S
C475 C474 1.362 . S
H476 C482 0.930 . S
H477 C485 0.930 . S
H478 C486 0.930 . S
H479 C487 0.930 . S
H480 C490 0.930 1_655 S
H481 C491 0.930 1_655 S
C482 H476 0.930 . S
C482 C483 1.355 . S
C482 C484 1.415 . S
C483 C482 1.355 . S
C483 C485 1.419 . S
C484 C482 1.415 . S
C484 C489 1.425 . S
C484 C491 1.409 . S
C485 H477 0.930 . S
C485 C483 1.419 . S
C485 C486 1.362 . S
C486 H478 0.930 . S
C486 C485 1.362 . S
C486 C489 1.409 . S
C487 H479 0.930 . S
C487 C488 1.355 . S
C487 C489 1.415 . S
C488 C487 1.355 . S
C488 C490 1.419 . S
C489 C484 1.425 . S
C489 C486 1.409 . S
C489 C487 1.415 . S
C490 H480 0.930 1_455 S
C490 C488 1.419 . S
C490 C491 1.362 . S
C491 H481 0.930 1_455 S
C491 C484 1.409 . S
C491 C490 1.362 . S
H492 C498 0.930 . S
H493 C501 0.930 . S
H494 C502 0.930 1_554 S
H495 C503 0.930 1_554 S
H496 C506 0.930 . S
H497 C507 0.930 . S
C498 H492 0.930 . S
C498 C499 1.355 . S
C498 C500 1.415 . S
C499 C498 1.355 . S
C499 C501 1.419 . S
C500 C498 1.415 . S
C500 C505 1.425 . S
C500 C507 1.409 . S
C501 H493 0.930 . S
C501 C499 1.419 . S
C501 C502 1.362 . S
C502 H494 0.930 1_556 S
C502 C501 1.362 . S
C502 C505 1.409 . S
C503 H495 0.930 1_556 S
C503 C504 1.355 . S
C503 C505 1.415 . S
C504 C503 1.355 . S
C504 C506 1.419 . S
C505 C500 1.425 . S
C505 C502 1.409 . S
C505 C503 1.415 . S
C506 H496 0.930 . S
C506 C504 1.419 . S
C506 C507 1.362 . S
C507 H497 0.930 . S
C507 C500 1.409 . S
C507 C506 1.362 . S
H508 C514 0.930 . S
H509 C517 0.930 . S
H510 C518 0.930 1_455 S
H511 C519 0.930 1_455 S
H512 C522 0.930 . S
H513 C523 0.930 . S
C514 H508 0.930 . S
C514 C515 1.355 . S
C514 C516 1.415 . S
C515 C514 1.355 . S
C515 C517 1.419 . S
C516 C514 1.415 . S
C516 C521 1.425 . S
C516 C523 1.409 . S
C517 H509 0.930 . S
C517 C515 1.419 . S
C517 C518 1.362 . S
C518 H510 0.930 1_655 S
C518 C517 1.362 . S
C518 C521 1.409 . S
C519 H511 0.930 1_655 S
C519 C520 1.355 . S
C519 C521 1.415 . S
C520 C519 1.355 . S
C520 C522 1.419 . S
C521 C516 1.425 . S
C521 C518 1.409 . S
C521 C519 1.415 . S
C522 H512 0.930 . S
C522 C520 1.419 . S
C522 C523 1.362 . S
C523 H513 0.930 . S
C523 C516 1.409 . S
C523 C522 1.362 . S
H524 C530 0.930 . S
H525 C533 0.930 . S
H526 C534 0.930 . S
H527 C535 0.930 . S
H528 C538 0.930 . S
H529 C539 0.930 . S
C530 H524 0.930 . S
C530 C531 1.355 . S
C530 C532 1.415 . S
C531 C530 1.355 . S
C531 C533 1.419 . S
C532 C530 1.415 . S
C532 C537 1.425 . S
C532 C539 1.409 . S
C533 H525 0.930 . S
C533 C531 1.419 . S
C533 C534 1.362 . S
C534 H526 0.930 . S
C534 C533 1.362 . S
C534 C537 1.409 . S
C535 H527 0.930 . S
C535 C536 1.355 . S
C535 C537 1.415 . S
C536 C535 1.355 . S
C536 C538 1.419 . S
C537 C532 1.425 . S
C537 C534 1.409 . S
C537 C535 1.415 . S
C538 H528 0.930 . S
C538 C536 1.419 . S
C538 C539 1.362 . S
C539 H529 0.930 . S
C539 C532 1.409 . S
C539 C538 1.362 . S
H540 C546 0.930 1_545 S
H541 C549 0.930 1_455 S
H542 C550 0.944 . S
H543 C551 0.930 1_455 S
H544 C554 0.930 . S
H545 C555 0.930 . S
C546 H540 0.930 1_565 S
C546 C547 1.355 . S
C546 C548 1.415 . S
C547 C546 1.355 . S
C547 C549 1.419 . S
C548 C546 1.415 . S
C548 C553 1.425 . S
C548 C555 1.409 1_565 S
C549 H541 0.930 1_655 S
C549 C547 1.419 . S
C549 C550 1.357 1_655 S
C550 H542 0.944 . S
C550 C549 1.357 1_455 S
C550 C553 1.400 1_455 S
C551 H543 0.930 1_655 S
C551 C552 1.363 . S
C551 C553 1.415 . S
C552 C551 1.363 . S
C552 C554 1.412 1_565 S
C553 C548 1.425 . S
C553 C550 1.400 1_655 S
C553 C551 1.415 . S
C554 H544 0.930 . S
C554 C552 1.412 1_545 S
C554 C555 1.362 . S
C555 H545 0.930 . S
C555 C548 1.409 1_545 S
C555 C554 1.362 . S
H556 C562 0.930 . S
H557 C565 0.930 1_565 S
H558 C566 0.930 . S
H559 C567 0.930 1_565 S
H560 C570 0.930 . S
H561 C571 0.930 . S
C562 H556 0.930 . S
C562 C563 1.355 . S
C562 C564 1.415 . S
C563 C562 1.355 . S
C563 C565 1.419 . S
C564 C562 1.415 . S
C564 C569 1.425 . S
C564 C571 1.409 . S
C565 H557 0.930 1_545 S
C565 C563 1.419 . S
C565 C566 1.362 1_545 S
C566 H558 0.930 . S
C566 C565 1.362 1_565 S
C566 C569 1.409 1_565 S
C567 H559 0.930 1_545 S
C567 C568 1.355 . S
C567 C569 1.415 . S
C568 C567 1.355 . S
C568 C570 1.419 . S
C569 C564 1.425 . S
C569 C566 1.409 1_545 S
C569 C567 1.415 . S
C570 H560 0.930 . S
C570 C568 1.419 . S
C570 C571 1.362 . S
C571 H561 0.930 . S
C571 C564 1.409 . S
C571 C570 1.362 . S
H572 C578 0.930 . S
H573 C581 0.930 . S
H574 C582 0.930 . S
H575 C583 0.930 . S
H576 C586 0.930 . S
H577 C587 0.930 . S
C578 H572 0.930 . S
C578 C579 1.355 . S
C578 C580 1.415 . S
C579 C578 1.355 . S
C579 C581 1.419 . S
C580 C578 1.415 . S
C580 C585 1.425 . S
C580 C587 1.409 . S
C581 H573 0.930 . S
C581 C579 1.419 . S
C581 C582 1.362 . S
C582 H574 0.930 . S
C582 C581 1.362 . S
C582 C585 1.409 . S
C583 H575 0.930 . S
C583 C584 1.355 . S
C583 C585 1.415 . S
C584 C583 1.355 . S
C584 C586 1.419 . S
C585 C580 1.425 . S
C585 C582 1.409 . S
C585 C583 1.415 . S
C586 H576 0.930 . S
C586 C584 1.419 . S
C586 C587 1.362 . S
C587 H577 0.930 . S
C587 C580 1.409 . S
C587 C586 1.362 . S
H588 C594 0.930 . S
H589 C597 0.930 . S
H590 C598 0.930 . S
H591 C599 0.930 . S
H592 C602 0.930 . S
H593 C603 0.930 . S
C594 H588 0.930 . S
C594 C595 1.355 . S
C594 C596 1.415 . S
C595 C594 1.355 . S
C595 C597 1.419 . S
C596 C594 1.415 . S
C596 C601 1.425 . S
C596 C603 1.409 . S
C597 H589 0.930 . S
C597 C595 1.419 . S
C597 C598 1.362 . S
C598 H590 0.930 . S
C598 C597 1.362 . S
C598 C601 1.409 . S
C599 H591 0.930 . S
C599 C600 1.355 . S
C599 C601 1.415 . S
C600 C599 1.355 . S
C600 C602 1.419 . S
C601 C596 1.425 . S
C601 C598 1.409 . S
C601 C599 1.415 . S
C602 H592 0.930 . S
C602 C600 1.419 . S
C602 C603 1.362 . S
C603 H593 0.930 . S
C603 C596 1.409 . S
C603 C602 1.362 . S
H604 C610 0.930 . S
H605 C613 0.930 . S
H606 C614 0.930 . S
H607 C615 0.930 . S
H608 C618 0.930 . S
H609 C619 0.930 . S
C610 H604 0.930 . S
C610 C611 1.355 . S
C610 C612 1.415 . S
C611 C610 1.355 . S
C611 C613 1.419 1_565 S
C612 C610 1.415 . S
C612 C617 1.425 1_565 S
C612 C619 1.409 . S
C613 H605 0.930 . S
C613 C611 1.419 1_545 S
C613 C614 1.362 . S
C614 H606 0.930 . S
C614 C613 1.362 . S
C614 C617 1.409 . S
C615 H607 0.930 . S
C615 C616 1.355 1_545 S
C615 C617 1.415 . S
C616 C615 1.355 1_565 S
C616 C618 1.419 . S
C617 C612 1.425 1_545 S
C617 C614 1.409 . S
C617 C615 1.415 . S
C618 H608 0.930 . S
C618 C616 1.419 . S
C618 C619 1.362 . S
C619 H609 0.930 . S
C619 C612 1.409 . S
C619 C618 1.362 . S
H620 C626 0.913 1_565 S
H621 C629 0.930 . S
H622 C630 0.930 . S
H623 C631 0.930 . S
H624 C634 0.930 . S
H625 C635 0.930 . S
C626 H620 0.913 1_545 S
C626 C627 1.355 . S
C626 C628 1.415 . S
C627 C626 1.355 . S
C627 C629 1.419 . S
C628 C626 1.415 . S
C628 C633 1.425 . S
C628 C635 1.409 1_545 S
C629 H621 0.930 . S
C629 C627 1.419 . S
C629 C630 1.362 . S
C630 H622 0.930 . S
C630 C629 1.362 . S
C630 C633 1.409 . S
C631 H623 0.930 . S
C631 C632 1.355 . S
C631 C633 1.415 . S
C632 C631 1.355 . S
C632 C634 1.419 1_545 S
C633 C628 1.425 . S
C633 C630 1.409 . S
C633 C631 1.415 . S
C634 H624 0.930 . S
C634 C632 1.419 1_565 S
C634 C635 1.362 . S
C635 H625 0.930 . S
C635 C628 1.409 1_565 S
C635 C634 1.362 . S
H636 C642 0.930 . S
H637 C645 0.930 . S
H638 C646 0.930 . S
H639 C647 0.930 . S
H640 C650 0.930 . S
H641 C651 0.930 . S
C642 H636 0.930 . S
C642 C643 1.355 . S
C642 C644 1.415 . S
C643 C642 1.355 . S
C643 C645 1.419 . S
C644 C642 1.415 . S
C644 C649 1.425 . S
C644 C651 1.409 1_554 S
C645 H637 0.930 . S
C645 C643 1.419 . S
C645 C646 1.362 . S
C646 H638 0.930 . S
C646 C645 1.362 . S
C646 C649 1.409 . S
C647 H639 0.930 . S
C647 C648 1.355 . S
C647 C649 1.415 . S
C648 C647 1.355 . S
C648 C650 1.419 1_554 S
C649 C644 1.425 . S
C649 C646 1.409 . S
C649 C647 1.415 . S
C650 H640 0.930 . S
C650 C648 1.419 1_556 S
C650 C651 1.362 . S
C651 H641 0.930 . S
C651 C644 1.409 1_556 S
C651 C650 1.362 . S
H652 C658 0.930 . S
H653 C661 0.930 . S
H654 C662 0.930 . S
H655 C663 0.930 . S
H656 C666 0.930 . S
H657 C667 0.930 . S
C658 H652 0.930 . S
C658 C659 1.355 . S
C658 C660 1.415 . S
C659 C658 1.355 . S
C659 C661 1.419 . S
C660 C658 1.415 . S
C660 C665 1.425 . S
C660 C667 1.409 . S
C661 H653 0.930 . S
C661 C659 1.419 . S
C661 C662 1.362 . S
C662 H654 0.930 . S
C662 C661 1.362 . S
C662 C665 1.409 . S
C663 H655 0.930 . S
C663 C664 1.355 . S
C663 C665 1.415 . S
C664 C663 1.355 . S
C664 C666 1.419 . S
C665 C660 1.425 . S
C665 C662 1.409 . S
C665 C663 1.415 . S
C666 H656 0.930 . S
C666 C664 1.419 . S
C666 C667 1.362 . S
C667 H657 0.930 . S
C667 C660 1.409 . S
C667 C666 1.362 . S
H668 C674 0.930 1_554 S
H669 C677 0.930 1_455 S
H670 C678 0.912 1_455 S
H671 C679 0.930 1_455 S
H672 C682 0.930 . S
H673 C683 0.930 . S
C674 H668 0.930 1_556 S
C674 C675 1.355 . S
C674 C676 1.415 . S
C675 C674 1.355 . S
C675 C677 1.419 . S
C676 C674 1.415 . S
C676 C681 1.425 . S
C676 C683 1.409 1_556 S
C677 H669 0.930 1_655 S
C677 C675 1.419 . S
C677 C678 1.368 . S
C678 H670 0.912 1_655 S
C678 C677 1.368 . S
C678 C681 1.422 . S
C679 H671 0.930 1_655 S
C679 C680 1.355 . S
C679 C681 1.415 . S
C680 C679 1.355 . S
C680 C682 1.419 1_556 S
C681 C676 1.425 . S
C681 C678 1.422 . S
C681 C679 1.415 . S
C682 H672 0.930 . S
C682 C680 1.419 1_554 S
C682 C683 1.362 . S
C683 H673 0.930 . S
C683 C676 1.409 1_554 S
C683 C682 1.362 . S
H684 C690 0.930 . S
H685 C693 0.930 . S
H686 C694 0.930 1_556 S
H687 C695 0.930 . S
H688 C698 0.930 . S
H689 C699 0.930 . S
C690 H684 0.930 . S
C690 C691 1.355 . S
C690 C692 1.415 . S
C691 C690 1.355 . S
C691 C693 1.419 . S
C692 C690 1.415 . S
C692 C697 1.425 . S
C692 C699 1.409 . S
C693 H685 0.930 . S
C693 C691 1.419 . S
C693 C694 1.362 . S
C694 H686 0.930 1_554 S
C694 C693 1.362 . S
C694 C697 1.409 . S
C695 H687 0.930 . S
C695 C696 1.355 . S
C695 C697 1.415 . S
C696 C695 1.355 . S
C696 C698 1.419 . S
C697 C692 1.425 . S
C697 C694 1.409 . S
C697 C695 1.415 . S
C698 H688 0.930 . S
C698 C696 1.419 . S
C698 C699 1.362 . S
C699 H689 0.930 . S
C699 C692 1.409 . S
C699 C698 1.362 . S
H700 C706 0.930 . S
H701 C709 0.930 . S
H702 C710 0.930 1_655 S
H703 C711 0.930 1_655 S
H704 C714 0.930 . S
H705 C715 0.930 . S
C706 H700 0.930 . S
C706 C707 1.355 . S
C706 C708 1.415 . S
C707 C706 1.355 . S
C707 C709 1.419 . S
C708 C706 1.415 . S
C708 C713 1.425 . S
C708 C715 1.409 . S
C709 H701 0.930 . S
C709 C707 1.419 . S
C709 C710 1.362 . S
C710 H702 0.930 1_455 S
C710 C709 1.362 . S
C710 C713 1.409 . S
C711 H703 0.930 1_455 S
C711 C712 1.355 . S
C711 C713 1.415 . S
C712 C711 1.355 . S
C712 C714 1.419 . S
C713 C708 1.425 . S
C713 C710 1.409 . S
C713 C711 1.415 . S
C714 H704 0.930 . S
C714 C712 1.419 . S
C714 C715 1.362 . S
C715 H705 0.930 . S
C715 C708 1.409 . S
C715 C714 1.362 . S
H716 C722 0.930 . S
H717 C725 0.930 . S
H718 C726 0.930 . S
H719 C727 0.930 . S
H720 C730 0.930 . S
H721 C731 0.930 . S
C722 H716 0.930 . S
C722 C723 1.355 . S
C722 C724 1.415 . S
C723 C722 1.355 . S
C723 C725 1.419 . S
C724 C722 1.415 . S
C724 C729 1.425 . S
C724 C731 1.409 . S
C725 H717 0.930 . S
C725 C723 1.419 . S
C725 C726 1.362 . S
C726 H718 0.930 . S
C726 C725 1.362 . S
C726 C729 1.409 . S
C727 H719 0.930 . S
C727 C728 1.355 . S
C727 C729 1.415 . S
C728 C727 1.355 . S
C728 C730 1.419 . S
C729 C724 1.425 . S
C729 C726 1.409 . S
C729 C727 1.415 . S
C730 H720 0.930 . S
C730 C728 1.419 . S
C730 C731 1.362 . S
C731 H721 0.930 . S
C731 C724 1.409 . S
C731 C730 1.362 . S
C355 C29 1.580 . S
C360 C274 1.628 . S
C371 C49 1.541 . S
C376 C298 1.543 . S
C392 C318 1.462 . S
C387 C93 1.344 . S
C403 C119 1.292 . S
C408 C341 1.405 . S
C424 C300 1.631 . S
C419 C17 1.602 . S
C440 C276 1.663 . S
C435 C61 1.707 . S
C456 C344 1.573 . S
C451 C81 1.543 . S
C472 C321 1.593 . S
C467 C125 1.545 . S
C483 C23 1.307 . S
C488 C346 1.351 . S
C504 C295 1.597 . S
C499 C87 1.531 . S
C515 C113 1.548 . S
C520 C273 1.644 . S
C531 C55 1.402 . S
C536 C323 1.332 . S
C552 C277 1.656 . S
C547 C157 1.649 . S
C563 C189 1.553 . S
C568 C299 1.614 . S
C579 C221 1.758 . S
C584 C319 1.747 . S
C595 C253 1.579 . S
C600 C342 1.755 . S
C611 C145 1.659 . S
C616 C297 1.585 1_556 S
C632 C275 1.583 . S
C627 C183 1.382 . S
C648 C345 1.529 . S
C643 C209 1.560 . S
C664 C322 1.495 . S
C659 C247 1.490 . S
C675 C151 1.884 . S
C680 C343 1.841 . S
C696 C296 1.590 . S
C691 C215 1.595 . S
C712 C272 1.628 . S
C707 C241 1.541 . S
C723 C177 1.700 . S
C728 C320 1.807 . S
