# Generated by pormake.
# Topology zzz, (3,6)-cn, num edge types: 1
# Building blocks:
#     Node 0, Type 0, BuildingBlock: MIDCAF_clean_linker_0, # of connection points: 3
#     Node 1, Type 0, BuildingBlock: MIDCAF_clean_linker_0, # of connection points: 3
#     Node 2, Type 0, BuildingBlock: MIDCAF_clean_linker_0, # of connection points: 3
#     Node 3, Type 0, BuildingBlock: MIDCAF_clean_linker_0, # of connection points: 3
#     Node 4, Type 0, BuildingBlock: MIDCAF_clean_linker_0, # of connection points: 3
#     Node 5, Type 0, BuildingBlock: MIDCAF_clean_linker_0, # of connection points: 3
#     Node 6, Type 0, BuildingBlock: MIDCAF_clean_linker_0, # of connection points: 3
#     Node 7, Type 0, BuildingBlock: MIDCAF_clean_linker_0, # of connection points: 3
#     Node 8, Type 1, BuildingBlock: VOLQOD_clean_sbu_1, # of connection points: 6
#     Node 9, Type 1, BuildingBlock: VOLQOD_clean_sbu_1, # of connection points: 6
#     Node 10, Type 1, BuildingBlock: VOLQOD_clean_sbu_1, # of connection points: 6
#     Node 11, Type 1, BuildingBlock: VOLQOD_clean_sbu_1, # of connection points: 6
#     Edge 12, Type (0, 1), BuildingBlock: OJICUG_clean_linker_0, # of connection points: 2
#     Edge 13, Type (0, 1), BuildingBlock: OJICUG_clean_linker_0, # of connection points: 2
#     Edge 14, Type (0, 1), BuildingBlock: OJICUG_clean_linker_0, # of connection points: 2
#     Edge 15, Type (0, 1), BuildingBlock: OJICUG_clean_linker_0, # of connection points: 2
#     Edge 16, Type (0, 1), BuildingBlock: OJICUG_clean_linker_0, # of connection points: 2
#     Edge 17, Type (0, 1), BuildingBlock: OJICUG_clean_linker_0, # of connection points: 2
#     Edge 18, Type (0, 1), BuildingBlock: OJICUG_clean_linker_0, # of connection points: 2
#     Edge 19, Type (0, 1), BuildingBlock: OJICUG_clean_linker_0, # of connection points: 2
#     Edge 20, Type (0, 1), BuildingBlock: OJICUG_clean_linker_0, # of connection points: 2
#     Edge 21, Type (0, 1), BuildingBlock: OJICUG_clean_linker_0, # of connection points: 2
#     Edge 22, Type (0, 1), BuildingBlock: OJICUG_clean_linker_0, # of connection points: 2
#     Edge 23, Type (0, 1), BuildingBlock: OJICUG_clean_linker_0, # of connection points: 2
#     Edge 24, Type (0, 1), BuildingBlock: OJICUG_clean_linker_0, # of connection points: 2
#     Edge 25, Type (0, 1), BuildingBlock: OJICUG_clean_linker_0, # of connection points: 2
#     Edge 26, Type (0, 1), BuildingBlock: OJICUG_clean_linker_0, # of connection points: 2
#     Edge 27, Type (0, 1), BuildingBlock: OJICUG_clean_linker_0, # of connection points: 2
#     Edge 28, Type (0, 1), BuildingBlock: OJICUG_clean_linker_0, # of connection points: 2
#     Edge 29, Type (0, 1), BuildingBlock: OJICUG_clean_linker_0, # of connection points: 2
#     Edge 30, Type (0, 1), BuildingBlock: OJICUG_clean_linker_0, # of connection points: 2
#     Edge 31, Type (0, 1), BuildingBlock: OJICUG_clean_linker_0, # of connection points: 2
#     Edge 32, Type (0, 1), BuildingBlock: OJICUG_clean_linker_0, # of connection points: 2
#     Edge 33, Type (0, 1), BuildingBlock: OJICUG_clean_linker_0, # of connection points: 2
#     Edge 34, Type (0, 1), BuildingBlock: OJICUG_clean_linker_0, # of connection points: 2
#     Edge 35, Type (0, 1), BuildingBlock: OJICUG_clean_linker_0, # of connection points: 2
# Relax obj value: 0.362
# Max RMSD: 0.259
# Mean RMSD: 0.209
data_MOF--net-zzz--node1-VOLQOD_clean_sbu_1--node2-MIDCAF_clean_linker_0--edge1-OJICUG_clean_linker_0
_symmetry_space_group_name_H-M    P1
_symmetry_Int_Tables_number       1
_symmetry_cell_setting            triclinic
loop_
_symmetry_equiv_pos_as_xyz
'x, y, z'
_cell_length_a     45.111427
_cell_length_b     44.365758
_cell_length_c     17.819368
_cell_angle_alpha  90.194903
_cell_angle_beta   90.214056
_cell_angle_gamma 92.296356
loop_
_atom_site_label
_atom_site_type_symbol
_atom_site_fract_x
_atom_site_fract_y
_atom_site_fract_z
_atom_type_partial_charge
C0 C 0.85966 0.5397 0.32531 0.0
C1 C 0.85482 0.52549 0.39479 0.0
C2 C 0.82904 0.50686 0.40396 0.0
C3 C 0.81076 0.49947 0.34234 0.0
H4 H 0.72774 0.51257 0.14876 0.0
H5 H 0.68011 0.5154 0.08364 0.0
H6 H 0.70502 0.44414 0.93358 0.0
H7 H 0.75197 0.44083 0.99881 0.0
H8 H 0.81961 0.42217 0.986 0.0
H9 H 0.86055 0.40402 0.91135 0.0
H10 H 0.92293 0.45095 0.06033 0.0
H11 H 0.8827 0.46726 0.13598 0.0
H12 H 0.8477 0.54082 0.20909 0.0
H13 H 0.8793 0.55402 0.31596 0.0
H14 H 0.82446 0.49594 0.45718 0.0
H15 H 0.79302 0.48249 0.34884 0.0
N16 N 0.78063 0.49254 0.17686 0.0
N17 N 0.79542 0.46065 0.07895 0.0
N18 N 0.82993 0.47791 0.16859 0.0
C19 C 0.77382 0.47616 0.11361 0.0
C20 C 0.82352 0.46135 0.10643 0.0
C21 C 0.80886 0.49335 0.20412 0.0
C22 C 0.74383 0.47655 0.07901 0.0
C23 C 0.72289 0.49725 0.10247 0.0
C24 C 0.69568 0.49905 0.06481 0.0
C25 C 0.68877 0.48004 0.0033 0.0
C26 C 0.70941 0.45887 0.98128 0.0
C27 C 0.73652 0.45714 0.01856 0.0
C28 C 0.84778 0.44668 0.06615 0.0
C29 C 0.84214 0.42802 0.00341 0.0
C30 C 0.86567 0.4177 0.96047 0.0
C31 C 0.89526 0.42626 0.97873 0.0
C32 C 0.9007 0.4433 0.04443 0.0
C33 C 0.87736 0.45313 0.08772 0.0
C34 C 0.81802 0.51071 0.27108 0.0
C35 C 0.84149 0.53222 0.26392 0.0
C36 C 0.99124 0.85322 0.28978 0.0
C37 C 0.98413 0.84212 0.36156 0.0
C38 C 0.98857 0.81137 0.37653 0.0
C39 C 0.00149 0.79285 0.32236 0.0
H40 H 0.98837 0.71745 0.10174 0.0
H41 H 0.97967 0.66987 0.03249 0.0
H42 H 0.0741 0.658 0.02455 0.0
H43 H 0.08275 0.70559 0.09177 0.0
H44 H 0.08819 0.7825 0.96826 0.0
H45 H 0.09959 0.82148 0.87561 0.0
H46 H 0.09841 0.88943 0.04959 0.0
H47 H 0.08796 0.85062 0.14218 0.0
H48 H 0.01029 0.84485 0.183 0.0
H49 H 0.98881 0.87672 0.27575 0.0
H50 H 0.98307 0.80189 0.43086 0.0
H51 H 0.00613 0.76978 0.33641 0.0
N52 N 0.02481 0.75911 0.1822 0.0
N53 N 0.06326 0.76357 0.09294 0.0
N54 N 0.05083 0.80536 0.16404 0.0
C55 C 0.04212 0.74634 0.12889 0.0
C56 C 0.06784 0.79314 0.11057 0.0
C57 C 0.02948 0.78882 0.20024 0.0
C58 C 0.03623 0.71509 0.10221 0.0
C59 C 0.00715 0.70421 0.08686 0.0
C60 C 0.00219 0.6772 0.04671 0.0
C61 C 0.02622 0.66033 0.02299 0.0
C62 C 0.05516 0.67039 0.04255 0.0
C63 C 0.06011 0.69762 0.08097 0.0
C64 C 0.08592 0.81364 0.06202 0.0
C65 C 0.09172 0.80558 0.98735 0.0
C66 C 0.09815 0.82796 0.93412 0.0
C67 C 0.09875 0.85862 0.95486 0.0
C68 C 0.0978 0.86609 0.03142 0.0
C69 C 0.0915 0.84376 0.0846 0.0
C70 C 0.01031 0.80493 0.25285 0.0
C71 C 0.004 0.83493 0.23642 0.0
C72 C 0.65957 0.96645 0.28939 0.0
C73 C 0.67077 0.96626 0.36316 0.0
C74 C 0.70045 0.97647 0.37552 0.0
C75 C 0.71764 0.98851 0.31624 0.0
H76 H 0.79481 0.97538 0.12214 0.0
H77 H 0.84286 0.96814 0.06149 0.0
H78 H 0.83576 0.05349 0.94837 0.0
H79 H 0.78867 0.0609 0.0087 0.0
H80 H 0.71098 0.05595 0.94003 0.0
H81 H 0.6681 0.06946 0.8665 0.0
H82 H 0.62091 0.08918 0.07046 0.0
H83 H 0.66354 0.07434 0.144 0.0
H84 H 0.66653 0.97977 0.17576 0.0
H85 H 0.63682 0.95941 0.27705 0.0
H86 H 0.70994 0.97638 0.4314 0.0
H87 H 0.73971 0.99797 0.32776 0.0
N88 N 0.74729 0.00629 0.16098 0.0
N89 N 0.73955 0.04215 0.06627 0.0
N90 N 0.70153 0.0294 0.15003 0.0
C91 C 0.75773 0.02279 0.10132 0.0
C92 C 0.71155 0.0458 0.09098 0.0
C93 C 0.71902 0.00972 0.18531 0.0
C94 C 0.78784 0.01872 0.07035 0.0
C95 C 0.80377 0.99272 0.08503 0.0
C96 C 0.83112 0.98844 0.04987 0.0
C97 C 0.84317 0.01029 0.00038 0.0
C98 C 0.82738 0.0364 0.987 0.0
C99 C 0.80018 0.04055 0.02138 0.0
C100 C 0.69025 0.06329 0.04766 0.0
C101 C 0.69186 0.0642 0.96907 0.0
C102 C 0.66719 0.07213 0.92685 0.0
C103 C 0.64066 0.07963 0.96263 0.0
C104 C 0.64067 0.08265 0.0412 0.0
C105 C 0.66512 0.07425 0.08334 0.0
C106 C 0.70526 0.99062 0.24418 0.0
C107 C 0.67657 0.97842 0.23096 0.0
C108 C 0.46319 0.62911 0.09885 0.0
C109 C 0.45328 0.63546 0.02603 0.0
C110 C 0.44745 0.66541 0.00737 0.0
C111 C 0.45502 0.68891 0.05702 0.0
H112 H 0.55574 0.78908 0.13066 0.0
H113 H 0.55868 0.83159 0.04321 0.0
H114 H 0.46297 0.83439 0.04356 0.0
H115 H 0.46026 0.79116 0.12715 0.0
H116 H 0.50778 0.72047 0.40632 0.0
H117 H 0.52788 0.68544 0.49657 0.0
H118 H 0.59533 0.66241 0.33714 0.0
H119 H 0.57476 0.69741 0.24679 0.0
H120 H 0.48056 0.647 0.20205 0.0
H121 H 0.46788 0.60626 0.11496 0.0
H122 H 0.43928 0.67086 0.95199 0.0
H123 H 0.4524 0.71188 0.03846 0.0
N124 N 0.4864 0.73576 0.14092 0.0
N125 N 0.52315 0.74982 0.22998 0.0
N126 N 0.50213 0.70043 0.22747 0.0
C127 C 0.50529 0.75711 0.17142 0.0
C128 C 0.52098 0.72146 0.25888 0.0
C129 C 0.48476 0.70729 0.16834 0.0
C130 C 0.50776 0.78684 0.13495 0.0
C131 C 0.53547 0.79938 0.11322 0.0
C132 C 0.5371 0.82367 0.06302 0.0
C133 C 0.51102 0.83597 0.03465 0.0
C134 C 0.48348 0.82487 0.062 0.0
C135 C 0.48188 0.80035 0.11069 0.0
C136 C 0.53998 0.71174 0.32034 0.0
C137 C 0.52791 0.70917 0.39245 0.0
C138 C 0.53942 0.68898 0.44395 0.0
C139 C 0.56294 0.67076 0.42353 0.0
C140 C 0.577 0.67588 0.35414 0.0
C141 C 0.5655 0.69616 0.30278 0.0
C142 C 0.46858 0.68284 0.12622 0.0
C143 C 0.47074 0.6526 0.14859 0.0
C144 C 0.21291 0.54863 0.94864 0.0
C145 C 0.20784 0.51722 0.94423 0.0
C146 C 0.22146 0.49875 0.99707 0.0
C147 C 0.23817 0.51163 0.05627 0.0
H148 H 0.32333 0.5207 0.20069 0.0
H149 H 0.36525 0.50385 0.27467 0.0
H150 H 0.33657 0.55661 0.46312 0.0
H151 H 0.29471 0.57306 0.39043 0.0
H152 H 0.23114 0.59637 0.39239 0.0
H153 H 0.18588 0.60537 0.46025 0.0
H154 H 0.13951 0.61768 0.25073 0.0
H155 H 0.18479 0.60808 0.18229 0.0
H156 H 0.23051 0.58581 0.01403 0.0
H157 H 0.20243 0.56343 0.90921 0.0
H158 H 0.21783 0.47447 0.99484 0.0
H159 H 0.24676 0.49706 0.09919 0.0
N160 N 0.27386 0.54762 0.17511 0.0
N161 N 0.25991 0.57664 0.2788 0.0
N162 N 0.23064 0.57534 0.17037 0.0
C163 C 0.27947 0.55815 0.24594 0.0
C164 C 0.23544 0.58536 0.24142 0.0
C165 C 0.24964 0.55664 0.13684 0.0
C166 C 0.30549 0.54821 0.28942 0.0
C167 C 0.32595 0.5287 0.2579 0.0
C168 C 0.35005 0.51911 0.30019 0.0
C169 C 0.35413 0.5287 0.37499 0.0
C170 C 0.33379 0.54833 0.40617 0.0
C171 C 0.30984 0.55796 0.36404 0.0
C172 C 0.21137 0.60038 0.28178 0.0
C173 C 0.21162 0.60198 0.36058 0.0
C174 C 0.18558 0.6074 0.39971 0.0
C175 C 0.15885 0.61149 0.3608 0.0
C176 C 0.15961 0.6139 0.28222 0.0
C177 C 0.18561 0.60837 0.24304 0.0
C178 C 0.24082 0.54312 0.06421 0.0
C179 C 0.22896 0.56146 0.00858 0.0
C180 C 0.11657 0.15623 0.0298 0.0
C181 C 0.09424 0.16552 0.98088 0.0
C182 C 0.08183 0.19377 0.99352 0.0
C183 C 0.08981 0.21103 0.05715 0.0
H184 H 0.07173 0.29212 0.21014 0.0
H185 H 0.05854 0.34132 0.26167 0.0
H186 H 0.12333 0.33212 0.43826 0.0
H187 H 0.1361 0.28332 0.38766 0.0
H188 H 0.08888 0.21081 0.45409 0.0
H189 H 0.06338 0.17261 0.52869 0.0
H190 H 0.09858 0.10294 0.38834 0.0
H191 H 0.12322 0.14155 0.31114 0.0
H192 H 0.14033 0.16448 0.13212 0.0
H193 H 0.12654 0.13462 0.02254 0.0
H194 H 0.06493 0.20187 0.95618 0.0
H195 H 0.0784 0.23158 0.06836 0.0
N196 N 0.10913 0.24253 0.20159 0.0
N197 N 0.11071 0.23174 0.33081 0.0
N198 N 0.11415 0.19282 0.24353 0.0
C199 C 0.10917 0.25218 0.27446 0.0
C200 C 0.11302 0.20199 0.31585 0.0
C201 C 0.11244 0.21269 0.18617 0.0
C202 C 0.10495 0.28401 0.29492 0.0
C203 C 0.08359 0.30108 0.25879 0.0
C204 C 0.07586 0.32902 0.28869 0.0
C205 C 0.08985 0.34051 0.35414 0.0
C206 C 0.11233 0.32405 0.38748 0.0
C207 C 0.1196 0.29607 0.35858 0.0
C208 C 0.10723 0.17928 0.3751 0.0
C209 C 0.09206 0.18736 0.44037 0.0
C210 C 0.07743 0.16529 0.48358 0.0
C211 C 0.07809 0.13467 0.46299 0.0
C212 C 0.09675 0.12641 0.404 0.0
C213 C 0.11107 0.14854 0.36013 0.0
C214 C 0.11019 0.20019 0.10925 0.0
C215 C 0.12442 0.17334 0.09307 0.0
C216 C 0.31381 0.97622 0.92643 0.0
C217 C 0.32501 0.00597 0.91591 0.0
C218 C 0.31472 0.02884 0.96311 0.0
C219 C 0.29568 0.02162 0.02317 0.0
H220 H 0.1971 0.01231 0.16171 0.0
H221 H 0.15337 0.02773 0.23169 0.0
H222 H 0.19511 0.00142 0.43868 0.0
H223 H 0.23832 0.9868 0.37016 0.0
H224 H 0.29114 0.94641 0.37272 0.0
H225 H 0.33298 0.92813 0.44229 0.0
H226 H 0.37436 0.90217 0.23476 0.0
H227 H 0.3327 0.92129 0.16466 0.0
H228 H 0.28888 0.94559 0.99643 0.0
H229 H 0.3214 0.95783 0.89236 0.0
H230 H 0.32261 0.05203 0.95612 0.0
H231 H 0.29003 0.03918 0.06238 0.0
N232 N 0.25339 0.99417 0.14737 0.0
N233 N 0.26421 0.96623 0.25547 0.0
N234 N 0.29366 0.9621 0.14905 0.0
C235 C 0.24674 0.98589 0.21935 0.0
C236 C 0.28764 0.95417 0.2207 0.0
C237 C 0.27687 0.98194 0.11209 0.0
C238 C 0.22116 0.9981 0.26013 0.0
C239 C 0.19702 0.01032 0.22226 0.0
C240 C 0.17192 0.01897 0.26227 0.0
C241 C 0.17072 0.01591 0.34089 0.0
C242 C 0.19534 0.00463 0.37845 0.0
C243 C 0.22012 0.99588 0.33879 0.0
C244 C 0.30894 0.93613 0.26302 0.0
C245 C 0.30873 0.93608 0.34183 0.0
C246 C 0.33274 0.92532 0.3819 0.0
C247 C 0.35736 0.91417 0.34401 0.0
C248 C 0.35606 0.91126 0.26551 0.0
C249 C 0.33213 0.92221 0.22539 0.0
C250 C 0.28687 0.99144 0.03698 0.0
C251 C 0.29506 0.96908 0.98627 0.0
C252 C 0.54307 0.35607 0.27024 0.0
C253 C 0.56049 0.3487 0.33264 0.0
C254 C 0.56616 0.31813 0.34538 0.0
C255 C 0.55248 0.29545 0.301 0.0
H256 H 0.44582 0.19339 0.21925 0.0
H257 H 0.44399 0.1463 0.2916 0.0
H258 H 0.53961 0.14969 0.30544 0.0
H259 H 0.5414 0.19686 0.23507 0.0
H260 H 0.47349 0.24891 0.97041 0.0
H261 H 0.46345 0.28251 0.86558 0.0
H262 H 0.4305 0.348 0.0215 0.0
H263 H 0.43963 0.31409 0.12447 0.0
H264 H 0.51546 0.34033 0.18028 0.0
H265 H 0.53773 0.37916 0.25859 0.0
H266 H 0.58005 0.3116 0.39176 0.0
H267 H 0.55602 0.2721 0.31469 0.0
N268 N 0.51417 0.25034 0.22447 0.0
N269 N 0.4759 0.23845 0.1373 0.0
N270 N 0.49544 0.28807 0.14929 0.0
C271 C 0.49497 0.22967 0.19206 0.0
C272 C 0.47629 0.2679 0.116 0.0
C273 C 0.51452 0.27964 0.20315 0.0
C274 C 0.49375 0.19866 0.22172 0.0
C275 C 0.4664 0.18361 0.23625 0.0
C276 C 0.46535 0.1569 0.27807 0.0
C277 C 0.49166 0.14453 0.30423 0.0
C278 C 0.51903 0.15866 0.28559 0.0
C279 C 0.52004 0.18563 0.24545 0.0
C280 C 0.45765 0.27918 0.05524 0.0
C281 C 0.46237 0.26966 0.98134 0.0
C282 C 0.45705 0.28919 0.92155 0.0
C283 C 0.44724 0.3185 0.93531 0.0
C284 C 0.4382 0.3258 0.00833 0.0
C285 C 0.4434 0.30629 0.06771 0.0
C286 C 0.53321 0.30296 0.24243 0.0
C287 C 0.52983 0.33355 0.2255 0.0
O288 O 0.07505 0.01931 0.60404 0.0
Zn289 Zn 0.05142 0.0136 0.69923 0.0
O290 O 0.00902 0.00781 0.67498 0.0
Zn291 Zn 0.98804 0.04221 0.71743 0.0
Zn292 Zn 0.00381 0.00555 0.56532 0.0
Zn293 Zn 0.99193 0.97039 0.71815 0.0
O294 O 0.95667 0.02795 0.78874 0.0
O295 O 0.95769 0.97793 0.79074 0.0
O296 O 0.05995 0.05114 0.76232 0.0
O297 O 0.01572 0.0706 0.77467 0.0
O298 O 0.96957 0.06646 0.63521 0.0
O299 O 0.97346 0.03553 0.54203 0.0
O300 O 0.98835 0.96449 0.53189 0.0
O301 O 0.0662 0.97709 0.75479 0.0
O302 O 0.97907 0.93989 0.6381 0.0
O303 O 0.02426 0.94968 0.77123 0.0
C304 C 0.06892 0.01959 0.53415 0.0
C305 C 0.94688 0.00256 0.81316 0.0
C306 C 0.97811 0.06188 0.56851 0.0
C307 C 0.04353 0.07164 0.78715 0.0
C308 C 0.97949 0.94081 0.56669 0.0
C309 C 0.0522 0.95364 0.77951 0.0
O310 O 0.04243 0.01481 0.5105 0.0
O311 O 0.48899 0.05214 0.58609 0.0
Zn312 Zn 0.4915 0.0273 0.68116 0.0
O313 O 0.50337 0.9859 0.6563 0.0
Zn314 Zn 0.47205 0.95692 0.6854 0.0
Zn315 Zn 0.50962 0.98176 0.54858 0.0
Zn316 Zn 0.54003 0.97636 0.70876 0.0
O317 O 0.48634 0.92789 0.76226 0.0
O318 O 0.5336 0.94171 0.78195 0.0
O319 O 0.45106 0.02709 0.7327 0.0
O320 O 0.43798 0.97826 0.72936 0.0
O321 O 0.45447 0.93401 0.59788 0.0
O322 O 0.47906 0.95343 0.50101 0.0
O323 O 0.5503 0.96737 0.52578 0.0
O324 O 0.52209 0.04837 0.74978 0.0
O325 O 0.57324 0.96713 0.6364 0.0
O326 O 0.55411 0.01213 0.76845 0.0
C327 C 0.49612 0.04715 0.51808 0.0
C328 C 0.5109 0.92468 0.79622 0.0
C329 C 0.4588 0.93579 0.52756 0.0
C330 C 0.43235 0.00539 0.74531 0.0
C331 C 0.57338 0.96355 0.56543 0.0
C332 C 0.54564 0.03876 0.77943 0.0
O333 O 0.50545 0.02172 0.4974 0.0
O334 O 0.45092 0.49495 0.62994 0.0
Zn335 Zn 0.4785 0.48898 0.71794 0.0
O336 O 0.5202 0.49324 0.68402 0.0
Zn337 Zn 0.54057 0.45703 0.71066 0.0
Zn338 Zn 0.52202 0.49882 0.57524 0.0
Zn339 Zn 0.54067 0.5278 0.7323 0.0
O340 O 0.5736 0.46563 0.78455 0.0
O341 O 0.57472 0.51537 0.79864 0.0
O342 O 0.46865 0.44732 0.76164 0.0
O343 O 0.51236 0.4263 0.75512 0.0
O344 O 0.55696 0.43685 0.62028 0.0
O345 O 0.54285 0.46497 0.52478 0.0
O346 O 0.54303 0.53811 0.54824 0.0
O347 O 0.46943 0.52132 0.79484 0.0
O348 O 0.5556 0.55896 0.65765 0.0
O349 O 0.51174 0.54896 0.79556 0.0
C350 C 0.45481 0.49921 0.55987 0.0
C351 C 0.58479 0.48967 0.81414 0.0
C352 C 0.55579 0.44212 0.55026 0.0
C353 C 0.48493 0.4248 0.7715 0.0
C354 C 0.55477 0.55984 0.58628 0.0
C355 C 0.48503 0.54433 0.8166 0.0
O356 O 0.48075 0.50066 0.53166 0.0
O357 O 0.97689 0.53969 0.59503 0.0
Zn358 Zn 0.01774 0.5436 0.64437 0.0
O359 O 0.03345 0.50335 0.66436 0.0
Zn360 Zn 0.03879 0.49764 0.77224 0.0
Zn361 Zn 0.00635 0.47184 0.62439 0.0
Zn362 Zn 0.07166 0.49927 0.61651 0.0
O363 O 0.081 0.48857 0.7993 0.0
O364 O 0.10477 0.49755 0.69241 0.0
O365 O 0.01488 0.56778 0.74107 0.0
O366 O 0.03071 0.53623 0.82763 0.0
O367 O 0.01006 0.4655 0.81146 0.0
O368 O 0.98734 0.44822 0.70826 0.0
O369 O 0.02634 0.44329 0.55271 0.0
O370 O 0.04516 0.56756 0.57386 0.0
O371 O 0.07259 0.46219 0.55121 0.0
O372 O 0.08037 0.53488 0.55165 0.0
C373 C 0.96225 0.51683 0.56852 0.0
C374 C 0.10504 0.49172 0.76232 0.0
C375 C 0.9907 0.44817 0.77918 0.0
C376 C 0.0213 0.56187 0.80912 0.0
C377 C 0.05307 0.44242 0.52994 0.0
C378 C 0.06886 0.56021 0.54102 0.0
O379 O 0.97206 0.49037 0.5731 0.0
C380 C 0.14592 0.035 0.45664 0.0
C381 C 0.14349 0.02226 0.38437 0.0
H382 H 0.12432 0.04426 0.56033 0.0
C383 C 0.11526 0.01242 0.35819 0.0
H384 H 0.16718 0.04353 0.47792 0.0
C385 C 0.0905 0.01319 0.40537 0.0
C386 C 0.09357 0.02355 0.47979 0.0
H387 H 0.11258 0.00242 0.30294 0.0
H388 H 0.06935 0.00403 0.38492 0.0
C389 C 0.12133 0.03548 0.50389 0.0
C390 C 0.50867 0.09374 0.34228 0.0
C391 C 0.49085 0.1184 0.35575 0.0
H392 H 0.52405 0.05175 0.38263 0.0
C393 C 0.47404 0.11909 0.42189 0.0
H394 H 0.52185 0.09274 0.2917 0.0
C395 C 0.47569 0.09595 0.4747 0.0
C396 C 0.49379 0.07141 0.4617 0.0
H397 H 0.46039 0.13805 0.43393 0.0
H398 H 0.46287 0.09734 0.52578 0.0
C399 C 0.5099 0.07033 0.39436 0.0
C400 C 0.40819 0.51801 0.38957 0.0
C401 C 0.37963 0.51879 0.42058 0.0
H402 H 0.4543 0.51122 0.40892 0.0
C403 C 0.37579 0.51125 0.49662 0.0
H404 H 0.41195 0.5239 0.33135 0.0
C405 C 0.40004 0.50409 0.54123 0.0
C406 C 0.42878 0.50429 0.51094 0.0
H407 H 0.35399 0.51112 0.52194 0.0
H408 H 0.39626 0.49895 0.59988 0.0
C409 C 0.4325 0.51087 0.43424 0.0
C410 C 0.10102 0.38986 0.41936 0.0
C411 C 0.08001 0.36842 0.39138 0.0
H412 H 0.10907 0.42995 0.48428 0.0
C413 C 0.04977 0.37243 0.40554 0.0
H414 H 0.12446 0.38747 0.40893 0.0
C415 C 0.04087 0.39671 0.44945 0.0
C416 C 0.06202 0.41764 0.47952 0.0
H417 H 0.0331 0.3561 0.38532 0.0
H418 H 0.01748 0.39873 0.46095 0.0
C419 C 0.09215 0.41422 0.46258 0.0
C420 C 0.89195 0.03102 0.95347 0.0
C421 C 0.87179 0.00628 0.96099 0.0
H422 H 0.93125 0.04909 0.90165 0.0
C423 C 0.87811 0.97894 0.9252 0.0
H424 H 0.88812 0.05218 0.98164 0.0
C425 C 0.90322 0.97704 0.87924 0.0
C426 C 0.92227 0.0025 0.86818 0.0
H427 H 0.86294 0.95949 0.92984 0.0
H428 H 0.90697 0.95612 0.84993 0.0
C429 C 0.91673 0.0292 0.90754 0.0
C430 C 0.53446 0.88146 0.96904 0.0
C431 C 0.51203 0.85852 0.97276 0.0
H432 H 0.55187 0.92035 0.91001 0.0
C433 C 0.49036 0.85685 0.91573 0.0
H434 H 0.55146 0.8835 0.012 0.0
C435 C 0.4904 0.87804 0.85819 0.0
C436 C 0.51238 0.90131 0.85517 0.0
H437 H 0.47329 0.83898 0.91507 0.0
H438 H 0.4731 0.87614 0.81591 0.0
C439 C 0.53469 0.90259 0.91062 0.0
C440 C 0.64514 0.45672 0.93356 0.0
C441 C 0.66071 0.48271 0.96009 0.0
H442 H 0.60915 0.43849 0.86723 0.0
C443 C 0.65021 0.51115 0.94125 0.0
H444 H 0.65231 0.43446 0.94804 0.0
C445 C 0.62525 0.51351 0.89497 0.0
C446 C 0.61028 0.48747 0.8665 0.0
H447 H 0.66185 0.53162 0.96018 0.0
H448 H 0.61811 0.53576 0.88025 0.0
C449 C 0.62029 0.45906 0.88732 0.0
C450 C 0.00525 0.63591 0.9061 0.0
C451 C 0.02173 0.63371 0.97284 0.0
H452 H 0.99236 0.61507 0.80157 0.0
C453 C 0.03624 0.60694 0.9876 0.0
H454 H 0.99409 0.65641 0.89298 0.0
C455 C 0.03504 0.58318 0.93575 0.0
C456 C 0.01974 0.58585 0.86724 0.0
H457 H 0.04904 0.60463 0.03868 0.0
H458 H 0.04708 0.56314 0.94824 0.0
C459 C 0.00445 0.61231 0.85355 0.0
C460 C 0.04068 0.09194 0.44597 0.0
C461 C 0.05571 0.11268 0.49412 0.0
H462 H 0.00429 0.05998 0.43174 0.0
C463 C 0.04613 0.11506 0.56876 0.0
H464 H 0.04699 0.08984 0.38768 0.0
C465 C 0.02111 0.09845 0.59335 0.0
C466 C 0.00553 0.07848 0.54441 0.0
H467 H 0.05735 0.13053 0.60761 0.0
H468 H 0.01369 0.10183 0.65027 0.0
C469 C 0.0159 0.07506 0.47086 0.0
C470 C 0.38608 0.90089 0.45963 0.0
C471 C 0.38581 0.91101 0.38498 0.0
H472 H 0.40984 0.90023 0.56358 0.0
C473 C 0.4123 0.92321 0.35403 0.0
H474 H 0.36625 0.89073 0.48461 0.0
C475 C 0.43737 0.92843 0.39901 0.0
C476 C 0.43641 0.92174 0.47598 0.0
H477 H 0.41299 0.93134 0.2968 0.0
H478 H 0.45658 0.94007 0.3747 0.0
C479 C 0.41115 0.90621 0.50477 0.0
C480 C 0.56595 0.36549 0.46659 0.0
C481 C 0.56821 0.37236 0.38974 0.0
H482 H 0.56085 0.38236 0.5779 0.0
C483 C 0.57256 0.40278 0.36859 0.0
H484 H 0.56243 0.34247 0.48553 0.0
C485 C 0.57062 0.42582 0.42177 0.0
C486 C 0.56529 0.41881 0.49736 0.0
H487 H 0.57547 0.40894 0.31026 0.0
H488 H 0.5717 0.44905 0.40314 0.0
C489 C 0.5648 0.38849 0.51988 0.0
C490 C 0.10876 0.58594 0.36941 0.0
C491 C 0.13016 0.60639 0.40039 0.0
H492 H 0.07193 0.55531 0.39102 0.0
C493 C 0.12642 0.61651 0.47458 0.0
H494 H 0.11108 0.57731 0.31289 0.0
C495 C 0.10366 0.60391 0.51916 0.0
C496 C 0.08446 0.58112 0.48997 0.0
H497 H 0.1424 0.6324 0.49981 0.0
H498 H 0.10281 0.60992 0.57808 0.0
C499 C 0.08629 0.57323 0.41408 0.0
C500 C 0.10461 0.91174 0.90472 0.0
C501 C 0.09245 0.88208 0.89839 0.0
H502 H 0.10155 0.95804 0.8709 0.0
C503 C 0.06959 0.87608 0.846 0.0
H504 H 0.12226 0.91702 0.94457 0.0
C505 C 0.05759 0.89938 0.80541 0.0
C506 C 0.06831 0.92924 0.81533 0.0
H507 H 0.05931 0.85371 0.84026 0.0
H508 H 0.03904 0.89412 0.76813 0.0
C509 C 0.09278 0.93517 0.86282 0.0
C510 C 0.5876 0.06174 0.95132 0.0
C511 C 0.61216 0.07776 0.92016 0.0
H512 H 0.54664 0.03712 0.92988 0.0
C513 C 0.61078 0.08652 0.84438 0.0
H514 H 0.58789 0.05416 0.00899 0.0
C515 C 0.58689 0.07659 0.79907 0.0
C516 C 0.56403 0.05808 0.82918 0.0
H517 H 0.62912 0.09915 0.81886 0.0
H518 H 0.58756 0.0812 0.73941 0.0
C519 C 0.56386 0.05186 0.90607 0.0
C520 C 0.44634 0.58207 0.97767 0.0
C521 C 0.45559 0.61239 0.96621 0.0
H522 H 0.44797 0.53633 0.93767 0.0
C523 C 0.47159 0.62006 0.90108 0.0
H524 H 0.43404 0.57557 0.02753 0.0
C525 C 0.47991 0.59781 0.8512 0.0
C526 C 0.47208 0.5674 0.8645 0.0
H527 H 0.47949 0.64307 0.89107 0.0
H528 H 0.49344 0.60432 0.80332 0.0
C529 C 0.45426 0.5597 0.92649 0.0
C530 C 0.94951 0.42072 0.9504 0.0
C531 C 0.91997 0.42192 0.92481 0.0
H532 H 0.99551 0.42843 0.92397 0.0
C533 C 0.91488 0.42456 0.84718 0.0
H534 H 0.9544 0.41743 0.00926 0.0
C535 C 0.93854 0.4296 0.79802 0.0
C536 C 0.96772 0.4328 0.82562 0.0
H537 H 0.89262 0.42562 0.82472 0.0
H538 H 0.93362 0.43408 0.73964 0.0
C539 C 0.97315 0.42668 0.90149 0.0
C540 C 0.05085 0.14091 0.91247 0.0
C541 C 0.08172 0.14405 0.92329 0.0
H542 H 0.01467 0.11571 0.86164 0.0
C543 C 0.10005 0.1242 0.88502 0.0
H544 H 0.03596 0.1554 0.9418 0.0
C545 C 0.08776 0.10097 0.83995 0.0
C546 C 0.05683 0.09715 0.83162 0.0
H547 H 0.12394 0.12621 0.89111 0.0
H548 H 0.10251 0.08576 0.81254 0.0
C549 C 0.03858 0.11783 0.86707 0.0
C550 C 0.35172 0.99472 0.79619 0.0
C551 C 0.35012 0.01167 0.86279 0.0
H552 H 0.3792 0.97932 0.70745 0.0
C553 C 0.37478 0.03047 0.88353 0.0
H554 H 0.33299 0.98063 0.77722 0.0
C555 C 0.40115 0.0303 0.84202 0.0
C556 C 0.40339 0.01098 0.77998 0.0
H557 H 0.37451 0.04369 0.93467 0.0
H558 H 0.42035 0.04356 0.86162 0.0
C559 C 0.37816 0.99404 0.75596 0.0
C560 C 0.47996 0.34434 0.84057 0.0
C561 C 0.45304 0.34324 0.88018 0.0
H562 H 0.51093 0.37063 0.77571 0.0
C563 C 0.43491 0.36835 0.87647 0.0
H564 H 0.49484 0.32581 0.84275 0.0
C565 C 0.4445 0.39461 0.83848 0.0
C566 C 0.47244 0.39625 0.8037 0.0
H567 H 0.4139 0.3682 0.90568 0.0
H568 H 0.43065 0.41398 0.83926 0.0
C569 C 0.48949 0.37041 0.80294 0.0
C570 C 0.18394 0.51404 0.81706 0.0
C571 C 0.18469 0.50477 0.89229 0.0
H572 H 0.15833 0.51651 0.71615 0.0
C573 C 0.1606 0.48742 0.92097 0.0
H574 H 0.20226 0.52742 0.79367 0.0
C575 C 0.13525 0.48155 0.87713 0.0
C576 C 0.13367 0.49256 0.80341 0.0
H577 H 0.16047 0.48025 0.97903 0.0
H578 H 0.11636 0.46964 0.90221 0.0
C579 C 0.15878 0.50773 0.77277 0.0
C580 C 0.98747 0.86162 0.49464 0.0
C581 C 0.97579 0.86384 0.42152 0.0
H582 H 0.99715 0.88433 0.59892 0.0
C583 C 0.96024 0.88976 0.403 0.0
H584 H 0.9997 0.84221 0.51119 0.0
C585 C 0.95973 0.91425 0.45241 0.0
C586 C 0.97364 0.91292 0.5227 0.0
H587 H 0.95001 0.89195 0.34832 0.0
H588 H 0.94964 0.93477 0.43429 0.0
C589 C 0.98613 0.88585 0.54501 0.0
C590 C 0.65088 0.97714 0.49206 0.0
C591 C 0.64991 0.95938 0.42632 0.0
H592 H 0.62728 0.99185 0.58908 0.0
C593 C 0.62573 0.93866 0.41596 0.0
H594 H 0.66896 0.99346 0.50209 0.0
C595 C 0.60148 0.93857 0.46444 0.0
C596 C 0.6014 0.95826 0.52609 0.0
H597 H 0.6246 0.92387 0.36748 0.0
H598 H 0.58215 0.92414 0.45166 0.0
C599 C 0.62691 0.97636 0.54191 0.0
C600 C 0.56934 0.61515 0.42905 0.0
C601 C 0.5683 0.64294 0.46701 0.0
H602 H 0.56611 0.56706 0.43709 0.0
C603 C 0.5675 0.643 0.54587 0.0
H604 H 0.56962 0.6142 0.36832 0.0
C605 C 0.5655 0.61579 0.5855 0.0
C606 C 0.56387 0.58805 0.54687 0.0
H607 H 0.56689 0.66405 0.57666 0.0
H608 H 0.5632 0.6166 0.64595 0.0
C609 C 0.56705 0.58804 0.4685 0.0
C610 C 0.88747 0.49733 0.48081 0.0
C611 C 0.87947 0.52506 0.45045 0.0
H612 H 0.91968 0.47308 0.54119 0.0
C613 C 0.89786 0.55086 0.46473 0.0
H614 H 0.8742 0.47688 0.47 0.0
C615 C 0.92433 0.54862 0.50554 0.0
C616 C 0.93304 0.52047 0.53193 0.0
H617 H 0.89227 0.57256 0.44224 0.0
H618 H 0.9385 0.56866 0.51375 0.0
C619 C 0.91389 0.49506 0.52077 0.0
loop_
_geom_bond_atom_site_label_1
_geom_bond_atom_site_label_2
_geom_bond_distance
_geom_bond_site_symmetry_2
_ccdc_geom_bond_type
C0 C1 1.384 . S
C0 H13 0.947 . S
C0 C35 1.382 . S
C1 C0 1.384 . S
C1 C2 1.378 . S
C2 C1 1.378 . S
C2 C3 1.378 . S
C2 H14 0.952 . S
C3 C2 1.378 . S
C3 H15 0.950 . S
C3 C34 1.383 . S
H4 C23 0.947 . S
H5 C24 0.946 . S
H6 C26 0.953 . S
H7 C27 0.945 . S
H8 C29 0.952 . S
H9 C30 0.949 . S
H10 C32 0.950 . S
H11 C33 0.948 . S
H12 C35 0.951 . S
H13 C0 0.947 . S
H14 C2 0.952 . S
H15 C3 0.950 . S
N16 C19 1.382 . S
N16 C21 1.363 . S
N17 C19 1.371 1_556 S
N17 C20 1.372 . S
N18 C20 1.361 1_554 S
N18 C21 1.377 . S
C19 N16 1.382 . S
C19 N17 1.371 1_554 S
C19 C22 1.480 1_554 S
C20 N17 1.372 . S
C20 N18 1.361 1_556 S
C20 C28 1.457 . S
C21 N16 1.363 . S
C21 N18 1.377 . S
C21 C34 1.479 . S
C22 C19 1.480 1_556 S
C22 C23 1.383 1_556 S
C22 C27 1.385 . S
C23 H4 0.947 . S
C23 C22 1.383 1_554 S
C23 C24 1.388 . S
C24 H5 0.946 . S
C24 C23 1.388 . S
C24 C25 1.384 1_554 S
C25 C24 1.384 1_556 S
C25 C26 1.377 . S
C26 H6 0.953 . S
C26 C25 1.377 . S
C26 C27 1.369 . S
C27 H7 0.945 . S
C27 C22 1.385 . S
C27 C26 1.369 . S
C28 C20 1.457 . S
C28 C29 1.372 . S
C28 C33 1.364 . S
C29 H8 0.952 . S
C29 C28 1.372 . S
C29 C30 1.389 . S
C30 H9 0.949 . S
C30 C29 1.389 . S
C30 C31 1.387 . S
C31 C30 1.387 . S
C31 C32 1.372 . S
C32 H10 0.950 . S
C32 C31 1.372 . S
C32 C33 1.379 . S
C33 H11 0.948 . S
C33 C28 1.364 . S
C33 C32 1.379 . S
C34 C3 1.383 . S
C34 C21 1.479 . S
C34 C35 1.398 . S
C35 C0 1.382 . S
C35 H12 0.951 . S
C35 C34 1.398 . S
C36 C37 1.384 . S
C36 H49 0.947 . S
C36 C71 1.382 . S
C37 C36 1.384 . S
C37 C38 1.378 . S
C38 C37 1.378 . S
C38 C39 1.378 . S
C38 H50 0.952 . S
C39 C38 1.378 . S
C39 H51 0.950 1_655 S
C39 C70 1.383 . S
H40 C59 0.947 . S
H41 C60 0.946 . S
H42 C62 0.953 . S
H43 C63 0.944 . S
H44 C65 0.952 . S
H45 C66 0.949 . S
H46 C68 0.950 . S
H47 C69 0.948 . S
H48 C71 0.951 . S
H49 C36 0.947 . S
H50 C38 0.952 . S
H51 C39 0.950 1_455 S
N52 C55 1.382 . S
N52 C57 1.363 . S
N53 C55 1.371 . S
N53 C56 1.372 . S
N54 C56 1.361 . S
N54 C57 1.377 . S
C55 N52 1.382 . S
C55 N53 1.371 . S
C55 C58 1.480 . S
C56 N53 1.372 . S
C56 N54 1.361 . S
C56 C64 1.457 1_554 S
C57 N52 1.363 . S
C57 N54 1.377 . S
C57 C70 1.479 . S
C58 C55 1.480 . S
C58 C59 1.383 . S
C58 C63 1.385 1_554 S
C59 H40 0.947 . S
C59 C58 1.383 . S
C59 C60 1.388 . S
C60 H41 0.946 . S
C60 C59 1.388 . S
C60 C61 1.384 . S
C61 C60 1.384 . S
C61 C62 1.377 1_554 S
C62 H42 0.953 . S
C62 C61 1.377 1_556 S
C62 C63 1.369 . S
C63 H43 0.944 . S
C63 C58 1.385 1_556 S
C63 C62 1.369 . S
C64 C56 1.457 1_556 S
C64 C65 1.380 . S
C64 C69 1.362 1_656 S
C65 H44 0.952 . S
C65 C64 1.380 . S
C65 C66 1.389 . S
C66 H45 0.949 . S
C66 C65 1.389 . S
C66 C67 1.387 . S
C67 C66 1.387 . S
C67 C68 1.372 1_655 S
C68 H46 0.950 . S
C68 C67 1.372 1_455 S
C68 C69 1.379 1_556 S
C69 H47 0.948 . S
C69 C64 1.362 1_454 S
C69 C68 1.379 1_554 S
C70 C39 1.383 . S
C70 C57 1.479 . S
C70 C71 1.398 . S
C71 C36 1.382 . S
C71 H48 0.951 . S
C71 C70 1.398 . S
C72 C73 1.384 1_565 S
C72 H85 0.947 . S
C72 C107 1.382 1_565 S
C73 C72 1.384 1_545 S
C73 C74 1.378 . S
C74 C73 1.378 . S
C74 C75 1.378 . S
C74 H86 0.952 . S
C75 C74 1.378 . S
C75 H87 0.950 . S
C75 C106 1.383 . S
H76 C95 0.947 . S
H77 C96 0.946 . S
H78 C98 0.953 . S
H79 C99 0.945 . S
H80 C101 0.947 1_565 S
H81 C102 0.955 . S
H82 C104 0.950 . S
H83 C105 0.948 1_554 S
H84 C107 0.951 1_565 S
H85 C72 0.947 . S
H86 C74 0.952 . S
H87 C75 0.950 . S
N88 C91 1.382 . S
N88 C93 1.363 . S
N89 C91 1.371 1_556 S
N89 C92 1.372 1_556 S
N90 C92 1.361 . S
N90 C93 1.377 . S
C91 N88 1.382 . S
C91 N89 1.371 1_554 S
C91 C94 1.480 . S
C92 N89 1.372 1_554 S
C92 N90 1.361 . S
C92 C100 1.457 1_554 S
C93 N88 1.363 . S
C93 N90 1.377 . S
C93 C106 1.479 . S
C94 C91 1.480 . S
C94 C95 1.383 . S
C94 C99 1.385 1_554 S
C95 H76 0.947 . S
C95 C94 1.383 . S
C95 C96 1.388 1_545 S
C96 H77 0.946 . S
C96 C95 1.388 1_565 S
C96 C97 1.384 1_564 S
C97 C96 1.384 1_546 S
C97 C98 1.377 . S
C98 H78 0.953 . S
C98 C97 1.377 . S
C98 C99 1.369 . S
C99 H79 0.945 . S
C99 C94 1.385 1_556 S
C99 C98 1.369 . S
C100 C92 1.457 1_556 S
C100 C101 1.378 . S
C100 C105 1.364 . S
C101 H80 0.947 1_545 S
C101 C100 1.378 . S
C101 C102 1.389 1_545 S
C102 H81 0.955 . S
C102 C101 1.389 1_565 S
C102 C103 1.382 1_565 S
C103 C102 1.382 1_545 S
C103 C104 1.372 . S
C104 H82 0.950 . S
C104 C103 1.372 . S
C104 C105 1.379 . S
C105 H83 0.948 1_556 S
C105 C100 1.364 . S
C105 C104 1.379 . S
C106 C75 1.383 . S
C106 C93 1.479 . S
C106 C107 1.399 . S
C107 C72 1.382 1_545 S
C107 H84 0.951 1_545 S
C107 C106 1.399 . S
C108 C109 1.384 . S
C108 H121 0.947 . S
C108 C143 1.382 . S
C109 C108 1.384 . S
C109 C110 1.378 . S
C110 C109 1.378 . S
C110 C111 1.378 . S
C110 H122 0.952 . S
C111 C110 1.378 . S
C111 H123 0.950 . S
C111 C142 1.383 . S
H112 C131 0.947 . S
H113 C132 0.946 . S
H114 C134 0.953 . S
H115 C135 0.945 . S
H116 C137 0.952 . S
H117 C138 0.949 . S
H118 C140 0.950 . S
H119 C141 0.948 . S
H120 C143 0.951 1_554 S
H121 C108 0.947 . S
H122 C110 0.952 . S
H123 C111 0.950 . S
N124 C127 1.382 1_556 S
N124 C129 1.363 1_556 S
N125 C127 1.371 . S
N125 C128 1.372 . S
N126 C128 1.361 . S
N126 C129 1.377 . S
C127 N124 1.382 1_554 S
C127 N125 1.371 . S
C127 C130 1.480 . S
C128 N125 1.372 . S
C128 N126 1.361 . S
C128 C136 1.457 . S
C129 N124 1.363 1_554 S
C129 N126 1.377 . S
C129 C142 1.479 1_554 S
C130 C127 1.480 . S
C130 C131 1.383 1_554 S
C130 C135 1.385 . S
C131 H112 0.947 . S
C131 C130 1.383 1_556 S
C131 C132 1.388 . S
C132 H113 0.946 . S
C132 C131 1.388 . S
C132 C133 1.384 . S
C133 C132 1.384 . S
C133 C134 1.377 1_556 S
C134 H114 0.953 . S
C134 C133 1.377 1_554 S
C134 C135 1.369 . S
C135 H115 0.945 . S
C135 C130 1.385 . S
C135 C134 1.369 . S
C136 C128 1.457 . S
C136 C137 1.372 . S
C136 C141 1.364 . S
C137 H116 0.952 . S
C137 C136 1.372 . S
C137 C138 1.389 . S
C138 H117 0.949 . S
C138 C137 1.389 . S
C138 C139 1.387 . S
C139 C138 1.387 . S
C139 C140 1.372 . S
C140 H118 0.950 . S
C140 C139 1.372 . S
C140 C141 1.379 . S
C141 H119 0.948 . S
C141 C136 1.364 . S
C141 C140 1.379 . S
C142 C111 1.383 . S
C142 C129 1.479 1_556 S
C142 C143 1.398 . S
C143 C108 1.382 . S
C143 H120 0.951 1_556 S
C143 C142 1.398 . S
C144 C145 1.384 1_554 S
C144 H157 0.950 . S
C144 C179 1.382 . S
C145 C144 1.384 1_556 S
C145 C146 1.378 . S
C146 C145 1.378 . S
C146 C147 1.378 1_556 S
C146 H158 0.952 . S
C147 C146 1.378 1_554 S
C147 H159 0.950 . S
C147 C178 1.383 . S
H148 C167 0.947 . S
H149 C168 0.946 . S
H150 C170 0.953 . S
H151 C171 0.945 . S
H152 C173 0.952 . S
H153 C174 0.949 . S
H154 C176 0.950 . S
H155 C177 0.948 . S
H156 C179 0.951 . S
H157 C144 0.950 . S
H158 C146 0.952 . S
H159 C147 0.950 . S
N160 C163 1.382 . S
N160 C165 1.363 . S
N161 C163 1.371 . S
N161 C164 1.372 . S
N162 C164 1.361 . S
N162 C165 1.377 . S
C163 N160 1.382 . S
C163 N161 1.371 . S
C163 C166 1.480 . S
C164 N161 1.372 . S
C164 N162 1.361 . S
C164 C172 1.457 . S
C165 N160 1.363 . S
C165 N162 1.377 . S
C165 C178 1.479 . S
C166 C163 1.480 . S
C166 C167 1.383 . S
C166 C171 1.385 . S
C167 H148 0.947 . S
C167 C166 1.383 . S
C167 C168 1.388 . S
C168 H149 0.946 . S
C168 C167 1.388 . S
C168 C169 1.384 . S
C169 C168 1.384 . S
C169 C170 1.377 . S
C170 H150 0.953 . S
C170 C169 1.377 . S
C170 C171 1.369 . S
C171 H151 0.945 . S
C171 C166 1.385 . S
C171 C170 1.369 . S
C172 C164 1.457 . S
C172 C173 1.372 . S
C172 C177 1.364 . S
C173 H152 0.952 . S
C173 C172 1.372 . S
C173 C174 1.389 . S
C174 H153 0.949 . S
C174 C173 1.389 . S
C174 C175 1.387 . S
C175 C174 1.387 . S
C175 C176 1.372 . S
C176 H154 0.950 . S
C176 C175 1.372 . S
C176 C177 1.379 . S
C177 H155 0.948 . S
C177 C172 1.364 . S
C177 C176 1.379 . S
C178 C147 1.383 . S
C178 C165 1.479 . S
C178 C179 1.398 . S
C179 C144 1.382 . S
C179 H156 0.951 . S
C179 C178 1.398 . S
C180 C181 1.384 . S
C180 H193 0.947 . S
C180 C215 1.382 . S
C181 C180 1.384 . S
C181 C182 1.378 . S
C182 C181 1.378 . S
C182 C183 1.378 . S
C182 H194 0.952 . S
C183 C182 1.378 . S
C183 H195 0.950 . S
C183 C214 1.383 . S
H184 C203 0.947 . S
H185 C204 0.946 . S
H186 C206 0.953 . S
H187 C207 0.945 . S
H188 C209 0.952 . S
H189 C210 0.949 . S
H190 C212 0.950 . S
H191 C213 0.948 . S
H192 C215 0.951 . S
H193 C180 0.947 . S
H194 C182 0.952 . S
H195 C183 0.950 . S
N196 C199 1.382 . S
N196 C201 1.363 . S
N197 C199 1.371 . S
N197 C200 1.372 . S
N198 C200 1.361 . S
N198 C201 1.377 . S
C199 N196 1.382 . S
C199 N197 1.371 . S
C199 C202 1.480 . S
C200 N197 1.372 . S
C200 N198 1.361 . S
C200 C208 1.457 . S
C201 N196 1.363 . S
C201 N198 1.377 . S
C201 C214 1.479 . S
C202 C199 1.480 . S
C202 C203 1.383 . S
C202 C207 1.385 . S
C203 H184 0.947 . S
C203 C202 1.383 . S
C203 C204 1.388 . S
C204 H185 0.946 . S
C204 C203 1.388 . S
C204 C205 1.384 . S
C205 C204 1.384 . S
C205 C206 1.377 . S
C206 H186 0.953 . S
C206 C205 1.377 . S
C206 C207 1.369 . S
C207 H187 0.945 . S
C207 C202 1.385 . S
C207 C206 1.369 . S
C208 C200 1.457 . S
C208 C209 1.372 . S
C208 C213 1.364 . S
C209 H188 0.952 . S
C209 C208 1.372 . S
C209 C210 1.389 . S
C210 H189 0.949 . S
C210 C209 1.389 . S
C210 C211 1.387 . S
C211 C210 1.387 . S
C211 C212 1.372 . S
C212 H190 0.950 . S
C212 C211 1.372 . S
C212 C213 1.379 . S
C213 H191 0.948 . S
C213 C208 1.364 . S
C213 C212 1.379 . S
C214 C183 1.383 . S
C214 C201 1.479 . S
C214 C215 1.398 . S
C215 C180 1.382 . S
C215 H192 0.951 . S
C215 C214 1.398 . S
C216 C217 1.384 1_554 S
C216 H229 0.947 1_545 S
C216 C251 1.382 . S
C217 C216 1.384 1_556 S
C217 C218 1.378 1_556 S
C218 C217 1.378 1_554 S
C218 C219 1.378 . S
C218 H230 0.952 1_554 S
C219 C218 1.378 . S
C219 H231 0.950 . S
C219 C250 1.383 . S
H220 C239 0.947 . S
H221 C240 0.953 . S
H222 C242 0.953 . S
H223 C243 0.945 . S
H224 C245 0.948 1_565 S
H225 C246 0.953 . S
H226 C248 0.950 . S
H227 C249 0.948 . S
H228 C251 0.949 1_565 S
H229 C216 0.947 1_565 S
H230 C218 0.952 1_556 S
H231 C219 0.950 . S
N232 C235 1.382 . S
N232 C237 1.363 . S
N233 C235 1.371 . S
N233 C236 1.372 . S
N234 C236 1.361 . S
N234 C237 1.377 . S
C235 N232 1.382 . S
C235 N233 1.371 . S
C235 C238 1.480 . S
C236 N233 1.372 . S
C236 N234 1.361 . S
C236 C244 1.457 . S
C237 N232 1.363 . S
C237 N234 1.377 . S
C237 C250 1.479 . S
C238 C235 1.480 . S
C238 C239 1.383 . S
C238 C243 1.385 . S
C239 H220 0.947 . S
C239 C238 1.383 . S
C239 C240 1.386 1_545 S
C240 H221 0.953 . S
C240 C239 1.386 1_565 S
C240 C241 1.380 1_565 S
C241 C240 1.380 1_545 S
C241 C242 1.377 . S
C242 H222 0.953 . S
C242 C241 1.377 . S
C242 C243 1.369 . S
C243 H223 0.945 . S
C243 C238 1.385 . S
C243 C242 1.369 . S
C244 C236 1.457 . S
C244 C245 1.380 . S
C244 C249 1.364 . S
C245 H224 0.948 1_545 S
C245 C244 1.380 . S
C245 C246 1.385 1_545 S
C246 H225 0.953 . S
C246 C245 1.385 1_565 S
C246 C247 1.385 1_565 S
C247 C246 1.385 1_545 S
C247 C248 1.372 . S
C248 H226 0.950 . S
C248 C247 1.372 . S
C248 C249 1.379 . S
C249 H227 0.948 . S
C249 C244 1.364 . S
C249 C248 1.379 . S
C250 C219 1.383 . S
C250 C237 1.479 . S
C250 C251 1.401 . S
C251 C216 1.382 . S
C251 H228 0.949 1_545 S
C251 C250 1.401 . S
C252 C253 1.384 . S
C252 H265 0.947 . S
C252 C287 1.382 . S
C253 C252 1.384 . S
C253 C254 1.378 . S
C254 C253 1.378 . S
C254 C255 1.378 . S
C254 H266 0.952 . S
C255 C254 1.378 . S
C255 H267 0.950 . S
C255 C286 1.383 . S
H256 C275 0.947 . S
H257 C276 0.946 . S
H258 C278 0.953 . S
H259 C279 0.945 . S
H260 C281 0.952 . S
H261 C282 0.949 . S
H262 C284 0.950 1_556 S
H263 C285 0.948 . S
H264 C287 0.951 . S
H265 C252 0.947 . S
H266 C254 0.952 . S
H267 C255 0.950 . S
N268 C271 1.382 . S
N268 C273 1.363 . S
N269 C271 1.371 . S
N269 C272 1.372 . S
N270 C272 1.361 . S
N270 C273 1.377 . S
C271 N268 1.382 . S
C271 N269 1.371 . S
C271 C274 1.480 . S
C272 N269 1.372 . S
C272 N270 1.361 . S
C272 C280 1.457 . S
C273 N268 1.363 . S
C273 N270 1.377 . S
C273 C286 1.479 . S
C274 C271 1.480 . S
C274 C275 1.383 . S
C274 C279 1.385 . S
C275 H256 0.947 . S
C275 C274 1.383 . S
C275 C276 1.388 . S
C276 H257 0.946 . S
C276 C275 1.388 . S
C276 C277 1.384 . S
C277 C276 1.384 . S
C277 C278 1.377 . S
C278 H258 0.953 . S
C278 C277 1.377 . S
C278 C279 1.369 . S
C279 H259 0.945 . S
C279 C274 1.385 . S
C279 C278 1.369 . S
C280 C272 1.457 . S
C280 C281 1.372 . S
C280 C285 1.364 . S
C281 H260 0.952 . S
C281 C280 1.372 . S
C281 C282 1.389 1_554 S
C282 H261 0.949 . S
C282 C281 1.389 1_556 S
C282 C283 1.387 . S
C283 C282 1.387 . S
C283 C284 1.372 1_556 S
C284 H262 0.950 1_554 S
C284 C283 1.372 1_554 S
C284 C285 1.379 . S
C285 H263 0.948 . S
C285 C280 1.364 . S
C285 C284 1.379 . S
C286 C255 1.383 . S
C286 C273 1.479 . S
C286 C287 1.398 . S
C287 C252 1.382 . S
C287 H264 0.951 . S
C287 C286 1.398 . S
O288 Zn289 1.953 . S
O288 C304 1.225 . S
Zn289 O288 1.953 . S
Zn289 O290 1.950 . S
Zn289 O296 1.919 1_565 S
Zn289 O301 1.924 . S
O290 Zn289 1.950 . S
O290 Zn291 1.900 1_565 S
O290 Zn292 1.953 . S
O290 Zn293 1.964 . S
Zn291 O290 1.900 1_545 S
Zn291 O294 1.933 1_455 S
Zn291 O297 1.941 . S
Zn291 O298 1.965 . S
Zn292 O290 1.953 . S
Zn292 O299 1.938 1_565 S
Zn292 O300 1.906 . S
Zn292 O310 1.953 . S
Zn293 O290 1.964 . S
Zn293 O295 1.932 1_455 S
Zn293 O302 1.977 1_455 S
Zn293 O303 1.910 . S
O294 Zn291 1.933 1_655 S
O294 C305 1.226 . S
O295 Zn293 1.932 1_655 S
O295 C305 1.307 1_565 S
O296 Zn289 1.919 1_545 S
O296 C307 1.253 . S
O297 Zn291 1.941 . S
O297 C307 1.283 . S
O298 Zn291 1.965 . S
O298 C306 1.303 . S
O299 Zn292 1.938 1_545 S
O299 C306 1.247 . S
O300 Zn292 1.906 . S
O300 C308 1.304 1_455 S
O301 Zn289 1.924 . S
O301 C309 1.311 . S
O302 Zn293 1.977 1_655 S
O302 C308 1.272 . S
O303 Zn293 1.910 . S
O303 C309 1.231 . S
C304 O288 1.225 . S
C304 O310 1.298 . S
C305 O294 1.226 . S
C305 O295 1.307 1_545 S
C306 O298 1.303 . S
C306 O299 1.247 . S
C307 O296 1.253 . S
C307 O297 1.283 . S
C308 O300 1.304 1_655 S
C308 O302 1.272 . S
C309 O301 1.311 . S
C309 O303 1.231 . S
O310 Zn292 1.953 . S
O310 C304 1.298 . S
O311 Zn312 1.953 . S
O311 C327 1.225 . S
Zn312 O311 1.953 . S
Zn312 O313 1.949 . S
Zn312 O319 1.919 . S
Zn312 O324 1.924 . S
O313 Zn312 1.949 . S
O313 Zn314 1.923 1_545 S
O313 Zn315 1.950 . S
O313 Zn316 1.945 1_545 S
Zn314 O313 1.923 1_565 S
Zn314 O317 1.933 . S
Zn314 O320 1.941 . S
Zn314 O321 1.965 . S
Zn315 O313 1.950 . S
Zn315 O322 1.938 . S
Zn315 O323 1.906 1_545 S
Zn315 O333 1.953 . S
Zn316 O313 1.945 1_565 S
Zn316 O318 1.932 . S
Zn316 O325 1.977 . S
Zn316 O326 1.910 1_565 S
O317 Zn314 1.933 . S
O317 C328 1.226 . S
O318 Zn316 1.932 . S
O318 C328 1.307 . S
O319 Zn312 1.919 . S
O319 C330 1.253 . S
O320 Zn314 1.941 . S
O320 C330 1.283 1_565 S
O321 Zn314 1.965 . S
O321 C329 1.303 . S
O322 Zn315 1.938 . S
O322 C329 1.247 1_545 S
O323 Zn315 1.906 1_565 S
O323 C331 1.304 . S
O324 Zn312 1.924 . S
O324 C332 1.311 . S
O325 Zn316 1.977 . S
O325 C331 1.272 . S
O326 Zn316 1.910 1_545 S
O326 C332 1.231 . S
C327 O311 1.225 . S
C327 O333 1.298 . S
C328 O317 1.226 . S
C328 O318 1.307 . S
C329 O321 1.303 . S
C329 O322 1.247 1_565 S
C330 O319 1.253 . S
C330 O320 1.283 1_545 S
C331 O323 1.304 . S
C331 O325 1.272 . S
C332 O324 1.311 . S
C332 O326 1.231 . S
O333 Zn315 1.953 . S
O333 C327 1.298 . S
O334 Zn335 1.953 . S
O334 C350 1.225 . S
Zn335 O334 1.953 . S
Zn335 O336 1.949 . S
Zn335 O342 1.919 . S
Zn335 O347 1.924 . S
O336 Zn335 1.949 . S
O336 Zn337 1.923 . S
O336 Zn338 1.950 . S
O336 Zn339 1.945 . S
Zn337 O336 1.923 . S
Zn337 O340 1.933 . S
Zn337 O343 1.941 . S
Zn337 O344 1.965 . S
Zn338 O336 1.950 . S
Zn338 O345 1.938 . S
Zn338 O346 1.906 . S
Zn338 O356 1.953 . S
Zn339 O336 1.945 . S
Zn339 O341 1.932 . S
Zn339 O348 1.977 . S
Zn339 O349 1.910 . S
O340 Zn337 1.933 . S
O340 C351 1.226 . S
O341 Zn339 1.932 . S
O341 C351 1.307 . S
O342 Zn335 1.919 . S
O342 C353 1.253 . S
O343 Zn337 1.941 . S
O343 C353 1.283 . S
O344 Zn337 1.965 . S
O344 C352 1.303 . S
O345 Zn338 1.938 . S
O345 C352 1.247 . S
O346 Zn338 1.906 . S
O346 C354 1.304 . S
O347 Zn335 1.924 . S
O347 C355 1.311 . S
O348 Zn339 1.977 . S
O348 C354 1.272 . S
O349 Zn339 1.910 . S
O349 C355 1.231 . S
C350 O334 1.225 . S
C350 O356 1.298 . S
C351 O340 1.226 . S
C351 O341 1.307 . S
C352 O344 1.303 . S
C352 O345 1.247 . S
C353 O342 1.253 . S
C353 O343 1.283 . S
C354 O346 1.304 . S
C354 O348 1.272 . S
C355 O347 1.311 . S
C355 O349 1.231 . S
O356 Zn338 1.953 . S
O356 C350 1.298 . S
O357 Zn358 1.953 1_655 S
O357 C373 1.225 . S
Zn358 O357 1.953 1_455 S
Zn358 O359 1.949 . S
Zn358 O365 1.919 . S
Zn358 O370 1.924 . S
O359 Zn358 1.949 . S
O359 Zn360 1.923 . S
O359 Zn361 1.950 1_455 S
O359 Zn362 1.945 . S
Zn360 O359 1.923 . S
Zn360 O363 1.933 . S
Zn360 O366 1.941 1_455 S
Zn360 O367 1.965 1_455 S
Zn361 O359 1.950 1_655 S
Zn361 O368 1.938 . S
Zn361 O369 1.906 1_655 S
Zn361 O379 1.953 . S
Zn362 O359 1.945 . S
Zn362 O364 1.932 . S
Zn362 O371 1.977 . S
Zn362 O372 1.910 . S
O363 Zn360 1.933 . S
O363 C374 1.226 . S
O364 Zn362 1.932 . S
O364 C374 1.307 . S
O365 Zn358 1.919 . S
O365 C376 1.253 . S
O366 Zn360 1.941 1_655 S
O366 C376 1.283 1_655 S
O367 Zn360 1.965 1_655 S
O367 C375 1.303 . S
O368 Zn361 1.938 . S
O368 C375 1.247 . S
O369 Zn361 1.906 1_455 S
O369 C377 1.304 . S
O370 Zn358 1.924 . S
O370 C378 1.311 . S
O371 Zn362 1.977 . S
O371 C377 1.272 . S
O372 Zn362 1.910 . S
O372 C378 1.231 . S
C373 O357 1.225 . S
C373 O379 1.298 . S
C374 O363 1.226 . S
C374 O364 1.307 . S
C375 O367 1.303 . S
C375 O368 1.247 . S
C376 O365 1.253 . S
C376 O366 1.283 1_455 S
C377 O369 1.304 . S
C377 O371 1.272 . S
C378 O370 1.311 . S
C378 O372 1.231 . S
O379 Zn361 1.953 . S
O379 C373 1.298 . S
C380 C381 1.387 1_545 S
C380 H384 0.950 . S
C380 C389 1.390 . S
C381 C380 1.387 1_565 S
C381 C383 1.387 . S
H382 C389 0.950 . S
C383 C381 1.387 . S
C383 C385 1.390 . S
C383 H387 0.950 . S
H384 C380 0.950 . S
C385 C383 1.390 . S
C385 C386 1.387 . S
C385 H388 0.950 . S
C386 C385 1.387 . S
C386 C389 1.387 1_565 S
H387 C383 0.950 . S
H388 C385 0.950 . S
C389 C380 1.390 . S
C389 H382 0.950 . S
C389 C386 1.387 1_545 S
C390 C391 1.387 . S
C390 H394 0.950 . S
C390 C399 1.390 . S
C391 C390 1.387 . S
C391 C393 1.387 . S
H392 C399 0.950 . S
C393 C391 1.387 . S
C393 C395 1.390 . S
C393 H397 0.950 . S
H394 C390 0.950 . S
C395 C393 1.390 . S
C395 C396 1.387 . S
C395 H398 0.950 . S
C396 C395 1.387 . S
C396 C399 1.387 . S
H397 C393 0.950 . S
H398 C395 0.950 . S
C399 C390 1.390 . S
C399 H392 0.950 . S
C399 C396 1.387 . S
C400 C401 1.387 . S
C400 H404 0.950 . S
C400 C409 1.390 . S
C401 C400 1.387 . S
C401 C403 1.387 . S
H402 C409 0.950 . S
C403 C401 1.387 . S
C403 C405 1.390 . S
C403 H407 0.950 . S
H404 C400 0.950 . S
C405 C403 1.390 . S
C405 C406 1.387 . S
C405 H408 0.950 . S
C406 C405 1.387 . S
C406 C409 1.387 . S
H407 C403 0.950 . S
H408 C405 0.950 . S
C409 C400 1.390 . S
C409 H402 0.950 . S
C409 C406 1.387 . S
C410 C411 1.387 . S
C410 H414 0.950 . S
C410 C419 1.390 . S
C411 C410 1.387 . S
C411 C413 1.387 . S
H412 C419 0.950 . S
C413 C411 1.387 . S
C413 C415 1.390 . S
C413 H417 0.950 . S
H414 C410 0.950 . S
C415 C413 1.390 . S
C415 C416 1.387 . S
C415 H418 0.950 . S
C416 C415 1.387 . S
C416 C419 1.387 . S
H417 C413 0.950 . S
H418 C415 0.950 . S
C419 C410 1.390 . S
C419 H412 0.950 . S
C419 C416 1.387 . S
C420 C421 1.387 . S
C420 H424 0.950 . S
C420 C429 1.390 . S
C421 C420 1.387 . S
C421 C423 1.387 1_545 S
H422 C429 0.950 . S
C423 C421 1.387 1_565 S
C423 C425 1.390 . S
C423 H427 0.950 . S
H424 C420 0.950 . S
C425 C423 1.390 . S
C425 C426 1.387 1_565 S
C425 H428 0.950 . S
C426 C425 1.387 1_545 S
C426 C429 1.387 . S
H427 C423 0.950 . S
H428 C425 0.950 . S
C429 C420 1.390 . S
C429 H422 0.950 . S
C429 C426 1.387 . S
C430 C431 1.387 . S
C430 H434 0.950 . S
C430 C439 1.390 . S
C431 C430 1.387 . S
C431 C433 1.387 . S
H432 C439 0.950 . S
C433 C431 1.387 . S
C433 C435 1.390 . S
C433 H437 0.950 . S
H434 C430 0.950 . S
C435 C433 1.390 . S
C435 C436 1.387 . S
C435 H438 0.950 . S
C436 C435 1.387 . S
C436 C439 1.387 . S
H437 C433 0.950 . S
H438 C435 0.950 . S
C439 C430 1.390 . S
C439 H432 0.950 . S
C439 C436 1.387 . S
C440 C441 1.387 . S
C440 H444 0.950 . S
C440 C449 1.390 . S
C441 C440 1.387 . S
C441 C443 1.387 . S
H442 C449 0.950 . S
C443 C441 1.387 . S
C443 C445 1.390 . S
C443 H447 0.950 . S
H444 C440 0.950 . S
C445 C443 1.390 . S
C445 C446 1.387 . S
C445 H448 0.950 . S
C446 C445 1.387 . S
C446 C449 1.387 . S
H447 C443 0.950 . S
H448 C445 0.950 . S
C449 C440 1.390 . S
C449 H442 0.950 . S
C449 C446 1.387 . S
C450 C451 1.387 . S
C450 H454 0.950 . S
C450 C459 1.390 . S
C451 C450 1.387 . S
C451 C453 1.387 1_655 S
H452 C459 0.950 . S
C453 C451 1.387 1_455 S
C453 C455 1.390 . S
C453 H457 0.950 . S
H454 C450 0.950 . S
C455 C453 1.390 . S
C455 C456 1.387 . S
C455 H458 0.950 . S
C456 C455 1.387 . S
C456 C459 1.387 1_455 S
H457 C453 0.950 . S
H458 C455 0.950 . S
C459 C450 1.390 . S
C459 H452 0.950 . S
C459 C456 1.387 1_655 S
C460 C461 1.387 . S
C460 H464 0.950 . S
C460 C469 1.390 . S
C461 C460 1.387 . S
C461 C463 1.387 . S
H462 C469 0.950 . S
C463 C461 1.387 . S
C463 C465 1.390 . S
C463 H467 0.950 . S
H464 C460 0.950 . S
C465 C463 1.390 . S
C465 C466 1.387 . S
C465 H468 0.950 . S
C466 C465 1.387 . S
C466 C469 1.387 . S
H467 C463 0.950 . S
H468 C465 0.950 . S
C469 C460 1.390 . S
C469 H462 0.950 . S
C469 C466 1.387 . S
C470 C471 1.387 1_565 S
C470 H474 0.950 . S
C470 C479 1.390 . S
C471 C470 1.387 1_545 S
C471 C473 1.387 . S
H472 C479 0.950 . S
C473 C471 1.387 . S
C473 C475 1.390 . S
C473 H477 0.950 . S
H474 C470 0.950 . S
C475 C473 1.390 . S
C475 C476 1.387 1_545 S
C475 H478 0.950 . S
C476 C475 1.387 1_565 S
C476 C479 1.387 . S
H477 C473 0.950 . S
H478 C475 0.950 . S
C479 C470 1.390 . S
C479 H472 0.950 . S
C479 C476 1.387 . S
C480 C481 1.387 . S
C480 H484 0.950 . S
C480 C489 1.390 . S
C481 C480 1.387 . S
C481 C483 1.387 . S
H482 C489 0.950 . S
C483 C481 1.387 . S
C483 C485 1.390 . S
C483 H487 0.950 . S
H484 C480 0.950 . S
C485 C483 1.390 . S
C485 C486 1.387 . S
C485 H488 0.950 . S
C486 C485 1.387 . S
C486 C489 1.387 . S
H487 C483 0.950 . S
H488 C485 0.950 . S
C489 C480 1.390 . S
C489 H482 0.950 . S
C489 C486 1.387 . S
C490 C491 1.387 . S
C490 H494 0.950 . S
C490 C499 1.390 . S
C491 C490 1.387 . S
C491 C493 1.387 . S
H492 C499 0.950 . S
C493 C491 1.387 . S
C493 C495 1.390 . S
C493 H497 0.950 . S
H494 C490 0.950 . S
C495 C493 1.390 . S
C495 C496 1.387 . S
C495 H498 0.950 . S
C496 C495 1.387 . S
C496 C499 1.387 . S
H497 C493 0.950 . S
H498 C495 0.950 . S
C499 C490 1.390 . S
C499 H492 0.950 . S
C499 C496 1.387 . S
C500 C501 1.387 1_455 S
C500 H504 0.950 . S
C500 C509 1.390 . S
C501 C500 1.387 1_655 S
C501 C503 1.387 1_655 S
H502 C509 0.950 . S
C503 C501 1.387 1_455 S
C503 C505 1.390 . S
C503 H507 0.950 1_455 S
H504 C500 0.950 . S
C505 C503 1.390 . S
C505 C506 1.387 . S
C505 H508 0.950 . S
C506 C505 1.387 . S
C506 C509 1.387 . S
H507 C503 0.950 1_655 S
H508 C505 0.950 . S
C509 C500 1.390 . S
C509 H502 0.950 . S
C509 C506 1.387 . S
C510 C511 1.387 . S
C510 H514 0.950 . S
C510 C519 1.390 . S
C511 C510 1.387 . S
C511 C513 1.387 . S
H512 C519 0.950 . S
C513 C511 1.387 . S
C513 C515 1.390 . S
C513 H517 0.959 . S
H514 C510 0.950 . S
C515 C513 1.390 . S
C515 C516 1.387 . S
C515 H518 0.950 . S
C516 C515 1.387 . S
C516 C519 1.387 . S
H517 C513 0.959 . S
H518 C515 0.950 . S
C519 C510 1.390 . S
C519 H512 0.950 . S
C519 C516 1.387 . S
C520 C521 1.387 . S
C520 H524 0.950 . S
C520 C529 1.390 . S
C521 C520 1.387 . S
C521 C523 1.387 . S
H522 C529 0.950 . S
C523 C521 1.387 . S
C523 C525 1.390 . S
C523 H527 0.950 . S
H524 C520 0.950 . S
C525 C523 1.390 . S
C525 C526 1.387 . S
C525 H528 0.950 . S
C526 C525 1.387 . S
C526 C529 1.387 . S
H527 C523 0.950 . S
H528 C525 0.950 . S
C529 C520 1.390 . S
C529 H522 0.950 . S
C529 C526 1.387 . S
C530 C531 1.387 . S
C530 H534 0.950 . S
C530 C539 1.390 . S
C531 C530 1.387 . S
C531 C533 1.387 . S
H532 C539 0.950 . S
C533 C531 1.387 . S
C533 C535 1.390 . S
C533 H537 0.950 . S
H534 C530 0.950 . S
C535 C533 1.390 . S
C535 C536 1.387 . S
C535 H538 0.950 . S
C536 C535 1.387 . S
C536 C539 1.387 . S
H537 C533 0.950 . S
H538 C535 0.950 . S
C539 C530 1.390 . S
C539 H532 0.950 . S
C539 C536 1.387 . S
C540 C541 1.387 1_554 S
C540 H544 0.950 . S
C540 C549 1.390 1_554 S
C541 C540 1.387 1_556 S
C541 C543 1.387 . S
H542 C549 0.950 1_554 S
C543 C541 1.387 . S
C543 C545 1.390 . S
C543 H547 0.950 . S
H544 C540 0.950 . S
C545 C543 1.390 . S
C545 C546 1.387 . S
C545 H548 0.950 . S
C546 C545 1.387 . S
C546 C549 1.387 . S
H547 C543 0.950 . S
H548 C545 0.950 . S
C549 C540 1.390 1_556 S
C549 H542 0.950 1_556 S
C549 C546 1.387 . S
C550 C551 1.385 . S
C550 H554 0.950 . S
C550 C559 1.390 . S
C551 C550 1.385 . S
C551 C553 1.390 1_565 S
H552 C559 0.950 . S
C553 C551 1.390 1_545 S
C553 C555 1.390 . S
C553 H557 0.950 . S
H554 C550 0.950 . S
C555 C553 1.390 . S
C555 C556 1.367 1_545 S
C555 H558 0.950 . S
C556 C555 1.367 1_565 S
C556 C559 1.407 . S
H557 C553 0.950 . S
H558 C555 0.950 . S
C559 C550 1.390 . S
C559 H552 0.950 . S
C559 C556 1.407 . S
C560 C561 1.387 . S
C560 H564 0.950 . S
C560 C569 1.390 . S
C561 C560 1.387 . S
C561 C563 1.387 . S
H562 C569 0.950 . S
C563 C561 1.387 . S
C563 C565 1.390 . S
C563 H567 0.950 . S
H564 C560 0.950 . S
C565 C563 1.390 . S
C565 C566 1.387 . S
C565 H568 0.950 . S
C566 C565 1.387 . S
C566 C569 1.387 . S
H567 C563 0.950 . S
H568 C565 0.950 . S
C569 C560 1.390 . S
C569 H562 0.950 . S
C569 C566 1.387 . S
C570 C571 1.387 . S
C570 H574 0.950 . S
C570 C579 1.390 . S
C571 C570 1.387 . S
C571 C573 1.387 . S
H572 C579 0.950 . S
C573 C571 1.387 . S
C573 C575 1.390 . S
C573 H577 0.950 . S
H574 C570 0.950 . S
C575 C573 1.390 . S
C575 C576 1.387 . S
C575 H578 0.950 . S
C576 C575 1.387 . S
C576 C579 1.387 . S
H577 C573 0.950 . S
H578 C575 0.950 . S
C579 C570 1.390 . S
C579 H572 0.950 . S
C579 C576 1.387 . S
C580 C581 1.387 1_455 S
C580 H584 0.950 . S
C580 C589 1.390 . S
C581 C580 1.387 1_655 S
C581 C583 1.387 . S
H582 C589 0.950 . S
C583 C581 1.387 . S
C583 C585 1.390 . S
C583 H587 0.950 . S
H584 C580 0.950 . S
C585 C583 1.390 . S
C585 C586 1.387 . S
C585 H588 0.950 . S
C586 C585 1.387 . S
C586 C589 1.387 1_655 S
H587 C583 0.950 . S
H588 C585 0.950 . S
C589 C580 1.390 . S
C589 H582 0.950 . S
C589 C586 1.387 1_455 S
C590 C591 1.387 1_545 S
C590 H594 0.950 . S
C590 C599 1.390 . S
C591 C590 1.387 1_565 S
C591 C593 1.387 . S
H592 C599 0.950 . S
C593 C591 1.387 . S
C593 C595 1.390 . S
C593 H597 0.950 . S
H594 C590 0.950 . S
C595 C593 1.390 . S
C595 C596 1.387 . S
C595 H598 0.950 . S
C596 C595 1.387 . S
C596 C599 1.387 1_565 S
H597 C593 0.950 . S
H598 C595 0.950 . S
C599 C590 1.390 . S
C599 H592 0.950 . S
C599 C596 1.387 1_545 S
C600 C601 1.387 . S
C600 H604 0.950 . S
C600 C609 1.390 . S
C601 C600 1.387 . S
C601 C603 1.387 . S
H602 C609 0.950 . S
C603 C601 1.387 . S
C603 C605 1.390 . S
C603 H607 0.950 . S
H604 C600 0.950 . S
C605 C603 1.390 . S
C605 C606 1.387 . S
C605 H608 0.950 . S
C606 C605 1.387 . S
C606 C609 1.387 . S
H607 C603 0.950 . S
H608 C605 0.950 . S
C609 C600 1.390 . S
C609 H602 0.950 . S
C609 C606 1.387 . S
C610 C611 1.387 . S
C610 H614 0.950 . S
C610 C619 1.390 . S
C611 C610 1.387 . S
C611 C613 1.387 . S
H612 C619 0.950 . S
C613 C611 1.387 . S
C613 C615 1.390 . S
C613 H617 0.950 . S
H614 C610 0.950 . S
C615 C613 1.390 . S
C615 C616 1.387 . S
C615 H618 0.950 . S
C616 C615 1.387 . S
C616 C619 1.387 . S
H617 C613 0.950 . S
H618 C615 0.950 . S
C619 C610 1.390 . S
C619 H612 0.950 . S
C619 C616 1.387 . S
C381 C241 1.797 1_565 S
C386 C304 1.836 . S
C396 C327 2.029 . S
C391 C277 1.994 . S
C406 C350 1.867 . S
C401 C169 1.798 . S
C416 C377 1.738 . S
C411 C205 1.849 . S
C426 C305 1.707 . S
C421 C97 1.649 . S
C431 C133 1.808 . S
C436 C328 1.815 . S
C441 C25 1.599 . S
C446 C351 1.650 . S
C451 C61 1.770 1_556 S
C456 C376 1.856 . S
C466 C306 0.855 . S
C461 C211 0.802 . S
C476 C329 0.440 . S
C471 C247 0.603 . S
C486 C352 0.642 . S
C481 C253 0.700 . S
C491 C175 0.712 . S
C496 C378 0.728 . S
C501 C67 0.846 . S
C506 C309 0.823 . S
C516 C332 0.774 . S
C511 C103 0.785 . S
C526 C355 0.867 . S
C521 C109 0.970 . S
C531 C31 0.521 . S
C536 C375 0.386 . S
C541 C181 2.051 1_556 S
C546 C307 2.027 . S
C551 C217 1.962 1_565 S
C556 C330 1.990 1_565 S
C566 C353 2.049 . S
C561 C283 1.926 . S
C576 C374 1.887 . S
C571 C145 1.743 . S
C581 C37 2.109 . S
C586 C308 2.069 . S
C596 C331 1.910 . S
C591 C73 1.968 1_565 S
C606 C354 1.937 . S
C601 C139 1.917 . S
C611 C1 2.067 . S
C616 C373 2.165 . S
