# Generated by pormake.
# Topology ctn, (3,4)-cn, num edge types: 1
# Building blocks:
#     Node 0, Type 0, BuildingBlock: PAMTOO_clean_linker_0, # of connection points: 3
#     Node 1, Type 0, BuildingBlock: PAMTOO_clean_linker_0, # of connection points: 3
#     Node 2, Type 0, BuildingBlock: PAMTOO_clean_linker_0, # of connection points: 3
#     Node 3, Type 0, BuildingBlock: PAMTOO_clean_linker_0, # of connection points: 3
#     Node 4, Type 0, BuildingBlock: PAMTOO_clean_linker_0, # of connection points: 3
#     Node 5, Type 0, BuildingBlock: PAMTOO_clean_linker_0, # of connection points: 3
#     Node 6, Type 0, BuildingBlock: PAMTOO_clean_linker_0, # of connection points: 3
#     Node 7, Type 0, BuildingBlock: PAMTOO_clean_linker_0, # of connection points: 3
#     Node 8, Type 0, BuildingBlock: PAMTOO_clean_linker_0, # of connection points: 3
#     Node 9, Type 0, BuildingBlock: PAMTOO_clean_linker_0, # of connection points: 3
#     Node 10, Type 0, BuildingBlock: PAMTOO_clean_linker_0, # of connection points: 3
#     Node 11, Type 0, BuildingBlock: PAMTOO_clean_linker_0, # of connection points: 3
#     Node 12, Type 0, BuildingBlock: PAMTOO_clean_linker_0, # of connection points: 3
#     Node 13, Type 0, BuildingBlock: PAMTOO_clean_linker_0, # of connection points: 3
#     Node 14, Type 0, BuildingBlock: PAMTOO_clean_linker_0, # of connection points: 3
#     Node 15, Type 0, BuildingBlock: PAMTOO_clean_linker_0, # of connection points: 3
#     Node 16, Type 1, BuildingBlock: KUFVIS_clean_sbu_0, # of connection points: 4
#     Node 17, Type 1, BuildingBlock: KUFVIS_clean_sbu_0, # of connection points: 4
#     Node 18, Type 1, BuildingBlock: KUFVIS_clean_sbu_0, # of connection points: 4
#     Node 19, Type 1, BuildingBlock: KUFVIS_clean_sbu_0, # of connection points: 4
#     Node 20, Type 1, BuildingBlock: KUFVIS_clean_sbu_0, # of connection points: 4
#     Node 21, Type 1, BuildingBlock: KUFVIS_clean_sbu_0, # of connection points: 4
#     Node 22, Type 1, BuildingBlock: KUFVIS_clean_sbu_0, # of connection points: 4
#     Node 23, Type 1, BuildingBlock: KUFVIS_clean_sbu_0, # of connection points: 4
#     Node 24, Type 1, BuildingBlock: KUFVIS_clean_sbu_0, # of connection points: 4
#     Node 25, Type 1, BuildingBlock: KUFVIS_clean_sbu_0, # of connection points: 4
#     Node 26, Type 1, BuildingBlock: KUFVIS_clean_sbu_0, # of connection points: 4
#     Node 27, Type 1, BuildingBlock: KUFVIS_clean_sbu_0, # of connection points: 4
#     Edge 28, Type (0, 1), None
#     Edge 29, Type (0, 1), None
#     Edge 30, Type (0, 1), None
#     Edge 31, Type (0, 1), None
#     Edge 32, Type (0, 1), None
#     Edge 33, Type (0, 1), None
#     Edge 34, Type (0, 1), None
#     Edge 35, Type (0, 1), None
#     Edge 36, Type (0, 1), None
#     Edge 37, Type (0, 1), None
#     Edge 38, Type (0, 1), None
#     Edge 39, Type (0, 1), None
#     Edge 40, Type (0, 1), None
#     Edge 41, Type (0, 1), None
#     Edge 42, Type (0, 1), None
#     Edge 43, Type (0, 1), None
#     Edge 44, Type (0, 1), None
#     Edge 45, Type (0, 1), None
#     Edge 46, Type (0, 1), None
#     Edge 47, Type (0, 1), None
#     Edge 48, Type (0, 1), None
#     Edge 49, Type (0, 1), None
#     Edge 50, Type (0, 1), None
#     Edge 51, Type (0, 1), None
#     Edge 52, Type (0, 1), None
#     Edge 53, Type (0, 1), None
#     Edge 54, Type (0, 1), None
#     Edge 55, Type (0, 1), None
#     Edge 56, Type (0, 1), None
#     Edge 57, Type (0, 1), None
#     Edge 58, Type (0, 1), None
#     Edge 59, Type (0, 1), None
#     Edge 60, Type (0, 1), None
#     Edge 61, Type (0, 1), None
#     Edge 62, Type (0, 1), None
#     Edge 63, Type (0, 1), None
#     Edge 64, Type (0, 1), None
#     Edge 65, Type (0, 1), None
#     Edge 66, Type (0, 1), None
#     Edge 67, Type (0, 1), None
#     Edge 68, Type (0, 1), None
#     Edge 69, Type (0, 1), None
#     Edge 70, Type (0, 1), None
#     Edge 71, Type (0, 1), None
#     Edge 72, Type (0, 1), None
#     Edge 73, Type (0, 1), None
#     Edge 74, Type (0, 1), None
#     Edge 75, Type (0, 1), None
# Relax obj value: 0.088
# Max RMSD: 0.176
# Mean RMSD: 0.117
data_MOF--net-ctn--node1-KUFVIS_clean_sbu_0--node2-PAMTOO_clean_linker_0--edge1-none
_symmetry_space_group_name_H-M    P1
_symmetry_Int_Tables_number       1
_symmetry_cell_setting            triclinic
loop_
_symmetry_equiv_pos_as_xyz
'x, y, z'
_cell_length_a     21.942015
_cell_length_b     21.994549
_cell_length_c     23.135127
_cell_angle_alpha  82.618237
_cell_angle_beta   95.746484
_cell_angle_gamma 100.82841
loop_
_atom_site_label
_atom_site_type_symbol
_atom_site_fract_x
_atom_site_fract_y
_atom_site_fract_z
_atom_type_partial_charge
H0 H 0.98115 0.12783 0.09387 0.0
H1 H 0.07747 0.97245 0.13258 0.0
H2 H 0.13995 0.12099 1.00129 0.0
H3 H 0.11366 1.00524 0.96648 0.0
C4 C 0.13752 0.97827 1.00311 0.0
O5 O 0.15417 1.0119 0.05028 0.0
H6 H 0.10508 0.93449 1.01635 0.0
C7 C 1.01931 0.10524 0.0871 0.0
C8 C 0.06015 0.13204 0.04379 0.0
C9 C 1.02504 0.04791 0.1198 0.0
C10 C 0.07334 1.01783 0.10963 0.0
C11 C 0.11434 0.04469 0.06685 0.0
C12 C 0.10892 0.10228 0.03541 0.0
H13 H 0.35381 0.63202 0.34848 0.0
H14 H 0.28348 0.70502 0.1783 0.0
H15 H 0.45782 0.79387 0.2541 0.0
H16 H 0.37721 0.73665 0.10409 0.0
C17 C 0.38958 0.78682 0.1108 0.0
O18 O 0.37623 0.79693 0.16534 0.0
H19 H 0.43989 0.80369 0.1054 0.0
C20 C 0.35777 0.66751 0.31144 0.0
C21 C 0.41126 0.71474 0.30833 0.0
C22 C 0.3106 0.66445 0.26458 0.0
C23 C 0.31786 0.70787 0.21525 0.0
C24 C 0.37102 0.75372 0.21186 0.0
C25 C 0.41712 0.75741 0.25789 0.0
H26 H 0.99587 0.59491 0.16061 0.0
H27 H 0.9503 0.49601 1.00827 0.0
H28 H 0.09444 0.44923 0.13656 0.0
H29 H 0.11895 0.41803 0.02528 0.0
C30 C 0.07166 0.4177 1.00292 0.0
O31 O 1.02919 0.41981 0.04253 0.0
H32 H 0.07309 0.45813 0.96857 0.0
C33 C 1.00396 0.55998 0.13466 0.0
C34 C 0.0508 0.52355 0.15558 0.0
C35 C 0.96709 0.55145 0.08086 0.0
C36 C 0.97875 0.50579 0.04819 0.0
C37 C 1.02485 0.46969 0.06881 0.0
C38 C 0.06022 0.47865 0.12164 0.0
H39 H 0.71153 0.93347 0.2828 0.0
H40 H 0.67211 0.73583 0.27432 0.0
H41 H 0.79982 0.85107 0.16145 0.0
H42 H 0.66971 0.68925 0.18113 0.0
C43 C 0.7201 0.68784 0.18005 0.0
O44 O 0.75726 0.73693 0.20455 0.0
H45 H 0.72944 0.64419 0.20639 0.0
C46 C 0.71613 0.89359 0.26159 0.0
C47 C 0.76194 0.89927 0.22094 0.0
C48 C 0.68051 0.83453 0.27847 0.0
C49 C 0.69405 0.78221 0.2573 0.0
C50 C 0.73701 0.78809 0.21575 0.0
C51 C 0.76737 0.84703 0.19441 0.0
H52 H 0.1598 0.97372 0.59622 0.0
H53 H 1.02743 0.90648 0.45763 0.0
H54 H 0.16722 0.06838 0.42269 0.0
H55 H 0.06604 0.08702 0.34432 0.0
C56 C 0.03526 0.04401 0.36129 0.0
O57 O 0.07079 0.99851 0.37907 0.0
H58 H 1.00964 0.05135 0.39793 0.0
C59 C 0.14121 0.97753 0.55116 0.0
C60 C 0.16882 0.02705 0.51249 0.0
C61 C 0.09091 0.93244 0.53183 0.0
C62 C 0.06609 0.94007 0.47361 0.0
C63 C 0.09402 0.98966 0.43493 0.0
C64 C 0.1458 0.03153 0.45394 0.0
H65 H 0.14183 0.82138 0.83666 0.0
H66 H 0.20454 0.67624 0.76225 0.0
H67 H 0.32665 0.7805 0.88431 0.0
H68 H 0.39308 0.72573 0.78512 0.0
C69 C 0.34757 0.69659 0.77364 0.0
O70 O 0.31127 0.68742 0.8203 0.0
H71 H 0.32559 0.72209 0.73469 0.0
C72 C 0.17831 0.79591 0.83174 0.0
C73 C 0.23723 0.80964 0.86397 0.0
C74 C 0.16681 0.74849 0.79337 0.0
C75 C 0.21235 0.71273 0.79089 0.0
C76 C 0.26919 0.72418 0.82352 0.0
C77 C 0.28242 0.77336 0.85841 0.0
H78 H 0.90416 0.61379 0.57241 0.0
H79 H 0.96892 0.49818 0.46411 0.0
H80 H 0.10004 0.63141 0.55022 0.0
H81 H 0.05659 0.47448 0.44221 0.0
C82 C 0.09535 0.51496 0.44172 0.0
O83 O 0.07939 0.5659 0.4621 0.0
H84 H 0.13569 0.50102 0.46972 0.0
C85 C 0.94228 0.59711 0.55713 0.0
C86 C 1.00538 0.62609 0.57134 0.0
C87 C 0.92943 0.54866 0.51937 0.0
C88 C 0.97844 0.53346 0.4938 0.0
C89 C 0.03884 0.56469 0.50278 0.0
C90 C 0.05263 0.60734 0.54415 0.0
H91 H 0.77956 0.87048 0.95505 0.0
H92 H 0.90853 0.76626 0.90068 0.0
H93 H 0.83878 0.90673 0.78092 0.0
H94 H 0.9948 0.85704 0.80214 0.0
C95 C 0.9568 0.84632 0.76744 0.0
O96 O 0.9026 0.81778 0.79247 0.0
H97 H 0.95006 0.89065 0.74075 0.0
C98 C 0.81044 0.86339 0.92377 0.0
C99 C 0.80827 0.89794 0.8678 0.0
C100 C 0.84615 0.81437 0.93667 0.0
C101 C 0.88366 0.80505 0.89366 0.0
C102 C 0.88006 0.83799 0.83748 0.0
C103 C 0.84297 0.88395 0.82521 0.0
H104 H 0.27936 0.37011 0.45483 0.0
H105 H 0.40861 0.26632 0.40029 0.0
H106 H 0.33894 0.40708 0.28082 0.0
H107 H 0.49508 0.35592 0.30287 0.0
C108 C 0.45734 0.34637 0.26768 0.0
O109 O 0.40275 0.31813 0.29216 0.0
H110 H 0.45051 0.39075 0.24112 0.0
C111 C 0.31031 0.36317 0.42355 0.0
C112 C 0.30824 0.39791 0.36767 0.0
C113 C 0.3461 0.31421 0.43636 0.0
C114 C 0.38367 0.30506 0.39334 0.0
C115 C 0.38012 0.33815 0.33723 0.0
C116 C 0.34305 0.38414 0.32506 0.0
H117 H 0.49573 0.09483 0.66071 0.0
H118 H 0.45025 0.996 0.50833 0.0
H119 H 0.59443 0.94927 0.63658 0.0
H120 H 0.61862 0.91794 0.52582 0.0
C121 C 0.57163 0.91781 0.50286 0.0
O122 O 0.5292 0.91986 0.54253 0.0
H123 H 0.57265 0.95808 0.46836 0.0
C124 C 0.50386 0.05992 0.63474 0.0
C125 C 0.55073 0.02353 0.65564 0.0
C126 C 0.46699 0.05139 0.58094 0.0
C127 C 0.47869 1.00577 0.54825 0.0
C128 C 0.52482 0.9697 0.56884 0.0
C129 C 0.56019 0.97867 0.62168 0.0
H130 H 0.21163 0.43341 0.78311 0.0
H131 H 0.17177 0.23589 0.77391 0.0
H132 H 0.29966 0.35134 0.66132 0.0
H133 H 0.1692 0.19024 0.67995 0.0
C134 C 0.21951 0.18816 0.67936 0.0
O135 O 0.25682 0.2371 0.70399 0.0
H136 H 0.22736 0.14406 0.70578 0.0
C137 C 0.21615 0.39361 0.76175 0.0
C138 C 0.26193 0.39936 0.72107 0.0
C139 C 0.18041 0.33455 0.77843 0.0
C140 C 0.19381 0.28229 0.75704 0.0
C141 C 0.23675 0.28826 0.71545 0.0
C142 C 0.26723 0.34722 0.69433 0.0
H143 H 0.85365 0.132 0.84865 0.0
H144 H 0.78319 0.20516 0.67858 0.0
H145 H 0.95766 0.29384 0.75426 0.0
H146 H 0.87747 0.23667 0.60446 0.0
C147 C 0.88943 0.28689 0.61106 0.0
O148 O 0.87602 0.29701 0.66558 0.0
H149 H 0.93968 0.30333 0.60512 0.0
C150 C 0.85759 0.16752 0.81163 0.0
C151 C 0.91111 0.2147 0.80848 0.0
C152 C 0.81035 0.16453 0.76483 0.0
C153 C 0.81759 0.20799 0.71551 0.0
C154 C 0.87079 0.25379 0.71209 0.0
C155 C 0.91694 0.25741 0.75807 0.0
H156 H 0.48102 0.62778 0.59384 0.0
H157 H 0.57742 0.47247 0.63264 0.0
H158 H 0.63983 0.62093 0.50127 0.0
H159 H 0.61345 0.50503 0.46658 0.0
C160 C 0.63736 0.47813 0.50323 0.0
O161 O 0.65407 0.51186 0.55032 0.0
H162 H 0.60496 0.43436 0.51656 0.0
C163 C 0.51919 0.60521 0.58707 0.0
C164 C 0.56004 0.63199 0.54375 0.0
C165 C 0.52495 0.5479 0.61982 0.0
C166 C 0.57326 0.51783 0.60967 0.0
C167 C 0.61424 0.54467 0.56687 0.0
C168 C 0.60881 0.60223 0.5354 0.0
H169 H 0.65998 0.47348 0.09633 0.0
H170 H 0.52774 0.40623 0.95765 0.0
H171 H 0.66737 0.56832 0.92287 0.0
H172 H 0.56612 0.58689 0.8446 0.0
C173 C 0.5354 0.54379 0.86145 0.0
O174 O 0.57102 0.49836 0.87916 0.0
H175 H 0.50969 0.55093 0.8981 0.0
C176 C 0.64143 0.4773 0.05126 0.0
C177 C 0.669 0.52688 1.01263 0.0
C178 C 0.59117 0.43219 0.03188 0.0
C179 C 0.56637 0.43983 0.97366 0.0
C180 C 0.59427 0.48948 0.93502 0.0
C181 C 0.64599 0.5314 0.95408 0.0
H182 H 0.64172 0.3212 0.33684 0.0
H183 H 0.70442 0.17594 0.26264 0.0
H184 H 0.82674 0.28074 0.3842 0.0
H185 H 0.8922 0.22658 0.28314 0.0
C186 C 0.84684 0.19648 0.27301 0.0
O187 O 0.8114 0.18758 0.32025 0.0
H188 H 0.8246 0.2216 0.23399 0.0
C189 C 0.67823 0.29576 0.33191 0.0
C190 C 0.73717 0.30961 0.36405 0.0
C191 C 0.66672 0.24827 0.29363 0.0
C192 C 0.71226 0.21249 0.29121 0.0
C193 C 0.7692 0.22416 0.32365 0.0
C194 C 0.78245 0.27344 0.35842 0.0
H195 H 0.40426 0.11383 0.07229 0.0
H196 H 0.46916 0.99847 0.96386 0.0
H197 H 0.60031 0.13076 0.05112 0.0
H198 H 0.55644 0.97402 0.94242 0.0
C199 C 0.59522 1.01446 0.94189 0.0
O200 O 0.58014 0.06548 0.96291 0.0
H201 H 0.63512 0.99907 0.96953 0.0
C202 C 0.44241 0.09711 0.05709 0.0
C203 C 0.50551 0.12588 0.07159 0.0
C204 C 0.4296 0.04881 0.01918 0.0
C205 C 0.47868 0.03361 0.9937 0.0
C206 C 0.53917 0.06446 1.00317 0.0
C207 C 0.55284 0.10695 0.04469 0.0
Mn208 Mn 0.29273 0.88255 1.00375 0.0
Mn209 Mn 0.28247 0.98709 0.88674 0.0
C210 C 0.24723 0.84596 0.9157 0.0
C211 C 0.35158 0.82286 0.06733 0.0
C212 C 0.19413 0.96293 0.9827 0.0
O213 O 0.349 0.96185 0.02955 0.0
O214 O 0.34934 0.02369 0.94513 0.0
C215 C 0.40512 0.99817 0.83911 0.0
N216 N 0.34211 0.98078 0.83382 0.0
C217 C 0.34546 0.94947 0.73852 0.0
C218 C 0.41058 0.96349 0.7446 0.0
C219 C 0.44054 0.98859 0.79493 0.0
C220 C 0.31274 0.95825 0.78485 0.0
H221 H 0.428 1.02044 0.87599 0.0
C222 C 0.36756 1.01353 0.99951 0.0
O223 O 0.30381 0.84135 0.08329 0.0
O224 O 0.36508 0.83793 1.0134 0.0
N225 N 0.22112 0.95867 0.82735 0.0
C226 C 0.1586 0.95712 0.82497 0.0
C227 C 0.1219 0.94264 0.77392 0.0
C228 C 0.14968 0.92925 0.72625 0.0
C229 C 0.21421 0.93106 0.72946 0.0
C230 C 0.24865 0.94777 0.78093 0.0
H231 H 0.13699 0.96861 0.86104 0.0
O232 O 0.23904 0.81289 0.96574 0.0
O233 O 0.28548 0.89951 0.91879 0.0
O234 O 0.21634 0.91826 1.01177 0.0
O235 O 0.21776 0.99515 0.93782 0.0
C236 C 0.2462 0.91987 0.68301 0.0
C237 C 0.31171 0.92872 0.68767 0.0
H238 H 0.43785 0.95649 0.71033 0.0
H239 H 0.4907 1.00125 0.7994 0.0
H240 H 0.07255 0.94327 0.77078 0.0
H241 H 0.12081 0.92055 0.68692 0.0
H242 H 0.22151 0.90535 0.64304 0.0
H243 H 0.33569 0.92117 0.65119 0.0
Mn244 Mn 0.20319 0.51467 0.29783 0.0
Mn245 Mn 0.13388 0.64112 0.28253 0.0
C246 C 0.25931 0.61064 0.2631 0.0
C247 C 0.2625 0.44045 0.34807 0.0
C248 C 0.09207 0.53507 0.21062 0.0
O249 O 0.13548 0.49342 0.35565 0.0
O250 O 0.11117 0.58939 0.35713 0.0
C251 C 0.14989 0.72278 0.37278 0.0
N252 N 0.16877 0.71317 0.32086 0.0
C253 C 0.19209 0.82469 0.29343 0.0
C254 C 0.17735 0.83459 0.34837 0.0
C255 C 0.15264 0.78354 0.38662 0.0
C256 C 0.18445 0.76283 0.28023 0.0
H257 H 0.12799 0.68434 0.4018 0.0
C258 C 0.11334 0.53303 0.37998 0.0
O259 O 0.22084 0.42758 0.30565 0.0
O260 O 0.26874 0.49619 0.36353 0.0
N261 N 0.15848 0.69172 0.21173 0.0
C262 C 0.15186 0.67619 0.15586 0.0
C263 C 0.16215 0.72273 0.10885 0.0
C264 C 0.17888 0.78502 0.11945 0.0
C265 C 0.18864 0.79996 0.17704 0.0
C266 C 0.17959 0.75117 0.2226 0.0
H267 H 0.13876 0.62895 0.14642 0.0
O268 O 0.2715 0.55891 0.24938 0.0
O269 O 0.21215 0.6054 0.29432 0.0
O270 O 0.14004 0.50971 0.22413 0.0
O271 O 0.08212 0.5774 0.23835 0.0
C272 C 0.20303 0.86173 0.19057 0.0
C273 C 0.20462 0.87417 0.24879 0.0
H274 H 0.17956 0.88132 0.35965 0.0
H275 H 0.1349 0.79109 0.4266 0.0
H276 H 0.15571 0.7107 0.06445 0.0
H277 H 0.18332 0.82104 0.08292 0.0
H278 H 0.20908 0.90015 0.15612 0.0
H279 H 0.21117 0.9221 0.25815 0.0
Mn280 Mn 0.82137 0.6349 0.04867 0.0
Mn281 Mn 0.69469 0.69723 0.99553 0.0
C282 C 0.72431 0.57166 0.03145 0.0
C283 C 0.91386 0.58672 0.06298 0.0
C284 C 0.73572 0.68692 0.1193 0.0
O285 O 0.85956 0.71837 1.00065 0.0
O286 O 0.77358 0.7586 1.001 0.0
C287 C 0.73066 0.72183 0.87171 0.0
N288 N 0.68758 0.70626 0.91186 0.0
C289 C 0.60378 0.71483 0.83754 0.0
C290 C 0.64755 0.73578 0.79589 0.0
C291 C 0.71124 0.73746 0.81277 0.0
C292 C 0.62619 0.69797 0.89495 0.0
H293 H 0.77886 0.72065 0.88425 0.0
C294 C 0.82777 0.76223 0.98421 0.0
O295 O 0.89946 0.62094 0.09824 0.0
O296 O 0.8764 0.58236 1.0156 0.0
N297 N 0.61263 0.65016 0.98937 0.0
C298 C 0.57698 0.62141 0.03345 0.0
C299 C 0.51188 0.61072 0.0235 0.0
C300 C 0.48408 0.63218 0.96924 0.0
C301 C 0.5218 0.66218 0.92478 0.0
C302 C 0.58629 0.66962 0.93668 0.0
H303 H 0.59813 0.60835 0.07637 0.0
O304 O 0.7642 0.5556 0.07348 0.0
O305 O 0.74005 0.62539 1.00115 0.0
O306 O 0.78957 0.6788 0.11019 0.0
O307 O 0.69256 0.68938 0.07945 0.0
C308 C 0.49797 0.68263 0.86835 0.0
C309 C 0.53881 0.70826 0.8244 0.0
H310 H 0.63271 0.74858 0.75061 0.0
H311 H 0.74521 0.75094 0.78053 0.0
H312 H 0.48318 0.58768 0.05811 0.0
H313 H 0.43382 0.62457 0.96188 0.0
H314 H 0.44829 0.6762 0.8581 0.0
H315 H 0.51979 0.72141 0.78053 0.0
Mn316 Mn 0.88327 0.04734 0.22644 0.0
Mn317 Mn 0.93758 0.91525 0.25591 0.0
C318 C 0.81112 0.95544 0.21456 0.0
C319 C 0.85741 0.13619 0.25573 0.0
C320 C 0.97848 1.0193 0.16202 0.0
O321 O 0.96728 0.06295 0.27611 0.0
O322 O 0.96568 0.96521 0.31963 0.0
C323 C 0.88098 0.84867 0.36256 0.0
N324 N 0.89359 0.84961 0.30602 0.0
C325 C 0.86784 0.738 0.31099 0.0
C326 C 0.85367 0.7356 0.36915 0.0
C327 C 0.85954 0.79127 0.39481 0.0
C328 C 0.88602 0.79669 0.28037 0.0
H329 H 0.8885 0.89126 0.383 0.0
C330 C 0.98774 0.0231 0.31513 0.0
O331 O 0.88437 0.13757 0.20851 0.0
O332 O 0.84282 0.08209 0.28631 0.0
N333 N 0.91416 0.86177 0.19622 0.0
C334 C 0.92673 0.87282 0.13892 0.0
C335 C 0.9251 0.82271 0.1071 0.0
C336 C 0.91183 0.76192 0.13478 0.0
C337 C 0.8971 0.75109 0.19326 0.0
C338 C 0.89868 0.80308 0.22254 0.0
H339 H 0.93936 0.91915 0.11757 0.0
O340 O 0.79855 1.00907 0.19078 0.0
O341 O 0.8646 0.95813 0.24458 0.0
O342 O 0.92629 0.03677 0.15634 0.0
O343 O 0.99116 0.97789 0.203 0.0
C344 C 0.88172 0.69119 0.22394 0.0
C345 C 0.86608 0.68465 0.2825 0.0
H346 H 0.83887 0.69132 0.39465 0.0
H347 H 0.8493 0.78978 0.43982 0.0
H348 H 0.93601 0.83094 0.06184 0.0
H349 H 0.91338 0.72453 0.1101 0.0
H350 H 0.88064 0.64985 0.20278 0.0
H351 H 0.85319 0.63845 0.30525 0.0
Mn352 Mn 0.32134 0.13493 0.54849 0.0
Mn353 Mn 0.19499 0.19744 0.49486 0.0
C354 C 0.22422 0.07177 0.53122 0.0
C355 C 0.41376 0.08665 0.56304 0.0
C356 C 0.23524 0.18695 0.6187 0.0
O357 O 0.35979 0.21826 0.50036 0.0
O358 O 0.27402 0.25846 0.50126 0.0
C359 C 0.23229 0.2212 0.37142 0.0
N360 N 0.18876 0.20661 0.41118 0.0
C361 C 0.10581 0.2155 0.33604 0.0
C362 C 0.15012 0.23578 0.29479 0.0
C363 C 0.21358 0.23675 0.31227 0.0
C364 C 0.12752 0.19873 0.39369 0.0
H365 H 0.28026 0.21923 0.38441 0.0
C366 C 0.32797 0.2621 0.484 0.0
O367 O 0.39934 0.12094 0.59824 0.0
O368 O 0.37635 0.08225 0.51562 0.0
N369 N 0.11277 0.15087 0.48791 0.0
C370 C 0.0765 0.12241 0.53164 0.0
C371 C 1.01145 0.11239 0.52114 0.0
C372 C 0.98434 0.13415 0.46666 0.0
C373 C 1.02268 0.16376 0.42253 0.0
C374 C 0.08707 0.17066 0.43503 0.0
H375 H 0.09713 0.10912 0.57472 0.0
O376 O 0.26402 0.05573 0.57334 0.0
O377 O 0.24011 0.12539 0.5008 0.0
O378 O 0.28923 0.17906 0.60973 0.0
O379 O 0.19216 0.1893 0.57873 0.0
C380 C 0.99955 0.18432 0.36586 0.0
C381 C 0.04098 0.20943 0.32227 0.0
H382 H 0.13583 0.24848 0.24934 0.0
H383 H 0.24793 0.24953 0.28033 0.0
H384 H 0.98228 0.08963 0.55549 0.0
H385 H 0.93413 0.12702 0.45886 0.0
H386 H 0.94998 0.17834 0.35513 0.0
H387 H 1.02248 0.22259 0.27821 0.0
Mn388 Mn 0.38338 0.54736 0.72668 0.0
Mn389 Mn 0.43757 0.41518 0.75593 0.0
C390 C 0.31114 0.45552 0.71478 0.0
C391 C 0.35742 0.63619 0.75597 0.0
C392 C 0.47842 0.51929 0.66208 0.0
O393 O 0.46746 0.56286 0.77627 0.0
O394 O 0.46585 0.46506 0.81967 0.0
C395 C 0.38104 0.34859 0.86261 0.0
N396 N 0.39356 0.34955 0.80604 0.0
C397 C 0.36746 0.23797 0.81088 0.0
C398 C 0.35339 0.23555 0.86907 0.0
C399 C 0.35948 0.2912 0.89481 0.0
C400 C 0.38578 0.29666 0.78031 0.0
H401 H 0.38871 0.39116 0.8831 0.0
C402 C 0.48794 0.52295 0.81522 0.0
O403 O 0.38446 0.63761 0.70879 0.0
O404 O 0.34312 0.58213 0.78668 0.0
N405 N 0.41399 0.36177 0.6962 0.0
C406 C 0.42653 0.37285 0.63889 0.0
C407 C 0.42471 0.32276 0.607 0.0
C408 C 0.41127 0.26195 0.63462 0.0
C409 C 0.39659 0.2511 0.69311 0.0
C410 C 0.39838 0.30308 0.72246 0.0
H411 H 0.43929 0.41918 0.61759 0.0
O412 O 0.29859 0.50919 0.69109 0.0
O413 O 0.36465 0.45814 0.74475 0.0
O414 O 0.42626 0.53682 0.65649 0.0
O415 O 0.49111 0.47783 0.703 0.0
C416 C 0.38106 0.19119 0.72373 0.0
C417 C 0.36548 0.18464 0.7823 0.0
H418 H 0.33849 0.19127 0.89453 0.0
H419 H 0.34931 0.28969 0.93985 0.0
H420 H 0.43558 0.33099 0.56173 0.0
H421 H 0.41262 0.22456 0.60987 0.0
H422 H 0.3798 0.14986 0.70251 0.0
H423 H 0.35246 0.13843 0.80501 0.0
Mn424 Mn 0.79256 0.3824 0.50388 0.0
Mn425 Mn 0.78235 0.48703 0.38691 0.0
C426 C 0.74713 0.34591 0.41579 0.0
C427 C 0.851 0.3222 0.56736 0.0
C428 C 0.69395 0.46278 0.4828 0.0
O429 O 0.84889 0.46163 0.52975 0.0
O430 O 0.84912 0.52361 0.44539 0.0
C431 C 0.90507 0.49836 0.33935 0.0
N432 N 0.84208 0.48082 0.33404 0.0
C433 C 0.84558 0.44958 0.23873 0.0
C434 C 0.9107 0.46373 0.24484 0.0
C435 C 0.94057 0.48889 0.29518 0.0
C436 C 0.81279 0.45828 0.28505 0.0
H437 H 0.92789 0.52069 0.37623 0.0
C438 C 0.86738 0.51337 0.49975 0.0
O439 O 0.80349 0.34109 0.58338 0.0
O440 O 0.86484 0.33768 0.51356 0.0
N441 N 0.7211 0.45859 0.32746 0.0
C442 C 0.65855 0.45692 0.32504 0.0
C443 C 0.62191 0.44236 0.27399 0.0
C444 C 0.64978 0.42904 0.22634 0.0
C445 C 0.71432 0.43096 0.22959 0.0
C446 C 0.7487 0.44772 0.28107 0.0
H447 H 0.63688 0.46835 0.36111 0.0
O448 O 0.73884 0.31281 0.46581 0.0
O449 O 0.78541 0.39943 0.41892 0.0
O450 O 0.7162 0.41814 0.51189 0.0
O451 O 0.71757 0.495 0.43791 0.0
C452 C 0.74639 0.41982 0.18318 0.0
C453 C 0.8119 0.42878 0.18787 0.0
H454 H 0.93802 0.45681 0.21059 0.0
H455 H 0.99072 0.50168 0.29967 0.0
H456 H 0.57253 0.44288 0.27084 0.0
H457 H 0.62095 0.4203 0.187 0.0
H458 H 0.72175 0.40524 0.1432 0.0
H459 H 0.83594 0.42128 0.15141 0.0
Mn460 Mn 0.7031 1.01461 0.79797 0.0
Mn461 Mn 0.63359 0.14095 0.78288 0.0
C462 C 0.7591 0.11068 0.76332 0.0
C463 C 0.76254 0.94047 0.84813 0.0
C464 C 0.59199 0.03505 0.7107 0.0
O465 O 0.63541 0.99313 0.85578 0.0
O466 O 0.61078 0.08895 0.85734 0.0
C467 C 0.64938 0.22225 0.87342 0.0
N468 N 0.66836 0.21285 0.82147 0.0
C469 C 0.69174 0.32442 0.7944 0.0
C470 C 0.67683 0.33411 0.84934 0.0
C471 C 0.65206 0.28293 0.88743 0.0
C472 C 0.68413 0.26263 0.781 0.0
H473 H 0.62747 0.18371 0.90233 0.0
C474 C 0.61304 0.03258 0.88011 0.0
O475 O 0.72092 0.92759 0.80568 0.0
O476 O 0.76869 0.99617 0.86365 0.0
N477 N 0.65823 0.19181 0.71223 0.0
C478 C 0.65157 0.17652 0.65628 0.0
C479 C 0.66192 0.22323 0.60941 0.0
C480 C 0.67875 0.28544 0.62024 0.0
C481 C 0.68851 0.30014 0.67791 0.0
C482 C 0.67937 0.25119 0.72332 0.0
H483 H 0.63834 0.12935 0.64666 0.0
O484 O 0.77135 0.05901 0.74953 0.0
O485 O 0.71193 0.10534 0.79457 0.0
O486 O 0.63994 1.00966 0.72425 0.0
O487 O 0.582 0.07737 0.73843 0.0
C488 C 0.70297 0.36184 0.69166 0.0
C489 C 0.70442 0.37405 0.74993 0.0
H490 H 0.679 0.38078 0.86076 0.0
H491 H 0.63426 0.29033 0.92744 0.0
H492 H 0.65544 0.21139 0.56495 0.0
H493 H 0.68322 0.3216 0.58383 0.0
H494 H 0.70915 0.40037 0.65733 0.0
H495 H 0.71098 0.42193 0.75945 0.0
Mn496 Mn 0.06303 0.27028 0.89055 0.0
Mn497 Mn 0.93959 0.25404 0.96849 0.0
C498 C 0.96502 0.21901 0.85291 0.0
C499 C 0.13804 0.32126 0.82614 0.0
C500 C 0.04555 0.1853 1.00241 0.0
O501 O 0.0877 0.33698 0.94753 0.0
O502 O 0.99353 0.33358 0.98059 0.0
C503 C 0.8708 0.35591 0.93652 0.0
N504 N 0.87114 0.29368 0.94003 0.0
C505 C 0.76799 0.26879 0.97326 0.0
C506 C 0.76713 0.33273 0.97098 0.0
C507 C 0.81786 0.37641 0.95059 0.0
C508 C 0.8204 0.25115 0.9551 0.0
H509 H 0.91226 0.38953 0.92694 0.0
C510 C 0.05025 0.35902 0.97487 0.0
O511 O 0.14945 0.28035 0.86901 0.0
O512 O 0.08234 0.33498 0.82069 0.0
N513 N 0.88429 0.17772 0.95956 0.0
C514 C 0.89625 0.11852 0.96627 0.0
C515 C 0.84756 0.06832 0.97782 0.0
C516 C 0.78856 0.08008 0.98641 0.0
C517 C 0.77845 0.1418 0.98063 0.0
C518 C 0.82678 0.18924 0.96256 0.0
H519 H 0.94264 0.10986 0.96375 0.0
O520 O 1.01719 0.20909 0.83694 0.0
O521 O 0.97164 0.25932 0.89058 0.0
O522 O 0.07065 0.19879 0.95458 0.0
O523 O 1.00107 0.20982 1.01288 0.0
C524 C 0.72469 0.15845 0.99739 0.0
C525 C 0.72058 0.22186 0.99626 0.0
H526 H 0.7279 0.34883 0.98511 0.0
H527 H 0.81759 0.42575 0.94907 0.0
H528 H 0.85624 1.02099 0.9831 0.0
H529 H 0.7521 0.04163 0.99932 0.0
H530 H 0.688 0.12265 1.01405 0.0
H531 H 0.68031 0.23399 1.01245 0.0
Mn532 Mn 0.56308 0.77038 0.39056 0.0
Mn533 Mn 0.43953 0.75407 0.4684 0.0
C534 C 0.46512 0.7191 0.35283 0.0
C535 C 0.63813 0.82133 0.32617 0.0
C536 C 0.54545 0.68526 0.50238 0.0
O537 O 0.58771 0.83707 0.44754 0.0
O538 O 0.49357 0.83352 0.48072 0.0
C539 C 0.37095 0.8561 0.43649 0.0
N540 N 0.37119 0.79385 0.43993 0.0
C541 C 0.26797 0.76906 0.47299 0.0
C542 C 0.2672 0.83301 0.47076 0.0
C543 C 0.31801 0.87665 0.4505 0.0
C544 C 0.32037 0.75137 0.45489 0.0
H545 H 0.41246 0.88967 0.42701 0.0
C546 C 0.55042 0.85872 0.47541 0.0
O547 O 0.64952 0.78045 0.36908 0.0
O548 O 0.58244 0.83506 0.32069 0.0
N549 N 0.38415 0.67784 0.45932 0.0
C550 C 0.39605 0.61861 0.46604 0.0
C551 C 0.3473 0.56846 0.47753 0.0
C552 C 0.28831 0.58029 0.48605 0.0
C553 C 0.27826 0.64203 0.48028 0.0
C554 C 0.32667 0.68943 0.46228 0.0
H555 H 0.44243 0.60991 0.46359 0.0
O556 O 0.51732 0.70918 0.33694 0.0
O557 O 0.47167 0.75941 0.39051 0.0
O558 O 0.57068 0.6989 0.45463 0.0
O559 O 0.50086 0.70967 0.51278 0.0
C560 C 0.22451 0.65873 0.49696 0.0
C561 C 0.22046 0.72216 0.49588 0.0
H562 H 0.22797 0.84915 0.48485 0.0
H563 H 0.31781 0.92601 0.44903 0.0
H564 H 0.35593 0.52111 0.48282 0.0
H565 H 0.25181 0.54187 0.49893 0.0
H566 H 0.18774 0.62295 0.51352 0.0
H567 H 0.18017 0.73433 0.51199 0.0
Mn568 Mn 0.0562 0.78265 0.63618 0.0
Mn569 Mn 0.9798 0.6699 0.7246 0.0
C570 C 1.02561 0.68485 0.60154 0.0
C571 C 0.07279 0.87442 0.57118 0.0
C572 C 0.11124 0.73855 0.75099 0.0
O573 O 1.02192 0.82533 0.69759 0.0
O574 O 0.94888 0.74657 0.73421 0.0
C575 C 0.84684 0.65222 0.68152 0.0
N576 N 0.90089 0.6295 0.69361 0.0
C577 C 0.85078 0.52832 0.66867 0.0
C578 C 0.79449 0.5505 0.65586 0.0
C579 C 0.79255 0.61278 0.66224 0.0
C580 C 0.90318 0.5696 0.68812 0.0
H581 H 0.84527 0.69999 0.68682 0.0
C582 C 0.97635 0.80377 0.72965 0.0
O583 O 0.11373 0.85809 0.61058 0.0
O584 O 1.01934 0.83659 0.56799 0.0
N585 N 1.00855 0.59473 0.71726 0.0
C586 C 0.06726 0.58182 0.72767 0.0
C587 C 0.07812 0.52264 0.71984 0.0
C588 C 1.02843 0.47736 0.70151 0.0
C589 C 0.96844 0.49187 0.69116 0.0
C590 C 0.96043 0.55149 0.69979 0.0
H591 H 0.10548 0.61633 0.74177 0.0
O592 O 0.07174 0.72571 0.58141 0.0
O593 O 0.99807 0.70321 0.64239 0.0
O594 O 0.11942 0.75176 0.69734 0.0
O595 O 0.05984 0.70724 0.76734 0.0
C596 C 0.91651 0.44978 0.67165 0.0
C597 C 0.85752 0.46748 0.66127 0.0
H598 H 0.75269 0.52033 0.6406 0.0
H599 H 0.74931 0.63029 0.65235 0.0
H600 H 0.12463 0.51196 0.7279 0.0
H601 H 0.03687 0.43173 0.69531 0.0
H602 H 0.9222 0.40425 0.66353 0.0
H603 H 0.8181 0.43462 0.64596 0.0
Mn604 Mn 0.55633 0.28248 0.13629 0.0
Mn605 Mn 0.47974 0.16987 0.22472 0.0
C606 C 0.52572 0.18467 0.10175 0.0
C607 C 0.57303 0.37417 0.07123 0.0
C608 C 0.6112 0.23835 0.2512 0.0
O609 O 0.52203 0.32527 0.19756 0.0
O610 O 0.44899 0.24662 0.23436 0.0
C611 C 0.34682 0.15245 0.18155 0.0
N612 N 0.4008 0.12963 0.19365 0.0
C613 C 0.35057 0.02855 0.16854 0.0
C614 C 0.29434 0.05084 0.15572 0.0
C615 C 0.29249 0.11312 0.16218 0.0
C616 C 0.403 0.06972 0.18809 0.0
H617 H 0.34532 0.20022 0.18691 0.0
C618 C 0.47626 0.30389 0.22942 0.0
O619 O 0.61394 0.35785 0.11067 0.0
O620 O 0.51957 0.33637 0.06801 0.0
N621 N 0.50836 0.09462 0.2174 0.0
C622 C 0.56701 0.08159 0.22787 0.0
C623 C 0.57777 0.02238 0.22001 0.0
C624 C 0.52804 0.9772 0.20156 0.0
C625 C 0.46811 0.99185 0.19115 0.0
C626 C 0.46019 0.05149 0.19983 0.0
H627 H 0.60527 0.11602 0.24205 0.0
O628 O 0.57191 0.22546 0.08163 0.0
O629 O 0.49814 0.2031 0.14252 0.0
O630 O 0.61945 0.2516 0.19757 0.0
O631 O 0.55977 0.20706 0.26752 0.0
C632 C 0.41614 0.94987 0.17151 0.0
C633 C 0.35722 0.96771 0.16107 0.0
H634 H 0.25251 1.02075 0.1404 0.0
H635 H 0.2493 0.13071 0.15229 0.0
H636 H 0.62424 1.0116 0.22813 0.0
H637 H 0.53641 0.93156 0.19533 0.0
H638 H 0.42175 0.90434 0.16335 0.0
H639 H 0.31779 0.93495 0.14564 0.0
loop_
_geom_bond_atom_site_label_1
_geom_bond_atom_site_label_2
_geom_bond_distance
_geom_bond_site_symmetry_2
_ccdc_geom_bond_type
H0 C7 0.929 . S
H1 C10 0.930 1_565 S
H2 C12 0.929 . S
H3 C4 0.969 . S
C4 H3 0.969 . S
C4 O5 1.550 1_565 S
C4 H6 0.973 . S
O5 C4 1.550 1_545 S
O5 C11 1.412 . S
H6 C4 0.973 . S
C7 H0 0.929 . S
C7 C8 1.397 1_654 S
C7 C9 1.364 . S
C8 C7 1.397 1_456 S
C8 C12 1.381 . S
C9 C7 1.364 . S
C9 C10 1.374 1_655 S
C10 H1 0.930 1_545 S
C10 C9 1.374 1_455 S
C10 C11 1.383 . S
C11 O5 1.412 . S
C11 C10 1.383 . S
C11 C12 1.394 1_554 S
C12 H2 0.929 . S
C12 C8 1.381 . S
C12 C11 1.394 1_556 S
H13 C20 0.929 . S
H14 C23 0.930 . S
H15 C25 0.929 . S
H16 C17 0.969 . S
C17 H16 0.969 . S
C17 O18 1.550 . S
C17 H19 0.973 . S
O18 C17 1.550 . S
O18 C24 1.412 . S
H19 C17 0.973 . S
C20 H13 0.929 . S
C20 C21 1.400 . S
C20 C22 1.364 . S
C21 C20 1.400 . S
C21 C25 1.377 . S
C22 C20 1.364 . S
C22 C23 1.374 . S
C23 H14 0.930 . S
C23 C22 1.374 . S
C23 C24 1.383 . S
C24 O18 1.412 . S
C24 C23 1.383 . S
C24 C25 1.394 . S
C25 H15 0.929 . S
C25 C21 1.377 . S
C25 C24 1.394 . S
H26 C33 0.929 . S
H27 C36 0.923 1_556 S
H28 C38 0.929 . S
H29 C30 0.969 1_455 S
C30 H29 0.969 1_655 S
C30 O31 1.550 1_656 S
C30 H32 0.973 . S
O31 C30 1.550 1_454 S
O31 C37 1.410 1_455 S
H32 C30 0.973 . S
C33 H26 0.929 . S
C33 C34 1.400 1_655 S
C33 C35 1.364 . S
C34 C33 1.400 1_455 S
C34 C38 1.377 . S
C35 C33 1.364 . S
C35 C36 1.374 . S
C36 H27 0.923 1_554 S
C36 C35 1.374 . S
C36 C37 1.392 . S
C37 O31 1.410 1_655 S
C37 C36 1.392 . S
C37 C38 1.389 1_655 S
C38 H28 0.929 . S
C38 C34 1.377 . S
C38 C37 1.389 1_455 S
H39 C46 0.929 . S
H40 C49 0.930 . S
H41 C51 0.929 . S
H42 C43 0.969 . S
C43 H42 0.969 . S
C43 O44 1.550 . S
C43 H45 0.973 . S
O44 C43 1.550 . S
O44 C50 1.412 . S
H45 C43 0.973 . S
C46 H39 0.929 . S
C46 C47 1.400 . S
C46 C48 1.364 . S
C47 C46 1.400 . S
C47 C51 1.377 . S
C48 C46 1.364 . S
C48 C49 1.374 . S
C49 H40 0.930 . S
C49 C48 1.374 . S
C49 C50 1.383 . S
C50 O44 1.412 . S
C50 C49 1.383 . S
C50 C51 1.394 . S
C51 H41 0.929 . S
C51 C47 1.377 . S
C51 C50 1.394 . S
H52 C59 0.929 . S
H53 C62 0.930 1_655 S
H54 C64 0.929 . S
H55 C56 0.969 . S
C56 H55 0.969 . S
C56 O57 1.550 1_665 S
C56 H58 0.973 . S
O57 C56 1.550 1_445 S
O57 C63 1.412 1_545 S
H58 C56 0.973 . S
C59 H52 0.929 . S
C59 C60 1.400 1_565 S
C59 C61 1.364 . S
C60 C59 1.400 1_545 S
C60 C64 1.377 . S
C61 C59 1.364 . S
C61 C62 1.374 . S
C62 H53 0.930 1_455 S
C62 C61 1.374 . S
C62 C63 1.383 . S
C63 O57 1.412 1_565 S
C63 C62 1.383 . S
C63 C64 1.394 1_565 S
C64 H54 0.929 . S
C64 C60 1.377 . S
C64 C63 1.394 1_545 S
H65 C72 0.929 . S
H66 C75 0.930 . S
H67 C77 0.929 . S
H68 C69 0.969 . S
C69 H68 0.969 . S
C69 O70 1.550 . S
C69 H71 0.973 . S
O70 C69 1.550 . S
O70 C76 1.412 . S
H71 C69 0.973 . S
C72 H65 0.929 . S
C72 C73 1.400 . S
C72 C74 1.364 . S
C73 C72 1.400 . S
C73 C77 1.377 . S
C74 C72 1.364 . S
C74 C75 1.374 . S
C75 H66 0.930 . S
C75 C74 1.374 . S
C75 C76 1.383 . S
C76 O70 1.412 . S
C76 C75 1.383 . S
C76 C77 1.394 . S
C77 H67 0.929 . S
C77 C73 1.377 . S
C77 C76 1.394 . S
H78 C85 0.929 . S
H79 C88 0.930 . S
H80 C90 0.929 . S
H81 C82 0.969 . S
C82 H81 0.969 . S
C82 O83 1.550 . S
C82 H84 0.973 . S
O83 C82 1.550 . S
O83 C89 1.412 . S
H84 C82 0.973 . S
C85 H78 0.929 . S
C85 C86 1.400 . S
C85 C87 1.364 . S
C86 C85 1.400 . S
C86 C90 1.377 1_655 S
C87 C85 1.364 . S
C87 C88 1.374 . S
C88 H79 0.930 . S
C88 C87 1.374 . S
C88 C89 1.383 1_655 S
C89 O83 1.412 . S
C89 C88 1.383 1_455 S
C89 C90 1.394 . S
C90 H80 0.929 . S
C90 C86 1.377 1_455 S
C90 C89 1.394 . S
H91 C98 0.929 . S
H92 C101 0.930 . S
H93 C103 0.929 . S
H94 C95 0.969 . S
C95 H94 0.969 . S
C95 O96 1.550 . S
C95 H97 0.973 . S
O96 C95 1.550 . S
O96 C102 1.412 . S
H97 C95 0.973 . S
C98 H91 0.929 . S
C98 C99 1.400 . S
C98 C100 1.364 . S
C99 C98 1.400 . S
C99 C103 1.377 . S
C100 C98 1.364 . S
C100 C101 1.374 . S
C101 H92 0.930 . S
C101 C100 1.374 . S
C101 C102 1.383 . S
C102 O96 1.412 . S
C102 C101 1.383 . S
C102 C103 1.394 . S
C103 H93 0.929 . S
C103 C99 1.377 . S
C103 C102 1.394 . S
H104 C111 0.929 . S
H105 C114 0.930 . S
H106 C116 0.929 . S
H107 C108 0.969 . S
C108 H107 0.969 . S
C108 O109 1.550 . S
C108 H110 0.973 . S
O109 C108 1.550 . S
O109 C115 1.412 . S
H110 C108 0.973 . S
C111 H104 0.929 . S
C111 C112 1.400 . S
C111 C113 1.364 . S
C112 C111 1.400 . S
C112 C116 1.377 . S
C113 C111 1.364 . S
C113 C114 1.374 . S
C114 H105 0.930 . S
C114 C113 1.374 . S
C114 C115 1.383 . S
C115 O109 1.412 . S
C115 C114 1.383 . S
C115 C116 1.394 . S
C116 H106 0.929 . S
C116 C112 1.377 . S
C116 C115 1.394 . S
H117 C124 0.929 . S
H118 C127 0.930 . S
H119 C129 0.929 . S
H120 C121 0.969 . S
C121 H120 0.969 . S
C121 O122 1.550 . S
C121 H123 0.973 . S
O122 C121 1.550 . S
O122 C128 1.412 . S
H123 C121 0.973 . S
C124 H117 0.929 . S
C124 C125 1.400 . S
C124 C126 1.364 . S
C125 C124 1.400 . S
C125 C129 1.377 1_545 S
C126 C124 1.364 . S
C126 C127 1.374 1_545 S
C127 H118 0.930 . S
C127 C126 1.374 1_565 S
C127 C128 1.383 . S
C128 O122 1.412 . S
C128 C127 1.383 . S
C128 C129 1.394 . S
C129 H119 0.929 . S
C129 C125 1.377 1_565 S
C129 C128 1.394 . S
H130 C137 0.929 . S
H131 C140 0.930 . S
H132 C142 0.929 . S
H133 C134 0.969 . S
C134 H133 0.969 . S
C134 O135 1.550 . S
C134 H136 0.973 . S
O135 C134 1.550 . S
O135 C141 1.412 . S
H136 C134 0.973 . S
C137 H130 0.929 . S
C137 C138 1.400 . S
C137 C139 1.364 . S
C138 C137 1.400 . S
C138 C142 1.377 . S
C139 C137 1.364 . S
C139 C140 1.374 . S
C140 H131 0.930 . S
C140 C139 1.374 . S
C140 C141 1.383 . S
C141 O135 1.412 . S
C141 C140 1.383 . S
C141 C142 1.394 . S
C142 H132 0.929 . S
C142 C138 1.377 . S
C142 C141 1.394 . S
H143 C150 0.929 . S
H144 C153 0.930 . S
H145 C155 0.929 . S
H146 C147 0.969 . S
C147 H146 0.969 . S
C147 O148 1.550 . S
C147 H149 0.973 . S
O148 C147 1.550 . S
O148 C154 1.412 . S
H149 C147 0.973 . S
C150 H143 0.929 . S
C150 C151 1.400 . S
C150 C152 1.364 . S
C151 C150 1.400 . S
C151 C155 1.377 . S
C152 C150 1.364 . S
C152 C153 1.374 . S
C153 H144 0.930 . S
C153 C152 1.374 . S
C153 C154 1.383 . S
C154 O148 1.412 . S
C154 C153 1.383 . S
C154 C155 1.394 . S
C155 H145 0.929 . S
C155 C151 1.377 . S
C155 C154 1.394 . S
H156 C163 0.929 . S
H157 C166 0.930 . S
H158 C168 0.929 . S
H159 C160 0.969 . S
C160 H159 0.969 . S
C160 O161 1.550 . S
C160 H162 0.973 . S
O161 C160 1.550 . S
O161 C167 1.412 . S
H162 C160 0.973 . S
C163 H156 0.929 . S
C163 C164 1.400 . S
C163 C165 1.364 . S
C164 C163 1.400 . S
C164 C168 1.377 . S
C165 C163 1.364 . S
C165 C166 1.374 . S
C166 H157 0.930 . S
C166 C165 1.374 . S
C166 C167 1.383 . S
C167 O161 1.412 . S
C167 C166 1.383 . S
C167 C168 1.394 . S
C168 H158 0.929 . S
C168 C164 1.377 . S
C168 C167 1.394 . S
H169 C176 0.929 . S
H170 C179 0.930 . S
H171 C181 0.929 . S
H172 C173 0.969 . S
C173 H172 0.969 . S
C173 O174 1.550 . S
C173 H175 0.973 . S
O174 C173 1.550 . S
O174 C180 1.412 . S
H175 C173 0.973 . S
C176 H169 0.929 . S
C176 C177 1.400 . S
C176 C178 1.364 . S
C177 C176 1.400 . S
C177 C181 1.377 1_554 S
C178 C176 1.364 . S
C178 C179 1.374 1_554 S
C179 H170 0.930 . S
C179 C178 1.374 1_556 S
C179 C180 1.383 . S
C180 O174 1.412 . S
C180 C179 1.383 . S
C180 C181 1.394 . S
C181 H171 0.929 . S
C181 C177 1.377 1_556 S
C181 C180 1.394 . S
H182 C189 0.929 . S
H183 C192 0.930 . S
H184 C194 0.929 . S
H185 C186 0.969 . S
C186 H185 0.969 . S
C186 O187 1.550 . S
C186 H188 0.973 . S
O187 C186 1.550 . S
O187 C193 1.412 . S
H188 C186 0.973 . S
C189 H182 0.929 . S
C189 C190 1.400 . S
C189 C191 1.364 . S
C190 C189 1.400 . S
C190 C194 1.377 . S
C191 C189 1.364 . S
C191 C192 1.374 . S
C192 H183 0.930 . S
C192 C191 1.374 . S
C192 C193 1.383 . S
C193 O187 1.412 . S
C193 C192 1.383 . S
C193 C194 1.394 . S
C194 H184 0.929 . S
C194 C190 1.377 . S
C194 C193 1.394 . S
H195 C202 0.929 . S
H196 C205 0.930 1_565 S
H197 C207 0.929 . S
H198 C199 0.969 . S
C199 H198 0.969 . S
C199 O200 1.550 . S
C199 H201 0.973 1_545 S
O200 C199 1.550 . S
O200 C206 1.412 . S
H201 C199 0.973 1_565 S
C202 H195 0.929 . S
C202 C203 1.400 . S
C202 C204 1.364 . S
C203 C202 1.400 . S
C203 C207 1.377 . S
C204 C202 1.364 . S
C204 C205 1.374 1_554 S
C205 H196 0.930 1_545 S
C205 C204 1.374 1_556 S
C205 C206 1.383 . S
C206 O200 1.412 . S
C206 C205 1.383 . S
C206 C207 1.394 1_556 S
C207 H197 0.929 . S
C207 C203 1.377 . S
C207 C206 1.394 1_554 S
Mn208 O213 2.095 . S
Mn208 O223 2.162 . S
Mn208 O224 2.297 . S
Mn208 O232 2.385 1_554 S
Mn208 O233 2.209 1_554 S
Mn208 O234 2.094 . S
Mn209 O214 2.121 . S
Mn209 N216 2.257 . S
Mn209 N225 2.282 . S
Mn209 O233 2.215 . S
Mn209 O235 2.117 . S
C210 O232 1.234 . S
C210 O233 1.283 . S
C211 O223 1.281 . S
C211 O224 1.236 . S
C212 O234 1.240 1_556 S
C212 O235 1.264 . S
O213 Mn208 2.095 . S
O213 C222 1.250 1_554 S
O214 Mn209 2.121 . S
O214 C222 1.258 . S
C215 N216 1.326 . S
C215 C219 1.460 . S
C215 H221 0.929 . S
N216 Mn209 2.257 . S
N216 C215 1.326 . S
N216 C220 1.362 . S
C217 C218 1.258 . S
C217 C220 1.431 . S
C217 C237 1.449 . S
C218 C217 1.258 . S
C218 C219 1.477 . S
C218 H238 0.931 . S
C219 C215 1.460 . S
C219 C218 1.477 . S
C219 H239 0.930 . S
C220 N216 1.362 . S
C220 C217 1.431 . S
C220 C230 1.476 . S
H221 C215 0.929 . S
C222 O213 1.250 1_556 S
C222 O214 1.258 . S
O223 Mn208 2.162 . S
O223 C211 1.281 . S
O224 Mn208 2.297 . S
O224 C211 1.236 . S
N225 Mn209 2.282 . S
N225 C226 1.328 . S
N225 C230 1.318 . S
C226 N225 1.328 . S
C226 C227 1.457 . S
C226 H231 0.929 . S
C227 C226 1.457 . S
C227 C228 1.291 . S
C227 H240 0.931 . S
C228 C227 1.291 . S
C228 C229 1.373 . S
C228 H241 0.929 . S
C229 C228 1.373 . S
C229 C230 1.396 . S
C229 C236 1.403 . S
C230 C220 1.476 . S
C230 N225 1.318 . S
C230 C229 1.396 . S
H231 C226 0.929 . S
O232 Mn208 2.385 1_556 S
O232 C210 1.234 . S
O233 Mn208 2.209 1_556 S
O233 Mn209 2.215 . S
O233 C210 1.283 . S
O234 Mn208 2.094 . S
O234 C212 1.240 1_554 S
O235 Mn209 2.117 . S
O235 C212 1.264 . S
C236 C229 1.403 . S
C236 C237 1.399 . S
C236 H242 0.929 . S
C237 C217 1.449 . S
C237 C236 1.399 . S
C237 H243 0.930 . S
H238 C218 0.931 . S
H239 C219 0.930 . S
H240 C227 0.931 . S
H241 C228 0.929 . S
H242 C236 0.929 . S
H243 C237 0.930 . S
Mn244 O249 2.095 . S
Mn244 O259 2.162 . S
Mn244 O260 2.297 . S
Mn244 O268 2.385 . S
Mn244 O269 2.209 . S
Mn244 O270 2.094 . S
Mn245 O250 2.121 . S
Mn245 N252 2.257 . S
Mn245 N261 2.282 . S
Mn245 O269 2.215 . S
Mn245 O271 2.117 . S
C246 O268 1.234 . S
C246 O269 1.283 . S
C247 O259 1.281 . S
C247 O260 1.236 . S
C248 O270 1.240 . S
C248 O271 1.264 . S
O249 Mn244 2.095 . S
O249 C258 1.250 . S
O250 Mn245 2.121 . S
O250 C258 1.258 . S
C251 N252 1.326 . S
C251 C255 1.460 . S
C251 H257 0.929 . S
N252 Mn245 2.257 . S
N252 C251 1.326 . S
N252 C256 1.362 . S
C253 C254 1.258 . S
C253 C256 1.431 . S
C253 C273 1.449 . S
C254 C253 1.258 . S
C254 C255 1.477 . S
C254 H274 0.931 . S
C255 C251 1.460 . S
C255 C254 1.477 . S
C255 H275 0.930 . S
C256 N252 1.362 . S
C256 C253 1.431 . S
C256 C266 1.476 . S
H257 C251 0.929 . S
C258 O249 1.250 . S
C258 O250 1.258 . S
O259 Mn244 2.162 . S
O259 C247 1.281 . S
O260 Mn244 2.297 . S
O260 C247 1.236 . S
N261 Mn245 2.282 . S
N261 C262 1.328 . S
N261 C266 1.318 . S
C262 N261 1.328 . S
C262 C263 1.457 . S
C262 H267 0.929 . S
C263 C262 1.457 . S
C263 C264 1.291 . S
C263 H276 0.931 . S
C264 C263 1.291 . S
C264 C265 1.373 . S
C264 H277 0.929 . S
C265 C264 1.373 . S
C265 C266 1.396 . S
C265 C272 1.403 . S
C266 C256 1.476 . S
C266 N261 1.318 . S
C266 C265 1.396 . S
H267 C262 0.929 . S
O268 Mn244 2.385 . S
O268 C246 1.234 . S
O269 Mn244 2.209 . S
O269 Mn245 2.215 . S
O269 C246 1.283 . S
O270 Mn244 2.094 . S
O270 C248 1.240 . S
O271 Mn245 2.117 . S
O271 C248 1.264 . S
C272 C265 1.403 . S
C272 C273 1.399 . S
C272 H278 0.929 . S
C273 C253 1.449 . S
C273 C272 1.399 . S
C273 H279 0.930 . S
H274 C254 0.931 . S
H275 C255 0.930 . S
H276 C263 0.931 . S
H277 C264 0.929 . S
H278 C272 0.929 . S
H279 C273 0.930 . S
Mn280 O285 2.104 . S
Mn280 O295 2.162 . S
Mn280 O296 2.297 . S
Mn280 O304 2.385 . S
Mn280 O305 2.209 1_554 S
Mn280 O306 2.094 . S
Mn281 O286 2.121 . S
Mn281 N288 2.257 . S
Mn281 N297 2.282 1_556 S
Mn281 O305 2.215 . S
Mn281 O307 2.117 1_556 S
C282 O304 1.234 . S
C282 O305 1.283 1_554 S
C283 O295 1.281 . S
C283 O296 1.236 . S
C284 O306 1.240 . S
C284 O307 1.264 . S
O285 Mn280 2.104 . S
O285 C294 1.234 1_554 S
O286 Mn281 2.121 . S
O286 C294 1.258 . S
C287 N288 1.326 . S
C287 C291 1.460 . S
C287 H293 0.929 . S
N288 Mn281 2.257 . S
N288 C287 1.326 . S
N288 C292 1.362 . S
C289 C290 1.258 . S
C289 C292 1.431 . S
C289 C309 1.449 . S
C290 C289 1.258 . S
C290 C291 1.477 . S
C290 H310 0.931 . S
C291 C287 1.460 . S
C291 C290 1.477 . S
C291 H311 0.930 . S
C292 N288 1.362 . S
C292 C289 1.431 . S
C292 C302 1.476 . S
H293 C287 0.929 . S
C294 O285 1.234 1_556 S
C294 O286 1.258 . S
O295 Mn280 2.162 . S
O295 C283 1.281 . S
O296 Mn280 2.297 . S
O296 C283 1.236 . S
N297 Mn281 2.282 1_554 S
N297 C298 1.328 . S
N297 C302 1.318 1_554 S
C298 N297 1.328 . S
C298 C299 1.457 . S
C298 H303 0.929 . S
C299 C298 1.457 . S
C299 C300 1.291 . S
C299 H312 0.931 . S
C300 C299 1.291 . S
C300 C301 1.373 1_554 S
C300 H313 0.929 . S
C301 C300 1.373 1_556 S
C301 C302 1.396 . S
C301 C308 1.403 . S
C302 C292 1.476 . S
C302 N297 1.318 1_556 S
C302 C301 1.396 . S
H303 C298 0.929 . S
O304 Mn280 2.385 . S
O304 C282 1.234 . S
O305 Mn280 2.209 1_556 S
O305 Mn281 2.215 . S
O305 C282 1.283 1_556 S
O306 Mn280 2.094 . S
O306 C284 1.240 . S
O307 Mn281 2.117 1_554 S
O307 C284 1.264 . S
C308 C301 1.403 . S
C308 C309 1.399 . S
C308 H314 0.929 . S
C309 C289 1.449 . S
C309 C308 1.399 . S
C309 H315 0.930 . S
H310 C290 0.931 . S
H311 C291 0.930 . S
H312 C299 0.931 . S
H313 C300 0.929 . S
H314 C308 0.929 . S
H315 C309 0.930 . S
Mn316 O321 2.095 . S
Mn316 O331 2.162 . S
Mn316 O332 2.297 . S
Mn316 O340 2.385 1_545 S
Mn316 O341 2.209 1_545 S
Mn316 O342 2.094 . S
Mn317 O322 2.121 . S
Mn317 N324 2.257 . S
Mn317 N333 2.282 . S
Mn317 O341 2.215 . S
Mn317 O343 2.117 . S
C318 O340 1.234 . S
C318 O341 1.283 . S
C319 O331 1.281 . S
C319 O332 1.236 . S
C320 O342 1.240 . S
C320 O343 1.264 1_545 S
O321 Mn316 2.095 . S
O321 C330 1.250 . S
O322 Mn317 2.121 . S
O322 C330 1.258 1_565 S
C323 N324 1.326 . S
C323 C327 1.460 . S
C323 H329 0.929 . S
N324 Mn317 2.257 . S
N324 C323 1.326 . S
N324 C328 1.362 . S
C325 C326 1.258 . S
C325 C328 1.431 . S
C325 C345 1.449 . S
C326 C325 1.258 . S
C326 C327 1.477 . S
C326 H346 0.931 . S
C327 C323 1.460 . S
C327 C326 1.477 . S
C327 H347 0.930 . S
C328 N324 1.362 . S
C328 C325 1.431 . S
C328 C338 1.476 . S
H329 C323 0.929 . S
C330 O321 1.250 . S
C330 O322 1.258 1_545 S
O331 Mn316 2.162 . S
O331 C319 1.281 . S
O332 Mn316 2.297 . S
O332 C319 1.236 . S
N333 Mn317 2.282 . S
N333 C334 1.328 . S
N333 C338 1.318 . S
C334 N333 1.328 . S
C334 C335 1.457 . S
C334 H339 0.929 . S
C335 C334 1.457 . S
C335 C336 1.291 . S
C335 H348 0.931 . S
C336 C335 1.291 . S
C336 C337 1.373 . S
C336 H349 0.929 . S
C337 C336 1.373 . S
C337 C338 1.396 . S
C337 C344 1.403 . S
C338 C328 1.476 . S
C338 N333 1.318 . S
C338 C337 1.396 . S
H339 C334 0.929 . S
O340 Mn316 2.385 1_565 S
O340 C318 1.234 . S
O341 Mn316 2.209 1_565 S
O341 Mn317 2.215 . S
O341 C318 1.283 . S
O342 Mn316 2.094 . S
O342 C320 1.240 . S
O343 Mn317 2.117 . S
O343 C320 1.264 1_565 S
C344 C337 1.403 . S
C344 C345 1.399 . S
C344 H350 0.929 . S
C345 C325 1.449 . S
C345 C344 1.399 . S
C345 H351 0.930 . S
H346 C326 0.931 . S
H347 C327 0.930 . S
H348 C335 0.931 . S
H349 C336 0.929 . S
H350 C344 0.929 . S
H351 C345 0.930 . S
Mn352 O357 2.095 . S
Mn352 O367 2.162 . S
Mn352 O368 2.297 . S
Mn352 O376 2.385 . S
Mn352 O377 2.209 . S
Mn352 O378 2.094 . S
Mn353 O358 2.121 . S
Mn353 N360 2.257 . S
Mn353 N369 2.282 . S
Mn353 O377 2.215 . S
Mn353 O379 2.117 . S
C354 O376 1.234 . S
C354 O377 1.283 . S
C355 O367 1.281 . S
C355 O368 1.236 . S
C356 O378 1.240 . S
C356 O379 1.264 . S
O357 Mn352 2.095 . S
O357 C366 1.250 . S
O358 Mn353 2.121 . S
O358 C366 1.258 . S
C359 N360 1.326 . S
C359 C363 1.460 . S
C359 H365 0.929 . S
N360 Mn353 2.257 . S
N360 C359 1.326 . S
N360 C364 1.362 . S
C361 C362 1.258 . S
C361 C364 1.431 . S
C361 C381 1.449 1_455 S
C362 C361 1.258 . S
C362 C363 1.477 . S
C362 H382 0.931 . S
C363 C359 1.460 . S
C363 C362 1.477 . S
C363 H383 0.930 . S
C364 N360 1.362 . S
C364 C361 1.431 . S
C364 C374 1.476 . S
H365 C359 0.929 . S
C366 O357 1.250 . S
C366 O358 1.258 . S
O367 Mn352 2.162 . S
O367 C355 1.281 . S
O368 Mn352 2.297 . S
O368 C355 1.236 . S
N369 Mn353 2.282 . S
N369 C370 1.328 . S
N369 C374 1.318 . S
C370 N369 1.328 . S
C370 C371 1.457 . S
C370 H375 0.929 . S
C371 C370 1.457 . S
C371 C372 1.291 1_455 S
C371 H384 0.931 . S
C372 C371 1.291 1_655 S
C372 C373 1.373 . S
C372 H385 0.929 . S
C373 C372 1.373 . S
C373 C374 1.396 1_655 S
C373 C380 1.403 . S
C374 C364 1.476 . S
C374 N369 1.318 . S
C374 C373 1.396 1_455 S
H375 C370 0.929 . S
O376 Mn352 2.385 . S
O376 C354 1.234 . S
O377 Mn352 2.209 . S
O377 Mn353 2.215 . S
O377 C354 1.283 . S
O378 Mn352 2.094 . S
O378 C356 1.240 . S
O379 Mn353 2.117 . S
O379 C356 1.264 . S
C380 C373 1.403 . S
C380 C381 1.399 . S
C380 H386 0.929 . S
C381 C361 1.449 1_655 S
C381 C380 1.399 . S
C381 H387 0.930 . S
H382 C362 0.931 . S
H383 C363 0.930 . S
H384 C371 0.931 . S
H385 C372 0.929 . S
H386 C380 0.929 . S
H387 C381 0.930 . S
Mn388 O393 2.095 . S
Mn388 O403 2.162 . S
Mn388 O404 2.297 . S
Mn388 O412 2.385 . S
Mn388 O413 2.209 . S
Mn388 O414 2.094 . S
Mn389 O394 2.121 . S
Mn389 N396 2.257 . S
Mn389 N405 2.282 . S
Mn389 O413 2.215 . S
Mn389 O415 2.117 . S
C390 O412 1.234 . S
C390 O413 1.283 . S
C391 O403 1.281 . S
C391 O404 1.236 . S
C392 O414 1.240 . S
C392 O415 1.264 . S
O393 Mn388 2.095 . S
O393 C402 1.250 . S
O394 Mn389 2.121 . S
O394 C402 1.258 . S
C395 N396 1.326 . S
C395 C399 1.460 . S
C395 H401 0.929 . S
N396 Mn389 2.257 . S
N396 C395 1.326 . S
N396 C400 1.362 . S
C397 C398 1.258 . S
C397 C400 1.431 . S
C397 C417 1.449 . S
C398 C397 1.258 . S
C398 C399 1.477 . S
C398 H418 0.931 . S
C399 C395 1.460 . S
C399 C398 1.477 . S
C399 H419 0.930 . S
C400 N396 1.362 . S
C400 C397 1.431 . S
C400 C410 1.476 . S
H401 C395 0.929 . S
C402 O393 1.250 . S
C402 O394 1.258 . S
O403 Mn388 2.162 . S
O403 C391 1.281 . S
O404 Mn388 2.297 . S
O404 C391 1.236 . S
N405 Mn389 2.282 . S
N405 C406 1.328 . S
N405 C410 1.318 . S
C406 N405 1.328 . S
C406 C407 1.457 . S
C406 H411 0.929 . S
C407 C406 1.457 . S
C407 C408 1.291 . S
C407 H420 0.931 . S
C408 C407 1.291 . S
C408 C409 1.373 . S
C408 H421 0.929 . S
C409 C408 1.373 . S
C409 C410 1.396 . S
C409 C416 1.403 . S
C410 C400 1.476 . S
C410 N405 1.318 . S
C410 C409 1.396 . S
H411 C406 0.929 . S
O412 Mn388 2.385 . S
O412 C390 1.234 . S
O413 Mn388 2.209 . S
O413 Mn389 2.215 . S
O413 C390 1.283 . S
O414 Mn388 2.094 . S
O414 C392 1.240 . S
O415 Mn389 2.117 . S
O415 C392 1.264 . S
C416 C409 1.403 . S
C416 C417 1.399 . S
C416 H422 0.929 . S
C417 C397 1.449 . S
C417 C416 1.399 . S
C417 H423 0.930 . S
H418 C398 0.931 . S
H419 C399 0.930 . S
H420 C407 0.931 . S
H421 C408 0.929 . S
H422 C416 0.929 . S
H423 C417 0.930 . S
Mn424 O429 2.095 . S
Mn424 O439 2.162 . S
Mn424 O440 2.297 . S
Mn424 O448 2.385 . S
Mn424 O449 2.209 . S
Mn424 O450 2.094 . S
Mn425 O430 2.121 . S
Mn425 N432 2.257 . S
Mn425 N441 2.282 . S
Mn425 O449 2.215 . S
Mn425 O451 2.117 . S
C426 O448 1.234 . S
C426 O449 1.283 . S
C427 O439 1.281 . S
C427 O440 1.236 . S
C428 O450 1.240 . S
C428 O451 1.264 . S
O429 Mn424 2.095 . S
O429 C438 1.250 . S
O430 Mn425 2.121 . S
O430 C438 1.258 . S
C431 N432 1.326 . S
C431 C435 1.460 . S
C431 H437 0.929 . S
N432 Mn425 2.257 . S
N432 C431 1.326 . S
N432 C436 1.362 . S
C433 C434 1.258 . S
C433 C436 1.431 . S
C433 C453 1.449 . S
C434 C433 1.258 . S
C434 C435 1.477 . S
C434 H454 0.931 . S
C435 C431 1.460 . S
C435 C434 1.477 . S
C435 H455 0.930 . S
C436 N432 1.362 . S
C436 C433 1.431 . S
C436 C446 1.476 . S
H437 C431 0.929 . S
C438 O429 1.250 . S
C438 O430 1.258 . S
O439 Mn424 2.162 . S
O439 C427 1.281 . S
O440 Mn424 2.297 . S
O440 C427 1.236 . S
N441 Mn425 2.282 . S
N441 C442 1.328 . S
N441 C446 1.318 . S
C442 N441 1.328 . S
C442 C443 1.457 . S
C442 H447 0.929 . S
C443 C442 1.457 . S
C443 C444 1.291 . S
C443 H456 0.931 . S
C444 C443 1.291 . S
C444 C445 1.373 . S
C444 H457 0.929 . S
C445 C444 1.373 . S
C445 C446 1.396 . S
C445 C452 1.403 . S
C446 C436 1.476 . S
C446 N441 1.318 . S
C446 C445 1.396 . S
H447 C442 0.929 . S
O448 Mn424 2.385 . S
O448 C426 1.234 . S
O449 Mn424 2.209 . S
O449 Mn425 2.215 . S
O449 C426 1.283 . S
O450 Mn424 2.094 . S
O450 C428 1.240 . S
O451 Mn425 2.117 . S
O451 C428 1.264 . S
C452 C445 1.403 . S
C452 C453 1.399 . S
C452 H458 0.929 . S
C453 C433 1.449 . S
C453 C452 1.399 . S
C453 H459 0.930 . S
H454 C434 0.931 . S
H455 C435 0.930 . S
H456 C443 0.931 . S
H457 C444 0.929 . S
H458 C452 0.929 . S
H459 C453 0.930 . S
Mn460 O465 2.095 . S
Mn460 O475 2.162 . S
Mn460 O476 2.297 . S
Mn460 O484 2.385 1_565 S
Mn460 O485 2.209 1_565 S
Mn460 O486 2.094 . S
Mn461 O466 2.121 . S
Mn461 N468 2.257 . S
Mn461 N477 2.282 . S
Mn461 O485 2.215 . S
Mn461 O487 2.117 . S
C462 O484 1.234 . S
C462 O485 1.283 . S
C463 O475 1.281 . S
C463 O476 1.236 . S
C464 O486 1.243 . S
C464 O487 1.261 1_565 S
O465 Mn460 2.095 . S
O465 C474 1.250 1_565 S
O466 Mn461 2.121 . S
O466 C474 1.258 . S
C467 N468 1.326 . S
C467 C471 1.460 . S
C467 H473 0.929 . S
N468 Mn461 2.257 . S
N468 C467 1.326 . S
N468 C472 1.362 . S
C469 C470 1.258 . S
C469 C472 1.431 . S
C469 C489 1.449 . S
C470 C469 1.258 . S
C470 C471 1.477 . S
C470 H490 0.931 . S
C471 C467 1.460 . S
C471 C470 1.477 . S
C471 H491 0.930 . S
C472 N468 1.362 . S
C472 C469 1.431 . S
C472 C482 1.476 . S
H473 C467 0.929 . S
C474 O465 1.250 1_545 S
C474 O466 1.258 . S
O475 Mn460 2.162 . S
O475 C463 1.281 . S
O476 Mn460 2.297 . S
O476 C463 1.236 . S
N477 Mn461 2.282 . S
N477 C478 1.328 . S
N477 C482 1.318 . S
C478 N477 1.328 . S
C478 C479 1.457 . S
C478 H483 0.929 . S
C479 C478 1.457 . S
C479 C480 1.291 . S
C479 H492 0.931 . S
C480 C479 1.291 . S
C480 C481 1.373 . S
C480 H493 0.929 . S
C481 C480 1.373 . S
C481 C482 1.396 . S
C481 C488 1.403 . S
C482 C472 1.476 . S
C482 N477 1.318 . S
C482 C481 1.396 . S
H483 C478 0.929 . S
O484 Mn460 2.385 1_545 S
O484 C462 1.234 . S
O485 Mn460 2.209 1_545 S
O485 Mn461 2.215 . S
O485 C462 1.283 . S
O486 Mn460 2.094 . S
O486 C464 1.243 . S
O487 Mn461 2.117 . S
O487 C464 1.261 1_545 S
C488 C481 1.403 . S
C488 C489 1.399 . S
C488 H494 0.929 . S
C489 C469 1.449 . S
C489 C488 1.399 . S
C489 H495 0.930 . S
H490 C470 0.931 . S
H491 C471 0.930 . S
H492 C479 0.931 . S
H493 C480 0.929 . S
H494 C488 0.929 . S
H495 C489 0.930 . S
Mn496 O501 2.095 . S
Mn496 O511 2.162 . S
Mn496 O512 2.297 . S
Mn496 O520 2.385 1_455 S
Mn496 O521 2.209 1_455 S
Mn496 O522 2.094 . S
Mn497 O502 2.121 . S
Mn497 N504 2.257 . S
Mn497 N513 2.282 . S
Mn497 O521 2.215 . S
Mn497 O523 2.117 . S
C498 O520 1.234 . S
C498 O521 1.283 . S
C499 O511 1.281 . S
C499 O512 1.236 . S
C500 O522 1.240 1_655 S
C500 O523 1.264 . S
O501 Mn496 2.095 . S
O501 C510 1.250 1_455 S
O502 Mn497 2.121 . S
O502 C510 1.258 . S
C503 N504 1.326 . S
C503 C507 1.460 . S
C503 H509 0.929 . S
N504 Mn497 2.257 . S
N504 C503 1.326 . S
N504 C508 1.362 . S
C505 C506 1.258 . S
C505 C508 1.431 . S
C505 C525 1.449 . S
C506 C505 1.258 . S
C506 C507 1.477 . S
C506 H526 0.931 . S
C507 C503 1.460 . S
C507 C506 1.477 . S
C507 H527 0.930 . S
C508 N504 1.362 . S
C508 C505 1.431 . S
C508 C518 1.476 . S
H509 C503 0.929 . S
C510 O501 1.250 1_655 S
C510 O502 1.258 . S
O511 Mn496 2.162 . S
O511 C499 1.281 . S
O512 Mn496 2.297 . S
O512 C499 1.236 . S
N513 Mn497 2.282 . S
N513 C514 1.328 . S
N513 C518 1.318 . S
C514 N513 1.328 . S
C514 C515 1.457 . S
C514 H519 0.929 . S
C515 C514 1.457 . S
C515 C516 1.291 . S
C515 H528 0.931 . S
C516 C515 1.291 . S
C516 C517 1.373 . S
C516 H529 0.929 . S
C517 C516 1.373 . S
C517 C518 1.396 . S
C517 C524 1.403 . S
C518 C508 1.476 . S
C518 N513 1.318 . S
C518 C517 1.396 . S
H519 C514 0.929 . S
O520 Mn496 2.385 1_655 S
O520 C498 1.234 . S
O521 Mn496 2.209 1_655 S
O521 Mn497 2.215 . S
O521 C498 1.283 . S
O522 Mn496 2.094 . S
O522 C500 1.240 1_455 S
O523 Mn497 2.117 . S
O523 C500 1.264 . S
C524 C517 1.403 . S
C524 C525 1.399 . S
C524 H530 0.929 . S
C525 C505 1.449 . S
C525 C524 1.399 . S
C525 H531 0.930 . S
H526 C506 0.931 . S
H527 C507 0.930 . S
H528 C515 0.931 . S
H529 C516 0.929 . S
H530 C524 0.929 . S
H531 C525 0.930 . S
Mn532 O537 2.095 . S
Mn532 O547 2.162 . S
Mn532 O548 2.297 . S
Mn532 O556 2.385 . S
Mn532 O557 2.209 . S
Mn532 O558 2.094 . S
Mn533 O538 2.121 . S
Mn533 N540 2.257 . S
Mn533 N549 2.282 . S
Mn533 O557 2.215 . S
Mn533 O559 2.117 . S
C534 O556 1.234 . S
C534 O557 1.283 . S
C535 O547 1.281 . S
C535 O548 1.236 . S
C536 O558 1.240 . S
C536 O559 1.264 . S
O537 Mn532 2.095 . S
O537 C546 1.250 . S
O538 Mn533 2.121 . S
O538 C546 1.258 . S
C539 N540 1.326 . S
C539 C543 1.460 . S
C539 H545 0.929 . S
N540 Mn533 2.257 . S
N540 C539 1.326 . S
N540 C544 1.362 . S
C541 C542 1.258 . S
C541 C544 1.431 . S
C541 C561 1.449 . S
C542 C541 1.258 . S
C542 C543 1.477 . S
C542 H562 0.931 . S
C543 C539 1.460 . S
C543 C542 1.477 . S
C543 H563 0.930 . S
C544 N540 1.362 . S
C544 C541 1.431 . S
C544 C554 1.476 . S
H545 C539 0.929 . S
C546 O537 1.250 . S
C546 O538 1.258 . S
O547 Mn532 2.162 . S
O547 C535 1.281 . S
O548 Mn532 2.297 . S
O548 C535 1.236 . S
N549 Mn533 2.282 . S
N549 C550 1.328 . S
N549 C554 1.318 . S
C550 N549 1.328 . S
C550 C551 1.457 . S
C550 H555 0.929 . S
C551 C550 1.457 . S
C551 C552 1.291 . S
C551 H564 0.931 . S
C552 C551 1.291 . S
C552 C553 1.373 . S
C552 H565 0.929 . S
C553 C552 1.373 . S
C553 C554 1.396 . S
C553 C560 1.403 . S
C554 C544 1.476 . S
C554 N549 1.318 . S
C554 C553 1.396 . S
H555 C550 0.929 . S
O556 Mn532 2.385 . S
O556 C534 1.234 . S
O557 Mn532 2.209 . S
O557 Mn533 2.215 . S
O557 C534 1.283 . S
O558 Mn532 2.094 . S
O558 C536 1.240 . S
O559 Mn533 2.117 . S
O559 C536 1.264 . S
C560 C553 1.403 . S
C560 C561 1.399 . S
C560 H566 0.929 . S
C561 C541 1.449 . S
C561 C560 1.399 . S
C561 H567 0.930 . S
H562 C542 0.931 . S
H563 C543 0.930 . S
H564 C551 0.931 . S
H565 C552 0.929 . S
H566 C560 0.929 . S
H567 C561 0.930 . S
Mn568 O573 2.095 . S
Mn568 O583 2.162 . S
Mn568 O584 2.297 1_455 S
Mn568 O592 2.385 . S
Mn568 O593 2.209 1_455 S
Mn568 O594 2.094 . S
Mn569 O574 2.121 . S
Mn569 N576 2.257 . S
Mn569 N585 2.282 1_655 S
Mn569 O593 2.215 . S
Mn569 O595 2.117 1_655 S
C570 O592 1.234 . S
C570 O593 1.283 1_455 S
C571 O583 1.281 . S
C571 O584 1.236 1_455 S
C572 O594 1.240 . S
C572 O595 1.264 . S
O573 Mn568 2.095 . S
O573 C582 1.250 1_455 S
O574 Mn569 2.121 . S
O574 C582 1.258 . S
C575 N576 1.326 . S
C575 C579 1.460 . S
C575 H581 0.929 . S
N576 Mn569 2.257 . S
N576 C575 1.326 . S
N576 C580 1.362 . S
C577 C578 1.258 . S
C577 C580 1.431 . S
C577 C597 1.449 . S
C578 C577 1.258 . S
C578 C579 1.477 . S
C578 H598 0.931 . S
C579 C575 1.460 . S
C579 C578 1.477 . S
C579 H599 0.930 . S
C580 N576 1.362 . S
C580 C577 1.431 . S
C580 C590 1.476 . S
H581 C575 0.929 . S
C582 O573 1.250 1_655 S
C582 O574 1.258 . S
O583 Mn568 2.162 . S
O583 C571 1.281 . S
O584 Mn568 2.297 1_655 S
O584 C571 1.236 1_655 S
N585 Mn569 2.282 1_455 S
N585 C586 1.328 . S
N585 C590 1.318 1_455 S
C586 N585 1.328 . S
C586 C587 1.457 . S
C586 H591 0.929 . S
C587 C586 1.457 . S
C587 C588 1.291 . S
C587 H600 0.931 . S
C588 C587 1.291 . S
C588 C589 1.373 1_455 S
C588 H601 0.929 . S
C589 C588 1.373 1_655 S
C589 C590 1.396 . S
C589 C596 1.403 . S
C590 C580 1.476 . S
C590 N585 1.318 1_655 S
C590 C589 1.396 . S
H591 C586 0.929 . S
O592 Mn568 2.385 . S
O592 C570 1.234 . S
O593 Mn568 2.209 1_655 S
O593 Mn569 2.215 . S
O593 C570 1.283 1_655 S
O594 Mn568 2.094 . S
O594 C572 1.240 . S
O595 Mn569 2.117 1_455 S
O595 C572 1.264 . S
C596 C589 1.403 . S
C596 C597 1.399 . S
C596 H602 0.929 . S
C597 C577 1.449 . S
C597 C596 1.399 . S
C597 H603 0.930 . S
H598 C578 0.931 . S
H599 C579 0.930 . S
H600 C587 0.931 . S
H601 C588 0.929 . S
H602 C596 0.929 . S
H603 C597 0.930 . S
Mn604 O609 2.095 . S
Mn604 O619 2.162 . S
Mn604 O620 2.297 . S
Mn604 O628 2.385 . S
Mn604 O629 2.209 . S
Mn604 O630 2.094 . S
Mn605 O610 2.121 . S
Mn605 N612 2.257 . S
Mn605 N621 2.282 . S
Mn605 O629 2.215 . S
Mn605 O631 2.117 . S
C606 O628 1.234 . S
C606 O629 1.283 . S
C607 O619 1.281 . S
C607 O620 1.236 . S
C608 O630 1.240 . S
C608 O631 1.264 . S
O609 Mn604 2.095 . S
O609 C618 1.250 . S
O610 Mn605 2.121 . S
O610 C618 1.258 . S
C611 N612 1.326 . S
C611 C615 1.460 . S
C611 H617 0.929 . S
N612 Mn605 2.257 . S
N612 C611 1.326 . S
N612 C616 1.362 . S
C613 C614 1.258 . S
C613 C616 1.431 1_565 S
C613 C633 1.449 . S
C614 C613 1.258 . S
C614 C615 1.477 1_565 S
C614 H634 0.931 . S
C615 C611 1.460 . S
C615 C614 1.477 1_545 S
C615 H635 0.930 . S
C616 N612 1.362 . S
C616 C613 1.431 1_545 S
C616 C626 1.476 . S
H617 C611 0.929 . S
C618 O609 1.250 . S
C618 O610 1.258 . S
O619 Mn604 2.162 . S
O619 C607 1.281 . S
O620 Mn604 2.297 . S
O620 C607 1.236 . S
N621 Mn605 2.282 . S
N621 C622 1.328 . S
N621 C626 1.318 . S
C622 N621 1.328 . S
C622 C623 1.457 . S
C622 H627 0.929 . S
C623 C622 1.457 . S
C623 C624 1.291 1_545 S
C623 H636 0.931 . S
C624 C623 1.291 1_565 S
C624 C625 1.373 . S
C624 H637 0.929 . S
C625 C624 1.373 . S
C625 C626 1.396 1_565 S
C625 C632 1.403 . S
C626 C616 1.476 . S
C626 N621 1.318 . S
C626 C625 1.396 1_545 S
H627 C622 0.929 . S
O628 Mn604 2.385 . S
O628 C606 1.234 . S
O629 Mn604 2.209 . S
O629 Mn605 2.215 . S
O629 C606 1.283 . S
O630 Mn604 2.094 . S
O630 C608 1.240 . S
O631 Mn605 2.117 . S
O631 C608 1.264 . S
C632 C625 1.403 . S
C632 C633 1.399 . S
C632 H638 0.929 . S
C633 C613 1.449 . S
C633 C632 1.399 . S
C633 H639 0.930 . S
H634 C614 0.931 . S
H635 C615 0.930 . S
H636 C623 0.931 . S
H637 C624 0.929 . S
H638 C632 0.929 . S
H639 C633 0.930 . S
C210 C73 1.708 . S
C258 C82 1.171 . S
C100 C294 1.801 . S
C330 C56 1.489 1_545 S
C356 C134 1.655 . S
C392 C165 1.760 . S
C147 C427 1.325 . S
C464 C125 1.970 1_565 S
C151 C498 1.440 . S
C546 C121 1.597 . S
C139 C499 1.778 . S
C536 C164 1.473 . S
C95 C582 1.242 . S
C61 C571 1.590 . S
C74 C572 1.642 . S
C86 C570 1.959 1_655 S
C47 C318 1.521 . S
C186 C319 1.198 . S
C222 C204 1.861 1_566 S
C247 C112 1.952 . S
C60 C354 1.534 . S
C462 C152 1.485 . S
C355 C126 1.980 . S
C428 C160 1.771 . S
C426 C190 1.708 . S
C199 C474 1.171 . S
C113 C366 1.801 . S
C402 C173 1.489 . S
C43 C284 1.655 . S
C320 C9 1.760 . S
C211 C17 1.325 . S
C248 C34 1.970 . S
C21 C534 1.440 . S
C30 C510 1.597 . S
C48 C535 1.778 . S
C8 C500 1.472 1_455 S
C618 C108 1.242 . S
C607 C178 1.590 . S
C608 C191 1.642 . S
C203 C606 1.959 . S
C138 C390 1.521 . S
C391 C69 1.198 . S
C438 C87 1.861 . S
C463 C99 1.952 . S
C177 C282 1.534 . S
C246 C22 1.485 . S
C35 C283 1.980 . S
C212 C4 1.771 1_556 S
