# Generated by pormake.
# Topology apo, (3,6)-cn, num edge types: 1
# Building blocks:
#     Node 0, Type 0, BuildingBlock: VETTIZ_charged_linker_0, # of connection points: 3
#     Node 1, Type 0, BuildingBlock: VETTIZ_charged_linker_0, # of connection points: 3
#     Node 2, Type 0, BuildingBlock: VETTIZ_charged_linker_0, # of connection points: 3
#     Node 3, Type 0, BuildingBlock: VETTIZ_charged_linker_0, # of connection points: 3
#     Node 4, Type 0, BuildingBlock: VETTIZ_charged_linker_0, # of connection points: 3
#     Node 5, Type 0, BuildingBlock: VETTIZ_charged_linker_0, # of connection points: 3
#     Node 6, Type 0, BuildingBlock: VETTIZ_charged_linker_0, # of connection points: 3
#     Node 7, Type 0, BuildingBlock: VETTIZ_charged_linker_0, # of connection points: 3
#     Node 8, Type 1, BuildingBlock: KUMBUR_clean_sbu_1, # of connection points: 6
#     Node 9, Type 1, BuildingBlock: KUMBUR_clean_sbu_1, # of connection points: 6
#     Node 10, Type 1, BuildingBlock: KUMBUR_clean_sbu_1, # of connection points: 6
#     Node 11, Type 1, BuildingBlock: KUMBUR_clean_sbu_1, # of connection points: 6
#     Edge 12, Type (0, 1), BuildingBlock: CIFDUS_clean_linker_0, # of connection points: 2
#     Edge 13, Type (0, 1), BuildingBlock: CIFDUS_clean_linker_0, # of connection points: 2
#     Edge 14, Type (0, 1), BuildingBlock: CIFDUS_clean_linker_0, # of connection points: 2
#     Edge 15, Type (0, 1), BuildingBlock: CIFDUS_clean_linker_0, # of connection points: 2
#     Edge 16, Type (0, 1), BuildingBlock: CIFDUS_clean_linker_0, # of connection points: 2
#     Edge 17, Type (0, 1), BuildingBlock: CIFDUS_clean_linker_0, # of connection points: 2
#     Edge 18, Type (0, 1), BuildingBlock: CIFDUS_clean_linker_0, # of connection points: 2
#     Edge 19, Type (0, 1), BuildingBlock: CIFDUS_clean_linker_0, # of connection points: 2
#     Edge 20, Type (0, 1), BuildingBlock: CIFDUS_clean_linker_0, # of connection points: 2
#     Edge 21, Type (0, 1), BuildingBlock: CIFDUS_clean_linker_0, # of connection points: 2
#     Edge 22, Type (0, 1), BuildingBlock: CIFDUS_clean_linker_0, # of connection points: 2
#     Edge 23, Type (0, 1), BuildingBlock: CIFDUS_clean_linker_0, # of connection points: 2
#     Edge 24, Type (0, 1), BuildingBlock: CIFDUS_clean_linker_0, # of connection points: 2
#     Edge 25, Type (0, 1), BuildingBlock: CIFDUS_clean_linker_0, # of connection points: 2
#     Edge 26, Type (0, 1), BuildingBlock: CIFDUS_clean_linker_0, # of connection points: 2
#     Edge 27, Type (0, 1), BuildingBlock: CIFDUS_clean_linker_0, # of connection points: 2
#     Edge 28, Type (0, 1), BuildingBlock: CIFDUS_clean_linker_0, # of connection points: 2
#     Edge 29, Type (0, 1), BuildingBlock: CIFDUS_clean_linker_0, # of connection points: 2
#     Edge 30, Type (0, 1), BuildingBlock: CIFDUS_clean_linker_0, # of connection points: 2
#     Edge 31, Type (0, 1), BuildingBlock: CIFDUS_clean_linker_0, # of connection points: 2
#     Edge 32, Type (0, 1), BuildingBlock: CIFDUS_clean_linker_0, # of connection points: 2
#     Edge 33, Type (0, 1), BuildingBlock: CIFDUS_clean_linker_0, # of connection points: 2
#     Edge 34, Type (0, 1), BuildingBlock: CIFDUS_clean_linker_0, # of connection points: 2
#     Edge 35, Type (0, 1), BuildingBlock: CIFDUS_clean_linker_0, # of connection points: 2
# Relax obj value: 0.009
# Max RMSD: 0.102
# Mean RMSD: 0.080
data_MOF--net-apo--node1-KUMBUR_clean_sbu_1--node2-VETTIZ_charged_linker_0--edge1-CIFDUS_clean_linker_0
_symmetry_space_group_name_H-M    P1
_symmetry_Int_Tables_number       1
_symmetry_cell_setting            triclinic
loop_
_symmetry_equiv_pos_as_xyz
'x, y, z'
_cell_length_a     26.05898
_cell_length_b     46.622395
_cell_length_c     57.200453
_cell_angle_alpha  89.872975
_cell_angle_beta   89.993656
_cell_angle_gamma 90.909923
loop_
_atom_site_label
_atom_site_type_symbol
_atom_site_fract_x
_atom_site_fract_y
_atom_site_fract_z
_atom_type_partial_charge
C0 C 0.27576 0.36646 0.50205 0.0
C1 C 0.30406 0.38567 0.51627 0.0
C2 C 0.33262 0.40794 0.50531 0.0
C3 C 0.3031 0.39231 0.4671 0.0
C4 C 0.27604 0.37009 0.47767 0.0
C5 C 0.24865 0.35131 0.4601 0.0
H6 H 0.1793 0.32664 0.34749 0.0
C7 C 0.29455 0.39045 0.44153 0.0
C8 C 0.26273 0.36634 0.43734 0.0
H9 H 0.14434 0.27404 0.40776 0.0
H10 H 0.19255 0.30691 0.43262 0.0
H11 H 0.16728 0.38947 0.37257 0.0
H12 H 0.29325 0.33375 0.35876 0.0
H13 H 0.31945 0.36856 0.35729 0.0
H14 H 0.2698 0.35784 0.33692 0.0
H15 H 0.19182 0.38238 0.34386 0.0
H16 H 0.21838 0.41073 0.3617 0.0
C17 C 0.19036 0.35241 0.46511 0.0
C18 C 0.27137 0.32083 0.46153 0.0
C19 C 0.37372 0.46544 0.38652 0.0
C20 C 0.37281 0.46835 0.36205 0.0
C21 C 0.34433 0.44858 0.3486 0.0
C22 C 0.31694 0.42607 0.35928 0.0
C23 C 0.3184 0.42308 0.38373 0.0
C24 C 0.34653 0.44249 0.39698 0.0
C25 C 0.34481 0.43512 0.42266 0.0
C26 C 0.31111 0.40814 0.42256 0.0
C27 C 0.29557 0.40142 0.3997 0.0
C28 C 0.31899 0.46015 0.43566 0.0
C29 C 0.40018 0.4289 0.4309 0.0
C30 C 0.18159 0.32247 0.3661 0.0
C31 C 0.15755 0.29812 0.37585 0.0
C32 C 0.16248 0.29283 0.4 0.0
C33 C 0.19044 0.31191 0.41432 0.0
C34 C 0.21437 0.33629 0.40431 0.0
C35 C 0.21017 0.34095 0.38051 0.0
C36 C 0.24076 0.36671 0.3725 0.0
C37 C 0.26326 0.37719 0.39547 0.0
C38 C 0.24729 0.35954 0.41412 0.0
C39 C 0.20297 0.38855 0.36193 0.0
C40 C 0.28285 0.35644 0.35536 0.0
H41 H 0.35451 0.42883 0.4738 0.0
H42 H 0.25307 0.34919 0.50967 0.0
H43 H 0.31255 0.32172 0.46666 0.0
H44 H 0.27096 0.30967 0.4445 0.0
H45 H 0.25068 0.3074 0.47466 0.0
H46 H 0.17865 0.3748 0.46879 0.0
H47 H 0.18004 0.33906 0.48057 0.0
H48 H 0.16663 0.34533 0.45018 0.0
H49 H 0.39589 0.4803 0.39716 0.0
H50 H 0.34341 0.45057 0.32972 0.0
H51 H 0.29593 0.41179 0.34802 0.0
H52 H 0.28586 0.46825 0.42545 0.0
H53 H 0.34643 0.47835 0.43822 0.0
H54 H 0.3029 0.4538 0.45277 0.0
H55 H 0.42266 0.4186 0.41676 0.0
H56 H 0.40138 0.41355 0.44563 0.0
H57 H 0.4208 0.44898 0.43595 0.0
H58 H 0.35585 0.42269 0.51556 0.0
C59 C 0.33213 0.4114 0.48094 0.0
C60 C 0.33577 0.19108 0.87274 0.0
C61 C 0.35145 0.2172 0.88266 0.0
C62 C 0.33825 0.22298 0.90609 0.0
C63 C 0.29554 0.17621 0.90927 0.0
C64 C 0.30773 0.17126 0.88611 0.0
C65 C 0.28677 0.14325 0.87732 0.0
H66 H 0.15583 0.01938 0.8945 0.0
C67 C 0.26576 0.15079 0.91789 0.0
C68 C 0.26023 0.13175 0.899 0.0
H69 H 0.22802 0.05157 0.83137 0.0
H70 H 0.25544 0.09409 0.85137 0.0
H71 H 0.24852 0.0393 0.92924 0.0
H72 H 0.10715 0.08016 0.91048 0.0
H73 H 0.11663 0.08509 0.94063 0.0
H74 H 0.10873 0.04924 0.92921 0.0
H75 H 0.18708 0.02625 0.93915 0.0
H76 H 0.22207 0.05381 0.95477 0.0
C77 C 0.33284 0.12451 0.87007 0.0
C78 C 0.24806 0.14967 0.85737 0.0
C79 C 0.21275 0.1415 1.00372 0.0
C80 C 0.18507 0.1202 0.01623 0.0
C81 C 0.16559 0.0962 1.00391 0.0
C82 C 0.17397 0.09316 0.97984 0.0
C83 C 0.20217 0.11432 0.96767 0.0
C84 C 0.22051 0.13823 0.9795 0.0
C85 C 0.24807 0.15898 0.96332 0.0
C86 C 0.24487 0.14307 0.94013 0.0
C87 C 0.21789 0.11681 0.94284 0.0
C88 C 0.30406 0.16267 0.97183 0.0
C89 C 0.21778 0.18724 0.96269 0.0
C90 C 0.1773 0.03576 0.88506 0.0
C91 C 0.1902 0.03192 0.86131 0.0
C92 C 0.21838 0.05368 0.8497 0.0
C93 C 0.23404 0.07857 0.86137 0.0
C94 C 0.22156 0.08206 0.88507 0.0
C95 C 0.19364 0.06095 0.8966 0.0
C96 C 0.18491 0.06861 0.92193 0.0
C97 C 0.21179 0.09786 0.92347 0.0
C98 C 0.23303 0.10541 0.90177 0.0
C99 C 0.21159 0.04583 0.93725 0.0
C100 C 0.12636 0.07074 0.92601 0.0
H101 H 0.30218 0.20785 0.93735 0.0
H102 H 0.34441 0.18633 0.85463 0.0
H103 H 0.22982 0.17088 0.85981 0.0
H104 H 0.21541 0.13424 0.85689 0.0
H105 H 0.2673 0.15002 0.84005 0.0
H106 H 0.36648 0.12855 0.88166 0.0
H107 H 0.34512 0.12929 0.85186 0.0
H108 H 0.32484 0.10127 0.87177 0.0
H109 H 0.22766 0.16038 1.01256 0.0
H110 H 0.14467 0.07933 1.01304 0.0
H111 H 0.1584 0.07427 0.97166 0.0
H112 H 0.32074 0.14144 0.97597 0.0
H113 H 0.30591 0.17597 0.98791 0.0
H114 H 0.32948 0.17252 0.95856 0.0
H115 H 0.17573 0.18284 0.96363 0.0
H116 H 0.22348 0.19932 0.94625 0.0
H117 H 0.2283 0.20125 0.97768 0.0
H118 H 0.34982 0.24314 0.91402 0.0
C119 C 0.31069 0.2025 0.91953 0.0
C120 C 0.84848 0.16586 0.54316 0.0
C121 C 0.87719 0.14704 0.52938 0.0
C122 C 0.89377 0.12108 0.53926 0.0
C123 C 0.85549 0.1337 0.57659 0.0
C124 C 0.8376 0.15867 0.56652 0.0
C125 C 0.80624 0.17596 0.58334 0.0
H126 H 0.71932 0.19478 0.69388 0.0
C127 C 0.83929 0.13322 0.6015 0.0
C128 C 0.81002 0.15798 0.60542 0.0
H129 H 0.68429 0.24661 0.63332 0.0
H130 H 0.7374 0.21624 0.60925 0.0
H131 H 0.69789 0.13726 0.66937 0.0
H132 H 0.83513 0.1857 0.68351 0.0
H133 H 0.85243 0.14984 0.6873 0.0
H134 H 0.8026 0.16461 0.70536 0.0
H135 H 0.72842 0.13697 0.69745 0.0
H136 H 0.74409 0.11129 0.67506 0.0
C137 C 0.75049 0.17704 0.57404 0.0
C138 C 0.83236 0.20576 0.58627 0.0
C139 C 0.8989 0.05471 0.65817 0.0
C140 C 0.89151 0.05102 0.6825 0.0
C141 C 0.861 0.0707 0.6946 0.0
C142 C 0.83914 0.09386 0.68311 0.0
C143 C 0.84746 0.09773 0.65907 0.0
C144 C 0.87666 0.07839 0.64683 0.0
C145 C 0.88094 0.08666 0.62125 0.0
C146 C 0.8497 0.11413 0.62045 0.0
C147 C 0.83042 0.1202 0.64276 0.0
C148 C 0.85594 0.06246 0.6065 0.0
C149 C 0.93821 0.09239 0.61563 0.0
C150 C 0.72221 0.1996 0.67539 0.0
C151 C 0.69688 0.22311 0.66561 0.0
C152 C 0.7035 0.22877 0.64148 0.0
C153 C 0.73399 0.21093 0.62746 0.0
C154 C 0.75793 0.18705 0.63761 0.0
C155 C 0.75138 0.18185 0.6612 0.0
C156 C 0.77726 0.15517 0.66922 0.0
C157 C 0.8007 0.14492 0.64658 0.0
C158 C 0.78999 0.16367 0.62807 0.0
C159 C 0.73515 0.13402 0.67844 0.0
C160 C 0.81883 0.164 0.68741 0.0
H161 H 0.89746 0.09446 0.56943 0.0
H162 H 0.83479 0.18579 0.53586 0.0
H163 H 0.87458 0.20355 0.58832 0.0
H164 H 0.81934 0.21722 0.60197 0.0
H165 H 0.82546 0.21951 0.57074 0.0
H166 H 0.73978 0.15683 0.5648 0.0
H167 H 0.74578 0.19504 0.56151 0.0
H168 H 0.72185 0.1789 0.58817 0.0
H169 H 0.92208 0.03988 0.64836 0.0
H170 H 0.85362 0.06806 0.71313 0.0
H171 H 0.81669 0.1079 0.69361 0.0
H172 H 0.82098 0.05369 0.61531 0.0
H173 H 0.88284 0.04448 0.60398 0.0
H174 H 0.84265 0.06999 0.58926 0.0
H175 H 0.95666 0.10526 0.62977 0.0
H176 H 0.94414 0.1049 0.59947 0.0
H177 H 0.95925 0.07194 0.61411 0.0
H178 H 0.9159 0.10632 0.52888 0.0
C179 C 0.88327 0.11436 0.5628 0.0
C180 C 0.82105 0.31804 0.16716 0.0
C181 C 0.83789 0.29103 0.15986 0.0
C182 C 0.82781 0.28241 0.1366 0.0
C183 C 0.78544 0.32749 0.12874 0.0
C184 C 0.79579 0.33583 0.15143 0.0
C185 C 0.77758 0.36542 0.15669 0.0
H186 H 0.63929 0.4802 0.1269 0.0
C187 C 0.75807 0.35129 0.11716 0.0
C188 C 0.75383 0.37354 0.13348 0.0
H189 H 0.72392 0.46439 0.19068 0.0
H190 H 0.75632 0.42104 0.17471 0.0
H191 H 0.73374 0.46388 0.09382 0.0
H192 H 0.60174 0.41405 0.11585 0.0
H193 H 0.60973 0.41098 0.08527 0.0
H194 H 0.59849 0.44558 0.09781 0.0
H195 H 0.673 0.46694 0.07937 0.0
H196 H 0.7189 0.44023 0.07087 0.0
C197 C 0.82514 0.38459 0.16264 0.0
C198 C 0.73699 0.36292 0.17647 0.0
C199 C 0.69429 0.34105 0.03346 0.0
C200 C 0.66939 0.35984 0.01794 0.0
C201 C 0.6564 0.38739 0.02609 0.0
C202 C 0.66756 0.39591 0.04907 0.0
C203 C 0.69253 0.3769 0.06419 0.0
C204 C 0.706 0.3501 0.05623 0.0
C205 C 0.73488 0.33332 0.07435 0.0
C206 C 0.73633 0.35444 0.09451 0.0
C207 C 0.71084 0.37983 0.08854 0.0
C208 C 0.78925 0.32732 0.06477 0.0
C209 C 0.703 0.30601 0.08038 0.0
C210 C 0.66508 0.46745 0.13733 0.0
C211 C 0.67742 0.47532 0.16049 0.0
C212 C 0.71197 0.45834 0.17321 0.0
C213 C 0.73124 0.43317 0.1638 0.0
C214 C 0.71645 0.42472 0.14126 0.0
C215 C 0.68535 0.44214 0.12803 0.0
C216 C 0.67691 0.43022 0.10379 0.0
C217 C 0.70603 0.40217 0.10527 0.0
C218 C 0.72834 0.39911 0.1274 0.0
C219 C 0.70148 0.45136 0.0859 0.0
C220 C 0.61866 0.42498 0.10028 0.0
H221 H 0.79506 0.2927 0.10363 0.0
H222 H 0.82704 0.32535 0.18492 0.0
H223 H 0.71173 0.34373 0.17382 0.0
H224 H 0.71063 0.38116 0.17711 0.0
H225 H 0.75569 0.36072 0.19382 0.0
H226 H 0.86095 0.376 0.15491 0.0
H227 H 0.83112 0.3861 0.18182 0.0
H228 H 0.82237 0.40648 0.15523 0.0
H229 H 0.70457 0.31964 0.02813 0.0
H230 H 0.6384 0.40271 1.0146 0.0
H231 H 0.65666 0.41709 0.05414 0.0
H232 H 0.80356 0.34553 0.05383 0.0
H233 H 0.78917 0.30775 0.05373 0.0
H234 H 0.81818 0.3251 0.07873 0.0
H235 H 0.66156 0.31111 0.08188 0.0
H236 H 0.71352 0.29649 0.09734 0.0
H237 H 0.70701 0.2895 0.06655 0.0
H238 H 0.84084 0.2619 0.13028 0.0
C239 C 0.80156 0.30044 0.12106 0.0
C240 C 0.69523 0.54705 0.66696 0.0
C241 C 0.66641 0.52391 0.65801 0.0
C242 C 0.65215 0.52394 0.63427 0.0
C243 C 0.69399 0.57031 0.62891 0.0
C244 C 0.70793 0.57011 0.65223 0.0
C245 C 0.73427 0.59756 0.65948 0.0
H246 H 0.8152 0.73245 0.63394 0.0
C247 C 0.71093 0.59812 0.61879 0.0
C248 C 0.73398 0.61428 0.63667 0.0
H249 H 0.82316 0.6868 0.6997 0.0
H250 H 0.78472 0.64506 0.68206 0.0
H251 H 0.85222 0.67811 0.60248 0.0
H252 H 0.69993 0.70814 0.61799 0.0
H253 H 0.70525 0.70106 0.58781 0.0
H254 H 0.74508 0.72863 0.60075 0.0
H255 H 0.82814 0.71064 0.59006 0.0
H256 H 0.81492 0.67617 0.57692 0.0
C257 C 0.78955 0.59031 0.66731 0.0
C258 C 0.70093 0.61185 0.67857 0.0
C259 C 0.68265 0.61729 0.53253 0.0
C260 C 0.69379 0.64066 0.5177 0.0
C261 C 0.71721 0.66545 0.52738 0.0
C262 C 0.72917 0.66686 0.55135 0.0
C263 C 0.71784 0.64318 0.56587 0.0
C264 C 0.69486 0.61899 0.5563 0.0
C265 C 0.68527 0.5958 0.57411 0.0
C266 C 0.70724 0.60973 0.59591 0.0
C267 C 0.72615 0.63758 0.59114 0.0
C268 C 0.716 0.56909 0.5668 0.0
C269 C 0.62645 0.59055 0.57603 0.0
C270 C 0.80811 0.71345 0.64447 0.0
C271 C 0.82215 0.71287 0.66827 0.0
C272 C 0.81311 0.68767 0.68133 0.0
C273 C 0.79055 0.66345 0.67105 0.0
C274 C 0.77671 0.6642 0.64734 0.0
C275 C 0.78582 0.68877 0.63432 0.0
C276 C 0.76998 0.68485 0.6091 0.0
C277 C 0.74864 0.65423 0.60945 0.0
C278 C 0.75271 0.64245 0.63199 0.0
C279 C 0.81856 0.68775 0.59365 0.0
C280 C 0.72802 0.70687 0.60339 0.0
H281 H 0.65402 0.54573 0.60172 0.0
H282 H 0.7057 0.54775 0.68529 0.0
H283 H 0.65948 0.60664 0.67605 0.0
H284 H 0.70301 0.63552 0.67804 0.0
H285 H 0.71173 0.60438 0.69633 0.0
H286 H 0.80539 0.5727 0.65652 0.0
H287 H 0.7903 0.5832 0.68585 0.0
H288 H 0.81697 0.6084 0.66496 0.0
H289 H 0.66547 0.59771 0.52573 0.0
H290 H 0.72588 0.68389 0.51644 0.0
H291 H 0.74672 0.68632 0.55768 0.0
H292 H 0.75474 0.57554 0.56027 0.0
H293 H 0.69607 0.55715 0.55258 0.0
H294 H 0.72307 0.5542 0.58142 0.0
H295 H 0.60485 0.61021 0.57153 0.0
H296 H 0.61402 0.5852 0.59403 0.0
H297 H 0.61332 0.57328 0.56399 0.0
H298 H 0.62976 0.50624 0.62713 0.0
C299 C 0.66613 0.54691 0.61962 0.0
C300 C 0.69938 0.81914 0.16329 0.0
C301 C 0.69236 0.79087 0.15529 0.0
C302 C 0.70268 0.78509 0.13148 0.0
C303 C 0.72905 0.83489 0.12503 0.0
C304 C 0.71884 0.84025 0.14829 0.0
C305 C 0.73424 0.86995 0.15561 0.0
H306 H 0.85207 0.99632 0.13267 0.0
C307 C 0.7509 0.86177 0.11472 0.0
C308 C 0.75489 0.88198 0.13287 0.0
H309 H 0.78744 0.96564 0.19783 0.0
H310 H 0.75733 0.92257 0.17905 0.0
H311 H 0.89657 0.93438 0.11263 0.0
H312 H 0.75662 0.98025 0.10332 0.0
H313 H 0.76199 0.95886 0.07824 0.0
H314 H 0.81022 0.98613 0.08422 0.0
H315 H 0.89105 0.96865 0.09846 0.0
H316 H 0.88089 0.93585 0.08254 0.0
C317 C 0.7767 0.86748 0.17459 0.0
C318 C 0.68527 0.88569 0.1636 0.0
C319 C 0.78074 0.87221 0.02677 0.0
C320 C 0.79556 0.89593 1.01286 0.0
C321 C 0.81157 0.92153 0.02389 0.0
C322 C 0.81171 0.92387 0.04829 0.0
C323 C 0.79499 0.9005 0.06197 0.0
C324 C 0.78013 0.87508 0.05128 0.0
C325 C 0.76212 0.85292 0.06891 0.0
C326 C 0.76605 0.8698 0.09163 0.0
C327 C 0.78628 0.89754 0.08739 0.0
C328 C 0.79986 0.82767 0.06845 0.0
C329 C 0.70611 0.84416 0.06314 0.0
C330 C 0.83169 0.98009 0.14276 0.0
C331 C 0.82249 0.9841 0.1668 0.0
C332 C 0.79484 0.96297 0.17933 0.0
C333 C 0.77763 0.93787 0.16837 0.0
C334 C 0.7879 0.93374 0.14452 0.0
C335 C 0.8134 0.95488 0.13192 0.0
C336 C 0.81701 0.94732 0.10631 0.0
C337 C 0.79255 0.91737 0.10612 0.0
C338 C 0.7761 0.90966 0.12859 0.0
C339 C 0.87437 0.9466 0.09943 0.0
C340 C 0.78519 0.96925 0.09216 0.0
H341 H 0.72829 0.80125 0.09848 0.0
H342 H 0.69086 0.82495 0.18116 0.0
H343 H 0.65144 0.87894 0.15296 0.0
H344 H 0.6881 0.9092 0.16119 0.0
H345 H 0.6762 0.8809 0.18219 0.0
H346 H 0.79894 0.84746 0.17251 0.0
H347 H 0.75997 0.86716 0.19245 0.0
H348 H 0.80605 0.8848 0.1735 0.0
H349 H 0.76805 0.85234 0.0187 0.0
H350 H 0.82354 0.93993 1.01352 0.0
H351 H 0.8242 0.94395 0.05557 0.0
H352 H 0.83993 0.83555 0.06568 0.0
H353 H 0.79029 0.81252 0.05407 0.0
H354 H 0.80078 0.81579 0.08515 0.0
H355 H 0.68272 0.86352 0.05988 0.0
H356 H 0.68698 0.83239 0.0775 0.0
H357 H 0.70437 0.83057 0.04722 0.0
H358 H 0.69808 0.76356 0.12467 0.0
C359 C 0.72072 0.80697 0.11631 0.0
C360 C 0.1864 0.94593 0.35461 0.0
C361 C 0.14901 0.96566 0.36113 0.0
C362 C 0.12861 0.96433 0.38399 0.0
C363 C 0.18206 0.92359 0.393 0.0
C364 C 0.20222 0.92527 0.37068 0.0
C365 C 0.24122 0.90271 0.36609 0.0
H366 H 0.35246 0.77951 0.3973 0.0
C367 C 0.20644 0.89914 0.40505 0.0
C368 C 0.24118 0.88699 0.38931 0.0
H369 H 0.37297 0.8291 0.33381 0.0
H370 H 0.32101 0.86635 0.34939 0.0
H371 H 0.37119 0.8335 0.4307 0.0
H372 H 0.23172 0.79256 0.40686 0.0
H373 H 0.22871 0.7978 0.43743 0.0
H374 H 0.27819 0.77587 0.42547 0.0
H375 H 0.34448 0.80278 0.44548 0.0
H376 H 0.32561 0.83881 0.45282 0.0
C377 C 0.29361 0.91784 0.36107 0.0
C378 C 0.22053 0.88361 0.34589 0.0
C379 C 0.15494 0.87176 0.48819 0.0
C380 C 0.17193 0.85042 0.50368 0.0
C381 C 0.21017 0.83146 0.49621 0.0
C382 C 0.23073 0.83344 0.4736 0.0
C383 C 0.21319 0.85473 0.45828 0.0
C384 C 0.17642 0.87372 0.46574 0.0
C385 C 0.16415 0.89572 0.44732 0.0
C386 C 0.1997 0.88684 0.42765 0.0
C387 C 0.22777 0.86253 0.43409 0.0
C388 C 0.17852 0.92579 0.45698 0.0
C389 C 0.10692 0.89196 0.44057 0.0
C390 C 0.34603 0.79852 0.38686 0.0
C391 C 0.3654 0.80082 0.3639 0.0
C392 C 0.35692 0.82621 0.35114 0.0
C393 C 0.32686 0.84797 0.36028 0.0
C394 C 0.30492 0.84457 0.38252 0.0
C395 C 0.31613 0.82075 0.39585 0.0
C396 C 0.29184 0.82212 0.41976 0.0
C397 C 0.26196 0.84985 0.41788 0.0
C398 C 0.26933 0.8625 0.39586 0.0
C399 C 0.33523 0.82423 0.43827 0.0
C400 C 0.25578 0.79567 0.42275 0.0
H401 H 0.12777 0.94334 0.41701 0.0
H402 H 0.20354 0.94669 0.33736 0.0
H403 H 0.17852 0.87962 0.34782 0.0
H404 H 0.2374 0.8621 0.34544 0.0
H405 H 0.22699 0.89413 0.32867 0.0
H406 H 0.29595 0.93946 0.36925 0.0
H407 H 0.29998 0.92072 0.342 0.0
H408 H 0.32633 0.90615 0.36866 0.0
H409 H 0.12607 0.88686 0.49357 0.0
H410 H 0.22358 0.81476 0.50779 0.0
H411 H 0.25931 0.81821 0.46888 0.0
H412 H 0.21407 0.92493 0.46772 0.0
H413 H 0.14745 0.93417 0.46824 0.0
H414 H 0.18722 0.94157 0.44307 0.0
H415 H 0.09589 0.86882 0.43983 0.0
H416 H 0.09811 0.90048 0.42305 0.0
H417 H 0.08169 0.90236 0.45359 0.0
H418 H 0.09951 0.97925 0.38942 0.0
C419 C 0.1449 0.94339 0.39994 0.0
C420 C 0.21612 0.69905 0.86987 0.0
C421 C 0.19513 0.72373 0.88005 0.0
C422 C 0.19446 0.72571 0.90473 0.0
C423 C 0.23699 0.67998 0.90818 0.0
C424 C 0.23577 0.67744 0.88415 0.0
C425 C 0.25604 0.6492 0.87595 0.0
H426 H 0.3813 0.52703 0.89919 0.0
C427 C 0.26187 0.65416 0.91777 0.0
C428 C 0.27266 0.63597 0.89896 0.0
H429 H 0.30954 0.55341 0.83435 0.0
H430 H 0.28103 0.59628 0.85258 0.0
H431 H 0.42247 0.58894 0.91629 0.0
H432 H 0.28079 0.54305 0.93039 0.0
H433 H 0.30268 0.5584 0.95667 0.0
H434 H 0.34119 0.53201 0.94221 0.0
H435 H 0.41972 0.55783 0.93484 0.0
H436 H 0.40774 0.59322 0.94607 0.0
C437 C 0.30223 0.65526 0.85954 0.0
C438 C 0.21119 0.63202 0.86441 0.0
C439 C 0.30265 0.64818 1.00455 0.0
C440 C 0.33052 0.62865 0.01812 0.0
C441 C 0.35163 0.60447 1.00719 0.0
C442 C 0.34489 0.59975 0.98314 0.0
C443 C 0.31713 0.61955 0.96977 0.0
C444 C 0.29686 0.64338 0.98051 0.0
C445 C 0.27067 0.6629 0.96344 0.0
C446 C 0.27772 0.64664 0.94073 0.0
C447 C 0.30473 0.62116 0.94453 0.0
C448 C 0.30006 0.69205 0.96337 0.0
C449 C 0.21336 0.66482 0.97037 0.0
C450 C 0.35898 0.54176 0.88886 0.0
C451 C 0.34915 0.53667 0.8649 0.0
C452 C 0.31984 0.55686 0.85246 0.0
C453 C 0.30233 0.58176 0.86321 0.0
C454 C 0.31292 0.58656 0.88692 0.0
C455 C 0.33978 0.56648 0.89952 0.0
C456 C 0.34386 0.57442 0.92502 0.0
C457 C 0.31514 0.60258 0.92546 0.0
C458 C 0.29816 0.60976 0.90294 0.0
C459 C 0.40136 0.57869 0.9311 0.0
C460 C 0.31608 0.55077 0.93951 0.0
H461 H 0.21399 0.70707 0.93735 0.0
H462 H 0.2178 0.69643 0.8511 0.0
H463 H 0.17303 0.64021 0.86968 0.0
H464 H 0.21037 0.60919 0.86988 0.0
H465 H 0.21321 0.63321 0.84503 0.0
H466 H 0.32836 0.67179 0.86727 0.0
H467 H 0.28911 0.66336 0.8423 0.0
H468 H 0.32601 0.63627 0.85653 0.0
H469 H 0.28682 0.66724 1.01237 0.0
H470 H 0.37321 0.58913 0.01731 0.0
H471 H 0.36188 0.58096 0.97585 0.0
H472 H 0.3422 0.68874 0.96439 0.0
H473 H 0.28891 0.70532 0.9786 0.0
H474 H 0.29433 0.70458 0.94725 0.0
H475 H 0.19901 0.64412 0.97779 0.0
H476 H 0.18811 0.66895 0.95525 0.0
H477 H 0.20751 0.68168 0.98376 0.0
H478 H 0.17717 0.74379 0.91335 0.0
C479 C 0.2155 0.70415 0.91877 0.0
Tb480 Tb 0.07627 0.14178 0.24452 0.0
C481 C 0.83947 0.12858 0.26945 0.0
N482 N 0.8725 0.15109 0.27244 0.0
C483 C 0.80881 0.18329 0.25805 0.0
C484 C 0.79019 0.1324 0.25992 0.0
C485 C 0.85694 0.17842 0.26801 0.0
C486 C 0.77553 0.16013 0.25367 0.0
C487 C 0.82017 0.07811 0.27588 0.0
C488 C 0.85417 0.10184 0.27723 0.0
C489 C 0.77163 0.08154 0.26564 0.0
C490 C 0.75675 0.10862 0.2576 0.0
Tb491 Tb 0.95082 0.14007 0.28773 0.0
N492 N 0.90174 0.09924 0.28651 0.0
C493 C 0.83583 0.05183 0.28513 0.0
C494 C 0.91593 0.07423 0.29707 0.0
C495 C 0.88365 0.05 0.29608 0.0
H496 H 0.88152 0.1966 0.27216 0.0
H497 H 0.89555 0.02998 0.30384 0.0
H498 H 0.16628 0.11334 0.27692 0.0
H499 H 0.05913 0.24814 0.20658 0.0
H500 H 0.95272 0.07292 0.30571 0.0
H501 H 0.81087 0.03304 0.2844 0.0
H502 H 0.04081 0.1965 0.2095 0.0
H503 H 0.79718 0.20493 0.25402 0.0
H504 H 0.74509 0.06351 0.26417 0.0
H505 H 0.71885 0.11107 0.25013 0.0
H506 H 0.24267 0.13017 0.29914 0.0
H507 H 0.73805 0.164 0.24621 0.0
H508 H 0.12658 0.27048 0.23127 0.0
N509 N 0.14755 0.15508 0.26502 0.0
C510 C 0.1616 0.18321 0.26384 0.0
C511 C 0.22 0.14532 0.28939 0.0
C512 C 0.20434 0.19383 0.27634 0.0
C513 C 0.17688 0.13585 0.27684 0.0
C514 C 0.23347 0.17449 0.28936 0.0
N515 N 0.09209 0.1898 0.23805 0.0
C516 C 0.06801 0.206 0.22151 0.0
C517 C 0.14557 0.23062 0.24847 0.0
C518 C 0.13224 0.20128 0.25027 0.0
C519 C 0.11759 0.24783 0.23318 0.0
C520 C 0.07935 0.23532 0.21929 0.0
H521 H 0.26666 0.18179 0.29922 0.0
H522 H 0.24903 0.23195 0.28499 0.0
H523 H 0.19775 0.26417 0.26046 0.0
O524 O 0.11505 0.14766 0.21209 0.0
O525 O 0.07771 0.15601 0.28124 0.0
O526 O 1.00096 0.17797 0.28598 0.0
O527 O 0.12072 0.10785 0.23174 0.0
O528 O 0.00347 0.15766 0.23052 0.0
O529 O 0.96432 0.17576 0.2633 0.0
O530 O 0.96886 0.13528 0.32343 0.0
O531 O 0.95771 0.10484 0.26201 0.0
O532 O 0.00723 0.12117 0.23057 0.0
O533 O 0.89858 0.1548 0.31296 0.0
O534 O 0.01874 0.11678 0.29852 0.0
O535 O 0.06726 0.10281 0.26614 0.0
C536 C 0.0501 0.17633 0.29053 0.0
C537 C 0.1683 0.11014 0.19504 0.0
C538 C 0.20253 0.1088 0.1551 0.0
C539 C 0.23654 0.08735 0.16217 0.0
C540 C 0.20236 0.08845 0.20145 0.0
C541 C 0.23623 0.07721 0.18512 0.0
C542 C 0.16815 0.12017 0.17167 0.0
C543 C 0.96738 0.17282 0.24052 0.0
C544 C 0.13396 0.12211 0.21308 0.0
C545 C 0.21659 0.22326 0.27534 0.0
C546 C 0.18725 0.24162 0.26144 0.0
C547 C 0.97403 0.10318 0.24019 0.0
C548 C 0.93189 0.16763 0.35013 0.0
C549 C 0.92363 0.17707 0.39226 0.0
C550 C 0.93641 0.20609 0.38775 0.0
C551 C 0.94498 0.19648 0.34627 0.0
C552 C 0.92199 0.15795 0.37308 0.0
C553 C 0.94745 0.21554 0.36503 0.0
C554 C 0.05154 0.09985 0.28803 0.0
C555 C 0.92703 0.14729 0.33053 0.0
H556 H 0.26307 0.07815 0.14979 0.0
H557 H 0.20326 0.08037 0.21921 0.0
H558 H 0.26246 0.06058 0.19028 0.0
H559 H 0.14188 0.13679 0.16644 0.0
H560 H 0.93698 0.2218 0.40164 0.0
H561 H 0.95265 0.20427 0.32874 0.0
H562 H 0.91308 0.13543 0.37584 0.0
H563 H 0.95722 0.23788 0.36191 0.0
Tb564 Tb 0.42383 0.36347 0.74226 0.0
C565 C 0.66295 0.37516 0.7683 0.0
N566 N 0.62806 0.35391 0.77279 0.0
C567 C 0.69006 0.31848 0.7629 0.0
C568 C 0.71273 0.36891 0.76041 0.0
C569 C 0.64135 0.32578 0.77103 0.0
C570 C 0.72576 0.34014 0.75734 0.0
C571 C 0.68483 0.42594 0.76914 0.0
C572 C 0.64925 0.40327 0.77258 0.0
C573 C 0.73412 0.41993 0.76067 0.0
C574 C 0.74801 0.39148 0.75628 0.0
Tb575 Tb 0.54917 0.36874 0.78441 0.0
N576 N 0.60079 0.40833 0.78016 0.0
C577 C 0.66974 0.4539 0.77438 0.0
C578 C 0.58669 0.43532 0.78652 0.0
C579 C 0.62066 0.45855 0.78335 0.0
H580 H 0.61433 0.30895 0.77586 0.0
H581 H 0.609 0.48002 0.78785 0.0
H582 H 0.32916 0.39387 0.7707 0.0
H583 H 0.45534 0.25293 0.71703 0.0
H584 H 0.54897 0.43904 0.79358 0.0
H585 H 0.69589 0.47195 0.77189 0.0
H586 H 0.4681 0.30503 0.71446 0.0
H587 H 0.70015 0.29617 0.76107 0.0
H588 H 0.76191 0.43708 0.75769 0.0
H589 H 0.78637 0.38714 0.75006 0.0
H590 H 0.25222 0.37809 0.793 0.0
H591 H 0.76357 0.33441 0.75121 0.0
H592 H 0.38722 0.23256 0.74252 0.0
N593 N 0.35115 0.35141 0.76229 0.0
C594 C 0.34009 0.32292 0.76401 0.0
C595 C 0.27664 0.36238 0.78493 0.0
C596 C 0.29708 0.31295 0.77672 0.0
C597 C 0.32006 0.37125 0.7723 0.0
C598 C 0.26521 0.3331 0.78724 0.0
N599 N 0.41426 0.31444 0.74136 0.0
C600 C 0.44123 0.29663 0.72712 0.0
C601 C 0.36256 0.27409 0.75462 0.0
C602 C 0.37307 0.30382 0.75345 0.0
C603 C 0.39402 0.25554 0.74213 0.0
C604 C 0.43275 0.26694 0.72788 0.0
H605 H 0.23177 0.3263 0.79719 0.0
H606 H 0.25491 0.27517 0.78849 0.0
H607 H 0.31185 0.24114 0.76888 0.0
O608 O 0.41409 0.35789 0.70613 0.0
O609 O 0.42273 0.35287 0.77986 0.0
O610 O 0.49905 0.33097 0.78441 0.0
O611 O 0.35963 0.3819 0.72569 0.0
O612 O 0.4988 0.3509 0.72852 0.0
O613 O 0.53518 0.33244 0.76134 0.0
O614 O 0.52644 0.37322 0.81964 0.0
O615 O 0.55228 0.39678 0.7533 0.0
O616 O 0.47172 0.40124 0.7355 0.0
O617 O 0.60171 0.35848 0.81078 0.0
O618 O 0.48594 0.39779 0.79252 0.0
O619 O 0.42695 0.40392 0.76163 0.0
C620 C 0.4509 0.33368 0.79031 0.0
C621 C 0.33023 0.35747 0.69154 0.0
C622 C 0.29498 0.34583 0.653 0.0
C623 C 0.25826 0.3278 0.66382 0.0
C624 C 0.29316 0.33949 0.702 0.0
C625 C 0.25726 0.32483 0.68816 0.0
C626 C 0.33069 0.36076 0.66708 0.0
C627 C 0.53519 0.33635 0.73869 0.0
C628 C 0.37113 0.37149 0.70536 0.0
C629 C 0.28759 0.28331 0.77866 0.0
C630 C 0.3202 0.26393 0.7676 0.0
C631 C 0.52051 0.40848 0.73814 0.0
C632 C 0.56646 0.34124 0.8459 0.0
C633 C 0.57443 0.32824 0.88706 0.0
C634 C 0.57003 0.29914 0.88095 0.0
C635 C 0.56241 0.31208 0.84007 0.0
C636 C 0.57184 0.34925 0.86944 0.0
C637 C 0.56359 0.29117 0.85758 0.0
C638 C 0.44781 0.41108 0.78198 0.0
C639 C 0.56958 0.36335 0.82759 0.0
H640 H 0.2301 0.31614 0.65346 0.0
H641 H 0.29224 0.33655 0.72076 0.0
H642 H 0.22879 0.31091 0.6963 0.0
H643 H 0.35992 0.37428 0.65897 0.0
H644 H 0.57182 0.28261 0.89425 0.0
H645 H 0.55948 0.30554 0.82197 0.0
H646 H 0.57614 0.37175 0.87394 0.0
H647 H 0.56054 0.2687 0.85298 0.0
Tb648 Tb 0.0787 0.86819 0.74127 0.0
C649 C 0.86632 0.82726 0.77286 0.0
N650 N 0.88455 0.85461 0.77093 0.0
C651 C 0.81043 0.8676 0.74873 0.0
C652 C 0.8202 0.81865 0.76194 0.0
C653 C 0.85682 0.87502 0.75964 0.0
C654 C 0.79225 0.83923 0.7497 0.0
C655 C 0.87859 0.77897 0.78718 0.0
C656 C 0.8954 0.80775 0.78512 0.0
C657 C 0.83304 0.77003 0.77601 0.0
C658 C 0.80389 0.78984 0.76342 0.0
Tb659 Tb 0.96102 0.86445 0.78875 0.0
N660 N 0.93966 0.81715 0.79535 0.0
C661 C 0.90763 0.76019 0.80072 0.0
C662 C 0.96571 0.79944 0.81009 0.0
C663 C 0.95088 0.77062 0.81255 0.0
H664 H 0.87061 0.89697 0.75895 0.0
H665 H 0.97238 0.75659 0.82388 0.0
H666 H 0.15862 0.81562 0.75706 0.0
H667 H 0.11607 0.97948 0.72137 0.0
H668 H 0.99709 0.80747 0.82057 0.0
H669 H 0.89608 0.7379 0.80275 0.0
H670 H 0.06551 0.93405 0.72172 0.0
H671 H 0.7888 0.88372 0.73954 0.0
H672 H 0.81973 0.74794 0.77722 0.0
H673 H 0.76874 0.78269 0.75498 0.0
H674 H 0.24515 0.81223 0.77374 0.0
H675 H 0.75656 0.8335 0.74105 0.0
H676 H 0.20305 0.98109 0.73884 0.0
N677 N 0.15995 0.86141 0.7555 0.0
C678 C 0.19004 0.88542 0.75695 0.0
C679 C 0.22984 0.83302 0.76943 0.0
C680 C 0.24068 0.88433 0.76555 0.0
C681 C 0.18014 0.83516 0.76041 0.0
C682 C 0.26 0.85777 0.77235 0.0
N683 N 0.12207 0.911 0.7404 0.0
C684 C 0.10307 0.93481 0.72967 0.0
C685 C 0.20138 0.93618 0.74864 0.0
C686 C 0.17087 0.91096 0.74863 0.0
C687 C 0.18089 0.96123 0.73913 0.0
C688 C 0.13175 0.96043 0.72932 0.0
H689 H 0.2987 0.856 0.77908 0.0
H690 H 0.30966 0.90923 0.77315 0.0
H691 H 0.27517 0.95467 0.75834 0.0
O692 O 0.06076 0.87545 0.706 0.0
O693 O 0.07403 0.90306 0.76736 0.0
O694 O 0.03582 0.88146 0.79921 0.0
O695 O 0.12772 0.85193 0.71523 0.0
O696 O 0.00419 0.88681 0.73335 0.0
O697 O 0.96672 0.90383 0.76732 0.0
O698 O 0.93685 0.85881 0.82349 0.0
O699 O 0.95268 0.84778 0.75291 0.0
O700 O 0.0311 0.82918 0.74375 0.0
O701 O 0.92 0.89767 0.80504 0.0
O702 O 0.03566 0.84632 0.79877 0.0
O703 O 0.07363 0.83049 0.7645 0.0
C704 C 0.06124 0.90284 0.78962 0.0
C705 C 0.08773 0.84085 0.67915 0.0
C706 C 0.09528 0.82796 0.63796 0.0
C707 C 0.05978 0.80536 0.64155 0.0
C708 C 0.05299 0.81794 0.68248 0.0
C709 C 0.03909 0.8003 0.66375 0.0
C710 C 0.10925 0.84559 0.65694 0.0
C711 C 0.97888 0.9064 0.74493 0.0
C712 C 0.09941 0.86109 0.69818 0.0
C713 C 0.27081 0.9096 0.76642 0.0
C714 C 0.25123 0.93546 0.75793 0.0
C715 C 0.98068 0.82777 0.74344 0.0
C716 C 0.86451 0.88354 0.83658 0.0
C717 C 0.81714 0.88143 0.87358 0.0
C718 C 0.77113 0.88455 0.86104 0.0
C719 C 0.81817 0.88639 0.82441 0.0
C720 C 0.86371 0.88085 0.8611 0.0
C721 C 0.77175 0.88687 0.83664 0.0
C722 C 0.06734 0.82951 0.78736 0.0
C723 C 0.91451 0.88339 0.82451 0.0
H724 H 0.04855 0.79142 0.62725 0.0
H725 H 0.03625 0.81394 0.69944 0.0
H726 H 0.01196 0.78276 0.66643 0.0
H727 H 0.13583 0.86344 0.65428 0.0
H728 H 0.73464 0.88491 0.87009 0.0
H729 H 0.81781 0.88834 0.80556 0.0
H730 H 0.89959 0.87883 0.87052 0.0
H731 H 0.73606 0.8891 0.82718 0.0
Tb732 Tb 0.45904 0.63272 0.24338 0.0
C733 C 0.69251 0.65103 0.2629 0.0
N734 N 0.66111 0.62823 0.2677 0.0
C735 C 0.72475 0.59632 0.2528 0.0
C736 C 0.74055 0.64747 0.25204 0.0
C737 C 0.67803 0.60097 0.26413 0.0
C738 C 0.75578 0.61971 0.24634 0.0
C739 C 0.71118 0.70175 0.26793 0.0
C740 C 0.67809 0.67777 0.27057 0.0
C741 C 0.75805 0.69863 0.25615 0.0
C742 C 0.77262 0.67154 0.24813 0.0
Tb743 Tb 0.58452 0.63899 0.28518 0.0
N744 N 0.63211 0.68005 0.28145 0.0
C745 C 0.69644 0.72795 0.27758 0.0
C746 C 0.61843 0.70516 0.29182 0.0
C747 C 0.65007 0.72958 0.28979 0.0
H748 H 0.65628 0.58262 0.27037 0.0
H749 H 0.63876 0.74959 0.29767 0.0
H750 H 0.37102 0.66485 0.27453 0.0
H751 H 0.46317 0.52523 0.20734 0.0
H752 H 0.58291 0.70634 0.30148 0.0
H753 H 0.72085 0.74689 0.276 0.0
H754 H 0.48521 0.57668 0.20866 0.0
H755 H 0.73727 0.57468 0.24951 0.0
H756 H 0.78375 0.71687 0.25361 0.0
H757 H 0.80948 0.66928 0.23961 0.0
H758 H 0.29406 0.65103 0.29769 0.0
H759 H 0.79234 0.61603 0.23794 0.0
H760 H 0.39676 0.50514 0.23394 0.0
N761 N 0.387 0.62207 0.26455 0.0
C762 C 0.37085 0.59427 0.26457 0.0
C763 C 0.31555 0.63482 0.28858 0.0
C764 C 0.32767 0.58529 0.27761 0.0
C765 C 0.35902 0.64261 0.27551 0.0
C766 C 0.30018 0.60597 0.2899 0.0
N767 N 0.43743 0.58519 0.23802 0.0
C768 C 0.45854 0.56801 0.22136 0.0
C769 C 0.38217 0.54596 0.25043 0.0
C770 C 0.39783 0.57502 0.25125 0.0
C771 C 0.40752 0.52764 0.2351 0.0
C772 C 0.44512 0.53887 0.22012 0.0
H773 H 0.26673 0.59997 0.30016 0.0
H774 H 0.28071 0.54863 0.28799 0.0
H775 H 0.32843 0.51413 0.26411 0.0
O776 O 0.41894 0.62763 0.21151 0.0
O777 O 0.45657 0.62234 0.28104 0.0
O778 O 0.5337 0.60147 0.28771 0.0
O779 O 0.4186 0.66758 0.22982 0.0
O780 O 0.52984 0.61218 0.23144 0.0
O781 O 0.5708 0.59896 0.26558 0.0
O782 O 0.57133 0.64676 0.32088 0.0
O783 O 0.57473 0.67111 0.257 0.0
O784 O 0.532 0.64656 0.22778 0.0
O785 O 0.6401 0.62632 0.30969 0.0
O786 O 0.51722 0.66377 0.2952 0.0
O787 O 0.47185 0.67371 0.26118 0.0
C788 C 0.48424 0.60286 0.29147 0.0
C789 C 0.42165 0.66991 0.18849 0.0
C790 C 0.42606 0.67141 0.14582 0.0
C791 C 0.45302 0.69765 0.14708 0.0
C792 C 0.44798 0.69651 0.18927 0.0
C793 C 0.46336 0.71024 0.16868 0.0
C794 C 0.40999 0.65769 0.16656 0.0
C795 C 0.56142 0.59562 0.2431 0.0
C796 C 0.40751 0.6546 0.21035 0.0
C797 C 0.31333 0.55611 0.2778 0.0
C798 C 0.34063 0.53646 0.26427 0.0
C799 C 0.5628 0.66743 0.23477 0.0
C800 C 0.60566 0.61243 0.3462 0.0
C801 C 0.60411 0.60036 0.38782 0.0
C802 C 0.58792 0.57232 0.38198 0.0
C803 C 0.58982 0.58432 0.34081 0.0
C804 C 0.61301 0.62035 0.36969 0.0
C805 C 0.58091 0.56441 0.35865 0.0
C806 C 0.48464 0.67922 0.28304 0.0
C807 C 0.61269 0.6339 0.32754 0.0
H808 H 0.46568 0.7085 0.13128 0.0
H809 H 0.45753 0.7066 0.20578 0.0
H810 H 0.48399 0.73055 0.16949 0.0
H811 H 0.38949 0.6373 0.16563 0.0
H812 H 0.58125 0.55635 0.39547 0.0
H813 H 0.58427 0.57778 0.32284 0.0
H814 H 0.62467 0.64218 0.37383 0.0
H815 H 0.56854 0.54278 0.35438 0.0
H816 H 0.13432 0.02226 0.36909 0.0
H817 H 0.12625 0.95829 0.31482 0.0
H818 H 0.09984 0.99462 0.28657 0.0
H819 H 0.07553 0.0446 0.27765 0.0
H820 H 0.08125 0.10764 0.33269 0.0
H821 H 0.11224 0.07184 0.36015 0.0
C822 C 0.12636 0.01623 0.35113 0.0
C823 C 0.13201 0.98764 0.34411 0.0
C824 C 0.11101 0.03715 0.33504 0.0
C825 C 0.1225 0.98025 0.32064 0.0
C826 C 0.10729 1.00099 0.30448 0.0
C827 C 0.08437 0.05044 0.29557 0.0
C828 C 0.07606 0.07856 0.30321 0.0
C829 C 0.10123 0.02953 0.31148 0.0
C830 C 0.08703 0.08597 0.32651 0.0
C831 C 0.10466 0.06554 0.34223 0.0
H832 H 0.3764 0.53079 0.81882 0.0
H833 H 0.36574 0.48292 0.88356 0.0
H834 H 0.39727 0.44053 0.86382 0.0
H835 H 0.42616 0.41647 0.82791 0.0
H836 H 0.42603 0.46261 0.76254 0.0
H837 H 0.39826 0.50603 0.78268 0.0
C838 C 0.37968 0.51106 0.82869 0.0
C839 C 0.3685 0.51049 0.85285 0.0
C840 C 0.39546 0.48627 0.81702 0.0
C841 C 0.37496 0.48458 0.86516 0.0
C842 C 0.39248 0.46007 0.85381 0.0
C843 C 0.41981 0.43607 0.81815 0.0
C844 C 0.4281 0.43657 0.79387 0.0
C845 C 0.40269 0.46065 0.82974 0.0
C846 C 0.41942 0.46183 0.78124 0.0
C847 C 0.40387 0.48662 0.79276 0.0
H848 H 0.56827 0.50829 0.66623 0.0
H849 H 0.72367 0.48881 0.68548 0.0
H850 H 0.69241 0.45106 0.71215 0.0
H851 H 0.6205 0.42312 0.72901 0.0
H852 H 0.46493 0.44574 0.71185 0.0
H853 H 0.49661 0.4824 0.68495 0.0
C854 C 0.59515 0.4956 0.67619 0.0
C855 C 0.64802 0.50087 0.67379 0.0
C856 C 0.57688 0.47456 0.69178 0.0
C857 C 0.68274 0.48485 0.68706 0.0
C858 C 0.66489 0.46336 0.70225 0.0
C859 C 0.59351 0.43651 0.71991 0.0
C860 C 0.54043 0.43175 0.72278 0.0
C861 C 0.61198 0.45805 0.70475 0.0
C862 C 0.50605 0.44876 0.71005 0.0
C863 C 0.52407 0.46982 0.69463 0.0
H864 H 0.92115 0.00321 0.16947 0.0
H865 H 0.76797 0.02138 0.19298 0.0
H866 H 0.80116 0.06021 0.2177 0.0
H867 H 0.87419 0.08818 0.23321 0.0
H868 H 0.02773 0.06876 0.21143 0.0
H869 H 0.99431 0.0316 0.18505 0.0
C870 C 0.89515 0.01601 0.17977 0.0
C871 C 0.84228 0.00966 0.17939 0.0
C872 C 0.91468 0.03779 0.1944 0.0
C873 C 0.80884 0.02601 0.19304 0.0
C874 C 0.8278 0.04808 0.20723 0.0
C875 C 0.90026 0.07515 0.22335 0.0
C876 C 0.95326 0.08037 0.22492 0.0
C877 C 0.88071 0.05382 0.20836 0.0
C878 C 0.98668 0.06472 0.21072 0.0
C879 C 0.96762 0.04355 0.19563 0.0
H880 H 0.89362 0.9942 0.67088 0.0
H881 H 0.94051 0.05404 0.72447 0.0
H882 H 0.96816 0.01461 0.7493 0.0
H883 H 0.97767 0.96279 0.75632 0.0
H884 H 0.93527 0.90304 0.70205 0.0
H885 H 0.90687 0.94246 0.67716 0.0
C886 C 0.91063 0.99858 0.68783 0.0
C887 C 0.91451 0.027 0.69586 0.0
C888 C 0.92652 0.97573 0.70211 0.0
C889 C 0.93639 0.03231 0.71798 0.0
C890 C 0.95218 0.00978 0.73224 0.0
C891 C 0.96152 0.95851 0.73917 0.0
C892 C 0.95776 0.93018 0.73111 0.0
C893 C 0.94672 0.98136 0.72467 0.0
C894 C 0.93813 0.92479 0.70863 0.0
C895 C 0.92214 0.9473 0.69436 0.0
H896 H 0.64471 0.47891 0.20534 0.0
H897 H 0.65643 0.52816 0.14151 0.0
H898 H 0.62065 0.56973 0.16144 0.0
H899 H 0.58865 0.59241 0.19749 0.0
H900 H 0.5817 0.5433 0.26145 0.0
H901 H 0.6148 0.50146 0.2411 0.0
C902 C 0.64023 0.49883 0.19579 0.0
C903 C 0.65384 0.50045 0.172 0.0
C904 C 0.62103 0.52271 0.20746 0.0
C905 C 0.64602 0.52621 0.15978 0.0
C906 C 0.62596 0.55005 0.17121 0.0
C907 C 0.59453 0.5725 0.2069 0.0
C908 C 0.58311 0.57084 0.23089 0.0
C909 C 0.61374 0.54859 0.1951 0.0
C910 C 0.59084 0.54508 0.24301 0.0
C911 C 0.60943 0.52116 0.23138 0.0
H912 H 0.35043 0.52484 0.35931 0.0
H913 H 0.46034 0.46236 0.33737 0.0
H914 H 0.50616 0.49891 0.31423 0.0
H915 H 0.51222 0.54799 0.29872 0.0
H916 H 0.401 0.61041 0.31951 0.0
H917 H 0.35788 0.57464 0.34439 0.0
C918 C 0.38483 0.5195 0.34967 0.0
C919 C 0.40258 0.49123 0.3501 0.0
C920 C 0.41017 0.54048 0.33601 0.0
C921 C 0.44653 0.48416 0.33733 0.0
C922 C 0.47249 0.50498 0.32407 0.0
C923 C 0.47883 0.55379 0.30889 0.0
C924 C 0.45945 0.58165 0.30719 0.0
C925 C 0.4543 0.53311 0.32305 0.0
C926 C 0.41606 0.58892 0.32032 0.0
C927 C 0.39161 0.56853 0.33462 0.0
H928 H 0.09668 0.00457 0.86088 0.0
H929 H 0.24941 1.00044 0.83207 0.0
H930 H 0.22302 0.96048 0.80715 0.0
H931 H 0.15622 0.92714 0.79309 0.0
H932 H 0.00378 0.93054 0.82164 0.0
H933 H 0.03035 0.96985 0.84751 0.0
C934 C 0.12429 0.99464 0.84939 0.0
C935 C 0.17479 0.00566 0.8482 0.0
C936 C 0.10879 0.97165 0.83497 0.0
C937 C 0.21008 0.99265 0.83308 0.0
C938 C 0.19508 0.96977 0.81882 0.0
C939 C 0.12865 0.93698 0.80449 0.0
C940 C 0.07788 0.92663 0.80494 0.0
C941 C 0.14437 0.95938 0.81936 0.0
C942 C 0.04304 0.93845 0.82084 0.0
C943 C 0.05822 0.96088 0.83563 0.0
H944 H 0.25578 0.13484 0.04956 0.0
H945 H 0.09711 0.10937 0.04108 0.0
H946 H 0.08661 0.10675 0.0835 0.0
H947 H 0.12473 0.10736 0.12315 0.0
H948 H 0.28431 0.13072 0.1313 0.0
H949 H 0.29202 0.13903 0.0892 0.0
C950 C 0.21866 0.12926 0.057 0.0
C951 C 0.17745 0.1221 0.04208 0.0
C952 C 0.21308 0.12733 0.08149 0.0
C953 C 0.12972 0.1146 0.0521 0.0
C954 C 0.12362 0.11316 0.0764 0.0
C955 C 0.16078 0.11491 0.1157 0.0
C956 C 0.20385 0.11852 0.13029 0.0
C957 C 0.16531 0.11885 0.0913 0.0
C958 C 0.25063 0.12784 0.12039 0.0
C959 C 0.25511 0.13247 0.09631 0.0
H960 H 0.30061 0.3364 0.54267 0.0
H961 H 0.30557 0.42872 0.54895 0.0
H962 H 0.30543 0.42453 0.59138 0.0
H963 H 0.30199 0.39479 0.62702 0.0
H964 H 0.29191 0.30274 0.6208 0.0
H965 H 0.2947 0.30675 0.57818 0.0
C966 C 0.30102 0.35567 0.55323 0.0
C967 C 0.30344 0.38285 0.54236 0.0
C968 C 0.29972 0.35318 0.57777 0.0
C969 C 0.30483 0.40746 0.55661 0.0
C970 C 0.30429 0.40513 0.58098 0.0
C971 C 0.30066 0.37563 0.6163 0.0
C972 C 0.29674 0.34851 0.62707 0.0
C973 C 0.3017 0.37812 0.59177 0.0
C974 C 0.29445 0.32387 0.61295 0.0
C975 C 0.29625 0.32616 0.58857 0.0
H976 H 0.58752 0.37484 0.99048 0.0
H977 H 0.726 0.325 0.98944 0.0
H978 H 0.70709 0.30974 0.94971 0.0
H979 H 0.65241 0.31115 0.91469 0.0
H980 H 0.51888 0.36443 0.91414 0.0
H981 H 0.5354 0.37832 0.95482 0.0
C982 C 0.61413 0.36099 0.98155 0.0
C983 C 0.65798 0.35098 0.99332 0.0
C984 C 0.604 0.35296 0.95829 0.0
C985 C 0.69124 0.33258 0.9813 0.0
C986 C 0.68077 0.324 0.95839 0.0
C987 C 0.62689 0.32569 0.92359 0.0
C988 C 0.58429 0.3366 0.91164 0.0
C989 C 0.63731 0.33404 0.94672 0.0
C990 C 0.55186 0.35579 0.9231 0.0
C991 C 0.56129 0.36367 0.94631 0.0
H992 H 0.84425 0.12295 0.48851 0.0
H993 H 0.94272 0.18968 0.51618 0.0
H994 H 0.96785 0.20398 0.4765 0.0
H995 H 0.96177 0.19754 0.43408 0.0
H996 H 0.85609 0.13399 0.40611 0.0
H997 H 0.83513 0.11802 0.44554 0.0
C998 C 0.87127 0.14056 0.48573 0.0
C999 C 0.89188 0.15521 0.50515 0.0
C1000 C 0.88458 0.14911 0.46279 0.0
C1001 C 0.92646 0.17815 0.50144 0.0
C1002 C 0.94082 0.18629 0.47878 0.0
C1003 C 0.93351 0.18049 0.43641 0.0
C1004 C 0.91099 0.16708 0.41669 0.0
C1005 C 0.91996 0.17201 0.45929 0.0
C1006 C 0.87532 0.14449 0.42058 0.0
C1007 C 0.86272 0.13545 0.44328 0.0
H1008 H 0.84126 0.85882 0.9826 0.0
H1009 H 0.7417 0.93167 0.98516 0.0
H1010 H 0.73795 0.93302 0.94248 0.0
H1011 H 0.76538 0.91471 0.90433 0.0
H1012 H 0.86829 0.84334 0.90125 0.0
H1013 H 0.86873 0.84027 0.94401 0.0
C1014 C 0.81845 0.87476 0.97372 0.0
C1015 C 0.7917 0.89509 0.98695 0.0
C1016 C 0.81742 0.87582 0.94906 0.0
C1017 C 0.76272 0.91588 0.9753 0.0
C1018 C 0.76057 0.91667 0.95091 0.0
C1019 C 0.78752 0.89831 0.91302 0.0
C1020 C 0.81666 0.87925 0.8996 0.0
C1021 C 0.78812 0.89693 0.9376 0.0
C1022 C 0.84582 0.85842 0.91117 0.0
C1023 C 0.84592 0.85658 0.93562 0.0
H1024 H 0.60852 0.61714 0.49735 0.0
H1025 H 0.7524 0.65947 0.48067 0.0
H1026 H 0.73591 0.65246 0.43896 0.0
H1027 H 0.68332 0.63121 0.40729 0.0
H1028 H 0.54083 0.58772 0.42451 0.0
H1029 H 0.55462 0.59779 0.46589 0.0
C1030 C 0.63644 0.62477 0.48462 0.0
C1031 C 0.68187 0.63861 0.49223 0.0
C1032 C 0.62719 0.62019 0.46072 0.0
C1033 C 0.71693 0.64894 0.47538 0.0
C1034 C 0.70771 0.64474 0.4515 0.0
C1035 C 0.655 0.62427 0.42008 0.0
C1036 C 0.61132 0.60849 0.41279 0.0
C1037 C 0.66333 0.63 0.44397 0.0
C1038 C 0.57519 0.59947 0.42964 0.0
C1039 C 0.58292 0.60533 0.45332 0.0
H1040 H 0.42062 0.62711 0.04189 0.0
H1041 H 0.25933 0.64305 0.05088 0.0
H1042 H 0.27388 0.65527 0.09197 0.0
H1043 H 0.33358 0.66417 0.12484 0.0
H1044 H 0.49539 0.65125 0.11494 0.0
H1045 H 0.47976 0.63468 0.0749 0.0
C1046 C 0.38861 0.63286 0.05297 0.0
C1047 C 0.33899 0.63416 0.04341 0.0
C1048 C 0.39747 0.64041 0.07642 0.0
C1049 C 0.29793 0.6421 0.05783 0.0
C1050 C 0.30622 0.64902 0.08132 0.0
C1051 C 0.36512 0.65727 0.11393 0.0
C1052 C 0.41544 0.65863 0.12268 0.0
C1053 C 0.35592 0.64863 0.09073 0.0
C1054 C 0.45634 0.65018 0.10844 0.0
C1055 C 0.44741 0.64083 0.08559 0.0
H1056 H 0.22293 0.84628 0.54495 0.0
H1057 H 0.07069 0.84821 0.51557 0.0
H1058 H 0.03336 0.84137 0.5545 0.0
H1059 H 0.04417 0.83379 0.59688 0.0
H1060 H 0.1963 0.8339 0.62646 0.0
H1061 H 0.23364 0.84099 0.58755 0.0
C1062 C 0.1816 0.84517 0.54713 0.0
C1063 C 0.14957 0.84756 0.52745 0.0
C1064 C 0.16046 0.84156 0.56958 0.0
C1065 C 0.09607 0.84654 0.53049 0.0
C1066 C 0.07475 0.84251 0.55272 0.0
C1067 C 0.08548 0.83533 0.59473 0.0
C1068 C 0.11753 0.83314 0.61442 0.0
C1069 C 0.10657 0.83981 0.57237 0.0
C1070 C 0.17094 0.83561 0.61153 0.0
C1071 C 0.19226 0.83957 0.5893 0.0
H1072 H 0.17596 0.2418 0.36881 0.0
H1073 H 0.07589 0.31 0.34817 0.0
H1074 H 0.03169 0.27786 0.32063 0.0
H1075 H 0.02432 0.23089 0.30114 0.0
H1076 H 0.12771 0.16352 0.32034 0.0
H1077 H 0.16823 0.19471 0.34947 0.0
C1078 C 0.14407 0.24941 0.35844 0.0
C1079 C 0.12878 0.27803 0.36053 0.0
C1080 C 0.11992 0.23105 0.34221 0.0
C1081 C 0.08806 0.28795 0.34679 0.0
C1082 C 0.06294 0.26963 0.33106 0.0
C1083 C 0.05543 0.22304 0.31188 0.0
C1084 C 0.0731 0.19504 0.30862 0.0
C1085 C 0.07892 0.24123 0.32842 0.0
C1086 C 0.11378 0.18513 0.32241 0.0
C1087 C 0.13681 0.2029 0.33914 0.0
H1088 H 0.32685 0.27225 0.8719 0.0
H1089 H 0.44046 0.20784 0.85965 0.0
H1090 H 0.48236 0.23852 0.8304 0.0
H1091 H 0.48275 0.282 0.80613 0.0
H1092 H 0.36905 0.34654 0.81788 0.0
H1093 H 0.33043 0.31737 0.849 0.0
C1094 C 0.36141 0.26531 0.86315 0.0
C1095 C 0.38077 0.23795 0.86796 0.0
C1096 C 0.38464 0.28283 0.84592 0.0
C1097 C 0.42504 0.22888 0.85623 0.0
C1098 C 0.4488 0.24633 0.83943 0.0
C1099 C 0.45014 0.28991 0.81581 0.0
C1100 C 0.42898 0.31643 0.80977 0.0
C1101 C 0.42837 0.2731 0.83379 0.0
C1102 C 0.38592 0.32609 0.8221 0.0
C1103 C 0.36396 0.30949 0.83999 0.0
H1104 H 0.68214 0.28138 0.66407 0.0
H1105 H 0.63446 0.20466 0.70122 0.0
H1106 H 0.58485 0.23316 0.72826 0.0
H1107 H 0.55389 0.27975 0.7415 0.0
H1108 H 0.59211 0.35595 0.70215 0.0
H1109 H 0.64639 0.32793 0.67589 0.0
C1110 C 0.66044 0.27082 0.67788 0.0
C1111 C 0.66323 0.24086 0.68076 0.0
C1112 C 0.63046 0.28731 0.69314 0.0
C1113 C 0.63467 0.22772 0.69889 0.0
C1114 C 0.60584 0.24397 0.71436 0.0
C1115 C 0.57449 0.29014 0.72725 0.0
C1116 C 0.56972 0.31973 0.72375 0.0
C1117 C 0.60373 0.27376 0.71177 0.0
C1118 C 0.5956 0.33308 0.70507 0.0
C1119 C 0.62643 0.31709 0.69008 0.0
H1120 H 0.83302 0.23245 0.16379 0.0
H1121 H 0.90669 0.30755 0.19366 0.0
H1122 H 0.94813 0.2779 0.22285 0.0
H1123 H 0.96531 0.23049 0.23967 0.0
H1124 H 0.90163 0.15491 0.20692 0.0
H1125 H 0.85424 0.18475 0.17917 0.0
C1126 C 0.85863 0.24235 0.17645 0.0
C1127 C 0.86582 0.27235 0.17661 0.0
C1128 C 0.88385 0.22505 0.19285 0.0
C1129 C 0.89901 0.28466 0.1934 0.0
C1130 C 0.92314 0.2677 0.21009 0.0
C1131 C 0.94064 0.22074 0.22652 0.0
C1132 C 0.93625 0.19082 0.22524 0.0
C1133 C 0.9157 0.23792 0.21004 0.0
C1134 C 0.90512 0.17806 0.20806 0.0
C1135 C 0.87831 0.19507 0.19222 0.0
H1136 H 0.90785 0.71325 0.69483 0.0
H1137 H 0.79103 0.7687 0.66781 0.0
H1138 H 0.82831 0.80923 0.68963 0.0
H1139 H 0.89428 0.82865 0.71675 0.0
H1140 H 0.01212 0.77288 0.74243 0.0
H1141 H 0.97403 0.73257 0.72103 0.0
C1142 C 0.89059 0.73423 0.69372 0.0
C1143 C 0.84672 0.73802 0.67983 0.0
C1144 C 0.91225 0.75727 0.7062 0.0
C1145 C 0.82509 0.76537 0.67826 0.0
C1146 C 0.84617 0.78845 0.69085 0.0
C1147 C 0.91121 0.80757 0.71773 0.0
C1148 C 0.95568 0.80356 0.73118 0.0
C1149 C 0.88962 0.78461 0.70498 0.0
C1150 C 0.97788 0.77637 0.73214 0.0
C1151 C 0.95618 0.75337 0.7199 0.0
H1152 H 0.63199 0.74252 0.14739 0.0
H1153 H 0.71696 0.78672 0.20177 0.0
H1154 H 0.68183 0.75412 0.23079 0.0
H1155 H 0.62362 0.71471 0.24132 0.0
H1156 H 0.55042 0.66476 0.18716 0.0
H1157 H 0.58381 0.69802 0.15762 0.0
C1158 C 0.64366 0.74479 0.16548 0.0
C1159 C 0.67568 0.76802 0.17225 0.0
C1160 C 0.62505 0.725 0.18228 0.0
C1161 C 0.69043 0.77013 0.19593 0.0
C1162 C 0.6708 0.75121 0.21267 0.0
C1163 C 0.61624 0.71045 0.22311 0.0
C1164 C 0.58487 0.68705 0.21671 0.0
C1165 C 0.63746 0.72888 0.20612 0.0
C1166 C 0.57434 0.68265 0.1928 0.0
C1167 C 0.59361 0.70164 0.17581 0.0
H1168 H 0.3545 0.78269 0.31923 0.0
H1169 H 0.43589 0.7643 0.38311 0.0
H1170 H 0.48 0.72494 0.3637 0.0
H1171 H 0.4959 0.69631 0.32842 0.0
H1172 H 0.41614 0.71662 0.26436 0.0
H1173 H 0.37183 0.75524 0.28402 0.0
C1174 C 0.38247 0.77041 0.32888 0.0
C1175 C 0.3922 0.77665 0.35255 0.0
C1176 C 0.40815 0.74826 0.31757 0.0
C1177 C 0.42742 0.75987 0.36492 0.0
C1178 C 0.45288 0.73749 0.35379 0.0
C1179 C 0.469 0.70922 0.31869 0.0
C1180 C 0.45939 0.70341 0.29491 0.0
C1181 C 0.44363 0.73157 0.33009 0.0
C1182 C 0.42435 0.72046 0.28265 0.0
C1183 C 0.39886 0.74258 0.29389 0.0
H1184 H 0.15002 0.71911 0.83669 0.0
H1185 H 0.19286 0.78172 0.8892 0.0
H1186 H 0.15665 0.81957 0.86536 0.0
H1187 H 0.11243 0.83519 0.82959 0.0
H1188 H 0.07934 0.77372 0.7753 0.0
H1189 H 0.11426 0.73527 0.7995 0.0
C1190 C 0.15276 0.74102 0.84288 0.0
C1191 C 0.17403 0.74713 0.86506 0.0
C1192 C 0.13398 0.76303 0.82861 0.0
C1193 C 0.17557 0.77588 0.87265 0.0
C1194 C 0.15539 0.79775 0.85886 0.0
C1195 C 0.11339 0.81336 0.82306 0.0
C1196 C 0.09333 0.80709 0.80084 0.0
C1197 C 0.13438 0.79157 0.83687 0.0
C1198 C 0.09497 0.77893 0.79234 0.0
C1199 C 0.11458 0.75698 0.80623 0.0
loop_
_geom_bond_atom_site_label_1
_geom_bond_atom_site_label_2
_geom_bond_distance
_geom_bond_site_symmetry_2
_ccdc_geom_bond_type
C0 C1 1.391 . S
C0 C4 1.391 . S
C0 H42 0.948 . S
C1 C0 1.391 . S
C1 C2 1.391 . S
C2 C1 1.391 . S
C2 H58 0.947 . S
C2 C59 1.392 . S
C3 C4 1.391 . S
C3 C7 1.397 . S
C3 C59 1.419 . S
C4 C0 1.391 . S
C4 C3 1.391 . S
C4 C5 1.399 . S
C5 C4 1.399 . S
C5 C8 1.396 . S
C5 C17 1.453 . S
C5 C18 1.684 . S
H6 C30 0.948 . S
C7 C3 1.397 . S
C7 C8 1.394 . S
C7 C26 1.723 . S
C8 C5 1.396 . S
C8 C7 1.394 . S
C8 C38 1.723 . S
H9 C32 0.947 . S
H10 C33 0.948 . S
H11 C39 0.982 . S
H12 C40 0.979 . S
H13 C40 0.980 . S
H14 C40 0.983 . S
H15 C39 0.979 . S
H16 C39 0.977 . S
C17 C5 1.453 . S
C17 H46 0.982 . S
C17 H47 0.979 . S
C17 H48 0.977 . S
C18 C5 1.684 . S
C18 H43 0.979 . S
C18 H44 0.980 . S
C18 H45 0.983 . S
C19 C20 1.391 . S
C19 C24 1.391 . S
C19 H49 0.948 . S
C20 C19 1.391 . S
C20 C21 1.391 . S
C21 C20 1.391 . S
C21 C22 1.392 . S
C21 H50 0.947 . S
C22 C21 1.392 . S
C22 C23 1.419 . S
C22 H51 0.948 . S
C23 C22 1.419 . S
C23 C24 1.391 . S
C23 C27 1.397 . S
C24 C19 1.391 . S
C24 C23 1.391 . S
C24 C25 1.399 . S
C25 C24 1.399 . S
C25 C26 1.396 . S
C25 C28 1.453 . S
C25 C29 1.684 . S
C26 C7 1.723 . S
C26 C25 1.396 . S
C26 C27 1.394 . S
C27 C23 1.397 . S
C27 C26 1.394 . S
C27 C37 1.723 . S
C28 C25 1.453 . S
C28 H52 0.982 . S
C28 H53 0.979 . S
C28 H54 0.977 . S
C29 C25 1.684 . S
C29 H55 0.979 . S
C29 H56 0.980 . S
C29 H57 0.983 . S
C30 H6 0.948 . S
C30 C31 1.391 . S
C30 C35 1.391 . S
C31 C30 1.391 . S
C31 C32 1.391 . S
C32 H9 0.947 . S
C32 C31 1.391 . S
C32 C33 1.392 . S
C33 H10 0.948 . S
C33 C32 1.392 . S
C33 C34 1.419 . S
C34 C33 1.419 . S
C34 C35 1.391 . S
C34 C38 1.397 . S
C35 C30 1.391 . S
C35 C34 1.391 . S
C35 C36 1.399 . S
C36 C35 1.399 . S
C36 C37 1.396 . S
C36 C39 1.453 . S
C36 C40 1.684 . S
C37 C27 1.723 . S
C37 C36 1.396 . S
C37 C38 1.394 . S
C38 C8 1.723 . S
C38 C34 1.397 . S
C38 C37 1.394 . S
C39 H11 0.982 . S
C39 H15 0.979 . S
C39 H16 0.977 . S
C39 C36 1.453 . S
C40 H12 0.979 . S
C40 H13 0.980 . S
C40 H14 0.983 . S
C40 C36 1.684 . S
H41 C59 0.948 . S
H42 C0 0.948 . S
H43 C18 0.979 . S
H44 C18 0.980 . S
H45 C18 0.983 . S
H46 C17 0.982 . S
H47 C17 0.979 . S
H48 C17 0.977 . S
H49 C19 0.948 . S
H50 C21 0.947 . S
H51 C22 0.948 . S
H52 C28 0.982 . S
H53 C28 0.979 . S
H54 C28 0.977 . S
H55 C29 0.979 . S
H56 C29 0.980 . S
H57 C29 0.983 . S
H58 C2 0.947 . S
C59 C2 1.392 . S
C59 C3 1.419 . S
C59 H41 0.948 . S
C60 C61 1.391 . S
C60 C64 1.391 . S
C60 H102 0.948 . S
C61 C60 1.391 . S
C61 C62 1.391 . S
C62 C61 1.391 . S
C62 H118 0.947 . S
C62 C119 1.392 . S
C63 C64 1.391 . S
C63 C67 1.397 . S
C63 C119 1.419 . S
C64 C60 1.391 . S
C64 C63 1.391 . S
C64 C65 1.399 . S
C65 C64 1.399 . S
C65 C68 1.396 . S
C65 C77 1.453 . S
C65 C78 1.684 . S
H66 C90 0.948 . S
C67 C63 1.397 . S
C67 C68 1.394 . S
C67 C86 1.723 . S
C68 C65 1.396 . S
C68 C67 1.394 . S
C68 C98 1.723 . S
H69 C92 0.947 . S
H70 C93 0.948 . S
H71 C99 0.982 . S
H72 C100 0.979 . S
H73 C100 0.980 . S
H74 C100 0.983 . S
H75 C99 0.979 . S
H76 C99 0.977 . S
C77 C65 1.453 . S
C77 H106 0.982 . S
C77 H107 0.979 . S
C77 H108 0.977 . S
C78 C65 1.684 . S
C78 H103 0.979 . S
C78 H104 0.980 . S
C78 H105 0.983 . S
C79 C80 1.391 . S
C79 C84 1.391 . S
C79 H109 0.948 . S
C80 C79 1.391 . S
C80 C81 1.391 . S
C81 C80 1.391 . S
C81 C82 1.392 . S
C81 H110 0.947 . S
C82 C81 1.392 . S
C82 C83 1.419 . S
C82 H111 0.948 . S
C83 C82 1.419 . S
C83 C84 1.391 . S
C83 C87 1.397 . S
C84 C79 1.391 . S
C84 C83 1.391 . S
C84 C85 1.399 . S
C85 C84 1.399 . S
C85 C86 1.396 . S
C85 C88 1.453 . S
C85 C89 1.684 . S
C86 C67 1.723 . S
C86 C85 1.396 . S
C86 C87 1.394 . S
C87 C83 1.397 . S
C87 C86 1.394 . S
C87 C97 1.723 . S
C88 C85 1.453 . S
C88 H112 0.982 . S
C88 H113 0.979 . S
C88 H114 0.977 . S
C89 C85 1.684 . S
C89 H115 0.979 . S
C89 H116 0.980 . S
C89 H117 0.983 . S
C90 H66 0.948 . S
C90 C91 1.391 . S
C90 C95 1.391 . S
C91 C90 1.391 . S
C91 C92 1.391 . S
C92 H69 0.947 . S
C92 C91 1.391 . S
C92 C93 1.392 . S
C93 H70 0.948 . S
C93 C92 1.392 . S
C93 C94 1.419 . S
C94 C93 1.419 . S
C94 C95 1.391 . S
C94 C98 1.397 . S
C95 C90 1.391 . S
C95 C94 1.391 . S
C95 C96 1.399 . S
C96 C95 1.399 . S
C96 C97 1.396 . S
C96 C99 1.453 . S
C96 C100 1.684 . S
C97 C87 1.723 . S
C97 C96 1.396 . S
C97 C98 1.394 . S
C98 C68 1.723 . S
C98 C94 1.397 . S
C98 C97 1.394 . S
C99 H71 0.982 . S
C99 H75 0.979 . S
C99 H76 0.977 . S
C99 C96 1.453 . S
C100 H72 0.979 . S
C100 H73 0.980 . S
C100 H74 0.983 . S
C100 C96 1.684 . S
H101 C119 0.948 . S
H102 C60 0.948 . S
H103 C78 0.979 . S
H104 C78 0.980 . S
H105 C78 0.983 . S
H106 C77 0.982 . S
H107 C77 0.979 . S
H108 C77 0.977 . S
H109 C79 0.948 . S
H110 C81 0.947 . S
H111 C82 0.948 . S
H112 C88 0.982 . S
H113 C88 0.979 . S
H114 C88 0.977 . S
H115 C89 0.979 . S
H116 C89 0.980 . S
H117 C89 0.983 . S
H118 C62 0.947 . S
C119 C62 1.392 . S
C119 C63 1.419 . S
C119 H101 0.948 . S
C120 C121 1.391 . S
C120 C124 1.391 . S
C120 H162 0.948 . S
C121 C120 1.391 . S
C121 C122 1.391 . S
C122 C121 1.391 . S
C122 H178 0.947 . S
C122 C179 1.392 . S
C123 C124 1.391 . S
C123 C127 1.397 . S
C123 C179 1.419 . S
C124 C120 1.391 . S
C124 C123 1.391 . S
C124 C125 1.399 . S
C125 C124 1.399 . S
C125 C128 1.396 . S
C125 C137 1.453 . S
C125 C138 1.684 . S
H126 C150 0.948 . S
C127 C123 1.397 . S
C127 C128 1.394 . S
C127 C146 1.723 . S
C128 C125 1.396 . S
C128 C127 1.394 . S
C128 C158 1.723 . S
H129 C152 0.947 . S
H130 C153 0.948 . S
H131 C159 0.982 . S
H132 C160 0.979 . S
H133 C160 0.980 . S
H134 C160 0.983 . S
H135 C159 0.979 . S
H136 C159 0.977 . S
C137 C125 1.453 . S
C137 H166 0.982 . S
C137 H167 0.979 . S
C137 H168 0.977 . S
C138 C125 1.684 . S
C138 H163 0.979 . S
C138 H164 0.980 . S
C138 H165 0.983 . S
C139 C140 1.391 . S
C139 C144 1.391 . S
C139 H169 0.948 . S
C140 C139 1.391 . S
C140 C141 1.391 . S
C141 C140 1.391 . S
C141 C142 1.392 . S
C141 H170 0.947 . S
C142 C141 1.392 . S
C142 C143 1.419 . S
C142 H171 0.948 . S
C143 C142 1.419 . S
C143 C144 1.391 . S
C143 C147 1.397 . S
C144 C139 1.391 . S
C144 C143 1.391 . S
C144 C145 1.399 . S
C145 C144 1.399 . S
C145 C146 1.396 . S
C145 C148 1.453 . S
C145 C149 1.684 . S
C146 C127 1.723 . S
C146 C145 1.396 . S
C146 C147 1.394 . S
C147 C143 1.397 . S
C147 C146 1.394 . S
C147 C157 1.723 . S
C148 C145 1.453 . S
C148 H172 0.982 . S
C148 H173 0.979 . S
C148 H174 0.977 . S
C149 C145 1.684 . S
C149 H175 0.979 . S
C149 H176 0.980 . S
C149 H177 0.983 . S
C150 H126 0.948 . S
C150 C151 1.391 . S
C150 C155 1.391 . S
C151 C150 1.391 . S
C151 C152 1.391 . S
C152 H129 0.947 . S
C152 C151 1.391 . S
C152 C153 1.392 . S
C153 H130 0.948 . S
C153 C152 1.392 . S
C153 C154 1.419 . S
C154 C153 1.419 . S
C154 C155 1.391 . S
C154 C158 1.397 . S
C155 C150 1.391 . S
C155 C154 1.391 . S
C155 C156 1.399 . S
C156 C155 1.399 . S
C156 C157 1.396 . S
C156 C159 1.453 . S
C156 C160 1.684 . S
C157 C147 1.723 . S
C157 C156 1.396 . S
C157 C158 1.394 . S
C158 C128 1.723 . S
C158 C154 1.397 . S
C158 C157 1.394 . S
C159 H131 0.982 . S
C159 H135 0.979 . S
C159 H136 0.977 . S
C159 C156 1.453 . S
C160 H132 0.979 . S
C160 H133 0.980 . S
C160 H134 0.983 . S
C160 C156 1.684 . S
H161 C179 0.948 . S
H162 C120 0.948 . S
H163 C138 0.979 . S
H164 C138 0.980 . S
H165 C138 0.983 . S
H166 C137 0.982 . S
H167 C137 0.979 . S
H168 C137 0.977 . S
H169 C139 0.948 . S
H170 C141 0.947 . S
H171 C142 0.948 . S
H172 C148 0.982 . S
H173 C148 0.979 . S
H174 C148 0.977 . S
H175 C149 0.979 . S
H176 C149 0.980 . S
H177 C149 0.983 . S
H178 C122 0.947 . S
C179 C122 1.392 . S
C179 C123 1.419 . S
C179 H161 0.948 . S
C180 C181 1.391 . S
C180 C184 1.391 . S
C180 H222 0.948 . S
C181 C180 1.391 . S
C181 C182 1.391 . S
C182 C181 1.391 . S
C182 H238 0.947 . S
C182 C239 1.392 . S
C183 C184 1.391 . S
C183 C187 1.397 . S
C183 C239 1.419 . S
C184 C180 1.391 . S
C184 C183 1.391 . S
C184 C185 1.399 . S
C185 C184 1.399 . S
C185 C188 1.396 . S
C185 C197 1.453 . S
C185 C198 1.684 . S
H186 C210 0.948 . S
C187 C183 1.397 . S
C187 C188 1.394 . S
C187 C206 1.723 . S
C188 C185 1.396 . S
C188 C187 1.394 . S
C188 C218 1.723 . S
H189 C212 0.947 . S
H190 C213 0.948 . S
H191 C219 0.982 . S
H192 C220 0.979 . S
H193 C220 0.980 . S
H194 C220 0.983 . S
H195 C219 0.979 . S
H196 C219 0.977 . S
C197 C185 1.453 . S
C197 H226 0.982 . S
C197 H227 0.979 . S
C197 H228 0.977 . S
C198 C185 1.684 . S
C198 H223 0.979 . S
C198 H224 0.980 . S
C198 H225 0.983 . S
C199 C200 1.391 . S
C199 C204 1.391 . S
C199 H229 0.948 . S
C200 C199 1.391 . S
C200 C201 1.391 . S
C201 C200 1.391 . S
C201 C202 1.392 . S
C201 H230 0.947 . S
C202 C201 1.392 . S
C202 C203 1.419 . S
C202 H231 0.948 . S
C203 C202 1.419 . S
C203 C204 1.391 . S
C203 C207 1.397 . S
C204 C199 1.391 . S
C204 C203 1.391 . S
C204 C205 1.399 . S
C205 C204 1.399 . S
C205 C206 1.396 . S
C205 C208 1.453 . S
C205 C209 1.684 . S
C206 C187 1.723 . S
C206 C205 1.396 . S
C206 C207 1.394 . S
C207 C203 1.397 . S
C207 C206 1.394 . S
C207 C217 1.723 . S
C208 C205 1.453 . S
C208 H232 0.982 . S
C208 H233 0.979 . S
C208 H234 0.977 . S
C209 C205 1.684 . S
C209 H235 0.979 . S
C209 H236 0.980 . S
C209 H237 0.983 . S
C210 H186 0.948 . S
C210 C211 1.391 . S
C210 C215 1.391 . S
C211 C210 1.391 . S
C211 C212 1.391 . S
C212 H189 0.947 . S
C212 C211 1.391 . S
C212 C213 1.392 . S
C213 H190 0.948 . S
C213 C212 1.392 . S
C213 C214 1.419 . S
C214 C213 1.419 . S
C214 C215 1.391 . S
C214 C218 1.397 . S
C215 C210 1.391 . S
C215 C214 1.391 . S
C215 C216 1.399 . S
C216 C215 1.399 . S
C216 C217 1.396 . S
C216 C219 1.453 . S
C216 C220 1.684 . S
C217 C207 1.723 . S
C217 C216 1.396 . S
C217 C218 1.394 . S
C218 C188 1.723 . S
C218 C214 1.397 . S
C218 C217 1.394 . S
C219 H191 0.982 . S
C219 H195 0.979 . S
C219 H196 0.977 . S
C219 C216 1.453 . S
C220 H192 0.979 . S
C220 H193 0.980 . S
C220 H194 0.983 . S
C220 C216 1.684 . S
H221 C239 0.948 . S
H222 C180 0.948 . S
H223 C198 0.979 . S
H224 C198 0.980 . S
H225 C198 0.983 . S
H226 C197 0.982 . S
H227 C197 0.979 . S
H228 C197 0.977 . S
H229 C199 0.948 . S
H230 C201 0.947 . S
H231 C202 0.948 . S
H232 C208 0.982 . S
H233 C208 0.979 . S
H234 C208 0.977 . S
H235 C209 0.979 . S
H236 C209 0.980 . S
H237 C209 0.983 . S
H238 C182 0.947 . S
C239 C182 1.392 . S
C239 C183 1.419 . S
C239 H221 0.948 . S
C240 C241 1.391 . S
C240 C244 1.391 . S
C240 H282 0.948 . S
C241 C240 1.391 . S
C241 C242 1.391 . S
C242 C241 1.391 . S
C242 H298 0.947 . S
C242 C299 1.392 . S
C243 C244 1.391 . S
C243 C247 1.397 . S
C243 C299 1.419 . S
C244 C240 1.391 . S
C244 C243 1.391 . S
C244 C245 1.399 . S
C245 C244 1.399 . S
C245 C248 1.396 . S
C245 C257 1.453 . S
C245 C258 1.684 . S
H246 C270 0.948 . S
C247 C243 1.397 . S
C247 C248 1.394 . S
C247 C266 1.723 . S
C248 C245 1.396 . S
C248 C247 1.394 . S
C248 C278 1.723 . S
H249 C272 0.947 . S
H250 C273 0.948 . S
H251 C279 0.982 . S
H252 C280 0.979 . S
H253 C280 0.980 . S
H254 C280 0.983 . S
H255 C279 0.979 . S
H256 C279 0.977 . S
C257 C245 1.453 . S
C257 H286 0.982 . S
C257 H287 0.979 . S
C257 H288 0.977 . S
C258 C245 1.684 . S
C258 H283 0.979 . S
C258 H284 0.980 . S
C258 H285 0.983 . S
C259 C260 1.391 . S
C259 C264 1.391 . S
C259 H289 0.948 . S
C260 C259 1.391 . S
C260 C261 1.391 . S
C261 C260 1.391 . S
C261 C262 1.392 . S
C261 H290 0.947 . S
C262 C261 1.392 . S
C262 C263 1.419 . S
C262 H291 0.948 . S
C263 C262 1.419 . S
C263 C264 1.391 . S
C263 C267 1.397 . S
C264 C259 1.391 . S
C264 C263 1.391 . S
C264 C265 1.399 . S
C265 C264 1.399 . S
C265 C266 1.396 . S
C265 C268 1.453 . S
C265 C269 1.684 . S
C266 C247 1.723 . S
C266 C265 1.396 . S
C266 C267 1.394 . S
C267 C263 1.397 . S
C267 C266 1.394 . S
C267 C277 1.723 . S
C268 C265 1.453 . S
C268 H292 0.982 . S
C268 H293 0.979 . S
C268 H294 0.977 . S
C269 C265 1.684 . S
C269 H295 0.979 . S
C269 H296 0.980 . S
C269 H297 0.983 . S
C270 H246 0.948 . S
C270 C271 1.391 . S
C270 C275 1.391 . S
C271 C270 1.391 . S
C271 C272 1.391 . S
C272 H249 0.947 . S
C272 C271 1.391 . S
C272 C273 1.392 . S
C273 H250 0.948 . S
C273 C272 1.392 . S
C273 C274 1.419 . S
C274 C273 1.419 . S
C274 C275 1.391 . S
C274 C278 1.397 . S
C275 C270 1.391 . S
C275 C274 1.391 . S
C275 C276 1.399 . S
C276 C275 1.399 . S
C276 C277 1.396 . S
C276 C279 1.453 . S
C276 C280 1.684 . S
C277 C267 1.723 . S
C277 C276 1.396 . S
C277 C278 1.394 . S
C278 C248 1.723 . S
C278 C274 1.397 . S
C278 C277 1.394 . S
C279 H251 0.982 . S
C279 H255 0.979 . S
C279 H256 0.977 . S
C279 C276 1.453 . S
C280 H252 0.979 . S
C280 H253 0.980 . S
C280 H254 0.983 . S
C280 C276 1.684 . S
H281 C299 0.948 . S
H282 C240 0.948 . S
H283 C258 0.979 . S
H284 C258 0.980 . S
H285 C258 0.983 . S
H286 C257 0.982 . S
H287 C257 0.979 . S
H288 C257 0.977 . S
H289 C259 0.948 . S
H290 C261 0.947 . S
H291 C262 0.948 . S
H292 C268 0.982 . S
H293 C268 0.979 . S
H294 C268 0.977 . S
H295 C269 0.979 . S
H296 C269 0.980 . S
H297 C269 0.983 . S
H298 C242 0.947 . S
C299 C242 1.392 . S
C299 C243 1.419 . S
C299 H281 0.948 . S
C300 C301 1.391 . S
C300 C304 1.391 . S
C300 H342 0.948 . S
C301 C300 1.391 . S
C301 C302 1.391 . S
C302 C301 1.391 . S
C302 H358 0.947 . S
C302 C359 1.392 . S
C303 C304 1.391 . S
C303 C307 1.397 . S
C303 C359 1.419 . S
C304 C300 1.391 . S
C304 C303 1.391 . S
C304 C305 1.399 . S
C305 C304 1.399 . S
C305 C308 1.396 . S
C305 C317 1.453 . S
C305 C318 1.684 . S
H306 C330 0.948 . S
C307 C303 1.397 . S
C307 C308 1.394 . S
C307 C326 1.723 . S
C308 C305 1.396 . S
C308 C307 1.394 . S
C308 C338 1.723 . S
H309 C332 0.947 . S
H310 C333 0.948 . S
H311 C339 0.982 . S
H312 C340 0.979 . S
H313 C340 0.980 . S
H314 C340 0.983 . S
H315 C339 0.979 . S
H316 C339 0.977 . S
C317 C305 1.453 . S
C317 H346 0.982 . S
C317 H347 0.979 . S
C317 H348 0.977 . S
C318 C305 1.684 . S
C318 H343 0.979 . S
C318 H344 0.980 . S
C318 H345 0.983 . S
C319 C320 1.391 . S
C319 C324 1.391 . S
C319 H349 0.948 . S
C320 C319 1.391 . S
C320 C321 1.391 . S
C321 C320 1.391 . S
C321 C322 1.392 . S
C321 H350 0.947 . S
C322 C321 1.392 . S
C322 C323 1.419 . S
C322 H351 0.948 . S
C323 C322 1.419 . S
C323 C324 1.391 . S
C323 C327 1.397 . S
C324 C319 1.391 . S
C324 C323 1.391 . S
C324 C325 1.399 . S
C325 C324 1.399 . S
C325 C326 1.396 . S
C325 C328 1.453 . S
C325 C329 1.684 . S
C326 C307 1.723 . S
C326 C325 1.396 . S
C326 C327 1.394 . S
C327 C323 1.397 . S
C327 C326 1.394 . S
C327 C337 1.723 . S
C328 C325 1.453 . S
C328 H352 0.982 . S
C328 H353 0.979 . S
C328 H354 0.977 . S
C329 C325 1.684 . S
C329 H355 0.979 . S
C329 H356 0.980 . S
C329 H357 0.983 . S
C330 H306 0.948 . S
C330 C331 1.391 . S
C330 C335 1.391 . S
C331 C330 1.391 . S
C331 C332 1.391 . S
C332 H309 0.947 . S
C332 C331 1.391 . S
C332 C333 1.392 . S
C333 H310 0.948 . S
C333 C332 1.392 . S
C333 C334 1.419 . S
C334 C333 1.419 . S
C334 C335 1.391 . S
C334 C338 1.397 . S
C335 C330 1.391 . S
C335 C334 1.391 . S
C335 C336 1.399 . S
C336 C335 1.399 . S
C336 C337 1.396 . S
C336 C339 1.453 . S
C336 C340 1.684 . S
C337 C327 1.723 . S
C337 C336 1.396 . S
C337 C338 1.394 . S
C338 C308 1.723 . S
C338 C334 1.397 . S
C338 C337 1.394 . S
C339 H311 0.982 . S
C339 H315 0.979 . S
C339 H316 0.977 . S
C339 C336 1.453 . S
C340 H312 0.979 . S
C340 H313 0.980 . S
C340 H314 0.983 . S
C340 C336 1.684 . S
H341 C359 0.948 . S
H342 C300 0.948 . S
H343 C318 0.979 . S
H344 C318 0.980 . S
H345 C318 0.983 . S
H346 C317 0.982 . S
H347 C317 0.979 . S
H348 C317 0.977 . S
H349 C319 0.948 . S
H350 C321 0.947 . S
H351 C322 0.948 . S
H352 C328 0.982 . S
H353 C328 0.979 . S
H354 C328 0.977 . S
H355 C329 0.979 . S
H356 C329 0.980 . S
H357 C329 0.983 . S
H358 C302 0.947 . S
C359 C302 1.392 . S
C359 C303 1.419 . S
C359 H341 0.948 . S
C360 C361 1.391 . S
C360 C364 1.391 . S
C360 H402 0.948 . S
C361 C360 1.391 . S
C361 C362 1.391 . S
C362 C361 1.391 . S
C362 H418 0.947 . S
C362 C419 1.392 . S
C363 C364 1.391 . S
C363 C367 1.397 . S
C363 C419 1.419 . S
C364 C360 1.391 . S
C364 C363 1.391 . S
C364 C365 1.399 . S
C365 C364 1.399 . S
C365 C368 1.396 . S
C365 C377 1.453 . S
C365 C378 1.684 . S
H366 C390 0.948 . S
C367 C363 1.397 . S
C367 C368 1.394 . S
C367 C386 1.723 . S
C368 C365 1.396 . S
C368 C367 1.394 . S
C368 C398 1.723 . S
H369 C392 0.947 . S
H370 C393 0.948 . S
H371 C399 0.982 . S
H372 C400 0.979 . S
H373 C400 0.980 . S
H374 C400 0.983 . S
H375 C399 0.979 . S
H376 C399 0.977 . S
C377 C365 1.453 . S
C377 H406 0.982 . S
C377 H407 0.979 . S
C377 H408 0.977 . S
C378 C365 1.684 . S
C378 H403 0.979 . S
C378 H404 0.980 . S
C378 H405 0.983 . S
C379 C380 1.391 . S
C379 C384 1.391 . S
C379 H409 0.948 . S
C380 C379 1.391 . S
C380 C381 1.391 . S
C381 C380 1.391 . S
C381 C382 1.392 . S
C381 H410 0.947 . S
C382 C381 1.392 . S
C382 C383 1.419 . S
C382 H411 0.948 . S
C383 C382 1.419 . S
C383 C384 1.391 . S
C383 C387 1.397 . S
C384 C379 1.391 . S
C384 C383 1.391 . S
C384 C385 1.399 . S
C385 C384 1.399 . S
C385 C386 1.396 . S
C385 C388 1.453 . S
C385 C389 1.684 . S
C386 C367 1.723 . S
C386 C385 1.396 . S
C386 C387 1.394 . S
C387 C383 1.397 . S
C387 C386 1.394 . S
C387 C397 1.723 . S
C388 C385 1.453 . S
C388 H412 0.982 . S
C388 H413 0.979 . S
C388 H414 0.977 . S
C389 C385 1.684 . S
C389 H415 0.979 . S
C389 H416 0.980 . S
C389 H417 0.983 . S
C390 H366 0.948 . S
C390 C391 1.391 . S
C390 C395 1.391 . S
C391 C390 1.391 . S
C391 C392 1.391 . S
C392 H369 0.947 . S
C392 C391 1.391 . S
C392 C393 1.392 . S
C393 H370 0.948 . S
C393 C392 1.392 . S
C393 C394 1.419 . S
C394 C393 1.419 . S
C394 C395 1.391 . S
C394 C398 1.397 . S
C395 C390 1.391 . S
C395 C394 1.391 . S
C395 C396 1.399 . S
C396 C395 1.399 . S
C396 C397 1.396 . S
C396 C399 1.453 . S
C396 C400 1.684 . S
C397 C387 1.723 . S
C397 C396 1.396 . S
C397 C398 1.394 . S
C398 C368 1.723 . S
C398 C394 1.397 . S
C398 C397 1.394 . S
C399 H371 0.982 . S
C399 H375 0.979 . S
C399 H376 0.977 . S
C399 C396 1.453 . S
C400 H372 0.979 . S
C400 H373 0.980 . S
C400 H374 0.983 . S
C400 C396 1.684 . S
H401 C419 0.948 . S
H402 C360 0.948 . S
H403 C378 0.979 . S
H404 C378 0.980 . S
H405 C378 0.983 . S
H406 C377 0.982 . S
H407 C377 0.979 . S
H408 C377 0.977 . S
H409 C379 0.948 . S
H410 C381 0.947 . S
H411 C382 0.948 . S
H412 C388 0.982 . S
H413 C388 0.979 . S
H414 C388 0.977 . S
H415 C389 0.979 . S
H416 C389 0.980 . S
H417 C389 0.983 . S
H418 C362 0.947 . S
C419 C362 1.392 . S
C419 C363 1.419 . S
C419 H401 0.948 . S
C420 C421 1.391 . S
C420 C424 1.391 . S
C420 H462 0.948 . S
C421 C420 1.391 . S
C421 C422 1.391 . S
C422 C421 1.391 . S
C422 H478 0.947 . S
C422 C479 1.392 . S
C423 C424 1.391 . S
C423 C427 1.397 . S
C423 C479 1.419 . S
C424 C420 1.391 . S
C424 C423 1.391 . S
C424 C425 1.399 . S
C425 C424 1.399 . S
C425 C428 1.396 . S
C425 C437 1.453 . S
C425 C438 1.684 . S
H426 C450 0.948 . S
C427 C423 1.397 . S
C427 C428 1.394 . S
C427 C446 1.723 . S
C428 C425 1.396 . S
C428 C427 1.394 . S
C428 C458 1.723 . S
H429 C452 0.947 . S
H430 C453 0.948 . S
H431 C459 0.982 . S
H432 C460 0.979 . S
H433 C460 0.980 . S
H434 C460 0.983 . S
H435 C459 0.979 . S
H436 C459 0.977 . S
C437 C425 1.453 . S
C437 H466 0.982 . S
C437 H467 0.979 . S
C437 H468 0.977 . S
C438 C425 1.684 . S
C438 H463 0.979 . S
C438 H464 0.980 . S
C438 H465 0.983 . S
C439 C440 1.391 . S
C439 C444 1.391 . S
C439 H469 0.948 . S
C440 C439 1.391 . S
C440 C441 1.391 . S
C441 C440 1.391 . S
C441 C442 1.392 . S
C441 H470 0.947 . S
C442 C441 1.392 . S
C442 C443 1.419 . S
C442 H471 0.948 . S
C443 C442 1.419 . S
C443 C444 1.391 . S
C443 C447 1.397 . S
C444 C439 1.391 . S
C444 C443 1.391 . S
C444 C445 1.399 . S
C445 C444 1.399 . S
C445 C446 1.396 . S
C445 C448 1.453 . S
C445 C449 1.684 . S
C446 C427 1.723 . S
C446 C445 1.396 . S
C446 C447 1.394 . S
C447 C443 1.397 . S
C447 C446 1.394 . S
C447 C457 1.723 . S
C448 C445 1.453 . S
C448 H472 0.982 . S
C448 H473 0.979 . S
C448 H474 0.977 . S
C449 C445 1.684 . S
C449 H475 0.979 . S
C449 H476 0.980 . S
C449 H477 0.983 . S
C450 H426 0.948 . S
C450 C451 1.391 . S
C450 C455 1.391 . S
C451 C450 1.391 . S
C451 C452 1.391 . S
C452 H429 0.947 . S
C452 C451 1.391 . S
C452 C453 1.392 . S
C453 H430 0.948 . S
C453 C452 1.392 . S
C453 C454 1.419 . S
C454 C453 1.419 . S
C454 C455 1.391 . S
C454 C458 1.397 . S
C455 C450 1.391 . S
C455 C454 1.391 . S
C455 C456 1.399 . S
C456 C455 1.399 . S
C456 C457 1.396 . S
C456 C459 1.453 . S
C456 C460 1.684 . S
C457 C447 1.723 . S
C457 C456 1.396 . S
C457 C458 1.394 . S
C458 C428 1.723 . S
C458 C454 1.397 . S
C458 C457 1.394 . S
C459 H431 0.982 . S
C459 H435 0.979 . S
C459 H436 0.977 . S
C459 C456 1.453 . S
C460 H432 0.979 . S
C460 H433 0.980 . S
C460 H434 0.983 . S
C460 C456 1.684 . S
H461 C479 0.948 . S
H462 C420 0.948 . S
H463 C438 0.979 . S
H464 C438 0.980 . S
H465 C438 0.983 . S
H466 C437 0.982 . S
H467 C437 0.979 . S
H468 C437 0.977 . S
H469 C439 0.948 . S
H470 C441 0.947 . S
H471 C442 0.948 . S
H472 C448 0.982 . S
H473 C448 0.979 . S
H474 C448 0.977 . S
H475 C449 0.979 . S
H476 C449 0.980 . S
H477 C449 0.983 . S
H478 C422 0.947 . S
C479 C422 1.392 . S
C479 C423 1.419 . S
C479 H461 0.948 . S
Tb480 N509 2.617 . S
Tb480 N515 2.572 . S
Tb480 O524 2.465 . S
Tb480 O525 2.387 . S
Tb480 O527 2.428 . S
Tb480 O528 2.308 . S
Tb480 O532 2.349 . S
Tb480 O535 2.393 . S
Tb480 C544 2.802 . S
C481 N482 1.379 . S
C481 C484 1.416 . S
C481 C488 1.424 . S
N482 C481 1.379 . S
N482 C485 1.334 . S
N482 Tb491 2.617 . S
C483 C485 1.390 . S
C483 C486 1.339 . S
C483 H503 0.930 . S
C484 C481 1.416 . S
C484 C486 1.416 . S
C484 C490 1.448 . S
C485 N482 1.334 . S
C485 C483 1.390 . S
C485 H496 0.930 . S
C486 C483 1.339 . S
C486 C484 1.416 . S
C486 H507 0.930 . S
C487 C488 1.413 . S
C487 C489 1.427 . S
C487 C493 1.416 . S
C488 C481 1.424 . S
C488 C487 1.413 . S
C488 N492 1.361 . S
C489 C487 1.427 . S
C489 C490 1.328 . S
C489 H504 0.929 . S
C490 C484 1.448 . S
C490 C489 1.328 . S
C490 H505 0.930 . S
Tb491 N482 2.617 . S
Tb491 N492 2.572 . S
Tb491 O526 2.349 1_655 S
Tb491 O529 2.393 . S
Tb491 O530 2.465 . S
Tb491 O531 2.387 . S
Tb491 O533 2.428 . S
Tb491 O534 2.308 1_655 S
Tb491 C555 2.802 . S
N492 C488 1.361 . S
N492 Tb491 2.572 . S
N492 C494 1.340 . S
C493 C487 1.416 . S
C493 C495 1.332 . S
C493 H501 0.931 . S
C494 N492 1.340 . S
C494 C495 1.407 . S
C494 H500 0.930 . S
C495 C493 1.332 . S
C495 C494 1.407 . S
C495 H497 0.929 . S
H496 C485 0.930 . S
H497 C495 0.929 . S
H498 C513 0.930 . S
H499 C520 0.929 . S
H500 C494 0.930 . S
H501 C493 0.931 . S
H502 C516 0.930 . S
H503 C483 0.930 . S
H504 C489 0.929 . S
H505 C490 0.930 . S
H506 C511 0.930 . S
H507 C486 0.930 . S
H508 C519 0.931 . S
N509 Tb480 2.617 . S
N509 C510 1.379 . S
N509 C513 1.334 . S
C510 N509 1.379 . S
C510 C512 1.416 . S
C510 C518 1.424 . S
C511 H506 0.930 . S
C511 C513 1.390 . S
C511 C514 1.339 . S
C512 C510 1.416 . S
C512 C514 1.416 . S
C512 C545 1.448 . S
C513 H498 0.930 . S
C513 N509 1.334 . S
C513 C511 1.390 . S
C514 C511 1.339 . S
C514 C512 1.416 . S
C514 H521 0.930 . S
N515 Tb480 2.572 . S
N515 C516 1.340 . S
N515 C518 1.361 . S
C516 H502 0.930 . S
C516 N515 1.340 . S
C516 C520 1.407 . S
C517 C518 1.413 . S
C517 C519 1.416 . S
C517 C546 1.427 . S
C518 C510 1.424 . S
C518 N515 1.361 . S
C518 C517 1.413 . S
C519 H508 0.931 . S
C519 C517 1.416 . S
C519 C520 1.332 . S
C520 H499 0.929 . S
C520 C516 1.407 . S
C520 C519 1.332 . S
H521 C514 0.930 . S
H522 C545 0.930 . S
H523 C546 0.929 . S
O524 Tb480 2.465 . S
O524 C544 1.264 . S
O525 Tb480 2.387 . S
O525 C536 1.264 . S
O526 Tb491 2.349 1_455 S
O526 C536 1.243 . S
O527 Tb480 2.428 . S
O527 C544 1.256 . S
O528 Tb480 2.308 . S
O528 C543 1.266 1_455 S
O529 Tb491 2.393 . S
O529 C543 1.248 . S
O530 Tb491 2.465 . S
O530 C555 1.264 . S
O531 Tb491 2.387 . S
O531 C547 1.264 . S
O532 Tb480 2.349 . S
O532 C547 1.243 1_455 S
O533 Tb491 2.428 . S
O533 C555 1.256 . S
O534 Tb491 2.308 1_455 S
O534 C554 1.266 . S
O535 Tb480 2.393 . S
O535 C554 1.248 . S
C536 O525 1.264 . S
C536 O526 1.243 . S
C537 C540 1.399 . S
C537 C542 1.383 . S
C537 C544 1.496 . S
C538 C539 1.399 . S
C538 C542 1.389 . S
C539 C538 1.399 . S
C539 C541 1.380 . S
C539 H556 0.929 . S
C540 C537 1.399 . S
C540 C541 1.392 . S
C540 H557 0.929 . S
C541 C539 1.380 . S
C541 C540 1.392 . S
C541 H558 0.929 . S
C542 C537 1.383 . S
C542 C538 1.389 . S
C542 H559 0.931 . S
C543 O528 1.266 1_655 S
C543 O529 1.248 . S
C544 Tb480 2.802 . S
C544 O524 1.264 . S
C544 O527 1.256 . S
C544 C537 1.496 . S
C545 C512 1.448 . S
C545 H522 0.930 . S
C545 C546 1.328 . S
C546 C517 1.427 . S
C546 H523 0.929 . S
C546 C545 1.328 . S
C547 O531 1.264 . S
C547 O532 1.243 1_655 S
C548 C551 1.399 . S
C548 C552 1.383 . S
C548 C555 1.496 . S
C549 C550 1.399 . S
C549 C552 1.389 . S
C550 C549 1.399 . S
C550 C553 1.380 . S
C550 H560 0.929 . S
C551 C548 1.399 . S
C551 C553 1.392 . S
C551 H561 0.929 . S
C552 C548 1.383 . S
C552 C549 1.389 . S
C552 H562 0.931 . S
C553 C550 1.380 . S
C553 C551 1.392 . S
C553 H563 0.929 . S
C554 O534 1.266 . S
C554 O535 1.248 . S
C555 Tb491 2.802 . S
C555 O530 1.264 . S
C555 O533 1.256 . S
C555 C548 1.496 . S
H556 C539 0.929 . S
H557 C540 0.929 . S
H558 C541 0.929 . S
H559 C542 0.931 . S
H560 C550 0.929 . S
H561 C551 0.929 . S
H562 C552 0.931 . S
H563 C553 0.929 . S
Tb564 N593 2.617 . S
Tb564 N599 2.572 . S
Tb564 O608 2.465 . S
Tb564 O609 2.387 . S
Tb564 O611 2.428 . S
Tb564 O612 2.308 . S
Tb564 O616 2.349 . S
Tb564 O619 2.393 . S
Tb564 C628 2.802 . S
C565 N566 1.379 . S
C565 C568 1.416 . S
C565 C572 1.424 . S
N566 C565 1.379 . S
N566 C569 1.334 . S
N566 Tb575 2.617 . S
C567 C569 1.390 . S
C567 C570 1.339 . S
C567 H587 0.930 . S
C568 C565 1.416 . S
C568 C570 1.416 . S
C568 C574 1.448 . S
C569 N566 1.334 . S
C569 C567 1.390 . S
C569 H580 0.930 . S
C570 C567 1.339 . S
C570 C568 1.416 . S
C570 H591 0.930 . S
C571 C572 1.413 . S
C571 C573 1.427 . S
C571 C577 1.416 . S
C572 C565 1.424 . S
C572 C571 1.413 . S
C572 N576 1.361 . S
C573 C571 1.427 . S
C573 C574 1.328 . S
C573 H588 0.929 . S
C574 C568 1.448 . S
C574 C573 1.328 . S
C574 H589 0.930 . S
Tb575 N566 2.617 . S
Tb575 N576 2.572 . S
Tb575 O610 2.349 . S
Tb575 O613 2.393 . S
Tb575 O614 2.465 . S
Tb575 O615 2.387 . S
Tb575 O617 2.428 . S
Tb575 O618 2.308 . S
Tb575 C639 2.802 . S
N576 C572 1.361 . S
N576 Tb575 2.572 . S
N576 C578 1.340 . S
C577 C571 1.416 . S
C577 C579 1.332 . S
C577 H585 0.931 . S
C578 N576 1.340 . S
C578 C579 1.407 . S
C578 H584 0.930 . S
C579 C577 1.332 . S
C579 C578 1.407 . S
C579 H581 0.929 . S
H580 C569 0.930 . S
H581 C579 0.929 . S
H582 C597 0.930 . S
H583 C604 0.929 . S
H584 C578 0.930 . S
H585 C577 0.931 . S
H586 C600 0.930 . S
H587 C567 0.930 . S
H588 C573 0.929 . S
H589 C574 0.930 . S
H590 C595 0.930 . S
H591 C570 0.930 . S
H592 C603 0.931 . S
N593 Tb564 2.617 . S
N593 C594 1.379 . S
N593 C597 1.334 . S
C594 N593 1.379 . S
C594 C596 1.416 . S
C594 C602 1.424 . S
C595 H590 0.930 . S
C595 C597 1.390 . S
C595 C598 1.339 . S
C596 C594 1.416 . S
C596 C598 1.416 . S
C596 C629 1.448 . S
C597 H582 0.930 . S
C597 N593 1.334 . S
C597 C595 1.390 . S
C598 C595 1.339 . S
C598 C596 1.416 . S
C598 H605 0.930 . S
N599 Tb564 2.572 . S
N599 C600 1.340 . S
N599 C602 1.361 . S
C600 H586 0.930 . S
C600 N599 1.340 . S
C600 C604 1.407 . S
C601 C602 1.413 . S
C601 C603 1.416 . S
C601 C630 1.427 . S
C602 C594 1.424 . S
C602 N599 1.361 . S
C602 C601 1.413 . S
C603 H592 0.931 . S
C603 C601 1.416 . S
C603 C604 1.332 . S
C604 H583 0.929 . S
C604 C600 1.407 . S
C604 C603 1.332 . S
H605 C598 0.930 . S
H606 C629 0.930 . S
H607 C630 0.929 . S
O608 Tb564 2.465 . S
O608 C628 1.264 . S
O609 Tb564 2.387 . S
O609 C620 1.264 . S
O610 Tb575 2.349 . S
O610 C620 1.243 . S
O611 Tb564 2.428 . S
O611 C628 1.256 . S
O612 Tb564 2.308 . S
O612 C627 1.266 . S
O613 Tb575 2.393 . S
O613 C627 1.248 . S
O614 Tb575 2.465 . S
O614 C639 1.264 . S
O615 Tb575 2.387 . S
O615 C631 1.264 . S
O616 Tb564 2.349 . S
O616 C631 1.243 . S
O617 Tb575 2.428 . S
O617 C639 1.256 . S
O618 Tb575 2.308 . S
O618 C638 1.266 . S
O619 Tb564 2.393 . S
O619 C638 1.248 . S
C620 O609 1.264 . S
C620 O610 1.243 . S
C621 C624 1.399 . S
C621 C626 1.383 . S
C621 C628 1.496 . S
C622 C623 1.399 . S
C622 C626 1.389 . S
C623 C622 1.399 . S
C623 C625 1.380 . S
C623 H640 0.929 . S
C624 C621 1.399 . S
C624 C625 1.392 . S
C624 H641 0.929 . S
C625 C623 1.380 . S
C625 C624 1.392 . S
C625 H642 0.929 . S
C626 C621 1.383 . S
C626 C622 1.389 . S
C626 H643 0.931 . S
C627 O612 1.266 . S
C627 O613 1.248 . S
C628 Tb564 2.802 . S
C628 O608 1.264 . S
C628 O611 1.256 . S
C628 C621 1.496 . S
C629 C596 1.448 . S
C629 H606 0.930 . S
C629 C630 1.328 . S
C630 C601 1.427 . S
C630 H607 0.929 . S
C630 C629 1.328 . S
C631 O615 1.264 . S
C631 O616 1.243 . S
C632 C635 1.399 . S
C632 C636 1.383 . S
C632 C639 1.496 . S
C633 C634 1.399 . S
C633 C636 1.389 . S
C634 C633 1.399 . S
C634 C637 1.380 . S
C634 H644 0.929 . S
C635 C632 1.399 . S
C635 C637 1.392 . S
C635 H645 0.929 . S
C636 C632 1.383 . S
C636 C633 1.389 . S
C636 H646 0.931 . S
C637 C634 1.380 . S
C637 C635 1.392 . S
C637 H647 0.929 . S
C638 O618 1.266 . S
C638 O619 1.248 . S
C639 Tb575 2.802 . S
C639 O614 1.264 . S
C639 O617 1.256 . S
C639 C632 1.496 . S
H640 C623 0.929 . S
H641 C624 0.929 . S
H642 C625 0.929 . S
H643 C626 0.931 . S
H644 C634 0.929 . S
H645 C635 0.929 . S
H646 C636 0.931 . S
H647 C637 0.929 . S
Tb648 N677 2.617 . S
Tb648 N683 2.572 . S
Tb648 O692 2.465 . S
Tb648 O693 2.387 . S
Tb648 O695 2.428 . S
Tb648 O696 2.308 . S
Tb648 O700 2.349 . S
Tb648 O703 2.393 . S
Tb648 C712 2.802 . S
C649 N650 1.379 . S
C649 C652 1.416 . S
C649 C656 1.424 . S
N650 C649 1.379 . S
N650 C653 1.334 . S
N650 Tb659 2.617 . S
C651 C653 1.390 . S
C651 C654 1.339 . S
C651 H671 0.930 . S
C652 C649 1.416 . S
C652 C654 1.416 . S
C652 C658 1.448 . S
C653 N650 1.334 . S
C653 C651 1.390 . S
C653 H664 0.930 . S
C654 C651 1.339 . S
C654 C652 1.416 . S
C654 H675 0.930 . S
C655 C656 1.413 . S
C655 C657 1.427 . S
C655 C661 1.416 . S
C656 C649 1.424 . S
C656 C655 1.413 . S
C656 N660 1.361 . S
C657 C655 1.427 . S
C657 C658 1.328 . S
C657 H672 0.929 . S
C658 C652 1.448 . S
C658 C657 1.328 . S
C658 H673 0.930 . S
Tb659 N650 2.617 . S
Tb659 N660 2.572 . S
Tb659 O694 2.349 1_655 S
Tb659 O697 2.393 . S
Tb659 O698 2.465 . S
Tb659 O699 2.387 . S
Tb659 O701 2.428 . S
Tb659 O702 2.308 1_655 S
Tb659 C723 2.802 . S
N660 C656 1.361 . S
N660 Tb659 2.572 . S
N660 C662 1.340 . S
C661 C655 1.416 . S
C661 C663 1.332 . S
C661 H669 0.931 . S
C662 N660 1.340 . S
C662 C663 1.407 . S
C662 H668 0.930 . S
C663 C661 1.332 . S
C663 C662 1.407 . S
C663 H665 0.929 . S
H664 C653 0.930 . S
H665 C663 0.929 . S
H666 C681 0.930 . S
H667 C688 0.929 . S
H668 C662 0.930 . S
H669 C661 0.931 . S
H670 C684 0.930 . S
H671 C651 0.930 . S
H672 C657 0.929 . S
H673 C658 0.930 . S
H674 C679 0.930 . S
H675 C654 0.930 . S
H676 C687 0.931 . S
N677 Tb648 2.617 . S
N677 C678 1.379 . S
N677 C681 1.334 . S
C678 N677 1.379 . S
C678 C680 1.416 . S
C678 C686 1.424 . S
C679 H674 0.930 . S
C679 C681 1.390 . S
C679 C682 1.339 . S
C680 C678 1.416 . S
C680 C682 1.416 . S
C680 C713 1.448 . S
C681 H666 0.930 . S
C681 N677 1.334 . S
C681 C679 1.390 . S
C682 C679 1.339 . S
C682 C680 1.416 . S
C682 H689 0.930 . S
N683 Tb648 2.572 . S
N683 C684 1.340 . S
N683 C686 1.361 . S
C684 H670 0.930 . S
C684 N683 1.340 . S
C684 C688 1.407 . S
C685 C686 1.413 . S
C685 C687 1.416 . S
C685 C714 1.427 . S
C686 C678 1.424 . S
C686 N683 1.361 . S
C686 C685 1.413 . S
C687 H676 0.931 . S
C687 C685 1.416 . S
C687 C688 1.332 . S
C688 H667 0.929 . S
C688 C684 1.407 . S
C688 C687 1.332 . S
H689 C682 0.930 . S
H690 C713 0.930 . S
H691 C714 0.929 . S
O692 Tb648 2.465 . S
O692 C712 1.264 . S
O693 Tb648 2.387 . S
O693 C704 1.264 . S
O694 Tb659 2.349 1_455 S
O694 C704 1.243 . S
O695 Tb648 2.428 . S
O695 C712 1.256 . S
O696 Tb648 2.308 . S
O696 C711 1.266 1_455 S
O697 Tb659 2.393 . S
O697 C711 1.248 . S
O698 Tb659 2.465 . S
O698 C723 1.264 . S
O699 Tb659 2.387 . S
O699 C715 1.264 . S
O700 Tb648 2.349 . S
O700 C715 1.243 1_455 S
O701 Tb659 2.428 . S
O701 C723 1.256 . S
O702 Tb659 2.308 1_455 S
O702 C722 1.266 . S
O703 Tb648 2.393 . S
O703 C722 1.248 . S
C704 O693 1.264 . S
C704 O694 1.243 . S
C705 C708 1.399 . S
C705 C710 1.383 . S
C705 C712 1.496 . S
C706 C707 1.399 . S
C706 C710 1.389 . S
C707 C706 1.399 . S
C707 C709 1.380 . S
C707 H724 0.929 . S
C708 C705 1.399 . S
C708 C709 1.392 . S
C708 H725 0.929 . S
C709 C707 1.380 . S
C709 C708 1.392 . S
C709 H726 0.929 . S
C710 C705 1.383 . S
C710 C706 1.389 . S
C710 H727 0.931 . S
C711 O696 1.266 1_655 S
C711 O697 1.248 . S
C712 Tb648 2.802 . S
C712 O692 1.264 . S
C712 O695 1.256 . S
C712 C705 1.496 . S
C713 C680 1.448 . S
C713 H690 0.930 . S
C713 C714 1.328 . S
C714 C685 1.427 . S
C714 H691 0.929 . S
C714 C713 1.328 . S
C715 O699 1.264 . S
C715 O700 1.243 1_655 S
C716 C719 1.399 . S
C716 C720 1.383 . S
C716 C723 1.496 . S
C717 C718 1.399 . S
C717 C720 1.389 . S
C718 C717 1.399 . S
C718 C721 1.380 . S
C718 H728 0.929 . S
C719 C716 1.399 . S
C719 C721 1.392 . S
C719 H729 0.929 . S
C720 C716 1.383 . S
C720 C717 1.389 . S
C720 H730 0.931 . S
C721 C718 1.380 . S
C721 C719 1.392 . S
C721 H731 0.929 . S
C722 O702 1.266 . S
C722 O703 1.248 . S
C723 Tb659 2.802 . S
C723 O698 1.264 . S
C723 O701 1.256 . S
C723 C716 1.496 . S
H724 C707 0.929 . S
H725 C708 0.929 . S
H726 C709 0.929 . S
H727 C710 0.931 . S
H728 C718 0.929 . S
H729 C719 0.929 . S
H730 C720 0.931 . S
H731 C721 0.929 . S
Tb732 N761 2.617 . S
Tb732 N767 2.572 . S
Tb732 O776 2.465 . S
Tb732 O777 2.387 . S
Tb732 O779 2.428 . S
Tb732 O780 2.308 . S
Tb732 O784 2.349 . S
Tb732 O787 2.393 . S
Tb732 C796 2.802 . S
C733 N734 1.379 . S
C733 C736 1.416 . S
C733 C740 1.424 . S
N734 C733 1.379 . S
N734 C737 1.334 . S
N734 Tb743 2.617 . S
C735 C737 1.390 . S
C735 C738 1.339 . S
C735 H755 0.930 . S
C736 C733 1.416 . S
C736 C738 1.416 . S
C736 C742 1.448 . S
C737 N734 1.334 . S
C737 C735 1.390 . S
C737 H748 0.930 . S
C738 C735 1.339 . S
C738 C736 1.416 . S
C738 H759 0.930 . S
C739 C740 1.413 . S
C739 C741 1.427 . S
C739 C745 1.416 . S
C740 C733 1.424 . S
C740 C739 1.413 . S
C740 N744 1.361 . S
C741 C739 1.427 . S
C741 C742 1.328 . S
C741 H756 0.929 . S
C742 C736 1.448 . S
C742 C741 1.328 . S
C742 H757 0.930 . S
Tb743 N734 2.617 . S
Tb743 N744 2.572 . S
Tb743 O778 2.349 . S
Tb743 O781 2.393 . S
Tb743 O782 2.465 . S
Tb743 O783 2.387 . S
Tb743 O785 2.428 . S
Tb743 O786 2.308 . S
Tb743 C807 2.802 . S
N744 C740 1.361 . S
N744 Tb743 2.572 . S
N744 C746 1.340 . S
C745 C739 1.416 . S
C745 C747 1.332 . S
C745 H753 0.931 . S
C746 N744 1.340 . S
C746 C747 1.407 . S
C746 H752 0.930 . S
C747 C745 1.332 . S
C747 C746 1.407 . S
C747 H749 0.929 . S
H748 C737 0.930 . S
H749 C747 0.929 . S
H750 C765 0.930 . S
H751 C772 0.929 . S
H752 C746 0.930 . S
H753 C745 0.931 . S
H754 C768 0.930 . S
H755 C735 0.930 . S
H756 C741 0.929 . S
H757 C742 0.930 . S
H758 C763 0.930 . S
H759 C738 0.930 . S
H760 C771 0.931 . S
N761 Tb732 2.617 . S
N761 C762 1.379 . S
N761 C765 1.334 . S
C762 N761 1.379 . S
C762 C764 1.416 . S
C762 C770 1.424 . S
C763 H758 0.930 . S
C763 C765 1.390 . S
C763 C766 1.339 . S
C764 C762 1.416 . S
C764 C766 1.416 . S
C764 C797 1.448 . S
C765 H750 0.930 . S
C765 N761 1.334 . S
C765 C763 1.390 . S
C766 C763 1.339 . S
C766 C764 1.416 . S
C766 H773 0.930 . S
N767 Tb732 2.572 . S
N767 C768 1.340 . S
N767 C770 1.361 . S
C768 H754 0.930 . S
C768 N767 1.340 . S
C768 C772 1.407 . S
C769 C770 1.413 . S
C769 C771 1.416 . S
C769 C798 1.427 . S
C770 C762 1.424 . S
C770 N767 1.361 . S
C770 C769 1.413 . S
C771 H760 0.931 . S
C771 C769 1.416 . S
C771 C772 1.332 . S
C772 H751 0.929 . S
C772 C768 1.407 . S
C772 C771 1.332 . S
H773 C766 0.930 . S
H774 C797 0.930 . S
H775 C798 0.929 . S
O776 Tb732 2.465 . S
O776 C796 1.264 . S
O777 Tb732 2.387 . S
O777 C788 1.264 . S
O778 Tb743 2.349 . S
O778 C788 1.243 . S
O779 Tb732 2.428 . S
O779 C796 1.256 . S
O780 Tb732 2.308 . S
O780 C795 1.266 . S
O781 Tb743 2.393 . S
O781 C795 1.248 . S
O782 Tb743 2.465 . S
O782 C807 1.264 . S
O783 Tb743 2.387 . S
O783 C799 1.264 . S
O784 Tb732 2.349 . S
O784 C799 1.243 . S
O785 Tb743 2.428 . S
O785 C807 1.256 . S
O786 Tb743 2.308 . S
O786 C806 1.266 . S
O787 Tb732 2.393 . S
O787 C806 1.248 . S
C788 O777 1.264 . S
C788 O778 1.243 . S
C789 C792 1.399 . S
C789 C794 1.383 . S
C789 C796 1.496 . S
C790 C791 1.399 . S
C790 C794 1.389 . S
C791 C790 1.399 . S
C791 C793 1.380 . S
C791 H808 0.929 . S
C792 C789 1.399 . S
C792 C793 1.392 . S
C792 H809 0.929 . S
C793 C791 1.380 . S
C793 C792 1.392 . S
C793 H810 0.929 . S
C794 C789 1.383 . S
C794 C790 1.389 . S
C794 H811 0.931 . S
C795 O780 1.266 . S
C795 O781 1.248 . S
C796 Tb732 2.802 . S
C796 O776 1.264 . S
C796 O779 1.256 . S
C796 C789 1.496 . S
C797 C764 1.448 . S
C797 H774 0.930 . S
C797 C798 1.328 . S
C798 C769 1.427 . S
C798 H775 0.929 . S
C798 C797 1.328 . S
C799 O783 1.264 . S
C799 O784 1.243 . S
C800 C803 1.399 . S
C800 C804 1.383 . S
C800 C807 1.496 . S
C801 C802 1.399 . S
C801 C804 1.389 . S
C802 C801 1.399 . S
C802 C805 1.380 . S
C802 H812 0.929 . S
C803 C800 1.399 . S
C803 C805 1.392 . S
C803 H813 0.929 . S
C804 C800 1.383 . S
C804 C801 1.389 . S
C804 H814 0.931 . S
C805 C802 1.380 . S
C805 C803 1.392 . S
C805 H815 0.929 . S
C806 O786 1.266 . S
C806 O787 1.248 . S
C807 Tb743 2.802 . S
C807 O782 1.264 . S
C807 O785 1.256 . S
C807 C800 1.496 . S
H808 C791 0.929 . S
H809 C792 0.929 . S
H810 C793 0.929 . S
H811 C794 0.931 . S
H812 C802 0.929 . S
H813 C803 0.929 . S
H814 C804 0.931 . S
H815 C805 0.929 . S
H816 C822 0.930 . S
H817 C825 0.930 . S
H818 C826 0.930 . S
H819 C827 0.930 . S
H820 C830 0.930 . S
H821 C831 0.930 . S
C822 H816 0.930 . S
C822 C823 1.355 . S
C822 C824 1.415 . S
C823 C822 1.355 . S
C823 C825 1.419 1_545 S
C824 C822 1.415 . S
C824 C829 1.425 . S
C824 C831 1.409 . S
C825 H817 0.930 . S
C825 C823 1.419 1_565 S
C825 C826 1.362 1_565 S
C826 H818 0.930 . S
C826 C825 1.362 1_545 S
C826 C829 1.409 . S
C827 H819 0.930 . S
C827 C828 1.355 . S
C827 C829 1.415 . S
C828 C827 1.355 . S
C828 C830 1.419 . S
C829 C824 1.425 . S
C829 C826 1.409 . S
C829 C827 1.415 . S
C830 H820 0.930 . S
C830 C828 1.419 . S
C830 C831 1.362 . S
C831 H821 0.930 . S
C831 C824 1.409 . S
C831 C830 1.362 . S
H832 C838 0.930 . S
H833 C841 0.930 . S
H834 C842 0.930 . S
H835 C843 0.930 . S
H836 C846 0.930 . S
H837 C847 0.930 . S
C838 H832 0.930 . S
C838 C839 1.355 . S
C838 C840 1.415 . S
C839 C838 1.355 . S
C839 C841 1.419 . S
C840 C838 1.415 . S
C840 C845 1.425 . S
C840 C847 1.409 . S
C841 H833 0.930 . S
C841 C839 1.419 . S
C841 C842 1.362 . S
C842 H834 0.930 . S
C842 C841 1.362 . S
C842 C845 1.409 . S
C843 H835 0.930 . S
C843 C844 1.355 . S
C843 C845 1.415 . S
C844 C843 1.355 . S
C844 C846 1.419 . S
C845 C840 1.425 . S
C845 C842 1.409 . S
C845 C843 1.415 . S
C846 H836 0.930 . S
C846 C844 1.419 . S
C846 C847 1.362 . S
C847 H837 0.930 . S
C847 C840 1.409 . S
C847 C846 1.362 . S
H848 C854 0.930 . S
H849 C857 0.930 . S
H850 C858 0.930 . S
H851 C859 0.930 . S
H852 C862 0.930 . S
H853 C863 0.930 . S
C854 H848 0.930 . S
C854 C855 1.355 . S
C854 C856 1.415 . S
C855 C854 1.355 . S
C855 C857 1.419 . S
C856 C854 1.415 . S
C856 C861 1.425 . S
C856 C863 1.409 . S
C857 H849 0.930 . S
C857 C855 1.419 . S
C857 C858 1.362 . S
C858 H850 0.930 . S
C858 C857 1.362 . S
C858 C861 1.409 . S
C859 H851 0.930 . S
C859 C860 1.355 . S
C859 C861 1.415 . S
C860 C859 1.355 . S
C860 C862 1.419 . S
C861 C856 1.425 . S
C861 C858 1.409 . S
C861 C859 1.415 . S
C862 H852 0.930 . S
C862 C860 1.419 . S
C862 C863 1.362 . S
C863 H853 0.930 . S
C863 C856 1.409 . S
C863 C862 1.362 . S
H864 C870 0.930 . S
H865 C873 0.913 1_565 S
H866 C874 0.930 . S
H867 C875 0.930 . S
H868 C878 0.930 1_455 S
H869 C879 0.930 . S
C870 H864 0.930 . S
C870 C871 1.355 . S
C870 C872 1.415 . S
C871 C870 1.355 . S
C871 C873 1.419 . S
C872 C870 1.415 . S
C872 C877 1.425 . S
C872 C879 1.409 . S
C873 H865 0.913 1_545 S
C873 C871 1.419 . S
C873 C874 1.362 . S
C874 H866 0.930 . S
C874 C873 1.362 . S
C874 C877 1.409 . S
C875 H867 0.930 . S
C875 C876 1.355 . S
C875 C877 1.415 . S
C876 C875 1.355 . S
C876 C878 1.419 . S
C877 C872 1.425 . S
C877 C874 1.409 . S
C877 C875 1.415 . S
C878 H868 0.930 1_655 S
C878 C876 1.419 . S
C878 C879 1.362 . S
C879 H869 0.930 . S
C879 C872 1.409 . S
C879 C878 1.362 . S
H880 C886 0.930 . S
H881 C889 0.930 . S
H882 C890 0.930 . S
H883 C891 0.930 . S
H884 C894 0.930 . S
H885 C895 0.930 . S
C886 H880 0.930 . S
C886 C887 1.356 . S
C886 C888 1.415 . S
C887 C886 1.356 . S
C887 C889 1.419 1_565 S
C888 C886 1.415 . S
C888 C893 1.425 . S
C888 C895 1.409 . S
C889 H881 0.930 . S
C889 C887 1.419 1_545 S
C889 C890 1.362 1_545 S
C890 H882 0.930 . S
C890 C889 1.362 1_565 S
C890 C893 1.409 . S
C891 H883 0.930 . S
C891 C892 1.355 . S
C891 C893 1.415 . S
C892 C891 1.355 . S
C892 C894 1.419 . S
C893 C888 1.425 . S
C893 C890 1.409 . S
C893 C891 1.415 . S
C894 H884 0.930 . S
C894 C892 1.419 . S
C894 C895 1.362 . S
C895 H885 0.930 . S
C895 C888 1.409 . S
C895 C894 1.362 . S
H896 C902 0.930 . S
H897 C905 0.930 . S
H898 C906 0.930 . S
H899 C907 0.930 . S
H900 C910 0.930 . S
H901 C911 0.930 . S
C902 H896 0.930 . S
C902 C903 1.355 . S
C902 C904 1.415 . S
C903 C902 1.355 . S
C903 C905 1.419 . S
C904 C902 1.415 . S
C904 C909 1.425 . S
C904 C911 1.409 . S
C905 H897 0.930 . S
C905 C903 1.419 . S
C905 C906 1.362 . S
C906 H898 0.930 . S
C906 C905 1.362 . S
C906 C909 1.409 . S
C907 H899 0.930 . S
C907 C908 1.355 . S
C907 C909 1.415 . S
C908 C907 1.355 . S
C908 C910 1.419 . S
C909 C904 1.425 . S
C909 C906 1.409 . S
C909 C907 1.415 . S
C910 H900 0.930 . S
C910 C908 1.419 . S
C910 C911 1.362 . S
C911 H901 0.930 . S
C911 C904 1.409 . S
C911 C910 1.362 . S
H912 C918 0.930 . S
H913 C921 0.930 . S
H914 C922 0.930 . S
H915 C923 0.930 . S
H916 C926 0.930 . S
H917 C927 0.930 . S
C918 H912 0.930 . S
C918 C919 1.355 . S
C918 C920 1.415 . S
C919 C918 1.355 . S
C919 C921 1.419 . S
C920 C918 1.415 . S
C920 C925 1.425 . S
C920 C927 1.409 . S
C921 H913 0.930 . S
C921 C919 1.419 . S
C921 C922 1.362 . S
C922 H914 0.930 . S
C922 C921 1.362 . S
C922 C925 1.409 . S
C923 H915 0.930 . S
C923 C924 1.355 . S
C923 C925 1.415 . S
C924 C923 1.355 . S
C924 C926 1.419 . S
C925 C920 1.425 . S
C925 C922 1.409 . S
C925 C923 1.415 . S
C926 H916 0.930 . S
C926 C924 1.419 . S
C926 C927 1.362 . S
C927 H917 0.930 . S
C927 C920 1.409 . S
C927 C926 1.362 . S
H928 C934 0.930 . S
H929 C937 0.930 1_545 S
H930 C938 0.930 . S
H931 C939 0.930 . S
H932 C942 0.930 . S
H933 C943 0.930 . S
C934 H928 0.930 . S
C934 C935 1.355 . S
C934 C936 1.415 . S
C935 C934 1.355 . S
C935 C937 1.419 . S
C936 C934 1.415 . S
C936 C941 1.425 . S
C936 C943 1.409 . S
C937 H929 0.930 1_565 S
C937 C935 1.419 . S
C937 C938 1.362 . S
C938 H930 0.930 . S
C938 C937 1.362 . S
C938 C941 1.409 . S
C939 H931 0.930 . S
C939 C940 1.355 . S
C939 C941 1.415 . S
C940 C939 1.355 . S
C940 C942 1.419 . S
C941 C936 1.425 . S
C941 C938 1.409 . S
C941 C939 1.415 . S
C942 H932 0.930 . S
C942 C940 1.419 . S
C942 C943 1.362 . S
C943 H933 0.930 . S
C943 C936 1.409 . S
C943 C942 1.362 . S
H944 C950 0.930 . S
H945 C953 0.930 . S
H946 C954 0.930 . S
H947 C955 0.930 . S
H948 C958 0.930 . S
H949 C959 0.930 . S
C950 H944 0.930 . S
C950 C951 1.355 . S
C950 C952 1.415 . S
C951 C950 1.355 . S
C951 C953 1.419 . S
C952 C950 1.415 . S
C952 C957 1.425 . S
C952 C959 1.409 . S
C953 H945 0.930 . S
C953 C951 1.419 . S
C953 C954 1.362 . S
C954 H946 0.930 . S
C954 C953 1.362 . S
C954 C957 1.409 . S
C955 H947 0.930 . S
C955 C956 1.355 . S
C955 C957 1.415 . S
C956 C955 1.355 . S
C956 C958 1.419 . S
C957 C952 1.425 . S
C957 C954 1.409 . S
C957 C955 1.415 . S
C958 H948 0.930 . S
C958 C956 1.419 . S
C958 C959 1.362 . S
C959 H949 0.930 . S
C959 C952 1.409 . S
C959 C958 1.362 . S
H960 C966 0.930 . S
H961 C969 0.930 . S
H962 C970 0.930 . S
H963 C971 0.930 . S
H964 C974 0.930 . S
H965 C975 0.930 . S
C966 H960 0.930 . S
C966 C967 1.355 . S
C966 C968 1.415 . S
C967 C966 1.355 . S
C967 C969 1.419 . S
C968 C966 1.415 . S
C968 C973 1.425 . S
C968 C975 1.409 . S
C969 H961 0.930 . S
C969 C967 1.419 . S
C969 C970 1.362 . S
C970 H962 0.930 . S
C970 C969 1.362 . S
C970 C973 1.409 . S
C971 H963 0.930 . S
C971 C972 1.355 . S
C971 C973 1.415 . S
C972 C971 1.355 . S
C972 C974 1.419 . S
C973 C968 1.425 . S
C973 C970 1.409 . S
C973 C971 1.415 . S
C974 H964 0.930 . S
C974 C972 1.419 . S
C974 C975 1.362 . S
C975 H965 0.930 . S
C975 C968 1.409 . S
C975 C974 1.362 . S
H976 C982 0.930 . S
H977 C985 0.930 . S
H978 C986 0.930 . S
H979 C987 0.930 . S
H980 C990 0.930 . S
H981 C991 0.930 . S
C982 H976 0.930 . S
C982 C983 1.355 . S
C982 C984 1.415 . S
C983 C982 1.355 . S
C983 C985 1.419 . S
C984 C982 1.415 . S
C984 C989 1.425 . S
C984 C991 1.409 . S
C985 H977 0.930 . S
C985 C983 1.419 . S
C985 C986 1.362 . S
C986 H978 0.930 . S
C986 C985 1.362 . S
C986 C989 1.409 . S
C987 H979 0.930 . S
C987 C988 1.355 . S
C987 C989 1.415 . S
C988 C987 1.355 . S
C988 C990 1.419 . S
C989 C984 1.425 . S
C989 C986 1.409 . S
C989 C987 1.415 . S
C990 H980 0.930 . S
C990 C988 1.419 . S
C990 C991 1.362 . S
C991 H981 0.930 . S
C991 C984 1.409 . S
C991 C990 1.362 . S
H992 C998 0.930 . S
H993 C1001 0.930 . S
H994 C1002 0.930 . S
H995 C1003 0.930 . S
H996 C1006 0.930 . S
H997 C1007 0.930 . S
C998 H992 0.930 . S
C998 C999 1.355 . S
C998 C1000 1.415 . S
C999 C998 1.355 . S
C999 C1001 1.419 . S
C1000 C998 1.415 . S
C1000 C1005 1.425 . S
C1000 C1007 1.409 . S
C1001 H993 0.930 . S
C1001 C999 1.419 . S
C1001 C1002 1.362 . S
C1002 H994 0.930 . S
C1002 C1001 1.362 . S
C1002 C1005 1.409 . S
C1003 H995 0.930 . S
C1003 C1004 1.355 . S
C1003 C1005 1.415 . S
C1004 C1003 1.355 . S
C1004 C1006 1.419 . S
C1005 C1000 1.425 . S
C1005 C1002 1.409 . S
C1005 C1003 1.415 . S
C1006 H996 0.930 . S
C1006 C1004 1.419 . S
C1006 C1007 1.362 . S
C1007 H997 0.930 . S
C1007 C1000 1.409 . S
C1007 C1006 1.362 . S
H1008 C1014 0.930 . S
H1009 C1017 0.930 . S
H1010 C1018 0.930 . S
H1011 C1019 0.930 . S
H1012 C1022 0.930 . S
H1013 C1023 0.930 . S
C1014 H1008 0.930 . S
C1014 C1015 1.355 . S
C1014 C1016 1.415 . S
C1015 C1014 1.355 . S
C1015 C1017 1.419 . S
C1016 C1014 1.415 . S
C1016 C1021 1.425 . S
C1016 C1023 1.409 . S
C1017 H1009 0.930 . S
C1017 C1015 1.419 . S
C1017 C1018 1.362 . S
C1018 H1010 0.930 . S
C1018 C1017 1.362 . S
C1018 C1021 1.409 . S
C1019 H1011 0.930 . S
C1019 C1020 1.355 . S
C1019 C1021 1.415 . S
C1020 C1019 1.355 . S
C1020 C1022 1.419 . S
C1021 C1016 1.425 . S
C1021 C1018 1.409 . S
C1021 C1019 1.415 . S
C1022 H1012 0.930 . S
C1022 C1020 1.419 . S
C1022 C1023 1.362 . S
C1023 H1013 0.930 . S
C1023 C1016 1.409 . S
C1023 C1022 1.362 . S
H1024 C1030 0.930 . S
H1025 C1033 0.930 . S
H1026 C1034 0.930 . S
H1027 C1035 0.930 . S
H1028 C1038 0.930 . S
H1029 C1039 0.930 . S
C1030 H1024 0.930 . S
C1030 C1031 1.355 . S
C1030 C1032 1.415 . S
C1031 C1030 1.355 . S
C1031 C1033 1.419 . S
C1032 C1030 1.415 . S
C1032 C1037 1.425 . S
C1032 C1039 1.409 . S
C1033 H1025 0.930 . S
C1033 C1031 1.419 . S
C1033 C1034 1.362 . S
C1034 H1026 0.930 . S
C1034 C1033 1.362 . S
C1034 C1037 1.409 . S
C1035 H1027 0.930 . S
C1035 C1036 1.355 . S
C1035 C1037 1.415 . S
C1036 C1035 1.355 . S
C1036 C1038 1.419 . S
C1037 C1032 1.425 . S
C1037 C1034 1.409 . S
C1037 C1035 1.415 . S
C1038 H1028 0.930 . S
C1038 C1036 1.419 . S
C1038 C1039 1.362 . S
C1039 H1029 0.930 . S
C1039 C1032 1.409 . S
C1039 C1038 1.362 . S
H1040 C1046 0.930 . S
H1041 C1049 0.930 . S
H1042 C1050 0.930 . S
H1043 C1051 0.930 . S
H1044 C1054 0.930 . S
H1045 C1055 0.930 . S
C1046 H1040 0.930 . S
C1046 C1047 1.355 . S
C1046 C1048 1.415 . S
C1047 C1046 1.355 . S
C1047 C1049 1.419 . S
C1048 C1046 1.415 . S
C1048 C1053 1.425 . S
C1048 C1055 1.409 . S
C1049 H1041 0.930 . S
C1049 C1047 1.419 . S
C1049 C1050 1.362 . S
C1050 H1042 0.930 . S
C1050 C1049 1.362 . S
C1050 C1053 1.409 . S
C1051 H1043 0.930 . S
C1051 C1052 1.355 . S
C1051 C1053 1.415 . S
C1052 C1051 1.355 . S
C1052 C1054 1.419 . S
C1053 C1048 1.425 . S
C1053 C1050 1.409 . S
C1053 C1051 1.415 . S
C1054 H1044 0.930 . S
C1054 C1052 1.419 . S
C1054 C1055 1.362 . S
C1055 H1045 0.930 . S
C1055 C1048 1.409 . S
C1055 C1054 1.362 . S
H1056 C1062 0.930 . S
H1057 C1065 0.930 . S
H1058 C1066 0.930 . S
H1059 C1067 0.930 . S
H1060 C1070 0.930 . S
H1061 C1071 0.930 . S
C1062 H1056 0.930 . S
C1062 C1063 1.355 . S
C1062 C1064 1.415 . S
C1063 C1062 1.355 . S
C1063 C1065 1.419 . S
C1064 C1062 1.415 . S
C1064 C1069 1.425 . S
C1064 C1071 1.409 . S
C1065 H1057 0.930 . S
C1065 C1063 1.419 . S
C1065 C1066 1.362 . S
C1066 H1058 0.930 . S
C1066 C1065 1.362 . S
C1066 C1069 1.409 . S
C1067 H1059 0.930 . S
C1067 C1068 1.355 . S
C1067 C1069 1.415 . S
C1068 C1067 1.355 . S
C1068 C1070 1.419 . S
C1069 C1064 1.425 . S
C1069 C1066 1.409 . S
C1069 C1067 1.415 . S
C1070 H1060 0.930 . S
C1070 C1068 1.419 . S
C1070 C1071 1.362 . S
C1071 H1061 0.930 . S
C1071 C1064 1.409 . S
C1071 C1070 1.362 . S
H1072 C1078 0.930 . S
H1073 C1081 0.930 . S
H1074 C1082 0.930 . S
H1075 C1083 0.930 . S
H1076 C1086 0.930 . S
H1077 C1087 0.930 . S
C1078 H1072 0.930 . S
C1078 C1079 1.355 . S
C1078 C1080 1.415 . S
C1079 C1078 1.355 . S
C1079 C1081 1.419 . S
C1080 C1078 1.415 . S
C1080 C1085 1.425 . S
C1080 C1087 1.409 . S
C1081 H1073 0.930 . S
C1081 C1079 1.419 . S
C1081 C1082 1.362 . S
C1082 H1074 0.930 . S
C1082 C1081 1.362 . S
C1082 C1085 1.409 . S
C1083 H1075 0.930 . S
C1083 C1084 1.355 . S
C1083 C1085 1.415 . S
C1084 C1083 1.355 . S
C1084 C1086 1.419 . S
C1085 C1080 1.425 . S
C1085 C1082 1.409 . S
C1085 C1083 1.415 . S
C1086 H1076 0.930 . S
C1086 C1084 1.419 . S
C1086 C1087 1.362 . S
C1087 H1077 0.930 . S
C1087 C1080 1.409 . S
C1087 C1086 1.362 . S
H1088 C1094 0.930 . S
H1089 C1097 0.930 . S
H1090 C1098 0.930 . S
H1091 C1099 0.930 . S
H1092 C1102 0.930 . S
H1093 C1103 0.930 . S
C1094 H1088 0.930 . S
C1094 C1095 1.355 . S
C1094 C1096 1.415 . S
C1095 C1094 1.355 . S
C1095 C1097 1.419 . S
C1096 C1094 1.415 . S
C1096 C1101 1.425 . S
C1096 C1103 1.409 . S
C1097 H1089 0.930 . S
C1097 C1095 1.419 . S
C1097 C1098 1.362 . S
C1098 H1090 0.930 . S
C1098 C1097 1.362 . S
C1098 C1101 1.409 . S
C1099 H1091 0.930 . S
C1099 C1100 1.355 . S
C1099 C1101 1.415 . S
C1100 C1099 1.355 . S
C1100 C1102 1.419 . S
C1101 C1096 1.425 . S
C1101 C1098 1.409 . S
C1101 C1099 1.415 . S
C1102 H1092 0.930 . S
C1102 C1100 1.419 . S
C1102 C1103 1.362 . S
C1103 H1093 0.930 . S
C1103 C1096 1.409 . S
C1103 C1102 1.362 . S
H1104 C1110 0.930 . S
H1105 C1113 0.930 . S
H1106 C1114 0.930 . S
H1107 C1115 0.930 . S
H1108 C1118 0.930 . S
H1109 C1119 0.930 . S
C1110 H1104 0.930 . S
C1110 C1111 1.355 . S
C1110 C1112 1.415 . S
C1111 C1110 1.355 . S
C1111 C1113 1.419 . S
C1112 C1110 1.415 . S
C1112 C1117 1.425 . S
C1112 C1119 1.409 . S
C1113 H1105 0.930 . S
C1113 C1111 1.419 . S
C1113 C1114 1.362 . S
C1114 H1106 0.930 . S
C1114 C1113 1.362 . S
C1114 C1117 1.409 . S
C1115 H1107 0.930 . S
C1115 C1116 1.355 . S
C1115 C1117 1.415 . S
C1116 C1115 1.355 . S
C1116 C1118 1.419 . S
C1117 C1112 1.425 . S
C1117 C1114 1.409 . S
C1117 C1115 1.415 . S
C1118 H1108 0.930 . S
C1118 C1116 1.419 . S
C1118 C1119 1.362 . S
C1119 H1109 0.930 . S
C1119 C1112 1.409 . S
C1119 C1118 1.362 . S
H1120 C1126 0.930 . S
H1121 C1129 0.930 . S
H1122 C1130 0.930 . S
H1123 C1131 0.930 . S
H1124 C1134 0.930 . S
H1125 C1135 0.930 . S
C1126 H1120 0.930 . S
C1126 C1127 1.355 . S
C1126 C1128 1.415 . S
C1127 C1126 1.355 . S
C1127 C1129 1.419 . S
C1128 C1126 1.415 . S
C1128 C1133 1.425 . S
C1128 C1135 1.409 . S
C1129 H1121 0.930 . S
C1129 C1127 1.419 . S
C1129 C1130 1.362 . S
C1130 H1122 0.930 . S
C1130 C1129 1.362 . S
C1130 C1133 1.409 . S
C1131 H1123 0.930 . S
C1131 C1132 1.355 . S
C1131 C1133 1.415 . S
C1132 C1131 1.355 . S
C1132 C1134 1.419 . S
C1133 C1128 1.425 . S
C1133 C1130 1.409 . S
C1133 C1131 1.415 . S
C1134 H1124 0.930 . S
C1134 C1132 1.419 . S
C1134 C1135 1.362 . S
C1135 H1125 0.930 . S
C1135 C1128 1.409 . S
C1135 C1134 1.362 . S
H1136 C1142 0.930 . S
H1137 C1145 0.930 . S
H1138 C1146 0.930 . S
H1139 C1147 0.930 . S
H1140 C1150 0.930 1_455 S
H1141 C1151 0.930 . S
C1142 H1136 0.930 . S
C1142 C1143 1.355 . S
C1142 C1144 1.415 . S
C1143 C1142 1.355 . S
C1143 C1145 1.419 . S
C1144 C1142 1.415 . S
C1144 C1149 1.425 . S
C1144 C1151 1.409 . S
C1145 H1137 0.930 . S
C1145 C1143 1.419 . S
C1145 C1146 1.362 . S
C1146 H1138 0.930 . S
C1146 C1145 1.362 . S
C1146 C1149 1.409 . S
C1147 H1139 0.930 . S
C1147 C1148 1.355 . S
C1147 C1149 1.415 . S
C1148 C1147 1.355 . S
C1148 C1150 1.419 . S
C1149 C1144 1.425 . S
C1149 C1146 1.409 . S
C1149 C1147 1.415 . S
C1150 H1140 0.930 1_655 S
C1150 C1148 1.419 . S
C1150 C1151 1.362 . S
C1151 H1141 0.930 . S
C1151 C1144 1.409 . S
C1151 C1150 1.362 . S
H1152 C1158 0.930 . S
H1153 C1161 0.930 . S
H1154 C1162 0.930 . S
H1155 C1163 0.930 . S
H1156 C1166 0.930 . S
H1157 C1167 0.930 . S
C1158 H1152 0.930 . S
C1158 C1159 1.355 . S
C1158 C1160 1.415 . S
C1159 C1158 1.355 . S
C1159 C1161 1.419 . S
C1160 C1158 1.415 . S
C1160 C1165 1.425 . S
C1160 C1167 1.409 . S
C1161 H1153 0.930 . S
C1161 C1159 1.419 . S
C1161 C1162 1.362 . S
C1162 H1154 0.930 . S
C1162 C1161 1.362 . S
C1162 C1165 1.409 . S
C1163 H1155 0.930 . S
C1163 C1164 1.355 . S
C1163 C1165 1.415 . S
C1164 C1163 1.355 . S
C1164 C1166 1.419 . S
C1165 C1160 1.425 . S
C1165 C1162 1.409 . S
C1165 C1163 1.415 . S
C1166 H1156 0.930 . S
C1166 C1164 1.419 . S
C1166 C1167 1.362 . S
C1167 H1157 0.930 . S
C1167 C1160 1.409 . S
C1167 C1166 1.362 . S
H1168 C1174 0.930 . S
H1169 C1177 0.930 . S
H1170 C1178 0.930 . S
H1171 C1179 0.930 . S
H1172 C1182 0.930 . S
H1173 C1183 0.930 . S
C1174 H1168 0.930 . S
C1174 C1175 1.355 . S
C1174 C1176 1.415 . S
C1175 C1174 1.355 . S
C1175 C1177 1.419 . S
C1176 C1174 1.415 . S
C1176 C1181 1.425 . S
C1176 C1183 1.409 . S
C1177 H1169 0.930 . S
C1177 C1175 1.419 . S
C1177 C1178 1.362 . S
C1178 H1170 0.930 . S
C1178 C1177 1.362 . S
C1178 C1181 1.409 . S
C1179 H1171 0.930 . S
C1179 C1180 1.355 . S
C1179 C1181 1.415 . S
C1180 C1179 1.355 . S
C1180 C1182 1.419 . S
C1181 C1176 1.425 . S
C1181 C1178 1.409 . S
C1181 C1179 1.415 . S
C1182 H1172 0.930 . S
C1182 C1180 1.419 . S
C1182 C1183 1.362 . S
C1183 H1173 0.930 . S
C1183 C1176 1.409 . S
C1183 C1182 1.362 . S
H1184 C1190 0.930 . S
H1185 C1193 0.930 . S
H1186 C1194 0.930 . S
H1187 C1195 0.930 . S
H1188 C1198 0.930 . S
H1189 C1199 0.930 . S
C1190 H1184 0.930 . S
C1190 C1191 1.355 . S
C1190 C1192 1.415 . S
C1191 C1190 1.355 . S
C1191 C1193 1.419 . S
C1192 C1190 1.415 . S
C1192 C1197 1.425 . S
C1192 C1199 1.409 . S
C1193 H1185 0.930 . S
C1193 C1191 1.419 . S
C1193 C1194 1.362 . S
C1194 H1186 0.930 . S
C1194 C1193 1.362 . S
C1194 C1197 1.409 . S
C1195 H1187 0.930 . S
C1195 C1196 1.355 . S
C1195 C1197 1.415 . S
C1196 C1195 1.355 . S
C1196 C1198 1.419 . S
C1197 C1192 1.425 . S
C1197 C1194 1.409 . S
C1197 C1195 1.415 . S
C1198 H1188 0.930 . S
C1198 C1196 1.419 . S
C1198 C1199 1.362 . S
C1199 H1189 0.930 . S
C1199 C1192 1.409 . S
C1199 C1198 1.362 . S
C823 C361 1.410 1_545 S
C828 C554 1.441 . S
C844 C638 1.450 . S
C839 C451 1.447 . S
C860 C631 1.468 . S
C855 C241 1.463 . S
C871 C331 1.420 1_545 S
C876 C547 1.457 . S
C892 C711 1.463 . S
C887 C140 1.403 1_565 S
C908 C795 1.434 . S
C903 C211 1.464 . S
C919 C20 1.394 . S
C924 C788 1.453 . S
C935 C91 1.416 1_565 S
C940 C704 1.462 . S
C956 C538 1.328 . S
C951 C80 1.441 1_554 S
C972 C622 1.391 . S
C967 C1 1.485 . S
C988 C633 1.449 . S
C983 C200 1.523 1_556 S
C1004 C549 1.382 . S
C999 C121 1.473 . S
C1020 C717 1.340 . S
C1015 C320 1.472 1_556 S
C1031 C260 1.506 . S
C1036 C801 1.391 . S
C1052 C790 1.446 . S
C1047 C440 1.524 1_554 S
C1063 C380 1.474 . S
C1068 C706 1.430 . S
C1084 C536 1.575 . S
C1079 C31 1.571 . S
C1100 C620 1.573 . S
C1095 C61 1.573 . S
C1111 C151 1.562 . S
C1116 C627 1.563 . S
C1132 C543 1.561 . S
C1127 C181 1.563 . S
C1148 C715 1.574 . S
C1143 C271 1.486 . S
C1159 C301 1.584 . S
C1164 C799 1.561 . S
C1175 C391 1.518 . S
C1180 C806 1.536 . S
C1191 C421 1.560 . S
C1196 C722 1.544 . S
