# Generated by pormake.
# Topology dag, (6,3)-cn, num edge types: 1
# Building blocks:
#     Node 0, Type 0, BuildingBlock: OJICUG_clean_sbu_0, # of connection points: 6
#     Node 1, Type 0, BuildingBlock: OJICUG_clean_sbu_0, # of connection points: 6
#     Node 2, Type 0, BuildingBlock: OJICUG_clean_sbu_0, # of connection points: 6
#     Node 3, Type 0, BuildingBlock: OJICUG_clean_sbu_0, # of connection points: 6
#     Node 4, Type 1, BuildingBlock: BETDAH_clean_linker_0, # of connection points: 3
#     Node 5, Type 1, BuildingBlock: BETDAH_clean_linker_0, # of connection points: 3
#     Node 6, Type 1, BuildingBlock: BETDAH_clean_linker_0, # of connection points: 3
#     Node 7, Type 1, BuildingBlock: BETDAH_clean_linker_0, # of connection points: 3
#     Node 8, Type 1, BuildingBlock: BETDAH_clean_linker_0, # of connection points: 3
#     Node 9, Type 1, BuildingBlock: BETDAH_clean_linker_0, # of connection points: 3
#     Node 10, Type 1, BuildingBlock: BETDAH_clean_linker_0, # of connection points: 3
#     Node 11, Type 1, BuildingBlock: BETDAH_clean_linker_0, # of connection points: 3
#     Edge 12, Type (0, 1), BuildingBlock: XUDNAN_clean_linker_2, # of connection points: 2
#     Edge 13, Type (0, 1), BuildingBlock: XUDNAN_clean_linker_2, # of connection points: 2
#     Edge 14, Type (0, 1), BuildingBlock: XUDNAN_clean_linker_2, # of connection points: 2
#     Edge 15, Type (0, 1), BuildingBlock: XUDNAN_clean_linker_2, # of connection points: 2
#     Edge 16, Type (0, 1), BuildingBlock: XUDNAN_clean_linker_2, # of connection points: 2
#     Edge 17, Type (0, 1), BuildingBlock: XUDNAN_clean_linker_2, # of connection points: 2
#     Edge 18, Type (0, 1), BuildingBlock: XUDNAN_clean_linker_2, # of connection points: 2
#     Edge 19, Type (0, 1), BuildingBlock: XUDNAN_clean_linker_2, # of connection points: 2
#     Edge 20, Type (0, 1), BuildingBlock: XUDNAN_clean_linker_2, # of connection points: 2
#     Edge 21, Type (0, 1), BuildingBlock: XUDNAN_clean_linker_2, # of connection points: 2
#     Edge 22, Type (0, 1), BuildingBlock: XUDNAN_clean_linker_2, # of connection points: 2
#     Edge 23, Type (0, 1), BuildingBlock: XUDNAN_clean_linker_2, # of connection points: 2
#     Edge 24, Type (0, 1), BuildingBlock: XUDNAN_clean_linker_2, # of connection points: 2
#     Edge 25, Type (0, 1), BuildingBlock: XUDNAN_clean_linker_2, # of connection points: 2
#     Edge 26, Type (0, 1), BuildingBlock: XUDNAN_clean_linker_2, # of connection points: 2
#     Edge 27, Type (0, 1), BuildingBlock: XUDNAN_clean_linker_2, # of connection points: 2
#     Edge 28, Type (0, 1), BuildingBlock: XUDNAN_clean_linker_2, # of connection points: 2
#     Edge 29, Type (0, 1), BuildingBlock: XUDNAN_clean_linker_2, # of connection points: 2
#     Edge 30, Type (0, 1), BuildingBlock: XUDNAN_clean_linker_2, # of connection points: 2
#     Edge 31, Type (0, 1), BuildingBlock: XUDNAN_clean_linker_2, # of connection points: 2
#     Edge 32, Type (0, 1), BuildingBlock: XUDNAN_clean_linker_2, # of connection points: 2
#     Edge 33, Type (0, 1), BuildingBlock: XUDNAN_clean_linker_2, # of connection points: 2
#     Edge 34, Type (0, 1), BuildingBlock: XUDNAN_clean_linker_2, # of connection points: 2
#     Edge 35, Type (0, 1), BuildingBlock: XUDNAN_clean_linker_2, # of connection points: 2
# Relax obj value: 0.096
# Max RMSD: 0.111
# Mean RMSD: 0.094
data_MOF--net-dag--node1-OJICUG_clean_sbu_0--node2-BETDAH_clean_linker_0--edge1-XUDNAN_clean_linker_2
_symmetry_space_group_name_H-M    P1
_symmetry_Int_Tables_number       1
_symmetry_cell_setting            triclinic
loop_
_symmetry_equiv_pos_as_xyz
'x, y, z'
_cell_length_a     36.507087
_cell_length_b     39.228314
_cell_length_c     38.892884
_cell_angle_alpha  94.389193
_cell_angle_beta   89.875271
_cell_angle_gamma 89.977314
loop_
_atom_site_label
_atom_site_type_symbol
_atom_site_fract_x
_atom_site_fract_y
_atom_site_fract_z
_atom_type_partial_charge
Sc0 Sc 0.1126 0.86744 0.06717 0.0
Sc1 Sc 0.1279 0.77922 0.05166 0.0
Sc2 Sc 0.1977 0.83358 0.08775 0.0
O3 O 0.14603 0.82661 0.06894 0.0
C4 C 0.19012 0.89847 0.04613 0.0
C5 C 0.09886 0.82672 0.99437 0.0
C6 C 0.21073 0.77614 0.02578 0.0
C7 C 0.05508 0.81005 0.08622 0.0
C8 C 0.15093 0.88615 0.13841 0.0
C9 C 0.17083 0.76659 0.12147 0.0
O10 O 0.15573 0.90005 0.05115 0.0
O11 O 0.10549 0.79731 0.00474 0.0
O12 O 0.22225 0.79824 0.04885 0.0
O13 O 0.06475 0.8408 0.08334 0.0
O14 O 0.18062 0.87096 0.12907 0.0
O15 O 0.14863 0.75724 0.09726 0.0
O16 O 0.12208 0.88411 0.12015 0.0
O17 O 0.07548 0.78475 0.07707 0.0
O18 O 0.18965 0.79391 0.12188 0.0
O19 O 0.10128 0.85431 0.01366 0.0
O20 O 0.20971 0.87384 0.0549 0.0
O21 O 0.1773 0.76756 0.02307 0.0
Sc22 Sc 0.70452 0.66691 0.45405 0.0
Sc23 Sc 0.6288 0.72249 0.47187 0.0
Sc24 Sc 0.61803 0.63315 0.47081 0.0
O25 O 0.65043 0.67424 0.46548 0.0
C26 C 0.66764 0.60619 0.40672 0.0
C27 C 0.68218 0.72713 0.40739 0.0
C28 C 0.56388 0.68155 0.43266 0.0
C29 C 0.70709 0.73205 0.50853 0.0
C30 C 0.69163 0.61018 0.50663 0.0
C31 C 0.59121 0.68548 0.53284 0.0
O32 O 0.69408 0.62671 0.41376 0.0
O33 O 0.6535 0.73666 0.42422 0.0
O34 O 0.57515 0.65234 0.43987 0.0
O35 O 0.72114 0.70527 0.49342 0.0
O36 O 0.65717 0.60897 0.50227 0.0
O37 O 0.60191 0.71261 0.5199 0.0
O38 O 0.71242 0.62966 0.49085 0.0
O39 O 0.67474 0.74196 0.50237 0.0
O40 O 0.59481 0.65577 0.51782 0.0
O41 O 0.70299 0.70329 0.41597 0.0
O42 O 0.6386 0.60605 0.42477 0.0
O43 O 0.57956 0.70932 0.44311 0.0
Sc44 Sc 0.87294 0.20327 0.98163 0.0
Sc45 Sc 0.7979 0.14676 0.96538 0.0
Sc46 Sc 0.88383 0.11482 0.98661 0.0
O47 O 0.85155 0.15507 0.97778 0.0
C48 C 0.93655 0.15897 0.94252 0.0
C49 C 0.82022 0.20472 0.9162 0.0
C50 C 0.83388 0.0825 0.9247 0.0
C51 C 0.79405 0.21391 0.01717 0.0
C52 C 0.91393 0.17133 0.04336 0.0
C53 C 0.81088 0.09636 0.0248 0.0
O54 O 0.92203 0.18752 0.95286 0.0
O55 O 0.79966 0.18095 0.92531 0.0
O56 O 0.86054 0.08194 0.94556 0.0
O57 O 0.82679 0.22341 0.01186 0.0
O58 O 0.91122 0.14111 0.02951 0.0
O59 O 0.79003 0.11092 0.00424 0.0
O60 O 0.90034 0.19699 0.02994 0.0
O61 O 0.78005 0.18692 0.00247 0.0
O62 O 0.84561 0.09702 0.02304 0.0
O63 O 0.84803 0.21541 0.93355 0.0
O64 O 0.92462 0.13027 0.95092 0.0
O65 O 0.80981 0.10593 0.92649 0.0
Sc66 Sc 0.39059 0.37225 0.5616 0.0
Sc67 Sc 0.30316 0.34085 0.57869 0.0
Sc68 Sc 0.37781 0.28344 0.56509 0.0
O69 O 0.35721 0.33212 0.5685 0.0
C70 C 0.41614 0.31745 0.50183 0.0
C71 C 0.31713 0.39682 0.52599 0.0
C72 C 0.30013 0.27313 0.52744 0.0
C73 C 0.34215 0.40151 0.6252 0.0
C74 C 0.44448 0.32395 0.60128 0.0
C75 C 0.32241 0.28257 0.62877 0.0
O76 O 0.41111 0.34799 0.51428 0.0
O77 O 0.29619 0.37627 0.54014 0.0
O78 O 0.33248 0.26369 0.53419 0.0
O79 O 0.37208 0.39972 0.60833 0.0
O80 O 0.42613 0.29671 0.59497 0.0
O81 O 0.30329 0.30691 0.61878 0.0
O82 O 0.43489 0.35242 0.5906 0.0
O83 O 0.31455 0.38264 0.61716 0.0
O84 O 0.35084 0.27109 0.61262 0.0
O85 O 0.35137 0.39836 0.53155 0.0
O86 O 0.40696 0.29122 0.51731 0.0
O87 O 0.28597 0.30057 0.54114 0.0
H88 H 0.07607 0.09665 0.21872 0.0
H89 H 0.12632 0.10932 0.31882 0.0
H90 H 0.05592 0.18783 0.28447 0.0
C91 C 0.08002 0.1117 0.24298 0.0
C92 C 0.06322 0.14383 0.24827 0.0
C93 C 0.10216 0.09865 0.26842 0.0
C94 C 0.10931 0.1191 0.29902 0.0
C95 C 0.09256 0.15147 0.3046 0.0
C96 C 0.06934 0.1633 0.27945 0.0
N97 N 0.09655 0.17223 0.33584 0.0
C98 C 0.12676 0.17232 0.35747 0.0
H99 H 0.42507 0.61073 0.70562 0.0
H100 H 0.4154 0.716 0.74249 0.0
H101 H 0.34028 0.64215 0.77883 0.0
C102 C 0.41166 0.63019 0.7225 0.0
C103 C 0.38106 0.62182 0.74224 0.0
C104 C 0.42439 0.66385 0.72278 0.0
C105 C 0.40595 0.68981 0.74247 0.0
C106 C 0.37623 0.68201 0.76332 0.0
C107 C 0.36377 0.64799 0.76327 0.0
N108 N 0.35876 0.70924 0.78307 0.0
C109 C 0.3439 0.70646 0.81564 0.0
H110 H 0.81564 0.89108 0.11987 0.0
H111 H 0.76634 0.79499 0.14073 0.0
H112 H 0.69907 0.88363 0.13032 0.0
C113 C 0.7918 0.87572 0.1248 0.0
C114 C 0.75725 0.89123 0.12523 0.0
C115 C 0.79574 0.84091 0.13013 0.0
C116 C 0.76405 0.8217 0.13578 0.0
C117 C 0.72916 0.83709 0.13566 0.0
C118 C 0.72585 0.87165 0.1296 0.0
N119 N 0.69754 0.81893 0.14464 0.0
C120 C 0.69714 0.80299 0.17522 0.0
H121 H 0.67927 0.40955 0.62818 0.0
H122 H 0.72417 0.33385 0.69023 0.0
H123 H 0.79292 0.41386 0.6566 0.0
C124 C 0.70211 0.39973 0.64217 0.0
C125 C 0.73623 0.41604 0.6411 0.0
C126 C 0.69716 0.37048 0.66033 0.0
C127 C 0.72761 0.35651 0.67634 0.0
C128 C 0.76237 0.37203 0.67439 0.0
C129 C 0.76631 0.40167 0.65698 0.0
N130 N 0.79403 0.35879 0.6897 0.0
C131 C 0.7929 0.33432 0.71352 0.0
H132 H 0.5898 0.39152 0.33528 0.0
H133 H 0.67811 0.36058 0.26572 0.0
H134 H 0.60503 0.28562 0.30295 0.0
C135 C 0.60463 0.37201 0.31968 0.0
C136 C 0.59324 0.33797 0.32031 0.0
C137 C 0.63557 0.38073 0.30051 0.0
C138 C 0.65448 0.35452 0.281 0.0
C139 C 0.64352 0.32019 0.28201 0.0
C140 C 0.61345 0.31206 0.30229 0.0
N141 N 0.66278 0.29316 0.26368 0.0
C142 C 0.67699 0.29533 0.23075 0.0
H143 H 0.17388 0.09345 0.91929 0.0
H144 H 0.2158 0.17577 0.86449 0.0
H145 H 0.29003 0.11247 0.91754 0.0
C146 C 0.19709 0.10832 0.91151 0.0
C147 C 0.23268 0.09966 0.92129 0.0
C148 C 0.19089 0.13585 0.89145 0.0
C149 C 0.22071 0.15458 0.88014 0.0
C150 C 0.25672 0.14571 0.88924 0.0
C151 C 0.26234 0.11875 0.91022 0.0
N152 N 0.2879 0.16307 0.87755 0.0
C153 C 0.28746 0.18137 0.84844 0.0
H154 H 0.33229 0.60766 0.4138 0.0
H155 H 0.28089 0.69135 0.36793 0.0
H156 H 0.21435 0.61483 0.41046 0.0
C157 C 0.30738 0.62023 0.40647 0.0
C158 C 0.27294 0.60655 0.41397 0.0
C159 C 0.31038 0.65044 0.38966 0.0
C160 C 0.27871 0.66794 0.3809 0.0
C161 C 0.24413 0.65514 0.38925 0.0
C162 C 0.24139 0.62474 0.40562 0.0
N163 N 0.21159 0.67215 0.38091 0.0
C164 C 0.20483 0.68045 0.34756 0.0
H165 H 0.93806 0.89201 0.82332 0.0
H166 H 0.9611 0.80253 0.75667 0.0
H167 H 0.86258 0.86056 0.7421 0.0
C168 C 0.93022 0.87443 0.80169 0.0
C169 C 0.89708 0.87923 0.78446 0.0
C170 C 0.95321 0.84691 0.79196 0.0
C171 C 0.94343 0.82404 0.7642 0.0
C172 C 0.91125 0.82908 0.74559 0.0
C173 C 0.88791 0.85683 0.75575 0.0
N174 N 0.90342 0.80538 0.71716 0.0
C175 C 0.87388 0.80722 0.69493 0.0
H176 H 0.0915 0.9174 0.1699 0.0
H177 H 0.21 0.91216 0.1759 0.0
H178 H 0.20976 0.96179 0.21907 0.0
H179 H 0.08564 0.00283 0.16851 0.0
H180 H 0.04432 0.00841 0.19376 0.0
H181 H 0.05309 0.96836 0.16968 0.0
H182 H 0.04679 0.93646 0.22533 0.0
H183 H 0.03764 0.97653 0.2497 0.0
H184 H 0.07435 0.94949 0.26244 0.0
H185 H 0.19708 0.01864 0.25323 0.0
H186 H 0.17298 0.07553 0.27474 0.0
H187 H 0.06322 0.04227 0.24658 0.0
C188 C 0.11739 0.92589 0.18108 0.0
C189 C 0.15075 0.91074 0.16946 0.0
C190 C 0.184 0.92304 0.18456 0.0
C191 C 0.18414 0.9513 0.20913 0.0
C192 C 0.15078 0.96665 0.21876 0.0
C193 C 0.11796 0.95394 0.20549 0.0
C194 C 0.0862 0.97699 0.21666 0.0
C195 C 0.06618 0.9899 0.18529 0.0
C196 C 0.05969 0.95877 0.23993 0.0
C197 C 0.10639 0.00558 0.23683 0.0
C198 C 0.14354 -0.00094 0.2384 0.0
C199 C 0.16794 0.02361 0.25284 0.0
C200 C 0.15407 0.05582 0.26509 0.0
C201 C 0.1163 0.06319 0.26232 0.0
C202 C 0.09224 0.03724 0.24913 0.0
H203 H 0.5296 0.71958 0.55705 0.0
H204 H 0.61743 0.65343 0.58628 0.0
H205 H 0.58784 0.64809 0.64271 0.0
H206 H 0.50933 0.76107 0.64622 0.0
H207 H 0.46067 0.76048 0.63846 0.0
H208 H 0.49213 0.76493 0.60328 0.0
H209 H 0.46269 0.71238 0.56965 0.0
H210 H 0.43138 0.70764 0.6047 0.0
H211 H 0.46027 0.67236 0.58947 0.0
H212 H 0.54542 0.64245 0.69108 0.0
H213 H 0.49193 0.63672 0.72918 0.0
H214 H 0.43006 0.70582 0.66971 0.0
C215 C 0.54311 0.70515 0.57601 0.0
C216 C 0.57604 0.68746 0.56793 0.0
C217 C 0.59242 0.66752 0.59248 0.0
C218 C 0.57588 0.66443 0.62455 0.0
C219 C 0.54284 0.68132 0.63155 0.0
C220 C 0.52657 0.70141 0.60813 0.0
C221 C 0.48883 0.71318 0.62048 0.0
C222 C 0.48769 0.75224 0.62753 0.0
C223 C 0.45905 0.70063 0.59453 0.0
C224 C 0.48596 0.69547 0.65373 0.0
C225 C 0.51773 0.6777 0.6598 0.0
C226 C 0.5207 0.65684 0.68708 0.0
C227 C 0.49024 0.65364 0.70848 0.0
C228 C 0.45732 0.67119 0.7025 0.0
C229 C 0.45534 0.69287 0.67521 0.0
H230 H 0.75776 0.04851 0.01403 0.0
H231 H 0.8296 0.0959 0.09218 0.0
H232 H 0.81041 0.05369 0.13256 0.0
H233 H 0.68499 0.01517 0.0747 0.0
H234 H 0.68078 0.97599 0.0476 0.0
H235 H 0.69103 0.01549 0.02871 0.0
H236 H 0.74879 0.98761 0.9997 0.0
H237 H 0.73892 0.9483 0.01855 0.0
H238 H 0.78269 0.96875 0.02607 0.0
H239 H 0.79477 0.00121 0.15918 0.0
H240 H 0.7862 0.94043 0.16938 0.0
H241 H 0.72598 0.92452 0.07374 0.0
C242 C 0.76793 0.05082 0.04025 0.0
C243 C 0.79441 0.07563 0.05052 0.0
C244 C 0.80881 0.07722 0.08427 0.0
C245 C 0.79788 0.05352 0.10736 0.0
C246 C 0.77279 0.02832 0.0961 0.0
C247 C 0.75791 0.02678 0.06331 0.0
C248 C 0.7372 0.99365 0.05531 0.0
C249 C 0.69605 0.0005 0.05136 0.0
C250 C 0.75287 0.9734 0.02303 0.0
C251 C 0.74482 0.97589 0.08777 0.0
C252 C 0.76437 0.99685 0.11139 0.0
C253 C 0.77858 0.98489 0.14142 0.0
C254 C 0.77372 0.9504 0.14696 0.0
C255 C 0.75502 0.92835 0.12251 0.0
C256 C 0.73937 0.94138 0.09317 0.0
H257 H 0.48422 0.37724 0.63133 0.0
H258 H 0.48606 0.26698 0.61062 0.0
H259 H 0.54966 0.26564 0.6321 0.0
H260 H 0.56991 0.39266 0.60191 0.0
H261 H 0.58109 0.42667 0.63397 0.0
H262 H 0.53407 0.41831 0.62276 0.0
H263 H 0.51845 0.41085 0.68678 0.0
H264 H 0.56553 0.41945 0.69832 0.0
H265 H 0.54396 0.38062 0.70992 0.0
H266 H 0.61634 0.27774 0.64637 0.0
H267 H 0.67861 0.30212 0.65374 0.0
H268 H 0.6316 0.40381 0.66833 0.0
C269 C 0.49761 0.35268 0.63213 0.0
C270 C 0.48012 0.32223 0.61928 0.0
C271 C 0.49875 0.29064 0.62059 0.0
C272 C 0.53492 0.28962 0.63275 0.0
C273 C 0.5518 0.32031 0.64413 0.0
C274 C 0.53346 0.35119 0.64445 0.0
C275 C 0.55841 0.38086 0.65516 0.0
C276 C 0.56102 0.40608 0.62675 0.0
C277 C 0.54583 0.39901 0.6896 0.0
C278 C 0.59412 0.36205 0.65919 0.0
C279 C 0.58984 0.32712 0.65314 0.0
C280 C 0.61987 0.30499 0.65199 0.0
C281 C 0.65516 0.31904 0.65633 0.0
C282 C 0.66005 0.35489 0.66153 0.0
C283 C 0.62887 0.37632 0.66418 0.0
H284 H 0.6132 0.57211 0.3707 0.0
H285 H 0.73131 0.57677 0.38126 0.0
H286 H 0.73689 0.52256 0.34478 0.0
H287 H 0.60337 0.48899 0.38109 0.0
H288 H 0.56727 0.48012 0.35015 0.0
H289 H 0.5729 0.52262 0.36998 0.0
H290 H 0.5786 0.54649 0.30991 0.0
H291 H 0.5725 0.50395 0.28972 0.0
H292 H 0.61215 0.52866 0.27956 0.0
H293 H 0.72839 0.46225 0.31889 0.0
H294 H 0.70697 0.40349 0.30339 0.0
H295 H 0.59458 0.43977 0.30564 0.0
C296 C 0.64032 0.56237 0.36428 0.0
C297 C 0.67182 0.57866 0.37874 0.0
C298 C 0.70683 0.56496 0.37011 0.0
C299 C 0.71024 0.53412 0.34944 0.0
C300 C 0.67844 0.51779 0.33695 0.0
C301 C 0.64417 0.53192 0.34343 0.0
C302 C 0.61406 0.50783 0.33029 0.0
C303 C 0.5879 0.4994 0.35963 0.0
C304 C 0.5931 0.52262 0.30059 0.0
C305 C 0.63658 0.47704 0.31747 0.0
C306 C 0.67368 0.48336 0.32101 0.0
C307 C 0.69948 0.45733 0.31496 0.0
C308 C 0.68701 0.42394 0.306 0.0
C309 C 0.64901 0.41678 0.30324 0.0
C310 C 0.62379 0.44416 0.30771 0.0
H311 H 0.99649 0.19995 0.95309 0.0
H312 H 0.9535 0.11565 0.88682 0.0
H313 H 0.01348 0.10898 0.85751 0.0
H314 H 0.0647 0.2332 0.88982 0.0
H315 H 0.09824 0.24157 0.92334 0.0
H316 H 0.05008 0.24536 0.93334 0.0
H317 H 0.05758 0.20265 0.98049 0.0
H318 H 0.10556 0.19881 0.97069 0.0
H319 H 0.07719 0.16112 0.96907 0.0
H320 H 0.07932 0.10488 0.84233 0.0
H321 H 0.14685 0.10116 0.84509 0.0
H322 H 0.14872 0.18663 0.92226 0.0
C323 C 0.99943 0.1811 0.93141 0.0
C324 C 0.97032 0.15877 0.92159 0.0
C325 C 0.97543 0.13327 0.89429 0.0
C326 C 0.00933 0.12944 0.87742 0.0
C327 C 0.03795 0.15115 0.88835 0.0
C328 C 0.03341 0.17648 0.9148 0.0
C329 C 0.06983 0.19266 0.92533 0.0
C330 C 0.07075 0.23045 0.91748 0.0
C331 C 0.078 0.18854 0.96364 0.0
C332 C 0.0957 0.17144 0.90183 0.0
C333 C 0.07661 0.14827 0.88004 0.0
C334 C 0.09454 0.12349 0.85854 0.0
C335 C 0.13284 0.1216 0.86014 0.0
C336 C 0.1527 0.14425 0.88311 0.0
C337 C 0.13403 0.17001 0.90352 0.0
H338 H 0.34814 0.43022 0.4738 0.0
H339 H 0.24853 0.42337 0.53399 0.0
H340 H 0.22381 0.47394 0.50808 0.0
H341 H 0.35704 0.51725 0.4808 0.0
H342 H 0.37231 0.52192 0.43731 0.0
H343 H 0.38059 0.4826 0.45693 0.0
H344 H 0.34724 0.44844 0.40663 0.0
H345 H 0.33939 0.48766 0.38645 0.0
H346 H 0.30136 0.46038 0.39537 0.0
H347 H 0.21529 0.53075 0.48445 0.0
H348 H 0.21929 0.58552 0.45802 0.0
H349 H 0.3206 0.55163 0.407 0.0
C350 C 0.32075 0.43887 0.48079 0.0
C351 C 0.30024 0.42298 0.50585 0.0
C352 C 0.26456 0.43501 0.51456 0.0
C353 C 0.25032 0.46378 0.50009 0.0
C354 C 0.27173 0.47962 0.47633 0.0
C355 C 0.30574 0.46708 0.46596 0.0
C356 C 0.32366 0.48963 0.44092 0.0
C357 C 0.36057 0.50367 0.45484 0.0
C358 C 0.32816 0.47038 0.40522 0.0
C359 C 0.29523 0.51765 0.44026 0.0
C360 C 0.26555 0.51144 0.46088 0.0
C361 C 0.23775 0.53541 0.46722 0.0
C362 C 0.24024 0.5665 0.45186 0.0
C363 C 0.27007 0.57323 0.4299 0.0
C364 C 0.29754 0.54796 0.42382 0.0
H365 H 0.05396 0.78401 0.95437 0.0
H366 H 0.11846 0.87674 0.95361 0.0
H367 H 0.09602 0.88561 0.89522 0.0
H368 H 0.05979 0.7579 0.85897 0.0
H369 H 0.01279 0.74381 0.85759 0.0
H370 H 0.03947 0.74062 0.89618 0.0
H371 H 0.99039 0.77576 0.93172 0.0
H372 H 0.96362 0.77893 0.89339 0.0
H373 H 0.97721 0.81719 0.91878 0.0
H374 H 0.06045 0.88955 0.842 0.0
H375 H 0.01122 0.88988 0.79854 0.0
H376 H 0.96833 0.79535 0.83293 0.0
C377 C 0.06418 0.80551 0.94132 0.0
C378 C 0.08816 0.82953 0.95818 0.0
C379 C 0.10012 0.85804 0.94098 0.0
C380 C 0.08777 0.86312 0.90773 0.0
C381 C 0.06337 0.83952 0.89205 0.0
C382 C 0.05159 0.81128 0.90823 0.0
C383 C 0.02148 0.79254 0.8877 0.0
C384 C 0.03415 0.75658 0.87431 0.0
C385 C 0.9861 0.79105 0.90918 0.0
C386 C 0.0171 0.81553 0.85836 0.0
C387 C 0.04219 0.84202 0.86099 0.0
C388 C 0.04126 0.86851 0.83909 0.0
C389 C 0.01332 0.86852 0.81452 0.0
C390 C 0.98674 0.84227 0.81212 0.0
C391 C 0.98921 0.81499 0.83363 0.0
H392 H 0.84628 0.01584 0.93317 0.0
H393 H 0.81536 0.08477 0.85639 0.0
H394 H 0.8184 0.03665 0.81102 0.0
H395 H 0.91073 0.97039 0.88622 0.0
H396 H 0.90006 0.92951 0.90198 0.0
H397 H 0.89 0.9681 0.92811 0.0
H398 H 0.82196 0.94976 0.93224 0.0
H399 H 0.83188 0.91095 0.906 0.0
H400 H 0.79631 0.93927 0.89331 0.0
H401 H 0.83578 0.98249 0.77337 0.0
H402 H 0.86381 0.92849 0.74827 0.0
H403 H 0.87766 0.89499 0.85101 0.0
C404 C 0.83938 0.02061 0.90689 0.0
C405 C 0.83076 0.05383 0.89806 0.0
C406 C 0.82182 0.05931 0.86354 0.0
C407 C 0.82345 0.03215 0.83771 0.0
C408 C 0.833 -0.00033 0.84718 0.0
C409 C 0.8401 0.99382 0.88117 0.0
C410 C 0.85218 0.95746 0.88475 0.0
C411 C 0.8905 0.95633 0.90121 0.0
C412 C 0.82389 0.93823 0.90528 0.0
C413 C 0.85283 0.9441 0.8473 0.0
C414 C 0.84135 0.96851 0.82584 0.0
C415 C 0.84389 0.96292 0.78997 0.0
C416 C 0.85968 0.93216 0.77588 0.0
C417 C 0.87284 0.90766 0.79774 0.0
C418 C 0.86772 0.91326 0.83369 0.0
H419 H 0.48047 0.2851 0.483 0.0
H420 H 0.3907 0.34334 0.44437 0.0
H421 H 0.42361 0.34732 0.38933 0.0
H422 H 0.54839 0.3343 0.45235 0.0
H423 H 0.5806 0.3005 0.44079 0.0
H424 H 0.54728 0.29533 0.47409 0.0
H425 H 0.52376 0.23967 0.44134 0.0
H426 H 0.55737 0.24445 0.408 0.0
H427 H 0.50954 0.24032 0.39703 0.0
H428 H 0.46923 0.35376 0.3436 0.0
H429 H 0.52488 0.361 0.30864 0.0
H430 H 0.58649 0.29897 0.37569 0.0
C431 C 0.46725 0.29728 0.46225 0.0
C432 C 0.43279 0.31323 0.46732 0.0
C433 C 0.41682 0.33046 0.44048 0.0
C434 C 0.43529 0.33282 0.4092 0.0
C435 C 0.46983 0.31792 0.40525 0.0
C436 C 0.48566 0.30023 0.43087 0.0
C437 C 0.52491 0.29044 0.42161 0.0
C438 C 0.55186 0.30609 0.44882 0.0
C439 C 0.52913 0.25139 0.4167 0.0
C440 C 0.52904 0.30661 0.38759 0.0
C441 C 0.49671 0.32189 0.37848 0.0
C442 C 0.49446 0.34121 0.34996 0.0
C443 C 0.52614 0.34532 0.33037 0.0
C444 C 0.55957 0.33014 0.33933 0.0
C445 C 0.56092 0.31007 0.36794 0.0
H446 H 0.16482 0.96348 0.04586 0.0
H447 H 0.25427 0.8976 0.00878 0.0
H448 H 0.2797 0.94486 0.97726 0.0
H449 H 0.14976 0.00227 0.97065 0.0
H450 H 0.13948 0.04392 0.99122 0.0
H451 H 0.13116 0.00635 0.01375 0.0
H452 H 0.17204 0.03066 0.06429 0.0
H453 H 0.18043 0.06847 0.04192 0.0
H454 H 0.21837 0.04351 0.05573 0.0
H455 H 0.29038 0.9973 0.94414 0.0
H456 H 0.28609 0.05014 0.91354 0.0
H457 H 0.19142 0.0818 0.9757 0.0
C458 C 0.19003 0.95905 0.03147 0.0
C459 C 0.20752 0.92691 0.02955 0.0
C460 C 0.24056 0.92216 0.01064 0.0
C461 C 0.25517 0.94883 0.99273 0.0
C462 C 0.23673 0.98009 0.99466 0.0
C463 C 0.20511 0.98535 0.01395 0.0
C464 C 0.18919 0.02044 0.01049 0.0
C465 C 0.15011 0.01808 0.99563 0.0
C466 C 0.19008 0.04204 0.04517 0.0
C467 C 0.21595 0.03375 0.98512 0.0
C468 C 0.24341 0.01035 0.97645 0.0
C469 C 0.26946 0.0161 0.95128 0.0
C470 C 0.2669 0.04624 0.93414 0.0
C471 C 0.2384 0.07009 0.94224 0.0
C472 C 0.21336 0.064 0.96874 0.0
H473 H 0.50275 0.71812 0.45094 0.0
H474 H 0.54729 0.6455 0.37238 0.0
H475 H 0.48645 0.63995 0.34474 0.0
H476 H 0.42632 0.6726 0.4642 0.0
H477 H 0.39543 0.70816 0.4725 0.0
H478 H 0.44353 0.71378 0.48052 0.0
H479 H 0.4451 0.76341 0.44023 0.0
H480 H 0.39676 0.75792 0.43207 0.0
H481 H 0.4287 0.75638 0.39657 0.0
H482 H 0.4205 0.6342 0.33194 0.0
H483 H 0.35375 0.62541 0.33733 0.0
H484 H 0.35044 0.69954 0.42554 0.0
C485 C 0.49983 0.70232 0.42702 0.0
C486 C 0.52959 0.68289 0.4131 0.0
C487 C 0.52476 0.66101 0.38288 0.0
C488 C 0.49039 0.65787 0.36699 0.0
C489 C 0.46112 0.67652 0.3819 0.0
C490 C 0.46543 0.69829 0.41134 0.0
C491 C 0.42867 0.71064 0.42565 0.0
C492 C 0.42319 0.70067 0.46289 0.0
C493 C 0.42458 0.74939 0.42349 0.0
C494 C 0.40301 0.69106 0.40074 0.0
C495 C 0.42234 0.67236 0.37508 0.0
C496 C 0.40499 0.64943 0.35126 0.0
C497 C 0.36715 0.64463 0.3544 0.0
C498 C 0.34723 0.66254 0.38121 0.0
C499 C 0.36512 0.68665 0.40407 0.0
H500 H 0.39744 0.4333 0.6623 0.0
H501 H 0.27935 0.43283 0.65054 0.0
H502 H 0.27523 0.48561 0.6894 0.0
H503 H 0.39872 0.47141 0.7549 0.0
H504 H 0.43935 0.49567 0.7468 0.0
H505 H 0.43211 0.45452 0.72388 0.0
H506 H 0.43937 0.48205 0.66581 0.0
H507 H 0.44636 0.52316 0.68837 0.0
H508 H 0.41037 0.5175 0.65681 0.0
H509 H 0.28547 0.54426 0.71922 0.0
H510 H 0.30888 0.60156 0.73853 0.0
H511 H 0.41982 0.56172 0.73484 0.0
C512 C 0.37059 0.44368 0.66877 0.0
C513 C 0.33872 0.42893 0.65343 0.0
C514 C 0.30412 0.44346 0.66228 0.0
C515 C 0.30152 0.47347 0.68434 0.0
C516 C 0.33369 0.48816 0.69796 0.0
C517 C 0.36753 0.47329 0.69101 0.0
C518 C 0.39828 0.49564 0.70591 0.0
C519 C 0.41828 0.47827 0.73459 0.0
C520 C 0.42513 0.50515 0.67753 0.0
C521 C 0.37667 0.52639 0.72046 0.0
C522 C 0.33943 0.52149 0.71613 0.0
C523 C 0.31449 0.54801 0.72369 0.0
C524 C 0.32805 0.58053 0.73484 0.0
C525 C 0.36624 0.58631 0.73822 0.0
C526 C 0.39049 0.55832 0.73239 0.0
H527 H 0.01126 0.85379 0.12591 0.0
H528 H 0.0133 0.75252 0.07265 0.0
H529 H 0.94739 0.74577 0.08519 0.0
H530 H 0.94238 0.83341 0.19332 0.0
H531 H 0.92187 0.87519 0.19295 0.0
H532 H 0.97013 0.86969 0.18428 0.0
H533 H 0.96209 0.89731 0.12635 0.0
H534 H 0.91392 0.90264 0.13462 0.0
H535 H 0.92926 0.87947 0.09541 0.0
H536 H 0.87934 0.75447 0.09478 0.0
H537 H 0.81636 0.77666 0.10318 0.0
H538 H 0.85994 0.87015 0.1544 0.0
C539 C 0.99807 0.82984 0.11763 0.0
C540 C 0.01738 0.8037 0.0983 0.0
C541 C 0.99911 0.77279 0.08777 0.0
C542 C 0.96166 0.76874 0.09475 0.0
C543 C 0.94313 0.7955 0.11295 0.0
C544 C 0.96095 0.8252 0.12483 0.0
C545 C 0.93451 0.85109 0.14168 0.0
C546 C 0.94272 0.85772 0.18036 0.0
C547 C 0.93498 0.88458 0.12341 0.0
C548 C 0.89875 0.83209 0.13581 0.0
C549 C 0.90419 0.79995 0.11951 0.0
C550 C 0.87481 0.77924 0.10835 0.0
C551 C 0.83905 0.79202 0.11336 0.0
C552 C 0.83299 0.82525 0.12935 0.0
C553 C 0.86342 0.84483 0.1417 0.0
H554 H 0.65899 0.58005 0.55973 0.0
H555 H 0.76184 0.58584 0.5043 0.0
H556 H 0.78739 0.54025 0.53753 0.0
H557 H 0.70046 0.56111 0.64396 0.0
H558 H 0.66336 0.53285 0.65313 0.0
H559 H 0.65508 0.56891 0.62812 0.0
H560 H 0.62796 0.52815 0.57905 0.0
H561 H 0.63651 0.49201 0.60364 0.0
H562 H 0.6552 0.49289 0.56079 0.0
H563 H 0.79791 0.48818 0.56986 0.0
H564 H 0.79417 0.43647 0.60203 0.0
H565 H 0.68632 0.46805 0.6397 0.0
C566 C 0.68713 0.57219 0.55508 0.0
C567 C 0.70842 0.58631 0.52944 0.0
C568 C 0.74514 0.57545 0.52404 0.0
C569 C 0.75988 0.54958 0.54275 0.0
C570 C 0.73777 0.53547 0.56719 0.0
C571 C 0.70241 0.54684 0.57386 0.0
C572 C 0.68364 0.52624 0.60003 0.0
C573 C 0.67515 0.54862 0.63329 0.0
C574 C 0.64879 0.5088 0.58496 0.0
C575 C 0.71333 0.50048 0.60578 0.0
C576 C 0.74443 0.50628 0.58682 0.0
C577 C 0.7741 0.48386 0.58557 0.0
C578 C 0.77176 0.45459 0.60402 0.0
C579 C 0.73998 0.44812 0.62349 0.0
C580 C 0.71088 0.47193 0.62484 0.0
H581 H 0.92943 0.12267 0.08754 0.0
H582 H 0.94377 0.23067 0.07399 0.0
H583 H 0.98067 0.23671 0.12754 0.0
H584 H 0.92238 0.13107 0.18152 0.0
H585 H 0.94669 0.09164 0.1859 0.0
H586 H 0.91961 0.09682 0.14798 0.0
H587 H 0.97639 0.0821 0.10948 0.0
H588 H 0.00366 0.07707 0.14723 0.0
H589 H 0.01785 0.10659 0.11648 0.0
H590 H 0.02055 0.22919 0.18022 0.0
H591 H 0.05799 0.20936 0.22774 0.0
H592 H 0.01418 0.10698 0.20711 0.0
C593 C 0.94006 0.14772 0.09586 0.0
C594 C 0.9339 0.17618 0.07646 0.0
C595 C 0.94809 0.20852 0.08849 0.0
C596 C 0.96908 0.21217 0.11884 0.0
C597 C 0.97511 0.18335 0.13699 0.0
C598 C 0.96064 0.15184 0.12605 0.0
C599 C 0.97174 0.12455 0.14939 0.0
C600 C 0.9381 0.11019 0.16726 0.0
C601 C 0.99371 0.0959 0.12945 0.0
C602 C 0.9956 0.14536 0.17477 0.0
C603 C 0.99716 0.17924 0.16741 0.0
C604 C 0.01907 0.20282 0.18649 0.0
C605 C 0.04012 0.19134 0.21354 0.0
C606 C 0.03913 0.15658 0.22121 0.0
C607 C 0.016 0.13362 0.20176 0.0
H608 H 0.21457 0.77891 0.17811 0.0
H609 H 0.13315 0.70787 0.13361 0.0
H610 H 0.13495 0.67651 0.1863 0.0
H611 H 0.26735 0.71701 0.22285 0.0
H612 H 0.27604 0.74697 0.2594 0.0
H613 H 0.27018 0.76211 0.21718 0.0
H614 H 0.21817 0.80242 0.24083 0.0
H615 H 0.22365 0.78726 0.28303 0.0
H616 H 0.17952 0.78478 0.26229 0.0
H617 H 0.14301 0.65507 0.24528 0.0
H618 H 0.15789 0.6446 0.30579 0.0
H619 H 0.23345 0.72992 0.31111 0.0
C620 C 0.1974 0.7565 0.17909 0.0
C621 C 0.17374 0.74585 0.15159 0.0
C622 C 0.15161 0.71649 0.15423 0.0
C623 C 0.15242 0.69851 0.18406 0.0
C624 C 0.17559 0.71017 0.21087 0.0
C625 C 0.19783 0.73837 0.20854 0.0
C626 C 0.21924 0.74656 0.2414 0.0
C627 C 0.26066 0.74293 0.2348 0.0
C628 C 0.20954 0.78237 0.25785 0.0
C629 C 0.20517 0.71884 0.26287 0.0
C630 C 0.18014 0.69798 0.24476 0.0
C631 C 0.16274 0.67107 0.25959 0.0
C632 C 0.17122 0.66537 0.29383 0.0
C633 C 0.19665 0.68656 0.31251 0.0
C634 C 0.21393 0.71347 0.29699 0.0
H635 H 0.77501 0.71609 0.53266 0.0
H636 H 0.68781 0.79123 0.5471 0.0
H637 H 0.72212 0.82046 0.59549 0.0
H638 H 0.79251 0.70866 0.62066 0.0
H639 H 0.84134 0.70376 0.61535 0.0
H640 H 0.81112 0.69033 0.58042 0.0
H641 H 0.84563 0.72928 0.54024 0.0
H642 H 0.87613 0.74271 0.57502 0.0
H643 H 0.85094 0.77412 0.55316 0.0
H644 H 0.76515 0.83978 0.64475 0.0
H645 H 0.81362 0.84739 0.68958 0.0
H646 H 0.87131 0.75937 0.64226 0.0
C647 C 0.76321 0.73895 0.54559 0.0
C648 C 0.72868 0.75135 0.53587 0.0
C649 C 0.71425 0.78122 0.5539 0.0
C650 C 0.73354 0.79802 0.58146 0.0
C651 C 0.76724 0.78473 0.59065 0.0
C652 C 0.78197 0.75593 0.5731 0.0
C653 C 0.81794 0.74591 0.58869 0.0
C654 C 0.81556 0.71005 0.60207 0.0
C655 C 0.84952 0.74815 0.56273 0.0
C656 C 0.82106 0.77333 0.61802 0.0
C657 C 0.79168 0.79564 0.61876 0.0
C658 C 0.78837 0.82259 0.64424 0.0
C659 C 0.81584 0.82673 0.66954 0.0
C660 C 0.84583 0.80397 0.66894 0.0
C661 C 0.84852 0.77713 0.64293 0.0
H662 H 0.81611 0.24305 0.07977 0.0
H663 H 0.72108 0.22762 0.01381 0.0
H664 H 0.68184 0.255 0.0599 0.0
H665 H 0.77299 0.21931 0.15345 0.0
H666 H 0.79633 0.2493 0.18324 0.0
H667 H 0.81799 0.23462 0.14325 0.0
H668 H 0.82585 0.29723 0.12765 0.0
H669 H 0.80425 0.31218 0.16774 0.0
H670 H 0.78638 0.32485 0.12747 0.0
H671 H 0.65211 0.27823 0.11454 0.0
H672 H 0.63339 0.29224 0.17521 0.0
H673 H 0.7469 0.2899 0.20705 0.0
C674 C 0.78723 0.24653 0.07473 0.0
C675 C 0.7716 0.23389 0.0431 0.0
C676 C 0.73352 0.23752 0.03779 0.0
C677 C 0.7111 0.25315 0.06375 0.0
C678 C 0.72715 0.26468 0.09499 0.0
C679 C 0.76433 0.26143 0.10068 0.0
C680 C 0.77394 0.27193 0.13791 0.0
C681 C 0.79132 0.24201 0.15548 0.0
C682 C 0.79909 0.30343 0.14032 0.0
C683 C 0.73625 0.28067 0.15247 0.0
C684 C 0.70976 0.27701 0.12707 0.0
C685 C 0.67264 0.28169 0.13453 0.0
C686 C 0.66225 0.28966 0.16894 0.0
C687 C 0.68884 0.29255 0.19528 0.0
C688 C 0.72626 0.2885 0.18701 0.0
H689 H 0.35889 0.2365 0.66734 0.0
H690 H 0.25886 0.29644 0.66389 0.0
H691 H 0.23958 0.27655 0.71923 0.0
H692 H 0.31704 0.16411 0.70668 0.0
H693 H 0.35631 0.15692 0.7332 0.0
H694 H 0.36226 0.17488 0.69228 0.0
H695 H 0.39623 0.22671 0.72272 0.0
H696 H 0.39018 0.20904 0.76375 0.0
H697 H 0.37408 0.2516 0.7577 0.0
H698 H 0.23147 0.25286 0.77566 0.0
H699 H 0.23444 0.22372 0.82983 0.0
H700 H 0.33841 0.17821 0.79769 0.0
C701 C 0.33279 0.24514 0.67806 0.0
C702 C 0.31059 0.26817 0.66114 0.0
C703 C 0.27663 0.27896 0.67624 0.0
C704 C 0.26528 0.2678 0.70776 0.0
C705 C 0.28797 0.24567 0.72399 0.0
C706 C 0.32086 0.23417 0.70971 0.0
C707 C 0.34005 0.21065 0.73309 0.0
C708 C 0.34414 0.17449 0.71525 0.0
C709 C 0.37734 0.22539 0.74502 0.0
C710 C 0.31292 0.21119 0.76273 0.0
C711 C 0.28308 0.23158 0.75683 0.0
C712 C 0.25455 0.23663 0.78057 0.0
C713 C 0.25644 0.22011 0.81117 0.0
C714 C 0.28655 0.19897 0.81745 0.0
C715 C 0.31515 0.19442 0.79314 0.0
H716 H 0.63552 0.75536 0.36183 0.0
H717 H 0.75004 0.7328 0.37985 0.0
H718 H 0.7659 0.75079 0.32244 0.0
H719 H 0.63404 0.72359 0.2751 0.0
H720 H 0.60403 0.75592 0.26038 0.0
H721 H 0.60145 0.74477 0.30437 0.0
H722 H 0.6122 0.80799 0.32633 0.0
H723 H 0.6142 0.81947 0.28238 0.0
H724 H 0.65159 0.83033 0.31136 0.0
H725 H 0.76925 0.76663 0.26228 0.0
H726 H 0.76007 0.78359 0.20298 0.0
H727 H 0.64372 0.7957 0.22275 0.0
C728 C 0.66401 0.7551 0.35399 0.0
C729 C 0.69158 0.7428 0.37526 0.0
C730 C 0.72849 0.74208 0.36388 0.0
C731 C 0.7378 0.75224 0.33134 0.0
C732 C 0.7099 0.76307 0.3105 0.0
C733 C 0.67381 0.76497 0.32135 0.0
C734 C 0.64906 0.7761 0.29303 0.0
C735 C 0.62047 0.74844 0.28262 0.0
C736 C 0.63069 0.81053 0.30393 0.0
C737 C 0.67687 0.77964 0.26454 0.0
C738 C 0.7118 0.77204 0.27529 0.0
C739 C 0.7421 0.77284 0.25354 0.0
C740 C 0.73664 0.78223 0.21996 0.0
C741 C 0.70126 0.79046 0.20868 0.0
C742 C 0.67097 0.78911 0.23102 0.0
H743 H 0.85403 0.25873 0.88757 0.0
H744 H 0.76599 0.18475 0.87065 0.0
H745 H 0.75069 0.20911 0.81616 0.0
H746 H 0.80654 0.32907 0.85466 0.0
H747 H 0.84654 0.3459 0.83464 0.0
H748 H 0.85137 0.32215 0.8722 0.0
H749 H 0.89628 0.28045 0.83875 0.0
H750 H 0.89153 0.30403 0.80105 0.0
H751 H 0.88213 0.2588 0.79841 0.0
H752 H 0.7441 0.24148 0.76385 0.0
H753 H 0.74645 0.28132 0.71738 0.0
H754 H 0.83798 0.33426 0.76808 0.0
C755 C 0.83159 0.24759 0.87241 0.0
C756 C 0.81127 0.21982 0.88354 0.0
C757 C 0.78201 0.20609 0.86286 0.0
C758 C 0.77309 0.21966 0.83175 0.0
C759 C 0.79362 0.24697 0.82158 0.0
C760 C 0.82221 0.26087 0.84124 0.0
C761 C 0.83947 0.29059 0.82458 0.0
C762 C 0.83574 0.32389 0.84791 0.0
C763 C 0.87974 0.283 0.81514 0.0
C764 C 0.8159 0.2913 0.79268 0.0
C765 C 0.78972 0.2658 0.79137 0.0
C766 C 0.7645 0.26152 0.76451 0.0
C767 C 0.76597 0.28413 0.73834 0.0
C768 C 0.79237 0.31042 0.73958 0.0
C769 C 0.81768 0.31406 0.76683 0.0
H770 H 0.23106 0.2855 0.50306 0.0
H771 H 0.31987 0.21161 0.49385 0.0
H772 H 0.28437 0.1764 0.45048 0.0
H773 H 0.15675 0.2244 0.49387 0.0
H774 H 0.12887 0.2515 0.46916 0.0
H775 H 0.16086 0.27024 0.50033 0.0
H776 H 0.19123 0.30379 0.45296 0.0
H777 H 0.15936 0.28517 0.42166 0.0
H778 H 0.20794 0.28085 0.41412 0.0
H779 H 0.23949 0.14989 0.4063 0.0
H780 H 0.18871 0.13502 0.36527 0.0
H781 H 0.13015 0.22609 0.40392 0.0
C782 C 0.24305 0.26182 0.49217 0.0
C783 C 0.27833 0.25141 0.50204 0.0
C784 C 0.29292 0.22024 0.48684 0.0
C785 C 0.27294 0.19999 0.46216 0.0
C786 C 0.23836 0.21114 0.45292 0.0
C787 C 0.22354 0.24133 0.46751 0.0
C788 C 0.18621 0.24807 0.45262 0.0
C789 C 0.15642 0.24857 0.48067 0.0
C790 C 0.18621 0.28144 0.43425 0.0
C791 C 0.18243 0.21711 0.42719 0.0
C792 C 0.2127 0.19598 0.42773 0.0
C793 C 0.21557 0.16614 0.40582 0.0
C794 C 0.18677 0.15786 0.38269 0.0
C795 C 0.15585 0.1794 0.38192 0.0
C796 C 0.1536 0.20918 0.40442 0.0
H797 H 0.1953 0.7481 0.96084 0.0
H798 H 0.28545 0.77115 0.03137 0.0
H799 H 0.3292 0.74923 0.98632 0.0
H800 H 0.2345 0.67054 0.91533 0.0
H801 H 0.21701 0.68116 0.87417 0.0
H802 H 0.19261 0.69464 0.91321 0.0
H803 H 0.19512 0.75748 0.89713 0.0
H804 H 0.21943 0.74425 0.8581 0.0
H805 H 0.23881 0.77641 0.8883 0.0
H806 H 0.3633 0.72877 0.93241 0.0
H807 H 0.38527 0.71475 0.87266 0.0
H808 H 0.27313 0.70686 0.83689 0.0
C809 C 0.22419 0.74783 0.96711 0.0
C810 C 0.23695 0.76098 0.99978 0.0
C811 C 0.27505 0.76107 0.00658 0.0
C812 C 0.30007 0.74851 0.98122 0.0
C813 C 0.28657 0.73612 0.94915 0.0
C814 C 0.24951 0.73583 0.94198 0.0
C815 C 0.24226 0.72415 0.90457 0.0
C816 C 0.2203 0.69063 0.90166 0.0
C817 C 0.22277 0.75225 0.88594 0.0
C818 C 0.28108 0.71854 0.89157 0.0
C819 C 0.30623 0.72504 0.91784 0.0
C820 C 0.34387 0.7232 0.91177 0.0
C821 C 0.3561 0.71516 0.87789 0.0
C822 C 0.33076 0.70931 0.85071 0.0
C823 C 0.29289 0.71057 0.85759 0.0
loop_
_geom_bond_atom_site_label_1
_geom_bond_atom_site_label_2
_geom_bond_distance
_geom_bond_site_symmetry_2
_ccdc_geom_bond_type
Sc0 O3 2.025 . S
Sc0 O10 2.105 . S
Sc0 O13 2.105 . S
Sc0 O16 2.105 . S
Sc0 O19 2.105 1_554 S
Sc1 O3 2.025 . S
Sc1 O11 2.105 1_554 S
Sc1 O15 2.105 . S
Sc1 O17 2.105 . S
Sc1 O21 2.105 . S
Sc2 O3 2.025 . S
Sc2 O12 2.105 . S
Sc2 O14 2.105 . S
Sc2 O18 2.105 . S
Sc2 O20 2.105 . S
O3 Sc0 2.025 . S
O3 Sc1 2.025 . S
O3 Sc2 2.025 . S
C4 O10 1.268 . S
C4 O20 1.268 . S
C5 O11 1.268 . S
C5 O19 1.268 . S
C6 O12 1.261 1_556 S
C6 O21 1.266 1_556 S
C7 O13 1.268 . S
C7 O17 1.268 . S
C8 O14 1.268 . S
C8 O16 1.268 . S
C9 O15 1.268 . S
C9 O18 1.268 . S
O10 Sc0 2.105 . S
O10 C4 1.268 . S
O11 Sc1 2.105 1_556 S
O11 C5 1.268 . S
O12 Sc2 2.105 . S
O12 C6 1.261 1_554 S
O13 Sc0 2.105 . S
O13 C7 1.268 . S
O14 Sc2 2.105 . S
O14 C8 1.268 . S
O15 Sc1 2.105 . S
O15 C9 1.268 . S
O16 Sc0 2.105 . S
O16 C8 1.268 . S
O17 Sc1 2.105 . S
O17 C7 1.268 . S
O18 Sc2 2.105 . S
O18 C9 1.268 . S
O19 Sc0 2.105 1_556 S
O19 C5 1.268 . S
O20 Sc2 2.105 . S
O20 C4 1.268 . S
O21 Sc1 2.105 . S
O21 C6 1.266 1_554 S
Sc22 O25 2.025 . S
Sc22 O32 2.105 . S
Sc22 O35 2.105 . S
Sc22 O38 2.105 . S
Sc22 O41 2.105 . S
Sc23 O25 2.025 . S
Sc23 O33 2.105 . S
Sc23 O37 2.105 . S
Sc23 O39 2.105 . S
Sc23 O43 2.105 . S
Sc24 O25 2.025 . S
Sc24 O34 2.105 . S
Sc24 O36 2.105 . S
Sc24 O40 2.105 . S
Sc24 O42 2.105 . S
O25 Sc22 2.025 . S
O25 Sc23 2.025 . S
O25 Sc24 2.025 . S
C26 O32 1.268 . S
C26 O42 1.268 . S
C27 O33 1.268 . S
C27 O41 1.268 . S
C28 O34 1.268 . S
C28 O43 1.268 . S
C29 O35 1.268 . S
C29 O39 1.268 . S
C30 O36 1.268 . S
C30 O38 1.268 . S
C31 O37 1.268 . S
C31 O40 1.268 . S
O32 Sc22 2.105 . S
O32 C26 1.268 . S
O33 Sc23 2.105 . S
O33 C27 1.268 . S
O34 Sc24 2.105 . S
O34 C28 1.268 . S
O35 Sc22 2.105 . S
O35 C29 1.268 . S
O36 Sc24 2.105 . S
O36 C30 1.268 . S
O37 Sc23 2.105 . S
O37 C31 1.268 . S
O38 Sc22 2.105 . S
O38 C30 1.268 . S
O39 Sc23 2.105 . S
O39 C29 1.268 . S
O40 Sc24 2.105 . S
O40 C31 1.268 . S
O41 Sc22 2.105 . S
O41 C27 1.268 . S
O42 Sc24 2.105 . S
O42 C26 1.268 . S
O43 Sc23 2.105 . S
O43 C28 1.268 . S
Sc44 O47 2.025 . S
Sc44 O54 2.105 1_554 S
Sc44 O57 2.105 . S
Sc44 O60 2.105 . S
Sc44 O63 2.105 1_554 S
Sc45 O47 2.025 1_556 S
Sc45 O55 2.105 . S
Sc45 O59 2.105 1_556 S
Sc45 O61 2.105 1_556 S
Sc45 O65 2.105 . S
Sc46 O47 2.025 . S
Sc46 O56 2.105 1_554 S
Sc46 O58 2.105 . S
Sc46 O62 2.105 . S
Sc46 O64 2.105 1_554 S
O47 Sc44 2.025 . S
O47 Sc45 2.025 1_554 S
O47 Sc46 2.025 . S
C48 O54 1.268 . S
C48 O64 1.268 . S
C49 O55 1.268 . S
C49 O63 1.268 . S
C50 O56 1.268 . S
C50 O65 1.268 . S
C51 O57 1.268 . S
C51 O61 1.268 . S
C52 O58 1.268 . S
C52 O60 1.268 . S
C53 O59 1.268 . S
C53 O62 1.268 . S
O54 Sc44 2.105 1_556 S
O54 C48 1.268 . S
O55 Sc45 2.105 . S
O55 C49 1.268 . S
O56 Sc46 2.105 1_556 S
O56 C50 1.268 . S
O57 Sc44 2.105 . S
O57 C51 1.268 . S
O58 Sc46 2.105 . S
O58 C52 1.268 . S
O59 Sc45 2.105 1_554 S
O59 C53 1.268 . S
O60 Sc44 2.105 . S
O60 C52 1.268 . S
O61 Sc45 2.105 1_554 S
O61 C51 1.268 . S
O62 Sc46 2.105 . S
O62 C53 1.268 . S
O63 Sc44 2.105 1_556 S
O63 C49 1.268 . S
O64 Sc46 2.105 1_556 S
O64 C48 1.268 . S
O65 Sc45 2.105 . S
O65 C50 1.268 . S
Sc66 O69 2.025 . S
Sc66 O76 2.105 . S
Sc66 O79 2.105 . S
Sc66 O82 2.105 . S
Sc66 O85 2.105 . S
Sc67 O69 2.025 . S
Sc67 O77 2.105 . S
Sc67 O81 2.105 . S
Sc67 O83 2.105 . S
Sc67 O87 2.105 . S
Sc68 O69 2.025 . S
Sc68 O78 2.105 . S
Sc68 O80 2.105 . S
Sc68 O84 2.105 . S
Sc68 O86 2.105 . S
O69 Sc66 2.025 . S
O69 Sc67 2.025 . S
O69 Sc68 2.025 . S
C70 O76 1.268 . S
C70 O86 1.268 . S
C71 O77 1.268 . S
C71 O85 1.268 . S
C72 O78 1.268 . S
C72 O87 1.268 . S
C73 O79 1.268 . S
C73 O83 1.268 . S
C74 O80 1.268 . S
C74 O82 1.268 . S
C75 O81 1.268 . S
C75 O84 1.268 . S
O76 Sc66 2.105 . S
O76 C70 1.268 . S
O77 Sc67 2.105 . S
O77 C71 1.268 . S
O78 Sc68 2.105 . S
O78 C72 1.268 . S
O79 Sc66 2.105 . S
O79 C73 1.268 . S
O80 Sc68 2.105 . S
O80 C74 1.268 . S
O81 Sc67 2.105 . S
O81 C75 1.268 . S
O82 Sc66 2.105 . S
O82 C74 1.268 . S
O83 Sc67 2.105 . S
O83 C73 1.268 . S
O84 Sc68 2.105 . S
O84 C75 1.268 . S
O85 Sc66 2.105 . S
O85 C71 1.268 . S
O86 Sc68 2.105 . S
O86 C70 1.268 . S
O87 Sc67 2.105 . S
O87 C72 1.268 . S
H88 C91 0.929 . S
H89 C94 0.929 . S
H90 C96 0.930 . S
C91 H88 0.929 . S
C91 C92 1.398 . S
C91 C93 1.396 . S
C92 C91 1.398 . S
C92 C96 1.407 . S
C93 C91 1.396 . S
C93 C94 1.394 . S
C94 H89 0.929 . S
C94 C93 1.394 . S
C94 C95 1.382 . S
C95 C94 1.382 . S
C95 C96 1.392 . S
C95 N97 1.420 . S
C96 H90 0.930 . S
C96 C92 1.407 . S
C96 C95 1.392 . S
N97 C95 1.420 . S
N97 C98 1.244 . S
C98 N97 1.244 . S
H99 C102 0.929 . S
H100 C105 0.929 . S
H101 C107 0.930 . S
C102 H99 0.929 . S
C102 C103 1.398 . S
C102 C104 1.396 . S
C103 C102 1.398 . S
C103 C107 1.407 . S
C104 C102 1.396 . S
C104 C105 1.394 . S
C105 H100 0.929 . S
C105 C104 1.394 . S
C105 C106 1.382 . S
C106 C105 1.382 . S
C106 C107 1.392 . S
C106 N108 1.420 . S
C107 H101 0.930 . S
C107 C103 1.407 . S
C107 C106 1.392 . S
N108 C106 1.420 . S
N108 C109 1.244 . S
C109 N108 1.244 . S
H110 C113 0.929 . S
H111 C116 0.929 . S
H112 C118 0.930 . S
C113 H110 0.929 . S
C113 C114 1.398 . S
C113 C115 1.396 . S
C114 C113 1.398 . S
C114 C118 1.407 . S
C115 C113 1.396 . S
C115 C116 1.394 . S
C116 H111 0.929 . S
C116 C115 1.394 . S
C116 C117 1.382 . S
C117 C116 1.382 . S
C117 C118 1.392 . S
C117 N119 1.420 . S
C118 H112 0.930 . S
C118 C114 1.407 . S
C118 C117 1.392 . S
N119 C117 1.420 . S
N119 C120 1.244 . S
C120 N119 1.244 . S
H121 C124 0.929 . S
H122 C127 0.929 . S
H123 C129 0.930 . S
C124 H121 0.929 . S
C124 C125 1.398 . S
C124 C126 1.396 . S
C125 C124 1.398 . S
C125 C129 1.407 . S
C126 C124 1.396 . S
C126 C127 1.394 . S
C127 H122 0.929 . S
C127 C126 1.394 . S
C127 C128 1.382 . S
C128 C127 1.382 . S
C128 C129 1.392 . S
C128 N130 1.420 . S
C129 H123 0.930 . S
C129 C125 1.407 . S
C129 C128 1.392 . S
N130 C128 1.420 . S
N130 C131 1.244 . S
C131 N130 1.244 . S
H132 C135 0.929 . S
H133 C138 0.929 . S
H134 C140 0.930 . S
C135 H132 0.929 . S
C135 C136 1.398 . S
C135 C137 1.396 . S
C136 C135 1.398 . S
C136 C140 1.407 . S
C137 C135 1.396 . S
C137 C138 1.394 . S
C138 H133 0.929 . S
C138 C137 1.394 . S
C138 C139 1.382 . S
C139 C138 1.382 . S
C139 C140 1.392 . S
C139 N141 1.420 . S
C140 H134 0.930 . S
C140 C136 1.407 . S
C140 C139 1.392 . S
N141 C139 1.420 . S
N141 C142 1.244 . S
C142 N141 1.244 . S
H143 C146 0.929 . S
H144 C149 0.929 . S
H145 C151 0.930 . S
C146 H143 0.929 . S
C146 C147 1.398 . S
C146 C148 1.396 . S
C147 C146 1.398 . S
C147 C151 1.407 . S
C148 C146 1.396 . S
C148 C149 1.394 . S
C149 H144 0.929 . S
C149 C148 1.394 . S
C149 C150 1.382 . S
C150 C149 1.382 . S
C150 C151 1.392 . S
C150 N152 1.420 . S
C151 H145 0.930 . S
C151 C147 1.407 . S
C151 C150 1.392 . S
N152 C150 1.420 . S
N152 C153 1.244 . S
C153 N152 1.244 . S
H154 C157 0.929 . S
H155 C160 0.929 . S
H156 C162 0.930 . S
C157 H154 0.929 . S
C157 C158 1.398 . S
C157 C159 1.396 . S
C158 C157 1.398 . S
C158 C162 1.407 . S
C159 C157 1.396 . S
C159 C160 1.394 . S
C160 H155 0.929 . S
C160 C159 1.394 . S
C160 C161 1.382 . S
C161 C160 1.382 . S
C161 C162 1.392 . S
C161 N163 1.420 . S
C162 H156 0.930 . S
C162 C158 1.407 . S
C162 C161 1.392 . S
N163 C161 1.420 . S
N163 C164 1.244 . S
C164 N163 1.244 . S
H165 C168 0.929 . S
H166 C171 0.929 . S
H167 C173 0.930 . S
C168 H165 0.929 . S
C168 C169 1.398 . S
C168 C170 1.396 . S
C169 C168 1.398 . S
C169 C173 1.407 . S
C170 C168 1.396 . S
C170 C171 1.394 . S
C171 H166 0.929 . S
C171 C170 1.394 . S
C171 C172 1.382 . S
C172 C171 1.382 . S
C172 C173 1.392 . S
C172 N174 1.420 . S
C173 H167 0.930 . S
C173 C169 1.407 . S
C173 C172 1.392 . S
N174 C172 1.420 . S
N174 C175 1.244 . S
C175 N174 1.244 . S
H176 C188 0.930 . S
H177 C190 0.930 . S
H178 C191 0.930 . S
H179 C195 0.959 . S
H180 C195 0.959 . S
H181 C195 0.961 . S
H182 C196 0.960 . S
H183 C196 0.961 . S
H184 C196 0.959 . S
H185 C199 0.929 . S
H186 C200 0.931 . S
H187 C202 0.930 . S
C188 H176 0.930 . S
C188 C189 1.399 . S
C188 C193 1.399 . S
C189 C188 1.399 . S
C189 C190 1.376 . S
C190 H177 0.930 . S
C190 C189 1.376 . S
C190 C191 1.388 1_565 S
C191 H178 0.930 . S
C191 C190 1.388 1_545 S
C191 C192 1.390 . S
C192 C191 1.390 . S
C192 C193 1.394 1_545 S
C192 C198 1.465 . S
C193 C188 1.399 . S
C193 C192 1.394 1_565 S
C193 C194 1.516 . S
C194 C193 1.516 . S
C194 C195 1.502 . S
C194 C196 1.561 . S
C194 C197 1.526 1_565 S
C195 H179 0.959 . S
C195 H180 0.959 . S
C195 H181 0.961 . S
C195 C194 1.502 . S
C196 H182 0.960 . S
C196 H183 0.961 . S
C196 H184 0.959 . S
C196 C194 1.561 . S
C197 C194 1.526 1_545 S
C197 C198 1.396 . S
C197 C202 1.390 . S
C198 C192 1.465 . S
C198 C197 1.396 . S
C198 C199 1.399 . S
C199 H185 0.929 . S
C199 C198 1.399 . S
C199 C200 1.385 . S
C200 H186 0.931 . S
C200 C199 1.385 . S
C200 C201 1.389 . S
C201 C200 1.389 . S
C201 C202 1.387 . S
C202 H187 0.930 . S
C202 C197 1.390 . S
C202 C201 1.387 . S
H203 C215 0.930 . S
H204 C217 0.930 . S
H205 C218 0.930 . S
H206 C222 0.959 . S
H207 C222 0.959 . S
H208 C222 0.961 . S
H209 C223 0.960 . S
H210 C223 0.961 . S
H211 C223 0.959 . S
H212 C226 0.929 . S
H213 C227 0.931 . S
H214 C229 0.930 . S
C215 H203 0.930 . S
C215 C216 1.399 . S
C215 C220 1.399 . S
C216 C215 1.399 . S
C216 C217 1.376 . S
C217 H204 0.930 . S
C217 C216 1.376 . S
C217 C218 1.388 . S
C218 H205 0.930 . S
C218 C217 1.388 . S
C218 C219 1.390 . S
C219 C218 1.390 . S
C219 C220 1.394 . S
C219 C225 1.465 . S
C220 C215 1.399 . S
C220 C219 1.394 . S
C220 C221 1.516 . S
C221 C220 1.516 . S
C221 C222 1.502 . S
C221 C223 1.561 . S
C221 C224 1.526 . S
C222 H206 0.959 . S
C222 H207 0.959 . S
C222 H208 0.961 . S
C222 C221 1.502 . S
C223 H209 0.960 . S
C223 H210 0.961 . S
C223 H211 0.959 . S
C223 C221 1.561 . S
C224 C221 1.526 . S
C224 C225 1.396 . S
C224 C229 1.390 . S
C225 C219 1.465 . S
C225 C224 1.396 . S
C225 C226 1.399 . S
C226 H212 0.929 . S
C226 C225 1.399 . S
C226 C227 1.385 . S
C227 H213 0.931 . S
C227 C226 1.385 . S
C227 C228 1.389 . S
C228 C227 1.389 . S
C228 C229 1.387 . S
C229 H214 0.930 . S
C229 C224 1.390 . S
C229 C228 1.387 . S
H230 C242 0.930 . S
H231 C244 0.930 . S
H232 C245 0.930 . S
H233 C249 0.959 1_545 S
H234 C249 0.959 . S
H235 C249 0.961 1_545 S
H236 C250 0.960 . S
H237 C250 0.961 . S
H238 C250 0.959 . S
H239 C253 0.929 . S
H240 C254 0.931 . S
H241 C256 0.930 . S
C242 H230 0.930 . S
C242 C243 1.399 . S
C242 C247 1.399 . S
C243 C242 1.399 . S
C243 C244 1.376 . S
C244 H231 0.930 . S
C244 C243 1.376 . S
C244 C245 1.388 . S
C245 H232 0.930 . S
C245 C244 1.388 . S
C245 C246 1.390 . S
C246 C245 1.390 . S
C246 C247 1.394 . S
C246 C252 1.465 1_545 S
C247 C242 1.399 . S
C247 C246 1.394 . S
C247 C248 1.516 1_545 S
C248 C247 1.516 1_565 S
C248 C249 1.502 . S
C248 C250 1.561 . S
C248 C251 1.526 . S
C249 H233 0.959 1_565 S
C249 H234 0.959 . S
C249 H235 0.961 1_565 S
C249 C248 1.502 . S
C250 H236 0.960 . S
C250 H237 0.961 . S
C250 H238 0.959 . S
C250 C248 1.561 . S
C251 C248 1.526 . S
C251 C252 1.396 . S
C251 C256 1.390 . S
C252 C246 1.465 1_565 S
C252 C251 1.396 . S
C252 C253 1.399 . S
C253 H239 0.929 . S
C253 C252 1.399 . S
C253 C254 1.385 . S
C254 H240 0.931 . S
C254 C253 1.385 . S
C254 C255 1.389 . S
C255 C254 1.389 . S
C255 C256 1.387 . S
C256 H241 0.930 . S
C256 C251 1.390 . S
C256 C255 1.387 . S
H257 C269 0.930 . S
H258 C271 0.930 . S
H259 C272 0.930 . S
H260 C276 0.959 . S
H261 C276 0.959 . S
H262 C276 0.961 . S
H263 C277 0.960 . S
H264 C277 0.961 . S
H265 C277 0.959 . S
H266 C280 0.929 . S
H267 C281 0.931 . S
H268 C283 0.930 . S
C269 H257 0.930 . S
C269 C270 1.399 . S
C269 C274 1.399 . S
C270 C269 1.399 . S
C270 C271 1.376 . S
C271 H258 0.930 . S
C271 C270 1.376 . S
C271 C272 1.388 . S
C272 H259 0.930 . S
C272 C271 1.388 . S
C272 C273 1.390 . S
C273 C272 1.390 . S
C273 C274 1.394 . S
C273 C279 1.465 . S
C274 C269 1.399 . S
C274 C273 1.394 . S
C274 C275 1.516 . S
C275 C274 1.516 . S
C275 C276 1.502 . S
C275 C277 1.561 . S
C275 C278 1.526 . S
C276 H260 0.959 . S
C276 H261 0.959 . S
C276 H262 0.961 . S
C276 C275 1.502 . S
C277 H263 0.960 . S
C277 H264 0.961 . S
C277 H265 0.959 . S
C277 C275 1.561 . S
C278 C275 1.526 . S
C278 C279 1.396 . S
C278 C283 1.390 . S
C279 C273 1.465 . S
C279 C278 1.396 . S
C279 C280 1.399 . S
C280 H266 0.929 . S
C280 C279 1.399 . S
C280 C281 1.385 . S
C281 H267 0.931 . S
C281 C280 1.385 . S
C281 C282 1.389 . S
C282 C281 1.389 . S
C282 C283 1.387 . S
C283 H268 0.930 . S
C283 C278 1.390 . S
C283 C282 1.387 . S
H284 C296 0.930 . S
H285 C298 0.930 . S
H286 C299 0.930 . S
H287 C303 0.959 . S
H288 C303 0.959 . S
H289 C303 0.961 . S
H290 C304 0.960 . S
H291 C304 0.961 . S
H292 C304 0.959 . S
H293 C307 0.929 . S
H294 C308 0.931 . S
H295 C310 0.930 . S
C296 H284 0.930 . S
C296 C297 1.399 . S
C296 C301 1.399 . S
C297 C296 1.399 . S
C297 C298 1.376 . S
C298 H285 0.930 . S
C298 C297 1.376 . S
C298 C299 1.388 . S
C299 H286 0.930 . S
C299 C298 1.388 . S
C299 C300 1.390 . S
C300 C299 1.390 . S
C300 C301 1.394 . S
C300 C306 1.465 . S
C301 C296 1.399 . S
C301 C300 1.394 . S
C301 C302 1.516 . S
C302 C301 1.516 . S
C302 C303 1.502 . S
C302 C304 1.561 . S
C302 C305 1.526 . S
C303 H287 0.959 . S
C303 H288 0.959 . S
C303 H289 0.961 . S
C303 C302 1.502 . S
C304 H290 0.960 . S
C304 H291 0.961 . S
C304 H292 0.959 . S
C304 C302 1.561 . S
C305 C302 1.526 . S
C305 C306 1.396 . S
C305 C310 1.390 . S
C306 C300 1.465 . S
C306 C305 1.396 . S
C306 C307 1.399 . S
C307 H293 0.929 . S
C307 C306 1.399 . S
C307 C308 1.385 . S
C308 H294 0.931 . S
C308 C307 1.385 . S
C308 C309 1.389 . S
C309 C308 1.389 . S
C309 C310 1.387 . S
C310 H295 0.930 . S
C310 C305 1.390 . S
C310 C309 1.387 . S
H311 C323 0.930 . S
H312 C325 0.930 . S
H313 C326 0.930 . S
H314 C330 0.959 . S
H315 C330 0.959 . S
H316 C330 0.961 . S
H317 C331 0.960 . S
H318 C331 0.961 . S
H319 C331 0.959 . S
H320 C334 0.929 . S
H321 C335 0.931 . S
H322 C337 0.930 . S
C323 H311 0.930 . S
C323 C324 1.399 1_455 S
C323 C328 1.399 . S
C324 C323 1.399 1_655 S
C324 C325 1.376 . S
C325 H312 0.930 . S
C325 C324 1.376 . S
C325 C326 1.388 1_655 S
C326 H313 0.930 . S
C326 C325 1.388 1_455 S
C326 C327 1.390 . S
C327 C326 1.390 . S
C327 C328 1.394 . S
C327 C333 1.465 . S
C328 C323 1.399 . S
C328 C327 1.394 . S
C328 C329 1.516 . S
C329 C328 1.516 . S
C329 C330 1.502 . S
C329 C331 1.561 . S
C329 C332 1.526 . S
C330 H314 0.959 . S
C330 H315 0.959 . S
C330 H316 0.961 . S
C330 C329 1.502 . S
C331 H317 0.960 . S
C331 H318 0.961 . S
C331 H319 0.959 . S
C331 C329 1.561 . S
C332 C329 1.526 . S
C332 C333 1.396 . S
C332 C337 1.390 . S
C333 C327 1.465 . S
C333 C332 1.396 . S
C333 C334 1.399 . S
C334 H320 0.929 . S
C334 C333 1.399 . S
C334 C335 1.385 . S
C335 H321 0.931 . S
C335 C334 1.385 . S
C335 C336 1.389 . S
C336 C335 1.389 . S
C336 C337 1.387 . S
C337 H322 0.930 . S
C337 C332 1.390 . S
C337 C336 1.387 . S
H338 C350 0.930 . S
H339 C352 0.930 . S
H340 C353 0.930 . S
H341 C357 0.959 . S
H342 C357 0.959 . S
H343 C357 0.961 . S
H344 C358 0.960 . S
H345 C358 0.961 . S
H346 C358 0.959 . S
H347 C361 0.929 . S
H348 C362 0.931 . S
H349 C364 0.930 . S
C350 H338 0.930 . S
C350 C351 1.399 . S
C350 C355 1.399 . S
C351 C350 1.399 . S
C351 C352 1.376 . S
C352 H339 0.930 . S
C352 C351 1.376 . S
C352 C353 1.388 . S
C353 H340 0.930 . S
C353 C352 1.388 . S
C353 C354 1.390 . S
C354 C353 1.390 . S
C354 C355 1.394 . S
C354 C360 1.465 . S
C355 C350 1.399 . S
C355 C354 1.394 . S
C355 C356 1.516 . S
C356 C355 1.516 . S
C356 C357 1.502 . S
C356 C358 1.561 . S
C356 C359 1.526 . S
C357 H341 0.959 . S
C357 H342 0.959 . S
C357 H343 0.961 . S
C357 C356 1.502 . S
C358 H344 0.960 . S
C358 H345 0.961 . S
C358 H346 0.959 . S
C358 C356 1.561 . S
C359 C356 1.526 . S
C359 C360 1.396 . S
C359 C364 1.390 . S
C360 C354 1.465 . S
C360 C359 1.396 . S
C360 C361 1.399 . S
C361 H347 0.929 . S
C361 C360 1.399 . S
C361 C362 1.385 . S
C362 H348 0.931 . S
C362 C361 1.385 . S
C362 C363 1.389 . S
C363 C362 1.389 . S
C363 C364 1.387 . S
C364 H349 0.930 . S
C364 C359 1.390 . S
C364 C363 1.387 . S
H365 C377 0.930 . S
H366 C379 0.930 . S
H367 C380 0.930 . S
H368 C384 0.959 . S
H369 C384 0.959 . S
H370 C384 0.961 . S
H371 C385 0.960 1_455 S
H372 C385 0.961 . S
H373 C385 0.959 . S
H374 C388 0.929 . S
H375 C389 0.931 . S
H376 C391 0.930 . S
C377 H365 0.930 . S
C377 C378 1.399 . S
C377 C382 1.399 . S
C378 C377 1.399 . S
C378 C379 1.376 . S
C379 H366 0.930 . S
C379 C378 1.376 . S
C379 C380 1.388 . S
C380 H367 0.930 . S
C380 C379 1.388 . S
C380 C381 1.390 . S
C381 C380 1.390 . S
C381 C382 1.394 . S
C381 C387 1.465 1_455 S
C382 C377 1.399 . S
C382 C381 1.394 . S
C382 C383 1.516 . S
C383 C382 1.516 . S
C383 C384 1.502 . S
C383 C385 1.561 1_455 S
C383 C386 1.526 1_455 S
C384 H368 0.959 . S
C384 H369 0.959 . S
C384 H370 0.961 . S
C384 C383 1.502 . S
C385 H371 0.960 1_655 S
C385 H372 0.961 . S
C385 H373 0.959 . S
C385 C383 1.561 1_655 S
C386 C383 1.526 1_655 S
C386 C387 1.396 . S
C386 C391 1.390 . S
C387 C381 1.465 1_655 S
C387 C386 1.396 . S
C387 C388 1.399 . S
C388 H374 0.929 . S
C388 C387 1.399 . S
C388 C389 1.385 . S
C389 H375 0.931 . S
C389 C388 1.385 . S
C389 C390 1.389 . S
C390 C389 1.389 . S
C390 C391 1.387 . S
C391 H376 0.930 . S
C391 C386 1.390 . S
C391 C390 1.387 . S
H392 C404 0.930 . S
H393 C406 0.930 . S
H394 C407 0.930 . S
H395 C411 0.959 . S
H396 C411 0.959 . S
H397 C411 0.961 . S
H398 C412 0.960 . S
H399 C412 0.961 . S
H400 C412 0.959 . S
H401 C415 0.929 1_545 S
H402 C416 0.931 . S
H403 C418 0.930 . S
C404 H392 0.930 . S
C404 C405 1.399 . S
C404 C409 1.399 . S
C405 C404 1.399 . S
C405 C406 1.376 . S
C406 H393 0.930 . S
C406 C405 1.376 . S
C406 C407 1.388 . S
C407 H394 0.930 . S
C407 C406 1.388 . S
C407 C408 1.390 . S
C408 C407 1.390 . S
C408 C409 1.394 . S
C408 C414 1.465 1_545 S
C409 C404 1.399 . S
C409 C408 1.394 . S
C409 C410 1.516 1_545 S
C410 C409 1.516 1_565 S
C410 C411 1.502 . S
C410 C412 1.561 . S
C410 C413 1.526 . S
C411 H395 0.959 . S
C411 H396 0.959 . S
C411 H397 0.961 . S
C411 C410 1.502 . S
C412 H398 0.960 . S
C412 H399 0.961 . S
C412 H400 0.959 . S
C412 C410 1.561 . S
C413 C410 1.526 . S
C413 C414 1.396 . S
C413 C418 1.390 . S
C414 C408 1.465 1_565 S
C414 C413 1.396 . S
C414 C415 1.399 . S
C415 H401 0.929 1_565 S
C415 C414 1.399 . S
C415 C416 1.385 . S
C416 H402 0.931 . S
C416 C415 1.385 . S
C416 C417 1.389 . S
C417 C416 1.389 . S
C417 C418 1.387 . S
C418 H403 0.930 . S
C418 C413 1.390 . S
C418 C417 1.387 . S
H419 C431 0.930 . S
H420 C433 0.930 . S
H421 C434 0.930 . S
H422 C438 0.959 . S
H423 C438 0.959 . S
H424 C438 0.961 . S
H425 C439 0.960 . S
H426 C439 0.961 . S
H427 C439 0.959 . S
H428 C442 0.929 . S
H429 C443 0.931 . S
H430 C445 0.930 . S
C431 H419 0.930 . S
C431 C432 1.399 . S
C431 C436 1.399 . S
C432 C431 1.399 . S
C432 C433 1.376 . S
C433 H420 0.930 . S
C433 C432 1.376 . S
C433 C434 1.388 . S
C434 H421 0.930 . S
C434 C433 1.388 . S
C434 C435 1.390 . S
C435 C434 1.390 . S
C435 C436 1.394 . S
C435 C441 1.465 . S
C436 C431 1.399 . S
C436 C435 1.394 . S
C436 C437 1.516 . S
C437 C436 1.516 . S
C437 C438 1.502 . S
C437 C439 1.561 . S
C437 C440 1.526 . S
C438 H422 0.959 . S
C438 H423 0.959 . S
C438 H424 0.961 . S
C438 C437 1.502 . S
C439 H425 0.960 . S
C439 H426 0.961 . S
C439 H427 0.959 . S
C439 C437 1.561 . S
C440 C437 1.526 . S
C440 C441 1.396 . S
C440 C445 1.390 . S
C441 C435 1.465 . S
C441 C440 1.396 . S
C441 C442 1.399 . S
C442 H428 0.929 . S
C442 C441 1.399 . S
C442 C443 1.385 . S
C443 H429 0.931 . S
C443 C442 1.385 . S
C443 C444 1.389 . S
C444 C443 1.389 . S
C444 C445 1.387 . S
C445 H430 0.930 . S
C445 C440 1.390 . S
C445 C444 1.387 . S
H446 C458 0.930 . S
H447 C460 0.930 . S
H448 C461 0.930 1_545 S
H449 C465 0.959 . S
H450 C465 0.959 . S
H451 C465 0.961 1_565 S
H452 C466 0.960 . S
H453 C466 0.961 . S
H454 C466 0.959 . S
H455 C469 0.929 . S
H456 C470 0.931 . S
H457 C472 0.930 . S
C458 H446 0.930 . S
C458 C459 1.399 . S
C458 C463 1.399 . S
C459 C458 1.399 . S
C459 C460 1.376 . S
C460 H447 0.930 . S
C460 C459 1.376 . S
C460 C461 1.388 . S
C461 H448 0.930 1_565 S
C461 C460 1.388 . S
C461 C462 1.390 1_565 S
C462 C461 1.390 1_545 S
C462 C463 1.394 1_545 S
C462 C468 1.465 . S
C463 C458 1.399 . S
C463 C462 1.394 1_565 S
C463 C464 1.516 1_565 S
C464 C463 1.516 1_545 S
C464 C465 1.502 . S
C464 C466 1.561 1_545 S
C464 C467 1.526 . S
C465 H449 0.959 . S
C465 H450 0.959 . S
C465 H451 0.961 1_545 S
C465 C464 1.502 . S
C466 H452 0.960 . S
C466 H453 0.961 . S
C466 H454 0.959 . S
C466 C464 1.561 1_565 S
C467 C464 1.526 . S
C467 C468 1.396 . S
C467 C472 1.390 . S
C468 C462 1.465 . S
C468 C467 1.396 . S
C468 C469 1.399 . S
C469 H455 0.929 . S
C469 C468 1.399 . S
C469 C470 1.385 . S
C470 H456 0.931 . S
C470 C469 1.385 . S
C470 C471 1.389 . S
C471 C470 1.389 . S
C471 C472 1.387 . S
C472 H457 0.930 . S
C472 C467 1.390 . S
C472 C471 1.387 . S
H473 C485 0.930 . S
H474 C487 0.930 . S
H475 C488 0.930 . S
H476 C492 0.959 . S
H477 C492 0.959 . S
H478 C492 0.961 . S
H479 C493 0.960 . S
H480 C493 0.961 . S
H481 C493 0.959 . S
H482 C496 0.929 . S
H483 C497 0.931 . S
H484 C499 0.930 . S
C485 H473 0.930 . S
C485 C486 1.399 . S
C485 C490 1.399 . S
C486 C485 1.399 . S
C486 C487 1.376 . S
C487 H474 0.930 . S
C487 C486 1.376 . S
C487 C488 1.388 . S
C488 H475 0.930 . S
C488 C487 1.388 . S
C488 C489 1.390 . S
C489 C488 1.390 . S
C489 C490 1.394 . S
C489 C495 1.465 . S
C490 C485 1.399 . S
C490 C489 1.394 . S
C490 C491 1.516 . S
C491 C490 1.516 . S
C491 C492 1.502 . S
C491 C493 1.561 . S
C491 C494 1.526 . S
C492 H476 0.959 . S
C492 H477 0.959 . S
C492 H478 0.961 . S
C492 C491 1.502 . S
C493 H479 0.960 . S
C493 H480 0.961 . S
C493 H481 0.959 . S
C493 C491 1.561 . S
C494 C491 1.526 . S
C494 C495 1.396 . S
C494 C499 1.390 . S
C495 C489 1.465 . S
C495 C494 1.396 . S
C495 C496 1.399 . S
C496 H482 0.929 . S
C496 C495 1.399 . S
C496 C497 1.385 . S
C497 H483 0.931 . S
C497 C496 1.385 . S
C497 C498 1.389 . S
C498 C497 1.389 . S
C498 C499 1.387 . S
C499 H484 0.930 . S
C499 C494 1.390 . S
C499 C498 1.387 . S
H500 C512 0.930 . S
H501 C514 0.930 . S
H502 C515 0.930 . S
H503 C519 0.959 . S
H504 C519 0.959 . S
H505 C519 0.961 . S
H506 C520 0.960 . S
H507 C520 0.961 . S
H508 C520 0.959 . S
H509 C523 0.929 . S
H510 C524 0.931 . S
H511 C526 0.930 . S
C512 H500 0.930 . S
C512 C513 1.399 . S
C512 C517 1.399 . S
C513 C512 1.399 . S
C513 C514 1.376 . S
C514 H501 0.930 . S
C514 C513 1.376 . S
C514 C515 1.388 . S
C515 H502 0.930 . S
C515 C514 1.388 . S
C515 C516 1.390 . S
C516 C515 1.390 . S
C516 C517 1.394 . S
C516 C522 1.465 . S
C517 C512 1.399 . S
C517 C516 1.394 . S
C517 C518 1.516 . S
C518 C517 1.516 . S
C518 C519 1.502 . S
C518 C520 1.561 . S
C518 C521 1.526 . S
C519 H503 0.959 . S
C519 H504 0.959 . S
C519 H505 0.961 . S
C519 C518 1.502 . S
C520 H506 0.960 . S
C520 H507 0.961 . S
C520 H508 0.959 . S
C520 C518 1.561 . S
C521 C518 1.526 . S
C521 C522 1.396 . S
C521 C526 1.390 . S
C522 C516 1.465 . S
C522 C521 1.396 . S
C522 C523 1.399 . S
C523 H509 0.929 . S
C523 C522 1.399 . S
C523 C524 1.385 . S
C524 H510 0.931 . S
C524 C523 1.385 . S
C524 C525 1.389 . S
C525 C524 1.389 . S
C525 C526 1.387 . S
C526 H511 0.930 . S
C526 C521 1.390 . S
C526 C525 1.387 . S
H527 C539 0.930 1_455 S
H528 C541 0.930 . S
H529 C542 0.930 . S
H530 C546 0.959 . S
H531 C546 0.959 . S
H532 C546 0.961 . S
H533 C547 0.960 . S
H534 C547 0.961 . S
H535 C547 0.959 . S
H536 C550 0.929 . S
H537 C551 0.931 . S
H538 C553 0.930 . S
C539 H527 0.930 1_655 S
C539 C540 1.399 1_655 S
C539 C544 1.399 . S
C540 C539 1.399 1_455 S
C540 C541 1.376 . S
C541 H528 0.930 . S
C541 C540 1.376 . S
C541 C542 1.388 1_455 S
C542 H529 0.930 . S
C542 C541 1.388 1_655 S
C542 C543 1.390 . S
C543 C542 1.390 . S
C543 C544 1.394 . S
C543 C549 1.465 . S
C544 C539 1.399 . S
C544 C543 1.394 . S
C544 C545 1.516 . S
C545 C544 1.516 . S
C545 C546 1.502 . S
C545 C547 1.561 . S
C545 C548 1.526 . S
C546 H530 0.959 . S
C546 H531 0.959 . S
C546 H532 0.961 . S
C546 C545 1.502 . S
C547 H533 0.960 . S
C547 H534 0.961 . S
C547 H535 0.959 . S
C547 C545 1.561 . S
C548 C545 1.526 . S
C548 C549 1.396 . S
C548 C553 1.390 . S
C549 C543 1.465 . S
C549 C548 1.396 . S
C549 C550 1.399 . S
C550 H536 0.929 . S
C550 C549 1.399 . S
C550 C551 1.385 . S
C551 H537 0.931 . S
C551 C550 1.385 . S
C551 C552 1.389 . S
C552 C551 1.389 . S
C552 C553 1.387 . S
C553 H538 0.930 . S
C553 C548 1.390 . S
C553 C552 1.387 . S
H554 C566 0.930 . S
H555 C568 0.930 . S
H556 C569 0.930 . S
H557 C573 0.959 . S
H558 C573 0.959 . S
H559 C573 0.961 . S
H560 C574 0.960 . S
H561 C574 0.961 . S
H562 C574 0.959 . S
H563 C577 0.929 . S
H564 C578 0.931 . S
H565 C580 0.930 . S
C566 H554 0.930 . S
C566 C567 1.399 . S
C566 C571 1.399 . S
C567 C566 1.399 . S
C567 C568 1.376 . S
C568 H555 0.930 . S
C568 C567 1.376 . S
C568 C569 1.388 . S
C569 H556 0.930 . S
C569 C568 1.388 . S
C569 C570 1.390 . S
C570 C569 1.390 . S
C570 C571 1.394 . S
C570 C576 1.465 . S
C571 C566 1.399 . S
C571 C570 1.394 . S
C571 C572 1.516 . S
C572 C571 1.516 . S
C572 C573 1.502 . S
C572 C574 1.561 . S
C572 C575 1.526 . S
C573 H557 0.959 . S
C573 H558 0.959 . S
C573 H559 0.961 . S
C573 C572 1.502 . S
C574 H560 0.960 . S
C574 H561 0.961 . S
C574 H562 0.959 . S
C574 C572 1.561 . S
C575 C572 1.526 . S
C575 C576 1.396 . S
C575 C580 1.390 . S
C576 C570 1.465 . S
C576 C575 1.396 . S
C576 C577 1.399 . S
C577 H563 0.929 . S
C577 C576 1.399 . S
C577 C578 1.385 . S
C578 H564 0.931 . S
C578 C577 1.385 . S
C578 C579 1.389 . S
C579 C578 1.389 . S
C579 C580 1.387 . S
C580 H565 0.930 . S
C580 C575 1.390 . S
C580 C579 1.387 . S
H581 C593 0.930 . S
H582 C595 0.930 . S
H583 C596 0.930 . S
H584 C600 0.959 . S
H585 C600 0.959 . S
H586 C600 0.961 . S
H587 C601 0.960 . S
H588 C601 0.961 1_455 S
H589 C601 0.959 1_455 S
H590 C604 0.929 . S
H591 C605 0.931 . S
H592 C607 0.930 . S
C593 H581 0.930 . S
C593 C594 1.399 . S
C593 C598 1.399 . S
C594 C593 1.399 . S
C594 C595 1.376 . S
C595 H582 0.930 . S
C595 C594 1.376 . S
C595 C596 1.388 . S
C596 H583 0.930 . S
C596 C595 1.388 . S
C596 C597 1.390 . S
C597 C596 1.390 . S
C597 C598 1.394 . S
C597 C603 1.465 1_655 S
C598 C593 1.399 . S
C598 C597 1.394 . S
C598 C599 1.516 . S
C599 C598 1.516 . S
C599 C600 1.502 . S
C599 C601 1.561 . S
C599 C602 1.526 . S
C600 H584 0.959 . S
C600 H585 0.959 . S
C600 H586 0.961 . S
C600 C599 1.502 . S
C601 H587 0.960 . S
C601 H588 0.961 1_655 S
C601 H589 0.959 1_655 S
C601 C599 1.561 . S
C602 C599 1.526 . S
C602 C603 1.396 1_655 S
C602 C607 1.390 1_655 S
C603 C597 1.465 1_455 S
C603 C602 1.396 1_455 S
C603 C604 1.399 . S
C604 H590 0.929 . S
C604 C603 1.399 . S
C604 C605 1.385 . S
C605 H591 0.931 . S
C605 C604 1.385 . S
C605 C606 1.389 . S
C606 C605 1.389 . S
C606 C607 1.387 . S
C607 H592 0.930 . S
C607 C602 1.390 1_455 S
C607 C606 1.387 . S
H608 C620 0.930 . S
H609 C622 0.930 . S
H610 C623 0.930 . S
H611 C627 0.959 . S
H612 C627 0.959 . S
H613 C627 0.961 . S
H614 C628 0.960 . S
H615 C628 0.961 . S
H616 C628 0.959 . S
H617 C631 0.929 . S
H618 C632 0.931 . S
H619 C634 0.930 . S
C620 H608 0.930 . S
C620 C621 1.399 . S
C620 C625 1.399 . S
C621 C620 1.399 . S
C621 C622 1.376 . S
C622 H609 0.930 . S
C622 C621 1.376 . S
C622 C623 1.388 . S
C623 H610 0.930 . S
C623 C622 1.388 . S
C623 C624 1.390 . S
C624 C623 1.390 . S
C624 C625 1.394 . S
C624 C630 1.465 . S
C625 C620 1.399 . S
C625 C624 1.394 . S
C625 C626 1.516 . S
C626 C625 1.516 . S
C626 C627 1.502 . S
C626 C628 1.561 . S
C626 C629 1.526 . S
C627 H611 0.959 . S
C627 H612 0.959 . S
C627 H613 0.961 . S
C627 C626 1.502 . S
C628 H614 0.960 . S
C628 H615 0.961 . S
C628 H616 0.959 . S
C628 C626 1.561 . S
C629 C626 1.526 . S
C629 C630 1.396 . S
C629 C634 1.390 . S
C630 C624 1.465 . S
C630 C629 1.396 . S
C630 C631 1.399 . S
C631 H617 0.929 . S
C631 C630 1.399 . S
C631 C632 1.385 . S
C632 H618 0.931 . S
C632 C631 1.385 . S
C632 C633 1.389 . S
C633 C632 1.389 . S
C633 C634 1.387 . S
C634 H619 0.930 . S
C634 C629 1.390 . S
C634 C633 1.387 . S
H635 C647 0.930 . S
H636 C649 0.930 . S
H637 C650 0.930 . S
H638 C654 0.959 . S
H639 C654 0.959 . S
H640 C654 0.961 . S
H641 C655 0.960 . S
H642 C655 0.961 . S
H643 C655 0.959 . S
H644 C658 0.929 . S
H645 C659 0.931 . S
H646 C661 0.930 . S
C647 H635 0.930 . S
C647 C648 1.399 . S
C647 C652 1.399 . S
C648 C647 1.399 . S
C648 C649 1.376 . S
C649 H636 0.930 . S
C649 C648 1.376 . S
C649 C650 1.388 . S
C650 H637 0.930 . S
C650 C649 1.388 . S
C650 C651 1.390 . S
C651 C650 1.390 . S
C651 C652 1.394 . S
C651 C657 1.465 . S
C652 C647 1.399 . S
C652 C651 1.394 . S
C652 C653 1.516 . S
C653 C652 1.516 . S
C653 C654 1.502 . S
C653 C655 1.561 . S
C653 C656 1.526 . S
C654 H638 0.959 . S
C654 H639 0.959 . S
C654 H640 0.961 . S
C654 C653 1.502 . S
C655 H641 0.960 . S
C655 H642 0.961 . S
C655 H643 0.959 . S
C655 C653 1.561 . S
C656 C653 1.526 . S
C656 C657 1.396 . S
C656 C661 1.390 . S
C657 C651 1.465 . S
C657 C656 1.396 . S
C657 C658 1.399 . S
C658 H644 0.929 . S
C658 C657 1.399 . S
C658 C659 1.385 . S
C659 H645 0.931 . S
C659 C658 1.385 . S
C659 C660 1.389 . S
C660 C659 1.389 . S
C660 C661 1.387 . S
C661 H646 0.930 . S
C661 C656 1.390 . S
C661 C660 1.387 . S
H662 C674 0.930 . S
H663 C676 0.930 . S
H664 C677 0.930 . S
H665 C681 0.959 . S
H666 C681 0.959 . S
H667 C681 0.961 . S
H668 C682 0.960 . S
H669 C682 0.961 . S
H670 C682 0.959 . S
H671 C685 0.929 . S
H672 C686 0.931 . S
H673 C688 0.930 . S
C674 H662 0.930 . S
C674 C675 1.399 . S
C674 C679 1.399 . S
C675 C674 1.399 . S
C675 C676 1.376 . S
C676 H663 0.930 . S
C676 C675 1.376 . S
C676 C677 1.388 . S
C677 H664 0.930 . S
C677 C676 1.388 . S
C677 C678 1.390 . S
C678 C677 1.390 . S
C678 C679 1.394 . S
C678 C684 1.465 . S
C679 C674 1.399 . S
C679 C678 1.394 . S
C679 C680 1.516 . S
C680 C679 1.516 . S
C680 C681 1.502 . S
C680 C682 1.561 . S
C680 C683 1.526 . S
C681 H665 0.959 . S
C681 H666 0.959 . S
C681 H667 0.961 . S
C681 C680 1.502 . S
C682 H668 0.960 . S
C682 H669 0.961 . S
C682 H670 0.959 . S
C682 C680 1.561 . S
C683 C680 1.526 . S
C683 C684 1.396 . S
C683 C688 1.390 . S
C684 C678 1.465 . S
C684 C683 1.396 . S
C684 C685 1.399 . S
C685 H671 0.929 . S
C685 C684 1.399 . S
C685 C686 1.385 . S
C686 H672 0.931 . S
C686 C685 1.385 . S
C686 C687 1.389 . S
C687 C686 1.389 . S
C687 C688 1.387 . S
C688 H673 0.930 . S
C688 C683 1.390 . S
C688 C687 1.387 . S
H689 C701 0.930 . S
H690 C703 0.930 . S
H691 C704 0.930 . S
H692 C708 0.959 . S
H693 C708 0.959 . S
H694 C708 0.961 . S
H695 C709 0.960 . S
H696 C709 0.961 . S
H697 C709 0.959 . S
H698 C712 0.929 . S
H699 C713 0.931 . S
H700 C715 0.930 . S
C701 H689 0.930 . S
C701 C702 1.399 . S
C701 C706 1.399 . S
C702 C701 1.399 . S
C702 C703 1.376 . S
C703 H690 0.930 . S
C703 C702 1.376 . S
C703 C704 1.388 . S
C704 H691 0.930 . S
C704 C703 1.388 . S
C704 C705 1.390 . S
C705 C704 1.390 . S
C705 C706 1.394 . S
C705 C711 1.465 . S
C706 C701 1.399 . S
C706 C705 1.394 . S
C706 C707 1.516 . S
C707 C706 1.516 . S
C707 C708 1.502 . S
C707 C709 1.561 . S
C707 C710 1.526 . S
C708 H692 0.959 . S
C708 H693 0.959 . S
C708 H694 0.961 . S
C708 C707 1.502 . S
C709 H695 0.960 . S
C709 H696 0.961 . S
C709 H697 0.959 . S
C709 C707 1.561 . S
C710 C707 1.526 . S
C710 C711 1.396 . S
C710 C715 1.390 . S
C711 C705 1.465 . S
C711 C710 1.396 . S
C711 C712 1.399 . S
C712 H698 0.929 . S
C712 C711 1.399 . S
C712 C713 1.385 . S
C713 H699 0.931 . S
C713 C712 1.385 . S
C713 C714 1.389 . S
C714 C713 1.389 . S
C714 C715 1.387 . S
C715 H700 0.930 . S
C715 C710 1.390 . S
C715 C714 1.387 . S
H716 C728 0.930 . S
H717 C730 0.930 . S
H718 C731 0.930 . S
H719 C735 0.959 . S
H720 C735 0.959 . S
H721 C735 0.961 . S
H722 C736 0.960 . S
H723 C736 0.961 . S
H724 C736 0.959 . S
H725 C739 0.929 . S
H726 C740 0.931 . S
H727 C742 0.930 . S
C728 H716 0.930 . S
C728 C729 1.399 . S
C728 C733 1.399 . S
C729 C728 1.399 . S
C729 C730 1.376 . S
C730 H717 0.930 . S
C730 C729 1.376 . S
C730 C731 1.388 . S
C731 H718 0.930 . S
C731 C730 1.388 . S
C731 C732 1.390 . S
C732 C731 1.390 . S
C732 C733 1.394 . S
C732 C738 1.465 . S
C733 C728 1.399 . S
C733 C732 1.394 . S
C733 C734 1.516 . S
C734 C733 1.516 . S
C734 C735 1.502 . S
C734 C736 1.561 . S
C734 C737 1.526 . S
C735 H719 0.959 . S
C735 H720 0.959 . S
C735 H721 0.961 . S
C735 C734 1.502 . S
C736 H722 0.960 . S
C736 H723 0.961 . S
C736 H724 0.959 . S
C736 C734 1.561 . S
C737 C734 1.526 . S
C737 C738 1.396 . S
C737 C742 1.390 . S
C738 C732 1.465 . S
C738 C737 1.396 . S
C738 C739 1.399 . S
C739 H725 0.929 . S
C739 C738 1.399 . S
C739 C740 1.385 . S
C740 H726 0.931 . S
C740 C739 1.385 . S
C740 C741 1.389 . S
C741 C740 1.389 . S
C741 C742 1.387 . S
C742 H727 0.930 . S
C742 C737 1.390 . S
C742 C741 1.387 . S
H743 C755 0.930 . S
H744 C757 0.930 . S
H745 C758 0.930 . S
H746 C762 0.959 . S
H747 C762 0.959 . S
H748 C762 0.961 . S
H749 C763 0.960 . S
H750 C763 0.961 . S
H751 C763 0.959 . S
H752 C766 0.929 . S
H753 C767 0.931 . S
H754 C769 0.930 . S
C755 H743 0.930 . S
C755 C756 1.399 . S
C755 C760 1.399 . S
C756 C755 1.399 . S
C756 C757 1.376 . S
C757 H744 0.930 . S
C757 C756 1.376 . S
C757 C758 1.388 . S
C758 H745 0.930 . S
C758 C757 1.388 . S
C758 C759 1.390 . S
C759 C758 1.390 . S
C759 C760 1.394 . S
C759 C765 1.465 . S
C760 C755 1.399 . S
C760 C759 1.394 . S
C760 C761 1.516 . S
C761 C760 1.516 . S
C761 C762 1.502 . S
C761 C763 1.561 . S
C761 C764 1.526 . S
C762 H746 0.959 . S
C762 H747 0.959 . S
C762 H748 0.961 . S
C762 C761 1.502 . S
C763 H749 0.960 . S
C763 H750 0.961 . S
C763 H751 0.959 . S
C763 C761 1.561 . S
C764 C761 1.526 . S
C764 C765 1.396 . S
C764 C769 1.390 . S
C765 C759 1.465 . S
C765 C764 1.396 . S
C765 C766 1.399 . S
C766 H752 0.929 . S
C766 C765 1.399 . S
C766 C767 1.385 . S
C767 H753 0.931 . S
C767 C766 1.385 . S
C767 C768 1.389 . S
C768 C767 1.389 . S
C768 C769 1.387 . S
C769 H754 0.930 . S
C769 C764 1.390 . S
C769 C768 1.387 . S
H770 C782 0.930 . S
H771 C784 0.930 . S
H772 C785 0.930 . S
H773 C789 0.959 . S
H774 C789 0.959 . S
H775 C789 0.961 . S
H776 C790 0.960 . S
H777 C790 0.961 . S
H778 C790 0.959 . S
H779 C793 0.929 . S
H780 C794 0.931 . S
H781 C796 0.930 . S
C782 H770 0.930 . S
C782 C783 1.399 . S
C782 C787 1.399 . S
C783 C782 1.399 . S
C783 C784 1.376 . S
C784 H771 0.930 . S
C784 C783 1.376 . S
C784 C785 1.388 . S
C785 H772 0.930 . S
C785 C784 1.388 . S
C785 C786 1.390 . S
C786 C785 1.390 . S
C786 C787 1.394 . S
C786 C792 1.465 . S
C787 C782 1.399 . S
C787 C786 1.394 . S
C787 C788 1.516 . S
C788 C787 1.516 . S
C788 C789 1.502 . S
C788 C790 1.561 . S
C788 C791 1.526 . S
C789 H773 0.959 . S
C789 H774 0.959 . S
C789 H775 0.961 . S
C789 C788 1.502 . S
C790 H776 0.960 . S
C790 H777 0.961 . S
C790 H778 0.959 . S
C790 C788 1.561 . S
C791 C788 1.526 . S
C791 C792 1.396 . S
C791 C796 1.390 . S
C792 C786 1.465 . S
C792 C791 1.396 . S
C792 C793 1.399 . S
C793 H779 0.929 . S
C793 C792 1.399 . S
C793 C794 1.385 . S
C794 H780 0.931 . S
C794 C793 1.385 . S
C794 C795 1.389 . S
C795 C794 1.389 . S
C795 C796 1.387 . S
C796 H781 0.930 . S
C796 C791 1.390 . S
C796 C795 1.387 . S
H797 C809 0.930 . S
H798 C811 0.930 1_554 S
H799 C812 0.930 . S
H800 C816 0.959 . S
H801 C816 0.959 . S
H802 C816 0.961 . S
H803 C817 0.960 . S
H804 C817 0.961 . S
H805 C817 0.959 . S
H806 C820 0.929 . S
H807 C821 0.931 . S
H808 C823 0.930 . S
C809 H797 0.930 . S
C809 C810 1.399 . S
C809 C814 1.399 . S
C810 C809 1.399 . S
C810 C811 1.376 . S
C811 H798 0.930 1_556 S
C811 C810 1.376 . S
C811 C812 1.388 . S
C812 H799 0.930 . S
C812 C811 1.388 . S
C812 C813 1.390 . S
C813 C812 1.390 . S
C813 C814 1.394 . S
C813 C819 1.465 . S
C814 C809 1.399 . S
C814 C813 1.394 . S
C814 C815 1.516 . S
C815 C814 1.516 . S
C815 C816 1.502 . S
C815 C817 1.561 . S
C815 C818 1.526 . S
C816 H800 0.959 . S
C816 H801 0.959 . S
C816 H802 0.961 . S
C816 C815 1.502 . S
C817 H803 0.960 . S
C817 H804 0.961 . S
C817 H805 0.959 . S
C817 C815 1.561 . S
C818 C815 1.526 . S
C818 C819 1.396 . S
C818 C823 1.390 . S
C819 C813 1.465 . S
C819 C818 1.396 . S
C819 C820 1.399 . S
C820 H806 0.929 . S
C820 C819 1.399 . S
C820 C821 1.385 . S
C821 H807 0.931 . S
C821 C820 1.385 . S
C821 C822 1.389 . S
C822 C821 1.389 . S
C822 C823 1.387 . S
C823 H808 0.930 . S
C823 C818 1.390 . S
C823 C822 1.387 . S
C189 C8 1.416 . S
C201 C93 1.359 . S
C216 C31 1.357 . S
C228 C104 1.262 . S
C243 C53 1.362 . S
C255 C114 1.281 . S
C282 C126 1.387 . S
C270 C74 1.384 . S
C309 C137 1.352 . S
C297 C26 1.413 . S
C324 C48 1.352 . S
C336 C148 1.319 . S
C351 C71 1.346 . S
C363 C158 1.344 . S
C378 C5 1.351 . S
C390 C170 1.252 . S
C405 C50 1.317 . S
C417 C169 1.314 . S
C444 C136 1.159 . S
C432 C70 1.208 . S
C471 C147 1.252 . S
C459 C4 1.331 1_556 S
C486 C28 1.384 . S
C498 C159 1.321 . S
C525 C103 1.241 . S
C513 C73 1.276 . S
C540 C7 1.352 . S
C552 C115 1.388 . S
C579 C125 1.284 . S
C567 C30 1.294 . S
C606 C92 1.174 . S
C594 C52 1.190 . S
C633 C164 1.448 . S
C621 C9 1.451 . S
C660 C175 1.435 . S
C648 C29 1.386 . S
C675 C51 1.335 . S
C687 C142 1.385 . S
C714 C153 1.395 . S
C702 C75 1.412 . S
C741 C120 1.398 . S
C729 C27 1.433 . S
C756 C49 1.412 . S
C768 C131 1.395 . S
C795 C98 1.354 . S
C783 C72 1.363 . S
C822 C109 1.435 . S
C810 C6 1.408 . S
