# Generated by pormake.
# Topology zzz, (3,6)-cn, num edge types: 1
# Building blocks:
#     Node 0, Type 0, BuildingBlock: PAMTOO_clean_linker_0, # of connection points: 3
#     Node 1, Type 0, BuildingBlock: PAMTOO_clean_linker_0, # of connection points: 3
#     Node 2, Type 0, BuildingBlock: PAMTOO_clean_linker_0, # of connection points: 3
#     Node 3, Type 0, BuildingBlock: PAMTOO_clean_linker_0, # of connection points: 3
#     Node 4, Type 0, BuildingBlock: PAMTOO_clean_linker_0, # of connection points: 3
#     Node 5, Type 0, BuildingBlock: PAMTOO_clean_linker_0, # of connection points: 3
#     Node 6, Type 0, BuildingBlock: PAMTOO_clean_linker_0, # of connection points: 3
#     Node 7, Type 0, BuildingBlock: PAMTOO_clean_linker_0, # of connection points: 3
#     Node 8, Type 1, BuildingBlock: BETDEL_clean_sbu_0, # of connection points: 6
#     Node 9, Type 1, BuildingBlock: BETDEL_clean_sbu_0, # of connection points: 6
#     Node 10, Type 1, BuildingBlock: BETDEL_clean_sbu_0, # of connection points: 6
#     Node 11, Type 1, BuildingBlock: BETDEL_clean_sbu_0, # of connection points: 6
#     Edge 12, Type (0, 1), BuildingBlock: ZUJKAS_clean_linker_0, # of connection points: 2
#     Edge 13, Type (0, 1), BuildingBlock: ZUJKAS_clean_linker_0, # of connection points: 2
#     Edge 14, Type (0, 1), BuildingBlock: ZUJKAS_clean_linker_0, # of connection points: 2
#     Edge 15, Type (0, 1), BuildingBlock: ZUJKAS_clean_linker_0, # of connection points: 2
#     Edge 16, Type (0, 1), BuildingBlock: ZUJKAS_clean_linker_0, # of connection points: 2
#     Edge 17, Type (0, 1), BuildingBlock: ZUJKAS_clean_linker_0, # of connection points: 2
#     Edge 18, Type (0, 1), BuildingBlock: ZUJKAS_clean_linker_0, # of connection points: 2
#     Edge 19, Type (0, 1), BuildingBlock: ZUJKAS_clean_linker_0, # of connection points: 2
#     Edge 20, Type (0, 1), BuildingBlock: ZUJKAS_clean_linker_0, # of connection points: 2
#     Edge 21, Type (0, 1), BuildingBlock: ZUJKAS_clean_linker_0, # of connection points: 2
#     Edge 22, Type (0, 1), BuildingBlock: ZUJKAS_clean_linker_0, # of connection points: 2
#     Edge 23, Type (0, 1), BuildingBlock: ZUJKAS_clean_linker_0, # of connection points: 2
#     Edge 24, Type (0, 1), BuildingBlock: ZUJKAS_clean_linker_0, # of connection points: 2
#     Edge 25, Type (0, 1), BuildingBlock: ZUJKAS_clean_linker_0, # of connection points: 2
#     Edge 26, Type (0, 1), BuildingBlock: ZUJKAS_clean_linker_0, # of connection points: 2
#     Edge 27, Type (0, 1), BuildingBlock: ZUJKAS_clean_linker_0, # of connection points: 2
#     Edge 28, Type (0, 1), BuildingBlock: ZUJKAS_clean_linker_0, # of connection points: 2
#     Edge 29, Type (0, 1), BuildingBlock: ZUJKAS_clean_linker_0, # of connection points: 2
#     Edge 30, Type (0, 1), BuildingBlock: ZUJKAS_clean_linker_0, # of connection points: 2
#     Edge 31, Type (0, 1), BuildingBlock: ZUJKAS_clean_linker_0, # of connection points: 2
#     Edge 32, Type (0, 1), BuildingBlock: ZUJKAS_clean_linker_0, # of connection points: 2
#     Edge 33, Type (0, 1), BuildingBlock: ZUJKAS_clean_linker_0, # of connection points: 2
#     Edge 34, Type (0, 1), BuildingBlock: ZUJKAS_clean_linker_0, # of connection points: 2
#     Edge 35, Type (0, 1), BuildingBlock: ZUJKAS_clean_linker_0, # of connection points: 2
# Relax obj value: 0.148
# Max RMSD: 0.172
# Mean RMSD: 0.111
data_MOF--net-zzz--node1-BETDEL_clean_sbu_0--node2-PAMTOO_clean_linker_0--edge1-ZUJKAS_clean_linker_0
_symmetry_space_group_name_H-M    P1
_symmetry_Int_Tables_number       1
_symmetry_cell_setting            triclinic
loop_
_symmetry_equiv_pos_as_xyz
'x, y, z'
_cell_length_a     64.370708
_cell_length_b     65.635424
_cell_length_c     19.357529
_cell_angle_alpha  91.347908
_cell_angle_beta   88.449986
_cell_angle_gamma 94.976023
loop_
_atom_site_label
_atom_site_type_symbol
_atom_site_fract_x
_atom_site_fract_y
_atom_site_fract_z
_atom_type_partial_charge
H0 H 0.80269 0.49238 0.12906 0.0
H1 H 0.75158 0.49698 0.99363 0.0
H2 H 0.75215 0.52774 0.19306 0.0
H3 H 0.70691 0.51205 0.14907 0.0
C4 C 0.71172 0.5081 0.09513 0.0
O5 O 0.73043 0.5193 0.07954 0.0
H6 H 0.7136 0.49139 0.09214 0.0
C7 C 0.78746 0.49756 0.11967 0.0
C8 C 0.77854 0.51029 0.16883 0.0
C9 C 0.77803 0.49276 0.05645 0.0
C10 C 0.75888 0.50034 0.04286 0.0
C11 C 0.74916 0.51243 0.09292 0.0
C12 C 0.75923 0.51778 0.15558 0.0
H13 H 0.01853 0.80896 0.11646 0.0
H14 H 0.01182 0.75591 0.98201 0.0
H15 H 0.98724 0.75301 0.19137 0.0
H16 H 1.00101 0.71073 0.14299 0.0
C17 C 1.00536 0.71623 0.09023 0.0
O18 O 0.99316 0.73183 0.07539 0.0
H19 H 0.02221 0.72183 0.09029 0.0
C20 C 0.01374 0.79281 0.10856 0.0
C21 C 1.00293 0.7821 0.16173 0.0
C22 C 0.01689 0.78364 0.04366 0.0
C23 C 0.00976 0.76307 0.03242 0.0
C24 C 0.99964 0.7518 0.08634 0.0
C25 C 0.99577 0.76147 0.15071 0.0
H26 H 0.70768 0.02369 0.08779 0.0
H27 H 0.76546 0.01261 0.98375 0.0
H28 H 0.75323 0.99203 0.19168 0.0
H29 H 0.80319 1.00131 0.15628 0.0
C30 C 0.79891 1.0055 0.10352 0.0
O31 O 0.78059 0.99403 0.08663 0.0
H32 H 0.79677 0.02216 0.10462 0.0
C33 C 0.72306 0.01815 0.08899 0.0
C34 C 0.72887 0.00814 0.14778 0.0
C35 C 0.73605 0.01985 0.02979 0.0
C36 C 0.75538 0.01158 0.02948 0.0
C37 C 0.76179 1.0019 0.08814 0.0
C38 C 0.74842 0.99993 0.14708 0.0
H39 H 0.5051 0.70886 0.10914 0.0
H40 H 0.50814 0.76511 -0.00131 0.0
H41 H 0.52788 0.7652 0.20993 0.0
H42 H 0.51206 0.80904 0.16988 0.0
C43 C 0.50858 0.80222 0.11794 0.0
O44 O 0.52286 0.78816 0.10157 0.0
H45 H 0.49239 0.79469 0.1213 0.0
C46 C 0.50857 0.72535 0.10825 0.0
C47 C 0.51669 0.73568 0.16674 0.0
C48 C 0.50549 0.73579 0.04781 0.0
C49 C 0.51029 0.75697 0.04567 0.0
C50 C 0.51809 0.76769 0.10444 0.0
C51 C 0.52148 0.757 0.16505 0.0
H52 H 0.21004 0.47675 0.04208 0.0
H53 H 0.26598 0.48695 0.1585 0.0
H54 H 0.26717 0.50011 0.94121 0.0
H55 H 0.31185 0.48725 0.99004 0.0
C56 C 0.30525 0.48557 0.04346 0.0
O57 O 0.28998 0.49904 0.05341 0.0
H58 H 0.29855 0.4694 0.04791 0.0
C59 C 0.22677 0.48067 0.04354 0.0
C60 C 0.23731 0.48794 0.98384 0.0
C61 C 0.23682 0.4804 0.10663 0.0
C62 C 0.25814 0.48668 0.10961 0.0
C63 C 0.26932 0.49311 0.04955 0.0
C64 C 0.25878 0.49423 0.98678 0.0
H65 H 0.02735 0.21422 0.05919 0.0
H66 H 0.0189 0.26985 0.17432 0.0
H67 H 0.02175 0.26991 0.95152 0.0
H68 H 0.03631 0.31418 0.01218 0.0
C69 C 0.0345 0.30777 0.06479 0.0
O70 O 0.01808 0.29267 0.0652 0.0
H71 H 0.04937 0.30122 0.0769 0.0
C72 C 0.02592 0.23059 0.06041 0.0
C73 C 0.02508 0.24079 0.9982 0.0
C74 C 0.02367 0.24084 0.12396 0.0
C75 C 0.021 0.26182 0.12541 0.0
C76 C 0.02082 0.27244 0.06328 0.0
C77 C 0.02259 0.26185 -0.00057 0.0
H78 H 0.31148 0.01308 0.07546 0.0
H79 H 0.24943 1.00606 0.1647 0.0
H80 H 0.25873 0.02044 0.94953 0.0
H81 H 0.21601 0.03712 0.01193 0.0
C82 C 0.22063 0.03161 0.06267 0.0
O83 O 0.23073 0.01399 0.05153 0.0
H84 H 0.23123 0.04411 0.0859 0.0
C85 C 0.29477 0.01354 0.07053 0.0
C86 C 0.28687 0.0175 0.00596 0.0
C87 C 0.2815 0.00936 0.12803 0.0
C88 C 0.25988 0.00926 0.12075 0.0
C89 C 0.25165 0.01359 0.05689 0.0
C90 C 0.26513 0.01737 -0.00098 0.0
H91 H 0.50631 0.30856 0.04691 0.0
H92 H 0.51399 0.25199 0.14616 0.0
H93 H 0.49252 0.25148 0.9368 0.0
H94 H 0.47412 0.21227 0.01834 0.0
C95 C 0.48363 0.21691 0.06406 0.0
O96 O 0.50143 0.22847 0.04144 0.0
H97 H 0.47399 0.22606 0.09962 0.0
C98 C 0.50528 0.29195 0.04527 0.0
C99 C 0.49875 0.28141 0.98508 0.0
C100 C 0.51085 0.2815 0.10302 0.0
C101 C 0.50976 0.26012 0.10131 0.0
C102 C 0.50287 0.2492 0.04177 0.0
C103 C 0.49758 0.25987 0.98305 0.0
Dy104 Dy 0.01664 1.00051 0.64993 0.0
C105 C 0.9949 0.04872 0.41747 0.0
C106 C 0.01545 0.97525 0.75943 0.0
Dy107 Dy 1.00015 0.02106 0.51703 0.0
O108 O 0.0307 0.989 0.74507 0.0
O109 O 1.00057 0.97615 0.71585 0.0
O110 O 0.05045 0.99956 0.61335 0.0
O111 O 0.02862 0.01047 0.55111 0.0
C112 C 0.04747 0.00698 0.55303 0.0
C113 C 0.97121 1.00685 0.6107 0.0
O114 O 1.00206 0.98947 0.47323 0.0
O115 O 1.00504 0.97424 0.58004 0.0
O116 O 0.98138 0.04339 0.46606 0.0
O117 O 0.01096 0.03809 0.4212 0.0
O118 O 0.96806 0.00692 0.54452 0.0
O119 O 0.98905 0.0155 0.62332 0.0
O120 O 0.01776 0.03293 0.68952 0.0
O121 O 0.01403 0.0475 0.58202 0.0
C122 C 1.0023 0.97307 0.51213 0.0
C123 C 0.01804 0.04906 0.64906 0.0
Dy124 Dy 0.48931 0.99588 0.52905 0.0
C125 C 0.56118 0.0365 0.65717 0.0
C126 C 0.45105 0.97848 0.49316 0.0
Dy127 Dy 0.52349 0.0187 0.61705 0.0
O128 O 0.46667 0.98253 0.45011 0.0
O129 O 0.45656 0.98352 0.55562 0.0
O130 O 0.51241 0.99171 0.4413 0.0
O131 O 0.52235 0.99314 0.54376 0.0
C132 C 0.52842 0.9929 0.48133 0.0
C133 C 0.48416 0.02138 0.6639 0.0
O134 O 0.52024 0.04149 0.53302 0.0
O135 O 0.48934 0.0273 0.48558 0.0
O136 O 0.5445 0.03441 0.69671 0.0
O137 O 0.55711 0.02915 0.59576 0.0
O138 O 0.50001 0.02216 0.70451 0.0
O139 O 0.49051 0.02143 0.60184 0.0
O140 O 0.49294 0.97293 0.61225 0.0
O141 O 0.52343 0.98745 0.66167 0.0
C142 C 0.50471 0.04213 0.4894 0.0
C143 C 0.50829 0.97244 0.65669 0.0
Dy144 Dy 0.49841 0.51743 0.63393 0.0
C145 C 0.52678 0.47236 0.40627 0.0
C146 C 0.49051 0.54404 0.73998 0.0
Dy147 Dy 0.5185 0.49884 0.51235 0.0
O148 O 0.4764 0.53381 0.70342 0.0
O149 O 0.50883 0.53893 0.72054 0.0
O150 O 0.4672 0.50298 0.60232 0.0
O151 O 0.48926 0.51303 0.52578 0.0
C152 C 0.47133 0.50399 0.53635 0.0
C153 C 0.54559 0.51236 0.60992 0.0
O154 O 0.5182 0.52998 0.46796 0.0
O155 O 0.51162 0.545 0.57445 0.0
O156 O 0.54075 0.48287 0.44258 0.0
O157 O 0.50836 0.47709 0.42602 0.0
O158 O 0.54965 0.51335 0.54392 0.0
O159 O 0.52769 0.50324 0.62044 0.0
O160 O 0.49853 0.48629 0.67833 0.0
O161 O 0.50529 0.47124 0.57198 0.0
C162 C 0.51678 0.5465 0.5079 0.0
C163 C 0.50001 0.46976 0.63849 0.0
Dy164 Dy 0.99549 0.50208 0.64583 0.0
C165 C 0.04527 0.51618 0.39464 0.0
C166 C 0.97252 0.49462 0.76405 0.0
Dy167 Dy 0.02032 0.51819 0.50968 0.0
O168 O 0.9833 0.48141 0.73122 0.0
O169 O 0.97527 0.5122 0.73404 0.0
O170 O 0.98412 0.47408 0.584 0.0
O171 O 0.01342 0.48907 0.56086 0.0
C172 C 1.00027 0.47479 0.54228 0.0
C173 C 0.011 0.54952 0.59433 0.0
O174 O 0.98722 0.51593 0.4738 0.0
O175 O 0.9705 0.51378 0.5825 0.0
O176 O 0.04689 0.53059 0.44186 0.0
O177 O 0.02917 0.50342 0.40852 0.0
O178 O 0.02029 0.55223 0.53414 0.0
O179 O 1.00704 0.53062 0.60204 0.0
O180 O 0.02831 0.50535 0.68535 0.0
O181 O 0.04603 0.51165 0.5797 0.0
C182 C 0.97018 0.51602 0.51441 0.0
C183 C 0.04583 0.5083 0.64719 0.0
H184 H 0.17908 0.02825 0.02987 0.0
H185 H 0.14857 0.02473 0.10889 0.0
H186 H 0.18919 0.02198 0.2814 0.0
H187 H 0.21969 0.02609 0.20264 0.0
H188 H 0.13379 0.99534 0.19911 0.0
H189 H 0.15445 0.06777 0.34362 0.0
H190 H 0.16745 0.06125 0.2634 0.0
H191 H 0.17477 0.05071 0.34332 0.0
C192 C 0.18145 0.02685 0.08467 0.0
C193 C 0.20175 0.02765 0.1103 0.0
C194 C 0.16402 0.02483 0.12979 0.0
C195 C 0.16653 0.02357 0.20142 0.0
C196 C 0.18681 0.02349 0.22666 0.0
H197 H 0.08908 1.00623 0.56729 0.0
H198 H 0.11672 0.01083 0.47854 0.0
C199 C 0.20423 0.02561 0.18162 0.0
C200 C 0.148 0.02241 0.24969 0.0
H201 H 0.12718 0.04535 0.39293 0.0
C202 C 0.13225 1.00639 0.24109 0.0
C203 C 0.14584 0.03692 0.30424 0.0
C204 C 0.16141 0.05525 0.3139 0.0
C205 C 0.11489 1.00405 0.28701 0.0
C206 C 0.11309 0.01822 0.34263 0.0
C207 C 0.1286 0.03446 0.35039 0.0
C208 C 0.09594 0.01581 0.39582 0.0
C209 C 0.09897 0.98603 0.27713 0.0
C210 C 0.075 0.01735 0.37916 0.0
C211 C 0.05909 0.01482 0.43021 0.0
C212 C 0.06391 0.01073 0.49861 0.0
C213 C 0.08488 0.0094 0.51505 0.0
C214 C 0.10071 0.01203 0.46437 0.0
H215 H 0.10453 0.97451 0.23961 0.0
H216 H 0.09504 0.97849 0.32713 0.0
H217 H 0.08445 0.99147 0.25736 0.0
H218 H 0.07096 0.02049 0.32676 0.0
H219 H 0.04307 0.01567 0.41594 0.0
H220 H 0.51284 0.21452 0.16464 0.0
H221 H 0.51906 0.1849 0.2339 0.0
H222 H 0.47118 0.14835 0.12414 0.0
H223 H 0.4653 0.17774 0.05402 0.0
H224 H 0.49235 0.16364 0.32145 0.0
H225 H 0.51757 0.1108 0.11484 0.0
H226 H 0.51607 0.13772 0.10097 0.0
H227 H 0.49293 0.12025 0.09791 0.0
C228 C 0.50401 0.20003 0.15428 0.0
C229 C 0.489 0.1983 0.10251 0.0
C230 C 0.50747 0.18313 0.19415 0.0
C231 C 0.49592 0.16419 0.18339 0.0
C232 C 0.48078 0.16254 0.13213 0.0
H233 H 0.47703 0.04807 0.38808 0.0
H234 H 0.47586 0.07795 0.31566 0.0
C235 C 0.47737 0.17939 0.09216 0.0
C236 C 0.49879 0.14651 0.22823 0.0
H237 H 0.50802 0.09593 0.22402 0.0
C238 C 0.49601 0.14891 0.30016 0.0
C239 C 0.50356 0.12723 0.20064 0.0
C240 C 0.50792 0.12386 0.12443 0.0
C241 C 0.49722 0.13246 0.34482 0.0
C242 C 0.50154 0.1131 0.31702 0.0
C243 C 0.50461 0.11075 0.24528 0.0
C244 C 0.5025 0.09499 0.36137 0.0
C245 C 0.49323 0.13575 0.42127 0.0
C246 C 0.51801 0.0945 0.4108 0.0
C247 C 0.51878 0.07737 0.45233 0.0
C248 C 0.50402 0.06036 0.44533 0.0
C249 C 0.4886 0.06088 0.39532 0.0
C250 C 0.48792 0.07796 0.35365 0.0
H251 H 0.48587 0.15019 0.43265 0.0
H252 H 0.483 0.1228 0.44275 0.0
H253 H 0.50827 0.13656 0.4483 0.0
H254 H 0.52963 0.10732 0.41697 0.0
H255 H 0.53094 0.07751 0.48996 0.0
H256 H 0.30379 0.47577 0.1805 0.0
H257 H 0.33207 0.47984 0.26382 0.0
H258 H 0.37328 0.50787 0.10709 0.0
H259 H 0.34495 0.50414 0.02438 0.0
H260 H 0.36959 0.46299 0.25524 0.0
H261 H 0.38347 0.54752 0.26851 0.0
H262 H 0.36044 0.5346 0.23093 0.0
H263 H 0.38468 0.53706 0.18214 0.0
C264 C 0.31882 0.48307 0.16435 0.0
C265 C 0.3222 0.48961 0.09605 0.0
C266 C 0.33499 0.48532 0.2118 0.0
C267 C 0.35482 0.49435 0.19213 0.0
C268 C 0.35807 0.50123 0.12413 0.0
H269 H 0.47458 0.51339 0.39889 0.0
H270 H 0.44673 0.51031 0.31398 0.0
C271 C 0.34189 0.499 0.07673 0.0
C272 C 0.37233 0.49558 0.24157 0.0
H273 H 0.40865 0.52877 0.32072 0.0
C274 C 0.37804 0.4774 0.26981 0.0
C275 C 0.3835 0.51435 0.26045 0.0
C276 C 0.37762 0.53452 0.23449 0.0
C277 C 0.3947 0.47743 0.31548 0.0
C278 C 0.40583 0.49619 0.33446 0.0
C279 C 0.4002 0.51437 0.30601 0.0
C280 C 0.42295 0.49735 0.38521 0.0
C281 C 0.40049 0.4573 0.342 0.0
C282 C 0.4189 0.49112 0.45356 0.0
C283 C 0.43476 0.49287 0.50203 0.0
C284 C 0.45502 0.50097 0.48338 0.0
C285 C 0.45915 0.50702 0.41479 0.0
C286 C 0.44323 0.50533 0.36629 0.0
H287 H 0.39446 0.44422 0.30865 0.0
H288 H 0.41768 0.45714 0.3451 0.0
H289 H 0.3936 0.45499 0.39469 0.0
H290 H 0.40334 0.48526 0.46985 0.0
H291 H 0.43105 0.48815 0.5545 0.0
H292 H 0.99693 0.32162 0.11141 0.0
H293 H 0.99165 0.3506 0.19048 0.0
H294 H 0.05821 0.36251 0.20875 0.0
H295 H 0.06359 0.33345 0.13028 0.0
H296 H 1.00791 0.35675 0.33275 0.0
H297 H 0.03661 0.41831 0.15247 0.0
H298 H 0.02807 0.39272 0.12279 0.0
H299 H 0.05307 0.39778 0.16145 0.0
C300 C 0.01043 0.33024 0.13295 0.0
C301 C 0.0307 0.32493 0.11604 0.0
C302 C 1.00739 0.34685 0.17781 0.0
C303 C 0.02454 0.35876 0.20517 0.0
C304 C 0.04476 0.35363 0.18782 0.0
H305 H 0.03711 0.46732 0.47599 0.0
H306 H 0.04319 0.43925 0.39383 0.0
C307 C 0.04781 0.33694 0.14347 0.0
C308 C 0.02129 0.37635 0.25278 0.0
H309 H 0.02828 0.42849 0.26708 0.0
C310 C 0.01227 0.37245 0.3184 0.0
C311 C 0.02723 0.39678 0.23411 0.0
C312 C 0.03666 0.40179 0.16374 0.0
C313 C 0.00922 0.38842 0.36628 0.0
C314 C 0.01477 0.40894 0.34725 0.0
C315 C 0.02395 0.4128 0.28164 0.0
C316 C 0.01098 0.42656 0.39451 0.0
C317 C 1.00059 0.38304 0.43745 0.0
C318 C 0.9908 0.42917 0.42069 0.0
C319 C 0.98735 0.44508 0.46778 0.0
C320 C 1.00394 0.45895 0.48878 0.0
C321 C 0.02402 0.45687 0.46059 0.0
C322 C 0.0275 0.44081 0.41378 0.0
H323 H 1.00328 0.36711 0.45058 0.0
H324 H 1.00774 0.39357 0.47763 0.0
H325 H 0.9835 0.38426 0.43901 0.0
H326 H 0.97768 0.41878 0.4051 0.0
H327 H 0.97167 0.44644 0.48815 0.0
H328 H 0.84063 0.00943 0.12708 0.0
H329 H 0.8698 0.00721 0.04398 0.0
H330 H 0.82633 0.99194 0.88129 0.0
H331 H 0.79716 0.99458 0.96382 0.0
H332 H 0.88233 0.97612 0.95914 0.0
H333 H 0.86126 0.04057 0.80232 0.0
H334 H 0.84934 0.03501 0.88593 0.0
H335 H 0.84076 0.02038 0.81065 0.0
C336 C 0.83732 1.00536 0.0737 0.0
C337 C 0.81657 1.00188 0.05242 0.0
C338 C 0.854 1.00414 0.02622 0.0
C339 C 0.85032 0.99966 0.95608 0.0
C340 C 0.82961 0.99579 0.93483 0.0
H341 H 0.93065 0.99344 0.58862 0.0
H342 H 0.90177 0.99011 0.67364 0.0
C343 C 0.8129 0.99711 0.98228 0.0
C344 C 0.86816 0.99947 0.90526 0.0
H345 H 0.88874 0.02191 0.7581 0.0
C346 C 0.88375 0.98616 0.91526 0.0
C347 C 0.87012 0.01264 0.84807 0.0
C348 C 0.85461 0.0281 0.83628 0.0
C349 C 0.90099 0.98543 0.86911 0.0
C350 C 0.90285 0.99852 0.81182 0.0
C351 C 0.88727 0.0118 0.80182 0.0
C352 C 0.92083 0.99888 0.76158 0.0
C353 C 0.91686 0.97037 0.88132 0.0
C354 C 0.94126 1.00476 0.78266 0.0
C355 C 0.95783 1.00669 0.73401 0.0
C356 C 0.95426 1.00286 0.66335 0.0
C357 C 0.93391 0.99649 0.64266 0.0
C358 C 0.91737 0.99462 0.6912 0.0
H359 H 0.9106 0.95806 0.91653 0.0
H360 H 0.92202 0.96328 0.83183 0.0
H361 H 0.93074 0.97853 0.90547 0.0
H362 H 0.9443 0.00848 0.83644 0.0
H363 H 0.97333 0.01172 0.75146 0.0
H364 H 0.53442 0.83772 0.11448 0.0
H365 H 0.53484 0.8656 0.03174 0.0
H366 H 0.4862 0.8315 0.91787 0.0
H367 H 0.48573 0.80367 0.00074 0.0
H368 H 0.54136 0.86556 0.88513 0.0
H369 H 0.46215 0.88686 0.96166 0.0
H370 H 0.47657 0.87081 0.01377 0.0
H371 H 0.46372 0.8604 0.93793 0.0
C372 C 0.52387 0.83623 0.07167 0.0
C373 C 0.50973 0.81879 0.06471 0.0
C374 C 0.52412 0.85211 0.02444 0.0
C375 C 0.51024 0.85084 0.96941 0.0
C376 C 0.49671 0.83303 0.9608 0.0
H377 H 0.48221 0.93701 0.65504 0.0
H378 H 0.48331 0.9072 0.72798 0.0
C379 C 0.4965 0.81713 0.00791 0.0
C380 C 0.50982 0.86823 0.92154 0.0
H381 H 0.47887 0.90418 0.86715 0.0
C382 C 0.52772 0.87403 0.88121 0.0
C383 C 0.49199 0.87925 0.91631 0.0
C384 C 0.47254 0.87419 0.96005 0.0
C385 C 0.52818 0.89036 0.83517 0.0
C386 C 0.51042 0.90155 0.83047 0.0
C387 C 0.49249 0.89564 0.8706 0.0
C388 C 0.51015 0.91957 0.78503 0.0
C389 C 0.54757 0.89517 0.79092 0.0
C390 C 0.52472 0.93662 0.79311 0.0
C391 C 0.5242 0.95367 0.7512 0.0
C392 C 0.50895 0.95419 0.70064 0.0
C393 C 0.49422 0.93717 0.69318 0.0
C394 C 0.49481 0.92008 0.73496 0.0
H395 H 0.55698 0.88178 0.78526 0.0
H396 H 0.54361 0.9 0.73865 0.0
H397 H 0.55743 0.90783 0.81576 0.0
H398 H 0.53636 0.93688 0.83253 0.0
H399 H 0.53568 0.96653 0.75902 0.0
H400 H 0.71501 0.51384 0.95403 0.0
H401 H 0.68683 0.5175 0.87347 0.0
H402 H 0.64196 0.51302 0.04312 0.0
H403 H 0.67011 0.51002 0.12368 0.0
H404 H 0.65451 0.49095 0.84322 0.0
H405 H 0.62331 0.56165 0.94816 0.0
H406 H 0.648 0.55359 0.97385 0.0
H407 H 0.62399 0.54246 0.01229 0.0
C408 C 0.69919 0.51421 0.97424 0.0
C409 C 0.69486 0.51235 0.04553 0.0
C410 C 0.68306 0.51615 0.92813 0.0
C411 C 0.66222 0.51604 0.95216 0.0
C412 C 0.65789 0.51388 0.02329 0.0
H413 H 0.54184 0.50579 0.74946 0.0
H414 H 0.57003 0.50736 0.83324 0.0
C415 C 0.67401 0.51209 0.06937 0.0
C416 C 0.64492 0.51684 0.90254 0.0
H417 H 0.60205 0.54192 0.86727 0.0
C418 C 0.64318 0.50223 0.84826 0.0
C419 C 0.62999 0.53149 0.90896 0.0
C420 C 0.6315 0.54831 0.96354 0.0
C421 C 0.62683 0.50165 0.80127 0.0
C422 C 0.61183 0.51614 0.80818 0.0
C423 C 0.6135 0.53076 0.86227 0.0
C424 C 0.59454 0.51647 0.75873 0.0
C425 C 0.6255 0.48528 0.74511 0.0
C426 C 0.59887 0.52157 0.68952 0.0
C427 C 0.58284 0.52081 0.64185 0.0
C428 C 0.5621 0.51486 0.66229 0.0
C429 C 0.55766 0.51036 0.73212 0.0
C430 C 0.57374 0.51125 0.77999 0.0
H431 H 0.63559 0.47283 0.75524 0.0
H432 H 0.60918 0.47854 0.73987 0.0
H433 H 0.63064 0.4922 0.69506 0.0
H434 H 0.61475 0.5259 0.67215 0.0
H435 H 0.58677 0.52447 0.58856 0.0
H436 H 0.9927 0.67569 0.11134 0.0
H437 H 0.99149 0.64729 0.02653 0.0
H438 H 0.01068 0.68958 0.86509 0.0
H439 H 0.01232 0.71796 0.95017 0.0
H440 H 0.96935 0.63917 0.90633 0.0
H441 H 0.05445 0.64848 0.848 0.0
H442 H 0.04263 0.6612 0.92073 0.0
H443 H 0.04154 0.67121 0.83533 0.0
C444 C 0.99648 0.67892 0.05763 0.0
C445 C 1.00256 0.69902 0.03719 0.0
C446 C 0.99579 0.66269 0.00924 0.0
C447 C 1.00132 0.66623 0.9396 0.0
C448 C 1.00675 0.68641 0.91874 0.0
H449 H 0.01525 0.59032 0.57237 0.0
H450 H 0.01137 0.61817 0.65665 0.0
C451 C 1.0075 0.70263 0.96716 0.0
C452 C 1.00189 0.64878 0.88926 0.0
H453 H 0.03426 0.62493 0.77698 0.0
C454 C 0.98355 0.636 0.87821 0.0
C455 C 0.02046 0.64455 0.85289 0.0
C456 C 0.04094 0.65694 0.86519 0.0
C457 C 0.98319 0.61944 0.83053 0.0
C458 C 1.00171 0.61541 0.7936 0.0
C459 C 0.02005 0.62809 0.80507 0.0
C460 C 1.00248 0.59831 0.74204 0.0
C461 C 0.96289 0.6067 0.81884 0.0
C462 C 0.99874 0.57783 0.76191 0.0
C463 C 1.00096 0.56184 0.71363 0.0
C464 C 1.00698 0.56608 0.64482 0.0
C465 C 0.01048 0.58657 0.62498 0.0
C466 C 1.00829 0.60251 0.6731 0.0
H467 H 0.94927 0.61453 0.83887 0.0
H468 H 0.96084 0.60309 0.76298 0.0
H469 H 0.96305 0.59204 0.84617 0.0
H470 H 0.9947 0.57419 0.81514 0.0
H471 H 0.99866 0.54622 0.73064 0.0
H472 H 0.98983 0.23394 0.2095 0.0
H473 H 0.98274 0.20385 0.28197 0.0
H474 H 0.04591 0.18829 0.24506 0.0
H475 H 0.053 0.21836 0.17374 0.0
H476 H 0.98481 0.16695 0.21664 0.0
H477 H 0.03575 0.1707 0.44257 0.0
H478 H 0.0304 0.19322 0.39651 0.0
H479 H 0.05023 0.17738 0.36473 0.0
C480 C 1.00247 0.2247 0.22025 0.0
C481 C 0.02196 0.2284 0.18658 0.0
C482 C 0.99837 0.20742 0.26101 0.0
C483 C 0.0138 0.19382 0.26896 0.0
C484 C 0.03389 0.19872 0.24088 0.0
H485 H 0.02669 0.06763 0.34065 0.0
H486 H 0.0294 0.10314 0.30271 0.0
C487 C 0.03795 0.21592 0.20012 0.0
C488 C 1.00811 0.17289 0.2942 0.0
H489 H 0.02391 0.13677 0.40037 0.0
C490 C 0.99304 0.16045 0.25783 0.0
C491 C 0.01901 0.1644 0.3474 0.0
C492 C 0.0346 0.1772 0.39046 0.0
C493 C 0.98929 0.13951 0.27103 0.0
C494 C 1.00079 0.13089 0.32231 0.0
C495 C 0.01532 0.14343 0.36038 0.0
C496 C 0.99812 0.10881 0.33712 0.0
C497 C 0.97372 0.1266 0.22815 0.0
C498 C 0.97942 0.10015 0.36697 0.0
C499 C 0.97781 0.07988 0.38828 0.0
C500 C 0.99491 0.06803 0.38027 0.0
C501 C 0.01322 0.07638 0.34689 0.0
C502 C 0.01485 0.09668 0.3258 0.0
H503 H 0.96923 0.13473 0.18185 0.0
H504 H 0.98013 0.11208 0.21106 0.0
H505 H 0.95941 0.12266 0.26001 0.0
H506 H 0.96642 0.10934 0.3767 0.0
H507 H 0.96357 0.07386 0.4144 0.0
H508 H 0.31408 0.03037 0.19131 0.0
H509 H 0.33455 0.01851 0.28387 0.0
H510 H 0.29023 0.96583 0.3089 0.0
H511 H 0.27 0.97733 0.21351 0.0
H512 H 0.32912 0.00826 0.41866 0.0
H513 H 0.34316 0.93965 0.25423 0.0
H514 H 0.33026 0.96063 0.22179 0.0
H515 H 0.31667 0.94301 0.28054 0.0
C516 C 0.30853 0.0164 0.21716 0.0
C517 C 0.29075 1.00452 0.19428 0.0
C518 C 0.32016 0.00969 0.27039 0.0
C519 C 0.3142 0.99102 0.30217 0.0
C520 C 0.29536 0.98004 0.28391 0.0
H521 H 0.41697 0.97077 0.5783 0.0
H522 H 0.38031 0.96822 0.54532 0.0
C523 C 0.28371 0.98672 0.23001 0.0
C524 C 0.3292 0.98249 0.34806 0.0
H525 H 0.36514 0.94716 0.34656 0.0
C526 C 0.33673 0.99462 0.40417 0.0
C527 C 0.33907 0.96468 0.32872 0.0
C528 C 0.33204 0.95123 0.26788 0.0
C529 C 0.35498 0.99055 0.43739 0.0
C530 C 0.3656 0.97345 0.41507 0.0
C531 C 0.35697 0.96026 0.36329 0.0
C532 C 0.38726 0.97108 0.43573 0.0
C533 C 0.36366 1.0056 0.49176 0.0
C534 C 0.40327 0.97213 0.38478 0.0
C535 C 0.42412 0.97313 0.40331 0.0
C536 C 0.42932 0.97324 0.47317 0.0
C537 C 0.41333 0.97082 0.52399 0.0
C538 C 0.39241 0.96955 0.50531 0.0
H539 H 0.35534 0.01975 0.49441 0.0
H540 H 0.36203 0.99844 0.54318 0.0
H541 H 0.38048 0.00997 0.48127 0.0
H542 H 0.39967 0.97326 0.33071 0.0
H543 H 0.43615 0.97498 0.36318 0.0
H544 H 0.55062 0.29303 0.13849 0.0
H545 H 0.56145 0.32319 0.2104 0.0
H546 H 0.49703 0.32934 0.26834 0.0
H547 H 0.48642 0.29916 0.19777 0.0
H548 H 0.54897 0.35889 0.17195 0.0
H549 H 0.52478 0.3478 0.44481 0.0
H550 H 0.52742 0.32652 0.38518 0.0
H551 H 0.50375 0.33936 0.38945 0.0
C552 C 0.539 0.30021 0.16992 0.0
C553 C 0.51777 0.29377 0.16386 0.0
C554 C 0.54514 0.3175 0.2104 0.0
C555 C 0.53007 0.32847 0.24512 0.0
C556 C 0.509 0.32088 0.24361 0.0
H557 H 0.498 0.44606 0.34345 0.0
H558 H 0.50282 0.41122 0.30227 0.0
C559 C 0.5029 0.30363 0.20331 0.0
C560 C 0.53548 0.34965 0.27079 0.0
H561 H 0.52481 0.38272 0.40299 0.0
C562 C 0.54428 0.36403 0.22323 0.0
C563 C 0.5293 0.35637 0.33754 0.0
C564 C 0.52099 0.34162 0.39228 0.0
C565 C 0.54562 0.38506 0.23901 0.0
C566 C 0.53798 0.39176 0.30375 0.0
C567 C 0.53042 0.37741 0.35293 0.0
C568 C 0.536 0.41359 0.31949 0.0
C569 C 0.55397 0.40009 0.1852 0.0
C570 C 0.55326 0.42655 0.34027 0.0
C571 C 0.55057 0.44651 0.36355 0.0
C572 C 0.53057 0.45362 0.36644 0.0
C573 C 0.51358 0.44098 0.34149 0.0
C574 C 0.51628 0.42107 0.31844 0.0
H575 H 0.55905 0.39237 0.1367 0.0
H576 H 0.54178 0.41033 0.17296 0.0
H577 H 0.56745 0.40982 0.20593 0.0
H578 H 0.56859 0.42094 0.34137 0.0
H579 H 0.5639 0.45592 0.38295 0.0
H580 H 0.21086 0.44679 0.13771 0.0
H581 H 0.17777 0.44864 0.2018 0.0
H582 H 0.1983 0.50934 0.27538 0.0
H583 H 0.23138 0.50758 0.21126 0.0
H584 H 0.16254 0.46991 0.35639 0.0
H585 H 0.15145 0.50581 0.10286 0.0
H586 H 0.16914 0.48619 0.11137 0.0
H587 H 0.17583 0.51139 0.14593 0.0
C588 C 0.20881 0.45998 0.17118 0.0
C589 C 0.22347 0.47714 0.16915 0.0
C590 C 0.18988 0.46106 0.20737 0.0
C591 C 0.18561 0.47924 0.24209 0.0
C592 C 0.20144 0.49519 0.24871 0.0
H593 H 0.0792 0.54144 0.35867 0.0
H594 H 0.11267 0.5309 0.31426 0.0
C595 C 0.2204 0.4941 0.21256 0.0
C596 C 0.16377 0.48343 0.25612 0.0
H597 H 0.12383 0.50599 0.18475 0.0
C598 C 0.15396 0.47764 0.31892 0.0
C599 C 0.15275 0.49344 0.20653 0.0
C600 C 0.16268 0.49957 0.13764 0.0
C601 C 0.13337 0.48214 0.33419 0.0
C602 C 0.1225 0.49247 0.28502 0.0
C603 C 0.13225 0.49796 0.22188 0.0
C604 C 0.10154 0.49905 0.3007 0.0
C605 C 0.12353 0.47641 0.40344 0.0
C606 C 0.08406 0.48476 0.30388 0.0
C607 C 0.06484 0.4908 0.32811 0.0
C608 C 0.06303 0.51116 0.35006 0.0
C609 C 0.0802 0.52568 0.34184 0.0
C610 C 0.09932 0.51968 0.317 0.0
H611 H 0.13483 0.47048 0.43866 0.0
H612 H 0.11695 0.48988 0.42868 0.0
H613 H 0.11048 0.46443 0.39585 0.0
H614 H 0.08553 0.46881 0.29071 0.0
H615 H 0.05187 0.47928 0.33441 0.0
H616 H 0.05439 0.80592 0.03491 0.0
H617 H 0.0602 0.83863 0.97623 0.0
H618 H 1.00194 0.82596 0.87234 0.0
H619 H 0.99617 0.79317 0.93062 0.0
H620 H 0.03577 0.85118 0.79601 0.0
H621 H 0.01779 0.87807 0.0645 0.0
H622 H 0.03933 0.86249 0.05397 0.0
H623 H 0.01336 0.85161 0.03736 0.0
C624 C 0.04345 0.80963 0.99652 0.0
C625 C 0.02479 0.79718 0.98737 0.0
C626 C 0.04666 0.82838 0.96366 0.0
C627 C 0.03123 0.83483 0.92152 0.0
C628 C 0.01396 0.82122 0.90507 0.0
H629 H 0.98562 0.9445 0.78623 0.0
H630 H 0.99109 0.91089 0.83112 0.0
C631 C 0.01076 0.80241 0.93781 0.0
C632 C 0.0311 0.85668 0.90509 0.0
H633 H 0.02253 0.90312 0.97915 0.0
C634 C 0.03312 0.86259 0.83598 0.0
C635 C 0.02734 0.87143 0.95761 0.0
C636 C 0.02416 0.86567 0.03252 0.0
C637 C 0.03138 0.88295 0.81795 0.0
C638 C 0.0274 0.89757 0.87033 0.0
C639 C 0.02572 0.89178 0.93947 0.0
C640 C 0.0236 0.91866 0.85314 0.0
C641 C 0.0334 0.88876 0.74299 0.0
C642 C 0.03988 0.93428 0.85386 0.0
C643 C 0.03678 0.95356 0.82859 0.0
C644 C 0.01737 0.95731 0.80229 0.0
C645 C 1.00073 0.94202 0.80628 0.0
C646 C 1.00384 0.92281 0.83148 0.0
H647 H 0.0384 0.87607 0.70922 0.0
H648 H 0.01815 0.89307 0.72528 0.0
H649 H 0.04486 0.90229 0.7369 0.0
H650 H 0.0552 0.93127 0.87078 0.0
H651 H 0.0499 0.96505 0.82567 0.0
H652 H 0.71875 0.05599 0.01875 0.0
H653 H 0.69501 0.06421 0.92902 0.0
H654 H 0.71049 0.011 0.81016 0.0
H655 H 0.73406 1.00249 0.90051 0.0
H656 H 0.69318 0.06737 0.77554 0.0
H657 H 0.64943 0.9988 0.89068 0.0
H658 H 0.67212 0.01163 0.93035 0.0
H659 H 0.67504 0.99541 0.85533 0.0
C660 C 0.71767 0.04648 0.97223 0.0
C661 C 0.72787 0.0284 0.96698 0.0
C662 C 0.7042 0.05125 0.9209 0.0
C663 C 0.70077 0.038 0.86377 0.0
C664 C 0.71289 0.02131 0.85428 0.0
H665 H 0.59737 0.03828 0.58116 0.0
H666 H 0.63289 0.04164 0.62527 0.0
C667 C 0.72639 0.01652 0.90573 0.0
C668 C 0.68173 0.03922 0.82368 0.0
H669 H 0.63234 0.01643 0.80887 0.0
C670 C 0.67993 0.05614 0.78189 0.0
C671 C 0.66439 0.0247 0.83349 0.0
C672 C 0.66515 1.00667 0.88021 0.0
C673 C 0.66105 0.05896 0.74985 0.0
C674 C 0.64373 0.04452 0.76045 0.0
C675 C 0.6457 0.02749 0.80124 0.0
C676 C 0.62307 0.04675 0.73154 0.0
C677 C 0.65946 0.07757 0.70683 0.0
C678 C 0.6059 0.04893 0.77657 0.0
C679 C 0.58567 0.04694 0.7516 0.0
C680 C 0.58235 0.04258 0.68129 0.0
C681 C 0.5996 0.04164 0.6356 0.0
C682 C 0.61986 0.04366 0.6606 0.0
H683 H 0.6733 0.08881 0.71203 0.0
H684 H 0.65816 0.07281 0.65161 0.0
H685 H 0.64522 0.08517 0.72202 0.0
H686 H 0.60812 0.0512 0.8316 0.0
H687 H 0.57263 0.04771 0.78785 0.0
H688 H 0.46575 0.72315 0.01432 0.0
H689 H 0.45564 0.69228 0.94489 0.0
H690 H 0.52008 0.68815 0.88323 0.0
H691 H 0.53 0.71926 0.95071 0.0
H692 H 0.49248 0.67248 0.78259 0.0
H693 H 0.47117 0.6416 0.04321 0.0
H694 H 0.45688 0.66228 0.01681 0.0
H695 H 0.48436 0.66669 0.03172 0.0
C696 C 0.4775 0.71622 0.98274 0.0
C697 C 0.49858 0.72349 0.98706 0.0
C698 C 0.47179 0.69848 0.944 0.0
C699 C 0.48721 0.68765 0.91069 0.0
C700 C 0.50796 0.69623 0.90882 0.0
H701 H 0.5197 0.56966 0.80378 0.0
H702 H 0.51554 0.60452 0.84625 0.0
C703 C 0.51362 0.71407 0.94689 0.0
C704 C 0.48264 0.66611 0.88765 0.0
H705 H 0.47095 0.61808 0.95034 0.0
C706 C 0.48739 0.66062 0.8189 0.0
C707 C 0.47632 0.65062 0.93564 0.0
C708 C 0.47203 0.65547 0.01109 0.0
C709 C 0.48651 0.64001 0.79733 0.0
C710 C 0.48077 0.62464 0.84576 0.0
C711 C 0.47522 0.63005 0.91363 0.0
C712 C 0.48244 0.60289 0.82809 0.0
C713 C 0.49251 0.63465 0.72368 0.0
C714 C 0.46497 0.59034 0.80675 0.0
C715 C 0.46727 0.57037 0.78275 0.0
C716 C 0.48707 0.56283 0.77999 0.0
C717 C 0.50426 0.57507 0.80559 0.0
C718 C 0.50195 0.59499 0.82939 0.0
H719 H 0.49412 0.64829 0.69037 0.0
H720 H 0.50763 0.62768 0.72274 0.0
H721 H 0.48067 0.62318 0.70158 0.0
H722 H 0.44979 0.59626 0.8059 0.0
H723 H 0.4538 0.56127 0.76293 0.0
H724 H 0.79231 0.50748 0.93282 0.0
H725 H 0.82426 0.49799 0.8741 0.0
H726 H 0.82494 0.44599 0.00588 0.0
H727 H 0.793 0.45551 0.06475 0.0
H728 H 0.85804 0.47615 0.02409 0.0
H729 H 0.84974 0.45484 0.74668 0.0
H730 H 0.83646 0.47681 0.77315 0.0
H731 H 0.82812 0.45226 0.80839 0.0
C732 C 0.79856 0.49333 0.94627 0.0
C733 C 0.79034 0.48226 0.00334 0.0
C734 C 0.8169 0.48795 0.91293 0.0
C735 C 0.82703 0.47135 0.93603 0.0
C736 C 0.81734 0.45882 0.9873 0.0
H737 H 0.95541 0.45629 0.79312 0.0
H738 H 0.92055 0.44746 0.84359 0.0
C739 C 0.79903 0.46418 0.02053 0.0
C740 C 0.84937 0.47 0.91827 0.0
H741 H 0.88405 0.46762 0.78259 0.0
C742 C 0.86373 0.47384 0.97146 0.0
C743 C 0.85672 0.46707 0.8497 0.0
C744 C 0.84196 0.46233 0.79121 0.0
C745 C 0.88527 0.47585 0.95728 0.0
C746 C 0.89256 0.47395 0.88832 0.0
C747 C 0.87831 0.46909 0.83552 0.0
C748 C 0.91475 0.47875 0.86895 0.0
C749 C 0.90009 0.48062 0.01564 0.0
C750 C 0.92316 0.49919 0.86883 0.0
C751 C 0.94296 0.50428 0.83977 0.0
C752 C 0.95464 0.48897 0.81079 0.0
C753 C 0.9468 0.46837 0.81563 0.0
C754 C 0.92686 0.46331 0.84392 0.0
H755 H 0.89238 0.47766 0.06692 0.0
H756 H 0.91372 0.47139 0.00983 0.0
H757 H 0.90598 0.49701 0.01417 0.0
H758 H 0.91393 0.51129 0.88765 0.0
H759 H 0.9486 0.52028 0.83626 0.0
H760 H 0.0588 0.23135 0.92028 0.0
H761 H 0.06008 0.20151 0.84189 0.0
H762 H 0.99324 0.1898 0.86319 0.0
H763 H 0.992 0.21991 0.9393 0.0
H764 H 0.05022 0.16415 0.88401 0.0
H765 H 1.00061 0.17601 0.6629 0.0
H766 H 0.0097 0.19671 0.7205 0.0
H767 H 0.98687 0.18009 0.7431 0.0
C768 C 0.04433 0.22302 0.9049 0.0
C769 C 0.02524 0.22818 0.93407 0.0
C770 C 0.04507 0.20581 0.86097 0.0
C771 C 0.02674 0.1934 0.84601 0.0
C772 C 1.00754 0.19934 0.87209 0.0
H773 H 0.01513 0.06154 0.78532 0.0
H774 H 0.01863 0.09669 0.83162 0.0
C775 C 1.0068 0.21662 0.91545 0.0
C776 C 0.02789 0.17293 0.81171 0.0
H777 H 1.00574 0.14094 0.68738 0.0
C778 C 0.04072 0.1592 0.84029 0.0
C779 C 0.01565 0.1664 0.75436 0.0
C780 C 1.00262 0.18068 0.71803 0.0
C781 C 0.04117 0.13903 0.81462 0.0
C782 C 0.02796 0.13213 0.76003 0.0
C783 C 0.01565 0.14605 0.72994 0.0
C784 C 0.02668 0.11061 0.73298 0.0
C785 C 0.05596 0.12542 0.84596 0.0
C786 C 0.02964 0.10664 0.66201 0.0
C787 C 0.02731 0.08663 0.63538 0.0
C788 C 0.02205 0.07002 0.6791 0.0
C789 C 0.01945 0.07393 0.75038 0.0
C790 C 0.02154 0.09405 0.77694 0.0
H791 H 0.0693 0.13455 0.87021 0.0
H792 H 0.04755 0.11621 0.88696 0.0
H793 H 0.0622 0.11482 0.80661 0.0
H794 H 0.03359 0.1191 0.62695 0.0
H795 H 0.02949 0.08421 0.58019 0.0
H796 H 0.31889 0.04709 0.99781 0.0
H797 H 0.34894 0.04813 0.91782 0.0
H798 H 0.32017 0.99631 0.8043 0.0
H799 H 0.28996 0.99518 0.88531 0.0
H800 H 0.35955 0.9902 0.84465 0.0
H801 H 0.3616 0.06527 0.72037 0.0
H802 H 0.35894 0.06766 0.8126 0.0
H803 H 0.33853 0.05382 0.76434 0.0
C804 C 0.31866 0.03637 0.95433 0.0
C805 C 0.30202 0.02117 0.94733 0.0
C806 C 0.33585 0.03699 0.90848 0.0
C807 C 0.33682 0.02243 0.85443 0.0
C808 C 0.31972 0.00781 0.84526 0.0
H809 H 0.45006 0.02516 0.58503 0.0
H810 H 0.41333 0.02401 0.62374 0.0
C811 C 0.30239 0.00727 0.89109 0.0
C812 C 0.35668 0.02112 0.81363 0.0
H813 H 0.39441 0.04995 0.72274 0.0
C814 C 0.36698 1.00316 0.81699 0.0
C815 C 0.3664 0.03791 0.77684 0.0
C816 C 0.35569 0.05717 0.76765 0.0
C817 C 0.38712 1.00195 0.78795 0.0
C818 C 0.39741 0.01924 0.75548 0.0
C819 C 0.38667 0.03679 0.74861 0.0
C820 C 0.41962 0.01969 0.73141 0.0
C821 C 0.39734 0.98222 0.79299 0.0
C822 C 0.43541 0.01787 0.77907 0.0
C823 C 0.45636 0.01853 0.75711 0.0
C824 C 0.46198 0.02104 0.68701 0.0
C825 C 0.4462 0.02308 0.63936 0.0
C826 C 0.42521 0.02247 0.6614 0.0
H827 H 0.38564 0.96901 0.80159 0.0
H828 H 0.40669 0.97918 0.74538 0.0
H829 H 0.40797 0.9834 0.83736 0.0
H830 H 0.43153 0.01609 0.83351 0.0
H831 H 0.46817 0.01699 0.79503 0.0
H832 H 0.5235 0.29103 0.87255 0.0
H833 H 0.52127 0.32097 0.80008 0.0
H834 H 0.46212 0.33165 0.8979 0.0
H835 H 0.46434 0.30174 0.97004 0.0
H836 H 0.4655 0.34104 0.75124 0.0
H837 H 0.53102 0.37705 0.9055 0.0
H838 H 0.53577 0.35331 0.86218 0.0
H839 H 0.51628 0.3536 0.93027 0.0
C840 C 0.50958 0.29921 0.87604 0.0
C841 C 0.49392 0.29392 0.92591 0.0
C842 C 0.50845 0.31648 0.83545 0.0
C843 C 0.49169 0.32875 0.84445 0.0
C844 C 0.47519 0.32244 0.89007 0.0
H845 H 0.49256 0.45952 0.77459 0.0
H846 H 0.48925 0.42519 0.82322 0.0
C847 C 0.47636 0.30524 0.93078 0.0
C848 C 0.49241 0.34926 0.81272 0.0
H849 H 0.51874 0.39679 0.81754 0.0
C850 C 0.47718 0.35321 0.7654 0.0
C851 C 0.50738 0.36528 0.83251 0.0
C852 C 0.52346 0.36226 0.88582 0.0
C853 C 0.47675 0.37267 0.7365 0.0
C854 C 0.49205 0.38855 0.75504 0.0
C855 C 0.50708 0.38463 0.80306 0.0
C856 C 0.49291 0.40932 0.72495 0.0
C857 C 0.45965 0.37617 0.68747 0.0
C858 C 0.49614 0.41188 0.65359 0.0
C859 C 0.49804 0.43146 0.62568 0.0
C860 C 0.49686 0.449 0.66852 0.0
C861 C 0.49347 0.4464 0.74 0.0
C862 C 0.49161 0.42677 0.76791 0.0
H863 H 0.44618 0.3645 0.69315 0.0
H864 H 0.45405 0.39158 0.69603 0.0
H865 H 0.46582 0.37515 0.63353 0.0
H866 H 0.49766 0.39875 0.61949 0.0
H867 H 0.50073 0.43279 0.57044 0.0
H868 H 0.22873 0.52378 0.92691 0.0
H869 H 0.19801 0.52865 0.85846 0.0
H870 H 0.18424 0.46326 0.84252 0.0
H871 H 0.21501 0.45843 0.90982 0.0
H872 H 0.17433 0.48242 0.72414 0.0
H873 H 0.14107 0.51962 0.95751 0.0
H874 H 0.16537 0.532 0.92621 0.0
H875 H 0.16457 0.50656 0.95921 0.0
C876 C 0.21969 0.51048 0.90594 0.0
C877 C 0.22436 0.49072 0.92303 0.0
C878 C 0.20189 0.51325 0.86803 0.0
C879 C 0.18845 0.49632 0.84698 0.0
C880 C 0.19423 0.47657 0.85856 0.0
H881 H 0.05459 0.49322 0.77435 0.0
H882 H 0.08913 0.4902 0.82215 0.0
C883 C 0.21195 0.4738 0.89638 0.0
C884 C 0.16761 0.49898 0.81816 0.0
H885 H 0.12068 0.51786 0.85742 0.0
C886 C 0.16263 0.49026 0.75312 0.0
C887 C 0.15209 0.50869 0.85681 0.0
C888 C 0.15588 0.51709 0.92908 0.0
C889 C 0.14276 0.49121 0.72528 0.0
C890 C 0.12748 0.50159 0.7628 0.0
C891 C 0.13238 0.51008 0.82827 0.0
C892 C 0.1064 0.50386 0.73488 0.0
C893 C 0.1382 0.48055 0.65672 0.0
C894 C 0.10449 0.513 0.67083 0.0
C895 C 0.08485 0.51458 0.64329 0.0
C896 C 0.06649 0.50737 0.67952 0.0
C897 C 0.06835 0.49889 0.74493 0.0
C898 C 0.08811 0.49714 0.77227 0.0
H899 H 0.14876 0.46827 0.64574 0.0
H900 H 0.12183 0.4737 0.65526 0.0
H901 H 0.14069 0.49181 0.61479 0.0
H902 H 0.11823 0.51893 0.64186 0.0
H903 H 0.08413 0.5215 0.59327 0.0
H904 H 0.96595 0.79681 0.197 0.0
H905 H 0.96216 0.82786 0.26775 0.0
H906 H 0.02563 0.82715 0.33267 0.0
H907 H 0.02947 0.79631 0.26139 0.0
H908 H 0.96978 0.84278 0.40944 0.0
H909 H 0.02445 0.87917 0.2128 0.0
H910 H 0.0116 0.85383 0.20102 0.0
H911 H 0.03404 0.85781 0.25452 0.0
C912 C 0.97867 0.80267 0.2294 0.0
C913 C 0.99791 0.79408 0.22457 0.0
C914 C 0.9766 0.82055 0.26908 0.0
C915 C 0.99377 0.83003 0.30414 0.0
C916 C 0.01228 0.82021 0.30523 0.0
H917 H 1.00617 0.93654 0.57325 0.0
H918 H 1.00234 0.90238 0.52141 0.0
C919 C 0.01437 0.80242 0.26546 0.0
C920 C 0.9933 0.85127 0.3319 0.0
H921 H 0.01591 0.89981 0.30989 0.0
C922 C 0.97981 0.85528 0.38771 0.0
C923 C 1.00595 0.86766 0.30204 0.0
C924 C 0.01969 0.86453 0.23886 0.0
C925 C 0.97922 0.87516 0.4162 0.0
C926 C 0.99276 0.89136 0.38882 0.0
C927 C 1.00569 0.88741 0.33138 0.0
C928 C 0.99439 0.91233 0.42043 0.0
C929 C 0.96392 0.87862 0.47482 0.0
C930 C 0.99189 0.92953 0.38045 0.0
C931 C 0.99438 0.94932 0.40984 0.0
C932 C 0.99946 0.95226 0.47979 0.0
C933 C 1.00204 0.93496 0.5194 0.0
C934 C 0.99968 0.91529 0.48997 0.0
H935 H 0.95043 0.86684 0.47417 0.0
H936 H 0.9718 0.87753 0.5247 0.0
H937 H 0.95798 0.89397 0.4725 0.0
H938 H 0.98802 0.92765 0.32644 0.0
H939 H 0.99232 0.96225 0.37776 0.0
H940 H 0.71573 0.97302 0.21719 0.0
H941 H 0.68451 0.96766 0.29271 0.0
H942 H 0.67488 0.0317 0.28103 0.0
H943 H 0.70639 0.03723 0.20886 0.0
H944 H 0.6635 0.01839 0.40499 0.0
H945 H 0.62804 0.96404 0.20821 0.0
H946 H 0.65132 0.95624 0.2449 0.0
H947 H 0.65263 0.97875 0.1931 0.0
C948 C 0.70731 0.98603 0.23266 0.0
C949 C 0.71336 1.00549 0.20625 0.0
C950 C 0.68925 0.98291 0.27488 0.0
C951 C 0.67685 0.99914 0.29073 0.0
C952 C 0.68394 0.01885 0.26905 0.0
H953 H 0.54406 0.99872 0.35051 0.0
H954 H 0.58048 0.99944 0.31027 0.0
C955 C 0.70198 0.02199 0.2276 0.0
C956 C 0.65584 0.99574 0.32541 0.0
H957 H 0.60721 0.97117 0.30568 0.0
C958 C 0.65124 0.00792 0.38362 0.0
C959 C 0.63965 0.98236 0.29692 0.0
C960 C 0.64302 0.96973 0.23202 0.0
C961 C 0.63095 0.00748 0.41295 0.0
C962 C 0.6148 0.994 0.38471 0.0
C963 C 0.61953 0.98144 0.32763 0.0
C964 C 0.59265 0.99355 0.41043 0.0
C965 C 0.62682 0.02226 0.47155 0.0
C966 C 0.58715 0.98982 0.48012 0.0
C967 C 0.5663 0.98966 0.50333 0.0
C968 C 0.55048 0.99288 0.45713 0.0
C969 C 0.55591 0.99619 0.3873 0.0
C970 C 0.57675 0.99658 0.36428 0.0
H971 H 0.63937 0.03495 0.47529 0.0
H972 H 0.61175 0.02895 0.46509 0.0
H973 H 0.62605 0.01403 0.52107 0.0
H974 H 0.59894 0.98687 0.51656 0.0
H975 H 0.56255 0.98684 0.55735 0.0
H976 H 0.48887 0.72263 0.26711 0.0
H977 H 0.49129 0.69282 0.33957 0.0
H978 H 0.5546 0.6884 0.26565 0.0
H979 H 0.55221 0.71843 0.19435 0.0
H980 H 0.49673 0.65583 0.28088 0.0
H981 H 0.55936 0.67523 0.4681 0.0
H982 H 0.54712 0.6945 0.42252 0.0
H983 H 0.56721 0.68094 0.38049 0.0
C984 C 0.50362 0.71591 0.26933 0.0
C985 C 0.52054 0.72312 0.22674 0.0
C986 C 0.50494 0.69872 0.30997 0.0
C987 C 0.52317 0.68835 0.30849 0.0
C988 C 0.54053 0.69633 0.26908 0.0
H989 H 0.52481 0.55696 0.37217 0.0
H990 H 0.52733 0.5913 0.32375 0.0
C991 C 0.53922 0.71358 0.2286 0.0
C992 C 0.52302 0.66786 0.34028 0.0
H993 H 0.5485 0.63971 0.45212 0.0
C994 C 0.50798 0.65238 0.3187 0.0
C995 C 0.53766 0.66328 0.38968 0.0
C996 C 0.55363 0.67941 0.41712 0.0
C997 C 0.50728 0.63248 0.34448 0.0
C998 C 0.5223 0.62772 0.39229 0.0
C999 C 0.53717 0.64326 0.41473 0.0
C1000 C 0.52221 0.60693 0.42167 0.0
C1001 C 0.49017 0.61684 0.32119 0.0
C1002 C 0.51923 0.6043 0.49305 0.0
C1003 C 0.51792 0.58474 0.52088 0.0
C1004 C 0.51965 0.56728 0.478 0.0
C1005 C 0.52329 0.57 0.40668 0.0
C1006 C 0.52461 0.58963 0.37885 0.0
H1007 H 0.47706 0.62415 0.29854 0.0
H1008 H 0.49657 0.60662 0.28097 0.0
H1009 H 0.48395 0.60729 0.36492 0.0
H1010 H 0.5174 0.61738 0.5272 0.0
H1011 H 0.51519 0.58334 0.5761 0.0
H1012 H 0.80135 0.54652 0.19103 0.0
H1013 H 0.83283 0.55106 0.2606 0.0
H1014 H 0.81763 0.49155 0.34723 0.0
H1015 H 0.78636 0.48694 0.27722 0.0
H1016 H 0.84442 0.54762 0.40469 0.0
H1017 H 0.8725 0.48676 0.23102 0.0
H1018 H 0.84962 0.49964 0.21358 0.0
H1019 H 0.84824 0.47967 0.27588 0.0
C1020 C 0.80417 0.53491 0.22771 0.0
C1021 C 0.79129 0.5165 0.22956 0.0
C1022 C 0.8223 0.53739 0.26678 0.0
C1023 C 0.82781 0.52145 0.30795 0.0
C1024 C 0.81383 0.50393 0.31511 0.0
H1025 H 0.93185 0.51519 0.57984 0.0
H1026 H 0.89803 0.51799 0.52912 0.0
C1027 C 0.79579 0.50144 0.27599 0.0
C1028 C 0.84912 0.522 0.33647 0.0
H1029 H 0.89409 0.49784 0.32412 0.0
C1030 C 0.8553 0.53677 0.38713 0.0
C1031 C 0.86353 0.50816 0.3122 0.0
C1032 C 0.85829 0.49277 0.25471 0.0
C1033 C 0.87528 0.53765 0.41568 0.0
C1034 C 0.88935 0.52319 0.39366 0.0
C1035 C 0.88331 0.50882 0.34156 0.0
C1036 C 0.91022 0.52234 0.42477 0.0
C1037 C 0.88122 0.55428 0.46842 0.0
C1038 C 0.92848 0.52331 0.38294 0.0
C1039 C 0.94799 0.52148 0.41179 0.0
C1040 C 0.94966 0.51855 0.48315 0.0
C1041 C 0.93131 0.5176 0.52478 0.0
C1042 C 0.91186 0.51936 0.49591 0.0
H1043 H 0.87173 0.56751 0.46371 0.0
H1044 H 0.87835 0.54813 0.52106 0.0
H1045 H 0.89797 0.55978 0.46298 0.0
H1046 H 0.92763 0.52543 0.32779 0.0
H1047 H 0.96171 0.52224 0.37802 0.0
loop_
_geom_bond_atom_site_label_1
_geom_bond_atom_site_label_2
_geom_bond_distance
_geom_bond_site_symmetry_2
_ccdc_geom_bond_type
H0 C7 0.929 . S
H1 C10 0.930 1_556 S
H2 C12 0.929 . S
H3 C4 0.969 1_556 S
C4 H3 0.969 1_554 S
C4 O5 1.550 . S
C4 H6 0.973 1_554 S
O5 C4 1.550 . S
O5 C11 1.412 . S
H6 C4 0.973 1_556 S
C7 H0 0.929 . S
C7 C8 1.400 . S
C7 C9 1.364 . S
C8 C7 1.400 . S
C8 C12 1.377 . S
C9 C7 1.364 . S
C9 C10 1.374 . S
C10 H1 0.930 1_554 S
C10 C9 1.374 . S
C10 C11 1.383 . S
C11 O5 1.412 . S
C11 C10 1.383 . S
C11 C12 1.394 . S
C12 H2 0.929 . S
C12 C8 1.377 . S
C12 C11 1.394 . S
H13 C20 0.927 . S
H14 C23 0.930 . S
H15 C25 0.930 1_655 S
H16 C17 0.969 . S
C17 H16 0.969 . S
C17 O18 1.550 1_456 S
C17 H19 0.973 1_455 S
O18 C17 1.550 1_654 S
O18 C24 1.408 1_655 S
H19 C17 0.973 1_655 S
C20 H13 0.927 . S
C20 C21 1.399 1_655 S
C20 C22 1.364 1_654 S
C21 C20 1.399 1_455 S
C21 C25 1.378 . S
C22 C20 1.364 1_456 S
C22 C23 1.375 1_455 S
C23 H14 0.930 . S
C23 C22 1.375 1_655 S
C23 C24 1.380 1_656 S
C24 O18 1.408 1_455 S
C24 C23 1.380 1_454 S
C24 C25 1.394 . S
C25 H15 0.930 1_455 S
C25 C21 1.378 . S
C25 C24 1.394 . S
H26 C33 0.929 . S
H27 C36 0.930 . S
H28 C38 0.929 . S
H29 C30 0.969 . S
C30 H29 0.969 . S
C30 O31 1.550 1_556 S
C30 H32 0.973 . S
O31 C30 1.550 1_554 S
O31 C37 1.412 . S
H32 C30 0.973 . S
C33 H26 0.929 . S
C33 C34 1.400 . S
C33 C35 1.364 1_554 S
C34 C33 1.400 . S
C34 C38 1.377 . S
C35 C33 1.364 1_556 S
C35 C36 1.374 . S
C36 H27 0.930 . S
C36 C35 1.374 . S
C36 C37 1.383 1_556 S
C37 O31 1.412 . S
C37 C36 1.383 1_554 S
C37 C38 1.394 . S
C38 H28 0.929 . S
C38 C34 1.377 . S
C38 C37 1.394 . S
H39 C46 0.929 . S
H40 C49 0.930 . S
H41 C51 0.929 . S
H42 C43 0.969 . S
C43 H42 0.969 . S
C43 O44 1.550 . S
C43 H45 0.973 . S
O44 C43 1.550 . S
O44 C50 1.412 . S
H45 C43 0.973 . S
C46 H39 0.929 . S
C46 C47 1.400 . S
C46 C48 1.364 . S
C47 C46 1.400 . S
C47 C51 1.377 . S
C48 C46 1.364 . S
C48 C49 1.374 . S
C49 H40 0.930 . S
C49 C48 1.374 . S
C49 C50 1.383 . S
C50 O44 1.412 . S
C50 C49 1.383 . S
C50 C51 1.394 . S
C51 H41 0.929 . S
C51 C47 1.377 . S
C51 C50 1.394 . S
H52 C59 0.929 . S
H53 C62 0.930 . S
H54 C64 0.929 1_556 S
H55 C56 0.969 . S
C56 H55 0.969 . S
C56 O57 1.550 . S
C56 H58 0.973 . S
O57 C56 1.550 . S
O57 C63 1.412 . S
H58 C56 0.973 . S
C59 H52 0.929 . S
C59 C60 1.400 . S
C59 C61 1.364 . S
C60 C59 1.400 . S
C60 C64 1.377 . S
C61 C59 1.364 . S
C61 C62 1.374 . S
C62 H53 0.930 . S
C62 C61 1.374 . S
C62 C63 1.383 . S
C63 O57 1.412 . S
C63 C62 1.383 . S
C63 C64 1.394 . S
C64 H54 0.929 1_554 S
C64 C60 1.377 . S
C64 C63 1.394 . S
H65 C72 0.929 1_655 S
H66 C75 0.929 . S
H67 C77 0.927 1_655 S
H68 C69 0.969 . S
C69 H68 0.969 . S
C69 O70 1.550 1_455 S
C69 H71 0.973 1_455 S
O70 C69 1.550 1_655 S
O70 C76 1.399 1_655 S
H71 C69 0.973 1_655 S
C72 H65 0.929 1_455 S
C72 C73 1.401 . S
C72 C74 1.364 . S
C73 C72 1.401 . S
C73 C77 1.376 . S
C74 C72 1.364 . S
C74 C75 1.374 1_455 S
C75 H66 0.929 . S
C75 C74 1.374 1_655 S
C75 C76 1.385 1_655 S
C76 O70 1.399 1_455 S
C76 C75 1.385 1_455 S
C76 C77 1.394 . S
C77 H67 0.927 1_455 S
C77 C73 1.376 . S
C77 C76 1.394 . S
H78 C85 0.929 . S
H79 C88 0.930 . S
H80 C90 0.929 . S
H81 C82 0.969 . S
C82 H81 0.969 . S
C82 O83 1.550 . S
C82 H84 0.973 . S
O83 C82 1.550 . S
O83 C89 1.412 . S
H84 C82 0.973 . S
C85 H78 0.929 . S
C85 C86 1.400 . S
C85 C87 1.364 . S
C86 C85 1.400 . S
C86 C90 1.377 . S
C87 C85 1.364 . S
C87 C88 1.374 . S
C88 H79 0.930 . S
C88 C87 1.374 . S
C88 C89 1.383 . S
C89 O83 1.412 . S
C89 C88 1.383 . S
C89 C90 1.394 . S
C90 H80 0.929 . S
C90 C86 1.377 . S
C90 C89 1.394 . S
H91 C98 0.929 . S
H92 C101 0.930 . S
H93 C103 0.929 . S
H94 C95 0.969 . S
C95 H94 0.969 . S
C95 O96 1.550 . S
C95 H97 0.973 . S
O96 C95 1.550 . S
O96 C102 1.412 . S
H97 C95 0.973 . S
C98 H91 0.929 . S
C98 C99 1.400 1_554 S
C98 C100 1.364 . S
C99 C98 1.400 1_556 S
C99 C103 1.377 . S
C100 C98 1.364 . S
C100 C101 1.374 . S
C101 H92 0.930 . S
C101 C100 1.374 . S
C101 C102 1.383 . S
C102 O96 1.412 . S
C102 C101 1.383 . S
C102 C103 1.394 1_554 S
C103 H93 0.929 . S
C103 C99 1.377 . S
C103 C102 1.394 1_556 S
Dy104 O108 2.398 . S
Dy104 O109 2.491 1_455 S
Dy104 O110 2.403 . S
Dy104 O111 2.664 1_565 S
Dy104 O115 2.326 . S
Dy104 O119 2.310 1_455 S
Dy104 O120 2.351 1_565 S
C105 O116 1.185 . S
C105 O117 1.355 1_655 S
C106 O108 1.185 . S
C106 O109 1.355 1_455 S
Dy107 O111 2.310 1_655 S
Dy107 O114 2.351 1_545 S
Dy107 O116 2.398 . S
Dy107 O117 2.491 1_655 S
Dy107 O118 2.403 . S
Dy107 O119 2.664 1_545 S
Dy107 O121 2.326 . S
O108 Dy104 2.398 . S
O108 C106 1.185 . S
O109 Dy104 2.491 1_655 S
O109 C106 1.355 1_655 S
O110 Dy104 2.403 . S
O110 C112 1.254 1_565 S
O111 Dy104 2.664 1_545 S
O111 Dy107 2.310 1_455 S
O111 C112 1.268 . S
C112 O110 1.254 1_545 S
C112 O111 1.268 . S
C113 O118 1.254 1_565 S
C113 O119 1.268 . S
O114 Dy107 2.351 1_565 S
O114 C122 1.249 . S
O115 Dy104 2.326 . S
O115 C122 1.267 1_455 S
O116 C105 1.185 . S
O116 Dy107 2.398 . S
O117 C105 1.355 1_455 S
O117 Dy107 2.491 1_455 S
O118 Dy107 2.403 . S
O118 C113 1.254 1_545 S
O119 Dy104 2.310 1_655 S
O119 Dy107 2.664 1_565 S
O119 C113 1.268 . S
O120 Dy104 2.351 1_545 S
O120 C123 1.249 . S
O121 Dy107 2.326 . S
O121 C123 1.267 1_655 S
C122 O114 1.249 . S
C122 O115 1.267 1_655 S
C123 O120 1.249 . S
C123 O121 1.267 1_455 S
Dy124 O128 2.398 . S
Dy124 O129 2.491 1_565 S
Dy124 O130 2.403 . S
Dy124 O131 2.664 . S
Dy124 O135 2.326 1_565 S
Dy124 O139 2.310 1_565 S
Dy124 O140 2.351 . S
C125 O136 1.175 1_565 S
C125 O137 1.359 . S
C126 O128 1.185 1_545 S
C126 O129 1.355 . S
Dy127 O131 2.310 1_545 S
Dy127 O134 2.351 . S
Dy127 O136 2.398 . S
Dy127 O137 2.491 1_545 S
Dy127 O138 2.403 . S
Dy127 O139 2.664 . S
Dy127 O141 2.326 1_545 S
O128 Dy124 2.398 . S
O128 C126 1.185 1_565 S
O129 Dy124 2.491 1_545 S
O129 C126 1.355 . S
O130 Dy124 2.403 . S
O130 C132 1.254 . S
O131 Dy124 2.664 . S
O131 Dy127 2.310 1_565 S
O131 C132 1.268 . S
C132 O130 1.254 . S
C132 O131 1.268 . S
C133 O138 1.254 . S
C133 O139 1.268 . S
O134 Dy127 2.351 . S
O134 C142 1.249 . S
O135 Dy124 2.326 1_545 S
O135 C142 1.267 . S
O136 C125 1.175 1_545 S
O136 Dy127 2.398 . S
O137 C125 1.359 . S
O137 Dy127 2.491 1_565 S
O138 Dy127 2.403 . S
O138 C133 1.254 . S
O139 Dy124 2.310 1_545 S
O139 Dy127 2.664 . S
O139 C133 1.268 . S
O140 Dy124 2.351 . S
O140 C143 1.249 . S
O141 Dy127 2.326 1_565 S
O141 C143 1.267 . S
C142 O134 1.249 . S
C142 O135 1.267 . S
C143 O140 1.249 . S
C143 O141 1.267 . S
Dy144 O148 2.398 . S
Dy144 O149 2.491 . S
Dy144 O150 2.403 . S
Dy144 O151 2.664 . S
Dy144 O155 2.326 . S
Dy144 O159 2.310 . S
Dy144 O160 2.351 . S
C145 O156 1.185 . S
C145 O157 1.355 . S
C146 O148 1.185 . S
C146 O149 1.355 . S
Dy147 O151 2.310 . S
Dy147 O154 2.351 . S
Dy147 O156 2.398 . S
Dy147 O157 2.491 . S
Dy147 O158 2.403 . S
Dy147 O159 2.664 . S
Dy147 O161 2.326 . S
O148 Dy144 2.398 . S
O148 C146 1.185 . S
O149 Dy144 2.491 . S
O149 C146 1.355 . S
O150 Dy144 2.403 . S
O150 C152 1.254 . S
O151 Dy144 2.664 . S
O151 Dy147 2.310 . S
O151 C152 1.268 . S
C152 O150 1.254 . S
C152 O151 1.268 . S
C153 O158 1.254 . S
C153 O159 1.268 . S
O154 Dy147 2.351 . S
O154 C162 1.249 . S
O155 Dy144 2.326 . S
O155 C162 1.267 . S
O156 C145 1.185 . S
O156 Dy147 2.398 . S
O157 C145 1.355 . S
O157 Dy147 2.491 . S
O158 Dy147 2.403 . S
O158 C153 1.254 . S
O159 Dy144 2.310 . S
O159 Dy147 2.664 . S
O159 C153 1.268 . S
O160 Dy144 2.351 . S
O160 C163 1.249 . S
O161 Dy147 2.326 . S
O161 C163 1.267 . S
C162 O154 1.249 . S
C162 O155 1.267 . S
C163 O160 1.249 . S
C163 O161 1.267 . S
Dy164 O168 2.398 . S
Dy164 O169 2.491 . S
Dy164 O170 2.403 . S
Dy164 O171 2.664 1_655 S
Dy164 O175 2.326 . S
Dy164 O179 2.310 . S
Dy164 O180 2.351 1_655 S
C165 O176 1.185 . S
C165 O177 1.355 . S
C166 O168 1.185 . S
C166 O169 1.355 . S
Dy167 O171 2.310 . S
Dy167 O174 2.351 1_455 S
Dy167 O176 2.398 . S
Dy167 O177 2.491 . S
Dy167 O178 2.403 . S
Dy167 O179 2.664 1_455 S
Dy167 O181 2.326 . S
O168 Dy164 2.398 . S
O168 C166 1.185 . S
O169 Dy164 2.491 . S
O169 C166 1.355 . S
O170 Dy164 2.403 . S
O170 C172 1.254 . S
O171 Dy164 2.664 1_455 S
O171 Dy167 2.310 . S
O171 C172 1.268 1_455 S
C172 O170 1.254 . S
C172 O171 1.268 1_655 S
C173 O178 1.254 . S
C173 O179 1.268 1_455 S
O174 Dy167 2.351 1_655 S
O174 C182 1.249 . S
O175 Dy164 2.326 . S
O175 C182 1.267 . S
O176 C165 1.185 . S
O176 Dy167 2.398 . S
O177 C165 1.355 . S
O177 Dy167 2.491 . S
O178 Dy167 2.403 . S
O178 C173 1.254 . S
O179 Dy164 2.310 . S
O179 Dy167 2.664 1_655 S
O179 C173 1.268 1_655 S
O180 Dy164 2.351 1_455 S
O180 C183 1.249 . S
O181 Dy167 2.326 . S
O181 C183 1.267 . S
C182 O174 1.249 . S
C182 O175 1.267 . S
C183 O180 1.249 . S
C183 O181 1.267 . S
H184 C192 0.929 . S
H185 C194 0.930 . S
H186 C196 0.930 . S
H187 C199 0.929 . S
H188 C202 0.930 . S
H189 C204 0.960 . S
H190 C204 0.960 . S
H191 C204 0.960 . S
C192 H184 0.929 . S
C192 C193 1.377 . S
C192 C194 1.384 . S
C193 C192 1.377 . S
C193 C199 1.390 . S
C194 H185 0.930 . S
C194 C192 1.384 . S
C194 C195 1.372 . S
C195 C194 1.372 . S
C195 C196 1.400 . S
C195 C200 1.490 . S
C196 H186 0.930 . S
C196 C195 1.400 . S
C196 C199 1.386 . S
H197 C213 0.930 1_565 S
H198 C214 0.931 . S
C199 H187 0.929 . S
C199 C193 1.390 . S
C199 C196 1.386 . S
C200 C195 1.490 . S
C200 C202 1.395 . S
C200 C203 1.403 . S
H201 C207 0.930 . S
C202 H188 0.930 . S
C202 C200 1.395 . S
C202 C205 1.403 . S
C203 C200 1.403 . S
C203 C204 1.524 . S
C203 C207 1.400 . S
C204 H189 0.960 . S
C204 H190 0.960 . S
C204 H191 0.960 . S
C204 C203 1.524 . S
C205 C202 1.403 . S
C205 C206 1.392 . S
C205 C209 1.510 . S
C206 C205 1.392 . S
C206 C207 1.385 . S
C206 C208 1.478 . S
C207 H201 0.930 . S
C207 C203 1.400 . S
C207 C206 1.385 . S
C208 C206 1.478 . S
C208 C210 1.381 . S
C208 C214 1.383 . S
C209 C205 1.510 . S
C209 H215 0.953 1_545 S
C209 H216 0.939 1_545 S
C209 H217 0.974 . S
C210 C208 1.381 . S
C210 C211 1.394 . S
C210 H218 0.930 . S
C211 C210 1.394 . S
C211 C212 1.383 . S
C211 H219 0.929 . S
C212 C211 1.383 . S
C212 C213 1.377 . S
C213 H197 0.930 1_545 S
C213 C212 1.377 . S
C213 C214 1.379 . S
C214 H198 0.931 . S
C214 C208 1.383 . S
C214 C213 1.379 . S
H215 C209 0.953 1_565 S
H216 C209 0.939 1_565 S
H217 C209 0.974 . S
H218 C210 0.930 . S
H219 C211 0.929 . S
H220 C228 0.929 . S
H221 C230 0.930 . S
H222 C232 0.930 . S
H223 C235 0.929 . S
H224 C238 0.930 . S
H225 C240 0.960 . S
H226 C240 0.960 . S
H227 C240 0.960 . S
C228 H220 0.929 . S
C228 C229 1.377 . S
C228 C230 1.384 . S
C229 C228 1.377 . S
C229 C235 1.390 . S
C230 H221 0.930 . S
C230 C228 1.384 . S
C230 C231 1.372 . S
C231 C230 1.372 . S
C231 C232 1.400 . S
C231 C236 1.490 . S
C232 H222 0.930 . S
C232 C231 1.400 . S
C232 C235 1.386 . S
H233 C249 0.930 . S
H234 C250 0.931 . S
C235 H223 0.929 . S
C235 C229 1.390 . S
C235 C232 1.386 . S
C236 C231 1.490 . S
C236 C238 1.395 . S
C236 C239 1.403 . S
H237 C243 0.930 . S
C238 H224 0.930 . S
C238 C236 1.395 . S
C238 C241 1.403 . S
C239 C236 1.403 . S
C239 C240 1.524 . S
C239 C243 1.400 . S
C240 H225 0.960 . S
C240 H226 0.960 . S
C240 H227 0.960 . S
C240 C239 1.524 . S
C241 C238 1.403 . S
C241 C242 1.392 . S
C241 C245 1.495 . S
C242 C241 1.392 . S
C242 C243 1.385 . S
C242 C244 1.478 . S
C243 H237 0.930 . S
C243 C239 1.400 . S
C243 C242 1.385 . S
C244 C242 1.478 . S
C244 C246 1.381 . S
C244 C250 1.383 . S
C245 C241 1.495 . S
C245 H251 0.959 . S
C245 H252 0.961 . S
C245 H253 0.960 . S
C246 C244 1.381 . S
C246 C247 1.394 . S
C246 H254 0.930 . S
C247 C246 1.394 . S
C247 C248 1.383 . S
C247 H255 0.929 . S
C248 C247 1.383 . S
C248 C249 1.377 . S
C249 H233 0.930 . S
C249 C248 1.377 . S
C249 C250 1.379 . S
C250 H234 0.931 . S
C250 C244 1.383 . S
C250 C249 1.379 . S
H251 C245 0.959 . S
H252 C245 0.961 . S
H253 C245 0.960 . S
H254 C246 0.930 . S
H255 C247 0.929 . S
H256 C264 0.929 . S
H257 C266 0.930 . S
H258 C268 0.930 . S
H259 C271 0.929 . S
H260 C274 0.930 . S
H261 C276 0.960 . S
H262 C276 0.960 . S
H263 C276 0.960 . S
C264 H256 0.929 . S
C264 C265 1.377 . S
C264 C266 1.384 . S
C265 C264 1.377 . S
C265 C271 1.390 . S
C266 H257 0.930 . S
C266 C264 1.384 . S
C266 C267 1.372 . S
C267 C266 1.372 . S
C267 C268 1.400 . S
C267 C272 1.490 . S
C268 H258 0.930 . S
C268 C267 1.400 . S
C268 C271 1.386 . S
H269 C285 0.930 . S
H270 C286 0.931 . S
C271 H259 0.929 . S
C271 C265 1.390 . S
C271 C268 1.386 . S
C272 C267 1.490 . S
C272 C274 1.395 . S
C272 C275 1.403 . S
H273 C279 0.930 . S
C274 H260 0.930 . S
C274 C272 1.395 . S
C274 C277 1.403 . S
C275 C272 1.403 . S
C275 C276 1.524 . S
C275 C279 1.400 . S
C276 H261 0.960 . S
C276 H262 0.960 . S
C276 H263 0.960 . S
C276 C275 1.524 . S
C277 C274 1.403 . S
C277 C278 1.392 . S
C277 C281 1.495 . S
C278 C277 1.392 . S
C278 C279 1.385 . S
C278 C280 1.478 . S
C279 H273 0.930 . S
C279 C275 1.400 . S
C279 C278 1.385 . S
C280 C278 1.478 . S
C280 C282 1.381 . S
C280 C286 1.383 . S
C281 C277 1.495 . S
C281 H287 0.959 . S
C281 H288 0.961 . S
C281 H289 0.960 . S
C282 C280 1.381 . S
C282 C283 1.394 . S
C282 H290 0.930 . S
C283 C282 1.394 . S
C283 C284 1.383 . S
C283 H291 0.929 . S
C284 C283 1.383 . S
C284 C285 1.377 . S
C285 H269 0.930 . S
C285 C284 1.377 . S
C285 C286 1.379 . S
C286 H270 0.931 . S
C286 C280 1.383 . S
C286 C285 1.379 . S
H287 C281 0.959 . S
H288 C281 0.961 . S
H289 C281 0.960 . S
H290 C282 0.930 . S
H291 C283 0.929 . S
H292 C300 0.929 . S
H293 C302 0.930 . S
H294 C304 0.930 . S
H295 C307 0.929 . S
H296 C310 0.930 . S
H297 C312 0.960 . S
H298 C312 0.960 1_655 S
H299 C312 0.960 . S
C300 H292 0.929 . S
C300 C301 1.383 . S
C300 C302 1.384 . S
C301 C300 1.383 . S
C301 C307 1.384 1_655 S
C302 H293 0.930 . S
C302 C300 1.384 . S
C302 C303 1.372 . S
C303 C302 1.372 . S
C303 C304 1.400 1_655 S
C303 C308 1.490 . S
C304 H294 0.930 . S
C304 C303 1.400 1_455 S
C304 C307 1.386 . S
H305 C321 0.930 . S
H306 C322 0.931 . S
C307 H295 0.929 . S
C307 C301 1.384 1_455 S
C307 C304 1.386 . S
C308 C303 1.490 . S
C308 C310 1.395 . S
C308 C311 1.403 1_655 S
H309 C315 0.930 . S
C310 H296 0.930 . S
C310 C308 1.395 . S
C310 C313 1.403 . S
C311 C308 1.403 1_455 S
C311 C312 1.524 . S
C311 C315 1.400 . S
C312 H297 0.960 . S
C312 H298 0.960 1_455 S
C312 H299 0.960 . S
C312 C311 1.524 . S
C313 C310 1.403 . S
C313 C314 1.392 . S
C313 C317 1.495 . S
C314 C313 1.392 . S
C314 C315 1.385 1_655 S
C314 C316 1.478 . S
C315 H309 0.930 . S
C315 C311 1.400 . S
C315 C314 1.385 1_455 S
C316 C314 1.478 . S
C316 C318 1.381 . S
C316 C322 1.383 1_655 S
C317 C313 1.495 . S
C317 H323 0.959 . S
C317 H324 0.982 . S
C317 H325 0.960 . S
C318 C316 1.381 . S
C318 C319 1.394 . S
C318 H326 0.930 . S
C319 C318 1.394 . S
C319 C320 1.383 . S
C319 H327 0.929 . S
C320 C319 1.383 . S
C320 C321 1.377 1_655 S
C321 H305 0.930 . S
C321 C320 1.377 1_455 S
C321 C322 1.379 . S
C322 H306 0.931 . S
C322 C316 1.383 1_455 S
C322 C321 1.379 . S
H323 C317 0.959 . S
H324 C317 0.982 . S
H325 C317 0.960 . S
H326 C318 0.930 . S
H327 C319 0.929 . S
H328 C336 0.929 1_554 S
H329 C338 0.930 . S
H330 C340 0.930 . S
H331 C343 0.929 . S
H332 C346 0.930 . S
H333 C348 0.960 1_545 S
H334 C348 0.960 1_545 S
H335 C348 0.960 . S
C336 H328 0.929 1_556 S
C336 C337 1.377 . S
C336 C338 1.384 . S
C337 C336 1.377 . S
C337 C343 1.390 . S
C338 H329 0.930 . S
C338 C336 1.384 . S
C338 C339 1.372 . S
C339 C338 1.372 . S
C339 C340 1.400 . S
C339 C344 1.490 . S
C340 H330 0.930 . S
C340 C339 1.400 . S
C340 C343 1.386 . S
H341 C357 0.930 . S
H342 C358 0.931 . S
C343 H331 0.929 . S
C343 C337 1.390 . S
C343 C340 1.386 . S
C344 C339 1.490 . S
C344 C346 1.395 . S
C344 C347 1.403 . S
H345 C351 0.930 . S
C346 H332 0.930 . S
C346 C344 1.395 . S
C346 C349 1.403 . S
C347 C344 1.403 . S
C347 C348 1.524 . S
C347 C351 1.400 . S
C348 H333 0.960 1_565 S
C348 H334 0.960 1_565 S
C348 H335 0.960 . S
C348 C347 1.524 . S
C349 C346 1.403 . S
C349 C350 1.392 . S
C349 C353 1.495 . S
C350 C349 1.392 . S
C350 C351 1.385 . S
C350 C352 1.478 . S
C351 H345 0.930 . S
C351 C347 1.400 . S
C351 C350 1.385 . S
C352 C350 1.478 . S
C352 C354 1.381 . S
C352 C358 1.383 . S
C353 C349 1.495 . S
C353 H359 0.959 . S
C353 H360 0.961 . S
C353 H361 0.960 . S
C354 C352 1.381 . S
C354 C355 1.394 . S
C354 H362 0.930 . S
C355 C354 1.394 . S
C355 C356 1.383 . S
C355 H363 0.929 1_565 S
C356 C355 1.383 . S
C356 C357 1.377 . S
C357 H341 0.930 . S
C357 C356 1.377 . S
C357 C358 1.379 . S
C358 H342 0.931 . S
C358 C352 1.383 . S
C358 C357 1.379 . S
H359 C353 0.959 . S
H360 C353 0.961 . S
H361 C353 0.960 . S
H362 C354 0.930 . S
H363 C355 0.929 1_545 S
H364 C372 0.929 . S
H365 C374 0.930 . S
H366 C376 0.930 . S
H367 C379 0.929 . S
H368 C382 0.930 . S
H369 C384 0.960 . S
H370 C384 0.960 . S
H371 C384 0.960 . S
C372 H364 0.929 . S
C372 C373 1.377 . S
C372 C374 1.384 . S
C373 C372 1.377 . S
C373 C379 1.390 1_554 S
C374 H365 0.930 . S
C374 C372 1.384 . S
C374 C375 1.372 1_554 S
C375 C374 1.372 1_556 S
C375 C376 1.400 . S
C375 C380 1.490 . S
C376 H366 0.930 . S
C376 C375 1.400 . S
C376 C379 1.386 . S
H377 C393 0.930 . S
H378 C394 0.931 . S
C379 H367 0.929 . S
C379 C373 1.390 1_556 S
C379 C376 1.386 . S
C380 C375 1.490 . S
C380 C382 1.395 . S
C380 C383 1.403 . S
H381 C387 0.930 . S
C382 H368 0.930 . S
C382 C380 1.395 . S
C382 C385 1.403 . S
C383 C380 1.403 . S
C383 C384 1.524 . S
C383 C387 1.400 . S
C384 H369 0.960 . S
C384 H370 0.960 . S
C384 H371 0.960 . S
C384 C383 1.524 . S
C385 C382 1.403 . S
C385 C386 1.392 . S
C385 C389 1.495 . S
C386 C385 1.392 . S
C386 C387 1.385 . S
C386 C388 1.478 . S
C387 H381 0.930 . S
C387 C383 1.400 . S
C387 C386 1.385 . S
C388 C386 1.478 . S
C388 C390 1.381 . S
C388 C394 1.383 . S
C389 C385 1.495 . S
C389 H395 0.959 . S
C389 H396 0.961 . S
C389 H397 0.960 . S
C390 C388 1.381 . S
C390 C391 1.394 . S
C390 H398 0.930 . S
C391 C390 1.394 . S
C391 C392 1.383 . S
C391 H399 0.929 . S
C392 C391 1.383 . S
C392 C393 1.377 . S
C393 H377 0.930 . S
C393 C392 1.377 . S
C393 C394 1.379 . S
C394 H378 0.931 . S
C394 C388 1.383 . S
C394 C393 1.379 . S
H395 C389 0.959 . S
H396 C389 0.961 . S
H397 C389 0.960 . S
H398 C390 0.930 . S
H399 C391 0.929 . S
H400 C408 0.929 . S
H401 C410 0.930 . S
H402 C412 0.930 . S
H403 C415 0.929 . S
H404 C418 0.930 . S
H405 C420 0.960 . S
H406 C420 0.960 . S
H407 C420 0.960 . S
C408 H400 0.929 . S
C408 C409 1.377 . S
C408 C410 1.384 . S
C409 C408 1.377 . S
C409 C415 1.390 1_556 S
C410 H401 0.930 . S
C410 C408 1.384 . S
C410 C411 1.372 . S
C411 C410 1.372 . S
C411 C412 1.400 . S
C411 C416 1.490 . S
C412 H402 0.930 . S
C412 C411 1.400 . S
C412 C415 1.386 1_556 S
H413 C429 0.930 . S
H414 C430 0.931 . S
C415 H403 0.929 . S
C415 C409 1.390 1_554 S
C415 C412 1.386 1_554 S
C416 C411 1.490 . S
C416 C418 1.395 . S
C416 C419 1.403 . S
H417 C423 0.930 . S
C418 H404 0.930 . S
C418 C416 1.395 . S
C418 C421 1.403 . S
C419 C416 1.403 . S
C419 C420 1.524 . S
C419 C423 1.400 . S
C420 H405 0.960 . S
C420 H406 0.960 . S
C420 H407 0.960 . S
C420 C419 1.524 . S
C421 C418 1.403 . S
C421 C422 1.392 . S
C421 C425 1.495 . S
C422 C421 1.392 . S
C422 C423 1.385 . S
C422 C424 1.478 . S
C423 H417 0.930 . S
C423 C419 1.400 . S
C423 C422 1.385 . S
C424 C422 1.478 . S
C424 C426 1.381 . S
C424 C430 1.383 . S
C425 C421 1.495 . S
C425 H431 0.959 . S
C425 H432 0.961 . S
C425 H433 0.960 . S
C426 C424 1.381 . S
C426 C427 1.394 . S
C426 H434 0.930 . S
C427 C426 1.394 . S
C427 C428 1.383 . S
C427 H435 0.929 . S
C428 C427 1.383 . S
C428 C429 1.377 . S
C429 H413 0.930 . S
C429 C428 1.377 . S
C429 C430 1.379 . S
C430 H414 0.931 . S
C430 C424 1.383 . S
C430 C429 1.379 . S
H431 C425 0.959 . S
H432 C425 0.961 . S
H433 C425 0.960 . S
H434 C426 0.930 . S
H435 C427 0.929 . S
H436 C444 0.929 1_554 S
H437 C446 0.930 . S
H438 C448 0.930 . S
H439 C451 0.929 . S
H440 C454 0.930 . S
H441 C456 0.960 . S
H442 C456 0.960 . S
H443 C456 0.960 . S
C444 H436 0.929 1_556 S
C444 C445 1.378 . S
C444 C446 1.384 . S
C445 C444 1.378 . S
C445 C451 1.389 1_655 S
C446 H437 0.930 . S
C446 C444 1.384 . S
C446 C447 1.403 . S
C447 C446 1.403 . S
C447 C448 1.371 1_655 S
C447 C452 1.489 . S
C448 H438 0.930 . S
C448 C447 1.371 1_455 S
C448 C451 1.386 . S
H449 C465 0.930 . S
H450 C466 0.931 . S
C451 H439 0.929 . S
C451 C445 1.389 1_455 S
C451 C448 1.386 . S
C452 C447 1.489 . S
C452 C454 1.395 . S
C452 C455 1.403 1_655 S
H453 C459 0.930 . S
C454 H440 0.930 . S
C454 C452 1.395 . S
C454 C457 1.403 . S
C455 C452 1.403 1_455 S
C455 C456 1.524 . S
C455 C459 1.400 . S
C456 H441 0.960 . S
C456 H442 0.960 . S
C456 H443 0.960 . S
C456 C455 1.524 . S
C457 C454 1.403 . S
C457 C458 1.392 . S
C457 C461 1.495 . S
C458 C457 1.392 . S
C458 C459 1.385 1_655 S
C458 C460 1.478 . S
C459 H453 0.930 . S
C459 C455 1.400 . S
C459 C458 1.385 1_455 S
C460 C458 1.478 . S
C460 C462 1.381 . S
C460 C466 1.383 1_655 S
C461 C457 1.495 . S
C461 H467 0.959 . S
C461 H468 0.961 . S
C461 H469 0.960 . S
C462 C460 1.381 . S
C462 C463 1.394 . S
C462 H470 0.930 . S
C463 C462 1.394 . S
C463 C464 1.385 . S
C463 H471 0.929 . S
C464 C463 1.385 . S
C464 C465 1.375 1_655 S
C465 H449 0.930 . S
C465 C464 1.375 1_455 S
C465 C466 1.379 . S
C466 H450 0.931 . S
C466 C460 1.383 1_455 S
C466 C465 1.379 . S
H467 C461 0.959 . S
H468 C461 0.961 . S
H469 C461 0.960 . S
H470 C462 0.930 . S
H471 C463 0.929 . S
H472 C480 0.929 . S
H473 C482 0.930 . S
H474 C484 0.930 . S
H475 C487 0.929 . S
H476 C490 0.930 . S
H477 C492 0.960 . S
H478 C492 0.960 . S
H479 C492 0.960 . S
C480 H472 0.929 . S
C480 C481 1.375 1_655 S
C480 C482 1.384 . S
C481 C480 1.375 1_455 S
C481 C487 1.393 . S
C482 H473 0.930 . S
C482 C480 1.384 . S
C482 C483 1.372 . S
C483 C482 1.372 . S
C483 C484 1.400 1_655 S
C483 C488 1.490 . S
C484 H474 0.930 . S
C484 C483 1.400 1_455 S
C484 C487 1.386 . S
H485 C501 0.930 . S
H486 C502 0.931 . S
C487 H475 0.929 . S
C487 C481 1.393 . S
C487 C484 1.386 . S
C488 C483 1.490 . S
C488 C490 1.395 . S
C488 C491 1.403 1_655 S
H489 C495 0.930 . S
C490 H476 0.930 . S
C490 C488 1.395 . S
C490 C493 1.403 . S
C491 C488 1.403 1_455 S
C491 C492 1.524 . S
C491 C495 1.400 . S
C492 H477 0.960 . S
C492 H478 0.960 . S
C492 H479 0.960 . S
C492 C491 1.524 . S
C493 C490 1.403 . S
C493 C494 1.392 . S
C493 C497 1.495 . S
C494 C493 1.392 . S
C494 C495 1.385 1_655 S
C494 C496 1.478 . S
C495 H489 0.930 . S
C495 C491 1.400 . S
C495 C494 1.385 1_455 S
C496 C494 1.478 . S
C496 C498 1.381 . S
C496 C502 1.383 . S
C497 C493 1.495 . S
C497 H503 0.959 . S
C497 H504 0.961 . S
C497 H505 0.960 . S
C498 C496 1.381 . S
C498 C499 1.394 . S
C498 H506 0.930 . S
C499 C498 1.394 . S
C499 C500 1.383 . S
C499 H507 0.929 . S
C500 C499 1.383 . S
C500 C501 1.377 . S
C501 H485 0.930 . S
C501 C500 1.377 . S
C501 C502 1.379 . S
C502 H486 0.931 . S
C502 C496 1.383 . S
C502 C501 1.379 . S
H503 C497 0.959 . S
H504 C497 0.961 . S
H505 C497 0.960 . S
H506 C498 0.930 . S
H507 C499 0.929 . S
H508 C516 0.929 . S
H509 C518 0.930 . S
H510 C520 0.930 . S
H511 C523 0.929 . S
H512 C526 0.930 . S
H513 C528 0.960 . S
H514 C528 0.960 . S
H515 C528 0.960 1_545 S
C516 H508 0.929 . S
C516 C517 1.377 . S
C516 C518 1.384 . S
C517 C516 1.377 . S
C517 C523 1.390 . S
C518 H509 0.930 . S
C518 C516 1.384 . S
C518 C519 1.372 . S
C519 C518 1.372 . S
C519 C520 1.400 . S
C519 C524 1.490 . S
C520 H510 0.930 . S
C520 C519 1.400 . S
C520 C523 1.386 . S
H521 C537 0.930 . S
H522 C538 0.931 . S
C523 H511 0.929 . S
C523 C517 1.390 . S
C523 C520 1.386 . S
C524 C519 1.490 . S
C524 C526 1.395 . S
C524 C527 1.403 . S
H525 C531 0.879 1_565 S
C526 H512 0.930 . S
C526 C524 1.395 . S
C526 C529 1.403 . S
C527 C524 1.403 . S
C527 C528 1.524 1_545 S
C527 C531 1.400 . S
C528 H513 0.960 . S
C528 H514 0.960 . S
C528 H515 0.960 1_565 S
C528 C527 1.524 1_565 S
C529 C526 1.403 . S
C529 C530 1.392 . S
C529 C533 1.495 . S
C530 C529 1.392 . S
C530 C531 1.385 . S
C530 C532 1.478 . S
C531 H525 0.879 1_545 S
C531 C527 1.400 . S
C531 C530 1.385 . S
C532 C530 1.478 . S
C532 C534 1.381 . S
C532 C538 1.383 . S
C533 C529 1.495 . S
C533 H539 0.959 . S
C533 H540 0.961 . S
C533 H541 0.960 . S
C534 C532 1.381 . S
C534 C535 1.394 . S
C534 H542 0.930 . S
C535 C534 1.394 . S
C535 C536 1.383 . S
C535 H543 0.929 . S
C536 C535 1.383 . S
C536 C537 1.377 . S
C537 H521 0.930 . S
C537 C536 1.377 . S
C537 C538 1.379 . S
C538 H522 0.931 . S
C538 C532 1.383 . S
C538 C537 1.379 . S
H539 C533 0.959 . S
H540 C533 0.961 . S
H541 C533 0.960 . S
H542 C534 0.930 . S
H543 C535 0.929 . S
H544 C552 0.929 . S
H545 C554 0.930 . S
H546 C556 0.930 . S
H547 C559 0.929 . S
H548 C562 0.930 . S
H549 C564 0.960 . S
H550 C564 0.960 . S
H551 C564 0.960 . S
C552 H544 0.929 . S
C552 C553 1.377 . S
C552 C554 1.384 . S
C553 C552 1.377 . S
C553 C559 1.390 . S
C554 H545 0.930 . S
C554 C552 1.384 . S
C554 C555 1.372 . S
C555 C554 1.372 . S
C555 C556 1.400 . S
C555 C560 1.490 . S
C556 H546 0.930 . S
C556 C555 1.400 . S
C556 C559 1.386 . S
H557 C573 0.930 . S
H558 C574 0.931 . S
C559 H547 0.929 . S
C559 C553 1.390 . S
C559 C556 1.386 . S
C560 C555 1.490 . S
C560 C562 1.395 . S
C560 C563 1.403 . S
H561 C567 0.930 . S
C562 H548 0.930 . S
C562 C560 1.395 . S
C562 C565 1.403 . S
C563 C560 1.403 . S
C563 C564 1.524 . S
C563 C567 1.400 . S
C564 H549 0.960 . S
C564 H550 0.960 . S
C564 H551 0.960 . S
C564 C563 1.524 . S
C565 C562 1.403 . S
C565 C566 1.392 . S
C565 C569 1.495 . S
C566 C565 1.392 . S
C566 C567 1.385 . S
C566 C568 1.478 . S
C567 H561 0.930 . S
C567 C563 1.400 . S
C567 C566 1.385 . S
C568 C566 1.478 . S
C568 C570 1.381 . S
C568 C574 1.383 . S
C569 C565 1.495 . S
C569 H575 0.959 . S
C569 H576 0.961 . S
C569 H577 0.960 . S
C570 C568 1.381 . S
C570 C571 1.394 . S
C570 H578 0.930 . S
C571 C570 1.394 . S
C571 C572 1.383 . S
C571 H579 0.929 . S
C572 C571 1.383 . S
C572 C573 1.377 . S
C573 H557 0.930 . S
C573 C572 1.377 . S
C573 C574 1.379 . S
C574 H558 0.931 . S
C574 C568 1.383 . S
C574 C573 1.379 . S
H575 C569 0.959 . S
H576 C569 0.961 . S
H577 C569 0.960 . S
H578 C570 0.930 . S
H579 C571 0.929 . S
H580 C588 0.929 . S
H581 C590 0.930 . S
H582 C592 0.930 . S
H583 C595 0.929 . S
H584 C598 0.930 . S
H585 C600 0.960 . S
H586 C600 0.960 . S
H587 C600 0.960 . S
C588 H580 0.929 . S
C588 C589 1.377 . S
C588 C590 1.384 . S
C589 C588 1.377 . S
C589 C595 1.390 . S
C590 H581 0.930 . S
C590 C588 1.384 . S
C590 C591 1.372 . S
C591 C590 1.372 . S
C591 C592 1.400 . S
C591 C596 1.490 . S
C592 H582 0.930 . S
C592 C591 1.400 . S
C592 C595 1.386 . S
H593 C609 0.930 . S
H594 C610 0.931 . S
C595 H583 0.929 . S
C595 C589 1.390 . S
C595 C592 1.386 . S
C596 C591 1.490 . S
C596 C598 1.395 . S
C596 C599 1.403 . S
H597 C603 0.930 . S
C598 H584 0.930 . S
C598 C596 1.395 . S
C598 C601 1.403 . S
C599 C596 1.403 . S
C599 C600 1.524 . S
C599 C603 1.400 . S
C600 H585 0.960 . S
C600 H586 0.960 . S
C600 H587 0.960 . S
C600 C599 1.524 . S
C601 C598 1.403 . S
C601 C602 1.392 . S
C601 C605 1.495 . S
C602 C601 1.392 . S
C602 C603 1.385 . S
C602 C604 1.478 . S
C603 H597 0.930 . S
C603 C599 1.400 . S
C603 C602 1.385 . S
C604 C602 1.478 . S
C604 C606 1.381 . S
C604 C610 1.383 . S
C605 C601 1.495 . S
C605 H611 0.959 . S
C605 H612 0.961 . S
C605 H613 0.960 . S
C606 C604 1.381 . S
C606 C607 1.394 . S
C606 H614 0.930 . S
C607 C606 1.394 . S
C607 C608 1.383 . S
C607 H615 0.929 . S
C608 C607 1.383 . S
C608 C609 1.377 . S
C609 H593 0.930 . S
C609 C608 1.377 . S
C609 C610 1.379 . S
C610 H594 0.931 . S
C610 C604 1.383 . S
C610 C609 1.379 . S
H611 C605 0.959 . S
H612 C605 0.961 . S
H613 C605 0.960 . S
H614 C606 0.930 . S
H615 C607 0.929 . S
H616 C624 0.929 1_554 S
H617 C626 0.930 . S
H618 C628 0.930 . S
H619 C631 0.929 . S
H620 C634 0.930 . S
H621 C636 0.960 . S
H622 C636 0.960 . S
H623 C636 0.960 . S
C624 H616 0.929 1_556 S
C624 C625 1.377 1_455 S
C624 C626 1.384 . S
C625 C624 1.377 1_655 S
C625 C631 1.391 . S
C626 H617 0.930 . S
C626 C624 1.384 . S
C626 C627 1.372 . S
C627 C626 1.372 . S
C627 C628 1.400 1_455 S
C627 C632 1.490 . S
C628 H618 0.930 . S
C628 C627 1.400 1_655 S
C628 C631 1.386 . S
H629 C645 0.930 . S
H630 C646 0.931 . S
C631 H619 0.929 . S
C631 C625 1.391 . S
C631 C628 1.386 . S
C632 C627 1.490 . S
C632 C634 1.395 . S
C632 C635 1.403 1_455 S
H633 C639 0.930 . S
C634 H620 0.930 . S
C634 C632 1.395 . S
C634 C637 1.403 . S
C635 C632 1.403 1_655 S
C635 C636 1.524 . S
C635 C639 1.400 . S
C636 H621 0.960 . S
C636 H622 0.960 . S
C636 H623 0.960 . S
C636 C635 1.524 . S
C637 C634 1.403 . S
C637 C638 1.392 . S
C637 C641 1.495 . S
C638 C637 1.392 . S
C638 C639 1.385 1_455 S
C638 C640 1.478 . S
C639 H633 0.930 . S
C639 C635 1.400 . S
C639 C638 1.385 1_655 S
C640 C638 1.478 . S
C640 C642 1.381 . S
C640 C646 1.383 1_455 S
C641 C637 1.495 . S
C641 H647 0.959 . S
C641 H648 0.961 . S
C641 H649 0.960 . S
C642 C640 1.381 . S
C642 C643 1.394 . S
C642 H650 0.930 . S
C643 C642 1.394 . S
C643 C644 1.383 . S
C643 H651 0.929 . S
C644 C643 1.383 . S
C644 C645 1.377 1_455 S
C645 H629 0.930 . S
C645 C644 1.377 1_655 S
C645 C646 1.379 . S
C646 H630 0.931 . S
C646 C640 1.383 1_655 S
C646 C645 1.379 . S
H647 C641 0.959 . S
H648 C641 0.961 . S
H649 C641 0.960 . S
H650 C642 0.930 . S
H651 C643 0.929 . S
H652 C660 0.929 1_554 S
H653 C662 0.930 . S
H654 C664 0.930 . S
H655 C667 0.929 . S
H656 C670 0.930 . S
H657 C672 0.960 . S
H658 C672 0.960 . S
H659 C672 0.960 . S
C660 H652 0.929 1_556 S
C660 C661 1.377 . S
C660 C662 1.384 . S
C661 C660 1.377 . S
C661 C667 1.390 . S
C662 H653 0.930 . S
C662 C660 1.384 . S
C662 C663 1.372 . S
C663 C662 1.372 . S
C663 C664 1.400 . S
C663 C668 1.490 . S
C664 H654 0.930 . S
C664 C663 1.400 . S
C664 C667 1.386 . S
H665 C681 0.930 . S
H666 C682 0.931 . S
C667 H655 0.929 . S
C667 C661 1.390 . S
C667 C664 1.386 . S
C668 C663 1.490 . S
C668 C670 1.395 . S
C668 C671 1.403 . S
H669 C675 0.930 . S
C670 H656 0.930 . S
C670 C668 1.395 . S
C670 C673 1.403 . S
C671 C668 1.403 . S
C671 C672 1.524 . S
C671 C675 1.400 . S
C672 H657 0.960 . S
C672 H658 0.960 . S
C672 H659 0.960 . S
C672 C671 1.524 . S
C673 C670 1.403 . S
C673 C674 1.392 . S
C673 C677 1.495 1_565 S
C674 C673 1.392 . S
C674 C675 1.385 . S
C674 C676 1.478 . S
C675 H669 0.930 . S
C675 C671 1.400 . S
C675 C674 1.385 . S
C676 C674 1.478 . S
C676 C678 1.381 1_565 S
C676 C682 1.383 . S
C677 C673 1.495 1_545 S
C677 H683 0.959 . S
C677 H684 0.961 . S
C677 H685 0.960 . S
C678 C676 1.381 1_545 S
C678 C679 1.394 . S
C678 H686 0.930 . S
C679 C678 1.394 . S
C679 C680 1.383 1_545 S
C679 H687 0.929 . S
C680 C679 1.383 1_565 S
C680 C681 1.377 . S
C681 H665 0.930 . S
C681 C680 1.377 . S
C681 C682 1.379 . S
C682 H666 0.931 . S
C682 C676 1.383 . S
C682 C681 1.379 . S
H683 C677 0.959 . S
H684 C677 0.961 . S
H685 C677 0.960 . S
H686 C678 0.930 . S
H687 C679 0.929 . S
H688 C696 0.929 . S
H689 C698 0.930 . S
H690 C700 0.930 . S
H691 C703 0.929 . S
H692 C706 0.930 . S
H693 C708 0.960 . S
H694 C708 0.960 . S
H695 C708 0.960 1_554 S
C696 H688 0.929 . S
C696 C697 1.377 1_556 S
C696 C698 1.384 . S
C697 C696 1.377 1_554 S
C697 C703 1.390 . S
C698 H689 0.930 . S
C698 C696 1.384 . S
C698 C699 1.372 . S
C699 C698 1.372 . S
C699 C700 1.400 1_556 S
C699 C704 1.490 . S
C700 H690 0.930 . S
C700 C699 1.400 1_554 S
C700 C703 1.386 . S
H701 C717 0.930 . S
H702 C718 0.931 . S
C703 H691 0.929 . S
C703 C697 1.390 . S
C703 C700 1.386 . S
C704 C699 1.490 . S
C704 C706 1.395 . S
C704 C707 1.403 . S
H705 C711 0.930 . S
C706 H692 0.930 . S
C706 C704 1.395 . S
C706 C709 1.403 . S
C707 C704 1.403 . S
C707 C708 1.524 . S
C707 C711 1.400 . S
C708 H693 0.960 . S
C708 H694 0.960 . S
C708 H695 0.960 1_556 S
C708 C707 1.524 . S
C709 C706 1.403 . S
C709 C710 1.392 . S
C709 C713 1.495 . S
C710 C709 1.392 . S
C710 C711 1.385 . S
C710 C712 1.478 . S
C711 H705 0.930 . S
C711 C707 1.400 . S
C711 C710 1.385 . S
C712 C710 1.478 . S
C712 C714 1.381 . S
C712 C718 1.383 . S
C713 C709 1.495 . S
C713 H719 0.959 . S
C713 H720 0.961 . S
C713 H721 0.960 . S
C714 C712 1.381 . S
C714 C715 1.394 . S
C714 H722 0.930 . S
C715 C714 1.394 . S
C715 C716 1.383 . S
C715 H723 0.929 . S
C716 C715 1.383 . S
C716 C717 1.377 . S
C717 H701 0.930 . S
C717 C716 1.377 . S
C717 C718 1.379 . S
C718 H702 0.931 . S
C718 C712 1.383 . S
C718 C717 1.379 . S
H719 C713 0.959 . S
H720 C713 0.961 . S
H721 C713 0.960 . S
H722 C714 0.930 . S
H723 C715 0.929 . S
H724 C732 0.929 . S
H725 C734 0.930 1_554 S
H726 C736 0.930 . S
H727 C739 0.929 . S
H728 C742 0.930 . S
H729 C744 0.960 . S
H730 C744 0.960 . S
H731 C744 0.960 . S
C732 H724 0.929 . S
C732 C733 1.377 1_554 S
C732 C734 1.384 1_554 S
C733 C732 1.377 1_556 S
C733 C739 1.390 . S
C734 H725 0.930 1_556 S
C734 C732 1.384 1_556 S
C734 C735 1.372 . S
C735 C734 1.372 . S
C735 C736 1.400 . S
C735 C740 1.490 . S
C736 H726 0.930 . S
C736 C735 1.400 . S
C736 C739 1.386 . S
H737 C753 0.930 . S
H738 C754 0.931 . S
C739 H727 0.929 . S
C739 C733 1.390 . S
C739 C736 1.386 . S
C740 C735 1.490 . S
C740 C742 1.395 . S
C740 C743 1.403 . S
H741 C747 0.930 . S
C742 H728 0.930 . S
C742 C740 1.395 . S
C742 C745 1.403 . S
C743 C740 1.403 . S
C743 C744 1.524 . S
C743 C747 1.400 . S
C744 H729 0.960 . S
C744 H730 0.960 . S
C744 H731 0.960 . S
C744 C743 1.524 . S
C745 C742 1.403 . S
C745 C746 1.392 . S
C745 C749 1.495 . S
C746 C745 1.392 . S
C746 C747 1.385 . S
C746 C748 1.478 . S
C747 H741 0.930 . S
C747 C743 1.400 . S
C747 C746 1.385 . S
C748 C746 1.478 . S
C748 C750 1.381 . S
C748 C754 1.383 . S
C749 C745 1.495 . S
C749 H755 0.959 . S
C749 H756 0.961 . S
C749 H757 0.960 . S
C750 C748 1.381 . S
C750 C751 1.394 . S
C750 H758 0.930 . S
C751 C750 1.394 . S
C751 C752 1.383 . S
C751 H759 0.929 . S
C752 C751 1.383 . S
C752 C753 1.377 . S
C753 H737 0.930 . S
C753 C752 1.377 . S
C753 C754 1.379 . S
C754 H738 0.931 . S
C754 C748 1.383 . S
C754 C753 1.379 . S
H755 C749 0.959 . S
H756 C749 0.961 . S
H757 C749 0.960 . S
H758 C750 0.930 . S
H759 C751 0.929 . S
H760 C768 0.929 . S
H761 C770 0.930 . S
H762 C772 0.930 . S
H763 C775 0.929 1_554 S
H764 C778 0.930 . S
H765 C780 0.960 . S
H766 C780 0.960 . S
H767 C780 0.960 . S
C768 H760 0.929 . S
C768 C769 1.404 . S
C768 C770 1.384 . S
C769 C768 1.404 . S
C769 C775 1.366 1_455 S
C770 H761 0.930 . S
C770 C768 1.384 . S
C770 C771 1.372 . S
C771 C770 1.372 . S
C771 C772 1.400 1_455 S
C771 C776 1.490 . S
C772 H762 0.930 . S
C772 C771 1.400 1_655 S
C772 C775 1.386 . S
H773 C789 0.930 . S
H774 C790 0.931 . S
C775 H763 0.929 1_556 S
C775 C769 1.366 1_655 S
C775 C772 1.386 . S
C776 C771 1.490 . S
C776 C778 1.395 . S
C776 C779 1.403 1_455 S
H777 C783 0.930 . S
C778 H764 0.930 . S
C778 C776 1.395 . S
C778 C781 1.403 . S
C779 C776 1.403 1_655 S
C779 C780 1.524 . S
C779 C783 1.400 . S
C780 H765 0.960 . S
C780 H766 0.960 . S
C780 H767 0.960 . S
C780 C779 1.524 . S
C781 C778 1.403 . S
C781 C782 1.392 . S
C781 C785 1.495 . S
C782 C781 1.392 . S
C782 C783 1.385 1_455 S
C782 C784 1.478 . S
C783 H777 0.930 . S
C783 C779 1.400 . S
C783 C782 1.385 1_655 S
C784 C782 1.478 . S
C784 C786 1.381 . S
C784 C790 1.383 1_455 S
C785 C781 1.495 . S
C785 H791 0.959 . S
C785 H792 0.961 . S
C785 H793 0.960 . S
C786 C784 1.381 . S
C786 C787 1.394 . S
C786 H794 0.930 . S
C787 C786 1.394 . S
C787 C788 1.383 . S
C787 H795 0.929 . S
C788 C787 1.383 . S
C788 C789 1.377 1_455 S
C789 H773 0.930 . S
C789 C788 1.377 1_655 S
C789 C790 1.379 . S
C790 H774 0.931 . S
C790 C784 1.383 1_655 S
C790 C789 1.379 . S
H791 C785 0.959 . S
H792 C785 0.961 . S
H793 C785 0.960 . S
H794 C786 0.930 . S
H795 C787 0.929 . S
H796 C804 0.929 . S
H797 C806 0.930 . S
H798 C808 0.930 . S
H799 C811 0.929 . S
H800 C814 0.930 . S
H801 C816 0.960 . S
H802 C816 0.960 . S
H803 C816 0.960 . S
C804 H796 0.929 . S
C804 C805 1.377 . S
C804 C806 1.384 . S
C805 C804 1.377 . S
C805 C811 1.390 1_554 S
C806 H797 0.930 . S
C806 C804 1.384 . S
C806 C807 1.372 1_554 S
C807 C806 1.372 1_556 S
C807 C808 1.400 . S
C807 C812 1.490 . S
C808 H798 0.930 . S
C808 C807 1.400 . S
C808 C811 1.386 . S
H809 C825 0.930 1_565 S
H810 C826 0.931 . S
C811 H799 0.929 . S
C811 C805 1.390 1_556 S
C811 C808 1.386 . S
C812 C807 1.490 . S
C812 C814 1.395 . S
C812 C815 1.403 . S
H813 C819 0.930 . S
C814 H800 0.930 . S
C814 C812 1.395 . S
C814 C817 1.403 . S
C815 C812 1.403 . S
C815 C816 1.524 . S
C815 C819 1.400 . S
C816 H801 0.960 . S
C816 H802 0.960 . S
C816 H803 0.960 . S
C816 C815 1.524 . S
C817 C814 1.403 . S
C817 C818 1.392 . S
C817 C821 1.495 . S
C818 C817 1.392 . S
C818 C819 1.385 . S
C818 C820 1.478 . S
C819 H813 0.930 . S
C819 C815 1.400 . S
C819 C818 1.385 . S
C820 C818 1.478 . S
C820 C822 1.381 . S
C820 C826 1.383 . S
C821 C817 1.495 . S
C821 H827 0.954 1_545 S
C821 H828 0.961 1_545 S
C821 H829 0.960 . S
C822 C820 1.381 . S
C822 C823 1.394 . S
C822 H830 0.930 . S
C823 C822 1.394 . S
C823 C824 1.383 . S
C823 H831 0.929 . S
C824 C823 1.383 . S
C824 C825 1.377 . S
C825 H809 0.930 1_545 S
C825 C824 1.377 . S
C825 C826 1.379 . S
C826 H810 0.931 . S
C826 C820 1.383 . S
C826 C825 1.379 . S
H827 C821 0.954 1_565 S
H828 C821 0.961 1_565 S
H829 C821 0.960 . S
H830 C822 0.930 . S
H831 C823 0.929 . S
H832 C840 0.929 . S
H833 C842 0.930 . S
H834 C844 0.930 . S
H835 C847 0.929 . S
H836 C850 0.930 . S
H837 C852 0.960 . S
H838 C852 0.960 . S
H839 C852 0.960 . S
C840 H832 0.929 . S
C840 C841 1.377 . S
C840 C842 1.384 . S
C841 C840 1.377 . S
C841 C847 1.390 . S
C842 H833 0.930 . S
C842 C840 1.384 . S
C842 C843 1.372 . S
C843 C842 1.372 . S
C843 C844 1.400 . S
C843 C848 1.490 . S
C844 H834 0.930 . S
C844 C843 1.400 . S
C844 C847 1.386 . S
H845 C861 0.930 . S
H846 C862 0.931 . S
C847 H835 0.929 . S
C847 C841 1.390 . S
C847 C844 1.386 . S
C848 C843 1.490 . S
C848 C850 1.395 . S
C848 C851 1.403 . S
H849 C855 0.930 . S
C850 H836 0.930 . S
C850 C848 1.395 . S
C850 C853 1.403 . S
C851 C848 1.403 . S
C851 C852 1.524 . S
C851 C855 1.400 . S
C852 H837 0.960 . S
C852 H838 0.960 . S
C852 H839 0.960 . S
C852 C851 1.524 . S
C853 C850 1.403 . S
C853 C854 1.392 . S
C853 C857 1.495 . S
C854 C853 1.392 . S
C854 C855 1.385 . S
C854 C856 1.478 . S
C855 H849 0.930 . S
C855 C851 1.400 . S
C855 C854 1.385 . S
C856 C854 1.478 . S
C856 C858 1.381 . S
C856 C862 1.383 . S
C857 C853 1.495 . S
C857 H863 0.959 . S
C857 H864 0.961 . S
C857 H865 0.960 . S
C858 C856 1.381 . S
C858 C859 1.394 . S
C858 H866 0.930 . S
C859 C858 1.394 . S
C859 C860 1.383 . S
C859 H867 0.929 . S
C860 C859 1.383 . S
C860 C861 1.377 . S
C861 H845 0.930 . S
C861 C860 1.377 . S
C861 C862 1.379 . S
C862 H846 0.931 . S
C862 C856 1.383 . S
C862 C861 1.379 . S
H863 C857 0.959 . S
H864 C857 0.961 . S
H865 C857 0.960 . S
H866 C858 0.930 . S
H867 C859 0.929 . S
H868 C876 0.929 . S
H869 C878 0.930 . S
H870 C880 0.930 . S
H871 C883 0.929 . S
H872 C886 0.930 . S
H873 C888 0.960 . S
H874 C888 0.960 . S
H875 C888 0.960 . S
C876 H868 0.929 . S
C876 C877 1.377 . S
C876 C878 1.384 . S
C877 C876 1.377 . S
C877 C883 1.390 . S
C878 H869 0.930 . S
C878 C876 1.384 . S
C878 C879 1.372 . S
C879 C878 1.372 . S
C879 C880 1.400 . S
C879 C884 1.490 . S
C880 H870 0.930 . S
C880 C879 1.400 . S
C880 C883 1.386 . S
H881 C897 0.930 . S
H882 C898 0.931 . S
C883 H871 0.929 . S
C883 C877 1.390 . S
C883 C880 1.386 . S
C884 C879 1.490 . S
C884 C886 1.395 . S
C884 C887 1.403 . S
H885 C891 0.930 . S
C886 H872 0.930 . S
C886 C884 1.395 . S
C886 C889 1.403 . S
C887 C884 1.403 . S
C887 C888 1.524 . S
C887 C891 1.400 . S
C888 H873 0.960 . S
C888 H874 0.960 . S
C888 H875 0.960 . S
C888 C887 1.524 . S
C889 C886 1.403 . S
C889 C890 1.392 . S
C889 C893 1.495 . S
C890 C889 1.392 . S
C890 C891 1.385 . S
C890 C892 1.478 . S
C891 H885 0.930 . S
C891 C887 1.400 . S
C891 C890 1.385 . S
C892 C890 1.478 . S
C892 C894 1.381 . S
C892 C898 1.383 . S
C893 C889 1.495 . S
C893 H899 0.959 . S
C893 H900 0.961 . S
C893 H901 0.960 . S
C894 C892 1.381 . S
C894 C895 1.394 . S
C894 H902 0.930 . S
C895 C894 1.394 . S
C895 C896 1.383 . S
C895 H903 0.929 . S
C896 C895 1.383 . S
C896 C897 1.377 . S
C897 H881 0.930 . S
C897 C896 1.377 . S
C897 C898 1.379 . S
C898 H882 0.931 . S
C898 C892 1.383 . S
C898 C897 1.379 . S
H899 C893 0.959 . S
H900 C893 0.961 . S
H901 C893 0.960 . S
H902 C894 0.930 . S
H903 C895 0.929 . S
H904 C912 0.929 . S
H905 C914 0.930 . S
H906 C916 0.930 . S
H907 C919 0.929 . S
H908 C922 0.930 . S
H909 C924 0.960 . S
H910 C924 0.960 . S
H911 C924 0.960 . S
C912 H904 0.929 . S
C912 C913 1.392 . S
C912 C914 1.384 . S
C913 C912 1.392 . S
C913 C919 1.377 1_655 S
C914 H905 0.930 . S
C914 C912 1.384 . S
C914 C915 1.372 . S
C915 C914 1.372 . S
C915 C916 1.400 1_655 S
C915 C920 1.490 . S
C916 H906 0.930 . S
C916 C915 1.400 1_455 S
C916 C919 1.386 . S
H917 C933 0.930 . S
H918 C934 0.931 . S
C919 H907 0.929 . S
C919 C913 1.377 1_455 S
C919 C916 1.386 . S
C920 C915 1.490 . S
C920 C922 1.395 . S
C920 C923 1.403 1_655 S
H921 C927 0.930 . S
C922 H908 0.930 . S
C922 C920 1.395 . S
C922 C925 1.403 . S
C923 C920 1.403 1_455 S
C923 C924 1.524 . S
C923 C927 1.400 . S
C924 H909 0.960 . S
C924 H910 0.960 . S
C924 H911 0.960 . S
C924 C923 1.524 . S
C925 C922 1.403 . S
C925 C926 1.392 . S
C925 C929 1.495 . S
C926 C925 1.392 . S
C926 C927 1.385 1_655 S
C926 C928 1.478 . S
C927 H921 0.930 . S
C927 C923 1.400 . S
C927 C926 1.385 1_455 S
C928 C926 1.478 . S
C928 C930 1.381 . S
C928 C934 1.383 1_655 S
C929 C925 1.495 . S
C929 H935 0.959 . S
C929 H936 0.961 . S
C929 H937 0.960 . S
C930 C928 1.381 . S
C930 C931 1.394 . S
C930 H938 0.930 . S
C931 C930 1.394 . S
C931 C932 1.383 . S
C931 H939 0.929 . S
C932 C931 1.383 . S
C932 C933 1.377 1_655 S
C933 H917 0.930 . S
C933 C932 1.377 1_455 S
C933 C934 1.379 . S
C934 H918 0.931 . S
C934 C928 1.383 1_455 S
C934 C933 1.379 . S
H935 C929 0.959 . S
H936 C929 0.961 . S
H937 C929 0.960 . S
H938 C930 0.930 . S
H939 C931 0.929 . S
H940 C948 0.929 . S
H941 C950 0.930 . S
H942 C952 0.930 . S
H943 C955 0.929 . S
H944 C958 0.930 . S
H945 C960 0.960 . S
H946 C960 0.960 . S
H947 C960 0.960 . S
C948 H940 0.929 . S
C948 C949 1.377 . S
C948 C950 1.384 . S
C949 C948 1.377 . S
C949 C955 1.390 . S
C950 H941 0.930 . S
C950 C948 1.384 . S
C950 C951 1.372 . S
C951 C950 1.372 . S
C951 C952 1.400 . S
C951 C956 1.490 . S
C952 H942 0.930 . S
C952 C951 1.400 . S
C952 C955 1.386 . S
H953 C969 0.930 1_545 S
H954 C970 0.931 . S
C955 H943 0.929 . S
C955 C949 1.390 . S
C955 C952 1.386 . S
C956 C951 1.490 . S
C956 C958 1.395 . S
C956 C959 1.403 . S
H957 C963 0.930 . S
C958 H944 0.930 . S
C958 C956 1.395 . S
C958 C961 1.403 . S
C959 C956 1.403 . S
C959 C960 1.524 . S
C959 C963 1.400 . S
C960 H945 0.960 . S
C960 H946 0.960 . S
C960 H947 0.960 . S
C960 C959 1.524 . S
C961 C958 1.403 . S
C961 C962 1.392 . S
C961 C965 1.495 . S
C962 C961 1.392 . S
C962 C963 1.385 . S
C962 C964 1.478 . S
C963 H957 0.930 . S
C963 C959 1.400 . S
C963 C962 1.385 . S
C964 C962 1.478 . S
C964 C966 1.381 . S
C964 C970 1.383 . S
C965 C961 1.495 . S
C965 H971 0.959 1_565 S
C965 H972 0.961 1_565 S
C965 H973 0.960 . S
C966 C964 1.381 . S
C966 C967 1.394 . S
C966 H974 0.930 . S
C967 C966 1.394 . S
C967 C968 1.383 . S
C967 H975 0.929 . S
C968 C967 1.383 . S
C968 C969 1.377 . S
C969 H953 0.930 1_565 S
C969 C968 1.377 . S
C969 C970 1.379 . S
C970 H954 0.931 . S
C970 C964 1.383 . S
C970 C969 1.379 . S
H971 C965 0.959 1_545 S
H972 C965 0.961 1_545 S
H973 C965 0.960 . S
H974 C966 0.930 . S
H975 C967 0.929 . S
H976 C984 0.929 . S
H977 C986 0.930 . S
H978 C988 0.930 . S
H979 C991 0.929 . S
H980 C994 0.930 . S
H981 C996 0.960 . S
H982 C996 0.960 . S
H983 C996 0.960 . S
C984 H976 0.929 . S
C984 C985 1.377 . S
C984 C986 1.384 . S
C985 C984 1.377 . S
C985 C991 1.390 . S
C986 H977 0.930 . S
C986 C984 1.384 . S
C986 C987 1.372 . S
C987 C986 1.372 . S
C987 C988 1.400 . S
C987 C992 1.490 . S
C988 H978 0.930 . S
C988 C987 1.400 . S
C988 C991 1.386 . S
H989 C1005 0.930 . S
H990 C1006 0.931 . S
C991 H979 0.929 . S
C991 C985 1.390 . S
C991 C988 1.386 . S
C992 C987 1.490 . S
C992 C994 1.395 . S
C992 C995 1.403 . S
H993 C999 0.930 . S
C994 H980 0.930 . S
C994 C992 1.395 . S
C994 C997 1.403 . S
C995 C992 1.403 . S
C995 C996 1.524 . S
C995 C999 1.400 . S
C996 H981 0.960 . S
C996 H982 0.960 . S
C996 H983 0.960 . S
C996 C995 1.524 . S
C997 C994 1.403 . S
C997 C998 1.392 . S
C997 C1001 1.495 . S
C998 C997 1.392 . S
C998 C999 1.385 . S
C998 C1000 1.478 . S
C999 H993 0.930 . S
C999 C995 1.400 . S
C999 C998 1.385 . S
C1000 C998 1.478 . S
C1000 C1002 1.381 . S
C1000 C1006 1.383 . S
C1001 C997 1.495 . S
C1001 H1007 0.959 . S
C1001 H1008 0.961 . S
C1001 H1009 0.960 . S
C1002 C1000 1.381 . S
C1002 C1003 1.394 . S
C1002 H1010 0.930 . S
C1003 C1002 1.394 . S
C1003 C1004 1.383 . S
C1003 H1011 0.929 . S
C1004 C1003 1.383 . S
C1004 C1005 1.377 . S
C1005 H989 0.930 . S
C1005 C1004 1.377 . S
C1005 C1006 1.379 . S
C1006 H990 0.931 . S
C1006 C1000 1.383 . S
C1006 C1005 1.379 . S
H1007 C1001 0.959 . S
H1008 C1001 0.961 . S
H1009 C1001 0.960 . S
H1010 C1002 0.930 . S
H1011 C1003 0.929 . S
H1012 C1020 0.929 . S
H1013 C1022 0.930 . S
H1014 C1024 0.930 . S
H1015 C1027 0.929 . S
H1016 C1030 0.930 . S
H1017 C1032 0.960 . S
H1018 C1032 0.960 . S
H1019 C1032 0.960 . S
C1020 H1012 0.929 . S
C1020 C1021 1.377 . S
C1020 C1022 1.384 . S
C1021 C1020 1.377 . S
C1021 C1027 1.390 . S
C1022 H1013 0.930 . S
C1022 C1020 1.384 . S
C1022 C1023 1.372 . S
C1023 C1022 1.372 . S
C1023 C1024 1.400 . S
C1023 C1028 1.490 . S
C1024 H1014 0.930 . S
C1024 C1023 1.400 . S
C1024 C1027 1.386 . S
H1025 C1041 0.930 . S
H1026 C1042 0.931 . S
C1027 H1015 0.929 . S
C1027 C1021 1.390 . S
C1027 C1024 1.386 . S
C1028 C1023 1.490 . S
C1028 C1030 1.395 . S
C1028 C1031 1.403 . S
H1029 C1035 0.930 . S
C1030 H1016 0.930 . S
C1030 C1028 1.395 . S
C1030 C1033 1.403 . S
C1031 C1028 1.403 . S
C1031 C1032 1.524 . S
C1031 C1035 1.400 . S
C1032 H1017 0.960 . S
C1032 H1018 0.960 . S
C1032 H1019 0.960 . S
C1032 C1031 1.524 . S
C1033 C1030 1.403 . S
C1033 C1034 1.392 . S
C1033 C1037 1.495 . S
C1034 C1033 1.392 . S
C1034 C1035 1.385 . S
C1034 C1036 1.478 . S
C1035 H1029 0.930 . S
C1035 C1031 1.400 . S
C1035 C1034 1.385 . S
C1036 C1034 1.478 . S
C1036 C1038 1.381 . S
C1036 C1042 1.383 . S
C1037 C1033 1.495 . S
C1037 H1043 0.959 . S
C1037 H1044 0.961 . S
C1037 H1045 0.960 . S
C1038 C1036 1.381 . S
C1038 C1039 1.394 . S
C1038 H1046 0.930 . S
C1039 C1038 1.394 . S
C1039 C1040 1.383 . S
C1039 H1047 0.929 . S
C1040 C1039 1.383 . S
C1040 C1041 1.377 . S
C1041 H1025 0.930 . S
C1041 C1040 1.377 . S
C1041 C1042 1.379 . S
C1042 H1026 0.931 . S
C1042 C1036 1.383 . S
C1042 C1041 1.379 . S
H1043 C1037 0.959 . S
H1044 C1037 0.961 . S
H1045 C1037 0.960 . S
H1046 C1038 0.930 . S
H1047 C1039 0.929 . S
C193 C82 1.615 . S
C212 C112 1.703 . S
C248 C142 1.828 . S
C229 C95 1.687 . S
C284 C152 1.433 . S
C265 C56 1.312 . S
C320 C172 1.268 . S
C301 C69 1.194 1_655 S
C356 C113 1.716 . S
C337 C30 1.568 . S
C373 C43 1.647 . S
C392 C143 1.815 . S
C409 C4 1.308 1_556 S
C428 C153 1.421 . S
C445 C17 1.197 1_655 S
C464 C173 1.286 1_655 S
C500 C105 0.697 . S
C481 C74 0.696 . S
C536 C126 0.347 . S
C517 C87 0.407 . S
C572 C145 0.857 . S
C553 C100 0.875 . S
C589 C61 0.556 . S
C608 C165 0.534 . S
C625 C22 0.679 1_655 S
C644 C106 0.704 . S
C680 C125 0.239 . S
C661 C35 0.413 . S
C716 C146 0.886 . S
C697 C48 0.871 . S
C733 C9 0.567 1_556 S
C752 C166 0.539 . S
C769 C73 1.491 1_556 S
C788 C123 1.551 . S
C805 C86 1.314 . S
C824 C133 1.377 . S
C860 C163 1.773 . S
C841 C99 1.687 . S
C896 C183 1.787 . S
C877 C60 1.705 1_556 S
C913 C21 1.478 1_655 S
C932 C122 1.560 . S
C968 C132 1.387 . S
C949 C34 1.313 . S
C1004 C162 1.758 . S
C985 C47 1.693 . S
C1021 C8 1.708 . S
C1040 C182 1.798 . S
