# Generated by pormake.
# Topology wbl, (4,4)-cn, num edge types: 1
# Building blocks:
#     Node 0, Type 0, BuildingBlock: MUDLON_clean_linker_0, # of connection points: 4
#     Node 1, Type 0, BuildingBlock: MUDLON_clean_linker_0, # of connection points: 4
#     Node 2, Type 0, BuildingBlock: MUDLON_clean_linker_0, # of connection points: 4
#     Node 3, Type 0, BuildingBlock: MUDLON_clean_linker_0, # of connection points: 4
#     Node 4, Type 0, BuildingBlock: MUDLON_clean_linker_0, # of connection points: 4
#     Node 5, Type 0, BuildingBlock: MUDLON_clean_linker_0, # of connection points: 4
#     Node 6, Type 0, BuildingBlock: MUDLON_clean_linker_0, # of connection points: 4
#     Node 7, Type 0, BuildingBlock: MUDLON_clean_linker_0, # of connection points: 4
#     Node 8, Type 1, BuildingBlock: QUQFOY_clean_sbu_1, # of connection points: 4
#     Node 9, Type 1, BuildingBlock: QUQFOY_clean_sbu_1, # of connection points: 4
#     Node 10, Type 1, BuildingBlock: QUQFOY_clean_sbu_1, # of connection points: 4
#     Node 11, Type 1, BuildingBlock: QUQFOY_clean_sbu_1, # of connection points: 4
#     Node 12, Type 1, BuildingBlock: QUQFOY_clean_sbu_1, # of connection points: 4
#     Node 13, Type 1, BuildingBlock: QUQFOY_clean_sbu_1, # of connection points: 4
#     Node 14, Type 1, BuildingBlock: QUQFOY_clean_sbu_1, # of connection points: 4
#     Node 15, Type 1, BuildingBlock: QUQFOY_clean_sbu_1, # of connection points: 4
#     Edge 16, Type (0, 1), BuildingBlock: KIFKEQ_clean_linker_1, # of connection points: 2
#     Edge 17, Type (0, 1), BuildingBlock: KIFKEQ_clean_linker_1, # of connection points: 2
#     Edge 18, Type (0, 1), BuildingBlock: KIFKEQ_clean_linker_1, # of connection points: 2
#     Edge 19, Type (0, 1), BuildingBlock: KIFKEQ_clean_linker_1, # of connection points: 2
#     Edge 20, Type (0, 1), BuildingBlock: KIFKEQ_clean_linker_1, # of connection points: 2
#     Edge 21, Type (0, 1), BuildingBlock: KIFKEQ_clean_linker_1, # of connection points: 2
#     Edge 22, Type (0, 1), BuildingBlock: KIFKEQ_clean_linker_1, # of connection points: 2
#     Edge 23, Type (0, 1), BuildingBlock: KIFKEQ_clean_linker_1, # of connection points: 2
#     Edge 24, Type (0, 1), BuildingBlock: KIFKEQ_clean_linker_1, # of connection points: 2
#     Edge 25, Type (0, 1), BuildingBlock: KIFKEQ_clean_linker_1, # of connection points: 2
#     Edge 26, Type (0, 1), BuildingBlock: KIFKEQ_clean_linker_1, # of connection points: 2
#     Edge 27, Type (0, 1), BuildingBlock: KIFKEQ_clean_linker_1, # of connection points: 2
#     Edge 28, Type (0, 1), BuildingBlock: KIFKEQ_clean_linker_1, # of connection points: 2
#     Edge 29, Type (0, 1), BuildingBlock: KIFKEQ_clean_linker_1, # of connection points: 2
#     Edge 30, Type (0, 1), BuildingBlock: KIFKEQ_clean_linker_1, # of connection points: 2
#     Edge 31, Type (0, 1), BuildingBlock: KIFKEQ_clean_linker_1, # of connection points: 2
#     Edge 32, Type (0, 1), BuildingBlock: KIFKEQ_clean_linker_1, # of connection points: 2
#     Edge 33, Type (0, 1), BuildingBlock: KIFKEQ_clean_linker_1, # of connection points: 2
#     Edge 34, Type (0, 1), BuildingBlock: KIFKEQ_clean_linker_1, # of connection points: 2
#     Edge 35, Type (0, 1), BuildingBlock: KIFKEQ_clean_linker_1, # of connection points: 2
#     Edge 36, Type (0, 1), BuildingBlock: KIFKEQ_clean_linker_1, # of connection points: 2
#     Edge 37, Type (0, 1), BuildingBlock: KIFKEQ_clean_linker_1, # of connection points: 2
#     Edge 38, Type (0, 1), BuildingBlock: KIFKEQ_clean_linker_1, # of connection points: 2
#     Edge 39, Type (0, 1), BuildingBlock: KIFKEQ_clean_linker_1, # of connection points: 2
#     Edge 40, Type (0, 1), BuildingBlock: KIFKEQ_clean_linker_1, # of connection points: 2
#     Edge 41, Type (0, 1), BuildingBlock: KIFKEQ_clean_linker_1, # of connection points: 2
#     Edge 42, Type (0, 1), BuildingBlock: KIFKEQ_clean_linker_1, # of connection points: 2
#     Edge 43, Type (0, 1), BuildingBlock: KIFKEQ_clean_linker_1, # of connection points: 2
#     Edge 44, Type (0, 1), BuildingBlock: KIFKEQ_clean_linker_1, # of connection points: 2
#     Edge 45, Type (0, 1), BuildingBlock: KIFKEQ_clean_linker_1, # of connection points: 2
#     Edge 46, Type (0, 1), BuildingBlock: KIFKEQ_clean_linker_1, # of connection points: 2
#     Edge 47, Type (0, 1), BuildingBlock: KIFKEQ_clean_linker_1, # of connection points: 2
# Relax obj value: 0.142
# Max RMSD: 0.210
# Mean RMSD: 0.162
data_MOF--net-wbl--node1-QUQFOY_clean_sbu_1--node2-MUDLON_clean_linker_0--edge1-KIFKEQ_clean_linker_1
_symmetry_space_group_name_H-M    P1
_symmetry_Int_Tables_number       1
_symmetry_cell_setting            triclinic
loop_
_symmetry_equiv_pos_as_xyz
'x, y, z'
_cell_length_a     54.289876
_cell_length_b     54.287571
_cell_length_c     79.928238
_cell_angle_alpha  93.498123
_cell_angle_beta   93.485077
_cell_angle_gamma 90.12018
loop_
_atom_site_label
_atom_site_type_symbol
_atom_site_fract_x
_atom_site_fract_y
_atom_site_fract_z
_atom_type_partial_charge
H0 H 0.19763 0.98533 0.35431 0.0
N1 N 0.15468 0.97103 0.33666 0.0
H2 H 0.20719 0.98231 0.38425 0.0
H3 H 0.12434 0.95725 0.35938 0.0
H4 H 0.13308 0.95565 0.38966 0.0
H5 H 0.17704 0.92781 0.34061 0.0
H6 H 0.21138 0.91048 0.32623 0.0
H7 H 0.17532 0.98929 0.30865 0.0
H8 H 0.20861 0.97099 0.29338 0.0
H9 H 0.17631 0.01677 0.33779 0.0
H10 H 0.10781 0.97735 0.32657 0.0
H11 H 0.15483 0.05598 0.33507 0.0
H12 H 0.08591 0.01638 0.32438 0.0
H13 H 0.06998 0.17486 0.35026 0.0
H14 H 0.06027 0.19028 0.37847 0.0
H15 H 0.03412 0.11742 0.38822 0.0
H16 H 0.04609 0.10201 0.36085 0.0
H17 H 0.02007 0.10171 0.33732 0.0
H18 H 0.98001 0.10982 0.32401 0.0
H19 H 0.01208 0.16773 0.29723 0.0
H20 H 0.05195 0.16087 0.31211 0.0
H21 H 0.10401 0.11794 0.35348 0.0
H22 H 0.12766 0.08015 0.35118 0.0
H23 H 0.07835 0.05281 0.30973 0.0
N24 N 0.06212 0.12957 0.33599 0.0
H25 H 0.0542 0.09007 0.3123 0.0
C26 C 0.16035 0.97101 0.35457 0.0
C27 C 0.18346 0.97882 0.36196 0.0
C28 C 0.1888 0.97731 0.37917 0.0
C29 C 0.17098 0.96857 0.3895 0.0
C30 C 0.14751 0.96186 0.38213 0.0
C31 C 0.14236 0.96293 0.36484 0.0
C32 C 0.17405 0.96064 0.32656 0.0
C33 C 0.18396 0.93762 0.33045 0.0
C34 C 0.20351 0.92743 0.32193 0.0
C35 C 0.21319 0.9393 0.30859 0.0
C36 C 0.20229 0.96161 0.30391 0.0
C37 C 0.183 0.97217 0.31275 0.0
C38 C 0.1436 0.9941 0.33225 0.0
C39 C 0.15668 0.01657 0.33448 0.0
C40 C 0.14429 0.03899 0.33309 0.0
C41 C 0.11853 0.03943 0.3297 0.0
C42 C 0.10576 0.01684 0.32678 0.0
C43 C 0.11821 0.99447 0.32803 0.0
C44 C 0.05847 0.13746 0.35331 0.0
C45 C 0.06261 0.16223 0.35869 0.0
C46 C 0.05671 0.17104 0.37477 0.0
C47 C 0.04601 0.15528 0.38573 0.0
C48 C 0.0426 0.13021 0.38041 0.0
C49 C 0.04906 0.12135 0.36452 0.0
C50 C 0.03905 0.13112 0.32602 0.0
C51 C 0.01853 0.11632 0.32874 0.0
C52 C 0.99552 0.12074 0.32078 0.0
C53 C 0.99246 0.13964 0.30953 0.0
C54 C 0.0134 0.15346 0.30612 0.0
C55 C 0.03634 0.14937 0.31442 0.0
C56 C 0.07609 0.10675 0.33392 0.0
C57 C 0.09789 0.10371 0.34405 0.0
C58 C 0.11176 0.08214 0.34253 0.0
C59 C 0.10475 0.06317 0.33041 0.0
C60 C 0.08387 0.0667 0.31955 0.0
C61 C 0.06986 0.08822 0.32115 0.0
H62 H 0.01675 0.47774 0.59977 0.0
N63 N 0.0049 0.51227 0.57856 0.0
H64 H 0.99864 0.4708 0.62636 0.0
H65 H 0.97118 0.54198 0.5942 0.0
H66 H 0.954 0.53605 0.62101 0.0
H67 H 0.95657 0.49595 0.57611 0.0
H68 H 0.93968 0.46443 0.55647 0.0
H69 H 0.02306 0.49762 0.54922 0.0
H70 H 0.00487 0.46797 0.52797 0.0
H71 H 0.05284 0.52201 0.58044 0.0
H72 H 0.98207 0.55423 0.56863 0.0
H73 H 0.07301 0.56155 0.57764 0.0
H74 H 0.00145 0.59466 0.56776 0.0
H75 H 0.1192 0.67447 0.60489 0.0
H76 H 0.12436 0.68586 0.63467 0.0
H77 H 0.05053 0.71521 0.63376 0.0
H78 H 0.04503 0.70309 0.60353 0.0
H79 H 0.07281 0.7225 0.56891 0.0
H80 H 0.10517 0.74528 0.55625 0.0
H81 H 0.15577 0.68542 0.56452 0.0
H82 H 0.12296 0.66218 0.57645 0.0
H83 H 0.0975 0.63826 0.59658 0.0
H84 H 0.08015 0.59746 0.59261 0.0
H85 H 0.02493 0.62355 0.55658 0.0
N86 N 0.07761 0.68067 0.58413 0.0
H87 H 0.04131 0.66543 0.56206 0.0
C88 C 0.99574 0.5105 0.59505 0.0
C89 C 0.00329 0.49067 0.60449 0.0
C90 C 0.99294 0.48682 0.61972 0.0
C91 C 0.97481 0.50288 0.62589 0.0
C92 C 0.96765 0.52311 0.61657 0.0
C93 C 0.97785 0.5268 0.60127 0.0
C94 C 0.99167 0.49882 0.56459 0.0
C95 C 0.96739 0.49018 0.56566 0.0
C96 C 0.95742 0.47207 0.55405 0.0
C97 C 0.97101 0.46267 0.5406 0.0
C98 C 0.99411 0.4736 0.53847 0.0
C99 C 0.00446 0.49105 0.55049 0.0
C100 C 0.01602 0.53546 0.57533 0.0
C101 C 0.04168 0.53783 0.5774 0.0
C102 C 0.05309 0.5606 0.576 0.0
C103 C 0.03895 0.58182 0.57303 0.0
C104 C 0.01317 0.57898 0.57005 0.0
C105 C 0.00188 0.55591 0.57088 0.0
C106 C 0.08147 0.68765 0.60185 0.0
C107 C 0.10392 0.68316 0.6109 0.0
C108 C 0.1069 0.68963 0.62803 0.0
C109 C 0.08776 0.70115 0.63649 0.0
C110 C 0.06552 0.70625 0.62748 0.0
C111 C 0.06237 0.69933 0.6103 0.0
C112 C 0.0955 0.69091 0.57385 0.0
C113 C 0.09063 0.71397 0.56747 0.0
C114 C 0.1091 0.72691 0.56026 0.0
C115 C 0.13296 0.71713 0.55956 0.0
C116 C 0.13752 0.69336 0.56502 0.0
C117 C 0.1188 0.68014 0.57187 0.0
C118 C 0.07026 0.65533 0.57998 0.0
C119 C 0.08162 0.6355 0.58789 0.0
C120 C 0.07176 0.61173 0.58533 0.0
C121 C 0.0508 0.60684 0.57433 0.0
C122 C 0.04057 0.62649 0.56553 0.0
C123 C 0.05009 0.65045 0.56847 0.0
H124 H 0.60407 0.52973 0.85806 0.0
N125 N 0.5897 0.50686 0.82886 0.0
H126 H 0.61413 0.51125 0.88475 0.0
H127 H 0.58511 0.45802 0.83477 0.0
H128 H 0.596 0.4391 0.86124 0.0
H129 H 0.58159 0.469 0.80471 0.0
H130 H 0.61137 0.45293 0.78521 0.0
H131 H 0.63294 0.52623 0.82338 0.0
H132 H 0.66326 0.50985 0.80444 0.0
H133 H 0.57465 0.55319 0.8294 0.0
H134 H 0.54868 0.47827 0.82068 0.0
H135 H 0.53226 0.56796 0.82772 0.0
H136 H 0.50629 0.49276 0.81765 0.0
H137 H 0.45138 0.59885 0.853 0.0
H138 H 0.44759 0.61535 0.88175 0.0
H139 H 0.38161 0.57147 0.88473 0.0
H140 H 0.38514 0.55575 0.85561 0.0
H141 H 0.38336 0.55396 0.81133 0.0
H142 H 0.3539 0.58032 0.79664 0.0
H143 H 0.39232 0.64483 0.81971 0.0
H144 H 0.42256 0.61846 0.83299 0.0
H145 H 0.45453 0.5917 0.81848 0.0
H146 H 0.49528 0.5756 0.81294 0.0
H147 H 0.47676 0.50773 0.83512 0.0
N148 N 0.41852 0.56814 0.83456 0.0
H149 H 0.4356 0.52348 0.83956 0.0
C150 C 0.59414 0.49529 0.84447 0.0
C151 C 0.60211 0.50996 0.85877 0.0
C152 C 0.60801 0.49931 0.87394 0.0
C153 C 0.60625 0.4736 0.8751 0.0
C154 C 0.59747 0.45895 0.86083 0.0
C155 C 0.59138 0.46971 0.84564 0.0
C156 C 0.60504 0.49898 0.81549 0.0
C157 C 0.59908 0.47841 0.80444 0.0
C158 C 0.6163 0.46907 0.79336 0.0
C159 C 0.63987 0.47995 0.79325 0.0
C160 C 0.64524 0.50117 0.80388 0.0
C161 C 0.62798 0.51054 0.81481 0.0
C162 C 0.56487 0.51477 0.82497 0.0
C163 C 0.55975 0.54002 0.82653 0.0
C164 C 0.53543 0.5484 0.82545 0.0
C165 C 0.51559 0.53161 0.82259 0.0
C166 C 0.52095 0.50628 0.82018 0.0
C167 C 0.5453 0.4979 0.82159 0.0
C168 C 0.41839 0.57609 0.85213 0.0
C169 C 0.43625 0.59258 0.85988 0.0
C170 C 0.43412 0.60191 0.8764 0.0
C171 C 0.41421 0.59486 0.88556 0.0
C172 C 0.39693 0.57765 0.87795 0.0
C173 C 0.39899 0.56846 0.86139 0.0
C174 C 0.40482 0.58406 0.82356 0.0
C175 C 0.38577 0.5738 0.81275 0.0
C176 C 0.36873 0.58898 0.80457 0.0
C177 C 0.3701 0.61486 0.80735 0.0
C178 C 0.39046 0.62509 0.81716 0.0
C179 C 0.40779 0.60989 0.825 0.0
C180 C 0.44184 0.55864 0.82935 0.0
C181 C 0.45899 0.57314 0.82176 0.0
C182 C 0.48251 0.56394 0.81877 0.0
C183 C 0.4896 0.54032 0.82365 0.0
C184 C 0.47205 0.52575 0.83083 0.0
C185 C 0.44848 0.53477 0.83351 0.0
H186 H 0.52269 0.93957 0.10752 0.0
N187 N 0.50494 0.98285 0.09577 0.0
H188 H 0.51877 0.92556 0.13573 0.0
H189 H 0.49092 0.00958 0.12257 0.0
H190 H 0.48726 0.99572 0.151 0.0
H191 H 0.45766 0.97002 0.09449 0.0
H192 H 0.43846 0.9332 0.08044 0.0
H193 H 0.52541 0.95271 0.07075 0.0
H194 H 0.50602 0.91696 0.05609 0.0
H195 H 0.55235 0.96556 0.0952 0.0
H196 H 0.50646 0.02826 0.08534 0.0
H197 H 0.58794 0.98718 0.08622 0.0
H198 H 0.54241 0.0512 0.07779 0.0
H199 H 0.70163 0.08528 0.07884 0.0
H200 H 0.72022 0.10386 0.10528 0.0
H201 H 0.64727 0.11624 0.12306 0.0
H202 H 0.62911 0.09937 0.09628 0.0
H203 H 0.62784 0.12339 0.07034 0.0
H204 H 0.63395 0.15776 0.05286 0.0
H205 H 0.68276 0.11287 0.0231 0.0
H206 H 0.67734 0.07883 0.04131 0.0
H207 H 0.65221 0.04059 0.08758 0.0
H208 H 0.61655 0.01655 0.09358 0.0
H209 H 0.57121 0.05793 0.05893 0.0
N210 N 0.65378 0.08018 0.06959 0.0
H211 H 0.60642 0.08325 0.0541 0.0
C212 C 0.50685 0.97564 0.11291 0.0
C213 C 0.5154 0.95215 0.11699 0.0
C214 C 0.513 0.94409 0.13308 0.0
C215 C 0.50246 0.95948 0.14546 0.0
C216 C 0.4955 0.98352 0.14169 0.0
C217 C 0.49757 0.99146 0.12551 0.0
C218 C 0.49315 0.96423 0.08415 0.0
C219 C 0.46818 0.95875 0.08587 0.0
C220 C 0.4572 0.93765 0.07774 0.0
C221 C 0.47082 0.92169 0.06734 0.0
C222 C 0.49519 0.92832 0.06445 0.0
C223 C 0.50634 0.94916 0.07286 0.0
C224 C 0.52658 0.9952 0.09066 0.0
C225 C 0.54997 0.98412 0.09119 0.0
C226 C 0.57048 0.99674 0.0862 0.0
C227 C 0.56837 0.02118 0.08124 0.0
C228 C 0.54491 0.03228 0.08105 0.0
C229 C 0.52428 0.01931 0.08554 0.0
C230 C 0.66409 0.09057 0.08562 0.0
C231 C 0.68977 0.09208 0.08849 0.0
C232 C 0.70031 0.10257 0.10367 0.0
C233 C 0.68532 0.11153 0.11645 0.0
C234 C 0.65951 0.11002 0.11349 0.0
C235 C 0.64902 0.10001 0.0982 0.0
C236 C 0.65243 0.09857 0.05724 0.0
C237 C 0.6395 0.12079 0.05988 0.0
C238 C 0.64289 0.14042 0.04973 0.0
C239 C 0.65914 0.13828 0.03665 0.0
C240 C 0.67051 0.11537 0.03326 0.0
C241 C 0.66725 0.0958 0.04352 0.0
C242 C 0.6323 0.06448 0.0709 0.0
C243 C 0.63454 0.04457 0.08131 0.0
C244 C 0.61401 0.03056 0.08458 0.0
C245 C 0.5906 0.03531 0.07694 0.0
C246 C 0.58863 0.05418 0.06558 0.0
C247 C 0.60909 0.06873 0.06268 0.0
H248 H 0.13165 0.61319 0.94328 0.0
N249 N 0.09855 0.62214 0.96606 0.0
H250 H 0.13753 0.6356 0.91804 0.0
H251 H 0.07081 0.66075 0.95506 0.0
H252 H 0.07616 0.68269 0.92977 0.0
H253 H 0.10645 0.6693 0.97912 0.0
H254 H 0.13981 0.68273 0.99935 0.0
H255 H 0.12533 0.59338 0.98583 0.0
H256 H 0.15746 0.60642 0.00722 0.0
H257 H 0.09102 0.57387 0.96176 0.0
H258 H 0.05566 0.64181 0.97675 0.0
H259 H 0.05255 0.55141 0.96371 0.0
H260 H 0.0162 0.6204 0.9766 0.0
H261 H 0.94123 0.49764 0.93903 0.0
H262 H 0.93139 0.48898 0.90929 0.0
H263 H 0.90211 0.56241 0.90544 0.0
H264 H 0.91227 0.57126 0.93567 0.0
H265 H 0.89095 0.54652 0.97149 0.0
H266 H 0.86877 0.51538 0.98576 0.0
H267 H 0.93052 0.46597 0.98136 0.0
H268 H 0.95317 0.49773 0.96782 0.0
H269 H 0.97701 0.52403 0.94463 0.0
H270 H 0.0169 0.54314 0.9491 0.0
H271 H 0.98834 0.59488 0.98645 0.0
N272 N 0.93365 0.54123 0.95737 0.0
H273 H 0.94726 0.57695 0.98035 0.0
C274 C 0.10059 0.63492 0.95091 0.0
C275 C 0.11941 0.62826 0.94031 0.0
C276 C 0.12282 0.64115 0.92601 0.0
C277 C 0.10725 0.66085 0.92197 0.0
C278 C 0.08824 0.6674 0.93251 0.0
C279 C 0.08508 0.65473 0.94695 0.0
C280 C 0.11393 0.63032 0.98063 0.0
C281 C 0.11734 0.65549 0.98533 0.0
C282 C 0.13636 0.66313 0.99711 0.0
C283 C 0.1519 0.64569 0.00471 0.0
C284 C 0.14654 0.62043 0.00123 0.0
C285 C 0.12797 0.61288 0.98915 0.0
C286 C 0.07589 0.60951 0.96847 0.0
C287 C 0.07471 0.58394 0.96524 0.0
C288 C 0.05252 0.57122 0.96616 0.0
C289 C 0.03069 0.584 0.96975 0.0
C290 C 0.03235 0.60966 0.9738 0.0
C291 C 0.05487 0.62218 0.97351 0.0
C292 C 0.92755 0.5353 0.93971 0.0
C293 C 0.93265 0.512 0.93199 0.0
C294 C 0.92721 0.50707 0.91486 0.0
C295 C 0.91624 0.52511 0.90505 0.0
C296 C 0.91061 0.54821 0.91275 0.0
C297 C 0.91641 0.55328 0.92994 0.0
C298 C 0.92343 0.52433 0.96837 0.0
C299 C 0.89998 0.52928 0.9741 0.0
C300 C 0.88739 0.51152 0.98223 0.0
C301 C 0.89794 0.48829 0.98452 0.0
C302 C 0.92202 0.48375 0.97965 0.0
C303 C 0.93489 0.50183 0.97188 0.0
C304 C 0.95865 0.54956 0.96176 0.0
C305 C 0.97901 0.53955 0.9537 0.0
C306 C 0.0023 0.55042 0.95655 0.0
C307 C 0.00623 0.57097 0.96807 0.0
C308 C 0.98614 0.57969 0.97707 0.0
C309 C 0.96262 0.56926 0.97379 0.0
H310 H 0.6219 0.41217 0.19454 0.0
N311 N 0.63171 0.45743 0.21085 0.0
H312 H 0.62899 0.40026 0.16526 0.0
H313 H 0.64754 0.48595 0.18775 0.0
H314 H 0.65399 0.47421 0.15816 0.0
H315 H 0.67855 0.45338 0.22151 0.0
H316 H 0.69751 0.42036 0.23705 0.0
H317 H 0.60666 0.42164 0.22634 0.0
H318 H 0.62529 0.38916 0.24246 0.0
H319 H 0.58505 0.43926 0.20288 0.0
H320 H 0.62601 0.50241 0.22494 0.0
H321 H 0.54667 0.46222 0.2048 0.0
H322 H 0.58777 0.52599 0.22632 0.0
H323 H 0.43176 0.55573 0.19583 0.0
H324 H 0.41682 0.56927 0.16829 0.0
H325 H 0.49156 0.58745 0.15772 0.0
H326 H 0.50629 0.57389 0.18507 0.0
H327 H 0.5123 0.59549 0.21176 0.0
H328 H 0.5078 0.63658 0.22538 0.0
H329 H 0.43882 0.61402 0.24418 0.0
H330 H 0.44325 0.57301 0.23015 0.0
H331 H 0.49085 0.52013 0.18832 0.0
H332 H 0.52714 0.49449 0.19057 0.0
H333 H 0.54872 0.53159 0.23857 0.0
N334 N 0.47776 0.55828 0.20959 0.0
H335 H 0.51284 0.5579 0.23615 0.0
C336 C 0.63469 0.44995 0.19345 0.0
C337 C 0.62905 0.42584 0.18679 0.0
C338 C 0.63305 0.41903 0.17004 0.0
C339 C 0.64213 0.43631 0.15954 0.0
C340 C 0.6469 0.46059 0.16601 0.0
C341 C 0.64335 0.46727 0.18286 0.0
C342 C 0.64125 0.44018 0.22269 0.0
C343 C 0.6668 0.43969 0.22637 0.0
C344 C 0.67758 0.42079 0.23534 0.0
C345 C 0.66298 0.40189 0.24097 0.0
C346 C 0.63717 0.40314 0.23807 0.0
C347 C 0.62641 0.42197 0.22895 0.0
C348 C 0.60845 0.46914 0.2139 0.0
C349 C 0.58575 0.45796 0.20841 0.0
C350 C 0.5638 0.47127 0.20932 0.0
C351 C 0.56408 0.49611 0.21553 0.0
C352 C 0.58674 0.50686 0.22163 0.0
C353 C 0.60865 0.49346 0.22083 0.0
C354 C 0.47006 0.56361 0.19252 0.0
C355 C 0.4449 0.56226 0.18742 0.0
C356 C 0.43641 0.57015 0.17178 0.0
C357 C 0.45303 0.57942 0.16086 0.0
C358 C 0.47834 0.58013 0.16577 0.0
C359 C 0.48678 0.57249 0.18146 0.0
C360 C 0.478 0.58112 0.21993 0.0
C361 C 0.49639 0.59925 0.21901 0.0
C362 C 0.49386 0.62273 0.22689 0.0
C363 C 0.47283 0.62864 0.23574 0.0
C364 C 0.45506 0.61015 0.23726 0.0
C365 C 0.45765 0.58666 0.22942 0.0
C366 C 0.49967 0.54281 0.21129 0.0
C367 C 0.5036 0.52342 0.19917 0.0
C368 C 0.52426 0.50826 0.20064 0.0
C369 C 0.54122 0.51125 0.21461 0.0
C370 C 0.53652 0.52933 0.22734 0.0
C371 C 0.51589 0.54463 0.22584 0.0
H372 H 0.48801 0.99478 0.45574 0.0
N373 N 0.52922 0.98383 0.47523 0.0
H374 H 0.47544 0.97586 0.42807 0.0
H375 H 0.55195 0.94796 0.45821 0.0
H376 H 0.539 0.92804 0.43078 0.0
H377 H 0.52015 0.94457 0.49184 0.0
H378 H 0.48563 0.93771 0.50901 0.0
H379 H 0.49709 0.01977 0.48659 0.0
H380 H 0.46335 0.01362 0.50454 0.0
H381 H 0.51613 0.02789 0.46202 0.0
H382 H 0.57605 0.98901 0.48637 0.0
H383 H 0.54403 0.0617 0.45742 0.0
H384 H 0.60428 0.02289 0.48163 0.0
H385 H 0.62192 0.14665 0.42529 0.0
H386 H 0.63508 0.15125 0.39696 0.0
H387 H 0.68754 0.09224 0.40368 0.0
H388 H 0.67575 0.08945 0.4323 0.0
H389 H 0.67539 0.08994 0.46613 0.0
H390 H 0.71359 0.10402 0.481 0.0
H391 H 0.69683 0.17887 0.46857 0.0
H392 H 0.65776 0.16472 0.45474 0.0
H393 H 0.60026 0.12624 0.46309 0.0
H394 H 0.57176 0.09519 0.47218 0.0
H395 H 0.62022 0.03739 0.45481 0.0
N396 N 0.64236 0.11867 0.44838 0.0
H397 H 0.64824 0.06814 0.44573 0.0
C398 C 0.52109 0.97284 0.45896 0.0
C399 C 0.49936 0.9804 0.45031 0.0
C400 C 0.49205 0.96935 0.43454 0.0
C401 C 0.50619 0.95038 0.42716 0.0
C402 C 0.52787 0.94284 0.43593 0.0
C403 C 0.53523 0.95404 0.45164 0.0
C404 C 0.51138 0.98254 0.48783 0.0
C405 C 0.50807 0.95984 0.49486 0.0
C406 C 0.4883 0.95604 0.50479 0.0
C407 C 0.47139 0.97506 0.50817 0.0
C408 C 0.4756 0.99834 0.50194 0.0
C409 C 0.4952 0.00199 0.49173 0.0
C410 C 0.54397 0.00589 0.47476 0.0
C411 C 0.53512 0.02685 0.46681 0.0
C412 C 0.55114 0.04623 0.46413 0.0
C413 C 0.57635 0.04487 0.46908 0.0
C414 C 0.58496 0.02434 0.47756 0.0
C415 C 0.56887 0.00511 0.48041 0.0
C416 C 0.64742 0.11747 0.43084 0.0
C417 C 0.63591 0.13444 0.42045 0.0
C418 C 0.64347 0.13696 0.40422 0.0
C419 C 0.66259 0.12226 0.39794 0.0
C420 C 0.67315 0.10429 0.40812 0.0
C421 C 0.66596 0.10219 0.42446 0.0
C422 C 0.66339 0.12638 0.45939 0.0
C423 C 0.67947 0.10946 0.46697 0.0
C424 C 0.70168 0.11756 0.47532 0.0
C425 C 0.70865 0.14262 0.47592 0.0
C426 C 0.69211 0.15952 0.46873 0.0
C427 C 0.66972 0.15147 0.46072 0.0
C428 C 0.62643 0.09972 0.45376 0.0
C429 C 0.60471 0.10685 0.46131 0.0
C430 C 0.58848 0.08914 0.46646 0.0
C431 C 0.59388 0.06388 0.46431 0.0
C432 C 0.61576 0.05674 0.45687 0.0
C433 C 0.63179 0.07442 0.45155 0.0
H434 H 0.13501 0.01373 0.70886 0.0
N435 N 0.16046 0.04851 0.72931 0.0
H436 H 0.14474 0.99906 0.6807 0.0
H437 H 0.19743 0.06326 0.7119 0.0
H438 H 0.20845 0.04752 0.684 0.0
H439 H 0.20026 0.03016 0.74456 0.0
H440 H 0.20313 0.99353 0.76063 0.0
H441 H 0.12106 0.02283 0.73997 0.0
H442 H 0.1235 0.98699 0.75689 0.0
H443 H 0.11233 0.04852 0.71621 0.0
H444 H 0.16761 0.09228 0.74554 0.0
H445 H 0.08487 0.08379 0.71581 0.0
H446 H 0.13975 0.1277 0.74571 0.0
H447 H 0.02731 0.15845 0.69487 0.0
H448 H 0.01299 0.16307 0.66579 0.0
H449 H 0.04922 0.23428 0.66739 0.0
H450 H 0.0625 0.22987 0.69686 0.0
H451 H 0.05593 0.23201 0.73799 0.0
H452 H 0.02226 0.25579 0.75001 0.0
H453 H 0.96984 0.2014 0.72801 0.0
H454 H 0.00348 0.17755 0.71635 0.0
H455 H 0.03437 0.14871 0.72484 0.0
H456 H 0.0596 0.11278 0.73118 0.0
H457 H 0.12551 0.15523 0.72489 0.0
N458 N 0.05151 0.19351 0.71592 0.0
H459 H 0.10012 0.19106 0.71892 0.0
C460 C 0.16536 0.0399 0.71241 0.0
C461 C 0.15076 0.02159 0.70341 0.0
C462 C 0.15664 0.0129 0.68734 0.0
C463 C 0.17755 0.02191 0.68001 0.0
C464 C 0.19202 0.04037 0.68906 0.0
C465 C 0.18588 0.04931 0.70505 0.0
C466 C 0.16058 0.02938 0.74108 0.0
C467 C 0.18343 0.02104 0.74749 0.0
C468 C 0.18497 1.0001 0.75679 0.0
C469 C 0.16354 0.98704 0.76011 0.0
C470 C 0.14046 0.9962 0.75436 0.0
C471 C 0.13899 0.01699 0.7448 0.0
C472 C 0.14232 0.06781 0.73077 0.0
C473 C 0.11849 0.06556 0.72283 0.0
C474 C 0.1026 0.08581 0.72273 0.0
C475 C 0.11014 0.10871 0.73059 0.0
C476 C 0.13349 0.11049 0.73926 0.0
C477 C 0.14938 0.09025 0.7393 0.0
C478 C 0.04586 0.19399 0.69809 0.0
C479 C 0.03239 0.17495 0.68896 0.0
C480 C 0.02432 0.17757 0.67222 0.0
C481 C 0.02974 0.19917 0.66423 0.0
C482 C 0.04425 0.21762 0.67322 0.0
C483 C 0.0521 0.21506 0.68998 0.0
C484 C 0.03234 0.20319 0.72614 0.0
C485 C 0.03728 0.22477 0.73632 0.0
C486 C 0.01803 0.23831 0.74316 0.0
C487 C 0.99342 0.23056 0.73975 0.0
C488 C 0.98864 0.20789 0.73068 0.0
C489 C 0.00794 0.1942 0.72404 0.0
C490 C 0.06546 0.17264 0.72143 0.0
C491 C 0.05423 0.1504 0.72508 0.0
C492 C 0.06871 0.12979 0.72861 0.0
C493 C 0.09462 0.13106 0.72854 0.0
C494 C 0.10568 0.15362 0.72536 0.0
C495 C 0.09123 0.17411 0.72185 0.0
O496 O 0.37152 0.69805 -0.00054 0.0
Cd497 Cd 0.36077 0.71631 0.0211 0.0
Cd498 Cd 0.40229 0.69629 0.035 0.0
O499 O 0.40394 0.6798 0.01106 0.0
O500 O 0.32509 0.72343 0.01723 0.0
O501 O 0.33966 0.69788 0.03597 0.0
C502 C 0.32094 0.70813 0.02848 0.0
C503 C 0.409 0.67111 0.05748 0.0
C504 C 0.38967 0.68344 0.99825 0.0
C505 C 0.39905 0.75196 0.03591 0.0
O506 O 0.41184 0.73317 0.03945 0.0
O507 O 0.37765 0.74937 0.02868 0.0
O508 O 0.42692 0.6784 0.0491 0.0
O509 O 0.38695 0.67808 0.05302 0.0
O510 O 0.43162 0.86046 0.31065 0.0
Cd511 Cd 0.41437 0.84835 0.28792 0.0
Cd512 Cd 0.458 0.86094 0.2759 0.0
O513 O 0.4643 0.87625 0.30008 0.0
O514 O 0.37844 0.84656 0.29155 0.0
O515 O 0.39455 0.87373 0.27565 0.0
C516 C 0.37548 0.86503 0.28226 0.0
C517 C 0.46458 0.88487 0.25333 0.0
C518 C 0.45166 0.87273 0.3126 0.0
C519 C 0.44409 0.80732 0.27244 0.0
O520 O 0.46112 0.82319 0.27149 0.0
O521 O 0.42335 0.8139 0.27773 0.0
O522 O 0.48278 0.87621 0.26226 0.0
O523 O 0.44244 0.88027 0.25743 0.0
O524 O 0.24857 0.91619 0.50716 0.0
Cd525 Cd 0.26578 0.90111 0.52772 0.0
Cd526 Cd 0.22482 0.91925 0.54311 0.0
O527 O 0.21607 0.93145 0.51943 0.0
O528 O 0.30075 0.89622 0.52225 0.0
O529 O 0.28932 0.92325 0.54215 0.0
C530 C 0.30664 0.91353 0.53356 0.0
C531 C 0.21704 0.94491 0.56676 0.0
C532 C 0.22839 0.92799 0.50647 0.0
C533 C 0.23379 0.86402 0.54209 0.0
O534 O 0.22066 0.88225 0.54667 0.0
O535 O 0.25308 0.86723 0.53423 0.0
O536 O 0.19946 0.93424 0.55747 0.0
O537 O 0.23934 0.9418 0.56227 0.0
O538 O 0.17355 0.75907 0.75423 0.0
Cd539 Cd 0.19525 0.76972 0.77545 0.0
Cd540 Cd 0.16857 0.73372 0.7892 0.0
O541 O 0.14865 0.73441 0.76634 0.0
O542 O 0.20803 0.80314 0.7716 0.0
O543 O 0.18116 0.79633 0.79062 0.0
C544 C 0.19373 0.8118 0.78283 0.0
C545 C 0.14763 0.72854 0.81345 0.0
C546 C 0.1546 0.74518 0.75348 0.0
C547 C 0.22373 0.72643 0.787 0.0
O548 O 0.2029 0.7175 0.78996 0.0
O549 O 0.22529 0.74797 0.78174 0.0
O550 O 0.14886 0.7111 0.80188 0.0
O551 O 0.15753 0.74957 0.81099 0.0
O552 O 0.92974 0.24071 0.54866 0.0
Cd553 Cd 0.91245 0.24988 0.52633 0.0
Cd554 Cd 0.93464 0.20929 0.51312 0.0
O555 O 0.95088 0.21005 0.53731 0.0
O556 O 0.90392 0.28554 0.52827 0.0
O557 O 0.93222 0.27007 0.51174 0.0
C558 C 0.92057 0.289 0.51779 0.0
C559 C 0.96043 0.20461 0.4909 0.0
C560 C 0.94576 0.22382 0.55006 0.0
C561 C 0.87918 0.20914 0.51149 0.0
O562 O 0.89856 0.1969 0.50855 0.0
O563 O 0.88072 0.23098 0.51815 0.0
O564 O 0.95585 0.18645 0.49992 0.0
O565 O 0.9504 0.22567 0.4945 0.0
O566 O 0.85811 0.4329 0.78885 0.0
Cd567 Cd 0.84494 0.41046 0.76866 0.0
Cd568 Cd 0.88596 0.43303 0.75388 0.0
O569 O 0.88695 0.45301 0.77682 0.0
O570 O 0.8119 0.40033 0.77536 0.0
O571 O 0.81694 0.42376 0.75414 0.0
C572 C 0.80223 0.41343 0.76378 0.0
C573 C 0.89851 0.45376 0.73096 0.0
C574 C 0.87464 0.44957 0.7895 0.0
C575 C 0.8847 0.37693 0.75668 0.0
O576 O 0.89573 0.39625 0.75278 0.0
O577 O 0.86373 0.37825 0.76294 0.0
O578 O 0.91383 0.44829 0.74306 0.0
O579 O 0.87558 0.44798 0.73196 0.0
O580 O 0.70215 0.36593 0.04089 0.0
Cd581 Cd 0.71887 0.35079 0.02031 0.0
Cd582 Cd 0.69804 0.39354 0.00601 0.0
O583 O 0.68561 0.39894 0.02996 0.0
O584 O 0.72773 0.31704 0.02684 0.0
O585 O 0.7005 0.32397 0.00598 0.0
C586 C 0.7119 0.30843 0.01528 0.0
C587 C 0.67244 0.40579 0.98336 0.0
C588 C 0.68947 0.38549 0.04232 0.0
C589 C 0.75381 0.38628 0.00679 0.0
O590 O 0.73496 0.39886 0.00265 0.0
O591 O 0.75168 0.36635 0.01414 0.0
O592 O 0.68297 0.42154 0.9942 0.0
O593 O 0.6757 0.38265 0.98565 0.0
O594 O 0.76674 0.19276 0.23372 0.0
Cd595 Cd 0.77652 0.21042 0.25689 0.0
Cd596 Cd 0.76275 0.16726 0.26767 0.0
O597 O 0.74686 0.16195 0.24371 0.0
O598 O 0.7764 0.24639 0.25329 0.0
O599 O 0.74969 0.22863 0.26868 0.0
C600 C 0.75737 0.24826 0.26219 0.0
C601 C 0.7397 0.15883 0.29037 0.0
C602 C 0.75282 0.17385 0.23136 0.0
C603 C 0.81656 0.18062 0.27196 0.0
O604 O 0.80058 0.16339 0.27104 0.0
O605 O 0.81033 0.20236 0.26851 0.0
O606 O 0.74901 0.14137 0.28112 0.0
O607 O 0.74311 0.18132 0.28654 0.0
H608 H 0.22563 0.89043 0.30327 0.0
H609 H 0.25062 0.96394 0.29448 0.0
H610 H 0.26387 0.87371 0.29421 0.0
H611 H 0.28776 0.94681 0.28324 0.0
H612 H 0.36542 0.91358 0.28783 0.0
H613 H 0.32512 0.93201 0.29114 0.0
H614 H 0.29052 0.86174 0.27522 0.0
H615 H 0.33113 0.84314 0.27372 0.0
C616 C 0.23914 0.90312 0.29922 0.0
C617 C 0.23505 0.92874 0.30017 0.0
C618 C 0.26111 0.89335 0.29355 0.0
C619 C 0.27948 0.90876 0.28802 0.0
C620 C 0.27461 0.93424 0.28782 0.0
C621 C 0.25288 0.94411 0.294 0.0
C622 C 0.34907 0.9023 0.28482 0.0
C623 C 0.35123 0.877 0.28063 0.0
C624 C 0.32581 0.91285 0.28662 0.0
C625 C 0.30411 0.89843 0.28377 0.0
C626 C 0.30654 0.87341 0.27822 0.0
C627 C 0.32983 0.86272 0.27707 0.0
H628 H 0.13615 0.74248 0.53128 0.0
H629 H 0.17512 0.72862 0.57842 0.0
H630 H 0.16625 0.7748 0.52671 0.0
H631 H 0.20482 0.76132 0.57404 0.0
H632 H 0.21071 0.84974 0.56908 0.0
H633 H 0.19135 0.80981 0.57246 0.0
H634 H 0.21678 0.78221 0.5248 0.0
H635 H 0.237 0.82209 0.52163 0.0
C636 C 0.1515 0.74598 0.54043 0.0
C637 C 0.15341 0.7331 0.55516 0.0
C638 C 0.16872 0.76434 0.5378 0.0
C639 C 0.18776 0.77045 0.55005 0.0
C640 C 0.19032 0.75682 0.56441 0.0
C641 C 0.17343 0.7381 0.56686 0.0
C642 C 0.21265 0.83497 0.55951 0.0
C643 C 0.22533 0.83893 0.54511 0.0
C644 C 0.20167 0.81215 0.56147 0.0
C645 C 0.20264 0.79305 0.54888 0.0
C646 C 0.21589 0.7967 0.53468 0.0
C647 C 0.2275 0.8194 0.53292 0.0
H648 H 0.3717 0.66293 0.79772 0.0
H649 H 0.32069 0.60345 0.80427 0.0
H650 H 0.3371 0.69046 0.79279 0.0
H651 H 0.28644 0.63019 0.79777 0.0
H652 H 0.22991 0.68845 0.8074 0.0
H653 H 0.26559 0.66212 0.8111 0.0
H654 H 0.30348 0.70261 0.7753 0.0
H655 H 0.26794 0.72991 0.77234 0.0
C656 C 0.35319 0.65556 0.79792 0.0
C657 C 0.34923 0.63087 0.80164 0.0
C658 C 0.33326 0.67134 0.79484 0.0
C659 C 0.30882 0.66277 0.79514 0.0
C660 C 0.30492 0.63775 0.7979 0.0
C661 C 0.32476 0.62215 0.80128 0.0
C662 C 0.24589 0.69179 0.80036 0.0
C663 C 0.24607 0.71119 0.78953 0.0
C664 C 0.26635 0.67651 0.80234 0.0
C665 C 0.28742 0.67984 0.79328 0.0
C666 C 0.28773 0.69954 0.7826 0.0
C667 C 0.26733 0.71516 0.78084 0.0
H668 H 0.42275 0.91001 0.05664 0.0
H669 H 0.49516 0.87774 0.0634 0.0
H670 H 0.4053 0.86928 0.04916 0.0
H671 H 0.47809 0.83749 0.05456 0.0
H672 H 0.43748 0.76543 0.05821 0.0
H673 H 0.45442 0.80658 0.06496 0.0
H674 H 0.40155 0.83615 0.02888 0.0
H675 H 0.38386 0.79509 0.02279 0.0
C676 C 0.43503 0.89432 0.05637 0.0
C677 C 0.4604 0.89731 0.06076 0.0
C678 C 0.42504 0.87092 0.05184 0.0
C679 C 0.44021 0.84993 0.05136 0.0
C680 C 0.4657 0.85308 0.05513 0.0
C681 C 0.47561 0.87637 0.05989 0.0
C682 C 0.42946 0.78074 0.05175 0.0
C683 C 0.40932 0.77701 0.03999 0.0
C684 C 0.4393 0.80436 0.05551 0.0
C685 C 0.42951 0.8248 0.04739 0.0
C686 C 0.40936 0.82099 0.03558 0.0
C687 C 0.39928 0.7974 0.03202 0.0
H688 H 0.16086 0.68767 0.0256 0.0
H689 H 0.19651 0.62218 0.00527 0.0
H690 H 0.20108 0.70389 0.03658 0.0
H691 H 0.23602 0.63792 0.01684 0.0
H692 H 0.30515 0.66719 0.04315 0.0
H693 H 0.26268 0.65185 0.04283 0.0
H694 H 0.23665 0.71771 0.01991 0.0
H695 H 0.2789 0.73296 0.02015 0.0
C696 C 0.17708 0.67652 0.0237 0.0
C697 C 0.17528 0.65368 0.01433 0.0
C698 C 0.20007 0.68576 0.03011 0.0
C699 C 0.22166 0.67217 0.02754 0.0
C700 C 0.21968 0.64866 0.01925 0.0
C701 C 0.19685 0.6396 0.01264 0.0
C702 C 0.29028 0.67865 0.03845 0.0
C703 C 0.29534 0.7011 0.03145 0.0
C704 C 0.26602 0.66984 0.03823 0.0
C705 C 0.24641 0.68351 0.03124 0.0
C706 C 0.25134 0.70685 0.0255 0.0
C707 C 0.27557 0.71549 0.02551 0.0
H708 H 0.43 0.65476 0.23368 0.0
H709 H 0.50625 0.66091 0.25235 0.0
H710 H 0.42332 0.6976 0.24295 0.0
H711 H 0.49951 0.70387 0.26182 0.0
H712 H 0.48483 0.78688 0.25858 0.0
H713 H 0.49183 0.74358 0.25044 0.0
H714 H 0.42065 0.72471 0.26763 0.0
H715 H 0.41337 0.76802 0.27536 0.0
C716 C 0.44525 0.66515 0.24003 0.0
C717 C 0.46864 0.65439 0.24233 0.0
C718 C 0.44142 0.68975 0.24535 0.0
C719 C 0.46087 0.70423 0.25314 0.0
C720 C 0.48422 0.69337 0.25563 0.0
C721 C 0.48807 0.66874 0.25025 0.0
C722 C 0.47066 0.7735 0.26062 0.0
C723 C 0.44849 0.78097 0.26756 0.0
C724 C 0.47476 0.74862 0.25606 0.0
C725 C 0.45681 0.73062 0.25837 0.0
C726 C 0.43472 0.73811 0.26544 0.0
C727 C 0.43059 0.76296 0.26994 0.0
H728 H 0.42507 0.99422 0.50222 0.0
H729 H 0.46514 0.94354 0.53343 0.0
H730 H 0.38661 0.98121 0.51312 0.0
H731 H 0.42621 0.92962 0.54352 0.0
H732 H 0.32198 0.96036 0.54362 0.0
H733 H 0.36324 0.97796 0.54137 0.0
H734 H 0.38991 0.90614 0.5251 0.0
H735 H 0.3487 0.88871 0.52691 0.0
C736 C 0.42589 0.98078 0.51169 0.0
C737 C 0.44841 0.96979 0.51675 0.0
C738 C 0.40373 0.97326 0.51788 0.0
C739 C 0.40348 0.95433 0.52907 0.0
C740 C 0.42594 0.94414 0.53479 0.0
C741 C 0.44819 0.95199 0.52886 0.0
C742 C 0.33682 0.94826 0.53995 0.0
C743 C 0.33217 0.9232 0.53536 0.0
C744 C 0.36033 0.95835 0.5386 0.0
C745 C 0.37967 0.94338 0.53305 0.0
C746 C 0.37537 0.91803 0.52954 0.0
C747 C 0.35178 0.90809 0.53051 0.0
H748 H 0.19762 0.97329 0.78479 0.0
H749 H 0.13437 0.94568 0.75362 0.0
H750 H 0.20495 0.93188 0.79428 0.0
H751 H 0.14108 0.90484 0.76389 0.0
H752 H 0.22609 0.84826 0.77714 0.0
H753 H 0.21742 0.89227 0.77587 0.0
H754 H 0.14391 0.88009 0.79151 0.0
H755 H 0.15277 0.83599 0.79318 0.0
C756 C 0.18508 0.95858 0.78009 0.0
C757 C 0.16559 0.96295 0.76819 0.0
C758 C 0.18921 0.93492 0.78567 0.0
C759 C 0.17361 0.91522 0.77979 0.0
C760 C 0.15323 0.9198 0.76878 0.0
C761 C 0.14936 0.94332 0.76294 0.0
C762 C 0.20831 0.85508 0.78074 0.0
C763 C 0.19008 0.83872 0.78521 0.0
C764 C 0.20338 0.88026 0.78007 0.0
C765 C 0.17997 0.8895 0.78352 0.0
C766 C 0.16209 0.87337 0.78876 0.0
C767 C 0.16722 0.84821 0.7898 0.0
H768 H 0.64865 0.43049 0.78738 0.0
H769 H 0.67628 0.50237 0.77703 0.0
H770 H 0.68449 0.41133 0.77539 0.0
H771 H 0.71297 0.48333 0.76614 0.0
H772 H 0.77611 0.44451 0.74349 0.0
H773 H 0.73353 0.45807 0.74606 0.0
H774 H 0.72583 0.4084 0.78571 0.0
H775 H 0.7677 0.39438 0.78272 0.0
C776 C 0.6621 0.44224 0.78228 0.0
C777 C 0.65967 0.46808 0.78345 0.0
C778 C 0.6829 0.43123 0.7756 0.0
C779 C 0.70197 0.44575 0.7701 0.0
C780 C 0.69871 0.47146 0.77019 0.0
C781 C 0.67778 0.48246 0.7767 0.0
C782 C 0.76507 0.43609 0.75245 0.0
C783 C 0.77539 0.41855 0.76301 0.0
C784 C 0.74072 0.444 0.75403 0.0
C785 C 0.72622 0.43458 0.76623 0.0
C786 C 0.73618 0.41593 0.77603 0.0
C787 C 0.76039 0.40797 0.7744 0.0
H788 H 0.62993 0.17698 0.02698 0.0
H789 H 0.70499 0.15051 0.02715 0.0
H790 H 0.64367 0.21669 0.01819 0.0
H791 H 0.71837 0.18959 0.01747 0.0
H792 H 0.73616 0.27184 0.03104 0.0
H793 H 0.72345 0.22919 0.03217 0.0
H794 H 0.66124 0.24146 0.99738 0.0
H795 H 0.67382 0.2847 0.99653 0.0
C796 C 0.64927 0.17943 0.02483 0.0
C797 C 0.66637 0.16059 0.02806 0.0
C798 C 0.6571 0.20213 0.01958 0.0
C799 C 0.68221 0.20648 0.01735 0.0
C800 C 0.69897 0.18703 0.01937 0.0
C801 C 0.69119 0.16443 0.02472 0.0
C802 C 0.71996 0.26542 0.02342 0.0
C803 C 0.7059 0.28173 0.0138 0.0
C804 C 0.71275 0.24083 0.02396 0.0
C805 C 0.69127 0.23183 0.01488 0.0
C806 C 0.67774 0.24787 0.00466 0.0
C807 C 0.68503 0.27258 0.00408 0.0
H808 H 0.95336 0.10793 0.30101 0.0
H809 H 0.97414 0.18492 0.30121 0.0
H810 H 0.91151 0.11819 0.2923 0.0
H811 H 0.93293 0.19475 0.29049 0.0
H812 H 0.85079 0.21055 0.28948 0.0
H813 H 0.89334 0.20064 0.29781 0.0
H814 H 0.88396 0.12871 0.2716 0.0
H815 H 0.84099 0.13814 0.2646 0.0
C816 C 0.94916 0.12707 0.29907 0.0
C817 C 0.96736 0.14557 0.30212 0.0
C818 C 0.92505 0.13294 0.29369 0.0
C819 C 0.91847 0.15742 0.29066 0.0
C820 C 0.93692 0.17577 0.29303 0.0
C821 C 0.9609 0.17 0.29886 0.0
C822 C 0.85793 0.19262 0.2856 0.0
C823 C 0.8426 0.17503 0.27655 0.0
C824 C 0.88245 0.18694 0.29022 0.0
C825 C 0.89242 0.16376 0.28545 0.0
C826 C 0.87702 0.14648 0.27597 0.0
C827 C 0.85235 0.15192 0.27181 0.0
H828 H 0.92328 0.44493 0.5335 0.0
H829 H 0.99913 0.42764 0.52385 0.0
H830 H 0.91126 0.40361 0.52415 0.0
H831 H 0.98638 0.38776 0.51182 0.0
H832 H 0.96672 0.30783 0.51954 0.0
H833 H 0.97838 0.35088 0.52036 0.0
H834 H 0.90219 0.37006 0.50795 0.0
H835 H 0.8906 0.32689 0.50914 0.0
C836 C 0.93747 0.43259 0.52917 0.0
C837 C 0.9625 0.43976 0.53037 0.0
C838 C 0.93037 0.4087 0.52329 0.0
C839 C 0.94789 0.39147 0.51764 0.0
C840 C 0.97237 0.39974 0.51683 0.0
C841 C 0.97966 0.42324 0.52342 0.0
C842 C 0.95263 0.32133 0.51674 0.0
C843 C 0.92781 0.31423 0.51443 0.0
C844 C 0.95927 0.34623 0.51706 0.0
C845 C 0.94129 0.36463 0.51449 0.0
C846 C 0.91661 0.35693 0.51069 0.0
C847 C 0.90989 0.33209 0.51108 0.0
H848 H 0.72169 0.18702 0.49259 0.0
H849 H 0.75249 0.11732 0.47525 0.0
H850 H 0.76271 0.20228 0.50112 0.0
H851 H 0.79327 0.13167 0.48542 0.0
H852 H 0.86609 0.17378 0.48676 0.0
H853 H 0.82499 0.1571 0.47906 0.0
H854 H 0.79604 0.20161 0.52009 0.0
H855 H 0.8368 0.21937 0.52691 0.0
C856 C 0.73714 0.1748 0.49072 0.0
C857 C 0.73357 0.15096 0.48301 0.0
C858 C 0.76079 0.18344 0.49593 0.0
C859 C 0.78157 0.16831 0.49397 0.0
C860 C 0.7779 0.14413 0.48686 0.0
C861 C 0.75429 0.13567 0.48131 0.0
C862 C 0.85087 0.17992 0.49409 0.0
C863 C 0.85457 0.198 0.50732 0.0
C864 C 0.82728 0.17023 0.48979 0.0
C865 C 0.80693 0.17797 0.49889 0.0
C866 C 0.81096 0.19558 0.51247 0.0
C867 C 0.83441 0.20568 0.51648 0.0
H868 H 0.98563 0.25687 0.76936 0.0
H869 H 0.95578 0.24373 0.71827 0.0
H870 H 0.95551 0.28999 0.77376 0.0
H871 H 0.92609 0.27693 0.72262 0.0
H872 H 0.9161 0.36366 0.73263 0.0
H873 H 0.93877 0.32507 0.72916 0.0
H874 H 0.90466 0.2975 0.77172 0.0
H875 H 0.88124 0.33607 0.77496 0.0
C876 C 0.97234 0.26076 0.75922 0.0
C877 C 0.97299 0.24773 0.7435 0.0
C878 C 0.9551 0.27957 0.76174 0.0
C879 C 0.93861 0.28594 0.74849 0.0
C880 C 0.93863 0.2723 0.73301 0.0
C881 C 0.95551 0.25324 0.73058 0.0
C882 C 0.91321 0.34928 0.74114 0.0
C883 C 0.89692 0.35283 0.75406 0.0
C884 C 0.92609 0.3272 0.73911 0.0
C885 C 0.92338 0.30841 0.75017 0.0
C886 C 0.907 0.31178 0.76305 0.0
C887 C 0.89358 0.33372 0.76483 0.0
H888 H 0.87274 0.48777 0.01304 0.0
H889 H 0.88742 0.44424 0.96778 0.0
H890 H 0.84103 0.45783 0.01913 0.0
H891 H 0.85525 0.41474 0.97363 0.0
H892 H 0.7661 0.41038 0.97977 0.0
H893 H 0.80542 0.4304 0.9755 0.0
H894 H 0.83585 0.40516 0.02251 0.0
H895 H 0.7966 0.3842 0.02654 0.0
C896 C 0.86958 0.47147 0.00466 0.0
C897 C 0.88249 0.46818 0.98999 0.0
C898 C 0.85157 0.45438 0.00815 0.0
C899 C 0.84586 0.43409 0.99683 0.0
C900 C 0.85952 0.4302 0.98257 0.0
C901 C 0.87791 0.44698 0.97927 0.0
C902 C 0.78133 0.4087 0.98903 0.0
C903 C 0.77839 0.39578 0.00347 0.0
C904 C 0.80379 0.42004 0.98656 0.0
C905 C 0.82352 0.4192 0.99868 0.0
C906 C 0.82084 0.4059 0.01299 0.0
C907 C 0.79851 0.3939 0.01524 0.0
H908 H 0.64863 0.35338 0.23622 0.0
H909 H 0.70459 0.40053 0.26237 0.0
H910 H 0.67084 0.3172 0.24527 0.0
H911 H 0.72716 0.3641 0.27099 0.0
H912 H 0.71028 0.25581 0.2718 0.0
H913 H 0.6862 0.29378 0.27023 0.0
H914 H 0.74973 0.33171 0.25405 0.0
H915 H 0.77369 0.29392 0.25555 0.0
C916 C 0.66533 0.35612 0.24423 0.0
C917 C 0.67486 0.38 0.24843 0.0
C918 C 0.67811 0.3353 0.24939 0.0
C919 C 0.70082 0.33781 0.25874 0.0
C920 C 0.70984 0.36162 0.2636 0.0
C921 C 0.69694 0.38247 0.25859 0.0
C922 C 0.71921 0.27239 0.26822 0.0
C923 C 0.74383 0.27185 0.26369 0.0
C924 C 0.70539 0.29407 0.26723 0.0
C925 C 0.71605 0.31568 0.26195 0.0
C926 C 0.74105 0.31543 0.25831 0.0
C927 C 0.75474 0.29372 0.25907 0.0
H928 H 0.2015 0.99748 0.41147 0.0
H929 H 0.15489 0.93242 0.40892 0.0
H930 H 0.21465 0.98985 0.44043 0.0
H931 H 0.1671 0.92586 0.43812 0.0
H932 H 0.18055 0.93739 0.49619 0.0
H933 H 0.16502 0.9496 0.46847 0.0
H934 H 0.23955 0.95174 0.45266 0.0
H935 H 0.25509 0.93904 0.48013 0.0
C936 C 0.19395 0.98164 0.41702 0.0
C937 C 0.17724 0.96547 0.40768 0.0
C938 C 0.20136 0.97744 0.43365 0.0
C939 C 0.19184 0.95731 0.44143 0.0
C940 C 0.17447 0.94168 0.43242 0.0
C941 C 0.16741 0.94557 0.4157 0.0
C942 C 0.19361 0.94069 0.48683 0.0
C943 C 0.21901 0.93716 0.49027 0.0
C944 C 0.18471 0.94758 0.47101 0.0
C945 C 0.20113 0.95161 0.45852 0.0
C946 C 0.22656 0.9489 0.46214 0.0
C947 C 0.2354 0.94151 0.47781 0.0
H948 H 0.08146 0.74628 0.65264 0.0
H949 H 0.10312 0.67139 0.66108 0.0
H950 H 0.09338 0.75852 0.6821 0.0
H951 H 0.11495 0.68349 0.69038 0.0
H952 H 0.15685 0.77062 0.72514 0.0
H953 H 0.13569 0.76091 0.69774 0.0
H954 H 0.09832 0.69993 0.71772 0.0
H955 H 0.11945 0.70959 0.74521 0.0
C956 C 0.08828 0.73239 0.6609 0.0
C957 C 0.09153 0.70796 0.65466 0.0
C958 C 0.09523 0.73939 0.67767 0.0
C959 C 0.10515 0.72195 0.68848 0.0
C960 C 0.10716 0.69727 0.68239 0.0
C961 C 0.10055 0.69037 0.66562 0.0
C962 C 0.14392 0.7553 0.72376 0.0
C963 C 0.14003 0.74072 0.73731 0.0
C964 C 0.13164 0.74989 0.7081 0.0
C965 C 0.11542 0.72963 0.70561 0.0
C966 C 0.11086 0.71555 0.71929 0.0
C967 C 0.12293 0.72113 0.73501 0.0
H968 H 0.44967 0.60668 0.91078 0.0
H969 H 0.37101 0.60946 0.89897 0.0
H970 H 0.44416 0.62823 0.93793 0.0
H971 H 0.36537 0.62968 0.92643 0.0
H972 H 0.36644 0.69087 0.96771 0.0
H973 H 0.3728 0.66899 0.94088 0.0
H974 H 0.42819 0.62375 0.96495 0.0
H975 H 0.42236 0.64621 0.99176 0.0
C976 C 0.43119 0.61175 0.91399 0.0
C977 C 0.41081 0.60639 0.90263 0.0
C978 C 0.428 0.62386 0.92966 0.0
C979 C 0.40433 0.63081 0.93435 0.0
C980 C 0.38391 0.62497 0.92313 0.0
C981 C 0.38711 0.613 0.90746 0.0
C982 C 0.38002 0.6763 0.9673 0.0
C983 C 0.39388 0.6703 0.9819 0.0
C984 C 0.38355 0.66361 0.95191 0.0
C985 C 0.4009 0.64447 0.95075 0.0
C986 C 0.41488 0.63857 0.96534 0.0
C987 C 0.41145 0.65138 0.98074 0.0
H988 H 0.47897 0.91659 0.15055 0.0
H989 H 0.51317 0.98069 0.17705 0.0
H990 H 0.46881 0.90066 0.17724 0.0
H991 H 0.50313 0.96458 0.20388 0.0
H992 H 0.50767 0.90633 0.2458 0.0
H993 H 0.51632 0.9261 0.22011 0.0
H994 H 0.44081 0.9138 0.20129 0.0
H995 H 0.43199 0.89427 0.22709 0.0
C996 C 0.48445 0.92717 0.16212 0.0
C997 C 0.49699 0.94978 0.16177 0.0
C998 C 0.47842 0.91818 0.17736 0.0
C999 C 0.4851 0.93145 0.19259 0.0
C1000 C 0.49782 0.95399 0.19229 0.0
C1001 C 0.5035 0.96321 0.17699 0.0
C1002 C 0.49284 0.90808 0.23626 0.0
C1003 C 0.46917 0.89867 0.23842 0.0
C1004 C 0.49778 0.91949 0.22161 0.0
C1005 C 0.47927 0.92135 0.20871 0.0
C1006 C 0.45546 0.91242 0.21101 0.0
C1007 C 0.4504 0.90137 0.22579 0.0
H1008 H 0.07257 0.67273 0.89763 0.0
H1009 H 0.15027 0.67979 0.91218 0.0
H1010 H 0.07919 0.69324 0.87179 0.0
H1011 H 0.15687 0.70033 0.88642 0.0
H1012 H 0.15708 0.75283 0.84418 0.0
H1013 H 0.14506 0.7397 0.87135 0.0
H1014 H 0.10281 0.67948 0.84605 0.0
H1015 H 0.11499 0.69234 0.81902 0.0
C1016 C 0.09098 0.67895 0.89538 0.0
C1017 C 0.11095 0.67453 0.90682 0.0
C1018 C 0.09477 0.69059 0.88061 0.0
C1019 C 0.11852 0.69841 0.87714 0.0
C1020 C 0.13833 0.69473 0.88886 0.0
C1021 C 0.1346 0.68276 0.90349 0.0
C1022 C 0.1448 0.73712 0.84443 0.0
C1023 C 0.13708 0.72352 0.82951 0.0
C1024 C 0.13807 0.72953 0.85996 0.0
C1025 C 0.12313 0.7085 0.86078 0.0
C1026 C 0.11421 0.69583 0.84579 0.0
C1027 C 0.12127 0.70315 0.83032 0.0
H1028 H 0.47183 0.57176 0.13005 0.0
H1029 H 0.4141 0.61035 0.15551 0.0
H1030 H 0.45949 0.59156 0.10429 0.0
H1031 H 0.40199 0.63056 0.12987 0.0
H1032 H 0.37558 0.65091 0.07724 0.0
H1033 H 0.38438 0.62599 0.10135 0.0
H1034 H 0.46249 0.63213 0.09457 0.0
H1035 H 0.4537 0.65628 0.07037 0.0
C1036 C 0.45646 0.58445 0.13011 0.0
C1037 C 0.44403 0.58962 0.14481 0.0
C1038 C 0.44942 0.59586 0.11538 0.0
C1039 C 0.4299 0.61288 0.11504 0.0
C1040 C 0.41691 0.61736 0.12961 0.0
C1041 C 0.42387 0.60581 0.14432 0.0
C1042 C 0.3946 0.64678 0.08087 0.0
C1043 C 0.41393 0.65558 0.07189 0.0
C1044 C 0.39966 0.6326 0.09472 0.0
C1045 C 0.42415 0.62697 0.09989 0.0
C1046 C 0.44339 0.63567 0.09078 0.0
C1047 C 0.43835 0.64972 0.07695 0.0
H1048 H 0.53536 0.93542 0.40166 0.0
H1049 H 0.45926 0.93837 0.41467 0.0
H1050 H 0.52261 0.91548 0.37442 0.0
H1051 H 0.44638 0.91981 0.38705 0.0
H1052 H 0.43313 0.8639 0.34276 0.0
H1053 H 0.44672 0.88183 0.37046 0.0
H1054 H 0.50229 0.92428 0.34825 0.0
H1055 H 0.48926 0.90572 0.32065 0.0
C1056 C 0.5159 0.9318 0.39873 0.0
C1057 C 0.49836 0.9385 0.4104 0.0
C1058 C 0.50855 0.92066 0.383 0.0
C1059 C 0.48344 0.91608 0.37848 0.0
C1060 C 0.4659 0.92277 0.39015 0.0
C1061 C 0.47326 0.93377 0.40593 0.0
C1062 C 0.4483 0.877 0.3438 0.0
C1063 C 0.46011 0.88336 0.32948 0.0
C1064 C 0.456 0.88741 0.35968 0.0
C1065 C 0.47557 0.90458 0.36162 0.0
C1066 C 0.48741 0.91085 0.34729 0.0
C1067 C 0.47984 0.9003 0.33142 0.0
H1068 H 0.17294 0.97413 0.66695 0.0
H1069 H 0.19817 0.04622 0.65491 0.0
H1070 H 0.18262 0.95751 0.63919 0.0
H1071 H 0.20891 0.02902 0.62731 0.0
H1072 H 0.24826 0.97453 0.58766 0.0
H1073 H 0.23935 0.99462 0.61498 0.0
H1074 H 0.1649 0.96607 0.60903 0.0
H1075 H 0.17349 0.9464 0.58184 0.0
C1076 C 0.18038 0.98652 0.6584 0.0
C1077 C 0.18443 0.01166 0.6632 0.0
C1078 C 0.1861 0.9769 0.64253 0.0
C1079 C 0.19639 0.99203 0.63112 0.0
C1080 C 0.20111 0.01696 0.63594 0.0
C1081 C 0.19503 0.02674 0.65178 0.0
C1082 C 0.22994 0.97279 0.59213 0.0
C1083 C 0.21162 0.95881 0.58262 0.0
C1084 C 0.22485 0.98432 0.60771 0.0
C1085 C 0.20151 0.98167 0.61412 0.0
C1086 C 0.18311 0.96817 0.60444 0.0
C1087 C 0.18804 0.95702 0.58883 0.0
H1088 H 0.58515 0.43487 0.88996 0.0
H1089 H 0.64632 0.48636 0.89611 0.0
H1090 H 0.59876 0.41721 0.91645 0.0
H1091 H 0.65948 0.46911 0.92249 0.0
H1092 H 0.66119 0.45312 0.97678 0.0
H1093 H 0.64333 0.46834 0.95081 0.0
H1094 H 0.63491 0.39358 0.92948 0.0
H1095 H 0.65276 0.37813 0.95573 0.0
C1096 C 0.60152 0.44234 0.89688 0.0
C1097 C 0.61444 0.46227 0.89099 0.0
C1098 C 0.60927 0.43225 0.91205 0.0
C1099 C 0.62998 0.442 0.92165 0.0
C1100 C 0.6431 0.46157 0.91558 0.0
C1101 C 0.6355 0.47151 0.90046 0.0
C1102 C 0.65532 0.43983 0.96666 0.0
C1103 C 0.65865 0.4144 0.96827 0.0
C1104 C 0.64519 0.44859 0.95173 0.0
C1105 C 0.63809 0.43218 0.93802 0.0
C1106 C 0.6402 0.40666 0.93986 0.0
C1107 C 0.65046 0.39783 0.95487 0.0
H1108 H 0.66788 0.14964 0.13665 0.0
H1109 H 0.72804 0.09762 0.13362 0.0
H1110 H 0.68457 0.16493 0.16439 0.0
H1111 H 0.74532 0.1143 0.16092 0.0
H1112 H 0.77336 0.18192 0.20178 0.0
H1113 H 0.75789 0.16742 0.17336 0.0
H1114 H 0.69546 0.1334 0.19384 0.0
H1115 H 0.71112 0.14716 0.22226 0.0
C1116 C 0.68461 0.14142 0.14181 0.0
C1117 C 0.69642 0.12214 0.13285 0.0
C1118 C 0.69423 0.1504 0.15761 0.0
C1119 C 0.71613 0.14073 0.1646 0.0
C1120 C 0.72845 0.12208 0.1556 0.0
C1121 C 0.71858 0.1127 0.13994 0.0
C1122 C 0.75634 0.17136 0.2002 0.0
C1123 C 0.74344 0.16562 0.2142 0.0
C1124 C 0.7476 0.16305 0.18401 0.0
C1125 C 0.72557 0.14942 0.1816 0.0
C1126 C 0.71249 0.14395 0.19551 0.0
C1127 C 0.72149 0.15175 0.21171 0.0
H1128 H 0.04438 0.1313 0.41505 0.0
H1129 H 0.02771 0.20146 0.3942 0.0
H1130 H 0.02521 0.14487 0.44038 0.0
H1131 H 0.01128 0.2162 0.42042 0.0
H1132 H 0.95467 0.22443 0.46045 0.0
H1133 H 0.97749 0.21414 0.43571 0.0
H1134 H 0.02575 0.16748 0.465 0.0
H1135 H 0.00133 0.17623 0.48915 0.0
C1136 C 0.03688 0.14975 0.41586 0.0
C1137 C 0.03731 0.16499 0.40226 0.0
C1138 C 0.02627 0.15784 0.43069 0.0
C1139 C 0.01642 0.18175 0.43265 0.0
C1140 C 0.01804 0.19746 0.41937 0.0
C1141 C 0.02803 0.18912 0.40434 0.0
C1142 C 0.97028 0.21211 0.46152 0.0
C1143 C 0.97614 0.20091 0.47658 0.0
C1144 C 0.98357 0.20628 0.44736 0.0
C1145 C 0.00352 0.18967 0.4481 0.0
C1146 C 0.0101 0.17965 0.4636 0.0
C1147 C 0.99629 0.18485 0.47756 0.0
H1148 H 0.92627 0.5094 0.63301 0.0
H1149 H 0.99637 0.48541 0.65471 0.0
H1150 H 0.90687 0.50104 0.65875 0.0
H1151 H 0.97669 0.47549 0.67993 0.0
H1152 H 0.94174 0.47837 0.72896 0.0
H1153 H 0.95918 0.49294 0.70405 0.0
H1154 H 0.89389 0.46777 0.67414 0.0
H1155 H 0.876 0.45416 0.69935 0.0
C1156 C 0.93761 0.50246 0.64328 0.0
C1157 C 0.96296 0.49813 0.64174 0.0
C1158 C 0.92637 0.49732 0.65798 0.0
C1159 C 0.94014 0.48757 0.67148 0.0
C1160 C 0.96551 0.48336 0.66994 0.0
C1161 C 0.97677 0.4887 0.65532 0.0
C1162 C 0.93098 0.47623 0.71709 0.0
C1163 C 0.90757 0.46498 0.71608 0.0
C1164 C 0.94107 0.4844 0.70276 0.0
C1165 C 0.92818 0.48118 0.68697 0.0
C1166 C 0.9043 0.47076 0.68608 0.0
C1167 C 0.89405 0.46288 0.70052 0.0
H1168 H 0.63767 0.13694 0.36908 0.0
H1169 H 0.71063 0.11841 0.38924 0.0
H1170 H 0.65505 0.14624 0.34264 0.0
H1171 H 0.72738 0.12635 0.36257 0.0
H1172 H 0.74044 0.1157 0.30601 0.0
H1173 H 0.72054 0.10648 0.33148 0.0
H1174 H 0.68874 0.17929 0.3339 0.0
H1175 H 0.7091 0.18885 0.30846 0.0
C1176 C 0.65733 0.1348 0.36796 0.0
C1177 C 0.67264 0.12675 0.3814 0.0
C1178 C 0.6672 0.14004 0.35277 0.0
C1179 C 0.69248 0.13689 0.35061 0.0
C1180 C 0.70775 0.12862 0.36388 0.0
C1181 C 0.69803 0.12385 0.37913 0.0
C1182 C 0.7291 0.12973 0.31188 0.0
C1183 C 0.7264 0.15305 0.30527 0.0
C1184 C 0.71779 0.12444 0.32648 0.0
C1185 C 0.70318 0.14219 0.33461 0.0
C1186 C 0.69983 0.16527 0.32777 0.0
C1187 C 0.71156 0.17075 0.3133 0.0
H1188 H 0.02336 0.16507 0.63744 0.0
H1189 H 0.01166 0.24197 0.65195 0.0
H1190 H 0.00309 0.17092 0.60996 0.0
H1191 H 0.99287 0.24814 0.62418 0.0
H1192 H 0.93477 0.24461 0.58071 0.0
H1193 H 0.95571 0.23849 0.60791 0.0
H1194 H 0.00742 0.18944 0.584 0.0
H1195 H 0.98591 0.19489 0.55685 0.0
C1196 C 0.01662 0.18326 0.63475 0.0
C1197 C 0.01911 0.20301 0.64698 0.0
C1198 C 0.00526 0.18669 0.6189 0.0
C1199 C 0.99624 0.21 0.61484 0.0
C1200 C 0.99923 0.22985 0.62694 0.0
C1201 C 0.0104 0.22638 0.64281 0.0
C1202 C 0.9506 0.23251 0.58125 0.0
C1203 C 0.95863 0.22022 0.5666 0.0
C1204 C 0.96274 0.22912 0.59685 0.0
C1205 C 0.98335 0.21354 0.59818 0.0
C1206 C 0.99141 0.2013 0.5835 0.0
C1207 C 0.97915 0.20453 0.5679 0.0
H1208 H 0.87276 0.53212 0.88695 0.0
H1209 H 0.94678 0.50472 0.88235 0.0
H1210 H 0.86204 0.51773 0.85775 0.0
H1211 H 0.9361 0.49018 0.85333 0.0
H1212 H 0.91365 0.48099 0.79778 0.0
H1213 H 0.92341 0.50374 0.82471 0.0
H1214 H 0.85723 0.47505 0.84397 0.0
H1215 H 0.84737 0.45242 0.81714 0.0
C1216 C 0.88682 0.52343 0.87959 0.0
C1217 C 0.91052 0.51933 0.8869 0.0
C1218 C 0.88066 0.51504 0.86296 0.0
C1219 C 0.8982 0.50272 0.85331 0.0
C1220 C 0.92225 0.49977 0.8604 0.0
C1221 C 0.9283 0.5079 0.87704 0.0
C1222 C 0.90106 0.47973 0.80771 0.0
C1223 C 0.87985 0.46471 0.80537 0.0
C1224 C 0.90669 0.49271 0.82312 0.0
C1225 C 0.89109 0.49114 0.83643 0.0
C1226 C 0.86946 0.47684 0.83389 0.0
C1227 C 0.86394 0.4637 0.81855 0.0
H1228 H 0.66997 0.39767 0.1489 0.0
H1229 H 0.62649 0.45808 0.1309 0.0
H1230 H 0.68016 0.38567 0.12035 0.0
H1231 H 0.63546 0.44543 0.10205 0.0
H1232 H 0.67844 0.43194 0.05471 0.0
H1233 H 0.66615 0.44427 0.08282 0.0
H1234 H 0.6652 0.36761 0.09478 0.0
H1235 H 0.67888 0.35564 0.06707 0.0
C1236 C 0.66229 0.40812 0.13873 0.0
C1237 C 0.64745 0.42874 0.14204 0.0
C1238 C 0.66796 0.40119 0.12231 0.0
C1239 C 0.65853 0.41444 0.10874 0.0
C1240 C 0.64342 0.43499 0.11213 0.0
C1241 C 0.63813 0.44219 0.12863 0.0
C1242 C 0.67545 0.41778 0.06336 0.0
C1243 C 0.67983 0.39287 0.05877 0.0
C1244 C 0.66827 0.4248 0.07947 0.0
C1245 C 0.66485 0.40699 0.09125 0.0
C1246 C 0.6683 0.38196 0.0863 0.0
C1247 C 0.67596 0.37503 0.07035 0.0
loop_
_geom_bond_atom_site_label_1
_geom_bond_atom_site_label_2
_geom_bond_distance
_geom_bond_site_symmetry_2
_ccdc_geom_bond_type
H0 C27 0.929 . S
N1 C26 1.433 . S
N1 C32 1.435 . S
N1 C38 1.423 . S
H2 C28 0.930 . S
H3 C31 0.931 . S
H4 C30 0.929 . S
H5 C33 0.930 . S
H6 C34 0.932 . S
H7 C37 0.929 . S
H8 C36 0.931 . S
H9 C39 0.929 . S
H10 C43 0.932 . S
H11 C40 0.931 . S
H12 C42 0.929 . S
H13 C45 0.929 . S
H14 C46 0.930 . S
H15 C48 0.931 . S
H16 C49 0.931 . S
H17 C51 0.930 . S
H18 C52 0.932 . S
H19 C54 0.931 1_455 S
H20 C55 0.929 . S
H21 C57 0.929 . S
H22 C58 0.931 . S
H23 C60 0.929 . S
N24 C44 1.433 . S
N24 C50 1.446 . S
N24 C56 1.423 . S
H25 C61 0.932 . S
C26 N1 1.433 . S
C26 C27 1.363 . S
C26 C31 1.370 . S
C27 H0 0.929 . S
C27 C26 1.363 . S
C27 C28 1.385 . S
C28 H2 0.930 . S
C28 C27 1.385 . S
C28 C29 1.357 . S
C29 C28 1.357 . S
C29 C30 1.406 . S
C30 H4 0.929 . S
C30 C29 1.406 . S
C30 C31 1.391 . S
C31 H3 0.931 . S
C31 C26 1.370 . S
C31 C30 1.391 . S
C32 N1 1.435 . S
C32 C33 1.358 . S
C32 C37 1.371 . S
C33 H5 0.930 . S
C33 C32 1.358 . S
C33 C34 1.405 . S
C34 H6 0.932 . S
C34 C33 1.405 . S
C34 C35 1.383 . S
C35 C34 1.383 . S
C35 C36 1.393 . S
C36 H8 0.931 . S
C36 C35 1.393 . S
C36 C37 1.382 . S
C37 H7 0.929 . S
C37 C32 1.371 . S
C37 C36 1.382 . S
C38 N1 1.423 . S
C38 C39 1.362 1_565 S
C38 C43 1.388 . S
C39 H9 0.929 . S
C39 C38 1.362 1_545 S
C39 C40 1.376 . S
C40 H11 0.931 . S
C40 C39 1.376 . S
C40 C41 1.396 . S
C41 C40 1.396 . S
C41 C42 1.348 . S
C41 C59 1.472 . S
C42 H12 0.929 . S
C42 C41 1.348 . S
C42 C43 1.443 1_545 S
C43 H10 0.932 . S
C43 C38 1.388 . S
C43 C42 1.443 1_565 S
C44 N24 1.433 . S
C44 C45 1.363 1_455 S
C44 C49 1.370 . S
C45 H13 0.929 . S
C45 C44 1.363 1_655 S
C45 C46 1.385 . S
C46 H14 0.930 . S
C46 C45 1.385 . S
C46 C47 1.357 . S
C47 C46 1.357 . S
C47 C48 1.397 1_655 S
C48 H15 0.931 . S
C48 C47 1.397 1_455 S
C48 C49 1.400 . S
C49 H16 0.931 . S
C49 C44 1.370 . S
C49 C48 1.400 . S
C50 N24 1.446 . S
C50 C51 1.336 1_455 S
C50 C55 1.382 . S
C51 H17 0.930 . S
C51 C50 1.336 1_655 S
C51 C52 1.405 . S
C52 H18 0.932 . S
C52 C51 1.405 . S
C52 C53 1.383 . S
C53 C52 1.383 . S
C53 C54 1.393 . S
C54 H19 0.931 1_655 S
C54 C53 1.393 . S
C54 C55 1.382 1_655 S
C55 H20 0.929 . S
C55 C50 1.382 . S
C55 C54 1.382 1_455 S
C56 N24 1.423 . S
C56 C57 1.362 . S
C56 C61 1.388 . S
C57 H21 0.929 . S
C57 C56 1.362 . S
C57 C58 1.376 . S
C58 H22 0.931 . S
C58 C57 1.376 . S
C58 C59 1.396 . S
C59 C41 1.472 . S
C59 C58 1.396 . S
C59 C60 1.348 . S
C60 H23 0.929 . S
C60 C59 1.348 . S
C60 C61 1.443 . S
C61 H25 0.932 . S
C61 C56 1.388 . S
C61 C60 1.443 . S
H62 C89 0.929 . S
N63 C88 1.433 . S
N63 C94 1.435 . S
N63 C100 1.423 1_655 S
H64 C90 0.930 . S
H65 C93 0.931 . S
H66 C92 0.929 . S
H67 C95 0.930 . S
H68 C96 0.932 . S
H69 C99 0.931 1_455 S
H70 C98 0.931 1_455 S
H71 C101 0.929 . S
H72 C105 0.924 1_655 S
H73 C102 0.931 . S
H74 C104 0.929 . S
H75 C107 0.929 . S
H76 C108 0.930 . S
H77 C110 0.929 . S
H78 C111 0.931 . S
H79 C113 0.930 . S
H80 C114 0.932 . S
H81 C116 0.931 . S
H82 C117 0.929 . S
H83 C119 0.929 . S
H84 C120 0.931 . S
H85 C122 0.929 . S
N86 C106 1.433 . S
N86 C112 1.435 . S
N86 C118 1.423 . S
H87 C123 0.932 . S
C88 N63 1.433 . S
C88 C89 1.363 . S
C88 C93 1.370 . S
C89 H62 0.929 . S
C89 C88 1.363 . S
C89 C90 1.385 . S
C90 H64 0.930 . S
C90 C89 1.385 . S
C90 C91 1.357 . S
C91 C90 1.357 . S
C91 C92 1.406 . S
C92 H66 0.929 . S
C92 C91 1.406 . S
C92 C93 1.391 . S
C93 H65 0.931 . S
C93 C88 1.370 . S
C93 C92 1.391 . S
C94 N63 1.435 . S
C94 C95 1.358 . S
C94 C99 1.370 . S
C95 H67 0.930 . S
C95 C94 1.358 . S
C95 C96 1.405 . S
C96 H68 0.932 . S
C96 C95 1.405 . S
C96 C97 1.383 . S
C97 C96 1.383 . S
C97 C98 1.393 . S
C98 H70 0.931 1_655 S
C98 C97 1.393 . S
C98 C99 1.382 . S
C99 H69 0.931 1_655 S
C99 C94 1.370 . S
C99 C98 1.382 . S
C100 N63 1.423 1_455 S
C100 C101 1.362 . S
C100 C105 1.388 . S
C101 H71 0.929 . S
C101 C100 1.362 . S
C101 C102 1.376 . S
C102 H73 0.931 . S
C102 C101 1.376 . S
C102 C103 1.396 . S
C103 C102 1.396 . S
C103 C104 1.348 . S
C103 C121 1.472 . S
C104 H74 0.929 . S
C104 C103 1.348 . S
C104 C105 1.443 . S
C105 H72 0.924 1_455 S
C105 C100 1.388 . S
C105 C104 1.443 . S
C106 N86 1.433 . S
C106 C107 1.363 . S
C106 C111 1.370 . S
C107 H75 0.929 . S
C107 C106 1.363 . S
C107 C108 1.385 . S
C108 H76 0.930 . S
C108 C107 1.385 . S
C108 C109 1.357 . S
C109 C108 1.357 . S
C109 C110 1.406 . S
C110 H77 0.929 . S
C110 C109 1.406 . S
C110 C111 1.391 . S
C111 H78 0.931 . S
C111 C106 1.370 . S
C111 C110 1.391 . S
C112 N86 1.435 . S
C112 C113 1.358 . S
C112 C117 1.371 . S
C113 H79 0.930 . S
C113 C112 1.358 . S
C113 C114 1.405 . S
C114 H80 0.932 . S
C114 C113 1.405 . S
C114 C115 1.383 . S
C115 C114 1.383 . S
C115 C116 1.393 . S
C116 H81 0.931 . S
C116 C115 1.393 . S
C116 C117 1.382 . S
C117 H82 0.929 . S
C117 C112 1.371 . S
C117 C116 1.382 . S
C118 N86 1.423 . S
C118 C119 1.362 . S
C118 C123 1.388 . S
C119 H83 0.929 . S
C119 C118 1.362 . S
C119 C120 1.376 . S
C120 H84 0.931 . S
C120 C119 1.376 . S
C120 C121 1.396 . S
C121 C103 1.472 . S
C121 C120 1.396 . S
C121 C122 1.348 . S
C122 H85 0.929 . S
C122 C121 1.348 . S
C122 C123 1.443 . S
C123 H87 0.932 . S
C123 C118 1.388 . S
C123 C122 1.443 . S
H124 C151 0.929 . S
N125 C150 1.433 . S
N125 C156 1.435 . S
N125 C162 1.423 . S
H126 C152 0.930 . S
H127 C155 0.931 . S
H128 C154 0.929 . S
H129 C157 0.930 . S
H130 C158 0.932 . S
H131 C161 0.929 . S
H132 C160 0.931 . S
H133 C163 0.929 . S
H134 C167 0.932 . S
H135 C164 0.931 . S
H136 C166 0.929 . S
H137 C169 0.929 . S
H138 C170 0.930 . S
H139 C172 0.929 . S
H140 C173 0.931 . S
H141 C175 0.930 . S
H142 C176 0.932 . S
H143 C178 0.931 . S
H144 C179 0.929 . S
H145 C181 0.929 . S
H146 C182 0.931 . S
H147 C184 0.929 . S
N148 C168 1.433 . S
N148 C174 1.435 . S
N148 C180 1.423 . S
H149 C185 0.932 . S
C150 N125 1.433 . S
C150 C151 1.363 . S
C150 C155 1.370 . S
C151 H124 0.929 . S
C151 C150 1.363 . S
C151 C152 1.385 . S
C152 H126 0.930 . S
C152 C151 1.385 . S
C152 C153 1.357 . S
C153 C152 1.357 . S
C153 C154 1.406 . S
C154 H128 0.929 . S
C154 C153 1.406 . S
C154 C155 1.391 . S
C155 H127 0.931 . S
C155 C150 1.370 . S
C155 C154 1.391 . S
C156 N125 1.435 . S
C156 C157 1.358 . S
C156 C161 1.371 . S
C157 H129 0.930 . S
C157 C156 1.358 . S
C157 C158 1.405 . S
C158 H130 0.932 . S
C158 C157 1.405 . S
C158 C159 1.383 . S
C159 C158 1.383 . S
C159 C160 1.393 . S
C160 H132 0.931 . S
C160 C159 1.393 . S
C160 C161 1.382 . S
C161 H131 0.929 . S
C161 C156 1.371 . S
C161 C160 1.382 . S
C162 N125 1.423 . S
C162 C163 1.362 . S
C162 C167 1.388 . S
C163 H133 0.929 . S
C163 C162 1.362 . S
C163 C164 1.376 . S
C164 H135 0.931 . S
C164 C163 1.376 . S
C164 C165 1.396 . S
C165 C164 1.396 . S
C165 C166 1.348 . S
C165 C183 1.472 . S
C166 H136 0.929 . S
C166 C165 1.348 . S
C166 C167 1.443 . S
C167 H134 0.932 . S
C167 C162 1.388 . S
C167 C166 1.443 . S
C168 N148 1.433 . S
C168 C169 1.363 . S
C168 C173 1.370 . S
C169 H137 0.929 . S
C169 C168 1.363 . S
C169 C170 1.385 . S
C170 H138 0.930 . S
C170 C169 1.385 . S
C170 C171 1.357 . S
C171 C170 1.357 . S
C171 C172 1.406 . S
C172 H139 0.929 . S
C172 C171 1.406 . S
C172 C173 1.391 . S
C173 H140 0.931 . S
C173 C168 1.370 . S
C173 C172 1.391 . S
C174 N148 1.435 . S
C174 C175 1.358 . S
C174 C179 1.371 . S
C175 H141 0.930 . S
C175 C174 1.358 . S
C175 C176 1.405 . S
C176 H142 0.932 . S
C176 C175 1.405 . S
C176 C177 1.383 . S
C177 C176 1.383 . S
C177 C178 1.393 . S
C178 H143 0.931 . S
C178 C177 1.393 . S
C178 C179 1.382 . S
C179 H144 0.929 . S
C179 C174 1.371 . S
C179 C178 1.382 . S
C180 N148 1.423 . S
C180 C181 1.362 . S
C180 C185 1.388 . S
C181 H145 0.929 . S
C181 C180 1.362 . S
C181 C182 1.376 . S
C182 H146 0.931 . S
C182 C181 1.376 . S
C182 C183 1.396 . S
C183 C165 1.472 . S
C183 C182 1.396 . S
C183 C184 1.348 . S
C184 H147 0.929 . S
C184 C183 1.348 . S
C184 C185 1.443 . S
C185 H149 0.932 . S
C185 C180 1.388 . S
C185 C184 1.443 . S
H186 C213 0.929 . S
N187 C212 1.433 . S
N187 C218 1.435 . S
N187 C224 1.423 . S
H188 C214 0.930 . S
H189 C217 0.931 . S
H190 C216 0.929 . S
H191 C219 0.930 . S
H192 C220 0.932 . S
H193 C223 0.929 . S
H194 C222 0.931 . S
H195 C225 0.929 . S
H196 C229 0.932 . S
H197 C226 0.931 . S
H198 C228 0.929 . S
H199 C231 0.929 . S
H200 C232 0.930 . S
H201 C234 0.929 . S
H202 C235 0.931 . S
H203 C237 0.930 . S
H204 C238 0.932 . S
H205 C240 0.931 . S
H206 C241 0.929 . S
H207 C243 0.929 . S
H208 C244 0.931 1_565 S
H209 C246 0.929 . S
N210 C230 1.433 . S
N210 C236 1.435 . S
N210 C242 1.423 . S
H211 C247 0.932 . S
C212 N187 1.433 . S
C212 C213 1.363 . S
C212 C217 1.370 . S
C213 H186 0.929 . S
C213 C212 1.363 . S
C213 C214 1.385 . S
C214 H188 0.930 . S
C214 C213 1.385 . S
C214 C215 1.357 . S
C215 C214 1.357 . S
C215 C216 1.406 . S
C216 H190 0.929 . S
C216 C215 1.406 . S
C216 C217 1.391 . S
C217 H189 0.931 . S
C217 C212 1.370 . S
C217 C216 1.391 . S
C218 N187 1.435 . S
C218 C219 1.358 . S
C218 C223 1.371 . S
C219 H191 0.930 . S
C219 C218 1.358 . S
C219 C220 1.405 . S
C220 H192 0.932 . S
C220 C219 1.405 . S
C220 C221 1.383 . S
C221 C220 1.383 . S
C221 C222 1.393 . S
C222 H194 0.931 . S
C222 C221 1.393 . S
C222 C223 1.382 . S
C223 H193 0.929 . S
C223 C218 1.371 . S
C223 C222 1.382 . S
C224 N187 1.423 . S
C224 C225 1.362 . S
C224 C229 1.388 . S
C225 H195 0.929 . S
C225 C224 1.362 . S
C225 C226 1.376 . S
C226 H197 0.931 . S
C226 C225 1.376 . S
C226 C227 1.396 . S
C227 C226 1.396 . S
C227 C228 1.348 . S
C227 C245 1.470 1_565 S
C228 H198 0.929 . S
C228 C227 1.348 . S
C228 C229 1.443 . S
C229 H196 0.932 . S
C229 C224 1.388 . S
C229 C228 1.443 . S
C230 N210 1.433 . S
C230 C231 1.363 . S
C230 C235 1.370 . S
C231 H199 0.929 . S
C231 C230 1.363 . S
C231 C232 1.385 . S
C232 H200 0.930 . S
C232 C231 1.385 . S
C232 C233 1.357 . S
C233 C232 1.357 . S
C233 C234 1.406 . S
C234 H201 0.929 . S
C234 C233 1.406 . S
C234 C235 1.391 . S
C235 H202 0.931 . S
C235 C230 1.370 . S
C235 C234 1.391 . S
C236 N210 1.435 . S
C236 C237 1.358 . S
C236 C241 1.371 . S
C237 H203 0.930 . S
C237 C236 1.358 . S
C237 C238 1.405 . S
C238 H204 0.932 . S
C238 C237 1.405 . S
C238 C239 1.383 . S
C239 C238 1.383 . S
C239 C240 1.393 . S
C240 H205 0.931 . S
C240 C239 1.393 . S
C240 C241 1.382 . S
C241 H206 0.929 . S
C241 C236 1.371 . S
C241 C240 1.382 . S
C242 N210 1.423 . S
C242 C243 1.362 . S
C242 C247 1.388 . S
C243 H207 0.929 . S
C243 C242 1.362 . S
C243 C244 1.376 . S
C244 H208 0.931 1_545 S
C244 C243 1.376 . S
C244 C245 1.396 . S
C245 C227 1.470 1_545 S
C245 C244 1.396 . S
C245 C246 1.350 . S
C246 H209 0.929 . S
C246 C245 1.350 . S
C246 C247 1.443 . S
C247 H211 0.932 . S
C247 C242 1.388 . S
C247 C246 1.443 . S
H248 C275 0.929 . S
N249 C274 1.433 . S
N249 C280 1.435 . S
N249 C286 1.423 . S
H250 C276 0.930 . S
H251 C279 0.931 . S
H252 C278 0.929 . S
H253 C281 0.930 . S
H254 C282 0.932 . S
H255 C285 0.929 . S
H256 C284 0.931 . S
H257 C287 0.929 . S
H258 C291 0.932 . S
H259 C288 0.931 . S
H260 C290 0.929 . S
H261 C293 0.929 . S
H262 C294 0.930 . S
H263 C296 0.929 . S
H264 C297 0.931 . S
H265 C299 0.930 . S
H266 C300 0.932 . S
H267 C302 0.968 . S
H268 C303 0.929 . S
H269 C305 0.929 . S
H270 C306 0.917 1_455 S
H271 C308 0.929 . S
N272 C292 1.433 . S
N272 C298 1.435 . S
N272 C304 1.423 . S
H273 C309 0.932 . S
C274 N249 1.433 . S
C274 C275 1.363 . S
C274 C279 1.370 . S
C275 H248 0.929 . S
C275 C274 1.363 . S
C275 C276 1.385 . S
C276 H250 0.930 . S
C276 C275 1.385 . S
C276 C277 1.357 . S
C277 C276 1.357 . S
C277 C278 1.406 . S
C278 H252 0.929 . S
C278 C277 1.406 . S
C278 C279 1.391 . S
C279 H251 0.931 . S
C279 C274 1.370 . S
C279 C278 1.391 . S
C280 N249 1.435 . S
C280 C281 1.358 . S
C280 C285 1.371 . S
C281 H253 0.930 . S
C281 C280 1.358 . S
C281 C282 1.405 1_556 S
C282 H254 0.932 . S
C282 C281 1.405 1_554 S
C282 C283 1.383 . S
C283 C282 1.383 . S
C283 C284 1.393 . S
C284 H256 0.931 . S
C284 C283 1.393 . S
C284 C285 1.382 1_554 S
C285 H255 0.929 . S
C285 C280 1.371 . S
C285 C284 1.382 1_556 S
C286 N249 1.423 . S
C286 C287 1.362 . S
C286 C291 1.388 . S
C287 H257 0.929 . S
C287 C286 1.362 . S
C287 C288 1.376 . S
C288 H259 0.931 . S
C288 C287 1.376 . S
C288 C289 1.396 . S
C289 C288 1.396 . S
C289 C290 1.348 . S
C289 C307 1.472 . S
C290 H260 0.929 . S
C290 C289 1.348 . S
C290 C291 1.443 . S
C291 H258 0.932 . S
C291 C286 1.388 . S
C291 C290 1.443 . S
C292 N272 1.433 . S
C292 C293 1.363 . S
C292 C297 1.370 . S
C293 H261 0.929 . S
C293 C292 1.363 . S
C293 C294 1.385 . S
C294 H262 0.930 . S
C294 C293 1.385 . S
C294 C295 1.357 . S
C295 C294 1.357 . S
C295 C296 1.406 . S
C296 H263 0.929 . S
C296 C295 1.406 . S
C296 C297 1.391 . S
C297 H264 0.931 . S
C297 C292 1.370 . S
C297 C296 1.391 . S
C298 N272 1.435 . S
C298 C299 1.358 . S
C298 C303 1.371 . S
C299 H265 0.930 . S
C299 C298 1.358 . S
C299 C300 1.405 . S
C300 H266 0.932 . S
C300 C299 1.405 . S
C300 C301 1.383 . S
C301 C300 1.383 . S
C301 C302 1.393 . S
C302 H267 0.968 . S
C302 C301 1.393 . S
C302 C303 1.382 . S
C303 H268 0.929 . S
C303 C298 1.371 . S
C303 C302 1.382 . S
C304 N272 1.423 . S
C304 C305 1.362 . S
C304 C309 1.388 . S
C305 H269 0.929 . S
C305 C304 1.362 . S
C305 C306 1.392 . S
C306 H270 0.917 1_655 S
C306 C305 1.392 . S
C306 C307 1.394 1_655 S
C307 C289 1.472 . S
C307 C306 1.394 1_455 S
C307 C308 1.348 1_455 S
C308 H271 0.929 . S
C308 C307 1.348 1_655 S
C308 C309 1.443 . S
C309 H273 0.932 . S
C309 C304 1.388 . S
C309 C308 1.443 . S
H310 C337 0.929 . S
N311 C336 1.433 . S
N311 C342 1.435 . S
N311 C348 1.423 . S
H312 C338 0.930 . S
H313 C341 0.931 . S
H314 C340 0.929 . S
H315 C343 0.930 . S
H316 C344 0.932 . S
H317 C347 0.929 . S
H318 C346 0.931 . S
H319 C349 0.929 . S
H320 C353 0.932 . S
H321 C350 0.931 . S
H322 C352 0.929 . S
H323 C355 0.929 . S
H324 C356 0.930 . S
H325 C358 0.929 . S
H326 C359 0.931 . S
H327 C361 0.930 . S
H328 C362 0.932 . S
H329 C364 0.931 . S
H330 C365 0.929 . S
H331 C367 0.929 . S
H332 C368 0.931 . S
H333 C370 0.929 . S
N334 C354 1.433 . S
N334 C360 1.435 . S
N334 C366 1.423 . S
H335 C371 0.932 . S
C336 N311 1.433 . S
C336 C337 1.363 . S
C336 C341 1.370 . S
C337 H310 0.929 . S
C337 C336 1.363 . S
C337 C338 1.385 . S
C338 H312 0.930 . S
C338 C337 1.385 . S
C338 C339 1.357 . S
C339 C338 1.357 . S
C339 C340 1.406 . S
C340 H314 0.929 . S
C340 C339 1.406 . S
C340 C341 1.391 . S
C341 H313 0.931 . S
C341 C336 1.370 . S
C341 C340 1.391 . S
C342 N311 1.435 . S
C342 C343 1.358 . S
C342 C347 1.371 . S
C343 H315 0.930 . S
C343 C342 1.358 . S
C343 C344 1.405 . S
C344 H316 0.932 . S
C344 C343 1.405 . S
C344 C345 1.383 . S
C345 C344 1.383 . S
C345 C346 1.393 . S
C346 H318 0.931 . S
C346 C345 1.393 . S
C346 C347 1.382 . S
C347 H317 0.929 . S
C347 C342 1.371 . S
C347 C346 1.382 . S
C348 N311 1.423 . S
C348 C349 1.362 . S
C348 C353 1.388 . S
C349 H319 0.929 . S
C349 C348 1.362 . S
C349 C350 1.376 . S
C350 H321 0.931 . S
C350 C349 1.376 . S
C350 C351 1.396 . S
C351 C350 1.396 . S
C351 C352 1.348 . S
C351 C369 1.472 . S
C352 H322 0.929 . S
C352 C351 1.348 . S
C352 C353 1.443 . S
C353 H320 0.932 . S
C353 C348 1.388 . S
C353 C352 1.443 . S
C354 N334 1.433 . S
C354 C355 1.363 . S
C354 C359 1.370 . S
C355 H323 0.929 . S
C355 C354 1.363 . S
C355 C356 1.385 . S
C356 H324 0.930 . S
C356 C355 1.385 . S
C356 C357 1.357 . S
C357 C356 1.357 . S
C357 C358 1.406 . S
C358 H325 0.929 . S
C358 C357 1.406 . S
C358 C359 1.391 . S
C359 H326 0.931 . S
C359 C354 1.370 . S
C359 C358 1.391 . S
C360 N334 1.435 . S
C360 C361 1.358 . S
C360 C365 1.371 . S
C361 H327 0.930 . S
C361 C360 1.358 . S
C361 C362 1.405 . S
C362 H328 0.932 . S
C362 C361 1.405 . S
C362 C363 1.383 . S
C363 C362 1.383 . S
C363 C364 1.393 . S
C364 H329 0.931 . S
C364 C363 1.393 . S
C364 C365 1.382 . S
C365 H330 0.929 . S
C365 C360 1.371 . S
C365 C364 1.382 . S
C366 N334 1.423 . S
C366 C367 1.362 . S
C366 C371 1.388 . S
C367 H331 0.929 . S
C367 C366 1.362 . S
C367 C368 1.376 . S
C368 H332 0.931 . S
C368 C367 1.376 . S
C368 C369 1.396 . S
C369 C351 1.472 . S
C369 C368 1.396 . S
C369 C370 1.348 . S
C370 H333 0.929 . S
C370 C369 1.348 . S
C370 C371 1.443 . S
C371 H335 0.932 . S
C371 C366 1.388 . S
C371 C370 1.443 . S
H372 C399 0.929 . S
N373 C398 1.433 . S
N373 C404 1.435 . S
N373 C410 1.423 . S
H374 C400 0.930 . S
H375 C403 0.931 . S
H376 C402 0.929 . S
H377 C405 0.930 . S
H378 C406 0.932 . S
H379 C409 0.929 1_545 S
H380 C408 0.931 . S
H381 C411 0.929 . S
H382 C415 0.932 . S
H383 C412 0.931 . S
H384 C414 0.929 . S
H385 C417 0.929 . S
H386 C418 0.930 . S
H387 C420 0.929 . S
H388 C421 0.931 . S
H389 C423 0.930 . S
H390 C424 0.932 . S
H391 C426 0.931 . S
H392 C427 0.929 . S
H393 C429 0.929 . S
H394 C430 0.931 . S
H395 C432 0.929 . S
N396 C416 1.433 . S
N396 C422 1.435 . S
N396 C428 1.423 . S
H397 C433 0.932 . S
C398 N373 1.433 . S
C398 C399 1.363 . S
C398 C403 1.370 . S
C399 H372 0.929 . S
C399 C398 1.363 . S
C399 C400 1.385 . S
C400 H374 0.930 . S
C400 C399 1.385 . S
C400 C401 1.357 . S
C401 C400 1.357 . S
C401 C402 1.406 . S
C402 H376 0.929 . S
C402 C401 1.406 . S
C402 C403 1.391 . S
C403 H375 0.931 . S
C403 C398 1.370 . S
C403 C402 1.391 . S
C404 N373 1.435 . S
C404 C405 1.358 . S
C404 C409 1.371 . S
C405 H377 0.930 . S
C405 C404 1.358 . S
C405 C406 1.405 . S
C406 H378 0.932 . S
C406 C405 1.405 . S
C406 C407 1.383 . S
C407 C406 1.383 . S
C407 C408 1.393 . S
C408 H380 0.931 . S
C408 C407 1.393 . S
C408 C409 1.382 . S
C409 H379 0.929 1_565 S
C409 C404 1.371 . S
C409 C408 1.382 . S
C410 N373 1.423 . S
C410 C411 1.362 1_565 S
C410 C415 1.388 . S
C411 H381 0.929 . S
C411 C410 1.362 1_545 S
C411 C412 1.376 . S
C412 H383 0.931 . S
C412 C411 1.376 . S
C412 C413 1.396 . S
C413 C412 1.396 . S
C413 C414 1.348 . S
C413 C431 1.472 . S
C414 H384 0.929 . S
C414 C413 1.348 . S
C414 C415 1.443 1_545 S
C415 H382 0.932 . S
C415 C410 1.388 . S
C415 C414 1.443 1_565 S
C416 N396 1.433 . S
C416 C417 1.363 . S
C416 C421 1.370 . S
C417 H385 0.929 . S
C417 C416 1.363 . S
C417 C418 1.385 . S
C418 H386 0.930 . S
C418 C417 1.385 . S
C418 C419 1.357 . S
C419 C418 1.357 . S
C419 C420 1.406 . S
C420 H387 0.929 . S
C420 C419 1.406 . S
C420 C421 1.391 . S
C421 H388 0.931 . S
C421 C416 1.370 . S
C421 C420 1.391 . S
C422 N396 1.435 . S
C422 C423 1.358 . S
C422 C427 1.371 . S
C423 H389 0.930 . S
C423 C422 1.358 . S
C423 C424 1.405 . S
C424 H390 0.932 . S
C424 C423 1.405 . S
C424 C425 1.383 . S
C425 C424 1.383 . S
C425 C426 1.393 . S
C426 H391 0.931 . S
C426 C425 1.393 . S
C426 C427 1.382 . S
C427 H392 0.929 . S
C427 C422 1.371 . S
C427 C426 1.382 . S
C428 N396 1.423 . S
C428 C429 1.362 . S
C428 C433 1.388 . S
C429 H393 0.929 . S
C429 C428 1.362 . S
C429 C430 1.376 . S
C430 H394 0.931 . S
C430 C429 1.376 . S
C430 C431 1.396 . S
C431 C413 1.472 . S
C431 C430 1.396 . S
C431 C432 1.348 . S
C432 H395 0.929 . S
C432 C431 1.348 . S
C432 C433 1.443 . S
C433 H397 0.932 . S
C433 C428 1.388 . S
C433 C432 1.443 . S
H434 C461 0.929 . S
N435 C460 1.433 . S
N435 C466 1.435 . S
N435 C472 1.423 . S
H436 C462 0.930 1_565 S
H437 C465 0.931 . S
H438 C464 0.929 . S
H439 C467 0.930 . S
H440 C468 0.932 . S
H441 C471 0.929 . S
H442 C470 0.931 . S
H443 C473 0.929 . S
H444 C477 0.932 . S
H445 C474 0.931 . S
H446 C476 0.929 . S
H447 C479 0.929 . S
H448 C480 0.930 . S
H449 C482 0.929 . S
H450 C483 0.931 . S
H451 C485 0.930 . S
H452 C486 0.932 . S
H453 C488 0.931 . S
H454 C489 0.929 . S
H455 C491 0.929 . S
H456 C492 0.931 . S
H457 C494 0.929 . S
N458 C478 1.433 . S
N458 C484 1.435 1_455 S
N458 C490 1.423 . S
H459 C495 0.932 . S
C460 N435 1.433 . S
C460 C461 1.363 . S
C460 C465 1.370 . S
C461 H434 0.929 . S
C461 C460 1.363 . S
C461 C462 1.385 . S
C462 H436 0.930 1_545 S
C462 C461 1.385 . S
C462 C463 1.357 . S
C463 C462 1.357 . S
C463 C464 1.406 . S
C464 H438 0.929 . S
C464 C463 1.406 . S
C464 C465 1.391 . S
C465 H437 0.931 . S
C465 C460 1.370 . S
C465 C464 1.391 . S
C466 N435 1.435 . S
C466 C467 1.358 . S
C466 C471 1.371 . S
C467 H439 0.930 . S
C467 C466 1.358 . S
C467 C468 1.405 . S
C468 H440 0.932 . S
C468 C467 1.405 . S
C468 C469 1.383 . S
C469 C468 1.383 . S
C469 C470 1.393 . S
C470 H442 0.931 . S
C470 C469 1.393 . S
C470 C471 1.382 . S
C471 H441 0.929 . S
C471 C466 1.371 . S
C471 C470 1.382 . S
C472 N435 1.423 . S
C472 C473 1.362 . S
C472 C477 1.388 . S
C473 H443 0.929 . S
C473 C472 1.362 . S
C473 C474 1.376 . S
C474 H445 0.931 . S
C474 C473 1.376 . S
C474 C475 1.396 . S
C475 C474 1.396 . S
C475 C476 1.348 . S
C475 C493 1.472 . S
C476 H446 0.929 . S
C476 C475 1.348 . S
C476 C477 1.443 . S
C477 H444 0.932 . S
C477 C472 1.388 . S
C477 C476 1.443 . S
C478 N458 1.433 . S
C478 C479 1.363 1_455 S
C478 C483 1.370 . S
C479 H447 0.929 . S
C479 C478 1.363 1_655 S
C479 C480 1.385 . S
C480 H448 0.930 . S
C480 C479 1.385 . S
C480 C481 1.357 1_655 S
C481 C480 1.357 1_455 S
C481 C482 1.406 . S
C482 H449 0.929 . S
C482 C481 1.406 . S
C482 C483 1.391 . S
C483 H450 0.931 . S
C483 C478 1.370 . S
C483 C482 1.391 . S
C484 N458 1.435 1_655 S
C484 C485 1.358 1_655 S
C484 C489 1.371 . S
C485 H451 0.930 . S
C485 C484 1.358 1_455 S
C485 C486 1.405 1_455 S
C486 H452 0.932 . S
C486 C485 1.405 1_655 S
C486 C487 1.383 . S
C487 C486 1.383 . S
C487 C488 1.393 . S
C488 H453 0.931 . S
C488 C487 1.393 . S
C488 C489 1.382 . S
C489 H454 0.929 . S
C489 C484 1.371 . S
C489 C488 1.382 . S
C490 N458 1.423 . S
C490 C491 1.362 . S
C490 C495 1.388 . S
C491 H455 0.929 . S
C491 C490 1.362 . S
C491 C492 1.376 . S
C492 H456 0.931 . S
C492 C491 1.376 . S
C492 C493 1.396 . S
C493 C475 1.472 . S
C493 C492 1.396 . S
C493 C494 1.348 . S
C494 H457 0.929 . S
C494 C493 1.348 . S
C494 C495 1.443 . S
C495 H459 0.932 . S
C495 C490 1.388 . S
C495 C494 1.443 . S
O496 Cd497 2.223 . S
O496 C504 1.315 . S
Cd497 O496 2.223 . S
Cd497 O500 2.297 . S
Cd497 O501 2.439 . S
Cd497 O507 2.240 . S
Cd498 O499 2.240 . S
Cd498 O506 2.223 . S
Cd498 O508 2.297 . S
Cd498 O509 2.439 . S
O499 Cd498 2.240 . S
O499 C504 1.279 . S
O500 Cd497 2.297 . S
O500 C502 1.247 . S
O501 Cd497 2.439 . S
O501 C502 1.208 . S
C502 O500 1.247 . S
C502 O501 1.208 . S
C503 O508 1.247 . S
C503 O509 1.208 . S
C504 O496 1.315 . S
C504 O499 1.279 . S
C505 O506 1.315 . S
C505 O507 1.279 . S
O506 Cd498 2.223 . S
O506 C505 1.315 . S
O507 Cd497 2.240 . S
O507 C505 1.279 . S
O508 Cd498 2.297 . S
O508 C503 1.247 . S
O509 Cd498 2.439 . S
O509 C503 1.208 . S
O510 Cd511 2.223 . S
O510 C518 1.315 . S
Cd511 O510 2.223 . S
Cd511 O514 2.297 . S
Cd511 O515 2.439 . S
Cd511 O521 2.240 . S
Cd512 O513 2.240 . S
Cd512 O520 2.223 . S
Cd512 O522 2.297 . S
Cd512 O523 2.439 . S
O513 Cd512 2.240 . S
O513 C518 1.279 . S
O514 Cd511 2.297 . S
O514 C516 1.247 . S
O515 Cd511 2.439 . S
O515 C516 1.208 . S
C516 O514 1.247 . S
C516 O515 1.208 . S
C517 O522 1.247 . S
C517 O523 1.208 . S
C518 O510 1.315 . S
C518 O513 1.279 . S
C519 O520 1.315 . S
C519 O521 1.279 . S
O520 Cd512 2.223 . S
O520 C519 1.315 . S
O521 Cd511 2.240 . S
O521 C519 1.279 . S
O522 Cd512 2.297 . S
O522 C517 1.247 . S
O523 Cd512 2.439 . S
O523 C517 1.208 . S
O524 Cd525 2.223 . S
O524 C532 1.315 . S
Cd525 O524 2.223 . S
Cd525 O528 2.297 . S
Cd525 O529 2.439 . S
Cd525 O535 2.240 . S
Cd526 O527 2.240 . S
Cd526 O534 2.223 . S
Cd526 O536 2.297 . S
Cd526 O537 2.439 . S
O527 Cd526 2.240 . S
O527 C532 1.279 . S
O528 Cd525 2.297 . S
O528 C530 1.247 . S
O529 Cd525 2.439 . S
O529 C530 1.208 . S
C530 O528 1.247 . S
C530 O529 1.208 . S
C531 O536 1.247 . S
C531 O537 1.208 . S
C532 O524 1.315 . S
C532 O527 1.279 . S
C533 O534 1.315 . S
C533 O535 1.279 . S
O534 Cd526 2.223 . S
O534 C533 1.315 . S
O535 Cd525 2.240 . S
O535 C533 1.279 . S
O536 Cd526 2.297 . S
O536 C531 1.247 . S
O537 Cd526 2.439 . S
O537 C531 1.208 . S
O538 Cd539 2.223 . S
O538 C546 1.315 . S
Cd539 O538 2.223 . S
Cd539 O542 2.297 . S
Cd539 O543 2.439 . S
Cd539 O549 2.240 . S
Cd540 O541 2.240 . S
Cd540 O548 2.223 . S
Cd540 O550 2.297 . S
Cd540 O551 2.439 . S
O541 Cd540 2.240 . S
O541 C546 1.279 . S
O542 Cd539 2.297 . S
O542 C544 1.247 . S
O543 Cd539 2.439 . S
O543 C544 1.208 . S
C544 O542 1.247 . S
C544 O543 1.208 . S
C545 O550 1.247 . S
C545 O551 1.208 . S
C546 O538 1.315 . S
C546 O541 1.279 . S
C547 O548 1.315 . S
C547 O549 1.279 . S
O548 Cd540 2.223 . S
O548 C547 1.315 . S
O549 Cd539 2.240 . S
O549 C547 1.279 . S
O550 Cd540 2.297 . S
O550 C545 1.247 . S
O551 Cd540 2.439 . S
O551 C545 1.208 . S
O552 Cd553 2.223 . S
O552 C560 1.315 . S
Cd553 O552 2.223 . S
Cd553 O556 2.297 . S
Cd553 O557 2.439 . S
Cd553 O563 2.240 . S
Cd554 O555 2.240 . S
Cd554 O562 2.223 . S
Cd554 O564 2.297 . S
Cd554 O565 2.439 . S
O555 Cd554 2.240 . S
O555 C560 1.279 . S
O556 Cd553 2.297 . S
O556 C558 1.247 . S
O557 Cd553 2.439 . S
O557 C558 1.208 . S
C558 O556 1.247 . S
C558 O557 1.208 . S
C559 O564 1.247 . S
C559 O565 1.208 . S
C560 O552 1.315 . S
C560 O555 1.279 . S
C561 O562 1.315 . S
C561 O563 1.279 . S
O562 Cd554 2.223 . S
O562 C561 1.315 . S
O563 Cd553 2.240 . S
O563 C561 1.279 . S
O564 Cd554 2.297 . S
O564 C559 1.247 . S
O565 Cd554 2.439 . S
O565 C559 1.208 . S
O566 Cd567 2.223 . S
O566 C574 1.315 . S
Cd567 O566 2.223 . S
Cd567 O570 2.297 . S
Cd567 O571 2.439 . S
Cd567 O577 2.240 . S
Cd568 O569 2.240 . S
Cd568 O576 2.223 . S
Cd568 O578 2.297 . S
Cd568 O579 2.439 . S
O569 Cd568 2.240 . S
O569 C574 1.279 . S
O570 Cd567 2.297 . S
O570 C572 1.247 . S
O571 Cd567 2.439 . S
O571 C572 1.208 . S
C572 O570 1.247 . S
C572 O571 1.208 . S
C573 O578 1.247 . S
C573 O579 1.208 . S
C574 O566 1.315 . S
C574 O569 1.279 . S
C575 O576 1.315 . S
C575 O577 1.279 . S
O576 Cd568 2.223 . S
O576 C575 1.315 . S
O577 Cd567 2.240 . S
O577 C575 1.279 . S
O578 Cd568 2.297 . S
O578 C573 1.247 . S
O579 Cd568 2.439 . S
O579 C573 1.208 . S
O580 Cd581 2.223 . S
O580 C588 1.315 . S
Cd581 O580 2.223 . S
Cd581 O584 2.297 . S
Cd581 O585 2.448 . S
Cd581 O591 2.240 1_554 S
Cd582 O583 2.240 1_556 S
Cd582 O590 2.225 . S
Cd582 O592 2.297 . S
Cd582 O593 2.439 . S
O583 Cd582 2.240 1_554 S
O583 C588 1.279 . S
O584 Cd581 2.297 . S
O584 C586 1.247 . S
O585 Cd581 2.448 . S
O585 C586 1.241 . S
C586 O584 1.247 . S
C586 O585 1.241 . S
C587 O592 1.247 . S
C587 O593 1.208 . S
C588 O580 1.315 . S
C588 O583 1.279 . S
C589 O590 1.322 . S
C589 O591 1.279 . S
O590 Cd582 2.225 . S
O590 C589 1.322 . S
O591 Cd581 2.240 1_556 S
O591 C589 1.279 . S
O592 Cd582 2.297 . S
O592 C587 1.247 . S
O593 Cd582 2.439 . S
O593 C587 1.208 . S
O594 Cd595 2.223 . S
O594 C602 1.315 . S
Cd595 O594 2.223 . S
Cd595 O598 2.297 . S
Cd595 O599 2.439 . S
Cd595 O605 2.240 . S
Cd596 O597 2.240 . S
Cd596 O604 2.223 . S
Cd596 O606 2.297 . S
Cd596 O607 2.439 . S
O597 Cd596 2.240 . S
O597 C602 1.279 . S
O598 Cd595 2.297 . S
O598 C600 1.247 . S
O599 Cd595 2.439 . S
O599 C600 1.208 . S
C600 O598 1.247 . S
C600 O599 1.208 . S
C601 O606 1.247 . S
C601 O607 1.208 . S
C602 O594 1.315 . S
C602 O597 1.279 . S
C603 O604 1.315 . S
C603 O605 1.279 . S
O604 Cd596 2.223 . S
O604 C603 1.315 . S
O605 Cd595 2.240 . S
O605 C603 1.279 . S
O606 Cd596 2.297 . S
O606 C601 1.247 . S
O607 Cd596 2.439 . S
O607 C601 1.208 . S
H608 C616 0.950 . S
H609 C621 0.950 . S
H610 C618 0.950 . S
H611 C620 0.950 . S
H612 C622 0.950 . S
H613 C624 0.950 . S
H614 C626 0.950 . S
H615 C627 0.950 . S
C616 H608 0.950 . S
C616 C617 1.386 . S
C616 C618 1.391 . S
C617 C616 1.386 . S
C617 C621 1.393 . S
C618 H610 0.950 . S
C618 C616 1.391 . S
C618 C619 1.400 . S
C619 C618 1.400 . S
C619 C620 1.398 . S
C619 C625 1.491 . S
C620 H611 0.950 . S
C620 C619 1.398 . S
C620 C621 1.391 . S
C621 H609 0.950 . S
C621 C617 1.393 . S
C621 C620 1.391 . S
C622 H612 0.950 . S
C622 C623 1.386 . S
C622 C624 1.391 . S
C623 C622 1.386 . S
C623 C627 1.393 . S
C624 H613 0.950 . S
C624 C622 1.391 . S
C624 C625 1.400 . S
C625 C619 1.491 . S
C625 C624 1.400 . S
C625 C626 1.398 . S
C626 H614 0.950 . S
C626 C625 1.398 . S
C626 C627 1.391 . S
C627 H615 0.950 . S
C627 C623 1.393 . S
C627 C626 1.391 . S
H628 C636 0.950 . S
H629 C641 0.950 . S
H630 C638 0.950 . S
H631 C640 0.950 . S
H632 C642 0.950 . S
H633 C644 0.950 . S
H634 C646 0.950 . S
H635 C647 0.950 . S
C636 H628 0.950 . S
C636 C637 1.386 . S
C636 C638 1.391 . S
C637 C636 1.386 . S
C637 C641 1.393 . S
C638 H630 0.950 . S
C638 C636 1.391 . S
C638 C639 1.400 . S
C639 C638 1.400 . S
C639 C640 1.398 . S
C639 C645 1.491 . S
C640 H631 0.950 . S
C640 C639 1.398 . S
C640 C641 1.391 . S
C641 H629 0.950 . S
C641 C637 1.393 . S
C641 C640 1.391 . S
C642 H632 0.950 . S
C642 C643 1.386 . S
C642 C644 1.391 . S
C643 C642 1.386 . S
C643 C647 1.393 . S
C644 H633 0.950 . S
C644 C642 1.391 . S
C644 C645 1.400 . S
C645 C639 1.491 . S
C645 C644 1.400 . S
C645 C646 1.398 . S
C646 H634 0.950 . S
C646 C645 1.398 . S
C646 C647 1.391 . S
C647 H635 0.950 . S
C647 C643 1.393 . S
C647 C646 1.391 . S
H648 C656 0.950 . S
H649 C661 0.950 . S
H650 C658 0.950 . S
H651 C660 0.950 . S
H652 C662 0.950 . S
H653 C664 0.950 . S
H654 C666 0.950 . S
H655 C667 0.950 . S
C656 H648 0.950 . S
C656 C657 1.386 . S
C656 C658 1.391 . S
C657 C656 1.386 . S
C657 C661 1.393 . S
C658 H650 0.950 . S
C658 C656 1.391 . S
C658 C659 1.400 . S
C659 C658 1.400 . S
C659 C660 1.398 . S
C659 C665 1.491 . S
C660 H651 0.950 . S
C660 C659 1.398 . S
C660 C661 1.391 . S
C661 H649 0.950 . S
C661 C657 1.393 . S
C661 C660 1.391 . S
C662 H652 0.950 . S
C662 C663 1.386 . S
C662 C664 1.391 . S
C663 C662 1.386 . S
C663 C667 1.393 . S
C664 H653 0.950 . S
C664 C662 1.391 . S
C664 C665 1.400 . S
C665 C659 1.491 . S
C665 C664 1.400 . S
C665 C666 1.398 . S
C666 H654 0.950 . S
C666 C665 1.398 . S
C666 C667 1.391 . S
C667 H655 0.950 . S
C667 C663 1.393 . S
C667 C666 1.391 . S
H668 C676 0.950 . S
H669 C681 0.950 . S
H670 C678 0.950 . S
H671 C680 0.950 . S
H672 C682 0.950 . S
H673 C684 0.950 . S
H674 C686 0.950 . S
H675 C687 0.950 . S
C676 H668 0.950 . S
C676 C677 1.386 . S
C676 C678 1.391 . S
C677 C676 1.386 . S
C677 C681 1.393 . S
C678 H670 0.950 . S
C678 C676 1.391 . S
C678 C679 1.400 . S
C679 C678 1.400 . S
C679 C680 1.398 . S
C679 C685 1.491 . S
C680 H671 0.950 . S
C680 C679 1.398 . S
C680 C681 1.391 . S
C681 H669 0.950 . S
C681 C677 1.393 . S
C681 C680 1.391 . S
C682 H672 0.950 . S
C682 C683 1.386 . S
C682 C684 1.391 . S
C683 C682 1.386 . S
C683 C687 1.393 . S
C684 H673 0.950 . S
C684 C682 1.391 . S
C684 C685 1.400 . S
C685 C679 1.491 . S
C685 C684 1.400 . S
C685 C686 1.398 . S
C686 H674 0.950 . S
C686 C685 1.398 . S
C686 C687 1.391 . S
C687 H675 0.950 . S
C687 C683 1.393 . S
C687 C686 1.391 . S
H688 C696 0.950 . S
H689 C701 0.950 . S
H690 C698 0.950 . S
H691 C700 0.950 . S
H692 C702 0.950 . S
H693 C704 0.950 . S
H694 C706 0.950 . S
H695 C707 0.950 . S
C696 H688 0.950 . S
C696 C697 1.386 . S
C696 C698 1.391 . S
C697 C696 1.386 . S
C697 C701 1.393 . S
C698 H690 0.950 . S
C698 C696 1.391 . S
C698 C699 1.400 . S
C699 C698 1.400 . S
C699 C700 1.398 . S
C699 C705 1.491 . S
C700 H691 0.950 . S
C700 C699 1.398 . S
C700 C701 1.391 . S
C701 H689 0.950 . S
C701 C697 1.393 . S
C701 C700 1.391 . S
C702 H692 0.950 . S
C702 C703 1.386 . S
C702 C704 1.391 . S
C703 C702 1.386 . S
C703 C707 1.393 . S
C704 H693 0.950 . S
C704 C702 1.391 . S
C704 C705 1.400 . S
C705 C699 1.491 . S
C705 C704 1.400 . S
C705 C706 1.398 . S
C706 H694 0.950 . S
C706 C705 1.398 . S
C706 C707 1.391 . S
C707 H695 0.950 . S
C707 C703 1.393 . S
C707 C706 1.391 . S
H708 C716 0.950 . S
H709 C721 0.950 . S
H710 C718 0.950 . S
H711 C720 0.950 . S
H712 C722 0.950 . S
H713 C724 0.950 . S
H714 C726 0.950 . S
H715 C727 0.950 . S
C716 H708 0.950 . S
C716 C717 1.386 . S
C716 C718 1.391 . S
C717 C716 1.386 . S
C717 C721 1.393 . S
C718 H710 0.950 . S
C718 C716 1.391 . S
C718 C719 1.400 . S
C719 C718 1.400 . S
C719 C720 1.398 . S
C719 C725 1.491 . S
C720 H711 0.950 . S
C720 C719 1.398 . S
C720 C721 1.391 . S
C721 H709 0.950 . S
C721 C717 1.393 . S
C721 C720 1.391 . S
C722 H712 0.950 . S
C722 C723 1.386 . S
C722 C724 1.391 . S
C723 C722 1.386 . S
C723 C727 1.393 . S
C724 H713 0.950 . S
C724 C722 1.391 . S
C724 C725 1.400 . S
C725 C719 1.491 . S
C725 C724 1.400 . S
C725 C726 1.398 . S
C726 H714 0.950 . S
C726 C725 1.398 . S
C726 C727 1.391 . S
C727 H715 0.950 . S
C727 C723 1.393 . S
C727 C726 1.391 . S
H728 C736 0.950 . S
H729 C741 0.950 . S
H730 C738 0.950 . S
H731 C740 0.950 . S
H732 C742 0.950 . S
H733 C744 0.950 . S
H734 C746 0.950 . S
H735 C747 0.950 . S
C736 H728 0.950 . S
C736 C737 1.386 . S
C736 C738 1.391 . S
C737 C736 1.386 . S
C737 C741 1.393 . S
C738 H730 0.950 . S
C738 C736 1.391 . S
C738 C739 1.400 . S
C739 C738 1.400 . S
C739 C740 1.398 . S
C739 C745 1.491 . S
C740 H731 0.950 . S
C740 C739 1.398 . S
C740 C741 1.391 . S
C741 H729 0.950 . S
C741 C737 1.393 . S
C741 C740 1.391 . S
C742 H732 0.950 . S
C742 C743 1.386 . S
C742 C744 1.391 . S
C743 C742 1.386 . S
C743 C747 1.393 . S
C744 H733 0.950 . S
C744 C742 1.391 . S
C744 C745 1.400 . S
C745 C739 1.491 . S
C745 C744 1.400 . S
C745 C746 1.398 . S
C746 H734 0.950 . S
C746 C745 1.398 . S
C746 C747 1.391 . S
C747 H735 0.950 . S
C747 C743 1.393 . S
C747 C746 1.391 . S
H748 C756 0.950 1_545 S
H749 C761 0.950 . S
H750 C758 0.950 . S
H751 C760 0.950 . S
H752 C762 0.950 . S
H753 C764 0.950 . S
H754 C766 0.950 . S
H755 C767 0.950 . S
C756 H748 0.950 1_565 S
C756 C757 1.377 1_565 S
C756 C758 1.391 . S
C757 C756 1.377 1_545 S
C757 C761 1.377 1_545 S
C758 H750 0.950 . S
C758 C756 1.391 . S
C758 C759 1.400 . S
C759 C758 1.400 . S
C759 C760 1.398 . S
C759 C765 1.491 . S
C760 H751 0.950 . S
C760 C759 1.398 . S
C760 C761 1.391 . S
C761 H749 0.950 . S
C761 C757 1.377 1_565 S
C761 C760 1.391 . S
C762 H752 0.950 . S
C762 C763 1.386 . S
C762 C764 1.391 . S
C763 C762 1.386 . S
C763 C767 1.393 . S
C764 H753 0.950 . S
C764 C762 1.391 . S
C764 C765 1.400 . S
C765 C759 1.491 . S
C765 C764 1.400 . S
C765 C766 1.398 . S
C766 H754 0.950 . S
C766 C765 1.398 . S
C766 C767 1.391 . S
C767 H755 0.950 . S
C767 C763 1.393 . S
C767 C766 1.391 . S
H768 C776 0.950 . S
H769 C781 0.950 . S
H770 C778 0.950 . S
H771 C780 0.950 . S
H772 C782 0.950 . S
H773 C784 0.950 . S
H774 C786 0.950 . S
H775 C787 0.950 . S
C776 H768 0.950 . S
C776 C777 1.386 . S
C776 C778 1.391 . S
C777 C776 1.386 . S
C777 C781 1.393 . S
C778 H770 0.950 . S
C778 C776 1.391 . S
C778 C779 1.400 . S
C779 C778 1.400 . S
C779 C780 1.398 . S
C779 C785 1.491 . S
C780 H771 0.950 . S
C780 C779 1.398 . S
C780 C781 1.391 . S
C781 H769 0.950 . S
C781 C777 1.393 . S
C781 C780 1.391 . S
C782 H772 0.950 . S
C782 C783 1.386 . S
C782 C784 1.391 . S
C783 C782 1.386 . S
C783 C787 1.393 . S
C784 H773 0.950 . S
C784 C782 1.391 . S
C784 C785 1.400 . S
C785 C779 1.491 . S
C785 C784 1.400 . S
C785 C786 1.398 . S
C786 H774 0.950 . S
C786 C785 1.398 . S
C786 C787 1.391 . S
C787 H775 0.950 . S
C787 C783 1.393 . S
C787 C786 1.391 . S
H788 C796 0.950 . S
H789 C801 0.950 . S
H790 C798 0.950 . S
H791 C800 0.950 . S
H792 C802 0.950 . S
H793 C804 0.950 . S
H794 C806 0.950 1_556 S
H795 C807 0.950 1_556 S
C796 H788 0.950 . S
C796 C797 1.386 . S
C796 C798 1.391 . S
C797 C796 1.386 . S
C797 C801 1.393 . S
C798 H790 0.950 . S
C798 C796 1.391 . S
C798 C799 1.400 . S
C799 C798 1.400 . S
C799 C800 1.398 . S
C799 C805 1.491 . S
C800 H791 0.950 . S
C800 C799 1.398 . S
C800 C801 1.391 . S
C801 H789 0.950 . S
C801 C797 1.393 . S
C801 C800 1.391 . S
C802 H792 0.950 . S
C802 C803 1.386 . S
C802 C804 1.391 . S
C803 C802 1.386 . S
C803 C807 1.393 . S
C804 H793 0.950 . S
C804 C802 1.391 . S
C804 C805 1.400 . S
C805 C799 1.491 . S
C805 C804 1.400 . S
C805 C806 1.398 . S
C806 H794 0.950 1_554 S
C806 C805 1.398 . S
C806 C807 1.391 . S
C807 H795 0.950 1_554 S
C807 C803 1.393 . S
C807 C806 1.391 . S
H808 C816 0.950 . S
H809 C821 0.950 . S
H810 C818 0.950 . S
H811 C820 0.950 . S
H812 C822 0.950 . S
H813 C824 0.950 . S
H814 C826 0.950 . S
H815 C827 0.950 . S
C816 H808 0.950 . S
C816 C817 1.386 . S
C816 C818 1.391 . S
C817 C816 1.386 . S
C817 C821 1.393 . S
C818 H810 0.950 . S
C818 C816 1.391 . S
C818 C819 1.400 . S
C819 C818 1.400 . S
C819 C820 1.398 . S
C819 C825 1.491 . S
C820 H811 0.950 . S
C820 C819 1.398 . S
C820 C821 1.391 . S
C821 H809 0.950 . S
C821 C817 1.393 . S
C821 C820 1.391 . S
C822 H812 0.950 . S
C822 C823 1.386 . S
C822 C824 1.391 . S
C823 C822 1.386 . S
C823 C827 1.393 . S
C824 H813 0.950 . S
C824 C822 1.391 . S
C824 C825 1.400 . S
C825 C819 1.491 . S
C825 C824 1.400 . S
C825 C826 1.398 . S
C826 H814 0.950 . S
C826 C825 1.398 . S
C826 C827 1.391 . S
C827 H815 0.950 . S
C827 C823 1.393 . S
C827 C826 1.391 . S
H828 C836 0.950 . S
H829 C841 0.950 . S
H830 C838 0.950 . S
H831 C840 0.950 . S
H832 C842 0.950 . S
H833 C844 0.950 . S
H834 C846 0.950 . S
H835 C847 0.950 . S
C836 H828 0.950 . S
C836 C837 1.386 . S
C836 C838 1.391 . S
C837 C836 1.386 . S
C837 C841 1.393 . S
C838 H830 0.950 . S
C838 C836 1.391 . S
C838 C839 1.400 . S
C839 C838 1.400 . S
C839 C840 1.398 . S
C839 C845 1.491 . S
C840 H831 0.950 . S
C840 C839 1.398 . S
C840 C841 1.391 . S
C841 H829 0.950 . S
C841 C837 1.393 . S
C841 C840 1.391 . S
C842 H832 0.950 . S
C842 C843 1.386 . S
C842 C844 1.391 . S
C843 C842 1.386 . S
C843 C847 1.393 . S
C844 H833 0.950 . S
C844 C842 1.391 . S
C844 C845 1.400 . S
C845 C839 1.491 . S
C845 C844 1.400 . S
C845 C846 1.398 . S
C846 H834 0.950 . S
C846 C845 1.398 . S
C846 C847 1.391 . S
C847 H835 0.950 . S
C847 C843 1.393 . S
C847 C846 1.391 . S
H848 C856 0.950 . S
H849 C861 0.950 . S
H850 C858 0.950 . S
H851 C860 0.950 . S
H852 C862 0.950 . S
H853 C864 0.950 . S
H854 C866 0.950 . S
H855 C867 0.950 . S
C856 H848 0.950 . S
C856 C857 1.386 . S
C856 C858 1.391 . S
C857 C856 1.386 . S
C857 C861 1.393 . S
C858 H850 0.950 . S
C858 C856 1.391 . S
C858 C859 1.400 . S
C859 C858 1.400 . S
C859 C860 1.398 . S
C859 C865 1.491 . S
C860 H851 0.950 . S
C860 C859 1.398 . S
C860 C861 1.391 . S
C861 H849 0.950 . S
C861 C857 1.393 . S
C861 C860 1.391 . S
C862 H852 0.950 . S
C862 C863 1.386 . S
C862 C864 1.391 . S
C863 C862 1.386 . S
C863 C867 1.393 . S
C864 H853 0.950 . S
C864 C862 1.391 . S
C864 C865 1.400 . S
C865 C859 1.491 . S
C865 C864 1.400 . S
C865 C866 1.398 . S
C866 H854 0.950 . S
C866 C865 1.398 . S
C866 C867 1.391 . S
C867 H855 0.950 . S
C867 C863 1.393 . S
C867 C866 1.391 . S
H868 C876 0.950 . S
H869 C881 0.950 . S
H870 C878 0.950 . S
H871 C880 0.950 . S
H872 C882 0.950 . S
H873 C884 0.950 . S
H874 C886 0.950 . S
H875 C887 0.950 . S
C876 H868 0.950 . S
C876 C877 1.386 . S
C876 C878 1.391 . S
C877 C876 1.386 . S
C877 C881 1.393 . S
C878 H870 0.950 . S
C878 C876 1.391 . S
C878 C879 1.400 . S
C879 C878 1.400 . S
C879 C880 1.398 . S
C879 C885 1.491 . S
C880 H871 0.950 . S
C880 C879 1.398 . S
C880 C881 1.391 . S
C881 H869 0.950 . S
C881 C877 1.393 . S
C881 C880 1.391 . S
C882 H872 0.950 . S
C882 C883 1.386 . S
C882 C884 1.391 . S
C883 C882 1.386 . S
C883 C887 1.393 . S
C884 H873 0.950 . S
C884 C882 1.391 . S
C884 C885 1.400 . S
C885 C879 1.491 . S
C885 C884 1.400 . S
C885 C886 1.398 . S
C886 H874 0.950 . S
C886 C885 1.398 . S
C886 C887 1.391 . S
C887 H875 0.950 . S
C887 C883 1.393 . S
C887 C886 1.391 . S
H888 C896 0.950 . S
H889 C901 0.950 . S
H890 C898 0.950 . S
H891 C900 0.950 . S
H892 C902 0.950 . S
H893 C904 0.950 . S
H894 C906 0.950 . S
H895 C907 0.950 . S
C896 H888 0.950 . S
C896 C897 1.386 1_554 S
C896 C898 1.391 . S
C897 C896 1.386 1_556 S
C897 C901 1.393 . S
C898 H890 0.950 . S
C898 C896 1.391 . S
C898 C899 1.400 1_554 S
C899 C898 1.400 1_556 S
C899 C900 1.398 . S
C899 C905 1.491 . S
C900 H891 0.950 . S
C900 C899 1.398 . S
C900 C901 1.391 . S
C901 H889 0.950 . S
C901 C897 1.393 . S
C901 C900 1.391 . S
C902 H892 0.950 . S
C902 C903 1.386 . S
C902 C904 1.391 . S
C903 C902 1.386 . S
C903 C907 1.393 1_556 S
C904 H893 0.950 . S
C904 C902 1.391 . S
C904 C905 1.400 . S
C905 C899 1.491 . S
C905 C904 1.400 . S
C905 C906 1.398 1_556 S
C906 H894 0.950 . S
C906 C905 1.398 1_554 S
C906 C907 1.391 . S
C907 H895 0.950 . S
C907 C903 1.393 1_554 S
C907 C906 1.391 . S
H908 C916 0.950 . S
H909 C921 0.950 . S
H910 C918 0.950 . S
H911 C920 0.950 . S
H912 C922 0.950 . S
H913 C924 0.950 . S
H914 C926 0.950 . S
H915 C927 0.950 . S
C916 H908 0.950 . S
C916 C917 1.386 . S
C916 C918 1.391 . S
C917 C916 1.386 . S
C917 C921 1.393 . S
C918 H910 0.950 . S
C918 C916 1.391 . S
C918 C919 1.400 . S
C919 C918 1.400 . S
C919 C920 1.398 . S
C919 C925 1.491 . S
C920 H911 0.950 . S
C920 C919 1.398 . S
C920 C921 1.391 . S
C921 H909 0.950 . S
C921 C917 1.393 . S
C921 C920 1.391 . S
C922 H912 0.950 . S
C922 C923 1.386 . S
C922 C924 1.391 . S
C923 C922 1.386 . S
C923 C927 1.393 . S
C924 H913 0.950 . S
C924 C922 1.391 . S
C924 C925 1.400 . S
C925 C919 1.491 . S
C925 C924 1.400 . S
C925 C926 1.398 . S
C926 H914 0.950 . S
C926 C925 1.398 . S
C926 C927 1.391 . S
C927 H915 0.950 . S
C927 C923 1.393 . S
C927 C926 1.391 . S
H928 C936 0.950 . S
H929 C941 0.950 . S
H930 C938 0.950 . S
H931 C940 0.950 . S
H932 C942 0.950 . S
H933 C944 0.950 . S
H934 C946 0.950 . S
H935 C947 0.950 . S
C936 H928 0.950 . S
C936 C937 1.386 . S
C936 C938 1.391 . S
C937 C936 1.386 . S
C937 C941 1.393 . S
C938 H930 0.950 . S
C938 C936 1.391 . S
C938 C939 1.400 . S
C939 C938 1.400 . S
C939 C940 1.398 . S
C939 C945 1.491 . S
C940 H931 0.950 . S
C940 C939 1.398 . S
C940 C941 1.391 . S
C941 H929 0.950 . S
C941 C937 1.393 . S
C941 C940 1.391 . S
C942 H932 0.950 . S
C942 C943 1.386 . S
C942 C944 1.391 . S
C943 C942 1.386 . S
C943 C947 1.393 . S
C944 H933 0.950 . S
C944 C942 1.391 . S
C944 C945 1.400 . S
C945 C939 1.491 . S
C945 C944 1.400 . S
C945 C946 1.398 . S
C946 H934 0.950 . S
C946 C945 1.398 . S
C946 C947 1.391 . S
C947 H935 0.950 . S
C947 C943 1.393 . S
C947 C946 1.391 . S
H948 C956 0.950 . S
H949 C961 0.950 . S
H950 C958 0.950 . S
H951 C960 0.950 . S
H952 C962 0.950 . S
H953 C964 0.950 . S
H954 C966 0.950 . S
H955 C967 0.950 . S
C956 H948 0.950 . S
C956 C957 1.386 . S
C956 C958 1.391 . S
C957 C956 1.386 . S
C957 C961 1.393 . S
C958 H950 0.950 . S
C958 C956 1.391 . S
C958 C959 1.400 . S
C959 C958 1.400 . S
C959 C960 1.398 . S
C959 C965 1.491 . S
C960 H951 0.950 . S
C960 C959 1.398 . S
C960 C961 1.391 . S
C961 H949 0.950 . S
C961 C957 1.393 . S
C961 C960 1.391 . S
C962 H952 0.950 . S
C962 C963 1.386 . S
C962 C964 1.391 . S
C963 C962 1.386 . S
C963 C967 1.393 . S
C964 H953 0.950 . S
C964 C962 1.391 . S
C964 C965 1.400 . S
C965 C959 1.491 . S
C965 C964 1.400 . S
C965 C966 1.398 . S
C966 H954 0.950 . S
C966 C965 1.398 . S
C966 C967 1.391 . S
C967 H955 0.950 . S
C967 C963 1.393 . S
C967 C966 1.391 . S
H968 C976 0.950 . S
H969 C981 0.950 . S
H970 C978 0.950 . S
H971 C980 0.950 . S
H972 C982 0.950 . S
H973 C984 0.950 . S
H974 C986 0.950 . S
H975 C987 0.950 . S
C976 H968 0.950 . S
C976 C977 1.386 . S
C976 C978 1.391 . S
C977 C976 1.386 . S
C977 C981 1.393 . S
C978 H970 0.950 . S
C978 C976 1.391 . S
C978 C979 1.400 . S
C979 C978 1.400 . S
C979 C980 1.398 . S
C979 C985 1.491 . S
C980 H971 0.950 . S
C980 C979 1.398 . S
C980 C981 1.391 . S
C981 H969 0.950 . S
C981 C977 1.393 . S
C981 C980 1.391 . S
C982 H972 0.950 . S
C982 C983 1.386 . S
C982 C984 1.391 . S
C983 C982 1.386 . S
C983 C987 1.393 . S
C984 H973 0.950 . S
C984 C982 1.391 . S
C984 C985 1.400 . S
C985 C979 1.491 . S
C985 C984 1.400 . S
C985 C986 1.398 . S
C986 H974 0.950 . S
C986 C985 1.398 . S
C986 C987 1.391 . S
C987 H975 0.950 . S
C987 C983 1.393 . S
C987 C986 1.391 . S
H988 C996 0.950 . S
H989 C1001 0.950 . S
H990 C998 0.950 . S
H991 C1000 0.950 . S
H992 C1002 0.950 . S
H993 C1004 0.950 . S
H994 C1006 0.950 . S
H995 C1007 0.950 . S
C996 H988 0.950 . S
C996 C997 1.386 . S
C996 C998 1.391 . S
C997 C996 1.386 . S
C997 C1001 1.393 . S
C998 H990 0.950 . S
C998 C996 1.391 . S
C998 C999 1.400 . S
C999 C998 1.400 . S
C999 C1000 1.398 . S
C999 C1005 1.491 . S
C1000 H991 0.950 . S
C1000 C999 1.398 . S
C1000 C1001 1.391 . S
C1001 H989 0.950 . S
C1001 C997 1.393 . S
C1001 C1000 1.391 . S
C1002 H992 0.950 . S
C1002 C1003 1.386 . S
C1002 C1004 1.391 . S
C1003 C1002 1.386 . S
C1003 C1007 1.393 . S
C1004 H993 0.950 . S
C1004 C1002 1.391 . S
C1004 C1005 1.400 . S
C1005 C999 1.491 . S
C1005 C1004 1.400 . S
C1005 C1006 1.398 . S
C1006 H994 0.950 . S
C1006 C1005 1.398 . S
C1006 C1007 1.391 . S
C1007 H995 0.950 . S
C1007 C1003 1.393 . S
C1007 C1006 1.391 . S
H1008 C1016 0.950 . S
H1009 C1021 0.950 . S
H1010 C1018 0.950 . S
H1011 C1020 0.950 . S
H1012 C1022 0.950 . S
H1013 C1024 0.950 . S
H1014 C1026 0.950 . S
H1015 C1027 0.950 . S
C1016 H1008 0.950 . S
C1016 C1017 1.386 . S
C1016 C1018 1.391 . S
C1017 C1016 1.386 . S
C1017 C1021 1.393 . S
C1018 H1010 0.950 . S
C1018 C1016 1.391 . S
C1018 C1019 1.400 . S
C1019 C1018 1.400 . S
C1019 C1020 1.398 . S
C1019 C1025 1.491 . S
C1020 H1011 0.950 . S
C1020 C1019 1.398 . S
C1020 C1021 1.391 . S
C1021 H1009 0.950 . S
C1021 C1017 1.393 . S
C1021 C1020 1.391 . S
C1022 H1012 0.950 . S
C1022 C1023 1.386 . S
C1022 C1024 1.391 . S
C1023 C1022 1.386 . S
C1023 C1027 1.393 . S
C1024 H1013 0.950 . S
C1024 C1022 1.391 . S
C1024 C1025 1.400 . S
C1025 C1019 1.491 . S
C1025 C1024 1.400 . S
C1025 C1026 1.398 . S
C1026 H1014 0.950 . S
C1026 C1025 1.398 . S
C1026 C1027 1.391 . S
C1027 H1015 0.950 . S
C1027 C1023 1.393 . S
C1027 C1026 1.391 . S
H1028 C1036 0.950 . S
H1029 C1041 0.950 . S
H1030 C1038 0.950 . S
H1031 C1040 0.950 . S
H1032 C1042 0.950 . S
H1033 C1044 0.950 . S
H1034 C1046 0.950 . S
H1035 C1047 0.950 . S
C1036 H1028 0.950 . S
C1036 C1037 1.386 . S
C1036 C1038 1.391 . S
C1037 C1036 1.386 . S
C1037 C1041 1.393 . S
C1038 H1030 0.950 . S
C1038 C1036 1.391 . S
C1038 C1039 1.400 . S
C1039 C1038 1.400 . S
C1039 C1040 1.398 . S
C1039 C1045 1.491 . S
C1040 H1031 0.950 . S
C1040 C1039 1.398 . S
C1040 C1041 1.391 . S
C1041 H1029 0.950 . S
C1041 C1037 1.393 . S
C1041 C1040 1.391 . S
C1042 H1032 0.950 . S
C1042 C1043 1.386 . S
C1042 C1044 1.391 . S
C1043 C1042 1.386 . S
C1043 C1047 1.393 . S
C1044 H1033 0.950 . S
C1044 C1042 1.391 . S
C1044 C1045 1.400 . S
C1045 C1039 1.491 . S
C1045 C1044 1.400 . S
C1045 C1046 1.398 . S
C1046 H1034 0.950 . S
C1046 C1045 1.398 . S
C1046 C1047 1.391 . S
C1047 H1035 0.950 . S
C1047 C1043 1.393 . S
C1047 C1046 1.391 . S
H1048 C1056 0.950 . S
H1049 C1061 0.950 . S
H1050 C1058 0.950 . S
H1051 C1060 0.950 . S
H1052 C1062 0.950 . S
H1053 C1064 0.950 . S
H1054 C1066 0.950 . S
H1055 C1067 0.950 . S
C1056 H1048 0.950 . S
C1056 C1057 1.386 . S
C1056 C1058 1.391 . S
C1057 C1056 1.386 . S
C1057 C1061 1.393 . S
C1058 H1050 0.950 . S
C1058 C1056 1.391 . S
C1058 C1059 1.400 . S
C1059 C1058 1.400 . S
C1059 C1060 1.398 . S
C1059 C1065 1.491 . S
C1060 H1051 0.950 . S
C1060 C1059 1.398 . S
C1060 C1061 1.391 . S
C1061 H1049 0.950 . S
C1061 C1057 1.393 . S
C1061 C1060 1.391 . S
C1062 H1052 0.950 . S
C1062 C1063 1.386 . S
C1062 C1064 1.391 . S
C1063 C1062 1.386 . S
C1063 C1067 1.393 . S
C1064 H1053 0.950 . S
C1064 C1062 1.391 . S
C1064 C1065 1.400 . S
C1065 C1059 1.491 . S
C1065 C1064 1.400 . S
C1065 C1066 1.398 . S
C1066 H1054 0.950 . S
C1066 C1065 1.398 . S
C1066 C1067 1.391 . S
C1067 H1055 0.950 . S
C1067 C1063 1.393 . S
C1067 C1066 1.391 . S
H1068 C1076 0.950 . S
H1069 C1081 0.950 . S
H1070 C1078 0.950 . S
H1071 C1080 0.950 . S
H1072 C1082 0.950 . S
H1073 C1084 0.950 . S
H1074 C1086 0.950 . S
H1075 C1087 0.950 . S
C1076 H1068 0.950 . S
C1076 C1077 1.386 1_565 S
C1076 C1078 1.391 . S
C1077 C1076 1.386 1_545 S
C1077 C1081 1.393 . S
C1078 H1070 0.950 . S
C1078 C1076 1.391 . S
C1078 C1079 1.400 . S
C1079 C1078 1.400 . S
C1079 C1080 1.398 1_565 S
C1079 C1085 1.491 . S
C1080 H1071 0.950 . S
C1080 C1079 1.398 1_545 S
C1080 C1081 1.391 . S
C1081 H1069 0.950 . S
C1081 C1077 1.393 . S
C1081 C1080 1.391 . S
C1082 H1072 0.950 . S
C1082 C1083 1.386 . S
C1082 C1084 1.391 . S
C1083 C1082 1.386 . S
C1083 C1087 1.393 . S
C1084 H1073 0.950 . S
C1084 C1082 1.391 . S
C1084 C1085 1.400 . S
C1085 C1079 1.491 . S
C1085 C1084 1.400 . S
C1085 C1086 1.398 . S
C1086 H1074 0.950 . S
C1086 C1085 1.398 . S
C1086 C1087 1.391 . S
C1087 H1075 0.950 . S
C1087 C1083 1.393 . S
C1087 C1086 1.391 . S
H1088 C1096 0.950 . S
H1089 C1101 0.950 . S
H1090 C1098 0.950 . S
H1091 C1100 0.950 . S
H1092 C1102 0.950 . S
H1093 C1104 0.950 . S
H1094 C1106 0.950 . S
H1095 C1107 0.950 . S
C1096 H1088 0.950 . S
C1096 C1097 1.386 . S
C1096 C1098 1.391 . S
C1097 C1096 1.386 . S
C1097 C1101 1.393 . S
C1098 H1090 0.950 . S
C1098 C1096 1.391 . S
C1098 C1099 1.400 . S
C1099 C1098 1.400 . S
C1099 C1100 1.398 . S
C1099 C1105 1.491 . S
C1100 H1091 0.950 . S
C1100 C1099 1.398 . S
C1100 C1101 1.391 . S
C1101 H1089 0.950 . S
C1101 C1097 1.393 . S
C1101 C1100 1.391 . S
C1102 H1092 0.950 . S
C1102 C1103 1.386 . S
C1102 C1104 1.391 . S
C1103 C1102 1.386 . S
C1103 C1107 1.393 . S
C1104 H1093 0.950 . S
C1104 C1102 1.391 . S
C1104 C1105 1.400 . S
C1105 C1099 1.491 . S
C1105 C1104 1.400 . S
C1105 C1106 1.398 . S
C1106 H1094 0.950 . S
C1106 C1105 1.398 . S
C1106 C1107 1.391 . S
C1107 H1095 0.950 . S
C1107 C1103 1.393 . S
C1107 C1106 1.391 . S
H1108 C1116 0.950 . S
H1109 C1121 0.950 . S
H1110 C1118 0.950 . S
H1111 C1120 0.950 . S
H1112 C1122 0.950 . S
H1113 C1124 0.950 . S
H1114 C1126 0.950 . S
H1115 C1127 0.950 . S
C1116 H1108 0.950 . S
C1116 C1117 1.386 . S
C1116 C1118 1.391 . S
C1117 C1116 1.386 . S
C1117 C1121 1.393 . S
C1118 H1110 0.950 . S
C1118 C1116 1.391 . S
C1118 C1119 1.400 . S
C1119 C1118 1.400 . S
C1119 C1120 1.398 . S
C1119 C1125 1.491 . S
C1120 H1111 0.950 . S
C1120 C1119 1.398 . S
C1120 C1121 1.391 . S
C1121 H1109 0.950 . S
C1121 C1117 1.393 . S
C1121 C1120 1.391 . S
C1122 H1112 0.950 . S
C1122 C1123 1.386 . S
C1122 C1124 1.391 . S
C1123 C1122 1.386 . S
C1123 C1127 1.393 . S
C1124 H1113 0.950 . S
C1124 C1122 1.391 . S
C1124 C1125 1.400 . S
C1125 C1119 1.491 . S
C1125 C1124 1.400 . S
C1125 C1126 1.398 . S
C1126 H1114 0.950 . S
C1126 C1125 1.398 . S
C1126 C1127 1.391 . S
C1127 H1115 0.950 . S
C1127 C1123 1.393 . S
C1127 C1126 1.391 . S
H1128 C1136 0.950 1_455 S
H1129 C1141 0.950 . S
H1130 C1138 0.950 . S
H1131 C1140 0.950 . S
H1132 C1142 0.950 . S
H1133 C1144 0.950 . S
H1134 C1146 0.950 . S
H1135 C1147 0.950 . S
C1136 H1128 0.950 1_655 S
C1136 C1137 1.386 . S
C1136 C1138 1.391 . S
C1137 C1136 1.386 . S
C1137 C1141 1.393 . S
C1138 H1130 0.950 . S
C1138 C1136 1.391 . S
C1138 C1139 1.400 . S
C1139 C1138 1.400 . S
C1139 C1140 1.398 . S
C1139 C1145 1.491 . S
C1140 H1131 0.950 . S
C1140 C1139 1.398 . S
C1140 C1141 1.391 . S
C1141 H1129 0.950 . S
C1141 C1137 1.393 . S
C1141 C1140 1.391 . S
C1142 H1132 0.950 . S
C1142 C1143 1.386 . S
C1142 C1144 1.391 . S
C1143 C1142 1.386 . S
C1143 C1147 1.393 . S
C1144 H1133 0.950 . S
C1144 C1142 1.391 . S
C1144 C1145 1.400 . S
C1145 C1139 1.491 . S
C1145 C1144 1.400 . S
C1145 C1146 1.398 . S
C1146 H1134 0.950 . S
C1146 C1145 1.398 . S
C1146 C1147 1.391 . S
C1147 H1135 0.950 . S
C1147 C1143 1.393 . S
C1147 C1146 1.391 . S
H1148 C1156 0.950 . S
H1149 C1161 0.950 . S
H1150 C1158 0.950 . S
H1151 C1160 0.950 . S
H1152 C1162 0.950 . S
H1153 C1164 0.950 . S
H1154 C1166 0.950 . S
H1155 C1167 0.950 . S
C1156 H1148 0.950 . S
C1156 C1157 1.386 . S
C1156 C1158 1.391 . S
C1157 C1156 1.386 . S
C1157 C1161 1.393 . S
C1158 H1150 0.950 . S
C1158 C1156 1.391 . S
C1158 C1159 1.400 . S
C1159 C1158 1.400 . S
C1159 C1160 1.398 . S
C1159 C1165 1.491 . S
C1160 H1151 0.950 . S
C1160 C1159 1.398 . S
C1160 C1161 1.391 . S
C1161 H1149 0.950 . S
C1161 C1157 1.393 . S
C1161 C1160 1.391 . S
C1162 H1152 0.950 . S
C1162 C1163 1.386 . S
C1162 C1164 1.391 . S
C1163 C1162 1.386 . S
C1163 C1167 1.393 . S
C1164 H1153 0.950 . S
C1164 C1162 1.391 . S
C1164 C1165 1.400 . S
C1165 C1159 1.491 . S
C1165 C1164 1.400 . S
C1165 C1166 1.398 . S
C1166 H1154 0.950 . S
C1166 C1165 1.398 . S
C1166 C1167 1.391 . S
C1167 H1155 0.950 . S
C1167 C1163 1.393 . S
C1167 C1166 1.391 . S
H1168 C1176 0.950 . S
H1169 C1181 0.950 . S
H1170 C1178 0.950 . S
H1171 C1180 0.950 . S
H1172 C1182 0.950 . S
H1173 C1184 0.950 . S
H1174 C1186 0.950 . S
H1175 C1187 0.950 . S
C1176 H1168 0.950 . S
C1176 C1177 1.386 . S
C1176 C1178 1.391 . S
C1177 C1176 1.386 . S
C1177 C1181 1.393 . S
C1178 H1170 0.950 . S
C1178 C1176 1.391 . S
C1178 C1179 1.400 . S
C1179 C1178 1.400 . S
C1179 C1180 1.398 . S
C1179 C1185 1.491 . S
C1180 H1171 0.950 . S
C1180 C1179 1.398 . S
C1180 C1181 1.391 . S
C1181 H1169 0.950 . S
C1181 C1177 1.393 . S
C1181 C1180 1.391 . S
C1182 H1172 0.950 . S
C1182 C1183 1.386 . S
C1182 C1184 1.391 . S
C1183 C1182 1.386 . S
C1183 C1187 1.393 . S
C1184 H1173 0.950 . S
C1184 C1182 1.391 . S
C1184 C1185 1.400 . S
C1185 C1179 1.491 . S
C1185 C1184 1.400 . S
C1185 C1186 1.398 . S
C1186 H1174 0.950 . S
C1186 C1185 1.398 . S
C1186 C1187 1.391 . S
C1187 H1175 0.950 . S
C1187 C1183 1.393 . S
C1187 C1186 1.391 . S
H1188 C1196 0.950 . S
H1189 C1201 0.950 . S
H1190 C1198 0.950 . S
H1191 C1200 0.950 . S
H1192 C1202 0.950 . S
H1193 C1204 0.950 . S
H1194 C1206 0.950 . S
H1195 C1207 0.950 . S
C1196 H1188 0.950 . S
C1196 C1197 1.386 . S
C1196 C1198 1.391 . S
C1197 C1196 1.386 . S
C1197 C1201 1.393 . S
C1198 H1190 0.950 . S
C1198 C1196 1.391 . S
C1198 C1199 1.400 . S
C1199 C1198 1.400 . S
C1199 C1200 1.398 . S
C1199 C1205 1.491 . S
C1200 H1191 0.950 . S
C1200 C1199 1.398 . S
C1200 C1201 1.391 . S
C1201 H1189 0.950 . S
C1201 C1197 1.393 . S
C1201 C1200 1.391 . S
C1202 H1192 0.950 . S
C1202 C1203 1.386 . S
C1202 C1204 1.391 . S
C1203 C1202 1.386 . S
C1203 C1207 1.393 . S
C1204 H1193 0.950 . S
C1204 C1202 1.391 . S
C1204 C1205 1.400 . S
C1205 C1199 1.491 . S
C1205 C1204 1.400 . S
C1205 C1206 1.398 . S
C1206 H1194 0.950 . S
C1206 C1205 1.398 . S
C1206 C1207 1.391 . S
C1207 H1195 0.950 . S
C1207 C1203 1.393 . S
C1207 C1206 1.391 . S
H1208 C1216 0.950 . S
H1209 C1221 0.950 . S
H1210 C1218 0.950 . S
H1211 C1220 0.950 . S
H1212 C1222 0.950 . S
H1213 C1224 0.950 . S
H1214 C1226 0.950 . S
H1215 C1227 0.950 . S
C1216 H1208 0.950 . S
C1216 C1217 1.386 . S
C1216 C1218 1.391 . S
C1217 C1216 1.386 . S
C1217 C1221 1.393 . S
C1218 H1210 0.950 . S
C1218 C1216 1.391 . S
C1218 C1219 1.400 . S
C1219 C1218 1.400 . S
C1219 C1220 1.398 . S
C1219 C1225 1.491 . S
C1220 H1211 0.950 . S
C1220 C1219 1.398 . S
C1220 C1221 1.391 . S
C1221 H1209 0.950 . S
C1221 C1217 1.393 . S
C1221 C1220 1.391 . S
C1222 H1212 0.950 . S
C1222 C1223 1.386 . S
C1222 C1224 1.391 . S
C1223 C1222 1.386 . S
C1223 C1227 1.393 . S
C1224 H1213 0.950 . S
C1224 C1222 1.391 . S
C1224 C1225 1.400 . S
C1225 C1219 1.491 . S
C1225 C1224 1.400 . S
C1225 C1226 1.398 . S
C1226 H1214 0.950 . S
C1226 C1225 1.398 . S
C1226 C1227 1.391 . S
C1227 H1215 0.950 . S
C1227 C1223 1.393 . S
C1227 C1226 1.391 . S
H1228 C1236 0.950 . S
H1229 C1241 0.950 . S
H1230 C1238 0.950 . S
H1231 C1240 0.950 . S
H1232 C1242 0.950 . S
H1233 C1244 0.950 . S
H1234 C1246 0.950 . S
H1235 C1247 0.950 . S
C1236 H1228 0.950 . S
C1236 C1237 1.386 . S
C1236 C1238 1.391 . S
C1237 C1236 1.386 . S
C1237 C1241 1.393 . S
C1238 H1230 0.950 . S
C1238 C1236 1.391 . S
C1238 C1239 1.400 . S
C1239 C1238 1.400 . S
C1239 C1240 1.398 . S
C1239 C1245 1.491 . S
C1240 H1231 0.950 . S
C1240 C1239 1.398 . S
C1240 C1241 1.391 . S
C1241 H1229 0.950 . S
C1241 C1237 1.393 . S
C1241 C1240 1.391 . S
C1242 H1232 0.950 . S
C1242 C1243 1.386 . S
C1242 C1244 1.391 . S
C1243 C1242 1.386 . S
C1243 C1247 1.393 . S
C1244 H1233 0.950 . S
C1244 C1242 1.391 . S
C1244 C1245 1.400 . S
C1245 C1239 1.491 . S
C1245 C1244 1.400 . S
C1245 C1246 1.398 . S
C1246 H1234 0.950 . S
C1246 C1245 1.398 . S
C1246 C1247 1.391 . S
C1247 H1235 0.950 . S
C1247 C1243 1.393 . S
C1247 C1246 1.391 . S
C623 C516 1.429 . S
C617 C35 1.326 . S
C643 C533 1.438 . S
C637 C115 1.328 . S
C663 C547 1.568 . S
C657 C177 1.458 . S
C677 C221 1.309 . S
C683 C505 1.441 . S
C697 C283 1.371 . S
C703 C502 1.517 . S
C717 C363 1.245 . S
C723 C519 1.354 . S
C743 C530 1.668 . S
C737 C407 1.530 . S
C763 C544 1.561 . S
C757 C469 1.435 . S
C777 C159 1.434 . S
C783 C572 1.573 . S
C803 C586 1.654 . S
C797 C239 1.551 . S
C817 C53 1.213 . S
C823 C603 1.360 . S
C843 C558 1.516 . S
C837 C97 1.370 . S
C857 C425 1.309 . S
C863 C561 1.440 . S
C877 C487 1.438 . S
C883 C575 1.569 . S
C903 C589 1.441 . S
C897 C301 1.339 . S
C917 C345 1.306 . S
C923 C600 1.439 . S
C943 C532 2.176 . S
C937 C29 2.186 . S
C963 C546 2.254 . S
C957 C109 2.190 . S
C977 C171 2.087 . S
C983 C504 2.170 1_556 S
C997 C215 2.006 . S
C1003 C517 1.927 . S
C1017 C277 1.805 . S
C1023 C545 1.707 . S
C1043 C503 1.677 . S
C1037 C357 1.736 . S
C1063 C518 2.043 . S
C1057 C401 2.049 . S
C1083 C531 1.834 . S
C1077 C463 1.908 . S
C1103 C587 1.810 . S
C1097 C153 1.908 . S
C1123 C602 2.043 . S
C1117 C233 2.046 . S
C1137 C47 1.733 . S
C1143 C559 1.673 . S
C1163 C573 1.717 . S
C1157 C91 1.796 . S
C1183 C601 1.903 . S
C1177 C419 1.915 . S
C1197 C481 2.085 1_655 S
C1203 C560 2.169 . S
C1223 C574 2.267 . S
C1217 C295 2.199 . S
C1243 C588 2.180 . S
C1237 C339 2.184 . S
