# Generated by pormake.
# Topology ptr, (4,4)-cn, num edge types: 1
# Building blocks:
#     Node 0, Type 0, BuildingBlock: UXUYUI_clean_sbu_0, # of connection points: 4
#     Node 1, Type 0, BuildingBlock: UXUYUI_clean_sbu_0, # of connection points: 4
#     Node 2, Type 0, BuildingBlock: UXUYUI_clean_sbu_0, # of connection points: 4
#     Node 3, Type 0, BuildingBlock: UXUYUI_clean_sbu_0, # of connection points: 4
#     Node 4, Type 0, BuildingBlock: UXUYUI_clean_sbu_0, # of connection points: 4
#     Node 5, Type 0, BuildingBlock: UXUYUI_clean_sbu_0, # of connection points: 4
#     Node 6, Type 0, BuildingBlock: UXUYUI_clean_sbu_0, # of connection points: 4
#     Node 7, Type 0, BuildingBlock: UXUYUI_clean_sbu_0, # of connection points: 4
#     Node 8, Type 0, BuildingBlock: UXUYUI_clean_sbu_0, # of connection points: 4
#     Node 9, Type 0, BuildingBlock: UXUYUI_clean_sbu_0, # of connection points: 4
#     Node 10, Type 0, BuildingBlock: UXUYUI_clean_sbu_0, # of connection points: 4
#     Node 11, Type 0, BuildingBlock: UXUYUI_clean_sbu_0, # of connection points: 4
#     Node 12, Type 0, BuildingBlock: UXUYUI_clean_sbu_0, # of connection points: 4
#     Node 13, Type 0, BuildingBlock: UXUYUI_clean_sbu_0, # of connection points: 4
#     Node 14, Type 0, BuildingBlock: UXUYUI_clean_sbu_0, # of connection points: 4
#     Node 15, Type 0, BuildingBlock: UXUYUI_clean_sbu_0, # of connection points: 4
#     Node 16, Type 0, BuildingBlock: UXUYUI_clean_sbu_0, # of connection points: 4
#     Node 17, Type 0, BuildingBlock: UXUYUI_clean_sbu_0, # of connection points: 4
#     Node 18, Type 1, BuildingBlock: MUDLON_clean_linker_0, # of connection points: 4
#     Node 19, Type 1, BuildingBlock: MUDLON_clean_linker_0, # of connection points: 4
#     Node 20, Type 1, BuildingBlock: MUDLON_clean_linker_0, # of connection points: 4
#     Node 21, Type 1, BuildingBlock: MUDLON_clean_linker_0, # of connection points: 4
#     Node 22, Type 1, BuildingBlock: MUDLON_clean_linker_0, # of connection points: 4
#     Node 23, Type 1, BuildingBlock: MUDLON_clean_linker_0, # of connection points: 4
#     Node 24, Type 1, BuildingBlock: MUDLON_clean_linker_0, # of connection points: 4
#     Node 25, Type 1, BuildingBlock: MUDLON_clean_linker_0, # of connection points: 4
#     Node 26, Type 1, BuildingBlock: MUDLON_clean_linker_0, # of connection points: 4
#     Node 27, Type 1, BuildingBlock: MUDLON_clean_linker_0, # of connection points: 4
#     Node 28, Type 1, BuildingBlock: MUDLON_clean_linker_0, # of connection points: 4
#     Node 29, Type 1, BuildingBlock: MUDLON_clean_linker_0, # of connection points: 4
#     Node 30, Type 1, BuildingBlock: MUDLON_clean_linker_0, # of connection points: 4
#     Node 31, Type 1, BuildingBlock: MUDLON_clean_linker_0, # of connection points: 4
#     Node 32, Type 1, BuildingBlock: MUDLON_clean_linker_0, # of connection points: 4
#     Node 33, Type 1, BuildingBlock: MUDLON_clean_linker_0, # of connection points: 4
#     Node 34, Type 1, BuildingBlock: MUDLON_clean_linker_0, # of connection points: 4
#     Node 35, Type 1, BuildingBlock: MUDLON_clean_linker_0, # of connection points: 4
#     Edge 36, Type (0, 1), BuildingBlock: XIVTED_clean_linker_0, # of connection points: 2
#     Edge 37, Type (0, 1), BuildingBlock: XIVTED_clean_linker_0, # of connection points: 2
#     Edge 38, Type (0, 1), BuildingBlock: XIVTED_clean_linker_0, # of connection points: 2
#     Edge 39, Type (0, 1), BuildingBlock: XIVTED_clean_linker_0, # of connection points: 2
#     Edge 40, Type (0, 1), BuildingBlock: XIVTED_clean_linker_0, # of connection points: 2
#     Edge 41, Type (0, 1), BuildingBlock: XIVTED_clean_linker_0, # of connection points: 2
#     Edge 42, Type (0, 1), BuildingBlock: XIVTED_clean_linker_0, # of connection points: 2
#     Edge 43, Type (0, 1), BuildingBlock: XIVTED_clean_linker_0, # of connection points: 2
#     Edge 44, Type (0, 1), BuildingBlock: XIVTED_clean_linker_0, # of connection points: 2
#     Edge 45, Type (0, 1), BuildingBlock: XIVTED_clean_linker_0, # of connection points: 2
#     Edge 46, Type (0, 1), BuildingBlock: XIVTED_clean_linker_0, # of connection points: 2
#     Edge 47, Type (0, 1), BuildingBlock: XIVTED_clean_linker_0, # of connection points: 2
#     Edge 48, Type (0, 1), BuildingBlock: XIVTED_clean_linker_0, # of connection points: 2
#     Edge 49, Type (0, 1), BuildingBlock: XIVTED_clean_linker_0, # of connection points: 2
#     Edge 50, Type (0, 1), BuildingBlock: XIVTED_clean_linker_0, # of connection points: 2
#     Edge 51, Type (0, 1), BuildingBlock: XIVTED_clean_linker_0, # of connection points: 2
#     Edge 52, Type (0, 1), BuildingBlock: XIVTED_clean_linker_0, # of connection points: 2
#     Edge 53, Type (0, 1), BuildingBlock: XIVTED_clean_linker_0, # of connection points: 2
#     Edge 54, Type (0, 1), BuildingBlock: XIVTED_clean_linker_0, # of connection points: 2
#     Edge 55, Type (0, 1), BuildingBlock: XIVTED_clean_linker_0, # of connection points: 2
#     Edge 56, Type (0, 1), BuildingBlock: XIVTED_clean_linker_0, # of connection points: 2
#     Edge 57, Type (0, 1), BuildingBlock: XIVTED_clean_linker_0, # of connection points: 2
#     Edge 58, Type (0, 1), BuildingBlock: XIVTED_clean_linker_0, # of connection points: 2
#     Edge 59, Type (0, 1), BuildingBlock: XIVTED_clean_linker_0, # of connection points: 2
#     Edge 60, Type (0, 1), BuildingBlock: XIVTED_clean_linker_0, # of connection points: 2
#     Edge 61, Type (0, 1), BuildingBlock: XIVTED_clean_linker_0, # of connection points: 2
#     Edge 62, Type (0, 1), BuildingBlock: XIVTED_clean_linker_0, # of connection points: 2
#     Edge 63, Type (0, 1), BuildingBlock: XIVTED_clean_linker_0, # of connection points: 2
#     Edge 64, Type (0, 1), BuildingBlock: XIVTED_clean_linker_0, # of connection points: 2
#     Edge 65, Type (0, 1), BuildingBlock: XIVTED_clean_linker_0, # of connection points: 2
#     Edge 66, Type (0, 1), BuildingBlock: XIVTED_clean_linker_0, # of connection points: 2
#     Edge 67, Type (0, 1), BuildingBlock: XIVTED_clean_linker_0, # of connection points: 2
#     Edge 68, Type (0, 1), BuildingBlock: XIVTED_clean_linker_0, # of connection points: 2
#     Edge 69, Type (0, 1), BuildingBlock: XIVTED_clean_linker_0, # of connection points: 2
#     Edge 70, Type (0, 1), BuildingBlock: XIVTED_clean_linker_0, # of connection points: 2
#     Edge 71, Type (0, 1), BuildingBlock: XIVTED_clean_linker_0, # of connection points: 2
#     Edge 72, Type (0, 1), BuildingBlock: XIVTED_clean_linker_0, # of connection points: 2
#     Edge 73, Type (0, 1), BuildingBlock: XIVTED_clean_linker_0, # of connection points: 2
#     Edge 74, Type (0, 1), BuildingBlock: XIVTED_clean_linker_0, # of connection points: 2
#     Edge 75, Type (0, 1), BuildingBlock: XIVTED_clean_linker_0, # of connection points: 2
#     Edge 76, Type (0, 1), BuildingBlock: XIVTED_clean_linker_0, # of connection points: 2
#     Edge 77, Type (0, 1), BuildingBlock: XIVTED_clean_linker_0, # of connection points: 2
#     Edge 78, Type (0, 1), BuildingBlock: XIVTED_clean_linker_0, # of connection points: 2
#     Edge 79, Type (0, 1), BuildingBlock: XIVTED_clean_linker_0, # of connection points: 2
#     Edge 80, Type (0, 1), BuildingBlock: XIVTED_clean_linker_0, # of connection points: 2
#     Edge 81, Type (0, 1), BuildingBlock: XIVTED_clean_linker_0, # of connection points: 2
#     Edge 82, Type (0, 1), BuildingBlock: XIVTED_clean_linker_0, # of connection points: 2
#     Edge 83, Type (0, 1), BuildingBlock: XIVTED_clean_linker_0, # of connection points: 2
#     Edge 84, Type (0, 1), BuildingBlock: XIVTED_clean_linker_0, # of connection points: 2
#     Edge 85, Type (0, 1), BuildingBlock: XIVTED_clean_linker_0, # of connection points: 2
#     Edge 86, Type (0, 1), BuildingBlock: XIVTED_clean_linker_0, # of connection points: 2
#     Edge 87, Type (0, 1), BuildingBlock: XIVTED_clean_linker_0, # of connection points: 2
#     Edge 88, Type (0, 1), BuildingBlock: XIVTED_clean_linker_0, # of connection points: 2
#     Edge 89, Type (0, 1), BuildingBlock: XIVTED_clean_linker_0, # of connection points: 2
#     Edge 90, Type (0, 1), BuildingBlock: XIVTED_clean_linker_0, # of connection points: 2
#     Edge 91, Type (0, 1), BuildingBlock: XIVTED_clean_linker_0, # of connection points: 2
#     Edge 92, Type (0, 1), BuildingBlock: XIVTED_clean_linker_0, # of connection points: 2
#     Edge 93, Type (0, 1), BuildingBlock: XIVTED_clean_linker_0, # of connection points: 2
#     Edge 94, Type (0, 1), BuildingBlock: XIVTED_clean_linker_0, # of connection points: 2
#     Edge 95, Type (0, 1), BuildingBlock: XIVTED_clean_linker_0, # of connection points: 2
#     Edge 96, Type (0, 1), BuildingBlock: XIVTED_clean_linker_0, # of connection points: 2
#     Edge 97, Type (0, 1), BuildingBlock: XIVTED_clean_linker_0, # of connection points: 2
#     Edge 98, Type (0, 1), BuildingBlock: XIVTED_clean_linker_0, # of connection points: 2
#     Edge 99, Type (0, 1), BuildingBlock: XIVTED_clean_linker_0, # of connection points: 2
#     Edge 100, Type (0, 1), BuildingBlock: XIVTED_clean_linker_0, # of connection points: 2
#     Edge 101, Type (0, 1), BuildingBlock: XIVTED_clean_linker_0, # of connection points: 2
#     Edge 102, Type (0, 1), BuildingBlock: XIVTED_clean_linker_0, # of connection points: 2
#     Edge 103, Type (0, 1), BuildingBlock: XIVTED_clean_linker_0, # of connection points: 2
#     Edge 104, Type (0, 1), BuildingBlock: XIVTED_clean_linker_0, # of connection points: 2
#     Edge 105, Type (0, 1), BuildingBlock: XIVTED_clean_linker_0, # of connection points: 2
#     Edge 106, Type (0, 1), BuildingBlock: XIVTED_clean_linker_0, # of connection points: 2
#     Edge 107, Type (0, 1), BuildingBlock: XIVTED_clean_linker_0, # of connection points: 2
# Relax obj value: 0.080
# Max RMSD: 0.221
# Mean RMSD: 0.104
data_MOF--net-ptr--node1-UXUYUI_clean_sbu_0--node2-MUDLON_clean_linker_0--edge1-XIVTED_clean_linker_0
_symmetry_space_group_name_H-M    P1
_symmetry_Int_Tables_number       1
_symmetry_cell_setting            triclinic
loop_
_symmetry_equiv_pos_as_xyz
'x, y, z'
_cell_length_a     124.4637
_cell_length_b     124.47748
_cell_length_c     70.247295
_cell_angle_alpha  89.987037
_cell_angle_beta   90.005337
_cell_angle_gamma 120.02386
loop_
_atom_site_label
_atom_site_type_symbol
_atom_site_fract_x
_atom_site_fract_y
_atom_site_fract_z
_atom_type_partial_charge
Li0 Li 0.98429 0.35016 0.00912 0.0
Li1 Li 0.00687 0.3624 0.00926 0.0
Li2 Li 0.9937 0.36927 0.02664 0.0
Li3 Li 0.99515 0.37061 0.99188 0.0
C4 C 0.9909 0.34356 0.04081 0.0
N5 N 0.98102 0.32088 0.05899 0.0
C6 C 0.99711 0.33682 0.04023 0.0
C7 C 0.97973 0.33883 0.05082 0.0
C8 C 0.99195 0.32536 0.04948 0.0
C9 C 0.97486 0.32733 0.05985 0.0
C10 C 0.00046 0.35305 0.97069 0.0
C11 C 0.01313 0.36065 0.94244 0.0
N12 N 0.00979 0.34881 0.93759 0.0
C13 C 0.997 0.34094 0.96525 0.0
C14 C 0.00846 0.36297 0.95905 0.0
C15 C 0.00188 0.33899 0.94855 0.0
C16 C 0.95897 0.33116 0.00803 0.0
N17 N 0.97089 0.33357 0.00776 0.0
C18 C 0.96411 0.31203 0.0041 0.0
C19 C 0.9736 0.32431 0.00598 0.0
C20 C 0.95169 0.30923 0.00398 0.0
C21 C 0.94917 0.31899 0.0062 0.0
H22 H 0.95708 0.33871 0.00936 0.0
H23 H 0.98317 0.32651 0.00573 0.0
C24 C 0.03082 0.36964 0.02223 0.0
N25 N 0.02168 0.36149 0.01052 0.0
C26 C 0.04158 0.36897 0.02482 0.0
C27 C 0.03334 0.3515 0.00329 0.0
C28 C 0.02273 0.35252 0.0011 0.0
C29 C 0.04292 0.35975 0.01539 0.0
H30 H 0.02962 0.37652 0.02985 0.0
H31 H 0.01521 0.34593 0.99229 0.0
C32 C 0.97279 0.36788 0.01523 0.0
N33 N 0.95892 0.37741 0.03081 0.0
C34 C 0.97333 0.37846 0.00738 0.0
C35 C 0.96511 0.36208 0.03088 0.0
C36 C 0.96626 0.38314 0.01548 0.0
C37 C 0.95821 0.36707 0.0386 0.0
C38 C 0.01936 0.38978 0.00544 0.0
C39 C 0.02237 0.40125 0.01339 0.0
C40 C 0.02743 0.38909 0.99231 0.0
C41 C 0.03328 0.41187 0.00776 0.0
C42 C 0.03826 0.39992 0.98706 0.0
N43 N 0.04093 0.41099 0.9948 0.0
C44 C 0.99066 0.3726 0.06596 0.0
C45 C 0.99315 0.38887 0.04558 0.0
C46 C 0.98934 0.37869 0.08171 0.0
N47 N 0.99247 0.37774 0.04834 0.0
C48 C 0.99186 0.39527 0.06089 0.0
C49 C 0.98991 0.39018 0.07928 0.0
H50 H 0.99019 0.36375 0.06777 0.0
H51 H 0.99459 0.39273 0.03141 0.0
C52 C 0.98522 0.37249 0.95736 0.0
N53 N 0.99421 0.37933 0.97026 0.0
C54 C 0.9832 0.37823 0.94178 0.0
C55 C 0.99988 0.39793 0.95289 0.0
C56 C 0.00152 0.39182 0.96832 0.0
C57 C 0.99053 0.39115 0.93944 0.0
H58 H 0.97944 0.36259 0.95942 0.0
H59 H 0.00847 0.39712 0.97887 0.0
O60 O 0.99571 0.35471 0.0316 0.0
O61 O 0.99565 0.35509 0.98694 0.0
O62 O 0.97983 0.36329 0.00773 0.0
O63 O 0.00871 0.37928 0.01088 0.0
H64 H 0.00579 0.34035 0.03264 0.0
H65 H 0.9748 0.34393 0.05143 0.0
H66 H 0.99663 0.32001 0.04906 0.0
H67 H 0.96618 0.32352 0.06752 0.0
H68 H 0.01936 0.36826 0.93336 0.0
H69 H 0.99068 0.33312 0.97386 0.0
H70 H 0.01094 0.37237 0.96262 0.0
H71 H 0.99936 0.32967 0.94427 0.0
H72 H 0.96652 0.30487 0.0021 0.0
H73 H 0.93973 0.31725 0.00635 0.0
H74 H 0.0486 0.37537 0.0346 0.0
H75 H 0.03398 0.34427 0.99569 0.0
H76 H 0.97922 0.38307 0.99527 0.0
H77 H 0.96458 0.35389 0.03713 0.0
H78 H 0.96664 0.39136 0.00961 0.0
H79 H 0.95229 0.36273 0.0508 0.0
H80 H 0.01635 0.40196 0.02376 0.0
H81 H 0.02548 0.38029 0.98643 0.0
H82 H 0.03569 0.42081 0.01372 0.0
H83 H 0.04457 0.3995 0.9769 0.0
H84 H 0.98774 0.37438 0.0956 0.0
H85 H 0.99256 0.40417 0.05838 0.0
H86 H 0.97575 0.37262 0.93199 0.0
H87 H 0.00587 0.40787 0.95157 0.0
Li88 Li 0.64702 0.63759 0.01096 0.0
Li89 Li 0.63585 0.64932 0.01732 0.0
Li90 Li 0.62849 0.62747 0.02981 0.0
Li91 Li 0.62682 0.631 0.99693 0.0
C92 C 0.65563 0.64874 0.0435 0.0
N93 N 0.67963 0.65962 0.05722 0.0
C94 C 0.66369 0.66148 0.04126 0.0
C95 C 0.65975 0.64156 0.05288 0.0
C96 C 0.6758 0.6668 0.04826 0.0
C97 C 0.67192 0.64722 0.05966 0.0
C98 C 0.64301 0.6484 0.9741 0.0
C99 C 0.63847 0.65604 0.94545 0.0
N100 N 0.64319 0.65019 0.93491 0.0
C101 C 0.64784 0.64249 0.96301 0.0
C102 C 0.63831 0.65526 0.96529 0.0
C103 C 0.64783 0.6435 0.94321 0.0
C104 C 0.66744 0.63271 0.01014 0.0
N105 N 0.66358 0.64099 0.00672 0.0
C106 C 0.68402 0.65642 0.99737 0.0
C107 C 0.67156 0.65264 0.00037 0.0
C108 C 0.68839 0.64817 0.00104 0.0
C109 C 0.67989 0.63614 0.00746 0.0
H110 H 0.66092 0.62349 0.01508 0.0
H111 H 0.66823 0.65903 0.99774 0.0
C112 C 0.63264 0.66787 0.03606 0.0
N113 N 0.63837 0.66543 0.02162 0.0
C114 C 0.63559 0.68009 0.03978 0.0
C115 C 0.6501 0.68691 0.01353 0.0
C116 C 0.64684 0.6746 0.01028 0.0
C117 C 0.64461 0.68981 0.02863 0.0
H118 H 0.62602 0.66037 0.04495 0.0
H119 H 0.65136 0.6724 0.99906 0.0
C120 C 0.62902 0.60867 0.014 0.0
N121 N 0.62053 0.58486 0.02738 0.0
C122 C 0.61826 0.5987 0.0064 0.0
C123 C 0.63545 0.6065 0.02841 0.0
C124 C 0.61413 0.58674 0.01334 0.0
C125 C 0.63101 0.59441 0.035 0.0
C126 C 0.60702 0.6313 0.01322 0.0
C127 C 0.59859 0.61893 0.00879 0.0
C128 C 0.60328 0.64017 0.0121 0.0
C129 C 0.58655 0.61563 0.00323 0.0
C130 C 0.59115 0.63649 0.00652 0.0
N131 N 0.5831 0.6244 0.00223 0.0
C132 C 0.62588 0.62009 0.06867 0.0
C133 C 0.60977 0.60591 0.04849 0.0
C134 C 0.62043 0.61224 0.08429 0.0
N135 N 0.62057 0.61676 0.05116 0.0
C136 C 0.6041 0.59773 0.0636 0.0
C137 C 0.6094 0.60082 0.08186 0.0
H138 H 0.63434 0.62886 0.07053 0.0
H139 H 0.60563 0.60347 0.03455 0.0
C140 C 0.61855 0.61613 0.96392 0.0
N141 N 0.61747 0.62492 0.97381 0.0
C142 C 0.61193 0.61132 0.94706 0.0
C143 C 0.60356 0.62504 0.95043 0.0
C144 C 0.61044 0.62967 0.96712 0.0
C145 C 0.60418 0.61566 0.94026 0.0
H146 H 0.62461 0.61289 0.9691 0.0
H147 H 0.61022 0.63711 0.97466 0.0
O148 O 0.64388 0.64329 0.03616 0.0
O149 O 0.64259 0.64721 0.99347 0.0
O150 O 0.6332 0.62048 0.00747 0.0
O151 O 0.61886 0.63477 0.01867 0.0
H152 H 0.6607 0.66718 0.034 0.0
H153 H 0.65365 0.63169 0.05476 0.0
H154 H 0.68216 0.67663 0.0465 0.0
H155 H 0.67525 0.64175 0.06683 0.0
H156 H 0.6348 0.66126 0.93842 0.0
H157 H 0.6514 0.63705 0.96963 0.0
H158 H 0.63442 0.65978 0.97369 0.0
H159 H 0.65148 0.63892 0.93443 0.0
H160 H 0.69012 0.66568 0.99201 0.0
H161 H 0.68283 0.62949 0.01061 0.0
H162 H 0.63124 0.68195 0.0517 0.0
H163 H 0.65701 0.6941 0.00449 0.0
H164 H 0.61299 0.60017 0.99553 0.0
H165 H 0.64365 0.61409 0.03471 0.0
H166 H 0.60578 0.57896 0.00765 0.0
H167 H 0.63586 0.59263 0.04623 0.0
H168 H 0.60141 0.61201 0.00907 0.0
H169 H 0.6097 0.64979 0.01544 0.0
H170 H 0.57996 0.6061 -0.00042 0.0
H171 H 0.58813 0.64326 0.00557 0.0
H172 H 0.62475 0.61517 0.09814 0.0
H173 H 0.59574 0.58898 0.06086 0.0
H174 H 0.61272 0.60413 0.9396 0.0
H175 H 0.59793 0.62885 0.94539 0.0
Li176 Li 0.36556 0.99424 0.99006 0.0
Li177 Li 0.36844 0.99642 0.02429 0.0
Li178 Li 0.34752 0.98431 0.01014 0.0
Li179 Li 0.35925 0.00718 0.00804 0.0
C180 C 0.35593 0.9687 0.01327 0.0
N181 N 0.34393 0.9438 0.02264 0.0
C182 C 0.35805 0.9649 0.03092 0.0
C183 C 0.34769 0.95982 0.0004 0.0
C184 C 0.3519 0.95227 0.03538 0.0
C185 C 0.34172 0.94728 0.00541 0.0
C186 C 0.38778 0.01708 0.01114 0.0
C187 C 0.40246 0.03385 0.03092 0.0
N188 N 0.4115 0.03141 0.0254 0.0
C189 C 0.39723 0.0148 0.00553 0.0
C190 C 0.39042 0.02673 0.02382 0.0
C191 C 0.40916 0.02213 0.01295 0.0
C192 C 0.38232 0.0036 0.95919 0.0
N193 N 0.37314 0.99305 0.96722 0.0
C194 C 0.37594 0.98061 0.94408 0.0
C195 C 0.3698 0.9817 0.95992 0.0
C196 C 0.38579 0.9913 0.93583 0.0
C197 C 0.38884 0.00294 0.94347 0.0
H198 H 0.38481 0.01251 0.96534 0.0
H199 H 0.36246 0.97347 0.96654 0.0
C200 C 0.37791 0.00016 0.06234 0.0
N201 N 0.37913 0.99711 0.04422 0.0
C202 C 0.38552 0.99995 0.07678 0.0
C203 C 0.39555 0.99356 0.05358 0.0
C204 C 0.38773 0.99386 0.03963 0.0
C205 C 0.39442 0.9965 0.07251 0.0
H206 H 0.37085 0.00248 0.0657 0.0
H207 H 0.38837 0.9913 0.02514 0.0
C208 C 0.34946 0.99526 0.96849 0.0
N209 N 0.34967 0.99624 0.92921 0.0
C210 C 0.35519 0.00672 0.95917 0.0
C211 C 0.34381 0.98431 0.95786 0.0
C212 C 0.3552 0.00702 0.93929 0.0
C213 C 0.34402 0.985 0.93801 0.0
C214 C 0.34867 0.00156 0.04387 0.0
C215 C 0.33598 0.99551 0.04799 0.0
C216 C 0.35665 0.01296 0.05245 0.0
C217 C 0.33147 0.00104 0.06054 0.0
C218 C 0.35178 0.01818 0.06491 0.0
N219 N 0.3394 0.01217 0.06866 0.0
C220 C 0.32785 0.96317 0.02855 0.0
C221 C 0.32229 0.97034 0.00106 0.0
C222 C 0.31545 0.9542 0.03169 0.0
N223 N 0.331 0.97098 0.0134 0.0
C224 C 0.30978 0.96166 0.00383 0.0
C225 C 0.30624 0.95354 0.01941 0.0
H226 H 0.33489 0.96415 0.03853 0.0
H227 H 0.325 0.97686 0.98941 0.0
C228 C 0.36575 0.03224 5e-05 0.0
N229 N 0.35684 0.02111 0.00696 0.0
C230 C 0.36323 0.0419 0.99742 0.0
C231 C 0.34263 0.02863 0.00993 0.0
C232 C 0.34542 0.01915 0.01172 0.0
C233 C 0.35145 0.04015 0.0022 0.0
H234 H 0.37466 0.03345 0.99589 0.0
H235 H 0.33834 0.0101 0.0165 0.0
O236 O 0.36185 0.98104 0.00862 0.0
O237 O 0.37601 0.00988 0.00427 0.0
O238 O 0.34971 0.99478 0.98792 0.0
O239 O 0.35323 0.99634 0.03146 0.0
H240 H 0.36428 0.97161 0.04115 0.0
H241 H 0.34572 0.96259 0.98685 0.0
H242 H 0.35345 0.9492 0.04899 0.0
H243 H 0.33526 0.94033 0.99564 0.0
H244 H 0.40462 0.04133 0.04081 0.0
H245 H 0.39534 0.00733 0.99575 0.0
H246 H 0.38325 0.02872 0.02811 0.0
H247 H 0.41654 0.0204 0.00885 0.0
H248 H 0.37305 0.97146 0.93849 0.0
H249 H 0.39643 0.01144 0.93779 0.0
H250 H 0.38419 0.00209 0.09123 0.0
H251 H 0.40235 0.99097 0.04958 0.0
H252 H 0.3597 0.01528 0.9672 0.0
H253 H 0.33944 0.97536 0.96487 0.0
H254 H 0.35965 0.01582 0.93188 0.0
H255 H 0.33975 0.9766 0.92959 0.0
H256 H 0.32967 0.98669 0.04147 0.0
H257 H 0.36648 0.01775 0.04945 0.0
H258 H 0.32167 0.99648 0.0638 0.0
H259 H 0.35784 0.02703 0.07159 0.0
H260 H 0.31304 0.94824 0.04407 0.0
H261 H 0.30292 0.96145 0.99411 0.0
H262 H 0.37029 0.05045 0.99103 0.0
H263 H 0.33353 0.02679 0.01428 0.0
Li264 Li 0.00759 0.64841 0.01102 0.0
Li265 Li 0.99619 0.62835 0.02658 0.0
Li266 Li 0.9983 0.62885 0.99174 0.0
Li267 Li 0.98518 0.63516 0.00755 0.0
C268 C 0.02287 0.6384 0.00345 0.0
N269 N 0.04551 0.64527 0.98675 0.0
C270 C 0.03044 0.63408 0.01085 0.0
C271 C 0.02681 0.64622 0.98757 0.0
C272 C 0.04186 0.63766 0.0022 0.0
C273 C 0.03828 0.64958 0.97933 0.0
C274 C 0.99164 0.64162 0.04965 0.0
C275 C 0.97684 0.63085 0.07471 0.0
N276 N 0.98575 0.63746 0.08788 0.0
C277 C 0.00062 0.64839 0.06343 0.0
C278 C 0.97963 0.63285 0.05532 0.0
C279 C 0.99747 0.64612 0.08268 0.0
C280 C 0.02349 0.67398 0.00153 0.0
N281 N 0.02125 0.66468 0.01388 0.0
C282 C 0.03775 0.6787 0.03408 0.0
C283 C 0.02839 0.66673 0.02958 0.0
C284 C 0.0399 0.68861 0.0221 0.0
C285 C 0.03289 0.68613 0.00535 0.0
H286 H 0.0178 0.67204 0.98896 0.0
H287 H 0.02659 0.65906 0.03885 0.0
C288 C 0.98706 0.60896 0.05438 0.0
N289 N 0.99685 0.61991 0.04863 0.0
C290 C 0.98815 0.60283 0.0703 0.0
C291 C 0.00936 0.61943 0.07401 0.0
C292 C 0.00785 0.62522 0.05808 0.0
C293 C 0.99946 0.60804 0.08028 0.0
H294 H 0.97844 0.60493 0.04653 0.0
H295 H 0.0155 0.63391 0.05305 0.0
C296 C 0.99157 0.64817 0.97572 0.0
N297 N 0.97809 0.65569 0.95381 0.0
C298 C 0.98549 0.64156 0.95932 0.0
C299 C 0.99084 0.65862 0.98095 0.0
C300 C 0.97873 0.64553 0.94842 0.0
C301 C 0.98394 0.66225 0.96971 0.0
C302 C 0.97158 0.61046 0.00142 0.0
C303 C 0.96923 0.6069 0.98229 0.0
C304 C 0.96174 0.60577 0.01438 0.0
C305 C 0.95706 0.5988 0.97644 0.0
C306 C 0.94969 0.59772 0.00795 0.0
N307 N 0.94762 0.59443 0.98928 0.0
C308 C 0.99915 0.60917 0.97472 0.0
C309 C 0.00538 0.62633 0.954 0.0
C310 C 0.00088 0.60244 0.96038 0.0
N311 N 0.00125 0.62079 0.97122 0.0
C312 C 0.00727 0.61993 0.93922 0.0
C313 C 0.00489 0.60777 0.94228 0.0
H314 H 0.99601 0.6051 0.98866 0.0
H315 H 0.00713 0.63566 0.95172 0.0
C316 C 0.96956 0.64453 0.01733 0.0
N317 N 0.97044 0.63648 0.00521 0.0
C318 C 0.96019 0.64747 0.01507 0.0
C319 C 0.95254 0.6336 0.98811 0.0
C320 C 0.96208 0.63093 0.99089 0.0
C321 C 0.95167 0.64218 6e-05 0.0
H322 H 0.97646 0.64911 0.0283 0.0
H323 H 0.96316 0.62495 0.98094 0.0
O324 O 0.01166 0.6349 0.01177 0.0
O325 O 0.99462 0.6434 0.0307 0.0
O326 O 0.99803 0.64429 0.98678 0.0
O327 O 0.98345 0.61827 0.00749 0.0
H328 H 0.02751 0.62802 0.02314 0.0
H329 H 0.02109 0.64965 0.98163 0.0
H330 H 0.04781 0.63439 0.00777 0.0
H331 H 0.04144 0.65562 0.96702 0.0
H332 H 0.96759 0.62404 0.07928 0.0
H333 H 0.00993 0.65528 0.05935 0.0
H334 H 0.97256 0.6276 0.04485 0.0
H335 H 0.00435 0.65124 0.0935 0.0
H336 H 0.04313 0.68024 0.04695 0.0
H337 H 0.03432 0.69354 0.99577 0.0
H338 H 0.98024 0.59414 0.07474 0.0
H339 H 0.0183 0.6237 0.08105 0.0
H340 H 0.98583 0.63337 0.9552 0.0
H341 H 0.99534 0.66372 0.99376 0.0
H342 H 0.97392 0.64047 0.93574 0.0
H343 H 0.98319 0.67025 0.97368 0.0
H344 H 0.97666 0.61048 0.97199 0.0
H345 H 0.96335 0.6083 0.02925 0.0
H346 H 0.95511 0.59604 0.96167 0.0
H347 H 0.94199 0.59407 0.01782 0.0
H348 H 0.99913 0.59317 0.96345 0.0
H349 H 0.0103 0.62436 0.92545 0.0
H350 H 0.95983 0.65407 0.0247 0.0
H351 H 0.94635 0.6295 0.97611 0.0
Li352 Li 0.35202 0.36214 0.01443 0.0
Li353 Li 0.37281 0.3706 0.02808 0.0
Li354 Li 0.36919 0.3714 0.994 0.0
Li355 Li 0.36356 0.35141 0.00691 0.0
C356 C 0.3593 0.38532 0.02052 0.0
N357 N 0.34538 0.39585 0.03184 0.0
C358 C 0.35766 0.38667 0.03987 0.0
C359 C 0.35397 0.38942 0.00692 0.0
C360 C 0.35056 0.392 0.04531 0.0
C361 C 0.34693 0.39469 0.01294 0.0
C362 C 0.34929 0.34291 0.04014 0.0
C363 C 0.34196 0.32781 0.06547 0.0
N364 N 0.33161 0.32039 0.05512 0.0
C365 C 0.33858 0.33515 0.02976 0.0
C366 C 0.351 0.33923 0.05815 0.0
C367 C 0.32975 0.3238 0.03758 0.0
C368 C 0.3275 0.35739 0.00661 0.0
N369 N 0.33584 0.35928 0.02056 0.0
C370 C 0.32077 0.35552 0.04458 0.0
C371 C 0.33275 0.35851 0.03927 0.0
C372 C 0.31188 0.3533 0.0305 0.0
C373 C 0.31542 0.35445 0.01129 0.0
H374 H 0.33011 0.35786 0.99186 0.0
H375 H 0.33955 0.36 0.05007 0.0
C376 C 0.38845 0.39121 0.05059 0.0
N377 N 0.38351 0.37874 0.04881 0.0
C378 C 0.39653 0.39757 0.06556 0.0
C379 C 0.39442 0.37817 0.07641 0.0
C380 C 0.38633 0.37216 0.06126 0.0
C381 C 0.39962 0.39105 0.07872 0.0
H382 H 0.38616 0.39621 0.04029 0.0
H383 H 0.3823 0.36226 0.05938 0.0
C384 C 0.35145 0.35542 0.97067 0.0
N385 N 0.34741 0.35553 0.932 0.0
C386 C 0.35245 0.34699 0.95869 0.0
C387 C 0.34833 0.36386 0.96298 0.0
C388 C 0.35038 0.3472 0.93918 0.0
C389 C 0.34636 0.36379 0.94339 0.0
C390 C 0.39084 0.37205 0.99626 0.0
C391 C 0.39292 0.36588 0.98134 0.0
C392 C 0.39952 0.38445 5e-05 0.0
C393 C 0.40363 0.3723 0.97029 0.0
C394 C 0.41009 0.39056 0.98863 0.0
N395 N 0.41191 0.38441 0.97411 0.0
C396 C 0.38223 0.39452 0.97564 0.0
C397 C 0.37899 0.37765 0.95604 0.0
C398 C 0.38969 0.40299 0.96171 0.0
N399 N 0.37715 0.38211 0.97266 0.0
C400 C 0.38614 0.38577 0.94158 0.0
C401 C 0.39175 0.39861 0.94449 0.0
H402 H 0.3809 0.39785 0.98915 0.0
H403 H 0.3754 0.36783 0.95428 0.0
C404 C 0.35219 0.32599 0.99692 0.0
N405 N 0.36284 0.33596 0.00324 0.0
C406 C 0.35178 0.31476 0.99331 0.0
C407 C 0.37327 0.32424 0.00295 0.0
C408 C 0.37323 0.33525 0.00655 0.0
C409 C 0.36247 0.31384 0.99607 0.0
H410 H 0.3441 0.32684 0.9942 0.0
H411 H 0.38155 0.34333 0.01166 0.0
O412 O 0.36595 0.37985 0.01491 0.0
O413 O 0.35808 0.35407 0.03281 0.0
O414 O 0.35336 0.35528 0.98983 0.0
O415 O 0.38025 0.36604 0.00688 0.0
H416 H 0.36165 0.38345 0.05058 0.0
H417 H 0.35524 0.38852 0.99189 0.0
H418 H 0.34913 0.39302 0.06024 0.0
H419 H 0.3427 0.39786 0.00257 0.0
H420 H 0.34316 0.32484 0.07939 0.0
H421 H 0.33709 0.33785 0.01581 0.0
H422 H 0.35924 0.34515 0.06638 0.0
H423 H 0.32142 0.3177 0.02969 0.0
H424 H 0.31847 0.35487 0.05956 0.0
H425 H 0.3088 0.35267 -0.0 0.0
H426 H 0.40046 0.40752 0.06665 0.0
H427 H 0.39647 0.37277 0.08633 0.0
H428 H 0.35492 0.34044 0.96434 0.0
H429 H 0.3476 0.37049 0.97199 0.0
H430 H 0.35117 0.34076 0.92974 0.0
H431 H 0.34401 0.37032 0.93724 0.0
H432 H 0.38623 0.3563 0.97816 0.0
H433 H 0.398 0.38936 0.0115 0.0
H434 H 0.40532 0.36768 0.95861 0.0
H435 H 0.41684 0.40019 0.99127 0.0
H436 H 0.39393 0.41285 0.96444 0.0
H437 H 0.38774 0.38208 0.9286 0.0
H438 H 0.34332 0.30703 0.98776 0.0
H439 H 0.38167 0.32388 0.00539 0.0
Li440 Li 0.63506 0.98555 0.012 0.0
Li441 Li 0.62731 0.99764 0.02868 0.0
Li442 Li 0.6258 0.99512 0.99308 0.0
Li443 Li 0.64591 0.00881 0.0084 0.0
C444 C 0.61055 0.96971 0.01516 0.0
N445 N 0.59639 0.94425 0.0191 0.0
C446 C 0.60466 0.96452 0.03244 0.0
C447 C 0.60908 0.96195 -0.00019 0.0
C448 C 0.59758 0.95162 0.03417 0.0
C449 C 0.60194 0.9491 0.0021 0.0
C450 C 0.64798 0.00144 0.04979 0.0
C451 C 0.65855 0.01637 0.07478 0.0
N452 N 0.65675 0.00701 0.08671 0.0
C453 C 0.64641 0.99199 0.06222 0.0
C454 C 0.65424 0.01375 0.05605 0.0
C455 C 0.65083 0.99498 0.08086 0.0
C456 C 0.64642 0.97181 0.00168 0.0
N457 N 0.63819 0.97209 0.01409 0.0
C458 C 0.63643 0.95456 0.03082 0.0
C459 C 0.63312 0.96367 0.02842 0.0
C460 C 0.64517 0.95425 0.01853 0.0
C461 C 0.65006 0.96292 0.00363 0.0
H462 H 0.65046 0.97873 0.99059 0.0
H463 H 0.62684 0.96426 0.03839 0.0
C464 C 0.61332 0.00561 0.04977 0.0
N465 N 0.61894 0.99865 0.05077 0.0
C466 C 0.60677 0.00636 0.06534 0.0
C467 C 0.61151 0.99242 0.08253 0.0
C468 C 0.6181 0.99206 0.06669 0.0
C469 C 0.60575 0.99966 0.08196 0.0
H470 H 0.61375 0.01043 0.03675 0.0
H471 H 0.62229 0.98628 0.06695 0.0
C472 C 0.64297 0.99535 0.96944 0.0
N473 N 0.64478 0.99439 0.93034 0.0
C474 C 0.65031 0.00621 0.95909 0.0
C475 C 0.63671 0.98398 0.95993 0.0
C476 C 0.65107 0.00554 0.93933 0.0
C477 C 0.6377 0.9837 0.94015 0.0
C478 C 0.63355 0.02236 0.00987 0.0
C479 C 0.63147 0.02816 0.99442 0.0
C480 C 0.63845 0.02897 0.02674 0.0
C481 C 0.63456 0.04057 0.996 0.0
C482 C 0.64141 0.04136 0.02778 0.0
N483 N 0.63944 0.04686 0.0125 0.0
C484 C 0.60372 0.98384 0.97151 0.0
C485 C 0.62025 0.00172 0.95721 0.0
C486 C 0.59587 0.98249 0.95637 0.0
N487 N 0.61567 0.99332 0.97163 0.0
C488 C 0.61274 0.00071 0.94177 0.0
C489 C 0.60034 0.99101 0.94124 0.0
H490 H 0.60021 0.97745 0.98334 0.0
H491 H 0.62971 0.00932 0.95781 0.0
C492 C 0.67164 0.0229 0.01358 0.0
N493 N 0.66184 0.02325 0.00571 0.0
C494 C 0.68369 0.03283 0.01115 0.0
C495 C 0.67534 0.04334 0.99266 0.0
C496 C 0.66346 0.03319 0.99538 0.0
C497 C 0.68566 0.0432 0.00045 0.0
H498 H 0.67011 0.0148 0.02149 0.0
H499 H 0.65562 0.0331 0.98868 0.0
O500 O 0.61761 0.98231 0.01324 0.0
O501 O 0.64373 0.99868 0.03146 0.0
O502 O 0.64204 0.99584 0.98879 0.0
O503 O 0.63066 0.01023 0.0085 0.0
H504 H 0.60557 0.97037 0.0444 0.0
H505 H 0.61341 0.96581 0.98627 0.0
H506 H 0.59303 0.94748 0.04749 0.0
H507 H 0.60078 0.94299 0.99036 0.0
H508 H 0.66337 0.02586 0.07982 0.0
H509 H 0.64171 0.98243 0.05758 0.0
H510 H 0.65589 0.02123 0.0465 0.0
H511 H 0.64958 0.98774 0.09066 0.0
H512 H 0.63261 0.94819 0.0427 0.0
H513 H 0.65679 0.96297 0.9938 0.0
H514 H 0.60227 0.01186 0.06421 0.0
H515 H 0.61092 0.9871 0.09509 0.0
H516 H 0.65528 0.01507 0.96622 0.0
H517 H 0.63119 0.97547 0.96773 0.0
H518 H 0.65665 0.01388 0.93113 0.0
H519 H 0.63285 0.97497 0.9326 0.0
H520 H 0.62756 0.02317 0.98131 0.0
H521 H 0.63981 0.02454 0.03899 0.0
H522 H 0.63307 0.0452 0.98411 0.0
H523 H 0.64524 0.04658 0.04075 0.0
H524 H 0.58632 0.97501 0.95676 0.0
H525 H 0.61663 0.00743 0.93035 0.0
H526 H 0.69138 0.03235 0.01746 0.0
H527 H 0.67645 0.05101 0.98395 0.0
Li528 Li 0.65186 0.68497 0.34031 0.0
Li529 Li 0.67422 0.69434 0.34557 0.0
Li530 Li 0.66228 0.70303 0.36011 0.0
Li531 Li 0.66669 0.70511 0.32615 0.0
C532 C 0.66025 0.68611 0.3837 0.0
N533 N 0.65998 0.68659 0.423 0.0
C534 C 0.67104 0.68924 0.39397 0.0
C535 C 0.64931 0.68317 0.39339 0.0
C536 C 0.67072 0.68943 0.41385 0.0
C537 C 0.64937 0.68349 0.41327 0.0
C538 C 0.66995 0.68245 0.31263 0.0
C539 C 0.6869 0.68218 0.29643 0.0
N540 N 0.6805 0.66957 0.29682 0.0
C541 C 0.66351 0.66948 0.31278 0.0
C542 C 0.68171 0.68886 0.30429 0.0
C543 C 0.669 0.66314 0.30474 0.0
C544 C 0.63151 0.66635 0.31924 0.0
N545 N 0.63727 0.66932 0.33646 0.0
C546 C 0.62384 0.6488 0.34801 0.0
C547 C 0.63356 0.66089 0.35081 0.0
C548 C 0.61789 0.64536 0.33025 0.0
C549 C 0.62166 0.65438 0.31586 0.0
H550 H 0.63486 0.67315 0.30792 0.0
H551 H 0.63844 0.66341 0.36424 0.0
C552 C 0.69899 0.69883 0.351 0.0
N553 N 0.68678 0.69013 0.34951 0.0
C554 C 0.70781 0.69523 0.35448 0.0
C555 C 0.69129 0.67383 0.35454 0.0
C556 C 0.68282 0.67785 0.35136 0.0
C557 C 0.704 0.68256 0.35638 0.0
H558 H 0.70186 0.70856 0.34983 0.0
H559 H 0.67302 0.67116 0.35042 0.0
C560 C 0.63895 0.69573 0.3325 0.0
N561 N 0.61502 0.68556 0.31876 0.0
C562 C 0.63689 0.69756 0.31352 0.0
C563 C 0.62884 0.68877 0.34451 0.0
C564 C 0.62472 0.69234 0.30684 0.0
C565 C 0.61682 0.68369 0.33728 0.0
C566 C 0.687 0.72355 0.34181 0.0
C567 C 0.68635 0.73364 0.34917 0.0
C568 C 0.69588 0.72553 0.32799 0.0
C569 C 0.69454 0.74556 0.34243 0.0
C570 C 0.70389 0.73759 0.32159 0.0
N571 N 0.70306 0.74727 0.32888 0.0
C572 C 0.67056 0.71713 0.39397 0.0
C573 C 0.65021 0.71174 0.38442 0.0
C574 C 0.66982 0.72361 0.40967 0.0
N575 N 0.66084 0.71139 0.38176 0.0
C576 C 0.64904 0.71806 0.39996 0.0
C577 C 0.65895 0.72417 0.4128 0.0
H578 H 0.67895 0.71679 0.39136 0.0
H579 H 0.64266 0.70716 0.37442 0.0
C580 C 0.67276 0.71303 0.28765 0.0
N581 N 0.67016 0.71593 0.30507 0.0
C582 C 0.67537 0.72114 0.27233 0.0
C583 C 0.67265 0.73504 0.29323 0.0
C584 C 0.66987 0.72657 0.30802 0.0
C585 C 0.67543 0.73234 0.27512 0.0
H586 H 0.67274 0.70442 0.28564 0.0
H587 H 0.66747 0.72848 0.32191 0.0
O588 O 0.66046 0.68618 0.36423 0.0
O589 O 0.66482 0.68884 0.32071 0.0
O590 O 0.6508 0.70065 0.33926 0.0
O591 O 0.67892 0.71179 0.348 0.0
H592 H 0.67961 0.69162 0.3867 0.0
H593 H 0.64091 0.68084 0.38564 0.0
H594 H 0.67901 0.69189 0.42199 0.0
H595 H 0.641 0.68132 0.42097 0.0
H596 H 0.69603 0.68703 0.29004 0.0
H597 H 0.65442 0.66435 0.31922 0.0
H598 H 0.68683 0.69889 0.30404 0.0
H599 H 0.66415 0.6531 0.30486 0.0
H600 H 0.62119 0.64213 0.35948 0.0
H601 H 0.61744 0.65204 0.30187 0.0
H602 H 0.71745 0.70232 0.35612 0.0
H603 H 0.68788 0.66397 0.35555 0.0
H604 H 0.64459 0.70288 0.304 0.0
H605 H 0.63027 0.68714 0.35918 0.0
H606 H 0.62299 0.69365 0.29217 0.0
H607 H 0.60891 0.67821 0.34638 0.0
H608 H 0.67948 0.73228 0.35979 0.0
H609 H 0.69651 0.71783 0.32213 0.0
H610 H 0.6941 0.75345 0.34792 0.0
H611 H 0.71076 0.73925 0.31081 0.0
H612 H 0.67776 0.72832 0.41902 0.0
H613 H 0.64043 0.71809 0.40192 0.0
H614 H 0.67744 0.71875 0.25852 0.0
H615 H 0.67241 0.74349 0.29581 0.0
Li616 Li 0.29041 0.96592 0.32937 0.0
Li617 Li 0.29314 0.96117 0.36453 0.0
Li618 Li 0.30134 0.98234 0.35225 0.0
Li619 Li 0.3107 0.97106 0.34305 0.0
C620 C 0.27754 0.97448 0.35994 0.0
N621 N 0.26574 0.98669 0.37358 0.0
C622 C 0.2786 0.97781 0.37913 0.0
C623 C 0.2704 0.97725 0.34771 0.0
C624 C 0.27259 0.98402 0.38574 0.0
C625 C 0.26452 0.98345 0.35488 0.0
C626 C 0.30025 0.94726 0.33375 0.0
C627 C 0.30742 0.93274 0.33898 0.0
N628 N 0.31051 0.93355 0.32025 0.0
C629 C 0.30341 0.94789 0.31454 0.0
C630 C 0.30221 0.93959 0.34609 0.0
C631 C 0.30863 0.94091 0.30799 0.0
C632 C 0.28482 0.96286 0.29036 0.0
N633 N 0.2798 0.95961 0.30804 0.0
C634 C 0.25971 0.94619 0.29494 0.0
C635 C 0.26751 0.95153 0.31063 0.0
C636 C 0.26464 0.94925 0.27642 0.0
C637 C 0.27737 0.95786 0.27429 0.0
H638 H 0.29466 0.96923 0.28876 0.0
H639 H 0.26382 0.94904 0.32492 0.0
C640 C 0.28719 0.95352 0.40289 0.0
N641 N 0.28504 0.94969 0.38447 0.0
C642 C 0.2814 0.945 0.41762 0.0
C643 C 0.27096 0.92885 0.3941 0.0
C644 C 0.27706 0.93766 0.37983 0.0
C645 C 0.27318 0.93248 0.41328 0.0
H646 H 0.29349 0.96319 0.40612 0.0
H647 H 0.2755 0.93491 0.36502 0.0
C648 C 0.31071 0.99264 0.31893 0.0
N649 N 0.31899 0.01631 0.30514 0.0
C650 C 0.32255 0.00229 0.32366 0.0
C651 C 0.30313 0.99501 0.30702 0.0
C652 C 0.32655 0.0142 0.31662 0.0
C653 C 0.30748 0.00704 0.30021 0.0
C654 C 0.32017 0.97792 0.37769 0.0
C655 C 0.33135 0.98872 0.37353 0.0
C656 C 0.32014 0.96918 0.39023 0.0
C657 C 0.34233 0.99053 0.38183 0.0
C658 C 0.33132 0.97135 0.39828 0.0
N659 N 0.34209 0.98188 0.39393 0.0
C660 C 0.31267 0.0045 0.3734 0.0
C661 C 0.29907 0.00423 0.34957 0.0
C662 C 0.3165 0.01683 0.37769 0.0
N663 N 0.30437 0.99856 0.35919 0.0
C664 C 0.30261 0.01657 0.35344 0.0
C665 C 0.31166 0.02311 0.36735 0.0
H666 H 0.31653 0.99974 0.38117 0.0
H667 H 0.2924 0.99931 0.33846 0.0
C668 C 0.33193 0.97832 0.32044 0.0
N669 N 0.32595 0.97166 0.33619 0.0
C670 C 0.34311 0.97928 0.31469 0.0
C671 C 0.34174 0.96635 0.34128 0.0
C672 C 0.33052 0.96554 0.3464 0.0
C673 C 0.34825 0.97335 0.32526 0.0
H674 H 0.32797 0.98281 0.31221 0.0
H675 H 0.32546 0.96001 0.35855 0.0
O676 O 0.28348 0.96856 0.35314 0.0
O677 O 0.29541 0.95423 0.3405 0.0
O678 O 0.30659 0.98094 0.32584 0.0
O679 O 0.3093 0.976 0.36973 0.0
H680 H 0.28412 0.97574 0.38874 0.0
H681 H 0.26952 0.97472 0.3328 0.0
H682 H 0.27339 0.98673 0.40054 0.0
H683 H 0.25901 0.98571 0.34557 0.0
H684 H 0.30906 0.92682 0.34837 0.0
H685 H 0.302 0.95384 0.30485 0.0
H686 H 0.29986 0.93906 0.36103 0.0
H687 H 0.31121 0.94138 0.29318 0.0
H688 H 0.25003 0.93948 0.29732 0.0
H689 H 0.28157 0.96067 0.26034 0.0
H690 H 0.28323 0.94819 0.43224 0.0
H691 H 0.26474 0.91927 0.39018 0.0
H692 H 0.32857 0.00062 0.33273 0.0
H693 H 0.29389 0.9877 0.30336 0.0
H694 H 0.33566 0.02177 0.32028 0.0
H695 H 0.30167 0.00902 0.29111 0.0
H696 H 0.33156 0.9956 0.36393 0.0
H697 H 0.31164 0.96071 0.39346 0.0
H698 H 0.35105 0.99881 0.37865 0.0
H699 H 0.33144 0.96462 0.4079 0.0
H700 H 0.32328 0.02144 0.38885 0.0
H701 H 0.29865 0.02107 0.34513 0.0
H702 H 0.34757 0.98449 0.30193 0.0
H703 H 0.34531 0.96165 0.34994 0.0
Li704 Li 0.04162 0.33897 0.32486 0.0
Li705 Li 0.0435 0.34327 0.35908 0.0
Li706 Li 0.02323 0.32932 0.34471 0.0
Li707 Li 0.03386 0.35169 0.33939 0.0
C708 C 0.04227 0.31966 0.34044 0.0
N709 N 0.05189 0.30518 0.32777 0.0
C710 C 0.05297 0.32077 0.34881 0.0
C711 C 0.03643 0.31115 0.32571 0.0
C712 C 0.05769 0.31337 0.34219 0.0
C713 C 0.04145 0.30393 0.31946 0.0
C714 C 0.05695 0.36717 0.3321 0.0
C715 C 0.0642 0.3888 0.33822 0.0
N716 N 0.06737 0.39139 0.31956 0.0
C717 C 0.06032 0.37005 0.313 0.0
C718 C 0.05894 0.37662 0.34484 0.0
C719 C 0.06557 0.38235 0.30694 0.0
C720 C 0.0455 0.33766 0.28548 0.0
N721 N 0.04995 0.33757 0.30312 0.0
C722 C 0.0677 0.33776 0.28972 0.0
C723 C 0.06087 0.33772 0.30551 0.0
C724 C 0.06345 0.33812 0.2714 0.0
C725 C 0.0522 0.33804 0.2693 0.0
H726 H 0.03696 0.33788 0.28401 0.0
H727 H 0.06446 0.33817 0.31966 0.0
C728 C 0.05036 0.33616 0.39293 0.0
N729 N 0.05374 0.34575 0.38063 0.0
C730 C 0.05792 0.3374 0.40841 0.0
C731 C 0.07223 0.35842 0.39839 0.0
C732 C 0.0644 0.35675 0.38306 0.0
C733 C 0.06908 0.34861 0.41121 0.0
H734 H 0.04187 0.32749 0.39052 0.0
H735 H 0.06694 0.36416 0.37291 0.0
C736 C 0.01439 0.33191 0.31194 0.0
N737 N 0.99095 0.31846 0.29635 0.0
C738 C 0.00577 0.33588 0.31437 0.0
C739 C 0.01113 0.32117 0.30147 0.0
C740 C 0.99396 0.32893 0.3064 0.0
C741 C 0.99921 0.31447 0.29374 0.0
C742 C 0.0274 0.34311 0.38286 0.0
C743 C 0.02057 0.33214 0.39321 0.0
C744 C 0.03458 0.35431 0.3925 0.0
C745 C 0.02107 0.33256 0.41308 0.0
C746 C 0.03486 0.35433 0.41238 0.0
N747 N 0.02815 0.34355 0.42217 0.0
C748 C 0.00517 0.30348 0.34816 0.0
C749 C 0.99796 0.31766 0.35298 0.0
C750 C 0.99337 0.29347 0.35211 0.0
N751 N 0.00721 0.31528 0.34873 0.0
C752 C 0.98604 0.30795 0.35693 0.0
C753 C 0.98363 0.29565 0.35676 0.0
H754 H 0.01273 0.30186 0.34506 0.0
H755 H 0.9999 0.32715 0.35355 0.0
C756 C 0.03106 0.36807 0.31581 0.0
N757 N 0.03087 0.36494 0.33438 0.0
C758 C 0.02763 0.37674 0.31066 0.0
C759 C 0.02428 0.37917 0.34392 0.0
C760 C 0.02771 0.37035 0.34843 0.0
C761 C 0.02396 0.38224 0.32476 0.0
H762 H 0.03352 0.36352 0.30496 0.0
H763 H 0.02746 0.36754 0.36305 0.0
O764 O 0.03756 0.32689 0.34665 0.0
O765 O 0.05152 0.35514 0.33822 0.0
O766 O 0.02593 0.33844 0.31995 0.0
O767 O 0.02725 0.34286 0.36339 0.0
H768 H 0.05765 0.32735 0.36017 0.0
H769 H 0.02817 0.31021 0.31904 0.0
H770 H 0.06599 0.31416 0.34848 0.0
H771 H 0.03706 0.29736 0.308 0.0
H772 H 0.06571 0.39619 0.34789 0.0
H773 H 0.05882 0.36286 0.30293 0.0
H774 H 0.05627 0.37453 0.35963 0.0
H775 H 0.06818 0.3847 0.29219 0.0
H776 H 0.07646 0.33804 0.29181 0.0
H777 H 0.04873 0.33841 0.25531 0.0
H778 H 0.05507 0.32966 0.41806 0.0
H779 H 0.08081 0.36716 0.39989 0.0
H780 H 0.00811 0.34412 0.32255 0.0
H781 H 0.01771 0.318 0.29938 0.0
H782 H 0.98716 0.33185 0.30826 0.0
H783 H 0.99654 0.30611 0.28566 0.0
H784 H 0.01505 0.32337 0.386 0.0
H785 H 0.04003 0.36286 0.38471 0.0
H786 H 0.01587 0.32414 0.42127 0.0
H787 H 0.04044 0.36292 0.42002 0.0
H788 H 0.992 0.28417 0.35211 0.0
H789 H 0.97881 0.31009 0.3602 0.0
H790 H 0.02763 0.37896 0.29574 0.0
H791 H 0.0214 0.38312 0.35517 0.0
Li792 Li 0.67889 0.98133 0.34614 0.0
Li793 Li 0.66672 0.96099 0.36178 0.0
Li794 Li 0.66986 0.96254 0.32757 0.0
Li795 Li 0.65696 0.9693 0.34189 0.0
C796 C 0.69204 0.97009 0.36025 0.0
N797 N 0.7109 0.97524 0.3858 0.0
C798 C 0.69307 0.97659 0.37702 0.0
C799 C 0.7006 0.96621 0.35649 0.0
C800 C 0.70267 0.9791 0.38976 0.0
C801 C 0.71007 0.96891 0.36958 0.0
C802 C 0.65711 0.97676 0.37694 0.0
C803 C 0.63766 0.96632 0.39391 0.0
N804 N 0.63858 0.97748 0.39758 0.0
C805 C 0.65787 0.98812 0.38091 0.0
C806 C 0.64693 0.96576 0.3835 0.0
C807 C 0.6484 0.98829 0.39136 0.0
C808 C 0.68954 0.00696 0.35028 0.0
N809 N 0.69245 0.99789 0.34798 0.0
C810 C 0.71411 0.01286 0.34809 0.0
C811 C 0.70445 0.00061 0.34647 0.0
C812 C 0.71139 0.02241 0.35112 0.0
C813 C 0.69889 0.01933 0.35198 0.0
H814 H 0.67992 0.00456 0.3508 0.0
H815 H 0.70655 0.99329 0.34395 0.0
C816 C 0.66355 0.93967 0.38019 0.0
N817 N 0.66537 0.95123 0.38336 0.0
C818 C 0.66242 0.93201 0.3955 0.0
C819 C 0.66511 0.94835 0.417 0.0
C820 C 0.66629 0.95572 0.40128 0.0
C821 C 0.66311 0.9363 0.4142 0.0
H822 H 0.66291 0.93639 0.36574 0.0
H823 H 0.6679 0.96503 0.40336 0.0
C824 C 0.67776 0.98446 0.30766 0.0
N825 N 0.69422 0.99749 0.27872 0.0
C826 C 0.67495 0.9911 0.29449 0.0
C827 C 0.68895 0.98444 0.30611 0.0
C828 C 0.68339 0.99763 0.27996 0.0
C829 C 0.69715 0.99109 0.29139 0.0
C830 C 0.64506 0.94463 0.32927 0.0
C831 C 0.6429 0.94959 0.31281 0.0
C832 C 0.63793 0.93191 0.33283 0.0
C833 C 0.63361 0.94171 0.30018 0.0
C834 C 0.62872 0.92434 0.31986 0.0
N835 N 0.62677 0.92935 0.30393 0.0
C836 C 0.67746 0.94725 0.31008 0.0
C837 C 0.66864 0.95544 0.28866 0.0
C838 C 0.67941 0.94094 0.29527 0.0
N839 N 0.67219 0.95433 0.30652 0.0
C840 C 0.67034 0.94922 0.27346 0.0
C841 C 0.6758 0.94186 0.27667 0.0
H842 H 0.6801 0.94648 0.32446 0.0
H843 H 0.66451 0.96116 0.28621 0.0
C844 C 0.64488 0.9824 0.33308 0.0
N845 N 0.64274 0.97112 0.33907 0.0
C846 C 0.63503 0.98462 0.33078 0.0
C847 C 0.62095 0.96359 0.34098 0.0
C848 C 0.63109 0.96179 0.34318 0.0
C849 C 0.62286 0.97513 0.33464 0.0
H850 H 0.65427 0.98966 0.33007 0.0
H851 H 0.62969 0.95296 0.34821 0.0
O852 O 0.68269 0.96742 0.34755 0.0
O853 O 0.66609 0.97633 0.36628 0.0
O854 O 0.66954 0.97808 0.32196 0.0
O855 O 0.65414 0.9521 0.34185 0.0
H856 H 0.68659 0.97973 0.38019 0.0
H857 H 0.69993 0.96118 0.34357 0.0
H858 H 0.70358 0.98413 0.40278 0.0
H859 H 0.71676 0.96597 0.36684 0.0
H860 H 0.6297 0.95788 0.39897 0.0
H861 H 0.66567 0.99672 0.376 0.0
H862 H 0.64607 0.95687 0.38029 0.0
H863 H 0.64886 0.99702 0.3945 0.0
H864 H 0.72361 0.01483 0.34693 0.0
H865 H 0.69634 0.02636 0.35438 0.0
H866 H 0.66078 0.92275 0.39273 0.0
H867 H 0.66586 0.95206 0.43119 0.0
H868 H 0.66632 0.99121 0.2955 0.0
H869 H 0.69131 0.97935 0.31611 0.0
H870 H 0.68133 0.00282 0.26966 0.0
H871 H 0.70584 0.99115 0.29003 0.0
H872 H 0.64831 0.9594 0.30978 0.0
H873 H 0.6395 0.92794 0.3455 0.0
H874 H 0.63184 0.94542 0.2874 0.0
H875 H 0.62313 0.91447 0.32244 0.0
H876 H 0.68353 0.93526 0.29839 0.0
H877 H 0.66756 0.95029 0.2593 0.0
H878 H 0.63691 0.9936 0.32564 0.0
H879 H 0.61173 0.95607 0.34431 0.0
Li880 Li 0.0399 0.70779 0.36819 0.0
Li881 Li 0.0199 0.70034 0.35031 0.0
Li882 Li 0.03103 0.68909 0.34866 0.0
Li883 Li 0.03871 0.70827 0.33244 0.0
C884 C 0.01693 0.68079 0.37915 0.0
N885 N 0.00326 0.65683 0.39285 0.0
C886 C 0.0051 0.67277 0.37188 0.0
C887 C 0.02182 0.67661 0.39336 0.0
C888 C 0.99834 0.6607 0.379 0.0
C889 C 0.01476 0.66447 0.40011 0.0
C890 C 0.02929 0.72442 0.35605 0.0
C891 C 0.01674 0.73343 0.34746 0.0
N892 N 0.01799 0.73798 0.36542 0.0
C893 C 0.0305 0.72922 0.37441 0.0
C894 C 0.0224 0.72658 0.34242 0.0
C895 C 0.02471 0.73605 0.37887 0.0
C896 C 0.06009 0.72726 0.38697 0.0
N897 N 0.04948 0.71629 0.38983 0.0
C898 C 0.0535 0.7173 0.42321 0.0
C899 C 0.04598 0.71133 0.40751 0.0
C900 C 0.06465 0.72861 0.42075 0.0
C901 C 0.06782 0.73364 0.4023 0.0
H902 H 0.06258 0.731 0.37272 0.0
H903 H 0.03741 0.70268 0.4094 0.0
C904 C 0.99531 0.69217 0.33828 0.0
N905 N 0.00371 0.69833 0.35229 0.0
C906 C 0.98302 0.68938 0.3403 0.0
C907 C 0.98829 0.69953 0.37098 0.0
C908 C 0.00045 0.70199 0.36847 0.0
C909 C 0.97936 0.69296 0.35691 0.0
H910 H 0.99803 0.68901 0.32584 0.0
H911 H 0.0072 0.7065 0.37967 0.0
C912 C 0.05562 0.69772 0.35055 0.0
N913 N 0.07019 0.68684 0.35423 0.0
C914 C 0.05636 0.69065 0.33567 0.0
C915 C 0.06234 0.69928 0.36728 0.0
C916 C 0.06375 0.68521 0.33782 0.0
C917 C 0.06965 0.69371 0.36886 0.0
C918 C 0.02314 0.6936 0.30832 0.0
C919 C 0.0283 0.68783 0.29762 0.0
C920 C 0.01883 0.70067 0.29909 0.0
C921 C 0.02909 0.68926 0.27786 0.0
C922 C 0.01981 0.70189 0.2793 0.0
N923 N 0.02488 0.69622 0.26918 0.0
C924 C 0.01989 0.66461 0.33496 0.0
C925 C 0.03455 0.66868 0.3594 0.0
C926 C 0.01788 0.6526 0.33273 0.0
N927 N 0.02838 0.6725 0.34773 0.0
C928 C 0.03292 0.65679 0.35754 0.0
C929 C 0.02464 0.64866 0.34382 0.0
H930 H 0.01478 0.6677 0.32629 0.0
H931 H 0.0409 0.67493 0.36998 0.0
C932 C 0.04682 0.72775 0.30489 0.0
N933 N 0.04778 0.71786 0.31077 0.0
C934 C 0.05344 0.73462 0.28895 0.0
C935 C 0.06197 0.72104 0.28559 0.0
C936 C 0.05524 0.7145 0.30156 0.0
C937 C 0.0611 0.73123 0.27904 0.0
H938 H 0.0409 0.7303 0.31252 0.0
H939 H 0.05595 0.7067 0.30656 0.0
O940 O 0.02381 0.69255 0.37198 0.0
O941 O 0.0348 0.71761 0.35146 0.0
O942 O 0.0485 0.70321 0.34873 0.0
O943 O 0.02262 0.69261 0.32775 0.0
H944 H 0.00124 0.67576 0.36067 0.0
H945 H 0.03106 0.68257 0.39885 0.0
H946 H 0.98919 0.65438 0.37345 0.0
H947 H 0.01846 0.66109 0.41103 0.0
H948 H 0.0113 0.7351 0.33709 0.0
H949 H 0.03577 0.72764 0.38516 0.0
H950 H 0.02128 0.72287 0.3282 0.0
H951 H 0.02553 0.73978 0.39304 0.0
H952 H 0.0507 0.71293 0.43704 0.0
H953 H 0.07615 0.74244 0.39968 0.0
H954 H 0.97639 0.68426 0.32915 0.0
H955 H 0.98578 0.70223 0.38416 0.0
H956 H 0.05102 0.68906 0.32281 0.0
H957 H 0.06193 0.70472 0.37895 0.0
H958 H 0.0643 0.67962 0.3265 0.0
H959 H 0.07488 0.69483 0.38174 0.0
H960 H 0.03181 0.68243 0.3045 0.0
H961 H 0.01493 0.70531 0.30713 0.0
H962 H 0.03313 0.6849 0.26942 0.0
H963 H 0.01658 0.7074 0.272 0.0
H964 H 0.01142 0.64664 0.32196 0.0
H965 H 0.03815 0.65402 0.36661 0.0
H966 H 0.05244 0.74237 0.28432 0.0
H967 H 0.06793 0.71823 0.2786 0.0
Li968 Li 0.29571 0.3341 0.35952 0.0
Li969 Li 0.30191 0.31953 0.34413 0.0
Li970 Li 0.31337 0.3416 0.33796 0.0
Li971 Li 0.29369 0.3296 0.32421 0.0
C972 C 0.32204 0.3389 0.37148 0.0
N973 N 0.34531 0.35146 0.38782 0.0
C974 C 0.3313 0.33639 0.36567 0.0
C975 C 0.32454 0.34769 0.3857 0.0
C976 C 0.34303 0.34288 0.37407 0.0
C977 C 0.33639 0.35396 0.39377 0.0
C978 C 0.27665 0.30612 0.35005 0.0
C979 C 0.26659 0.28418 0.34338 0.0
N980 N 0.25953 0.28185 0.35929 0.0
C981 C 0.26927 0.3035 0.36631 0.0
C982 C 0.27527 0.29638 0.33845 0.0
C983 C 0.26068 0.29118 0.37074 0.0
C984 C 0.2806 0.34111 0.37983 0.0
N985 N 0.28792 0.33592 0.38135 0.0
C986 C 0.28175 0.33025 0.41366 0.0
C987 C 0.28877 0.33071 0.39786 0.0
C988 C 0.27394 0.33534 0.41243 0.0
C989 C 0.27359 0.34105 0.39539 0.0
H990 H 0.27994 0.34496 0.36636 0.0
H991 H 0.29452 0.32647 0.39849 0.0
C992 C 0.31164 0.3036 0.33913 0.0
N993 N 0.30361 0.30553 0.34967 0.0
C994 C 0.31419 0.29424 0.34413 0.0
C995 C 0.29994 0.28887 0.37053 0.0
C996 C 0.29783 0.29845 0.36518 0.0
C997 C 0.30841 0.28679 0.36018 0.0
H998 H 0.31643 0.30964 0.32724 0.0
H999 H 0.29177 0.30042 0.37367 0.0
C1000 C 0.30656 0.35846 0.33724 0.0
N1001 N 0.32027 0.38408 0.33628 0.0
C1002 C 0.31209 0.36462 0.32026 0.0
C1003 C 0.30797 0.36535 0.35371 0.0
C1004 C 0.31901 0.37757 0.32008 0.0
C1005 C 0.31492 0.37829 0.35293 0.0
C1006 C 0.30652 0.32498 0.30073 0.0
C1007 C 0.30967 0.33434 0.28723 0.0
C1008 C 0.30104 0.31263 0.29481 0.0
C1009 C 0.30711 0.33117 0.26803 0.0
C1010 C 0.29864 0.30983 0.27547 0.0
N1011 N 0.30168 0.31908 0.2626 0.0
C1012 C 0.33658 0.3529 0.32003 0.0
C1013 C 0.33579 0.36506 0.34532 0.0
C1014 C 0.34904 0.36151 0.31678 0.0
N1015 N 0.3302 0.35478 0.33408 0.0
C1016 C 0.34826 0.37397 0.3425 0.0
C1017 C 0.35507 0.37219 0.32815 0.0
H1018 H 0.33206 0.34458 0.3115 0.0
H1019 H 0.33068 0.36625 0.35674 0.0
C1020 C 0.27494 0.31557 0.29687 0.0
N1021 N 0.28289 0.32721 0.30329 0.0
C1022 C 0.26656 0.3137 0.28227 0.0
C1023 C 0.27482 0.33586 0.28096 0.0
C1024 C 0.28299 0.33729 0.29564 0.0
C1025 C 0.26636 0.32393 0.27419 0.0
H1026 H 0.27498 0.30771 0.3032 0.0
H1027 H 0.28931 0.34643 0.30108 0.0
O1028 O 0.31059 0.33284 0.36316 0.0
O1029 O 0.28518 0.31814 0.34561 0.0
O1030 O 0.29974 0.34578 0.33772 0.0
O1031 O 0.30867 0.3279 0.31965 0.0
H1032 H 0.32949 0.32963 0.35463 0.0
H1033 H 0.31745 0.34973 0.39029 0.0
H1034 H 0.35033 0.34112 0.36963 0.0
H1035 H 0.3385 0.36084 0.40472 0.0
H1036 H 0.2655 0.27656 0.33461 0.0
H1037 H 0.2701 0.3109 0.37536 0.0
H1038 H 0.28102 0.29819 0.32601 0.0
H1039 H 0.25491 0.28903 0.38328 0.0
H1040 H 0.28228 0.32581 0.42661 0.0
H1041 H 0.26756 0.34495 0.39387 0.0
H1042 H 0.32099 0.29322 0.33596 0.0
H1043 H 0.29514 0.28332 0.38286 0.0
H1044 H 0.31118 0.35947 0.3074 0.0
H1045 H 0.30388 0.36077 0.36702 0.0
H1046 H 0.3234 0.38245 0.30707 0.0
H1047 H 0.31613 0.38373 0.36559 0.0
H1048 H 0.31395 0.34395 0.29156 0.0
H1049 H 0.29857 0.30526 0.30503 0.0
H1050 H 0.30941 0.33831 0.25745 0.0
H1051 H 0.29434 0.3003 0.27071 0.0
H1052 H 0.35389 0.35982 0.30542 0.0
H1053 H 0.3526 0.382 0.35176 0.0
H1054 H 0.26013 0.30432 0.27771 0.0
H1055 H 0.27516 0.34404 0.27498 0.0
Li1056 Li 0.32422 0.02241 0.67114 0.0
Li1057 Li 0.34633 0.03528 0.67839 0.0
Li1058 Li 0.33089 0.04013 0.69156 0.0
Li1059 Li 0.33661 0.04347 0.65793 0.0
C1060 C 0.32718 0.01383 0.70379 0.0
N1061 N 0.31583 0.98977 0.71731 0.0
C1062 C 0.33332 0.00702 0.70282 0.0
C1063 C 0.31533 0.00845 0.71179 0.0
C1064 C 0.32741 0.99486 0.70971 0.0
C1065 C 0.30973 0.99626 0.71849 0.0
C1066 C 0.34002 0.02903 0.63435 0.0
C1067 C 0.35249 0.03804 0.60626 0.0
N1068 N 0.34268 0.03021 0.59524 0.0
C1069 C 0.33007 0.02105 0.62275 0.0
C1070 C 0.35134 0.03757 0.62607 0.0
C1071 C 0.3316 0.02179 0.603 0.0
C1072 C 0.29959 0.00178 0.66532 0.0
N1073 N 0.31193 0.00572 0.66585 0.0
C1074 C 0.30813 0.98551 0.65761 0.0
C1075 C 0.31629 0.99788 0.66214 0.0
C1076 C 0.29532 0.98115 0.65661 0.0
C1077 C 0.29106 0.98944 0.66074 0.0
H1078 H 0.29639 0.00825 0.66815 0.0
H1079 H 0.32617 0.00131 0.66256 0.0
C1080 C 0.36629 0.037 0.70061 0.0
N1081 N 0.36088 0.03433 0.68312 0.0
C1082 C 0.37633 0.03523 0.70435 0.0
C1083 C 0.37494 0.0279 0.67208 0.0
C1084 C 0.36504 0.02993 0.66892 0.0
C1085 C 0.38062 0.03042 0.69005 0.0
H1086 H 0.36259 0.04018 0.7118 0.0
H1087 H 0.36042 0.02762 0.65528 0.0
C1088 C 0.31123 0.0388 0.67379 0.0
N1089 N 0.29459 0.04623 0.68449 0.0
C1090 C 0.31177 0.04925 0.66542 0.0
C1091 C 0.30216 0.03207 0.68747 0.0
C1092 C 0.30328 0.05287 0.67105 0.0
C1093 C 0.29386 0.036 0.69274 0.0
C1094 C 0.35886 0.05888 0.68733 0.0
C1095 C 0.36045 0.06226 0.70654 0.0
C1096 C 0.36926 0.06263 0.67571 0.0
C1097 C 0.37245 0.06928 0.71384 0.0
C1098 C 0.3811 0.06962 0.68357 0.0
N1099 N 0.38244 0.07277 0.70231 0.0
C1100 C 0.32524 0.04177 0.73024 0.0
C1101 C 0.32643 0.05756 0.71004 0.0
C1102 C 0.32295 0.0472 0.74597 0.0
N1103 N 0.32692 0.04701 0.71274 0.0
C1104 C 0.32389 0.06314 0.72525 0.0
C1105 C 0.32224 0.05807 0.74364 0.0
H1106 H 0.32596 0.03353 0.73206 0.0
H1107 H 0.32811 0.06171 0.69604 0.0
C1108 C 0.33158 0.04986 0.62142 0.0
N1109 N 0.33923 0.05405 0.63679 0.0
C1110 C 0.33386 0.05757 0.60568 0.0
C1111 C 0.35151 0.0739 0.62225 0.0
C1112 C 0.34897 0.06584 0.63756 0.0
C1113 C 0.34396 0.06975 0.60598 0.0
H1114 H 0.32375 0.04051 0.62136 0.0
H1115 H 0.35481 0.06899 0.65005 0.0
O1116 O 0.33269 0.02565 0.69675 0.0
O1117 O 0.33866 0.02859 0.65371 0.0
O1118 O 0.31953 0.03518 0.66858 0.0
O1119 O 0.34719 0.05189 0.67994 0.0
H1120 H 0.34249 0.01103 0.69662 0.0
H1121 H 0.31046 0.0136 0.71265 0.0
H1122 H 0.33202 0.98946 0.70895 0.0
H1123 H 0.30052 0.99195 0.72461 0.0
H1124 H 0.36117 0.04465 0.59965 0.0
H1125 H 0.32122 0.01445 0.6289 0.0
H1126 H 0.35911 0.04386 0.63484 0.0
H1127 H 0.32397 0.01571 0.59385 0.0
H1128 H 0.31184 0.97943 0.65487 0.0
H1129 H 0.28128 0.98652 0.65993 0.0
H1130 H 0.38034 0.0371 0.71849 0.0
H1131 H 0.37799 0.02419 0.66068 0.0
H1132 H 0.31873 0.05456 0.6548 0.0
H1133 H 0.30163 0.02397 0.69409 0.0
H1134 H 0.30362 0.06097 0.66476 0.0
H1135 H 0.28685 0.03093 0.7034 0.0
H1136 H 0.35252 0.05943 0.71575 0.0
H1137 H 0.36819 0.06004 0.66083 0.0
H1138 H 0.37382 0.07192 0.7287 0.0
H1139 H 0.38923 0.07252 0.67477 0.0
H1140 H 0.32207 0.04306 0.75985 0.0
H1141 H 0.32326 0.07137 0.72254 0.0
H1142 H 0.32772 0.05408 0.59349 0.0
H1143 H 0.35943 0.0832 0.62301 0.0
Li1144 Li 0.9835 0.3014 0.6771 0.0
Li1145 Li 0.97139 0.31175 0.68145 0.0
Li1146 Li 0.96568 0.29208 0.69744 0.0
Li1147 Li 0.96275 0.29282 0.66323 0.0
C1148 C 0.98166 0.30914 0.71999 0.0
N1149 N 0.98175 0.30968 0.75931 0.0
C1150 C 0.97771 0.31637 0.72965 0.0
C1151 C 0.98572 0.30224 0.73032 0.0
C1152 C 0.97782 0.31651 0.74953 0.0
C1153 C 0.98567 0.30261 0.7502 0.0
C1154 C 0.98235 0.31963 0.64778 0.0
C1155 C 0.97923 0.33467 0.63073 0.0
N1156 N 0.99173 0.3423 0.62974 0.0
C1157 C 0.99517 0.3276 0.64654 0.0
C1158 C 0.9743 0.32316 0.63974 0.0
C1159 C 0.99973 0.33902 0.63737 0.0
C1160 C 0.00265 0.30233 0.65482 0.0
N1161 N 0.99976 0.30421 0.67269 0.0
C1162 C 0.02035 0.31079 0.68343 0.0
C1163 C 0.00829 0.30835 0.68694 0.0
C1164 C 0.02363 0.30895 0.66507 0.0
C1165 C 0.01457 0.30459 0.65069 0.0
H1166 H 0.99572 0.29923 0.6437 0.0
H1167 H 0.00577 0.30988 0.70097 0.0
C1168 C 0.96221 0.32823 0.68748 0.0
N1169 N 0.9726 0.32752 0.68426 0.0
C1170 C 0.96307 0.33974 0.69027 0.0
C1171 C 0.98528 0.34958 0.68608 0.0
C1172 C 0.98401 0.33786 0.68375 0.0
C1173 C 0.97474 0.35067 0.68959 0.0
H1174 H 0.95328 0.31983 0.68827 0.0
H1175 H 0.99214 0.337 0.68162 0.0
C1176 C 0.97594 0.27796 0.67168 0.0
N1177 N 0.98942 0.26698 0.6601 0.0
C1178 C 0.97521 0.27403 0.65285 0.0
C1179 C 0.98349 0.27626 0.68464 0.0
C1180 C 0.98209 0.26849 0.64727 0.0
C1181 C 0.99025 0.27072 0.6785 0.0
C1182 C 0.94277 0.29122 0.67842 0.0
C1183 C 0.93435 0.27952 0.68571 0.0
C1184 C 0.93886 0.29663 0.66465 0.0
C1185 C 0.92215 0.27338 0.67896 0.0
C1186 C 0.92659 0.29018 0.65825 0.0
N1187 N 0.91856 0.27878 0.66548 0.0
C1188 C 0.95201 0.28597 0.73158 0.0
C1189 C 0.95855 0.27178 0.72258 0.0
C1190 C 0.94569 0.27866 0.74729 0.0
N1191 N 0.95823 0.2824 0.71961 0.0
C1192 C 0.95237 0.26419 0.73813 0.0
C1193 C 0.94571 0.26753 0.75062 0.0
H1194 H 0.9518 0.2944 0.72871 0.0
H1195 H 0.96335 0.26904 0.71264 0.0
C1196 C 0.95344 0.28874 0.62519 0.0
N1197 N 0.95233 0.28354 0.64261 0.0
C1198 C 0.94601 0.28158 0.61008 0.0
C1199 C 0.93643 0.26387 0.63118 0.0
C1200 C 0.94406 0.27136 0.64583 0.0
C1201 C 0.93742 0.26893 0.61294 0.0
H1202 H 0.96024 0.29839 0.62293 0.0
H1203 H 0.9435 0.26745 0.65979 0.0
O1204 O 0.98137 0.30867 0.70054 0.0
O1205 O 0.97769 0.30845 0.65687 0.0
O1206 O 0.96948 0.28363 0.67733 0.0
O1207 O 0.95481 0.29727 0.68453 0.0
H1208 H 0.97449 0.32173 0.72189 0.0
H1209 H 0.9887 0.29651 0.72307 0.0
H1210 H 0.97474 0.32202 0.7572 0.0
H1211 H 0.9887 0.29725 0.75838 0.0
H1212 H 0.97311 0.33755 0.62456 0.0
H1213 H 0.00154 0.32506 0.65276 0.0
H1214 H 0.96436 0.31714 0.64066 0.0
H1215 H 0.00963 0.34531 0.63638 0.0
H1216 H 0.02704 0.31407 0.69494 0.0
H1217 H 0.01674 0.30327 0.63626 0.0
H1218 H 0.95469 0.34001 0.69342 0.0
H1219 H 0.99446 0.35766 0.68516 0.0
H1220 H 0.9695 0.27535 0.64257 0.0
H1221 H 0.98429 0.27938 0.69922 0.0
H1222 H 0.98165 0.26545 0.63272 0.0
H1223 H 0.9962 0.26943 0.68834 0.0
H1224 H 0.93723 0.27515 0.69627 0.0
H1225 H 0.94526 0.30567 0.65885 0.0
H1226 H 0.91555 0.26429 0.6844 0.0
H1227 H 0.92346 0.29423 0.64752 0.0
H1228 H 0.94079 0.28165 0.75666 0.0
H1229 H 0.95248 0.25561 0.74 0.0
H1230 H 0.94724 0.28582 0.59619 0.0
H1231 H 0.92986 0.25421 0.63411 0.0
Li1232 Li 0.69817 0.67789 0.67195 0.0
Li1233 Li 0.68853 0.65539 0.67788 0.0
Li1234 Li 0.7087 0.66914 0.6918 0.0
Li1235 Li 0.70575 0.66485 0.65722 0.0
C1236 C 0.69429 0.67682 0.71135 0.0
N1237 N 0.69725 0.69305 0.74038 0.0
C1238 C 0.68517 0.67333 0.72535 0.0
C1239 C 0.70493 0.68855 0.71212 0.0
C1240 C 0.68683 0.68167 0.73991 0.0
C1241 C 0.70625 0.69662 0.72691 0.0
C1242 C 0.68812 0.663 0.63438 0.0
C1243 C 0.68504 0.65155 0.60523 0.0
N1244 N 0.68619 0.6614 0.59515 0.0
C1245 C 0.68917 0.67297 0.62373 0.0
C1246 C 0.68594 0.65216 0.62507 0.0
C1247 C 0.6882 0.67199 0.60391 0.0
C1248 C 0.70208 0.70076 0.65664 0.0
N1249 N 0.69517 0.69136 0.66893 0.0
C1250 C 0.6827 0.70038 0.67661 0.0
C1251 C 0.68562 0.691 0.67882 0.0
C1252 C 0.68943 0.71009 0.66364 0.0
C1253 C 0.69932 0.71023 0.65369 0.0
H1254 H 0.70949 0.7007 0.6487 0.0
H1255 H 0.68014 0.68333 0.68829 0.0
C1256 C 0.66971 0.63717 0.70103 0.0
N1257 N 0.67284 0.64111 0.68277 0.0
C1258 C 0.65801 0.6271 0.70519 0.0
C1259 C 0.65301 0.62533 0.67167 0.0
C1260 C 0.66481 0.63541 0.66816 0.0
C1261 C 0.64943 0.62112 0.69041 0.0
H1262 H 0.67625 0.64199 0.71239 0.0
H1263 H 0.66747 0.6388 0.65381 0.0
C1264 C 0.72741 0.68977 0.6671 0.0
N1265 N 0.75197 0.70724 0.66043 0.0
C1266 C 0.73567 0.68608 0.66055 0.0
C1267 C 0.73164 0.70236 0.67026 0.0
C1268 C 0.74805 0.69505 0.65726 0.0
C1269 C 0.74409 0.71104 0.66682 0.0
C1270 C 0.69771 0.64116 0.68377 0.0
C1271 C 0.6981 0.6381 0.7028 0.0
C1272 C 0.69115 0.63173 0.67051 0.0
C1273 C 0.69179 0.62565 0.70831 0.0
C1274 C 0.68494 0.61938 0.67658 0.0
N1275 N 0.68537 0.61662 0.6952 0.0
C1276 C 0.71407 0.66864 0.73085 0.0
C1277 C 0.73179 0.67762 0.71092 0.0
C1278 C 0.72147 0.67048 0.74685 0.0
N1279 N 0.71932 0.67223 0.71332 0.0
C1280 C 0.73955 0.67972 0.72652 0.0
C1281 C 0.7344 0.6761 0.74477 0.0
H1282 H 0.70411 0.66418 0.7324 0.0
H1283 H 0.73576 0.68014 0.6969 0.0
C1284 C 0.71727 0.67122 0.62059 0.0
N1285 N 0.71367 0.663 0.63524 0.0
C1286 C 0.72319 0.66977 0.60472 0.0
C1287 C 0.72188 0.65164 0.61961 0.0
C1288 C 0.71593 0.6534 0.63509 0.0
C1289 C 0.72556 0.65984 0.60407 0.0
H1290 H 0.71553 0.6789 0.62124 0.0
H1291 H 0.71325 0.64718 0.64713 0.0
O1292 O 0.69277 0.66872 0.69705 0.0
O1293 O 0.68918 0.66384 0.6538 0.0
O1294 O 0.71518 0.68118 0.67006 0.0
O1295 O 0.70358 0.65333 0.6782 0.0
H1296 H 0.67688 0.66427 0.72495 0.0
H1297 H 0.71211 0.69139 0.70148 0.0
H1298 H 0.67984 0.6791 0.75084 0.0
H1299 H 0.71444 0.70573 0.72768 0.0
H1300 H 0.68347 0.64326 0.59785 0.0
H1301 H 0.69071 0.68136 0.63066 0.0
H1302 H 0.68513 0.64436 0.63303 0.0
H1303 H 0.68904 0.67966 0.5955 0.0
H1304 H 0.67515 0.69992 0.6849 0.0
H1305 H 0.70464 0.71734 0.64326 0.0
H1306 H 0.65558 0.6243 0.71988 0.0
H1307 H 0.64673 0.62093 0.65983 0.0
H1308 H 0.73264 0.67638 0.65833 0.0
H1309 H 0.7254 0.7054 0.67535 0.0
H1310 H 0.75455 0.69231 0.65225 0.0
H1311 H 0.74749 0.72081 0.66921 0.0
H1312 H 0.70316 0.64526 0.71324 0.0
H1313 H 0.69074 0.63391 0.65573 0.0
H1314 H 0.69196 0.62316 0.72301 0.0
H1315 H 0.67975 0.612 0.6665 0.0
H1316 H 0.71712 0.6676 0.76069 0.0
H1317 H 0.74945 0.6839 0.72424 0.0
H1318 H 0.72577 0.67627 0.59303 0.0
H1319 H 0.72376 0.64404 0.61999 0.0
Li1320 Li 0.34861 0.31693 0.67853 0.0
Li1321 Li 0.33578 0.29666 0.69032 0.0
Li1322 Li 0.34129 0.29878 0.65725 0.0
Li1323 Li 0.32699 0.30569 0.67028 0.0
C1324 C 0.35776 0.29892 0.69141 0.0
N1325 N 0.36701 0.28887 0.71729 0.0
C1326 C 0.3623 0.30467 0.70901 0.0
C1327 C 0.35803 0.28812 0.68691 0.0
C1328 C 0.36692 0.29943 0.72191 0.0
C1329 C 0.36271 0.28316 0.7002 0.0
C1330 C 0.32508 0.3087 0.70857 0.0
C1331 C 0.30469 0.29459 0.72096 0.0
N1332 N 0.30616 0.3032 0.73419 0.0
C1333 C 0.32638 0.31741 0.72227 0.0
C1334 C 0.31414 0.29719 0.70788 0.0
C1335 C 0.31672 0.31445 0.73511 0.0
C1336 C 0.35957 0.34274 0.68358 0.0
N1337 N 0.36191 0.3332 0.68364 0.0
C1338 C 0.38328 0.34702 0.69069 0.0
C1339 C 0.37349 0.33511 0.6869 0.0
C1340 C 0.38122 0.35717 0.69067 0.0
C1341 C 0.36914 0.35487 0.68682 0.0
H1342 H 0.35026 0.34094 0.68079 0.0
H1343 H 0.37514 0.32737 0.68661 0.0
C1344 C 0.32921 0.27377 0.70713 0.0
N1345 N 0.33283 0.28577 0.71123 0.0
C1346 C 0.32827 0.26565 0.72158 0.0
C1347 C 0.33441 0.28231 0.74429 0.0
C1348 C 0.33523 0.29011 0.72939 0.0
C1349 C 0.33108 0.26994 0.74043 0.0
H1350 H 0.32744 0.27062 0.69251 0.0
H1351 H 0.33828 0.29976 0.7322 0.0
C1352 C 0.34895 0.3255 0.64389 0.0
N1353 N 0.3653 0.34815 0.62775 0.0
C1354 C 0.3449 0.33374 0.63878 0.0
C1355 C 0.36129 0.32873 0.64063 0.0
C1356 C 0.35331 0.34516 0.63067 0.0
C1357 C 0.36942 0.34024 0.63252 0.0
C1358 C 0.31618 0.28162 0.65484 0.0
C1359 C 0.31693 0.28679 0.63685 0.0
C1360 C 0.30698 0.26938 0.65844 0.0
C1361 C 0.3084 0.27961 0.6228 0.0
C1362 C 0.29861 0.26251 0.64401 0.0
N1363 N 0.2995 0.26772 0.62664 0.0
C1364 C 0.34071 0.27879 0.6383 0.0
C1365 C 0.35051 0.29746 0.62049 0.0
C1366 C 0.34268 0.2724 0.62364 0.0
N1367 N 0.34466 0.29109 0.63651 0.0
C1368 C 0.35278 0.29147 0.60553 0.0
C1369 C 0.34883 0.27877 0.60701 0.0
H1370 H 0.33599 0.27393 0.65115 0.0
H1371 H 0.35332 0.30716 0.61921 0.0
C1372 C 0.31535 0.31981 0.66895 0.0
N1373 N 0.31313 0.30807 0.66619 0.0
C1374 C 0.30581 0.32255 0.6669 0.0
C1375 C 0.2918 0.30099 0.65944 0.0
C1376 C 0.30157 0.29866 0.66186 0.0
C1377 C 0.29383 0.31308 0.66193 0.0
H1378 H 0.32456 0.32705 0.67295 0.0
H1379 H 0.29982 0.2893 0.66041 0.0
O1380 O 0.35289 0.30372 0.67881 0.0
O1381 O 0.33447 0.31158 0.69586 0.0
O1382 O 0.34092 0.31439 0.65225 0.0
O1383 O 0.32451 0.28834 0.66883 0.0
H1384 H 0.36201 0.31295 0.71282 0.0
H1385 H 0.35458 0.28357 0.67336 0.0
H1386 H 0.37035 0.30371 0.73564 0.0
H1387 H 0.3629 0.27477 0.69696 0.0
H1388 H 0.29618 0.28573 0.72058 0.0
H1389 H 0.33478 0.32637 0.72295 0.0
H1390 H 0.3129 0.29032 0.69739 0.0
H1391 H 0.31761 0.32111 0.74579 0.0
H1392 H 0.39229 0.34817 0.69392 0.0
H1393 H 0.36706 0.36232 0.68619 0.0
H1394 H 0.32553 0.25616 0.71799 0.0
H1395 H 0.33683 0.28607 0.75856 0.0
H1396 H 0.33536 0.33135 0.64106 0.0
H1397 H 0.3646 0.3225 0.64468 0.0
H1398 H 0.35032 0.35164 0.6267 0.0
H1399 H 0.37902 0.34291 0.63009 0.0
H1400 H 0.32399 0.29622 0.63371 0.0
H1401 H 0.30631 0.26524 0.67226 0.0
H1402 H 0.30887 0.28348 0.60884 0.0
H1403 H 0.29143 0.25302 0.64661 0.0
H1404 H 0.33954 0.26263 0.62539 0.0
H1405 H 0.35737 0.29666 0.59281 0.0
H1406 H 0.30781 0.33195 0.6694 0.0
H1407 H 0.28279 0.29339 0.65542 0.0
Li1408 Li 0.68768 0.03358 0.67395 0.0
Li1409 Li 0.70897 0.04033 0.68723 0.0
Li1410 Li 0.70475 0.04091 0.65216 0.0
Li1411 Li 0.69787 0.02172 0.66784 0.0
C1412 C 0.6987 0.05806 0.67959 0.0
N1413 N 0.6898 0.07314 0.69243 0.0
C1414 C 0.70224 0.06373 0.69744 0.0
C1415 C 0.69072 0.06017 0.66819 0.0
C1416 C 0.69762 0.0713 0.70369 0.0
C1417 C 0.68629 0.06778 0.67496 0.0
C1418 C 0.68742 0.01422 0.70167 0.0
C1419 C 0.68828 0.99912 0.72213 0.0
N1420 N 0.67619 0.99092 0.71803 0.0
C1421 C 0.67499 0.00568 0.69772 0.0
C1422 C 0.69412 0.01095 0.71401 0.0
C1423 C 0.66949 0.99394 0.70611 0.0
C1424 C 0.66227 0.02607 0.6688 0.0
N1425 N 0.67225 0.03231 0.68042 0.0
C1426 C 0.65995 0.03565 0.70315 0.0
C1427 C 0.67128 0.03697 0.6974 0.0
C1428 C 0.64938 0.02908 0.69162 0.0
C1429 C 0.65069 0.02432 0.67415 0.0
H1430 H 0.66323 0.02214 0.65562 0.0
H1431 H 0.67928 0.04161 0.70659 0.0
C1432 C 0.73162 0.05765 0.70436 0.0
N1433 N 0.71981 0.04846 0.70783 0.0
C1434 C 0.73948 0.06422 0.71946 0.0
C1435 C 0.72285 0.05171 0.74134 0.0
C1436 C 0.71533 0.04537 0.72584 0.0
C1437 C 0.73509 0.06134 0.73827 0.0
H1438 H 0.73487 0.05993 0.68983 0.0
H1439 H 0.70581 0.03818 0.72812 0.0
C1440 C 0.68661 0.02629 0.63079 0.0
N1441 N 0.68429 0.02816 0.59199 0.0
C1442 C 0.69011 0.01991 0.61817 0.0
C1443 C 0.68184 0.03354 0.62368 0.0
C1444 C 0.68888 0.02098 0.5986 0.0
C1445 C 0.68077 0.0344 0.60402 0.0
C1446 C 0.72211 0.0294 0.66374 0.0
C1447 C 0.72124 0.02253 0.64747 0.0
C1448 C 0.72993 0.03019 0.67864 0.0
C1449 C 0.72816 0.01652 0.64643 0.0
C1450 C 0.73672 0.02406 0.67703 0.0
N1451 N 0.73569 0.0174 0.6611 0.0
C1452 C 0.71207 0.06151 0.62754 0.0
C1453 C 0.71718 0.04666 0.61646 0.0
C1454 C 0.71757 0.06893 0.61154 0.0
N1455 N 0.71196 0.0506 0.62969 0.0
C1456 C 0.72274 0.05375 0.60022 0.0
C1457 C 0.72303 0.06508 0.59762 0.0
H1458 H 0.70799 0.06453 0.63832 0.0
H1459 H 0.7171 0.03804 0.61853 0.0
C1460 C 0.68401 0.997 0.65554 0.0
N1461 N 0.69424 0.0048 0.66582 0.0
C1462 C 0.68053 0.98452 0.65357 0.0
C1463 C 0.69801 0.9882 0.67313 0.0
C1464 C 0.70105 0.00058 0.67496 0.0
C1465 C 0.68765 0.98002 0.66226 0.0
H1466 H 0.67849 0.00046 0.64893 0.0
H1467 H 0.70879 0.00677 0.68379 0.0
O1468 O 0.70304 0.05053 0.67331 0.0
O1469 O 0.69305 0.02562 0.69317 0.0
O1470 O 0.68802 0.0256 0.64999 0.0
O1471 O 0.7155 0.03544 0.66502 0.0
H1472 H 0.70845 0.06229 0.70643 0.0
H1473 H 0.68785 0.05585 0.65437 0.0
H1474 H 0.70025 0.07571 0.71751 0.0
H1475 H 0.68004 0.0694 0.66634 0.0
H1476 H 0.69337 0.99642 0.73162 0.0
H1477 H 0.66971 0.00805 0.68809 0.0
H1478 H 0.70379 0.01742 0.71705 0.0
H1479 H 0.6599 0.9872 0.7031 0.0
H1480 H 0.65951 0.03965 0.71659 0.0
H1481 H 0.6428 0.01896 0.66495 0.0
H1482 H 0.74888 0.07149 0.71643 0.0
H1483 H 0.71898 0.04933 0.75555 0.0
H1484 H 0.69388 0.0143 0.6234 0.0
H1485 H 0.67908 0.03853 0.63323 0.0
H1486 H 0.69162 0.01616 0.58867 0.0
H1487 H 0.67717 0.04004 0.59832 0.0
H1488 H 0.71508 0.0216 0.63597 0.0
H1489 H 0.7307 0.0354 0.69137 0.0
H1490 H 0.72749 0.01109 0.63399 0.0
H1491 H 0.74277 0.02457 0.68847 0.0
H1492 H 0.71749 0.07755 0.61004 0.0
H1493 H 0.727 0.0505 0.59002 0.0
H1494 H 0.67247 0.97851 0.64505 0.0
H1495 H 0.7036 0.98501 0.68033 0.0
Li1496 Li 0.95999 0.67027 0.69486 0.0
Li1497 Li 0.96661 0.65657 0.68056 0.0
Li1498 Li 0.97755 0.67885 0.6737 0.0
Li1499 Li 0.95667 0.6649 0.66097 0.0
C1500 C 0.97764 0.67202 0.71738 0.0
N1501 N 0.97985 0.6746 0.75646 0.0
C1502 C 0.97456 0.66171 0.72887 0.0
C1503 C 0.98192 0.68365 0.72573 0.0
C1504 C 0.97574 0.66321 0.74862 0.0
C1505 C 0.98294 0.68476 0.74553 0.0
C1506 C 0.93746 0.64643 0.6786 0.0
C1507 C 0.92144 0.63044 0.65922 0.0
N1508 N 0.91284 0.63241 0.66803 0.0
C1509 C 0.92846 0.64827 0.6875 0.0
C1510 C 0.93392 0.63741 0.6644 0.0
C1511 C 0.91606 0.64108 0.68195 0.0
C1512 C 0.95207 0.68373 0.7176 0.0
N1513 N 0.95289 0.67326 0.71677 0.0
C1514 C 0.94274 0.66652 0.74686 0.0
C1515 C 0.94833 0.66468 0.73094 0.0
C1516 C 0.94169 0.67724 0.74811 0.0
C1517 C 0.9465 0.68593 0.73321 0.0
H1518 H 0.95555 0.69029 0.70598 0.0
H1519 H 0.94895 0.65634 0.72976 0.0
C1520 C 0.98072 0.64518 0.6885 0.0
N1521 N 0.96901 0.64283 0.68494 0.0
C1522 C 0.98298 0.63544 0.6919 0.0
C1523 C 0.96104 0.62102 0.68807 0.0
C1524 C 0.95922 0.63105 0.6847 0.0
C1525 C 0.97305 0.62315 0.69179 0.0
H1526 H 0.98831 0.65467 0.68882 0.0
H1527 H 0.94999 0.62944 0.68201 0.0
C1528 C 0.96786 0.69319 0.66663 0.0
N1529 N 0.97854 0.71721 0.6531 0.0
C1530 C 0.96559 0.69543 0.64797 0.0
C1531 C 0.97547 0.70317 0.67846 0.0
C1532 C 0.97109 0.70764 0.64139 0.0
C1533 C 0.98082 0.71525 0.67133 0.0
C1534 C 0.97761 0.65878 0.6479 0.0
C1535 C 0.99048 0.66395 0.64888 0.0
C1536 C 0.97033 0.64703 0.63987 0.0
C1537 C 0.99585 0.65721 0.64191 0.0
C1538 C 0.97605 0.64058 0.63309 0.0
N1539 N 0.98858 0.64575 0.63425 0.0
C1540 C 0.00278 0.69649 0.68081 0.0
C1541 C 0.99528 0.69801 0.65052 0.0
C1542 C 0.01469 0.70605 0.67621 0.0
N1543 N 0.99341 0.69267 0.66798 0.0
C1544 C 0.00696 0.70774 0.64545 0.0
C1545 C 0.01696 0.71178 0.65824 0.0
H1546 H 0.0011 0.69188 0.69444 0.0
H1547 H 0.98772 0.6946 0.64043 0.0
C1548 C 0.93547 0.66269 0.64241 0.0
N1549 N 0.94594 0.66199 0.6399 0.0
C1550 C 0.92747 0.66057 0.62714 0.0
C1551 C 0.94147 0.65764 0.60681 0.0
C1552 C 0.94908 0.65958 0.62255 0.0
C1553 C 0.93049 0.65807 0.60906 0.0
H1554 H 0.93337 0.66495 0.65626 0.0
H1555 H 0.95756 0.65929 0.62089 0.0
O1556 O 0.97634 0.67071 0.69806 0.0
O1557 O 0.94966 0.65345 0.68372 0.0
O1558 O 0.96266 0.68129 0.67328 0.0
O1559 O 0.97215 0.6651 0.65507 0.0
H1560 H 0.97118 0.65263 0.72264 0.0
H1561 H 0.98431 0.69172 0.71702 0.0
H1562 H 0.97334 0.65531 0.7577 0.0
H1563 H 0.98617 0.69369 0.7522 0.0
H1564 H 0.91859 0.6235 0.64816 0.0
H1565 H 0.93102 0.65523 0.69847 0.0
H1566 H 0.94078 0.63595 0.65724 0.0
H1567 H 0.909 0.64244 0.68866 0.0
H1568 H 0.9393 0.65963 0.75808 0.0
H1569 H 0.94571 0.6942 0.73336 0.0
H1570 H 0.99235 0.63753 0.69503 0.0
H1571 H 0.95314 0.61169 0.68772 0.0
H1572 H 0.95973 0.68782 0.63861 0.0
H1573 H 0.97735 0.7016 0.69292 0.0
H1574 H 0.96947 0.70951 0.62695 0.0
H1575 H 0.9868 0.72305 0.68029 0.0
H1576 H 0.99626 0.67301 0.65512 0.0
H1577 H 0.96035 0.64288 0.63908 0.0
H1578 H 0.0058 0.66106 0.64265 0.0
H1579 H 0.97052 0.63144 0.62696 0.0
H1580 H 0.0221 0.70861 0.68643 0.0
H1581 H 0.00813 0.71195 0.63156 0.0
H1582 H 0.91917 0.66116 0.62934 0.0
H1583 H 0.94409 0.65574 0.59305 0.0
H1584 H 0.21576 0.3379 0.12946 0.0
N1585 N 0.19557 0.31848 0.11222 0.0
H1586 H 0.22491 0.33745 0.15972 0.0
H1587 H 0.18716 0.29971 0.13693 0.0
H1588 H 0.19654 0.29917 0.16752 0.0
H1589 H 0.20014 0.3023 0.09479 0.0
H1590 H 0.21809 0.30693 0.07492 0.0
H1591 H 0.21158 0.34118 0.09655 0.0
H1592 H 0.22975 0.34596 0.07725 0.0
H1593 H 0.19749 0.33918 0.13042 0.0
H1594 H 0.17608 0.31058 0.08929 0.0
H1595 H 0.18345 0.34706 0.12762 0.0
H1596 H 0.16224 0.31908 0.08538 0.0
H1597 H 0.13213 0.36859 0.12309 0.0
H1598 H 0.12001 0.36608 0.15161 0.0
H1599 H 0.11867 0.3313 0.16334 0.0
H1600 H 0.12985 0.33341 0.13419 0.0
H1601 H 0.11435 0.33322 0.10161 0.0
H1602 H 0.09964 0.33305 0.07853 0.0
H1603 H 0.12869 0.3674 0.05459 0.0
H1604 H 0.14315 0.36776 0.0785 0.0
H1605 H 0.16229 0.36556 0.11055 0.0
H1606 H 0.17694 0.35796 0.10906 0.0
H1607 H 0.14634 0.32067 0.10032 0.0
N1608 N 0.1378 0.35254 0.10794 0.0
H1609 H 0.13196 0.32861 0.1005 0.0
C1610 C 0.20059 0.31883 0.13094 0.0
C1611 C 0.2113 0.32944 0.1377 0.0
C1612 C 0.21654 0.3292 0.1551 0.0
C1613 C 0.21139 0.3183 0.16601 0.0
C1614 C 0.20068 0.3077 0.15936 0.0
C1615 C 0.1953 0.30801 0.14201 0.0
C1616 C 0.20457 0.32135 0.0973 0.0
C1617 C 0.20638 0.3118 0.09049 0.0
C1618 C 0.2167 0.31449 0.07932 0.0
C1619 C 0.22549 0.32685 0.07484 0.0
C1620 C 0.22316 0.33635 0.0804 0.0
C1621 C 0.21277 0.33362 0.09151 0.0
C1622 C 0.1878 0.32402 0.11025 0.0
C1623 C 0.18987 0.33458 0.1206 0.0
C1624 C 0.18181 0.33926 0.11878 0.0
C1625 C 0.17164 0.33376 0.10624 0.0
C1626 C 0.1698 0.32344 0.09547 0.0
C1627 C 0.17776 0.31861 0.09756 0.0
C1628 C 0.13203 0.35131 0.12633 0.0
C1629 C 0.1293 0.36048 0.13195 0.0
C1630 C 0.1224 0.35904 0.14839 0.0
C1631 C 0.11825 0.34844 0.15995 0.0
C1632 C 0.1214 0.33945 0.15467 0.0
C1633 C 0.12804 0.34076 0.13794 0.0
C1634 C 0.12979 0.35067 0.09195 0.0
C1635 C 0.1176 0.34057 0.09114 0.0
C1636 C 0.1092 0.34047 0.07782 0.0
C1637 C 0.11289 0.35036 0.06491 0.0
C1638 C 0.12543 0.35982 0.06467 0.0
C1639 C 0.13375 0.35999 0.07815 0.0
C1640 C 0.14608 0.34767 0.10595 0.0
C1641 C 0.15882 0.35578 0.10811 0.0
C1642 C 0.16714 0.35136 0.10743 0.0
C1643 C 0.16286 0.33862 0.10495 0.0
C1644 C 0.15006 0.33054 0.10211 0.0
C1645 C 0.14176 0.33504 0.10237 0.0
H1646 H 0.70954 0.80328 0.12911 0.0
N1647 N 0.69262 0.8073 0.11283 0.0
H1648 H 0.70753 0.79228 0.15909 0.0
H1649 H 0.67416 0.80067 0.1395 0.0
H1650 H 0.67203 0.78955 0.16902 0.0
H1651 H 0.66803 0.78939 0.11068 0.0
H1652 H 0.65944 0.77105 0.09069 0.0
H1653 H 0.70345 0.80379 0.08286 0.0
H1654 H 0.69472 0.78577 0.06175 0.0
H1655 H 0.71202 0.8295 0.10665 0.0
H1656 H 0.67231 0.81049 0.11336 0.0
H1657 H 0.71245 0.84924 0.10379 0.0
H1658 H 0.67267 0.83021 0.11228 0.0
H1659 H 0.70954 0.91054 0.12591 0.0
H1660 H 0.70637 0.9181 0.15639 0.0
H1661 H 0.67302 0.88284 0.16556 0.0
H1662 H 0.67627 0.87539 0.13505 0.0
H1663 H 0.67042 0.88288 0.10681 0.0
H1664 H 0.66203 0.89185 0.08485 0.0
H1665 H 0.69735 0.91081 0.05566 0.0
H1666 H 0.70588 0.90224 0.0786 0.0
H1667 H 0.71188 0.88375 0.12148 0.0
H1668 H 0.71103 0.8638 0.12192 0.0
H1669 H 0.67509 0.84691 0.09451 0.0
N1670 N 0.69478 0.88883 0.10941 0.0
H1671 H 0.67564 0.86669 0.0955 0.0
C1672 C 0.69202 0.80275 0.1319 0.0
C1673 C 0.70149 0.80057 0.13803 0.0
C1674 C 0.70033 0.7943 0.1551 0.0
C1675 C 0.68956 0.78997 0.16621 0.0
C1676 C 0.68036 0.79269 0.16057 0.0
C1677 C 0.68161 0.7991 0.14365 0.0
C1678 C 0.68652 0.79786 0.09854 0.0
C1679 C 0.6739 0.78879 0.09991 0.0
C1680 C 0.66894 0.77828 0.08827 0.0
C1681 C 0.67644 0.77674 0.07481 0.0
C1682 C 0.68875 0.78643 0.07234 0.0
C1683 C 0.69374 0.79682 0.08421 0.0
C1684 C 0.69223 0.8186 0.11065 0.0
C1685 C 0.70341 0.82965 0.10774 0.0
C1686 C 0.70362 0.84093 0.10631 0.0
C1687 C 0.69263 0.84146 0.10818 0.0
C1688 C 0.68134 0.83025 0.11065 0.0
C1689 C 0.68112 0.81892 0.11162 0.0
C1690 C 0.69317 0.89247 0.12821 0.0
C1691 C 0.70165 0.90442 0.13466 0.0
C1692 C 0.69984 0.90868 0.15207 0.0
C1693 C 0.68942 0.90107 0.16334 0.0
C1694 C 0.68106 0.88896 0.15708 0.0
C1695 C 0.68293 0.88467 0.1397 0.0
C1696 C 0.68891 0.89209 0.09456 0.0
C1697 C 0.67636 0.88888 0.09562 0.0
C1698 C 0.67151 0.89394 0.08283 0.0
C1699 C 0.67904 0.90222 0.06855 0.0
C1700 C 0.69135 0.90471 0.06673 0.0
C1701 C 0.69622 0.89973 0.07968 0.0
C1702 C 0.69396 0.87685 0.10833 0.0
C1703 C 0.70383 0.87573 0.11555 0.0
C1704 C 0.70336 0.86429 0.11561 0.0
C1705 C 0.69304 0.85366 0.10805 0.0
C1706 C 0.68313 0.85481 0.10069 0.0
C1707 C 0.6835 0.86623 0.10103 0.0
H1708 H 0.13209 0.77712 0.13345 0.0
N1709 N 0.13054 0.7944 0.11357 0.0
H1710 H 0.12152 0.76748 0.16334 0.0
H1711 H 0.11702 0.80163 0.13558 0.0
H1712 H 0.10628 0.79196 0.16507 0.0
H1713 H 0.10866 0.79347 0.10452 0.0
H1714 H 0.09302 0.77885 0.08258 0.0
H1715 H 0.13343 0.78028 0.08822 0.0
H1716 H 0.11769 0.76539 0.06641 0.0
H1717 H 0.15498 0.80495 0.11388 0.0
H1718 H 0.12546 0.8133 0.10819 0.0
H1719 H 0.17027 0.82706 0.11234 0.0
H1720 H 0.14054 0.83539 0.10786 0.0
H1721 H 0.2121 0.88497 0.12982 0.0
H1722 H 0.22296 0.89587 0.15826 0.0
H1723 H 0.1978 0.91004 0.16489 0.0
H1724 H 0.18653 0.8986 0.13628 0.0
H1725 H 0.19698 0.9044 0.09035 0.0
H1726 H 0.21356 0.91439 0.06687 0.0
H1727 H 0.22404 0.88658 0.0774 0.0
H1728 H 0.20679 0.87615 0.09937 0.0
H1729 H 0.19319 0.8665 0.13254 0.0
H1730 H 0.17796 0.84472 0.13151 0.0
H1731 H 0.15642 0.85216 0.0908 0.0
N1732 N 0.19238 0.88542 0.11286 0.0
H1733 H 0.17157 0.87433 0.09273 0.0
C1734 C 0.1254 0.79008 0.13225 0.0
C1735 C 0.12664 0.78052 0.14051 0.0
C1736 C 0.12051 0.77497 0.15746 0.0
C1737 C 0.11296 0.77888 0.1665 0.0
C1738 C 0.1121 0.7888 0.15858 0.0
C1739 C 0.11824 0.79433 0.1416 0.0
C1740 C 0.12225 0.78793 0.09805 0.0
C1741 C 0.11091 0.7877 0.09584 0.0
C1742 C 0.1019 0.77924 0.08337 0.0
C1743 C 0.10404 0.77084 0.07294 0.0
C1744 C 0.11576 0.77178 0.0741 0.0
C1745 C 0.12476 0.78025 0.08658 0.0
C1746 C 0.13912 0.80746 0.11141 0.0
C1747 C 0.15182 0.81159 0.11235 0.0
C1748 C 0.16052 0.82423 0.11167 0.0
C1749 C 0.15667 0.83308 0.11029 0.0
C1750 C 0.14388 0.82888 0.10881 0.0
C1751 C 0.13519 0.81619 0.10921 0.0
C1752 C 0.19837 0.89089 0.13077 0.0
C1753 C 0.20873 0.89026 0.13734 0.0
C1754 C 0.21507 0.89663 0.15364 0.0
C1755 C 0.21139 0.90401 0.16372 0.0
C1756 C 0.20084 0.9044 0.15752 0.0
C1757 C 0.19441 0.89789 0.14118 0.0
C1758 C 0.20081 0.88973 0.09691 0.0
C1759 C 0.20268 0.90032 0.08713 0.0
C1760 C 0.2123 0.9061 0.07391 0.0
C1761 C 0.22048 0.90157 0.07055 0.0
C1762 C 0.218 0.89041 0.07944 0.0
C1763 C 0.20817 0.88446 0.09228 0.0
C1764 C 0.18351 0.87226 0.11284 0.0
C1765 C 0.18522 0.86364 0.12348 0.0
C1766 C 0.17648 0.85101 0.12271 0.0
C1767 C 0.16593 0.84659 0.111 0.0
C1768 C 0.16431 0.8552 0.10022 0.0
C1769 C 0.17298 0.86788 0.10121 0.0
H1770 H 0.36156 0.21679 0.86687 0.0
N1771 N 0.3486 0.2092 0.89896 0.0
H1772 H 0.35675 0.22501 0.83845 0.0
H1773 H 0.32691 0.2093 0.89209 0.0
H1774 H 0.32187 0.21703 0.86375 0.0
H1775 H 0.33165 0.20914 0.92388 0.0
H1776 H 0.33539 0.22592 0.94561 0.0
H1777 H 0.3705 0.22769 0.90963 0.0
H1778 H 0.37459 0.24408 0.93249 0.0
H1779 H 0.36201 0.19848 0.90532 0.0
H1780 H 0.32422 0.19074 0.90231 0.0
H1781 H 0.35465 0.17649 0.91092 0.0
H1782 H 0.31675 0.16875 0.90681 0.0
H1783 H 0.33392 0.11285 0.8996 0.0
H1784 H 0.33306 0.10215 0.87007 0.0
H1785 H 0.2989 0.10092 0.85483 0.0
H1786 H 0.29944 0.11123 0.88506 0.0
H1787 H 0.30216 0.09622 0.9292 0.0
H1788 H 0.30869 0.08541 0.95097 0.0
H1789 H 0.34503 0.11823 0.9548 0.0
H1790 H 0.33865 0.12863 0.93203 0.0
H1791 H 0.33786 0.13561 0.89589 0.0
H1792 H 0.34545 0.15774 0.89391 0.0
H1793 H 0.31445 0.153 0.92805 0.0
N1794 N 0.31624 0.11807 0.91286 0.0
H1795 H 0.30654 0.13061 0.92905 0.0
C1796 C 0.34465 0.21239 0.88161 0.0
C1797 C 0.3528 0.21665 0.86608 0.0
C1798 C 0.35001 0.2213 0.84986 0.0
C1799 C 0.33895 0.22176 0.84887 0.0
C1800 C 0.33056 0.217 0.86416 0.0
C1801 C 0.33339 0.21242 0.88038 0.0
C1802 C 0.35079 0.21739 0.91475 0.0
C1803 C 0.34104 0.21672 0.92572 0.0
C1804 C 0.34324 0.2263 0.93837 0.0
C1805 C 0.35528 0.23657 0.94056 0.0
C1806 C 0.36514 0.23657 0.93074 0.0
C1807 C 0.36287 0.22714 0.91785 0.0
C1808 C 0.34374 0.19626 0.9031 0.0
C1809 C 0.35212 0.192 0.90581 0.0
C1810 C 0.34788 0.17942 0.90885 0.0
C1811 C 0.33508 0.17076 0.90906 0.0
C1812 C 0.32667 0.17512 0.90689 0.0
C1813 C 0.33094 0.18775 0.90409 0.0
C1814 C 0.31654 0.11262 0.8948 0.0
C1815 C 0.32616 0.11023 0.89009 0.0
C1816 C 0.32571 0.10415 0.87319 0.0
C1817 C 0.31587 0.10067 0.8604 0.0
C1818 C 0.30655 0.10352 0.86459 0.0
C1819 C 0.30685 0.10937 0.88176 0.0
C1820 C 0.31981 0.1132 0.92884 0.0
C1821 C 0.31145 0.10115 0.93508 0.0
C1822 C 0.31523 0.09501 0.94765 0.0
C1823 C 0.32748 0.10086 0.95462 0.0
C1824 C 0.33562 0.11328 0.94942 0.0
C1825 C 0.3319 0.11935 0.93651 0.0
C1826 C 0.32145 0.13137 0.91239 0.0
C1827 C 0.33263 0.13927 0.90286 0.0
C1828 C 0.33706 0.15202 0.90195 0.0
C1829 C 0.33057 0.15722 0.91078 0.0
C1830 C 0.31959 0.14932 0.92076 0.0
C1831 C 0.31508 0.13654 0.92149 0.0
H1832 H 0.78388 0.13981 0.87187 0.0
N1833 N 0.79019 0.13332 0.90413 0.0
H1834 H 0.77702 0.12795 0.84221 0.0
H1835 H 0.78963 0.11143 0.89672 0.0
H1836 H 0.7832 0.09972 0.86708 0.0
H1837 H 0.79323 0.11857 0.93007 0.0
H1838 H 0.77796 0.10516 0.95372 0.0
H1839 H 0.76929 0.13267 0.91341 0.0
H1840 H 0.75387 0.11918 0.93672 0.0
H1841 H 0.80026 0.15726 0.91174 0.0
H1842 H 0.80929 0.12827 0.90511 0.0
H1843 H 0.82227 0.1725 0.91572 0.0
H1844 H 0.8313 0.14343 0.90839 0.0
H1845 H 0.88172 0.21648 0.89842 0.0
H1846 H 0.89213 0.22703 0.86931 0.0
H1847 H 0.90247 0.19919 0.85887 0.0
H1848 H 0.8921 0.18867 0.88854 0.0
H1849 H 0.90168 0.20383 0.93286 0.0
H1850 H 0.91089 0.2211 0.95536 0.0
H1851 H 0.87767 0.22389 0.95279 0.0
H1852 H 0.86875 0.207 0.92994 0.0
H1853 H 0.8619 0.1976 0.89602 0.0
H1854 H 0.84009 0.18207 0.89536 0.0
H1855 H 0.8475 0.15771 0.92976 0.0
N1856 N 0.88066 0.19562 0.91361 0.0
H1857 H 0.86965 0.17332 0.92982 0.0
C1858 C 0.78725 0.12655 0.88647 0.0
C1859 C 0.78385 0.13112 0.87078 0.0
C1860 C 0.78001 0.12436 0.85384 0.0
C1861 C 0.77953 0.11285 0.85227 0.0
C1862 C 0.78329 0.10845 0.86788 0.0
C1863 C 0.78708 0.11521 0.88484 0.0
C1864 C 0.78235 0.12661 0.91996 0.0
C1865 C 0.78478 0.11893 0.93169 0.0
C1866 C 0.776 0.11121 0.94514 0.0
C1867 C 0.76466 0.11104 0.94707 0.0
C1868 C 0.76256 0.11918 0.93586 0.0
C1869 C 0.77132 0.12686 0.92246 0.0
C1870 C 0.80312 0.14169 0.90794 0.0
C1871 C 0.80701 0.1542 0.91124 0.0
C1872 C 0.81958 0.16288 0.91334 0.0
C1873 C 0.82858 0.15922 0.9121 0.0
C1874 C 0.82463 0.14656 0.90952 0.0
C1875 C 0.81201 0.13786 0.90751 0.0
C1876 C 0.88612 0.2017 0.89575 0.0
C1877 C 0.88614 0.21254 0.88991 0.0
C1878 C 0.89205 0.21856 0.87311 0.0
C1879 C 0.89812 0.21395 0.86172 0.0
C1880 C 0.89798 0.20304 0.86743 0.0
C1881 C 0.89201 0.19698 0.88427 0.0
C1882 C 0.88458 0.20408 0.92957 0.0
C1883 C 0.89629 0.20799 0.93753 0.0
C1884 C 0.90151 0.21784 0.95044 0.0
C1885 C 0.89506 0.22398 0.95572 0.0
C1886 C 0.88297 0.2195 0.94875 0.0
C1887 C 0.87779 0.20971 0.93575 0.0
C1888 C 0.86756 0.1866 0.91284 0.0
C1889 C 0.85898 0.18893 0.9033 0.0
C1890 C 0.84639 0.18005 0.90313 0.0
C1891 C 0.84201 0.16865 0.91259 0.0
C1892 C 0.85057 0.16634 0.92217 0.0
C1893 C 0.86321 0.17524 0.92228 0.0
H1894 H 0.7975 0.70796 0.8982 0.0
N1895 N 0.804 0.69278 0.91437 0.0
H1896 H 0.78702 0.70529 0.8676 0.0
H1897 H 0.79899 0.67458 0.88819 0.0
H1898 H 0.78852 0.67182 0.85756 0.0
H1899 H 0.78521 0.66853 0.91605 0.0
H1900 H 0.76746 0.66022 0.93722 0.0
H1901 H 0.80165 0.70356 0.94554 0.0
H1902 H 0.78421 0.69505 0.96783 0.0
H1903 H 0.82634 0.70978 0.90271 0.0
H1904 H 0.80668 0.67346 0.92831 0.0
H1905 H 0.84539 0.70886 0.90292 0.0
H1906 H 0.82586 0.67282 0.93 0.0
H1907 H 0.90621 0.70569 0.90168 0.0
H1908 H 0.9155 0.70426 0.87182 0.0
H1909 H 0.88001 0.6737 0.8543 0.0
H1910 H 0.87099 0.67489 0.88428 0.0
H1911 H 0.87776 0.66627 0.9126 0.0
H1912 H 0.88646 0.6567 0.93297 0.0
H1913 H 0.90324 0.68956 0.96831 0.0
H1914 H 0.89504 0.69931 0.94709 0.0
H1915 H 0.88045 0.7099 0.91975 0.0
H1916 H 0.86108 0.71027 0.92169 0.0
H1917 H 0.84052 0.67048 0.91318 0.0
N1918 N 0.8834 0.69053 0.91423 0.0
H1919 H 0.85997 0.67021 0.91298 0.0
C1920 C 0.79898 0.6915 0.89547 0.0
C1921 C 0.79571 0.70017 0.88923 0.0
C1922 C 0.78977 0.69864 0.87175 0.0
C1923 C 0.78691 0.68832 0.86021 0.0
C1924 C 0.79048 0.67979 0.86625 0.0
C1925 C 0.79651 0.68138 0.88369 0.0
C1926 C 0.79467 0.68681 0.92895 0.0
C1927 C 0.78514 0.67437 0.92736 0.0
C1928 C 0.775 0.66956 0.93972 0.0
C1929 C 0.77423 0.677 0.95414 0.0
C1930 C 0.78428 0.68913 0.95659 0.0
C1931 C 0.79434 0.69399 0.94402 0.0
C1932 C 0.81508 0.69183 0.91563 0.0
C1933 C 0.8262 0.70169 0.90869 0.0
C1934 C 0.83713 0.70117 0.90902 0.0
C1935 C 0.83731 0.69082 0.91673 0.0
C1936 C 0.82612 0.68089 0.92374 0.0
C1937 C 0.81509 0.68131 0.92299 0.0
C1938 C 0.88792 0.6905 0.89531 0.0
C1939 C 0.90041 0.69884 0.89121 0.0
C1940 C 0.90569 0.69801 0.87411 0.0
C1941 C 0.89853 0.6888 0.86067 0.0
C1942 C 0.88586 0.68077 0.86446 0.0
C1943 C 0.88062 0.68155 0.88162 0.0
C1944 C 0.886 0.68364 0.92815 0.0
C1945 C 0.88314 0.67134 0.92489 0.0
C1946 C 0.88808 0.66584 0.93669 0.0
C1947 C 0.8958 0.67245 0.95211 0.0
C1948 C 0.89766 0.68432 0.95626 0.0
C1949 C 0.89287 0.68987 0.9443 0.0
C1950 C 0.87167 0.69012 0.91583 0.0
C1951 C 0.87172 0.70128 0.91846 0.0
C1952 C 0.86061 0.70145 0.91935 0.0
C1953 C 0.84912 0.69043 0.91719 0.0
C1954 C 0.84911 0.67916 0.91502 0.0
C1955 C 0.86027 0.67899 0.91461 0.0
H1956 H 0.75843 0.62661 0.45387 0.0
N1957 N 0.77995 0.64164 0.43727 0.0
H1958 H 0.75048 0.62991 0.48376 0.0
H1959 H 0.79292 0.66069 0.46226 0.0
H1960 H 0.78522 0.66396 0.49254 0.0
H1961 H 0.78579 0.66575 0.43189 0.0
H1962 H 0.77467 0.67263 0.41122 0.0
H1963 H 0.76462 0.62874 0.40922 0.0
H1964 H 0.75354 0.6356 0.38814 0.0
H1965 H 0.78562 0.62511 0.44993 0.0
H1966 H 0.80173 0.66083 0.42245 0.0
H1967 H 0.80575 0.62635 0.45002 0.0
H1968 H 0.82173 0.6618 0.42125 0.0
H1969 H 0.86575 0.62805 0.4568 0.0
H1970 H 0.8757 0.62962 0.48767 0.0
H1971 H 0.87844 0.66516 0.49724 0.0
H1972 H 0.86834 0.66345 0.46681 0.0
H1973 H 0.88033 0.66956 0.43878 0.0
H1974 H 0.89855 0.67822 0.41856 0.0
H1975 H 0.88312 0.64341 0.38805 0.0
H1976 H 0.86529 0.63456 0.40953 0.0
H1977 H 0.83994 0.62554 0.43399 0.0
H1978 H 0.82009 0.62488 0.43117 0.0
H1979 H 0.83881 0.6647 0.439 0.0
N1980 N 0.86204 0.64509 0.44014 0.0
H1981 H 0.85868 0.66527 0.44015 0.0
C1982 C 0.77622 0.64333 0.45593 0.0
C1983 C 0.76435 0.63468 0.46242 0.0
C1984 C 0.75987 0.63658 0.47954 0.0
C1985 C 0.76722 0.64721 0.4906 0.0
C1986 C 0.77927 0.65576 0.48427 0.0
C1987 C 0.78373 0.65386 0.46705 0.0
C1988 C 0.77596 0.64667 0.42215 0.0
C1989 C 0.77905 0.6592 0.42199 0.0
C1990 C 0.77269 0.66313 0.41009 0.0
C1991 C 0.76309 0.65461 0.39824 0.0
C1992 C 0.76075 0.64233 0.39734 0.0
C1993 C 0.76713 0.63842 0.40921 0.0
C1994 C 0.79204 0.64274 0.43608 0.0
C1995 C 0.79349 0.63314 0.44363 0.0
C1996 C 0.80502 0.63383 0.44348 0.0
C1997 C 0.81544 0.64412 0.43541 0.0
C1998 C 0.81399 0.65379 0.42777 0.0
C1999 C 0.80245 0.65318 0.42828 0.0
C2000 C 0.86636 0.64562 0.45935 0.0
C2001 C 0.86827 0.63605 0.46577 0.0
C2002 C 0.87393 0.63695 0.48336 0.0
C2003 C 0.87792 0.64756 0.49471 0.0
C2004 C 0.87556 0.65694 0.48864 0.0
C2005 C 0.86975 0.65594 0.4712 0.0
C2006 C 0.87157 0.65126 0.42599 0.0
C2007 C 0.88079 0.6638 0.4277 0.0
C2008 C 0.89122 0.66881 0.41588 0.0
C2009 C 0.89252 0.66147 0.40181 0.0
C2010 C 0.88269 0.64925 0.39909 0.0
C2011 C 0.8724 0.64419 0.41118 0.0
C2012 C 0.85071 0.64536 0.4377 0.0
C2013 C 0.83971 0.63411 0.43492 0.0
C2014 C 0.82837 0.63377 0.43352 0.0
C2015 C 0.82772 0.64471 0.43528 0.0
C2016 C 0.83888 0.65607 0.43751 0.0
C2017 C 0.85028 0.65641 0.43848 0.0
H2018 H 0.38004 0.13536 0.45292 0.0
N2019 N 0.36523 0.14343 0.44038 0.0
H2020 H 0.37841 0.12462 0.48296 0.0
H2021 H 0.34998 0.14092 0.47057 0.0
H2022 H 0.34835 0.13031 0.50039 0.0
H2023 H 0.3408 0.1252 0.44274 0.0
H2024 H 0.33083 0.10643 0.42356 0.0
H2025 H 0.37364 0.1395 0.40794 0.0
H2026 H 0.36352 0.12089 0.38803 0.0
H2027 H 0.38447 0.16603 0.43612 0.0
H2028 H 0.3446 0.14608 0.44057 0.0
H2029 H 0.38445 0.18561 0.43427 0.0
H2030 H 0.34447 0.16557 0.44002 0.0
H2031 H 0.37894 0.24689 0.45256 0.0
H2032 H 0.37745 0.25538 0.48315 0.0
H2033 H 0.3492 0.21873 0.50104 0.0
H2034 H 0.35046 0.21045 0.47013 0.0
H2035 H 0.33979 0.21429 0.44306 0.0
H2036 H 0.32746 0.22128 0.42557 0.0
H2037 H 0.3596 0.24554 0.39176 0.0
H2038 H 0.37188 0.23841 0.40934 0.0
H2039 H 0.38184 0.21893 0.45363 0.0
H2040 H 0.38173 0.19932 0.45333 0.0
H2041 H 0.3473 0.18249 0.42174 0.0
N2042 N 0.36489 0.22385 0.43991 0.0
H2043 H 0.34706 0.20176 0.42299 0.0
C2044 C 0.36524 0.13904 0.45941 0.0
C2045 C 0.37329 0.13452 0.46343 0.0
C2046 C 0.37228 0.12831 0.48049 0.0
C2047 C 0.3632 0.12657 0.49396 0.0
C2048 C 0.35551 0.13162 0.49036 0.0
C2049 C 0.35646 0.13772 0.47321 0.0
C2050 C 0.35809 0.13369 0.42691 0.0
C2051 C 0.34574 0.12449 0.43058 0.0
C2052 C 0.34 0.11374 0.41949 0.0
C2053 C 0.34645 0.11203 0.40443 0.0
C2054 C 0.35839 0.12177 0.3998 0.0
C2055 C 0.36415 0.13246 0.41101 0.0
C2056 C 0.36462 0.15464 0.43868 0.0
C2057 C 0.37572 0.16591 0.43681 0.0
C2058 C 0.37567 0.17709 0.43595 0.0
C2059 C 0.36446 0.17725 0.43725 0.0
C2060 C 0.35328 0.16586 0.43877 0.0
C2061 C 0.35334 0.15466 0.43929 0.0
C2062 C 0.36488 0.22809 0.45905 0.0
C2063 C 0.37258 0.24069 0.46324 0.0
C2064 C 0.37173 0.2455 0.48077 0.0
C2065 C 0.36316 0.23775 0.49459 0.0
C2066 C 0.35576 0.225 0.49063 0.0
C2067 C 0.35655 0.22022 0.47302 0.0
C2068 C 0.35683 0.22592 0.42755 0.0
C2069 C 0.34413 0.22094 0.43166 0.0
C2070 C 0.3371 0.22497 0.42169 0.0
C2071 C 0.3426 0.23407 0.40745 0.0
C2072 C 0.35507 0.23844 0.40255 0.0
C2073 C 0.36211 0.23441 0.41257 0.0
C2074 C 0.36445 0.212 0.43869 0.0
C2075 C 0.37423 0.21098 0.44673 0.0
C2076 C 0.3742 0.19976 0.44636 0.0
C2077 C 0.36449 0.18925 0.43749 0.0
C2078 C 0.3548 0.19029 0.42906 0.0
C2079 C 0.35472 0.20148 0.42972 0.0
H2080 H 0.78687 0.11529 0.44863 0.0
N2081 N 0.78891 0.13686 0.43483 0.0
H2082 H 0.77593 0.10421 0.47719 0.0
H2083 H 0.77821 0.14408 0.46082 0.0
H2084 H 0.76693 0.13281 0.48952 0.0
H2085 H 0.76733 0.12923 0.41761 0.0
H2086 H 0.7567 0.11166 0.39597 0.0
H2087 H 0.79994 0.12546 0.41549 0.0
H2088 H 0.78959 0.10831 0.39346 0.0
H2089 H 0.80721 0.13248 0.44797 0.0
H2090 H 0.80054 0.16051 0.42399 0.0
H2091 H 0.82921 0.1473 0.44978 0.0
H2092 H 0.82274 0.17572 0.42647 0.0
H2093 H 0.89791 0.1977 0.46866 0.0
H2094 H 0.90592 0.2089 0.49865 0.0
H2095 H 0.87918 0.22137 0.4958 0.0
H2096 H 0.87135 0.21024 0.46569 0.0
H2097 H 0.87908 0.21739 0.43413 0.0
H2098 H 0.89402 0.23369 0.41319 0.0
H2099 H 0.91285 0.21279 0.40503 0.0
H2100 H 0.89767 0.19643 0.42569 0.0
H2101 H 0.86543 0.17905 0.47032 0.0
H2102 H 0.84329 0.16475 0.46753 0.0
H2103 H 0.84288 0.18153 0.41389 0.0
N2104 N 0.88032 0.19718 0.44662 0.0
H2105 H 0.86487 0.19613 0.41699 0.0
C2106 C 0.78337 0.13058 0.45252 0.0
C2107 C 0.78271 0.11931 0.45753 0.0
C2108 C 0.77633 0.1129 0.47382 0.0
C2109 C 0.77043 0.11755 0.48551 0.0
C2110 C 0.77143 0.12901 0.48086 0.0
C2111 C 0.77783 0.13544 0.46449 0.0
C2112 C 0.78437 0.12869 0.4185 0.0
C2113 C 0.77235 0.12492 0.41195 0.0
C2114 C 0.7663 0.11487 0.39953 0.0
C2115 C 0.77222 0.10841 0.39323 0.0
C2116 C 0.78466 0.11288 0.39842 0.0
C2117 C 0.79066 0.12285 0.411 0.0
C2118 C 0.80213 0.14537 0.4358 0.0
C2119 C 0.81043 0.14185 0.44318 0.0
C2120 C 0.82309 0.15042 0.44434 0.0
C2121 C 0.82779 0.16278 0.43845 0.0
C2122 C 0.81949 0.16626 0.43095 0.0
C2123 C 0.8068 0.15761 0.42961 0.0
C2124 C 0.88409 0.20314 0.46498 0.0
C2125 C 0.89373 0.20276 0.47465 0.0
C2126 C 0.89823 0.20912 0.4918 0.0
C2127 C 0.89318 0.21603 0.49962 0.0
C2128 C 0.88337 0.21626 0.49004 0.0
C2129 C 0.87886 0.20987 0.47287 0.0
C2130 C 0.88729 0.20567 0.43148 0.0
C2131 C 0.88626 0.2162 0.4275 0.0
C2132 C 0.89486 0.22555 0.4156 0.0
C2133 C 0.90475 0.22464 0.40761 0.0
C2134 C 0.9053 0.21377 0.41075 0.0
C2135 C 0.89665 0.2044 0.42257 0.0
C2136 C 0.86701 0.1891 0.44435 0.0
C2137 C 0.86057 0.17984 0.45809 0.0
C2138 C 0.84789 0.17152 0.45634 0.0
C2139 C 0.84126 0.17196 0.44046 0.0
C2140 C 0.84764 0.18108 0.4265 0.0
C2141 C 0.86036 0.18951 0.42834 0.0
H2142 H 0.03655 0.56929 0.22244 0.0
N2143 N 0.01914 0.55043 0.24221 0.0
H2144 H 0.03389 0.57876 0.19355 0.0
H2145 H 0.99758 0.54194 0.22155 0.0
H2146 H 0.99485 0.55135 0.19303 0.0
H2147 H 0.99975 0.55401 0.25147 0.0
H2148 H 0.99989 0.56781 0.27601 0.0
H2149 H 0.03565 0.56088 0.26999 0.0
H2150 H 0.03561 0.57425 0.29548 0.0
H2151 H 0.03167 0.53872 0.23638 0.0
H2152 H 0.9955 0.53246 0.25189 0.0
H2153 H 0.02385 0.5164 0.23717 0.0
H2154 H 0.98734 0.51012 0.25154 0.0
H2155 H 0.00482 0.45806 0.22384 0.0
H2156 H 0.00491 0.44685 0.19564 0.0
H2157 H 0.96627 0.435 0.18593 0.0
H2158 H 0.9663 0.44651 0.21434 0.0
H2159 H 0.96895 0.43786 0.25773 0.0
H2160 H 0.97414 0.42573 0.27938 0.0
H2161 H 0.01274 0.45438 0.27723 0.0
H2162 H 0.0074 0.46657 0.25609 0.0
H2163 H 0.00346 0.47674 0.21704 0.0
H2164 H 0.01144 0.49873 0.21916 0.0
H2165 H 0.98683 0.49295 0.26637 0.0
N2166 N 0.98473 0.4584 0.23928 0.0
H2167 H 0.97825 0.47056 0.26349 0.0
C2168 C 0.01736 0.55488 0.22417 0.0
C2169 C 0.02747 0.56524 0.21588 0.0
C2170 C 0.02591 0.57068 0.19949 0.0
C2171 C 0.01414 0.56583 0.19105 0.0
C2172 C 0.00406 0.55522 0.19904 0.0
C2173 C 0.00563 0.54982 0.21546 0.0
C2174 C 0.01786 0.55662 0.25865 0.0
C2175 C 0.00755 0.55825 0.26112 0.0
C2176 C 0.0076 0.56611 0.27536 0.0
C2177 C 0.01786 0.57234 0.28762 0.0
C2178 C 0.0277 0.56988 0.28601 0.0
C2179 C 0.0277 0.56215 0.27159 0.0
C2180 C 0.01419 0.53725 0.24383 0.0
C2181 C 0.02202 0.53248 0.23988 0.0
C2182 C 0.01748 0.51971 0.24017 0.0
C2183 C 0.00489 0.51137 0.24414 0.0
C2184 C 0.9971 0.51622 0.24858 0.0
C2185 C 0.00173 0.52903 0.2486 0.0
C2186 C 0.98549 0.45313 0.2213 0.0
C2187 C 0.99637 0.45316 0.21565 0.0
C2188 C 0.99639 0.44667 0.19951 0.0
C2189 C 0.98555 0.43988 0.18868 0.0
C2190 C 0.9748 0.44019 0.19392 0.0
C2191 C 0.97479 0.44675 0.21012 0.0
C2192 C 0.98775 0.45301 0.25514 0.0
C2193 C 0.97846 0.44167 0.26245 0.0
C2194 C 0.98147 0.43472 0.27465 0.0
C2195 C 0.99389 0.43898 0.27971 0.0
C2196 C 0.00308 0.45084 0.27367 0.0
C2197 C 1.00004 0.45782 0.2615 0.0
C2198 C 0.99007 0.47175 0.24014 0.0
C2199 C 0.99964 0.47999 0.2279 0.0
C2200 C 0.00437 0.49276 0.22923 0.0
C2201 C 0.99987 0.49772 0.24301 0.0
C2202 C 0.99042 0.48951 0.25538 0.0
C2203 C 0.98556 0.4767 0.25385 0.0
H2204 H 0.57234 0.53299 0.23361 0.0
N2205 N 0.55027 0.52826 0.24618 0.0
H2206 H 0.58235 0.54282 0.20352 0.0
H2207 H 0.53938 0.53353 0.21635 0.0
H2208 H 0.54939 0.54379 0.18689 0.0
H2209 H 0.5444 0.54673 0.24373 0.0
H2210 H 0.55289 0.56515 0.26352 0.0
H2211 H 0.56165 0.53149 0.27939 0.0
H2212 H 0.56943 0.54952 0.30034 0.0
H2213 H 0.54748 0.5062 0.25359 0.0
H2214 H 0.52678 0.52478 0.24267 0.0
H2215 H 0.52822 0.48633 0.25526 0.0
H2216 H 0.50747 0.50487 0.24272 0.0
H2217 H 0.46515 0.42429 0.22942 0.0
H2218 H 0.45442 0.41634 0.1991 0.0
H2219 H 0.45591 0.45132 0.1889 0.0
H2220 H 0.46635 0.45903 0.21952 0.0
H2221 H 0.45264 0.45098 0.24845 0.0
H2222 H 0.43477 0.4405 0.26943 0.0
H2223 H 0.45193 0.42192 0.29738 0.0
H2224 H 0.46959 0.43211 0.2756 0.0
H2225 H 0.49428 0.45156 0.23522 0.0
H2226 H 0.51314 0.47174 0.23564 0.0
H2227 H 0.49262 0.48797 0.2601 0.0
N2228 N 0.47165 0.44597 0.24553 0.0
H2229 H 0.47366 0.46788 0.25834 0.0
C2230 C 0.55516 0.53253 0.22734 0.0
C2231 C 0.56723 0.53511 0.22323 0.0
C2232 C 0.57297 0.54085 0.20612 0.0
C2233 C 0.56676 0.54426 0.1928 0.0
C2234 C 0.55444 0.54119 0.19664 0.0
C2235 C 0.54869 0.53535 0.21366 0.0
C2236 C 0.55272 0.53786 0.2598 0.0
C2237 C 0.54977 0.54719 0.25611 0.0
C2238 C 0.55456 0.55774 0.26766 0.0
C2239 C 0.56214 0.55904 0.28338 0.0
C2240 C 0.56402 0.54909 0.28801 0.0
C2241 C 0.55945 0.53868 0.27621 0.0
C2242 C 0.53859 0.51688 0.24762 0.0
C2243 C 0.53873 0.50592 0.25135 0.0
C2244 C 0.52769 0.49456 0.25209 0.0
C2245 C 0.5162 0.49386 0.24873 0.0
C2246 C 0.51608 0.50498 0.24547 0.0
C2247 C 0.52716 0.5164 0.24513 0.0
C2248 C 0.46657 0.4422 0.22667 0.0
C2249 C 0.46329 0.43026 0.22047 0.0
C2250 C 0.45722 0.42578 0.20311 0.0
C2251 C 0.45429 0.43318 0.19155 0.0
C2252 C 0.45788 0.44531 0.19757 0.0
C2253 C 0.46395 0.44978 0.21499 0.0
C2254 C 0.4624 0.44217 0.2603 0.0
C2255 C 0.45268 0.44484 0.2593 0.0
C2256 C 0.44246 0.43887 0.27146 0.0
C2257 C 0.44179 0.43019 0.28494 0.0
C2258 C 0.452 0.42833 0.28688 0.0
C2259 C 0.46216 0.43423 0.27461 0.0
C2260 C 0.48258 0.45809 0.24693 0.0
C2261 C 0.49389 0.45949 0.24069 0.0
C2262 C 0.5047 0.47105 0.24112 0.0
C2263 C 0.50453 0.48156 0.24816 0.0
C2264 C 0.49314 0.48016 0.25441 0.0
C2265 C 0.48224 0.46858 0.25362 0.0
H2266 H 0.54323 0.98447 0.23335 0.0
N2267 N 0.54006 0.00352 0.24624 0.0
H2268 H 0.55353 0.98416 0.20421 0.0
H2269 H 0.54854 0.02044 0.21859 0.0
H2270 H 0.55845 0.01998 0.1887 0.0
H2271 H 0.56171 0.01862 0.26241 0.0
H2272 H 0.57322 0.01307 0.28457 0.0
H2273 H 0.53036 0.9815 0.26646 0.0
H2274 H 0.54157 0.97605 0.28906 0.0
H2275 H 0.52186 0.98038 0.23473 0.0
H2276 H 0.52832 0.01541 0.25694 0.0
H2277 H 0.49972 0.97293 0.23311 0.0
H2278 H 0.50608 0.00816 0.25473 0.0
H2279 H 0.43196 0.95751 0.20929 0.0
H2280 H 0.42496 0.96249 0.17977 0.0
H2281 H 0.45227 0.00123 0.18732 0.0
H2282 H 0.45914 0.99612 0.21692 0.0
H2283 H 0.45073 0.99437 0.24823 0.0
H2284 H 0.43588 0.99547 0.26956 0.0
H2285 H 0.41513 0.95538 0.27245 0.0
H2286 H 0.43044 0.95448 0.25182 0.0
H2287 H 0.46372 0.96907 0.21086 0.0
H2288 H 0.48572 0.97626 0.21455 0.0
H2289 H 0.48596 0.99387 0.26765 0.0
N2290 N 0.44899 0.97317 0.23347 0.0
H2291 H 0.46416 0.98702 0.26379 0.0
C2292 C 0.54523 0.0026 0.22829 0.0
C2293 C 0.54648 0.99227 0.22372 0.0
C2294 C 0.5523 0.99205 0.20687 0.0
C2295 C 0.55688 0.00207 0.19405 0.0
C2296 C 0.55525 0.01221 0.19838 0.0
C2297 C 0.54951 0.01245 0.21536 0.0
C2298 C 0.54522 0.00056 0.26253 0.0
C2299 C 0.55716 0.00941 0.26858 0.0
C2300 C 0.56371 0.0062 0.28131 0.0
C2301 C 0.55839 0.99403 0.28843 0.0
C2302 C 0.54605 0.98543 0.28353 0.0
C2303 C 0.53955 0.98861 0.27065 0.0
C2304 C 0.5268 0.99852 0.24601 0.0
C2305 C 0.51853 0.9865 0.23928 0.0
C2306 C 0.50583 0.98226 0.23823 0.0
C2307 C 0.5011 0.98997 0.24363 0.0
C2308 C 0.50936 0.00191 0.25065 0.0
C2309 C 0.52208 0.0061 0.25184 0.0
C2310 C 0.446 0.9764 0.21527 0.0
C2311 C 0.43652 0.96704 0.2044 0.0
C2312 C 0.43258 0.96991 0.18753 0.0
C2313 C 0.43805 0.98227 0.18121 0.0
C2314 C 0.44777 0.99165 0.19193 0.0
C2315 C 0.45173 0.98874 0.2088 0.0
C2316 C 0.44174 0.97429 0.24856 0.0
C2317 C 0.44315 0.98584 0.25383 0.0
C2318 C 0.43455 0.98643 0.26591 0.0
C2319 C 0.42416 0.9755 0.27259 0.0
C2320 C 0.42307 0.96401 0.26787 0.0
C2321 C 0.4318 0.96345 0.25604 0.0
C2322 C 0.46212 0.97775 0.23654 0.0
C2323 C 0.46852 0.9746 0.22321 0.0
C2324 C 0.4811 0.97861 0.22546 0.0
C2325 C 0.48765 0.98569 0.24138 0.0
C2326 C 0.48126 0.98865 0.25501 0.0
C2327 C 0.46865 0.9847 0.2527 0.0
H2328 H 0.43024 0.96856 0.78715 0.0
N2329 N 0.45227 0.98595 0.77459 0.0
H2330 H 0.41985 0.9688 0.81667 0.0
H2331 H 0.46293 0.00242 0.80417 0.0
H2332 H 0.45263 0.00276 0.83344 0.0
H2333 H 0.45748 0.01011 0.77634 0.0
H2334 H 0.44838 0.01933 0.7563 0.0
H2335 H 0.44106 0.97727 0.74141 0.0
H2336 H 0.43269 0.98682 0.72015 0.0
H2337 H 0.45561 0.96695 0.76799 0.0
H2338 H 0.47552 0.00638 0.77775 0.0
H2339 H 0.47515 0.96689 0.76643 0.0
H2340 H 0.49512 0.00636 0.77781 0.0
H2341 H 0.53917 0.96894 0.78707 0.0
H2342 H 0.54896 0.96949 0.81749 0.0
H2343 H 0.54468 0.00038 0.83535 0.0
H2344 H 0.53516 0.99991 0.80466 0.0
H2345 H 0.54937 0.0094 0.77718 0.0
H2346 H 0.56876 0.02013 0.75934 0.0
H2347 H 0.55744 0.98719 0.72555 0.0
H2348 H 0.53798 0.97648 0.74354 0.0
H2349 H 0.5098 0.96733 0.78575 0.0
H2350 H 0.49064 0.96806 0.78577 0.0
H2351 H 0.51003 0.00457 0.76024 0.0
N2352 N 0.53217 0.98465 0.77463 0.0
H2353 H 0.52925 0.00412 0.76149 0.0
C2354 C 0.44731 0.98544 0.79334 0.0
C2355 C 0.43525 0.97589 0.79743 0.0
C2356 C 0.42935 0.97605 0.81426 0.0
C2357 C 0.43541 0.98588 0.82724 0.0
C2358 C 0.4477 0.99516 0.82355 0.0
C2359 C 0.45363 0.99492 0.80682 0.0
C2360 C 0.44961 0.9928 0.76066 0.0
C2361 C 0.45217 0.00499 0.76404 0.0
C2362 C 0.44703 0.01033 0.75235 0.0
C2363 C 0.43948 0.00372 0.73677 0.0
C2364 C 0.43805 0.99203 0.73239 0.0
C2365 C 0.44296 0.9866 0.74434 0.0
C2366 C 0.46409 0.98656 0.77335 0.0
C2367 C 0.46425 0.97557 0.77002 0.0
C2368 C 0.47544 0.97557 0.76934 0.0
C2369 C 0.4868 0.98658 0.77237 0.0
C2370 C 0.48662 0.9977 0.77531 0.0
C2371 C 0.47537 0.99771 0.77558 0.0
C2372 C 0.53643 0.98433 0.79361 0.0
C2373 C 0.54018 0.97568 0.79771 0.0
C2374 C 0.54573 0.976 0.81512 0.0
C2375 C 0.54765 0.98501 0.82886 0.0
C2376 C 0.5435 0.99343 0.82498 0.0
C2377 C 0.53797 0.99312 0.80751 0.0
C2378 C 0.54224 0.99205 0.76174 0.0
C2379 C 0.55091 0.00456 0.76565 0.0
C2380 C 0.56202 0.01068 0.75549 0.0
C2381 C 0.56469 0.00445 0.74122 0.0
C2382 C 0.55562 0.99226 0.73638 0.0
C2383 C 0.54451 0.98613 0.74662 0.0
C2384 C 0.52104 0.98557 0.77366 0.0
C2385 C 0.50991 0.97551 0.78021 0.0
C2386 C 0.49892 0.97592 0.78002 0.0
C2387 C 0.49867 0.98634 0.77282 0.0
C2388 C 0.50984 0.99645 0.76615 0.0
C2389 C 0.52092 0.99613 0.76671 0.0
H2390 H 0.98764 0.5437 0.79456 0.0
N2391 N 0.00669 0.54241 0.77709 0.0
H2392 H 0.98853 0.55364 0.8247 0.0
H2393 H 0.02582 0.55307 0.80114 0.0
H2394 H 0.02677 0.56318 0.83169 0.0
H2395 H 0.02099 0.5635 0.7588 0.0
H2396 H 0.01432 0.57482 0.73808 0.0
H2397 H 0.98331 0.53315 0.762 0.0
H2398 H 0.97661 0.54422 0.74089 0.0
H2399 H 0.98636 0.52389 0.79614 0.0
H2400 H 0.01539 0.53065 0.75614 0.0
H2401 H 0.979 0.50194 0.79507 0.0
H2402 H 0.00748 0.5083 0.75401 0.0
H2403 H 0.95634 0.43056 0.79455 0.0
H2404 H 0.95761 0.42087 0.82421 0.0
H2405 H 0.99496 0.45112 0.83289 0.0
H2406 H 0.99369 0.46067 0.80347 0.0
H2407 H 0.99423 0.44713 0.7748 0.0
H2408 H 0.99597 0.43294 0.7531 0.0
H2409 H 0.96273 0.42687 0.724 0.0
H2410 H 0.96061 0.44048 0.74692 0.0
H2411 H 0.96103 0.46196 0.77886 0.0
H2412 H 0.96846 0.48416 0.77676 0.0
H2413 H 0.00606 0.49127 0.77067 0.0
N2414 N 0.97428 0.4507 0.77783 0.0
H2415 H 0.99836 0.469 0.77153 0.0
C2416 C 0.00669 0.54754 0.79557 0.0
C2417 C 0.99621 0.54778 0.80256 0.0
C2418 C 0.9967 0.55344 0.8199 0.0
C2419 C 0.0077 0.55913 0.83061 0.0
C2420 C 0.01818 0.55889 0.82369 0.0
C2421 C 0.01764 0.55308 0.80636 0.0
C2422 C 0.00272 0.54753 0.76202 0.0
C2423 C 0.01134 0.55913 0.75453 0.0
C2424 C 0.0075 0.56556 0.74265 0.0
C2425 C 0.99489 0.56048 0.73795 0.0
C2426 C 0.98635 0.54848 0.74449 0.0
C2427 C 0.99021 0.54208 0.75644 0.0
C2428 C 0.00169 0.52912 0.77642 0.0
C2429 C 0.99119 0.52074 0.78702 0.0
C2430 C 0.98682 0.50801 0.78618 0.0
C2431 C 0.99259 0.50323 0.77441 0.0
C2432 C 0.00291 0.5116 0.7635 0.0
C2433 C 0.00741 0.52438 0.76459 0.0
C2434 C 0.97481 0.44637 0.79672 0.0
C2435 C 0.96469 0.43521 0.80309 0.0
C2436 C 0.96547 0.42965 0.81991 0.0
C2437 C 0.97641 0.43522 0.83081 0.0
C2438 C 0.98636 0.44668 0.8249 0.0
C2439 C 0.98562 0.45217 0.80798 0.0
C2440 C 0.97707 0.44461 0.76276 0.0
C2441 C 0.98739 0.44287 0.76364 0.0
C2442 C 0.98843 0.43478 0.751 0.0
C2443 C 0.97934 0.42848 0.73691 0.0
C2444 C 0.96968 0.4312 0.73502 0.0
C2445 C 0.96852 0.4391 0.74793 0.0
C2446 C 0.97911 0.46384 0.77562 0.0
C2447 C 0.97086 0.46835 0.77689 0.0
C2448 C 0.97516 0.48106 0.77587 0.0
C2449 C 0.98792 0.48962 0.77387 0.0
C2450 C 0.99617 0.48502 0.77206 0.0
C2451 C 0.9918 0.47225 0.77274 0.0
H2452 H 0.47086 0.44453 0.81347 0.0
N2453 N 0.47093 0.46088 0.78912 0.0
H2454 H 0.45853 0.43661 0.84269 0.0
H2455 H 0.45708 0.46988 0.80597 0.0
H2456 H 0.4446 0.46183 0.83475 0.0
H2457 H 0.44783 0.45665 0.77883 0.0
H2458 H 0.43415 0.44158 0.75582 0.0
H2459 H 0.47711 0.44949 0.76303 0.0
H2460 H 0.46384 0.43515 0.73839 0.0
H2461 H 0.49523 0.47144 0.79315 0.0
H2462 H 0.46641 0.47919 0.77707 0.0
H2463 H 0.51081 0.49322 0.78867 0.0
H2464 H 0.48177 0.50121 0.77386 0.0
H2465 H 0.5542 0.55141 0.79299 0.0
H2466 H 0.56555 0.5635 0.82047 0.0
H2467 H 0.54042 0.57783 0.82534 0.0
H2468 H 0.52881 0.56537 0.79762 0.0
H2469 H 0.54219 0.57089 0.75354 0.0
H2470 H 0.55993 0.5793 0.73194 0.0
H2471 H 0.56339 0.54683 0.74114 0.0
H2472 H 0.5458 0.53861 0.76299 0.0
H2473 H 0.53382 0.53377 0.80115 0.0
H2474 H 0.51817 0.51225 0.80348 0.0
H2475 H 0.49845 0.51656 0.75612 0.0
N2476 N 0.53424 0.55113 0.77583 0.0
H2477 H 0.51399 0.53864 0.7546 0.0
C2478 C 0.46486 0.4577 0.80742 0.0
C2479 C 0.46535 0.44852 0.81829 0.0
C2480 C 0.45833 0.44403 0.83494 0.0
C2481 C 0.45056 0.44857 0.84084 0.0
C2482 C 0.45044 0.45812 0.83038 0.0
C2483 C 0.45762 0.46275 0.81392 0.0
C2484 C 0.46341 0.45387 0.77315 0.0
C2485 C 0.45143 0.45201 0.77015 0.0
C2486 C 0.44361 0.44343 0.75662 0.0
C2487 C 0.44771 0.43683 0.74533 0.0
C2488 C 0.46012 0.43964 0.74723 0.0
C2489 C 0.46781 0.44796 0.76114 0.0
C2490 C 0.47971 0.47376 0.78581 0.0
C2491 C 0.49229 0.47792 0.78883 0.0
C2492 C 0.50115 0.49041 0.78642 0.0
C2493 C 0.49757 0.4991 0.78123 0.0
C2494 C 0.48491 0.49482 0.77777 0.0
C2495 C 0.47607 0.48224 0.77987 0.0
C2496 C 0.54059 0.55748 0.79311 0.0
C2497 C 0.55104 0.55709 0.79988 0.0
C2498 C 0.55761 0.5641 0.81562 0.0
C2499 C 0.55401 0.57178 0.82494 0.0
C2500 C 0.54339 0.57196 0.8185 0.0
C2501 C 0.53677 0.56488 0.80269 0.0
C2502 C 0.54269 0.55421 0.75998 0.0
C2503 C 0.54655 0.56543 0.75042 0.0
C2504 C 0.55669 0.5702 0.73805 0.0
C2505 C 0.56318 0.5638 0.735 0.0
C2506 C 0.55871 0.55208 0.74345 0.0
C2507 C 0.54856 0.54731 0.75582 0.0
C2508 C 0.52511 0.53808 0.77771 0.0
C2509 C 0.52618 0.53031 0.79127 0.0
C2510 C 0.51718 0.51779 0.79248 0.0
C2511 C 0.50702 0.51255 0.77991 0.0
C2512 C 0.50602 0.52027 0.76625 0.0
C2513 C 0.51494 0.53288 0.76525 0.0
H2514 H 0.67012 0.87969 0.5621 0.0
N2515 N 0.64816 0.86428 0.57998 0.0
H2516 H 0.67258 0.89035 0.53182 0.0
H2517 H 0.63037 0.86092 0.55585 0.0
H2518 H 0.63272 0.87155 0.52544 0.0
H2519 H 0.63462 0.87269 0.59608 0.0
H2520 H 0.64177 0.89061 0.61699 0.0
H2521 H 0.67098 0.87651 0.59756 0.0
H2522 H 0.67809 0.89403 0.61914 0.0
H2523 H 0.66888 0.86195 0.57606 0.0
H2524 H 0.62968 0.84183 0.58795 0.0
H2525 H 0.66969 0.8429 0.57869 0.0
H2526 H 0.63011 0.82248 0.58912 0.0
H2527 H 0.66902 0.7883 0.56268 0.0
H2528 H 0.67165 0.77975 0.53301 0.0
H2529 H 0.63214 0.76165 0.52306 0.0
H2530 H 0.62958 0.77036 0.55291 0.0
H2531 H 0.63465 0.7612 0.59456 0.0
H2532 H 0.64286 0.75148 0.61559 0.0
H2533 H 0.67788 0.78594 0.61813 0.0
H2534 H 0.66959 0.79544 0.59647 0.0
H2535 H 0.66377 0.80512 0.56047 0.0
H2536 H 0.66454 0.82489 0.56241 0.0
H2537 H 0.63575 0.80995 0.60534 0.0
N2538 N 0.64696 0.78341 0.57871 0.0
H2539 H 0.63438 0.78978 0.60214 0.0
C2540 C 0.65001 0.86946 0.56115 0.0
C2541 C 0.66192 0.87763 0.554 0.0
C2542 C 0.66332 0.88373 0.53667 0.0
C2543 C 0.65284 0.88185 0.52632 0.0
C2544 C 0.64097 0.87331 0.53321 0.0
C2545 C 0.63959 0.86717 0.55045 0.0
C2546 C 0.65218 0.8732 0.59523 0.0
C2547 C 0.64404 0.87716 0.60145 0.0
C2548 C 0.64817 0.88739 0.61349 0.0
C2549 C 0.66058 0.89388 0.6197 0.0
C2550 C 0.66854 0.88943 0.61435 0.0
C2551 C 0.66442 0.87925 0.60212 0.0
C2552 C 0.64921 0.85334 0.58221 0.0
C2553 C 0.66045 0.85346 0.57946 0.0
C2554 C 0.66085 0.84244 0.58065 0.0
C2555 C 0.64997 0.83103 0.58411 0.0
C2556 C 0.63876 0.83104 0.5869 0.0
C2557 C 0.63844 0.84208 0.58609 0.0
C2558 C 0.64904 0.7799 0.56007 0.0
C2559 C 0.66093 0.78262 0.55406 0.0
C2560 C 0.66242 0.77767 0.53711 0.0
C2561 C 0.65209 0.76991 0.5258 0.0
C2562 C 0.64029 0.76766 0.5314 0.0
C2563 C 0.6388 0.7726 0.54842 0.0
C2564 C 0.65146 0.77897 0.59396 0.0
C2565 C 0.64399 0.76671 0.60006 0.0
C2566 C 0.64872 0.76121 0.61216 0.0
C2567 C 0.66109 0.7679 0.61854 0.0
C2568 C 0.66838 0.78046 0.61327 0.0
C2569 C 0.66363 0.78595 0.60103 0.0
C2570 C 0.64875 0.79575 0.58089 0.0
C2571 C 0.65756 0.80598 0.57027 0.0
C2572 C 0.65811 0.81745 0.57158 0.0
C2573 C 0.65011 0.8191 0.58388 0.0
C2574 C 0.64182 0.80902 0.59527 0.0
C2575 C 0.64109 0.79749 0.59364 0.0
H2576 H 0.23342 0.85665 0.5568 0.0
N2577 N 0.21933 0.8614 0.57977 0.0
H2578 H 0.24167 0.86592 0.52551 0.0
H2579 H 0.21318 0.87637 0.55942 0.0
H2580 H 0.22116 0.88541 0.52834 0.0
H2581 H 0.21006 0.87587 0.59297 0.0
H2582 H 0.22187 0.89525 0.61076 0.0
H2583 H 0.24053 0.8689 0.59787 0.0
H2584 H 0.25223 0.88796 0.61631 0.0
H2585 H 0.21452 0.84069 0.59745 0.0
H2586 H 0.19659 0.85857 0.57018 0.0
H2587 H 0.19439 0.82192 0.6018 0.0
H2588 H 0.17661 0.83974 0.57338 0.0
H2589 H 0.12782 0.75977 0.57511 0.0
H2590 H 0.11716 0.75079 0.54498 0.0
H2591 H 0.12641 0.78726 0.52523 0.0
H2592 H 0.13687 0.79617 0.55546 0.0
H2593 H 0.12059 0.79109 0.58221 0.0
H2594 H 0.10088 0.78288 0.59896 0.0
H2595 H 0.1111 0.76149 0.63541 0.0
H2596 H 0.13094 0.76985 0.61858 0.0
H2597 H 0.15986 0.78616 0.58325 0.0
H2598 H 0.17967 0.80553 0.58312 0.0
H2599 H 0.16047 0.82587 0.5935 0.0
N2600 N 0.13733 0.78308 0.58663 0.0
H2601 H 0.14074 0.80657 0.59263 0.0
C2602 C 0.22256 0.86564 0.5604 0.0
C2603 C 0.23053 0.86273 0.55044 0.0
C2604 C 0.23528 0.86808 0.53268 0.0
C2605 C 0.23204 0.87638 0.52449 0.0
C2606 C 0.22367 0.87891 0.53415 0.0
C2607 C 0.21906 0.87368 0.55198 0.0
C2608 C 0.22455 0.87107 0.59385 0.0
C2609 C 0.21916 0.87834 0.59831 0.0
C2610 C 0.2259 0.88939 0.60859 0.0
C2611 C 0.2381 0.89327 0.6146 0.0
C2612 C 0.24298 0.88539 0.61149 0.0
C2613 C 0.23628 0.87444 0.60115 0.0
C2614 C 0.20715 0.85096 0.58325 0.0
C2615 C 0.20623 0.84055 0.5924 0.0
C2616 C 0.19472 0.8298 0.5947 0.0
C2617 C 0.18383 0.82919 0.58766 0.0
C2618 C 0.18474 0.83985 0.57911 0.0
C2619 C 0.19626 0.85066 0.57706 0.0
C2620 C 0.13319 0.7786 0.56755 0.0
C2621 C 0.12779 0.76585 0.5641 0.0
C2622 C 0.12164 0.76074 0.54699 0.0
C2623 C 0.12091 0.76834 0.53288 0.0
C2624 C 0.12692 0.78122 0.53585 0.0
C2625 C 0.13292 0.78632 0.55311 0.0
C2626 C 0.12727 0.78103 0.59913 0.0
C2627 C 0.11882 0.78498 0.59421 0.0
C2628 C 0.10749 0.7802 0.60371 0.0
C2629 C 0.10438 0.7714 0.6183 0.0
C2630 C 0.11327 0.7683 0.62429 0.0
C2631 C 0.1246 0.77307 0.61472 0.0
C2632 C 0.14879 0.79479 0.58805 0.0
C2633 C 0.15996 0.79481 0.58562 0.0
C2634 C 0.17129 0.80592 0.5857 0.0
C2635 C 0.17174 0.81733 0.58841 0.0
C2636 C 0.16051 0.8173 0.59113 0.0
C2637 C 0.14915 0.80617 0.59082 0.0
H2638 H 0.20336 0.30595 0.55801 0.0
N2639 N 0.19955 0.32294 0.57443 0.0
H2640 H 0.21495 0.30802 0.52894 0.0
H2641 H 0.20839 0.34246 0.54903 0.0
H2642 H 0.21924 0.34431 0.5195 0.0
H2643 H 0.2234 0.34211 0.57854 0.0
H2644 H 0.23857 0.34268 0.60085 0.0
H2645 H 0.19468 0.30913 0.60556 0.0
H2646 H 0.20958 0.31015 0.62914 0.0
H2647 H 0.17511 0.30951 0.57177 0.0
H2648 H 0.20494 0.34671 0.58201 0.0
H2649 H 0.16011 0.31667 0.57346 0.0
H2650 H 0.19014 0.3542 0.58255 0.0
H2651 H 0.11819 0.33354 0.55901 0.0
H2652 H 0.10834 0.3338 0.52938 0.0
H2653 H 0.13605 0.37232 0.52113 0.0
H2654 H 0.14587 0.37205 0.55135 0.0
H2655 H 0.13002 0.36572 0.59491 0.0
H2656 H 0.11227 0.35734 0.61654 0.0
H2657 H 0.10905 0.32119 0.61257 0.0
H2658 H 0.12648 0.32953 0.59055 0.0
H2659 H 0.13826 0.33433 0.55427 0.0
H2660 H 0.1534 0.32767 0.55501 0.0
H2661 H 0.1738 0.35475 0.59877 0.0
N2662 N 0.13851 0.35315 0.57566 0.0
H2663 H 0.15881 0.362 0.59708 0.0
C2664 C 0.20486 0.32393 0.55577 0.0
C2665 C 0.20666 0.31426 0.54948 0.0
C2666 C 0.21326 0.31547 0.53278 0.0
C2667 C 0.21811 0.32637 0.52179 0.0
C2668 C 0.21587 0.33587 0.52773 0.0
C2669 C 0.20945 0.33474 0.54462 0.0
C2670 C 0.20796 0.3253 0.59005 0.0
C2671 C 0.22028 0.33518 0.58966 0.0
C2672 C 0.22897 0.33555 0.60265 0.0
C2673 C 0.22544 0.32624 0.61661 0.0
C2674 C 0.21278 0.3172 0.61818 0.0
C2675 C 0.20419 0.31667 0.60488 0.0
C2676 C 0.19108 0.32756 0.57651 0.0
C2677 C 0.17839 0.31925 0.5743 0.0
C2678 C 0.16987 0.32341 0.57509 0.0
C2679 C 0.1739 0.33608 0.57778 0.0
C2680 C 0.18666 0.34438 0.58057 0.0
C2681 C 0.19517 0.34014 0.58011 0.0
C2682 C 0.13284 0.35284 0.55751 0.0
C2683 C 0.12223 0.34207 0.55092 0.0
C2684 C 0.11663 0.34219 0.53381 0.0
C2685 C 0.12144 0.35306 0.52284 0.0
C2686 C 0.13208 0.36381 0.52933 0.0
C2687 C 0.13774 0.36367 0.5465 0.0
C2688 C 0.12961 0.34834 0.59104 0.0
C2689 C 0.12565 0.35606 0.59909 0.0
C2690 C 0.11552 0.35124 0.6115 0.0
C2691 C 0.10915 0.33855 0.61615 0.0
C2692 C 0.11362 0.33096 0.60902 0.0
C2693 C 0.12371 0.33577 0.59654 0.0
C2694 C 0.14743 0.3489 0.57549 0.0
C2695 C 0.146 0.33904 0.56389 0.0
C2696 C 0.15467 0.33506 0.56453 0.0
C2697 C 0.16483 0.34058 0.57706 0.0
C2698 C 0.16621 0.35038 0.58874 0.0
C2699 C 0.15762 0.3545 0.58788 0.0
H2700 H 0.99958 0.3926 0.11512 0.0
H2701 H 0.97464 0.43678 0.15349 0.0
H2702 H 0.97748 0.40321 0.08114 0.0
H2703 H 0.9961 0.42521 0.18712 0.0
H2704 H 0.97504 0.42417 0.12701 0.0
H2705 H 0.99786 0.40412 0.14189 0.0
C2706 C 0.99427 0.39726 0.11332 0.0
C2707 C 0.98868 0.39694 0.09582 0.0
C2708 C 0.97965 0.4244 0.1402 0.0
C2709 C 0.98681 0.41032 0.12642 0.0
C2710 C 0.97938 0.43155 0.15534 0.0
C2711 C 0.98544 0.43215 0.1725 0.0
C2712 C 0.98599 0.41776 0.14227 0.0
C2713 C 0.99151 0.42524 0.17404 0.0
C2714 C 0.99336 0.40391 0.1286 0.0
C2715 C 0.9821 0.40335 0.09428 0.0
N2716 N 0.99164 0.41837 0.15914 0.0
N2717 N 0.98136 0.40979 0.10936 0.0
H2718 H 0.62062 0.59622 0.11213 0.0
H2719 H 0.55726 0.54287 0.15688 0.0
H2720 H 0.58449 0.5856 0.08893 0.0
H2721 H 0.59117 0.56261 0.18932 0.0
H2722 H 0.56773 0.55633 0.12971 0.0
H2723 H 0.61051 0.58197 0.13868 0.0
C2724 C 0.61058 0.59097 0.11261 0.0
C2725 C 0.60343 0.59218 0.09817 0.0
C2726 C 0.57287 0.55767 0.14278 0.0
C2727 C 0.59183 0.57561 0.12836 0.0
C2728 C 0.56689 0.55001 0.15834 0.0
C2729 C 0.57328 0.55162 0.17556 0.0
C2730 C 0.58538 0.56695 0.14431 0.0
C2731 C 0.58587 0.56088 0.17634 0.0
C2732 C 0.60483 0.58277 0.12773 0.0
C2733 C 0.59044 0.58488 0.09947 0.0
N2734 N 0.59149 0.56819 0.16097 0.0
N2735 N 0.58507 0.57691 0.11424 0.0
H2736 H 0.4053 0.01183 0.10329 0.0
H2737 H 0.43115 0.96976 0.14726 0.0
H2738 H 0.40094 0.97861 0.0767 0.0
H2739 H 0.43383 0.00168 0.1759 0.0
H2740 H 0.42153 0.9739 0.12009 0.0
H2741 H 0.41708 0.00922 0.12897 0.0
C2742 C 0.40681 0.00399 0.10284 0.0
C2743 C 0.40209 0.99542 0.0878 0.0
C2744 C 0.42427 0.98005 0.13227 0.0
C2745 C 0.41565 0.99243 0.11708 0.0
C2746 C 0.42973 0.97766 0.14782 0.0
C2747 C 0.43322 0.98533 0.16395 0.0
C2748 C 0.42223 0.99016 0.13283 0.0
C2749 C 0.43137 0.99557 0.16372 0.0
C2750 C 0.4136 0.00254 0.11746 0.0
C2751 C 0.40452 0.98555 0.08784 0.0
N2752 N 0.42592 0.99764 0.14846 0.0
N2753 N 0.41108 0.9843 0.10226 0.0
H2754 H 0.39215 0.97335 0.92994 0.0
H2755 H 0.43463 0.00631 0.83931 0.0
H2756 H 0.39625 0.00698 0.90519 0.0
H2757 H 0.42062 0.96773 0.85271 0.0
H2758 H 0.42266 0.00769 0.86586 0.0
H2759 H 0.40428 0.97195 0.90379 0.0
C2760 C 0.39547 0.98039 0.91895 0.0
C2761 C 0.39307 0.99028 0.91981 0.0
C2762 C 0.42222 0.99893 0.86301 0.0
C2763 C 0.40729 0.98886 0.89004 0.0
C2764 C 0.42912 0.99816 0.84798 0.0
C2765 C 0.42863 0.98689 0.84386 0.0
C2766 C 0.41486 0.98838 0.87414 0.0
C2767 C 0.4212 0.97657 0.85536 0.0
C2768 C 0.40248 0.97961 0.90408 0.0
C2769 C 0.39797 0.99928 0.90534 0.0
N2770 N 0.41463 0.97757 0.87003 0.0
N2771 N 0.40486 0.99837 0.8911 0.0
H2772 H 0.98386 0.38298 0.90263 0.0
H2773 H 0.98631 0.44491 0.8658 0.0
H2774 H 0.99192 0.4139 0.93946 0.0
H2775 H 0.96984 0.41079 0.83372 0.0
H2776 H 0.98959 0.43418 0.89246 0.0
H2777 H 0.97978 0.39348 0.87665 0.0
C2778 C 0.98471 0.39194 0.90532 0.0
C2779 C 0.98824 0.39753 0.92334 0.0
C2780 C 0.98519 0.42903 0.87962 0.0
C2781 C 0.98376 0.40971 0.89348 0.0
C2782 C 0.98335 0.43516 0.86441 0.0
C2783 C 0.97777 0.42872 0.84755 0.0
C2784 C 0.98155 0.41642 0.87789 0.0
C2785 C 0.97404 0.41607 0.84654 0.0
C2786 C 0.98242 0.39795 0.89044 0.0
C2787 C 0.98942 0.40929 0.92578 0.0
N2788 N 0.97607 0.41035 0.86144 0.0
N2789 N 0.98721 0.41499 0.91103 0.0
H2790 H 0.57983 0.60875 0.93406 0.0
H2791 H 0.57928 0.58502 0.82801 0.0
H2792 H 0.61169 0.61058 0.90653 0.0
H2793 H 0.54589 0.57655 0.85865 0.0
H2794 H 0.59156 0.59665 0.85545 0.0
H2795 H 0.56756 0.59921 0.90532 0.0
C2796 C 0.58426 0.60724 0.9219 0.0
C2797 C 0.59678 0.61039 0.9227 0.0
C2798 C 0.58155 0.59227 0.85619 0.0
C2799 C 0.58281 0.59946 0.88987 0.0
C2800 C 0.57452 0.58558 0.84055 0.0
C2801 C 0.56151 0.57963 0.84112 0.0
C2802 C 0.57558 0.59311 0.87259 0.0
C2803 C 0.55589 0.581 0.85756 0.0
C2804 C 0.57724 0.60174 0.90556 0.0
C2805 C 0.60203 0.60813 0.90662 0.0
N2806 N 0.56295 0.58754 0.87271 0.0
N2807 N 0.59502 0.6028 0.89089 0.0
H2808 H 0.02329 0.61566 0.91524 0.0
H2809 H 0.9906 0.55099 0.85931 0.0
H2810 H 0.98943 0.58332 0.93351 0.0
H2811 H 0.02585 0.5821 0.84264 0.0
H2812 H 0.99052 0.56256 0.88729 0.0
H2813 H 0.0248 0.60351 0.88904 0.0
C2814 C 0.01617 0.60601 0.91374 0.0
C2815 C 0.00621 0.60051 0.92659 0.0
C2816 C 0.99833 0.56686 0.87761 0.0
C2817 C 0.00792 0.58654 0.89673 0.0
C2818 C 0.99835 0.56025 0.8616 0.0
C2819 C 0.0082 0.56563 0.84857 0.0
C2820 C 0.00818 0.57898 0.88058 0.0
C2821 C 0.0181 0.57759 0.85239 0.0
C2822 C 0.01708 0.59907 0.89885 0.0
C2823 C 0.99735 0.58793 0.9241 0.0
N2824 N 0.01779 0.58392 0.86796 0.0
N2825 N 0.99839 0.5814 0.90944 0.0
H2826 H 0.41564 0.41719 0.94952 0.0
H2827 H 0.42567 0.43986 0.84141 0.0
H2828 H 0.38726 0.39958 0.90668 0.0
H2829 H 0.45577 0.4437 0.87667 0.0
H2830 H 0.41112 0.42867 0.86732 0.0
H2831 H 0.43016 0.43058 0.92484 0.0
C2832 C 0.41245 0.41628 0.93494 0.0
C2833 C 0.40028 0.40731 0.93003 0.0
C2834 C 0.42092 0.43204 0.86941 0.0
C2835 C 0.41672 0.42253 0.90193 0.0
C2836 C 0.42922 0.43848 0.85472 0.0
C2837 C 0.44191 0.44268 0.85696 0.0
C2838 C 0.42537 0.42995 0.88654 0.0
C2839 C 0.44603 0.44054 0.87439 0.0
C2840 C 0.42073 0.42384 0.9209 0.0
C2841 C 0.3966 0.40637 0.91096 0.0
N2842 N 0.43777 0.43434 0.88857 0.0
N2843 N 0.40478 0.41392 0.89758 0.0
H2844 H 0.58267 0.96984 0.92345 0.0
H2845 H 0.56511 0.00613 0.84687 0.0
H2846 H 0.59906 0.00968 0.92245 0.0
H2847 H 0.54615 0.96619 0.85127 0.0
H2848 H 0.57739 0.0076 0.87485 0.0
H2849 H 0.56912 0.96829 0.89717 0.0
C2850 C 0.58338 0.97826 0.9178 0.0
C2851 C 0.59206 0.98991 0.92518 0.0
C2852 C 0.5705 0.99851 0.86976 0.0
C2853 C 0.57663 0.98821 0.89491 0.0
C2854 C 0.56341 0.99766 0.85385 0.0
C2855 C 0.55457 0.98601 0.84665 0.0
C2856 C 0.56882 0.98764 0.87854 0.0
C2857 C 0.55297 0.97537 0.85613 0.0
C2858 C 0.57566 0.97737 0.90273 0.0
C2859 C 0.59267 0.00051 0.91704 0.0
N2860 N 0.56005 0.97643 0.87153 0.0
N2861 N 0.58508 0.9994 0.90235 0.0
H2862 H 0.58861 0.98009 0.10304 0.0
H2863 H 0.57725 0.02175 0.17748 0.0
H2864 H 0.60619 0.0199 0.0981 0.0
H2865 H 0.55221 0.98238 0.17087 0.0
H2866 H 0.5889 0.02131 0.14983 0.0
H2867 H 0.57638 0.98074 0.12983 0.0
C2868 C 0.58994 0.98898 0.10768 0.0
C2869 C 0.59843 0.99996 0.09838 0.0
C2870 C 0.58082 0.01279 0.1544 0.0
C2871 C 0.58446 0.00078 0.12893 0.0
C2872 C 0.57409 0.01303 0.17013 0.0
C2873 C 0.5637 0.00207 0.17663 0.0
C2874 C 0.57724 0.00148 0.14519 0.0
C2875 C 0.56027 0.99102 0.16666 0.0
C2876 C 0.5829 0.98933 0.12286 0.0
C2877 C 0.59968 0.01121 0.10481 0.0
N2878 N 0.56705 0.991 0.15154 0.0
N2879 N 0.59281 0.01134 0.11976 0.0
H2880 H 0.99069 0.58308 0.08464 0.0
H2881 H 0.02384 0.59075 0.18543 0.0
H2882 H 0.012 0.61815 0.11359 0.0
H2883 H 1.0 0.55526 0.1591 0.0
H2884 H 0.02014 0.60097 0.15863 0.0
H2885 H 0.99416 0.5727 0.1115 0.0
C2886 C 0.996 0.58859 0.09671 0.0
C2887 C 0.00108 0.60153 0.09681 0.0
C2888 C 0.01572 0.59095 0.15869 0.0
C2889 C 0.00524 0.5897 0.1275 0.0
C2890 C 0.01791 0.58511 0.17392 0.0
C2891 C 0.01225 0.57213 0.17449 0.0
C2892 C 0.00782 0.58377 0.14384 0.0
C2893 C 0.00447 0.56528 0.15933 0.0
C2894 C 0.99805 0.58266 0.11199 0.0
C2895 C 0.00806 0.60819 0.11273 0.0
N2896 N 0.0025 0.57119 0.14462 0.0
N2897 N 0.00995 0.60221 0.12739 0.0
H2898 H 0.41847 0.38787 0.09246 0.0
H2899 H 0.43551 0.43644 0.17762 0.0
H2900 H 0.40033 0.40929 0.10145 0.0
H2901 H 0.45622 0.41796 0.16509 0.0
H2902 H 0.42273 0.42681 0.14953 0.0
H2903 H 0.43233 0.39871 0.11912 0.0
C2904 C 0.41737 0.39482 0.10009 0.0
C2905 C 0.4082 0.39765 0.09474 0.0
C2906 C 0.43011 0.42491 0.15286 0.0
C2907 C 0.42411 0.41017 0.1252 0.0
C2908 C 0.43749 0.43048 0.16884 0.0
C2909 C 0.44697 0.428 0.1738 0.0
C2910 C 0.43217 0.41673 0.14174 0.0
C2911 C 0.44891 0.42001 0.16202 0.0
C2912 C 0.42535 0.40107 0.11523 0.0
C2913 C 0.40734 0.40689 0.10496 0.0
N2914 N 0.44155 0.41462 0.14661 0.0
N2915 N 0.41515 0.41278 0.11973 0.0
H2916 H 0.64798 0.7386 0.41391 0.0
H2917 H 0.66615 0.75878 0.52255 0.0
H2918 H 0.66779 0.72584 0.44916 0.0
H2919 H 0.64122 0.76658 0.49059 0.0
H2920 H 0.66809 0.74797 0.49496 0.0
H2921 H 0.64639 0.74992 0.44113 0.0
C2922 C 0.65193 0.7381 0.42739 0.0
C2923 C 0.658 0.7312 0.42922 0.0
C2924 C 0.66221 0.75205 0.49394 0.0
C2925 C 0.65638 0.74434 0.46039 0.0
C2926 C 0.66117 0.75832 0.50965 0.0
C2927 C 0.65355 0.76364 0.50885 0.0
C2928 C 0.65561 0.75112 0.47723 0.0
C2929 C 0.64713 0.76254 0.49186 0.0
C2930 C 0.65107 0.74464 0.4429 0.0
C2931 C 0.66316 0.73114 0.44697 0.0
N2932 N 0.64832 0.75642 0.47671 0.0
N2933 N 0.66223 0.73761 0.46184 0.0
H2934 H 0.24871 0.91445 0.41573 0.0
H2935 H 0.25665 0.88788 0.51526 0.0
H2936 H 0.28351 0.92955 0.44583 0.0
H2937 H 0.22117 0.88051 0.49353 0.0
H2938 H 0.26672 0.9007 0.48726 0.0
H2939 H 0.23857 0.89961 0.44172 0.0
C2940 C 0.25422 0.91457 0.42776 0.0
C2941 C 0.26695 0.92327 0.4287 0.0
C2942 C 0.25673 0.89621 0.48856 0.0
C2943 C 0.25544 0.90634 0.45839 0.0
C2944 C 0.25096 0.88881 0.50444 0.0
C2945 C 0.23806 0.88315 0.50672 0.0
C2946 C 0.24953 0.89789 0.47477 0.0
C2947 C 0.23116 0.88481 0.49239 0.0
C2948 C 0.24843 0.90616 0.44261 0.0
C2949 C 0.27364 0.9231 0.44466 0.0
N2950 N 0.23698 0.89205 0.47702 0.0
N2951 N 0.26781 0.91476 0.45887 0.0
H2952 H 0.08215 0.36861 0.43487 0.0
H2953 H 0.11176 0.3352 0.49519 0.0
H2954 H 0.07538 0.33165 0.42357 0.0
H2955 H 0.11656 0.37101 0.50985 0.0
H2956 H 0.09968 0.33452 0.46742 0.0
H2957 H 0.096 0.37042 0.46097 0.0
C2958 C 0.08362 0.3609 0.43782 0.0
C2959 C 0.07753 0.34993 0.42708 0.0
C2960 C 0.10341 0.34256 0.47665 0.0
C2961 C 0.09333 0.35192 0.45695 0.0
C2962 C 0.11028 0.34294 0.49255 0.0
C2963 C 0.11508 0.35313 0.50498 0.0
C2964 C 0.10127 0.35244 0.47309 0.0
C2965 C 0.11309 0.363 0.50061 0.0
C2966 C 0.09149 0.36192 0.45276 0.0
C2967 C 0.0797 0.3402 0.43166 0.0
N2968 N 0.10626 0.36238 0.48508 0.0
N2969 N 0.0874 0.34142 0.44623 0.0
H2970 H 0.07315 0.35691 0.2456 0.0
H2971 H 0.09958 0.32646 0.17496 0.0
H2972 H 0.0713 0.3223 0.25952 0.0
H2973 H 0.11854 0.36614 0.18401 0.0
H2974 H 0.08639 0.32376 0.20233 0.0
H2975 H 0.08681 0.35944 0.21865 0.0
C2976 C 0.07556 0.34981 0.24282 0.0
C2977 C 0.07114 0.33938 0.25464 0.0
C2978 C 0.09348 0.33303 0.19827 0.0
C2979 C 0.08655 0.34213 0.22398 0.0
C2980 C 0.10112 0.33462 0.18271 0.0
C2981 C 0.11031 0.34659 0.17698 0.0
C2982 C 0.09479 0.34346 0.20793 0.0
C2983 C 0.11148 0.35676 0.18747 0.0
C2984 C 0.08338 0.35129 0.2276 0.0
C2985 C 0.07457 0.33046 0.25066 0.0
N2986 N 0.10374 0.35496 0.2023 0.0
N2987 N 0.08201 0.33198 0.23551 0.0
H2988 H 0.69167 0.75733 0.27439 0.0
H2989 H 0.6691 0.76765 0.1736 0.0
H2990 H 0.66506 0.72712 0.23968 0.0
H2991 H 0.70527 0.79349 0.19601 0.0
H2992 H 0.66586 0.75363 0.20016 0.0
H2993 H 0.69537 0.7717 0.24796 0.0
C2994 C 0.68662 0.75375 0.26119 0.0
C2995 C 0.67806 0.74105 0.25914 0.0
C2996 C 0.6745 0.76237 0.19928 0.0
C2997 C 0.68212 0.75736 0.2291 0.0
C2998 C 0.67631 0.7704 0.18425 0.0
C2999 C 0.68744 0.78174 0.18271 0.0
C3000 C 0.68382 0.76576 0.21304 0.0
C3001 C 0.69657 0.7848 0.1967 0.0
C3002 C 0.68877 0.76192 0.24614 0.0
C3003 C 0.6718 0.73684 0.24175 0.0
N3004 N 0.69453 0.77688 0.2114 0.0
N3005 N 0.67387 0.74499 0.22744 0.0
H3006 H 0.27104 0.94184 0.24368 0.0
H3007 H 0.20331 0.90841 0.19787 0.0
H3008 H 0.24013 0.9425 0.27045 0.0
H3009 H 0.23665 0.91689 0.16703 0.0
H3010 H 0.21614 0.92006 0.22519 0.0
H3011 H 0.25809 0.93173 0.21612 0.0
C3012 C 0.26157 0.94 0.24373 0.0
C3013 C 0.25674 0.94315 0.25946 0.0
C3014 C 0.22061 0.91938 0.2124 0.0
C3015 C 0.24169 0.93122 0.22789 0.0
C3016 C 0.2133 0.91278 0.19678 0.0
C3017 C 0.21889 0.91151 0.1802 0.0
C3018 C 0.23357 0.9247 0.21142 0.0
C3019 C 0.23189 0.91732 0.17965 0.0
C3020 C 0.25414 0.93414 0.22797 0.0
C3021 C 0.24424 0.94015 0.25878 0.0
N3022 N 0.23875 0.92358 0.19504 0.0
N3023 N 0.23713 0.93432 0.24327 0.0
H3024 H 0.69632 0.93983 0.2692 0.0
H3025 H 0.66739 0.89849 0.17562 0.0
H3026 H 0.65972 0.92877 0.24783 0.0
H3027 H 0.70597 0.915 0.19128 0.0
H3028 H 0.6638 0.9077 0.2039 0.0
H3029 H 0.69943 0.92906 0.2425 0.0
C3030 C 0.68891 0.93507 0.25895 0.0
C3031 C 0.67776 0.93523 0.26071 0.0
C3032 C 0.67305 0.90927 0.20119 0.0
C3033 C 0.68127 0.92293 0.23009 0.0
C3034 C 0.67508 0.90394 0.18513 0.0
C3035 C 0.687 0.906 0.18107 0.0
C3036 C 0.683 0.91668 0.21337 0.0
C3037 C 0.69666 0.91329 0.19376 0.0
C3038 C 0.69072 0.92898 0.24366 0.0
C3039 C 0.66853 0.92902 0.24689 0.0
N3040 N 0.69445 0.91837 0.20933 0.0
N3041 N 0.67048 0.92312 0.23218 0.0
H3042 H 0.06469 0.72199 0.2458 0.0
H3043 H 0.1086 0.78862 0.19879 0.0
H3044 H 0.07381 0.75648 0.2735 0.0
H3045 H 0.10008 0.75384 0.17272 0.0
H3046 H 0.0956 0.77717 0.22601 0.0
H3047 H 0.07731 0.73365 0.21861 0.0
C3048 C 0.06938 0.73203 0.24619 0.0
C3049 C 0.06825 0.73827 0.26203 0.0
C3050 C 0.09661 0.77205 0.21434 0.0
C3051 C 0.08268 0.75171 0.23078 0.0
C3052 C 0.10399 0.77858 0.19878 0.0
C3053 C 0.10549 0.77218 0.18347 0.0
C3054 C 0.09062 0.75903 0.21457 0.0
C3055 C 0.09938 0.75918 0.18432 0.0
C3056 C 0.07655 0.73869 0.23061 0.0
C3057 C 0.07434 0.75129 0.26154 0.0
N3058 N 0.09222 0.75305 0.19956 0.0
N3059 N 0.08134 0.75759 0.2462 0.0
H3060 H 0.2581 0.30719 0.24461 0.0
H3061 H 0.21987 0.3352 0.19497 0.0
H3062 H 0.25374 0.33657 0.26927 0.0
H3063 H 0.21739 0.30088 0.17713 0.0
H3064 H 0.23233 0.33585 0.22232 0.0
H3065 H 0.24329 0.30469 0.21974 0.0
C3066 C 0.25397 0.31306 0.24491 0.0
C3067 C 0.25726 0.32216 0.25905 0.0
C3068 C 0.22897 0.32811 0.21254 0.0
C3069 C 0.2404 0.31944 0.23042 0.0
C3070 C 0.22188 0.32775 0.19693 0.0
C3071 C 0.21765 0.318 0.18376 0.0
C3072 C 0.232 0.31873 0.21489 0.0
C3073 C 0.22042 0.30852 0.18703 0.0
C3074 C 0.24554 0.31164 0.23066 0.0
C3075 C 0.25171 0.3296 0.25848 0.0
N3076 N 0.22754 0.30919 0.20217 0.0
N3077 N 0.24362 0.32811 0.24437 0.0
H3078 H 0.25854 0.31437 0.4323 0.0
H3079 H 0.23846 0.3478 0.50894 0.0
H3080 H 0.27044 0.35334 0.42874 0.0
H3081 H 0.21591 0.30878 0.49582 0.0
H3082 H 0.25173 0.35016 0.48186 0.0
H3083 H 0.24455 0.31223 0.45838 0.0
C3084 C 0.25825 0.32249 0.43713 0.0
C3085 C 0.26567 0.33406 0.42846 0.0
C3086 C 0.24383 0.3411 0.48489 0.0
C3087 C 0.24972 0.33169 0.45819 0.0
C3088 C 0.23616 0.33974 0.50029 0.0
C3089 C 0.22597 0.32805 0.50479 0.0
C3090 C 0.24145 0.33068 0.47406 0.0
C3091 C 0.22375 0.31792 0.49321 0.0
C3092 C 0.25021 0.32124 0.45187 0.0
C3093 C 0.26484 0.34426 0.43505 0.0
N3094 N 0.23148 0.31946 0.47849 0.0
N3095 N 0.25706 0.34286 0.44964 0.0
H3096 H 0.64938 0.93278 0.4464 0.0
H3097 H 0.6692 0.8876 0.49662 0.0
H3098 H 0.67321 0.92134 0.41951 0.0
H3099 H 0.63981 0.8934 0.51707 0.0
H3100 H 0.67177 0.90078 0.46907 0.0
H3101 H 0.64681 0.91934 0.47341 0.0
C3102 C 0.65413 0.92748 0.44623 0.0
C3103 C 0.66154 0.9282 0.4307 0.0
C3104 C 0.66472 0.89911 0.47955 0.0
C3105 C 0.65857 0.91271 0.46154 0.0
C3106 C 0.66329 0.89164 0.49529 0.0
C3107 C 0.65425 0.88936 0.50911 0.0
C3108 C 0.65716 0.90446 0.47775 0.0
C3109 C 0.64678 0.89476 0.50664 0.0
C3110 C 0.65259 0.91974 0.4616 0.0
C3111 C 0.66733 0.92098 0.43112 0.0
N3112 N 0.64844 0.9021 0.49133 0.0
N3113 N 0.66576 0.91358 0.44633 0.0
H3114 H 0.05817 0.72963 0.4579 0.0
H3115 H 0.12682 0.77475 0.49536 0.0
H3116 H 0.09023 0.7422 0.42143 0.0
H3117 H 0.09704 0.74932 0.5319 0.0
H3118 H 0.11318 0.76541 0.46763 0.0
H3119 H 0.072 0.73931 0.48493 0.0
C3120 C 0.06809 0.73435 0.45552 0.0
C3121 C 0.07298 0.73497 0.43725 0.0
C3122 C 0.10968 0.76187 0.48174 0.0
C3123 C 0.08887 0.74637 0.46822 0.0
C3124 C 0.11742 0.7672 0.4975 0.0
C3125 C 0.11305 0.76271 0.51586 0.0
C3126 C 0.09744 0.75218 0.48447 0.0
C3127 C 0.10081 0.75293 0.51794 0.0
C3128 C 0.07598 0.73994 0.47099 0.0
C3129 C 0.08597 0.74158 0.43512 0.0
N3130 N 0.09341 0.74804 0.50244 0.0
N3131 N 0.09346 0.74704 0.4504 0.0
H3132 H 0.33134 0.08308 0.74946 0.0
H3133 H 0.31354 0.07784 0.85795 0.0
H3134 H 0.30858 0.04738 0.7762 0.0
H3135 H 0.31711 0.10811 0.82352 0.0
H3136 H 0.3139 0.06702 0.82894 0.0
H3137 H 0.32831 0.09304 0.77716 0.0
C3138 C 0.32558 0.07727 0.76096 0.0
C3139 C 0.32021 0.06428 0.76031 0.0
C3140 C 0.31449 0.07597 0.82773 0.0
C3141 C 0.3171 0.0758 0.79242 0.0
C3142 C 0.31433 0.08213 0.84422 0.0
C3143 C 0.31529 0.09381 0.84296 0.0
C3144 C 0.31594 0.0817 0.80997 0.0
C3145 C 0.3163 0.09907 0.82495 0.0
C3146 C 0.32393 0.08302 0.77684 0.0
C3147 C 0.31314 0.0574 0.77608 0.0
N3148 N 0.31676 0.09303 0.8091 0.0
N3149 N 0.31189 0.06325 0.79154 0.0
H3150 H 0.92247 0.26158 0.76273 0.0
H3151 H 0.92086 0.21856 0.84875 0.0
H3152 H 0.95237 0.25449 0.77482 0.0
H3153 H 0.89073 0.22498 0.83502 0.0
H3154 H 0.9323 0.23105 0.82116 0.0
H3155 H 0.91064 0.24793 0.78897 0.0
C3156 C 0.92659 0.25722 0.77099 0.0
C3157 C 0.93847 0.25925 0.76662 0.0
C3158 C 0.92316 0.22968 0.82414 0.0
C3159 C 0.92487 0.24344 0.79661 0.0
C3160 C 0.91659 0.22248 0.83982 0.0
C3161 C 0.90483 0.22077 0.84428 0.0
C3162 C 0.91796 0.23523 0.81284 0.0
C3163 C 0.89984 0.22621 0.83233 0.0
C3164 C 0.91978 0.24934 0.7859 0.0
C3165 C 0.94321 0.25312 0.77759 0.0
N3166 N 0.90644 0.23322 0.81723 0.0
N3167 N 0.93642 0.24553 0.79211 0.0
H3168 H 0.75666 0.69663 0.75361 0.0
H3169 H 0.76732 0.66655 0.84737 0.0
H3170 H 0.73053 0.65991 0.77389 0.0
H3171 H 0.78993 0.70526 0.8327 0.0
H3172 H 0.7548 0.66343 0.8189 0.0
H3173 H 0.76993 0.69948 0.78106 0.0
C3174 C 0.75374 0.68915 0.76381 0.0
C3175 C 0.74246 0.67802 0.76148 0.0
C3176 C 0.76252 0.6726 0.82188 0.0
C3177 C 0.75758 0.68123 0.79294 0.0
C3178 C 0.76973 0.67437 0.83804 0.0
C3179 C 0.77968 0.68619 0.84242 0.0
C3180 C 0.7653 0.68271 0.80991 0.0
C3181 C 0.78226 0.69602 0.82997 0.0
C3182 C 0.76129 0.69081 0.77952 0.0
C3183 C 0.73907 0.66869 0.77525 0.0
N3184 N 0.77512 0.69406 0.81428 0.0
N3185 N 0.74661 0.6705 0.79036 0.0
H3186 H 0.72077 0.63791 0.58756 0.0
H3187 H 0.77029 0.66935 0.50387 0.0
H3188 H 0.7447 0.67757 0.58249 0.0
H3189 H 0.75225 0.63032 0.51751 0.0
H3190 H 0.76059 0.67265 0.53181 0.0
H3191 H 0.73155 0.63501 0.56086 0.0
C3192 C 0.72835 0.64602 0.58094 0.0
C3193 C 0.73186 0.65801 0.58742 0.0
C3194 C 0.75881 0.66338 0.52872 0.0
C3195 C 0.74415 0.65473 0.55651 0.0
C3196 C 0.76442 0.66149 0.51284 0.0
C3197 C 0.76206 0.64952 0.50823 0.0
C3198 C 0.75072 0.65322 0.54004 0.0
C3199 C 0.75418 0.63967 0.52025 0.0
C3200 C 0.73447 0.64435 0.56561 0.0
C3201 C 0.74157 0.66816 0.57789 0.0
N3202 N 0.74875 0.64173 0.53551 0.0
N3203 N 0.74736 0.66629 0.56291 0.0
H3204 H 0.34422 0.0643 0.56833 0.0
H3205 H 0.3593 0.13108 0.53082 0.0
H3206 H 0.35008 0.09417 0.6059 0.0
H3207 H 0.36207 0.10412 0.49574 0.0
H3208 H 0.35463 0.1173 0.5583 0.0
H3209 H 0.34925 0.07832 0.54117 0.0
C3210 C 0.34649 0.07379 0.57084 0.0
C3211 C 0.34673 0.07808 0.58938 0.0
C3212 C 0.35633 0.11444 0.54461 0.0
C3213 C 0.35256 0.09419 0.55842 0.0
C3214 C 0.35896 0.12228 0.52894 0.0
C3215 C 0.36111 0.11875 0.51101 0.0
C3216 C 0.35571 0.10293 0.54227 0.0
C3217 C 0.36063 0.10728 0.50936 0.0
C3218 C 0.34945 0.08181 0.55536 0.0
C3219 C 0.34989 0.09052 0.59185 0.0
N3220 N 0.35791 0.09975 0.52476 0.0
N3221 N 0.35264 0.09813 0.57653 0.0
H3222 H 0.9262 0.27461 0.58402 0.0
H3223 H 0.9006 0.20906 0.53181 0.0
H3224 H 0.93153 0.24502 0.60509 0.0
H3225 H 0.89784 0.23953 0.5079 0.0
H3226 H 0.91058 0.22164 0.55995 0.0
H3227 H 0.91453 0.26148 0.55709 0.0
C3228 C 0.92494 0.26537 0.58299 0.0
C3229 C 0.92989 0.26094 0.59686 0.0
C3230 C 0.90775 0.22557 0.54859 0.0
C3231 C 0.91644 0.24581 0.56616 0.0
C3232 C 0.90209 0.2184 0.53247 0.0
C3233 C 0.89845 0.22327 0.51739 0.0
C3234 C 0.90981 0.23772 0.54968 0.0
C3235 C 0.9004 0.23536 0.51923 0.0
C3236 C 0.91822 0.25785 0.56766 0.0
C3237 C 0.92777 0.2488 0.59492 0.0
N3238 N 0.90601 0.24219 0.53503 0.0
N3239 N 0.92124 0.24169 0.57985 0.0
H3240 H 0.33256 0.256 0.59204 0.0
H3241 H 0.38098 0.2566 0.51649 0.0
H3242 H 0.37003 0.2865 0.58611 0.0
H3243 H 0.34146 0.23126 0.51357 0.0
H3244 H 0.37769 0.26628 0.54445 0.0
H3245 H 0.33626 0.24537 0.56576 0.0
C3246 C 0.3416 0.26042 0.58528 0.0
C3247 C 0.351 0.27217 0.59123 0.0
C3248 C 0.36975 0.25857 0.53771 0.0
C3249 C 0.35529 0.26007 0.56114 0.0
C3250 C 0.37161 0.25305 0.52169 0.0
C3251 C 0.36148 0.24311 0.51252 0.0
C3252 C 0.35769 0.25408 0.54472 0.0
C3253 C 0.34958 0.23877 0.52024 0.0
C3254 C 0.34368 0.25438 0.57022 0.0
C3255 C 0.36249 0.27752 0.58182 0.0
N3256 N 0.34802 0.2443 0.53583 0.0
N3257 N 0.36432 0.27143 0.56727 0.0
H3258 H 0.72225 0.05761 0.56071 0.0
H3259 H 0.7693 0.12581 0.52137 0.0
H3260 H 0.73795 0.09041 0.59593 0.0
H3261 H 0.75437 0.09254 0.48732 0.0
H3262 H 0.75711 0.11327 0.54851 0.0
H3263 H 0.73329 0.0705 0.53334 0.0
C3264 C 0.72804 0.06753 0.5627 0.0
C3265 C 0.72923 0.07291 0.58069 0.0
C3266 C 0.7565 0.10873 0.53508 0.0
C3267 C 0.74185 0.08779 0.54932 0.0
C3268 C 0.76341 0.11589 0.51957 0.0
C3269 C 0.76294 0.11021 0.50209 0.0
C3270 C 0.74902 0.09581 0.53307 0.0
C3271 C 0.75522 0.0973 0.50062 0.0
C3272 C 0.73431 0.0749 0.54704 0.0
C3273 C 0.73668 0.08586 0.58231 0.0
N3274 N 0.74859 0.09055 0.51588 0.0
N3275 N 0.74275 0.09285 0.56685 0.0
H3276 H 0.90538 0.64265 0.60624 0.0
H3277 H 0.89997 0.66773 0.50445 0.0
H3278 H 0.93723 0.66944 0.57443 0.0
H3279 H 0.8728 0.63128 0.52427 0.0
H3280 H 0.91264 0.67028 0.53257 0.0
H3281 H 0.89216 0.63999 0.5786 0.0
C3282 C 0.90955 0.64798 0.59344 0.0
C3283 C 0.92238 0.65625 0.59252 0.0
C3284 C 0.90389 0.66173 0.53078 0.0
C3285 C 0.9074 0.65337 0.56112 0.0
C3286 C 0.89663 0.66031 0.51485 0.0
C3287 C 0.88533 0.64929 0.51211 0.0
C3288 C 0.89975 0.65214 0.54424 0.0
C3289 C 0.88149 0.63989 0.52587 0.0
C3290 C 0.90205 0.64642 0.5777 0.0
C3291 C 0.92739 0.66289 0.57562 0.0
N3292 N 0.88867 0.64155 0.54143 0.0
N3293 N 0.91987 0.66137 0.56062 0.0
H3294 H 0.94795 0.69906 0.76666 0.0
H3295 H 0.8939 0.66696 0.84407 0.0
H3296 H 0.92095 0.65992 0.76717 0.0
H3297 H 0.91673 0.70668 0.83793 0.0
H3298 H 0.90412 0.66422 0.81645 0.0
H3299 H 0.93716 0.70205 0.79339 0.0
C3300 C 0.93972 0.69109 0.7723 0.0
C3301 C 0.93537 0.6792 0.76461 0.0
C3302 C 0.90686 0.67354 0.82108 0.0
C3303 C 0.92305 0.68256 0.79541 0.0
C3304 C 0.90095 0.67513 0.83679 0.0
C3305 C 0.9044 0.68708 0.84336 0.0
C3306 C 0.91638 0.68397 0.81185 0.0
C3307 C 0.91385 0.69729 0.83355 0.0
C3308 C 0.93359 0.69281 0.78763 0.0
C3309 C 0.92478 0.66922 0.77278 0.0
N3310 N 0.91952 0.6955 0.81833 0.0
N3311 N 0.919 0.67112 0.78772 0.0
H3312 H 0.33944 0.25334 0.73875 0.0
H3313 H 0.32895 0.23699 0.8497 0.0
H3314 H 0.32294 0.268 0.77729 0.0
H3315 H 0.34361 0.22065 0.81081 0.0
H3316 H 0.32591 0.24773 0.82307 0.0
H3317 H 0.34028 0.24066 0.76459 0.0
C3318 C 0.33585 0.25379 0.75259 0.0
C3319 C 0.33111 0.26177 0.75583 0.0
C3320 C 0.32973 0.24175 0.82032 0.0
C3321 C 0.33224 0.2474 0.78561 0.0
C3322 C 0.33139 0.23552 0.83552 0.0
C3323 C 0.33654 0.22786 0.83253 0.0
C3324 C 0.33329 0.24039 0.80192 0.0
C3325 C 0.33976 0.22657 0.81385 0.0
C3326 C 0.33642 0.2466 0.76738 0.0
C3327 C 0.32682 0.26212 0.77418 0.0
N3328 N 0.33812 0.2328 0.79927 0.0
N3329 N 0.32752 0.25508 0.78837 0.0
H3330 H 0.73694 0.05286 0.77351 0.0
H3331 H 0.78314 0.12059 0.81496 0.0
H3332 H 0.75124 0.08644 0.74027 0.0
H3333 H 0.76431 0.08764 0.84968 0.0
H3334 H 0.77344 0.10795 0.7867 0.0
H3335 H 0.74885 0.0652 0.80083 0.0
C3336 C 0.74259 0.06282 0.77194 0.0
C3337 C 0.743 0.06861 0.75457 0.0
C3338 C 0.77149 0.10348 0.8005 0.0
C3339 C 0.75676 0.08281 0.78579 0.0
C3340 C 0.77698 0.1107 0.81666 0.0
C3341 C 0.77449 0.1052 0.83478 0.0
C3342 C 0.76344 0.09065 0.80244 0.0
C3343 C 0.76663 0.09229 0.83603 0.0
C3344 C 0.74943 0.06986 0.78753 0.0
C3345 C 0.7507 0.08155 0.7533 0.0
N3346 N 0.76134 0.08548 0.82011 0.0
N3347 N 0.75722 0.08821 0.76872 0.0
H3348 H 0.06718 0.37819 0.0192 0.0
H3349 H 0.09183 0.33194 0.04733 0.0
H3350 H 0.04391 0.33832 0.01972 0.0
H3351 H 0.11227 0.37155 0.05666 0.0
H3352 H 0.07528 0.33413 0.03229 0.0
H3353 H 0.08491 0.3759 0.02798 0.0
C3354 C 0.0658 0.36895 0.02112 0.0
C3355 C 0.05399 0.35844 0.01893 0.0
C3356 C 0.08347 0.34234 0.03746 0.0
C3357 C 0.0743 0.35574 0.02885 0.0
C3358 C 0.09291 0.3411 0.04611 0.0
C3359 C 0.10348 0.35156 0.05342 0.0
C3360 C 0.08461 0.35413 0.03606 0.0
C3361 C 0.10442 0.36322 0.05107 0.0
C3362 C 0.07594 0.36765 0.02605 0.0
C3363 C 0.05284 0.34668 0.02116 0.0
N3364 N 0.09509 0.36416 0.04273 0.0
N3365 N 0.06284 0.34566 0.02614 0.0
H3366 H 0.6306 0.7004 0.03868 0.0
H3367 H 0.6896 0.76517 0.06591 0.0
H3368 H 0.66843 0.70912 0.02973 0.0
H3369 H 0.6528 0.76034 0.0617 0.0
H3370 H 0.68181 0.74459 0.05267 0.0
H3371 H 0.63824 0.72208 0.04776 0.0
C3372 C 0.6405 0.70688 0.03858 0.0
C3373 C 0.64889 0.70295 0.03342 0.0
C3374 C 0.67544 0.74806 0.05446 0.0
C3375 C 0.65767 0.72769 0.04376 0.0
C3376 C 0.67992 0.75992 0.06189 0.0
C3377 C 0.67188 0.76462 0.06495 0.0
C3378 C 0.66277 0.74068 0.05025 0.0
C3379 C 0.65933 0.75709 0.0599 0.0
C3380 C 0.64484 0.71925 0.04364 0.0
C3381 C 0.66161 0.71175 0.03338 0.0
N3382 N 0.65514 0.74545 0.05295 0.0
N3383 N 0.6656 0.72366 0.03859 0.0
H3384 H 0.29448 0.92875 0.0281 0.0
H3385 H 0.23462 0.92697 0.06778 0.0
H3386 H 0.28794 0.95942 0.02093 0.0
H3387 H 0.23337 0.89341 0.04829 0.0
H3388 H 0.25461 0.93909 0.05235 0.0
H3389 H 0.27268 0.91558 0.03762 0.0
C3390 C 0.28842 0.93266 0.02841 0.0
C3391 C 0.29296 0.94516 0.02375 0.0
C3392 C 0.24988 0.92907 0.05128 0.0
C3393 C 0.26823 0.93029 0.03477 0.0
C3394 C 0.23835 0.92208 0.05998 0.0
C3395 C 0.23215 0.90904 0.05945 0.0
C3396 C 0.25546 0.92305 0.04232 0.0
C3397 C 0.23784 0.90339 0.04951 0.0
C3398 C 0.27601 0.92515 0.03372 0.0
C3399 C 0.28476 0.9498 0.02428 0.0
N3400 N 0.24925 0.91042 0.04156 0.0
N3401 N 0.27283 0.94241 0.02994 0.0
H3402 H 0.32849 0.03695 0.99291 0.0
H3403 H 0.35073 0.1032 0.95418 0.0
H3404 H 0.36663 0.06575 0.00163 0.0
H3405 H 0.31456 0.08177 0.98017 0.0
H3406 H 0.35702 0.08949 0.969 0.0
H3407 H 0.32322 0.05277 0.98539 0.0
C3408 C 0.33578 0.04656 0.99362 0.0
C3409 C 0.34808 0.0499 0.99813 0.0
C3410 C 0.34777 0.08793 0.97162 0.0
C3411 C 0.34202 0.06809 0.98862 0.0
C3412 C 0.34415 0.09581 0.96327 0.0
C3413 C 0.33199 0.09363 0.96567 0.0
C3414 C 0.33911 0.07763 0.98208 0.0
C3415 C 0.32389 0.08366 0.97737 0.0
C3416 C 0.33271 0.0556 0.98916 0.0
C3417 C 0.35707 0.06261 0.99796 0.0
N3418 N 0.32752 0.07591 0.98484 0.0
N3419 N 0.35389 0.07123 0.99304 0.0
H3420 H 0.93097 0.30168 0.98194 0.0
H3421 H 0.91111 0.22996 0.98606 0.0
H3422 H 0.94931 0.28738 0.01737 0.0
H3423 H 0.89383 0.24506 0.94993 0.0
H3424 H 0.92353 0.25041 0.00072 0.0
H3425 H 0.9155 0.28052 0.97342 0.0
C3426 C 0.93165 0.29409 0.98819 0.0
C3427 C 0.94154 0.29635 0.00028 0.0
C3428 C 0.9169 0.24919 0.98974 0.0
C3429 C 0.92394 0.27201 0.99024 0.0
C3430 C 0.90984 0.23753 0.98133 0.0
C3431 C 0.90145 0.23578 0.96664 0.0
C3432 C 0.91561 0.25919 0.98337 0.0
C3433 C 0.90006 0.24589 0.96131 0.0
C3434 C 0.92284 0.28198 0.98319 0.0
C3435 C 0.94199 0.28609 0.0077 0.0
N3436 N 0.90714 0.25716 0.96953 0.0
N3437 N 0.93338 0.27438 0.00243 0.0
H3438 H 0.70887 0.67101 0.00769 0.0
H3439 H 0.75781 0.65322 0.9666 0.0
H3440 H 0.69835 0.63435 0.98706 0.0
H3441 H 0.76367 0.6905 0.96677 0.0
H3442 H 0.73733 0.64585 0.98073 0.0
H3443 H 0.73038 0.67787 -0.00062 0.0
C3444 C 0.71105 0.66438 0.00141 0.0
C3445 C 0.70169 0.65211 0.99777 0.0
C3446 C 0.7432 0.65565 0.97782 0.0
C3447 C 0.72642 0.6599 0.98864 0.0
C3448 C 0.75488 0.65989 0.96967 0.0
C3449 C 0.76252 0.67252 0.96522 0.0
C3450 C 0.73917 0.66412 0.98178 0.0
C3451 C 0.75827 0.68072 0.97007 0.0
C3452 C 0.72336 0.66831 0.99679 0.0
C3453 C 0.70521 0.64388 0.99019 0.0
N3454 N 0.74688 0.67636 0.97799 0.0
N3455 N 0.71728 0.64794 0.98577 0.0
H3456 H 0.95566 0.66583 0.0014 0.0
H3457 H 0.88843 0.64823 0.96211 0.0
H3458 H 0.92725 0.62821 0.9889 0.0
H3459 H 0.91967 0.68554 0.96532 0.0
H3460 H 0.90137 0.64052 0.97591 0.0
H3461 H 0.94132 0.67294 0.99263 0.0
C3462 C 0.94633 0.65902 0.99707 0.0
C3463 C 0.94266 0.64639 0.99591 0.0
C3464 C 0.90532 0.6504 0.97373 0.0
C3465 C 0.9262 0.65453 0.98548 0.0
C3466 C 0.89796 0.65482 0.9658 0.0
C3467 C 0.90293 0.66758 0.96246 0.0
C3468 C 0.91774 0.6588 0.97842 0.0
C3469 C 0.9153 0.67566 0.96785 0.0
C3470 C 0.93817 0.66311 0.99191 0.0
C3471 C 0.93052 0.63805 0.98982 0.0
N3472 N 0.92225 0.67113 0.97546 0.0
N3473 N 0.92272 0.64227 0.98478 0.0
H3474 H 0.38027 0.31192 0.97616 0.0
H3475 H 0.34353 0.23772 0.97333 0.0
H3476 H 0.34476 0.28966 0.0034 0.0
H3477 H 0.37168 0.26103 0.93265 0.0
H3478 H 0.34597 0.2564 0.98894 0.0
H3479 H 0.37953 0.29298 0.96501 0.0
C3480 C 0.37239 0.30304 0.98002 0.0
C3481 C 0.36253 0.30236 0.99065 0.0
C3482 C 0.35167 0.25736 0.97669 0.0
C3483 C 0.36157 0.28064 0.97779 0.0
C3484 C 0.35026 0.24671 0.96769 0.0
C3485 C 0.35738 0.24771 0.95155 0.0
C3486 C 0.36035 0.26911 0.96962 0.0
C3487 C 0.36612 0.25969 0.94521 0.0
C3488 C 0.37193 0.29223 0.97354 0.0
C3489 C 0.35248 0.29058 0.99504 0.0
N3490 N 0.36732 0.26987 0.95422 0.0
N3491 N 0.35224 0.28017 0.98855 0.0
H3492 H 0.70618 0.04157 0.99114 0.0
H3493 H 0.74837 0.11416 0.96964 0.0
H3494 H 0.69418 0.06823 0.00045 0.0
H3495 H 0.75777 0.0866 0.95231 0.0
H3496 H 0.73001 0.09795 0.98585 0.0
H3497 H 0.72662 0.05847 0.98188 0.0
C3498 C 0.70789 0.051 0.99151 0.0
C3499 C 0.69842 0.05348 0.99645 0.0
C3500 C 0.73616 0.09548 0.97866 0.0
C3501 C 0.72178 0.07287 0.98564 0.0
C3502 C 0.74663 0.10472 0.96936 0.0
C3503 C 0.75457 0.10173 0.95938 0.0
C3504 C 0.73358 0.08314 0.978 0.0
C3505 C 0.75198 0.08938 0.95988 0.0
C3506 C 0.71955 0.06064 0.9861 0.0
C3507 C 0.70115 0.06588 0.99645 0.0
N3508 N 0.74166 0.08053 0.96886 0.0
N3509 N 0.71256 0.0751 0.99102 0.0
H3510 H 0.63189 0.92957 0.02815 0.0
H3511 H 0.692 0.92643 0.0565 0.0
H3512 H 0.66921 0.95929 0.01753 0.0
H3513 H 0.65546 0.8939 0.05441 0.0
H3514 H 0.68383 0.93829 0.04097 0.0
H3515 H 0.64019 0.91611 0.03706 0.0
C3516 C 0.64182 0.93323 0.02757 0.0
C3517 C 0.64987 0.94558 0.02217 0.0
C3518 C 0.67762 0.92852 0.04371 0.0
C3519 C 0.65944 0.93027 0.03238 0.0
C3520 C 0.68231 0.92168 0.05247 0.0
C3521 C 0.67442 0.9091 0.05695 0.0
C3522 C 0.6649 0.92285 0.03957 0.0
C3523 C 0.66186 0.90362 0.05165 0.0
C3524 C 0.64655 0.92553 0.03255 0.0
C3525 C 0.66265 0.9498 0.02145 0.0
N3526 N 0.65747 0.91056 0.04345 0.0
N3527 N 0.66703 0.94221 0.0267 0.0
H3528 H 0.05839 0.70709 0.00064 0.0
H3529 H 0.08033 0.75639 0.08561 0.0
H3530 H 0.04171 0.69942 0.05643 0.0
H3531 H 0.10419 0.76059 0.03819 0.0
H3532 H 0.06407 0.73721 0.07165 0.0
H3533 H 0.07347 0.72825 0.0112 0.0
C3534 C 0.05788 0.7099 0.01505 0.0
C3535 C 0.04891 0.7015 0.02777 0.0
C3536 C 0.07282 0.74238 0.06419 0.0
C3537 C 0.0659 0.72555 0.03979 0.0
C3538 C 0.08207 0.75342 0.07204 0.0
C3539 C 0.09366 0.76012 0.06307 0.0
C3540 C 0.07511 0.73794 0.04719 0.0
C3541 C 0.09543 0.75564 0.04568 0.0
C3542 C 0.06647 0.72192 0.02106 0.0
C3543 C 0.0486 0.70556 0.04628 0.0
N3544 N 0.08626 0.74478 0.03832 0.0
N3545 N 0.05696 0.71728 0.05172 0.0
H3546 H 0.29642 0.36098 0.01555 0.0
H3547 H 0.23971 0.31648 0.08339 0.0
H3548 H 0.29769 0.33631 0.0575 0.0
H3549 H 0.23918 0.34438 0.04753 0.0
H3550 H 0.26028 0.32242 0.07149 0.0
H3551 H 0.27491 0.354 0.02484 0.0
C3552 C 0.29216 0.35408 0.02666 0.0
C3553 C 0.29888 0.34928 0.03586 0.0
C3554 C 0.25567 0.32722 0.06611 0.0
C3555 C 0.27434 0.34127 0.04651 0.0
C3556 C 0.24383 0.32374 0.07276 0.0
C3557 C 0.23764 0.32989 0.06639 0.0
C3558 C 0.26146 0.33697 0.05296 0.0
C3559 C 0.24364 0.33944 0.05294 0.0
C3560 C 0.27991 0.35014 0.032 0.0
C3561 C 0.29294 0.34041 0.05024 0.0
N3562 N 0.25523 0.34271 0.04668 0.0
N3563 N 0.28103 0.3367 0.05509 0.0
H3564 H 0.72825 0.69251 0.34418 0.0
H3565 H 0.73785 0.64107 0.39696 0.0
H3566 H 0.70051 0.66318 0.37918 0.0
H3567 H 0.76874 0.67615 0.37904 0.0
H3568 H 0.72361 0.64756 0.38507 0.0
H3569 H 0.74287 0.68547 0.35244 0.0
C3570 C 0.72521 0.68463 0.35361 0.0
C3571 C 0.71306 0.67842 0.36092 0.0
C3572 C 0.7335 0.65382 0.3836 0.0
C3573 C 0.72968 0.6702 0.37003 0.0
C3574 C 0.74165 0.65006 0.39019 0.0
C3575 C 0.75453 0.65807 0.38897 0.0
C3576 C 0.7382 0.66568 0.37565 0.0
C3577 C 0.75888 0.66973 0.3804 0.0
C3578 C 0.73355 0.68059 0.3582 0.0
C3579 C 0.70965 0.66813 0.37282 0.0
N3580 N 0.75072 0.67321 0.37408 0.0
N3581 N 0.71789 0.66436 0.37694 0.0
H3582 H 0.29859 0.03553 0.36961 0.0
H3583 H 0.35917 0.10031 0.39408 0.0
H3584 H 0.33575 0.04129 0.3722 0.0
H3585 H 0.32223 0.09529 0.39448 0.0
H3586 H 0.35071 0.07921 0.38264 0.0
H3587 H 0.30699 0.05772 0.3758 0.0
C3588 C 0.30851 0.04147 0.37137 0.0
C3589 C 0.31648 0.03654 0.37062 0.0
C3590 C 0.34444 0.08272 0.38506 0.0
C3591 C 0.32612 0.06186 0.37767 0.0
C3592 C 0.34929 0.09487 0.39142 0.0
C3593 C 0.34141 0.09965 0.39529 0.0
C3594 C 0.33157 0.07517 0.38263 0.0
C3595 C 0.32864 0.09196 0.39194 0.0
C3596 C 0.31329 0.05411 0.37495 0.0
C3597 C 0.32924 0.04464 0.37306 0.0
N3598 N 0.3241 0.08006 0.38593 0.0
N3599 N 0.33365 0.05686 0.37652 0.0
H3600 H 0.97065 0.27217 0.34143 0.0
H3601 H 0.9154 0.24919 0.41711 0.0
H3602 H 0.9683 0.2954 0.38495 0.0
H3603 H 0.91801 0.22478 0.37605 0.0
H3604 H 0.93369 0.26662 0.4031 0.0
H3605 H 0.95061 0.25504 0.352 0.0
C3606 C 0.96594 0.27368 0.35319 0.0
C3607 C 0.97121 0.28526 0.36232 0.0
C3608 C 0.93023 0.25747 0.39703 0.0
C3609 C 0.94822 0.26573 0.37435 0.0
C3610 C 0.91968 0.2475 0.40492 0.0
C3611 C 0.91512 0.23545 0.39778 0.0
C3612 C 0.93637 0.25544 0.3819 0.0
C3613 C 0.92128 0.23387 0.38219 0.0
C3614 C 0.95446 0.26391 0.35914 0.0
C3615 C 0.96456 0.28672 0.37728 0.0
N3616 N 0.93163 0.24374 0.37484 0.0
N3617 N 0.95347 0.27707 0.38285 0.0
H3618 H 0.00741 0.37851 0.29665 0.0
H3619 H 0.01124 0.44417 0.30796 0.0
H3620 H 0.02918 0.40455 0.34063 0.0
H3621 H 0.98485 0.41448 0.27214 0.0
H3622 H 0.01822 0.43022 0.32028 0.0
H3623 H 0.99945 0.39205 0.28732 0.0
C3624 C 0.01057 0.38714 0.30428 0.0
C3625 C 0.01906 0.39048 0.31931 0.0
C3626 C 0.0108 0.42675 0.30988 0.0
C3627 C 0.00987 0.40603 0.30882 0.0
C3628 C 0.00684 0.4347 0.30282 0.0
C3629 C 0.99741 0.43048 0.28904 0.0
C3630 C 0.00539 0.41455 0.30292 0.0
C3631 C 0.992 0.41811 0.28296 0.0
C3632 C 0.00594 0.39483 0.29905 0.0
C3633 C 0.02263 0.40164 0.32897 0.0
N3634 N 0.99613 0.41064 0.28982 0.0
N3635 N 0.01808 0.40909 0.32347 0.0
H3636 H 0.61923 0.62477 0.33937 0.0
H3637 H 0.5548 0.57626 0.29105 0.0
H3638 H 0.59549 0.63608 0.31181 0.0
H3639 H 0.58552 0.56973 0.29883 0.0
H3640 H 0.56753 0.59706 0.30444 0.0
H3641 H 0.60463 0.60327 0.33078 0.0
C3642 C 0.61084 0.6227 0.33174 0.0
C3643 C 0.60857 0.63222 0.32626 0.0
C3644 C 0.57138 0.59097 0.30333 0.0
C3645 C 0.59187 0.60763 0.31628 0.0
C3646 C 0.56415 0.57911 0.29562 0.0
C3647 C 0.56905 0.57114 0.29363 0.0
C3648 C 0.58353 0.59486 0.30935 0.0
C3649 C 0.58118 0.57534 0.30029 0.0
C3650 C 0.60257 0.61044 0.32673 0.0
C3651 C 0.59764 0.62902 0.31615 0.0
N3652 N 0.58797 0.58689 0.30778 0.0
N3653 N 0.58967 0.61697 0.31145 0.0
H3654 H 0.36874 0.99352 0.31 0.0
H3655 H 0.40928 0.96029 0.30149 0.0
H3656 H 0.35522 0.95557 0.32729 0.0
H3657 H 0.4156 0.99179 0.26729 0.0
H3658 H 0.39132 0.96016 0.31588 0.0
H3659 H 0.38789 0.99469 0.29901 0.0
C3660 C 0.36975 0.98541 0.31145 0.0
C3661 C 0.36023 0.97438 0.31943 0.0
C3662 C 0.39673 0.96714 0.30531 0.0
C3663 C 0.38232 0.97579 0.30722 0.0
C3664 C 0.40696 0.9672 0.29702 0.0
C3665 C 0.414 0.97602 0.28302 0.0
C3666 C 0.39356 0.97603 0.29973 0.0
C3667 C 0.41064 0.98492 0.27818 0.0
C3668 C 0.38073 0.98613 0.30527 0.0
C3669 C 0.36229 0.96431 0.3214 0.0
N3670 N 0.40066 0.98466 0.28648 0.0
N3671 N 0.3731 0.96525 0.3153 0.0
H3672 H 0.62107 0.99565 0.34349 0.0
H3673 H 0.55814 0.97196 0.28553 0.0
H3674 H 0.60047 0.95928 0.31816 0.0
H3675 H 0.57658 0.00704 0.31519 0.0
H3676 H 0.57255 0.96648 0.29983 0.0
H3677 H 0.60417 0.99947 0.33532 0.0
C3678 C 0.61297 0.98845 0.33627 0.0
C3679 C 0.61223 0.97716 0.33135 0.0
C3680 C 0.57338 0.97532 0.3034 0.0
C3681 C 0.59283 0.98146 0.32201 0.0
C3682 C 0.56506 0.97843 0.29535 0.0
C3683 C 0.56614 0.99003 0.29906 0.0
C3684 C 0.58298 0.9839 0.31513 0.0
C3685 C 0.5755 0.9981 0.31163 0.0
C3686 C 0.60329 0.99061 0.33171 0.0
C3687 C 0.60141 0.96808 0.32232 0.0
N3688 N 0.58363 0.99493 0.31907 0.0
N3689 N 0.5922 0.97047 0.31778 0.0
H3690 H 0.04343 0.6434 0.34126 0.0
H3691 H 0.99928 0.5732 0.30789 0.0
H3692 H 0.00358 0.62619 0.33776 0.0
H3693 H 0.03867 0.59439 0.29667 0.0
H3694 H 0.00083 0.59099 0.32516 0.0
H3695 H 0.04185 0.6238 0.33161 0.0
C3696 C 0.03433 0.63543 0.33878 0.0
C3697 C 0.02362 0.63645 0.34017 0.0
C3698 C 0.00914 0.59165 0.31908 0.0
C3699 C 0.02176 0.61403 0.32892 0.0
C3700 C 0.00827 0.58152 0.30915 0.0
C3701 C 0.01883 0.58228 0.30056 0.0
C3702 C 0.02067 0.60259 0.32058 0.0
C3703 C 0.03027 0.59324 0.30313 0.0
C3704 C 0.03344 0.62427 0.33314 0.0
C3705 C 0.01208 0.62585 0.33658 0.0
N3706 N 0.03085 0.60297 0.31277 0.0
N3707 N 0.01145 0.61509 0.33101 0.0
H3708 H 0.3667 0.39768 0.32816 0.0
H3709 H 0.43129 0.40544 0.29304 0.0
H3710 H 0.37387 0.36739 0.32118 0.0
H3711 H 0.42511 0.4364 0.30001 0.0
H3712 H 0.41095 0.39178 0.30659 0.0
H3713 H 0.38853 0.41231 0.32087 0.0
C3714 C 0.37289 0.39411 0.32529 0.0
C3715 C 0.36842 0.38128 0.32505 0.0
C3716 C 0.41406 0.40158 0.30533 0.0
C3717 C 0.39336 0.39794 0.31661 0.0
C3718 C 0.42577 0.40944 0.29775 0.0
C3719 C 0.42998 0.42214 0.2953 0.0
C3720 C 0.40635 0.40635 0.31043 0.0
C3721 C 0.4222 0.42665 0.30133 0.0
C3722 C 0.38533 0.40246 0.32106 0.0
C3723 C 0.37684 0.37718 0.32113 0.0
N3724 N 0.41073 0.41876 0.30848 0.0
N3725 N 0.38886 0.38547 0.31698 0.0
H3726 H 0.31061 0.28071 0.39696 0.0
H3727 H 0.34177 0.24044 0.37016 0.0
H3728 H 0.31429 0.27187 0.3387 0.0
H3729 H 0.32824 0.24142 0.42632 0.0
H3730 H 0.33212 0.2521 0.35801 0.0
H3731 H 0.31725 0.26641 0.40774 0.0
C3732 C 0.31262 0.27564 0.38638 0.0
C3733 C 0.31183 0.27754 0.36683 0.0
C3734 C 0.33115 0.24961 0.37294 0.0
C3735 C 0.31984 0.26131 0.37922 0.0
C3736 C 0.33669 0.24301 0.37988 0.0
C3737 C 0.3358 0.23995 0.39927 0.0
C3738 C 0.32485 0.25332 0.38556 0.0
C3739 C 0.32904 0.24344 0.41123 0.0
C3740 C 0.31651 0.26751 0.39259 0.0
C3741 C 0.31493 0.27088 0.3539 0.0
N3742 N 0.32393 0.25003 0.40422 0.0
N3743 N 0.31888 0.26313 0.36032 0.0
H3744 H 0.71285 0.04392 0.33795 0.0
H3745 H 0.77373 0.08742 0.39847 0.0
H3746 H 0.73295 0.03059 0.37124 0.0
H3747 H 0.75394 0.10147 0.36595 0.0
H3748 H 0.76023 0.06689 0.38541 0.0
H3749 H 0.72882 0.06524 0.34536 0.0
C3750 C 0.72063 0.04546 0.34677 0.0
C3751 C 0.72149 0.03542 0.3541 0.0
C3752 C 0.75889 0.07447 0.38095 0.0
C3753 C 0.73986 0.0598 0.3625 0.0
C3754 C 0.76671 0.08628 0.38827 0.0
C3755 C 0.76499 0.09626 0.38337 0.0
C3756 C 0.74917 0.07252 0.36871 0.0
C3757 C 0.75551 0.09404 0.37038 0.0
C3758 C 0.72978 0.05764 0.3509 0.0
C3759 C 0.73192 0.038 0.36514 0.0
N3760 N 0.74788 0.08239 0.36363 0.0
N3761 N 0.74063 0.04992 0.3691 0.0
H3762 H 0.96947 0.70677 0.37076 0.0
H3763 H 0.90356 0.6482 0.39021 0.0
H3764 H 0.95919 0.67003 0.35106 0.0
H3765 H 0.90917 0.68539 0.39004 0.0
H3766 H 0.92399 0.6561 0.37627 0.0
H3767 H 0.94767 0.69934 0.37879 0.0
C3768 C 0.9626 0.69717 0.36801 0.0
C3769 C 0.96613 0.68899 0.36027 0.0
C3770 C 0.92069 0.66252 0.37908 0.0
C3771 C 0.94128 0.68043 0.36952 0.0
C3772 C 0.90893 0.658 0.38694 0.0
C3773 C 0.90451 0.66611 0.39143 0.0
C3774 C 0.92828 0.6753 0.37596 0.0
C3775 C 0.91221 0.67878 0.38724 0.0
C3776 C 0.95018 0.69296 0.37248 0.0
C3777 C 0.95687 0.67667 0.35685 0.0
N3778 N 0.92377 0.68301 0.37996 0.0
N3779 N 0.9449 0.67273 0.3617 0.0
H3780 H 0.38037 0.00901 0.68098 0.0
H3781 H 0.44573 0.02797 0.72876 0.0
H3782 H 0.40276 0.04427 0.70882 0.0
H3783 H 0.41608 0.99008 0.72168 0.0
H3784 H 0.43217 0.0351 0.71555 0.0
H3785 H 0.39571 0.00307 0.68957 0.0
C3786 C 0.38861 0.01557 0.68869 0.0
C3787 C 0.3903 0.02714 0.69424 0.0
C3788 C 0.42874 0.02523 0.71676 0.0
C3789 C 0.40785 0.02037 0.70417 0.0
C3790 C 0.43644 0.02113 0.72437 0.0
C3791 C 0.43209 0.00836 0.72652 0.0
C3792 C 0.41667 0.01652 0.711 0.0
C3793 C 0.42002 0.99999 0.72009 0.0
C3794 C 0.39731 0.01214 0.69369 0.0
C3795 C 0.40107 0.03521 0.70444 0.0
N3796 N 0.41276 0.00422 0.71269 0.0
N3797 N 0.40946 0.03168 0.70909 0.0
H3798 H 0.95831 0.35866 0.68047 0.0
H3799 H 0.9993 0.4265 0.72405 0.0
H3800 H 0.99392 0.37107 0.70716 0.0
H3801 H 0.95917 0.40684 0.72428 0.0
H3802 H 0.99867 0.40822 0.71002 0.0
H3803 H 0.9598 0.3784 0.68898 0.0
C3804 C 0.96644 0.36548 0.68809 0.0
C3805 C 0.97593 0.36303 0.69327 0.0
C3806 C 0.99004 0.40803 0.71299 0.0
C3807 C 0.97782 0.38582 0.70245 0.0
C3808 C 0.99036 0.41843 0.72109 0.0
C3809 C 0.97927 0.41825 0.72568 0.0
C3810 C 0.97857 0.39744 0.70912 0.0
C3811 C 0.96799 0.40758 0.72089 0.0
C3812 C 0.96731 0.37678 0.69279 0.0
C3813 C 0.98641 0.37248 0.70262 0.0
N3814 N 0.96794 0.3976 0.71296 0.0
N3815 N 0.98706 0.38343 0.70694 0.0
H3816 H 0.64208 0.60196 0.71587 0.0
H3817 H 0.56975 0.57823 0.70269 0.0
H3818 H 0.62759 0.61721 0.67473 0.0
H3819 H 0.58447 0.5639 0.74498 0.0
H3820 H 0.59066 0.59086 0.68966 0.0
H3821 H 0.62085 0.58635 0.72433 0.0
C3822 C 0.63443 0.60201 0.70858 0.0
C3823 C 0.63663 0.61097 0.69467 0.0
C3824 C 0.58928 0.58483 0.70165 0.0
C3825 C 0.61228 0.59308 0.70421 0.0
C3826 C 0.57735 0.57764 0.70911 0.0
C3827 C 0.57535 0.57004 0.72504 0.0
C3828 C 0.5993 0.58449 0.71024 0.0
C3829 C 0.58552 0.56952 0.7326 0.0
C3830 C 0.62231 0.59305 0.71334 0.0
C3831 C 0.62635 0.61043 0.68544 0.0
N3832 N 0.59706 0.57673 0.72526 0.0
N3833 N 0.61464 0.60171 0.69048 0.0
H3834 H 0.66597 0.70707 0.66387 0.0
H3835 H 0.68453 0.77107 0.61517 0.0
H3836 H 0.70435 0.73487 0.65448 0.0
H3837 H 0.65007 0.74961 0.64569 0.0
H3838 H 0.69215 0.75814 0.62897 0.0
H3839 H 0.65997 0.72241 0.6565 0.0
C3840 C 0.6732 0.71643 0.66056 0.0
C3841 C 0.68574 0.71961 0.65987 0.0
C3842 C 0.68299 0.75638 0.63282 0.0
C3843 C 0.67878 0.73721 0.65081 0.0
C3844 C 0.67864 0.76382 0.62506 0.0
C3845 C 0.66654 0.76137 0.62906 0.0
C3846 C 0.67515 0.7463 0.64446 0.0
C3847 C 0.65932 0.75168 0.64178 0.0
C3848 C 0.66972 0.72519 0.65624 0.0
C3849 C 0.69456 0.73187 0.6549 0.0
N3850 N 0.66366 0.7444 0.64879 0.0
N3851 N 0.6909 0.74019 0.65038 0.0
H3852 H 0.29888 0.96778 0.629 0.0
H3853 H 0.23241 0.90649 0.64034 0.0
H3854 H 0.27186 0.96493 0.67026 0.0
H3855 H 0.26224 0.90924 0.60545 0.0
H3856 H 0.24608 0.92796 0.65094 0.0
H3857 H 0.28494 0.94641 0.61964 0.0
C3858 C 0.29004 0.96263 0.63623 0.0
C3859 C 0.28662 0.96816 0.65061 0.0
C3860 C 0.24961 0.9238 0.64106 0.0
C3861 C 0.27042 0.94358 0.63966 0.0
C3862 C 0.24182 0.91158 0.63497 0.0
C3863 C 0.24622 0.90601 0.62212 0.0
C3864 C 0.26182 0.93051 0.63407 0.0
C3865 C 0.2585 0.91303 0.61566 0.0
C3866 C 0.28203 0.95041 0.63079 0.0
C3867 C 0.27486 0.96107 0.65904 0.0
N3868 N 0.26582 0.92487 0.62165 0.0
N3869 N 0.26718 0.94913 0.65346 0.0
H3870 H 0.03122 0.29592 0.6428 0.0
H3871 H 0.10299 0.34822 0.64677 0.0
H3872 H 0.04541 0.329 0.67716 0.0
H3873 H 0.08795 0.31647 0.60931 0.0
H3874 H 0.08244 0.34009 0.6611 0.0
H3875 H 0.05242 0.30209 0.63339 0.0
C3876 C 0.0388 0.30447 0.64841 0.0
C3877 C 0.03652 0.31202 0.66064 0.0
C3878 C 0.08368 0.33485 0.64988 0.0
C3879 C 0.06085 0.31912 0.64999 0.0
C3880 C 0.0954 0.3395 0.64165 0.0
C3881 C 0.09721 0.33307 0.62672 0.0
C3882 C 0.07368 0.3237 0.64309 0.0
C3883 C 0.08707 0.32171 0.6209 0.0
C3884 C 0.05091 0.30796 0.6431 0.0
C3885 C 0.04673 0.32287 0.66778 0.0
N3886 N 0.07574 0.31746 0.62898 0.0
N3887 N 0.05844 0.32615 0.66222 0.0
H3888 H 0.26906 0.29824 0.67045 0.0
H3889 H 0.24818 0.3449 0.62978 0.0
H3890 H 0.29504 0.33412 0.64692 0.0
H3891 H 0.22483 0.30497 0.62884 0.0
H3892 H 0.26482 0.34239 0.64368 0.0
H3893 H 0.25212 0.30205 0.6628 0.0
C3894 C 0.27124 0.30692 0.66368 0.0
C3895 C 0.28354 0.31577 0.65903 0.0
C3896 C 0.25597 0.33423 0.64061 0.0
C3897 C 0.26415 0.32029 0.65076 0.0
C3898 C 0.24646 0.33562 0.63258 0.0
C3899 C 0.23503 0.32514 0.62784 0.0
C3900 C 0.25398 0.32228 0.64423 0.0
C3901 C 0.23334 0.31338 0.63239 0.0
C3902 C 0.26156 0.30911 0.65947 0.0
C3903 C 0.28576 0.32702 0.65087 0.0
N3904 N 0.24271 0.31228 0.64023 0.0
N3905 N 0.27615 0.32894 0.64691 0.0
H3906 H 0.70312 0.97119 0.65282 0.0
H3907 H 0.64871 0.90036 0.64666 0.0
H3908 H 0.66481 0.95915 0.6654 0.0
H3909 H 0.68342 0.91493 0.61628 0.0
H3910 H 0.6558 0.92101 0.65986 0.0
H3911 H 0.69727 0.94966 0.64576 0.0
C3912 C 0.6935 0.96398 0.65434 0.0
C3913 C 0.68441 0.96694 0.65954 0.0
C3914 C 0.66189 0.91962 0.65044 0.0
C3915 C 0.67767 0.94236 0.65151 0.0
C3916 C 0.65784 0.90785 0.64283 0.0
C3917 C 0.66539 0.90587 0.63009 0.0
C3918 C 0.67362 0.92949 0.64546 0.0
C3919 C 0.67728 0.91591 0.62612 0.0
C3920 C 0.69017 0.95173 0.65021 0.0
C3921 C 0.67207 0.95726 0.66117 0.0
N3922 N 0.68099 0.92728 0.63367 0.0
N3923 N 0.66905 0.9454 0.65713 0.0
H3924 H 0.02765 0.7159 0.6228 0.0
H3925 H 0.09603 0.76493 0.65517 0.0
H3926 H 0.03563 0.72973 0.68053 0.0
H3927 H 0.08325 0.76115 0.59714 0.0
H3928 H 0.07448 0.75114 0.66542 0.0
H3929 H 0.04855 0.7315 0.61363 0.0
C3930 C 0.03369 0.7223 0.63356 0.0
C3931 C 0.02972 0.72148 0.6525 0.0
C3932 C 0.07642 0.75348 0.65049 0.0
C3933 C 0.05396 0.73923 0.64206 0.0
C3934 C 0.08868 0.7613 0.64464 0.0
C3935 C 0.09141 0.76424 0.6253 0.0
C3936 C 0.06691 0.74839 0.63682 0.0
C3937 C 0.08156 0.75929 0.61222 0.0
C3938 C 0.0457 0.73118 0.62829 0.0
C3939 C 0.03826 0.72985 0.66582 0.0
N3940 N 0.06979 0.75153 0.6182 0.0
N3941 N 0.05 0.73833 0.66037 0.0
H3942 H 0.95873 0.60268 0.7138 0.0
H3943 H 0.00599 0.57681 0.70822 0.0
H3944 H 0.99223 0.61978 0.68012 0.0
H3945 H 0.97404 0.56192 0.74526 0.0
H3946 H 0.99991 0.59116 0.69495 0.0
H3947 H 0.96295 0.58618 0.72249 0.0
C3948 C 0.9669 0.6029 0.70803 0.0
C3949 C 0.97517 0.61268 0.69627 0.0
C3950 C 0.99417 0.58467 0.70586 0.0
C3951 C 0.98016 0.59385 0.7064 0.0
C3952 C 0.99765 0.57649 0.71348 0.0
C3953 C 0.99056 0.56817 0.72798 0.0
C3954 C 0.98353 0.58455 0.7128 0.0
C3955 C 0.97973 0.56805 0.73398 0.0
C3956 C 0.96935 0.5935 0.71311 0.0
C3957 C 0.98571 0.61253 0.68947 0.0
N3958 N 0.97661 0.57617 0.72648 0.0
N3959 N 0.98793 0.6033 0.69469 0.0
H3960 H 0.40629 0.36752 0.68329 0.0
H3961 H 0.42693 0.43402 0.72631 0.0
H3962 H 0.37982 0.37624 0.70839 0.0
H3963 H 0.44785 0.41535 0.73622 0.0
H3964 H 0.41095 0.41533 0.71048 0.0
H3965 H 0.42306 0.38772 0.69369 0.0
C3966 C 0.40393 0.3736 0.69095 0.0
C3967 C 0.39151 0.36994 0.6952 0.0
C3968 C 0.41916 0.41548 0.71597 0.0
C3969 C 0.41074 0.39333 0.70632 0.0
C3970 C 0.42827 0.4261 0.72515 0.0
C3971 C 0.43879 0.42633 0.73303 0.0
C3972 C 0.42069 0.40512 0.71417 0.0
C3973 C 0.44008 0.41582 0.7303 0.0
C3974 C 0.41353 0.38518 0.69669 0.0
C3975 C 0.38915 0.37856 0.70455 0.0
N3976 N 0.43114 0.40566 0.72115 0.0
N3977 N 0.39868 0.38984 0.70981 0.0
H3978 H 0.62998 0.02748 0.67025 0.0
H3979 H 0.58661 0.0165 0.76039 0.0
H3980 H 0.64031 0.02506 0.72817 0.0
H3981 H 0.57166 0.00473 0.70391 0.0
H3982 H 0.6074 0.02375 0.74787 0.0
H3983 H 0.60944 0.02262 0.68162 0.0
C3984 C 0.62798 0.02594 0.68532 0.0
C3985 C 0.63699 0.0267 0.69822 0.0
C3986 C 0.59959 0.01967 0.73818 0.0
C3987 C 0.61357 0.02144 0.7113 0.0
C3988 C 0.58773 0.01564 0.74527 0.0
C3989 C 0.57738 0.01001 0.73316 0.0
C3990 C 0.60118 0.01815 0.71879 0.0
C3991 C 0.57938 0.00894 0.71375 0.0
C3992 C 0.61627 0.02323 0.69178 0.0
C3993 C 0.63385 0.02484 0.71765 0.0
N3994 N 0.59107 0.01297 0.70713 0.0
N3995 N 0.62244 0.02232 0.72355 0.0
loop_
_geom_bond_atom_site_label_1
_geom_bond_atom_site_label_2
_geom_bond_distance
_geom_bond_site_symmetry_2
_ccdc_geom_bond_type
Li0 N17 1.990 . S
Li0 O60 1.956 . S
Li0 O61 1.970 1_654 S
Li0 O62 1.961 . S
Li1 N25 1.990 . S
Li1 O60 1.970 1_455 S
Li1 O61 1.956 1_554 S
Li1 O63 1.961 . S
Li2 N47 1.990 . S
Li2 O60 1.961 . S
Li2 O62 1.956 . S
Li2 O63 1.970 1_655 S
Li3 N53 1.990 . S
Li3 O61 1.961 . S
Li3 O62 1.970 1_456 S
Li3 O63 1.956 1_556 S
C4 C6 1.348 1_655 S
C4 C7 1.356 . S
C4 O60 1.325 . S
N5 C8 1.314 . S
N5 C9 1.279 . S
C6 C4 1.348 1_455 S
C6 C8 1.353 1_455 S
C6 H64 0.929 . S
C7 C4 1.356 . S
C7 C9 1.358 . S
C7 H65 0.930 . S
C8 N5 1.314 . S
C8 C6 1.353 1_655 S
C8 H66 0.930 1_655 S
C9 N5 1.279 . S
C9 C7 1.358 . S
C9 H67 0.930 . S
C10 C13 1.349 1_455 S
C10 C14 1.356 . S
C10 O61 1.325 . S
C11 N12 1.279 . S
C11 C14 1.358 . S
C11 H68 0.930 . S
N12 C11 1.279 . S
N12 C15 1.314 . S
C13 C10 1.349 1_655 S
C13 C15 1.325 1_655 S
C13 H69 0.960 . S
C14 C10 1.356 . S
C14 C11 1.358 . S
C14 H70 0.930 . S
C15 N12 1.314 . S
C15 C13 1.325 1_455 S
C15 H71 0.930 1_455 S
C16 N17 1.314 1_556 S
C16 C21 1.353 . S
C16 H22 0.930 . S
N17 Li0 1.990 . S
N17 C16 1.314 1_554 S
N17 C19 1.279 . S
C18 C19 1.358 . S
C18 C20 1.356 1_554 S
C18 H72 0.930 . S
C19 N17 1.279 . S
C19 C18 1.358 . S
C19 H23 0.930 . S
C20 C18 1.356 1_556 S
C20 C21 1.348 . S
C21 C16 1.353 . S
C21 C20 1.348 . S
C21 H73 0.929 . S
H22 C16 0.930 . S
H23 C19 0.930 . S
C24 N25 1.314 . S
C24 C26 1.353 . S
C24 H30 0.930 . S
N25 Li1 1.990 . S
N25 C24 1.314 . S
N25 C28 1.279 . S
C26 C24 1.353 . S
C26 C29 1.348 . S
C26 H74 0.929 . S
C27 C28 1.358 . S
C27 C29 1.356 . S
C27 H75 0.930 . S
C28 N25 1.279 . S
C28 C27 1.358 . S
C28 H31 0.930 1_554 S
C29 C26 1.348 . S
C29 C27 1.356 . S
H30 C24 0.930 . S
H31 C28 0.930 1_556 S
C32 C34 1.348 1_554 S
C32 C35 1.356 . S
C32 O62 1.325 . S
N33 C36 1.314 . S
N33 C37 1.279 1_556 S
C34 C32 1.348 1_556 S
C34 C36 1.353 . S
C34 H76 0.929 . S
C35 C32 1.356 . S
C35 C37 1.358 . S
C35 H77 0.930 . S
C36 N33 1.314 . S
C36 C34 1.353 . S
C36 H78 0.930 . S
C37 N33 1.279 1_554 S
C37 C35 1.358 . S
C37 H79 0.930 . S
C38 C39 1.348 . S
C38 C40 1.356 . S
C38 O63 1.325 . S
C39 C38 1.348 . S
C39 C41 1.353 . S
C39 H80 0.929 . S
C40 C38 1.356 . S
C40 C42 1.358 . S
C40 H81 0.930 . S
C41 C39 1.353 . S
C41 N43 1.314 . S
C41 H82 0.930 . S
C42 C40 1.358 . S
C42 N43 1.279 . S
C42 H83 0.930 . S
N43 C41 1.314 . S
N43 C42 1.279 . S
C44 C46 1.353 . S
C44 N47 1.314 . S
C44 H50 0.930 1_655 S
C45 N47 1.279 . S
C45 C48 1.358 . S
C45 H51 0.930 . S
C46 C44 1.353 . S
C46 C49 1.348 . S
C46 H84 0.931 1_655 S
N47 Li2 1.990 . S
N47 C44 1.314 . S
N47 C45 1.279 . S
C48 C45 1.358 . S
C48 C49 1.356 . S
C48 H85 0.930 . S
C49 C46 1.348 . S
C49 C48 1.356 . S
H50 C44 0.930 1_455 S
H51 C45 0.930 . S
C52 N53 1.314 . S
C52 C54 1.353 . S
C52 H58 0.930 1_455 S
N53 Li3 1.990 . S
N53 C52 1.314 . S
N53 C56 1.279 . S
C54 C52 1.353 . S
C54 C57 1.348 . S
C54 H86 0.948 . S
C55 C56 1.358 . S
C55 C57 1.356 . S
C55 H87 0.930 . S
C56 N53 1.279 . S
C56 C55 1.358 . S
C56 H59 0.930 . S
C57 C54 1.348 . S
C57 C55 1.356 . S
H58 C52 0.930 1_655 S
H59 C56 0.930 . S
O60 Li0 1.956 . S
O60 Li1 1.970 1_655 S
O60 Li2 1.961 . S
O60 C4 1.325 . S
O61 Li0 1.970 1_456 S
O61 Li1 1.956 1_556 S
O61 Li3 1.961 . S
O61 C10 1.325 . S
O62 Li0 1.961 . S
O62 Li2 1.956 . S
O62 Li3 1.970 1_654 S
O62 C32 1.325 . S
O63 Li1 1.961 . S
O63 Li2 1.970 1_455 S
O63 Li3 1.956 1_554 S
O63 C38 1.325 . S
H64 C6 0.929 . S
H65 C7 0.930 . S
H66 C8 0.930 1_455 S
H67 C9 0.930 . S
H68 C11 0.930 . S
H69 C13 0.960 . S
H70 C14 0.930 . S
H71 C15 0.930 1_655 S
H72 C18 0.930 . S
H73 C21 0.929 . S
H74 C26 0.929 . S
H75 C27 0.930 . S
H76 C34 0.929 . S
H77 C35 0.930 . S
H78 C36 0.930 . S
H79 C37 0.930 . S
H80 C39 0.929 . S
H81 C40 0.930 . S
H82 C41 0.930 . S
H83 C42 0.930 . S
H84 C46 0.931 1_455 S
H85 C48 0.930 . S
H86 C54 0.948 . S
H87 C55 0.930 . S
Li88 N105 1.990 . S
Li88 O148 1.956 . S
Li88 O149 1.970 1_554 S
Li88 O150 1.961 . S
Li89 N113 1.990 . S
Li89 O148 1.970 . S
Li89 O149 1.956 1_554 S
Li89 O151 1.961 . S
Li90 N135 1.990 . S
Li90 O148 1.961 . S
Li90 O150 1.956 . S
Li90 O151 1.970 . S
Li91 N141 1.990 . S
Li91 O149 1.961 . S
Li91 O150 1.970 1_556 S
Li91 O151 1.956 1_556 S
C92 C94 1.348 . S
C92 C95 1.356 . S
C92 O148 1.325 . S
N93 C96 1.314 . S
N93 C97 1.279 . S
C94 C92 1.348 . S
C94 C96 1.353 . S
C94 H152 0.929 . S
C95 C92 1.356 . S
C95 C97 1.358 . S
C95 H153 0.930 . S
C96 N93 1.314 . S
C96 C94 1.353 . S
C96 H154 0.930 . S
C97 N93 1.279 . S
C97 C95 1.358 . S
C97 H155 0.930 . S
C98 C101 1.348 . S
C98 C102 1.356 . S
C98 O149 1.325 . S
C99 N100 1.279 . S
C99 C102 1.358 . S
C99 H156 0.930 . S
N100 C99 1.279 . S
N100 C103 1.314 . S
C101 C98 1.348 . S
C101 C103 1.353 . S
C101 H157 0.929 . S
C102 C98 1.356 . S
C102 C99 1.358 . S
C102 H158 0.930 . S
C103 N100 1.314 . S
C103 C101 1.353 . S
C103 H159 0.930 . S
C104 N105 1.314 1_556 S
C104 C109 1.353 . S
C104 H110 0.930 . S
N105 Li88 1.990 . S
N105 C104 1.314 1_554 S
N105 C107 1.279 . S
C106 C107 1.358 . S
C106 C108 1.356 1_554 S
C106 H160 0.930 . S
C107 N105 1.279 . S
C107 C106 1.358 . S
C107 H111 0.930 . S
C108 C106 1.356 1_556 S
C108 C109 1.348 . S
C109 C104 1.353 . S
C109 C108 1.348 . S
C109 H161 0.929 . S
H110 C104 0.930 . S
H111 C107 0.930 . S
C112 N113 1.314 . S
C112 C114 1.353 . S
C112 H118 0.930 . S
N113 Li89 1.990 . S
N113 C112 1.314 . S
N113 C116 1.279 . S
C114 C112 1.353 . S
C114 C117 1.348 . S
C114 H162 0.929 . S
C115 C116 1.358 . S
C115 C117 1.356 . S
C115 H163 0.930 . S
C116 N113 1.279 . S
C116 C115 1.358 . S
C116 H119 0.934 . S
C117 C114 1.348 . S
C117 C115 1.356 . S
H118 C112 0.930 . S
H119 C116 0.934 . S
C120 C122 1.348 1_554 S
C120 C123 1.356 . S
C120 O150 1.325 . S
N121 C124 1.314 . S
N121 C125 1.279 1_556 S
C122 C120 1.348 1_556 S
C122 C124 1.353 . S
C122 H164 0.929 . S
C123 C120 1.356 . S
C123 C125 1.358 . S
C123 H165 0.930 . S
C124 N121 1.314 . S
C124 C122 1.353 . S
C124 H166 0.930 . S
C125 N121 1.279 1_554 S
C125 C123 1.358 . S
C125 H167 0.930 . S
C126 C127 1.348 . S
C126 C128 1.356 . S
C126 O151 1.325 . S
C127 C126 1.348 . S
C127 C129 1.353 . S
C127 H168 0.929 . S
C128 C126 1.356 . S
C128 C130 1.358 . S
C128 H169 0.930 . S
C129 C127 1.353 . S
C129 N131 1.314 . S
C129 H170 0.930 . S
C130 C128 1.358 . S
C130 N131 1.279 . S
C130 H171 0.930 . S
N131 C129 1.314 . S
N131 C130 1.279 . S
C132 C134 1.353 . S
C132 N135 1.314 . S
C132 H138 0.930 . S
C133 N135 1.279 . S
C133 C136 1.358 . S
C133 H139 0.930 . S
C134 C132 1.353 . S
C134 C137 1.348 . S
C134 H172 0.929 . S
N135 Li90 1.990 . S
N135 C132 1.314 . S
N135 C133 1.279 . S
C136 C133 1.358 . S
C136 C137 1.356 . S
C136 H173 0.930 . S
C137 C134 1.348 . S
C137 C136 1.356 . S
H138 C132 0.930 . S
H139 C133 0.930 . S
C140 N141 1.314 . S
C140 C142 1.353 . S
C140 H146 0.930 . S
N141 Li91 1.990 . S
N141 C140 1.314 . S
N141 C144 1.279 . S
C142 C140 1.353 . S
C142 C145 1.348 . S
C142 H174 0.929 . S
C143 C144 1.358 . S
C143 C145 1.356 . S
C143 H175 0.930 . S
C144 N141 1.279 . S
C144 C143 1.358 . S
C144 H147 0.930 . S
C145 C142 1.348 . S
C145 C143 1.356 . S
H146 C140 0.930 . S
H147 C144 0.930 . S
O148 Li88 1.956 . S
O148 Li89 1.970 . S
O148 Li90 1.961 . S
O148 C92 1.325 . S
O149 Li88 1.970 1_556 S
O149 Li89 1.956 1_556 S
O149 Li91 1.961 . S
O149 C98 1.325 . S
O150 Li88 1.961 . S
O150 Li90 1.956 . S
O150 Li91 1.970 1_554 S
O150 C120 1.325 . S
O151 Li89 1.961 . S
O151 Li90 1.970 . S
O151 Li91 1.956 1_554 S
O151 C126 1.325 . S
H152 C94 0.929 . S
H153 C95 0.930 . S
H154 C96 0.930 . S
H155 C97 0.930 . S
H156 C99 0.930 . S
H157 C101 0.929 . S
H158 C102 0.930 . S
H159 C103 0.930 . S
H160 C106 0.930 . S
H161 C109 0.929 . S
H162 C114 0.929 . S
H163 C115 0.930 . S
H164 C122 0.929 . S
H165 C123 0.930 . S
H166 C124 0.930 . S
H167 C125 0.930 . S
H168 C127 0.929 . S
H169 C128 0.930 . S
H170 C129 0.930 . S
H171 C130 0.930 . S
H172 C134 0.929 . S
H173 C136 0.930 . S
H174 C142 0.929 . S
H175 C143 0.930 . S
Li176 N193 1.990 . S
Li176 O236 1.956 1_556 S
Li176 O237 1.970 1_566 S
Li176 O238 1.961 . S
Li177 N201 1.990 . S
Li177 O236 1.970 1_545 S
Li177 O237 1.956 . S
Li177 O239 1.961 . S
Li178 N223 1.990 . S
Li178 O236 1.961 . S
Li178 O238 1.956 1_554 S
Li178 O239 1.970 1_565 S
Li179 N229 1.990 . S
Li179 O237 1.961 . S
Li179 O238 1.970 1_544 S
Li179 O239 1.956 . S
C180 C182 1.348 . S
C180 C183 1.356 . S
C180 O236 1.325 . S
N181 C184 1.314 . S
N181 C185 1.279 . S
C182 C180 1.348 . S
C182 C184 1.353 . S
C182 H240 0.929 . S
C183 C180 1.356 . S
C183 C185 1.358 . S
C183 H241 0.930 . S
C184 N181 1.314 . S
C184 C182 1.353 . S
C184 H242 0.930 . S
C185 N181 1.279 . S
C185 C183 1.358 . S
C185 H243 0.930 . S
C186 C189 1.348 1_554 S
C186 C190 1.356 . S
C186 O237 1.325 . S
C187 N188 1.279 1_554 S
C187 C190 1.358 . S
C187 H244 0.930 . S
N188 C187 1.279 1_556 S
N188 C191 1.314 . S
C189 C186 1.348 1_556 S
C189 C191 1.353 . S
C189 H245 0.929 . S
C190 C186 1.356 . S
C190 C187 1.358 . S
C190 H246 0.930 . S
C191 N188 1.314 . S
C191 C189 1.353 . S
C191 H247 0.930 . S
C192 N193 1.314 . S
C192 C197 1.353 . S
C192 H198 0.930 1_565 S
N193 Li176 1.990 . S
N193 C192 1.314 . S
N193 C195 1.279 . S
C194 C195 1.358 . S
C194 C196 1.356 . S
C194 H248 0.930 . S
C195 N193 1.279 . S
C195 C194 1.358 . S
C195 H199 0.930 . S
C196 C194 1.356 . S
C196 C197 1.348 . S
C197 C192 1.353 . S
C197 C196 1.348 . S
C197 H249 0.929 1_565 S
H198 C192 0.930 1_545 S
H199 C195 0.930 . S
C200 N201 1.314 . S
C200 C202 1.353 . S
C200 H206 0.930 1_545 S
N201 Li177 1.990 . S
N201 C200 1.314 . S
N201 C204 1.279 . S
C202 C200 1.353 . S
C202 C205 1.348 . S
C202 H250 0.949 . S
C203 C204 1.358 . S
C203 C205 1.356 . S
C203 H251 0.930 . S
C204 N201 1.279 . S
C204 C203 1.358 . S
C204 H207 0.930 . S
C205 C202 1.348 . S
C205 C203 1.356 . S
H206 C200 0.930 1_565 S
H207 C204 0.930 . S
C208 C210 1.348 1_565 S
C208 C211 1.356 . S
C208 O238 1.325 . S
N209 C212 1.314 . S
N209 C213 1.279 . S
C210 C208 1.348 1_545 S
C210 C212 1.353 1_545 S
C210 H252 0.929 . S
C211 C208 1.356 . S
C211 C213 1.358 . S
C211 H253 0.930 . S
C212 N209 1.314 . S
C212 C210 1.353 1_565 S
C212 H254 0.930 1_565 S
C213 N209 1.279 . S
C213 C211 1.358 . S
C213 H255 0.930 . S
C214 C215 1.348 1_545 S
C214 C216 1.356 . S
C214 O239 1.325 . S
C215 C214 1.348 1_565 S
C215 C217 1.327 1_565 S
C215 H256 0.958 . S
C216 C214 1.356 . S
C216 C218 1.358 . S
C216 H257 0.930 . S
C217 C215 1.327 1_545 S
C217 N219 1.314 . S
C217 H258 0.930 1_545 S
C218 C216 1.358 . S
C218 N219 1.279 . S
C218 H259 0.930 . S
N219 C217 1.314 . S
N219 C218 1.279 . S
C220 C222 1.353 . S
C220 N223 1.314 . S
C220 H226 0.930 . S
C221 N223 1.279 . S
C221 C224 1.358 . S
C221 H227 0.930 1_554 S
C222 C220 1.353 . S
C222 C225 1.348 . S
C222 H260 0.929 . S
N223 Li178 1.990 . S
N223 C220 1.314 . S
N223 C221 1.279 . S
C224 C221 1.358 . S
C224 C225 1.356 . S
C224 H261 0.930 . S
C225 C222 1.348 . S
C225 C224 1.356 . S
H226 C220 0.930 . S
H227 C221 0.930 1_556 S
C228 N229 1.314 1_556 S
C228 C230 1.353 . S
C228 H234 0.930 . S
N229 Li179 1.990 . S
N229 C228 1.314 1_554 S
N229 C232 1.279 . S
C230 C228 1.353 . S
C230 C233 1.348 . S
C230 H262 0.929 . S
C231 C232 1.358 . S
C231 C233 1.356 1_554 S
C231 H263 0.930 . S
C232 N229 1.279 . S
C232 C231 1.358 . S
C232 H235 0.930 . S
C233 C230 1.348 . S
C233 C231 1.356 1_556 S
H234 C228 0.930 . S
H235 C232 0.930 . S
O236 Li176 1.956 1_554 S
O236 Li177 1.970 1_565 S
O236 Li178 1.961 . S
O236 C180 1.325 . S
O237 Li176 1.970 1_544 S
O237 Li177 1.956 . S
O237 Li179 1.961 . S
O237 C186 1.325 . S
O238 Li176 1.961 . S
O238 Li178 1.956 1_556 S
O238 Li179 1.970 1_566 S
O238 C208 1.325 . S
O239 Li177 1.961 . S
O239 Li178 1.970 1_545 S
O239 Li179 1.956 . S
O239 C214 1.325 . S
H240 C182 0.929 . S
H241 C183 0.930 . S
H242 C184 0.930 . S
H243 C185 0.930 . S
H244 C187 0.930 . S
H245 C189 0.929 . S
H246 C190 0.930 . S
H247 C191 0.930 . S
H248 C194 0.930 . S
H249 C197 0.929 1_545 S
H250 C202 0.949 . S
H251 C203 0.930 . S
H252 C210 0.929 . S
H253 C211 0.930 . S
H254 C212 0.930 1_545 S
H255 C213 0.930 . S
H256 C215 0.958 . S
H257 C216 0.930 . S
H258 C217 0.930 1_565 S
H259 C218 0.930 . S
H260 C222 0.929 . S
H261 C224 0.930 . S
H262 C230 0.929 . S
H263 C231 0.930 . S
Li264 N281 1.990 . S
Li264 O324 1.956 . S
Li264 O325 1.970 1_455 S
Li264 O326 1.961 1_554 S
Li265 N289 1.990 . S
Li265 O324 1.970 1_655 S
Li265 O325 1.956 . S
Li265 O327 1.961 . S
Li266 N311 1.990 . S
Li266 O324 1.961 1_556 S
Li266 O326 1.956 . S
Li266 O327 1.970 1_456 S
Li267 N317 1.990 . S
Li267 O325 1.961 . S
Li267 O326 1.970 1_654 S
Li267 O327 1.956 . S
C268 C270 1.348 . S
C268 C271 1.356 . S
C268 O324 1.325 . S
N269 C272 1.314 . S
N269 C273 1.279 . S
C270 C268 1.348 . S
C270 C272 1.353 . S
C270 H328 0.929 . S
C271 C268 1.356 . S
C271 C273 1.358 . S
C271 H329 0.930 1_554 S
C272 N269 1.314 . S
C272 C270 1.353 . S
C272 H330 0.930 . S
C273 N269 1.279 . S
C273 C271 1.358 . S
C273 H331 0.913 1_554 S
C274 C277 1.348 1_655 S
C274 C278 1.356 . S
C274 O325 1.325 . S
C275 N276 1.279 . S
C275 C278 1.358 . S
C275 H332 0.930 . S
N276 C275 1.279 . S
N276 C279 1.251 1_655 S
C277 C274 1.348 1_455 S
C277 C279 1.391 . S
C277 H333 0.929 . S
C278 C274 1.356 . S
C278 C275 1.358 . S
C278 H334 0.930 . S
C279 N276 1.251 1_455 S
C279 C277 1.391 . S
C279 H335 0.963 . S
C280 N281 1.314 . S
C280 C285 1.353 . S
C280 H286 0.930 . S
N281 Li264 1.990 . S
N281 C280 1.314 . S
N281 C283 1.279 . S
C282 C283 1.358 . S
C282 C284 1.356 . S
C282 H336 0.930 . S
C283 N281 1.279 . S
C283 C282 1.358 . S
C283 H287 0.930 . S
C284 C282 1.356 . S
C284 C285 1.348 . S
C285 C280 1.353 . S
C285 C284 1.348 . S
C285 H337 0.929 . S
H286 C280 0.930 . S
H287 C283 0.930 . S
C288 N289 1.314 . S
C288 C290 1.353 . S
C288 H294 0.930 . S
N289 Li265 1.990 . S
N289 C288 1.314 . S
N289 C292 1.279 . S
C290 C288 1.353 . S
C290 C293 1.348 . S
C290 H338 0.929 . S
C291 C292 1.358 . S
C291 C293 1.356 . S
C291 H339 0.930 . S
C292 N289 1.279 . S
C292 C291 1.358 . S
C292 H295 0.930 . S
C293 C290 1.348 . S
C293 C291 1.356 . S
H294 C288 0.930 . S
H295 C292 0.930 . S
C296 C298 1.348 1_455 S
C296 C299 1.356 . S
C296 O326 1.325 . S
N297 C300 1.265 1_455 S
N297 C301 1.279 . S
C298 C296 1.348 1_655 S
C298 C300 1.351 . S
C298 H340 0.929 . S
C299 C296 1.356 . S
C299 C301 1.358 . S
C299 H341 0.930 . S
C300 N297 1.265 1_655 S
C300 C298 1.351 . S
C300 H342 0.991 . S
C301 N297 1.279 . S
C301 C299 1.358 . S
C301 H343 0.930 . S
C302 C303 1.348 1_554 S
C302 C304 1.356 . S
C302 O327 1.325 . S
C303 C302 1.348 1_556 S
C303 C305 1.353 . S
C303 H344 0.929 . S
C304 C302 1.356 . S
C304 C306 1.358 . S
C304 H345 0.930 . S
C305 C303 1.353 . S
C305 N307 1.314 . S
C305 H346 0.930 . S
C306 C304 1.358 . S
C306 N307 1.279 1_554 S
C306 H347 0.930 . S
N307 C305 1.314 . S
N307 C306 1.279 1_556 S
C308 C310 1.353 . S
C308 N311 1.314 . S
C308 H314 0.930 . S
C309 N311 1.279 . S
C309 C312 1.358 . S
C309 H315 0.930 . S
C310 C308 1.353 . S
C310 C313 1.348 . S
C310 H348 0.929 . S
N311 Li266 1.990 . S
N311 C308 1.314 . S
N311 C309 1.279 . S
C312 C309 1.358 . S
C312 C313 1.356 . S
C312 H349 0.930 . S
C313 C310 1.348 . S
C313 C312 1.356 . S
H314 C308 0.930 . S
H315 C309 0.930 . S
C316 N317 1.314 . S
C316 C318 1.353 . S
C316 H322 0.930 . S
N317 Li267 1.990 . S
N317 C316 1.314 . S
N317 C320 1.279 1_554 S
C318 C316 1.353 . S
C318 C321 1.348 1_554 S
C318 H350 0.929 . S
C319 C320 1.358 . S
C319 C321 1.356 . S
C319 H351 0.930 . S
C320 N317 1.279 1_556 S
C320 C319 1.358 . S
C320 H323 0.930 . S
C321 C318 1.348 1_556 S
C321 C319 1.356 . S
H322 C316 0.930 . S
H323 C320 0.930 . S
O324 Li264 1.956 . S
O324 Li265 1.970 1_455 S
O324 Li266 1.961 1_554 S
O324 C268 1.325 . S
O325 Li264 1.970 1_655 S
O325 Li265 1.956 . S
O325 Li267 1.961 . S
O325 C274 1.325 . S
O326 Li264 1.961 1_556 S
O326 Li266 1.956 . S
O326 Li267 1.970 1_456 S
O326 C296 1.325 . S
O327 Li265 1.961 . S
O327 Li266 1.970 1_654 S
O327 Li267 1.956 . S
O327 C302 1.325 . S
H328 C270 0.929 . S
H329 C271 0.930 1_556 S
H330 C272 0.930 . S
H331 C273 0.913 1_556 S
H332 C275 0.930 . S
H333 C277 0.929 . S
H334 C278 0.930 . S
H335 C279 0.963 . S
H336 C282 0.930 . S
H337 C285 0.929 . S
H338 C290 0.929 . S
H339 C291 0.930 . S
H340 C298 0.929 . S
H341 C299 0.930 . S
H342 C300 0.991 . S
H343 C301 0.930 . S
H344 C303 0.929 . S
H345 C304 0.930 . S
H346 C305 0.930 . S
H347 C306 0.930 . S
H348 C310 0.929 . S
H349 C312 0.930 . S
H350 C318 0.929 . S
H351 C319 0.930 . S
Li352 N369 1.990 . S
Li352 O412 1.956 . S
Li352 O413 1.970 . S
Li352 O414 1.961 1_554 S
Li353 N377 1.990 . S
Li353 O412 1.970 . S
Li353 O413 1.956 . S
Li353 O415 1.961 . S
Li354 N399 1.990 . S
Li354 O412 1.961 1_556 S
Li354 O414 1.956 . S
Li354 O415 1.970 1_556 S
Li355 N405 1.999 . S
Li355 O413 1.961 . S
Li355 O414 1.970 1_554 S
Li355 O415 1.956 . S
C356 C358 1.348 . S
C356 C359 1.356 . S
C356 O412 1.325 . S
N357 C360 1.314 . S
N357 C361 1.279 . S
C358 C356 1.348 . S
C358 C360 1.353 . S
C358 H416 0.929 . S
C359 C356 1.356 . S
C359 C361 1.358 . S
C359 H417 0.930 1_554 S
C360 N357 1.314 . S
C360 C358 1.353 . S
C360 H418 0.930 . S
C361 N357 1.279 . S
C361 C359 1.358 . S
C361 H419 0.930 . S
C362 C365 1.348 . S
C362 C366 1.356 . S
C362 O413 1.325 . S
C363 N364 1.279 . S
C363 C366 1.358 . S
C363 H420 0.930 . S
N364 C363 1.279 . S
N364 C367 1.314 . S
C365 C362 1.348 . S
C365 C367 1.353 . S
C365 H421 0.929 . S
C366 C362 1.356 . S
C366 C363 1.358 . S
C366 H422 0.930 . S
C367 N364 1.314 . S
C367 C365 1.353 . S
C367 H423 0.930 . S
C368 N369 1.314 . S
C368 C373 1.353 . S
C368 H374 0.930 . S
N369 Li352 1.990 . S
N369 C368 1.314 . S
N369 C371 1.279 . S
C370 C371 1.358 . S
C370 C372 1.356 . S
C370 H424 0.930 . S
C371 N369 1.279 . S
C371 C370 1.358 . S
C371 H375 0.930 . S
C372 C370 1.356 . S
C372 C373 1.348 . S
C373 C368 1.353 . S
C373 C372 1.348 . S
C373 H425 0.929 . S
H374 C368 0.930 . S
H375 C371 0.930 . S
C376 N377 1.314 . S
C376 C378 1.353 . S
C376 H382 0.930 . S
N377 Li353 1.990 . S
N377 C376 1.314 . S
N377 C380 1.279 . S
C378 C376 1.353 . S
C378 C381 1.348 . S
C378 H426 0.929 . S
C379 C380 1.358 . S
C379 C381 1.356 . S
C379 H427 0.930 . S
C380 N377 1.279 . S
C380 C379 1.358 . S
C380 H383 0.930 . S
C381 C378 1.348 . S
C381 C379 1.356 . S
H382 C376 0.930 . S
H383 C380 0.930 . S
C384 C386 1.348 . S
C384 C387 1.356 . S
C384 O414 1.325 . S
N385 C388 1.314 . S
N385 C389 1.279 . S
C386 C384 1.348 . S
C386 C388 1.353 . S
C386 H428 0.929 . S
C387 C384 1.356 . S
C387 C389 1.358 . S
C387 H429 0.930 . S
C388 N385 1.314 . S
C388 C386 1.353 . S
C388 H430 0.930 . S
C389 N385 1.279 . S
C389 C387 1.358 . S
C389 H431 0.930 . S
C390 C391 1.348 1_554 S
C390 C392 1.356 . S
C390 O415 1.325 . S
C391 C390 1.348 1_556 S
C391 C393 1.353 . S
C391 H432 0.929 . S
C392 C390 1.356 . S
C392 C394 1.358 . S
C392 H433 0.930 . S
C393 C391 1.353 . S
C393 N395 1.314 . S
C393 H434 0.930 . S
C394 C392 1.358 . S
C394 N395 1.279 1_554 S
C394 H435 0.930 . S
N395 C393 1.314 . S
N395 C394 1.279 1_556 S
C396 C398 1.353 . S
C396 N399 1.314 . S
C396 H402 0.930 . S
C397 N399 1.279 . S
C397 C400 1.358 . S
C397 H403 0.930 . S
C398 C396 1.353 . S
C398 C401 1.348 . S
C398 H436 0.929 . S
N399 Li354 1.990 . S
N399 C396 1.314 . S
N399 C397 1.279 . S
C400 C397 1.358 . S
C400 C401 1.356 . S
C400 H437 0.930 . S
C401 C398 1.348 . S
C401 C400 1.356 . S
H402 C396 0.930 . S
H403 C397 0.930 . S
C404 N405 1.325 . S
C404 C406 1.365 . S
C404 H410 0.930 . S
N405 Li355 1.999 . S
N405 C404 1.325 . S
N405 C408 1.259 1_554 S
C406 C404 1.365 . S
C406 C409 1.321 1_554 S
C406 H438 0.947 . S
C407 C408 1.358 . S
C407 C409 1.356 . S
C407 H439 0.930 . S
C408 N405 1.259 1_556 S
C408 C407 1.358 . S
C408 H411 0.930 . S
C409 C406 1.321 1_556 S
C409 C407 1.356 . S
H410 C404 0.930 . S
H411 C408 0.930 . S
O412 Li352 1.956 . S
O412 Li353 1.970 . S
O412 Li354 1.961 1_554 S
O412 C356 1.325 . S
O413 Li352 1.970 . S
O413 Li353 1.956 . S
O413 Li355 1.961 . S
O413 C362 1.325 . S
O414 Li352 1.961 1_556 S
O414 Li354 1.956 . S
O414 Li355 1.970 1_556 S
O414 C384 1.325 . S
O415 Li353 1.961 . S
O415 Li354 1.970 1_554 S
O415 Li355 1.956 . S
O415 C390 1.325 . S
H416 C358 0.929 . S
H417 C359 0.930 1_556 S
H418 C360 0.930 . S
H419 C361 0.930 . S
H420 C363 0.930 . S
H421 C365 0.929 . S
H422 C366 0.930 . S
H423 C367 0.930 . S
H424 C370 0.930 . S
H425 C373 0.929 . S
H426 C378 0.929 . S
H427 C379 0.930 . S
H428 C386 0.929 . S
H429 C387 0.930 . S
H430 C388 0.930 . S
H431 C389 0.930 . S
H432 C391 0.929 . S
H433 C392 0.930 . S
H434 C393 0.930 . S
H435 C394 0.930 . S
H436 C398 0.929 . S
H437 C400 0.930 . S
H438 C406 0.947 . S
H439 C407 0.930 . S
Li440 N457 1.990 . S
Li440 O500 1.956 . S
Li440 O501 1.970 1_565 S
Li440 O502 1.961 1_554 S
Li441 N465 1.990 . S
Li441 O500 1.970 1_545 S
Li441 O501 1.956 . S
Li441 O503 1.961 . S
Li442 N487 1.990 . S
Li442 O500 1.961 1_556 S
Li442 O502 1.956 . S
Li442 O503 1.970 1_566 S
Li443 N493 1.990 . S
Li443 O501 1.961 . S
Li443 O502 1.970 1_544 S
Li443 O503 1.956 . S
C444 C446 1.348 . S
C444 C447 1.356 . S
C444 O500 1.325 . S
N445 C448 1.314 . S
N445 C449 1.279 . S
C446 C444 1.348 . S
C446 C448 1.353 . S
C446 H504 0.929 . S
C447 C444 1.356 . S
C447 C449 1.358 . S
C447 H505 0.930 1_554 S
C448 N445 1.314 . S
C448 C446 1.353 . S
C448 H506 0.930 . S
C449 N445 1.279 . S
C449 C447 1.358 . S
C449 H507 0.952 . S
C450 C453 1.348 1_545 S
C450 C454 1.356 . S
C450 O501 1.325 . S
C451 N452 1.279 . S
C451 C454 1.358 . S
C451 H508 0.930 . S
N452 C451 1.279 . S
N452 C455 1.265 1_545 S
C453 C450 1.348 1_565 S
C453 C455 1.351 . S
C453 H509 0.929 . S
C454 C450 1.356 . S
C454 C451 1.358 . S
C454 H510 0.930 . S
C455 N452 1.265 1_565 S
C455 C453 1.351 . S
C455 H511 0.991 . S
C456 N457 1.314 . S
C456 C461 1.353 . S
C456 H462 0.930 . S
N457 Li440 1.990 . S
N457 C456 1.314 . S
N457 C459 1.279 . S
C458 C459 1.358 . S
C458 C460 1.356 . S
C458 H512 0.930 . S
C459 N457 1.279 . S
C459 C458 1.358 . S
C459 H463 0.930 . S
C460 C458 1.356 . S
C460 C461 1.348 . S
C461 C456 1.353 . S
C461 C460 1.348 . S
C461 H513 0.929 . S
H462 C456 0.930 . S
H463 C459 0.930 . S
C464 N465 1.314 . S
C464 C466 1.353 . S
C464 H470 0.930 . S
N465 Li441 1.990 . S
N465 C464 1.314 . S
N465 C468 1.279 . S
C466 C464 1.353 . S
C466 C469 1.348 . S
C466 H514 0.929 . S
C467 C468 1.358 . S
C467 C469 1.356 . S
C467 H515 0.930 . S
C468 N465 1.279 . S
C468 C467 1.358 . S
C468 H471 0.930 . S
C469 C466 1.348 . S
C469 C467 1.356 . S
H470 C464 0.930 . S
H471 C468 0.930 . S
C472 C474 1.348 1_565 S
C472 C475 1.356 . S
C472 O502 1.325 . S
N473 C476 1.250 1_565 S
N473 C477 1.279 . S
C474 C472 1.348 1_545 S
C474 C476 1.391 . S
C474 H516 0.929 . S
C475 C472 1.356 . S
C475 C477 1.358 . S
C475 H517 0.930 . S
C476 N473 1.250 1_545 S
C476 C474 1.391 . S
C476 H518 0.963 . S
C477 N473 1.279 . S
C477 C475 1.358 . S
C477 H519 0.930 . S
C478 C479 1.348 1_554 S
C478 C480 1.356 . S
C478 O503 1.325 . S
C479 C478 1.348 1_556 S
C479 C481 1.353 . S
C479 H520 0.929 . S
C480 C478 1.356 . S
C480 C482 1.358 . S
C480 H521 0.930 . S
C481 C479 1.353 . S
C481 N483 1.314 . S
C481 H522 0.930 . S
C482 C480 1.358 . S
C482 N483 1.279 1_554 S
C482 H523 0.930 . S
N483 C481 1.314 . S
N483 C482 1.279 1_556 S
C484 C486 1.353 . S
C484 N487 1.314 . S
C484 H490 0.930 . S
C485 N487 1.279 . S
C485 C488 1.358 . S
C485 H491 0.930 . S
C486 C484 1.353 . S
C486 C489 1.348 . S
C486 H524 0.929 . S
N487 Li442 1.990 . S
N487 C484 1.314 . S
N487 C485 1.279 . S
C488 C485 1.358 . S
C488 C489 1.356 . S
C488 H525 0.930 . S
C489 C486 1.348 . S
C489 C488 1.356 . S
H490 C484 0.930 . S
H491 C485 0.930 . S
C492 N493 1.314 . S
C492 C494 1.353 . S
C492 H498 0.930 . S
N493 Li443 1.990 . S
N493 C492 1.314 . S
N493 C496 1.279 1_554 S
C494 C492 1.353 . S
C494 C497 1.348 1_554 S
C494 H526 0.929 . S
C495 C496 1.358 . S
C495 C497 1.356 . S
C495 H527 0.930 . S
C496 N493 1.279 1_556 S
C496 C495 1.358 . S
C496 H499 0.930 . S
C497 C494 1.348 1_556 S
C497 C495 1.356 . S
H498 C492 0.930 . S
H499 C496 0.930 . S
O500 Li440 1.956 . S
O500 Li441 1.970 1_565 S
O500 Li442 1.961 1_554 S
O500 C444 1.325 . S
O501 Li440 1.970 1_545 S
O501 Li441 1.956 . S
O501 Li443 1.961 . S
O501 C450 1.325 . S
O502 Li440 1.961 1_556 S
O502 Li442 1.956 . S
O502 Li443 1.970 1_566 S
O502 C472 1.325 . S
O503 Li441 1.961 . S
O503 Li442 1.970 1_544 S
O503 Li443 1.956 . S
O503 C478 1.325 . S
H504 C446 0.929 . S
H505 C447 0.930 1_556 S
H506 C448 0.930 . S
H507 C449 0.952 . S
H508 C451 0.930 . S
H509 C453 0.929 . S
H510 C454 0.930 . S
H511 C455 0.991 . S
H512 C458 0.930 . S
H513 C461 0.929 . S
H514 C466 0.929 . S
H515 C467 0.930 . S
H516 C474 0.929 . S
H517 C475 0.930 . S
H518 C476 0.963 . S
H519 C477 0.930 . S
H520 C479 0.929 . S
H521 C480 0.930 . S
H522 C481 0.930 . S
H523 C482 0.930 . S
H524 C486 0.929 . S
H525 C488 0.930 . S
H526 C494 0.929 . S
H527 C495 0.930 . S
Li528 N545 1.990 . S
Li528 O588 1.956 . S
Li528 O589 1.970 . S
Li528 O590 1.961 . S
Li529 N553 1.990 . S
Li529 O588 1.970 . S
Li529 O589 1.956 . S
Li529 O591 1.961 . S
Li530 N575 1.990 . S
Li530 O588 1.961 . S
Li530 O590 1.956 . S
Li530 O591 1.970 . S
Li531 N581 1.990 . S
Li531 O589 1.961 . S
Li531 O590 1.970 . S
Li531 O591 1.956 . S
C532 C534 1.348 . S
C532 C535 1.356 . S
C532 O588 1.325 . S
N533 C536 1.314 . S
N533 C537 1.279 . S
C534 C532 1.348 . S
C534 C536 1.353 . S
C534 H592 0.929 . S
C535 C532 1.356 . S
C535 C537 1.358 . S
C535 H593 0.930 . S
C536 N533 1.314 . S
C536 C534 1.353 . S
C536 H594 0.930 . S
C537 N533 1.279 . S
C537 C535 1.358 . S
C537 H595 0.930 . S
C538 C541 1.348 . S
C538 C542 1.356 . S
C538 O589 1.325 . S
C539 N540 1.279 . S
C539 C542 1.358 . S
C539 H596 0.930 . S
N540 C539 1.279 . S
N540 C543 1.314 . S
C541 C538 1.348 . S
C541 C543 1.353 . S
C541 H597 0.929 . S
C542 C538 1.356 . S
C542 C539 1.358 . S
C542 H598 0.930 . S
C543 N540 1.314 . S
C543 C541 1.353 . S
C543 H599 0.930 . S
C544 N545 1.314 . S
C544 C549 1.353 . S
C544 H550 0.930 . S
N545 Li528 1.990 . S
N545 C544 1.314 . S
N545 C547 1.279 . S
C546 C547 1.358 . S
C546 C548 1.356 . S
C546 H600 0.930 . S
C547 N545 1.279 . S
C547 C546 1.358 . S
C547 H551 0.930 . S
C548 C546 1.356 . S
C548 C549 1.348 . S
C549 C544 1.353 . S
C549 C548 1.348 . S
C549 H601 0.929 . S
H550 C544 0.930 . S
H551 C547 0.930 . S
C552 N553 1.314 . S
C552 C554 1.353 . S
C552 H558 0.930 . S
N553 Li529 1.990 . S
N553 C552 1.314 . S
N553 C556 1.279 . S
C554 C552 1.353 . S
C554 C557 1.348 . S
C554 H602 0.929 . S
C555 C556 1.358 . S
C555 C557 1.356 . S
C555 H603 0.930 . S
C556 N553 1.279 . S
C556 C555 1.358 . S
C556 H559 0.930 . S
C557 C554 1.348 . S
C557 C555 1.356 . S
H558 C552 0.930 . S
H559 C556 0.930 . S
C560 C562 1.348 . S
C560 C563 1.356 . S
C560 O590 1.325 . S
N561 C564 1.314 . S
N561 C565 1.279 . S
C562 C560 1.348 . S
C562 C564 1.353 . S
C562 H604 0.929 . S
C563 C560 1.356 . S
C563 C565 1.358 . S
C563 H605 0.930 . S
C564 N561 1.314 . S
C564 C562 1.353 . S
C564 H606 0.930 . S
C565 N561 1.279 . S
C565 C563 1.358 . S
C565 H607 0.930 . S
C566 C567 1.348 . S
C566 C568 1.356 . S
C566 O591 1.325 . S
C567 C566 1.348 . S
C567 C569 1.353 . S
C567 H608 0.929 . S
C568 C566 1.356 . S
C568 C570 1.358 . S
C568 H609 0.930 . S
C569 C567 1.353 . S
C569 N571 1.314 . S
C569 H610 0.930 . S
C570 C568 1.358 . S
C570 N571 1.279 . S
C570 H611 0.930 . S
N571 C569 1.314 . S
N571 C570 1.279 . S
C572 C574 1.353 . S
C572 N575 1.314 . S
C572 H578 0.930 . S
C573 N575 1.279 . S
C573 C576 1.358 . S
C573 H579 0.930 . S
C574 C572 1.353 . S
C574 C577 1.348 . S
C574 H612 0.929 . S
N575 Li530 1.990 . S
N575 C572 1.314 . S
N575 C573 1.279 . S
C576 C573 1.358 . S
C576 C577 1.356 . S
C576 H613 0.930 . S
C577 C574 1.348 . S
C577 C576 1.356 . S
H578 C572 0.930 . S
H579 C573 0.930 . S
C580 N581 1.314 . S
C580 C582 1.353 . S
C580 H586 0.930 . S
N581 Li531 1.990 . S
N581 C580 1.314 . S
N581 C584 1.279 . S
C582 C580 1.353 . S
C582 C585 1.348 . S
C582 H614 0.929 . S
C583 C584 1.358 . S
C583 C585 1.356 . S
C583 H615 0.930 . S
C584 N581 1.279 . S
C584 C583 1.358 . S
C584 H587 0.930 . S
C585 C582 1.348 . S
C585 C583 1.356 . S
H586 C580 0.930 . S
H587 C584 0.930 . S
O588 Li528 1.956 . S
O588 Li529 1.970 . S
O588 Li530 1.961 . S
O588 C532 1.325 . S
O589 Li528 1.970 . S
O589 Li529 1.956 . S
O589 Li531 1.961 . S
O589 C538 1.325 . S
O590 Li528 1.961 . S
O590 Li530 1.956 . S
O590 Li531 1.970 . S
O590 C560 1.325 . S
O591 Li529 1.961 . S
O591 Li530 1.970 . S
O591 Li531 1.956 . S
O591 C566 1.325 . S
H592 C534 0.929 . S
H593 C535 0.930 . S
H594 C536 0.930 . S
H595 C537 0.930 . S
H596 C539 0.930 . S
H597 C541 0.929 . S
H598 C542 0.930 . S
H599 C543 0.930 . S
H600 C546 0.930 . S
H601 C549 0.929 . S
H602 C554 0.929 . S
H603 C555 0.930 . S
H604 C562 0.929 . S
H605 C563 0.930 . S
H606 C564 0.930 . S
H607 C565 0.930 . S
H608 C567 0.929 . S
H609 C568 0.930 . S
H610 C569 0.930 . S
H611 C570 0.930 . S
H612 C574 0.929 . S
H613 C576 0.930 . S
H614 C582 0.929 . S
H615 C583 0.930 . S
Li616 N633 1.990 . S
Li616 O676 1.956 . S
Li616 O677 1.970 . S
Li616 O678 1.961 . S
Li617 N641 1.990 . S
Li617 O676 1.970 . S
Li617 O677 1.956 . S
Li617 O679 1.961 . S
Li618 N663 1.990 1_565 S
Li618 O676 1.961 . S
Li618 O678 1.956 . S
Li618 O679 1.970 . S
Li619 N669 1.990 . S
Li619 O677 1.961 . S
Li619 O678 1.970 . S
Li619 O679 1.956 . S
C620 C622 1.348 . S
C620 C623 1.356 . S
C620 O676 1.325 . S
N621 C624 1.314 . S
N621 C625 1.279 . S
C622 C620 1.348 . S
C622 C624 1.353 . S
C622 H680 0.929 . S
C623 C620 1.356 . S
C623 C625 1.358 . S
C623 H681 0.930 . S
C624 N621 1.314 . S
C624 C622 1.353 . S
C624 H682 0.930 . S
C625 N621 1.279 . S
C625 C623 1.358 . S
C625 H683 0.930 . S
C626 C629 1.348 . S
C626 C630 1.356 . S
C626 O677 1.325 . S
C627 N628 1.279 . S
C627 C630 1.358 . S
C627 H684 0.930 . S
N628 C627 1.279 . S
N628 C631 1.314 . S
C629 C626 1.348 . S
C629 C631 1.353 . S
C629 H685 0.929 . S
C630 C626 1.356 . S
C630 C627 1.358 . S
C630 H686 0.930 . S
C631 N628 1.314 . S
C631 C629 1.353 . S
C631 H687 0.930 . S
C632 N633 1.314 . S
C632 C637 1.353 . S
C632 H638 0.930 . S
N633 Li616 1.990 . S
N633 C632 1.314 . S
N633 C635 1.279 . S
C634 C635 1.358 . S
C634 C636 1.356 . S
C634 H688 0.930 . S
C635 N633 1.279 . S
C635 C634 1.358 . S
C635 H639 0.930 . S
C636 C634 1.356 . S
C636 C637 1.348 . S
C637 C632 1.353 . S
C637 C636 1.348 . S
C637 H689 0.929 . S
H638 C632 0.930 . S
H639 C635 0.930 . S
C640 N641 1.314 . S
C640 C642 1.353 . S
C640 H646 0.930 . S
N641 Li617 1.990 . S
N641 C640 1.314 . S
N641 C644 1.279 . S
C642 C640 1.353 . S
C642 C645 1.348 . S
C642 H690 0.929 . S
C643 C644 1.358 . S
C643 C645 1.356 . S
C643 H691 0.930 . S
C644 N641 1.279 . S
C644 C643 1.358 . S
C644 H647 0.930 . S
C645 C642 1.348 . S
C645 C643 1.356 . S
H646 C640 0.930 . S
H647 C644 0.930 . S
C648 C650 1.348 . S
C648 C651 1.356 . S
C648 O678 1.325 . S
N649 C652 1.314 . S
N649 C653 1.279 . S
C650 C648 1.348 . S
C650 C652 1.353 1_565 S
C650 H692 0.929 . S
C651 C648 1.356 . S
C651 C653 1.358 1_565 S
C651 H693 0.930 . S
C652 N649 1.314 . S
C652 C650 1.353 1_545 S
C652 H694 0.930 . S
C653 N649 1.279 . S
C653 C651 1.358 1_545 S
C653 H695 0.930 . S
C654 C655 1.348 . S
C654 C656 1.356 . S
C654 O679 1.325 . S
C655 C654 1.348 . S
C655 C657 1.354 1_565 S
C655 H696 0.929 1_565 S
C656 C654 1.356 . S
C656 C658 1.358 . S
C656 H697 0.930 . S
C657 C655 1.354 1_545 S
C657 N659 1.271 1_545 S
C657 H698 0.980 . S
C658 C656 1.358 . S
C658 N659 1.279 . S
C658 H699 0.930 . S
N659 C657 1.271 1_565 S
N659 C658 1.279 . S
C660 C662 1.353 . S
C660 N663 1.314 . S
C660 H666 0.891 1_545 S
C661 N663 1.279 . S
C661 C664 1.358 . S
C661 H667 0.930 . S
C662 C660 1.353 . S
C662 C665 1.348 . S
C662 H700 0.929 . S
N663 Li618 1.990 1_545 S
N663 C660 1.314 . S
N663 C661 1.279 . S
C664 C661 1.358 . S
C664 C665 1.356 . S
C664 H701 0.930 . S
C665 C662 1.348 . S
C665 C664 1.356 . S
H666 C660 0.891 1_565 S
H667 C661 0.930 . S
C668 N669 1.314 . S
C668 C670 1.353 . S
C668 H674 0.930 . S
N669 Li619 1.990 . S
N669 C668 1.314 . S
N669 C672 1.279 . S
C670 C668 1.353 . S
C670 C673 1.348 . S
C670 H702 0.929 . S
C671 C672 1.358 . S
C671 C673 1.356 . S
C671 H703 0.930 . S
C672 N669 1.279 . S
C672 C671 1.358 . S
C672 H675 0.930 . S
C673 C670 1.348 . S
C673 C671 1.356 . S
H674 C668 0.930 . S
H675 C672 0.930 . S
O676 Li616 1.956 . S
O676 Li617 1.970 . S
O676 Li618 1.961 . S
O676 C620 1.325 . S
O677 Li616 1.970 . S
O677 Li617 1.956 . S
O677 Li619 1.961 . S
O677 C626 1.325 . S
O678 Li616 1.961 . S
O678 Li618 1.956 . S
O678 Li619 1.970 . S
O678 C648 1.325 . S
O679 Li617 1.961 . S
O679 Li618 1.970 . S
O679 Li619 1.956 . S
O679 C654 1.325 . S
H680 C622 0.929 . S
H681 C623 0.930 . S
H682 C624 0.930 . S
H683 C625 0.930 . S
H684 C627 0.930 . S
H685 C629 0.929 . S
H686 C630 0.930 . S
H687 C631 0.930 . S
H688 C634 0.930 . S
H689 C637 0.929 . S
H690 C642 0.929 . S
H691 C643 0.930 . S
H692 C650 0.929 . S
H693 C651 0.930 . S
H694 C652 0.930 . S
H695 C653 0.930 . S
H696 C655 0.929 1_545 S
H697 C656 0.930 . S
H698 C657 0.980 . S
H699 C658 0.930 . S
H700 C662 0.929 . S
H701 C664 0.930 . S
H702 C670 0.929 . S
H703 C671 0.930 . S
Li704 N721 1.990 . S
Li704 O764 1.956 . S
Li704 O765 1.970 . S
Li704 O766 1.961 . S
Li705 N729 1.990 . S
Li705 O764 1.970 . S
Li705 O765 1.956 . S
Li705 O767 1.961 . S
Li706 N751 1.990 1_455 S
Li706 O764 1.961 . S
Li706 O766 1.956 . S
Li706 O767 1.970 . S
Li707 N757 1.990 . S
Li707 O765 1.961 . S
Li707 O766 1.970 . S
Li707 O767 1.956 . S
C708 C710 1.348 . S
C708 C711 1.356 . S
C708 O764 1.325 . S
N709 C712 1.314 . S
N709 C713 1.279 . S
C710 C708 1.348 . S
C710 C712 1.353 . S
C710 H768 0.929 . S
C711 C708 1.356 . S
C711 C713 1.358 . S
C711 H769 0.930 . S
C712 N709 1.314 . S
C712 C710 1.353 . S
C712 H770 0.930 . S
C713 N709 1.279 . S
C713 C711 1.358 . S
C713 H771 0.930 . S
C714 C717 1.348 . S
C714 C718 1.356 . S
C714 O765 1.325 . S
C715 N716 1.279 . S
C715 C718 1.358 . S
C715 H772 0.930 . S
N716 C715 1.279 . S
N716 C719 1.314 . S
C717 C714 1.348 . S
C717 C719 1.353 . S
C717 H773 0.929 . S
C718 C714 1.356 . S
C718 C715 1.358 . S
C718 H774 0.930 . S
C719 N716 1.314 . S
C719 C717 1.353 . S
C719 H775 0.930 . S
C720 N721 1.314 . S
C720 C725 1.353 . S
C720 H726 0.930 . S
N721 Li704 1.990 . S
N721 C720 1.314 . S
N721 C723 1.279 . S
C722 C723 1.358 . S
C722 C724 1.356 . S
C722 H776 0.930 . S
C723 N721 1.279 . S
C723 C722 1.358 . S
C723 H727 0.930 . S
C724 C722 1.356 . S
C724 C725 1.348 . S
C725 C720 1.353 . S
C725 C724 1.348 . S
C725 H777 0.929 . S
H726 C720 0.930 . S
H727 C723 0.930 . S
C728 N729 1.314 . S
C728 C730 1.353 . S
C728 H734 0.930 . S
N729 Li705 1.990 . S
N729 C728 1.314 . S
N729 C732 1.279 . S
C730 C728 1.353 . S
C730 C733 1.348 . S
C730 H778 0.929 . S
C731 C732 1.358 . S
C731 C733 1.356 . S
C731 H779 0.930 . S
C732 N729 1.279 . S
C732 C731 1.358 . S
C732 H735 0.930 . S
C733 C730 1.348 . S
C733 C731 1.356 . S
H734 C728 0.930 . S
H735 C732 0.930 . S
C736 C738 1.348 . S
C736 C739 1.356 . S
C736 O766 1.325 . S
N737 C740 1.314 . S
N737 C741 1.279 . S
C738 C736 1.348 . S
C738 C740 1.353 1_455 S
C738 H780 0.929 . S
C739 C736 1.356 . S
C739 C741 1.358 1_455 S
C739 H781 0.930 . S
C740 N737 1.314 . S
C740 C738 1.353 1_655 S
C740 H782 0.930 . S
C741 N737 1.279 . S
C741 C739 1.358 1_655 S
C741 H783 0.930 . S
C742 C743 1.348 . S
C742 C744 1.356 . S
C742 O767 1.325 . S
C743 C742 1.348 . S
C743 C745 1.357 1_455 S
C743 H784 0.929 1_455 S
C744 C742 1.356 . S
C744 C746 1.358 . S
C744 H785 0.930 . S
C745 C743 1.357 1_655 S
C745 N747 1.316 1_655 S
C745 H786 0.923 . S
C746 C744 1.358 . S
C746 N747 1.279 . S
C746 H787 0.930 . S
N747 C745 1.316 1_455 S
N747 C746 1.279 . S
C748 C750 1.353 . S
C748 N751 1.314 . S
C748 H754 0.930 1_655 S
C749 N751 1.279 . S
C749 C752 1.358 . S
C749 H755 0.930 . S
C750 C748 1.353 . S
C750 C753 1.348 . S
C750 H788 0.929 . S
N751 Li706 1.990 1_655 S
N751 C748 1.314 . S
N751 C749 1.279 . S
C752 C749 1.358 . S
C752 C753 1.356 . S
C752 H789 0.930 . S
C753 C750 1.348 . S
C753 C752 1.356 . S
H754 C748 0.930 1_455 S
H755 C749 0.930 . S
C756 N757 1.314 . S
C756 C758 1.353 . S
C756 H762 0.930 . S
N757 Li707 1.990 . S
N757 C756 1.314 . S
N757 C760 1.279 . S
C758 C756 1.353 . S
C758 C761 1.348 . S
C758 H790 0.929 . S
C759 C760 1.358 . S
C759 C761 1.356 . S
C759 H791 0.930 . S
C760 N757 1.279 . S
C760 C759 1.358 . S
C760 H763 0.930 . S
C761 C758 1.348 . S
C761 C759 1.356 . S
H762 C756 0.930 . S
H763 C760 0.930 . S
O764 Li704 1.956 . S
O764 Li705 1.970 . S
O764 Li706 1.961 . S
O764 C708 1.325 . S
O765 Li704 1.970 . S
O765 Li705 1.956 . S
O765 Li707 1.961 . S
O765 C714 1.325 . S
O766 Li704 1.961 . S
O766 Li706 1.956 . S
O766 Li707 1.970 . S
O766 C736 1.325 . S
O767 Li705 1.961 . S
O767 Li706 1.970 . S
O767 Li707 1.956 . S
O767 C742 1.325 . S
H768 C710 0.929 . S
H769 C711 0.930 . S
H770 C712 0.930 . S
H771 C713 0.930 . S
H772 C715 0.930 . S
H773 C717 0.929 . S
H774 C718 0.930 . S
H775 C719 0.930 . S
H776 C722 0.930 . S
H777 C725 0.929 . S
H778 C730 0.929 . S
H779 C731 0.930 . S
H780 C738 0.929 . S
H781 C739 0.930 . S
H782 C740 0.930 . S
H783 C741 0.930 . S
H784 C743 0.929 1_655 S
H785 C744 0.930 . S
H786 C745 0.923 . S
H787 C746 0.930 . S
H788 C750 0.929 . S
H789 C752 0.930 . S
H790 C758 0.929 . S
H791 C759 0.930 . S
Li792 N809 1.990 1_565 S
Li792 O852 1.956 . S
Li792 O853 1.970 . S
Li792 O854 1.961 . S
Li793 N817 1.990 . S
Li793 O852 1.970 . S
Li793 O853 1.956 . S
Li793 O855 1.961 . S
Li794 N839 1.990 . S
Li794 O852 1.961 . S
Li794 O854 1.956 . S
Li794 O855 1.970 . S
Li795 N845 1.990 . S
Li795 O853 1.961 . S
Li795 O854 1.970 . S
Li795 O855 1.956 . S
C796 C798 1.348 . S
C796 C799 1.356 . S
C796 O852 1.325 . S
N797 C800 1.314 . S
N797 C801 1.279 . S
C798 C796 1.348 . S
C798 C800 1.353 . S
C798 H856 0.929 . S
C799 C796 1.356 . S
C799 C801 1.358 . S
C799 H857 0.930 . S
C800 N797 1.314 . S
C800 C798 1.353 . S
C800 H858 0.930 . S
C801 N797 1.279 . S
C801 C799 1.358 . S
C801 H859 0.930 . S
C802 C805 1.348 . S
C802 C806 1.356 . S
C802 O853 1.325 . S
C803 N804 1.279 . S
C803 C806 1.358 . S
C803 H860 0.930 . S
N804 C803 1.279 . S
N804 C807 1.314 . S
C805 C802 1.348 . S
C805 C807 1.353 . S
C805 H861 0.929 . S
C806 C802 1.356 . S
C806 C803 1.358 . S
C806 H862 0.930 . S
C807 N804 1.314 . S
C807 C805 1.353 . S
C807 H863 0.930 1_565 S
C808 N809 1.314 . S
C808 C813 1.353 . S
C808 H814 0.930 . S
N809 Li792 1.990 1_545 S
N809 C808 1.314 . S
N809 C811 1.279 . S
C810 C811 1.358 . S
C810 C812 1.356 . S
C810 H864 0.930 . S
C811 N809 1.279 . S
C811 C810 1.358 . S
C811 H815 0.930 1_545 S
C812 C810 1.356 . S
C812 C813 1.348 . S
C813 C808 1.353 . S
C813 C812 1.348 . S
C813 H865 0.929 . S
H814 C808 0.930 . S
H815 C811 0.930 1_565 S
C816 N817 1.314 . S
C816 C818 1.353 . S
C816 H822 0.930 . S
N817 Li793 1.990 . S
N817 C816 1.314 . S
N817 C820 1.279 . S
C818 C816 1.353 . S
C818 C821 1.348 . S
C818 H866 0.929 . S
C819 C820 1.358 . S
C819 C821 1.356 . S
C819 H867 0.930 . S
C820 N817 1.279 . S
C820 C819 1.358 . S
C820 H823 0.930 . S
C821 C818 1.348 . S
C821 C819 1.356 . S
H822 C816 0.930 . S
H823 C820 0.930 . S
C824 C826 1.348 . S
C824 C827 1.356 . S
C824 O854 1.325 . S
N825 C828 1.314 1_545 S
N825 C829 1.279 . S
C826 C824 1.348 . S
C826 C828 1.353 . S
C826 H868 0.929 . S
C827 C824 1.356 . S
C827 C829 1.358 1_565 S
C827 H869 0.930 . S
C828 N825 1.314 1_565 S
C828 C826 1.353 . S
C828 H870 0.930 . S
C829 N825 1.279 . S
C829 C827 1.358 1_545 S
C829 H871 0.930 . S
C830 C831 1.348 . S
C830 C832 1.356 . S
C830 O855 1.325 . S
C831 C830 1.348 . S
C831 C833 1.353 . S
C831 H872 0.929 . S
C832 C830 1.356 . S
C832 C834 1.358 . S
C832 H873 0.930 . S
C833 C831 1.353 . S
C833 N835 1.314 . S
C833 H874 0.930 . S
C834 C832 1.358 . S
C834 N835 1.279 . S
C834 H875 0.930 . S
N835 C833 1.314 . S
N835 C834 1.279 . S
C836 C838 1.353 . S
C836 N839 1.314 . S
C836 H842 0.930 . S
C837 N839 1.279 . S
C837 C840 1.358 . S
C837 H843 0.930 . S
C838 C836 1.353 . S
C838 C841 1.348 . S
C838 H876 0.929 . S
N839 Li794 1.990 . S
N839 C836 1.314 . S
N839 C837 1.279 . S
C840 C837 1.358 . S
C840 C841 1.356 . S
C840 H877 0.930 . S
C841 C838 1.348 . S
C841 C840 1.356 . S
H842 C836 0.930 . S
H843 C837 0.930 . S
C844 N845 1.314 . S
C844 C846 1.353 . S
C844 H850 0.930 . S
N845 Li795 1.990 . S
N845 C844 1.314 . S
N845 C848 1.279 . S
C846 C844 1.353 . S
C846 C849 1.348 . S
C846 H878 0.929 . S
C847 C848 1.358 . S
C847 C849 1.356 . S
C847 H879 0.930 . S
C848 N845 1.279 . S
C848 C847 1.358 . S
C848 H851 0.930 . S
C849 C846 1.348 . S
C849 C847 1.356 . S
H850 C844 0.930 . S
H851 C848 0.930 . S
O852 Li792 1.956 . S
O852 Li793 1.970 . S
O852 Li794 1.961 . S
O852 C796 1.325 . S
O853 Li792 1.970 . S
O853 Li793 1.956 . S
O853 Li795 1.961 . S
O853 C802 1.325 . S
O854 Li792 1.961 . S
O854 Li794 1.956 . S
O854 Li795 1.970 . S
O854 C824 1.325 . S
O855 Li793 1.961 . S
O855 Li794 1.970 . S
O855 Li795 1.956 . S
O855 C830 1.325 . S
H856 C798 0.929 . S
H857 C799 0.930 . S
H858 C800 0.930 . S
H859 C801 0.930 . S
H860 C803 0.930 . S
H861 C805 0.929 . S
H862 C806 0.930 . S
H863 C807 0.930 1_545 S
H864 C810 0.930 . S
H865 C813 0.929 . S
H866 C818 0.929 . S
H867 C819 0.930 . S
H868 C826 0.929 . S
H869 C827 0.930 . S
H870 C828 0.930 . S
H871 C829 0.930 . S
H872 C831 0.929 . S
H873 C832 0.930 . S
H874 C833 0.930 . S
H875 C834 0.930 . S
H876 C838 0.929 . S
H877 C840 0.930 . S
H878 C846 0.929 . S
H879 C847 0.930 . S
Li880 N897 1.990 . S
Li880 O940 1.956 . S
Li880 O941 1.970 . S
Li880 O942 1.961 . S
Li881 N905 1.990 1_455 S
Li881 O940 1.970 . S
Li881 O941 1.956 . S
Li881 O943 1.961 . S
Li882 N927 1.990 . S
Li882 O940 1.961 . S
Li882 O942 1.956 . S
Li882 O943 1.970 . S
Li883 N933 1.990 . S
Li883 O941 1.961 . S
Li883 O942 1.970 . S
Li883 O943 1.956 . S
C884 C886 1.348 . S
C884 C887 1.356 . S
C884 O940 1.325 . S
N885 C888 1.314 . S
N885 C889 1.279 . S
C886 C884 1.348 . S
C886 C888 1.353 . S
C886 H944 0.929 . S
C887 C884 1.356 . S
C887 C889 1.358 . S
C887 H945 0.930 . S
C888 N885 1.314 . S
C888 C886 1.353 . S
C888 H946 0.930 1_455 S
C889 N885 1.279 . S
C889 C887 1.358 . S
C889 H947 0.930 . S
C890 C893 1.348 . S
C890 C894 1.356 . S
C890 O941 1.325 . S
C891 N892 1.279 . S
C891 C894 1.358 . S
C891 H948 0.930 . S
N892 C891 1.279 . S
N892 C895 1.314 . S
C893 C890 1.348 . S
C893 C895 1.353 . S
C893 H949 0.929 . S
C894 C890 1.356 . S
C894 C891 1.358 . S
C894 H950 0.930 . S
C895 N892 1.314 . S
C895 C893 1.353 . S
C895 H951 0.930 . S
C896 N897 1.314 . S
C896 C901 1.353 . S
C896 H902 0.930 . S
N897 Li880 1.990 . S
N897 C896 1.314 . S
N897 C899 1.279 . S
C898 C899 1.358 . S
C898 C900 1.356 . S
C898 H952 0.930 . S
C899 N897 1.279 . S
C899 C898 1.358 . S
C899 H903 0.930 . S
C900 C898 1.356 . S
C900 C901 1.348 . S
C901 C896 1.353 . S
C901 C900 1.348 . S
C901 H953 0.929 . S
H902 C896 0.930 . S
H903 C899 0.930 . S
C904 N905 1.314 . S
C904 C906 1.353 . S
C904 H910 0.930 . S
N905 Li881 1.990 1_655 S
N905 C904 1.314 . S
N905 C908 1.279 . S
C906 C904 1.353 . S
C906 C909 1.348 . S
C906 H954 0.929 . S
C907 C908 1.358 . S
C907 C909 1.356 . S
C907 H955 0.930 . S
C908 N905 1.279 . S
C908 C907 1.358 . S
C908 H911 0.930 1_655 S
C909 C906 1.348 . S
C909 C907 1.356 . S
H910 C904 0.930 . S
H911 C908 0.930 1_455 S
C912 C914 1.348 . S
C912 C915 1.356 . S
C912 O942 1.325 . S
N913 C916 1.314 . S
N913 C917 1.279 . S
C914 C912 1.348 . S
C914 C916 1.353 . S
C914 H956 0.929 . S
C915 C912 1.356 . S
C915 C917 1.358 . S
C915 H957 0.930 . S
C916 N913 1.314 . S
C916 C914 1.353 . S
C916 H958 0.930 . S
C917 N913 1.279 . S
C917 C915 1.358 . S
C917 H959 0.930 . S
C918 C919 1.348 . S
C918 C920 1.356 . S
C918 O943 1.325 . S
C919 C918 1.348 . S
C919 C921 1.353 . S
C919 H960 0.929 . S
C920 C918 1.356 . S
C920 C922 1.358 1_455 S
C920 H961 0.930 . S
C921 C919 1.353 . S
C921 N923 1.314 1_455 S
C921 H962 0.930 . S
C922 C920 1.358 1_655 S
C922 N923 1.279 . S
C922 H963 0.930 . S
N923 C921 1.314 1_655 S
N923 C922 1.279 . S
C924 C926 1.353 . S
C924 N927 1.314 . S
C924 H930 0.930 . S
C925 N927 1.279 . S
C925 C928 1.358 . S
C925 H931 0.930 . S
C926 C924 1.353 . S
C926 C929 1.348 . S
C926 H964 0.929 . S
N927 Li882 1.990 . S
N927 C924 1.314 . S
N927 C925 1.279 . S
C928 C925 1.358 . S
C928 C929 1.356 . S
C928 H965 0.930 . S
C929 C926 1.348 . S
C929 C928 1.356 . S
H930 C924 0.930 . S
H931 C925 0.930 . S
C932 N933 1.314 . S
C932 C934 1.353 . S
C932 H938 0.930 . S
N933 Li883 1.990 . S
N933 C932 1.314 . S
N933 C936 1.279 . S
C934 C932 1.353 . S
C934 C937 1.348 . S
C934 H966 0.929 . S
C935 C936 1.358 . S
C935 C937 1.356 . S
C935 H967 0.930 . S
C936 N933 1.279 . S
C936 C935 1.358 . S
C936 H939 0.930 . S
C937 C934 1.348 . S
C937 C935 1.356 . S
H938 C932 0.930 . S
H939 C936 0.930 . S
O940 Li880 1.956 . S
O940 Li881 1.970 . S
O940 Li882 1.961 . S
O940 C884 1.325 . S
O941 Li880 1.970 . S
O941 Li881 1.956 . S
O941 Li883 1.961 . S
O941 C890 1.325 . S
O942 Li880 1.961 . S
O942 Li882 1.956 . S
O942 Li883 1.970 . S
O942 C912 1.325 . S
O943 Li881 1.961 . S
O943 Li882 1.970 . S
O943 Li883 1.956 . S
O943 C918 1.325 . S
H944 C886 0.929 . S
H945 C887 0.930 . S
H946 C888 0.930 1_655 S
H947 C889 0.930 . S
H948 C891 0.930 . S
H949 C893 0.929 . S
H950 C894 0.930 . S
H951 C895 0.930 . S
H952 C898 0.930 . S
H953 C901 0.929 . S
H954 C906 0.929 . S
H955 C907 0.930 . S
H956 C914 0.929 . S
H957 C915 0.930 . S
H958 C916 0.930 . S
H959 C917 0.930 . S
H960 C919 0.929 . S
H961 C920 0.930 . S
H962 C921 0.930 . S
H963 C922 0.930 . S
H964 C926 0.929 . S
H965 C928 0.930 . S
H966 C934 0.929 . S
H967 C935 0.930 . S
Li968 N985 1.990 . S
Li968 O1028 1.956 . S
Li968 O1029 1.970 . S
Li968 O1030 1.961 . S
Li969 N993 1.990 . S
Li969 O1028 1.970 . S
Li969 O1029 1.956 . S
Li969 O1031 1.961 . S
Li970 N1015 1.990 . S
Li970 O1028 1.961 . S
Li970 O1030 1.956 . S
Li970 O1031 1.970 . S
Li971 N1021 1.990 . S
Li971 O1029 1.961 . S
Li971 O1030 1.970 . S
Li971 O1031 1.956 . S
C972 C974 1.348 . S
C972 C975 1.356 . S
C972 O1028 1.325 . S
N973 C976 1.314 . S
N973 C977 1.279 . S
C974 C972 1.348 . S
C974 C976 1.353 . S
C974 H1032 0.929 . S
C975 C972 1.356 . S
C975 C977 1.358 . S
C975 H1033 0.930 . S
C976 N973 1.314 . S
C976 C974 1.353 . S
C976 H1034 0.930 . S
C977 N973 1.279 . S
C977 C975 1.358 . S
C977 H1035 0.930 . S
C978 C981 1.348 . S
C978 C982 1.356 . S
C978 O1029 1.325 . S
C979 N980 1.279 . S
C979 C982 1.358 . S
C979 H1036 0.930 . S
N980 C979 1.279 . S
N980 C983 1.314 . S
C981 C978 1.348 . S
C981 C983 1.353 . S
C981 H1037 0.929 . S
C982 C978 1.356 . S
C982 C979 1.358 . S
C982 H1038 0.930 . S
C983 N980 1.314 . S
C983 C981 1.353 . S
C983 H1039 0.930 . S
C984 N985 1.314 . S
C984 C989 1.353 . S
C984 H990 0.930 . S
N985 Li968 1.990 . S
N985 C984 1.314 . S
N985 C987 1.279 . S
C986 C987 1.358 . S
C986 C988 1.356 . S
C986 H1040 0.930 . S
C987 N985 1.279 . S
C987 C986 1.358 . S
C987 H991 0.930 . S
C988 C986 1.356 . S
C988 C989 1.348 . S
C989 C984 1.353 . S
C989 C988 1.348 . S
C989 H1041 0.929 . S
H990 C984 0.930 . S
H991 C987 0.930 . S
C992 N993 1.314 . S
C992 C994 1.353 . S
C992 H998 0.930 . S
N993 Li969 1.990 . S
N993 C992 1.314 . S
N993 C996 1.279 . S
C994 C992 1.353 . S
C994 C997 1.348 . S
C994 H1042 0.929 . S
C995 C996 1.358 . S
C995 C997 1.356 . S
C995 H1043 0.930 . S
C996 N993 1.279 . S
C996 C995 1.358 . S
C996 H999 0.930 . S
C997 C994 1.348 . S
C997 C995 1.356 . S
H998 C992 0.930 . S
H999 C996 0.930 . S
C1000 C1002 1.348 . S
C1000 C1003 1.356 . S
C1000 O1030 1.325 . S
N1001 C1004 1.314 . S
N1001 C1005 1.279 . S
C1002 C1000 1.348 . S
C1002 C1004 1.353 . S
C1002 H1044 0.929 . S
C1003 C1000 1.356 . S
C1003 C1005 1.358 . S
C1003 H1045 0.930 . S
C1004 N1001 1.314 . S
C1004 C1002 1.353 . S
C1004 H1046 0.930 . S
C1005 N1001 1.279 . S
C1005 C1003 1.358 . S
C1005 H1047 0.930 . S
C1006 C1007 1.348 . S
C1006 C1008 1.356 . S
C1006 O1031 1.325 . S
C1007 C1006 1.348 . S
C1007 C1009 1.353 . S
C1007 H1048 0.929 . S
C1008 C1006 1.356 . S
C1008 C1010 1.358 . S
C1008 H1049 0.930 . S
C1009 C1007 1.353 . S
C1009 N1011 1.314 . S
C1009 H1050 0.930 . S
C1010 C1008 1.358 . S
C1010 N1011 1.279 . S
C1010 H1051 0.930 . S
N1011 C1009 1.314 . S
N1011 C1010 1.279 . S
C1012 C1014 1.353 . S
C1012 N1015 1.314 . S
C1012 H1018 0.930 . S
C1013 N1015 1.279 . S
C1013 C1016 1.358 . S
C1013 H1019 0.930 . S
C1014 C1012 1.353 . S
C1014 C1017 1.348 . S
C1014 H1052 0.929 . S
N1015 Li970 1.990 . S
N1015 C1012 1.314 . S
N1015 C1013 1.279 . S
C1016 C1013 1.358 . S
C1016 C1017 1.356 . S
C1016 H1053 0.930 . S
C1017 C1014 1.348 . S
C1017 C1016 1.356 . S
H1018 C1012 0.930 . S
H1019 C1013 0.930 . S
C1020 N1021 1.314 . S
C1020 C1022 1.353 . S
C1020 H1026 0.930 . S
N1021 Li971 1.990 . S
N1021 C1020 1.314 . S
N1021 C1024 1.279 . S
C1022 C1020 1.353 . S
C1022 C1025 1.348 . S
C1022 H1054 0.929 . S
C1023 C1024 1.358 . S
C1023 C1025 1.356 . S
C1023 H1055 0.930 . S
C1024 N1021 1.279 . S
C1024 C1023 1.358 . S
C1024 H1027 0.930 . S
C1025 C1022 1.348 . S
C1025 C1023 1.356 . S
H1026 C1020 0.930 . S
H1027 C1024 0.930 . S
O1028 Li968 1.956 . S
O1028 Li969 1.970 . S
O1028 Li970 1.961 . S
O1028 C972 1.325 . S
O1029 Li968 1.970 . S
O1029 Li969 1.956 . S
O1029 Li971 1.961 . S
O1029 C978 1.325 . S
O1030 Li968 1.961 . S
O1030 Li970 1.956 . S
O1030 Li971 1.970 . S
O1030 C1000 1.325 . S
O1031 Li969 1.961 . S
O1031 Li970 1.970 . S
O1031 Li971 1.956 . S
O1031 C1006 1.325 . S
H1032 C974 0.929 . S
H1033 C975 0.930 . S
H1034 C976 0.930 . S
H1035 C977 0.930 . S
H1036 C979 0.930 . S
H1037 C981 0.929 . S
H1038 C982 0.930 . S
H1039 C983 0.930 . S
H1040 C986 0.930 . S
H1041 C989 0.929 . S
H1042 C994 0.929 . S
H1043 C995 0.930 . S
H1044 C1002 0.929 . S
H1045 C1003 0.930 . S
H1046 C1004 0.930 . S
H1047 C1005 0.930 . S
H1048 C1007 0.929 . S
H1049 C1008 0.930 . S
H1050 C1009 0.930 . S
H1051 C1010 0.930 . S
H1052 C1014 0.929 . S
H1053 C1016 0.930 . S
H1054 C1022 0.929 . S
H1055 C1023 0.930 . S
Li1056 N1073 1.990 1_545 S
Li1056 O1116 1.956 . S
Li1056 O1117 1.970 . S
Li1056 O1118 1.961 . S
Li1057 N1081 1.990 . S
Li1057 O1116 1.970 . S
Li1057 O1117 1.956 . S
Li1057 O1119 1.961 . S
Li1058 N1103 1.990 . S
Li1058 O1116 1.961 . S
Li1058 O1118 1.956 . S
Li1058 O1119 1.970 . S
Li1059 N1109 1.990 . S
Li1059 O1117 1.961 . S
Li1059 O1118 1.970 . S
Li1059 O1119 1.956 . S
C1060 C1062 1.348 . S
C1060 C1063 1.356 . S
C1060 O1116 1.325 . S
N1061 C1064 1.314 . S
N1061 C1065 1.279 . S
C1062 C1060 1.348 . S
C1062 C1064 1.353 1_545 S
C1062 H1120 0.929 . S
C1063 C1060 1.356 . S
C1063 C1065 1.358 1_545 S
C1063 H1121 0.930 . S
C1064 N1061 1.314 . S
C1064 C1062 1.353 1_565 S
C1064 H1122 0.930 . S
C1065 N1061 1.279 . S
C1065 C1063 1.358 1_565 S
C1065 H1123 0.930 . S
C1066 C1069 1.348 . S
C1066 C1070 1.356 . S
C1066 O1117 1.325 . S
C1067 N1068 1.279 . S
C1067 C1070 1.358 . S
C1067 H1124 0.930 . S
N1068 C1067 1.279 . S
N1068 C1071 1.313 . S
C1069 C1066 1.348 . S
C1069 C1071 1.348 . S
C1069 H1125 0.929 1_545 S
C1070 C1066 1.356 . S
C1070 C1067 1.358 . S
C1070 H1126 0.930 . S
C1071 N1068 1.313 . S
C1071 C1069 1.348 . S
C1071 H1127 0.937 1_545 S
C1072 N1073 1.314 . S
C1072 C1077 1.353 . S
C1072 H1078 0.930 1_565 S
N1073 Li1056 1.990 1_565 S
N1073 C1072 1.314 . S
N1073 C1075 1.279 . S
C1074 C1075 1.358 . S
C1074 C1076 1.356 . S
C1074 H1128 0.930 . S
C1075 N1073 1.279 . S
C1075 C1074 1.358 . S
C1075 H1079 0.930 . S
C1076 C1074 1.356 . S
C1076 C1077 1.348 . S
C1077 C1072 1.353 . S
C1077 C1076 1.348 . S
C1077 H1129 0.929 . S
H1078 C1072 0.930 1_545 S
H1079 C1075 0.930 . S
C1080 N1081 1.314 . S
C1080 C1082 1.353 . S
C1080 H1086 0.930 . S
N1081 Li1057 1.990 . S
N1081 C1080 1.314 . S
N1081 C1084 1.279 . S
C1082 C1080 1.353 . S
C1082 C1085 1.348 . S
C1082 H1130 0.929 . S
C1083 C1084 1.358 . S
C1083 C1085 1.356 . S
C1083 H1131 0.930 . S
C1084 N1081 1.279 . S
C1084 C1083 1.358 . S
C1084 H1087 0.930 . S
C1085 C1082 1.348 . S
C1085 C1083 1.356 . S
H1086 C1080 0.930 . S
H1087 C1084 0.930 . S
C1088 C1090 1.348 . S
C1088 C1091 1.356 . S
C1088 O1118 1.325 . S
N1089 C1092 1.314 . S
N1089 C1093 1.279 . S
C1090 C1088 1.348 . S
C1090 C1092 1.353 . S
C1090 H1132 0.929 . S
C1091 C1088 1.356 . S
C1091 C1093 1.358 . S
C1091 H1133 0.930 . S
C1092 N1089 1.314 . S
C1092 C1090 1.353 . S
C1092 H1134 0.930 . S
C1093 N1089 1.279 . S
C1093 C1091 1.358 . S
C1093 H1135 0.930 . S
C1094 C1095 1.348 . S
C1094 C1096 1.356 . S
C1094 O1119 1.325 . S
C1095 C1094 1.348 . S
C1095 C1097 1.353 . S
C1095 H1136 0.929 . S
C1096 C1094 1.356 . S
C1096 C1098 1.358 . S
C1096 H1137 0.930 . S
C1097 C1095 1.353 . S
C1097 N1099 1.314 . S
C1097 H1138 0.930 . S
C1098 C1096 1.358 . S
C1098 N1099 1.279 . S
C1098 H1139 0.930 . S
N1099 C1097 1.314 . S
N1099 C1098 1.279 . S
C1100 C1102 1.353 . S
C1100 N1103 1.314 . S
C1100 H1106 0.930 . S
C1101 N1103 1.279 . S
C1101 C1104 1.358 . S
C1101 H1107 0.930 . S
C1102 C1100 1.353 . S
C1102 C1105 1.348 . S
C1102 H1140 0.929 . S
N1103 Li1058 1.990 . S
N1103 C1100 1.314 . S
N1103 C1101 1.279 . S
C1104 C1101 1.358 . S
C1104 C1105 1.356 . S
C1104 H1141 0.930 . S
C1105 C1102 1.348 . S
C1105 C1104 1.356 . S
H1106 C1100 0.930 . S
H1107 C1101 0.930 . S
C1108 N1109 1.314 . S
C1108 C1110 1.353 . S
C1108 H1114 0.930 . S
N1109 Li1059 1.990 . S
N1109 C1108 1.314 . S
N1109 C1112 1.279 . S
C1110 C1108 1.353 . S
C1110 C1113 1.348 . S
C1110 H1142 0.929 . S
C1111 C1112 1.358 . S
C1111 C1113 1.356 . S
C1111 H1143 0.930 . S
C1112 N1109 1.279 . S
C1112 C1111 1.358 . S
C1112 H1115 0.930 . S
C1113 C1110 1.348 . S
C1113 C1111 1.356 . S
H1114 C1108 0.930 . S
H1115 C1112 0.930 . S
O1116 Li1056 1.956 . S
O1116 Li1057 1.970 . S
O1116 Li1058 1.961 . S
O1116 C1060 1.325 . S
O1117 Li1056 1.970 . S
O1117 Li1057 1.956 . S
O1117 Li1059 1.961 . S
O1117 C1066 1.325 . S
O1118 Li1056 1.961 . S
O1118 Li1058 1.956 . S
O1118 Li1059 1.970 . S
O1118 C1088 1.325 . S
O1119 Li1057 1.961 . S
O1119 Li1058 1.970 . S
O1119 Li1059 1.956 . S
O1119 C1094 1.325 . S
H1120 C1062 0.929 . S
H1121 C1063 0.930 . S
H1122 C1064 0.930 . S
H1123 C1065 0.930 . S
H1124 C1067 0.930 . S
H1125 C1069 0.929 1_565 S
H1126 C1070 0.930 . S
H1127 C1071 0.937 1_565 S
H1128 C1074 0.930 . S
H1129 C1077 0.929 . S
H1130 C1082 0.929 . S
H1131 C1083 0.930 . S
H1132 C1090 0.929 . S
H1133 C1091 0.930 . S
H1134 C1092 0.930 . S
H1135 C1093 0.930 . S
H1136 C1095 0.929 . S
H1137 C1096 0.930 . S
H1138 C1097 0.930 . S
H1139 C1098 0.930 . S
H1140 C1102 0.929 . S
H1141 C1104 0.930 . S
H1142 C1110 0.929 . S
H1143 C1111 0.930 . S
Li1144 N1161 1.990 1_655 S
Li1144 O1204 1.956 . S
Li1144 O1205 1.970 . S
Li1144 O1206 1.961 . S
Li1145 N1169 1.990 . S
Li1145 O1204 1.970 . S
Li1145 O1205 1.956 . S
Li1145 O1207 1.961 . S
Li1146 N1191 1.990 . S
Li1146 O1204 1.961 . S
Li1146 O1206 1.956 . S
Li1146 O1207 1.970 . S
Li1147 N1197 1.990 . S
Li1147 O1205 1.961 . S
Li1147 O1206 1.970 . S
Li1147 O1207 1.956 . S
C1148 C1150 1.348 . S
C1148 C1151 1.356 . S
C1148 O1204 1.325 . S
N1149 C1152 1.314 . S
N1149 C1153 1.279 . S
C1150 C1148 1.348 . S
C1150 C1152 1.353 1_655 S
C1150 H1208 0.929 . S
C1151 C1148 1.356 . S
C1151 C1153 1.358 1_655 S
C1151 H1209 0.930 . S
C1152 N1149 1.314 . S
C1152 C1150 1.353 1_455 S
C1152 H1210 0.930 . S
C1153 N1149 1.279 . S
C1153 C1151 1.358 1_455 S
C1153 H1211 0.930 . S
C1154 C1157 1.348 . S
C1154 C1158 1.356 . S
C1154 O1205 1.325 . S
C1155 N1156 1.279 . S
C1155 C1158 1.358 . S
C1155 H1212 0.930 . S
N1156 C1155 1.279 . S
N1156 C1159 1.276 1_655 S
C1157 C1154 1.348 . S
C1157 C1159 1.354 1_655 S
C1157 H1213 0.929 1_655 S
C1158 C1154 1.356 . S
C1158 C1155 1.358 . S
C1158 H1214 0.930 . S
C1159 N1156 1.276 1_455 S
C1159 C1157 1.354 1_455 S
C1159 H1215 0.974 . S
C1160 N1161 1.314 . S
C1160 C1165 1.353 . S
C1160 H1166 0.887 1_455 S
N1161 Li1144 1.990 1_455 S
N1161 C1160 1.314 . S
N1161 C1163 1.279 . S
C1162 C1163 1.358 . S
C1162 C1164 1.356 . S
C1162 H1216 0.930 . S
C1163 N1161 1.279 . S
C1163 C1162 1.358 . S
C1163 H1167 0.930 . S
C1164 C1162 1.356 . S
C1164 C1165 1.348 . S
C1165 C1160 1.353 . S
C1165 C1164 1.348 . S
C1165 H1217 0.929 . S
H1166 C1160 0.887 1_655 S
H1167 C1163 0.930 . S
C1168 N1169 1.314 . S
C1168 C1170 1.353 . S
C1168 H1174 0.930 . S
N1169 Li1145 1.990 . S
N1169 C1168 1.314 . S
N1169 C1172 1.279 . S
C1170 C1168 1.353 . S
C1170 C1173 1.348 . S
C1170 H1218 0.929 . S
C1171 C1172 1.358 . S
C1171 C1173 1.356 . S
C1171 H1219 0.930 . S
C1172 N1169 1.279 . S
C1172 C1171 1.358 . S
C1172 H1175 0.930 . S
C1173 C1170 1.348 . S
C1173 C1171 1.356 . S
H1174 C1168 0.930 . S
H1175 C1172 0.930 . S
C1176 C1178 1.348 . S
C1176 C1179 1.356 . S
C1176 O1206 1.325 . S
N1177 C1180 1.314 . S
N1177 C1181 1.279 . S
C1178 C1176 1.348 . S
C1178 C1180 1.353 . S
C1178 H1220 0.929 . S
C1179 C1176 1.356 . S
C1179 C1181 1.358 . S
C1179 H1221 0.930 . S
C1180 N1177 1.314 . S
C1180 C1178 1.353 . S
C1180 H1222 0.930 . S
C1181 N1177 1.279 . S
C1181 C1179 1.358 . S
C1181 H1223 0.930 . S
C1182 C1183 1.348 . S
C1182 C1184 1.356 . S
C1182 O1207 1.325 . S
C1183 C1182 1.348 . S
C1183 C1185 1.353 . S
C1183 H1224 0.929 . S
C1184 C1182 1.356 . S
C1184 C1186 1.358 . S
C1184 H1225 0.930 . S
C1185 C1183 1.353 . S
C1185 N1187 1.314 . S
C1185 H1226 0.930 . S
C1186 C1184 1.358 . S
C1186 N1187 1.279 . S
C1186 H1227 0.930 . S
N1187 C1185 1.314 . S
N1187 C1186 1.279 . S
C1188 C1190 1.353 . S
C1188 N1191 1.314 . S
C1188 H1194 0.930 . S
C1189 N1191 1.279 . S
C1189 C1192 1.358 . S
C1189 H1195 0.930 . S
C1190 C1188 1.353 . S
C1190 C1193 1.348 . S
C1190 H1228 0.929 . S
N1191 Li1146 1.990 . S
N1191 C1188 1.314 . S
N1191 C1189 1.279 . S
C1192 C1189 1.358 . S
C1192 C1193 1.356 . S
C1192 H1229 0.930 . S
C1193 C1190 1.348 . S
C1193 C1192 1.356 . S
H1194 C1188 0.930 . S
H1195 C1189 0.930 . S
C1196 N1197 1.314 . S
C1196 C1198 1.353 . S
C1196 H1202 0.930 . S
N1197 Li1147 1.990 . S
N1197 C1196 1.314 . S
N1197 C1200 1.279 . S
C1198 C1196 1.353 . S
C1198 C1201 1.348 . S
C1198 H1230 0.929 . S
C1199 C1200 1.358 . S
C1199 C1201 1.356 . S
C1199 H1231 0.930 . S
C1200 N1197 1.279 . S
C1200 C1199 1.358 . S
C1200 H1203 0.930 . S
C1201 C1198 1.348 . S
C1201 C1199 1.356 . S
H1202 C1196 0.930 . S
H1203 C1200 0.930 . S
O1204 Li1144 1.956 . S
O1204 Li1145 1.970 . S
O1204 Li1146 1.961 . S
O1204 C1148 1.325 . S
O1205 Li1144 1.970 . S
O1205 Li1145 1.956 . S
O1205 Li1147 1.961 . S
O1205 C1154 1.325 . S
O1206 Li1144 1.961 . S
O1206 Li1146 1.956 . S
O1206 Li1147 1.970 . S
O1206 C1176 1.325 . S
O1207 Li1145 1.961 . S
O1207 Li1146 1.970 . S
O1207 Li1147 1.956 . S
O1207 C1182 1.325 . S
H1208 C1150 0.929 . S
H1209 C1151 0.930 . S
H1210 C1152 0.930 . S
H1211 C1153 0.930 . S
H1212 C1155 0.930 . S
H1213 C1157 0.929 1_455 S
H1214 C1158 0.930 . S
H1215 C1159 0.974 . S
H1216 C1162 0.930 . S
H1217 C1165 0.929 . S
H1218 C1170 0.929 . S
H1219 C1171 0.930 . S
H1220 C1178 0.929 . S
H1221 C1179 0.930 . S
H1222 C1180 0.930 . S
H1223 C1181 0.930 . S
H1224 C1183 0.929 . S
H1225 C1184 0.930 . S
H1226 C1185 0.930 . S
H1227 C1186 0.930 . S
H1228 C1190 0.929 . S
H1229 C1192 0.930 . S
H1230 C1198 0.929 . S
H1231 C1199 0.930 . S
Li1232 N1249 1.990 . S
Li1232 O1292 1.956 . S
Li1232 O1293 1.970 . S
Li1232 O1294 1.961 . S
Li1233 N1257 1.990 . S
Li1233 O1292 1.970 . S
Li1233 O1293 1.956 . S
Li1233 O1295 1.961 . S
Li1234 N1279 1.990 . S
Li1234 O1292 1.961 . S
Li1234 O1294 1.956 . S
Li1234 O1295 1.970 . S
Li1235 N1285 1.990 . S
Li1235 O1293 1.961 . S
Li1235 O1294 1.970 . S
Li1235 O1295 1.956 . S
C1236 C1238 1.348 . S
C1236 C1239 1.356 . S
C1236 O1292 1.325 . S
N1237 C1240 1.314 . S
N1237 C1241 1.279 . S
C1238 C1236 1.348 . S
C1238 C1240 1.353 . S
C1238 H1296 0.929 . S
C1239 C1236 1.356 . S
C1239 C1241 1.358 . S
C1239 H1297 0.930 . S
C1240 N1237 1.314 . S
C1240 C1238 1.353 . S
C1240 H1298 0.930 . S
C1241 N1237 1.279 . S
C1241 C1239 1.358 . S
C1241 H1299 0.930 . S
C1242 C1245 1.348 . S
C1242 C1246 1.356 . S
C1242 O1293 1.325 . S
C1243 N1244 1.279 . S
C1243 C1246 1.358 . S
C1243 H1300 0.930 . S
N1244 C1243 1.279 . S
N1244 C1247 1.314 . S
C1245 C1242 1.348 . S
C1245 C1247 1.353 . S
C1245 H1301 0.929 . S
C1246 C1242 1.356 . S
C1246 C1243 1.358 . S
C1246 H1302 0.930 . S
C1247 N1244 1.314 . S
C1247 C1245 1.353 . S
C1247 H1303 0.930 . S
C1248 N1249 1.314 . S
C1248 C1253 1.353 . S
C1248 H1254 0.930 . S
N1249 Li1232 1.990 . S
N1249 C1248 1.314 . S
N1249 C1251 1.279 . S
C1250 C1251 1.358 . S
C1250 C1252 1.356 . S
C1250 H1304 0.930 . S
C1251 N1249 1.279 . S
C1251 C1250 1.358 . S
C1251 H1255 0.930 . S
C1252 C1250 1.356 . S
C1252 C1253 1.348 . S
C1253 C1248 1.353 . S
C1253 C1252 1.348 . S
C1253 H1305 0.929 . S
H1254 C1248 0.930 . S
H1255 C1251 0.930 . S
C1256 N1257 1.314 . S
C1256 C1258 1.353 . S
C1256 H1262 0.930 . S
N1257 Li1233 1.990 . S
N1257 C1256 1.314 . S
N1257 C1260 1.279 . S
C1258 C1256 1.353 . S
C1258 C1261 1.348 . S
C1258 H1306 0.929 . S
C1259 C1260 1.358 . S
C1259 C1261 1.356 . S
C1259 H1307 0.930 . S
C1260 N1257 1.279 . S
C1260 C1259 1.358 . S
C1260 H1263 0.930 . S
C1261 C1258 1.348 . S
C1261 C1259 1.356 . S
H1262 C1256 0.930 . S
H1263 C1260 0.930 . S
C1264 C1266 1.348 . S
C1264 C1267 1.356 . S
C1264 O1294 1.325 . S
N1265 C1268 1.314 . S
N1265 C1269 1.279 . S
C1266 C1264 1.348 . S
C1266 C1268 1.353 . S
C1266 H1308 0.929 . S
C1267 C1264 1.356 . S
C1267 C1269 1.358 . S
C1267 H1309 0.930 . S
C1268 N1265 1.314 . S
C1268 C1266 1.353 . S
C1268 H1310 0.930 . S
C1269 N1265 1.279 . S
C1269 C1267 1.358 . S
C1269 H1311 0.930 . S
C1270 C1271 1.348 . S
C1270 C1272 1.356 . S
C1270 O1295 1.325 . S
C1271 C1270 1.348 . S
C1271 C1273 1.353 . S
C1271 H1312 0.929 . S
C1272 C1270 1.356 . S
C1272 C1274 1.358 . S
C1272 H1313 0.930 . S
C1273 C1271 1.353 . S
C1273 N1275 1.314 . S
C1273 H1314 0.930 . S
C1274 C1272 1.358 . S
C1274 N1275 1.279 . S
C1274 H1315 0.930 . S
N1275 C1273 1.314 . S
N1275 C1274 1.279 . S
C1276 C1278 1.353 . S
C1276 N1279 1.314 . S
C1276 H1282 0.930 . S
C1277 N1279 1.279 . S
C1277 C1280 1.358 . S
C1277 H1283 0.930 . S
C1278 C1276 1.353 . S
C1278 C1281 1.348 . S
C1278 H1316 0.929 . S
N1279 Li1234 1.990 . S
N1279 C1276 1.314 . S
N1279 C1277 1.279 . S
C1280 C1277 1.358 . S
C1280 C1281 1.356 . S
C1280 H1317 0.930 . S
C1281 C1278 1.348 . S
C1281 C1280 1.356 . S
H1282 C1276 0.930 . S
H1283 C1277 0.930 . S
C1284 N1285 1.314 . S
C1284 C1286 1.353 . S
C1284 H1290 0.930 . S
N1285 Li1235 1.990 . S
N1285 C1284 1.314 . S
N1285 C1288 1.279 . S
C1286 C1284 1.353 . S
C1286 C1289 1.348 . S
C1286 H1318 0.929 . S
C1287 C1288 1.358 . S
C1287 C1289 1.356 . S
C1287 H1319 0.930 . S
C1288 N1285 1.279 . S
C1288 C1287 1.358 . S
C1288 H1291 0.930 . S
C1289 C1286 1.348 . S
C1289 C1287 1.356 . S
H1290 C1284 0.930 . S
H1291 C1288 0.930 . S
O1292 Li1232 1.956 . S
O1292 Li1233 1.970 . S
O1292 Li1234 1.961 . S
O1292 C1236 1.325 . S
O1293 Li1232 1.970 . S
O1293 Li1233 1.956 . S
O1293 Li1235 1.961 . S
O1293 C1242 1.325 . S
O1294 Li1232 1.961 . S
O1294 Li1234 1.956 . S
O1294 Li1235 1.970 . S
O1294 C1264 1.325 . S
O1295 Li1233 1.961 . S
O1295 Li1234 1.970 . S
O1295 Li1235 1.956 . S
O1295 C1270 1.325 . S
H1296 C1238 0.929 . S
H1297 C1239 0.930 . S
H1298 C1240 0.930 . S
H1299 C1241 0.930 . S
H1300 C1243 0.930 . S
H1301 C1245 0.929 . S
H1302 C1246 0.930 . S
H1303 C1247 0.930 . S
H1304 C1250 0.930 . S
H1305 C1253 0.929 . S
H1306 C1258 0.929 . S
H1307 C1259 0.930 . S
H1308 C1266 0.929 . S
H1309 C1267 0.930 . S
H1310 C1268 0.930 . S
H1311 C1269 0.930 . S
H1312 C1271 0.929 . S
H1313 C1272 0.930 . S
H1314 C1273 0.930 . S
H1315 C1274 0.930 . S
H1316 C1278 0.929 . S
H1317 C1280 0.930 . S
H1318 C1286 0.929 . S
H1319 C1287 0.930 . S
Li1320 N1337 1.990 . S
Li1320 O1380 1.956 . S
Li1320 O1381 1.970 . S
Li1320 O1382 1.961 . S
Li1321 N1345 1.990 . S
Li1321 O1380 1.970 . S
Li1321 O1381 1.956 . S
Li1321 O1383 1.961 . S
Li1322 N1367 1.990 . S
Li1322 O1380 1.961 . S
Li1322 O1382 1.956 . S
Li1322 O1383 1.970 . S
Li1323 N1373 1.990 . S
Li1323 O1381 1.961 . S
Li1323 O1382 1.970 . S
Li1323 O1383 1.956 . S
C1324 C1326 1.348 . S
C1324 C1327 1.356 . S
C1324 O1380 1.325 . S
N1325 C1328 1.314 . S
N1325 C1329 1.279 . S
C1326 C1324 1.348 . S
C1326 C1328 1.353 . S
C1326 H1384 0.929 . S
C1327 C1324 1.356 . S
C1327 C1329 1.358 . S
C1327 H1385 0.930 . S
C1328 N1325 1.314 . S
C1328 C1326 1.353 . S
C1328 H1386 0.930 . S
C1329 N1325 1.279 . S
C1329 C1327 1.358 . S
C1329 H1387 0.930 . S
C1330 C1333 1.348 . S
C1330 C1334 1.356 . S
C1330 O1381 1.325 . S
C1331 N1332 1.279 . S
C1331 C1334 1.358 . S
C1331 H1388 0.930 . S
N1332 C1331 1.279 . S
N1332 C1335 1.314 . S
C1333 C1330 1.348 . S
C1333 C1335 1.353 . S
C1333 H1389 0.929 . S
C1334 C1330 1.356 . S
C1334 C1331 1.358 . S
C1334 H1390 0.930 . S
C1335 N1332 1.314 . S
C1335 C1333 1.353 . S
C1335 H1391 0.930 . S
C1336 N1337 1.314 . S
C1336 C1341 1.353 . S
C1336 H1342 0.930 . S
N1337 Li1320 1.990 . S
N1337 C1336 1.314 . S
N1337 C1339 1.279 . S
C1338 C1339 1.358 . S
C1338 C1340 1.356 . S
C1338 H1392 0.930 . S
C1339 N1337 1.279 . S
C1339 C1338 1.358 . S
C1339 H1343 0.930 . S
C1340 C1338 1.356 . S
C1340 C1341 1.348 . S
C1341 C1336 1.353 . S
C1341 C1340 1.348 . S
C1341 H1393 0.929 . S
H1342 C1336 0.930 . S
H1343 C1339 0.930 . S
C1344 N1345 1.314 . S
C1344 C1346 1.353 . S
C1344 H1350 0.930 . S
N1345 Li1321 1.990 . S
N1345 C1344 1.314 . S
N1345 C1348 1.279 . S
C1346 C1344 1.353 . S
C1346 C1349 1.348 . S
C1346 H1394 0.929 . S
C1347 C1348 1.358 . S
C1347 C1349 1.356 . S
C1347 H1395 0.930 . S
C1348 N1345 1.279 . S
C1348 C1347 1.358 . S
C1348 H1351 0.930 . S
C1349 C1346 1.348 . S
C1349 C1347 1.356 . S
H1350 C1344 0.930 . S
H1351 C1348 0.930 . S
C1352 C1354 1.348 . S
C1352 C1355 1.356 . S
C1352 O1382 1.325 . S
N1353 C1356 1.314 . S
N1353 C1357 1.279 . S
C1354 C1352 1.348 . S
C1354 C1356 1.353 . S
C1354 H1396 0.929 . S
C1355 C1352 1.356 . S
C1355 C1357 1.358 . S
C1355 H1397 0.930 . S
C1356 N1353 1.314 . S
C1356 C1354 1.353 . S
C1356 H1398 0.930 . S
C1357 N1353 1.279 . S
C1357 C1355 1.358 . S
C1357 H1399 0.930 . S
C1358 C1359 1.348 . S
C1358 C1360 1.356 . S
C1358 O1383 1.325 . S
C1359 C1358 1.348 . S
C1359 C1361 1.353 . S
C1359 H1400 0.929 . S
C1360 C1358 1.356 . S
C1360 C1362 1.358 . S
C1360 H1401 0.930 . S
C1361 C1359 1.353 . S
C1361 N1363 1.314 . S
C1361 H1402 0.930 . S
C1362 C1360 1.358 . S
C1362 N1363 1.279 . S
C1362 H1403 0.930 . S
N1363 C1361 1.314 . S
N1363 C1362 1.279 . S
C1364 C1366 1.353 . S
C1364 N1367 1.314 . S
C1364 H1370 0.930 . S
C1365 N1367 1.279 . S
C1365 C1368 1.358 . S
C1365 H1371 0.930 . S
C1366 C1364 1.353 . S
C1366 C1369 1.348 . S
C1366 H1404 0.929 . S
N1367 Li1322 1.990 . S
N1367 C1364 1.314 . S
N1367 C1365 1.279 . S
C1368 C1365 1.358 . S
C1368 C1369 1.356 . S
C1368 H1405 0.930 . S
C1369 C1366 1.348 . S
C1369 C1368 1.356 . S
H1370 C1364 0.930 . S
H1371 C1365 0.930 . S
C1372 N1373 1.314 . S
C1372 C1374 1.353 . S
C1372 H1378 0.930 . S
N1373 Li1323 1.990 . S
N1373 C1372 1.314 . S
N1373 C1376 1.279 . S
C1374 C1372 1.353 . S
C1374 C1377 1.348 . S
C1374 H1406 0.929 . S
C1375 C1376 1.358 . S
C1375 C1377 1.356 . S
C1375 H1407 0.930 . S
C1376 N1373 1.279 . S
C1376 C1375 1.358 . S
C1376 H1379 0.930 . S
C1377 C1374 1.348 . S
C1377 C1375 1.356 . S
H1378 C1372 0.930 . S
H1379 C1376 0.930 . S
O1380 Li1320 1.956 . S
O1380 Li1321 1.970 . S
O1380 Li1322 1.961 . S
O1380 C1324 1.325 . S
O1381 Li1320 1.970 . S
O1381 Li1321 1.956 . S
O1381 Li1323 1.961 . S
O1381 C1330 1.325 . S
O1382 Li1320 1.961 . S
O1382 Li1322 1.956 . S
O1382 Li1323 1.970 . S
O1382 C1352 1.325 . S
O1383 Li1321 1.961 . S
O1383 Li1322 1.970 . S
O1383 Li1323 1.956 . S
O1383 C1358 1.325 . S
H1384 C1326 0.929 . S
H1385 C1327 0.930 . S
H1386 C1328 0.930 . S
H1387 C1329 0.930 . S
H1388 C1331 0.930 . S
H1389 C1333 0.929 . S
H1390 C1334 0.930 . S
H1391 C1335 0.930 . S
H1392 C1338 0.930 . S
H1393 C1341 0.929 . S
H1394 C1346 0.929 . S
H1395 C1347 0.930 . S
H1396 C1354 0.929 . S
H1397 C1355 0.930 . S
H1398 C1356 0.930 . S
H1399 C1357 0.930 . S
H1400 C1359 0.929 . S
H1401 C1360 0.930 . S
H1402 C1361 0.930 . S
H1403 C1362 0.930 . S
H1404 C1366 0.929 . S
H1405 C1368 0.930 . S
H1406 C1374 0.929 . S
H1407 C1375 0.930 . S
Li1408 N1425 1.990 . S
Li1408 O1468 1.956 . S
Li1408 O1469 1.970 . S
Li1408 O1470 1.961 . S
Li1409 N1433 1.990 . S
Li1409 O1468 1.970 . S
Li1409 O1469 1.956 . S
Li1409 O1471 1.961 . S
Li1410 N1455 1.990 . S
Li1410 O1468 1.961 . S
Li1410 O1470 1.956 . S
Li1410 O1471 1.970 . S
Li1411 N1461 1.990 1_545 S
Li1411 O1469 1.961 . S
Li1411 O1470 1.970 . S
Li1411 O1471 1.956 . S
C1412 C1414 1.348 . S
C1412 C1415 1.356 . S
C1412 O1468 1.325 . S
N1413 C1416 1.314 . S
N1413 C1417 1.279 . S
C1414 C1412 1.348 . S
C1414 C1416 1.353 . S
C1414 H1472 0.929 . S
C1415 C1412 1.356 . S
C1415 C1417 1.358 . S
C1415 H1473 0.930 . S
C1416 N1413 1.314 . S
C1416 C1414 1.353 . S
C1416 H1474 0.930 . S
C1417 N1413 1.279 . S
C1417 C1415 1.358 . S
C1417 H1475 0.930 . S
C1418 C1421 1.348 . S
C1418 C1422 1.356 . S
C1418 O1469 1.325 . S
C1419 N1420 1.279 . S
C1419 C1422 1.358 1_565 S
C1419 H1476 0.930 . S
N1420 C1419 1.279 . S
N1420 C1423 1.314 1_565 S
C1421 C1418 1.348 . S
C1421 C1423 1.353 . S
C1421 H1477 0.929 . S
C1422 C1418 1.356 . S
C1422 C1419 1.358 1_545 S
C1422 H1478 0.930 . S
C1423 N1420 1.314 1_545 S
C1423 C1421 1.353 . S
C1423 H1479 0.930 . S
C1424 N1425 1.314 . S
C1424 C1429 1.353 . S
C1424 H1430 0.930 . S
N1425 Li1408 1.990 . S
N1425 C1424 1.314 . S
N1425 C1427 1.279 . S
C1426 C1427 1.358 . S
C1426 C1428 1.356 . S
C1426 H1480 0.930 . S
C1427 N1425 1.279 . S
C1427 C1426 1.358 . S
C1427 H1431 0.930 . S
C1428 C1426 1.356 . S
C1428 C1429 1.348 . S
C1429 C1424 1.353 . S
C1429 C1428 1.348 . S
C1429 H1481 0.929 . S
H1430 C1424 0.930 . S
H1431 C1427 0.930 . S
C1432 N1433 1.314 . S
C1432 C1434 1.353 . S
C1432 H1438 0.930 . S
N1433 Li1409 1.990 . S
N1433 C1432 1.314 . S
N1433 C1436 1.279 . S
C1434 C1432 1.353 . S
C1434 C1437 1.348 . S
C1434 H1482 0.929 . S
C1435 C1436 1.358 . S
C1435 C1437 1.356 . S
C1435 H1483 0.930 . S
C1436 N1433 1.279 . S
C1436 C1435 1.358 . S
C1436 H1439 0.930 . S
C1437 C1434 1.348 . S
C1437 C1435 1.356 . S
H1438 C1432 0.930 . S
H1439 C1436 0.930 . S
C1440 C1442 1.348 . S
C1440 C1443 1.356 . S
C1440 O1470 1.325 . S
N1441 C1444 1.314 . S
N1441 C1445 1.279 . S
C1442 C1440 1.348 . S
C1442 C1444 1.353 . S
C1442 H1484 0.929 . S
C1443 C1440 1.356 . S
C1443 C1445 1.358 . S
C1443 H1485 0.930 . S
C1444 N1441 1.314 . S
C1444 C1442 1.353 . S
C1444 H1486 0.930 1_545 S
C1445 N1441 1.279 . S
C1445 C1443 1.358 . S
C1445 H1487 0.930 . S
C1446 C1447 1.348 . S
C1446 C1448 1.356 . S
C1446 O1471 1.325 . S
C1447 C1446 1.348 . S
C1447 C1449 1.353 . S
C1447 H1488 0.929 . S
C1448 C1446 1.356 . S
C1448 C1450 1.358 . S
C1448 H1489 0.930 . S
C1449 C1447 1.353 . S
C1449 N1451 1.314 . S
C1449 H1490 0.930 . S
C1450 C1448 1.358 . S
C1450 N1451 1.279 . S
C1450 H1491 0.930 . S
N1451 C1449 1.314 . S
N1451 C1450 1.279 . S
C1452 C1454 1.353 . S
C1452 N1455 1.314 . S
C1452 H1458 0.930 . S
C1453 N1455 1.279 . S
C1453 C1456 1.358 . S
C1453 H1459 0.930 . S
C1454 C1452 1.353 . S
C1454 C1457 1.348 . S
C1454 H1492 0.929 . S
N1455 Li1410 1.990 . S
N1455 C1452 1.314 . S
N1455 C1453 1.279 . S
C1456 C1453 1.358 . S
C1456 C1457 1.356 . S
C1456 H1493 0.930 . S
C1457 C1454 1.348 . S
C1457 C1456 1.356 . S
H1458 C1452 0.930 . S
H1459 C1453 0.930 . S
C1460 N1461 1.314 . S
C1460 C1462 1.353 . S
C1460 H1466 0.930 . S
N1461 Li1411 1.990 1_565 S
N1461 C1460 1.314 . S
N1461 C1464 1.279 . S
C1462 C1460 1.353 . S
C1462 C1465 1.348 . S
C1462 H1494 0.929 . S
C1463 C1464 1.358 . S
C1463 C1465 1.356 . S
C1463 H1495 0.930 . S
C1464 N1461 1.279 . S
C1464 C1463 1.358 . S
C1464 H1467 0.930 1_565 S
C1465 C1462 1.348 . S
C1465 C1463 1.356 . S
H1466 C1460 0.930 . S
H1467 C1464 0.930 1_545 S
O1468 Li1408 1.956 . S
O1468 Li1409 1.970 . S
O1468 Li1410 1.961 . S
O1468 C1412 1.325 . S
O1469 Li1408 1.970 . S
O1469 Li1409 1.956 . S
O1469 Li1411 1.961 . S
O1469 C1418 1.325 . S
O1470 Li1408 1.961 . S
O1470 Li1410 1.956 . S
O1470 Li1411 1.970 . S
O1470 C1440 1.325 . S
O1471 Li1409 1.961 . S
O1471 Li1410 1.970 . S
O1471 Li1411 1.956 . S
O1471 C1446 1.325 . S
H1472 C1414 0.929 . S
H1473 C1415 0.930 . S
H1474 C1416 0.930 . S
H1475 C1417 0.930 . S
H1476 C1419 0.930 . S
H1477 C1421 0.929 . S
H1478 C1422 0.930 . S
H1479 C1423 0.930 . S
H1480 C1426 0.930 . S
H1481 C1429 0.929 . S
H1482 C1434 0.929 . S
H1483 C1435 0.930 . S
H1484 C1442 0.929 . S
H1485 C1443 0.930 . S
H1486 C1444 0.930 1_565 S
H1487 C1445 0.930 . S
H1488 C1447 0.929 . S
H1489 C1448 0.930 . S
H1490 C1449 0.930 . S
H1491 C1450 0.930 . S
H1492 C1454 0.929 . S
H1493 C1456 0.930 . S
H1494 C1462 0.929 . S
H1495 C1463 0.930 . S
Li1496 N1513 1.990 . S
Li1496 O1556 1.956 . S
Li1496 O1557 1.970 . S
Li1496 O1558 1.961 . S
Li1497 N1521 1.990 . S
Li1497 O1556 1.970 . S
Li1497 O1557 1.956 . S
Li1497 O1559 1.961 . S
Li1498 N1543 1.990 1_655 S
Li1498 O1556 1.961 . S
Li1498 O1558 1.956 . S
Li1498 O1559 1.970 . S
Li1499 N1549 1.990 . S
Li1499 O1557 1.961 . S
Li1499 O1558 1.970 . S
Li1499 O1559 1.956 . S
C1500 C1502 1.348 . S
C1500 C1503 1.356 . S
C1500 O1556 1.325 . S
N1501 C1504 1.314 1_455 S
N1501 C1505 1.279 . S
C1502 C1500 1.348 . S
C1502 C1504 1.353 . S
C1502 H1560 0.929 . S
C1503 C1500 1.356 . S
C1503 C1505 1.358 1_655 S
C1503 H1561 0.930 . S
C1504 N1501 1.314 1_655 S
C1504 C1502 1.353 . S
C1504 H1562 0.930 . S
C1505 N1501 1.279 . S
C1505 C1503 1.358 1_455 S
C1505 H1563 0.930 . S
C1506 C1509 1.348 . S
C1506 C1510 1.356 . S
C1506 O1557 1.325 . S
C1507 N1508 1.279 . S
C1507 C1510 1.358 . S
C1507 H1564 0.930 . S
N1508 C1507 1.279 . S
N1508 C1511 1.314 . S
C1509 C1506 1.348 . S
C1509 C1511 1.353 . S
C1509 H1565 0.929 . S
C1510 C1506 1.356 . S
C1510 C1507 1.358 . S
C1510 H1566 0.930 . S
C1511 N1508 1.314 . S
C1511 C1509 1.353 . S
C1511 H1567 0.930 . S
C1512 N1513 1.314 . S
C1512 C1517 1.353 . S
C1512 H1518 0.930 . S
N1513 Li1496 1.990 . S
N1513 C1512 1.314 . S
N1513 C1515 1.279 . S
C1514 C1515 1.358 . S
C1514 C1516 1.356 . S
C1514 H1568 0.930 . S
C1515 N1513 1.279 . S
C1515 C1514 1.358 . S
C1515 H1519 0.930 . S
C1516 C1514 1.356 . S
C1516 C1517 1.348 . S
C1517 C1512 1.353 . S
C1517 C1516 1.348 . S
C1517 H1569 0.929 . S
H1518 C1512 0.930 . S
H1519 C1515 0.930 . S
C1520 N1521 1.314 . S
C1520 C1522 1.353 . S
C1520 H1526 0.930 . S
N1521 Li1497 1.990 . S
N1521 C1520 1.314 . S
N1521 C1524 1.279 . S
C1522 C1520 1.353 . S
C1522 C1525 1.348 . S
C1522 H1570 0.929 . S
C1523 C1524 1.358 . S
C1523 C1525 1.356 . S
C1523 H1571 0.930 . S
C1524 N1521 1.279 . S
C1524 C1523 1.358 . S
C1524 H1527 0.930 . S
C1525 C1522 1.348 . S
C1525 C1523 1.356 . S
H1526 C1520 0.930 . S
H1527 C1524 0.930 . S
C1528 C1530 1.348 . S
C1528 C1531 1.356 . S
C1528 O1558 1.325 . S
N1529 C1532 1.314 . S
N1529 C1533 1.279 . S
C1530 C1528 1.348 . S
C1530 C1532 1.353 . S
C1530 H1572 0.929 . S
C1531 C1528 1.356 . S
C1531 C1533 1.358 . S
C1531 H1573 0.930 . S
C1532 N1529 1.314 . S
C1532 C1530 1.353 . S
C1532 H1574 0.930 . S
C1533 N1529 1.279 . S
C1533 C1531 1.358 . S
C1533 H1575 0.930 . S
C1534 C1535 1.348 . S
C1534 C1536 1.356 . S
C1534 O1559 1.325 . S
C1535 C1534 1.348 . S
C1535 C1537 1.353 . S
C1535 H1576 0.929 . S
C1536 C1534 1.356 . S
C1536 C1538 1.358 . S
C1536 H1577 0.930 . S
C1537 C1535 1.353 . S
C1537 N1539 1.314 . S
C1537 H1578 0.930 1_655 S
C1538 C1536 1.358 . S
C1538 N1539 1.279 . S
C1538 H1579 0.930 . S
N1539 C1537 1.314 . S
N1539 C1538 1.279 . S
C1540 C1542 1.353 . S
C1540 N1543 1.314 . S
C1540 H1546 0.930 . S
C1541 N1543 1.279 . S
C1541 C1544 1.358 . S
C1541 H1547 0.930 1_455 S
C1542 C1540 1.353 . S
C1542 C1545 1.348 . S
C1542 H1580 0.929 . S
N1543 Li1498 1.990 1_455 S
N1543 C1540 1.314 . S
N1543 C1541 1.279 . S
C1544 C1541 1.358 . S
C1544 C1545 1.356 . S
C1544 H1581 0.930 . S
C1545 C1542 1.348 . S
C1545 C1544 1.356 . S
H1546 C1540 0.930 . S
H1547 C1541 0.930 1_655 S
C1548 N1549 1.314 . S
C1548 C1550 1.353 . S
C1548 H1554 0.930 . S
N1549 Li1499 1.990 . S
N1549 C1548 1.314 . S
N1549 C1552 1.279 . S
C1550 C1548 1.353 . S
C1550 C1553 1.348 . S
C1550 H1582 0.929 . S
C1551 C1552 1.358 . S
C1551 C1553 1.356 . S
C1551 H1583 0.930 . S
C1552 N1549 1.279 . S
C1552 C1551 1.358 . S
C1552 H1555 0.930 . S
C1553 C1550 1.348 . S
C1553 C1551 1.356 . S
H1554 C1548 0.930 . S
H1555 C1552 0.930 . S
O1556 Li1496 1.956 . S
O1556 Li1497 1.970 . S
O1556 Li1498 1.961 . S
O1556 C1500 1.325 . S
O1557 Li1496 1.970 . S
O1557 Li1497 1.956 . S
O1557 Li1499 1.961 . S
O1557 C1506 1.325 . S
O1558 Li1496 1.961 . S
O1558 Li1498 1.956 . S
O1558 Li1499 1.970 . S
O1558 C1528 1.325 . S
O1559 Li1497 1.961 . S
O1559 Li1498 1.970 . S
O1559 Li1499 1.956 . S
O1559 C1534 1.325 . S
H1560 C1502 0.929 . S
H1561 C1503 0.930 . S
H1562 C1504 0.930 . S
H1563 C1505 0.930 . S
H1564 C1507 0.930 . S
H1565 C1509 0.929 . S
H1566 C1510 0.930 . S
H1567 C1511 0.930 . S
H1568 C1514 0.930 . S
H1569 C1517 0.929 . S
H1570 C1522 0.929 . S
H1571 C1523 0.930 . S
H1572 C1530 0.929 . S
H1573 C1531 0.930 . S
H1574 C1532 0.930 . S
H1575 C1533 0.930 . S
H1576 C1535 0.929 . S
H1577 C1536 0.930 . S
H1578 C1537 0.930 1_455 S
H1579 C1538 0.930 . S
H1580 C1542 0.929 . S
H1581 C1544 0.930 . S
H1582 C1550 0.929 . S
H1583 C1551 0.930 . S
H1584 C1611 0.929 . S
N1585 C1610 1.433 . S
N1585 C1616 1.435 . S
N1585 C1622 1.423 . S
H1586 C1612 0.930 . S
H1587 C1615 0.931 . S
H1588 C1614 0.929 . S
H1589 C1617 0.930 . S
H1590 C1618 0.932 . S
H1591 C1621 0.929 . S
H1592 C1620 0.931 . S
H1593 C1623 0.929 . S
H1594 C1627 0.932 . S
H1595 C1624 0.931 . S
H1596 C1626 0.929 . S
H1597 C1629 0.929 . S
H1598 C1630 0.930 . S
H1599 C1632 0.929 . S
H1600 C1633 0.931 . S
H1601 C1635 0.930 . S
H1602 C1636 0.932 . S
H1603 C1638 0.931 . S
H1604 C1639 0.929 . S
H1605 C1641 0.929 . S
H1606 C1642 0.931 . S
H1607 C1644 0.929 . S
N1608 C1628 1.433 . S
N1608 C1634 1.435 . S
N1608 C1640 1.423 . S
H1609 C1645 0.932 . S
C1610 N1585 1.433 . S
C1610 C1611 1.363 . S
C1610 C1615 1.370 . S
C1611 H1584 0.929 . S
C1611 C1610 1.363 . S
C1611 C1612 1.385 . S
C1612 H1586 0.930 . S
C1612 C1611 1.385 . S
C1612 C1613 1.357 . S
C1613 C1612 1.357 . S
C1613 C1614 1.406 . S
C1614 H1588 0.929 . S
C1614 C1613 1.406 . S
C1614 C1615 1.391 . S
C1615 H1587 0.931 . S
C1615 C1610 1.370 . S
C1615 C1614 1.391 . S
C1616 N1585 1.435 . S
C1616 C1617 1.358 . S
C1616 C1621 1.371 . S
C1617 H1589 0.930 . S
C1617 C1616 1.358 . S
C1617 C1618 1.405 . S
C1618 H1590 0.932 . S
C1618 C1617 1.405 . S
C1618 C1619 1.383 . S
C1619 C1618 1.383 . S
C1619 C1620 1.393 . S
C1620 H1592 0.931 . S
C1620 C1619 1.393 . S
C1620 C1621 1.382 . S
C1621 H1591 0.929 . S
C1621 C1616 1.371 . S
C1621 C1620 1.382 . S
C1622 N1585 1.423 . S
C1622 C1623 1.362 . S
C1622 C1627 1.388 . S
C1623 H1593 0.929 . S
C1623 C1622 1.362 . S
C1623 C1624 1.376 . S
C1624 H1595 0.931 . S
C1624 C1623 1.376 . S
C1624 C1625 1.396 . S
C1625 C1624 1.396 . S
C1625 C1626 1.348 . S
C1625 C1643 1.472 . S
C1626 H1596 0.929 . S
C1626 C1625 1.348 . S
C1626 C1627 1.443 . S
C1627 H1594 0.932 . S
C1627 C1622 1.388 . S
C1627 C1626 1.443 . S
C1628 N1608 1.433 . S
C1628 C1629 1.363 . S
C1628 C1633 1.370 . S
C1629 H1597 0.929 . S
C1629 C1628 1.363 . S
C1629 C1630 1.385 . S
C1630 H1598 0.930 . S
C1630 C1629 1.385 . S
C1630 C1631 1.357 . S
C1631 C1630 1.357 . S
C1631 C1632 1.406 . S
C1632 H1599 0.929 . S
C1632 C1631 1.406 . S
C1632 C1633 1.391 . S
C1633 H1600 0.931 . S
C1633 C1628 1.370 . S
C1633 C1632 1.391 . S
C1634 N1608 1.435 . S
C1634 C1635 1.358 . S
C1634 C1639 1.371 . S
C1635 H1601 0.930 . S
C1635 C1634 1.358 . S
C1635 C1636 1.405 . S
C1636 H1602 0.932 . S
C1636 C1635 1.405 . S
C1636 C1637 1.383 . S
C1637 C1636 1.383 . S
C1637 C1638 1.393 . S
C1638 H1603 0.931 . S
C1638 C1637 1.393 . S
C1638 C1639 1.382 . S
C1639 H1604 0.929 . S
C1639 C1634 1.371 . S
C1639 C1638 1.382 . S
C1640 N1608 1.423 . S
C1640 C1641 1.362 . S
C1640 C1645 1.388 . S
C1641 H1605 0.929 . S
C1641 C1640 1.362 . S
C1641 C1642 1.376 . S
C1642 H1606 0.931 . S
C1642 C1641 1.376 . S
C1642 C1643 1.396 . S
C1643 C1625 1.472 . S
C1643 C1642 1.396 . S
C1643 C1644 1.348 . S
C1644 H1607 0.929 . S
C1644 C1643 1.348 . S
C1644 C1645 1.443 . S
C1645 H1609 0.932 . S
C1645 C1640 1.388 . S
C1645 C1644 1.443 . S
H1646 C1673 0.929 . S
N1647 C1672 1.433 . S
N1647 C1678 1.435 . S
N1647 C1684 1.423 . S
H1648 C1674 0.930 . S
H1649 C1677 0.931 . S
H1650 C1676 0.929 . S
H1651 C1679 0.930 . S
H1652 C1680 0.932 . S
H1653 C1683 0.929 . S
H1654 C1682 0.931 . S
H1655 C1685 0.929 . S
H1656 C1689 0.932 . S
H1657 C1686 0.931 . S
H1658 C1688 0.929 . S
H1659 C1691 0.929 . S
H1660 C1692 0.930 . S
H1661 C1694 0.929 . S
H1662 C1695 0.931 . S
H1663 C1697 0.930 . S
H1664 C1698 0.932 . S
H1665 C1700 0.931 . S
H1666 C1701 0.929 . S
H1667 C1703 0.929 . S
H1668 C1704 0.931 . S
H1669 C1706 0.929 . S
N1670 C1690 1.433 . S
N1670 C1696 1.435 . S
N1670 C1702 1.423 . S
H1671 C1707 0.932 . S
C1672 N1647 1.433 . S
C1672 C1673 1.363 . S
C1672 C1677 1.370 . S
C1673 H1646 0.929 . S
C1673 C1672 1.363 . S
C1673 C1674 1.385 . S
C1674 H1648 0.930 . S
C1674 C1673 1.385 . S
C1674 C1675 1.357 . S
C1675 C1674 1.357 . S
C1675 C1676 1.406 . S
C1676 H1650 0.929 . S
C1676 C1675 1.406 . S
C1676 C1677 1.391 . S
C1677 H1649 0.931 . S
C1677 C1672 1.370 . S
C1677 C1676 1.391 . S
C1678 N1647 1.435 . S
C1678 C1679 1.358 . S
C1678 C1683 1.371 . S
C1679 H1651 0.930 . S
C1679 C1678 1.358 . S
C1679 C1680 1.405 . S
C1680 H1652 0.932 . S
C1680 C1679 1.405 . S
C1680 C1681 1.383 . S
C1681 C1680 1.383 . S
C1681 C1682 1.393 . S
C1682 H1654 0.931 . S
C1682 C1681 1.393 . S
C1682 C1683 1.382 . S
C1683 H1653 0.929 . S
C1683 C1678 1.371 . S
C1683 C1682 1.382 . S
C1684 N1647 1.423 . S
C1684 C1685 1.362 . S
C1684 C1689 1.388 . S
C1685 H1655 0.929 . S
C1685 C1684 1.362 . S
C1685 C1686 1.376 . S
C1686 H1657 0.931 . S
C1686 C1685 1.376 . S
C1686 C1687 1.396 . S
C1687 C1686 1.396 . S
C1687 C1688 1.348 . S
C1687 C1705 1.472 . S
C1688 H1658 0.929 . S
C1688 C1687 1.348 . S
C1688 C1689 1.443 . S
C1689 H1656 0.932 . S
C1689 C1684 1.388 . S
C1689 C1688 1.443 . S
C1690 N1670 1.433 . S
C1690 C1691 1.363 . S
C1690 C1695 1.370 . S
C1691 H1659 0.929 . S
C1691 C1690 1.363 . S
C1691 C1692 1.385 . S
C1692 H1660 0.930 . S
C1692 C1691 1.385 . S
C1692 C1693 1.357 . S
C1693 C1692 1.357 . S
C1693 C1694 1.406 . S
C1694 H1661 0.929 . S
C1694 C1693 1.406 . S
C1694 C1695 1.391 . S
C1695 H1662 0.931 . S
C1695 C1690 1.370 . S
C1695 C1694 1.391 . S
C1696 N1670 1.435 . S
C1696 C1697 1.358 . S
C1696 C1701 1.371 . S
C1697 H1663 0.930 . S
C1697 C1696 1.358 . S
C1697 C1698 1.405 . S
C1698 H1664 0.932 . S
C1698 C1697 1.405 . S
C1698 C1699 1.383 . S
C1699 C1698 1.383 . S
C1699 C1700 1.393 . S
C1700 H1665 0.931 . S
C1700 C1699 1.393 . S
C1700 C1701 1.382 . S
C1701 H1666 0.929 . S
C1701 C1696 1.371 . S
C1701 C1700 1.382 . S
C1702 N1670 1.423 . S
C1702 C1703 1.362 . S
C1702 C1707 1.388 . S
C1703 H1667 0.929 . S
C1703 C1702 1.362 . S
C1703 C1704 1.376 . S
C1704 H1668 0.931 . S
C1704 C1703 1.376 . S
C1704 C1705 1.396 . S
C1705 C1687 1.472 . S
C1705 C1704 1.396 . S
C1705 C1706 1.348 . S
C1706 H1669 0.929 . S
C1706 C1705 1.348 . S
C1706 C1707 1.443 . S
C1707 H1671 0.932 . S
C1707 C1702 1.388 . S
C1707 C1706 1.443 . S
H1708 C1735 0.929 . S
N1709 C1734 1.433 . S
N1709 C1740 1.435 . S
N1709 C1746 1.423 . S
H1710 C1736 0.930 . S
H1711 C1739 0.931 . S
H1712 C1738 0.929 . S
H1713 C1741 0.930 . S
H1714 C1742 0.932 . S
H1715 C1745 0.929 . S
H1716 C1744 0.931 . S
H1717 C1747 0.929 . S
H1718 C1751 0.932 . S
H1719 C1748 0.931 . S
H1720 C1750 0.929 . S
H1721 C1753 0.929 . S
H1722 C1754 0.930 . S
H1723 C1756 0.929 . S
H1724 C1757 0.931 . S
H1725 C1759 0.930 . S
H1726 C1760 0.932 . S
H1727 C1762 0.931 . S
H1728 C1763 0.929 . S
H1729 C1765 0.929 . S
H1730 C1766 0.931 . S
H1731 C1768 0.929 . S
N1732 C1752 1.433 . S
N1732 C1758 1.435 . S
N1732 C1764 1.423 . S
H1733 C1769 0.932 . S
C1734 N1709 1.433 . S
C1734 C1735 1.363 . S
C1734 C1739 1.370 . S
C1735 H1708 0.929 . S
C1735 C1734 1.363 . S
C1735 C1736 1.385 . S
C1736 H1710 0.930 . S
C1736 C1735 1.385 . S
C1736 C1737 1.357 . S
C1737 C1736 1.357 . S
C1737 C1738 1.406 . S
C1738 H1712 0.929 . S
C1738 C1737 1.406 . S
C1738 C1739 1.391 . S
C1739 H1711 0.931 . S
C1739 C1734 1.370 . S
C1739 C1738 1.391 . S
C1740 N1709 1.435 . S
C1740 C1741 1.358 . S
C1740 C1745 1.371 . S
C1741 H1713 0.930 . S
C1741 C1740 1.358 . S
C1741 C1742 1.405 . S
C1742 H1714 0.932 . S
C1742 C1741 1.405 . S
C1742 C1743 1.383 . S
C1743 C1742 1.383 . S
C1743 C1744 1.393 . S
C1744 H1716 0.931 . S
C1744 C1743 1.393 . S
C1744 C1745 1.382 . S
C1745 H1715 0.929 . S
C1745 C1740 1.371 . S
C1745 C1744 1.382 . S
C1746 N1709 1.423 . S
C1746 C1747 1.362 . S
C1746 C1751 1.388 . S
C1747 H1717 0.929 . S
C1747 C1746 1.362 . S
C1747 C1748 1.376 . S
C1748 H1719 0.931 . S
C1748 C1747 1.376 . S
C1748 C1749 1.396 . S
C1749 C1748 1.396 . S
C1749 C1750 1.348 . S
C1749 C1767 1.472 . S
C1750 H1720 0.929 . S
C1750 C1749 1.348 . S
C1750 C1751 1.443 . S
C1751 H1718 0.932 . S
C1751 C1746 1.388 . S
C1751 C1750 1.443 . S
C1752 N1732 1.433 . S
C1752 C1753 1.363 . S
C1752 C1757 1.370 . S
C1753 H1721 0.929 . S
C1753 C1752 1.363 . S
C1753 C1754 1.385 . S
C1754 H1722 0.930 . S
C1754 C1753 1.385 . S
C1754 C1755 1.357 . S
C1755 C1754 1.357 . S
C1755 C1756 1.406 . S
C1756 H1723 0.929 . S
C1756 C1755 1.406 . S
C1756 C1757 1.391 . S
C1757 H1724 0.931 . S
C1757 C1752 1.370 . S
C1757 C1756 1.391 . S
C1758 N1732 1.435 . S
C1758 C1759 1.358 . S
C1758 C1763 1.371 . S
C1759 H1725 0.930 . S
C1759 C1758 1.358 . S
C1759 C1760 1.405 . S
C1760 H1726 0.932 . S
C1760 C1759 1.405 . S
C1760 C1761 1.383 . S
C1761 C1760 1.383 . S
C1761 C1762 1.393 . S
C1762 H1727 0.931 . S
C1762 C1761 1.393 . S
C1762 C1763 1.382 . S
C1763 H1728 0.929 . S
C1763 C1758 1.371 . S
C1763 C1762 1.382 . S
C1764 N1732 1.423 . S
C1764 C1765 1.362 . S
C1764 C1769 1.388 . S
C1765 H1729 0.929 . S
C1765 C1764 1.362 . S
C1765 C1766 1.376 . S
C1766 H1730 0.931 . S
C1766 C1765 1.376 . S
C1766 C1767 1.396 . S
C1767 C1749 1.472 . S
C1767 C1766 1.396 . S
C1767 C1768 1.348 . S
C1768 H1731 0.929 . S
C1768 C1767 1.348 . S
C1768 C1769 1.443 . S
C1769 H1733 0.932 . S
C1769 C1764 1.388 . S
C1769 C1768 1.443 . S
H1770 C1797 0.929 . S
N1771 C1796 1.433 . S
N1771 C1802 1.435 . S
N1771 C1808 1.423 . S
H1772 C1798 0.930 . S
H1773 C1801 0.931 . S
H1774 C1800 0.929 . S
H1775 C1803 0.930 . S
H1776 C1804 0.932 . S
H1777 C1807 0.929 . S
H1778 C1806 0.931 . S
H1779 C1809 0.929 . S
H1780 C1813 0.932 . S
H1781 C1810 0.931 . S
H1782 C1812 0.929 . S
H1783 C1815 0.929 . S
H1784 C1816 0.930 . S
H1785 C1818 0.929 . S
H1786 C1819 0.931 . S
H1787 C1821 0.930 . S
H1788 C1822 0.932 . S
H1789 C1824 0.931 . S
H1790 C1825 0.929 . S
H1791 C1827 0.929 . S
H1792 C1828 0.931 . S
H1793 C1830 0.929 . S
N1794 C1814 1.433 . S
N1794 C1820 1.435 . S
N1794 C1826 1.423 . S
H1795 C1831 0.932 . S
C1796 N1771 1.433 . S
C1796 C1797 1.363 . S
C1796 C1801 1.370 . S
C1797 H1770 0.929 . S
C1797 C1796 1.363 . S
C1797 C1798 1.385 . S
C1798 H1772 0.930 . S
C1798 C1797 1.385 . S
C1798 C1799 1.357 . S
C1799 C1798 1.357 . S
C1799 C1800 1.406 . S
C1800 H1774 0.929 . S
C1800 C1799 1.406 . S
C1800 C1801 1.391 . S
C1801 H1773 0.931 . S
C1801 C1796 1.370 . S
C1801 C1800 1.391 . S
C1802 N1771 1.435 . S
C1802 C1803 1.358 . S
C1802 C1807 1.371 . S
C1803 H1775 0.930 . S
C1803 C1802 1.358 . S
C1803 C1804 1.405 . S
C1804 H1776 0.932 . S
C1804 C1803 1.405 . S
C1804 C1805 1.383 . S
C1805 C1804 1.383 . S
C1805 C1806 1.393 . S
C1806 H1778 0.931 . S
C1806 C1805 1.393 . S
C1806 C1807 1.382 . S
C1807 H1777 0.929 . S
C1807 C1802 1.371 . S
C1807 C1806 1.382 . S
C1808 N1771 1.423 . S
C1808 C1809 1.362 . S
C1808 C1813 1.388 . S
C1809 H1779 0.929 . S
C1809 C1808 1.362 . S
C1809 C1810 1.376 . S
C1810 H1781 0.931 . S
C1810 C1809 1.376 . S
C1810 C1811 1.396 . S
C1811 C1810 1.396 . S
C1811 C1812 1.348 . S
C1811 C1829 1.472 . S
C1812 H1782 0.929 . S
C1812 C1811 1.348 . S
C1812 C1813 1.443 . S
C1813 H1780 0.932 . S
C1813 C1808 1.388 . S
C1813 C1812 1.443 . S
C1814 N1794 1.433 . S
C1814 C1815 1.363 . S
C1814 C1819 1.370 . S
C1815 H1783 0.929 . S
C1815 C1814 1.363 . S
C1815 C1816 1.385 . S
C1816 H1784 0.930 . S
C1816 C1815 1.385 . S
C1816 C1817 1.357 . S
C1817 C1816 1.357 . S
C1817 C1818 1.406 . S
C1818 H1785 0.929 . S
C1818 C1817 1.406 . S
C1818 C1819 1.391 . S
C1819 H1786 0.931 . S
C1819 C1814 1.370 . S
C1819 C1818 1.391 . S
C1820 N1794 1.435 . S
C1820 C1821 1.358 . S
C1820 C1825 1.371 . S
C1821 H1787 0.930 . S
C1821 C1820 1.358 . S
C1821 C1822 1.405 . S
C1822 H1788 0.932 . S
C1822 C1821 1.405 . S
C1822 C1823 1.383 . S
C1823 C1822 1.383 . S
C1823 C1824 1.393 . S
C1824 H1789 0.931 . S
C1824 C1823 1.393 . S
C1824 C1825 1.382 . S
C1825 H1790 0.929 . S
C1825 C1820 1.371 . S
C1825 C1824 1.382 . S
C1826 N1794 1.423 . S
C1826 C1827 1.362 . S
C1826 C1831 1.388 . S
C1827 H1791 0.929 . S
C1827 C1826 1.362 . S
C1827 C1828 1.376 . S
C1828 H1792 0.931 . S
C1828 C1827 1.376 . S
C1828 C1829 1.396 . S
C1829 C1811 1.472 . S
C1829 C1828 1.396 . S
C1829 C1830 1.348 . S
C1830 H1793 0.929 . S
C1830 C1829 1.348 . S
C1830 C1831 1.443 . S
C1831 H1795 0.932 . S
C1831 C1826 1.388 . S
C1831 C1830 1.443 . S
H1832 C1859 0.929 . S
N1833 C1858 1.433 . S
N1833 C1864 1.435 . S
N1833 C1870 1.423 . S
H1834 C1860 0.930 . S
H1835 C1863 0.931 . S
H1836 C1862 0.929 . S
H1837 C1865 0.930 . S
H1838 C1866 0.932 . S
H1839 C1869 0.929 . S
H1840 C1868 0.931 . S
H1841 C1871 0.929 . S
H1842 C1875 0.932 . S
H1843 C1872 0.931 . S
H1844 C1874 0.929 . S
H1845 C1877 0.929 . S
H1846 C1878 0.930 . S
H1847 C1880 0.929 . S
H1848 C1881 0.931 . S
H1849 C1883 0.930 . S
H1850 C1884 0.932 . S
H1851 C1886 0.931 . S
H1852 C1887 0.929 . S
H1853 C1889 0.929 . S
H1854 C1890 0.931 . S
H1855 C1892 0.929 . S
N1856 C1876 1.433 . S
N1856 C1882 1.435 . S
N1856 C1888 1.423 . S
H1857 C1893 0.932 . S
C1858 N1833 1.433 . S
C1858 C1859 1.363 . S
C1858 C1863 1.370 . S
C1859 H1832 0.929 . S
C1859 C1858 1.363 . S
C1859 C1860 1.385 . S
C1860 H1834 0.930 . S
C1860 C1859 1.385 . S
C1860 C1861 1.357 . S
C1861 C1860 1.357 . S
C1861 C1862 1.406 . S
C1862 H1836 0.929 . S
C1862 C1861 1.406 . S
C1862 C1863 1.391 . S
C1863 H1835 0.931 . S
C1863 C1858 1.370 . S
C1863 C1862 1.391 . S
C1864 N1833 1.435 . S
C1864 C1865 1.358 . S
C1864 C1869 1.371 . S
C1865 H1837 0.930 . S
C1865 C1864 1.358 . S
C1865 C1866 1.405 . S
C1866 H1838 0.932 . S
C1866 C1865 1.405 . S
C1866 C1867 1.383 . S
C1867 C1866 1.383 . S
C1867 C1868 1.393 . S
C1868 H1840 0.931 . S
C1868 C1867 1.393 . S
C1868 C1869 1.382 . S
C1869 H1839 0.929 . S
C1869 C1864 1.371 . S
C1869 C1868 1.382 . S
C1870 N1833 1.423 . S
C1870 C1871 1.362 . S
C1870 C1875 1.388 . S
C1871 H1841 0.929 . S
C1871 C1870 1.362 . S
C1871 C1872 1.376 . S
C1872 H1843 0.931 . S
C1872 C1871 1.376 . S
C1872 C1873 1.396 . S
C1873 C1872 1.396 . S
C1873 C1874 1.348 . S
C1873 C1891 1.472 . S
C1874 H1844 0.929 . S
C1874 C1873 1.348 . S
C1874 C1875 1.443 . S
C1875 H1842 0.932 . S
C1875 C1870 1.388 . S
C1875 C1874 1.443 . S
C1876 N1856 1.433 . S
C1876 C1877 1.363 . S
C1876 C1881 1.370 . S
C1877 H1845 0.929 . S
C1877 C1876 1.363 . S
C1877 C1878 1.385 . S
C1878 H1846 0.930 . S
C1878 C1877 1.385 . S
C1878 C1879 1.357 . S
C1879 C1878 1.357 . S
C1879 C1880 1.406 . S
C1880 H1847 0.929 . S
C1880 C1879 1.406 . S
C1880 C1881 1.391 . S
C1881 H1848 0.931 . S
C1881 C1876 1.370 . S
C1881 C1880 1.391 . S
C1882 N1856 1.435 . S
C1882 C1883 1.358 . S
C1882 C1887 1.371 . S
C1883 H1849 0.930 . S
C1883 C1882 1.358 . S
C1883 C1884 1.405 . S
C1884 H1850 0.932 . S
C1884 C1883 1.405 . S
C1884 C1885 1.383 . S
C1885 C1884 1.383 . S
C1885 C1886 1.393 . S
C1886 H1851 0.931 . S
C1886 C1885 1.393 . S
C1886 C1887 1.382 . S
C1887 H1852 0.929 . S
C1887 C1882 1.371 . S
C1887 C1886 1.382 . S
C1888 N1856 1.423 . S
C1888 C1889 1.362 . S
C1888 C1893 1.388 . S
C1889 H1853 0.929 . S
C1889 C1888 1.362 . S
C1889 C1890 1.376 . S
C1890 H1854 0.931 . S
C1890 C1889 1.376 . S
C1890 C1891 1.396 . S
C1891 C1873 1.472 . S
C1891 C1890 1.396 . S
C1891 C1892 1.348 . S
C1892 H1855 0.929 . S
C1892 C1891 1.348 . S
C1892 C1893 1.443 . S
C1893 H1857 0.932 . S
C1893 C1888 1.388 . S
C1893 C1892 1.443 . S
H1894 C1921 0.929 . S
N1895 C1920 1.433 . S
N1895 C1926 1.435 . S
N1895 C1932 1.423 . S
H1896 C1922 0.930 . S
H1897 C1925 0.931 . S
H1898 C1924 0.929 . S
H1899 C1927 0.930 . S
H1900 C1928 0.932 . S
H1901 C1931 0.929 . S
H1902 C1930 0.931 . S
H1903 C1933 0.929 . S
H1904 C1937 0.932 . S
H1905 C1934 0.931 . S
H1906 C1936 0.929 . S
H1907 C1939 0.929 . S
H1908 C1940 0.930 . S
H1909 C1942 0.929 . S
H1910 C1943 0.931 . S
H1911 C1945 0.930 . S
H1912 C1946 0.932 . S
H1913 C1948 0.931 . S
H1914 C1949 0.929 . S
H1915 C1951 0.929 . S
H1916 C1952 0.931 . S
H1917 C1954 0.929 . S
N1918 C1938 1.433 . S
N1918 C1944 1.435 . S
N1918 C1950 1.423 . S
H1919 C1955 0.932 . S
C1920 N1895 1.433 . S
C1920 C1921 1.363 . S
C1920 C1925 1.370 . S
C1921 H1894 0.929 . S
C1921 C1920 1.363 . S
C1921 C1922 1.385 . S
C1922 H1896 0.930 . S
C1922 C1921 1.385 . S
C1922 C1923 1.357 . S
C1923 C1922 1.357 . S
C1923 C1924 1.406 . S
C1924 H1898 0.929 . S
C1924 C1923 1.406 . S
C1924 C1925 1.391 . S
C1925 H1897 0.931 . S
C1925 C1920 1.370 . S
C1925 C1924 1.391 . S
C1926 N1895 1.435 . S
C1926 C1927 1.358 . S
C1926 C1931 1.371 . S
C1927 H1899 0.930 . S
C1927 C1926 1.358 . S
C1927 C1928 1.405 . S
C1928 H1900 0.932 . S
C1928 C1927 1.405 . S
C1928 C1929 1.383 . S
C1929 C1928 1.383 . S
C1929 C1930 1.393 . S
C1930 H1902 0.931 . S
C1930 C1929 1.393 . S
C1930 C1931 1.382 . S
C1931 H1901 0.929 . S
C1931 C1926 1.371 . S
C1931 C1930 1.382 . S
C1932 N1895 1.423 . S
C1932 C1933 1.362 . S
C1932 C1937 1.388 . S
C1933 H1903 0.929 . S
C1933 C1932 1.362 . S
C1933 C1934 1.376 . S
C1934 H1905 0.931 . S
C1934 C1933 1.376 . S
C1934 C1935 1.396 . S
C1935 C1934 1.396 . S
C1935 C1936 1.348 . S
C1935 C1953 1.472 . S
C1936 H1906 0.929 . S
C1936 C1935 1.348 . S
C1936 C1937 1.443 . S
C1937 H1904 0.932 . S
C1937 C1932 1.388 . S
C1937 C1936 1.443 . S
C1938 N1918 1.433 . S
C1938 C1939 1.363 . S
C1938 C1943 1.370 . S
C1939 H1907 0.929 . S
C1939 C1938 1.363 . S
C1939 C1940 1.385 . S
C1940 H1908 0.930 . S
C1940 C1939 1.385 . S
C1940 C1941 1.357 . S
C1941 C1940 1.357 . S
C1941 C1942 1.406 . S
C1942 H1909 0.929 . S
C1942 C1941 1.406 . S
C1942 C1943 1.391 . S
C1943 H1910 0.931 . S
C1943 C1938 1.370 . S
C1943 C1942 1.391 . S
C1944 N1918 1.435 . S
C1944 C1945 1.358 . S
C1944 C1949 1.371 . S
C1945 H1911 0.930 . S
C1945 C1944 1.358 . S
C1945 C1946 1.405 . S
C1946 H1912 0.932 . S
C1946 C1945 1.405 . S
C1946 C1947 1.383 . S
C1947 C1946 1.383 . S
C1947 C1948 1.393 . S
C1948 H1913 0.931 . S
C1948 C1947 1.393 . S
C1948 C1949 1.382 . S
C1949 H1914 0.929 . S
C1949 C1944 1.371 . S
C1949 C1948 1.382 . S
C1950 N1918 1.423 . S
C1950 C1951 1.362 . S
C1950 C1955 1.388 . S
C1951 H1915 0.929 . S
C1951 C1950 1.362 . S
C1951 C1952 1.376 . S
C1952 H1916 0.931 . S
C1952 C1951 1.376 . S
C1952 C1953 1.396 . S
C1953 C1935 1.472 . S
C1953 C1952 1.396 . S
C1953 C1954 1.348 . S
C1954 H1917 0.929 . S
C1954 C1953 1.348 . S
C1954 C1955 1.443 . S
C1955 H1919 0.932 . S
C1955 C1950 1.388 . S
C1955 C1954 1.443 . S
H1956 C1983 0.929 . S
N1957 C1982 1.433 . S
N1957 C1988 1.435 . S
N1957 C1994 1.423 . S
H1958 C1984 0.930 . S
H1959 C1987 0.931 . S
H1960 C1986 0.929 . S
H1961 C1989 0.930 . S
H1962 C1990 0.932 . S
H1963 C1993 0.929 . S
H1964 C1992 0.931 . S
H1965 C1995 0.929 . S
H1966 C1999 0.932 . S
H1967 C1996 0.931 . S
H1968 C1998 0.929 . S
H1969 C2001 0.929 . S
H1970 C2002 0.930 . S
H1971 C2004 0.929 . S
H1972 C2005 0.931 . S
H1973 C2007 0.930 . S
H1974 C2008 0.932 . S
H1975 C2010 0.931 . S
H1976 C2011 0.929 . S
H1977 C2013 0.929 . S
H1978 C2014 0.931 . S
H1979 C2016 0.929 . S
N1980 C2000 1.433 . S
N1980 C2006 1.435 . S
N1980 C2012 1.423 . S
H1981 C2017 0.932 . S
C1982 N1957 1.433 . S
C1982 C1983 1.363 . S
C1982 C1987 1.370 . S
C1983 H1956 0.929 . S
C1983 C1982 1.363 . S
C1983 C1984 1.385 . S
C1984 H1958 0.930 . S
C1984 C1983 1.385 . S
C1984 C1985 1.357 . S
C1985 C1984 1.357 . S
C1985 C1986 1.406 . S
C1986 H1960 0.929 . S
C1986 C1985 1.406 . S
C1986 C1987 1.391 . S
C1987 H1959 0.931 . S
C1987 C1982 1.370 . S
C1987 C1986 1.391 . S
C1988 N1957 1.435 . S
C1988 C1989 1.358 . S
C1988 C1993 1.371 . S
C1989 H1961 0.930 . S
C1989 C1988 1.358 . S
C1989 C1990 1.405 . S
C1990 H1962 0.932 . S
C1990 C1989 1.405 . S
C1990 C1991 1.383 . S
C1991 C1990 1.383 . S
C1991 C1992 1.393 . S
C1992 H1964 0.931 . S
C1992 C1991 1.393 . S
C1992 C1993 1.382 . S
C1993 H1963 0.929 . S
C1993 C1988 1.371 . S
C1993 C1992 1.382 . S
C1994 N1957 1.423 . S
C1994 C1995 1.362 . S
C1994 C1999 1.388 . S
C1995 H1965 0.929 . S
C1995 C1994 1.362 . S
C1995 C1996 1.376 . S
C1996 H1967 0.931 . S
C1996 C1995 1.376 . S
C1996 C1997 1.396 . S
C1997 C1996 1.396 . S
C1997 C1998 1.348 . S
C1997 C2015 1.472 . S
C1998 H1968 0.929 . S
C1998 C1997 1.348 . S
C1998 C1999 1.443 . S
C1999 H1966 0.932 . S
C1999 C1994 1.388 . S
C1999 C1998 1.443 . S
C2000 N1980 1.433 . S
C2000 C2001 1.363 . S
C2000 C2005 1.370 . S
C2001 H1969 0.929 . S
C2001 C2000 1.363 . S
C2001 C2002 1.385 . S
C2002 H1970 0.930 . S
C2002 C2001 1.385 . S
C2002 C2003 1.357 . S
C2003 C2002 1.357 . S
C2003 C2004 1.406 . S
C2004 H1971 0.929 . S
C2004 C2003 1.406 . S
C2004 C2005 1.391 . S
C2005 H1972 0.931 . S
C2005 C2000 1.370 . S
C2005 C2004 1.391 . S
C2006 N1980 1.435 . S
C2006 C2007 1.358 . S
C2006 C2011 1.371 . S
C2007 H1973 0.930 . S
C2007 C2006 1.358 . S
C2007 C2008 1.405 . S
C2008 H1974 0.932 . S
C2008 C2007 1.405 . S
C2008 C2009 1.383 . S
C2009 C2008 1.383 . S
C2009 C2010 1.393 . S
C2010 H1975 0.931 . S
C2010 C2009 1.393 . S
C2010 C2011 1.382 . S
C2011 H1976 0.929 . S
C2011 C2006 1.371 . S
C2011 C2010 1.382 . S
C2012 N1980 1.423 . S
C2012 C2013 1.362 . S
C2012 C2017 1.388 . S
C2013 H1977 0.929 . S
C2013 C2012 1.362 . S
C2013 C2014 1.376 . S
C2014 H1978 0.931 . S
C2014 C2013 1.376 . S
C2014 C2015 1.396 . S
C2015 C1997 1.472 . S
C2015 C2014 1.396 . S
C2015 C2016 1.348 . S
C2016 H1979 0.929 . S
C2016 C2015 1.348 . S
C2016 C2017 1.443 . S
C2017 H1981 0.932 . S
C2017 C2012 1.388 . S
C2017 C2016 1.443 . S
H2018 C2045 0.929 . S
N2019 C2044 1.433 . S
N2019 C2050 1.435 . S
N2019 C2056 1.423 . S
H2020 C2046 0.930 . S
H2021 C2049 0.931 . S
H2022 C2048 0.929 . S
H2023 C2051 0.930 . S
H2024 C2052 0.932 . S
H2025 C2055 0.929 . S
H2026 C2054 0.931 . S
H2027 C2057 0.929 . S
H2028 C2061 0.932 . S
H2029 C2058 0.931 . S
H2030 C2060 0.929 . S
H2031 C2063 0.929 . S
H2032 C2064 0.930 . S
H2033 C2066 0.929 . S
H2034 C2067 0.931 . S
H2035 C2069 0.930 . S
H2036 C2070 0.932 . S
H2037 C2072 0.931 . S
H2038 C2073 0.929 . S
H2039 C2075 0.929 . S
H2040 C2076 0.931 . S
H2041 C2078 0.929 . S
N2042 C2062 1.433 . S
N2042 C2068 1.435 . S
N2042 C2074 1.423 . S
H2043 C2079 0.932 . S
C2044 N2019 1.433 . S
C2044 C2045 1.363 . S
C2044 C2049 1.370 . S
C2045 H2018 0.929 . S
C2045 C2044 1.363 . S
C2045 C2046 1.385 . S
C2046 H2020 0.930 . S
C2046 C2045 1.385 . S
C2046 C2047 1.357 . S
C2047 C2046 1.357 . S
C2047 C2048 1.406 . S
C2048 H2022 0.929 . S
C2048 C2047 1.406 . S
C2048 C2049 1.391 . S
C2049 H2021 0.931 . S
C2049 C2044 1.370 . S
C2049 C2048 1.391 . S
C2050 N2019 1.435 . S
C2050 C2051 1.358 . S
C2050 C2055 1.371 . S
C2051 H2023 0.930 . S
C2051 C2050 1.358 . S
C2051 C2052 1.405 . S
C2052 H2024 0.932 . S
C2052 C2051 1.405 . S
C2052 C2053 1.383 . S
C2053 C2052 1.383 . S
C2053 C2054 1.393 . S
C2054 H2026 0.931 . S
C2054 C2053 1.393 . S
C2054 C2055 1.382 . S
C2055 H2025 0.929 . S
C2055 C2050 1.371 . S
C2055 C2054 1.382 . S
C2056 N2019 1.423 . S
C2056 C2057 1.362 . S
C2056 C2061 1.388 . S
C2057 H2027 0.929 . S
C2057 C2056 1.362 . S
C2057 C2058 1.376 . S
C2058 H2029 0.931 . S
C2058 C2057 1.376 . S
C2058 C2059 1.396 . S
C2059 C2058 1.396 . S
C2059 C2060 1.348 . S
C2059 C2077 1.472 . S
C2060 H2030 0.929 . S
C2060 C2059 1.348 . S
C2060 C2061 1.443 . S
C2061 H2028 0.932 . S
C2061 C2056 1.388 . S
C2061 C2060 1.443 . S
C2062 N2042 1.433 . S
C2062 C2063 1.363 . S
C2062 C2067 1.370 . S
C2063 H2031 0.929 . S
C2063 C2062 1.363 . S
C2063 C2064 1.385 . S
C2064 H2032 0.930 . S
C2064 C2063 1.385 . S
C2064 C2065 1.357 . S
C2065 C2064 1.357 . S
C2065 C2066 1.406 . S
C2066 H2033 0.929 . S
C2066 C2065 1.406 . S
C2066 C2067 1.391 . S
C2067 H2034 0.931 . S
C2067 C2062 1.370 . S
C2067 C2066 1.391 . S
C2068 N2042 1.435 . S
C2068 C2069 1.358 . S
C2068 C2073 1.371 . S
C2069 H2035 0.930 . S
C2069 C2068 1.358 . S
C2069 C2070 1.405 . S
C2070 H2036 0.932 . S
C2070 C2069 1.405 . S
C2070 C2071 1.383 . S
C2071 C2070 1.383 . S
C2071 C2072 1.393 . S
C2072 H2037 0.931 . S
C2072 C2071 1.393 . S
C2072 C2073 1.382 . S
C2073 H2038 0.929 . S
C2073 C2068 1.371 . S
C2073 C2072 1.382 . S
C2074 N2042 1.423 . S
C2074 C2075 1.362 . S
C2074 C2079 1.388 . S
C2075 H2039 0.929 . S
C2075 C2074 1.362 . S
C2075 C2076 1.376 . S
C2076 H2040 0.931 . S
C2076 C2075 1.376 . S
C2076 C2077 1.396 . S
C2077 C2059 1.472 . S
C2077 C2076 1.396 . S
C2077 C2078 1.348 . S
C2078 H2041 0.929 . S
C2078 C2077 1.348 . S
C2078 C2079 1.443 . S
C2079 H2043 0.932 . S
C2079 C2074 1.388 . S
C2079 C2078 1.443 . S
H2080 C2107 0.929 . S
N2081 C2106 1.433 . S
N2081 C2112 1.435 . S
N2081 C2118 1.423 . S
H2082 C2108 0.930 . S
H2083 C2111 0.931 . S
H2084 C2110 0.929 . S
H2085 C2113 0.930 . S
H2086 C2114 0.932 . S
H2087 C2117 0.929 . S
H2088 C2116 0.931 . S
H2089 C2119 0.929 . S
H2090 C2123 0.932 . S
H2091 C2120 0.931 . S
H2092 C2122 0.929 . S
H2093 C2125 0.929 . S
H2094 C2126 0.930 . S
H2095 C2128 0.929 . S
H2096 C2129 0.931 . S
H2097 C2131 0.930 . S
H2098 C2132 0.932 . S
H2099 C2134 0.931 . S
H2100 C2135 0.929 . S
H2101 C2137 0.929 . S
H2102 C2138 0.931 . S
H2103 C2140 0.929 . S
N2104 C2124 1.433 . S
N2104 C2130 1.435 . S
N2104 C2136 1.423 . S
H2105 C2141 0.932 . S
C2106 N2081 1.433 . S
C2106 C2107 1.363 . S
C2106 C2111 1.370 . S
C2107 H2080 0.929 . S
C2107 C2106 1.363 . S
C2107 C2108 1.385 . S
C2108 H2082 0.930 . S
C2108 C2107 1.385 . S
C2108 C2109 1.357 . S
C2109 C2108 1.357 . S
C2109 C2110 1.406 . S
C2110 H2084 0.929 . S
C2110 C2109 1.406 . S
C2110 C2111 1.391 . S
C2111 H2083 0.931 . S
C2111 C2106 1.370 . S
C2111 C2110 1.391 . S
C2112 N2081 1.435 . S
C2112 C2113 1.358 . S
C2112 C2117 1.371 . S
C2113 H2085 0.930 . S
C2113 C2112 1.358 . S
C2113 C2114 1.405 . S
C2114 H2086 0.932 . S
C2114 C2113 1.405 . S
C2114 C2115 1.383 . S
C2115 C2114 1.383 . S
C2115 C2116 1.393 . S
C2116 H2088 0.931 . S
C2116 C2115 1.393 . S
C2116 C2117 1.382 . S
C2117 H2087 0.929 . S
C2117 C2112 1.371 . S
C2117 C2116 1.382 . S
C2118 N2081 1.423 . S
C2118 C2119 1.362 . S
C2118 C2123 1.388 . S
C2119 H2089 0.929 . S
C2119 C2118 1.362 . S
C2119 C2120 1.376 . S
C2120 H2091 0.931 . S
C2120 C2119 1.376 . S
C2120 C2121 1.396 . S
C2121 C2120 1.396 . S
C2121 C2122 1.348 . S
C2121 C2139 1.472 . S
C2122 H2092 0.929 . S
C2122 C2121 1.348 . S
C2122 C2123 1.443 . S
C2123 H2090 0.932 . S
C2123 C2118 1.388 . S
C2123 C2122 1.443 . S
C2124 N2104 1.433 . S
C2124 C2125 1.363 . S
C2124 C2129 1.370 . S
C2125 H2093 0.929 . S
C2125 C2124 1.363 . S
C2125 C2126 1.385 . S
C2126 H2094 0.930 . S
C2126 C2125 1.385 . S
C2126 C2127 1.357 . S
C2127 C2126 1.357 . S
C2127 C2128 1.406 . S
C2128 H2095 0.929 . S
C2128 C2127 1.406 . S
C2128 C2129 1.391 . S
C2129 H2096 0.931 . S
C2129 C2124 1.370 . S
C2129 C2128 1.391 . S
C2130 N2104 1.435 . S
C2130 C2131 1.358 . S
C2130 C2135 1.371 . S
C2131 H2097 0.930 . S
C2131 C2130 1.358 . S
C2131 C2132 1.405 . S
C2132 H2098 0.932 . S
C2132 C2131 1.405 . S
C2132 C2133 1.383 . S
C2133 C2132 1.383 . S
C2133 C2134 1.393 . S
C2134 H2099 0.931 . S
C2134 C2133 1.393 . S
C2134 C2135 1.382 . S
C2135 H2100 0.929 . S
C2135 C2130 1.371 . S
C2135 C2134 1.382 . S
C2136 N2104 1.423 . S
C2136 C2137 1.362 . S
C2136 C2141 1.388 . S
C2137 H2101 0.929 . S
C2137 C2136 1.362 . S
C2137 C2138 1.376 . S
C2138 H2102 0.931 . S
C2138 C2137 1.376 . S
C2138 C2139 1.396 . S
C2139 C2121 1.472 . S
C2139 C2138 1.396 . S
C2139 C2140 1.348 . S
C2140 H2103 0.929 . S
C2140 C2139 1.348 . S
C2140 C2141 1.443 . S
C2141 H2105 0.932 . S
C2141 C2136 1.388 . S
C2141 C2140 1.443 . S
H2142 C2169 0.929 . S
N2143 C2168 1.433 . S
N2143 C2174 1.435 . S
N2143 C2180 1.423 . S
H2144 C2170 0.930 . S
H2145 C2173 0.931 . S
H2146 C2172 0.929 . S
H2147 C2175 0.930 . S
H2148 C2176 0.932 . S
H2149 C2179 0.929 . S
H2150 C2178 0.931 . S
H2151 C2181 0.929 . S
H2152 C2185 0.932 1_655 S
H2153 C2182 0.931 . S
H2154 C2184 0.944 . S
H2155 C2187 0.929 . S
H2156 C2188 0.930 . S
H2157 C2190 0.929 . S
H2158 C2191 0.931 . S
H2159 C2193 0.930 . S
H2160 C2194 0.932 . S
H2161 C2196 0.931 . S
H2162 C2197 0.929 . S
H2163 C2199 0.929 . S
H2164 C2200 0.931 . S
H2165 C2202 0.929 . S
N2166 C2186 1.433 . S
N2166 C2192 1.435 . S
N2166 C2198 1.423 . S
H2167 C2203 0.932 1_655 S
C2168 N2143 1.433 . S
C2168 C2169 1.363 . S
C2168 C2173 1.370 1_455 S
C2169 H2142 0.929 . S
C2169 C2168 1.363 . S
C2169 C2170 1.385 . S
C2170 H2144 0.930 . S
C2170 C2169 1.385 . S
C2170 C2171 1.357 1_455 S
C2171 C2170 1.357 1_655 S
C2171 C2172 1.406 . S
C2172 H2146 0.929 . S
C2172 C2171 1.406 . S
C2172 C2173 1.391 . S
C2173 H2145 0.931 . S
C2173 C2168 1.370 1_655 S
C2173 C2172 1.391 . S
C2174 N2143 1.435 . S
C2174 C2175 1.358 1_455 S
C2174 C2179 1.371 . S
C2175 H2147 0.930 . S
C2175 C2174 1.358 1_655 S
C2175 C2176 1.405 . S
C2176 H2148 0.932 . S
C2176 C2175 1.405 . S
C2176 C2177 1.383 1_655 S
C2177 C2176 1.383 1_455 S
C2177 C2178 1.393 . S
C2178 H2150 0.931 . S
C2178 C2177 1.393 . S
C2178 C2179 1.382 . S
C2179 H2149 0.929 . S
C2179 C2174 1.371 . S
C2179 C2178 1.382 . S
C2180 N2143 1.423 . S
C2180 C2181 1.362 . S
C2180 C2185 1.388 . S
C2181 H2151 0.929 . S
C2181 C2180 1.362 . S
C2181 C2182 1.376 . S
C2182 H2153 0.931 . S
C2182 C2181 1.376 . S
C2182 C2183 1.396 . S
C2183 C2182 1.396 . S
C2183 C2184 1.348 . S
C2183 C2201 1.472 . S
C2184 H2154 0.944 . S
C2184 C2183 1.348 . S
C2184 C2185 1.443 . S
C2185 H2152 0.932 1_455 S
C2185 C2180 1.388 . S
C2185 C2184 1.443 . S
C2186 N2166 1.433 . S
C2186 C2187 1.363 . S
C2186 C2191 1.370 1_455 S
C2187 H2155 0.929 . S
C2187 C2186 1.363 . S
C2187 C2188 1.385 . S
C2188 H2156 0.930 . S
C2188 C2187 1.385 . S
C2188 C2189 1.357 1_455 S
C2189 C2188 1.357 1_655 S
C2189 C2190 1.406 . S
C2190 H2157 0.929 . S
C2190 C2189 1.406 . S
C2190 C2191 1.391 . S
C2191 H2158 0.931 . S
C2191 C2186 1.370 1_655 S
C2191 C2190 1.391 . S
C2192 N2166 1.435 . S
C2192 C2193 1.358 1_455 S
C2192 C2197 1.371 . S
C2193 H2159 0.930 . S
C2193 C2192 1.358 1_655 S
C2193 C2194 1.405 . S
C2194 H2160 0.932 . S
C2194 C2193 1.405 . S
C2194 C2195 1.383 1_655 S
C2195 C2194 1.383 1_455 S
C2195 C2196 1.393 . S
C2196 H2161 0.931 . S
C2196 C2195 1.393 . S
C2196 C2197 1.382 . S
C2197 H2162 0.929 . S
C2197 C2192 1.371 . S
C2197 C2196 1.382 . S
C2198 N2166 1.423 . S
C2198 C2199 1.362 . S
C2198 C2203 1.388 . S
C2199 H2163 0.929 . S
C2199 C2198 1.362 . S
C2199 C2200 1.376 . S
C2200 H2164 0.931 . S
C2200 C2199 1.376 . S
C2200 C2201 1.396 . S
C2201 C2183 1.472 . S
C2201 C2200 1.396 . S
C2201 C2202 1.348 . S
C2202 H2165 0.929 . S
C2202 C2201 1.348 . S
C2202 C2203 1.443 . S
C2203 H2167 0.932 1_455 S
C2203 C2198 1.388 . S
C2203 C2202 1.443 . S
H2204 C2231 0.929 . S
N2205 C2230 1.433 . S
N2205 C2236 1.435 . S
N2205 C2242 1.423 . S
H2206 C2232 0.930 . S
H2207 C2235 0.931 . S
H2208 C2234 0.929 . S
H2209 C2237 0.930 . S
H2210 C2238 0.932 . S
H2211 C2241 0.929 . S
H2212 C2240 0.931 . S
H2213 C2243 0.929 . S
H2214 C2247 0.932 . S
H2215 C2244 0.931 . S
H2216 C2246 0.929 . S
H2217 C2249 0.929 . S
H2218 C2250 0.930 . S
H2219 C2252 0.929 . S
H2220 C2253 0.931 . S
H2221 C2255 0.930 . S
H2222 C2256 0.932 . S
H2223 C2258 0.931 . S
H2224 C2259 0.929 . S
H2225 C2261 0.929 . S
H2226 C2262 0.931 . S
H2227 C2264 0.929 . S
N2228 C2248 1.433 . S
N2228 C2254 1.435 . S
N2228 C2260 1.423 . S
H2229 C2265 0.932 . S
C2230 N2205 1.433 . S
C2230 C2231 1.363 . S
C2230 C2235 1.370 . S
C2231 H2204 0.929 . S
C2231 C2230 1.363 . S
C2231 C2232 1.385 . S
C2232 H2206 0.930 . S
C2232 C2231 1.385 . S
C2232 C2233 1.357 . S
C2233 C2232 1.357 . S
C2233 C2234 1.406 . S
C2234 H2208 0.929 . S
C2234 C2233 1.406 . S
C2234 C2235 1.391 . S
C2235 H2207 0.931 . S
C2235 C2230 1.370 . S
C2235 C2234 1.391 . S
C2236 N2205 1.435 . S
C2236 C2237 1.358 . S
C2236 C2241 1.371 . S
C2237 H2209 0.930 . S
C2237 C2236 1.358 . S
C2237 C2238 1.405 . S
C2238 H2210 0.932 . S
C2238 C2237 1.405 . S
C2238 C2239 1.383 . S
C2239 C2238 1.383 . S
C2239 C2240 1.393 . S
C2240 H2212 0.931 . S
C2240 C2239 1.393 . S
C2240 C2241 1.382 . S
C2241 H2211 0.929 . S
C2241 C2236 1.371 . S
C2241 C2240 1.382 . S
C2242 N2205 1.423 . S
C2242 C2243 1.362 . S
C2242 C2247 1.388 . S
C2243 H2213 0.929 . S
C2243 C2242 1.362 . S
C2243 C2244 1.376 . S
C2244 H2215 0.931 . S
C2244 C2243 1.376 . S
C2244 C2245 1.396 . S
C2245 C2244 1.396 . S
C2245 C2246 1.348 . S
C2245 C2263 1.472 . S
C2246 H2216 0.929 . S
C2246 C2245 1.348 . S
C2246 C2247 1.443 . S
C2247 H2214 0.932 . S
C2247 C2242 1.388 . S
C2247 C2246 1.443 . S
C2248 N2228 1.433 . S
C2248 C2249 1.363 . S
C2248 C2253 1.370 . S
C2249 H2217 0.929 . S
C2249 C2248 1.363 . S
C2249 C2250 1.385 . S
C2250 H2218 0.930 . S
C2250 C2249 1.385 . S
C2250 C2251 1.357 . S
C2251 C2250 1.357 . S
C2251 C2252 1.406 . S
C2252 H2219 0.929 . S
C2252 C2251 1.406 . S
C2252 C2253 1.391 . S
C2253 H2220 0.931 . S
C2253 C2248 1.370 . S
C2253 C2252 1.391 . S
C2254 N2228 1.435 . S
C2254 C2255 1.358 . S
C2254 C2259 1.371 . S
C2255 H2221 0.930 . S
C2255 C2254 1.358 . S
C2255 C2256 1.405 . S
C2256 H2222 0.932 . S
C2256 C2255 1.405 . S
C2256 C2257 1.383 . S
C2257 C2256 1.383 . S
C2257 C2258 1.393 . S
C2258 H2223 0.931 . S
C2258 C2257 1.393 . S
C2258 C2259 1.382 . S
C2259 H2224 0.929 . S
C2259 C2254 1.371 . S
C2259 C2258 1.382 . S
C2260 N2228 1.423 . S
C2260 C2261 1.362 . S
C2260 C2265 1.388 . S
C2261 H2225 0.929 . S
C2261 C2260 1.362 . S
C2261 C2262 1.376 . S
C2262 H2226 0.931 . S
C2262 C2261 1.376 . S
C2262 C2263 1.396 . S
C2263 C2245 1.472 . S
C2263 C2262 1.396 . S
C2263 C2264 1.348 . S
C2264 H2227 0.929 . S
C2264 C2263 1.348 . S
C2264 C2265 1.443 . S
C2265 H2229 0.932 . S
C2265 C2260 1.388 . S
C2265 C2264 1.443 . S
H2266 C2293 0.929 . S
N2267 C2292 1.433 . S
N2267 C2298 1.435 . S
N2267 C2304 1.423 . S
H2268 C2294 0.930 . S
H2269 C2297 0.931 . S
H2270 C2296 0.929 . S
H2271 C2299 0.930 . S
H2272 C2300 0.932 . S
H2273 C2303 0.929 . S
H2274 C2302 0.931 . S
H2275 C2305 0.929 . S
H2276 C2309 0.932 1_545 S
H2277 C2306 0.931 . S
H2278 C2308 0.929 . S
H2279 C2311 0.929 . S
H2280 C2312 0.930 . S
H2281 C2314 0.929 . S
H2282 C2315 0.931 . S
H2283 C2317 0.930 . S
H2284 C2318 0.932 . S
H2285 C2320 0.931 . S
H2286 C2321 0.929 . S
H2287 C2323 0.929 . S
H2288 C2324 0.931 . S
H2289 C2326 0.929 . S
N2290 C2310 1.433 . S
N2290 C2316 1.435 . S
N2290 C2322 1.423 . S
H2291 C2327 0.932 1_545 S
C2292 N2267 1.433 . S
C2292 C2293 1.363 . S
C2292 C2297 1.370 1_565 S
C2293 H2266 0.929 . S
C2293 C2292 1.363 . S
C2293 C2294 1.385 . S
C2294 H2268 0.930 . S
C2294 C2293 1.385 . S
C2294 C2295 1.357 1_565 S
C2295 C2294 1.357 1_545 S
C2295 C2296 1.406 . S
C2296 H2270 0.929 . S
C2296 C2295 1.406 . S
C2296 C2297 1.391 . S
C2297 H2269 0.931 . S
C2297 C2292 1.370 1_545 S
C2297 C2296 1.391 . S
C2298 N2267 1.435 . S
C2298 C2299 1.358 1_565 S
C2298 C2303 1.371 . S
C2299 H2271 0.930 . S
C2299 C2298 1.358 1_545 S
C2299 C2300 1.405 . S
C2300 H2272 0.932 . S
C2300 C2299 1.405 . S
C2300 C2301 1.383 1_545 S
C2301 C2300 1.383 1_565 S
C2301 C2302 1.393 . S
C2302 H2274 0.931 . S
C2302 C2301 1.393 . S
C2302 C2303 1.382 . S
C2303 H2273 0.929 . S
C2303 C2298 1.371 . S
C2303 C2302 1.382 . S
C2304 N2267 1.423 . S
C2304 C2305 1.362 . S
C2304 C2309 1.388 . S
C2305 H2275 0.929 . S
C2305 C2304 1.362 . S
C2305 C2306 1.376 . S
C2306 H2277 0.931 . S
C2306 C2305 1.376 . S
C2306 C2307 1.396 . S
C2307 C2306 1.396 . S
C2307 C2308 1.348 . S
C2307 C2325 1.472 . S
C2308 H2278 0.929 . S
C2308 C2307 1.348 . S
C2308 C2309 1.443 . S
C2309 H2276 0.932 1_565 S
C2309 C2304 1.388 . S
C2309 C2308 1.443 . S
C2310 N2290 1.433 . S
C2310 C2311 1.363 . S
C2310 C2315 1.370 1_565 S
C2311 H2279 0.929 . S
C2311 C2310 1.363 . S
C2311 C2312 1.385 . S
C2312 H2280 0.930 . S
C2312 C2311 1.385 . S
C2312 C2313 1.357 1_565 S
C2313 C2312 1.357 1_545 S
C2313 C2314 1.406 . S
C2314 H2281 0.929 . S
C2314 C2313 1.406 . S
C2314 C2315 1.391 . S
C2315 H2282 0.931 . S
C2315 C2310 1.370 1_545 S
C2315 C2314 1.391 . S
C2316 N2290 1.435 . S
C2316 C2317 1.358 1_565 S
C2316 C2321 1.371 . S
C2317 H2283 0.930 . S
C2317 C2316 1.358 1_545 S
C2317 C2318 1.405 . S
C2318 H2284 0.932 . S
C2318 C2317 1.405 . S
C2318 C2319 1.383 1_545 S
C2319 C2318 1.383 1_565 S
C2319 C2320 1.393 . S
C2320 H2285 0.931 . S
C2320 C2319 1.393 . S
C2320 C2321 1.382 . S
C2321 H2286 0.929 . S
C2321 C2316 1.371 . S
C2321 C2320 1.382 . S
C2322 N2290 1.423 . S
C2322 C2323 1.362 . S
C2322 C2327 1.388 . S
C2323 H2287 0.929 . S
C2323 C2322 1.362 . S
C2323 C2324 1.376 . S
C2324 H2288 0.931 . S
C2324 C2323 1.376 . S
C2324 C2325 1.396 . S
C2325 C2307 1.472 . S
C2325 C2324 1.396 . S
C2325 C2326 1.348 . S
C2326 H2289 0.929 . S
C2326 C2325 1.348 . S
C2326 C2327 1.443 . S
C2327 H2291 0.932 1_565 S
C2327 C2322 1.388 . S
C2327 C2326 1.443 . S
H2328 C2355 0.929 . S
N2329 C2354 1.433 . S
N2329 C2360 1.435 . S
N2329 C2366 1.423 . S
H2330 C2356 0.930 . S
H2331 C2359 0.930 . S
H2332 C2358 0.947 . S
H2333 C2361 0.930 . S
H2334 C2362 0.932 . S
H2335 C2365 0.929 . S
H2336 C2364 0.931 . S
H2337 C2367 0.929 . S
H2338 C2371 0.932 . S
H2339 C2368 0.931 . S
H2340 C2370 0.922 1_545 S
H2341 C2373 0.929 . S
H2342 C2374 0.930 . S
H2343 C2376 0.981 . S
H2344 C2377 0.976 . S
H2345 C2379 0.930 . S
H2346 C2380 0.932 . S
H2347 C2382 0.931 . S
H2348 C2383 0.929 . S
H2349 C2385 0.929 . S
H2350 C2386 0.931 . S
H2351 C2388 0.903 1_545 S
N2352 C2372 1.433 . S
N2352 C2378 1.435 . S
N2352 C2384 1.423 . S
H2353 C2389 0.973 . S
C2354 N2329 1.433 . S
C2354 C2355 1.363 . S
C2354 C2359 1.363 1_565 S
C2355 H2328 0.929 . S
C2355 C2354 1.363 . S
C2355 C2356 1.385 . S
C2356 H2330 0.930 . S
C2356 C2355 1.385 . S
C2356 C2357 1.357 . S
C2357 C2356 1.357 . S
C2357 C2358 1.413 1_565 S
C2358 H2332 0.947 . S
C2358 C2357 1.413 1_545 S
C2358 C2359 1.387 . S
C2359 H2331 0.930 . S
C2359 C2354 1.363 1_545 S
C2359 C2358 1.387 . S
C2360 N2329 1.435 . S
C2360 C2361 1.358 1_565 S
C2360 C2365 1.371 . S
C2361 H2333 0.930 . S
C2361 C2360 1.358 1_545 S
C2361 C2362 1.405 . S
C2362 H2334 0.932 . S
C2362 C2361 1.405 . S
C2362 C2363 1.383 . S
C2363 C2362 1.383 . S
C2363 C2364 1.393 1_545 S
C2364 H2336 0.931 . S
C2364 C2363 1.393 1_565 S
C2364 C2365 1.382 . S
C2365 H2335 0.929 . S
C2365 C2360 1.371 . S
C2365 C2364 1.382 . S
C2366 N2329 1.423 . S
C2366 C2367 1.362 . S
C2366 C2371 1.388 1_565 S
C2367 H2337 0.929 . S
C2367 C2366 1.362 . S
C2367 C2368 1.376 . S
C2368 H2339 0.931 . S
C2368 C2367 1.376 . S
C2368 C2369 1.396 . S
C2369 C2368 1.396 . S
C2369 C2370 1.375 . S
C2369 C2387 1.472 . S
C2370 H2340 0.922 1_565 S
C2370 C2369 1.375 . S
C2370 C2371 1.423 1_565 S
C2371 H2338 0.932 . S
C2371 C2366 1.388 1_545 S
C2371 C2370 1.423 1_545 S
C2372 N2352 1.433 . S
C2372 C2373 1.363 . S
C2372 C2377 1.335 1_565 S
C2373 H2341 0.929 . S
C2373 C2372 1.363 . S
C2373 C2374 1.385 . S
C2374 H2342 0.930 . S
C2374 C2373 1.385 . S
C2374 C2375 1.357 . S
C2375 C2374 1.357 . S
C2375 C2376 1.345 1_565 S
C2376 H2343 0.981 . S
C2376 C2375 1.345 1_545 S
C2376 C2377 1.395 . S
C2377 H2344 0.976 . S
C2377 C2372 1.335 1_545 S
C2377 C2376 1.395 . S
C2378 N2352 1.435 . S
C2378 C2379 1.358 1_565 S
C2378 C2383 1.371 . S
C2379 H2345 0.930 . S
C2379 C2378 1.358 1_545 S
C2379 C2380 1.405 . S
C2380 H2346 0.932 . S
C2380 C2379 1.405 . S
C2380 C2381 1.383 . S
C2381 C2380 1.383 . S
C2381 C2382 1.393 1_545 S
C2382 H2347 0.931 . S
C2382 C2381 1.393 1_565 S
C2382 C2383 1.382 . S
C2383 H2348 0.929 . S
C2383 C2378 1.371 . S
C2383 C2382 1.382 . S
C2384 N2352 1.423 . S
C2384 C2385 1.362 . S
C2384 C2389 1.310 1_565 S
C2385 H2349 0.929 . S
C2385 C2384 1.362 . S
C2385 C2386 1.376 . S
C2386 H2350 0.931 . S
C2386 C2385 1.376 . S
C2386 C2387 1.396 . S
C2387 C2369 1.472 . S
C2387 C2386 1.396 . S
C2387 C2388 1.358 . S
C2388 H2351 0.903 1_565 S
C2388 C2387 1.358 . S
C2388 C2389 1.507 1_565 S
C2389 H2353 0.973 . S
C2389 C2384 1.310 1_545 S
C2389 C2388 1.507 1_545 S
H2390 C2417 0.929 . S
N2391 C2416 1.433 . S
N2391 C2422 1.435 . S
N2391 C2428 1.423 . S
H2392 C2418 0.930 . S
H2393 C2421 0.931 . S
H2394 C2420 0.929 . S
H2395 C2423 0.930 . S
H2396 C2424 0.932 . S
H2397 C2427 0.929 . S
H2398 C2426 0.931 . S
H2399 C2429 0.929 . S
H2400 C2433 0.932 1_455 S
H2401 C2430 0.931 . S
H2402 C2432 0.929 . S
H2403 C2435 0.929 . S
H2404 C2436 0.930 . S
H2405 C2438 0.929 . S
H2406 C2439 0.931 . S
H2407 C2441 0.930 . S
H2408 C2442 0.932 . S
H2409 C2444 0.931 . S
H2410 C2445 0.929 . S
H2411 C2447 0.929 . S
H2412 C2448 0.931 . S
H2413 C2450 0.929 . S
N2414 C2434 1.433 . S
N2414 C2440 1.435 . S
N2414 C2446 1.423 . S
H2415 C2451 0.932 1_455 S
C2416 N2391 1.433 . S
C2416 C2417 1.363 . S
C2416 C2421 1.370 1_655 S
C2417 H2390 0.929 . S
C2417 C2416 1.363 . S
C2417 C2418 1.385 . S
C2418 H2392 0.930 . S
C2418 C2417 1.385 . S
C2418 C2419 1.357 1_655 S
C2419 C2418 1.357 1_455 S
C2419 C2420 1.406 . S
C2420 H2394 0.929 . S
C2420 C2419 1.406 . S
C2420 C2421 1.391 . S
C2421 H2393 0.931 . S
C2421 C2416 1.370 1_455 S
C2421 C2420 1.391 . S
C2422 N2391 1.435 . S
C2422 C2423 1.358 1_655 S
C2422 C2427 1.371 . S
C2423 H2395 0.930 . S
C2423 C2422 1.358 1_455 S
C2423 C2424 1.405 . S
C2424 H2396 0.932 . S
C2424 C2423 1.405 . S
C2424 C2425 1.383 1_455 S
C2425 C2424 1.383 1_655 S
C2425 C2426 1.393 . S
C2426 H2398 0.931 . S
C2426 C2425 1.393 . S
C2426 C2427 1.382 . S
C2427 H2397 0.929 . S
C2427 C2422 1.371 . S
C2427 C2426 1.382 . S
C2428 N2391 1.423 . S
C2428 C2429 1.362 . S
C2428 C2433 1.388 . S
C2429 H2399 0.929 . S
C2429 C2428 1.362 . S
C2429 C2430 1.376 . S
C2430 H2401 0.931 . S
C2430 C2429 1.376 . S
C2430 C2431 1.396 . S
C2431 C2430 1.396 . S
C2431 C2432 1.348 . S
C2431 C2449 1.472 . S
C2432 H2402 0.929 . S
C2432 C2431 1.348 . S
C2432 C2433 1.443 . S
C2433 H2400 0.932 1_655 S
C2433 C2428 1.388 . S
C2433 C2432 1.443 . S
C2434 N2414 1.433 . S
C2434 C2435 1.363 . S
C2434 C2439 1.370 1_655 S
C2435 H2403 0.929 . S
C2435 C2434 1.363 . S
C2435 C2436 1.385 . S
C2436 H2404 0.930 . S
C2436 C2435 1.385 . S
C2436 C2437 1.357 1_655 S
C2437 C2436 1.357 1_455 S
C2437 C2438 1.406 . S
C2438 H2405 0.929 . S
C2438 C2437 1.406 . S
C2438 C2439 1.391 . S
C2439 H2406 0.931 . S
C2439 C2434 1.370 1_455 S
C2439 C2438 1.391 . S
C2440 N2414 1.435 . S
C2440 C2441 1.358 1_655 S
C2440 C2445 1.371 . S
C2441 H2407 0.930 . S
C2441 C2440 1.358 1_455 S
C2441 C2442 1.405 . S
C2442 H2408 0.932 . S
C2442 C2441 1.405 . S
C2442 C2443 1.383 1_455 S
C2443 C2442 1.383 1_655 S
C2443 C2444 1.393 . S
C2444 H2409 0.931 . S
C2444 C2443 1.393 . S
C2444 C2445 1.382 . S
C2445 H2410 0.929 . S
C2445 C2440 1.371 . S
C2445 C2444 1.382 . S
C2446 N2414 1.423 . S
C2446 C2447 1.362 . S
C2446 C2451 1.388 . S
C2447 H2411 0.929 . S
C2447 C2446 1.362 . S
C2447 C2448 1.376 . S
C2448 H2412 0.931 . S
C2448 C2447 1.376 . S
C2448 C2449 1.396 . S
C2449 C2431 1.472 . S
C2449 C2448 1.396 . S
C2449 C2450 1.348 . S
C2450 H2413 0.929 . S
C2450 C2449 1.348 . S
C2450 C2451 1.443 . S
C2451 H2415 0.932 1_655 S
C2451 C2446 1.388 . S
C2451 C2450 1.443 . S
H2452 C2479 0.929 . S
N2453 C2478 1.433 . S
N2453 C2484 1.435 . S
N2453 C2490 1.423 . S
H2454 C2480 0.930 . S
H2455 C2483 0.931 . S
H2456 C2482 0.929 . S
H2457 C2485 0.930 . S
H2458 C2486 0.932 . S
H2459 C2489 0.929 . S
H2460 C2488 0.931 . S
H2461 C2491 0.929 . S
H2462 C2495 0.932 . S
H2463 C2492 0.931 . S
H2464 C2494 0.929 . S
H2465 C2497 0.929 . S
H2466 C2498 0.930 . S
H2467 C2500 0.929 . S
H2468 C2501 0.931 . S
H2469 C2503 0.930 . S
H2470 C2504 0.932 . S
H2471 C2506 0.931 . S
H2472 C2507 0.929 . S
H2473 C2509 0.929 . S
H2474 C2510 0.931 . S
H2475 C2512 0.929 . S
N2476 C2496 1.433 . S
N2476 C2502 1.435 . S
N2476 C2508 1.423 . S
H2477 C2513 0.932 . S
C2478 N2453 1.433 . S
C2478 C2479 1.363 . S
C2478 C2483 1.370 . S
C2479 H2452 0.929 . S
C2479 C2478 1.363 . S
C2479 C2480 1.385 . S
C2480 H2454 0.930 . S
C2480 C2479 1.385 . S
C2480 C2481 1.357 . S
C2481 C2480 1.357 . S
C2481 C2482 1.406 . S
C2482 H2456 0.929 . S
C2482 C2481 1.406 . S
C2482 C2483 1.391 . S
C2483 H2455 0.931 . S
C2483 C2478 1.370 . S
C2483 C2482 1.391 . S
C2484 N2453 1.435 . S
C2484 C2485 1.358 . S
C2484 C2489 1.371 . S
C2485 H2457 0.930 . S
C2485 C2484 1.358 . S
C2485 C2486 1.405 . S
C2486 H2458 0.932 . S
C2486 C2485 1.405 . S
C2486 C2487 1.383 . S
C2487 C2486 1.383 . S
C2487 C2488 1.393 . S
C2488 H2460 0.931 . S
C2488 C2487 1.393 . S
C2488 C2489 1.382 . S
C2489 H2459 0.929 . S
C2489 C2484 1.371 . S
C2489 C2488 1.382 . S
C2490 N2453 1.423 . S
C2490 C2491 1.362 . S
C2490 C2495 1.388 . S
C2491 H2461 0.929 . S
C2491 C2490 1.362 . S
C2491 C2492 1.376 . S
C2492 H2463 0.931 . S
C2492 C2491 1.376 . S
C2492 C2493 1.396 . S
C2493 C2492 1.396 . S
C2493 C2494 1.348 . S
C2493 C2511 1.472 . S
C2494 H2464 0.929 . S
C2494 C2493 1.348 . S
C2494 C2495 1.443 . S
C2495 H2462 0.932 . S
C2495 C2490 1.388 . S
C2495 C2494 1.443 . S
C2496 N2476 1.433 . S
C2496 C2497 1.363 . S
C2496 C2501 1.370 . S
C2497 H2465 0.929 . S
C2497 C2496 1.363 . S
C2497 C2498 1.385 . S
C2498 H2466 0.930 . S
C2498 C2497 1.385 . S
C2498 C2499 1.357 . S
C2499 C2498 1.357 . S
C2499 C2500 1.406 . S
C2500 H2467 0.929 . S
C2500 C2499 1.406 . S
C2500 C2501 1.391 . S
C2501 H2468 0.931 . S
C2501 C2496 1.370 . S
C2501 C2500 1.391 . S
C2502 N2476 1.435 . S
C2502 C2503 1.358 . S
C2502 C2507 1.371 . S
C2503 H2469 0.930 . S
C2503 C2502 1.358 . S
C2503 C2504 1.405 . S
C2504 H2470 0.932 . S
C2504 C2503 1.405 . S
C2504 C2505 1.383 . S
C2505 C2504 1.383 . S
C2505 C2506 1.393 . S
C2506 H2471 0.931 . S
C2506 C2505 1.393 . S
C2506 C2507 1.382 . S
C2507 H2472 0.929 . S
C2507 C2502 1.371 . S
C2507 C2506 1.382 . S
C2508 N2476 1.423 . S
C2508 C2509 1.362 . S
C2508 C2513 1.388 . S
C2509 H2473 0.929 . S
C2509 C2508 1.362 . S
C2509 C2510 1.376 . S
C2510 H2474 0.931 . S
C2510 C2509 1.376 . S
C2510 C2511 1.396 . S
C2511 C2493 1.472 . S
C2511 C2510 1.396 . S
C2511 C2512 1.348 . S
C2512 H2475 0.929 . S
C2512 C2511 1.348 . S
C2512 C2513 1.443 . S
C2513 H2477 0.932 . S
C2513 C2508 1.388 . S
C2513 C2512 1.443 . S
H2514 C2541 0.929 . S
N2515 C2540 1.433 . S
N2515 C2546 1.435 . S
N2515 C2552 1.423 . S
H2516 C2542 0.930 . S
H2517 C2545 0.931 . S
H2518 C2544 0.929 . S
H2519 C2547 0.930 . S
H2520 C2548 0.932 . S
H2521 C2551 0.929 . S
H2522 C2550 0.931 . S
H2523 C2553 0.929 . S
H2524 C2557 0.932 . S
H2525 C2554 0.931 . S
H2526 C2556 0.929 . S
H2527 C2559 0.929 . S
H2528 C2560 0.930 . S
H2529 C2562 0.929 . S
H2530 C2563 0.931 . S
H2531 C2565 0.930 . S
H2532 C2566 0.932 . S
H2533 C2568 0.931 . S
H2534 C2569 0.929 . S
H2535 C2571 0.929 . S
H2536 C2572 0.931 . S
H2537 C2574 0.929 . S
N2538 C2558 1.433 . S
N2538 C2564 1.435 . S
N2538 C2570 1.423 . S
H2539 C2575 0.932 . S
C2540 N2515 1.433 . S
C2540 C2541 1.363 . S
C2540 C2545 1.370 . S
C2541 H2514 0.929 . S
C2541 C2540 1.363 . S
C2541 C2542 1.385 . S
C2542 H2516 0.930 . S
C2542 C2541 1.385 . S
C2542 C2543 1.357 . S
C2543 C2542 1.357 . S
C2543 C2544 1.406 . S
C2544 H2518 0.929 . S
C2544 C2543 1.406 . S
C2544 C2545 1.391 . S
C2545 H2517 0.931 . S
C2545 C2540 1.370 . S
C2545 C2544 1.391 . S
C2546 N2515 1.435 . S
C2546 C2547 1.358 . S
C2546 C2551 1.371 . S
C2547 H2519 0.930 . S
C2547 C2546 1.358 . S
C2547 C2548 1.405 . S
C2548 H2520 0.932 . S
C2548 C2547 1.405 . S
C2548 C2549 1.383 . S
C2549 C2548 1.383 . S
C2549 C2550 1.393 . S
C2550 H2522 0.931 . S
C2550 C2549 1.393 . S
C2550 C2551 1.382 . S
C2551 H2521 0.929 . S
C2551 C2546 1.371 . S
C2551 C2550 1.382 . S
C2552 N2515 1.423 . S
C2552 C2553 1.362 . S
C2552 C2557 1.388 . S
C2553 H2523 0.929 . S
C2553 C2552 1.362 . S
C2553 C2554 1.376 . S
C2554 H2525 0.931 . S
C2554 C2553 1.376 . S
C2554 C2555 1.396 . S
C2555 C2554 1.396 . S
C2555 C2556 1.348 . S
C2555 C2573 1.472 . S
C2556 H2526 0.929 . S
C2556 C2555 1.348 . S
C2556 C2557 1.443 . S
C2557 H2524 0.932 . S
C2557 C2552 1.388 . S
C2557 C2556 1.443 . S
C2558 N2538 1.433 . S
C2558 C2559 1.363 . S
C2558 C2563 1.370 . S
C2559 H2527 0.929 . S
C2559 C2558 1.363 . S
C2559 C2560 1.385 . S
C2560 H2528 0.930 . S
C2560 C2559 1.385 . S
C2560 C2561 1.357 . S
C2561 C2560 1.357 . S
C2561 C2562 1.406 . S
C2562 H2529 0.929 . S
C2562 C2561 1.406 . S
C2562 C2563 1.391 . S
C2563 H2530 0.931 . S
C2563 C2558 1.370 . S
C2563 C2562 1.391 . S
C2564 N2538 1.435 . S
C2564 C2565 1.358 . S
C2564 C2569 1.371 . S
C2565 H2531 0.930 . S
C2565 C2564 1.358 . S
C2565 C2566 1.405 . S
C2566 H2532 0.932 . S
C2566 C2565 1.405 . S
C2566 C2567 1.383 . S
C2567 C2566 1.383 . S
C2567 C2568 1.393 . S
C2568 H2533 0.931 . S
C2568 C2567 1.393 . S
C2568 C2569 1.382 . S
C2569 H2534 0.929 . S
C2569 C2564 1.371 . S
C2569 C2568 1.382 . S
C2570 N2538 1.423 . S
C2570 C2571 1.362 . S
C2570 C2575 1.388 . S
C2571 H2535 0.929 . S
C2571 C2570 1.362 . S
C2571 C2572 1.376 . S
C2572 H2536 0.931 . S
C2572 C2571 1.376 . S
C2572 C2573 1.396 . S
C2573 C2555 1.472 . S
C2573 C2572 1.396 . S
C2573 C2574 1.348 . S
C2574 H2537 0.929 . S
C2574 C2573 1.348 . S
C2574 C2575 1.443 . S
C2575 H2539 0.932 . S
C2575 C2570 1.388 . S
C2575 C2574 1.443 . S
H2576 C2603 0.929 . S
N2577 C2602 1.433 . S
N2577 C2608 1.435 . S
N2577 C2614 1.423 . S
H2578 C2604 0.930 . S
H2579 C2607 0.931 . S
H2580 C2606 0.929 . S
H2581 C2609 0.930 . S
H2582 C2610 0.932 . S
H2583 C2613 0.929 . S
H2584 C2612 0.931 . S
H2585 C2615 0.929 . S
H2586 C2619 0.932 . S
H2587 C2616 0.931 . S
H2588 C2618 0.929 . S
H2589 C2621 0.929 . S
H2590 C2622 0.930 . S
H2591 C2624 0.929 . S
H2592 C2625 0.931 . S
H2593 C2627 0.930 . S
H2594 C2628 0.932 . S
H2595 C2630 0.931 . S
H2596 C2631 0.929 . S
H2597 C2633 0.929 . S
H2598 C2634 0.931 . S
H2599 C2636 0.929 . S
N2600 C2620 1.433 . S
N2600 C2626 1.435 . S
N2600 C2632 1.423 . S
H2601 C2637 0.932 . S
C2602 N2577 1.433 . S
C2602 C2603 1.363 . S
C2602 C2607 1.370 . S
C2603 H2576 0.929 . S
C2603 C2602 1.363 . S
C2603 C2604 1.385 . S
C2604 H2578 0.930 . S
C2604 C2603 1.385 . S
C2604 C2605 1.357 . S
C2605 C2604 1.357 . S
C2605 C2606 1.406 . S
C2606 H2580 0.929 . S
C2606 C2605 1.406 . S
C2606 C2607 1.391 . S
C2607 H2579 0.931 . S
C2607 C2602 1.370 . S
C2607 C2606 1.391 . S
C2608 N2577 1.435 . S
C2608 C2609 1.358 . S
C2608 C2613 1.371 . S
C2609 H2581 0.930 . S
C2609 C2608 1.358 . S
C2609 C2610 1.405 . S
C2610 H2582 0.932 . S
C2610 C2609 1.405 . S
C2610 C2611 1.383 . S
C2611 C2610 1.383 . S
C2611 C2612 1.393 . S
C2612 H2584 0.931 . S
C2612 C2611 1.393 . S
C2612 C2613 1.382 . S
C2613 H2583 0.929 . S
C2613 C2608 1.371 . S
C2613 C2612 1.382 . S
C2614 N2577 1.423 . S
C2614 C2615 1.362 . S
C2614 C2619 1.388 . S
C2615 H2585 0.929 . S
C2615 C2614 1.362 . S
C2615 C2616 1.376 . S
C2616 H2587 0.931 . S
C2616 C2615 1.376 . S
C2616 C2617 1.396 . S
C2617 C2616 1.396 . S
C2617 C2618 1.348 . S
C2617 C2635 1.472 . S
C2618 H2588 0.929 . S
C2618 C2617 1.348 . S
C2618 C2619 1.443 . S
C2619 H2586 0.932 . S
C2619 C2614 1.388 . S
C2619 C2618 1.443 . S
C2620 N2600 1.433 . S
C2620 C2621 1.363 . S
C2620 C2625 1.370 . S
C2621 H2589 0.929 . S
C2621 C2620 1.363 . S
C2621 C2622 1.385 . S
C2622 H2590 0.930 . S
C2622 C2621 1.385 . S
C2622 C2623 1.357 . S
C2623 C2622 1.357 . S
C2623 C2624 1.406 . S
C2624 H2591 0.929 . S
C2624 C2623 1.406 . S
C2624 C2625 1.391 . S
C2625 H2592 0.931 . S
C2625 C2620 1.370 . S
C2625 C2624 1.391 . S
C2626 N2600 1.435 . S
C2626 C2627 1.358 . S
C2626 C2631 1.371 . S
C2627 H2593 0.930 . S
C2627 C2626 1.358 . S
C2627 C2628 1.405 . S
C2628 H2594 0.932 . S
C2628 C2627 1.405 . S
C2628 C2629 1.383 . S
C2629 C2628 1.383 . S
C2629 C2630 1.393 . S
C2630 H2595 0.931 . S
C2630 C2629 1.393 . S
C2630 C2631 1.382 . S
C2631 H2596 0.929 . S
C2631 C2626 1.371 . S
C2631 C2630 1.382 . S
C2632 N2600 1.423 . S
C2632 C2633 1.362 . S
C2632 C2637 1.388 . S
C2633 H2597 0.929 . S
C2633 C2632 1.362 . S
C2633 C2634 1.376 . S
C2634 H2598 0.931 . S
C2634 C2633 1.376 . S
C2634 C2635 1.396 . S
C2635 C2617 1.472 . S
C2635 C2634 1.396 . S
C2635 C2636 1.348 . S
C2636 H2599 0.929 . S
C2636 C2635 1.348 . S
C2636 C2637 1.443 . S
C2637 H2601 0.932 . S
C2637 C2632 1.388 . S
C2637 C2636 1.443 . S
H2638 C2665 0.929 . S
N2639 C2664 1.433 . S
N2639 C2670 1.435 . S
N2639 C2676 1.423 . S
H2640 C2666 0.930 . S
H2641 C2669 0.931 . S
H2642 C2668 0.929 . S
H2643 C2671 0.930 . S
H2644 C2672 0.932 . S
H2645 C2675 0.929 . S
H2646 C2674 0.931 . S
H2647 C2677 0.929 . S
H2648 C2681 0.932 . S
H2649 C2678 0.931 . S
H2650 C2680 0.929 . S
H2651 C2683 0.929 . S
H2652 C2684 0.930 . S
H2653 C2686 0.929 . S
H2654 C2687 0.931 . S
H2655 C2689 0.930 . S
H2656 C2690 0.932 . S
H2657 C2692 0.931 . S
H2658 C2693 0.929 . S
H2659 C2695 0.929 . S
H2660 C2696 0.931 . S
H2661 C2698 0.929 . S
N2662 C2682 1.433 . S
N2662 C2688 1.435 . S
N2662 C2694 1.423 . S
H2663 C2699 0.932 . S
C2664 N2639 1.433 . S
C2664 C2665 1.363 . S
C2664 C2669 1.370 . S
C2665 H2638 0.929 . S
C2665 C2664 1.363 . S
C2665 C2666 1.385 . S
C2666 H2640 0.930 . S
C2666 C2665 1.385 . S
C2666 C2667 1.357 . S
C2667 C2666 1.357 . S
C2667 C2668 1.406 . S
C2668 H2642 0.929 . S
C2668 C2667 1.406 . S
C2668 C2669 1.391 . S
C2669 H2641 0.931 . S
C2669 C2664 1.370 . S
C2669 C2668 1.391 . S
C2670 N2639 1.435 . S
C2670 C2671 1.358 . S
C2670 C2675 1.371 . S
C2671 H2643 0.930 . S
C2671 C2670 1.358 . S
C2671 C2672 1.405 . S
C2672 H2644 0.932 . S
C2672 C2671 1.405 . S
C2672 C2673 1.383 . S
C2673 C2672 1.383 . S
C2673 C2674 1.393 . S
C2674 H2646 0.931 . S
C2674 C2673 1.393 . S
C2674 C2675 1.382 . S
C2675 H2645 0.929 . S
C2675 C2670 1.371 . S
C2675 C2674 1.382 . S
C2676 N2639 1.423 . S
C2676 C2677 1.362 . S
C2676 C2681 1.388 . S
C2677 H2647 0.929 . S
C2677 C2676 1.362 . S
C2677 C2678 1.376 . S
C2678 H2649 0.931 . S
C2678 C2677 1.376 . S
C2678 C2679 1.396 . S
C2679 C2678 1.396 . S
C2679 C2680 1.348 . S
C2679 C2697 1.472 . S
C2680 H2650 0.929 . S
C2680 C2679 1.348 . S
C2680 C2681 1.443 . S
C2681 H2648 0.932 . S
C2681 C2676 1.388 . S
C2681 C2680 1.443 . S
C2682 N2662 1.433 . S
C2682 C2683 1.363 . S
C2682 C2687 1.370 . S
C2683 H2651 0.929 . S
C2683 C2682 1.363 . S
C2683 C2684 1.385 . S
C2684 H2652 0.930 . S
C2684 C2683 1.385 . S
C2684 C2685 1.357 . S
C2685 C2684 1.357 . S
C2685 C2686 1.406 . S
C2686 H2653 0.929 . S
C2686 C2685 1.406 . S
C2686 C2687 1.391 . S
C2687 H2654 0.931 . S
C2687 C2682 1.370 . S
C2687 C2686 1.391 . S
C2688 N2662 1.435 . S
C2688 C2689 1.358 . S
C2688 C2693 1.371 . S
C2689 H2655 0.930 . S
C2689 C2688 1.358 . S
C2689 C2690 1.405 . S
C2690 H2656 0.932 . S
C2690 C2689 1.405 . S
C2690 C2691 1.383 . S
C2691 C2690 1.383 . S
C2691 C2692 1.393 . S
C2692 H2657 0.931 . S
C2692 C2691 1.393 . S
C2692 C2693 1.382 . S
C2693 H2658 0.929 . S
C2693 C2688 1.371 . S
C2693 C2692 1.382 . S
C2694 N2662 1.423 . S
C2694 C2695 1.362 . S
C2694 C2699 1.388 . S
C2695 H2659 0.929 . S
C2695 C2694 1.362 . S
C2695 C2696 1.376 . S
C2696 H2660 0.931 . S
C2696 C2695 1.376 . S
C2696 C2697 1.396 . S
C2697 C2679 1.472 . S
C2697 C2696 1.396 . S
C2697 C2698 1.348 . S
C2698 H2661 0.929 . S
C2698 C2697 1.348 . S
C2698 C2699 1.443 . S
C2699 H2663 0.932 . S
C2699 C2694 1.388 . S
C2699 C2698 1.443 . S
H2700 C2706 0.930 1_455 S
H2701 C2710 0.930 . S
H2702 C2715 0.929 . S
H2703 C2713 0.929 . S
H2704 C2708 0.929 . S
H2705 C2714 0.929 1_455 S
C2706 H2700 0.930 1_655 S
C2706 C2707 1.367 . S
C2706 C2714 1.378 . S
C2707 C2706 1.367 . S
C2707 C2715 1.433 . S
C2708 H2704 0.929 . S
C2708 C2710 1.378 . S
C2708 C2712 1.350 . S
C2709 C2712 1.463 . S
C2709 C2714 1.350 . S
C2709 N2717 1.427 . S
C2710 H2701 0.930 . S
C2710 C2708 1.378 . S
C2710 C2711 1.367 . S
C2711 C2710 1.367 . S
C2711 C2713 1.433 1_655 S
C2712 C2708 1.350 . S
C2712 C2709 1.463 . S
C2712 N2716 1.406 1_655 S
C2713 H2703 0.929 . S
C2713 C2711 1.433 1_455 S
C2713 N2716 1.373 . S
C2714 H2705 0.929 1_655 S
C2714 C2706 1.378 . S
C2714 C2709 1.350 . S
C2715 H2702 0.929 . S
C2715 C2707 1.433 . S
C2715 N2717 1.384 . S
N2716 C2712 1.406 1_455 S
N2716 C2713 1.373 . S
N2717 C2709 1.427 . S
N2717 C2715 1.384 . S
H2718 C2724 0.930 . S
H2719 C2728 0.930 . S
H2720 C2733 0.929 . S
H2721 C2731 0.929 . S
H2722 C2726 0.929 . S
H2723 C2732 0.929 . S
C2724 H2718 0.930 . S
C2724 C2725 1.367 . S
C2724 C2732 1.378 . S
C2725 C2724 1.367 . S
C2725 C2733 1.433 . S
C2726 H2722 0.929 . S
C2726 C2728 1.378 . S
C2726 C2730 1.350 . S
C2727 C2730 1.463 . S
C2727 C2732 1.350 . S
C2727 N2735 1.427 . S
C2728 H2719 0.930 . S
C2728 C2726 1.378 . S
C2728 C2729 1.367 . S
C2729 C2728 1.367 . S
C2729 C2731 1.433 . S
C2730 C2726 1.350 . S
C2730 C2727 1.463 . S
C2730 N2734 1.427 . S
C2731 H2721 0.929 . S
C2731 C2729 1.433 . S
C2731 N2734 1.384 . S
C2732 H2723 0.929 . S
C2732 C2724 1.378 . S
C2732 C2727 1.350 . S
C2733 H2720 0.929 . S
C2733 C2725 1.433 . S
C2733 N2735 1.384 . S
N2734 C2730 1.427 . S
N2734 C2731 1.384 . S
N2735 C2727 1.427 . S
N2735 C2733 1.384 . S
H2736 C2742 0.930 . S
H2737 C2746 0.930 . S
H2738 C2751 0.929 1_565 S
H2739 C2749 0.929 . S
H2740 C2744 0.929 . S
H2741 C2750 0.929 . S
C2742 H2736 0.930 . S
C2742 C2743 1.367 . S
C2742 C2750 1.378 . S
C2743 C2742 1.367 . S
C2743 C2751 1.433 . S
C2744 H2740 0.929 . S
C2744 C2746 1.378 . S
C2744 C2748 1.350 1_565 S
C2745 C2748 1.463 . S
C2745 C2750 1.350 . S
C2745 N2753 1.481 . S
C2746 H2737 0.930 . S
C2746 C2744 1.378 . S
C2746 C2747 1.367 1_565 S
C2747 C2746 1.367 1_545 S
C2747 C2749 1.433 . S
C2748 C2744 1.350 1_545 S
C2748 C2745 1.463 . S
C2748 N2752 1.427 . S
C2749 H2739 0.929 . S
C2749 C2747 1.433 . S
C2749 N2752 1.384 . S
C2750 H2741 0.929 . S
C2750 C2742 1.378 . S
C2750 C2745 1.350 . S
C2751 H2738 0.929 1_545 S
C2751 C2743 1.433 . S
C2751 N2753 1.430 . S
N2752 C2748 1.427 . S
N2752 C2749 1.384 . S
N2753 C2745 1.481 . S
N2753 C2751 1.430 . S
H2754 C2760 0.930 . S
H2755 C2764 0.959 . S
H2756 C2769 0.893 1_545 S
H2757 C2767 0.929 . S
H2758 C2762 0.890 1_545 S
H2759 C2768 0.929 . S
C2760 H2754 0.930 . S
C2760 C2761 1.367 . S
C2760 C2768 1.378 . S
C2761 C2760 1.367 . S
C2761 C2769 1.433 . S
C2762 H2758 0.890 1_565 S
C2762 C2764 1.413 1_565 S
C2762 C2766 1.375 . S
C2763 C2766 1.463 . S
C2763 C2768 1.350 . S
C2763 N2771 1.427 . S
C2764 H2755 0.959 . S
C2764 C2762 1.413 1_545 S
C2764 C2765 1.322 1_545 S
C2765 C2764 1.322 1_565 S
C2765 C2767 1.433 . S
C2766 C2762 1.375 . S
C2766 C2763 1.463 . S
C2766 N2770 1.427 . S
C2767 H2757 0.929 . S
C2767 C2765 1.433 . S
C2767 N2770 1.384 . S
C2768 H2759 0.929 . S
C2768 C2760 1.378 . S
C2768 C2763 1.350 . S
C2769 H2756 0.893 1_565 S
C2769 C2761 1.433 . S
C2769 N2771 1.384 . S
N2770 C2766 1.427 . S
N2770 C2767 1.384 . S
N2771 C2763 1.427 . S
N2771 C2769 1.384 . S
H2772 C2778 0.930 . S
H2773 C2782 0.930 . S
H2774 C2787 0.929 . S
H2775 C2785 0.929 . S
H2776 C2780 0.929 . S
H2777 C2786 0.929 . S
C2778 H2772 0.930 . S
C2778 C2779 1.367 . S
C2778 C2786 1.378 . S
C2779 C2778 1.367 . S
C2779 C2787 1.433 . S
C2780 H2776 0.929 . S
C2780 C2782 1.378 . S
C2780 C2784 1.350 . S
C2781 C2784 1.463 . S
C2781 C2786 1.350 . S
C2781 N2789 1.427 . S
C2782 H2773 0.930 . S
C2782 C2780 1.378 . S
C2782 C2783 1.367 . S
C2783 C2782 1.367 . S
C2783 C2785 1.433 . S
C2784 C2780 1.350 . S
C2784 C2781 1.463 . S
C2784 N2788 1.427 . S
C2785 H2775 0.929 . S
C2785 C2783 1.433 . S
C2785 N2788 1.384 . S
C2786 H2777 0.929 . S
C2786 C2778 1.378 . S
C2786 C2781 1.350 . S
C2787 H2774 0.929 . S
C2787 C2779 1.433 . S
C2787 N2789 1.384 . S
N2788 C2784 1.427 . S
N2788 C2785 1.384 . S
N2789 C2781 1.427 . S
N2789 C2787 1.384 . S
H2790 C2796 0.930 . S
H2791 C2800 0.930 . S
H2792 C2805 0.929 . S
H2793 C2803 0.929 . S
H2794 C2798 0.929 . S
H2795 C2804 0.929 . S
C2796 H2790 0.930 . S
C2796 C2797 1.367 . S
C2796 C2804 1.378 . S
C2797 C2796 1.367 . S
C2797 C2805 1.433 . S
C2798 H2794 0.929 . S
C2798 C2800 1.378 . S
C2798 C2802 1.350 . S
C2799 C2802 1.463 . S
C2799 C2804 1.350 . S
C2799 N2807 1.427 . S
C2800 H2791 0.930 . S
C2800 C2798 1.378 . S
C2800 C2801 1.367 . S
C2801 C2800 1.367 . S
C2801 C2803 1.433 . S
C2802 C2798 1.350 . S
C2802 C2799 1.463 . S
C2802 N2806 1.427 . S
C2803 H2793 0.929 . S
C2803 C2801 1.433 . S
C2803 N2806 1.384 . S
C2804 H2795 0.929 . S
C2804 C2796 1.378 . S
C2804 C2799 1.350 . S
C2805 H2792 0.929 . S
C2805 C2797 1.433 . S
C2805 N2807 1.384 . S
N2806 C2802 1.427 . S
N2806 C2803 1.384 . S
N2807 C2799 1.427 . S
N2807 C2805 1.384 . S
H2808 C2814 0.930 . S
H2809 C2818 0.930 1_655 S
H2810 C2823 0.962 . S
H2811 C2821 0.929 . S
H2812 C2816 0.929 1_655 S
H2813 C2822 0.929 . S
C2814 H2808 0.930 . S
C2814 C2815 1.367 . S
C2814 C2822 1.378 . S
C2815 C2814 1.367 . S
C2815 C2823 1.433 . S
C2816 H2812 0.929 1_455 S
C2816 C2818 1.378 . S
C2816 C2820 1.350 . S
C2817 C2820 1.463 . S
C2817 C2822 1.350 . S
C2817 N2825 1.427 . S
C2818 H2809 0.930 1_455 S
C2818 C2816 1.378 . S
C2818 C2819 1.367 . S
C2819 C2818 1.367 . S
C2819 C2821 1.433 . S
C2820 C2816 1.350 . S
C2820 C2817 1.463 . S
C2820 N2824 1.427 . S
C2821 H2811 0.929 . S
C2821 C2819 1.433 . S
C2821 N2824 1.384 . S
C2822 H2813 0.929 . S
C2822 C2814 1.378 . S
C2822 C2817 1.350 . S
C2823 H2810 0.962 . S
C2823 C2815 1.433 . S
C2823 N2825 1.384 . S
N2824 C2820 1.427 . S
N2824 C2821 1.384 . S
N2825 C2817 1.427 . S
N2825 C2823 1.384 . S
H2826 C2832 0.930 . S
H2827 C2836 0.930 . S
H2828 C2841 0.929 . S
H2829 C2839 0.929 . S
H2830 C2834 0.929 . S
H2831 C2840 0.929 . S
C2832 H2826 0.930 . S
C2832 C2833 1.367 . S
C2832 C2840 1.378 . S
C2833 C2832 1.367 . S
C2833 C2841 1.433 . S
C2834 H2830 0.929 . S
C2834 C2836 1.378 . S
C2834 C2838 1.350 . S
C2835 C2838 1.463 . S
C2835 C2840 1.350 . S
C2835 N2843 1.427 . S
C2836 H2827 0.930 . S
C2836 C2834 1.378 . S
C2836 C2837 1.367 . S
C2837 C2836 1.367 . S
C2837 C2839 1.433 . S
C2838 C2834 1.350 . S
C2838 C2835 1.463 . S
C2838 N2842 1.427 . S
C2839 H2829 0.929 . S
C2839 C2837 1.433 . S
C2839 N2842 1.384 . S
C2840 H2831 0.929 . S
C2840 C2832 1.378 . S
C2840 C2835 1.350 . S
C2841 H2828 0.929 . S
C2841 C2833 1.433 . S
C2841 N2843 1.384 . S
N2842 C2838 1.427 . S
N2842 C2839 1.384 . S
N2843 C2835 1.427 . S
N2843 C2841 1.384 . S
H2844 C2850 0.930 . S
H2845 C2854 0.930 . S
H2846 C2859 0.929 . S
H2847 C2857 0.929 . S
H2848 C2852 0.929 . S
H2849 C2858 0.929 . S
C2850 H2844 0.930 . S
C2850 C2851 1.367 . S
C2850 C2858 1.378 . S
C2851 C2850 1.367 . S
C2851 C2859 1.433 1_565 S
C2852 H2848 0.929 . S
C2852 C2854 1.378 . S
C2852 C2856 1.350 1_545 S
C2853 C2856 1.463 . S
C2853 C2858 1.350 . S
C2853 N2861 1.427 1_565 S
C2854 H2845 0.930 . S
C2854 C2852 1.378 . S
C2854 C2855 1.367 1_545 S
C2855 C2854 1.367 1_565 S
C2855 C2857 1.433 . S
C2856 C2852 1.350 1_565 S
C2856 C2853 1.463 . S
C2856 N2860 1.427 . S
C2857 H2847 0.929 . S
C2857 C2855 1.433 . S
C2857 N2860 1.384 . S
C2858 H2849 0.929 . S
C2858 C2850 1.378 . S
C2858 C2853 1.350 . S
C2859 H2846 0.929 . S
C2859 C2851 1.433 1_545 S
C2859 N2861 1.384 . S
N2860 C2856 1.427 . S
N2860 C2857 1.384 . S
N2861 C2853 1.427 1_545 S
N2861 C2859 1.384 . S
H2862 C2868 0.983 . S
H2863 C2872 0.930 . S
H2864 C2877 0.929 . S
H2865 C2875 0.929 . S
H2866 C2870 0.929 . S
H2867 C2876 0.929 . S
C2868 H2862 0.983 . S
C2868 C2869 1.333 1_565 S
C2868 C2876 1.360 . S
C2869 C2868 1.333 1_545 S
C2869 C2877 1.433 . S
C2870 H2866 0.929 . S
C2870 C2872 1.378 . S
C2870 C2874 1.350 . S
C2871 C2874 1.463 . S
C2871 C2876 1.350 1_545 S
C2871 N2879 1.427 . S
C2872 H2863 0.930 . S
C2872 C2870 1.378 . S
C2872 C2873 1.367 . S
C2873 C2872 1.367 . S
C2873 C2875 1.433 1_545 S
C2874 C2870 1.350 . S
C2874 C2871 1.463 . S
C2874 N2878 1.427 1_545 S
C2875 H2865 0.929 . S
C2875 C2873 1.433 1_565 S
C2875 N2878 1.384 . S
C2876 H2867 0.929 . S
C2876 C2868 1.360 . S
C2876 C2871 1.350 1_565 S
C2877 H2864 0.929 . S
C2877 C2869 1.433 . S
C2877 N2879 1.384 . S
N2878 C2874 1.427 1_565 S
N2878 C2875 1.384 . S
N2879 C2871 1.427 . S
N2879 C2877 1.384 . S
H2880 C2886 0.930 . S
H2881 C2890 0.930 . S
H2882 C2895 0.929 . S
H2883 C2893 0.857 1_455 S
H2884 C2888 0.929 . S
H2885 C2894 0.929 . S
C2886 H2880 0.930 . S
C2886 C2887 1.367 . S
C2886 C2894 1.378 . S
C2887 C2886 1.367 . S
C2887 C2895 1.433 . S
C2888 H2884 0.929 . S
C2888 C2890 1.378 . S
C2888 C2892 1.350 . S
C2889 C2892 1.463 . S
C2889 C2894 1.350 . S
C2889 N2897 1.427 . S
C2890 H2881 0.930 . S
C2890 C2888 1.378 . S
C2890 C2891 1.367 . S
C2891 C2890 1.367 . S
C2891 C2893 1.433 . S
C2892 C2888 1.350 . S
C2892 C2889 1.463 . S
C2892 N2896 1.427 . S
C2893 H2883 0.857 1_655 S
C2893 C2891 1.433 . S
C2893 N2896 1.384 . S
C2894 H2885 0.929 . S
C2894 C2886 1.378 . S
C2894 C2889 1.350 . S
C2895 H2882 0.929 . S
C2895 C2887 1.433 . S
C2895 N2897 1.384 . S
N2896 C2892 1.427 . S
N2896 C2893 1.384 . S
N2897 C2889 1.427 . S
N2897 C2895 1.384 . S
H2898 C2904 0.930 . S
H2899 C2908 0.930 . S
H2900 C2913 0.929 . S
H2901 C2911 0.929 . S
H2902 C2906 0.929 . S
H2903 C2912 0.929 . S
C2904 H2898 0.930 . S
C2904 C2905 1.367 . S
C2904 C2912 1.378 . S
C2905 C2904 1.367 . S
C2905 C2913 1.433 . S
C2906 H2902 0.929 . S
C2906 C2908 1.378 . S
C2906 C2910 1.350 . S
C2907 C2910 1.463 . S
C2907 C2912 1.350 . S
C2907 N2915 1.427 . S
C2908 H2899 0.930 . S
C2908 C2906 1.378 . S
C2908 C2909 1.367 . S
C2909 C2908 1.367 . S
C2909 C2911 1.433 . S
C2910 C2906 1.350 . S
C2910 C2907 1.463 . S
C2910 N2914 1.427 . S
C2911 H2901 0.929 . S
C2911 C2909 1.433 . S
C2911 N2914 1.384 . S
C2912 H2903 0.929 . S
C2912 C2904 1.378 . S
C2912 C2907 1.350 . S
C2913 H2900 0.929 . S
C2913 C2905 1.433 . S
C2913 N2915 1.384 . S
N2914 C2910 1.427 . S
N2914 C2911 1.384 . S
N2915 C2907 1.427 . S
N2915 C2913 1.384 . S
H2916 C2922 0.930 . S
H2917 C2926 0.930 . S
H2918 C2931 0.929 . S
H2919 C2929 0.929 . S
H2920 C2924 0.929 . S
H2921 C2930 0.929 . S
C2922 H2916 0.930 . S
C2922 C2923 1.367 . S
C2922 C2930 1.378 . S
C2923 C2922 1.367 . S
C2923 C2931 1.433 . S
C2924 H2920 0.929 . S
C2924 C2926 1.378 . S
C2924 C2928 1.350 . S
C2925 C2928 1.463 . S
C2925 C2930 1.350 . S
C2925 N2933 1.427 . S
C2926 H2917 0.930 . S
C2926 C2924 1.378 . S
C2926 C2927 1.367 . S
C2927 C2926 1.367 . S
C2927 C2929 1.433 . S
C2928 C2924 1.350 . S
C2928 C2925 1.463 . S
C2928 N2932 1.427 . S
C2929 H2919 0.929 . S
C2929 C2927 1.433 . S
C2929 N2932 1.384 . S
C2930 H2921 0.929 . S
C2930 C2922 1.378 . S
C2930 C2925 1.350 . S
C2931 H2918 0.929 . S
C2931 C2923 1.433 . S
C2931 N2933 1.384 . S
N2932 C2928 1.427 . S
N2932 C2929 1.384 . S
N2933 C2925 1.427 . S
N2933 C2931 1.384 . S
H2934 C2940 0.930 . S
H2935 C2944 0.930 . S
H2936 C2949 0.929 . S
H2937 C2947 0.929 . S
H2938 C2942 0.929 . S
H2939 C2948 0.929 . S
C2940 H2934 0.930 . S
C2940 C2941 1.367 . S
C2940 C2948 1.378 . S
C2941 C2940 1.367 . S
C2941 C2949 1.433 . S
C2942 H2938 0.929 . S
C2942 C2944 1.378 . S
C2942 C2946 1.350 . S
C2943 C2946 1.463 . S
C2943 C2948 1.350 . S
C2943 N2951 1.427 . S
C2944 H2935 0.930 . S
C2944 C2942 1.378 . S
C2944 C2945 1.367 . S
C2945 C2944 1.367 . S
C2945 C2947 1.433 . S
C2946 C2942 1.350 . S
C2946 C2943 1.463 . S
C2946 N2950 1.427 . S
C2947 H2937 0.929 . S
C2947 C2945 1.433 . S
C2947 N2950 1.384 . S
C2948 H2939 0.929 . S
C2948 C2940 1.378 . S
C2948 C2943 1.350 . S
C2949 H2936 0.929 . S
C2949 C2941 1.433 . S
C2949 N2951 1.384 . S
N2950 C2946 1.427 . S
N2950 C2947 1.384 . S
N2951 C2943 1.427 . S
N2951 C2949 1.384 . S
H2952 C2958 0.930 . S
H2953 C2962 0.930 . S
H2954 C2967 0.929 . S
H2955 C2965 0.929 . S
H2956 C2960 0.929 . S
H2957 C2966 0.929 . S
C2958 H2952 0.930 . S
C2958 C2959 1.367 . S
C2958 C2966 1.378 . S
C2959 C2958 1.367 . S
C2959 C2967 1.433 . S
C2960 H2956 0.929 . S
C2960 C2962 1.378 . S
C2960 C2964 1.350 . S
C2961 C2964 1.463 . S
C2961 C2966 1.350 . S
C2961 N2969 1.427 . S
C2962 H2953 0.930 . S
C2962 C2960 1.378 . S
C2962 C2963 1.367 . S
C2963 C2962 1.367 . S
C2963 C2965 1.433 . S
C2964 C2960 1.350 . S
C2964 C2961 1.463 . S
C2964 N2968 1.427 . S
C2965 H2955 0.929 . S
C2965 C2963 1.433 . S
C2965 N2968 1.384 . S
C2966 H2957 0.929 . S
C2966 C2958 1.378 . S
C2966 C2961 1.350 . S
C2967 H2954 0.929 . S
C2967 C2959 1.433 . S
C2967 N2969 1.384 . S
N2968 C2964 1.427 . S
N2968 C2965 1.384 . S
N2969 C2961 1.427 . S
N2969 C2967 1.384 . S
H2970 C2976 0.930 . S
H2971 C2980 0.930 . S
H2972 C2985 0.929 . S
H2973 C2983 0.929 . S
H2974 C2978 0.929 . S
H2975 C2984 0.929 . S
C2976 H2970 0.930 . S
C2976 C2977 1.367 . S
C2976 C2984 1.378 . S
C2977 C2976 1.367 . S
C2977 C2985 1.433 . S
C2978 H2974 0.929 . S
C2978 C2980 1.378 . S
C2978 C2982 1.350 . S
C2979 C2982 1.463 . S
C2979 C2984 1.350 . S
C2979 N2987 1.427 . S
C2980 H2971 0.930 . S
C2980 C2978 1.378 . S
C2980 C2981 1.367 . S
C2981 C2980 1.367 . S
C2981 C2983 1.433 . S
C2982 C2978 1.350 . S
C2982 C2979 1.463 . S
C2982 N2986 1.427 . S
C2983 H2973 0.929 . S
C2983 C2981 1.433 . S
C2983 N2986 1.384 . S
C2984 H2975 0.929 . S
C2984 C2976 1.378 . S
C2984 C2979 1.350 . S
C2985 H2972 0.929 . S
C2985 C2977 1.433 . S
C2985 N2987 1.384 . S
N2986 C2982 1.427 . S
N2986 C2983 1.384 . S
N2987 C2979 1.427 . S
N2987 C2985 1.384 . S
H2988 C2994 0.930 . S
H2989 C2998 0.930 . S
H2990 C3003 0.929 . S
H2991 C3001 0.929 . S
H2992 C2996 0.929 . S
H2993 C3002 0.929 . S
C2994 H2988 0.930 . S
C2994 C2995 1.367 . S
C2994 C3002 1.378 . S
C2995 C2994 1.367 . S
C2995 C3003 1.433 . S
C2996 H2992 0.929 . S
C2996 C2998 1.378 . S
C2996 C3000 1.350 . S
C2997 C3000 1.463 . S
C2997 C3002 1.350 . S
C2997 N3005 1.427 . S
C2998 H2989 0.930 . S
C2998 C2996 1.378 . S
C2998 C2999 1.367 . S
C2999 C2998 1.367 . S
C2999 C3001 1.433 . S
C3000 C2996 1.350 . S
C3000 C2997 1.463 . S
C3000 N3004 1.427 . S
C3001 H2991 0.929 . S
C3001 C2999 1.433 . S
C3001 N3004 1.384 . S
C3002 H2993 0.929 . S
C3002 C2994 1.378 . S
C3002 C2997 1.350 . S
C3003 H2990 0.929 . S
C3003 C2995 1.433 . S
C3003 N3005 1.384 . S
N3004 C3000 1.427 . S
N3004 C3001 1.384 . S
N3005 C2997 1.427 . S
N3005 C3003 1.384 . S
H3006 C3012 0.930 . S
H3007 C3016 0.930 . S
H3008 C3021 0.929 . S
H3009 C3019 0.929 . S
H3010 C3014 0.929 . S
H3011 C3020 0.929 . S
C3012 H3006 0.930 . S
C3012 C3013 1.367 . S
C3012 C3020 1.378 . S
C3013 C3012 1.367 . S
C3013 C3021 1.433 . S
C3014 H3010 0.929 . S
C3014 C3016 1.378 . S
C3014 C3018 1.350 . S
C3015 C3018 1.463 . S
C3015 C3020 1.350 . S
C3015 N3023 1.427 . S
C3016 H3007 0.930 . S
C3016 C3014 1.378 . S
C3016 C3017 1.367 . S
C3017 C3016 1.367 . S
C3017 C3019 1.433 . S
C3018 C3014 1.350 . S
C3018 C3015 1.463 . S
C3018 N3022 1.427 . S
C3019 H3009 0.929 . S
C3019 C3017 1.433 . S
C3019 N3022 1.384 . S
C3020 H3011 0.929 . S
C3020 C3012 1.378 . S
C3020 C3015 1.350 . S
C3021 H3008 0.929 . S
C3021 C3013 1.433 . S
C3021 N3023 1.384 . S
N3022 C3018 1.427 . S
N3022 C3019 1.384 . S
N3023 C3015 1.427 . S
N3023 C3021 1.384 . S
H3024 C3030 0.930 . S
H3025 C3034 0.930 . S
H3026 C3039 0.929 . S
H3027 C3037 0.929 . S
H3028 C3032 0.929 . S
H3029 C3038 0.929 . S
C3030 H3024 0.930 . S
C3030 C3031 1.367 . S
C3030 C3038 1.378 . S
C3031 C3030 1.367 . S
C3031 C3039 1.433 . S
C3032 H3028 0.929 . S
C3032 C3034 1.378 . S
C3032 C3036 1.350 . S
C3033 C3036 1.463 . S
C3033 C3038 1.350 . S
C3033 N3041 1.427 . S
C3034 H3025 0.930 . S
C3034 C3032 1.378 . S
C3034 C3035 1.367 . S
C3035 C3034 1.367 . S
C3035 C3037 1.433 . S
C3036 C3032 1.350 . S
C3036 C3033 1.463 . S
C3036 N3040 1.427 . S
C3037 H3027 0.929 . S
C3037 C3035 1.433 . S
C3037 N3040 1.384 . S
C3038 H3029 0.929 . S
C3038 C3030 1.378 . S
C3038 C3033 1.350 . S
C3039 H3026 0.929 . S
C3039 C3031 1.433 . S
C3039 N3041 1.384 . S
N3040 C3036 1.427 . S
N3040 C3037 1.384 . S
N3041 C3033 1.427 . S
N3041 C3039 1.384 . S
H3042 C3048 0.930 . S
H3043 C3052 0.930 . S
H3044 C3057 0.929 . S
H3045 C3055 0.929 . S
H3046 C3050 0.929 . S
H3047 C3056 0.929 . S
C3048 H3042 0.930 . S
C3048 C3049 1.367 . S
C3048 C3056 1.378 . S
C3049 C3048 1.367 . S
C3049 C3057 1.433 . S
C3050 H3046 0.929 . S
C3050 C3052 1.378 . S
C3050 C3054 1.350 . S
C3051 C3054 1.463 . S
C3051 C3056 1.350 . S
C3051 N3059 1.427 . S
C3052 H3043 0.930 . S
C3052 C3050 1.378 . S
C3052 C3053 1.367 . S
C3053 C3052 1.367 . S
C3053 C3055 1.433 . S
C3054 C3050 1.350 . S
C3054 C3051 1.463 . S
C3054 N3058 1.427 . S
C3055 H3045 0.929 . S
C3055 C3053 1.433 . S
C3055 N3058 1.384 . S
C3056 H3047 0.929 . S
C3056 C3048 1.378 . S
C3056 C3051 1.350 . S
C3057 H3044 0.929 . S
C3057 C3049 1.433 . S
C3057 N3059 1.384 . S
N3058 C3054 1.427 . S
N3058 C3055 1.384 . S
N3059 C3051 1.427 . S
N3059 C3057 1.384 . S
H3060 C3066 0.930 . S
H3061 C3070 0.930 . S
H3062 C3075 0.929 . S
H3063 C3073 0.929 . S
H3064 C3068 0.929 . S
H3065 C3074 0.929 . S
C3066 H3060 0.930 . S
C3066 C3067 1.367 . S
C3066 C3074 1.378 . S
C3067 C3066 1.367 . S
C3067 C3075 1.433 . S
C3068 H3064 0.929 . S
C3068 C3070 1.378 . S
C3068 C3072 1.350 . S
C3069 C3072 1.463 . S
C3069 C3074 1.350 . S
C3069 N3077 1.427 . S
C3070 H3061 0.930 . S
C3070 C3068 1.378 . S
C3070 C3071 1.367 . S
C3071 C3070 1.367 . S
C3071 C3073 1.433 . S
C3072 C3068 1.350 . S
C3072 C3069 1.463 . S
C3072 N3076 1.427 . S
C3073 H3063 0.929 . S
C3073 C3071 1.433 . S
C3073 N3076 1.384 . S
C3074 H3065 0.929 . S
C3074 C3066 1.378 . S
C3074 C3069 1.350 . S
C3075 H3062 0.929 . S
C3075 C3067 1.433 . S
C3075 N3077 1.384 . S
N3076 C3072 1.427 . S
N3076 C3073 1.384 . S
N3077 C3069 1.427 . S
N3077 C3075 1.384 . S
H3078 C3084 0.930 . S
H3079 C3088 0.930 . S
H3080 C3093 0.929 . S
H3081 C3091 0.929 . S
H3082 C3086 0.929 . S
H3083 C3092 0.929 . S
C3084 H3078 0.930 . S
C3084 C3085 1.367 . S
C3084 C3092 1.378 . S
C3085 C3084 1.367 . S
C3085 C3093 1.433 . S
C3086 H3082 0.929 . S
C3086 C3088 1.378 . S
C3086 C3090 1.350 . S
C3087 C3090 1.463 . S
C3087 C3092 1.350 . S
C3087 N3095 1.427 . S
C3088 H3079 0.930 . S
C3088 C3086 1.378 . S
C3088 C3089 1.367 . S
C3089 C3088 1.367 . S
C3089 C3091 1.433 . S
C3090 C3086 1.350 . S
C3090 C3087 1.463 . S
C3090 N3094 1.427 . S
C3091 H3081 0.929 . S
C3091 C3089 1.433 . S
C3091 N3094 1.384 . S
C3092 H3083 0.929 . S
C3092 C3084 1.378 . S
C3092 C3087 1.350 . S
C3093 H3080 0.929 . S
C3093 C3085 1.433 . S
C3093 N3095 1.384 . S
N3094 C3090 1.427 . S
N3094 C3091 1.384 . S
N3095 C3087 1.427 . S
N3095 C3093 1.384 . S
H3096 C3102 0.930 . S
H3097 C3106 0.930 . S
H3098 C3111 0.929 . S
H3099 C3109 0.929 . S
H3100 C3104 0.929 . S
H3101 C3110 0.929 . S
C3102 H3096 0.930 . S
C3102 C3103 1.367 . S
C3102 C3110 1.378 . S
C3103 C3102 1.367 . S
C3103 C3111 1.433 . S
C3104 H3100 0.929 . S
C3104 C3106 1.378 . S
C3104 C3108 1.350 . S
C3105 C3108 1.463 . S
C3105 C3110 1.350 . S
C3105 N3113 1.427 . S
C3106 H3097 0.930 . S
C3106 C3104 1.378 . S
C3106 C3107 1.367 . S
C3107 C3106 1.367 . S
C3107 C3109 1.433 . S
C3108 C3104 1.350 . S
C3108 C3105 1.463 . S
C3108 N3112 1.427 . S
C3109 H3099 0.929 . S
C3109 C3107 1.433 . S
C3109 N3112 1.384 . S
C3110 H3101 0.929 . S
C3110 C3102 1.378 . S
C3110 C3105 1.350 . S
C3111 H3098 0.929 . S
C3111 C3103 1.433 . S
C3111 N3113 1.384 . S
N3112 C3108 1.427 . S
N3112 C3109 1.384 . S
N3113 C3105 1.427 . S
N3113 C3111 1.384 . S
H3114 C3120 0.930 . S
H3115 C3124 0.930 . S
H3116 C3129 0.929 . S
H3117 C3127 0.929 . S
H3118 C3122 0.929 . S
H3119 C3128 0.929 . S
C3120 H3114 0.930 . S
C3120 C3121 1.367 . S
C3120 C3128 1.378 . S
C3121 C3120 1.367 . S
C3121 C3129 1.433 . S
C3122 H3118 0.929 . S
C3122 C3124 1.378 . S
C3122 C3126 1.350 . S
C3123 C3126 1.463 . S
C3123 C3128 1.350 . S
C3123 N3131 1.427 . S
C3124 H3115 0.930 . S
C3124 C3122 1.378 . S
C3124 C3125 1.367 . S
C3125 C3124 1.367 . S
C3125 C3127 1.433 . S
C3126 C3122 1.350 . S
C3126 C3123 1.463 . S
C3126 N3130 1.427 . S
C3127 H3117 0.929 . S
C3127 C3125 1.433 . S
C3127 N3130 1.384 . S
C3128 H3119 0.929 . S
C3128 C3120 1.378 . S
C3128 C3123 1.350 . S
C3129 H3116 0.929 . S
C3129 C3121 1.433 . S
C3129 N3131 1.384 . S
N3130 C3126 1.427 . S
N3130 C3127 1.384 . S
N3131 C3123 1.427 . S
N3131 C3129 1.384 . S
H3132 C3138 0.930 . S
H3133 C3142 0.930 . S
H3134 C3147 0.929 . S
H3135 C3145 0.929 . S
H3136 C3140 0.929 . S
H3137 C3146 0.929 . S
C3138 H3132 0.930 . S
C3138 C3139 1.367 . S
C3138 C3146 1.378 . S
C3139 C3138 1.367 . S
C3139 C3147 1.433 . S
C3140 H3136 0.929 . S
C3140 C3142 1.378 . S
C3140 C3144 1.350 . S
C3141 C3144 1.463 . S
C3141 C3146 1.350 . S
C3141 N3149 1.427 . S
C3142 H3133 0.930 . S
C3142 C3140 1.378 . S
C3142 C3143 1.367 . S
C3143 C3142 1.367 . S
C3143 C3145 1.433 . S
C3144 C3140 1.350 . S
C3144 C3141 1.463 . S
C3144 N3148 1.427 . S
C3145 H3135 0.929 . S
C3145 C3143 1.433 . S
C3145 N3148 1.384 . S
C3146 H3137 0.929 . S
C3146 C3138 1.378 . S
C3146 C3141 1.350 . S
C3147 H3134 0.929 . S
C3147 C3139 1.433 . S
C3147 N3149 1.384 . S
N3148 C3144 1.427 . S
N3148 C3145 1.384 . S
N3149 C3141 1.427 . S
N3149 C3147 1.384 . S
H3150 C3156 0.930 . S
H3151 C3160 0.930 . S
H3152 C3165 0.929 . S
H3153 C3163 0.929 . S
H3154 C3158 0.929 . S
H3155 C3164 0.929 . S
C3156 H3150 0.930 . S
C3156 C3157 1.367 . S
C3156 C3164 1.378 . S
C3157 C3156 1.367 . S
C3157 C3165 1.433 . S
C3158 H3154 0.929 . S
C3158 C3160 1.378 . S
C3158 C3162 1.350 . S
C3159 C3162 1.463 . S
C3159 C3164 1.350 . S
C3159 N3167 1.427 . S
C3160 H3151 0.930 . S
C3160 C3158 1.378 . S
C3160 C3161 1.367 . S
C3161 C3160 1.367 . S
C3161 C3163 1.433 . S
C3162 C3158 1.350 . S
C3162 C3159 1.463 . S
C3162 N3166 1.427 . S
C3163 H3153 0.929 . S
C3163 C3161 1.433 . S
C3163 N3166 1.384 . S
C3164 H3155 0.929 . S
C3164 C3156 1.378 . S
C3164 C3159 1.350 . S
C3165 H3152 0.929 . S
C3165 C3157 1.433 . S
C3165 N3167 1.384 . S
N3166 C3162 1.427 . S
N3166 C3163 1.384 . S
N3167 C3159 1.427 . S
N3167 C3165 1.384 . S
H3168 C3174 0.930 . S
H3169 C3178 0.930 . S
H3170 C3183 0.929 . S
H3171 C3181 0.929 . S
H3172 C3176 0.929 . S
H3173 C3182 0.929 . S
C3174 H3168 0.930 . S
C3174 C3175 1.367 . S
C3174 C3182 1.378 . S
C3175 C3174 1.367 . S
C3175 C3183 1.433 . S
C3176 H3172 0.929 . S
C3176 C3178 1.378 . S
C3176 C3180 1.350 . S
C3177 C3180 1.463 . S
C3177 C3182 1.350 . S
C3177 N3185 1.427 . S
C3178 H3169 0.930 . S
C3178 C3176 1.378 . S
C3178 C3179 1.367 . S
C3179 C3178 1.367 . S
C3179 C3181 1.433 . S
C3180 C3176 1.350 . S
C3180 C3177 1.463 . S
C3180 N3184 1.427 . S
C3181 H3171 0.929 . S
C3181 C3179 1.433 . S
C3181 N3184 1.384 . S
C3182 H3173 0.929 . S
C3182 C3174 1.378 . S
C3182 C3177 1.350 . S
C3183 H3170 0.929 . S
C3183 C3175 1.433 . S
C3183 N3185 1.384 . S
N3184 C3180 1.427 . S
N3184 C3181 1.384 . S
N3185 C3177 1.427 . S
N3185 C3183 1.384 . S
H3186 C3192 0.930 . S
H3187 C3196 0.930 . S
H3188 C3201 0.929 . S
H3189 C3199 0.929 . S
H3190 C3194 0.929 . S
H3191 C3200 0.929 . S
C3192 H3186 0.930 . S
C3192 C3193 1.367 . S
C3192 C3200 1.378 . S
C3193 C3192 1.367 . S
C3193 C3201 1.433 . S
C3194 H3190 0.929 . S
C3194 C3196 1.378 . S
C3194 C3198 1.350 . S
C3195 C3198 1.463 . S
C3195 C3200 1.350 . S
C3195 N3203 1.427 . S
C3196 H3187 0.930 . S
C3196 C3194 1.378 . S
C3196 C3197 1.367 . S
C3197 C3196 1.367 . S
C3197 C3199 1.433 . S
C3198 C3194 1.350 . S
C3198 C3195 1.463 . S
C3198 N3202 1.427 . S
C3199 H3189 0.929 . S
C3199 C3197 1.433 . S
C3199 N3202 1.384 . S
C3200 H3191 0.929 . S
C3200 C3192 1.378 . S
C3200 C3195 1.350 . S
C3201 H3188 0.929 . S
C3201 C3193 1.433 . S
C3201 N3203 1.384 . S
N3202 C3198 1.427 . S
N3202 C3199 1.384 . S
N3203 C3195 1.427 . S
N3203 C3201 1.384 . S
H3204 C3210 0.930 . S
H3205 C3214 0.930 . S
H3206 C3219 0.929 . S
H3207 C3217 0.929 . S
H3208 C3212 0.929 . S
H3209 C3218 0.929 . S
C3210 H3204 0.930 . S
C3210 C3211 1.367 . S
C3210 C3218 1.378 . S
C3211 C3210 1.367 . S
C3211 C3219 1.433 . S
C3212 H3208 0.929 . S
C3212 C3214 1.378 . S
C3212 C3216 1.350 . S
C3213 C3216 1.463 . S
C3213 C3218 1.350 . S
C3213 N3221 1.427 . S
C3214 H3205 0.930 . S
C3214 C3212 1.378 . S
C3214 C3215 1.367 . S
C3215 C3214 1.367 . S
C3215 C3217 1.433 . S
C3216 C3212 1.350 . S
C3216 C3213 1.463 . S
C3216 N3220 1.427 . S
C3217 H3207 0.929 . S
C3217 C3215 1.433 . S
C3217 N3220 1.384 . S
C3218 H3209 0.929 . S
C3218 C3210 1.378 . S
C3218 C3213 1.350 . S
C3219 H3206 0.929 . S
C3219 C3211 1.433 . S
C3219 N3221 1.384 . S
N3220 C3216 1.427 . S
N3220 C3217 1.384 . S
N3221 C3213 1.427 . S
N3221 C3219 1.384 . S
H3222 C3228 0.930 . S
H3223 C3232 0.930 . S
H3224 C3237 0.929 . S
H3225 C3235 0.929 . S
H3226 C3230 0.929 . S
H3227 C3236 0.929 . S
C3228 H3222 0.930 . S
C3228 C3229 1.367 . S
C3228 C3236 1.378 . S
C3229 C3228 1.367 . S
C3229 C3237 1.433 . S
C3230 H3226 0.929 . S
C3230 C3232 1.378 . S
C3230 C3234 1.350 . S
C3231 C3234 1.463 . S
C3231 C3236 1.350 . S
C3231 N3239 1.427 . S
C3232 H3223 0.930 . S
C3232 C3230 1.378 . S
C3232 C3233 1.367 . S
C3233 C3232 1.367 . S
C3233 C3235 1.433 . S
C3234 C3230 1.350 . S
C3234 C3231 1.463 . S
C3234 N3238 1.427 . S
C3235 H3225 0.929 . S
C3235 C3233 1.433 . S
C3235 N3238 1.384 . S
C3236 H3227 0.929 . S
C3236 C3228 1.378 . S
C3236 C3231 1.350 . S
C3237 H3224 0.929 . S
C3237 C3229 1.433 . S
C3237 N3239 1.384 . S
N3238 C3234 1.427 . S
N3238 C3235 1.384 . S
N3239 C3231 1.427 . S
N3239 C3237 1.384 . S
H3240 C3246 0.930 . S
H3241 C3250 0.930 . S
H3242 C3255 0.929 . S
H3243 C3253 0.929 . S
H3244 C3248 0.929 . S
H3245 C3254 0.929 . S
C3246 H3240 0.930 . S
C3246 C3247 1.367 . S
C3246 C3254 1.378 . S
C3247 C3246 1.367 . S
C3247 C3255 1.433 . S
C3248 H3244 0.929 . S
C3248 C3250 1.378 . S
C3248 C3252 1.350 . S
C3249 C3252 1.463 . S
C3249 C3254 1.350 . S
C3249 N3257 1.427 . S
C3250 H3241 0.930 . S
C3250 C3248 1.378 . S
C3250 C3251 1.367 . S
C3251 C3250 1.367 . S
C3251 C3253 1.433 . S
C3252 C3248 1.350 . S
C3252 C3249 1.463 . S
C3252 N3256 1.427 . S
C3253 H3243 0.929 . S
C3253 C3251 1.433 . S
C3253 N3256 1.384 . S
C3254 H3245 0.929 . S
C3254 C3246 1.378 . S
C3254 C3249 1.350 . S
C3255 H3242 0.929 . S
C3255 C3247 1.433 . S
C3255 N3257 1.384 . S
N3256 C3252 1.427 . S
N3256 C3253 1.384 . S
N3257 C3249 1.427 . S
N3257 C3255 1.384 . S
H3258 C3264 0.930 . S
H3259 C3268 0.930 . S
H3260 C3273 0.929 . S
H3261 C3271 0.929 . S
H3262 C3266 0.929 . S
H3263 C3272 0.929 . S
C3264 H3258 0.930 . S
C3264 C3265 1.367 . S
C3264 C3272 1.378 . S
C3265 C3264 1.367 . S
C3265 C3273 1.433 . S
C3266 H3262 0.929 . S
C3266 C3268 1.378 . S
C3266 C3270 1.350 . S
C3267 C3270 1.463 . S
C3267 C3272 1.350 . S
C3267 N3275 1.427 . S
C3268 H3259 0.930 . S
C3268 C3266 1.378 . S
C3268 C3269 1.367 . S
C3269 C3268 1.367 . S
C3269 C3271 1.433 . S
C3270 C3266 1.350 . S
C3270 C3267 1.463 . S
C3270 N3274 1.427 . S
C3271 H3261 0.929 . S
C3271 C3269 1.433 . S
C3271 N3274 1.384 . S
C3272 H3263 0.929 . S
C3272 C3264 1.378 . S
C3272 C3267 1.350 . S
C3273 H3260 0.929 . S
C3273 C3265 1.433 . S
C3273 N3275 1.384 . S
N3274 C3270 1.427 . S
N3274 C3271 1.384 . S
N3275 C3267 1.427 . S
N3275 C3273 1.384 . S
H3276 C3282 0.930 . S
H3277 C3286 0.930 . S
H3278 C3291 0.929 . S
H3279 C3289 0.929 . S
H3280 C3284 0.929 . S
H3281 C3290 0.929 . S
C3282 H3276 0.930 . S
C3282 C3283 1.367 . S
C3282 C3290 1.378 . S
C3283 C3282 1.367 . S
C3283 C3291 1.433 . S
C3284 H3280 0.929 . S
C3284 C3286 1.378 . S
C3284 C3288 1.350 . S
C3285 C3288 1.463 . S
C3285 C3290 1.350 . S
C3285 N3293 1.427 . S
C3286 H3277 0.930 . S
C3286 C3284 1.378 . S
C3286 C3287 1.367 . S
C3287 C3286 1.367 . S
C3287 C3289 1.433 . S
C3288 C3284 1.350 . S
C3288 C3285 1.463 . S
C3288 N3292 1.427 . S
C3289 H3279 0.929 . S
C3289 C3287 1.433 . S
C3289 N3292 1.384 . S
C3290 H3281 0.929 . S
C3290 C3282 1.378 . S
C3290 C3285 1.350 . S
C3291 H3278 0.929 . S
C3291 C3283 1.433 . S
C3291 N3293 1.384 . S
N3292 C3288 1.427 . S
N3292 C3289 1.384 . S
N3293 C3285 1.427 . S
N3293 C3291 1.384 . S
H3294 C3300 0.930 . S
H3295 C3304 0.930 . S
H3296 C3309 0.929 . S
H3297 C3307 0.929 . S
H3298 C3302 0.929 . S
H3299 C3308 0.929 . S
C3300 H3294 0.930 . S
C3300 C3301 1.367 . S
C3300 C3308 1.378 . S
C3301 C3300 1.367 . S
C3301 C3309 1.433 . S
C3302 H3298 0.929 . S
C3302 C3304 1.378 . S
C3302 C3306 1.350 . S
C3303 C3306 1.463 . S
C3303 C3308 1.350 . S
C3303 N3311 1.427 . S
C3304 H3295 0.930 . S
C3304 C3302 1.378 . S
C3304 C3305 1.367 . S
C3305 C3304 1.367 . S
C3305 C3307 1.433 . S
C3306 C3302 1.350 . S
C3306 C3303 1.463 . S
C3306 N3310 1.427 . S
C3307 H3297 0.929 . S
C3307 C3305 1.433 . S
C3307 N3310 1.384 . S
C3308 H3299 0.929 . S
C3308 C3300 1.378 . S
C3308 C3303 1.350 . S
C3309 H3296 0.929 . S
C3309 C3301 1.433 . S
C3309 N3311 1.384 . S
N3310 C3306 1.427 . S
N3310 C3307 1.384 . S
N3311 C3303 1.427 . S
N3311 C3309 1.384 . S
H3312 C3318 0.930 . S
H3313 C3322 0.930 . S
H3314 C3327 0.929 . S
H3315 C3325 0.929 . S
H3316 C3320 0.929 . S
H3317 C3326 0.929 . S
C3318 H3312 0.930 . S
C3318 C3319 1.367 . S
C3318 C3326 1.378 . S
C3319 C3318 1.367 . S
C3319 C3327 1.433 . S
C3320 H3316 0.929 . S
C3320 C3322 1.378 . S
C3320 C3324 1.350 . S
C3321 C3324 1.463 . S
C3321 C3326 1.350 . S
C3321 N3329 1.427 . S
C3322 H3313 0.930 . S
C3322 C3320 1.378 . S
C3322 C3323 1.367 . S
C3323 C3322 1.367 . S
C3323 C3325 1.433 . S
C3324 C3320 1.350 . S
C3324 C3321 1.463 . S
C3324 N3328 1.427 . S
C3325 H3315 0.929 . S
C3325 C3323 1.433 . S
C3325 N3328 1.384 . S
C3326 H3317 0.929 . S
C3326 C3318 1.378 . S
C3326 C3321 1.350 . S
C3327 H3314 0.929 . S
C3327 C3319 1.433 . S
C3327 N3329 1.384 . S
N3328 C3324 1.427 . S
N3328 C3325 1.384 . S
N3329 C3321 1.427 . S
N3329 C3327 1.384 . S
H3330 C3336 0.930 . S
H3331 C3340 0.930 . S
H3332 C3345 0.929 . S
H3333 C3343 0.929 . S
H3334 C3338 0.929 . S
H3335 C3344 0.929 . S
C3336 H3330 0.930 . S
C3336 C3337 1.367 . S
C3336 C3344 1.378 . S
C3337 C3336 1.367 . S
C3337 C3345 1.433 . S
C3338 H3334 0.929 . S
C3338 C3340 1.378 . S
C3338 C3342 1.350 . S
C3339 C3342 1.463 . S
C3339 C3344 1.350 . S
C3339 N3347 1.427 . S
C3340 H3331 0.930 . S
C3340 C3338 1.378 . S
C3340 C3341 1.367 . S
C3341 C3340 1.367 . S
C3341 C3343 1.433 . S
C3342 C3338 1.350 . S
C3342 C3339 1.463 . S
C3342 N3346 1.427 . S
C3343 H3333 0.929 . S
C3343 C3341 1.433 . S
C3343 N3346 1.384 . S
C3344 H3335 0.929 . S
C3344 C3336 1.378 . S
C3344 C3339 1.350 . S
C3345 H3332 0.929 . S
C3345 C3337 1.433 . S
C3345 N3347 1.384 . S
N3346 C3342 1.427 . S
N3346 C3343 1.384 . S
N3347 C3339 1.427 . S
N3347 C3345 1.384 . S
H3348 C3354 0.930 . S
H3349 C3358 0.930 . S
H3350 C3363 0.929 . S
H3351 C3361 0.929 . S
H3352 C3356 0.929 . S
H3353 C3362 0.929 . S
C3354 H3348 0.930 . S
C3354 C3355 1.367 . S
C3354 C3362 1.378 . S
C3355 C3354 1.367 . S
C3355 C3363 1.433 . S
C3356 H3352 0.929 . S
C3356 C3358 1.378 . S
C3356 C3360 1.350 . S
C3357 C3360 1.463 . S
C3357 C3362 1.350 . S
C3357 N3365 1.427 . S
C3358 H3349 0.930 . S
C3358 C3356 1.378 . S
C3358 C3359 1.367 . S
C3359 C3358 1.367 . S
C3359 C3361 1.433 . S
C3360 C3356 1.350 . S
C3360 C3357 1.463 . S
C3360 N3364 1.427 . S
C3361 H3351 0.929 . S
C3361 C3359 1.433 . S
C3361 N3364 1.384 . S
C3362 H3353 0.929 . S
C3362 C3354 1.378 . S
C3362 C3357 1.350 . S
C3363 H3350 0.929 . S
C3363 C3355 1.433 . S
C3363 N3365 1.384 . S
N3364 C3360 1.427 . S
N3364 C3361 1.384 . S
N3365 C3357 1.427 . S
N3365 C3363 1.384 . S
H3366 C3372 0.930 . S
H3367 C3376 0.930 . S
H3368 C3381 0.929 . S
H3369 C3379 0.929 . S
H3370 C3374 0.929 . S
H3371 C3380 0.929 . S
C3372 H3366 0.930 . S
C3372 C3373 1.367 . S
C3372 C3380 1.378 . S
C3373 C3372 1.367 . S
C3373 C3381 1.433 . S
C3374 H3370 0.929 . S
C3374 C3376 1.378 . S
C3374 C3378 1.350 . S
C3375 C3378 1.463 . S
C3375 C3380 1.350 . S
C3375 N3383 1.427 . S
C3376 H3367 0.930 . S
C3376 C3374 1.378 . S
C3376 C3377 1.367 . S
C3377 C3376 1.367 . S
C3377 C3379 1.433 . S
C3378 C3374 1.350 . S
C3378 C3375 1.463 . S
C3378 N3382 1.427 . S
C3379 H3369 0.929 . S
C3379 C3377 1.433 . S
C3379 N3382 1.384 . S
C3380 H3371 0.929 . S
C3380 C3372 1.378 . S
C3380 C3375 1.350 . S
C3381 H3368 0.929 . S
C3381 C3373 1.433 . S
C3381 N3383 1.384 . S
N3382 C3378 1.427 . S
N3382 C3379 1.384 . S
N3383 C3375 1.427 . S
N3383 C3381 1.384 . S
H3384 C3390 0.930 . S
H3385 C3394 0.930 . S
H3386 C3399 0.929 . S
H3387 C3397 0.929 . S
H3388 C3392 0.929 . S
H3389 C3398 0.929 . S
C3390 H3384 0.930 . S
C3390 C3391 1.367 . S
C3390 C3398 1.378 . S
C3391 C3390 1.367 . S
C3391 C3399 1.433 . S
C3392 H3388 0.929 . S
C3392 C3394 1.378 . S
C3392 C3396 1.350 . S
C3393 C3396 1.463 . S
C3393 C3398 1.350 . S
C3393 N3401 1.427 . S
C3394 H3385 0.930 . S
C3394 C3392 1.378 . S
C3394 C3395 1.367 . S
C3395 C3394 1.367 . S
C3395 C3397 1.433 . S
C3396 C3392 1.350 . S
C3396 C3393 1.463 . S
C3396 N3400 1.427 . S
C3397 H3387 0.929 . S
C3397 C3395 1.433 . S
C3397 N3400 1.384 . S
C3398 H3389 0.929 . S
C3398 C3390 1.378 . S
C3398 C3393 1.350 . S
C3399 H3386 0.929 . S
C3399 C3391 1.433 . S
C3399 N3401 1.384 . S
N3400 C3396 1.427 . S
N3400 C3397 1.384 . S
N3401 C3393 1.427 . S
N3401 C3399 1.384 . S
H3402 C3408 0.930 . S
H3403 C3412 0.930 . S
H3404 C3417 0.929 . S
H3405 C3415 0.929 . S
H3406 C3410 0.929 . S
H3407 C3416 0.929 . S
C3408 H3402 0.930 . S
C3408 C3409 1.367 . S
C3408 C3416 1.378 . S
C3409 C3408 1.367 . S
C3409 C3417 1.433 . S
C3410 H3406 0.929 . S
C3410 C3412 1.378 . S
C3410 C3414 1.350 . S
C3411 C3414 1.463 . S
C3411 C3416 1.350 . S
C3411 N3419 1.427 . S
C3412 H3403 0.930 . S
C3412 C3410 1.378 . S
C3412 C3413 1.367 . S
C3413 C3412 1.367 . S
C3413 C3415 1.433 . S
C3414 C3410 1.350 . S
C3414 C3411 1.463 . S
C3414 N3418 1.427 . S
C3415 H3405 0.929 . S
C3415 C3413 1.433 . S
C3415 N3418 1.384 . S
C3416 H3407 0.929 . S
C3416 C3408 1.378 . S
C3416 C3411 1.350 . S
C3417 H3404 0.929 . S
C3417 C3409 1.433 . S
C3417 N3419 1.384 . S
N3418 C3414 1.427 . S
N3418 C3415 1.384 . S
N3419 C3411 1.427 . S
N3419 C3417 1.384 . S
H3420 C3426 0.930 . S
H3421 C3430 0.930 . S
H3422 C3435 0.929 . S
H3423 C3433 0.929 . S
H3424 C3428 0.929 . S
H3425 C3434 0.929 . S
C3426 H3420 0.930 . S
C3426 C3427 1.367 . S
C3426 C3434 1.378 . S
C3427 C3426 1.367 . S
C3427 C3435 1.433 1_556 S
C3428 H3424 0.929 . S
C3428 C3430 1.378 . S
C3428 C3432 1.350 . S
C3429 C3432 1.463 . S
C3429 C3434 1.350 . S
C3429 N3437 1.427 . S
C3430 H3421 0.930 . S
C3430 C3428 1.378 . S
C3430 C3431 1.367 . S
C3431 C3430 1.367 . S
C3431 C3433 1.433 . S
C3432 C3428 1.350 . S
C3432 C3429 1.463 . S
C3432 N3436 1.427 . S
C3433 H3423 0.929 . S
C3433 C3431 1.433 . S
C3433 N3436 1.384 . S
C3434 H3425 0.929 . S
C3434 C3426 1.378 . S
C3434 C3429 1.350 . S
C3435 H3422 0.929 . S
C3435 C3427 1.433 1_554 S
C3435 N3437 1.384 1_554 S
N3436 C3432 1.427 . S
N3436 C3433 1.384 . S
N3437 C3429 1.427 . S
N3437 C3435 1.384 1_556 S
H3438 C3444 0.930 1_554 S
H3439 C3448 0.930 . S
H3440 C3453 0.929 . S
H3441 C3451 0.929 . S
H3442 C3446 0.929 . S
H3443 C3452 0.929 1_554 S
C3444 H3438 0.930 1_556 S
C3444 C3445 1.367 . S
C3444 C3452 1.378 . S
C3445 C3444 1.367 . S
C3445 C3453 1.433 . S
C3446 H3442 0.929 . S
C3446 C3448 1.378 . S
C3446 C3450 1.350 . S
C3447 C3450 1.463 . S
C3447 C3452 1.350 . S
C3447 N3455 1.427 . S
C3448 H3439 0.930 . S
C3448 C3446 1.378 . S
C3448 C3449 1.367 . S
C3449 C3448 1.367 . S
C3449 C3451 1.433 . S
C3450 C3446 1.350 . S
C3450 C3447 1.463 . S
C3450 N3454 1.427 . S
C3451 H3441 0.929 . S
C3451 C3449 1.433 . S
C3451 N3454 1.384 . S
C3452 H3443 0.929 1_556 S
C3452 C3444 1.378 . S
C3452 C3447 1.350 . S
C3453 H3440 0.929 . S
C3453 C3445 1.433 . S
C3453 N3455 1.384 . S
N3454 C3450 1.427 . S
N3454 C3451 1.384 . S
N3455 C3447 1.427 . S
N3455 C3453 1.384 . S
H3456 C3462 0.930 . S
H3457 C3466 0.930 . S
H3458 C3471 0.929 . S
H3459 C3469 0.929 . S
H3460 C3464 0.929 . S
H3461 C3470 0.929 . S
C3462 H3456 0.930 . S
C3462 C3463 1.367 . S
C3462 C3470 1.378 . S
C3463 C3462 1.367 . S
C3463 C3471 1.433 . S
C3464 H3460 0.929 . S
C3464 C3466 1.378 . S
C3464 C3468 1.350 . S
C3465 C3468 1.463 . S
C3465 C3470 1.350 . S
C3465 N3473 1.427 . S
C3466 H3457 0.930 . S
C3466 C3464 1.378 . S
C3466 C3467 1.367 . S
C3467 C3466 1.367 . S
C3467 C3469 1.433 . S
C3468 C3464 1.350 . S
C3468 C3465 1.463 . S
C3468 N3472 1.427 . S
C3469 H3459 0.929 . S
C3469 C3467 1.433 . S
C3469 N3472 1.384 . S
C3470 H3461 0.929 . S
C3470 C3462 1.378 . S
C3470 C3465 1.350 . S
C3471 H3458 0.929 . S
C3471 C3463 1.433 . S
C3471 N3473 1.384 . S
N3472 C3468 1.427 . S
N3472 C3469 1.384 . S
N3473 C3465 1.427 . S
N3473 C3471 1.384 . S
H3474 C3480 0.930 . S
H3475 C3484 0.930 . S
H3476 C3489 0.929 1_554 S
H3477 C3487 0.929 . S
H3478 C3482 0.929 . S
H3479 C3488 0.929 . S
C3480 H3474 0.930 . S
C3480 C3481 1.367 . S
C3480 C3488 1.378 . S
C3481 C3480 1.367 . S
C3481 C3489 1.433 . S
C3482 H3478 0.929 . S
C3482 C3484 1.378 . S
C3482 C3486 1.350 . S
C3483 C3486 1.463 . S
C3483 C3488 1.350 . S
C3483 N3491 1.427 . S
C3484 H3475 0.930 . S
C3484 C3482 1.378 . S
C3484 C3485 1.367 . S
C3485 C3484 1.367 . S
C3485 C3487 1.433 . S
C3486 C3482 1.350 . S
C3486 C3483 1.463 . S
C3486 N3490 1.427 . S
C3487 H3477 0.929 . S
C3487 C3485 1.433 . S
C3487 N3490 1.384 . S
C3488 H3479 0.929 . S
C3488 C3480 1.378 . S
C3488 C3483 1.350 . S
C3489 H3476 0.929 1_556 S
C3489 C3481 1.433 . S
C3489 N3491 1.384 . S
N3490 C3486 1.427 . S
N3490 C3487 1.384 . S
N3491 C3483 1.427 . S
N3491 C3489 1.384 . S
H3492 C3498 0.930 . S
H3493 C3502 0.930 . S
H3494 C3507 0.929 1_554 S
H3495 C3505 0.929 . S
H3496 C3500 0.929 . S
H3497 C3506 0.929 . S
C3498 H3492 0.930 . S
C3498 C3499 1.367 . S
C3498 C3506 1.378 . S
C3499 C3498 1.367 . S
C3499 C3507 1.433 . S
C3500 H3496 0.929 . S
C3500 C3502 1.378 . S
C3500 C3504 1.350 . S
C3501 C3504 1.463 . S
C3501 C3506 1.350 . S
C3501 N3509 1.427 . S
C3502 H3493 0.930 . S
C3502 C3500 1.378 . S
C3502 C3503 1.367 . S
C3503 C3502 1.367 . S
C3503 C3505 1.433 . S
C3504 C3500 1.350 . S
C3504 C3501 1.463 . S
C3504 N3508 1.427 . S
C3505 H3495 0.929 . S
C3505 C3503 1.433 . S
C3505 N3508 1.384 . S
C3506 H3497 0.929 . S
C3506 C3498 1.378 . S
C3506 C3501 1.350 . S
C3507 H3494 0.929 1_556 S
C3507 C3499 1.433 . S
C3507 N3509 1.384 . S
N3508 C3504 1.427 . S
N3508 C3505 1.384 . S
N3509 C3501 1.427 . S
N3509 C3507 1.384 . S
H3510 C3516 0.930 . S
H3511 C3520 0.930 . S
H3512 C3525 0.929 . S
H3513 C3523 0.929 . S
H3514 C3518 0.929 . S
H3515 C3524 0.929 . S
C3516 H3510 0.930 . S
C3516 C3517 1.367 . S
C3516 C3524 1.378 . S
C3517 C3516 1.367 . S
C3517 C3525 1.433 . S
C3518 H3514 0.929 . S
C3518 C3520 1.378 . S
C3518 C3522 1.350 . S
C3519 C3522 1.463 . S
C3519 C3524 1.350 . S
C3519 N3527 1.427 . S
C3520 H3511 0.930 . S
C3520 C3518 1.378 . S
C3520 C3521 1.367 . S
C3521 C3520 1.367 . S
C3521 C3523 1.433 . S
C3522 C3518 1.350 . S
C3522 C3519 1.463 . S
C3522 N3526 1.427 . S
C3523 H3513 0.929 . S
C3523 C3521 1.433 . S
C3523 N3526 1.384 . S
C3524 H3515 0.929 . S
C3524 C3516 1.378 . S
C3524 C3519 1.350 . S
C3525 H3512 0.929 . S
C3525 C3517 1.433 . S
C3525 N3527 1.384 . S
N3526 C3522 1.427 . S
N3526 C3523 1.384 . S
N3527 C3519 1.427 . S
N3527 C3525 1.384 . S
H3528 C3534 0.930 . S
H3529 C3538 0.930 . S
H3530 C3543 0.929 . S
H3531 C3541 0.929 . S
H3532 C3536 0.929 . S
H3533 C3542 0.929 . S
C3534 H3528 0.930 . S
C3534 C3535 1.367 . S
C3534 C3542 1.378 . S
C3535 C3534 1.367 . S
C3535 C3543 1.433 . S
C3536 H3532 0.929 . S
C3536 C3538 1.378 . S
C3536 C3540 1.350 . S
C3537 C3540 1.463 . S
C3537 C3542 1.350 . S
C3537 N3545 1.427 . S
C3538 H3529 0.930 . S
C3538 C3536 1.378 . S
C3538 C3539 1.367 . S
C3539 C3538 1.367 . S
C3539 C3541 1.433 . S
C3540 C3536 1.350 . S
C3540 C3537 1.463 . S
C3540 N3544 1.427 . S
C3541 H3531 0.929 . S
C3541 C3539 1.433 . S
C3541 N3544 1.384 . S
C3542 H3533 0.929 . S
C3542 C3534 1.378 . S
C3542 C3537 1.350 . S
C3543 H3530 0.929 . S
C3543 C3535 1.433 . S
C3543 N3545 1.384 . S
N3544 C3540 1.427 . S
N3544 C3541 1.384 . S
N3545 C3537 1.427 . S
N3545 C3543 1.384 . S
H3546 C3552 0.930 . S
H3547 C3556 0.930 . S
H3548 C3561 0.929 . S
H3549 C3559 0.929 . S
H3550 C3554 0.929 . S
H3551 C3560 0.929 . S
C3552 H3546 0.930 . S
C3552 C3553 1.367 . S
C3552 C3560 1.378 . S
C3553 C3552 1.367 . S
C3553 C3561 1.433 . S
C3554 H3550 0.929 . S
C3554 C3556 1.378 . S
C3554 C3558 1.350 . S
C3555 C3558 1.463 . S
C3555 C3560 1.350 . S
C3555 N3563 1.427 . S
C3556 H3547 0.930 . S
C3556 C3554 1.378 . S
C3556 C3557 1.367 . S
C3557 C3556 1.367 . S
C3557 C3559 1.433 . S
C3558 C3554 1.350 . S
C3558 C3555 1.463 . S
C3558 N3562 1.427 . S
C3559 H3549 0.929 . S
C3559 C3557 1.433 . S
C3559 N3562 1.384 . S
C3560 H3551 0.929 . S
C3560 C3552 1.378 . S
C3560 C3555 1.350 . S
C3561 H3548 0.929 . S
C3561 C3553 1.433 . S
C3561 N3563 1.384 . S
N3562 C3558 1.427 . S
N3562 C3559 1.384 . S
N3563 C3555 1.427 . S
N3563 C3561 1.384 . S
H3564 C3570 0.930 . S
H3565 C3574 0.930 . S
H3566 C3579 0.929 . S
H3567 C3577 0.929 . S
H3568 C3572 0.929 . S
H3569 C3578 0.929 . S
C3570 H3564 0.930 . S
C3570 C3571 1.367 . S
C3570 C3578 1.378 . S
C3571 C3570 1.367 . S
C3571 C3579 1.433 . S
C3572 H3568 0.929 . S
C3572 C3574 1.378 . S
C3572 C3576 1.350 . S
C3573 C3576 1.463 . S
C3573 C3578 1.350 . S
C3573 N3581 1.427 . S
C3574 H3565 0.930 . S
C3574 C3572 1.378 . S
C3574 C3575 1.367 . S
C3575 C3574 1.367 . S
C3575 C3577 1.433 . S
C3576 C3572 1.350 . S
C3576 C3573 1.463 . S
C3576 N3580 1.427 . S
C3577 H3567 0.929 . S
C3577 C3575 1.433 . S
C3577 N3580 1.384 . S
C3578 H3569 0.929 . S
C3578 C3570 1.378 . S
C3578 C3573 1.350 . S
C3579 H3566 0.929 . S
C3579 C3571 1.433 . S
C3579 N3581 1.384 . S
N3580 C3576 1.427 . S
N3580 C3577 1.384 . S
N3581 C3573 1.427 . S
N3581 C3579 1.384 . S
H3582 C3588 0.930 . S
H3583 C3592 0.930 . S
H3584 C3597 0.929 . S
H3585 C3595 0.929 . S
H3586 C3590 0.929 . S
H3587 C3596 0.929 . S
C3588 H3582 0.930 . S
C3588 C3589 1.367 . S
C3588 C3596 1.378 . S
C3589 C3588 1.367 . S
C3589 C3597 1.433 . S
C3590 H3586 0.929 . S
C3590 C3592 1.378 . S
C3590 C3594 1.350 . S
C3591 C3594 1.463 . S
C3591 C3596 1.350 . S
C3591 N3599 1.427 . S
C3592 H3583 0.930 . S
C3592 C3590 1.378 . S
C3592 C3593 1.367 . S
C3593 C3592 1.367 . S
C3593 C3595 1.433 . S
C3594 C3590 1.350 . S
C3594 C3591 1.463 . S
C3594 N3598 1.427 . S
C3595 H3585 0.929 . S
C3595 C3593 1.433 . S
C3595 N3598 1.384 . S
C3596 H3587 0.929 . S
C3596 C3588 1.378 . S
C3596 C3591 1.350 . S
C3597 H3584 0.929 . S
C3597 C3589 1.433 . S
C3597 N3599 1.384 . S
N3598 C3594 1.427 . S
N3598 C3595 1.384 . S
N3599 C3591 1.427 . S
N3599 C3597 1.384 . S
H3600 C3606 0.930 . S
H3601 C3610 0.930 . S
H3602 C3615 0.929 . S
H3603 C3613 0.929 . S
H3604 C3608 0.929 . S
H3605 C3614 0.929 . S
C3606 H3600 0.930 . S
C3606 C3607 1.367 . S
C3606 C3614 1.378 . S
C3607 C3606 1.367 . S
C3607 C3615 1.433 . S
C3608 H3604 0.929 . S
C3608 C3610 1.378 . S
C3608 C3612 1.350 . S
C3609 C3612 1.463 . S
C3609 C3614 1.350 . S
C3609 N3617 1.427 . S
C3610 H3601 0.930 . S
C3610 C3608 1.378 . S
C3610 C3611 1.367 . S
C3611 C3610 1.367 . S
C3611 C3613 1.433 . S
C3612 C3608 1.350 . S
C3612 C3609 1.463 . S
C3612 N3616 1.427 . S
C3613 H3603 0.929 . S
C3613 C3611 1.433 . S
C3613 N3616 1.384 . S
C3614 H3605 0.929 . S
C3614 C3606 1.378 . S
C3614 C3609 1.350 . S
C3615 H3602 0.929 . S
C3615 C3607 1.433 . S
C3615 N3617 1.384 . S
N3616 C3612 1.427 . S
N3616 C3613 1.384 . S
N3617 C3609 1.427 . S
N3617 C3615 1.384 . S
H3618 C3624 0.930 . S
H3619 C3628 0.930 . S
H3620 C3633 0.929 . S
H3621 C3631 0.929 1_655 S
H3622 C3626 0.929 . S
H3623 C3632 0.929 . S
C3624 H3618 0.930 . S
C3624 C3625 1.367 . S
C3624 C3632 1.378 . S
C3625 C3624 1.367 . S
C3625 C3633 1.433 . S
C3626 H3622 0.929 . S
C3626 C3628 1.378 . S
C3626 C3630 1.350 . S
C3627 C3630 1.463 . S
C3627 C3632 1.350 . S
C3627 N3635 1.427 . S
C3628 H3619 0.930 . S
C3628 C3626 1.378 . S
C3628 C3629 1.367 . S
C3629 C3628 1.367 . S
C3629 C3631 1.433 . S
C3630 C3626 1.350 . S
C3630 C3627 1.463 . S
C3630 N3634 1.427 . S
C3631 H3621 0.929 1_455 S
C3631 C3629 1.433 . S
C3631 N3634 1.384 . S
C3632 H3623 0.929 . S
C3632 C3624 1.378 . S
C3632 C3627 1.350 . S
C3633 H3620 0.929 . S
C3633 C3625 1.433 . S
C3633 N3635 1.384 . S
N3634 C3630 1.427 . S
N3634 C3631 1.384 . S
N3635 C3627 1.427 . S
N3635 C3633 1.384 . S
H3636 C3642 0.930 . S
H3637 C3646 0.930 . S
H3638 C3651 0.929 . S
H3639 C3649 0.929 . S
H3640 C3644 0.929 . S
H3641 C3650 0.929 . S
C3642 H3636 0.930 . S
C3642 C3643 1.367 . S
C3642 C3650 1.378 . S
C3643 C3642 1.367 . S
C3643 C3651 1.433 . S
C3644 H3640 0.929 . S
C3644 C3646 1.378 . S
C3644 C3648 1.350 . S
C3645 C3648 1.463 . S
C3645 C3650 1.350 . S
C3645 N3653 1.427 . S
C3646 H3637 0.930 . S
C3646 C3644 1.378 . S
C3646 C3647 1.367 . S
C3647 C3646 1.367 . S
C3647 C3649 1.433 . S
C3648 C3644 1.350 . S
C3648 C3645 1.463 . S
C3648 N3652 1.427 . S
C3649 H3639 0.929 . S
C3649 C3647 1.433 . S
C3649 N3652 1.384 . S
C3650 H3641 0.929 . S
C3650 C3642 1.378 . S
C3650 C3645 1.350 . S
C3651 H3638 0.929 . S
C3651 C3643 1.433 . S
C3651 N3653 1.384 . S
N3652 C3648 1.427 . S
N3652 C3649 1.384 . S
N3653 C3645 1.427 . S
N3653 C3651 1.384 . S
H3654 C3660 0.930 . S
H3655 C3664 0.930 . S
H3656 C3669 0.929 . S
H3657 C3667 0.929 . S
H3658 C3662 0.929 . S
H3659 C3668 0.929 . S
C3660 H3654 0.930 . S
C3660 C3661 1.367 . S
C3660 C3668 1.378 . S
C3661 C3660 1.367 . S
C3661 C3669 1.433 . S
C3662 H3658 0.929 . S
C3662 C3664 1.378 . S
C3662 C3666 1.350 . S
C3663 C3666 1.463 . S
C3663 C3668 1.350 . S
C3663 N3671 1.427 . S
C3664 H3655 0.930 . S
C3664 C3662 1.378 . S
C3664 C3665 1.367 . S
C3665 C3664 1.367 . S
C3665 C3667 1.433 . S
C3666 C3662 1.350 . S
C3666 C3663 1.463 . S
C3666 N3670 1.427 . S
C3667 H3657 0.929 . S
C3667 C3665 1.433 . S
C3667 N3670 1.384 . S
C3668 H3659 0.929 . S
C3668 C3660 1.378 . S
C3668 C3663 1.350 . S
C3669 H3656 0.929 . S
C3669 C3661 1.433 . S
C3669 N3671 1.384 . S
N3670 C3666 1.427 . S
N3670 C3667 1.384 . S
N3671 C3663 1.427 . S
N3671 C3669 1.384 . S
H3672 C3678 0.930 . S
H3673 C3682 0.930 . S
H3674 C3687 0.929 . S
H3675 C3685 0.929 1_545 S
H3676 C3680 0.929 . S
H3677 C3686 0.929 . S
C3678 H3672 0.930 . S
C3678 C3679 1.367 . S
C3678 C3686 1.378 . S
C3679 C3678 1.367 . S
C3679 C3687 1.433 . S
C3680 H3676 0.929 . S
C3680 C3682 1.378 . S
C3680 C3684 1.350 . S
C3681 C3684 1.463 . S
C3681 C3686 1.350 . S
C3681 N3689 1.427 . S
C3682 H3673 0.930 . S
C3682 C3680 1.378 . S
C3682 C3683 1.367 . S
C3683 C3682 1.367 . S
C3683 C3685 1.433 . S
C3684 C3680 1.350 . S
C3684 C3681 1.463 . S
C3684 N3688 1.427 . S
C3685 H3675 0.929 1_565 S
C3685 C3683 1.433 . S
C3685 N3688 1.384 . S
C3686 H3677 0.929 . S
C3686 C3678 1.378 . S
C3686 C3681 1.350 . S
C3687 H3674 0.929 . S
C3687 C3679 1.433 . S
C3687 N3689 1.384 . S
N3688 C3684 1.427 . S
N3688 C3685 1.384 . S
N3689 C3681 1.427 . S
N3689 C3687 1.384 . S
H3690 C3696 0.930 . S
H3691 C3700 0.917 1_655 S
H3692 C3705 0.929 . S
H3693 C3703 0.929 . S
H3694 C3698 0.923 . S
H3695 C3704 0.929 . S
C3696 H3690 0.930 . S
C3696 C3697 1.367 . S
C3696 C3704 1.378 . S
C3697 C3696 1.367 . S
C3697 C3705 1.433 . S
C3698 H3694 0.923 . S
C3698 C3700 1.362 . S
C3698 C3702 1.350 . S
C3699 C3702 1.463 . S
C3699 C3704 1.350 . S
C3699 N3707 1.427 . S
C3700 H3691 0.917 1_455 S
C3700 C3698 1.362 . S
C3700 C3701 1.400 . S
C3701 C3700 1.400 . S
C3701 C3703 1.433 . S
C3702 C3698 1.350 . S
C3702 C3699 1.463 . S
C3702 N3706 1.427 . S
C3703 H3693 0.929 . S
C3703 C3701 1.433 . S
C3703 N3706 1.384 . S
C3704 H3695 0.929 . S
C3704 C3696 1.378 . S
C3704 C3699 1.350 . S
C3705 H3692 0.929 . S
C3705 C3697 1.433 . S
C3705 N3707 1.384 . S
N3706 C3702 1.427 . S
N3706 C3703 1.384 . S
N3707 C3699 1.427 . S
N3707 C3705 1.384 . S
H3708 C3714 0.930 . S
H3709 C3718 0.930 . S
H3710 C3723 0.929 . S
H3711 C3721 0.929 . S
H3712 C3716 0.929 . S
H3713 C3722 0.929 . S
C3714 H3708 0.930 . S
C3714 C3715 1.367 . S
C3714 C3722 1.378 . S
C3715 C3714 1.367 . S
C3715 C3723 1.433 . S
C3716 H3712 0.929 . S
C3716 C3718 1.378 . S
C3716 C3720 1.350 . S
C3717 C3720 1.463 . S
C3717 C3722 1.350 . S
C3717 N3725 1.427 . S
C3718 H3709 0.930 . S
C3718 C3716 1.378 . S
C3718 C3719 1.367 . S
C3719 C3718 1.367 . S
C3719 C3721 1.433 . S
C3720 C3716 1.350 . S
C3720 C3717 1.463 . S
C3720 N3724 1.427 . S
C3721 H3711 0.929 . S
C3721 C3719 1.433 . S
C3721 N3724 1.384 . S
C3722 H3713 0.929 . S
C3722 C3714 1.378 . S
C3722 C3717 1.350 . S
C3723 H3710 0.929 . S
C3723 C3715 1.433 . S
C3723 N3725 1.384 . S
N3724 C3720 1.427 . S
N3724 C3721 1.384 . S
N3725 C3717 1.427 . S
N3725 C3723 1.384 . S
H3726 C3732 0.930 . S
H3727 C3736 0.930 . S
H3728 C3741 0.929 . S
H3729 C3739 0.929 . S
H3730 C3734 0.929 . S
H3731 C3740 0.929 . S
C3732 H3726 0.930 . S
C3732 C3733 1.367 . S
C3732 C3740 1.378 . S
C3733 C3732 1.367 . S
C3733 C3741 1.433 . S
C3734 H3730 0.929 . S
C3734 C3736 1.378 . S
C3734 C3738 1.350 . S
C3735 C3738 1.463 . S
C3735 C3740 1.350 . S
C3735 N3743 1.427 . S
C3736 H3727 0.930 . S
C3736 C3734 1.378 . S
C3736 C3737 1.367 . S
C3737 C3736 1.367 . S
C3737 C3739 1.433 . S
C3738 C3734 1.350 . S
C3738 C3735 1.463 . S
C3738 N3742 1.427 . S
C3739 H3729 0.929 . S
C3739 C3737 1.433 . S
C3739 N3742 1.384 . S
C3740 H3731 0.929 . S
C3740 C3732 1.378 . S
C3740 C3735 1.350 . S
C3741 H3728 0.929 . S
C3741 C3733 1.433 . S
C3741 N3743 1.384 . S
N3742 C3738 1.427 . S
N3742 C3739 1.384 . S
N3743 C3735 1.427 . S
N3743 C3741 1.384 . S
H3744 C3750 0.930 . S
H3745 C3754 0.930 . S
H3746 C3759 0.929 . S
H3747 C3757 0.929 . S
H3748 C3752 0.929 . S
H3749 C3758 0.929 . S
C3750 H3744 0.930 . S
C3750 C3751 1.367 . S
C3750 C3758 1.378 . S
C3751 C3750 1.367 . S
C3751 C3759 1.433 . S
C3752 H3748 0.929 . S
C3752 C3754 1.378 . S
C3752 C3756 1.350 . S
C3753 C3756 1.463 . S
C3753 C3758 1.350 . S
C3753 N3761 1.427 . S
C3754 H3745 0.930 . S
C3754 C3752 1.378 . S
C3754 C3755 1.367 . S
C3755 C3754 1.367 . S
C3755 C3757 1.433 . S
C3756 C3752 1.350 . S
C3756 C3753 1.463 . S
C3756 N3760 1.427 . S
C3757 H3747 0.929 . S
C3757 C3755 1.433 . S
C3757 N3760 1.384 . S
C3758 H3749 0.929 . S
C3758 C3750 1.378 . S
C3758 C3753 1.350 . S
C3759 H3746 0.929 . S
C3759 C3751 1.433 . S
C3759 N3761 1.384 . S
N3760 C3756 1.427 . S
N3760 C3757 1.384 . S
N3761 C3753 1.427 . S
N3761 C3759 1.384 . S
H3762 C3768 0.930 . S
H3763 C3772 0.930 . S
H3764 C3777 0.929 . S
H3765 C3775 0.929 . S
H3766 C3770 0.929 . S
H3767 C3776 0.929 . S
C3768 H3762 0.930 . S
C3768 C3769 1.367 . S
C3768 C3776 1.378 . S
C3769 C3768 1.367 . S
C3769 C3777 1.433 . S
C3770 H3766 0.929 . S
C3770 C3772 1.378 . S
C3770 C3774 1.350 . S
C3771 C3774 1.463 . S
C3771 C3776 1.350 . S
C3771 N3779 1.427 . S
C3772 H3763 0.930 . S
C3772 C3770 1.378 . S
C3772 C3773 1.367 . S
C3773 C3772 1.367 . S
C3773 C3775 1.433 . S
C3774 C3770 1.350 . S
C3774 C3771 1.463 . S
C3774 N3778 1.427 . S
C3775 H3765 0.929 . S
C3775 C3773 1.433 . S
C3775 N3778 1.384 . S
C3776 H3767 0.929 . S
C3776 C3768 1.378 . S
C3776 C3771 1.350 . S
C3777 H3764 0.929 . S
C3777 C3769 1.433 . S
C3777 N3779 1.384 . S
N3778 C3774 1.427 . S
N3778 C3775 1.384 . S
N3779 C3771 1.427 . S
N3779 C3777 1.384 . S
H3780 C3786 0.930 . S
H3781 C3790 0.930 . S
H3782 C3795 0.929 . S
H3783 C3793 0.929 . S
H3784 C3788 0.929 . S
H3785 C3794 0.827 1_565 S
C3786 H3780 0.930 . S
C3786 C3787 1.367 . S
C3786 C3794 1.378 . S
C3787 C3786 1.367 . S
C3787 C3795 1.433 . S
C3788 H3784 0.929 . S
C3788 C3790 1.378 . S
C3788 C3792 1.350 . S
C3789 C3792 1.463 . S
C3789 C3794 1.350 . S
C3789 N3797 1.427 . S
C3790 H3781 0.930 . S
C3790 C3788 1.378 . S
C3790 C3791 1.367 . S
C3791 C3790 1.367 . S
C3791 C3793 1.433 1_545 S
C3792 C3788 1.350 . S
C3792 C3789 1.463 . S
C3792 N3796 1.481 . S
C3793 H3783 0.929 . S
C3793 C3791 1.433 1_565 S
C3793 N3796 1.345 1_565 S
C3794 H3785 0.827 1_545 S
C3794 C3786 1.378 . S
C3794 C3789 1.350 . S
C3795 H3782 0.929 . S
C3795 C3787 1.433 . S
C3795 N3797 1.384 . S
N3796 C3792 1.481 . S
N3796 C3793 1.345 1_545 S
N3797 C3789 1.427 . S
N3797 C3795 1.384 . S
H3798 C3804 0.930 . S
H3799 C3808 0.930 . S
H3800 C3813 0.929 . S
H3801 C3811 0.929 . S
H3802 C3806 0.994 . S
H3803 C3812 0.929 . S
C3804 H3798 0.930 . S
C3804 C3805 1.367 . S
C3804 C3812 1.378 . S
C3805 C3804 1.367 . S
C3805 C3813 1.433 . S
C3806 H3802 0.994 . S
C3806 C3808 1.360 . S
C3806 C3810 1.304 1_455 S
C3807 C3810 1.463 . S
C3807 C3812 1.350 . S
C3807 N3815 1.427 . S
C3808 H3799 0.930 . S
C3808 C3806 1.360 . S
C3808 C3809 1.367 1_455 S
C3809 C3808 1.367 1_655 S
C3809 C3811 1.433 . S
C3810 C3806 1.304 1_655 S
C3810 C3807 1.463 . S
C3810 N3814 1.427 . S
C3811 H3801 0.929 . S
C3811 C3809 1.433 . S
C3811 N3814 1.384 . S
C3812 H3803 0.929 . S
C3812 C3804 1.378 . S
C3812 C3807 1.350 . S
C3813 H3800 0.929 . S
C3813 C3805 1.433 . S
C3813 N3815 1.384 . S
N3814 C3810 1.427 . S
N3814 C3811 1.384 . S
N3815 C3807 1.427 . S
N3815 C3813 1.384 . S
H3816 C3822 0.930 . S
H3817 C3826 0.930 . S
H3818 C3831 0.929 . S
H3819 C3829 0.929 . S
H3820 C3824 0.929 . S
H3821 C3830 0.929 . S
C3822 H3816 0.930 . S
C3822 C3823 1.367 . S
C3822 C3830 1.378 . S
C3823 C3822 1.367 . S
C3823 C3831 1.433 . S
C3824 H3820 0.929 . S
C3824 C3826 1.378 . S
C3824 C3828 1.350 . S
C3825 C3828 1.463 . S
C3825 C3830 1.350 . S
C3825 N3833 1.427 . S
C3826 H3817 0.930 . S
C3826 C3824 1.378 . S
C3826 C3827 1.367 . S
C3827 C3826 1.367 . S
C3827 C3829 1.433 . S
C3828 C3824 1.350 . S
C3828 C3825 1.463 . S
C3828 N3832 1.427 . S
C3829 H3819 0.929 . S
C3829 C3827 1.433 . S
C3829 N3832 1.384 . S
C3830 H3821 0.929 . S
C3830 C3822 1.378 . S
C3830 C3825 1.350 . S
C3831 H3818 0.929 . S
C3831 C3823 1.433 . S
C3831 N3833 1.384 . S
N3832 C3828 1.427 . S
N3832 C3829 1.384 . S
N3833 C3825 1.427 . S
N3833 C3831 1.384 . S
H3834 C3840 0.930 . S
H3835 C3844 0.930 . S
H3836 C3849 0.929 . S
H3837 C3847 0.929 . S
H3838 C3842 0.929 . S
H3839 C3848 0.929 . S
C3840 H3834 0.930 . S
C3840 C3841 1.367 . S
C3840 C3848 1.378 . S
C3841 C3840 1.367 . S
C3841 C3849 1.433 . S
C3842 H3838 0.929 . S
C3842 C3844 1.378 . S
C3842 C3846 1.350 . S
C3843 C3846 1.463 . S
C3843 C3848 1.350 . S
C3843 N3851 1.427 . S
C3844 H3835 0.930 . S
C3844 C3842 1.378 . S
C3844 C3845 1.367 . S
C3845 C3844 1.367 . S
C3845 C3847 1.433 . S
C3846 C3842 1.350 . S
C3846 C3843 1.463 . S
C3846 N3850 1.427 . S
C3847 H3837 0.929 . S
C3847 C3845 1.433 . S
C3847 N3850 1.384 . S
C3848 H3839 0.929 . S
C3848 C3840 1.378 . S
C3848 C3843 1.350 . S
C3849 H3836 0.929 . S
C3849 C3841 1.433 . S
C3849 N3851 1.384 . S
N3850 C3846 1.427 . S
N3850 C3847 1.384 . S
N3851 C3843 1.427 . S
N3851 C3849 1.384 . S
H3852 C3858 0.930 . S
H3853 C3862 0.930 . S
H3854 C3867 0.929 . S
H3855 C3865 0.929 . S
H3856 C3860 0.929 . S
H3857 C3866 0.929 . S
C3858 H3852 0.930 . S
C3858 C3859 1.367 . S
C3858 C3866 1.378 . S
C3859 C3858 1.367 . S
C3859 C3867 1.433 . S
C3860 H3856 0.929 . S
C3860 C3862 1.378 . S
C3860 C3864 1.350 . S
C3861 C3864 1.463 . S
C3861 C3866 1.350 . S
C3861 N3869 1.427 . S
C3862 H3853 0.930 . S
C3862 C3860 1.378 . S
C3862 C3863 1.367 . S
C3863 C3862 1.367 . S
C3863 C3865 1.433 . S
C3864 C3860 1.350 . S
C3864 C3861 1.463 . S
C3864 N3868 1.427 . S
C3865 H3855 0.929 . S
C3865 C3863 1.433 . S
C3865 N3868 1.384 . S
C3866 H3857 0.929 . S
C3866 C3858 1.378 . S
C3866 C3861 1.350 . S
C3867 H3854 0.929 . S
C3867 C3859 1.433 . S
C3867 N3869 1.384 . S
N3868 C3864 1.427 . S
N3868 C3865 1.384 . S
N3869 C3861 1.427 . S
N3869 C3867 1.384 . S
H3870 C3876 0.930 . S
H3871 C3880 0.930 . S
H3872 C3885 0.929 . S
H3873 C3883 0.929 . S
H3874 C3878 0.929 . S
H3875 C3884 0.929 . S
C3876 H3870 0.930 . S
C3876 C3877 1.367 . S
C3876 C3884 1.378 . S
C3877 C3876 1.367 . S
C3877 C3885 1.433 . S
C3878 H3874 0.929 . S
C3878 C3880 1.378 . S
C3878 C3882 1.350 . S
C3879 C3882 1.463 . S
C3879 C3884 1.350 . S
C3879 N3887 1.427 . S
C3880 H3871 0.930 . S
C3880 C3878 1.378 . S
C3880 C3881 1.367 . S
C3881 C3880 1.367 . S
C3881 C3883 1.433 . S
C3882 C3878 1.350 . S
C3882 C3879 1.463 . S
C3882 N3886 1.427 . S
C3883 H3873 0.929 . S
C3883 C3881 1.433 . S
C3883 N3886 1.384 . S
C3884 H3875 0.929 . S
C3884 C3876 1.378 . S
C3884 C3879 1.350 . S
C3885 H3872 0.929 . S
C3885 C3877 1.433 . S
C3885 N3887 1.384 . S
N3886 C3882 1.427 . S
N3886 C3883 1.384 . S
N3887 C3879 1.427 . S
N3887 C3885 1.384 . S
H3888 C3894 0.930 . S
H3889 C3898 0.930 . S
H3890 C3903 0.929 . S
H3891 C3901 0.929 . S
H3892 C3896 0.929 . S
H3893 C3902 0.929 . S
C3894 H3888 0.930 . S
C3894 C3895 1.367 . S
C3894 C3902 1.378 . S
C3895 C3894 1.367 . S
C3895 C3903 1.433 . S
C3896 H3892 0.929 . S
C3896 C3898 1.378 . S
C3896 C3900 1.350 . S
C3897 C3900 1.463 . S
C3897 C3902 1.350 . S
C3897 N3905 1.427 . S
C3898 H3889 0.930 . S
C3898 C3896 1.378 . S
C3898 C3899 1.367 . S
C3899 C3898 1.367 . S
C3899 C3901 1.433 . S
C3900 C3896 1.350 . S
C3900 C3897 1.463 . S
C3900 N3904 1.427 . S
C3901 H3891 0.929 . S
C3901 C3899 1.433 . S
C3901 N3904 1.384 . S
C3902 H3893 0.929 . S
C3902 C3894 1.378 . S
C3902 C3897 1.350 . S
C3903 H3890 0.929 . S
C3903 C3895 1.433 . S
C3903 N3905 1.384 . S
N3904 C3900 1.427 . S
N3904 C3901 1.384 . S
N3905 C3897 1.427 . S
N3905 C3903 1.384 . S
H3906 C3912 0.930 . S
H3907 C3916 0.930 . S
H3908 C3921 0.929 . S
H3909 C3919 0.929 . S
H3910 C3914 0.929 . S
H3911 C3920 0.929 . S
C3912 H3906 0.930 . S
C3912 C3913 1.367 . S
C3912 C3920 1.378 . S
C3913 C3912 1.367 . S
C3913 C3921 1.433 . S
C3914 H3910 0.929 . S
C3914 C3916 1.378 . S
C3914 C3918 1.350 . S
C3915 C3918 1.463 . S
C3915 C3920 1.350 . S
C3915 N3923 1.427 . S
C3916 H3907 0.930 . S
C3916 C3914 1.378 . S
C3916 C3917 1.367 . S
C3917 C3916 1.367 . S
C3917 C3919 1.433 . S
C3918 C3914 1.350 . S
C3918 C3915 1.463 . S
C3918 N3922 1.427 . S
C3919 H3909 0.929 . S
C3919 C3917 1.433 . S
C3919 N3922 1.384 . S
C3920 H3911 0.929 . S
C3920 C3912 1.378 . S
C3920 C3915 1.350 . S
C3921 H3908 0.929 . S
C3921 C3913 1.433 . S
C3921 N3923 1.384 . S
N3922 C3918 1.427 . S
N3922 C3919 1.384 . S
N3923 C3915 1.427 . S
N3923 C3921 1.384 . S
H3924 C3930 0.930 . S
H3925 C3934 0.930 . S
H3926 C3939 0.929 . S
H3927 C3937 0.929 . S
H3928 C3932 0.929 . S
H3929 C3938 0.929 . S
C3930 H3924 0.930 . S
C3930 C3931 1.367 . S
C3930 C3938 1.378 . S
C3931 C3930 1.367 . S
C3931 C3939 1.433 . S
C3932 H3928 0.929 . S
C3932 C3934 1.378 . S
C3932 C3936 1.350 . S
C3933 C3936 1.463 . S
C3933 C3938 1.350 . S
C3933 N3941 1.427 . S
C3934 H3925 0.930 . S
C3934 C3932 1.378 . S
C3934 C3935 1.367 . S
C3935 C3934 1.367 . S
C3935 C3937 1.433 . S
C3936 C3932 1.350 . S
C3936 C3933 1.463 . S
C3936 N3940 1.427 . S
C3937 H3927 0.929 . S
C3937 C3935 1.433 . S
C3937 N3940 1.384 . S
C3938 H3929 0.929 . S
C3938 C3930 1.378 . S
C3938 C3933 1.350 . S
C3939 H3926 0.929 . S
C3939 C3931 1.433 . S
C3939 N3941 1.384 . S
N3940 C3936 1.427 . S
N3940 C3937 1.384 . S
N3941 C3933 1.427 . S
N3941 C3939 1.384 . S
H3942 C3948 0.930 . S
H3943 C3952 0.930 1_455 S
H3944 C3957 0.929 . S
H3945 C3955 0.929 . S
H3946 C3950 0.929 . S
H3947 C3956 0.929 . S
C3948 H3942 0.930 . S
C3948 C3949 1.367 . S
C3948 C3956 1.378 . S
C3949 C3948 1.367 . S
C3949 C3957 1.433 . S
C3950 H3946 0.929 . S
C3950 C3952 1.378 . S
C3950 C3954 1.350 . S
C3951 C3954 1.463 . S
C3951 C3956 1.350 . S
C3951 N3959 1.427 . S
C3952 H3943 0.930 1_655 S
C3952 C3950 1.378 . S
C3952 C3953 1.367 . S
C3953 C3952 1.367 . S
C3953 C3955 1.433 . S
C3954 C3950 1.350 . S
C3954 C3951 1.463 . S
C3954 N3958 1.427 . S
C3955 H3945 0.929 . S
C3955 C3953 1.433 . S
C3955 N3958 1.384 . S
C3956 H3947 0.929 . S
C3956 C3948 1.378 . S
C3956 C3951 1.350 . S
C3957 H3944 0.929 . S
C3957 C3949 1.433 . S
C3957 N3959 1.384 . S
N3958 C3954 1.427 . S
N3958 C3955 1.384 . S
N3959 C3951 1.427 . S
N3959 C3957 1.384 . S
H3960 C3966 0.930 . S
H3961 C3970 0.930 . S
H3962 C3975 0.929 . S
H3963 C3973 0.929 . S
H3964 C3968 0.929 . S
H3965 C3974 0.929 . S
C3966 H3960 0.930 . S
C3966 C3967 1.367 . S
C3966 C3974 1.378 . S
C3967 C3966 1.367 . S
C3967 C3975 1.433 . S
C3968 H3964 0.929 . S
C3968 C3970 1.378 . S
C3968 C3972 1.350 . S
C3969 C3972 1.463 . S
C3969 C3974 1.350 . S
C3969 N3977 1.427 . S
C3970 H3961 0.930 . S
C3970 C3968 1.378 . S
C3970 C3971 1.367 . S
C3971 C3970 1.367 . S
C3971 C3973 1.433 . S
C3972 C3968 1.350 . S
C3972 C3969 1.463 . S
C3972 N3976 1.427 . S
C3973 H3963 0.929 . S
C3973 C3971 1.433 . S
C3973 N3976 1.384 . S
C3974 H3965 0.929 . S
C3974 C3966 1.378 . S
C3974 C3969 1.350 . S
C3975 H3962 0.929 . S
C3975 C3967 1.433 . S
C3975 N3977 1.384 . S
N3976 C3972 1.427 . S
N3976 C3973 1.384 . S
N3977 C3969 1.427 . S
N3977 C3975 1.384 . S
H3978 C3984 0.930 . S
H3979 C3988 0.930 . S
H3980 C3993 0.929 . S
H3981 C3991 0.929 . S
H3982 C3986 0.929 . S
H3983 C3992 0.929 . S
C3984 H3978 0.930 . S
C3984 C3985 1.367 . S
C3984 C3992 1.378 . S
C3985 C3984 1.367 . S
C3985 C3993 1.433 . S
C3986 H3982 0.929 . S
C3986 C3988 1.378 . S
C3986 C3990 1.350 . S
C3987 C3990 1.463 . S
C3987 C3992 1.350 . S
C3987 N3995 1.427 . S
C3988 H3979 0.930 . S
C3988 C3986 1.378 . S
C3988 C3989 1.367 . S
C3989 C3988 1.367 . S
C3989 C3991 1.433 . S
C3990 C3986 1.350 . S
C3990 C3987 1.463 . S
C3990 N3994 1.427 . S
C3991 H3981 0.929 . S
C3991 C3989 1.433 . S
C3991 N3994 1.384 . S
C3992 H3983 0.929 . S
C3992 C3984 1.378 . S
C3992 C3987 1.350 . S
C3993 H3980 0.929 . S
C3993 C3985 1.433 . S
C3993 N3995 1.384 . S
N3994 C3990 1.427 . S
N3994 C3991 1.384 . S
N3995 C3987 1.427 . S
N3995 C3993 1.384 . S
C2707 C49 1.669 . S
C2711 C2189 1.623 . S
C2725 C137 1.699 . S
C2729 C2233 1.649 . S
C2747 C2313 1.627 . S
C2743 C205 1.683 . S
C2761 C196 1.667 . S
C2765 C2357 1.608 . S
C2779 C57 1.678 . S
C2783 C2437 1.636 . S
C2797 C145 1.693 . S
C2801 C2499 1.614 . S
C2815 C313 1.674 . S
C2819 C2419 1.619 . S
C2837 C2481 1.624 . S
C2833 C401 1.696 . S
C2855 C2375 1.627 . S
C2851 C489 1.681 . S
C2869 C469 1.667 . S
C2873 C2295 1.618 . S
C2891 C2171 1.620 . S
C2887 C293 1.675 . S
C2905 C381 1.701 . S
C2909 C2251 1.648 . S
C2923 C577 1.729 . S
C2927 C2561 1.649 . S
C2941 C645 1.725 . S
C2945 C2605 1.669 . S
C2963 C2685 1.622 . S
C2959 C733 1.704 . S
C2977 C724 1.700 . S
C2981 C1631 1.631 . S
C2995 C585 1.721 . S
C2999 C1675 1.665 . S
C3013 C636 1.737 . S
C3017 C1755 1.667 . S
C3031 C841 1.704 . S
C3035 C1693 1.647 . S
C3049 C937 1.741 . S
C3053 C1737 1.667 . S
C3071 C1613 1.642 . S
C3067 C1025 1.726 . S
C3089 C2667 1.661 . S
C3085 C988 1.733 . S
C3107 C2543 1.626 . S
C3103 C821 1.706 . S
C3125 C2623 1.682 . S
C3121 C900 1.731 . S
C3139 C1105 1.700 . S
C3143 C1817 1.621 . S
C3157 C1193 1.737 . S
C3161 C1879 1.667 . S
C3175 C1281 1.721 . S
C3179 C1923 1.665 . S
C3193 C1289 1.733 . S
C3197 C1985 1.680 . S
C3215 C2047 1.656 . S
C3211 C1113 1.706 . S
C3233 C2127 1.651 . S
C3229 C1201 1.729 . S
C3251 C2065 1.675 . S
C3247 C1369 1.732 . S
C3269 C2109 1.653 . S
C3265 C1457 1.732 . S
C3283 C1553 1.703 . S
C3287 C2003 1.645 . S
C3305 C1941 1.647 . S
C3301 C1516 1.703 . S
C3319 C1349 1.722 . S
C3323 C1799 1.645 . S
C3341 C1861 1.659 . S
C3337 C1437 1.740 . S
C3359 C1637 1.351 . S
C3355 C29 1.437 . S
C3373 C117 1.411 . S
C3377 C1681 1.340 . S
C3395 C1761 1.365 . S
C3391 C225 1.460 . S
C3413 C1823 1.347 . S
C3409 C233 1.428 . S
C3431 C1885 1.373 . S
C3427 C20 1.454 . S
C3449 C1929 1.328 . S
C3445 C108 1.404 . S
C3463 C321 1.435 . S
C3467 C1947 1.382 . S
C3481 C409 1.414 . S
C3485 C1805 1.325 . S
C3499 C497 1.456 . S
C3503 C1867 1.368 . S
C3517 C460 1.442 . S
C3521 C1699 1.387 . S
C3539 C1743 1.360 . S
C3535 C284 1.458 . S
C3553 C372 1.412 . S
C3557 C1619 1.308 . S
C3575 C1991 1.346 . S
C3571 C557 1.420 . S
C3589 C665 1.473 . S
C3593 C2053 1.392 . S
C3607 C753 1.484 . S
C3611 C2133 1.379 . S
C3629 C2195 1.188 . S
C3625 C761 1.243 . S
C3643 C548 1.395 . S
C3647 C2239 1.325 . S
C3661 C673 1.252 . S
C3665 C2319 1.195 . S
C3679 C849 1.251 . S
C3683 C2301 1.161 . S
C3697 C929 1.260 . S
C3701 C2177 1.200 . S
C3719 C2257 1.342 . S
C3715 C1017 1.407 . S
C3733 C997 1.424 . S
C3737 C2071 1.362 . S
C3751 C812 1.483 . S
C3755 C2115 1.373 . S
C3773 C2009 1.402 . S
C3769 C909 1.477 . S
C3791 C2363 1.185 . S
C3787 C1085 1.242 . S
C3805 C1173 1.254 . S
C3809 C2443 1.184 . S
C3823 C1261 1.403 . S
C3827 C2505 1.314 . S
C3845 C2567 1.321 . S
C3841 C1252 1.412 . S
C3863 C2611 1.405 . S
C3859 C1076 1.478 . S
C3877 C1164 1.473 . S
C3881 C2691 1.383 . S
C3895 C1377 1.427 . S
C3899 C2673 1.329 . S
C3913 C1465 1.476 . S
C3917 C2549 1.384 . S
C3935 C2629 1.417 . S
C3931 C1545 1.484 . S
C3953 C2425 1.190 . S
C3949 C1525 1.245 . S
C3971 C2487 1.315 . S
C3967 C1340 1.407 . S
C3985 C1428 1.259 . S
C3989 C2381 1.188 . S
