# Generated by pormake.
# Topology eea, (3,6)-cn, num edge types: 1
# Building blocks:
#     Node 0, Type 0, BuildingBlock: KAKCAD_clean_linker_0, # of connection points: 3
#     Node 1, Type 0, BuildingBlock: KAKCAD_clean_linker_0, # of connection points: 3
#     Node 2, Type 0, BuildingBlock: KAKCAD_clean_linker_0, # of connection points: 3
#     Node 3, Type 0, BuildingBlock: KAKCAD_clean_linker_0, # of connection points: 3
#     Node 4, Type 0, BuildingBlock: KAKCAD_clean_linker_0, # of connection points: 3
#     Node 5, Type 0, BuildingBlock: KAKCAD_clean_linker_0, # of connection points: 3
#     Node 6, Type 0, BuildingBlock: KAKCAD_clean_linker_0, # of connection points: 3
#     Node 7, Type 0, BuildingBlock: KAKCAD_clean_linker_0, # of connection points: 3
#     Node 8, Type 0, BuildingBlock: KAKCAD_clean_linker_0, # of connection points: 3
#     Node 9, Type 0, BuildingBlock: KAKCAD_clean_linker_0, # of connection points: 3
#     Node 10, Type 0, BuildingBlock: KAKCAD_clean_linker_0, # of connection points: 3
#     Node 11, Type 0, BuildingBlock: KAKCAD_clean_linker_0, # of connection points: 3
#     Node 12, Type 0, BuildingBlock: KAKCAD_clean_linker_0, # of connection points: 3
#     Node 13, Type 0, BuildingBlock: KAKCAD_clean_linker_0, # of connection points: 3
#     Node 14, Type 0, BuildingBlock: KAKCAD_clean_linker_0, # of connection points: 3
#     Node 15, Type 0, BuildingBlock: KAKCAD_clean_linker_0, # of connection points: 3
#     Node 16, Type 0, BuildingBlock: KAKCAD_clean_linker_0, # of connection points: 3
#     Node 17, Type 0, BuildingBlock: KAKCAD_clean_linker_0, # of connection points: 3
#     Node 18, Type 1, BuildingBlock: NUHQIS_clean_sbu_0, # of connection points: 6
#     Node 19, Type 1, BuildingBlock: NUHQIS_clean_sbu_0, # of connection points: 6
#     Node 20, Type 1, BuildingBlock: NUHQIS_clean_sbu_0, # of connection points: 6
#     Node 21, Type 1, BuildingBlock: NUHQIS_clean_sbu_0, # of connection points: 6
#     Node 22, Type 1, BuildingBlock: NUHQIS_clean_sbu_0, # of connection points: 6
#     Node 23, Type 1, BuildingBlock: NUHQIS_clean_sbu_0, # of connection points: 6
#     Node 24, Type 1, BuildingBlock: NUHQIS_clean_sbu_0, # of connection points: 6
#     Node 25, Type 1, BuildingBlock: NUHQIS_clean_sbu_0, # of connection points: 6
#     Node 26, Type 1, BuildingBlock: NUHQIS_clean_sbu_0, # of connection points: 6
#     Edge 27, Type (0, 1), BuildingBlock: OJICUG_clean_linker_0, # of connection points: 2
#     Edge 28, Type (0, 1), BuildingBlock: OJICUG_clean_linker_0, # of connection points: 2
#     Edge 29, Type (0, 1), BuildingBlock: OJICUG_clean_linker_0, # of connection points: 2
#     Edge 30, Type (0, 1), BuildingBlock: OJICUG_clean_linker_0, # of connection points: 2
#     Edge 31, Type (0, 1), BuildingBlock: OJICUG_clean_linker_0, # of connection points: 2
#     Edge 32, Type (0, 1), BuildingBlock: OJICUG_clean_linker_0, # of connection points: 2
#     Edge 33, Type (0, 1), BuildingBlock: OJICUG_clean_linker_0, # of connection points: 2
#     Edge 34, Type (0, 1), BuildingBlock: OJICUG_clean_linker_0, # of connection points: 2
#     Edge 35, Type (0, 1), BuildingBlock: OJICUG_clean_linker_0, # of connection points: 2
#     Edge 36, Type (0, 1), BuildingBlock: OJICUG_clean_linker_0, # of connection points: 2
#     Edge 37, Type (0, 1), BuildingBlock: OJICUG_clean_linker_0, # of connection points: 2
#     Edge 38, Type (0, 1), BuildingBlock: OJICUG_clean_linker_0, # of connection points: 2
#     Edge 39, Type (0, 1), BuildingBlock: OJICUG_clean_linker_0, # of connection points: 2
#     Edge 40, Type (0, 1), BuildingBlock: OJICUG_clean_linker_0, # of connection points: 2
#     Edge 41, Type (0, 1), BuildingBlock: OJICUG_clean_linker_0, # of connection points: 2
#     Edge 42, Type (0, 1), BuildingBlock: OJICUG_clean_linker_0, # of connection points: 2
#     Edge 43, Type (0, 1), BuildingBlock: OJICUG_clean_linker_0, # of connection points: 2
#     Edge 44, Type (0, 1), BuildingBlock: OJICUG_clean_linker_0, # of connection points: 2
#     Edge 45, Type (0, 1), BuildingBlock: OJICUG_clean_linker_0, # of connection points: 2
#     Edge 46, Type (0, 1), BuildingBlock: OJICUG_clean_linker_0, # of connection points: 2
#     Edge 47, Type (0, 1), BuildingBlock: OJICUG_clean_linker_0, # of connection points: 2
#     Edge 48, Type (0, 1), BuildingBlock: OJICUG_clean_linker_0, # of connection points: 2
#     Edge 49, Type (0, 1), BuildingBlock: OJICUG_clean_linker_0, # of connection points: 2
#     Edge 50, Type (0, 1), BuildingBlock: OJICUG_clean_linker_0, # of connection points: 2
#     Edge 51, Type (0, 1), BuildingBlock: OJICUG_clean_linker_0, # of connection points: 2
#     Edge 52, Type (0, 1), BuildingBlock: OJICUG_clean_linker_0, # of connection points: 2
#     Edge 53, Type (0, 1), BuildingBlock: OJICUG_clean_linker_0, # of connection points: 2
#     Edge 54, Type (0, 1), BuildingBlock: OJICUG_clean_linker_0, # of connection points: 2
#     Edge 55, Type (0, 1), BuildingBlock: OJICUG_clean_linker_0, # of connection points: 2
#     Edge 56, Type (0, 1), BuildingBlock: OJICUG_clean_linker_0, # of connection points: 2
#     Edge 57, Type (0, 1), BuildingBlock: OJICUG_clean_linker_0, # of connection points: 2
#     Edge 58, Type (0, 1), BuildingBlock: OJICUG_clean_linker_0, # of connection points: 2
#     Edge 59, Type (0, 1), BuildingBlock: OJICUG_clean_linker_0, # of connection points: 2
#     Edge 60, Type (0, 1), BuildingBlock: OJICUG_clean_linker_0, # of connection points: 2
#     Edge 61, Type (0, 1), BuildingBlock: OJICUG_clean_linker_0, # of connection points: 2
#     Edge 62, Type (0, 1), BuildingBlock: OJICUG_clean_linker_0, # of connection points: 2
#     Edge 63, Type (0, 1), BuildingBlock: OJICUG_clean_linker_0, # of connection points: 2
#     Edge 64, Type (0, 1), BuildingBlock: OJICUG_clean_linker_0, # of connection points: 2
#     Edge 65, Type (0, 1), BuildingBlock: OJICUG_clean_linker_0, # of connection points: 2
#     Edge 66, Type (0, 1), BuildingBlock: OJICUG_clean_linker_0, # of connection points: 2
#     Edge 67, Type (0, 1), BuildingBlock: OJICUG_clean_linker_0, # of connection points: 2
#     Edge 68, Type (0, 1), BuildingBlock: OJICUG_clean_linker_0, # of connection points: 2
#     Edge 69, Type (0, 1), BuildingBlock: OJICUG_clean_linker_0, # of connection points: 2
#     Edge 70, Type (0, 1), BuildingBlock: OJICUG_clean_linker_0, # of connection points: 2
#     Edge 71, Type (0, 1), BuildingBlock: OJICUG_clean_linker_0, # of connection points: 2
#     Edge 72, Type (0, 1), BuildingBlock: OJICUG_clean_linker_0, # of connection points: 2
#     Edge 73, Type (0, 1), BuildingBlock: OJICUG_clean_linker_0, # of connection points: 2
#     Edge 74, Type (0, 1), BuildingBlock: OJICUG_clean_linker_0, # of connection points: 2
#     Edge 75, Type (0, 1), BuildingBlock: OJICUG_clean_linker_0, # of connection points: 2
#     Edge 76, Type (0, 1), BuildingBlock: OJICUG_clean_linker_0, # of connection points: 2
#     Edge 77, Type (0, 1), BuildingBlock: OJICUG_clean_linker_0, # of connection points: 2
#     Edge 78, Type (0, 1), BuildingBlock: OJICUG_clean_linker_0, # of connection points: 2
#     Edge 79, Type (0, 1), BuildingBlock: OJICUG_clean_linker_0, # of connection points: 2
#     Edge 80, Type (0, 1), BuildingBlock: OJICUG_clean_linker_0, # of connection points: 2
# Relax obj value: 0.034
# Max RMSD: 0.131
# Mean RMSD: 0.087
data_MOF--net-eea--node1-NUHQIS_clean_sbu_0--node2-KAKCAD_clean_linker_0--edge1-OJICUG_clean_linker_0
_symmetry_space_group_name_H-M    P1
_symmetry_Int_Tables_number       1
_symmetry_cell_setting            triclinic
loop_
_symmetry_equiv_pos_as_xyz
'x, y, z'
_cell_length_a     48.523242
_cell_length_b     48.448593
_cell_length_c     73.636483
_cell_angle_alpha  93.224549
_cell_angle_beta   92.933898
_cell_angle_gamma 119.65932
loop_
_atom_site_label
_atom_site_type_symbol
_atom_site_fract_x
_atom_site_fract_y
_atom_site_fract_z
_atom_type_partial_charge
C0 C 0.31594 0.18487 0.48934 0.0
C1 C 0.33679 0.17415 0.49507 0.0
C2 C 0.3046 0.18026 0.47097 0.0
C3 C 0.31409 0.16505 0.45793 0.0
C4 C 0.33605 0.1556 0.46361 0.0
C5 C 0.34714 0.15994 0.482 0.0
C6 C 0.29924 0.15685 0.43882 0.0
C7 C 0.29215 0.17783 0.42992 0.0
C8 C 0.27546 0.16871 0.41246 0.0
C9 C 0.26633 0.13847 0.40384 0.0
C10 C 0.27354 0.11748 0.41245 0.0
C11 C 0.29003 0.1268 0.42986 0.0
C12 C 0.2623 0.08507 0.40368 0.0
C13 C 0.23064 0.06623 0.39613 0.0
C14 C 0.2829 0.07255 0.40315 0.0
C15 C 0.27201 0.04168 0.39519 0.0
C16 C 0.24023 0.02267 0.38774 0.0
C17 C 0.26588 0.1898 0.40357 0.0
C18 C 0.25441 0.20666 0.41385 0.0
C19 C 0.26654 0.19193 0.38459 0.0
C20 C 0.25541 0.21002 0.37606 0.0
C21 C 0.2437 0.22659 0.38636 0.0
C22 C 0.24352 0.22493 0.40534 0.0
C23 C 0.21969 0.03531 0.38829 0.0
H24 H 0.30736 0.19565 0.49917 0.0
H25 H 0.28737 0.18742 0.46714 0.0
H26 H 0.3443 0.14435 0.45386 0.0
H27 H 0.3636 0.15191 0.48603 0.0
H28 H 0.29959 0.20125 0.4366 0.0
H29 H 0.29427 0.10991 0.43679 0.0
H30 H 0.25293 0.13089 0.39054 0.0
H31 H 0.21415 0.07517 0.39663 0.0
H32 H 0.3075 0.08676 0.40876 0.0
H33 H 0.28856 0.03281 0.39474 0.0
H34 H 0.25299 0.20506 0.42842 0.0
H35 H 0.27567 0.1796 0.37632 0.0
H36 H 0.19493 0.0211 0.38298 0.0
H37 H 0.23429 0.23721 0.41358 0.0
H38 H 0.25622 0.21129 0.36145 0.0
C39 C 0.87764 0.19536 0.48652 0.0
C40 C 0.869 0.17278 0.49946 0.0
C41 C 0.8854 0.1891 0.46924 0.0
C42 C 0.88443 0.16008 0.46462 0.0
C43 C 0.87715 0.13823 0.47781 0.0
C44 C 0.86968 0.14453 0.49501 0.0
C45 C 0.88878 0.15114 0.44582 0.0
C46 C 0.9156 0.17127 0.4369 0.0
C47 C 0.92046 0.16073 0.41979 0.0
C48 C 0.89793 0.1304 0.41146 0.0
C49 C 0.87048 0.1105 0.41991 0.0
C50 C 0.86619 0.12116 0.43708 0.0
C51 C 0.84656 0.07843 0.41101 0.0
C52 C 0.83843 0.07374 0.39204 0.0
C53 C 0.83162 0.05222 0.42142 0.0
C54 C 0.80911 0.02212 0.41308 0.0
C55 C 0.80127 0.01745 0.39412 0.0
C56 C 0.94966 0.18046 0.41077 0.0
C57 C 0.95688 0.21064 0.40566 0.0
C58 C 0.9697 0.1683 0.40641 0.0
C59 C 0.99655 0.18602 0.39713 0.0
C60 C 1.00352 0.21596 0.3917 0.0
C61 C 0.98344 0.22812 0.39601 0.0
C62 C 0.81613 0.04356 0.38368 0.0
H63 H 0.87731 0.21734 0.48948 0.0
H64 H 0.89088 0.2063 0.45928 0.0
H65 H 0.8768 0.11592 0.47471 0.0
H66 H 0.86412 0.12702 0.50479 0.0
H67 H 0.9333 0.19436 0.44359 0.0
H68 H 0.84499 0.10617 0.4437 0.0
H69 H 0.90205 0.12221 0.39841 0.0
H70 H 0.84903 0.09347 0.38364 0.0
H71 H 0.8377 0.0548 0.43601 0.0
H72 H 0.79836 0.00231 0.42142 0.0
H73 H 0.94161 0.22035 0.4088 0.0
H74 H 0.96454 0.14505 0.41021 0.0
H75 H 0.81027 0.0407 0.36905 0.0
H76 H 0.98851 0.25129 0.3921 0.0
H77 H 0.01166 0.17613 0.39395 0.0
C78 C 0.89232 0.72666 0.49809 0.0
C79 C 0.86283 0.6992 0.49992 0.0
C80 C 0.89983 0.73919 0.48117 0.0
C81 C 0.87786 0.72499 0.46569 0.0
C82 C 0.84865 0.69738 0.46734 0.0
C83 C 0.84136 0.68446 0.48416 0.0
C84 C 0.88444 0.74019 0.44821 0.0
C85 C 0.91302 0.7486 0.44018 0.0
C86 C 0.91962 0.76412 0.42394 0.0
C87 C 0.89756 0.7722 0.41637 0.0
C88 C 0.86877 0.76337 0.42399 0.0
C89 C 0.86217 0.74704 0.43975 0.0
C90 C 0.84557 0.77124 0.41536 0.0
C91 C 0.8545 0.80307 0.41298 0.0
C92 C 0.81467 0.74693 0.40902 0.0
C93 C 0.79324 0.75428 0.40011 0.0
C94 C 0.80213 0.78613 0.39779 0.0
C95 C 0.94896 0.7715 0.41455 0.0
C96 C 0.97792 0.77951 0.42448 0.0
C97 C 0.94821 0.7708 0.39537 0.0
C98 C 0.97557 0.7787 0.38645 0.0
C99 C 0.00459 0.78682 0.39632 0.0
C100 C 0.00523 0.78682 0.4155 0.0
C101 C 0.83283 0.81048 0.40446 0.0
H102 H 0.90939 0.73921 0.50982 0.0
H103 H 0.92237 0.76073 0.48034 0.0
H104 H 0.83134 0.68579 0.45559 0.0
H105 H 0.81878 0.66289 0.48473 0.0
H106 H 0.92956 0.74219 0.44637 0.0
H107 H 0.84011 0.74068 0.44579 0.0
H108 H 0.90249 0.78521 0.40435 0.0
H109 H 0.87821 0.82219 0.41778 0.0
H110 H 0.80734 0.72221 0.41064 0.0
H111 H 0.76964 0.73513 0.39514 0.0
H112 H 0.97974 0.78061 0.43924 0.0
H113 H 0.92637 0.76401 0.38707 0.0
H114 H 0.84024 0.83519 0.40277 0.0
H115 H 0.0268 0.79231 0.42368 0.0
H116 H 0.97386 0.77881 0.37175 0.0
C117 C 0.14492 0.26598 0.51964 0.0
C118 C 0.14055 0.29183 0.51596 0.0
C119 C 0.13767 0.25255 0.53629 0.0
C120 C 0.12557 0.26436 0.54971 0.0
C121 C 0.12028 0.28956 0.54591 0.0
C122 C 0.12781 0.30322 0.52928 0.0
C123 C 0.11991 0.25124 0.56786 0.0
C124 C 0.143 0.24618 0.57693 0.0
C125 C 0.13837 0.23348 0.59394 0.0
C126 C 0.11018 0.2264 0.60201 0.0
C127 C 0.0866 0.23137 0.59333 0.0
C128 C 0.09181 0.2438 0.57614 0.0
C129 C 0.05686 0.22372 0.60238 0.0
C130 C 0.04399 0.19893 0.61397 0.0
C131 C 0.04151 0.24164 0.60002 0.0
C132 C 0.01454 0.23525 0.60909 0.0
C133 C 1.00241 0.21123 0.62122 0.0
C134 C 0.16281 0.22734 0.60318 0.0
C135 C 0.18075 0.21764 0.59291 0.0
C136 C 0.16817 0.23066 0.62235 0.0
C137 C 0.19019 0.22382 0.63096 0.0
C138 C 0.20821 0.2142 0.62069 0.0
C139 C 0.20332 0.21154 0.6015 0.0
C140 C 0.01762 0.19314 0.62342 0.0
H141 H 0.1539 0.25594 0.50962 0.0
H142 H 0.14154 0.23281 0.53867 0.0
H143 H 0.11126 0.29939 0.55603 0.0
H144 H 0.1244 0.32329 0.52709 0.0
H145 H 0.16504 0.25291 0.57082 0.0
H146 H 0.07374 0.24701 0.56892 0.0
H147 H 0.10663 0.21694 0.61517 0.0
H148 H 0.05426 0.1838 0.61587 0.0
H149 H 0.05057 0.26112 0.59142 0.0
H150 H 1.00331 0.24933 0.6065 0.0
H151 H 0.17715 0.21428 0.57814 0.0
H152 H 0.15545 0.23866 0.63085 0.0
H153 H 0.00965 0.17469 0.6327 0.0
H154 H 0.21698 0.20483 0.59299 0.0
H155 H 0.19265 0.22573 0.64573 0.0
C156 C 0.66342 0.80988 0.53411 0.0
C157 C 0.67874 0.83312 0.52191 0.0
C158 C 0.6752 0.81563 0.5525 0.0
C159 C 0.7023 0.84476 0.55894 0.0
C160 C 0.71817 0.86744 0.54662 0.0
C161 C 0.7066 0.86166 0.52832 0.0
C162 C 0.71362 0.85255 0.57854 0.0
C163 C 0.71984 0.83198 0.58841 0.0
C164 C 0.73384 0.84143 0.60652 0.0
C165 C 0.74033 0.87107 0.61487 0.0
C166 C 0.73407 0.89163 0.60511 0.0
C167 C 0.72053 0.88215 0.58705 0.0
C168 C 0.74423 0.92415 0.61315 0.0
C169 C 0.73604 0.92928 0.6305 0.0
C170 C 0.76288 0.95037 0.6035 0.0
C171 C 0.77336 0.98129 0.61109 0.0
C172 C 0.76512 0.98664 0.62843 0.0
C173 C 0.74463 0.82197 0.61611 0.0
C174 C 0.7248 0.78886 0.61598 0.0
C175 C 0.77553 0.83653 0.62498 0.0
C176 C 0.78656 0.81833 0.63339 0.0
C177 C 0.7669 0.78515 0.63319 0.0
C178 C 0.73577 0.77063 0.62453 0.0
C179 C 0.7462 0.96027 0.63803 0.0
H180 H 0.64187 0.78768 0.52957 0.0
H181 H 0.66259 0.79783 0.5618 0.0
H182 H 0.73951 0.88983 0.5512 0.0
H183 H 0.71948 0.87965 0.51918 0.0
H184 H 0.71563 0.80959 0.58165 0.0
H185 H 0.71578 0.89815 0.57947 0.0
H186 H 0.75147 0.87871 0.62874 0.0
H187 H 0.72152 0.90932 0.63812 0.0
H188 H 0.76993 0.94698 0.5902 0.0
H189 H 0.78847 0.00102 0.60349 0.0
H190 H 0.7008 0.77712 0.60934 0.0
H191 H 0.79155 0.86195 0.62499 0.0
H192 H 0.73906 0.96353 0.65131 0.0
H193 H 0.71985 0.74517 0.62436 0.0
H194 H 0.81084 0.8302 0.63961 0.0
C195 C 0.10997 0.812 0.52298 0.0
C196 C 0.14111 0.82068 0.51888 0.0
C197 C 0.10398 0.81853 0.54066 0.0
C198 C 0.129 0.83384 0.55462 0.0
C199 C 0.15983 0.84122 0.55068 0.0
C200 C 0.16584 0.83489 0.53306 0.0
C201 C 0.12367 0.84424 0.57287 0.0
C202 C 0.0964 0.82467 0.58167 0.0
C203 C 0.09168 0.83516 0.59885 0.0
C204 C 0.11424 0.8656 0.60703 0.0
C205 C 0.14126 0.8855 0.59832 0.0
C206 C 0.14587 0.87463 0.58134 0.0
C207 C 0.16423 0.91807 0.6067 0.0
C208 C 0.15329 0.93806 0.61374 0.0
C209 C 0.19716 0.92951 0.60752 0.0
C210 C 0.21874 0.96025 0.61548 0.0
C211 C 0.2078 0.98022 0.62267 0.0
C212 C 0.06294 0.81497 0.60823 0.0
C213 C 0.03254 0.80025 0.59876 0.0
C214 C 0.06564 0.81169 0.62699 0.0
C215 C 0.03848 0.79436 0.63614 0.0
C216 C 0.00794 0.78006 0.62676 0.0
C217 C 0.00536 0.78315 0.60793 0.0
C218 C 0.17482 0.96883 0.62156 0.0
H219 H 0.09025 0.80055 0.51248 0.0
H220 H 0.07997 0.81263 0.5432 0.0
H221 H 0.17958 0.85257 0.56119 0.0
H222 H 0.19017 0.84223 0.53045 0.0
H223 H 0.07919 0.8011 0.57534 0.0
H224 H 0.16632 0.89043 0.57442 0.0
H225 H 0.11057 0.87401 0.62014 0.0
H226 H 0.12805 0.93004 0.61298 0.0
H227 H 0.20619 0.91447 0.60228 0.0
H228 H 0.24394 0.9681 0.61632 0.0
H229 H 0.02973 0.80277 0.58436 0.0
H230 H 0.08883 0.82254 0.6346 0.0
H231 H 0.16558 0.98379 0.62661 0.0
H232 H 0.98226 0.77295 0.60029 0.0
H233 H 0.04147 0.79199 0.65053 0.0
C234 C 0.9904 0.52604 0.82336 0.0
C235 C 0.01133 0.5156 0.82938 0.0
C236 C 0.97999 0.5219 0.80487 0.0
C237 C 0.99053 0.50748 0.79198 0.0
C238 C 0.01253 0.49827 0.79796 0.0
C239 C 0.02269 0.50214 0.81648 0.0
C240 C 0.9768 0.49997 0.77264 0.0
C241 C 0.96955 0.52099 0.76393 0.0
C242 C 0.95367 0.51242 0.7463 0.0
C243 C 0.94551 0.48283 0.73723 0.0
C244 C 0.95233 0.46148 0.74576 0.0
C245 C 0.96828 0.47031 0.76334 0.0
C246 C 0.93997 0.42879 0.73707 0.0
C247 C 0.90811 0.4109 0.7297 0.0
C248 C 0.95935 0.41485 0.73666 0.0
C249 C 0.94707 0.38355 0.72891 0.0
C250 C 0.91511 0.36558 0.72158 0.0
C251 C 0.94258 0.53271 0.73804 0.0
C252 C 0.92552 0.54361 0.74813 0.0
C253 C 0.94682 0.53933 0.71975 0.0
C254 C 0.93404 0.55644 0.71165 0.0
C255 C 0.91646 0.56693 0.72165 0.0
C256 C 0.91244 0.56033 0.74 0.0
C257 C 0.89579 0.37963 0.7221 0.0
H258 H 0.98099 0.53616 0.83305 0.0
H259 H 0.96265 0.52879 0.80082 0.0
H260 H 0.02152 0.48759 0.78835 0.0
H261 H 0.03919 0.49429 0.82076 0.0
H262 H 0.97583 0.54389 0.77093 0.0
H263 H 0.97225 0.4532 0.7702 0.0
H264 H 0.93259 0.47582 0.72379 0.0
H265 H 0.89247 0.42086 0.7302 0.0
H266 H 0.98403 0.42824 0.74221 0.0
H267 H 0.96268 0.37356 0.7285 0.0
H268 H 0.92136 0.53824 0.76215 0.0
H269 H 0.95996 0.53118 0.71171 0.0
H270 H 0.87091 0.36627 0.71694 0.0
H271 H 0.89848 0.56739 0.74803 0.0
H272 H 0.93804 0.56152 0.69758 0.0
C273 C 0.54641 0.52 0.8219 0.0
C274 C 0.53806 0.49749 0.83487 0.0
C275 C 0.55473 0.51408 0.80475 0.0
C276 C 0.55463 0.48548 0.80023 0.0
C277 C 0.54762 0.46368 0.81344 0.0
C278 C 0.53958 0.46966 0.83056 0.0
C279 C 0.55905 0.47683 0.78139 0.0
C280 C 0.58498 0.4979 0.77217 0.0
C281 C 0.58895 0.48866 0.75443 0.0
C282 C 0.56609 0.45867 0.74581 0.0
C283 C 0.53997 0.43771 0.75478 0.0
C284 C 0.53675 0.44683 0.77258 0.0
C285 C 0.5159 0.40625 0.74558 0.0
C286 C 0.50269 0.40378 0.72775 0.0
C287 C 0.50577 0.37856 0.75466 0.0
C288 C 0.48289 0.34888 0.74603 0.0
C289 C 0.46941 0.34631 0.72821 0.0
C290 C 0.6171 0.50974 0.74485 0.0
C291 C 0.62696 0.54221 0.74431 0.0
C292 C 0.6338 0.49716 0.73574 0.0
C293 C 0.65977 0.51658 0.72624 0.0
C294 C 0.66961 0.54907 0.72556 0.0
C295 C 0.65281 0.56162 0.73469 0.0
C296 C 0.47956 0.37414 0.71918 0.0
H297 H 0.54535 0.54162 0.82471 0.0
H298 H 0.55986 0.53119 0.79476 0.0
H299 H 0.54783 0.44164 0.8104 0.0
H300 H 0.5342 0.45221 0.84036 0.0
H301 H 0.60254 0.5209 0.779 0.0
H302 H 0.51632 0.43077 0.77945 0.0
H303 H 0.56871 0.45152 0.73208 0.0
H304 H 0.50984 0.42486 0.72055 0.0
H305 H 0.51588 0.37982 0.76835 0.0
H306 H 0.47611 0.32791 0.75327 0.0
H307 H 0.61428 0.55245 0.75101 0.0
H308 H 0.62698 0.47228 0.73612 0.0
H309 H 0.46931 0.37315 0.70558 0.0
H310 H 0.65938 0.58641 0.73424 0.0
H311 H 0.67246 0.5062 0.71971 0.0
C312 C 0.56284 0.06154 0.8306 0.0
C313 C 0.53133 0.04023 0.83415 0.0
C314 C 0.56953 0.07418 0.81364 0.0
C315 C 0.54489 0.06565 0.79975 0.0
C316 C 0.51353 0.04348 0.80318 0.0
C317 C 0.50684 0.03111 0.82014 0.0
C318 C 0.55142 0.08079 0.78211 0.0
C319 C 0.57907 0.08747 0.77341 0.0
C320 C 0.58528 0.10228 0.75693 0.0
C321 C 0.56331 0.11046 0.74936 0.0
C322 C 0.53534 0.10338 0.75756 0.0
C323 C 0.52976 0.08883 0.77395 0.0
C324 C 0.51162 0.11064 0.74873 0.0
C325 C 0.52148 0.13988 0.74132 0.0
C326 C 0.47895 0.08794 0.74718 0.0
C327 C 0.45674 0.09411 0.73817 0.0
C328 C 0.4666 0.12322 0.73055 0.0
C329 C 0.61437 0.10919 0.7474 0.0
C330 C 0.64356 0.11785 0.75727 0.0
C331 C 0.61339 0.10805 0.7282 0.0
C332 C 0.6408 0.11647 0.71922 0.0
C333 C 0.67012 0.1255 0.72904 0.0
C334 C 0.67092 0.12561 0.74823 0.0
C335 C 0.49927 0.14613 0.73239 0.0
H336 H 0.58225 0.06921 0.84113 0.0
H337 H 0.59392 0.09138 0.81162 0.0
H338 H 0.49397 0.03566 0.79273 0.0
H339 H 0.4824 0.01425 0.82227 0.0
H340 H 0.59528 0.08036 0.77925 0.0
H341 H 0.50874 0.08447 0.78059 0.0
H342 H 0.56774 0.12224 0.7369 0.0
H343 H 0.54642 0.15806 0.74252 0.0
H344 H 0.47061 0.06502 0.75253 0.0
H345 H 0.43189 0.07571 0.73681 0.0
H346 H 0.64557 0.11926 0.77204 0.0
H347 H 0.59137 0.10071 0.71994 0.0
H348 H 0.50773 0.16906 0.72705 0.0
H349 H 0.69268 0.13168 0.7564 0.0
H350 H 0.63888 0.11637 0.70451 0.0
C351 C 0.81254 0.6054 0.85536 0.0
C352 C 0.81046 0.63279 0.85235 0.0
C353 C 0.80539 0.59182 0.87196 0.0
C354 C 0.79561 0.60496 0.88601 0.0
C355 C 0.7927 0.63182 0.88293 0.0
C356 C 0.80018 0.64567 0.86634 0.0
C357 C 0.78916 0.59081 0.90386 0.0
C358 C 0.8104 0.5824 0.91218 0.0
C359 C 0.8043 0.56773 0.92861 0.0
C360 C 0.77612 0.56105 0.93653 0.0
C361 C 0.75488 0.56974 0.92865 0.0
C362 C 0.76171 0.585 0.91243 0.0
C363 C 0.72531 0.56214 0.93736 0.0
C364 C 0.70346 0.53043 0.94019 0.0
C365 C 0.71943 0.58649 0.94366 0.0
C366 C 0.69247 0.57929 0.95296 0.0
C367 C 0.67056 0.54753 0.95573 0.0
C368 C 0.82737 0.55959 0.93756 0.0
C369 C 0.84368 0.54802 0.92712 0.0
C370 C 0.83335 0.56343 0.95671 0.0
C371 C 0.85467 0.55557 0.96518 0.0
C372 C 0.87082 0.54388 0.95475 0.0
C373 C 0.86523 0.54038 0.93561 0.0
C374 C 0.67617 0.52316 0.94909 0.0
H375 H 0.8195 0.59418 0.84483 0.0
H376 H 0.8073 0.57077 0.87376 0.0
H377 H 0.78542 0.64263 0.89353 0.0
H378 H 0.79857 0.6669 0.86467 0.0
H379 H 0.83215 0.58799 0.906 0.0
H380 H 0.74506 0.59122 0.90615 0.0
H381 H 0.77057 0.54903 0.94893 0.0
H382 H 0.70751 0.51126 0.93548 0.0
H383 H 0.73605 0.61114 0.94174 0.0
H384 H 0.68858 0.59849 0.95785 0.0
H385 H 0.83941 0.54431 0.91238 0.0
H386 H 0.82182 0.5729 0.9652 0.0
H387 H 0.6597 0.49851 0.95108 0.0
H388 H 0.87701 0.53109 0.9272 0.0
H389 H 0.85882 0.55902 0.97993 0.0
C390 C 0.33882 0.14247 0.8661 0.0
C391 C 0.35163 0.16649 0.85408 0.0
C392 C 0.35148 0.14856 0.88434 0.0
C393 C 0.37697 0.17879 0.89083 0.0
C394 C 0.3904 0.20237 0.87868 0.0
C395 C 0.37798 0.19626 0.86051 0.0
C396 C 0.38891 0.18659 0.91036 0.0
C397 C 0.39756 0.16711 0.91963 0.0
C398 C 0.41059 0.17575 0.93797 0.0
C399 C 0.41452 0.20411 0.94688 0.0
C400 C 0.40651 0.22407 0.93763 0.0
C401 C 0.39314 0.21474 0.9195 0.0
C402 C 0.41425 0.25571 0.94641 0.0
C403 C 0.41069 0.25988 0.96503 0.0
C404 C 0.42667 0.28241 0.93626 0.0
C405 C 0.43548 0.31253 0.94452 0.0
C406 C 0.43246 0.31673 0.96316 0.0
C407 C 0.42144 0.15608 0.94758 0.0
C408 C 0.40524 0.12271 0.94395 0.0
C409 C 0.44834 0.17061 0.96041 0.0
C410 C 0.4584 0.15229 0.96958 0.0
C411 C 0.44245 0.11895 0.96582 0.0
C412 C 0.41583 0.10444 0.95278 0.0
C413 C 0.41992 0.29018 0.97336 0.0
H414 H 0.31845 0.11933 0.86158 0.0
H415 H 0.34071 0.13004 0.8935 0.0
H416 H 0.41048 0.22569 0.88328 0.0
H417 H 0.389 0.21499 0.8515 0.0
H418 H 0.39537 0.14603 0.91225 0.0
H419 H 0.38612 0.22958 0.91235 0.0
H420 H 0.42461 0.21117 0.96094 0.0
H421 H 0.40082 0.23976 0.97318 0.0
H422 H 0.43045 0.28025 0.922 0.0
H423 H 0.44554 0.33274 0.93643 0.0
H424 H 0.38423 0.11054 0.93435 0.0
H425 H 0.46203 0.19627 0.96332 0.0
H426 H 0.41714 0.29286 0.98775 0.0
H427 H 0.40321 0.07892 0.94916 0.0
H428 H 0.47867 0.16444 0.9797 0.0
C429 C 0.77957 0.14606 0.85543 0.0
C430 C 0.81129 0.15685 0.85172 0.0
C431 C 0.77239 0.15055 0.87317 0.0
C432 C 0.79681 0.1658 0.88747 0.0
C433 C 0.82818 0.17469 0.88389 0.0
C434 C 0.83535 0.17039 0.86622 0.0
C435 C 0.79053 0.17549 0.9056 0.0
C436 C 0.76409 0.15474 0.9146 0.0
C437 C 0.75859 0.16478 0.93173 0.0
C438 C 0.77999 0.19593 0.93965 0.0
C439 C 0.8064 0.21689 0.93081 0.0
C440 C 0.81122 0.2065 0.91376 0.0
C441 C 0.82899 0.24971 0.93928 0.0
C442 C 0.81792 0.26764 0.94892 0.0
C443 C 0.86191 0.26338 0.93777 0.0
C444 C 0.8832 0.2942 0.94566 0.0
C445 C 0.87208 0.31182 0.95547 0.0
C446 C 0.73029 0.14345 0.94132 0.0
C447 C 0.70057 0.12328 0.93151 0.0
C448 C 0.73235 0.14448 0.96052 0.0
C449 C 0.70523 0.12714 0.96967 0.0
C450 C 0.67528 0.10775 0.9599 0.0
C451 C 0.67349 0.10551 0.94066 0.0
C452 C 0.83928 0.2983 0.95702 0.0
H453 H 0.76056 0.13555 0.84449 0.0
H454 H 0.74803 0.14359 0.8755 0.0
H455 H 0.84743 0.18588 0.8947 0.0
H456 H 0.85989 0.17829 0.86383 0.0
H457 H 0.74823 0.1307 0.90842 0.0
H458 H 0.83083 0.22297 0.90652 0.0
H459 H 0.77598 0.20405 0.95273 0.0
H460 H 0.79272 0.25816 0.95006 0.0
H461 H 0.87136 0.25009 0.93073 0.0
H462 H 0.90844 0.30399 0.94448 0.0
H463 H 0.69793 0.1219 0.91674 0.0
H464 H 0.75492 0.15911 0.96858 0.0
H465 H 0.83012 0.31158 0.96438 0.0
H466 H 0.65107 0.09025 0.93259 0.0
H467 H 0.70772 0.12975 0.98445 0.0
C468 C 0.6632 0.8621 0.15757 0.0
C469 C 0.68298 0.85022 0.16348 0.0
C470 C 0.65145 0.85696 0.13924 0.0
C471 C 0.65942 0.84 0.12644 0.0
C472 C 0.68053 0.82958 0.13223 0.0
C473 C 0.69207 0.83451 0.15056 0.0
C474 C 0.64371 0.83089 0.10751 0.0
C475 C 0.63786 0.85214 0.09805 0.0
C476 C 0.62036 0.84238 0.08081 0.0
C477 C 0.60964 0.81129 0.0729 0.0
C478 C 0.61537 0.7898 0.0821 0.0
C479 C 0.63238 0.7998 0.0994 0.0
C480 C 0.60231 0.75647 0.07399 0.0
C481 C 0.57187 0.73998 0.0644 0.0
C482 C 0.62005 0.74082 0.07582 0.0
C483 C 0.60768 0.70948 0.06816 0.0
C484 C 0.57754 0.69338 0.05835 0.0
C485 C 0.61071 0.86332 0.07169 0.0
C486 C 0.60144 0.88213 0.08203 0.0
C487 C 0.6079 0.86251 0.05252 0.0
C488 C 0.59433 0.87848 0.0439 0.0
C489 C 0.58375 0.89612 0.05425 0.0
C490 C 0.58841 0.89854 0.07342 0.0
C491 C 0.55974 0.70886 0.05654 0.0
H492 H 0.65559 0.87405 0.16727 0.0
H493 H 0.63494 0.86497 0.1353 0.0
H494 H 0.68759 0.81697 0.12264 0.0
H495 H 0.7077 0.82556 0.15471 0.0
H496 H 0.64673 0.87621 0.10418 0.0
H497 H 0.63549 0.78283 0.10695 0.0
H498 H 0.59594 0.80342 0.05971 0.0
H499 H 0.5572 0.75095 0.06312 0.0
H500 H 0.6437 0.75294 0.08293 0.0
H501 H 0.62192 0.69805 0.06959 0.0
H502 H 0.60298 0.8832 0.09679 0.0
H503 H 0.61542 0.84884 0.04411 0.0
H504 H 0.53624 0.69671 0.04923 0.0
H505 H 0.58142 0.91265 0.08187 0.0
H506 H 0.59114 0.87599 0.02912 0.0
C507 C 0.21481 0.85632 0.15344 0.0
C508 C 0.20895 0.83488 0.16681 0.0
C509 C 0.22062 0.84932 0.1358 0.0
C510 C 0.22005 0.82051 0.13117 0.0
C511 C 0.21483 0.79944 0.14463 0.0
C512 C 0.20953 0.80663 0.16227 0.0
C513 C 0.22265 0.81107 0.11213 0.0
C514 C 0.24858 0.83091 0.10255 0.0
C515 C 0.25145 0.82066 0.08481 0.0
C516 C 0.22763 0.79068 0.07664 0.0
C517 C 0.2012 0.77093 0.08591 0.0
C518 C 0.19905 0.78135 0.10367 0.0
C519 C 0.1759 0.73937 0.07714 0.0
C520 C 0.16559 0.73556 0.0585 0.0
C521 C 0.16179 0.7128 0.08735 0.0
C522 C 0.13805 0.68315 0.07912 0.0
C523 C 0.12812 0.67933 0.06046 0.0
C524 C 0.27949 0.84084 0.07485 0.0
C525 C 0.29052 0.87358 0.07445 0.0
C526 C 0.29525 0.82738 0.06552 0.0
C527 C 0.32166 0.8463 0.05615 0.0
C528 C 0.33287 0.87914 0.05582 0.0
C529 C 0.31676 0.89246 0.06497 0.0
C530 C 0.14205 0.70584 0.05024 0.0
H531 H 0.21467 0.87835 0.15661 0.0
H532 H 0.22445 0.86585 0.12561 0.0
H533 H 0.21438 0.77712 0.14141 0.0
H534 H 0.20482 0.78952 0.17222 0.0
H535 H 0.26702 0.85373 0.10914 0.0
H536 H 0.17861 0.76655 0.1109 0.0
H537 H 0.22976 0.78268 0.06301 0.0
H538 H 0.17549 0.75562 0.05031 0.0
H539 H 0.16949 0.71473 0.10166 0.0
H540 H 0.12803 0.663 0.08725 0.0
H541 H 0.27858 0.88453 0.08127 0.0
H542 H 0.28753 0.80226 0.06575 0.0
H543 H 0.13458 0.70362 0.03586 0.0
H544 H 0.32432 0.91753 0.06475 0.0
H545 H 0.33372 0.8353 0.04953 0.0
C546 C 0.23219 0.39766 0.16437 0.0
C547 C 0.20095 0.37498 0.1677 0.0
C548 C 0.23854 0.41128 0.14768 0.0
C549 C 0.21385 0.40252 0.13381 0.0
C550 C 0.18274 0.37942 0.13704 0.0
C551 C 0.17637 0.366 0.15373 0.0
C552 C 0.22013 0.41775 0.1162 0.0
C553 C 0.24809 0.42525 0.10768 0.0
C554 C 0.25374 0.43946 0.09106 0.0
C555 C 0.23071 0.4455 0.08282 0.0
C556 C 0.20272 0.43844 0.09106 0.0
C557 C 0.19792 0.42491 0.10784 0.0
C558 C 0.17845 0.44495 0.08203 0.0
C559 C 0.18782 0.47178 0.07213 0.0
C560 C 0.14566 0.42416 0.08301 0.0
C561 C 0.12297 0.43003 0.07433 0.0
C562 C 0.13245 0.45655 0.06423 0.0
C563 C 0.28348 0.44796 0.08207 0.0
C564 C 0.29959 0.47703 0.07418 0.0
C565 C 0.29551 0.42689 0.08081 0.0
C566 C 0.32266 0.43449 0.07164 0.0
C567 C 0.3386 0.46345 0.06357 0.0
C568 C 0.32676 0.48468 0.06508 0.0
C569 C 0.16511 0.47736 0.06323 0.0
H570 H 0.25188 0.40493 0.17464 0.0
H571 H 0.26276 0.42914 0.14582 0.0
H572 H 0.16312 0.3716 0.12663 0.0
H573 H 0.15194 0.34897 0.15575 0.0
H574 H 0.26549 0.42006 0.11395 0.0
H575 H 0.17704 0.42052 0.11464 0.0
H576 H 0.23432 0.45505 0.06964 0.0
H577 H 0.21277 0.48874 0.07134 0.0
H578 H 0.13739 0.40295 0.0902 0.0
H579 H 0.09793 0.41341 0.07518 0.0
H580 H 0.29129 0.49406 0.07515 0.0
H581 H 0.28348 0.40413 0.08652 0.0
H582 H 0.17312 0.49825 0.05575 0.0
H583 H 0.33868 0.50745 0.0594 0.0
H584 H 0.33075 0.41731 0.07057 0.0
C585 C 0.47678 0.92738 0.18823 0.0
C586 C 0.47399 0.95429 0.18507 0.0
C587 C 0.47073 0.91456 0.20509 0.0
C588 C 0.46146 0.92812 0.21921 0.0
C589 C 0.45798 0.95461 0.21595 0.0
C590 C 0.46437 0.96768 0.19912 0.0
C591 C 0.45679 0.91539 0.23746 0.0
C592 C 0.47916 0.90832 0.2456 0.0
C593 C 0.47565 0.89691 0.26291 0.0
C594 C 0.44906 0.89187 0.27204 0.0
C595 C 0.4259 0.89801 0.26403 0.0
C596 C 0.43027 0.9103 0.24682 0.0
C597 C 0.39697 0.89091 0.27354 0.0
C598 C 0.38078 0.86255 0.28209 0.0
C599 C 0.38535 0.91235 0.27424 0.0
C600 C 0.35834 0.90566 0.28334 0.0
C601 C 0.34204 0.87722 0.29186 0.0
C602 C 0.49982 0.89022 0.27145 0.0
C603 C 0.50802 0.86957 0.26214 0.0
C604 C 0.51484 0.90444 0.28896 0.0
C605 C 0.53779 0.89825 0.29696 0.0
C606 C 0.54555 0.87718 0.28777 0.0
C607 C 0.53041 0.8628 0.27032 0.0
C608 C 0.35368 0.85577 0.29108 0.0
H609 H 0.48437 0.91662 0.17778 0.0
H610 H 0.47339 0.89399 0.2071 0.0
H611 H 0.45107 0.96572 0.22659 0.0
H612 H 0.46174 0.98825 0.19707 0.0
H613 H 0.4999 0.91254 0.23867 0.0
H614 H 0.41252 0.91492 0.24044 0.0
H615 H 0.44635 0.88295 0.28539 0.0
H616 H 0.38877 0.84526 0.28157 0.0
H617 H 0.39745 0.93459 0.26801 0.0
H618 H 0.3505 0.92306 0.28387 0.0
H619 H 0.4967 0.85826 0.24865 0.0
H620 H 0.50901 0.92055 0.29637 0.0
H621 H 0.34153 0.83337 0.29713 0.0
H622 H 0.53605 0.84645 0.26301 0.0
H623 H 0.54905 0.90944 0.31048 0.0
C624 C 0.9821 0.46619 0.20117 0.0
C625 C 0.99508 0.49095 0.18961 0.0
C626 C 0.99393 0.47155 0.21955 0.0
C627 C 0.01874 0.50178 0.22663 0.0
C628 C 0.03206 0.52623 0.21497 0.0
C629 C 0.02044 0.52087 0.1967 0.0
C630 C 0.03105 0.50852 0.24612 0.0
C631 C 0.04034 0.48877 0.25454 0.0
C632 C 0.05599 0.49776 0.27229 0.0
C633 C 0.06206 0.52674 0.28148 0.0
C634 C 0.05309 0.54682 0.27315 0.0
C635 C 0.03656 0.53684 0.25573 0.0
C636 C 0.06399 0.57955 0.28171 0.0
C637 C 0.06704 0.58608 0.30079 0.0
C638 C 0.07355 0.60507 0.27074 0.0
C639 C 0.08624 0.63622 0.2786 0.0
C640 C 0.09064 0.64296 0.29767 0.0
C641 C 0.06809 0.47821 0.28078 0.0
C642 C 0.05032 0.44468 0.27848 0.0
C643 C 0.0978 0.4931 0.2912 0.0
C644 C 0.10918 0.47498 0.29937 0.0
C645 C 0.09144 0.44159 0.29703 0.0
C646 C 0.06201 0.42654 0.28644 0.0
C647 C 0.08049 0.61744 0.30868 0.0
H648 H 0.96246 0.44289 0.19611 0.0
H649 H 0.9833 0.45234 0.2283 0.0
H650 H 0.05174 0.54956 0.21998 0.0
H651 H 0.03161 0.54018 0.18807 0.0
H652 H 0.037 0.46741 0.24688 0.0
H653 H 0.02874 0.55165 0.24927 0.0
H654 H 0.07483 0.53419 0.29493 0.0
H655 H 0.05948 0.56704 0.30968 0.0
H656 H 0.07222 0.6013 0.25602 0.0
H657 H 0.09294 0.65506 0.26962 0.0
H658 H 0.02725 0.43244 0.27069 0.0
H659 H 0.11263 0.51882 0.29284 0.0
H660 H 0.08365 0.62164 0.32343 0.0
H661 H 0.04788 0.40075 0.28451 0.0
H662 H 0.13221 0.4871 0.30723 0.0
C663 C 0.43625 0.48551 0.18668 0.0
C664 C 0.46727 0.49284 0.18305 0.0
C665 C 0.43009 0.49323 0.20407 0.0
C666 C 0.45483 0.50846 0.21819 0.0
C667 C 0.48545 0.51442 0.21476 0.0
C668 C 0.49163 0.50689 0.19744 0.0
C669 C 0.4496 0.52011 0.2361 0.0
C670 C 0.42225 0.50152 0.24507 0.0
C671 C 0.4182 0.51282 0.26223 0.0
C672 C 0.44184 0.54298 0.27027 0.0
C673 C 0.46907 0.562 0.26141 0.0
C674 C 0.47248 0.55045 0.24428 0.0
C675 C 0.49408 0.59382 0.27005 0.0
C676 C 0.4858 0.61373 0.28015 0.0
C677 C 0.52653 0.60445 0.26839 0.0
C678 C 0.55006 0.63417 0.27665 0.0
C679 C 0.54167 0.65363 0.28699 0.0
C680 C 0.38939 0.49343 0.27187 0.0
C681 C 0.35902 0.47692 0.26226 0.0
C682 C 0.39195 0.49212 0.2909 0.0
C683 C 0.36483 0.4749 0.3001 0.0
C684 C 0.33449 0.45839 0.29049 0.0
C685 C 0.3319 0.45962 0.27146 0.0
C686 C 0.50936 0.64322 0.28864 0.0
H687 H 0.41679 0.47423 0.17601 0.0
H688 H 0.40625 0.48835 0.20625 0.0
H689 H 0.50495 0.52561 0.22542 0.0
H690 H 0.51587 0.51324 0.1952 0.0
H691 H 0.4046 0.47797 0.23895 0.0
H692 H 0.49286 0.56545 0.23706 0.0
H693 H 0.43898 0.5517 0.2835 0.0
H694 H 0.46109 0.60668 0.28141 0.0
H695 H 0.53386 0.58956 0.261 0.0
H696 H 0.57486 0.64159 0.27536 0.0
H697 H 0.35614 0.47784 0.24766 0.0
H698 H 0.41502 0.50414 0.29869 0.0
H699 H 0.50233 0.65803 0.2964 0.0
H700 H 0.30882 0.44744 0.26367 0.0
H701 H 0.36771 0.47396 0.31469 0.0
Tb702 Tb 0.49249 0.97978 0.98988 0.0
Eu703 Eu 0.51817 0.02146 0.03045 0.0
C704 C 0.52199 0.95954 0.02179 0.0
C705 C 0.44782 0.96037 0.02163 0.0
C706 C 0.48464 0.96573 0.93936 0.0
C707 C 0.50058 0.96261 0.90881 0.0
C708 C 0.49277 0.95028 0.92575 0.0
C709 C 0.48438 0.99379 0.93573 0.0
C710 C 0.49189 0.00597 0.91872 0.0
C711 C 0.50024 0.99062 0.90507 0.0
C712 C 0.47842 0.95333 0.95753 0.0
O713 O 0.47203 0.01084 0.99199 0.0
O714 O 0.51011 0.05233 0.01174 0.0
O715 O 0.56082 0.03608 0.01415 0.0
O716 O 0.53331 0.02561 0.98613 0.0
C717 C 0.48626 0.04073 0.99898 0.0
O718 O 0.5119 0.04741 0.05371 0.0
O719 O 0.55233 0.03981 0.05458 0.0
O720 O 0.51207 0.97324 0.03344 0.0
O721 O 0.52253 0.96477 1.00447 0.0
O722 O 0.45708 0.94954 1.00775 0.0
O723 O 0.46512 0.9898 0.0292 0.0
C724 C 0.56023 0.03934 0.99656 0.0
O725 O 0.50348 0.9586 0.9678 0.0
O726 O 0.45905 0.95855 0.96686 0.0
C727 C 0.52701 0.03528 0.08188 0.0
C728 C 0.50876 0.00935 0.11574 0.0
C729 C 0.51146 0.03895 0.11247 0.0
C730 C 0.52052 0.05176 0.09574 0.0
C731 C 0.52433 0.00574 0.08505 0.0
C732 C 0.51552 0.99305 0.10179 0.0
C733 C 0.53512 0.04826 0.06396 0.0
H734 H 0.50661 0.95004 0.89857 0.0
H735 H 0.49339 0.92877 0.92829 0.0
H736 H 0.47873 0.00651 0.9461 0.0
H737 H 0.49177 0.02778 0.91638 0.0
H738 H 0.50602 0.05203 0.12272 0.0
H739 H 0.52209 0.0744 0.09354 0.0
H740 H 0.52891 0.99232 0.07456 0.0
H741 H 0.51427 0.97051 0.10381 0.0
Tb742 Tb 0.0198 0.50434 0.99179 0.0
Eu743 Eu 0.97564 0.48492 0.02679 0.0
C744 C 0.03741 0.55387 0.02598 0.0
C745 C 0.03939 0.48109 0.02719 0.0
C746 C 0.04721 0.51837 0.94507 0.0
C747 C 0.06382 0.54391 0.9171 0.0
C748 C 0.06887 0.54389 0.93594 0.0
C749 C 0.02031 0.49283 0.93514 0.0
C750 C 0.01542 0.49268 0.91628 0.0
C751 C 0.03713 0.51823 0.90708 0.0
C752 C 0.05299 0.51906 0.96492 0.0
O753 O 0.97632 0.46064 0.98185 0.0
O754 O 0.96292 0.4401 0.00935 0.0
O755 O 0.9464 0.48972 1.00391 0.0
O756 O 0.9868 0.52223 0.98707 0.0
C757 C 0.96039 0.43652 0.99147 0.0
O758 O 0.95081 0.45026 0.04615 0.0
O759 O 0.94701 0.493 0.04599 0.0
O760 O 0.00845 0.5381 0.0311 0.0
O761 O 0.04768 0.54144 0.01363 0.0
O762 O 0.03713 0.48002 0.00923 0.0
O763 O 0.02164 0.48828 0.03704 0.0
C764 C 0.95718 0.50968 0.9913 0.0
O765 O 0.04831 0.5392 0.97489 0.0
O766 O 0.0415 0.49154 0.97166 0.0
C767 C 0.94588 0.47171 0.07428 0.0
C768 C 0.95764 0.47685 0.11245 0.0
C769 C 0.93231 0.44887 0.10322 0.0
C770 C 0.92642 0.44638 0.08427 0.0
C771 C 0.97114 0.49976 0.08344 0.0
C772 C 0.97686 0.50237 0.1024 0.0
C773 C 0.94062 0.46764 0.05428 0.0
H774 H 0.08099 0.56379 0.91032 0.0
H775 H 0.08971 0.56383 0.94341 0.0
H776 H 1.00306 0.47303 0.94195 0.0
H777 H 0.99443 0.4728 0.9089 0.0
H778 H 0.91706 0.42895 0.11066 0.0
H779 H 0.90695 0.42449 0.07737 0.0
H780 H 0.98675 0.51941 0.07593 0.0
H781 H 0.99682 0.52404 0.10916 0.0
Tb782 Tb 0.51844 0.4977 0.02727 0.0
Eu783 Eu 0.49057 0.51459 0.99013 0.0
C784 C 0.48032 0.44527 0.99503 0.0
C785 C 0.55759 0.5172 0.99282 0.0
C786 C 0.52738 0.4858 0.07543 0.0
C787 C 0.5142 0.46234 0.10429 0.0
C788 C 0.52504 0.46285 0.08698 0.0
C789 C 0.51883 0.50833 0.08142 0.0
C790 C 0.50825 0.508 0.09874 0.0
C791 C 0.50555 0.48486 0.11037 0.0
C792 C 0.53627 0.48456 0.0567 0.0
O793 O 0.51918 0.54189 0.03495 0.0
O794 O 0.52408 0.56069 1.00681 0.0
O795 O 0.45767 0.51195 0.01138 0.0
O796 O 0.46837 0.48158 0.03038 0.0
C797 C 0.52728 0.56544 0.02466 0.0
O798 O 0.4995 0.54791 0.96948 0.0
O799 O 0.45479 0.5034 0.96741 0.0
O800 O 0.46685 0.46138 0.98947 0.0
O801 O 0.5057 0.45832 1.00678 0.0
O802 O 0.55884 0.52116 0.01075 0.0
O803 O 0.5309 0.50719 0.98257 0.0
C804 C 0.45072 0.49382 0.02502 0.0
O805 O 0.51337 0.4634 0.04507 0.0
O806 O 0.5523 0.51185 0.04986 0.0
C807 C 0.4789 0.52197 0.94016 0.0
C808 C 0.49573 0.51399 0.90493 0.0
C809 C 0.49147 0.53998 0.90996 0.0
C810 C 0.48307 0.54389 0.92744 0.0
C811 C 0.48289 0.49585 0.93514 0.0
C812 C 0.49103 0.4918 0.91766 0.0
C813 C 0.47372 0.52818 0.95912 0.0
H814 H 0.51202 0.4439 0.11273 0.0
H815 H 0.53104 0.44496 0.08248 0.0
H816 H 0.52003 0.52604 0.07265 0.0
H817 H 0.50236 0.52606 0.10302 0.0
H818 H 0.49471 0.55732 0.90041 0.0
H819 H 0.4805 0.56441 0.93115 0.0
H820 H 0.48044 0.47899 0.94488 0.0
H821 H 0.4946 0.4718 0.9143 0.0
Tb822 Tb 0.15776 0.3138 0.32216 0.0
Eu823 Eu 0.18172 0.35876 0.36193 0.0
C824 C 0.19468 0.3009 0.35347 0.0
C825 C 0.11655 0.29279 0.35561 0.0
C826 C 0.15156 0.29799 0.27236 0.0
C827 C 0.15971 0.29054 0.24051 0.0
C828 C 0.15093 0.27836 0.25742 0.0
C829 C 0.1613 0.33006 0.27016 0.0
C830 C 0.16986 0.34219 0.25327 0.0
C831 C 0.16925 0.32265 0.23816 0.0
C832 C 0.14318 0.28542 0.29033 0.0
O833 O 0.15601 0.35669 0.31764 0.0
O834 O 0.14784 0.36986 0.3464 0.0
O835 O 0.21523 0.39 0.34218 0.0
O836 O 0.20793 0.34857 0.32187 0.0
C837 C 0.14542 0.37077 0.32866 0.0
O838 O 0.16934 0.37979 0.38488 0.0
O839 O 0.21604 0.38432 0.38569 0.0
O840 O 0.20693 0.33066 0.36021 0.0
O841 O 0.17057 0.28765 0.34076 0.0
O842 O 0.11608 0.29523 0.33789 0.0
O843 O 0.14261 0.30994 0.3665 0.0
C844 C 0.22371 0.37888 0.3281 0.0
O845 O 0.16682 0.28869 0.30123 0.0
O846 O 0.12483 0.2932 0.29895 0.0
C847 C 0.1906 0.37536 0.41326 0.0
C848 C 0.17576 0.34945 0.44731 0.0
C849 C 0.1747 0.37724 0.44394 0.0
C850 C 0.18211 0.39008 0.4271 0.0
C851 C 0.19186 0.34771 0.41659 0.0
C852 C 0.18472 0.33501 0.43347 0.0
C853 C 0.19536 0.3874 0.395 0.0
H854 H 0.15942 0.27483 0.22935 0.0
H855 H 0.14387 0.25366 0.25887 0.0
H856 H 0.16228 0.34579 0.28153 0.0
H857 H 0.17656 0.36685 0.25204 0.0
H858 H 0.16817 0.3891 0.45434 0.0
H859 H 0.18067 0.41123 0.42477 0.0
H860 H 0.19776 0.33553 0.40602 0.0
H861 H 0.18537 0.31337 0.43551 0.0
Tb862 Tb 0.69647 0.84194 0.32554 0.0
Eu863 Eu 0.65173 0.82221 0.3599 0.0
C864 C 0.71331 0.89117 0.35948 0.0
C865 C 0.7146 0.81753 0.36063 0.0
C866 C 0.72372 0.85603 0.27897 0.0
C867 C 0.74001 0.88017 0.25058 0.0
C868 C 0.74576 0.88054 0.26941 0.0
C869 C 0.69573 0.83115 0.26952 0.0
C870 C 0.69012 0.8306 0.25069 0.0
C871 C 0.71221 0.8551 0.24104 0.0
C872 C 0.73 0.85709 0.2988 0.0
O873 O 0.65288 0.79876 0.31505 0.0
O874 O 0.63923 0.7775 0.34234 0.0
O875 O 0.62242 0.82551 0.33647 0.0
O876 O 0.664 0.86074 0.32137 0.0
C877 C 0.63667 0.77437 0.32444 0.0
O878 O 0.62745 0.78802 0.37955 0.0
O879 O 0.62233 0.82994 0.37866 0.0
O880 O 0.68382 0.87558 0.36383 0.0
O881 O 0.72421 0.8784 0.34773 0.0
O882 O 0.71157 0.8154 0.34266 0.0
O883 O 0.69812 0.82658 0.37038 0.0
C884 C 0.63379 0.84664 0.32454 0.0
O885 O 0.72503 0.87703 0.30875 0.0
O886 O 0.71888 0.82968 0.30561 0.0
C887 C 0.62285 0.81055 0.40729 0.0
C888 C 0.63698 0.81752 0.44532 0.0
C889 C 0.60928 0.79068 0.43693 0.0
C890 C 0.60224 0.78728 0.41803 0.0
C891 C 0.65039 0.83752 0.41561 0.0
C892 C 0.6573 0.84107 0.4345 0.0
C893 C 0.61674 0.80519 0.38737 0.0
H894 H 0.75748 0.89924 0.24345 0.0
H895 H 0.76742 0.89999 0.27652 0.0
H896 H 0.67817 0.81219 0.27669 0.0
H897 H 0.66829 0.81123 0.2437 0.0
H898 H 0.59315 0.77231 0.44498 0.0
H899 H 0.58104 0.76618 0.41176 0.0
H900 H 0.66685 0.85548 0.40747 0.0
H901 H 0.67905 0.86177 0.44059 0.0
Tb902 Tb 0.18562 0.82593 0.36093 0.0
Eu903 Eu 0.15772 0.84061 0.32313 0.0
C904 C 0.15025 0.77402 0.32833 0.0
C905 C 0.22753 0.84809 0.32771 0.0
C906 C 0.19505 0.81425 0.40949 0.0
C907 C 0.18443 0.79171 0.43868 0.0
C908 C 0.19399 0.79184 0.42107 0.0
C909 C 0.18646 0.83663 0.41572 0.0
C910 C 0.17714 0.83668 0.43337 0.0
C911 C 0.17582 0.8141 0.44506 0.0
C912 C 0.2029 0.81257 0.39058 0.0
O913 O 0.20627 0.87746 0.36221 0.0
O914 O 0.16868 0.88105 0.34384 0.0
O915 O 0.1165 0.81661 0.34065 0.0
O916 O 0.14555 0.83108 0.36861 0.0
C917 C 0.19268 0.89348 0.35648 0.0
O918 O 0.16128 0.87335 0.30298 0.0
O919 O 0.12312 0.8241 0.29926 0.0
O920 O 0.16048 0.79634 0.31716 0.0
O921 O 0.15068 0.78101 0.3458 0.0
O922 O 0.2188 0.82913 0.34099 0.0
O923 O 0.21025 0.86015 0.32157 0.0
C924 C 0.11838 0.82037 0.35863 0.0
O925 O 0.1793 0.7919 0.37919 0.0
O926 O 0.21932 0.83958 0.3836 0.0
C927 C 0.14741 0.84832 0.27308 0.0
C928 C 0.16894 0.84682 0.23828 0.0
C929 C 0.1602 0.86961 0.24361 0.0
C930 C 0.14953 0.87032 0.26086 0.0
C931 C 0.15591 0.82544 0.2678 0.0
C932 C 0.16633 0.82455 0.25055 0.0
C933 C 0.13868 0.85081 0.29173 0.0
H934 H 0.18322 0.77364 0.44714 0.0
H935 H 0.20006 0.77408 0.41638 0.0
H936 H 0.18673 0.85391 0.4069 0.0
H937 H 0.17117 0.85458 0.43787 0.0
H938 H 0.16226 0.88736 0.23463 0.0
H939 H 0.1435 0.88844 0.26478 0.0
H940 H 0.15482 0.80841 0.27707 0.0
H941 H 0.17225 0.80629 0.24685 0.0
Tb942 Tb 0.82483 0.64918 0.65697 0.0
Eu943 Eu 0.85007 0.69475 0.69696 0.0
C944 C 0.85773 0.63389 0.68989 0.0
C945 C 0.7813 0.63124 0.68924 0.0
C946 C 0.81546 0.63178 0.60675 0.0
C947 C 0.80515 0.62181 0.57362 0.0
C948 C 0.79823 0.61128 0.59107 0.0
C949 C 0.83935 0.66313 0.60472 0.0
C950 C 0.8467 0.67347 0.58733 0.0
C951 C 0.82978 0.6529 0.57157 0.0
C952 C 0.80923 0.62032 0.62512 0.0
O953 O 0.80413 0.68007 0.65758 0.0
O954 O 0.84042 0.72308 0.67717 0.0
O955 O 0.89317 0.71111 0.68098 0.0
O956 O 0.86636 0.69383 0.65234 0.0
C957 C 0.81724 0.7102 0.66397 0.0
O958 O 0.84117 0.72 0.71947 0.0
O959 O 0.88407 0.71666 0.7211 0.0
O960 O 0.84868 0.64892 0.70127 0.0
O961 O 0.85502 0.6351 0.67214 0.0
O962 O 0.79095 0.61999 0.67578 0.0
O963 O 0.79738 0.66131 0.69581 0.0
C964 C 0.89284 0.71023 0.66308 0.0
O965 O 0.83419 0.6255 0.63549 0.0
O966 O 0.79073 0.62721 0.63419 0.0
C967 C 0.85821 0.7114 0.74819 0.0
C968 C 0.84296 0.68727 0.78267 0.0
C969 C 0.84535 0.71667 0.7793 0.0
C970 C 0.85303 0.72866 0.76224 0.0
C971 C 0.85535 0.68182 0.75145 0.0
C972 C 0.84804 0.67002 0.76851 0.0
C973 C 0.86538 0.7236 0.73003 0.0
H974 H 0.79173 0.60544 0.56172 0.0
H975 H 0.77963 0.58704 0.59231 0.0
H976 H 0.85249 0.67958 0.61659 0.0
H977 H 0.86546 0.69768 0.5862 0.0
H978 H 0.8417 0.7306 0.78994 0.0
H979 H 0.85482 0.75138 0.75999 0.0
H980 H 0.85859 0.6677 0.74076 0.0
H981 H 0.84588 0.64707 0.77053 0.0
Tb982 Tb 0.35627 0.17413 0.6575 0.0
Eu983 Eu 0.31291 0.15607 0.69263 0.0
C984 C 0.3757 0.22263 0.69269 0.0
C985 C 0.3756 0.14918 0.6918 0.0
C986 C 0.38266 0.18576 0.61042 0.0
C987 C 0.39715 0.2076 0.58131 0.0
C988 C 0.40361 0.20977 0.60018 0.0
C989 C 0.35531 0.1592 0.60157 0.0
C990 C 0.34896 0.15686 0.58264 0.0
C991 C 0.36966 0.18124 0.57237 0.0
C992 C 0.38887 0.18997 0.63036 0.0
O993 O 0.3243 0.12263 0.65337 0.0
O994 O 0.28375 0.11859 0.66981 0.0
O995 O 0.29986 0.18562 0.67535 0.0
O996 O 0.31172 0.17149 0.64791 0.0
C997 C 0.29474 0.10668 0.65764 0.0
O998 O 0.28438 0.12145 0.71128 0.0
O999 O 0.28918 0.1685 0.71316 0.0
O1000 O 0.35906 0.19951 0.70274 0.0
O1001 O 0.37202 0.2183 0.67477 0.0
O1002 O 0.3854 0.16878 0.67892 0.0
O1003 O 0.34653 0.13697 0.69681 0.0
C1004 C 0.29675 0.18283 0.65742 0.0
O1005 O 0.37924 0.20758 0.63876 0.0
O1006 O 0.38225 0.16458 0.63864 0.0
C1007 C 0.28806 0.14532 0.74064 0.0
C1008 C 0.30518 0.15025 0.77825 0.0
C1009 C 0.27777 0.12304 0.76991 0.0
C1010 C 0.2692 0.12067 0.75122 0.0
C1011 C 0.31562 0.17236 0.74894 0.0
C1012 C 0.32398 0.17488 0.7676 0.0
C1013 C 0.27973 0.14201 0.72087 0.0
H1014 H 0.41361 0.22656 0.5737 0.0
H1015 H 0.42474 0.2305 0.60685 0.0
H1016 H 0.33863 0.1406 0.6093 0.0
H1017 H 0.32743 0.13645 0.57609 0.0
H1018 H 0.26287 0.10378 0.77787 0.0
H1019 H 0.24801 0.09951 0.745 0.0
H1020 H 0.33089 0.19146 0.74099 0.0
H1021 H 0.3455 0.19588 0.77364 0.0
Tb1022 Tb 0.85091 0.16616 0.69328 0.0
Eu1023 Eu 0.82477 0.18481 0.65629 0.0
C1024 C 0.81473 0.11617 0.65954 0.0
C1025 C 0.89255 0.18818 0.66027 0.0
C1026 C 0.8619 0.1531 0.74157 0.0
C1027 C 0.84812 0.12854 0.77007 0.0
C1028 C 0.85634 0.12801 0.75218 0.0
C1029 C 0.85938 0.17895 0.74912 0.0
C1030 C 0.85148 0.17965 0.76707 0.0
C1031 C 0.84551 0.15432 0.77768 0.0
C1032 C 0.86758 0.15055 0.72227 0.0
O1033 O 0.87346 0.21803 0.69547 0.0
O1034 O 0.83639 0.2239 0.67807 0.0
O1035 O 0.78302 0.16021 0.67337 0.0
O1036 O 0.81144 0.17202 0.70137 0.0
C1037 C 0.86073 0.23519 0.69044 0.0
O1038 O 0.83168 0.21919 0.63652 0.0
O1039 O 0.78966 0.1722 0.63306 0.0
O1040 O 0.82392 0.13907 0.64874 0.0
O1041 O 0.81661 0.12208 0.67728 0.0
O1042 O 0.88211 0.16744 0.67256 0.0
O1043 O 0.87732 0.20297 0.65524 0.0
C1044 C 0.78454 0.16246 0.69135 0.0
O1045 O 0.84228 0.13149 0.71145 0.0
O1046 O 0.88554 0.17701 0.71508 0.0
C1047 C 0.81413 0.1945 0.60655 0.0
C1048 C 0.83064 0.18887 0.57085 0.0
C1049 C 0.82702 0.21489 0.57685 0.0
C1050 C 0.81873 0.21761 0.59454 0.0
C1051 C 0.81798 0.16865 0.60063 0.0
C1052 C 0.82597 0.16578 0.58295 0.0
C1053 C 0.80731 0.19841 0.62551 0.0
H1054 H 0.84392 0.10884 0.77798 0.0
H1055 H 0.85785 0.10771 0.74652 0.0
H1056 H 0.86298 0.19831 0.74105 0.0
H1057 H 0.84931 0.19966 0.77253 0.0
H1058 H 0.83033 0.23297 0.56781 0.0
H1059 H 0.8162 0.23791 0.59892 0.0
H1060 H 0.81517 0.15081 0.60974 0.0
H1061 H 0.8291 0.14575 0.57885 0.0
C1062 C 0.36836 0.88885 0.03006 0.0
C1063 C 0.36194 0.89972 0.04661 0.0
H1064 H 0.40044 0.89938 0.00907 0.0
C1065 C 0.38393 0.9305 0.05462 0.0
H1066 H 0.35181 0.86536 0.02342 0.0
C1067 C 0.4114 0.94996 0.04633 0.0
C1068 C 0.41795 0.93922 0.02983 0.0
H1069 H 0.38027 0.93948 0.06753 0.0
H1070 H 0.42775 0.97341 0.05312 0.0
C1071 C 0.39613 0.90838 0.02177 0.0
C1072 C 0.11065 0.46967 0.03642 0.0
C1073 C 0.10836 0.46246 0.05469 0.0
H1074 H 0.09051 0.48079 0.01334 0.0
C1075 C 0.083 0.46104 0.0638 0.0
H1076 H 0.12981 0.47068 0.02902 0.0
C1077 C 0.06064 0.46713 0.05489 0.0
C1078 C 0.06285 0.47426 0.03658 0.0
H1079 H 0.08075 0.45574 0.07792 0.0
H1080 H 0.04153 0.46612 0.06235 0.0
C1081 C 0.08802 0.47526 0.02741 0.0
C1082 C 0.56441 0.6368 0.05996 0.0
C1083 C 0.56474 0.66059 0.04979 0.0
H1084 H 0.55185 0.58777 0.06001 0.0
C1085 C 0.55264 0.65294 0.03136 0.0
H1086 H 0.57346 0.64217 0.07423 0.0
C1087 C 0.5406 0.62202 0.02318 0.0
C1088 C 0.54001 0.59809 0.03335 0.0
H1089 H 0.55286 0.67099 0.02323 0.0
H1090 H 0.53153 0.61683 0.00891 0.0
C1091 C 0.5519 0.60572 0.05184 0.0
C1092 C 0.91843 0.36705 0.95493 0.0
C1093 C 0.89473 0.34389 0.96451 0.0
H1094 H 0.95771 0.41482 0.9559 0.0
C1095 C 0.89291 0.35135 0.98293 0.0
H1096 H 0.92018 0.36184 0.94067 0.0
C1097 C 0.91448 0.38135 0.99168 0.0
C1098 C 0.93807 0.40468 0.9821 0.0
H1099 H 0.87502 0.33379 0.99065 0.0
H1100 H 0.91243 0.38633 1.00592 0.0
C1101 C 0.93977 0.39732 0.96361 0.0
C1102 C 0.64442 0.5544 0.98293 0.0
C1103 C 0.64178 0.53968 0.96542 0.0
H1104 H 0.61992 0.55829 1.00557 0.0
C1105 C 0.61141 0.51713 0.95721 0.0
H1106 H 0.6676 0.57174 0.9896 0.0
C1107 C 0.58419 0.50985 0.96616 0.0
C1108 C 0.58674 0.52439 0.98373 0.0
H1109 H 0.60871 0.5055 0.9437 0.0
H1110 H 0.56109 0.49266 0.95933 0.0
C1111 C 0.61719 0.54654 0.9921 0.0
C1112 C 0.43193 0.06813 0.97897 0.0
C1113 C 0.4537 0.09944 0.97527 0.0
H1114 H 0.42535 0.02498 0.98924 0.0
C1115 C 0.48636 0.1117 0.98043 0.0
H1116 H 0.40657 0.05803 0.97573 0.0
C1117 C 0.49689 0.09304 0.98886 0.0
C1118 C 0.47511 0.06152 0.99184 0.0
H1119 H 0.50401 0.1354 0.97753 0.0
H1120 H 0.52216 0.10281 0.99236 0.0
C1121 C 0.44259 0.04924 0.9869 0.0
C1122 C 0.64685 0.07873 0.98658 0.0
C1123 C 0.64597 0.09075 0.96969 0.0
H1124 H 0.62058 0.05349 0.00848 0.0
C1125 C 0.61677 0.08678 0.96229 0.0
H1126 H 0.6687 0.08087 0.99265 0.0
C1127 C 0.58918 0.07057 0.97121 0.0
C1128 C 0.59008 0.0584 0.98796 0.0
H1129 H 0.61513 0.09638 0.94961 0.0
H1130 H 0.56707 0.06763 0.96496 0.0
C1131 C 0.61926 0.06296 0.99569 0.0
C1132 C 0.92275 0.54365 0.95739 0.0
C1133 C 0.89301 0.53495 0.96389 0.0
H1134 H 0.96646 0.54281 0.96097 0.0
C1135 C 0.88458 0.51769 0.97933 0.0
H1136 H 0.93004 0.55715 0.9456 0.0
C1137 C 0.90532 0.50939 0.98809 0.0
C1138 C 0.93521 0.51835 0.98174 0.0
H1139 H 0.8617 0.51026 0.98456 0.0
H1140 H 0.89792 0.49609 0.99995 0.0
C1141 C 0.94369 0.53559 0.96627 0.0
C1142 C 0.43443 0.36922 0.9637 0.0
C1143 C 0.44333 0.34902 0.97192 0.0
H1144 H 0.43905 0.41549 0.96462 0.0
C1145 C 0.46385 0.36036 0.98807 0.0
H1146 H 0.41849 0.36092 0.95128 0.0
C1147 C 0.47588 0.39168 0.99564 0.0
C1148 C 0.46724 0.41202 0.9873 0.0
H1149 H 0.47124 0.34526 0.99456 0.0
H1150 H 0.49198 0.39996 1.00798 0.0
C1151 C 0.44613 0.40038 0.97137 0.0
C1152 C 0.10971 0.63629 0.03488 0.0
C1153 C 0.10419 0.64752 0.0515 0.0
H1154 H 0.09305 0.59797 0.01387 0.0
C1155 C 0.07614 0.62795 0.05961 0.0
H1156 H 0.13127 0.65072 0.02842 0.0
C1157 C 0.05405 0.59764 0.05122 0.0
C1158 C 0.05987 0.58625 0.03472 0.0
H1159 H 0.07124 0.63615 0.07238 0.0
H1160 H 0.03271 0.58299 0.0578 0.0
C1161 C 0.08789 0.60595 0.02663 0.0
C1162 C 0.37265 0.48733 0.03761 0.0
C1163 C 0.36741 0.47148 0.05364 0.0
H1164 H 0.40281 0.5068 0.016 0.0
C1165 C 0.39 0.46338 0.06014 0.0
H1166 H 0.35561 0.49362 0.03205 0.0
C1167 C 0.41687 0.47067 0.05084 0.0
C1168 C 0.42206 0.48639 0.03478 0.0
H1169 H 0.38718 0.45172 0.07259 0.0
H1170 H 0.43373 0.46411 0.05637 0.0
C1171 C 0.39966 0.49476 0.02833 0.0
C1172 C 0.54174 0.91199 0.05334 0.0
C1173 C 0.56688 0.911 0.0452 0.0
H1174 H 0.50785 0.92801 0.05226 0.0
C1175 C 0.57553 0.92422 0.02845 0.0
H1176 H 0.53369 0.90124 0.06592 0.0
C1177 C 0.55993 0.93875 0.02031 0.0
C1178 C 0.53576 0.94078 0.02892 0.0
H1179 H 0.59494 0.92417 0.02185 0.0
H1180 H 0.56767 0.94953 1.00769 0.0
C1181 C 0.52661 0.92699 0.0454 0.0
C1182 C 0.06207 0.24087 0.38937 0.0
C1183 C 0.03213 0.23464 0.38193 0.0
H1184 H 0.11221 0.26424 0.38687 0.0
C1185 C 0.02981 0.24637 0.36522 0.0
H1186 H 0.06449 0.23216 0.40225 0.0
C1187 C 0.05708 0.2642 0.35617 0.0
C1188 C 0.08716 0.27119 0.36391 0.0
H1189 H 0.0069 0.24166 0.35917 0.0
H1190 H 0.05476 0.27336 0.34344 0.0
C1191 C 0.08933 0.25923 0.38056 0.0
C1192 C 0.7717 0.81544 0.39693 0.0
C1193 C 0.77953 0.79396 0.38831 0.0
H1194 H 0.74459 0.83932 0.39502 0.0
C1195 C 0.7659 0.78025 0.37052 0.0
H1196 H 0.78187 0.82625 0.41066 0.0
C1197 C 0.7451 0.7882 0.36141 0.0
C1198 C 0.73695 0.80941 0.37011 0.0
H1199 H 0.77172 0.76373 0.36358 0.0
H1200 H 0.73508 0.77742 0.34766 0.0
C1201 C 0.75031 0.82279 0.388 0.0
C1202 C 0.20723 0.97764 0.36368 0.0
C1203 C 0.22839 0.98966 0.3796 0.0
H1204 H 0.17932 0.93787 0.34392 0.0
C1205 C 0.23784 0.96977 0.38779 0.0
H1206 H 0.19989 0.99251 0.35687 0.0
C1207 C 0.22634 0.93855 0.38024 0.0
C1208 C 0.20499 0.92652 0.36441 0.0
H1209 H 0.25372 0.97814 0.40022 0.0
H1210 H 0.2339 0.92377 0.38695 0.0
C1211 C 0.19555 0.94636 0.35621 0.0
C1212 C 0.56571 0.69129 0.31515 0.0
C1213 C 0.56653 0.68436 0.2965 0.0
H1214 H 0.58749 0.72495 0.33863 0.0
C1215 C 0.59109 0.70689 0.28709 0.0
H1216 H 0.54715 0.67415 0.32272 0.0
C1217 C 0.61411 0.73621 0.29615 0.0
C1218 C 0.61323 0.74315 0.31483 0.0
H1219 H 0.59211 0.70205 0.27267 0.0
H1220 H 0.63255 0.75338 0.28854 0.0
C1221 C 0.58894 0.72028 0.32425 0.0
C1222 C 0.29082 0.87817 0.29407 0.0
C1223 C 0.3128 0.86977 0.30125 0.0
H1224 H 0.24709 0.878 0.29665 0.0
C1225 C 0.30639 0.85402 0.31735 0.0
H1226 H 0.29446 0.88971 0.28154 0.0
C1227 C 0.2788 0.84689 0.32598 0.0
C1228 C 0.257 0.85551 0.3188 0.0
H1229 H 0.32289 0.8475 0.32344 0.0
H1230 H 0.27468 0.83483 0.33834 0.0
C1231 C 0.26343 0.87125 0.30273 0.0
C1232 C 0.10614 0.399 0.29458 0.0
C1233 C 0.10415 0.42266 0.30534 0.0
H1234 H 0.12116 0.36428 0.29351 0.0
C1235 C 0.11537 0.42891 0.32391 0.0
H1236 H 0.09785 0.39396 0.28019 0.0
C1237 C 0.12844 0.41177 0.33161 0.0
C1238 C 0.13102 0.38851 0.32077 0.0
H1239 H 0.11394 0.44702 0.33247 0.0
H1240 H 0.13697 0.41709 0.34596 0.0
C1241 C 0.11969 0.38224 0.30219 0.0
C1242 C 0.30149 0.44999 0.31727 0.0
C1243 C 0.30577 0.43887 0.30013 0.0
H1244 H 0.27203 0.43998 0.33959 0.0
C1245 C 0.28262 0.40841 0.29232 0.0
H1246 H 0.3188 0.47352 0.32357 0.0
C1247 C 0.25609 0.38936 0.30143 0.0
C1248 C 0.25184 0.40021 0.31864 0.0
H1249 H 0.2853 0.39893 0.27927 0.0
H1250 H 0.23889 0.36596 0.29491 0.0
C1251 C 0.27466 0.4309 0.3264 0.0
C1252 C 0.55884 0.83794 0.30034 0.0
C1253 C 0.56864 0.86941 0.29662 0.0
H1254 H 0.57183 0.80624 0.31238 0.0
C1255 C 0.6003 0.89335 0.30169 0.0
H1256 H 0.53452 0.81913 0.29657 0.0
C1257 C 0.62188 0.88586 0.31031 0.0
C1258 C 0.61182 0.8545 0.31448 0.0
H1259 H 0.60832 0.91778 0.29892 0.0
H1260 H 0.64615 0.9047 0.31417 0.0
C1261 C 0.58012 0.83063 0.30942 0.0
C1262 C 0.13082 0.70105 0.29728 0.0
C1263 C 0.10644 0.67655 0.30591 0.0
H1264 H 0.1635 0.7511 0.29754 0.0
C1265 C 0.09736 0.68451 0.32235 0.0
H1266 H 0.13917 0.69586 0.2849 0.0
C1267 C 0.11216 0.71617 0.32989 0.0
C1268 C 0.13582 0.74052 0.32094 0.0
H1269 H 0.0784 0.66645 0.32926 0.0
H1270 H 0.10445 0.72167 0.34246 0.0
C1271 C 0.14504 0.73273 0.30459 0.0
C1272 C 0.78554 0.97353 0.36935 0.0
C1273 C 0.7783 0.98527 0.38517 0.0
H1274 H 0.77082 0.93465 0.34892 0.0
C1275 C 0.7493 0.96593 0.39248 0.0
H1276 H 0.80786 0.98779 0.36353 0.0
C1277 C 0.72791 0.93543 0.38406 0.0
C1278 C 0.73535 0.92359 0.36832 0.0
H1279 H 0.74306 0.9745 0.40462 0.0
H1280 H 0.70576 0.92104 0.39 0.0
C1281 C 0.76439 0.94299 0.36107 0.0
C1282 C 0.03169 0.78183 0.36876 0.0
C1283 C 0.03391 0.79542 0.38662 0.0
H1284 H 0.05629 0.77933 0.34588 0.0
C1285 C 0.06445 0.8176 0.39499 0.0
H1286 H 0.00889 0.76411 0.36188 0.0
C1287 C 0.09175 0.82563 0.38591 0.0
C1288 C 0.08931 0.81227 0.36804 0.0
H1289 H 0.06743 0.82921 0.40852 0.0
H1290 H 0.11481 0.84268 0.39284 0.0
C1291 C 0.05896 0.79041 0.35954 0.0
C1292 C 0.21081 0.23328 0.36141 0.0
C1293 C 0.23177 0.24573 0.37742 0.0
H1294 H 0.18234 0.24088 0.34126 0.0
C1295 C 0.24089 0.27648 0.38513 0.0
H1296 H 0.20325 0.2095 0.35526 0.0
C1297 C 0.2291 0.29438 0.37715 0.0
C1298 C 0.20772 0.28186 0.3613 0.0
H1299 H 0.25727 0.28678 0.39735 0.0
H1300 H 0.23651 0.31794 0.38361 0.0
C1301 C 0.19874 0.25115 0.35346 0.0
C1302 C 0.71914 0.60134 0.72325 0.0
C1303 C 0.69781 0.56997 0.71584 0.0
H1304 H 0.7618 0.64494 0.72077 0.0
C1305 C 0.70404 0.55877 0.69933 0.0
H1306 H 0.71559 0.61062 0.7361 0.0
C1307 C 0.73105 0.57851 0.69054 0.0
C1308 C 0.75223 0.6099 0.69801 0.0
H1309 H 0.68793 0.53483 0.69312 0.0
H1310 H 0.73524 0.56922 0.6779 0.0
C1311 C 0.74586 0.62103 0.71444 0.0
C1312 C 0.41268 0.11915 0.72661 0.0
C1313 C 0.44304 0.12954 0.72053 0.0
H1314 H 0.36767 0.11708 0.72238 0.0
C1315 C 0.4507 0.14599 0.70475 0.0
H1316 H 0.40604 0.10678 0.73883 0.0
C1317 C 0.42878 0.15215 0.69539 0.0
C1318 C 0.39851 0.14188 0.70151 0.0
H1319 H 0.47358 0.15386 0.69945 0.0
H1320 H 0.43561 0.16493 0.68332 0.0
C1321 C 0.39068 0.12518 0.7172 0.0
C1322 C 0.88019 0.32096 0.69773 0.0
C1323 C 0.90173 0.33225 0.71348 0.0
H1324 H 0.8503 0.28153 0.67818 0.0
C1325 C 0.90984 0.31132 0.72156 0.0
H1326 H 0.87387 0.3366 0.69096 0.0
C1327 C 0.89658 0.27974 0.71408 0.0
C1328 C 0.87478 0.26846 0.69846 0.0
H1329 H 0.92602 0.31914 0.73385 0.0
H1330 H 0.90314 0.26412 0.72067 0.0
C1331 C 0.86675 0.28939 0.69036 0.0
C1332 C 0.22296 0.02426 0.64736 0.0
C1333 C 0.23052 0.01261 0.6316 0.0
H1334 H 0.23717 0.06286 0.66785 0.0
C1335 C 0.25976 0.03212 0.62453 0.0
H1336 H 0.20099 0.00966 0.6534 0.0
C1337 C 0.28084 0.06267 0.633 0.0
C1338 C 0.27298 0.07434 0.64863 0.0
H1339 H 0.26616 0.02401 0.6123 0.0
H1340 H 0.30307 0.07725 0.62718 0.0
C1341 C 0.24384 0.05476 0.65571 0.0
C1342 C 0.95366 0.17483 0.63714 0.0
C1343 C 0.97436 0.2053 0.63162 0.0
H1344 H 0.91216 0.14575 0.65084 0.0
C1345 C 0.96802 0.23014 0.63625 0.0
H1346 H 0.95691 0.15472 0.6336 0.0
C1347 C 0.94157 0.22453 0.6456 0.0
C1348 C 0.92125 0.19422 0.65112 0.0
H1349 H 0.98355 0.25416 0.63283 0.0
H1350 H 0.93722 0.2441 0.6487 0.0
C1351 C 0.92775 0.16951 0.64699 0.0
C1352 C 0.79945 0.77706 0.65777 0.0
C1353 C 0.7793 0.76572 0.64142 0.0
H1354 H 0.82739 0.76853 0.67772 0.0
C1355 C 0.77182 0.73603 0.63265 0.0
H1356 H 0.80535 0.79967 0.665 0.0
C1357 C 0.78416 0.7181 0.64003 0.0
C1358 C 0.80446 0.72952 0.65629 0.0
H1359 H 0.7569 0.72686 0.61986 0.0
H1360 H 0.77805 0.69542 0.63282 0.0
C1361 C 0.81202 0.7592 0.66509 0.0
C1362 C 0.97707 0.7721 0.65451 0.0
C1363 C 0.97887 0.76194 0.63651 0.0
H1364 H 0.94849 0.76373 0.67714 0.0
C1365 C 0.95245 0.73429 0.62773 0.0
H1366 H 0.99684 0.79347 0.66165 0.0
C1367 C 0.9248 0.71768 0.6365 0.0
C1368 C 0.92279 0.72807 0.65434 0.0
H1369 H 0.95316 0.72518 0.6141 0.0
H1370 H 0.9051 0.69632 0.62934 0.0
C1371 C 0.94935 0.7552 0.66339 0.0
C1372 C 0.2378 0.18342 0.62185 0.0
C1373 C 0.23165 0.20669 0.62993 0.0
H1374 H 0.26341 0.15803 0.62403 0.0
C1375 C 0.24787 0.2224 0.64707 0.0
H1376 H 0.22545 0.17019 0.60891 0.0
C1377 C 0.26889 0.21457 0.65599 0.0
C1378 C 0.27492 0.19144 0.64783 0.0
H1379 H 0.24462 0.24101 0.65363 0.0
H1380 H 0.28075 0.22695 0.66921 0.0
C1381 C 0.25945 0.1762 0.63058 0.0
C1382 C 0.78676 0.02802 0.65527 0.0
C1383 C 0.77683 0.01966 0.63654 0.0
H1384 H 0.80651 0.0651 0.67723 0.0
C1385 C 0.779 0.04332 0.6255 0.0
H1386 H 0.78592 0.01054 0.66411 0.0
C1387 C 0.7914 0.07472 0.63296 0.0
C1388 C 0.80145 0.08301 0.65165 0.0
H1389 H 0.77101 0.03758 0.61109 0.0
H1390 H 0.79287 0.09242 0.62409 0.0
C1391 C 0.79878 0.05934 0.66277 0.0
C1392 C 0.44477 0.30725 0.70029 0.0
C1393 C 0.445 0.31472 0.71905 0.0
H1394 H 0.4227 0.27243 0.67727 0.0
C1395 C 0.42187 0.29168 0.72901 0.0
H1396 H 0.46253 0.32418 0.69226 0.0
C1397 C 0.39931 0.26179 0.72045 0.0
C1398 C 0.39916 0.2544 0.70171 0.0
H1399 H 0.42098 0.29679 0.7434 0.0
H1400 H 0.38187 0.24457 0.72852 0.0
C1401 C 0.42201 0.27749 0.69171 0.0
C1402 C 0.72996 0.15768 0.72774 0.0
C1403 C 0.6996 0.13506 0.71931 0.0
H1404 H 0.78032 0.18385 0.72565 0.0
C1405 C 0.69774 0.122 0.70135 0.0
H1406 H 0.73268 0.16897 0.74133 0.0
C1407 C 0.72515 0.13149 0.69212 0.0
C1408 C 0.75531 0.15369 0.70072 0.0
H1409 H 0.67515 0.10399 0.6944 0.0
H1410 H 0.72277 0.12078 0.6784 0.0
C1411 C 0.75741 0.16656 0.71866 0.0
C1412 C 0.88876 0.57638 0.6948 0.0
C1413 C 0.9021 0.58449 0.71308 0.0
H1414 H 0.86419 0.58568 0.67304 0.0
C1415 C 0.90107 0.60923 0.72336 0.0
H1416 H 0.88881 0.5572 0.68654 0.0
C1417 C 0.88642 0.62491 0.71576 0.0
C1418 C 0.87283 0.61665 0.6976 0.0
H1419 H 0.91179 0.61672 0.7373 0.0
H1420 H 0.88621 0.64392 0.72411 0.0
C1421 C 0.87445 0.59249 0.68709 0.0
C1422 C 0.50034 0.00178 0.16678 0.0
C1423 C 0.48173 0.96857 0.1673 0.0
H1424 H 0.52408 0.0406 0.15034 0.0
C1425 C 0.47136 0.949 0.15073 0.0
H1426 H 0.50904 0.01751 0.17931 0.0
C1427 C 0.4797 0.96222 0.13408 0.0
C1428 C 0.49891 0.99541 0.13352 0.0
H1429 H 0.45659 0.92336 0.15062 0.0
H1430 H 0.47085 0.94633 0.12162 0.0
C1431 C 0.50892 0.01502 0.15012 0.0
C1432 C 0.97501 0.45775 0.15938 0.0
C1433 C 0.98275 0.48595 0.17014 0.0
H1434 H 0.96113 0.43286 0.13259 0.0
C1435 C 0.98017 0.51021 0.16195 0.0
H1436 H 0.97704 0.43875 0.16524 0.0
C1437 C 0.97141 0.50696 0.14329 0.0
C1438 C 0.96469 0.47924 0.13244 0.0
H1439 H 0.98525 0.53193 0.16994 0.0
H1440 H 0.97005 0.52623 0.13731 0.0
C1441 C 0.96599 0.4544 0.1407 0.0
C1442 C 0.46069 0.49397 0.14902 0.0
C1443 C 0.47487 0.48778 0.16421 0.0
H1444 H 0.45863 0.49725 0.1202 0.0
C1445 C 0.49793 0.47881 0.16135 0.0
H1446 H 0.44307 0.50122 0.15067 0.0
C1447 C 0.50748 0.47733 0.14389 0.0
C1448 C 0.49402 0.4845 0.12879 0.0
H1449 H 0.50902 0.47335 0.17265 0.0
H1450 H 0.52612 0.47147 0.14237 0.0
C1451 C 0.47004 0.49222 0.13154 0.0
C1452 C 0.02839 0.54466 0.86074 0.0
C1453 C 0.0197 0.51703 0.84916 0.0
H1454 H 0.04084 0.5667 0.88822 0.0
C1455 C 0.01758 0.49011 0.85669 0.0
H1456 H 0.03031 0.56577 0.85526 0.0
C1457 C 0.02343 0.49059 0.87549 0.0
C1458 C 0.03181 0.51809 0.8871 0.0
H1459 H 0.01061 0.46839 0.84809 0.0
H1460 H 0.0214 0.46943 0.88097 0.0
C1461 C 0.03459 0.54525 0.87954 0.0
C1462 C 0.50173 0.47619 0.85989 0.0
C1463 C 0.52673 0.50223 0.85258 0.0
H1464 H 0.47221 0.45954 0.88194 0.0
C1465 C 0.54068 0.53252 0.86237 0.0
H1466 H 0.48986 0.45266 0.85255 0.0
C1467 C 0.53026 0.53649 0.8792 0.0
C1468 C 0.50576 0.51025 0.88664 0.0
H1469 H 0.56014 0.55305 0.85725 0.0
H1470 H 0.54196 0.55996 0.88662 0.0
C1471 C 0.49148 0.48012 0.87672 0.0
C1472 C 0.54236 0.01733 0.86174 0.0
C1473 C 0.52377 0.02791 0.85245 0.0
H1474 H 0.54952 0.99723 0.88553 0.0
C1475 C 0.49764 0.02648 0.86074 0.0
H1476 H 0.56254 0.01794 0.85572 0.0
C1477 C 0.49023 0.01469 0.87782 0.0
C1478 C 0.50855 0.00372 0.88701 0.0
H1479 H 0.48302 0.03474 0.85406 0.0
H1480 H 0.4698 0.01372 0.88372 0.0
C1481 C 0.53473 0.0052 0.87875 0.0
C1482 C 0.13167 0.31862 0.48955 0.0
C1483 C 0.14971 0.307 0.49845 0.0
H1484 H 0.12555 0.34086 0.46651 0.0
C1485 C 0.17668 0.30995 0.49042 0.0
H1486 H 0.1105 0.3164 0.4951 0.0
C1487 C 0.1851 0.32372 0.47391 0.0
C1488 C 0.16701 0.33522 0.46503 0.0
H1489 H 0.19163 0.30198 0.49699 0.0
H1490 H 0.2061 0.32574 0.46822 0.0
C1491 C 0.14027 0.33263 0.47311 0.0
C1492 C 0.65392 0.79854 0.49237 0.0
C1493 C 0.66582 0.82818 0.50258 0.0
H1494 H 0.63558 0.77199 0.46614 0.0
C1495 C 0.66633 0.85365 0.49404 0.0
H1496 H 0.65345 0.77855 0.49853 0.0
C1497 C 0.65634 0.84996 0.47554 0.0
C1498 C 0.64535 0.82064 0.46521 0.0
H1499 H 0.67465 0.87658 0.50163 0.0
H1500 H 0.65734 0.87011 0.46928 0.0
C1501 C 0.64372 0.79479 0.47385 0.0
C1502 C 0.13299 0.82252 0.48503 0.0
C1503 C 0.14829 0.8166 0.49979 0.0
H1504 H 0.12914 0.8258 0.45626 0.0
C1505 C 0.17178 0.80854 0.49626 0.0
H1506 H 0.11503 0.82913 0.48721 0.0
C1507 C 0.18046 0.80742 0.47854 0.0
C1508 C 0.16567 0.81404 0.46383 0.0
H1509 H 0.18376 0.80336 0.50723 0.0
H1510 H 0.19934 0.8021 0.47648 0.0
C1511 C 0.14149 0.82114 0.46728 0.0
C1512 C 0.703 0.88066 0.19446 0.0
C1513 C 0.69223 0.85223 0.18319 0.0
H1514 H 0.71794 0.90389 0.22167 0.0
C1515 C 0.68893 0.82506 0.19101 0.0
H1516 H 0.70587 0.90196 0.18876 0.0
C1517 C 0.69567 0.82612 0.20976 0.0
C1518 C 0.70612 0.85442 0.22107 0.0
H1519 H 0.68033 0.80273 0.18268 0.0
H1520 H 0.69268 0.80475 0.21544 0.0
C1521 C 0.71008 0.8818 0.21323 0.0
C1522 C 0.21476 0.83574 0.20088 0.0
C1523 C 0.20081 0.84092 0.18522 0.0
H1524 H 0.21642 0.83445 0.22986 0.0
C1525 C 0.1775 0.84977 0.18719 0.0
H1526 H 0.23309 0.8293 0.1998 0.0
C1527 C 0.1675 0.85223 0.2044 0.0
C1528 C 0.18079 0.84613 0.22006 0.0
H1529 H 0.16609 0.85357 0.17532 0.0
H1530 H 0.1486 0.85786 0.20533 0.0
C1531 C 0.20502 0.83849 0.21809 0.0
C1532 C 0.16994 0.32928 0.18674 0.0
C1533 C 0.19378 0.36117 0.18573 0.0
H1534 H 0.14315 0.2924 0.20378 0.0
C1535 C 0.21012 0.37996 0.20215 0.0
H1536 H 0.15712 0.31382 0.17445 0.0
C1537 C 0.20254 0.36738 0.21904 0.0
C1538 C 0.17823 0.33569 0.22007 0.0
H1539 H 0.22839 0.40468 0.20203 0.0
H1540 H 0.21586 0.38262 0.23131 0.0
C1541 C 0.1622 0.31678 0.20364 0.0
C1542 C 0.84434 0.64804 0.82575 0.0
C1543 C 0.8193 0.6478 0.83475 0.0
H1544 H 0.87146 0.66073 0.8025 0.0
C1545 C 0.80271 0.66166 0.82665 0.0
H1546 H 0.85826 0.63839 0.83169 0.0
C1547 C 0.81067 0.67494 0.80994 0.0
C1548 C 0.83523 0.67446 0.80082 0.0
H1549 H 0.78305 0.66164 0.83298 0.0
H1550 H 0.79705 0.68487 0.80392 0.0
C1551 C 0.85205 0.66101 0.809 0.0
C1552 C 0.33498 0.18558 0.82702 0.0
C1553 C 0.33749 0.1611 0.83497 0.0
H1554 H 0.32255 0.20115 0.80292 0.0
C1555 C 0.32729 0.1321 0.82437 0.0
H1556 H 0.34184 0.20791 0.83493 0.0
C1557 C 0.31584 0.12812 0.80603 0.0
C1558 C 0.3146 0.15314 0.79799 0.0
H1559 H 0.32909 0.11286 0.83006 0.0
H1560 H 0.30903 0.10592 0.79799 0.0
C1561 C 0.32382 0.1817 0.80872 0.0
C1562 C 0.84531 0.18295 0.82659 0.0
C1563 C 0.81976 0.15585 0.83271 0.0
H1564 H 0.87341 0.20368 0.80444 0.0
C1565 C 0.80251 0.12822 0.82056 0.0
H1566 H 0.8588 0.20472 0.83558 0.0
C1567 C 0.81097 0.12761 0.8027 0.0
C1568 C 0.83653 0.15477 0.79661 0.0
H1569 H 0.78276 0.10699 0.82493 0.0
H1570 H 0.79729 0.10601 0.7936 0.0
C1571 C 0.85351 0.18247 0.80872 0.0
C1572 C 0.34473 0.14986 0.52254 0.0
C1573 C 0.34648 0.17644 0.51473 0.0
H1574 H 0.35063 0.13054 0.54695 0.0
C1575 C 0.35643 0.20474 0.52594 0.0
H1576 H 0.3368 0.12764 0.51423 0.0
C1577 C 0.36437 0.2064 0.54462 0.0
C1578 C 0.36216 0.17967 0.55247 0.0
H1579 H 0.3581 0.2256 0.52025 0.0
H1580 H 0.37164 0.22841 0.553 0.0
C1581 C 0.35233 0.15141 0.54125 0.0
C1582 C 0.83305 0.15197 0.52464 0.0
C1583 C 0.85831 0.17779 0.51735 0.0
H1584 H 0.8044 0.13534 0.54703 0.0
C1585 C 0.87337 0.20788 0.52745 0.0
H1586 H 0.8203 0.12865 0.51706 0.0
C1587 C 0.86396 0.21176 0.54465 0.0
C1588 C 0.8394 0.18561 0.55212 0.0
H1589 H 0.89301 0.22822 0.5223 0.0
H1590 H 0.87655 0.23499 0.55234 0.0
C1591 C 0.82382 0.1558 0.54181 0.0
C1592 C 0.87778 0.68974 0.53155 0.0
C1593 C 0.85421 0.68649 0.51819 0.0
H1594 H 0.88857 0.68189 0.55875 0.0
C1595 C 0.82234 0.67145 0.52263 0.0
H1596 H 0.90246 0.70045 0.5287 0.0
C1597 C 0.81436 0.66006 0.53977 0.0
C1598 C 0.83804 0.66394 0.55311 0.0
H1599 H 0.80345 0.66899 0.51302 0.0
H1600 H 0.78969 0.64892 0.54277 0.0
C1601 C 0.86983 0.6789 0.5488 0.0
loop_
_geom_bond_atom_site_label_1
_geom_bond_atom_site_label_2
_geom_bond_distance
_geom_bond_site_symmetry_2
_ccdc_geom_bond_type
C0 C1 1.386 . S
C0 C2 1.397 . S
C0 H24 0.931 . S
C1 C0 1.386 . S
C1 C5 1.397 . S
C2 C0 1.397 . S
C2 C3 1.384 . S
C2 H25 0.930 . S
C3 C2 1.384 . S
C3 C4 1.377 . S
C3 C6 1.481 . S
C4 C3 1.377 . S
C4 C5 1.389 . S
C4 H26 0.929 . S
C5 C1 1.397 . S
C5 C4 1.389 . S
C5 H27 0.931 . S
C6 C3 1.481 . S
C6 C7 1.387 . S
C6 C11 1.390 . S
C7 C6 1.387 . S
C7 C8 1.401 . S
C7 H28 0.930 . S
C8 C7 1.401 . S
C8 C9 1.376 . S
C8 C17 1.511 . S
C9 C8 1.376 . S
C9 C10 1.392 . S
C9 H30 0.931 . S
C10 C9 1.392 . S
C10 C11 1.361 . S
C10 C12 1.500 . S
C11 C6 1.390 . S
C11 C10 1.361 . S
C11 H29 0.931 . S
C12 C10 1.500 . S
C12 C13 1.371 . S
C12 C14 1.365 . S
C13 C12 1.371 . S
C13 C23 1.386 . S
C13 H31 0.931 . S
C14 C12 1.365 . S
C14 C15 1.409 . S
C14 H32 0.929 . S
C15 C14 1.409 . S
C15 C16 1.380 . S
C15 H33 0.930 . S
C16 C15 1.380 . S
C16 C23 1.357 . S
C17 C8 1.511 . S
C17 C18 1.341 . S
C17 C19 1.371 . S
C18 C17 1.341 . S
C18 C22 1.394 . S
C18 H34 0.930 . S
C19 C17 1.371 . S
C19 C20 1.392 . S
C19 H35 0.931 . S
C20 C19 1.392 . S
C20 C21 1.331 . S
C20 H38 0.932 . S
C21 C20 1.331 . S
C21 C22 1.336 . S
C22 C18 1.394 . S
C22 C21 1.336 . S
C22 H37 0.929 . S
C23 C13 1.386 . S
C23 C16 1.357 . S
C23 H36 0.928 . S
H24 C0 0.931 . S
H25 C2 0.930 . S
H26 C4 0.929 . S
H27 C5 0.931 . S
H28 C7 0.930 . S
H29 C11 0.931 . S
H30 C9 0.931 . S
H31 C13 0.931 . S
H32 C14 0.929 . S
H33 C15 0.930 . S
H34 C18 0.930 . S
H35 C19 0.931 . S
H36 C23 0.928 . S
H37 C22 0.929 . S
H38 C20 0.932 . S
C39 C40 1.386 . S
C39 C41 1.397 . S
C39 H63 0.931 . S
C40 C39 1.386 . S
C40 C44 1.397 . S
C41 C39 1.397 . S
C41 C42 1.384 . S
C41 H64 0.930 . S
C42 C41 1.384 . S
C42 C43 1.377 . S
C42 C45 1.481 . S
C43 C42 1.377 . S
C43 C44 1.389 . S
C43 H65 0.929 . S
C44 C40 1.397 . S
C44 C43 1.389 . S
C44 H66 0.931 . S
C45 C42 1.481 . S
C45 C46 1.387 . S
C45 C50 1.390 . S
C46 C45 1.387 . S
C46 C47 1.401 . S
C46 H67 0.930 . S
C47 C46 1.401 . S
C47 C48 1.376 . S
C47 C56 1.511 . S
C48 C47 1.376 . S
C48 C49 1.392 . S
C48 H69 0.931 . S
C49 C48 1.392 . S
C49 C50 1.361 . S
C49 C51 1.500 . S
C50 C45 1.390 . S
C50 C49 1.361 . S
C50 H68 0.931 . S
C51 C49 1.500 . S
C51 C52 1.371 . S
C51 C53 1.365 . S
C52 C51 1.371 . S
C52 C62 1.386 . S
C52 H70 0.931 . S
C53 C51 1.365 . S
C53 C54 1.409 . S
C53 H71 0.929 . S
C54 C53 1.409 . S
C54 C55 1.380 . S
C54 H72 0.930 . S
C55 C54 1.380 . S
C55 C62 1.357 . S
C56 C47 1.511 . S
C56 C57 1.341 . S
C56 C58 1.371 . S
C57 C56 1.341 . S
C57 C61 1.394 . S
C57 H73 0.930 . S
C58 C56 1.371 . S
C58 C59 1.392 . S
C58 H74 0.931 . S
C59 C58 1.392 . S
C59 C60 1.331 . S
C59 H77 0.932 . S
C60 C59 1.331 . S
C60 C61 1.336 . S
C61 C57 1.394 . S
C61 C60 1.336 . S
C61 H76 0.929 . S
C62 C52 1.386 . S
C62 C55 1.357 . S
C62 H75 0.928 . S
H63 C39 0.931 . S
H64 C41 0.930 . S
H65 C43 0.929 . S
H66 C44 0.931 . S
H67 C46 0.930 . S
H68 C50 0.931 . S
H69 C48 0.931 . S
H70 C52 0.931 . S
H71 C53 0.929 . S
H72 C54 0.930 . S
H73 C57 0.930 . S
H74 C58 0.931 . S
H75 C62 0.928 . S
H76 C61 0.929 . S
H77 C59 0.932 . S
C78 C79 1.386 . S
C78 C80 1.397 . S
C78 H102 0.931 . S
C79 C78 1.386 . S
C79 C83 1.397 . S
C80 C78 1.397 . S
C80 C81 1.384 . S
C80 H103 0.930 . S
C81 C80 1.384 . S
C81 C82 1.377 . S
C81 C84 1.481 . S
C82 C81 1.377 . S
C82 C83 1.389 . S
C82 H104 0.929 . S
C83 C79 1.397 . S
C83 C82 1.389 . S
C83 H105 0.931 . S
C84 C81 1.481 . S
C84 C85 1.387 . S
C84 C89 1.390 . S
C85 C84 1.387 . S
C85 C86 1.401 . S
C85 H106 0.930 . S
C86 C85 1.401 . S
C86 C87 1.376 . S
C86 C95 1.511 . S
C87 C86 1.376 . S
C87 C88 1.392 . S
C87 H108 0.931 . S
C88 C87 1.392 . S
C88 C89 1.361 . S
C88 C90 1.500 . S
C89 C84 1.390 . S
C89 C88 1.361 . S
C89 H107 0.931 . S
C90 C88 1.500 . S
C90 C91 1.371 . S
C90 C92 1.365 . S
C91 C90 1.371 . S
C91 C101 1.386 . S
C91 H109 0.931 . S
C92 C90 1.365 . S
C92 C93 1.409 . S
C92 H110 0.929 . S
C93 C92 1.409 . S
C93 C94 1.380 . S
C93 H111 0.930 . S
C94 C93 1.380 . S
C94 C101 1.357 . S
C95 C86 1.511 . S
C95 C96 1.341 . S
C95 C97 1.371 . S
C96 C95 1.341 . S
C96 C100 1.394 . S
C96 H112 0.930 . S
C97 C95 1.371 . S
C97 C98 1.392 . S
C97 H113 0.931 . S
C98 C97 1.392 . S
C98 C99 1.331 . S
C98 H116 0.932 . S
C99 C98 1.331 . S
C99 C100 1.336 . S
C100 C96 1.394 . S
C100 C99 1.336 . S
C100 H115 0.929 1_655 S
C101 C91 1.386 . S
C101 C94 1.357 . S
C101 H114 0.928 . S
H102 C78 0.931 . S
H103 C80 0.930 . S
H104 C82 0.929 . S
H105 C83 0.931 . S
H106 C85 0.930 . S
H107 C89 0.931 . S
H108 C87 0.931 . S
H109 C91 0.931 . S
H110 C92 0.929 . S
H111 C93 0.930 . S
H112 C96 0.930 . S
H113 C97 0.931 . S
H114 C101 0.928 . S
H115 C100 0.929 1_455 S
H116 C98 0.932 . S
C117 C118 1.386 . S
C117 C119 1.397 . S
C117 H141 0.931 . S
C118 C117 1.386 . S
C118 C122 1.397 . S
C119 C117 1.397 . S
C119 C120 1.384 . S
C119 H142 0.930 . S
C120 C119 1.384 . S
C120 C121 1.377 . S
C120 C123 1.481 . S
C121 C120 1.377 . S
C121 C122 1.389 . S
C121 H143 0.929 . S
C122 C118 1.397 . S
C122 C121 1.389 . S
C122 H144 0.931 . S
C123 C120 1.481 . S
C123 C124 1.387 . S
C123 C128 1.390 . S
C124 C123 1.387 . S
C124 C125 1.401 . S
C124 H145 0.930 . S
C125 C124 1.401 . S
C125 C126 1.376 . S
C125 C134 1.511 . S
C126 C125 1.376 . S
C126 C127 1.392 . S
C126 H147 0.931 . S
C127 C126 1.392 . S
C127 C128 1.361 . S
C127 C129 1.500 . S
C128 C123 1.390 . S
C128 C127 1.361 . S
C128 H146 0.931 . S
C129 C127 1.500 . S
C129 C130 1.371 . S
C129 C131 1.365 . S
C130 C129 1.371 . S
C130 C140 1.386 . S
C130 H148 0.931 . S
C131 C129 1.365 . S
C131 C132 1.409 . S
C131 H149 0.929 . S
C132 C131 1.409 . S
C132 C133 1.380 . S
C132 H150 0.930 . S
C133 C132 1.380 . S
C133 C140 1.357 . S
C134 C125 1.511 . S
C134 C135 1.341 . S
C134 C136 1.371 . S
C135 C134 1.341 . S
C135 C139 1.394 . S
C135 H151 0.930 . S
C136 C134 1.371 . S
C136 C137 1.392 . S
C136 H152 0.931 . S
C137 C136 1.392 . S
C137 C138 1.331 . S
C137 H155 0.932 . S
C138 C137 1.331 . S
C138 C139 1.336 . S
C139 C135 1.394 . S
C139 C138 1.336 . S
C139 H154 0.929 . S
C140 C130 1.386 . S
C140 C133 1.357 . S
C140 H153 0.928 . S
H141 C117 0.931 . S
H142 C119 0.930 . S
H143 C121 0.929 . S
H144 C122 0.931 . S
H145 C124 0.930 . S
H146 C128 0.931 . S
H147 C126 0.931 . S
H148 C130 0.931 . S
H149 C131 0.929 . S
H150 C132 0.930 . S
H151 C135 0.930 . S
H152 C136 0.931 . S
H153 C140 0.928 . S
H154 C139 0.929 . S
H155 C137 0.932 . S
C156 C157 1.386 . S
C156 C158 1.397 . S
C156 H180 0.931 . S
C157 C156 1.386 . S
C157 C161 1.397 . S
C158 C156 1.397 . S
C158 C159 1.384 . S
C158 H181 0.930 . S
C159 C158 1.384 . S
C159 C160 1.377 . S
C159 C162 1.481 . S
C160 C159 1.377 . S
C160 C161 1.389 . S
C160 H182 0.929 . S
C161 C157 1.397 . S
C161 C160 1.389 . S
C161 H183 0.931 . S
C162 C159 1.481 . S
C162 C163 1.387 . S
C162 C167 1.390 . S
C163 C162 1.387 . S
C163 C164 1.401 . S
C163 H184 0.930 . S
C164 C163 1.401 . S
C164 C165 1.376 . S
C164 C173 1.511 . S
C165 C164 1.376 . S
C165 C166 1.392 . S
C165 H186 0.931 . S
C166 C165 1.392 . S
C166 C167 1.361 . S
C166 C168 1.500 . S
C167 C162 1.390 . S
C167 C166 1.361 . S
C167 H185 0.931 . S
C168 C166 1.500 . S
C168 C169 1.371 . S
C168 C170 1.365 . S
C169 C168 1.371 . S
C169 C179 1.386 . S
C169 H187 0.931 . S
C170 C168 1.365 . S
C170 C171 1.409 . S
C170 H188 0.929 . S
C171 C170 1.409 . S
C171 C172 1.380 . S
C171 H189 0.930 . S
C172 C171 1.380 . S
C172 C179 1.357 . S
C173 C164 1.511 . S
C173 C174 1.341 . S
C173 C175 1.371 . S
C174 C173 1.341 . S
C174 C178 1.394 . S
C174 H190 0.930 . S
C175 C173 1.371 . S
C175 C176 1.392 . S
C175 H191 0.931 . S
C176 C175 1.392 . S
C176 C177 1.331 . S
C176 H194 0.932 . S
C177 C176 1.331 . S
C177 C178 1.336 . S
C178 C174 1.394 . S
C178 C177 1.336 . S
C178 H193 0.929 . S
C179 C169 1.386 . S
C179 C172 1.357 . S
C179 H192 0.928 . S
H180 C156 0.931 . S
H181 C158 0.930 . S
H182 C160 0.929 . S
H183 C161 0.931 . S
H184 C163 0.930 . S
H185 C167 0.931 . S
H186 C165 0.931 . S
H187 C169 0.931 . S
H188 C170 0.929 . S
H189 C171 0.930 . S
H190 C174 0.930 . S
H191 C175 0.931 . S
H192 C179 0.928 . S
H193 C178 0.929 . S
H194 C176 0.932 . S
C195 C196 1.386 . S
C195 C197 1.397 . S
C195 H219 0.931 . S
C196 C195 1.386 . S
C196 C200 1.397 . S
C197 C195 1.397 . S
C197 C198 1.384 . S
C197 H220 0.930 . S
C198 C197 1.384 . S
C198 C199 1.377 . S
C198 C201 1.481 . S
C199 C198 1.377 . S
C199 C200 1.389 . S
C199 H221 0.929 . S
C200 C196 1.397 . S
C200 C199 1.389 . S
C200 H222 0.931 . S
C201 C198 1.481 . S
C201 C202 1.387 . S
C201 C206 1.390 . S
C202 C201 1.387 . S
C202 C203 1.401 . S
C202 H223 0.930 . S
C203 C202 1.401 . S
C203 C204 1.376 . S
C203 C212 1.511 . S
C204 C203 1.376 . S
C204 C205 1.392 . S
C204 H225 0.931 . S
C205 C204 1.392 . S
C205 C206 1.361 . S
C205 C207 1.500 . S
C206 C201 1.390 . S
C206 C205 1.361 . S
C206 H224 0.931 . S
C207 C205 1.500 . S
C207 C208 1.371 . S
C207 C209 1.365 . S
C208 C207 1.371 . S
C208 C218 1.386 . S
C208 H226 0.931 . S
C209 C207 1.365 . S
C209 C210 1.409 . S
C209 H227 0.929 . S
C210 C209 1.409 . S
C210 C211 1.380 . S
C210 H228 0.930 . S
C211 C210 1.380 . S
C211 C218 1.357 . S
C212 C203 1.511 . S
C212 C213 1.341 . S
C212 C214 1.371 . S
C213 C212 1.341 . S
C213 C217 1.394 . S
C213 H229 0.930 . S
C214 C212 1.371 . S
C214 C215 1.392 . S
C214 H230 0.931 . S
C215 C214 1.392 . S
C215 C216 1.331 . S
C215 H233 0.932 . S
C216 C215 1.331 . S
C216 C217 1.336 . S
C217 C213 1.394 . S
C217 C216 1.336 . S
C217 H232 0.929 . S
C218 C208 1.386 . S
C218 C211 1.357 . S
C218 H231 0.928 . S
H219 C195 0.931 . S
H220 C197 0.930 . S
H221 C199 0.929 . S
H222 C200 0.931 . S
H223 C202 0.930 . S
H224 C206 0.931 . S
H225 C204 0.931 . S
H226 C208 0.931 . S
H227 C209 0.929 . S
H228 C210 0.930 . S
H229 C213 0.930 . S
H230 C214 0.931 . S
H231 C218 0.928 . S
H232 C217 0.929 . S
H233 C215 0.932 . S
C234 C235 1.386 . S
C234 C236 1.397 . S
C234 H258 0.931 . S
C235 C234 1.386 . S
C235 C239 1.397 1_655 S
C236 C234 1.397 . S
C236 C237 1.384 . S
C236 H259 0.930 . S
C237 C236 1.384 . S
C237 C238 1.377 1_655 S
C237 C240 1.481 . S
C238 C237 1.377 1_455 S
C238 C239 1.389 . S
C238 H260 0.929 . S
C239 C235 1.397 1_455 S
C239 C238 1.389 . S
C239 H261 0.931 . S
C240 C237 1.481 . S
C240 C241 1.387 . S
C240 C245 1.390 . S
C241 C240 1.387 . S
C241 C242 1.401 . S
C241 H262 0.930 . S
C242 C241 1.401 . S
C242 C243 1.376 . S
C242 C251 1.511 . S
C243 C242 1.376 . S
C243 C244 1.392 . S
C243 H264 0.931 . S
C244 C243 1.392 . S
C244 C245 1.361 . S
C244 C246 1.500 . S
C245 C240 1.390 . S
C245 C244 1.361 . S
C245 H263 0.931 . S
C246 C244 1.500 . S
C246 C247 1.371 . S
C246 C248 1.365 . S
C247 C246 1.371 . S
C247 C257 1.386 . S
C247 H265 0.931 . S
C248 C246 1.365 . S
C248 C249 1.409 . S
C248 H266 0.929 . S
C249 C248 1.409 . S
C249 C250 1.380 . S
C249 H267 0.930 . S
C250 C249 1.380 . S
C250 C257 1.357 . S
C251 C242 1.511 . S
C251 C252 1.341 . S
C251 C253 1.371 . S
C252 C251 1.341 . S
C252 C256 1.394 . S
C252 H268 0.930 . S
C253 C251 1.371 . S
C253 C254 1.392 . S
C253 H269 0.931 . S
C254 C253 1.392 . S
C254 C255 1.331 . S
C254 H272 0.932 . S
C255 C254 1.331 . S
C255 C256 1.336 . S
C256 C252 1.394 . S
C256 C255 1.336 . S
C256 H271 0.929 . S
C257 C247 1.386 . S
C257 C250 1.357 . S
C257 H270 0.928 . S
H258 C234 0.931 . S
H259 C236 0.930 . S
H260 C238 0.929 . S
H261 C239 0.931 . S
H262 C241 0.930 . S
H263 C245 0.931 . S
H264 C243 0.931 . S
H265 C247 0.931 . S
H266 C248 0.929 . S
H267 C249 0.930 . S
H268 C252 0.930 . S
H269 C253 0.931 . S
H270 C257 0.928 . S
H271 C256 0.929 . S
H272 C254 0.932 . S
C273 C274 1.386 . S
C273 C275 1.397 . S
C273 H297 0.931 . S
C274 C273 1.386 . S
C274 C278 1.397 . S
C275 C273 1.397 . S
C275 C276 1.384 . S
C275 H298 0.930 . S
C276 C275 1.384 . S
C276 C277 1.377 . S
C276 C279 1.481 . S
C277 C276 1.377 . S
C277 C278 1.389 . S
C277 H299 0.929 . S
C278 C274 1.397 . S
C278 C277 1.389 . S
C278 H300 0.931 . S
C279 C276 1.481 . S
C279 C280 1.387 . S
C279 C284 1.390 . S
C280 C279 1.387 . S
C280 C281 1.401 . S
C280 H301 0.930 . S
C281 C280 1.401 . S
C281 C282 1.376 . S
C281 C290 1.511 . S
C282 C281 1.376 . S
C282 C283 1.392 . S
C282 H303 0.931 . S
C283 C282 1.392 . S
C283 C284 1.361 . S
C283 C285 1.500 . S
C284 C279 1.390 . S
C284 C283 1.361 . S
C284 H302 0.931 . S
C285 C283 1.500 . S
C285 C286 1.371 . S
C285 C287 1.365 . S
C286 C285 1.371 . S
C286 C296 1.386 . S
C286 H304 0.931 . S
C287 C285 1.365 . S
C287 C288 1.409 . S
C287 H305 0.929 . S
C288 C287 1.409 . S
C288 C289 1.380 . S
C288 H306 0.930 . S
C289 C288 1.380 . S
C289 C296 1.357 . S
C290 C281 1.511 . S
C290 C291 1.341 . S
C290 C292 1.371 . S
C291 C290 1.341 . S
C291 C295 1.394 . S
C291 H307 0.930 . S
C292 C290 1.371 . S
C292 C293 1.392 . S
C292 H308 0.931 . S
C293 C292 1.392 . S
C293 C294 1.331 . S
C293 H311 0.932 . S
C294 C293 1.331 . S
C294 C295 1.336 . S
C295 C291 1.394 . S
C295 C294 1.336 . S
C295 H310 0.929 . S
C296 C286 1.386 . S
C296 C289 1.357 . S
C296 H309 0.928 . S
H297 C273 0.931 . S
H298 C275 0.930 . S
H299 C277 0.929 . S
H300 C278 0.931 . S
H301 C280 0.930 . S
H302 C284 0.931 . S
H303 C282 0.931 . S
H304 C286 0.931 . S
H305 C287 0.929 . S
H306 C288 0.930 . S
H307 C291 0.930 . S
H308 C292 0.931 . S
H309 C296 0.928 . S
H310 C295 0.929 . S
H311 C293 0.932 . S
C312 C313 1.386 . S
C312 C314 1.397 . S
C312 H336 0.931 . S
C313 C312 1.386 . S
C313 C317 1.397 . S
C314 C312 1.397 . S
C314 C315 1.384 . S
C314 H337 0.930 . S
C315 C314 1.384 . S
C315 C316 1.377 . S
C315 C318 1.481 . S
C316 C315 1.377 . S
C316 C317 1.389 . S
C316 H338 0.929 . S
C317 C313 1.397 . S
C317 C316 1.389 . S
C317 H339 0.931 . S
C318 C315 1.481 . S
C318 C319 1.387 . S
C318 C323 1.390 . S
C319 C318 1.387 . S
C319 C320 1.401 . S
C319 H340 0.930 . S
C320 C319 1.401 . S
C320 C321 1.376 . S
C320 C329 1.511 . S
C321 C320 1.376 . S
C321 C322 1.392 . S
C321 H342 0.931 . S
C322 C321 1.392 . S
C322 C323 1.361 . S
C322 C324 1.500 . S
C323 C318 1.390 . S
C323 C322 1.361 . S
C323 H341 0.931 . S
C324 C322 1.500 . S
C324 C325 1.371 . S
C324 C326 1.365 . S
C325 C324 1.371 . S
C325 C335 1.386 . S
C325 H343 0.931 . S
C326 C324 1.365 . S
C326 C327 1.409 . S
C326 H344 0.929 . S
C327 C326 1.409 . S
C327 C328 1.380 . S
C327 H345 0.930 . S
C328 C327 1.380 . S
C328 C335 1.357 . S
C329 C320 1.511 . S
C329 C330 1.341 . S
C329 C331 1.371 . S
C330 C329 1.341 . S
C330 C334 1.394 . S
C330 H346 0.930 . S
C331 C329 1.371 . S
C331 C332 1.392 . S
C331 H347 0.931 . S
C332 C331 1.392 . S
C332 C333 1.331 . S
C332 H350 0.932 . S
C333 C332 1.331 . S
C333 C334 1.336 . S
C334 C330 1.394 . S
C334 C333 1.336 . S
C334 H349 0.929 . S
C335 C325 1.386 . S
C335 C328 1.357 . S
C335 H348 0.928 . S
H336 C312 0.931 . S
H337 C314 0.930 . S
H338 C316 0.929 . S
H339 C317 0.931 . S
H340 C319 0.930 . S
H341 C323 0.931 . S
H342 C321 0.931 . S
H343 C325 0.931 . S
H344 C326 0.929 . S
H345 C327 0.930 . S
H346 C330 0.930 . S
H347 C331 0.931 . S
H348 C335 0.928 . S
H349 C334 0.929 . S
H350 C332 0.932 . S
C351 C352 1.386 . S
C351 C353 1.397 . S
C351 H375 0.931 . S
C352 C351 1.386 . S
C352 C356 1.397 . S
C353 C351 1.397 . S
C353 C354 1.384 . S
C353 H376 0.930 . S
C354 C353 1.384 . S
C354 C355 1.377 . S
C354 C357 1.481 . S
C355 C354 1.377 . S
C355 C356 1.389 . S
C355 H377 0.929 . S
C356 C352 1.397 . S
C356 C355 1.389 . S
C356 H378 0.931 . S
C357 C354 1.481 . S
C357 C358 1.387 . S
C357 C362 1.390 . S
C358 C357 1.387 . S
C358 C359 1.401 . S
C358 H379 0.930 . S
C359 C358 1.401 . S
C359 C360 1.376 . S
C359 C368 1.511 . S
C360 C359 1.376 . S
C360 C361 1.392 . S
C360 H381 0.931 . S
C361 C360 1.392 . S
C361 C362 1.361 . S
C361 C363 1.500 . S
C362 C357 1.390 . S
C362 C361 1.361 . S
C362 H380 0.931 . S
C363 C361 1.500 . S
C363 C364 1.371 . S
C363 C365 1.365 . S
C364 C363 1.371 . S
C364 C374 1.386 . S
C364 H382 0.931 . S
C365 C363 1.365 . S
C365 C366 1.409 . S
C365 H383 0.929 . S
C366 C365 1.409 . S
C366 C367 1.380 . S
C366 H384 0.930 . S
C367 C366 1.380 . S
C367 C374 1.357 . S
C368 C359 1.511 . S
C368 C369 1.341 . S
C368 C370 1.371 . S
C369 C368 1.341 . S
C369 C373 1.394 . S
C369 H385 0.930 . S
C370 C368 1.371 . S
C370 C371 1.392 . S
C370 H386 0.931 . S
C371 C370 1.392 . S
C371 C372 1.331 . S
C371 H389 0.932 . S
C372 C371 1.331 . S
C372 C373 1.336 . S
C373 C369 1.394 . S
C373 C372 1.336 . S
C373 H388 0.929 . S
C374 C364 1.386 . S
C374 C367 1.357 . S
C374 H387 0.928 . S
H375 C351 0.931 . S
H376 C353 0.930 . S
H377 C355 0.929 . S
H378 C356 0.931 . S
H379 C358 0.930 . S
H380 C362 0.931 . S
H381 C360 0.931 . S
H382 C364 0.931 . S
H383 C365 0.929 . S
H384 C366 0.930 . S
H385 C369 0.930 . S
H386 C370 0.931 . S
H387 C374 0.928 . S
H388 C373 0.929 . S
H389 C371 0.932 . S
C390 C391 1.386 . S
C390 C392 1.397 . S
C390 H414 0.931 . S
C391 C390 1.386 . S
C391 C395 1.397 . S
C392 C390 1.397 . S
C392 C393 1.384 . S
C392 H415 0.930 . S
C393 C392 1.384 . S
C393 C394 1.377 . S
C393 C396 1.481 . S
C394 C393 1.377 . S
C394 C395 1.389 . S
C394 H416 0.929 . S
C395 C391 1.397 . S
C395 C394 1.389 . S
C395 H417 0.931 . S
C396 C393 1.481 . S
C396 C397 1.387 . S
C396 C401 1.390 . S
C397 C396 1.387 . S
C397 C398 1.401 . S
C397 H418 0.930 . S
C398 C397 1.401 . S
C398 C399 1.376 . S
C398 C407 1.511 . S
C399 C398 1.376 . S
C399 C400 1.392 . S
C399 H420 0.931 . S
C400 C399 1.392 . S
C400 C401 1.361 . S
C400 C402 1.500 . S
C401 C396 1.390 . S
C401 C400 1.361 . S
C401 H419 0.931 . S
C402 C400 1.500 . S
C402 C403 1.371 . S
C402 C404 1.365 . S
C403 C402 1.371 . S
C403 C413 1.386 . S
C403 H421 0.931 . S
C404 C402 1.365 . S
C404 C405 1.409 . S
C404 H422 0.929 . S
C405 C404 1.409 . S
C405 C406 1.380 . S
C405 H423 0.930 . S
C406 C405 1.380 . S
C406 C413 1.357 . S
C407 C398 1.511 . S
C407 C408 1.341 . S
C407 C409 1.371 . S
C408 C407 1.341 . S
C408 C412 1.394 . S
C408 H424 0.930 . S
C409 C407 1.371 . S
C409 C410 1.392 . S
C409 H425 0.931 . S
C410 C409 1.392 . S
C410 C411 1.331 . S
C410 H428 0.932 . S
C411 C410 1.331 . S
C411 C412 1.336 . S
C412 C408 1.394 . S
C412 C411 1.336 . S
C412 H427 0.929 . S
C413 C403 1.386 . S
C413 C406 1.357 . S
C413 H426 0.906 1_556 S
H414 C390 0.931 . S
H415 C392 0.930 . S
H416 C394 0.929 . S
H417 C395 0.931 . S
H418 C397 0.930 . S
H419 C401 0.931 . S
H420 C399 0.931 . S
H421 C403 0.931 . S
H422 C404 0.929 . S
H423 C405 0.930 . S
H424 C408 0.930 . S
H425 C409 0.931 . S
H426 C413 0.906 1_554 S
H427 C412 0.929 . S
H428 C410 0.932 . S
C429 C430 1.386 . S
C429 C431 1.397 . S
C429 H453 0.931 . S
C430 C429 1.386 . S
C430 C434 1.397 . S
C431 C429 1.397 . S
C431 C432 1.384 . S
C431 H454 0.930 . S
C432 C431 1.384 . S
C432 C433 1.377 . S
C432 C435 1.481 . S
C433 C432 1.377 . S
C433 C434 1.389 . S
C433 H455 0.929 . S
C434 C430 1.397 . S
C434 C433 1.389 . S
C434 H456 0.931 . S
C435 C432 1.481 . S
C435 C436 1.387 . S
C435 C440 1.390 . S
C436 C435 1.387 . S
C436 C437 1.401 . S
C436 H457 0.930 . S
C437 C436 1.401 . S
C437 C438 1.376 . S
C437 C446 1.511 . S
C438 C437 1.376 . S
C438 C439 1.392 . S
C438 H459 0.931 . S
C439 C438 1.392 . S
C439 C440 1.361 . S
C439 C441 1.500 . S
C440 C435 1.390 . S
C440 C439 1.361 . S
C440 H458 0.931 . S
C441 C439 1.500 . S
C441 C442 1.371 . S
C441 C443 1.365 . S
C442 C441 1.371 . S
C442 C452 1.386 . S
C442 H460 0.931 . S
C443 C441 1.365 . S
C443 C444 1.409 . S
C443 H461 0.929 . S
C444 C443 1.409 . S
C444 C445 1.380 . S
C444 H462 0.930 . S
C445 C444 1.380 . S
C445 C452 1.357 . S
C446 C437 1.511 . S
C446 C447 1.341 . S
C446 C448 1.371 . S
C447 C446 1.341 . S
C447 C451 1.394 . S
C447 H463 0.930 . S
C448 C446 1.371 . S
C448 C449 1.392 . S
C448 H464 0.931 . S
C449 C448 1.392 . S
C449 C450 1.331 . S
C449 H467 0.932 . S
C450 C449 1.331 . S
C450 C451 1.336 . S
C451 C447 1.394 . S
C451 C450 1.336 . S
C451 H466 0.929 . S
C452 C442 1.386 . S
C452 C445 1.357 . S
C452 H465 0.928 . S
H453 C429 0.931 . S
H454 C431 0.930 . S
H455 C433 0.929 . S
H456 C434 0.931 . S
H457 C436 0.930 . S
H458 C440 0.931 . S
H459 C438 0.931 . S
H460 C442 0.931 . S
H461 C443 0.929 . S
H462 C444 0.930 . S
H463 C447 0.930 . S
H464 C448 0.931 . S
H465 C452 0.928 . S
H466 C451 0.929 . S
H467 C449 0.932 . S
C468 C469 1.386 . S
C468 C470 1.397 . S
C468 H492 0.931 . S
C469 C468 1.386 . S
C469 C473 1.397 . S
C470 C468 1.397 . S
C470 C471 1.384 . S
C470 H493 0.930 . S
C471 C470 1.384 . S
C471 C472 1.377 . S
C471 C474 1.481 . S
C472 C471 1.377 . S
C472 C473 1.389 . S
C472 H494 0.929 . S
C473 C469 1.397 . S
C473 C472 1.389 . S
C473 H495 0.931 . S
C474 C471 1.481 . S
C474 C475 1.387 . S
C474 C479 1.390 . S
C475 C474 1.387 . S
C475 C476 1.401 . S
C475 H496 0.930 . S
C476 C475 1.401 . S
C476 C477 1.376 . S
C476 C485 1.511 . S
C477 C476 1.376 . S
C477 C478 1.392 . S
C477 H498 0.931 . S
C478 C477 1.392 . S
C478 C479 1.361 . S
C478 C480 1.500 . S
C479 C474 1.390 . S
C479 C478 1.361 . S
C479 H497 0.931 . S
C480 C478 1.500 . S
C480 C481 1.371 . S
C480 C482 1.365 . S
C481 C480 1.371 . S
C481 C491 1.386 . S
C481 H499 0.931 . S
C482 C480 1.365 . S
C482 C483 1.409 . S
C482 H500 0.929 . S
C483 C482 1.409 . S
C483 C484 1.380 . S
C483 H501 0.930 . S
C484 C483 1.380 . S
C484 C491 1.357 . S
C485 C476 1.511 . S
C485 C486 1.341 . S
C485 C487 1.371 . S
C486 C485 1.341 . S
C486 C490 1.394 . S
C486 H502 0.930 . S
C487 C485 1.371 . S
C487 C488 1.392 . S
C487 H503 0.931 . S
C488 C487 1.392 . S
C488 C489 1.331 . S
C488 H506 0.932 . S
C489 C488 1.331 . S
C489 C490 1.336 . S
C490 C486 1.394 . S
C490 C489 1.336 . S
C490 H505 0.929 . S
C491 C481 1.386 . S
C491 C484 1.357 . S
C491 H504 0.928 . S
H492 C468 0.931 . S
H493 C470 0.930 . S
H494 C472 0.929 . S
H495 C473 0.931 . S
H496 C475 0.930 . S
H497 C479 0.931 . S
H498 C477 0.931 . S
H499 C481 0.931 . S
H500 C482 0.929 . S
H501 C483 0.930 . S
H502 C486 0.930 . S
H503 C487 0.931 . S
H504 C491 0.928 . S
H505 C490 0.929 . S
H506 C488 0.932 . S
C507 C508 1.386 . S
C507 C509 1.397 . S
C507 H531 0.931 . S
C508 C507 1.386 . S
C508 C512 1.397 . S
C509 C507 1.397 . S
C509 C510 1.384 . S
C509 H532 0.930 . S
C510 C509 1.384 . S
C510 C511 1.377 . S
C510 C513 1.481 . S
C511 C510 1.377 . S
C511 C512 1.389 . S
C511 H533 0.929 . S
C512 C508 1.397 . S
C512 C511 1.389 . S
C512 H534 0.931 . S
C513 C510 1.481 . S
C513 C514 1.387 . S
C513 C518 1.390 . S
C514 C513 1.387 . S
C514 C515 1.401 . S
C514 H535 0.930 . S
C515 C514 1.401 . S
C515 C516 1.376 . S
C515 C524 1.511 . S
C516 C515 1.376 . S
C516 C517 1.392 . S
C516 H537 0.931 . S
C517 C516 1.392 . S
C517 C518 1.361 . S
C517 C519 1.500 . S
C518 C513 1.390 . S
C518 C517 1.361 . S
C518 H536 0.931 . S
C519 C517 1.500 . S
C519 C520 1.371 . S
C519 C521 1.365 . S
C520 C519 1.371 . S
C520 C530 1.386 . S
C520 H538 0.931 . S
C521 C519 1.365 . S
C521 C522 1.409 . S
C521 H539 0.929 . S
C522 C521 1.409 . S
C522 C523 1.380 . S
C522 H540 0.930 . S
C523 C522 1.380 . S
C523 C530 1.357 . S
C524 C515 1.511 . S
C524 C525 1.341 . S
C524 C526 1.371 . S
C525 C524 1.341 . S
C525 C529 1.394 . S
C525 H541 0.930 . S
C526 C524 1.371 . S
C526 C527 1.392 . S
C526 H542 0.931 . S
C527 C526 1.392 . S
C527 C528 1.331 . S
C527 H545 0.932 . S
C528 C527 1.331 . S
C528 C529 1.336 . S
C529 C525 1.394 . S
C529 C528 1.336 . S
C529 H544 0.929 . S
C530 C520 1.386 . S
C530 C523 1.357 . S
C530 H543 0.928 . S
H531 C507 0.931 . S
H532 C509 0.930 . S
H533 C511 0.929 . S
H534 C512 0.931 . S
H535 C514 0.930 . S
H536 C518 0.931 . S
H537 C516 0.931 . S
H538 C520 0.931 . S
H539 C521 0.929 . S
H540 C522 0.930 . S
H541 C525 0.930 . S
H542 C526 0.931 . S
H543 C530 0.928 . S
H544 C529 0.929 . S
H545 C527 0.932 . S
C546 C547 1.386 . S
C546 C548 1.397 . S
C546 H570 0.931 . S
C547 C546 1.386 . S
C547 C551 1.397 . S
C548 C546 1.397 . S
C548 C549 1.384 . S
C548 H571 0.930 . S
C549 C548 1.384 . S
C549 C550 1.377 . S
C549 C552 1.481 . S
C550 C549 1.377 . S
C550 C551 1.389 . S
C550 H572 0.929 . S
C551 C547 1.397 . S
C551 C550 1.389 . S
C551 H573 0.931 . S
C552 C549 1.481 . S
C552 C553 1.387 . S
C552 C557 1.390 . S
C553 C552 1.387 . S
C553 C554 1.401 . S
C553 H574 0.930 . S
C554 C553 1.401 . S
C554 C555 1.376 . S
C554 C563 1.511 . S
C555 C554 1.376 . S
C555 C556 1.392 . S
C555 H576 0.931 . S
C556 C555 1.392 . S
C556 C557 1.361 . S
C556 C558 1.500 . S
C557 C552 1.390 . S
C557 C556 1.361 . S
C557 H575 0.931 . S
C558 C556 1.500 . S
C558 C559 1.371 . S
C558 C560 1.365 . S
C559 C558 1.371 . S
C559 C569 1.386 . S
C559 H577 0.931 . S
C560 C558 1.365 . S
C560 C561 1.409 . S
C560 H578 0.929 . S
C561 C560 1.409 . S
C561 C562 1.380 . S
C561 H579 0.930 . S
C562 C561 1.380 . S
C562 C569 1.357 . S
C563 C554 1.511 . S
C563 C564 1.341 . S
C563 C565 1.371 . S
C564 C563 1.341 . S
C564 C568 1.394 . S
C564 H580 0.930 . S
C565 C563 1.371 . S
C565 C566 1.392 . S
C565 H581 0.931 . S
C566 C565 1.392 . S
C566 C567 1.331 . S
C566 H584 0.932 . S
C567 C566 1.331 . S
C567 C568 1.336 . S
C568 C564 1.394 . S
C568 C567 1.336 . S
C568 H583 0.929 . S
C569 C559 1.386 . S
C569 C562 1.357 . S
C569 H582 0.928 . S
H570 C546 0.931 . S
H571 C548 0.930 . S
H572 C550 0.929 . S
H573 C551 0.931 . S
H574 C553 0.930 . S
H575 C557 0.931 . S
H576 C555 0.931 . S
H577 C559 0.931 . S
H578 C560 0.929 . S
H579 C561 0.930 . S
H580 C564 0.930 . S
H581 C565 0.931 . S
H582 C569 0.928 . S
H583 C568 0.929 . S
H584 C566 0.932 . S
C585 C586 1.386 . S
C585 C587 1.397 . S
C585 H609 0.931 . S
C586 C585 1.386 . S
C586 C590 1.397 . S
C587 C585 1.397 . S
C587 C588 1.384 . S
C587 H610 0.930 . S
C588 C587 1.384 . S
C588 C589 1.377 . S
C588 C591 1.481 . S
C589 C588 1.377 . S
C589 C590 1.389 . S
C589 H611 0.929 . S
C590 C586 1.397 . S
C590 C589 1.389 . S
C590 H612 0.931 . S
C591 C588 1.481 . S
C591 C592 1.387 . S
C591 C596 1.390 . S
C592 C591 1.387 . S
C592 C593 1.401 . S
C592 H613 0.930 . S
C593 C592 1.401 . S
C593 C594 1.376 . S
C593 C602 1.511 . S
C594 C593 1.376 . S
C594 C595 1.392 . S
C594 H615 0.931 . S
C595 C594 1.392 . S
C595 C596 1.361 . S
C595 C597 1.500 . S
C596 C591 1.390 . S
C596 C595 1.361 . S
C596 H614 0.931 . S
C597 C595 1.500 . S
C597 C598 1.371 . S
C597 C599 1.365 . S
C598 C597 1.371 . S
C598 C608 1.386 . S
C598 H616 0.931 . S
C599 C597 1.365 . S
C599 C600 1.409 . S
C599 H617 0.929 . S
C600 C599 1.409 . S
C600 C601 1.380 . S
C600 H618 0.930 . S
C601 C600 1.380 . S
C601 C608 1.357 . S
C602 C593 1.511 . S
C602 C603 1.341 . S
C602 C604 1.371 . S
C603 C602 1.341 . S
C603 C607 1.394 . S
C603 H619 0.930 . S
C604 C602 1.371 . S
C604 C605 1.392 . S
C604 H620 0.931 . S
C605 C604 1.392 . S
C605 C606 1.331 . S
C605 H623 0.932 . S
C606 C605 1.331 . S
C606 C607 1.336 . S
C607 C603 1.394 . S
C607 C606 1.336 . S
C607 H622 0.929 . S
C608 C598 1.386 . S
C608 C601 1.357 . S
C608 H621 0.928 . S
H609 C585 0.931 . S
H610 C587 0.930 . S
H611 C589 0.929 . S
H612 C590 0.931 . S
H613 C592 0.930 . S
H614 C596 0.931 . S
H615 C594 0.931 . S
H616 C598 0.931 . S
H617 C599 0.929 . S
H618 C600 0.930 . S
H619 C603 0.930 . S
H620 C604 0.931 . S
H621 C608 0.928 . S
H622 C607 0.929 . S
H623 C605 0.932 . S
C624 C625 1.386 1_655 S
C624 C626 1.397 . S
C624 H648 0.931 . S
C625 C624 1.386 1_455 S
C625 C629 1.397 . S
C626 C624 1.397 . S
C626 C627 1.384 1_655 S
C626 H649 0.930 . S
C627 C626 1.384 1_455 S
C627 C628 1.377 . S
C627 C630 1.481 . S
C628 C627 1.377 . S
C628 C629 1.389 . S
C628 H650 0.929 . S
C629 C625 1.397 . S
C629 C628 1.389 . S
C629 H651 0.931 . S
C630 C627 1.481 . S
C630 C631 1.387 . S
C630 C635 1.390 . S
C631 C630 1.387 . S
C631 C632 1.401 . S
C631 H652 0.930 . S
C632 C631 1.401 . S
C632 C633 1.376 . S
C632 C641 1.511 . S
C633 C632 1.376 . S
C633 C634 1.392 . S
C633 H654 0.931 . S
C634 C633 1.392 . S
C634 C635 1.361 . S
C634 C636 1.500 . S
C635 C630 1.390 . S
C635 C634 1.361 . S
C635 H653 0.931 . S
C636 C634 1.500 . S
C636 C637 1.371 . S
C636 C638 1.365 . S
C637 C636 1.371 . S
C637 C647 1.386 . S
C637 H655 0.931 . S
C638 C636 1.365 . S
C638 C639 1.409 . S
C638 H656 0.929 . S
C639 C638 1.409 . S
C639 C640 1.380 . S
C639 H657 0.930 . S
C640 C639 1.380 . S
C640 C647 1.357 . S
C641 C632 1.511 . S
C641 C642 1.341 . S
C641 C643 1.371 . S
C642 C641 1.341 . S
C642 C646 1.394 . S
C642 H658 0.930 . S
C643 C641 1.371 . S
C643 C644 1.392 . S
C643 H659 0.931 . S
C644 C643 1.392 . S
C644 C645 1.331 . S
C644 H662 0.932 . S
C645 C644 1.331 . S
C645 C646 1.336 . S
C646 C642 1.394 . S
C646 C645 1.336 . S
C646 H661 0.929 . S
C647 C637 1.386 . S
C647 C640 1.357 . S
C647 H660 0.928 . S
H648 C624 0.931 . S
H649 C626 0.930 . S
H650 C628 0.929 . S
H651 C629 0.931 . S
H652 C631 0.930 . S
H653 C635 0.931 . S
H654 C633 0.931 . S
H655 C637 0.931 . S
H656 C638 0.929 . S
H657 C639 0.930 . S
H658 C642 0.930 . S
H659 C643 0.931 . S
H660 C647 0.928 . S
H661 C646 0.929 . S
H662 C644 0.932 . S
C663 C664 1.386 . S
C663 C665 1.397 . S
C663 H687 0.931 . S
C664 C663 1.386 . S
C664 C668 1.397 . S
C665 C663 1.397 . S
C665 C666 1.384 . S
C665 H688 0.930 . S
C666 C665 1.384 . S
C666 C667 1.377 . S
C666 C669 1.481 . S
C667 C666 1.377 . S
C667 C668 1.389 . S
C667 H689 0.929 . S
C668 C664 1.397 . S
C668 C667 1.389 . S
C668 H690 0.931 . S
C669 C666 1.481 . S
C669 C670 1.387 . S
C669 C674 1.390 . S
C670 C669 1.387 . S
C670 C671 1.401 . S
C670 H691 0.930 . S
C671 C670 1.401 . S
C671 C672 1.376 . S
C671 C680 1.511 . S
C672 C671 1.376 . S
C672 C673 1.392 . S
C672 H693 0.931 . S
C673 C672 1.392 . S
C673 C674 1.361 . S
C673 C675 1.500 . S
C674 C669 1.390 . S
C674 C673 1.361 . S
C674 H692 0.931 . S
C675 C673 1.500 . S
C675 C676 1.371 . S
C675 C677 1.365 . S
C676 C675 1.371 . S
C676 C686 1.386 . S
C676 H694 0.931 . S
C677 C675 1.365 . S
C677 C678 1.409 . S
C677 H695 0.929 . S
C678 C677 1.409 . S
C678 C679 1.380 . S
C678 H696 0.930 . S
C679 C678 1.380 . S
C679 C686 1.357 . S
C680 C671 1.511 . S
C680 C681 1.341 . S
C680 C682 1.371 . S
C681 C680 1.341 . S
C681 C685 1.394 . S
C681 H697 0.930 . S
C682 C680 1.371 . S
C682 C683 1.392 . S
C682 H698 0.931 . S
C683 C682 1.392 . S
C683 C684 1.331 . S
C683 H701 0.932 . S
C684 C683 1.331 . S
C684 C685 1.336 . S
C685 C681 1.394 . S
C685 C684 1.336 . S
C685 H700 0.929 . S
C686 C676 1.386 . S
C686 C679 1.357 . S
C686 H699 0.928 . S
H687 C663 0.931 . S
H688 C665 0.930 . S
H689 C667 0.929 . S
H690 C668 0.931 . S
H691 C670 0.930 . S
H692 C674 0.931 . S
H693 C672 0.931 . S
H694 C676 0.931 . S
H695 C677 0.929 . S
H696 C678 0.930 . S
H697 C681 0.930 . S
H698 C682 0.931 . S
H699 C686 0.928 . S
H700 C685 0.929 . S
H701 C683 0.932 . S
Tb702 C712 2.825 . S
Tb702 O713 2.347 1_565 S
Tb702 O716 2.366 1_565 S
Tb702 O721 2.418 . S
Tb702 O722 2.384 . S
Tb702 O725 2.479 . S
Tb702 O726 2.466 1_565 S
Eu703 O714 2.418 . S
Eu703 O715 2.384 . S
Eu703 O718 2.479 . S
Eu703 O719 2.483 . S
Eu703 O720 2.347 1_545 S
Eu703 O723 2.366 1_545 S
Eu703 C733 2.825 . S
C704 O720 1.259 . S
C704 O721 1.265 1_554 S
C705 O722 1.255 1_554 S
C705 O723 1.265 . S
C706 C708 1.380 . S
C706 C709 1.374 1_565 S
C706 C712 1.507 . S
C707 C708 1.384 . S
C707 C711 1.387 1_565 S
C707 H734 0.930 . S
C708 C706 1.380 . S
C708 C707 1.384 . S
C708 H735 0.931 . S
C709 C706 1.374 1_545 S
C709 C710 1.390 . S
C709 H736 0.930 . S
C710 C709 1.390 . S
C710 C711 1.391 . S
C710 H737 0.930 . S
C711 C707 1.387 1_545 S
C711 C710 1.391 . S
C712 Tb702 2.825 . S
C712 C706 1.507 . S
C712 O725 1.238 . S
C712 O726 1.239 1_565 S
O713 Tb702 2.347 1_545 S
O713 C717 1.259 . S
O714 Eu703 2.418 . S
O714 C717 1.265 1_554 S
O715 Eu703 2.384 . S
O715 C724 1.255 1_554 S
O716 Tb702 2.366 1_545 S
O716 C724 1.265 . S
C717 O713 1.259 . S
C717 O714 1.265 1_556 S
O718 Eu703 2.479 . S
O718 C733 1.238 . S
O719 Eu703 2.483 . S
O719 C733 1.265 . S
O720 Eu703 2.347 1_565 S
O720 C704 1.259 . S
O721 Tb702 2.418 . S
O721 C704 1.265 1_556 S
O722 Tb702 2.384 . S
O722 C705 1.255 1_556 S
O723 Eu703 2.366 1_565 S
O723 C705 1.265 . S
C724 O715 1.255 1_556 S
C724 O716 1.265 . S
O725 Tb702 2.479 . S
O725 C712 1.238 . S
O726 Tb702 2.466 1_545 S
O726 C712 1.239 1_545 S
C727 C730 1.380 . S
C727 C731 1.374 1_545 S
C727 C733 1.507 . S
C728 C729 1.387 1_565 S
C728 C732 1.391 . S
C729 C728 1.387 1_545 S
C729 C730 1.384 . S
C729 H738 0.930 . S
C730 C727 1.380 . S
C730 C729 1.384 . S
C730 H739 0.931 . S
C731 C727 1.374 1_565 S
C731 C732 1.390 . S
C731 H740 0.930 . S
C732 C728 1.391 . S
C732 C731 1.390 . S
C732 H741 0.930 . S
C733 Eu703 2.825 . S
C733 O718 1.238 . S
C733 O719 1.265 . S
C733 C727 1.507 . S
H734 C707 0.930 . S
H735 C708 0.931 . S
H736 C709 0.930 . S
H737 C710 0.930 . S
H738 C729 0.930 . S
H739 C730 0.931 . S
H740 C731 0.930 . S
H741 C732 0.930 . S
Tb742 C752 2.825 . S
Tb742 O753 2.347 1_455 S
Tb742 O756 2.366 1_455 S
Tb742 O761 2.418 . S
Tb742 O762 2.384 1_556 S
Tb742 O765 2.479 . S
Tb742 O766 2.471 1_455 S
Eu743 O754 2.418 . S
Eu743 O755 2.384 1_554 S
Eu743 O758 2.479 . S
Eu743 O759 2.471 1_655 S
Eu743 O760 2.347 1_655 S
Eu743 O763 2.366 1_655 S
Eu743 C773 2.825 . S
C744 O760 1.259 . S
C744 O761 1.265 1_554 S
C745 O762 1.255 . S
C745 O763 1.265 . S
C746 C748 1.380 . S
C746 C749 1.374 1_455 S
C746 C752 1.507 . S
C747 C748 1.384 . S
C747 C751 1.387 1_455 S
C747 H774 0.930 . S
C748 C746 1.380 . S
C748 C747 1.384 . S
C748 H775 0.931 . S
C749 C746 1.374 1_655 S
C749 C750 1.390 . S
C749 H776 0.930 . S
C750 C749 1.390 . S
C750 C751 1.391 . S
C750 H777 0.930 . S
C751 C747 1.387 1_655 S
C751 C750 1.391 . S
C752 Tb742 2.825 . S
C752 C746 1.507 . S
C752 O765 1.238 . S
C752 O766 1.247 1_455 S
O753 Tb742 2.347 1_655 S
O753 C757 1.259 . S
O754 Eu743 2.418 . S
O754 C757 1.265 1_554 S
O755 Eu743 2.384 1_556 S
O755 C764 1.255 . S
O756 Tb742 2.366 1_655 S
O756 C764 1.265 . S
C757 O753 1.259 . S
C757 O754 1.265 1_556 S
O758 Eu743 2.479 . S
O758 C773 1.238 . S
O759 Eu743 2.471 1_455 S
O759 C773 1.247 1_455 S
O760 Eu743 2.347 1_455 S
O760 C744 1.259 . S
O761 Tb742 2.418 . S
O761 C744 1.265 1_556 S
O762 Tb742 2.384 1_554 S
O762 C745 1.255 . S
O763 Eu743 2.366 1_455 S
O763 C745 1.265 . S
C764 O755 1.255 . S
C764 O756 1.265 . S
O765 Tb742 2.479 . S
O765 C752 1.238 . S
O766 Tb742 2.471 1_655 S
O766 C752 1.247 1_655 S
C767 C770 1.380 . S
C767 C771 1.374 1_655 S
C767 C773 1.507 . S
C768 C769 1.387 1_455 S
C768 C772 1.391 . S
C769 C768 1.387 1_655 S
C769 C770 1.384 . S
C769 H778 0.930 . S
C770 C767 1.380 . S
C770 C769 1.384 . S
C770 H779 0.931 . S
C771 C767 1.374 1_455 S
C771 C772 1.390 . S
C771 H780 0.930 . S
C772 C768 1.391 . S
C772 C771 1.390 . S
C772 H781 0.930 . S
C773 Eu743 2.825 . S
C773 O758 1.238 . S
C773 O759 1.247 1_655 S
C773 C767 1.507 . S
H774 C747 0.930 . S
H775 C748 0.931 . S
H776 C749 0.930 . S
H777 C750 0.930 . S
H778 C769 0.930 . S
H779 C770 0.931 . S
H780 C771 0.930 . S
H781 C772 0.930 . S
Tb782 C792 2.825 . S
Tb782 O793 2.347 . S
Tb782 O796 2.366 . S
Tb782 O801 2.418 . S
Tb782 O802 2.409 . S
Tb782 O805 2.479 . S
Tb782 O806 2.471 . S
Eu783 O794 2.418 . S
Eu783 O795 2.384 1_556 S
Eu783 O798 2.479 . S
Eu783 O799 2.471 . S
Eu783 O800 2.347 . S
Eu783 O803 2.366 . S
Eu783 C813 2.825 . S
C784 O800 1.259 . S
C784 O801 1.265 1_556 S
C785 O802 1.226 1_556 S
C785 O803 1.265 . S
C786 C788 1.380 . S
C786 C789 1.374 . S
C786 C792 1.507 . S
C787 C788 1.384 . S
C787 C791 1.387 . S
C787 H814 0.930 . S
C788 C786 1.380 . S
C788 C787 1.384 . S
C788 H815 0.931 . S
C789 C786 1.374 . S
C789 C790 1.390 . S
C789 H816 0.930 . S
C790 C789 1.390 . S
C790 C791 1.391 . S
C790 H817 0.930 . S
C791 C787 1.387 . S
C791 C790 1.391 . S
C792 Tb782 2.825 . S
C792 C786 1.507 . S
C792 O805 1.238 . S
C792 O806 1.247 . S
O793 Tb782 2.347 . S
O793 C797 1.259 . S
O794 Eu783 2.418 . S
O794 C797 1.265 1_556 S
O795 Eu783 2.384 1_554 S
O795 C804 1.255 . S
O796 Tb782 2.366 . S
O796 C804 1.265 . S
C797 O793 1.259 . S
C797 O794 1.265 1_554 S
O798 Eu783 2.479 . S
O798 C813 1.238 . S
O799 Eu783 2.471 . S
O799 C813 1.247 . S
O800 Eu783 2.347 . S
O800 C784 1.259 . S
O801 Tb782 2.418 . S
O801 C784 1.265 1_554 S
O802 Tb782 2.409 . S
O802 C785 1.226 1_554 S
O803 Eu783 2.366 . S
O803 C785 1.265 . S
C804 O795 1.255 . S
C804 O796 1.265 . S
O805 Tb782 2.479 . S
O805 C792 1.238 . S
O806 Tb782 2.471 . S
O806 C792 1.247 . S
C807 C810 1.380 . S
C807 C811 1.374 . S
C807 C813 1.507 . S
C808 C809 1.387 . S
C808 C812 1.391 . S
C809 C808 1.387 . S
C809 C810 1.384 . S
C809 H818 0.930 . S
C810 C807 1.380 . S
C810 C809 1.384 . S
C810 H819 0.931 . S
C811 C807 1.374 . S
C811 C812 1.390 . S
C811 H820 0.930 . S
C812 C808 1.391 . S
C812 C811 1.390 . S
C812 H821 0.930 . S
C813 Eu783 2.825 . S
C813 O798 1.238 . S
C813 O799 1.247 . S
C813 C807 1.507 . S
H814 C787 0.930 . S
H815 C788 0.931 . S
H816 C789 0.930 . S
H817 C790 0.930 . S
H818 C809 0.930 . S
H819 C810 0.931 . S
H820 C811 0.930 . S
H821 C812 0.930 . S
Tb822 C832 2.825 . S
Tb822 O833 2.347 . S
Tb822 O836 2.366 . S
Tb822 O841 2.418 . S
Tb822 O842 2.384 . S
Tb822 O845 2.479 . S
Tb822 O846 2.471 . S
Eu823 O834 2.418 . S
Eu823 O835 2.384 . S
Eu823 O838 2.479 . S
Eu823 O839 2.471 . S
Eu823 O840 2.347 . S
Eu823 O843 2.366 . S
Eu823 C853 2.825 . S
C824 O840 1.259 . S
C824 O841 1.265 . S
C825 O842 1.255 . S
C825 O843 1.265 . S
C826 C828 1.380 . S
C826 C829 1.374 . S
C826 C832 1.507 . S
C827 C828 1.384 . S
C827 C831 1.387 . S
C827 H854 0.930 . S
C828 C826 1.380 . S
C828 C827 1.384 . S
C828 H855 0.931 . S
C829 C826 1.374 . S
C829 C830 1.390 . S
C829 H856 0.930 . S
C830 C829 1.390 . S
C830 C831 1.391 . S
C830 H857 0.930 . S
C831 C827 1.387 . S
C831 C830 1.391 . S
C832 Tb822 2.825 . S
C832 C826 1.507 . S
C832 O845 1.238 . S
C832 O846 1.247 . S
O833 Tb822 2.347 . S
O833 C837 1.259 . S
O834 Eu823 2.418 . S
O834 C837 1.265 . S
O835 Eu823 2.384 . S
O835 C844 1.255 . S
O836 Tb822 2.366 . S
O836 C844 1.265 . S
C837 O833 1.259 . S
C837 O834 1.265 . S
O838 Eu823 2.479 . S
O838 C853 1.238 . S
O839 Eu823 2.471 . S
O839 C853 1.247 . S
O840 Eu823 2.347 . S
O840 C824 1.259 . S
O841 Tb822 2.418 . S
O841 C824 1.265 . S
O842 Tb822 2.384 . S
O842 C825 1.255 . S
O843 Eu823 2.366 . S
O843 C825 1.265 . S
C844 O835 1.255 . S
C844 O836 1.265 . S
O845 Tb822 2.479 . S
O845 C832 1.238 . S
O846 Tb822 2.471 . S
O846 C832 1.247 . S
C847 C850 1.380 . S
C847 C851 1.374 . S
C847 C853 1.507 . S
C848 C849 1.387 . S
C848 C852 1.391 . S
C849 C848 1.387 . S
C849 C850 1.384 . S
C849 H858 0.930 . S
C850 C847 1.380 . S
C850 C849 1.384 . S
C850 H859 0.931 . S
C851 C847 1.374 . S
C851 C852 1.390 . S
C851 H860 0.930 . S
C852 C848 1.391 . S
C852 C851 1.390 . S
C852 H861 0.930 . S
C853 Eu823 2.825 . S
C853 O838 1.238 . S
C853 O839 1.247 . S
C853 C847 1.507 . S
H854 C827 0.930 . S
H855 C828 0.931 . S
H856 C829 0.930 . S
H857 C830 0.930 . S
H858 C849 0.930 . S
H859 C850 0.931 . S
H860 C851 0.930 . S
H861 C852 0.930 . S
Tb862 C872 2.825 . S
Tb862 O873 2.347 . S
Tb862 O876 2.366 . S
Tb862 O881 2.418 . S
Tb862 O882 2.384 . S
Tb862 O885 2.479 . S
Tb862 O886 2.471 . S
Eu863 O874 2.418 . S
Eu863 O875 2.384 . S
Eu863 O878 2.479 . S
Eu863 O879 2.471 . S
Eu863 O880 2.347 . S
Eu863 O883 2.366 . S
Eu863 C893 2.825 . S
C864 O880 1.259 . S
C864 O881 1.265 . S
C865 O882 1.255 . S
C865 O883 1.265 . S
C866 C868 1.380 . S
C866 C869 1.374 . S
C866 C872 1.507 . S
C867 C868 1.384 . S
C867 C871 1.387 . S
C867 H894 0.930 . S
C868 C866 1.380 . S
C868 C867 1.384 . S
C868 H895 0.931 . S
C869 C866 1.374 . S
C869 C870 1.390 . S
C869 H896 0.930 . S
C870 C869 1.390 . S
C870 C871 1.391 . S
C870 H897 0.930 . S
C871 C867 1.387 . S
C871 C870 1.391 . S
C872 Tb862 2.825 . S
C872 C866 1.507 . S
C872 O885 1.238 . S
C872 O886 1.247 . S
O873 Tb862 2.347 . S
O873 C877 1.259 . S
O874 Eu863 2.418 . S
O874 C877 1.265 . S
O875 Eu863 2.384 . S
O875 C884 1.255 . S
O876 Tb862 2.366 . S
O876 C884 1.265 . S
C877 O873 1.259 . S
C877 O874 1.265 . S
O878 Eu863 2.479 . S
O878 C893 1.238 . S
O879 Eu863 2.471 . S
O879 C893 1.247 . S
O880 Eu863 2.347 . S
O880 C864 1.259 . S
O881 Tb862 2.418 . S
O881 C864 1.265 . S
O882 Tb862 2.384 . S
O882 C865 1.255 . S
O883 Eu863 2.366 . S
O883 C865 1.265 . S
C884 O875 1.255 . S
C884 O876 1.265 . S
O885 Tb862 2.479 . S
O885 C872 1.238 . S
O886 Tb862 2.471 . S
O886 C872 1.247 . S
C887 C890 1.380 . S
C887 C891 1.374 . S
C887 C893 1.507 . S
C888 C889 1.387 . S
C888 C892 1.391 . S
C889 C888 1.387 . S
C889 C890 1.384 . S
C889 H898 0.930 . S
C890 C887 1.380 . S
C890 C889 1.384 . S
C890 H899 0.931 . S
C891 C887 1.374 . S
C891 C892 1.390 . S
C891 H900 0.930 . S
C892 C888 1.391 . S
C892 C891 1.390 . S
C892 H901 0.930 . S
C893 Eu863 2.825 . S
C893 O878 1.238 . S
C893 O879 1.247 . S
C893 C887 1.507 . S
H894 C867 0.930 . S
H895 C868 0.931 . S
H896 C869 0.930 . S
H897 C870 0.930 . S
H898 C889 0.930 . S
H899 C890 0.931 . S
H900 C891 0.930 . S
H901 C892 0.930 . S
Tb902 C912 2.825 . S
Tb902 O913 2.347 . S
Tb902 O916 2.366 . S
Tb902 O921 2.418 . S
Tb902 O922 2.384 . S
Tb902 O925 2.479 . S
Tb902 O926 2.471 . S
Eu903 O914 2.418 . S
Eu903 O915 2.384 . S
Eu903 O918 2.479 . S
Eu903 O919 2.471 . S
Eu903 O920 2.347 . S
Eu903 O923 2.366 . S
Eu903 C933 2.825 . S
C904 O920 1.259 . S
C904 O921 1.265 . S
C905 O922 1.255 . S
C905 O923 1.265 . S
C906 C908 1.380 . S
C906 C909 1.374 . S
C906 C912 1.507 . S
C907 C908 1.384 . S
C907 C911 1.387 . S
C907 H934 0.930 . S
C908 C906 1.380 . S
C908 C907 1.384 . S
C908 H935 0.931 . S
C909 C906 1.374 . S
C909 C910 1.390 . S
C909 H936 0.930 . S
C910 C909 1.390 . S
C910 C911 1.391 . S
C910 H937 0.930 . S
C911 C907 1.387 . S
C911 C910 1.391 . S
C912 Tb902 2.825 . S
C912 C906 1.507 . S
C912 O925 1.238 . S
C912 O926 1.247 . S
O913 Tb902 2.347 . S
O913 C917 1.259 . S
O914 Eu903 2.418 . S
O914 C917 1.265 . S
O915 Eu903 2.384 . S
O915 C924 1.255 . S
O916 Tb902 2.366 . S
O916 C924 1.265 . S
C917 O913 1.259 . S
C917 O914 1.265 . S
O918 Eu903 2.479 . S
O918 C933 1.238 . S
O919 Eu903 2.471 . S
O919 C933 1.247 . S
O920 Eu903 2.347 . S
O920 C904 1.259 . S
O921 Tb902 2.418 . S
O921 C904 1.265 . S
O922 Tb902 2.384 . S
O922 C905 1.255 . S
O923 Eu903 2.366 . S
O923 C905 1.265 . S
C924 O915 1.255 . S
C924 O916 1.265 . S
O925 Tb902 2.479 . S
O925 C912 1.238 . S
O926 Tb902 2.471 . S
O926 C912 1.247 . S
C927 C930 1.380 . S
C927 C931 1.374 . S
C927 C933 1.507 . S
C928 C929 1.387 . S
C928 C932 1.391 . S
C929 C928 1.387 . S
C929 C930 1.384 . S
C929 H938 0.930 . S
C930 C927 1.380 . S
C930 C929 1.384 . S
C930 H939 0.931 . S
C931 C927 1.374 . S
C931 C932 1.390 . S
C931 H940 0.930 . S
C932 C928 1.391 . S
C932 C931 1.390 . S
C932 H941 0.930 . S
C933 Eu903 2.825 . S
C933 O918 1.238 . S
C933 O919 1.247 . S
C933 C927 1.507 . S
H934 C907 0.930 . S
H935 C908 0.931 . S
H936 C909 0.930 . S
H937 C910 0.930 . S
H938 C929 0.930 . S
H939 C930 0.931 . S
H940 C931 0.930 . S
H941 C932 0.930 . S
Tb942 C952 2.825 . S
Tb942 O953 2.347 . S
Tb942 O956 2.366 . S
Tb942 O961 2.418 . S
Tb942 O962 2.384 . S
Tb942 O965 2.479 . S
Tb942 O966 2.471 . S
Eu943 O954 2.418 . S
Eu943 O955 2.384 . S
Eu943 O958 2.479 . S
Eu943 O959 2.471 . S
Eu943 O960 2.347 . S
Eu943 O963 2.366 . S
Eu943 C973 2.825 . S
C944 O960 1.259 . S
C944 O961 1.265 . S
C945 O962 1.255 . S
C945 O963 1.265 . S
C946 C948 1.380 . S
C946 C949 1.374 . S
C946 C952 1.507 . S
C947 C948 1.384 . S
C947 C951 1.387 . S
C947 H974 0.930 . S
C948 C946 1.380 . S
C948 C947 1.384 . S
C948 H975 0.931 . S
C949 C946 1.374 . S
C949 C950 1.390 . S
C949 H976 0.930 . S
C950 C949 1.390 . S
C950 C951 1.391 . S
C950 H977 0.930 . S
C951 C947 1.387 . S
C951 C950 1.391 . S
C952 Tb942 2.825 . S
C952 C946 1.507 . S
C952 O965 1.238 . S
C952 O966 1.247 . S
O953 Tb942 2.347 . S
O953 C957 1.259 . S
O954 Eu943 2.418 . S
O954 C957 1.265 . S
O955 Eu943 2.384 . S
O955 C964 1.255 . S
O956 Tb942 2.366 . S
O956 C964 1.265 . S
C957 O953 1.259 . S
C957 O954 1.265 . S
O958 Eu943 2.479 . S
O958 C973 1.238 . S
O959 Eu943 2.471 . S
O959 C973 1.247 . S
O960 Eu943 2.347 . S
O960 C944 1.259 . S
O961 Tb942 2.418 . S
O961 C944 1.265 . S
O962 Tb942 2.384 . S
O962 C945 1.255 . S
O963 Eu943 2.366 . S
O963 C945 1.265 . S
C964 O955 1.255 . S
C964 O956 1.265 . S
O965 Tb942 2.479 . S
O965 C952 1.238 . S
O966 Tb942 2.471 . S
O966 C952 1.247 . S
C967 C970 1.380 . S
C967 C971 1.374 . S
C967 C973 1.507 . S
C968 C969 1.387 . S
C968 C972 1.391 . S
C969 C968 1.387 . S
C969 C970 1.384 . S
C969 H978 0.930 . S
C970 C967 1.380 . S
C970 C969 1.384 . S
C970 H979 0.931 . S
C971 C967 1.374 . S
C971 C972 1.390 . S
C971 H980 0.930 . S
C972 C968 1.391 . S
C972 C971 1.390 . S
C972 H981 0.930 . S
C973 Eu943 2.825 . S
C973 O958 1.238 . S
C973 O959 1.247 . S
C973 C967 1.507 . S
H974 C947 0.930 . S
H975 C948 0.931 . S
H976 C949 0.930 . S
H977 C950 0.930 . S
H978 C969 0.930 . S
H979 C970 0.931 . S
H980 C971 0.930 . S
H981 C972 0.930 . S
Tb982 C992 2.825 . S
Tb982 O993 2.347 . S
Tb982 O996 2.366 . S
Tb982 O1001 2.418 . S
Tb982 O1002 2.384 . S
Tb982 O1005 2.479 . S
Tb982 O1006 2.471 . S
Eu983 O994 2.418 . S
Eu983 O995 2.384 . S
Eu983 O998 2.479 . S
Eu983 O999 2.471 . S
Eu983 O1000 2.347 . S
Eu983 O1003 2.366 . S
Eu983 C1013 2.825 . S
C984 O1000 1.259 . S
C984 O1001 1.265 . S
C985 O1002 1.255 . S
C985 O1003 1.265 . S
C986 C988 1.380 . S
C986 C989 1.374 . S
C986 C992 1.507 . S
C987 C988 1.384 . S
C987 C991 1.387 . S
C987 H1014 0.930 . S
C988 C986 1.380 . S
C988 C987 1.384 . S
C988 H1015 0.931 . S
C989 C986 1.374 . S
C989 C990 1.390 . S
C989 H1016 0.930 . S
C990 C989 1.390 . S
C990 C991 1.391 . S
C990 H1017 0.930 . S
C991 C987 1.387 . S
C991 C990 1.391 . S
C992 Tb982 2.825 . S
C992 C986 1.507 . S
C992 O1005 1.238 . S
C992 O1006 1.247 . S
O993 Tb982 2.347 . S
O993 C997 1.259 . S
O994 Eu983 2.418 . S
O994 C997 1.265 . S
O995 Eu983 2.384 . S
O995 C1004 1.255 . S
O996 Tb982 2.366 . S
O996 C1004 1.265 . S
C997 O993 1.259 . S
C997 O994 1.265 . S
O998 Eu983 2.479 . S
O998 C1013 1.238 . S
O999 Eu983 2.471 . S
O999 C1013 1.247 . S
O1000 Eu983 2.347 . S
O1000 C984 1.259 . S
O1001 Tb982 2.418 . S
O1001 C984 1.265 . S
O1002 Tb982 2.384 . S
O1002 C985 1.255 . S
O1003 Eu983 2.366 . S
O1003 C985 1.265 . S
C1004 O995 1.255 . S
C1004 O996 1.265 . S
O1005 Tb982 2.479 . S
O1005 C992 1.238 . S
O1006 Tb982 2.471 . S
O1006 C992 1.247 . S
C1007 C1010 1.380 . S
C1007 C1011 1.374 . S
C1007 C1013 1.507 . S
C1008 C1009 1.387 . S
C1008 C1012 1.391 . S
C1009 C1008 1.387 . S
C1009 C1010 1.384 . S
C1009 H1018 0.930 . S
C1010 C1007 1.380 . S
C1010 C1009 1.384 . S
C1010 H1019 0.931 . S
C1011 C1007 1.374 . S
C1011 C1012 1.390 . S
C1011 H1020 0.930 . S
C1012 C1008 1.391 . S
C1012 C1011 1.390 . S
C1012 H1021 0.930 . S
C1013 Eu983 2.825 . S
C1013 O998 1.238 . S
C1013 O999 1.247 . S
C1013 C1007 1.507 . S
H1014 C987 0.930 . S
H1015 C988 0.931 . S
H1016 C989 0.930 . S
H1017 C990 0.930 . S
H1018 C1009 0.930 . S
H1019 C1010 0.931 . S
H1020 C1011 0.930 . S
H1021 C1012 0.930 . S
Tb1022 C1032 2.825 . S
Tb1022 O1033 2.347 . S
Tb1022 O1036 2.366 . S
Tb1022 O1041 2.418 . S
Tb1022 O1042 2.384 . S
Tb1022 O1045 2.479 . S
Tb1022 O1046 2.471 . S
Eu1023 O1034 2.418 . S
Eu1023 O1035 2.384 . S
Eu1023 O1038 2.479 . S
Eu1023 O1039 2.471 . S
Eu1023 O1040 2.347 . S
Eu1023 O1043 2.366 . S
Eu1023 C1053 2.825 . S
C1024 O1040 1.259 . S
C1024 O1041 1.265 . S
C1025 O1042 1.255 . S
C1025 O1043 1.265 . S
C1026 C1028 1.380 . S
C1026 C1029 1.374 . S
C1026 C1032 1.507 . S
C1027 C1028 1.384 . S
C1027 C1031 1.387 . S
C1027 H1054 0.930 . S
C1028 C1026 1.380 . S
C1028 C1027 1.384 . S
C1028 H1055 0.931 . S
C1029 C1026 1.374 . S
C1029 C1030 1.390 . S
C1029 H1056 0.930 . S
C1030 C1029 1.390 . S
C1030 C1031 1.391 . S
C1030 H1057 0.930 . S
C1031 C1027 1.387 . S
C1031 C1030 1.391 . S
C1032 Tb1022 2.825 . S
C1032 C1026 1.507 . S
C1032 O1045 1.238 . S
C1032 O1046 1.247 . S
O1033 Tb1022 2.347 . S
O1033 C1037 1.259 . S
O1034 Eu1023 2.418 . S
O1034 C1037 1.265 . S
O1035 Eu1023 2.384 . S
O1035 C1044 1.255 . S
O1036 Tb1022 2.366 . S
O1036 C1044 1.265 . S
C1037 O1033 1.259 . S
C1037 O1034 1.265 . S
O1038 Eu1023 2.479 . S
O1038 C1053 1.238 . S
O1039 Eu1023 2.471 . S
O1039 C1053 1.247 . S
O1040 Eu1023 2.347 . S
O1040 C1024 1.259 . S
O1041 Tb1022 2.418 . S
O1041 C1024 1.265 . S
O1042 Tb1022 2.384 . S
O1042 C1025 1.255 . S
O1043 Eu1023 2.366 . S
O1043 C1025 1.265 . S
C1044 O1035 1.255 . S
C1044 O1036 1.265 . S
O1045 Tb1022 2.479 . S
O1045 C1032 1.238 . S
O1046 Tb1022 2.471 . S
O1046 C1032 1.247 . S
C1047 C1050 1.380 . S
C1047 C1051 1.374 . S
C1047 C1053 1.507 . S
C1048 C1049 1.387 . S
C1048 C1052 1.391 . S
C1049 C1048 1.387 . S
C1049 C1050 1.384 . S
C1049 H1058 0.930 . S
C1050 C1047 1.380 . S
C1050 C1049 1.384 . S
C1050 H1059 0.931 . S
C1051 C1047 1.374 . S
C1051 C1052 1.390 . S
C1051 H1060 0.930 . S
C1052 C1048 1.391 . S
C1052 C1051 1.390 . S
C1052 H1061 0.930 . S
C1053 Eu1023 2.825 . S
C1053 O1038 1.238 . S
C1053 O1039 1.247 . S
C1053 C1047 1.507 . S
H1054 C1027 0.930 . S
H1055 C1028 0.931 . S
H1056 C1029 0.930 . S
H1057 C1030 0.930 . S
H1058 C1049 0.930 . S
H1059 C1050 0.931 . S
H1060 C1051 0.930 . S
H1061 C1052 0.930 . S
C1062 C1063 1.387 . S
C1062 H1066 0.950 . S
C1062 C1071 1.390 . S
C1063 C1062 1.387 . S
C1063 C1065 1.387 . S
H1064 C1071 0.950 1_556 S
C1065 C1063 1.387 . S
C1065 C1067 1.390 . S
C1065 H1069 0.950 . S
H1066 C1062 0.950 . S
C1067 C1065 1.390 . S
C1067 C1068 1.387 . S
C1067 H1070 0.950 . S
C1068 C1067 1.387 . S
C1068 C1071 1.387 . S
H1069 C1065 0.950 . S
H1070 C1067 0.950 . S
C1071 C1062 1.390 . S
C1071 H1064 0.950 1_554 S
C1071 C1068 1.387 . S
C1072 C1073 1.387 . S
C1072 H1076 0.950 . S
C1072 C1081 1.390 . S
C1073 C1072 1.387 . S
C1073 C1075 1.387 . S
H1074 C1081 0.950 . S
C1075 C1073 1.387 . S
C1075 C1077 1.390 . S
C1075 H1079 0.950 . S
H1076 C1072 0.950 . S
C1077 C1075 1.390 . S
C1077 C1078 1.387 . S
C1077 H1080 0.950 . S
C1078 C1077 1.387 . S
C1078 C1081 1.387 . S
H1079 C1075 0.950 . S
H1080 C1077 0.950 . S
C1081 C1072 1.390 . S
C1081 H1074 0.950 . S
C1081 C1078 1.387 . S
C1082 C1083 1.387 . S
C1082 H1086 0.950 . S
C1082 C1091 1.390 . S
C1083 C1082 1.387 . S
C1083 C1085 1.342 1_554 S
H1084 C1091 0.950 . S
C1085 C1083 1.342 1_556 S
C1085 C1087 1.388 . S
C1085 H1089 0.999 . S
H1086 C1082 0.950 . S
C1087 C1085 1.388 . S
C1087 C1088 1.387 1_556 S
C1087 H1090 0.950 . S
C1088 C1087 1.387 1_554 S
C1088 C1091 1.387 . S
H1089 C1085 0.999 . S
H1090 C1087 0.950 . S
C1091 C1082 1.390 . S
C1091 H1084 0.950 . S
C1091 C1088 1.387 . S
C1092 C1093 1.387 . S
C1092 H1096 0.950 . S
C1092 C1101 1.390 . S
C1093 C1092 1.387 . S
C1093 C1095 1.387 . S
H1094 C1101 0.950 . S
C1095 C1093 1.387 . S
C1095 C1097 1.390 1_556 S
C1095 H1099 0.950 1_556 S
H1096 C1092 0.950 . S
C1097 C1095 1.390 1_554 S
C1097 C1098 1.367 1_554 S
C1097 H1100 0.971 . S
C1098 C1097 1.367 1_556 S
C1098 C1101 1.387 . S
H1099 C1095 0.950 1_554 S
H1100 C1097 0.971 . S
C1101 C1092 1.390 . S
C1101 H1094 0.950 . S
C1101 C1098 1.387 . S
C1102 C1103 1.387 . S
C1102 H1106 0.950 . S
C1102 C1111 1.390 . S
C1103 C1102 1.387 . S
C1103 C1105 1.387 . S
H1104 C1111 0.950 . S
C1105 C1103 1.387 . S
C1105 C1107 1.390 . S
C1105 H1109 0.950 . S
H1106 C1102 0.950 . S
C1107 C1105 1.390 . S
C1107 C1108 1.387 . S
C1107 H1110 0.950 . S
C1108 C1107 1.387 . S
C1108 C1111 1.387 . S
H1109 C1105 0.950 . S
H1110 C1107 0.950 . S
C1111 C1102 1.390 . S
C1111 H1104 0.950 . S
C1111 C1108 1.387 . S
C1112 C1113 1.387 . S
C1112 H1116 0.950 . S
C1112 C1121 1.390 . S
C1113 C1112 1.387 . S
C1113 C1115 1.387 . S
H1114 C1121 0.950 . S
C1115 C1113 1.387 . S
C1115 C1117 1.390 . S
C1115 H1119 0.950 . S
H1116 C1112 0.950 . S
C1117 C1115 1.390 . S
C1117 C1118 1.387 . S
C1117 H1120 0.950 . S
C1118 C1117 1.387 . S
C1118 C1121 1.387 . S
H1119 C1115 0.950 . S
H1120 C1117 0.950 . S
C1121 C1112 1.390 . S
C1121 H1114 0.950 . S
C1121 C1118 1.387 . S
C1122 C1123 1.387 . S
C1122 H1126 0.950 . S
C1122 C1131 1.390 . S
C1123 C1122 1.387 . S
C1123 C1125 1.387 . S
H1124 C1131 0.950 1_554 S
C1125 C1123 1.387 . S
C1125 C1127 1.390 . S
C1125 H1129 0.950 . S
H1126 C1122 0.950 . S
C1127 C1125 1.390 . S
C1127 C1128 1.387 . S
C1127 H1130 0.950 . S
C1128 C1127 1.387 . S
C1128 C1131 1.387 . S
H1129 C1125 0.950 . S
H1130 C1127 0.950 . S
C1131 C1122 1.390 . S
C1131 H1124 0.950 1_556 S
C1131 C1128 1.387 . S
C1132 C1133 1.387 . S
C1132 H1136 0.950 . S
C1132 C1141 1.390 . S
C1133 C1132 1.387 . S
C1133 C1135 1.387 . S
H1134 C1141 0.950 . S
C1135 C1133 1.387 . S
C1135 C1137 1.390 . S
C1135 H1139 0.950 . S
H1136 C1132 0.950 . S
C1137 C1135 1.390 . S
C1137 C1138 1.387 . S
C1137 H1140 0.950 . S
C1138 C1137 1.387 . S
C1138 C1141 1.387 . S
H1139 C1135 0.950 . S
H1140 C1137 0.950 . S
C1141 C1132 1.390 . S
C1141 H1134 0.950 . S
C1141 C1138 1.387 . S
C1142 C1143 1.387 . S
C1142 H1146 0.950 . S
C1142 C1151 1.390 . S
C1143 C1142 1.387 . S
C1143 C1145 1.387 1_556 S
H1144 C1151 0.950 . S
C1145 C1143 1.387 1_554 S
C1145 C1147 1.390 . S
C1145 H1149 0.950 . S
H1146 C1142 0.950 . S
C1147 C1145 1.390 . S
C1147 C1148 1.387 1_554 S
C1147 H1150 0.950 . S
C1148 C1147 1.387 1_556 S
C1148 C1151 1.387 . S
H1149 C1145 0.950 . S
H1150 C1147 0.950 . S
C1151 C1142 1.390 . S
C1151 H1144 0.950 . S
C1151 C1148 1.387 . S
C1152 C1153 1.387 . S
C1152 H1156 0.950 1_554 S
C1152 C1161 1.390 . S
C1153 C1152 1.387 . S
C1153 C1155 1.387 . S
H1154 C1161 0.950 1_556 S
C1155 C1153 1.387 . S
C1155 C1157 1.390 . S
C1155 H1159 0.950 . S
H1156 C1152 0.950 1_556 S
C1157 C1155 1.390 . S
C1157 C1158 1.387 . S
C1157 H1160 0.950 . S
C1158 C1157 1.387 . S
C1158 C1161 1.387 . S
H1159 C1155 0.950 . S
H1160 C1157 0.950 . S
C1161 C1152 1.390 . S
C1161 H1154 0.950 1_554 S
C1161 C1158 1.387 . S
C1162 C1163 1.387 . S
C1162 H1166 0.950 . S
C1162 C1171 1.390 . S
C1163 C1162 1.387 . S
C1163 C1165 1.387 . S
H1164 C1171 0.950 . S
C1165 C1163 1.387 . S
C1165 C1167 1.390 . S
C1165 H1169 0.950 . S
H1166 C1162 0.950 . S
C1167 C1165 1.390 . S
C1167 C1168 1.387 . S
C1167 H1170 0.950 . S
C1168 C1167 1.387 . S
C1168 C1171 1.387 . S
H1169 C1165 0.950 . S
H1170 C1167 0.950 . S
C1171 C1162 1.390 . S
C1171 H1164 0.950 . S
C1171 C1168 1.387 . S
C1172 C1173 1.387 . S
C1172 H1176 0.950 . S
C1172 C1181 1.390 . S
C1173 C1172 1.387 . S
C1173 C1175 1.387 . S
H1174 C1181 0.950 . S
C1175 C1173 1.387 . S
C1175 C1177 1.390 1_554 S
C1175 H1179 0.950 1_554 S
H1176 C1172 0.950 . S
C1177 C1175 1.390 1_556 S
C1177 C1178 1.387 1_556 S
C1177 H1180 0.950 . S
C1178 C1177 1.387 1_554 S
C1178 C1181 1.387 . S
H1179 C1175 0.950 1_556 S
H1180 C1177 0.950 . S
C1181 C1172 1.390 . S
C1181 H1174 0.950 . S
C1181 C1178 1.387 . S
C1182 C1183 1.387 . S
C1182 H1186 0.950 1_455 S
C1182 C1191 1.390 . S
C1183 C1182 1.387 . S
C1183 C1185 1.387 . S
H1184 C1191 0.950 . S
C1185 C1183 1.387 . S
C1185 C1187 1.390 . S
C1185 H1189 0.950 . S
H1186 C1182 0.950 1_655 S
C1187 C1185 1.390 . S
C1187 C1188 1.387 . S
C1187 H1190 0.950 . S
C1188 C1187 1.387 . S
C1188 C1191 1.387 . S
H1189 C1185 0.950 . S
H1190 C1187 0.950 . S
C1191 C1182 1.390 . S
C1191 H1184 0.950 . S
C1191 C1188 1.387 . S
C1192 C1193 1.387 . S
C1192 H1196 0.950 . S
C1192 C1201 1.390 . S
C1193 C1192 1.387 . S
C1193 C1195 1.387 . S
H1194 C1201 0.950 . S
C1195 C1193 1.387 . S
C1195 C1197 1.390 . S
C1195 H1199 0.950 . S
H1196 C1192 0.950 . S
C1197 C1195 1.390 . S
C1197 C1198 1.387 . S
C1197 H1200 0.950 . S
C1198 C1197 1.387 . S
C1198 C1201 1.387 . S
H1199 C1195 0.950 . S
H1200 C1197 0.950 . S
C1201 C1192 1.390 . S
C1201 H1194 0.950 . S
C1201 C1198 1.387 . S
C1202 C1203 1.387 1_565 S
C1202 H1206 0.950 . S
C1202 C1211 1.390 . S
C1203 C1202 1.387 1_545 S
C1203 C1205 1.387 1_545 S
H1204 C1211 0.950 . S
C1205 C1203 1.387 1_565 S
C1205 C1207 1.390 . S
C1205 H1209 0.950 1_565 S
H1206 C1202 0.950 . S
C1207 C1205 1.390 . S
C1207 C1208 1.387 . S
C1207 H1210 0.950 . S
C1208 C1207 1.387 . S
C1208 C1211 1.387 . S
H1209 C1205 0.950 1_545 S
H1210 C1207 0.950 . S
C1211 C1202 1.390 . S
C1211 H1204 0.950 . S
C1211 C1208 1.387 . S
C1212 C1213 1.387 . S
C1212 H1216 0.950 . S
C1212 C1221 1.390 . S
C1213 C1212 1.387 . S
C1213 C1215 1.387 . S
H1214 C1221 0.950 . S
C1215 C1213 1.387 . S
C1215 C1217 1.390 . S
C1215 H1219 0.950 . S
H1216 C1212 0.950 . S
C1217 C1215 1.390 . S
C1217 C1218 1.387 . S
C1217 H1220 0.950 . S
C1218 C1217 1.387 . S
C1218 C1221 1.387 . S
H1219 C1215 0.950 . S
H1220 C1217 0.950 . S
C1221 C1212 1.390 . S
C1221 H1214 0.950 . S
C1221 C1218 1.387 . S
C1222 C1223 1.387 . S
C1222 H1226 0.950 . S
C1222 C1231 1.390 . S
C1223 C1222 1.387 . S
C1223 C1225 1.387 . S
H1224 C1231 0.950 . S
C1225 C1223 1.387 . S
C1225 C1227 1.390 . S
C1225 H1229 0.950 . S
H1226 C1222 0.950 . S
C1227 C1225 1.390 . S
C1227 C1228 1.387 . S
C1227 H1230 0.950 . S
C1228 C1227 1.387 . S
C1228 C1231 1.387 . S
H1229 C1225 0.950 . S
H1230 C1227 0.950 . S
C1231 C1222 1.390 . S
C1231 H1224 0.950 . S
C1231 C1228 1.387 . S
C1232 C1233 1.387 . S
C1232 H1236 0.950 . S
C1232 C1241 1.390 . S
C1233 C1232 1.387 . S
C1233 C1235 1.387 . S
H1234 C1241 0.950 . S
C1235 C1233 1.387 . S
C1235 C1237 1.390 . S
C1235 H1239 0.950 . S
H1236 C1232 0.950 . S
C1237 C1235 1.390 . S
C1237 C1238 1.387 . S
C1237 H1240 0.950 . S
C1238 C1237 1.387 . S
C1238 C1241 1.387 . S
H1239 C1235 0.950 . S
H1240 C1237 0.950 . S
C1241 C1232 1.390 . S
C1241 H1234 0.950 . S
C1241 C1238 1.387 . S
C1242 C1243 1.387 . S
C1242 H1246 0.950 . S
C1242 C1251 1.390 . S
C1243 C1242 1.387 . S
C1243 C1245 1.387 . S
H1244 C1251 0.950 . S
C1245 C1243 1.387 . S
C1245 C1247 1.390 . S
C1245 H1249 0.950 . S
H1246 C1242 0.950 . S
C1247 C1245 1.390 . S
C1247 C1248 1.387 . S
C1247 H1250 0.950 . S
C1248 C1247 1.387 . S
C1248 C1251 1.387 . S
H1249 C1245 0.950 . S
H1250 C1247 0.950 . S
C1251 C1242 1.390 . S
C1251 H1244 0.950 . S
C1251 C1248 1.387 . S
C1252 C1253 1.387 . S
C1252 H1256 0.950 . S
C1252 C1261 1.390 . S
C1253 C1252 1.387 . S
C1253 C1255 1.387 . S
H1254 C1261 0.950 . S
C1255 C1253 1.387 . S
C1255 C1257 1.390 . S
C1255 H1259 0.950 . S
H1256 C1252 0.950 . S
C1257 C1255 1.390 . S
C1257 C1258 1.387 . S
C1257 H1260 0.950 . S
C1258 C1257 1.387 . S
C1258 C1261 1.387 . S
H1259 C1255 0.950 . S
H1260 C1257 0.950 . S
C1261 C1252 1.390 . S
C1261 H1254 0.950 . S
C1261 C1258 1.387 . S
C1262 C1263 1.387 . S
C1262 H1266 0.950 . S
C1262 C1271 1.390 . S
C1263 C1262 1.387 . S
C1263 C1265 1.387 . S
H1264 C1271 0.950 . S
C1265 C1263 1.387 . S
C1265 C1267 1.390 . S
C1265 H1269 0.950 . S
H1266 C1262 0.950 . S
C1267 C1265 1.390 . S
C1267 C1268 1.387 . S
C1267 H1270 0.950 . S
C1268 C1267 1.387 . S
C1268 C1271 1.387 . S
H1269 C1265 0.950 . S
H1270 C1267 0.950 . S
C1271 C1262 1.390 . S
C1271 H1264 0.950 . S
C1271 C1268 1.387 . S
C1272 C1273 1.387 . S
C1272 H1276 0.950 . S
C1272 C1281 1.390 . S
C1273 C1272 1.387 . S
C1273 C1275 1.387 . S
H1274 C1281 0.950 . S
C1275 C1273 1.387 . S
C1275 C1277 1.390 . S
C1275 H1279 0.950 . S
H1276 C1272 0.950 . S
C1277 C1275 1.390 . S
C1277 C1278 1.387 . S
C1277 H1280 0.950 . S
C1278 C1277 1.387 . S
C1278 C1281 1.387 . S
H1279 C1275 0.950 . S
H1280 C1277 0.950 . S
C1281 C1272 1.390 . S
C1281 H1274 0.950 . S
C1281 C1278 1.387 . S
C1282 C1283 1.387 . S
C1282 H1286 0.950 . S
C1282 C1291 1.390 . S
C1283 C1282 1.387 . S
C1283 C1285 1.387 . S
H1284 C1291 0.950 . S
C1285 C1283 1.387 . S
C1285 C1287 1.390 . S
C1285 H1289 0.950 . S
H1286 C1282 0.950 . S
C1287 C1285 1.390 . S
C1287 C1288 1.387 . S
C1287 H1290 0.950 . S
C1288 C1287 1.387 . S
C1288 C1291 1.387 . S
H1289 C1285 0.950 . S
H1290 C1287 0.950 . S
C1291 C1282 1.390 . S
C1291 H1284 0.950 . S
C1291 C1288 1.387 . S
C1292 C1293 1.387 . S
C1292 H1296 0.950 . S
C1292 C1301 1.390 . S
C1293 C1292 1.387 . S
C1293 C1295 1.387 . S
H1294 C1301 0.950 . S
C1295 C1293 1.387 . S
C1295 C1297 1.390 . S
C1295 H1299 0.950 . S
H1296 C1292 0.950 . S
C1297 C1295 1.390 . S
C1297 C1298 1.387 . S
C1297 H1300 0.950 . S
C1298 C1297 1.387 . S
C1298 C1301 1.387 . S
H1299 C1295 0.950 . S
H1300 C1297 0.950 . S
C1301 C1292 1.390 . S
C1301 H1294 0.950 . S
C1301 C1298 1.387 . S
C1302 C1303 1.387 . S
C1302 H1306 0.950 . S
C1302 C1311 1.390 . S
C1303 C1302 1.387 . S
C1303 C1305 1.387 . S
H1304 C1311 0.950 . S
C1305 C1303 1.387 . S
C1305 C1307 1.390 . S
C1305 H1309 0.950 . S
H1306 C1302 0.950 . S
C1307 C1305 1.390 . S
C1307 C1308 1.387 . S
C1307 H1310 0.950 . S
C1308 C1307 1.387 . S
C1308 C1311 1.387 . S
H1309 C1305 0.950 . S
H1310 C1307 0.950 . S
C1311 C1302 1.390 . S
C1311 H1304 0.950 . S
C1311 C1308 1.387 . S
C1312 C1313 1.387 . S
C1312 H1316 0.950 . S
C1312 C1321 1.390 . S
C1313 C1312 1.387 . S
C1313 C1315 1.387 . S
H1314 C1321 0.950 . S
C1315 C1313 1.387 . S
C1315 C1317 1.390 . S
C1315 H1319 0.950 . S
H1316 C1312 0.950 . S
C1317 C1315 1.390 . S
C1317 C1318 1.387 . S
C1317 H1320 0.950 . S
C1318 C1317 1.387 . S
C1318 C1321 1.387 . S
H1319 C1315 0.950 . S
H1320 C1317 0.950 . S
C1321 C1312 1.390 . S
C1321 H1314 0.950 . S
C1321 C1318 1.387 . S
C1322 C1323 1.387 . S
C1322 H1326 0.950 . S
C1322 C1331 1.390 . S
C1323 C1322 1.387 . S
C1323 C1325 1.387 . S
H1324 C1331 0.950 . S
C1325 C1323 1.387 . S
C1325 C1327 1.390 . S
C1325 H1329 0.950 . S
H1326 C1322 0.950 . S
C1327 C1325 1.390 . S
C1327 C1328 1.387 . S
C1327 H1330 0.950 . S
C1328 C1327 1.387 . S
C1328 C1331 1.387 . S
H1329 C1325 0.950 . S
H1330 C1327 0.950 . S
C1331 C1322 1.390 . S
C1331 H1324 0.950 . S
C1331 C1328 1.387 . S
C1332 C1333 1.387 . S
C1332 H1336 0.950 . S
C1332 C1341 1.390 . S
C1333 C1332 1.387 . S
C1333 C1335 1.387 . S
H1334 C1341 0.950 . S
C1335 C1333 1.387 . S
C1335 C1337 1.390 . S
C1335 H1339 0.950 . S
H1336 C1332 0.950 . S
C1337 C1335 1.390 . S
C1337 C1338 1.387 . S
C1337 H1340 0.950 . S
C1338 C1337 1.387 . S
C1338 C1341 1.387 . S
H1339 C1335 0.950 . S
H1340 C1337 0.950 . S
C1341 C1332 1.390 . S
C1341 H1334 0.950 . S
C1341 C1338 1.387 . S
C1342 C1343 1.387 . S
C1342 H1346 0.950 . S
C1342 C1351 1.390 . S
C1343 C1342 1.387 . S
C1343 C1345 1.387 . S
H1344 C1351 0.950 . S
C1345 C1343 1.387 . S
C1345 C1347 1.390 . S
C1345 H1349 0.950 . S
H1346 C1342 0.950 . S
C1347 C1345 1.390 . S
C1347 C1348 1.387 . S
C1347 H1350 0.950 . S
C1348 C1347 1.387 . S
C1348 C1351 1.387 . S
H1349 C1345 0.950 . S
H1350 C1347 0.950 . S
C1351 C1342 1.390 . S
C1351 H1344 0.950 . S
C1351 C1348 1.387 . S
C1352 C1353 1.387 . S
C1352 H1356 0.950 . S
C1352 C1361 1.390 . S
C1353 C1352 1.387 . S
C1353 C1355 1.387 . S
H1354 C1361 0.950 . S
C1355 C1353 1.387 . S
C1355 C1357 1.390 . S
C1355 H1359 0.950 . S
H1356 C1352 0.950 . S
C1357 C1355 1.390 . S
C1357 C1358 1.387 . S
C1357 H1360 0.950 . S
C1358 C1357 1.387 . S
C1358 C1361 1.387 . S
H1359 C1355 0.950 . S
H1360 C1357 0.950 . S
C1361 C1352 1.390 . S
C1361 H1354 0.950 . S
C1361 C1358 1.387 . S
C1362 C1363 1.387 . S
C1362 H1366 0.950 1_655 S
C1362 C1371 1.390 . S
C1363 C1362 1.387 . S
C1363 C1365 1.387 . S
H1364 C1371 0.950 . S
C1365 C1363 1.387 . S
C1365 C1367 1.390 . S
C1365 H1369 0.950 . S
H1366 C1362 0.950 1_455 S
C1367 C1365 1.390 . S
C1367 C1368 1.387 . S
C1367 H1370 0.950 . S
C1368 C1367 1.387 . S
C1368 C1371 1.387 . S
H1369 C1365 0.950 . S
H1370 C1367 0.950 . S
C1371 C1362 1.390 . S
C1371 H1364 0.950 . S
C1371 C1368 1.387 . S
C1372 C1373 1.387 . S
C1372 H1376 0.950 . S
C1372 C1381 1.390 . S
C1373 C1372 1.387 . S
C1373 C1375 1.387 . S
H1374 C1381 0.950 . S
C1375 C1373 1.387 . S
C1375 C1377 1.390 . S
C1375 H1379 0.950 . S
H1376 C1372 0.950 . S
C1377 C1375 1.390 . S
C1377 C1378 1.387 . S
C1377 H1380 0.950 . S
C1378 C1377 1.387 . S
C1378 C1381 1.387 . S
H1379 C1375 0.950 . S
H1380 C1377 0.950 . S
C1381 C1372 1.390 . S
C1381 H1374 0.950 . S
C1381 C1378 1.387 . S
C1382 C1383 1.387 1_545 S
C1382 H1386 0.950 . S
C1382 C1391 1.390 . S
C1383 C1382 1.387 1_565 S
C1383 C1385 1.387 1_565 S
H1384 C1391 0.950 . S
C1385 C1383 1.387 1_545 S
C1385 C1387 1.390 . S
C1385 H1389 0.942 1_545 S
H1386 C1382 0.950 . S
C1387 C1385 1.390 . S
C1387 C1388 1.387 . S
C1387 H1390 0.950 . S
C1388 C1387 1.387 . S
C1388 C1391 1.387 . S
H1389 C1385 0.942 1_565 S
H1390 C1387 0.950 . S
C1391 C1382 1.390 . S
C1391 H1384 0.950 . S
C1391 C1388 1.387 . S
C1392 C1393 1.387 . S
C1392 H1396 0.950 . S
C1392 C1401 1.390 . S
C1393 C1392 1.387 . S
C1393 C1395 1.387 . S
H1394 C1401 0.950 . S
C1395 C1393 1.387 . S
C1395 C1397 1.390 . S
C1395 H1399 0.950 . S
H1396 C1392 0.950 . S
C1397 C1395 1.390 . S
C1397 C1398 1.387 . S
C1397 H1400 0.950 . S
C1398 C1397 1.387 . S
C1398 C1401 1.387 . S
H1399 C1395 0.950 . S
H1400 C1397 0.950 . S
C1401 C1392 1.390 . S
C1401 H1394 0.950 . S
C1401 C1398 1.387 . S
C1402 C1403 1.387 . S
C1402 H1406 0.950 . S
C1402 C1411 1.390 . S
C1403 C1402 1.387 . S
C1403 C1405 1.387 . S
H1404 C1411 0.950 . S
C1405 C1403 1.387 . S
C1405 C1407 1.390 . S
C1405 H1409 0.950 . S
H1406 C1402 0.950 . S
C1407 C1405 1.390 . S
C1407 C1408 1.387 . S
C1407 H1410 0.950 . S
C1408 C1407 1.387 . S
C1408 C1411 1.387 . S
H1409 C1405 0.950 . S
H1410 C1407 0.950 . S
C1411 C1402 1.390 . S
C1411 H1404 0.950 . S
C1411 C1408 1.387 . S
C1412 C1413 1.387 . S
C1412 H1416 0.950 . S
C1412 C1421 1.390 . S
C1413 C1412 1.387 . S
C1413 C1415 1.387 . S
H1414 C1421 0.950 . S
C1415 C1413 1.387 . S
C1415 C1417 1.390 . S
C1415 H1419 0.950 . S
H1416 C1412 0.950 . S
C1417 C1415 1.390 . S
C1417 C1418 1.387 . S
C1417 H1420 0.950 . S
C1418 C1417 1.387 . S
C1418 C1421 1.387 . S
H1419 C1415 0.950 . S
H1420 C1417 0.950 . S
C1421 C1412 1.390 . S
C1421 H1414 0.950 . S
C1421 C1418 1.387 . S
C1422 C1423 1.387 . S
C1422 H1426 0.950 1_565 S
C1422 C1431 1.390 1_565 S
C1423 C1422 1.387 . S
C1423 C1425 1.387 . S
H1424 C1431 0.950 . S
C1425 C1423 1.387 . S
C1425 C1427 1.390 . S
C1425 H1429 0.950 . S
H1426 C1422 0.950 1_545 S
C1427 C1425 1.390 . S
C1427 C1428 1.387 . S
C1427 H1430 0.950 . S
C1428 C1427 1.387 . S
C1428 C1431 1.387 1_565 S
H1429 C1425 0.950 . S
H1430 C1427 0.950 . S
C1431 C1422 1.390 1_545 S
C1431 H1424 0.950 . S
C1431 C1428 1.387 1_545 S
C1432 C1433 1.387 1_655 S
C1432 H1436 0.950 . S
C1432 C1441 1.390 . S
C1433 C1432 1.387 1_455 S
C1433 C1435 1.387 . S
H1434 C1441 0.950 . S
C1435 C1433 1.387 . S
C1435 C1437 1.390 . S
C1435 H1439 0.950 . S
H1436 C1432 0.950 . S
C1437 C1435 1.390 . S
C1437 C1438 1.387 . S
C1437 H1440 0.950 . S
C1438 C1437 1.387 . S
C1438 C1441 1.387 1_455 S
H1439 C1435 0.950 . S
H1440 C1437 0.950 . S
C1441 C1432 1.390 . S
C1441 H1434 0.950 . S
C1441 C1438 1.387 1_655 S
C1442 C1443 1.387 . S
C1442 H1446 0.950 . S
C1442 C1451 1.390 . S
C1443 C1442 1.387 . S
C1443 C1445 1.387 . S
H1444 C1451 0.950 . S
C1445 C1443 1.387 . S
C1445 C1447 1.390 . S
C1445 H1449 0.950 . S
H1446 C1442 0.950 . S
C1447 C1445 1.390 . S
C1447 C1448 1.387 . S
C1447 H1450 0.950 . S
C1448 C1447 1.387 . S
C1448 C1451 1.387 . S
H1449 C1445 0.950 . S
H1450 C1447 0.950 . S
C1451 C1442 1.390 . S
C1451 H1444 0.950 . S
C1451 C1448 1.387 . S
C1452 C1453 1.387 1_455 S
C1452 H1456 0.950 . S
C1452 C1461 1.390 . S
C1453 C1452 1.387 1_655 S
C1453 C1455 1.387 . S
H1454 C1461 0.950 . S
C1455 C1453 1.387 . S
C1455 C1457 1.390 . S
C1455 H1459 0.950 . S
H1456 C1452 0.950 . S
C1457 C1455 1.390 . S
C1457 C1458 1.387 . S
C1457 H1460 0.950 . S
C1458 C1457 1.387 . S
C1458 C1461 1.387 1_655 S
H1459 C1455 0.950 . S
H1460 C1457 0.950 . S
C1461 C1452 1.390 . S
C1461 H1454 0.950 . S
C1461 C1458 1.387 1_455 S
C1462 C1463 1.387 . S
C1462 H1466 0.950 . S
C1462 C1471 1.390 . S
C1463 C1462 1.387 . S
C1463 C1465 1.387 . S
H1464 C1471 0.950 . S
C1465 C1463 1.387 . S
C1465 C1467 1.390 . S
C1465 H1469 0.950 . S
H1466 C1462 0.950 . S
C1467 C1465 1.390 . S
C1467 C1468 1.387 . S
C1467 H1470 0.950 . S
C1468 C1467 1.387 . S
C1468 C1471 1.387 . S
H1469 C1465 0.950 . S
H1470 C1467 0.950 . S
C1471 C1462 1.390 . S
C1471 H1464 0.950 . S
C1471 C1468 1.387 . S
C1472 C1473 1.387 . S
C1472 H1476 0.950 1_545 S
C1472 C1481 1.390 1_545 S
C1473 C1472 1.387 . S
C1473 C1475 1.387 . S
H1474 C1481 0.950 . S
C1475 C1473 1.387 . S
C1475 C1477 1.390 . S
C1475 H1479 0.950 . S
H1476 C1472 0.950 1_565 S
C1477 C1475 1.390 . S
C1477 C1478 1.387 . S
C1477 H1480 0.950 . S
C1478 C1477 1.387 . S
C1478 C1481 1.387 1_545 S
H1479 C1475 0.950 . S
H1480 C1477 0.950 . S
C1481 C1472 1.390 1_565 S
C1481 H1474 0.950 . S
C1481 C1478 1.387 1_565 S
C1482 C1483 1.387 . S
C1482 H1486 0.950 . S
C1482 C1491 1.390 . S
C1483 C1482 1.387 . S
C1483 C1485 1.387 . S
H1484 C1491 0.950 . S
C1485 C1483 1.387 . S
C1485 C1487 1.390 . S
C1485 H1489 0.950 . S
H1486 C1482 0.950 . S
C1487 C1485 1.390 . S
C1487 C1488 1.387 . S
C1487 H1490 0.950 . S
C1488 C1487 1.387 . S
C1488 C1491 1.387 . S
H1489 C1485 0.950 . S
H1490 C1487 0.950 . S
C1491 C1482 1.390 . S
C1491 H1484 0.950 . S
C1491 C1488 1.387 . S
C1492 C1493 1.387 . S
C1492 H1496 0.950 . S
C1492 C1501 1.390 . S
C1493 C1492 1.387 . S
C1493 C1495 1.387 . S
H1494 C1501 0.950 . S
C1495 C1493 1.387 . S
C1495 C1497 1.390 . S
C1495 H1499 0.950 . S
H1496 C1492 0.950 . S
C1497 C1495 1.390 . S
C1497 C1498 1.387 . S
C1497 H1500 0.950 . S
C1498 C1497 1.387 . S
C1498 C1501 1.387 . S
H1499 C1495 0.950 . S
H1500 C1497 0.950 . S
C1501 C1492 1.390 . S
C1501 H1494 0.950 . S
C1501 C1498 1.387 . S
C1502 C1503 1.387 . S
C1502 H1506 0.950 . S
C1502 C1511 1.390 . S
C1503 C1502 1.387 . S
C1503 C1505 1.387 . S
H1504 C1511 0.950 . S
C1505 C1503 1.387 . S
C1505 C1507 1.390 . S
C1505 H1509 0.950 . S
H1506 C1502 0.950 . S
C1507 C1505 1.390 . S
C1507 C1508 1.387 . S
C1507 H1510 0.950 . S
C1508 C1507 1.387 . S
C1508 C1511 1.387 . S
H1509 C1505 0.950 . S
H1510 C1507 0.950 . S
C1511 C1502 1.390 . S
C1511 H1504 0.950 . S
C1511 C1508 1.387 . S
C1512 C1513 1.387 . S
C1512 H1516 0.950 . S
C1512 C1521 1.390 . S
C1513 C1512 1.387 . S
C1513 C1515 1.387 . S
H1514 C1521 0.950 . S
C1515 C1513 1.387 . S
C1515 C1517 1.390 . S
C1515 H1519 0.950 . S
H1516 C1512 0.950 . S
C1517 C1515 1.390 . S
C1517 C1518 1.387 . S
C1517 H1520 0.950 . S
C1518 C1517 1.387 . S
C1518 C1521 1.387 . S
H1519 C1515 0.950 . S
H1520 C1517 0.950 . S
C1521 C1512 1.390 . S
C1521 H1514 0.950 . S
C1521 C1518 1.387 . S
C1522 C1523 1.387 . S
C1522 H1526 0.950 . S
C1522 C1531 1.390 . S
C1523 C1522 1.387 . S
C1523 C1525 1.387 . S
H1524 C1531 0.950 . S
C1525 C1523 1.387 . S
C1525 C1527 1.390 . S
C1525 H1529 0.950 . S
H1526 C1522 0.950 . S
C1527 C1525 1.390 . S
C1527 C1528 1.387 . S
C1527 H1530 0.950 . S
C1528 C1527 1.387 . S
C1528 C1531 1.387 . S
H1529 C1525 0.950 . S
H1530 C1527 0.950 . S
C1531 C1522 1.390 . S
C1531 H1524 0.950 . S
C1531 C1528 1.387 . S
C1532 C1533 1.387 . S
C1532 H1536 0.950 . S
C1532 C1541 1.390 . S
C1533 C1532 1.387 . S
C1533 C1535 1.387 . S
H1534 C1541 0.950 . S
C1535 C1533 1.387 . S
C1535 C1537 1.390 . S
C1535 H1539 0.950 . S
H1536 C1532 0.950 . S
C1537 C1535 1.390 . S
C1537 C1538 1.387 . S
C1537 H1540 0.950 . S
C1538 C1537 1.387 . S
C1538 C1541 1.387 . S
H1539 C1535 0.950 . S
H1540 C1537 0.950 . S
C1541 C1532 1.390 . S
C1541 H1534 0.950 . S
C1541 C1538 1.387 . S
C1542 C1543 1.387 . S
C1542 H1546 0.950 . S
C1542 C1551 1.390 . S
C1543 C1542 1.387 . S
C1543 C1545 1.387 . S
H1544 C1551 0.950 . S
C1545 C1543 1.387 . S
C1545 C1547 1.390 . S
C1545 H1549 0.950 . S
H1546 C1542 0.950 . S
C1547 C1545 1.390 . S
C1547 C1548 1.387 . S
C1547 H1550 0.950 . S
C1548 C1547 1.387 . S
C1548 C1551 1.387 . S
H1549 C1545 0.950 . S
H1550 C1547 0.950 . S
C1551 C1542 1.390 . S
C1551 H1544 0.950 . S
C1551 C1548 1.387 . S
C1552 C1553 1.387 . S
C1552 H1556 0.950 . S
C1552 C1561 1.390 . S
C1553 C1552 1.387 . S
C1553 C1555 1.387 . S
H1554 C1561 0.950 . S
C1555 C1553 1.387 . S
C1555 C1557 1.390 . S
C1555 H1559 0.950 . S
H1556 C1552 0.950 . S
C1557 C1555 1.390 . S
C1557 C1558 1.387 . S
C1557 H1560 0.950 . S
C1558 C1557 1.387 . S
C1558 C1561 1.387 . S
H1559 C1555 0.950 . S
H1560 C1557 0.950 . S
C1561 C1552 1.390 . S
C1561 H1554 0.950 . S
C1561 C1558 1.387 . S
C1562 C1563 1.387 . S
C1562 H1566 0.950 . S
C1562 C1571 1.390 . S
C1563 C1562 1.387 . S
C1563 C1565 1.387 . S
H1564 C1571 0.950 . S
C1565 C1563 1.387 . S
C1565 C1567 1.390 . S
C1565 H1569 0.950 . S
H1566 C1562 0.950 . S
C1567 C1565 1.390 . S
C1567 C1568 1.387 . S
C1567 H1570 0.950 . S
C1568 C1567 1.387 . S
C1568 C1571 1.387 . S
H1569 C1565 0.950 . S
H1570 C1567 0.950 . S
C1571 C1562 1.390 . S
C1571 H1564 0.950 . S
C1571 C1568 1.387 . S
C1572 C1573 1.387 . S
C1572 H1576 0.950 . S
C1572 C1581 1.390 . S
C1573 C1572 1.387 . S
C1573 C1575 1.387 . S
H1574 C1581 0.950 . S
C1575 C1573 1.387 . S
C1575 C1577 1.390 . S
C1575 H1579 0.950 . S
H1576 C1572 0.950 . S
C1577 C1575 1.390 . S
C1577 C1578 1.387 . S
C1577 H1580 0.950 . S
C1578 C1577 1.387 . S
C1578 C1581 1.387 . S
H1579 C1575 0.950 . S
H1580 C1577 0.950 . S
C1581 C1572 1.390 . S
C1581 H1574 0.950 . S
C1581 C1578 1.387 . S
C1582 C1583 1.387 . S
C1582 H1586 0.950 . S
C1582 C1591 1.390 . S
C1583 C1582 1.387 . S
C1583 C1585 1.387 . S
H1584 C1591 0.950 . S
C1585 C1583 1.387 . S
C1585 C1587 1.390 . S
C1585 H1589 0.950 . S
H1586 C1582 0.950 . S
C1587 C1585 1.390 . S
C1587 C1588 1.387 . S
C1587 H1590 0.950 . S
C1588 C1587 1.387 . S
C1588 C1591 1.387 . S
H1589 C1585 0.950 . S
H1590 C1587 0.950 . S
C1591 C1582 1.390 . S
C1591 H1584 0.950 . S
C1591 C1588 1.387 . S
C1592 C1593 1.387 . S
C1592 H1596 0.950 . S
C1592 C1601 1.390 . S
C1593 C1592 1.387 . S
C1593 C1595 1.387 . S
H1594 C1601 0.950 . S
C1595 C1593 1.387 . S
C1595 C1597 1.390 . S
C1595 H1599 0.950 . S
H1596 C1592 0.950 . S
C1597 C1595 1.390 . S
C1597 C1598 1.387 . S
C1597 H1600 0.950 . S
C1598 C1597 1.387 . S
C1598 C1601 1.387 . S
H1599 C1595 0.950 . S
H1600 C1597 0.950 . S
C1601 C1592 1.390 . S
C1601 H1594 0.950 . S
C1601 C1598 1.387 . S
C1063 C528 1.718 . S
C1068 C705 1.743 . S
C1073 C562 1.796 . S
C1078 C745 1.803 . S
C1083 C484 1.795 . S
C1088 C797 1.828 . S
C1093 C445 1.626 . S
C1098 C757 1.639 . S
C1108 C785 1.554 . S
C1103 C367 1.536 . S
C1113 C411 1.532 . S
C1118 C717 1.577 . S
C1128 C724 1.761 . S
C1123 C450 1.716 . S
C1138 C764 1.787 . S
C1133 C372 1.772 . S
C1143 C406 1.788 . S
C1148 C784 1.829 . S
C1153 C523 1.622 . S
C1158 C744 1.640 . S
C1163 C567 1.510 . S
C1168 C804 1.536 . S
C1178 C704 1.593 . S
C1173 C489 1.523 . S
C1188 C825 1.743 . S
C1183 C60 1.718 1_455 S
C1193 C94 1.797 . S
C1198 C865 1.804 . S
C1203 C16 1.793 . S
C1208 C917 1.828 . S
C1213 C679 1.624 . S
C1218 C877 1.639 . S
C1223 C601 1.538 . S
C1228 C905 1.556 . S
C1233 C645 1.532 . S
C1238 C837 1.576 . S
C1243 C684 1.716 . S
C1248 C844 1.761 . S
C1253 C606 1.773 . S
C1258 C884 1.788 . S
C1268 C904 1.829 . S
C1263 C640 1.788 . S
C1273 C55 1.622 1_565 S
C1278 C864 1.640 . S
C1288 C924 1.537 . S
C1283 C99 1.511 1_455 S
C1293 C21 1.527 . S
C1298 C824 1.596 . S
C1308 C945 1.744 . S
C1303 C294 1.720 . S
C1313 C328 1.797 . S
C1318 C985 1.804 . S
C1328 C1037 1.828 . S
C1323 C250 1.793 . S
C1338 C997 1.639 . S
C1333 C211 1.624 1_545 S
C1348 C1025 1.555 . S
C1343 C133 1.538 1_655 S
C1353 C177 1.530 . S
C1358 C957 1.575 . S
C1363 C216 1.717 1_655 S
C1368 C964 1.762 . S
C1373 C138 1.773 . S
C1378 C1004 1.788 . S
C1388 C1024 1.830 . S
C1383 C172 1.790 . S
C1393 C289 1.622 . S
C1398 C984 1.640 . S
C1403 C333 1.509 . S
C1408 C1044 1.536 . S
C1413 C255 1.527 . S
C1418 C944 1.595 . S
C1423 C586 1.410 . S
C1428 C728 1.392 . S
C1438 C768 1.816 . S
C1433 C625 1.832 . S
C1443 C664 1.572 . S
C1448 C791 1.578 . S
C1453 C235 1.835 . S
C1458 C751 1.828 . S
C1463 C274 1.565 . S
C1468 C808 1.567 . S
C1478 C711 1.392 . S
C1473 C313 1.408 . S
C1483 C118 1.410 . S
C1488 C848 1.393 . S
C1493 C157 1.832 . S
C1498 C888 1.815 . S
C1503 C196 1.573 . S
C1508 C911 1.579 . S
C1513 C469 1.835 . S
C1518 C871 1.828 . S
C1528 C928 1.566 . S
C1523 C508 1.564 . S
C1533 C547 1.408 . S
C1538 C831 1.392 . S
C1543 C352 1.411 . S
C1548 C968 1.393 . S
C1553 C391 1.834 . S
C1558 C1008 1.818 . S
C1568 C1031 1.578 . S
C1563 C430 1.571 . S
C1573 C1 1.833 . S
C1578 C991 1.825 . S
C1583 C40 1.565 . S
C1588 C1048 1.567 . S
C1593 C79 1.408 . S
C1598 C951 1.391 . S
