# Generated by pormake.
# Topology zzz, (3,6)-cn, num edge types: 1
# Building blocks:
#     Node 0, Type 0, BuildingBlock: KAKCAD_clean_linker_0, # of connection points: 3
#     Node 1, Type 0, BuildingBlock: KAKCAD_clean_linker_0, # of connection points: 3
#     Node 2, Type 0, BuildingBlock: KAKCAD_clean_linker_0, # of connection points: 3
#     Node 3, Type 0, BuildingBlock: KAKCAD_clean_linker_0, # of connection points: 3
#     Node 4, Type 0, BuildingBlock: KAKCAD_clean_linker_0, # of connection points: 3
#     Node 5, Type 0, BuildingBlock: KAKCAD_clean_linker_0, # of connection points: 3
#     Node 6, Type 0, BuildingBlock: KAKCAD_clean_linker_0, # of connection points: 3
#     Node 7, Type 0, BuildingBlock: KAKCAD_clean_linker_0, # of connection points: 3
#     Node 8, Type 1, BuildingBlock: CUKXOW_clean_sbu_0, # of connection points: 6
#     Node 9, Type 1, BuildingBlock: CUKXOW_clean_sbu_0, # of connection points: 6
#     Node 10, Type 1, BuildingBlock: CUKXOW_clean_sbu_0, # of connection points: 6
#     Node 11, Type 1, BuildingBlock: CUKXOW_clean_sbu_0, # of connection points: 6
#     Edge 12, Type (0, 1), BuildingBlock: XUDNAN_clean_linker_2, # of connection points: 2
#     Edge 13, Type (0, 1), BuildingBlock: XUDNAN_clean_linker_2, # of connection points: 2
#     Edge 14, Type (0, 1), BuildingBlock: XUDNAN_clean_linker_2, # of connection points: 2
#     Edge 15, Type (0, 1), BuildingBlock: XUDNAN_clean_linker_2, # of connection points: 2
#     Edge 16, Type (0, 1), BuildingBlock: XUDNAN_clean_linker_2, # of connection points: 2
#     Edge 17, Type (0, 1), BuildingBlock: XUDNAN_clean_linker_2, # of connection points: 2
#     Edge 18, Type (0, 1), BuildingBlock: XUDNAN_clean_linker_2, # of connection points: 2
#     Edge 19, Type (0, 1), BuildingBlock: XUDNAN_clean_linker_2, # of connection points: 2
#     Edge 20, Type (0, 1), BuildingBlock: XUDNAN_clean_linker_2, # of connection points: 2
#     Edge 21, Type (0, 1), BuildingBlock: XUDNAN_clean_linker_2, # of connection points: 2
#     Edge 22, Type (0, 1), BuildingBlock: XUDNAN_clean_linker_2, # of connection points: 2
#     Edge 23, Type (0, 1), BuildingBlock: XUDNAN_clean_linker_2, # of connection points: 2
#     Edge 24, Type (0, 1), BuildingBlock: XUDNAN_clean_linker_2, # of connection points: 2
#     Edge 25, Type (0, 1), BuildingBlock: XUDNAN_clean_linker_2, # of connection points: 2
#     Edge 26, Type (0, 1), BuildingBlock: XUDNAN_clean_linker_2, # of connection points: 2
#     Edge 27, Type (0, 1), BuildingBlock: XUDNAN_clean_linker_2, # of connection points: 2
#     Edge 28, Type (0, 1), BuildingBlock: XUDNAN_clean_linker_2, # of connection points: 2
#     Edge 29, Type (0, 1), BuildingBlock: XUDNAN_clean_linker_2, # of connection points: 2
#     Edge 30, Type (0, 1), BuildingBlock: XUDNAN_clean_linker_2, # of connection points: 2
#     Edge 31, Type (0, 1), BuildingBlock: XUDNAN_clean_linker_2, # of connection points: 2
#     Edge 32, Type (0, 1), BuildingBlock: XUDNAN_clean_linker_2, # of connection points: 2
#     Edge 33, Type (0, 1), BuildingBlock: XUDNAN_clean_linker_2, # of connection points: 2
#     Edge 34, Type (0, 1), BuildingBlock: XUDNAN_clean_linker_2, # of connection points: 2
#     Edge 35, Type (0, 1), BuildingBlock: XUDNAN_clean_linker_2, # of connection points: 2
# Relax obj value: 0.213
# Max RMSD: 0.230
# Mean RMSD: 0.186
data_MOF--net-zzz--node1-CUKXOW_clean_sbu_0--node2-KAKCAD_clean_linker_0--edge1-XUDNAN_clean_linker_2
_symmetry_space_group_name_H-M    P1
_symmetry_Int_Tables_number       1
_symmetry_cell_setting            triclinic
loop_
_symmetry_equiv_pos_as_xyz
'x, y, z'
_cell_length_a     58.692538
_cell_length_b     57.485222
_cell_length_c     20.563592
_cell_angle_alpha  92.647578
_cell_angle_beta   88.069319
_cell_angle_gamma 95.517498
loop_
_atom_site_label
_atom_site_type_symbol
_atom_site_fract_x
_atom_site_fract_y
_atom_site_fract_z
_atom_type_partial_charge
C0 C 0.82803 0.48227 0.9318 0.0
C1 C 0.83916 0.46181 0.92131 0.0
C2 C 0.80871 0.48241 0.97342 0.0
C3 C 0.8006 0.46222 0.00607 0.0
C4 C 0.81132 0.44159 0.99418 0.0
C5 C 0.83032 0.44131 0.9515 0.0
C6 C 0.78276 0.46344 0.058 0.0
C7 C 0.76084 0.46917 0.04455 0.0
C8 C 0.74441 0.47173 0.09518 0.0
C9 C 0.75047 0.46924 0.16011 0.0
C10 C 0.77245 0.46324 0.17379 0.0
C11 C 0.78833 0.46019 0.12224 0.0
C12 C 0.78002 0.46148 0.24134 0.0
C13 C 0.77806 0.48 0.28765 0.0
C14 C 0.79276 0.44304 0.25618 0.0
C15 C 0.80521 0.44423 0.31298 0.0
C16 C 0.80501 0.46378 0.35638 0.0
C17 C 0.72113 0.4772 0.07908 0.0
C18 C 0.71094 0.49579 0.11146 0.0
C19 C 0.70958 0.46467 0.02781 0.0
C20 C 0.6887 0.47109 0.00767 0.0
C21 C 0.6789 0.49029 0.03811 0.0
C22 C 0.69007 0.50238 0.09087 0.0
C23 C 0.79048 0.48113 0.34496 0.0
H24 H 0.83461 0.49826 0.90896 0.0
H25 H 0.80079 0.49855 0.98258 0.0
H26 H 0.80536 0.42589 0.01934 0.0
H27 H 0.83877 0.4254 0.94453 0.0
H28 H 0.75666 0.47183 0.99464 0.0
H29 H 0.80557 0.45635 0.13235 0.0
H30 H 0.73807 0.47154 0.19957 0.0
H31 H 0.76843 0.49449 0.27726 0.0
H32 H 0.7943 0.4284 0.22171 0.0
H33 H 0.81606 0.43049 0.32117 0.0
H34 H 0.71953 0.50579 0.15097 0.0
H35 H 0.71697 0.45013 0.00237 0.0
H36 H 0.79012 0.49642 0.37767 0.0
H37 H 0.68283 0.51714 0.11556 0.0
H38 H 0.68067 0.46156 0.96649 0.0
C39 C 0.9323 0.81209 0.91772 0.0
C40 C 0.94275 0.83306 0.94528 0.0
C41 C 0.92312 0.79425 0.95772 0.0
C42 C 0.92476 0.79686 0.02595 0.0
C43 C 0.93512 0.8181 0.05293 0.0
C44 C 0.94374 0.83604 0.01312 0.0
C45 C 0.91745 0.77716 0.0691 0.0
C46 C 0.92085 0.75401 0.0493 0.0
C47 C 0.91795 0.73587 0.09358 0.0
C48 C 0.91129 0.74124 0.15865 0.0
C49 C 0.90695 0.76415 0.17845 0.0
C50 C 0.90949 0.78175 0.13303 0.0
C51 C 0.9031 0.77116 0.24788 0.0
C52 C 0.88598 0.78589 0.26575 0.0
C53 C 0.91943 0.76731 0.29359 0.0
C54 C 0.9201 0.77993 0.35344 0.0
C55 C 0.90438 0.79653 0.36854 0.0
C56 C 0.92316 0.71175 0.07217 0.0
C57 C 0.94102 0.70841 0.02617 0.0
C58 C 0.91029 0.69188 0.09653 0.0
C59 C 0.91505 0.66934 0.07481 0.0
C60 C 0.93242 0.66634 0.02753 0.0
C61 C 0.94537 0.68599 0.00355 0.0
C62 C 0.88656 0.7984 0.3256 0.0
H63 H 0.93131 0.80952 0.86533 0.0
H64 H 0.915 0.77835 0.93506 0.0
H65 H 0.93745 0.82069 0.10483 0.0
H66 H 0.95204 0.85197 0.03534 0.0
H67 H 0.92659 0.75023 -0.00025 0.0
H68 H 0.90652 0.79947 0.14889 0.0
H69 H 0.9101 0.72787 0.19436 0.0
H70 H 0.87311 0.789 0.23145 0.0
H71 H 0.93295 0.75621 0.28077 0.0
H72 H 0.93411 0.77813 0.38523 0.0
H73 H 0.95187 0.7231 0.0078 0.0
H74 H 0.89633 0.69372 0.13157 0.0
H75 H 0.87393 0.81068 0.33644 0.0
H76 H 0.95915 0.68397 0.9679 0.0
H77 H 0.90495 0.65429 0.09405 0.0
C78 C 0.66049 0.98833 0.04786 0.0
C79 C 0.65885 0.00717 0.00762 0.0
C80 C 0.68059 0.98626 0.08043 0.0
C81 C 0.69954 0.00287 0.07301 0.0
C82 C 0.69851 0.02084 0.02958 0.0
C83 C 0.67829 0.02302 0.99724 0.0
C84 C 0.71918 0.00288 0.11614 0.0
C85 C 0.74178 0.00465 0.09147 0.0
C86 C 0.7603 0.00533 0.13362 0.0
C87 C 0.75589 0.00481 0.20157 0.0
C88 C 0.73316 0.00309 0.22623 0.0
C89 C 0.71508 0.00201 0.18333 0.0
C90 C 0.72705 0.00261 0.29636 0.0
C91 C 0.72091 0.98098 0.32419 0.0
C92 C 0.72051 0.02307 0.32858 0.0
C93 C 0.70641 0.02177 0.38476 0.0
C94 C 0.69848 -6e-05 0.40949 0.0
C95 C 0.784 0.00684 0.10527 0.0
C96 C 0.78924 0.99239 0.05084 0.0
C97 C 0.80096 0.02382 0.1285 0.0
C98 C 0.82235 0.02699 0.09601 0.0
C99 C 0.82727 0.01305 0.0401 0.0
C100 C 0.81059 0.99542 0.01876 0.0
C101 C 0.70683 0.97965 0.38051 0.0
H102 H 0.64602 0.97548 0.05555 0.0
H103 H 0.68111 0.97207 0.11309 0.0
H104 H 0.71288 0.03394 0.02348 0.0
H105 H 0.67754 0.03779 0.96678 0.0
H106 H 0.74492 0.00556 0.03935 0.0
H107 H 0.6976 0.00101 0.20276 0.0
H108 H 0.76991 0.00548 0.23476 0.0
H109 H 0.72525 0.96494 0.29912 0.0
H110 H 0.72464 0.03988 0.30711 0.0
H111 H 0.70054 0.03774 0.40647 0.0
H112 H 0.77656 0.97902 0.03214 0.0
H113 H 0.79737 0.03526 0.17016 0.0
H114 H 0.70094 0.96255 0.3979 0.0
H115 H 0.8137 0.9845 0.97565 0.0
H116 H 0.83493 0.04055 0.11412 0.0
C117 C 0.59119 0.72223 0.39232 0.0
C118 C 0.6048 0.70344 0.39523 0.0
C119 C 0.5921 0.73563 0.33693 0.0
C120 C 0.60654 0.73034 0.28358 0.0
C121 C 0.62144 0.71286 0.28869 0.0
C122 C 0.62059 0.69956 0.34384 0.0
C123 C 0.6034 0.73989 0.21925 0.0
C124 C 0.60333 0.76402 0.21096 0.0
C125 C 0.5994 0.77223 0.1493 0.0
C126 C 0.59479 0.75611 0.09679 0.0
C127 C 0.594 0.732 0.10509 0.0
C128 C 0.59873 0.7241 0.16618 0.0
C129 C 0.58609 0.71491 0.05236 0.0
C130 C 0.56694 0.71861 0.01624 0.0
C131 C 0.59624 0.69383 0.04189 0.0
C132 C 0.58671 0.67634 0.99889 0.0
C133 C 0.56687 0.6796 0.96531 0.0
C134 C 0.59835 0.79741 0.13908 0.0
C135 C 0.58361 0.81048 0.17792 0.0
C136 C 0.60961 0.80754 0.08453 0.0
C137 C 0.60484 0.82955 0.06607 0.0
C138 C 0.58862 0.84184 0.1016 0.0
C139 C 0.57876 0.83255 0.15926 0.0
C140 C 0.55745 0.70114 0.97306 0.0
H141 H 0.57907 0.72586 0.4315 0.0
H142 H 0.58038 0.74897 0.334 0.0
H143 H 0.63278 0.70853 0.24817 0.0
H144 H 0.63118 0.68515 0.3439 0.0
H145 H 0.60648 0.77629 0.25201 0.0
H146 H 0.59748 0.70546 0.17363 0.0
H147 H 0.59106 0.76235 0.0497 0.0
H148 H 0.55853 0.73452 0.02378 0.0
H149 H 0.61123 0.69063 0.06822 0.0
H150 H 0.59457 0.66005 0.99296 0.0
H151 H 0.57463 0.80298 0.22002 0.0
H152 H 0.62127 0.7979 0.0543 0.0
H153 H 0.54204 0.70407 0.94832 0.0
H154 H 0.56613 0.84159 0.18748 0.0
H155 H 0.61306 0.83649 0.02217 0.0
C156 C 0.1887 0.58073 0.37371 0.0
C157 C 0.17708 0.56407 0.41408 0.0
C158 C 0.20913 0.57609 0.34111 0.0
C159 C 0.2186 0.55498 0.34943 0.0
C160 C 0.20814 0.53918 0.3937 0.0
C161 C 0.18749 0.54361 0.42558 0.0
C162 C 0.23649 0.54755 0.30322 0.0
C163 C 0.25824 0.54354 0.32353 0.0
C164 C 0.27459 0.53527 0.27848 0.0
C165 C 0.26859 0.53065 0.21288 0.0
C166 C 0.24656 0.5341 0.19312 0.0
C167 C 0.23083 0.54287 0.23823 0.0
C168 C 0.23893 0.52823 0.12625 0.0
C169 C 0.24703 0.54226 0.07486 0.0
C170 C 0.22003 0.51168 0.11686 0.0
C171 C 0.2081 0.5106 0.05915 0.0
C172 C 0.21478 0.52617 0.00975 0.0
C173 C 0.29735 0.53038 0.30122 0.0
C174 C 0.30915 0.54582 0.34636 0.0
C175 C 0.30679 0.50958 0.28109 0.0
C176 C 0.32705 0.50387 0.30762 0.0
C177 C 0.33835 0.51887 0.35474 0.0
C178 C 0.32943 0.54014 0.37277 0.0
C179 C 0.23503 0.54124 0.0169 0.0
H180 H 0.18151 0.59691 0.36494 0.0
H181 H 0.21697 0.58845 0.30687 0.0
H182 H 0.21504 0.52263 0.39994 0.0
H183 H 0.17899 0.53025 0.4557 0.0
H184 H 0.26224 0.54648 0.37451 0.0
H185 H 0.21379 0.54554 0.22292 0.0
H186 H 0.28081 0.52408 0.17764 0.0
H187 H 0.2615 0.55526 0.08142 0.0
H188 H 0.21344 0.50081 0.15623 0.0
H189 H 0.19251 0.49894 0.05582 0.0
H190 H 0.30246 0.56213 0.36222 0.0
H191 H 0.29807 0.49724 0.24671 0.0
H192 H 0.24079 0.55323 0.97934 0.0
H193 H 0.33761 0.55201 0.40927 0.0
H194 H 0.33365 0.48748 0.29214 0.0
C195 C 0.04938 0.18656 0.42535 0.0
C196 C 0.06118 0.16662 0.41097 0.0
C197 C 0.05267 0.206 0.38616 0.0
C198 C 0.06818 0.20617 0.33246 0.0
C199 C 0.08107 0.18695 0.32104 0.0
C200 C 0.0773 0.16737 0.3586 0.0
C201 C 0.06998 0.22531 0.28547 0.0
C202 C 0.06796 0.2487 0.30579 0.0
C203 C 0.06933 0.26646 0.2603 0.0
C204 C 0.07317 0.26061 0.19372 0.0
C205 C 0.0756 0.23736 0.17319 0.0
C206 C 0.07353 0.21994 0.21889 0.0
C207 C 0.07986 0.23025 0.1042 0.0
C208 C 0.06323 0.23211 0.05772 0.0
C209 C 0.09844 0.21723 0.08798 0.0
C210 C 0.09925 0.20441 0.02889 0.0
C211 C 0.08145 0.20434 0.98492 0.0
C212 C 0.06703 0.29106 0.28309 0.0
C213 C 0.05053 0.29609 0.33152 0.0
C214 C 0.08177 0.30956 0.25861 0.0
C215 C 0.08043 0.3325 0.28334 0.0
C216 C 0.06428 0.33742 0.33294 0.0
C217 C 0.0492 0.31896 0.3562 0.0
C218 C 0.06403 0.21922 0.99826 0.0
H219 H 0.03722 0.18708 0.46599 0.0
H220 H 0.04243 0.22049 0.39665 0.0
H221 H 0.09372 0.18665 0.28153 0.0
H222 H 0.08656 0.1525 0.34419 0.0
H223 H 0.06581 0.25319 0.35722 0.0
H224 H 0.07426 0.2019 0.20173 0.0
H225 H 0.07426 0.274 0.15805 0.0
H226 H 0.04865 0.2419 0.06953 0.0
H227 H 0.11148 0.21561 0.12315 0.0
H228 H 0.11301 0.19331 0.01941 0.0
H229 H 0.03872 0.28228 0.35083 0.0
H230 H 0.09477 0.30625 0.22158 0.0
H231 H 0.05005 0.2194 0.96529 0.0
H232 H 0.03673 0.32204 0.39489 0.0
H233 H 0.09215 0.34636 0.26388 0.0
C234 C 0.33241 0.97592 0.39678 0.0
C235 C 0.35154 0.99243 0.39001 0.0
C236 C 0.31234 0.97834 0.36392 0.0
C237 C 0.31113 0.99727 0.32378 0.0
C238 C 0.32969 0.01457 0.32071 0.0
C239 C 0.34967 0.01219 0.35354 0.0
C240 C 0.29195 0.9976 0.27901 0.0
C241 C 0.26909 0.99314 0.30042 0.0
C242 C 0.25117 0.99253 0.25629 0.0
C243 C 0.25641 0.99595 0.18971 0.0
C244 C 0.27936 4e-05 0.1681 0.0
C245 C 0.29685 0.00111 0.21294 0.0
C246 C 0.28627 0.00157 0.0987 0.0
C247 C 0.29034 0.981 0.06259 0.0
C248 C 0.29493 0.02325 0.07494 0.0
C249 C 0.30879 0.02429 0.01825 0.0
C250 C 0.31453 0.00361 0.98505 0.0
C251 C 0.22717 0.98796 0.28066 0.0
C252 C 0.22095 0.96885 0.31983 0.0
C253 C 0.21076 0.00339 0.26878 0.0
C254 C 0.18871 0.00014 0.29731 0.0
C255 C 0.18261 0.98115 0.33714 0.0
C256 C 0.19888 0.96539 0.34738 0.0
C257 C 0.30439 0.982 0.00626 0.0
H258 H 0.33339 0.96048 0.42444 0.0
H259 H 0.29831 0.96469 0.36677 0.0
H260 H 0.32904 0.02953 0.29087 0.0
H261 H 0.36394 0.02549 0.34871 0.0
H262 H 0.26522 0.99047 0.35161 0.0
H263 H 0.31454 0.00376 0.19558 0.0
H264 H 0.24284 0.99491 0.15496 0.0
H265 H 0.28425 0.96408 0.08093 0.0
H266 H 0.29246 0.03928 0.10303 0.0
H267 H 0.31649 0.04119 0.00354 0.0
H268 H 0.23329 0.95669 0.32964 0.0
H269 H 0.2152 0.01834 0.23912 0.0
H270 H 0.30837 0.9658 0.98136 0.0
H271 H 0.19472 0.95071 0.37821 0.0
H272 H 0.17645 0.01246 0.28833 0.0
C273 C 0.40211 0.3122 0.07087 0.0
C274 C 0.41845 0.30835 0.02111 0.0
C275 C 0.4002 0.29838 0.12514 0.0
C276 C 0.41477 0.28061 0.13099 0.0
C277 C 0.4296 0.27534 0.07837 0.0
C278 C 0.43139 0.2891 0.0237 0.0
C279 C 0.4175 0.27086 0.19553 0.0
C280 C 0.42043 0.24707 0.20207 0.0
C281 C 0.4263 0.23916 0.26238 0.0
C282 C 0.42868 0.25501 0.31631 0.0
C283 C 0.42629 0.2788 0.31028 0.0
C284 C 0.42034 0.28648 0.24998 0.0
C285 C 0.43298 0.29608 0.36384 0.0
C286 C 0.45281 0.29391 0.39876 0.0
C287 C 0.42105 0.31597 0.3762 0.0
C288 C 0.42946 0.33383 0.41992 0.0
C289 C 0.44991 0.33212 0.4523 0.0
C290 C 0.43225 0.21499 0.26922 0.0
C291 C 0.41693 0.19549 0.25256 0.0
C292 C 0.45296 0.21157 0.29792 0.0
C293 C 0.45763 0.18931 0.31385 0.0
C294 C 0.4417 0.16993 0.30152 0.0
C295 C 0.42164 0.17302 0.26869 0.0
C296 C 0.46114 0.31169 0.44258 0.0
H297 H 0.3917 0.32674 0.06949 0.0
H298 H 0.38838 0.3026 0.16457 0.0
H299 H 0.44115 0.26187 0.08166 0.0
H300 H 0.44417 0.28583 0.986 0.0
H301 H 0.41913 0.23501 0.15997 0.0
H302 H 0.41966 0.30504 0.24408 0.0
H303 H 0.43319 0.24887 0.36282 0.0
H304 H 0.46266 0.27903 0.3897 0.0
H305 H 0.40555 0.318 0.35076 0.0
H306 H 0.42026 0.34925 0.42719 0.0
H307 H 0.40089 0.19776 0.23022 0.0
H308 H 0.46526 0.22629 0.31001 0.0
H309 H 0.47709 0.30998 0.46609 0.0
H310 H 0.40912 0.1583 0.25859 0.0
H311 H 0.47345 0.18733 0.33781 0.0
Tb312 Tb 0.98693 0.97843 0.63672 0.0
C313 C 0.03947 0.98712 0.59852 0.0
Tb314 Tb 0.0156 0.01896 0.70854 0.0
O315 O 0.98971 0.99797 0.54749 0.0
O316 O 0.98987 0.01535 0.63842 0.0
O317 O 0.02086 0.9719 0.59758 0.0
C318 C 0.03994 0.05958 0.73691 0.0
O319 O 0.04061 0.007 0.63499 0.0
C320 C 0.01111 0.97838 0.76278 0.0
C321 C 0.96392 0.00973 0.7495 0.0
O322 O 0.03791 0.04155 0.77322 0.0
O323 O 0.02837 0.05466 0.68465 0.0
O324 O 0.01277 0.99809 0.79673 0.0
O325 O 0.01325 0.98235 0.70366 0.0
O326 O 0.98178 0.02571 0.74637 0.0
O327 O 0.96314 0.98938 0.71537 0.0
C328 C 0.96272 0.93762 0.60967 0.0
O329 O 0.96214 0.95651 0.57763 0.0
O330 O 0.97689 0.94175 0.65673 0.0
C331 C 0.99212 0.01833 0.57813 0.0
Tb332 Tb 0.50354 0.01804 0.64637 0.0
C333 C 0.54931 0.99459 0.64315 0.0
Tb334 Tb 0.50792 0.97925 0.7436 0.0
O335 O 0.53059 0.04045 0.69554 0.0
O336 O 0.50918 0.01607 0.74641 0.0
O337 O 0.5357 0.00626 0.60892 0.0
C338 C 0.52193 0.95418 0.83785 0.0
O339 O 0.54254 0.98485 0.69901 0.0
C340 C 0.48498 0.96652 0.63897 0.0
C341 C 0.46202 0.00273 0.74603 0.0
O342 O 0.51935 0.94691 0.77758 0.0
O343 O 0.5162 0.97539 0.84529 0.0
O344 O 0.48113 0.95649 0.69423 0.0
O345 O 0.50223 0.9812 0.64377 0.0
O346 O 0.47539 0.99064 0.77984 0.0
O347 O 0.46899 0.01278 0.69083 0.0
C348 C 0.48977 0.04457 0.55519 0.0
O349 O 0.49416 0.05148 0.6148 0.0
O350 O 0.49352 0.02275 0.54641 0.0
C351 C 0.5265 0.03067 0.75102 0.0
Tb352 Tb 0.52088 0.52545 0.65959 0.0
C353 C 0.47146 0.50476 0.62179 0.0
Tb354 Tb 0.49591 0.48809 0.74694 0.0
O355 O 0.52415 0.49883 0.58088 0.0
O356 O 0.5234 0.49001 0.67806 0.0
O357 O 0.48786 0.52208 0.61286 0.0
C358 C 0.47547 0.44748 0.78673 0.0
O359 O 0.47179 0.48957 0.66862 0.0
C360 C 0.49256 0.53183 0.78595 0.0
C361 C 0.54408 0.50952 0.78547 0.0
O362 O 0.48042 0.466 0.82404 0.0
O363 O 0.48191 0.45191 0.72744 0.0
O364 O 0.49084 0.51464 0.82528 0.0
O365 O 0.4935 0.52346 0.72864 0.0
O366 O 0.53037 0.48974 0.78321 0.0
O367 O 0.54096 0.52721 0.74829 0.0
C368 C 0.54426 0.56387 0.61513 0.0
O369 O 0.55261 0.54415 0.62304 0.0
O370 O 0.52259 0.56186 0.63093 0.0
C371 C 0.52346 0.48176 0.62044 0.0
Tb372 Tb 0.98867 0.50672 0.63802 0.0
C373 C 0.02887 0.4773 0.59173 0.0
Tb374 Tb 0.03271 0.50976 0.71944 0.0
O375 O 0.00454 0.52798 0.56023 0.0
O376 O 0.0179 0.53063 0.65309 0.0
O377 O 0.00621 0.47741 0.59679 0.0
C378 C 0.07436 0.51867 0.76843 0.0
O379 O 0.04284 0.49121 0.62926 0.0
C380 C 0.99786 0.48083 0.75783 0.0
C381 C 0.9924 0.53926 0.76818 0.0
O382 O 0.06407 0.49791 0.75685 0.0
O383 O 0.06123 0.53425 0.75235 0.0
O384 O 0.01283 0.49119 0.79725 0.0
O385 O 0.00416 0.48554 0.70085 0.0
O386 O 0.01413 0.53537 0.77441 0.0
O387 O 0.97941 0.52996 0.72009 0.0
C388 C 0.94568 0.49635 0.6001 0.0
O389 O 0.95187 0.49956 0.66005 0.0
O390 O 0.96364 0.49913 0.56168 0.0
C391 C 0.02191 0.53604 0.59476 0.0
H392 H 0.15956 0.01391 0.40701 0.0
H393 H 0.15395 0.94086 0.34116 0.0
H394 H 0.11661 0.93458 0.40009 0.0
H395 H 0.13614 0.00453 0.56681 0.0
H396 H 0.12106 0.03046 0.57192 0.0
H397 H 0.14672 0.02968 0.52166 0.0
H398 H 0.12474 0.0402 0.42122 0.0
H399 H 0.09925 0.04145 0.47199 0.0
H400 H 0.09878 0.02266 0.39931 0.0
H401 H 0.08027 0.93606 0.46706 0.0
H402 H 0.0474 0.94503 0.53862 0.0
H403 H 0.07702 0.01695 0.56401 0.0
C404 C 0.15027 0.9967 0.40423 0.0
C405 C 0.15956 0.97787 0.3693 0.0
C406 C 0.14715 0.95548 0.36784 0.0
C407 C 0.12593 0.95177 0.40099 0.0
C408 C 0.11739 0.9706 0.43569 0.0
C409 C 0.12914 0.99263 0.43762 0.0
C410 C 0.11651 0.00965 0.48054 0.0
C411 C 0.13097 0.01913 0.53868 0.0
C412 C 0.10939 0.02967 0.44087 0.0
C413 C 0.09586 0.99373 0.50246 0.0
C414 C 0.09666 0.97132 0.4757 0.0
C415 C 0.07945 0.95355 0.48832 0.0
C416 C 0.06084 0.95883 0.52908 0.0
C417 C 0.05964 0.98167 0.55726 0.0
C418 C 0.07751 0.99927 0.5438 0.0
H419 H 0.45342 0.16256 0.42456 0.0
H420 H 0.43852 0.12626 0.2392 0.0
H421 H 0.44793 0.08912 0.28461 0.0
H422 H 0.50134 0.13398 0.45956 0.0
H423 H 0.49495 0.13317 0.54582 0.0
H424 H 0.48538 0.15605 0.49976 0.0
H425 H 0.44352 0.14497 0.53961 0.0
H426 H 0.45297 0.12212 0.58623 0.0
H427 H 0.43098 0.11527 0.52741 0.0
H428 H 0.46165 0.0565 0.3504 0.0
H429 H 0.47685 0.03147 0.43078 0.0
H430 H 0.48251 0.09033 0.5708 0.0
C431 C 0.45206 0.14677 0.3935 0.0
C432 C 0.44549 0.1472 0.32828 0.0
C433 C 0.44351 0.12618 0.2894 0.0
C434 C 0.44888 0.1051 0.31474 0.0
C435 C 0.45588 0.10545 0.37907 0.0
C436 C 0.45723 0.12578 0.41794 0.0
C437 C 0.46565 0.12195 0.48481 0.0
C438 C 0.48817 0.13719 0.49822 0.0
C439 C 0.44717 0.12633 0.53762 0.0
C440 C 0.4694 0.09636 0.47738 0.0
C441 C 0.46357 0.087 0.41634 0.0
C442 C 0.46614 0.06366 0.39836 0.0
C443 C 0.47485 0.04963 0.44409 0.0
C444 C 0.48089 0.05909 0.50661 0.0
C445 C 0.47803 0.08268 0.52326 0.0
H446 H 0.37805 0.54575 0.38838 0.0
H447 H 0.34349 0.47573 0.39944 0.0
H448 H 0.37504 0.46408 0.46306 0.0
H449 H 0.43678 0.52813 0.37673 0.0
H450 H 0.44817 0.5529 0.42649 0.0
H451 H 0.42377 0.5553 0.37712 0.0
H452 H 0.40066 0.56859 0.47951 0.0
H453 H 0.42492 0.56613 0.52917 0.0
H454 H 0.39771 0.55038 0.54894 0.0
H455 H 0.40815 0.4609 0.53335 0.0
H456 H 0.44192 0.46579 0.60219 0.0
H457 H 0.45589 0.53765 0.5449 0.0
C458 C 0.37723 0.52792 0.40372 0.0
C459 C 0.35834 0.51161 0.38851 0.0
C460 C 0.35795 0.48842 0.4094 0.0
C461 C 0.37573 0.48166 0.4459 0.0
C462 C 0.3939 0.49823 0.4608 0.0
C463 C 0.39493 0.52083 0.43998 0.0
C464 C 0.41605 0.5354 0.46475 0.0
C465 C 0.43215 0.5434 0.40787 0.0
C466 C 0.40943 0.55636 0.50818 0.0
C467 C 0.42641 0.5176 0.50402 0.0
C468 C 0.41334 0.49628 0.50087 0.0
C469 C 0.41867 0.47743 0.53565 0.0
C470 C 0.43785 0.48043 0.57487 0.0
C471 C 0.45162 0.50207 0.57873 0.0
C472 C 0.44587 0.52082 0.5423 0.0
H473 H 0.02645 0.36001 0.37017 0.0
H474 H 0.10077 0.36897 0.36442 0.0
H475 H 0.09979 0.40749 0.42221 0.0
H476 H 0.01719 0.42171 0.35237 0.0
H477 H 0.99279 0.42019 0.40818 0.0
H478 H 0.99938 0.39457 0.36007 0.0
H479 H 1.00051 0.37159 0.46528 0.0
H480 H 0.994 0.39712 0.51362 0.0
H481 H 0.01924 0.38297 0.52932 0.0
H482 H 0.09071 0.44336 0.48956 0.0
H483 H 0.07423 0.47393 0.55962 0.0
H484 H 0.00589 0.44105 0.52231 0.0
C485 C 0.04254 0.37013 0.38056 0.0
C486 C 0.06369 0.36146 0.36251 0.0
C487 C 0.08434 0.37538 0.37673 0.0
C488 C 0.08396 0.39724 0.40984 0.0
C489 C 0.06281 0.40502 0.42807 0.0
C490 C 0.04247 0.39194 0.41358 0.0
C491 C 0.02206 0.40359 0.44172 0.0
C492 C 0.00697 0.41042 0.38733 0.0
C493 C 0.00815 0.38788 0.49038 0.0
C494 C 0.0341 0.42498 0.47576 0.0
C495 C 0.05759 0.42561 0.4669 0.0
C496 C 0.07233 0.44317 0.49628 0.0
C497 C 0.0628 0.46042 0.53618 0.0
C498 C 0.03876 0.45992 0.54648 0.0
C499 C 0.02431 0.44208 0.51507 0.0
H500 H 0.85457 0.98075 0.98465 0.0
H501 H 0.84927 0.05546 0.00808 0.0
H502 H 0.88408 0.06282 0.93822 0.0
H503 H 0.9166 0.98587 0.98718 0.0
H504 H 0.91956 0.96194 0.92941 0.0
H505 H 0.89441 0.96195 0.98169 0.0
H506 H 0.86802 0.95777 0.88315 0.0
H507 H 0.89268 0.9569 0.82898 0.0
H508 H 0.87262 0.97826 0.81911 0.0
H509 H 0.91878 0.06188 0.86225 0.0
H510 H 0.95093 0.0528 0.78766 0.0
H511 H 0.93278 0.97871 0.81052 0.0
C512 C 0.86069 0.99867 0.975 0.0
C513 C 0.84914 0.01753 0.00188 0.0
C514 C 0.85797 0.04073 0.98885 0.0
C515 C 0.87765 0.04508 0.94881 0.0
C516 C 0.88839 0.02606 0.92236 0.0
C517 C 0.88028 0.00333 0.93522 0.0
C518 C 0.89518 0.986 0.90176 0.0
C519 C 0.90713 0.97318 0.95298 0.0
C520 C 0.88129 0.96872 0.8555 0.0
C521 C 0.91214 0.00242 0.8647 0.0
C522 C 0.90824 0.0255 0.87846 0.0
C523 C 0.92196 0.04388 0.8511 0.0
C524 C 0.94016 0.03854 0.80869 0.0
C525 C 0.94424 0.01501 0.79298 0.0
C526 C 0.92992 0.99679 0.82126 0.0
H527 H 0.57726 0.84669 0.97618 0.0
H528 H 0.57975 0.88346 0.16519 0.0
H529 H 0.56323 0.91689 0.11828 0.0
H530 H 0.59187 0.89723 0.87851 0.0
H531 H 0.57272 0.88633 0.81502 0.0
H532 H 0.58566 0.86616 0.86352 0.0
H533 H 0.54539 0.84643 0.89437 0.0
H534 H 0.53231 0.86666 0.84648 0.0
H535 H 0.52419 0.86399 0.93132 0.0
H536 H 0.54586 0.94608 0.04933 0.0
H537 H 0.52869 0.96801 0.96539 0.0
H538 H 0.5373 0.91105 0.8237 0.0
C539 C 0.57479 0.86196 0.00755 0.0
C540 C 0.58006 0.86265 0.07413 0.0
C541 C 0.57586 0.88264 0.11398 0.0
C542 C 0.56656 0.90168 0.08773 0.0
C543 C 0.56145 0.90031 0.02178 0.0
C544 C 0.56545 0.88092 0.98236 0.0
C545 C 0.5578 0.88323 0.9137 0.0
C546 C 0.57823 0.88325 0.86482 0.0
C547 C 0.53879 0.86393 0.89544 0.0
C548 C 0.54872 0.90695 0.92044 0.0
C549 C 0.55107 0.91665 0.98294 0.0
C550 C 0.5439 0.93859 0.00034 0.0
C551 C 0.53413 0.95087 0.95252 0.0
C552 C 0.53155 0.94106 0.88848 0.0
C553 C 0.53894 0.91886 0.87247 0.0
H554 H 0.64011 0.46363 0.99824 0.0
H555 H 0.67081 0.53529 0.01579 0.0
H556 H 0.63812 0.54848 0.95956 0.0
H557 H 0.62072 0.46616 0.84049 0.0
H558 H 0.59434 0.44796 0.85353 0.0
H559 H 0.61876 0.44445 0.9015 0.0
H560 H 0.59466 0.45108 0.00751 0.0
H561 H 0.57007 0.45444 0.95981 0.0
H562 H 0.57987 0.47712 0.0186 0.0
H563 H 0.60447 0.55318 0.89035 0.0
H564 H 0.57106 0.54937 0.81949 0.0
H565 H 0.56185 0.47475 0.84922 0.0
C566 C 0.63979 0.48214 0.99106 0.0
C567 C 0.65797 0.49846 0.01159 0.0
C568 C 0.65691 0.52253 0.00139 0.0
C569 C 0.63847 0.53017 0.96917 0.0
C570 C 0.62112 0.51354 0.94811 0.0
C571 C 0.62147 0.49006 0.95936 0.0
C572 C 0.60125 0.47562 0.9292 0.0
C573 C 0.60926 0.45749 0.87816 0.0
C574 C 0.58553 0.46388 0.98193 0.0
C575 C 0.58982 0.49456 0.89767 0.0
C576 C 0.6015 0.51632 0.90929 0.0
C577 C 0.59498 0.53628 0.88181 0.0
C578 C 0.57602 0.53393 0.84147 0.0
C579 C 0.5637 0.51183 0.82935 0.0
C580 C 0.57068 0.49196 0.85831 0.0
H581 H 0.92774 0.6473 0.90457 0.0
H582 H 0.95013 0.63341 0.0963 0.0
H583 H 0.96514 0.59686 0.05201 0.0
H584 H 0.91148 0.58407 0.85378 0.0
H585 H 0.92099 0.58889 0.77083 0.0
H586 H 0.90948 0.61211 0.81966 0.0
H587 H 0.94656 0.63909 0.79608 0.0
H588 H 0.95828 0.61589 0.74813 0.0
H589 H 0.97386 0.62971 0.81584 0.0
H590 H 0.98318 0.56602 0.98362 0.0
H591 H 0.99937 0.54024 0.89805 0.0
H592 H 0.96265 0.57223 0.75172 0.0
C593 C 0.93521 0.63611 0.93732 0.0
C594 C 0.93774 0.64285 0.00371 0.0
C595 C 0.94787 0.62821 0.04545 0.0
C596 C 0.95644 0.60752 0.02067 0.0
C597 C 0.95425 0.60162 0.95446 0.0
C598 C 0.94341 0.61519 0.91361 0.0
C599 C 0.94428 0.60555 0.84382 0.0
C600 C 0.92012 0.59716 0.82068 0.0
C601 C 0.95648 0.62364 0.79833 0.0
C602 C 0.95832 0.58514 0.85117 0.0
C603 C 0.96384 0.58313 0.91543 0.0
C604 C 0.97852 0.56705 0.93344 0.0
C605 C 0.98778 0.55266 0.88455 0.0
C606 C 0.98209 0.55426 0.81869 0.0
C607 C 0.96691 0.57044 0.80198 0.0
H608 H 0.02028 0.1501 0.4733 0.0
H609 H 0.08999 0.13253 0.43184 0.0
H610 H 0.07912 0.09291 0.46786 0.0
H611 H 0.01376 0.1176 0.62557 0.0
H612 H 0.98395 0.10833 0.61367 0.0
H613 H 0.99635 0.13587 0.58386 0.0
H614 H 0.98309 0.12388 0.4683 0.0
H615 H 0.97029 0.09629 0.49641 0.0
H616 H 0.99103 0.09692 0.4297 0.0
H617 H 0.0584 0.05349 0.4817 0.0
H618 H 0.03293 0.01895 0.5123 0.0
H619 H 0.98031 0.0634 0.57655 0.0
C620 C 0.0336 0.13836 0.47353 0.0
C621 C 0.05584 0.14451 0.44653 0.0
C622 C 0.07248 0.12818 0.44841 0.0
C623 C 0.06659 0.10558 0.4696 0.0
C624 C 0.04428 0.09982 0.49212 0.0
C625 C 0.02833 0.11598 0.49748 0.0
C626 C 0.00571 0.10517 0.52573 0.0
C627 C 0.9996 0.11745 0.59111 0.0
C628 C 0.9864 0.1056 0.47712 0.0
C629 C 0.0115 0.08034 0.53431 0.0
C630 C 0.03359 0.07755 0.51198 0.0
C631 C 0.04162 0.0556 0.5033 0.0
C632 C 0.02708 0.03608 0.52098 0.0
C633 C 0.00541 0.03876 0.55079 0.0
C634 C 0.9973 0.06113 0.55659 0.0
H635 H 0.3603 0.97679 0.51051 0.0
H636 H 0.39335 0.99832 0.32802 0.0
H637 H 0.43081 0.99113 0.36965 0.0
H638 H 0.4043 0.00272 0.614 0.0
H639 H 0.40138 0.97931 0.67006 0.0
H640 H 0.37715 0.98562 0.62488 0.0
H641 H 0.37261 0.94246 0.58055 0.0
H642 H 0.39713 0.93634 0.62505 0.0
H643 H 0.39646 0.93033 0.53828 0.0
H644 H 0.46461 0.98262 0.4309 0.0
H645 H 0.49317 0.97561 0.51183 0.0
H646 H 0.43849 0.95927 0.65417 0.0
C647 C 0.37541 0.97978 0.47919 0.0
C648 C 0.37394 0.98822 0.41616 0.0
C649 C 0.39412 0.9922 0.37686 0.0
C650 C 0.41544 0.98794 0.39977 0.0
C651 C 0.4163 0.9796 0.46197 0.0
C652 C 0.39689 0.97565 0.50137 0.0
C653 C 0.40277 0.96753 0.56729 0.0
C654 C 0.39601 0.98484 0.62228 0.0
C655 C 0.39158 0.94268 0.57841 0.0
C656 C 0.42853 0.96783 0.55891 0.0
C657 C 0.43593 0.97464 0.49754 0.0
C658 C 0.45905 0.97712 0.47898 0.0
C659 C 0.4751 0.97312 0.52504 0.0
C660 C 0.46791 0.96692 0.58866 0.0
C661 C 0.44434 0.96366 0.60534 0.0
H662 H 0.45419 0.37805 0.42115 0.0
H663 H 0.47067 0.33172 0.56994 0.0
H664 H 0.49243 0.36498 0.62775 0.0
H665 H 0.50746 0.41191 0.41461 0.0
H666 H 0.49566 0.43923 0.40358 0.0
H667 H 0.48045 0.41212 0.37551 0.0
H668 H 0.44456 0.42184 0.44428 0.0
H669 H 0.45949 0.44913 0.47204 0.0
H670 H 0.44705 0.42868 0.53028 0.0
H671 H 0.51399 0.40287 0.66588 0.0
H672 H 0.53058 0.44365 0.68763 0.0
H673 H 0.49947 0.46491 0.51433 0.0
C674 C 0.46196 0.37496 0.46661 0.0
C675 C 0.46074 0.35232 0.49114 0.0
C676 C 0.47156 0.34892 0.55008 0.0
C677 C 0.48394 0.36767 0.58319 0.0
C678 C 0.48531 0.38964 0.5566 0.0
C679 C 0.47438 0.39342 0.5001 0.0
C680 C 0.47865 0.41864 0.48135 0.0
C681 C 0.49131 0.42057 0.41482 0.0
C682 C 0.4561 0.43027 0.48208 0.0
C683 C 0.49382 0.42847 0.53596 0.0
C684 C 0.49756 0.41144 0.57871 0.0
C685 C 0.51114 0.41636 0.63286 0.0
C686 C 0.52057 0.43945 0.64461 0.0
C687 C 0.51626 0.45721 0.60256 0.0
C688 C 0.50314 0.45155 0.54689 0.0
H689 H 0.15645 0.55085 0.53113 0.0
H690 H 0.14315 0.5823 0.34975 0.0
H691 H 0.10262 0.58296 0.38332 0.0
H692 H 0.1068 0.5121 0.53413 0.0
H693 H 0.10209 0.5145 0.62118 0.0
H694 H 0.13062 0.51948 0.58679 0.0
H695 H 0.13471 0.55966 0.64804 0.0
H696 H 0.10553 0.55613 0.67897 0.0
H697 H 0.11525 0.58112 0.6327 0.0
H698 H 0.06275 0.57569 0.42956 0.0
H699 H 0.02669 0.5614 0.48657 0.0
H700 H 0.06558 0.53367 0.63504 0.0
C701 C 0.14511 0.55811 0.49868 0.0
C702 C 0.1532 0.56675 0.43803 0.0
C703 C 0.13766 0.57614 0.39723 0.0
C704 C 0.11449 0.57645 0.41564 0.0
C705 C 0.10703 0.56733 0.475 0.0
C706 C 0.12188 0.55838 0.51599 0.0
C707 C 0.10921 0.54818 0.575 0.0
C708 C 0.11237 0.52202 0.57947 0.0
C709 C 0.11668 0.56212 0.63737 0.0
C710 C 0.08484 0.55191 0.55945 0.0
C711 C 0.08398 0.5633 0.50201 0.0
C712 C 0.06325 0.5672 0.4753 0.0
C713 C 0.04289 0.559 0.50789 0.0
C714 C 0.04343 0.54712 0.56647 0.0
C715 C 0.06467 0.54375 0.59262 0.0
H716 H 0.93444 0.87891 0.94773 0.0
H717 H 0.97638 0.82868 0.85209 0.0
H718 H 0.9987 0.86069 0.79433 0.0
H719 H 0.93446 0.91341 0.80227 0.0
H720 H 0.93492 0.94139 0.8443 0.0
H721 H 0.92048 0.916 0.88139 0.0
H722 H 0.94417 0.92112 0.98386 0.0
H723 H 0.95827 0.94796 0.95445 0.0
H724 H 0.975 0.92503 0.97687 0.0
H725 H 0.01772 0.89856 0.75281 0.0
H726 H 0.03057 0.93924 0.72466 0.0
H727 H 0.97647 0.9647 0.84905 0.0
C728 C 0.94817 0.8747 0.91402 0.0
C729 C 0.95384 0.8515 0.90419 0.0
C730 C 0.97174 0.84642 0.85954 0.0
C731 C 0.98455 0.86446 0.82697 0.0
C732 C 0.97894 0.88732 0.83915 0.0
C733 C 0.96091 0.89241 0.88063 0.0
C734 C 0.95797 0.91828 0.8837 0.0
C735 C 0.93561 0.92251 0.85117 0.0
C736 C 0.95891 0.9287 0.9539 0.0
C737 C 0.97853 0.92731 0.84282 0.0
C738 C 0.98998 0.90908 0.8158 0.0
C739 C 0.00897 0.91295 0.77397 0.0
C740 C 0.01625 0.93604 0.75876 0.0
C741 C 0.00489 0.9549 0.78649 0.0
C742 C 0.98589 0.95054 0.82927 0.0
H743 H 0.65043 0.02143 0.88532 0.0
H744 H 0.61674 0.00202 0.06889 0.0
H745 H 0.57947 0.00855 0.02499 0.0
H746 H 0.6144 0.06766 0.85355 0.0
H747 H 0.61415 0.06104 0.76701 0.0
H748 H 0.63847 0.05533 0.813 0.0
H749 H 0.63422 0.01185 0.77114 0.0
H750 H 0.61029 0.01788 0.72432 0.0
H751 H 0.607 0.99482 0.78149 0.0
H752 H 0.54587 0.01607 0.96119 0.0
H753 H 0.51769 0.0224 0.87845 0.0
H754 H 0.57302 0.03776 0.73736 0.0
C755 C 0.63524 0.01879 0.91648 0.0
C756 C 0.63651 0.01107 0.9804 0.0
C757 C 0.61618 0.00752 0.01936 0.0
C758 C 0.59494 0.01142 0.99516 0.0
C759 C 0.59431 0.01906 0.9321 0.0
C760 C 0.61388 0.02268 0.89316 0.0
C761 C 0.60831 0.03028 0.82642 0.0
C762 C 0.6195 0.05505 0.81432 0.0
C763 C 0.61536 0.01264 0.77271 0.0
C764 C 0.58252 0.02995 0.8337 0.0
C765 C 0.57485 0.02362 0.89527 0.0
C766 C 0.55165 0.0212 0.91295 0.0
C767 C 0.53582 0.0248 0.86586 0.0
C768 C 0.54331 0.03054 0.80211 0.0
C769 C 0.56694 0.03371 0.78624 0.0
H770 H 0.55847 0.63412 0.99884 0.0
H771 H 0.54808 0.6809 0.84509 0.0
H772 H 0.5265 0.64832 0.78388 0.0
H773 H 0.56704 0.58393 0.89537 0.0
H774 H 0.5521 0.56326 0.9491 0.0
H775 H 0.56638 0.59015 0.98198 0.0
H776 H 0.52895 0.60105 0.0398 0.0
H777 H 0.51427 0.57408 0.00866 0.0
H778 H 0.50351 0.60159 0.99337 0.0
H779 H 0.50583 0.61057 0.74033 0.0
H780 H 0.48893 0.5701 0.71567 0.0
H781 H 0.51347 0.54832 0.89764 0.0
C782 C 0.55193 0.63746 0.95189 0.0
C783 C 0.55502 0.65999 0.92648 0.0
C784 C 0.54578 0.66377 0.86551 0.0
C785 C 0.53354 0.6454 0.83047 0.0
C786 C 0.53063 0.62345 0.85735 0.0
C787 C 0.53962 0.61942 0.91658 0.0
C788 C 0.53415 0.59426 0.93484 0.0
C789 C 0.55622 0.58217 0.94062 0.0
C790 C 0.51934 0.59267 0.9979 0.0
C791 C 0.52071 0.58468 0.87648 0.0
C792 C 0.51879 0.6018 0.83239 0.0
C793 C 0.50725 0.59704 0.77446 0.0
C794 C 0.49777 0.57408 0.76081 0.0
C795 C 0.50004 0.55627 0.80466 0.0
C796 C 0.5113 0.56173 0.86365 0.0
H797 H 0.87769 0.49111 0.94199 0.0
H798 H 0.85005 0.43283 0.81819 0.0
H799 H 0.88788 0.43157 0.76147 0.0
H800 H 0.91744 0.51915 0.81938 0.0
H801 H 0.93896 0.52736 0.87873 0.0
H802 H 0.90914 0.52507 0.9033 0.0
H803 H 0.91756 0.49595 0.99046 0.0
H804 H 0.94725 0.49785 0.96449 0.0
H805 H 0.93071 0.46976 0.9654 0.0
H806 H 0.92876 0.4366 0.71943 0.0
H807 H 0.97023 0.44666 0.69744 0.0
H808 H 0.97169 0.4992 0.8557 0.0
C809 C 0.87955 0.47843 0.90201 0.0
C810 C 0.86104 0.46224 0.88361 0.0
C811 C 0.86411 0.44543 0.83243 0.0
C812 C 0.88546 0.44463 0.80006 0.0
C813 C 0.90353 0.46058 0.82019 0.0
C814 C 0.90081 0.47716 0.87003 0.0
C815 C 0.92326 0.49136 0.88494 0.0
C816 C 0.92212 0.51726 0.8707 0.0
C817 C 0.93009 0.48854 0.95551 0.0
C818 C 0.93913 0.47983 0.83671 0.0
C819 C 0.92735 0.46244 0.79892 0.0
C820 C 0.93821 0.44999 0.74917 0.0
C821 C 0.9617 0.45567 0.73732 0.0
C822 C 0.97403 0.47324 0.77596 0.0
C823 C 0.96268 0.48527 0.82668 0.0
H824 H 0.08436 0.15794 0.9954 0.0
H825 H 0.07183 0.20926 0.85617 0.0
H826 H 0.06445 0.17738 0.77169 0.0
H827 H 0.11084 0.11598 0.88129 0.0
H828 H 0.09679 0.09119 0.92201 0.0
H829 H 0.10435 0.11822 0.96754 0.0
H830 H 0.06216 0.11906 0.00844 0.0
H831 H 0.05447 0.09214 0.96308 0.0
H832 H 0.0398 0.11759 0.94997 0.0
H833 H 0.05585 0.13928 0.70517 0.0
H834 H 0.04369 0.09872 0.66589 0.0
H835 H 0.05999 0.0731 0.85196 0.0
C836 C 0.0808 0.16255 0.94653 0.0
C837 C 0.07915 0.18606 0.93171 0.0
C838 C 0.07343 0.19134 0.86808 0.0
C839 C 0.06933 0.17338 0.81991 0.0
C840 C 0.07088 0.1503 0.83649 0.0
C841 C 0.07639 0.14491 0.8985 0.0
C842 C 0.07455 0.11877 0.90652 0.0
C843 C 0.09804 0.11056 0.92013 0.0
C844 C 0.05668 0.11148 0.96014 0.0
C845 C 0.06659 0.11017 0.8398 0.0
C846 C 0.065 0.12855 0.79954 0.0
C847 C 0.05712 0.12481 0.73631 0.0
C848 C 0.05014 0.1018 0.71452 0.0
C849 C 0.05065 0.08299 0.75629 0.0
C850 C 0.05952 0.0872 0.81899 0.0
H851 H 0.35095 0.9773 0.97571 0.0
H852 H 0.32109 0.03287 0.8826 0.0
H853 H 0.35483 0.0373 0.80699 0.0
H854 H 0.40701 0.00332 0.97363 0.0
H855 H 0.42038 0.9766 0.95788 0.0
H856 H 0.39287 0.97591 0.99944 0.0
H857 H 0.37567 0.94559 0.91284 0.0
H858 H 0.40325 0.94597 0.87143 0.0
H859 H 0.37852 0.95207 0.82783 0.0
H860 H 0.393 0.03721 0.74629 0.0
H861 H 0.43248 0.03291 0.70572 0.0
H862 H 0.4376 0.9779 0.84079 0.0
C863 C 0.35118 0.98994 0.93817 0.0
C864 C 0.33325 0.00455 0.93442 0.0
C865 C 0.33459 0.02144 0.8861 0.0
C866 C 0.35365 0.02403 0.84291 0.0
C867 C 0.37123 0.00964 0.84885 0.0
C868 C 0.37011 0.99286 0.89515 0.0
C869 C 0.39191 0.98068 0.89439 0.0
C870 C 0.40373 0.98436 0.96024 0.0
C871 C 0.38704 0.95453 0.87548 0.0
C872 C 0.40569 0.99354 0.84133 0.0
C873 C 0.39338 0.00998 0.81513 0.0
C874 C 0.40273 0.02431 0.76628 0.0
C875 C 0.42522 0.02174 0.74364 0.0
C876 C 0.43823 0.00511 0.77018 0.0
C877 C 0.42819 0.99083 0.8196 0.0
H878 H 0.42762 0.35502 0.04515 0.0
H879 H 0.42371 0.30194 0.88818 0.0
H880 H 0.43631 0.3323 0.80916 0.0
H881 H 0.40858 0.40259 0.95716 0.0
H882 H 0.42849 0.42425 0.99612 0.0
H883 H 0.41762 0.39858 0.0385 0.0
H884 H 0.45915 0.38892 0.05614 0.0
H885 H 0.47016 0.41448 0.0136 0.0
H886 H 0.47845 0.38613 0.98675 0.0
H887 H 0.45057 0.36865 0.74851 0.0
H888 H 0.4663 0.40749 0.7117 0.0
H889 H 0.46177 0.43602 0.91018 0.0
C890 C 0.4289 0.34987 0.99391 0.0
C891 C 0.4243 0.32628 0.97232 0.0
C892 C 0.42698 0.32001 0.90534 0.0
C893 C 0.43408 0.33711 0.86032 0.0
C894 C 0.43862 0.36025 0.88343 0.0
C895 C 0.43621 0.36658 0.94877 0.0
C896 C 0.44349 0.39227 0.96208 0.0
C897 C 0.42334 0.40518 0.9901 0.0
C898 C 0.46403 0.39563 0.0073 0.0
C899 C 0.45029 0.39955 0.89395 0.0
C900 C 0.44731 0.38089 0.84912 0.0
C901 C 0.45289 0.38336 0.7832 0.0
C902 C 0.46182 0.40545 0.76278 0.0
C903 C 0.46519 0.42464 0.80824 0.0
C904 C 0.45925 0.42163 0.87445 0.0
H905 H 0.18805 0.49211 0.94048 0.0
H906 H 0.20377 0.56734 0.96389 0.0
H907 H 0.17152 0.57325 0.89518 0.0
H908 H 0.1666 0.49168 0.76961 0.0
H909 H 0.14451 0.46852 0.78611 0.0
H910 H 0.1713 0.47003 0.82719 0.0
H911 H 0.14919 0.46993 0.93838 0.0
H912 H 0.1224 0.46883 0.89786 0.0
H913 H 0.12986 0.49199 0.95765 0.0
H914 H 0.13401 0.57142 0.84237 0.0
H915 H 0.09575 0.56175 0.7969 0.0
H916 H 0.10414 0.48777 0.80405 0.0
C917 C 0.18509 0.50981 0.92964 0.0
C918 C 0.19862 0.52925 0.9573 0.0
C919 C 0.19406 0.55213 0.94226 0.0
C920 C 0.17561 0.5557 0.90362 0.0
C921 C 0.16201 0.53621 0.87969 0.0
C922 C 0.16674 0.51368 0.89095 0.0
C923 C 0.14837 0.49586 0.86367 0.0
C924 C 0.15829 0.48062 0.80834 0.0
C925 C 0.13678 0.48078 0.91762 0.0
C926 C 0.1321 0.51195 0.83794 0.0
C927 C 0.14041 0.53515 0.84742 0.0
C928 C 0.12761 0.55333 0.83297 0.0
C929 C 0.10587 0.54766 0.80744 0.0
C930 C 0.09726 0.52405 0.79573 0.0
C931 C 0.11054 0.50598 0.81129 0.0
H932 H 0.90193 0.8435 0.36477 0.0
H933 H 0.91823 0.78993 0.49278 0.0
H934 H 0.9312 0.8207 0.57524 0.0
H935 H 0.94935 0.88122 0.39376 0.0
H936 H 0.93545 0.90775 0.39042 0.0
H937 H 0.92406 0.88167 0.34658 0.0
H938 H 0.88469 0.88412 0.40614 0.0
H939 H 0.89588 0.91043 0.44985 0.0
H940 H 0.88308 0.88586 0.49391 0.0
H941 H 0.94659 0.85759 0.63767 0.0
H942 H 0.96308 0.89714 0.67401 0.0
H943 H 0.93647 0.92603 0.50416 0.0
C944 C 0.90735 0.83813 0.41114 0.0
C945 C 0.90875 0.81427 0.4227 0.0
C946 C 0.91692 0.8081 0.483 0.0
C947 C 0.92422 0.82545 0.53018 0.0
C948 C 0.92315 0.84885 0.51635 0.0
C949 C 0.91474 0.85516 0.45837 0.0
C950 C 0.91737 0.88141 0.45224 0.0
C951 C 0.93246 0.8884 0.39222 0.0
C952 C 0.89385 0.89102 0.45045 0.0
C953 C 0.92924 0.88895 0.51488 0.0
C954 C 0.93217 0.86998 0.55175 0.0
C955 C 0.94406 0.87257 0.60965 0.0
C956 C 0.95341 0.89505 0.62981 0.0
C957 C 0.95092 0.91454 0.59186 0.0
C958 C 0.93837 0.91145 0.5344 0.0
H959 H 0.6598 0.02302 0.41369 0.0
H960 H 0.69318 0.97169 0.51477 0.0
H961 H 0.65909 0.96559 0.58847 0.0
H962 H 0.63009 0.04794 0.55727 0.0
H963 H 0.60505 0.05177 0.51197 0.0
H964 H 0.63284 0.05335 0.47156 0.0
H965 H 0.6177 0.02103 0.38747 0.0
H966 H 0.58999 0.01912 0.42808 0.0
H967 H 0.60507 0.99333 0.41571 0.0
H968 H 0.62021 0.96369 0.64721 0.0
H969 H 0.58029 0.9664 0.68664 0.0
H970 H 0.57263 0.01881 0.54555 0.0
C971 C 0.66026 0.01097 0.45246 0.0
C972 C 0.67932 0.99802 0.4589 0.0
C973 C 0.67882 0.98182 0.50895 0.0
C974 C 0.65955 0.9783 0.55111 0.0
C975 C 0.6409 0.99107 0.54253 0.0
C976 C 0.64119 0.00718 0.4946 0.0
C977 C 0.6186 0.01783 0.4932 0.0
C978 C 0.62185 0.04429 0.50948 0.0
C979 C 0.60718 0.0125 0.4272 0.0
C980 C 0.60536 0.00494 0.54714 0.0
C981 C 0.61854 0.98971 0.57539 0.0
C982 C 0.6098 0.97564 0.62555 0.0
C983 C 0.58706 0.97728 0.64754 0.0
C984 C 0.57323 0.99277 0.61913 0.0
C985 C 0.58264 0.00673 0.56823 0.0
H986 H 0.56341 0.68567 0.44639 0.0
H987 H 0.63651 0.68079 0.45724 0.0
H988 H 0.62882 0.64604 0.52356 0.0
H989 H 0.54808 0.6647 0.61531 0.0
H990 H 0.52171 0.64932 0.58772 0.0
H991 H 0.53312 0.67584 0.55001 0.0
H992 H 0.53211 0.65368 0.43736 0.0
H993 H 0.52117 0.62704 0.47463 0.0
H994 H 0.5471 0.62781 0.42495 0.0
H995 H 0.6132 0.60845 0.572 0.0
H996 H 0.59064 0.57273 0.60942 0.0
H997 H 0.52778 0.60316 0.57252 0.0
C998 C 0.57786 0.67795 0.46498 0.0
C999 C 0.60058 0.68599 0.44649 0.0
C1000 C 0.61895 0.67484 0.47027 0.0
C1001 C 0.61476 0.65516 0.50823 0.0
C1002 C 0.59212 0.64707 0.52301 0.0
C1003 C 0.57397 0.65841 0.50337 0.0
C1004 C 0.55123 0.64521 0.52169 0.0
C1005 C 0.53774 0.65963 0.57166 0.0
C1006 C 0.53709 0.63801 0.46104 0.0
C1007 C 0.55944 0.62415 0.55204 0.0
C1008 C 0.58309 0.62563 0.55269 0.0
C1009 C 0.59468 0.60734 0.57319 0.0
C1010 C 0.58176 0.58709 0.59386 0.0
C1011 C 0.55755 0.58537 0.59409 0.0
C1012 C 0.54629 0.60422 0.57358 0.0
H1013 H 0.85069 0.46231 0.33822 0.0
H1014 H 0.79888 0.47502 0.48729 0.0
H1015 H 0.82924 0.48291 0.56908 0.0
H1016 H 0.88927 0.43465 0.43782 0.0
H1017 H 0.9145 0.44857 0.39815 0.0
H1018 H 0.88849 0.44228 0.35391 0.0
H1019 H 0.88961 0.48592 0.3261 0.0
H1020 H 0.91556 0.49236 0.37032 0.0
H1021 H 0.89103 0.50812 0.39109 0.0
H1022 H 0.86615 0.48948 0.63393 0.0
H1023 H 0.90581 0.49731 0.67324 0.0
H1024 H 0.93248 0.48241 0.47815 0.0
C1025 C 0.84569 0.46632 0.38838 0.0
C1026 C 0.82249 0.46763 0.40701 0.0
C1027 C 0.81661 0.47372 0.47248 0.0
C1028 C 0.8337 0.47815 0.51906 0.0
C1029 C 0.85652 0.47669 0.49889 0.0
C1030 C 0.86246 0.47111 0.43484 0.0
C1031 C 0.88811 0.47214 0.42401 0.0
C1032 C 0.89552 0.44797 0.4022 0.0
C1033 C 0.89657 0.49075 0.375 0.0
C1034 C 0.89585 0.4793 0.49191 0.0
C1035 C 0.87746 0.48155 0.53487 0.0
C1036 C 0.88062 0.48788 0.60055 0.0
C1037 C 0.90315 0.49228 0.62243 0.0
C1038 C 0.92206 0.49067 0.57843 0.0
C1039 C 0.91828 0.48394 0.51266 0.0
loop_
_geom_bond_atom_site_label_1
_geom_bond_atom_site_label_2
_geom_bond_distance
_geom_bond_site_symmetry_2
_ccdc_geom_bond_type
C0 C1 1.386 . S
C0 C2 1.397 . S
C0 H24 0.931 . S
C1 C0 1.386 . S
C1 C5 1.397 . S
C2 C0 1.397 . S
C2 C3 1.384 . S
C2 H25 0.930 . S
C3 C2 1.384 . S
C3 C4 1.377 . S
C3 C6 1.481 1_556 S
C4 C3 1.377 . S
C4 C5 1.389 . S
C4 H26 0.929 . S
C5 C1 1.397 . S
C5 C4 1.389 . S
C5 H27 0.931 . S
C6 C3 1.481 1_554 S
C6 C7 1.387 1_554 S
C6 C11 1.390 . S
C7 C6 1.387 1_556 S
C7 C8 1.401 1_556 S
C7 H28 0.930 . S
C8 C7 1.401 1_554 S
C8 C9 1.376 . S
C8 C17 1.511 . S
C9 C8 1.376 . S
C9 C10 1.392 . S
C9 H30 0.931 . S
C10 C9 1.392 . S
C10 C11 1.361 . S
C10 C12 1.500 . S
C11 C6 1.390 . S
C11 C10 1.361 . S
C11 H29 0.931 . S
C12 C10 1.500 . S
C12 C13 1.371 . S
C12 C14 1.365 . S
C13 C12 1.371 . S
C13 C23 1.386 . S
C13 H31 0.931 . S
C14 C12 1.365 . S
C14 C15 1.409 . S
C14 H32 0.929 . S
C15 C14 1.409 . S
C15 C16 1.380 . S
C15 H33 0.930 . S
C16 C15 1.380 . S
C16 C23 1.357 . S
C17 C8 1.511 . S
C17 C18 1.341 1_554 S
C17 C19 1.371 . S
C18 C17 1.341 1_556 S
C18 C22 1.394 . S
C18 H34 0.930 . S
C19 C17 1.371 . S
C19 C20 1.392 . S
C19 H35 0.931 . S
C20 C19 1.392 . S
C20 C21 1.331 . S
C20 H38 0.932 . S
C21 C20 1.331 . S
C21 C22 1.336 1_554 S
C22 C18 1.394 . S
C22 C21 1.336 1_556 S
C22 H37 0.929 . S
C23 C13 1.386 . S
C23 C16 1.357 . S
C23 H36 0.928 . S
H24 C0 0.931 . S
H25 C2 0.930 . S
H26 C4 0.929 . S
H27 C5 0.931 . S
H28 C7 0.930 . S
H29 C11 0.931 . S
H30 C9 0.931 . S
H31 C13 0.931 . S
H32 C14 0.929 . S
H33 C15 0.930 . S
H34 C18 0.930 . S
H35 C19 0.931 . S
H36 C23 0.928 . S
H37 C22 0.929 . S
H38 C20 0.932 . S
C39 C40 1.386 . S
C39 C41 1.397 . S
C39 H63 0.931 . S
C40 C39 1.386 . S
C40 C44 1.397 . S
C41 C39 1.397 . S
C41 C42 1.384 . S
C41 H64 0.930 . S
C42 C41 1.384 . S
C42 C43 1.377 . S
C42 C45 1.481 . S
C43 C42 1.377 . S
C43 C44 1.389 . S
C43 H65 0.929 . S
C44 C40 1.397 . S
C44 C43 1.389 . S
C44 H66 0.931 . S
C45 C42 1.481 . S
C45 C46 1.387 . S
C45 C50 1.390 1_556 S
C46 C45 1.387 . S
C46 C47 1.401 1_556 S
C46 H67 0.930 . S
C47 C46 1.401 1_554 S
C47 C48 1.376 . S
C47 C56 1.511 1_554 S
C48 C47 1.376 . S
C48 C49 1.392 . S
C48 H69 0.931 . S
C49 C48 1.392 . S
C49 C50 1.361 . S
C49 C51 1.500 . S
C50 C45 1.390 1_554 S
C50 C49 1.361 . S
C50 H68 0.931 . S
C51 C49 1.500 . S
C51 C52 1.371 . S
C51 C53 1.365 . S
C52 C51 1.371 . S
C52 C62 1.386 . S
C52 H70 0.931 . S
C53 C51 1.365 . S
C53 C54 1.409 . S
C53 H71 0.929 . S
C54 C53 1.409 . S
C54 C55 1.380 . S
C54 H72 0.930 . S
C55 C54 1.380 . S
C55 C62 1.357 . S
C56 C47 1.511 1_556 S
C56 C57 1.341 . S
C56 C58 1.371 1_556 S
C57 C56 1.341 . S
C57 C61 1.394 . S
C57 H73 0.930 . S
C58 C56 1.371 1_554 S
C58 C59 1.392 . S
C58 H74 0.931 . S
C59 C58 1.392 . S
C59 C60 1.331 1_554 S
C59 H77 0.932 . S
C60 C59 1.331 1_556 S
C60 C61 1.336 . S
C61 C57 1.394 . S
C61 C60 1.336 . S
C61 H76 0.929 . S
C62 C52 1.386 . S
C62 C55 1.357 . S
C62 H75 0.928 . S
H63 C39 0.931 . S
H64 C41 0.930 . S
H65 C43 0.929 . S
H66 C44 0.931 . S
H67 C46 0.930 . S
H68 C50 0.931 . S
H69 C48 0.931 . S
H70 C52 0.931 . S
H71 C53 0.929 . S
H72 C54 0.930 . S
H73 C57 0.930 . S
H74 C58 0.931 . S
H75 C62 0.928 . S
H76 C61 0.929 . S
H77 C59 0.932 . S
C78 C79 1.395 . S
C78 C80 1.397 . S
C78 H102 0.931 . S
C79 C78 1.395 . S
C79 C83 1.389 1_565 S
C80 C78 1.397 . S
C80 C81 1.388 . S
C80 H103 0.930 . S
C81 C80 1.388 . S
C81 C82 1.372 1_566 S
C81 C84 1.478 1_556 S
C82 C81 1.372 1_544 S
C82 C83 1.389 1_554 S
C82 H104 0.929 . S
C83 C79 1.389 1_545 S
C83 C82 1.389 1_556 S
C83 H105 0.931 . S
C84 C81 1.478 1_554 S
C84 C85 1.391 . S
C84 C89 1.391 . S
C85 C84 1.391 . S
C85 C86 1.399 . S
C85 H106 0.930 1_554 S
C86 C85 1.399 . S
C86 C87 1.376 . S
C86 C95 1.515 . S
C87 C86 1.376 . S
C87 C88 1.388 . S
C87 H108 0.939 . S
C88 C87 1.388 . S
C88 C89 1.362 . S
C88 C90 1.499 1_565 S
C89 C84 1.391 . S
C89 C88 1.362 . S
C89 H107 0.930 . S
C90 C88 1.499 1_545 S
C90 C91 1.360 1_545 S
C90 C92 1.376 . S
C91 C90 1.360 1_565 S
C91 C101 1.386 . S
C91 H109 0.931 . S
C92 C90 1.376 . S
C92 C93 1.409 . S
C92 H110 0.929 . S
C93 C92 1.409 . S
C93 C94 1.379 . S
C93 H111 0.930 . S
C94 C93 1.379 . S
C94 C101 1.358 1_545 S
C95 C86 1.515 . S
C95 C96 1.341 . S
C95 C97 1.371 1_565 S
C96 C95 1.341 . S
C96 C100 1.394 1_554 S
C96 H112 0.930 1_554 S
C97 C95 1.371 1_545 S
C97 C98 1.392 . S
C97 H113 0.931 . S
C98 C97 1.392 . S
C98 C99 1.323 1_545 S
C98 H116 0.932 . S
C99 C98 1.323 1_565 S
C99 C100 1.342 1_554 S
C100 C96 1.394 1_556 S
C100 C99 1.342 1_556 S
C100 H115 0.929 . S
C101 C91 1.386 . S
C101 C94 1.358 1_565 S
C101 H114 0.928 . S
H102 C78 0.931 . S
H103 C80 0.930 . S
H104 C82 0.929 . S
H105 C83 0.931 . S
H106 C85 0.930 1_556 S
H107 C89 0.930 . S
H108 C87 0.939 . S
H109 C91 0.931 . S
H110 C92 0.929 . S
H111 C93 0.930 . S
H112 C96 0.930 1_556 S
H113 C97 0.931 . S
H114 C101 0.928 . S
H115 C100 0.929 . S
H116 C98 0.932 . S
C117 C118 1.386 . S
C117 C119 1.397 . S
C117 H141 0.931 . S
C118 C117 1.386 . S
C118 C122 1.397 . S
C119 C117 1.397 . S
C119 C120 1.384 . S
C119 H142 0.930 . S
C120 C119 1.384 . S
C120 C121 1.377 . S
C120 C123 1.481 . S
C121 C120 1.377 . S
C121 C122 1.389 . S
C121 H143 0.929 . S
C122 C118 1.397 . S
C122 C121 1.389 . S
C122 H144 0.931 . S
C123 C120 1.481 . S
C123 C124 1.387 . S
C123 C128 1.390 . S
C124 C123 1.387 . S
C124 C125 1.401 . S
C124 H145 0.930 . S
C125 C124 1.401 . S
C125 C126 1.376 . S
C125 C134 1.511 . S
C126 C125 1.376 . S
C126 C127 1.392 . S
C126 H147 0.931 1_554 S
C127 C126 1.392 . S
C127 C128 1.361 . S
C127 C129 1.500 1_554 S
C128 C123 1.390 . S
C128 C127 1.361 . S
C128 H146 0.931 . S
C129 C127 1.500 1_556 S
C129 C130 1.371 . S
C129 C131 1.365 . S
C130 C129 1.371 . S
C130 C140 1.386 . S
C130 H148 0.931 . S
C131 C129 1.365 . S
C131 C132 1.409 . S
C131 H149 0.929 1_556 S
C132 C131 1.409 . S
C132 C133 1.380 . S
C132 H150 0.930 . S
C133 C132 1.380 . S
C133 C140 1.357 . S
C134 C125 1.511 . S
C134 C135 1.341 . S
C134 C136 1.371 1_554 S
C135 C134 1.341 . S
C135 C139 1.394 . S
C135 H151 0.930 . S
C136 C134 1.371 1_556 S
C136 C137 1.392 . S
C136 H152 0.931 . S
C137 C136 1.392 . S
C137 C138 1.331 1_556 S
C137 H155 0.932 . S
C138 C137 1.331 1_554 S
C138 C139 1.336 . S
C139 C135 1.394 . S
C139 C138 1.336 . S
C139 H154 0.929 . S
C140 C130 1.386 . S
C140 C133 1.357 . S
C140 H153 0.928 . S
H141 C117 0.931 . S
H142 C119 0.930 . S
H143 C121 0.929 . S
H144 C122 0.931 . S
H145 C124 0.930 . S
H146 C128 0.931 . S
H147 C126 0.931 1_556 S
H148 C130 0.931 . S
H149 C131 0.929 1_554 S
H150 C132 0.930 . S
H151 C135 0.930 . S
H152 C136 0.931 . S
H153 C140 0.928 . S
H154 C139 0.929 . S
H155 C137 0.932 . S
C156 C157 1.386 . S
C156 C158 1.397 . S
C156 H180 0.931 . S
C157 C156 1.386 . S
C157 C161 1.397 . S
C158 C156 1.397 . S
C158 C159 1.384 . S
C158 H181 0.930 . S
C159 C158 1.384 . S
C159 C160 1.377 . S
C159 C162 1.481 . S
C160 C159 1.377 . S
C160 C161 1.389 . S
C160 H182 0.929 . S
C161 C157 1.397 . S
C161 C160 1.389 . S
C161 H183 0.931 . S
C162 C159 1.481 . S
C162 C163 1.387 . S
C162 C167 1.390 . S
C163 C162 1.387 . S
C163 C164 1.401 . S
C163 H184 0.930 . S
C164 C163 1.401 . S
C164 C165 1.376 . S
C164 C173 1.511 . S
C165 C164 1.376 . S
C165 C166 1.392 . S
C165 H186 0.931 . S
C166 C165 1.392 . S
C166 C167 1.361 . S
C166 C168 1.500 . S
C167 C162 1.390 . S
C167 C166 1.361 . S
C167 H185 0.931 . S
C168 C166 1.500 . S
C168 C169 1.371 . S
C168 C170 1.365 . S
C169 C168 1.371 . S
C169 C179 1.386 . S
C169 H187 0.931 . S
C170 C168 1.365 . S
C170 C171 1.409 . S
C170 H188 0.929 . S
C171 C170 1.409 . S
C171 C172 1.380 . S
C171 H189 0.930 . S
C172 C171 1.380 . S
C172 C179 1.357 . S
C173 C164 1.511 . S
C173 C174 1.341 . S
C173 C175 1.371 . S
C174 C173 1.341 . S
C174 C178 1.394 . S
C174 H190 0.930 . S
C175 C173 1.371 . S
C175 C176 1.392 . S
C175 H191 0.931 . S
C176 C175 1.392 . S
C176 C177 1.331 . S
C176 H194 0.932 . S
C177 C176 1.331 . S
C177 C178 1.336 . S
C178 C174 1.394 . S
C178 C177 1.336 . S
C178 H193 0.929 . S
C179 C169 1.386 . S
C179 C172 1.357 . S
C179 H192 0.928 . S
H180 C156 0.931 . S
H181 C158 0.930 . S
H182 C160 0.929 . S
H183 C161 0.931 . S
H184 C163 0.930 . S
H185 C167 0.931 . S
H186 C165 0.931 . S
H187 C169 0.931 . S
H188 C170 0.929 . S
H189 C171 0.930 . S
H190 C174 0.930 . S
H191 C175 0.931 . S
H192 C179 0.928 . S
H193 C178 0.929 . S
H194 C176 0.932 . S
C195 C196 1.386 . S
C195 C197 1.397 . S
C195 H219 0.931 . S
C196 C195 1.386 . S
C196 C200 1.397 . S
C197 C195 1.397 . S
C197 C198 1.384 . S
C197 H220 0.930 . S
C198 C197 1.384 . S
C198 C199 1.377 . S
C198 C201 1.481 . S
C199 C198 1.377 . S
C199 C200 1.389 . S
C199 H221 0.929 . S
C200 C196 1.397 . S
C200 C199 1.389 . S
C200 H222 0.931 . S
C201 C198 1.481 . S
C201 C202 1.387 . S
C201 C206 1.390 . S
C202 C201 1.387 . S
C202 C203 1.401 . S
C202 H223 0.930 . S
C203 C202 1.401 . S
C203 C204 1.376 . S
C203 C212 1.511 . S
C204 C203 1.376 . S
C204 C205 1.392 . S
C204 H225 0.931 . S
C205 C204 1.392 . S
C205 C206 1.361 . S
C205 C207 1.500 . S
C206 C201 1.390 . S
C206 C205 1.361 . S
C206 H224 0.931 . S
C207 C205 1.500 . S
C207 C208 1.371 . S
C207 C209 1.365 . S
C208 C207 1.371 . S
C208 C218 1.386 . S
C208 H226 0.931 . S
C209 C207 1.365 . S
C209 C210 1.409 . S
C209 H227 0.929 . S
C210 C209 1.409 . S
C210 C211 1.380 . S
C210 H228 0.930 . S
C211 C210 1.380 . S
C211 C218 1.357 . S
C212 C203 1.511 . S
C212 C213 1.341 . S
C212 C214 1.371 . S
C213 C212 1.341 . S
C213 C217 1.394 . S
C213 H229 0.930 . S
C214 C212 1.371 . S
C214 C215 1.392 . S
C214 H230 0.931 . S
C215 C214 1.392 . S
C215 C216 1.331 . S
C215 H233 0.932 . S
C216 C215 1.331 . S
C216 C217 1.336 . S
C217 C213 1.394 . S
C217 C216 1.336 . S
C217 H232 0.929 . S
C218 C208 1.386 . S
C218 C211 1.357 . S
C218 H231 0.928 . S
H219 C195 0.931 . S
H220 C197 0.930 . S
H221 C199 0.929 . S
H222 C200 0.931 . S
H223 C202 0.930 . S
H224 C206 0.931 . S
H225 C204 0.931 . S
H226 C208 0.931 . S
H227 C209 0.929 . S
H228 C210 0.930 . S
H229 C213 0.930 . S
H230 C214 0.931 . S
H231 C218 0.928 . S
H232 C217 0.929 . S
H233 C215 0.932 . S
C234 C235 1.386 1_565 S
C234 C236 1.397 . S
C234 H258 0.931 . S
C235 C234 1.386 1_545 S
C235 C239 1.397 . S
C236 C234 1.397 . S
C236 C237 1.384 1_565 S
C236 H259 0.930 . S
C237 C236 1.384 1_545 S
C237 C238 1.377 . S
C237 C240 1.481 . S
C238 C237 1.377 . S
C238 C239 1.389 . S
C238 H260 0.929 . S
C239 C235 1.397 . S
C239 C238 1.389 . S
C239 H261 0.931 . S
C240 C237 1.481 . S
C240 C241 1.387 . S
C240 C245 1.390 . S
C241 C240 1.387 . S
C241 C242 1.401 . S
C241 H262 0.930 . S
C242 C241 1.401 . S
C242 C243 1.376 . S
C242 C251 1.511 . S
C243 C242 1.376 . S
C243 C244 1.392 . S
C243 H264 0.931 . S
C244 C243 1.392 . S
C244 C245 1.361 . S
C244 C246 1.500 . S
C245 C240 1.390 . S
C245 C244 1.361 . S
C245 H263 0.931 . S
C246 C244 1.500 . S
C246 C247 1.371 1_545 S
C246 C248 1.365 . S
C247 C246 1.371 1_565 S
C247 C257 1.386 . S
C247 H265 0.931 . S
C248 C246 1.365 . S
C248 C249 1.409 . S
C248 H266 0.929 . S
C249 C248 1.409 . S
C249 C250 1.380 . S
C249 H267 0.930 . S
C250 C249 1.380 . S
C250 C257 1.357 1_545 S
C251 C242 1.511 . S
C251 C252 1.341 1_545 S
C251 C253 1.371 . S
C252 C251 1.341 1_565 S
C252 C256 1.399 . S
C252 H268 0.930 . S
C253 C251 1.371 . S
C253 C254 1.392 . S
C253 H269 0.931 . S
C254 C253 1.392 . S
C254 C255 1.331 . S
C254 H272 0.932 . S
C255 C254 1.331 . S
C255 C256 1.321 1_545 S
C256 C252 1.399 . S
C256 C255 1.321 1_565 S
C256 H271 0.942 . S
C257 C247 1.386 . S
C257 C250 1.357 1_565 S
C257 H270 0.916 1_554 S
H258 C234 0.931 . S
H259 C236 0.930 . S
H260 C238 0.929 . S
H261 C239 0.931 . S
H262 C241 0.930 . S
H263 C245 0.931 . S
H264 C243 0.931 . S
H265 C247 0.931 . S
H266 C248 0.929 . S
H267 C249 0.930 . S
H268 C252 0.930 . S
H269 C253 0.931 . S
H270 C257 0.916 1_556 S
H271 C256 0.942 . S
H272 C254 0.932 . S
C273 C274 1.386 . S
C273 C275 1.397 . S
C273 H297 0.931 . S
C274 C273 1.386 . S
C274 C278 1.397 . S
C275 C273 1.397 . S
C275 C276 1.384 . S
C275 H298 0.930 . S
C276 C275 1.384 . S
C276 C277 1.377 . S
C276 C279 1.481 . S
C277 C276 1.377 . S
C277 C278 1.389 . S
C277 H299 0.929 . S
C278 C274 1.397 . S
C278 C277 1.389 . S
C278 H300 0.931 . S
C279 C276 1.481 . S
C279 C280 1.387 . S
C279 C284 1.390 . S
C280 C279 1.387 . S
C280 C281 1.401 . S
C280 H301 0.930 . S
C281 C280 1.401 . S
C281 C282 1.376 . S
C281 C290 1.511 . S
C282 C281 1.376 . S
C282 C283 1.392 . S
C282 H303 0.931 . S
C283 C282 1.392 . S
C283 C284 1.361 . S
C283 C285 1.500 . S
C284 C279 1.390 . S
C284 C283 1.361 . S
C284 H302 0.931 . S
C285 C283 1.500 . S
C285 C286 1.371 . S
C285 C287 1.365 . S
C286 C285 1.371 . S
C286 C296 1.386 . S
C286 H304 0.931 . S
C287 C285 1.365 . S
C287 C288 1.409 . S
C287 H305 0.929 . S
C288 C287 1.409 . S
C288 C289 1.380 . S
C288 H306 0.930 . S
C289 C288 1.380 . S
C289 C296 1.357 . S
C290 C281 1.511 . S
C290 C291 1.341 . S
C290 C292 1.371 . S
C291 C290 1.341 . S
C291 C295 1.394 . S
C291 H307 0.930 . S
C292 C290 1.371 . S
C292 C293 1.392 . S
C292 H308 0.931 . S
C293 C292 1.392 . S
C293 C294 1.331 . S
C293 H311 0.932 . S
C294 C293 1.331 . S
C294 C295 1.336 . S
C295 C291 1.394 . S
C295 C294 1.336 . S
C295 H310 0.929 . S
C296 C286 1.386 . S
C296 C289 1.357 . S
C296 H309 0.928 . S
H297 C273 0.931 . S
H298 C275 0.930 . S
H299 C277 0.929 . S
H300 C278 0.931 . S
H301 C280 0.930 . S
H302 C284 0.931 . S
H303 C282 0.931 . S
H304 C286 0.931 . S
H305 C287 0.929 . S
H306 C288 0.930 . S
H307 C291 0.930 . S
H308 C292 0.931 . S
H309 C296 0.928 . S
H310 C295 0.929 . S
H311 C293 0.932 . S
Tb312 O315 2.453 1_665 S
Tb312 O316 2.596 1_665 S
Tb312 O317 2.374 1_655 S
Tb312 O325 2.343 . S
Tb312 O327 2.353 1_565 S
Tb312 O329 2.427 . S
Tb312 O330 2.513 . S
C313 O317 1.251 . S
C313 O319 1.263 . S
Tb314 O316 2.343 . S
Tb314 O319 2.353 1_545 S
Tb314 O322 2.427 . S
Tb314 O323 2.513 . S
Tb314 O324 2.453 1_545 S
Tb314 O325 2.596 1_445 S
Tb314 O326 2.374 1_455 S
O315 Tb312 2.453 1_445 S
O315 C331 1.245 . S
O316 Tb312 2.596 1_445 S
O316 Tb314 2.343 . S
O316 C331 1.259 . S
O317 Tb312 2.374 1_455 S
O317 C313 1.251 . S
C318 O322 1.275 . S
C318 O323 1.246 . S
O319 C313 1.263 . S
O319 Tb314 2.353 1_565 S
C320 O324 1.245 1_655 S
C320 O325 1.259 . S
C321 O326 1.250 . S
C321 O327 1.263 . S
O322 Tb314 2.427 . S
O322 C318 1.275 . S
O323 Tb314 2.513 . S
O323 C318 1.246 . S
O324 Tb314 2.453 1_565 S
O324 C320 1.245 1_455 S
O325 Tb312 2.343 . S
O325 Tb314 2.596 1_665 S
O325 C320 1.259 . S
O326 Tb314 2.374 1_655 S
O326 C321 1.250 . S
O327 Tb312 2.353 1_545 S
O327 C321 1.263 . S
C328 O329 1.275 . S
C328 O330 1.246 . S
O329 Tb312 2.427 . S
O329 C328 1.275 . S
O330 Tb312 2.513 . S
O330 C328 1.246 . S
C331 O315 1.245 . S
C331 O316 1.259 . S
Tb332 O335 2.453 . S
Tb332 O336 2.572 1_545 S
Tb332 O337 2.374 . S
Tb332 O345 2.343 . S
Tb332 O347 2.353 . S
Tb332 O349 2.427 . S
Tb332 O350 2.513 . S
C333 O337 1.251 . S
C333 O339 1.263 1_545 S
Tb334 O336 2.361 . S
Tb334 O339 2.353 . S
Tb334 O342 2.427 . S
Tb334 O343 2.513 . S
Tb334 O344 2.453 . S
Tb334 O345 2.596 1_565 S
Tb334 O346 2.374 . S
O335 Tb332 2.453 . S
O335 C351 1.245 . S
O336 Tb332 2.572 1_565 S
O336 Tb334 2.361 . S
O336 C351 1.248 1_565 S
O337 Tb332 2.374 . S
O337 C333 1.251 . S
C338 O342 1.275 . S
C338 O343 1.246 . S
O339 C333 1.263 1_565 S
O339 Tb334 2.353 . S
C340 O344 1.245 . S
C340 O345 1.259 1_565 S
C341 O346 1.250 1_545 S
C341 O347 1.263 . S
O342 Tb334 2.427 . S
O342 C338 1.275 . S
O343 Tb334 2.513 . S
O343 C338 1.246 . S
O344 Tb334 2.453 . S
O344 C340 1.245 . S
O345 Tb332 2.343 . S
O345 Tb334 2.596 1_545 S
O345 C340 1.259 1_545 S
O346 Tb334 2.374 . S
O346 C341 1.250 1_565 S
O347 Tb332 2.353 . S
O347 C341 1.263 . S
C348 O349 1.275 . S
C348 O350 1.246 . S
O349 Tb332 2.427 . S
O349 C348 1.275 . S
O350 Tb332 2.513 . S
O350 C348 1.246 . S
C351 O335 1.245 . S
C351 O336 1.248 1_545 S
Tb352 O355 2.453 . S
Tb352 O356 2.596 . S
Tb352 O357 2.374 . S
Tb352 O365 2.343 . S
Tb352 O367 2.353 . S
Tb352 O369 2.427 . S
Tb352 O370 2.513 . S
C353 O357 1.251 . S
C353 O359 1.263 . S
Tb354 O356 2.343 . S
Tb354 O359 2.353 . S
Tb354 O362 2.427 . S
Tb354 O363 2.513 . S
Tb354 O364 2.453 . S
Tb354 O365 2.596 . S
Tb354 O366 2.374 . S
O355 Tb352 2.453 . S
O355 C371 1.245 . S
O356 Tb352 2.596 . S
O356 Tb354 2.343 . S
O356 C371 1.259 . S
O357 Tb352 2.374 . S
O357 C353 1.251 . S
C358 O362 1.275 . S
C358 O363 1.246 . S
O359 C353 1.263 . S
O359 Tb354 2.353 . S
C360 O364 1.245 . S
C360 O365 1.259 . S
C361 O366 1.250 . S
C361 O367 1.263 . S
O362 Tb354 2.427 . S
O362 C358 1.275 . S
O363 Tb354 2.513 . S
O363 C358 1.246 . S
O364 Tb354 2.453 . S
O364 C360 1.245 . S
O365 Tb352 2.343 . S
O365 Tb354 2.596 . S
O365 C360 1.259 . S
O366 Tb354 2.374 . S
O366 C361 1.250 . S
O367 Tb352 2.353 . S
O367 C361 1.263 . S
C368 O369 1.275 . S
C368 O370 1.246 . S
O369 Tb352 2.427 . S
O369 C368 1.275 . S
O370 Tb352 2.513 . S
O370 C368 1.246 . S
C371 O355 1.245 . S
C371 O356 1.259 . S
Tb372 O375 2.453 1_655 S
Tb372 O376 2.596 1_655 S
Tb372 O377 2.374 1_655 S
Tb372 O385 2.343 . S
Tb372 O387 2.353 . S
Tb372 O389 2.427 . S
Tb372 O390 2.513 . S
C373 O377 1.251 . S
C373 O379 1.263 . S
Tb374 O376 2.343 . S
Tb374 O379 2.353 . S
Tb374 O382 2.427 . S
Tb374 O383 2.513 . S
Tb374 O384 2.453 1_455 S
Tb374 O385 2.596 1_455 S
Tb374 O386 2.374 . S
O375 Tb372 2.453 1_455 S
O375 C391 1.245 . S
O376 Tb372 2.596 1_455 S
O376 Tb374 2.343 . S
O376 C391 1.259 . S
O377 Tb372 2.374 1_455 S
O377 C373 1.251 . S
C378 O382 1.275 . S
C378 O383 1.246 . S
O379 C373 1.263 . S
O379 Tb374 2.353 . S
C380 O384 1.245 . S
C380 O385 1.259 . S
C381 O386 1.250 1_655 S
C381 O387 1.263 . S
O382 Tb374 2.427 . S
O382 C378 1.275 . S
O383 Tb374 2.513 . S
O383 C378 1.246 . S
O384 Tb374 2.453 1_655 S
O384 C380 1.245 . S
O385 Tb372 2.343 . S
O385 Tb374 2.596 1_655 S
O385 C380 1.259 . S
O386 Tb374 2.374 . S
O386 C381 1.250 1_455 S
O387 Tb372 2.353 . S
O387 C381 1.263 . S
C388 O389 1.275 . S
C388 O390 1.246 . S
O389 Tb372 2.427 . S
O389 C388 1.275 . S
O390 Tb372 2.513 . S
O390 C388 1.246 . S
C391 O375 1.245 . S
C391 O376 1.259 . S
H392 C404 0.930 . S
H393 C406 0.930 . S
H394 C407 0.930 . S
H395 C411 0.959 . S
H396 C411 0.959 . S
H397 C411 0.961 . S
H398 C412 0.960 . S
H399 C412 0.961 . S
H400 C412 0.959 . S
H401 C415 0.929 . S
H402 C416 0.931 . S
H403 C418 0.930 . S
C404 H392 0.930 . S
C404 C405 1.399 . S
C404 C409 1.399 . S
C405 C404 1.399 . S
C405 C406 1.376 1_545 S
C406 H393 0.930 . S
C406 C405 1.376 1_565 S
C406 C407 1.388 . S
C407 H394 0.930 . S
C407 C406 1.388 . S
C407 C408 1.390 . S
C408 C407 1.390 . S
C408 C409 1.394 1_565 S
C408 C414 1.465 . S
C409 C404 1.399 . S
C409 C408 1.394 1_545 S
C409 C410 1.516 . S
C410 C409 1.516 . S
C410 C411 1.502 . S
C410 C412 1.561 . S
C410 C413 1.526 . S
C411 H395 0.959 . S
C411 H396 0.959 . S
C411 H397 0.961 . S
C411 C410 1.502 . S
C412 H398 0.960 . S
C412 H399 0.961 . S
C412 H400 0.959 . S
C412 C410 1.561 . S
C413 C410 1.526 . S
C413 C414 1.396 1_545 S
C413 C418 1.390 . S
C414 C408 1.465 . S
C414 C413 1.396 1_565 S
C414 C415 1.399 . S
C415 H401 0.929 . S
C415 C414 1.399 . S
C415 C416 1.385 . S
C416 H402 0.931 . S
C416 C415 1.385 . S
C416 C417 1.389 . S
C417 C416 1.389 . S
C417 C418 1.387 1_565 S
C418 H403 0.930 . S
C418 C413 1.390 . S
C418 C417 1.387 1_545 S
H419 C431 0.930 . S
H420 C433 0.930 . S
H421 C434 0.930 . S
H422 C438 0.959 . S
H423 C438 0.959 . S
H424 C438 0.961 . S
H425 C439 0.960 . S
H426 C439 0.961 . S
H427 C439 0.959 . S
H428 C442 0.929 . S
H429 C443 0.931 . S
H430 C445 0.930 . S
C431 H419 0.930 . S
C431 C432 1.399 . S
C431 C436 1.399 . S
C432 C431 1.399 . S
C432 C433 1.376 . S
C433 H420 0.930 . S
C433 C432 1.376 . S
C433 C434 1.388 . S
C434 H421 0.930 . S
C434 C433 1.388 . S
C434 C435 1.390 . S
C435 C434 1.390 . S
C435 C436 1.394 . S
C435 C441 1.465 . S
C436 C431 1.399 . S
C436 C435 1.394 . S
C436 C437 1.516 . S
C437 C436 1.516 . S
C437 C438 1.502 . S
C437 C439 1.561 . S
C437 C440 1.526 . S
C438 H422 0.959 . S
C438 H423 0.959 . S
C438 H424 0.961 . S
C438 C437 1.502 . S
C439 H425 0.960 . S
C439 H426 0.961 . S
C439 H427 0.959 . S
C439 C437 1.561 . S
C440 C437 1.526 . S
C440 C441 1.396 . S
C440 C445 1.390 . S
C441 C435 1.465 . S
C441 C440 1.396 . S
C441 C442 1.399 . S
C442 H428 0.929 . S
C442 C441 1.399 . S
C442 C443 1.385 . S
C443 H429 0.931 . S
C443 C442 1.385 . S
C443 C444 1.389 . S
C444 C443 1.389 . S
C444 C445 1.387 . S
C445 H430 0.930 . S
C445 C440 1.390 . S
C445 C444 1.387 . S
H446 C458 0.930 . S
H447 C460 0.930 . S
H448 C461 0.930 . S
H449 C465 0.959 . S
H450 C465 0.959 . S
H451 C465 0.961 . S
H452 C466 0.960 . S
H453 C466 0.961 . S
H454 C466 0.959 . S
H455 C469 0.929 . S
H456 C470 0.931 . S
H457 C472 0.930 . S
C458 H446 0.930 . S
C458 C459 1.399 . S
C458 C463 1.399 . S
C459 C458 1.399 . S
C459 C460 1.376 . S
C460 H447 0.930 . S
C460 C459 1.376 . S
C460 C461 1.388 . S
C461 H448 0.930 . S
C461 C460 1.388 . S
C461 C462 1.390 . S
C462 C461 1.390 . S
C462 C463 1.394 . S
C462 C468 1.465 . S
C463 C458 1.399 . S
C463 C462 1.394 . S
C463 C464 1.516 . S
C464 C463 1.516 . S
C464 C465 1.502 . S
C464 C466 1.561 . S
C464 C467 1.526 . S
C465 H449 0.959 . S
C465 H450 0.959 . S
C465 H451 0.961 . S
C465 C464 1.502 . S
C466 H452 0.960 . S
C466 H453 0.961 . S
C466 H454 0.959 . S
C466 C464 1.561 . S
C467 C464 1.526 . S
C467 C468 1.396 . S
C467 C472 1.390 . S
C468 C462 1.465 . S
C468 C467 1.396 . S
C468 C469 1.399 . S
C469 H455 0.929 . S
C469 C468 1.399 . S
C469 C470 1.385 . S
C470 H456 0.931 . S
C470 C469 1.385 . S
C470 C471 1.389 . S
C471 C470 1.389 . S
C471 C472 1.387 . S
C472 H457 0.930 . S
C472 C467 1.390 . S
C472 C471 1.387 . S
H473 C485 0.930 . S
H474 C487 0.930 . S
H475 C488 0.930 . S
H476 C492 0.959 . S
H477 C492 0.959 . S
H478 C492 0.961 . S
H479 C493 0.960 . S
H480 C493 0.961 . S
H481 C493 0.959 . S
H482 C496 0.929 . S
H483 C497 0.931 . S
H484 C499 0.930 . S
C485 H473 0.930 . S
C485 C486 1.399 . S
C485 C490 1.399 . S
C486 C485 1.399 . S
C486 C487 1.376 . S
C487 H474 0.930 . S
C487 C486 1.376 . S
C487 C488 1.388 . S
C488 H475 0.930 . S
C488 C487 1.388 . S
C488 C489 1.390 . S
C489 C488 1.390 . S
C489 C490 1.394 . S
C489 C495 1.465 . S
C490 C485 1.399 . S
C490 C489 1.394 . S
C490 C491 1.516 . S
C491 C490 1.516 . S
C491 C492 1.502 . S
C491 C493 1.561 . S
C491 C494 1.526 . S
C492 H476 0.959 . S
C492 H477 0.959 . S
C492 H478 0.961 . S
C492 C491 1.502 . S
C493 H479 0.960 . S
C493 H480 0.961 . S
C493 H481 0.959 . S
C493 C491 1.561 . S
C494 C491 1.526 . S
C494 C495 1.396 . S
C494 C499 1.390 . S
C495 C489 1.465 . S
C495 C494 1.396 . S
C495 C496 1.399 . S
C496 H482 0.929 . S
C496 C495 1.399 . S
C496 C497 1.385 . S
C497 H483 0.931 . S
C497 C496 1.385 . S
C497 C498 1.389 . S
C498 C497 1.389 . S
C498 C499 1.387 . S
C499 H484 0.930 . S
C499 C494 1.390 . S
C499 C498 1.387 . S
H500 C512 0.930 . S
H501 C514 0.930 . S
H502 C515 0.930 . S
H503 C519 0.959 . S
H504 C519 0.959 . S
H505 C519 0.961 . S
H506 C520 0.960 . S
H507 C520 0.961 . S
H508 C520 0.959 . S
H509 C523 0.929 . S
H510 C524 0.931 . S
H511 C526 0.930 . S
C512 H500 0.930 . S
C512 C513 1.399 1_565 S
C512 C517 1.399 . S
C513 C512 1.399 1_545 S
C513 C514 1.376 . S
C514 H501 0.930 . S
C514 C513 1.376 . S
C514 C515 1.388 . S
C515 H502 0.930 . S
C515 C514 1.388 . S
C515 C516 1.390 . S
C516 C515 1.390 . S
C516 C517 1.394 1_545 S
C516 C522 1.465 . S
C517 C512 1.399 . S
C517 C516 1.394 1_565 S
C517 C518 1.516 . S
C518 C517 1.516 . S
C518 C519 1.502 . S
C518 C520 1.561 . S
C518 C521 1.526 . S
C519 H503 0.959 . S
C519 H504 0.959 . S
C519 H505 0.961 . S
C519 C518 1.502 . S
C520 H506 0.960 . S
C520 H507 0.961 . S
C520 H508 0.959 . S
C520 C518 1.561 . S
C521 C518 1.526 . S
C521 C522 1.396 1_565 S
C521 C526 1.390 . S
C522 C516 1.465 . S
C522 C521 1.396 1_545 S
C522 C523 1.399 . S
C523 H509 0.929 . S
C523 C522 1.399 . S
C523 C524 1.385 . S
C524 H510 0.931 . S
C524 C523 1.385 . S
C524 C525 1.389 . S
C525 C524 1.389 . S
C525 C526 1.387 1_545 S
C526 H511 0.930 . S
C526 C521 1.390 . S
C526 C525 1.387 1_565 S
H527 C539 0.930 . S
H528 C541 0.930 . S
H529 C542 0.930 . S
H530 C546 0.959 . S
H531 C546 0.959 . S
H532 C546 0.961 . S
H533 C547 0.960 . S
H534 C547 0.961 . S
H535 C547 0.959 . S
H536 C550 0.929 . S
H537 C551 0.931 . S
H538 C553 0.930 . S
C539 H527 0.930 . S
C539 C540 1.399 . S
C539 C544 1.399 . S
C540 C539 1.399 . S
C540 C541 1.376 1_556 S
C541 H528 0.930 . S
C541 C540 1.376 1_554 S
C541 C542 1.388 . S
C542 H529 0.930 . S
C542 C541 1.388 . S
C542 C543 1.390 1_554 S
C543 C542 1.390 1_556 S
C543 C544 1.394 . S
C543 C549 1.465 . S
C544 C539 1.399 . S
C544 C543 1.394 . S
C544 C545 1.516 . S
C545 C544 1.516 . S
C545 C546 1.502 . S
C545 C547 1.561 . S
C545 C548 1.526 . S
C546 H530 0.959 . S
C546 H531 0.959 . S
C546 H532 0.961 . S
C546 C545 1.502 . S
C547 H533 0.960 . S
C547 H534 0.961 . S
C547 H535 0.959 . S
C547 C545 1.561 . S
C548 C545 1.526 . S
C548 C549 1.396 . S
C548 C553 1.390 . S
C549 C543 1.465 . S
C549 C548 1.396 . S
C549 C550 1.399 . S
C550 H536 0.929 . S
C550 C549 1.399 . S
C550 C551 1.385 . S
C551 H537 0.931 . S
C551 C550 1.385 . S
C551 C552 1.389 . S
C552 C551 1.389 . S
C552 C553 1.387 . S
C553 H538 0.930 . S
C553 C548 1.390 . S
C553 C552 1.387 . S
H554 C566 0.930 1_554 S
H555 C568 0.930 . S
H556 C569 0.930 . S
H557 C573 0.959 . S
H558 C573 0.959 . S
H559 C573 0.961 . S
H560 C574 0.960 1_554 S
H561 C574 0.961 . S
H562 C574 0.959 . S
H563 C577 0.929 . S
H564 C578 0.931 . S
H565 C580 0.930 . S
C566 H554 0.930 1_556 S
C566 C567 1.399 . S
C566 C571 1.399 . S
C567 C566 1.399 . S
C567 C568 1.376 . S
C568 H555 0.930 . S
C568 C567 1.376 . S
C568 C569 1.388 . S
C569 H556 0.930 . S
C569 C568 1.388 . S
C569 C570 1.390 . S
C570 C569 1.390 . S
C570 C571 1.394 . S
C570 C576 1.465 . S
C571 C566 1.399 . S
C571 C570 1.394 . S
C571 C572 1.516 . S
C572 C571 1.516 . S
C572 C573 1.502 . S
C572 C574 1.561 . S
C572 C575 1.526 . S
C573 H557 0.959 . S
C573 H558 0.959 . S
C573 H559 0.961 . S
C573 C572 1.502 . S
C574 H560 0.960 1_556 S
C574 H561 0.961 . S
C574 H562 0.959 . S
C574 C572 1.561 . S
C575 C572 1.526 . S
C575 C576 1.396 . S
C575 C580 1.390 . S
C576 C570 1.465 . S
C576 C575 1.396 . S
C576 C577 1.399 . S
C577 H563 0.929 . S
C577 C576 1.399 . S
C577 C578 1.385 . S
C578 H564 0.931 . S
C578 C577 1.385 . S
C578 C579 1.389 . S
C579 C578 1.389 . S
C579 C580 1.387 . S
C580 H565 0.930 . S
C580 C575 1.390 . S
C580 C579 1.387 . S
H581 C593 0.930 . S
H582 C595 0.930 1_554 S
H583 C596 0.930 . S
H584 C600 0.959 . S
H585 C600 0.959 . S
H586 C600 0.961 . S
H587 C601 0.960 . S
H588 C601 0.961 . S
H589 C601 0.959 . S
H590 C604 0.929 . S
H591 C605 0.931 . S
H592 C607 0.930 . S
C593 H581 0.930 . S
C593 C594 1.399 . S
C593 C598 1.399 . S
C594 C593 1.399 . S
C594 C595 1.376 . S
C595 H582 0.930 1_556 S
C595 C594 1.376 . S
C595 C596 1.388 . S
C596 H583 0.930 . S
C596 C595 1.388 . S
C596 C597 1.390 . S
C597 C596 1.390 . S
C597 C598 1.394 . S
C597 C603 1.465 . S
C598 C593 1.399 . S
C598 C597 1.394 . S
C598 C599 1.516 . S
C599 C598 1.516 . S
C599 C600 1.502 . S
C599 C601 1.561 . S
C599 C602 1.526 . S
C600 H584 0.959 . S
C600 H585 0.959 . S
C600 H586 0.961 . S
C600 C599 1.502 . S
C601 H587 0.960 . S
C601 H588 0.961 . S
C601 H589 0.959 . S
C601 C599 1.561 . S
C602 C599 1.526 . S
C602 C603 1.396 . S
C602 C607 1.390 . S
C603 C597 1.465 . S
C603 C602 1.396 . S
C603 C604 1.399 . S
C604 H590 0.929 . S
C604 C603 1.399 . S
C604 C605 1.385 . S
C605 H591 0.931 . S
C605 C604 1.385 . S
C605 C606 1.389 . S
C606 C605 1.389 . S
C606 C607 1.387 . S
C607 H592 0.930 . S
C607 C602 1.390 . S
C607 C606 1.387 . S
H608 C620 0.930 . S
H609 C622 0.930 . S
H610 C623 0.930 . S
H611 C627 0.959 . S
H612 C627 0.959 . S
H613 C627 0.961 . S
H614 C628 0.960 . S
H615 C628 0.961 . S
H616 C628 0.959 . S
H617 C631 0.929 . S
H618 C632 0.931 . S
H619 C634 0.930 . S
C620 H608 0.930 . S
C620 C621 1.399 . S
C620 C625 1.399 . S
C621 C620 1.399 . S
C621 C622 1.376 . S
C622 H609 0.930 . S
C622 C621 1.376 . S
C622 C623 1.388 . S
C623 H610 0.930 . S
C623 C622 1.388 . S
C623 C624 1.390 . S
C624 C623 1.390 . S
C624 C625 1.394 . S
C624 C630 1.465 . S
C625 C620 1.399 . S
C625 C624 1.394 . S
C625 C626 1.516 . S
C626 C625 1.516 . S
C626 C627 1.502 . S
C626 C628 1.561 . S
C626 C629 1.526 . S
C627 H611 0.959 . S
C627 H612 0.959 . S
C627 H613 0.961 . S
C627 C626 1.502 . S
C628 H614 0.960 . S
C628 H615 0.961 . S
C628 H616 0.959 . S
C628 C626 1.561 . S
C629 C626 1.526 . S
C629 C630 1.396 . S
C629 C634 1.390 . S
C630 C624 1.465 . S
C630 C629 1.396 . S
C630 C631 1.399 . S
C631 H617 0.929 . S
C631 C630 1.399 . S
C631 C632 1.385 . S
C632 H618 0.931 . S
C632 C631 1.385 . S
C632 C633 1.389 . S
C633 C632 1.389 . S
C633 C634 1.387 . S
C634 H619 0.930 . S
C634 C629 1.390 . S
C634 C633 1.387 . S
H635 C647 0.930 . S
H636 C649 0.930 . S
H637 C650 0.930 . S
H638 C654 0.959 . S
H639 C654 0.959 . S
H640 C654 0.961 . S
H641 C655 0.960 . S
H642 C655 0.961 . S
H643 C655 0.959 . S
H644 C658 0.929 . S
H645 C659 0.931 . S
H646 C661 0.930 . S
C647 H635 0.930 . S
C647 C648 1.399 1_565 S
C647 C652 1.399 . S
C648 C647 1.399 1_545 S
C648 C649 1.376 . S
C649 H636 0.930 . S
C649 C648 1.376 . S
C649 C650 1.388 . S
C650 H637 0.930 . S
C650 C649 1.388 . S
C650 C651 1.390 . S
C651 C650 1.390 . S
C651 C652 1.394 1_545 S
C651 C657 1.465 . S
C652 C647 1.399 . S
C652 C651 1.394 1_565 S
C652 C653 1.516 . S
C653 C652 1.516 . S
C653 C654 1.502 . S
C653 C655 1.561 . S
C653 C656 1.526 . S
C654 H638 0.959 . S
C654 H639 0.959 . S
C654 H640 0.961 . S
C654 C653 1.502 . S
C655 H641 0.960 . S
C655 H642 0.961 . S
C655 H643 0.959 . S
C655 C653 1.561 . S
C656 C653 1.526 . S
C656 C657 1.396 1_565 S
C656 C661 1.390 . S
C657 C651 1.465 . S
C657 C656 1.396 1_545 S
C657 C658 1.399 . S
C658 H644 0.929 . S
C658 C657 1.399 . S
C658 C659 1.385 . S
C659 H645 0.931 . S
C659 C658 1.385 . S
C659 C660 1.389 . S
C660 C659 1.389 . S
C660 C661 1.387 1_545 S
C661 H646 0.930 . S
C661 C656 1.390 . S
C661 C660 1.387 1_565 S
H662 C674 0.930 . S
H663 C676 0.930 . S
H664 C677 0.930 . S
H665 C681 0.959 . S
H666 C681 0.959 . S
H667 C681 0.961 . S
H668 C682 0.960 . S
H669 C682 0.961 . S
H670 C682 0.959 . S
H671 C685 0.929 . S
H672 C686 0.931 . S
H673 C688 0.930 . S
C674 H662 0.930 . S
C674 C675 1.399 . S
C674 C679 1.399 . S
C675 C674 1.399 . S
C675 C676 1.376 . S
C676 H663 0.930 . S
C676 C675 1.376 . S
C676 C677 1.388 . S
C677 H664 0.930 . S
C677 C676 1.388 . S
C677 C678 1.390 . S
C678 C677 1.390 . S
C678 C679 1.394 . S
C678 C684 1.465 . S
C679 C674 1.399 . S
C679 C678 1.394 . S
C679 C680 1.516 . S
C680 C679 1.516 . S
C680 C681 1.502 . S
C680 C682 1.561 . S
C680 C683 1.526 . S
C681 H665 0.959 . S
C681 H666 0.959 . S
C681 H667 0.961 . S
C681 C680 1.502 . S
C682 H668 0.960 . S
C682 H669 0.961 . S
C682 H670 0.959 . S
C682 C680 1.561 . S
C683 C680 1.526 . S
C683 C684 1.396 . S
C683 C688 1.390 . S
C684 C678 1.465 . S
C684 C683 1.396 . S
C684 C685 1.399 . S
C685 H671 0.929 . S
C685 C684 1.399 . S
C685 C686 1.385 . S
C686 H672 0.931 . S
C686 C685 1.385 . S
C686 C687 1.389 . S
C687 C686 1.389 . S
C687 C688 1.387 . S
C688 H673 0.930 . S
C688 C683 1.390 . S
C688 C687 1.387 . S
H689 C701 0.930 . S
H690 C703 0.930 . S
H691 C704 0.930 . S
H692 C708 0.959 . S
H693 C708 0.959 . S
H694 C708 0.961 . S
H695 C709 0.960 . S
H696 C709 0.961 . S
H697 C709 0.959 . S
H698 C712 0.929 . S
H699 C713 0.931 . S
H700 C715 0.930 . S
C701 H689 0.930 . S
C701 C702 1.399 . S
C701 C706 1.399 . S
C702 C701 1.399 . S
C702 C703 1.376 . S
C703 H690 0.930 . S
C703 C702 1.376 . S
C703 C704 1.388 . S
C704 H691 0.930 . S
C704 C703 1.388 . S
C704 C705 1.390 . S
C705 C704 1.390 . S
C705 C706 1.394 . S
C705 C711 1.465 . S
C706 C701 1.399 . S
C706 C705 1.394 . S
C706 C707 1.516 . S
C707 C706 1.516 . S
C707 C708 1.502 . S
C707 C709 1.561 . S
C707 C710 1.526 . S
C708 H692 0.959 . S
C708 H693 0.959 . S
C708 H694 0.961 . S
C708 C707 1.502 . S
C709 H695 0.960 . S
C709 H696 0.961 . S
C709 H697 0.959 . S
C709 C707 1.561 . S
C710 C707 1.526 . S
C710 C711 1.396 . S
C710 C715 1.390 . S
C711 C705 1.465 . S
C711 C710 1.396 . S
C711 C712 1.399 . S
C712 H698 0.929 . S
C712 C711 1.399 . S
C712 C713 1.385 . S
C713 H699 0.931 . S
C713 C712 1.385 . S
C713 C714 1.389 . S
C714 C713 1.389 . S
C714 C715 1.387 . S
C715 H700 0.930 . S
C715 C710 1.390 . S
C715 C714 1.387 . S
H716 C728 0.930 . S
H717 C730 0.930 . S
H718 C731 0.930 . S
H719 C735 0.959 . S
H720 C735 0.959 . S
H721 C735 0.961 . S
H722 C736 0.960 . S
H723 C736 0.961 . S
H724 C736 0.959 . S
H725 C739 0.929 . S
H726 C740 0.931 1_455 S
H727 C742 0.930 . S
C728 H716 0.930 . S
C728 C729 1.399 . S
C728 C733 1.399 . S
C729 C728 1.399 . S
C729 C730 1.376 . S
C730 H717 0.930 . S
C730 C729 1.376 . S
C730 C731 1.388 . S
C731 H718 0.930 . S
C731 C730 1.388 . S
C731 C732 1.390 . S
C732 C731 1.390 . S
C732 C733 1.394 . S
C732 C738 1.465 . S
C733 C728 1.399 . S
C733 C732 1.394 . S
C733 C734 1.516 . S
C734 C733 1.516 . S
C734 C735 1.502 . S
C734 C736 1.561 . S
C734 C737 1.526 . S
C735 H719 0.959 . S
C735 H720 0.959 . S
C735 H721 0.961 . S
C735 C734 1.502 . S
C736 H722 0.960 . S
C736 H723 0.961 . S
C736 H724 0.959 . S
C736 C734 1.561 . S
C737 C734 1.526 . S
C737 C738 1.396 . S
C737 C742 1.390 . S
C738 C732 1.465 . S
C738 C737 1.396 . S
C738 C739 1.399 . S
C739 H725 0.929 . S
C739 C738 1.399 . S
C739 C740 1.385 . S
C740 H726 0.931 1_655 S
C740 C739 1.385 . S
C740 C741 1.389 . S
C741 C740 1.389 . S
C741 C742 1.387 . S
C742 H727 0.930 . S
C742 C737 1.390 . S
C742 C741 1.387 . S
H743 C755 0.930 . S
H744 C757 0.930 . S
H745 C758 0.930 . S
H746 C762 0.959 . S
H747 C762 0.959 . S
H748 C762 0.961 . S
H749 C763 0.960 . S
H750 C763 0.961 . S
H751 C763 0.959 . S
H752 C766 0.929 . S
H753 C767 0.931 . S
H754 C769 0.930 . S
C755 H743 0.930 . S
C755 C756 1.399 1_545 S
C755 C760 1.399 . S
C756 C755 1.399 1_565 S
C756 C757 1.376 . S
C757 H744 0.930 . S
C757 C756 1.376 . S
C757 C758 1.388 . S
C758 H745 0.930 . S
C758 C757 1.388 . S
C758 C759 1.390 . S
C759 C758 1.390 . S
C759 C760 1.394 1_565 S
C759 C765 1.465 . S
C760 C755 1.399 . S
C760 C759 1.394 1_545 S
C760 C761 1.516 . S
C761 C760 1.516 . S
C761 C762 1.502 . S
C761 C763 1.561 . S
C761 C764 1.526 . S
C762 H746 0.959 . S
C762 H747 0.959 . S
C762 H748 0.961 . S
C762 C761 1.502 . S
C763 H749 0.960 . S
C763 H750 0.961 . S
C763 H751 0.959 . S
C763 C761 1.561 . S
C764 C761 1.526 . S
C764 C765 1.396 1_545 S
C764 C769 1.390 . S
C765 C759 1.465 . S
C765 C764 1.396 1_565 S
C765 C766 1.399 . S
C766 H752 0.929 . S
C766 C765 1.399 . S
C766 C767 1.385 . S
C767 H753 0.931 . S
C767 C766 1.385 . S
C767 C768 1.389 1_565 S
C768 C767 1.389 1_545 S
C768 C769 1.387 . S
C769 H754 0.930 . S
C769 C764 1.390 . S
C769 C768 1.387 . S
H770 C782 0.930 . S
H771 C784 0.930 . S
H772 C785 0.930 . S
H773 C789 0.959 . S
H774 C789 0.959 . S
H775 C789 0.961 . S
H776 C790 0.960 . S
H777 C790 0.961 . S
H778 C790 0.959 . S
H779 C793 0.929 . S
H780 C794 0.931 . S
H781 C796 0.930 . S
C782 H770 0.930 . S
C782 C783 1.399 . S
C782 C787 1.399 . S
C783 C782 1.399 . S
C783 C784 1.376 . S
C784 H771 0.930 . S
C784 C783 1.376 . S
C784 C785 1.388 . S
C785 H772 0.930 . S
C785 C784 1.388 . S
C785 C786 1.390 . S
C786 C785 1.390 . S
C786 C787 1.394 . S
C786 C792 1.465 . S
C787 C782 1.399 . S
C787 C786 1.394 . S
C787 C788 1.516 . S
C788 C787 1.516 . S
C788 C789 1.502 . S
C788 C790 1.561 . S
C788 C791 1.526 . S
C789 H773 0.959 . S
C789 H774 0.959 . S
C789 H775 0.961 . S
C789 C788 1.502 . S
C790 H776 0.960 . S
C790 H777 0.961 . S
C790 H778 0.959 . S
C790 C788 1.561 . S
C791 C788 1.526 . S
C791 C792 1.396 . S
C791 C796 1.390 . S
C792 C786 1.465 . S
C792 C791 1.396 . S
C792 C793 1.399 . S
C793 H779 0.929 . S
C793 C792 1.399 . S
C793 C794 1.385 . S
C794 H780 0.931 . S
C794 C793 1.385 . S
C794 C795 1.389 . S
C795 C794 1.389 . S
C795 C796 1.387 . S
C796 H781 0.930 . S
C796 C791 1.390 . S
C796 C795 1.387 . S
H797 C809 0.930 . S
H798 C811 0.930 . S
H799 C812 0.930 . S
H800 C816 0.959 . S
H801 C816 0.959 . S
H802 C816 0.961 . S
H803 C817 0.960 . S
H804 C817 0.961 . S
H805 C817 0.959 . S
H806 C820 0.929 . S
H807 C821 0.931 . S
H808 C823 0.930 . S
C809 H797 0.930 . S
C809 C810 1.399 . S
C809 C814 1.399 . S
C810 C809 1.399 . S
C810 C811 1.376 . S
C811 H798 0.930 . S
C811 C810 1.376 . S
C811 C812 1.388 . S
C812 H799 0.930 . S
C812 C811 1.388 . S
C812 C813 1.390 . S
C813 C812 1.390 . S
C813 C814 1.394 . S
C813 C819 1.465 . S
C814 C809 1.399 . S
C814 C813 1.394 . S
C814 C815 1.516 . S
C815 C814 1.516 . S
C815 C816 1.502 . S
C815 C817 1.561 . S
C815 C818 1.526 . S
C816 H800 0.959 . S
C816 H801 0.959 . S
C816 H802 0.961 . S
C816 C815 1.502 . S
C817 H803 0.960 . S
C817 H804 0.961 . S
C817 H805 0.959 . S
C817 C815 1.561 . S
C818 C815 1.526 . S
C818 C819 1.396 . S
C818 C823 1.390 . S
C819 C813 1.465 . S
C819 C818 1.396 . S
C819 C820 1.399 . S
C820 H806 0.929 . S
C820 C819 1.399 . S
C820 C821 1.385 . S
C821 H807 0.931 . S
C821 C820 1.385 . S
C821 C822 1.389 . S
C822 C821 1.389 . S
C822 C823 1.387 . S
C823 H808 0.930 . S
C823 C818 1.390 . S
C823 C822 1.387 . S
H824 C836 0.930 . S
H825 C838 0.930 . S
H826 C839 0.930 . S
H827 C843 0.959 . S
H828 C843 0.959 . S
H829 C843 0.961 . S
H830 C844 0.960 . S
H831 C844 0.961 . S
H832 C844 0.959 . S
H833 C847 0.929 . S
H834 C848 0.931 . S
H835 C850 0.930 . S
C836 H824 0.930 . S
C836 C837 1.399 . S
C836 C841 1.399 1_554 S
C837 C836 1.399 . S
C837 C838 1.376 1_554 S
C838 H825 0.930 . S
C838 C837 1.376 1_556 S
C838 C839 1.388 . S
C839 H826 0.930 . S
C839 C838 1.388 . S
C839 C840 1.390 . S
C840 C839 1.390 . S
C840 C841 1.394 . S
C840 C846 1.465 . S
C841 C836 1.399 1_556 S
C841 C840 1.394 . S
C841 C842 1.516 1_556 S
C842 C841 1.516 1_554 S
C842 C843 1.502 . S
C842 C844 1.561 . S
C842 C845 1.526 1_554 S
C843 H827 0.959 . S
C843 H828 0.959 . S
C843 H829 0.961 . S
C843 C842 1.502 . S
C844 H830 0.960 . S
C844 H831 0.961 . S
C844 H832 0.959 . S
C844 C842 1.561 . S
C845 C842 1.526 1_556 S
C845 C846 1.396 . S
C845 C850 1.390 . S
C846 C840 1.465 . S
C846 C845 1.396 . S
C846 C847 1.399 . S
C847 H833 0.929 . S
C847 C846 1.399 . S
C847 C848 1.385 . S
C848 H834 0.931 . S
C848 C847 1.385 . S
C848 C849 1.389 . S
C849 C848 1.389 . S
C849 C850 1.387 . S
C850 H835 0.930 . S
C850 C845 1.390 . S
C850 C849 1.387 . S
H851 C863 0.930 . S
H852 C865 0.930 . S
H853 C866 0.930 . S
H854 C870 0.959 1_554 S
H855 C870 0.959 . S
H856 C870 0.961 1_554 S
H857 C871 0.960 . S
H858 C871 0.961 . S
H859 C871 0.959 . S
H860 C874 0.929 . S
H861 C875 0.931 . S
H862 C877 0.930 . S
C863 H851 0.930 . S
C863 C864 1.399 1_565 S
C863 C868 1.399 . S
C864 C863 1.399 1_545 S
C864 C865 1.376 . S
C865 H852 0.930 . S
C865 C864 1.376 . S
C865 C866 1.388 . S
C866 H853 0.930 . S
C866 C865 1.388 . S
C866 C867 1.390 . S
C867 C866 1.390 . S
C867 C868 1.394 1_545 S
C867 C873 1.465 . S
C868 C863 1.399 . S
C868 C867 1.394 1_565 S
C868 C869 1.516 . S
C869 C868 1.516 . S
C869 C870 1.502 . S
C869 C871 1.561 . S
C869 C872 1.526 . S
C870 H854 0.959 1_556 S
C870 H855 0.959 . S
C870 H856 0.961 1_556 S
C870 C869 1.502 . S
C871 H857 0.960 . S
C871 H858 0.961 . S
C871 H859 0.959 . S
C871 C869 1.561 . S
C872 C869 1.526 . S
C872 C873 1.396 1_565 S
C872 C877 1.390 . S
C873 C867 1.465 . S
C873 C872 1.396 1_545 S
C873 C874 1.399 . S
C874 H860 0.929 . S
C874 C873 1.399 . S
C874 C875 1.385 . S
C875 H861 0.931 . S
C875 C874 1.385 . S
C875 C876 1.389 . S
C876 C875 1.389 . S
C876 C877 1.387 1_545 S
C877 H862 0.930 . S
C877 C872 1.390 . S
C877 C876 1.387 1_565 S
H878 C890 0.930 1_554 S
H879 C892 0.930 . S
H880 C893 0.930 . S
H881 C897 0.959 . S
H882 C897 0.959 . S
H883 C897 0.961 1_554 S
H884 C898 0.960 . S
H885 C898 0.961 . S
H886 C898 0.959 . S
H887 C901 0.929 . S
H888 C902 0.931 . S
H889 C904 0.930 . S
C890 H878 0.930 1_556 S
C890 C891 1.399 . S
C890 C895 1.399 . S
C891 C890 1.399 . S
C891 C892 1.376 . S
C892 H879 0.930 . S
C892 C891 1.376 . S
C892 C893 1.388 . S
C893 H880 0.930 . S
C893 C892 1.388 . S
C893 C894 1.390 . S
C894 C893 1.390 . S
C894 C895 1.394 . S
C894 C900 1.465 . S
C895 C890 1.399 . S
C895 C894 1.394 . S
C895 C896 1.516 . S
C896 C895 1.516 . S
C896 C897 1.502 . S
C896 C898 1.561 1_556 S
C896 C899 1.526 . S
C897 H881 0.959 . S
C897 H882 0.959 . S
C897 H883 0.961 1_556 S
C897 C896 1.502 . S
C898 H884 0.960 . S
C898 H885 0.961 . S
C898 H886 0.959 . S
C898 C896 1.561 1_554 S
C899 C896 1.526 . S
C899 C900 1.396 . S
C899 C904 1.390 . S
C900 C894 1.465 . S
C900 C899 1.396 . S
C900 C901 1.399 . S
C901 H887 0.929 . S
C901 C900 1.399 . S
C901 C902 1.385 . S
C902 H888 0.931 . S
C902 C901 1.385 . S
C902 C903 1.389 . S
C903 C902 1.389 . S
C903 C904 1.387 . S
C904 H889 0.930 . S
C904 C899 1.390 . S
C904 C903 1.387 . S
H905 C917 0.930 . S
H906 C919 0.930 . S
H907 C920 0.930 . S
H908 C924 0.959 1_556 S
H909 C924 0.959 . S
H910 C924 0.961 . S
H911 C925 0.960 . S
H912 C925 0.961 . S
H913 C925 0.959 . S
H914 C928 0.929 . S
H915 C929 0.931 . S
H916 C931 0.930 . S
C917 H905 0.930 . S
C917 C918 1.399 1_554 S
C917 C922 1.399 1_554 S
C918 C917 1.399 1_556 S
C918 C919 1.376 . S
C919 H906 0.930 . S
C919 C918 1.376 . S
C919 C920 1.388 . S
C920 H907 0.930 . S
C920 C919 1.388 . S
C920 C921 1.390 . S
C921 C920 1.390 . S
C921 C922 1.394 . S
C921 C927 1.465 . S
C922 C917 1.399 1_556 S
C922 C921 1.394 . S
C922 C923 1.516 . S
C923 C922 1.516 . S
C923 C924 1.502 1_556 S
C923 C925 1.561 1_556 S
C923 C926 1.526 . S
C924 H908 0.959 1_554 S
C924 H909 0.959 . S
C924 H910 0.961 . S
C924 C923 1.502 1_554 S
C925 H911 0.960 . S
C925 H912 0.961 . S
C925 H913 0.959 . S
C925 C923 1.561 1_554 S
C926 C923 1.526 . S
C926 C927 1.396 . S
C926 C931 1.390 . S
C927 C921 1.465 . S
C927 C926 1.396 . S
C927 C928 1.399 . S
C928 H914 0.929 . S
C928 C927 1.399 . S
C928 C929 1.385 . S
C929 H915 0.931 . S
C929 C928 1.385 . S
C929 C930 1.389 . S
C930 C929 1.389 . S
C930 C931 1.387 . S
C931 H916 0.930 . S
C931 C926 1.390 . S
C931 C930 1.387 . S
H932 C944 0.930 . S
H933 C946 0.930 . S
H934 C947 0.930 . S
H935 C951 0.959 . S
H936 C951 0.959 . S
H937 C951 0.961 . S
H938 C952 0.960 . S
H939 C952 0.961 . S
H940 C952 0.959 . S
H941 C955 0.929 . S
H942 C956 0.931 . S
H943 C958 0.930 . S
C944 H932 0.930 . S
C944 C945 1.399 . S
C944 C949 1.399 . S
C945 C944 1.399 . S
C945 C946 1.376 . S
C946 H933 0.930 . S
C946 C945 1.376 . S
C946 C947 1.388 . S
C947 H934 0.930 . S
C947 C946 1.388 . S
C947 C948 1.390 . S
C948 C947 1.390 . S
C948 C949 1.394 . S
C948 C954 1.465 . S
C949 C944 1.399 . S
C949 C948 1.394 . S
C949 C950 1.516 . S
C950 C949 1.516 . S
C950 C951 1.502 . S
C950 C952 1.561 . S
C950 C953 1.526 . S
C951 H935 0.959 . S
C951 H936 0.959 . S
C951 H937 0.961 . S
C951 C950 1.502 . S
C952 H938 0.960 . S
C952 H939 0.961 . S
C952 H940 0.959 . S
C952 C950 1.561 . S
C953 C950 1.526 . S
C953 C954 1.396 . S
C953 C958 1.390 . S
C954 C948 1.465 . S
C954 C953 1.396 . S
C954 C955 1.399 . S
C955 H941 0.929 . S
C955 C954 1.399 . S
C955 C956 1.385 . S
C956 H942 0.931 . S
C956 C955 1.385 . S
C956 C957 1.389 . S
C957 C956 1.389 . S
C957 C958 1.387 . S
C958 H943 0.930 . S
C958 C953 1.390 . S
C958 C957 1.387 . S
H959 C971 0.930 . S
H960 C973 0.930 . S
H961 C974 0.930 . S
H962 C978 0.959 1_545 S
H963 C978 0.959 . S
H964 C978 0.961 . S
H965 C979 0.960 . S
H966 C979 0.961 . S
H967 C979 0.959 . S
H968 C982 0.929 . S
H969 C983 0.931 . S
H970 C985 0.930 . S
C971 H959 0.930 . S
C971 C972 1.393 1_565 S
C971 C976 1.399 . S
C972 C971 1.393 1_545 S
C972 C973 1.386 . S
C973 H960 0.930 . S
C973 C972 1.386 . S
C973 C974 1.388 . S
C974 H961 0.930 . S
C974 C973 1.388 . S
C974 C975 1.390 . S
C975 C974 1.390 . S
C975 C976 1.394 1_545 S
C975 C981 1.465 . S
C976 C971 1.399 . S
C976 C975 1.394 1_565 S
C976 C977 1.516 . S
C977 C976 1.516 . S
C977 C978 1.502 . S
C977 C979 1.561 . S
C977 C980 1.526 . S
C978 H962 0.959 1_565 S
C978 H963 0.959 . S
C978 H964 0.961 . S
C978 C977 1.502 . S
C979 H965 0.960 . S
C979 H966 0.961 . S
C979 H967 0.959 . S
C979 C977 1.561 . S
C980 C977 1.526 . S
C980 C981 1.396 1_565 S
C980 C985 1.390 . S
C981 C975 1.465 . S
C981 C980 1.396 1_545 S
C981 C982 1.399 . S
C982 H968 0.929 . S
C982 C981 1.399 . S
C982 C983 1.385 . S
C983 H969 0.931 . S
C983 C982 1.385 . S
C983 C984 1.389 . S
C984 C983 1.389 . S
C984 C985 1.387 1_545 S
C985 H970 0.930 . S
C985 C980 1.390 . S
C985 C984 1.387 1_565 S
H986 C998 0.930 . S
H987 C1000 0.930 . S
H988 C1001 0.930 . S
H989 C1005 0.959 . S
H990 C1005 0.959 . S
H991 C1005 0.961 . S
H992 C1006 0.960 . S
H993 C1006 0.961 . S
H994 C1006 0.959 . S
H995 C1009 0.929 . S
H996 C1010 0.931 . S
H997 C1012 0.930 . S
C998 H986 0.930 . S
C998 C999 1.399 . S
C998 C1003 1.399 . S
C999 C998 1.399 . S
C999 C1000 1.376 . S
C1000 H987 0.930 . S
C1000 C999 1.376 . S
C1000 C1001 1.388 . S
C1001 H988 0.930 . S
C1001 C1000 1.388 . S
C1001 C1002 1.390 . S
C1002 C1001 1.390 . S
C1002 C1003 1.394 . S
C1002 C1008 1.465 . S
C1003 C998 1.399 . S
C1003 C1002 1.394 . S
C1003 C1004 1.516 . S
C1004 C1003 1.516 . S
C1004 C1005 1.502 . S
C1004 C1006 1.561 . S
C1004 C1007 1.526 . S
C1005 H989 0.959 . S
C1005 H990 0.959 . S
C1005 H991 0.961 . S
C1005 C1004 1.502 . S
C1006 H992 0.960 . S
C1006 H993 0.961 . S
C1006 H994 0.959 . S
C1006 C1004 1.561 . S
C1007 C1004 1.526 . S
C1007 C1008 1.396 . S
C1007 C1012 1.390 . S
C1008 C1002 1.465 . S
C1008 C1007 1.396 . S
C1008 C1009 1.399 . S
C1009 H995 0.929 . S
C1009 C1008 1.399 . S
C1009 C1010 1.385 . S
C1010 H996 0.931 . S
C1010 C1009 1.385 . S
C1010 C1011 1.389 . S
C1011 C1010 1.389 . S
C1011 C1012 1.387 . S
C1012 H997 0.930 . S
C1012 C1007 1.390 . S
C1012 C1011 1.387 . S
H1013 C1025 0.930 . S
H1014 C1027 0.930 . S
H1015 C1028 0.930 . S
H1016 C1032 0.959 . S
H1017 C1032 0.959 . S
H1018 C1032 0.961 . S
H1019 C1033 0.960 . S
H1020 C1033 0.961 . S
H1021 C1033 0.959 . S
H1022 C1036 0.929 . S
H1023 C1037 0.931 . S
H1024 C1039 0.930 . S
C1025 H1013 0.930 . S
C1025 C1026 1.399 . S
C1025 C1030 1.399 . S
C1026 C1025 1.399 . S
C1026 C1027 1.376 . S
C1027 H1014 0.930 . S
C1027 C1026 1.376 . S
C1027 C1028 1.388 . S
C1028 H1015 0.930 . S
C1028 C1027 1.388 . S
C1028 C1029 1.390 . S
C1029 C1028 1.390 . S
C1029 C1030 1.394 . S
C1029 C1035 1.465 . S
C1030 C1025 1.399 . S
C1030 C1029 1.394 . S
C1030 C1031 1.516 . S
C1031 C1030 1.516 . S
C1031 C1032 1.502 . S
C1031 C1033 1.561 . S
C1031 C1034 1.526 . S
C1032 H1016 0.959 . S
C1032 H1017 0.959 . S
C1032 H1018 0.961 . S
C1032 C1031 1.502 . S
C1033 H1019 0.960 . S
C1033 H1020 0.961 . S
C1033 H1021 0.959 . S
C1033 C1031 1.561 . S
C1034 C1031 1.526 . S
C1034 C1035 1.396 . S
C1034 C1039 1.390 . S
C1035 C1029 1.465 . S
C1035 C1034 1.396 . S
C1035 C1036 1.399 . S
C1036 H1022 0.929 . S
C1036 C1035 1.399 . S
C1036 C1037 1.385 . S
C1037 H1023 0.931 . S
C1037 C1036 1.385 . S
C1037 C1038 1.389 . S
C1038 C1037 1.389 . S
C1038 C1039 1.387 . S
C1039 H1024 0.930 . S
C1039 C1034 1.390 . S
C1039 C1038 1.387 . S
C405 C255 1.527 . S
C417 C313 1.534 . S
C444 C348 2.246 . S
C432 C294 2.131 . S
C471 C353 1.447 . S
C459 C177 1.381 . S
C498 C373 1.937 . S
C486 C216 1.861 . S
C525 C321 1.542 . S
C513 C99 1.505 1_546 S
C540 C138 2.081 1_556 S
C552 C338 2.246 . S
C567 C21 1.362 1_556 S
C579 C361 1.449 . S
C594 C60 1.819 . S
C606 C381 1.942 . S
C633 C331 1.524 . S
C621 C196 1.419 . S
C660 C340 0.739 1_545 S
C648 C235 0.657 . S
C687 C371 1.665 . S
C675 C289 1.553 . S
C702 C157 0.845 . S
C714 C391 0.842 . S
C729 C40 1.307 . S
C741 C320 1.499 . S
C768 C351 0.726 . S
C756 C79 0.732 . S
C795 C360 1.660 . S
C783 C133 1.465 . S
C810 C1 0.952 . S
C822 C380 0.921 . S
C837 C211 2.086 . S
C849 C318 2.229 . S
C864 C250 1.770 1_556 S
C876 C341 1.892 . S
C903 C358 2.386 . S
C891 C274 2.191 1_556 S
C930 C378 2.095 . S
C918 C172 1.968 1_556 S
C945 C55 2.097 . S
C957 C328 2.229 . S
C984 C333 1.887 . S
C972 C94 1.777 . S
C1011 C368 2.380 . S
C999 C118 2.170 . S
C1026 C16 1.979 . S
C1038 C388 2.096 . S
