# Generated by pormake.
# Topology pyr, (3,6)-cn, num edge types: 1
# Building blocks:
#     Node 0, Type 0, BuildingBlock: PAMTOO_clean_linker_0, # of connection points: 3
#     Node 1, Type 0, BuildingBlock: PAMTOO_clean_linker_0, # of connection points: 3
#     Node 2, Type 0, BuildingBlock: PAMTOO_clean_linker_0, # of connection points: 3
#     Node 3, Type 0, BuildingBlock: PAMTOO_clean_linker_0, # of connection points: 3
#     Node 4, Type 0, BuildingBlock: PAMTOO_clean_linker_0, # of connection points: 3
#     Node 5, Type 0, BuildingBlock: PAMTOO_clean_linker_0, # of connection points: 3
#     Node 6, Type 0, BuildingBlock: PAMTOO_clean_linker_0, # of connection points: 3
#     Node 7, Type 0, BuildingBlock: PAMTOO_clean_linker_0, # of connection points: 3
#     Node 8, Type 1, BuildingBlock: LEVNOQ01_clean_sbu_1, # of connection points: 6
#     Node 9, Type 1, BuildingBlock: LEVNOQ01_clean_sbu_1, # of connection points: 6
#     Node 10, Type 1, BuildingBlock: LEVNOQ01_clean_sbu_1, # of connection points: 6
#     Node 11, Type 1, BuildingBlock: LEVNOQ01_clean_sbu_1, # of connection points: 6
#     Edge 12, Type (0, 1), BuildingBlock: UVAHIK_clean_linker_0, # of connection points: 2
#     Edge 13, Type (0, 1), BuildingBlock: UVAHIK_clean_linker_0, # of connection points: 2
#     Edge 14, Type (0, 1), BuildingBlock: UVAHIK_clean_linker_0, # of connection points: 2
#     Edge 15, Type (0, 1), BuildingBlock: UVAHIK_clean_linker_0, # of connection points: 2
#     Edge 16, Type (0, 1), BuildingBlock: UVAHIK_clean_linker_0, # of connection points: 2
#     Edge 17, Type (0, 1), BuildingBlock: UVAHIK_clean_linker_0, # of connection points: 2
#     Edge 18, Type (0, 1), BuildingBlock: UVAHIK_clean_linker_0, # of connection points: 2
#     Edge 19, Type (0, 1), BuildingBlock: UVAHIK_clean_linker_0, # of connection points: 2
#     Edge 20, Type (0, 1), BuildingBlock: UVAHIK_clean_linker_0, # of connection points: 2
#     Edge 21, Type (0, 1), BuildingBlock: UVAHIK_clean_linker_0, # of connection points: 2
#     Edge 22, Type (0, 1), BuildingBlock: UVAHIK_clean_linker_0, # of connection points: 2
#     Edge 23, Type (0, 1), BuildingBlock: UVAHIK_clean_linker_0, # of connection points: 2
#     Edge 24, Type (0, 1), BuildingBlock: UVAHIK_clean_linker_0, # of connection points: 2
#     Edge 25, Type (0, 1), BuildingBlock: UVAHIK_clean_linker_0, # of connection points: 2
#     Edge 26, Type (0, 1), BuildingBlock: UVAHIK_clean_linker_0, # of connection points: 2
#     Edge 27, Type (0, 1), BuildingBlock: UVAHIK_clean_linker_0, # of connection points: 2
#     Edge 28, Type (0, 1), BuildingBlock: UVAHIK_clean_linker_0, # of connection points: 2
#     Edge 29, Type (0, 1), BuildingBlock: UVAHIK_clean_linker_0, # of connection points: 2
#     Edge 30, Type (0, 1), BuildingBlock: UVAHIK_clean_linker_0, # of connection points: 2
#     Edge 31, Type (0, 1), BuildingBlock: UVAHIK_clean_linker_0, # of connection points: 2
#     Edge 32, Type (0, 1), BuildingBlock: UVAHIK_clean_linker_0, # of connection points: 2
#     Edge 33, Type (0, 1), BuildingBlock: UVAHIK_clean_linker_0, # of connection points: 2
#     Edge 34, Type (0, 1), BuildingBlock: UVAHIK_clean_linker_0, # of connection points: 2
#     Edge 35, Type (0, 1), BuildingBlock: UVAHIK_clean_linker_0, # of connection points: 2
# Relax obj value: 0.090
# Max RMSD: 0.205
# Mean RMSD: 0.144
data_MOF--net-pry--node1-LEVNOQ01_clean_sbu_1--node2-PAMTOO_clean_linker_0--edge1-UVAHIK_clean_linker_0
_symmetry_space_group_name_H-M    P1
_symmetry_Int_Tables_number       1
_symmetry_cell_setting            triclinic
loop_
_symmetry_equiv_pos_as_xyz
'x, y, z'
_cell_length_a     47.01581
_cell_length_b     46.640745
_cell_length_c     46.139343
_cell_angle_alpha  92.028203
_cell_angle_beta   92.404263
_cell_angle_gamma 99.028631
loop_
_atom_site_label
_atom_site_type_symbol
_atom_site_fract_x
_atom_site_fract_y
_atom_site_fract_z
_atom_type_partial_charge
H0 H 0.12993 0.16448 0.18298 0.0
H1 H 0.1918 0.10553 0.18644 0.0
H2 H 0.19009 0.16195 0.11519 0.0
H3 H 0.19991 0.10051 0.10018 0.0
C4 C 0.21317 0.09726 0.12 0.0
O5 O 0.21603 0.12176 0.13833 0.0
H6 H 0.20164 0.0783 0.131 0.0
C7 C 0.14771 0.15574 0.17369 0.0
C8 C 0.15837 0.16618 0.14724 0.0
C9 C 0.1594 0.13374 0.18806 0.0
C10 C 0.18207 0.12201 0.1755 0.0
C11 C 0.193 0.13207 0.14922 0.0
C12 C 0.18105 0.15396 0.13513 0.0
H13 H 0.3568 0.93785 0.6612 0.0
H14 H 0.35417 0.87776 0.58737 0.0
H15 H 0.42438 0.88631 0.65049 0.0
H16 H 0.43614 0.88054 0.58465 0.0
C17 C 0.41789 0.86253 0.57958 0.0
O18 O 0.401 0.85853 0.60328 0.0
H19 H 0.40476 0.86815 0.56063 0.0
C20 C 0.3665 0.92231 0.64847 0.0
C21 C 0.39253 0.9141 0.65876 0.0
C22 C 0.35213 0.9091 0.6228 0.0
C23 C 0.3646 0.88819 0.60724 0.0
C24 C 0.39058 0.88027 0.61717 0.0
C25 C 0.4045 0.89314 0.64278 0.0
H26 H 0.68551 0.35007 0.91261 0.0
H27 H 0.62291 0.35356 0.84263 0.0
H28 H 0.68833 0.42727 0.86393 0.0
H29 H 0.6275 0.44063 0.84131 0.0
C30 C 0.62252 0.42058 0.82704 0.0
O31 O 0.64534 0.40542 0.82806 0.0
H32 H 0.60274 0.40701 0.83445 0.0
C33 C 0.67606 0.36213 0.89606 0.0
C34 C 0.68934 0.39036 0.89069 0.0
C35 C 0.65196 0.34867 0.87907 0.0
C36 C 0.64096 0.3639 0.85665 0.0
C37 C 0.65375 0.39237 0.8517 0.0
C38 C 0.67772 0.40578 0.86888 0.0
H39 H 0.89651 0.63377 0.46392 0.0
H40 H 0.89204 0.56786 0.39544 0.0
H41 H 0.95418 0.64554 0.39403 0.0
H42 H 0.92148 0.63089 0.34125 0.0
C43 C 0.91641 0.60679 0.34198 0.0
O44 O 0.93123 0.59756 0.36542 0.0
H45 H 0.89272 0.60109 0.34434 0.0
C46 C 0.90514 0.62512 0.44465 0.0
C47 C 0.9275 0.64244 0.43118 0.0
C48 C 0.89197 0.59821 0.43202 0.0
C49 C 0.90246 0.58805 0.40617 0.0
C50 C 0.92493 0.60509 0.39265 0.0
C51 C 0.93785 0.63194 0.40545 0.0
H52 H 0.87026 0.90837 0.86099 0.0
H53 H 0.8667 0.85052 0.93228 0.0
H54 H 0.92547 0.84328 0.86452 0.0
H55 H 0.88982 0.7885 0.88811 0.0
C56 C 0.8955 0.79439 0.91147 0.0
O57 O 0.90818 0.82329 0.91452 0.0
H58 H 0.87508 0.79136 0.92312 0.0
C59 C 0.87739 0.89039 0.87193 0.0
C60 C 0.89891 0.87683 0.85955 0.0
C61 C 0.8649 0.88091 0.8979 0.0
C62 C 0.87565 0.85823 0.91221 0.0
C63 C 0.89753 0.84468 0.90027 0.0
C64 C 0.90873 0.85378 0.87373 0.0
H65 H 0.70319 0.1095 0.36711 0.0
H66 H 0.637 0.16364 0.36526 0.0
H67 H 0.69986 0.17305 0.43649 0.0
H68 H 0.64334 0.1787 0.45404 0.0
C69 C 0.63439 0.18793 0.43436 0.0
O70 O 0.6551 0.19247 0.41404 0.0
H71 H 0.6156 0.17211 0.42538 0.0
C72 C 0.69296 0.12637 0.37713 0.0
C73 C 0.70431 0.13984 0.40377 0.0
C74 C 0.66871 0.13477 0.36305 0.0
C75 C 0.65555 0.15669 0.37598 0.0
C76 C 0.667 0.17052 0.4023 0.0
C77 C 0.69137 0.16225 0.41605 0.0
H78 H 0.38071 0.68641 0.10116 0.0
H79 H 0.37994 0.62104 0.16486 0.0
H80 H 0.43983 0.70012 0.17597 0.0
H81 H 0.46523 0.65355 0.19883 0.0
C82 C 0.44547 0.63751 0.20157 0.0
O83 O 0.42145 0.65067 0.19786 0.0
H84 H 0.44488 0.6193 0.18516 0.0
C85 C 0.38954 0.67872 0.12097 0.0
C86 C 0.41184 0.69665 0.1371 0.0
C87 C 0.37739 0.65165 0.13099 0.0
C88 C 0.38939 0.6415 0.15626 0.0
C89 C 0.41225 0.65891 0.17193 0.0
C90 C 0.42332 0.68636 0.16252 0.0
H91 H 0.0987 0.36476 0.67176 0.0
H92 H 0.14798 0.45079 0.6721 0.0
H93 H 0.14547 0.39393 0.59703 0.0
H94 H 0.19741 0.44981 0.65331 0.0
C95 C 0.19284 0.45792 0.63141 0.0
O96 O 0.16577 0.44573 0.62006 0.0
H97 H 0.19329 0.4817 0.63483 0.0
C98 C 0.11253 0.3815 0.66102 0.0
C99 C 0.12019 0.37615 0.63237 0.0
C100 C 0.12279 0.40818 0.67593 0.0
C101 C 0.13981 0.42997 0.66127 0.0
C102 C 0.14855 0.42458 0.63327 0.0
C103 C 0.13908 0.3976 0.61896 0.0
O104 O 0.02896 0.02487 0.60444 0.0
Mg105 Mg 0.05698 0.04287 0.57386 0.0
O106 O 0.00201 0.99783 0.57027 0.0
Mg107 Mg 0.01975 0.0143 0.52406 0.0
O108 O 0.03856 0.06222 0.54042 0.0
O109 O 0.06723 0.08633 0.57665 0.0
O110 O 0.039 0.03123 0.47886 0.0
O111 O 0.97592 0.03369 0.51747 0.0
Mg112 Mg 0.98644 0.98832 0.47378 0.0
O113 O 0.00095 0.96598 0.5075 0.0
O114 O 0.01367 0.00628 0.44251 0.0
O115 O 0.95074 0.00737 0.48171 0.0
O116 O 0.97513 0.9455 0.46759 0.0
C117 C 0.0866 0.00047 0.54562 0.0
C118 C 0.00802 0.00509 0.59724 0.0
C119 C 0.05129 0.08652 0.55322 0.0
C120 C 0.03442 0.02541 0.45155 0.0
C121 C 0.95281 0.02712 0.50139 0.0
C122 C 0.98803 0.94306 0.4924 0.0
O123 O 0.09097 0.02117 0.56441 0.0
O124 O 0.06278 0.99466 0.5307 0.0
O125 O 0.50184 0.06653 0.02995 0.0
Mg126 Mg 0.54696 0.07614 0.03249 0.0
O127 O 0.50185 0.01971 0.01935 0.0
Mg128 Mg 0.54993 0.01314 0.00713 0.0
O129 O 0.56408 0.06086 0.99639 0.0
O130 O 0.56681 0.10817 0.00808 0.0
O131 O 0.59769 0.00539 0.99507 0.0
O132 O 0.53275 0.00546 0.95831 0.0
Mg133 Mg 0.55309 0.94606 0.98268 0.0
O134 O 0.53676 0.96628 0.01619 0.0
O135 O 0.59801 0.95794 0.98711 0.0
O136 O 0.53396 0.95938 0.94423 0.0
O137 O 0.53117 0.91842 0.0117 0.0
C138 C 0.57342 0.04073 0.07524 0.0
C139 C 0.48844 0.04087 0.02587 0.0
C140 C 0.57203 0.08779 0.99039 0.0
C141 C 0.61114 0.98384 0.99012 0.0
C142 C 0.52834 0.98453 0.93911 0.0
C143 C 0.52703 0.94145 0.02613 0.0
O144 O 0.5686 0.06606 0.07023 0.0
O145 O 0.56733 0.01977 0.05624 0.0
O146 O 0.5083 0.57497 0.57404 0.0
Mg147 Mg 0.51192 0.5323 0.58576 0.0
O148 O 0.52305 0.57431 0.52866 0.0
Mg149 Mg 0.53492 0.52828 0.51817 0.0
O150 O 0.5458 0.52287 0.56453 0.0
O151 O 0.54622 0.52198 0.61206 0.0
O152 O 0.54631 0.48202 0.50729 0.0
O153 O 0.58325 0.54837 0.51509 0.0
Mg154 Mg 0.55796 0.52378 0.45098 0.0
O155 O 0.52456 0.53531 0.47185 0.0
O156 O 0.55591 0.47942 0.46028 0.0
O157 O 0.59489 0.55176 0.46886 0.0
O158 O 0.52623 0.53804 0.42444 0.0
C159 C 0.4704 0.49628 0.54167 0.0
C160 C 0.51331 0.58719 0.55017 0.0
C161 C 0.55884 0.51804 0.58834 0.0
C162 C 0.55227 0.46782 0.48465 0.0
C163 C 0.60118 0.55653 0.49582 0.0
C164 C 0.51281 0.54144 0.44777 0.0
O165 O 0.47786 0.5006 0.56846 0.0
O166 O 0.48651 0.50676 0.52165 0.0
O167 O 0.05613 0.42767 0.07615 0.0
Mg168 Mg 0.06356 0.47238 0.08594 0.0
O169 O 0.0446 0.43315 0.02958 0.0
Mg170 Mg 0.03263 0.48119 0.02322 0.0
O171 O 0.02893 0.48971 0.07147 0.0
O172 O 0.04168 0.48975 0.11837 0.0
O173 O 0.0206 0.52896 0.01631 0.0
O174 O 0.98374 0.4605 0.02319 0.0
Mg175 Mg -0.00102 0.48454 0.96248 0.0
O176 O 0.03726 0.47259 0.97462 0.0
O177 O -0.00046 0.52917 0.9722 0.0
O178 O 0.96545 0.45522 0.97782 0.0
O179 O 0.021 0.47171 0.92841 0.0
C180 C 0.10269 0.50484 0.04304 0.0
C181 C 0.05094 0.41728 0.05042 0.0
C182 C 0.02411 0.49582 0.09814 0.0
C183 C 0.00904 0.54221 0.99604 0.0
C184 C 0.96327 0.45089 0.0046 0.0
C185 C 0.04073 0.46748 0.94734 0.0
O186 O 0.10052 0.49534 0.06841 0.0
O187 O 0.08125 0.50203 0.02465 0.0
C188 C 0.14296 0.094 0.22236 0.0
C189 C 0.14842 0.12372 0.21656 0.0
C190 C 0.13245 0.08477 0.2491 0.0
C191 C 0.0966 0.11068 0.31384 0.0
H192 H 0.11839 0.04216 0.3482 0.0
C193 C 0.03585 0.05498 0.40788 0.0
C194 C 0.05104 0.04224 0.42947 0.0
C195 C 0.04968 0.06685 0.38382 0.0
C196 C 0.11236 0.06158 0.33914 0.0
H197 H 0.14777 0.16704 0.23478 0.0
H198 H 0.13022 0.1512 0.2814 0.0
H199 H 0.13859 0.05845 0.3026 0.0
H200 H 0.09276 0.03198 0.44294 0.0
H201 H 0.11731 0.05289 0.40061 0.0
H202 H 0.0708 0.11413 0.35054 0.0
C203 C 0.13319 0.1348 0.2651 0.0
C204 C 0.12362 0.07071 0.31266 0.0
C205 C 0.14338 0.14396 0.23831 0.0
C206 C 0.08068 0.04217 0.42685 0.0
C207 C 0.09457 0.05378 0.40241 0.0
C208 C 0.08546 0.10163 0.34029 0.0
C209 C 0.12738 0.10504 0.27094 0.0
C210 C 0.11579 0.09534 0.29948 0.0
C211 C 0.07912 0.06599 0.38036 0.0
C212 C 0.09293 0.07679 0.35325 0.0
H213 H 0.14632 0.0778 0.20599 0.0
H214 H 0.12783 0.06168 0.25239 0.0
H215 H 0.08961 0.12948 0.3044 0.0
H216 H 0.01289 0.05498 0.40921 0.0
H217 H 0.03687 0.07561 0.36728 0.0
C218 C 0.41399 0.90648 0.70768 0.0
C219 C 0.40635 0.92572 0.6871 0.0
C220 C 0.42784 0.91699 0.73413 0.0
C221 C 0.44436 0.98233 0.78405 0.0
H222 H 0.50194 0.93924 0.81515 0.0
C223 C 0.49001 0.99534 0.90378 0.0
C224 C 0.51787 0.98911 0.90944 0.0
C225 C 0.47792 0.99265 0.8753 0.0
C226 C 0.48633 0.95195 0.80669 0.0
H227 H 0.4068 0.971 0.67807 0.0
H228 H 0.43187 0.98962 0.7242 0.0
H229 H 0.47833 0.92464 0.76824 0.0
H230 H 0.55583 0.97743 0.89017 0.0
H231 H 0.5356 0.97431 0.84052 0.0
H232 H 0.45307 0.01011 0.82249 0.0
C233 C 0.42667 0.96635 0.7201 0.0
C234 C 0.47233 0.94318 0.77988 0.0
C235 C 0.41242 0.95575 0.69367 0.0
C236 C 0.53424 0.98229 0.88621 0.0
C237 C 0.52247 0.98015 0.85784 0.0
C238 C 0.45862 0.99131 0.81092 0.0
C239 C 0.4348 0.94706 0.74056 0.0
C240 C 0.4508 0.95789 0.76838 0.0
C241 C 0.4937 0.98396 0.8521 0.0
C242 C 0.47962 0.97605 0.82271 0.0
H243 H 0.40907 0.8832 0.70336 0.0
H244 H 0.43298 0.90142 0.7496 0.0
H245 H 0.42781 0.99411 0.77595 0.0
H246 H 0.47692 0.00028 0.92151 0.0
H247 H 0.45568 0.99562 0.87178 0.0
C248 C 0.63201 0.45407 0.78601 0.0
C249 C 0.61807 0.42775 0.79603 0.0
C250 C 0.63339 0.45823 0.75629 0.0
C251 C 0.59981 0.43052 0.68528 0.0
H252 H 0.66807 0.47735 0.65747 0.0
C253 C 0.58488 0.477 0.58136 0.0
C254 C 0.58583 0.50636 0.58951 0.0
C255 C 0.60221 0.46043 0.59673 0.0
C256 C 0.64916 0.46364 0.66475 0.0
H257 H 0.59479 0.38509 0.78331 0.0
H258 H 0.5971 0.39222 0.73123 0.0
H259 H 0.66779 0.46249 0.70772 0.0
H260 H 0.60913 0.54301 0.61496 0.0
H261 H 0.63948 0.51457 0.64149 0.0
H262 H 0.58053 0.43285 0.64309 0.0
C263 C 0.60654 0.40989 0.74621 0.0
C264 C 0.64879 0.45553 0.69361 0.0
C265 C 0.60498 0.40585 0.77595 0.0
C266 C 0.60806 0.52025 0.6086 0.0
C267 C 0.62549 0.50381 0.62379 0.0
C268 C 0.60024 0.43844 0.65647 0.0
C269 C 0.62129 0.4359 0.73605 0.0
C270 C 0.62359 0.44012 0.7045 0.0
C271 C 0.6202 0.47333 0.62034 0.0
C272 C 0.62436 0.45639 0.64629 0.0
H273 H 0.64275 0.47101 0.80117 0.0
H274 H 0.64426 0.47881 0.74918 0.0
H275 H 0.58003 0.41872 0.69292 0.0
H276 H 0.56772 0.46596 0.56668 0.0
H277 H 0.59826 0.43703 0.59314 0.0
C278 C 0.91017 0.56507 0.30489 0.0
C279 C 0.92417 0.59289 0.31422 0.0
C280 C 0.91516 0.55339 0.27759 0.0
C281 C 0.93927 0.5768 0.20618 0.0
H282 H 0.95283 0.49755 0.19398 0.0
C283 C 0.00417 0.53844 0.11538 0.0
C284 C -0.0006 0.50903 0.10649 0.0
C285 C 0.98623 0.54894 0.13514 0.0
C286 C 0.94827 0.5195 0.19678 0.0
H287 H 0.95594 0.6294 0.30374 0.0
H288 H 0.9649 0.60897 0.25608 0.0
H289 H 0.94138 0.51439 0.24202 0.0
H290 H 0.97104 0.46799 0.10849 0.0
H291 H 0.93908 0.48641 0.14265 0.0
H292 H 0.94702 0.58219 0.16116 0.0
C293 C 0.94943 0.59654 0.26941 0.0
C294 C 0.94195 0.52919 0.2244 0.0
C295 C 0.9445 0.60814 0.29669 0.0
C296 C 0.97473 0.49091 0.11487 0.0
C297 C 0.95675 0.50136 0.1347 0.0
C298 C 0.94547 0.56709 0.17854 0.0
C299 C 0.93428 0.56939 0.25929 0.0
C300 C 0.93823 0.55817 0.22954 0.0
C301 C 0.96347 0.52999 0.14644 0.0
C302 C 0.95086 0.53858 0.17372 0.0
H303 H 0.89468 0.55283 0.31834 0.0
H304 H 0.90335 0.53233 0.27043 0.0
H305 H 0.93583 0.59909 0.2094 0.0
H306 H 0.02347 0.55254 0.10953 0.0
H307 H 0.99215 0.57106 0.14381 0.0
C308 C 0.25675 0.0716 0.12688 0.0
C309 C 0.24243 0.09095 0.11135 0.0
C310 C 0.28283 0.0642 0.11758 0.0
C311 C 0.34362 0.08855 0.07013 0.0
H312 H 0.35711 0.00875 0.07322 0.0
C313 C 0.44033 0.0543 0.01457 0.0
C314 C 0.45694 0.03671 0.02975 0.0
C315 C 0.41289 0.0577 0.02333 0.0
C316 C 0.35383 0.03118 0.07239 0.0
H317 H 0.24482 0.11867 0.07467 0.0
H318 H 0.29009 0.10577 0.05822 0.0
H319 H 0.31293 0.02228 0.09199 0.0
H320 H 0.45737 0.00788 0.0654 0.0
H321 H 0.40929 0.01393 0.08108 0.0
H322 H 0.38438 0.09764 0.0508 0.0
C323 C 0.28135 0.09623 0.07765 0.0
C324 C 0.32846 0.03899 0.08324 0.0
C325 C 0.2553 0.10358 0.08696 0.0
C326 C 0.44478 0.02112 0.05293 0.0
C327 C 0.41728 0.02479 0.062 0.0
C328 C 0.36887 0.08077 0.05933 0.0
C329 C 0.2954 0.07617 0.09262 0.0
C330 C 0.32286 0.06779 0.08205 0.0
C331 C 0.40144 0.0441 0.04799 0.0
C332 C 0.3743 0.05192 0.05997 0.0
H333 H 0.24746 0.06178 0.14596 0.0
H334 H 0.29318 0.04915 0.13004 0.0
H335 H 0.34056 0.11104 0.0694 0.0
H336 H 0.44926 0.06675 0.99676 0.0
H337 H 0.40112 0.07202 0.01138 0.0
C338 C 0.30206 0.8938 0.60092 0.0
C339 C 0.32362 0.91599 0.61271 0.0
C340 C 0.27559 0.90012 0.59044 0.0
C341 C 0.23981 0.96109 0.56602 0.0
H342 H 0.17008 0.90707 0.57762 0.0
C343 C 0.12972 0.98528 0.52402 0.0
C344 C 0.10833 0.98129 0.54437 0.0
C345 C 0.1549 0.97311 0.52816 0.0
C346 C 0.18933 0.92242 0.57421 0.0
H347 H 0.33394 0.96225 0.62314 0.0
H348 H 0.28724 0.97318 0.60589 0.0
H349 H 0.21632 0.89612 0.59561 0.0
H350 H 0.09541 0.96096 0.58414 0.0
H351 H 0.13909 0.93982 0.59159 0.0
H352 H 0.21262 0.98818 0.5461 0.0
C353 C 0.29113 0.95093 0.60404 0.0
C354 C 0.21593 0.916 0.58428 0.0
C355 C 0.31778 0.94463 0.61433 0.0
C356 C 0.11151 0.96372 0.5679 0.0
C357 C 0.13658 0.95165 0.57212 0.0
C358 C 0.21316 0.96764 0.55619 0.0
C359 C 0.26978 0.92876 0.59179 0.0
C360 C 0.24151 0.93536 0.58053 0.0
C361 C 0.15906 0.95706 0.55289 0.0
C362 C 0.18754 0.94852 0.56042 0.0
H363 H 0.30556 0.87139 0.59983 0.0
H364 H 0.25983 0.88251 0.58092 0.0
H365 H 0.25908 0.97629 0.56232 0.0
H366 H 0.12778 -0.00072 0.50603 0.0
H367 H 0.17161 0.97732 0.51272 0.0
C368 C 0.72053 0.4258 0.92516 0.0
C369 C 0.71726 0.4016 0.90568 0.0
C370 C 0.74564 0.43268 0.94312 0.0
C371 C 0.80052 0.39528 0.97633 0.0
H372 H 0.84848 0.47069 0.98732 0.0
C373 C 0.92094 0.41258 0.99951 0.0
C374 C 0.9347 0.43842 0.01364 0.0
C375 C 0.89096 0.40658 0.99693 0.0
C376 C 0.83487 0.44965 0.98522 0.0
H377 H 0.73797 0.36725 0.88745 0.0
H378 H 0.78183 0.37941 0.91838 0.0
H379 H 0.80323 0.46587 0.95818 0.0
H380 H 0.92855 0.47679 0.03884 0.0
H381 H 0.8758 0.46632 0.03434 0.0
H382 H 0.83255 0.37873 0.00223 0.0
C383 C 0.76491 0.39255 0.92052 0.0
C384 C 0.80911 0.44691 0.96834 0.0
C385 C 0.74 0.38573 0.90274 0.0
C386 C 0.91825 0.4565 0.02818 0.0
C387 C 0.88814 0.45073 0.02524 0.0
C388 C 0.82612 0.39801 0.99324 0.0
C389 C 0.76748 0.41531 0.94166 0.0
C390 C 0.79235 0.41949 0.96286 0.0
C391 C 0.87435 0.42662 0.00809 0.0
C392 C 0.84411 0.425 0.99695 0.0
H393 H 0.70315 0.4383 0.92757 0.0
H394 H 0.74735 0.45054 0.95908 0.0
H395 H 0.78757 0.37397 0.9729 0.0
H396 H 0.93332 0.3986 0.98784 0.0
H397 H 0.88106 0.38788 0.98346 0.0
C398 C 0.84037 0.57539 0.42358 0.0
C399 C 0.86419 0.58417 0.44305 0.0
C400 C 0.81263 0.56944 0.43377 0.0
C401 C 0.77 0.56068 0.50025 0.0
H402 H 0.7164 0.59614 0.45263 0.0
C403 C 0.6474 0.54544 0.51591 0.0
C404 C 0.63168 0.56585 0.50425 0.0
C405 C 0.67735 0.54927 0.51427 0.0
C406 C 0.73113 0.58666 0.46664 0.0
H407 H 0.87793 0.59044 0.48858 0.0
H408 H 0.82943 0.58097 0.50632 0.0
H409 H 0.76464 0.5957 0.43706 0.0
H410 H 0.63452 0.60757 0.48475 0.0
H411 H 0.68705 0.61571 0.48418 0.0
H412 H 0.73656 0.55267 0.53041 0.0
C413 C 0.8321 0.57857 0.48321 0.0
C414 C 0.75873 0.58573 0.45725 0.0
C415 C 0.85991 0.58421 0.47303 0.0
C416 C 0.64637 0.59163 0.49392 0.0
C417 C 0.67638 0.59594 0.49314 0.0
C418 C 0.74233 0.5619 0.50986 0.0
C419 C 0.80805 0.57249 0.46359 0.0
C420 C 0.77844 0.57246 0.47371 0.0
C421 C 0.69206 0.57392 0.50145 0.0
C422 C 0.72245 0.57479 0.49307 0.0
H423 H 0.8428 0.57521 0.40034 0.0
H424 H 0.79461 0.56394 0.4181 0.0
H425 H 0.78464 0.55028 0.51346 0.0
H426 H 0.63632 0.52514 0.52353 0.0
H427 H 0.68849 0.53175 0.52081 0.0
C428 C 0.14149 0.19022 0.10256 0.0
C429 C 0.14623 0.19031 0.13292 0.0
C430 C 0.12949 0.21264 0.08947 0.0
C431 C 0.0873 0.27214 0.10697 0.0
H432 H 0.11278 0.30153 0.03332 0.0
C433 C 0.03653 0.36447 0.05714 0.0
C434 C 0.05553 0.38689 0.04548 0.0
C435 C 0.04521 0.33767 0.06264 0.0
C436 C 0.10542 0.2937 0.05395 0.0
H437 H 0.14294 0.21496 0.17305 0.0
H438 H 0.12241 0.25381 0.15044 0.0
H439 H 0.13363 0.26172 0.05424 0.0
H440 H 0.09827 0.39868 0.02977 0.0
H441 H 0.11369 0.3522 0.0395 0.0
H442 H 0.06013 0.30475 0.10755 0.0
C443 C 0.12718 0.23607 0.13666 0.0
C444 C 0.11721 0.27056 0.06584 0.0
C445 C 0.13905 0.2137 0.1497 0.0
C446 C 0.08285 0.38142 0.03787 0.0
C447 C 0.09173 0.35474 0.04372 0.0
C448 C 0.07565 0.29527 0.09519 0.0
C449 C 0.12194 0.23583 0.10636 0.0
C450 C 0.10856 0.25963 0.09274 0.0
C451 C 0.07346 0.33286 0.05734 0.0
C452 C 0.08461 0.30664 0.06858 0.0
H453 H 0.1465 0.17249 0.08891 0.0
H454 H 0.12558 0.21143 0.06613 0.0
H455 H 0.07962 0.26413 0.12743 0.0
H456 H 0.0156 0.36834 0.06385 0.0
H457 H 0.03017 0.32124 0.07242 0.0
C458 C 0.63545 0.30835 0.91154 0.0
C459 C 0.64029 0.31792 0.8834 0.0
C460 C 0.62743 0.27887 0.91612 0.0
C461 C 0.63446 0.20734 0.88744 0.0
H462 H 0.57098 0.18125 0.93605 0.0
C463 C 0.5668 0.09991 0.93949 0.0
C464 C 0.58522 0.09643 0.96333 0.0
C465 C 0.57512 0.12146 0.91992 0.0
C466 C 0.58846 0.18818 0.92202 0.0
H467 H 0.64032 0.3044 0.83797 0.0
H468 H 0.62628 0.25253 0.84609 0.0
H469 H 0.5806 0.23215 0.9235 0.0
H470 H 0.62781 0.10951 0.98358 0.0
H471 H 0.64284 0.14645 0.94868 0.0
H472 H 0.64327 0.16344 0.88766 0.0
C473 C 0.6287 0.26797 0.86447 0.0
C474 C 0.59409 0.21726 0.9151 0.0
C475 C 0.63639 0.29756 0.85983 0.0
C476 C 0.61353 0.11153 0.96496 0.0
C477 C 0.62205 0.13274 0.94511 0.0
C478 C 0.62915 0.17822 0.89491 0.0
C479 C 0.6244 0.25841 0.89268 0.0
C480 C 0.61727 0.22715 0.89798 0.0
C481 C 0.60209 0.13926 0.92387 0.0
C482 C 0.60613 0.16855 0.91231 0.0
H483 H 0.63832 0.32367 0.93004 0.0
H484 H 0.62437 0.27197 0.93811 0.0
H485 H 0.65265 0.21464 0.87443 0.0
H486 H 0.54468 0.08885 0.93823 0.0
H487 H 0.5594 0.12634 0.90374 0.0
C488 C 0.91524 0.69019 0.44778 0.0
C489 C 0.93647 0.67307 0.4416 0.0
C490 C 0.92293 0.71907 0.45744 0.0
C491 C 0.98196 0.77214 0.49177 0.0
H492 H 0.9371 0.8274 0.45942 0.0
C493 C 0.00979 0.89888 0.50172 0.0
C494 C 0.98611 0.91369 0.50313 0.0
C495 C 0.00541 0.86842 0.50027 0.0
C496 C 0.94956 0.81218 0.46902 0.0
H497 H 0.98241 0.67282 0.44027 0.0
H498 H 0.99605 0.72391 0.45715 0.0
H499 H 0.92698 0.77685 0.44236 0.0
H500 H 0.93992 0.90905 0.50689 0.0
H501 H 0.93232 0.8561 0.50523 0.0
H502 H 0.00488 0.80806 0.5181 0.0
C503 C 0.97342 0.71465 0.45485 0.0
C504 C 0.94382 0.78321 0.45915 0.0
C505 C 0.96566 0.68557 0.44501 0.0
C506 C 0.95851 0.89796 0.50614 0.0
C507 C 0.95415 0.86771 0.5048 0.0
C508 C 0.98784 0.80135 0.5016 0.0
C509 C 0.95206 0.7317 0.46102 0.0
C510 C 0.95967 0.76276 0.47063 0.0
C511 C 0.9773 0.85267 0.50008 0.0
C512 C 0.97139 0.82154 0.49055 0.0
H513 H 0.89254 0.68132 0.44483 0.0
H514 H 0.90595 0.7315 0.46225 0.0
H515 H 0.99441 0.7568 0.50113 0.0
H516 H 0.03116 0.91069 0.49881 0.0
H517 H 0.02363 0.85735 0.49665 0.0
C518 C 0.41273 0.80771 0.57673 0.0
C519 C 0.42924 0.83486 0.57211 0.0
C520 C 0.42389 0.7822 0.57127 0.0
C521 C 0.47421 0.74754 0.53068 0.0
H522 H 0.47414 0.69856 0.59686 0.0
C523 C 0.52077 0.63796 0.53173 0.0
C524 C 0.50484 0.61607 0.54725 0.0
C525 C 0.51342 0.66602 0.5322 0.0
C526 C 0.47407 0.7118 0.57804 0.0
H527 H 0.46902 0.85649 0.55543 0.0
H528 H 0.48846 0.8114 0.54532 0.0
H529 H 0.45706 0.74494 0.60174 0.0
H530 H 0.46746 0.60535 0.57309 0.0
H531 H 0.45415 0.65335 0.57301 0.0
H532 H 0.49029 0.71369 0.50666 0.0
C533 C 0.46724 0.81017 0.55393 0.0
C534 C 0.4644 0.73839 0.58093 0.0
C535 C 0.45623 0.83584 0.55985 0.0
C536 C 0.48059 0.62205 0.56159 0.0
C537 C 0.47305 0.64964 0.56167 0.0
C538 C 0.48359 0.72055 0.52763 0.0
C539 C 0.45141 0.78324 0.5603 0.0
C540 C 0.46386 0.75623 0.55718 0.0
C541 C 0.48988 0.67224 0.54789 0.0
C542 C 0.48294 0.70212 0.55116 0.0
H543 H 0.39144 0.80619 0.58523 0.0
H544 H 0.41112 0.76159 0.57589 0.0
H545 H 0.47401 0.76109 0.51211 0.0
H546 H 0.53946 0.63372 0.52035 0.0
H547 H 0.5267 0.68299 0.52123 0.0
C548 C 0.92496 0.91591 0.8302 0.0
C549 C 0.91084 0.88722 0.83175 0.0
C550 C 0.93397 0.92682 0.80362 0.0
C551 C 0.9459 0.90525 0.72635 0.0
H552 H 0.94291 0.98676 0.71557 0.0
C553 C 0.97361 0.96342 0.61738 0.0
C554 C 0.99195 0.99033 0.62131 0.0
C555 C 0.96117 0.94925 0.64144 0.0
C556 C 0.94398 0.96396 0.71817 0.0
H557 H 0.89509 0.84736 0.80683 0.0
H558 H 0.90992 0.86655 0.76008 0.0
H559 H 0.92733 0.96518 0.76046 0.0
H560 H 0.01095 0.02348 0.65384 0.0
H561 H 0.98968 -0.00083 0.69482 0.0
H562 H 0.96249 0.90436 0.68364 0.0
C563 C 0.91484 0.88053 0.77945 0.0
C564 C 0.9352 0.95154 0.74415 0.0
C565 C 0.90625 0.86947 0.80623 0.0
C566 C 0.99694 0.00285 0.64968 0.0
C567 C 0.98455 0.98893 0.6734 0.0
C568 C 0.95453 0.91772 0.70015 0.0
C569 C 0.92852 0.90954 0.77766 0.0
C570 C 0.93656 0.92213 0.749 0.0
C571 C 0.96657 0.96191 0.66979 0.0
C572 C 0.95424 0.94741 0.69597 0.0
H573 H 0.92885 0.93 0.8496 0.0
H574 H 0.94512 0.94895 0.80352 0.0
H575 H 0.94744 0.8826 0.72914 0.0
H576 H 0.96942 0.95303 0.59593 0.0
H577 H 0.94731 0.92848 0.63787 0.0
C578 C 0.62952 0.10834 0.32886 0.0
C579 C 0.6583 0.12167 0.33413 0.0
C580 C 0.62016 0.09568 0.30142 0.0
C581 C 0.6364 0.10102 0.22498 0.0
H582 H 0.5951 0.02229 0.21422 0.0
C583 C 0.61453 0.05044 0.11089 0.0
C584 C 0.58628 0.03666 0.10398 0.0
C585 C 0.62419 0.05627 0.13982 0.0
C586 C 0.60643 0.04437 0.21689 0.0
H587 H 0.6997 0.13269 0.3151 0.0
H588 H 0.68325 0.11125 0.26706 0.0
H589 H 0.60874 0.04291 0.26343 0.0
H590 H 0.54627 0.01686 0.12144 0.0
H591 H 0.56304 0.02706 0.17228 0.0
H592 H 0.6337 0.10307 0.17887 0.0
C593 C 0.66801 0.11026 0.2841 0.0
C594 C 0.61417 0.05615 0.24503 0.0
C595 C 0.67745 0.1224 0.31156 0.0
C596 C 0.56841 0.02689 0.12638 0.0
C597 C 0.57799 0.03294 0.15546 0.0
C598 C 0.62852 0.0894 0.19701 0.0
C599 C 0.6393 0.09675 0.27874 0.0
C600 C 0.62954 0.08448 0.24926 0.0
C601 C 0.60554 0.04896 0.16243 0.0
C602 C 0.6138 0.06079 0.19253 0.0
H603 H 0.61443 0.10746 0.34604 0.0
H604 H 0.59788 0.08554 0.29778 0.0
H605 H 0.64775 0.12311 0.22764 0.0
H606 H 0.62844 0.05862 0.09389 0.0
H607 H 0.64577 0.06799 0.14441 0.0
C608 C 0.43861 0.59708 0.23651 0.0
C609 C 0.44585 0.62678 0.23174 0.0
C610 C 0.43618 0.5875 0.26472 0.0
C611 C 0.42752 0.61254 0.34078 0.0
H612 H 0.46175 0.54454 0.35864 0.0
C613 C 0.48632 0.58212 0.4428 0.0
C614 C 0.48535 0.55218 0.44562 0.0
C615 C 0.46706 0.59212 0.42318 0.0
C616 C 0.45129 0.56307 0.35387 0.0
H617 H 0.45565 0.66988 0.25218 0.0
H618 H 0.45215 0.65316 0.30176 0.0
H619 H 0.46076 0.56017 0.30924 0.0
H620 H 0.46057 0.50967 0.43559 0.0
H621 H 0.42678 0.52705 0.40156 0.0
H622 H 0.42037 0.61646 0.38641 0.0
C623 C 0.44805 0.63726 0.28378 0.0
C624 C 0.45085 0.57211 0.32552 0.0
C625 C 0.45051 0.64681 0.25554 0.0
C626 C 0.46159 0.53289 0.43362 0.0
C627 C 0.44233 0.54285 0.41405 0.0
C628 C 0.42838 0.60366 0.36944 0.0
C629 C 0.4408 0.60748 0.28868 0.0
C630 C 0.43927 0.59711 0.31865 0.0
C631 C 0.44708 0.57203 0.40639 0.0
C632 C 0.44045 0.57893 0.37617 0.0
H633 H 0.43441 0.58133 0.21841 0.0
H634 H 0.43026 0.56445 0.26773 0.0
H635 H 0.41817 0.63174 0.33606 0.0
H636 H 0.5046 0.59729 0.45194 0.0
H637 H 0.471 0.61478 0.41781 0.0
C638 C 0.11726 0.39037 0.72658 0.0
C639 C 0.1173 0.41296 0.70714 0.0
C640 C 0.11458 0.39554 0.75629 0.0
C641 C 0.09337 0.45004 0.80877 0.0
H642 H 0.13164 0.4075 0.86531 0.0
C643 C 0.08762 0.47952 0.92614 0.0
C644 C 0.06669 0.45815 0.93664 0.0
C645 C 0.10347 0.47284 0.90261 0.0
C646 C 0.12122 0.4197 0.84964 0.0
H647 H 0.11346 0.45854 0.7039 0.0
H648 H 0.1108 0.46797 0.75545 0.0
H649 H 0.13756 0.39871 0.81338 0.0
H650 H 0.04834 0.41259 0.9339 0.0
H651 H 0.07672 0.40065 0.89326 0.0
H652 H 0.07751 0.47132 0.84505 0.0
C653 C 0.11207 0.446 0.74786 0.0
C654 C 0.12419 0.41445 0.81993 0.0
C655 C 0.11408 0.44069 0.71816 0.0
C656 C 0.06484 0.42922 0.92642 0.0
C657 C 0.08094 0.42244 0.90309 0.0
C658 C 0.09103 0.45574 0.8383 0.0
C659 C 0.11236 0.42354 0.76739 0.0
C660 C 0.11004 0.42939 0.79909 0.0
C661 C 0.09863 0.44469 0.8897 0.0
C662 C 0.10476 0.44054 0.85894 0.0
H663 H 0.12007 0.3688 0.71902 0.0
H664 H 0.11428 0.37753 0.77049 0.0
H665 H 0.08144 0.4614 0.79361 0.0
H666 H 0.08893 0.50206 0.93341 0.0
H667 H 0.11696 0.4903 0.89248 0.0
C668 C 0.81981 0.90327 0.88974 0.0
C669 C 0.8403 0.8944 0.9092 0.0
C670 C 0.79713 0.9165 0.89974 0.0
C671 C 0.7714 0.95273 0.96543 0.0
H672 H 0.69854 0.93814 0.92074 0.0
C673 C 0.66123 0.97825 0.00559 0.0
C674 C 0.6423 0.98785 0.98504 0.0
C675 C 0.68796 0.97152 0.99752 0.0
C676 C 0.71884 0.94283 0.93329 0.0
H677 H 0.85236 0.89258 0.95492 0.0
H678 H 0.81206 0.91448 0.97244 0.0
H679 H 0.73859 0.91532 0.9051 0.0
H680 H 0.63674 0.99861 0.94019 0.0
H681 H 0.68344 0.98714 0.92605 0.0
H682 H 0.75078 0.97941 0.99427 0.0
C683 C 0.81401 0.91186 0.94924 0.0
C684 C 0.74199 0.92972 0.92428 0.0
C685 C 0.837 0.89884 0.93917 0.0
C686 C 0.65128 0.99211 0.95667 0.0
C687 C 0.67781 0.98502 0.94848 0.0
C688 C 0.74801 0.96558 0.97467 0.0
C689 C 0.79367 0.92091 0.92965 0.0
C690 C 0.76878 0.93458 0.94002 0.0
C691 C 0.696 0.97357 0.96854 0.0
C692 C 0.72148 0.96095 0.95858 0.0
H693 H 0.82104 0.89983 0.86653 0.0
H694 H 0.78242 0.92349 0.88379 0.0
H695 H 0.79165 0.9574 0.97804 0.0
H696 H 0.65443 0.97389 0.02736 0.0
H697 H 0.7013 0.9626 0.01348 0.0
C698 C 0.73084 0.10073 0.42097 0.0
C699 C 0.72967 0.13043 0.41856 0.0
C700 C 0.75506 0.09162 0.43387 0.0
C701 C 0.8212 0.11617 0.48078 0.0
H702 H 0.84545 0.04847 0.44425 0.0
C703 C 0.93051 0.07255 0.50414 0.0
C704 C 0.92775 0.04214 0.50435 0.0
C705 C 0.90615 0.08571 0.49799 0.0
C706 C 0.83882 0.06727 0.45486 0.0
H707 H 0.75273 0.17396 0.42812 0.0
H708 H 0.79546 0.15803 0.45025 0.0
H709 H 0.80363 0.0667 0.42404 0.0
H710 H 0.89757 0.00185 0.50118 0.0
H711 H 0.85536 0.02467 0.49116 0.0
H712 H 0.85714 0.11673 0.51134 0.0
C713 C 0.77742 0.14177 0.4426 0.0
C714 C 0.81476 0.07768 0.44333 0.0
C715 C 0.75301 0.1509 0.42986 0.0
C716 C 0.90022 0.02536 0.50102 0.0
C717 C 0.87611 0.03838 0.49503 0.0
C718 C 0.84556 0.1058 0.49224 0.0
C719 C 0.77887 0.112 0.44442 0.0
C720 C 0.80531 0.10196 0.45638 0.0
C721 C 0.87899 0.06851 0.49204 0.0
C722 C 0.85424 0.08093 0.47965 0.0
H723 H 0.71292 0.08449 0.41294 0.0
H724 H 0.75511 0.06853 0.43555 0.0
H725 H 0.81444 0.13487 0.49141 0.0
H726 H 0.95161 0.08586 0.50633 0.0
H727 H 0.90889 0.10902 0.49585 0.0
C728 C 0.32812 0.65197 0.10906 0.0
C729 C 0.35006 0.63612 0.11707 0.0
C730 C 0.30212 0.63799 0.0962 0.0
C731 C 0.26814 0.57102 0.05612 0.0
H732 H 0.19755 0.59535 0.08111 0.0
C733 C 0.15463 0.50451 0.03908 0.0
C734 C 0.13113 0.51944 0.03569 0.0
C735 C 0.18264 0.51972 0.04168 0.0
C736 C 0.21709 0.58876 0.0734 0.0
H737 H 0.36174 0.59303 0.11845 0.0
H738 H 0.31573 0.56828 0.09616 0.0
H739 H 0.24361 0.61863 0.10316 0.0
H740 H 0.11803 0.5614 0.03017 0.0
H741 H 0.16732 0.58835 0.03476 0.0
H742 H 0.24127 0.54043 0.02696 0.0
C743 C 0.31906 0.5917 0.0994 0.0
C744 C 0.24349 0.60197 0.08618 0.0
C745 C 0.34524 0.60578 0.11235 0.0
C746 C 0.13599 0.54952 0.0324 0.0
C747 C 0.16408 0.56487 0.03535 0.0
C748 C 0.24164 0.55769 0.04337 0.0
C749 C 0.29726 0.60773 0.0912 0.0
C750 C 0.2693 0.59322 0.07773 0.0
C751 C 0.18749 0.55018 0.04141 0.0
C752 C 0.21585 0.56639 0.05198 0.0
H753 H 0.33088 0.6753 0.11303 0.0
H754 H 0.28586 0.65098 0.08996 0.0
H755 H 0.28772 0.56408 0.04894 0.0
H756 H 0.15115 0.48127 0.04195 0.0
H757 H 0.20017 0.50782 0.04648 0.0
C758 C 0.22343 0.47112 0.58885 0.0
C759 C 0.21603 0.45247 0.61151 0.0
C760 C 0.24828 0.4693 0.5737 0.0
C761 C 0.31878 0.44845 0.58817 0.0
H762 H 0.33097 0.46274 0.50696 0.0
C763 C 0.43134 0.45565 0.54909 0.0
C764 C 0.441 0.48108 0.53472 0.0
C765 C 0.40193 0.44604 0.55106 0.0
C766 C 0.32783 0.45871 0.52966 0.0
H767 H 0.22675 0.41555 0.63431 0.0
H768 H 0.27009 0.41217 0.60778 0.0
H769 H 0.28195 0.45709 0.52469 0.0
H770 H 0.42795 0.51508 0.50897 0.0
H771 H 0.37618 0.49868 0.513 0.0
H772 H 0.36431 0.45109 0.59372 0.0
C773 C 0.25717 0.42861 0.6021 0.0
C774 C 0.29984 0.45549 0.53979 0.0
C775 C 0.23235 0.43041 0.61717 0.0
C776 C 0.42088 0.49521 0.51991 0.0
C777 C 0.39128 0.48585 0.52231 0.0
C778 C 0.34655 0.45168 0.57814 0.0
C779 C 0.26601 0.44874 0.58098 0.0
C780 C 0.29508 0.45034 0.5692 0.0
C781 C 0.38162 0.46211 0.53934 0.0
C782 C 0.35149 0.45682 0.54879 0.0
H783 H 0.2109 0.48811 0.58402 0.0
H784 H 0.25453 0.48513 0.55759 0.0
H785 H 0.31602 0.44542 0.61112 0.0
H786 H 0.44655 0.44443 0.56063 0.0
H787 H 0.39514 0.42721 0.56364 0.0
C788 C 0.92084 0.77358 0.9539 0.0
C789 C 0.91502 0.77423 0.92381 0.0
C790 C 0.93559 0.75225 0.96551 0.0
C791 C 0.97931 0.69415 0.94447 0.0
H792 H 0.95253 0.66055 0.01593 0.0
C793 C 0.025 0.59497 0.98842 0.0
C794 C 0.00506 0.57301 0.99961 0.0
C795 C 0.01765 0.62255 0.98358 0.0
C796 C 0.96025 0.66949 0.99586 0.0
H797 H 0.92098 0.75351 0.88228 0.0
H798 H 0.94611 0.71629 0.90221 0.0
H799 H 0.93316 0.70233 0.99799 0.0
H800 H 0.96191 0.5627 0.01469 0.0
H801 H 0.94891 0.61045 0.00637 0.0
H802 H 0.00518 0.66042 0.94143 0.0
C803 C 0.93983 0.73238 0.91709 0.0
C804 C 0.94938 0.69389 0.98571 0.0
C805 C 0.92523 0.75373 0.90555 0.0
C806 C 0.97802 0.57952 0.0069 0.0
C807 C 0.97057 0.60699 0.00195 0.0
C808 C 0.99001 0.66965 0.95449 0.0
C809 C 0.94485 0.73089 0.94731 0.0
C810 C 0.95836 0.70639 0.95957 0.0
C811 C 0.98993 0.62873 0.98934 0.0
C812 C 0.98038 0.65659 0.98016 0.0
H813 H 0.91321 0.78908 0.96852 0.0
H814 H 0.93942 0.75233 0.98881 0.0
H815 H 0.9873 0.70327 0.92457 0.0
H816 H 0.04572 0.59031 0.98187 0.0
H817 H 0.03343 0.63868 0.97436 0.0
C818 C 0.39938 0.74371 0.12034 0.0
C819 C 0.4205 0.72726 0.12949 0.0
C820 C 0.40686 0.77315 0.1154 0.0
C821 C 0.46151 0.83646 0.13488 0.0
H822 H 0.4369 0.86555 0.06189 0.0
C823 C 0.52573 0.92576 0.07597 0.0
C824 C 0.51215 0.93821 0.05315 0.0
C825 C 0.50928 0.90855 0.09514 0.0
C826 C 0.44321 0.85824 0.08288 0.0
H827 H 0.46614 0.72866 0.13987 0.0
H828 H 0.47918 0.78044 0.13142 0.0
H829 H 0.41953 0.81573 0.07333 0.0
H830 H 0.47144 0.94679 0.03478 0.0
H831 H 0.4424 0.91731 0.0689 0.0
H832 H 0.48595 0.87876 0.14405 0.0
C833 C 0.45679 0.77043 0.12848 0.0
C834 C 0.43347 0.8295 0.08923 0.0
C835 C 0.44935 0.74085 0.13319 0.0
C836 C 0.48223 0.93732 0.0524 0.0
C837 C 0.46567 0.92014 0.07169 0.0
C838 C 0.47105 0.86537 0.12868 0.0
C839 C 0.43553 0.78685 0.11982 0.0
C840 C 0.44332 0.81811 0.1148 0.0
C841 C 0.47903 0.9035 0.09145 0.0
C842 C 0.4629 0.87628 0.10208 0.0
H843 H 0.37686 0.73409 0.11786 0.0
H844 H 0.39008 0.78538 0.10881 0.0
H845 H 0.46893 0.82824 0.15503 0.0
H846 H 0.54887 0.92617 0.07669 0.0
H847 H 0.52043 0.89627 0.11013 0.0
C848 C 0.12575 0.33308 0.59994 0.0
C849 C 0.10816 0.34825 0.61661 0.0
C850 C 0.11447 0.30635 0.58597 0.0
C851 C 0.0554 0.24487 0.59045 0.0
H852 H 0.0812 0.22143 0.51577 0.0
C853 C 0.02399 0.12748 0.54828 0.0
C854 C 0.04839 0.11498 0.54204 0.0
C855 C 0.02559 0.15775 0.5492 0.0
C856 C 0.07365 0.22771 0.53656 0.0
H857 H 0.06469 0.34779 0.63076 0.0
H858 H 0.04503 0.30125 0.6064 0.0
H859 H 0.09605 0.27129 0.53495 0.0
H860 H 0.09261 0.12351 0.52957 0.0
H861 H 0.0954 0.17604 0.53056 0.0
H862 H 0.03393 0.20117 0.59268 0.0
C863 C 0.06765 0.30973 0.60451 0.0
C864 C 0.0823 0.25621 0.54763 0.0
C865 C 0.07893 0.33638 0.61851 0.0
C866 C 0.07337 0.13276 0.53386 0.0
C867 C 0.07495 0.1629 0.53457 0.0
C868 C 0.04676 0.21643 0.5794 0.0
C869 C 0.08533 0.29424 0.58828 0.0
C870 C 0.07382 0.26494 0.57503 0.0
C871 C 0.05164 0.17581 0.54389 0.0
C872 C 0.05635 0.20728 0.55264 0.0
H873 H 0.14842 0.3415 0.59831 0.0
H874 H 0.12882 0.29479 0.57406 0.0
H875 H 0.04874 0.25069 0.61177 0.0
H876 H 0.00469 0.11413 0.5552 0.0
H877 H 0.00713 0.16704 0.55606 0.0
C878 C 0.60278 0.2259 0.42574 0.0
C879 C 0.62495 0.21639 0.44224 0.0
C880 C 0.59461 0.25281 0.43231 0.0
C881 C 0.59699 0.30901 0.49092 0.0
H882 H 0.58112 0.35734 0.42747 0.0
C883 C 0.57513 0.42812 0.50628 0.0
C884 C 0.55563 0.43712 0.48601 0.0
C885 C 0.58273 0.40032 0.50328 0.0
C886 C 0.58503 0.34395 0.44547 0.0
H887 H 0.65691 0.22778 0.47761 0.0
H888 H 0.64261 0.27504 0.48925 0.0
H889 H 0.59687 0.31105 0.41709 0.0
H890 H 0.52736 0.42406 0.44805 0.0
H891 H 0.53949 0.37531 0.44351 0.0
H892 H 0.58495 0.34202 0.51929 0.0
C893 C 0.63108 0.2614 0.47169 0.0
C894 C 0.59416 0.31744 0.43948 0.0
C895 C 0.63929 0.23447 0.46504 0.0
C896 C 0.54252 0.41752 0.46388 0.0
C897 C 0.54974 0.38976 0.46112 0.0
C898 C 0.5877 0.33558 0.49693 0.0
C899 C 0.60864 0.27085 0.45538 0.0
C900 C 0.59997 0.29952 0.46208 0.0
C901 C 0.57076 0.38118 0.48006 0.0
C902 C 0.58126 0.35319 0.47422 0.0
H903 H 0.59179 0.21248 0.40775 0.0
H904 H 0.57712 0.2594 0.41946 0.0
H905 H 0.60118 0.29558 0.50879 0.0
H906 H 0.58592 0.44315 0.52315 0.0
H907 H 0.59908 0.39446 0.51817 0.0
loop_
_geom_bond_atom_site_label_1
_geom_bond_atom_site_label_2
_geom_bond_distance
_geom_bond_site_symmetry_2
_ccdc_geom_bond_type
H0 C7 0.929 . S
H1 C10 0.930 . S
H2 C12 0.929 . S
H3 C4 0.969 . S
C4 H3 0.969 . S
C4 O5 1.550 . S
C4 H6 0.973 . S
O5 C4 1.550 . S
O5 C11 1.412 . S
H6 C4 0.973 . S
C7 H0 0.929 . S
C7 C8 1.400 . S
C7 C9 1.364 . S
C8 C7 1.400 . S
C8 C12 1.377 . S
C9 C7 1.364 . S
C9 C10 1.374 . S
C10 H1 0.930 . S
C10 C9 1.374 . S
C10 C11 1.383 . S
C11 O5 1.412 . S
C11 C10 1.383 . S
C11 C12 1.394 . S
C12 H2 0.929 . S
C12 C8 1.377 . S
C12 C11 1.394 . S
H13 C20 0.929 . S
H14 C23 0.930 . S
H15 C25 0.929 . S
H16 C17 0.969 . S
C17 H16 0.969 . S
C17 O18 1.550 . S
C17 H19 0.973 . S
O18 C17 1.550 . S
O18 C24 1.412 . S
H19 C17 0.973 . S
C20 H13 0.929 . S
C20 C21 1.400 . S
C20 C22 1.364 . S
C21 C20 1.400 . S
C21 C25 1.377 . S
C22 C20 1.364 . S
C22 C23 1.374 . S
C23 H14 0.930 . S
C23 C22 1.374 . S
C23 C24 1.383 . S
C24 O18 1.412 . S
C24 C23 1.383 . S
C24 C25 1.394 . S
C25 H15 0.929 . S
C25 C21 1.377 . S
C25 C24 1.394 . S
H26 C33 0.929 . S
H27 C36 0.930 . S
H28 C38 0.929 . S
H29 C30 0.969 . S
C30 H29 0.969 . S
C30 O31 1.550 . S
C30 H32 0.973 . S
O31 C30 1.550 . S
O31 C37 1.412 . S
H32 C30 0.973 . S
C33 H26 0.929 . S
C33 C34 1.400 . S
C33 C35 1.364 . S
C34 C33 1.400 . S
C34 C38 1.377 . S
C35 C33 1.364 . S
C35 C36 1.374 . S
C36 H27 0.930 . S
C36 C35 1.374 . S
C36 C37 1.383 . S
C37 O31 1.412 . S
C37 C36 1.383 . S
C37 C38 1.394 . S
C38 H28 0.929 . S
C38 C34 1.377 . S
C38 C37 1.394 . S
H39 C46 0.929 . S
H40 C49 0.930 . S
H41 C51 0.929 . S
H42 C43 0.969 . S
C43 H42 0.969 . S
C43 O44 1.550 . S
C43 H45 0.973 . S
O44 C43 1.550 . S
O44 C50 1.412 . S
H45 C43 0.973 . S
C46 H39 0.929 . S
C46 C47 1.400 . S
C46 C48 1.364 . S
C47 C46 1.400 . S
C47 C51 1.377 . S
C48 C46 1.364 . S
C48 C49 1.374 . S
C49 H40 0.930 . S
C49 C48 1.374 . S
C49 C50 1.383 . S
C50 O44 1.412 . S
C50 C49 1.383 . S
C50 C51 1.394 . S
C51 H41 0.929 . S
C51 C47 1.377 . S
C51 C50 1.394 . S
H52 C59 0.929 . S
H53 C62 0.930 . S
H54 C64 0.929 . S
H55 C56 0.969 . S
C56 H55 0.969 . S
C56 O57 1.550 . S
C56 H58 0.973 . S
O57 C56 1.550 . S
O57 C63 1.412 . S
H58 C56 0.973 . S
C59 H52 0.929 . S
C59 C60 1.400 . S
C59 C61 1.364 . S
C60 C59 1.400 . S
C60 C64 1.377 . S
C61 C59 1.364 . S
C61 C62 1.374 . S
C62 H53 0.930 . S
C62 C61 1.374 . S
C62 C63 1.383 . S
C63 O57 1.412 . S
C63 C62 1.383 . S
C63 C64 1.394 . S
C64 H54 0.929 . S
C64 C60 1.377 . S
C64 C63 1.394 . S
H65 C72 0.929 . S
H66 C75 0.930 . S
H67 C77 0.929 . S
H68 C69 0.969 . S
C69 H68 0.969 . S
C69 O70 1.550 . S
C69 H71 0.973 . S
O70 C69 1.550 . S
O70 C76 1.412 . S
H71 C69 0.973 . S
C72 H65 0.929 . S
C72 C73 1.400 . S
C72 C74 1.364 . S
C73 C72 1.400 . S
C73 C77 1.377 . S
C74 C72 1.364 . S
C74 C75 1.374 . S
C75 H66 0.930 . S
C75 C74 1.374 . S
C75 C76 1.383 . S
C76 O70 1.412 . S
C76 C75 1.383 . S
C76 C77 1.394 . S
C77 H67 0.929 . S
C77 C73 1.377 . S
C77 C76 1.394 . S
H78 C85 0.929 . S
H79 C88 0.930 . S
H80 C90 0.929 . S
H81 C82 0.969 . S
C82 H81 0.969 . S
C82 O83 1.550 . S
C82 H84 0.973 . S
O83 C82 1.550 . S
O83 C89 1.412 . S
H84 C82 0.973 . S
C85 H78 0.929 . S
C85 C86 1.400 . S
C85 C87 1.364 . S
C86 C85 1.400 . S
C86 C90 1.377 . S
C87 C85 1.364 . S
C87 C88 1.374 . S
C88 H79 0.930 . S
C88 C87 1.374 . S
C88 C89 1.383 . S
C89 O83 1.412 . S
C89 C88 1.383 . S
C89 C90 1.394 . S
C90 H80 0.929 . S
C90 C86 1.377 . S
C90 C89 1.394 . S
H91 C98 0.929 . S
H92 C101 0.930 . S
H93 C103 0.929 . S
H94 C95 0.969 . S
C95 H94 0.969 . S
C95 O96 1.550 . S
C95 H97 0.973 . S
O96 C95 1.550 . S
O96 C102 1.412 . S
H97 C95 0.973 . S
C98 H91 0.929 . S
C98 C99 1.400 . S
C98 C100 1.364 . S
C99 C98 1.400 . S
C99 C103 1.377 . S
C100 C98 1.364 . S
C100 C101 1.374 . S
C101 H92 0.930 . S
C101 C100 1.374 . S
C101 C102 1.383 . S
C102 O96 1.412 . S
C102 C101 1.383 . S
C102 C103 1.394 . S
C103 H93 0.929 . S
C103 C99 1.377 . S
C103 C102 1.394 . S
O104 Mg105 1.990 . S
O104 C118 1.253 1_545 S
Mg105 O104 1.990 . S
Mg105 O108 2.180 . S
Mg105 O109 2.117 . S
Mg105 O123 2.030 . S
O106 Mg107 2.085 1_565 S
O106 C118 1.261 . S
Mg107 O106 2.085 1_545 S
Mg107 O108 2.099 . S
Mg107 O110 2.079 . S
Mg107 O111 2.072 1_455 S
Mg107 O113 2.107 1_545 S
Mg107 O124 2.074 1_545 S
O108 Mg105 2.180 . S
O108 Mg107 2.099 . S
O108 C119 1.279 . S
O109 Mg105 2.117 . S
O109 C119 1.250 . S
O110 Mg107 2.079 . S
O110 C120 1.264 . S
O111 Mg107 2.072 1_655 S
O111 C121 1.260 . S
Mg112 O113 2.162 1_655 S
Mg112 O114 2.030 1_665 S
Mg112 O115 1.990 1_565 S
Mg112 O116 2.117 . S
O113 Mg107 2.107 1_565 S
O113 Mg112 2.162 1_455 S
O113 C122 1.263 1_455 S
O114 Mg112 2.030 1_445 S
O114 C120 1.248 . S
O115 Mg112 1.990 1_545 S
O115 C121 1.253 . S
O116 Mg112 2.117 . S
O116 C122 1.250 . S
C117 O123 1.248 1_565 S
C117 O124 1.266 . S
C118 O104 1.253 1_565 S
C118 O106 1.261 . S
C119 O108 1.279 . S
C119 O109 1.250 . S
C120 O110 1.264 . S
C120 O114 1.248 . S
C121 O111 1.260 . S
C121 O115 1.253 . S
C122 O113 1.263 1_655 S
C122 O116 1.250 . S
O123 Mg105 2.030 . S
O123 C117 1.248 1_545 S
O124 Mg107 2.074 1_565 S
O124 C117 1.266 . S
O125 Mg126 1.990 . S
O125 C139 1.253 . S
Mg126 O125 1.990 . S
Mg126 O129 2.180 . S
Mg126 O130 2.117 1_554 S
Mg126 O144 2.030 . S
O127 Mg128 2.072 . S
O127 C139 1.260 . S
Mg128 O127 2.072 . S
Mg128 O129 2.099 . S
Mg128 O131 2.079 1_554 S
Mg128 O132 2.072 1_554 S
Mg128 O134 2.099 1_545 S
Mg128 O145 2.079 . S
O129 Mg126 2.180 . S
O129 Mg128 2.099 . S
O129 C140 1.279 1_554 S
O130 Mg126 2.117 1_556 S
O130 C140 1.250 . S
O131 Mg128 2.079 1_556 S
O131 C141 1.264 1_545 S
O132 Mg128 2.072 1_556 S
O132 C142 1.260 1_545 S
Mg133 O134 2.180 1_556 S
Mg133 O135 2.030 . S
Mg133 O136 1.990 . S
Mg133 O137 2.117 1_556 S
O134 Mg128 2.099 1_565 S
O134 Mg133 2.180 1_554 S
O134 C143 1.279 . S
O135 Mg133 2.030 . S
O135 C141 1.248 . S
O136 Mg133 1.990 . S
O136 C142 1.253 . S
O137 Mg133 2.117 1_554 S
O137 C143 1.250 . S
C138 O144 1.248 . S
C138 O145 1.264 . S
C139 O125 1.253 . S
C139 O127 1.260 . S
C140 O129 1.279 1_556 S
C140 O130 1.250 . S
C141 O131 1.264 1_565 S
C141 O135 1.248 . S
C142 O132 1.260 1_565 S
C142 O136 1.253 . S
C143 O134 1.279 . S
C143 O137 1.250 . S
O144 Mg126 2.030 . S
O144 C138 1.248 . S
O145 Mg128 2.079 . S
O145 C138 1.264 . S
O146 Mg147 1.990 . S
O146 C160 1.253 . S
Mg147 O146 1.990 . S
Mg147 O150 2.180 . S
Mg147 O151 2.117 . S
Mg147 O165 2.030 . S
O148 Mg149 2.072 . S
O148 C160 1.260 . S
Mg149 O148 2.072 . S
Mg149 O150 2.099 . S
Mg149 O152 2.079 . S
Mg149 O153 2.072 . S
Mg149 O155 2.099 . S
Mg149 O166 2.079 . S
O150 Mg147 2.180 . S
O150 Mg149 2.099 . S
O150 C161 1.279 . S
O151 Mg147 2.117 . S
O151 C161 1.250 . S
O152 Mg149 2.079 . S
O152 C162 1.264 . S
O153 Mg149 2.072 . S
O153 C163 1.260 . S
Mg154 O155 2.180 . S
Mg154 O156 2.030 . S
Mg154 O157 1.990 . S
Mg154 O158 2.117 . S
O155 Mg149 2.099 . S
O155 Mg154 2.180 . S
O155 C164 1.279 . S
O156 Mg154 2.030 . S
O156 C162 1.248 . S
O157 Mg154 1.990 . S
O157 C163 1.253 . S
O158 Mg154 2.117 . S
O158 C164 1.250 . S
C159 O165 1.248 . S
C159 O166 1.264 . S
C160 O146 1.253 . S
C160 O148 1.260 . S
C161 O150 1.279 . S
C161 O151 1.250 . S
C162 O152 1.264 . S
C162 O156 1.248 . S
C163 O153 1.260 . S
C163 O157 1.253 . S
C164 O155 1.279 . S
C164 O158 1.250 . S
O165 Mg147 2.030 . S
O165 C159 1.248 . S
O166 Mg149 2.079 . S
O166 C159 1.264 . S
O167 Mg168 1.990 . S
O167 C181 1.253 . S
Mg168 O167 1.990 . S
Mg168 O171 2.180 . S
Mg168 O172 2.117 . S
Mg168 O186 2.030 . S
O169 Mg170 2.072 . S
O169 C181 1.260 . S
Mg170 O169 2.072 . S
Mg170 O171 2.099 . S
Mg170 O173 2.079 . S
Mg170 O174 2.072 1_455 S
Mg170 O176 2.099 1_554 S
Mg170 O187 2.079 . S
O171 Mg168 2.180 . S
O171 Mg170 2.099 . S
O171 C182 1.279 . S
O172 Mg168 2.117 . S
O172 C182 1.250 . S
O173 Mg170 2.079 . S
O173 C183 1.264 1_554 S
O174 Mg170 2.072 1_655 S
O174 C184 1.260 1_554 S
Mg175 O176 2.180 . S
Mg175 O177 2.030 1_455 S
Mg175 O178 1.990 1_455 S
Mg175 O179 2.117 . S
O176 Mg170 2.099 1_556 S
O176 Mg175 2.180 . S
O176 C185 1.279 . S
O177 Mg175 2.030 1_655 S
O177 C183 1.248 1_655 S
O178 Mg175 1.990 1_655 S
O178 C184 1.253 . S
O179 Mg175 2.117 . S
O179 C185 1.250 . S
C180 O186 1.248 . S
C180 O187 1.264 . S
C181 O167 1.253 . S
C181 O169 1.260 . S
C182 O171 1.279 . S
C182 O172 1.250 . S
C183 O173 1.264 1_556 S
C183 O177 1.248 1_455 S
C184 O174 1.260 1_556 S
C184 O178 1.253 . S
C185 O176 1.279 . S
C185 O179 1.250 . S
O186 Mg168 2.030 . S
O186 C180 1.248 . S
O187 Mg170 2.079 . S
O187 C180 1.264 . S
C188 C189 1.349 . S
C188 C190 1.327 . S
C188 H213 0.950 . S
C189 C188 1.349 . S
C189 C205 1.349 . S
C190 C188 1.327 . S
C190 C209 1.429 . S
C190 H214 0.950 . S
C191 C208 1.574 . S
C191 C210 1.368 . S
C191 H215 0.949 . S
H192 C196 0.949 . S
C193 C194 1.349 . S
C193 C195 1.327 . S
C193 H216 0.950 . S
C194 C193 1.349 . S
C194 C206 1.349 . S
C195 C193 1.327 . S
C195 C211 1.429 . S
C195 H217 0.950 . S
C196 H192 0.949 . S
C196 C204 1.574 . S
C196 C212 1.368 . S
H197 C205 0.950 . S
H198 C203 0.950 . S
H199 C204 0.949 . S
H200 C206 0.950 . S
H201 C207 0.950 . S
H202 C208 0.949 . S
C203 H198 0.950 . S
C203 C205 1.327 . S
C203 C209 1.429 . S
C204 C196 1.574 . S
C204 H199 0.949 . S
C204 C210 1.368 . S
C205 C189 1.349 . S
C205 H197 0.950 . S
C205 C203 1.327 . S
C206 C194 1.349 . S
C206 H200 0.950 . S
C206 C207 1.327 . S
C207 H201 0.950 . S
C207 C206 1.327 . S
C207 C211 1.429 . S
C208 C191 1.574 . S
C208 H202 0.949 . S
C208 C212 1.368 . S
C209 C190 1.429 . S
C209 C203 1.429 . S
C209 C210 1.523 . S
C210 C191 1.368 . S
C210 C204 1.368 . S
C210 C209 1.523 . S
C211 C195 1.429 . S
C211 C207 1.429 . S
C211 C212 1.523 . S
C212 C196 1.368 . S
C212 C208 1.368 . S
C212 C211 1.523 . S
H213 C188 0.950 . S
H214 C190 0.950 . S
H215 C191 0.949 . S
H216 C193 0.950 . S
H217 C195 0.950 . S
C218 C219 1.349 . S
C218 C220 1.327 . S
C218 H243 0.950 . S
C219 C218 1.349 . S
C219 C235 1.349 . S
C220 C218 1.327 . S
C220 C239 1.429 . S
C220 H244 0.950 . S
C221 C238 1.574 . S
C221 C240 1.368 . S
C221 H245 0.949 . S
H222 C226 0.949 . S
C223 C224 1.349 1_545 S
C223 C225 1.327 . S
C223 H246 0.950 . S
C224 C223 1.349 1_565 S
C224 C236 1.349 . S
C225 C223 1.327 . S
C225 C241 1.429 1_545 S
C225 H247 0.950 . S
C226 H222 0.949 . S
C226 C234 1.574 . S
C226 C242 1.368 . S
H227 C235 0.950 . S
H228 C233 0.950 . S
H229 C234 0.949 . S
H230 C236 0.950 . S
H231 C237 0.950 . S
H232 C238 0.949 1_545 S
C233 H228 0.950 . S
C233 C235 1.327 . S
C233 C239 1.429 . S
C234 C226 1.574 . S
C234 H229 0.949 . S
C234 C240 1.368 . S
C235 C219 1.349 . S
C235 H227 0.950 . S
C235 C233 1.327 . S
C236 C224 1.349 . S
C236 H230 0.950 . S
C236 C237 1.327 . S
C237 H231 0.950 . S
C237 C236 1.327 . S
C237 C241 1.429 . S
C238 C221 1.574 . S
C238 H232 0.949 1_565 S
C238 C242 1.368 . S
C239 C220 1.429 . S
C239 C233 1.429 . S
C239 C240 1.523 . S
C240 C221 1.368 . S
C240 C234 1.368 . S
C240 C239 1.523 . S
C241 C225 1.429 1_565 S
C241 C237 1.429 . S
C241 C242 1.523 . S
C242 C226 1.368 . S
C242 C238 1.368 . S
C242 C241 1.523 . S
H243 C218 0.950 . S
H244 C220 0.950 . S
H245 C221 0.949 . S
H246 C223 0.950 . S
H247 C225 0.950 . S
C248 C249 1.349 . S
C248 C250 1.327 . S
C248 H273 0.950 . S
C249 C248 1.349 . S
C249 C265 1.349 . S
C250 C248 1.327 . S
C250 C269 1.429 . S
C250 H274 0.950 . S
C251 C268 1.574 . S
C251 C270 1.368 . S
C251 H275 0.949 . S
H252 C256 0.949 . S
C253 C254 1.349 . S
C253 C255 1.327 . S
C253 H276 0.950 . S
C254 C253 1.349 . S
C254 C266 1.349 . S
C255 C253 1.327 . S
C255 C271 1.429 . S
C255 H277 0.950 . S
C256 H252 0.949 . S
C256 C264 1.574 . S
C256 C272 1.368 . S
H257 C265 0.950 . S
H258 C263 0.950 . S
H259 C264 0.949 . S
H260 C266 0.950 . S
H261 C267 0.950 . S
H262 C268 0.949 . S
C263 H258 0.950 . S
C263 C265 1.327 . S
C263 C269 1.429 . S
C264 C256 1.574 . S
C264 H259 0.949 . S
C264 C270 1.368 . S
C265 C249 1.349 . S
C265 H257 0.950 . S
C265 C263 1.327 . S
C266 C254 1.349 . S
C266 H260 0.950 . S
C266 C267 1.327 . S
C267 H261 0.950 . S
C267 C266 1.327 . S
C267 C271 1.429 . S
C268 C251 1.574 . S
C268 H262 0.949 . S
C268 C272 1.368 . S
C269 C250 1.429 . S
C269 C263 1.429 . S
C269 C270 1.523 . S
C270 C251 1.368 . S
C270 C264 1.368 . S
C270 C269 1.523 . S
C271 C255 1.429 . S
C271 C267 1.429 . S
C271 C272 1.523 . S
C272 C256 1.368 . S
C272 C268 1.368 . S
C272 C271 1.523 . S
H273 C248 0.950 . S
H274 C250 0.950 . S
H275 C251 0.949 . S
H276 C253 0.950 . S
H277 C255 0.950 . S
C278 C279 1.349 . S
C278 C280 1.327 . S
C278 H303 0.950 . S
C279 C278 1.349 . S
C279 C295 1.349 . S
C280 C278 1.327 . S
C280 C299 1.429 . S
C280 H304 0.950 . S
C281 C298 1.574 . S
C281 C300 1.368 . S
C281 H305 0.949 . S
H282 C286 0.949 . S
C283 C284 1.349 1_455 S
C283 C285 1.327 1_455 S
C283 H306 0.950 . S
C284 C283 1.349 1_655 S
C284 C296 1.349 . S
C285 C283 1.327 1_655 S
C285 C301 1.429 . S
C285 H307 0.950 1_655 S
C286 H282 0.949 . S
C286 C294 1.574 . S
C286 C302 1.368 . S
H287 C295 0.950 . S
H288 C293 0.950 . S
H289 C294 0.949 . S
H290 C296 0.950 . S
H291 C297 0.950 . S
H292 C298 0.949 . S
C293 H288 0.950 . S
C293 C295 1.327 . S
C293 C299 1.429 . S
C294 C286 1.574 . S
C294 H289 0.949 . S
C294 C300 1.368 . S
C295 C279 1.349 . S
C295 H287 0.950 . S
C295 C293 1.327 . S
C296 C284 1.349 . S
C296 H290 0.950 . S
C296 C297 1.327 . S
C297 H291 0.950 . S
C297 C296 1.327 . S
C297 C301 1.429 . S
C298 C281 1.574 . S
C298 H292 0.949 . S
C298 C302 1.368 . S
C299 C280 1.429 . S
C299 C293 1.429 . S
C299 C300 1.523 . S
C300 C281 1.368 . S
C300 C294 1.368 . S
C300 C299 1.523 . S
C301 C285 1.429 . S
C301 C297 1.429 . S
C301 C302 1.523 . S
C302 C286 1.368 . S
C302 C298 1.368 . S
C302 C301 1.523 . S
H303 C278 0.950 . S
H304 C280 0.950 . S
H305 C281 0.949 . S
H306 C283 0.950 . S
H307 C285 0.950 1_455 S
C308 C309 1.349 . S
C308 C310 1.327 . S
C308 H333 0.950 . S
C309 C308 1.349 . S
C309 C325 1.349 . S
C310 C308 1.327 . S
C310 C329 1.429 . S
C310 H334 0.950 . S
C311 C328 1.574 . S
C311 C330 1.368 . S
C311 H335 0.949 . S
H312 C316 0.949 . S
C313 C314 1.349 . S
C313 C315 1.327 . S
C313 H336 0.950 . S
C314 C313 1.349 . S
C314 C326 1.349 . S
C315 C313 1.327 . S
C315 C331 1.429 . S
C315 H337 0.950 . S
C316 H312 0.949 . S
C316 C324 1.574 . S
C316 C332 1.368 . S
H317 C325 0.950 . S
H318 C323 0.950 . S
H319 C324 0.949 . S
H320 C326 0.950 . S
H321 C327 0.950 . S
H322 C328 0.949 . S
C323 H318 0.950 . S
C323 C325 1.327 . S
C323 C329 1.429 . S
C324 C316 1.574 . S
C324 H319 0.949 . S
C324 C330 1.368 . S
C325 C309 1.349 . S
C325 H317 0.950 . S
C325 C323 1.327 . S
C326 C314 1.349 . S
C326 H320 0.950 . S
C326 C327 1.327 . S
C327 H321 0.950 . S
C327 C326 1.327 . S
C327 C331 1.429 . S
C328 C311 1.574 . S
C328 H322 0.949 . S
C328 C332 1.368 . S
C329 C310 1.429 . S
C329 C323 1.429 . S
C329 C330 1.523 . S
C330 C311 1.368 . S
C330 C324 1.368 . S
C330 C329 1.523 . S
C331 C315 1.429 . S
C331 C327 1.429 . S
C331 C332 1.523 . S
C332 C316 1.368 . S
C332 C328 1.368 . S
C332 C331 1.523 . S
H333 C308 0.950 . S
H334 C310 0.950 . S
H335 C311 0.949 . S
H336 C313 0.950 . S
H337 C315 0.950 . S
C338 C339 1.349 . S
C338 C340 1.327 . S
C338 H363 0.950 . S
C339 C338 1.349 . S
C339 C355 1.349 . S
C340 C338 1.327 . S
C340 C359 1.429 . S
C340 H364 0.950 . S
C341 C358 1.574 . S
C341 C360 1.368 . S
C341 H365 0.949 . S
H342 C346 0.949 . S
C343 C344 1.349 . S
C343 C345 1.327 . S
C343 H366 0.950 1_565 S
C344 C343 1.349 . S
C344 C356 1.349 . S
C345 C343 1.327 . S
C345 C361 1.429 . S
C345 H367 0.950 1_565 S
C346 H342 0.949 . S
C346 C354 1.574 . S
C346 C362 1.368 . S
H347 C355 0.950 . S
H348 C353 0.950 . S
H349 C354 0.949 . S
H350 C356 0.950 . S
H351 C357 0.950 . S
H352 C358 0.949 . S
C353 H348 0.950 . S
C353 C355 1.327 . S
C353 C359 1.429 . S
C354 C346 1.574 . S
C354 H349 0.949 . S
C354 C360 1.368 . S
C355 C339 1.349 . S
C355 H347 0.950 . S
C355 C353 1.327 . S
C356 C344 1.349 . S
C356 H350 0.950 . S
C356 C357 1.327 . S
C357 H351 0.950 . S
C357 C356 1.327 . S
C357 C361 1.429 . S
C358 C341 1.574 . S
C358 H352 0.949 . S
C358 C362 1.368 . S
C359 C340 1.429 . S
C359 C353 1.429 . S
C359 C360 1.523 . S
C360 C341 1.368 . S
C360 C354 1.368 . S
C360 C359 1.523 . S
C361 C345 1.429 . S
C361 C357 1.429 . S
C361 C362 1.523 . S
C362 C346 1.368 . S
C362 C358 1.368 . S
C362 C361 1.523 . S
H363 C338 0.950 . S
H364 C340 0.950 . S
H365 C341 0.949 . S
H366 C343 0.950 1_545 S
H367 C345 0.950 1_545 S
C368 C369 1.349 . S
C368 C370 1.327 . S
C368 H393 0.950 . S
C369 C368 1.349 . S
C369 C385 1.349 . S
C370 C368 1.327 . S
C370 C389 1.429 . S
C370 H394 0.950 . S
C371 C388 1.574 . S
C371 C390 1.368 . S
C371 H395 0.949 . S
H372 C376 0.949 . S
C373 C374 1.345 1_556 S
C373 C375 1.327 . S
C373 H396 0.950 . S
C374 C373 1.345 1_554 S
C374 C386 1.349 . S
C375 C373 1.327 . S
C375 C391 1.429 . S
C375 H397 0.950 . S
C376 H372 0.949 . S
C376 C384 1.574 . S
C376 C392 1.368 . S
H377 C385 0.950 . S
H378 C383 0.950 . S
H379 C384 0.949 . S
H380 C386 0.950 . S
H381 C387 0.950 . S
H382 C388 0.949 . S
C383 H378 0.950 . S
C383 C385 1.327 . S
C383 C389 1.429 . S
C384 C376 1.574 . S
C384 H379 0.949 . S
C384 C390 1.368 . S
C385 C369 1.349 . S
C385 H377 0.950 . S
C385 C383 1.327 . S
C386 C374 1.349 . S
C386 H380 0.950 . S
C386 C387 1.327 1_554 S
C387 H381 0.950 . S
C387 C386 1.327 1_556 S
C387 C391 1.429 . S
C388 C371 1.574 . S
C388 H382 0.949 . S
C388 C392 1.368 . S
C389 C370 1.429 . S
C389 C383 1.429 . S
C389 C390 1.523 . S
C390 C371 1.368 . S
C390 C384 1.368 . S
C390 C389 1.523 . S
C391 C375 1.429 . S
C391 C387 1.429 . S
C391 C392 1.523 . S
C392 C376 1.368 . S
C392 C388 1.368 . S
C392 C391 1.523 . S
H393 C368 0.950 . S
H394 C370 0.950 . S
H395 C371 0.949 . S
H396 C373 0.950 . S
H397 C375 0.950 . S
C398 C399 1.349 . S
C398 C400 1.327 . S
C398 H423 0.950 . S
C399 C398 1.349 . S
C399 C415 1.349 . S
C400 C398 1.327 . S
C400 C419 1.429 . S
C400 H424 0.950 . S
C401 C418 1.574 . S
C401 C420 1.368 . S
C401 H425 0.949 . S
H402 C406 0.949 . S
C403 C404 1.349 . S
C403 C405 1.327 . S
C403 H426 0.950 . S
C404 C403 1.349 . S
C404 C416 1.349 . S
C405 C403 1.327 . S
C405 C421 1.429 . S
C405 H427 0.950 . S
C406 H402 0.949 . S
C406 C414 1.574 . S
C406 C422 1.368 . S
H407 C415 0.950 . S
H408 C413 0.950 . S
H409 C414 0.949 . S
H410 C416 0.950 . S
H411 C417 0.950 . S
H412 C418 0.949 . S
C413 H408 0.950 . S
C413 C415 1.327 . S
C413 C419 1.429 . S
C414 C406 1.574 . S
C414 H409 0.949 . S
C414 C420 1.368 . S
C415 C399 1.349 . S
C415 H407 0.950 . S
C415 C413 1.327 . S
C416 C404 1.349 . S
C416 H410 0.950 . S
C416 C417 1.327 . S
C417 H411 0.950 . S
C417 C416 1.327 . S
C417 C421 1.429 . S
C418 C401 1.574 . S
C418 H412 0.949 . S
C418 C422 1.368 . S
C419 C400 1.429 . S
C419 C413 1.429 . S
C419 C420 1.523 . S
C420 C401 1.368 . S
C420 C414 1.368 . S
C420 C419 1.523 . S
C421 C405 1.429 . S
C421 C417 1.429 . S
C421 C422 1.523 . S
C422 C406 1.368 . S
C422 C418 1.368 . S
C422 C421 1.523 . S
H423 C398 0.950 . S
H424 C400 0.950 . S
H425 C401 0.949 . S
H426 C403 0.950 . S
H427 C405 0.950 . S
C428 C429 1.349 . S
C428 C430 1.327 . S
C428 H453 0.950 . S
C429 C428 1.349 . S
C429 C445 1.349 . S
C430 C428 1.327 . S
C430 C449 1.429 . S
C430 H454 0.950 . S
C431 C448 1.574 . S
C431 C450 1.368 . S
C431 H455 0.949 . S
H432 C436 0.949 . S
C433 C434 1.349 . S
C433 C435 1.327 . S
C433 H456 0.950 . S
C434 C433 1.349 . S
C434 C446 1.349 . S
C435 C433 1.327 . S
C435 C451 1.429 . S
C435 H457 0.950 . S
C436 H432 0.949 . S
C436 C444 1.574 . S
C436 C452 1.368 . S
H437 C445 0.950 . S
H438 C443 0.950 . S
H439 C444 0.949 . S
H440 C446 0.950 . S
H441 C447 0.950 . S
H442 C448 0.949 . S
C443 H438 0.950 . S
C443 C445 1.327 . S
C443 C449 1.429 . S
C444 C436 1.574 . S
C444 H439 0.949 . S
C444 C450 1.368 . S
C445 C429 1.349 . S
C445 H437 0.950 . S
C445 C443 1.327 . S
C446 C434 1.349 . S
C446 H440 0.950 . S
C446 C447 1.327 . S
C447 H441 0.950 . S
C447 C446 1.327 . S
C447 C451 1.429 . S
C448 C431 1.574 . S
C448 H442 0.949 . S
C448 C452 1.368 . S
C449 C430 1.429 . S
C449 C443 1.429 . S
C449 C450 1.523 . S
C450 C431 1.368 . S
C450 C444 1.368 . S
C450 C449 1.523 . S
C451 C435 1.429 . S
C451 C447 1.429 . S
C451 C452 1.523 . S
C452 C436 1.368 . S
C452 C448 1.368 . S
C452 C451 1.523 . S
H453 C428 0.950 . S
H454 C430 0.950 . S
H455 C431 0.949 . S
H456 C433 0.950 . S
H457 C435 0.950 . S
C458 C459 1.349 . S
C458 C460 1.327 . S
C458 H483 0.950 . S
C459 C458 1.349 . S
C459 C475 1.349 . S
C460 C458 1.327 . S
C460 C479 1.429 . S
C460 H484 0.950 . S
C461 C478 1.574 . S
C461 C480 1.368 . S
C461 H485 0.949 . S
H462 C466 0.949 . S
C463 C464 1.349 . S
C463 C465 1.327 . S
C463 H486 0.950 . S
C464 C463 1.349 . S
C464 C476 1.349 . S
C465 C463 1.327 . S
C465 C481 1.429 . S
C465 H487 0.950 . S
C466 H462 0.949 . S
C466 C474 1.574 . S
C466 C482 1.368 . S
H467 C475 0.950 . S
H468 C473 0.950 . S
H469 C474 0.949 . S
H470 C476 0.950 . S
H471 C477 0.950 . S
H472 C478 0.949 . S
C473 H468 0.950 . S
C473 C475 1.327 . S
C473 C479 1.429 . S
C474 C466 1.574 . S
C474 H469 0.949 . S
C474 C480 1.368 . S
C475 C459 1.349 . S
C475 H467 0.950 . S
C475 C473 1.327 . S
C476 C464 1.349 . S
C476 H470 0.950 . S
C476 C477 1.327 . S
C477 H471 0.950 . S
C477 C476 1.327 . S
C477 C481 1.429 . S
C478 C461 1.574 . S
C478 H472 0.949 . S
C478 C482 1.368 . S
C479 C460 1.429 . S
C479 C473 1.429 . S
C479 C480 1.523 . S
C480 C461 1.368 . S
C480 C474 1.368 . S
C480 C479 1.523 . S
C481 C465 1.429 . S
C481 C477 1.429 . S
C481 C482 1.523 . S
C482 C466 1.368 . S
C482 C478 1.368 . S
C482 C481 1.523 . S
H483 C458 0.950 . S
H484 C460 0.950 . S
H485 C461 0.949 . S
H486 C463 0.950 . S
H487 C465 0.950 . S
C488 C489 1.349 . S
C488 C490 1.327 . S
C488 H513 0.950 . S
C489 C488 1.349 . S
C489 C505 1.349 . S
C490 C488 1.327 . S
C490 C509 1.429 . S
C490 H514 0.950 . S
C491 C508 1.574 . S
C491 C510 1.368 . S
C491 H515 0.949 . S
H492 C496 0.949 . S
C493 C494 1.349 1_455 S
C493 C495 1.327 1_455 S
C493 H516 0.950 . S
C494 C493 1.349 1_655 S
C494 C506 1.349 . S
C495 C493 1.327 1_655 S
C495 C511 1.429 . S
C495 H517 0.950 1_655 S
C496 H492 0.949 . S
C496 C504 1.574 . S
C496 C512 1.368 . S
H497 C505 0.950 . S
H498 C503 0.950 . S
H499 C504 0.949 . S
H500 C506 0.950 . S
H501 C507 0.950 . S
H502 C508 0.925 1_455 S
C503 H498 0.950 . S
C503 C505 1.327 . S
C503 C509 1.429 . S
C504 C496 1.574 . S
C504 H499 0.949 . S
C504 C510 1.368 . S
C505 C489 1.349 . S
C505 H497 0.950 . S
C505 C503 1.327 . S
C506 C494 1.349 . S
C506 H500 0.950 . S
C506 C507 1.327 . S
C507 H501 0.950 . S
C507 C506 1.327 . S
C507 C511 1.429 . S
C508 C491 1.574 . S
C508 H502 0.925 1_655 S
C508 C512 1.368 . S
C509 C490 1.429 . S
C509 C503 1.429 . S
C509 C510 1.523 . S
C510 C491 1.368 . S
C510 C504 1.368 . S
C510 C509 1.523 . S
C511 C495 1.429 . S
C511 C507 1.429 . S
C511 C512 1.523 . S
C512 C496 1.368 . S
C512 C508 1.368 . S
C512 C511 1.523 . S
H513 C488 0.950 . S
H514 C490 0.950 . S
H515 C491 0.949 . S
H516 C493 0.950 . S
H517 C495 0.950 1_455 S
C518 C519 1.349 . S
C518 C520 1.327 . S
C518 H543 0.950 . S
C519 C518 1.349 . S
C519 C535 1.349 . S
C520 C518 1.327 . S
C520 C539 1.429 . S
C520 H544 0.950 . S
C521 C538 1.574 . S
C521 C540 1.368 . S
C521 H545 0.949 . S
H522 C526 0.949 . S
C523 C524 1.349 . S
C523 C525 1.327 . S
C523 H546 0.950 . S
C524 C523 1.349 . S
C524 C536 1.349 . S
C525 C523 1.327 . S
C525 C541 1.429 . S
C525 H547 0.950 . S
C526 H522 0.949 . S
C526 C534 1.574 . S
C526 C542 1.368 . S
H527 C535 0.950 . S
H528 C533 0.950 . S
H529 C534 0.949 . S
H530 C536 0.950 . S
H531 C537 0.950 . S
H532 C538 0.949 . S
C533 H528 0.950 . S
C533 C535 1.327 . S
C533 C539 1.429 . S
C534 C526 1.574 . S
C534 H529 0.949 . S
C534 C540 1.368 . S
C535 C519 1.349 . S
C535 H527 0.950 . S
C535 C533 1.327 . S
C536 C524 1.349 . S
C536 H530 0.950 . S
C536 C537 1.327 . S
C537 H531 0.950 . S
C537 C536 1.327 . S
C537 C541 1.429 . S
C538 C521 1.574 . S
C538 H532 0.949 . S
C538 C542 1.368 . S
C539 C520 1.429 . S
C539 C533 1.429 . S
C539 C540 1.523 . S
C540 C521 1.368 . S
C540 C534 1.368 . S
C540 C539 1.523 . S
C541 C525 1.429 . S
C541 C537 1.429 . S
C541 C542 1.523 . S
C542 C526 1.368 . S
C542 C538 1.368 . S
C542 C541 1.523 . S
H543 C518 0.950 . S
H544 C520 0.950 . S
H545 C521 0.949 . S
H546 C523 0.950 . S
H547 C525 0.950 . S
C548 C549 1.349 . S
C548 C550 1.327 . S
C548 H573 0.950 . S
C549 C548 1.349 . S
C549 C565 1.349 . S
C550 C548 1.327 . S
C550 C569 1.429 . S
C550 H574 0.950 . S
C551 C568 1.574 . S
C551 C570 1.368 . S
C551 H575 0.949 . S
H552 C556 0.949 . S
C553 C554 1.349 . S
C553 C555 1.327 . S
C553 H576 0.950 . S
C554 C553 1.349 . S
C554 C566 1.353 . S
C555 C553 1.327 . S
C555 C571 1.429 . S
C555 H577 0.950 . S
C556 H552 0.949 . S
C556 C564 1.574 . S
C556 C572 1.368 . S
H557 C565 0.950 . S
H558 C563 0.950 . S
H559 C564 0.949 . S
H560 C566 0.942 1_445 S
H561 C567 0.941 1_545 S
H562 C568 0.949 . S
C563 H558 0.950 . S
C563 C565 1.327 . S
C563 C569 1.429 . S
C564 C556 1.574 . S
C564 H559 0.949 . S
C564 C570 1.368 . S
C565 C549 1.349 . S
C565 H557 0.950 . S
C565 C563 1.327 . S
C566 C554 1.353 . S
C566 H560 0.942 1_665 S
C566 C567 1.332 . S
C567 H561 0.941 1_565 S
C567 C566 1.332 . S
C567 C571 1.429 . S
C568 C551 1.574 . S
C568 H562 0.949 . S
C568 C572 1.368 . S
C569 C550 1.429 . S
C569 C563 1.429 . S
C569 C570 1.523 . S
C570 C551 1.368 . S
C570 C564 1.368 . S
C570 C569 1.523 . S
C571 C555 1.429 . S
C571 C567 1.429 . S
C571 C572 1.523 . S
C572 C556 1.368 . S
C572 C568 1.368 . S
C572 C571 1.523 . S
H573 C548 0.950 . S
H574 C550 0.950 . S
H575 C551 0.949 . S
H576 C553 0.950 . S
H577 C555 0.950 . S
C578 C579 1.349 . S
C578 C580 1.327 . S
C578 H603 0.950 . S
C579 C578 1.349 . S
C579 C595 1.349 . S
C580 C578 1.327 . S
C580 C599 1.429 . S
C580 H604 0.950 . S
C581 C598 1.574 . S
C581 C600 1.368 . S
C581 H605 0.949 . S
H582 C586 0.949 . S
C583 C584 1.349 . S
C583 C585 1.327 . S
C583 H606 0.950 . S
C584 C583 1.349 . S
C584 C596 1.349 . S
C585 C583 1.327 . S
C585 C601 1.429 . S
C585 H607 0.950 . S
C586 H582 0.949 . S
C586 C594 1.574 . S
C586 C602 1.368 . S
H587 C595 0.950 . S
H588 C593 0.950 . S
H589 C594 0.949 . S
H590 C596 0.950 . S
H591 C597 0.950 . S
H592 C598 0.949 . S
C593 H588 0.950 . S
C593 C595 1.327 . S
C593 C599 1.429 . S
C594 C586 1.574 . S
C594 H589 0.949 . S
C594 C600 1.368 . S
C595 C579 1.349 . S
C595 H587 0.950 . S
C595 C593 1.327 . S
C596 C584 1.349 . S
C596 H590 0.950 . S
C596 C597 1.327 . S
C597 H591 0.950 . S
C597 C596 1.327 . S
C597 C601 1.429 . S
C598 C581 1.574 . S
C598 H592 0.949 . S
C598 C602 1.368 . S
C599 C580 1.429 . S
C599 C593 1.429 . S
C599 C600 1.523 . S
C600 C581 1.368 . S
C600 C594 1.368 . S
C600 C599 1.523 . S
C601 C585 1.429 . S
C601 C597 1.429 . S
C601 C602 1.523 . S
C602 C586 1.368 . S
C602 C598 1.368 . S
C602 C601 1.523 . S
H603 C578 0.950 . S
H604 C580 0.950 . S
H605 C581 0.949 . S
H606 C583 0.950 . S
H607 C585 0.950 . S
C608 C609 1.349 . S
C608 C610 1.327 . S
C608 H633 0.950 . S
C609 C608 1.349 . S
C609 C625 1.349 . S
C610 C608 1.327 . S
C610 C629 1.429 . S
C610 H634 0.950 . S
C611 C628 1.574 . S
C611 C630 1.368 . S
C611 H635 0.949 . S
H612 C616 0.949 . S
C613 C614 1.349 . S
C613 C615 1.327 . S
C613 H636 0.950 . S
C614 C613 1.349 . S
C614 C626 1.349 . S
C615 C613 1.327 . S
C615 C631 1.429 . S
C615 H637 0.950 . S
C616 H612 0.949 . S
C616 C624 1.574 . S
C616 C632 1.368 . S
H617 C625 0.950 . S
H618 C623 0.950 . S
H619 C624 0.949 . S
H620 C626 0.950 . S
H621 C627 0.950 . S
H622 C628 0.949 . S
C623 H618 0.950 . S
C623 C625 1.327 . S
C623 C629 1.429 . S
C624 C616 1.574 . S
C624 H619 0.949 . S
C624 C630 1.368 . S
C625 C609 1.349 . S
C625 H617 0.950 . S
C625 C623 1.327 . S
C626 C614 1.349 . S
C626 H620 0.950 . S
C626 C627 1.327 . S
C627 H621 0.950 . S
C627 C626 1.327 . S
C627 C631 1.429 . S
C628 C611 1.574 . S
C628 H622 0.949 . S
C628 C632 1.368 . S
C629 C610 1.429 . S
C629 C623 1.429 . S
C629 C630 1.523 . S
C630 C611 1.368 . S
C630 C624 1.368 . S
C630 C629 1.523 . S
C631 C615 1.429 . S
C631 C627 1.429 . S
C631 C632 1.523 . S
C632 C616 1.368 . S
C632 C628 1.368 . S
C632 C631 1.523 . S
H633 C608 0.950 . S
H634 C610 0.950 . S
H635 C611 0.949 . S
H636 C613 0.950 . S
H637 C615 0.950 . S
C638 C639 1.349 . S
C638 C640 1.327 . S
C638 H663 0.950 . S
C639 C638 1.349 . S
C639 C655 1.349 . S
C640 C638 1.327 . S
C640 C659 1.429 . S
C640 H664 0.950 . S
C641 C658 1.574 . S
C641 C660 1.368 . S
C641 H665 0.949 . S
H642 C646 0.949 . S
C643 C644 1.349 . S
C643 C645 1.327 . S
C643 H666 0.950 . S
C644 C643 1.349 . S
C644 C656 1.349 . S
C645 C643 1.327 . S
C645 C661 1.429 . S
C645 H667 0.950 . S
C646 H642 0.949 . S
C646 C654 1.574 . S
C646 C662 1.368 . S
H647 C655 0.950 . S
H648 C653 0.950 . S
H649 C654 0.949 . S
H650 C656 0.950 . S
H651 C657 0.950 . S
H652 C658 0.949 . S
C653 H648 0.950 . S
C653 C655 1.327 . S
C653 C659 1.429 . S
C654 C646 1.574 . S
C654 H649 0.949 . S
C654 C660 1.368 . S
C655 C639 1.349 . S
C655 H647 0.950 . S
C655 C653 1.327 . S
C656 C644 1.349 . S
C656 H650 0.950 . S
C656 C657 1.327 . S
C657 H651 0.950 . S
C657 C656 1.327 . S
C657 C661 1.429 . S
C658 C641 1.574 . S
C658 H652 0.949 . S
C658 C662 1.368 . S
C659 C640 1.429 . S
C659 C653 1.429 . S
C659 C660 1.523 . S
C660 C641 1.368 . S
C660 C654 1.368 . S
C660 C659 1.523 . S
C661 C645 1.429 . S
C661 C657 1.429 . S
C661 C662 1.523 . S
C662 C646 1.368 . S
C662 C658 1.368 . S
C662 C661 1.523 . S
H663 C638 0.950 . S
H664 C640 0.950 . S
H665 C641 0.949 . S
H666 C643 0.950 . S
H667 C645 0.950 . S
C668 C669 1.349 . S
C668 C670 1.327 . S
C668 H693 0.950 . S
C669 C668 1.349 . S
C669 C685 1.349 . S
C670 C668 1.327 . S
C670 C689 1.429 . S
C670 H694 0.950 . S
C671 C688 1.574 . S
C671 C690 1.368 . S
C671 H695 0.949 . S
H672 C676 0.949 . S
C673 C674 1.349 . S
C673 C675 1.327 . S
C673 H696 0.950 1_556 S
C674 C673 1.349 . S
C674 C686 1.349 . S
C675 C673 1.327 . S
C675 C691 1.429 . S
C675 H697 0.950 1_556 S
C676 H672 0.949 . S
C676 C684 1.574 . S
C676 C692 1.368 . S
H677 C685 0.950 . S
H678 C683 0.950 . S
H679 C684 0.949 . S
H680 C686 0.950 . S
H681 C687 0.950 . S
H682 C688 0.949 . S
C683 H678 0.950 . S
C683 C685 1.327 . S
C683 C689 1.429 . S
C684 C676 1.574 . S
C684 H679 0.949 . S
C684 C690 1.368 . S
C685 C669 1.349 . S
C685 H677 0.950 . S
C685 C683 1.327 . S
C686 C674 1.349 . S
C686 H680 0.950 . S
C686 C687 1.327 . S
C687 H681 0.950 . S
C687 C686 1.327 . S
C687 C691 1.429 . S
C688 C671 1.574 . S
C688 H682 0.949 . S
C688 C692 1.368 . S
C689 C670 1.429 . S
C689 C683 1.429 . S
C689 C690 1.523 . S
C690 C671 1.368 . S
C690 C684 1.368 . S
C690 C689 1.523 . S
C691 C675 1.429 . S
C691 C687 1.429 . S
C691 C692 1.523 . S
C692 C676 1.368 . S
C692 C688 1.368 . S
C692 C691 1.523 . S
H693 C668 0.950 . S
H694 C670 0.950 . S
H695 C671 0.949 . S
H696 C673 0.950 1_554 S
H697 C675 0.950 1_554 S
C698 C699 1.349 . S
C698 C700 1.327 . S
C698 H723 0.950 . S
C699 C698 1.349 . S
C699 C715 1.349 . S
C700 C698 1.327 . S
C700 C719 1.429 . S
C700 H724 0.950 . S
C701 C718 1.574 . S
C701 C720 1.368 . S
C701 H725 0.949 . S
H702 C706 0.949 . S
C703 C704 1.349 . S
C703 C705 1.327 . S
C703 H726 0.950 . S
C704 C703 1.349 . S
C704 C716 1.349 . S
C705 C703 1.327 . S
C705 C721 1.429 . S
C705 H727 0.950 . S
C706 H702 0.949 . S
C706 C714 1.574 . S
C706 C722 1.368 . S
H707 C715 0.950 . S
H708 C713 0.950 . S
H709 C714 0.949 . S
H710 C716 0.950 . S
H711 C717 0.950 . S
H712 C718 0.949 . S
C713 H708 0.950 . S
C713 C715 1.327 . S
C713 C719 1.429 . S
C714 C706 1.574 . S
C714 H709 0.949 . S
C714 C720 1.368 . S
C715 C699 1.349 . S
C715 H707 0.950 . S
C715 C713 1.327 . S
C716 C704 1.349 . S
C716 H710 0.950 . S
C716 C717 1.327 . S
C717 H711 0.950 . S
C717 C716 1.327 . S
C717 C721 1.429 . S
C718 C701 1.574 . S
C718 H712 0.949 . S
C718 C722 1.368 . S
C719 C700 1.429 . S
C719 C713 1.429 . S
C719 C720 1.523 . S
C720 C701 1.368 . S
C720 C714 1.368 . S
C720 C719 1.523 . S
C721 C705 1.429 . S
C721 C717 1.429 . S
C721 C722 1.523 . S
C722 C706 1.368 . S
C722 C718 1.368 . S
C722 C721 1.523 . S
H723 C698 0.950 . S
H724 C700 0.950 . S
H725 C701 0.949 . S
H726 C703 0.950 . S
H727 C705 0.950 . S
C728 C729 1.349 . S
C728 C730 1.327 . S
C728 H753 0.950 . S
C729 C728 1.349 . S
C729 C745 1.349 . S
C730 C728 1.327 . S
C730 C749 1.429 . S
C730 H754 0.950 . S
C731 C748 1.574 . S
C731 C750 1.368 . S
C731 H755 0.949 . S
H732 C736 0.949 . S
C733 C734 1.349 . S
C733 C735 1.327 . S
C733 H756 0.950 . S
C734 C733 1.349 . S
C734 C746 1.349 . S
C735 C733 1.327 . S
C735 C751 1.429 . S
C735 H757 0.950 . S
C736 H732 0.949 . S
C736 C744 1.574 . S
C736 C752 1.368 . S
H737 C745 0.950 . S
H738 C743 0.950 . S
H739 C744 0.949 . S
H740 C746 0.950 . S
H741 C747 0.950 . S
H742 C748 0.949 . S
C743 H738 0.950 . S
C743 C745 1.327 . S
C743 C749 1.429 . S
C744 C736 1.574 . S
C744 H739 0.949 . S
C744 C750 1.368 . S
C745 C729 1.349 . S
C745 H737 0.950 . S
C745 C743 1.327 . S
C746 C734 1.349 . S
C746 H740 0.950 . S
C746 C747 1.327 . S
C747 H741 0.950 . S
C747 C746 1.327 . S
C747 C751 1.429 . S
C748 C731 1.574 . S
C748 H742 0.949 . S
C748 C752 1.368 . S
C749 C730 1.429 . S
C749 C743 1.429 . S
C749 C750 1.523 . S
C750 C731 1.368 . S
C750 C744 1.368 . S
C750 C749 1.523 . S
C751 C735 1.429 . S
C751 C747 1.429 . S
C751 C752 1.523 . S
C752 C736 1.368 . S
C752 C748 1.368 . S
C752 C751 1.523 . S
H753 C728 0.950 . S
H754 C730 0.950 . S
H755 C731 0.949 . S
H756 C733 0.950 . S
H757 C735 0.950 . S
C758 C759 1.349 . S
C758 C760 1.327 . S
C758 H783 0.950 . S
C759 C758 1.349 . S
C759 C775 1.349 . S
C760 C758 1.327 . S
C760 C779 1.429 . S
C760 H784 0.950 . S
C761 C778 1.574 . S
C761 C780 1.368 . S
C761 H785 0.949 . S
H762 C766 0.949 . S
C763 C764 1.349 . S
C763 C765 1.327 . S
C763 H786 0.950 . S
C764 C763 1.349 . S
C764 C776 1.349 . S
C765 C763 1.327 . S
C765 C781 1.429 . S
C765 H787 0.950 . S
C766 H762 0.949 . S
C766 C774 1.574 . S
C766 C782 1.368 . S
H767 C775 0.950 . S
H768 C773 0.950 . S
H769 C774 0.949 . S
H770 C776 0.950 . S
H771 C777 0.950 . S
H772 C778 0.949 . S
C773 H768 0.950 . S
C773 C775 1.327 . S
C773 C779 1.429 . S
C774 C766 1.574 . S
C774 H769 0.949 . S
C774 C780 1.368 . S
C775 C759 1.349 . S
C775 H767 0.950 . S
C775 C773 1.327 . S
C776 C764 1.349 . S
C776 H770 0.950 . S
C776 C777 1.327 . S
C777 H771 0.950 . S
C777 C776 1.327 . S
C777 C781 1.429 . S
C778 C761 1.574 . S
C778 H772 0.949 . S
C778 C782 1.368 . S
C779 C760 1.429 . S
C779 C773 1.429 . S
C779 C780 1.523 . S
C780 C761 1.368 . S
C780 C774 1.368 . S
C780 C779 1.523 . S
C781 C765 1.429 . S
C781 C777 1.429 . S
C781 C782 1.523 . S
C782 C766 1.368 . S
C782 C778 1.368 . S
C782 C781 1.523 . S
H783 C758 0.950 . S
H784 C760 0.950 . S
H785 C761 0.949 . S
H786 C763 0.950 . S
H787 C765 0.950 . S
C788 C789 1.349 . S
C788 C790 1.327 . S
C788 H813 0.950 . S
C789 C788 1.349 . S
C789 C805 1.349 . S
C790 C788 1.327 . S
C790 C809 1.429 . S
C790 H814 0.950 . S
C791 C808 1.574 . S
C791 C810 1.368 . S
C791 H815 0.949 . S
H792 C796 0.949 1_554 S
C793 C794 1.349 . S
C793 C795 1.327 . S
C793 H816 0.950 . S
C794 C793 1.349 . S
C794 C806 1.349 1_456 S
C795 C793 1.327 . S
C795 C811 1.429 1_455 S
C795 H817 0.950 . S
C796 H792 0.949 1_556 S
C796 C804 1.574 . S
C796 C812 1.368 . S
H797 C805 0.950 . S
H798 C803 0.950 . S
H799 C804 0.949 . S
H800 C806 0.950 . S
H801 C807 0.950 . S
H802 C808 0.949 1_455 S
C803 H798 0.950 . S
C803 C805 1.327 . S
C803 C809 1.429 . S
C804 C796 1.574 . S
C804 H799 0.949 . S
C804 C810 1.368 . S
C805 C789 1.349 . S
C805 H797 0.950 . S
C805 C803 1.327 . S
C806 C794 1.349 1_654 S
C806 H800 0.950 . S
C806 C807 1.327 . S
C807 H801 0.950 . S
C807 C806 1.327 . S
C807 C811 1.429 1_554 S
C808 C791 1.574 . S
C808 H802 0.949 1_655 S
C808 C812 1.368 . S
C809 C790 1.429 . S
C809 C803 1.429 . S
C809 C810 1.523 . S
C810 C791 1.368 . S
C810 C804 1.368 . S
C810 C809 1.523 . S
C811 C795 1.429 1_655 S
C811 C807 1.429 1_556 S
C811 C812 1.523 . S
C812 C796 1.368 . S
C812 C808 1.368 . S
C812 C811 1.523 . S
H813 C788 0.950 . S
H814 C790 0.950 . S
H815 C791 0.949 . S
H816 C793 0.950 . S
H817 C795 0.950 . S
C818 C819 1.349 . S
C818 C820 1.327 . S
C818 H843 0.950 . S
C819 C818 1.349 . S
C819 C835 1.349 . S
C820 C818 1.327 . S
C820 C839 1.429 . S
C820 H844 0.950 . S
C821 C838 1.574 . S
C821 C840 1.368 . S
C821 H845 0.949 . S
H822 C826 0.949 . S
C823 C824 1.349 . S
C823 C825 1.327 . S
C823 H846 0.950 . S
C824 C823 1.349 . S
C824 C836 1.349 . S
C825 C823 1.327 . S
C825 C841 1.429 . S
C825 H847 0.950 . S
C826 H822 0.949 . S
C826 C834 1.574 . S
C826 C842 1.368 . S
H827 C835 0.950 . S
H828 C833 0.950 . S
H829 C834 0.949 . S
H830 C836 0.950 . S
H831 C837 0.950 . S
H832 C838 0.949 . S
C833 H828 0.950 . S
C833 C835 1.327 . S
C833 C839 1.429 . S
C834 C826 1.574 . S
C834 H829 0.949 . S
C834 C840 1.368 . S
C835 C819 1.349 . S
C835 H827 0.950 . S
C835 C833 1.327 . S
C836 C824 1.349 . S
C836 H830 0.950 . S
C836 C837 1.327 . S
C837 H831 0.950 . S
C837 C836 1.327 . S
C837 C841 1.429 . S
C838 C821 1.574 . S
C838 H832 0.949 . S
C838 C842 1.368 . S
C839 C820 1.429 . S
C839 C833 1.429 . S
C839 C840 1.523 . S
C840 C821 1.368 . S
C840 C834 1.368 . S
C840 C839 1.523 . S
C841 C825 1.429 . S
C841 C837 1.429 . S
C841 C842 1.523 . S
C842 C826 1.368 . S
C842 C838 1.368 . S
C842 C841 1.523 . S
H843 C818 0.950 . S
H844 C820 0.950 . S
H845 C821 0.949 . S
H846 C823 0.950 . S
H847 C825 0.950 . S
C848 C849 1.349 . S
C848 C850 1.327 . S
C848 H873 0.950 . S
C849 C848 1.349 . S
C849 C865 1.349 . S
C850 C848 1.327 . S
C850 C869 1.429 . S
C850 H874 0.950 . S
C851 C868 1.574 . S
C851 C870 1.368 . S
C851 H875 0.949 . S
H852 C856 0.949 . S
C853 C854 1.349 . S
C853 C855 1.327 . S
C853 H876 0.950 . S
C854 C853 1.349 . S
C854 C866 1.349 . S
C855 C853 1.327 . S
C855 C871 1.429 . S
C855 H877 0.950 . S
C856 H852 0.949 . S
C856 C864 1.574 . S
C856 C872 1.368 . S
H857 C865 0.950 . S
H858 C863 0.950 . S
H859 C864 0.949 . S
H860 C866 0.950 . S
H861 C867 0.950 . S
H862 C868 0.949 . S
C863 H858 0.950 . S
C863 C865 1.327 . S
C863 C869 1.429 . S
C864 C856 1.574 . S
C864 H859 0.949 . S
C864 C870 1.368 . S
C865 C849 1.349 . S
C865 H857 0.950 . S
C865 C863 1.327 . S
C866 C854 1.349 . S
C866 H860 0.950 . S
C866 C867 1.327 . S
C867 H861 0.950 . S
C867 C866 1.327 . S
C867 C871 1.429 . S
C868 C851 1.574 . S
C868 H862 0.949 . S
C868 C872 1.368 . S
C869 C850 1.429 . S
C869 C863 1.429 . S
C869 C870 1.523 . S
C870 C851 1.368 . S
C870 C864 1.368 . S
C870 C869 1.523 . S
C871 C855 1.429 . S
C871 C867 1.429 . S
C871 C872 1.523 . S
C872 C856 1.368 . S
C872 C868 1.368 . S
C872 C871 1.523 . S
H873 C848 0.950 . S
H874 C850 0.950 . S
H875 C851 0.949 . S
H876 C853 0.950 . S
H877 C855 0.950 . S
C878 C879 1.349 . S
C878 C880 1.327 . S
C878 H903 0.950 . S
C879 C878 1.349 . S
C879 C895 1.349 . S
C880 C878 1.327 . S
C880 C899 1.429 . S
C880 H904 0.950 . S
C881 C898 1.574 . S
C881 C900 1.368 . S
C881 H905 0.949 . S
H882 C886 0.949 . S
C883 C884 1.349 . S
C883 C885 1.327 . S
C883 H906 0.950 . S
C884 C883 1.349 . S
C884 C896 1.349 . S
C885 C883 1.327 . S
C885 C901 1.429 . S
C885 H907 0.950 . S
C886 H882 0.949 . S
C886 C894 1.574 . S
C886 C902 1.368 . S
H887 C895 0.950 . S
H888 C893 0.950 . S
H889 C894 0.949 . S
H890 C896 0.950 . S
H891 C897 0.950 . S
H892 C898 0.949 . S
C893 H888 0.950 . S
C893 C895 1.327 . S
C893 C899 1.429 . S
C894 C886 1.574 . S
C894 H889 0.949 . S
C894 C900 1.368 . S
C895 C879 1.349 . S
C895 H887 0.950 . S
C895 C893 1.327 . S
C896 C884 1.349 . S
C896 H890 0.950 . S
C896 C897 1.327 . S
C897 H891 0.950 . S
C897 C896 1.327 . S
C897 C901 1.429 . S
C898 C881 1.574 . S
C898 H892 0.949 . S
C898 C902 1.368 . S
C899 C880 1.429 . S
C899 C893 1.429 . S
C899 C900 1.523 . S
C900 C881 1.368 . S
C900 C894 1.368 . S
C900 C899 1.523 . S
C901 C885 1.429 . S
C901 C897 1.429 . S
C901 C902 1.523 . S
C902 C886 1.368 . S
C902 C898 1.368 . S
C902 C901 1.523 . S
H903 C878 0.950 . S
H904 C880 0.950 . S
H905 C881 0.949 . S
H906 C883 0.950 . S
H907 C885 0.950 . S
C189 C9 2.075 . S
C194 C120 2.027 . S
C219 C21 1.473 . S
C224 C142 1.429 . S
C254 C161 0.950 . S
C249 C30 1.081 . S
C279 C43 1.437 . S
C284 C182 1.271 1_655 S
C314 C139 1.681 . S
C309 C4 1.698 . S
C344 C117 2.228 . S
C339 C22 2.271 . S
C374 C184 0.927 1_554 S
C369 C34 0.966 . S
C404 C163 1.148 . S
C399 C48 1.184 . S
C429 C8 1.836 . S
C434 C181 1.765 . S
C464 C140 1.343 . S
C459 C35 1.618 . S
C489 C47 1.725 . S
C494 C122 1.532 . S
C519 C17 1.300 . S
C524 C160 1.281 . S
C554 C118 1.610 1_655 S
C549 C60 1.667 . S
C579 C74 1.612 . S
C584 C138 1.558 . S
C609 C82 0.903 . S
C614 C164 0.836 . S
C639 C100 1.951 . S
C644 C185 1.628 . S
C669 C61 2.145 . S
C674 C141 2.082 . S
C704 C121 1.759 . S
C699 C73 1.831 . S
C734 C180 1.275 . S
C729 C87 1.320 . S
C764 C159 1.036 . S
C759 C95 1.040 . S
C789 C56 1.582 . S
C794 C183 1.601 . S
C824 C143 1.317 . S
C819 C86 1.560 . S
C854 C119 1.226 . S
C849 C99 1.398 . S
C879 C69 1.276 . S
C884 C162 1.286 . S
