# Generated by pormake.
# Topology ptr, (4,4)-cn, num edge types: 1
# Building blocks:
#     Node 0, Type 0, BuildingBlock: UXUYUI_clean_sbu_0, # of connection points: 4
#     Node 1, Type 0, BuildingBlock: UXUYUI_clean_sbu_0, # of connection points: 4
#     Node 2, Type 0, BuildingBlock: UXUYUI_clean_sbu_0, # of connection points: 4
#     Node 3, Type 0, BuildingBlock: UXUYUI_clean_sbu_0, # of connection points: 4
#     Node 4, Type 0, BuildingBlock: UXUYUI_clean_sbu_0, # of connection points: 4
#     Node 5, Type 0, BuildingBlock: UXUYUI_clean_sbu_0, # of connection points: 4
#     Node 6, Type 0, BuildingBlock: UXUYUI_clean_sbu_0, # of connection points: 4
#     Node 7, Type 0, BuildingBlock: UXUYUI_clean_sbu_0, # of connection points: 4
#     Node 8, Type 0, BuildingBlock: UXUYUI_clean_sbu_0, # of connection points: 4
#     Node 9, Type 0, BuildingBlock: UXUYUI_clean_sbu_0, # of connection points: 4
#     Node 10, Type 0, BuildingBlock: UXUYUI_clean_sbu_0, # of connection points: 4
#     Node 11, Type 0, BuildingBlock: UXUYUI_clean_sbu_0, # of connection points: 4
#     Node 12, Type 0, BuildingBlock: UXUYUI_clean_sbu_0, # of connection points: 4
#     Node 13, Type 0, BuildingBlock: UXUYUI_clean_sbu_0, # of connection points: 4
#     Node 14, Type 0, BuildingBlock: UXUYUI_clean_sbu_0, # of connection points: 4
#     Node 15, Type 0, BuildingBlock: UXUYUI_clean_sbu_0, # of connection points: 4
#     Node 16, Type 0, BuildingBlock: UXUYUI_clean_sbu_0, # of connection points: 4
#     Node 17, Type 0, BuildingBlock: UXUYUI_clean_sbu_0, # of connection points: 4
#     Node 18, Type 1, BuildingBlock: NAWXER_clean_linker_0, # of connection points: 4
#     Node 19, Type 1, BuildingBlock: NAWXER_clean_linker_0, # of connection points: 4
#     Node 20, Type 1, BuildingBlock: NAWXER_clean_linker_0, # of connection points: 4
#     Node 21, Type 1, BuildingBlock: NAWXER_clean_linker_0, # of connection points: 4
#     Node 22, Type 1, BuildingBlock: NAWXER_clean_linker_0, # of connection points: 4
#     Node 23, Type 1, BuildingBlock: NAWXER_clean_linker_0, # of connection points: 4
#     Node 24, Type 1, BuildingBlock: NAWXER_clean_linker_0, # of connection points: 4
#     Node 25, Type 1, BuildingBlock: NAWXER_clean_linker_0, # of connection points: 4
#     Node 26, Type 1, BuildingBlock: NAWXER_clean_linker_0, # of connection points: 4
#     Node 27, Type 1, BuildingBlock: NAWXER_clean_linker_0, # of connection points: 4
#     Node 28, Type 1, BuildingBlock: NAWXER_clean_linker_0, # of connection points: 4
#     Node 29, Type 1, BuildingBlock: NAWXER_clean_linker_0, # of connection points: 4
#     Node 30, Type 1, BuildingBlock: NAWXER_clean_linker_0, # of connection points: 4
#     Node 31, Type 1, BuildingBlock: NAWXER_clean_linker_0, # of connection points: 4
#     Node 32, Type 1, BuildingBlock: NAWXER_clean_linker_0, # of connection points: 4
#     Node 33, Type 1, BuildingBlock: NAWXER_clean_linker_0, # of connection points: 4
#     Node 34, Type 1, BuildingBlock: NAWXER_clean_linker_0, # of connection points: 4
#     Node 35, Type 1, BuildingBlock: NAWXER_clean_linker_0, # of connection points: 4
#     Edge 36, Type (0, 1), BuildingBlock: OJICUG_clean_linker_0, # of connection points: 2
#     Edge 37, Type (0, 1), BuildingBlock: OJICUG_clean_linker_0, # of connection points: 2
#     Edge 38, Type (0, 1), BuildingBlock: OJICUG_clean_linker_0, # of connection points: 2
#     Edge 39, Type (0, 1), BuildingBlock: OJICUG_clean_linker_0, # of connection points: 2
#     Edge 40, Type (0, 1), BuildingBlock: OJICUG_clean_linker_0, # of connection points: 2
#     Edge 41, Type (0, 1), BuildingBlock: OJICUG_clean_linker_0, # of connection points: 2
#     Edge 42, Type (0, 1), BuildingBlock: OJICUG_clean_linker_0, # of connection points: 2
#     Edge 43, Type (0, 1), BuildingBlock: OJICUG_clean_linker_0, # of connection points: 2
#     Edge 44, Type (0, 1), BuildingBlock: OJICUG_clean_linker_0, # of connection points: 2
#     Edge 45, Type (0, 1), BuildingBlock: OJICUG_clean_linker_0, # of connection points: 2
#     Edge 46, Type (0, 1), BuildingBlock: OJICUG_clean_linker_0, # of connection points: 2
#     Edge 47, Type (0, 1), BuildingBlock: OJICUG_clean_linker_0, # of connection points: 2
#     Edge 48, Type (0, 1), BuildingBlock: OJICUG_clean_linker_0, # of connection points: 2
#     Edge 49, Type (0, 1), BuildingBlock: OJICUG_clean_linker_0, # of connection points: 2
#     Edge 50, Type (0, 1), BuildingBlock: OJICUG_clean_linker_0, # of connection points: 2
#     Edge 51, Type (0, 1), BuildingBlock: OJICUG_clean_linker_0, # of connection points: 2
#     Edge 52, Type (0, 1), BuildingBlock: OJICUG_clean_linker_0, # of connection points: 2
#     Edge 53, Type (0, 1), BuildingBlock: OJICUG_clean_linker_0, # of connection points: 2
#     Edge 54, Type (0, 1), BuildingBlock: OJICUG_clean_linker_0, # of connection points: 2
#     Edge 55, Type (0, 1), BuildingBlock: OJICUG_clean_linker_0, # of connection points: 2
#     Edge 56, Type (0, 1), BuildingBlock: OJICUG_clean_linker_0, # of connection points: 2
#     Edge 57, Type (0, 1), BuildingBlock: OJICUG_clean_linker_0, # of connection points: 2
#     Edge 58, Type (0, 1), BuildingBlock: OJICUG_clean_linker_0, # of connection points: 2
#     Edge 59, Type (0, 1), BuildingBlock: OJICUG_clean_linker_0, # of connection points: 2
#     Edge 60, Type (0, 1), BuildingBlock: OJICUG_clean_linker_0, # of connection points: 2
#     Edge 61, Type (0, 1), BuildingBlock: OJICUG_clean_linker_0, # of connection points: 2
#     Edge 62, Type (0, 1), BuildingBlock: OJICUG_clean_linker_0, # of connection points: 2
#     Edge 63, Type (0, 1), BuildingBlock: OJICUG_clean_linker_0, # of connection points: 2
#     Edge 64, Type (0, 1), BuildingBlock: OJICUG_clean_linker_0, # of connection points: 2
#     Edge 65, Type (0, 1), BuildingBlock: OJICUG_clean_linker_0, # of connection points: 2
#     Edge 66, Type (0, 1), BuildingBlock: OJICUG_clean_linker_0, # of connection points: 2
#     Edge 67, Type (0, 1), BuildingBlock: OJICUG_clean_linker_0, # of connection points: 2
#     Edge 68, Type (0, 1), BuildingBlock: OJICUG_clean_linker_0, # of connection points: 2
#     Edge 69, Type (0, 1), BuildingBlock: OJICUG_clean_linker_0, # of connection points: 2
#     Edge 70, Type (0, 1), BuildingBlock: OJICUG_clean_linker_0, # of connection points: 2
#     Edge 71, Type (0, 1), BuildingBlock: OJICUG_clean_linker_0, # of connection points: 2
#     Edge 72, Type (0, 1), BuildingBlock: OJICUG_clean_linker_0, # of connection points: 2
#     Edge 73, Type (0, 1), BuildingBlock: OJICUG_clean_linker_0, # of connection points: 2
#     Edge 74, Type (0, 1), BuildingBlock: OJICUG_clean_linker_0, # of connection points: 2
#     Edge 75, Type (0, 1), BuildingBlock: OJICUG_clean_linker_0, # of connection points: 2
#     Edge 76, Type (0, 1), BuildingBlock: OJICUG_clean_linker_0, # of connection points: 2
#     Edge 77, Type (0, 1), BuildingBlock: OJICUG_clean_linker_0, # of connection points: 2
#     Edge 78, Type (0, 1), BuildingBlock: OJICUG_clean_linker_0, # of connection points: 2
#     Edge 79, Type (0, 1), BuildingBlock: OJICUG_clean_linker_0, # of connection points: 2
#     Edge 80, Type (0, 1), BuildingBlock: OJICUG_clean_linker_0, # of connection points: 2
#     Edge 81, Type (0, 1), BuildingBlock: OJICUG_clean_linker_0, # of connection points: 2
#     Edge 82, Type (0, 1), BuildingBlock: OJICUG_clean_linker_0, # of connection points: 2
#     Edge 83, Type (0, 1), BuildingBlock: OJICUG_clean_linker_0, # of connection points: 2
#     Edge 84, Type (0, 1), BuildingBlock: OJICUG_clean_linker_0, # of connection points: 2
#     Edge 85, Type (0, 1), BuildingBlock: OJICUG_clean_linker_0, # of connection points: 2
#     Edge 86, Type (0, 1), BuildingBlock: OJICUG_clean_linker_0, # of connection points: 2
#     Edge 87, Type (0, 1), BuildingBlock: OJICUG_clean_linker_0, # of connection points: 2
#     Edge 88, Type (0, 1), BuildingBlock: OJICUG_clean_linker_0, # of connection points: 2
#     Edge 89, Type (0, 1), BuildingBlock: OJICUG_clean_linker_0, # of connection points: 2
#     Edge 90, Type (0, 1), BuildingBlock: OJICUG_clean_linker_0, # of connection points: 2
#     Edge 91, Type (0, 1), BuildingBlock: OJICUG_clean_linker_0, # of connection points: 2
#     Edge 92, Type (0, 1), BuildingBlock: OJICUG_clean_linker_0, # of connection points: 2
#     Edge 93, Type (0, 1), BuildingBlock: OJICUG_clean_linker_0, # of connection points: 2
#     Edge 94, Type (0, 1), BuildingBlock: OJICUG_clean_linker_0, # of connection points: 2
#     Edge 95, Type (0, 1), BuildingBlock: OJICUG_clean_linker_0, # of connection points: 2
#     Edge 96, Type (0, 1), BuildingBlock: OJICUG_clean_linker_0, # of connection points: 2
#     Edge 97, Type (0, 1), BuildingBlock: OJICUG_clean_linker_0, # of connection points: 2
#     Edge 98, Type (0, 1), BuildingBlock: OJICUG_clean_linker_0, # of connection points: 2
#     Edge 99, Type (0, 1), BuildingBlock: OJICUG_clean_linker_0, # of connection points: 2
#     Edge 100, Type (0, 1), BuildingBlock: OJICUG_clean_linker_0, # of connection points: 2
#     Edge 101, Type (0, 1), BuildingBlock: OJICUG_clean_linker_0, # of connection points: 2
#     Edge 102, Type (0, 1), BuildingBlock: OJICUG_clean_linker_0, # of connection points: 2
#     Edge 103, Type (0, 1), BuildingBlock: OJICUG_clean_linker_0, # of connection points: 2
#     Edge 104, Type (0, 1), BuildingBlock: OJICUG_clean_linker_0, # of connection points: 2
#     Edge 105, Type (0, 1), BuildingBlock: OJICUG_clean_linker_0, # of connection points: 2
#     Edge 106, Type (0, 1), BuildingBlock: OJICUG_clean_linker_0, # of connection points: 2
#     Edge 107, Type (0, 1), BuildingBlock: OJICUG_clean_linker_0, # of connection points: 2
# Relax obj value: 0.097
# Max RMSD: 0.293
# Mean RMSD: 0.120
data_MOF--net-ptr--node1-UXUYUI_clean_sbu_0--node2-NAWXER_clean_linker_0--edge1-OJICUG_clean_linker_0
_symmetry_space_group_name_H-M    P1
_symmetry_Int_Tables_number       1
_symmetry_cell_setting            triclinic
loop_
_symmetry_equiv_pos_as_xyz
'x, y, z'
_cell_length_a     85.447647
_cell_length_b     85.433186
_cell_length_c     60.222559
_cell_angle_alpha  90.132072
_cell_angle_beta   89.857585
_cell_angle_gamma 120.20001
loop_
_atom_site_label
_atom_site_type_symbol
_atom_site_fract_x
_atom_site_fract_y
_atom_site_fract_z
_atom_type_partial_charge
Li0 Li 0.99497 0.33221 0.99493 0.0
Li1 Li 0.02143 0.34637 0.01458 0.0
Li2 Li -0.00046 0.35527 0.02333 0.0
Li3 Li 0.01573 0.36316 0.98505 0.0
C4 C -0.00057 0.32214 0.0445 0.0
N5 N 0.0056 0.30456 0.07895 0.0
C6 C 0.00378 0.3087 0.04004 0.0
C7 C 0.99768 0.32621 0.06654 0.0
C8 C 0.00703 0.30011 0.05765 0.0
C9 C 0.00098 0.31728 0.08371 0.0
C10 C 0.01761 0.33071 0.96531 0.0
C11 C 0.01681 0.32403 0.92623 0.0
N12 N 0.0125 0.3068 0.93127 0.0
C13 C 0.01357 0.31305 0.97008 0.0
C14 C 0.01957 0.33633 0.9432 0.0
C15 C 0.01088 0.30113 0.95266 0.0
C16 C 0.97325 0.31044 0.95954 0.0
N17 N 0.9772 0.3102 0.98133 0.0
C18 C 0.95688 0.27828 0.98316 0.0
C19 C 0.9692 0.2946 0.99328 0.0
C20 C 0.95269 0.27805 0.96056 0.0
C21 C 0.96096 0.29447 0.94878 0.0
H22 H 0.97981 0.32307 0.95045 0.0
H23 H 0.97253 0.29481 0.01061 0.0
C24 C 0.04373 0.34924 0.05063 0.0
N25 N 0.03956 0.34343 0.02927 0.0
C26 C 0.05561 0.34586 0.0627 0.0
C27 C 0.05868 0.33053 0.03062 0.0
C28 C 0.04695 0.33447 0.01903 0.0
C29 C 0.06301 0.33615 0.05278 0.0
H30 H 0.03737 0.35602 0.05849 0.0
H31 H 0.04338 0.32999 0.00206 0.0
C32 C 0.97169 0.34356 0.98698 0.0
N33 N 0.93545 0.32471 0.97567 0.0
C34 C 0.96598 0.34684 0.96668 0.0
C35 C 0.95894 0.33084 0.00164 0.0
C36 C 0.9476 0.33713 0.96125 0.0
C37 C 0.9407 0.3214 0.99558 0.0
C38 C 0.04332 0.38185 0.0213 0.0
C39 C 0.0485 0.39188 0.04099 0.0
C40 C 0.05654 0.38214 0.0073 0.0
C41 C 0.06685 0.40186 0.04651 0.0
C42 C 0.07474 0.39227 0.01341 0.0
N43 N 0.07948 0.40183 0.03274 0.0
C44 C -0.00051 0.37046 0.06474 0.0
C45 C 0.97665 0.36778 0.04018 0.0
C46 C 0.99473 0.37948 0.08031 0.0
N47 N 0.99052 0.3649 0.04511 0.0
C48 C 0.97144 0.37676 0.05525 0.0
C49 C 0.98072 0.38301 0.07549 0.0
H50 H 0.01073 0.36835 0.06804 0.0
H51 H 0.97 0.36367 0.02426 0.0
C52 C 0.01451 0.37688 0.94313 0.0
N53 N 0.02379 0.38128 0.9626 0.0
C54 C 0.01794 0.39025 0.92744 0.0
C55 C 0.0408 0.41239 0.95185 0.0
C56 C 0.03689 0.39859 0.96709 0.0
C57 C 0.03097 0.40838 0.93192 0.0
H58 H 0.00395 0.36307 0.94013 0.0
H59 H 0.0438 0.40187 0.98286 0.0
O60 O 0.9965 0.33097 0.02746 0.0
O61 O 0.02007 0.34257 0.98213 0.0
O62 O 0.98967 0.35261 0.99248 0.0
O63 O 0.0254 0.37168 0.01578 0.0
H64 H 0.00487 0.30509 0.02318 0.0
H65 H 0.99369 0.33604 0.07038 0.0
H66 H 0.01068 0.2899 0.05438 0.0
H67 H -0.00021 0.32042 0.10083 0.0
H68 H 0.01816 0.32819 0.90905 0.0
H69 H 0.0123 0.3085 0.98701 0.0
H70 H 0.02333 0.35008 0.93914 0.0
H71 H 0.00749 0.28736 0.95615 0.0
H72 H 0.95096 0.26594 0.99284 0.0
H73 H 0.95792 0.295 0.93145 0.0
H74 H 0.05849 0.35023 0.07985 0.0
H75 H 0.06424 0.32309 0.02242 0.0
H76 H 0.97559 0.35676 0.95524 0.0
H77 H 0.96313 0.32816 0.01744 0.0
H78 H 0.94299 0.33948 0.94556 0.0
H79 H 0.93071 0.31143 0.0067 0.0
H80 H 0.03849 0.39198 0.05191 0.0
H81 H 0.05275 0.37448 0.99196 0.0
H82 H 0.07106 0.40963 0.06174 0.0
H83 H 0.0851 0.39252 0.00281 0.0
H84 H 0.00248 0.38434 0.09551 0.0
H85 H 0.96052 0.37914 0.0509 0.0
H86 H 0.00982 0.38654 0.9125 0.0
H87 H 0.05106 0.42615 0.95593 0.0
Li88 Li 0.66843 0.65302 0.99658 0.0
Li89 Li 0.65254 0.66665 0.01467 0.0
Li90 Li 0.64536 0.63512 0.02519 0.0
Li91 Li 0.63566 0.64139 0.99 0.0
C92 C 0.68248 0.66287 0.04241 0.0
N93 N 0.71092 0.67174 0.07122 0.0
C94 C 0.69487 0.68101 0.04721 0.0
C95 C 0.68439 0.64924 0.05264 0.0
C96 C 0.70921 0.68522 0.06169 0.0
C97 C 0.6989 0.654 0.06705 0.0
C98 C 0.66111 0.68182 0.97386 0.0
C99 C 0.65328 0.7045 0.96477 0.0
N100 N 0.67047 0.71559 0.95743 0.0
C101 C 0.67867 0.69338 0.96608 0.0
C102 C 0.64826 0.68735 0.97306 0.0
C103 C 0.68315 0.71042 0.95788 0.0
C104 C 0.68997 0.64937 0.96419 0.0
N105 N 0.69063 0.65858 0.98291 0.0
C106 C 0.72274 0.67716 0.9798 0.0
C107 C 0.70654 0.6723 0.99079 0.0
C108 C 0.72252 0.66791 0.96037 0.0
C109 C 0.70583 0.65379 0.95263 0.0
H110 H 0.67705 0.63878 0.95803 0.0
H111 H 0.70665 0.67975 0.00532 0.0
C112 C 0.64414 0.68849 0.04157 0.0
N113 N 0.65628 0.6888 0.02673 0.0
C114 C 0.64771 0.70431 0.05272 0.0
C115 C 0.67594 0.7205 0.03254 0.0
C116 C 0.6719 0.70437 0.02197 0.0
C117 C 0.66396 0.72056 0.04851 0.0
H118 H 0.63198 0.67583 0.04532 0.0
H119 H 0.68155 0.70416 0.01054 0.0
C120 C 0.65284 0.61418 0.99452 0.0
N121 N 0.66236 0.58769 0.99346 0.0
C122 C 0.6417 0.59769 0.98384 0.0
C123 C 0.66892 0.61727 0.00441 0.0
C124 C 0.64671 0.58444 0.98357 0.0
C125 C 0.67348 0.6037 0.00376 0.0
C126 C 0.61045 0.63732 0.01862 0.0
C127 C 0.59893 0.61927 0.02466 0.0
C128 C 0.60316 0.6476 0.0105 0.0
C129 C 0.58024 0.6117 0.02213 0.0
C130 C 0.58441 0.63954 0.00821 0.0
N131 N 0.57343 0.6219 0.01401 0.0
C132 C 0.63681 0.6254 0.06938 0.0
C133 C 0.63178 0.60069 0.04647 0.0
C134 C 0.62873 0.61382 0.08741 0.0
N135 N 0.63787 0.61864 0.04935 0.0
C136 C 0.62374 0.58864 0.06411 0.0
C137 C 0.62171 0.59513 0.08473 0.0
H138 H 0.64157 0.63971 0.07106 0.0
H139 H 0.63229 0.59553 0.0303 0.0
C140 C 0.61524 0.63931 0.95127 0.0
N141 N 0.61683 0.63016 0.96874 0.0
C142 C 0.60195 0.63006 0.93514 0.0
C143 C 0.59213 0.6023 0.95555 0.0
C144 C 0.60556 0.61205 0.97121 0.0
C145 C 0.59036 0.61124 0.93702 0.0
H146 H 0.62455 0.65367 0.94955 0.0
H147 H 0.60722 0.60514 0.98523 0.0
O148 O 0.66817 0.6585 0.02854 0.0
O149 O 0.65653 0.66514 0.98208 0.0
O150 O 0.64808 0.62727 0.9949 0.0
O151 O 0.62879 0.64488 0.02062 0.0
H152 H 0.69357 0.69175 0.03967 0.0
H153 H 0.67472 0.63511 0.04968 0.0
H154 H 0.71897 0.69921 0.06538 0.0
H155 H 0.70055 0.64358 0.075 0.0
H156 H 0.6435 0.709 0.96418 0.0
H157 H 0.68875 0.68927 0.96644 0.0
H158 H 0.63461 0.67854 0.97892 0.0
H159 H 0.6967 0.71955 0.95189 0.0
H160 H 0.7353 0.68804 0.98646 0.0
H161 H 0.70498 0.6465 0.93752 0.0
H162 H 0.6382 0.70362 0.06513 0.0
H163 H 0.6885 0.73271 0.02853 0.0
H164 H 0.62928 0.59512 0.97589 0.0
H165 H 0.67792 0.63009 0.01222 0.0
H166 H 0.63817 0.57159 0.97546 0.0
H167 H 0.6859 0.60593 0.01136 0.0
H168 H 0.60435 0.61113 0.03098 0.0
H169 H 0.61189 0.66164 0.006 0.0
H170 H 0.57116 0.59771 0.02659 0.0
H171 H 0.57858 0.6473 0.00185 0.0
H172 H 0.62748 0.61935 0.10308 0.0
H173 H 0.61822 0.57429 0.06125 0.0
H174 H 0.60116 0.63744 0.921 0.0
H175 H 0.58332 0.58786 0.95784 0.0
Li176 Li 0.34754 0.98638 0.99259 0.0
Li177 Li 0.357 0.00293 0.0275 0.0
Li178 Li 0.32476 0.98067 0.0208 0.0
Li179 Li 0.33936 0.00969 0.00118 0.0
C180 C 0.35229 0.96543 0.02667 0.0
N181 N 0.36629 0.94296 0.03426 0.0
C182 C 0.37102 0.97261 0.02781 0.0
C183 C 0.34068 0.94684 0.02969 0.0
C184 C 0.37783 0.96103 0.03158 0.0
C185 C 0.34803 0.9357 0.03341 0.0
C186 C 0.38131 0.02304 0.99134 0.0
C187 C 0.40698 0.05195 0.98141 0.0
N188 N 0.41735 0.04406 0.97962 0.0
C189 C 0.39219 0.0152 0.98923 0.0
C190 C 0.38871 0.04154 0.98722 0.0
C191 C 0.41038 0.02606 0.98335 0.0
C192 C 0.3611 0.98854 0.95055 0.0
N193 N 0.35562 0.97762 0.96868 0.0
C194 C 0.36742 0.95983 0.95334 0.0
C195 C 0.35798 0.96305 0.97003 0.0
C196 C 0.37439 0.9717 0.93516 0.0
C197 C 0.37053 0.98581 0.9335 0.0
H198 H 0.35896 -2e-05 0.94991 0.0
H199 H 0.35332 0.9544 0.98442 0.0
C200 C 0.37147 0.00072 0.06764 0.0
N201 N 0.37522 0.01178 0.04983 0.0
C202 C 0.38463 0.00464 0.08377 0.0
C203 C 0.40501 0.03182 0.06355 0.0
C204 C 0.39143 0.02734 0.04775 0.0
C205 C 0.40181 0.0202 0.08163 0.0
H206 H 0.35844 0.98844 0.06885 0.0
H207 H 0.39401 0.03609 0.03366 0.0
C208 C 0.31171 0.96937 0.97772 0.0
N209 N 0.28743 0.93779 0.9562 0.0
C210 C 0.29966 0.96949 0.96217 0.0
C211 C 0.31143 0.95321 0.98232 0.0
C212 C 0.28748 0.95337 0.95147 0.0
C213 C 0.29906 0.93738 0.97126 0.0
C214 C 0.34059 0.02122 0.04525 0.0
C215 C 0.33072 0.02124 0.06377 0.0
C216 C 0.35585 0.03732 0.03852 0.0
C217 C 0.33628 0.03743 0.07524 0.0
C218 C 0.36098 0.05322 0.05042 0.0
N219 N 0.35117 0.05295 0.06839 0.0
C220 C 0.30443 0.95537 0.05358 0.0
C221 C 0.28689 0.96056 0.02734 0.0
C222 C 0.28891 0.94373 0.06564 0.0
N223 N 0.30312 0.96351 0.0349 0.0
C224 C 0.27101 0.94902 0.03888 0.0
C225 C 0.27192 0.94056 0.05844 0.0
H226 H 0.3176 0.95829 0.05939 0.0
H227 H 0.28632 0.96745 0.01259 0.0
C228 C 0.34274 0.03341 0.96747 0.0
N229 N 0.33548 0.02748 0.98794 0.0
C230 C 0.33929 0.04549 0.95593 0.0
C231 C 0.32113 0.0453 0.98693 0.0
C232 C 0.32484 0.03311 0.99781 0.0
C233 C 0.32825 0.05149 0.9656 0.0
H234 H 0.35098 0.0285 0.95998 0.0
H235 H 0.31894 0.02786 0.01392 0.0
O236 O 0.34527 0.9765 0.02305 0.0
O237 O 0.36341 0.01268 0.99694 0.0
O238 O 0.32364 0.98505 0.98838 0.0
O239 O 0.33531 0.00544 0.03393 0.0
H240 H 0.38022 0.98698 0.02599 0.0
H241 H 0.32614 0.94104 0.02907 0.0
H242 H 0.3923 0.96642 0.03246 0.0
H243 H 0.3392 0.92128 0.03566 0.0
H244 H 0.41291 0.06629 0.97828 0.0
H245 H 0.38664 0.00087 0.99185 0.0
H246 H 0.38045 0.04781 0.98855 0.0
H247 H 0.41894 0.02016 0.98166 0.0
H248 H 0.37011 0.94881 0.95533 0.0
H249 H 0.37535 0.99508 0.91958 0.0
H250 H 0.38159 0.99516 0.09725 0.0
H251 H 0.41794 0.04411 0.06145 0.0
H252 H 0.29972 0.98191 0.95845 0.0
H253 H 0.32066 0.95289 0.99425 0.0
H254 H 0.27806 0.95326 0.9394 0.0
H255 H 0.2987 0.92478 0.97467 0.0
H256 H 0.31888 0.00886 0.0692 0.0
H257 H 0.36364 0.03755 0.02425 0.0
H258 H 0.32876 0.03765 0.0896 0.0
H259 H 0.37276 0.06578 0.04538 0.0
H260 H 0.29028 0.93774 0.0808 0.0
H261 H 0.25818 0.94683 0.03265 0.0
H262 H 0.34517 0.05008 0.93961 0.0
H263 H 0.31239 0.04944 0.99483 0.0
Li264 Li 0.01965 0.67334 0.01801 0.0
Li265 Li 0.99597 0.64202 0.02201 0.0
Li266 Li 0.01386 0.65293 0.98763 0.0
Li267 Li 0.99168 0.66166 0.99595 0.0
C268 C 0.03803 0.65553 0.02772 0.0
N269 N 0.07022 0.66426 0.04851 0.0
C270 C 0.03793 0.64666 0.04725 0.0
C271 C 0.05451 0.66876 0.01872 0.0
C272 C 0.05435 0.65128 0.05752 0.0
C273 C 0.07064 0.67301 0.02949 0.0
C274 C 0.99443 0.66745 0.0512 0.0
C275 C 0.98707 0.68107 0.0816 0.0
N276 N 0.99526 0.67516 0.09594 0.0
C277 C 0.00274 0.66151 0.06625 0.0
C278 C 0.98651 0.6773 0.05893 0.0
C279 C 0.00303 0.66553 0.08879 0.0
C280 C 0.04027 0.71061 0.02619 0.0
N281 N 0.03683 0.69428 0.03406 0.0
C282 C 0.05475 0.70829 0.0663 0.0
C283 C 0.04393 0.6929 0.05364 0.0
C284 C 0.0582 0.7253 0.05887 0.0
C285 C 0.05103 0.7264 0.03834 0.0
H286 H 0.03418 0.7113 0.01076 0.0
H287 H 0.04081 0.67982 0.05988 0.0
C288 C 0.99065 0.60959 0.03759 0.0
N289 N 0.9848 0.62152 0.04094 0.0
C290 C 0.98504 0.5948 0.05164 0.0
C291 C 0.96684 0.60439 0.07191 0.0
C292 C 0.97274 0.61901 0.05729 0.0
C293 C 0.97322 0.5922 0.06932 0.0
H294 H 0.0002 0.61196 0.02439 0.0
H295 H 0.96808 0.62858 0.05937 0.0
C296 C 0.02703 0.6842 0.96741 0.0
N297 N 0.04723 0.69686 0.92894 0.0
C298 C 0.01844 0.68016 0.94676 0.0
C299 C 0.04587 0.69493 0.96853 0.0
C300 C 0.02889 0.68661 0.92749 0.0
C301 C 0.05585 0.70114 0.94888 0.0
C302 C 0.96909 0.6246 0.99059 0.0
C303 C 0.96212 0.60996 0.97587 0.0
C304 C 0.95744 0.62653 0.00522 0.0
C305 C 0.94356 0.59746 0.97604 0.0
C306 C 0.93897 0.61374 0.00488 0.0
N307 N 0.93247 0.59959 0.99042 0.0
C308 C 0.03775 0.64337 0.96592 0.0
C309 C 0.01178 0.63814 0.94573 0.0
C310 C 0.04197 0.63433 0.94975 0.0
N311 N 0.02269 0.64481 0.96381 0.0
C312 C 0.01552 0.62906 0.92913 0.0
C313 C 0.03051 0.62661 0.93134 0.0
H314 H 0.04601 0.64842 0.98061 0.0
H315 H -0.00034 0.63912 0.94473 0.0
C316 C 0.9716 0.67957 0.99266 0.0
N317 N 0.9751 0.66734 0.98278 0.0
C318 C 0.96009 0.68454 0.98246 0.0
C319 C 0.95617 0.66432 0.95207 0.0
C320 C 0.96762 0.65963 0.96295 0.0
C321 C 0.95236 0.67699 0.96179 0.0
H322 H 0.978 0.68568 0.00826 0.0
H323 H 0.97075 0.65001 0.95544 0.0
O324 O 0.02206 0.65129 0.01755 0.0
O325 O 0.99415 0.66383 0.029 0.0
O326 O 0.01703 0.67778 0.98644 0.0
O327 O 0.98725 0.6369 0.99056 0.0
H328 H 0.02532 0.63639 0.05451 0.0
H329 H 0.05484 0.67573 0.00363 0.0
H330 H 0.05446 0.64457 0.07268 0.0
H331 H 0.08348 0.68327 0.02273 0.0
H332 H 0.981 0.6887 0.0878 0.0
H333 H 0.00898 0.65392 0.06059 0.0
H334 H 0.97999 0.68201 0.04756 0.0
H335 H 0.00946 0.66103 0.10058 0.0
H336 H 0.06018 0.70684 0.08189 0.0
H337 H 0.05318 0.73921 0.03211 0.0
H338 H 0.9905 0.5859 0.04919 0.0
H339 H 0.95757 0.60275 0.0852 0.0
H340 H 0.00386 0.67196 0.94561 0.0
H341 H 0.05271 0.69851 0.98439 0.0
H342 H 0.02243 0.68345 0.91138 0.0
H343 H 0.07046 0.7094 0.94949 0.0
H344 H 0.97097 0.60828 0.96445 0.0
H345 H 0.96255 0.63776 0.01672 0.0
H346 H 0.93797 0.58606 0.96474 0.0
H347 H 0.9298 0.61506 0.01611 0.0
H348 H 0.05372 0.63283 0.95202 0.0
H349 H 0.00615 0.62308 0.91542 0.0
H350 H 0.9576 0.69449 0.99037 0.0
H351 H 0.95032 0.65806 0.93626 0.0
Li352 Li 0.33138 0.34816 0.01543 0.0
Li353 Li 0.36205 0.35659 0.02387 0.0
Li354 Li 0.3549 0.36422 0.98831 0.0
Li355 Li 0.34533 0.33327 0.99705 0.0
C356 C 0.34724 0.38561 0.01515 0.0
N357 N 0.33674 0.41115 0.00993 0.0
C358 C 0.35556 0.40161 0.02756 0.0
C359 C 0.33356 0.38259 9e-05 0.0
C360 C 0.35006 0.41436 0.02468 0.0
C361 C 0.32846 0.39567 0.99769 0.0
C362 C 0.33561 0.33038 0.05128 0.0
C363 C 0.32257 0.31086 0.08305 0.0
N364 N 0.32636 0.32552 0.09576 0.0
C365 C 0.33939 0.34526 0.06468 0.0
C366 C 0.32715 0.31304 0.06052 0.0
C367 C 0.33461 0.34252 0.08712 0.0
C368 C 0.29372 0.32917 0.02189 0.0
N369 N 0.30933 0.34418 0.02817 0.0
C370 C 0.29366 0.35107 0.05586 0.0
C371 C 0.30955 0.35522 0.04461 0.0
C372 C 0.27734 0.33542 0.05013 0.0
C373 C 0.27746 0.32454 0.03265 0.0
H374 H 0.29402 0.32056 0.00889 0.0
H375 H 0.32219 0.3669 0.04956 0.0
C376 C 0.39054 0.38466 0.04503 0.0
N377 N 0.38035 0.36634 0.04591 0.0
C378 C 0.40341 0.39415 0.06131 0.0
C379 C 0.39572 0.36566 0.0787 0.0
C380 C 0.38283 0.35666 0.06203 0.0
C381 C 0.40589 0.38468 0.07868 0.0
H382 H 0.38836 0.39194 0.03186 0.0
H383 H 0.37451 0.34206 0.0623 0.0
C384 C 0.32749 0.33787 0.96138 0.0
N385 N 0.32127 0.32779 0.91721 0.0
C386 C 0.34197 0.34155 0.94729 0.0
C387 C 0.30986 0.32906 0.95302 0.0
C388 C 0.33855 0.33636 0.92501 0.0
C389 C 0.30699 0.32408 0.93063 0.0
C390 C 0.38258 0.34779 0.99686 0.0
C391 C 0.39855 0.35563 0.98439 0.0
C392 C 0.37906 0.3339 0.01182 0.0
C393 C 0.41077 0.34946 0.98712 0.0
C394 C 0.39162 0.32811 0.01407 0.0
N395 N 0.40709 0.33594 0.00178 0.0
C396 C 0.38355 0.39304 0.96816 0.0
C397 C 0.35601 0.38541 0.95002 0.0
C398 C 0.39342 0.40638 0.95247 0.0
N399 N 0.36528 0.38271 0.96647 0.0
C400 C 0.36539 0.39866 0.93385 0.0
C401 C 0.3844 0.40912 0.93477 0.0
H402 H 0.39049 0.39068 0.9816 0.0
H403 H 0.34144 0.37703 0.94914 0.0
C404 C 0.32669 0.29533 0.99332 0.0
N405 N 0.34059 0.31083 0.98479 0.0
C406 C 0.32177 0.27863 0.98355 0.0
C407 C 0.3456 0.29425 0.95644 0.0
C408 C 0.35024 0.31058 0.96695 0.0
C409 C 0.3311 0.27806 0.96464 0.0
H410 H 0.31918 0.296 0.00742 0.0
H411 H 0.3613 0.3231 0.96056 0.0
O412 O 0.35256 0.37307 0.01786 0.0
O413 O 0.34002 0.3326 0.02919 0.0
O414 O 0.3304 0.34267 0.98332 0.0
O415 O 0.37054 0.35377 0.99426 0.0
H416 H 0.36613 0.40414 0.03932 0.0
H417 H 0.32689 0.3703 0.99038 0.0
H418 H 0.35638 0.4268 0.03419 0.0
H419 H 0.3179 0.39351 0.9861 0.0
H420 H 0.316 0.2975 0.09041 0.0
H421 H 0.34595 0.35879 0.05788 0.0
H422 H 0.32413 0.30137 0.05038 0.0
H423 H 0.33745 0.35392 0.09766 0.0
H424 H 0.29431 0.35969 0.06946 0.0
H425 H 0.26517 0.31247 0.0275 0.0
H426 H 0.41124 0.40879 0.06045 0.0
H427 H 0.39727 0.35791 0.09184 0.0
H428 H 0.35571 0.34832 0.95344 0.0
H429 H 0.29851 0.3261 0.96373 0.0
H430 H 0.34962 0.33911 0.91393 0.0
H431 H 0.29341 0.31724 0.92394 0.0
H432 H 0.40145 0.36638 0.97271 0.0
H433 H 0.36677 0.3276 0.02158 0.0
H434 H 0.42319 0.35541 0.97757 0.0
H435 H 0.38907 0.31738 0.02559 0.0
H436 H 0.408 0.41438 0.95411 0.0
H437 H 0.35793 0.40031 0.92044 0.0
H438 H 0.31046 0.26639 0.99025 0.0
H439 H 0.3532 0.29427 0.94201 0.0
Li440 Li 0.65184 0.97901 0.01912 0.0
Li441 Li 0.64346 0.0014 0.02615 0.0
Li442 Li 0.63771 0.98723 0.98993 0.0
Li443 Li 0.66926 0.01 0.00138 0.0
C444 C 0.61642 0.95858 0.02642 0.0
N445 N 0.59519 0.92385 0.04262 0.0
C446 C 0.60848 0.95581 0.04745 0.0
C447 C 0.61348 0.94369 0.0136 0.0
C448 C 0.59781 0.93814 0.05535 0.0
C449 C 0.60274 0.92624 0.02209 0.0
C450 C 0.67405 0.01296 0.05204 0.0
C451 C 0.69444 0.04109 0.07038 0.0
N452 N 0.68862 0.03279 0.0904 0.0
C453 C 0.66834 0.00468 0.07279 0.0
C454 C 0.68725 0.03129 0.05078 0.0
C455 C 0.67584 0.01495 0.09199 0.0
C456 C 0.66627 0.95565 0.02229 0.0
N457 N 0.65552 0.96099 0.0325 0.0
C458 C 0.65311 0.94366 0.0647 0.0
C459 C 0.64891 0.95522 0.05326 0.0
C460 C 0.66462 0.93829 0.05492 0.0
C461 C 0.671 0.94421 0.03324 0.0
H462 H 0.6717 0.9608 0.00597 0.0
H463 H 0.64079 0.96001 0.06126 0.0
C464 C 0.61369 0.00037 0.04508 0.0
N465 N 0.63198 0.00923 0.0474 0.0
C466 C 0.60298 0.00345 0.05988 0.0
C467 C 0.63014 0.02546 0.07881 0.0
C468 C 0.64036 0.02202 0.06346 0.0
C469 C 0.61113 0.01581 0.0774 0.0
H470 H 0.60735 0.99067 0.03178 0.0
H471 H 0.65492 0.02951 0.06455 0.0
C472 C 0.65937 0.97902 0.9669 0.0
N473 N 0.65755 0.96631 0.92421 0.0
C474 C 0.66701 0.99118 0.94926 0.0
C475 C 0.65096 0.96041 0.96288 0.0
C476 C 0.6659 0.98448 0.92778 0.0
C477 C 0.65014 0.95425 0.94116 0.0
C478 C 0.6417 0.02472 0.00017 0.0
C479 C 0.62428 0.01982 0.99298 0.0
C480 C 0.65186 0.04079 0.01211 0.0
C481 C 0.61731 0.03113 0.99786 0.0
C482 C 0.64438 0.05171 0.01667 0.0
N483 N 0.62741 0.0467 0.00951 0.0
C484 C 0.6045 0.96597 0.96675 0.0
C485 C 0.62743 0.99125 0.94732 0.0
C486 C 0.59199 0.96296 0.95002 0.0
N487 N 0.62176 0.98007 0.96522 0.0
C488 C 0.6154 0.98874 0.93022 0.0
C489 C 0.59728 0.97474 0.93173 0.0
H490 H 0.60013 0.95767 0.98149 0.0
H491 H 0.64106 0.00271 0.94687 0.0
C492 C 0.70359 0.02112 0.98451 0.0
N493 N 0.69229 0.02733 0.99028 0.0
C494 C 0.72009 0.0326 0.97415 0.0
C495 C 0.71337 0.05687 0.97679 0.0
C496 C 0.69682 0.04482 0.98673 0.0
C497 C 0.72506 0.05067 0.97007 0.0
H498 H 0.69952 0.00709 0.98741 0.0
H499 H 0.68746 0.04931 0.99114 0.0
O500 O 0.62705 0.97579 0.01846 0.0
O501 O 0.66709 0.0031 0.03304 0.0
O502 O 0.66016 0.98531 0.98801 0.0
O503 O 0.64858 0.01359 0.99608 0.0
H504 H 0.61075 0.96716 0.05772 0.0
H505 H 0.61946 0.94561 0.99729 0.0
H506 H 0.59167 0.9358 0.07164 0.0
H507 H 0.6004 0.9146 0.01237 0.0
H508 H 0.70462 0.0553 0.06966 0.0
H509 H 0.65812 0.99053 0.07407 0.0
H510 H 0.69186 0.03789 0.03487 0.0
H511 H 0.67148 0.00874 0.10817 0.0
H512 H 0.64761 0.93923 0.0812 0.0
H513 H 0.6801 0.94064 0.02514 0.0
H514 H 0.58843 0.9961 0.05769 0.0
H515 H 0.63702 0.0352 0.09195 0.0
H516 H 0.67352 0.00563 0.95206 0.0
H517 H 0.64521 0.95082 0.97638 0.0
H518 H 0.67165 0.99373 0.91395 0.0
H519 H 0.64364 0.93988 0.9378 0.0
H520 H 0.61616 0.00735 0.98394 0.0
H521 H 0.6652 0.04458 0.01822 0.0
H522 H 0.60382 0.02749 0.99246 0.0
H523 H 0.65203 0.06411 0.02603 0.0
H524 H 0.57808 0.95221 0.95206 0.0
H525 H 0.62007 0.99808 0.91636 0.0
H526 H 0.72882 0.02739 0.96924 0.0
H527 H 0.7167 0.07069 0.97368 0.0
Li528 Li 0.64778 0.66191 0.33718 0.0
Li529 Li 0.67734 0.67594 0.3554 0.0
Li530 Li 0.65601 0.68674 0.36329 0.0
Li531 Li 0.67144 0.69311 0.32774 0.0
C532 C 0.6372 0.65223 0.38132 0.0
N533 N 0.60566 0.63214 0.40531 0.0
C534 C 0.63725 0.64302 0.40043 0.0
C535 C 0.62112 0.65123 0.3744 0.0
C536 C 0.62116 0.63293 0.41234 0.0
C537 C 0.60532 0.64101 0.38675 0.0
C538 C 0.6866 0.67288 0.31144 0.0
C539 C 0.71831 0.69097 0.30239 0.0
N540 N 0.71646 0.67821 0.2874 0.0
C541 C 0.68498 0.65996 0.29593 0.0
C542 C 0.70337 0.68852 0.3147 0.0
C543 C 0.70025 0.6629 0.28395 0.0
C544 C 0.62123 0.64121 0.30604 0.0
N545 N 0.62964 0.64012 0.32457 0.0
C546 C 0.61514 0.60796 0.32114 0.0
C547 C 0.62673 0.62397 0.33244 0.0
C548 C 0.60667 0.6087 0.30151 0.0
C549 C 0.60955 0.62557 0.29425 0.0
H550 H 0.6241 0.65431 0.30002 0.0
H551 H 0.63392 0.62362 0.34701 0.0
C552 C 0.70358 0.68018 0.38645 0.0
N553 N 0.69445 0.67087 0.36806 0.0
C554 C 0.7155 0.67596 0.39704 0.0
C555 C 0.70838 0.65268 0.36948 0.0
C556 C 0.69656 0.65732 0.35948 0.0
C557 C 0.71795 0.66197 0.38862 0.0
H558 H 0.70134 0.69066 0.3931 0.0
H559 H 0.68886 0.64994 0.34504 0.0
C560 C 0.63629 0.69246 0.32879 0.0
N561 N 0.61799 0.71071 0.31965 0.0
C562 C 0.64575 0.71133 0.32701 0.0
C563 C 0.61754 0.68285 0.32564 0.0
C564 C 0.63626 0.72031 0.32245 0.0
C565 C 0.60853 0.69233 0.32113 0.0
C566 C 0.69456 0.71894 0.36084 0.0
C567 C 0.68865 0.73142 0.3633 0.0
C568 C 0.71306 0.72488 0.36211 0.0
C569 C 0.70138 0.7497 0.36654 0.0
C570 C 0.72537 0.74328 0.36535 0.0
N571 N 0.71932 0.75521 0.36745 0.0
C572 C 0.65995 0.70453 0.40328 0.0
C573 C 0.63232 0.69672 0.38532 0.0
C574 C 0.65649 0.71389 0.41977 0.0
N575 N 0.64816 0.6966 0.38622 0.0
C576 C 0.62828 0.70591 0.40151 0.0
C577 C 0.64063 0.71496 0.41881 0.0
H578 H 0.6724 0.70412 0.40363 0.0
H579 H 0.62295 0.68997 0.37189 0.0
C580 C 0.66927 0.70294 0.28503 0.0
N581 N 0.68014 0.70924 0.30316 0.0
C582 C 0.67242 0.71418 0.2668 0.0
C583 C 0.69853 0.73793 0.28574 0.0
C584 C 0.69489 0.72618 0.30362 0.0
C585 C 0.6869 0.73212 0.26727 0.0
H586 H 0.65768 0.68936 0.28514 0.0
H587 H 0.70347 0.73087 0.31808 0.0
O588 O 0.65289 0.66222 0.3696 0.0
O589 O 0.67177 0.67014 0.32332 0.0
O590 O 0.64529 0.68333 0.33314 0.0
O591 O 0.68234 0.70093 0.35776 0.0
H592 H 0.64961 0.64368 0.40601 0.0
H593 H 0.62081 0.65825 0.35967 0.0
H594 H 0.621 0.62573 0.42717 0.0
H595 H 0.59278 0.64013 0.38159 0.0
H596 H 0.73138 0.70302 0.30475 0.0
H597 H 0.67206 0.64778 0.29323 0.0
H598 H 0.70481 0.69865 0.32654 0.0
H599 H 0.69921 0.653 0.27191 0.0
H600 H 0.61346 0.59527 0.32717 0.0
H601 H 0.60311 0.62672 0.27936 0.0
H602 H 0.72236 0.68326 0.41196 0.0
H603 H 0.70999 0.64194 0.36229 0.0
H604 H 0.66027 0.71897 0.32891 0.0
H605 H 0.61 0.66823 0.32678 0.0
H606 H 0.64342 0.73491 0.32105 0.0
H607 H 0.59401 0.68507 0.31878 0.0
H608 H 0.6744 0.72707 0.36294 0.0
H609 H 0.71789 0.7154 0.36057 0.0
H610 H 0.69699 0.7595 0.3684 0.0
H611 H 0.73972 0.74807 0.36623 0.0
H612 H 0.6665 0.7208 0.43262 0.0
H613 H 0.61573 0.70609 0.40035 0.0
H614 H 0.6633 0.70902 0.25276 0.0
H615 H 0.70978 0.75168 0.28688 0.0
Li616 Li 0.30326 0.98539 0.32865 0.0
Li617 Li 0.31192 0.9763 0.36287 0.0
Li618 Li 0.32328 0.00893 0.3558 0.0
Li619 Li 0.33545 0.99259 0.3357 0.0
C620 C 0.28505 0.99399 0.36226 0.0
N621 N 0.25958 0.0046 0.36737 0.0
C622 C 0.27005 0.98414 0.37604 0.0
C623 C 0.28717 0.00931 0.35123 0.0
C624 C 0.25729 0.98969 0.37836 0.0
C625 C 0.27414 0.01444 0.354 0.0
C626 C 0.30599 0.95055 0.33357 0.0
C627 C 0.30921 0.92477 0.34216 0.0
N628 N 0.29128 0.9136 0.338 0.0
C629 C 0.28764 0.93882 0.32916 0.0
C630 C 0.31692 0.94349 0.33992 0.0
C631 C 0.28045 0.92018 0.33157 0.0
C632 C 0.28923 0.97369 0.28623 0.0
N633 N 0.28486 0.97718 0.30664 0.0
C634 C 0.25376 0.96368 0.29628 0.0
C635 C 0.26759 0.97265 0.31176 0.0
C636 C 0.25765 0.95896 0.27547 0.0
C637 C 0.27577 0.96454 0.27029 0.0
H638 H 0.30304 0.97716 0.28277 0.0
H639 H 0.26426 0.97514 0.32816 0.0
C640 C 0.31151 0.95552 0.40083 0.0
N641 N 0.30181 0.9576 0.3844 0.0
C642 C 0.30281 0.94145 0.41625 0.0
C643 C 0.2745 0.9321 0.39736 0.0
C644 C 0.28366 0.94637 0.38257 0.0
C645 C 0.28407 0.92947 0.41447 0.0
H646 H 0.32591 0.96481 0.40209 0.0
H647 H 0.27627 0.94858 0.36956 0.0
C648 C 0.33105 0.02249 0.30965 0.0
N649 N 0.34041 0.0513 0.28132 0.0
C650 C 0.34926 0.03471 0.30498 0.0
C651 C 0.3176 0.02474 0.29955 0.0
C652 C 0.35372 0.04924 0.29073 0.0
C653 C 0.3226 0.03944 0.28537 0.0
C654 C 0.35304 0.00139 0.3756 0.0
C655 C 0.36526 0.01893 0.38288 0.0
C656 C 0.35808 0.98816 0.37579 0.0
C657 C 0.38247 0.02301 0.38998 0.0
C658 C 0.37541 0.99278 0.38298 0.0
N659 N 0.38715 0.00997 0.38986 0.0
C660 C 0.3204 0.03092 0.38813 0.0
C661 C 0.34334 0.04718 0.3614 0.0
C662 C 0.3248 0.04691 0.39933 0.0
N663 N 0.32952 0.03137 0.36941 0.0
C664 C 0.34828 0.06351 0.37216 0.0
C665 C 0.33892 0.06348 0.39137 0.0
H666 H 0.30985 0.0181 0.39453 0.0
H667 H 0.35076 0.04712 0.34694 0.0
C668 C 0.35438 0.98344 0.30506 0.0
N669 N 0.35647 0.99551 0.32114 0.0
C670 C 0.36928 0.98589 0.29266 0.0
C671 C 0.38823 0.01295 0.31397 0.0
C672 C 0.37294 0.01011 0.32569 0.0
C673 C 0.38652 0.00089 0.29696 0.0
H674 H 0.34105 0.97213 0.3015 0.0
H675 H 0.37417 0.01982 0.33809 0.0
O676 O 0.29765 0.98872 0.35986 0.0
O677 O 0.31322 0.96886 0.3317 0.0
O678 O 0.32641 0.00796 0.32323 0.0
O679 O 0.33619 0.9972 0.36849 0.0
H680 H 0.26826 0.97231 0.38482 0.0
H681 H 0.29886 0.01727 0.34087 0.0
H682 H 0.24558 0.98216 0.38891 0.0
H683 H 0.27563 0.02629 0.34556 0.0
H684 H 0.31749 0.91911 0.34718 0.0
H685 H 0.27899 0.94406 0.3242 0.0
H686 H 0.33119 0.95238 0.3431 0.0
H687 H 0.26623 0.91095 0.32839 0.0
H688 H 0.24004 0.95988 0.3009 0.0
H689 H 0.27939 0.96099 0.2546 0.0
H690 H 0.31063 0.93988 0.42926 0.0
H691 H 0.25999 0.9234 0.39568 0.0
H692 H 0.35985 0.0331 0.31245 0.0
H693 H 0.30342 0.01516 0.30245 0.0
H694 H 0.36776 0.05888 0.28713 0.0
H695 H 0.31233 0.04137 0.27752 0.0
H696 H 0.36154 0.0293 0.38296 0.0
H697 H 0.34875 0.97452 0.37032 0.0
H698 H 0.3921 0.03655 0.39556 0.0
H699 H 0.37954 0.98271 0.3831 0.0
H700 H 0.3175 0.04625 0.41435 0.0
H701 H 0.35927 0.076 0.36552 0.0
H702 H 0.36718 0.97641 0.27947 0.0
H703 H 0.40122 0.02455 0.31816 0.0
Li704 Li 0.02094 0.3287 0.3207 0.0
Li705 Li 0.02889 0.34504 0.35588 0.0
Li706 Li 0.99722 0.32154 0.34782 0.0
Li707 Li 0.01109 0.35052 0.32862 0.0
C708 C 0.03203 0.31428 0.35474 0.0
N709 N 0.05896 0.30617 0.363 0.0
C710 C 0.04962 0.32569 0.34693 0.0
C711 C 0.02814 0.29876 0.36674 0.0
C712 C 0.06304 0.32135 0.35128 0.0
C713 C 0.04194 0.29488 0.37074 0.0
C714 C 0.05079 0.372 0.3241 0.0
C715 C 0.06551 0.40404 0.33156 0.0
N716 N 0.08073 0.40634 0.32134 0.0
C717 C 0.06654 0.37467 0.31354 0.0
C718 C 0.05022 0.38679 0.33309 0.0
C719 C 0.08155 0.39214 0.31237 0.0
C720 C 0.03728 0.33176 0.28008 0.0
N721 N 0.03001 0.32034 0.2976 0.0
C722 C 0.04016 0.30095 0.283 0.0
C723 C 0.03076 0.30485 0.29904 0.0
C724 C 0.04872 0.31306 0.26533 0.0
C725 C 0.04666 0.32834 0.26363 0.0
H726 H 0.03634 0.34392 0.27936 0.0
H727 H 0.02475 0.29593 0.3131 0.0
C728 C 0.03943 0.34527 0.39916 0.0
N729 N 0.04604 0.35383 0.37946 0.0
C730 C 0.05115 0.34797 0.41672 0.0
C731 C 0.0762 0.36898 0.3938 0.0
C732 C 0.06401 0.36577 0.3766 0.0
C733 C 0.06985 0.35962 0.41396 0.0
H734 H 0.02511 0.33565 0.40082 0.0
H735 H 0.06908 0.37209 0.36071 0.0
C736 C 0.98589 0.3097 0.30482 0.0
N737 N 0.96437 0.27718 0.28329 0.0
C738 C 0.97526 0.30888 0.28677 0.0
C739 C 0.98557 0.29397 0.31193 0.0
C740 C 0.96447 0.29231 0.2761 0.0
C741 C 0.97461 0.27767 0.30082 0.0
C742 C 0.00254 0.35665 0.37313 0.0
C743 C 0.9845 0.35124 0.37789 0.0
C744 C 0.0164 0.373 0.38166 0.0
C745 C 0.9806 0.36255 0.39062 0.0
C746 C 0.01195 0.38393 0.39433 0.0
N747 N 0.99429 0.37853 0.39849 0.0
C748 C 0.97703 0.29497 0.37932 0.0
C749 C 0.95933 0.30058 0.35378 0.0
C750 C 0.96153 0.28265 0.39089 0.0
N751 N 0.97564 0.30368 0.36127 0.0
C752 C 0.94345 0.28835 0.36485 0.0
C753 C 0.94446 0.27935 0.38384 0.0
H754 H 0.99024 0.29788 0.38494 0.0
H755 H 0.95872 0.30793 0.33952 0.0
C756 C 0.0165 0.37595 0.29624 0.0
N757 N 0.00656 0.36777 0.3147 0.0
C758 C 0.01325 0.38787 0.28405 0.0
C759 C 0.98943 0.38263 0.30993 0.0
C760 C 0.99316 0.37079 0.32165 0.0
C761 C -0.00054 0.39124 0.29075 0.0
H762 H 0.02679 0.37297 0.29078 0.0
H763 H 0.98502 0.36366 0.33589 0.0
O764 O 0.01867 0.31834 0.351 0.0
O765 O 0.03601 0.35496 0.32536 0.0
O766 O 0.99649 0.32586 0.31537 0.0
O767 O 0.00659 0.34562 0.36096 0.0
H768 H 0.05291 0.33776 0.33762 0.0
H769 H 0.01459 0.2898 0.37292 0.0
H770 H 0.07671 0.33007 0.34535 0.0
H771 H 0.03912 0.28291 0.38001 0.0
H772 H 0.06525 0.41562 0.33846 0.0
H773 H 0.06718 0.36336 0.30644 0.0
H774 H 0.03806 0.385 0.34098 0.0
H775 H 0.09386 0.39441 0.30434 0.0
H776 H 0.04147 0.28907 0.28505 0.0
H777 H 0.0527 0.33784 0.25006 0.0
H778 H 0.0457 0.34057 0.43205 0.0
H779 H 0.09055 0.37786 0.39088 0.0
H780 H 0.97536 0.32094 0.28108 0.0
H781 H 0.99365 0.29428 0.32588 0.0
H782 H 0.95617 0.29149 0.2621 0.0
H783 H 0.97424 0.2654 0.30615 0.0
H784 H 0.97363 0.3385 0.37166 0.0
H785 H 0.03045 0.37714 0.37872 0.0
H786 H 0.9667 0.3586 0.39428 0.0
H787 H 0.02254 0.39666 0.40096 0.0
H788 H 0.9629 0.27583 0.40525 0.0
H789 H 0.9306 0.28637 0.35901 0.0
H790 H 0.02141 0.39432 0.26948 0.0
H791 H 0.97846 0.38459 0.31544 0.0
Li792 Li 0.6788 -0.00028 0.35049 0.0
Li793 Li 0.65597 0.96908 0.36012 0.0
Li794 Li 0.67165 0.97459 0.32406 0.0
Li795 Li 0.64961 0.98386 0.33087 0.0
C796 C 0.69993 0.98316 0.35293 0.0
N797 N 0.7358 0.99234 0.34951 0.0
C798 C 0.70662 0.97436 0.36602 0.0
C799 C 0.71147 0.99662 0.33806 0.0
C800 C 0.7248 0.9792 0.36406 0.0
C801 C 0.72956 0.00106 0.33658 0.0
C802 C 0.64644 0.98886 0.38276 0.0
C803 C 0.61988 0.9774 0.40595 0.0
N804 N 0.63062 0.98277 0.42428 0.0
C805 C 0.65723 0.99442 0.4018 0.0
C806 C 0.62763 0.98042 0.38481 0.0
C807 C 0.64897 0.99116 0.42265 0.0
C808 C 0.69855 0.03779 0.35543 0.0
N809 N 0.69687 0.022 0.3628 0.0
C810 C 0.71966 0.03773 0.39024 0.0
C811 C 0.70706 0.02167 0.37989 0.0
C812 C 0.72173 0.0543 0.38304 0.0
C813 C 0.71102 0.05421 0.36531 0.0
H814 H 0.68997 0.0376 0.34218 0.0
H815 H 0.70508 0.00887 0.38586 0.0
C816 C 0.63166 0.93681 0.38409 0.0
N817 N 0.64777 0.95261 0.38444 0.0
C818 C 0.62731 0.92402 0.40091 0.0
C819 C 0.656 0.9442 0.41838 0.0
C820 C 0.65979 0.95657 0.40123 0.0
C821 C 0.63972 0.9275 0.41815 0.0
H822 H 0.62246 0.93381 0.3704 0.0
H823 H 0.67264 0.9691 0.40086 0.0
C824 C 0.67278 0.00331 0.29653 0.0
N825 N 0.66892 0.01269 0.25383 0.0
C826 C 0.6654 0.99012 0.2799 0.0
C827 C 0.67819 0.02128 0.29142 0.0
C828 C 0.66357 0.99513 0.25842 0.0
C829 C 0.67613 0.02575 0.26974 0.0
C830 C 0.6292 0.94811 0.32113 0.0
C831 C 0.62806 0.93986 0.30065 0.0
C832 C 0.61339 0.94542 0.33153 0.0
C833 C 0.61111 0.92914 0.29085 0.0
C834 C 0.5967 0.93462 0.32118 0.0
N835 N 0.59591 0.92678 0.30122 0.0
C836 C 0.67341 0.94599 0.30624 0.0
C837 C 0.69292 0.97337 0.28735 0.0
C838 C 0.67709 0.9361 0.29086 0.0
N839 N 0.68084 0.96415 0.30383 0.0
C840 C 0.69708 0.96397 0.27154 0.0
C841 C 0.68867 0.94502 0.27289 0.0
H842 H 0.66403 0.93911 0.31971 0.0
H843 H 0.69878 0.98788 0.286 0.0
C844 C 0.62748 -0.00046 0.32649 0.0
N845 N 0.63196 0.98796 0.31668 0.0
C846 C 0.61543 0.00373 0.31611 0.0
C847 C 0.61282 0.98402 0.28576 0.0
C848 C 0.62492 0.98028 0.29665 0.0
C849 C 0.60794 0.99591 0.29545 0.0
H850 H 0.63344 0.00567 0.34228 0.0
H851 H 0.62887 0.97143 0.28886 0.0
O852 O 0.68213 0.97849 0.35466 0.0
O853 O 0.65426 0.99159 0.36223 0.0
O854 O 0.6746 0.99867 0.31772 0.0
O855 O 0.6457 0.95873 0.33093 0.0
H856 H 0.69784 0.96389 0.37758 0.0
H857 H 0.70655 0.00359 0.32778 0.0
H858 H 0.73017 0.97251 0.3741 0.0
H859 H 0.73864 0.01145 0.32516 0.0
H860 H 0.60533 0.97082 0.40779 0.0
H861 H 0.6718 0.00098 0.40051 0.0
H862 H 0.6191 0.97628 0.37023 0.0
H863 H 0.65714 0.99525 0.43754 0.0
H864 H 0.72732 0.03709 0.40416 0.0
H865 H 0.71221 0.06667 0.35917 0.0
H866 H 0.61455 0.91137 0.40016 0.0
H867 H 0.66611 0.94737 0.43109 0.0
H868 H 0.66079 0.97609 0.28359 0.0
H869 H 0.68392 0.03169 0.30403 0.0
H870 H 0.65779 0.98502 0.24544 0.0
H871 H 0.68026 0.03961 0.26557 0.0
H872 H 0.64012 0.94184 0.29225 0.0
H873 H 0.61402 0.95172 0.34732 0.0
H874 H 0.61004 0.92275 0.27496 0.0
H875 H 0.58438 0.93251 0.32901 0.0
H876 H 0.67063 0.92155 0.29273 0.0
H877 H 0.70613 0.97131 0.25794 0.0
H878 H 0.61195 0.01291 0.3242 0.0
H879 H 0.60765 0.97795 0.26967 0.0
Li880 Li 0.03025 0.68474 0.36339 0.0
Li881 Li 0.99854 0.67431 0.35751 0.0
Li882 Li 0.01318 0.66136 0.33455 0.0
Li883 Li 0.01944 0.69208 0.32916 0.0
C884 C 0.00365 0.65312 0.38841 0.0
N885 N 0.99117 0.63986 0.43054 0.0
C886 C 0.00827 0.66498 0.40641 0.0
C887 C 0.9927 0.6345 0.39185 0.0
C888 C 0.00183 0.65803 0.42757 0.0
C889 C 0.98652 0.62806 0.41327 0.0
C890 C 0.01263 0.70873 0.37256 0.0
C891 C 0.99282 0.72092 0.37782 0.0
N892 N -0.00018 0.72664 0.39846 0.0
C893 C 0.01974 0.71488 0.39377 0.0
C894 C -0.00083 0.7119 0.36444 0.0
C895 C 0.01305 0.72386 0.40663 0.0
C896 C 0.06137 0.71278 0.38065 0.0
N897 N 0.05015 0.69471 0.38332 0.0
C898 C 0.06742 0.69441 0.41434 0.0
C899 C 0.05307 0.6853 0.3994 0.0
C900 C 0.07896 0.71321 0.41229 0.0
C901 C 0.07592 0.72235 0.39498 0.0
H902 H 0.0587 0.71984 0.36764 0.0
H903 H 0.04411 0.67084 0.40089 0.0
C904 C 0.96067 0.65707 0.36046 0.0
N905 N 0.97612 0.66785 0.37195 0.0
C906 C 0.94378 0.65132 0.37015 0.0
C907 C 0.95897 0.6677 0.40345 0.0
C908 C 0.97554 0.67317 0.39309 0.0
C909 C 0.94279 0.65661 0.39197 0.0
H910 H 0.96147 0.65278 0.34379 0.0
H911 H 0.98791 0.68164 0.40204 0.0
C912 C 0.05095 0.67988 0.3316 0.0
N913 N 0.07887 0.6724 0.33125 0.0
C914 C 0.06614 0.68997 0.31819 0.0
C915 C 0.04996 0.66599 0.34486 0.0
C916 C 0.08011 0.68598 0.31823 0.0
C917 C 0.06421 0.66242 0.34444 0.0
C918 C 0.99027 0.67273 0.30587 0.0
C919 C 0.99471 0.66786 0.28565 0.0
C920 C 0.98014 0.68144 0.30601 0.0
C921 C 0.98916 0.67206 0.26585 0.0
C922 C 0.97483 0.6854 0.28585 0.0
N923 N 0.97944 0.68069 0.26636 0.0
C924 C 0.99577 0.62407 0.32502 0.0
C925 C 0.02035 0.6425 0.30118 0.0
C926 C 0.99182 0.60868 0.31264 0.0
N927 N 0.00981 0.64052 0.3191 0.0
C928 C 0.01683 0.6275 0.28825 0.0
C929 C 0.00229 0.61034 0.29381 0.0
H930 H 0.98729 0.62301 0.33894 0.0
H931 H 0.03115 0.65581 0.29651 0.0
C932 C 0.02665 0.72586 0.31075 0.0
N933 N 0.02671 0.7102 0.30693 0.0
C934 C 0.03444 0.73997 0.29534 0.0
C935 C 0.04162 0.72132 0.27209 0.0
C936 C 0.0338 0.70763 0.28799 0.0
C937 C 0.04238 0.73792 0.27591 0.0
H938 H 0.02123 0.72769 0.32611 0.0
H939 H 0.03401 0.69518 0.28564 0.0
O940 O 0.00979 0.65966 0.36752 0.0
O941 O 0.01899 0.69988 0.35975 0.0
O942 O 0.03723 0.68373 0.33175 0.0
O943 O 0.99589 0.66906 0.32541 0.0
H944 H 0.0166 0.67942 0.40404 0.0
H945 H 0.98902 0.62509 0.37817 0.0
H946 H 0.00526 0.66709 0.44161 0.0
H947 H 0.97803 0.61367 0.41617 0.0
H948 H 0.98231 0.72335 0.37179 0.0
H949 H 0.03026 0.71268 0.40029 0.0
H950 H 0.99359 0.70735 0.34805 0.0
H951 H 0.01836 0.7286 0.4231 0.0
H952 H 0.06943 0.68688 0.42736 0.0
H953 H 0.08433 0.73686 0.39297 0.0
H954 H 0.93163 0.6426 0.3608 0.0
H955 H 0.95884 0.67229 0.42019 0.0
H956 H 0.0671 0.70078 0.30785 0.0
H957 H 0.03832 0.65803 0.35535 0.0
H958 H 0.09194 0.69367 0.30792 0.0
H959 H 0.06363 0.65172 0.35461 0.0
H960 H 0.00253 0.6611 0.28524 0.0
H961 H 0.97636 0.68506 0.3215 0.0
H962 H 0.99262 0.6685 0.25007 0.0
H963 H 0.96704 0.6922 0.28571 0.0
H964 H 0.98031 0.59575 0.31727 0.0
H965 H 0.02529 0.62934 0.27394 0.0
H966 H 0.03471 0.75254 0.29888 0.0
H967 H 0.04786 0.71927 0.25754 0.0
Li968 Li 0.31417 0.34037 0.3631 0.0
Li969 Li 0.32334 0.31797 0.35578 0.0
Li970 Li 0.33773 0.3477 0.33489 0.0
Li971 Li 0.30667 0.32389 0.32672 0.0
C972 C 0.34609 0.35239 0.38633 0.0
N973 N 0.36134 0.37095 0.4253 0.0
C974 C 0.34258 0.34303 0.40641 0.0
C975 C 0.35769 0.37115 0.38601 0.0
C976 C 0.35031 0.35267 0.42595 0.0
C977 C 0.36518 0.3803 0.4059 0.0
C978 C 0.286 0.29636 0.36184 0.0
C979 C 0.27136 0.2646 0.35259 0.0
N980 N 0.26146 0.26059 0.37161 0.0
C981 C 0.27558 0.29193 0.38121 0.0
C982 C 0.28379 0.2826 0.34735 0.0
C983 C 0.26329 0.27376 0.38589 0.0
C984 C 0.29916 0.36069 0.38237 0.0
N985 N 0.30457 0.34843 0.38615 0.0
C986 C 0.29174 0.34262 0.4226 0.0
C987 C 0.30122 0.33959 0.40586 0.0
C988 C 0.28552 0.3548 0.41895 0.0
C989 C 0.28971 0.36422 0.39872 0.0
H990 H 0.30136 0.36707 0.36633 0.0
H991 H 0.30514 0.32949 0.4082 0.0
C992 C 0.3417 0.29859 0.36212 0.0
N993 N 0.32819 0.30108 0.37001 0.0
C994 C 0.3468 0.28771 0.37372 0.0
C995 C 0.32384 0.28206 0.40115 0.0
C996 C 0.31923 0.29305 0.38907 0.0
C997 C 0.33798 0.27948 0.3937 0.0
H998 H 0.34885 0.30547 0.34715 0.0
H999 H 0.30891 0.29566 0.39533 0.0
C1000 C 0.32019 0.36708 0.32647 0.0
N1001 N 0.32975 0.40181 0.3136 0.0
C1002 C 0.31333 0.36993 0.3068 0.0
C1003 C 0.33178 0.38188 0.33967 0.0
C1004 C 0.31836 0.38759 0.30055 0.0
C1005 C 0.33649 0.39933 0.33287 0.0
C1006 C 0.32915 0.31356 0.30505 0.0
C1007 C 0.33571 0.32277 0.28497 0.0
C1008 C 0.32302 0.29501 0.30605 0.0
C1009 C 0.33548 0.31316 0.26605 0.0
C1010 C 0.32303 0.28588 0.28678 0.0
N1011 N 0.32918 0.29506 0.26733 0.0
C1012 C 0.37563 0.36949 0.32969 0.0
C1013 C 0.35819 0.3727 0.30145 0.0
C1014 C 0.39165 0.38108 0.31836 0.0
N1015 N 0.35936 0.36549 0.32102 0.0
C1016 C 0.3738 0.3844 0.28964 0.0
C1017 C 0.39083 0.3885 0.29787 0.0
H1018 H 0.37612 0.36324 0.34507 0.0
H1019 H 0.34508 0.36891 0.29458 0.0
C1020 C 0.2717 0.30327 0.30659 0.0
N1021 N 0.28959 0.3151 0.30303 0.0
C1022 C 0.25913 0.29936 0.28961 0.0
C1023 C 0.28364 0.31979 0.26561 0.0
C1024 C 0.29571 0.32319 0.28297 0.0
C1025 C 0.26503 0.30804 0.26898 0.0
H1026 H 0.267 0.29756 0.32289 0.0
H1027 H 0.30987 0.33309 0.28082 0.0
O1028 O 0.3387 0.34316 0.36701 0.0
O1029 O 0.29832 0.31406 0.35718 0.0
O1030 O 0.31568 0.3499 0.33262 0.0
O1031 O 0.3294 0.32278 0.32379 0.0
H1032 H 0.33389 0.32849 0.40694 0.0
H1033 H 0.36104 0.37857 0.37056 0.0
H1034 H 0.34756 0.3456 0.44163 0.0
H1035 H 0.37412 0.39483 0.40589 0.0
H1036 H 0.26953 0.25383 0.34151 0.0
H1037 H 0.27699 0.30239 0.39255 0.0
H1038 H 0.29143 0.28584 0.33208 0.0
H1039 H 0.2552 0.27014 0.40087 0.0
H1040 H 0.2888 0.33508 0.43796 0.0
H1041 H 0.28486 0.37346 0.39508 0.0
H1042 H 0.35793 0.28629 0.36752 0.0
H1043 H 0.31654 0.27583 0.41632 0.0
H1044 H 0.30424 0.35864 0.29643 0.0
H1045 H 0.33693 0.37987 0.35509 0.0
H1046 H 0.3132 0.38999 0.28533 0.0
H1047 H 0.34547 0.4109 0.34294 0.0
H1048 H 0.34081 0.33717 0.28394 0.0
H1049 H 0.31845 0.28774 0.32157 0.0
H1050 H 0.34036 0.32011 0.25036 0.0
H1051 H 0.31824 0.27151 0.28731 0.0
H1052 H 0.40444 0.38367 0.32519 0.0
H1053 H 0.37251 0.38996 0.27408 0.0
H1054 H 0.24486 0.29051 0.29302 0.0
H1055 H 0.28873 0.32678 0.24997 0.0
Li1056 Li 0.31805 0.99858 0.6688 0.0
Li1057 Li 0.34607 0.01035 0.68801 0.0
Li1058 Li 0.32589 0.02232 0.69471 0.0
Li1059 Li 0.34141 0.02839 0.65925 0.0
C1060 C 0.30538 0.98812 0.71218 0.0
N1061 N 0.27289 0.96908 0.73467 0.0
C1062 C 0.30429 0.97852 0.73142 0.0
C1063 C 0.28995 0.98805 0.70437 0.0
C1064 C 0.28774 0.96897 0.74256 0.0
C1065 C 0.27366 0.97834 0.71597 0.0
C1066 C 0.33814 0.99117 0.6427 0.0
C1067 C 0.33124 0.97653 0.60687 0.0
N1068 N 0.32827 0.96094 0.61665 0.0
C1069 C 0.33515 0.97503 0.65237 0.0
C1070 C 0.33629 0.99198 0.61974 0.0
C1071 C 0.33013 0.95988 0.63893 0.0
C1072 C 0.29202 0.97863 0.6363 0.0
N1073 N 0.29892 0.97706 0.65592 0.0
C1074 C 0.28125 0.94479 0.65409 0.0
C1075 C 0.29359 0.96062 0.66514 0.0
C1076 C 0.27428 0.94595 0.63345 0.0
C1077 C 0.27957 0.96316 0.62473 0.0
H1078 H 0.29671 0.9919 0.62927 0.0
H1079 H 0.29947 0.95977 0.68066 0.0
C1080 C 0.36606 0.01019 0.72414 0.0
N1081 N 0.36302 0.00571 0.70229 0.0
C1082 C 0.37821 0.00708 0.73608 0.0
C1083 C 0.38377 0.99471 0.70278 0.0
C1084 C 0.37175 0.99837 0.69138 0.0
C1085 C 0.38706 0.99908 0.72541 0.0
H1086 H 0.35898 0.01613 0.73227 0.0
H1087 H 0.3694 0.99535 0.67386 0.0
C1088 C 0.3126 0.03418 0.66084 0.0
N1089 N 0.30697 0.06278 0.65259 0.0
C1090 C 0.32491 0.05153 0.66867 0.0
C1091 C 0.29745 0.03139 0.64881 0.0
C1092 C 0.32182 0.0658 0.66433 0.0
C1093 C 0.29483 0.04602 0.64482 0.0
C1094 C 0.37067 0.04733 0.68918 0.0
C1095 C 0.3789 0.0624 0.7032 0.0
C1096 C 0.38135 0.0436 0.67493 0.0
C1097 C 0.39771 0.07356 0.7027 0.0
C1098 C 0.40011 0.05508 0.67494 0.0
N1099 N 0.40784 0.0697 0.6887 0.0
C1100 C 0.32993 0.04078 0.73434 0.0
C1101 C 0.30221 0.03237 0.71618 0.0
C1102 C 0.32604 0.0498 0.75086 0.0
N1103 N 0.31819 0.03253 0.71733 0.0
C1104 C 0.29778 0.04126 0.73235 0.0
C1105 C 0.30989 0.05032 0.74986 0.0
H1106 H 0.34252 0.04064 0.73481 0.0
H1107 H 0.29305 0.02562 0.70252 0.0
C1108 C 0.34124 0.04042 0.6165 0.0
N1109 N 0.35091 0.04569 0.63568 0.0
C1110 C 0.34505 0.05284 0.5994 0.0
C1111 C 0.36897 0.07587 0.62188 0.0
C1112 C 0.36465 0.06302 0.63859 0.0
C1113 C 0.35885 0.07092 0.60216 0.0
H1114 H 0.32995 0.02676 0.61494 0.0
H1115 H 0.37167 0.06723 0.65423 0.0
O1116 O 0.32157 0.99757 0.70124 0.0
O1117 O 0.34262 0.00601 0.65567 0.0
O1118 O 0.31537 0.01995 0.66452 0.0
O1119 O 0.35228 0.03618 0.68975 0.0
H1120 H 0.31613 0.97846 0.73769 0.0
H1121 H 0.29048 0.99536 0.68951 0.0
H1122 H 0.2867 0.96147 0.75748 0.0
H1123 H 0.26161 0.97817 0.71012 0.0
H1124 H 0.32967 0.97694 0.5891 0.0
H1125 H 0.33627 0.97408 0.67015 0.0
H1126 H 0.33869 0.00437 0.61194 0.0
H1127 H 0.32759 0.94726 0.64624 0.0
H1128 H 0.2774 0.93179 0.66145 0.0
H1129 H 0.27467 0.96464 0.60876 0.0
H1130 H 0.38039 0.01056 0.75355 0.0
H1131 H 0.39056 0.98873 0.69399 0.0
H1132 H 0.33675 0.05402 0.67797 0.0
H1133 H 0.28783 0.01806 0.64258 0.0
H1134 H 0.33124 0.07929 0.67027 0.0
H1135 H 0.28316 0.04406 0.63552 0.0
H1136 H 0.37083 0.06545 0.71434 0.0
H1137 H 0.37526 0.03203 0.66395 0.0
H1138 H 0.40426 0.08528 0.71344 0.0
H1139 H 0.40854 0.05237 0.66401 0.0
H1140 H 0.33587 0.05677 0.76389 0.0
H1141 H 0.28508 0.04114 0.73108 0.0
H1142 H 0.3369 0.04846 0.58447 0.0
H1143 H 0.37944 0.08975 0.62491 0.0
Li1144 Li 0.00067 0.32177 0.66648 0.0
Li1145 Li 0.98652 0.33584 0.68447 0.0
Li1146 Li 0.97725 0.30536 0.69583 0.0
Li1147 Li 0.96891 0.31212 0.65735 0.0
C1148 C 0.01187 0.34062 0.71305 0.0
N1149 N 0.0315 0.36909 0.7419 0.0
C1150 C 0.02575 0.35717 0.70501 0.0
C1151 C 0.00819 0.33845 0.73581 0.0
C1152 C 0.03545 0.37143 0.71984 0.0
C1153 C 0.01822 0.35302 0.75012 0.0
C1154 C 0.99832 0.35003 0.63862 0.0
C1155 C 0.99542 0.36851 0.61057 0.0
N1156 N 0.01372 0.37949 0.61039 0.0
C1157 C 0.01712 0.36139 0.63799 0.0
C1158 C 0.98738 0.3535 0.62466 0.0
C1159 C 0.02463 0.37626 0.62367 0.0
C1160 C 0.02094 0.32139 0.63037 0.0
N1161 N 0.022 0.32506 0.65247 0.0
C1162 C 0.05363 0.33515 0.65261 0.0
C1163 C 0.03784 0.33169 0.66376 0.0
C1164 C 0.05288 0.33141 0.62981 0.0
C1165 C 0.03627 0.32427 0.6187 0.0
H1166 H 0.0082 0.31643 0.6218 0.0
H1167 H 0.03827 0.33452 0.68132 0.0
C1168 C 0.98296 0.3563 0.71813 0.0
N1169 N 0.98981 0.35786 0.69732 0.0
C1170 C 0.9857 0.37161 0.72972 0.0
C1171 C 0.00258 0.38999 0.69833 0.0
C1172 C -0.00064 0.37426 0.68724 0.0
C1173 C 0.99578 0.38875 0.7199 0.0
H1174 H 0.97576 0.34316 0.72597 0.0
H1175 H 0.00485 0.37529 0.67084 0.0
C1176 C 0.98674 0.28672 0.65807 0.0
N1177 N 0.00345 0.26841 0.64227 0.0
C1178 C 0.98274 0.27911 0.63682 0.0
C1179 C -0.00086 0.28494 0.67135 0.0
C1180 C 0.99135 0.26991 0.62912 0.0
C1181 C 0.00748 0.27566 0.66304 0.0
C1182 C 0.95007 0.32202 0.69081 0.0
C1183 C 0.93924 0.31748 0.70982 0.0
C1184 C 0.94947 0.33374 0.67514 0.0
C1185 C 0.92806 0.32487 0.7129 0.0
C1186 C 0.93812 0.34085 0.67882 0.0
N1187 N 0.92774 0.33632 0.69748 0.0
C1188 C 0.96225 0.29299 0.73778 0.0
C1189 C 0.9645 0.27098 0.71616 0.0
C1190 C 0.95276 0.28023 0.75428 0.0
N1191 N 0.96768 0.28812 0.71908 0.0
C1192 C 0.95514 0.25778 0.73234 0.0
C1193 C 0.9488 0.26228 0.75147 0.0
H1194 H 0.96475 0.30667 0.7395 0.0
H1195 H 0.96859 0.26735 0.70091 0.0
C1196 C 0.95649 0.30196 0.6137 0.0
N1197 N 0.95118 0.30261 0.6348 0.0
C1198 C 0.94358 0.29277 0.5972 0.0
C1199 C 0.92007 0.28605 0.62425 0.0
C1200 C 0.93341 0.29515 0.64026 0.0
C1201 C 0.92504 0.28427 0.60251 0.0
H1202 H 0.97075 0.30792 0.60995 0.0
H1203 H 0.92956 0.29571 0.65722 0.0
O1204 O 0.00189 0.32665 0.69871 0.0
O1205 O 0.99065 0.33524 0.65228 0.0
O1206 O 0.97884 0.2962 0.6657 0.0
O1207 O 0.96136 0.3152 0.68765 0.0
H1208 H 0.02881 0.35907 0.68747 0.0
H1209 H 0.99767 0.32568 0.74236 0.0
H1210 H 0.04609 0.38437 0.7138 0.0
H1211 H 0.01543 0.35157 0.76776 0.0
H1212 H 0.9871 0.3714 0.59973 0.0
H1213 H 0.02583 0.35882 0.64845 0.0
H1214 H 0.97283 0.34466 0.62462 0.0
H1215 H 0.03915 0.38521 0.62309 0.0
H1216 H 0.06625 0.34063 0.66166 0.0
H1217 H 0.03527 0.32142 0.60106 0.0
H1218 H 0.98046 0.37011 0.74646 0.0
H1219 H 0.01035 0.40297 0.69016 0.0
H1220 H 0.97316 0.28036 0.62635 0.0
H1221 H 0.00246 0.29087 0.68779 0.0
H1222 H 0.98845 0.264 0.61268 0.0
H1223 H 0.0172 0.27427 0.67307 0.0
H1224 H 0.93947 0.30836 0.72207 0.0
H1225 H 0.95779 0.3374 0.66038 0.0
H1226 H 0.91963 0.32151 0.72756 0.0
H1227 H 0.93758 0.35 0.66687 0.0
H1228 H 0.94824 0.28428 0.76888 0.0
H1229 H 0.95216 0.24404 0.72941 0.0
H1230 H 0.94809 0.29158 0.5808 0.0
H1231 H 0.90598 0.28002 0.62904 0.0
Li1232 Li 0.68136 0.68275 0.66545 0.0
Li1233 Li 0.66562 0.65312 0.68388 0.0
Li1234 Li 0.6978 0.67487 0.69229 0.0
Li1235 Li 0.68946 0.65934 0.6568 0.0
C1236 C 0.68114 0.69288 0.71012 0.0
N1237 N 0.69123 0.72364 0.73514 0.0
C1238 C 0.67083 0.69218 0.72852 0.0
C1239 C 0.69661 0.70919 0.70446 0.0
C1240 C 0.67614 0.70789 0.74096 0.0
C1241 C 0.70148 0.7246 0.71731 0.0
C1242 C 0.65466 0.64342 0.63939 0.0
C1243 C 0.64116 0.61145 0.63206 0.0
N1244 N 0.63196 0.6131 0.61468 0.0
C1245 C 0.6451 0.64482 0.62145 0.0
C1246 C 0.65271 0.62663 0.64475 0.0
C1247 C 0.63367 0.62932 0.60917 0.0
C1248 C 0.68516 0.7069 0.63201 0.0
N1249 N 0.67792 0.70091 0.65248 0.0
C1250 C 0.66363 0.71879 0.65171 0.0
C1251 C 0.66733 0.70655 0.66247 0.0
C1252 C 0.67065 0.72497 0.63035 0.0
C1253 C 0.68167 0.719 0.62056 0.0
H1254 H 0.69334 0.70196 0.62442 0.0
H1255 H 0.6614 0.70123 0.67854 0.0
C1256 C 0.64372 0.62871 0.71662 0.0
N1257 N 0.64331 0.63595 0.69673 0.0
C1258 C 0.62762 0.61717 0.72775 0.0
C1259 C 0.61099 0.62054 0.69748 0.0
C1260 C 0.62742 0.63214 0.68703 0.0
C1261 C 0.61098 0.61306 0.71824 0.0
H1262 H 0.65661 0.6322 0.72402 0.0
H1263 H 0.62753 0.63842 0.67143 0.0
C1264 C 0.72351 0.6961 0.65787 0.0
N1265 N 0.76001 0.71764 0.64876 0.0
C1266 C 0.73453 0.6884 0.65606 0.0
C1267 C 0.73101 0.71473 0.65472 0.0
C1268 C 0.75296 0.69952 0.65153 0.0
C1269 C 0.74951 0.7254 0.65023 0.0
C1270 C 0.6923 0.63705 0.69071 0.0
C1271 C 0.71093 0.64374 0.69218 0.0
C1272 C 0.68024 0.61854 0.69363 0.0
C1273 C 0.71721 0.63175 0.69616 0.0
C1274 C 0.68706 0.60698 0.69756 0.0
N1275 N 0.70524 0.61376 0.69871 0.0
C1276 C 0.71072 0.67102 0.73274 0.0
C1277 C 0.73158 0.69827 0.7146 0.0
C1278 C 0.7233 0.6741 0.74933 0.0
N1279 N 0.71521 0.68277 0.71552 0.0
C1280 C 0.7446 0.70193 0.73092 0.0
C1281 C 0.74066 0.6895 0.74826 0.0
H1282 H 0.69752 0.65889 0.73314 0.0
H1283 H 0.73477 0.70755 0.70095 0.0
C1284 C 0.7052 0.66226 0.61585 0.0
N1285 N 0.69793 0.65065 0.63322 0.0
C1286 C 0.71417 0.65877 0.59891 0.0
C1287 C 0.70706 0.63083 0.61729 0.0
C1288 C 0.69823 0.63489 0.63395 0.0
C1289 C 0.7156 0.64311 0.59978 0.0
H1290 H 0.70461 0.67461 0.61563 0.0
H1291 H 0.69212 0.62572 0.64772 0.0
O1292 O 0.67614 0.67757 0.69788 0.0
O1293 O 0.66593 0.6585 0.6515 0.0
O1294 O 0.7054 0.68548 0.6622 0.0
O1295 O 0.6858 0.64853 0.6869 0.0
H1296 H 0.65884 0.67961 0.73313 0.0
H1297 H 0.70475 0.70996 0.69032 0.0
H1298 H 0.66828 0.70755 0.75524 0.0
H1299 H 0.71342 0.73733 0.71311 0.0
H1300 H 0.63953 0.59836 0.63603 0.0
H1301 H 0.64651 0.65775 0.61709 0.0
H1302 H 0.66003 0.62532 0.65853 0.0
H1303 H 0.62617 0.63019 0.59524 0.0
H1304 H 0.65489 0.7229 0.65968 0.0
H1305 H 0.68744 0.72356 0.60419 0.0
H1306 H 0.62817 0.61156 0.74364 0.0
H1307 H 0.59846 0.61789 0.68974 0.0
H1308 H 0.72891 0.67398 0.65787 0.0
H1309 H 0.72264 0.72089 0.65576 0.0
H1310 H 0.76164 0.69373 0.65011 0.0
H1311 H 0.75551 0.73985 0.64788 0.0
H1312 H 0.72045 0.65805 0.69052 0.0
H1313 H 0.66577 0.61315 0.69283 0.0
H1314 H 0.73159 0.63675 0.6973 0.0
H1315 H 0.67788 0.59261 0.69974 0.0
H1316 H 0.71959 0.66434 0.76264 0.0
H1317 H 0.75783 0.71395 0.72945 0.0
H1318 H 0.72025 0.66843 0.58549 0.0
H1319 H 0.70786 0.61861 0.61862 0.0
Li1320 Li 0.33865 0.33336 0.69159 0.0
Li1321 Li 0.31708 0.30231 0.70053 0.0
Li1322 Li 0.33363 0.30942 0.66519 0.0
Li1323 Li 0.30989 0.31662 0.67113 0.0
C1324 C 0.3618 0.31953 0.69465 0.0
N1325 N 0.39848 0.33183 0.69209 0.0
C1326 C 0.36951 0.31186 0.70804 0.0
C1327 C 0.37275 0.33345 0.67993 0.0
C1328 C 0.38808 0.31827 0.70651 0.0
C1329 C 0.39126 0.33947 0.67889 0.0
C1330 C 0.30466 0.32016 0.72258 0.0
C1331 C 0.27688 0.30848 0.74341 0.0
N1332 N 0.28646 0.31235 0.76264 0.0
C1333 C 0.31425 0.32422 0.74253 0.0
C1334 C 0.28585 0.31239 0.72299 0.0
C1335 C 0.30479 0.32008 0.76262 0.0
C1336 C 0.35859 0.37144 0.69374 0.0
N1337 N 0.3556 0.356 0.70392 0.0
C1338 C 0.3759 0.37295 0.73322 0.0
C1339 C 0.36402 0.35642 0.72321 0.0
C1340 C 0.37921 0.38915 0.72315 0.0
C1341 C 0.37052 0.38829 0.70305 0.0
H1342 H 0.35149 0.37063 0.67857 0.0
H1343 H 0.36135 0.34388 0.73091 0.0
C1344 C 0.29336 0.26935 0.72389 0.0
N1345 N 0.30926 0.28536 0.72441 0.0
C1346 C 0.28948 0.25625 0.74016 0.0
C1347 C 0.31816 0.27656 0.75754 0.0
C1348 C 0.32147 0.28924 0.74095 0.0
C1349 C 0.30215 0.25963 0.75702 0.0
H1350 H 0.28396 0.2664 0.71047 0.0
H1351 H 0.33413 0.30198 0.74079 0.0
C1352 C 0.33379 0.33562 0.63656 0.0
N1353 N 0.33155 0.34134 0.5918 0.0
C1354 C 0.32478 0.32093 0.6221 0.0
C1355 C 0.3417 0.35324 0.62822 0.0
C1356 C 0.32378 0.32408 0.59955 0.0
C1357 C 0.34041 0.35585 0.60555 0.0
C1358 C 0.29114 0.28023 0.6622 0.0
C1359 C 0.28994 0.27078 0.64268 0.0
C1360 C 0.2753 0.27749 0.67256 0.0
C1361 C 0.27291 0.25876 0.63388 0.0
C1362 C 0.25852 0.26536 0.66324 0.0
N1363 N 0.25768 0.25632 0.64425 0.0
C1364 C 0.33758 0.28225 0.64689 0.0
C1365 C 0.35636 0.31031 0.62892 0.0
C1366 C 0.34232 0.27321 0.63145 0.0
N1367 N 0.34417 0.30032 0.64497 0.0
C1368 C 0.36159 0.30179 0.61309 0.0
C1369 C 0.35409 0.28292 0.61395 0.0
H1370 H 0.3281 0.27475 0.66003 0.0
H1371 H 0.36153 0.32473 0.62794 0.0
C1372 C 0.28841 0.33259 0.66503 0.0
N1373 N 0.29186 0.31987 0.65655 0.0
C1374 C 0.27663 0.33684 0.65408 0.0
C1375 C 0.272 0.31466 0.62602 0.0
C1376 C 0.28392 0.31092 0.63742 0.0
C1377 C 0.26834 0.32788 0.63422 0.0
H1378 H 0.29512 0.3397 0.6801 0.0
H1379 H 0.28712 0.3012 0.63058 0.0
O1380 O 0.34362 0.31332 0.696 0.0
O1381 O 0.31367 0.32382 0.70275 0.0
O1382 O 0.3349 0.33287 0.65875 0.0
O1383 O 0.30773 0.29225 0.6709 0.0
H1384 H 0.36122 0.30106 0.71949 0.0
H1385 H 0.36707 0.33957 0.66943 0.0
H1386 H 0.39423 0.31247 0.71679 0.0
H1387 H 0.39988 0.35023 0.66759 0.0
H1388 H 0.26231 0.3024 0.74398 0.0
H1389 H 0.32882 0.3303 0.7425 0.0
H1390 H 0.27825 0.30949 0.70771 0.0
H1391 H 0.31203 0.323 0.77819 0.0
H1392 H 0.38249 0.37308 0.74862 0.0
H1393 H 0.37261 0.40049 0.6949 0.0
H1394 H 0.27689 0.24345 0.73923 0.0
H1395 H 0.32843 0.27967 0.77001 0.0
H1396 H 0.31859 0.30721 0.62822 0.0
H1397 H 0.34878 0.36479 0.63912 0.0
H1398 H 0.31682 0.31281 0.58821 0.0
H1399 H 0.34646 0.36942 0.59889 0.0
H1400 H 0.30201 0.2728 0.63429 0.0
H1401 H 0.27597 0.28474 0.68756 0.0
H1402 H 0.27179 0.2514 0.61876 0.0
H1403 H 0.24618 0.26316 0.67108 0.0
H1404 H 0.33655 0.2587 0.63292 0.0
H1405 H 0.37075 0.30971 0.59985 0.0
H1406 H 0.2741 0.34707 0.66101 0.0
H1407 H 0.26618 0.30767 0.61055 0.0
Li1408 Li 0.66311 0.01561 0.68712 0.0
Li1409 Li 0.69451 0.0242 0.69494 0.0
Li1410 Li 0.68637 0.03238 0.65843 0.0
Li1411 Li 0.67856 0.00136 0.66655 0.0
C1412 C 0.67992 0.0533 0.69354 0.0
N1413 N 0.6703 0.07906 0.70283 0.0
C1414 C 0.68582 0.06345 0.71312 0.0
C1415 C 0.66937 0.05647 0.67855 0.0
C1416 C 0.68074 0.07634 0.71757 0.0
C1417 C 0.6646 0.06949 0.68357 0.0
C1418 C 0.67447 0.99379 0.71873 0.0
C1419 C 0.68572 0.97812 0.74098 0.0
N1420 N 0.6789 0.9817 0.75948 0.0
C1421 C 0.66736 0.99709 0.73793 0.0
C1422 C 0.68354 0.98404 0.72022 0.0
C1423 C 0.66982 0.99096 0.75839 0.0
C1424 C 0.62517 0.99762 0.69259 0.0
N1425 N 0.64115 0.01118 0.7006 0.0
C1426 C 0.62587 0.01704 0.72986 0.0
C1427 C 0.64177 0.02081 0.71891 0.0
C1428 C 0.60914 0.0031 0.72202 0.0
C1429 C 0.6089 0.99337 0.70305 0.0
H1430 H 0.62511 0.98999 0.6782 0.0
H1431 H 0.65466 0.03103 0.72547 0.0
C1432 C 0.72923 0.03697 0.71495 0.0
N1433 N 0.71189 0.03309 0.71824 0.0
C1434 C 0.7422 0.04559 0.7316 0.0
C1435 C 0.71914 0.0458 0.75471 0.0
C1436 C 0.70664 0.03711 0.73772 0.0
C1437 C 0.73726 0.05047 0.75159 0.0
H1438 H 0.7332 0.03406 0.69914 0.0
H1439 H 0.69285 0.03416 0.73976 0.0
C1440 C 0.65286 0.01077 0.63717 0.0
N1441 N 0.63326 0.01196 0.60138 0.0
C1442 C 0.65423 0.00413 0.61646 0.0
C1443 C 0.64115 0.01761 0.63976 0.0
C1444 C 0.64434 0.00497 0.59854 0.0
C1445 C 0.63145 0.01821 0.62145 0.0
C1446 C 0.71415 0.01744 0.65578 0.0
C1447 C 0.72166 0.02321 0.63465 0.0
C1448 C 0.71788 0.0057 0.66771 0.0
C1449 C 0.73251 0.01685 0.62565 0.0
C1450 C 0.72879 -0.00038 0.65815 0.0
N1451 N 0.7358 0.00526 0.63748 0.0
C1452 C 0.70297 0.06793 0.64079 0.0
C1453 C 0.69546 0.04471 0.61427 0.0
C1454 C 0.71184 0.08118 0.62459 0.0
N1455 N 0.69511 0.05009 0.63543 0.0
C1456 C 0.70444 0.05751 0.5976 0.0
C1457 C 0.71318 0.07607 0.60277 0.0
H1458 H 0.70311 0.07197 0.65782 0.0
H1459 H 0.6898 0.0305 0.6106 0.0
C1460 C 0.66552 0.96368 0.66376 0.0
N1461 N 0.67477 0.9797 0.6528 0.0
C1462 C 0.66159 0.94753 0.65319 0.0
C1463 C 0.67676 0.96472 0.62031 0.0
C1464 C 0.68045 0.9805 0.63153 0.0
C1465 C 0.66707 0.94793 0.63108 0.0
H1466 H 0.66084 0.9634 0.68053 0.0
H1467 H 0.68756 0.99339 0.62309 0.0
O1468 O 0.68456 0.04043 0.68906 0.0
O1469 O 0.67229 -0.00018 0.69857 0.0
O1470 O 0.66234 0.00987 0.65497 0.0
O1471 O 0.70325 0.0233 0.66473 0.0
H1472 H 0.69418 0.06139 0.72481 0.0
H1473 H 0.66524 0.04922 0.66301 0.0
H1474 H 0.68512 0.08421 0.73272 0.0
H1475 H 0.65643 0.07207 0.67208 0.0
H1476 H 0.69277 0.97062 0.74236 0.0
H1477 H 0.66018 0.00447 0.73711 0.0
H1478 H 0.68873 0.98093 0.70552 0.0
H1479 H 0.66453 0.99357 0.7734 0.0
H1480 H 0.62673 0.02459 0.74472 0.0
H1481 H 0.59629 0.98258 0.6964 0.0
H1482 H 0.7561 0.04918 0.72844 0.0
H1483 H 0.71476 0.04923 0.76993 0.0
H1484 H 0.66293 0.99847 0.61417 0.0
H1485 H 0.63939 0.02227 0.65575 0.0
H1486 H 0.64543 3e-05 0.58239 0.0
H1487 H 0.62242 0.02356 0.62323 0.0
H1488 H 0.71914 0.03248 0.62527 0.0
H1489 H 0.71245 0.00137 0.6842 0.0
H1490 H 0.73833 0.02113 0.60927 0.0
H1491 H 0.7317 0.99046 0.66719 0.0
H1492 H 0.71818 0.0953 0.62935 0.0
H1493 H 0.70543 0.05287 0.58119 0.0
H1494 H 0.6539 0.93483 0.662 0.0
H1495 H 0.68139 0.96565 0.60334 0.0
Li1496 Li 0.97924 0.67627 0.69233 0.0
Li1497 Li 0.98674 0.65314 0.68318 0.0
Li1498 Li 0.00018 0.68208 0.66374 0.0
Li1499 Li 0.96911 0.66065 0.65604 0.0
C1500 C 0.00853 0.68679 0.71478 0.0
N1501 N 0.01837 0.70525 0.75471 0.0
C1502 C 0.0063 0.67743 0.73461 0.0
C1503 C 0.016 0.70557 0.71523 0.0
C1504 C 0.01129 0.68699 0.75464 0.0
C1505 C 0.02083 0.71465 0.73558 0.0
C1506 C 0.94878 0.63262 0.68579 0.0
C1507 C 0.93581 0.60263 0.67018 0.0
N1508 N 0.92128 0.59691 0.68391 0.0
C1509 C 0.93373 0.62646 0.69974 0.0
C1510 C 0.94986 0.62063 0.67089 0.0
C1511 C 0.91996 0.60835 0.69854 0.0
C1512 C 0.96938 0.69945 0.71505 0.0
N1513 N 0.97088 0.68438 0.71645 0.0
C1514 C 0.95564 0.67661 0.75141 0.0
C1515 C 0.96446 0.67315 0.73426 0.0
C1516 C 0.95321 0.69168 0.75008 0.0
C1517 C 0.96062 0.70344 0.73187 0.0
H1518 H 0.97426 0.70792 0.70046 0.0
H1519 H 0.96564 0.66113 0.73473 0.0
C1520 C -0.00065 0.62786 0.68707 0.0
N1521 N 0.98916 0.63428 0.69633 0.0
C1522 C 0.00208 0.61518 0.69845 0.0
C1523 C 0.98307 0.61538 0.72811 0.0
C1524 C 0.98078 0.62807 0.71622 0.0
C1525 C 0.99414 0.60902 0.71947 0.0
H1526 H 0.00566 0.6328 0.6711 0.0
H1527 H 0.97263 0.63333 0.72309 0.0
C1528 C 0.98497 0.7017 0.65051 0.0
N1529 N 0.99605 0.73235 0.62493 0.0
C1530 C 0.97892 0.70016 0.62862 0.0
C1531 C 0.99649 0.71885 0.65945 0.0
C1532 C 0.98471 0.71581 0.61595 0.0
C1533 C 0.002 0.73417 0.64623 0.0
C1534 C 0.00269 0.66042 0.63458 0.0
C1535 C -0.00083 0.66163 0.61218 0.0
C1536 C 0.01968 0.66331 0.6409 0.0
C1537 C 0.01274 0.66569 0.59645 0.0
C1538 C 0.0329 0.6674 0.62467 0.0
N1539 N 0.02918 0.66849 0.60297 0.0
C1540 C 0.03805 0.70691 0.66114 0.0
C1541 C 0.0218 0.70503 0.62846 0.0
C1542 C 0.0544 0.71908 0.65086 0.0
N1543 N 0.02217 0.70017 0.64985 0.0
C1544 C 0.03775 0.71731 0.61767 0.0
C1545 C 0.05433 0.72442 0.62885 0.0
H1546 H 0.03806 0.70252 0.67795 0.0
H1547 H 0.00919 0.69896 0.61947 0.0
C1548 C 0.93792 0.65777 0.6391 0.0
N1549 N 0.94949 0.65146 0.63592 0.0
C1550 C 0.92394 0.65346 0.6241 0.0
C1551 C 0.93344 0.63536 0.60341 0.0
C1552 C 0.94731 0.64007 0.61887 0.0
C1553 C 0.92182 0.64246 0.60567 0.0
H1554 H 0.93993 0.66665 0.65298 0.0
H1555 H 0.95657 0.63501 0.61699 0.0
O1556 O 0.00332 0.67762 0.69504 0.0
O1557 O 0.96233 0.65032 0.68682 0.0
O1558 O 0.97938 0.68652 0.66321 0.0
O1559 O 0.98969 0.65676 0.65028 0.0
H1560 H 0.00067 0.66293 0.73459 0.0
H1561 H 0.01805 0.71305 0.70002 0.0
H1562 H 0.00952 0.6799 0.77013 0.0
H1563 H 0.02653 0.72918 0.73617 0.0
H1564 H 0.93646 0.5932 0.65873 0.0
H1565 H 0.93271 0.63559 0.71137 0.0
H1566 H 0.96141 0.62514 0.65999 0.0
H1567 H 0.90823 0.60339 0.70924 0.0
H1568 H 0.95033 0.66732 0.76528 0.0
H1569 H 0.95885 0.71507 0.73006 0.0
H1570 H 0.01078 0.61072 0.69117 0.0
H1571 H 0.97636 0.61074 0.74401 0.0
H1572 H 0.97011 0.68703 0.62132 0.0
H1573 H 0.00117 0.72035 0.67638 0.0
H1574 H 0.98024 0.7148 0.59895 0.0
H1575 H 0.01098 0.74752 0.65291 0.0
H1576 H 0.98623 0.65974 0.60702 0.0
H1577 H 0.02279 0.66288 0.65821 0.0
H1578 H 0.01023 0.66675 0.57908 0.0
H1579 H 0.04616 0.66984 0.62936 0.0
H1580 H 0.06695 0.72426 0.66001 0.0
H1581 H 0.03718 0.72079 0.60052 0.0
H1582 H 0.91506 0.65892 0.62671 0.0
H1583 H 0.93225 0.62683 0.58943 0.0
C1584 C 0.21658 0.32592 0.12419 0.0
C1585 C 0.21437 0.31557 0.10506 0.0
C1586 C 0.20182 0.32182 0.13791 0.0
C1587 C 0.18459 0.30721 0.13284 0.0
C1588 C 0.19715 0.30082 0.10012 0.0
C1589 C 0.18234 0.29679 0.11379 0.0
C1590 C 0.16868 0.30397 0.14609 0.0
C1591 C 0.20269 0.29095 0.19124 0.0
C1592 C 0.2103 0.30337 0.20885 0.0
C1593 C 0.18895 0.29059 0.17822 0.0
C1594 C 0.18254 0.30252 0.18279 0.0
C1595 C 0.20372 0.31515 0.21344 0.0
C1596 C 0.18988 0.31462 0.20066 0.0
C1597 C 0.16801 0.30245 0.16944 0.0
C1598 C 0.09422 0.2929 0.19119 0.0
C1599 C 0.09933 0.30446 0.20976 0.0
C1600 C 0.10736 0.2919 0.17831 0.0
C1601 C 0.12581 0.30257 0.1837 0.0
C1602 C 0.11773 0.3145 0.21557 0.0
C1603 C 0.1308 0.31353 0.20272 0.0
C1604 C 0.14016 0.30262 0.16983 0.0
C1605 C 0.11391 0.32589 0.12696 0.0
C1606 C 0.10707 0.3171 0.10651 0.0
C1607 C 0.12476 0.3217 0.14005 0.0
C1608 C 0.12854 0.30818 0.13339 0.0
C1609 C 0.11114 0.30376 0.09971 0.0
C1610 C 0.12177 0.29937 0.11301 0.0
C1611 C 0.14098 0.30444 0.14644 0.0
H1612 H 0.22971 0.33729 0.12849 0.0
H1613 H 0.2038 0.33037 0.15216 0.0
H1614 H 0.19504 0.29273 0.08536 0.0
H1615 H 0.16909 0.28565 0.1094 0.0
H1616 H 0.20753 0.28172 0.1874 0.0
H1617 H 0.18327 0.28095 0.16471 0.0
H1618 H 0.20917 0.32468 0.2271 0.0
H1619 H 0.18507 0.32387 0.20455 0.0
H1620 H 0.08014 0.28497 0.18633 0.0
H1621 H 0.10313 0.28299 0.16403 0.0
H1622 H 0.12207 0.3232 0.23006 0.0
H1623 H 0.14491 0.32171 0.20739 0.0
H1624 H 0.11095 0.3361 0.13291 0.0
H1625 H 0.13042 0.32929 0.1552 0.0
H1626 H 0.10646 0.29696 0.08388 0.0
H1627 H 0.12486 0.2892 0.10726 0.0
N1628 N 0.1551 0.30482 0.1355 0.0
N1629 N 0.1538 0.30185 0.18036 0.0
C1630 C 0.67584 0.88648 0.12577 0.0
C1631 C 0.6852 0.89409 0.10588 0.0
C1632 C 0.67964 0.87507 0.13827 0.0
C1633 C 0.69323 0.87143 0.13147 0.0
C1634 C 0.69851 0.89014 0.09879 0.0
C1635 C 0.70248 0.87888 0.11149 0.0
C1636 C 0.69655 0.8585 0.14397 0.0
C1637 C 0.70824 0.90425 0.19122 0.0
C1638 C 0.69659 0.89855 0.20972 0.0
C1639 C 0.7091 0.89149 0.17737 0.0
C1640 C 0.69825 0.87287 0.18182 0.0
C1641 C 0.68627 0.87996 0.21446 0.0
C1642 C 0.68712 0.8673 0.20071 0.0
C1643 C 0.69826 0.85885 0.16735 0.0
C1644 C 0.70549 0.79322 0.18702 0.0
C1645 C 0.69366 0.78675 0.20533 0.0
C1646 C 0.70675 0.8074 0.17404 0.0
C1647 C 0.69621 0.81531 0.17925 0.0
C1648 C 0.68335 0.79488 0.21058 0.0
C1649 C 0.68467 0.80904 0.19774 0.0
C1650 C 0.69728 0.83044 0.16615 0.0
C1651 C 0.67194 0.78239 0.12038 0.0
C1652 C 0.68279 0.78404 0.10197 0.0
C1653 C 0.67635 0.79733 0.1339 0.0
C1654 C 0.69173 0.81417 0.12929 0.0
C1655 C 0.69816 0.80092 0.09735 0.0
C1656 C 0.70249 0.81592 0.1108 0.0
C1657 C 0.69576 0.83017 0.14282 0.0
H1658 H 0.66523 0.88898 0.13136 0.0
H1659 H 0.67165 0.86881 0.15302 0.0
H1660 H 0.70592 0.89583 0.08351 0.0
H1661 H 0.71275 0.87595 0.10568 0.0
H1662 H 0.71639 0.9185 0.18723 0.0
H1663 H 0.71812 0.89614 0.16318 0.0
H1664 H 0.67749 0.87515 0.22887 0.0
H1665 H 0.67877 0.85305 0.20465 0.0
H1666 H 0.71362 0.78721 0.18263 0.0
H1667 H 0.71603 0.81226 0.16011 0.0
H1668 H 0.67438 0.79044 0.22483 0.0
H1669 H 0.67651 0.81501 0.20219 0.0
H1670 H 0.66008 0.76952 0.12439 0.0
H1671 H 0.6676 0.79579 0.14777 0.0
H1672 H 0.70664 0.8026 0.08313 0.0
H1673 H 0.71423 0.82889 0.1068 0.0
N1674 N 0.69558 0.84425 0.13261 0.0
N1675 N 0.69847 0.84476 0.17743 0.0
C1676 C 0.10713 0.78664 0.13411 0.0
C1677 C 0.09985 0.78853 0.11406 0.0
C1678 C 0.11799 0.80175 0.14725 0.0
C1679 C 0.12156 0.81902 0.14078 0.0
C1680 C 0.10353 0.80586 0.10755 0.0
C1681 C 0.11436 0.82097 0.12075 0.0
C1682 C 0.13413 0.83524 0.1537 0.0
C1683 C 0.08638 0.80125 0.1982 0.0
C1684 C 0.0909 0.79634 0.21843 0.0
C1685 C 0.09991 0.81449 0.1847 0.0
C1686 C 0.11823 0.82268 0.19093 0.0
C1687 C 0.10916 0.80488 0.22485 0.0
C1688 C 0.12264 0.81789 0.21127 0.0
C1689 C 0.13301 0.83661 0.17699 0.0
C1690 C 0.19598 0.91133 0.1976 0.0
C1691 C 0.2018 0.90692 0.21722 0.0
C1692 C 0.18279 0.89765 0.18421 0.0
C1693 C 0.17541 0.87935 0.1901 0.0
C1694 C 0.19434 0.8886 0.223 0.0
C1695 C 0.18124 0.875 0.20966 0.0
C1696 C 0.16118 0.86454 0.17662 0.0
C1697 C 0.21069 0.88964 0.13301 0.0
C1698 C 0.20873 0.89697 0.11304 0.0
C1699 C 0.19566 0.87895 0.14636 0.0
C1700 C 0.1784 0.87557 0.14017 0.0
C1701 C 0.19142 0.89353 0.10685 0.0
C1702 C 0.17638 0.88282 0.12023 0.0
C1703 C 0.16225 0.86318 0.15337 0.0
H1704 H 0.10485 0.77353 0.13935 0.0
H1705 H 0.12395 0.79998 0.1622 0.0
H1706 H 0.09803 0.80773 0.09226 0.0
H1707 H 0.11717 0.83422 0.1153 0.0
H1708 H 0.07238 0.79501 0.19299 0.0
H1709 H 0.09603 0.81836 0.16948 0.0
H1710 H 0.11307 0.80123 0.24022 0.0
H1711 H 0.13662 0.82403 0.21657 0.0
H1712 H 0.20133 0.92533 0.19286 0.0
H1713 H 0.1782 0.90138 0.16946 0.0
H1714 H 0.19875 0.88472 0.23779 0.0
H1715 H 0.17576 0.86099 0.21454 0.0
H1716 H 0.22385 0.89214 0.13832 0.0
H1717 H 0.1975 0.87305 0.16132 0.0
H1718 H 0.18943 0.89877 0.09141 0.0
H1719 H 0.16312 0.8801 0.11495 0.0
N1720 N 0.14862 0.84866 0.14282 0.0
N1721 N 0.14664 0.85119 0.18746 0.0
C1722 C 0.31481 0.10605 0.82834 0.0
C1723 C 0.30067 0.09622 0.81319 0.0
C1724 C 0.31436 0.11877 0.84252 0.0
C1725 C 0.29963 0.12175 0.8421 0.0
C1726 C 0.28597 0.0993 0.81274 0.0
C1727 C 0.28551 0.11201 0.82699 0.0
C1728 C 0.29955 0.13593 0.85619 0.0
C1729 C 0.29763 0.09372 0.90226 0.0
C1730 C 0.31234 0.10021 0.917 0.0
C1731 C 0.2945 0.1058 0.89008 0.0
C1732 C 0.30624 0.12457 0.89209 0.0
C1733 C 0.32376 0.119 0.91943 0.0
C1734 C 0.32072 0.13104 0.90713 0.0
C1735 C 0.30342 0.13768 0.87917 0.0
C1736 C 0.29692 0.20326 0.90382 0.0
C1737 C 0.31156 0.21139 0.91864 0.0
C1738 C 0.29366 0.18797 0.89162 0.0
C1739 C 0.30535 0.18094 0.89349 0.0
C1740 C 0.32269 0.20382 0.92134 0.0
C1741 C 0.31964 0.18877 0.90884 0.0
C1742 C 0.30286 0.16535 0.87989 0.0
C1743 C 0.31207 0.20888 0.83089 0.0
C1744 C 0.29729 0.20429 0.81677 0.0
C1745 C 0.3126 0.19571 0.84404 0.0
C1746 C 0.29823 0.17772 0.84359 0.0
C1747 C 0.28298 0.18622 0.81623 0.0
C1748 C 0.28351 0.17305 0.82943 0.0
C1749 C 0.29895 0.16357 0.85691 0.0
H1750 H 0.32652 0.10432 0.82877 0.0
H1751 H 0.32573 0.12656 0.85348 0.0
H1752 H 0.27482 0.09188 0.80135 0.0
H1753 H 0.27412 0.11425 0.82621 0.0
H1754 H 0.28842 0.07931 0.90035 0.0
H1755 H 0.28286 0.10044 0.87918 0.0
H1756 H 0.33527 0.12439 0.93053 0.0
H1757 H 0.32989 0.14546 0.90911 0.0
H1758 H 0.28799 0.20871 0.90174 0.0
H1759 H 0.28207 0.18176 0.88063 0.0
H1760 H 0.33409 0.20989 0.93263 0.0
H1761 H 0.32873 0.1835 0.91081 0.0
H1762 H 0.3235 0.22257 0.83134 0.0
H1763 H 0.32436 0.19953 0.85434 0.0
H1764 H 0.27136 0.18225 0.80563 0.0
H1765 H 0.27237 0.15921 0.82867 0.0
N1766 N 0.29732 0.14886 0.84602 0.0
N1767 N 0.305 0.15236 0.89003 0.0
C1768 C 0.90697 0.20255 0.90122 0.0
C1769 C 0.90139 0.21177 0.9157 0.0
C1770 C 0.8942 0.18732 0.88949 0.0
C1771 C 0.87564 0.18112 0.89191 0.0
C1772 C 0.88276 0.2052 0.91848 0.0
C1773 C 0.87003 0.18996 0.90681 0.0
C1774 C 0.86192 0.16547 0.87906 0.0
C1775 C 0.89255 0.21007 0.83011 0.0
C1776 C 0.90135 0.20616 0.81307 0.0
C1777 C 0.88014 0.19639 0.84403 0.0
C1778 C 0.8766 0.17854 0.84168 0.0
C1779 C 0.89766 0.18822 0.81061 0.0
C1780 C 0.88535 0.17455 0.82473 0.0
C1781 C 0.86284 0.16385 0.8558 0.0
C1782 C 0.78842 0.1043 0.83278 0.0
C1783 C 0.79246 0.09601 0.81523 0.0
C1784 C 0.80211 0.11691 0.84653 0.0
C1785 C 0.82013 0.12113 0.84353 0.0
C1786 C 0.81051 0.1002 0.8123 0.0
C1787 C 0.82419 0.11266 0.82628 0.0
C1788 C 0.83497 0.13565 0.85675 0.0
C1789 C 0.79877 0.09358 0.90681 0.0
C1790 C 0.78932 0.09962 0.92024 0.0
C1791 C 0.81333 0.10579 0.89365 0.0
C1792 C 0.81879 0.12426 0.89382 0.0
C1793 C 0.79502 0.11821 0.92041 0.0
C1794 C 0.80971 0.1304 0.90754 0.0
C1795 C 0.83402 0.13743 0.87999 0.0
H1796 H 0.9212 0.20705 0.89903 0.0
H1797 H 0.89883 0.18043 0.87847 0.0
H1798 H 0.87798 0.21208 0.92927 0.0
H1799 H 0.85577 0.18537 0.90899 0.0
H1800 H 0.89514 0.22373 0.83265 0.0
H1801 H 0.87311 0.19978 0.85641 0.0
H1802 H 0.90394 0.18465 0.79743 0.0
H1803 H 0.88258 0.16081 0.82234 0.0
H1804 H 0.77467 0.1013 0.83572 0.0
H1805 H 0.7986 0.12373 0.85905 0.0
H1806 H 0.8142 0.09433 0.79875 0.0
H1807 H 0.83803 0.11593 0.82337 0.0
H1808 H 0.79502 0.07945 0.90654 0.0
H1809 H 0.82039 0.10084 0.88345 0.0
H1810 H 0.78793 0.12338 0.93013 0.0
H1811 H 0.81372 0.14462 0.90788 0.0
N1812 N 0.84748 0.15228 0.89019 0.0
N1813 N 0.84941 0.14891 0.84559 0.0
C1814 C 0.79694 0.70291 0.89842 0.0
C1815 C 0.78907 0.68798 0.91292 0.0
C1816 C 0.81276 0.70718 0.88672 0.0
C1817 C 0.82082 0.69644 0.88911 0.0
C1818 C 0.79758 0.6777 0.91584 0.0
C1819 C 0.81329 0.68191 0.90409 0.0
C1820 C 0.83707 0.70003 0.87625 0.0
C1821 C 0.79282 0.685 0.82613 0.0
C1822 C 0.79643 0.69847 0.81027 0.0
C1823 C 0.80649 0.68649 0.84015 0.0
C1824 C 0.82398 0.70168 0.83898 0.0
C1825 C 0.81399 0.71364 0.80905 0.0
C1826 C 0.82766 0.71516 0.8232 0.0
C1827 C 0.83873 0.7029 0.85304 0.0
C1828 C 0.89736 0.68783 0.82911 0.0
C1829 C 0.90662 0.70079 0.81245 0.0
C1830 C 0.88477 0.68904 0.84271 0.0
C1831 C 0.88146 0.70346 0.84033 0.0
C1832 C 0.9033 0.71525 0.8101 0.0
C1833 C 0.89075 0.7165 0.82385 0.0
C1834 C 0.86724 0.70407 0.85373 0.0
C1835 C 0.91028 0.70909 0.90028 0.0
C1836 C 0.90418 0.69497 0.91586 0.0
C1837 C 0.89788 0.71165 0.88801 0.0
C1838 C 0.87918 0.69986 0.89073 0.0
C1839 C 0.88549 0.68373 0.91925 0.0
C1840 C 0.87312 0.68616 0.90682 0.0
C1841 C 0.8657 0.70149 0.877 0.0
H1842 H 0.79071 0.71109 0.89579 0.0
H1843 H 0.81858 0.71875 0.87569 0.0
H1844 H 0.7921 0.66637 0.92724 0.0
H1845 H 0.81938 0.67356 0.90642 0.0
H1846 H 0.77943 0.67321 0.82765 0.0
H1847 H 0.80342 0.67562 0.85171 0.0
H1848 H 0.81731 0.72411 0.79679 0.0
H1849 H 0.84114 0.72684 0.82175 0.0
H1850 H 0.89969 0.67661 0.8315 0.0
H1851 H 0.87738 0.67847 0.85481 0.0
H1852 H 0.90998 0.72529 0.79721 0.0
H1853 H 0.88816 0.72756 0.82147 0.0
H1854 H 0.92463 0.71813 0.89761 0.0
H1855 H 0.90292 0.72272 0.87625 0.0
H1856 H 0.88041 0.67267 0.93104 0.0
H1857 H 0.85878 0.67697 0.90937 0.0
N1858 N 0.85061 0.69945 0.88724 0.0
N1859 N 0.8538 0.7049 0.84272 0.0
C1860 C 0.75807 0.62727 0.44861 0.0
C1861 C 0.76522 0.64221 0.43413 0.0
C1862 C 0.76957 0.62317 0.46051 0.0
C1863 C 0.78845 0.63409 0.45839 0.0
C1864 C 0.7841 0.65263 0.43137 0.0
C1865 C 0.79557 0.64858 0.44334 0.0
C1866 C 0.80102 0.6308 0.47176 0.0
C1867 C 0.77111 0.64595 0.52088 0.0
C1868 C 0.76112 0.63268 0.53696 0.0
C1869 C 0.78327 0.64425 0.507 0.0
C1870 C 0.78546 0.62906 0.50855 0.0
C1871 C 0.76331 0.61746 0.53847 0.0
C1872 C 0.77545 0.61573 0.52447 0.0
C1873 C 0.79925 0.62783 0.49495 0.0
C1874 C 0.87236 0.64417 0.52249 0.0
C1875 C 0.86829 0.63111 0.53907 0.0
C1876 C 0.85898 0.64257 0.5079 0.0
C1877 C 0.8413 0.62772 0.50932 0.0
C1878 C 0.85064 0.61611 0.54029 0.0
C1879 C 0.83723 0.61451 0.52564 0.0
C1880 C 0.82674 0.62696 0.49532 0.0
C1881 C 0.86626 0.6229 0.45023 0.0
C1882 C 0.87494 0.63743 0.43527 0.0
C1883 C 0.85088 0.62004 0.4619 0.0
C1884 C 0.84409 0.63186 0.45909 0.0
C1885 C 0.8677 0.6488 0.4319 0.0
C1886 C 0.85241 0.646 0.44364 0.0
C1887 C 0.82843 0.6298 0.47211 0.0
H1888 H 0.74359 0.61899 0.45114 0.0
H1889 H 0.76373 0.61161 0.47157 0.0
H1890 H 0.79004 0.66397 0.41999 0.0
H1891 H 0.81007 0.65707 0.4412 0.0
H1892 H 0.76966 0.65777 0.51914 0.0
H1893 H 0.79124 0.65502 0.49534 0.0
H1894 H 0.75606 0.60715 0.5509 0.0
H1895 H 0.77716 0.60406 0.52621 0.0
H1896 H 0.88586 0.65582 0.52102 0.0
H1897 H 0.86236 0.65324 0.49591 0.0
H1898 H 0.84703 0.60595 0.55308 0.0
H1899 H 0.8236 0.6031 0.52725 0.0
H1900 H 0.87136 0.61373 0.45288 0.0
H1901 H 0.84438 0.60869 0.47322 0.0
H1902 H 0.87416 0.66021 0.42066 0.0
H1903 H 0.84738 0.65525 0.44109 0.0
N1904 N 0.81555 0.63169 0.46131 0.0
N1905 N 0.81212 0.62591 0.50578 0.0
C1906 C 0.34887 0.22804 0.46591 0.0
C1907 C 0.35913 0.23674 0.4469 0.0
C1908 C 0.35289 0.21689 0.47864 0.0
C1909 C 0.36748 0.21448 0.47288 0.0
C1910 C 0.37358 0.23412 0.44096 0.0
C1911 C 0.37766 0.22302 0.45381 0.0
C1912 C 0.37098 0.2017 0.48543 0.0
C1913 C 0.37906 0.246 0.5331 0.0
C1914 C 0.36681 0.23951 0.551 0.0
C1915 C 0.38112 0.23389 0.51935 0.0
C1916 C 0.37089 0.21514 0.52331 0.0
C1917 C 0.35712 0.22082 0.55527 0.0
C1918 C 0.35916 0.2088 0.54163 0.0
C1919 C 0.37209 0.20175 0.50886 0.0
C1920 C 0.38077 0.13668 0.52754 0.0
C1921 C 0.36819 0.12924 0.54501 0.0
C1922 C 0.38235 0.15135 0.51534 0.0
C1923 C 0.3714 0.1588 0.52051 0.0
C1924 C 0.35756 0.13701 0.55038 0.0
C1925 C 0.35923 0.15169 0.53835 0.0
C1926 C 0.37224 0.17391 0.50755 0.0
C1927 C 0.3482 0.12591 0.46223 0.0
C1928 C 0.3585 0.12782 0.44313 0.0
C1929 C 0.35243 0.14081 0.47566 0.0
C1930 C 0.36725 0.15789 0.47055 0.0
C1931 C 0.37326 0.14498 0.4379 0.0
C1932 C 0.37752 0.15993 0.45144 0.0
C1933 C 0.37104 0.17381 0.48417 0.0
H1934 H 0.3374 0.22946 0.47063 0.0
H1935 H 0.34432 0.20984 0.49271 0.0
H1936 H 0.38176 0.24069 0.42644 0.0
H1937 H 0.38876 0.22108 0.44884 0.0
H1938 H 0.38676 0.26035 0.52948 0.0
H1939 H 0.39059 0.23914 0.50562 0.0
H1940 H 0.3479 0.21543 0.56924 0.0
H1941 H 0.35124 0.19444 0.54518 0.0
H1942 H 0.38916 0.13097 0.52308 0.0
H1943 H 0.39206 0.15683 0.50187 0.0
H1944 H 0.34799 0.13179 0.56402 0.0
H1945 H 0.35071 0.15727 0.54273 0.0
H1946 H 0.33685 0.11286 0.46684 0.0
H1947 H 0.34391 0.139 0.48991 0.0
H1948 H 0.3813 0.14693 0.42313 0.0
H1949 H 0.38879 0.17308 0.44699 0.0
N1950 N 0.37065 0.18779 0.474 0.0
N1951 N 0.37265 0.18784 0.51892 0.0
C1952 C 0.77847 0.11684 0.45162 0.0
C1953 C 0.77004 0.11889 0.43273 0.0
C1954 C 0.78993 0.1318 0.4646 0.0
C1955 C 0.79308 0.14912 0.45912 0.0
C1956 C 0.77324 0.13625 0.4272 0.0
C1957 C 0.7848 0.15127 0.44019 0.0
C1958 C 0.80598 0.16506 0.47223 0.0
C1959 C 0.75905 0.13293 0.51967 0.0
C1960 C 0.76387 0.12656 0.53849 0.0
C1961 C 0.77241 0.14526 0.50519 0.0
C1962 C 0.79077 0.15131 0.50928 0.0
C1963 C 0.78224 0.13231 0.54206 0.0
C1964 C 0.79552 0.14464 0.52774 0.0
C1965 C 0.80534 0.16557 0.49563 0.0
C1966 C 0.8668 0.23935 0.52035 0.0
C1967 C 0.8731 0.23417 0.53892 0.0
C1968 C 0.85415 0.22623 0.5059 0.0
C1969 C 0.84771 0.20776 0.50976 0.0
C1970 C 0.86686 0.21568 0.54236 0.0
C1971 C 0.85422 0.20265 0.52806 0.0
C1972 C 0.8334 0.19346 0.49587 0.0
C1973 C 0.8825 0.22159 0.45284 0.0
C1974 C 0.88052 0.23038 0.43427 0.0
C1975 C 0.86743 0.2095 0.46524 0.0
C1976 C 0.85008 0.20612 0.45955 0.0
C1977 C 0.86308 0.22666 0.42827 0.0
C1978 C 0.84797 0.21456 0.44077 0.0
C1979 C 0.83408 0.19303 0.47246 0.0
H1980 H 0.77617 0.10364 0.45641 0.0
H1981 H 0.79657 0.12986 0.47875 0.0
H1982 H 0.76709 0.13827 0.4126 0.0
H1983 H 0.78729 0.16456 0.43548 0.0
H1984 H 0.74503 0.12886 0.51654 0.0
H1985 H 0.76846 0.15047 0.49123 0.0
H1986 H 0.78641 0.12735 0.55607 0.0
H1987 H 0.80959 0.14907 0.53117 0.0
H1988 H 0.87123 0.25347 0.51735 0.0
H1989 H 0.84906 0.23047 0.4921 0.0
H1990 H 0.87172 0.21123 0.5562 0.0
H1991 H 0.84948 0.18848 0.53132 0.0
H1992 H 0.89569 0.22381 0.45757 0.0
H1993 H 0.86934 0.20261 0.47915 0.0
H1994 H 0.86113 0.23327 0.41409 0.0
H1995 H 0.83466 0.21193 0.43591 0.0
N1996 N 0.82027 0.17889 0.4615 0.0
N1997 N 0.8191 0.1797 0.50646 0.0
C1998 C 0.95786 0.53383 0.15213 0.0
C1999 C 0.96733 0.53868 0.13186 0.0
C2000 C 0.95917 0.52163 0.16643 0.0
C2001 C 0.97028 0.51442 0.16086 0.0
C2002 C 0.9784 0.53145 0.1264 0.0
C2003 C 0.97983 0.51945 0.1407 0.0
C2004 C 0.97133 0.50074 0.17487 0.0
C2005 C 0.99392 0.55029 0.21832 0.0
C2006 C 0.98405 0.54813 0.23793 0.0
C2007 C 0.99013 0.53533 0.20512 0.0
C2008 C 0.97631 0.51793 0.21115 0.0
C2009 C 0.9702 0.53067 0.2439 0.0
C2010 C 0.96647 0.5157 0.23071 0.0
C2011 C 0.97322 0.5019 0.19822 0.0
C2012 C 0.9946 0.44694 0.21912 0.0
C2013 C 0.98404 0.43853 0.23805 0.0
C2014 C 0.99129 0.45851 0.20623 0.0
C2015 C 0.97718 0.46171 0.21183 0.0
C2016 C 0.97016 0.44206 0.24389 0.0
C2017 C 0.96683 0.45362 0.23093 0.0
C2018 C 0.97387 0.47427 0.19854 0.0
C2019 C 0.96202 0.42721 0.15334 0.0
C2020 C 0.97261 0.43227 0.13391 0.0
C2021 C 0.96174 0.44039 0.16694 0.0
C2022 C 0.97233 0.45885 0.16153 0.0
C2023 C 0.98305 0.45072 0.12851 0.0
C2024 C 0.98286 0.46384 0.14212 0.0
C2025 C 0.97215 0.4732 0.17519 0.0
H2026 H 0.94915 0.53914 0.15665 0.0
H2027 H 0.95123 0.51758 0.18156 0.0
H2028 H 0.98609 0.53517 0.11107 0.0
H2029 H 0.98847 0.51409 0.13597 0.0
H2030 H 0.00492 0.56346 0.21346 0.0
H2031 H 0.99834 0.53732 0.1905 0.0
H2032 H 0.96222 0.52855 0.25876 0.0
H2033 H 0.95589 0.50236 0.23579 0.0
H2034 H 0.00565 0.44482 0.21447 0.0
H2035 H -0.00011 0.46512 0.19202 0.0
H2036 H 0.96174 0.43571 0.25831 0.0
H2037 H 0.95604 0.45612 0.2357 0.0
H2038 H 0.9537 0.41307 0.15777 0.0
H2039 H 0.9531 0.43614 0.18148 0.0
H2040 H 0.99154 0.45507 0.11383 0.0
H2041 H 0.99111 0.47796 0.13755 0.0
N2042 N 0.97095 0.48647 0.16438 0.0
N2043 N 0.97422 0.48852 0.20915 0.0
C2044 C 0.46672 0.42441 0.16017 0.0
C2045 C 0.46043 0.4302 0.1422 0.0
C2046 C 0.48067 0.43709 0.17374 0.0
C2047 C 0.48847 0.45573 0.16951 0.0
C2048 C 0.46867 0.44882 0.13772 0.0
C2049 C 0.48255 0.46142 0.15116 0.0
C2050 C 0.50289 0.46964 0.18372 0.0
C2051 C 0.45316 0.44215 0.22648 0.0
C2052 C 0.455 0.43393 0.24571 0.0
C2053 C 0.4683 0.45373 0.21382 0.0
C2054 C 0.48557 0.45703 0.21985 0.0
C2055 C 0.47233 0.43752 0.252 0.0
C2056 C 0.4875 0.44902 0.23919 0.0
C2057 C 0.50178 0.47 0.20713 0.0
C2058 C 0.55542 0.54644 0.22866 0.0
C2059 C 0.56359 0.54473 0.24802 0.0
C2060 C 0.54459 0.53134 0.21556 0.0
C2061 C 0.54189 0.51424 0.22131 0.0
C2062 C 0.56062 0.52754 0.25401 0.0
C2063 C 0.54978 0.5124 0.2408 0.0
C2064 C 0.52967 0.49813 0.20797 0.0
C2065 C 0.57724 0.53312 0.16351 0.0
C2066 C 0.57248 0.5408 0.14604 0.0
C2067 C 0.56377 0.51909 0.17625 0.0
C2068 C 0.54539 0.51246 0.1715 0.0
C2069 C 0.55409 0.53403 0.1413 0.0
C2070 C 0.54069 0.5199 0.15378 0.0
C2071 C 0.53083 0.49768 0.18462 0.0
H2072 H 0.46065 0.41013 0.16395 0.0
H2073 H 0.48529 0.43237 0.18754 0.0
H2074 H 0.46442 0.4537 0.1237 0.0
H2075 H 0.48847 0.47569 0.14742 0.0
H2076 H 0.44003 0.43997 0.22151 0.0
H2077 H 0.46653 0.46036 0.19954 0.0
H2078 H 0.47415 0.43135 0.26672 0.0
H2079 H 0.50074 0.45165 0.24437 0.0
H2080 H 0.55707 0.5594 0.22389 0.0
H2081 H 0.53801 0.53299 0.20113 0.0
H2082 H 0.56678 0.52582 0.26881 0.0
H2083 H 0.54761 0.49926 0.24574 0.0
H2084 H 0.59133 0.5381 0.16744 0.0
H2085 H 0.56767 0.51336 0.18968 0.0
H2086 H 0.55007 0.53954 0.12772 0.0
H2087 H 0.52661 0.51493 0.14977 0.0
N2088 N 0.51736 0.48353 0.17344 0.0
N2089 N 0.51528 0.48418 0.21835 0.0
C2090 C 0.45743 0.0283 0.2297 0.0
C2091 C 0.44926 0.01386 0.24491 0.0
C2092 C 0.47265 0.03135 0.21749 0.0
C2093 C 0.4797 0.01972 0.21977 0.0
C2094 C 0.45677 0.00265 0.24766 0.0
C2095 C 0.47177 0.00553 0.23521 0.0
C2096 C 0.49561 0.02236 0.20681 0.0
C2097 C 0.45283 0.0124 0.15661 0.0
C2098 C 0.45755 0.02685 0.14186 0.0
C2099 C 0.46588 0.01216 0.17025 0.0
C2100 C 0.48388 0.02653 0.16975 0.0
C2101 C 0.47564 0.04106 0.14108 0.0
C2102 C 0.48869 0.04086 0.15486 0.0
C2103 C 0.49787 0.02616 0.1838 0.0
C2104 C 0.55603 0.01039 0.15855 0.0
C2105 C 0.56527 0.02375 0.1423 0.0
C2106 C 0.54345 0.01125 0.17256 0.0
C2107 C 0.54016 0.02575 0.17106 0.0
C2108 C 0.56203 0.03832 0.1409 0.0
C2109 C 0.54954 0.03925 0.15509 0.0
C2110 C 0.52571 0.02593 0.1845 0.0
C2111 C 0.5666 0.02778 0.23305 0.0
C2112 C 0.55963 0.01256 0.24706 0.0
C2113 C 0.55494 0.03113 0.22027 0.0
C2114 C 0.53614 0.01924 0.22115 0.0
C2115 C 0.54078 0.00102 0.24837 0.0
C2116 C 0.52918 0.00438 0.23562 0.0
C2117 C 0.52345 0.02217 0.20751 0.0
H2118 H 0.452 0.03718 0.22702 0.0
H2119 H 0.47886 0.04279 0.20628 0.0
H2120 H 0.45119 0.9917 0.25961 0.0
H2121 H 0.47711 0.99652 0.23756 0.0
H2122 H 0.4391 0.00104 0.15721 0.0
H2123 H 0.46195 0.00063 0.18102 0.0
H2124 H 0.47968 0.05238 0.12992 0.0
H2125 H 0.50255 0.05196 0.154 0.0
H2126 H 0.55829 0.99906 0.16025 0.0
H2127 H 0.53596 0.00029 0.18417 0.0
H2128 H 0.56868 0.04868 0.12836 0.0
H2129 H 0.54699 0.05039 0.15335 0.0
H2130 H 0.58106 0.03689 0.23164 0.0
H2131 H 0.56062 0.04295 0.20964 0.0
H2132 H 0.53497 0.98938 0.25929 0.0
H2133 H 0.51471 0.99513 0.2368 0.0
N2134 N 0.50848 0.02047 0.21766 0.0
N2135 N 0.5129 0.02793 0.17362 0.0
C2136 C 0.54703 0.99479 0.79331 0.0
C2137 C 0.54501 0.98499 0.7737 0.0
C2138 C 0.53204 0.99069 0.80658 0.0
C2139 C 0.51477 0.97655 0.80069 0.0
C2140 C 0.52768 0.97091 0.76774 0.0
C2141 C 0.51267 0.96682 0.78105 0.0
C2142 C 0.49875 0.97274 0.81411 0.0
C2143 C 0.53365 0.95939 0.85663 0.0
C2144 C 0.54071 0.97078 0.87526 0.0
C2145 C 0.51961 0.95902 0.84429 0.0
C2146 C 0.51244 0.97005 0.85038 0.0
C2147 C 0.53319 0.98145 0.88157 0.0
C2148 C 0.51914 0.98101 0.86933 0.0
C2149 C 0.49791 0.97031 0.83736 0.0
C2150 C 0.42281 0.95667 0.85979 0.0
C2151 C 0.42724 0.96794 0.87855 0.0
C2152 C 0.43649 0.95682 0.84678 0.0
C2153 C 0.4548 0.96832 0.85229 0.0
C2154 C 0.44554 0.97889 0.88444 0.0
C2155 C 0.45915 0.97901 0.8715 0.0
C2156 C 0.46961 0.96955 0.83826 0.0
C2157 C 0.44109 0.99151 0.79743 0.0
C2158 C 0.43465 0.98316 0.77666 0.0
C2159 C 0.45268 0.98796 0.80993 0.0
C2160 C 0.45761 0.97547 0.80237 0.0
C2161 C 0.43996 0.97096 0.7689 0.0
C2162 C 0.45131 0.96717 0.78163 0.0
C2163 C 0.47054 0.97219 0.815 0.0
H2164 H 0.56021 0.00562 0.79844 0.0
H2165 H 0.53393 0.99875 0.82132 0.0
H2166 H 0.52566 0.96328 0.75259 0.0
H2167 H 0.4994 0.95606 0.77602 0.0
H2168 H 0.53917 0.95101 0.8514 0.0
H2169 H 0.51439 0.95016 0.82998 0.0
H2170 H 0.53811 0.99009 0.89609 0.0
H2171 H 0.51371 0.9895 0.87447 0.0
H2172 H 0.40883 0.94807 0.85488 0.0
H2173 H 0.4328 0.94815 0.83229 0.0
H2174 H 0.44936 0.98743 0.89906 0.0
H2175 H 0.47316 0.98782 0.87623 0.0
H2176 H 0.4372 0.00084 0.80412 0.0
H2177 H 0.45795 0.99521 0.82539 0.0
H2178 H 0.43565 0.96457 0.75279 0.0
H2179 H 0.45526 0.95781 0.77519 0.0
N2180 N 0.48499 0.97347 0.80384 0.0
N2181 N 0.48341 0.96888 0.84851 0.0
C2182 C 0.0013 0.55483 0.79202 0.0
C2183 C 0.00976 0.56144 0.77137 0.0
C2184 C 0.00527 0.54361 0.8047 0.0
C2185 C 0.01805 0.53905 0.79718 0.0
C2186 C 0.02223 0.55652 0.76364 0.0
C2187 C 0.02628 0.54537 0.7764 0.0
C2188 C 0.02204 0.52681 0.81019 0.0
C2189 C 0.03988 0.57663 0.85244 0.0
C2190 C 0.03155 0.57318 0.87342 0.0
C2191 C 0.03817 0.56234 0.83924 0.0
C2192 C 0.02773 0.54433 0.84659 0.0
C2193 C 0.02138 0.5552 0.88084 0.0
C2194 C 0.01952 0.54096 0.86759 0.0
C2195 C 0.0258 0.52887 0.8332 0.0
C2196 C 0.04092 0.46842 0.85392 0.0
C2197 C 0.03175 0.46294 0.87437 0.0
C2198 C 0.03923 0.48085 0.84049 0.0
C2199 C 0.02809 0.48776 0.84712 0.0
C2200 C 0.02082 0.47009 0.88103 0.0
C2201 C 0.01908 0.4824 0.8676 0.0
C2202 C 0.02609 0.50105 0.83345 0.0
C2203 C 0.00307 0.45019 0.79242 0.0
C2204 C 0.01137 0.45225 0.77157 0.0
C2205 C 0.0067 0.46533 0.80515 0.0
C2206 C 0.01902 0.48285 0.79755 0.0
C2207 C 0.02346 0.46983 0.76386 0.0
C2208 C 0.0272 0.48496 0.77669 0.0
C2209 C 0.02244 0.49905 0.81041 0.0
H2210 H 0.99136 0.55809 0.79821 0.0
H2211 H 0.99821 0.53835 0.82029 0.0
H2212 H 0.02904 0.56148 0.74785 0.0
H2213 H 0.03598 0.54181 0.77013 0.0
H2214 H 0.04797 0.59039 0.84644 0.0
H2215 H 0.04516 0.5654 0.82343 0.0
H2216 H 0.01464 0.55211 0.89683 0.0
H2217 H 0.01149 0.52723 0.87372 0.0
H2218 H 0.04962 0.46333 0.84848 0.0
H2219 H 0.04673 0.48516 0.82505 0.0
H2220 H 0.01337 0.46596 0.89653 0.0
H2221 H 0.01047 0.48758 0.87313 0.0
H2222 H 0.99379 0.43687 0.79897 0.0
H2223 H -0.00029 0.46332 0.82082 0.0
H2224 H 0.02983 0.47194 0.74772 0.0
H2225 H 0.03647 0.49835 0.7703 0.0
N2226 N 0.02069 0.51207 0.7997 0.0
N2227 N 0.02755 0.51584 0.84387 0.0
C2228 C 0.53665 0.57391 0.78033 0.0
C2229 C 0.54404 0.56691 0.76505 0.0
C2230 C 0.521 0.56228 0.79229 0.0
C2231 C 0.51271 0.54342 0.78954 0.0
C2232 C 0.53535 0.5481 0.76175 0.0
C2233 C 0.51984 0.53649 0.77385 0.0
C2234 C 0.49661 0.53067 0.80268 0.0
C2235 C 0.54088 0.55954 0.85342 0.0
C2236 C 0.53724 0.56914 0.86966 0.0
C2237 C 0.52735 0.54785 0.83879 0.0
C2238 C 0.50997 0.54575 0.83986 0.0
C2239 C 0.51989 0.56716 0.87054 0.0
C2240 C 0.50635 0.55548 0.85586 0.0
C2241 C 0.49512 0.53213 0.82589 0.0
C2242 C 0.4368 0.4586 0.85155 0.0
C2243 C 0.42791 0.46261 0.86838 0.0
C2244 C 0.44907 0.47217 0.8374 0.0
C2245 C 0.45244 0.48998 0.83942 0.0
C2246 C 0.43118 0.48043 0.87027 0.0
C2247 C 0.44342 0.49401 0.856 0.0
C2248 C 0.46656 0.50468 0.82569 0.0
C2249 C 0.42293 0.46568 0.78062 0.0
C2250 C 0.42872 0.4572 0.76531 0.0
C2251 C 0.43556 0.48109 0.79218 0.0
C2252 C 0.45421 0.48799 0.78904 0.0
C2253 C 0.44733 0.46469 0.76133 0.0
C2254 C 0.45995 0.47994 0.77309 0.0
C2255 C 0.4679 0.50335 0.80243 0.0
H2256 H 0.54291 0.58838 0.78291 0.0
H2257 H 0.51544 0.56803 0.80372 0.0
H2258 H 0.54079 0.54231 0.75021 0.0
H2259 H 0.51364 0.52201 0.77131 0.0
H2260 H 0.55413 0.56085 0.85221 0.0
H2261 H 0.53035 0.54011 0.82703 0.0
H2262 H 0.51657 0.57415 0.88306 0.0
H2263 H 0.49295 0.55382 0.8572 0.0
H2264 H 0.43449 0.445 0.84951 0.0
H2265 H 0.45624 0.46879 0.82521 0.0
H2266 H 0.42478 0.48403 0.88327 0.0
H2267 H 0.44605 0.50772 0.85809 0.0
H2268 H 0.40863 0.46034 0.78369 0.0
H2269 H 0.43075 0.48742 0.80381 0.0
H2270 H 0.45217 0.45838 0.74969 0.0
H2271 H 0.47424 0.48509 0.77021 0.0
N2272 N 0.48293 0.51633 0.79192 0.0
N2273 N 0.48012 0.51912 0.83643 0.0
C2274 C 0.65011 0.77454 0.49404 0.0
C2275 C 0.63514 0.76424 0.48018 0.0
C2276 C 0.65068 0.78806 0.50766 0.0
C2277 C 0.63615 0.79136 0.50801 0.0
C2278 C 0.6207 0.76771 0.48035 0.0
C2279 C 0.62124 0.7812 0.49409 0.0
C2280 C 0.63695 0.80612 0.52178 0.0
C2281 C 0.63739 0.76543 0.5685 0.0
C2282 C 0.65281 0.7724 0.58212 0.0
C2283 C 0.63359 0.77709 0.55645 0.0
C2284 C 0.64539 0.79592 0.55739 0.0
C2285 C 0.66426 0.79125 0.58358 0.0
C2286 C 0.66058 0.80287 0.57135 0.0
C2287 C 0.64193 0.80861 0.54445 0.0
C2288 C 0.63486 0.87343 0.56978 0.0
C2289 C 0.65033 0.88252 0.58323 0.0
C2290 C 0.63172 0.85824 0.55743 0.0
C2291 C 0.64418 0.85209 0.558 0.0
C2292 C 0.66248 0.876 0.58428 0.0
C2293 C 0.65941 0.86092 0.57183 0.0
C2294 C 0.64138 0.83627 0.54476 0.0
C2295 C 0.64883 0.87852 0.49486 0.0
C2296 C 0.63389 0.87354 0.48086 0.0
C2297 C 0.64958 0.8657 0.50846 0.0
C2298 C 0.63529 0.84767 0.50862 0.0
C2299 C 0.61962 0.85545 0.481 0.0
C2300 C 0.62036 0.84263 0.49467 0.0
C2301 C 0.63645 0.83381 0.52209 0.0
H2302 H 0.66163 0.77249 0.49391 0.0
H2303 H 0.66263 0.79615 0.51764 0.0
H2304 H 0.60897 0.75997 0.46989 0.0
H2305 H 0.60999 0.78367 0.49389 0.0
H2306 H 0.62816 0.75096 0.56738 0.0
H2307 H 0.62143 0.77138 0.54644 0.0
H2308 H 0.67629 0.79699 0.59385 0.0
H2309 H 0.6698 0.81735 0.57252 0.0
H2310 H 0.6251 0.87796 0.56896 0.0
H2311 H 0.61955 0.85131 0.54749 0.0
H2312 H 0.67459 0.8828 0.59436 0.0
H2313 H 0.66914 0.85635 0.57268 0.0
H2314 H 0.66025 0.89223 0.49478 0.0
H2315 H 0.66154 0.86981 0.51848 0.0
H2316 H 0.60788 0.8512 0.4705 0.0
H2317 H 0.60927 0.82875 0.49435 0.0
N2318 N 0.63428 0.81876 0.51155 0.0
N2319 N 0.64401 0.82361 0.55496 0.0
C2320 C 0.13675 0.7577 0.4954 0.0
C2321 C 0.13216 0.76194 0.47475 0.0
C2322 C 0.14869 0.77153 0.5097 0.0
C2323 C 0.15593 0.7898 0.50372 0.0
C2324 C 0.13947 0.78021 0.46888 0.0
C2325 C 0.15123 0.79394 0.48315 0.0
C2326 C 0.16912 0.8049 0.51786 0.0
C2327 C 0.11802 0.77723 0.55817 0.0
C2328 C 0.11962 0.77107 0.57923 0.0
C2329 C 0.13339 0.78847 0.54563 0.0
C2330 C 0.15072 0.79344 0.55356 0.0
C2331 C 0.13702 0.77625 0.58726 0.0
C2332 C 0.1524 0.78737 0.57457 0.0
C2333 C 0.16713 0.80625 0.54098 0.0
C2334 C 0.2213 0.88371 0.56077 0.0
C2335 C 0.22844 0.882 0.58105 0.0
C2336 C 0.2104 0.86847 0.54781 0.0
C2337 C 0.20669 0.85122 0.55462 0.0
C2338 C 0.22442 0.86465 0.588 0.0
C2339 C 0.21359 0.84942 0.57496 0.0
C2340 C 0.19462 0.8349 0.54145 0.0
C2341 C 0.24264 0.86932 0.49639 0.0
C2342 C 0.23772 0.87385 0.47616 0.0
C2343 C 0.22934 0.85633 0.51042 0.0
C2344 C 0.21094 0.84797 0.50458 0.0
C2345 C 0.21931 0.86548 0.4705 0.0
C2346 C 0.20611 0.85268 0.48449 0.0
C2347 C 0.19645 0.83362 0.5183 0.0
H2348 H 0.13139 0.74372 0.50028 0.0
H2349 H 0.15245 0.76795 0.52523 0.0
H2350 H 0.13594 0.78394 0.45329 0.0
H2351 H 0.15659 0.8079 0.47811 0.0
H2352 H 0.10486 0.77339 0.55132 0.0
H2353 H 0.13168 0.79351 0.52988 0.0
H2354 H 0.1388 0.77205 0.60355 0.0
H2355 H 0.16566 0.79134 0.58124 0.0
H2356 H 0.2242 0.89686 0.55482 0.0
H2357 H 0.20474 0.87018 0.53257 0.0
H2358 H 0.22941 0.86278 0.60371 0.0
H2359 H 0.21061 0.8362 0.58075 0.0
H2360 H 0.25674 0.8755 0.5011 0.0
H2361 H 0.23346 0.85264 0.52559 0.0
H2362 H 0.21505 0.86893 0.45525 0.0
H2363 H 0.19203 0.84645 0.47959 0.0
N2364 N 0.18364 0.81868 0.50757 0.0
N2365 N 0.18009 0.82111 0.55188 0.0
C2366 C 0.23823 0.3714 0.49435 0.0
C2367 C 0.23366 0.3592 0.47655 0.0
C2368 C 0.22464 0.37171 0.50705 0.0
C2369 C 0.2063 0.35989 0.50202 0.0
C2370 C 0.21532 0.3476 0.47141 0.0
C2371 C 0.20179 0.34806 0.4839 0.0
C2372 C 0.19163 0.35979 0.5152 0.0
C2373 C 0.21705 0.33683 0.56006 0.0
C2374 C 0.22429 0.3465 0.57989 0.0
C2375 C 0.20635 0.34079 0.54639 0.0
C2376 C 0.2029 0.35473 0.55205 0.0
C2377 C 0.2208 0.36044 0.58555 0.0
C2378 C 0.21011 0.36443 0.57181 0.0
C2379 C 0.19043 0.35806 0.53855 0.0
C2380 C 0.114 0.33931 0.55668 0.0
C2381 C 0.11624 0.3477 0.5775 0.0
C2382 C 0.12898 0.34285 0.54373 0.0
C2383 C 0.14659 0.35538 0.55084 0.0
C2384 C 0.13392 0.36001 0.58477 0.0
C2385 C 0.1489 0.36381 0.57157 0.0
C2386 C 0.16267 0.35841 0.53792 0.0
C2387 C 0.13104 0.37388 0.49205 0.0
C2388 C 0.12341 0.36179 0.47414 0.0
C2389 C 0.14434 0.37358 0.50527 0.0
C2390 C 0.15025 0.36124 0.50066 0.0
C2391 C 0.12962 0.34973 0.46937 0.0
C2392 C 0.143 0.34957 0.48239 0.0
C2393 C 0.164 0.36033 0.51456 0.0
H2394 H 0.25228 0.38049 0.49863 0.0
H2395 H 0.22842 0.38118 0.52074 0.0
H2396 H 0.21142 0.33825 0.45758 0.0
H2397 H 0.18774 0.33892 0.47963 0.0
H2398 H 0.2196 0.32611 0.55511 0.0
H2399 H 0.20045 0.33267 0.53163 0.0
H2400 H 0.22597 0.36798 0.60086 0.0
H2401 H 0.20733 0.37501 0.5767 0.0
H2402 H 0.10065 0.32991 0.55033 0.0
H2403 H 0.12673 0.33544 0.52835 0.0
H2404 H 0.13626 0.36646 0.60088 0.0
H2405 H 0.16235 0.37321 0.57769 0.0
H2406 H 0.1265 0.38333 0.49603 0.0
H2407 H 0.14997 0.38291 0.51909 0.0
H2408 H 0.12418 0.34047 0.45545 0.0
H2409 H 0.14747 0.34005 0.47844 0.0
N2410 N 0.17834 0.3608 0.50414 0.0
N2411 N 0.17606 0.35753 0.54898 0.0
C2412 C 0.97697 0.3925 0.11382 0.0
C2413 C 0.97689 0.39443 0.09063 0.0
H2414 H 0.97559 0.40294 0.14574 0.0
C2415 C 0.97423 0.40815 0.08191 0.0
H2416 H 0.97883 0.38195 0.12103 0.0
C2417 C 0.9723 0.42006 0.096 0.0
C2418 C 0.97297 0.41852 0.11916 0.0
H2419 H 0.97429 0.41015 0.06415 0.0
H2420 H 0.97056 0.43067 0.08875 0.0
C2421 C 0.97495 0.4044 0.12796 0.0
C2422 C 0.59706 0.58421 0.11311 0.0
C2423 C 0.61063 0.58226 0.10246 0.0
H2424 H 0.5744 0.5726 0.13532 0.0
C2425 C 0.61245 0.5672 0.1076 0.0
H2426 H 0.59519 0.59555 0.10932 0.0
C2427 C 0.60055 0.55407 0.12258 0.0
C2428 C 0.58648 0.55566 0.13239 0.0
H2429 H 0.62285 0.56541 0.09969 0.0
H2430 H 0.60187 0.54231 0.12577 0.0
C2431 C 0.58506 0.57101 0.12784 0.0
C2432 C 0.43421 0.02966 0.08977 0.0
C2433 C 0.41651 0.02358 0.09748 0.0
H2434 H 0.46097 0.03531 0.09768 0.0
C2435 C 0.41275 0.01966 0.12019 0.0
H2436 H 0.43752 0.03254 0.07234 0.0
C2437 C 0.42618 0.02115 0.13469 0.0
C2438 C 0.4437 0.02666 0.12683 0.0
H2439 H 0.39936 0.01525 0.12675 0.0
H2440 H 0.42281 0.01786 0.15205 0.0
C2441 C 0.44766 0.03121 0.10429 0.0
C2442 C 0.38422 0.9537 0.91165 0.0
C2443 C 0.38708 0.97052 0.91927 0.0
H2444 H 0.39469 0.93966 0.89272 0.0
C2445 C 0.40283 0.98639 0.9126 0.0
H2446 H 0.37216 0.94124 0.9164 0.0
C2447 C 0.4156 0.98549 0.89905 0.0
C2448 C 0.41299 0.9687 0.89184 0.0
H2449 H 0.40561 -0.00045 0.91841 0.0
H2450 H 0.42764 0.99799 0.89436 0.0
C2451 C 0.39703 0.9528 0.89798 0.0
C2452 C 0.03478 0.43912 0.92578 0.0
C2453 C 0.03306 0.4231 0.91688 0.0
H2454 H 0.036 0.46431 0.91936 0.0
C2455 C 0.03211 0.42084 0.89367 0.0
H2456 H 0.03533 0.44125 0.94356 0.0
C2457 C 0.03228 0.43403 0.87977 0.0
C2458 C 0.03331 0.44971 0.88879 0.0
H2459 H 0.03096 0.40874 0.88627 0.0
H2460 H 0.03096 0.43164 0.86202 0.0
C2461 C 0.03492 0.45225 0.91192 0.0
C2462 C 0.56652 0.60736 0.90952 0.0
C2463 C 0.57696 0.60078 0.91942 0.0
H2464 H 0.54582 0.60258 0.88591 0.0
C2465 C 0.57451 0.58399 0.91244 0.0
H2466 H 0.56803 0.62022 0.91462 0.0
C2467 C 0.56178 0.57388 0.89618 0.0
C2468 C 0.55118 0.58032 0.88642 0.0
H2469 H 0.58252 0.57865 0.9195 0.0
H2470 H 0.56002 0.56084 0.89153 0.0
C2471 C 0.5537 0.5972 0.89323 0.0
C2472 C 0.03001 0.61462 0.89296 0.0
C2473 C 0.03292 0.6144 0.91591 0.0
H2474 H 0.02742 0.60178 0.86144 0.0
C2475 C 0.03669 0.60134 0.9244 0.0
H2476 H 0.02719 0.6246 0.88593 0.0
C2477 C 0.0368 0.58834 0.91044 0.0
C2478 C 0.03324 0.58814 0.88766 0.0
H2479 H 0.03879 0.60065 0.94202 0.0
H2480 H 0.03934 0.57819 0.91757 0.0
C2481 C 0.03026 0.60166 0.87894 0.0
C2482 C 0.38942 0.4341 0.9084 0.0
C2483 C 0.39499 0.42244 0.91713 0.0
H2484 H 0.39539 0.45592 0.88602 0.0
C2485 C 0.41108 0.42375 0.90918 0.0
H2486 H 0.37712 0.43347 0.91426 0.0
C2487 C 0.42157 0.43663 0.89325 0.0
C2488 C 0.41621 0.44851 0.88473 0.0
H2489 H 0.41563 0.41479 0.9153 0.0
H2490 H 0.43411 0.4375 0.88795 0.0
C2491 C 0.39996 0.44706 0.8924 0.0
C2492 C 0.56958 0.95675 0.90803 0.0
C2493 C 0.58359 0.97359 0.91562 0.0
H2494 H 0.54502 0.94264 0.88922 0.0
C2495 C 0.58384 0.98945 0.90885 0.0
H2496 H 0.56909 0.94431 0.91286 0.0
C2497 C 0.57016 0.98849 0.89533 0.0
C2498 C 0.55588 0.97167 0.88823 0.0
H2499 H 0.59429 0.00262 0.91461 0.0
H2500 H 0.57064 0.00096 0.89063 0.0
C2501 C 0.55589 0.95581 0.89438 0.0
C2502 C 0.58365 0.00289 0.10179 0.0
C2503 C 0.59973 0.01806 0.09435 0.0
H2504 H 0.56013 0.99282 0.12225 0.0
C2505 C 0.60466 0.03518 0.10318 0.0
H2506 H 0.57957 0.98945 0.09565 0.0
C2507 C 0.59361 0.03708 0.11888 0.0
C2508 C 0.57742 0.02189 0.12611 0.0
H2509 H 0.6169 0.04716 0.09771 0.0
H2510 H 0.59779 0.05043 0.12543 0.0
C2511 C 0.57261 0.00479 0.11736 0.0
C2512 C 0.96952 0.5809 0.10854 0.0
C2513 C 0.96869 0.5775 0.08558 0.0
H2514 H 0.96977 0.5712 0.1413 0.0
C2515 C 0.96532 0.56045 0.07824 0.0
H2516 H 0.97223 0.59395 0.11469 0.0
C2517 C 0.96401 0.54754 0.09341 0.0
C2518 C 0.96599 0.55135 0.11627 0.0
H2519 H 0.96425 0.5573 0.06068 0.0
H2520 H 0.96195 0.53473 0.0872 0.0
C2521 C 0.96815 0.56791 0.12377 0.0
C2522 C 0.43148 0.39037 0.10429 0.0
C2523 C 0.41869 0.39492 0.09683 0.0
H2524 H 0.45493 0.39813 0.12451 0.0
C2525 C 0.41875 0.41007 0.10599 0.0
H2526 H 0.43172 0.37875 0.09747 0.0
C2527 C 0.43187 0.42103 0.12139 0.0
C2528 C 0.44531 0.41714 0.12797 0.0
H2529 H 0.40878 0.41365 0.10095 0.0
H2530 H 0.4317 0.43279 0.12785 0.0
C2531 C 0.44472 0.40143 0.11975 0.0
C2532 C 0.64249 0.72697 0.45746 0.0
C2533 C 0.63759 0.7263 0.43505 0.0
H2534 H 0.64531 0.73927 0.48934 0.0
C2535 C 0.6308 0.73743 0.42797 0.0
H2536 H 0.64746 0.71836 0.46355 0.0
C2537 C 0.62952 0.74936 0.44277 0.0
C2538 C 0.63503 0.75047 0.46497 0.0
H2539 H 0.62715 0.73746 0.41077 0.0
H2540 H 0.62486 0.75821 0.4366 0.0
C2541 C 0.64125 0.73894 0.47223 0.0
C2542 C 0.26099 0.89735 0.42287 0.0
C2543 C 0.27419 0.91452 0.43053 0.0
H2544 H 0.23944 0.87094 0.43134 0.0
C2545 C 0.2767 0.9176 0.45353 0.0
H2546 H 0.25901 0.89448 0.40524 0.0
C2547 C 0.26541 0.90408 0.46855 0.0
C2548 C 0.25147 0.88729 0.46077 0.0
H2549 H 0.28674 0.93074 0.45988 0.0
H2550 H 0.26698 0.90708 0.48616 0.0
C2551 C 0.24979 0.88389 0.43781 0.0
C2552 C 0.08054 0.34456 0.44048 0.0
C2553 C 0.08279 0.36058 0.43102 0.0
H2554 H 0.0916 0.33244 0.4616 0.0
C2555 C 0.09804 0.3772 0.43686 0.0
H2556 H 0.06904 0.33152 0.4361 0.0
C2557 C 0.11099 0.37772 0.45151 0.0
C2558 C 0.10901 0.3616 0.46029 0.0
H2559 H 0.10007 0.38976 0.42987 0.0
H2560 H 0.12284 0.39064 0.45535 0.0
C2561 C 0.09353 0.34506 0.45489 0.0
C2562 C 0.05678 0.29344 0.24223 0.0
C2563 C 0.06096 0.31069 0.24988 0.0
H2564 H 0.06563 0.27789 0.22355 0.0
C2565 C 0.0775 0.32581 0.24349 0.0
H2566 H 0.04409 0.28153 0.24672 0.0
C2567 C 0.08968 0.32374 0.23013 0.0
C2568 C 0.08573 0.30649 0.2229 0.0
H2569 H 0.08132 0.33927 0.24931 0.0
H2570 H 0.1023 0.3357 0.22559 0.0
C2571 C 0.06903 0.29136 0.22881 0.0
C2572 C 0.70594 0.75841 0.2419 0.0
C2573 C 0.6888 0.7451 0.24965 0.0
H2574 H 0.72094 0.78203 0.22164 0.0
C2575 C 0.67333 0.74493 0.24145 0.0
H2576 H 0.71811 0.75881 0.24775 0.0
C2577 C 0.67494 0.75807 0.22646 0.0
C2578 C 0.69207 0.77176 0.21932 0.0
H2579 H 0.65993 0.73503 0.24725 0.0
H2580 H 0.66276 0.75772 0.22077 0.0
C2581 C 0.70756 0.77159 0.2268 0.0
C2582 C 0.24462 0.94877 0.2371 0.0
C2583 C 0.24275 0.94672 0.2603 0.0
H2584 H 0.23315 0.93778 0.20523 0.0
C2585 C 0.22686 0.93208 0.26906 0.0
H2586 H 0.25661 0.95999 0.22981 0.0
C2587 C 0.21341 0.91955 0.25504 0.0
C2588 C 0.21551 0.92123 0.23188 0.0
H2589 H 0.22503 0.92987 0.2868 0.0
H2590 H 0.20143 0.90836 0.2624 0.0
C2591 C 0.23111 0.93616 0.22302 0.0
C2592 C 0.67568 0.91875 0.24692 0.0
C2593 C 0.69097 0.93427 0.2552 0.0
H2594 H 0.66548 0.89565 0.2257 0.0
C2595 C 0.70818 0.93891 0.247 0.0
H2596 H 0.6622 0.91511 0.25252 0.0
C2597 C 0.71009 0.92765 0.23159 0.0
C2598 C 0.69479 0.91166 0.22415 0.0
H2599 H 0.72018 0.95083 0.2531 0.0
H2600 H 0.72354 0.93108 0.22617 0.0
C2601 C 0.67756 0.90762 0.23156 0.0
C2602 C 0.0522 0.7511 0.23765 0.0
C2603 C 0.05303 0.75348 0.26083 0.0
H2604 H 0.06347 0.7629 0.206 0.0
C2605 C 0.06533 0.77056 0.26969 0.0
H2606 H 0.04275 0.73812 0.23034 0.0
C2607 C 0.07714 0.78467 0.25581 0.0
C2608 C 0.07685 0.78207 0.23274 0.0
H2609 H 0.06644 0.7728 0.28747 0.0
H2610 H 0.08684 0.79753 0.26318 0.0
C2611 C 0.06394 0.7653 0.22372 0.0
C2612 C 0.23655 0.28951 0.24684 0.0
C2613 C 0.25174 0.3064 0.25199 0.0
H2614 H 0.21156 0.27529 0.22882 0.0
C2615 C 0.25365 0.32205 0.24181 0.0
H2616 H 0.23479 0.27723 0.2544 0.0
C2617 C 0.2404 0.32095 0.22736 0.0
C2618 C 0.22501 0.30416 0.22263 0.0
H2619 H 0.26508 0.33528 0.24563 0.0
H2620 H 0.24205 0.33329 0.22012 0.0
C2621 C 0.22336 0.28839 0.23213 0.0
C2622 C 0.27515 0.37318 0.44059 0.0
C2623 C 0.27323 0.35628 0.43517 0.0
H2624 H 0.26418 0.38738 0.45822 0.0
C2625 C 0.25875 0.34052 0.44438 0.0
H2626 H 0.28623 0.38554 0.4338 0.0
C2627 C 0.24617 0.34157 0.45819 0.0
C2628 C 0.24785 0.35839 0.46323 0.0
H2629 H 0.25677 0.32729 0.44031 0.0
H2630 H 0.23499 0.32916 0.46474 0.0
C2631 C 0.26263 0.37424 0.45465 0.0
C2632 C 0.64158 0.91801 0.45711 0.0
C2633 C 0.63646 0.91335 0.43482 0.0
H2634 H 0.64445 0.90905 0.48922 0.0
C2635 C 0.62936 0.89523 0.4282 0.0
H2636 H 0.64684 0.93179 0.46282 0.0
C2637 C 0.62802 0.88221 0.44331 0.0
C2638 C 0.63374 0.88701 0.4654 0.0
H2639 H 0.62556 0.89122 0.41109 0.0
H2640 H 0.62318 0.86855 0.43742 0.0
C2641 C 0.64023 0.90499 0.47222 0.0
C2642 C 0.09023 0.72112 0.45151 0.0
C2643 C 0.0936 0.72367 0.42856 0.0
H2644 H 0.09983 0.73136 0.48426 0.0
C2645 C 0.11055 0.73754 0.42119 0.0
H2646 H 0.07724 0.71059 0.45766 0.0
C2647 C 0.12342 0.74935 0.43634 0.0
C2648 C 0.11962 0.74761 0.45921 0.0
H2649 H 0.11366 0.7396 0.40362 0.0
H2650 H 0.13617 0.76024 0.43008 0.0
C2651 C 0.10314 0.73301 0.46673 0.0
C2652 C 0.29908 0.0719 0.75968 0.0
C2653 C 0.30616 0.06096 0.76644 0.0
H2654 H 0.292 0.09173 0.76903 0.0
C2655 C 0.3105 0.06099 0.78895 0.0
H2656 H 0.29584 0.0724 0.74241 0.0
C2657 C 0.3083 0.07208 0.80422 0.0
C2658 C 0.30171 0.08341 0.79733 0.0
H2659 H 0.3157 0.05249 0.79476 0.0
H2660 H 0.31185 0.07185 0.82142 0.0
C2661 C 0.29688 0.083 0.77495 0.0
C2662 C 0.92122 0.2474 0.77556 0.0
C2663 C 0.93703 0.2481 0.76764 0.0
H2664 H 0.89742 0.23346 0.79549 0.0
C2665 C 0.94112 0.23491 0.77476 0.0
H2666 H 0.9175 0.25714 0.77001 0.0
C2667 C 0.92965 0.22135 0.78961 0.0
C2668 C 0.91378 0.22063 0.7975 0.0
H2669 H 0.95328 0.23518 0.76902 0.0
H2670 H 0.93332 0.21155 0.79507 0.0
C2671 C 0.90971 0.23381 0.79022 0.0
C2672 C 0.76675 0.70906 0.77356 0.0
C2673 C 0.75482 0.69196 0.76444 0.0
H2674 H 0.78904 0.7245 0.79553 0.0
C2675 C 0.75671 0.67712 0.77048 0.0
H2676 H 0.76555 0.72073 0.76934 0.0
C2677 C 0.77016 0.67927 0.78532 0.0
C2678 C 0.78206 0.69633 0.79458 0.0
H2679 H 0.74799 0.66385 0.76337 0.0
H2680 H 0.77144 0.6676 0.78921 0.0
C2681 C 0.78022 0.71121 0.78852 0.0
C2682 C 0.72128 0.62304 0.57432 0.0
C2683 C 0.7269 0.64027 0.5833 0.0
H2684 H 0.7275 0.60715 0.55231 0.0
C2685 C 0.74376 0.6549 0.57686 0.0
H2686 H 0.7083 0.61154 0.57884 0.0
C2687 C 0.75474 0.65239 0.56181 0.0
C2688 C 0.74915 0.6352 0.55274 0.0
H2689 H 0.74868 0.66826 0.58385 0.0
H2690 H 0.76782 0.66391 0.55764 0.0
C2691 C 0.73228 0.62054 0.55916 0.0
C2692 C 0.37891 0.09892 0.5799 0.0
C2693 C 0.36147 0.08493 0.58567 0.0
H2694 H 0.39475 0.1239 0.56233 0.0
C2695 C 0.34635 0.08508 0.57676 0.0
H2696 H 0.39081 0.09909 0.5864 0.0
C2697 C 0.34861 0.09919 0.56303 0.0
C2698 C 0.36602 0.11348 0.55784 0.0
H2699 H 0.33273 0.07463 0.58108 0.0
H2700 H 0.33668 0.09909 0.55677 0.0
C2701 C 0.38117 0.11302 0.56601 0.0
C2702 C 0.91303 0.27648 0.56335 0.0
C2703 C 0.91107 0.2723 0.58615 0.0
H2704 H 0.90267 0.26769 0.53047 0.0
C2705 C 0.89604 0.25595 0.59322 0.0
H2706 H 0.92433 0.28904 0.55734 0.0
C2707 C 0.88355 0.24393 0.57792 0.0
C2708 C 0.88581 0.24778 0.55508 0.0
H2709 H 0.89417 0.2521 0.61056 0.0
H2710 H 0.87217 0.23146 0.58403 0.0
C2711 C 0.90052 0.26434 0.54797 0.0
C2712 C 0.37525 0.27865 0.58883 0.0
C2713 C 0.35759 0.27302 0.59623 0.0
H2714 H 0.39212 0.27231 0.56871 0.0
C2715 C 0.34303 0.25729 0.58718 0.0
H2716 H 0.3867 0.29077 0.59554 0.0
C2717 C 0.34607 0.24688 0.57186 0.0
C2718 C 0.36377 0.2519 0.56529 0.0
H2719 H 0.32924 0.25288 0.59218 0.0
H2720 H 0.33454 0.2347 0.56541 0.0
C2721 C 0.37833 0.26813 0.57348 0.0
C2722 C 0.72096 0.08776 0.56346 0.0
C2723 C 0.7252 0.08986 0.58625 0.0
H2724 H 0.72987 0.0976 0.53043 0.0
C2725 C 0.74176 0.10471 0.59311 0.0
H2726 H 0.70824 0.0766 0.55761 0.0
C2727 C 0.75395 0.11683 0.57764 0.0
C2728 C 0.75006 0.11436 0.55482 0.0
H2729 H 0.74569 0.10668 0.61042 0.0
H2730 H 0.76659 0.12805 0.5836 0.0
C2731 C 0.73327 0.09989 0.5479 0.0
C2732 C 0.89732 0.62209 0.57891 0.0
C2733 C 0.90815 0.6393 0.58842 0.0
H2734 H 0.87616 0.60596 0.55577 0.0
C2735 C 0.90594 0.65372 0.58133 0.0
H2736 H 0.89868 0.61071 0.58412 0.0
C2737 C 0.8931 0.65101 0.56526 0.0
C2738 C 0.88214 0.63381 0.55584 0.0
H2739 H 0.91425 0.66721 0.58809 0.0
H2740 H 0.89158 0.66239 0.56046 0.0
C2741 C 0.88435 0.61935 0.56284 0.0
C2742 C 0.94659 0.71148 0.77479 0.0
C2743 C 0.94177 0.6942 0.76665 0.0
H2744 H 0.93944 0.72713 0.79598 0.0
C2745 C 0.92545 0.6792 0.77382 0.0
H2746 H 0.95913 0.72328 0.76967 0.0
C2747 C 0.91419 0.68139 0.78872 0.0
C2748 C 0.91895 0.69864 0.79692 0.0
H2749 H 0.92112 0.66575 0.76747 0.0
H2750 H 0.90151 0.66956 0.79343 0.0
C2751 C 0.9353 0.71368 0.78981 0.0
C2752 C 0.29261 0.22728 0.76544 0.0
C2753 C 0.29942 0.24516 0.7729 0.0
H2754 H 0.28683 0.20049 0.77329 0.0
C2755 C 0.30463 0.24927 0.79525 0.0
H2756 H 0.28876 0.22371 0.74825 0.0
C2757 C 0.30354 0.23593 0.80964 0.0
C2758 C 0.29721 0.21817 0.80199 0.0
H2759 H 0.3097 0.26285 0.8016 0.0
H2760 H 0.30774 0.23954 0.82673 0.0
C2761 C 0.29152 0.21395 0.77981 0.0
C2762 C 0.75131 0.0768 0.77764 0.0
C2763 C 0.75114 0.06162 0.76837 0.0
H2764 H 0.76462 0.09971 0.79908 0.0
C2765 C 0.76455 0.05762 0.77475 0.0
H2766 H 0.74138 0.08045 0.77271 0.0
C2767 C 0.77783 0.06858 0.79018 0.0
C2768 C 0.77807 0.08387 0.79937 0.0
H2769 H 0.76467 0.04593 0.76793 0.0
H2770 H 0.78784 0.06501 0.79499 0.0
C2771 C 0.76464 0.08782 0.79285 0.0
C2772 C 0.08917 0.34468 0.07825 0.0
C2773 C 0.07468 0.33141 0.06582 0.0
H2774 H 0.11111 0.35076 0.10017 0.0
C2775 C 0.07103 0.31346 0.06648 0.0
H2776 H 0.09235 0.35866 0.07783 0.0
C2777 C 0.0815 0.30879 0.07966 0.0
C2778 C 0.09601 0.32205 0.09224 0.0
H2779 H 0.05976 0.30293 0.05724 0.0
H2780 H 0.07796 0.29472 0.08031 0.0
C2781 C 0.09981 0.34009 0.09116 0.0
C2782 C 0.68682 0.74871 0.06842 0.0
C2783 C 0.66884 0.73721 0.06151 0.0
H2784 H 0.70528 0.77245 0.08664 0.0
C2785 C 0.65555 0.7415 0.06769 0.0
H2786 H 0.69735 0.74565 0.06438 0.0
C2787 C 0.6601 0.75677 0.0807 0.0
C2788 C 0.67805 0.76814 0.08767 0.0
H2789 H 0.64164 0.73312 0.06239 0.0
H2790 H 0.64959 0.75976 0.08518 0.0
C2791 C 0.69138 0.76404 0.08125 0.0
C2792 C 0.24232 0.93422 0.0751 0.0
C2793 C 0.25538 0.92904 0.07174 0.0
H2794 H 0.21751 0.92832 0.091 0.0
C2795 C 0.25279 0.91305 0.08172 0.0
H2796 H 0.24406 0.94661 0.06793 0.0
C2797 C 0.2376 0.9026 0.09498 0.0
C2798 C 0.22466 0.9079 0.09857 0.0
H2799 H 0.26245 0.90853 0.07919 0.0
H2800 H 0.23592 0.89027 0.10228 0.0
C2801 C 0.22713 0.92376 0.08835 0.0
C2802 C 0.32439 0.07871 0.96399 0.0
C2803 C 0.3239 0.06384 0.95329 0.0
H2804 H 0.32105 0.10183 0.96092 0.0
C2805 C 0.31922 0.06082 0.93068 0.0
H2806 H 0.32804 0.08143 0.98136 0.0
C2807 C 0.31522 0.07248 0.919 0.0
C2808 C 0.31595 0.08748 0.92962 0.0
H2809 H 0.31853 0.04934 0.92205 0.0
H2810 H 0.31187 0.06993 0.90153 0.0
C2811 C 0.32053 0.09045 0.95226 0.0
C2812 C 0.94302 0.25739 0.92741 0.0
C2813 C 0.93981 0.26082 0.94931 0.0
H2814 H 0.93338 0.23939 0.89959 0.0
C2815 C 0.92411 0.24774 0.96029 0.0
H2816 H 0.95511 0.26706 0.91858 0.0
C2817 C 0.91182 0.23171 0.94953 0.0
C2818 C 0.91489 0.22841 0.92751 0.0
H2819 H 0.92114 0.25 0.97709 0.0
H2820 H 0.8999 0.22189 0.9585 0.0
C2821 C 0.93069 0.2414 0.91663 0.0
C2822 C 0.74254 0.65977 0.93872 0.0
C2823 C 0.73954 0.67311 0.94811 0.0
H2824 H 0.76032 0.65401 0.92 0.0
C2825 C 0.75289 0.69144 0.94562 0.0
H2826 H 0.73261 0.64553 0.9405 0.0
C2827 C 0.76892 0.6963 0.93412 0.0
C2828 C 0.77195 0.68294 0.92485 0.0
H2829 H 0.7509 0.70207 0.95238 0.0
H2830 H 0.77904 0.71052 0.93276 0.0
C2831 C 0.75853 0.66463 0.9272 0.0
C2832 C 0.92674 0.68335 0.96192 0.0
C2833 C 0.9405 0.68239 0.95028 0.0
H2834 H 0.90447 0.68816 0.96012 0.0
C2835 C 0.94271 0.68635 0.92747 0.0
H2836 H 0.92469 0.68029 0.97949 0.0
C2837 C 0.93121 0.69092 0.91643 0.0
C2838 C 0.91717 0.69145 0.92794 0.0
H2839 H 0.95334 0.68591 0.91814 0.0
H2840 H 0.933 0.69357 0.89875 0.0
C2841 C 0.91512 0.68774 0.95083 0.0
C2842 C 0.32335 0.24563 0.96489 0.0
C2843 C 0.32548 0.26075 0.9531 0.0
H2844 H 0.31736 0.21808 0.96308 0.0
C2845 C 0.3224 0.25933 0.93009 0.0
H2846 H 0.3257 0.24644 0.98264 0.0
C2847 C 0.3174 0.24311 0.91902 0.0
C2848 C 0.31568 0.22812 0.9307 0.0
H2849 H 0.32383 0.27078 0.92069 0.0
H2850 H 0.3153 0.24241 0.90122 0.0
C2851 C 0.31866 0.22949 0.95374 0.0
C2852 C 0.74579 0.05737 0.93765 0.0
C2853 C 0.74198 0.06282 0.95798 0.0
H2854 H 0.76335 0.06481 0.90949 0.0
C2855 C 0.75412 0.0801 0.96632 0.0
H2856 H 0.73651 0.04415 0.93078 0.0
C2857 C 0.76973 0.09183 0.9544 0.0
C2858 C 0.77335 0.08665 0.93366 0.0
H2859 H 0.75155 0.08451 0.9821 0.0
H2860 H 0.77892 0.10497 0.96149 0.0
C2861 C 0.76123 0.0692 0.92553 0.0
C2862 C 0.67394 0.93021 0.0906 0.0
C2863 C 0.67045 0.92723 0.06769 0.0
H2864 H 0.68144 0.92216 0.1205 0.0
C2865 C 0.67258 0.91365 0.05726 0.0
H2866 H 0.67293 0.94085 0.0991 0.0
C2867 C 0.67775 0.90312 0.06955 0.0
C2868 C 0.68076 0.90586 0.09252 0.0
H2869 H 0.66986 0.91088 0.03971 0.0
H2870 H 0.67892 0.89251 0.06121 0.0
C2871 C 0.67893 0.91959 0.10287 0.0
C2872 C 0.06593 0.74073 0.09596 0.0
C2873 C 0.06868 0.74164 0.07286 0.0
H2874 H 0.07337 0.75486 0.12699 0.0
C2875 C 0.08146 0.75824 0.06333 0.0
H2876 H 0.05591 0.72825 0.10377 0.0
C2877 C 0.09144 0.77352 0.07665 0.0
C2878 C 0.08883 0.77251 0.09978 0.0
H2879 H 0.08402 0.75933 0.04561 0.0
H2880 H 0.10148 0.78601 0.06889 0.0
C2881 C 0.0759 0.75598 0.10927 0.0
C2882 C 0.25673 0.34341 0.07079 0.0
C2883 C 0.26055 0.33015 0.06304 0.0
H2884 H 0.2391 0.34916 0.08998 0.0
C2885 C 0.24863 0.31191 0.06857 0.0
H2886 H 0.26542 0.35753 0.0665 0.0
C2887 C 0.23346 0.30711 0.0819 0.0
C2888 C 0.22997 0.32046 0.09011 0.0
H2889 H 0.25129 0.30137 0.06318 0.0
H2890 H 0.22475 0.29302 0.08632 0.0
C2891 C 0.24165 0.33863 0.08423 0.0
C2892 C 0.72527 0.63858 0.40219 0.0
C2893 C 0.73016 0.65688 0.4 0.0
H2894 H 0.73255 0.6196 0.41441 0.0
C2895 C 0.74669 0.67027 0.40902 0.0
H2896 H 0.71252 0.62791 0.39569 0.0
C2897 C 0.75802 0.66549 0.42004 0.0
C2898 C 0.75314 0.6472 0.42225 0.0
H2899 H 0.75096 0.68449 0.40744 0.0
H2900 H 0.77053 0.67615 0.42709 0.0
C2901 C 0.73664 0.6338 0.41318 0.0
C2902 C 0.36236 0.09329 0.40739 0.0
C2903 C 0.34407 0.08052 0.40345 0.0
H2904 H 0.38129 0.11816 0.42329 0.0
C2905 C 0.33064 0.08384 0.41177 0.0
H2906 H 0.373 0.091 0.40136 0.0
C2907 C 0.33537 0.09937 0.42422 0.0
C2908 C 0.35364 0.11191 0.42873 0.0
H2909 H 0.31644 0.07439 0.40865 0.0
H2910 H 0.32469 0.10155 0.43036 0.0
C2911 C 0.36711 0.10883 0.41993 0.0
C2912 C 0.91173 0.25485 0.38571 0.0
C2913 C 0.9279 0.26699 0.39662 0.0
H2914 H 0.88413 0.23361 0.38902 0.0
C2915 C 0.92819 0.26731 0.41996 0.0
H2916 H 0.91113 0.25416 0.36774 0.0
C2917 C 0.91276 0.25559 0.4321 0.0
C2918 C 0.89667 0.24326 0.42122 0.0
H2919 H 0.94031 0.27677 0.42888 0.0
H2920 H 0.91341 0.25627 0.45007 0.0
C2921 C 0.89627 0.2431 0.39788 0.0
C2922 C 0.99522 0.40238 0.25405 0.0
C2923 C 0.99524 0.40322 0.27736 0.0
H2924 H 0.99138 0.41262 0.22343 0.0
C2925 C 0.9912 0.41554 0.2877 0.0
H2926 H 0.9979 0.39278 0.24557 0.0
C2927 C 0.98743 0.42692 0.27498 0.0
C2928 C 0.98761 0.4262 0.25166 0.0
H2929 H 0.99129 0.41664 0.30563 0.0
H2930 H 0.98473 0.43653 0.28341 0.0
C2931 C 0.99146 0.41374 0.24135 0.0
C2932 C 0.5974 0.59291 0.26476 0.0
C2933 C 0.59569 0.59216 0.28801 0.0
H2934 H 0.5889 0.57849 0.23402 0.0
C2935 C 0.58368 0.57553 0.29811 0.0
H2936 H 0.60684 0.6054 0.25648 0.0
C2937 C 0.57342 0.56004 0.28519 0.0
C2938 C 0.57496 0.56089 0.26192 0.0
H2939 H 0.58198 0.57455 0.31598 0.0
H2940 H 0.56398 0.5475 0.29339 0.0
C2941 C 0.58716 0.57747 0.25188 0.0
C2942 C 0.40437 0.98965 0.27578 0.0
C2943 C 0.40254 0.00419 0.28351 0.0
H2944 H 0.42012 0.98121 0.2571 0.0
C2945 C 0.41612 0.02194 0.27818 0.0
H2946 H 0.39432 0.9758 0.27972 0.0
C2947 C 0.43124 0.02508 0.26574 0.0
C2948 C 0.43307 0.01054 0.258 0.0
H2949 H 0.41506 0.0335 0.28345 0.0
H2950 H 0.44159 0.03896 0.26244 0.0
C2951 C 0.41936 0.99278 0.26306 0.0
C2952 C 0.57996 0.98645 0.27295 0.0
C2953 C 0.5953 0.00021 0.28377 0.0
H2954 H 0.55688 0.9796 0.25271 0.0
C2955 C 0.59871 0.0181 0.28273 0.0
H2956 H 0.57687 0.97251 0.27361 0.0
C2957 C 0.58715 0.02216 0.27085 0.0
C2958 C 0.5719 0.0084 0.25989 0.0
H2959 H 0.61051 0.02902 0.29073 0.0
H2960 H 0.5901 0.03606 0.27034 0.0
C2961 C 0.56841 0.9905 0.26116 0.0
C2962 C 0.99766 0.59585 0.25633 0.0
C2963 C 0.99764 0.59439 0.27957 0.0
H2964 H 0.99298 0.58236 0.22502 0.0
C2965 C 0.99293 0.57757 0.28905 0.0
H2966 H 0.00092 0.60855 0.24854 0.0
C2967 C 0.98846 0.56256 0.27557 0.0
C2968 C 0.9885 0.56401 0.2523 0.0
H2969 H 0.99297 0.57608 0.30691 0.0
H2970 H 0.98528 0.54989 0.2834 0.0
C2971 C 0.9931 0.58083 0.24285 0.0
C2972 C 0.40729 0.39808 0.26146 0.0
C2973 C 0.4075 0.39991 0.28469 0.0
H2974 H 0.42216 0.40722 0.23104 0.0
C2975 C 0.42369 0.41266 0.2951 0.0
H2976 H 0.3952 0.3881 0.25294 0.0
C2977 C 0.43922 0.42352 0.2825 0.0
C2978 C 0.43885 0.4219 0.25925 0.0
H2979 H 0.42427 0.41453 0.31293 0.0
H2980 H 0.45139 0.4335 0.29091 0.0
C2981 C 0.42276 0.40898 0.2489 0.0
C2982 C 0.34872 0.25702 0.39699 0.0
C2983 C 0.34386 0.26881 0.40718 0.0
H2984 H 0.35721 0.23754 0.40156 0.0
C2985 C 0.34466 0.27037 0.43045 0.0
H2986 H 0.34809 0.25538 0.37912 0.0
C2987 C 0.34984 0.26015 0.44327 0.0
C2988 C 0.35442 0.24817 0.43313 0.0
H2989 H 0.34143 0.27962 0.43881 0.0
H2990 H 0.35036 0.26171 0.46115 0.0
C2991 C 0.35396 0.24682 0.40984 0.0
C2992 C 0.75149 0.07444 0.4017 0.0
C2993 C 0.73455 0.07143 0.39453 0.0
H2994 H 0.77605 0.09188 0.41907 0.0
C2995 C 0.72971 0.08459 0.39918 0.0
H2996 H 0.75578 0.06475 0.39803 0.0
C2997 C 0.74137 0.10019 0.41119 0.0
C2998 C 0.75808 0.10292 0.41886 0.0
H2999 H 0.71667 0.08259 0.39414 0.0
H3000 H 0.73707 0.10984 0.41505 0.0
C3001 C 0.7631 0.08998 0.41374 0.0
C3002 C 0.91103 0.65101 0.39085 0.0
C3003 C 0.92504 0.65074 0.4027 0.0
H3004 H 0.88414 0.64682 0.39178 0.0
C3005 C 0.92212 0.64524 0.42504 0.0
H3006 H 0.9129 0.65529 0.37366 0.0
C3007 C 0.9057 0.64049 0.43545 0.0
C3008 C 0.89185 0.64119 0.42375 0.0
H3009 H 0.93258 0.64468 0.43453 0.0
H3010 H 0.90403 0.63674 0.45283 0.0
C3011 C 0.89463 0.64632 0.40128 0.0
C3012 C 0.39743 0.97777 0.7374 0.0
C3013 C 0.39952 0.99514 0.73797 0.0
H3014 H 0.40639 0.96015 0.74969 0.0
C3015 C 0.41334 0.00863 0.75098 0.0
H3016 H 0.38673 0.96709 0.72765 0.0
C3017 C 0.42488 0.00482 0.76323 0.0
C3018 C 0.42264 0.98733 0.76309 0.0
H3019 H 0.41533 0.02219 0.75147 0.0
H3020 H 0.43565 0.01569 0.77267 0.0
C3021 C 0.40876 0.97385 0.74997 0.0
C3022 C 0.98586 0.40579 0.74461 0.0
C3023 C -0.00037 0.40524 0.73245 0.0
H3024 H 0.97864 0.42116 0.76601 0.0
C3025 C 0.01721 0.42034 0.73291 0.0
H3026 H 0.97214 0.39441 0.74434 0.0
C3027 C 0.02102 0.43559 0.74554 0.0
C3028 C 0.00728 0.43613 0.75787 0.0
H3029 H 0.02814 0.42018 0.72394 0.0
H3030 H 0.03482 0.44681 0.74601 0.0
C3031 C 0.98963 0.42108 0.7571 0.0
C3032 C 0.57869 0.58772 0.71878 0.0
C3033 C 0.59373 0.60139 0.73013 0.0
H3034 H 0.55114 0.56615 0.72091 0.0
C3035 C 0.59218 0.6039 0.75294 0.0
H3036 H 0.57952 0.58543 0.70123 0.0
C3037 C 0.57595 0.59291 0.76418 0.0
C3038 C 0.56099 0.57909 0.75289 0.0
H3039 H 0.60349 0.61446 0.76206 0.0
H3040 H 0.57521 0.59501 0.78181 0.0
C3041 C 0.56251 0.57663 0.73006 0.0
C3042 C 0.66671 0.75212 0.62865 0.0
C3043 C 0.66604 0.73712 0.61806 0.0
H3044 H 0.66302 0.77503 0.62555 0.0
C3045 C 0.66076 0.73368 0.59567 0.0
H3046 H 0.67081 0.75513 0.64586 0.0
C3047 C 0.65624 0.745 0.5841 0.0
C3048 C 0.65708 0.7601 0.59461 0.0
H3049 H 0.65994 0.7221 0.58717 0.0
H3050 H 0.65235 0.7421 0.56681 0.0
C3051 C 0.66237 0.76355 0.617 0.0
C3052 C 0.2469 0.92761 0.60966 0.0
C3053 C 0.2622 0.92935 0.62061 0.0
H3054 H 0.22404 0.91117 0.58903 0.0
C3055 C 0.26619 0.91533 0.61872 0.0
H3056 H 0.24338 0.93811 0.61102 0.0
C3057 C 0.25521 0.89996 0.60598 0.0
C3058 C 0.23995 0.89823 0.5949 0.0
H3059 H 0.27806 0.91643 0.62667 0.0
H3060 H 0.25892 0.88961 0.60445 0.0
C3061 C 0.23587 0.9122 0.59701 0.0
C3062 C 0.08476 0.35273 0.61798 0.0
C3063 C 0.06939 0.33535 0.61739 0.0
H3064 H 0.11132 0.37047 0.60534 0.0
C3065 C 0.06961 0.32194 0.60416 0.0
H3066 H 0.0848 0.36334 0.62792 0.0
C3067 C 0.0849 0.32584 0.59161 0.0
C3068 C 0.10021 0.34338 0.59163 0.0
H3069 H 0.05794 0.30839 0.60362 0.0
H3070 H 0.0847 0.31504 0.58196 0.0
C3071 C 0.09996 0.35676 0.6051 0.0
C3072 C 0.26144 0.3509 0.61837 0.0
C3073 C 0.25649 0.33268 0.62153 0.0
H3074 H 0.25534 0.36958 0.60245 0.0
C3075 C 0.24054 0.31907 0.6116 0.0
H3076 H 0.27378 0.36169 0.62558 0.0
C3077 C 0.22999 0.32357 0.59839 0.0
C3078 C 0.23516 0.34179 0.59474 0.0
H3079 H 0.23622 0.3049 0.61403 0.0
H3080 H 0.21773 0.31274 0.59106 0.0
C3081 C 0.25089 0.35541 0.6051 0.0
C3082 C 0.65605 0.92838 0.5971 0.0
C3083 C 0.66237 0.93095 0.61909 0.0
H3084 H 0.64731 0.91107 0.56856 0.0
C3085 C 0.66426 0.91727 0.62942 0.0
H3086 H 0.65424 0.93859 0.58879 0.0
C3087 C 0.6602 0.90147 0.61786 0.0
C3088 C 0.65404 0.89897 0.5958 0.0
H3089 H 0.66919 0.91892 0.64631 0.0
H3090 H 0.66184 0.89117 0.62621 0.0
C3091 C 0.65188 0.91254 0.5856 0.0
C3092 C 0.08625 0.73408 0.61787 0.0
C3093 C 0.07143 0.73691 0.61723 0.0
H3094 H 0.11291 0.74233 0.60597 0.0
C3095 C 0.07275 0.75135 0.60466 0.0
H3096 H 0.0855 0.72292 0.62724 0.0
C3097 C 0.08848 0.76259 0.5927 0.0
C3098 C 0.10319 0.75953 0.5928 0.0
H3099 H 0.06159 0.75396 0.60412 0.0
H3100 H 0.0891 0.77372 0.58341 0.0
C3101 C 0.10195 0.74523 0.6057 0.0
C3102 C -0.00091 0.58244 0.72243 0.0
C3103 C 0.99789 0.5966 0.73269 0.0
H3104 H 0.00359 0.56011 0.72662 0.0
C3105 C 0.00061 0.59905 0.75576 0.0
H3106 H 0.99685 0.58003 0.70475 0.0
C3107 C 0.00439 0.5876 0.76826 0.0
C3108 C 0.00562 0.57348 0.758 0.0
H3109 H 0.00017 0.61004 0.76415 0.0
H3110 H 0.00667 0.59002 0.78594 0.0
C3111 C 0.00295 0.57102 0.73495 0.0
C3112 C 0.40482 0.42123 0.72115 0.0
C3113 C 0.39151 0.40682 0.73373 0.0
H3114 H 0.42706 0.44853 0.72133 0.0
C3115 C 0.39012 0.40932 0.75656 0.0
H3116 H 0.40623 0.41962 0.70354 0.0
C3117 C 0.40193 0.42585 0.76668 0.0
C3118 C 0.41548 0.44013 0.75421 0.0
H3119 H 0.37986 0.39849 0.76659 0.0
H3120 H 0.40074 0.42731 0.78438 0.0
C3121 C 0.41678 0.4377 0.73133 0.0
C3122 C 0.58948 0.01212 0.74294 0.0
C3123 C 0.59218 0.99841 0.73413 0.0
H3124 H 0.57237 0.01863 0.76202 0.0
C3125 C 0.5789 0.98021 0.73773 0.0
H3126 H 0.59931 0.02626 0.74014 0.0
C3127 C 0.56345 0.97583 0.75029 0.0
C3128 C 0.56098 0.98956 0.75953 0.0
H3129 H 0.58069 0.96934 0.73142 0.0
H3130 H 0.5537 0.9617 0.75329 0.0
C3131 C 0.57406 0.00774 0.7555 0.0
loop_
_geom_bond_atom_site_label_1
_geom_bond_atom_site_label_2
_geom_bond_distance
_geom_bond_site_symmetry_2
_ccdc_geom_bond_type
Li0 N17 1.990 1_554 S
Li0 O60 1.956 . S
Li0 O61 1.970 1_654 S
Li0 O62 1.963 . S
Li1 N25 1.990 . S
Li1 O60 1.970 1_455 S
Li1 O61 1.956 1_554 S
Li1 O63 1.961 . S
Li2 N47 1.990 . S
Li2 O60 1.961 . S
Li2 O62 1.981 . S
Li2 O63 1.970 1_655 S
Li3 N53 1.990 . S
Li3 O61 1.961 . S
Li3 O62 1.961 1_456 S
Li3 O63 1.956 1_556 S
C4 C6 1.389 . S
C4 C7 1.356 . S
C4 O60 1.325 . S
N5 C8 1.314 . S
N5 C9 1.279 . S
C6 C4 1.389 . S
C6 C8 1.355 . S
C6 H64 0.888 1_655 S
C7 C4 1.356 . S
C7 C9 1.358 . S
C7 H65 0.930 . S
C8 N5 1.314 . S
C8 C6 1.355 . S
C8 H66 0.930 . S
C9 N5 1.279 . S
C9 C7 1.358 . S
C9 H67 0.930 . S
C10 C13 1.348 . S
C10 C14 1.356 . S
C10 O61 1.325 . S
C11 N12 1.279 . S
C11 C14 1.358 . S
C11 H68 0.930 . S
N12 C11 1.279 . S
N12 C15 1.314 . S
C13 C10 1.348 . S
C13 C15 1.353 . S
C13 H69 0.929 1_455 S
C14 C10 1.356 . S
C14 C11 1.358 . S
C14 H70 0.930 . S
C15 N12 1.314 . S
C15 C13 1.353 . S
C15 H71 0.930 . S
C16 N17 1.314 . S
C16 C21 1.353 . S
C16 H22 0.930 . S
N17 Li0 1.990 1_556 S
N17 C16 1.314 . S
N17 C19 1.279 1_556 S
C18 C19 1.352 1_556 S
C18 C20 1.378 . S
C18 H72 0.915 1_556 S
C19 N17 1.279 1_554 S
C19 C18 1.352 1_554 S
C19 H23 0.930 . S
C20 C18 1.378 . S
C20 C21 1.348 . S
C21 C16 1.353 . S
C21 C20 1.348 . S
C21 H73 0.929 . S
H22 C16 0.930 . S
H23 C19 0.930 . S
C24 N25 1.314 . S
C24 C26 1.353 . S
C24 H30 0.930 . S
N25 Li1 1.990 . S
N25 C24 1.314 . S
N25 C28 1.279 . S
C26 C24 1.353 . S
C26 C29 1.348 . S
C26 H74 0.929 . S
C27 C28 1.358 . S
C27 C29 1.356 . S
C27 H75 0.930 . S
C28 N25 1.279 . S
C28 C27 1.358 . S
C28 H31 0.941 . S
C29 C26 1.348 . S
C29 C27 1.356 . S
H30 C24 0.930 . S
H31 C28 0.941 . S
C32 C34 1.348 . S
C32 C35 1.356 1_556 S
C32 O62 1.319 1_556 S
N33 C36 1.314 . S
N33 C37 1.279 . S
C34 C32 1.348 . S
C34 C36 1.353 . S
C34 H76 0.929 . S
C35 C32 1.356 1_554 S
C35 C37 1.358 1_554 S
C35 H77 0.930 . S
C36 N33 1.314 . S
C36 C34 1.353 . S
C36 H78 0.930 . S
C37 N33 1.279 . S
C37 C35 1.358 1_556 S
C37 H79 0.930 1_556 S
C38 C39 1.348 . S
C38 C40 1.356 . S
C38 O63 1.325 . S
C39 C38 1.348 . S
C39 C41 1.353 . S
C39 H80 0.929 . S
C40 C38 1.356 . S
C40 C42 1.358 . S
C40 H81 0.930 . S
C41 C39 1.353 . S
C41 N43 1.314 . S
C41 H82 0.930 . S
C42 C40 1.358 . S
C42 N43 1.279 . S
C42 H83 0.930 . S
N43 C41 1.314 . S
N43 C42 1.279 . S
C44 C46 1.353 . S
C44 N47 1.314 . S
C44 H50 0.930 . S
C45 N47 1.279 . S
C45 C48 1.358 . S
C45 H51 0.930 . S
C46 C44 1.353 . S
C46 C49 1.348 . S
C46 H84 0.929 . S
N47 Li2 1.990 . S
N47 C44 1.314 . S
N47 C45 1.279 . S
C48 C45 1.358 . S
C48 C49 1.356 . S
C48 H85 0.930 . S
C49 C46 1.348 . S
C49 C48 1.356 . S
H50 C44 0.930 . S
H51 C45 0.930 . S
C52 N53 1.314 . S
C52 C54 1.353 . S
C52 H58 0.930 . S
N53 Li3 1.990 . S
N53 C52 1.314 . S
N53 C56 1.279 . S
C54 C52 1.353 . S
C54 C57 1.348 . S
C54 H86 0.929 . S
C55 C56 1.358 . S
C55 C57 1.356 . S
C55 H87 0.930 . S
C56 N53 1.279 . S
C56 C55 1.358 . S
C56 H59 0.930 . S
C57 C54 1.348 . S
C57 C55 1.356 . S
H58 C52 0.930 . S
H59 C56 0.930 . S
O60 Li0 1.956 . S
O60 Li1 1.970 1_655 S
O60 Li2 1.961 . S
O60 C4 1.325 . S
O61 Li0 1.970 1_456 S
O61 Li1 1.956 1_556 S
O61 Li3 1.961 . S
O61 C10 1.325 . S
O62 Li0 1.963 . S
O62 Li2 1.981 . S
O62 Li3 1.961 1_654 S
O62 C32 1.319 1_554 S
O63 Li1 1.961 . S
O63 Li2 1.970 1_455 S
O63 Li3 1.956 1_554 S
O63 C38 1.325 . S
H64 C6 0.888 1_455 S
H65 C7 0.930 . S
H66 C8 0.930 . S
H67 C9 0.930 . S
H68 C11 0.930 . S
H69 C13 0.929 1_655 S
H70 C14 0.930 . S
H71 C15 0.930 . S
H72 C18 0.915 1_554 S
H73 C21 0.929 . S
H74 C26 0.929 . S
H75 C27 0.930 . S
H76 C34 0.929 . S
H77 C35 0.930 . S
H78 C36 0.930 . S
H79 C37 0.930 1_554 S
H80 C39 0.929 . S
H81 C40 0.930 . S
H82 C41 0.930 . S
H83 C42 0.930 . S
H84 C46 0.929 . S
H85 C48 0.930 . S
H86 C54 0.929 . S
H87 C55 0.930 . S
Li88 N105 1.982 1_554 S
Li88 O148 1.981 . S
Li88 O149 1.960 1_554 S
Li88 O150 1.959 1_554 S
Li89 N113 1.990 . S
Li89 O148 1.970 . S
Li89 O149 1.956 1_554 S
Li89 O151 1.961 . S
Li90 N135 1.990 . S
Li90 O148 1.961 . S
Li90 O150 1.956 1_554 S
Li90 O151 1.970 . S
Li91 N141 1.990 . S
Li91 O149 1.961 . S
Li91 O150 1.970 . S
Li91 O151 1.956 1_556 S
C92 C94 1.348 . S
C92 C95 1.356 . S
C92 O148 1.325 . S
N93 C96 1.314 . S
N93 C97 1.279 . S
C94 C92 1.348 . S
C94 C96 1.353 . S
C94 H152 0.929 . S
C95 C92 1.356 . S
C95 C97 1.358 . S
C95 H153 0.930 . S
C96 N93 1.314 . S
C96 C94 1.353 . S
C96 H154 0.930 . S
C97 N93 1.279 . S
C97 C95 1.358 . S
C97 H155 0.930 . S
C98 C101 1.348 . S
C98 C102 1.356 . S
C98 O149 1.325 . S
C99 N100 1.279 . S
C99 C102 1.358 . S
C99 H156 0.930 . S
N100 C99 1.279 . S
N100 C103 1.314 . S
C101 C98 1.348 . S
C101 C103 1.353 . S
C101 H157 0.929 . S
C102 C98 1.356 . S
C102 C99 1.358 . S
C102 H158 0.930 . S
C103 N100 1.314 . S
C103 C101 1.353 . S
C103 H159 0.930 . S
C104 N105 1.314 . S
C104 C109 1.353 . S
C104 H110 0.930 . S
N105 Li88 1.982 1_556 S
N105 C104 1.314 . S
N105 C107 1.299 . S
C106 C107 1.374 . S
C106 C108 1.356 . S
C106 H160 0.942 . S
C107 N105 1.299 . S
C107 C106 1.374 . S
C107 H111 0.893 1_556 S
C108 C106 1.356 . S
C108 C109 1.348 . S
C109 C104 1.353 . S
C109 C108 1.348 . S
C109 H161 0.929 . S
H110 C104 0.930 . S
H111 C107 0.893 1_554 S
C112 N113 1.314 . S
C112 C114 1.353 . S
C112 H118 0.930 . S
N113 Li89 1.990 . S
N113 C112 1.314 . S
N113 C116 1.279 . S
C114 C112 1.353 . S
C114 C117 1.348 . S
C114 H162 0.929 . S
C115 C116 1.358 . S
C115 C117 1.356 . S
C115 H163 0.930 . S
C116 N113 1.279 . S
C116 C115 1.358 . S
C116 H119 0.930 . S
C117 C114 1.348 . S
C117 C115 1.356 . S
H118 C112 0.930 . S
H119 C116 0.930 . S
C120 C122 1.348 . S
C120 C123 1.356 . S
C120 O150 1.325 . S
N121 C124 1.314 . S
N121 C125 1.279 . S
C122 C120 1.348 . S
C122 C124 1.353 . S
C122 H164 0.929 . S
C123 C120 1.356 . S
C123 C125 1.358 . S
C123 H165 0.930 1_556 S
C124 N121 1.314 . S
C124 C122 1.353 . S
C124 H166 0.930 . S
C125 N121 1.279 . S
C125 C123 1.358 . S
C125 H167 0.930 . S
C126 C127 1.348 . S
C126 C128 1.356 . S
C126 O151 1.325 . S
C127 C126 1.348 . S
C127 C129 1.353 . S
C127 H168 0.929 . S
C128 C126 1.356 . S
C128 C130 1.358 . S
C128 H169 0.930 . S
C129 C127 1.353 . S
C129 N131 1.314 . S
C129 H170 0.930 . S
C130 C128 1.358 . S
C130 N131 1.279 . S
C130 H171 0.930 . S
N131 C129 1.314 . S
N131 C130 1.279 . S
C132 C134 1.353 . S
C132 N135 1.314 . S
C132 H138 0.930 . S
C133 N135 1.279 . S
C133 C136 1.358 . S
C133 H139 0.930 . S
C134 C132 1.353 . S
C134 C137 1.348 . S
C134 H172 0.929 . S
N135 Li90 1.990 . S
N135 C132 1.314 . S
N135 C133 1.279 . S
C136 C133 1.358 . S
C136 C137 1.356 . S
C136 H173 0.930 . S
C137 C134 1.348 . S
C137 C136 1.356 . S
H138 C132 0.930 . S
H139 C133 0.930 . S
C140 N141 1.314 . S
C140 C142 1.353 . S
C140 H146 0.930 . S
N141 Li91 1.990 . S
N141 C140 1.314 . S
N141 C144 1.279 . S
C142 C140 1.353 . S
C142 C145 1.348 . S
C142 H174 0.929 . S
C143 C144 1.358 . S
C143 C145 1.356 . S
C143 H175 0.930 . S
C144 N141 1.279 . S
C144 C143 1.358 . S
C144 H147 0.930 . S
C145 C142 1.348 . S
C145 C143 1.356 . S
H146 C140 0.930 . S
H147 C144 0.930 . S
O148 Li88 1.981 . S
O148 Li89 1.970 . S
O148 Li90 1.961 . S
O148 C92 1.325 . S
O149 Li88 1.960 1_556 S
O149 Li89 1.956 1_556 S
O149 Li91 1.961 . S
O149 C98 1.325 . S
O150 Li88 1.959 1_556 S
O150 Li90 1.956 1_556 S
O150 Li91 1.970 . S
O150 C120 1.325 . S
O151 Li89 1.961 . S
O151 Li90 1.970 . S
O151 Li91 1.956 1_554 S
O151 C126 1.325 . S
H152 C94 0.929 . S
H153 C95 0.930 . S
H154 C96 0.930 . S
H155 C97 0.930 . S
H156 C99 0.930 . S
H157 C101 0.929 . S
H158 C102 0.930 . S
H159 C103 0.930 . S
H160 C106 0.942 . S
H161 C109 0.929 . S
H162 C114 0.929 . S
H163 C115 0.930 . S
H164 C122 0.929 . S
H165 C123 0.930 1_554 S
H166 C124 0.930 . S
H167 C125 0.930 . S
H168 C127 0.929 . S
H169 C128 0.930 . S
H170 C129 0.930 . S
H171 C130 0.930 . S
H172 C134 0.929 . S
H173 C136 0.930 . S
H174 C142 0.929 . S
H175 C143 0.930 . S
Li176 N193 1.990 . S
Li176 O236 1.956 1_556 S
Li176 O237 1.959 1_566 S
Li176 O238 1.961 . S
Li177 N201 1.990 . S
Li177 O236 1.970 1_545 S
Li177 O237 1.985 . S
Li177 O239 1.961 . S
Li178 N223 1.990 . S
Li178 O236 1.961 . S
Li178 O238 1.956 1_554 S
Li178 O239 1.970 1_565 S
Li179 N229 1.990 1_554 S
Li179 O237 1.963 . S
Li179 O238 1.970 1_544 S
Li179 O239 1.956 . S
C180 C182 1.348 . S
C180 C183 1.356 . S
C180 O236 1.325 . S
N181 C184 1.314 . S
N181 C185 1.279 . S
C182 C180 1.348 . S
C182 C184 1.353 . S
C182 H240 0.929 . S
C183 C180 1.356 . S
C183 C185 1.358 . S
C183 H241 0.930 . S
C184 N181 1.314 . S
C184 C182 1.353 . S
C184 H242 0.930 . S
C185 N181 1.279 . S
C185 C183 1.358 . S
C185 H243 0.930 . S
C186 C189 1.348 . S
C186 C190 1.356 1_556 S
C186 O237 1.318 1_556 S
C187 N188 1.279 . S
C187 C190 1.358 1_556 S
C187 H244 0.930 1_556 S
N188 C187 1.279 . S
N188 C191 1.314 . S
C189 C186 1.348 . S
C189 C191 1.353 . S
C189 H245 0.929 . S
C190 C186 1.356 1_554 S
C190 C187 1.358 1_554 S
C190 H246 0.930 . S
C191 N188 1.314 . S
C191 C189 1.353 . S
C191 H247 0.930 . S
C192 N193 1.314 . S
C192 C197 1.353 . S
C192 H198 0.930 . S
N193 Li176 1.990 . S
N193 C192 1.314 . S
N193 C195 1.279 . S
C194 C195 1.358 . S
C194 C196 1.356 . S
C194 H248 0.930 . S
C195 N193 1.279 . S
C195 C194 1.358 . S
C195 H199 0.930 . S
C196 C194 1.356 . S
C196 C197 1.348 . S
C197 C192 1.353 . S
C197 C196 1.348 . S
C197 H249 0.929 . S
H198 C192 0.930 . S
H199 C195 0.930 . S
C200 N201 1.314 . S
C200 C202 1.353 . S
C200 H206 0.930 . S
N201 Li177 1.990 . S
N201 C200 1.314 . S
N201 C204 1.279 . S
C202 C200 1.353 . S
C202 C205 1.348 . S
C202 H250 0.929 . S
C203 C204 1.358 . S
C203 C205 1.356 . S
C203 H251 0.930 . S
C204 N201 1.279 . S
C204 C203 1.358 . S
C204 H207 0.930 . S
C205 C202 1.348 . S
C205 C203 1.356 . S
H206 C200 0.930 . S
H207 C204 0.930 . S
C208 C210 1.389 . S
C208 C211 1.356 . S
C208 O238 1.325 . S
N209 C212 1.314 . S
N209 C213 1.279 . S
C210 C208 1.389 . S
C210 C212 1.355 . S
C210 H252 0.888 1_565 S
C211 C208 1.356 . S
C211 C213 1.358 . S
C211 H253 0.930 . S
C212 N209 1.314 . S
C212 C210 1.355 . S
C212 H254 0.930 . S
C213 N209 1.279 . S
C213 C211 1.358 . S
C213 H255 0.930 . S
C214 C215 1.348 . S
C214 C216 1.356 . S
C214 O239 1.325 . S
C215 C214 1.348 . S
C215 C217 1.353 . S
C215 H256 0.929 1_545 S
C216 C214 1.356 . S
C216 C218 1.358 . S
C216 H257 0.930 . S
C217 C215 1.353 . S
C217 N219 1.314 . S
C217 H258 0.930 . S
C218 C216 1.358 . S
C218 N219 1.279 . S
C218 H259 0.930 . S
N219 C217 1.314 . S
N219 C218 1.279 . S
C220 C222 1.353 . S
C220 N223 1.314 . S
C220 H226 0.930 . S
C221 N223 1.279 . S
C221 C224 1.358 . S
C221 H227 0.942 . S
C222 C220 1.353 . S
C222 C225 1.348 . S
C222 H260 0.929 . S
N223 Li178 1.990 . S
N223 C220 1.314 . S
N223 C221 1.279 . S
C224 C221 1.358 . S
C224 C225 1.356 . S
C224 H261 0.930 . S
C225 C222 1.348 . S
C225 C224 1.356 . S
H226 C220 0.930 . S
H227 C221 0.942 . S
C228 N229 1.314 . S
C228 C230 1.353 . S
C228 H234 0.930 . S
N229 Li179 1.990 1_556 S
N229 C228 1.314 . S
N229 C232 1.279 1_556 S
C230 C228 1.353 . S
C230 C233 1.348 . S
C230 H262 0.929 . S
C231 C232 1.352 1_556 S
C231 C233 1.377 . S
C231 H263 0.915 1_556 S
C232 N229 1.279 1_554 S
C232 C231 1.352 1_554 S
C232 H235 0.930 . S
C233 C230 1.348 . S
C233 C231 1.377 . S
H234 C228 0.930 . S
H235 C232 0.930 . S
O236 Li176 1.956 1_554 S
O236 Li177 1.970 1_565 S
O236 Li178 1.961 . S
O236 C180 1.325 . S
O237 Li176 1.959 1_544 S
O237 Li177 1.985 . S
O237 Li179 1.963 . S
O237 C186 1.318 1_554 S
O238 Li176 1.961 . S
O238 Li178 1.956 1_556 S
O238 Li179 1.970 1_566 S
O238 C208 1.325 . S
O239 Li177 1.961 . S
O239 Li178 1.970 1_545 S
O239 Li179 1.956 . S
O239 C214 1.325 . S
H240 C182 0.929 . S
H241 C183 0.930 . S
H242 C184 0.930 . S
H243 C185 0.930 . S
H244 C187 0.930 1_554 S
H245 C189 0.929 . S
H246 C190 0.930 . S
H247 C191 0.930 . S
H248 C194 0.930 . S
H249 C197 0.929 . S
H250 C202 0.929 . S
H251 C203 0.930 . S
H252 C210 0.888 1_545 S
H253 C211 0.930 . S
H254 C212 0.930 . S
H255 C213 0.930 . S
H256 C215 0.929 1_565 S
H257 C216 0.930 . S
H258 C217 0.930 . S
H259 C218 0.930 . S
H260 C222 0.929 . S
H261 C224 0.930 . S
H262 C230 0.929 . S
H263 C231 0.915 1_554 S
Li264 N281 1.990 . S
Li264 O324 1.956 . S
Li264 O325 1.970 1_455 S
Li264 O326 1.961 1_554 S
Li265 N289 1.990 . S
Li265 O324 1.970 1_655 S
Li265 O325 1.956 . S
Li265 O327 2.007 . S
Li266 N311 1.990 . S
Li266 O324 1.961 1_556 S
Li266 O326 1.956 . S
Li266 O327 1.950 1_456 S
Li267 N317 1.990 1_554 S
Li267 O325 1.961 . S
Li267 O326 1.970 1_654 S
Li267 O327 1.958 . S
C268 C270 1.348 . S
C268 C271 1.356 . S
C268 O324 1.325 . S
N269 C272 1.314 . S
N269 C273 1.279 . S
C270 C268 1.348 . S
C270 C272 1.353 . S
C270 H328 0.929 . S
C271 C268 1.356 . S
C271 C273 1.358 . S
C271 H329 0.930 1_554 S
C272 N269 1.314 . S
C272 C270 1.353 . S
C272 H330 0.930 . S
C273 N269 1.279 . S
C273 C271 1.358 . S
C273 H331 0.930 . S
C274 C277 1.341 1_655 S
C274 C278 1.356 . S
C274 O325 1.325 . S
C275 N276 1.279 . S
C275 C278 1.358 . S
C275 H332 0.930 . S
N276 C275 1.279 . S
N276 C279 1.314 . S
C277 C274 1.341 1_455 S
C277 C279 1.342 1_455 S
C277 H333 0.948 . S
C278 C274 1.356 . S
C278 C275 1.358 . S
C278 H334 0.930 . S
C279 N276 1.314 . S
C279 C277 1.342 1_655 S
C279 H335 0.930 1_655 S
C280 N281 1.314 . S
C280 C285 1.353 . S
C280 H286 0.930 . S
N281 Li264 1.990 . S
N281 C280 1.314 . S
N281 C283 1.279 . S
C282 C283 1.358 . S
C282 C284 1.356 . S
C282 H336 0.930 . S
C283 N281 1.279 . S
C283 C282 1.358 . S
C283 H287 0.930 . S
C284 C282 1.356 . S
C284 C285 1.348 . S
C285 C280 1.353 . S
C285 C284 1.348 . S
C285 H337 0.929 . S
H286 C280 0.930 . S
H287 C283 0.930 . S
C288 N289 1.314 . S
C288 C290 1.353 . S
C288 H294 0.930 . S
N289 Li265 1.990 . S
N289 C288 1.314 . S
N289 C292 1.279 . S
C290 C288 1.353 . S
C290 C293 1.348 . S
C290 H338 0.929 . S
C291 C292 1.358 . S
C291 C293 1.356 . S
C291 H339 0.930 . S
C292 N289 1.279 . S
C292 C291 1.358 . S
C292 H295 0.930 . S
C293 C290 1.348 . S
C293 C291 1.356 . S
H294 C288 0.930 . S
H295 C292 0.930 . S
C296 C298 1.328 1_455 S
C296 C299 1.356 . S
C296 O326 1.325 . S
N297 C300 1.314 . S
N297 C301 1.279 . S
C298 C296 1.328 1_655 S
C298 C300 1.353 1_655 S
C298 H340 0.950 . S
C299 C296 1.356 . S
C299 C301 1.358 . S
C299 H341 0.930 . S
C300 N297 1.314 . S
C300 C298 1.353 1_455 S
C300 H342 0.930 1_455 S
C301 N297 1.279 . S
C301 C299 1.358 . S
C301 H343 0.930 . S
C302 C303 1.348 . S
C302 C304 1.356 1_556 S
C302 O327 1.312 1_556 S
C303 C302 1.348 . S
C303 C305 1.353 . S
C303 H344 0.929 . S
C304 C302 1.356 1_554 S
C304 C306 1.358 . S
C304 H345 0.930 . S
C305 C303 1.353 . S
C305 N307 1.314 . S
C305 H346 0.930 . S
C306 C304 1.358 . S
C306 N307 1.279 1_554 S
C306 H347 0.930 . S
N307 C305 1.314 . S
N307 C306 1.279 1_556 S
C308 C310 1.353 . S
C308 N311 1.314 . S
C308 H314 0.930 . S
C309 N311 1.279 . S
C309 C312 1.358 . S
C309 H315 0.930 . S
C310 C308 1.353 . S
C310 C313 1.348 . S
C310 H348 0.929 . S
N311 Li266 1.990 . S
N311 C308 1.314 . S
N311 C309 1.279 . S
C312 C309 1.358 . S
C312 C313 1.356 . S
C312 H349 0.930 . S
C313 C310 1.348 . S
C313 C312 1.356 . S
H314 C308 0.930 . S
H315 C309 0.930 . S
C316 N317 1.314 . S
C316 C318 1.353 . S
C316 H322 0.930 1_556 S
N317 Li267 1.990 1_556 S
N317 C316 1.314 . S
N317 C320 1.279 . S
C318 C316 1.353 . S
C318 C321 1.348 . S
C318 H350 0.929 . S
C319 C320 1.358 . S
C319 C321 1.356 . S
C319 H351 0.930 . S
C320 N317 1.279 . S
C320 C319 1.358 . S
C320 H323 0.930 . S
C321 C318 1.348 . S
C321 C319 1.356 . S
H322 C316 0.930 1_554 S
H323 C320 0.930 . S
O324 Li264 1.956 . S
O324 Li265 1.970 1_455 S
O324 Li266 1.961 1_554 S
O324 C268 1.325 . S
O325 Li264 1.970 1_655 S
O325 Li265 1.956 . S
O325 Li267 1.961 . S
O325 C274 1.325 . S
O326 Li264 1.961 1_556 S
O326 Li266 1.956 . S
O326 Li267 1.970 1_456 S
O326 C296 1.325 . S
O327 Li265 2.007 . S
O327 Li266 1.950 1_654 S
O327 Li267 1.958 . S
O327 C302 1.312 1_554 S
H328 C270 0.929 . S
H329 C271 0.930 1_556 S
H330 C272 0.930 . S
H331 C273 0.930 . S
H332 C275 0.930 . S
H333 C277 0.948 . S
H334 C278 0.930 . S
H335 C279 0.930 1_455 S
H336 C282 0.930 . S
H337 C285 0.929 . S
H338 C290 0.929 . S
H339 C291 0.930 . S
H340 C298 0.950 . S
H341 C299 0.930 . S
H342 C300 0.930 1_655 S
H343 C301 0.930 . S
H344 C303 0.929 . S
H345 C304 0.930 . S
H346 C305 0.930 . S
H347 C306 0.930 . S
H348 C310 0.929 . S
H349 C312 0.930 . S
H350 C318 0.929 . S
H351 C319 0.930 . S
Li352 N369 1.990 . S
Li352 O412 1.956 . S
Li352 O413 1.970 . S
Li352 O414 1.961 1_554 S
Li353 N377 1.990 . S
Li353 O412 1.970 . S
Li353 O413 1.956 . S
Li353 O415 1.961 1_554 S
Li354 N399 1.990 . S
Li354 O412 1.961 1_556 S
Li354 O414 1.956 . S
Li354 O415 1.970 . S
Li355 N405 1.994 . S
Li355 O413 1.949 1_556 S
Li355 O414 1.975 . S
Li355 O415 1.956 . S
C356 C358 1.348 . S
C356 C359 1.356 . S
C356 O412 1.325 . S
N357 C360 1.314 . S
N357 C361 1.279 . S
C358 C356 1.348 . S
C358 C360 1.353 . S
C358 H416 0.929 . S
C359 C356 1.356 . S
C359 C361 1.358 . S
C359 H417 0.930 . S
C360 N357 1.314 . S
C360 C358 1.353 . S
C360 H418 0.930 . S
C361 N357 1.279 . S
C361 C359 1.358 . S
C361 H419 0.930 . S
C362 C365 1.348 . S
C362 C366 1.356 . S
C362 O413 1.325 . S
C363 N364 1.279 . S
C363 C366 1.358 . S
C363 H420 0.930 . S
N364 C363 1.279 . S
N364 C367 1.314 . S
C365 C362 1.348 . S
C365 C367 1.353 . S
C365 H421 0.929 . S
C366 C362 1.356 . S
C366 C363 1.358 . S
C366 H422 0.930 . S
C367 N364 1.314 . S
C367 C365 1.353 . S
C367 H423 0.930 . S
C368 N369 1.314 . S
C368 C373 1.353 . S
C368 H374 0.930 . S
N369 Li352 1.990 . S
N369 C368 1.314 . S
N369 C371 1.279 . S
C370 C371 1.358 . S
C370 C372 1.356 . S
C370 H424 0.930 . S
C371 N369 1.279 . S
C371 C370 1.358 . S
C371 H375 0.930 . S
C372 C370 1.356 . S
C372 C373 1.348 . S
C373 C368 1.353 . S
C373 C372 1.348 . S
C373 H425 0.929 . S
H374 C368 0.930 . S
H375 C371 0.930 . S
C376 N377 1.314 . S
C376 C378 1.353 . S
C376 H382 0.930 . S
N377 Li353 1.990 . S
N377 C376 1.314 . S
N377 C380 1.279 . S
C378 C376 1.353 . S
C378 C381 1.348 . S
C378 H426 0.929 . S
C379 C380 1.358 . S
C379 C381 1.356 . S
C379 H427 0.930 . S
C380 N377 1.279 . S
C380 C379 1.358 . S
C380 H383 0.930 . S
C381 C378 1.348 . S
C381 C379 1.356 . S
H382 C376 0.930 . S
H383 C380 0.930 . S
C384 C386 1.348 . S
C384 C387 1.356 . S
C384 O414 1.325 . S
N385 C388 1.314 . S
N385 C389 1.279 . S
C386 C384 1.348 . S
C386 C388 1.353 . S
C386 H428 0.929 . S
C387 C384 1.356 . S
C387 C389 1.358 . S
C387 H429 0.930 . S
C388 N385 1.314 . S
C388 C386 1.353 . S
C388 H430 0.930 . S
C389 N385 1.279 . S
C389 C387 1.358 . S
C389 H431 0.930 . S
C390 C391 1.348 . S
C390 C392 1.356 1_556 S
C390 O415 1.325 . S
C391 C390 1.348 . S
C391 C393 1.353 . S
C391 H432 0.929 . S
C392 C390 1.356 1_554 S
C392 C394 1.358 1_554 S
C392 H433 0.930 . S
C393 C391 1.353 . S
C393 N395 1.314 . S
C393 H434 0.930 . S
C394 C392 1.358 1_556 S
C394 N395 1.279 . S
C394 H435 0.930 1_556 S
N395 C393 1.314 . S
N395 C394 1.279 . S
C396 C398 1.353 . S
C396 N399 1.314 . S
C396 H402 0.930 . S
C397 N399 1.279 . S
C397 C400 1.358 . S
C397 H403 0.930 . S
C398 C396 1.353 . S
C398 C401 1.348 . S
C398 H436 0.929 . S
N399 Li354 1.990 . S
N399 C396 1.314 . S
N399 C397 1.279 . S
C400 C397 1.358 . S
C400 C401 1.356 . S
C400 H437 0.930 . S
C401 C398 1.348 . S
C401 C400 1.356 . S
H402 C396 0.930 . S
H403 C397 0.930 . S
C404 N405 1.314 . S
C404 C406 1.353 . S
C404 H410 0.930 1_556 S
N405 Li355 1.994 . S
N405 C404 1.314 . S
N405 C408 1.279 . S
C406 C404 1.353 . S
C406 C409 1.348 . S
C406 H438 0.929 . S
C407 C408 1.358 . S
C407 C409 1.356 . S
C407 H439 0.930 . S
C408 N405 1.279 . S
C408 C407 1.358 . S
C408 H411 0.930 . S
C409 C406 1.348 . S
C409 C407 1.356 . S
H410 C404 0.930 1_554 S
H411 C408 0.930 . S
O412 Li352 1.956 . S
O412 Li353 1.970 . S
O412 Li354 1.961 1_554 S
O412 C356 1.325 . S
O413 Li352 1.970 . S
O413 Li353 1.956 . S
O413 Li355 1.949 1_554 S
O413 C362 1.325 . S
O414 Li352 1.961 1_556 S
O414 Li354 1.956 . S
O414 Li355 1.975 . S
O414 C384 1.325 . S
O415 Li353 1.961 1_556 S
O415 Li354 1.970 . S
O415 Li355 1.956 . S
O415 C390 1.325 . S
H416 C358 0.929 . S
H417 C359 0.930 . S
H418 C360 0.930 . S
H419 C361 0.930 . S
H420 C363 0.930 . S
H421 C365 0.929 . S
H422 C366 0.930 . S
H423 C367 0.930 . S
H424 C370 0.930 . S
H425 C373 0.929 . S
H426 C378 0.929 . S
H427 C379 0.930 . S
H428 C386 0.929 . S
H429 C387 0.930 . S
H430 C388 0.930 . S
H431 C389 0.930 . S
H432 C391 0.929 . S
H433 C392 0.930 . S
H434 C393 0.930 . S
H435 C394 0.930 1_554 S
H436 C398 0.929 . S
H437 C400 0.930 . S
H438 C406 0.929 . S
H439 C407 0.930 . S
Li440 N457 1.990 . S
Li440 O500 1.956 . S
Li440 O501 1.970 1_565 S
Li440 O502 1.961 1_554 S
Li441 N465 1.990 . S
Li441 O500 1.970 1_545 S
Li441 O501 1.956 . S
Li441 O503 1.961 . S
Li442 N487 1.990 . S
Li442 O500 1.961 1_556 S
Li442 O502 1.956 . S
Li442 O503 1.970 1_566 S
Li443 N493 1.990 1_554 S
Li443 O501 1.961 . S
Li443 O502 1.970 1_544 S
Li443 O503 1.956 . S
C444 C446 1.348 . S
C444 C447 1.356 . S
C444 O500 1.325 . S
N445 C448 1.314 . S
N445 C449 1.279 . S
C446 C444 1.348 . S
C446 C448 1.353 . S
C446 H504 0.929 . S
C447 C444 1.356 . S
C447 C449 1.358 . S
C447 H505 0.930 1_554 S
C448 N445 1.314 . S
C448 C446 1.353 . S
C448 H506 0.930 . S
C449 N445 1.279 . S
C449 C447 1.358 . S
C449 H507 0.930 . S
C450 C453 1.328 1_545 S
C450 C454 1.356 . S
C450 O501 1.325 . S
C451 N452 1.279 . S
C451 C454 1.358 . S
C451 H508 0.930 . S
N452 C451 1.279 . S
N452 C455 1.314 . S
C453 C450 1.328 1_565 S
C453 C455 1.353 1_565 S
C453 H509 0.950 . S
C454 C450 1.356 . S
C454 C451 1.358 . S
C454 H510 0.930 . S
C455 N452 1.314 . S
C455 C453 1.353 1_545 S
C455 H511 0.930 1_545 S
C456 N457 1.314 . S
C456 C461 1.353 . S
C456 H462 0.930 . S
N457 Li440 1.990 . S
N457 C456 1.314 . S
N457 C459 1.279 . S
C458 C459 1.358 . S
C458 C460 1.356 . S
C458 H512 0.930 . S
C459 N457 1.279 . S
C459 C458 1.358 . S
C459 H463 0.930 . S
C460 C458 1.356 . S
C460 C461 1.348 . S
C461 C456 1.353 . S
C461 C460 1.348 . S
C461 H513 0.929 . S
H462 C456 0.930 . S
H463 C459 0.930 . S
C464 N465 1.314 . S
C464 C466 1.353 . S
C464 H470 0.930 . S
N465 Li441 1.990 . S
N465 C464 1.314 . S
N465 C468 1.279 . S
C466 C464 1.353 . S
C466 C469 1.348 . S
C466 H514 0.929 . S
C467 C468 1.358 . S
C467 C469 1.356 . S
C467 H515 0.930 . S
C468 N465 1.279 . S
C468 C467 1.358 . S
C468 H471 0.930 . S
C469 C466 1.348 . S
C469 C467 1.356 . S
H470 C464 0.930 . S
H471 C468 0.930 . S
C472 C474 1.341 1_565 S
C472 C475 1.356 . S
C472 O502 1.325 . S
N473 C476 1.314 . S
N473 C477 1.279 . S
C474 C472 1.341 1_545 S
C474 C476 1.342 1_545 S
C474 H516 0.947 . S
C475 C472 1.356 . S
C475 C477 1.358 . S
C475 H517 0.930 . S
C476 N473 1.314 . S
C476 C474 1.342 1_565 S
C476 H518 0.930 1_565 S
C477 N473 1.279 . S
C477 C475 1.358 . S
C477 H519 0.930 . S
C478 C479 1.348 . S
C478 C480 1.356 1_556 S
C478 O503 1.325 1_556 S
C479 C478 1.348 . S
C479 C481 1.353 . S
C479 H520 0.929 . S
C480 C478 1.356 1_554 S
C480 C482 1.358 . S
C480 H521 0.930 . S
C481 C479 1.353 . S
C481 N483 1.314 . S
C481 H522 0.930 . S
C482 C480 1.358 . S
C482 N483 1.279 1_554 S
C482 H523 0.930 . S
N483 C481 1.314 . S
N483 C482 1.279 1_556 S
C484 C486 1.353 . S
C484 N487 1.314 . S
C484 H490 0.930 . S
C485 N487 1.279 . S
C485 C488 1.358 . S
C485 H491 0.930 . S
C486 C484 1.353 . S
C486 C489 1.348 . S
C486 H524 0.929 . S
N487 Li442 1.990 . S
N487 C484 1.314 . S
N487 C485 1.279 . S
C488 C485 1.358 . S
C488 C489 1.356 . S
C488 H525 0.930 . S
C489 C486 1.348 . S
C489 C488 1.356 . S
H490 C484 0.930 . S
H491 C485 0.930 . S
C492 N493 1.322 . S
C492 C494 1.362 . S
C492 H498 0.912 1_556 S
N493 Li443 1.990 1_556 S
N493 C492 1.322 . S
N493 C496 1.279 . S
C494 C492 1.362 . S
C494 C497 1.348 . S
C494 H526 0.929 . S
C495 C496 1.358 . S
C495 C497 1.356 . S
C495 H527 0.930 . S
C496 N493 1.279 . S
C496 C495 1.358 . S
C496 H499 0.930 . S
C497 C494 1.348 . S
C497 C495 1.356 . S
H498 C492 0.912 1_554 S
H499 C496 0.930 . S
O500 Li440 1.956 . S
O500 Li441 1.970 1_565 S
O500 Li442 1.961 1_554 S
O500 C444 1.325 . S
O501 Li440 1.970 1_545 S
O501 Li441 1.956 . S
O501 Li443 1.961 . S
O501 C450 1.325 . S
O502 Li440 1.961 1_556 S
O502 Li442 1.956 . S
O502 Li443 1.970 1_566 S
O502 C472 1.325 . S
O503 Li441 1.961 . S
O503 Li442 1.970 1_544 S
O503 Li443 1.956 . S
O503 C478 1.325 1_554 S
H504 C446 0.929 . S
H505 C447 0.930 1_556 S
H506 C448 0.930 . S
H507 C449 0.930 . S
H508 C451 0.930 . S
H509 C453 0.950 . S
H510 C454 0.930 . S
H511 C455 0.930 1_565 S
H512 C458 0.930 . S
H513 C461 0.929 . S
H514 C466 0.929 . S
H515 C467 0.930 . S
H516 C474 0.947 . S
H517 C475 0.930 . S
H518 C476 0.930 1_545 S
H519 C477 0.930 . S
H520 C479 0.929 . S
H521 C480 0.930 . S
H522 C481 0.930 . S
H523 C482 0.930 . S
H524 C486 0.929 . S
H525 C488 0.930 . S
H526 C494 0.929 . S
H527 C495 0.930 . S
Li528 N545 1.990 . S
Li528 O588 1.956 . S
Li528 O589 1.970 . S
Li528 O590 1.961 . S
Li529 N553 1.990 . S
Li529 O588 1.970 . S
Li529 O589 1.956 . S
Li529 O591 1.961 . S
Li530 N575 1.990 . S
Li530 O588 1.961 . S
Li530 O590 1.956 . S
Li530 O591 1.970 . S
Li531 N581 1.990 . S
Li531 O589 1.961 . S
Li531 O590 1.970 . S
Li531 O591 1.956 . S
C532 C534 1.348 . S
C532 C535 1.356 . S
C532 O588 1.325 . S
N533 C536 1.314 . S
N533 C537 1.279 . S
C534 C532 1.348 . S
C534 C536 1.353 . S
C534 H592 0.929 . S
C535 C532 1.356 . S
C535 C537 1.358 . S
C535 H593 0.930 . S
C536 N533 1.314 . S
C536 C534 1.353 . S
C536 H594 0.930 . S
C537 N533 1.279 . S
C537 C535 1.358 . S
C537 H595 0.930 . S
C538 C541 1.348 . S
C538 C542 1.356 . S
C538 O589 1.325 . S
C539 N540 1.279 . S
C539 C542 1.358 . S
C539 H596 0.930 . S
N540 C539 1.279 . S
N540 C543 1.314 . S
C541 C538 1.348 . S
C541 C543 1.353 . S
C541 H597 0.929 . S
C542 C538 1.356 . S
C542 C539 1.358 . S
C542 H598 0.930 . S
C543 N540 1.314 . S
C543 C541 1.353 . S
C543 H599 0.930 . S
C544 N545 1.314 . S
C544 C549 1.353 . S
C544 H550 0.930 . S
N545 Li528 1.990 . S
N545 C544 1.314 . S
N545 C547 1.279 . S
C546 C547 1.358 . S
C546 C548 1.356 . S
C546 H600 0.930 . S
C547 N545 1.279 . S
C547 C546 1.358 . S
C547 H551 0.930 . S
C548 C546 1.356 . S
C548 C549 1.348 . S
C549 C544 1.353 . S
C549 C548 1.348 . S
C549 H601 0.929 . S
H550 C544 0.930 . S
H551 C547 0.930 . S
C552 N553 1.314 . S
C552 C554 1.353 . S
C552 H558 0.930 . S
N553 Li529 1.990 . S
N553 C552 1.314 . S
N553 C556 1.279 . S
C554 C552 1.353 . S
C554 C557 1.348 . S
C554 H602 0.929 . S
C555 C556 1.358 . S
C555 C557 1.356 . S
C555 H603 0.930 . S
C556 N553 1.279 . S
C556 C555 1.358 . S
C556 H559 0.930 . S
C557 C554 1.348 . S
C557 C555 1.356 . S
H558 C552 0.930 . S
H559 C556 0.930 . S
C560 C562 1.348 . S
C560 C563 1.356 . S
C560 O590 1.325 . S
N561 C564 1.314 . S
N561 C565 1.279 . S
C562 C560 1.348 . S
C562 C564 1.353 . S
C562 H604 0.929 . S
C563 C560 1.356 . S
C563 C565 1.358 . S
C563 H605 0.930 . S
C564 N561 1.314 . S
C564 C562 1.353 . S
C564 H606 0.930 . S
C565 N561 1.279 . S
C565 C563 1.358 . S
C565 H607 0.930 . S
C566 C567 1.348 . S
C566 C568 1.356 . S
C566 O591 1.325 . S
C567 C566 1.348 . S
C567 C569 1.353 . S
C567 H608 0.929 . S
C568 C566 1.356 . S
C568 C570 1.358 . S
C568 H609 0.930 . S
C569 C567 1.353 . S
C569 N571 1.314 . S
C569 H610 0.930 . S
C570 C568 1.358 . S
C570 N571 1.279 . S
C570 H611 0.930 . S
N571 C569 1.314 . S
N571 C570 1.279 . S
C572 C574 1.353 . S
C572 N575 1.314 . S
C572 H578 0.930 . S
C573 N575 1.279 . S
C573 C576 1.358 . S
C573 H579 0.930 . S
C574 C572 1.353 . S
C574 C577 1.348 . S
C574 H612 0.929 . S
N575 Li530 1.990 . S
N575 C572 1.314 . S
N575 C573 1.279 . S
C576 C573 1.358 . S
C576 C577 1.356 . S
C576 H613 0.930 . S
C577 C574 1.348 . S
C577 C576 1.356 . S
H578 C572 0.930 . S
H579 C573 0.930 . S
C580 N581 1.314 . S
C580 C582 1.353 . S
C580 H586 0.930 . S
N581 Li531 1.990 . S
N581 C580 1.314 . S
N581 C584 1.279 . S
C582 C580 1.353 . S
C582 C585 1.348 . S
C582 H614 0.929 . S
C583 C584 1.358 . S
C583 C585 1.356 . S
C583 H615 0.930 . S
C584 N581 1.279 . S
C584 C583 1.358 . S
C584 H587 0.930 . S
C585 C582 1.348 . S
C585 C583 1.356 . S
H586 C580 0.930 . S
H587 C584 0.930 . S
O588 Li528 1.956 . S
O588 Li529 1.970 . S
O588 Li530 1.961 . S
O588 C532 1.325 . S
O589 Li528 1.970 . S
O589 Li529 1.956 . S
O589 Li531 1.961 . S
O589 C538 1.325 . S
O590 Li528 1.961 . S
O590 Li530 1.956 . S
O590 Li531 1.970 . S
O590 C560 1.325 . S
O591 Li529 1.961 . S
O591 Li530 1.970 . S
O591 Li531 1.956 . S
O591 C566 1.325 . S
H592 C534 0.929 . S
H593 C535 0.930 . S
H594 C536 0.930 . S
H595 C537 0.930 . S
H596 C539 0.930 . S
H597 C541 0.929 . S
H598 C542 0.930 . S
H599 C543 0.930 . S
H600 C546 0.930 . S
H601 C549 0.929 . S
H602 C554 0.929 . S
H603 C555 0.930 . S
H604 C562 0.929 . S
H605 C563 0.930 . S
H606 C564 0.930 . S
H607 C565 0.930 . S
H608 C567 0.929 . S
H609 C568 0.930 . S
H610 C569 0.930 . S
H611 C570 0.930 . S
H612 C574 0.929 . S
H613 C576 0.930 . S
H614 C582 0.929 . S
H615 C583 0.930 . S
Li616 N633 1.990 . S
Li616 O676 1.956 . S
Li616 O677 1.970 . S
Li616 O678 1.961 . S
Li617 N641 1.990 . S
Li617 O676 1.970 . S
Li617 O677 1.956 . S
Li617 O679 1.961 . S
Li618 N663 1.990 . S
Li618 O676 1.961 1_545 S
Li618 O678 1.956 1_545 S
Li618 O679 1.970 1_545 S
Li619 N669 1.990 . S
Li619 O677 1.961 . S
Li619 O678 1.970 . S
Li619 O679 1.956 . S
C620 C622 1.348 . S
C620 C623 1.356 . S
C620 O676 1.325 . S
N621 C624 1.314 . S
N621 C625 1.279 . S
C622 C620 1.348 . S
C622 C624 1.353 . S
C622 H680 0.929 . S
C623 C620 1.356 . S
C623 C625 1.358 . S
C623 H681 0.930 1_565 S
C624 N621 1.314 . S
C624 C622 1.353 . S
C624 H682 0.930 . S
C625 N621 1.279 . S
C625 C623 1.358 . S
C625 H683 0.939 . S
C626 C629 1.348 . S
C626 C630 1.356 . S
C626 O677 1.325 . S
C627 N628 1.279 . S
C627 C630 1.358 . S
C627 H684 0.930 . S
N628 C627 1.279 . S
N628 C631 1.314 . S
C629 C626 1.348 . S
C629 C631 1.353 . S
C629 H685 0.929 . S
C630 C626 1.356 . S
C630 C627 1.358 . S
C630 H686 0.930 . S
C631 N628 1.314 . S
C631 C629 1.353 . S
C631 H687 0.930 . S
C632 N633 1.314 . S
C632 C637 1.353 . S
C632 H638 0.930 . S
N633 Li616 1.990 . S
N633 C632 1.314 . S
N633 C635 1.279 . S
C634 C635 1.358 . S
C634 C636 1.356 . S
C634 H688 0.930 . S
C635 N633 1.279 . S
C635 C634 1.358 . S
C635 H639 0.930 . S
C636 C634 1.356 . S
C636 C637 1.348 . S
C637 C632 1.353 . S
C637 C636 1.348 . S
C637 H689 0.929 . S
H638 C632 0.930 . S
H639 C635 0.930 . S
C640 N641 1.314 . S
C640 C642 1.353 . S
C640 H646 0.930 . S
N641 Li617 1.990 . S
N641 C640 1.314 . S
N641 C644 1.279 . S
C642 C640 1.353 . S
C642 C645 1.348 . S
C642 H690 0.929 . S
C643 C644 1.358 . S
C643 C645 1.356 . S
C643 H691 0.930 . S
C644 N641 1.279 . S
C644 C643 1.358 . S
C644 H647 0.930 . S
C645 C642 1.348 . S
C645 C643 1.356 . S
H646 C640 0.930 . S
H647 C644 0.930 . S
C648 C650 1.348 . S
C648 C651 1.356 . S
C648 O678 1.325 1_545 S
N649 C652 1.314 . S
N649 C653 1.279 . S
C650 C648 1.348 . S
C650 C652 1.353 . S
C650 H692 0.929 . S
C651 C648 1.356 . S
C651 C653 1.358 . S
C651 H693 0.930 . S
C652 N649 1.314 . S
C652 C650 1.353 . S
C652 H694 0.930 . S
C653 N649 1.279 . S
C653 C651 1.358 . S
C653 H695 0.930 . S
C654 C655 1.348 1_565 S
C654 C656 1.356 . S
C654 O679 1.325 . S
C655 C654 1.348 1_545 S
C655 C657 1.353 . S
C655 H696 0.929 . S
C656 C654 1.356 . S
C656 C658 1.358 . S
C656 H697 0.930 . S
C657 C655 1.353 . S
C657 N659 1.314 . S
C657 H698 0.930 . S
C658 C656 1.358 . S
C658 N659 1.279 1_565 S
C658 H699 0.930 . S
N659 C657 1.314 . S
N659 C658 1.279 1_545 S
C660 C662 1.353 . S
C660 N663 1.314 . S
C660 H666 0.930 . S
C661 N663 1.279 . S
C661 C664 1.358 . S
C661 H667 0.930 . S
C662 C660 1.353 . S
C662 C665 1.348 . S
C662 H700 0.929 . S
N663 Li618 1.990 . S
N663 C660 1.314 . S
N663 C661 1.279 . S
C664 C661 1.358 . S
C664 C665 1.356 . S
C664 H701 0.930 . S
C665 C662 1.348 . S
C665 C664 1.356 . S
H666 C660 0.930 . S
H667 C661 0.930 . S
C668 N669 1.314 . S
C668 C670 1.353 . S
C668 H674 0.930 . S
N669 Li619 1.990 . S
N669 C668 1.314 . S
N669 C672 1.279 . S
C670 C668 1.353 . S
C670 C673 1.348 . S
C670 H702 0.929 . S
C671 C672 1.358 . S
C671 C673 1.356 . S
C671 H703 0.930 1_565 S
C672 N669 1.279 . S
C672 C671 1.358 . S
C672 H675 0.940 . S
C673 C670 1.348 . S
C673 C671 1.356 . S
H674 C668 0.930 . S
H675 C672 0.940 . S
O676 Li616 1.956 . S
O676 Li617 1.970 . S
O676 Li618 1.961 1_565 S
O676 C620 1.325 . S
O677 Li616 1.970 . S
O677 Li617 1.956 . S
O677 Li619 1.961 . S
O677 C626 1.325 . S
O678 Li616 1.961 . S
O678 Li618 1.956 1_565 S
O678 Li619 1.970 . S
O678 C648 1.325 1_565 S
O679 Li617 1.961 . S
O679 Li618 1.970 1_565 S
O679 Li619 1.956 . S
O679 C654 1.325 . S
H680 C622 0.929 . S
H681 C623 0.930 1_545 S
H682 C624 0.930 . S
H683 C625 0.939 . S
H684 C627 0.930 . S
H685 C629 0.929 . S
H686 C630 0.930 . S
H687 C631 0.930 . S
H688 C634 0.930 . S
H689 C637 0.929 . S
H690 C642 0.929 . S
H691 C643 0.930 . S
H692 C650 0.929 . S
H693 C651 0.930 . S
H694 C652 0.930 . S
H695 C653 0.930 . S
H696 C655 0.929 . S
H697 C656 0.930 . S
H698 C657 0.930 . S
H699 C658 0.930 . S
H700 C662 0.929 . S
H701 C664 0.930 . S
H702 C670 0.929 . S
H703 C671 0.930 1_545 S
Li704 N721 1.990 . S
Li704 O764 1.956 . S
Li704 O765 1.970 . S
Li704 O766 1.961 . S
Li705 N729 1.990 . S
Li705 O764 1.970 . S
Li705 O765 1.956 . S
Li705 O767 1.961 . S
Li706 N751 2.017 . S
Li706 O764 1.918 1_655 S
Li706 O766 1.956 1_655 S
Li706 O767 1.970 1_655 S
Li707 N757 1.990 . S
Li707 O765 1.961 . S
Li707 O766 1.970 . S
Li707 O767 1.956 . S
C708 C710 1.348 . S
C708 C711 1.356 . S
C708 O764 1.325 . S
N709 C712 1.314 . S
N709 C713 1.279 . S
C710 C708 1.348 . S
C710 C712 1.353 . S
C710 H768 0.929 . S
C711 C708 1.356 . S
C711 C713 1.358 . S
C711 H769 0.957 . S
C712 N709 1.314 . S
C712 C710 1.353 . S
C712 H770 0.930 . S
C713 N709 1.279 . S
C713 C711 1.358 . S
C713 H771 0.930 . S
C714 C717 1.348 . S
C714 C718 1.356 . S
C714 O765 1.325 . S
C715 N716 1.279 . S
C715 C718 1.358 . S
C715 H772 0.930 . S
N716 C715 1.279 . S
N716 C719 1.314 . S
C717 C714 1.348 . S
C717 C719 1.353 . S
C717 H773 0.929 . S
C718 C714 1.356 . S
C718 C715 1.358 . S
C718 H774 0.930 . S
C719 N716 1.314 . S
C719 C717 1.353 . S
C719 H775 0.930 . S
C720 N721 1.314 . S
C720 C725 1.353 . S
C720 H726 0.930 . S
N721 Li704 1.990 . S
N721 C720 1.314 . S
N721 C723 1.279 . S
C722 C723 1.358 . S
C722 C724 1.356 . S
C722 H776 0.930 . S
C723 N721 1.279 . S
C723 C722 1.358 . S
C723 H727 0.930 . S
C724 C722 1.356 . S
C724 C725 1.348 . S
C725 C720 1.353 . S
C725 C724 1.348 . S
C725 H777 0.929 . S
H726 C720 0.930 . S
H727 C723 0.930 . S
C728 N729 1.314 . S
C728 C730 1.353 . S
C728 H734 0.930 . S
N729 Li705 1.990 . S
N729 C728 1.314 . S
N729 C732 1.279 . S
C730 C728 1.353 . S
C730 C733 1.348 . S
C730 H778 0.929 . S
C731 C732 1.358 . S
C731 C733 1.356 . S
C731 H779 0.930 . S
C732 N729 1.279 . S
C732 C731 1.358 . S
C732 H735 0.930 . S
C733 C730 1.348 . S
C733 C731 1.356 . S
H734 C728 0.930 . S
H735 C732 0.930 . S
C736 C738 1.348 . S
C736 C739 1.356 . S
C736 O766 1.325 1_655 S
N737 C740 1.314 . S
N737 C741 1.279 . S
C738 C736 1.348 . S
C738 C740 1.353 . S
C738 H780 0.929 . S
C739 C736 1.356 . S
C739 C741 1.358 . S
C739 H781 0.930 . S
C740 N737 1.314 . S
C740 C738 1.353 . S
C740 H782 0.930 . S
C741 N737 1.279 . S
C741 C739 1.358 . S
C741 H783 0.930 . S
C742 C743 1.348 1_455 S
C742 C744 1.356 . S
C742 O767 1.325 . S
C743 C742 1.348 1_655 S
C743 C745 1.353 . S
C743 H784 0.929 . S
C744 C742 1.356 . S
C744 C746 1.358 . S
C744 H785 0.930 . S
C745 C743 1.353 . S
C745 N747 1.314 . S
C745 H786 0.930 . S
C746 C744 1.358 . S
C746 N747 1.279 1_455 S
C746 H787 0.930 . S
N747 C745 1.314 . S
N747 C746 1.279 1_655 S
C748 C750 1.353 . S
C748 N751 1.314 . S
C748 H754 0.930 . S
C749 N751 1.279 . S
C749 C752 1.358 . S
C749 H755 0.930 . S
C750 C748 1.353 . S
C750 C753 1.348 . S
C750 H788 0.929 . S
N751 Li706 2.017 . S
N751 C748 1.314 . S
N751 C749 1.279 . S
C752 C749 1.358 . S
C752 C753 1.356 . S
C752 H789 0.930 . S
C753 C750 1.348 . S
C753 C752 1.356 . S
H754 C748 0.930 . S
H755 C749 0.930 . S
C756 N757 1.314 . S
C756 C758 1.353 . S
C756 H762 0.930 . S
N757 Li707 1.990 . S
N757 C756 1.314 . S
N757 C760 1.279 . S
C758 C756 1.353 . S
C758 C761 1.348 . S
C758 H790 0.929 . S
C759 C760 1.358 . S
C759 C761 1.356 . S
C759 H791 0.954 . S
C760 N757 1.279 . S
C760 C759 1.358 . S
C760 H763 0.930 . S
C761 C758 1.348 . S
C761 C759 1.356 . S
H762 C756 0.930 . S
H763 C760 0.930 . S
O764 Li704 1.956 . S
O764 Li705 1.970 . S
O764 Li706 1.918 1_455 S
O764 C708 1.325 . S
O765 Li704 1.970 . S
O765 Li705 1.956 . S
O765 Li707 1.961 . S
O765 C714 1.325 . S
O766 Li704 1.961 . S
O766 Li706 1.956 1_455 S
O766 Li707 1.970 . S
O766 C736 1.325 1_455 S
O767 Li705 1.961 . S
O767 Li706 1.970 1_455 S
O767 Li707 1.956 . S
O767 C742 1.325 . S
H768 C710 0.929 . S
H769 C711 0.957 . S
H770 C712 0.930 . S
H771 C713 0.930 . S
H772 C715 0.930 . S
H773 C717 0.929 . S
H774 C718 0.930 . S
H775 C719 0.930 . S
H776 C722 0.930 . S
H777 C725 0.929 . S
H778 C730 0.929 . S
H779 C731 0.930 . S
H780 C738 0.929 . S
H781 C739 0.930 . S
H782 C740 0.930 . S
H783 C741 0.930 . S
H784 C743 0.929 . S
H785 C744 0.930 . S
H786 C745 0.930 . S
H787 C746 0.930 . S
H788 C750 0.929 . S
H789 C752 0.930 . S
H790 C758 0.929 . S
H791 C759 0.954 . S
Li792 N809 1.990 . S
Li792 O852 1.956 1_545 S
Li792 O853 1.970 1_545 S
Li792 O854 1.961 1_545 S
Li793 N817 1.990 . S
Li793 O852 1.970 . S
Li793 O853 1.956 . S
Li793 O855 1.961 . S
Li794 N839 1.990 . S
Li794 O852 1.961 . S
Li794 O854 1.956 . S
Li794 O855 1.970 . S
Li795 N845 1.990 . S
Li795 O853 1.961 . S
Li795 O854 1.970 . S
Li795 O855 1.956 . S
C796 C798 1.348 . S
C796 C799 1.356 . S
C796 O852 1.325 . S
N797 C800 1.314 . S
N797 C801 1.279 . S
C798 C796 1.348 . S
C798 C800 1.353 . S
C798 H856 0.929 . S
C799 C796 1.356 . S
C799 C801 1.358 . S
C799 H857 0.930 . S
C800 N797 1.314 . S
C800 C798 1.353 . S
C800 H858 0.930 . S
C801 N797 1.279 . S
C801 C799 1.358 . S
C801 H859 0.930 . S
C802 C805 1.348 1_565 S
C802 C806 1.356 . S
C802 O853 1.325 . S
C803 N804 1.279 1_565 S
C803 C806 1.358 . S
C803 H860 0.930 . S
N804 C803 1.279 1_545 S
N804 C807 1.314 . S
C805 C802 1.348 1_545 S
C805 C807 1.353 . S
C805 H861 0.929 . S
C806 C802 1.356 . S
C806 C803 1.358 . S
C806 H862 0.930 . S
C807 N804 1.314 . S
C807 C805 1.353 . S
C807 H863 0.930 . S
C808 N809 1.314 . S
C808 C813 1.353 . S
C808 H814 0.930 . S
N809 Li792 1.990 . S
N809 C808 1.314 . S
N809 C811 1.279 . S
C810 C811 1.358 . S
C810 C812 1.356 . S
C810 H864 0.930 . S
C811 N809 1.279 . S
C811 C810 1.358 . S
C811 H815 0.930 . S
C812 C810 1.356 . S
C812 C813 1.348 . S
C813 C808 1.353 . S
C813 C812 1.348 . S
C813 H865 0.929 . S
H814 C808 0.930 . S
H815 C811 0.930 . S
C816 N817 1.314 . S
C816 C818 1.353 . S
C816 H822 0.930 . S
N817 Li793 1.990 . S
N817 C816 1.314 . S
N817 C820 1.279 . S
C818 C816 1.353 . S
C818 C821 1.348 . S
C818 H866 0.929 . S
C819 C820 1.358 . S
C819 C821 1.356 . S
C819 H867 0.930 . S
C820 N817 1.279 . S
C820 C819 1.358 . S
C820 H823 0.930 . S
C821 C818 1.348 . S
C821 C819 1.356 . S
H822 C816 0.930 . S
H823 C820 0.930 . S
C824 C826 1.348 . S
C824 C827 1.356 . S
C824 O854 1.325 1_545 S
N825 C828 1.314 . S
N825 C829 1.279 . S
C826 C824 1.348 . S
C826 C828 1.353 . S
C826 H868 0.929 . S
C827 C824 1.356 . S
C827 C829 1.358 . S
C827 H869 0.930 . S
C828 N825 1.314 . S
C828 C826 1.353 . S
C828 H870 0.930 . S
C829 N825 1.279 . S
C829 C827 1.358 . S
C829 H871 0.930 . S
C830 C831 1.348 . S
C830 C832 1.356 . S
C830 O855 1.325 . S
C831 C830 1.348 . S
C831 C833 1.353 . S
C831 H872 0.929 . S
C832 C830 1.356 . S
C832 C834 1.358 . S
C832 H873 0.930 . S
C833 C831 1.353 . S
C833 N835 1.314 . S
C833 H874 0.930 . S
C834 C832 1.358 . S
C834 N835 1.279 . S
C834 H875 0.930 . S
N835 C833 1.314 . S
N835 C834 1.279 . S
C836 C838 1.353 . S
C836 N839 1.314 . S
C836 H842 0.930 . S
C837 N839 1.279 . S
C837 C840 1.358 . S
C837 H843 0.930 . S
C838 C836 1.353 . S
C838 C841 1.348 . S
C838 H876 0.929 . S
N839 Li794 1.990 . S
N839 C836 1.314 . S
N839 C837 1.279 . S
C840 C837 1.358 . S
C840 C841 1.356 . S
C840 H877 0.930 . S
C841 C838 1.348 . S
C841 C840 1.356 . S
H842 C836 0.930 . S
H843 C837 0.930 . S
C844 N845 1.314 . S
C844 C846 1.387 . S
C844 H850 0.930 1_565 S
N845 Li795 1.990 . S
N845 C844 1.314 . S
N845 C848 1.279 . S
C846 C844 1.387 . S
C846 C849 1.369 . S
C846 H878 0.877 1_565 S
C847 C848 1.358 . S
C847 C849 1.356 . S
C847 H879 0.930 . S
C848 N845 1.279 . S
C848 C847 1.358 . S
C848 H851 0.930 . S
C849 C846 1.369 . S
C849 C847 1.356 . S
H850 C844 0.930 1_545 S
H851 C848 0.930 . S
O852 Li792 1.956 1_565 S
O852 Li793 1.970 . S
O852 Li794 1.961 . S
O852 C796 1.325 . S
O853 Li792 1.970 1_565 S
O853 Li793 1.956 . S
O853 Li795 1.961 . S
O853 C802 1.325 . S
O854 Li792 1.961 1_565 S
O854 Li794 1.956 . S
O854 Li795 1.970 . S
O854 C824 1.325 1_565 S
O855 Li793 1.961 . S
O855 Li794 1.970 . S
O855 Li795 1.956 . S
O855 C830 1.325 . S
H856 C798 0.929 . S
H857 C799 0.930 . S
H858 C800 0.930 . S
H859 C801 0.930 . S
H860 C803 0.930 . S
H861 C805 0.929 . S
H862 C806 0.930 . S
H863 C807 0.930 . S
H864 C810 0.930 . S
H865 C813 0.929 . S
H866 C818 0.929 . S
H867 C819 0.930 . S
H868 C826 0.929 . S
H869 C827 0.930 . S
H870 C828 0.930 . S
H871 C829 0.930 . S
H872 C831 0.929 . S
H873 C832 0.930 . S
H874 C833 0.930 . S
H875 C834 0.930 . S
H876 C838 0.929 . S
H877 C840 0.930 . S
H878 C846 0.877 1_545 S
H879 C847 0.930 . S
Li880 N897 1.990 . S
Li880 O940 1.956 . S
Li880 O941 1.970 . S
Li880 O942 1.961 . S
Li881 N905 1.990 . S
Li881 O940 1.970 1_655 S
Li881 O941 1.956 1_655 S
Li881 O943 1.961 1_655 S
Li882 N927 1.990 . S
Li882 O940 1.961 . S
Li882 O942 1.956 . S
Li882 O943 1.970 . S
Li883 N933 1.990 . S
Li883 O941 1.961 . S
Li883 O942 1.970 . S
Li883 O943 1.956 . S
C884 C886 1.348 1_455 S
C884 C887 1.356 . S
C884 O940 1.325 . S
N885 C888 1.314 . S
N885 C889 1.279 1_655 S
C886 C884 1.348 1_655 S
C886 C888 1.353 . S
C886 H944 0.929 . S
C887 C884 1.356 . S
C887 C889 1.358 . S
C887 H945 0.930 . S
C888 N885 1.314 . S
C888 C886 1.353 . S
C888 H946 0.930 . S
C889 N885 1.279 1_455 S
C889 C887 1.358 . S
C889 H947 0.930 . S
C890 C893 1.348 . S
C890 C894 1.356 . S
C890 O941 1.325 . S
C891 N892 1.279 . S
C891 C894 1.358 . S
C891 H948 0.930 . S
N892 C891 1.279 . S
N892 C895 1.314 . S
C893 C890 1.348 . S
C893 C895 1.353 . S
C893 H949 0.929 . S
C894 C890 1.356 . S
C894 C891 1.358 . S
C894 H950 0.930 . S
C895 N892 1.314 . S
C895 C893 1.353 . S
C895 H951 0.930 . S
C896 N897 1.314 . S
C896 C901 1.353 . S
C896 H902 0.930 . S
N897 Li880 1.990 . S
N897 C896 1.314 . S
N897 C899 1.279 . S
C898 C899 1.358 . S
C898 C900 1.356 . S
C898 H952 0.930 . S
C899 N897 1.279 . S
C899 C898 1.358 . S
C899 H903 0.930 . S
C900 C898 1.356 . S
C900 C901 1.348 . S
C901 C896 1.353 . S
C901 C900 1.348 . S
C901 H953 0.929 . S
H902 C896 0.930 . S
H903 C899 0.930 . S
C904 N905 1.314 . S
C904 C906 1.353 . S
C904 H910 0.930 . S
N905 Li881 1.990 . S
N905 C904 1.314 . S
N905 C908 1.279 . S
C906 C904 1.353 . S
C906 C909 1.348 . S
C906 H954 0.929 . S
C907 C908 1.358 . S
C907 C909 1.356 . S
C907 H955 0.930 . S
C908 N905 1.279 . S
C908 C907 1.358 . S
C908 H911 0.930 . S
C909 C906 1.348 . S
C909 C907 1.356 . S
H910 C904 0.930 . S
H911 C908 0.930 . S
C912 C914 1.348 . S
C912 C915 1.356 . S
C912 O942 1.325 . S
N913 C916 1.314 . S
N913 C917 1.279 . S
C914 C912 1.348 . S
C914 C916 1.353 . S
C914 H956 0.929 . S
C915 C912 1.356 . S
C915 C917 1.358 . S
C915 H957 0.930 . S
C916 N913 1.314 . S
C916 C914 1.353 . S
C916 H958 0.930 . S
C917 N913 1.279 . S
C917 C915 1.358 . S
C917 H959 0.930 . S
C918 C919 1.348 . S
C918 C920 1.356 . S
C918 O943 1.325 1_655 S
C919 C918 1.348 . S
C919 C921 1.353 . S
C919 H960 0.929 . S
C920 C918 1.356 . S
C920 C922 1.358 . S
C920 H961 0.930 . S
C921 C919 1.353 . S
C921 N923 1.314 . S
C921 H962 0.930 . S
C922 C920 1.358 . S
C922 N923 1.279 . S
C922 H963 0.930 . S
N923 C921 1.314 . S
N923 C922 1.279 . S
C924 C926 1.356 . S
C924 N927 1.314 . S
C924 H930 0.930 1_455 S
C925 N927 1.279 . S
C925 C928 1.358 . S
C925 H931 0.930 . S
C926 C924 1.356 . S
C926 C929 1.342 . S
C926 H964 0.933 1_455 S
N927 Li882 1.990 . S
N927 C924 1.314 . S
N927 C925 1.279 . S
C928 C925 1.358 . S
C928 C929 1.356 . S
C928 H965 0.930 . S
C929 C926 1.342 . S
C929 C928 1.356 . S
H930 C924 0.930 1_655 S
H931 C925 0.930 . S
C932 N933 1.314 . S
C932 C934 1.353 . S
C932 H938 0.930 . S
N933 Li883 1.990 . S
N933 C932 1.314 . S
N933 C936 1.279 . S
C934 C932 1.353 . S
C934 C937 1.348 . S
C934 H966 0.929 . S
C935 C936 1.358 . S
C935 C937 1.356 . S
C935 H967 0.930 . S
C936 N933 1.279 . S
C936 C935 1.358 . S
C936 H939 0.930 . S
C937 C934 1.348 . S
C937 C935 1.356 . S
H938 C932 0.930 . S
H939 C936 0.930 . S
O940 Li880 1.956 . S
O940 Li881 1.970 1_455 S
O940 Li882 1.961 . S
O940 C884 1.325 . S
O941 Li880 1.970 . S
O941 Li881 1.956 1_455 S
O941 Li883 1.961 . S
O941 C890 1.325 . S
O942 Li880 1.961 . S
O942 Li882 1.956 . S
O942 Li883 1.970 . S
O942 C912 1.325 . S
O943 Li881 1.961 1_455 S
O943 Li882 1.970 . S
O943 Li883 1.956 . S
O943 C918 1.325 1_455 S
H944 C886 0.929 . S
H945 C887 0.930 . S
H946 C888 0.930 . S
H947 C889 0.930 . S
H948 C891 0.930 . S
H949 C893 0.929 . S
H950 C894 0.930 . S
H951 C895 0.930 . S
H952 C898 0.930 . S
H953 C901 0.929 . S
H954 C906 0.929 . S
H955 C907 0.930 . S
H956 C914 0.929 . S
H957 C915 0.930 . S
H958 C916 0.930 . S
H959 C917 0.930 . S
H960 C919 0.929 . S
H961 C920 0.930 . S
H962 C921 0.930 . S
H963 C922 0.930 . S
H964 C926 0.933 1_655 S
H965 C928 0.930 . S
H966 C934 0.929 . S
H967 C935 0.930 . S
Li968 N985 1.990 . S
Li968 O1028 1.956 . S
Li968 O1029 1.970 . S
Li968 O1030 1.961 . S
Li969 N993 1.990 . S
Li969 O1028 1.970 . S
Li969 O1029 1.956 . S
Li969 O1031 1.961 . S
Li970 N1015 1.990 . S
Li970 O1028 1.961 . S
Li970 O1030 1.956 . S
Li970 O1031 1.970 . S
Li971 N1021 1.990 . S
Li971 O1029 1.961 . S
Li971 O1030 1.970 . S
Li971 O1031 1.956 . S
C972 C974 1.348 . S
C972 C975 1.356 . S
C972 O1028 1.325 . S
N973 C976 1.314 . S
N973 C977 1.279 . S
C974 C972 1.348 . S
C974 C976 1.353 . S
C974 H1032 0.929 . S
C975 C972 1.356 . S
C975 C977 1.358 . S
C975 H1033 0.930 . S
C976 N973 1.314 . S
C976 C974 1.353 . S
C976 H1034 0.930 . S
C977 N973 1.279 . S
C977 C975 1.358 . S
C977 H1035 0.930 . S
C978 C981 1.348 . S
C978 C982 1.356 . S
C978 O1029 1.325 . S
C979 N980 1.279 . S
C979 C982 1.358 . S
C979 H1036 0.930 . S
N980 C979 1.279 . S
N980 C983 1.314 . S
C981 C978 1.348 . S
C981 C983 1.353 . S
C981 H1037 0.929 . S
C982 C978 1.356 . S
C982 C979 1.358 . S
C982 H1038 0.930 . S
C983 N980 1.314 . S
C983 C981 1.353 . S
C983 H1039 0.930 . S
C984 N985 1.314 . S
C984 C989 1.353 . S
C984 H990 0.930 . S
N985 Li968 1.990 . S
N985 C984 1.314 . S
N985 C987 1.279 . S
C986 C987 1.358 . S
C986 C988 1.356 . S
C986 H1040 0.930 . S
C987 N985 1.279 . S
C987 C986 1.358 . S
C987 H991 0.930 . S
C988 C986 1.356 . S
C988 C989 1.348 . S
C989 C984 1.353 . S
C989 C988 1.348 . S
C989 H1041 0.929 . S
H990 C984 0.930 . S
H991 C987 0.930 . S
C992 N993 1.314 . S
C992 C994 1.353 . S
C992 H998 0.930 . S
N993 Li969 1.990 . S
N993 C992 1.314 . S
N993 C996 1.279 . S
C994 C992 1.353 . S
C994 C997 1.348 . S
C994 H1042 0.929 . S
C995 C996 1.358 . S
C995 C997 1.356 . S
C995 H1043 0.930 . S
C996 N993 1.279 . S
C996 C995 1.358 . S
C996 H999 0.930 . S
C997 C994 1.348 . S
C997 C995 1.356 . S
H998 C992 0.930 . S
H999 C996 0.930 . S
C1000 C1002 1.348 . S
C1000 C1003 1.356 . S
C1000 O1030 1.325 . S
N1001 C1004 1.314 . S
N1001 C1005 1.279 . S
C1002 C1000 1.348 . S
C1002 C1004 1.353 . S
C1002 H1044 0.929 . S
C1003 C1000 1.356 . S
C1003 C1005 1.358 . S
C1003 H1045 0.930 . S
C1004 N1001 1.314 . S
C1004 C1002 1.353 . S
C1004 H1046 0.930 . S
C1005 N1001 1.279 . S
C1005 C1003 1.358 . S
C1005 H1047 0.930 . S
C1006 C1007 1.348 . S
C1006 C1008 1.356 . S
C1006 O1031 1.325 . S
C1007 C1006 1.348 . S
C1007 C1009 1.353 . S
C1007 H1048 0.929 . S
C1008 C1006 1.356 . S
C1008 C1010 1.358 . S
C1008 H1049 0.930 . S
C1009 C1007 1.353 . S
C1009 N1011 1.314 . S
C1009 H1050 0.930 . S
C1010 C1008 1.358 . S
C1010 N1011 1.279 . S
C1010 H1051 0.930 . S
N1011 C1009 1.314 . S
N1011 C1010 1.279 . S
C1012 C1014 1.353 . S
C1012 N1015 1.314 . S
C1012 H1018 0.930 . S
C1013 N1015 1.279 . S
C1013 C1016 1.358 . S
C1013 H1019 0.930 . S
C1014 C1012 1.353 . S
C1014 C1017 1.348 . S
C1014 H1052 0.929 . S
N1015 Li970 1.990 . S
N1015 C1012 1.314 . S
N1015 C1013 1.279 . S
C1016 C1013 1.358 . S
C1016 C1017 1.356 . S
C1016 H1053 0.930 . S
C1017 C1014 1.348 . S
C1017 C1016 1.356 . S
H1018 C1012 0.930 . S
H1019 C1013 0.930 . S
C1020 N1021 1.314 . S
C1020 C1022 1.353 . S
C1020 H1026 0.930 . S
N1021 Li971 1.990 . S
N1021 C1020 1.314 . S
N1021 C1024 1.279 . S
C1022 C1020 1.353 . S
C1022 C1025 1.348 . S
C1022 H1054 0.929 . S
C1023 C1024 1.358 . S
C1023 C1025 1.356 . S
C1023 H1055 0.930 . S
C1024 N1021 1.279 . S
C1024 C1023 1.358 . S
C1024 H1027 0.930 . S
C1025 C1022 1.348 . S
C1025 C1023 1.356 . S
H1026 C1020 0.930 . S
H1027 C1024 0.930 . S
O1028 Li968 1.956 . S
O1028 Li969 1.970 . S
O1028 Li970 1.961 . S
O1028 C972 1.325 . S
O1029 Li968 1.970 . S
O1029 Li969 1.956 . S
O1029 Li971 1.961 . S
O1029 C978 1.325 . S
O1030 Li968 1.961 . S
O1030 Li970 1.956 . S
O1030 Li971 1.970 . S
O1030 C1000 1.325 . S
O1031 Li969 1.961 . S
O1031 Li970 1.970 . S
O1031 Li971 1.956 . S
O1031 C1006 1.325 . S
H1032 C974 0.929 . S
H1033 C975 0.930 . S
H1034 C976 0.930 . S
H1035 C977 0.930 . S
H1036 C979 0.930 . S
H1037 C981 0.929 . S
H1038 C982 0.930 . S
H1039 C983 0.930 . S
H1040 C986 0.930 . S
H1041 C989 0.929 . S
H1042 C994 0.929 . S
H1043 C995 0.930 . S
H1044 C1002 0.929 . S
H1045 C1003 0.930 . S
H1046 C1004 0.930 . S
H1047 C1005 0.930 . S
H1048 C1007 0.929 . S
H1049 C1008 0.930 . S
H1050 C1009 0.930 . S
H1051 C1010 0.930 . S
H1052 C1014 0.929 . S
H1053 C1016 0.930 . S
H1054 C1022 0.929 . S
H1055 C1023 0.930 . S
Li1056 N1073 2.016 . S
Li1056 O1116 1.956 1_565 S
Li1056 O1117 1.970 1_565 S
Li1056 O1118 1.919 1_565 S
Li1057 N1081 1.990 . S
Li1057 O1116 1.970 . S
Li1057 O1117 1.956 . S
Li1057 O1119 1.961 . S
Li1058 N1103 1.990 . S
Li1058 O1116 1.961 . S
Li1058 O1118 1.956 . S
Li1058 O1119 1.970 . S
Li1059 N1109 1.990 . S
Li1059 O1117 1.961 . S
Li1059 O1118 1.970 . S
Li1059 O1119 1.956 . S
C1060 C1062 1.348 . S
C1060 C1063 1.356 . S
C1060 O1116 1.325 1_565 S
N1061 C1064 1.314 . S
N1061 C1065 1.279 . S
C1062 C1060 1.348 . S
C1062 C1064 1.353 . S
C1062 H1120 0.929 . S
C1063 C1060 1.356 . S
C1063 C1065 1.358 . S
C1063 H1121 0.930 . S
C1064 N1061 1.314 . S
C1064 C1062 1.353 . S
C1064 H1122 0.930 . S
C1065 N1061 1.279 . S
C1065 C1063 1.358 . S
C1065 H1123 0.930 . S
C1066 C1069 1.348 1_545 S
C1066 C1070 1.356 . S
C1066 O1117 1.325 . S
C1067 N1068 1.279 1_545 S
C1067 C1070 1.358 . S
C1067 H1124 0.930 . S
N1068 C1067 1.279 1_565 S
N1068 C1071 1.314 . S
C1069 C1066 1.348 1_565 S
C1069 C1071 1.353 . S
C1069 H1125 0.929 . S
C1070 C1066 1.356 . S
C1070 C1067 1.358 . S
C1070 H1126 0.930 . S
C1071 N1068 1.314 . S
C1071 C1069 1.353 . S
C1071 H1127 0.930 . S
C1072 N1073 1.314 . S
C1072 C1077 1.353 . S
C1072 H1078 0.930 . S
N1073 Li1056 2.016 . S
N1073 C1072 1.314 . S
N1073 C1075 1.279 . S
C1074 C1075 1.358 . S
C1074 C1076 1.356 . S
C1074 H1128 0.930 . S
C1075 N1073 1.279 . S
C1075 C1074 1.358 . S
C1075 H1079 0.930 . S
C1076 C1074 1.356 . S
C1076 C1077 1.348 . S
C1077 C1072 1.353 . S
C1077 C1076 1.348 . S
C1077 H1129 0.929 . S
H1078 C1072 0.930 . S
H1079 C1075 0.930 . S
C1080 N1081 1.314 . S
C1080 C1082 1.353 . S
C1080 H1086 0.930 . S
N1081 Li1057 1.990 . S
N1081 C1080 1.314 . S
N1081 C1084 1.279 . S
C1082 C1080 1.353 . S
C1082 C1085 1.348 . S
C1082 H1130 0.929 . S
C1083 C1084 1.358 . S
C1083 C1085 1.356 . S
C1083 H1131 0.955 . S
C1084 N1081 1.279 . S
C1084 C1083 1.358 . S
C1084 H1087 0.930 . S
C1085 C1082 1.348 . S
C1085 C1083 1.356 . S
H1086 C1080 0.930 . S
H1087 C1084 0.930 . S
C1088 C1090 1.348 . S
C1088 C1091 1.356 . S
C1088 O1118 1.325 . S
N1089 C1092 1.314 . S
N1089 C1093 1.279 . S
C1090 C1088 1.348 . S
C1090 C1092 1.353 . S
C1090 H1132 0.929 . S
C1091 C1088 1.356 . S
C1091 C1093 1.358 . S
C1091 H1133 0.958 . S
C1092 N1089 1.314 . S
C1092 C1090 1.353 . S
C1092 H1134 0.930 . S
C1093 N1089 1.279 . S
C1093 C1091 1.358 . S
C1093 H1135 0.930 . S
C1094 C1095 1.348 . S
C1094 C1096 1.356 . S
C1094 O1119 1.325 . S
C1095 C1094 1.348 . S
C1095 C1097 1.353 . S
C1095 H1136 0.929 . S
C1096 C1094 1.356 . S
C1096 C1098 1.358 . S
C1096 H1137 0.930 . S
C1097 C1095 1.353 . S
C1097 N1099 1.314 . S
C1097 H1138 0.930 . S
C1098 C1096 1.358 . S
C1098 N1099 1.279 . S
C1098 H1139 0.930 . S
N1099 C1097 1.314 . S
N1099 C1098 1.279 . S
C1100 C1102 1.353 . S
C1100 N1103 1.314 . S
C1100 H1106 0.930 . S
C1101 N1103 1.279 . S
C1101 C1104 1.358 . S
C1101 H1107 0.930 . S
C1102 C1100 1.353 . S
C1102 C1105 1.348 . S
C1102 H1140 0.929 . S
N1103 Li1058 1.990 . S
N1103 C1100 1.314 . S
N1103 C1101 1.279 . S
C1104 C1101 1.358 . S
C1104 C1105 1.356 . S
C1104 H1141 0.930 . S
C1105 C1102 1.348 . S
C1105 C1104 1.356 . S
H1106 C1100 0.930 . S
H1107 C1101 0.930 . S
C1108 N1109 1.314 . S
C1108 C1110 1.353 . S
C1108 H1114 0.930 . S
N1109 Li1059 1.990 . S
N1109 C1108 1.314 . S
N1109 C1112 1.279 . S
C1110 C1108 1.353 . S
C1110 C1113 1.348 . S
C1110 H1142 0.929 . S
C1111 C1112 1.358 . S
C1111 C1113 1.356 . S
C1111 H1143 0.930 . S
C1112 N1109 1.279 . S
C1112 C1111 1.358 . S
C1112 H1115 0.930 . S
C1113 C1110 1.348 . S
C1113 C1111 1.356 . S
H1114 C1108 0.930 . S
H1115 C1112 0.930 . S
O1116 Li1056 1.956 1_545 S
O1116 Li1057 1.970 . S
O1116 Li1058 1.961 . S
O1116 C1060 1.325 1_545 S
O1117 Li1056 1.970 1_545 S
O1117 Li1057 1.956 . S
O1117 Li1059 1.961 . S
O1117 C1066 1.325 . S
O1118 Li1056 1.919 1_545 S
O1118 Li1058 1.956 . S
O1118 Li1059 1.970 . S
O1118 C1088 1.325 . S
O1119 Li1057 1.961 . S
O1119 Li1058 1.970 . S
O1119 Li1059 1.956 . S
O1119 C1094 1.325 . S
H1120 C1062 0.929 . S
H1121 C1063 0.930 . S
H1122 C1064 0.930 . S
H1123 C1065 0.930 . S
H1124 C1067 0.930 . S
H1125 C1069 0.929 . S
H1126 C1070 0.930 . S
H1127 C1071 0.930 . S
H1128 C1074 0.930 . S
H1129 C1077 0.929 . S
H1130 C1082 0.929 . S
H1131 C1083 0.955 . S
H1132 C1090 0.929 . S
H1133 C1091 0.958 . S
H1134 C1092 0.930 . S
H1135 C1093 0.930 . S
H1136 C1095 0.929 . S
H1137 C1096 0.930 . S
H1138 C1097 0.930 . S
H1139 C1098 0.930 . S
H1140 C1102 0.929 . S
H1141 C1104 0.930 . S
H1142 C1110 0.929 . S
H1143 C1111 0.930 . S
Li1144 N1161 1.990 . S
Li1144 O1204 1.956 1_455 S
Li1144 O1205 1.970 1_455 S
Li1144 O1206 1.961 1_455 S
Li1145 N1169 1.990 . S
Li1145 O1204 1.970 . S
Li1145 O1205 1.956 . S
Li1145 O1207 1.961 . S
Li1146 N1191 1.990 . S
Li1146 O1204 1.961 . S
Li1146 O1206 1.956 . S
Li1146 O1207 1.970 . S
Li1147 N1197 1.990 . S
Li1147 O1205 1.961 . S
Li1147 O1206 1.970 . S
Li1147 O1207 1.956 . S
C1148 C1150 1.348 . S
C1148 C1151 1.356 . S
C1148 O1204 1.325 1_455 S
N1149 C1152 1.314 . S
N1149 C1153 1.279 . S
C1150 C1148 1.348 . S
C1150 C1152 1.353 . S
C1150 H1208 0.929 . S
C1151 C1148 1.356 . S
C1151 C1153 1.358 . S
C1151 H1209 0.930 . S
C1152 N1149 1.314 . S
C1152 C1150 1.353 . S
C1152 H1210 0.930 . S
C1153 N1149 1.279 . S
C1153 C1151 1.358 . S
C1153 H1211 0.930 . S
C1154 C1157 1.348 1_655 S
C1154 C1158 1.356 . S
C1154 O1205 1.325 . S
C1155 N1156 1.279 1_655 S
C1155 C1158 1.358 . S
C1155 H1212 0.930 . S
N1156 C1155 1.279 1_455 S
N1156 C1159 1.314 . S
C1157 C1154 1.348 1_455 S
C1157 C1159 1.353 . S
C1157 H1213 0.929 . S
C1158 C1154 1.356 . S
C1158 C1155 1.358 . S
C1158 H1214 0.930 . S
C1159 N1156 1.314 . S
C1159 C1157 1.353 . S
C1159 H1215 0.930 . S
C1160 N1161 1.314 . S
C1160 C1165 1.353 . S
C1160 H1166 0.930 . S
N1161 Li1144 1.990 . S
N1161 C1160 1.314 . S
N1161 C1163 1.279 . S
C1162 C1163 1.358 . S
C1162 C1164 1.356 . S
C1162 H1216 0.930 . S
C1163 N1161 1.279 . S
C1163 C1162 1.358 . S
C1163 H1167 0.930 . S
C1164 C1162 1.356 . S
C1164 C1165 1.348 . S
C1165 C1160 1.353 . S
C1165 C1164 1.348 . S
C1165 H1217 0.929 . S
H1166 C1160 0.930 . S
H1167 C1163 0.930 . S
C1168 N1169 1.314 . S
C1168 C1170 1.353 . S
C1168 H1174 0.930 . S
N1169 Li1145 1.990 . S
N1169 C1168 1.314 . S
N1169 C1172 1.279 . S
C1170 C1168 1.353 . S
C1170 C1173 1.348 . S
C1170 H1218 0.929 . S
C1171 C1172 1.358 . S
C1171 C1173 1.356 . S
C1171 H1219 0.930 1_655 S
C1172 N1169 1.279 . S
C1172 C1171 1.358 . S
C1172 H1175 0.941 . S
C1173 C1170 1.348 . S
C1173 C1171 1.356 . S
H1174 C1168 0.930 . S
H1175 C1172 0.941 . S
C1176 C1178 1.348 . S
C1176 C1179 1.356 . S
C1176 O1206 1.325 . S
N1177 C1180 1.314 . S
N1177 C1181 1.279 . S
C1178 C1176 1.348 . S
C1178 C1180 1.353 . S
C1178 H1220 0.929 . S
C1179 C1176 1.356 . S
C1179 C1181 1.358 . S
C1179 H1221 0.930 1_655 S
C1180 N1177 1.314 . S
C1180 C1178 1.353 . S
C1180 H1222 0.930 . S
C1181 N1177 1.279 . S
C1181 C1179 1.358 . S
C1181 H1223 0.939 . S
C1182 C1183 1.348 . S
C1182 C1184 1.356 . S
C1182 O1207 1.325 . S
C1183 C1182 1.348 . S
C1183 C1185 1.353 . S
C1183 H1224 0.929 . S
C1184 C1182 1.356 . S
C1184 C1186 1.358 . S
C1184 H1225 0.930 . S
C1185 C1183 1.353 . S
C1185 N1187 1.314 . S
C1185 H1226 0.930 . S
C1186 C1184 1.358 . S
C1186 N1187 1.279 . S
C1186 H1227 0.930 . S
N1187 C1185 1.314 . S
N1187 C1186 1.279 . S
C1188 C1190 1.353 . S
C1188 N1191 1.314 . S
C1188 H1194 0.930 . S
C1189 N1191 1.279 . S
C1189 C1192 1.358 . S
C1189 H1195 0.930 . S
C1190 C1188 1.353 . S
C1190 C1193 1.348 . S
C1190 H1228 0.929 . S
N1191 Li1146 1.990 . S
N1191 C1188 1.314 . S
N1191 C1189 1.279 . S
C1192 C1189 1.358 . S
C1192 C1193 1.356 . S
C1192 H1229 0.930 . S
C1193 C1190 1.348 . S
C1193 C1192 1.356 . S
H1194 C1188 0.930 . S
H1195 C1189 0.930 . S
C1196 N1197 1.314 . S
C1196 C1198 1.353 . S
C1196 H1202 0.930 . S
N1197 Li1147 1.990 . S
N1197 C1196 1.314 . S
N1197 C1200 1.279 . S
C1198 C1196 1.353 . S
C1198 C1201 1.348 . S
C1198 H1230 0.929 . S
C1199 C1200 1.358 . S
C1199 C1201 1.356 . S
C1199 H1231 0.930 . S
C1200 N1197 1.279 . S
C1200 C1199 1.358 . S
C1200 H1203 0.930 . S
C1201 C1198 1.348 . S
C1201 C1199 1.356 . S
H1202 C1196 0.930 . S
H1203 C1200 0.930 . S
O1204 Li1144 1.956 1_655 S
O1204 Li1145 1.970 . S
O1204 Li1146 1.961 . S
O1204 C1148 1.325 1_655 S
O1205 Li1144 1.970 1_655 S
O1205 Li1145 1.956 . S
O1205 Li1147 1.961 . S
O1205 C1154 1.325 . S
O1206 Li1144 1.961 1_655 S
O1206 Li1146 1.956 . S
O1206 Li1147 1.970 . S
O1206 C1176 1.325 . S
O1207 Li1145 1.961 . S
O1207 Li1146 1.970 . S
O1207 Li1147 1.956 . S
O1207 C1182 1.325 . S
H1208 C1150 0.929 . S
H1209 C1151 0.930 . S
H1210 C1152 0.930 . S
H1211 C1153 0.930 . S
H1212 C1155 0.930 . S
H1213 C1157 0.929 . S
H1214 C1158 0.930 . S
H1215 C1159 0.930 . S
H1216 C1162 0.930 . S
H1217 C1165 0.929 . S
H1218 C1170 0.929 . S
H1219 C1171 0.930 1_455 S
H1220 C1178 0.929 . S
H1221 C1179 0.930 1_455 S
H1222 C1180 0.930 . S
H1223 C1181 0.939 . S
H1224 C1183 0.929 . S
H1225 C1184 0.930 . S
H1226 C1185 0.930 . S
H1227 C1186 0.930 . S
H1228 C1190 0.929 . S
H1229 C1192 0.930 . S
H1230 C1198 0.929 . S
H1231 C1199 0.930 . S
Li1232 N1249 1.990 . S
Li1232 O1292 1.956 . S
Li1232 O1293 1.970 . S
Li1232 O1294 1.961 . S
Li1233 N1257 1.990 . S
Li1233 O1292 1.970 . S
Li1233 O1293 1.956 . S
Li1233 O1295 1.961 . S
Li1234 N1279 1.990 . S
Li1234 O1292 1.961 . S
Li1234 O1294 1.956 . S
Li1234 O1295 1.970 . S
Li1235 N1285 1.990 . S
Li1235 O1293 1.961 . S
Li1235 O1294 1.970 . S
Li1235 O1295 1.956 . S
C1236 C1238 1.348 . S
C1236 C1239 1.356 . S
C1236 O1292 1.325 . S
N1237 C1240 1.314 . S
N1237 C1241 1.279 . S
C1238 C1236 1.348 . S
C1238 C1240 1.353 . S
C1238 H1296 0.929 . S
C1239 C1236 1.356 . S
C1239 C1241 1.358 . S
C1239 H1297 0.930 . S
C1240 N1237 1.314 . S
C1240 C1238 1.353 . S
C1240 H1298 0.930 . S
C1241 N1237 1.279 . S
C1241 C1239 1.358 . S
C1241 H1299 0.930 . S
C1242 C1245 1.348 . S
C1242 C1246 1.356 . S
C1242 O1293 1.325 . S
C1243 N1244 1.279 . S
C1243 C1246 1.358 . S
C1243 H1300 0.930 . S
N1244 C1243 1.279 . S
N1244 C1247 1.314 . S
C1245 C1242 1.348 . S
C1245 C1247 1.353 . S
C1245 H1301 0.929 . S
C1246 C1242 1.356 . S
C1246 C1243 1.358 . S
C1246 H1302 0.930 . S
C1247 N1244 1.314 . S
C1247 C1245 1.353 . S
C1247 H1303 0.930 . S
C1248 N1249 1.314 . S
C1248 C1253 1.353 . S
C1248 H1254 0.930 . S
N1249 Li1232 1.990 . S
N1249 C1248 1.314 . S
N1249 C1251 1.279 . S
C1250 C1251 1.358 . S
C1250 C1252 1.356 . S
C1250 H1304 0.930 . S
C1251 N1249 1.279 . S
C1251 C1250 1.358 . S
C1251 H1255 0.930 . S
C1252 C1250 1.356 . S
C1252 C1253 1.348 . S
C1253 C1248 1.353 . S
C1253 C1252 1.348 . S
C1253 H1305 0.929 . S
H1254 C1248 0.930 . S
H1255 C1251 0.930 . S
C1256 N1257 1.314 . S
C1256 C1258 1.353 . S
C1256 H1262 0.930 . S
N1257 Li1233 1.990 . S
N1257 C1256 1.314 . S
N1257 C1260 1.279 . S
C1258 C1256 1.353 . S
C1258 C1261 1.348 . S
C1258 H1306 0.929 . S
C1259 C1260 1.358 . S
C1259 C1261 1.356 . S
C1259 H1307 0.930 . S
C1260 N1257 1.279 . S
C1260 C1259 1.358 . S
C1260 H1263 0.930 . S
C1261 C1258 1.348 . S
C1261 C1259 1.356 . S
H1262 C1256 0.930 . S
H1263 C1260 0.930 . S
C1264 C1266 1.348 . S
C1264 C1267 1.356 . S
C1264 O1294 1.325 . S
N1265 C1268 1.314 . S
N1265 C1269 1.279 . S
C1266 C1264 1.348 . S
C1266 C1268 1.353 . S
C1266 H1308 0.929 . S
C1267 C1264 1.356 . S
C1267 C1269 1.358 . S
C1267 H1309 0.930 . S
C1268 N1265 1.314 . S
C1268 C1266 1.353 . S
C1268 H1310 0.930 . S
C1269 N1265 1.279 . S
C1269 C1267 1.358 . S
C1269 H1311 0.930 . S
C1270 C1271 1.348 . S
C1270 C1272 1.356 . S
C1270 O1295 1.325 . S
C1271 C1270 1.348 . S
C1271 C1273 1.353 . S
C1271 H1312 0.929 . S
C1272 C1270 1.356 . S
C1272 C1274 1.358 . S
C1272 H1313 0.930 . S
C1273 C1271 1.353 . S
C1273 N1275 1.314 . S
C1273 H1314 0.930 . S
C1274 C1272 1.358 . S
C1274 N1275 1.279 . S
C1274 H1315 0.930 . S
N1275 C1273 1.314 . S
N1275 C1274 1.279 . S
C1276 C1278 1.353 . S
C1276 N1279 1.314 . S
C1276 H1282 0.930 . S
C1277 N1279 1.279 . S
C1277 C1280 1.358 . S
C1277 H1283 0.930 . S
C1278 C1276 1.353 . S
C1278 C1281 1.348 . S
C1278 H1316 0.929 . S
N1279 Li1234 1.990 . S
N1279 C1276 1.314 . S
N1279 C1277 1.279 . S
C1280 C1277 1.358 . S
C1280 C1281 1.356 . S
C1280 H1317 0.930 . S
C1281 C1278 1.348 . S
C1281 C1280 1.356 . S
H1282 C1276 0.930 . S
H1283 C1277 0.930 . S
C1284 N1285 1.314 . S
C1284 C1286 1.353 . S
C1284 H1290 0.930 . S
N1285 Li1235 1.990 . S
N1285 C1284 1.314 . S
N1285 C1288 1.279 . S
C1286 C1284 1.353 . S
C1286 C1289 1.348 . S
C1286 H1318 0.929 . S
C1287 C1288 1.358 . S
C1287 C1289 1.356 . S
C1287 H1319 0.930 . S
C1288 N1285 1.279 . S
C1288 C1287 1.358 . S
C1288 H1291 0.930 . S
C1289 C1286 1.348 . S
C1289 C1287 1.356 . S
H1290 C1284 0.930 . S
H1291 C1288 0.930 . S
O1292 Li1232 1.956 . S
O1292 Li1233 1.970 . S
O1292 Li1234 1.961 . S
O1292 C1236 1.325 . S
O1293 Li1232 1.970 . S
O1293 Li1233 1.956 . S
O1293 Li1235 1.961 . S
O1293 C1242 1.325 . S
O1294 Li1232 1.961 . S
O1294 Li1234 1.956 . S
O1294 Li1235 1.970 . S
O1294 C1264 1.325 . S
O1295 Li1233 1.961 . S
O1295 Li1234 1.970 . S
O1295 Li1235 1.956 . S
O1295 C1270 1.325 . S
H1296 C1238 0.929 . S
H1297 C1239 0.930 . S
H1298 C1240 0.930 . S
H1299 C1241 0.930 . S
H1300 C1243 0.930 . S
H1301 C1245 0.929 . S
H1302 C1246 0.930 . S
H1303 C1247 0.930 . S
H1304 C1250 0.930 . S
H1305 C1253 0.929 . S
H1306 C1258 0.929 . S
H1307 C1259 0.930 . S
H1308 C1266 0.929 . S
H1309 C1267 0.930 . S
H1310 C1268 0.930 . S
H1311 C1269 0.930 . S
H1312 C1271 0.929 . S
H1313 C1272 0.930 . S
H1314 C1273 0.930 . S
H1315 C1274 0.930 . S
H1316 C1278 0.929 . S
H1317 C1280 0.930 . S
H1318 C1286 0.929 . S
H1319 C1287 0.930 . S
Li1320 N1337 1.990 . S
Li1320 O1380 1.956 . S
Li1320 O1381 1.970 . S
Li1320 O1382 1.961 . S
Li1321 N1345 1.990 . S
Li1321 O1380 1.970 . S
Li1321 O1381 1.956 . S
Li1321 O1383 1.961 . S
Li1322 N1367 1.990 . S
Li1322 O1380 1.961 . S
Li1322 O1382 1.956 . S
Li1322 O1383 1.970 . S
Li1323 N1373 1.990 . S
Li1323 O1381 1.961 . S
Li1323 O1382 1.970 . S
Li1323 O1383 1.956 . S
C1324 C1326 1.348 . S
C1324 C1327 1.356 . S
C1324 O1380 1.325 . S
N1325 C1328 1.314 . S
N1325 C1329 1.279 . S
C1326 C1324 1.348 . S
C1326 C1328 1.353 . S
C1326 H1384 0.929 . S
C1327 C1324 1.356 . S
C1327 C1329 1.358 . S
C1327 H1385 0.930 . S
C1328 N1325 1.314 . S
C1328 C1326 1.353 . S
C1328 H1386 0.930 . S
C1329 N1325 1.279 . S
C1329 C1327 1.358 . S
C1329 H1387 0.930 . S
C1330 C1333 1.348 . S
C1330 C1334 1.356 . S
C1330 O1381 1.325 . S
C1331 N1332 1.279 . S
C1331 C1334 1.358 . S
C1331 H1388 0.930 . S
N1332 C1331 1.279 . S
N1332 C1335 1.314 . S
C1333 C1330 1.348 . S
C1333 C1335 1.353 . S
C1333 H1389 0.929 . S
C1334 C1330 1.356 . S
C1334 C1331 1.358 . S
C1334 H1390 0.930 . S
C1335 N1332 1.314 . S
C1335 C1333 1.353 . S
C1335 H1391 0.930 . S
C1336 N1337 1.314 . S
C1336 C1341 1.353 . S
C1336 H1342 0.930 . S
N1337 Li1320 1.990 . S
N1337 C1336 1.314 . S
N1337 C1339 1.279 . S
C1338 C1339 1.358 . S
C1338 C1340 1.356 . S
C1338 H1392 0.930 . S
C1339 N1337 1.279 . S
C1339 C1338 1.358 . S
C1339 H1343 0.930 . S
C1340 C1338 1.356 . S
C1340 C1341 1.348 . S
C1341 C1336 1.353 . S
C1341 C1340 1.348 . S
C1341 H1393 0.929 . S
H1342 C1336 0.930 . S
H1343 C1339 0.930 . S
C1344 N1345 1.314 . S
C1344 C1346 1.353 . S
C1344 H1350 0.930 . S
N1345 Li1321 1.990 . S
N1345 C1344 1.314 . S
N1345 C1348 1.279 . S
C1346 C1344 1.353 . S
C1346 C1349 1.348 . S
C1346 H1394 0.929 . S
C1347 C1348 1.358 . S
C1347 C1349 1.356 . S
C1347 H1395 0.930 . S
C1348 N1345 1.279 . S
C1348 C1347 1.358 . S
C1348 H1351 0.930 . S
C1349 C1346 1.348 . S
C1349 C1347 1.356 . S
H1350 C1344 0.930 . S
H1351 C1348 0.930 . S
C1352 C1354 1.348 . S
C1352 C1355 1.356 . S
C1352 O1382 1.325 . S
N1353 C1356 1.314 . S
N1353 C1357 1.279 . S
C1354 C1352 1.348 . S
C1354 C1356 1.353 . S
C1354 H1396 0.929 . S
C1355 C1352 1.356 . S
C1355 C1357 1.358 . S
C1355 H1397 0.930 . S
C1356 N1353 1.314 . S
C1356 C1354 1.353 . S
C1356 H1398 0.930 . S
C1357 N1353 1.279 . S
C1357 C1355 1.358 . S
C1357 H1399 0.930 . S
C1358 C1359 1.348 . S
C1358 C1360 1.356 . S
C1358 O1383 1.325 . S
C1359 C1358 1.348 . S
C1359 C1361 1.353 . S
C1359 H1400 0.929 . S
C1360 C1358 1.356 . S
C1360 C1362 1.358 . S
C1360 H1401 0.930 . S
C1361 C1359 1.353 . S
C1361 N1363 1.314 . S
C1361 H1402 0.930 . S
C1362 C1360 1.358 . S
C1362 N1363 1.279 . S
C1362 H1403 0.930 . S
N1363 C1361 1.314 . S
N1363 C1362 1.279 . S
C1364 C1366 1.353 . S
C1364 N1367 1.314 . S
C1364 H1370 0.930 . S
C1365 N1367 1.279 . S
C1365 C1368 1.358 . S
C1365 H1371 0.930 . S
C1366 C1364 1.353 . S
C1366 C1369 1.348 . S
C1366 H1404 0.929 . S
N1367 Li1322 1.990 . S
N1367 C1364 1.314 . S
N1367 C1365 1.279 . S
C1368 C1365 1.358 . S
C1368 C1369 1.356 . S
C1368 H1405 0.930 . S
C1369 C1366 1.348 . S
C1369 C1368 1.356 . S
H1370 C1364 0.930 . S
H1371 C1365 0.930 . S
C1372 N1373 1.314 . S
C1372 C1374 1.353 . S
C1372 H1378 0.930 . S
N1373 Li1323 1.990 . S
N1373 C1372 1.314 . S
N1373 C1376 1.279 . S
C1374 C1372 1.353 . S
C1374 C1377 1.348 . S
C1374 H1406 0.929 . S
C1375 C1376 1.358 . S
C1375 C1377 1.356 . S
C1375 H1407 0.930 . S
C1376 N1373 1.279 . S
C1376 C1375 1.358 . S
C1376 H1379 0.930 . S
C1377 C1374 1.348 . S
C1377 C1375 1.356 . S
H1378 C1372 0.930 . S
H1379 C1376 0.930 . S
O1380 Li1320 1.956 . S
O1380 Li1321 1.970 . S
O1380 Li1322 1.961 . S
O1380 C1324 1.325 . S
O1381 Li1320 1.970 . S
O1381 Li1321 1.956 . S
O1381 Li1323 1.961 . S
O1381 C1330 1.325 . S
O1382 Li1320 1.961 . S
O1382 Li1322 1.956 . S
O1382 Li1323 1.970 . S
O1382 C1352 1.325 . S
O1383 Li1321 1.961 . S
O1383 Li1322 1.970 . S
O1383 Li1323 1.956 . S
O1383 C1358 1.325 . S
H1384 C1326 0.929 . S
H1385 C1327 0.930 . S
H1386 C1328 0.930 . S
H1387 C1329 0.930 . S
H1388 C1331 0.930 . S
H1389 C1333 0.929 . S
H1390 C1334 0.930 . S
H1391 C1335 0.930 . S
H1392 C1338 0.930 . S
H1393 C1341 0.929 . S
H1394 C1346 0.929 . S
H1395 C1347 0.930 . S
H1396 C1354 0.929 . S
H1397 C1355 0.930 . S
H1398 C1356 0.930 . S
H1399 C1357 0.930 . S
H1400 C1359 0.929 . S
H1401 C1360 0.930 . S
H1402 C1361 0.930 . S
H1403 C1362 0.930 . S
H1404 C1366 0.929 . S
H1405 C1368 0.930 . S
H1406 C1374 0.929 . S
H1407 C1375 0.930 . S
Li1408 N1425 1.990 . S
Li1408 O1468 1.956 . S
Li1408 O1469 1.970 . S
Li1408 O1470 1.961 . S
Li1409 N1433 1.990 . S
Li1409 O1468 1.970 . S
Li1409 O1469 1.956 . S
Li1409 O1471 1.961 . S
Li1410 N1455 1.990 . S
Li1410 O1468 1.961 . S
Li1410 O1470 1.956 . S
Li1410 O1471 1.970 . S
Li1411 N1461 1.990 . S
Li1411 O1469 1.961 1_565 S
Li1411 O1470 1.970 1_565 S
Li1411 O1471 1.956 1_565 S
C1412 C1414 1.348 . S
C1412 C1415 1.356 . S
C1412 O1468 1.325 . S
N1413 C1416 1.314 . S
N1413 C1417 1.279 . S
C1414 C1412 1.348 . S
C1414 C1416 1.353 . S
C1414 H1472 0.929 . S
C1415 C1412 1.356 . S
C1415 C1417 1.358 . S
C1415 H1473 0.930 . S
C1416 N1413 1.314 . S
C1416 C1414 1.353 . S
C1416 H1474 0.930 . S
C1417 N1413 1.279 . S
C1417 C1415 1.358 . S
C1417 H1475 0.930 . S
C1418 C1421 1.348 . S
C1418 C1422 1.356 . S
C1418 O1469 1.325 1_565 S
C1419 N1420 1.279 . S
C1419 C1422 1.358 . S
C1419 H1476 0.930 . S
N1420 C1419 1.279 . S
N1420 C1423 1.314 . S
C1421 C1418 1.348 . S
C1421 C1423 1.353 . S
C1421 H1477 0.929 . S
C1422 C1418 1.356 . S
C1422 C1419 1.358 . S
C1422 H1478 0.930 . S
C1423 N1420 1.314 . S
C1423 C1421 1.353 . S
C1423 H1479 0.930 . S
C1424 N1425 1.314 . S
C1424 C1429 1.355 . S
C1424 H1430 0.930 1_545 S
N1425 Li1408 1.990 . S
N1425 C1424 1.314 . S
N1425 C1427 1.279 . S
C1426 C1427 1.358 . S
C1426 C1428 1.356 . S
C1426 H1480 0.930 . S
C1427 N1425 1.279 . S
C1427 C1426 1.358 . S
C1427 H1431 0.930 . S
C1428 C1426 1.356 . S
C1428 C1429 1.342 . S
C1429 C1424 1.355 . S
C1429 C1428 1.342 . S
C1429 H1481 0.932 1_545 S
H1430 C1424 0.930 1_565 S
H1431 C1427 0.930 . S
C1432 N1433 1.314 . S
C1432 C1434 1.353 . S
C1432 H1438 0.930 . S
N1433 Li1409 1.990 . S
N1433 C1432 1.314 . S
N1433 C1436 1.279 . S
C1434 C1432 1.353 . S
C1434 C1437 1.348 . S
C1434 H1482 0.929 . S
C1435 C1436 1.358 . S
C1435 C1437 1.356 . S
C1435 H1483 0.930 . S
C1436 N1433 1.279 . S
C1436 C1435 1.358 . S
C1436 H1439 0.930 . S
C1437 C1434 1.348 . S
C1437 C1435 1.356 . S
H1438 C1432 0.930 . S
H1439 C1436 0.930 . S
C1440 C1442 1.348 1_545 S
C1440 C1443 1.356 . S
C1440 O1470 1.325 . S
N1441 C1444 1.314 . S
N1441 C1445 1.279 1_565 S
C1442 C1440 1.348 1_565 S
C1442 C1444 1.353 . S
C1442 H1484 0.929 . S
C1443 C1440 1.356 . S
C1443 C1445 1.358 . S
C1443 H1485 0.930 . S
C1444 N1441 1.314 . S
C1444 C1442 1.353 . S
C1444 H1486 0.930 . S
C1445 N1441 1.279 1_545 S
C1445 C1443 1.358 . S
C1445 H1487 0.930 . S
C1446 C1447 1.348 . S
C1446 C1448 1.356 . S
C1446 O1471 1.325 . S
C1447 C1446 1.348 . S
C1447 C1449 1.353 . S
C1447 H1488 0.929 . S
C1448 C1446 1.356 . S
C1448 C1450 1.358 . S
C1448 H1489 0.930 . S
C1449 C1447 1.353 . S
C1449 N1451 1.314 . S
C1449 H1490 0.930 . S
C1450 C1448 1.358 . S
C1450 N1451 1.279 . S
C1450 H1491 0.930 . S
N1451 C1449 1.314 . S
N1451 C1450 1.279 . S
C1452 C1454 1.353 . S
C1452 N1455 1.314 . S
C1452 H1458 0.930 . S
C1453 N1455 1.279 . S
C1453 C1456 1.358 . S
C1453 H1459 0.930 . S
C1454 C1452 1.353 . S
C1454 C1457 1.348 . S
C1454 H1492 0.929 . S
N1455 Li1410 1.990 . S
N1455 C1452 1.314 . S
N1455 C1453 1.279 . S
C1456 C1453 1.358 . S
C1456 C1457 1.356 . S
C1456 H1493 0.930 . S
C1457 C1454 1.348 . S
C1457 C1456 1.356 . S
H1458 C1452 0.930 . S
H1459 C1453 0.930 . S
C1460 N1461 1.314 . S
C1460 C1462 1.353 . S
C1460 H1466 0.930 . S
N1461 Li1411 1.990 . S
N1461 C1460 1.314 . S
N1461 C1464 1.279 . S
C1462 C1460 1.353 . S
C1462 C1465 1.348 . S
C1462 H1494 0.929 . S
C1463 C1464 1.358 . S
C1463 C1465 1.356 . S
C1463 H1495 0.930 . S
C1464 N1461 1.279 . S
C1464 C1463 1.358 . S
C1464 H1467 0.930 . S
C1465 C1462 1.348 . S
C1465 C1463 1.356 . S
H1466 C1460 0.930 . S
H1467 C1464 0.930 . S
O1468 Li1408 1.956 . S
O1468 Li1409 1.970 . S
O1468 Li1410 1.961 . S
O1468 C1412 1.325 . S
O1469 Li1408 1.970 . S
O1469 Li1409 1.956 . S
O1469 Li1411 1.961 1_545 S
O1469 C1418 1.325 1_545 S
O1470 Li1408 1.961 . S
O1470 Li1410 1.956 . S
O1470 Li1411 1.970 1_545 S
O1470 C1440 1.325 . S
O1471 Li1409 1.961 . S
O1471 Li1410 1.970 . S
O1471 Li1411 1.956 1_545 S
O1471 C1446 1.325 . S
H1472 C1414 0.929 . S
H1473 C1415 0.930 . S
H1474 C1416 0.930 . S
H1475 C1417 0.930 . S
H1476 C1419 0.930 . S
H1477 C1421 0.929 . S
H1478 C1422 0.930 . S
H1479 C1423 0.930 . S
H1480 C1426 0.930 . S
H1481 C1429 0.932 1_565 S
H1482 C1434 0.929 . S
H1483 C1435 0.930 . S
H1484 C1442 0.929 . S
H1485 C1443 0.930 . S
H1486 C1444 0.930 . S
H1487 C1445 0.930 . S
H1488 C1447 0.929 . S
H1489 C1448 0.930 . S
H1490 C1449 0.930 . S
H1491 C1450 0.930 . S
H1492 C1454 0.929 . S
H1493 C1456 0.930 . S
H1494 C1462 0.929 . S
H1495 C1463 0.930 . S
Li1496 N1513 1.990 . S
Li1496 O1556 1.956 . S
Li1496 O1557 1.970 . S
Li1496 O1558 1.961 . S
Li1497 N1521 1.990 . S
Li1497 O1556 1.970 . S
Li1497 O1557 1.956 . S
Li1497 O1559 1.961 . S
Li1498 N1543 1.990 . S
Li1498 O1556 1.961 1_455 S
Li1498 O1558 1.956 1_455 S
Li1498 O1559 1.970 1_455 S
Li1499 N1549 1.990 . S
Li1499 O1557 1.961 . S
Li1499 O1558 1.970 . S
Li1499 O1559 1.956 . S
C1500 C1502 1.348 . S
C1500 C1503 1.356 . S
C1500 O1556 1.325 1_455 S
N1501 C1504 1.314 . S
N1501 C1505 1.279 . S
C1502 C1500 1.348 . S
C1502 C1504 1.353 . S
C1502 H1560 0.929 . S
C1503 C1500 1.356 . S
C1503 C1505 1.358 . S
C1503 H1561 0.930 . S
C1504 N1501 1.314 . S
C1504 C1502 1.353 . S
C1504 H1562 0.930 . S
C1505 N1501 1.279 . S
C1505 C1503 1.358 . S
C1505 H1563 0.930 . S
C1506 C1509 1.348 . S
C1506 C1510 1.356 . S
C1506 O1557 1.325 . S
C1507 N1508 1.279 . S
C1507 C1510 1.358 . S
C1507 H1564 0.930 . S
N1508 C1507 1.279 . S
N1508 C1511 1.314 . S
C1509 C1506 1.348 . S
C1509 C1511 1.353 . S
C1509 H1565 0.929 . S
C1510 C1506 1.356 . S
C1510 C1507 1.358 . S
C1510 H1566 0.930 . S
C1511 N1508 1.314 . S
C1511 C1509 1.353 . S
C1511 H1567 0.930 . S
C1512 N1513 1.314 . S
C1512 C1517 1.353 . S
C1512 H1518 0.930 . S
N1513 Li1496 1.990 . S
N1513 C1512 1.314 . S
N1513 C1515 1.279 . S
C1514 C1515 1.358 . S
C1514 C1516 1.356 . S
C1514 H1568 0.930 . S
C1515 N1513 1.279 . S
C1515 C1514 1.358 . S
C1515 H1519 0.930 . S
C1516 C1514 1.356 . S
C1516 C1517 1.348 . S
C1517 C1512 1.353 . S
C1517 C1516 1.348 . S
C1517 H1569 0.929 . S
H1518 C1512 0.930 . S
H1519 C1515 0.930 . S
C1520 N1521 1.314 . S
C1520 C1522 1.386 . S
C1520 H1526 0.930 1_655 S
N1521 Li1497 1.990 . S
N1521 C1520 1.314 . S
N1521 C1524 1.279 . S
C1522 C1520 1.386 . S
C1522 C1525 1.368 . S
C1522 H1570 0.878 1_655 S
C1523 C1524 1.358 . S
C1523 C1525 1.356 . S
C1523 H1571 0.930 . S
C1524 N1521 1.279 . S
C1524 C1523 1.358 . S
C1524 H1527 0.930 . S
C1525 C1522 1.368 . S
C1525 C1523 1.356 . S
H1526 C1520 0.930 1_455 S
H1527 C1524 0.930 . S
C1528 C1530 1.348 . S
C1528 C1531 1.356 . S
C1528 O1558 1.325 . S
N1529 C1532 1.314 . S
N1529 C1533 1.279 . S
C1530 C1528 1.348 . S
C1530 C1532 1.353 . S
C1530 H1572 0.929 . S
C1531 C1528 1.356 . S
C1531 C1533 1.358 . S
C1531 H1573 0.930 . S
C1532 N1529 1.314 . S
C1532 C1530 1.353 . S
C1532 H1574 0.930 . S
C1533 N1529 1.279 . S
C1533 C1531 1.358 . S
C1533 H1575 0.930 . S
C1534 C1535 1.348 1_655 S
C1534 C1536 1.356 . S
C1534 O1559 1.325 . S
C1535 C1534 1.348 1_455 S
C1535 C1537 1.353 . S
C1535 H1576 0.929 . S
C1536 C1534 1.356 . S
C1536 C1538 1.358 . S
C1536 H1577 0.930 . S
C1537 C1535 1.353 . S
C1537 N1539 1.314 . S
C1537 H1578 0.930 . S
C1538 C1536 1.358 . S
C1538 N1539 1.279 1_655 S
C1538 H1579 0.930 . S
N1539 C1537 1.314 . S
N1539 C1538 1.279 1_455 S
C1540 C1542 1.353 . S
C1540 N1543 1.314 . S
C1540 H1546 0.930 . S
C1541 N1543 1.279 . S
C1541 C1544 1.358 . S
C1541 H1547 0.930 . S
C1542 C1540 1.353 . S
C1542 C1545 1.348 . S
C1542 H1580 0.929 . S
N1543 Li1498 1.990 . S
N1543 C1540 1.314 . S
N1543 C1541 1.279 . S
C1544 C1541 1.358 . S
C1544 C1545 1.356 . S
C1544 H1581 0.930 . S
C1545 C1542 1.348 . S
C1545 C1544 1.356 . S
H1546 C1540 0.930 . S
H1547 C1541 0.930 . S
C1548 N1549 1.314 . S
C1548 C1550 1.353 . S
C1548 H1554 0.930 . S
N1549 Li1499 1.990 . S
N1549 C1548 1.314 . S
N1549 C1552 1.279 . S
C1550 C1548 1.353 . S
C1550 C1553 1.348 . S
C1550 H1582 0.929 . S
C1551 C1552 1.358 . S
C1551 C1553 1.356 . S
C1551 H1583 0.930 . S
C1552 N1549 1.279 . S
C1552 C1551 1.358 . S
C1552 H1555 0.930 . S
C1553 C1550 1.348 . S
C1553 C1551 1.356 . S
H1554 C1548 0.930 . S
H1555 C1552 0.930 . S
O1556 Li1496 1.956 . S
O1556 Li1497 1.970 . S
O1556 Li1498 1.961 1_655 S
O1556 C1500 1.325 1_655 S
O1557 Li1496 1.970 . S
O1557 Li1497 1.956 . S
O1557 Li1499 1.961 . S
O1557 C1506 1.325 . S
O1558 Li1496 1.961 . S
O1558 Li1498 1.956 1_655 S
O1558 Li1499 1.970 . S
O1558 C1528 1.325 . S
O1559 Li1497 1.961 . S
O1559 Li1498 1.970 1_655 S
O1559 Li1499 1.956 . S
O1559 C1534 1.325 . S
H1560 C1502 0.929 . S
H1561 C1503 0.930 . S
H1562 C1504 0.930 . S
H1563 C1505 0.930 . S
H1564 C1507 0.930 . S
H1565 C1509 0.929 . S
H1566 C1510 0.930 . S
H1567 C1511 0.930 . S
H1568 C1514 0.930 . S
H1569 C1517 0.929 . S
H1570 C1522 0.878 1_455 S
H1571 C1523 0.930 . S
H1572 C1530 0.929 . S
H1573 C1531 0.930 . S
H1574 C1532 0.930 . S
H1575 C1533 0.930 . S
H1576 C1535 0.929 . S
H1577 C1536 0.930 . S
H1578 C1537 0.930 . S
H1579 C1538 0.930 . S
H1580 C1542 0.929 . S
H1581 C1544 0.930 . S
H1582 C1550 0.929 . S
H1583 C1551 0.930 . S
C1584 C1585 1.384 . S
C1584 C1586 1.384 . S
C1584 H1612 0.931 . S
C1585 C1584 1.384 . S
C1585 C1588 1.382 . S
C1586 C1584 1.384 . S
C1586 C1587 1.381 . S
C1586 H1613 0.930 . S
C1587 C1586 1.381 . S
C1587 C1589 1.381 . S
C1587 C1590 1.487 . S
C1588 C1585 1.382 . S
C1588 C1589 1.387 . S
C1588 H1614 0.930 . S
C1589 C1587 1.381 . S
C1589 C1588 1.387 . S
C1589 H1615 0.931 . S
C1590 C1587 1.487 . S
C1590 C1597 1.399 . S
C1590 N1628 1.343 . S
C1591 C1592 1.384 . S
C1591 C1593 1.384 . S
C1591 H1616 0.931 . S
C1592 C1591 1.384 . S
C1592 C1595 1.382 . S
C1593 C1591 1.384 . S
C1593 C1594 1.381 . S
C1593 H1617 0.930 . S
C1594 C1593 1.381 . S
C1594 C1596 1.381 . S
C1594 C1597 1.487 . S
C1595 C1592 1.382 . S
C1595 C1596 1.387 . S
C1595 H1618 0.930 . S
C1596 C1594 1.381 . S
C1596 C1595 1.387 . S
C1596 H1619 0.931 . S
C1597 C1590 1.399 . S
C1597 C1594 1.487 . S
C1597 N1629 1.343 . S
C1598 C1599 1.384 . S
C1598 C1600 1.384 . S
C1598 H1620 0.931 . S
C1599 C1598 1.384 . S
C1599 C1602 1.382 . S
C1600 C1598 1.384 . S
C1600 C1601 1.381 . S
C1600 H1621 0.930 . S
C1601 C1600 1.381 . S
C1601 C1603 1.381 . S
C1601 C1604 1.487 . S
C1602 C1599 1.382 . S
C1602 C1603 1.387 . S
C1602 H1622 0.930 . S
C1603 C1601 1.381 . S
C1603 C1602 1.387 . S
C1603 H1623 0.931 . S
C1604 C1601 1.487 . S
C1604 C1611 1.399 . S
C1604 N1629 1.343 . S
C1605 C1606 1.384 . S
C1605 C1607 1.384 . S
C1605 H1624 0.931 . S
C1606 C1605 1.384 . S
C1606 C1609 1.382 . S
C1607 C1605 1.384 . S
C1607 C1608 1.381 . S
C1607 H1625 0.930 . S
C1608 C1607 1.381 . S
C1608 C1610 1.381 . S
C1608 C1611 1.487 . S
C1609 C1606 1.382 . S
C1609 C1610 1.387 . S
C1609 H1626 0.930 . S
C1610 C1608 1.381 . S
C1610 C1609 1.387 . S
C1610 H1627 0.931 . S
C1611 C1604 1.399 . S
C1611 C1608 1.487 . S
C1611 N1628 1.343 . S
H1612 C1584 0.931 . S
H1613 C1586 0.930 . S
H1614 C1588 0.930 . S
H1615 C1589 0.931 . S
H1616 C1591 0.931 . S
H1617 C1593 0.930 . S
H1618 C1595 0.930 . S
H1619 C1596 0.931 . S
H1620 C1598 0.931 . S
H1621 C1600 0.930 . S
H1622 C1602 0.930 . S
H1623 C1603 0.931 . S
H1624 C1605 0.931 . S
H1625 C1607 0.930 . S
H1626 C1609 0.930 . S
H1627 C1610 0.931 . S
N1628 C1590 1.343 . S
N1628 C1611 1.343 . S
N1629 C1597 1.343 . S
N1629 C1604 1.343 . S
C1630 C1631 1.384 . S
C1630 C1632 1.384 . S
C1630 H1658 0.931 . S
C1631 C1630 1.384 . S
C1631 C1634 1.382 . S
C1632 C1630 1.384 . S
C1632 C1633 1.381 . S
C1632 H1659 0.930 . S
C1633 C1632 1.381 . S
C1633 C1635 1.381 . S
C1633 C1636 1.487 . S
C1634 C1631 1.382 . S
C1634 C1635 1.387 . S
C1634 H1660 0.930 . S
C1635 C1633 1.381 . S
C1635 C1634 1.387 . S
C1635 H1661 0.931 . S
C1636 C1633 1.487 . S
C1636 C1643 1.399 . S
C1636 N1674 1.343 . S
C1637 C1638 1.384 . S
C1637 C1639 1.384 . S
C1637 H1662 0.931 . S
C1638 C1637 1.384 . S
C1638 C1641 1.382 . S
C1639 C1637 1.384 . S
C1639 C1640 1.381 . S
C1639 H1663 0.930 . S
C1640 C1639 1.381 . S
C1640 C1642 1.381 . S
C1640 C1643 1.487 . S
C1641 C1638 1.382 . S
C1641 C1642 1.387 . S
C1641 H1664 0.930 . S
C1642 C1640 1.381 . S
C1642 C1641 1.387 . S
C1642 H1665 0.931 . S
C1643 C1636 1.399 . S
C1643 C1640 1.487 . S
C1643 N1675 1.343 . S
C1644 C1645 1.384 . S
C1644 C1646 1.384 . S
C1644 H1666 0.931 . S
C1645 C1644 1.384 . S
C1645 C1648 1.382 . S
C1646 C1644 1.384 . S
C1646 C1647 1.381 . S
C1646 H1667 0.930 . S
C1647 C1646 1.381 . S
C1647 C1649 1.381 . S
C1647 C1650 1.487 . S
C1648 C1645 1.382 . S
C1648 C1649 1.387 . S
C1648 H1668 0.930 . S
C1649 C1647 1.381 . S
C1649 C1648 1.387 . S
C1649 H1669 0.931 . S
C1650 C1647 1.487 . S
C1650 C1657 1.399 . S
C1650 N1675 1.343 . S
C1651 C1652 1.384 . S
C1651 C1653 1.384 . S
C1651 H1670 0.931 . S
C1652 C1651 1.384 . S
C1652 C1655 1.382 . S
C1653 C1651 1.384 . S
C1653 C1654 1.381 . S
C1653 H1671 0.930 . S
C1654 C1653 1.381 . S
C1654 C1656 1.381 . S
C1654 C1657 1.487 . S
C1655 C1652 1.382 . S
C1655 C1656 1.387 . S
C1655 H1672 0.930 . S
C1656 C1654 1.381 . S
C1656 C1655 1.387 . S
C1656 H1673 0.931 . S
C1657 C1650 1.399 . S
C1657 C1654 1.487 . S
C1657 N1674 1.343 . S
H1658 C1630 0.931 . S
H1659 C1632 0.930 . S
H1660 C1634 0.930 . S
H1661 C1635 0.931 . S
H1662 C1637 0.931 . S
H1663 C1639 0.930 . S
H1664 C1641 0.930 . S
H1665 C1642 0.931 . S
H1666 C1644 0.931 . S
H1667 C1646 0.930 . S
H1668 C1648 0.930 . S
H1669 C1649 0.931 . S
H1670 C1651 0.931 . S
H1671 C1653 0.930 . S
H1672 C1655 0.930 . S
H1673 C1656 0.931 . S
N1674 C1636 1.343 . S
N1674 C1657 1.343 . S
N1675 C1643 1.343 . S
N1675 C1650 1.343 . S
C1676 C1677 1.384 . S
C1676 C1678 1.384 . S
C1676 H1704 0.931 . S
C1677 C1676 1.384 . S
C1677 C1680 1.382 . S
C1678 C1676 1.384 . S
C1678 C1679 1.381 . S
C1678 H1705 0.930 . S
C1679 C1678 1.381 . S
C1679 C1681 1.381 . S
C1679 C1682 1.487 . S
C1680 C1677 1.382 . S
C1680 C1681 1.387 . S
C1680 H1706 0.930 . S
C1681 C1679 1.381 . S
C1681 C1680 1.387 . S
C1681 H1707 0.931 . S
C1682 C1679 1.487 . S
C1682 C1689 1.399 . S
C1682 N1720 1.343 . S
C1683 C1684 1.384 . S
C1683 C1685 1.384 . S
C1683 H1708 0.931 . S
C1684 C1683 1.384 . S
C1684 C1687 1.382 . S
C1685 C1683 1.384 . S
C1685 C1686 1.381 . S
C1685 H1709 0.930 . S
C1686 C1685 1.381 . S
C1686 C1688 1.381 . S
C1686 C1689 1.487 . S
C1687 C1684 1.382 . S
C1687 C1688 1.387 . S
C1687 H1710 0.930 . S
C1688 C1686 1.381 . S
C1688 C1687 1.387 . S
C1688 H1711 0.931 . S
C1689 C1682 1.399 . S
C1689 C1686 1.487 . S
C1689 N1721 1.343 . S
C1690 C1691 1.384 . S
C1690 C1692 1.384 . S
C1690 H1712 0.931 . S
C1691 C1690 1.384 . S
C1691 C1694 1.382 . S
C1692 C1690 1.384 . S
C1692 C1693 1.381 . S
C1692 H1713 0.930 . S
C1693 C1692 1.381 . S
C1693 C1695 1.381 . S
C1693 C1696 1.487 . S
C1694 C1691 1.382 . S
C1694 C1695 1.387 . S
C1694 H1714 0.930 . S
C1695 C1693 1.381 . S
C1695 C1694 1.387 . S
C1695 H1715 0.931 . S
C1696 C1693 1.487 . S
C1696 C1703 1.399 . S
C1696 N1721 1.343 . S
C1697 C1698 1.384 . S
C1697 C1699 1.384 . S
C1697 H1716 0.931 . S
C1698 C1697 1.384 . S
C1698 C1701 1.382 . S
C1699 C1697 1.384 . S
C1699 C1700 1.381 . S
C1699 H1717 0.930 . S
C1700 C1699 1.381 . S
C1700 C1702 1.381 . S
C1700 C1703 1.487 . S
C1701 C1698 1.382 . S
C1701 C1702 1.387 . S
C1701 H1718 0.930 . S
C1702 C1700 1.381 . S
C1702 C1701 1.387 . S
C1702 H1719 0.931 . S
C1703 C1696 1.399 . S
C1703 C1700 1.487 . S
C1703 N1720 1.343 . S
H1704 C1676 0.931 . S
H1705 C1678 0.930 . S
H1706 C1680 0.930 . S
H1707 C1681 0.931 . S
H1708 C1683 0.931 . S
H1709 C1685 0.930 . S
H1710 C1687 0.930 . S
H1711 C1688 0.931 . S
H1712 C1690 0.931 . S
H1713 C1692 0.930 . S
H1714 C1694 0.930 . S
H1715 C1695 0.931 . S
H1716 C1697 0.931 . S
H1717 C1699 0.930 . S
H1718 C1701 0.930 . S
H1719 C1702 0.931 . S
N1720 C1682 1.343 . S
N1720 C1703 1.343 . S
N1721 C1689 1.343 . S
N1721 C1696 1.343 . S
C1722 C1723 1.384 . S
C1722 C1724 1.384 . S
C1722 H1750 0.931 . S
C1723 C1722 1.384 . S
C1723 C1726 1.382 . S
C1724 C1722 1.384 . S
C1724 C1725 1.381 . S
C1724 H1751 0.930 . S
C1725 C1724 1.381 . S
C1725 C1727 1.381 . S
C1725 C1728 1.487 . S
C1726 C1723 1.382 . S
C1726 C1727 1.387 . S
C1726 H1752 0.930 . S
C1727 C1725 1.381 . S
C1727 C1726 1.387 . S
C1727 H1753 0.931 . S
C1728 C1725 1.487 . S
C1728 C1735 1.399 . S
C1728 N1766 1.343 . S
C1729 C1730 1.384 . S
C1729 C1731 1.384 . S
C1729 H1754 0.931 . S
C1730 C1729 1.384 . S
C1730 C1733 1.382 . S
C1731 C1729 1.384 . S
C1731 C1732 1.381 . S
C1731 H1755 0.930 . S
C1732 C1731 1.381 . S
C1732 C1734 1.381 . S
C1732 C1735 1.487 . S
C1733 C1730 1.382 . S
C1733 C1734 1.387 . S
C1733 H1756 0.930 . S
C1734 C1732 1.381 . S
C1734 C1733 1.387 . S
C1734 H1757 0.931 . S
C1735 C1728 1.399 . S
C1735 C1732 1.487 . S
C1735 N1767 1.343 . S
C1736 C1737 1.384 . S
C1736 C1738 1.384 . S
C1736 H1758 0.931 . S
C1737 C1736 1.384 . S
C1737 C1740 1.382 . S
C1738 C1736 1.384 . S
C1738 C1739 1.381 . S
C1738 H1759 0.930 . S
C1739 C1738 1.381 . S
C1739 C1741 1.381 . S
C1739 C1742 1.487 . S
C1740 C1737 1.382 . S
C1740 C1741 1.387 . S
C1740 H1760 0.930 . S
C1741 C1739 1.381 . S
C1741 C1740 1.387 . S
C1741 H1761 0.931 . S
C1742 C1739 1.487 . S
C1742 C1749 1.399 . S
C1742 N1767 1.343 . S
C1743 C1744 1.384 . S
C1743 C1745 1.384 . S
C1743 H1762 0.931 . S
C1744 C1743 1.384 . S
C1744 C1747 1.382 . S
C1745 C1743 1.384 . S
C1745 C1746 1.381 . S
C1745 H1763 0.930 . S
C1746 C1745 1.381 . S
C1746 C1748 1.381 . S
C1746 C1749 1.487 . S
C1747 C1744 1.382 . S
C1747 C1748 1.387 . S
C1747 H1764 0.930 . S
C1748 C1746 1.381 . S
C1748 C1747 1.387 . S
C1748 H1765 0.931 . S
C1749 C1742 1.399 . S
C1749 C1746 1.487 . S
C1749 N1766 1.343 . S
H1750 C1722 0.931 . S
H1751 C1724 0.930 . S
H1752 C1726 0.930 . S
H1753 C1727 0.931 . S
H1754 C1729 0.931 . S
H1755 C1731 0.930 . S
H1756 C1733 0.930 . S
H1757 C1734 0.931 . S
H1758 C1736 0.931 . S
H1759 C1738 0.930 . S
H1760 C1740 0.930 . S
H1761 C1741 0.931 . S
H1762 C1743 0.931 . S
H1763 C1745 0.930 . S
H1764 C1747 0.930 . S
H1765 C1748 0.931 . S
N1766 C1728 1.343 . S
N1766 C1749 1.343 . S
N1767 C1735 1.343 . S
N1767 C1742 1.343 . S
C1768 C1769 1.384 . S
C1768 C1770 1.384 . S
C1768 H1796 0.931 . S
C1769 C1768 1.384 . S
C1769 C1772 1.382 . S
C1770 C1768 1.384 . S
C1770 C1771 1.381 . S
C1770 H1797 0.930 . S
C1771 C1770 1.381 . S
C1771 C1773 1.381 . S
C1771 C1774 1.487 . S
C1772 C1769 1.382 . S
C1772 C1773 1.387 . S
C1772 H1798 0.930 . S
C1773 C1771 1.381 . S
C1773 C1772 1.387 . S
C1773 H1799 0.931 . S
C1774 C1771 1.487 . S
C1774 C1781 1.399 . S
C1774 N1812 1.343 . S
C1775 C1776 1.384 . S
C1775 C1777 1.384 . S
C1775 H1800 0.931 . S
C1776 C1775 1.384 . S
C1776 C1779 1.382 . S
C1777 C1775 1.384 . S
C1777 C1778 1.381 . S
C1777 H1801 0.930 . S
C1778 C1777 1.381 . S
C1778 C1780 1.381 . S
C1778 C1781 1.487 . S
C1779 C1776 1.382 . S
C1779 C1780 1.387 . S
C1779 H1802 0.930 . S
C1780 C1778 1.381 . S
C1780 C1779 1.387 . S
C1780 H1803 0.931 . S
C1781 C1774 1.399 . S
C1781 C1778 1.487 . S
C1781 N1813 1.343 . S
C1782 C1783 1.384 . S
C1782 C1784 1.384 . S
C1782 H1804 0.931 . S
C1783 C1782 1.384 . S
C1783 C1786 1.382 . S
C1784 C1782 1.384 . S
C1784 C1785 1.381 . S
C1784 H1805 0.930 . S
C1785 C1784 1.381 . S
C1785 C1787 1.381 . S
C1785 C1788 1.487 . S
C1786 C1783 1.382 . S
C1786 C1787 1.387 . S
C1786 H1806 0.930 . S
C1787 C1785 1.381 . S
C1787 C1786 1.387 . S
C1787 H1807 0.931 . S
C1788 C1785 1.487 . S
C1788 C1795 1.399 . S
C1788 N1813 1.343 . S
C1789 C1790 1.384 . S
C1789 C1791 1.384 . S
C1789 H1808 0.931 . S
C1790 C1789 1.384 . S
C1790 C1793 1.382 . S
C1791 C1789 1.384 . S
C1791 C1792 1.381 . S
C1791 H1809 0.930 . S
C1792 C1791 1.381 . S
C1792 C1794 1.381 . S
C1792 C1795 1.487 . S
C1793 C1790 1.382 . S
C1793 C1794 1.387 . S
C1793 H1810 0.930 . S
C1794 C1792 1.381 . S
C1794 C1793 1.387 . S
C1794 H1811 0.931 . S
C1795 C1788 1.399 . S
C1795 C1792 1.487 . S
C1795 N1812 1.343 . S
H1796 C1768 0.931 . S
H1797 C1770 0.930 . S
H1798 C1772 0.930 . S
H1799 C1773 0.931 . S
H1800 C1775 0.931 . S
H1801 C1777 0.930 . S
H1802 C1779 0.930 . S
H1803 C1780 0.931 . S
H1804 C1782 0.931 . S
H1805 C1784 0.930 . S
H1806 C1786 0.930 . S
H1807 C1787 0.931 . S
H1808 C1789 0.931 . S
H1809 C1791 0.930 . S
H1810 C1793 0.930 . S
H1811 C1794 0.931 . S
N1812 C1774 1.343 . S
N1812 C1795 1.343 . S
N1813 C1781 1.343 . S
N1813 C1788 1.343 . S
C1814 C1815 1.384 . S
C1814 C1816 1.384 . S
C1814 H1842 0.931 . S
C1815 C1814 1.384 . S
C1815 C1818 1.382 . S
C1816 C1814 1.384 . S
C1816 C1817 1.381 . S
C1816 H1843 0.930 . S
C1817 C1816 1.381 . S
C1817 C1819 1.381 . S
C1817 C1820 1.487 . S
C1818 C1815 1.382 . S
C1818 C1819 1.387 . S
C1818 H1844 0.930 . S
C1819 C1817 1.381 . S
C1819 C1818 1.387 . S
C1819 H1845 0.931 . S
C1820 C1817 1.487 . S
C1820 C1827 1.399 . S
C1820 N1858 1.343 . S
C1821 C1822 1.384 . S
C1821 C1823 1.384 . S
C1821 H1846 0.931 . S
C1822 C1821 1.384 . S
C1822 C1825 1.382 . S
C1823 C1821 1.384 . S
C1823 C1824 1.381 . S
C1823 H1847 0.930 . S
C1824 C1823 1.381 . S
C1824 C1826 1.381 . S
C1824 C1827 1.487 . S
C1825 C1822 1.382 . S
C1825 C1826 1.387 . S
C1825 H1848 0.930 . S
C1826 C1824 1.381 . S
C1826 C1825 1.387 . S
C1826 H1849 0.931 . S
C1827 C1820 1.399 . S
C1827 C1824 1.487 . S
C1827 N1859 1.343 . S
C1828 C1829 1.384 . S
C1828 C1830 1.384 . S
C1828 H1850 0.931 . S
C1829 C1828 1.384 . S
C1829 C1832 1.382 . S
C1830 C1828 1.384 . S
C1830 C1831 1.381 . S
C1830 H1851 0.930 . S
C1831 C1830 1.381 . S
C1831 C1833 1.381 . S
C1831 C1834 1.487 . S
C1832 C1829 1.382 . S
C1832 C1833 1.387 . S
C1832 H1852 0.930 . S
C1833 C1831 1.381 . S
C1833 C1832 1.387 . S
C1833 H1853 0.931 . S
C1834 C1831 1.487 . S
C1834 C1841 1.399 . S
C1834 N1859 1.343 . S
C1835 C1836 1.384 . S
C1835 C1837 1.384 . S
C1835 H1854 0.931 . S
C1836 C1835 1.384 . S
C1836 C1839 1.382 . S
C1837 C1835 1.384 . S
C1837 C1838 1.381 . S
C1837 H1855 0.930 . S
C1838 C1837 1.381 . S
C1838 C1840 1.381 . S
C1838 C1841 1.487 . S
C1839 C1836 1.382 . S
C1839 C1840 1.387 . S
C1839 H1856 0.930 . S
C1840 C1838 1.381 . S
C1840 C1839 1.387 . S
C1840 H1857 0.931 . S
C1841 C1834 1.399 . S
C1841 C1838 1.487 . S
C1841 N1858 1.343 . S
H1842 C1814 0.931 . S
H1843 C1816 0.930 . S
H1844 C1818 0.930 . S
H1845 C1819 0.931 . S
H1846 C1821 0.931 . S
H1847 C1823 0.930 . S
H1848 C1825 0.930 . S
H1849 C1826 0.931 . S
H1850 C1828 0.931 . S
H1851 C1830 0.930 . S
H1852 C1832 0.930 . S
H1853 C1833 0.931 . S
H1854 C1835 0.931 . S
H1855 C1837 0.930 . S
H1856 C1839 0.930 . S
H1857 C1840 0.931 . S
N1858 C1820 1.343 . S
N1858 C1841 1.343 . S
N1859 C1827 1.343 . S
N1859 C1834 1.343 . S
C1860 C1861 1.384 . S
C1860 C1862 1.384 . S
C1860 H1888 0.931 . S
C1861 C1860 1.384 . S
C1861 C1864 1.382 . S
C1862 C1860 1.384 . S
C1862 C1863 1.381 . S
C1862 H1889 0.930 . S
C1863 C1862 1.381 . S
C1863 C1865 1.381 . S
C1863 C1866 1.487 . S
C1864 C1861 1.382 . S
C1864 C1865 1.387 . S
C1864 H1890 0.930 . S
C1865 C1863 1.381 . S
C1865 C1864 1.387 . S
C1865 H1891 0.931 . S
C1866 C1863 1.487 . S
C1866 C1873 1.399 . S
C1866 N1904 1.343 . S
C1867 C1868 1.384 . S
C1867 C1869 1.384 . S
C1867 H1892 0.931 . S
C1868 C1867 1.384 . S
C1868 C1871 1.382 . S
C1869 C1867 1.384 . S
C1869 C1870 1.381 . S
C1869 H1893 0.930 . S
C1870 C1869 1.381 . S
C1870 C1872 1.381 . S
C1870 C1873 1.487 . S
C1871 C1868 1.382 . S
C1871 C1872 1.387 . S
C1871 H1894 0.930 . S
C1872 C1870 1.381 . S
C1872 C1871 1.387 . S
C1872 H1895 0.931 . S
C1873 C1866 1.399 . S
C1873 C1870 1.487 . S
C1873 N1905 1.343 . S
C1874 C1875 1.384 . S
C1874 C1876 1.384 . S
C1874 H1896 0.931 . S
C1875 C1874 1.384 . S
C1875 C1878 1.382 . S
C1876 C1874 1.384 . S
C1876 C1877 1.381 . S
C1876 H1897 0.930 . S
C1877 C1876 1.381 . S
C1877 C1879 1.381 . S
C1877 C1880 1.487 . S
C1878 C1875 1.382 . S
C1878 C1879 1.387 . S
C1878 H1898 0.930 . S
C1879 C1877 1.381 . S
C1879 C1878 1.387 . S
C1879 H1899 0.931 . S
C1880 C1877 1.487 . S
C1880 C1887 1.399 . S
C1880 N1905 1.343 . S
C1881 C1882 1.384 . S
C1881 C1883 1.384 . S
C1881 H1900 0.931 . S
C1882 C1881 1.384 . S
C1882 C1885 1.382 . S
C1883 C1881 1.384 . S
C1883 C1884 1.381 . S
C1883 H1901 0.930 . S
C1884 C1883 1.381 . S
C1884 C1886 1.381 . S
C1884 C1887 1.487 . S
C1885 C1882 1.382 . S
C1885 C1886 1.387 . S
C1885 H1902 0.930 . S
C1886 C1884 1.381 . S
C1886 C1885 1.387 . S
C1886 H1903 0.931 . S
C1887 C1880 1.399 . S
C1887 C1884 1.487 . S
C1887 N1904 1.343 . S
H1888 C1860 0.931 . S
H1889 C1862 0.930 . S
H1890 C1864 0.930 . S
H1891 C1865 0.931 . S
H1892 C1867 0.931 . S
H1893 C1869 0.930 . S
H1894 C1871 0.930 . S
H1895 C1872 0.931 . S
H1896 C1874 0.931 . S
H1897 C1876 0.930 . S
H1898 C1878 0.930 . S
H1899 C1879 0.931 . S
H1900 C1881 0.931 . S
H1901 C1883 0.930 . S
H1902 C1885 0.930 . S
H1903 C1886 0.931 . S
N1904 C1866 1.343 . S
N1904 C1887 1.343 . S
N1905 C1873 1.343 . S
N1905 C1880 1.343 . S
C1906 C1907 1.384 . S
C1906 C1908 1.384 . S
C1906 H1934 0.931 . S
C1907 C1906 1.384 . S
C1907 C1910 1.382 . S
C1908 C1906 1.384 . S
C1908 C1909 1.381 . S
C1908 H1935 0.930 . S
C1909 C1908 1.381 . S
C1909 C1911 1.381 . S
C1909 C1912 1.487 . S
C1910 C1907 1.382 . S
C1910 C1911 1.387 . S
C1910 H1936 0.930 . S
C1911 C1909 1.381 . S
C1911 C1910 1.387 . S
C1911 H1937 0.931 . S
C1912 C1909 1.487 . S
C1912 C1919 1.399 . S
C1912 N1950 1.343 . S
C1913 C1914 1.384 . S
C1913 C1915 1.384 . S
C1913 H1938 0.931 . S
C1914 C1913 1.384 . S
C1914 C1917 1.382 . S
C1915 C1913 1.384 . S
C1915 C1916 1.381 . S
C1915 H1939 0.930 . S
C1916 C1915 1.381 . S
C1916 C1918 1.381 . S
C1916 C1919 1.487 . S
C1917 C1914 1.382 . S
C1917 C1918 1.387 . S
C1917 H1940 0.930 . S
C1918 C1916 1.381 . S
C1918 C1917 1.387 . S
C1918 H1941 0.931 . S
C1919 C1912 1.399 . S
C1919 C1916 1.487 . S
C1919 N1951 1.343 . S
C1920 C1921 1.384 . S
C1920 C1922 1.384 . S
C1920 H1942 0.931 . S
C1921 C1920 1.384 . S
C1921 C1924 1.382 . S
C1922 C1920 1.384 . S
C1922 C1923 1.381 . S
C1922 H1943 0.930 . S
C1923 C1922 1.381 . S
C1923 C1925 1.381 . S
C1923 C1926 1.487 . S
C1924 C1921 1.382 . S
C1924 C1925 1.387 . S
C1924 H1944 0.930 . S
C1925 C1923 1.381 . S
C1925 C1924 1.387 . S
C1925 H1945 0.931 . S
C1926 C1923 1.487 . S
C1926 C1933 1.399 . S
C1926 N1951 1.343 . S
C1927 C1928 1.384 . S
C1927 C1929 1.384 . S
C1927 H1946 0.931 . S
C1928 C1927 1.384 . S
C1928 C1931 1.382 . S
C1929 C1927 1.384 . S
C1929 C1930 1.381 . S
C1929 H1947 0.930 . S
C1930 C1929 1.381 . S
C1930 C1932 1.381 . S
C1930 C1933 1.487 . S
C1931 C1928 1.382 . S
C1931 C1932 1.387 . S
C1931 H1948 0.930 . S
C1932 C1930 1.381 . S
C1932 C1931 1.387 . S
C1932 H1949 0.931 . S
C1933 C1926 1.399 . S
C1933 C1930 1.487 . S
C1933 N1950 1.343 . S
H1934 C1906 0.931 . S
H1935 C1908 0.930 . S
H1936 C1910 0.930 . S
H1937 C1911 0.931 . S
H1938 C1913 0.931 . S
H1939 C1915 0.930 . S
H1940 C1917 0.930 . S
H1941 C1918 0.931 . S
H1942 C1920 0.931 . S
H1943 C1922 0.930 . S
H1944 C1924 0.930 . S
H1945 C1925 0.931 . S
H1946 C1927 0.931 . S
H1947 C1929 0.930 . S
H1948 C1931 0.930 . S
H1949 C1932 0.931 . S
N1950 C1912 1.343 . S
N1950 C1933 1.343 . S
N1951 C1919 1.343 . S
N1951 C1926 1.343 . S
C1952 C1953 1.384 . S
C1952 C1954 1.384 . S
C1952 H1980 0.931 . S
C1953 C1952 1.384 . S
C1953 C1956 1.382 . S
C1954 C1952 1.384 . S
C1954 C1955 1.381 . S
C1954 H1981 0.930 . S
C1955 C1954 1.381 . S
C1955 C1957 1.381 . S
C1955 C1958 1.487 . S
C1956 C1953 1.382 . S
C1956 C1957 1.387 . S
C1956 H1982 0.930 . S
C1957 C1955 1.381 . S
C1957 C1956 1.387 . S
C1957 H1983 0.931 . S
C1958 C1955 1.487 . S
C1958 C1965 1.399 . S
C1958 N1996 1.343 . S
C1959 C1960 1.384 . S
C1959 C1961 1.384 . S
C1959 H1984 0.931 . S
C1960 C1959 1.384 . S
C1960 C1963 1.382 . S
C1961 C1959 1.384 . S
C1961 C1962 1.381 . S
C1961 H1985 0.930 . S
C1962 C1961 1.381 . S
C1962 C1964 1.381 . S
C1962 C1965 1.487 . S
C1963 C1960 1.382 . S
C1963 C1964 1.387 . S
C1963 H1986 0.930 . S
C1964 C1962 1.381 . S
C1964 C1963 1.387 . S
C1964 H1987 0.931 . S
C1965 C1958 1.399 . S
C1965 C1962 1.487 . S
C1965 N1997 1.343 . S
C1966 C1967 1.384 . S
C1966 C1968 1.384 . S
C1966 H1988 0.931 . S
C1967 C1966 1.384 . S
C1967 C1970 1.382 . S
C1968 C1966 1.384 . S
C1968 C1969 1.381 . S
C1968 H1989 0.930 . S
C1969 C1968 1.381 . S
C1969 C1971 1.381 . S
C1969 C1972 1.487 . S
C1970 C1967 1.382 . S
C1970 C1971 1.387 . S
C1970 H1990 0.930 . S
C1971 C1969 1.381 . S
C1971 C1970 1.387 . S
C1971 H1991 0.931 . S
C1972 C1969 1.487 . S
C1972 C1979 1.399 . S
C1972 N1997 1.343 . S
C1973 C1974 1.384 . S
C1973 C1975 1.384 . S
C1973 H1992 0.931 . S
C1974 C1973 1.384 . S
C1974 C1977 1.382 . S
C1975 C1973 1.384 . S
C1975 C1976 1.381 . S
C1975 H1993 0.930 . S
C1976 C1975 1.381 . S
C1976 C1978 1.381 . S
C1976 C1979 1.487 . S
C1977 C1974 1.382 . S
C1977 C1978 1.387 . S
C1977 H1994 0.930 . S
C1978 C1976 1.381 . S
C1978 C1977 1.387 . S
C1978 H1995 0.931 . S
C1979 C1972 1.399 . S
C1979 C1976 1.487 . S
C1979 N1996 1.343 . S
H1980 C1952 0.931 . S
H1981 C1954 0.930 . S
H1982 C1956 0.930 . S
H1983 C1957 0.931 . S
H1984 C1959 0.931 . S
H1985 C1961 0.930 . S
H1986 C1963 0.930 . S
H1987 C1964 0.931 . S
H1988 C1966 0.931 . S
H1989 C1968 0.930 . S
H1990 C1970 0.930 . S
H1991 C1971 0.931 . S
H1992 C1973 0.931 . S
H1993 C1975 0.930 . S
H1994 C1977 0.930 . S
H1995 C1978 0.931 . S
N1996 C1958 1.343 . S
N1996 C1979 1.343 . S
N1997 C1965 1.343 . S
N1997 C1972 1.343 . S
C1998 C1999 1.384 . S
C1998 C2000 1.384 . S
C1998 H2026 0.931 . S
C1999 C1998 1.384 . S
C1999 C2002 1.382 1_655 S
C2000 C1998 1.384 . S
C2000 C2001 1.403 . S
C2000 H2027 0.930 . S
C2001 C2000 1.403 . S
C2001 C2003 1.370 1_655 S
C2001 C2004 1.473 1_655 S
C2002 C1999 1.382 1_455 S
C2002 C2003 1.387 . S
C2002 H2028 0.930 . S
C2003 C2001 1.370 1_455 S
C2003 C2002 1.387 . S
C2003 H2029 0.931 . S
C2004 C2001 1.473 1_455 S
C2004 C2011 1.399 1_455 S
C2004 N2042 1.318 . S
C2005 C2006 1.384 . S
C2005 C2007 1.384 . S
C2005 H2030 0.931 . S
C2006 C2005 1.384 . S
C2006 C2009 1.382 1_455 S
C2007 C2005 1.384 . S
C2007 C2008 1.384 . S
C2007 H2031 0.930 . S
C2008 C2007 1.384 . S
C2008 C2010 1.372 1_455 S
C2008 C2011 1.495 1_455 S
C2009 C2006 1.382 1_655 S
C2009 C2010 1.387 . S
C2009 H2032 0.930 . S
C2010 C2008 1.372 1_655 S
C2010 C2009 1.387 . S
C2010 H2033 0.931 . S
C2011 C2004 1.399 1_655 S
C2011 C2008 1.495 1_655 S
C2011 N2043 1.362 . S
C2012 C2013 1.384 . S
C2012 C2014 1.384 . S
C2012 H2034 0.931 . S
C2013 C2012 1.384 . S
C2013 C2016 1.382 1_455 S
C2014 C2012 1.384 . S
C2014 C2015 1.419 . S
C2014 H2035 0.930 . S
C2015 C2014 1.419 . S
C2015 C2017 1.362 1_455 S
C2015 C2018 1.473 1_455 S
C2016 C2013 1.382 1_655 S
C2016 C2017 1.387 . S
C2016 H2036 0.930 . S
C2017 C2015 1.362 1_655 S
C2017 C2016 1.387 . S
C2017 H2037 0.931 . S
C2018 C2015 1.473 1_655 S
C2018 C2025 1.399 1_655 S
C2018 N2043 1.318 . S
C2019 C2020 1.384 . S
C2019 C2021 1.384 . S
C2019 H2038 0.931 . S
C2020 C2019 1.384 . S
C2020 C2023 1.382 1_655 S
C2021 C2019 1.384 . S
C2021 C2022 1.381 . S
C2021 H2039 0.930 . S
C2022 C2021 1.381 . S
C2022 C2024 1.382 1_655 S
C2022 C2025 1.495 1_655 S
C2023 C2020 1.382 1_455 S
C2023 C2024 1.387 . S
C2023 H2040 0.930 . S
C2024 C2022 1.382 1_455 S
C2024 C2023 1.387 . S
C2024 H2041 0.931 . S
C2025 C2018 1.399 1_455 S
C2025 C2022 1.495 1_455 S
C2025 N2042 1.362 . S
H2026 C1998 0.931 . S
H2027 C2000 0.930 . S
H2028 C2002 0.930 . S
H2029 C2003 0.931 . S
H2030 C2005 0.931 . S
H2031 C2007 0.930 . S
H2032 C2009 0.930 . S
H2033 C2010 0.931 . S
H2034 C2012 0.931 . S
H2035 C2014 0.930 . S
H2036 C2016 0.930 . S
H2037 C2017 0.931 . S
H2038 C2019 0.931 . S
H2039 C2021 0.930 . S
H2040 C2023 0.930 . S
H2041 C2024 0.931 . S
N2042 C2004 1.318 . S
N2042 C2025 1.362 . S
N2043 C2011 1.362 . S
N2043 C2018 1.318 . S
C2044 C2045 1.384 . S
C2044 C2046 1.384 . S
C2044 H2072 0.931 . S
C2045 C2044 1.384 . S
C2045 C2048 1.382 . S
C2046 C2044 1.384 . S
C2046 C2047 1.381 . S
C2046 H2073 0.930 . S
C2047 C2046 1.381 . S
C2047 C2049 1.381 . S
C2047 C2050 1.487 . S
C2048 C2045 1.382 . S
C2048 C2049 1.387 . S
C2048 H2074 0.930 . S
C2049 C2047 1.381 . S
C2049 C2048 1.387 . S
C2049 H2075 0.931 . S
C2050 C2047 1.487 . S
C2050 C2057 1.399 . S
C2050 N2088 1.343 . S
C2051 C2052 1.384 . S
C2051 C2053 1.384 . S
C2051 H2076 0.931 . S
C2052 C2051 1.384 . S
C2052 C2055 1.382 . S
C2053 C2051 1.384 . S
C2053 C2054 1.381 . S
C2053 H2077 0.930 . S
C2054 C2053 1.381 . S
C2054 C2056 1.381 . S
C2054 C2057 1.487 . S
C2055 C2052 1.382 . S
C2055 C2056 1.387 . S
C2055 H2078 0.930 . S
C2056 C2054 1.381 . S
C2056 C2055 1.387 . S
C2056 H2079 0.931 . S
C2057 C2050 1.399 . S
C2057 C2054 1.487 . S
C2057 N2089 1.343 . S
C2058 C2059 1.384 . S
C2058 C2060 1.384 . S
C2058 H2080 0.931 . S
C2059 C2058 1.384 . S
C2059 C2062 1.382 . S
C2060 C2058 1.384 . S
C2060 C2061 1.381 . S
C2060 H2081 0.930 . S
C2061 C2060 1.381 . S
C2061 C2063 1.381 . S
C2061 C2064 1.487 . S
C2062 C2059 1.382 . S
C2062 C2063 1.387 . S
C2062 H2082 0.930 . S
C2063 C2061 1.381 . S
C2063 C2062 1.387 . S
C2063 H2083 0.931 . S
C2064 C2061 1.487 . S
C2064 C2071 1.399 . S
C2064 N2089 1.343 . S
C2065 C2066 1.384 . S
C2065 C2067 1.384 . S
C2065 H2084 0.931 . S
C2066 C2065 1.384 . S
C2066 C2069 1.382 . S
C2067 C2065 1.384 . S
C2067 C2068 1.381 . S
C2067 H2085 0.930 . S
C2068 C2067 1.381 . S
C2068 C2070 1.381 . S
C2068 C2071 1.487 . S
C2069 C2066 1.382 . S
C2069 C2070 1.387 . S
C2069 H2086 0.930 . S
C2070 C2068 1.381 . S
C2070 C2069 1.387 . S
C2070 H2087 0.931 . S
C2071 C2064 1.399 . S
C2071 C2068 1.487 . S
C2071 N2088 1.343 . S
H2072 C2044 0.931 . S
H2073 C2046 0.930 . S
H2074 C2048 0.930 . S
H2075 C2049 0.931 . S
H2076 C2051 0.931 . S
H2077 C2053 0.930 . S
H2078 C2055 0.930 . S
H2079 C2056 0.931 . S
H2080 C2058 0.931 . S
H2081 C2060 0.930 . S
H2082 C2062 0.930 . S
H2083 C2063 0.931 . S
H2084 C2065 0.931 . S
H2085 C2067 0.930 . S
H2086 C2069 0.930 . S
H2087 C2070 0.931 . S
N2088 C2050 1.343 . S
N2088 C2071 1.343 . S
N2089 C2057 1.343 . S
N2089 C2064 1.343 . S
C2090 C2091 1.384 1_545 S
C2090 C2092 1.384 . S
C2090 H2118 0.931 . S
C2091 C2090 1.384 1_565 S
C2091 C2094 1.382 . S
C2092 C2090 1.384 . S
C2092 C2093 1.381 1_545 S
C2092 H2119 0.930 . S
C2093 C2092 1.381 1_565 S
C2093 C2095 1.381 . S
C2093 C2096 1.487 . S
C2094 C2091 1.382 . S
C2094 C2095 1.387 . S
C2094 H2120 0.930 . S
C2095 C2093 1.381 . S
C2095 C2094 1.387 . S
C2095 H2121 0.931 . S
C2096 C2093 1.487 . S
C2096 C2103 1.399 1_565 S
C2096 N2134 1.343 . S
C2097 C2098 1.384 1_565 S
C2097 C2099 1.384 . S
C2097 H2122 0.931 . S
C2098 C2097 1.384 1_545 S
C2098 C2101 1.382 . S
C2099 C2097 1.384 . S
C2099 C2100 1.381 1_565 S
C2099 H2123 0.930 . S
C2100 C2099 1.381 1_545 S
C2100 C2102 1.381 . S
C2100 C2103 1.487 . S
C2101 C2098 1.382 . S
C2101 C2102 1.387 . S
C2101 H2124 0.930 . S
C2102 C2100 1.381 . S
C2102 C2101 1.387 . S
C2102 H2125 0.931 . S
C2103 C2096 1.399 1_545 S
C2103 C2100 1.487 . S
C2103 N2135 1.343 . S
C2104 C2105 1.384 1_565 S
C2104 C2106 1.384 . S
C2104 H2126 0.931 . S
C2105 C2104 1.384 1_545 S
C2105 C2108 1.382 . S
C2106 C2104 1.384 . S
C2106 C2107 1.381 1_565 S
C2106 H2127 0.930 . S
C2107 C2106 1.381 1_545 S
C2107 C2109 1.381 . S
C2107 C2110 1.487 . S
C2108 C2105 1.382 . S
C2108 C2109 1.387 . S
C2108 H2128 0.930 . S
C2109 C2107 1.381 . S
C2109 C2108 1.387 . S
C2109 H2129 0.931 . S
C2110 C2107 1.487 . S
C2110 C2117 1.399 1_545 S
C2110 N2135 1.343 . S
C2111 C2112 1.384 1_545 S
C2111 C2113 1.384 . S
C2111 H2130 0.931 . S
C2112 C2111 1.384 1_565 S
C2112 C2115 1.382 . S
C2113 C2111 1.384 . S
C2113 C2114 1.381 1_545 S
C2113 H2131 0.930 . S
C2114 C2113 1.381 1_565 S
C2114 C2116 1.381 . S
C2114 C2117 1.487 . S
C2115 C2112 1.382 . S
C2115 C2116 1.387 . S
C2115 H2132 0.930 . S
C2116 C2114 1.381 . S
C2116 C2115 1.387 . S
C2116 H2133 0.931 . S
C2117 C2110 1.399 1_565 S
C2117 C2114 1.487 . S
C2117 N2134 1.343 . S
H2118 C2090 0.931 . S
H2119 C2092 0.930 . S
H2120 C2094 0.930 . S
H2121 C2095 0.931 . S
H2122 C2097 0.931 . S
H2123 C2099 0.930 . S
H2124 C2101 0.930 . S
H2125 C2102 0.931 . S
H2126 C2104 0.931 . S
H2127 C2106 0.930 . S
H2128 C2108 0.930 . S
H2129 C2109 0.931 . S
H2130 C2111 0.931 . S
H2131 C2113 0.930 . S
H2132 C2115 0.930 . S
H2133 C2116 0.931 . S
N2134 C2096 1.343 . S
N2134 C2117 1.343 . S
N2135 C2103 1.343 . S
N2135 C2110 1.343 . S
C2136 C2137 1.384 . S
C2136 C2138 1.384 . S
C2136 H2164 0.931 . S
C2137 C2136 1.384 . S
C2137 C2140 1.382 1_545 S
C2138 C2136 1.384 . S
C2138 C2139 1.385 . S
C2138 H2165 0.930 . S
C2139 C2138 1.385 . S
C2139 C2141 1.372 1_545 S
C2139 C2142 1.495 1_545 S
C2140 C2137 1.382 1_565 S
C2140 C2141 1.387 . S
C2140 H2166 0.930 . S
C2141 C2139 1.372 1_565 S
C2141 C2140 1.387 . S
C2141 H2167 0.931 . S
C2142 C2139 1.495 1_565 S
C2142 C2149 1.399 1_565 S
C2142 N2180 1.362 . S
C2143 C2144 1.384 . S
C2143 C2145 1.384 . S
C2143 H2168 0.931 . S
C2144 C2143 1.384 . S
C2144 C2147 1.382 1_565 S
C2145 C2143 1.384 . S
C2145 C2146 1.403 . S
C2145 H2169 0.930 . S
C2146 C2145 1.403 . S
C2146 C2148 1.370 1_565 S
C2146 C2149 1.473 1_565 S
C2147 C2144 1.382 1_545 S
C2147 C2148 1.387 . S
C2147 H2170 0.930 . S
C2148 C2146 1.370 1_545 S
C2148 C2147 1.387 . S
C2148 H2171 0.931 . S
C2149 C2142 1.399 1_545 S
C2149 C2146 1.473 1_545 S
C2149 N2181 1.318 . S
C2150 C2151 1.384 . S
C2150 C2152 1.384 . S
C2150 H2172 0.931 . S
C2151 C2150 1.384 . S
C2151 C2154 1.382 1_565 S
C2152 C2150 1.384 . S
C2152 C2153 1.381 . S
C2152 H2173 0.930 . S
C2153 C2152 1.381 . S
C2153 C2155 1.382 1_565 S
C2153 C2156 1.495 1_565 S
C2154 C2151 1.382 1_545 S
C2154 C2155 1.387 . S
C2154 H2174 0.930 . S
C2155 C2153 1.382 1_545 S
C2155 C2154 1.387 . S
C2155 H2175 0.931 . S
C2156 C2153 1.495 1_545 S
C2156 C2163 1.399 1_545 S
C2156 N2181 1.362 . S
C2157 C2158 1.384 . S
C2157 C2159 1.384 . S
C2157 H2176 0.931 . S
C2158 C2157 1.384 . S
C2158 C2161 1.382 1_545 S
C2159 C2157 1.384 . S
C2159 C2160 1.419 . S
C2159 H2177 0.930 . S
C2160 C2159 1.419 . S
C2160 C2162 1.362 1_545 S
C2160 C2163 1.473 1_545 S
C2161 C2158 1.382 1_565 S
C2161 C2162 1.387 . S
C2161 H2178 0.930 . S
C2162 C2160 1.362 1_565 S
C2162 C2161 1.387 . S
C2162 H2179 0.931 . S
C2163 C2156 1.399 1_565 S
C2163 C2160 1.473 1_565 S
C2163 N2180 1.318 . S
H2164 C2136 0.931 . S
H2165 C2138 0.930 . S
H2166 C2140 0.930 . S
H2167 C2141 0.931 . S
H2168 C2143 0.931 . S
H2169 C2145 0.930 . S
H2170 C2147 0.930 . S
H2171 C2148 0.931 . S
H2172 C2150 0.931 . S
H2173 C2152 0.930 . S
H2174 C2154 0.930 . S
H2175 C2155 0.931 . S
H2176 C2157 0.931 . S
H2177 C2159 0.930 . S
H2178 C2161 0.930 . S
H2179 C2162 0.931 . S
N2180 C2142 1.362 . S
N2180 C2163 1.318 . S
N2181 C2149 1.318 . S
N2181 C2156 1.362 . S
C2182 C2183 1.384 . S
C2182 C2184 1.384 . S
C2182 H2210 0.931 . S
C2183 C2182 1.384 . S
C2183 C2186 1.382 1_655 S
C2184 C2182 1.384 . S
C2184 C2185 1.424 . S
C2184 H2211 0.930 . S
C2185 C2184 1.424 . S
C2185 C2187 1.360 1_655 S
C2185 C2188 1.465 . S
C2186 C2183 1.382 1_455 S
C2186 C2187 1.387 . S
C2186 H2212 0.930 . S
C2187 C2185 1.360 1_455 S
C2187 C2186 1.387 . S
C2187 H2213 0.931 . S
C2188 C2185 1.465 . S
C2188 C2195 1.399 . S
C2188 N2226 1.327 1_655 S
C2189 C2190 1.384 . S
C2189 C2191 1.384 . S
C2189 H2214 0.931 . S
C2190 C2189 1.384 . S
C2190 C2193 1.382 1_455 S
C2191 C2189 1.384 . S
C2191 C2192 1.382 . S
C2191 H2215 0.930 . S
C2192 C2191 1.382 . S
C2192 C2194 1.379 1_455 S
C2192 C2195 1.496 1_455 S
C2193 C2190 1.382 1_655 S
C2193 C2194 1.387 . S
C2193 H2216 0.930 . S
C2194 C2192 1.379 1_655 S
C2194 C2193 1.387 . S
C2194 H2217 0.931 . S
C2195 C2188 1.399 . S
C2195 C2192 1.496 1_655 S
C2195 N2227 1.360 . S
C2196 C2197 1.384 . S
C2196 C2198 1.384 . S
C2196 H2218 0.931 . S
C2197 C2196 1.384 . S
C2197 C2200 1.382 1_455 S
C2198 C2196 1.384 . S
C2198 C2199 1.408 . S
C2198 H2219 0.930 . S
C2199 C2198 1.408 . S
C2199 C2201 1.368 1_455 S
C2199 C2202 1.472 1_455 S
C2200 C2197 1.382 1_655 S
C2200 C2201 1.387 . S
C2200 H2220 0.930 . S
C2201 C2199 1.368 1_655 S
C2201 C2200 1.387 . S
C2201 H2221 0.931 . S
C2202 C2199 1.472 1_655 S
C2202 C2209 1.399 1_655 S
C2202 N2227 1.320 . S
C2203 C2204 1.384 . S
C2203 C2205 1.384 . S
C2203 H2222 0.931 . S
C2204 C2203 1.384 . S
C2204 C2207 1.382 1_655 S
C2205 C2203 1.384 . S
C2205 C2206 1.386 . S
C2205 H2223 0.930 . S
C2206 C2205 1.386 . S
C2206 C2208 1.370 1_655 S
C2206 C2209 1.496 1_655 S
C2207 C2204 1.382 1_455 S
C2207 C2208 1.387 . S
C2207 H2224 0.930 . S
C2208 C2206 1.370 1_455 S
C2208 C2207 1.387 . S
C2208 H2225 0.931 . S
C2209 C2202 1.399 1_455 S
C2209 C2206 1.496 1_455 S
C2209 N2226 1.360 . S
H2210 C2182 0.931 . S
H2211 C2184 0.930 . S
H2212 C2186 0.930 . S
H2213 C2187 0.931 . S
H2214 C2189 0.931 . S
H2215 C2191 0.930 . S
H2216 C2193 0.930 . S
H2217 C2194 0.931 . S
H2218 C2196 0.931 . S
H2219 C2198 0.930 . S
H2220 C2200 0.930 . S
H2221 C2201 0.931 . S
H2222 C2203 0.931 . S
H2223 C2205 0.930 . S
H2224 C2207 0.930 . S
H2225 C2208 0.931 . S
N2226 C2188 1.327 1_455 S
N2226 C2209 1.360 . S
N2227 C2195 1.360 . S
N2227 C2202 1.320 . S
C2228 C2229 1.384 . S
C2228 C2230 1.384 . S
C2228 H2256 0.931 . S
C2229 C2228 1.384 . S
C2229 C2232 1.382 . S
C2230 C2228 1.384 . S
C2230 C2231 1.381 . S
C2230 H2257 0.930 . S
C2231 C2230 1.381 . S
C2231 C2233 1.381 . S
C2231 C2234 1.487 . S
C2232 C2229 1.382 . S
C2232 C2233 1.387 . S
C2232 H2258 0.930 . S
C2233 C2231 1.381 . S
C2233 C2232 1.387 . S
C2233 H2259 0.931 . S
C2234 C2231 1.487 . S
C2234 C2241 1.399 . S
C2234 N2272 1.343 . S
C2235 C2236 1.384 . S
C2235 C2237 1.384 . S
C2235 H2260 0.931 . S
C2236 C2235 1.384 . S
C2236 C2239 1.382 . S
C2237 C2235 1.384 . S
C2237 C2238 1.381 . S
C2237 H2261 0.930 . S
C2238 C2237 1.381 . S
C2238 C2240 1.381 . S
C2238 C2241 1.487 . S
C2239 C2236 1.382 . S
C2239 C2240 1.387 . S
C2239 H2262 0.930 . S
C2240 C2238 1.381 . S
C2240 C2239 1.387 . S
C2240 H2263 0.931 . S
C2241 C2234 1.399 . S
C2241 C2238 1.487 . S
C2241 N2273 1.343 . S
C2242 C2243 1.384 . S
C2242 C2244 1.384 . S
C2242 H2264 0.931 . S
C2243 C2242 1.384 . S
C2243 C2246 1.382 . S
C2244 C2242 1.384 . S
C2244 C2245 1.381 . S
C2244 H2265 0.930 . S
C2245 C2244 1.381 . S
C2245 C2247 1.381 . S
C2245 C2248 1.487 . S
C2246 C2243 1.382 . S
C2246 C2247 1.387 . S
C2246 H2266 0.930 . S
C2247 C2245 1.381 . S
C2247 C2246 1.387 . S
C2247 H2267 0.931 . S
C2248 C2245 1.487 . S
C2248 C2255 1.399 . S
C2248 N2273 1.343 . S
C2249 C2250 1.384 . S
C2249 C2251 1.384 . S
C2249 H2268 0.931 . S
C2250 C2249 1.384 . S
C2250 C2253 1.382 . S
C2251 C2249 1.384 . S
C2251 C2252 1.381 . S
C2251 H2269 0.930 . S
C2252 C2251 1.381 . S
C2252 C2254 1.381 . S
C2252 C2255 1.487 . S
C2253 C2250 1.382 . S
C2253 C2254 1.387 . S
C2253 H2270 0.930 . S
C2254 C2252 1.381 . S
C2254 C2253 1.387 . S
C2254 H2271 0.931 . S
C2255 C2248 1.399 . S
C2255 C2252 1.487 . S
C2255 N2272 1.343 . S
H2256 C2228 0.931 . S
H2257 C2230 0.930 . S
H2258 C2232 0.930 . S
H2259 C2233 0.931 . S
H2260 C2235 0.931 . S
H2261 C2237 0.930 . S
H2262 C2239 0.930 . S
H2263 C2240 0.931 . S
H2264 C2242 0.931 . S
H2265 C2244 0.930 . S
H2266 C2246 0.930 . S
H2267 C2247 0.931 . S
H2268 C2249 0.931 . S
H2269 C2251 0.930 . S
H2270 C2253 0.930 . S
H2271 C2254 0.931 . S
N2272 C2234 1.343 . S
N2272 C2255 1.343 . S
N2273 C2241 1.343 . S
N2273 C2248 1.343 . S
C2274 C2275 1.384 . S
C2274 C2276 1.384 . S
C2274 H2302 0.931 . S
C2275 C2274 1.384 . S
C2275 C2278 1.382 . S
C2276 C2274 1.384 . S
C2276 C2277 1.381 . S
C2276 H2303 0.930 . S
C2277 C2276 1.381 . S
C2277 C2279 1.381 . S
C2277 C2280 1.487 . S
C2278 C2275 1.382 . S
C2278 C2279 1.387 . S
C2278 H2304 0.930 . S
C2279 C2277 1.381 . S
C2279 C2278 1.387 . S
C2279 H2305 0.931 . S
C2280 C2277 1.487 . S
C2280 C2287 1.399 . S
C2280 N2318 1.343 . S
C2281 C2282 1.384 . S
C2281 C2283 1.384 . S
C2281 H2306 0.931 . S
C2282 C2281 1.384 . S
C2282 C2285 1.382 . S
C2283 C2281 1.384 . S
C2283 C2284 1.381 . S
C2283 H2307 0.930 . S
C2284 C2283 1.381 . S
C2284 C2286 1.381 . S
C2284 C2287 1.487 . S
C2285 C2282 1.382 . S
C2285 C2286 1.387 . S
C2285 H2308 0.930 . S
C2286 C2284 1.381 . S
C2286 C2285 1.387 . S
C2286 H2309 0.931 . S
C2287 C2280 1.399 . S
C2287 C2284 1.487 . S
C2287 N2319 1.343 . S
C2288 C2289 1.384 . S
C2288 C2290 1.384 . S
C2288 H2310 0.931 . S
C2289 C2288 1.384 . S
C2289 C2292 1.382 . S
C2290 C2288 1.384 . S
C2290 C2291 1.381 . S
C2290 H2311 0.930 . S
C2291 C2290 1.381 . S
C2291 C2293 1.381 . S
C2291 C2294 1.487 . S
C2292 C2289 1.382 . S
C2292 C2293 1.387 . S
C2292 H2312 0.930 . S
C2293 C2291 1.381 . S
C2293 C2292 1.387 . S
C2293 H2313 0.931 . S
C2294 C2291 1.487 . S
C2294 C2301 1.399 . S
C2294 N2319 1.343 . S
C2295 C2296 1.384 . S
C2295 C2297 1.384 . S
C2295 H2314 0.931 . S
C2296 C2295 1.384 . S
C2296 C2299 1.382 . S
C2297 C2295 1.384 . S
C2297 C2298 1.381 . S
C2297 H2315 0.930 . S
C2298 C2297 1.381 . S
C2298 C2300 1.381 . S
C2298 C2301 1.487 . S
C2299 C2296 1.382 . S
C2299 C2300 1.387 . S
C2299 H2316 0.930 . S
C2300 C2298 1.381 . S
C2300 C2299 1.387 . S
C2300 H2317 0.931 . S
C2301 C2294 1.399 . S
C2301 C2298 1.487 . S
C2301 N2318 1.343 . S
H2302 C2274 0.931 . S
H2303 C2276 0.930 . S
H2304 C2278 0.930 . S
H2305 C2279 0.931 . S
H2306 C2281 0.931 . S
H2307 C2283 0.930 . S
H2308 C2285 0.930 . S
H2309 C2286 0.931 . S
H2310 C2288 0.931 . S
H2311 C2290 0.930 . S
H2312 C2292 0.930 . S
H2313 C2293 0.931 . S
H2314 C2295 0.931 . S
H2315 C2297 0.930 . S
H2316 C2299 0.930 . S
H2317 C2300 0.931 . S
N2318 C2280 1.343 . S
N2318 C2301 1.343 . S
N2319 C2287 1.343 . S
N2319 C2294 1.343 . S
C2320 C2321 1.384 . S
C2320 C2322 1.384 . S
C2320 H2348 0.931 . S
C2321 C2320 1.384 . S
C2321 C2324 1.382 . S
C2322 C2320 1.384 . S
C2322 C2323 1.381 . S
C2322 H2349 0.930 . S
C2323 C2322 1.381 . S
C2323 C2325 1.381 . S
C2323 C2326 1.487 . S
C2324 C2321 1.382 . S
C2324 C2325 1.387 . S
C2324 H2350 0.930 . S
C2325 C2323 1.381 . S
C2325 C2324 1.387 . S
C2325 H2351 0.931 . S
C2326 C2323 1.487 . S
C2326 C2333 1.399 . S
C2326 N2364 1.343 . S
C2327 C2328 1.384 . S
C2327 C2329 1.384 . S
C2327 H2352 0.931 . S
C2328 C2327 1.384 . S
C2328 C2331 1.382 . S
C2329 C2327 1.384 . S
C2329 C2330 1.381 . S
C2329 H2353 0.930 . S
C2330 C2329 1.381 . S
C2330 C2332 1.381 . S
C2330 C2333 1.487 . S
C2331 C2328 1.382 . S
C2331 C2332 1.387 . S
C2331 H2354 0.930 . S
C2332 C2330 1.381 . S
C2332 C2331 1.387 . S
C2332 H2355 0.931 . S
C2333 C2326 1.399 . S
C2333 C2330 1.487 . S
C2333 N2365 1.343 . S
C2334 C2335 1.384 . S
C2334 C2336 1.384 . S
C2334 H2356 0.931 . S
C2335 C2334 1.384 . S
C2335 C2338 1.382 . S
C2336 C2334 1.384 . S
C2336 C2337 1.381 . S
C2336 H2357 0.930 . S
C2337 C2336 1.381 . S
C2337 C2339 1.381 . S
C2337 C2340 1.487 . S
C2338 C2335 1.382 . S
C2338 C2339 1.387 . S
C2338 H2358 0.930 . S
C2339 C2337 1.381 . S
C2339 C2338 1.387 . S
C2339 H2359 0.931 . S
C2340 C2337 1.487 . S
C2340 C2347 1.399 . S
C2340 N2365 1.343 . S
C2341 C2342 1.384 . S
C2341 C2343 1.384 . S
C2341 H2360 0.931 . S
C2342 C2341 1.384 . S
C2342 C2345 1.382 . S
C2343 C2341 1.384 . S
C2343 C2344 1.381 . S
C2343 H2361 0.930 . S
C2344 C2343 1.381 . S
C2344 C2346 1.381 . S
C2344 C2347 1.487 . S
C2345 C2342 1.382 . S
C2345 C2346 1.387 . S
C2345 H2362 0.930 . S
C2346 C2344 1.381 . S
C2346 C2345 1.387 . S
C2346 H2363 0.931 . S
C2347 C2340 1.399 . S
C2347 C2344 1.487 . S
C2347 N2364 1.343 . S
H2348 C2320 0.931 . S
H2349 C2322 0.930 . S
H2350 C2324 0.930 . S
H2351 C2325 0.931 . S
H2352 C2327 0.931 . S
H2353 C2329 0.930 . S
H2354 C2331 0.930 . S
H2355 C2332 0.931 . S
H2356 C2334 0.931 . S
H2357 C2336 0.930 . S
H2358 C2338 0.930 . S
H2359 C2339 0.931 . S
H2360 C2341 0.931 . S
H2361 C2343 0.930 . S
H2362 C2345 0.930 . S
H2363 C2346 0.931 . S
N2364 C2326 1.343 . S
N2364 C2347 1.343 . S
N2365 C2333 1.343 . S
N2365 C2340 1.343 . S
C2366 C2367 1.384 . S
C2366 C2368 1.384 . S
C2366 H2394 0.931 . S
C2367 C2366 1.384 . S
C2367 C2370 1.382 . S
C2368 C2366 1.384 . S
C2368 C2369 1.381 . S
C2368 H2395 0.930 . S
C2369 C2368 1.381 . S
C2369 C2371 1.381 . S
C2369 C2372 1.487 . S
C2370 C2367 1.382 . S
C2370 C2371 1.387 . S
C2370 H2396 0.930 . S
C2371 C2369 1.381 . S
C2371 C2370 1.387 . S
C2371 H2397 0.931 . S
C2372 C2369 1.487 . S
C2372 C2379 1.399 . S
C2372 N2410 1.343 . S
C2373 C2374 1.384 . S
C2373 C2375 1.384 . S
C2373 H2398 0.931 . S
C2374 C2373 1.384 . S
C2374 C2377 1.382 . S
C2375 C2373 1.384 . S
C2375 C2376 1.381 . S
C2375 H2399 0.930 . S
C2376 C2375 1.381 . S
C2376 C2378 1.381 . S
C2376 C2379 1.487 . S
C2377 C2374 1.382 . S
C2377 C2378 1.387 . S
C2377 H2400 0.930 . S
C2378 C2376 1.381 . S
C2378 C2377 1.387 . S
C2378 H2401 0.931 . S
C2379 C2372 1.399 . S
C2379 C2376 1.487 . S
C2379 N2411 1.343 . S
C2380 C2381 1.384 . S
C2380 C2382 1.384 . S
C2380 H2402 0.931 . S
C2381 C2380 1.384 . S
C2381 C2384 1.382 . S
C2382 C2380 1.384 . S
C2382 C2383 1.381 . S
C2382 H2403 0.930 . S
C2383 C2382 1.381 . S
C2383 C2385 1.381 . S
C2383 C2386 1.487 . S
C2384 C2381 1.382 . S
C2384 C2385 1.387 . S
C2384 H2404 0.930 . S
C2385 C2383 1.381 . S
C2385 C2384 1.387 . S
C2385 H2405 0.931 . S
C2386 C2383 1.487 . S
C2386 C2393 1.399 . S
C2386 N2411 1.343 . S
C2387 C2388 1.384 . S
C2387 C2389 1.384 . S
C2387 H2406 0.931 . S
C2388 C2387 1.384 . S
C2388 C2391 1.382 . S
C2389 C2387 1.384 . S
C2389 C2390 1.381 . S
C2389 H2407 0.930 . S
C2390 C2389 1.381 . S
C2390 C2392 1.381 . S
C2390 C2393 1.487 . S
C2391 C2388 1.382 . S
C2391 C2392 1.387 . S
C2391 H2408 0.930 . S
C2392 C2390 1.381 . S
C2392 C2391 1.387 . S
C2392 H2409 0.931 . S
C2393 C2386 1.399 . S
C2393 C2390 1.487 . S
C2393 N2410 1.343 . S
H2394 C2366 0.931 . S
H2395 C2368 0.930 . S
H2396 C2370 0.930 . S
H2397 C2371 0.931 . S
H2398 C2373 0.931 . S
H2399 C2375 0.930 . S
H2400 C2377 0.930 . S
H2401 C2378 0.931 . S
H2402 C2380 0.931 . S
H2403 C2382 0.930 . S
H2404 C2384 0.930 . S
H2405 C2385 0.931 . S
H2406 C2387 0.931 . S
H2407 C2389 0.930 . S
H2408 C2391 0.930 . S
H2409 C2392 0.931 . S
N2410 C2372 1.343 . S
N2410 C2393 1.343 . S
N2411 C2379 1.343 . S
N2411 C2386 1.343 . S
C2412 C2413 1.387 . S
C2412 H2416 0.950 . S
C2412 C2421 1.390 . S
C2413 C2412 1.387 . S
C2413 C2415 1.387 . S
H2414 C2421 0.950 . S
C2415 C2413 1.387 . S
C2415 C2417 1.395 1_655 S
C2415 H2419 0.966 . S
H2416 C2412 0.950 . S
C2417 C2415 1.395 1_455 S
C2417 C2418 1.369 1_455 S
C2417 H2420 0.965 . S
C2418 C2417 1.369 1_655 S
C2418 C2421 1.387 . S
H2419 C2415 0.966 . S
H2420 C2417 0.965 . S
C2421 C2412 1.390 . S
C2421 H2414 0.950 . S
C2421 C2418 1.387 . S
C2422 C2423 1.387 . S
C2422 H2426 0.950 . S
C2422 C2431 1.390 . S
C2423 C2422 1.387 . S
C2423 C2425 1.387 . S
H2424 C2431 0.950 . S
C2425 C2423 1.387 . S
C2425 C2427 1.390 . S
C2425 H2429 0.950 . S
H2426 C2422 0.950 . S
C2427 C2425 1.390 . S
C2427 C2428 1.387 . S
C2427 H2430 0.950 . S
C2428 C2427 1.387 . S
C2428 C2431 1.387 . S
H2429 C2425 0.950 . S
H2430 C2427 0.950 . S
C2431 C2422 1.390 . S
C2431 H2424 0.950 . S
C2431 C2428 1.387 . S
C2432 C2433 1.387 . S
C2432 H2436 0.950 . S
C2432 C2441 1.390 . S
C2433 C2432 1.387 . S
C2433 C2435 1.387 . S
H2434 C2441 0.950 . S
C2435 C2433 1.387 . S
C2435 C2437 1.390 . S
C2435 H2439 0.950 . S
H2436 C2432 0.950 . S
C2437 C2435 1.390 . S
C2437 C2438 1.387 . S
C2437 H2440 0.950 . S
C2438 C2437 1.387 . S
C2438 C2441 1.387 . S
H2439 C2435 0.950 . S
H2440 C2437 0.950 . S
C2441 C2432 1.390 . S
C2441 H2434 0.950 . S
C2441 C2438 1.387 . S
C2442 C2443 1.387 . S
C2442 H2446 0.950 . S
C2442 C2451 1.390 . S
C2443 C2442 1.387 . S
C2443 C2445 1.387 . S
H2444 C2451 0.950 . S
C2445 C2443 1.387 . S
C2445 C2447 1.390 1_565 S
C2445 H2449 0.950 1_565 S
H2446 C2442 0.950 . S
C2447 C2445 1.390 1_545 S
C2447 C2448 1.387 1_545 S
C2447 H2450 0.950 . S
C2448 C2447 1.387 1_565 S
C2448 C2451 1.387 . S
H2449 C2445 0.950 1_545 S
H2450 C2447 0.950 . S
C2451 C2442 1.390 . S
C2451 H2444 0.950 . S
C2451 C2448 1.387 . S
C2452 C2453 1.387 . S
C2452 H2456 0.950 . S
C2452 C2461 1.390 . S
C2453 C2452 1.387 . S
C2453 C2455 1.387 . S
H2454 C2461 0.950 1_655 S
C2455 C2453 1.387 . S
C2455 C2457 1.390 . S
C2455 H2459 0.950 . S
H2456 C2452 0.950 . S
C2457 C2455 1.390 . S
C2457 C2458 1.387 . S
C2457 H2460 0.950 . S
C2458 C2457 1.387 . S
C2458 C2461 1.387 . S
H2459 C2455 0.950 . S
H2460 C2457 0.950 . S
C2461 C2452 1.390 . S
C2461 H2454 0.950 1_455 S
C2461 C2458 1.387 . S
C2462 C2463 1.387 . S
C2462 H2466 0.950 . S
C2462 C2471 1.390 . S
C2463 C2462 1.387 . S
C2463 C2465 1.387 . S
H2464 C2471 0.950 . S
C2465 C2463 1.387 . S
C2465 C2467 1.390 . S
C2465 H2469 0.950 . S
H2466 C2462 0.950 . S
C2467 C2465 1.390 . S
C2467 C2468 1.387 . S
C2467 H2470 0.950 . S
C2468 C2467 1.387 . S
C2468 C2471 1.387 . S
H2469 C2465 0.950 . S
H2470 C2467 0.950 . S
C2471 C2462 1.390 . S
C2471 H2464 0.950 . S
C2471 C2468 1.387 . S
C2472 C2473 1.387 . S
C2472 H2476 0.950 . S
C2472 C2481 1.390 . S
C2473 C2472 1.387 . S
C2473 C2475 1.387 . S
H2474 C2481 0.950 . S
C2475 C2473 1.387 . S
C2475 C2477 1.390 . S
C2475 H2479 0.950 . S
H2476 C2472 0.950 . S
C2477 C2475 1.390 . S
C2477 C2478 1.387 . S
C2477 H2480 0.950 . S
C2478 C2477 1.387 . S
C2478 C2481 1.387 . S
H2479 C2475 0.950 . S
H2480 C2477 0.950 . S
C2481 C2472 1.390 . S
C2481 H2474 0.950 . S
C2481 C2478 1.387 . S
C2482 C2483 1.387 . S
C2482 H2486 0.950 . S
C2482 C2491 1.390 . S
C2483 C2482 1.387 . S
C2483 C2485 1.387 . S
H2484 C2491 0.950 . S
C2485 C2483 1.387 . S
C2485 C2487 1.390 . S
C2485 H2489 0.950 . S
H2486 C2482 0.950 . S
C2487 C2485 1.390 . S
C2487 C2488 1.387 . S
C2487 H2490 0.950 . S
C2488 C2487 1.387 . S
C2488 C2491 1.387 . S
H2489 C2485 0.950 . S
H2490 C2487 0.950 . S
C2491 C2482 1.390 . S
C2491 H2484 0.950 . S
C2491 C2488 1.387 . S
C2492 C2493 1.387 . S
C2492 H2496 0.950 . S
C2492 C2501 1.390 . S
C2493 C2492 1.387 . S
C2493 C2495 1.387 . S
H2494 C2501 0.950 . S
C2495 C2493 1.387 . S
C2495 C2497 1.390 1_565 S
C2495 H2499 0.950 1_565 S
H2496 C2492 0.950 . S
C2497 C2495 1.390 1_545 S
C2497 C2498 1.387 1_545 S
C2497 H2500 0.950 . S
C2498 C2497 1.387 1_565 S
C2498 C2501 1.387 . S
H2499 C2495 0.950 1_545 S
H2500 C2497 0.950 . S
C2501 C2492 1.390 . S
C2501 H2494 0.950 . S
C2501 C2498 1.387 . S
C2502 C2503 1.387 . S
C2502 H2506 0.950 1_545 S
C2502 C2511 1.390 1_545 S
C2503 C2502 1.387 . S
C2503 C2505 1.387 . S
H2504 C2511 0.950 . S
C2505 C2503 1.387 . S
C2505 C2507 1.390 . S
C2505 H2509 0.950 . S
H2506 C2502 0.950 1_565 S
C2507 C2505 1.390 . S
C2507 C2508 1.387 . S
C2507 H2510 0.950 . S
C2508 C2507 1.387 . S
C2508 C2511 1.387 1_545 S
H2509 C2505 0.950 . S
H2510 C2507 0.950 . S
C2511 C2502 1.390 1_565 S
C2511 H2504 0.950 . S
C2511 C2508 1.387 1_565 S
C2512 C2513 1.387 . S
C2512 H2516 0.950 . S
C2512 C2521 1.390 . S
C2513 C2512 1.387 . S
C2513 C2515 1.387 . S
H2514 C2521 0.968 . S
C2515 C2513 1.387 . S
C2515 C2517 1.390 . S
C2515 H2519 0.950 . S
H2516 C2512 0.950 . S
C2517 C2515 1.390 . S
C2517 C2518 1.387 . S
C2517 H2520 0.950 . S
C2518 C2517 1.387 . S
C2518 C2521 1.387 . S
H2519 C2515 0.950 . S
H2520 C2517 0.950 . S
C2521 C2512 1.390 . S
C2521 H2514 0.968 . S
C2521 C2518 1.387 . S
C2522 C2523 1.387 . S
C2522 H2526 0.950 . S
C2522 C2531 1.390 . S
C2523 C2522 1.387 . S
C2523 C2525 1.387 . S
H2524 C2531 0.950 . S
C2525 C2523 1.387 . S
C2525 C2527 1.390 . S
C2525 H2529 0.950 . S
H2526 C2522 0.950 . S
C2527 C2525 1.390 . S
C2527 C2528 1.387 . S
C2527 H2530 0.950 . S
C2528 C2527 1.387 . S
C2528 C2531 1.387 . S
H2529 C2525 0.950 . S
H2530 C2527 0.950 . S
C2531 C2522 1.390 . S
C2531 H2524 0.950 . S
C2531 C2528 1.387 . S
C2532 C2533 1.387 . S
C2532 H2536 0.950 . S
C2532 C2541 1.390 . S
C2533 C2532 1.387 . S
C2533 C2535 1.387 . S
H2534 C2541 0.950 . S
C2535 C2533 1.387 . S
C2535 C2537 1.390 . S
C2535 H2539 0.950 . S
H2536 C2532 0.950 . S
C2537 C2535 1.390 . S
C2537 C2538 1.387 . S
C2537 H2540 0.950 . S
C2538 C2537 1.387 . S
C2538 C2541 1.387 . S
H2539 C2535 0.950 . S
H2540 C2537 0.950 . S
C2541 C2532 1.390 . S
C2541 H2534 0.950 . S
C2541 C2538 1.387 . S
C2542 C2543 1.387 . S
C2542 H2546 0.950 . S
C2542 C2551 1.390 . S
C2543 C2542 1.387 . S
C2543 C2545 1.387 . S
H2544 C2551 0.950 . S
C2545 C2543 1.387 . S
C2545 C2547 1.390 . S
C2545 H2549 0.950 . S
H2546 C2542 0.950 . S
C2547 C2545 1.390 . S
C2547 C2548 1.387 . S
C2547 H2550 0.950 . S
C2548 C2547 1.387 . S
C2548 C2551 1.387 . S
H2549 C2545 0.950 . S
H2550 C2547 0.950 . S
C2551 C2542 1.390 . S
C2551 H2544 0.950 . S
C2551 C2548 1.387 . S
C2552 C2553 1.387 . S
C2552 H2556 0.950 . S
C2552 C2561 1.390 . S
C2553 C2552 1.387 . S
C2553 C2555 1.387 . S
H2554 C2561 0.950 . S
C2555 C2553 1.387 . S
C2555 C2557 1.390 . S
C2555 H2559 0.950 . S
H2556 C2552 0.950 . S
C2557 C2555 1.390 . S
C2557 C2558 1.387 . S
C2557 H2560 0.950 . S
C2558 C2557 1.387 . S
C2558 C2561 1.387 . S
H2559 C2555 0.950 . S
H2560 C2557 0.950 . S
C2561 C2552 1.390 . S
C2561 H2554 0.950 . S
C2561 C2558 1.387 . S
C2562 C2563 1.387 . S
C2562 H2566 0.950 . S
C2562 C2571 1.390 . S
C2563 C2562 1.387 . S
C2563 C2565 1.387 . S
H2564 C2571 0.950 . S
C2565 C2563 1.387 . S
C2565 C2567 1.390 . S
C2565 H2569 0.950 . S
H2566 C2562 0.950 . S
C2567 C2565 1.390 . S
C2567 C2568 1.387 . S
C2567 H2570 0.950 . S
C2568 C2567 1.387 . S
C2568 C2571 1.387 . S
H2569 C2565 0.950 . S
H2570 C2567 0.950 . S
C2571 C2562 1.390 . S
C2571 H2564 0.950 . S
C2571 C2568 1.387 . S
C2572 C2573 1.387 . S
C2572 H2576 0.950 . S
C2572 C2581 1.390 . S
C2573 C2572 1.387 . S
C2573 C2575 1.387 . S
H2574 C2581 0.950 . S
C2575 C2573 1.387 . S
C2575 C2577 1.390 . S
C2575 H2579 0.950 . S
H2576 C2572 0.950 . S
C2577 C2575 1.390 . S
C2577 C2578 1.387 . S
C2577 H2580 0.950 . S
C2578 C2577 1.387 . S
C2578 C2581 1.387 . S
H2579 C2575 0.950 . S
H2580 C2577 0.950 . S
C2581 C2572 1.390 . S
C2581 H2574 0.950 . S
C2581 C2578 1.387 . S
C2582 C2583 1.387 . S
C2582 H2586 0.950 . S
C2582 C2591 1.390 . S
C2583 C2582 1.387 . S
C2583 C2585 1.387 . S
H2584 C2591 0.950 . S
C2585 C2583 1.387 . S
C2585 C2587 1.390 . S
C2585 H2589 0.950 . S
H2586 C2582 0.950 . S
C2587 C2585 1.390 . S
C2587 C2588 1.387 . S
C2587 H2590 0.950 . S
C2588 C2587 1.387 . S
C2588 C2591 1.387 . S
H2589 C2585 0.950 . S
H2590 C2587 0.950 . S
C2591 C2582 1.390 . S
C2591 H2584 0.950 . S
C2591 C2588 1.387 . S
C2592 C2593 1.387 . S
C2592 H2596 0.950 . S
C2592 C2601 1.390 . S
C2593 C2592 1.387 . S
C2593 C2595 1.387 . S
H2594 C2601 0.950 . S
C2595 C2593 1.387 . S
C2595 C2597 1.390 . S
C2595 H2599 0.950 . S
H2596 C2592 0.950 . S
C2597 C2595 1.390 . S
C2597 C2598 1.387 . S
C2597 H2600 0.950 . S
C2598 C2597 1.387 . S
C2598 C2601 1.387 . S
H2599 C2595 0.950 . S
H2600 C2597 0.950 . S
C2601 C2592 1.390 . S
C2601 H2594 0.950 . S
C2601 C2598 1.387 . S
C2602 C2603 1.387 . S
C2602 H2606 0.950 . S
C2602 C2611 1.390 . S
C2603 C2602 1.387 . S
C2603 C2605 1.387 . S
H2604 C2611 0.950 . S
C2605 C2603 1.387 . S
C2605 C2607 1.390 . S
C2605 H2609 0.950 . S
H2606 C2602 0.950 . S
C2607 C2605 1.390 . S
C2607 C2608 1.387 . S
C2607 H2610 0.950 . S
C2608 C2607 1.387 . S
C2608 C2611 1.387 . S
H2609 C2605 0.950 . S
H2610 C2607 0.950 . S
C2611 C2602 1.390 . S
C2611 H2604 0.950 . S
C2611 C2608 1.387 . S
C2612 C2613 1.387 . S
C2612 H2616 0.950 . S
C2612 C2621 1.390 . S
C2613 C2612 1.387 . S
C2613 C2615 1.387 . S
H2614 C2621 0.950 . S
C2615 C2613 1.387 . S
C2615 C2617 1.390 . S
C2615 H2619 0.950 . S
H2616 C2612 0.950 . S
C2617 C2615 1.390 . S
C2617 C2618 1.387 . S
C2617 H2620 0.950 . S
C2618 C2617 1.387 . S
C2618 C2621 1.387 . S
H2619 C2615 0.950 . S
H2620 C2617 0.950 . S
C2621 C2612 1.390 . S
C2621 H2614 0.950 . S
C2621 C2618 1.387 . S
C2622 C2623 1.387 . S
C2622 H2626 0.950 . S
C2622 C2631 1.390 . S
C2623 C2622 1.387 . S
C2623 C2625 1.387 . S
H2624 C2631 0.950 . S
C2625 C2623 1.387 . S
C2625 C2627 1.390 . S
C2625 H2629 0.950 . S
H2626 C2622 0.950 . S
C2627 C2625 1.390 . S
C2627 C2628 1.387 . S
C2627 H2630 0.950 . S
C2628 C2627 1.387 . S
C2628 C2631 1.387 . S
H2629 C2625 0.950 . S
H2630 C2627 0.950 . S
C2631 C2622 1.390 . S
C2631 H2624 0.950 . S
C2631 C2628 1.387 . S
C2632 C2633 1.387 . S
C2632 H2636 0.950 . S
C2632 C2641 1.390 . S
C2633 C2632 1.387 . S
C2633 C2635 1.387 . S
H2634 C2641 0.950 . S
C2635 C2633 1.387 . S
C2635 C2637 1.390 . S
C2635 H2639 0.950 . S
H2636 C2632 0.950 . S
C2637 C2635 1.390 . S
C2637 C2638 1.387 . S
C2637 H2640 0.950 . S
C2638 C2637 1.387 . S
C2638 C2641 1.387 . S
H2639 C2635 0.950 . S
H2640 C2637 0.950 . S
C2641 C2632 1.390 . S
C2641 H2634 0.950 . S
C2641 C2638 1.387 . S
C2642 C2643 1.387 . S
C2642 H2646 0.950 . S
C2642 C2651 1.390 . S
C2643 C2642 1.387 . S
C2643 C2645 1.387 . S
H2644 C2651 0.950 . S
C2645 C2643 1.387 . S
C2645 C2647 1.390 . S
C2645 H2649 0.950 . S
H2646 C2642 0.950 . S
C2647 C2645 1.390 . S
C2647 C2648 1.387 . S
C2647 H2650 0.950 . S
C2648 C2647 1.387 . S
C2648 C2651 1.387 . S
H2649 C2645 0.950 . S
H2650 C2647 0.950 . S
C2651 C2642 1.390 . S
C2651 H2644 0.950 . S
C2651 C2648 1.387 . S
C2652 C2653 1.387 . S
C2652 H2656 0.950 . S
C2652 C2661 1.390 . S
C2653 C2652 1.387 . S
C2653 C2655 1.387 . S
H2654 C2661 0.950 . S
C2655 C2653 1.387 . S
C2655 C2657 1.390 . S
C2655 H2659 0.950 . S
H2656 C2652 0.950 . S
C2657 C2655 1.390 . S
C2657 C2658 1.387 . S
C2657 H2660 0.950 . S
C2658 C2657 1.387 . S
C2658 C2661 1.387 . S
H2659 C2655 0.950 . S
H2660 C2657 0.950 . S
C2661 C2652 1.390 . S
C2661 H2654 0.950 . S
C2661 C2658 1.387 . S
C2662 C2663 1.387 . S
C2662 H2666 0.950 . S
C2662 C2671 1.390 . S
C2663 C2662 1.387 . S
C2663 C2665 1.387 . S
H2664 C2671 0.950 . S
C2665 C2663 1.387 . S
C2665 C2667 1.390 . S
C2665 H2669 0.950 . S
H2666 C2662 0.950 . S
C2667 C2665 1.390 . S
C2667 C2668 1.387 . S
C2667 H2670 0.950 . S
C2668 C2667 1.387 . S
C2668 C2671 1.387 . S
H2669 C2665 0.950 . S
H2670 C2667 0.950 . S
C2671 C2662 1.390 . S
C2671 H2664 0.950 . S
C2671 C2668 1.387 . S
C2672 C2673 1.387 . S
C2672 H2676 0.950 . S
C2672 C2681 1.390 . S
C2673 C2672 1.387 . S
C2673 C2675 1.387 . S
H2674 C2681 0.950 . S
C2675 C2673 1.387 . S
C2675 C2677 1.390 . S
C2675 H2679 0.950 . S
H2676 C2672 0.950 . S
C2677 C2675 1.390 . S
C2677 C2678 1.387 . S
C2677 H2680 0.950 . S
C2678 C2677 1.387 . S
C2678 C2681 1.387 . S
H2679 C2675 0.950 . S
H2680 C2677 0.950 . S
C2681 C2672 1.390 . S
C2681 H2674 0.950 . S
C2681 C2678 1.387 . S
C2682 C2683 1.387 . S
C2682 H2686 0.950 . S
C2682 C2691 1.390 . S
C2683 C2682 1.387 . S
C2683 C2685 1.387 . S
H2684 C2691 0.950 . S
C2685 C2683 1.387 . S
C2685 C2687 1.390 . S
C2685 H2689 0.950 . S
H2686 C2682 0.950 . S
C2687 C2685 1.390 . S
C2687 C2688 1.387 . S
C2687 H2690 0.950 . S
C2688 C2687 1.387 . S
C2688 C2691 1.387 . S
H2689 C2685 0.950 . S
H2690 C2687 0.950 . S
C2691 C2682 1.390 . S
C2691 H2684 0.950 . S
C2691 C2688 1.387 . S
C2692 C2693 1.387 . S
C2692 H2696 0.950 . S
C2692 C2701 1.390 . S
C2693 C2692 1.387 . S
C2693 C2695 1.387 . S
H2694 C2701 0.950 . S
C2695 C2693 1.387 . S
C2695 C2697 1.390 . S
C2695 H2699 0.950 . S
H2696 C2692 0.950 . S
C2697 C2695 1.390 . S
C2697 C2698 1.387 . S
C2697 H2700 0.950 . S
C2698 C2697 1.387 . S
C2698 C2701 1.387 . S
H2699 C2695 0.950 . S
H2700 C2697 0.950 . S
C2701 C2692 1.390 . S
C2701 H2694 0.950 . S
C2701 C2698 1.387 . S
C2702 C2703 1.387 . S
C2702 H2706 0.950 . S
C2702 C2711 1.390 . S
C2703 C2702 1.387 . S
C2703 C2705 1.387 . S
H2704 C2711 0.950 . S
C2705 C2703 1.387 . S
C2705 C2707 1.390 . S
C2705 H2709 0.950 . S
H2706 C2702 0.950 . S
C2707 C2705 1.390 . S
C2707 C2708 1.387 . S
C2707 H2710 0.950 . S
C2708 C2707 1.387 . S
C2708 C2711 1.387 . S
H2709 C2705 0.950 . S
H2710 C2707 0.950 . S
C2711 C2702 1.390 . S
C2711 H2704 0.950 . S
C2711 C2708 1.387 . S
C2712 C2713 1.387 . S
C2712 H2716 0.950 . S
C2712 C2721 1.390 . S
C2713 C2712 1.387 . S
C2713 C2715 1.387 . S
H2714 C2721 0.950 . S
C2715 C2713 1.387 . S
C2715 C2717 1.390 . S
C2715 H2719 0.950 . S
H2716 C2712 0.950 . S
C2717 C2715 1.390 . S
C2717 C2718 1.387 . S
C2717 H2720 0.950 . S
C2718 C2717 1.387 . S
C2718 C2721 1.387 . S
H2719 C2715 0.950 . S
H2720 C2717 0.950 . S
C2721 C2712 1.390 . S
C2721 H2714 0.950 . S
C2721 C2718 1.387 . S
C2722 C2723 1.387 . S
C2722 H2726 0.950 . S
C2722 C2731 1.390 . S
C2723 C2722 1.387 . S
C2723 C2725 1.387 . S
H2724 C2731 0.950 . S
C2725 C2723 1.387 . S
C2725 C2727 1.390 . S
C2725 H2729 0.950 . S
H2726 C2722 0.950 . S
C2727 C2725 1.390 . S
C2727 C2728 1.387 . S
C2727 H2730 0.950 . S
C2728 C2727 1.387 . S
C2728 C2731 1.387 . S
H2729 C2725 0.950 . S
H2730 C2727 0.950 . S
C2731 C2722 1.390 . S
C2731 H2724 0.950 . S
C2731 C2728 1.387 . S
C2732 C2733 1.387 . S
C2732 H2736 0.950 . S
C2732 C2741 1.390 . S
C2733 C2732 1.387 . S
C2733 C2735 1.387 . S
H2734 C2741 0.950 . S
C2735 C2733 1.387 . S
C2735 C2737 1.390 . S
C2735 H2739 0.950 . S
H2736 C2732 0.950 . S
C2737 C2735 1.390 . S
C2737 C2738 1.387 . S
C2737 H2740 0.950 . S
C2738 C2737 1.387 . S
C2738 C2741 1.387 . S
H2739 C2735 0.950 . S
H2740 C2737 0.950 . S
C2741 C2732 1.390 . S
C2741 H2734 0.950 . S
C2741 C2738 1.387 . S
C2742 C2743 1.387 . S
C2742 H2746 0.950 . S
C2742 C2751 1.390 . S
C2743 C2742 1.387 . S
C2743 C2745 1.387 . S
H2744 C2751 0.950 . S
C2745 C2743 1.387 . S
C2745 C2747 1.390 . S
C2745 H2749 0.950 . S
H2746 C2742 0.950 . S
C2747 C2745 1.390 . S
C2747 C2748 1.387 . S
C2747 H2750 0.950 . S
C2748 C2747 1.387 . S
C2748 C2751 1.387 . S
H2749 C2745 0.950 . S
H2750 C2747 0.950 . S
C2751 C2742 1.390 . S
C2751 H2744 0.950 . S
C2751 C2748 1.387 . S
C2752 C2753 1.387 . S
C2752 H2756 0.950 . S
C2752 C2761 1.390 . S
C2753 C2752 1.387 . S
C2753 C2755 1.387 . S
H2754 C2761 0.950 . S
C2755 C2753 1.387 . S
C2755 C2757 1.390 . S
C2755 H2759 0.950 . S
H2756 C2752 0.950 . S
C2757 C2755 1.390 . S
C2757 C2758 1.387 . S
C2757 H2760 0.950 . S
C2758 C2757 1.387 . S
C2758 C2761 1.387 . S
H2759 C2755 0.950 . S
H2760 C2757 0.950 . S
C2761 C2752 1.390 . S
C2761 H2754 0.950 . S
C2761 C2758 1.387 . S
C2762 C2763 1.387 . S
C2762 H2766 0.950 . S
C2762 C2771 1.390 . S
C2763 C2762 1.387 . S
C2763 C2765 1.387 . S
H2764 C2771 0.950 . S
C2765 C2763 1.387 . S
C2765 C2767 1.390 . S
C2765 H2769 0.950 . S
H2766 C2762 0.950 . S
C2767 C2765 1.390 . S
C2767 C2768 1.387 . S
C2767 H2770 0.950 . S
C2768 C2767 1.387 . S
C2768 C2771 1.387 . S
H2769 C2765 0.950 . S
H2770 C2767 0.950 . S
C2771 C2762 1.390 . S
C2771 H2764 0.950 . S
C2771 C2768 1.387 . S
C2772 C2773 1.387 . S
C2772 H2776 0.950 . S
C2772 C2781 1.390 . S
C2773 C2772 1.387 . S
C2773 C2775 1.387 . S
H2774 C2781 0.950 . S
C2775 C2773 1.387 . S
C2775 C2777 1.390 . S
C2775 H2779 0.950 . S
H2776 C2772 0.950 . S
C2777 C2775 1.390 . S
C2777 C2778 1.387 . S
C2777 H2780 0.950 . S
C2778 C2777 1.387 . S
C2778 C2781 1.387 . S
H2779 C2775 0.950 . S
H2780 C2777 0.950 . S
C2781 C2772 1.390 . S
C2781 H2774 0.950 . S
C2781 C2778 1.387 . S
C2782 C2783 1.387 . S
C2782 H2786 0.950 . S
C2782 C2791 1.390 . S
C2783 C2782 1.387 . S
C2783 C2785 1.387 . S
H2784 C2791 0.950 . S
C2785 C2783 1.387 . S
C2785 C2787 1.390 . S
C2785 H2789 0.950 . S
H2786 C2782 0.950 . S
C2787 C2785 1.390 . S
C2787 C2788 1.387 . S
C2787 H2790 0.950 . S
C2788 C2787 1.387 . S
C2788 C2791 1.387 . S
H2789 C2785 0.950 . S
H2790 C2787 0.950 . S
C2791 C2782 1.390 . S
C2791 H2784 0.950 . S
C2791 C2788 1.387 . S
C2792 C2793 1.387 . S
C2792 H2796 0.950 . S
C2792 C2801 1.390 . S
C2793 C2792 1.387 . S
C2793 C2795 1.387 . S
H2794 C2801 0.950 . S
C2795 C2793 1.387 . S
C2795 C2797 1.390 . S
C2795 H2799 0.950 . S
H2796 C2792 0.950 . S
C2797 C2795 1.390 . S
C2797 C2798 1.387 . S
C2797 H2800 0.950 . S
C2798 C2797 1.387 . S
C2798 C2801 1.387 . S
H2799 C2795 0.950 . S
H2800 C2797 0.950 . S
C2801 C2792 1.390 . S
C2801 H2794 0.950 . S
C2801 C2798 1.387 . S
C2802 C2803 1.387 . S
C2802 H2806 0.950 . S
C2802 C2811 1.390 . S
C2803 C2802 1.387 . S
C2803 C2805 1.387 . S
H2804 C2811 0.950 . S
C2805 C2803 1.387 . S
C2805 C2807 1.390 . S
C2805 H2809 0.950 . S
H2806 C2802 0.950 . S
C2807 C2805 1.390 . S
C2807 C2808 1.387 . S
C2807 H2810 0.950 . S
C2808 C2807 1.387 . S
C2808 C2811 1.387 . S
H2809 C2805 0.950 . S
H2810 C2807 0.950 . S
C2811 C2802 1.390 . S
C2811 H2804 0.950 . S
C2811 C2808 1.387 . S
C2812 C2813 1.387 . S
C2812 H2816 0.950 . S
C2812 C2821 1.390 . S
C2813 C2812 1.387 . S
C2813 C2815 1.387 . S
H2814 C2821 0.950 . S
C2815 C2813 1.387 . S
C2815 C2817 1.390 . S
C2815 H2819 0.950 . S
H2816 C2812 0.950 . S
C2817 C2815 1.390 . S
C2817 C2818 1.387 . S
C2817 H2820 0.950 . S
C2818 C2817 1.387 . S
C2818 C2821 1.387 . S
H2819 C2815 0.950 . S
H2820 C2817 0.950 . S
C2821 C2812 1.390 . S
C2821 H2814 0.950 . S
C2821 C2818 1.387 . S
C2822 C2823 1.387 . S
C2822 H2826 0.950 . S
C2822 C2831 1.390 . S
C2823 C2822 1.387 . S
C2823 C2825 1.387 . S
H2824 C2831 0.950 . S
C2825 C2823 1.387 . S
C2825 C2827 1.390 . S
C2825 H2829 0.950 . S
H2826 C2822 0.950 . S
C2827 C2825 1.390 . S
C2827 C2828 1.387 . S
C2827 H2830 0.950 . S
C2828 C2827 1.387 . S
C2828 C2831 1.387 . S
H2829 C2825 0.950 . S
H2830 C2827 0.950 . S
C2831 C2822 1.390 . S
C2831 H2824 0.950 . S
C2831 C2828 1.387 . S
C2832 C2833 1.387 . S
C2832 H2836 0.950 . S
C2832 C2841 1.390 . S
C2833 C2832 1.387 . S
C2833 C2835 1.387 . S
H2834 C2841 0.950 . S
C2835 C2833 1.387 . S
C2835 C2837 1.390 . S
C2835 H2839 0.950 . S
H2836 C2832 0.950 . S
C2837 C2835 1.390 . S
C2837 C2838 1.387 . S
C2837 H2840 0.950 . S
C2838 C2837 1.387 . S
C2838 C2841 1.387 . S
H2839 C2835 0.950 . S
H2840 C2837 0.950 . S
C2841 C2832 1.390 . S
C2841 H2834 0.950 . S
C2841 C2838 1.387 . S
C2842 C2843 1.387 . S
C2842 H2846 0.950 . S
C2842 C2851 1.390 . S
C2843 C2842 1.387 . S
C2843 C2845 1.387 . S
H2844 C2851 0.950 . S
C2845 C2843 1.387 . S
C2845 C2847 1.390 . S
C2845 H2849 0.950 . S
H2846 C2842 0.950 . S
C2847 C2845 1.390 . S
C2847 C2848 1.387 . S
C2847 H2850 0.950 . S
C2848 C2847 1.387 . S
C2848 C2851 1.387 . S
H2849 C2845 0.950 . S
H2850 C2847 0.950 . S
C2851 C2842 1.390 . S
C2851 H2844 0.950 . S
C2851 C2848 1.387 . S
C2852 C2853 1.387 . S
C2852 H2856 0.950 . S
C2852 C2861 1.390 . S
C2853 C2852 1.387 . S
C2853 C2855 1.387 . S
H2854 C2861 0.950 . S
C2855 C2853 1.387 . S
C2855 C2857 1.390 . S
C2855 H2859 0.950 . S
H2856 C2852 0.950 . S
C2857 C2855 1.390 . S
C2857 C2858 1.387 . S
C2857 H2860 0.950 . S
C2858 C2857 1.387 . S
C2858 C2861 1.387 . S
H2859 C2855 0.950 . S
H2860 C2857 0.950 . S
C2861 C2852 1.390 . S
C2861 H2854 0.950 . S
C2861 C2858 1.387 . S
C2862 C2863 1.387 . S
C2862 H2866 0.950 . S
C2862 C2871 1.390 . S
C2863 C2862 1.387 . S
C2863 C2865 1.387 . S
H2864 C2871 0.950 . S
C2865 C2863 1.387 . S
C2865 C2867 1.390 . S
C2865 H2869 0.950 . S
H2866 C2862 0.950 . S
C2867 C2865 1.390 . S
C2867 C2868 1.387 . S
C2867 H2870 0.950 . S
C2868 C2867 1.387 . S
C2868 C2871 1.387 . S
H2869 C2865 0.950 . S
H2870 C2867 0.950 . S
C2871 C2862 1.390 . S
C2871 H2864 0.950 . S
C2871 C2868 1.387 . S
C2872 C2873 1.387 . S
C2872 H2876 0.950 . S
C2872 C2881 1.390 . S
C2873 C2872 1.387 . S
C2873 C2875 1.387 . S
H2874 C2881 0.950 . S
C2875 C2873 1.387 . S
C2875 C2877 1.390 . S
C2875 H2879 0.950 . S
H2876 C2872 0.950 . S
C2877 C2875 1.390 . S
C2877 C2878 1.387 . S
C2877 H2880 0.950 . S
C2878 C2877 1.387 . S
C2878 C2881 1.387 . S
H2879 C2875 0.950 . S
H2880 C2877 0.950 . S
C2881 C2872 1.390 . S
C2881 H2874 0.950 . S
C2881 C2878 1.387 . S
C2882 C2883 1.387 . S
C2882 H2886 0.950 . S
C2882 C2891 1.390 . S
C2883 C2882 1.387 . S
C2883 C2885 1.387 . S
H2884 C2891 0.950 . S
C2885 C2883 1.387 . S
C2885 C2887 1.390 . S
C2885 H2889 0.950 . S
H2886 C2882 0.950 . S
C2887 C2885 1.390 . S
C2887 C2888 1.387 . S
C2887 H2890 0.950 . S
C2888 C2887 1.387 . S
C2888 C2891 1.387 . S
H2889 C2885 0.950 . S
H2890 C2887 0.950 . S
C2891 C2882 1.390 . S
C2891 H2884 0.950 . S
C2891 C2888 1.387 . S
C2892 C2893 1.387 . S
C2892 H2896 0.950 . S
C2892 C2901 1.390 . S
C2893 C2892 1.387 . S
C2893 C2895 1.387 . S
H2894 C2901 0.950 . S
C2895 C2893 1.387 . S
C2895 C2897 1.390 . S
C2895 H2899 0.950 . S
H2896 C2892 0.950 . S
C2897 C2895 1.390 . S
C2897 C2898 1.387 . S
C2897 H2900 0.950 . S
C2898 C2897 1.387 . S
C2898 C2901 1.387 . S
H2899 C2895 0.950 . S
H2900 C2897 0.950 . S
C2901 C2892 1.390 . S
C2901 H2894 0.950 . S
C2901 C2898 1.387 . S
C2902 C2903 1.387 . S
C2902 H2906 0.950 . S
C2902 C2911 1.390 . S
C2903 C2902 1.387 . S
C2903 C2905 1.387 . S
H2904 C2911 0.950 . S
C2905 C2903 1.387 . S
C2905 C2907 1.390 . S
C2905 H2909 0.950 . S
H2906 C2902 0.950 . S
C2907 C2905 1.390 . S
C2907 C2908 1.387 . S
C2907 H2910 0.950 . S
C2908 C2907 1.387 . S
C2908 C2911 1.387 . S
H2909 C2905 0.950 . S
H2910 C2907 0.950 . S
C2911 C2902 1.390 . S
C2911 H2904 0.950 . S
C2911 C2908 1.387 . S
C2912 C2913 1.387 . S
C2912 H2916 0.950 . S
C2912 C2921 1.390 . S
C2913 C2912 1.387 . S
C2913 C2915 1.387 . S
H2914 C2921 0.950 . S
C2915 C2913 1.387 . S
C2915 C2917 1.390 . S
C2915 H2919 0.950 . S
H2916 C2912 0.950 . S
C2917 C2915 1.390 . S
C2917 C2918 1.387 . S
C2917 H2920 0.950 . S
C2918 C2917 1.387 . S
C2918 C2921 1.387 . S
H2919 C2915 0.950 . S
H2920 C2917 0.950 . S
C2921 C2912 1.390 . S
C2921 H2914 0.950 . S
C2921 C2918 1.387 . S
C2922 C2923 1.387 . S
C2922 H2926 0.950 . S
C2922 C2931 1.390 . S
C2923 C2922 1.387 . S
C2923 C2925 1.387 . S
H2924 C2931 0.948 1_655 S
C2925 C2923 1.387 . S
C2925 C2927 1.390 . S
C2925 H2929 0.950 . S
H2926 C2922 0.950 . S
C2927 C2925 1.390 . S
C2927 C2928 1.387 . S
C2927 H2930 0.950 . S
C2928 C2927 1.387 . S
C2928 C2931 1.387 . S
H2929 C2925 0.950 . S
H2930 C2927 0.950 . S
C2931 C2922 1.390 . S
C2931 H2924 0.948 1_455 S
C2931 C2928 1.387 . S
C2932 C2933 1.387 . S
C2932 H2936 0.950 . S
C2932 C2941 1.390 . S
C2933 C2932 1.387 . S
C2933 C2935 1.387 . S
H2934 C2941 0.950 . S
C2935 C2933 1.387 . S
C2935 C2937 1.390 . S
C2935 H2939 0.950 . S
H2936 C2932 0.950 . S
C2937 C2935 1.390 . S
C2937 C2938 1.387 . S
C2937 H2940 0.950 . S
C2938 C2937 1.387 . S
C2938 C2941 1.387 . S
H2939 C2935 0.950 . S
H2940 C2937 0.950 . S
C2941 C2932 1.390 . S
C2941 H2934 0.950 . S
C2941 C2938 1.387 . S
C2942 C2943 1.387 . S
C2942 H2946 0.950 . S
C2942 C2951 1.390 . S
C2943 C2942 1.387 . S
C2943 C2945 1.387 1_565 S
H2944 C2951 0.950 . S
C2945 C2943 1.387 1_545 S
C2945 C2947 1.390 . S
C2945 H2949 0.950 . S
H2946 C2942 0.950 . S
C2947 C2945 1.390 . S
C2947 C2948 1.387 1_545 S
C2947 H2950 0.950 . S
C2948 C2947 1.387 1_565 S
C2948 C2951 1.387 . S
H2949 C2945 0.950 . S
H2950 C2947 0.950 . S
C2951 C2942 1.390 . S
C2951 H2944 0.950 . S
C2951 C2948 1.387 . S
C2952 C2953 1.387 . S
C2952 H2956 0.950 . S
C2952 C2961 1.390 . S
C2953 C2952 1.387 . S
C2953 C2955 1.387 1_565 S
H2954 C2961 0.950 . S
C2955 C2953 1.387 1_545 S
C2955 C2957 1.390 . S
C2955 H2959 0.950 . S
H2956 C2952 0.950 . S
C2957 C2955 1.390 . S
C2957 C2958 1.387 1_545 S
C2957 H2960 0.950 . S
C2958 C2957 1.387 1_565 S
C2958 C2961 1.387 . S
H2959 C2955 0.950 . S
H2960 C2957 0.950 . S
C2961 C2952 1.390 . S
C2961 H2954 0.950 . S
C2961 C2958 1.387 . S
C2962 C2963 1.387 . S
C2962 H2966 0.950 . S
C2962 C2971 1.390 . S
C2963 C2962 1.387 . S
C2963 C2965 1.387 1_455 S
H2964 C2971 0.950 . S
C2965 C2963 1.387 1_655 S
C2965 C2967 1.390 . S
C2965 H2969 0.950 . S
H2966 C2962 0.950 . S
C2967 C2965 1.390 . S
C2967 C2968 1.387 1_655 S
C2967 H2970 0.950 . S
C2968 C2967 1.387 1_455 S
C2968 C2971 1.387 . S
H2969 C2965 0.950 . S
H2970 C2967 0.950 . S
C2971 C2962 1.390 . S
C2971 H2964 0.950 . S
C2971 C2968 1.387 . S
C2972 C2973 1.387 . S
C2972 H2976 0.950 . S
C2972 C2981 1.390 . S
C2973 C2972 1.387 . S
C2973 C2975 1.387 . S
H2974 C2981 0.950 . S
C2975 C2973 1.387 . S
C2975 C2977 1.390 . S
C2975 H2979 0.950 . S
H2976 C2972 0.950 . S
C2977 C2975 1.390 . S
C2977 C2978 1.387 . S
C2977 H2980 0.950 . S
C2978 C2977 1.387 . S
C2978 C2981 1.387 . S
H2979 C2975 0.950 . S
H2980 C2977 0.950 . S
C2981 C2972 1.390 . S
C2981 H2974 0.950 . S
C2981 C2978 1.387 . S
C2982 C2983 1.387 . S
C2982 H2986 0.950 . S
C2982 C2991 1.390 . S
C2983 C2982 1.387 . S
C2983 C2985 1.387 . S
H2984 C2991 0.950 . S
C2985 C2983 1.387 . S
C2985 C2987 1.390 . S
C2985 H2989 0.950 . S
H2986 C2982 0.950 . S
C2987 C2985 1.390 . S
C2987 C2988 1.387 . S
C2987 H2990 0.950 . S
C2988 C2987 1.387 . S
C2988 C2991 1.387 . S
H2989 C2985 0.950 . S
H2990 C2987 0.950 . S
C2991 C2982 1.390 . S
C2991 H2984 0.950 . S
C2991 C2988 1.387 . S
C2992 C2993 1.387 . S
C2992 H2996 0.950 . S
C2992 C3001 1.390 . S
C2993 C2992 1.387 . S
C2993 C2995 1.387 . S
H2994 C3001 0.950 . S
C2995 C2993 1.387 . S
C2995 C2997 1.390 . S
C2995 H2999 0.950 . S
H2996 C2992 0.950 . S
C2997 C2995 1.390 . S
C2997 C2998 1.387 . S
C2997 H3000 0.950 . S
C2998 C2997 1.387 . S
C2998 C3001 1.387 . S
H2999 C2995 0.950 . S
H3000 C2997 0.950 . S
C3001 C2992 1.390 . S
C3001 H2994 0.950 . S
C3001 C2998 1.387 . S
C3002 C3003 1.387 . S
C3002 H3006 0.950 . S
C3002 C3011 1.390 . S
C3003 C3002 1.387 . S
C3003 C3005 1.387 . S
H3004 C3011 0.950 . S
C3005 C3003 1.387 . S
C3005 C3007 1.390 . S
C3005 H3009 0.950 . S
H3006 C3002 0.950 . S
C3007 C3005 1.390 . S
C3007 C3008 1.387 . S
C3007 H3010 0.950 . S
C3008 C3007 1.387 . S
C3008 C3011 1.387 . S
H3009 C3005 0.950 . S
H3010 C3007 0.950 . S
C3011 C3002 1.390 . S
C3011 H3004 0.950 . S
C3011 C3008 1.387 . S
C3012 C3013 1.387 1_565 S
C3012 H3016 0.950 . S
C3012 C3021 1.390 . S
C3013 C3012 1.387 1_545 S
C3013 C3015 1.387 . S
H3014 C3021 0.950 . S
C3015 C3013 1.387 . S
C3015 C3017 1.390 . S
C3015 H3019 0.950 . S
H3016 C3012 0.950 . S
C3017 C3015 1.390 . S
C3017 C3018 1.387 . S
C3017 H3020 0.950 . S
C3018 C3017 1.387 . S
C3018 C3021 1.387 1_545 S
H3019 C3015 0.950 . S
H3020 C3017 0.950 . S
C3021 C3012 1.390 . S
C3021 H3014 0.950 . S
C3021 C3018 1.387 1_565 S
C3022 C3023 1.387 . S
C3022 H3026 0.950 . S
C3022 C3031 1.390 . S
C3023 C3022 1.387 . S
C3023 C3025 1.387 1_655 S
H3024 C3031 0.950 . S
C3025 C3023 1.387 1_455 S
C3025 C3027 1.390 . S
C3025 H3029 0.950 . S
H3026 C3022 0.950 . S
C3027 C3025 1.390 . S
C3027 C3028 1.387 1_455 S
C3027 H3030 0.950 . S
C3028 C3027 1.387 1_655 S
C3028 C3031 1.387 . S
H3029 C3025 0.950 . S
H3030 C3027 0.950 . S
C3031 C3022 1.390 . S
C3031 H3024 0.950 . S
C3031 C3028 1.387 . S
C3032 C3033 1.387 . S
C3032 H3036 0.950 . S
C3032 C3041 1.390 . S
C3033 C3032 1.387 . S
C3033 C3035 1.387 . S
H3034 C3041 0.950 . S
C3035 C3033 1.387 . S
C3035 C3037 1.390 . S
C3035 H3039 0.950 . S
H3036 C3032 0.950 . S
C3037 C3035 1.390 . S
C3037 C3038 1.387 . S
C3037 H3040 0.950 . S
C3038 C3037 1.387 . S
C3038 C3041 1.387 . S
H3039 C3035 0.950 . S
H3040 C3037 0.950 . S
C3041 C3032 1.390 . S
C3041 H3034 0.950 . S
C3041 C3038 1.387 . S
C3042 C3043 1.387 . S
C3042 H3046 0.950 . S
C3042 C3051 1.390 . S
C3043 C3042 1.387 . S
C3043 C3045 1.387 . S
H3044 C3051 0.950 . S
C3045 C3043 1.387 . S
C3045 C3047 1.390 . S
C3045 H3049 0.950 . S
H3046 C3042 0.950 . S
C3047 C3045 1.390 . S
C3047 C3048 1.387 . S
C3047 H3050 0.950 . S
C3048 C3047 1.387 . S
C3048 C3051 1.387 . S
H3049 C3045 0.950 . S
H3050 C3047 0.950 . S
C3051 C3042 1.390 . S
C3051 H3044 0.950 . S
C3051 C3048 1.387 . S
C3052 C3053 1.387 . S
C3052 H3056 0.950 . S
C3052 C3061 1.390 . S
C3053 C3052 1.387 . S
C3053 C3055 1.387 . S
H3054 C3061 0.950 . S
C3055 C3053 1.387 . S
C3055 C3057 1.390 . S
C3055 H3059 0.950 . S
H3056 C3052 0.950 . S
C3057 C3055 1.390 . S
C3057 C3058 1.387 . S
C3057 H3060 0.950 . S
C3058 C3057 1.387 . S
C3058 C3061 1.387 . S
H3059 C3055 0.950 . S
H3060 C3057 0.950 . S
C3061 C3052 1.390 . S
C3061 H3054 0.950 . S
C3061 C3058 1.387 . S
C3062 C3063 1.387 . S
C3062 H3066 0.950 . S
C3062 C3071 1.390 . S
C3063 C3062 1.387 . S
C3063 C3065 1.387 . S
H3064 C3071 0.950 . S
C3065 C3063 1.387 . S
C3065 C3067 1.390 . S
C3065 H3069 0.950 . S
H3066 C3062 0.950 . S
C3067 C3065 1.390 . S
C3067 C3068 1.387 . S
C3067 H3070 0.950 . S
C3068 C3067 1.387 . S
C3068 C3071 1.387 . S
H3069 C3065 0.950 . S
H3070 C3067 0.950 . S
C3071 C3062 1.390 . S
C3071 H3064 0.950 . S
C3071 C3068 1.387 . S
C3072 C3073 1.387 . S
C3072 H3076 0.950 . S
C3072 C3081 1.390 . S
C3073 C3072 1.387 . S
C3073 C3075 1.387 . S
H3074 C3081 0.950 . S
C3075 C3073 1.387 . S
C3075 C3077 1.390 . S
C3075 H3079 0.950 . S
H3076 C3072 0.950 . S
C3077 C3075 1.390 . S
C3077 C3078 1.387 . S
C3077 H3080 0.950 . S
C3078 C3077 1.387 . S
C3078 C3081 1.387 . S
H3079 C3075 0.950 . S
H3080 C3077 0.950 . S
C3081 C3072 1.390 . S
C3081 H3074 0.950 . S
C3081 C3078 1.387 . S
C3082 C3083 1.387 . S
C3082 H3086 0.950 . S
C3082 C3091 1.390 . S
C3083 C3082 1.387 . S
C3083 C3085 1.387 . S
H3084 C3091 0.950 . S
C3085 C3083 1.387 . S
C3085 C3087 1.390 . S
C3085 H3089 0.950 . S
H3086 C3082 0.950 . S
C3087 C3085 1.390 . S
C3087 C3088 1.387 . S
C3087 H3090 0.950 . S
C3088 C3087 1.387 . S
C3088 C3091 1.387 . S
H3089 C3085 0.950 . S
H3090 C3087 0.950 . S
C3091 C3082 1.390 . S
C3091 H3084 0.950 . S
C3091 C3088 1.387 . S
C3092 C3093 1.387 . S
C3092 H3096 0.950 . S
C3092 C3101 1.390 . S
C3093 C3092 1.387 . S
C3093 C3095 1.387 . S
H3094 C3101 0.950 . S
C3095 C3093 1.387 . S
C3095 C3097 1.390 . S
C3095 H3099 0.950 . S
H3096 C3092 0.950 . S
C3097 C3095 1.390 . S
C3097 C3098 1.387 . S
C3097 H3100 0.950 . S
C3098 C3097 1.387 . S
C3098 C3101 1.387 . S
H3099 C3095 0.950 . S
H3100 C3097 0.950 . S
C3101 C3092 1.390 . S
C3101 H3094 0.950 . S
C3101 C3098 1.387 . S
C3102 C3103 1.387 . S
C3102 H3106 0.950 . S
C3102 C3111 1.390 . S
C3103 C3102 1.387 . S
C3103 C3105 1.387 . S
H3104 C3111 0.950 . S
C3105 C3103 1.387 . S
C3105 C3107 1.390 . S
C3105 H3109 0.950 . S
H3106 C3102 0.950 . S
C3107 C3105 1.390 . S
C3107 C3108 1.387 . S
C3107 H3110 0.950 . S
C3108 C3107 1.387 . S
C3108 C3111 1.387 . S
H3109 C3105 0.950 . S
H3110 C3107 0.950 . S
C3111 C3102 1.390 . S
C3111 H3104 0.950 . S
C3111 C3108 1.387 . S
C3112 C3113 1.387 . S
C3112 H3116 0.950 . S
C3112 C3121 1.390 . S
C3113 C3112 1.387 . S
C3113 C3115 1.387 . S
H3114 C3121 0.950 . S
C3115 C3113 1.387 . S
C3115 C3117 1.390 . S
C3115 H3119 0.950 . S
H3116 C3112 0.950 . S
C3117 C3115 1.390 . S
C3117 C3118 1.387 . S
C3117 H3120 0.950 . S
C3118 C3117 1.387 . S
C3118 C3121 1.387 . S
H3119 C3115 0.950 . S
H3120 C3117 0.950 . S
C3121 C3112 1.390 . S
C3121 H3114 0.950 . S
C3121 C3118 1.387 . S
C3122 C3123 1.387 . S
C3122 H3126 0.950 . S
C3122 C3131 1.390 . S
C3123 C3122 1.387 . S
C3123 C3125 1.387 1_545 S
H3124 C3131 0.950 . S
C3125 C3123 1.387 1_565 S
C3125 C3127 1.390 . S
C3125 H3129 0.950 . S
H3126 C3122 0.950 . S
C3127 C3125 1.390 . S
C3127 C3128 1.387 1_565 S
C3127 H3130 0.950 . S
C3128 C3127 1.387 1_545 S
C3128 C3131 1.387 . S
H3129 C3125 0.950 . S
H3130 C3127 0.950 . S
C3131 C3122 1.390 . S
C3131 H3124 0.950 . S
C3131 C3128 1.387 . S
C2413 C49 1.641 . S
C2418 C2020 1.722 . S
C2423 C137 1.630 . S
C2428 C2066 1.642 . S
C2438 C2098 1.735 . S
C2433 C205 1.665 . S
C2443 C196 1.641 . S
C2448 C2151 1.723 . S
C2453 C57 1.661 . S
C2458 C2197 1.754 . S
C2463 C145 1.628 . S
C2468 C2236 1.648 . S
C2473 C313 1.650 . S
C2478 C2190 1.733 . S
C2488 C2243 1.647 . S
C2483 C401 1.630 . S
C2498 C2144 1.741 . S
C2493 C489 1.660 . S
C2503 C469 1.652 . S
C2508 C2105 1.719 . S
C2518 C1999 1.740 . S
C2513 C293 1.657 . S
C2523 C381 1.631 . S
C2528 C2045 1.641 . S
C2533 C577 1.692 . S
C2538 C2275 1.701 . S
C2543 C645 1.670 . S
C2548 C2342 1.654 . S
C2558 C2388 1.627 . S
C2553 C733 1.635 . S
C2563 C724 1.612 . S
C2568 C1599 1.618 . S
C2573 C585 1.673 . S
C2578 C1645 1.679 . S
C2583 C636 1.679 . S
C2588 C1691 1.675 . S
C2593 C841 1.612 . S
C2598 C1638 1.615 . S
C2603 C937 1.683 . S
C2608 C1684 1.678 . S
C2618 C1592 1.680 . S
C2613 C1025 1.677 . S
C2628 C2367 1.696 . S
C2623 C988 1.698 . S
C2638 C2296 1.634 . S
C2633 C821 1.633 . S
C2648 C2321 1.656 . S
C2643 C900 1.674 . S
C2653 C1105 1.612 . S
C2658 C1723 1.626 . S
C2663 C1193 1.680 . S
C2668 C1776 1.684 . S
C2673 C1281 1.673 . S
C2678 C1822 1.687 . S
C2683 C1289 1.692 . S
C2688 C1868 1.702 . S
C2698 C1921 1.628 . S
C2693 C1113 1.634 . S
C2708 C1967 1.653 . S
C2703 C1201 1.670 . S
C2718 C1914 1.697 . S
C2713 C1369 1.698 . S
C2728 C1960 1.656 . S
C2723 C1457 1.674 . S
C2733 C1553 1.633 . S
C2738 C1875 1.634 . S
C2748 C1829 1.624 . S
C2743 C1516 1.613 . S
C2753 C1349 1.677 . S
C2758 C1744 1.688 . S
C2768 C1783 1.687 . S
C2763 C1437 1.682 . S
C2778 C1606 1.752 . S
C2773 C29 1.733 . S
C2783 C117 1.619 . S
C2788 C1652 1.601 . S
C2798 C1698 1.782 . S
C2793 C225 1.771 . S
C2808 C1730 1.722 . S
C2803 C233 1.731 . S
C2818 C1769 1.753 . S
C2813 C20 1.772 . S
C2828 C1815 1.576 . S
C2823 C108 1.622 . S
C2833 C321 1.736 . S
C2838 C1836 1.729 . S
C2843 C409 1.624 . S
C2848 C1737 1.576 . S
C2853 C497 1.779 . S
C2858 C1790 1.757 . S
C2863 C460 1.734 . S
C2868 C1631 1.754 . S
C2878 C1677 1.786 . S
C2873 C284 1.777 . S
C2883 C372 1.622 . S
C2888 C1585 1.601 . S
C2898 C1861 1.565 . S
C2893 C557 1.607 . S
C2903 C665 1.671 . S
C2908 C1928 1.644 . S
C2913 C753 1.673 . S
C2918 C1974 1.642 . S
C2928 C2013 1.239 . S
C2923 C761 1.232 . S
C2933 C548 1.595 . S
C2938 C2059 1.581 . S
C2943 C673 1.236 . S
C2948 C2091 1.238 . S
C2953 C849 1.231 . S
C2958 C2112 1.228 . S
C2963 C929 1.243 . S
C2968 C2006 1.249 . S
C2978 C2052 1.581 . S
C2973 C1017 1.599 . S
C2983 C997 1.619 . S
C2988 C1907 1.599 . S
C2993 C812 1.673 . S
C2998 C1953 1.641 . S
C3008 C1882 1.623 . S
C3003 C909 1.676 . S
C3018 C2158 1.239 . S
C3013 C1085 1.231 . S
C3023 C1173 1.236 . S
C3028 C2204 1.240 . S
C3033 C1261 1.592 . S
C3038 C2229 1.553 . S
C3048 C2282 1.563 . S
C3043 C1252 1.607 . S
C3058 C2335 1.643 . S
C3053 C1076 1.674 . S
C3063 C1164 1.671 . S
C3068 C2381 1.645 . S
C3073 C1377 1.618 . S
C3078 C2374 1.597 . S
C3083 C1465 1.674 . S
C3088 C2289 1.622 . S
C3098 C2328 1.641 . S
C3093 C1545 1.674 . S
C3108 C2183 1.235 . S
C3103 C1525 1.228 . S
C3118 C2250 1.560 . S
C3113 C1340 1.600 . S
C3123 C1428 1.243 . S
C3128 C2137 1.249 . S
