# Generated by pormake.
# Topology anh, (6,3)-cn, num edge types: 1
# Building blocks:
#     Node 0, Type 0, BuildingBlock: GEDQOX_clean_sbu_0, # of connection points: 6
#     Node 1, Type 0, BuildingBlock: GEDQOX_clean_sbu_0, # of connection points: 6
#     Node 2, Type 0, BuildingBlock: GEDQOX_clean_sbu_0, # of connection points: 6
#     Node 3, Type 1, BuildingBlock: BETDAH_clean_linker_0, # of connection points: 3
#     Node 4, Type 1, BuildingBlock: BETDAH_clean_linker_0, # of connection points: 3
#     Node 5, Type 1, BuildingBlock: BETDAH_clean_linker_0, # of connection points: 3
#     Node 6, Type 1, BuildingBlock: BETDAH_clean_linker_0, # of connection points: 3
#     Node 7, Type 1, BuildingBlock: BETDAH_clean_linker_0, # of connection points: 3
#     Node 8, Type 1, BuildingBlock: BETDAH_clean_linker_0, # of connection points: 3
#     Edge 9, Type (0, 1), BuildingBlock: TEMPAE_clean_linker_10, # of connection points: 2
#     Edge 10, Type (0, 1), BuildingBlock: TEMPAE_clean_linker_10, # of connection points: 2
#     Edge 11, Type (0, 1), BuildingBlock: TEMPAE_clean_linker_10, # of connection points: 2
#     Edge 12, Type (0, 1), BuildingBlock: TEMPAE_clean_linker_10, # of connection points: 2
#     Edge 13, Type (0, 1), BuildingBlock: TEMPAE_clean_linker_10, # of connection points: 2
#     Edge 14, Type (0, 1), BuildingBlock: TEMPAE_clean_linker_10, # of connection points: 2
#     Edge 15, Type (0, 1), BuildingBlock: TEMPAE_clean_linker_10, # of connection points: 2
#     Edge 16, Type (0, 1), BuildingBlock: TEMPAE_clean_linker_10, # of connection points: 2
#     Edge 17, Type (0, 1), BuildingBlock: TEMPAE_clean_linker_10, # of connection points: 2
#     Edge 18, Type (0, 1), BuildingBlock: TEMPAE_clean_linker_10, # of connection points: 2
#     Edge 19, Type (0, 1), BuildingBlock: TEMPAE_clean_linker_10, # of connection points: 2
#     Edge 20, Type (0, 1), BuildingBlock: TEMPAE_clean_linker_10, # of connection points: 2
#     Edge 21, Type (0, 1), BuildingBlock: TEMPAE_clean_linker_10, # of connection points: 2
#     Edge 22, Type (0, 1), BuildingBlock: TEMPAE_clean_linker_10, # of connection points: 2
#     Edge 23, Type (0, 1), BuildingBlock: TEMPAE_clean_linker_10, # of connection points: 2
#     Edge 24, Type (0, 1), BuildingBlock: TEMPAE_clean_linker_10, # of connection points: 2
#     Edge 25, Type (0, 1), BuildingBlock: TEMPAE_clean_linker_10, # of connection points: 2
#     Edge 26, Type (0, 1), BuildingBlock: TEMPAE_clean_linker_10, # of connection points: 2
# Relax obj value: 0.145
# Max RMSD: 0.185
# Mean RMSD: 0.109
data_MOF--net-anh--node1-GEDQOX_clean_sbu_0--node2-BETDAH_clean_linker_0--edge1-TEMPAE_clean_linker_10
_symmetry_space_group_name_H-M    P1
_symmetry_Int_Tables_number       1
_symmetry_cell_setting            triclinic
loop_
_symmetry_equiv_pos_as_xyz
'x, y, z'
_cell_length_a     32.237993
_cell_length_b     30.587136
_cell_length_c     49.954261
_cell_angle_alpha  95.76477
_cell_angle_beta   93.232626
_cell_angle_gamma 103.94227
loop_
_atom_site_label
_atom_site_type_symbol
_atom_site_fract_x
_atom_site_fract_y
_atom_site_fract_z
_atom_type_partial_charge
Nd0 Nd 0.0824 0.57522 0.14564 0.0
Nd1 Nd 0.06291 0.48146 0.15978 0.0
C2 C 0.11532 0.65483 0.12898 0.0
C3 C 0.15507 0.69032 0.13765 0.0
C4 C 0.17682 0.7167 0.11895 0.0
C5 C 0.21465 0.75025 0.12727 0.0
C6 C 0.23111 0.75818 0.15451 0.0
C7 C 0.20939 0.73134 0.17309 0.0
C8 C 0.17195 0.69761 0.16474 0.0
C9 C 0.07971 0.56815 0.19995 0.0
C10 C 0.166 0.5257 0.15259 0.0
C11 C 1.03501 0.40834 0.18443 0.0
C12 C 0.99423 0.37973 0.19141 0.0
C13 C 0.95726 0.39619 0.19302 0.0
C14 C 0.91883 0.3682 0.19956 0.0
C15 C 0.91666 0.32323 0.20461 0.0
C16 C 0.95393 0.3071 0.203 0.0
C17 C 0.99226 0.33507 0.19647 0.0
C18 C 0.07195 0.48511 0.10639 0.0
C19 C 0.97905 0.5289 0.14591 0.0
O20 O 0.12008 0.61662 0.11688 0.0
O21 O 0.08655 0.64863 0.14655 0.0
O22 O 0.06223 0.59545 0.18786 0.0
O23 O 0.09797 0.54655 0.18375 0.0
O24 O 0.15123 0.55961 0.14421 0.0
O25 O 0.13849 0.49195 0.16214 0.0
O26 O 1.04728 0.44952 0.19706 0.0
O27 O 1.04168 0.40658 0.15881 0.0
O28 O 0.08492 0.4565 0.12027 0.0
O29 O 1.05187 0.50914 0.1202 0.0
O30 O 0.99293 0.49603 0.15658 0.0
O31 O 1.00773 0.5622 0.13705 0.0
H32 H 0.16451 0.71139 0.09793 0.0
H33 H 0.23068 0.77046 0.11251 0.0
H34 H 0.22166 0.73608 0.1941 0.0
H35 H 0.15617 0.67719 0.1795 0.0
H36 H 0.95808 0.43062 0.18924 0.0
H37 H 0.89091 0.3819 0.20085 0.0
H38 H 0.95333 0.2725 0.20629 0.0
H39 H 1.0204 0.32171 0.19523 0.0
Nd40 Nd 0.53412 0.02522 0.53035 0.0
Nd41 Nd 0.63131 0.04863 0.5124 0.0
C42 C 0.46128 0.9943 0.55159 0.0
C43 C 0.42433 0.95565 0.54284 0.0
C44 C 0.40606 0.92693 0.56151 0.0
C45 C 0.37348 0.88785 0.55287 0.0
C46 C 0.35857 0.87713 0.52543 0.0
C47 C 0.37655 0.90638 0.50686 0.0
C48 C 0.40926 0.94511 0.51545 0.0
C49 C 0.54308 0.02486 0.47592 0.0
C50 C 0.58662 0.94354 0.52258 0.0
C51 C 0.69416 0.0689 0.48067 0.0
C52 C 0.73022 0.10664 0.47655 0.0
C53 C 0.74057 0.1133 0.45014 0.0
C54 C 0.773 0.15042 0.44536 0.0
C55 C 0.79573 0.1815 0.46696 0.0
C56 C 0.78551 0.17448 0.49348 0.0
C57 C 0.75284 0.13743 0.49824 0.0
C58 C 0.62977 0.06361 0.56788 0.0
C59 C 0.58333 0.13048 0.52894 0.0
O60 O 0.49684 0.98366 0.55894 0.0
O61 O 0.46734 0.02779 0.53665 0.0
O62 O 0.51124 0.03567 0.48738 0.0
O63 O 0.56623 0.01115 0.49267 0.0
O64 O 0.55254 0.95686 0.5305 0.0
O65 O 0.61952 0.97128 0.51321 0.0
O66 O 0.656 0.07553 0.47547 0.0
O67 O 0.69722 0.04808 0.5022 0.0
O68 O 0.66549 0.07104 0.55614 0.0
O69 O 0.59925 0.05068 0.55004 0.0
O70 O 0.61037 0.11606 0.51322 0.0
O71 O 0.55571 0.1024 0.54192 0.0
H72 H 0.41757 0.93427 0.58268 0.0
H73 H 0.36003 0.86596 0.56761 0.0
H74 H 0.36619 0.89859 0.48554 0.0
H75 H 0.42336 0.96625 0.50052 0.0
H76 H 0.72316 0.08999 0.43315 0.0
H77 H 0.7804 0.15472 0.42475 0.0
H78 H 0.80213 0.19819 0.5105 0.0
H79 H 0.74487 0.13321 0.51876 0.0
Nd80 Nd 0.54817 0.56576 0.82598 0.0
Nd81 Nd 0.6362 0.60099 0.85452 0.0
C82 C 0.48114 0.54942 0.79037 0.0
C83 C 0.46061 0.57337 0.77145 0.0
C84 C 0.45145 0.55524 0.74424 0.0
C85 C 0.42279 0.5704 0.72762 0.0
C86 C 0.40139 0.60246 0.7384 0.0
C87 C 0.41722 0.62624 0.76413 0.0
C88 C 0.44618 0.61145 0.7806 0.0
C89 C 0.55019 0.5645 0.88106 0.0
C90 C 0.58747 0.67543 0.84103 0.0
C91 C 0.70983 0.61794 0.88392 0.0
C92 C 0.74753 0.6006 0.87896 0.0
C93 C 0.74283 0.55973 0.86222 0.0
C94 C 0.77879 0.54577 0.85436 0.0
C95 C 0.8201 0.57266 0.86291 0.0
C96 C 0.82473 0.61335 0.87998 0.0
C97 C 0.7886 0.62727 0.88791 0.0
C98 C 0.63354 0.59556 0.79902 0.0
C99 C 0.59704 0.48937 0.83905 0.0
O100 O 0.51803 0.54223 0.78443 0.0
O101 O 0.47914 0.55998 0.81628 0.0
O102 O 0.52476 0.53356 0.86383 0.0
O103 O 0.57116 0.59641 0.86925 0.0
O104 O 0.56467 0.64294 0.82284 0.0
O105 O 0.61235 0.66567 0.86024 0.0
O106 O 0.67562 0.58819 0.88929 0.0
O107 O 0.70145 0.64421 0.86639 0.0
O108 O 0.65884 0.62858 0.81474 0.0
O109 O 0.61318 0.56668 0.81268 0.0
O110 O 0.62581 0.52271 0.85381 0.0
O111 O 0.5652 0.49756 0.82427 0.0
H112 H 0.46385 0.52701 0.73639 0.0
H113 H 0.41397 0.55331 0.70733 0.0
H114 H 0.40345 0.65244 0.77328 0.0
H115 H 0.45432 0.62748 0.80119 0.0
H116 H 0.71134 0.53904 0.85468 0.0
H117 H 0.77426 0.51391 0.84159 0.0
H118 H 0.85624 0.63489 0.8867 0.0
H119 H 0.7927 0.65935 0.90038 0.0
H120 H 0.48964 0.9679 0.27234 0.0
H121 H 0.60907 0.06716 0.26861 0.0
H122 H 0.52639 0.01198 0.19643 0.0
C123 C 0.51304 0.98804 0.26085 0.0
C124 C 0.5041 0.9854 0.23285 0.0
C125 C 0.55085 0.01714 0.27419 0.0
C126 C 0.57969 0.04477 0.25885 0.0
C127 C 0.5705 0.04319 0.23078 0.0
C128 C 0.53284 0.01355 0.21809 0.0
N129 N 0.59786 0.07065 0.21434 0.0
C130 C 0.63806 0.09944 0.22243 0.0
H131 H 0.60725 0.46442 0.60447 0.0
H132 H 0.5981 0.59432 0.58264 0.0
H133 H 0.58412 0.48158 0.52094 0.0
C134 C 0.60331 0.48582 0.58896 0.0
C135 C 0.59608 0.46706 0.56176 0.0
C136 C 0.6042 0.53154 0.59664 0.0
C137 C 0.59733 0.55906 0.57675 0.0
C138 C 0.59015 0.54108 0.54933 0.0
C139 C 0.58935 0.49514 0.54208 0.0
N140 N 0.58384 0.56793 0.52846 0.0
C141 C 0.58542 0.6142 0.53199 0.0
H142 H 1.03971 0.46492 0.89792 0.0
H143 H 0.17242 0.46314 0.90942 0.0
H144 H 0.11549 0.46766 0.82997 0.0
C145 C 0.06974 0.46317 0.88962 0.0
C146 C 0.07323 0.46442 0.86186 0.0
C147 C 0.10535 0.46335 0.90703 0.0
C148 C 0.14454 0.46315 0.89623 0.0
C149 C 0.1485 0.4648 0.86856 0.0
C150 C 0.11274 0.46577 0.85135 0.0
N151 N 0.18916 0.46704 0.85875 0.0
C152 C 0.20115 0.48636 0.83554 0.0
H153 H 0.15028 0.61671 0.4031 0.0
H154 H 1.05003 0.49521 0.40578 0.0
H155 H 0.12819 0.56083 0.47786 0.0
C156 C 0.13217 0.59093 0.4142 0.0
C157 C 0.14242 0.59364 0.44206 0.0
C158 C 0.09867 0.55582 0.40068 0.0
C159 C 0.07611 0.52229 0.41564 0.0
C160 C 0.0872 0.52411 0.44351 0.0
C161 C 0.12006 0.55971 0.4564 0.0
N162 N 0.06642 0.49103 0.45954 0.0
C163 C 1.03031 0.45613 0.45123 0.0
H164 H 0.61762 0.17574 0.76584 0.0
H165 H 0.60085 0.03606 0.77967 0.0
H166 H 0.61121 0.13934 0.84659 0.0
C167 C 0.61426 0.15011 0.77958 0.0
C168 C 0.61479 0.16337 0.80736 0.0
C169 C 0.60898 0.10439 0.7692 0.0
C170 C 0.60517 0.07139 0.78732 0.0
C171 C 0.6061 0.08403 0.81532 0.0
C172 C 0.61058 0.12986 0.82506 0.0
N173 N 0.60239 0.05195 0.83441 0.0
C174 C 0.59814 1.00541 0.82862 0.0
H175 H 0.65995 0.53061 0.07525 0.0
H176 H 0.53123 0.53233 0.09142 0.0
H177 H 0.62371 0.53072 0.15723 0.0
C178 C 0.63706 0.53163 0.09009 0.0
C179 C 0.64998 0.53203 0.11771 0.0
C180 C 0.59525 0.53281 0.08056 0.0
C181 C 0.56342 0.53226 0.09886 0.0
C182 C 0.57231 0.53089 0.12652 0.0
C183 C 0.61612 0.53097 0.13588 0.0
N184 N 0.53833 0.52975 0.14497 0.0
C185 C 0.49367 0.52972 0.14004 0.0
C186 C 0.24365 0.56193 0.14079 0.0
C187 C 0.21434 0.52604 0.15081 0.0
C188 C 0.28817 0.56289 0.13861 0.0
C189 C 0.30592 0.5271 0.14649 0.0
C190 C 0.27653 0.49077 0.15665 0.0
C191 C 0.23208 0.49065 0.15864 0.0
C192 C 0.31647 0.60281 0.12772 0.0
C193 C 0.29215 0.45147 0.16554 0.0
C194 C 0.41495 0.50992 0.1194 0.0
C195 C 0.44638 0.52982 0.14093 0.0
C196 C 0.37018 0.50888 0.12085 0.0
C197 C 0.35467 0.528 0.14447 0.0
C198 C 0.38648 0.54819 0.16619 0.0
C199 C 0.43095 0.54879 0.16419 0.0
C200 C 0.33915 0.48691 0.09685 0.0
C201 C 0.37348 0.56932 0.19193 0.0
H202 H 0.23175 0.58985 0.1345 0.0
H203 H 0.21104 0.46236 0.16639 0.0
H204 H 0.34339 0.61986 0.14293 0.0
H205 H 0.33067 0.59092 0.1095 0.0
H206 H 0.29871 0.62807 0.12235 0.0
H207 H 0.26618 0.42558 0.17284 0.0
H208 H 0.30577 0.43506 0.14851 0.0
H209 H 0.31824 0.46391 0.18198 0.0
H210 H 0.4253 0.49478 0.10123 0.0
H211 H 0.45392 0.56419 0.18122 0.0
H212 H 0.32238 0.51177 0.08965 0.0
H213 H 0.31432 0.45845 0.10283 0.0
H214 H 0.35531 0.47373 0.07989 0.0
H215 H 0.3578 0.59664 0.1875 0.0
H216 H 0.40123 0.58383 0.20706 0.0
H217 H 0.34968 0.5435 0.20091 0.0
C218 C 0.82254 0.24759 0.44128 0.0
C219 C 0.82959 0.22146 0.46182 0.0
C220 C 0.85389 0.28614 0.43666 0.0
C221 C 0.89322 0.29873 0.45294 0.0
C222 C 0.90077 0.27203 0.4734 0.0
C223 C 0.86882 0.23379 0.47764 0.0
C224 C 0.8446 0.31391 0.41477 0.0
C225 C 0.94241 0.28421 0.4911 0.0
C226 C 0.99264 0.37847 0.43198 0.0
C227 C 0.99294 0.4186 0.44812 0.0
C228 C 0.9592 0.33943 0.43237 0.0
C229 C 0.92588 0.34091 0.44953 0.0
C230 C 0.92545 0.38219 0.46502 0.0
C231 C 0.95916 0.42063 0.46413 0.0
C232 C 0.96059 0.29614 0.41545 0.0
C233 C 0.89059 0.38519 0.48358 0.0
H234 H 0.79207 0.23844 0.42918 0.0
H235 H 0.87461 0.21334 0.49328 0.0
H236 H 0.84428 0.34843 0.42387 0.0
H237 H 0.87027 0.31785 0.40067 0.0
H238 H 0.81328 0.29836 0.40306 0.0
H239 H 0.94378 0.25907 0.5055 0.0
H240 H 0.96987 0.28645 0.47844 0.0
H241 H 0.94651 0.31801 0.50278 0.0
H242 H 1.01926 0.37717 0.41983 0.0
H243 H 0.95996 0.45185 0.47679 0.0
H244 H 0.92936 0.28116 0.40358 0.0
H245 H 0.96629 0.27097 0.42883 0.0
H246 H 0.98631 0.30169 0.40136 0.0
H247 H 0.85853 0.37184 0.47244 0.0
H248 H 0.8932 0.42053 0.49265 0.0
H249 H 0.89251 0.36394 0.50013 0.0
C250 C 0.5623 0.73446 0.81746 0.0
C251 C 0.5868 0.72352 0.8388 0.0
C252 C 0.56277 0.77983 0.81435 0.0
C253 C 0.58829 0.81536 0.83303 0.0
C254 C 0.6128 0.80453 0.85473 0.0
C255 C 0.61179 0.75888 0.85733 0.0
C256 C 0.53613 0.78972 0.79095 0.0
C257 C 0.64028 0.84125 0.8752 0.0
C258 C 0.62214 0.93623 0.81412 0.0
C259 C 0.59349 0.95684 0.8274 0.0
C260 C 0.62022 0.8899 0.81524 0.0
C261 C 0.58907 0.86385 0.83014 0.0
C262 C 0.55951 0.88466 0.84308 0.0
C263 C 0.56214 0.93093 0.84157 0.0
C264 C 0.6522 0.86912 0.80104 0.0
C265 C 0.52581 0.85834 0.85915 0.0
H266 H 0.5429 0.70755 0.80296 0.0
H267 H 0.6309 0.75096 0.87386 0.0
H268 H 0.51319 0.8089 0.79853 0.0
H269 H 0.55718 0.81133 0.77806 0.0
H270 H 0.51781 0.75832 0.77828 0.0
H271 H 0.65735 0.82731 0.89093 0.0
H272 H 0.66439 0.86466 0.86492 0.0
H273 H 0.62012 0.86162 0.88523 0.0
H274 H 0.64657 0.95652 0.80332 0.0
H275 H 0.54022 0.94715 0.85201 0.0
H276 H 0.63523 0.8386 0.78719 0.0
H277 H 0.67287 0.85795 0.8161 0.0
H278 H 0.673 0.89324 0.78925 0.0
H279 H 0.50622 0.8277 0.84644 0.0
H280 H 0.50411 0.87892 0.86705 0.0
H281 H 0.5415 0.84663 0.87645 0.0
C282 C 0.89718 0.4886 0.14007 0.0
C283 C 0.93058 0.52888 0.14411 0.0
C284 C 0.85244 0.48862 0.13728 0.0
C285 C 0.83864 0.53 0.14002 0.0
C286 C 0.87253 0.57069 0.14543 0.0
C287 C 0.91692 0.56961 0.14657 0.0
C288 C 0.82018 0.44346 0.13104 0.0
C289 C 0.86289 0.61653 0.15045 0.0
C290 C 0.73113 0.55085 0.10844 0.0
C291 C 0.6986 0.53364 0.12553 0.0
C292 C 0.77474 0.54819 0.11234 0.0
C293 C 0.79006 0.53112 0.1355 0.0
C294 C 0.7583 0.51615 0.15395 0.0
C295 C 0.71382 0.51674 0.14859 0.0
C296 C 0.80406 0.56386 0.09081 0.0
C297 C 0.77049 0.49911 0.17978 0.0
H298 H 0.906 0.45647 0.13821 0.0
H299 H 0.94127 0.6014 0.15014 0.0
H300 H 0.81074 0.4303 0.15028 0.0
H301 H 0.79092 0.44611 0.11917 0.0
H302 H 0.83421 0.41821 0.11964 0.0
H303 H 0.88447 0.63739 0.1676 0.0
H304 H 0.8696 0.63471 0.13243 0.0
H305 H 0.82925 0.61445 0.15501 0.0
H306 H 0.72302 0.56704 0.09132 0.0
H307 H 0.69094 0.50348 0.16264 0.0
H308 H 0.83086 0.54697 0.08982 0.0
H309 H 0.81755 0.60103 0.09502 0.0
H310 H 0.786 0.55723 0.0706 0.0
H311 H 0.76097 0.46148 0.17708 0.0
H312 H 0.75281 0.51065 0.19645 0.0
H313 H 0.80538 0.51056 0.18588 0.0
C314 C 0.32885 0.79334 0.52419 0.0
C315 C 0.32546 0.83482 0.51579 0.0
C316 C 0.29945 0.75261 0.51365 0.0
C317 C 0.26585 0.75356 0.49437 0.0
C318 C 0.26169 0.79548 0.48634 0.0
C319 C 0.29161 0.8356 0.49712 0.0
C320 C 0.30493 0.70851 0.52263 0.0
C321 C 0.22606 0.79788 0.466 0.0
C322 C 0.21426 0.64925 0.44516 0.0
C323 C 0.1754 0.63283 0.45634 0.0
C324 C 0.24447 0.68794 0.45769 0.0
C325 C 0.23558 0.71069 0.48199 0.0
C326 C 0.19691 0.69363 0.49374 0.0
C327 C 0.16725 0.65493 0.48075 0.0
C328 C 0.28548 0.70505 0.44462 0.0
C329 C 0.18631 0.717 0.51962 0.0
H330 H 0.35528 0.79258 0.53841 0.0
H331 H 0.28865 0.8677 0.49083 0.0
H332 H 0.27495 0.69 0.53045 0.0
H333 H 0.31137 0.68648 0.50513 0.0
H334 H 0.33169 0.71379 0.53858 0.0
H335 H 0.22653 0.83332 0.46256 0.0
H336 H 0.22896 0.77866 0.44643 0.0
H337 H 0.19447 0.7819 0.47294 0.0
H338 H 0.22097 0.63191 0.42651 0.0
H339 H 0.13705 0.6427 0.48933 0.0
H340 H 0.31361 0.70827 0.4592 0.0
H341 H 0.28676 0.73932 0.43869 0.0
H342 H 0.28837 0.68234 0.42639 0.0
H343 H 0.21271 0.72123 0.53563 0.0
H344 H 0.15605 0.69793 0.52693 0.0
H345 H 0.18304 0.75142 0.51639 0.0
C346 C 0.57508 0.40785 0.81907 0.0
C347 C 0.60143 0.4418 0.8379 0.0
C348 C 0.57942 0.36306 0.81674 0.0
C349 C 0.61063 0.35138 0.83382 0.0
C350 C 0.63687 0.3852 0.85324 0.0
C351 C 0.63215 0.43004 0.85495 0.0
C352 C 0.55104 0.32835 0.79553 0.0
C353 C 0.6702 0.37409 0.87203 0.0
C354 C 0.59197 0.22403 0.83681 0.0
C355 C 0.61823 0.21208 0.81727 0.0
C356 C 0.59096 0.26959 0.84358 0.0
C357 C 0.6165 0.3041 0.83036 0.0
C358 C 0.64469 0.2925 0.8117 0.0
C359 C 0.64543 0.24684 0.80556 0.0
C360 C 0.56091 0.28048 0.86389 0.0
C361 C 0.67246 0.32801 0.79706 0.0
H362 H 0.55131 0.41637 0.8057 0.0
H363 H 0.65263 0.45589 0.86962 0.0
H364 H 0.57108 0.31485 0.78106 0.0
H365 H 0.53274 0.29931 0.80511 0.0
H366 H 0.52794 0.34268 0.78407 0.0
H367 H 0.68657 0.40355 0.8869 0.0
H368 H 0.65509 0.34552 0.88313 0.0
H369 H 0.69471 0.363 0.86019 0.0
H370 H 0.5707 0.19759 0.84594 0.0
H371 H 0.66664 0.23821 0.79095 0.0
H372 H 0.53393 0.29037 0.85337 0.0
H373 H 0.57772 0.30964 0.87878 0.0
H374 H 0.54748 0.25112 0.87488 0.0
H375 H 0.65182 0.3419 0.78341 0.0
H376 H 0.69511 0.31412 0.78484 0.0
H377 H 0.69114 0.35667 0.81165 0.0
C378 C 0.62286 0.87891 0.51719 0.0
C379 C 0.58728 0.89518 0.52426 0.0
C380 C 0.62363 0.83339 0.51901 0.0
C381 C 0.58798 0.80317 0.52808 0.0
C382 C 0.55205 0.81939 0.53529 0.0
C383 C 0.55214 0.86499 0.53332 0.0
C384 C 0.66257 0.81755 0.51107 0.0
C385 C 0.51325 0.78847 0.54494 0.0
C386 C 0.57057 0.67593 0.50799 0.0
C387 C 0.58589 0.66171 0.53154 0.0
C388 C 0.57122 0.7218 0.50657 0.0
C389 C 0.58765 0.7543 0.52931 0.0
C390 C 0.60314 0.73985 0.55322 0.0
C391 C 0.6021 0.69363 0.55404 0.0
C392 C 0.55426 0.73546 0.48072 0.0
C393 C 0.62079 0.77323 0.57792 0.0
H394 H 0.65025 0.90173 0.51023 0.0
H395 H 0.52439 0.87688 0.53889 0.0
H396 H 0.67604 0.80338 0.52819 0.0
H397 H 0.65325 0.78997 0.49404 0.0
H398 H 0.68802 0.84534 0.50495 0.0
H399 H 0.48814 0.80642 0.55019 0.0
H400 H 0.4991 0.7599 0.52902 0.0
H401 H 0.52284 0.77363 0.56296 0.0
H402 H 0.55812 0.65107 0.49057 0.0
H403 H 0.61402 0.68248 0.57223 0.0
H404 H 0.5797 0.76119 0.47291 0.0
H405 H 0.5273 0.75127 0.48468 0.0
H406 H 0.54284 0.70617 0.46482 0.0
H407 H 0.64815 0.80003 0.57289 0.0
H408 H 0.63179 0.75673 0.59485 0.0
H409 H 0.59585 0.79023 0.5848 0.0
C410 C 0.85956 0.53884 0.82783 0.0
C411 C 0.85815 0.55756 0.85451 0.0
C412 C 0.89425 0.52153 0.82024 0.0
C413 C 0.92789 0.52272 0.83991 0.0
C414 C 0.92726 0.54302 0.86664 0.0
C415 C 0.89237 0.56018 0.87358 0.0
C416 C 0.89387 0.50051 0.79154 0.0
C417 C 0.96266 0.54511 0.8883 0.0
C418 C 0.99598 0.4414 0.84654 0.0
C419 C 1.03639 0.47051 0.84522 0.0
C420 C 0.95874 0.45569 0.84079 0.0
C421 C 0.96258 0.50012 0.83382 0.0
C422 C 1.00292 0.52645 0.82818 0.0
C423 C 1.03973 0.51125 0.83404 0.0
C424 C 0.9161 0.42597 0.84618 0.0
C425 C 1.00799 0.57331 0.81974 0.0
H426 H 0.83332 0.53735 0.81293 0.0
H427 H 0.89117 0.5742 0.89425 0.0
H428 H 0.92658 0.50756 0.78447 0.0
H429 H 0.88172 0.46318 0.7905 0.0
H430 H 0.87259 0.51303 0.77752 0.0
H431 H 0.95801 0.56367 0.90774 0.0
H432 H 0.96401 0.51025 0.89191 0.0
H433 H 0.99416 0.56217 0.88166 0.0
H434 H 0.99367 0.40953 0.85484 0.0
H435 H 0.07113 0.53355 0.83281 0.0
H436 H 0.89051 0.42786 0.83088 0.0
H437 H 0.90724 0.43798 0.86627 0.0
H438 H 0.91733 0.38997 0.84617 0.0
H439 H 1.03835 0.58443 0.81004 0.0
H440 H 1.00865 0.59774 0.83785 0.0
H441 H 0.98065 0.57455 0.80556 0.0
C442 C 0.27234 0.82366 0.18734 0.0
C443 C 0.27085 0.79412 0.16373 0.0
C444 C 0.31017 0.85624 0.19722 0.0
C445 C 0.34765 0.85917 0.18331 0.0
C446 C 0.34613 0.83006 0.15915 0.0
C447 C 0.30767 0.79802 0.14957 0.0
C448 C 0.31023 0.88695 0.22286 0.0
C449 C 0.38546 0.83183 0.14385 0.0
C450 C 0.43834 0.96626 0.20006 0.0
C451 C 0.46482 0.95281 0.21921 0.0
C452 C 0.4004 0.93601 0.18789 0.0
C453 C 0.38884 0.89115 0.19487 0.0
C454 C 0.41596 0.87715 0.21376 0.0
C455 C 0.45347 0.90814 0.22573 0.0
C456 C 0.37221 0.95234 0.16801 0.0
C457 C 0.40507 0.82954 0.2216 0.0
H458 H 0.2438 0.82119 0.19816 0.0
H459 H 0.30678 0.77504 0.13143 0.0
H460 H 0.33251 0.88025 0.2388 0.0
H461 H 0.32192 0.92297 0.21942 0.0
H462 H 0.27788 0.88207 0.23044 0.0
H463 H 0.37848 0.80851 0.12473 0.0
H464 H 0.39897 0.86684 0.13909 0.0
H465 H 0.41053 0.82247 0.15661 0.0
H466 H 0.44677 1.00082 0.19509 0.0
H467 H 0.47413 0.89734 0.24021 0.0
H468 H 0.34053 0.95094 0.17597 0.0
H469 H 0.36642 0.92978 0.14864 0.0
H470 H 0.38651 0.98763 0.16394 0.0
H471 H 0.37442 0.82319 0.23133 0.0
H472 H 0.43037 0.82348 0.23576 0.0
H473 H 0.40051 0.80451 0.20333 0.0
C474 C 0.56041 0.19748 0.55122 0.0
C475 C 0.58446 0.17983 0.53224 0.0
C476 C 0.56181 0.24409 0.55485 0.0
C477 C 0.58767 0.27403 0.53903 0.0
C478 C 0.61153 0.25637 0.51957 0.0
C479 C 0.60977 0.20966 0.51649 0.0
C480 C 0.53608 0.26144 0.57596 0.0
C481 C 0.63931 0.28691 0.50216 0.0
C482 C 0.56449 0.39026 0.53503 0.0
C483 C 0.59542 0.41814 0.5544 0.0
C484 C 0.562 0.34352 0.52947 0.0
C485 C 0.59102 0.324 0.54363 0.0
C486 C 0.62288 0.35217 0.56274 0.0
C487 C 0.6248 0.3987 0.56777 0.0
C488 C 0.52771 0.31483 0.50883 0.0
C489 C 0.65457 0.33299 0.57827 0.0
H490 H 0.54076 0.17495 0.56355 0.0
H491 H 0.62836 0.19656 0.50166 0.0
H492 H 0.55795 0.2861 0.59148 0.0
H493 H 0.51418 0.27961 0.5666 0.0
H494 H 0.51674 0.23372 0.58615 0.0
H495 H 0.65464 0.26775 0.48728 0.0
H496 H 0.61985 0.30577 0.4911 0.0
H497 H 0.66486 0.31241 0.51505 0.0
H498 H 0.54141 0.40469 0.52474 0.0
H499 H 0.64938 0.41996 0.58238 0.0
H500 H 0.50534 0.28912 0.51877 0.0
H501 H 0.54239 0.29622 0.49332 0.0
H502 H 0.50897 0.33539 0.4986 0.0
H503 H 0.63721 0.30696 0.59035 0.0
H504 H 0.67785 0.3595 0.59211 0.0
H505 H 0.67264 0.31598 0.56408 0.0
C506 C 0.32966 0.55676 0.7182 0.0
C507 C 0.35605 0.59979 0.72821 0.0
C508 C 0.28908 0.54218 0.72765 0.0
C509 C 0.27528 0.57184 0.74666 0.0
C510 C 0.29533 0.61869 0.74905 0.0
C511 C 0.33558 0.63262 0.7389 0.0
C512 C 0.26574 0.4928 0.72193 0.0
C513 C 0.27883 0.65251 0.76671 0.0
C514 C 0.19166 0.51751 0.7924 0.0
C515 C 0.21831 0.50886 0.81326 0.0
C516 C 0.20935 0.53958 0.77075 0.0
C517 C 0.25454 0.55259 0.77017 0.0
C518 C 0.28123 0.54447 0.79184 0.0
C519 C 0.26262 0.52273 0.81307 0.0
C520 C 0.17938 0.54762 0.74853 0.0
C521 C 0.32963 0.55812 0.7927 0.0
H522 H 0.34283 0.53153 0.70733 0.0
H523 H 0.3538 0.66751 0.74394 0.0
H524 H 0.27486 0.47431 0.73844 0.0
H525 H 0.23054 0.48863 0.72102 0.0
H526 H 0.2742 0.47715 0.70261 0.0
H527 H 0.28911 0.68698 0.76033 0.0
H528 H 0.24331 0.64242 0.76621 0.0
H529 H 0.2921 0.65397 0.78787 0.0
H530 H 0.15712 0.50688 0.7929 0.0
H531 H 0.28284 0.51621 0.82956 0.0
H532 H 0.16763 0.51584 0.73457 0.0
H533 H 0.19504 0.57494 0.73673 0.0
H534 H 0.15092 0.55645 0.757 0.0
H535 H 0.34528 0.54926 0.81108 0.0
H536 H 0.34072 0.59528 0.79241 0.0
H537 H 0.34071 0.54102 0.77485 0.0
C538 C 0.83667 0.29255 0.19665 0.0
C539 C 0.87557 0.29273 0.21084 0.0
C540 C 0.79816 0.26199 0.20106 0.0
C541 C 0.79839 0.23068 0.22012 0.0
C542 C 0.83727 0.23159 0.2351 0.0
C543 C 0.87532 0.26254 0.23029 0.0
C544 C 0.75745 0.2622 0.18463 0.0
C545 C 0.83889 0.19903 0.2557 0.0
C546 C 0.6896 0.17089 0.24194 0.0
C547 C 0.68023 0.13018 0.22472 0.0
C548 C 0.72866 0.20349 0.24138 0.0
C549 C 0.75854 0.19509 0.22294 0.0
C550 C 0.74938 0.15323 0.20609 0.0
C551 C 0.71028 0.12129 0.20721 0.0
C552 C 0.7373 0.24749 0.25979 0.0
C553 C 0.78018 0.14283 0.18612 0.0
H554 H 0.83651 0.31534 0.1814 0.0
H555 H 0.90503 0.26293 0.24171 0.0
H556 H 0.74603 0.2297 0.17128 0.0
H557 H 0.73182 0.26507 0.19812 0.0
H558 H 0.76207 0.2905 0.17191 0.0
H559 H 0.87096 0.20609 0.26697 0.0
H560 H 0.81458 0.20087 0.27036 0.0
H561 H 0.83099 0.16378 0.24547 0.0
H562 H 0.66595 0.17776 0.25529 0.0
H563 H 0.70259 0.08985 0.1937 0.0
H564 H 0.73794 0.27596 0.24756 0.0
H565 H 0.7692 0.25421 0.27115 0.0
H566 H 0.71256 0.2473 0.27441 0.0
H567 H 0.78377 0.16727 0.17092 0.0
H568 H 0.76921 0.10792 0.1754 0.0
H569 H 0.81236 0.14677 0.1966 0.0
C570 C 0.10102 0.45735 0.06506 0.0
C571 C 0.07754 0.48569 0.07738 0.0
C572 C 0.10645 0.45571 0.03746 0.0
C573 C 0.08799 0.48318 0.02176 0.0
C574 C 0.06492 0.51264 0.03413 0.0
C575 C 1.05996 0.5136 0.06196 0.0
C576 C 0.13137 0.42395 0.02504 0.0
C577 C 1.04501 0.54254 0.01792 0.0
C578 C 0.13237 0.49996 0.95381 0.0
C579 C 0.10182 0.46738 0.93655 0.0
C580 C 0.1277 0.50641 0.98157 0.0
C581 C 0.09175 0.47945 0.99222 0.0
C582 C 0.06083 0.44652 0.97487 0.0
C583 C 0.06625 0.4409 0.94722 0.0
C584 C 0.16127 0.54186 -0.00048 0.0
C585 C 1.02231 0.41681 0.98556 0.0
H586 H 0.11502 0.436 0.07699 0.0
H587 H 1.04205 0.53573 0.07155 0.0
H588 H 0.11025 0.39842 0.00961 0.0
H589 H 0.15824 0.44312 0.01466 0.0
H590 H 0.14468 0.40579 0.04028 0.0
H591 H 1.02965 0.56487 0.03076 0.0
H592 H 0.06975 0.56402 0.00705 0.0
H593 H 1.02043 0.52121 0.00245 0.0
H594 H 0.15947 0.52108 0.94551 0.0
H595 H 1.04268 0.4156 0.93389 0.0
H596 H 0.17704 0.52541 0.01454 0.0
H597 H 0.14601 0.56592 0.01093 0.0
H598 H 0.18631 0.56134 0.98789 0.0
H599 H 1.03303 0.39548 -0.00012 0.0
H600 H 1.00028 0.39421 0.9692 0.0
H601 H 1.00419 0.4381 -0.00313 0.0
C602 C 0.51868 0.03709 0.42961 0.0
C603 C 0.54903 0.02522 0.44676 0.0
C604 C 0.52304 0.03676 0.40179 0.0
C605 C 0.55943 0.02574 0.39095 0.0
C606 C 0.5908 0.01488 0.40833 0.0
C607 C 0.58457 0.01348 0.4359 0.0
C608 C 0.48812 0.0471 0.3839 0.0
C609 C 0.63075 1.00442 0.39782 0.0
C610 C 0.54487 0.97933 0.31675 0.0
C611 C 0.55876 0.01879 0.30414 0.0
C612 C 0.54585 0.98098 0.34494 0.0
C613 C 0.56289 0.02281 0.36119 0.0
C614 C 0.58009 0.06216 0.34878 0.0
C615 C 0.57727 0.05986 0.32042 0.0
C616 C 0.52653 0.93828 0.35723 0.0
C617 C 0.60003 0.10708 0.36545 0.0
H618 H 0.49094 0.04581 0.43786 0.0
H619 H 0.6076 1.00322 0.44894 0.0
H620 H 0.50161 0.07658 0.37308 0.0
H621 H 0.47444 0.01774 0.36839 0.0
H622 H 0.46174 0.0547 0.39546 0.0
H623 H 0.65467 1.00308 0.41444 0.0
H624 H 0.62226 0.97121 0.38506 0.0
H625 H 0.64588 0.03043 0.385 0.0
H626 H 0.53198 0.94703 0.30453 0.0
H627 H 0.58813 0.09065 0.3111 0.0
H628 H 0.4988 0.94305 0.36836 0.0
H629 H 0.55026 0.93107 0.372 0.0
H630 H 0.51538 0.90826 0.3418 0.0
H631 H 0.57467 0.12039 0.37507 0.0
H632 H 0.61728 0.13271 0.35305 0.0
H633 H 0.62283 0.10273 0.38187 0.0
C634 C 0.65118 0.62612 0.75525 0.0
C635 C 0.63007 0.59086 0.7692 0.0
C636 C 0.64791 0.6215 0.72685 0.0
C637 C 0.62291 0.5807 0.71219 0.0
C638 C 0.60111 0.54529 0.72629 0.0
C639 C 0.60519 0.55072 0.7546 0.0
C640 C 0.67166 0.65994 0.71252 0.0
C641 C 0.57398 0.5013 0.71149 0.0
C642 C 0.5839 0.57239 0.63808 0.0
C643 C 0.61194 0.54963 0.62568 0.0
C644 C 0.58799 0.58438 0.66622 0.0
C645 C 0.62115 0.57368 0.68217 0.0
C646 C 0.65078 0.55274 0.66951 0.0
C647 C 0.64572 0.54086 0.64146 0.0
C648 C 0.55562 0.60643 0.67899 0.0
C649 C 0.68675 0.54103 0.68571 0.0
H650 H 0.67035 0.65725 0.76652 0.0
H651 H 0.58915 0.52319 0.76531 0.0
H652 H 0.6958 0.64858 0.70045 0.0
H653 H 0.64906 0.6701 0.69825 0.0
H654 H 0.68829 0.69011 0.7268 0.0
H655 H 0.55764 0.47795 0.72546 0.0
H656 H 0.54928 0.5082 0.69727 0.0
H657 H 0.59436 0.48387 0.69937 0.0
H658 H 0.55761 0.57897 0.62593 0.0
H659 H 0.66773 0.52372 0.63185 0.0
H660 H 0.57212 0.63697 0.69297 0.0
H661 H 0.53538 0.5825 0.69111 0.0
H662 H 0.53439 0.61641 0.6637 0.0
H663 H 0.7053 0.57121 0.69926 0.0
H664 H 0.70907 0.52823 0.67265 0.0
H665 H 0.6732 0.51455 0.69866 0.0
C666 C 0.58956 0.04027 0.60739 0.0
C667 C 0.62589 0.06633 0.59725 0.0
C668 C 0.5855 0.04193 0.63529 0.0
C669 C 0.61803 0.07142 0.65341 0.0
C670 C 0.65482 0.09786 0.64318 0.0
C671 C 0.6586 0.09445 0.6152 0.0
C672 C 0.54637 0.01223 0.64535 0.0
C673 C 0.68967 0.13062 0.66174 0.0
C674 C 0.588 0.11524 0.72156 0.0
C675 C 0.60775 0.09213 0.73938 0.0
C676 C 0.59083 0.10851 0.69362 0.0
C677 C 0.61262 0.07658 0.68291 0.0
C678 C 0.63042 0.05108 0.70052 0.0
C679 C 0.62822 0.05949 0.72857 0.0
C680 C 0.57175 0.13679 0.67564 0.0
C681 C 0.65278 0.01573 0.68979 0.0
H682 H 0.56461 0.01798 0.59349 0.0
H683 H 0.68668 0.11461 0.60731 0.0
H684 H 0.55625 0.99152 0.66037 0.0
H685 H 0.52738 0.03359 0.6557 0.0
H686 H 0.52536 0.98914 0.62874 0.0
H687 H 0.71627 0.14856 0.65061 0.0
H688 H 0.67601 0.15622 0.67305 0.0
H689 H 0.70304 0.11233 0.67682 0.0
H690 H 0.57084 0.13942 0.72951 0.0
H691 H 0.6437 0.04148 0.74203 0.0
H692 H 0.54795 0.11453 0.6601 0.0
H693 H 0.59733 0.15728 0.66485 0.0
H694 H 0.55574 0.16011 0.68715 0.0
H695 H 0.63218 0.99221 0.67323 0.0
H696 H 0.661 0.99566 0.70573 0.0
H697 H 0.68276 0.03244 0.68124 0.0
C698 C 0.58835 0.59121 0.92724 0.0
C699 C 0.55475 0.56148 0.91055 0.0
C700 C 0.59419 0.58679 0.95492 0.0
C701 C 0.56528 0.55231 0.96635 0.0
C702 C 0.53077 0.52285 0.94963 0.0
C703 C 0.52616 0.52755 0.92196 0.0
C704 C 0.6318 0.61848 0.97184 0.0
C705 C 0.49885 0.48606 0.96094 0.0
C706 C 0.60257 0.51136 0.03112 0.0
C707 C 0.58546 0.53589 0.05114 0.0
C708 C 0.5964 0.51651 0.00361 0.0
C709 C 0.57174 0.54629 -0.0044 0.0
C710 C 0.55334 0.5702 0.01555 0.0
C711 C 0.56061 0.56495 0.043 0.0
C712 C 0.61676 0.49043 0.9831 0.0
C713 C 0.52633 0.60178 0.00792 0.0
H714 H 0.61063 0.61742 0.91854 0.0
H715 H 0.50007 0.50448 0.90919 0.0
H716 H 0.62033 0.63703 0.98897 0.0
H717 H 0.65279 0.59866 0.98054 0.0
H718 H 0.65126 0.64358 0.95999 0.0
H719 H 0.47277 0.46721 0.94556 0.0
H720 H 0.51542 0.46158 0.96886 0.0
H721 H 0.48433 0.50098 0.97809 0.0
H722 H 0.62103 0.48805 0.03695 0.0
H723 H 0.54757 0.58451 0.05816 0.0
H724 H 0.63841 0.51433 0.97166 0.0
H725 H 0.59166 0.46817 0.96831 0.0
H726 H 0.63551 0.46913 0.99259 0.0
H727 H 0.54595 0.62987 -0.0018 0.0
H728 H 0.51288 0.61653 0.02566 0.0
H729 H 0.49946 0.58336 0.99299 0.0
C730 C 0.11422 0.55578 0.24334 0.0
C731 C 0.07845 0.56282 0.22885 0.0
C732 C 0.11427 0.55253 0.27117 0.0
C733 C 0.07691 0.55429 0.28447 0.0
C734 C 1.03997 0.55926 0.26953 0.0
C735 C 1.04154 0.56455 0.24196 0.0
C736 C 0.15482 0.54889 0.28648 0.0
C737 C 0.99894 0.55922 0.28269 0.0
C738 C 0.07575 0.51347 0.35402 0.0
C739 C 0.0882 0.5547 0.37102 0.0
C740 C 0.0697 0.5127 0.32584 0.0
C741 C 0.07772 0.55407 0.3143 0.0
C742 C 0.08897 0.59569 0.33133 0.0
C743 C 0.09299 0.59543 0.35938 0.0
C744 C 1.05595 0.46761 0.30839 0.0
C745 C 0.09864 0.64063 0.3199 0.0
H746 H 0.14272 0.55447 0.23307 0.0
H747 H 1.01366 0.56927 0.23052 0.0
H748 H 0.16579 0.57818 0.3024 0.0
H749 H 0.14854 0.5177 0.29671 0.0
H750 H 0.18114 0.54819 0.27314 0.0
H751 H 0.97188 0.55846 0.26771 0.0
H752 H 0.99002 0.5294 0.29404 0.0
H753 H 1.00363 0.58999 0.2974 0.0
H754 H 0.07199 0.48171 0.36257 0.0
H755 H 0.10087 0.62753 0.3722 0.0
H756 H 0.08318 0.46142 0.29726 0.0
H757 H 1.02957 0.4678 0.29316 0.0
H758 H 1.04503 0.43904 0.32048 0.0
H759 H 0.12567 0.64262 0.30688 0.0
H760 H 0.10727 0.66998 0.33593 0.0
H761 H 0.07051 0.64368 0.30707 0.0
loop_
_geom_bond_atom_site_label_1
_geom_bond_atom_site_label_2
_geom_bond_distance
_geom_bond_site_symmetry_2
_ccdc_geom_bond_type
Nd0 C2 2.836 . S
Nd0 O20 2.500 . S
Nd0 O21 2.492 . S
Nd0 O22 2.487 . S
Nd0 O23 2.682 . S
Nd0 O24 2.410 . S
Nd0 O29 2.414 . S
Nd0 O31 2.424 1_455 S
Nd1 C11 2.836 1_455 S
Nd1 O23 2.414 . S
Nd1 O25 2.424 . S
Nd1 O26 2.500 1_455 S
Nd1 O27 2.492 1_455 S
Nd1 O28 2.487 . S
Nd1 O29 2.682 . S
Nd1 O30 2.410 1_455 S
C2 Nd0 2.836 . S
C2 C3 1.498 . S
C2 O20 1.258 . S
C2 O21 1.239 . S
C3 C2 1.498 . S
C3 C4 1.366 . S
C3 C8 1.407 . S
C4 C3 1.366 . S
C4 C5 1.392 . S
C4 H32 0.930 . S
C5 C4 1.392 . S
C5 C6 1.398 . S
C5 H33 0.929 . S
C6 C5 1.398 . S
C6 C7 1.352 . S
C7 C6 1.352 . S
C7 C8 1.384 . S
C7 H34 0.930 . S
C8 C3 1.407 . S
C8 C7 1.384 . S
C8 H35 0.929 . S
C9 O22 1.241 . S
C9 O23 1.273 . S
C10 O24 1.251 . S
C10 O25 1.268 . S
C11 Nd1 2.836 1_655 S
C11 C12 1.498 . S
C11 O26 1.258 . S
C11 O27 1.239 . S
C12 C11 1.498 . S
C12 C13 1.366 . S
C12 C17 1.407 . S
C13 C12 1.366 . S
C13 C14 1.392 . S
C13 H36 0.930 . S
C14 C13 1.392 . S
C14 C15 1.398 . S
C14 H37 0.929 . S
C15 C14 1.398 . S
C15 C16 1.352 . S
C16 C15 1.352 . S
C16 C17 1.384 . S
C16 H38 0.930 . S
C17 C12 1.407 . S
C17 C16 1.384 . S
C17 H39 0.929 . S
C18 O28 1.241 . S
C18 O29 1.273 . S
C19 O30 1.251 . S
C19 O31 1.268 . S
O20 Nd0 2.500 . S
O20 C2 1.258 . S
O21 Nd0 2.492 . S
O21 C2 1.239 . S
O22 Nd0 2.487 . S
O22 C9 1.241 . S
O23 Nd0 2.682 . S
O23 Nd1 2.414 . S
O23 C9 1.273 . S
O24 Nd0 2.410 . S
O24 C10 1.251 . S
O25 Nd1 2.424 . S
O25 C10 1.268 . S
O26 Nd1 2.500 1_655 S
O26 C11 1.258 . S
O27 Nd1 2.492 1_655 S
O27 C11 1.239 . S
O28 Nd1 2.487 . S
O28 C18 1.241 . S
O29 Nd0 2.414 . S
O29 Nd1 2.682 . S
O29 C18 1.273 . S
O30 Nd1 2.410 1_655 S
O30 C19 1.251 . S
O31 Nd0 2.424 1_655 S
O31 C19 1.268 . S
H32 C4 0.930 . S
H33 C5 0.929 . S
H34 C7 0.930 . S
H35 C8 0.929 . S
H36 C13 0.930 . S
H37 C14 0.929 . S
H38 C16 0.930 . S
H39 C17 0.929 . S
Nd40 C42 2.836 1_545 S
Nd40 O60 2.500 1_545 S
Nd40 O61 2.492 1_545 S
Nd40 O62 2.487 . S
Nd40 O63 2.682 . S
Nd40 O64 2.410 1_545 S
Nd40 O69 2.414 . S
Nd40 O71 2.424 . S
Nd41 C51 2.836 . S
Nd41 O63 2.414 . S
Nd41 O65 2.424 1_545 S
Nd41 O66 2.500 . S
Nd41 O67 2.492 . S
Nd41 O68 2.487 . S
Nd41 O69 2.682 . S
Nd41 O70 2.410 . S
C42 Nd40 2.836 1_565 S
C42 C43 1.498 . S
C42 O60 1.258 . S
C42 O61 1.239 . S
C43 C42 1.498 . S
C43 C44 1.366 . S
C43 C48 1.407 . S
C44 C43 1.366 . S
C44 C45 1.392 . S
C44 H72 0.930 . S
C45 C44 1.392 . S
C45 C46 1.398 . S
C45 H73 0.929 . S
C46 C45 1.398 . S
C46 C47 1.352 . S
C47 C46 1.352 . S
C47 C48 1.384 . S
C47 H74 0.930 . S
C48 C43 1.407 . S
C48 C47 1.384 . S
C48 H75 0.929 . S
C49 O62 1.241 . S
C49 O63 1.273 . S
C50 O64 1.251 . S
C50 O65 1.268 . S
C51 Nd41 2.836 . S
C51 C52 1.498 . S
C51 O66 1.258 . S
C51 O67 1.239 . S
C52 C51 1.498 . S
C52 C53 1.366 . S
C52 C57 1.407 . S
C53 C52 1.366 . S
C53 C54 1.392 . S
C53 H76 0.930 . S
C54 C53 1.392 . S
C54 C55 1.398 . S
C54 H77 0.929 . S
C55 C54 1.398 . S
C55 C56 1.352 . S
C56 C55 1.352 . S
C56 C57 1.384 . S
C56 H78 0.930 . S
C57 C52 1.407 . S
C57 C56 1.384 . S
C57 H79 0.929 . S
C58 O68 1.241 . S
C58 O69 1.273 . S
C59 O70 1.251 . S
C59 O71 1.268 . S
O60 Nd40 2.500 1_565 S
O60 C42 1.258 . S
O61 Nd40 2.492 1_565 S
O61 C42 1.239 . S
O62 Nd40 2.487 . S
O62 C49 1.241 . S
O63 Nd40 2.682 . S
O63 Nd41 2.414 . S
O63 C49 1.273 . S
O64 Nd40 2.410 1_565 S
O64 C50 1.251 . S
O65 Nd41 2.424 1_565 S
O65 C50 1.268 . S
O66 Nd41 2.500 . S
O66 C51 1.258 . S
O67 Nd41 2.492 . S
O67 C51 1.239 . S
O68 Nd41 2.487 . S
O68 C58 1.241 . S
O69 Nd40 2.414 . S
O69 Nd41 2.682 . S
O69 C58 1.273 . S
O70 Nd41 2.410 . S
O70 C59 1.251 . S
O71 Nd40 2.424 . S
O71 C59 1.268 . S
H72 C44 0.930 . S
H73 C45 0.929 . S
H74 C47 0.930 . S
H75 C48 0.929 . S
H76 C53 0.930 . S
H77 C54 0.929 . S
H78 C56 0.930 . S
H79 C57 0.929 . S
Nd80 C82 2.836 . S
Nd80 O100 2.500 . S
Nd80 O101 2.492 . S
Nd80 O102 2.487 . S
Nd80 O103 2.682 . S
Nd80 O104 2.410 . S
Nd80 O109 2.414 . S
Nd80 O111 2.424 . S
Nd81 C91 2.836 . S
Nd81 O103 2.414 . S
Nd81 O105 2.424 . S
Nd81 O106 2.500 . S
Nd81 O107 2.492 . S
Nd81 O108 2.487 . S
Nd81 O109 2.682 . S
Nd81 O110 2.410 . S
C82 Nd80 2.836 . S
C82 C83 1.498 . S
C82 O100 1.258 . S
C82 O101 1.239 . S
C83 C82 1.498 . S
C83 C84 1.366 . S
C83 C88 1.407 . S
C84 C83 1.366 . S
C84 C85 1.392 . S
C84 H112 0.930 . S
C85 C84 1.392 . S
C85 C86 1.398 . S
C85 H113 0.929 . S
C86 C85 1.398 . S
C86 C87 1.352 . S
C87 C86 1.352 . S
C87 C88 1.384 . S
C87 H114 0.930 . S
C88 C83 1.407 . S
C88 C87 1.384 . S
C88 H115 0.929 . S
C89 O102 1.241 . S
C89 O103 1.273 . S
C90 O104 1.251 . S
C90 O105 1.268 . S
C91 Nd81 2.836 . S
C91 C92 1.498 . S
C91 O106 1.258 . S
C91 O107 1.239 . S
C92 C91 1.498 . S
C92 C93 1.366 . S
C92 C97 1.407 . S
C93 C92 1.366 . S
C93 C94 1.392 . S
C93 H116 0.930 . S
C94 C93 1.392 . S
C94 C95 1.398 . S
C94 H117 0.929 . S
C95 C94 1.398 . S
C95 C96 1.352 . S
C96 C95 1.352 . S
C96 C97 1.384 . S
C96 H118 0.930 . S
C97 C92 1.407 . S
C97 C96 1.384 . S
C97 H119 0.929 . S
C98 O108 1.241 . S
C98 O109 1.273 . S
C99 O110 1.251 . S
C99 O111 1.268 . S
O100 Nd80 2.500 . S
O100 C82 1.258 . S
O101 Nd80 2.492 . S
O101 C82 1.239 . S
O102 Nd80 2.487 . S
O102 C89 1.241 . S
O103 Nd80 2.682 . S
O103 Nd81 2.414 . S
O103 C89 1.273 . S
O104 Nd80 2.410 . S
O104 C90 1.251 . S
O105 Nd81 2.424 . S
O105 C90 1.268 . S
O106 Nd81 2.500 . S
O106 C91 1.258 . S
O107 Nd81 2.492 . S
O107 C91 1.239 . S
O108 Nd81 2.487 . S
O108 C98 1.241 . S
O109 Nd80 2.414 . S
O109 Nd81 2.682 . S
O109 C98 1.273 . S
O110 Nd81 2.410 . S
O110 C99 1.251 . S
O111 Nd80 2.424 . S
O111 C99 1.268 . S
H112 C84 0.930 . S
H113 C85 0.929 . S
H114 C87 0.930 . S
H115 C88 0.929 . S
H116 C93 0.930 . S
H117 C94 0.929 . S
H118 C96 0.930 . S
H119 C97 0.929 . S
H120 C123 0.929 . S
H121 C126 0.929 . S
H122 C128 0.930 . S
C123 H120 0.929 . S
C123 C124 1.398 . S
C123 C125 1.396 . S
C124 C123 1.398 . S
C124 C128 1.407 . S
C125 C123 1.396 . S
C125 C126 1.394 . S
C126 H121 0.929 . S
C126 C125 1.394 . S
C126 C127 1.382 . S
C127 C126 1.382 . S
C127 C128 1.392 . S
C127 N129 1.420 . S
C128 H122 0.930 . S
C128 C124 1.407 . S
C128 C127 1.392 . S
N129 C127 1.420 . S
N129 C130 1.244 . S
C130 N129 1.244 . S
H131 C134 0.929 . S
H132 C137 0.929 . S
H133 C139 0.930 . S
C134 H131 0.929 . S
C134 C135 1.398 . S
C134 C136 1.396 . S
C135 C134 1.398 . S
C135 C139 1.407 . S
C136 C134 1.396 . S
C136 C137 1.394 . S
C137 H132 0.929 . S
C137 C136 1.394 . S
C137 C138 1.382 . S
C138 C137 1.382 . S
C138 C139 1.392 . S
C138 N140 1.420 . S
C139 H133 0.930 . S
C139 C135 1.407 . S
C139 C138 1.392 . S
N140 C138 1.420 . S
N140 C141 1.244 . S
C141 N140 1.244 . S
H142 C145 0.929 1_655 S
H143 C148 0.929 . S
H144 C150 0.930 . S
C145 H142 0.929 1_455 S
C145 C146 1.398 . S
C145 C147 1.396 . S
C146 C145 1.398 . S
C146 C150 1.407 . S
C147 C145 1.396 . S
C147 C148 1.394 . S
C148 H143 0.929 . S
C148 C147 1.394 . S
C148 C149 1.382 . S
C149 C148 1.382 . S
C149 C150 1.392 . S
C149 N151 1.420 . S
C150 H144 0.930 . S
C150 C146 1.407 . S
C150 C149 1.392 . S
N151 C149 1.420 . S
N151 C152 1.244 . S
C152 N151 1.244 . S
H153 C156 0.929 . S
H154 C159 0.929 . S
H155 C161 0.930 . S
C156 H153 0.929 . S
C156 C157 1.398 . S
C156 C158 1.396 . S
C157 C156 1.398 . S
C157 C161 1.407 . S
C158 C156 1.396 . S
C158 C159 1.394 1_455 S
C159 H154 0.929 . S
C159 C158 1.394 1_655 S
C159 C160 1.382 . S
C160 C159 1.382 . S
C160 C161 1.392 1_655 S
C160 N162 1.420 . S
C161 H155 0.930 . S
C161 C157 1.407 . S
C161 C160 1.392 1_455 S
N162 C160 1.420 . S
N162 C163 1.244 . S
C163 N162 1.244 . S
H164 C167 0.929 . S
H165 C170 0.929 . S
H166 C172 0.930 . S
C167 H164 0.929 . S
C167 C168 1.398 . S
C167 C169 1.396 . S
C168 C167 1.398 . S
C168 C172 1.407 . S
C169 C167 1.396 . S
C169 C170 1.394 1_545 S
C170 H165 0.929 . S
C170 C169 1.394 1_565 S
C170 C171 1.382 1_565 S
C171 C170 1.382 1_545 S
C171 C172 1.392 . S
C171 N173 1.420 1_545 S
C172 H166 0.930 . S
C172 C168 1.407 . S
C172 C171 1.392 . S
N173 C171 1.420 1_565 S
N173 C174 1.244 . S
C174 N173 1.244 . S
H175 C178 0.929 . S
H176 C181 0.929 . S
H177 C183 0.930 . S
C178 H175 0.929 . S
C178 C179 1.398 . S
C178 C180 1.396 . S
C179 C178 1.398 . S
C179 C183 1.407 . S
C180 C178 1.396 . S
C180 C181 1.394 . S
C181 H176 0.929 . S
C181 C180 1.394 . S
C181 C182 1.382 . S
C182 C181 1.382 . S
C182 C183 1.392 . S
C182 N184 1.420 . S
C183 H177 0.930 . S
C183 C179 1.407 . S
C183 C182 1.392 . S
N184 C182 1.420 . S
N184 C185 1.244 . S
C185 N184 1.244 . S
C186 C187 1.391 . S
C186 C188 1.394 . S
C186 H202 0.931 . S
C187 C186 1.391 . S
C187 C191 1.376 . S
C188 C186 1.394 . S
C188 C189 1.369 . S
C188 C192 1.531 . S
C189 C188 1.369 . S
C189 C190 1.410 . S
C189 C197 1.503 . S
C190 C189 1.410 . S
C190 C191 1.392 . S
C190 C193 1.511 . S
C191 C187 1.376 . S
C191 C190 1.392 . S
C191 H203 0.929 . S
C192 C188 1.531 . S
C192 H204 0.960 . S
C192 H205 0.962 . S
C192 H206 0.960 . S
C193 C190 1.511 . S
C193 H207 0.961 . S
C193 H208 0.961 . S
C193 H209 0.961 . S
C194 C195 1.370 . S
C194 C196 1.363 . S
C194 H210 0.931 . S
C195 C194 1.370 . S
C195 C199 1.408 . S
C196 C194 1.363 . S
C196 C197 1.370 . S
C196 C200 1.524 . S
C197 C189 1.503 . S
C197 C196 1.370 . S
C197 C198 1.403 . S
C198 C197 1.403 . S
C198 C199 1.404 . S
C198 C201 1.539 . S
C199 C195 1.408 . S
C199 C198 1.404 . S
C199 H211 0.930 . S
C200 C196 1.524 . S
C200 H212 0.956 . S
C200 H213 0.961 . S
C200 H214 0.961 . S
C201 C198 1.539 . S
C201 H215 0.958 . S
C201 H216 0.961 . S
C201 H217 0.960 . S
H202 C186 0.931 . S
H203 C191 0.929 . S
H204 C192 0.960 . S
H205 C192 0.962 . S
H206 C192 0.960 . S
H207 C193 0.961 . S
H208 C193 0.961 . S
H209 C193 0.961 . S
H210 C194 0.931 . S
H211 C199 0.930 . S
H212 C200 0.956 . S
H213 C200 0.961 . S
H214 C200 0.961 . S
H215 C201 0.958 . S
H216 C201 0.961 . S
H217 C201 0.960 . S
C218 C219 1.391 . S
C218 C220 1.394 . S
C218 H234 0.931 . S
C219 C218 1.391 . S
C219 C223 1.376 . S
C220 C218 1.394 . S
C220 C221 1.369 . S
C220 C224 1.531 . S
C221 C220 1.369 . S
C221 C222 1.410 . S
C221 C229 1.503 . S
C222 C221 1.410 . S
C222 C223 1.392 . S
C222 C225 1.511 . S
C223 C219 1.376 . S
C223 C222 1.392 . S
C223 H235 0.929 . S
C224 C220 1.531 . S
C224 H236 0.960 . S
C224 H237 0.962 . S
C224 H238 0.960 . S
C225 C222 1.511 . S
C225 H239 0.961 . S
C225 H240 0.961 . S
C225 H241 0.961 . S
C226 C227 1.370 . S
C226 C228 1.363 . S
C226 H242 0.931 . S
C227 C226 1.370 . S
C227 C231 1.408 . S
C228 C226 1.363 . S
C228 C229 1.370 . S
C228 C232 1.524 . S
C229 C221 1.503 . S
C229 C228 1.370 . S
C229 C230 1.403 . S
C230 C229 1.403 . S
C230 C231 1.404 . S
C230 C233 1.539 . S
C231 C227 1.408 . S
C231 C230 1.404 . S
C231 H243 0.930 . S
C232 C228 1.524 . S
C232 H244 0.956 . S
C232 H245 0.961 . S
C232 H246 0.961 . S
C233 C230 1.539 . S
C233 H247 0.958 . S
C233 H248 0.961 . S
C233 H249 0.960 . S
H234 C218 0.931 . S
H235 C223 0.929 . S
H236 C224 0.960 . S
H237 C224 0.962 . S
H238 C224 0.960 . S
H239 C225 0.961 . S
H240 C225 0.961 . S
H241 C225 0.961 . S
H242 C226 0.931 . S
H243 C231 0.930 . S
H244 C232 0.956 . S
H245 C232 0.961 . S
H246 C232 0.961 . S
H247 C233 0.958 . S
H248 C233 0.961 . S
H249 C233 0.960 . S
C250 C251 1.391 . S
C250 C252 1.394 . S
C250 H266 0.931 . S
C251 C250 1.391 . S
C251 C255 1.376 . S
C252 C250 1.394 . S
C252 C253 1.369 . S
C252 C256 1.531 . S
C253 C252 1.369 . S
C253 C254 1.410 . S
C253 C261 1.503 . S
C254 C253 1.410 . S
C254 C255 1.392 . S
C254 C257 1.511 . S
C255 C251 1.376 . S
C255 C254 1.392 . S
C255 H267 0.929 . S
C256 C252 1.531 . S
C256 H268 0.960 . S
C256 H269 0.962 . S
C256 H270 0.960 . S
C257 C254 1.511 . S
C257 H271 0.961 . S
C257 H272 0.961 . S
C257 H273 0.961 . S
C258 C259 1.370 . S
C258 C260 1.363 . S
C258 H274 0.931 . S
C259 C258 1.370 . S
C259 C263 1.408 . S
C260 C258 1.363 . S
C260 C261 1.370 . S
C260 C264 1.524 . S
C261 C253 1.503 . S
C261 C260 1.370 . S
C261 C262 1.403 . S
C262 C261 1.403 . S
C262 C263 1.404 . S
C262 C265 1.539 . S
C263 C259 1.408 . S
C263 C262 1.404 . S
C263 H275 0.930 . S
C264 C260 1.524 . S
C264 H276 0.956 . S
C264 H277 0.961 . S
C264 H278 0.961 . S
C265 C262 1.539 . S
C265 H279 0.958 . S
C265 H280 0.961 . S
C265 H281 0.960 . S
H266 C250 0.931 . S
H267 C255 0.929 . S
H268 C256 0.960 . S
H269 C256 0.962 . S
H270 C256 0.960 . S
H271 C257 0.961 . S
H272 C257 0.961 . S
H273 C257 0.961 . S
H274 C258 0.931 . S
H275 C263 0.930 . S
H276 C264 0.956 . S
H277 C264 0.961 . S
H278 C264 0.961 . S
H279 C265 0.958 . S
H280 C265 0.961 . S
H281 C265 0.960 . S
C282 C283 1.391 . S
C282 C284 1.394 . S
C282 H298 0.931 . S
C283 C282 1.391 . S
C283 C287 1.376 . S
C284 C282 1.394 . S
C284 C285 1.369 . S
C284 C288 1.531 . S
C285 C284 1.369 . S
C285 C286 1.410 . S
C285 C293 1.503 . S
C286 C285 1.410 . S
C286 C287 1.392 . S
C286 C289 1.511 . S
C287 C283 1.376 . S
C287 C286 1.392 . S
C287 H299 0.929 . S
C288 C284 1.531 . S
C288 H300 0.960 . S
C288 H301 0.962 . S
C288 H302 0.960 . S
C289 C286 1.511 . S
C289 H303 0.961 . S
C289 H304 0.961 . S
C289 H305 0.961 . S
C290 C291 1.370 . S
C290 C292 1.363 . S
C290 H306 0.931 . S
C291 C290 1.370 . S
C291 C295 1.408 . S
C292 C290 1.363 . S
C292 C293 1.370 . S
C292 C296 1.524 . S
C293 C285 1.503 . S
C293 C292 1.370 . S
C293 C294 1.403 . S
C294 C293 1.403 . S
C294 C295 1.404 . S
C294 C297 1.539 . S
C295 C291 1.408 . S
C295 C294 1.404 . S
C295 H307 0.930 . S
C296 C292 1.524 . S
C296 H308 0.956 . S
C296 H309 0.961 . S
C296 H310 0.961 . S
C297 C294 1.539 . S
C297 H311 0.958 . S
C297 H312 0.961 . S
C297 H313 0.960 . S
H298 C282 0.931 . S
H299 C287 0.929 . S
H300 C288 0.960 . S
H301 C288 0.962 . S
H302 C288 0.960 . S
H303 C289 0.961 . S
H304 C289 0.961 . S
H305 C289 0.961 . S
H306 C290 0.931 . S
H307 C295 0.930 . S
H308 C296 0.956 . S
H309 C296 0.961 . S
H310 C296 0.961 . S
H311 C297 0.958 . S
H312 C297 0.961 . S
H313 C297 0.960 . S
C314 C315 1.391 . S
C314 C316 1.394 . S
C314 H330 0.931 . S
C315 C314 1.391 . S
C315 C319 1.376 . S
C316 C314 1.394 . S
C316 C317 1.369 . S
C316 C320 1.531 . S
C317 C316 1.369 . S
C317 C318 1.410 . S
C317 C325 1.503 . S
C318 C317 1.410 . S
C318 C319 1.392 . S
C318 C321 1.511 . S
C319 C315 1.376 . S
C319 C318 1.392 . S
C319 H331 0.929 . S
C320 C316 1.531 . S
C320 H332 0.960 . S
C320 H333 0.962 . S
C320 H334 0.960 . S
C321 C318 1.511 . S
C321 H335 0.961 . S
C321 H336 0.961 . S
C321 H337 0.961 . S
C322 C323 1.370 . S
C322 C324 1.363 . S
C322 H338 0.931 . S
C323 C322 1.370 . S
C323 C327 1.408 . S
C324 C322 1.363 . S
C324 C325 1.370 . S
C324 C328 1.524 . S
C325 C317 1.503 . S
C325 C324 1.370 . S
C325 C326 1.403 . S
C326 C325 1.403 . S
C326 C327 1.404 . S
C326 C329 1.539 . S
C327 C323 1.408 . S
C327 C326 1.404 . S
C327 H339 0.930 . S
C328 C324 1.524 . S
C328 H340 0.956 . S
C328 H341 0.961 . S
C328 H342 0.961 . S
C329 C326 1.539 . S
C329 H343 0.958 . S
C329 H344 0.961 . S
C329 H345 0.960 . S
H330 C314 0.931 . S
H331 C319 0.929 . S
H332 C320 0.960 . S
H333 C320 0.962 . S
H334 C320 0.960 . S
H335 C321 0.961 . S
H336 C321 0.961 . S
H337 C321 0.961 . S
H338 C322 0.931 . S
H339 C327 0.930 . S
H340 C328 0.956 . S
H341 C328 0.961 . S
H342 C328 0.961 . S
H343 C329 0.958 . S
H344 C329 0.961 . S
H345 C329 0.960 . S
C346 C347 1.391 . S
C346 C348 1.394 . S
C346 H362 0.931 . S
C347 C346 1.391 . S
C347 C351 1.376 . S
C348 C346 1.394 . S
C348 C349 1.369 . S
C348 C352 1.531 . S
C349 C348 1.369 . S
C349 C350 1.410 . S
C349 C357 1.503 . S
C350 C349 1.410 . S
C350 C351 1.392 . S
C350 C353 1.511 . S
C351 C347 1.376 . S
C351 C350 1.392 . S
C351 H363 0.929 . S
C352 C348 1.531 . S
C352 H364 0.960 . S
C352 H365 0.962 . S
C352 H366 0.960 . S
C353 C350 1.511 . S
C353 H367 0.961 . S
C353 H368 0.961 . S
C353 H369 0.961 . S
C354 C355 1.370 . S
C354 C356 1.363 . S
C354 H370 0.931 . S
C355 C354 1.370 . S
C355 C359 1.408 . S
C356 C354 1.363 . S
C356 C357 1.370 . S
C356 C360 1.524 . S
C357 C349 1.503 . S
C357 C356 1.370 . S
C357 C358 1.403 . S
C358 C357 1.403 . S
C358 C359 1.404 . S
C358 C361 1.539 . S
C359 C355 1.408 . S
C359 C358 1.404 . S
C359 H371 0.930 . S
C360 C356 1.524 . S
C360 H372 0.956 . S
C360 H373 0.961 . S
C360 H374 0.961 . S
C361 C358 1.539 . S
C361 H375 0.958 . S
C361 H376 0.961 . S
C361 H377 0.960 . S
H362 C346 0.931 . S
H363 C351 0.929 . S
H364 C352 0.960 . S
H365 C352 0.962 . S
H366 C352 0.960 . S
H367 C353 0.961 . S
H368 C353 0.961 . S
H369 C353 0.961 . S
H370 C354 0.931 . S
H371 C359 0.930 . S
H372 C360 0.956 . S
H373 C360 0.961 . S
H374 C360 0.961 . S
H375 C361 0.958 . S
H376 C361 0.961 . S
H377 C361 0.960 . S
C378 C379 1.391 . S
C378 C380 1.394 . S
C378 H394 0.931 . S
C379 C378 1.391 . S
C379 C383 1.376 . S
C380 C378 1.394 . S
C380 C381 1.369 . S
C380 C384 1.531 . S
C381 C380 1.369 . S
C381 C382 1.410 . S
C381 C389 1.503 . S
C382 C381 1.410 . S
C382 C383 1.392 . S
C382 C385 1.511 . S
C383 C379 1.376 . S
C383 C382 1.392 . S
C383 H395 0.929 . S
C384 C380 1.531 . S
C384 H396 0.960 . S
C384 H397 0.962 . S
C384 H398 0.960 . S
C385 C382 1.511 . S
C385 H399 0.961 . S
C385 H400 0.961 . S
C385 H401 0.961 . S
C386 C387 1.370 . S
C386 C388 1.363 . S
C386 H402 0.931 . S
C387 C386 1.370 . S
C387 C391 1.408 . S
C388 C386 1.363 . S
C388 C389 1.370 . S
C388 C392 1.524 . S
C389 C381 1.503 . S
C389 C388 1.370 . S
C389 C390 1.403 . S
C390 C389 1.403 . S
C390 C391 1.404 . S
C390 C393 1.539 . S
C391 C387 1.408 . S
C391 C390 1.404 . S
C391 H403 0.930 . S
C392 C388 1.524 . S
C392 H404 0.956 . S
C392 H405 0.961 . S
C392 H406 0.961 . S
C393 C390 1.539 . S
C393 H407 0.958 . S
C393 H408 0.961 . S
C393 H409 0.960 . S
H394 C378 0.931 . S
H395 C383 0.929 . S
H396 C384 0.960 . S
H397 C384 0.962 . S
H398 C384 0.960 . S
H399 C385 0.961 . S
H400 C385 0.961 . S
H401 C385 0.961 . S
H402 C386 0.931 . S
H403 C391 0.930 . S
H404 C392 0.956 . S
H405 C392 0.961 . S
H406 C392 0.961 . S
H407 C393 0.958 . S
H408 C393 0.961 . S
H409 C393 0.960 . S
C410 C411 1.391 . S
C410 C412 1.394 . S
C410 H426 0.931 . S
C411 C410 1.391 . S
C411 C415 1.376 . S
C412 C410 1.394 . S
C412 C413 1.369 . S
C412 C416 1.531 . S
C413 C412 1.369 . S
C413 C414 1.410 . S
C413 C421 1.503 . S
C414 C413 1.410 . S
C414 C415 1.392 . S
C414 C417 1.511 . S
C415 C411 1.376 . S
C415 C414 1.392 . S
C415 H427 0.929 . S
C416 C412 1.531 . S
C416 H428 0.960 . S
C416 H429 0.962 . S
C416 H430 0.960 . S
C417 C414 1.511 . S
C417 H431 0.961 . S
C417 H432 0.961 . S
C417 H433 0.961 . S
C418 C419 1.370 . S
C418 C420 1.363 . S
C418 H434 0.931 . S
C419 C418 1.370 . S
C419 C423 1.408 . S
C420 C418 1.363 . S
C420 C421 1.370 . S
C420 C424 1.524 . S
C421 C413 1.503 . S
C421 C420 1.370 . S
C421 C422 1.403 . S
C422 C421 1.403 . S
C422 C423 1.404 . S
C422 C425 1.539 . S
C423 C419 1.408 . S
C423 C422 1.404 . S
C423 H435 0.937 . S
C424 C420 1.524 . S
C424 H436 0.956 . S
C424 H437 0.961 . S
C424 H438 0.961 . S
C425 C422 1.539 . S
C425 H439 0.958 . S
C425 H440 0.961 . S
C425 H441 0.960 . S
H426 C410 0.931 . S
H427 C415 0.929 . S
H428 C416 0.960 . S
H429 C416 0.962 . S
H430 C416 0.960 . S
H431 C417 0.961 . S
H432 C417 0.961 . S
H433 C417 0.961 . S
H434 C418 0.931 . S
H435 C423 0.937 . S
H436 C424 0.956 . S
H437 C424 0.961 . S
H438 C424 0.961 . S
H439 C425 0.958 . S
H440 C425 0.961 . S
H441 C425 0.960 . S
C442 C443 1.391 . S
C442 C444 1.394 . S
C442 H458 0.931 . S
C443 C442 1.391 . S
C443 C447 1.376 . S
C444 C442 1.394 . S
C444 C445 1.369 . S
C444 C448 1.531 . S
C445 C444 1.369 . S
C445 C446 1.410 . S
C445 C453 1.503 . S
C446 C445 1.410 . S
C446 C447 1.392 . S
C446 C449 1.511 . S
C447 C443 1.376 . S
C447 C446 1.392 . S
C447 H459 0.929 . S
C448 C444 1.531 . S
C448 H460 0.960 . S
C448 H461 0.962 . S
C448 H462 0.960 . S
C449 C446 1.511 . S
C449 H463 0.961 . S
C449 H464 0.961 . S
C449 H465 0.961 . S
C450 C451 1.370 . S
C450 C452 1.363 . S
C450 H466 0.931 1_565 S
C451 C450 1.370 . S
C451 C455 1.408 . S
C452 C450 1.363 . S
C452 C453 1.370 . S
C452 C456 1.524 . S
C453 C445 1.503 . S
C453 C452 1.370 . S
C453 C454 1.403 . S
C454 C453 1.403 . S
C454 C455 1.404 . S
C454 C457 1.539 . S
C455 C451 1.408 . S
C455 C454 1.404 . S
C455 H467 0.930 . S
C456 C452 1.524 . S
C456 H468 0.956 . S
C456 H469 0.961 . S
C456 H470 0.961 . S
C457 C454 1.539 . S
C457 H471 0.958 . S
C457 H472 0.961 . S
C457 H473 0.960 . S
H458 C442 0.931 . S
H459 C447 0.929 . S
H460 C448 0.960 . S
H461 C448 0.962 . S
H462 C448 0.960 . S
H463 C449 0.961 . S
H464 C449 0.961 . S
H465 C449 0.961 . S
H466 C450 0.931 1_545 S
H467 C455 0.930 . S
H468 C456 0.956 . S
H469 C456 0.961 . S
H470 C456 0.961 . S
H471 C457 0.958 . S
H472 C457 0.961 . S
H473 C457 0.960 . S
C474 C475 1.391 . S
C474 C476 1.394 . S
C474 H490 0.931 . S
C475 C474 1.391 . S
C475 C479 1.376 . S
C476 C474 1.394 . S
C476 C477 1.369 . S
C476 C480 1.531 . S
C477 C476 1.369 . S
C477 C478 1.410 . S
C477 C485 1.503 . S
C478 C477 1.410 . S
C478 C479 1.392 . S
C478 C481 1.511 . S
C479 C475 1.376 . S
C479 C478 1.392 . S
C479 H491 0.929 . S
C480 C476 1.531 . S
C480 H492 0.960 . S
C480 H493 0.962 . S
C480 H494 0.960 . S
C481 C478 1.511 . S
C481 H495 0.961 . S
C481 H496 0.961 . S
C481 H497 0.961 . S
C482 C483 1.370 . S
C482 C484 1.363 . S
C482 H498 0.931 . S
C483 C482 1.370 . S
C483 C487 1.408 . S
C484 C482 1.363 . S
C484 C485 1.370 . S
C484 C488 1.524 . S
C485 C477 1.503 . S
C485 C484 1.370 . S
C485 C486 1.403 . S
C486 C485 1.403 . S
C486 C487 1.404 . S
C486 C489 1.539 . S
C487 C483 1.408 . S
C487 C486 1.404 . S
C487 H499 0.930 . S
C488 C484 1.524 . S
C488 H500 0.956 . S
C488 H501 0.961 . S
C488 H502 0.961 . S
C489 C486 1.539 . S
C489 H503 0.958 . S
C489 H504 0.961 . S
C489 H505 0.960 . S
H490 C474 0.931 . S
H491 C479 0.929 . S
H492 C480 0.960 . S
H493 C480 0.962 . S
H494 C480 0.960 . S
H495 C481 0.961 . S
H496 C481 0.961 . S
H497 C481 0.961 . S
H498 C482 0.931 . S
H499 C487 0.930 . S
H500 C488 0.956 . S
H501 C488 0.961 . S
H502 C488 0.961 . S
H503 C489 0.958 . S
H504 C489 0.961 . S
H505 C489 0.960 . S
C506 C507 1.391 . S
C506 C508 1.394 . S
C506 H522 0.931 . S
C507 C506 1.391 . S
C507 C511 1.376 . S
C508 C506 1.394 . S
C508 C509 1.369 . S
C508 C512 1.531 . S
C509 C508 1.369 . S
C509 C510 1.410 . S
C509 C517 1.503 . S
C510 C509 1.410 . S
C510 C511 1.392 . S
C510 C513 1.511 . S
C511 C507 1.376 . S
C511 C510 1.392 . S
C511 H523 0.929 . S
C512 C508 1.531 . S
C512 H524 0.960 . S
C512 H525 0.962 . S
C512 H526 0.960 . S
C513 C510 1.511 . S
C513 H527 0.961 . S
C513 H528 0.961 . S
C513 H529 0.961 . S
C514 C515 1.370 . S
C514 C516 1.363 . S
C514 H530 0.931 . S
C515 C514 1.370 . S
C515 C519 1.408 . S
C516 C514 1.363 . S
C516 C517 1.370 . S
C516 C520 1.524 . S
C517 C509 1.503 . S
C517 C516 1.370 . S
C517 C518 1.403 . S
C518 C517 1.403 . S
C518 C519 1.404 . S
C518 C521 1.539 . S
C519 C515 1.408 . S
C519 C518 1.404 . S
C519 H531 0.930 . S
C520 C516 1.524 . S
C520 H532 0.956 . S
C520 H533 0.961 . S
C520 H534 0.961 . S
C521 C518 1.539 . S
C521 H535 0.958 . S
C521 H536 0.961 . S
C521 H537 0.960 . S
H522 C506 0.931 . S
H523 C511 0.929 . S
H524 C512 0.960 . S
H525 C512 0.962 . S
H526 C512 0.960 . S
H527 C513 0.961 . S
H528 C513 0.961 . S
H529 C513 0.961 . S
H530 C514 0.931 . S
H531 C519 0.930 . S
H532 C520 0.956 . S
H533 C520 0.961 . S
H534 C520 0.961 . S
H535 C521 0.958 . S
H536 C521 0.961 . S
H537 C521 0.960 . S
C538 C539 1.391 . S
C538 C540 1.394 . S
C538 H554 0.931 . S
C539 C538 1.391 . S
C539 C543 1.376 . S
C540 C538 1.394 . S
C540 C541 1.369 . S
C540 C544 1.531 . S
C541 C540 1.369 . S
C541 C542 1.410 . S
C541 C549 1.503 . S
C542 C541 1.410 . S
C542 C543 1.392 . S
C542 C545 1.511 . S
C543 C539 1.376 . S
C543 C542 1.392 . S
C543 H555 0.929 . S
C544 C540 1.531 . S
C544 H556 0.960 . S
C544 H557 0.962 . S
C544 H558 0.960 . S
C545 C542 1.511 . S
C545 H559 0.961 . S
C545 H560 0.961 . S
C545 H561 0.961 . S
C546 C547 1.370 . S
C546 C548 1.363 . S
C546 H562 0.931 . S
C547 C546 1.370 . S
C547 C551 1.408 . S
C548 C546 1.363 . S
C548 C549 1.370 . S
C548 C552 1.524 . S
C549 C541 1.503 . S
C549 C548 1.370 . S
C549 C550 1.403 . S
C550 C549 1.403 . S
C550 C551 1.404 . S
C550 C553 1.539 . S
C551 C547 1.408 . S
C551 C550 1.404 . S
C551 H563 0.930 . S
C552 C548 1.524 . S
C552 H564 0.956 . S
C552 H565 0.961 . S
C552 H566 0.961 . S
C553 C550 1.539 . S
C553 H567 0.958 . S
C553 H568 0.961 . S
C553 H569 0.960 . S
H554 C538 0.931 . S
H555 C543 0.929 . S
H556 C544 0.960 . S
H557 C544 0.962 . S
H558 C544 0.960 . S
H559 C545 0.961 . S
H560 C545 0.961 . S
H561 C545 0.961 . S
H562 C546 0.931 . S
H563 C551 0.930 . S
H564 C552 0.956 . S
H565 C552 0.961 . S
H566 C552 0.961 . S
H567 C553 0.958 . S
H568 C553 0.961 . S
H569 C553 0.960 . S
C570 C571 1.391 . S
C570 C572 1.394 . S
C570 H586 0.931 . S
C571 C570 1.391 . S
C571 C575 1.376 . S
C572 C570 1.394 . S
C572 C573 1.369 . S
C572 C576 1.531 . S
C573 C572 1.369 . S
C573 C574 1.410 . S
C573 C581 1.503 . S
C574 C573 1.410 . S
C574 C575 1.392 . S
C574 C577 1.511 1_455 S
C575 C571 1.376 . S
C575 C574 1.392 . S
C575 H587 0.929 1_455 S
C576 C572 1.531 . S
C576 H588 0.960 . S
C576 H589 0.962 . S
C576 H590 0.960 . S
C577 C574 1.511 1_655 S
C577 H591 0.961 . S
C577 H592 0.961 . S
C577 H593 0.961 . S
C578 C579 1.370 . S
C578 C580 1.363 . S
C578 H594 0.931 . S
C579 C578 1.370 . S
C579 C583 1.408 . S
C580 C578 1.363 . S
C580 C581 1.370 1_556 S
C580 C584 1.524 1_556 S
C581 C573 1.503 . S
C581 C580 1.370 1_554 S
C581 C582 1.403 1_554 S
C582 C581 1.403 1_556 S
C582 C583 1.404 . S
C582 C585 1.539 1_455 S
C583 C579 1.408 . S
C583 C582 1.404 . S
C583 H595 0.930 1_455 S
C584 C580 1.524 1_554 S
C584 H596 0.956 . S
C584 H597 0.961 . S
C584 H598 0.961 . S
C585 C582 1.539 1_655 S
C585 H599 0.958 . S
C585 H600 0.961 . S
C585 H601 0.960 1_556 S
H586 C570 0.931 . S
H587 C575 0.929 1_655 S
H588 C576 0.960 . S
H589 C576 0.962 . S
H590 C576 0.960 . S
H591 C577 0.961 . S
H592 C577 0.961 . S
H593 C577 0.961 . S
H594 C578 0.931 . S
H595 C583 0.930 1_655 S
H596 C584 0.956 . S
H597 C584 0.961 . S
H598 C584 0.961 . S
H599 C585 0.958 . S
H600 C585 0.961 . S
H601 C585 0.960 1_554 S
C602 C603 1.391 . S
C602 C604 1.394 . S
C602 H618 0.931 . S
C603 C602 1.391 . S
C603 C607 1.376 . S
C604 C602 1.394 . S
C604 C605 1.369 . S
C604 C608 1.531 . S
C605 C604 1.369 . S
C605 C606 1.410 . S
C605 C613 1.503 . S
C606 C605 1.410 . S
C606 C607 1.392 . S
C606 C609 1.511 . S
C607 C603 1.376 . S
C607 C606 1.392 . S
C607 H619 0.929 . S
C608 C604 1.531 . S
C608 H620 0.960 . S
C608 H621 0.962 . S
C608 H622 0.960 . S
C609 C606 1.511 . S
C609 H623 0.961 . S
C609 H624 0.961 . S
C609 H625 0.961 . S
C610 C611 1.370 . S
C610 C612 1.363 . S
C610 H626 0.931 1_545 S
C611 C610 1.370 . S
C611 C615 1.408 . S
C612 C610 1.363 . S
C612 C613 1.370 . S
C612 C616 1.524 1_545 S
C613 C605 1.503 . S
C613 C612 1.370 . S
C613 C614 1.403 . S
C614 C613 1.403 . S
C614 C615 1.404 . S
C614 C617 1.539 . S
C615 C611 1.408 . S
C615 C614 1.404 . S
C615 H627 0.930 . S
C616 C612 1.524 1_565 S
C616 H628 0.956 . S
C616 H629 0.961 . S
C616 H630 0.961 . S
C617 C614 1.539 . S
C617 H631 0.958 . S
C617 H632 0.961 . S
C617 H633 0.960 . S
H618 C602 0.931 . S
H619 C607 0.929 . S
H620 C608 0.960 . S
H621 C608 0.962 . S
H622 C608 0.960 . S
H623 C609 0.961 . S
H624 C609 0.961 . S
H625 C609 0.961 . S
H626 C610 0.931 1_565 S
H627 C615 0.930 . S
H628 C616 0.956 . S
H629 C616 0.961 . S
H630 C616 0.961 . S
H631 C617 0.958 . S
H632 C617 0.961 . S
H633 C617 0.960 . S
C634 C635 1.391 . S
C634 C636 1.394 . S
C634 H650 0.931 . S
C635 C634 1.391 . S
C635 C639 1.376 . S
C636 C634 1.394 . S
C636 C637 1.369 . S
C636 C640 1.531 . S
C637 C636 1.369 . S
C637 C638 1.410 . S
C637 C645 1.503 . S
C638 C637 1.410 . S
C638 C639 1.392 . S
C638 C641 1.511 . S
C639 C635 1.376 . S
C639 C638 1.392 . S
C639 H651 0.929 . S
C640 C636 1.531 . S
C640 H652 0.960 . S
C640 H653 0.962 . S
C640 H654 0.960 . S
C641 C638 1.511 . S
C641 H655 0.961 . S
C641 H656 0.961 . S
C641 H657 0.961 . S
C642 C643 1.370 . S
C642 C644 1.363 . S
C642 H658 0.931 . S
C643 C642 1.370 . S
C643 C647 1.408 . S
C644 C642 1.363 . S
C644 C645 1.370 . S
C644 C648 1.524 . S
C645 C637 1.503 . S
C645 C644 1.370 . S
C645 C646 1.403 . S
C646 C645 1.403 . S
C646 C647 1.404 . S
C646 C649 1.539 . S
C647 C643 1.408 . S
C647 C646 1.404 . S
C647 H659 0.930 . S
C648 C644 1.524 . S
C648 H660 0.956 . S
C648 H661 0.961 . S
C648 H662 0.961 . S
C649 C646 1.539 . S
C649 H663 0.958 . S
C649 H664 0.961 . S
C649 H665 0.960 . S
H650 C634 0.931 . S
H651 C639 0.929 . S
H652 C640 0.960 . S
H653 C640 0.962 . S
H654 C640 0.960 . S
H655 C641 0.961 . S
H656 C641 0.961 . S
H657 C641 0.961 . S
H658 C642 0.931 . S
H659 C647 0.930 . S
H660 C648 0.956 . S
H661 C648 0.961 . S
H662 C648 0.961 . S
H663 C649 0.958 . S
H664 C649 0.961 . S
H665 C649 0.960 . S
C666 C667 1.391 . S
C666 C668 1.394 . S
C666 H682 0.931 . S
C667 C666 1.391 . S
C667 C671 1.376 . S
C668 C666 1.394 . S
C668 C669 1.369 . S
C668 C672 1.531 1_545 S
C669 C668 1.369 . S
C669 C670 1.410 . S
C669 C677 1.503 . S
C670 C669 1.410 . S
C670 C671 1.392 . S
C670 C673 1.511 . S
C671 C667 1.376 . S
C671 C670 1.392 . S
C671 H683 0.929 . S
C672 C668 1.531 1_565 S
C672 H684 0.960 . S
C672 H685 0.962 1_565 S
C672 H686 0.960 . S
C673 C670 1.511 . S
C673 H687 0.961 . S
C673 H688 0.961 . S
C673 H689 0.961 . S
C674 C675 1.370 . S
C674 C676 1.363 . S
C674 H690 0.931 . S
C675 C674 1.370 . S
C675 C679 1.408 1_545 S
C676 C674 1.363 . S
C676 C677 1.370 . S
C676 C680 1.524 . S
C677 C669 1.503 . S
C677 C676 1.370 . S
C677 C678 1.403 1_545 S
C678 C677 1.403 1_565 S
C678 C679 1.404 . S
C678 C681 1.539 . S
C679 C675 1.408 1_565 S
C679 C678 1.404 . S
C679 H691 0.930 . S
C680 C676 1.524 . S
C680 H692 0.956 . S
C680 H693 0.961 . S
C680 H694 0.961 . S
C681 C678 1.539 . S
C681 H695 0.958 . S
C681 H696 0.961 . S
C681 H697 0.960 . S
H682 C666 0.931 . S
H683 C671 0.929 . S
H684 C672 0.960 . S
H685 C672 0.962 1_545 S
H686 C672 0.960 . S
H687 C673 0.961 . S
H688 C673 0.961 . S
H689 C673 0.961 . S
H690 C674 0.931 . S
H691 C679 0.930 . S
H692 C680 0.956 . S
H693 C680 0.961 . S
H694 C680 0.961 . S
H695 C681 0.958 . S
H696 C681 0.961 . S
H697 C681 0.960 . S
C698 C699 1.391 . S
C698 C700 1.394 . S
C698 H714 0.931 . S
C699 C698 1.391 . S
C699 C703 1.376 . S
C700 C698 1.394 . S
C700 C701 1.369 . S
C700 C704 1.531 . S
C701 C700 1.369 . S
C701 C702 1.410 . S
C701 C709 1.503 1_556 S
C702 C701 1.410 . S
C702 C703 1.392 . S
C702 C705 1.511 . S
C703 C699 1.376 . S
C703 C702 1.392 . S
C703 H715 0.929 . S
C704 C700 1.531 . S
C704 H716 0.960 . S
C704 H717 0.962 . S
C704 H718 0.960 . S
C705 C702 1.511 . S
C705 H719 0.961 . S
C705 H720 0.961 . S
C705 H721 0.961 . S
C706 C707 1.370 . S
C706 C708 1.363 . S
C706 H722 0.931 . S
C707 C706 1.370 . S
C707 C711 1.408 . S
C708 C706 1.363 . S
C708 C709 1.370 . S
C708 C712 1.518 1_554 S
C709 C701 1.503 1_554 S
C709 C708 1.370 . S
C709 C710 1.403 . S
C710 C709 1.403 . S
C710 C711 1.404 . S
C710 C713 1.539 . S
C711 C707 1.408 . S
C711 C710 1.404 . S
C711 H723 0.930 . S
C712 C708 1.518 1_556 S
C712 H724 0.963 . S
C712 H725 0.970 . S
C712 H726 0.951 1_556 S
C713 C710 1.539 . S
C713 H727 0.958 . S
C713 H728 0.961 . S
C713 H729 0.960 1_554 S
H714 C698 0.931 . S
H715 C703 0.929 . S
H716 C704 0.960 . S
H717 C704 0.962 . S
H718 C704 0.960 . S
H719 C705 0.961 . S
H720 C705 0.961 . S
H721 C705 0.961 . S
H722 C706 0.931 . S
H723 C711 0.930 . S
H724 C712 0.963 . S
H725 C712 0.970 . S
H726 C712 0.951 1_554 S
H727 C713 0.958 . S
H728 C713 0.961 . S
H729 C713 0.960 1_556 S
C730 C731 1.391 . S
C730 C732 1.394 . S
C730 H746 0.931 . S
C731 C730 1.391 . S
C731 C735 1.376 1_455 S
C732 C730 1.394 . S
C732 C733 1.369 . S
C732 C736 1.531 . S
C733 C732 1.369 . S
C733 C734 1.410 1_455 S
C733 C741 1.503 . S
C734 C733 1.410 1_655 S
C734 C735 1.392 . S
C734 C737 1.511 . S
C735 C731 1.376 1_655 S
C735 C734 1.392 . S
C735 H747 0.929 . S
C736 C732 1.531 . S
C736 H748 0.960 . S
C736 H749 0.962 . S
C736 H750 0.960 . S
C737 C734 1.511 . S
C737 H751 0.961 . S
C737 H752 0.961 . S
C737 H753 0.961 . S
C738 C739 1.370 . S
C738 C740 1.363 . S
C738 H754 0.931 . S
C739 C738 1.370 . S
C739 C743 1.408 . S
C740 C738 1.363 . S
C740 C741 1.370 . S
C740 C744 1.524 . S
C741 C733 1.503 . S
C741 C740 1.370 . S
C741 C742 1.403 . S
C742 C741 1.403 . S
C742 C743 1.404 . S
C742 C745 1.539 . S
C743 C739 1.408 . S
C743 C742 1.404 . S
C743 H755 0.930 . S
C744 C740 1.524 . S
C744 H756 0.956 . S
C744 H757 0.961 . S
C744 H758 0.961 . S
C745 C742 1.539 . S
C745 H759 0.958 . S
C745 H760 0.961 1_455 S
C745 H761 0.960 1_455 S
H746 C730 0.931 . S
H747 C735 0.929 . S
H748 C736 0.960 . S
H749 C736 0.962 . S
H750 C736 0.960 . S
H751 C737 0.961 . S
H752 C737 0.961 . S
H753 C737 0.961 . S
H754 C738 0.931 . S
H755 C743 0.930 . S
H756 C744 0.956 . S
H757 C744 0.961 . S
H758 C744 0.961 . S
H759 C745 0.958 . S
H760 C745 0.961 1_655 S
H761 C745 0.960 1_655 S
C187 C10 3.171 . S
C195 C185 3.101 . S
C219 C55 1.291 . S
C227 C163 1.292 . S
C251 C90 1.953 . S
C259 C174 1.904 . S
C283 C19 2.925 . S
C291 C179 2.909 . S
C323 C157 1.171 . S
C315 C46 1.179 . S
C355 C168 1.892 . S
C347 C99 1.913 . S
C379 C50 1.944 . S
C387 C141 1.890 . S
C411 C95 0.476 . S
C419 C146 0.501 1_655 S
C443 C6 1.141 . S
C451 C124 1.148 1_565 S
C483 C135 1.847 . S
C475 C59 1.881 . S
C515 C152 0.436 . S
C507 C86 0.416 . S
C539 C15 1.306 . S
C547 C130 1.301 . S
C579 C147 1.223 . S
C571 C18 1.155 . S
C603 C49 1.519 . S
C611 C125 1.531 . S
C635 C98 1.399 . S
C643 C136 1.453 . S
C675 C169 1.472 . S
C667 C58 1.397 . S
C707 C180 1.763 . S
C699 C89 1.651 . S
C731 C9 1.490 . S
C739 C158 1.527 . S
