# Generated by pormake.
# Topology wbl, (4,4)-cn, num edge types: 1
# Building blocks:
#     Node 0, Type 0, BuildingBlock: NAWXER_clean_linker_0, # of connection points: 4
#     Node 1, Type 0, BuildingBlock: NAWXER_clean_linker_0, # of connection points: 4
#     Node 2, Type 0, BuildingBlock: NAWXER_clean_linker_0, # of connection points: 4
#     Node 3, Type 0, BuildingBlock: NAWXER_clean_linker_0, # of connection points: 4
#     Node 4, Type 0, BuildingBlock: NAWXER_clean_linker_0, # of connection points: 4
#     Node 5, Type 0, BuildingBlock: NAWXER_clean_linker_0, # of connection points: 4
#     Node 6, Type 0, BuildingBlock: NAWXER_clean_linker_0, # of connection points: 4
#     Node 7, Type 0, BuildingBlock: NAWXER_clean_linker_0, # of connection points: 4
#     Node 8, Type 1, BuildingBlock: CEKHIL_clean_sbu_0, # of connection points: 4
#     Node 9, Type 1, BuildingBlock: CEKHIL_clean_sbu_0, # of connection points: 4
#     Node 10, Type 1, BuildingBlock: CEKHIL_clean_sbu_0, # of connection points: 4
#     Node 11, Type 1, BuildingBlock: CEKHIL_clean_sbu_0, # of connection points: 4
#     Node 12, Type 1, BuildingBlock: CEKHIL_clean_sbu_0, # of connection points: 4
#     Node 13, Type 1, BuildingBlock: CEKHIL_clean_sbu_0, # of connection points: 4
#     Node 14, Type 1, BuildingBlock: CEKHIL_clean_sbu_0, # of connection points: 4
#     Node 15, Type 1, BuildingBlock: CEKHIL_clean_sbu_0, # of connection points: 4
#     Edge 16, Type (0, 1), BuildingBlock: ZUJKAS_clean_linker_0, # of connection points: 2
#     Edge 17, Type (0, 1), BuildingBlock: ZUJKAS_clean_linker_0, # of connection points: 2
#     Edge 18, Type (0, 1), BuildingBlock: ZUJKAS_clean_linker_0, # of connection points: 2
#     Edge 19, Type (0, 1), BuildingBlock: ZUJKAS_clean_linker_0, # of connection points: 2
#     Edge 20, Type (0, 1), BuildingBlock: ZUJKAS_clean_linker_0, # of connection points: 2
#     Edge 21, Type (0, 1), BuildingBlock: ZUJKAS_clean_linker_0, # of connection points: 2
#     Edge 22, Type (0, 1), BuildingBlock: ZUJKAS_clean_linker_0, # of connection points: 2
#     Edge 23, Type (0, 1), BuildingBlock: ZUJKAS_clean_linker_0, # of connection points: 2
#     Edge 24, Type (0, 1), BuildingBlock: ZUJKAS_clean_linker_0, # of connection points: 2
#     Edge 25, Type (0, 1), BuildingBlock: ZUJKAS_clean_linker_0, # of connection points: 2
#     Edge 26, Type (0, 1), BuildingBlock: ZUJKAS_clean_linker_0, # of connection points: 2
#     Edge 27, Type (0, 1), BuildingBlock: ZUJKAS_clean_linker_0, # of connection points: 2
#     Edge 28, Type (0, 1), BuildingBlock: ZUJKAS_clean_linker_0, # of connection points: 2
#     Edge 29, Type (0, 1), BuildingBlock: ZUJKAS_clean_linker_0, # of connection points: 2
#     Edge 30, Type (0, 1), BuildingBlock: ZUJKAS_clean_linker_0, # of connection points: 2
#     Edge 31, Type (0, 1), BuildingBlock: ZUJKAS_clean_linker_0, # of connection points: 2
#     Edge 32, Type (0, 1), BuildingBlock: ZUJKAS_clean_linker_0, # of connection points: 2
#     Edge 33, Type (0, 1), BuildingBlock: ZUJKAS_clean_linker_0, # of connection points: 2
#     Edge 34, Type (0, 1), BuildingBlock: ZUJKAS_clean_linker_0, # of connection points: 2
#     Edge 35, Type (0, 1), BuildingBlock: ZUJKAS_clean_linker_0, # of connection points: 2
#     Edge 36, Type (0, 1), BuildingBlock: ZUJKAS_clean_linker_0, # of connection points: 2
#     Edge 37, Type (0, 1), BuildingBlock: ZUJKAS_clean_linker_0, # of connection points: 2
#     Edge 38, Type (0, 1), BuildingBlock: ZUJKAS_clean_linker_0, # of connection points: 2
#     Edge 39, Type (0, 1), BuildingBlock: ZUJKAS_clean_linker_0, # of connection points: 2
#     Edge 40, Type (0, 1), BuildingBlock: ZUJKAS_clean_linker_0, # of connection points: 2
#     Edge 41, Type (0, 1), BuildingBlock: ZUJKAS_clean_linker_0, # of connection points: 2
#     Edge 42, Type (0, 1), BuildingBlock: ZUJKAS_clean_linker_0, # of connection points: 2
#     Edge 43, Type (0, 1), BuildingBlock: ZUJKAS_clean_linker_0, # of connection points: 2
#     Edge 44, Type (0, 1), BuildingBlock: ZUJKAS_clean_linker_0, # of connection points: 2
#     Edge 45, Type (0, 1), BuildingBlock: ZUJKAS_clean_linker_0, # of connection points: 2
#     Edge 46, Type (0, 1), BuildingBlock: ZUJKAS_clean_linker_0, # of connection points: 2
#     Edge 47, Type (0, 1), BuildingBlock: ZUJKAS_clean_linker_0, # of connection points: 2
# Relax obj value: 0.169
# Max RMSD: 0.172
# Mean RMSD: 0.144
data_MOF--net-wbl--node1-CEKHIL_clean_sbu_0--node2-NAWXER_clean_linker_0--edge1-ZUJKAS_clean_linker_0
_symmetry_space_group_name_H-M    P1
_symmetry_Int_Tables_number       1
_symmetry_cell_setting            triclinic
loop_
_symmetry_equiv_pos_as_xyz
'x, y, z'
_cell_length_a     55.74225
_cell_length_b     56.013329
_cell_length_c     97.833266
_cell_angle_alpha  90.286645
_cell_angle_beta   90.100733
_cell_angle_gamma 90.021511
loop_
_atom_site_label
_atom_site_type_symbol
_atom_site_fract_x
_atom_site_fract_y
_atom_site_fract_z
_atom_type_partial_charge
C0 C 0.08758 0.96731 0.35133 0.0
C1 C 0.09979 0.97733 0.36257 0.0
C2 C 0.07415 0.98171 0.34258 0.0
C3 C 0.07302 0.00651 0.3447 0.0
C4 C 0.09849 0.00216 0.36471 0.0
C5 C 0.08518 0.01657 0.35589 0.0
C6 C 0.05807 0.02186 0.33581 0.0
C7 C 0.11696 0.99331 0.31014 0.0
C8 C 0.10932 0.97561 0.30087 0.0
C9 C 0.10035 0.00814 0.31656 0.0
C10 C 0.07576 0.00547 0.31392 0.0
C11 C 0.08472 0.97337 0.29795 0.0
C12 C 0.06806 0.98838 0.30434 0.0
C13 C 0.05819 0.0202 0.32141 0.0
C14 C 0.99019 0.1 0.30565 0.0
C15 C 0.9763 0.08793 0.29579 0.0
C16 C 0.00732 0.08769 0.31331 0.0
C17 C 0.0105 0.063 0.31145 0.0
C18 C 0.98076 0.06357 0.29332 0.0
C19 C 0.99768 0.05125 0.30107 0.0
C20 C 0.02694 0.04914 0.32024 0.0
C21 C 0.97036 0.07838 0.34913 0.0
C22 C 0.97978 0.09438 0.3589 0.0
C23 C 0.98569 0.06458 0.341 0.0
C24 C 0.01068 0.06667 0.34244 0.0
C25 C 0.00484 0.09667 0.36009 0.0
C26 C 0.0201 0.08279 0.35204 0.0
C27 C 0.02719 0.05116 0.33465 0.0
H28 H 0.08827 0.94828 0.34934 0.0
H29 H 0.06432 0.97335 0.33428 0.0
H30 H 0.10724 0.01043 0.37342 0.0
H31 H 0.0843 0.0356 0.35786 0.0
H32 H 0.13577 0.99532 0.3127 0.0
H33 H 0.10668 0.02148 0.32377 0.0
H34 H 0.07839 0.96003 0.29074 0.0
H35 H 0.04914 0.98621 0.30211 0.0
H36 H 0.98725 0.11874 0.30782 0.0
H37 H 0.01769 0.09738 0.32089 0.0
H38 H 0.97081 0.05388 0.28555 0.0
H39 H 0.00019 0.03231 0.29925 0.0
H40 H 0.95117 0.07594 0.34808 0.0
H41 H 0.97805 0.05189 0.33383 0.0
H42 H 0.01271 0.10909 0.36733 0.0
H43 H 0.03933 0.08462 0.35332 0.0
N44 N 0.04277 0.03748 0.34187 0.0
N45 N 0.04245 0.03367 0.31416 0.0
C46 C 0.9468 0.48421 0.60335 0.0
C47 C 0.95846 0.47125 0.61369 0.0
C48 C 0.95971 0.49987 0.59507 0.0
C49 C 0.98455 0.50272 0.59689 0.0
C50 C 0.98335 0.47415 0.61545 0.0
C51 C 0.99622 0.48985 0.6072 0.0
C52 C 0.99833 0.51968 0.58842 0.0
C53 C 0.97721 0.45939 0.56151 0.0
C54 C 0.95867 0.46514 0.55235 0.0
C55 C 0.9898 0.47732 0.56833 0.0
C56 C 0.98403 0.50139 0.56622 0.0
C57 C 0.9532 0.4893 0.55002 0.0
C58 C 0.96598 0.50733 0.55683 0.0
C59 C 0.99678 0.52013 0.57402 0.0
C60 C 0.07614 0.58803 0.55976 0.0
C61 C 0.06455 0.60468 0.55133 0.0
C62 C 0.0629 0.57075 0.56666 0.0
C63 C 0.03785 0.56989 0.56529 0.0
C64 C 0.03957 0.60307 0.54949 0.0
C65 C 0.02633 0.58567 0.55635 0.0
C66 C 0.02363 0.55313 0.57355 0.0
C67 C 0.05021 0.60998 0.60287 0.0
C68 C 0.06726 0.60124 0.61218 0.0
C69 C 0.03686 0.5942 0.59475 0.0
C70 C 0.04025 0.56944 0.5959 0.0
C71 C 0.07083 0.57646 0.61314 0.0
C72 C 0.05729 0.56071 0.60516 0.0
C73 C 0.02544 0.55246 0.58794 0.0
H74 H 0.92759 0.48276 0.60189 0.0
H75 H 0.9502 0.51008 0.58741 0.0
H76 H 0.99294 0.46423 0.6232 0.0
H77 H 0.01536 0.49182 0.60879 0.0
H78 H 0.98168 0.44096 0.56363 0.0
H79 H 0.00393 0.47238 0.57539 0.0
H80 H 0.93912 0.49422 0.54293 0.0
H81 H 0.96142 0.52584 0.55501 0.0
H82 H 0.09534 0.58891 0.56143 0.0
H83 H 0.07215 0.55841 0.57333 0.0
H84 H 0.03023 0.6155 0.54292 0.0
H85 H 0.00703 0.58509 0.55508 0.0
H86 H 0.04707 0.62899 0.60197 0.0
H87 H 0.02354 0.60129 0.58779 0.0
H88 H 0.08354 0.56921 0.6204 0.0
H89 H 0.06005 0.54167 0.60625 0.0
N90 N 0.01278 0.53572 0.59484 0.0
N91 N 0.00931 0.53698 0.56707 0.0
C92 C 0.5499 0.44232 0.84932 0.0
C93 C 0.56212 0.45224 0.86058 0.0
C94 C 0.5348 0.45648 0.84132 0.0
C95 C 0.53195 0.48089 0.8443 0.0
C96 C 0.55934 0.4767 0.86347 0.0
C97 C 0.54432 0.49084 0.85545 0.0
C98 C 0.51523 0.49595 0.83634 0.0
C99 C 0.57494 0.47665 0.8086 0.0
C100 C 0.56853 0.45893 0.79906 0.0
C101 C 0.55735 0.48906 0.8158 0.0
C102 C 0.53301 0.48396 0.81364 0.0
C103 C 0.5441 0.45416 0.79667 0.0
C104 C 0.52643 0.46681 0.80383 0.0
C105 C 0.51469 0.49627 0.82192 0.0
C106 C 0.45049 0.5796 0.81026 0.0
C107 C 0.43315 0.56973 0.80142 0.0
C108 C 0.46704 0.56495 0.81688 0.0
C109 C 0.4666 0.54017 0.81475 0.0
C110 C 0.43355 0.54496 0.79886 0.0
C111 C 0.45028 0.53036 0.80538 0.0
C112 C 0.48267 0.52437 0.82254 0.0
C113 C 0.42742 0.55234 0.85251 0.0
C114 C 0.43714 0.5636 0.86412 0.0
C115 C 0.4423 0.53973 0.8435 0.0
C116 C 0.46723 0.53876 0.84577 0.0
C117 C 0.46202 0.56269 0.86634 0.0
C118 C 0.47688 0.55041 0.85726 0.0
C119 C 0.48334 0.52427 0.83699 0.0
H120 H 0.55135 0.42346 0.84699 0.0
H121 H 0.52492 0.4482 0.83302 0.0
H122 H 0.5687 0.48491 0.87199 0.0
H123 H 0.54236 0.50959 0.85796 0.0
H124 H 0.5936 0.48053 0.81076 0.0
H125 H 0.56277 0.50245 0.82322 0.0
H126 H 0.53871 0.4407 0.7893 0.0
H127 H 0.50769 0.46276 0.802 0.0
H128 H 0.45106 0.59864 0.81223 0.0
H129 H 0.4799 0.57289 0.82386 0.0
H130 H 0.42032 0.53666 0.79225 0.0
H131 H 0.44981 0.51127 0.80356 0.0
H132 H 0.40825 0.55254 0.85069 0.0
H133 H 0.43421 0.53021 0.83501 0.0
H134 H 0.46997 0.57137 0.87517 0.0
H135 H 0.49598 0.54985 0.8593 0.0
N136 N 0.49966 0.51008 0.84329 0.0
N137 N 0.49831 0.5103 0.81552 0.0
C138 C 0.49575 0.92623 0.05984 0.0
C139 C 0.47695 0.93448 0.05151 0.0
C140 C 0.51143 0.94227 0.06609 0.0
C141 C 0.50861 0.96689 0.0642 0.0
C142 C 0.47491 0.95911 0.04904 0.0
C143 C 0.49071 0.97523 0.05533 0.0
C144 C 0.52345 0.98378 0.07216 0.0
C145 C 0.46944 0.9534 0.10159 0.0
C146 C 0.47989 0.9374 0.11087 0.0
C147 C 0.48386 0.96804 0.09352 0.0
C148 C 0.50895 0.96704 0.09468 0.0
C149 C 0.50501 0.93623 0.11189 0.0
C150 C 0.51942 0.95113 0.10396 0.0
C151 C 0.52429 0.98307 0.08655 0.0
C152 C 0.57851 0.07199 0.10144 0.0
C153 C 0.59093 0.06343 0.11292 0.0
C154 C 0.56644 0.05614 0.09274 0.0
C155 C 0.56712 0.03141 0.09517 0.0
C156 C 0.59167 0.03872 0.11529 0.0
C157 C 0.57986 0.02289 0.10652 0.0
C158 C 0.55309 0.01443 0.08669 0.0
C159 C 0.6071 0.04912 0.06025 0.0
C160 C 0.5968 0.06475 0.05071 0.0
C161 C 0.59298 0.03213 0.06685 0.0
C162 C 0.56826 0.03071 0.06416 0.0
C163 C 0.57235 0.06224 0.04741 0.0
C164 C 0.55823 0.04528 0.05405 0.0
C165 C 0.55264 0.01482 0.07223 0.0
H166 H 0.49821 0.90732 0.06164 0.0
H167 H 0.52548 0.93547 0.07268 0.0
H168 H 0.46062 0.96597 0.04265 0.0
H169 H 0.48836 0.9942 0.05371 0.0
H170 H 0.45011 0.95463 0.10064 0.0
H171 H 0.47544 0.98044 0.08653 0.0
H172 H 0.51349 0.92426 0.1191 0.0
H173 H 0.53875 0.95022 0.10504 0.0
H174 H 0.57738 0.09097 0.0995 0.0
H175 H 0.55606 0.06329 0.08434 0.0
H176 H 0.60126 0.03164 0.12402 0.0
H177 H 0.58049 0.00394 0.10867 0.0
H178 H 0.62598 0.05033 0.0628 0.0
H179 H 0.60124 0.02054 0.07433 0.0
H180 H 0.56384 0.07413 0.04018 0.0
H181 H 0.53923 0.04431 0.05174 0.0
N182 N 0.5376 -0.00035 0.06547 0.0
N183 N 0.53907 0.99836 0.09328 0.0
C184 C 0.05156 0.59593 0.90307 0.0
C185 C 0.06418 0.58535 0.89218 0.0
C186 C 0.03588 0.58234 0.91102 0.0
C187 C 0.03273 0.55789 0.90829 0.0
C188 C 0.06103 0.56084 0.88955 0.0
C189 C 0.04534 0.54731 0.89747 0.0
C190 C 0.01587 0.54325 0.91636 0.0
C191 C 0.07675 0.56251 0.94347 0.0
C192 C 0.07061 0.58036 0.953 0.0
C193 C 0.05896 0.5499 0.93651 0.0
C194 C 0.03468 0.55494 0.93887 0.0
C195 C 0.04625 0.58504 0.95558 0.0
C196 C 0.02838 0.57222 0.94864 0.0
C197 C 0.0161 0.54257 0.93077 0.0
C198 C 0.95215 0.45821 0.94179 0.0
C199 C 0.93815 0.46692 0.95265 0.0
C200 C 0.96766 0.47341 0.9348 0.0
C201 C 0.96903 0.49771 0.93834 0.0
C202 C 0.9406 0.49092 0.95669 0.0
C203 C 0.95597 0.50618 0.9496 0.0
C204 C 0.98415 0.5143 0.93041 0.0
C205 C 0.92633 0.48856 0.90127 0.0
C206 C 0.93512 0.47732 0.88942 0.0
C207 C 0.94199 0.50079 0.91006 0.0
C208 C 0.96675 0.50146 0.90729 0.0
C209 C 0.95986 0.47798 0.88673 0.0
C210 C 0.97546 0.48994 0.89555 0.0
C211 C 0.98368 0.51525 0.91596 0.0
H212 H 0.05328 0.61484 0.90522 0.0
H213 H 0.0259 0.59103 0.91912 0.0
H214 H 0.07072 0.55206 0.88136 0.0
H215 H 0.04319 0.52847 0.89519 0.0
H216 H 0.09535 0.55868 0.94115 0.0
H217 H 0.06416 0.53643 0.9291 0.0
H218 H 0.04105 0.59856 0.96295 0.0
H219 H 0.00969 0.57623 0.95061 0.0
H220 H 0.95092 0.43969 0.93863 0.0
H221 H 0.97827 0.46625 0.92647 0.0
H222 H 0.92993 0.49813 0.96498 0.0
H223 H 0.95705 0.52478 0.95263 0.0
H224 H 0.9073 0.48853 0.90349 0.0
H225 H 0.93468 0.51011 0.91883 0.0
H226 H 0.96716 0.46924 0.87775 0.0
H227 H 0.99444 0.49026 0.89315 0.0
N228 N -0.00027 0.52954 0.90953 0.0
N229 N 0.0002 0.52819 0.93729 0.0
C230 C 0.43988 0.55093 0.15455 0.0
C231 C 0.4506 0.56678 0.1453 0.0
C232 C 0.45401 0.53515 0.16212 0.0
C233 C 0.47901 0.53483 0.16044 0.0
C234 C 0.47566 0.56664 0.14379 0.0
C235 C 0.48972 0.55061 0.1512 0.0
C236 C 0.49403 0.51756 0.16794 0.0
C237 C 0.47487 0.57426 0.19827 0.0
C238 C 0.45558 0.56705 0.20651 0.0
C239 C 0.48742 0.55758 0.19047 0.0
C240 C 0.48104 0.5334 0.19086 0.0
C241 C 0.44923 0.54279 0.20693 0.0
C242 C 0.46212 0.52598 0.19926 0.0
C243 C 0.49414 0.51613 0.18231 0.0
C244 C 0.58068 0.45465 0.19196 0.0
C245 C 0.57212 0.43785 0.20139 0.0
C246 C 0.56494 0.47061 0.18572 0.0
C247 C 0.54033 0.46992 0.18871 0.0
C248 C 0.54764 0.4381 0.2049 0.0
C249 C 0.53191 0.45412 0.19866 0.0
C250 C 0.52333 0.48523 0.1812 0.0
C251 C 0.5506 0.43006 0.15167 0.0
C252 C 0.56309 0.43933 0.1404 0.0
C253 C 0.53739 0.44514 0.16024 0.0
C254 C 0.5368 0.46987 0.15788 0.0
C255 C 0.5621 0.46405 0.13796 0.0
C256 C 0.54908 0.47912 0.1466 0.0
C257 C 0.5227 0.48614 0.16676 0.0
H258 H 0.42059 0.55068 0.15587 0.0
H259 H 0.44537 0.52287 0.16908 0.0
H260 H 0.48432 0.57847 0.13659 0.0
H261 H 0.50898 0.55054 0.14973 0.0
H262 H 0.47992 0.5929 0.19765 0.0
H263 H 0.50206 0.56357 0.18407 0.0
H264 H 0.43442 0.53687 0.21322 0.0
H265 H 0.45704 0.50733 0.19966 0.0
H266 H 0.59951 0.45524 0.18925 0.0
H267 H 0.57191 0.48316 0.17832 0.0
H268 H 0.54044 0.42527 0.21206 0.0
H269 H 0.513 0.45349 0.20119 0.0
H270 H 0.55098 0.41113 0.15388 0.0
H271 H 0.52746 0.4374 0.16862 0.0
H272 H 0.57096 0.47177 0.12919 0.0
H273 H 0.54863 0.49808 0.14445 0.0
N274 N 0.50828 0.50251 0.16068 0.0
N275 N 0.50883 0.50009 0.18847 0.0
C276 C 0.47924 0.94113 0.40575 0.0
C277 C 0.46389 0.95215 0.39625 0.0
C278 C 0.49514 0.95479 0.41363 0.0
C279 C 0.49586 0.97974 0.41222 0.0
C280 C 0.46445 0.97715 0.39503 0.0
C281 C 0.48036 0.99076 0.40288 0.0
C282 C 0.51373 0.99438 0.41971 0.0
C283 C 0.46352 0.9666 0.45141 0.0
C284 C 0.47385 0.94819 0.45914 0.0
C285 C 0.47779 0.98114 0.44327 0.0
C286 C 0.50265 0.97759 0.44276 0.0
C287 C 0.4988 0.94475 0.45872 0.0
C288 C 0.51317 0.9596 0.4507 0.0
C289 C 0.51756 0.99274 0.43393 0.0
C290 C 0.58068 0.07864 0.44408 0.0
C291 C 0.59658 0.06934 0.45384 0.0
C292 C 0.56428 0.06373 0.43745 0.0
C293 C 0.56395 0.03911 0.44017 0.0
C294 C 0.59531 0.04498 0.45713 0.0
C295 C 0.5791 0.02999 0.45035 0.0
C296 C 0.5476 0.0229 0.43263 0.0
C297 C 0.59817 0.05172 0.40087 0.0
C298 C 0.58706 0.06608 0.39095 0.0
C299 C 0.58437 0.03819 0.40989 0.0
C300 C 0.55921 0.03893 0.40924 0.0
C301 C 0.56184 0.06684 0.3904 0.0
C302 C 0.54808 0.05325 0.39938 0.0
C303 C 0.54436 0.02394 0.41831 0.0
H304 H 0.47923 0.92192 0.40693 0.0
H305 H 0.50731 0.94578 0.42053 0.0
H306 H 0.4532 0.98616 0.38764 0.0
H307 H 0.48076 0.00995 0.40154 0.0
H308 H 0.4443 0.96944 0.45145 0.0
H309 H 0.46942 0.99512 0.43731 0.0
H310 H 0.50712 0.93068 0.46462 0.0
H311 H 0.53238 0.95674 0.45045 0.0
H312 H 0.58106 0.09744 0.44153 0.0
H313 H 0.55205 0.07142 0.43008 0.0
H314 H 0.60746 0.03735 0.46457 0.0
H315 H 0.5789 0.01114 0.45278 0.0
H316 H 0.61753 0.05042 0.40142 0.0
H317 H 0.59337 0.02681 0.41721 0.0
H318 H 0.55269 0.07796 0.38302 0.0
H319 H 0.5287 0.05402 0.39868 0.0
N320 N 0.52733 0.00989 0.41244 0.0
N321 N 0.53428 0.00707 0.43989 0.0
C322 C 0.09614 0.98776 0.65142 0.0
C323 C 0.08568 0.97219 0.64181 0.0
C324 C 0.08176 0.00255 0.65951 0.0
C325 C 0.05669 0.00208 0.65807 0.0
C326 C 0.06058 0.97162 0.64048 0.0
C327 C 0.04622 0.98662 0.64845 0.0
C328 C 0.0414 0.01818 0.66629 0.0
C329 C 0.06793 0.9615 0.69423 0.0
C330 C 0.08601 0.96979 0.70309 0.0
C331 C 0.05366 0.97758 0.68706 0.0
C332 C 0.05717 0.00223 0.68862 0.0
C333 C 0.08939 0.9945 0.70474 0.0
C334 C 0.07487 0.01063 0.69765 0.0
C335 C 0.04249 0.01909 0.68067 0.0
C336 C 0.95852 0.08324 0.69393 0.0
C337 C 0.96874 0.09776 0.70416 0.0
C338 C 0.9727 0.06713 0.6866 0.0
C339 C 0.99745 0.06556 0.68918 0.0
C340 C 0.99325 0.09508 0.70725 0.0
C341 C 0.00744 0.0791 0.69985 0.0
C342 C 0.01304 0.04988 0.68085 0.0
C343 C 0.98477 0.10594 0.65207 0.0
C344 C 0.97135 0.09689 0.641 0.0
C345 C 0.99793 0.09056 0.66044 0.0
C346 C 0.9976 0.06579 0.65806 0.0
C347 C 0.97122 0.07209 0.63863 0.0
C348 C 0.98423 0.05675 0.64704 0.0
C349 C 0.01226 0.04926 0.66639 0.0
H350 H 0.11544 0.98855 0.65264 0.0
H351 H 0.09022 0.01463 0.66673 0.0
H352 H 0.05209 0.96002 0.633 0.0
H353 H 0.02692 0.98613 0.64714 0.0
H354 H 0.06507 0.94255 0.69269 0.0
H355 H 0.03991 0.97077 0.68023 0.0
H356 H 0.10311 0.00129 0.71159 0.0
H357 H 0.07773 0.02963 0.699 0.0
H358 H 0.93973 0.08486 0.69125 0.0
H359 H 0.96441 0.05625 0.67872 0.0
H360 H 0.00156 0.10561 0.71528 0.0
H361 H 0.0264 0.07783 0.7022 0.0
H362 H 0.98525 0.12492 0.65421 0.0
H363 H 0.00866 0.09809 0.66863 0.0
H364 H 0.9616 0.0645 0.63002 0.0
H365 H 0.98398 0.03776 0.64488 0.0
N366 N 0.02631 0.03324 0.65968 0.0
N367 N 0.02833 0.03491 0.68745 0.0
Co368 Co 0.32783 0.68156 0.00933 0.0
O369 O 0.30348 0.65768 0.00691 0.0
O370 O 0.29907 0.69606 0.0021 0.0
C371 C 0.33928 0.67012 0.0304 0.0
O372 O 0.34828 0.71156 0.011 0.0
Co373 Co 0.38138 0.66771 0.01292 0.0
O374 O 0.38504 0.70156 0.01849 0.0
C375 C 0.35912 0.6653 0.98553 0.0
C376 C 0.28985 0.67474 0.00244 0.0
C377 C 0.36921 0.71715 0.01559 0.0
O378 O 0.33989 0.67506 0.99021 0.0
O379 O 0.37697 0.65959 0.9931 0.0
O380 O 0.32062 0.68376 0.02885 0.0
O381 O 0.34896 0.66234 0.01926 0.0
Co382 Co 0.35265 0.83874 0.24919 0.0
O383 O 0.33221 0.86607 0.25131 0.0
O384 O 0.32225 0.82899 0.25674 0.0
C385 C 0.36516 0.84734 0.22791 0.0
O386 O 0.3681 0.80594 0.24788 0.0
Co387 Co 0.40756 0.84373 0.24511 0.0
O388 O 0.40551 0.80962 0.23969 0.0
C389 C 0.38638 0.85269 0.27232 0.0
C390 C 0.31625 0.85138 0.25603 0.0
C391 C 0.38747 0.79691 0.24295 0.0
O392 O 0.3661 0.84437 0.26812 0.0
O393 O 0.40445 0.85551 0.26442 0.0
O394 O 0.34469 0.83671 0.22975 0.0
O395 O 0.37624 0.85402 0.23887 0.0
Co396 Co 0.20518 0.84862 0.50096 0.0
O397 O 0.17562 0.83162 0.50369 0.0
O398 O 0.2119 0.81734 0.5081 0.0
C399 C 0.19595 0.86233 0.48001 0.0
O400 O 0.23968 0.85982 0.49889 0.0
Co401 Co 0.20707 0.90343 0.4972 0.0
O402 O 0.24002 0.89709 0.49059 0.0
C403 C 0.19888 0.88335 0.52467 0.0
C404 C 0.18882 0.81401 0.5079 0.0
C405 C 0.25069 0.87773 0.49364 0.0
O406 O 0.20293 0.86218 0.52005 0.0
O407 O 0.19836 0.90189 0.51706 0.0
O408 O 0.20428 0.84082 0.48149 0.0
O409 O 0.1919 0.87405 0.49117 0.0
Co410 Co 0.17677 0.71683 0.76044 0.0
O411 O 0.15553 0.74368 0.75914 0.0
O412 O 0.19369 0.74371 0.75278 0.0
C413 C 0.16678 0.70629 0.78188 0.0
O414 O 0.20444 0.69321 0.76092 0.0
Co415 Co 0.15682 0.66541 0.76427 0.0
O416 O 0.19098 0.65711 0.76735 0.0
C417 C 0.15175 0.68945 0.73773 0.0
C418 C 0.17363 0.75534 0.75416 0.0
C419 C 0.20802 0.67141 0.76448 0.0
O420 O 0.16666 0.70574 0.74157 0.0
O421 O 0.14376 0.67335 0.74577 0.0
O422 O 0.18205 0.72347 0.7799 0.0
O423 O 0.15658 0.69791 0.77102 0.0
Co424 Co 0.85828 0.2089 0.49432 0.0
O425 O 0.88223 0.23313 0.49687 0.0
O426 O 0.84402 0.23673 0.50275 0.0
C427 C 0.86829 0.19943 0.47266 0.0
O428 O 0.82826 0.18831 0.49274 0.0
Co429 Co 0.87264 0.15611 0.48878 0.0
O430 O 0.83845 0.15289 0.48353 0.0
C431 C 0.87781 0.17642 0.51655 0.0
C432 C 0.86532 0.24615 0.50214 0.0
C433 C 0.82273 0.16803 0.48734 0.0
O434 O 0.86638 0.19529 0.51285 0.0
O435 O 0.88356 0.15967 0.50822 0.0
O436 O 0.85467 0.21779 0.4751 0.0
O437 O 0.87695 0.18896 0.4833 0.0
Co438 Co 0.82629 0.35462 0.74544 0.0
O439 O 0.80239 0.37908 0.74721 0.0
O440 O 0.79697 0.34098 0.75241 0.0
C441 C 0.83888 0.36492 0.72441 0.0
O442 O 0.84617 0.32417 0.74441 0.0
Co443 Co 0.8803 0.36748 0.74253 0.0
O444 O 0.88394 0.3331 0.73825 0.0
C445 C 0.85667 0.372 0.7694 0.0
C446 C 0.78821 0.36246 0.75167 0.0
C447 C 0.86747 0.31798 0.74078 0.0
O448 O 0.83776 0.36164 0.76466 0.0
O449 O 0.8747 0.37746 0.76195 0.0
O450 O 0.81976 0.35188 0.72583 0.0
O451 O 0.84825 0.37291 0.73561 0.0
Co452 Co 0.67946 0.32833 0.99407 0.0
O453 O 0.65632 0.30325 0.99622 0.0
O454 O 0.69462 0.30082 0.00217 0.0
C455 C 0.66886 0.33787 0.97255 0.0
O456 O 0.70887 0.34977 0.99289 0.0
Co457 Co 0.66399 0.38082 0.98904 0.0
O458 O 0.6983 0.38557 0.98456 0.0
C459 C 0.6589 0.35979 0.01654 0.0
C460 C 0.67368 0.29067 0.00134 0.0
C461 C 0.7142 0.37051 0.98818 0.0
O462 O 0.67091 0.34129 0.01274 0.0
O463 O 0.65281 0.37647 0.00832 0.0
O464 O 0.68328 0.32004 0.97472 0.0
O465 O 0.66012 0.34793 0.98333 0.0
Co466 Co 0.7017 0.1903 0.25524 0.0
O467 O 0.67361 0.20982 0.25326 0.0
O468 O 0.71058 0.22093 0.24789 0.0
C469 C 0.69328 0.17728 0.27645 0.0
O470 O 0.73511 0.17583 0.2564 0.0
Co471 Co 0.69798 0.13541 0.25884 0.0
O472 O 0.7327 0.13751 0.26293 0.0
C473 C 0.69016 0.15656 0.23163 0.0
C474 C 0.6879 0.2262 0.24861 0.0
C475 C 0.74487 0.15611 0.26015 0.0
O476 O 0.69673 0.17713 0.2362 0.0
O477 O 0.68795 0.13816 0.23923 0.0
O478 O 0.70326 0.19802 0.27472 0.0
O479 O 0.68699 0.16617 0.26541 0.0
H480 H 0.10634 0.92703 0.29796 0.0
H481 H 0.13813 0.89979 0.29021 0.0
H482 H 0.18421 0.96 0.28237 0.0
H483 H 0.15262 0.98725 0.28991 0.0
H484 H 0.16719 0.8991 0.26417 0.0
H485 H 0.21959 0.9169 0.31142 0.0
H486 H 0.18782 0.92292 0.3101 0.0
H487 H 0.2092 0.94331 0.3029 0.0
C488 C 0.12309 0.93443 0.29433 0.0
C489 C 0.12715 0.95923 0.29468 0.0
C490 C 0.1412 0.91888 0.28997 0.0
C491 C 0.16353 0.92796 0.28597 0.0
C492 C 0.16717 0.95271 0.28565 0.0
H493 H 0.30071 0.89733 0.25696 0.0
H494 H 0.2617 0.912 0.26455 0.0
C495 C 0.14916 0.96821 0.28998 0.0
C496 C 0.18369 0.91186 0.28272 0.0
H497 H 0.24081 0.899 0.29279 0.0
C498 C 0.18314 0.89862 0.27052 0.0
C499 C 0.2043 0.91119 0.29115 0.0
C500 C 0.20528 0.92415 0.3047 0.0
C501 C 0.20344 0.88592 0.26608 0.0
C502 C 0.22452 0.88656 0.27411 0.0
C503 C 0.22457 0.89871 0.28666 0.0
C504 C 0.24749 0.87699 0.26905 0.0
C505 C 0.2028 0.87298 0.25254 0.0
C506 C 0.25228 0.85243 0.26913 0.0
C507 C 0.27467 0.84394 0.26486 0.0
C508 C 0.29246 0.85997 0.26044 0.0
C509 C 0.2874 0.88453 0.2603 0.0
C510 C 0.26514 0.89296 0.26461 0.0
H511 H 0.18521 0.87485 0.2473 0.0
H512 H 0.21709 0.88001 0.24576 0.0
H513 H 0.20645 0.85372 0.25415 0.0
H514 H 0.23884 0.83992 0.27265 0.0
H515 H 0.27808 0.82491 0.26506 0.0
H516 H 0.05234 0.6517 0.55091 0.0
H517 H 0.07624 0.68512 0.54244 0.0
H518 H 0.132 0.63634 0.53004 0.0
H519 H 0.10805 0.60265 0.53839 0.0
H520 H 0.12736 0.69423 0.55208 0.0
H521 H 0.11555 0.68148 0.49591 0.0
H522 H 0.09406 0.67022 0.50809 0.0
H523 H 0.12259 0.65585 0.50624 0.0
C524 C 0.06949 0.64803 0.54615 0.0
C525 C 0.07831 0.62458 0.54525 0.0
C526 C 0.08316 0.66713 0.54142 0.0
C527 C 0.10576 0.66308 0.53561 0.0
C528 C 0.1145 0.6397 0.53444 0.0
H529 H 0.21137 0.77522 0.51893 0.0
H530 H 0.19302 0.73724 0.52564 0.0
C531 C 0.10088 0.62056 0.53926 0.0
C532 C 0.12045 0.68356 0.53128 0.0
H533 H 0.13873 0.71437 0.50318 0.0
C534 C 0.13009 0.69858 0.5414 0.0
C535 C 0.12379 0.68903 0.51735 0.0
C536 C 0.11343 0.67344 0.50619 0.0
C537 C 0.14273 0.7193 0.53792 0.0
C538 C 0.14574 0.725 0.52398 0.0
C539 C 0.13642 0.70978 0.51385 0.0
C540 C 0.15709 0.74757 0.51976 0.0
C541 C 0.15211 0.73542 0.54912 0.0
C542 C 0.1429 0.76572 0.51417 0.0
C543 C 0.15323 0.78738 0.5104 0.0
C544 C 0.178 0.79115 0.51206 0.0
C545 C 0.19223 0.77282 0.51756 0.0
C546 C 0.18181 0.75117 0.5214 0.0
H547 H 0.14561 0.73 0.55938 0.0
H548 H 0.17201 0.73485 0.54917 0.0
H549 H 0.14661 0.75417 0.54724 0.0
H550 H 0.12376 0.76318 0.51285 0.0
H551 H 0.14182 0.80112 0.50615 0.0
H552 H 0.41217 0.56686 0.776 0.0
H553 H 0.37646 0.58796 0.76808 0.0
H554 H 0.37471 0.62835 0.80572 0.0
H555 H 0.40945 0.60642 0.81405 0.0
H556 H 0.33284 0.60789 0.80063 0.0
H557 H 0.3633 0.65414 0.75387 0.0
H558 H 0.36974 0.62276 0.75351 0.0
H559 H 0.38397 0.64157 0.7661 0.0
C560 C 0.40427 0.58032 0.78257 0.0
C561 C 0.41364 0.5848 0.7957 0.0
C562 C 0.38406 0.59264 0.77793 0.0
C563 C 0.37308 0.60995 0.78624 0.0
C564 C 0.383 0.61518 0.7991 0.0
H565 H 0.24939 0.69787 0.7653 0.0
H566 H 0.29006 0.68351 0.76992 0.0
C567 C 0.40302 0.60272 0.8038 0.0
C568 C 0.34979 0.62061 0.78227 0.0
H569 H 0.32071 0.65086 0.75694 0.0
C570 C 0.33028 0.61748 0.79113 0.0
C571 C 0.3465 0.63328 0.76993 0.0
C572 C 0.36705 0.63837 0.76037 0.0
C573 C 0.30747 0.62625 0.7879 0.0
C574 C 0.30389 0.63789 0.77526 0.0
C575 C 0.32347 0.64159 0.76652 0.0
C576 C 0.27984 0.64632 0.77108 0.0
C577 C 0.28747 0.62314 0.79813 0.0
C578 C 0.26084 0.63006 0.76977 0.0
C579 C 0.23759 0.63817 0.76727 0.0
C580 C 0.23298 0.66272 0.76583 0.0
C581 C 0.25231 0.67886 0.7664 0.0
C582 C 0.27556 0.67071 0.76902 0.0
H583 H 0.29454 0.62009 0.8086 0.0
H584 H 0.27556 0.63903 0.79837 0.0
H585 H 0.27653 0.60737 0.7952 0.0
H586 H 0.2639 0.61109 0.77101 0.0
H587 H 0.2232 0.62522 0.76669 0.0
H588 H 0.45599 0.89726 0.06466 0.0
H589 H 0.43068 0.86608 0.05488 0.0
H590 H 0.43154 0.9019 0.01595 0.0
H591 H 0.45783 0.9329 0.0256 0.0
H592 H 0.38632 0.86556 0.04194 0.0
H593 H 0.45971 0.83632 0.00703 0.0
H594 H 0.46481 0.85732 0.02076 0.0
H595 H 0.44966 0.86667 0.00548 0.0
C596 C 0.45087 0.8985 0.054 0.0
C597 C 0.45936 0.91722 0.04581 0.0
C598 C 0.43617 0.88081 0.04847 0.0
C599 C 0.42955 0.88148 0.03465 0.0
C600 C 0.4368 0.90087 0.02659 0.0
H601 H 0.34287 0.7566 0.0082 0.0
H602 H 0.35437 0.79866 0.01073 0.0
C603 C 0.45166 0.91862 0.03213 0.0
C604 C 0.41674 0.86073 0.0287 0.0
H605 H 0.42606 0.81165 0.0086 0.0
C606 C 0.39471 0.85396 0.03444 0.0
C607 C 0.42788 0.84563 0.01896 0.0
C608 C 0.45188 0.85165 0.01272 0.0
C609 C 0.38421 0.8318 0.03132 0.0
C610 C 0.39595 0.81626 0.02208 0.0
C611 C 0.41716 0.82369 0.01569 0.0
C612 C 0.3885 0.79109 0.02033 0.0
C613 C 0.36155 0.82449 0.03861 0.0
C614 C 0.404 0.77299 0.02475 0.0
C615 C 0.39762 0.74907 0.02327 0.0
C616 C 0.37554 0.74269 0.01731 0.0
C617 C 0.35996 0.76089 0.01289 0.0
C618 C 0.36644 0.78493 0.01435 0.0
H619 H 0.35657 0.83728 0.04685 0.0
H620 H 0.34654 0.82362 0.03116 0.0
H621 H 0.36368 0.80649 0.04315 0.0
H622 H 0.42108 0.7774 0.02943 0.0
H623 H 0.41006 0.73561 0.02682 0.0
H624 H 0.11164 0.5633 0.96448 0.0
H625 H 0.14566 0.58632 0.97318 0.0
H626 H 0.10736 0.65181 0.9656 0.0
H627 H 0.07312 0.62881 0.95674 0.0
H628 H 0.16953 0.62208 0.95599 0.0
H629 H 0.13586 0.6583 0.00558 0.0
H630 H 0.12298 0.63194 0.99776 0.0
H631 H 0.11714 0.66075 0.99061 0.0
C632 C 0.11036 0.5826 0.96476 0.0
C633 C 0.08982 0.59428 0.95984 0.0
C634 C 0.12975 0.5957 0.96977 0.0
C635 C 0.12894 0.6207 0.97003 0.0
C636 C 0.10815 0.63249 0.96561 0.0
H637 H 0.25585 0.70665 0.99363 0.0
H638 H 0.21531 0.6974 0.98513 0.0
C639 C 0.08865 0.61935 0.96059 0.0
C640 C 0.15072 0.63409 0.97395 0.0
H641 H 0.17637 0.66558 0.00014 0.0
C642 C 0.17095 0.63191 0.96554 0.0
C643 C 0.15235 0.64704 0.98635 0.0
C644 C 0.13102 0.6497 0.99569 0.0
C645 C 0.19313 0.64142 0.9695 0.0
C646 C 0.19512 0.65315 0.98226 0.0
C647 C 0.17465 0.65652 0.99036 0.0
C648 C 0.21885 0.6593 0.98794 0.0
C649 C 0.21455 0.6381 0.96028 0.0
C650 C 0.2339 0.64093 0.99244 0.0
C651 C 0.25684 0.64608 0.99729 0.0
C652 C 0.26518 0.66975 0.9977 0.0
C653 C 0.24991 0.68824 0.99338 0.0
C654 C 0.22679 0.68303 0.98858 0.0
H655 H 0.20911 0.63353 0.94966 0.0
H656 H 0.22571 0.65453 0.96011 0.0
H657 H 0.22582 0.62334 0.96426 0.0
H658 H 0.22795 0.62251 0.99207 0.0
H659 H 0.26813 0.63144 0.00056 0.0
H660 H 0.47337 0.60123 0.22348 0.0
H661 H 0.45188 0.63542 0.23304 0.0
H662 H 0.38557 0.60859 0.21612 0.0
H663 H 0.40716 0.5742 0.20645 0.0
H664 H 0.39736 0.65473 0.2079 0.0
H665 H 0.40399 0.64744 0.26411 0.0
H666 H 0.43225 0.64206 0.2559 0.0
H667 H 0.40754 0.62204 0.25281 0.0
C668 C 0.45412 0.60236 0.22208 0.0
C669 C 0.44189 0.58522 0.21421 0.0
C670 C 0.44182 0.62175 0.22765 0.0
C671 C 0.41709 0.62436 0.22543 0.0
C672 C 0.40461 0.6067 0.21807 0.0
H673 H 0.35618 0.7626 0.25203 0.0
H674 H 0.35855 0.71936 0.24816 0.0
C675 C 0.41691 0.58711 0.21259 0.0
C676 C 0.40545 0.64726 0.229 0.0
H677 H 0.40029 0.68764 0.25506 0.0
C678 C 0.39738 0.66171 0.21827 0.0
C679 C 0.40532 0.65626 0.24253 0.0
C680 C 0.41252 0.64103 0.25451 0.0
C681 C 0.39103 0.68559 0.22056 0.0
C682 C 0.39296 0.69517 0.2339 0.0
C683 C 0.39914 0.68024 0.24481 0.0
C684 C 0.39126 0.72112 0.23637 0.0
C685 C 0.38335 0.70072 0.20862 0.0
C686 C 0.40909 0.7362 0.23119 0.0
C687 C 0.40794 0.76076 0.23344 0.0
C688 C 0.38886 0.77074 0.24091 0.0
C689 C 0.37107 0.7555 0.24619 0.0
C690 C 0.37237 0.73083 0.24401 0.0
H691 H 0.37675 0.68959 0.19996 0.0
H692 H 0.36903 0.71344 0.21167 0.0
H693 H 0.39895 0.71122 0.20497 0.0
H694 H 0.42397 0.72891 0.2254 0.0
H695 H 0.42193 0.77191 0.22921 0.0
H696 H 0.43923 0.96125 0.47714 0.0
H697 H 0.4082 0.93583 0.48686 0.0
H698 H 0.44162 0.87383 0.46876 0.0
H699 H 0.47275 0.89945 0.45883 0.0
H700 H 0.39534 0.87934 0.46084 0.0
H701 H 0.39959 0.88722 0.51692 0.0
H702 H 0.402 0.91618 0.50934 0.0
H703 H 0.42491 0.89416 0.50611 0.0
C704 C 0.44029 0.94213 0.47554 0.0
C705 C 0.45819 0.93228 0.46717 0.0
C706 C 0.42273 0.92756 0.48123 0.0
C707 C 0.42277 0.90288 0.47869 0.0
C708 C 0.44145 0.8928 0.47097 0.0
H709 H 0.28237 0.84505 0.50416 0.0
H710 H 0.32601 0.84378 0.50083 0.0
C711 C 0.45919 0.90741 0.46533 0.0
C712 C 0.40104 0.8889 0.48199 0.0
H713 H 0.35901 0.88324 0.50705 0.0
C714 C 0.38773 0.87942 0.47104 0.0
C715 C 0.3912 0.88864 0.4953 0.0
C716 C 0.40535 0.89688 0.50759 0.0
C717 C 0.36388 0.87222 0.47281 0.0
C718 C 0.35315 0.87479 0.4858 0.0
C719 C 0.36722 0.8817 0.49704 0.0
C720 C 0.32683 0.87429 0.48738 0.0
C721 C 0.34985 0.86341 0.46059 0.0
C722 C 0.31306 0.892 0.48103 0.0
C723 C 0.28834 0.89295 0.48299 0.0
C724 C 0.27686 0.87614 0.49135 0.0
C725 C 0.29068 0.85819 0.49762 0.0
C726 C 0.31557 0.85742 0.49574 0.0
H727 H 0.36188 0.85546 0.45275 0.0
H728 H 0.33628 0.84993 0.46362 0.0
H729 H 0.34035 0.87869 0.45584 0.0
H730 H 0.32154 0.90541 0.47472 0.0
H731 H 0.27826 0.90694 0.47799 0.0
H732 H 0.13498 0.96923 0.70518 0.0
H733 H 0.15996 0.93803 0.71566 0.0
H734 H 0.09615 0.90023 0.72784 0.0
H735 H 0.07121 0.93117 0.71748 0.0
H736 H 0.13786 0.90668 0.74863 0.0
H737 H 0.16086 0.86724 0.69781 0.0
H738 H 0.16346 0.89898 0.70062 0.0
H739 H 0.13437 0.88541 0.69996 0.0
C740 C 0.12636 0.95442 0.7103 0.0
C741 C 0.10121 0.95245 0.71046 0.0
C742 C 0.1406 0.93665 0.7162 0.0
C743 C 0.1298 0.91688 0.72242 0.0
C744 C 0.10474 0.91539 0.72306 0.0
H745 H 0.13463 0.78376 0.7576 0.0
H746 H 0.12988 0.82528 0.75091 0.0
C747 C 0.09055 0.93297 0.71709 0.0
C748 C 0.14419 0.89681 0.72766 0.0
H749 H 0.16871 0.84404 0.71722 0.0
C750 C 0.14515 0.8932 0.74181 0.0
C751 C 0.15384 0.87947 0.71869 0.0
C752 C 0.15317 0.88276 0.7034 0.0
C753 C 0.15424 0.87191 0.74722 0.0
C754 C 0.16193 0.85365 0.7382 0.0
C755 C 0.16267 0.85803 0.7241 0.0
C756 C 0.16592 0.82894 0.74297 0.0
C757 C 0.15471 0.86882 0.76252 0.0
C758 C 0.1876 0.81701 0.74042 0.0
C759 C 0.19033 0.79306 0.74417 0.0
C760 C 0.1713 0.78071 0.75037 0.0
C761 C 0.14966 0.79277 0.75288 0.0
C762 C 0.14699 0.8166 0.74919 0.0
H763 H 0.15667 0.8863 0.76783 0.0
H764 H 0.13751 0.86078 0.76588 0.0
H765 H 0.1696 0.85692 0.76574 0.0
H766 H 0.2023 0.82617 0.73546 0.0
H767 H 0.2072 0.78419 0.74208 0.0
H768 H 0.60887 0.47633 0.78707 0.0
H769 H 0.64298 0.45358 0.77832 0.0
H770 H 0.60568 0.38776 0.78656 0.0
H771 H 0.57135 0.4105 0.79543 0.0
H772 H 0.66748 0.41917 0.7958 0.0
H773 H 0.63414 0.37984 0.74685 0.0
H774 H 0.62074 0.4062 0.75434 0.0
H775 H 0.61555 0.37754 0.76183 0.0
C776 C 0.60782 0.45702 0.78688 0.0
C777 C 0.58757 0.44516 0.79202 0.0
C778 C 0.62725 0.44407 0.78184 0.0
C779 C 0.62677 0.41905 0.78179 0.0
C780 C 0.60621 0.40708 0.78637 0.0
H781 H 0.75339 0.33158 0.76056 0.0
H782 H 0.71277 0.34187 0.76838 0.0
C783 C 0.58666 0.42008 0.79141 0.0
C784 C 0.64875 0.40586 0.77807 0.0
H785 H 0.6746 0.37277 0.75266 0.0
C786 C 0.66897 0.40877 0.78646 0.0
C787 C 0.65047 0.39214 0.76595 0.0
C788 C 0.62917 0.38871 0.75663 0.0
C789 C 0.6912 0.39913 0.78276 0.0
C790 C 0.69326 0.38651 0.7703 0.0
C791 C 0.67282 0.38252 0.76221 0.0
C792 C 0.717 0.37974 0.76492 0.0
C793 C 0.71256 0.40313 0.79199 0.0
C794 C 0.73248 0.39763 0.76026 0.0
C795 C 0.75549 0.39188 0.75581 0.0
C796 C 0.76347 0.36809 0.75595 0.0
C797 C 0.74775 0.35007 0.76039 0.0
C798 C 0.72458 0.35587 0.76481 0.0
H799 H 0.70705 0.40838 0.80249 0.0
H800 H 0.72377 0.38677 0.79257 0.0
H801 H 0.72382 0.41766 0.78774 0.0
H802 H 0.72681 0.41613 0.76023 0.0
H803 H 0.76712 0.40616 0.75242 0.0
H804 H 0.62788 0.09404 0.06437 0.0
H805 H 0.64697 0.13035 0.05588 0.0
H806 H 0.61599 0.11796 0.01606 0.0
H807 H 0.59721 0.08125 0.02438 0.0
H808 H 0.66636 0.13594 0.01671 0.0
H809 H 0.60139 0.18838 0.0479 0.0
H810 H 0.61844 0.16605 0.05681 0.0
H811 H 0.59705 0.15713 0.04403 0.0
C812 C 0.62563 0.09867 0.05371 0.0
C813 C 0.61088 0.08488 0.04505 0.0
C814 C 0.63642 0.1195 0.04891 0.0
C815 C 0.63263 0.12688 0.03542 0.0
C816 C 0.61905 0.11251 0.02653 0.0
H817 H 0.63217 0.26533 -0.0003 0.0
H818 H 0.62458 0.22497 0.00788 0.0
C819 C 0.6082 0.09169 0.03132 0.0
C820 C 0.64084 0.15063 0.03092 0.0
H821 H 0.62956 0.21005 0.03512 0.0
C822 C 0.6585 0.1522 0.02076 0.0
C823 C 0.63027 0.17168 0.03618 0.0
C824 C 0.61061 0.17089 0.04676 0.0
C825 C 0.66578 0.17445 0.01564 0.0
C826 C 0.65517 0.19548 0.02091 0.0
C827 C 0.63771 0.19385 0.03117 0.0
C828 C 0.66066 0.21938 0.01539 0.0
C829 C 0.68417 0.17528 0.00436 0.0
C830 C 0.68351 0.22958 0.01692 0.0
C831 C 0.68794 0.25274 0.01223 0.0
C832 C 0.66951 0.26601 0.00603 0.0
C833 C 0.64673 0.25561 0.00446 0.0
C834 C 0.64235 0.23254 0.00911 0.0
H835 H 0.68725 0.15741 -0.0003 0.0
H836 H 0.67846 0.18782 0.99623 0.0
H837 H 0.70146 0.18181 0.00859 0.0
H838 H 0.69776 0.21983 0.02194 0.0
H839 H 0.70565 0.26033 0.01361 0.0
H840 H 0.97459 0.13391 0.28592 0.0
H841 H 0.9398 0.15435 0.27592 0.0
H842 H 0.89789 0.09007 0.27993 0.0
H843 H 0.93203 0.06978 0.29015 0.0
H844 H 0.89518 0.11567 0.25324 0.0
H845 H 0.8784 0.17215 0.29941 0.0
H846 H 0.90802 0.17118 0.29206 0.0
H847 H 0.89622 0.1453 0.30041 0.0
C848 C 0.95794 0.12416 0.28468 0.0
C849 C 0.95611 0.10018 0.28881 0.0
C850 C 0.93817 0.13584 0.27893 0.0
C851 C 0.91637 0.12367 0.27725 0.0
C852 C 0.91467 0.09967 0.28107 0.0
H853 H 0.77205 0.11607 0.26337 0.0
H854 H 0.8155 0.11328 0.26506 0.0
C855 C 0.93427 0.08806 0.28684 0.0
C856 C 0.89469 0.13574 0.27206 0.0
H857 H 0.8476 0.16952 0.28311 0.0
C858 C 0.885 0.12794 0.25958 0.0
C859 C 0.88163 0.15188 0.28034 0.0
C860 C 0.89142 0.16069 0.29384 0.0
C861 C 0.86179 0.13456 0.25561 0.0
C862 C 0.8479 0.14893 0.26448 0.0
C863 C 0.85832 0.15838 0.27639 0.0
C864 C 0.82168 0.15117 0.26268 0.0
C865 C 0.8519 0.12518 0.24227 0.0
C866 C 0.81074 0.17352 0.26107 0.0
C867 C 0.78574 0.17523 0.26012 0.0
C868 C 0.77135 0.15462 0.26098 0.0
C869 C 0.78251 0.13232 0.26267 0.0
C870 C 0.80739 0.13064 0.26351 0.0
H871 H 0.8665 0.12147 0.23484 0.0
H872 H 0.84226 0.10817 0.24415 0.0
H873 H 0.83909 0.13802 0.23765 0.0
H874 H 0.82153 0.18959 0.26059 0.0
H875 H 0.7777 0.19269 0.25888 0.0
H876 H 0.97646 0.42495 0.54035 0.0
H877 H 0.95395 0.39061 0.53172 0.0
H878 H 0.88743 0.42683 0.54046 0.0
H879 H 0.90993 0.46137 0.54926 0.0
H880 H 0.91963 0.36543 0.54905 0.0
H881 H 0.87988 0.39915 0.50049 0.0
H882 H 0.90619 0.41265 0.50809 0.0
H883 H 0.87731 0.41732 0.51566 0.0
C884 C 0.95704 0.4257 0.54035 0.0
C885 C 0.94494 0.44575 0.54558 0.0
C886 C 0.94423 0.40613 0.53537 0.0
C887 C 0.91909 0.40626 0.53546 0.0
C888 C 0.90685 0.42656 0.54018 0.0
H889 H 0.83348 0.27944 0.51197 0.0
H890 H 0.8429 0.31956 0.52083 0.0
C891 C 0.91971 0.44624 0.54517 0.0
C892 C 0.90606 0.3843 0.53154 0.0
H893 H 0.87336 0.35867 0.50582 0.0
C894 C 0.90923 0.36402 0.53969 0.0
C895 C 0.89237 0.38266 0.5194 0.0
C896 C 0.8887 0.40401 0.51031 0.0
C897 C 0.8999 0.34183 0.53573 0.0
C898 C 0.88733 0.33989 0.52324 0.0
C899 C 0.88305 0.36036 0.5154 0.0
C900 C 0.8811 0.31628 0.5175 0.0
C901 C 0.90421 0.3204 0.54469 0.0
C902 C 0.89946 0.3015 0.51261 0.0
C903 C 0.8942 0.27881 0.50754 0.0
C904 C 0.87044 0.27044 0.5073 0.0
C905 C 0.85196 0.2854 0.51208 0.0
C906 C 0.85727 0.30828 0.51709 0.0
H907 H 0.90927 0.3257 0.55527 0.0
H908 H 0.88798 0.30892 0.54509 0.0
H909 H 0.91907 0.30961 0.54033 0.0
H910 H 0.91795 0.30751 0.51279 0.0
H911 H 0.90884 0.26776 0.50392 0.0
H912 H 0.62692 0.09892 0.44036 0.0
H913 H 0.66146 0.12035 0.44969 0.0
H914 H 0.64349 0.09601 0.49018 0.0
H915 H 0.6092 0.07385 0.48078 0.0
H916 H 0.6688 0.15504 0.46867 0.0
H917 H 0.71019 0.06967 0.48548 0.0
H918 H 0.68368 0.0705 0.47494 0.0
H919 H 0.6816 0.07628 0.493 0.0
C920 C 0.63013 0.09844 0.45128 0.0
C921 C 0.61559 0.08455 0.45984 0.0
C922 C 0.64986 0.11068 0.4566 0.0
C923 C 0.65531 0.1094 0.47059 0.0
C924 C 0.63995 0.09674 0.47931 0.0
H925 H 0.78341 0.18868 0.49951 0.0
H926 H 0.74137 0.17631 0.49724 0.0
C927 C 0.62037 0.08416 0.47395 0.0
C928 C 0.67809 0.11985 0.47567 0.0
H929 H 0.73269 0.10452 0.48875 0.0
C930 C 0.68272 0.1441 0.47321 0.0
C931 C 0.69624 0.10543 0.48149 0.0
C932 C 0.69285 0.07899 0.48379 0.0
C933 C 0.70537 0.15411 0.47588 0.0
C934 C 0.72361 0.13955 0.48145 0.0
C935 C 0.71861 0.11561 0.4845 0.0
C936 C 0.74874 0.14781 0.48283 0.0
C937 C 0.70993 0.17978 0.47205 0.0
C938 C 0.7668 0.13569 0.47564 0.0
C939 C 0.79072 0.14244 0.47705 0.0
C940 C 0.79715 0.16158 0.48566 0.0
C941 C 0.77901 0.17396 0.49274 0.0
C942 C 0.75498 0.16699 0.49141 0.0
H943 H 0.69552 0.18703 0.46541 0.0
H944 H 0.71075 0.19085 0.48148 0.0
H945 H 0.72734 0.18157 0.46666 0.0
H946 H 0.76237 0.12088 0.46892 0.0
H947 H 0.80418 0.13262 0.47137 0.0
H948 H 0.92192 0.09541 0.71295 0.0
H949 H 0.89771 0.12795 0.7226 0.0
H950 H 0.95869 0.17513 0.72034 0.0
H951 H 0.98278 0.14311 0.71051 0.0
H952 H 0.93153 0.17619 0.74603 0.0
H953 H 0.87523 0.18651 0.69921 0.0
H954 H 0.87793 0.15733 0.70669 0.0
H955 H 0.90354 0.17087 0.69883 0.0
C956 C 0.93014 0.11274 0.7145 0.0
C957 C 0.9543 0.11666 0.71095 0.0
C958 C 0.91631 0.13124 0.72004 0.0
C959 C 0.92644 0.1539 0.72208 0.0
C960 C 0.95062 0.15769 0.71888 0.0
H961 H 0.9118 0.29817 0.73763 0.0
H962 H 0.9219 0.25612 0.73523 0.0
C963 C 0.9644 0.13931 0.71333 0.0
C964 C 0.91196 0.17422 0.72706 0.0
H965 H 0.87199 0.21613 0.71611 0.0
C966 C 0.91814 0.18469 0.73963 0.0
C967 C 0.89439 0.1851 0.71872 0.0
C968 C 0.88732 0.17455 0.70507 0.0
C969 C 0.90818 0.20654 0.74373 0.0
C970 C 0.89199 0.21831 0.73492 0.0
C971 C 0.88449 0.20703 0.72281 0.0
C972 C 0.88535 0.24358 0.73712 0.0
C973 C 0.91574 0.21729 0.75724 0.0
C974 C 0.86133 0.25048 0.73871 0.0
C975 C 0.85541 0.27467 0.74008 0.0
C976 C 0.87342 0.29228 0.73966 0.0
C977 C 0.89744 0.28515 0.73801 0.0
C978 C 0.90331 0.26108 0.73675 0.0
H979 H 0.92165 0.20329 0.76451 0.0
H980 H 0.93108 0.22954 0.75555 0.0
H981 H 0.90089 0.22765 0.76195 0.0
H982 H 0.84722 0.23719 0.73886 0.0
H983 H 0.83673 0.27957 0.74127 0.0
H984 H 0.92859 0.46155 0.97993 0.0
H985 H 0.89548 0.43906 0.99017 0.0
H986 H 0.87268 0.4163 0.94999 0.0
H987 H 0.90586 0.43819 0.93981 0.0
H988 H 0.84991 0.44766 0.98682 0.0
H989 H 0.86565 0.35498 0.97011 0.0
H990 H 0.88858 0.37766 0.96898 0.0
H991 H 0.86648 0.37435 0.95561 0.0
C992 C 0.9167 0.45139 0.97334 0.0
C993 C 0.91981 0.45152 0.95908 0.0
C994 C 0.89788 0.43849 0.97919 0.0
C995 C 0.88183 0.4256 0.97088 0.0
C996 C 0.88526 0.42539 0.95666 0.0
H997 H 0.7327 0.40978 0.97559 0.0
H998 H 0.77461 0.42148 0.97378 0.0
C999 C 0.90417 0.43804 0.95084 0.0
C1000 C 0.85987 0.4148 0.97674 0.0
H1001 H 0.82381 0.36571 0.97436 0.0
C1002 C 0.84446 0.42955 0.98435 0.0
C1003 C 0.85289 0.39102 0.97382 0.0
C1004 C 0.86945 0.37355 0.96682 0.0
C1005 C 0.82157 0.42176 0.9882 0.0
C1006 C 0.81364 0.39889 0.98398 0.0
C1007 C 0.8297 0.38346 0.97732 0.0
C1008 C 0.78824 0.39153 0.98534 0.0
C1009 C 0.80594 0.43836 0.99649 0.0
C1010 C 0.78202 0.3703 0.992 0.0
C1011 C 0.75797 0.36332 0.99291 0.0
C1012 C 0.73976 0.37748 0.98712 0.0
C1013 C 0.74618 0.39857 0.98031 0.0
C1014 C 0.77016 0.40541 0.97934 0.0
H1015 H 0.81696 0.45063 0.00287 0.0
H1016 H 0.79504 0.44947 0.98946 0.0
H1017 H 0.7936 0.42831 0.00326 0.0
H1018 H 0.79576 0.3592 0.99657 0.0
H1019 H 0.75366 0.34695 0.99821 0.0
H1020 H 0.60617 0.41253 0.18749 0.0
H1021 H 0.6301 0.37909 0.19583 0.0
H1022 H 0.59793 0.38654 0.23567 0.0
H1023 H 0.57439 0.42058 0.22754 0.0
H1024 H 0.64903 0.37673 0.23573 0.0
H1025 H 0.59634 0.31437 0.20297 0.0
H1026 H 0.60999 0.33898 0.1942 0.0
H1027 H 0.58671 0.34453 0.20649 0.0
C1028 C 0.60455 0.40743 0.19812 0.0
C1029 C 0.58825 0.41911 0.20684 0.0
C1030 C 0.61809 0.38819 0.20281 0.0
C1031 C 0.61547 0.3802 0.21628 0.0
C1032 C 0.60007 0.39243 0.22521 0.0
H1033 H 0.6417 0.24168 0.24974 0.0
H1034 H 0.62581 0.28 0.24218 0.0
C1035 C 0.58652 0.41172 0.22052 0.0
C1036 C 0.62754 0.35813 0.2208 0.0
H1037 H 0.62829 0.29788 0.21559 0.0
C1038 C 0.64462 0.35947 0.23132 0.0
C1039 C 0.62146 0.33569 0.21509 0.0
C1040 C 0.60249 0.33314 0.20414 0.0
C1041 C 0.65585 0.33882 0.23631 0.0
C1042 C 0.6499 0.31642 0.2305 0.0
C1043 C 0.63288 0.31514 0.21995 0.0
C1044 C 0.66014 0.29383 0.23562 0.0
C1045 C 0.67345 0.34102 0.24797 0.0
C1046 C 0.68473 0.28893 0.2344 0.0
C1047 C 0.6939 0.26699 0.23873 0.0
C1048 C 0.67856 0.24962 0.24427 0.0
C1049 C 0.65398 0.25468 0.24551 0.0
C1050 C 0.64486 0.27656 0.2412 0.0
H1051 H 0.6723 0.35871 0.25312 0.0
H1052 H 0.6703 0.32686 0.25567 0.0
H1053 H 0.69195 0.33882 0.24399 0.0
H1054 H 0.69673 0.30189 0.22989 0.0
H1055 H 0.71292 0.26354 0.23761 0.0
H1056 H 0.14265 0.98628 0.37544 0.0
H1057 H 0.16171 0.96272 0.39337 0.0
H1058 H 0.10601 0.9096 0.38966 0.0
H1059 H 0.08621 0.93356 0.3722 0.0
H1060 H 0.11219 0.92364 0.41556 0.0
H1061 H 0.20071 0.90181 0.39322 0.0
H1062 H 0.19438 0.9332 0.39279 0.0
H1063 H 0.17602 0.91282 0.38307 0.0
C1064 C 0.13449 0.96954 0.3784 0.0
C1065 C 0.11283 0.96189 0.37241 0.0
C1066 C 0.14563 0.9559 0.38851 0.0
C1067 C 0.13549 0.93421 0.39271 0.0
C1068 C 0.11426 0.92618 0.38648 0.0
H1069 H 0.19685 0.83996 0.45505 0.0
H1070 H 0.183 0.85619 0.43314 0.0
C1071 C 0.10304 0.93986 0.37643 0.0
C1072 C 0.14557 0.92122 0.40456 0.0
H1073 H 0.19711 0.89736 0.41759 0.0
C1074 C 0.13068 0.91764 0.41592 0.0
C1075 C 0.16962 0.91316 0.40498 0.0
C1076 C 0.18604 0.91521 0.3928 0.0
C1077 C 0.13939 0.90701 0.42786 0.0
C1078 C 0.16379 0.90024 0.42857 0.0
C1079 C 0.1785 0.90292 0.41706 0.0
C1080 C 0.17431 0.89103 0.44139 0.0
C1081 C 0.12239 0.90321 0.43964 0.0
C1082 C 0.17469 0.90552 0.45312 0.0
C1083 C 0.18244 0.89632 0.46558 0.0
C1084 C 0.19015 0.87251 0.46652 0.0
C1085 C 0.1909 0.85835 0.45462 0.0
C1086 C 0.18304 0.86758 0.44212 0.0
H1087 H 0.10338 0.90316 0.43621 0.0
H1088 H 0.12618 0.88609 0.4449 0.0
H1089 H 0.12463 0.91794 0.44717 0.0
H1090 H 0.16846 0.92382 0.45268 0.0
H1091 H 0.18189 0.90775 0.47454 0.0
H1092 H 0.11513 0.60203 0.61823 0.0
H1093 H 0.13478 0.62431 0.63675 0.0
H1094 H 0.06768 0.65876 0.64638 0.0
H1095 H 0.04809 0.63694 0.62773 0.0
H1096 H 0.10775 0.6889 0.65017 0.0
H1097 H 0.11967 0.60062 0.67514 0.0
H1098 H 0.13371 0.60349 0.65873 0.0
H1099 H 0.10155 0.60437 0.66003 0.0
C1100 C 0.10472 0.61469 0.62416 0.0
C1101 C 0.08004 0.61754 0.62169 0.0
C1102 C 0.11594 0.62739 0.63471 0.0
C1103 C 0.10256 0.64279 0.6431 0.0
C1104 C 0.07832 0.64694 0.64003 0.0
H1105 H 0.11134 0.66874 0.72773 0.0
H1106 H 0.10107 0.66108 0.70392 0.0
C1107 C 0.06715 0.63445 0.62938 0.0
C1108 C 0.11281 0.65223 0.65603 0.0
H1109 H 0.13247 0.6343 0.68737 0.0
C1110 C 0.11342 0.67703 0.65828 0.0
C1111 C 0.11991 0.63663 0.66663 0.0
C1112 C 0.11853 0.6098 0.66512 0.0
C1113 C 0.12049 0.6866 0.67099 0.0
C1114 C 0.12724 0.67093 0.68159 0.0
C1115 C 0.12733 0.64623 0.67917 0.0
C1116 C 0.13209 0.67921 0.69571 0.0
C1117 C 0.11974 0.71324 0.67321 0.0
C1118 C 0.15265 0.69259 0.69898 0.0
C1119 C 0.15855 0.69717 0.71269 0.0
C1120 C 0.14413 0.68809 0.72326 0.0
C1121 C 0.123 0.67571 0.71985 0.0
C1122 C 0.11705 0.67136 0.70624 0.0
H1123 H 0.11092 0.72267 0.6646 0.0
H1124 H 0.11003 0.71756 0.68281 0.0
H1125 H 0.13832 0.72014 0.67426 0.0
H1126 H 0.16464 0.69855 0.691 0.0
H1127 H 0.17498 0.70671 0.71502 0.0
H1128 H 0.43725 0.55679 0.89154 0.0
H1129 H 0.41347 0.57768 0.90879 0.0
H1130 H 0.37806 0.61799 0.87719 0.0
H1131 H 0.40194 0.5969 0.85974 0.0
H1132 H 0.39934 0.64554 0.89969 0.0
H1133 H 0.34047 0.57278 0.91792 0.0
H1134 H 0.37127 0.56386 0.91624 0.0
H1135 H 0.35455 0.57232 0.90128 0.0
C1136 C 0.42428 0.56998 0.88825 0.0
C1137 C 0.42148 0.57535 0.87434 0.0
C1138 C 0.41056 0.58173 0.89809 0.0
C1139 C 0.39382 0.59913 0.89423 0.0
C1140 C 0.39074 0.60442 0.88033 0.0
H1141 H 0.32252 0.66052 0.96684 0.0
H1142 H 0.32602 0.64852 0.94273 0.0
C1143 C 0.40431 0.59239 0.87041 0.0
C1144 C 0.38126 0.61289 0.90499 0.0
H1145 H 0.34851 0.60474 0.93401 0.0
C1146 C 0.38767 0.63687 0.90701 0.0
C1147 C 0.36581 0.60162 0.91441 0.0
C1148 C 0.3574 0.57628 0.9123 0.0
C1149 C 0.38075 0.6492 0.91888 0.0
C1150 C 0.36728 0.63714 0.92895 0.0
C1151 C 0.35904 0.61389 0.92633 0.0
C1152 C 0.36479 0.6468 0.94298 0.0
C1153 C 0.3889 0.67465 0.92089 0.0
C1154 C 0.3854 0.6497 0.95104 0.0
C1155 C 0.38348 0.65622 0.96476 0.0
C1156 C 0.36087 0.66006 0.97072 0.0
C1157 C 0.3402 0.65779 0.96253 0.0
C1158 C 0.34214 0.65095 0.94877 0.0
H1159 H 0.39207 0.68356 0.91093 0.0
H1160 H 0.37549 0.68512 0.92678 0.0
H1161 H 0.40605 0.67477 0.92667 0.0
H1162 H 0.40301 0.64613 0.94683 0.0
H1163 H 0.39977 0.65791 0.97075 0.0
H1164 H 0.48274 0.88949 0.11574 0.0
H1165 H 0.45956 0.86639 0.13236 0.0
H1166 H 0.42095 0.93018 0.14386 0.0
H1167 H 0.44335 0.95294 0.12693 0.0
H1168 H 0.46 0.87053 0.15843 0.0
H1169 H 0.36647 0.88486 0.14238 0.0
H1170 H 0.39146 0.89238 0.13151 0.0
H1171 H 0.38099 0.91319 0.14432 0.0
C1172 C 0.46897 0.8984 0.12168 0.0
C1173 C 0.4647 0.92293 0.12004 0.0
C1174 C 0.45572 0.88522 0.13114 0.0
C1175 C 0.43814 0.8964 0.13921 0.0
C1176 C 0.43375 0.9209 0.13744 0.0
H1177 H 0.40407 0.87425 0.22175 0.0
H1178 H 0.42112 0.88191 0.19932 0.0
C1179 C 0.4467 0.93397 0.12784 0.0
C1180 C 0.42625 0.88329 0.15049 0.0
H1181 H 0.37246 0.87672 0.16666 0.0
C1182 C 0.44078 0.87147 0.16005 0.0
C1183 C 0.4011 0.88386 0.15252 0.0
C1184 C 0.38414 0.89403 0.14202 0.0
C1185 C 0.4311 0.86178 0.17201 0.0
C1186 C 0.40635 0.86474 0.17475 0.0
C1187 C 0.39153 0.87494 0.16474 0.0
C1188 C 0.396 0.85934 0.18834 0.0
C1189 C 0.44762 0.84881 0.18169 0.0
C1190 C 0.37559 0.84479 0.18963 0.0
C1191 C 0.36546 0.84074 0.2025 0.0
C1192 C 0.37563 0.85117 0.21425 0.0
C1193 C 0.39598 0.86575 0.21291 0.0
C1194 C 0.40589 0.86998 0.20008 0.0
H1195 H 0.46268 0.84025 0.17608 0.0
H1196 H 0.45552 0.86181 0.18902 0.0
H1197 H 0.43794 0.83487 0.18754 0.0
H1198 H 0.36752 0.8366 0.18068 0.0
H1199 H 0.34974 0.82946 0.20325 0.0
H1200 H 0.09577 0.62087 0.89961 0.0
H1201 H 0.12119 0.64488 0.88447 0.0
H1202 H 0.09347 0.60653 0.84953 0.0
H1203 H 0.0679 0.58286 0.86443 0.0
H1204 H 0.14566 0.61154 0.85096 0.0
H1205 H 0.09608 0.69735 0.85754 0.0
H1206 H 0.10572 0.68148 0.87254 0.0
H1207 H 0.08266 0.66904 0.86188 0.0
C1208 C 0.09499 0.6177 0.88869 0.0
C1209 C 0.07987 0.5999 0.88322 0.0
C1210 C 0.10955 0.63137 0.88008 0.0
C1211 C 0.1091 0.62747 0.86591 0.0
C1212 C 0.09414 0.60969 0.86047 0.0
H1213 H 0.14099 0.66643 0.78739 0.0
H1214 H 0.13256 0.649 0.8096 0.0
C1215 C 0.07963 0.5961 0.86901 0.0
C1216 C 0.12388 0.64182 0.85649 0.0
H1217 H 0.12485 0.69546 0.84009 0.0
C1218 C 0.1415 0.63006 0.84877 0.0
C1219 C 0.11855 0.66602 0.85378 0.0
C1220 C 0.09968 0.67935 0.86179 0.0
C1221 C 0.15286 0.64141 0.83781 0.0
C1222 C 0.14612 0.66495 0.8344 0.0
C1223 C 0.12988 0.67736 0.84276 0.0
C1224 C 0.15267 0.67539 0.82108 0.0
C1225 C 0.17116 0.62776 0.82956 0.0
C1226 C 0.16652 0.69625 0.82022 0.0
C1227 C 0.1715 0.70628 0.80743 0.0
C1228 C 0.16233 0.69576 0.79543 0.0
C1229 C 0.1484 0.67494 0.79642 0.0
C1230 C 0.14366 0.66487 0.80911 0.0
H1231 H 0.17964 0.61341 0.8357 0.0
H1232 H 0.16214 0.61926 0.82066 0.0
H1233 H 0.18539 0.63982 0.82567 0.0
H1234 H 0.1734 0.70472 0.8294 0.0
H1235 H 0.18222 0.72239 0.80696 0.0
H1236 H 0.45598 0.61462 0.14098 0.0
H1237 H 0.43365 0.63957 0.12485 0.0
H1238 H 0.39052 0.57867 0.11331 0.0
H1239 H 0.41214 0.55407 0.12976 0.0
H1240 H 0.43327 0.63559 0.09874 0.0
H1241 H 0.3393 0.62765 0.11537 0.0
H1242 H 0.36398 0.61825 0.12602 0.0
H1243 H 0.35184 0.59846 0.11315 0.0
C1244 C 0.4414 0.60676 0.13516 0.0
C1245 C 0.43569 0.58248 0.13662 0.0
C1246 C 0.42863 0.621 0.12598 0.0
C1247 C 0.41009 0.61115 0.118 0.0
C1248 C 0.40415 0.58696 0.11965 0.0
H1249 H 0.37498 0.63866 0.03586 0.0
H1250 H 0.39171 0.62821 0.05805 0.0
C1251 C 0.41663 0.57283 0.12899 0.0
C1252 C 0.39887 0.62525 0.10686 0.0
H1253 H 0.34527 0.63634 0.09119 0.0
C1254 C 0.41398 0.63615 0.09727 0.0
C1255 C 0.37369 0.62656 0.10502 0.0
C1256 C 0.35632 0.61732 0.11555 0.0
C1257 C 0.40473 0.64687 0.08547 0.0
C1258 C 0.37975 0.64595 0.08295 0.0
C1259 C 0.36448 0.63658 0.09297 0.0
C1260 C 0.36946 0.6528 0.06954 0.0
C1261 C 0.42193 0.65875 0.07573 0.0
C1262 C 0.35072 0.66949 0.06864 0.0
C1263 C 0.34081 0.67525 0.05591 0.0
C1264 C 0.34948 0.66435 0.04392 0.0
C1265 C 0.36808 0.64755 0.0449 0.0
C1266 C 0.3778 0.64168 0.05757 0.0
H1267 H 0.43799 0.66563 0.08121 0.0
H1268 H 0.42818 0.64544 0.06809 0.0
H1269 H 0.41329 0.67378 0.07024 0.0
H1270 H 0.34385 0.6781 0.07776 0.0
H1271 H 0.32643 0.68823 0.05545 0.0
H1272 H 0.41748 0.96063 0.38832 0.0
H1273 H 0.39493 0.94006 0.37026 0.0
H1274 H 0.45373 0.89098 0.36465 0.0
H1275 H 0.47628 0.91135 0.38261 0.0
H1276 H 0.40981 0.93867 0.34427 0.0
H1277 H 0.39712 0.84611 0.36201 0.0
H1278 H 0.405 0.87022 0.3735 0.0
H1279 H 0.42783 0.85521 0.36369 0.0
C1280 C 0.42542 0.9452 0.38338 0.0
C1281 C 0.44871 0.93768 0.38685 0.0
C1282 C 0.41246 0.93339 0.37313 0.0
C1283 C 0.42249 0.91378 0.36622 0.0
C1284 C 0.44532 0.90563 0.37008 0.0
H1285 H 0.42607 0.87155 0.28468 0.0
H1286 H 0.43017 0.88569 0.30812 0.0
C1287 C 0.45825 0.91737 0.38034 0.0
C1288 C 0.41085 0.90401 0.35374 0.0
H1289 H 0.39713 0.85176 0.33733 0.0
C1290 C 0.40649 0.91973 0.34288 0.0
C1291 C 0.40628 0.87933 0.35193 0.0
C1292 C 0.40906 0.8618 0.36347 0.0
C1293 C 0.39935 0.91124 0.33001 0.0
C1294 C 0.39675 0.88641 0.32791 0.0
C1295 C 0.39943 0.87079 0.33897 0.0
C1296 C 0.39399 0.87645 0.31399 0.0
C1297 C 0.3956 0.9288 0.31856 0.0
C1298 C 0.37236 0.86608 0.30965 0.0
C1299 C 0.36985 0.85796 0.29614 0.0
C1300 C 0.38903 0.85996 0.28685 0.0
C1301 C 0.41085 0.86978 0.29147 0.0
C1302 C 0.41326 0.87793 0.30488 0.0
H1303 H 0.3924 0.94716 0.32252 0.0
H1304 H 0.41187 0.92919 0.31205 0.0
H1305 H 0.38017 0.92341 0.31205 0.0
H1306 H 0.35733 0.86475 0.3166 0.0
H1307 H 0.35282 0.85045 0.29295 0.0
H1308 H 0.12428 0.98688 0.62708 0.0
H1309 H 0.14703 0.96394 0.6102 0.0
H1310 H 0.10466 0.90148 0.61918 0.0
H1311 H 0.08131 0.92465 0.63582 0.0
H1312 H 0.17451 0.92404 0.61085 0.0
H1313 H 0.09341 0.90834 0.57877 0.0
H1314 H 0.09332 0.92858 0.59314 0.0
H1315 H 0.09159 0.89689 0.59583 0.0
C1316 C 0.12 0.96818 0.62556 0.0
C1317 C 0.10089 0.95757 0.63263 0.0
C1318 C 0.133 0.95509 0.61592 0.0
C1319 C 0.12724 0.93111 0.61324 0.0
C1320 C 0.10899 0.92012 0.62082 0.0
H1321 H 0.18135 0.85005 0.54247 0.0
H1322 H 0.1667 0.85721 0.56578 0.0
C1323 C 0.09573 0.93332 0.63034 0.0
C1324 C 0.13957 0.91832 0.60195 0.0
H1325 H 0.12996 0.89382 0.57038 0.0
C1326 C 0.16475 0.91717 0.60207 0.0
C1327 C 0.1268 0.90933 0.59049 0.0
C1328 C 0.09982 0.91098 0.58943 0.0
C1329 C 0.17752 0.90809 0.59084 0.0
C1330 C 0.16476 0.89999 0.57924 0.0
C1331 C 0.13962 0.89994 0.57938 0.0
C1332 C 0.1769 0.89446 0.56619 0.0
C1333 C 0.20455 0.9078 0.59128 0.0
C1334 C 0.18765 0.913 0.55882 0.0
C1335 C 0.1957 0.90909 0.54551 0.0
C1336 C 0.19327 0.8865 0.53933 0.0
C1337 C 0.18357 0.86762 0.54698 0.0
C1338 C 0.17519 0.87165 0.56027 0.0
H1339 H 0.2114 0.90851 0.60195 0.0
H1340 H 0.21172 0.89156 0.58617 0.0
H1341 H 0.21153 0.92362 0.58578 0.0
H1342 H 0.18877 0.93082 0.56314 0.0
H1343 H 0.20319 0.92397 0.53991 0.0
H1344 H 0.56252 0.45264 0.88839 0.0
H1345 H 0.58566 0.4272 0.90369 0.0
H1346 H 0.61717 0.39125 0.86905 0.0
H1347 H 0.59418 0.41703 0.85352 0.0
H1348 H 0.58413 0.37284 0.90238 0.0
H1349 H 0.6744 0.41427 0.89579 0.0
H1350 H 0.64735 0.43107 0.89255 0.0
H1351 H 0.65603 0.40764 0.88105 0.0
C1352 C 0.5746 0.43957 0.88399 0.0
C1353 C 0.57665 0.43695 0.86975 0.0
C1354 C 0.58768 0.42496 0.89275 0.0
C1355 C 0.60315 0.4075 0.88746 0.0
C1356 C 0.60539 0.40477 0.87327 0.0
H1357 H 0.68347 0.32 0.94767 0.0
H1358 H 0.66999 0.33313 0.92491 0.0
C1359 C 0.59217 0.41938 0.86445 0.0
C1360 C 0.61625 0.39198 0.89706 0.0
H1361 H 0.66963 0.38731 0.914 0.0
C1362 C 0.60297 0.37553 0.90471 0.0
C1363 C 0.64083 0.39553 0.89999 0.0
C1364 C 0.65566 0.41308 0.89198 0.0
C1365 C 0.61331 0.36357 0.91579 0.0
C1366 C 0.63738 0.36846 0.91937 0.0
C1367 C 0.65117 0.38364 0.91116 0.0
C1368 C 0.64696 0.36105 0.93275 0.0
C1369 C 0.59808 0.3468 0.92411 0.0
C1370 C 0.63876 0.37277 0.94452 0.0
C1371 C 0.64637 0.36545 0.95739 0.0
C1372 C 0.66235 0.34622 0.95875 0.0
C1373 C 0.67109 0.33484 0.94691 0.0
C1374 C 0.66347 0.34228 0.93395 0.0
H1375 H 0.58202 0.34069 0.91833 0.0
H1376 H 0.60865 0.33096 0.9273 0.0
H1377 H 0.5919 0.35617 0.93349 0.0
H1378 H 0.62612 0.38741 0.94374 0.0
H1379 H 0.63936 0.37466 0.96628 0.0
H1380 H 0.58646 0.06304 0.14054 0.0
H1381 H 0.60579 0.08941 0.15716 0.0
H1382 H 0.63984 0.12805 0.12447 0.0
H1383 H 0.62044 0.10147 0.10765 0.0
H1384 H 0.67123 0.11203 0.14632 0.0
H1385 H 0.59212 0.16086 0.16597 0.0
H1386 H 0.58721 0.12922 0.16487 0.0
H1387 H 0.59234 0.14601 0.14952 0.0
C1388 C 0.59802 0.07718 0.13688 0.0
C1389 C 0.60207 0.08016 0.12283 0.0
C1390 C 0.60883 0.09238 0.14637 0.0
C1391 C 0.62394 0.11086 0.14202 0.0
C1392 C 0.62801 0.11402 0.12799 0.0
H1393 H 0.67875 0.19155 0.21313 0.0
H1394 H 0.66613 0.18593 0.18925 0.0
C1395 C 0.61694 0.0989 0.11843 0.0
C1396 C 0.63662 0.12547 0.15237 0.0
H1397 H 0.62595 0.15762 0.18141 0.0
C1398 C 0.66148 0.12257 0.15381 0.0
C1399 C 0.62393 0.13951 0.16198 0.0
C1400 C 0.59745 0.14432 0.16045 0.0
C1401 C 0.6736 0.13151 0.16533 0.0
C1402 C 0.66041 0.14341 0.17564 0.0
C1403 C 0.63599 0.14826 0.17355 0.0
C1404 C 0.67055 0.14757 0.18943 0.0
C1405 C 0.70018 0.12715 0.16669 0.0
C1406 C 0.67711 0.12786 0.19738 0.0
C1407 C 0.68401 0.13094 0.21097 0.0
C1408 C 0.68454 0.15383 0.21691 0.0
C1409 C 0.67862 0.1737 0.20882 0.0
C1410 C 0.67142 0.17054 0.1952 0.0
H1411 H 0.7088 0.12528 0.15651 0.0
H1412 H 0.70908 0.14188 0.17241 0.0
H1413 H 0.70314 0.11028 0.17235 0.0
H1414 H 0.67608 0.10994 0.19321 0.0
H1415 H 0.68855 0.11527 0.21688 0.0
H1416 H 0.98641 0.10289 0.38612 0.0
H1417 H 0.96043 0.12494 0.4017 0.0
H1418 H 0.91026 0.13762 0.36897 0.0
H1419 H 0.93661 0.116 0.35305 0.0
H1420 H 0.94147 0.17609 0.39684 0.0
H1421 H 0.87318 0.10409 0.40282 0.0
H1422 H 0.90356 0.09719 0.39778 0.0
H1423 H 0.88391 0.11197 0.38604 0.0
C1424 C 0.97007 0.11065 0.38213 0.0
C1425 C 0.96371 0.10783 0.36829 0.0
C1426 C 0.95517 0.12312 0.39108 0.0
C1427 C 0.93352 0.13285 0.38645 0.0
C1428 C 0.92692 0.13011 0.37269 0.0
H1429 H 0.85711 0.2205 0.4482 0.0
H1430 H 0.86837 0.20648 0.42523 0.0
C1431 C 0.94193 0.11767 0.36366 0.0
C1432 C 0.91804 0.1456 0.39629 0.0
H1433 H 0.87168 0.13625 0.41834 0.0
C1434 C 0.92581 0.16776 0.40134 0.0
C1435 C 0.89775 0.13449 0.4021 0.0
C1436 C 0.88895 0.11059 0.39699 0.0
C1437 C 0.91459 0.17854 0.41261 0.0
C1438 C 0.89512 0.16677 0.41892 0.0
C1439 C 0.88653 0.14523 0.41339 0.0
C1440 C 0.88613 0.17457 0.43242 0.0
C1441 C 0.92463 0.20156 0.4183 0.0
C1442 C 0.892 0.16101 0.44394 0.0
C1443 C 0.88577 0.16897 0.45697 0.0
C1444 C 0.87337 0.19059 0.45873 0.0
C1445 C 0.86673 0.2038 0.44714 0.0
C1446 C 0.87315 0.19586 0.43404 0.0
H1447 H 0.94105 0.20738 0.41283 0.0
H1448 H 0.91095 0.21586 0.41743 0.0
H1449 H 0.92899 0.19946 0.42931 0.0
H1450 H 0.90206 0.14456 0.44287 0.0
H1451 H 0.89104 0.15832 0.46568 0.0
H1452 H 0.92149 0.44076 0.60713 0.0
H1453 H 0.89813 0.41577 0.62277 0.0
H1454 H 0.94089 0.44098 0.65665 0.0
H1455 H 0.96394 0.46624 0.64126 0.0
H1456 H 0.93347 0.38905 0.65477 0.0
H1457 H 0.84918 0.44243 0.65168 0.0
H1458 H 0.86318 0.4329 0.636 0.0
H1459 H 0.87782 0.45461 0.64665 0.0
C1460 C 0.9258 0.44109 0.61793 0.0
C1461 C 0.9446 0.45549 0.62295 0.0
C1462 C 0.91249 0.42677 0.62682 0.0
C1463 C 0.91776 0.42667 0.64083 0.0
C1464 C 0.93665 0.44077 0.64583 0.0
H1465 H 0.88137 0.38699 0.71965 0.0
H1466 H 0.89898 0.39718 0.69768 0.0
C1467 C 0.94988 0.45509 0.637 0.0
C1468 C 0.90362 0.41226 0.65053 0.0
H1469 H 0.85077 0.41207 0.66808 0.0
C1470 C 0.91523 0.39377 0.65753 0.0
C1471 C 0.87976 0.41834 0.65398 0.0
C1472 C 0.86664 0.4382 0.64677 0.0
C1473 C 0.90403 0.382 0.66839 0.0
C1474 C 0.88084 0.38925 0.67249 0.0
C1475 C 0.8686 0.40663 0.66491 0.0
C1476 C 0.87043 0.38144 0.68562 0.0
C1477 C 0.91741 0.36242 0.67569 0.0
C1478 C 0.8483 0.36951 0.68613 0.0
C1479 C 0.83812 0.36362 0.69875 0.0
C1480 C 0.8498 0.36993 0.711 0.0
C1481 C 0.87196 0.38181 0.7104 0.0
C1482 C 0.88215 0.38751 0.69785 0.0
H1483 H 0.93083 0.35381 0.66887 0.0
H1484 H 0.92719 0.37018 0.68455 0.0
H1485 H 0.90493 0.34854 0.67953 0.0
H1486 H 0.83889 0.36492 0.67678 0.0
H1487 H 0.82096 0.35454 0.69893 0.0
H1488 H 0.57815 0.0717 0.3637 0.0
H1489 H 0.60172 0.09397 0.34708 0.0
H1490 H 0.65284 0.11272 0.37846 0.0
H1491 H 0.62898 0.09086 0.39535 0.0
H1492 H 0.61604 0.14528 0.34954 0.0
H1493 H 0.69196 0.0808 0.34576 0.0
H1494 H 0.6628 0.07195 0.35198 0.0
H1495 H 0.68193 0.09015 0.36245 0.0
C1496 C 0.59422 0.08079 0.36715 0.0
C1497 C 0.6016 0.07959 0.38089 0.0
C1498 C 0.60774 0.09338 0.35762 0.0
C1499 C 0.629 0.10485 0.36157 0.0
C1500 C 0.63655 0.10376 0.37523 0.0
H1501 H 0.69846 0.19918 0.30138 0.0
H1502 H 0.6865 0.18338 0.32373 0.0
C1503 C 0.62295 0.09121 0.38483 0.0
C1504 C 0.64298 0.11797 0.35122 0.0
H1505 H 0.69185 0.113 0.33044 0.0
C1506 C 0.63285 0.13855 0.3455 0.0
C1507 C 0.6648 0.10894 0.34601 0.0
C1508 C 0.67612 0.08669 0.35177 0.0
C1509 C 0.64353 0.14986 0.3343 0.0
C1510 C 0.66492 0.14035 0.32876 0.0
C1511 C 0.67553 0.12028 0.33481 0.0
C1512 C 0.67475 0.14924 0.31572 0.0
C1513 C 0.63118 0.1711 0.32797 0.0
C1514 C 0.6727 0.135 0.30396 0.0
C1515 C 0.67939 0.14394 0.29125 0.0
C1516 C 0.68842 0.16727 0.29009 0.0
C1517 C 0.69147 0.18117 0.30197 0.0
C1518 C 0.68462 0.17221 0.31472 0.0
H1519 H 0.61319 0.1744 0.33248 0.0
H1520 H 0.64232 0.18729 0.32959 0.0
H1521 H 0.6291 0.16841 0.31678 0.0
H1522 H 0.66511 0.11722 0.30455 0.0
H1523 H 0.67696 0.13275 0.28229 0.0
H1524 H 0.9864 0.14031 0.63138 0.0
H1525 H 0.96783 0.16434 0.6135 0.0
H1526 H 0.90992 0.11348 0.6104 0.0
H1527 H 0.9276 0.09014 0.62877 0.0
H1528 H 0.9632 0.14966 0.58839 0.0
H1529 H 0.8729 0.174 0.60649 0.0
H1530 H 0.89588 0.16321 0.61793 0.0
H1531 H 0.87745 0.14254 0.60839 0.0
C1532 C 0.96928 0.13466 0.62724 0.0
C1533 C 0.9586 0.11315 0.63145 0.0
C1534 C 0.95874 0.14838 0.61696 0.0
C1535 C 0.93733 0.1409 0.61067 0.0
C1536 C 0.92612 0.11999 0.61528 0.0
H1537 H 0.89779 0.13737 0.5286 0.0
H1538 H 0.91203 0.13343 0.55197 0.0
C1539 C 0.93651 0.10639 0.62563 0.0
C1540 C 0.92859 0.15275 0.59807 0.0
H1541 H 0.87751 0.17049 0.58166 0.0
C1542 C 0.94458 0.15476 0.58706 0.0
C1543 C 0.90439 0.1598 0.5963 0.0
C1544 C 0.88678 0.16002 0.60799 0.0
C1545 C 0.93666 0.16187 0.57411 0.0
C1546 C 0.91202 0.16658 0.57204 0.0
C1547 C 0.89633 0.16641 0.58323 0.0
C1548 C 0.90207 0.16922 0.5581 0.0
C1549 C 0.95464 0.16349 0.56264 0.0
C1550 C 0.89091 0.19043 0.55393 0.0
C1551 C 0.88258 0.19278 0.54048 0.0
C1552 C 0.88519 0.17387 0.53104 0.0
C1553 C 0.8957 0.15242 0.53548 0.0
C1554 C 0.90394 0.15013 0.54885 0.0
H1555 H 0.97303 0.16683 0.56661 0.0
H1556 H 0.95491 0.14631 0.55694 0.0
H1557 H 0.94985 0.17792 0.55539 0.0
H1558 H 0.88913 0.20529 0.56098 0.0
H1559 H 0.87451 0.20952 0.53742 0.0
H1560 H 0.89876 0.44557 0.89467 0.0
H1561 H 0.87411 0.42388 0.87778 0.0
H1562 H 0.91016 0.46093 0.84518 0.0
H1563 H 0.93448 0.48265 0.86187 0.0
H1564 H 0.85768 0.45648 0.84263 0.0
H1565 H 0.90555 0.37091 0.85281 0.0
H1566 H 0.8925 0.38713 0.86689 0.0
H1567 H 0.91794 0.39925 0.85814 0.0
C1568 C 0.90112 0.44927 0.8839 0.0
C1569 C 0.91871 0.46555 0.87954 0.0
C1570 C 0.88714 0.43683 0.87429 0.0
C1571 C 0.8905 0.44072 0.86026 0.0
C1572 C 0.90733 0.45769 0.85597 0.0
H1573 H 0.89639 0.38428 0.78403 0.0
H1574 H 0.8986 0.39743 0.80772 0.0
C1575 C 0.92133 0.46993 0.8655 0.0
C1576 C 0.87791 0.4263 0.84977 0.0
H1577 H 0.88264 0.37318 0.83277 0.0
C1578 C 0.86248 0.43802 0.84065 0.0
C1579 C 0.88436 0.40228 0.84726 0.0
C1580 C 0.90104 0.38901 0.85672 0.0
C1581 C 0.85474 0.42687 0.82854 0.0
C1582 C 0.86264 0.40345 0.82556 0.0
C1583 C 0.87658 0.39112 0.83517 0.0
C1584 C 0.86063 0.3934 0.8116 0.0
C1585 C 0.83983 0.44085 0.81849 0.0
C1586 C 0.83852 0.3864 0.80598 0.0
C1587 C 0.83715 0.37878 0.79233 0.0
C1588 C 0.85788 0.37825 0.78412 0.0
C1589 C 0.88003 0.38467 0.78998 0.0
C1590 C 0.88137 0.39208 0.80356 0.0
H1591 H 0.83628 0.45937 0.82206 0.0
H1592 H 0.84911 0.44164 0.80846 0.0
H1593 H 0.82238 0.43172 0.81687 0.0
H1594 H 0.82234 0.38719 0.81208 0.0
H1595 H 0.81983 0.37393 0.78812 0.0
H1596 H 0.54985 0.39478 0.13132 0.0
H1597 H 0.56923 0.3706 0.11369 0.0
H1598 H 0.62432 0.42416 0.10945 0.0
H1599 H 0.60593 0.44769 0.1276 0.0
H1600 H 0.57264 0.38353 0.08836 0.0
H1601 H 0.66447 0.36553 0.10638 0.0
H1602 H 0.64117 0.3759 0.11776 0.0
H1603 H 0.65831 0.39682 0.10777 0.0
C1604 C 0.56654 0.40105 0.12698 0.0
C1605 C 0.57622 0.42331 0.13082 0.0
C1606 C 0.57754 0.38723 0.11683 0.0
C1607 C 0.59841 0.39537 0.11032 0.0
C1608 C 0.6086 0.41714 0.11452 0.0
H1609 H 0.63653 0.39771 0.02856 0.0
H1610 H 0.62219 0.40124 0.05191 0.0
C1611 C 0.59776 0.43084 0.12474 0.0
C1612 C 0.60756 0.38311 0.0979 0.0
H1613 H 0.6593 0.36739 0.0815 0.0
C1614 C 0.59151 0.37944 0.08701 0.0
C1615 C 0.6321 0.37733 0.09612 0.0
C1616 C 0.6499 0.37886 0.10772 0.0
C1617 C 0.5996 0.37201 0.07414 0.0
C1618 C 0.62444 0.36868 0.072 0.0
C1619 C 0.64029 0.37041 0.08312 0.0
C1620 C 0.6343 0.36622 0.05805 0.0
C1621 C 0.58157 0.3687 0.06276 0.0
C1622 C 0.64663 0.3456 0.05389 0.0
C1623 C 0.65501 0.34348 0.04044 0.0
C1624 C 0.65129 0.36205 0.03101 0.0
C1625 C 0.63953 0.38292 0.03543 0.0
C1626 C 0.63122 0.38498 0.0488 0.0
H1627 H 0.56349 0.36444 0.06685 0.0
H1628 H 0.58012 0.38554 0.05688 0.0
H1629 H 0.58713 0.35423 0.05564 0.0
H1630 H 0.64934 0.33102 0.06096 0.0
H1631 H 0.66406 0.3272 0.03739 0.0
loop_
_geom_bond_atom_site_label_1
_geom_bond_atom_site_label_2
_geom_bond_distance
_geom_bond_site_symmetry_2
_ccdc_geom_bond_type
C0 C1 1.384 . S
C0 C2 1.384 . S
C0 H28 0.931 . S
C1 C0 1.384 . S
C1 C4 1.382 1_565 S
C2 C0 1.384 . S
C2 C3 1.381 1_565 S
C2 H29 0.930 . S
C3 C2 1.381 1_545 S
C3 C5 1.381 . S
C3 C6 1.487 . S
C4 C1 1.382 1_545 S
C4 C5 1.387 . S
C4 H30 0.930 . S
C5 C3 1.381 . S
C5 C4 1.387 . S
C5 H31 0.931 . S
C6 C3 1.487 . S
C6 C13 1.399 . S
C6 N44 1.343 . S
C7 C8 1.384 . S
C7 C9 1.384 1_565 S
C7 H32 0.931 . S
C8 C7 1.384 . S
C8 C11 1.382 . S
C9 C7 1.384 1_545 S
C9 C10 1.382 . S
C9 H33 0.930 . S
C10 C9 1.382 . S
C10 C12 1.376 1_545 S
C10 C13 1.491 . S
C11 C8 1.382 . S
C11 C12 1.387 . S
C11 H34 0.930 . S
C12 C10 1.376 1_565 S
C12 C11 1.387 . S
C12 H35 0.931 . S
C13 C6 1.399 . S
C13 C10 1.491 . S
C13 N45 1.343 . S
C14 C15 1.384 . S
C14 C16 1.384 . S
C14 H36 0.931 . S
C15 C14 1.384 . S
C15 C18 1.382 . S
C16 C14 1.384 . S
C16 C17 1.384 . S
C16 H37 0.930 1_655 S
C17 C16 1.384 . S
C17 C19 1.390 . S
C17 C20 1.475 1_655 S
C18 C15 1.382 . S
C18 C19 1.387 . S
C18 H38 0.930 . S
C19 C17 1.390 . S
C19 C18 1.387 . S
C19 H39 0.931 . S
C20 C17 1.475 1_455 S
C20 C27 1.399 . S
C20 N45 1.343 . S
C21 C22 1.384 . S
C21 C23 1.384 . S
C21 H40 0.931 . S
C22 C21 1.384 . S
C22 C25 1.382 . S
C23 C21 1.384 . S
C23 C24 1.381 1_655 S
C23 H41 0.930 . S
C24 C23 1.381 1_455 S
C24 C26 1.381 . S
C24 C27 1.487 . S
C25 C22 1.382 . S
C25 C26 1.387 1_655 S
C25 H42 0.914 1_655 S
C26 C24 1.381 . S
C26 C25 1.387 1_455 S
C26 H43 0.931 . S
C27 C20 1.399 . S
C27 C24 1.487 . S
C27 N44 1.343 . S
H28 C0 0.931 . S
H29 C2 0.930 . S
H30 C4 0.930 . S
H31 C5 0.931 . S
H32 C7 0.931 . S
H33 C9 0.930 . S
H34 C11 0.930 . S
H35 C12 0.931 . S
H36 C14 0.931 . S
H37 C16 0.930 1_455 S
H38 C18 0.930 . S
H39 C19 0.931 . S
H40 C21 0.931 . S
H41 C23 0.930 . S
H42 C25 0.914 1_455 S
H43 C26 0.931 . S
N44 C6 1.343 . S
N44 C27 1.343 . S
N45 C13 1.343 . S
N45 C20 1.343 . S
C46 C47 1.384 . S
C46 C48 1.384 . S
C46 H74 0.931 . S
C47 C46 1.384 . S
C47 C50 1.382 . S
C48 C46 1.384 . S
C48 C49 1.381 . S
C48 H75 0.930 . S
C49 C48 1.381 . S
C49 C51 1.381 . S
C49 C52 1.487 . S
C50 C47 1.382 . S
C50 C51 1.387 . S
C50 H76 0.930 . S
C51 C49 1.381 . S
C51 C50 1.387 . S
C51 H77 0.931 1_655 S
C52 C49 1.487 . S
C52 C59 1.399 . S
C52 N90 1.343 1_655 S
C53 C54 1.384 . S
C53 C55 1.384 . S
C53 H78 0.931 . S
C54 C53 1.384 . S
C54 C57 1.382 . S
C55 C53 1.384 . S
C55 C56 1.381 . S
C55 H79 0.930 . S
C56 C55 1.381 . S
C56 C58 1.381 . S
C56 C59 1.487 . S
C57 C54 1.382 . S
C57 C58 1.387 . S
C57 H80 0.930 . S
C58 C56 1.381 . S
C58 C57 1.387 . S
C58 H81 0.931 . S
C59 C52 1.399 . S
C59 C56 1.487 . S
C59 N91 1.343 1_655 S
C60 C61 1.384 . S
C60 C62 1.384 . S
C60 H82 0.931 . S
C61 C60 1.384 . S
C61 C64 1.382 . S
C62 C60 1.384 . S
C62 C63 1.381 . S
C62 H83 0.930 . S
C63 C62 1.381 . S
C63 C65 1.381 . S
C63 C66 1.487 . S
C64 C61 1.382 . S
C64 C65 1.387 . S
C64 H84 0.930 . S
C65 C63 1.381 . S
C65 C64 1.387 . S
C65 H85 0.931 . S
C66 C63 1.487 . S
C66 C73 1.399 . S
C66 N91 1.343 . S
C67 C68 1.384 . S
C67 C69 1.384 . S
C67 H86 0.931 . S
C68 C67 1.384 . S
C68 C71 1.382 . S
C69 C67 1.384 . S
C69 C70 1.381 . S
C69 H87 0.930 . S
C70 C69 1.381 . S
C70 C72 1.381 . S
C70 C73 1.487 . S
C71 C68 1.382 . S
C71 C72 1.387 . S
C71 H88 0.930 . S
C72 C70 1.381 . S
C72 C71 1.387 . S
C72 H89 0.931 . S
C73 C66 1.399 . S
C73 C70 1.487 . S
C73 N90 1.343 . S
H74 C46 0.931 . S
H75 C48 0.930 . S
H76 C50 0.930 . S
H77 C51 0.931 1_455 S
H78 C53 0.931 . S
H79 C55 0.930 . S
H80 C57 0.930 . S
H81 C58 0.931 . S
H82 C60 0.931 . S
H83 C62 0.930 . S
H84 C64 0.930 . S
H85 C65 0.931 . S
H86 C67 0.931 . S
H87 C69 0.930 . S
H88 C71 0.930 . S
H89 C72 0.931 . S
N90 C52 1.343 1_455 S
N90 C73 1.343 . S
N91 C59 1.343 1_455 S
N91 C66 1.343 . S
C92 C93 1.384 . S
C92 C94 1.384 . S
C92 H120 0.931 . S
C93 C92 1.384 . S
C93 C96 1.382 . S
C94 C92 1.384 . S
C94 C95 1.381 . S
C94 H121 0.930 . S
C95 C94 1.381 . S
C95 C97 1.381 . S
C95 C98 1.487 . S
C96 C93 1.382 . S
C96 C97 1.387 . S
C96 H122 0.930 . S
C97 C95 1.381 . S
C97 C96 1.387 . S
C97 H123 0.931 . S
C98 C95 1.487 . S
C98 C105 1.399 . S
C98 N136 1.343 . S
C99 C100 1.384 . S
C99 C101 1.384 . S
C99 H124 0.931 . S
C100 C99 1.384 . S
C100 C103 1.382 . S
C101 C99 1.384 . S
C101 C102 1.381 . S
C101 H125 0.930 . S
C102 C101 1.381 . S
C102 C104 1.381 . S
C102 C105 1.487 . S
C103 C100 1.382 . S
C103 C104 1.387 . S
C103 H126 0.930 . S
C104 C102 1.381 . S
C104 C103 1.387 . S
C104 H127 0.931 . S
C105 C98 1.399 . S
C105 C102 1.487 . S
C105 N137 1.343 . S
C106 C107 1.384 . S
C106 C108 1.384 . S
C106 H128 0.931 . S
C107 C106 1.384 . S
C107 C110 1.382 . S
C108 C106 1.384 . S
C108 C109 1.381 . S
C108 H129 0.930 . S
C109 C108 1.381 . S
C109 C111 1.381 . S
C109 C112 1.487 . S
C110 C107 1.382 . S
C110 C111 1.387 . S
C110 H130 0.930 . S
C111 C109 1.381 . S
C111 C110 1.387 . S
C111 H131 0.931 . S
C112 C109 1.487 . S
C112 C119 1.399 . S
C112 N137 1.343 . S
C113 C114 1.384 . S
C113 C115 1.384 . S
C113 H132 0.931 . S
C114 C113 1.384 . S
C114 C117 1.382 . S
C115 C113 1.384 . S
C115 C116 1.381 . S
C115 H133 0.930 . S
C116 C115 1.381 . S
C116 C118 1.381 . S
C116 C119 1.487 . S
C117 C114 1.382 . S
C117 C118 1.387 . S
C117 H134 0.930 . S
C118 C116 1.381 . S
C118 C117 1.387 . S
C118 H135 0.931 . S
C119 C112 1.399 . S
C119 C116 1.487 . S
C119 N136 1.343 . S
H120 C92 0.931 . S
H121 C94 0.930 . S
H122 C96 0.930 . S
H123 C97 0.931 . S
H124 C99 0.931 . S
H125 C101 0.930 . S
H126 C103 0.930 . S
H127 C104 0.931 . S
H128 C106 0.931 . S
H129 C108 0.930 . S
H130 C110 0.930 . S
H131 C111 0.931 . S
H132 C113 0.931 . S
H133 C115 0.930 . S
H134 C117 0.930 . S
H135 C118 0.931 . S
N136 C98 1.343 . S
N136 C119 1.343 . S
N137 C105 1.343 . S
N137 C112 1.343 . S
C138 C139 1.384 . S
C138 C140 1.384 . S
C138 H166 0.931 . S
C139 C138 1.384 . S
C139 C142 1.382 . S
C140 C138 1.384 . S
C140 C141 1.381 . S
C140 H167 0.930 . S
C141 C140 1.381 . S
C141 C143 1.381 . S
C141 C144 1.487 . S
C142 C139 1.382 . S
C142 C143 1.387 . S
C142 H168 0.930 . S
C143 C141 1.381 . S
C143 C142 1.387 . S
C143 H169 0.931 . S
C144 C141 1.487 . S
C144 C151 1.399 . S
C144 N182 1.343 1_565 S
C145 C146 1.384 . S
C145 C147 1.384 . S
C145 H170 0.931 . S
C146 C145 1.384 . S
C146 C149 1.382 . S
C147 C145 1.384 . S
C147 C148 1.381 . S
C147 H171 0.930 . S
C148 C147 1.381 . S
C148 C150 1.381 . S
C148 C151 1.487 . S
C149 C146 1.382 . S
C149 C150 1.387 . S
C149 H172 0.930 . S
C150 C148 1.381 . S
C150 C149 1.387 . S
C150 H173 0.931 . S
C151 C144 1.399 . S
C151 C148 1.487 . S
C151 N183 1.343 . S
C152 C153 1.384 . S
C152 C154 1.384 . S
C152 H174 0.931 . S
C153 C152 1.384 . S
C153 C156 1.382 . S
C154 C152 1.384 . S
C154 C155 1.381 . S
C154 H175 0.930 . S
C155 C154 1.381 . S
C155 C157 1.381 . S
C155 C158 1.487 . S
C156 C153 1.382 . S
C156 C157 1.387 . S
C156 H176 0.930 . S
C157 C155 1.381 . S
C157 C156 1.387 . S
C157 H177 0.931 . S
C158 C155 1.487 . S
C158 C165 1.399 . S
C158 N183 1.343 1_545 S
C159 C160 1.384 . S
C159 C161 1.384 . S
C159 H178 0.931 . S
C160 C159 1.384 . S
C160 C163 1.382 . S
C161 C159 1.384 . S
C161 C162 1.381 . S
C161 H179 0.930 . S
C162 C161 1.381 . S
C162 C164 1.381 . S
C162 C165 1.487 . S
C163 C160 1.382 . S
C163 C164 1.387 . S
C163 H180 0.930 . S
C164 C162 1.381 . S
C164 C163 1.387 . S
C164 H181 0.931 . S
C165 C158 1.399 . S
C165 C162 1.487 . S
C165 N182 1.343 . S
H166 C138 0.931 . S
H167 C140 0.930 . S
H168 C142 0.930 . S
H169 C143 0.931 . S
H170 C145 0.931 . S
H171 C147 0.930 . S
H172 C149 0.930 . S
H173 C150 0.931 . S
H174 C152 0.931 . S
H175 C154 0.930 . S
H176 C156 0.930 . S
H177 C157 0.931 . S
H178 C159 0.931 . S
H179 C161 0.930 . S
H180 C163 0.930 . S
H181 C164 0.931 . S
N182 C144 1.343 1_545 S
N182 C165 1.343 . S
N183 C151 1.343 . S
N183 C158 1.343 1_565 S
C184 C185 1.384 . S
C184 C186 1.384 . S
C184 H212 0.931 . S
C185 C184 1.384 . S
C185 C188 1.382 . S
C186 C184 1.384 . S
C186 C187 1.381 . S
C186 H213 0.930 . S
C187 C186 1.381 . S
C187 C189 1.381 . S
C187 C190 1.487 . S
C188 C185 1.382 . S
C188 C189 1.387 . S
C188 H214 0.930 . S
C189 C187 1.381 . S
C189 C188 1.387 . S
C189 H215 0.931 . S
C190 C187 1.487 . S
C190 C197 1.399 . S
C190 N228 1.343 . S
C191 C192 1.384 . S
C191 C193 1.384 . S
C191 H216 0.931 . S
C192 C191 1.384 . S
C192 C195 1.382 . S
C193 C191 1.384 . S
C193 C194 1.381 . S
C193 H217 0.930 . S
C194 C193 1.381 . S
C194 C196 1.381 . S
C194 C197 1.487 . S
C195 C192 1.382 . S
C195 C196 1.387 . S
C195 H218 0.930 . S
C196 C194 1.381 . S
C196 C195 1.387 . S
C196 H219 0.931 . S
C197 C190 1.399 . S
C197 C194 1.487 . S
C197 N229 1.363 . S
C198 C199 1.384 . S
C198 C200 1.384 . S
C198 H220 0.931 . S
C199 C198 1.384 . S
C199 C202 1.382 . S
C200 C198 1.384 . S
C200 C201 1.381 . S
C200 H221 0.930 . S
C201 C200 1.381 . S
C201 C203 1.381 . S
C201 C204 1.487 . S
C202 C199 1.382 . S
C202 C203 1.387 . S
C202 H222 0.930 . S
C203 C201 1.381 . S
C203 C202 1.387 . S
C203 H223 0.931 . S
C204 C201 1.487 . S
C204 C211 1.399 . S
C204 N229 1.326 1_655 S
C205 C206 1.384 . S
C205 C207 1.384 . S
C205 H224 0.931 . S
C206 C205 1.384 . S
C206 C209 1.382 . S
C207 C205 1.384 . S
C207 C208 1.381 . S
C207 H225 0.930 . S
C208 C207 1.381 . S
C208 C210 1.381 . S
C208 C211 1.487 . S
C209 C206 1.382 . S
C209 C210 1.387 . S
C209 H226 0.930 . S
C210 C208 1.381 . S
C210 C209 1.387 . S
C210 H227 0.931 . S
C211 C204 1.399 . S
C211 C208 1.487 . S
C211 N228 1.343 1_655 S
H212 C184 0.931 . S
H213 C186 0.930 . S
H214 C188 0.930 . S
H215 C189 0.931 . S
H216 C191 0.931 . S
H217 C193 0.930 . S
H218 C195 0.930 . S
H219 C196 0.931 . S
H220 C198 0.931 . S
H221 C200 0.930 . S
H222 C202 0.930 . S
H223 C203 0.931 . S
H224 C205 0.931 . S
H225 C207 0.930 . S
H226 C209 0.930 . S
H227 C210 0.931 . S
N228 C190 1.343 . S
N228 C211 1.343 1_455 S
N229 C197 1.363 . S
N229 C204 1.326 1_455 S
C230 C231 1.384 . S
C230 C232 1.384 . S
C230 H258 0.931 . S
C231 C230 1.384 . S
C231 C234 1.382 . S
C232 C230 1.384 . S
C232 C233 1.381 . S
C232 H259 0.930 . S
C233 C232 1.381 . S
C233 C235 1.381 . S
C233 C236 1.487 . S
C234 C231 1.382 . S
C234 C235 1.387 . S
C234 H260 0.930 . S
C235 C233 1.381 . S
C235 C234 1.387 . S
C235 H261 0.931 . S
C236 C233 1.487 . S
C236 C243 1.399 . S
C236 N274 1.343 . S
C237 C238 1.384 . S
C237 C239 1.384 . S
C237 H262 0.931 . S
C238 C237 1.384 . S
C238 C241 1.382 . S
C239 C237 1.384 . S
C239 C240 1.381 . S
C239 H263 0.930 . S
C240 C239 1.381 . S
C240 C242 1.381 . S
C240 C243 1.487 . S
C241 C238 1.382 . S
C241 C242 1.387 . S
C241 H264 0.930 . S
C242 C240 1.381 . S
C242 C241 1.387 . S
C242 H265 0.931 . S
C243 C236 1.399 . S
C243 C240 1.487 . S
C243 N275 1.343 . S
C244 C245 1.384 . S
C244 C246 1.384 . S
C244 H266 0.931 . S
C245 C244 1.384 . S
C245 C248 1.382 . S
C246 C244 1.384 . S
C246 C247 1.381 . S
C246 H267 0.930 . S
C247 C246 1.381 . S
C247 C249 1.381 . S
C247 C250 1.487 . S
C248 C245 1.382 . S
C248 C249 1.387 . S
C248 H268 0.930 . S
C249 C247 1.381 . S
C249 C248 1.387 . S
C249 H269 0.931 . S
C250 C247 1.487 . S
C250 C257 1.399 . S
C250 N275 1.343 . S
C251 C252 1.384 . S
C251 C253 1.384 . S
C251 H270 0.931 . S
C252 C251 1.384 . S
C252 C255 1.382 . S
C253 C251 1.384 . S
C253 C254 1.381 . S
C253 H271 0.930 . S
C254 C253 1.381 . S
C254 C256 1.381 . S
C254 C257 1.487 . S
C255 C252 1.382 . S
C255 C256 1.387 . S
C255 H272 0.930 . S
C256 C254 1.381 . S
C256 C255 1.387 . S
C256 H273 0.931 . S
C257 C250 1.399 . S
C257 C254 1.487 . S
C257 N274 1.343 . S
H258 C230 0.931 . S
H259 C232 0.930 . S
H260 C234 0.930 . S
H261 C235 0.931 . S
H262 C237 0.931 . S
H263 C239 0.930 . S
H264 C241 0.930 . S
H265 C242 0.931 . S
H266 C244 0.931 . S
H267 C246 0.930 . S
H268 C248 0.930 . S
H269 C249 0.931 . S
H270 C251 0.931 . S
H271 C253 0.930 . S
H272 C255 0.930 . S
H273 C256 0.931 . S
N274 C236 1.343 . S
N274 C257 1.343 . S
N275 C243 1.343 . S
N275 C250 1.343 . S
C276 C277 1.384 . S
C276 C278 1.384 . S
C276 H304 0.931 . S
C277 C276 1.384 . S
C277 C280 1.382 . S
C278 C276 1.384 . S
C278 C279 1.381 . S
C278 H305 0.930 . S
C279 C278 1.381 . S
C279 C281 1.381 . S
C279 C282 1.487 . S
C280 C277 1.382 . S
C280 C281 1.387 . S
C280 H306 0.930 . S
C281 C279 1.381 . S
C281 C280 1.387 . S
C281 H307 0.931 1_565 S
C282 C279 1.487 . S
C282 C289 1.399 . S
C282 N320 1.343 1_565 S
C283 C284 1.384 . S
C283 C285 1.384 . S
C283 H308 0.931 . S
C284 C283 1.384 . S
C284 C287 1.382 . S
C285 C283 1.384 . S
C285 C286 1.381 . S
C285 H309 0.930 . S
C286 C285 1.381 . S
C286 C288 1.381 . S
C286 C289 1.487 . S
C287 C284 1.382 . S
C287 C288 1.387 . S
C287 H310 0.930 . S
C288 C286 1.381 . S
C288 C287 1.387 . S
C288 H311 0.931 . S
C289 C282 1.399 . S
C289 C286 1.487 . S
C289 N321 1.343 1_565 S
C290 C291 1.384 . S
C290 C292 1.384 . S
C290 H312 0.931 . S
C291 C290 1.384 . S
C291 C294 1.382 . S
C292 C290 1.384 . S
C292 C293 1.381 . S
C292 H313 0.930 . S
C293 C292 1.381 . S
C293 C295 1.381 . S
C293 C296 1.487 . S
C294 C291 1.382 . S
C294 C295 1.387 . S
C294 H314 0.930 . S
C295 C293 1.381 . S
C295 C294 1.387 . S
C295 H315 0.931 . S
C296 C293 1.487 . S
C296 C303 1.399 . S
C296 N321 1.343 . S
C297 C298 1.384 . S
C297 C299 1.384 . S
C297 H316 0.931 . S
C298 C297 1.384 . S
C298 C301 1.382 . S
C299 C297 1.384 . S
C299 C300 1.381 . S
C299 H317 0.930 . S
C300 C299 1.381 . S
C300 C302 1.381 . S
C300 C303 1.487 . S
C301 C298 1.382 . S
C301 C302 1.387 . S
C301 H318 0.930 . S
C302 C300 1.381 . S
C302 C301 1.387 . S
C302 H319 0.931 . S
C303 C296 1.399 . S
C303 C300 1.487 . S
C303 N320 1.343 . S
H304 C276 0.931 . S
H305 C278 0.930 . S
H306 C280 0.930 . S
H307 C281 0.931 1_545 S
H308 C283 0.931 . S
H309 C285 0.930 . S
H310 C287 0.930 . S
H311 C288 0.931 . S
H312 C290 0.931 . S
H313 C292 0.930 . S
H314 C294 0.930 . S
H315 C295 0.931 . S
H316 C297 0.931 . S
H317 C299 0.930 . S
H318 C301 0.930 . S
H319 C302 0.931 . S
N320 C282 1.343 1_545 S
N320 C303 1.343 . S
N321 C289 1.343 1_545 S
N321 C296 1.343 . S
C322 C323 1.384 . S
C322 C324 1.378 1_565 S
C322 H350 0.931 . S
C323 C322 1.384 . S
C323 C326 1.382 . S
C324 C322 1.378 1_545 S
C324 C325 1.383 . S
C324 H351 0.934 . S
C325 C324 1.383 . S
C325 C327 1.381 1_545 S
C325 C328 1.487 . S
C326 C323 1.382 . S
C326 C327 1.387 . S
C326 H352 0.930 . S
C327 C325 1.381 1_565 S
C327 C326 1.387 . S
C327 H353 0.931 . S
C328 C325 1.487 . S
C328 C335 1.399 . S
C328 N366 1.343 . S
C329 C330 1.384 . S
C329 C331 1.384 . S
C329 H354 0.931 . S
C330 C329 1.384 . S
C330 C333 1.421 . S
C331 C329 1.384 . S
C331 C332 1.381 1_565 S
C331 H355 0.930 . S
C332 C331 1.381 1_545 S
C332 C334 1.381 . S
C332 C335 1.487 . S
C333 C330 1.421 . S
C333 C334 1.363 1_565 S
C333 H356 0.917 1_565 S
C334 C332 1.381 . S
C334 C333 1.363 1_545 S
C334 H357 0.931 . S
C335 C328 1.399 . S
C335 C332 1.487 . S
C335 N367 1.343 . S
C336 C337 1.384 . S
C336 C338 1.384 . S
C336 H358 0.931 . S
C337 C336 1.384 . S
C337 C340 1.382 1_655 S
C338 C336 1.384 . S
C338 C339 1.381 1_655 S
C338 H359 0.930 . S
C339 C338 1.381 1_455 S
C339 C341 1.381 . S
C339 C342 1.487 . S
C340 C337 1.382 1_455 S
C340 C341 1.387 . S
C340 H360 0.930 . S
C341 C339 1.381 . S
C341 C340 1.387 . S
C341 H361 0.931 . S
C342 C339 1.487 . S
C342 C349 1.399 . S
C342 N367 1.343 . S
C343 C344 1.384 . S
C343 C345 1.384 1_655 S
C343 H362 0.931 . S
C344 C343 1.384 . S
C344 C347 1.382 . S
C345 C343 1.384 1_455 S
C345 C346 1.381 . S
C345 H363 0.930 . S
C346 C345 1.381 . S
C346 C348 1.381 1_455 S
C346 C349 1.487 . S
C347 C344 1.382 . S
C347 C348 1.387 . S
C347 H364 0.930 . S
C348 C346 1.381 1_655 S
C348 C347 1.387 . S
C348 H365 0.931 . S
C349 C342 1.399 . S
C349 C346 1.487 . S
C349 N366 1.343 . S
H350 C322 0.931 . S
H351 C324 0.934 . S
H352 C326 0.930 . S
H353 C327 0.931 . S
H354 C329 0.931 . S
H355 C331 0.930 . S
H356 C333 0.917 1_545 S
H357 C334 0.931 . S
H358 C336 0.931 . S
H359 C338 0.930 . S
H360 C340 0.930 . S
H361 C341 0.931 . S
H362 C343 0.931 . S
H363 C345 0.930 . S
H364 C347 0.930 . S
H365 C348 0.931 . S
N366 C328 1.343 . S
N366 C349 1.343 . S
N367 C335 1.343 . S
N367 C342 1.343 . S
Co368 O369 2.216 . S
Co368 O370 2.091 . S
Co368 O372 2.004 . S
Co368 O378 2.021 1_554 S
Co368 O380 2.137 . S
Co368 O381 2.244 . S
O369 Co368 2.216 . S
O369 C376 1.247 . S
O370 Co368 2.091 . S
O370 C376 1.261 . S
C371 O380 1.247 . S
C371 O381 1.272 . S
O372 Co368 2.004 . S
O372 C377 1.259 . S
Co373 O374 2.061 . S
Co373 O379 2.052 1_554 S
Co373 O381 2.135 . S
O374 Co373 2.061 . S
O374 C377 1.235 . S
C375 O378 1.238 . S
C375 O379 1.241 . S
C376 O369 1.247 . S
C376 O370 1.261 . S
C377 O372 1.259 . S
C377 O374 1.235 . S
O378 Co368 2.021 1_556 S
O378 C375 1.238 . S
O379 Co373 2.052 1_556 S
O379 C375 1.241 . S
O380 Co368 2.137 . S
O380 C371 1.247 . S
O381 Co368 2.244 . S
O381 C371 1.272 . S
O381 Co373 2.135 . S
Co382 O383 2.216 . S
Co382 O384 2.091 . S
Co382 O386 2.004 . S
Co382 O392 2.021 . S
Co382 O394 2.137 . S
Co382 O395 2.244 . S
O383 Co382 2.216 . S
O383 C390 1.247 . S
O384 Co382 2.091 . S
O384 C390 1.261 . S
C385 O394 1.247 . S
C385 O395 1.272 . S
O386 Co382 2.004 . S
O386 C391 1.259 . S
Co387 O388 2.061 . S
Co387 O393 2.052 . S
Co387 O395 2.135 . S
O388 Co387 2.061 . S
O388 C391 1.235 . S
C389 O392 1.238 . S
C389 O393 1.241 . S
C390 O383 1.247 . S
C390 O384 1.261 . S
C391 O386 1.259 . S
C391 O388 1.235 . S
O392 Co382 2.021 . S
O392 C389 1.238 . S
O393 Co387 2.052 . S
O393 C389 1.241 . S
O394 Co382 2.137 . S
O394 C385 1.247 . S
O395 Co382 2.244 . S
O395 C385 1.272 . S
O395 Co387 2.135 . S
Co396 O397 2.216 . S
Co396 O398 2.091 . S
Co396 O400 2.004 . S
Co396 O406 2.021 . S
Co396 O408 2.137 . S
Co396 O409 2.244 . S
O397 Co396 2.216 . S
O397 C404 1.247 . S
O398 Co396 2.091 . S
O398 C404 1.261 . S
C399 O408 1.247 . S
C399 O409 1.272 . S
O400 Co396 2.004 . S
O400 C405 1.259 . S
Co401 O402 2.061 . S
Co401 O407 2.052 . S
Co401 O409 2.135 . S
O402 Co401 2.061 . S
O402 C405 1.235 . S
C403 O406 1.238 . S
C403 O407 1.241 . S
C404 O397 1.247 . S
C404 O398 1.261 . S
C405 O400 1.259 . S
C405 O402 1.235 . S
O406 Co396 2.021 . S
O406 C403 1.238 . S
O407 Co401 2.052 . S
O407 C403 1.241 . S
O408 Co396 2.137 . S
O408 C399 1.247 . S
O409 Co396 2.244 . S
O409 C399 1.272 . S
O409 Co401 2.135 . S
Co410 O411 2.216 . S
Co410 O412 2.091 . S
Co410 O414 2.004 . S
Co410 O420 2.021 . S
Co410 O422 2.137 . S
Co410 O423 2.244 . S
O411 Co410 2.216 . S
O411 C418 1.247 . S
O412 Co410 2.091 . S
O412 C418 1.261 . S
C413 O422 1.247 . S
C413 O423 1.272 . S
O414 Co410 2.004 . S
O414 C419 1.259 . S
Co415 O416 2.061 . S
Co415 O421 2.052 . S
Co415 O423 2.135 . S
O416 Co415 2.061 . S
O416 C419 1.235 . S
C417 O420 1.238 . S
C417 O421 1.241 . S
C418 O411 1.247 . S
C418 O412 1.261 . S
C419 O414 1.259 . S
C419 O416 1.235 . S
O420 Co410 2.021 . S
O420 C417 1.238 . S
O421 Co415 2.052 . S
O421 C417 1.241 . S
O422 Co410 2.137 . S
O422 C413 1.247 . S
O423 Co410 2.244 . S
O423 C413 1.272 . S
O423 Co415 2.135 . S
Co424 O425 2.216 . S
Co424 O426 2.091 . S
Co424 O428 2.004 . S
Co424 O434 2.021 . S
Co424 O436 2.137 . S
Co424 O437 2.244 . S
O425 Co424 2.216 . S
O425 C432 1.247 . S
O426 Co424 2.091 . S
O426 C432 1.261 . S
C427 O436 1.247 . S
C427 O437 1.272 . S
O428 Co424 2.004 . S
O428 C433 1.259 . S
Co429 O430 2.061 . S
Co429 O435 2.052 . S
Co429 O437 2.135 . S
O430 Co429 2.061 . S
O430 C433 1.235 . S
C431 O434 1.238 . S
C431 O435 1.241 . S
C432 O425 1.247 . S
C432 O426 1.261 . S
C433 O428 1.259 . S
C433 O430 1.235 . S
O434 Co424 2.021 . S
O434 C431 1.238 . S
O435 Co429 2.052 . S
O435 C431 1.241 . S
O436 Co424 2.137 . S
O436 C427 1.247 . S
O437 Co424 2.244 . S
O437 C427 1.272 . S
O437 Co429 2.135 . S
Co438 O439 2.216 . S
Co438 O440 2.091 . S
Co438 O442 2.004 . S
Co438 O448 2.021 . S
Co438 O450 2.137 . S
Co438 O451 2.244 . S
O439 Co438 2.216 . S
O439 C446 1.247 . S
O440 Co438 2.091 . S
O440 C446 1.261 . S
C441 O450 1.247 . S
C441 O451 1.272 . S
O442 Co438 2.004 . S
O442 C447 1.259 . S
Co443 O444 2.061 . S
Co443 O449 2.052 . S
Co443 O451 2.135 . S
O444 Co443 2.061 . S
O444 C447 1.235 . S
C445 O448 1.238 . S
C445 O449 1.241 . S
C446 O439 1.247 . S
C446 O440 1.261 . S
C447 O442 1.259 . S
C447 O444 1.235 . S
O448 Co438 2.021 . S
O448 C445 1.238 . S
O449 Co443 2.052 . S
O449 C445 1.241 . S
O450 Co438 2.137 . S
O450 C441 1.247 . S
O451 Co438 2.244 . S
O451 C441 1.272 . S
O451 Co443 2.135 . S
Co452 O453 2.216 1_556 S
Co452 O454 2.091 1_556 S
Co452 O456 2.004 . S
Co452 O462 2.021 1_556 S
Co452 O464 2.137 . S
Co452 O465 2.244 . S
O453 Co452 2.216 1_554 S
O453 C460 1.247 . S
O454 Co452 2.091 1_554 S
O454 C460 1.261 . S
C455 O464 1.247 . S
C455 O465 1.272 . S
O456 Co452 2.004 . S
O456 C461 1.259 . S
Co457 O458 2.061 . S
Co457 O463 2.052 1_556 S
Co457 O465 2.135 . S
O458 Co457 2.061 . S
O458 C461 1.235 . S
C459 O462 1.238 . S
C459 O463 1.241 . S
C460 O453 1.247 . S
C460 O454 1.261 . S
C461 O456 1.259 . S
C461 O458 1.235 . S
O462 Co452 2.021 1_554 S
O462 C459 1.238 . S
O463 Co457 2.052 1_554 S
O463 C459 1.241 . S
O464 Co452 2.137 . S
O464 C455 1.247 . S
O465 Co452 2.244 . S
O465 C455 1.272 . S
O465 Co457 2.135 . S
Co466 O467 2.216 . S
Co466 O468 2.091 . S
Co466 O470 2.004 . S
Co466 O476 2.021 . S
Co466 O478 2.137 . S
Co466 O479 2.244 . S
O467 Co466 2.216 . S
O467 C474 1.247 . S
O468 Co466 2.091 . S
O468 C474 1.261 . S
C469 O478 1.247 . S
C469 O479 1.272 . S
O470 Co466 2.004 . S
O470 C475 1.259 . S
Co471 O472 2.061 . S
Co471 O477 2.052 . S
Co471 O479 2.135 . S
O472 Co471 2.061 . S
O472 C475 1.235 . S
C473 O476 1.238 . S
C473 O477 1.241 . S
C474 O467 1.247 . S
C474 O468 1.261 . S
C475 O470 1.259 . S
C475 O472 1.235 . S
O476 Co466 2.021 . S
O476 C473 1.238 . S
O477 Co471 2.052 . S
O477 C473 1.241 . S
O478 Co466 2.137 . S
O478 C469 1.247 . S
O479 Co466 2.244 . S
O479 C469 1.272 . S
O479 Co471 2.135 . S
H480 C488 0.929 . S
H481 C490 0.930 . S
H482 C492 0.930 . S
H483 C495 0.929 . S
H484 C498 0.930 . S
H485 C500 0.960 . S
H486 C500 0.960 . S
H487 C500 0.960 . S
C488 H480 0.929 . S
C488 C489 1.377 . S
C488 C490 1.384 . S
C489 C488 1.377 . S
C489 C495 1.390 . S
C490 H481 0.930 . S
C490 C488 1.384 . S
C490 C491 1.372 . S
C491 C490 1.372 . S
C491 C492 1.400 . S
C491 C496 1.490 . S
C492 H482 0.930 . S
C492 C491 1.400 . S
C492 C495 1.386 . S
H493 C509 0.930 . S
H494 C510 0.931 . S
C495 H483 0.929 . S
C495 C489 1.390 . S
C495 C492 1.386 . S
C496 C491 1.490 . S
C496 C498 1.395 . S
C496 C499 1.403 . S
H497 C503 0.930 . S
C498 H484 0.930 . S
C498 C496 1.395 . S
C498 C501 1.403 . S
C499 C496 1.403 . S
C499 C500 1.524 . S
C499 C503 1.400 . S
C500 H485 0.960 . S
C500 H486 0.960 . S
C500 H487 0.960 . S
C500 C499 1.524 . S
C501 C498 1.403 . S
C501 C502 1.392 . S
C501 C505 1.495 . S
C502 C501 1.392 . S
C502 C503 1.385 . S
C502 C504 1.478 . S
C503 H497 0.930 . S
C503 C499 1.400 . S
C503 C502 1.385 . S
C504 C502 1.478 . S
C504 C506 1.381 . S
C504 C510 1.383 . S
C505 C501 1.495 . S
C505 H511 0.959 . S
C505 H512 0.961 . S
C505 H513 0.960 . S
C506 C504 1.381 . S
C506 C507 1.394 . S
C506 H514 0.930 . S
C507 C506 1.394 . S
C507 C508 1.383 . S
C507 H515 0.929 . S
C508 C507 1.383 . S
C508 C509 1.377 . S
C509 H493 0.930 . S
C509 C508 1.377 . S
C509 C510 1.379 . S
C510 H494 0.931 . S
C510 C504 1.383 . S
C510 C509 1.379 . S
H511 C505 0.959 . S
H512 C505 0.961 . S
H513 C505 0.960 . S
H514 C506 0.930 . S
H515 C507 0.929 . S
H516 C524 0.929 . S
H517 C526 0.930 . S
H518 C528 0.930 . S
H519 C531 0.929 . S
H520 C534 0.930 . S
H521 C536 0.960 . S
H522 C536 0.960 . S
H523 C536 0.960 . S
C524 H516 0.929 . S
C524 C525 1.377 . S
C524 C526 1.384 . S
C525 C524 1.377 . S
C525 C531 1.390 . S
C526 H517 0.930 . S
C526 C524 1.384 . S
C526 C527 1.372 . S
C527 C526 1.372 . S
C527 C528 1.400 . S
C527 C532 1.490 . S
C528 H518 0.930 . S
C528 C527 1.400 . S
C528 C531 1.386 . S
H529 C545 0.930 . S
H530 C546 0.931 . S
C531 H519 0.929 . S
C531 C525 1.390 . S
C531 C528 1.386 . S
C532 C527 1.490 . S
C532 C534 1.395 . S
C532 C535 1.403 . S
H533 C539 0.930 . S
C534 H520 0.930 . S
C534 C532 1.395 . S
C534 C537 1.403 . S
C535 C532 1.403 . S
C535 C536 1.524 . S
C535 C539 1.400 . S
C536 H521 0.960 . S
C536 H522 0.960 . S
C536 H523 0.960 . S
C536 C535 1.524 . S
C537 C534 1.403 . S
C537 C538 1.392 . S
C537 C541 1.495 . S
C538 C537 1.392 . S
C538 C539 1.385 . S
C538 C540 1.478 . S
C539 H533 0.930 . S
C539 C535 1.400 . S
C539 C538 1.385 . S
C540 C538 1.478 . S
C540 C542 1.381 . S
C540 C546 1.383 . S
C541 C537 1.495 . S
C541 H547 0.959 . S
C541 H548 0.961 . S
C541 H549 0.960 . S
C542 C540 1.381 . S
C542 C543 1.394 . S
C542 H550 0.930 . S
C543 C542 1.394 . S
C543 C544 1.383 . S
C543 H551 0.929 . S
C544 C543 1.383 . S
C544 C545 1.377 . S
C545 H529 0.930 . S
C545 C544 1.377 . S
C545 C546 1.379 . S
C546 H530 0.931 . S
C546 C540 1.383 . S
C546 C545 1.379 . S
H547 C541 0.959 . S
H548 C541 0.961 . S
H549 C541 0.960 . S
H550 C542 0.930 . S
H551 C543 0.929 . S
H552 C560 0.929 . S
H553 C562 0.930 . S
H554 C564 0.930 . S
H555 C567 0.929 . S
H556 C570 0.930 . S
H557 C572 0.960 . S
H558 C572 0.960 . S
H559 C572 0.960 . S
C560 H552 0.929 . S
C560 C561 1.377 . S
C560 C562 1.384 . S
C561 C560 1.377 . S
C561 C567 1.390 . S
C562 H553 0.930 . S
C562 C560 1.384 . S
C562 C563 1.372 . S
C563 C562 1.372 . S
C563 C564 1.400 . S
C563 C568 1.490 . S
C564 H554 0.930 . S
C564 C563 1.400 . S
C564 C567 1.386 . S
H565 C581 0.930 . S
H566 C582 0.931 . S
C567 H555 0.929 . S
C567 C561 1.390 . S
C567 C564 1.386 . S
C568 C563 1.490 . S
C568 C570 1.395 . S
C568 C571 1.403 . S
H569 C575 0.930 . S
C570 H556 0.930 . S
C570 C568 1.395 . S
C570 C573 1.403 . S
C571 C568 1.403 . S
C571 C572 1.524 . S
C571 C575 1.400 . S
C572 H557 0.960 . S
C572 H558 0.960 . S
C572 H559 0.960 . S
C572 C571 1.524 . S
C573 C570 1.403 . S
C573 C574 1.392 . S
C573 C577 1.495 . S
C574 C573 1.392 . S
C574 C575 1.385 . S
C574 C576 1.478 . S
C575 H569 0.930 . S
C575 C571 1.400 . S
C575 C574 1.385 . S
C576 C574 1.478 . S
C576 C578 1.381 . S
C576 C582 1.383 . S
C577 C573 1.495 . S
C577 H583 0.959 . S
C577 H584 0.961 . S
C577 H585 0.960 . S
C578 C576 1.381 . S
C578 C579 1.394 . S
C578 H586 0.930 . S
C579 C578 1.394 . S
C579 C580 1.383 . S
C579 H587 0.929 . S
C580 C579 1.383 . S
C580 C581 1.377 . S
C581 H565 0.930 . S
C581 C580 1.377 . S
C581 C582 1.379 . S
C582 H566 0.931 . S
C582 C576 1.383 . S
C582 C581 1.379 . S
H583 C577 0.959 . S
H584 C577 0.961 . S
H585 C577 0.960 . S
H586 C578 0.930 . S
H587 C579 0.929 . S
H588 C596 0.929 . S
H589 C598 0.930 . S
H590 C600 0.930 . S
H591 C603 0.929 . S
H592 C606 0.930 . S
H593 C608 0.960 . S
H594 C608 0.960 . S
H595 C608 0.960 . S
C596 H588 0.929 . S
C596 C597 1.377 . S
C596 C598 1.384 . S
C597 C596 1.377 . S
C597 C603 1.390 . S
C598 H589 0.930 . S
C598 C596 1.384 . S
C598 C599 1.372 . S
C599 C598 1.372 . S
C599 C600 1.400 . S
C599 C604 1.490 . S
C600 H590 0.930 . S
C600 C599 1.400 . S
C600 C603 1.386 . S
H601 C617 0.930 1_556 S
H602 C618 0.931 . S
C603 H591 0.929 . S
C603 C597 1.390 . S
C603 C600 1.386 . S
C604 C599 1.490 . S
C604 C606 1.395 . S
C604 C607 1.403 . S
H605 C611 0.930 . S
C606 H592 0.930 . S
C606 C604 1.395 . S
C606 C609 1.403 . S
C607 C604 1.403 . S
C607 C608 1.524 . S
C607 C611 1.400 . S
C608 H593 0.960 . S
C608 H594 0.960 . S
C608 H595 0.960 . S
C608 C607 1.524 . S
C609 C606 1.403 . S
C609 C610 1.392 . S
C609 C613 1.495 . S
C610 C609 1.392 . S
C610 C611 1.385 . S
C610 C612 1.478 . S
C611 H605 0.930 . S
C611 C607 1.400 . S
C611 C610 1.385 . S
C612 C610 1.478 . S
C612 C614 1.381 . S
C612 C618 1.383 . S
C613 C609 1.495 . S
C613 H619 0.959 . S
C613 H620 0.961 . S
C613 H621 0.960 . S
C614 C612 1.381 . S
C614 C615 1.394 . S
C614 H622 0.930 . S
C615 C614 1.394 . S
C615 C616 1.383 . S
C615 H623 0.929 . S
C616 C615 1.383 . S
C616 C617 1.377 . S
C617 H601 0.930 1_554 S
C617 C616 1.377 . S
C617 C618 1.379 . S
C618 H602 0.931 . S
C618 C612 1.383 . S
C618 C617 1.379 . S
H619 C613 0.959 . S
H620 C613 0.961 . S
H621 C613 0.960 . S
H622 C614 0.930 . S
H623 C615 0.929 . S
H624 C632 0.929 . S
H625 C634 0.930 . S
H626 C636 0.930 . S
H627 C639 0.929 . S
H628 C642 0.930 . S
H629 C644 0.960 1_554 S
H630 C644 0.960 1_554 S
H631 C644 0.960 . S
C632 H624 0.929 . S
C632 C633 1.377 . S
C632 C634 1.384 . S
C633 C632 1.377 . S
C633 C639 1.390 . S
C634 H625 0.930 . S
C634 C632 1.384 . S
C634 C635 1.372 . S
C635 C634 1.372 . S
C635 C636 1.400 . S
C635 C640 1.490 . S
C636 H626 0.930 . S
C636 C635 1.400 . S
C636 C639 1.386 . S
H637 C653 0.930 . S
H638 C654 0.931 . S
C639 H627 0.929 . S
C639 C633 1.390 . S
C639 C636 1.386 . S
C640 C635 1.490 . S
C640 C642 1.395 . S
C640 C643 1.403 . S
H641 C647 0.986 . S
C642 H628 0.930 . S
C642 C640 1.395 . S
C642 C645 1.403 . S
C643 C640 1.403 . S
C643 C644 1.524 . S
C643 C647 1.400 . S
C644 H629 0.960 1_556 S
C644 H630 0.960 1_556 S
C644 H631 0.960 . S
C644 C643 1.524 . S
C645 C642 1.403 . S
C645 C646 1.392 . S
C645 C649 1.495 . S
C646 C645 1.392 . S
C646 C647 1.385 . S
C646 C648 1.478 . S
C647 H641 0.986 . S
C647 C643 1.400 . S
C647 C646 1.385 . S
C648 C646 1.478 . S
C648 C650 1.381 . S
C648 C654 1.383 . S
C649 C645 1.495 . S
C649 H655 0.959 . S
C649 H656 0.961 . S
C649 H657 0.960 . S
C650 C648 1.381 . S
C650 C651 1.394 . S
C650 H658 0.930 . S
C651 C650 1.394 . S
C651 C652 1.383 . S
C651 H659 0.912 1_556 S
C652 C651 1.383 . S
C652 C653 1.377 . S
C653 H637 0.930 . S
C653 C652 1.377 . S
C653 C654 1.379 . S
C654 H638 0.931 . S
C654 C648 1.383 . S
C654 C653 1.379 . S
H655 C649 0.959 . S
H656 C649 0.961 . S
H657 C649 0.960 . S
H658 C650 0.930 . S
H659 C651 0.912 1_554 S
H660 C668 0.929 . S
H661 C670 0.930 . S
H662 C672 0.930 . S
H663 C675 0.929 . S
H664 C678 0.930 . S
H665 C680 0.960 . S
H666 C680 0.960 . S
H667 C680 0.960 . S
C668 H660 0.929 . S
C668 C669 1.377 . S
C668 C670 1.384 . S
C669 C668 1.377 . S
C669 C675 1.390 . S
C670 H661 0.930 . S
C670 C668 1.384 . S
C670 C671 1.372 . S
C671 C670 1.372 . S
C671 C672 1.400 . S
C671 C676 1.490 . S
C672 H662 0.930 . S
C672 C671 1.400 . S
C672 C675 1.386 . S
H673 C689 0.930 . S
H674 C690 0.931 . S
C675 H663 0.929 . S
C675 C669 1.390 . S
C675 C672 1.386 . S
C676 C671 1.490 . S
C676 C678 1.395 . S
C676 C679 1.403 . S
H677 C683 0.930 . S
C678 H664 0.930 . S
C678 C676 1.395 . S
C678 C681 1.403 . S
C679 C676 1.403 . S
C679 C680 1.524 . S
C679 C683 1.400 . S
C680 H665 0.960 . S
C680 H666 0.960 . S
C680 H667 0.960 . S
C680 C679 1.524 . S
C681 C678 1.403 . S
C681 C682 1.392 . S
C681 C685 1.495 . S
C682 C681 1.392 . S
C682 C683 1.385 . S
C682 C684 1.478 . S
C683 H677 0.930 . S
C683 C679 1.400 . S
C683 C682 1.385 . S
C684 C682 1.478 . S
C684 C686 1.381 . S
C684 C690 1.383 . S
C685 C681 1.495 . S
C685 H691 0.959 . S
C685 H692 0.961 . S
C685 H693 0.960 . S
C686 C684 1.381 . S
C686 C687 1.394 . S
C686 H694 0.930 . S
C687 C686 1.394 . S
C687 C688 1.383 . S
C687 H695 0.929 . S
C688 C687 1.383 . S
C688 C689 1.377 . S
C689 H673 0.930 . S
C689 C688 1.377 . S
C689 C690 1.379 . S
C690 H674 0.931 . S
C690 C684 1.383 . S
C690 C689 1.379 . S
H691 C685 0.959 . S
H692 C685 0.961 . S
H693 C685 0.960 . S
H694 C686 0.930 . S
H695 C687 0.929 . S
H696 C704 0.929 . S
H697 C706 0.930 . S
H698 C708 0.930 . S
H699 C711 0.929 . S
H700 C714 0.930 . S
H701 C716 0.960 . S
H702 C716 0.960 . S
H703 C716 0.960 . S
C704 H696 0.929 . S
C704 C705 1.377 . S
C704 C706 1.384 . S
C705 C704 1.377 . S
C705 C711 1.390 . S
C706 H697 0.930 . S
C706 C704 1.384 . S
C706 C707 1.372 . S
C707 C706 1.372 . S
C707 C708 1.400 . S
C707 C712 1.490 . S
C708 H698 0.930 . S
C708 C707 1.400 . S
C708 C711 1.386 . S
H709 C725 0.930 . S
H710 C726 0.931 . S
C711 H699 0.929 . S
C711 C705 1.390 . S
C711 C708 1.386 . S
C712 C707 1.490 . S
C712 C714 1.395 . S
C712 C715 1.403 . S
H713 C719 0.930 . S
C714 H700 0.930 . S
C714 C712 1.395 . S
C714 C717 1.403 . S
C715 C712 1.403 . S
C715 C716 1.524 . S
C715 C719 1.400 . S
C716 H701 0.960 . S
C716 H702 0.960 . S
C716 H703 0.960 . S
C716 C715 1.524 . S
C717 C714 1.403 . S
C717 C718 1.392 . S
C717 C721 1.495 . S
C718 C717 1.392 . S
C718 C719 1.385 . S
C718 C720 1.478 . S
C719 H713 0.930 . S
C719 C715 1.400 . S
C719 C718 1.385 . S
C720 C718 1.478 . S
C720 C722 1.381 . S
C720 C726 1.383 . S
C721 C717 1.495 . S
C721 H727 0.959 . S
C721 H728 0.961 . S
C721 H729 0.960 . S
C722 C720 1.381 . S
C722 C723 1.394 . S
C722 H730 0.930 . S
C723 C722 1.394 . S
C723 C724 1.383 . S
C723 H731 0.929 . S
C724 C723 1.383 . S
C724 C725 1.377 . S
C725 H709 0.930 . S
C725 C724 1.377 . S
C725 C726 1.379 . S
C726 H710 0.931 . S
C726 C720 1.383 . S
C726 C725 1.379 . S
H727 C721 0.959 . S
H728 C721 0.961 . S
H729 C721 0.960 . S
H730 C722 0.930 . S
H731 C723 0.929 . S
H732 C740 0.929 . S
H733 C742 0.930 . S
H734 C744 0.930 . S
H735 C747 0.929 . S
H736 C750 0.930 . S
H737 C752 0.960 . S
H738 C752 0.960 . S
H739 C752 0.960 . S
C740 H732 0.929 . S
C740 C741 1.377 . S
C740 C742 1.384 . S
C741 C740 1.377 . S
C741 C747 1.390 . S
C742 H733 0.930 . S
C742 C740 1.384 . S
C742 C743 1.372 . S
C743 C742 1.372 . S
C743 C744 1.400 . S
C743 C748 1.490 . S
C744 H734 0.930 . S
C744 C743 1.400 . S
C744 C747 1.386 . S
H745 C761 0.930 . S
H746 C762 0.931 . S
C747 H735 0.929 . S
C747 C741 1.390 . S
C747 C744 1.386 . S
C748 C743 1.490 . S
C748 C750 1.395 . S
C748 C751 1.403 . S
H749 C755 0.930 . S
C750 H736 0.930 . S
C750 C748 1.395 . S
C750 C753 1.403 . S
C751 C748 1.403 . S
C751 C752 1.524 . S
C751 C755 1.400 . S
C752 H737 0.960 . S
C752 H738 0.960 . S
C752 H739 0.960 . S
C752 C751 1.524 . S
C753 C750 1.403 . S
C753 C754 1.392 . S
C753 C757 1.495 . S
C754 C753 1.392 . S
C754 C755 1.385 . S
C754 C756 1.478 . S
C755 H749 0.930 . S
C755 C751 1.400 . S
C755 C754 1.385 . S
C756 C754 1.478 . S
C756 C758 1.381 . S
C756 C762 1.383 . S
C757 C753 1.495 . S
C757 H763 0.959 . S
C757 H764 0.961 . S
C757 H765 0.960 . S
C758 C756 1.381 . S
C758 C759 1.394 . S
C758 H766 0.930 . S
C759 C758 1.394 . S
C759 C760 1.383 . S
C759 H767 0.929 . S
C760 C759 1.383 . S
C760 C761 1.377 . S
C761 H745 0.930 . S
C761 C760 1.377 . S
C761 C762 1.379 . S
C762 H746 0.931 . S
C762 C756 1.383 . S
C762 C761 1.379 . S
H763 C757 0.959 . S
H764 C757 0.961 . S
H765 C757 0.960 . S
H766 C758 0.930 . S
H767 C759 0.929 . S
H768 C776 0.929 . S
H769 C778 0.930 . S
H770 C780 0.930 . S
H771 C783 0.929 . S
H772 C786 0.930 . S
H773 C788 0.960 . S
H774 C788 0.960 . S
H775 C788 0.960 . S
C776 H768 0.929 . S
C776 C777 1.377 . S
C776 C778 1.384 . S
C777 C776 1.377 . S
C777 C783 1.390 . S
C778 H769 0.930 . S
C778 C776 1.384 . S
C778 C779 1.372 . S
C779 C778 1.372 . S
C779 C780 1.400 . S
C779 C784 1.490 . S
C780 H770 0.930 . S
C780 C779 1.400 . S
C780 C783 1.386 . S
H781 C797 0.930 . S
H782 C798 0.931 . S
C783 H771 0.929 . S
C783 C777 1.390 . S
C783 C780 1.386 . S
C784 C779 1.490 . S
C784 C786 1.395 . S
C784 C787 1.403 . S
H785 C791 0.930 . S
C786 H772 0.930 . S
C786 C784 1.395 . S
C786 C789 1.403 . S
C787 C784 1.403 . S
C787 C788 1.524 . S
C787 C791 1.400 . S
C788 H773 0.960 . S
C788 H774 0.960 . S
C788 H775 0.960 . S
C788 C787 1.524 . S
C789 C786 1.403 . S
C789 C790 1.392 . S
C789 C793 1.495 . S
C790 C789 1.392 . S
C790 C791 1.385 . S
C790 C792 1.478 . S
C791 H785 0.930 . S
C791 C787 1.400 . S
C791 C790 1.385 . S
C792 C790 1.478 . S
C792 C794 1.381 . S
C792 C798 1.383 . S
C793 C789 1.495 . S
C793 H799 0.959 . S
C793 H800 0.961 . S
C793 H801 0.960 . S
C794 C792 1.381 . S
C794 C795 1.394 . S
C794 H802 0.930 . S
C795 C794 1.394 . S
C795 C796 1.383 . S
C795 H803 0.929 . S
C796 C795 1.383 . S
C796 C797 1.377 . S
C797 H781 0.930 . S
C797 C796 1.377 . S
C797 C798 1.379 . S
C798 H782 0.931 . S
C798 C792 1.383 . S
C798 C797 1.379 . S
H799 C793 0.959 . S
H800 C793 0.961 . S
H801 C793 0.960 . S
H802 C794 0.930 . S
H803 C795 0.929 . S
H804 C812 0.929 . S
H805 C814 0.930 . S
H806 C816 0.930 . S
H807 C819 0.929 . S
H808 C822 0.930 . S
H809 C824 0.960 . S
H810 C824 0.960 . S
H811 C824 0.960 . S
C812 H804 0.929 . S
C812 C813 1.377 . S
C812 C814 1.384 . S
C813 C812 1.377 . S
C813 C819 1.390 . S
C814 H805 0.930 . S
C814 C812 1.384 . S
C814 C815 1.372 . S
C815 C814 1.372 . S
C815 C816 1.400 . S
C815 C820 1.490 . S
C816 H806 0.930 . S
C816 C815 1.400 . S
C816 C819 1.386 . S
H817 C833 0.927 1_556 S
H818 C834 0.931 1_556 S
C819 H807 0.929 . S
C819 C813 1.390 . S
C819 C816 1.386 . S
C820 C815 1.490 . S
C820 C822 1.395 . S
C820 C823 1.403 . S
H821 C827 0.930 . S
C822 H808 0.930 . S
C822 C820 1.395 . S
C822 C825 1.403 . S
C823 C820 1.403 . S
C823 C824 1.524 . S
C823 C827 1.400 . S
C824 H809 0.960 . S
C824 H810 0.960 . S
C824 H811 0.960 . S
C824 C823 1.524 . S
C825 C822 1.403 . S
C825 C826 1.392 . S
C825 C829 1.495 . S
C826 C825 1.392 . S
C826 C827 1.385 . S
C826 C828 1.478 . S
C827 H821 0.930 . S
C827 C823 1.400 . S
C827 C826 1.385 . S
C828 C826 1.478 . S
C828 C830 1.381 . S
C828 C834 1.383 . S
C829 C825 1.495 . S
C829 H835 0.959 . S
C829 H836 0.961 . S
C829 H837 0.960 . S
C830 C828 1.381 . S
C830 C831 1.394 . S
C830 H838 0.930 . S
C831 C830 1.394 . S
C831 C832 1.383 . S
C831 H839 0.929 . S
C832 C831 1.383 . S
C832 C833 1.379 . S
C833 H817 0.927 1_554 S
C833 C832 1.379 . S
C833 C834 1.380 . S
C834 H818 0.931 1_554 S
C834 C828 1.383 . S
C834 C833 1.380 . S
H835 C829 0.959 . S
H836 C829 0.961 . S
H837 C829 0.960 . S
H838 C830 0.930 . S
H839 C831 0.929 . S
H840 C848 0.929 . S
H841 C850 0.930 . S
H842 C852 0.930 . S
H843 C855 0.929 . S
H844 C858 0.930 . S
H845 C860 0.960 . S
H846 C860 0.960 . S
H847 C860 0.960 . S
C848 H840 0.929 . S
C848 C849 1.377 . S
C848 C850 1.384 . S
C849 C848 1.377 . S
C849 C855 1.390 . S
C850 H841 0.930 . S
C850 C848 1.384 . S
C850 C851 1.372 . S
C851 C850 1.372 . S
C851 C852 1.400 . S
C851 C856 1.490 . S
C852 H842 0.930 . S
C852 C851 1.400 . S
C852 C855 1.386 . S
H853 C869 0.930 . S
H854 C870 0.931 . S
C855 H843 0.929 . S
C855 C849 1.390 . S
C855 C852 1.386 . S
C856 C851 1.490 . S
C856 C858 1.395 . S
C856 C859 1.403 . S
H857 C863 0.930 . S
C858 H844 0.930 . S
C858 C856 1.395 . S
C858 C861 1.403 . S
C859 C856 1.403 . S
C859 C860 1.524 . S
C859 C863 1.400 . S
C860 H845 0.960 . S
C860 H846 0.960 . S
C860 H847 0.960 . S
C860 C859 1.524 . S
C861 C858 1.403 . S
C861 C862 1.392 . S
C861 C865 1.495 . S
C862 C861 1.392 . S
C862 C863 1.385 . S
C862 C864 1.478 . S
C863 H857 0.930 . S
C863 C859 1.400 . S
C863 C862 1.385 . S
C864 C862 1.478 . S
C864 C866 1.381 . S
C864 C870 1.383 . S
C865 C861 1.495 . S
C865 H871 0.959 . S
C865 H872 0.961 . S
C865 H873 0.960 . S
C866 C864 1.381 . S
C866 C867 1.394 . S
C866 H874 0.930 . S
C867 C866 1.394 . S
C867 C868 1.383 . S
C867 H875 0.929 . S
C868 C867 1.383 . S
C868 C869 1.377 . S
C869 H853 0.930 . S
C869 C868 1.377 . S
C869 C870 1.379 . S
C870 H854 0.931 . S
C870 C864 1.383 . S
C870 C869 1.379 . S
H871 C865 0.959 . S
H872 C865 0.961 . S
H873 C865 0.960 . S
H874 C866 0.930 . S
H875 C867 0.929 . S
H876 C884 0.929 . S
H877 C886 0.930 . S
H878 C888 0.930 . S
H879 C891 0.929 . S
H880 C894 0.930 . S
H881 C896 0.960 . S
H882 C896 0.960 . S
H883 C896 0.960 . S
C884 H876 0.929 . S
C884 C885 1.377 . S
C884 C886 1.384 . S
C885 C884 1.377 . S
C885 C891 1.390 . S
C886 H877 0.930 . S
C886 C884 1.384 . S
C886 C887 1.372 . S
C887 C886 1.372 . S
C887 C888 1.400 . S
C887 C892 1.490 . S
C888 H878 0.930 . S
C888 C887 1.400 . S
C888 C891 1.386 . S
H889 C905 0.930 . S
H890 C906 0.931 . S
C891 H879 0.929 . S
C891 C885 1.390 . S
C891 C888 1.386 . S
C892 C887 1.490 . S
C892 C894 1.395 . S
C892 C895 1.403 . S
H893 C899 0.930 . S
C894 H880 0.930 . S
C894 C892 1.395 . S
C894 C897 1.403 . S
C895 C892 1.403 . S
C895 C896 1.524 . S
C895 C899 1.400 . S
C896 H881 0.960 . S
C896 H882 0.960 . S
C896 H883 0.960 . S
C896 C895 1.524 . S
C897 C894 1.403 . S
C897 C898 1.392 . S
C897 C901 1.495 . S
C898 C897 1.392 . S
C898 C899 1.385 . S
C898 C900 1.478 . S
C899 H893 0.930 . S
C899 C895 1.400 . S
C899 C898 1.385 . S
C900 C898 1.478 . S
C900 C902 1.381 . S
C900 C906 1.383 . S
C901 C897 1.495 . S
C901 H907 0.959 . S
C901 H908 0.961 . S
C901 H909 0.960 . S
C902 C900 1.381 . S
C902 C903 1.394 . S
C902 H910 0.930 . S
C903 C902 1.394 . S
C903 C904 1.383 . S
C903 H911 0.929 . S
C904 C903 1.383 . S
C904 C905 1.377 . S
C905 H889 0.930 . S
C905 C904 1.377 . S
C905 C906 1.379 . S
C906 H890 0.931 . S
C906 C900 1.383 . S
C906 C905 1.379 . S
H907 C901 0.959 . S
H908 C901 0.961 . S
H909 C901 0.960 . S
H910 C902 0.930 . S
H911 C903 0.929 . S
H912 C920 0.929 . S
H913 C922 0.930 . S
H914 C924 0.930 . S
H915 C927 0.929 . S
H916 C930 0.930 . S
H917 C932 0.960 . S
H918 C932 0.960 . S
H919 C932 0.960 . S
C920 H912 0.929 . S
C920 C921 1.377 . S
C920 C922 1.384 . S
C921 C920 1.377 . S
C921 C927 1.390 . S
C922 H913 0.930 . S
C922 C920 1.384 . S
C922 C923 1.372 . S
C923 C922 1.372 . S
C923 C924 1.400 . S
C923 C928 1.490 . S
C924 H914 0.930 . S
C924 C923 1.400 . S
C924 C927 1.386 . S
H925 C941 0.930 . S
H926 C942 0.931 . S
C927 H915 0.929 . S
C927 C921 1.390 . S
C927 C924 1.386 . S
C928 C923 1.490 . S
C928 C930 1.395 . S
C928 C931 1.403 . S
H929 C935 0.930 . S
C930 H916 0.930 . S
C930 C928 1.395 . S
C930 C933 1.403 . S
C931 C928 1.403 . S
C931 C932 1.524 . S
C931 C935 1.400 . S
C932 H917 0.960 . S
C932 H918 0.960 . S
C932 H919 0.960 . S
C932 C931 1.524 . S
C933 C930 1.403 . S
C933 C934 1.392 . S
C933 C937 1.495 . S
C934 C933 1.392 . S
C934 C935 1.385 . S
C934 C936 1.478 . S
C935 H929 0.930 . S
C935 C931 1.400 . S
C935 C934 1.385 . S
C936 C934 1.478 . S
C936 C938 1.381 . S
C936 C942 1.383 . S
C937 C933 1.495 . S
C937 H943 0.959 . S
C937 H944 0.961 . S
C937 H945 0.960 . S
C938 C936 1.381 . S
C938 C939 1.394 . S
C938 H946 0.930 . S
C939 C938 1.394 . S
C939 C940 1.383 . S
C939 H947 0.929 . S
C940 C939 1.383 . S
C940 C941 1.377 . S
C941 H925 0.930 . S
C941 C940 1.377 . S
C941 C942 1.379 . S
C942 H926 0.931 . S
C942 C936 1.383 . S
C942 C941 1.379 . S
H943 C937 0.959 . S
H944 C937 0.961 . S
H945 C937 0.960 . S
H946 C938 0.930 . S
H947 C939 0.929 . S
H948 C956 0.929 . S
H949 C958 0.930 . S
H950 C960 0.930 . S
H951 C963 0.929 . S
H952 C966 0.930 . S
H953 C968 0.960 . S
H954 C968 0.960 . S
H955 C968 0.960 . S
C956 H948 0.929 . S
C956 C957 1.377 . S
C956 C958 1.384 . S
C957 C956 1.377 . S
C957 C963 1.390 . S
C958 H949 0.930 . S
C958 C956 1.384 . S
C958 C959 1.372 . S
C959 C958 1.372 . S
C959 C960 1.400 . S
C959 C964 1.490 . S
C960 H950 0.930 . S
C960 C959 1.400 . S
C960 C963 1.386 . S
H961 C977 0.930 . S
H962 C978 0.931 . S
C963 H951 0.929 . S
C963 C957 1.390 . S
C963 C960 1.386 . S
C964 C959 1.490 . S
C964 C966 1.395 . S
C964 C967 1.403 . S
H965 C971 0.930 . S
C966 H952 0.930 . S
C966 C964 1.395 . S
C966 C969 1.403 . S
C967 C964 1.403 . S
C967 C968 1.524 . S
C967 C971 1.400 . S
C968 H953 0.960 . S
C968 H954 0.960 . S
C968 H955 0.960 . S
C968 C967 1.524 . S
C969 C966 1.403 . S
C969 C970 1.392 . S
C969 C973 1.495 . S
C970 C969 1.392 . S
C970 C971 1.385 . S
C970 C972 1.478 . S
C971 H965 0.930 . S
C971 C967 1.400 . S
C971 C970 1.385 . S
C972 C970 1.478 . S
C972 C974 1.381 . S
C972 C978 1.383 . S
C973 C969 1.495 . S
C973 H979 0.959 . S
C973 H980 0.961 . S
C973 H981 0.960 . S
C974 C972 1.381 . S
C974 C975 1.394 . S
C974 H982 0.930 . S
C975 C974 1.394 . S
C975 C976 1.383 . S
C975 H983 0.929 . S
C976 C975 1.383 . S
C976 C977 1.377 . S
C977 H961 0.930 . S
C977 C976 1.377 . S
C977 C978 1.379 . S
C978 H962 0.931 . S
C978 C972 1.383 . S
C978 C977 1.379 . S
H979 C973 0.959 . S
H980 C973 0.961 . S
H981 C973 0.960 . S
H982 C974 0.930 . S
H983 C975 0.929 . S
H984 C992 0.929 . S
H985 C994 0.930 . S
H986 C996 0.930 . S
H987 C999 0.929 . S
H988 C1002 0.930 . S
H989 C1004 0.960 . S
H990 C1004 0.960 . S
H991 C1004 0.960 . S
C992 H984 0.929 . S
C992 C993 1.377 . S
C992 C994 1.384 . S
C993 C992 1.377 . S
C993 C999 1.390 . S
C994 H985 0.930 . S
C994 C992 1.384 . S
C994 C995 1.372 . S
C995 C994 1.372 . S
C995 C996 1.400 . S
C995 C1000 1.490 . S
C996 H986 0.930 . S
C996 C995 1.400 . S
C996 C999 1.386 . S
H997 C1013 0.930 . S
H998 C1014 0.931 . S
C999 H987 0.929 . S
C999 C993 1.390 . S
C999 C996 1.386 . S
C1000 C995 1.490 . S
C1000 C1002 1.395 . S
C1000 C1003 1.403 . S
H1001 C1007 0.930 . S
C1002 H988 0.930 . S
C1002 C1000 1.395 . S
C1002 C1005 1.403 . S
C1003 C1000 1.403 . S
C1003 C1004 1.524 . S
C1003 C1007 1.400 . S
C1004 H989 0.960 . S
C1004 H990 0.960 . S
C1004 H991 0.960 . S
C1004 C1003 1.524 . S
C1005 C1002 1.403 . S
C1005 C1006 1.392 . S
C1005 C1009 1.495 . S
C1006 C1005 1.392 . S
C1006 C1007 1.385 . S
C1006 C1008 1.478 . S
C1007 H1001 0.930 . S
C1007 C1003 1.400 . S
C1007 C1006 1.385 . S
C1008 C1006 1.478 . S
C1008 C1010 1.381 . S
C1008 C1014 1.383 . S
C1009 C1005 1.495 . S
C1009 H1015 0.959 . S
C1009 H1016 0.961 . S
C1009 H1017 0.960 . S
C1010 C1008 1.381 . S
C1010 C1011 1.394 1_556 S
C1010 H1018 0.930 1_556 S
C1011 C1010 1.394 1_554 S
C1011 C1012 1.383 1_554 S
C1011 H1019 0.929 . S
C1012 C1011 1.383 1_556 S
C1012 C1013 1.377 . S
C1013 H997 0.930 . S
C1013 C1012 1.377 . S
C1013 C1014 1.379 . S
C1014 H998 0.931 . S
C1014 C1008 1.383 . S
C1014 C1013 1.379 . S
H1015 C1009 0.959 . S
H1016 C1009 0.961 . S
H1017 C1009 0.960 . S
H1018 C1010 0.930 1_554 S
H1019 C1011 0.929 . S
H1020 C1028 0.929 . S
H1021 C1030 0.930 . S
H1022 C1032 0.930 . S
H1023 C1035 0.929 . S
H1024 C1038 0.930 . S
H1025 C1040 0.960 . S
H1026 C1040 0.960 . S
H1027 C1040 0.960 . S
C1028 H1020 0.929 . S
C1028 C1029 1.377 . S
C1028 C1030 1.384 . S
C1029 C1028 1.377 . S
C1029 C1035 1.390 . S
C1030 H1021 0.930 . S
C1030 C1028 1.384 . S
C1030 C1031 1.372 . S
C1031 C1030 1.372 . S
C1031 C1032 1.400 . S
C1031 C1036 1.490 . S
C1032 H1022 0.930 . S
C1032 C1031 1.400 . S
C1032 C1035 1.386 . S
H1033 C1049 0.930 . S
H1034 C1050 0.931 . S
C1035 H1023 0.929 . S
C1035 C1029 1.390 . S
C1035 C1032 1.386 . S
C1036 C1031 1.490 . S
C1036 C1038 1.395 . S
C1036 C1039 1.403 . S
H1037 C1043 0.930 . S
C1038 H1024 0.930 . S
C1038 C1036 1.395 . S
C1038 C1041 1.403 . S
C1039 C1036 1.403 . S
C1039 C1040 1.524 . S
C1039 C1043 1.400 . S
C1040 H1025 0.960 . S
C1040 H1026 0.960 . S
C1040 H1027 0.960 . S
C1040 C1039 1.524 . S
C1041 C1038 1.403 . S
C1041 C1042 1.392 . S
C1041 C1045 1.495 . S
C1042 C1041 1.392 . S
C1042 C1043 1.385 . S
C1042 C1044 1.478 . S
C1043 H1037 0.930 . S
C1043 C1039 1.400 . S
C1043 C1042 1.385 . S
C1044 C1042 1.478 . S
C1044 C1046 1.381 . S
C1044 C1050 1.383 . S
C1045 C1041 1.495 . S
C1045 H1051 0.959 . S
C1045 H1052 0.961 . S
C1045 H1053 0.960 . S
C1046 C1044 1.381 . S
C1046 C1047 1.394 . S
C1046 H1054 0.930 . S
C1047 C1046 1.394 . S
C1047 C1048 1.383 . S
C1047 H1055 0.929 . S
C1048 C1047 1.383 . S
C1048 C1049 1.377 . S
C1049 H1033 0.930 . S
C1049 C1048 1.377 . S
C1049 C1050 1.379 . S
C1050 H1034 0.931 . S
C1050 C1044 1.383 . S
C1050 C1049 1.379 . S
H1051 C1045 0.959 . S
H1052 C1045 0.961 . S
H1053 C1045 0.960 . S
H1054 C1046 0.930 . S
H1055 C1047 0.929 . S
H1056 C1064 0.929 . S
H1057 C1066 0.930 . S
H1058 C1068 0.930 . S
H1059 C1071 0.929 . S
H1060 C1074 0.930 . S
H1061 C1076 0.960 . S
H1062 C1076 0.960 . S
H1063 C1076 0.960 . S
C1064 H1056 0.929 . S
C1064 C1065 1.377 . S
C1064 C1066 1.384 . S
C1065 C1064 1.377 . S
C1065 C1071 1.390 . S
C1066 H1057 0.930 . S
C1066 C1064 1.384 . S
C1066 C1067 1.372 . S
C1067 C1066 1.372 . S
C1067 C1068 1.400 . S
C1067 C1072 1.490 . S
C1068 H1058 0.930 . S
C1068 C1067 1.400 . S
C1068 C1071 1.386 . S
H1069 C1085 0.930 . S
H1070 C1086 0.931 . S
C1071 H1059 0.929 . S
C1071 C1065 1.390 . S
C1071 C1068 1.386 . S
C1072 C1067 1.490 . S
C1072 C1074 1.395 . S
C1072 C1075 1.403 . S
H1073 C1079 0.930 . S
C1074 H1060 0.930 . S
C1074 C1072 1.395 . S
C1074 C1077 1.403 . S
C1075 C1072 1.403 . S
C1075 C1076 1.524 . S
C1075 C1079 1.400 . S
C1076 H1061 0.960 . S
C1076 H1062 0.960 . S
C1076 H1063 0.960 . S
C1076 C1075 1.524 . S
C1077 C1074 1.403 . S
C1077 C1078 1.392 . S
C1077 C1081 1.495 . S
C1078 C1077 1.392 . S
C1078 C1079 1.385 . S
C1078 C1080 1.478 . S
C1079 H1073 0.930 . S
C1079 C1075 1.400 . S
C1079 C1078 1.385 . S
C1080 C1078 1.478 . S
C1080 C1082 1.381 . S
C1080 C1086 1.383 . S
C1081 C1077 1.495 . S
C1081 H1087 0.959 . S
C1081 H1088 0.961 . S
C1081 H1089 0.960 . S
C1082 C1080 1.381 . S
C1082 C1083 1.394 . S
C1082 H1090 0.930 . S
C1083 C1082 1.394 . S
C1083 C1084 1.383 . S
C1083 H1091 0.929 . S
C1084 C1083 1.383 . S
C1084 C1085 1.377 . S
C1085 H1069 0.930 . S
C1085 C1084 1.377 . S
C1085 C1086 1.379 . S
C1086 H1070 0.931 . S
C1086 C1080 1.383 . S
C1086 C1085 1.379 . S
H1087 C1081 0.959 . S
H1088 C1081 0.961 . S
H1089 C1081 0.960 . S
H1090 C1082 0.930 . S
H1091 C1083 0.929 . S
H1092 C1100 0.929 . S
H1093 C1102 0.930 . S
H1094 C1104 0.930 . S
H1095 C1107 0.929 . S
H1096 C1110 0.930 . S
H1097 C1112 0.960 . S
H1098 C1112 0.960 . S
H1099 C1112 0.960 . S
C1100 H1092 0.929 . S
C1100 C1101 1.377 . S
C1100 C1102 1.384 . S
C1101 C1100 1.377 . S
C1101 C1107 1.390 . S
C1102 H1093 0.930 . S
C1102 C1100 1.384 . S
C1102 C1103 1.372 . S
C1103 C1102 1.372 . S
C1103 C1104 1.400 . S
C1103 C1108 1.490 . S
C1104 H1094 0.930 . S
C1104 C1103 1.400 . S
C1104 C1107 1.386 . S
H1105 C1121 0.930 . S
H1106 C1122 0.931 . S
C1107 H1095 0.929 . S
C1107 C1101 1.390 . S
C1107 C1104 1.386 . S
C1108 C1103 1.490 . S
C1108 C1110 1.395 . S
C1108 C1111 1.403 . S
H1109 C1115 0.930 . S
C1110 H1096 0.930 . S
C1110 C1108 1.395 . S
C1110 C1113 1.403 . S
C1111 C1108 1.403 . S
C1111 C1112 1.524 . S
C1111 C1115 1.400 . S
C1112 H1097 0.960 . S
C1112 H1098 0.960 . S
C1112 H1099 0.960 . S
C1112 C1111 1.524 . S
C1113 C1110 1.403 . S
C1113 C1114 1.392 . S
C1113 C1117 1.495 . S
C1114 C1113 1.392 . S
C1114 C1115 1.385 . S
C1114 C1116 1.478 . S
C1115 H1109 0.930 . S
C1115 C1111 1.400 . S
C1115 C1114 1.385 . S
C1116 C1114 1.478 . S
C1116 C1118 1.381 . S
C1116 C1122 1.383 . S
C1117 C1113 1.495 . S
C1117 H1123 0.959 . S
C1117 H1124 0.961 . S
C1117 H1125 0.960 . S
C1118 C1116 1.381 . S
C1118 C1119 1.394 . S
C1118 H1126 0.930 . S
C1119 C1118 1.394 . S
C1119 C1120 1.383 . S
C1119 H1127 0.929 . S
C1120 C1119 1.383 . S
C1120 C1121 1.377 . S
C1121 H1105 0.930 . S
C1121 C1120 1.377 . S
C1121 C1122 1.379 . S
C1122 H1106 0.931 . S
C1122 C1116 1.383 . S
C1122 C1121 1.379 . S
H1123 C1117 0.959 . S
H1124 C1117 0.961 . S
H1125 C1117 0.960 . S
H1126 C1118 0.930 . S
H1127 C1119 0.929 . S
H1128 C1136 0.929 . S
H1129 C1138 0.930 . S
H1130 C1140 0.930 . S
H1131 C1143 0.929 . S
H1132 C1146 0.930 . S
H1133 C1148 0.960 . S
H1134 C1148 0.960 . S
H1135 C1148 0.960 . S
C1136 H1128 0.929 . S
C1136 C1137 1.377 . S
C1136 C1138 1.384 . S
C1137 C1136 1.377 . S
C1137 C1143 1.390 . S
C1138 H1129 0.930 . S
C1138 C1136 1.384 . S
C1138 C1139 1.372 . S
C1139 C1138 1.372 . S
C1139 C1140 1.400 . S
C1139 C1144 1.490 . S
C1140 H1130 0.930 . S
C1140 C1139 1.400 . S
C1140 C1143 1.386 . S
H1141 C1157 0.930 . S
H1142 C1158 0.931 . S
C1143 H1131 0.929 . S
C1143 C1137 1.390 . S
C1143 C1140 1.386 . S
C1144 C1139 1.490 . S
C1144 C1146 1.395 . S
C1144 C1147 1.403 . S
H1145 C1151 0.930 . S
C1146 H1132 0.930 . S
C1146 C1144 1.395 . S
C1146 C1149 1.403 . S
C1147 C1144 1.403 . S
C1147 C1148 1.524 . S
C1147 C1151 1.400 . S
C1148 H1133 0.960 . S
C1148 H1134 0.960 . S
C1148 H1135 0.960 . S
C1148 C1147 1.524 . S
C1149 C1146 1.403 . S
C1149 C1150 1.392 . S
C1149 C1153 1.495 . S
C1150 C1149 1.392 . S
C1150 C1151 1.385 . S
C1150 C1152 1.478 . S
C1151 H1145 0.930 . S
C1151 C1147 1.400 . S
C1151 C1150 1.385 . S
C1152 C1150 1.478 . S
C1152 C1154 1.381 . S
C1152 C1158 1.383 . S
C1153 C1149 1.495 . S
C1153 H1159 0.959 . S
C1153 H1160 0.961 . S
C1153 H1161 0.960 . S
C1154 C1152 1.381 . S
C1154 C1155 1.394 . S
C1154 H1162 0.930 . S
C1155 C1154 1.394 . S
C1155 C1156 1.383 . S
C1155 H1163 0.929 . S
C1156 C1155 1.383 . S
C1156 C1157 1.377 . S
C1157 H1141 0.930 . S
C1157 C1156 1.377 . S
C1157 C1158 1.379 . S
C1158 H1142 0.931 . S
C1158 C1152 1.383 . S
C1158 C1157 1.379 . S
H1159 C1153 0.959 . S
H1160 C1153 0.961 . S
H1161 C1153 0.960 . S
H1162 C1154 0.930 . S
H1163 C1155 0.929 . S
H1164 C1172 0.929 . S
H1165 C1174 0.930 . S
H1166 C1176 0.930 . S
H1167 C1179 0.929 . S
H1168 C1182 0.930 . S
H1169 C1184 0.960 . S
H1170 C1184 0.960 . S
H1171 C1184 0.960 . S
C1172 H1164 0.929 . S
C1172 C1173 1.377 . S
C1172 C1174 1.384 . S
C1173 C1172 1.377 . S
C1173 C1179 1.390 . S
C1174 H1165 0.930 . S
C1174 C1172 1.384 . S
C1174 C1175 1.372 . S
C1175 C1174 1.372 . S
C1175 C1176 1.400 . S
C1175 C1180 1.490 . S
C1176 H1166 0.930 . S
C1176 C1175 1.400 . S
C1176 C1179 1.386 . S
H1177 C1193 0.930 . S
H1178 C1194 0.931 . S
C1179 H1167 0.929 . S
C1179 C1173 1.390 . S
C1179 C1176 1.386 . S
C1180 C1175 1.490 . S
C1180 C1182 1.395 . S
C1180 C1183 1.403 . S
H1181 C1187 0.930 . S
C1182 H1168 0.930 . S
C1182 C1180 1.395 . S
C1182 C1185 1.403 . S
C1183 C1180 1.403 . S
C1183 C1184 1.524 . S
C1183 C1187 1.400 . S
C1184 H1169 0.960 . S
C1184 H1170 0.960 . S
C1184 H1171 0.960 . S
C1184 C1183 1.524 . S
C1185 C1182 1.403 . S
C1185 C1186 1.392 . S
C1185 C1189 1.495 . S
C1186 C1185 1.392 . S
C1186 C1187 1.385 . S
C1186 C1188 1.478 . S
C1187 H1181 0.930 . S
C1187 C1183 1.400 . S
C1187 C1186 1.385 . S
C1188 C1186 1.478 . S
C1188 C1190 1.381 . S
C1188 C1194 1.383 . S
C1189 C1185 1.495 . S
C1189 H1195 0.959 . S
C1189 H1196 0.961 . S
C1189 H1197 0.960 . S
C1190 C1188 1.381 . S
C1190 C1191 1.394 . S
C1190 H1198 0.930 . S
C1191 C1190 1.394 . S
C1191 C1192 1.383 . S
C1191 H1199 0.929 . S
C1192 C1191 1.383 . S
C1192 C1193 1.377 . S
C1193 H1177 0.930 . S
C1193 C1192 1.377 . S
C1193 C1194 1.379 . S
C1194 H1178 0.931 . S
C1194 C1188 1.383 . S
C1194 C1193 1.379 . S
H1195 C1189 0.959 . S
H1196 C1189 0.961 . S
H1197 C1189 0.960 . S
H1198 C1190 0.930 . S
H1199 C1191 0.929 . S
H1200 C1208 0.929 . S
H1201 C1210 0.930 . S
H1202 C1212 0.930 . S
H1203 C1215 0.929 . S
H1204 C1218 0.930 . S
H1205 C1220 0.960 . S
H1206 C1220 0.960 . S
H1207 C1220 0.960 . S
C1208 H1200 0.929 . S
C1208 C1209 1.377 . S
C1208 C1210 1.384 . S
C1209 C1208 1.377 . S
C1209 C1215 1.390 . S
C1210 H1201 0.930 . S
C1210 C1208 1.384 . S
C1210 C1211 1.372 . S
C1211 C1210 1.372 . S
C1211 C1212 1.400 . S
C1211 C1216 1.490 . S
C1212 H1202 0.930 . S
C1212 C1211 1.400 . S
C1212 C1215 1.386 . S
H1213 C1229 0.930 . S
H1214 C1230 0.931 . S
C1215 H1203 0.929 . S
C1215 C1209 1.390 . S
C1215 C1212 1.386 . S
C1216 C1211 1.490 . S
C1216 C1218 1.395 . S
C1216 C1219 1.403 . S
H1217 C1223 0.930 . S
C1218 H1204 0.930 . S
C1218 C1216 1.395 . S
C1218 C1221 1.403 . S
C1219 C1216 1.403 . S
C1219 C1220 1.524 . S
C1219 C1223 1.400 . S
C1220 H1205 0.960 . S
C1220 H1206 0.960 . S
C1220 H1207 0.960 . S
C1220 C1219 1.524 . S
C1221 C1218 1.403 . S
C1221 C1222 1.392 . S
C1221 C1225 1.495 . S
C1222 C1221 1.392 . S
C1222 C1223 1.385 . S
C1222 C1224 1.478 . S
C1223 H1217 0.930 . S
C1223 C1219 1.400 . S
C1223 C1222 1.385 . S
C1224 C1222 1.478 . S
C1224 C1226 1.381 . S
C1224 C1230 1.383 . S
C1225 C1221 1.495 . S
C1225 H1231 0.959 . S
C1225 H1232 0.961 . S
C1225 H1233 0.960 . S
C1226 C1224 1.381 . S
C1226 C1227 1.394 . S
C1226 H1234 0.930 . S
C1227 C1226 1.394 . S
C1227 C1228 1.383 . S
C1227 H1235 0.929 . S
C1228 C1227 1.383 . S
C1228 C1229 1.377 . S
C1229 H1213 0.930 . S
C1229 C1228 1.377 . S
C1229 C1230 1.379 . S
C1230 H1214 0.931 . S
C1230 C1224 1.383 . S
C1230 C1229 1.379 . S
H1231 C1225 0.959 . S
H1232 C1225 0.961 . S
H1233 C1225 0.960 . S
H1234 C1226 0.930 . S
H1235 C1227 0.929 . S
H1236 C1244 0.929 . S
H1237 C1246 0.930 . S
H1238 C1248 0.930 . S
H1239 C1251 0.929 . S
H1240 C1254 0.930 . S
H1241 C1256 0.960 . S
H1242 C1256 0.960 . S
H1243 C1256 0.960 . S
C1244 H1236 0.929 . S
C1244 C1245 1.377 . S
C1244 C1246 1.384 . S
C1245 C1244 1.377 . S
C1245 C1251 1.390 . S
C1246 H1237 0.930 . S
C1246 C1244 1.384 . S
C1246 C1247 1.372 . S
C1247 C1246 1.372 . S
C1247 C1248 1.400 . S
C1247 C1252 1.490 . S
C1248 H1238 0.930 . S
C1248 C1247 1.400 . S
C1248 C1251 1.386 . S
H1249 C1265 0.930 . S
H1250 C1266 0.931 . S
C1251 H1239 0.929 . S
C1251 C1245 1.390 . S
C1251 C1248 1.386 . S
C1252 C1247 1.490 . S
C1252 C1254 1.395 . S
C1252 C1255 1.403 . S
H1253 C1259 0.930 . S
C1254 H1240 0.930 . S
C1254 C1252 1.395 . S
C1254 C1257 1.403 . S
C1255 C1252 1.403 . S
C1255 C1256 1.524 . S
C1255 C1259 1.400 . S
C1256 H1241 0.960 . S
C1256 H1242 0.960 . S
C1256 H1243 0.960 . S
C1256 C1255 1.524 . S
C1257 C1254 1.403 . S
C1257 C1258 1.392 . S
C1257 C1261 1.495 . S
C1258 C1257 1.392 . S
C1258 C1259 1.385 . S
C1258 C1260 1.478 . S
C1259 H1253 0.930 . S
C1259 C1255 1.400 . S
C1259 C1258 1.385 . S
C1260 C1258 1.478 . S
C1260 C1262 1.381 . S
C1260 C1266 1.383 . S
C1261 C1257 1.495 . S
C1261 H1267 0.959 . S
C1261 H1268 0.961 . S
C1261 H1269 0.960 . S
C1262 C1260 1.381 . S
C1262 C1263 1.394 . S
C1262 H1270 0.930 . S
C1263 C1262 1.394 . S
C1263 C1264 1.383 . S
C1263 H1271 0.929 . S
C1264 C1263 1.383 . S
C1264 C1265 1.377 . S
C1265 H1249 0.930 . S
C1265 C1264 1.377 . S
C1265 C1266 1.379 . S
C1266 H1250 0.931 . S
C1266 C1260 1.383 . S
C1266 C1265 1.379 . S
H1267 C1261 0.959 . S
H1268 C1261 0.961 . S
H1269 C1261 0.960 . S
H1270 C1262 0.930 . S
H1271 C1263 0.929 . S
H1272 C1280 0.929 . S
H1273 C1282 0.930 . S
H1274 C1284 0.930 . S
H1275 C1287 0.929 . S
H1276 C1290 0.930 . S
H1277 C1292 0.960 . S
H1278 C1292 0.960 . S
H1279 C1292 0.960 . S
C1280 H1272 0.929 . S
C1280 C1281 1.377 . S
C1280 C1282 1.384 . S
C1281 C1280 1.377 . S
C1281 C1287 1.390 . S
C1282 H1273 0.930 . S
C1282 C1280 1.384 . S
C1282 C1283 1.372 . S
C1283 C1282 1.372 . S
C1283 C1284 1.400 . S
C1283 C1288 1.490 . S
C1284 H1274 0.930 . S
C1284 C1283 1.400 . S
C1284 C1287 1.386 . S
H1285 C1301 0.930 . S
H1286 C1302 0.931 . S
C1287 H1275 0.929 . S
C1287 C1281 1.390 . S
C1287 C1284 1.386 . S
C1288 C1283 1.490 . S
C1288 C1290 1.395 . S
C1288 C1291 1.403 . S
H1289 C1295 0.930 . S
C1290 H1276 0.930 . S
C1290 C1288 1.395 . S
C1290 C1293 1.403 . S
C1291 C1288 1.403 . S
C1291 C1292 1.524 . S
C1291 C1295 1.400 . S
C1292 H1277 0.960 . S
C1292 H1278 0.960 . S
C1292 H1279 0.960 . S
C1292 C1291 1.524 . S
C1293 C1290 1.403 . S
C1293 C1294 1.392 . S
C1293 C1297 1.495 . S
C1294 C1293 1.392 . S
C1294 C1295 1.385 . S
C1294 C1296 1.478 . S
C1295 H1289 0.930 . S
C1295 C1291 1.400 . S
C1295 C1294 1.385 . S
C1296 C1294 1.478 . S
C1296 C1298 1.381 . S
C1296 C1302 1.383 . S
C1297 C1293 1.495 . S
C1297 H1303 0.959 . S
C1297 H1304 0.961 . S
C1297 H1305 0.960 . S
C1298 C1296 1.381 . S
C1298 C1299 1.394 . S
C1298 H1306 0.930 . S
C1299 C1298 1.394 . S
C1299 C1300 1.383 . S
C1299 H1307 0.929 . S
C1300 C1299 1.383 . S
C1300 C1301 1.377 . S
C1301 H1285 0.930 . S
C1301 C1300 1.377 . S
C1301 C1302 1.379 . S
C1302 H1286 0.931 . S
C1302 C1296 1.383 . S
C1302 C1301 1.379 . S
H1303 C1297 0.959 . S
H1304 C1297 0.961 . S
H1305 C1297 0.960 . S
H1306 C1298 0.930 . S
H1307 C1299 0.929 . S
H1308 C1316 0.929 . S
H1309 C1318 0.930 . S
H1310 C1320 0.930 . S
H1311 C1323 0.929 . S
H1312 C1326 0.930 . S
H1313 C1328 0.960 . S
H1314 C1328 0.960 . S
H1315 C1328 0.960 . S
C1316 H1308 0.929 . S
C1316 C1317 1.377 . S
C1316 C1318 1.384 . S
C1317 C1316 1.377 . S
C1317 C1323 1.390 . S
C1318 H1309 0.930 . S
C1318 C1316 1.384 . S
C1318 C1319 1.372 . S
C1319 C1318 1.372 . S
C1319 C1320 1.400 . S
C1319 C1324 1.490 . S
C1320 H1310 0.930 . S
C1320 C1319 1.400 . S
C1320 C1323 1.386 . S
H1321 C1337 0.930 . S
H1322 C1338 0.931 . S
C1323 H1311 0.929 . S
C1323 C1317 1.390 . S
C1323 C1320 1.386 . S
C1324 C1319 1.490 . S
C1324 C1326 1.395 . S
C1324 C1327 1.403 . S
H1325 C1331 0.930 . S
C1326 H1312 0.930 . S
C1326 C1324 1.395 . S
C1326 C1329 1.403 . S
C1327 C1324 1.403 . S
C1327 C1328 1.524 . S
C1327 C1331 1.400 . S
C1328 H1313 0.960 . S
C1328 H1314 0.960 . S
C1328 H1315 0.960 . S
C1328 C1327 1.524 . S
C1329 C1326 1.403 . S
C1329 C1330 1.392 . S
C1329 C1333 1.495 . S
C1330 C1329 1.392 . S
C1330 C1331 1.385 . S
C1330 C1332 1.478 . S
C1331 H1325 0.930 . S
C1331 C1327 1.400 . S
C1331 C1330 1.385 . S
C1332 C1330 1.478 . S
C1332 C1334 1.381 . S
C1332 C1338 1.383 . S
C1333 C1329 1.495 . S
C1333 H1339 0.959 . S
C1333 H1340 0.961 . S
C1333 H1341 0.960 . S
C1334 C1332 1.381 . S
C1334 C1335 1.394 . S
C1334 H1342 0.930 . S
C1335 C1334 1.394 . S
C1335 C1336 1.383 . S
C1335 H1343 0.929 . S
C1336 C1335 1.383 . S
C1336 C1337 1.377 . S
C1337 H1321 0.930 . S
C1337 C1336 1.377 . S
C1337 C1338 1.379 . S
C1338 H1322 0.931 . S
C1338 C1332 1.383 . S
C1338 C1337 1.379 . S
H1339 C1333 0.959 . S
H1340 C1333 0.961 . S
H1341 C1333 0.960 . S
H1342 C1334 0.930 . S
H1343 C1335 0.929 . S
H1344 C1352 0.929 . S
H1345 C1354 0.930 . S
H1346 C1356 0.930 . S
H1347 C1359 0.929 . S
H1348 C1362 0.930 . S
H1349 C1364 0.960 . S
H1350 C1364 0.960 . S
H1351 C1364 0.960 . S
C1352 H1344 0.929 . S
C1352 C1353 1.377 . S
C1352 C1354 1.384 . S
C1353 C1352 1.377 . S
C1353 C1359 1.390 . S
C1354 H1345 0.930 . S
C1354 C1352 1.384 . S
C1354 C1355 1.372 . S
C1355 C1354 1.372 . S
C1355 C1356 1.400 . S
C1355 C1360 1.490 . S
C1356 H1346 0.930 . S
C1356 C1355 1.400 . S
C1356 C1359 1.386 . S
H1357 C1373 0.930 . S
H1358 C1374 0.931 . S
C1359 H1347 0.929 . S
C1359 C1353 1.390 . S
C1359 C1356 1.386 . S
C1360 C1355 1.490 . S
C1360 C1362 1.395 . S
C1360 C1363 1.403 . S
H1361 C1367 0.930 . S
C1362 H1348 0.930 . S
C1362 C1360 1.395 . S
C1362 C1365 1.403 . S
C1363 C1360 1.403 . S
C1363 C1364 1.524 . S
C1363 C1367 1.400 . S
C1364 H1349 0.960 . S
C1364 H1350 0.960 . S
C1364 H1351 0.960 . S
C1364 C1363 1.524 . S
C1365 C1362 1.403 . S
C1365 C1366 1.392 . S
C1365 C1369 1.495 . S
C1366 C1365 1.392 . S
C1366 C1367 1.385 . S
C1366 C1368 1.478 . S
C1367 H1361 0.930 . S
C1367 C1363 1.400 . S
C1367 C1366 1.385 . S
C1368 C1366 1.478 . S
C1368 C1370 1.381 . S
C1368 C1374 1.383 . S
C1369 C1365 1.495 . S
C1369 H1375 0.959 . S
C1369 H1376 0.961 . S
C1369 H1377 0.960 . S
C1370 C1368 1.381 . S
C1370 C1371 1.394 . S
C1370 H1378 0.930 . S
C1371 C1370 1.394 . S
C1371 C1372 1.383 . S
C1371 H1379 0.929 . S
C1372 C1371 1.383 . S
C1372 C1373 1.377 . S
C1373 H1357 0.930 . S
C1373 C1372 1.377 . S
C1373 C1374 1.379 . S
C1374 H1358 0.931 . S
C1374 C1368 1.383 . S
C1374 C1373 1.379 . S
H1375 C1369 0.959 . S
H1376 C1369 0.961 . S
H1377 C1369 0.960 . S
H1378 C1370 0.930 . S
H1379 C1371 0.929 . S
H1380 C1388 0.929 . S
H1381 C1390 0.930 . S
H1382 C1392 0.930 . S
H1383 C1395 0.929 . S
H1384 C1398 0.930 . S
H1385 C1400 0.960 . S
H1386 C1400 0.960 . S
H1387 C1400 0.960 . S
C1388 H1380 0.929 . S
C1388 C1389 1.377 . S
C1388 C1390 1.384 . S
C1389 C1388 1.377 . S
C1389 C1395 1.390 . S
C1390 H1381 0.930 . S
C1390 C1388 1.384 . S
C1390 C1391 1.372 . S
C1391 C1390 1.372 . S
C1391 C1392 1.400 . S
C1391 C1396 1.490 . S
C1392 H1382 0.930 . S
C1392 C1391 1.400 . S
C1392 C1395 1.386 . S
H1393 C1409 0.930 . S
H1394 C1410 0.931 . S
C1395 H1383 0.929 . S
C1395 C1389 1.390 . S
C1395 C1392 1.386 . S
C1396 C1391 1.490 . S
C1396 C1398 1.395 . S
C1396 C1399 1.403 . S
H1397 C1403 0.930 . S
C1398 H1384 0.930 . S
C1398 C1396 1.395 . S
C1398 C1401 1.403 . S
C1399 C1396 1.403 . S
C1399 C1400 1.524 . S
C1399 C1403 1.400 . S
C1400 H1385 0.960 . S
C1400 H1386 0.960 . S
C1400 H1387 0.960 . S
C1400 C1399 1.524 . S
C1401 C1398 1.403 . S
C1401 C1402 1.392 . S
C1401 C1405 1.495 . S
C1402 C1401 1.392 . S
C1402 C1403 1.385 . S
C1402 C1404 1.478 . S
C1403 H1397 0.930 . S
C1403 C1399 1.400 . S
C1403 C1402 1.385 . S
C1404 C1402 1.478 . S
C1404 C1406 1.381 . S
C1404 C1410 1.383 . S
C1405 C1401 1.495 . S
C1405 H1411 0.959 . S
C1405 H1412 0.961 . S
C1405 H1413 0.960 . S
C1406 C1404 1.381 . S
C1406 C1407 1.394 . S
C1406 H1414 0.930 . S
C1407 C1406 1.394 . S
C1407 C1408 1.383 . S
C1407 H1415 0.929 . S
C1408 C1407 1.383 . S
C1408 C1409 1.377 . S
C1409 H1393 0.930 . S
C1409 C1408 1.377 . S
C1409 C1410 1.379 . S
C1410 H1394 0.931 . S
C1410 C1404 1.383 . S
C1410 C1409 1.379 . S
H1411 C1405 0.959 . S
H1412 C1405 0.961 . S
H1413 C1405 0.960 . S
H1414 C1406 0.930 . S
H1415 C1407 0.929 . S
H1416 C1424 0.929 . S
H1417 C1426 0.930 . S
H1418 C1428 0.930 . S
H1419 C1431 0.929 . S
H1420 C1434 0.930 . S
H1421 C1436 0.960 . S
H1422 C1436 0.960 . S
H1423 C1436 0.960 . S
C1424 H1416 0.929 . S
C1424 C1425 1.377 . S
C1424 C1426 1.384 . S
C1425 C1424 1.377 . S
C1425 C1431 1.390 . S
C1426 H1417 0.930 . S
C1426 C1424 1.384 . S
C1426 C1427 1.372 . S
C1427 C1426 1.372 . S
C1427 C1428 1.400 . S
C1427 C1432 1.490 . S
C1428 H1418 0.930 . S
C1428 C1427 1.400 . S
C1428 C1431 1.386 . S
H1429 C1445 0.930 . S
H1430 C1446 0.931 . S
C1431 H1419 0.929 . S
C1431 C1425 1.390 . S
C1431 C1428 1.386 . S
C1432 C1427 1.490 . S
C1432 C1434 1.395 . S
C1432 C1435 1.403 . S
H1433 C1439 0.930 . S
C1434 H1420 0.930 . S
C1434 C1432 1.395 . S
C1434 C1437 1.403 . S
C1435 C1432 1.403 . S
C1435 C1436 1.524 . S
C1435 C1439 1.400 . S
C1436 H1421 0.960 . S
C1436 H1422 0.960 . S
C1436 H1423 0.960 . S
C1436 C1435 1.524 . S
C1437 C1434 1.403 . S
C1437 C1438 1.392 . S
C1437 C1441 1.495 . S
C1438 C1437 1.392 . S
C1438 C1439 1.385 . S
C1438 C1440 1.478 . S
C1439 H1433 0.930 . S
C1439 C1435 1.400 . S
C1439 C1438 1.385 . S
C1440 C1438 1.478 . S
C1440 C1442 1.381 . S
C1440 C1446 1.383 . S
C1441 C1437 1.495 . S
C1441 H1447 0.959 . S
C1441 H1448 0.961 . S
C1441 H1449 0.960 . S
C1442 C1440 1.381 . S
C1442 C1443 1.394 . S
C1442 H1450 0.930 . S
C1443 C1442 1.394 . S
C1443 C1444 1.383 . S
C1443 H1451 0.929 . S
C1444 C1443 1.383 . S
C1444 C1445 1.377 . S
C1445 H1429 0.930 . S
C1445 C1444 1.377 . S
C1445 C1446 1.379 . S
C1446 H1430 0.931 . S
C1446 C1440 1.383 . S
C1446 C1445 1.379 . S
H1447 C1441 0.959 . S
H1448 C1441 0.961 . S
H1449 C1441 0.960 . S
H1450 C1442 0.930 . S
H1451 C1443 0.929 . S
H1452 C1460 0.929 . S
H1453 C1462 0.930 . S
H1454 C1464 0.930 . S
H1455 C1467 0.929 . S
H1456 C1470 0.930 . S
H1457 C1472 0.960 . S
H1458 C1472 0.960 . S
H1459 C1472 0.960 . S
C1460 H1452 0.929 . S
C1460 C1461 1.377 . S
C1460 C1462 1.384 . S
C1461 C1460 1.377 . S
C1461 C1467 1.390 . S
C1462 H1453 0.930 . S
C1462 C1460 1.384 . S
C1462 C1463 1.372 . S
C1463 C1462 1.372 . S
C1463 C1464 1.400 . S
C1463 C1468 1.490 . S
C1464 H1454 0.930 . S
C1464 C1463 1.400 . S
C1464 C1467 1.386 . S
H1465 C1481 0.930 . S
H1466 C1482 0.931 . S
C1467 H1455 0.929 . S
C1467 C1461 1.390 . S
C1467 C1464 1.386 . S
C1468 C1463 1.490 . S
C1468 C1470 1.395 . S
C1468 C1471 1.403 . S
H1469 C1475 0.930 . S
C1470 H1456 0.930 . S
C1470 C1468 1.395 . S
C1470 C1473 1.403 . S
C1471 C1468 1.403 . S
C1471 C1472 1.524 . S
C1471 C1475 1.400 . S
C1472 H1457 0.960 . S
C1472 H1458 0.960 . S
C1472 H1459 0.960 . S
C1472 C1471 1.524 . S
C1473 C1470 1.403 . S
C1473 C1474 1.392 . S
C1473 C1477 1.495 . S
C1474 C1473 1.392 . S
C1474 C1475 1.385 . S
C1474 C1476 1.478 . S
C1475 H1469 0.930 . S
C1475 C1471 1.400 . S
C1475 C1474 1.385 . S
C1476 C1474 1.478 . S
C1476 C1478 1.381 . S
C1476 C1482 1.383 . S
C1477 C1473 1.495 . S
C1477 H1483 0.959 . S
C1477 H1484 0.961 . S
C1477 H1485 0.960 . S
C1478 C1476 1.381 . S
C1478 C1479 1.394 . S
C1478 H1486 0.930 . S
C1479 C1478 1.394 . S
C1479 C1480 1.383 . S
C1479 H1487 0.929 . S
C1480 C1479 1.383 . S
C1480 C1481 1.377 . S
C1481 H1465 0.930 . S
C1481 C1480 1.377 . S
C1481 C1482 1.379 . S
C1482 H1466 0.931 . S
C1482 C1476 1.383 . S
C1482 C1481 1.379 . S
H1483 C1477 0.959 . S
H1484 C1477 0.961 . S
H1485 C1477 0.960 . S
H1486 C1478 0.930 . S
H1487 C1479 0.929 . S
H1488 C1496 0.929 . S
H1489 C1498 0.930 . S
H1490 C1500 0.930 . S
H1491 C1503 0.929 . S
H1492 C1506 0.930 . S
H1493 C1508 0.960 . S
H1494 C1508 0.960 . S
H1495 C1508 0.960 . S
C1496 H1488 0.929 . S
C1496 C1497 1.377 . S
C1496 C1498 1.384 . S
C1497 C1496 1.377 . S
C1497 C1503 1.390 . S
C1498 H1489 0.930 . S
C1498 C1496 1.384 . S
C1498 C1499 1.372 . S
C1499 C1498 1.372 . S
C1499 C1500 1.400 . S
C1499 C1504 1.490 . S
C1500 H1490 0.930 . S
C1500 C1499 1.400 . S
C1500 C1503 1.386 . S
H1501 C1517 0.930 . S
H1502 C1518 0.931 . S
C1503 H1491 0.929 . S
C1503 C1497 1.390 . S
C1503 C1500 1.386 . S
C1504 C1499 1.490 . S
C1504 C1506 1.395 . S
C1504 C1507 1.403 . S
H1505 C1511 0.930 . S
C1506 H1492 0.930 . S
C1506 C1504 1.395 . S
C1506 C1509 1.403 . S
C1507 C1504 1.403 . S
C1507 C1508 1.524 . S
C1507 C1511 1.400 . S
C1508 H1493 0.960 . S
C1508 H1494 0.960 . S
C1508 H1495 0.960 . S
C1508 C1507 1.524 . S
C1509 C1506 1.403 . S
C1509 C1510 1.392 . S
C1509 C1513 1.495 . S
C1510 C1509 1.392 . S
C1510 C1511 1.385 . S
C1510 C1512 1.478 . S
C1511 H1505 0.930 . S
C1511 C1507 1.400 . S
C1511 C1510 1.385 . S
C1512 C1510 1.478 . S
C1512 C1514 1.381 . S
C1512 C1518 1.383 . S
C1513 C1509 1.495 . S
C1513 H1519 0.959 . S
C1513 H1520 0.961 . S
C1513 H1521 0.960 . S
C1514 C1512 1.381 . S
C1514 C1515 1.394 . S
C1514 H1522 0.930 . S
C1515 C1514 1.394 . S
C1515 C1516 1.383 . S
C1515 H1523 0.929 . S
C1516 C1515 1.383 . S
C1516 C1517 1.377 . S
C1517 H1501 0.930 . S
C1517 C1516 1.377 . S
C1517 C1518 1.379 . S
C1518 H1502 0.931 . S
C1518 C1512 1.383 . S
C1518 C1517 1.379 . S
H1519 C1513 0.959 . S
H1520 C1513 0.961 . S
H1521 C1513 0.960 . S
H1522 C1514 0.930 . S
H1523 C1515 0.929 . S
H1524 C1532 0.929 . S
H1525 C1534 0.930 . S
H1526 C1536 0.930 . S
H1527 C1539 0.929 . S
H1528 C1542 0.930 . S
H1529 C1544 0.960 . S
H1530 C1544 0.960 . S
H1531 C1544 0.960 . S
C1532 H1524 0.929 . S
C1532 C1533 1.377 . S
C1532 C1534 1.384 . S
C1533 C1532 1.377 . S
C1533 C1539 1.390 . S
C1534 H1525 0.930 . S
C1534 C1532 1.384 . S
C1534 C1535 1.372 . S
C1535 C1534 1.372 . S
C1535 C1536 1.400 . S
C1535 C1540 1.490 . S
C1536 H1526 0.930 . S
C1536 C1535 1.400 . S
C1536 C1539 1.386 . S
H1537 C1553 0.930 . S
H1538 C1554 0.931 . S
C1539 H1527 0.929 . S
C1539 C1533 1.390 . S
C1539 C1536 1.386 . S
C1540 C1535 1.490 . S
C1540 C1542 1.395 . S
C1540 C1543 1.403 . S
H1541 C1547 0.930 . S
C1542 H1528 0.930 . S
C1542 C1540 1.395 . S
C1542 C1545 1.403 . S
C1543 C1540 1.403 . S
C1543 C1544 1.524 . S
C1543 C1547 1.400 . S
C1544 H1529 0.960 . S
C1544 H1530 0.960 . S
C1544 H1531 0.960 . S
C1544 C1543 1.524 . S
C1545 C1542 1.403 . S
C1545 C1546 1.392 . S
C1545 C1549 1.495 . S
C1546 C1545 1.392 . S
C1546 C1547 1.385 . S
C1546 C1548 1.478 . S
C1547 H1541 0.930 . S
C1547 C1543 1.400 . S
C1547 C1546 1.385 . S
C1548 C1546 1.478 . S
C1548 C1550 1.381 . S
C1548 C1554 1.383 . S
C1549 C1545 1.495 . S
C1549 H1555 0.959 . S
C1549 H1556 0.961 . S
C1549 H1557 0.960 . S
C1550 C1548 1.381 . S
C1550 C1551 1.394 . S
C1550 H1558 0.930 . S
C1551 C1550 1.394 . S
C1551 C1552 1.383 . S
C1551 H1559 0.929 . S
C1552 C1551 1.383 . S
C1552 C1553 1.377 . S
C1553 H1537 0.930 . S
C1553 C1552 1.377 . S
C1553 C1554 1.379 . S
C1554 H1538 0.931 . S
C1554 C1548 1.383 . S
C1554 C1553 1.379 . S
H1555 C1549 0.959 . S
H1556 C1549 0.961 . S
H1557 C1549 0.960 . S
H1558 C1550 0.930 . S
H1559 C1551 0.929 . S
H1560 C1568 0.929 . S
H1561 C1570 0.930 . S
H1562 C1572 0.930 . S
H1563 C1575 0.929 . S
H1564 C1578 0.930 . S
H1565 C1580 0.960 . S
H1566 C1580 0.960 . S
H1567 C1580 0.960 . S
C1568 H1560 0.929 . S
C1568 C1569 1.377 . S
C1568 C1570 1.384 . S
C1569 C1568 1.377 . S
C1569 C1575 1.390 . S
C1570 H1561 0.930 . S
C1570 C1568 1.384 . S
C1570 C1571 1.372 . S
C1571 C1570 1.372 . S
C1571 C1572 1.400 . S
C1571 C1576 1.490 . S
C1572 H1562 0.930 . S
C1572 C1571 1.400 . S
C1572 C1575 1.386 . S
H1573 C1589 0.930 . S
H1574 C1590 0.931 . S
C1575 H1563 0.929 . S
C1575 C1569 1.390 . S
C1575 C1572 1.386 . S
C1576 C1571 1.490 . S
C1576 C1578 1.395 . S
C1576 C1579 1.403 . S
H1577 C1583 0.930 . S
C1578 H1564 0.930 . S
C1578 C1576 1.395 . S
C1578 C1581 1.403 . S
C1579 C1576 1.403 . S
C1579 C1580 1.524 . S
C1579 C1583 1.400 . S
C1580 H1565 0.960 . S
C1580 H1566 0.960 . S
C1580 H1567 0.960 . S
C1580 C1579 1.524 . S
C1581 C1578 1.403 . S
C1581 C1582 1.392 . S
C1581 C1585 1.495 . S
C1582 C1581 1.392 . S
C1582 C1583 1.385 . S
C1582 C1584 1.478 . S
C1583 H1577 0.930 . S
C1583 C1579 1.400 . S
C1583 C1582 1.385 . S
C1584 C1582 1.478 . S
C1584 C1586 1.381 . S
C1584 C1590 1.383 . S
C1585 C1581 1.495 . S
C1585 H1591 0.959 . S
C1585 H1592 0.961 . S
C1585 H1593 0.960 . S
C1586 C1584 1.381 . S
C1586 C1587 1.394 . S
C1586 H1594 0.930 . S
C1587 C1586 1.394 . S
C1587 C1588 1.383 . S
C1587 H1595 0.929 . S
C1588 C1587 1.383 . S
C1588 C1589 1.377 . S
C1589 H1573 0.930 . S
C1589 C1588 1.377 . S
C1589 C1590 1.379 . S
C1590 H1574 0.931 . S
C1590 C1584 1.383 . S
C1590 C1589 1.379 . S
H1591 C1585 0.959 . S
H1592 C1585 0.961 . S
H1593 C1585 0.960 . S
H1594 C1586 0.930 . S
H1595 C1587 0.929 . S
H1596 C1604 0.929 . S
H1597 C1606 0.930 . S
H1598 C1608 0.930 . S
H1599 C1611 0.929 . S
H1600 C1614 0.930 . S
H1601 C1616 0.960 . S
H1602 C1616 0.960 . S
H1603 C1616 0.960 . S
C1604 H1596 0.929 . S
C1604 C1605 1.377 . S
C1604 C1606 1.384 . S
C1605 C1604 1.377 . S
C1605 C1611 1.390 . S
C1606 H1597 0.930 . S
C1606 C1604 1.384 . S
C1606 C1607 1.372 . S
C1607 C1606 1.372 . S
C1607 C1608 1.400 . S
C1607 C1612 1.490 . S
C1608 H1598 0.930 . S
C1608 C1607 1.400 . S
C1608 C1611 1.386 . S
H1609 C1625 0.930 . S
H1610 C1626 0.931 . S
C1611 H1599 0.929 . S
C1611 C1605 1.390 . S
C1611 C1608 1.386 . S
C1612 C1607 1.490 . S
C1612 C1614 1.395 . S
C1612 C1615 1.403 . S
H1613 C1619 0.930 . S
C1614 H1600 0.930 . S
C1614 C1612 1.395 . S
C1614 C1617 1.403 . S
C1615 C1612 1.403 . S
C1615 C1616 1.524 . S
C1615 C1619 1.400 . S
C1616 H1601 0.960 . S
C1616 H1602 0.960 . S
C1616 H1603 0.960 . S
C1616 C1615 1.524 . S
C1617 C1614 1.403 . S
C1617 C1618 1.392 . S
C1617 C1621 1.495 . S
C1618 C1617 1.392 . S
C1618 C1619 1.385 . S
C1618 C1620 1.478 . S
C1619 H1613 0.930 . S
C1619 C1615 1.400 . S
C1619 C1618 1.385 . S
C1620 C1618 1.478 . S
C1620 C1622 1.381 . S
C1620 C1626 1.383 . S
C1621 C1617 1.495 . S
C1621 H1627 0.959 . S
C1621 H1628 0.961 . S
C1621 H1629 0.960 . S
C1622 C1620 1.381 . S
C1622 C1623 1.394 . S
C1622 H1630 0.930 . S
C1623 C1622 1.394 . S
C1623 C1624 1.383 . S
C1623 H1631 0.929 . S
C1624 C1623 1.383 . S
C1624 C1625 1.377 . S
C1625 H1609 0.930 . S
C1625 C1624 1.377 . S
C1625 C1626 1.379 . S
C1626 H1610 0.931 . S
C1626 C1620 1.383 . S
C1626 C1625 1.379 . S
H1627 C1621 0.959 . S
H1628 C1621 0.961 . S
H1629 C1621 0.960 . S
H1630 C1622 0.930 . S
H1631 C1623 0.929 . S
C508 C390 1.225 . S
C489 C8 1.193 . S
C544 C404 1.229 . S
C525 C61 1.207 . S
C580 C419 1.187 . S
C561 C107 1.234 . S
C597 C139 1.206 . S
C616 C377 1.207 . S
C633 C192 1.155 . S
C652 C376 1.164 1_556 S
C669 C238 1.157 . S
C688 C391 1.114 . S
C724 C405 1.184 . S
C705 C284 1.215 . S
C760 C418 1.218 . S
C741 C330 1.187 . S
C777 C100 1.161 . S
C796 C446 1.170 . S
C832 C460 1.231 . S
C813 C160 1.194 . S
C849 C15 1.154 . S
C868 C475 1.159 . S
C904 C432 1.144 . S
C885 C54 1.133 . S
C921 C291 1.208 . S
C940 C433 1.232 . S
C957 C337 1.222 . S
C976 C447 1.239 . S
C1012 C461 1.186 . S
C993 C199 1.231 . S
C1029 C245 1.221 . S
C1048 C474 1.257 . S
C1084 C399 1.691 . S
C1065 C1 1.706 . S
C1120 C417 1.676 . S
C1101 C68 1.690 . S
C1137 C114 1.698 . S
C1156 C375 1.660 . S
C1173 C146 1.721 . S
C1192 C385 1.705 . S
C1209 C185 1.635 . S
C1228 C413 1.615 . S
C1264 C371 1.618 . S
C1245 C231 1.640 . S
C1300 C389 1.563 . S
C1281 C277 1.635 . S
C1336 C403 1.601 . S
C1317 C323 1.634 . S
C1372 C455 1.630 . S
C1353 C93 1.634 . S
C1408 C473 1.593 . S
C1389 C153 1.627 . S
C1425 C22 1.626 . S
C1444 C427 1.631 . S
C1480 C441 1.613 . S
C1461 C47 1.629 . S
C1516 C469 1.718 . S
C1497 C298 1.712 . S
C1533 C344 1.708 . S
C1552 C431 1.655 . S
C1588 C445 1.670 . S
C1569 C206 1.699 . S
C1624 C459 1.642 . S
C1605 C252 1.697 . S
