# Generated by pormake.
# Topology eea, (3,6)-cn, num edge types: 1
# Building blocks:
#     Node 0, Type 0, BuildingBlock: KAKCAD_clean_linker_0, # of connection points: 3
#     Node 1, Type 0, BuildingBlock: KAKCAD_clean_linker_0, # of connection points: 3
#     Node 2, Type 0, BuildingBlock: KAKCAD_clean_linker_0, # of connection points: 3
#     Node 3, Type 0, BuildingBlock: KAKCAD_clean_linker_0, # of connection points: 3
#     Node 4, Type 0, BuildingBlock: KAKCAD_clean_linker_0, # of connection points: 3
#     Node 5, Type 0, BuildingBlock: KAKCAD_clean_linker_0, # of connection points: 3
#     Node 6, Type 0, BuildingBlock: KAKCAD_clean_linker_0, # of connection points: 3
#     Node 7, Type 0, BuildingBlock: KAKCAD_clean_linker_0, # of connection points: 3
#     Node 8, Type 0, BuildingBlock: KAKCAD_clean_linker_0, # of connection points: 3
#     Node 9, Type 0, BuildingBlock: KAKCAD_clean_linker_0, # of connection points: 3
#     Node 10, Type 0, BuildingBlock: KAKCAD_clean_linker_0, # of connection points: 3
#     Node 11, Type 0, BuildingBlock: KAKCAD_clean_linker_0, # of connection points: 3
#     Node 12, Type 0, BuildingBlock: KAKCAD_clean_linker_0, # of connection points: 3
#     Node 13, Type 0, BuildingBlock: KAKCAD_clean_linker_0, # of connection points: 3
#     Node 14, Type 0, BuildingBlock: KAKCAD_clean_linker_0, # of connection points: 3
#     Node 15, Type 0, BuildingBlock: KAKCAD_clean_linker_0, # of connection points: 3
#     Node 16, Type 0, BuildingBlock: KAKCAD_clean_linker_0, # of connection points: 3
#     Node 17, Type 0, BuildingBlock: KAKCAD_clean_linker_0, # of connection points: 3
#     Node 18, Type 1, BuildingBlock: CUWYAW_clean_sbu_0, # of connection points: 6
#     Node 19, Type 1, BuildingBlock: CUWYAW_clean_sbu_0, # of connection points: 6
#     Node 20, Type 1, BuildingBlock: CUWYAW_clean_sbu_0, # of connection points: 6
#     Node 21, Type 1, BuildingBlock: CUWYAW_clean_sbu_0, # of connection points: 6
#     Node 22, Type 1, BuildingBlock: CUWYAW_clean_sbu_0, # of connection points: 6
#     Node 23, Type 1, BuildingBlock: CUWYAW_clean_sbu_0, # of connection points: 6
#     Node 24, Type 1, BuildingBlock: CUWYAW_clean_sbu_0, # of connection points: 6
#     Node 25, Type 1, BuildingBlock: CUWYAW_clean_sbu_0, # of connection points: 6
#     Node 26, Type 1, BuildingBlock: CUWYAW_clean_sbu_0, # of connection points: 6
#     Edge 27, Type (0, 1), BuildingBlock: UVAHIK_clean_linker_0, # of connection points: 2
#     Edge 28, Type (0, 1), BuildingBlock: UVAHIK_clean_linker_0, # of connection points: 2
#     Edge 29, Type (0, 1), BuildingBlock: UVAHIK_clean_linker_0, # of connection points: 2
#     Edge 30, Type (0, 1), BuildingBlock: UVAHIK_clean_linker_0, # of connection points: 2
#     Edge 31, Type (0, 1), BuildingBlock: UVAHIK_clean_linker_0, # of connection points: 2
#     Edge 32, Type (0, 1), BuildingBlock: UVAHIK_clean_linker_0, # of connection points: 2
#     Edge 33, Type (0, 1), BuildingBlock: UVAHIK_clean_linker_0, # of connection points: 2
#     Edge 34, Type (0, 1), BuildingBlock: UVAHIK_clean_linker_0, # of connection points: 2
#     Edge 35, Type (0, 1), BuildingBlock: UVAHIK_clean_linker_0, # of connection points: 2
#     Edge 36, Type (0, 1), BuildingBlock: UVAHIK_clean_linker_0, # of connection points: 2
#     Edge 37, Type (0, 1), BuildingBlock: UVAHIK_clean_linker_0, # of connection points: 2
#     Edge 38, Type (0, 1), BuildingBlock: UVAHIK_clean_linker_0, # of connection points: 2
#     Edge 39, Type (0, 1), BuildingBlock: UVAHIK_clean_linker_0, # of connection points: 2
#     Edge 40, Type (0, 1), BuildingBlock: UVAHIK_clean_linker_0, # of connection points: 2
#     Edge 41, Type (0, 1), BuildingBlock: UVAHIK_clean_linker_0, # of connection points: 2
#     Edge 42, Type (0, 1), BuildingBlock: UVAHIK_clean_linker_0, # of connection points: 2
#     Edge 43, Type (0, 1), BuildingBlock: UVAHIK_clean_linker_0, # of connection points: 2
#     Edge 44, Type (0, 1), BuildingBlock: UVAHIK_clean_linker_0, # of connection points: 2
#     Edge 45, Type (0, 1), BuildingBlock: UVAHIK_clean_linker_0, # of connection points: 2
#     Edge 46, Type (0, 1), BuildingBlock: UVAHIK_clean_linker_0, # of connection points: 2
#     Edge 47, Type (0, 1), BuildingBlock: UVAHIK_clean_linker_0, # of connection points: 2
#     Edge 48, Type (0, 1), BuildingBlock: UVAHIK_clean_linker_0, # of connection points: 2
#     Edge 49, Type (0, 1), BuildingBlock: UVAHIK_clean_linker_0, # of connection points: 2
#     Edge 50, Type (0, 1), BuildingBlock: UVAHIK_clean_linker_0, # of connection points: 2
#     Edge 51, Type (0, 1), BuildingBlock: UVAHIK_clean_linker_0, # of connection points: 2
#     Edge 52, Type (0, 1), BuildingBlock: UVAHIK_clean_linker_0, # of connection points: 2
#     Edge 53, Type (0, 1), BuildingBlock: UVAHIK_clean_linker_0, # of connection points: 2
#     Edge 54, Type (0, 1), BuildingBlock: UVAHIK_clean_linker_0, # of connection points: 2
#     Edge 55, Type (0, 1), BuildingBlock: UVAHIK_clean_linker_0, # of connection points: 2
#     Edge 56, Type (0, 1), BuildingBlock: UVAHIK_clean_linker_0, # of connection points: 2
#     Edge 57, Type (0, 1), BuildingBlock: UVAHIK_clean_linker_0, # of connection points: 2
#     Edge 58, Type (0, 1), BuildingBlock: UVAHIK_clean_linker_0, # of connection points: 2
#     Edge 59, Type (0, 1), BuildingBlock: UVAHIK_clean_linker_0, # of connection points: 2
#     Edge 60, Type (0, 1), BuildingBlock: UVAHIK_clean_linker_0, # of connection points: 2
#     Edge 61, Type (0, 1), BuildingBlock: UVAHIK_clean_linker_0, # of connection points: 2
#     Edge 62, Type (0, 1), BuildingBlock: UVAHIK_clean_linker_0, # of connection points: 2
#     Edge 63, Type (0, 1), BuildingBlock: UVAHIK_clean_linker_0, # of connection points: 2
#     Edge 64, Type (0, 1), BuildingBlock: UVAHIK_clean_linker_0, # of connection points: 2
#     Edge 65, Type (0, 1), BuildingBlock: UVAHIK_clean_linker_0, # of connection points: 2
#     Edge 66, Type (0, 1), BuildingBlock: UVAHIK_clean_linker_0, # of connection points: 2
#     Edge 67, Type (0, 1), BuildingBlock: UVAHIK_clean_linker_0, # of connection points: 2
#     Edge 68, Type (0, 1), BuildingBlock: UVAHIK_clean_linker_0, # of connection points: 2
#     Edge 69, Type (0, 1), BuildingBlock: UVAHIK_clean_linker_0, # of connection points: 2
#     Edge 70, Type (0, 1), BuildingBlock: UVAHIK_clean_linker_0, # of connection points: 2
#     Edge 71, Type (0, 1), BuildingBlock: UVAHIK_clean_linker_0, # of connection points: 2
#     Edge 72, Type (0, 1), BuildingBlock: UVAHIK_clean_linker_0, # of connection points: 2
#     Edge 73, Type (0, 1), BuildingBlock: UVAHIK_clean_linker_0, # of connection points: 2
#     Edge 74, Type (0, 1), BuildingBlock: UVAHIK_clean_linker_0, # of connection points: 2
#     Edge 75, Type (0, 1), BuildingBlock: UVAHIK_clean_linker_0, # of connection points: 2
#     Edge 76, Type (0, 1), BuildingBlock: UVAHIK_clean_linker_0, # of connection points: 2
#     Edge 77, Type (0, 1), BuildingBlock: UVAHIK_clean_linker_0, # of connection points: 2
#     Edge 78, Type (0, 1), BuildingBlock: UVAHIK_clean_linker_0, # of connection points: 2
#     Edge 79, Type (0, 1), BuildingBlock: UVAHIK_clean_linker_0, # of connection points: 2
#     Edge 80, Type (0, 1), BuildingBlock: UVAHIK_clean_linker_0, # of connection points: 2
# Relax obj value: 0.034
# Max RMSD: 0.135
# Mean RMSD: 0.066
data_MOF--net-eea--node1-CUWYAW_clean_sbu_0--node2-KAKCAD_clean_linker_0--edge1-UVAHIK_clean_linker_0
_symmetry_space_group_name_H-M    P1
_symmetry_Int_Tables_number       1
_symmetry_cell_setting            triclinic
loop_
_symmetry_equiv_pos_as_xyz
'x, y, z'
_cell_length_a     77.97525
_cell_length_b     77.611607
_cell_length_c     108.48598
_cell_angle_alpha  93.652835
_cell_angle_beta   93.485626
_cell_angle_gamma 119.85925
loop_
_atom_site_label
_atom_site_type_symbol
_atom_site_fract_x
_atom_site_fract_y
_atom_site_fract_z
_atom_type_partial_charge
C0 C 0.29599 0.16783 0.45962 0.0
C1 C 0.30991 0.16251 0.46395 0.0
C2 C 0.28959 0.16494 0.44697 0.0
C3 C 0.29685 0.15654 0.43836 0.0
C4 C 0.31104 0.15157 0.44261 0.0
C5 C 0.31758 0.15461 0.45527 0.0
C6 C 0.28887 0.15212 0.42508 0.0
C7 C 0.28636 0.16624 0.41897 0.0
C8 C 0.27728 0.1616 0.4067 0.0
C9 C 0.27117 0.14268 0.40047 0.0
C10 C 0.27363 0.12835 0.40641 0.0
C11 C 0.28256 0.13328 0.41873 0.0
C12 C 0.26595 0.10793 0.39999 0.0
C13 C 0.24798 0.09843 0.39214 0.0
C14 C 0.27628 0.09758 0.40184 0.0
C15 C 0.26871 0.07817 0.39611 0.0
C16 C 0.25072 0.06868 0.38827 0.0
C17 C 0.27298 0.17594 0.40064 0.0
C18 C 0.26694 0.18757 0.40758 0.0
C19 C 0.27378 0.17733 0.38779 0.0
C20 C 0.26791 0.18939 0.38196 0.0
C21 C 0.26149 0.2006 0.3889 0.0
C22 C 0.26142 0.19988 0.40178 0.0
C23 C 0.24056 0.07916 0.38629 0.0
H24 H 0.28949 0.17361 0.46604 0.0
H25 H 0.27842 0.16865 0.44398 0.0
H26 H 0.31704 0.14527 0.43615 0.0
H27 H 0.32858 0.15068 0.45824 0.0
H28 H 0.29146 0.18087 0.42384 0.0
H29 H 0.28379 0.12213 0.42362 0.0
H30 H 0.26405 0.1389 0.39104 0.0
H31 H 0.23939 0.10573 0.39064 0.0
H32 H 0.29028 0.10448 0.4077 0.0
H33 H 0.27685 0.07053 0.39801 0.0
H34 H 0.26576 0.18665 0.41744 0.0
H35 H 0.27875 0.16895 0.38219 0.0
H36 H 0.22685 0.07252 0.38016 0.0
H37 H 0.25631 0.20824 0.4073 0.0
H38 H 0.26826 0.18987 0.37202 0.0
C39 C 0.87255 0.16607 0.46177 0.0
C40 C 0.86422 0.14969 0.46878 0.0
C41 C 0.8744 0.16328 0.44915 0.0
C42 C 0.86792 0.14404 0.44328 0.0
C43 C 0.85947 0.12769 0.4503 0.0
C44 C 0.85757 0.13046 0.46285 0.0
C45 C 0.8704 0.1409 0.43 0.0
C46 C 0.88809 0.15394 0.42514 0.0
C47 C 0.89116 0.15012 0.41287 0.0
C48 C 0.8763 0.1329 0.40549 0.0
C49 C 0.85852 0.11962 0.41019 0.0
C50 C 0.85556 0.12407 0.42236 0.0
C51 C 0.84362 0.10049 0.40273 0.0
C52 C 0.84005 0.09934 0.38974 0.0
C53 C 0.83337 0.08294 0.40857 0.0
C54 C 0.82 0.06479 0.40163 0.0
C55 C 0.8168 0.06363 0.38867 0.0
C56 C 0.91022 0.16368 0.40794 0.0
C57 C 0.91954 0.18452 0.4108 0.0
C58 C 0.91932 0.15585 0.4004 0.0
C59 C 0.93716 0.16855 0.39572 0.0
C60 C 0.94643 0.18934 0.39858 0.0
C61 C 0.93751 0.19722 0.40621 0.0
C62 C 0.82691 0.08105 0.38277 0.0
H63 H 0.87792 0.18109 0.46607 0.0
H64 H 0.88085 0.17617 0.44398 0.0
H65 H 0.85459 0.1127 0.44614 0.0
H66 H 0.85078 0.11746 0.46791 0.0
H67 H 0.89987 0.1666 0.43109 0.0
H68 H 0.84167 0.11431 0.42598 0.0
H69 H 0.87879 0.12965 0.39613 0.0
H70 H 0.84739 0.11255 0.38492 0.0
H71 H 0.83603 0.08304 0.41849 0.0
H72 H 0.81258 0.05149 0.40638 0.0
H73 H 0.91282 0.19107 0.41646 0.0
H74 H 0.91283 0.13987 0.39823 0.0
H75 H 0.82456 0.08051 0.37277 0.0
H76 H 0.94425 0.21322 0.40846 0.0
H77 H 0.94388 0.16206 0.39001 0.0
C78 C 0.88755 0.72608 0.46933 0.0
C79 C 0.8683 0.71299 0.47235 0.0
C80 C 0.89046 0.73315 0.45768 0.0
C81 C 0.87422 0.72711 0.44868 0.0
C82 C 0.85503 0.71343 0.45153 0.0
C83 C 0.85209 0.70653 0.46324 0.0
C84 C 0.87726 0.73586 0.43664 0.0
C85 C 0.89426 0.74014 0.4307 0.0
C86 C 0.89814 0.74999 0.4199 0.0
C87 C 0.88445 0.7551 0.41485 0.0
C88 C 0.86713 0.75046 0.42046 0.0
C89 C 0.86367 0.74092 0.43135 0.0
C90 C 0.85282 0.75598 0.41513 0.0
C91 C 0.8595 0.77533 0.41176 0.0
C92 C 0.83236 0.74195 0.41344 0.0
C93 C 0.81884 0.74712 0.40839 0.0
C94 C 0.82551 0.7665 0.40508 0.0
C95 C 0.91674 0.75544 0.41411 0.0
C96 C 0.93482 0.7625 0.42156 0.0
C97 C 0.91667 0.75398 0.40112 0.0
C98 C 0.93428 0.75966 0.39572 0.0
C99 C 0.95238 0.76681 0.40318 0.0
C100 C 0.9524 0.76803 0.41617 0.0
C101 C 0.84596 0.78057 0.40685 0.0
H102 H 0.90042 0.7311 0.47602 0.0
H103 H 0.90544 0.74383 0.4559 0.0
H104 H 0.8422 0.70821 0.44476 0.0
H105 H 0.83703 0.6966 0.46525 0.0
H106 H 0.90449 0.73571 0.43447 0.0
H107 H 0.85072 0.73817 0.43595 0.0
H108 H 0.88732 0.76286 0.40659 0.0
H109 H 0.87518 0.78647 0.41306 0.0
H110 H 0.82685 0.7269 0.41591 0.0
H111 H 0.80314 0.73603 0.4072 0.0
H112 H 0.93549 0.76406 0.4316 0.0
H113 H 0.90297 0.74839 0.3951 0.0
H114 H 0.85149 0.79557 0.40429 0.0
H115 H 0.966 0.7732 0.4222 0.0
H116 H 0.93373 0.75873 0.38569 0.0
C117 C 0.13326 0.27037 0.53196 0.0
C118 C 0.12884 0.28535 0.5294 0.0
C119 C 0.13146 0.26365 0.54369 0.0
C120 C 0.12528 0.2718 0.55319 0.0
C121 C 0.12103 0.28692 0.55069 0.0
C122 C 0.12281 0.29364 0.53892 0.0
C123 C 0.12289 0.26418 0.56556 0.0
C124 C 0.13673 0.25957 0.57099 0.0
C125 C 0.13406 0.25146 0.58239 0.0
C126 C 0.11735 0.24793 0.58839 0.0
C127 C 0.10334 0.25237 0.58308 0.0
C128 C 0.10629 0.26067 0.57173 0.0
C129 C 0.08503 0.2473 0.58901 0.0
C130 C 0.07346 0.22816 0.59275 0.0
C131 C 0.07873 0.26131 0.59064 0.0
C132 C 0.06114 0.25625 0.59594 0.0
C133 C 0.04941 0.237 0.59951 0.0
C134 C 0.14837 0.24603 0.58782 0.0
C135 C 0.15399 0.23442 0.58056 0.0
C136 C 0.15619 0.25208 0.60034 0.0
C137 C 0.16939 0.24658 0.60551 0.0
C138 C 0.17481 0.23465 0.59832 0.0
C139 C 0.16695 0.22867 0.58576 0.0
C140 C 0.05574 0.22302 0.59788 0.0
H141 H 0.13822 0.26387 0.52489 0.0
H142 H 0.13462 0.25182 0.54526 0.0
H143 H 0.1164 0.29362 0.55784 0.0
H144 H 0.11916 0.30511 0.53723 0.0
H145 H 0.14974 0.26246 0.56641 0.0
H146 H 0.09517 0.26355 0.56745 0.0
H147 H 0.11507 0.24139 0.59711 0.0
H148 H 0.07791 0.21704 0.59148 0.0
H149 H 0.08744 0.27618 0.58786 0.0
H150 H 0.05651 0.26725 0.59705 0.0
H151 H 0.14797 0.22937 0.57091 0.0
H152 H 0.15223 0.26122 0.60609 0.0
H153 H 0.04704 0.20813 0.60064 0.0
H154 H 0.17045 0.21918 0.57998 0.0
H155 H 0.17542 0.25182 0.61513 0.0
C156 C 0.69594 0.83022 0.54559 0.0
C157 C 0.70445 0.84677 0.53874 0.0
C158 C 0.69966 0.8328 0.55856 0.0
C159 C 0.7119 0.85199 0.56491 0.0
C160 C 0.72011 0.86853 0.55804 0.0
C161 C 0.71639 0.86596 0.54513 0.0
C162 C 0.71695 0.8549 0.5786 0.0
C163 C 0.72197 0.84215 0.58444 0.0
C164 C 0.72881 0.84602 0.59716 0.0
C165 C 0.73075 0.86304 0.604 0.0
C166 C 0.72593 0.87608 0.5983 0.0
C167 C 0.71846 0.87147 0.58568 0.0
C168 C 0.73026 0.89531 0.60519 0.0
C169 C 0.72849 0.89684 0.61801 0.0
C170 C 0.7373 0.91268 0.59905 0.0
C171 C 0.74252 0.93101 0.60552 0.0
C172 C 0.74123 0.93255 0.61833 0.0
C173 C 0.73516 0.83301 0.60305 0.0
C174 C 0.72459 0.81219 0.59982 0.0
C175 C 0.75222 0.84137 0.61167 0.0
C176 C 0.75862 0.82926 0.61685 0.0
C177 C 0.74831 0.8085 0.61343 0.0
C178 C 0.73113 0.8001 0.6049 0.0
C179 C 0.73413 0.91533 0.62454 0.0
H180 H 0.68674 0.81524 0.54093 0.0
H181 H 0.69301 0.81978 0.5636 0.0
H182 H 0.72984 0.88349 0.5626 0.0
H183 H 0.72292 0.87906 0.54015 0.0
H184 H 0.72155 0.82978 0.57893 0.0
H185 H 0.71412 0.88104 0.58124 0.0
H186 H 0.73656 0.86641 0.6137 0.0
H187 H 0.72284 0.88379 0.62303 0.0
H188 H 0.73942 0.91234 0.58928 0.0
H189 H 0.74824 0.94416 0.60057 0.0
H190 H 0.71126 0.80522 0.59332 0.0
H191 H 0.76094 0.85735 0.61425 0.0
H192 H 0.73293 0.91619 0.63443 0.0
H193 H 0.72291 0.78421 0.60194 0.0
H194 H 0.77172 0.83624 0.62355 0.0
C195 C 0.11734 0.84076 0.53556 0.0
C196 C 0.1359 0.84351 0.5328 0.0
C197 C 0.11369 0.84286 0.54786 0.0
C198 C 0.12856 0.84795 0.55765 0.0
C199 C 0.14699 0.85042 0.55495 0.0
C200 C 0.15058 0.84811 0.54267 0.0
C201 C 0.12512 0.85125 0.57065 0.0
C202 C 0.10753 0.83757 0.57533 0.0
C203 C 0.10425 0.84077 0.58762 0.0
C204 C 0.11873 0.85785 0.59524 0.0
C205 C 0.13616 0.87206 0.59061 0.0
C206 C 0.13926 0.86847 0.5783 0.0
C207 C 0.15054 0.89113 0.59831 0.0
C208 C 0.14373 0.90077 0.60641 0.0
C209 C 0.17108 0.90036 0.59721 0.0
C210 C 0.18433 0.91903 0.6037 0.0
C211 C 0.17738 0.92867 0.61162 0.0
C212 C 0.0853 0.82678 0.59238 0.0
C213 C 0.06707 0.82077 0.58543 0.0
C214 C 0.08529 0.82007 0.60409 0.0
C215 C 0.06737 0.80782 0.60886 0.0
C216 C 0.04906 0.8022 0.60207 0.0
C217 C 0.04915 0.80869 0.59024 0.0
C218 C 0.15704 0.91925 0.61307 0.0
H219 H 0.10579 0.83751 0.5282 0.0
H220 H 0.09942 0.84107 0.54969 0.0
H221 H 0.15862 0.85409 0.56235 0.0
H222 H 0.16489 0.84993 0.54093 0.0
H223 H 0.09651 0.82429 0.56944 0.0
H224 H 0.15232 0.87947 0.57443 0.0
H225 H 0.11612 0.86028 0.60473 0.0
H226 H 0.12804 0.89441 0.60734 0.0
H227 H 0.17695 0.89325 0.59127 0.0
H228 H 0.20001 0.92597 0.60253 0.0
H229 H 0.06667 0.82595 0.57643 0.0
H230 H 0.09916 0.82431 0.60957 0.0
H231 H 0.15132 0.92652 0.61903 0.0
H232 H 0.03539 0.80496 0.58483 0.0
H233 H 0.06788 0.80278 0.61788 0.0
C234 C 0.96265 0.50367 0.79229 0.0
C235 C 0.97673 0.49859 0.79669 0.0
C236 C 0.95637 0.50077 0.77962 0.0
C237 C 0.96388 0.49256 0.77107 0.0
C238 C 0.97827 0.48789 0.77538 0.0
C239 C 0.9847 0.49097 0.78805 0.0
C240 C 0.95591 0.48793 0.75778 0.0
C241 C 0.95324 0.50185 0.75155 0.0
C242 C 0.94417 0.49697 0.73926 0.0
C243 C 0.93819 0.47799 0.73316 0.0
C244 C 0.94079 0.46385 0.73925 0.0
C245 C 0.94974 0.46903 0.75157 0.0
C246 C 0.93321 0.44336 0.73299 0.0
C247 C 0.9152 0.43362 0.72518 0.0
C248 C 0.94365 0.43316 0.73498 0.0
C249 C 0.93612 0.41364 0.72947 0.0
C250 C 0.91807 0.4039 0.72169 0.0
C251 C 0.93976 0.51111 0.73304 0.0
C252 C 0.9336 0.52276 0.73984 0.0
C253 C 0.94058 0.51229 0.72018 0.0
C254 C 0.93462 0.52417 0.7142 0.0
C255 C 0.92811 0.53541 0.721 0.0
C256 C 0.928 0.5349 0.73389 0.0
C257 C 0.90782 0.41424 0.71953 0.0
H258 H 0.95593 0.50925 0.79866 0.0
H259 H 0.94506 0.50425 0.77656 0.0
H260 H 0.98446 0.48175 0.76896 0.0
H261 H 0.99583 0.48724 0.79108 0.0
H262 H 0.95823 0.51651 0.75633 0.0
H263 H 0.95107 0.45803 0.75656 0.0
H264 H 0.93106 0.47402 0.72373 0.0
H265 H 0.90653 0.44082 0.72357 0.0
H266 H 0.95768 0.44024 0.74082 0.0
H267 H 0.94433 0.40611 0.73149 0.0
H268 H 0.9324 0.522 0.74971 0.0
H269 H 0.94563 0.50389 0.71467 0.0
H270 H 0.89406 0.4074 0.71344 0.0
H271 H 0.92281 0.54329 0.7393 0.0
H272 H 0.935 0.5245 0.70425 0.0
C273 C 0.53963 0.50069 0.79449 0.0
C274 C 0.53131 0.48444 0.80161 0.0
C275 C 0.54112 0.49764 0.78184 0.0
C276 C 0.53426 0.47828 0.77605 0.0
C277 C 0.5258 0.46206 0.78317 0.0
C278 C 0.52428 0.46509 0.79576 0.0
C279 C 0.53638 0.47484 0.76273 0.0
C280 C 0.55405 0.48749 0.75772 0.0
C281 C 0.5568 0.48332 0.74543 0.0
C282 C 0.54161 0.46613 0.73819 0.0
C283 C 0.52384 0.45322 0.74305 0.0
C284 C 0.52122 0.45804 0.75523 0.0
C285 C 0.50861 0.43407 0.73576 0.0
C286 C 0.50481 0.43267 0.72277 0.0
C287 C 0.49829 0.4167 0.74176 0.0
C288 C 0.48464 0.39849 0.73499 0.0
C289 C 0.48122 0.39708 0.72203 0.0
C290 C 0.57591 0.4964 0.74038 0.0
C291 C 0.58577 0.51729 0.74317 0.0
C292 C 0.58457 0.48805 0.73285 0.0
C293 C 0.60254 0.50028 0.72815 0.0
C294 C 0.61238 0.52113 0.73097 0.0
C295 C 0.60387 0.52952 0.73856 0.0
C296 C 0.49138 0.41431 0.71596 0.0
H297 H 0.54528 0.5158 0.79874 0.0
H298 H 0.54759 0.51043 0.77658 0.0
H299 H 0.52064 0.44698 0.77907 0.0
H300 H 0.51749 0.4522 0.80091 0.0
H301 H 0.56606 0.5001 0.76357 0.0
H302 H 0.50736 0.44856 0.75897 0.0
H303 H 0.54384 0.46259 0.72882 0.0
H304 H 0.5122 0.44574 0.71783 0.0
H305 H 0.50112 0.41698 0.75169 0.0
H306 H 0.4772 0.38534 0.73986 0.0
H307 H 0.5794 0.52424 0.74881 0.0
H308 H 0.57766 0.47202 0.73073 0.0
H309 H 0.48887 0.41358 0.70596 0.0
H310 H 0.61106 0.54557 0.74078 0.0
H311 H 0.60893 0.4934 0.72247 0.0
C312 C 0.54979 0.06046 0.8036 0.0
C313 C 0.53074 0.04498 0.80543 0.0
C314 C 0.55379 0.0674 0.79194 0.0
C315 C 0.53881 0.05908 0.7819 0.0
C316 C 0.51994 0.04324 0.78363 0.0
C317 C 0.51597 0.03623 0.79525 0.0
C318 C 0.54258 0.06748 0.7698 0.0
C319 C 0.5603 0.07232 0.76461 0.0
C320 C 0.56405 0.08074 0.75331 0.0
C321 C 0.55008 0.08464 0.7473 0.0
C322 C 0.53244 0.08013 0.75246 0.0
C323 C 0.52868 0.07133 0.76362 0.0
C324 C 0.51833 0.08542 0.74651 0.0
C325 C 0.52525 0.10466 0.74289 0.0
C326 C 0.49784 0.07151 0.74475 0.0
C327 C 0.48452 0.07676 0.73945 0.0
C328 C 0.49143 0.0961 0.736 0.0
C329 C 0.5827 0.08578 0.74784 0.0
C330 C 0.60115 0.09713 0.75504 0.0
C331 C 0.58217 0.07959 0.73532 0.0
C332 C 0.59978 0.08474 0.73006 0.0
C333 C 0.61836 0.09647 0.73716 0.0
C334 C 0.6188 0.10255 0.74974 0.0
C335 C 0.51192 0.10999 0.73776 0.0
H336 H 0.56144 0.06771 0.81126 0.0
H337 H 0.56841 0.07977 0.79091 0.0
H338 H 0.5082 0.03634 0.776 0.0
H339 H 0.50126 0.02402 0.79628 0.0
H340 H 0.57103 0.06922 0.76924 0.0
H341 H 0.51526 0.06825 0.76778 0.0
H342 H 0.55306 0.09142 0.73866 0.0
H343 H 0.54096 0.11572 0.74426 0.0
H344 H 0.49215 0.05656 0.74742 0.0
H345 H 0.46878 0.0658 0.73825 0.0
H346 H 0.60193 0.10224 0.7647 0.0
H347 H 0.56809 0.07062 0.72962 0.0
H348 H 0.51763 0.12494 0.73509 0.0
H349 H 0.63278 0.11186 0.75546 0.0
H350 H 0.5988 0.0794 0.72043 0.0
C351 C 0.79828 0.60045 0.86441 0.0
C352 C 0.79266 0.61438 0.8613 0.0
C353 C 0.79706 0.59462 0.87638 0.0
C354 C 0.79032 0.60269 0.88557 0.0
C355 C 0.78468 0.61662 0.88247 0.0
C356 C 0.7858 0.62238 0.87047 0.0
C357 C 0.7892 0.59658 0.89834 0.0
C358 C 0.80417 0.59372 0.90396 0.0
C359 C 0.80306 0.58763 0.91592 0.0
C360 C 0.78697 0.58473 0.92242 0.0
C361 C 0.77165 0.58721 0.9169 0.0
C362 C 0.77294 0.59316 0.90485 0.0
C363 C 0.75388 0.58273 0.92345 0.0
C364 C 0.7457 0.56655 0.93064 0.0
C365 C 0.74454 0.59417 0.92224 0.0
C366 C 0.72725 0.58927 0.92785 0.0
C367 C 0.71909 0.57302 0.93494 0.0
C368 C 0.81824 0.58335 0.92138 0.0
C369 C 0.82356 0.57119 0.91441 0.0
C370 C 0.82706 0.59085 0.93363 0.0
C371 C 0.84092 0.58622 0.93883 0.0
C372 C 0.84604 0.57375 0.93194 0.0
C373 C 0.83721 0.56636 0.91965 0.0
C374 C 0.72858 0.56184 0.93639 0.0
H375 H 0.8039 0.59419 0.85764 0.0
H376 H 0.80127 0.58366 0.8784 0.0
H377 H 0.77959 0.62326 0.88937 0.0
H378 H 0.78117 0.633 0.86835 0.0
H379 H 0.81686 0.59642 0.89909 0.0
H380 H 0.7609 0.59442 0.90032 0.0
H381 H 0.78621 0.58013 0.93169 0.0
H382 H 0.75221 0.55714 0.93158 0.0
H383 H 0.7506 0.60695 0.91697 0.0
H384 H 0.72031 0.59826 0.92672 0.0
H385 H 0.81676 0.56499 0.905 0.0
H386 H 0.82333 0.60042 0.93915 0.0
H387 H 0.72244 0.54909 0.94169 0.0
H388 H 0.84046 0.55641 0.91413 0.0
H389 H 0.84766 0.59249 0.94824 0.0
C390 C 0.36088 0.15993 0.87941 0.0
C391 C 0.36957 0.17593 0.87213 0.0
C392 C 0.3651 0.16325 0.89237 0.0
C393 C 0.37796 0.18265 0.89827 0.0
C394 C 0.38628 0.19864 0.89096 0.0
C395 C 0.38209 0.19533 0.87808 0.0
C396 C 0.38373 0.18639 0.91191 0.0
C397 C 0.38872 0.1738 0.91801 0.0
C398 C 0.39709 0.17903 0.93043 0.0
C399 C 0.40029 0.19684 0.93682 0.0
C400 C 0.3949 0.20937 0.931 0.0
C401 C 0.38625 0.20375 0.91861 0.0
C402 C 0.39965 0.22894 0.93755 0.0
C403 C 0.39864 0.23114 0.95043 0.0
C404 C 0.40616 0.24588 0.93104 0.0
C405 C 0.41169 0.2645 0.93724 0.0
C406 C 0.41117 0.26671 0.95012 0.0
C407 C 0.40393 0.16668 0.93651 0.0
C408 C 0.39083 0.14628 0.93712 0.0
C409 C 0.4237 0.17539 0.94177 0.0
C410 C 0.4303 0.16392 0.94759 0.0
C411 C 0.41718 0.14351 0.94848 0.0
C412 C 0.39734 0.13483 0.94315 0.0
C413 C 0.40452 0.24987 0.95667 0.0
H414 H 0.35121 0.1448 0.87508 0.0
H415 H 0.35838 0.15064 0.89775 0.0
H416 H 0.39649 0.21374 0.89516 0.0
H417 H 0.38877 0.20803 0.87277 0.0
H418 H 0.38725 0.16057 0.91292 0.0
H419 H 0.38179 0.21312 0.91403 0.0
H420 H 0.40749 0.20113 0.94626 0.0
H421 H 0.39338 0.21841 0.95573 0.0
H422 H 0.40761 0.24496 0.92119 0.0
H423 H 0.41702 0.27733 0.93202 0.0
H424 H 0.37548 0.1393 0.93316 0.0
H425 H 0.43414 0.19107 0.94124 0.0
H426 H 0.40386 0.25122 0.96661 0.0
H427 H 0.3867 0.11927 0.94379 0.0
H428 H 0.4458 0.17106 0.95126 0.0
C429 C 0.78456 0.17216 0.86924 0.0
C430 C 0.80321 0.17501 0.86661 0.0
C431 C 0.78084 0.17458 0.88148 0.0
C432 C 0.79573 0.18011 0.89134 0.0
C433 C 0.81427 0.18275 0.88877 0.0
C434 C 0.81793 0.18011 0.87656 0.0
C435 C 0.79212 0.18361 0.90426 0.0
C436 C 0.77462 0.16982 0.90895 0.0
C437 C 0.77109 0.17322 0.92114 0.0
C438 C 0.78524 0.19061 0.92866 0.0
C439 C 0.80257 0.20495 0.92398 0.0
C440 C 0.80595 0.20114 0.91178 0.0
C441 C 0.81643 0.2244 0.93149 0.0
C442 C 0.80905 0.23388 0.93922 0.0
C443 C 0.83702 0.23414 0.93056 0.0
C444 C 0.84976 0.25312 0.93684 0.0
C445 C 0.84229 0.26276 0.94437 0.0
C446 C 0.75215 0.15917 0.92586 0.0
C447 C 0.73395 0.15294 0.91881 0.0
C448 C 0.7521 0.15262 0.93763 0.0
C449 C 0.73415 0.1403 0.94235 0.0
C450 C 0.71586 0.1345 0.93546 0.0
C451 C 0.716 0.14083 0.92358 0.0
C452 C 0.82181 0.25269 0.94566 0.0
H453 H 0.77298 0.16856 0.86183 0.0
H454 H 0.76648 0.17266 0.88321 0.0
H455 H 0.82592 0.18678 0.89624 0.0
H456 H 0.83231 0.18204 0.87492 0.0
H457 H 0.76381 0.15632 0.90315 0.0
H458 H 0.81893 0.21221 0.90788 0.0
H459 H 0.78242 0.19319 0.93806 0.0
H460 H 0.79328 0.22707 0.94007 0.0
H461 H 0.84333 0.2272 0.92486 0.0
H462 H 0.86539 0.26042 0.93551 0.0
H463 H 0.73359 0.15799 0.90977 0.0
H464 H 0.76595 0.15705 0.94318 0.0
H465 H 0.81552 0.25939 0.95156 0.0
H466 H 0.70226 0.13697 0.91809 0.0
H467 H 0.73463 0.13539 0.95142 0.0
C468 C 0.61891 0.82889 0.12696 0.0
C469 C 0.63425 0.82549 0.13124 0.0
C470 C 0.61305 0.82663 0.11427 0.0
C471 C 0.6223 0.82078 0.10556 0.0
C472 C 0.63777 0.81758 0.10979 0.0
C473 C 0.64374 0.81999 0.12249 0.0
C474 C 0.61541 0.81747 0.09213 0.0
C475 C 0.61139 0.83112 0.08661 0.0
C476 C 0.60414 0.82766 0.07402 0.0
C477 C 0.60106 0.81044 0.06688 0.0
C478 C 0.60434 0.79622 0.07233 0.0
C479 C 0.61179 0.80004 0.08495 0.0
C480 C 0.5984 0.77668 0.06519 0.0
C481 C 0.58113 0.76714 0.05669 0.0
C482 C 0.60921 0.76686 0.06726 0.0
C483 C 0.60252 0.74773 0.06135 0.0
C484 C 0.585 0.73803 0.05308 0.0
C485 C 0.59816 0.8411 0.06854 0.0
C486 C 0.58539 0.84597 0.07448 0.0
C487 C 0.60415 0.84815 0.05705 0.0
C488 C 0.59725 0.85968 0.05153 0.0
C489 C 0.58399 0.86401 0.05731 0.0
C490 C 0.57826 0.8572 0.06888 0.0
C491 C 0.57464 0.74819 0.05064 0.0
H492 H 0.61103 0.83279 0.13343 0.0
H493 H 0.60088 0.82891 0.11128 0.0
H494 H 0.6453 0.81328 0.10326 0.0
H495 H 0.65582 0.81757 0.12544 0.0
H496 H 0.61389 0.84449 0.09211 0.0
H497 H 0.61381 0.78899 0.08942 0.0
H498 H 0.59536 0.8078 0.05717 0.0
H499 H 0.57219 0.774 0.05495 0.0
H500 H 0.62273 0.77384 0.07359 0.0
H501 H 0.61084 0.74036 0.06354 0.0
H502 H 0.58042 0.84055 0.08329 0.0
H503 H 0.61401 0.8446 0.05231 0.0
H504 H 0.56132 0.74142 0.04414 0.0
H505 H 0.56815 0.86047 0.07355 0.0
H506 H 0.6018 0.86469 0.04258 0.0
C507 C 0.20404 0.83581 0.12765 0.0
C508 C 0.19621 0.81963 0.13483 0.0
C509 C 0.20599 0.83283 0.11506 0.0
C510 C 0.20006 0.81359 0.10942 0.0
C511 C 0.19196 0.79742 0.1166 0.0
C512 C 0.18999 0.80039 0.12911 0.0
C513 C 0.20301 0.81022 0.09627 0.0
C514 C 0.22079 0.82334 0.09152 0.0
C515 C 0.22465 0.81878 0.07965 0.0
C516 C 0.21056 0.80096 0.07247 0.0
C517 C 0.19248 0.78785 0.07694 0.0
C518 C 0.18872 0.79288 0.08875 0.0
C519 C 0.17801 0.76842 0.06964 0.0
C520 C 0.17496 0.76675 0.05658 0.0
C521 C 0.16743 0.7512 0.07571 0.0
C522 C 0.15411 0.73286 0.06895 0.0
C523 C 0.15128 0.7312 0.05594 0.0
C524 C 0.24391 0.83211 0.07504 0.0
C525 C 0.25094 0.85268 0.07522 0.0
C526 C 0.25548 0.82435 0.07054 0.0
C527 C 0.27382 0.83695 0.06637 0.0
C528 C 0.28078 0.85749 0.06645 0.0
C529 C 0.26915 0.86524 0.07086 0.0
C530 C 0.16184 0.74827 0.0498 0.0
H531 H 0.20903 0.85083 0.1318 0.0
H532 H 0.21217 0.84556 0.10975 0.0
H533 H 0.18752 0.78245 0.11264 0.0
H534 H 0.18358 0.78754 0.13432 0.0
H535 H 0.23211 0.83659 0.09729 0.0
H536 H 0.17469 0.78312 0.09222 0.0
H537 H 0.21391 0.7972 0.06349 0.0
H538 H 0.18261 0.77971 0.05159 0.0
H539 H 0.16972 0.75172 0.0857 0.0
H540 H 0.14637 0.71983 0.07388 0.0
H541 H 0.24223 0.85898 0.07863 0.0
H542 H 0.25044 0.80856 0.0704 0.0
H543 H 0.15979 0.74736 0.03976 0.0
H544 H 0.27426 0.88105 0.07106 0.0
H545 H 0.28247 0.83061 0.06293 0.0
C546 C 0.21967 0.39429 0.13697 0.0
C547 C 0.20019 0.38183 0.13983 0.0
C548 C 0.22312 0.40071 0.12516 0.0
C549 C 0.20715 0.39463 0.11592 0.0
C550 C 0.18771 0.38157 0.1187 0.0
C551 C 0.18427 0.37533 0.13054 0.0
C552 C 0.21063 0.40254 0.10364 0.0
C553 C 0.22723 0.4053 0.09774 0.0
C554 C 0.23108 0.41369 0.08642 0.0
C555 C 0.21767 0.41874 0.0808 0.0
C556 C 0.20086 0.41591 0.08648 0.0
C557 C 0.19763 0.40801 0.09796 0.0
C558 C 0.18685 0.42155 0.08061 0.0
C559 C 0.1939 0.43874 0.0743 0.0
C560 C 0.16627 0.40986 0.08139 0.0
C561 C 0.15313 0.41535 0.07615 0.0
C562 C 0.16022 0.43247 0.06985 0.0
C563 C 0.24948 0.41792 0.0807 0.0
C564 C 0.26759 0.42533 0.08819 0.0
C565 C 0.24928 0.41532 0.06774 0.0
C566 C 0.26683 0.42049 0.06238 0.0
C567 C 0.28501 0.4282 0.06987 0.0
C568 C 0.2851 0.4303 0.08284 0.0
C569 C 0.1807 0.44405 0.0689 0.0
H570 H 0.2322 0.39967 0.14401 0.0
H571 H 0.23824 0.41096 0.1234 0.0
H572 H 0.17511 0.37627 0.11174 0.0
H573 H 0.16912 0.36548 0.13245 0.0
H574 H 0.23712 0.40077 0.10195 0.0
H575 H 0.18528 0.40671 0.10271 0.0
H576 H 0.22046 0.42511 0.07204 0.0
H577 H 0.20965 0.44832 0.0737 0.0
H578 H 0.16025 0.39633 0.08596 0.0
H579 H 0.13736 0.40604 0.07687 0.0
H580 H 0.26838 0.42775 0.0982 0.0
H581 H 0.23556 0.40938 0.06169 0.0
H582 H 0.18653 0.45743 0.06418 0.0
H583 H 0.29874 0.43587 0.08892 0.0
H584 H 0.26619 0.41884 0.05235 0.0
C585 C 0.47469 0.9443 0.19933 0.0
C586 C 0.46899 0.9584 0.19694 0.0
C587 C 0.47054 0.9351 0.21026 0.0
C588 C 0.46081 0.93998 0.21917 0.0
C589 C 0.45524 0.95425 0.21679 0.0
C590 C 0.45916 0.96326 0.20574 0.0
C591 C 0.45623 0.92987 0.23073 0.0
C592 C 0.46959 0.92495 0.23657 0.0
C593 C 0.4649 0.91421 0.24699 0.0
C594 C 0.44676 0.90881 0.25178 0.0
C595 C 0.43347 0.91406 0.24629 0.0
C596 C 0.43825 0.9245 0.23576 0.0
C597 C 0.4145 0.90847 0.25153 0.0
C598 C 0.40226 0.88892 0.25449 0.0
C599 C 0.40869 0.92274 0.25378 0.0
C600 C 0.3911 0.91765 0.25908 0.0
C601 C 0.37889 0.89811 0.26208 0.0
C602 C 0.47882 0.9084 0.25274 0.0
C603 C 0.48899 0.90181 0.24526 0.0
C604 C 0.48193 0.90922 0.26571 0.0
C605 C 0.49481 0.9035 0.27108 0.0
C606 C 0.50499 0.89691 0.2636 0.0
C607 C 0.50196 0.89619 0.25063 0.0
C608 C 0.38456 0.88376 0.25965 0.0
H609 H 0.482 0.94005 0.1926 0.0
H610 H 0.47463 0.92386 0.21159 0.0
H611 H 0.44799 0.9586 0.2235 0.0
H612 H 0.45472 0.97419 0.20413 0.0
H613 H 0.48382 0.92968 0.23307 0.0
H614 H 0.42761 0.92784 0.23127 0.0
H615 H 0.4429 0.90044 0.25978 0.0
H616 H 0.40635 0.8776 0.25276 0.0
H617 H 0.41792 0.93795 0.25164 0.0
H618 H 0.38699 0.92896 0.26078 0.0
H619 H 0.48676 0.90075 0.23523 0.0
H620 H 0.47452 0.91444 0.27176 0.0
H621 H 0.37548 0.86863 0.26195 0.0
H622 H 0.50973 0.89144 0.24459 0.0
H623 H 0.4966 0.90402 0.2811 0.0
C624 C 0.0295 0.49631 0.21225 0.0
C625 C 0.03785 0.51281 0.20534 0.0
C626 C 0.03341 0.49899 0.2252 0.0
C627 C 0.0457 0.51822 0.23149 0.0
C628 C 0.0537 0.53471 0.22457 0.0
C629 C 0.04978 0.53204 0.21167 0.0
C630 C 0.05108 0.52119 0.24515 0.0
C631 C 0.05621 0.50844 0.25089 0.0
C632 C 0.06331 0.51231 0.26356 0.0
C633 C 0.06541 0.52935 0.27047 0.0
C634 C 0.06049 0.54241 0.26488 0.0
C635 C 0.05278 0.53781 0.2523 0.0
C636 C 0.06494 0.56164 0.27183 0.0
C637 C 0.06331 0.56313 0.28467 0.0
C638 C 0.07189 0.57902 0.26571 0.0
C639 C 0.07716 0.59733 0.27223 0.0
C640 C 0.076 0.59884 0.28506 0.0
C641 C 0.06972 0.49926 0.26933 0.0
C642 C 0.05905 0.47845 0.2661 0.0
C643 C 0.08694 0.50757 0.27781 0.0
C644 C 0.0934 0.49542 0.28286 0.0
C645 C 0.08299 0.47466 0.27943 0.0
C646 C 0.06565 0.46631 0.27104 0.0
C647 C 0.06899 0.5816 0.29124 0.0
H648 H 0.02031 0.48129 0.20763 0.0
H649 H 0.02691 0.486 0.23028 0.0
H650 H 0.06346 0.5497 0.22908 0.0
H651 H 0.05618 0.5451 0.20665 0.0
H652 H 0.05567 0.49605 0.24532 0.0
H653 H 0.04837 0.54739 0.24795 0.0
H654 H 0.07141 0.53273 0.28014 0.0
H655 H 0.05774 0.55006 0.28968 0.0
H656 H 0.07389 0.5787 0.25593 0.0
H657 H 0.0828 0.6105 0.2673 0.0
H658 H 0.0456 0.4715 0.2597 0.0
H659 H 0.09572 0.52355 0.28039 0.0
H660 H 0.06788 0.58242 0.30114 0.0
H661 H 0.05735 0.45042 0.26807 0.0
H662 H 0.10662 0.50236 0.28945 0.0
C663 C 0.4514 0.50783 0.20325 0.0
C664 C 0.47029 0.51152 0.20053 0.0
C665 C 0.44766 0.50996 0.21552 0.0
C666 C 0.46276 0.51601 0.22532 0.0
C667 C 0.48155 0.51951 0.22266 0.0
C668 C 0.48525 0.51719 0.21041 0.0
C669 C 0.45905 0.5191 0.23828 0.0
C670 C 0.44179 0.50482 0.24296 0.0
C671 C 0.43817 0.50781 0.2552 0.0
C672 C 0.45198 0.5253 0.26277 0.0
C673 C 0.46905 0.54009 0.25812 0.0
C674 C 0.47254 0.53671 0.24588 0.0
C675 C 0.48254 0.55953 0.26575 0.0
C676 C 0.47476 0.56845 0.2736 0.0
C677 C 0.50315 0.56973 0.26489 0.0
C678 C 0.51554 0.58859 0.27141 0.0
C679 C 0.50769 0.59763 0.27911 0.0
C680 C 0.41945 0.49324 0.25992 0.0
C681 C 0.4011 0.48649 0.25291 0.0
C682 C 0.41973 0.48679 0.27169 0.0
C683 C 0.40196 0.47413 0.27647 0.0
C684 C 0.38351 0.46785 0.26964 0.0
C685 C 0.38332 0.47401 0.25774 0.0
C686 C 0.48718 0.58714 0.28027 0.0
H687 H 0.43962 0.50377 0.19588 0.0
H688 H 0.43309 0.50738 0.21731 0.0
H689 H 0.49337 0.52395 0.23007 0.0
H690 H 0.49984 0.51977 0.20869 0.0
H691 H 0.43125 0.49124 0.23713 0.0
H692 H 0.48533 0.54813 0.24201 0.0
H693 H 0.4491 0.52757 0.2722 0.0
H694 H 0.45896 0.56126 0.2744 0.0
H695 H 0.50975 0.56322 0.25909 0.0
H696 H 0.53122 0.59624 0.27017 0.0
H697 H 0.40048 0.49145 0.24386 0.0
H698 H 0.43371 0.49161 0.27721 0.0
H699 H 0.48061 0.5934 0.28628 0.0
H700 H 0.36943 0.46976 0.25228 0.0
H701 H 0.40269 0.46935 0.28555 0.0
C702 C 0.52771 0.01296 0.03651 0.0
Eu703 Eu 0.51046 0.00887 0.01437 0.0
C704 C 0.52208 0.01105 0.04924 0.0
C705 C 0.50759 0.01542 0.05293 0.0
C706 C 0.50257 0.01365 0.06512 0.0
C707 C 0.51182 0.00729 0.0738 0.0
C708 C 0.52611 0.00264 0.06996 0.0
C709 C 0.53121 0.00457 0.0578 0.0
C710 C 0.49535 0.03097 0.00567 0.0
C711 C 0.46255 0.97712 0.01289 0.0
C712 C 0.46811 0.98761 0.96688 0.0
Eu713 Eu 0.48539 0.99221 0.9891 0.0
C714 C 0.47368 0.99096 0.95416 0.0
C715 C 0.48547 0.984 0.94895 0.0
C716 C 0.49048 0.98746 0.93683 0.0
C717 C 0.48392 0.99805 0.92974 0.0
C718 C 0.47233 0.00518 0.93509 0.0
C719 C 0.46722 0.0016 0.94714 0.0
C720 C 0.50032 0.97022 0.99821 0.0
C721 C 0.53324 0.0242 0.99055 0.0
O722 O 0.51966 0.99633 0.02906 0.0
O723 O 0.52818 0.02782 0.03117 0.0
O724 O 0.51246 0.03871 0.01225 0.0
O725 O 0.48656 0.01222 0.00484 0.0
O726 O 0.48027 0.98486 0.01929 0.0
O727 O 0.46052 0.98042 0.00124 0.0
O728 O 0.47454 0.0037 0.97464 0.0
O729 O 0.46923 0.97326 0.97192 0.0
O730 O 0.48281 0.96232 0.9921 0.0
O731 O 0.50927 0.98893 0.99861 0.0
O732 O 0.51553 0.01605 0.98407 0.0
O733 O 0.53531 0.02118 0.00225 0.0
H734 H 0.50024 0.0203 0.04641 0.0
H735 H 0.49164 0.01751 0.06778 0.0
H736 H 0.53322 0.99729 0.0763 0.0
H737 H 0.54227 0.00093 0.05507 0.0
H738 H 0.49077 0.97585 0.95421 0.0
H739 H 0.49927 0.9816 0.93296 0.0
H740 H 0.46737 0.01375 0.93001 0.0
H741 H 0.45826 0.00724 0.95103 0.0
C742 C 0.99327 0.51651 0.03536 0.0
Eu743 Eu 0.9929 0.50194 0.01301 0.0
C744 C 0.99751 0.51383 0.04826 0.0
C745 C 0.99137 0.49478 0.05199 0.0
C746 C 0.99523 0.49267 0.0644 0.0
C747 C 0.00548 0.50958 0.0732 0.0
C748 C 0.01185 0.52862 0.06936 0.0
C749 C 0.00785 0.5307 0.057 0.0
C750 C 0.96877 0.46402 0.00248 0.0
C751 C 0.02448 0.48583 0.01232 0.0
C752 C 0.00298 0.47644 0.96583 0.0
Eu753 Eu 0.00371 0.49166 0.98805 0.0
C754 C 0.00086 0.4802 0.95288 0.0
C755 C 0.00905 0.49973 0.94954 0.0
C756 C 0.00784 0.50294 0.93706 0.0
C757 C 0.99831 0.48668 0.92773 0.0
C758 C 0.98961 0.46715 0.93122 0.0
C759 C 0.99095 0.46397 0.94367 0.0
C760 C 0.02775 0.52984 0.9983 0.0
C761 C 0.97247 0.50835 0.9888 0.0
O762 O 0.00851 0.52451 0.02889 0.0
O763 O 0.9773 0.50178 0.02897 0.0
O764 O 0.96247 0.4741 0.00881 0.0
O765 O 0.98738 0.47379 0.0027 0.0
O766 O 0.01784 0.49592 0.0188 0.0
O767 O 0.01857 0.47974 0.0004 0.0
O768 O 0.98716 0.47017 0.97179 0.0
O769 O 0.01936 0.48964 0.97265 0.0
O770 O 0.03391 0.52006 0.99152 0.0
O771 O 0.00921 0.51977 0.99834 0.0
O772 O 0.97917 0.49837 0.98224 0.0
O773 O 0.97808 0.51402 0.00079 0.0
H774 H 0.98355 0.48155 0.04536 0.0
H775 H 0.99033 0.47785 0.06709 0.0
H776 H 0.01959 0.54189 0.07596 0.0
H777 H 0.01271 0.5455 0.05428 0.0
H778 H 0.01667 0.51249 0.95653 0.0
H779 H 0.01484 0.51817 0.93471 0.0
H780 H 0.98179 0.45428 0.92431 0.0
H781 H 0.98441 0.44879 0.94611 0.0
C782 C 0.47295 0.4819 0.96569 0.0
Eu783 Eu 0.48929 0.49722 0.98825 0.0
C784 C 0.47925 0.48432 0.95312 0.0
C785 C 0.49295 0.50315 0.94972 0.0
C786 C 0.49894 0.50499 0.93776 0.0
C787 C 0.49156 0.488 0.92909 0.0
C788 C 0.47795 0.46919 0.93256 0.0
C789 C 0.47181 0.46739 0.94447 0.0
C790 C 0.50419 0.53548 0.99795 0.0
C791 C 0.53715 0.51329 0.99016 0.0
C792 C 0.52999 0.52458 0.03615 0.0
Eu793 Eu 0.51346 0.50866 0.01371 0.0
C794 C 0.5242 0.52188 0.04882 0.0
C795 C 0.51066 0.50295 0.05212 0.0
C796 C 0.50564 0.50066 0.0643 0.0
C797 C 0.51392 0.51729 0.07336 0.0
C798 C 0.52717 0.53628 0.0699 0.0
C799 C 0.53229 0.53852 0.05775 0.0
C800 C 0.49818 0.47013 0.00424 0.0
C801 C 0.46549 0.49204 0.01177 0.0
O802 O 0.48055 0.47396 0.97291 0.0
O803 O 0.47231 0.49688 0.97147 0.0
O804 O 0.48697 0.52512 0.99146 0.0
O805 O 0.51306 0.52571 0.99836 0.0
O806 O 0.51964 0.50303 0.98343 0.0
O807 O 0.53883 0.51975 0.00197 0.0
O808 O 0.52145 0.53179 0.02904 0.0
O809 O 0.53132 0.51006 0.03032 0.0
O810 O 0.51504 0.48018 0.01115 0.0
O811 O 0.4897 0.48023 0.0036 0.0
O812 O 0.48302 0.50294 0.01842 0.0
O813 O 0.46394 0.48527 3e-05 0.0
H814 H 0.49908 0.5164 0.95633 0.0
H815 H 0.5096 0.51962 0.93535 0.0
H816 H 0.47188 0.45587 0.92603 0.0
H817 H 0.4613 0.45274 0.94695 0.0
H818 H 0.5041 0.48991 0.04532 0.0
H819 H 0.49554 0.4858 0.06665 0.0
H820 H 0.53352 0.54948 0.07656 0.0
H821 H 0.54261 0.55328 0.05533 0.0
C822 C 0.1924 0.35098 0.37088 0.0
Eu823 Eu 0.17674 0.34281 0.34789 0.0
C824 C 0.18527 0.34732 0.38328 0.0
C825 C 0.17514 0.35642 0.38832 0.0
C826 C 0.16838 0.35251 0.40003 0.0
C827 C 0.17149 0.33934 0.40687 0.0
C828 C 0.18169 0.33035 0.40184 0.0
C829 C 0.18859 0.33438 0.3902 0.0
C830 C 0.1618 0.36229 0.33556 0.0
C831 C 0.12932 0.30848 0.34586 0.0
C832 C 0.13821 0.31331 0.29956 0.0
Eu833 Eu 0.15385 0.3219 0.32256 0.0
C834 C 0.14481 0.31988 0.28738 0.0
C835 C 0.14487 0.30626 0.27825 0.0
C836 C 0.15099 0.31209 0.26664 0.0
C837 C 0.15696 0.33161 0.2639 0.0
C838 C 0.1569 0.34526 0.27302 0.0
C839 C 0.15095 0.33948 0.28468 0.0
C840 C 0.16922 0.30265 0.33487 0.0
C841 C 0.20088 0.35634 0.32456 0.0
O842 O 0.18922 0.33523 0.36372 0.0
O843 O 0.18941 0.36347 0.36481 0.0
O844 O 0.17884 0.37134 0.34233 0.0
O845 O 0.15307 0.34372 0.33617 0.0
O846 O 0.14651 0.31916 0.3529 0.0
O847 O 0.12789 0.30857 0.33369 0.0
O848 O 0.13703 0.32606 0.30748 0.0
O849 O 0.14562 0.30341 0.30484 0.0
O850 O 0.15211 0.29349 0.32817 0.0
O851 O 0.17769 0.32119 0.33423 0.0
O852 O 0.18342 0.34698 0.31774 0.0
O853 O 0.20256 0.35474 0.33656 0.0
H854 H 0.17234 0.36648 0.38323 0.0
H855 H 0.16046 0.35955 0.40367 0.0
H856 H 0.18455 0.32036 0.40698 0.0
H857 H 0.19649 0.3273 0.38657 0.0
H858 H 0.1401 0.29105 0.28009 0.0
H859 H 0.15069 0.30122 0.25972 0.0
H860 H 0.16159 0.36045 0.27117 0.0
H861 H 0.15115 0.35037 0.29154 0.0
C862 C 0.66121 0.85365 0.36891 0.0
Eu863 Eu 0.65954 0.83694 0.34696 0.0
C864 C 0.6649 0.85096 0.38189 0.0
C865 C 0.65852 0.83188 0.38563 0.0
C866 C 0.66208 0.82969 0.39806 0.0
C867 C 0.67228 0.84657 0.40689 0.0
C868 C 0.67884 0.86564 0.40306 0.0
C869 C 0.67513 0.8678 0.39066 0.0
C870 C 0.63452 0.7982 0.33814 0.0
C871 C 0.69007 0.81963 0.34691 0.0
C872 C 0.66674 0.80625 0.30054 0.0
Eu873 Eu 0.66848 0.82342 0.32235 0.0
C874 C 0.66474 0.80957 0.2875 0.0
C875 C 0.6717 0.82889 0.28404 0.0
C876 C 0.6703 0.8318 0.27152 0.0
C877 C 0.66177 0.81543 0.26226 0.0
C878 C 0.65443 0.79607 0.26585 0.0
C879 C 0.65596 0.79319 0.27835 0.0
C880 C 0.69326 0.86241 0.33095 0.0
C881 C 0.63786 0.84078 0.32249 0.0
O882 O 0.67644 0.86001 0.36243 0.0
O883 O 0.64466 0.83956 0.36268 0.0
O884 O 0.6288 0.80918 0.34405 0.0
O885 O 0.65303 0.80763 0.33789 0.0
O886 O 0.68501 0.83166 0.35276 0.0
O887 O 0.68256 0.81153 0.3354 0.0
O888 O 0.65113 0.8012 0.30655 0.0
O889 O 0.68342 0.81926 0.30717 0.0
O890 O 0.69898 0.85172 0.3247 0.0
O891 O 0.67483 0.85263 0.33138 0.0
O892 O 0.64308 0.82891 0.31655 0.0
O893 O 0.64527 0.84874 0.33404 0.0
H894 H 0.65079 0.81868 0.37896 0.0
H895 H 0.65705 0.81484 0.40075 0.0
H896 H 0.68656 0.87889 0.40969 0.0
H897 H 0.6802 0.88263 0.38793 0.0
H898 H 0.67844 0.84173 0.291 0.0
H899 H 0.67626 0.84691 0.26909 0.0
H900 H 0.64742 0.78309 0.25899 0.0
H901 H 0.65036 0.77817 0.28088 0.0
C902 C 0.13766 0.81284 0.29904 0.0
Eu903 Eu 0.15474 0.82896 0.32136 0.0
C904 C 0.14351 0.81545 0.28636 0.0
C905 C 0.15621 0.83449 0.28282 0.0
C906 C 0.16185 0.83657 0.27077 0.0
C907 C 0.15511 0.81964 0.26215 0.0
C908 C 0.14248 0.80061 0.26576 0.0
C909 C 0.13669 0.79856 0.27776 0.0
C910 C 0.16977 0.86766 0.33023 0.0
C911 C 0.2025 0.84529 0.32261 0.0
C912 C 0.19706 0.85871 0.36867 0.0
Eu913 Eu 0.1799 0.84192 0.34646 0.0
C914 C 0.19152 0.85588 0.38139 0.0
C915 C 0.17731 0.83706 0.38447 0.0
C916 C 0.17225 0.83461 0.39663 0.0
C917 C 0.18116 0.85099 0.40589 0.0
C918 C 0.19517 0.86988 0.40266 0.0
C919 C 0.20032 0.87227 0.39052 0.0
C920 C 0.16442 0.80295 0.33783 0.0
C921 C 0.13196 0.8252 0.34513 0.0
O922 O 0.1461 0.80553 0.30613 0.0
O923 O 0.13651 0.82746 0.30488 0.0
O924 O 0.15233 0.85691 0.32407 0.0
O925 O 0.17874 0.85801 0.33075 0.0
O926 O 0.18471 0.83384 0.31638 0.0
O927 O 0.20461 0.85312 0.33415 0.0
O928 O 0.1878 0.86526 0.36163 0.0
O929 O 0.19884 0.84447 0.36284 0.0
O930 O 0.18159 0.81343 0.34435 0.0
O931 O 0.15584 0.81294 0.3371 0.0
O932 O 0.14972 0.8367 0.35142 0.0
O933 O 0.13 0.81745 0.33359 0.0
H934 H 0.16186 0.84774 0.28937 0.0
H935 H 0.17176 0.85138 0.26826 0.0
H936 H 0.13692 0.78732 0.25927 0.0
H937 H 0.12695 0.78375 0.28035 0.0
H938 H 0.17022 0.82423 0.37749 0.0
H939 H 0.16157 0.81982 0.3988 0.0
H940 H 0.20203 0.8829 0.40948 0.0
H941 H 0.21115 0.88695 0.38826 0.0
C942 C 0.85874 0.68303 0.70335 0.0
Eu943 Eu 0.84272 0.67601 0.68053 0.0
C944 C 0.85162 0.679 0.7157 0.0
C945 C 0.83852 0.68497 0.72001 0.0
C946 C 0.8316 0.68045 0.73163 0.0
C947 C 0.83745 0.66969 0.73905 0.0
C948 C 0.85055 0.66376 0.73472 0.0
C949 C 0.85763 0.66846 0.72317 0.0
C950 C 0.82711 0.6958 0.66926 0.0
C951 C 0.79537 0.64162 0.6786 0.0
C952 C 0.80305 0.64857 0.63235 0.0
Eu953 Eu 0.81928 0.65615 0.65516 0.0
C954 C 0.80973 0.65351 0.61996 0.0
C955 C 0.80653 0.63814 0.61094 0.0
C956 C 0.81266 0.64242 0.59913 0.0
C957 C 0.82195 0.66218 0.59605 0.0
C958 C 0.82514 0.67758 0.60511 0.0
C959 C 0.81915 0.67331 0.61695 0.0
C960 C 0.83544 0.63668 0.66638 0.0
C961 C 0.86646 0.69052 0.65704 0.0
O962 O 0.85499 0.66734 0.6959 0.0
O963 O 0.85613 0.69606 0.69765 0.0
O964 O 0.84428 0.70471 0.67588 0.0
O965 O 0.81858 0.67715 0.66948 0.0
O966 O 0.81273 0.6518 0.68551 0.0
O967 O 0.79362 0.64266 0.66654 0.0
O968 O 0.8048 0.66313 0.64012 0.0
O969 O 0.80783 0.6367 0.63771 0.0
O970 O 0.81823 0.62758 0.65979 0.0
O971 O 0.84359 0.65527 0.66615 0.0
O972 O 0.84895 0.68103 0.65026 0.0
O973 O 0.86831 0.68874 0.669 0.0
H974 H 0.83349 0.69297 0.71439 0.0
H975 H 0.82139 0.68504 0.73473 0.0
H976 H 0.85546 0.65563 0.74031 0.0
H977 H 0.86771 0.66371 0.72003 0.0
H978 H 0.7993 0.62276 0.61304 0.0
H979 H 0.81024 0.63023 0.59246 0.0
H980 H 0.83197 0.69293 0.603 0.0
H981 H 0.82182 0.68552 0.62369 0.0
C982 C 0.32516 0.18212 0.70248 0.0
Eu983 Eu 0.32479 0.16738 0.68017 0.0
C984 C 0.32902 0.17911 0.71538 0.0
C985 C 0.32163 0.15987 0.71912 0.0
C986 C 0.32517 0.15746 0.73151 0.0
C987 C 0.33635 0.17423 0.74031 0.0
C988 C 0.34394 0.19344 0.73647 0.0
C989 C 0.34025 0.19584 0.72412 0.0
C990 C 0.30071 0.12913 0.67009 0.0
C991 C 0.35609 0.15104 0.67967 0.0
C992 C 0.33488 0.14112 0.63325 0.0
Eu993 Eu 0.33532 0.1565 0.65536 0.0
C994 C 0.33337 0.14501 0.62026 0.0
C995 C 0.34218 0.16458 0.61692 0.0
C996 C 0.34142 0.16787 0.60443 0.0
C997 C 0.33171 0.15165 0.59508 0.0
C998 C 0.32244 0.13209 0.59856 0.0
C999 C 0.32333 0.12883 0.61103 0.0
C1000 C 0.35925 0.195 0.66521 0.0
C1001 C 0.3037 0.17264 0.65586 0.0
O1002 O 0.34053 0.18985 0.6961 0.0
O1003 O 0.3091 0.16771 0.69599 0.0
O1004 O 0.2944 0.1393 0.6763 0.0
O1005 O 0.31928 0.13899 0.67021 0.0
O1006 O 0.35044 0.16227 0.68588 0.0
O1007 O 0.3492 0.14392 0.66796 0.0
O1008 O 0.31888 0.13528 0.63897 0.0
O1009 O 0.35122 0.15398 0.64024 0.0
O1010 O 0.36549 0.18505 0.65868 0.0
O1011 O 0.34074 0.18486 0.66528 0.0
O1012 O 0.31025 0.16234 0.64949 0.0
O1013 O 0.30974 0.17906 0.66775 0.0
H1014 H 0.31307 0.14672 0.7125 0.0
H1015 H 0.31931 0.14249 0.73419 0.0
H1016 H 0.35243 0.20664 0.74307 0.0
H1017 H 0.34609 0.21079 0.72141 0.0
H1018 H 0.34992 0.17731 0.62394 0.0
H1019 H 0.34884 0.1831 0.60209 0.0
H1020 H 0.31448 0.11927 0.59164 0.0
H1021 H 0.31632 0.11364 0.61346 0.0
C1022 C 0.80466 0.14857 0.63271 0.0
Eu1023 Eu 0.82154 0.16387 0.65517 0.0
C1024 C 0.8109 0.15053 0.62011 0.0
C1025 C 0.82456 0.1692 0.61648 0.0
C1026 C 0.83043 0.17065 0.60449 0.0
C1027 C 0.82296 0.15343 0.59601 0.0
C1028 C 0.80943 0.13477 0.59972 0.0
C1029 C 0.80342 0.13336 0.61165 0.0
C1030 C 0.83641 0.2021 0.66493 0.0
C1031 C 0.86936 0.18041 0.65637 0.0
C1032 C 0.86374 0.19138 0.70262 0.0
Eu1033 Eu 0.84657 0.17549 0.68029 0.0
C1034 C 0.85828 0.18805 0.71532 0.0
C1035 C 0.84404 0.16908 0.71817 0.0
C1036 C 0.83905 0.16617 0.73033 0.0
C1037 C 0.84807 0.18224 0.7398 0.0
C1038 C 0.86211 0.20129 0.73679 0.0
C1039 C 0.86719 0.20412 0.72467 0.0
C1040 C 0.83114 0.13693 0.67083 0.0
C1041 C 0.79859 0.15897 0.67909 0.0
O1042 O 0.8116 0.14012 0.63997 0.0
O1043 O 0.80484 0.16404 0.63842 0.0
O1044 O 0.81904 0.19164 0.65863 0.0
O1045 O 0.84543 0.19247 0.6651 0.0
O1046 O 0.85162 0.16921 0.65003 0.0
O1047 O 0.87133 0.18752 0.66807 0.0
O1048 O 0.85441 0.19819 0.69586 0.0
O1049 O 0.86552 0.17737 0.69647 0.0
O1050 O 0.8483 0.14713 0.67741 0.0
O1051 O 0.82255 0.14696 0.67044 0.0
O1052 O 0.81628 0.16921 0.68563 0.0
O1053 O 0.79653 0.15266 0.6672 0.0
H1054 H 0.83074 0.18264 0.62292 0.0
H1055 H 0.84104 0.18518 0.60191 0.0
H1056 H 0.80331 0.12129 0.59333 0.0
H1057 H 0.79294 0.11883 0.6143 0.0
H1058 H 0.83686 0.1565 0.71103 0.0
H1059 H 0.82833 0.15129 0.73232 0.0
H1060 H 0.86904 0.21408 0.74378 0.0
H1061 H 0.87804 0.21891 0.72257 0.0
C1062 C 0.31715 0.87013 0.06601 0.0
C1063 C 0.30009 0.87074 0.06185 0.0
C1064 C 0.33532 0.8824 0.06152 0.0
C1065 C 0.36125 0.92719 0.0444 0.0
H1066 H 0.39633 0.90621 0.0386 0.0
C1067 C 0.42602 0.96221 0.01401 0.0
C1068 C 0.44451 0.9654 0.01912 0.0
C1069 C 0.40895 0.95132 0.01991 0.0
C1070 C 0.38674 0.91231 0.04029 0.0
H1071 H 0.28848 0.88443 0.04967 0.0
H1072 H 0.31997 0.90537 0.04146 0.0
H1073 H 0.3653 0.88583 0.04745 0.0
H1074 H 0.45959 0.95958 0.03435 0.0
H1075 H 0.42952 0.9401 0.04452 0.0
H1076 H 0.38248 0.95338 0.03675 0.0
C1077 C 0.31959 0.89591 0.04848 0.0
C1078 C 0.36899 0.90069 0.04541 0.0
C1079 C 0.3015 0.88385 0.05312 0.0
C1080 C 0.44555 0.95738 0.03021 0.0
C1081 C 0.42838 0.9462 0.036 0.0
C1082 C 0.37885 0.93867 0.03911 0.0
C1083 C 0.33676 0.89534 0.05261 0.0
C1084 C 0.35595 0.90794 0.04749 0.0
C1085 C 0.40995 0.94315 0.03092 0.0
C1086 C 0.39171 0.93129 0.03696 0.0
H1087 H 0.31647 0.86028 0.07285 0.0
H1088 H 0.34826 0.88181 0.06511 0.0
H1089 H 0.35184 0.93348 0.0461 0.0
H1090 H 0.42474 0.96826 0.00551 0.0
H1091 H 0.39488 0.94903 0.01575 0.0
C1092 C 0.14692 0.44261 0.05188 0.0
C1093 C 0.14625 0.43819 0.06425 0.0
C1094 C 0.13348 0.44764 0.04652 0.0
C1095 C 0.10226 0.46873 0.05373 0.0
H1096 H 0.07245 0.44084 0.02196 0.0
C1097 C 0.04031 0.48101 0.0316 0.0
C1098 C 0.03829 0.48054 0.01862 0.0
C1099 C 0.05319 0.47564 0.03744 0.0
C1100 C 0.08086 0.44902 0.03074 0.0
H1101 H 0.13137 0.43591 0.08081 0.0
H1102 H 0.10801 0.44506 0.07147 0.0
H1103 H 0.09592 0.43231 0.03155 0.0
H1104 H 0.04853 0.47461 0.00158 0.0
H1105 H 0.07144 0.466 0.01172 0.0
H1106 H 0.08775 0.4859 0.05281 0.0
C1107 C 0.11885 0.44448 0.06592 0.0
C1108 C 0.09422 0.44403 0.03625 0.0
C1109 C 0.13208 0.43914 0.07123 0.0
C1110 C 0.04958 0.47489 0.0116 0.0
C1111 C 0.06264 0.46981 0.01743 0.0
C1112 C 0.0891 0.47395 0.04814 0.0
C1113 C 0.11935 0.44864 0.0535 0.0
C1114 C 0.10506 0.45386 0.04777 0.0
C1115 C 0.06452 0.46995 0.03042 0.0
C1116 C 0.07826 0.4642 0.03655 0.0
H1117 H 0.15765 0.44188 0.0463 0.0
H1118 H 0.13423 0.4509 0.03694 0.0
H1119 H 0.11059 0.47662 0.06259 0.0
H1120 H 0.03171 0.48521 0.03725 0.0
H1121 H 0.05401 0.47566 0.04744 0.0
C1122 C 0.59 0.71042 0.0438 0.0
C1123 C 0.5771 0.71717 0.04734 0.0
C1124 C 0.58245 0.6907 0.03864 0.0
C1125 C 0.53641 0.64063 0.03525 0.0
H1126 H 0.56224 0.62889 0.00924 0.0
C1127 C 0.50064 0.56478 0.00473 0.0
C1128 C 0.51268 0.55616 0.00367 0.0
C1129 C 0.50872 0.58436 0.01028 0.0
C1130 C 0.55497 0.63198 0.01656 0.0
H1131 H 0.54605 0.70819 0.04832 0.0
H1132 H 0.53296 0.67438 0.03875 0.0
H1133 H 0.57592 0.66333 0.01836 0.0
H1134 H 0.5425 0.5611 0.00748 0.0
H1135 H 0.55671 0.59553 0.01695 0.0
H1136 H 0.51511 0.60926 0.0331 0.0
C1137 C 0.54894 0.68412 0.04022 0.0
C1138 C 0.56284 0.65168 0.02184 0.0
C1139 C 0.55648 0.70371 0.04552 0.0
C1140 C 0.53292 0.56744 0.00817 0.0
C1141 C 0.54105 0.58711 0.01354 0.0
C1142 C 0.52838 0.621 0.02984 0.0
C1143 C 0.5618 0.67729 0.03677 0.0
C1144 C 0.55365 0.65627 0.03125 0.0
C1145 C 0.52901 0.59572 0.01468 0.0
C1146 C 0.53759 0.61651 0.02044 0.0
H1147 H 0.60595 0.72039 0.04492 0.0
H1148 H 0.59284 0.68595 0.03625 0.0
H1149 H 0.52915 0.64347 0.04266 0.0
H1150 H 0.48498 0.55634 0.00136 0.0
H1151 H 0.49916 0.59072 0.011 0.0
C1152 C 0.87539 0.28988 0.95511 0.0
C1153 C 0.85562 0.28344 0.95054 0.0
C1154 C 0.88795 0.30947 0.96059 0.0
C1155 C 0.89268 0.35983 0.96329 0.0
H1156 H 0.93191 0.37066 0.99089 0.0
C1157 C 0.93536 0.435 0.99469 0.0
C1158 C 0.95609 0.44349 0.99643 0.0
C1159 C 0.92335 0.41555 0.98887 0.0
C1160 C 0.92108 0.36782 0.98314 0.0
H1161 H 0.83373 0.29282 0.94815 0.0
H1162 H 0.85514 0.32637 0.95831 0.0
H1163 H 0.91025 0.3364 0.98139 0.0
H1164 H 0.98061 0.43848 0.99354 0.0
H1165 H 0.9595 0.40424 0.98362 0.0
H1166 H 0.90318 0.39128 0.9654 0.0
C1167 C 0.86118 0.31651 0.95737 0.0
C1168 C 0.90873 0.34822 0.97763 0.0
C1169 C 0.84872 0.29705 0.95173 0.0
C1170 C 0.96464 0.43223 0.99232 0.0
C1171 C 0.9526 0.41267 0.9867 0.0
C1172 C 0.9048 0.37936 0.96893 0.0
C1173 C 0.88101 0.32305 0.9618 0.0
C1174 C 0.89434 0.34395 0.96763 0.0
C1175 C 0.93186 0.40419 0.98489 0.0
C1176 C 0.91911 0.38352 0.97889 0.0
H1177 H 0.88119 0.2798 0.95452 0.0
H1178 H 0.90319 0.31399 0.96374 0.0
H1179 H 0.88213 0.35726 0.95543 0.0
H1180 H 0.92845 0.44342 0.99775 0.0
H1181 H 0.90738 0.40928 0.98763 0.0
C1182 C 0.68378 0.56532 0.9334 0.0
C1183 C 0.70043 0.5674 0.94057 0.0
C1184 C 0.6659 0.55922 0.93855 0.0
C1185 C 0.63938 0.5345 0.96526 0.0
H1186 H 0.60558 0.55588 0.95556 0.0
C1187 C 0.57344 0.52489 0.99147 0.0
C1188 C 0.55541 0.51862 0.98418 0.0
C1189 C 0.59083 0.53025 0.98589 0.0
C1190 C 0.61482 0.54968 0.95826 0.0
H1191 H 0.71172 0.5653 0.9588 0.0
H1192 H 0.68077 0.55531 0.96798 0.0
H1193 H 0.63689 0.5671 0.94656 0.0
H1194 H 0.54144 0.5131 0.96532 0.0
H1195 H 0.57203 0.52284 0.95558 0.0
H1196 H 0.61747 0.51755 0.97724 0.0
C1197 C 0.68123 0.55775 0.95826 0.0
C1198 C 0.63273 0.55604 0.95309 0.0
C1199 C 0.69901 0.56359 0.95304 0.0
C1200 C 0.55511 0.51781 0.97118 0.0
C1201 C 0.57259 0.52348 0.96561 0.0
C1202 C 0.62161 0.52836 0.97054 0.0
C1203 C 0.66437 0.5553 0.95105 0.0
C1204 C 0.64526 0.54854 0.95653 0.0
C1205 C 0.5906 0.52972 0.97292 0.0
C1206 C 0.60919 0.5359 0.9671 0.0
H1207 H 0.68444 0.56795 0.9237 0.0
H1208 H 0.65318 0.55718 0.93265 0.0
H1209 H 0.64839 0.52805 0.96794 0.0
H1210 H 0.57414 0.5256 0.00151 0.0
H1211 H 0.60456 0.53515 0.99174 0.0
C1212 C 0.41695 0.11124 0.95067 0.0
C1213 C 0.42426 0.13145 0.95492 0.0
C1214 C 0.42398 0.10014 0.95659 0.0
C1215 C 0.46738 0.10521 0.97422 0.0
H1216 H 0.4315 0.0546 0.98601 0.0
C1217 C 0.49723 0.06338 0.00235 0.0
C1218 C 0.48676 0.04244 0.00048 0.0
C1219 C 0.48922 0.07423 0.9972 0.0
C1220 C 0.44175 0.06853 0.9826 0.0
H1221 H 0.44433 0.15551 0.96908 0.0
H1222 H 0.45715 0.13632 0.97899 0.0
H1223 H 0.41809 0.0732 0.97589 0.0
H1224 H 0.45952 0.01634 0.99205 0.0
H1225 H 0.44602 0.03515 0.98247 0.0
H1226 H 0.49102 0.10039 0.98041 0.0
C1227 C 0.44596 0.12918 0.97107 0.0
C1228 C 0.43402 0.07921 0.97687 0.0
C1229 C 0.43868 0.14018 0.96531 0.0
C1230 C 0.46804 0.03251 0.9935 0.0
C1231 C 0.46018 0.04333 0.98815 0.0
C1232 C 0.4751 0.09438 0.97973 0.0
C1233 C 0.43871 0.1091 0.96674 0.0
C1234 C 0.44679 0.09767 0.97269 0.0
C1235 C 0.47067 0.06436 0.98991 0.0
C1236 C 0.4624 0.07592 0.98405 0.0
H1237 H 0.40609 0.10406 0.9426 0.0
H1238 H 0.41829 0.08469 0.95304 0.0
H1239 H 0.47749 0.11934 0.97094 0.0
H1240 H 0.51162 0.0714 0.0078 0.0
H1241 H 0.49755 0.09037 0.99902 0.0
C1242 C 0.69537 0.12598 0.9535 0.0
C1243 C 0.69676 0.12253 0.94082 0.0
C1244 C 0.67732 0.11529 0.95848 0.0
C1245 C 0.62733 0.06977 0.95215 0.0
H1246 H 0.61441 0.09726 0.97782 0.0
C1247 C 0.55048 0.03488 0.97134 0.0
C1248 C 0.55129 0.03609 0.98437 0.0
C1249 C 0.5678 0.0456 0.96558 0.0
C1250 C 0.61787 0.0894 0.97069 0.0
H1251 H 0.68016 0.10474 0.92348 0.0
H1252 H 0.64852 0.08669 0.93205 0.0
H1253 H 0.64543 0.11549 0.96855 0.0
H1254 H 0.57076 0.04977 0.00156 0.0
H1255 H 0.60086 0.06867 0.99149 0.0
H1256 H 0.59947 0.04375 0.95423 0.0
C1257 C 0.66149 0.09743 0.93822 0.0
C1258 C 0.63569 0.09978 0.96541 0.0
C1259 C 0.67961 0.10799 0.93326 0.0
C1260 C 0.56965 0.04847 0.99151 0.0
C1261 C 0.58687 0.05938 0.98576 0.0
C1262 C 0.60938 0.05945 0.95734 0.0
C1263 C 0.6601 0.10102 0.95089 0.0
C1264 C 0.64077 0.09006 0.95618 0.0
C1265 C 0.58614 0.05795 0.97275 0.0
C1266 C 0.6046 0.06912 0.96675 0.0
H1267 H 0.70816 0.13723 0.95959 0.0
H1268 H 0.67692 0.11821 0.96832 0.0
H1269 H 0.63084 0.06171 0.94519 0.0
H1270 H 0.53655 0.02542 0.96559 0.0
H1271 H 0.56684 0.04434 0.95553 0.0
C1272 C 0.86003 0.56443 0.95016 0.0
C1273 C 0.86013 0.56806 0.93762 0.0
C1274 C 0.87286 0.55856 0.95541 0.0
C1275 C 0.9004 0.53348 0.94759 0.0
H1276 H 0.93088 0.55915 0.97953 0.0
C1277 C 0.95781 0.51453 0.96951 0.0
C1278 C 0.95938 0.51451 0.98248 0.0
C1279 C 0.94608 0.5213 0.96372 0.0
C1280 C 0.92227 0.5516 0.97069 0.0
H1281 H 0.87425 0.56875 0.92085 0.0
H1282 H 0.89624 0.55795 0.92998 0.0
H1283 H 0.90973 0.57064 0.97013 0.0
H1284 H 0.94935 0.52087 -0.00051 0.0
H1285 H 0.92846 0.53197 0.98941 0.0
H1286 H 0.91244 0.51405 0.94826 0.0
C1287 C 0.88613 0.55962 0.93569 0.0
C1288 C 0.91024 0.55828 0.96529 0.0
C1289 C 0.87347 0.56573 0.93047 0.0
C1290 C 0.94865 0.52093 0.98949 0.0
C1291 C 0.93676 0.52744 0.9837 0.0
C1292 C 0.91226 0.52662 0.95306 0.0
C1293 C 0.88592 0.55596 0.9482 0.0
C1294 C 0.89913 0.54923 0.95372 0.0
C1295 C 0.9355 0.52796 0.97076 0.0
C1296 C 0.92327 0.53552 0.96472 0.0
H1297 H 0.84972 0.56568 0.9559 0.0
H1298 H 0.87224 0.55561 0.96504 0.0
H1299 H 0.89182 0.52612 0.93871 0.0
H1300 H 0.96599 0.50976 0.96386 0.0
H1301 H 0.94565 0.52168 0.95375 0.0
C1302 C 0.41154 0.29915 0.95241 0.0
C1303 C 0.41839 0.28675 0.95671 0.0
C1304 C 0.41934 0.31858 0.95813 0.0
C1305 C 0.45007 0.35267 0.98646 0.0
H1306 H 0.45744 0.39366 0.96521 0.0
C1307 C 0.49827 0.43793 0.00169 0.0
C1308 C 0.48894 0.44901 0.99918 0.0
C1309 C 0.48933 0.41785 0.99688 0.0
C1310 C 0.45536 0.38233 0.97125 0.0
H1311 H 0.43862 0.28475 0.97033 0.0
H1312 H 0.4528 0.31889 0.98007 0.0
H1313 H 0.44232 0.35907 0.9562 0.0
H1314 H 0.46292 0.44784 0.98987 0.0
H1315 H 0.44764 0.41297 0.98116 0.0
H1316 H 0.46383 0.37631 0.00143 0.0
C1317 C 0.44101 0.31354 0.97254 0.0
C1318 C 0.44657 0.36247 0.96612 0.0
C1319 C 0.43295 0.29399 0.96694 0.0
C1320 C 0.47055 0.43971 0.99181 0.0
C1321 C 0.4618 0.41978 0.98685 0.0
C1322 C 0.45916 0.37262 0.99155 0.0
C1323 C 0.43444 0.32617 0.96813 0.0
C1324 C 0.4437 0.34733 0.97367 0.0
C1325 C 0.47109 0.40867 0.98935 0.0
C1326 C 0.46179 0.38759 0.98399 0.0
H1327 H 0.40017 0.29381 0.94461 0.0
H1328 H 0.41355 0.32766 0.95465 0.0
H1329 H 0.44784 0.34144 0.9926 0.0
H1330 H 0.51243 0.44475 0.00737 0.0
H1331 H 0.49681 0.40958 0.99888 0.0
C1332 C 0.11845 0.69949 0.05225 0.0
C1333 C 0.13767 0.7115 0.04887 0.0
C1334 C 0.10603 0.68034 0.04615 0.0
C1335 C 0.10004 0.64667 0.01808 0.0
H1336 H 0.06681 0.60534 0.03816 0.0
C1337 C 0.06032 0.56183 0.0018 0.0
C1338 C 0.04014 0.55081 0.00369 0.0
C1339 C 0.072 0.58175 0.00691 0.0
C1340 C 0.07591 0.61677 0.03243 0.0
H1341 H 0.159 0.7131 0.03645 0.0
H1342 H 0.13761 0.6794 0.02601 0.0
H1343 H 0.08758 0.63961 0.04771 0.0
H1344 H 0.01625 0.55193 0.01225 0.0
H1345 H 0.03681 0.58659 0.02145 0.0
H1346 H 0.08869 0.62347 0.00289 0.0
C1347 C 0.13184 0.68488 0.03314 0.0
C1348 C 0.08775 0.63645 0.03787 0.0
C1349 C 0.14415 0.70417 0.03913 0.0
C1350 C 0.03183 0.56002 0.01076 0.0
C1351 C 0.04356 0.57983 0.01602 0.0
C1352 C 0.08839 0.62691 0.01269 0.0
C1353 C 0.11268 0.67262 0.03666 0.0
C1354 C 0.09993 0.65169 0.03077 0.0
C1355 C 0.06375 0.59088 0.01413 0.0
C1356 C 0.07618 0.61181 0.01981 0.0
H1357 H 0.11304 0.70492 0.05964 0.0
H1358 H 0.09122 0.67156 0.04892 0.0
H1359 H 0.10897 0.65802 0.01227 0.0
H1360 H 0.06707 0.55506 0.99636 0.0
H1361 H 0.08757 0.58993 0.00539 0.0
C1362 C 0.32161 0.45167 0.06936 0.0
C1363 C 0.30385 0.43452 0.06416 0.0
C1364 C 0.33924 0.45787 0.06389 0.0
C1365 C 0.35791 0.45532 0.03418 0.0
H1366 H 0.40706 0.46974 0.05414 0.0
C1367 C 0.42867 0.47098 0.01186 0.0
C1368 C 0.44714 0.48605 0.01782 0.0
C1369 C 0.41133 0.4649 0.01763 0.0
C1370 C 0.39354 0.46608 0.04845 0.0
H1371 H 0.29093 0.41024 0.04922 0.0
H1372 H 0.32165 0.42141 0.03952 0.0
H1373 H 0.37652 0.45866 0.06405 0.0
H1374 H 0.46189 0.50675 0.03447 0.0
H1375 H 0.43153 0.49656 0.04441 0.0
H1376 H 0.37484 0.46309 0.01862 0.0
C1377 C 0.32181 0.43005 0.04782 0.0
C1378 C 0.37605 0.45964 0.05413 0.0
C1379 C 0.30421 0.42371 0.05336 0.0
C1380 C 0.44789 0.49503 0.02965 0.0
C1381 C 0.43049 0.48909 0.03539 0.0
C1382 C 0.37542 0.46196 0.02852 0.0
C1383 C 0.33947 0.4472 0.05302 0.0
C1384 C 0.35805 0.4541 0.04703 0.0
C1385 C 0.41199 0.47389 0.02946 0.0
C1386 C 0.39345 0.46731 0.03556 0.0
H1387 H 0.32185 0.4606 0.07752 0.0
H1388 H 0.35261 0.47129 0.068 0.0
H1389 H 0.34429 0.45143 0.02852 0.0
H1390 H 0.42758 0.46361 0.00279 0.0
H1391 H 0.39745 0.4529 0.01288 0.0
C1392 C 0.58793 0.89306 0.04641 0.0
C1393 C 0.57553 0.87495 0.05111 0.0
C1394 C 0.57982 0.90339 0.04064 0.0
C1395 C 0.53348 0.9063 0.03722 0.0
H1396 H 0.55737 0.93558 0.00947 0.0
C1397 C 0.49657 0.93883 0.00562 0.0
C1398 C 0.50878 0.95903 0.00394 0.0
C1399 C 0.50464 0.92843 0.01134 0.0
C1400 C 0.55063 0.92752 0.01725 0.0
H1401 H 0.54501 0.8531 0.05321 0.0
H1402 H 0.53074 0.87065 0.04278 0.0
H1403 H 0.57155 0.91749 0.01939 0.0
H1404 H 0.53891 0.98423 0.00678 0.0
H1405 H 0.55309 0.96591 0.01653 0.0
H1406 H 0.51222 0.91597 0.03475 0.0
C1407 C 0.54676 0.87734 0.04388 0.0
C1408 C 0.5588 0.91725 0.023 0.0
C1409 C 0.5549 0.86721 0.04981 0.0
C1410 C 0.52919 0.96863 0.00795 0.0
C1411 C 0.53731 0.95817 0.01348 0.0
C1412 C 0.52514 0.91631 0.03134 0.0
C1413 C 0.5591 0.89564 0.03928 0.0
C1414 C 0.55038 0.90655 0.0331 0.0
C1415 C 0.52509 0.93801 0.01528 0.0
C1416 C 0.53369 0.92707 0.02134 0.0
H1417 H 0.60391 0.8994 0.04739 0.0
H1418 H 0.58984 0.91759 0.03742 0.0
H1419 H 0.52681 0.8986 0.04512 0.0
H1420 H 0.48077 0.93114 0.00264 0.0
H1421 H 0.49495 0.91286 0.01258 0.0
C1422 C 0.9675 0.19974 0.38097 0.0
C1423 C 0.96533 0.20273 0.39355 0.0
C1424 C 0.98537 0.21214 0.37622 0.0
C1425 C 0.03868 0.24464 0.38524 0.0
H1426 H 0.03801 0.26545 0.35377 0.0
C1427 C 0.11088 0.29922 0.36474 0.0
C1428 C 0.11098 0.29662 0.35181 0.0
C1429 C 0.09328 0.28844 0.37023 0.0
C1430 C 0.03847 0.25956 0.36249 0.0
H1431 H 0.98011 0.22092 0.41105 0.0
H1432 H 0.0115 0.24259 0.40273 0.0
H1433 H 0.00688 0.24544 0.36258 0.0
H1434 H 0.09281 0.28027 0.33454 0.0
H1435 H 0.06239 0.26117 0.3441 0.0
H1436 H 0.0702 0.25833 0.38503 0.0
C1437 C 0.99933 0.23065 0.39657 0.0
C1438 C 0.02063 0.24817 0.36755 0.0
C1439 C 0.98136 0.21838 0.4013 0.0
C1440 C 0.09322 0.28279 0.34452 0.0
C1441 C 0.07572 0.27192 0.35 0.0
C1442 C 0.05654 0.25591 0.38012 0.0
C1443 C 0.00149 0.22765 0.38398 0.0
C1444 C 0.02054 0.24047 0.37892 0.0
C1445 C 0.07546 0.27473 0.36291 0.0
C1446 C 0.05662 0.26336 0.36863 0.0
H1447 H 0.95532 0.18789 0.37478 0.0
H1448 H 0.98668 0.20938 0.3665 0.0
H1449 H 0.039 0.23871 0.39397 0.0
H1450 H 0.1243 0.30983 0.37062 0.0
H1451 H 0.09359 0.29113 0.38018 0.0
C1452 C 0.79643 0.75936 0.39014 0.0
C1453 C 0.81117 0.77198 0.39975 0.0
C1454 C 0.78305 0.76462 0.38499 0.0
C1455 C 0.77603 0.8082 0.38219 0.0
H1456 H 0.72152 0.76701 0.37142 0.0
C1457 C 0.71478 0.82523 0.36483 0.0
C1458 C 0.70353 0.81425 0.35359 0.0
C1459 C 0.72769 0.82021 0.371 0.0
C1460 C 0.73673 0.77864 0.37435 0.0
H1461 H 0.82327 0.79978 0.41169 0.0
H1462 H 0.7996 0.80878 0.40294 0.0
H1463 H 0.74437 0.75797 0.38137 0.0
H1464 H 0.69678 0.78924 0.3401 0.0
H1465 H 0.71912 0.78039 0.35096 0.0
H1466 H 0.76816 0.82887 0.37527 0.0
C1467 C 0.79865 0.79506 0.39913 0.0
C1468 C 0.74986 0.77348 0.38 0.0
C1469 C 0.81218 0.78989 0.40419 0.0
C1470 C 0.70528 0.79804 0.34873 0.0
C1471 C 0.71797 0.79288 0.35497 0.0
C1472 C 0.76281 0.81338 0.37666 0.0
C1473 C 0.78395 0.78252 0.38943 0.0
C1474 C 0.76975 0.78816 0.38387 0.0
C1475 C 0.72936 0.80395 0.36614 0.0
C1476 C 0.7431 0.79862 0.37257 0.0
H1477 H 0.79549 0.74558 0.38644 0.0
H1478 H 0.77221 0.75478 0.37737 0.0
H1479 H 0.7913 0.81986 0.38487 0.0
H1480 H 0.71377 0.83781 0.36881 0.0
H1481 H 0.73623 0.82891 0.37964 0.0
C1482 C 0.2218 0.03456 0.38065 0.0
C1483 C 0.24245 0.0479 0.38228 0.0
C1484 C 0.21398 0.01514 0.37493 0.0
C1485 C 0.22722 0.98354 0.35503 0.0
H1486 H 0.17999 0.94025 0.36616 0.0
C1487 C 0.19833 0.89988 0.34027 0.0
C1488 C 0.17804 0.88832 0.33594 0.0
C1489 C 0.20622 0.91943 0.34579 0.0
C1490 C 0.19311 0.95224 0.36292 0.0
H1491 H 0.27105 0.05106 0.37909 0.0
H1492 H 0.25752 0.01695 0.36973 0.0
H1493 H 0.194 0.97411 0.37635 0.0
H1494 H 0.15001 0.88789 0.33406 0.0
H1495 H 0.16377 0.92207 0.34396 0.0
H1496 H 0.22655 0.96136 0.34186 0.0
C1497 C 0.24728 0.02166 0.37258 0.0
C1498 C 0.20112 0.97167 0.3687 0.0
C1499 C 0.25509 0.04119 0.37815 0.0
C1500 C 0.16572 0.89655 0.33729 0.0
C1501 C 0.17355 0.91602 0.34299 0.0
C1502 C 0.21938 0.96405 0.34939 0.0
C1503 C 0.22661 0.00838 0.37085 0.0
C1504 C 0.21824 0.98762 0.3648 0.0
C1505 C 0.19388 0.92764 0.34725 0.0
C1506 C 0.20222 0.94826 0.35325 0.0
H1507 H 0.21157 0.03903 0.38388 0.0
H1508 H 0.19798 0.00549 0.37361 0.0
H1509 H 0.24017 0.99543 0.3516 0.0
H1510 H 0.20813 0.89383 0.33936 0.0
H1511 H 0.22191 0.92805 0.34909 0.0
C1512 C 0.54042 0.62462 0.29033 0.0
C1513 C 0.52069 0.61811 0.28564 0.0
C1514 C 0.55268 0.64402 0.29618 0.0
C1515 C 0.55686 0.69407 0.29968 0.0
H1516 H 0.59586 0.70419 0.32726 0.0
C1517 C 0.60066 0.76937 0.33095 0.0
C1518 C 0.62134 0.77748 0.33254 0.0
C1519 C 0.58825 0.74985 0.32534 0.0
C1520 C 0.58507 0.70155 0.31953 0.0
H1521 H 0.49853 0.62717 0.28343 0.0
H1522 H 0.51943 0.6604 0.2942 0.0
H1523 H 0.57424 0.67013 0.31744 0.0
H1524 H 0.64535 0.77166 0.32968 0.0
H1525 H 0.62359 0.73734 0.32012 0.0
H1526 H 0.56746 0.72553 0.30208 0.0
C1527 C 0.52566 0.65073 0.29309 0.0
C1528 C 0.57275 0.68206 0.31384 0.0
C1529 C 0.51351 0.63146 0.28708 0.0
C1530 C 0.62942 0.76572 0.32857 0.0
C1531 C 0.61701 0.74611 0.32315 0.0
C1532 C 0.56897 0.71349 0.3055 0.0
C1533 C 0.54546 0.65734 0.29764 0.0
C1534 C 0.55852 0.67807 0.3038 0.0
C1535 C 0.59632 0.73804 0.32143 0.0
C1536 C 0.58324 0.7174 0.31544 0.0
H1537 H 0.54643 0.61472 0.28955 0.0
H1538 H 0.56791 0.64861 0.29941 0.0
H1539 H 0.5464 0.69171 0.29182 0.0
H1540 H 0.59409 0.77819 0.3339 0.0
H1541 H 0.57232 0.7439 0.32415 0.0
C1542 C 0.36062 0.90512 0.27802 0.0
C1543 C 0.36042 0.89278 0.2679 0.0
C1544 C 0.34333 0.89989 0.28371 0.0
C1545 C 0.29355 0.85655 0.28683 0.0
H1546 H 0.28303 0.89786 0.29952 0.0
C1547 C 0.21891 0.83991 0.30479 0.0
C1548 C 0.22041 0.8504 0.31624 0.0
C1549 C 0.23585 0.84489 0.29874 0.0
C1550 C 0.28586 0.88619 0.29609 0.0
H1551 H 0.34198 0.86554 0.25563 0.0
H1552 H 0.31163 0.85662 0.26533 0.0
H1553 H 0.31267 0.90702 0.28899 0.0
H1554 H 0.24083 0.8744 0.33026 0.0
H1555 H 0.27031 0.88319 0.3196 0.0
H1556 H 0.26644 0.83573 0.29377 0.0
C1557 C 0.32522 0.87008 0.2691 0.0
C1558 C 0.30287 0.89142 0.29009 0.0
C1559 C 0.34257 0.87521 0.26351 0.0
C1560 C 0.23917 0.86599 0.32148 0.0
C1561 C 0.25604 0.87112 0.31534 0.0
C1562 C 0.27641 0.85132 0.29271 0.0
C1563 C 0.3254 0.8823 0.27932 0.0
C1564 C 0.30702 0.87668 0.28545 0.0
C1565 C 0.25455 0.86061 0.30393 0.0
C1566 C 0.27248 0.8661 0.29746 0.0
H1567 H 0.37425 0.91862 0.28169 0.0
H1568 H 0.34415 0.90948 0.29169 0.0
H1569 H 0.2964 0.84482 0.28358 0.0
H1570 H 0.20468 0.82781 0.30051 0.0
H1571 H 0.23427 0.83664 0.2899 0.0
C1572 C 0.07712 0.44255 0.28736 0.0
C1573 C 0.09041 0.46187 0.28442 0.0
C1574 C 0.08418 0.43061 0.29203 0.0
C1575 C 0.12952 0.42598 0.29526 0.0
H1576 H 0.1032 0.39304 0.32116 0.0
C1577 C 0.16518 0.39265 0.32687 0.0
C1578 C 0.15323 0.37248 0.32872 0.0
C1579 C 0.15702 0.40248 0.32058 0.0
C1580 C 0.11056 0.40201 0.31384 0.0
H1581 H 0.12164 0.48358 0.28391 0.0
H1582 H 0.13394 0.46324 0.29258 0.0
H1583 H 0.08988 0.41241 0.31201 0.0
H1584 H 0.1235 0.34667 0.32542 0.0
H1585 H 0.10912 0.36403 0.31459 0.0
H1586 H 0.1506 0.41605 0.29747 0.0
C1587 C 0.11801 0.45708 0.29104 0.0
C1588 C 0.10291 0.41307 0.30855 0.0
C1589 C 0.11095 0.46892 0.28625 0.0
C1590 C 0.13302 0.36225 0.32412 0.0
C1591 C 0.12479 0.37216 0.31798 0.0
C1592 C 0.1373 0.41513 0.30066 0.0
C1593 C 0.10474 0.43776 0.29398 0.0
C1594 C 0.11238 0.42532 0.29925 0.0
C1595 C 0.13671 0.39239 0.31618 0.0
C1596 C 0.12796 0.40314 0.31005 0.0
H1597 H 0.06121 0.43669 0.28619 0.0
H1598 H 0.0735 0.41573 0.29404 0.0
H1599 H 0.13696 0.43489 0.28793 0.0
H1600 H 0.18082 0.40083 0.3303 0.0
H1601 H 0.16649 0.41812 0.3194 0.0
C1602 C 0.34752 0.44071 0.26763 0.0
C1603 C 0.36457 0.45562 0.27509 0.0
C1604 C 0.32951 0.42995 0.27267 0.0
C1605 C 0.30355 0.43236 0.29974 0.0
H1606 H 0.26817 0.37598 0.28907 0.0
C1607 C 0.23722 0.38124 0.32576 0.0
C1608 C 0.21908 0.36831 0.31853 0.0
C1609 C 0.25456 0.39219 0.32012 0.0
C1610 C 0.27783 0.39177 0.29204 0.0
H1611 H 0.37595 0.47075 0.29377 0.0
H1612 H 0.34489 0.45143 0.30265 0.0
H1613 H 0.29951 0.39413 0.28004 0.0
H1614 H 0.20489 0.35678 0.29968 0.0
H1615 H 0.23534 0.37579 0.28983 0.0
H1616 H 0.28203 0.42978 0.31197 0.0
C1617 C 0.34528 0.44834 0.29282 0.0
C1618 C 0.29577 0.40219 0.28686 0.0
C1619 C 0.36323 0.45922 0.28776 0.0
C1620 C 0.21863 0.36663 0.30551 0.0
C1621 C 0.23605 0.37741 0.29987 0.0
C1622 C 0.28574 0.42188 0.305 0.0
C1623 C 0.32814 0.43372 0.28532 0.0
C1624 C 0.3089 0.42261 0.29068 0.0
C1625 C 0.25417 0.39027 0.30713 0.0
C1626 C 0.27274 0.40148 0.30124 0.0
H1627 H 0.34806 0.43735 0.25787 0.0
H1628 H 0.31658 0.41892 0.26659 0.0
H1629 H 0.31306 0.44815 0.30271 0.0
H1630 H 0.23806 0.38292 0.33581 0.0
H1631 H 0.26837 0.40188 0.32594 0.0
C1632 C 0.53098 0.90127 0.28035 0.0
C1633 C 0.51867 0.89077 0.26931 0.0
C1634 C 0.54362 0.89534 0.28581 0.0
C1635 C 0.56945 0.86769 0.27911 0.0
H1636 H 0.5717 0.86476 0.31467 0.0
C1637 C 0.61403 0.83626 0.30425 0.0
C1638 C 0.62422 0.84609 0.31595 0.0
C1639 C 0.60087 0.84118 0.29828 0.0
C1640 C 0.57145 0.86573 0.30475 0.0
H1641 H 0.50998 0.86567 0.25541 0.0
H1642 H 0.53234 0.85557 0.26486 0.0
H1643 H 0.54951 0.87463 0.30478 0.0
H1644 H 0.62889 0.86909 0.33044 0.0
H1645 H 0.6064 0.87791 0.31996 0.0
H1646 H 0.59163 0.85912 0.2791 0.0
C1647 C 0.53224 0.86847 0.26922 0.0
C1648 C 0.5587 0.87135 0.29909 0.0
C1649 C 0.51947 0.8743 0.2638 0.0
C1650 C 0.62116 0.86108 0.32148 0.0
C1651 C 0.60814 0.86606 0.3155 0.0
C1652 C 0.58233 0.8622 0.28479 0.0
C1653 C 0.54436 0.87887 0.28032 0.0
C1654 C 0.55764 0.8725 0.28623 0.0
C1655 C 0.5977 0.85609 0.30387 0.0
C1656 C 0.58358 0.86128 0.2977 0.0
H1657 H 0.53104 0.91424 0.28472 0.0
H1658 H 0.55303 0.90382 0.29427 0.0
H1659 H 0.56906 0.86863 0.26919 0.0
H1660 H 0.61602 0.8246 0.29976 0.0
H1661 H 0.59292 0.83306 0.28939 0.0
C1662 C 0.07607 0.63107 0.2878 0.0
C1663 C 0.08295 0.61862 0.29195 0.0
C1664 C 0.084 0.65049 0.29354 0.0
C1665 C 0.11572 0.68497 0.32153 0.0
H1666 H 0.12289 0.72546 0.29989 0.0
C1667 C 0.16444 0.77066 0.33579 0.0
C1668 C 0.15509 0.78166 0.33313 0.0
C1669 C 0.15539 0.75043 0.33128 0.0
C1670 C 0.12088 0.71428 0.30604 0.0
H1671 H 0.10323 0.61643 0.30543 0.0
H1672 H 0.11765 0.6506 0.31524 0.0
H1673 H 0.10731 0.69068 0.29121 0.0
H1674 H 0.12891 0.78021 0.32384 0.0
H1675 H 0.11342 0.7451 0.31567 0.0
H1676 H 0.13001 0.70897 0.33627 0.0
C1677 C 0.10576 0.64529 0.30778 0.0
C1678 C 0.11181 0.6943 0.30111 0.0
C1679 C 0.09756 0.62573 0.30215 0.0
C1680 C 0.13656 0.77214 0.32592 0.0
C1681 C 0.12769 0.75207 0.32125 0.0
C1682 C 0.12508 0.70505 0.32642 0.0
C1683 C 0.0993 0.65805 0.30342 0.0
C1684 C 0.10896 0.67933 0.30879 0.0
C1685 C 0.13701 0.74103 0.32388 0.0
C1686 C 0.12761 0.71983 0.31873 0.0
H1687 H 0.06466 0.62581 0.28002 0.0
H1688 H 0.07824 0.65963 0.29014 0.0
H1689 H 0.11356 0.67388 0.32777 0.0
H1690 H 0.17871 0.77766 0.34137 0.0
H1691 H 0.1629 0.74223 0.33338 0.0
C1692 C 0.81005 0.03718 0.37156 0.0
C1693 C 0.80339 0.04408 0.38141 0.0
C1694 C 0.79802 0.01791 0.36547 0.0
C1695 C 0.75458 0.96892 0.37016 0.0
H1696 H 0.75541 0.95623 0.33512 0.0
C1697 C 0.69804 0.89316 0.34298 0.0
C1698 C 0.70604 0.88349 0.33604 0.0
C1699 C 0.71008 0.91295 0.34815 0.0
C1700 C 0.75516 0.9596 0.34493 0.0
H1701 H 0.7787 0.03681 0.39224 0.0
H1702 H 0.75733 0.00352 0.38132 0.0
H1703 H 0.77553 0.99079 0.34457 0.0
H1704 H 0.73272 0.88699 0.32874 0.0
H1705 H 0.75381 0.92196 0.33759 0.0
H1706 H 0.73379 0.93777 0.37039 0.0
C1707 C 0.77209 0.01259 0.37855 0.0
C1708 C 0.76672 0.97936 0.35037 0.0
C1709 C 0.78423 0.03171 0.38476 0.0
C1710 C 0.72622 0.89411 0.3341 0.0
C1711 C 0.73824 0.91407 0.33911 0.0
C1712 C 0.74284 0.94927 0.36468 0.0
C1713 C 0.77897 0.00525 0.369 0.0
C1714 C 0.76656 0.98429 0.36307 0.0
C1715 C 0.73029 0.92358 0.34628 0.0
C1716 C 0.74302 0.94442 0.35203 0.0
H1717 H 0.82486 0.04641 0.36889 0.0
H1718 H 0.80396 0.01274 0.35828 0.0
H1719 H 0.75442 0.97198 0.38002 0.0
H1720 H 0.68247 0.88539 0.34451 0.0
H1721 H 0.70356 0.92002 0.35353 0.0
C1722 C 0.97138 0.76253 0.3865 0.0
C1723 C 0.97118 0.77313 0.39745 0.0
C1724 C 0.98899 0.76866 0.38102 0.0
C1725 C 0.04324 0.797 0.38769 0.0
H1726 H 0.04253 0.80018 0.35215 0.0
C1727 C 0.11508 0.82949 0.36306 0.0
C1728 C 0.11388 0.81989 0.35135 0.0
C1729 C 0.09786 0.82436 0.36885 0.0
C1730 C 0.04296 0.79914 0.36206 0.0
H1731 H 0.98943 0.79866 0.41113 0.0
H1732 H 0.02023 0.80908 0.40167 0.0
H1733 H 0.01206 0.78972 0.36196 0.0
H1734 H 0.09372 0.79718 0.3366 0.0
H1735 H 0.06391 0.78795 0.34678 0.0
H1736 H 0.07403 0.80602 0.38779 0.0
C1737 C 0.00673 0.79595 0.3974 0.0
C1738 C 0.0255 0.79319 0.36767 0.0
C1739 C 0.98909 0.78993 0.40283 0.0
C1740 C 0.09517 0.805 0.34558 0.0
C1741 C 0.07802 0.79978 0.3514 0.0
C1742 C 0.06069 0.80279 0.38206 0.0
C1743 C 0.00683 0.78544 0.38641 0.0
C1744 C 0.02545 0.792 0.38053 0.0
C1745 C 0.07912 0.80944 0.36307 0.0
C1746 C 0.06074 0.80384 0.36916 0.0
H1747 H 0.95796 0.74932 0.38222 0.0
H1748 H 0.9887 0.76012 0.37263 0.0
H1749 H 0.04357 0.79603 0.39761 0.0
H1750 H 0.12928 0.84107 0.36773 0.0
H1751 H 0.09923 0.83228 0.37777 0.0
C1752 C 0.26061 0.23212 0.38701 0.0
C1753 C 0.25379 0.21213 0.38266 0.0
C1754 C 0.25245 0.24261 0.38151 0.0
C1755 C 0.22053 0.24019 0.35357 0.0
H1756 H 0.2136 0.2779 0.37485 0.0
C1757 C 0.16977 0.27166 0.33902 0.0
C1758 C 0.17896 0.29258 0.34059 0.0
C1759 C 0.17936 0.26216 0.34406 0.0
C1760 C 0.21556 0.26747 0.36881 0.0
H1761 H 0.23312 0.18732 0.36926 0.0
H1762 H 0.21831 0.20524 0.35996 0.0
H1763 H 0.22967 0.26073 0.3837 0.0
H1764 H 0.20533 0.32 0.34859 0.0
H1765 H 0.22175 0.3033 0.35781 0.0
H1766 H 0.20563 0.2465 0.3388 0.0
C1767 C 0.2304 0.21317 0.36731 0.0
C1768 C 0.22489 0.25772 0.37384 0.0
C1769 C 0.23881 0.20283 0.37267 0.0
C1770 C 0.19779 0.30383 0.34739 0.0
C1771 C 0.2072 0.29432 0.35264 0.0
C1772 C 0.21088 0.24968 0.34861 0.0
C1773 C 0.23702 0.23318 0.3717 0.0
C1774 C 0.22751 0.24394 0.36628 0.0
C1775 C 0.19813 0.27342 0.35092 0.0
C1776 C 0.20833 0.26339 0.35619 0.0
H1777 H 0.27227 0.23964 0.39465 0.0
H1778 H 0.25826 0.2581 0.38498 0.0
H1779 H 0.22261 0.23003 0.34739 0.0
H1780 H 0.15528 0.26264 0.33378 0.0
H1781 H 0.17205 0.246 0.34269 0.0
C1782 C 0.63374 0.53078 0.71348 0.0
C1783 C 0.63151 0.534 0.72601 0.0
C1784 C 0.65187 0.54258 0.70882 0.0
C1785 C 0.69961 0.59055 0.71556 0.0
H1786 H 0.71681 0.56548 0.69101 0.0
C1787 C 0.77739 0.63107 0.69758 0.0
C1788 C 0.77724 0.62915 0.68459 0.0
C1789 C 0.76005 0.61948 0.70314 0.0
C1790 C 0.71214 0.57269 0.69782 0.0
H1791 H 0.64647 0.55201 0.74353 0.0
H1792 H 0.67831 0.57241 0.73548 0.0
H1793 H 0.68574 0.54529 0.69983 0.0
H1794 H 0.75888 0.6134 0.66727 0.0
H1795 H 0.72878 0.59311 0.67698 0.0
H1796 H 0.72628 0.61793 0.71359 0.0
C1797 C 0.66595 0.56105 0.72916 0.0
C1798 C 0.6943 0.56116 0.70284 0.0
C1799 C 0.64774 0.54935 0.73379 0.0
C1800 C 0.7595 0.61528 0.6773 0.0
C1801 C 0.74227 0.60356 0.68286 0.0
C1802 C 0.71758 0.60205 0.71061 0.0
C1803 C 0.66827 0.55775 0.71662 0.0
C1804 C 0.68767 0.56997 0.71166 0.0
C1805 C 0.74235 0.60558 0.69582 0.0
C1806 C 0.72389 0.59326 0.70159 0.0
H1807 H 0.62139 0.51924 0.70723 0.0
H1808 H 0.65295 0.5399 0.69906 0.0
H1809 H 0.69487 0.59789 0.72221 0.0
H1810 H 0.79082 0.64165 0.70346 0.0
H1811 H 0.76053 0.62123 0.71316 0.0
C1812 C 0.46264 0.08939 0.72092 0.0
C1813 C 0.47731 0.10182 0.73062 0.0
C1814 C 0.44957 0.09497 0.71568 0.0
C1815 C 0.42691 0.12561 0.72195 0.0
H1816 H 0.41928 0.123 0.68608 0.0
C1817 C 0.381 0.15601 0.69731 0.0
C1818 C 0.36961 0.14544 0.68604 0.0
C1819 C 0.39425 0.15097 0.70303 0.0
C1820 C 0.42097 0.12354 0.69611 0.0
H1821 H 0.48957 0.12958 0.74264 0.0
H1822 H 0.46651 0.13925 0.73356 0.0
H1823 H 0.44183 0.11326 0.69557 0.0
H1824 H 0.36266 0.1209 0.67212 0.0
H1825 H 0.38513 0.11174 0.68223 0.0
H1826 H 0.40572 0.13543 0.72252 0.0
C1827 C 0.46523 0.12526 0.72998 0.0
C1828 C 0.43396 0.11803 0.70153 0.0
C1829 C 0.47849 0.1198 0.7351 0.0
C1830 C 0.37141 0.12951 0.68073 0.0
C1831 C 0.38443 0.12433 0.6865 0.0
C1832 C 0.4137 0.1309 0.71652 0.0
C1833 C 0.45074 0.11296 0.72017 0.0
C1834 C 0.43703 0.11896 0.71449 0.0
C1835 C 0.3962 0.13512 0.69765 0.0
C1836 C 0.4105 0.12987 0.70352 0.0
H1837 H 0.46149 0.07549 0.71725 0.0
H1838 H 0.43843 0.08516 0.70817 0.0
H1839 H 0.42892 0.12631 0.73197 0.0
H1840 H 0.37998 0.16841 0.7016 0.0
H1841 H 0.40322 0.15977 0.71153 0.0
C1842 C 0.88917 0.36958 0.71448 0.0
C1843 C 0.90981 0.38298 0.71596 0.0
C1844 C 0.88136 0.35002 0.70901 0.0
C1845 C 0.89447 0.31797 0.68948 0.0
H1846 H 0.84742 0.27508 0.70105 0.0
C1847 C 0.86511 0.23411 0.6751 0.0
C1848 C 0.8448 0.22269 0.6708 0.0
C1849 C 0.87315 0.25369 0.68063 0.0
C1850 C 0.8605 0.28695 0.6977 0.0
H1851 H 0.9384 0.3861 0.71278 0.0
H1852 H 0.92488 0.35176 0.70385 0.0
H1853 H 0.86156 0.30913 0.71094 0.0
H1854 H 0.81687 0.22248 0.66901 0.0
H1855 H 0.83089 0.25668 0.67893 0.0
H1856 H 0.8936 0.2955 0.67647 0.0
C1857 C 0.91465 0.35652 0.70662 0.0
C1858 C 0.86858 0.30649 0.70331 0.0
C1859 C 0.92245 0.37619 0.71194 0.0
C1860 C 0.8326 0.23104 0.67222 0.0
C1861 C 0.84058 0.25051 0.67793 0.0
C1862 C 0.88655 0.29837 0.68401 0.0
C1863 C 0.89398 0.34319 0.70503 0.0
C1864 C 0.88561 0.3223 0.69922 0.0
C1865 C 0.86094 0.26203 0.68213 0.0
C1866 C 0.86945 0.28273 0.68803 0.0
H1867 H 0.87895 0.37411 0.71763 0.0
H1868 H 0.86536 0.34033 0.70779 0.0
H1869 H 0.90735 0.32974 0.68591 0.0
H1870 H 0.87482 0.22798 0.67413 0.0
H1871 H 0.88886 0.26223 0.68388 0.0
C1872 C 0.19152 0.95314 0.63076 0.0
C1873 C 0.19114 0.94893 0.61793 0.0
C1874 C 0.20393 0.97252 0.63658 0.0
C1875 C 0.22677 0.0244 0.63088 0.0
H1876 H 0.26362 0.03546 0.65998 0.0
C1877 C 0.26743 0.09987 0.66228 0.0
C1878 C 0.28815 0.10843 0.66429 0.0
C1879 C 0.25559 0.0803 0.6566 0.0
C1880 C 0.25338 0.03253 0.65186 0.0
H1881 H 0.20323 0.96149 0.6011 0.0
H1882 H 0.22464 0.99556 0.61127 0.0
H1883 H 0.24295 0.00107 0.65005 0.0
H1884 H 0.31282 0.1034 0.66209 0.0
H1885 H 0.29201 0.06895 0.65246 0.0
H1886 H 0.23693 0.05579 0.6328 0.0
C1887 C 0.2155 0.98382 0.6168 0.0
C1888 C 0.24154 0.01293 0.64624 0.0
C1889 C 0.2034 0.96437 0.61103 0.0
C1890 C 0.29685 0.0971 0.66064 0.0
C1891 C 0.28499 0.07742 0.65519 0.0
C1892 C 0.23831 0.04394 0.63664 0.0
C1893 C 0.21582 0.98806 0.62962 0.0
C1894 C 0.22824 0.00874 0.63566 0.0
C1895 C 0.26428 0.06889 0.65308 0.0
C1896 C 0.25179 0.04817 0.64713 0.0
H1897 H 0.18221 0.94144 0.63626 0.0
H1898 H 0.20388 0.97548 0.64647 0.0
H1899 H 0.21651 0.02149 0.62277 0.0
H1900 H 0.26041 0.10836 0.66498 0.0
H1901 H 0.23963 0.07397 0.65509 0.0
C1902 C 0.0131 0.21348 0.60028 0.0
C1903 C 0.03051 0.23139 0.60481 0.0
C1904 C 0.99527 0.20807 0.60533 0.0
C1905 C 0.97074 0.22877 0.62489 0.0
H1906 H 0.935 0.17292 0.62862 0.0
C1907 C 0.90593 0.20191 0.65542 0.0
C1908 C 0.8874 0.18608 0.65005 0.0
C1909 C 0.923 0.2075 0.64943 0.0
C1910 C 0.94477 0.18854 0.62752 0.0
H1911 H 0.04306 0.25762 0.61824 0.0
H1912 H 0.01211 0.24795 0.62736 0.0
H1913 H 0.96574 0.18263 0.61924 0.0
H1914 H 0.87224 0.16361 0.63422 0.0
H1915 H 0.90226 0.17321 0.62385 0.0
H1916 H 0.94993 0.23462 0.63357 0.0
C1917 C 0.012 0.2383 0.61966 0.0
C1918 C 0.96236 0.19413 0.62211 0.0
C1919 C 0.02977 0.24382 0.61449 0.0
C1920 C 0.88631 0.17587 0.63858 0.0
C1921 C 0.90346 0.1813 0.63268 0.0
C1922 C 0.95328 0.22318 0.63045 0.0
C1923 C 0.9945 0.22033 0.61515 0.0
C1924 C 0.97561 0.21433 0.62074 0.0
C1925 C 0.92194 0.19721 0.63803 0.0
C1926 C 0.94016 0.20303 0.63183 0.0
H1927 H 0.01323 0.20376 0.5927 0.0
H1928 H 0.98204 0.19434 0.60144 0.0
H1929 H 0.98034 0.2444 0.62377 0.0
H1930 H 0.90726 0.21013 0.66422 0.0
H1931 H 0.9371 0.21972 0.6538 0.0
C1932 C 0.77625 0.80291 0.62056 0.0
C1933 C 0.75571 0.79578 0.61856 0.0
C1934 C 0.78329 0.79112 0.62544 0.0
C1935 C 0.76805 0.74698 0.64286 0.0
H1936 H 0.81595 0.75021 0.632 0.0
C1937 C 0.79821 0.69598 0.65815 0.0
C1938 C 0.81843 0.70617 0.66274 0.0
C1939 C 0.78995 0.70602 0.65218 0.0
C1940 C 0.80259 0.74923 0.63513 0.0
H1941 H 0.72648 0.77052 0.62017 0.0
H1942 H 0.73875 0.74963 0.62819 0.0
H1943 H 0.80237 0.76907 0.62244 0.0
H1944 H 0.84597 0.7346 0.66456 0.0
H1945 H 0.83159 0.7521 0.65396 0.0
H1946 H 0.76822 0.72683 0.65543 0.0
C1947 C 0.74944 0.76454 0.62622 0.0
C1948 C 0.79484 0.76009 0.62971 0.0
C1949 C 0.74239 0.77644 0.62145 0.0
C1950 C 0.83032 0.72644 0.66112 0.0
C1951 C 0.82214 0.7364 0.65501 0.0
C1952 C 0.77567 0.73591 0.64816 0.0
C1953 C 0.77 0.77176 0.62832 0.0
C1954 C 0.77762 0.75933 0.63363 0.0
C1955 C 0.80186 0.72632 0.65056 0.0
C1956 C 0.79314 0.73713 0.64445 0.0
H1957 H 0.78697 0.81759 0.61825 0.0
H1958 H 0.79921 0.79733 0.6271 0.0
H1959 H 0.75494 0.74624 0.64625 0.0
H1960 H 0.78874 0.68033 0.65928 0.0
H1961 H 0.7743 0.6979 0.64876 0.0
C1962 C 0.0287 0.7936 0.62017 0.0
C1963 C 0.03 0.79022 0.60746 0.0
C1964 C 0.0107 0.78283 0.6252 0.0
C1965 C 0.9609 0.73711 0.61897 0.0
H1966 H 0.94765 0.76435 0.64461 0.0
C1967 C 0.88399 0.70128 0.63794 0.0
C1968 C 0.88457 0.70269 0.65096 0.0
C1969 C 0.90135 0.7122 0.63226 0.0
C1970 C 0.95121 0.75654 0.63749 0.0
H1971 H 0.01332 0.7725 0.59013 0.0
H1972 H 0.98177 0.75428 0.59879 0.0
H1973 H 0.97867 0.78278 0.63534 0.0
H1974 H 0.90372 0.71699 0.66822 0.0
H1975 H 0.9339 0.73617 0.65829 0.0
H1976 H 0.9332 0.71093 0.62106 0.0
C1977 C 0.99477 0.76504 0.60493 0.0
C1978 C 0.96902 0.76705 0.63222 0.0
C1979 C 0.01283 0.77569 0.59992 0.0
C1980 C 0.90277 0.71552 0.65817 0.0
C1981 C 0.92004 0.72659 0.65249 0.0
C1982 C 0.94298 0.72665 0.62416 0.0
C1983 C 0.99345 0.76853 0.61763 0.0
C1984 C 0.9742 0.75743 0.62297 0.0
C1985 C 0.91954 0.72493 0.63949 0.0
C1986 C 0.93806 0.73623 0.63355 0.0
H1987 H 0.04152 0.80484 0.62624 0.0
H1988 H 0.01035 0.78571 0.63505 0.0
H1989 H 0.9645 0.72913 0.61201 0.0
H1990 H 0.8702 0.69152 0.63212 0.0
H1991 H 0.90053 0.71077 0.62221 0.0
C1992 C 0.20209 0.22637 0.59699 0.0
C1993 C 0.18828 0.22814 0.60394 0.0
C1994 C 0.21435 0.21976 0.60218 0.0
C1995 C 0.21917 0.19334 0.62847 0.0
H1996 H 0.27343 0.21574 0.62028 0.0
C1997 C 0.27884 0.18396 0.65631 0.0
C1998 C 0.29005 0.178 0.64942 0.0
C1999 C 0.26605 0.18925 0.65033 0.0
C2000 C 0.25824 0.20925 0.62255 0.0
H2001 H 0.17663 0.22427 0.62186 0.0
H2002 H 0.19864 0.21382 0.63108 0.0
H2003 H 0.25212 0.22713 0.61087 0.0
H2004 H 0.29673 0.173 0.63086 0.0
H2005 H 0.27458 0.18269 0.62041 0.0
H2006 H 0.22565 0.17599 0.64049 0.0
C2007 C 0.19967 0.21702 0.6215 0.0
C2008 C 0.24598 0.21569 0.61714 0.0
C2009 C 0.18725 0.22338 0.61626 0.0
C2010 C 0.28823 0.17747 0.63641 0.0
C2011 C 0.27566 0.1831 0.63044 0.0
C2012 C 0.23152 0.18713 0.634 0.0
C2013 C 0.21329 0.21498 0.61451 0.0
C2014 C 0.22629 0.20788 0.62007 0.0
C2015 C 0.26443 0.18899 0.63735 0.0
C2016 C 0.25117 0.19507 0.63112 0.0
H2017 H 0.20354 0.23017 0.58753 0.0
H2018 H 0.22448 0.21818 0.59645 0.0
H2019 H 0.20398 0.18663 0.63074 0.0
H2020 H 0.27986 0.18445 0.66635 0.0
H2021 H 0.25765 0.19388 0.65587 0.0
C2022 C 0.76294 0.95952 0.63532 0.0
C2023 C 0.74823 0.95236 0.62518 0.0
C2024 C 0.77122 0.97913 0.64089 0.0
C2025 C 0.77721 0.0281 0.63415 0.0
H2026 H 0.79619 0.04304 0.6692 0.0
C2027 C 0.80291 0.10622 0.65904 0.0
C2028 C 0.82163 0.11567 0.66602 0.0
C2029 C 0.79383 0.08613 0.65436 0.0
C2030 C 0.79104 0.03903 0.65939 0.0
H2031 H 0.72985 0.95949 0.61328 0.0
H2032 H 0.74355 0.99338 0.62333 0.0
H2033 H 0.77943 0.00789 0.66082 0.0
H2034 H 0.8454 0.11151 0.67382 0.0
H2035 H 0.82922 0.07606 0.66583 0.0
H2036 H 0.78836 0.05926 0.63286 0.0
C2037 C 0.74933 0.98425 0.62673 0.0
C2038 C 0.7815 0.01893 0.65455 0.0
C2039 C 0.74133 0.96479 0.62103 0.0
C2040 C 0.83099 0.10458 0.66843 0.0
C2041 C 0.82173 0.08434 0.66391 0.0
C2042 C 0.78644 0.04812 0.63903 0.0
C2043 C 0.76473 0.99186 0.63654 0.0
C2044 C 0.77448 0.01319 0.64185 0.0
C2045 C 0.80313 0.07501 0.65676 0.0
C2046 C 0.79347 0.05377 0.65167 0.0
H2047 H 0.76863 0.95024 0.63859 0.0
H2048 H 0.7832 0.98447 0.64831 0.0
H2049 H 0.7725 0.02441 0.62428 0.0
H2050 H 0.79524 0.11435 0.65719 0.0
H2051 H 0.7794 0.07921 0.64897 0.0
C2052 C 0.44858 0.36513 0.71848 0.0
C2053 C 0.46761 0.37742 0.71491 0.0
C2054 C 0.43629 0.34592 0.71241 0.0
C2055 C 0.4303 0.31229 0.68427 0.0
H2056 H 0.39829 0.2709 0.70468 0.0
C2057 C 0.39163 0.22726 0.66841 0.0
C2058 C 0.37153 0.21607 0.67046 0.0
C2059 C 0.40317 0.24728 0.67339 0.0
C2060 C 0.40706 0.28234 0.69886 0.0
H2061 H 0.48869 0.37948 0.70216 0.0
H2062 H 0.46756 0.3457 0.69179 0.0
H2063 H 0.41867 0.30531 0.71406 0.0
H2064 H 0.34765 0.21695 0.67917 0.0
H2065 H 0.36795 0.25174 0.68815 0.0
H2066 H 0.41903 0.28894 0.66917 0.0
C2067 C 0.46182 0.35099 0.69904 0.0
C2068 C 0.41866 0.30211 0.7042 0.0
C2069 C 0.47398 0.37033 0.70499 0.0
C2070 C 0.36316 0.22519 0.67755 0.0
C2071 C 0.37475 0.24507 0.68269 0.0
C2072 C 0.4189 0.29244 0.67898 0.0
C2073 C 0.44289 0.33842 0.70278 0.0
C2074 C 0.43039 0.31739 0.69698 0.0
C2075 C 0.39485 0.2563 0.68064 0.0
C2076 C 0.40712 0.27731 0.68622 0.0
H2077 H 0.44326 0.37036 0.72602 0.0
H2078 H 0.42165 0.33691 0.71535 0.0
H2079 H 0.43887 0.32365 0.67836 0.0
H2080 H 0.39842 0.22058 0.66294 0.0
H2081 H 0.41867 0.25561 0.67175 0.0
C2082 C 0.65388 0.10415 0.73825 0.0
C2083 C 0.63716 0.10262 0.73141 0.0
C2084 C 0.6716 0.11026 0.73288 0.0
C2085 C 0.69122 0.11201 0.70306 0.0
H2086 H 0.74098 0.15519 0.71992 0.0
C2087 C 0.76232 0.1472 0.67843 0.0
C2088 C 0.78055 0.15328 0.6854 0.0
C2089 C 0.74508 0.14124 0.68428 0.0
C2090 C 0.72729 0.14289 0.71516 0.0
H2091 H 0.62621 0.10666 0.71356 0.0
H2092 H 0.6569 0.11662 0.70411 0.0
H2093 H 0.71036 0.14378 0.72979 0.0
H2094 H 0.79505 0.15788 0.70399 0.0
H2095 H 0.76484 0.14683 0.7142 0.0
H2096 H 0.70798 0.11064 0.68857 0.0
C2097 C 0.6562 0.11304 0.71363 0.0
C2098 C 0.70976 0.13644 0.72081 0.0
C2099 C 0.63859 0.10722 0.71904 0.0
C2100 C 0.78122 0.1534 0.69837 0.0
C2101 C 0.7639 0.14715 0.70423 0.0
C2102 C 0.70875 0.11825 0.69749 0.0
C2103 C 0.67288 0.11468 0.72051 0.0
C2104 C 0.69156 0.12107 0.71476 0.0
C2105 C 0.74557 0.1409 0.69725 0.0
C2106 C 0.727 0.13392 0.7034 0.0
H2107 H 0.65326 0.1004 0.74772 0.0
H2108 H 0.68422 0.11123 0.73833 0.0
H2109 H 0.67738 0.09994 0.69828 0.0
H2110 H 0.76138 0.14716 0.66842 0.0
H2111 H 0.73138 0.13701 0.67862 0.0
C2112 C 0.92713 0.56682 0.71882 0.0
C2113 C 0.92037 0.5468 0.7146 0.0
C2114 C 0.91895 0.57718 0.71319 0.0
C2115 C 0.88706 0.57433 0.68509 0.0
H2116 H 0.88 0.6122 0.70609 0.0
C2117 C 0.83626 0.6057 0.67023 0.0
C2118 C 0.84537 0.62662 0.67187 0.0
C2119 C 0.84592 0.59623 0.67523 0.0
C2120 C 0.88199 0.60173 0.70013 0.0
H2121 H 0.89979 0.52179 0.7013 0.0
H2122 H 0.88494 0.53951 0.69174 0.0
H2123 H 0.89605 0.59518 0.71514 0.0
H2124 H 0.87172 0.65406 0.67988 0.0
H2125 H 0.88825 0.63742 0.68902 0.0
H2126 H 0.87222 0.58046 0.67019 0.0
C2127 C 0.89699 0.54755 0.6991 0.0
C2128 C 0.89132 0.59206 0.70527 0.0
C2129 C 0.90543 0.53733 0.7046 0.0
C2130 C 0.86423 0.6379 0.67863 0.0
C2131 C 0.8737 0.62842 0.68383 0.0
C2132 C 0.87742 0.58375 0.68001 0.0
C2133 C 0.90356 0.56759 0.70337 0.0
C2134 C 0.894 0.57823 0.69782 0.0
C2135 C 0.86467 0.60752 0.68211 0.0
C2136 C 0.87484 0.59753 0.68749 0.0
H2137 H 0.93876 0.57446 0.72647 0.0
H2138 H 0.92472 0.59271 0.71656 0.0
H2139 H 0.88919 0.5641 0.679 0.0
H2140 H 0.82175 0.59667 0.66501 0.0
H2141 H 0.83864 0.58008 0.67384 0.0
C2142 C 0.45769 0.96769 0.17765 0.0
C2143 C 0.47298 0.96758 0.18514 0.0
C2144 C 0.46107 0.9747 0.16597 0.0
C2145 C 0.50035 0.00544 0.14676 0.0
H2146 H 0.46369 0.96903 0.11902 0.0
C2147 C 0.52141 0.01074 0.09673 0.0
C2148 C 0.50663 0.00544 0.08681 0.0
C2149 C 0.5165 0.00824 0.1089 0.0
C2150 C 0.47388 0.97961 0.12664 0.0
H2151 H 0.50394 0.97552 0.18661 0.0
H2152 H 0.50991 0.98797 0.16627 0.0
H2153 H 0.4565 0.96146 0.14019 0.0
H2154 H 0.47506 0.99368 0.08201 0.0
H2155 H 0.4666 0.99 0.10329 0.0
H2156 H 0.5178 0.02359 0.13327 0.0
C2157 C 0.49532 0.98258 0.16939 0.0
C2158 C 0.46976 0.97522 0.13877 0.0
C2159 C 0.49188 0.97532 0.18097 0.0
C2160 C 0.48686 0.99807 0.08942 0.0
C2161 C 0.48196 0.99572 0.10162 0.0
C2162 C 0.50438 0.00995 0.13463 0.0
C2163 C 0.47986 0.98201 0.16168 0.0
C2164 C 0.48315 0.98788 0.14893 0.0
C2165 C 0.49669 0.00057 0.11151 0.0
C2166 C 0.49142 0.99686 0.12441 0.0
H2167 H 0.44296 0.9617 0.18063 0.0
H2168 H 0.44893 0.9742 0.16023 0.0
H2169 H 0.5108 0.01558 0.15444 0.0
H2170 H 0.53683 0.01678 0.0951 0.0
H2171 H 0.52822 0.0119 0.11623 0.0
C2172 C 0.01568 0.49669 0.18526 0.0
C2173 C 0.03454 0.51014 0.19155 0.0
C2174 C 0.01254 0.49507 0.1723 0.0
C2175 C 0.03282 0.52423 0.14619 0.0
H2176 H 0.00211 0.47347 0.1257 0.0
C2177 C 0.02793 0.52034 0.09306 0.0
C2178 C 0.00924 0.5075 0.08643 0.0
C2179 C 0.03114 0.51935 0.10573 0.0
C2180 C 0.01055 0.48776 0.13131 0.0
H2181 H 0.06512 0.53163 0.18912 0.0
H2182 H 0.05959 0.52894 0.16659 0.0
H2183 H 0.0072 0.47405 0.14823 0.0
H2184 H 0.97935 0.4833 0.08776 0.0
H2185 H 0.98486 0.48174 0.10996 0.0
H2186 H 0.03597 0.53804 0.12942 0.0
C2187 C 0.04715 0.51992 0.17168 0.0
C2188 C 0.01348 0.48808 0.1442 0.0
C2189 C 0.0503 0.52148 0.18459 0.0
C2190 C 0.99396 0.49327 0.09263 0.0
C2191 C 0.99714 0.49237 0.10534 0.0
C2192 C 0.02983 0.52392 0.13336 0.0
C2193 C 0.02819 0.50691 0.1654 0.0
C2194 C 0.02475 0.50633 0.15175 0.0
C2195 C 0.01569 0.50561 0.11208 0.0
C2196 C 0.01877 0.5057 0.12574 0.0
H2197 H 0.00321 0.48784 0.19037 0.0
H2198 H 0.99773 0.48501 0.16771 0.0
H2199 H 0.04125 0.53854 0.15179 0.0
H2200 H 0.04007 0.53122 0.08846 0.0
H2201 H 0.04575 0.52946 0.11057 0.0
C2202 C 0.45998 0.49514 0.17849 0.0
C2203 C 0.47452 0.51002 0.18743 0.0
C2204 C 0.46379 0.49424 0.16611 0.0
C2205 C 0.50427 0.50952 0.14616 0.0
H2206 H 0.46563 0.50593 0.12034 0.0
C2207 C 0.52364 0.52613 0.09636 0.0
C2208 C 0.50895 0.51488 0.08639 0.0
C2209 C 0.519 0.52412 0.1086 0.0
C2210 C 0.47645 0.50659 0.1274 0.0
H2211 H 0.50445 0.53569 0.19028 0.0
H2212 H 0.51118 0.53379 0.16877 0.0
H2213 H 0.45828 0.50456 0.14191 0.0
H2214 H 0.4778 0.49262 0.08155 0.0
H2215 H 0.46988 0.4886 0.10293 0.0
H2216 H 0.52241 0.51142 0.13173 0.0
C2217 C 0.4969 0.52276 0.17138 0.0
C2218 C 0.47223 0.50585 0.13975 0.0
C2219 C 0.49304 0.52379 0.18372 0.0
C2220 C 0.48954 0.50138 0.08899 0.0
C2221 C 0.48493 0.49926 0.10126 0.0
C2222 C 0.50841 0.51007 0.13381 0.0
C2223 C 0.48227 0.50807 0.16244 0.0
C2224 C 0.48621 0.50757 0.14927 0.0
C2225 C 0.4996 0.51067 0.11122 0.0
C2226 C 0.49467 0.50889 0.12428 0.0
H2227 H 0.44568 0.48408 0.18105 0.0
H2228 H 0.45233 0.48263 0.15941 0.0
H2229 H 0.51519 0.5106 0.15331 0.0
H2230 H 0.53881 0.53645 0.09472 0.0
H2231 H 0.53062 0.53336 0.11601 0.0
C2232 C 0.98488 0.48543 0.81536 0.0
C2233 C 0.98225 0.50028 0.81026 0.0
C2234 C 0.98882 0.48626 0.82818 0.0
C2235 C 0.9808 0.50527 0.85756 0.0
H2236 H 0.01982 0.49297 0.8717 0.0
C2237 C 0.99506 0.50547 0.91051 0.0
C2238 C 0.99785 0.49002 0.9144 0.0
C2239 C 0.99471 0.50854 0.89796 0.0
C2240 C 0.00873 0.49625 0.8679 0.0
H2241 H 0.98243 0.52805 0.81468 0.0
H2242 H 0.98891 0.52922 0.83712 0.0
H2243 H 0.0167 0.49516 0.84943 0.0
H2244 H 0.00287 0.46593 0.90812 0.0
H2245 H 0.00151 0.47077 0.88627 0.0
H2246 H 0.97235 0.50574 0.87591 0.0
C2247 C 0.98779 0.5169 0.83114 0.0
C2248 C 0.00701 0.49757 0.85515 0.0
C2249 C 0.98403 0.51618 0.8183 0.0
C2250 C 0.00037 0.47778 0.90545 0.0
C2251 C -8e-05 0.48077 0.89291 0.0
C2252 C 0.9824 0.50378 0.8703 0.0
C2253 C 0.99006 0.50186 0.8362 0.0
C2254 C 0.99289 0.50188 0.84984 0.0
C2255 C 0.99709 0.49619 0.889 0.0
C2256 C 0.99622 0.49901 0.8756 0.0
H2257 H 0.98325 0.47277 0.8095 0.0
H2258 H 0.99023 0.47431 0.83184 0.0
H2259 H 0.96962 0.50838 0.85368 0.0
H2260 H 0.9929 0.51507 0.91715 0.0
H2261 H 0.9927 0.52068 0.89529 0.0
C2262 C 0.5337 0.47622 0.82338 0.0
C2263 C 0.52992 0.48744 0.8151 0.0
C2264 C 0.53103 0.47783 0.83591 0.0
C2265 C 0.52706 0.50944 0.86093 0.0
H2266 H 0.49684 0.45926 0.87484 0.0
C2267 C 0.49814 0.50436 0.90934 0.0
C2268 C 0.49797 0.48975 0.91643 0.0
C2269 C 0.50312 0.5052 0.89714 0.0
C2270 C 0.50557 0.47343 0.87119 0.0
H2271 H 0.52098 0.50967 0.81359 0.0
H2272 H 0.51653 0.51263 0.8356 0.0
H2273 H 0.50394 0.45901 0.85334 0.0
H2274 H 0.50379 0.46522 0.91656 0.0
H2275 H 0.51289 0.46691 0.89541 0.0
H2276 H 0.52883 0.52387 0.87885 0.0
C2277 C 0.52158 0.50261 0.83233 0.0
C2278 C 0.50958 0.47327 0.85885 0.0
C2279 C 0.52415 0.50092 0.81974 0.0
C2280 C 0.50345 0.4764 0.91123 0.0
C2281 C 0.5086 0.47735 0.89909 0.0
C2282 C 0.52316 0.50961 0.87335 0.0
C2283 C 0.52464 0.49079 0.84048 0.0
C2284 C 0.52042 0.49125 0.85359 0.0
C2285 C 0.50819 0.49154 0.89182 0.0
C2286 C 0.51242 0.49159 0.87863 0.0
H2287 H 0.53863 0.46607 0.82017 0.0
H2288 H 0.53388 0.46883 0.84203 0.0
H2289 H 0.53555 0.52352 0.85713 0.0
H2290 H 0.49383 0.51474 0.91311 0.0
H2291 H 0.50244 0.51617 0.89177 0.0
C2292 C 0.53991 0.03733 0.8262 0.0
C2293 C 0.52602 0.03868 0.81803 0.0
C2294 C 0.53572 0.03236 0.83825 0.0
C2295 C 0.50356 0.03227 0.86195 0.0
H2296 H 0.51836 0.9972 0.87745 0.0
C2297 C 0.475 0.00075 0.90761 0.0
C2298 C 0.48902 0.00168 0.91681 0.0
C2299 C 0.47992 0.00491 0.89559 0.0
C2300 C 0.51431 0.00716 0.87326 0.0
H2301 H 0.4968 0.03576 0.81613 0.0
H2302 H 0.48927 0.02652 0.83693 0.0
H2303 H 0.52607 0.00492 0.85628 0.0
H2304 H 0.51922 0.00749 0.92048 0.0
H2305 H 0.5277 0.01445 0.89935 0.0
H2306 H 0.49161 0.03433 0.87885 0.0
C2307 C 0.50354 0.0296 0.83412 0.0
C2308 C 0.51874 0.01161 0.86116 0.0
C2309 C 0.50774 0.03463 0.82212 0.0
C2310 C 0.50798 0.00642 0.9136 0.0
C2311 C 0.51287 0.01044 0.90151 0.0
C2312 C 0.49904 0.02773 0.87399 0.0
C2313 C 0.51755 0.02863 0.84239 0.0
C2314 C 0.51328 0.02411 0.85533 0.0
C2315 C 0.49895 0.00995 0.89243 0.0
C2316 C 0.50425 0.01504 0.87974 0.0
H2317 H 0.55405 0.04016 0.8233 0.0
H2318 H 0.5469 0.03186 0.84441 0.0
H2319 H 0.49955 0.04232 0.85786 0.0
H2320 H 0.46012 0.9967 0.90968 0.0
H2321 H 0.46878 0.00407 0.88872 0.0
C2322 C 0.12409 0.27827 0.5062 0.0
C2323 C 0.13047 0.29216 0.51682 0.0
C2324 C 0.12641 0.28463 0.49436 0.0
C2325 C 0.1566 0.3287 0.47827 0.0
H2326 H 0.11765 0.29678 0.45022 0.0
C2327 C 0.16747 0.35053 0.42816 0.0
C2328 C 0.16424 0.33499 0.41924 0.0
C2329 C 0.16156 0.34644 0.44005 0.0
C2330 C 0.12867 0.30582 0.45797 0.0
H2331 H 0.14396 0.32365 0.5233 0.0
H2332 H 0.14763 0.33475 0.50257 0.0
H2333 H 0.11037 0.28772 0.47118 0.0
H2334 H 0.15166 0.30296 0.41557 0.0
H2335 H 0.14142 0.29582 0.43632 0.0
H2336 H 0.17499 0.34665 0.46501 0.0
C2337 C 0.14108 0.31893 0.50343 0.0
C2338 C 0.12453 0.30062 0.46997 0.0
C2339 C 0.13879 0.31256 0.5153 0.0
C2340 C 0.15452 0.31525 0.42231 0.0
C2341 C 0.14848 0.31114 0.43414 0.0
C2342 C 0.1607 0.33396 0.46627 0.0
C2343 C 0.13508 0.30505 0.49283 0.0
C2344 C 0.13861 0.31176 0.48024 0.0
C2345 C 0.15214 0.32671 0.44318 0.0
C2346 C 0.14693 0.32234 0.45598 0.0
H2347 H 0.11736 0.26242 0.50703 0.0
H2348 H 0.12184 0.27354 0.48642 0.0
H2349 H 0.16788 0.33746 0.48595 0.0
H2350 H 0.17502 0.3659 0.42606 0.0
H2351 H 0.16445 0.3587 0.44682 0.0
C2352 C 0.71705 0.85562 0.51804 0.0
C2353 C 0.70123 0.84425 0.52495 0.0
C2354 C 0.71393 0.85433 0.50514 0.0
C2355 C 0.68011 0.82338 0.47749 0.0
H2356 H 0.70288 0.87388 0.46334 0.0
C2357 C 0.66061 0.83007 0.42625 0.0
C2358 C 0.67593 0.84439 0.42011 0.0
C2359 C 0.66377 0.82889 0.43892 0.0
C2360 C 0.69666 0.85962 0.46709 0.0
H2361 H 0.66983 0.82214 0.52369 0.0
H2362 H 0.66441 0.81981 0.50105 0.0
H2363 H 0.70823 0.87369 0.48563 0.0
H2364 H 0.7068 0.86803 0.42224 0.0
H2365 H 0.71245 0.86578 0.44427 0.0
H2366 H 0.66861 0.80932 0.4589 0.0
C2367 C 0.67923 0.82967 0.50567 0.0
C2368 C 0.6997 0.85953 0.47988 0.0
C2369 C 0.68234 0.831 0.51862 0.0
C2370 C 0.69463 0.85708 0.42679 0.0
C2371 C 0.69782 0.85582 0.43941 0.0
C2372 C 0.67715 0.82347 0.46465 0.0
C2373 C 0.69494 0.84159 0.49883 0.0
C2374 C 0.69151 0.84143 0.48522 0.0
C2375 C 0.68235 0.84193 0.44568 0.0
C2376 C 0.68546 0.84161 0.4593 0.0
H2377 H 0.73188 0.8656 0.52261 0.0
H2378 H 0.72641 0.8634 0.5001 0.0
H2379 H 0.67375 0.8092 0.48136 0.0
H2380 H 0.646 0.8202 0.42134 0.0
H2381 H 0.65146 0.81817 0.44348 0.0
C2382 C 0.12533 0.82807 0.51055 0.0
C2383 C 0.14014 0.8422 0.51969 0.0
C2384 C 0.12923 0.82736 0.49818 0.0
C2385 C 0.16987 0.84142 0.47845 0.0
H2386 H 0.13274 0.84076 0.4527 0.0
C2387 C 0.19069 0.85887 0.42895 0.0
C2388 C 0.17597 0.84842 0.41888 0.0
C2389 C 0.18583 0.85673 0.44115 0.0
C2390 C 0.14312 0.8406 0.45973 0.0
H2391 H 0.17067 0.86678 0.52287 0.0
H2392 H 0.17752 0.86519 0.50137 0.0
H2393 H 0.12504 0.83907 0.4742 0.0
H2394 H 0.14453 0.82745 0.4138 0.0
H2395 H 0.13619 0.82318 0.43509 0.0
H2396 H 0.18791 0.84281 0.46405 0.0
C2397 C 0.16295 0.85458 0.50382 0.0
C2398 C 0.13871 0.83968 0.47205 0.0
C2399 C 0.15901 0.85543 0.51616 0.0
C2400 C 0.15629 0.83558 0.42133 0.0
C2401 C 0.15146 0.83333 0.43354 0.0
C2402 C 0.1742 0.84215 0.46613 0.0
C2403 C 0.14807 0.84064 0.4947 0.0
C2404 C 0.15216 0.84034 0.48155 0.0
C2405 C 0.16616 0.84394 0.44361 0.0
C2406 C 0.16101 0.84202 0.45663 0.0
H2407 H 0.11074 0.81744 0.51296 0.0
H2408 H 0.11755 0.81633 0.49134 0.0
H2409 H 0.18037 0.84167 0.48557 0.0
H2410 H 0.20604 0.86867 0.42743 0.0
H2411 H 0.1975 0.86536 0.44865 0.0
C2412 C 0.64426 0.81312 0.14963 0.0
C2413 C 0.63981 0.827 0.14479 0.0
C2414 C 0.64851 0.81389 0.16241 0.0
C2415 C 0.63897 0.83046 0.19217 0.0
H2416 H 0.68148 0.82267 0.20574 0.0
C2417 C 0.6562 0.83283 0.24499 0.0
C2418 C 0.66072 0.81848 0.2489 0.0
C2419 C 0.65506 0.83551 0.23241 0.0
C2420 C 0.66942 0.82467 0.20209 0.0
H2421 H 0.63705 0.85302 0.14962 0.0
H2422 H 0.64414 0.85411 0.17197 0.0
H2423 H 0.6771 0.82441 0.18348 0.0
H2424 H 0.66802 0.79602 0.24264 0.0
H2425 H 0.66532 0.80017 0.22072 0.0
H2426 H 0.63089 0.83017 0.21067 0.0
C2427 C 0.64416 0.84255 0.16584 0.0
C2428 C 0.66697 0.82572 0.18935 0.0
C2429 C 0.64005 0.84187 0.15304 0.0
C2430 C 0.66421 0.807 0.23994 0.0
C2431 C 0.66296 0.8096 0.22737 0.0
C2432 C 0.64133 0.82926 0.2049 0.0
C2433 C 0.64829 0.82847 0.17065 0.0
C2434 C 0.65162 0.82847 0.18425 0.0
C2435 C 0.65833 0.82385 0.22344 0.0
C2436 C 0.65647 0.82616 0.21 0.0
H2437 H 0.64389 0.80126 0.14358 0.0
H2438 H 0.65138 0.80268 0.16587 0.0
H2439 H 0.62685 0.83233 0.18848 0.0
H2440 H 0.65326 0.84182 0.25162 0.0
H2441 H 0.65168 0.84678 0.22972 0.0
C2442 C 0.19915 0.81194 0.15666 0.0
C2443 C 0.1946 0.82255 0.14828 0.0
C2444 C 0.19618 0.81328 0.16914 0.0
C2445 C 0.18978 0.84327 0.19401 0.0
H2446 H 0.16151 0.79257 0.20768 0.0
C2447 C 0.16039 0.83588 0.24238 0.0
C2448 C 0.16124 0.8217 0.24942 0.0
C2449 C 0.16532 0.83712 0.23016 0.0
C2450 C 0.16968 0.80689 0.20409 0.0
H2451 H 0.18408 0.84352 0.14658 0.0
H2452 H 0.17907 0.84601 0.16854 0.0
H2453 H 0.16899 0.7931 0.18624 0.0
H2454 H 0.16876 0.79833 0.24944 0.0
H2455 H 0.17774 0.8007 0.22825 0.0
H2456 H 0.19064 0.85708 0.21195 0.0
C2457 C 0.18493 0.83665 0.16536 0.0
C2458 C 0.17391 0.80717 0.19178 0.0
C2459 C 0.18781 0.83523 0.15281 0.0
C2460 C 0.16762 0.80915 0.24414 0.0
C2461 C 0.17271 0.8105 0.23199 0.0
C2462 C 0.18567 0.84301 0.2064 0.0
C2463 C 0.1887 0.82535 0.17358 0.0
C2464 C 0.18409 0.82534 0.18663 0.0
C2465 C 0.17134 0.82429 0.22478 0.0
C2466 C 0.17566 0.8248 0.2116 0.0
H2467 H 0.20488 0.80243 0.15354 0.0
H2468 H 0.19961 0.80472 0.17532 0.0
H2469 H 0.19774 0.85749 0.19027 0.0
H2470 H 0.15537 0.84564 0.24621 0.0
H2471 H 0.16389 0.84776 0.22484 0.0
C2472 C 0.18173 0.37829 0.15841 0.0
C2473 C 0.1964 0.37636 0.15261 0.0
C2474 C 0.17849 0.37382 0.17061 0.0
C2475 C 0.18414 0.34472 0.19399 0.0
H2476 H 0.17999 0.38215 0.21731 0.0
C2477 C 0.17582 0.33271 0.24578 0.0
C2478 C 0.16284 0.33758 0.25145 0.0
C2479 C 0.18101 0.338 0.23392 0.0
C2480 C 0.18086 0.37141 0.21089 0.0
H2481 H 0.21898 0.36796 0.15491 0.0
H2482 H 0.21315 0.3599 0.17629 0.0
H2483 H 0.18664 0.38995 0.1961 0.0
H2484 H 0.14492 0.35156 0.24915 0.0
H2485 H 0.15358 0.36042 0.22837 0.0
H2486 H 0.17783 0.32589 0.20863 0.0
C2487 C 0.20423 0.36494 0.17137 0.0
C2488 C 0.18474 0.37593 0.19876 0.0
C2489 C 0.20764 0.36965 0.1592 0.0
C2490 C 0.15518 0.34787 0.24506 0.0
C2491 C 0.16021 0.35299 0.23316 0.0
C2492 C 0.18005 0.34008 0.2061 0.0
C2493 C 0.18973 0.36714 0.17721 0.0
C2494 C 0.18629 0.36258 0.19018 0.0
C2495 C 0.17318 0.34812 0.22743 0.0
C2496 C 0.17823 0.35332 0.21468 0.0
H2497 H 0.17298 0.3836 0.15359 0.0
H2498 H 0.1671 0.37546 0.17486 0.0
H2499 H 0.18509 0.33409 0.18751 0.0
H2500 H 0.18211 0.32497 0.25057 0.0
H2501 H 0.19129 0.33431 0.22988 0.0
C2502 C 0.80101 0.64073 0.8467 0.0
C2503 C 0.79419 0.62066 0.84856 0.0
C2504 C 0.80333 0.64675 0.83475 0.0
C2505 C 0.78978 0.62712 0.80127 0.0
H2506 H 0.83766 0.67652 0.79697 0.0
C2507 C 0.82272 0.64509 0.75455 0.0
C2508 C 0.82993 0.66456 0.75127 0.0
C2509 C 0.8163 0.64035 0.76624 0.0
C2510 C 0.82408 0.66284 0.79805 0.0
H2511 H 0.78376 0.59106 0.83923 0.0
H2512 H 0.78849 0.60163 0.8185 0.0
H2513 H 0.83017 0.6671 0.81782 0.0
H2514 H 0.83592 0.69429 0.75756 0.0
H2515 H 0.82481 0.68603 0.77811 0.0
H2516 H 0.78416 0.62257 0.78142 0.0
C2517 C 0.79178 0.61272 0.82623 0.0
C2518 C 0.81975 0.65744 0.80999 0.0
C2519 C 0.78935 0.60669 0.83816 0.0
C2520 C 0.83033 0.67915 0.75984 0.0
C2521 C 0.82412 0.67446 0.7716 0.0
C2522 C 0.79422 0.63244 0.78932 0.0
C2523 C 0.79897 0.63285 0.82438 0.0
C2524 C 0.80269 0.63937 0.81175 0.0
C2525 C 0.81714 0.65504 0.77493 0.0
C2526 C 0.81154 0.65021 0.78759 0.0
H2527 H 0.80503 0.65192 0.85451 0.0
H2528 H 0.80867 0.66233 0.83365 0.0
H2529 H 0.77632 0.6133 0.80228 0.0
H2530 H 0.82208 0.63352 0.74807 0.0
H2531 H 0.81116 0.62531 0.7686 0.0
C2532 C 0.34681 0.15991 0.85226 0.0
C2533 C 0.36599 0.17266 0.85837 0.0
C2534 C 0.34342 0.15821 0.8393 0.0
C2535 C 0.36448 0.18693 0.81315 0.0
H2536 H 0.33091 0.13682 0.79252 0.0
C2537 C 0.35883 0.18369 0.76006 0.0
C2538 C 0.33988 0.17183 0.7535 0.0
C2539 C 0.36196 0.18235 0.77267 0.0
C2540 C 0.34016 0.15095 0.79817 0.0
H2541 H 0.39684 0.19256 0.85563 0.0
H2542 H 0.39092 0.18968 0.83311 0.0
H2543 H 0.33622 0.13686 0.81499 0.0
H2544 H 0.30941 0.14899 0.75494 0.0
H2545 H 0.31479 0.14683 0.77707 0.0
H2546 H 0.36824 0.20114 0.79652 0.0
C2547 C 0.37843 0.18134 0.83833 0.0
C2548 C 0.34321 0.15095 0.81103 0.0
C2549 C 0.38181 0.183 0.85123 0.0
C2550 C 0.32422 0.15821 0.75975 0.0
C2551 C 0.32732 0.15695 0.77242 0.0
C2552 C 0.36137 0.18695 0.80036 0.0
C2553 C 0.35916 0.16924 0.83224 0.0
C2554 C 0.35553 0.16895 0.81862 0.0
C2555 C 0.34618 0.16922 0.77906 0.0
C2556 C 0.34929 0.16896 0.79269 0.0
H2557 H 0.33432 0.15182 0.85752 0.0
H2558 H 0.3284 0.14883 0.83485 0.0
H2559 H 0.37371 0.20109 0.8188 0.0
H2560 H 0.37125 0.19407 0.75542 0.0
H2561 H 0.37678 0.19169 0.77744 0.0
C2562 C 0.82629 0.18645 0.84993 0.0
C2563 C 0.80747 0.17329 0.85355 0.0
C2564 C 0.83019 0.18529 0.83761 0.0
C2565 C 0.80578 0.16991 0.80596 0.0
H2566 H 0.85489 0.17287 0.79788 0.0
C2567 C 0.82325 0.16632 0.75519 0.0
C2568 C 0.84292 0.17922 0.75277 0.0
C2569 C 0.81843 0.16379 0.7674 0.0
C2570 C 0.8412 0.17225 0.79998 0.0
H2571 H 0.77813 0.14824 0.847 0.0
H2572 H 0.78485 0.14662 0.82539 0.0
H2573 H 0.84746 0.17186 0.81943 0.0
H2574 H 0.87304 0.19921 0.76136 0.0
H2575 H 0.86453 0.19546 0.78256 0.0
H2576 H 0.79975 0.17097 0.78662 0.0
C2577 C 0.79653 0.15784 0.83216 0.0
C2578 C 0.83693 0.17159 0.81231 0.0
C2579 C 0.79268 0.15885 0.84452 0.0
C2580 C 0.85768 0.18939 0.76286 0.0
C2581 C 0.85284 0.18698 0.77505 0.0
C2582 C 0.81013 0.17077 0.79363 0.0
C2583 C 0.8153 0.17109 0.82859 0.0
C2584 C 0.81927 0.17059 0.81543 0.0
C2585 C 0.83315 0.17419 0.77748 0.0
C2586 C 0.828 0.17215 0.7905 0.0
H2587 H 0.83793 0.19802 0.85655 0.0
H2588 H 0.84471 0.19589 0.83507 0.0
H2589 H 0.79215 0.16936 0.80813 0.0
H2590 H 0.81146 0.1584 0.74766 0.0
H2591 H 0.80316 0.15363 0.76892 0.0
C2592 C 0.31804 0.14936 0.48265 0.0
C2593 C 0.31563 0.16431 0.47751 0.0
C2594 C 0.32213 0.15032 0.49546 0.0
C2595 C 0.31491 0.17017 0.52483 0.0
H2596 H 0.35324 0.15695 0.53896 0.0
C2597 C 0.32926 0.17074 0.5778 0.0
C2598 C 0.33156 0.15502 0.58175 0.0
C2599 C 0.32903 0.17375 0.56524 0.0
C2600 C 0.34234 0.1605 0.53516 0.0
H2601 H 0.31641 0.1924 0.48185 0.0
H2602 H 0.32316 0.19381 0.50427 0.0
H2603 H 0.35001 0.15889 0.51666 0.0
H2604 H 0.33589 0.13044 0.57555 0.0
H2605 H 0.33474 0.1352 0.55368 0.0
H2606 H 0.30676 0.17117 0.54322 0.0
C2607 C 0.32173 0.1813 0.49833 0.0
C2608 C 0.34056 0.16167 0.52239 0.0
C2609 C 0.31781 0.18045 0.4855 0.0
C2610 C 0.33377 0.1425 0.57284 0.0
C2611 C 0.33344 0.14543 0.56029 0.0
C2612 C 0.31658 0.16884 0.53759 0.0
C2613 C 0.32375 0.16615 0.50344 0.0
C2614 C 0.32667 0.16631 0.51709 0.0
C2615 C 0.33104 0.16107 0.55632 0.0
C2616 C 0.33015 0.16375 0.54289 0.0
H2617 H 0.31611 0.13654 0.47682 0.0
H2618 H 0.32334 0.13828 0.49916 0.0
H2619 H 0.30391 0.17354 0.52097 0.0
H2620 H 0.32735 0.18057 0.5844 0.0
H2621 H 0.32736 0.18606 0.56252 0.0
C2622 C 0.86608 0.14117 0.49053 0.0
C2623 C 0.86241 0.15243 0.48222 0.0
C2624 C 0.86314 0.14263 0.50302 0.0
C2625 C 0.85876 0.17411 0.52792 0.0
H2626 H 0.82845 0.12395 0.54182 0.0
C2627 C 0.82938 0.16932 0.57611 0.0
C2628 C 0.8292 0.15483 0.58331 0.0
C2629 C 0.83438 0.16998 0.56392 0.0
C2630 C 0.8372 0.13812 0.53817 0.0
H2631 H 0.85332 0.17452 0.48063 0.0
H2632 H 0.84842 0.17726 0.50257 0.0
H2633 H 0.83584 0.12369 0.52038 0.0
H2634 H 0.83494 0.13027 0.58365 0.0
H2635 H 0.84408 0.13165 0.5625 0.0
H2636 H 0.8603 0.18856 0.54577 0.0
C2637 C 0.85359 0.16731 0.49935 0.0
C2638 C 0.84138 0.13795 0.52586 0.0
C2639 C 0.85642 0.16576 0.48681 0.0
C2640 C 0.83462 0.14137 0.57822 0.0
C2641 C 0.83979 0.14214 0.56609 0.0
C2642 C 0.85471 0.1743 0.5403 0.0
C2643 C 0.8566 0.15549 0.50753 0.0
C2644 C 0.85224 0.15592 0.52061 0.0
C2645 C 0.83947 0.15627 0.55872 0.0
C2646 C 0.84391 0.15628 0.54558 0.0
H2647 H 0.87117 0.13112 0.48738 0.0
H2648 H 0.86594 0.13363 0.50916 0.0
H2649 H 0.86729 0.1882 0.52412 0.0
H2650 H 0.8251 0.17978 0.57978 0.0
H2651 H 0.83374 0.1809 0.55847 0.0
C2652 C 0.87645 0.72063 0.49549 0.0
C2653 C 0.86506 0.70688 0.48511 0.0
C2654 C 0.8729 0.71531 0.50751 0.0
C2655 C 0.84764 0.67168 0.52548 0.0
H2656 H 0.85052 0.71156 0.55029 0.0
C2657 C 0.81599 0.65369 0.57286 0.0
C2658 C 0.82802 0.6667 0.58338 0.0
C2659 C 0.82142 0.65817 0.56094 0.0
C2660 C 0.84987 0.70035 0.54349 0.0
H2661 H 0.84128 0.6765 0.4793 0.0
H2662 H 0.83454 0.66747 0.50028 0.0
H2663 H 0.8581 0.72006 0.52932 0.0
H2664 H 0.85551 0.69436 0.58955 0.0
H2665 H 0.8647 0.70237 0.5687 0.0
H2666 H 0.83883 0.65183 0.53968 0.0
C2667 C 0.84649 0.68229 0.49912 0.0
C2668 C 0.85427 0.70521 0.53148 0.0
C2669 C 0.85017 0.68756 0.48707 0.0
C2670 C 0.8457 0.6842 0.58167 0.0
C2671 C 0.85102 0.68877 0.56973 0.0
C2672 C 0.84304 0.66676 0.53749 0.0
C2673 C 0.8577 0.69617 0.50949 0.0
C2674 C 0.85324 0.69095 0.52232 0.0
C2675 C 0.83889 0.67584 0.55926 0.0
C2676 C 0.84412 0.68106 0.5466 0.0
H2677 H 0.88786 0.73573 0.49437 0.0
H2678 H 0.88205 0.72628 0.51526 0.0
H2679 H 0.84698 0.66042 0.51873 0.0
H2680 H 0.80212 0.64025 0.5738 0.0
H2681 H 0.81168 0.64806 0.55301 0.0
loop_
_geom_bond_atom_site_label_1
_geom_bond_atom_site_label_2
_geom_bond_distance
_geom_bond_site_symmetry_2
_ccdc_geom_bond_type
C0 C1 1.386 . S
C0 C2 1.397 . S
C0 H24 0.931 . S
C1 C0 1.386 . S
C1 C5 1.397 . S
C2 C0 1.397 . S
C2 C3 1.384 . S
C2 H25 0.930 . S
C3 C2 1.384 . S
C3 C4 1.377 . S
C3 C6 1.481 . S
C4 C3 1.377 . S
C4 C5 1.389 . S
C4 H26 0.929 . S
C5 C1 1.397 . S
C5 C4 1.389 . S
C5 H27 0.931 . S
C6 C3 1.481 . S
C6 C7 1.387 . S
C6 C11 1.390 . S
C7 C6 1.387 . S
C7 C8 1.401 . S
C7 H28 0.930 . S
C8 C7 1.401 . S
C8 C9 1.376 . S
C8 C17 1.511 . S
C9 C8 1.376 . S
C9 C10 1.392 . S
C9 H30 0.931 . S
C10 C9 1.392 . S
C10 C11 1.361 . S
C10 C12 1.500 . S
C11 C6 1.390 . S
C11 C10 1.361 . S
C11 H29 0.931 . S
C12 C10 1.500 . S
C12 C13 1.371 . S
C12 C14 1.365 . S
C13 C12 1.371 . S
C13 C23 1.386 . S
C13 H31 0.931 . S
C14 C12 1.365 . S
C14 C15 1.409 . S
C14 H32 0.929 . S
C15 C14 1.409 . S
C15 C16 1.380 . S
C15 H33 0.930 . S
C16 C15 1.380 . S
C16 C23 1.357 . S
C17 C8 1.511 . S
C17 C18 1.341 . S
C17 C19 1.371 . S
C18 C17 1.341 . S
C18 C22 1.394 . S
C18 H34 0.930 . S
C19 C17 1.371 . S
C19 C20 1.392 . S
C19 H35 0.931 . S
C20 C19 1.392 . S
C20 C21 1.331 . S
C20 H38 0.932 . S
C21 C20 1.331 . S
C21 C22 1.336 . S
C22 C18 1.394 . S
C22 C21 1.336 . S
C22 H37 0.929 . S
C23 C13 1.386 . S
C23 C16 1.357 . S
C23 H36 0.928 . S
H24 C0 0.931 . S
H25 C2 0.930 . S
H26 C4 0.929 . S
H27 C5 0.931 . S
H28 C7 0.930 . S
H29 C11 0.931 . S
H30 C9 0.931 . S
H31 C13 0.931 . S
H32 C14 0.929 . S
H33 C15 0.930 . S
H34 C18 0.930 . S
H35 C19 0.931 . S
H36 C23 0.928 . S
H37 C22 0.929 . S
H38 C20 0.932 . S
C39 C40 1.386 . S
C39 C41 1.397 . S
C39 H63 0.931 . S
C40 C39 1.386 . S
C40 C44 1.397 . S
C41 C39 1.397 . S
C41 C42 1.384 . S
C41 H64 0.930 . S
C42 C41 1.384 . S
C42 C43 1.377 . S
C42 C45 1.481 . S
C43 C42 1.377 . S
C43 C44 1.389 . S
C43 H65 0.929 . S
C44 C40 1.397 . S
C44 C43 1.389 . S
C44 H66 0.931 . S
C45 C42 1.481 . S
C45 C46 1.387 . S
C45 C50 1.390 . S
C46 C45 1.387 . S
C46 C47 1.401 . S
C46 H67 0.930 . S
C47 C46 1.401 . S
C47 C48 1.376 . S
C47 C56 1.511 . S
C48 C47 1.376 . S
C48 C49 1.392 . S
C48 H69 0.931 . S
C49 C48 1.392 . S
C49 C50 1.361 . S
C49 C51 1.500 . S
C50 C45 1.390 . S
C50 C49 1.361 . S
C50 H68 0.931 . S
C51 C49 1.500 . S
C51 C52 1.371 . S
C51 C53 1.365 . S
C52 C51 1.371 . S
C52 C62 1.386 . S
C52 H70 0.931 . S
C53 C51 1.365 . S
C53 C54 1.409 . S
C53 H71 0.929 . S
C54 C53 1.409 . S
C54 C55 1.380 . S
C54 H72 0.930 . S
C55 C54 1.380 . S
C55 C62 1.357 . S
C56 C47 1.511 . S
C56 C57 1.341 . S
C56 C58 1.371 . S
C57 C56 1.341 . S
C57 C61 1.394 . S
C57 H73 0.930 . S
C58 C56 1.371 . S
C58 C59 1.392 . S
C58 H74 0.931 . S
C59 C58 1.392 . S
C59 C60 1.331 . S
C59 H77 0.932 . S
C60 C59 1.331 . S
C60 C61 1.336 . S
C61 C57 1.394 . S
C61 C60 1.336 . S
C61 H76 0.929 . S
C62 C52 1.386 . S
C62 C55 1.357 . S
C62 H75 0.928 . S
H63 C39 0.931 . S
H64 C41 0.930 . S
H65 C43 0.929 . S
H66 C44 0.931 . S
H67 C46 0.930 . S
H68 C50 0.931 . S
H69 C48 0.931 . S
H70 C52 0.931 . S
H71 C53 0.929 . S
H72 C54 0.930 . S
H73 C57 0.930 . S
H74 C58 0.931 . S
H75 C62 0.928 . S
H76 C61 0.929 . S
H77 C59 0.932 . S
C78 C79 1.386 . S
C78 C80 1.397 . S
C78 H102 0.931 . S
C79 C78 1.386 . S
C79 C83 1.397 . S
C80 C78 1.397 . S
C80 C81 1.384 . S
C80 H103 0.930 . S
C81 C80 1.384 . S
C81 C82 1.377 . S
C81 C84 1.481 . S
C82 C81 1.377 . S
C82 C83 1.389 . S
C82 H104 0.929 . S
C83 C79 1.397 . S
C83 C82 1.389 . S
C83 H105 0.931 . S
C84 C81 1.481 . S
C84 C85 1.387 . S
C84 C89 1.390 . S
C85 C84 1.387 . S
C85 C86 1.401 . S
C85 H106 0.930 . S
C86 C85 1.401 . S
C86 C87 1.376 . S
C86 C95 1.511 . S
C87 C86 1.376 . S
C87 C88 1.392 . S
C87 H108 0.931 . S
C88 C87 1.392 . S
C88 C89 1.361 . S
C88 C90 1.500 . S
C89 C84 1.390 . S
C89 C88 1.361 . S
C89 H107 0.931 . S
C90 C88 1.500 . S
C90 C91 1.371 . S
C90 C92 1.365 . S
C91 C90 1.371 . S
C91 C101 1.386 . S
C91 H109 0.931 . S
C92 C90 1.365 . S
C92 C93 1.409 . S
C92 H110 0.929 . S
C93 C92 1.409 . S
C93 C94 1.380 . S
C93 H111 0.930 . S
C94 C93 1.380 . S
C94 C101 1.357 . S
C95 C86 1.511 . S
C95 C96 1.341 . S
C95 C97 1.371 . S
C96 C95 1.341 . S
C96 C100 1.394 . S
C96 H112 0.930 . S
C97 C95 1.371 . S
C97 C98 1.392 . S
C97 H113 0.931 . S
C98 C97 1.392 . S
C98 C99 1.331 . S
C98 H116 0.932 . S
C99 C98 1.331 . S
C99 C100 1.336 . S
C100 C96 1.394 . S
C100 C99 1.336 . S
C100 H115 0.929 . S
C101 C91 1.386 . S
C101 C94 1.357 . S
C101 H114 0.928 . S
H102 C78 0.931 . S
H103 C80 0.930 . S
H104 C82 0.929 . S
H105 C83 0.931 . S
H106 C85 0.930 . S
H107 C89 0.931 . S
H108 C87 0.931 . S
H109 C91 0.931 . S
H110 C92 0.929 . S
H111 C93 0.930 . S
H112 C96 0.930 . S
H113 C97 0.931 . S
H114 C101 0.928 . S
H115 C100 0.929 . S
H116 C98 0.932 . S
C117 C118 1.386 . S
C117 C119 1.397 . S
C117 H141 0.931 . S
C118 C117 1.386 . S
C118 C122 1.397 . S
C119 C117 1.397 . S
C119 C120 1.384 . S
C119 H142 0.930 . S
C120 C119 1.384 . S
C120 C121 1.377 . S
C120 C123 1.481 . S
C121 C120 1.377 . S
C121 C122 1.389 . S
C121 H143 0.929 . S
C122 C118 1.397 . S
C122 C121 1.389 . S
C122 H144 0.931 . S
C123 C120 1.481 . S
C123 C124 1.387 . S
C123 C128 1.390 . S
C124 C123 1.387 . S
C124 C125 1.401 . S
C124 H145 0.930 . S
C125 C124 1.401 . S
C125 C126 1.376 . S
C125 C134 1.511 . S
C126 C125 1.376 . S
C126 C127 1.392 . S
C126 H147 0.931 . S
C127 C126 1.392 . S
C127 C128 1.361 . S
C127 C129 1.500 . S
C128 C123 1.390 . S
C128 C127 1.361 . S
C128 H146 0.931 . S
C129 C127 1.500 . S
C129 C130 1.371 . S
C129 C131 1.365 . S
C130 C129 1.371 . S
C130 C140 1.386 . S
C130 H148 0.931 . S
C131 C129 1.365 . S
C131 C132 1.409 . S
C131 H149 0.929 . S
C132 C131 1.409 . S
C132 C133 1.380 . S
C132 H150 0.930 . S
C133 C132 1.380 . S
C133 C140 1.357 . S
C134 C125 1.511 . S
C134 C135 1.341 . S
C134 C136 1.371 . S
C135 C134 1.341 . S
C135 C139 1.394 . S
C135 H151 0.930 . S
C136 C134 1.371 . S
C136 C137 1.392 . S
C136 H152 0.931 . S
C137 C136 1.392 . S
C137 C138 1.331 . S
C137 H155 0.932 . S
C138 C137 1.331 . S
C138 C139 1.336 . S
C139 C135 1.394 . S
C139 C138 1.336 . S
C139 H154 0.929 . S
C140 C130 1.386 . S
C140 C133 1.357 . S
C140 H153 0.928 . S
H141 C117 0.931 . S
H142 C119 0.930 . S
H143 C121 0.929 . S
H144 C122 0.931 . S
H145 C124 0.930 . S
H146 C128 0.931 . S
H147 C126 0.931 . S
H148 C130 0.931 . S
H149 C131 0.929 . S
H150 C132 0.930 . S
H151 C135 0.930 . S
H152 C136 0.931 . S
H153 C140 0.928 . S
H154 C139 0.929 . S
H155 C137 0.932 . S
C156 C157 1.386 . S
C156 C158 1.397 . S
C156 H180 0.931 . S
C157 C156 1.386 . S
C157 C161 1.397 . S
C158 C156 1.397 . S
C158 C159 1.384 . S
C158 H181 0.930 . S
C159 C158 1.384 . S
C159 C160 1.377 . S
C159 C162 1.481 . S
C160 C159 1.377 . S
C160 C161 1.389 . S
C160 H182 0.929 . S
C161 C157 1.397 . S
C161 C160 1.389 . S
C161 H183 0.931 . S
C162 C159 1.481 . S
C162 C163 1.387 . S
C162 C167 1.390 . S
C163 C162 1.387 . S
C163 C164 1.401 . S
C163 H184 0.930 . S
C164 C163 1.401 . S
C164 C165 1.376 . S
C164 C173 1.511 . S
C165 C164 1.376 . S
C165 C166 1.392 . S
C165 H186 0.931 . S
C166 C165 1.392 . S
C166 C167 1.361 . S
C166 C168 1.500 . S
C167 C162 1.390 . S
C167 C166 1.361 . S
C167 H185 0.931 . S
C168 C166 1.500 . S
C168 C169 1.371 . S
C168 C170 1.365 . S
C169 C168 1.371 . S
C169 C179 1.386 . S
C169 H187 0.931 . S
C170 C168 1.365 . S
C170 C171 1.409 . S
C170 H188 0.929 . S
C171 C170 1.409 . S
C171 C172 1.380 . S
C171 H189 0.930 . S
C172 C171 1.380 . S
C172 C179 1.357 . S
C173 C164 1.511 . S
C173 C174 1.341 . S
C173 C175 1.371 . S
C174 C173 1.341 . S
C174 C178 1.394 . S
C174 H190 0.930 . S
C175 C173 1.371 . S
C175 C176 1.392 . S
C175 H191 0.931 . S
C176 C175 1.392 . S
C176 C177 1.331 . S
C176 H194 0.932 . S
C177 C176 1.331 . S
C177 C178 1.336 . S
C178 C174 1.394 . S
C178 C177 1.336 . S
C178 H193 0.929 . S
C179 C169 1.386 . S
C179 C172 1.357 . S
C179 H192 0.928 . S
H180 C156 0.931 . S
H181 C158 0.930 . S
H182 C160 0.929 . S
H183 C161 0.931 . S
H184 C163 0.930 . S
H185 C167 0.931 . S
H186 C165 0.931 . S
H187 C169 0.931 . S
H188 C170 0.929 . S
H189 C171 0.930 . S
H190 C174 0.930 . S
H191 C175 0.931 . S
H192 C179 0.928 . S
H193 C178 0.929 . S
H194 C176 0.932 . S
C195 C196 1.386 . S
C195 C197 1.397 . S
C195 H219 0.931 . S
C196 C195 1.386 . S
C196 C200 1.397 . S
C197 C195 1.397 . S
C197 C198 1.384 . S
C197 H220 0.930 . S
C198 C197 1.384 . S
C198 C199 1.377 . S
C198 C201 1.481 . S
C199 C198 1.377 . S
C199 C200 1.389 . S
C199 H221 0.929 . S
C200 C196 1.397 . S
C200 C199 1.389 . S
C200 H222 0.931 . S
C201 C198 1.481 . S
C201 C202 1.387 . S
C201 C206 1.390 . S
C202 C201 1.387 . S
C202 C203 1.401 . S
C202 H223 0.930 . S
C203 C202 1.401 . S
C203 C204 1.376 . S
C203 C212 1.511 . S
C204 C203 1.376 . S
C204 C205 1.392 . S
C204 H225 0.931 . S
C205 C204 1.392 . S
C205 C206 1.361 . S
C205 C207 1.500 . S
C206 C201 1.390 . S
C206 C205 1.361 . S
C206 H224 0.931 . S
C207 C205 1.500 . S
C207 C208 1.371 . S
C207 C209 1.365 . S
C208 C207 1.371 . S
C208 C218 1.386 . S
C208 H226 0.931 . S
C209 C207 1.365 . S
C209 C210 1.409 . S
C209 H227 0.929 . S
C210 C209 1.409 . S
C210 C211 1.380 . S
C210 H228 0.930 . S
C211 C210 1.380 . S
C211 C218 1.357 . S
C212 C203 1.511 . S
C212 C213 1.341 . S
C212 C214 1.371 . S
C213 C212 1.341 . S
C213 C217 1.394 . S
C213 H229 0.930 . S
C214 C212 1.371 . S
C214 C215 1.392 . S
C214 H230 0.931 . S
C215 C214 1.392 . S
C215 C216 1.331 . S
C215 H233 0.932 . S
C216 C215 1.331 . S
C216 C217 1.336 . S
C217 C213 1.394 . S
C217 C216 1.336 . S
C217 H232 0.929 . S
C218 C208 1.386 . S
C218 C211 1.357 . S
C218 H231 0.928 . S
H219 C195 0.931 . S
H220 C197 0.930 . S
H221 C199 0.929 . S
H222 C200 0.931 . S
H223 C202 0.930 . S
H224 C206 0.931 . S
H225 C204 0.931 . S
H226 C208 0.931 . S
H227 C209 0.929 . S
H228 C210 0.930 . S
H229 C213 0.930 . S
H230 C214 0.931 . S
H231 C218 0.928 . S
H232 C217 0.929 . S
H233 C215 0.932 . S
C234 C235 1.386 . S
C234 C236 1.397 . S
C234 H258 0.931 . S
C235 C234 1.386 . S
C235 C239 1.397 . S
C236 C234 1.397 . S
C236 C237 1.384 . S
C236 H259 0.930 . S
C237 C236 1.384 . S
C237 C238 1.377 . S
C237 C240 1.481 . S
C238 C237 1.377 . S
C238 C239 1.389 . S
C238 H260 0.929 . S
C239 C235 1.397 . S
C239 C238 1.389 . S
C239 H261 0.931 1_655 S
C240 C237 1.481 . S
C240 C241 1.387 . S
C240 C245 1.390 . S
C241 C240 1.387 . S
C241 C242 1.401 . S
C241 H262 0.930 . S
C242 C241 1.401 . S
C242 C243 1.376 . S
C242 C251 1.511 . S
C243 C242 1.376 . S
C243 C244 1.392 . S
C243 H264 0.931 . S
C244 C243 1.392 . S
C244 C245 1.361 . S
C244 C246 1.500 . S
C245 C240 1.390 . S
C245 C244 1.361 . S
C245 H263 0.931 . S
C246 C244 1.500 . S
C246 C247 1.371 . S
C246 C248 1.365 . S
C247 C246 1.371 . S
C247 C257 1.386 . S
C247 H265 0.931 . S
C248 C246 1.365 . S
C248 C249 1.409 . S
C248 H266 0.929 . S
C249 C248 1.409 . S
C249 C250 1.380 . S
C249 H267 0.930 . S
C250 C249 1.380 . S
C250 C257 1.357 . S
C251 C242 1.511 . S
C251 C252 1.341 . S
C251 C253 1.371 . S
C252 C251 1.341 . S
C252 C256 1.394 . S
C252 H268 0.930 . S
C253 C251 1.371 . S
C253 C254 1.392 . S
C253 H269 0.931 . S
C254 C253 1.392 . S
C254 C255 1.331 . S
C254 H272 0.932 . S
C255 C254 1.331 . S
C255 C256 1.336 . S
C256 C252 1.394 . S
C256 C255 1.336 . S
C256 H271 0.929 . S
C257 C247 1.386 . S
C257 C250 1.357 . S
C257 H270 0.928 . S
H258 C234 0.931 . S
H259 C236 0.930 . S
H260 C238 0.929 . S
H261 C239 0.931 1_455 S
H262 C241 0.930 . S
H263 C245 0.931 . S
H264 C243 0.931 . S
H265 C247 0.931 . S
H266 C248 0.929 . S
H267 C249 0.930 . S
H268 C252 0.930 . S
H269 C253 0.931 . S
H270 C257 0.928 . S
H271 C256 0.929 . S
H272 C254 0.932 . S
C273 C274 1.386 . S
C273 C275 1.397 . S
C273 H297 0.931 . S
C274 C273 1.386 . S
C274 C278 1.397 . S
C275 C273 1.397 . S
C275 C276 1.384 . S
C275 H298 0.930 . S
C276 C275 1.384 . S
C276 C277 1.377 . S
C276 C279 1.481 . S
C277 C276 1.377 . S
C277 C278 1.389 . S
C277 H299 0.929 . S
C278 C274 1.397 . S
C278 C277 1.389 . S
C278 H300 0.931 . S
C279 C276 1.481 . S
C279 C280 1.387 . S
C279 C284 1.390 . S
C280 C279 1.387 . S
C280 C281 1.401 . S
C280 H301 0.930 . S
C281 C280 1.401 . S
C281 C282 1.376 . S
C281 C290 1.511 . S
C282 C281 1.376 . S
C282 C283 1.392 . S
C282 H303 0.931 . S
C283 C282 1.392 . S
C283 C284 1.361 . S
C283 C285 1.500 . S
C284 C279 1.390 . S
C284 C283 1.361 . S
C284 H302 0.931 . S
C285 C283 1.500 . S
C285 C286 1.371 . S
C285 C287 1.365 . S
C286 C285 1.371 . S
C286 C296 1.386 . S
C286 H304 0.931 . S
C287 C285 1.365 . S
C287 C288 1.409 . S
C287 H305 0.929 . S
C288 C287 1.409 . S
C288 C289 1.380 . S
C288 H306 0.930 . S
C289 C288 1.380 . S
C289 C296 1.357 . S
C290 C281 1.511 . S
C290 C291 1.341 . S
C290 C292 1.371 . S
C291 C290 1.341 . S
C291 C295 1.394 . S
C291 H307 0.930 . S
C292 C290 1.371 . S
C292 C293 1.392 . S
C292 H308 0.931 . S
C293 C292 1.392 . S
C293 C294 1.331 . S
C293 H311 0.932 . S
C294 C293 1.331 . S
C294 C295 1.336 . S
C295 C291 1.394 . S
C295 C294 1.336 . S
C295 H310 0.929 . S
C296 C286 1.386 . S
C296 C289 1.357 . S
C296 H309 0.928 . S
H297 C273 0.931 . S
H298 C275 0.930 . S
H299 C277 0.929 . S
H300 C278 0.931 . S
H301 C280 0.930 . S
H302 C284 0.931 . S
H303 C282 0.931 . S
H304 C286 0.931 . S
H305 C287 0.929 . S
H306 C288 0.930 . S
H307 C291 0.930 . S
H308 C292 0.931 . S
H309 C296 0.928 . S
H310 C295 0.929 . S
H311 C293 0.932 . S
C312 C313 1.386 . S
C312 C314 1.397 . S
C312 H336 0.931 . S
C313 C312 1.386 . S
C313 C317 1.397 . S
C314 C312 1.397 . S
C314 C315 1.384 . S
C314 H337 0.930 . S
C315 C314 1.384 . S
C315 C316 1.377 . S
C315 C318 1.481 . S
C316 C315 1.377 . S
C316 C317 1.389 . S
C316 H338 0.929 . S
C317 C313 1.397 . S
C317 C316 1.389 . S
C317 H339 0.931 . S
C318 C315 1.481 . S
C318 C319 1.387 . S
C318 C323 1.390 . S
C319 C318 1.387 . S
C319 C320 1.401 . S
C319 H340 0.930 . S
C320 C319 1.401 . S
C320 C321 1.376 . S
C320 C329 1.511 . S
C321 C320 1.376 . S
C321 C322 1.392 . S
C321 H342 0.931 . S
C322 C321 1.392 . S
C322 C323 1.361 . S
C322 C324 1.500 . S
C323 C318 1.390 . S
C323 C322 1.361 . S
C323 H341 0.931 . S
C324 C322 1.500 . S
C324 C325 1.371 . S
C324 C326 1.365 . S
C325 C324 1.371 . S
C325 C335 1.386 . S
C325 H343 0.931 . S
C326 C324 1.365 . S
C326 C327 1.409 . S
C326 H344 0.929 . S
C327 C326 1.409 . S
C327 C328 1.380 . S
C327 H345 0.930 . S
C328 C327 1.380 . S
C328 C335 1.357 . S
C329 C320 1.511 . S
C329 C330 1.341 . S
C329 C331 1.371 . S
C330 C329 1.341 . S
C330 C334 1.394 . S
C330 H346 0.930 . S
C331 C329 1.371 . S
C331 C332 1.392 . S
C331 H347 0.931 . S
C332 C331 1.392 . S
C332 C333 1.331 . S
C332 H350 0.932 . S
C333 C332 1.331 . S
C333 C334 1.336 . S
C334 C330 1.394 . S
C334 C333 1.336 . S
C334 H349 0.929 . S
C335 C325 1.386 . S
C335 C328 1.357 . S
C335 H348 0.928 . S
H336 C312 0.931 . S
H337 C314 0.930 . S
H338 C316 0.929 . S
H339 C317 0.931 . S
H340 C319 0.930 . S
H341 C323 0.931 . S
H342 C321 0.931 . S
H343 C325 0.931 . S
H344 C326 0.929 . S
H345 C327 0.930 . S
H346 C330 0.930 . S
H347 C331 0.931 . S
H348 C335 0.928 . S
H349 C334 0.929 . S
H350 C332 0.932 . S
C351 C352 1.386 . S
C351 C353 1.397 . S
C351 H375 0.931 . S
C352 C351 1.386 . S
C352 C356 1.397 . S
C353 C351 1.397 . S
C353 C354 1.384 . S
C353 H376 0.930 . S
C354 C353 1.384 . S
C354 C355 1.377 . S
C354 C357 1.481 . S
C355 C354 1.377 . S
C355 C356 1.389 . S
C355 H377 0.929 . S
C356 C352 1.397 . S
C356 C355 1.389 . S
C356 H378 0.931 . S
C357 C354 1.481 . S
C357 C358 1.387 . S
C357 C362 1.390 . S
C358 C357 1.387 . S
C358 C359 1.401 . S
C358 H379 0.930 . S
C359 C358 1.401 . S
C359 C360 1.376 . S
C359 C368 1.511 . S
C360 C359 1.376 . S
C360 C361 1.392 . S
C360 H381 0.931 . S
C361 C360 1.392 . S
C361 C362 1.361 . S
C361 C363 1.500 . S
C362 C357 1.390 . S
C362 C361 1.361 . S
C362 H380 0.931 . S
C363 C361 1.500 . S
C363 C364 1.371 . S
C363 C365 1.365 . S
C364 C363 1.371 . S
C364 C374 1.386 . S
C364 H382 0.931 . S
C365 C363 1.365 . S
C365 C366 1.409 . S
C365 H383 0.929 . S
C366 C365 1.409 . S
C366 C367 1.380 . S
C366 H384 0.930 . S
C367 C366 1.380 . S
C367 C374 1.357 . S
C368 C359 1.511 . S
C368 C369 1.341 . S
C368 C370 1.371 . S
C369 C368 1.341 . S
C369 C373 1.394 . S
C369 H385 0.930 . S
C370 C368 1.371 . S
C370 C371 1.392 . S
C370 H386 0.931 . S
C371 C370 1.392 . S
C371 C372 1.331 . S
C371 H389 0.932 . S
C372 C371 1.331 . S
C372 C373 1.336 . S
C373 C369 1.394 . S
C373 C372 1.336 . S
C373 H388 0.929 . S
C374 C364 1.386 . S
C374 C367 1.357 . S
C374 H387 0.928 . S
H375 C351 0.931 . S
H376 C353 0.930 . S
H377 C355 0.929 . S
H378 C356 0.931 . S
H379 C358 0.930 . S
H380 C362 0.931 . S
H381 C360 0.931 . S
H382 C364 0.931 . S
H383 C365 0.929 . S
H384 C366 0.930 . S
H385 C369 0.930 . S
H386 C370 0.931 . S
H387 C374 0.928 . S
H388 C373 0.929 . S
H389 C371 0.932 . S
C390 C391 1.386 . S
C390 C392 1.397 . S
C390 H414 0.931 . S
C391 C390 1.386 . S
C391 C395 1.397 . S
C392 C390 1.397 . S
C392 C393 1.384 . S
C392 H415 0.930 . S
C393 C392 1.384 . S
C393 C394 1.377 . S
C393 C396 1.481 . S
C394 C393 1.377 . S
C394 C395 1.389 . S
C394 H416 0.929 . S
C395 C391 1.397 . S
C395 C394 1.389 . S
C395 H417 0.931 . S
C396 C393 1.481 . S
C396 C397 1.387 . S
C396 C401 1.390 . S
C397 C396 1.387 . S
C397 C398 1.401 . S
C397 H418 0.930 . S
C398 C397 1.401 . S
C398 C399 1.376 . S
C398 C407 1.511 . S
C399 C398 1.376 . S
C399 C400 1.392 . S
C399 H420 0.931 . S
C400 C399 1.392 . S
C400 C401 1.361 . S
C400 C402 1.500 . S
C401 C396 1.390 . S
C401 C400 1.361 . S
C401 H419 0.931 . S
C402 C400 1.500 . S
C402 C403 1.371 . S
C402 C404 1.365 . S
C403 C402 1.371 . S
C403 C413 1.386 . S
C403 H421 0.931 . S
C404 C402 1.365 . S
C404 C405 1.409 . S
C404 H422 0.929 . S
C405 C404 1.409 . S
C405 C406 1.380 . S
C405 H423 0.930 . S
C406 C405 1.380 . S
C406 C413 1.357 . S
C407 C398 1.511 . S
C407 C408 1.341 . S
C407 C409 1.371 . S
C408 C407 1.341 . S
C408 C412 1.394 . S
C408 H424 0.930 . S
C409 C407 1.371 . S
C409 C410 1.392 . S
C409 H425 0.931 . S
C410 C409 1.392 . S
C410 C411 1.331 . S
C410 H428 0.932 . S
C411 C410 1.331 . S
C411 C412 1.336 . S
C412 C408 1.394 . S
C412 C411 1.336 . S
C412 H427 0.929 . S
C413 C403 1.386 . S
C413 C406 1.357 . S
C413 H426 0.928 . S
H414 C390 0.931 . S
H415 C392 0.930 . S
H416 C394 0.929 . S
H417 C395 0.931 . S
H418 C397 0.930 . S
H419 C401 0.931 . S
H420 C399 0.931 . S
H421 C403 0.931 . S
H422 C404 0.929 . S
H423 C405 0.930 . S
H424 C408 0.930 . S
H425 C409 0.931 . S
H426 C413 0.928 . S
H427 C412 0.929 . S
H428 C410 0.932 . S
C429 C430 1.386 . S
C429 C431 1.397 . S
C429 H453 0.931 . S
C430 C429 1.386 . S
C430 C434 1.397 . S
C431 C429 1.397 . S
C431 C432 1.384 . S
C431 H454 0.930 . S
C432 C431 1.384 . S
C432 C433 1.377 . S
C432 C435 1.481 . S
C433 C432 1.377 . S
C433 C434 1.389 . S
C433 H455 0.929 . S
C434 C430 1.397 . S
C434 C433 1.389 . S
C434 H456 0.931 . S
C435 C432 1.481 . S
C435 C436 1.387 . S
C435 C440 1.390 . S
C436 C435 1.387 . S
C436 C437 1.401 . S
C436 H457 0.930 . S
C437 C436 1.401 . S
C437 C438 1.376 . S
C437 C446 1.511 . S
C438 C437 1.376 . S
C438 C439 1.392 . S
C438 H459 0.931 . S
C439 C438 1.392 . S
C439 C440 1.361 . S
C439 C441 1.500 . S
C440 C435 1.390 . S
C440 C439 1.361 . S
C440 H458 0.931 . S
C441 C439 1.500 . S
C441 C442 1.371 . S
C441 C443 1.365 . S
C442 C441 1.371 . S
C442 C452 1.386 . S
C442 H460 0.931 . S
C443 C441 1.365 . S
C443 C444 1.409 . S
C443 H461 0.929 . S
C444 C443 1.409 . S
C444 C445 1.380 . S
C444 H462 0.930 . S
C445 C444 1.380 . S
C445 C452 1.357 . S
C446 C437 1.511 . S
C446 C447 1.341 . S
C446 C448 1.371 . S
C447 C446 1.341 . S
C447 C451 1.394 . S
C447 H463 0.930 . S
C448 C446 1.371 . S
C448 C449 1.392 . S
C448 H464 0.931 . S
C449 C448 1.392 . S
C449 C450 1.331 . S
C449 H467 0.932 . S
C450 C449 1.331 . S
C450 C451 1.336 . S
C451 C447 1.394 . S
C451 C450 1.336 . S
C451 H466 0.929 . S
C452 C442 1.386 . S
C452 C445 1.357 . S
C452 H465 0.928 . S
H453 C429 0.931 . S
H454 C431 0.930 . S
H455 C433 0.929 . S
H456 C434 0.931 . S
H457 C436 0.930 . S
H458 C440 0.931 . S
H459 C438 0.931 . S
H460 C442 0.931 . S
H461 C443 0.929 . S
H462 C444 0.930 . S
H463 C447 0.930 . S
H464 C448 0.931 . S
H465 C452 0.928 . S
H466 C451 0.929 . S
H467 C449 0.932 . S
C468 C469 1.386 . S
C468 C470 1.397 . S
C468 H492 0.931 . S
C469 C468 1.386 . S
C469 C473 1.397 . S
C470 C468 1.397 . S
C470 C471 1.384 . S
C470 H493 0.930 . S
C471 C470 1.384 . S
C471 C472 1.377 . S
C471 C474 1.481 . S
C472 C471 1.377 . S
C472 C473 1.389 . S
C472 H494 0.929 . S
C473 C469 1.397 . S
C473 C472 1.389 . S
C473 H495 0.931 . S
C474 C471 1.481 . S
C474 C475 1.387 . S
C474 C479 1.390 . S
C475 C474 1.387 . S
C475 C476 1.401 . S
C475 H496 0.930 . S
C476 C475 1.401 . S
C476 C477 1.376 . S
C476 C485 1.511 . S
C477 C476 1.376 . S
C477 C478 1.392 . S
C477 H498 0.931 . S
C478 C477 1.392 . S
C478 C479 1.361 . S
C478 C480 1.500 . S
C479 C474 1.390 . S
C479 C478 1.361 . S
C479 H497 0.931 . S
C480 C478 1.500 . S
C480 C481 1.371 . S
C480 C482 1.365 . S
C481 C480 1.371 . S
C481 C491 1.386 . S
C481 H499 0.931 . S
C482 C480 1.365 . S
C482 C483 1.409 . S
C482 H500 0.929 . S
C483 C482 1.409 . S
C483 C484 1.380 . S
C483 H501 0.930 . S
C484 C483 1.380 . S
C484 C491 1.357 . S
C485 C476 1.511 . S
C485 C486 1.341 . S
C485 C487 1.371 . S
C486 C485 1.341 . S
C486 C490 1.394 . S
C486 H502 0.930 . S
C487 C485 1.371 . S
C487 C488 1.392 . S
C487 H503 0.931 . S
C488 C487 1.392 . S
C488 C489 1.331 . S
C488 H506 0.932 . S
C489 C488 1.331 . S
C489 C490 1.336 . S
C490 C486 1.394 . S
C490 C489 1.336 . S
C490 H505 0.929 . S
C491 C481 1.386 . S
C491 C484 1.357 . S
C491 H504 0.928 . S
H492 C468 0.931 . S
H493 C470 0.930 . S
H494 C472 0.929 . S
H495 C473 0.931 . S
H496 C475 0.930 . S
H497 C479 0.931 . S
H498 C477 0.931 . S
H499 C481 0.931 . S
H500 C482 0.929 . S
H501 C483 0.930 . S
H502 C486 0.930 . S
H503 C487 0.931 . S
H504 C491 0.928 . S
H505 C490 0.929 . S
H506 C488 0.932 . S
C507 C508 1.386 . S
C507 C509 1.397 . S
C507 H531 0.931 . S
C508 C507 1.386 . S
C508 C512 1.397 . S
C509 C507 1.397 . S
C509 C510 1.384 . S
C509 H532 0.930 . S
C510 C509 1.384 . S
C510 C511 1.377 . S
C510 C513 1.481 . S
C511 C510 1.377 . S
C511 C512 1.389 . S
C511 H533 0.929 . S
C512 C508 1.397 . S
C512 C511 1.389 . S
C512 H534 0.931 . S
C513 C510 1.481 . S
C513 C514 1.387 . S
C513 C518 1.390 . S
C514 C513 1.387 . S
C514 C515 1.401 . S
C514 H535 0.930 . S
C515 C514 1.401 . S
C515 C516 1.376 . S
C515 C524 1.511 . S
C516 C515 1.376 . S
C516 C517 1.392 . S
C516 H537 0.931 . S
C517 C516 1.392 . S
C517 C518 1.361 . S
C517 C519 1.500 . S
C518 C513 1.390 . S
C518 C517 1.361 . S
C518 H536 0.931 . S
C519 C517 1.500 . S
C519 C520 1.371 . S
C519 C521 1.365 . S
C520 C519 1.371 . S
C520 C530 1.386 . S
C520 H538 0.931 . S
C521 C519 1.365 . S
C521 C522 1.409 . S
C521 H539 0.929 . S
C522 C521 1.409 . S
C522 C523 1.380 . S
C522 H540 0.930 . S
C523 C522 1.380 . S
C523 C530 1.357 . S
C524 C515 1.511 . S
C524 C525 1.341 . S
C524 C526 1.371 . S
C525 C524 1.341 . S
C525 C529 1.394 . S
C525 H541 0.930 . S
C526 C524 1.371 . S
C526 C527 1.392 . S
C526 H542 0.931 . S
C527 C526 1.392 . S
C527 C528 1.331 . S
C527 H545 0.932 . S
C528 C527 1.331 . S
C528 C529 1.336 . S
C529 C525 1.394 . S
C529 C528 1.336 . S
C529 H544 0.929 . S
C530 C520 1.386 . S
C530 C523 1.357 . S
C530 H543 0.928 . S
H531 C507 0.931 . S
H532 C509 0.930 . S
H533 C511 0.929 . S
H534 C512 0.931 . S
H535 C514 0.930 . S
H536 C518 0.931 . S
H537 C516 0.931 . S
H538 C520 0.931 . S
H539 C521 0.929 . S
H540 C522 0.930 . S
H541 C525 0.930 . S
H542 C526 0.931 . S
H543 C530 0.928 . S
H544 C529 0.929 . S
H545 C527 0.932 . S
C546 C547 1.386 . S
C546 C548 1.397 . S
C546 H570 0.931 . S
C547 C546 1.386 . S
C547 C551 1.397 . S
C548 C546 1.397 . S
C548 C549 1.384 . S
C548 H571 0.930 . S
C549 C548 1.384 . S
C549 C550 1.377 . S
C549 C552 1.481 . S
C550 C549 1.377 . S
C550 C551 1.389 . S
C550 H572 0.929 . S
C551 C547 1.397 . S
C551 C550 1.389 . S
C551 H573 0.931 . S
C552 C549 1.481 . S
C552 C553 1.387 . S
C552 C557 1.390 . S
C553 C552 1.387 . S
C553 C554 1.401 . S
C553 H574 0.930 . S
C554 C553 1.401 . S
C554 C555 1.376 . S
C554 C563 1.511 . S
C555 C554 1.376 . S
C555 C556 1.392 . S
C555 H576 0.931 . S
C556 C555 1.392 . S
C556 C557 1.361 . S
C556 C558 1.500 . S
C557 C552 1.390 . S
C557 C556 1.361 . S
C557 H575 0.931 . S
C558 C556 1.500 . S
C558 C559 1.371 . S
C558 C560 1.365 . S
C559 C558 1.371 . S
C559 C569 1.386 . S
C559 H577 0.931 . S
C560 C558 1.365 . S
C560 C561 1.409 . S
C560 H578 0.929 . S
C561 C560 1.409 . S
C561 C562 1.380 . S
C561 H579 0.930 . S
C562 C561 1.380 . S
C562 C569 1.357 . S
C563 C554 1.511 . S
C563 C564 1.341 . S
C563 C565 1.371 . S
C564 C563 1.341 . S
C564 C568 1.394 . S
C564 H580 0.930 . S
C565 C563 1.371 . S
C565 C566 1.392 . S
C565 H581 0.931 . S
C566 C565 1.392 . S
C566 C567 1.331 . S
C566 H584 0.932 . S
C567 C566 1.331 . S
C567 C568 1.336 . S
C568 C564 1.394 . S
C568 C567 1.336 . S
C568 H583 0.929 . S
C569 C559 1.386 . S
C569 C562 1.357 . S
C569 H582 0.928 . S
H570 C546 0.931 . S
H571 C548 0.930 . S
H572 C550 0.929 . S
H573 C551 0.931 . S
H574 C553 0.930 . S
H575 C557 0.931 . S
H576 C555 0.931 . S
H577 C559 0.931 . S
H578 C560 0.929 . S
H579 C561 0.930 . S
H580 C564 0.930 . S
H581 C565 0.931 . S
H582 C569 0.928 . S
H583 C568 0.929 . S
H584 C566 0.932 . S
C585 C586 1.386 . S
C585 C587 1.397 . S
C585 H609 0.931 . S
C586 C585 1.386 . S
C586 C590 1.397 . S
C587 C585 1.397 . S
C587 C588 1.384 . S
C587 H610 0.930 . S
C588 C587 1.384 . S
C588 C589 1.377 . S
C588 C591 1.481 . S
C589 C588 1.377 . S
C589 C590 1.389 . S
C589 H611 0.929 . S
C590 C586 1.397 . S
C590 C589 1.389 . S
C590 H612 0.931 . S
C591 C588 1.481 . S
C591 C592 1.387 . S
C591 C596 1.390 . S
C592 C591 1.387 . S
C592 C593 1.401 . S
C592 H613 0.930 . S
C593 C592 1.401 . S
C593 C594 1.376 . S
C593 C602 1.511 . S
C594 C593 1.376 . S
C594 C595 1.392 . S
C594 H615 0.931 . S
C595 C594 1.392 . S
C595 C596 1.361 . S
C595 C597 1.500 . S
C596 C591 1.390 . S
C596 C595 1.361 . S
C596 H614 0.931 . S
C597 C595 1.500 . S
C597 C598 1.371 . S
C597 C599 1.365 . S
C598 C597 1.371 . S
C598 C608 1.386 . S
C598 H616 0.931 . S
C599 C597 1.365 . S
C599 C600 1.409 . S
C599 H617 0.929 . S
C600 C599 1.409 . S
C600 C601 1.380 . S
C600 H618 0.930 . S
C601 C600 1.380 . S
C601 C608 1.357 . S
C602 C593 1.511 . S
C602 C603 1.341 . S
C602 C604 1.371 . S
C603 C602 1.341 . S
C603 C607 1.394 . S
C603 H619 0.930 . S
C604 C602 1.371 . S
C604 C605 1.392 . S
C604 H620 0.931 . S
C605 C604 1.392 . S
C605 C606 1.331 . S
C605 H623 0.932 . S
C606 C605 1.331 . S
C606 C607 1.336 . S
C607 C603 1.394 . S
C607 C606 1.336 . S
C607 H622 0.929 . S
C608 C598 1.386 . S
C608 C601 1.357 . S
C608 H621 0.928 . S
H609 C585 0.931 . S
H610 C587 0.930 . S
H611 C589 0.929 . S
H612 C590 0.931 . S
H613 C592 0.930 . S
H614 C596 0.931 . S
H615 C594 0.931 . S
H616 C598 0.931 . S
H617 C599 0.929 . S
H618 C600 0.930 . S
H619 C603 0.930 . S
H620 C604 0.931 . S
H621 C608 0.928 . S
H622 C607 0.929 . S
H623 C605 0.932 . S
C624 C625 1.386 . S
C624 C626 1.397 . S
C624 H648 0.931 1_455 S
C625 C624 1.386 . S
C625 C629 1.397 . S
C626 C624 1.397 . S
C626 C627 1.384 . S
C626 H649 0.930 . S
C627 C626 1.384 . S
C627 C628 1.377 . S
C627 C630 1.481 . S
C628 C627 1.377 . S
C628 C629 1.389 . S
C628 H650 0.929 . S
C629 C625 1.397 . S
C629 C628 1.389 . S
C629 H651 0.931 . S
C630 C627 1.481 . S
C630 C631 1.387 . S
C630 C635 1.390 . S
C631 C630 1.387 . S
C631 C632 1.401 . S
C631 H652 0.930 . S
C632 C631 1.401 . S
C632 C633 1.376 . S
C632 C641 1.511 . S
C633 C632 1.376 . S
C633 C634 1.392 . S
C633 H654 0.931 . S
C634 C633 1.392 . S
C634 C635 1.361 . S
C634 C636 1.500 . S
C635 C630 1.390 . S
C635 C634 1.361 . S
C635 H653 0.931 . S
C636 C634 1.500 . S
C636 C637 1.371 . S
C636 C638 1.365 . S
C637 C636 1.371 . S
C637 C647 1.386 . S
C637 H655 0.931 . S
C638 C636 1.365 . S
C638 C639 1.409 . S
C638 H656 0.929 . S
C639 C638 1.409 . S
C639 C640 1.380 . S
C639 H657 0.930 . S
C640 C639 1.380 . S
C640 C647 1.357 . S
C641 C632 1.511 . S
C641 C642 1.341 . S
C641 C643 1.371 . S
C642 C641 1.341 . S
C642 C646 1.394 . S
C642 H658 0.930 . S
C643 C641 1.371 . S
C643 C644 1.392 . S
C643 H659 0.931 . S
C644 C643 1.392 . S
C644 C645 1.331 . S
C644 H662 0.932 . S
C645 C644 1.331 . S
C645 C646 1.336 . S
C646 C642 1.394 . S
C646 C645 1.336 . S
C646 H661 0.929 . S
C647 C637 1.386 . S
C647 C640 1.357 . S
C647 H660 0.928 . S
H648 C624 0.931 1_655 S
H649 C626 0.930 . S
H650 C628 0.929 . S
H651 C629 0.931 . S
H652 C631 0.930 . S
H653 C635 0.931 . S
H654 C633 0.931 . S
H655 C637 0.931 . S
H656 C638 0.929 . S
H657 C639 0.930 . S
H658 C642 0.930 . S
H659 C643 0.931 . S
H660 C647 0.928 . S
H661 C646 0.929 . S
H662 C644 0.932 . S
C663 C664 1.386 . S
C663 C665 1.397 . S
C663 H687 0.931 . S
C664 C663 1.386 . S
C664 C668 1.397 . S
C665 C663 1.397 . S
C665 C666 1.384 . S
C665 H688 0.930 . S
C666 C665 1.384 . S
C666 C667 1.377 . S
C666 C669 1.481 . S
C667 C666 1.377 . S
C667 C668 1.389 . S
C667 H689 0.929 . S
C668 C664 1.397 . S
C668 C667 1.389 . S
C668 H690 0.931 . S
C669 C666 1.481 . S
C669 C670 1.387 . S
C669 C674 1.390 . S
C670 C669 1.387 . S
C670 C671 1.401 . S
C670 H691 0.930 . S
C671 C670 1.401 . S
C671 C672 1.376 . S
C671 C680 1.511 . S
C672 C671 1.376 . S
C672 C673 1.392 . S
C672 H693 0.931 . S
C673 C672 1.392 . S
C673 C674 1.361 . S
C673 C675 1.500 . S
C674 C669 1.390 . S
C674 C673 1.361 . S
C674 H692 0.931 . S
C675 C673 1.500 . S
C675 C676 1.371 . S
C675 C677 1.365 . S
C676 C675 1.371 . S
C676 C686 1.386 . S
C676 H694 0.931 . S
C677 C675 1.365 . S
C677 C678 1.409 . S
C677 H695 0.929 . S
C678 C677 1.409 . S
C678 C679 1.380 . S
C678 H696 0.930 . S
C679 C678 1.380 . S
C679 C686 1.357 . S
C680 C671 1.511 . S
C680 C681 1.341 . S
C680 C682 1.371 . S
C681 C680 1.341 . S
C681 C685 1.394 . S
C681 H697 0.930 . S
C682 C680 1.371 . S
C682 C683 1.392 . S
C682 H698 0.931 . S
C683 C682 1.392 . S
C683 C684 1.331 . S
C683 H701 0.932 . S
C684 C683 1.331 . S
C684 C685 1.336 . S
C685 C681 1.394 . S
C685 C684 1.336 . S
C685 H700 0.929 . S
C686 C676 1.386 . S
C686 C679 1.357 . S
C686 H699 0.928 . S
H687 C663 0.931 . S
H688 C665 0.930 . S
H689 C667 0.929 . S
H690 C668 0.931 . S
H691 C670 0.930 . S
H692 C674 0.931 . S
H693 C672 0.931 . S
H694 C676 0.931 . S
H695 C677 0.929 . S
H696 C678 0.930 . S
H697 C681 0.930 . S
H698 C682 0.931 . S
H699 C686 0.928 . S
H700 C685 0.929 . S
H701 C683 0.932 . S
C702 Eu703 2.835 . S
C702 C704 1.500 . S
C702 O722 1.257 1_545 S
C702 O723 1.260 . S
Eu703 C702 2.835 . S
Eu703 O722 2.473 1_545 S
Eu703 O723 2.480 . S
Eu703 O724 2.430 . S
Eu703 O725 2.670 1_554 S
Eu703 O726 2.394 1_545 S
Eu703 O731 2.355 1_545 S
Eu703 O733 2.374 . S
C704 C702 1.500 . S
C704 C705 1.377 . S
C704 C709 1.377 1_545 S
C705 C704 1.377 . S
C705 C706 1.395 . S
C705 H734 0.931 . S
C706 C705 1.395 . S
C706 C707 1.383 1_545 S
C706 H735 0.931 . S
C707 C706 1.383 1_565 S
C707 C708 1.394 . S
C708 C707 1.394 . S
C708 C709 1.378 . S
C708 H736 0.931 . S
C709 C704 1.377 1_565 S
C709 C708 1.378 . S
C709 H737 0.931 . S
C710 O724 1.265 1_556 S
C710 O725 1.268 . S
C711 O726 1.251 . S
C711 O727 1.251 1_554 S
C712 Eu713 2.835 . S
C712 C714 1.500 . S
C712 O728 1.257 1_565 S
C712 O729 1.260 . S
Eu713 C712 2.835 . S
Eu713 O725 2.355 1_565 S
Eu713 O727 2.374 . S
Eu713 O728 2.473 1_565 S
Eu713 O729 2.480 . S
Eu713 O730 2.430 . S
Eu713 O731 2.670 1_556 S
Eu713 O732 2.394 1_565 S
C714 C712 1.500 . S
C714 C715 1.377 . S
C714 C719 1.377 1_565 S
C715 C714 1.377 . S
C715 C716 1.395 . S
C715 H738 0.931 . S
C716 C715 1.395 . S
C716 C717 1.383 1_565 S
C716 H739 0.931 . S
C717 C716 1.383 1_545 S
C717 C718 1.394 . S
C718 C717 1.394 . S
C718 C719 1.378 . S
C718 H740 0.931 . S
C719 C714 1.377 1_545 S
C719 C718 1.378 . S
C719 H741 0.931 . S
C720 O730 1.259 1_554 S
C720 O731 1.270 . S
C721 O732 1.251 . S
C721 O733 1.251 1_556 S
O722 C702 1.257 1_565 S
O722 Eu703 2.473 1_565 S
O723 C702 1.260 . S
O723 Eu703 2.480 . S
O724 Eu703 2.430 . S
O724 C710 1.265 1_554 S
O725 Eu703 2.670 1_556 S
O725 C710 1.268 . S
O725 Eu713 2.355 1_545 S
O726 Eu703 2.394 1_565 S
O726 C711 1.251 . S
O727 C711 1.251 1_556 S
O727 Eu713 2.374 . S
O728 C712 1.257 1_545 S
O728 Eu713 2.473 1_545 S
O729 C712 1.260 . S
O729 Eu713 2.480 . S
O730 Eu713 2.430 . S
O730 C720 1.259 1_556 S
O731 Eu703 2.355 1_565 S
O731 Eu713 2.670 1_554 S
O731 C720 1.270 . S
O732 Eu713 2.394 1_545 S
O732 C721 1.251 . S
O733 Eu703 2.374 . S
O733 C721 1.251 1_554 S
H734 C705 0.931 . S
H735 C706 0.931 . S
H736 C708 0.931 . S
H737 C709 0.931 . S
H738 C715 0.931 . S
H739 C716 0.931 . S
H740 C718 0.931 . S
H741 C719 0.931 . S
C742 Eu743 2.835 . S
C742 C744 1.500 1_655 S
C742 O762 1.257 1_655 S
C742 O763 1.260 . S
Eu743 C742 2.835 . S
Eu743 O762 2.473 1_655 S
Eu743 O763 2.480 . S
Eu743 O764 2.430 . S
Eu743 O765 2.670 1_554 S
Eu743 O766 2.394 1_655 S
Eu743 O771 2.355 1_655 S
Eu743 O773 2.374 . S
C744 C742 1.500 1_455 S
C744 C745 1.377 1_455 S
C744 C749 1.377 . S
C745 C744 1.377 1_655 S
C745 C746 1.395 . S
C745 H774 0.931 . S
C746 C745 1.395 . S
C746 C747 1.383 1_655 S
C746 H775 0.931 . S
C747 C746 1.383 1_455 S
C747 C748 1.394 . S
C748 C747 1.394 . S
C748 C749 1.378 . S
C748 H776 0.931 . S
C749 C744 1.377 . S
C749 C748 1.378 . S
C749 H777 0.931 . S
C750 O764 1.259 1_556 S
C750 O765 1.270 . S
C751 O766 1.251 . S
C751 O767 1.251 . S
C752 Eu753 2.835 . S
C752 C754 1.500 1_455 S
C752 O768 1.257 1_455 S
C752 O769 1.260 . S
Eu753 C752 2.835 . S
Eu753 O765 2.355 1_455 S
Eu753 O767 2.374 1_556 S
Eu753 O768 2.473 1_455 S
Eu753 O769 2.480 . S
Eu753 O770 2.430 . S
Eu753 O771 2.670 1_556 S
Eu753 O772 2.394 1_455 S
C754 C752 1.500 1_655 S
C754 C755 1.377 1_655 S
C754 C759 1.377 . S
C755 C754 1.377 1_455 S
C755 C756 1.395 . S
C755 H778 0.931 . S
C756 C755 1.395 . S
C756 C757 1.383 1_455 S
C756 H779 0.931 . S
C757 C756 1.383 1_655 S
C757 C758 1.394 . S
C758 C757 1.394 . S
C758 C759 1.378 . S
C758 H780 0.931 . S
C759 C754 1.377 . S
C759 C758 1.378 . S
C759 H781 0.931 . S
C760 O770 1.259 1_554 S
C760 O771 1.270 . S
C761 O772 1.251 . S
C761 O773 1.251 1_556 S
O762 C742 1.257 1_455 S
O762 Eu743 2.473 1_455 S
O763 C742 1.260 . S
O763 Eu743 2.480 . S
O764 Eu743 2.430 . S
O764 C750 1.259 1_554 S
O765 Eu743 2.670 1_556 S
O765 C750 1.270 . S
O765 Eu753 2.355 1_655 S
O766 Eu743 2.394 1_455 S
O766 C751 1.251 . S
O767 C751 1.251 . S
O767 Eu753 2.374 1_554 S
O768 C752 1.257 1_655 S
O768 Eu753 2.473 1_655 S
O769 C752 1.260 . S
O769 Eu753 2.480 . S
O770 Eu753 2.430 . S
O770 C760 1.259 1_556 S
O771 Eu743 2.355 1_455 S
O771 Eu753 2.670 1_554 S
O771 C760 1.270 . S
O772 Eu753 2.394 1_655 S
O772 C761 1.251 . S
O773 Eu743 2.374 . S
O773 C761 1.251 1_554 S
H774 C745 0.931 . S
H775 C746 0.931 . S
H776 C748 0.931 . S
H777 C749 0.931 . S
H778 C755 0.931 . S
H779 C756 0.931 . S
H780 C758 0.931 . S
H781 C759 0.931 . S
C782 Eu783 2.835 . S
C782 C784 1.500 . S
C782 O802 1.257 . S
C782 O803 1.260 . S
Eu783 C782 2.835 . S
Eu783 O802 2.473 . S
Eu783 O803 2.480 . S
Eu783 O804 2.430 . S
Eu783 O805 2.670 1_556 S
Eu783 O806 2.394 . S
Eu783 O811 2.355 . S
Eu783 O813 2.377 1_556 S
C784 C782 1.500 . S
C784 C785 1.377 . S
C784 C789 1.377 . S
C785 C784 1.377 . S
C785 C786 1.395 . S
C785 H814 0.931 . S
C786 C785 1.395 . S
C786 C787 1.383 . S
C786 H815 0.931 . S
C787 C786 1.383 . S
C787 C788 1.394 . S
C788 C787 1.394 . S
C788 C789 1.378 . S
C788 H816 0.931 . S
C789 C784 1.377 . S
C789 C788 1.378 . S
C789 H817 0.931 . S
C790 O804 1.259 1_554 S
C790 O805 1.270 . S
C791 O806 1.251 . S
C791 O807 1.251 1_556 S
C792 Eu793 2.835 . S
C792 C794 1.500 . S
C792 O808 1.257 . S
C792 O809 1.260 . S
Eu793 C792 2.835 . S
Eu793 O805 2.355 . S
Eu793 O807 2.374 . S
Eu793 O808 2.473 . S
Eu793 O809 2.480 . S
Eu793 O810 2.430 . S
Eu793 O811 2.670 1_554 S
Eu793 O812 2.394 . S
C794 C792 1.500 . S
C794 C795 1.377 . S
C794 C799 1.377 . S
C795 C794 1.377 . S
C795 C796 1.395 . S
C795 H818 0.931 . S
C796 C795 1.395 . S
C796 C797 1.383 . S
C796 H819 0.931 . S
C797 C796 1.383 . S
C797 C798 1.394 . S
C798 C797 1.394 . S
C798 C799 1.378 . S
C798 H820 0.931 . S
C799 C794 1.377 . S
C799 C798 1.378 . S
C799 H821 0.931 . S
C800 O810 1.259 1_556 S
C800 O811 1.270 . S
C801 O812 1.251 . S
C801 O813 1.247 . S
O802 C782 1.257 . S
O802 Eu783 2.473 . S
O803 C782 1.260 . S
O803 Eu783 2.480 . S
O804 Eu783 2.430 . S
O804 C790 1.259 1_556 S
O805 Eu783 2.670 1_554 S
O805 C790 1.270 . S
O805 Eu793 2.355 . S
O806 Eu783 2.394 . S
O806 C791 1.251 . S
O807 C791 1.251 1_554 S
O807 Eu793 2.374 . S
O808 C792 1.257 . S
O808 Eu793 2.473 . S
O809 C792 1.260 . S
O809 Eu793 2.480 . S
O810 Eu793 2.430 . S
O810 C800 1.259 1_554 S
O811 Eu783 2.355 . S
O811 Eu793 2.670 1_556 S
O811 C800 1.270 . S
O812 Eu793 2.394 . S
O812 C801 1.251 . S
O813 Eu783 2.377 1_554 S
O813 C801 1.247 . S
H814 C785 0.931 . S
H815 C786 0.931 . S
H816 C788 0.931 . S
H817 C789 0.931 . S
H818 C795 0.931 . S
H819 C796 0.931 . S
H820 C798 0.931 . S
H821 C799 0.931 . S
C822 Eu823 2.835 . S
C822 C824 1.500 . S
C822 O842 1.257 . S
C822 O843 1.260 . S
Eu823 C822 2.835 . S
Eu823 O842 2.473 . S
Eu823 O843 2.480 . S
Eu823 O844 2.430 . S
Eu823 O845 2.670 . S
Eu823 O846 2.394 . S
Eu823 O851 2.355 . S
Eu823 O853 2.374 . S
C824 C822 1.500 . S
C824 C825 1.377 . S
C824 C829 1.377 . S
C825 C824 1.377 . S
C825 C826 1.395 . S
C825 H854 0.931 . S
C826 C825 1.395 . S
C826 C827 1.383 . S
C826 H855 0.931 . S
C827 C826 1.383 . S
C827 C828 1.394 . S
C828 C827 1.394 . S
C828 C829 1.378 . S
C828 H856 0.931 . S
C829 C824 1.377 . S
C829 C828 1.378 . S
C829 H857 0.931 . S
C830 O844 1.259 . S
C830 O845 1.270 . S
C831 O846 1.251 . S
C831 O847 1.251 . S
C832 Eu833 2.835 . S
C832 C834 1.500 . S
C832 O848 1.257 . S
C832 O849 1.260 . S
Eu833 C832 2.835 . S
Eu833 O845 2.355 . S
Eu833 O847 2.374 . S
Eu833 O848 2.473 . S
Eu833 O849 2.480 . S
Eu833 O850 2.430 . S
Eu833 O851 2.670 . S
Eu833 O852 2.394 . S
C834 C832 1.500 . S
C834 C835 1.377 . S
C834 C839 1.377 . S
C835 C834 1.377 . S
C835 C836 1.395 . S
C835 H858 0.931 . S
C836 C835 1.395 . S
C836 C837 1.383 . S
C836 H859 0.931 . S
C837 C836 1.383 . S
C837 C838 1.394 . S
C838 C837 1.394 . S
C838 C839 1.378 . S
C838 H860 0.931 . S
C839 C834 1.377 . S
C839 C838 1.378 . S
C839 H861 0.931 . S
C840 O850 1.259 . S
C840 O851 1.270 . S
C841 O852 1.251 . S
C841 O853 1.251 . S
O842 C822 1.257 . S
O842 Eu823 2.473 . S
O843 C822 1.260 . S
O843 Eu823 2.480 . S
O844 Eu823 2.430 . S
O844 C830 1.259 . S
O845 Eu823 2.670 . S
O845 C830 1.270 . S
O845 Eu833 2.355 . S
O846 Eu823 2.394 . S
O846 C831 1.251 . S
O847 C831 1.251 . S
O847 Eu833 2.374 . S
O848 C832 1.257 . S
O848 Eu833 2.473 . S
O849 C832 1.260 . S
O849 Eu833 2.480 . S
O850 Eu833 2.430 . S
O850 C840 1.259 . S
O851 Eu823 2.355 . S
O851 Eu833 2.670 . S
O851 C840 1.270 . S
O852 Eu833 2.394 . S
O852 C841 1.251 . S
O853 Eu823 2.374 . S
O853 C841 1.251 . S
H854 C825 0.931 . S
H855 C826 0.931 . S
H856 C828 0.931 . S
H857 C829 0.931 . S
H858 C835 0.931 . S
H859 C836 0.931 . S
H860 C838 0.931 . S
H861 C839 0.931 . S
C862 Eu863 2.835 . S
C862 C864 1.500 . S
C862 O882 1.257 . S
C862 O883 1.260 . S
Eu863 C862 2.835 . S
Eu863 O882 2.473 . S
Eu863 O883 2.480 . S
Eu863 O884 2.430 . S
Eu863 O885 2.670 . S
Eu863 O886 2.394 . S
Eu863 O891 2.355 . S
Eu863 O893 2.374 . S
C864 C862 1.500 . S
C864 C865 1.377 . S
C864 C869 1.377 . S
C865 C864 1.377 . S
C865 C866 1.395 . S
C865 H894 0.931 . S
C866 C865 1.395 . S
C866 C867 1.383 . S
C866 H895 0.931 . S
C867 C866 1.383 . S
C867 C868 1.394 . S
C868 C867 1.394 . S
C868 C869 1.378 . S
C868 H896 0.931 . S
C869 C864 1.377 . S
C869 C868 1.378 . S
C869 H897 0.931 . S
C870 O884 1.259 . S
C870 O885 1.270 . S
C871 O886 1.251 . S
C871 O887 1.251 . S
C872 Eu873 2.835 . S
C872 C874 1.500 . S
C872 O888 1.257 . S
C872 O889 1.260 . S
Eu873 C872 2.835 . S
Eu873 O885 2.355 . S
Eu873 O887 2.374 . S
Eu873 O888 2.473 . S
Eu873 O889 2.480 . S
Eu873 O890 2.430 . S
Eu873 O891 2.670 . S
Eu873 O892 2.394 . S
C874 C872 1.500 . S
C874 C875 1.377 . S
C874 C879 1.377 . S
C875 C874 1.377 . S
C875 C876 1.395 . S
C875 H898 0.931 . S
C876 C875 1.395 . S
C876 C877 1.383 . S
C876 H899 0.931 . S
C877 C876 1.383 . S
C877 C878 1.394 . S
C878 C877 1.394 . S
C878 C879 1.378 . S
C878 H900 0.931 . S
C879 C874 1.377 . S
C879 C878 1.378 . S
C879 H901 0.931 . S
C880 O890 1.259 . S
C880 O891 1.270 . S
C881 O892 1.251 . S
C881 O893 1.251 . S
O882 C862 1.257 . S
O882 Eu863 2.473 . S
O883 C862 1.260 . S
O883 Eu863 2.480 . S
O884 Eu863 2.430 . S
O884 C870 1.259 . S
O885 Eu863 2.670 . S
O885 C870 1.270 . S
O885 Eu873 2.355 . S
O886 Eu863 2.394 . S
O886 C871 1.251 . S
O887 C871 1.251 . S
O887 Eu873 2.374 . S
O888 C872 1.257 . S
O888 Eu873 2.473 . S
O889 C872 1.260 . S
O889 Eu873 2.480 . S
O890 Eu873 2.430 . S
O890 C880 1.259 . S
O891 Eu863 2.355 . S
O891 Eu873 2.670 . S
O891 C880 1.270 . S
O892 Eu873 2.394 . S
O892 C881 1.251 . S
O893 Eu863 2.374 . S
O893 C881 1.251 . S
H894 C865 0.931 . S
H895 C866 0.931 . S
H896 C868 0.931 . S
H897 C869 0.931 . S
H898 C875 0.931 . S
H899 C876 0.931 . S
H900 C878 0.931 . S
H901 C879 0.931 . S
C902 Eu903 2.835 . S
C902 C904 1.500 . S
C902 O922 1.257 . S
C902 O923 1.260 . S
Eu903 C902 2.835 . S
Eu903 O922 2.473 . S
Eu903 O923 2.480 . S
Eu903 O924 2.430 . S
Eu903 O925 2.670 . S
Eu903 O926 2.394 . S
Eu903 O931 2.355 . S
Eu903 O933 2.374 . S
C904 C902 1.500 . S
C904 C905 1.377 . S
C904 C909 1.377 . S
C905 C904 1.377 . S
C905 C906 1.395 . S
C905 H934 0.931 . S
C906 C905 1.395 . S
C906 C907 1.383 . S
C906 H935 0.931 . S
C907 C906 1.383 . S
C907 C908 1.394 . S
C908 C907 1.394 . S
C908 C909 1.378 . S
C908 H936 0.931 . S
C909 C904 1.377 . S
C909 C908 1.378 . S
C909 H937 0.931 . S
C910 O924 1.259 . S
C910 O925 1.270 . S
C911 O926 1.251 . S
C911 O927 1.251 . S
C912 Eu913 2.835 . S
C912 C914 1.500 . S
C912 O928 1.257 . S
C912 O929 1.260 . S
Eu913 C912 2.835 . S
Eu913 O925 2.355 . S
Eu913 O927 2.374 . S
Eu913 O928 2.473 . S
Eu913 O929 2.480 . S
Eu913 O930 2.430 . S
Eu913 O931 2.670 . S
Eu913 O932 2.394 . S
C914 C912 1.500 . S
C914 C915 1.377 . S
C914 C919 1.377 . S
C915 C914 1.377 . S
C915 C916 1.395 . S
C915 H938 0.931 . S
C916 C915 1.395 . S
C916 C917 1.383 . S
C916 H939 0.931 . S
C917 C916 1.383 . S
C917 C918 1.394 . S
C918 C917 1.394 . S
C918 C919 1.378 . S
C918 H940 0.931 . S
C919 C914 1.377 . S
C919 C918 1.378 . S
C919 H941 0.931 . S
C920 O930 1.259 . S
C920 O931 1.270 . S
C921 O932 1.251 . S
C921 O933 1.251 . S
O922 C902 1.257 . S
O922 Eu903 2.473 . S
O923 C902 1.260 . S
O923 Eu903 2.480 . S
O924 Eu903 2.430 . S
O924 C910 1.259 . S
O925 Eu903 2.670 . S
O925 C910 1.270 . S
O925 Eu913 2.355 . S
O926 Eu903 2.394 . S
O926 C911 1.251 . S
O927 C911 1.251 . S
O927 Eu913 2.374 . S
O928 C912 1.257 . S
O928 Eu913 2.473 . S
O929 C912 1.260 . S
O929 Eu913 2.480 . S
O930 Eu913 2.430 . S
O930 C920 1.259 . S
O931 Eu903 2.355 . S
O931 Eu913 2.670 . S
O931 C920 1.270 . S
O932 Eu913 2.394 . S
O932 C921 1.251 . S
O933 Eu903 2.374 . S
O933 C921 1.251 . S
H934 C905 0.931 . S
H935 C906 0.931 . S
H936 C908 0.931 . S
H937 C909 0.931 . S
H938 C915 0.931 . S
H939 C916 0.931 . S
H940 C918 0.931 . S
H941 C919 0.931 . S
C942 Eu943 2.835 . S
C942 C944 1.500 . S
C942 O962 1.257 . S
C942 O963 1.260 . S
Eu943 C942 2.835 . S
Eu943 O962 2.473 . S
Eu943 O963 2.480 . S
Eu943 O964 2.430 . S
Eu943 O965 2.670 . S
Eu943 O966 2.394 . S
Eu943 O971 2.355 . S
Eu943 O973 2.374 . S
C944 C942 1.500 . S
C944 C945 1.377 . S
C944 C949 1.377 . S
C945 C944 1.377 . S
C945 C946 1.395 . S
C945 H974 0.931 . S
C946 C945 1.395 . S
C946 C947 1.383 . S
C946 H975 0.931 . S
C947 C946 1.383 . S
C947 C948 1.394 . S
C948 C947 1.394 . S
C948 C949 1.378 . S
C948 H976 0.931 . S
C949 C944 1.377 . S
C949 C948 1.378 . S
C949 H977 0.931 . S
C950 O964 1.259 . S
C950 O965 1.270 . S
C951 O966 1.251 . S
C951 O967 1.251 . S
C952 Eu953 2.835 . S
C952 C954 1.500 . S
C952 O968 1.257 . S
C952 O969 1.260 . S
Eu953 C952 2.835 . S
Eu953 O965 2.355 . S
Eu953 O967 2.374 . S
Eu953 O968 2.473 . S
Eu953 O969 2.480 . S
Eu953 O970 2.430 . S
Eu953 O971 2.670 . S
Eu953 O972 2.394 . S
C954 C952 1.500 . S
C954 C955 1.377 . S
C954 C959 1.377 . S
C955 C954 1.377 . S
C955 C956 1.395 . S
C955 H978 0.931 . S
C956 C955 1.395 . S
C956 C957 1.383 . S
C956 H979 0.931 . S
C957 C956 1.383 . S
C957 C958 1.394 . S
C958 C957 1.394 . S
C958 C959 1.378 . S
C958 H980 0.931 . S
C959 C954 1.377 . S
C959 C958 1.378 . S
C959 H981 0.931 . S
C960 O970 1.259 . S
C960 O971 1.270 . S
C961 O972 1.251 . S
C961 O973 1.251 . S
O962 C942 1.257 . S
O962 Eu943 2.473 . S
O963 C942 1.260 . S
O963 Eu943 2.480 . S
O964 Eu943 2.430 . S
O964 C950 1.259 . S
O965 Eu943 2.670 . S
O965 C950 1.270 . S
O965 Eu953 2.355 . S
O966 Eu943 2.394 . S
O966 C951 1.251 . S
O967 C951 1.251 . S
O967 Eu953 2.374 . S
O968 C952 1.257 . S
O968 Eu953 2.473 . S
O969 C952 1.260 . S
O969 Eu953 2.480 . S
O970 Eu953 2.430 . S
O970 C960 1.259 . S
O971 Eu943 2.355 . S
O971 Eu953 2.670 . S
O971 C960 1.270 . S
O972 Eu953 2.394 . S
O972 C961 1.251 . S
O973 Eu943 2.374 . S
O973 C961 1.251 . S
H974 C945 0.931 . S
H975 C946 0.931 . S
H976 C948 0.931 . S
H977 C949 0.931 . S
H978 C955 0.931 . S
H979 C956 0.931 . S
H980 C958 0.931 . S
H981 C959 0.931 . S
C982 Eu983 2.835 . S
C982 C984 1.500 . S
C982 O1002 1.257 . S
C982 O1003 1.260 . S
Eu983 C982 2.835 . S
Eu983 O1002 2.473 . S
Eu983 O1003 2.480 . S
Eu983 O1004 2.430 . S
Eu983 O1005 2.670 . S
Eu983 O1006 2.394 . S
Eu983 O1011 2.355 . S
Eu983 O1013 2.374 . S
C984 C982 1.500 . S
C984 C985 1.377 . S
C984 C989 1.377 . S
C985 C984 1.377 . S
C985 C986 1.395 . S
C985 H1014 0.931 . S
C986 C985 1.395 . S
C986 C987 1.383 . S
C986 H1015 0.931 . S
C987 C986 1.383 . S
C987 C988 1.394 . S
C988 C987 1.394 . S
C988 C989 1.378 . S
C988 H1016 0.931 . S
C989 C984 1.377 . S
C989 C988 1.378 . S
C989 H1017 0.931 . S
C990 O1004 1.259 . S
C990 O1005 1.270 . S
C991 O1006 1.251 . S
C991 O1007 1.251 . S
C992 Eu993 2.835 . S
C992 C994 1.500 . S
C992 O1008 1.257 . S
C992 O1009 1.260 . S
Eu993 C992 2.835 . S
Eu993 O1005 2.355 . S
Eu993 O1007 2.374 . S
Eu993 O1008 2.473 . S
Eu993 O1009 2.480 . S
Eu993 O1010 2.430 . S
Eu993 O1011 2.670 . S
Eu993 O1012 2.394 . S
C994 C992 1.500 . S
C994 C995 1.377 . S
C994 C999 1.377 . S
C995 C994 1.377 . S
C995 C996 1.395 . S
C995 H1018 0.931 . S
C996 C995 1.395 . S
C996 C997 1.383 . S
C996 H1019 0.931 . S
C997 C996 1.383 . S
C997 C998 1.394 . S
C998 C997 1.394 . S
C998 C999 1.378 . S
C998 H1020 0.931 . S
C999 C994 1.377 . S
C999 C998 1.378 . S
C999 H1021 0.931 . S
C1000 O1010 1.259 . S
C1000 O1011 1.270 . S
C1001 O1012 1.251 . S
C1001 O1013 1.251 . S
O1002 C982 1.257 . S
O1002 Eu983 2.473 . S
O1003 C982 1.260 . S
O1003 Eu983 2.480 . S
O1004 Eu983 2.430 . S
O1004 C990 1.259 . S
O1005 Eu983 2.670 . S
O1005 C990 1.270 . S
O1005 Eu993 2.355 . S
O1006 Eu983 2.394 . S
O1006 C991 1.251 . S
O1007 C991 1.251 . S
O1007 Eu993 2.374 . S
O1008 C992 1.257 . S
O1008 Eu993 2.473 . S
O1009 C992 1.260 . S
O1009 Eu993 2.480 . S
O1010 Eu993 2.430 . S
O1010 C1000 1.259 . S
O1011 Eu983 2.355 . S
O1011 Eu993 2.670 . S
O1011 C1000 1.270 . S
O1012 Eu993 2.394 . S
O1012 C1001 1.251 . S
O1013 Eu983 2.374 . S
O1013 C1001 1.251 . S
H1014 C985 0.931 . S
H1015 C986 0.931 . S
H1016 C988 0.931 . S
H1017 C989 0.931 . S
H1018 C995 0.931 . S
H1019 C996 0.931 . S
H1020 C998 0.931 . S
H1021 C999 0.931 . S
C1022 Eu1023 2.835 . S
C1022 C1024 1.500 . S
C1022 O1042 1.257 . S
C1022 O1043 1.260 . S
Eu1023 C1022 2.835 . S
Eu1023 O1042 2.473 . S
Eu1023 O1043 2.480 . S
Eu1023 O1044 2.430 . S
Eu1023 O1045 2.670 . S
Eu1023 O1046 2.394 . S
Eu1023 O1051 2.355 . S
Eu1023 O1053 2.374 . S
C1024 C1022 1.500 . S
C1024 C1025 1.377 . S
C1024 C1029 1.377 . S
C1025 C1024 1.377 . S
C1025 C1026 1.395 . S
C1025 H1054 0.931 . S
C1026 C1025 1.395 . S
C1026 C1027 1.383 . S
C1026 H1055 0.931 . S
C1027 C1026 1.383 . S
C1027 C1028 1.394 . S
C1028 C1027 1.394 . S
C1028 C1029 1.378 . S
C1028 H1056 0.931 . S
C1029 C1024 1.377 . S
C1029 C1028 1.378 . S
C1029 H1057 0.931 . S
C1030 O1044 1.259 . S
C1030 O1045 1.270 . S
C1031 O1046 1.251 . S
C1031 O1047 1.251 . S
C1032 Eu1033 2.835 . S
C1032 C1034 1.500 . S
C1032 O1048 1.257 . S
C1032 O1049 1.260 . S
Eu1033 C1032 2.835 . S
Eu1033 O1045 2.355 . S
Eu1033 O1047 2.374 . S
Eu1033 O1048 2.473 . S
Eu1033 O1049 2.480 . S
Eu1033 O1050 2.430 . S
Eu1033 O1051 2.670 . S
Eu1033 O1052 2.394 . S
C1034 C1032 1.500 . S
C1034 C1035 1.377 . S
C1034 C1039 1.377 . S
C1035 C1034 1.377 . S
C1035 C1036 1.395 . S
C1035 H1058 0.931 . S
C1036 C1035 1.395 . S
C1036 C1037 1.383 . S
C1036 H1059 0.931 . S
C1037 C1036 1.383 . S
C1037 C1038 1.394 . S
C1038 C1037 1.394 . S
C1038 C1039 1.378 . S
C1038 H1060 0.931 . S
C1039 C1034 1.377 . S
C1039 C1038 1.378 . S
C1039 H1061 0.931 . S
C1040 O1050 1.259 . S
C1040 O1051 1.270 . S
C1041 O1052 1.251 . S
C1041 O1053 1.251 . S
O1042 C1022 1.257 . S
O1042 Eu1023 2.473 . S
O1043 C1022 1.260 . S
O1043 Eu1023 2.480 . S
O1044 Eu1023 2.430 . S
O1044 C1030 1.259 . S
O1045 Eu1023 2.670 . S
O1045 C1030 1.270 . S
O1045 Eu1033 2.355 . S
O1046 Eu1023 2.394 . S
O1046 C1031 1.251 . S
O1047 C1031 1.251 . S
O1047 Eu1033 2.374 . S
O1048 C1032 1.257 . S
O1048 Eu1033 2.473 . S
O1049 C1032 1.260 . S
O1049 Eu1033 2.480 . S
O1050 Eu1033 2.430 . S
O1050 C1040 1.259 . S
O1051 Eu1023 2.355 . S
O1051 Eu1033 2.670 . S
O1051 C1040 1.270 . S
O1052 Eu1033 2.394 . S
O1052 C1041 1.251 . S
O1053 Eu1023 2.374 . S
O1053 C1041 1.251 . S
H1054 C1025 0.931 . S
H1055 C1026 0.931 . S
H1056 C1028 0.931 . S
H1057 C1029 0.931 . S
H1058 C1035 0.931 . S
H1059 C1036 0.931 . S
H1060 C1038 0.931 . S
H1061 C1039 0.931 . S
C1062 C1063 1.349 . S
C1062 C1064 1.327 . S
C1062 H1087 0.950 . S
C1063 C1062 1.349 . S
C1063 C1079 1.349 . S
C1064 C1062 1.327 . S
C1064 C1083 1.429 . S
C1064 H1088 0.950 . S
C1065 C1082 1.574 . S
C1065 C1084 1.368 . S
C1065 H1089 0.949 . S
H1066 C1070 0.949 . S
C1067 C1068 1.349 . S
C1067 C1069 1.327 . S
C1067 H1090 0.950 . S
C1068 C1067 1.349 . S
C1068 C1080 1.349 . S
C1069 C1067 1.327 . S
C1069 C1085 1.429 . S
C1069 H1091 0.950 . S
C1070 H1066 0.949 . S
C1070 C1078 1.574 . S
C1070 C1086 1.368 . S
H1071 C1079 0.950 . S
H1072 C1077 0.950 . S
H1073 C1078 0.949 . S
H1074 C1080 0.950 . S
H1075 C1081 0.950 . S
H1076 C1082 0.949 . S
C1077 H1072 0.950 . S
C1077 C1079 1.327 . S
C1077 C1083 1.429 . S
C1078 C1070 1.574 . S
C1078 H1073 0.949 . S
C1078 C1084 1.368 . S
C1079 C1063 1.349 . S
C1079 H1071 0.950 . S
C1079 C1077 1.327 . S
C1080 C1068 1.349 . S
C1080 H1074 0.950 . S
C1080 C1081 1.327 . S
C1081 H1075 0.950 . S
C1081 C1080 1.327 . S
C1081 C1085 1.429 . S
C1082 C1065 1.574 . S
C1082 H1076 0.949 . S
C1082 C1086 1.368 . S
C1083 C1064 1.429 . S
C1083 C1077 1.429 . S
C1083 C1084 1.523 . S
C1084 C1065 1.368 . S
C1084 C1078 1.368 . S
C1084 C1083 1.523 . S
C1085 C1069 1.429 . S
C1085 C1081 1.429 . S
C1085 C1086 1.523 . S
C1086 C1070 1.368 . S
C1086 C1082 1.368 . S
C1086 C1085 1.523 . S
H1087 C1062 0.950 . S
H1088 C1064 0.950 . S
H1089 C1065 0.949 . S
H1090 C1067 0.950 . S
H1091 C1069 0.950 . S
C1092 C1093 1.349 . S
C1092 C1094 1.327 . S
C1092 H1117 0.950 . S
C1093 C1092 1.349 . S
C1093 C1109 1.349 . S
C1094 C1092 1.327 . S
C1094 C1113 1.429 . S
C1094 H1118 0.950 . S
C1095 C1112 1.574 . S
C1095 C1114 1.368 . S
C1095 H1119 0.949 . S
H1096 C1100 0.949 . S
C1097 C1098 1.349 . S
C1097 C1099 1.327 . S
C1097 H1120 0.950 . S
C1098 C1097 1.349 . S
C1098 C1110 1.349 . S
C1099 C1097 1.327 . S
C1099 C1115 1.429 . S
C1099 H1121 0.950 . S
C1100 H1096 0.949 . S
C1100 C1108 1.574 . S
C1100 C1116 1.368 . S
H1101 C1109 0.950 . S
H1102 C1107 0.950 . S
H1103 C1108 0.949 . S
H1104 C1110 0.950 . S
H1105 C1111 0.950 . S
H1106 C1112 0.949 . S
C1107 H1102 0.950 . S
C1107 C1109 1.327 . S
C1107 C1113 1.429 . S
C1108 C1100 1.574 . S
C1108 H1103 0.949 . S
C1108 C1114 1.368 . S
C1109 C1093 1.349 . S
C1109 H1101 0.950 . S
C1109 C1107 1.327 . S
C1110 C1098 1.349 . S
C1110 H1104 0.950 . S
C1110 C1111 1.327 . S
C1111 H1105 0.950 . S
C1111 C1110 1.327 . S
C1111 C1115 1.429 . S
C1112 C1095 1.574 . S
C1112 H1106 0.949 . S
C1112 C1116 1.368 . S
C1113 C1094 1.429 . S
C1113 C1107 1.429 . S
C1113 C1114 1.523 . S
C1114 C1095 1.368 . S
C1114 C1108 1.368 . S
C1114 C1113 1.523 . S
C1115 C1099 1.429 . S
C1115 C1111 1.429 . S
C1115 C1116 1.523 . S
C1116 C1100 1.368 . S
C1116 C1112 1.368 . S
C1116 C1115 1.523 . S
H1117 C1092 0.950 . S
H1118 C1094 0.950 . S
H1119 C1095 0.949 . S
H1120 C1097 0.950 . S
H1121 C1099 0.950 . S
C1122 C1123 1.349 . S
C1122 C1124 1.327 . S
C1122 H1147 0.950 . S
C1123 C1122 1.349 . S
C1123 C1139 1.349 . S
C1124 C1122 1.327 . S
C1124 C1143 1.429 . S
C1124 H1148 0.950 . S
C1125 C1142 1.574 . S
C1125 C1144 1.368 . S
C1125 H1149 0.949 . S
H1126 C1130 0.949 . S
C1127 C1128 1.349 . S
C1127 C1129 1.327 . S
C1127 H1150 0.950 . S
C1128 C1127 1.349 . S
C1128 C1140 1.349 . S
C1129 C1127 1.327 . S
C1129 C1145 1.429 . S
C1129 H1151 0.950 . S
C1130 H1126 0.949 . S
C1130 C1138 1.574 . S
C1130 C1146 1.368 . S
H1131 C1139 0.950 . S
H1132 C1137 0.950 . S
H1133 C1138 0.949 . S
H1134 C1140 0.950 1_556 S
H1135 C1141 1.016 . S
H1136 C1142 0.949 . S
C1137 H1132 0.950 . S
C1137 C1139 1.327 . S
C1137 C1143 1.429 . S
C1138 C1130 1.574 . S
C1138 H1133 0.949 . S
C1138 C1144 1.368 . S
C1139 C1123 1.349 . S
C1139 H1131 0.950 . S
C1139 C1137 1.327 . S
C1140 C1128 1.349 . S
C1140 H1134 0.950 1_554 S
C1140 C1141 1.327 . S
C1141 H1135 1.016 . S
C1141 C1140 1.327 . S
C1141 C1145 1.429 . S
C1142 C1125 1.574 . S
C1142 H1136 0.949 . S
C1142 C1146 1.368 . S
C1143 C1124 1.429 . S
C1143 C1137 1.429 . S
C1143 C1144 1.523 . S
C1144 C1125 1.368 . S
C1144 C1138 1.368 . S
C1144 C1143 1.523 . S
C1145 C1129 1.429 . S
C1145 C1141 1.429 . S
C1145 C1146 1.523 . S
C1146 C1130 1.368 . S
C1146 C1142 1.368 . S
C1146 C1145 1.523 . S
H1147 C1122 0.950 . S
H1148 C1124 0.950 . S
H1149 C1125 0.949 . S
H1150 C1127 0.950 . S
H1151 C1129 0.950 . S
C1152 C1153 1.349 . S
C1152 C1154 1.327 . S
C1152 H1177 0.950 . S
C1153 C1152 1.349 . S
C1153 C1169 1.349 . S
C1154 C1152 1.327 . S
C1154 C1173 1.429 . S
C1154 H1178 0.950 . S
C1155 C1172 1.574 . S
C1155 C1174 1.368 . S
C1155 H1179 0.949 . S
H1156 C1160 0.949 . S
C1157 C1158 1.349 . S
C1157 C1159 1.327 . S
C1157 H1180 0.950 . S
C1158 C1157 1.349 . S
C1158 C1170 1.349 . S
C1159 C1157 1.327 . S
C1159 C1175 1.429 . S
C1159 H1181 0.950 . S
C1160 H1156 0.949 . S
C1160 C1168 1.574 . S
C1160 C1176 1.368 . S
H1161 C1169 0.950 . S
H1162 C1167 0.950 . S
H1163 C1168 0.949 . S
H1164 C1170 0.950 1_554 S
H1165 C1171 0.955 . S
H1166 C1172 0.949 . S
C1167 H1162 0.950 . S
C1167 C1169 1.327 . S
C1167 C1173 1.429 . S
C1168 C1160 1.574 . S
C1168 H1163 0.949 . S
C1168 C1174 1.368 . S
C1169 C1153 1.349 . S
C1169 H1161 0.950 . S
C1169 C1167 1.327 . S
C1170 C1158 1.349 . S
C1170 H1164 0.950 1_556 S
C1170 C1171 1.327 . S
C1171 H1165 0.955 . S
C1171 C1170 1.327 . S
C1171 C1175 1.429 . S
C1172 C1155 1.574 . S
C1172 H1166 0.949 . S
C1172 C1176 1.368 . S
C1173 C1154 1.429 . S
C1173 C1167 1.429 . S
C1173 C1174 1.523 . S
C1174 C1155 1.368 . S
C1174 C1168 1.368 . S
C1174 C1173 1.523 . S
C1175 C1159 1.429 . S
C1175 C1171 1.429 . S
C1175 C1176 1.523 . S
C1176 C1160 1.368 . S
C1176 C1172 1.368 . S
C1176 C1175 1.523 . S
H1177 C1152 0.950 . S
H1178 C1154 0.950 . S
H1179 C1155 0.949 . S
H1180 C1157 0.950 . S
H1181 C1159 0.950 . S
C1182 C1183 1.349 . S
C1182 C1184 1.327 . S
C1182 H1207 0.950 . S
C1183 C1182 1.349 . S
C1183 C1199 1.349 . S
C1184 C1182 1.327 . S
C1184 C1203 1.429 . S
C1184 H1208 0.950 . S
C1185 C1202 1.574 . S
C1185 C1204 1.368 . S
C1185 H1209 0.949 . S
H1186 C1190 0.949 . S
C1187 C1188 1.349 . S
C1187 C1189 1.327 . S
C1187 H1210 0.950 . S
C1188 C1187 1.349 . S
C1188 C1200 1.349 . S
C1189 C1187 1.327 . S
C1189 C1205 1.429 . S
C1189 H1211 0.950 . S
C1190 H1186 0.949 . S
C1190 C1198 1.574 . S
C1190 C1206 1.368 . S
H1191 C1199 0.950 . S
H1192 C1197 0.950 . S
H1193 C1198 0.949 . S
H1194 C1200 0.950 . S
H1195 C1201 0.950 . S
H1196 C1202 0.949 . S
C1197 H1192 0.950 . S
C1197 C1199 1.327 . S
C1197 C1203 1.429 . S
C1198 C1190 1.574 . S
C1198 H1193 0.949 . S
C1198 C1204 1.368 . S
C1199 C1183 1.349 . S
C1199 H1191 0.950 . S
C1199 C1197 1.327 . S
C1200 C1188 1.349 . S
C1200 H1194 0.950 . S
C1200 C1201 1.327 . S
C1201 H1195 0.950 . S
C1201 C1200 1.327 . S
C1201 C1205 1.429 . S
C1202 C1185 1.574 . S
C1202 H1196 0.949 . S
C1202 C1206 1.368 . S
C1203 C1184 1.429 . S
C1203 C1197 1.429 . S
C1203 C1204 1.523 . S
C1204 C1185 1.368 . S
C1204 C1198 1.368 . S
C1204 C1203 1.523 . S
C1205 C1189 1.429 . S
C1205 C1201 1.429 . S
C1205 C1206 1.523 . S
C1206 C1190 1.368 . S
C1206 C1202 1.368 . S
C1206 C1205 1.523 . S
H1207 C1182 0.950 . S
H1208 C1184 0.950 . S
H1209 C1185 0.949 . S
H1210 C1187 0.950 . S
H1211 C1189 0.950 . S
C1212 C1213 1.349 . S
C1212 C1214 1.327 . S
C1212 H1237 0.950 . S
C1213 C1212 1.349 . S
C1213 C1229 1.349 . S
C1214 C1212 1.327 . S
C1214 C1233 1.429 . S
C1214 H1238 0.950 . S
C1215 C1232 1.574 . S
C1215 C1234 1.368 . S
C1215 H1239 0.949 . S
H1216 C1220 0.949 . S
C1217 C1218 1.349 1_554 S
C1217 C1219 1.328 . S
C1217 H1240 0.950 . S
C1218 C1217 1.349 1_556 S
C1218 C1230 1.349 . S
C1219 C1217 1.328 . S
C1219 C1235 1.426 1_554 S
C1219 H1241 0.952 . S
C1220 H1216 0.949 . S
C1220 C1228 1.574 . S
C1220 C1236 1.368 . S
H1221 C1229 0.950 . S
H1222 C1227 0.950 . S
H1223 C1228 0.949 . S
H1224 C1230 0.950 . S
H1225 C1231 0.950 . S
H1226 C1232 0.949 1_554 S
C1227 H1222 0.950 . S
C1227 C1229 1.327 . S
C1227 C1233 1.429 . S
C1228 C1220 1.574 . S
C1228 H1223 0.949 . S
C1228 C1234 1.368 . S
C1229 C1213 1.349 . S
C1229 H1221 0.950 . S
C1229 C1227 1.327 . S
C1230 C1218 1.349 . S
C1230 H1224 0.950 . S
C1230 C1231 1.327 . S
C1231 H1225 0.950 . S
C1231 C1230 1.327 . S
C1231 C1235 1.429 . S
C1232 C1215 1.574 . S
C1232 H1226 0.949 1_556 S
C1232 C1236 1.368 . S
C1233 C1214 1.429 . S
C1233 C1227 1.429 . S
C1233 C1234 1.523 . S
C1234 C1215 1.368 . S
C1234 C1228 1.368 . S
C1234 C1233 1.523 . S
C1235 C1219 1.426 1_556 S
C1235 C1231 1.429 . S
C1235 C1236 1.523 . S
C1236 C1220 1.368 . S
C1236 C1232 1.368 . S
C1236 C1235 1.523 . S
H1237 C1212 0.950 . S
H1238 C1214 0.950 . S
H1239 C1215 0.949 . S
H1240 C1217 0.950 . S
H1241 C1219 0.952 . S
C1242 C1243 1.349 . S
C1242 C1244 1.327 . S
C1242 H1267 0.950 . S
C1243 C1242 1.349 . S
C1243 C1259 1.349 . S
C1244 C1242 1.327 . S
C1244 C1263 1.429 . S
C1244 H1268 0.950 . S
C1245 C1262 1.574 . S
C1245 C1264 1.368 . S
C1245 H1269 0.949 . S
H1246 C1250 0.949 . S
C1247 C1248 1.349 . S
C1247 C1249 1.327 . S
C1247 H1270 0.950 . S
C1248 C1247 1.349 . S
C1248 C1260 1.349 . S
C1249 C1247 1.327 . S
C1249 C1265 1.429 . S
C1249 H1271 0.950 . S
C1250 H1246 0.949 . S
C1250 C1258 1.574 . S
C1250 C1266 1.368 . S
H1251 C1259 0.950 . S
H1252 C1257 0.950 . S
H1253 C1258 0.949 . S
H1254 C1260 0.894 1_554 S
H1255 C1261 0.950 . S
H1256 C1262 0.949 . S
C1257 H1252 0.950 . S
C1257 C1259 1.327 . S
C1257 C1263 1.429 . S
C1258 C1250 1.574 . S
C1258 H1253 0.949 . S
C1258 C1264 1.368 . S
C1259 C1243 1.349 . S
C1259 H1251 0.950 . S
C1259 C1257 1.327 . S
C1260 C1248 1.349 . S
C1260 H1254 0.894 1_556 S
C1260 C1261 1.327 . S
C1261 H1255 0.950 . S
C1261 C1260 1.327 . S
C1261 C1265 1.429 . S
C1262 C1245 1.574 . S
C1262 H1256 0.949 . S
C1262 C1266 1.368 . S
C1263 C1244 1.429 . S
C1263 C1257 1.429 . S
C1263 C1264 1.523 . S
C1264 C1245 1.368 . S
C1264 C1258 1.368 . S
C1264 C1263 1.523 . S
C1265 C1249 1.429 . S
C1265 C1261 1.429 . S
C1265 C1266 1.523 . S
C1266 C1250 1.368 . S
C1266 C1262 1.368 . S
C1266 C1265 1.523 . S
H1267 C1242 0.950 . S
H1268 C1244 0.950 . S
H1269 C1245 0.949 . S
H1270 C1247 0.950 . S
H1271 C1249 0.950 . S
C1272 C1273 1.349 . S
C1272 C1274 1.327 . S
C1272 H1297 0.950 . S
C1273 C1272 1.349 . S
C1273 C1289 1.349 . S
C1274 C1272 1.327 . S
C1274 C1293 1.429 . S
C1274 H1298 0.950 . S
C1275 C1292 1.574 . S
C1275 C1294 1.368 . S
C1275 H1299 0.949 . S
H1276 C1280 0.949 . S
C1277 C1278 1.349 . S
C1277 C1279 1.327 . S
C1277 H1300 0.950 . S
C1278 C1277 1.349 . S
C1278 C1290 1.349 . S
C1279 C1277 1.327 . S
C1279 C1295 1.429 . S
C1279 H1301 0.950 . S
C1280 H1276 0.949 . S
C1280 C1288 1.574 . S
C1280 C1296 1.368 . S
H1281 C1289 0.950 . S
H1282 C1287 0.950 . S
H1283 C1288 0.949 . S
H1284 C1290 0.936 1_554 S
H1285 C1291 0.950 . S
H1286 C1292 0.949 . S
C1287 H1282 0.950 . S
C1287 C1289 1.327 . S
C1287 C1293 1.429 . S
C1288 C1280 1.574 . S
C1288 H1283 0.949 . S
C1288 C1294 1.368 . S
C1289 C1273 1.349 . S
C1289 H1281 0.950 . S
C1289 C1287 1.327 . S
C1290 C1278 1.349 . S
C1290 H1284 0.936 1_556 S
C1290 C1291 1.327 . S
C1291 H1285 0.950 . S
C1291 C1290 1.327 . S
C1291 C1295 1.429 . S
C1292 C1275 1.574 . S
C1292 H1286 0.949 . S
C1292 C1296 1.368 . S
C1293 C1274 1.429 . S
C1293 C1287 1.429 . S
C1293 C1294 1.523 . S
C1294 C1275 1.368 . S
C1294 C1288 1.368 . S
C1294 C1293 1.523 . S
C1295 C1279 1.429 . S
C1295 C1291 1.429 . S
C1295 C1296 1.523 . S
C1296 C1280 1.368 . S
C1296 C1292 1.368 . S
C1296 C1295 1.523 . S
H1297 C1272 0.950 . S
H1298 C1274 0.950 . S
H1299 C1275 0.949 . S
H1300 C1277 0.950 . S
H1301 C1279 0.950 . S
C1302 C1303 1.349 . S
C1302 C1304 1.327 . S
C1302 H1327 0.950 . S
C1303 C1302 1.349 . S
C1303 C1319 1.349 . S
C1304 C1302 1.327 . S
C1304 C1323 1.429 . S
C1304 H1328 0.950 . S
C1305 C1322 1.574 . S
C1305 C1324 1.368 . S
C1305 H1329 0.949 . S
H1306 C1310 0.949 . S
C1307 C1308 1.349 . S
C1307 C1309 1.327 . S
C1307 H1330 0.950 1_556 S
C1308 C1307 1.349 . S
C1308 C1320 1.349 . S
C1309 C1307 1.327 . S
C1309 C1325 1.429 . S
C1309 H1331 0.950 1_556 S
C1310 H1306 0.949 . S
C1310 C1318 1.574 . S
C1310 C1326 1.368 . S
H1311 C1319 0.950 . S
H1312 C1317 0.950 . S
H1313 C1318 0.949 . S
H1314 C1320 0.950 . S
H1315 C1321 0.950 . S
H1316 C1322 0.949 . S
C1317 H1312 0.950 . S
C1317 C1319 1.327 . S
C1317 C1323 1.429 . S
C1318 C1310 1.574 . S
C1318 H1313 0.949 . S
C1318 C1324 1.368 . S
C1319 C1303 1.349 . S
C1319 H1311 0.950 . S
C1319 C1317 1.327 . S
C1320 C1308 1.349 . S
C1320 H1314 0.950 . S
C1320 C1321 1.327 . S
C1321 H1315 0.950 . S
C1321 C1320 1.327 . S
C1321 C1325 1.429 . S
C1322 C1305 1.574 . S
C1322 H1316 0.949 . S
C1322 C1326 1.368 . S
C1323 C1304 1.429 . S
C1323 C1317 1.429 . S
C1323 C1324 1.523 . S
C1324 C1305 1.368 . S
C1324 C1318 1.368 . S
C1324 C1323 1.523 . S
C1325 C1309 1.429 . S
C1325 C1321 1.429 . S
C1325 C1326 1.523 . S
C1326 C1310 1.368 . S
C1326 C1322 1.368 . S
C1326 C1325 1.523 . S
H1327 C1302 0.950 . S
H1328 C1304 0.950 . S
H1329 C1305 0.949 . S
H1330 C1307 0.950 1_554 S
H1331 C1309 0.950 1_554 S
C1332 C1333 1.349 . S
C1332 C1334 1.327 . S
C1332 H1357 0.950 . S
C1333 C1332 1.349 . S
C1333 C1349 1.349 . S
C1334 C1332 1.327 . S
C1334 C1353 1.429 . S
C1334 H1358 0.950 . S
C1335 C1352 1.574 . S
C1335 C1354 1.368 . S
C1335 H1359 0.949 . S
H1336 C1340 0.949 . S
C1337 C1338 1.349 . S
C1337 C1339 1.327 . S
C1337 H1360 0.977 . S
C1338 C1337 1.349 . S
C1338 C1350 1.349 . S
C1339 C1337 1.327 . S
C1339 C1355 1.429 . S
C1339 H1361 0.950 . S
C1340 H1336 0.949 . S
C1340 C1348 1.574 . S
C1340 C1356 1.368 . S
H1341 C1349 0.950 . S
H1342 C1347 0.950 . S
H1343 C1348 0.949 . S
H1344 C1350 0.950 . S
H1345 C1351 0.950 . S
H1346 C1352 0.949 . S
C1347 H1342 0.950 . S
C1347 C1349 1.327 . S
C1347 C1353 1.429 . S
C1348 C1340 1.574 . S
C1348 H1343 0.949 . S
C1348 C1354 1.368 . S
C1349 C1333 1.349 . S
C1349 H1341 0.950 . S
C1349 C1347 1.327 . S
C1350 C1338 1.349 . S
C1350 H1344 0.950 . S
C1350 C1351 1.327 . S
C1351 H1345 0.950 . S
C1351 C1350 1.327 . S
C1351 C1355 1.429 . S
C1352 C1335 1.574 . S
C1352 H1346 0.949 . S
C1352 C1356 1.368 . S
C1353 C1334 1.429 . S
C1353 C1347 1.429 . S
C1353 C1354 1.523 . S
C1354 C1335 1.368 . S
C1354 C1348 1.368 . S
C1354 C1353 1.523 . S
C1355 C1339 1.429 . S
C1355 C1351 1.429 . S
C1355 C1356 1.523 . S
C1356 C1340 1.368 . S
C1356 C1352 1.368 . S
C1356 C1355 1.523 . S
H1357 C1332 0.950 . S
H1358 C1334 0.950 . S
H1359 C1335 0.949 . S
H1360 C1337 0.977 . S
H1361 C1339 0.950 . S
C1362 C1363 1.349 . S
C1362 C1364 1.327 . S
C1362 H1387 0.950 . S
C1363 C1362 1.349 . S
C1363 C1379 1.349 . S
C1364 C1362 1.327 . S
C1364 C1383 1.429 . S
C1364 H1388 0.950 . S
C1365 C1382 1.574 . S
C1365 C1384 1.368 . S
C1365 H1389 0.949 . S
H1366 C1370 0.949 . S
C1367 C1368 1.349 . S
C1367 C1369 1.327 . S
C1367 H1390 0.950 . S
C1368 C1367 1.349 . S
C1368 C1380 1.349 . S
C1369 C1367 1.327 . S
C1369 C1385 1.429 . S
C1369 H1391 0.950 . S
C1370 H1366 0.949 . S
C1370 C1378 1.574 . S
C1370 C1386 1.368 . S
H1371 C1379 0.950 . S
H1372 C1377 0.950 . S
H1373 C1378 0.949 . S
H1374 C1380 0.950 . S
H1375 C1381 0.950 . S
H1376 C1382 0.949 . S
C1377 H1372 0.950 . S
C1377 C1379 1.327 . S
C1377 C1383 1.429 . S
C1378 C1370 1.574 . S
C1378 H1373 0.949 . S
C1378 C1384 1.368 . S
C1379 C1363 1.349 . S
C1379 H1371 0.950 . S
C1379 C1377 1.327 . S
C1380 C1368 1.349 . S
C1380 H1374 0.950 . S
C1380 C1381 1.327 . S
C1381 H1375 0.950 . S
C1381 C1380 1.327 . S
C1381 C1385 1.429 . S
C1382 C1365 1.574 . S
C1382 H1376 0.949 . S
C1382 C1386 1.368 . S
C1383 C1364 1.429 . S
C1383 C1377 1.429 . S
C1383 C1384 1.523 . S
C1384 C1365 1.368 . S
C1384 C1378 1.368 . S
C1384 C1383 1.523 . S
C1385 C1369 1.429 . S
C1385 C1381 1.429 . S
C1385 C1386 1.523 . S
C1386 C1370 1.368 . S
C1386 C1382 1.368 . S
C1386 C1385 1.523 . S
H1387 C1362 0.950 . S
H1388 C1364 0.950 . S
H1389 C1365 0.949 . S
H1390 C1367 0.950 . S
H1391 C1369 0.950 . S
C1392 C1393 1.349 . S
C1392 C1394 1.327 . S
C1392 H1417 0.950 . S
C1393 C1392 1.349 . S
C1393 C1409 1.349 . S
C1394 C1392 1.327 . S
C1394 C1413 1.429 . S
C1394 H1418 0.950 . S
C1395 C1412 1.574 . S
C1395 C1414 1.368 . S
C1395 H1419 0.949 . S
H1396 C1400 0.949 . S
C1397 C1398 1.349 . S
C1397 C1399 1.327 . S
C1397 H1420 0.950 . S
C1398 C1397 1.349 . S
C1398 C1410 1.397 . S
C1399 C1397 1.327 . S
C1399 C1415 1.429 . S
C1399 H1421 0.950 . S
C1400 H1396 0.949 . S
C1400 C1408 1.574 . S
C1400 C1416 1.368 . S
H1401 C1409 0.950 . S
H1402 C1407 0.950 . S
H1403 C1408 0.949 . S
H1404 C1410 0.886 1_556 S
H1405 C1411 0.950 1_556 S
H1406 C1412 0.949 . S
C1407 H1402 0.950 . S
C1407 C1409 1.327 . S
C1407 C1413 1.429 . S
C1408 C1400 1.574 . S
C1408 H1403 0.949 . S
C1408 C1414 1.368 . S
C1409 C1393 1.349 . S
C1409 H1401 0.950 . S
C1409 C1407 1.327 . S
C1410 C1398 1.397 . S
C1410 H1404 0.886 1_554 S
C1410 C1411 1.345 . S
C1411 H1405 0.950 1_554 S
C1411 C1410 1.345 . S
C1411 C1415 1.429 . S
C1412 C1395 1.574 . S
C1412 H1406 0.949 . S
C1412 C1416 1.368 . S
C1413 C1394 1.429 . S
C1413 C1407 1.429 . S
C1413 C1414 1.523 . S
C1414 C1395 1.368 . S
C1414 C1408 1.368 . S
C1414 C1413 1.523 . S
C1415 C1399 1.429 . S
C1415 C1411 1.429 . S
C1415 C1416 1.523 . S
C1416 C1400 1.368 . S
C1416 C1412 1.368 . S
C1416 C1415 1.523 . S
H1417 C1392 0.950 . S
H1418 C1394 0.950 . S
H1419 C1395 0.949 . S
H1420 C1397 0.950 . S
H1421 C1399 0.950 . S
C1422 C1423 1.349 . S
C1422 C1424 1.327 . S
C1422 H1447 0.950 . S
C1423 C1422 1.349 . S
C1423 C1439 1.349 . S
C1424 C1422 1.327 . S
C1424 C1443 1.429 . S
C1424 H1448 0.950 . S
C1425 C1442 1.574 . S
C1425 C1444 1.368 . S
C1425 H1449 0.949 . S
H1426 C1430 0.949 . S
C1427 C1428 1.349 . S
C1427 C1429 1.327 . S
C1427 H1450 0.950 . S
C1428 C1427 1.349 . S
C1428 C1440 1.349 . S
C1429 C1427 1.327 . S
C1429 C1445 1.429 . S
C1429 H1451 0.950 . S
C1430 H1426 0.949 . S
C1430 C1438 1.574 . S
C1430 C1446 1.368 . S
H1431 C1439 0.950 . S
H1432 C1437 0.950 1_455 S
H1433 C1438 0.949 . S
H1434 C1440 0.950 . S
H1435 C1441 0.950 . S
H1436 C1442 0.949 . S
C1437 H1432 0.950 1_655 S
C1437 C1439 1.327 . S
C1437 C1443 1.429 . S
C1438 C1430 1.574 . S
C1438 H1433 0.949 . S
C1438 C1444 1.368 . S
C1439 C1423 1.349 . S
C1439 H1431 0.950 . S
C1439 C1437 1.327 . S
C1440 C1428 1.349 . S
C1440 H1434 0.950 . S
C1440 C1441 1.327 . S
C1441 H1435 0.950 . S
C1441 C1440 1.327 . S
C1441 C1445 1.429 . S
C1442 C1425 1.574 . S
C1442 H1436 0.949 . S
C1442 C1446 1.368 . S
C1443 C1424 1.429 . S
C1443 C1437 1.429 . S
C1443 C1444 1.523 1_655 S
C1444 C1425 1.368 . S
C1444 C1438 1.368 . S
C1444 C1443 1.523 1_455 S
C1445 C1429 1.429 . S
C1445 C1441 1.429 . S
C1445 C1446 1.523 . S
C1446 C1430 1.368 . S
C1446 C1442 1.368 . S
C1446 C1445 1.523 . S
H1447 C1422 0.950 . S
H1448 C1424 0.950 . S
H1449 C1425 0.949 . S
H1450 C1427 0.950 . S
H1451 C1429 0.950 . S
C1452 C1453 1.349 . S
C1452 C1454 1.327 . S
C1452 H1477 0.950 . S
C1453 C1452 1.349 . S
C1453 C1469 1.349 . S
C1454 C1452 1.327 . S
C1454 C1473 1.429 . S
C1454 H1478 0.950 . S
C1455 C1472 1.574 . S
C1455 C1474 1.368 . S
C1455 H1479 0.949 . S
H1456 C1460 0.949 . S
C1457 C1458 1.349 . S
C1457 C1459 1.327 . S
C1457 H1480 0.950 . S
C1458 C1457 1.349 . S
C1458 C1470 1.349 . S
C1459 C1457 1.327 . S
C1459 C1475 1.429 . S
C1459 H1481 0.950 . S
C1460 H1456 0.949 . S
C1460 C1468 1.574 . S
C1460 C1476 1.368 . S
H1461 C1469 0.950 . S
H1462 C1467 0.950 . S
H1463 C1468 0.949 . S
H1464 C1470 0.950 . S
H1465 C1471 0.950 . S
H1466 C1472 0.949 . S
C1467 H1462 0.950 . S
C1467 C1469 1.327 . S
C1467 C1473 1.429 . S
C1468 C1460 1.574 . S
C1468 H1463 0.949 . S
C1468 C1474 1.368 . S
C1469 C1453 1.349 . S
C1469 H1461 0.950 . S
C1469 C1467 1.327 . S
C1470 C1458 1.349 . S
C1470 H1464 0.950 . S
C1470 C1471 1.327 . S
C1471 H1465 0.950 . S
C1471 C1470 1.327 . S
C1471 C1475 1.429 . S
C1472 C1455 1.574 . S
C1472 H1466 0.949 . S
C1472 C1476 1.368 . S
C1473 C1454 1.429 . S
C1473 C1467 1.429 . S
C1473 C1474 1.523 . S
C1474 C1455 1.368 . S
C1474 C1468 1.368 . S
C1474 C1473 1.523 . S
C1475 C1459 1.429 . S
C1475 C1471 1.429 . S
C1475 C1476 1.523 . S
C1476 C1460 1.368 . S
C1476 C1472 1.368 . S
C1476 C1475 1.523 . S
H1477 C1452 0.950 . S
H1478 C1454 0.950 . S
H1479 C1455 0.949 . S
H1480 C1457 0.950 . S
H1481 C1459 0.950 . S
C1482 C1483 1.349 . S
C1482 C1484 1.327 . S
C1482 H1507 0.950 . S
C1483 C1482 1.349 . S
C1483 C1499 1.349 . S
C1484 C1482 1.327 . S
C1484 C1503 1.429 . S
C1484 H1508 0.950 . S
C1485 C1502 1.574 . S
C1485 C1504 1.368 . S
C1485 H1509 0.949 1_565 S
H1486 C1490 0.949 . S
C1487 C1488 1.349 . S
C1487 C1489 1.327 . S
C1487 H1510 0.950 . S
C1488 C1487 1.349 . S
C1488 C1500 1.349 . S
C1489 C1487 1.327 . S
C1489 C1505 1.429 . S
C1489 H1511 0.950 . S
C1490 H1486 0.949 . S
C1490 C1498 1.574 . S
C1490 C1506 1.368 . S
H1491 C1499 0.950 . S
H1492 C1497 0.950 . S
H1493 C1498 0.949 . S
H1494 C1500 0.950 . S
H1495 C1501 0.950 . S
H1496 C1502 0.949 . S
C1497 H1492 0.950 . S
C1497 C1499 1.327 . S
C1497 C1503 1.429 . S
C1498 C1490 1.574 . S
C1498 H1493 0.949 . S
C1498 C1504 1.368 . S
C1499 C1483 1.349 . S
C1499 H1491 0.950 . S
C1499 C1497 1.327 . S
C1500 C1488 1.349 . S
C1500 H1494 0.950 . S
C1500 C1501 1.327 . S
C1501 H1495 0.950 . S
C1501 C1500 1.327 . S
C1501 C1505 1.429 . S
C1502 C1485 1.574 . S
C1502 H1496 0.949 . S
C1502 C1506 1.368 . S
C1503 C1484 1.429 . S
C1503 C1497 1.429 . S
C1503 C1504 1.523 1_545 S
C1504 C1485 1.368 . S
C1504 C1498 1.368 . S
C1504 C1503 1.523 1_565 S
C1505 C1489 1.429 . S
C1505 C1501 1.429 . S
C1505 C1506 1.523 . S
C1506 C1490 1.368 . S
C1506 C1502 1.368 . S
C1506 C1505 1.523 . S
H1507 C1482 0.950 . S
H1508 C1484 0.950 . S
H1509 C1485 0.949 1_545 S
H1510 C1487 0.950 . S
H1511 C1489 0.950 . S
C1512 C1513 1.349 . S
C1512 C1514 1.327 . S
C1512 H1537 0.950 . S
C1513 C1512 1.349 . S
C1513 C1529 1.349 . S
C1514 C1512 1.327 . S
C1514 C1533 1.429 . S
C1514 H1538 0.950 . S
C1515 C1532 1.574 . S
C1515 C1534 1.368 . S
C1515 H1539 0.949 . S
H1516 C1520 0.949 . S
C1517 C1518 1.349 . S
C1517 C1519 1.327 . S
C1517 H1540 0.950 . S
C1518 C1517 1.349 . S
C1518 C1530 1.349 . S
C1519 C1517 1.327 . S
C1519 C1535 1.429 . S
C1519 H1541 0.950 . S
C1520 H1516 0.949 . S
C1520 C1528 1.574 . S
C1520 C1536 1.368 . S
H1521 C1529 0.950 . S
H1522 C1527 0.950 . S
H1523 C1528 0.949 . S
H1524 C1530 0.950 . S
H1525 C1531 0.950 . S
H1526 C1532 0.949 . S
C1527 H1522 0.950 . S
C1527 C1529 1.327 . S
C1527 C1533 1.429 . S
C1528 C1520 1.574 . S
C1528 H1523 0.949 . S
C1528 C1534 1.368 . S
C1529 C1513 1.349 . S
C1529 H1521 0.950 . S
C1529 C1527 1.327 . S
C1530 C1518 1.349 . S
C1530 H1524 0.950 . S
C1530 C1531 1.327 . S
C1531 H1525 0.950 . S
C1531 C1530 1.327 . S
C1531 C1535 1.429 . S
C1532 C1515 1.574 . S
C1532 H1526 0.949 . S
C1532 C1536 1.368 . S
C1533 C1514 1.429 . S
C1533 C1527 1.429 . S
C1533 C1534 1.523 . S
C1534 C1515 1.368 . S
C1534 C1528 1.368 . S
C1534 C1533 1.523 . S
C1535 C1519 1.429 . S
C1535 C1531 1.429 . S
C1535 C1536 1.523 . S
C1536 C1520 1.368 . S
C1536 C1532 1.368 . S
C1536 C1535 1.523 . S
H1537 C1512 0.950 . S
H1538 C1514 0.950 . S
H1539 C1515 0.949 . S
H1540 C1517 0.950 . S
H1541 C1519 0.950 . S
C1542 C1543 1.349 . S
C1542 C1544 1.327 . S
C1542 H1567 0.950 . S
C1543 C1542 1.349 . S
C1543 C1559 1.349 . S
C1544 C1542 1.327 . S
C1544 C1563 1.429 . S
C1544 H1568 0.950 . S
C1545 C1562 1.574 . S
C1545 C1564 1.368 . S
C1545 H1569 0.949 . S
H1546 C1550 0.949 . S
C1547 C1548 1.349 . S
C1547 C1549 1.327 . S
C1547 H1570 0.950 . S
C1548 C1547 1.349 . S
C1548 C1560 1.349 . S
C1549 C1547 1.327 . S
C1549 C1565 1.429 . S
C1549 H1571 0.950 . S
C1550 H1546 0.949 . S
C1550 C1558 1.574 . S
C1550 C1566 1.368 . S
H1551 C1559 0.950 . S
H1552 C1557 0.950 . S
H1553 C1558 0.949 . S
H1554 C1560 0.950 . S
H1555 C1561 0.950 . S
H1556 C1562 0.949 . S
C1557 H1552 0.950 . S
C1557 C1559 1.327 . S
C1557 C1563 1.429 . S
C1558 C1550 1.574 . S
C1558 H1553 0.949 . S
C1558 C1564 1.368 . S
C1559 C1543 1.349 . S
C1559 H1551 0.950 . S
C1559 C1557 1.327 . S
C1560 C1548 1.349 . S
C1560 H1554 0.950 . S
C1560 C1561 1.327 . S
C1561 H1555 0.950 . S
C1561 C1560 1.327 . S
C1561 C1565 1.429 . S
C1562 C1545 1.574 . S
C1562 H1556 0.949 . S
C1562 C1566 1.368 . S
C1563 C1544 1.429 . S
C1563 C1557 1.429 . S
C1563 C1564 1.523 . S
C1564 C1545 1.368 . S
C1564 C1558 1.368 . S
C1564 C1563 1.523 . S
C1565 C1549 1.429 . S
C1565 C1561 1.429 . S
C1565 C1566 1.523 . S
C1566 C1550 1.368 . S
C1566 C1562 1.368 . S
C1566 C1565 1.523 . S
H1567 C1542 0.950 . S
H1568 C1544 0.950 . S
H1569 C1545 0.949 . S
H1570 C1547 0.950 . S
H1571 C1549 0.950 . S
C1572 C1573 1.349 . S
C1572 C1574 1.327 . S
C1572 H1597 0.950 . S
C1573 C1572 1.349 . S
C1573 C1589 1.349 . S
C1574 C1572 1.327 . S
C1574 C1593 1.429 . S
C1574 H1598 0.950 . S
C1575 C1592 1.574 . S
C1575 C1594 1.368 . S
C1575 H1599 0.949 . S
H1576 C1580 0.949 . S
C1577 C1578 1.349 . S
C1577 C1579 1.327 . S
C1577 H1600 0.950 . S
C1578 C1577 1.349 . S
C1578 C1590 1.349 . S
C1579 C1577 1.327 . S
C1579 C1595 1.429 . S
C1579 H1601 0.950 . S
C1580 H1576 0.949 . S
C1580 C1588 1.574 . S
C1580 C1596 1.368 . S
H1581 C1589 0.950 . S
H1582 C1587 0.950 . S
H1583 C1588 0.949 . S
H1584 C1590 0.950 . S
H1585 C1591 0.950 . S
H1586 C1592 0.949 . S
C1587 H1582 0.950 . S
C1587 C1589 1.327 . S
C1587 C1593 1.429 . S
C1588 C1580 1.574 . S
C1588 H1583 0.949 . S
C1588 C1594 1.368 . S
C1589 C1573 1.349 . S
C1589 H1581 0.950 . S
C1589 C1587 1.327 . S
C1590 C1578 1.349 . S
C1590 H1584 0.950 . S
C1590 C1591 1.327 . S
C1591 H1585 0.950 . S
C1591 C1590 1.327 . S
C1591 C1595 1.429 . S
C1592 C1575 1.574 . S
C1592 H1586 0.949 . S
C1592 C1596 1.368 . S
C1593 C1574 1.429 . S
C1593 C1587 1.429 . S
C1593 C1594 1.523 . S
C1594 C1575 1.368 . S
C1594 C1588 1.368 . S
C1594 C1593 1.523 . S
C1595 C1579 1.429 . S
C1595 C1591 1.429 . S
C1595 C1596 1.523 . S
C1596 C1580 1.368 . S
C1596 C1592 1.368 . S
C1596 C1595 1.523 . S
H1597 C1572 0.950 . S
H1598 C1574 0.950 . S
H1599 C1575 0.949 . S
H1600 C1577 0.950 . S
H1601 C1579 0.950 . S
C1602 C1603 1.349 . S
C1602 C1604 1.327 . S
C1602 H1627 0.950 . S
C1603 C1602 1.349 . S
C1603 C1619 1.349 . S
C1604 C1602 1.327 . S
C1604 C1623 1.429 . S
C1604 H1628 0.950 . S
C1605 C1622 1.574 . S
C1605 C1624 1.368 . S
C1605 H1629 0.949 . S
H1606 C1610 0.949 . S
C1607 C1608 1.349 . S
C1607 C1609 1.327 . S
C1607 H1630 0.950 . S
C1608 C1607 1.349 . S
C1608 C1620 1.349 . S
C1609 C1607 1.327 . S
C1609 C1625 1.429 . S
C1609 H1631 0.950 . S
C1610 H1606 0.949 . S
C1610 C1618 1.574 . S
C1610 C1626 1.368 . S
H1611 C1619 0.950 . S
H1612 C1617 0.950 . S
H1613 C1618 0.949 . S
H1614 C1620 0.950 . S
H1615 C1621 0.950 . S
H1616 C1622 0.949 . S
C1617 H1612 0.950 . S
C1617 C1619 1.327 . S
C1617 C1623 1.429 . S
C1618 C1610 1.574 . S
C1618 H1613 0.949 . S
C1618 C1624 1.368 . S
C1619 C1603 1.349 . S
C1619 H1611 0.950 . S
C1619 C1617 1.327 . S
C1620 C1608 1.349 . S
C1620 H1614 0.950 . S
C1620 C1621 1.327 . S
C1621 H1615 0.950 . S
C1621 C1620 1.327 . S
C1621 C1625 1.429 . S
C1622 C1605 1.574 . S
C1622 H1616 0.949 . S
C1622 C1626 1.368 . S
C1623 C1604 1.429 . S
C1623 C1617 1.429 . S
C1623 C1624 1.523 . S
C1624 C1605 1.368 . S
C1624 C1618 1.368 . S
C1624 C1623 1.523 . S
C1625 C1609 1.429 . S
C1625 C1621 1.429 . S
C1625 C1626 1.523 . S
C1626 C1610 1.368 . S
C1626 C1622 1.368 . S
C1626 C1625 1.523 . S
H1627 C1602 0.950 . S
H1628 C1604 0.950 . S
H1629 C1605 0.949 . S
H1630 C1607 0.950 . S
H1631 C1609 0.950 . S
C1632 C1633 1.349 . S
C1632 C1634 1.327 . S
C1632 H1657 0.950 . S
C1633 C1632 1.349 . S
C1633 C1649 1.349 . S
C1634 C1632 1.327 . S
C1634 C1653 1.429 . S
C1634 H1658 0.950 . S
C1635 C1652 1.574 . S
C1635 C1654 1.368 . S
C1635 H1659 0.949 . S
H1636 C1640 0.949 . S
C1637 C1638 1.349 . S
C1637 C1639 1.327 . S
C1637 H1660 0.950 . S
C1638 C1637 1.349 . S
C1638 C1650 1.349 . S
C1639 C1637 1.327 . S
C1639 C1655 1.429 . S
C1639 H1661 0.950 . S
C1640 H1636 0.949 . S
C1640 C1648 1.574 . S
C1640 C1656 1.368 . S
H1641 C1649 0.950 . S
H1642 C1647 0.950 . S
H1643 C1648 0.949 . S
H1644 C1650 0.950 . S
H1645 C1651 0.950 . S
H1646 C1652 0.949 . S
C1647 H1642 0.950 . S
C1647 C1649 1.327 . S
C1647 C1653 1.429 . S
C1648 C1640 1.574 . S
C1648 H1643 0.949 . S
C1648 C1654 1.368 . S
C1649 C1633 1.349 . S
C1649 H1641 0.950 . S
C1649 C1647 1.327 . S
C1650 C1638 1.349 . S
C1650 H1644 0.950 . S
C1650 C1651 1.327 . S
C1651 H1645 0.950 . S
C1651 C1650 1.327 . S
C1651 C1655 1.429 . S
C1652 C1635 1.574 . S
C1652 H1646 0.949 . S
C1652 C1656 1.368 . S
C1653 C1634 1.429 . S
C1653 C1647 1.429 . S
C1653 C1654 1.523 . S
C1654 C1635 1.368 . S
C1654 C1648 1.368 . S
C1654 C1653 1.523 . S
C1655 C1639 1.429 . S
C1655 C1651 1.429 . S
C1655 C1656 1.523 . S
C1656 C1640 1.368 . S
C1656 C1652 1.368 . S
C1656 C1655 1.523 . S
H1657 C1632 0.950 . S
H1658 C1634 0.950 . S
H1659 C1635 0.949 . S
H1660 C1637 0.950 . S
H1661 C1639 0.950 . S
C1662 C1663 1.349 . S
C1662 C1664 1.327 . S
C1662 H1687 0.950 . S
C1663 C1662 1.349 . S
C1663 C1679 1.349 . S
C1664 C1662 1.327 . S
C1664 C1683 1.429 . S
C1664 H1688 0.950 . S
C1665 C1682 1.574 . S
C1665 C1684 1.368 . S
C1665 H1689 0.949 . S
H1666 C1670 0.949 . S
C1667 C1668 1.349 . S
C1667 C1669 1.327 . S
C1667 H1690 0.950 . S
C1668 C1667 1.349 . S
C1668 C1680 1.349 . S
C1669 C1667 1.327 . S
C1669 C1685 1.429 . S
C1669 H1691 0.950 . S
C1670 H1666 0.949 . S
C1670 C1678 1.574 . S
C1670 C1686 1.368 . S
H1671 C1679 0.950 . S
H1672 C1677 0.950 . S
H1673 C1678 0.949 . S
H1674 C1680 0.950 . S
H1675 C1681 0.950 . S
H1676 C1682 0.949 . S
C1677 H1672 0.950 . S
C1677 C1679 1.327 . S
C1677 C1683 1.429 . S
C1678 C1670 1.574 . S
C1678 H1673 0.949 . S
C1678 C1684 1.368 . S
C1679 C1663 1.349 . S
C1679 H1671 0.950 . S
C1679 C1677 1.327 . S
C1680 C1668 1.349 . S
C1680 H1674 0.950 . S
C1680 C1681 1.327 . S
C1681 H1675 0.950 . S
C1681 C1680 1.327 . S
C1681 C1685 1.429 . S
C1682 C1665 1.574 . S
C1682 H1676 0.949 . S
C1682 C1686 1.368 . S
C1683 C1664 1.429 . S
C1683 C1677 1.429 . S
C1683 C1684 1.523 . S
C1684 C1665 1.368 . S
C1684 C1678 1.368 . S
C1684 C1683 1.523 . S
C1685 C1669 1.429 . S
C1685 C1681 1.429 . S
C1685 C1686 1.523 . S
C1686 C1670 1.368 . S
C1686 C1682 1.368 . S
C1686 C1685 1.523 . S
H1687 C1662 0.950 . S
H1688 C1664 0.950 . S
H1689 C1665 0.949 . S
H1690 C1667 0.950 . S
H1691 C1669 0.950 . S
C1692 C1693 1.349 . S
C1692 C1694 1.327 . S
C1692 H1717 0.950 . S
C1693 C1692 1.349 . S
C1693 C1709 1.349 . S
C1694 C1692 1.327 . S
C1694 C1713 1.429 . S
C1694 H1718 0.950 . S
C1695 C1712 1.574 . S
C1695 C1714 1.368 . S
C1695 H1719 0.949 . S
H1696 C1700 0.949 . S
C1697 C1698 1.349 . S
C1697 C1699 1.327 . S
C1697 H1720 0.950 . S
C1698 C1697 1.349 . S
C1698 C1710 1.349 . S
C1699 C1697 1.327 . S
C1699 C1715 1.429 . S
C1699 H1721 0.950 . S
C1700 H1696 0.949 . S
C1700 C1708 1.574 . S
C1700 C1716 1.368 . S
H1701 C1709 0.950 . S
H1702 C1707 0.950 . S
H1703 C1708 0.949 . S
H1704 C1710 0.950 . S
H1705 C1711 0.950 . S
H1706 C1712 0.949 . S
C1707 H1702 0.950 . S
C1707 C1709 1.327 . S
C1707 C1713 1.429 . S
C1708 C1700 1.574 . S
C1708 H1703 0.949 . S
C1708 C1714 1.368 . S
C1709 C1693 1.349 . S
C1709 H1701 0.950 . S
C1709 C1707 1.327 . S
C1710 C1698 1.349 . S
C1710 H1704 0.950 . S
C1710 C1711 1.327 . S
C1711 H1705 0.950 . S
C1711 C1710 1.327 . S
C1711 C1715 1.429 . S
C1712 C1695 1.574 . S
C1712 H1706 0.949 . S
C1712 C1716 1.368 . S
C1713 C1694 1.429 . S
C1713 C1707 1.429 . S
C1713 C1714 1.523 1_545 S
C1714 C1695 1.368 . S
C1714 C1708 1.368 . S
C1714 C1713 1.523 1_565 S
C1715 C1699 1.429 . S
C1715 C1711 1.429 . S
C1715 C1716 1.523 . S
C1716 C1700 1.368 . S
C1716 C1712 1.368 . S
C1716 C1715 1.523 . S
H1717 C1692 0.950 . S
H1718 C1694 0.950 . S
H1719 C1695 0.949 . S
H1720 C1697 0.950 . S
H1721 C1699 0.950 . S
C1722 C1723 1.349 . S
C1722 C1724 1.327 . S
C1722 H1747 0.950 . S
C1723 C1722 1.349 . S
C1723 C1739 1.349 . S
C1724 C1722 1.327 . S
C1724 C1743 1.429 1_655 S
C1724 H1748 0.950 . S
C1725 C1742 1.574 . S
C1725 C1744 1.368 . S
C1725 H1749 0.949 . S
H1726 C1730 0.949 . S
C1727 C1728 1.349 . S
C1727 C1729 1.327 . S
C1727 H1750 0.950 . S
C1728 C1727 1.349 . S
C1728 C1740 1.349 . S
C1729 C1727 1.327 . S
C1729 C1745 1.429 . S
C1729 H1751 0.950 . S
C1730 H1726 0.949 . S
C1730 C1738 1.574 . S
C1730 C1746 1.368 . S
H1731 C1739 0.950 . S
H1732 C1737 0.950 . S
H1733 C1738 0.949 . S
H1734 C1740 0.950 . S
H1735 C1741 0.950 . S
H1736 C1742 0.949 . S
C1737 H1732 0.950 . S
C1737 C1739 1.327 1_455 S
C1737 C1743 1.429 . S
C1738 C1730 1.574 . S
C1738 H1733 0.949 . S
C1738 C1744 1.368 . S
C1739 C1723 1.349 . S
C1739 H1731 0.950 . S
C1739 C1737 1.327 1_655 S
C1740 C1728 1.349 . S
C1740 H1734 0.950 . S
C1740 C1741 1.327 . S
C1741 H1735 0.950 . S
C1741 C1740 1.327 . S
C1741 C1745 1.429 . S
C1742 C1725 1.574 . S
C1742 H1736 0.949 . S
C1742 C1746 1.368 . S
C1743 C1724 1.429 1_455 S
C1743 C1737 1.429 . S
C1743 C1744 1.523 . S
C1744 C1725 1.368 . S
C1744 C1738 1.368 . S
C1744 C1743 1.523 . S
C1745 C1729 1.429 . S
C1745 C1741 1.429 . S
C1745 C1746 1.523 . S
C1746 C1730 1.368 . S
C1746 C1742 1.368 . S
C1746 C1745 1.523 . S
H1747 C1722 0.950 . S
H1748 C1724 0.950 . S
H1749 C1725 0.949 . S
H1750 C1727 0.950 . S
H1751 C1729 0.950 . S
C1752 C1753 1.349 . S
C1752 C1754 1.327 . S
C1752 H1777 0.950 . S
C1753 C1752 1.349 . S
C1753 C1769 1.349 . S
C1754 C1752 1.327 . S
C1754 C1773 1.429 . S
C1754 H1778 0.950 . S
C1755 C1772 1.574 . S
C1755 C1774 1.368 . S
C1755 H1779 0.949 . S
H1756 C1760 0.949 . S
C1757 C1758 1.349 . S
C1757 C1759 1.327 . S
C1757 H1780 0.950 . S
C1758 C1757 1.349 . S
C1758 C1770 1.349 . S
C1759 C1757 1.327 . S
C1759 C1775 1.429 . S
C1759 H1781 0.950 . S
C1760 H1756 0.949 . S
C1760 C1768 1.574 . S
C1760 C1776 1.368 . S
H1761 C1769 0.950 . S
H1762 C1767 0.950 . S
H1763 C1768 0.949 . S
H1764 C1770 0.950 . S
H1765 C1771 0.950 . S
H1766 C1772 0.949 . S
C1767 H1762 0.950 . S
C1767 C1769 1.327 . S
C1767 C1773 1.429 . S
C1768 C1760 1.574 . S
C1768 H1763 0.949 . S
C1768 C1774 1.368 . S
C1769 C1753 1.349 . S
C1769 H1761 0.950 . S
C1769 C1767 1.327 . S
C1770 C1758 1.349 . S
C1770 H1764 0.950 . S
C1770 C1771 1.327 . S
C1771 H1765 0.950 . S
C1771 C1770 1.327 . S
C1771 C1775 1.429 . S
C1772 C1755 1.574 . S
C1772 H1766 0.949 . S
C1772 C1776 1.368 . S
C1773 C1754 1.429 . S
C1773 C1767 1.429 . S
C1773 C1774 1.523 . S
C1774 C1755 1.368 . S
C1774 C1768 1.368 . S
C1774 C1773 1.523 . S
C1775 C1759 1.429 . S
C1775 C1771 1.429 . S
C1775 C1776 1.523 . S
C1776 C1760 1.368 . S
C1776 C1772 1.368 . S
C1776 C1775 1.523 . S
H1777 C1752 0.950 . S
H1778 C1754 0.950 . S
H1779 C1755 0.949 . S
H1780 C1757 0.950 . S
H1781 C1759 0.950 . S
C1782 C1783 1.349 . S
C1782 C1784 1.327 . S
C1782 H1807 0.950 . S
C1783 C1782 1.349 . S
C1783 C1799 1.349 . S
C1784 C1782 1.327 . S
C1784 C1803 1.429 . S
C1784 H1808 0.950 . S
C1785 C1802 1.574 . S
C1785 C1804 1.368 . S
C1785 H1809 0.949 . S
H1786 C1790 0.949 . S
C1787 C1788 1.349 . S
C1787 C1789 1.327 . S
C1787 H1810 0.950 . S
C1788 C1787 1.349 . S
C1788 C1800 1.349 . S
C1789 C1787 1.327 . S
C1789 C1805 1.429 . S
C1789 H1811 0.950 . S
C1790 H1786 0.949 . S
C1790 C1798 1.574 . S
C1790 C1806 1.368 . S
H1791 C1799 0.950 . S
H1792 C1797 0.950 . S
H1793 C1798 0.949 . S
H1794 C1800 0.950 . S
H1795 C1801 0.950 . S
H1796 C1802 0.949 . S
C1797 H1792 0.950 . S
C1797 C1799 1.327 . S
C1797 C1803 1.429 . S
C1798 C1790 1.574 . S
C1798 H1793 0.949 . S
C1798 C1804 1.368 . S
C1799 C1783 1.349 . S
C1799 H1791 0.950 . S
C1799 C1797 1.327 . S
C1800 C1788 1.349 . S
C1800 H1794 0.950 . S
C1800 C1801 1.327 . S
C1801 H1795 0.950 . S
C1801 C1800 1.327 . S
C1801 C1805 1.429 . S
C1802 C1785 1.574 . S
C1802 H1796 0.949 . S
C1802 C1806 1.368 . S
C1803 C1784 1.429 . S
C1803 C1797 1.429 . S
C1803 C1804 1.523 . S
C1804 C1785 1.368 . S
C1804 C1798 1.368 . S
C1804 C1803 1.523 . S
C1805 C1789 1.429 . S
C1805 C1801 1.429 . S
C1805 C1806 1.523 . S
C1806 C1790 1.368 . S
C1806 C1802 1.368 . S
C1806 C1805 1.523 . S
H1807 C1782 0.950 . S
H1808 C1784 0.950 . S
H1809 C1785 0.949 . S
H1810 C1787 0.950 . S
H1811 C1789 0.950 . S
C1812 C1813 1.349 . S
C1812 C1814 1.327 . S
C1812 H1837 0.950 . S
C1813 C1812 1.349 . S
C1813 C1829 1.349 . S
C1814 C1812 1.327 . S
C1814 C1833 1.429 . S
C1814 H1838 0.950 . S
C1815 C1832 1.574 . S
C1815 C1834 1.368 . S
C1815 H1839 0.949 . S
H1816 C1820 0.949 . S
C1817 C1818 1.349 . S
C1817 C1819 1.327 . S
C1817 H1840 0.950 . S
C1818 C1817 1.349 . S
C1818 C1830 1.349 . S
C1819 C1817 1.327 . S
C1819 C1835 1.429 . S
C1819 H1841 0.950 . S
C1820 H1816 0.949 . S
C1820 C1828 1.574 . S
C1820 C1836 1.368 . S
H1821 C1829 0.950 . S
H1822 C1827 0.950 . S
H1823 C1828 0.949 . S
H1824 C1830 0.950 . S
H1825 C1831 0.950 . S
H1826 C1832 0.949 . S
C1827 H1822 0.950 . S
C1827 C1829 1.327 . S
C1827 C1833 1.429 . S
C1828 C1820 1.574 . S
C1828 H1823 0.949 . S
C1828 C1834 1.368 . S
C1829 C1813 1.349 . S
C1829 H1821 0.950 . S
C1829 C1827 1.327 . S
C1830 C1818 1.349 . S
C1830 H1824 0.950 . S
C1830 C1831 1.327 . S
C1831 H1825 0.950 . S
C1831 C1830 1.327 . S
C1831 C1835 1.429 . S
C1832 C1815 1.574 . S
C1832 H1826 0.949 . S
C1832 C1836 1.368 . S
C1833 C1814 1.429 . S
C1833 C1827 1.429 . S
C1833 C1834 1.523 . S
C1834 C1815 1.368 . S
C1834 C1828 1.368 . S
C1834 C1833 1.523 . S
C1835 C1819 1.429 . S
C1835 C1831 1.429 . S
C1835 C1836 1.523 . S
C1836 C1820 1.368 . S
C1836 C1832 1.368 . S
C1836 C1835 1.523 . S
H1837 C1812 0.950 . S
H1838 C1814 0.950 . S
H1839 C1815 0.949 . S
H1840 C1817 0.950 . S
H1841 C1819 0.950 . S
C1842 C1843 1.349 . S
C1842 C1844 1.327 . S
C1842 H1867 0.950 . S
C1843 C1842 1.349 . S
C1843 C1859 1.349 . S
C1844 C1842 1.327 . S
C1844 C1863 1.429 . S
C1844 H1868 0.950 . S
C1845 C1862 1.574 . S
C1845 C1864 1.368 . S
C1845 H1869 0.949 . S
H1846 C1850 0.949 . S
C1847 C1848 1.349 . S
C1847 C1849 1.327 . S
C1847 H1870 0.950 . S
C1848 C1847 1.349 . S
C1848 C1860 1.349 . S
C1849 C1847 1.327 . S
C1849 C1865 1.429 . S
C1849 H1871 0.950 . S
C1850 H1846 0.949 . S
C1850 C1858 1.574 . S
C1850 C1866 1.368 . S
H1851 C1859 0.950 . S
H1852 C1857 0.950 . S
H1853 C1858 0.949 . S
H1854 C1860 0.950 . S
H1855 C1861 0.950 . S
H1856 C1862 0.949 . S
C1857 H1852 0.950 . S
C1857 C1859 1.327 . S
C1857 C1863 1.429 . S
C1858 C1850 1.574 . S
C1858 H1853 0.949 . S
C1858 C1864 1.368 . S
C1859 C1843 1.349 . S
C1859 H1851 0.950 . S
C1859 C1857 1.327 . S
C1860 C1848 1.349 . S
C1860 H1854 0.950 . S
C1860 C1861 1.327 . S
C1861 H1855 0.950 . S
C1861 C1860 1.327 . S
C1861 C1865 1.429 . S
C1862 C1845 1.574 . S
C1862 H1856 0.949 . S
C1862 C1866 1.368 . S
C1863 C1844 1.429 . S
C1863 C1857 1.429 . S
C1863 C1864 1.523 . S
C1864 C1845 1.368 . S
C1864 C1858 1.368 . S
C1864 C1863 1.523 . S
C1865 C1849 1.429 . S
C1865 C1861 1.429 . S
C1865 C1866 1.523 . S
C1866 C1850 1.368 . S
C1866 C1862 1.368 . S
C1866 C1865 1.523 . S
H1867 C1842 0.950 . S
H1868 C1844 0.950 . S
H1869 C1845 0.949 . S
H1870 C1847 0.950 . S
H1871 C1849 0.950 . S
C1872 C1873 1.349 . S
C1872 C1874 1.327 . S
C1872 H1897 0.950 . S
C1873 C1872 1.349 . S
C1873 C1889 1.349 . S
C1874 C1872 1.327 . S
C1874 C1893 1.429 . S
C1874 H1898 0.950 . S
C1875 C1892 1.574 . S
C1875 C1894 1.368 . S
C1875 H1899 0.949 . S
H1876 C1880 0.949 . S
C1877 C1878 1.349 . S
C1877 C1879 1.327 . S
C1877 H1900 0.950 . S
C1878 C1877 1.349 . S
C1878 C1890 1.349 . S
C1879 C1877 1.327 . S
C1879 C1895 1.429 . S
C1879 H1901 0.950 . S
C1880 H1876 0.949 . S
C1880 C1888 1.574 . S
C1880 C1896 1.368 . S
H1881 C1889 0.950 . S
H1882 C1887 0.950 . S
H1883 C1888 1.005 . S
H1884 C1890 0.950 . S
H1885 C1891 0.950 . S
H1886 C1892 0.949 . S
C1887 H1882 0.950 . S
C1887 C1889 1.327 . S
C1887 C1893 1.429 . S
C1888 C1880 1.574 . S
C1888 H1883 1.005 . S
C1888 C1894 1.368 . S
C1889 C1873 1.349 . S
C1889 H1881 0.950 . S
C1889 C1887 1.327 . S
C1890 C1878 1.349 . S
C1890 H1884 0.950 . S
C1890 C1891 1.327 . S
C1891 H1885 0.950 . S
C1891 C1890 1.327 . S
C1891 C1895 1.429 . S
C1892 C1875 1.574 . S
C1892 H1886 0.949 . S
C1892 C1896 1.368 . S
C1893 C1874 1.429 . S
C1893 C1887 1.429 . S
C1893 C1894 1.523 1_565 S
C1894 C1875 1.368 . S
C1894 C1888 1.368 . S
C1894 C1893 1.523 1_545 S
C1895 C1879 1.429 . S
C1895 C1891 1.429 . S
C1895 C1896 1.523 . S
C1896 C1880 1.368 . S
C1896 C1892 1.368 . S
C1896 C1895 1.523 . S
H1897 C1872 0.950 . S
H1898 C1874 0.950 . S
H1899 C1875 0.949 . S
H1900 C1877 0.950 . S
H1901 C1879 0.950 . S
C1902 C1903 1.349 . S
C1902 C1904 1.327 . S
C1902 H1927 0.950 . S
C1903 C1902 1.349 . S
C1903 C1919 1.349 . S
C1904 C1902 1.327 . S
C1904 C1923 1.429 1_455 S
C1904 H1928 0.950 1_455 S
C1905 C1922 1.574 . S
C1905 C1924 1.368 . S
C1905 H1929 0.949 . S
H1906 C1910 0.949 . S
C1907 C1908 1.349 . S
C1907 C1909 1.327 . S
C1907 H1930 0.950 . S
C1908 C1907 1.349 . S
C1908 C1920 1.349 . S
C1909 C1907 1.327 . S
C1909 C1925 1.429 . S
C1909 H1931 0.950 . S
C1910 H1906 0.949 . S
C1910 C1918 1.574 . S
C1910 C1926 1.368 . S
H1911 C1919 0.950 . S
H1912 C1917 0.950 . S
H1913 C1918 0.949 . S
H1914 C1920 0.950 . S
H1915 C1921 0.950 . S
H1916 C1922 0.949 . S
C1917 H1912 0.950 . S
C1917 C1919 1.327 . S
C1917 C1923 1.429 1_455 S
C1918 C1910 1.574 . S
C1918 H1913 0.949 . S
C1918 C1924 1.368 . S
C1919 C1903 1.349 . S
C1919 H1911 0.950 . S
C1919 C1917 1.327 . S
C1920 C1908 1.349 . S
C1920 H1914 0.950 . S
C1920 C1921 1.327 . S
C1921 H1915 0.950 . S
C1921 C1920 1.327 . S
C1921 C1925 1.429 . S
C1922 C1905 1.574 . S
C1922 H1916 0.949 . S
C1922 C1926 1.368 . S
C1923 C1904 1.429 1_655 S
C1923 C1917 1.429 1_655 S
C1923 C1924 1.523 . S
C1924 C1905 1.368 . S
C1924 C1918 1.368 . S
C1924 C1923 1.523 . S
C1925 C1909 1.429 . S
C1925 C1921 1.429 . S
C1925 C1926 1.523 . S
C1926 C1910 1.368 . S
C1926 C1922 1.368 . S
C1926 C1925 1.523 . S
H1927 C1902 0.950 . S
H1928 C1904 0.950 1_655 S
H1929 C1905 0.949 . S
H1930 C1907 0.950 . S
H1931 C1909 0.950 . S
C1932 C1933 1.349 . S
C1932 C1934 1.327 . S
C1932 H1957 0.950 . S
C1933 C1932 1.349 . S
C1933 C1949 1.349 . S
C1934 C1932 1.327 . S
C1934 C1953 1.429 . S
C1934 H1958 0.950 . S
C1935 C1952 1.574 . S
C1935 C1954 1.368 . S
C1935 H1959 0.949 . S
H1936 C1940 0.949 . S
C1937 C1938 1.349 . S
C1937 C1939 1.327 . S
C1937 H1960 0.950 . S
C1938 C1937 1.349 . S
C1938 C1950 1.349 . S
C1939 C1937 1.327 . S
C1939 C1955 1.429 . S
C1939 H1961 0.950 . S
C1940 H1936 0.949 . S
C1940 C1948 1.574 . S
C1940 C1956 1.368 . S
H1941 C1949 0.950 . S
H1942 C1947 0.950 . S
H1943 C1948 0.949 . S
H1944 C1950 0.950 . S
H1945 C1951 0.950 . S
H1946 C1952 0.949 . S
C1947 H1942 0.950 . S
C1947 C1949 1.327 . S
C1947 C1953 1.429 . S
C1948 C1940 1.574 . S
C1948 H1943 0.949 . S
C1948 C1954 1.368 . S
C1949 C1933 1.349 . S
C1949 H1941 0.950 . S
C1949 C1947 1.327 . S
C1950 C1938 1.349 . S
C1950 H1944 0.950 . S
C1950 C1951 1.327 . S
C1951 H1945 0.950 . S
C1951 C1950 1.327 . S
C1951 C1955 1.429 . S
C1952 C1935 1.574 . S
C1952 H1946 0.949 . S
C1952 C1956 1.368 . S
C1953 C1934 1.429 . S
C1953 C1947 1.429 . S
C1953 C1954 1.523 . S
C1954 C1935 1.368 . S
C1954 C1948 1.368 . S
C1954 C1953 1.523 . S
C1955 C1939 1.429 . S
C1955 C1951 1.429 . S
C1955 C1956 1.523 . S
C1956 C1940 1.368 . S
C1956 C1952 1.368 . S
C1956 C1955 1.523 . S
H1957 C1932 0.950 . S
H1958 C1934 0.950 . S
H1959 C1935 0.949 . S
H1960 C1937 0.950 . S
H1961 C1939 0.950 . S
C1962 C1963 1.349 . S
C1962 C1964 1.327 . S
C1962 H1987 0.950 . S
C1963 C1962 1.349 . S
C1963 C1979 1.349 . S
C1964 C1962 1.327 . S
C1964 C1983 1.429 . S
C1964 H1988 0.950 . S
C1965 C1982 1.574 . S
C1965 C1984 1.368 . S
C1965 H1989 0.949 . S
H1966 C1970 0.949 . S
C1967 C1968 1.349 . S
C1967 C1969 1.327 . S
C1967 H1990 0.950 . S
C1968 C1967 1.349 . S
C1968 C1980 1.349 . S
C1969 C1967 1.327 . S
C1969 C1985 1.429 . S
C1969 H1991 0.950 . S
C1970 H1966 0.949 . S
C1970 C1978 1.574 . S
C1970 C1986 1.368 . S
H1971 C1979 0.950 . S
H1972 C1977 0.950 . S
H1973 C1978 0.949 . S
H1974 C1980 0.950 . S
H1975 C1981 0.950 . S
H1976 C1982 0.949 . S
C1977 H1972 0.950 . S
C1977 C1979 1.327 . S
C1977 C1983 1.429 . S
C1978 C1970 1.574 . S
C1978 H1973 0.949 . S
C1978 C1984 1.368 . S
C1979 C1963 1.349 . S
C1979 H1971 0.950 . S
C1979 C1977 1.327 . S
C1980 C1968 1.349 . S
C1980 H1974 0.950 . S
C1980 C1981 1.327 . S
C1981 H1975 0.950 . S
C1981 C1980 1.327 . S
C1981 C1985 1.429 . S
C1982 C1965 1.574 . S
C1982 H1976 0.949 . S
C1982 C1986 1.368 . S
C1983 C1964 1.429 . S
C1983 C1977 1.429 . S
C1983 C1984 1.523 1_455 S
C1984 C1965 1.368 . S
C1984 C1978 1.368 . S
C1984 C1983 1.523 1_655 S
C1985 C1969 1.429 . S
C1985 C1981 1.429 . S
C1985 C1986 1.523 . S
C1986 C1970 1.368 . S
C1986 C1982 1.368 . S
C1986 C1985 1.523 . S
H1987 C1962 0.950 . S
H1988 C1964 0.950 . S
H1989 C1965 0.949 . S
H1990 C1967 0.950 . S
H1991 C1969 0.950 . S
C1992 C1993 1.349 . S
C1992 C1994 1.327 . S
C1992 H2017 0.950 . S
C1993 C1992 1.349 . S
C1993 C2009 1.349 . S
C1994 C1992 1.327 . S
C1994 C2013 1.429 . S
C1994 H2018 0.950 . S
C1995 C2012 1.574 . S
C1995 C2014 1.368 . S
C1995 H2019 0.949 . S
H1996 C2000 0.949 . S
C1997 C1998 1.349 . S
C1997 C1999 1.327 . S
C1997 H2020 0.950 . S
C1998 C1997 1.349 . S
C1998 C2010 1.349 . S
C1999 C1997 1.327 . S
C1999 C2015 1.429 . S
C1999 H2021 0.950 . S
C2000 H1996 0.949 . S
C2000 C2008 1.574 . S
C2000 C2016 1.368 . S
H2001 C2009 0.950 . S
H2002 C2007 0.950 . S
H2003 C2008 0.949 . S
H2004 C2010 0.950 . S
H2005 C2011 0.950 . S
H2006 C2012 0.949 . S
C2007 H2002 0.950 . S
C2007 C2009 1.327 . S
C2007 C2013 1.429 . S
C2008 C2000 1.574 . S
C2008 H2003 0.949 . S
C2008 C2014 1.368 . S
C2009 C1993 1.349 . S
C2009 H2001 0.950 . S
C2009 C2007 1.327 . S
C2010 C1998 1.349 . S
C2010 H2004 0.950 . S
C2010 C2011 1.327 . S
C2011 H2005 0.950 . S
C2011 C2010 1.327 . S
C2011 C2015 1.429 . S
C2012 C1995 1.574 . S
C2012 H2006 0.949 . S
C2012 C2016 1.368 . S
C2013 C1994 1.429 . S
C2013 C2007 1.429 . S
C2013 C2014 1.523 . S
C2014 C1995 1.368 . S
C2014 C2008 1.368 . S
C2014 C2013 1.523 . S
C2015 C1999 1.429 . S
C2015 C2011 1.429 . S
C2015 C2016 1.523 . S
C2016 C2000 1.368 . S
C2016 C2012 1.368 . S
C2016 C2015 1.523 . S
H2017 C1992 0.950 . S
H2018 C1994 0.950 . S
H2019 C1995 0.949 . S
H2020 C1997 0.950 . S
H2021 C1999 0.950 . S
C2022 C2023 1.349 . S
C2022 C2024 1.327 . S
C2022 H2047 0.950 . S
C2023 C2022 1.349 . S
C2023 C2039 1.349 . S
C2024 C2022 1.327 . S
C2024 C2043 1.429 . S
C2024 H2048 0.950 . S
C2025 C2042 1.574 . S
C2025 C2044 1.368 . S
C2025 H2049 0.949 . S
H2026 C2030 0.949 . S
C2027 C2028 1.349 . S
C2027 C2029 1.327 . S
C2027 H2050 0.950 . S
C2028 C2027 1.349 . S
C2028 C2040 1.349 . S
C2029 C2027 1.327 . S
C2029 C2045 1.429 . S
C2029 H2051 0.950 . S
C2030 H2026 0.949 . S
C2030 C2038 1.574 . S
C2030 C2046 1.368 . S
H2031 C2039 0.950 . S
H2032 C2037 0.950 . S
H2033 C2038 0.947 . S
H2034 C2040 0.950 . S
H2035 C2041 0.950 . S
H2036 C2042 0.949 . S
C2037 H2032 0.950 . S
C2037 C2039 1.327 . S
C2037 C2043 1.429 . S
C2038 C2030 1.574 . S
C2038 H2033 0.947 . S
C2038 C2044 1.368 . S
C2039 C2023 1.349 . S
C2039 H2031 0.950 . S
C2039 C2037 1.327 . S
C2040 C2028 1.349 . S
C2040 H2034 0.950 . S
C2040 C2041 1.327 . S
C2041 H2035 0.950 . S
C2041 C2040 1.327 . S
C2041 C2045 1.429 . S
C2042 C2025 1.574 . S
C2042 H2036 0.949 . S
C2042 C2046 1.368 . S
C2043 C2024 1.429 . S
C2043 C2037 1.429 . S
C2043 C2044 1.523 1_565 S
C2044 C2025 1.368 . S
C2044 C2038 1.368 . S
C2044 C2043 1.523 1_545 S
C2045 C2029 1.429 . S
C2045 C2041 1.429 . S
C2045 C2046 1.523 . S
C2046 C2030 1.368 . S
C2046 C2042 1.368 . S
C2046 C2045 1.523 . S
H2047 C2022 0.950 . S
H2048 C2024 0.950 . S
H2049 C2025 0.949 . S
H2050 C2027 0.950 . S
H2051 C2029 0.950 . S
C2052 C2053 1.349 . S
C2052 C2054 1.327 . S
C2052 H2077 0.950 . S
C2053 C2052 1.349 . S
C2053 C2069 1.349 . S
C2054 C2052 1.327 . S
C2054 C2073 1.429 . S
C2054 H2078 0.950 . S
C2055 C2072 1.574 . S
C2055 C2074 1.368 . S
C2055 H2079 0.949 . S
H2056 C2060 0.949 . S
C2057 C2058 1.349 . S
C2057 C2059 1.327 . S
C2057 H2080 0.950 . S
C2058 C2057 1.349 . S
C2058 C2070 1.349 . S
C2059 C2057 1.327 . S
C2059 C2075 1.429 . S
C2059 H2081 0.950 . S
C2060 H2056 0.949 . S
C2060 C2068 1.574 . S
C2060 C2076 1.368 . S
H2061 C2069 0.950 . S
H2062 C2067 0.950 . S
H2063 C2068 0.949 . S
H2064 C2070 0.950 . S
H2065 C2071 0.950 . S
H2066 C2072 0.949 . S
C2067 H2062 0.950 . S
C2067 C2069 1.327 . S
C2067 C2073 1.429 . S
C2068 C2060 1.574 . S
C2068 H2063 0.949 . S
C2068 C2074 1.368 . S
C2069 C2053 1.349 . S
C2069 H2061 0.950 . S
C2069 C2067 1.327 . S
C2070 C2058 1.349 . S
C2070 H2064 0.950 . S
C2070 C2071 1.327 . S
C2071 H2065 0.950 . S
C2071 C2070 1.327 . S
C2071 C2075 1.429 . S
C2072 C2055 1.574 . S
C2072 H2066 0.949 . S
C2072 C2076 1.368 . S
C2073 C2054 1.429 . S
C2073 C2067 1.429 . S
C2073 C2074 1.523 . S
C2074 C2055 1.368 . S
C2074 C2068 1.368 . S
C2074 C2073 1.523 . S
C2075 C2059 1.429 . S
C2075 C2071 1.429 . S
C2075 C2076 1.523 . S
C2076 C2060 1.368 . S
C2076 C2072 1.368 . S
C2076 C2075 1.523 . S
H2077 C2052 0.950 . S
H2078 C2054 0.950 . S
H2079 C2055 0.949 . S
H2080 C2057 0.950 . S
H2081 C2059 0.950 . S
C2082 C2083 1.349 . S
C2082 C2084 1.327 . S
C2082 H2107 0.950 . S
C2083 C2082 1.349 . S
C2083 C2099 1.349 . S
C2084 C2082 1.327 . S
C2084 C2103 1.429 . S
C2084 H2108 0.950 . S
C2085 C2102 1.574 . S
C2085 C2104 1.368 . S
C2085 H2109 0.949 . S
H2086 C2090 0.949 . S
C2087 C2088 1.349 . S
C2087 C2089 1.327 . S
C2087 H2110 0.950 . S
C2088 C2087 1.349 . S
C2088 C2100 1.349 . S
C2089 C2087 1.327 . S
C2089 C2105 1.429 . S
C2089 H2111 0.950 . S
C2090 H2086 0.949 . S
C2090 C2098 1.574 . S
C2090 C2106 1.368 . S
H2091 C2099 0.950 . S
H2092 C2097 0.950 . S
H2093 C2098 0.949 . S
H2094 C2100 0.950 . S
H2095 C2101 0.950 . S
H2096 C2102 0.949 . S
C2097 H2092 0.950 . S
C2097 C2099 1.327 . S
C2097 C2103 1.429 . S
C2098 C2090 1.574 . S
C2098 H2093 0.949 . S
C2098 C2104 1.368 . S
C2099 C2083 1.349 . S
C2099 H2091 0.950 . S
C2099 C2097 1.327 . S
C2100 C2088 1.349 . S
C2100 H2094 0.950 . S
C2100 C2101 1.327 . S
C2101 H2095 0.950 . S
C2101 C2100 1.327 . S
C2101 C2105 1.429 . S
C2102 C2085 1.574 . S
C2102 H2096 0.949 . S
C2102 C2106 1.368 . S
C2103 C2084 1.429 . S
C2103 C2097 1.429 . S
C2103 C2104 1.523 . S
C2104 C2085 1.368 . S
C2104 C2098 1.368 . S
C2104 C2103 1.523 . S
C2105 C2089 1.429 . S
C2105 C2101 1.429 . S
C2105 C2106 1.523 . S
C2106 C2090 1.368 . S
C2106 C2102 1.368 . S
C2106 C2105 1.523 . S
H2107 C2082 0.950 . S
H2108 C2084 0.950 . S
H2109 C2085 0.949 . S
H2110 C2087 0.950 . S
H2111 C2089 0.950 . S
C2112 C2113 1.349 . S
C2112 C2114 1.327 . S
C2112 H2137 0.950 . S
C2113 C2112 1.349 . S
C2113 C2129 1.349 . S
C2114 C2112 1.327 . S
C2114 C2133 1.429 . S
C2114 H2138 0.950 . S
C2115 C2132 1.574 . S
C2115 C2134 1.368 . S
C2115 H2139 0.949 . S
H2116 C2120 0.949 . S
C2117 C2118 1.349 . S
C2117 C2119 1.327 . S
C2117 H2140 0.950 . S
C2118 C2117 1.349 . S
C2118 C2130 1.349 . S
C2119 C2117 1.327 . S
C2119 C2135 1.429 . S
C2119 H2141 0.950 . S
C2120 H2116 0.949 . S
C2120 C2128 1.574 . S
C2120 C2136 1.368 . S
H2121 C2129 0.950 . S
H2122 C2127 0.950 . S
H2123 C2128 0.949 . S
H2124 C2130 0.950 . S
H2125 C2131 0.950 . S
H2126 C2132 0.949 . S
C2127 H2122 0.950 . S
C2127 C2129 1.327 . S
C2127 C2133 1.429 . S
C2128 C2120 1.574 . S
C2128 H2123 0.949 . S
C2128 C2134 1.368 . S
C2129 C2113 1.349 . S
C2129 H2121 0.950 . S
C2129 C2127 1.327 . S
C2130 C2118 1.349 . S
C2130 H2124 0.950 . S
C2130 C2131 1.327 . S
C2131 H2125 0.950 . S
C2131 C2130 1.327 . S
C2131 C2135 1.429 . S
C2132 C2115 1.574 . S
C2132 H2126 0.949 . S
C2132 C2136 1.368 . S
C2133 C2114 1.429 . S
C2133 C2127 1.429 . S
C2133 C2134 1.523 . S
C2134 C2115 1.368 . S
C2134 C2128 1.368 . S
C2134 C2133 1.523 . S
C2135 C2119 1.429 . S
C2135 C2131 1.429 . S
C2135 C2136 1.523 . S
C2136 C2120 1.368 . S
C2136 C2132 1.368 . S
C2136 C2135 1.523 . S
H2137 C2112 0.950 . S
H2138 C2114 0.950 . S
H2139 C2115 0.949 . S
H2140 C2117 0.950 . S
H2141 C2119 0.950 . S
C2142 C2143 1.349 . S
C2142 C2144 1.327 . S
C2142 H2167 0.950 . S
C2143 C2142 1.349 . S
C2143 C2159 1.349 . S
C2144 C2142 1.327 . S
C2144 C2163 1.429 . S
C2144 H2168 0.950 . S
C2145 C2162 1.574 . S
C2145 C2164 1.368 . S
C2145 H2169 0.949 . S
H2146 C2150 0.949 . S
C2147 C2148 1.347 . S
C2147 C2149 1.333 . S
C2147 H2170 0.947 1_565 S
C2148 C2147 1.347 . S
C2148 C2160 1.349 . S
C2149 C2147 1.333 . S
C2149 C2165 1.429 . S
C2149 H2171 0.959 1_565 S
C2150 H2146 0.949 . S
C2150 C2158 1.574 . S
C2150 C2166 1.368 . S
H2151 C2159 0.950 . S
H2152 C2157 0.950 . S
H2153 C2158 0.949 . S
H2154 C2160 0.950 . S
H2155 C2161 0.950 . S
H2156 C2162 0.949 . S
C2157 H2152 0.950 . S
C2157 C2159 1.327 . S
C2157 C2163 1.429 . S
C2158 C2150 1.574 . S
C2158 H2153 0.949 . S
C2158 C2164 1.368 . S
C2159 C2143 1.349 . S
C2159 H2151 0.950 . S
C2159 C2157 1.327 . S
C2160 C2148 1.349 . S
C2160 H2154 0.950 . S
C2160 C2161 1.327 . S
C2161 H2155 0.950 . S
C2161 C2160 1.327 . S
C2161 C2165 1.429 . S
C2162 C2145 1.574 . S
C2162 H2156 0.949 . S
C2162 C2166 1.368 . S
C2163 C2144 1.429 . S
C2163 C2157 1.429 . S
C2163 C2164 1.523 . S
C2164 C2145 1.368 . S
C2164 C2158 1.368 . S
C2164 C2163 1.523 . S
C2165 C2149 1.429 . S
C2165 C2161 1.429 . S
C2165 C2166 1.523 . S
C2166 C2150 1.368 . S
C2166 C2162 1.368 . S
C2166 C2165 1.523 . S
H2167 C2142 0.950 . S
H2168 C2144 0.950 . S
H2169 C2145 0.949 . S
H2170 C2147 0.947 1_545 S
H2171 C2149 0.959 1_545 S
C2172 C2173 1.349 1_655 S
C2172 C2174 1.327 . S
C2172 H2197 0.950 . S
C2173 C2172 1.349 1_455 S
C2173 C2189 1.349 . S
C2174 C2172 1.327 . S
C2174 C2193 1.429 1_655 S
C2174 H2198 0.950 . S
C2175 C2192 1.574 . S
C2175 C2194 1.368 . S
C2175 H2199 0.949 . S
H2176 C2180 0.949 . S
C2177 C2178 1.349 . S
C2177 C2179 1.327 . S
C2177 H2200 0.950 . S
C2178 C2177 1.349 . S
C2178 C2190 1.349 1_455 S
C2179 C2177 1.327 . S
C2179 C2195 1.429 . S
C2179 H2201 0.950 . S
C2180 H2176 0.949 . S
C2180 C2188 1.574 . S
C2180 C2196 1.368 1_655 S
H2181 C2189 0.950 . S
H2182 C2187 0.950 . S
H2183 C2188 0.949 . S
H2184 C2190 0.950 . S
H2185 C2191 0.950 . S
H2186 C2192 0.949 . S
C2187 H2182 0.950 . S
C2187 C2189 1.327 . S
C2187 C2193 1.429 . S
C2188 C2180 1.574 . S
C2188 H2183 0.949 . S
C2188 C2194 1.368 1_655 S
C2189 C2173 1.349 . S
C2189 H2181 0.950 . S
C2189 C2187 1.327 . S
C2190 C2178 1.349 1_655 S
C2190 H2184 0.950 . S
C2190 C2191 1.327 . S
C2191 H2185 0.950 . S
C2191 C2190 1.327 . S
C2191 C2195 1.429 1_655 S
C2192 C2175 1.574 . S
C2192 H2186 0.949 . S
C2192 C2196 1.368 . S
C2193 C2174 1.429 1_455 S
C2193 C2187 1.429 . S
C2193 C2194 1.523 . S
C2194 C2175 1.368 . S
C2194 C2188 1.368 1_455 S
C2194 C2193 1.523 . S
C2195 C2179 1.429 . S
C2195 C2191 1.429 1_455 S
C2195 C2196 1.523 . S
C2196 C2180 1.368 1_455 S
C2196 C2192 1.368 . S
C2196 C2195 1.523 . S
H2197 C2172 0.950 . S
H2198 C2174 0.950 . S
H2199 C2175 0.949 . S
H2200 C2177 0.950 . S
H2201 C2179 0.950 . S
C2202 C2203 1.349 . S
C2202 C2204 1.327 . S
C2202 H2227 0.950 . S
C2203 C2202 1.349 . S
C2203 C2219 1.349 . S
C2204 C2202 1.327 . S
C2204 C2223 1.429 . S
C2204 H2228 0.950 . S
C2205 C2222 1.574 . S
C2205 C2224 1.368 . S
C2205 H2229 0.949 . S
H2206 C2210 0.949 . S
C2207 C2208 1.349 . S
C2207 C2209 1.327 . S
C2207 H2230 0.950 . S
C2208 C2207 1.349 . S
C2208 C2220 1.349 . S
C2209 C2207 1.327 . S
C2209 C2225 1.429 . S
C2209 H2231 0.950 . S
C2210 H2206 0.949 . S
C2210 C2218 1.574 . S
C2210 C2226 1.368 . S
H2211 C2219 0.950 . S
H2212 C2217 0.950 . S
H2213 C2218 0.949 . S
H2214 C2220 0.950 . S
H2215 C2221 0.950 . S
H2216 C2222 0.949 . S
C2217 H2212 0.950 . S
C2217 C2219 1.327 . S
C2217 C2223 1.429 . S
C2218 C2210 1.574 . S
C2218 H2213 0.949 . S
C2218 C2224 1.368 . S
C2219 C2203 1.349 . S
C2219 H2211 0.950 . S
C2219 C2217 1.327 . S
C2220 C2208 1.349 . S
C2220 H2214 0.950 . S
C2220 C2221 1.327 . S
C2221 H2215 0.950 . S
C2221 C2220 1.327 . S
C2221 C2225 1.429 . S
C2222 C2205 1.574 . S
C2222 H2216 0.949 . S
C2222 C2226 1.368 . S
C2223 C2204 1.429 . S
C2223 C2217 1.429 . S
C2223 C2224 1.523 . S
C2224 C2205 1.368 . S
C2224 C2218 1.368 . S
C2224 C2223 1.523 . S
C2225 C2209 1.429 . S
C2225 C2221 1.429 . S
C2225 C2226 1.523 . S
C2226 C2210 1.368 . S
C2226 C2222 1.368 . S
C2226 C2225 1.523 . S
H2227 C2202 0.950 . S
H2228 C2204 0.950 . S
H2229 C2205 0.949 . S
H2230 C2207 0.950 . S
H2231 C2209 0.950 . S
C2232 C2233 1.349 . S
C2232 C2234 1.327 . S
C2232 H2257 0.950 . S
C2233 C2232 1.349 . S
C2233 C2249 1.349 . S
C2234 C2232 1.327 . S
C2234 C2253 1.429 . S
C2234 H2258 0.950 . S
C2235 C2252 1.574 . S
C2235 C2254 1.368 . S
C2235 H2259 0.949 . S
H2236 C2240 0.949 . S
C2237 C2238 1.349 . S
C2237 C2239 1.327 . S
C2237 H2260 0.950 . S
C2238 C2237 1.349 . S
C2238 C2250 1.349 . S
C2239 C2237 1.327 . S
C2239 C2255 1.429 . S
C2239 H2261 0.950 . S
C2240 H2236 0.949 . S
C2240 C2248 1.574 . S
C2240 C2256 1.368 . S
H2241 C2249 0.950 . S
H2242 C2247 0.950 . S
H2243 C2248 0.949 . S
H2244 C2250 0.950 . S
H2245 C2251 0.950 . S
H2246 C2252 0.949 . S
C2247 H2242 0.950 . S
C2247 C2249 1.327 . S
C2247 C2253 1.429 . S
C2248 C2240 1.574 . S
C2248 H2243 0.949 . S
C2248 C2254 1.368 . S
C2249 C2233 1.349 . S
C2249 H2241 0.950 . S
C2249 C2247 1.327 . S
C2250 C2238 1.349 . S
C2250 H2244 0.950 . S
C2250 C2251 1.327 . S
C2251 H2245 0.950 . S
C2251 C2250 1.327 . S
C2251 C2255 1.429 . S
C2252 C2235 1.574 . S
C2252 H2246 0.949 . S
C2252 C2256 1.368 . S
C2253 C2234 1.429 . S
C2253 C2247 1.429 . S
C2253 C2254 1.523 . S
C2254 C2235 1.368 . S
C2254 C2248 1.368 . S
C2254 C2253 1.523 . S
C2255 C2239 1.429 . S
C2255 C2251 1.429 . S
C2255 C2256 1.523 . S
C2256 C2240 1.368 . S
C2256 C2252 1.368 . S
C2256 C2255 1.523 . S
H2257 C2232 0.950 . S
H2258 C2234 0.950 . S
H2259 C2235 0.949 . S
H2260 C2237 0.950 . S
H2261 C2239 0.950 . S
C2262 C2263 1.349 . S
C2262 C2264 1.327 . S
C2262 H2287 0.950 . S
C2263 C2262 1.349 . S
C2263 C2279 1.349 . S
C2264 C2262 1.327 . S
C2264 C2283 1.429 . S
C2264 H2288 0.950 . S
C2265 C2282 1.574 . S
C2265 C2284 1.368 . S
C2265 H2289 0.949 . S
H2266 C2270 0.949 . S
C2267 C2268 1.349 . S
C2267 C2269 1.327 . S
C2267 H2290 0.950 . S
C2268 C2267 1.349 . S
C2268 C2280 1.349 . S
C2269 C2267 1.327 . S
C2269 C2285 1.429 . S
C2269 H2291 0.950 . S
C2270 H2266 0.949 . S
C2270 C2278 1.574 . S
C2270 C2286 1.368 . S
H2271 C2279 0.950 . S
H2272 C2277 0.950 . S
H2273 C2278 0.949 . S
H2274 C2280 0.950 . S
H2275 C2281 0.950 . S
H2276 C2282 0.949 . S
C2277 H2272 0.950 . S
C2277 C2279 1.327 . S
C2277 C2283 1.429 . S
C2278 C2270 1.574 . S
C2278 H2273 0.949 . S
C2278 C2284 1.368 . S
C2279 C2263 1.349 . S
C2279 H2271 0.950 . S
C2279 C2277 1.327 . S
C2280 C2268 1.349 . S
C2280 H2274 0.950 . S
C2280 C2281 1.327 . S
C2281 H2275 0.950 . S
C2281 C2280 1.327 . S
C2281 C2285 1.429 . S
C2282 C2265 1.574 . S
C2282 H2276 0.949 . S
C2282 C2286 1.368 . S
C2283 C2264 1.429 . S
C2283 C2277 1.429 . S
C2283 C2284 1.523 . S
C2284 C2265 1.368 . S
C2284 C2278 1.368 . S
C2284 C2283 1.523 . S
C2285 C2269 1.429 . S
C2285 C2281 1.429 . S
C2285 C2286 1.523 . S
C2286 C2270 1.368 . S
C2286 C2282 1.368 . S
C2286 C2285 1.523 . S
H2287 C2262 0.950 . S
H2288 C2264 0.950 . S
H2289 C2265 0.949 . S
H2290 C2267 0.950 . S
H2291 C2269 0.950 . S
C2292 C2293 1.349 . S
C2292 C2294 1.327 . S
C2292 H2317 0.950 . S
C2293 C2292 1.349 . S
C2293 C2309 1.349 . S
C2294 C2292 1.327 . S
C2294 C2313 1.429 . S
C2294 H2318 0.950 . S
C2295 C2312 1.574 . S
C2295 C2314 1.368 . S
C2295 H2319 0.949 . S
H2296 C2300 0.949 1_565 S
C2297 C2298 1.349 . S
C2297 C2299 1.327 . S
C2297 H2320 0.950 . S
C2298 C2297 1.349 . S
C2298 C2310 1.349 1_545 S
C2299 C2297 1.327 . S
C2299 C2315 1.429 . S
C2299 H2321 0.950 . S
C2300 H2296 0.949 1_545 S
C2300 C2308 1.574 . S
C2300 C2316 1.368 . S
H2301 C2309 0.950 . S
H2302 C2307 0.950 . S
H2303 C2308 0.949 . S
H2304 C2310 0.950 . S
H2305 C2311 0.944 1_565 S
H2306 C2312 0.949 . S
C2307 H2302 0.950 . S
C2307 C2309 1.327 . S
C2307 C2313 1.429 . S
C2308 C2300 1.574 . S
C2308 H2303 0.949 . S
C2308 C2314 1.368 . S
C2309 C2293 1.349 . S
C2309 H2301 0.950 . S
C2309 C2307 1.327 . S
C2310 C2298 1.349 1_565 S
C2310 H2304 0.950 . S
C2310 C2311 1.325 1_565 S
C2311 H2305 0.944 1_545 S
C2311 C2310 1.325 1_545 S
C2311 C2315 1.436 . S
C2312 C2295 1.574 . S
C2312 H2306 0.949 . S
C2312 C2316 1.368 . S
C2313 C2294 1.429 . S
C2313 C2307 1.429 . S
C2313 C2314 1.523 . S
C2314 C2295 1.368 . S
C2314 C2308 1.368 . S
C2314 C2313 1.523 . S
C2315 C2299 1.429 . S
C2315 C2311 1.436 . S
C2315 C2316 1.523 . S
C2316 C2300 1.368 . S
C2316 C2312 1.368 . S
C2316 C2315 1.523 . S
H2317 C2292 0.950 . S
H2318 C2294 0.950 . S
H2319 C2295 0.949 . S
H2320 C2297 0.950 . S
H2321 C2299 0.950 . S
C2322 C2323 1.349 . S
C2322 C2324 1.327 . S
C2322 H2347 0.950 . S
C2323 C2322 1.349 . S
C2323 C2339 1.349 . S
C2324 C2322 1.327 . S
C2324 C2343 1.429 . S
C2324 H2348 0.950 . S
C2325 C2342 1.574 . S
C2325 C2344 1.368 . S
C2325 H2349 0.949 . S
H2326 C2330 0.949 . S
C2327 C2328 1.349 . S
C2327 C2329 1.327 . S
C2327 H2350 0.950 . S
C2328 C2327 1.349 . S
C2328 C2340 1.349 . S
C2329 C2327 1.327 . S
C2329 C2345 1.429 . S
C2329 H2351 0.950 . S
C2330 H2326 0.949 . S
C2330 C2338 1.574 . S
C2330 C2346 1.368 . S
H2331 C2339 0.950 . S
H2332 C2337 0.950 . S
H2333 C2338 0.949 . S
H2334 C2340 0.950 . S
H2335 C2341 0.950 . S
H2336 C2342 0.949 . S
C2337 H2332 0.950 . S
C2337 C2339 1.327 . S
C2337 C2343 1.429 . S
C2338 C2330 1.574 . S
C2338 H2333 0.949 . S
C2338 C2344 1.368 . S
C2339 C2323 1.349 . S
C2339 H2331 0.950 . S
C2339 C2337 1.327 . S
C2340 C2328 1.349 . S
C2340 H2334 0.950 . S
C2340 C2341 1.327 . S
C2341 H2335 0.950 . S
C2341 C2340 1.327 . S
C2341 C2345 1.429 . S
C2342 C2325 1.574 . S
C2342 H2336 0.949 . S
C2342 C2346 1.368 . S
C2343 C2324 1.429 . S
C2343 C2337 1.429 . S
C2343 C2344 1.523 . S
C2344 C2325 1.368 . S
C2344 C2338 1.368 . S
C2344 C2343 1.523 . S
C2345 C2329 1.429 . S
C2345 C2341 1.429 . S
C2345 C2346 1.523 . S
C2346 C2330 1.368 . S
C2346 C2342 1.368 . S
C2346 C2345 1.523 . S
H2347 C2322 0.950 . S
H2348 C2324 0.950 . S
H2349 C2325 0.949 . S
H2350 C2327 0.950 . S
H2351 C2329 0.950 . S
C2352 C2353 1.349 . S
C2352 C2354 1.327 . S
C2352 H2377 0.950 . S
C2353 C2352 1.349 . S
C2353 C2369 1.349 . S
C2354 C2352 1.327 . S
C2354 C2373 1.429 . S
C2354 H2378 0.950 . S
C2355 C2372 1.574 . S
C2355 C2374 1.368 . S
C2355 H2379 0.949 . S
H2356 C2360 0.949 . S
C2357 C2358 1.349 . S
C2357 C2359 1.327 . S
C2357 H2380 0.950 . S
C2358 C2357 1.349 . S
C2358 C2370 1.349 . S
C2359 C2357 1.327 . S
C2359 C2375 1.429 . S
C2359 H2381 0.950 . S
C2360 H2356 0.949 . S
C2360 C2368 1.574 . S
C2360 C2376 1.368 . S
H2361 C2369 0.950 . S
H2362 C2367 0.950 . S
H2363 C2368 0.949 . S
H2364 C2370 0.950 . S
H2365 C2371 0.950 . S
H2366 C2372 0.949 . S
C2367 H2362 0.950 . S
C2367 C2369 1.327 . S
C2367 C2373 1.429 . S
C2368 C2360 1.574 . S
C2368 H2363 0.949 . S
C2368 C2374 1.368 . S
C2369 C2353 1.349 . S
C2369 H2361 0.950 . S
C2369 C2367 1.327 . S
C2370 C2358 1.349 . S
C2370 H2364 0.950 . S
C2370 C2371 1.327 . S
C2371 H2365 0.950 . S
C2371 C2370 1.327 . S
C2371 C2375 1.429 . S
C2372 C2355 1.574 . S
C2372 H2366 0.949 . S
C2372 C2376 1.368 . S
C2373 C2354 1.429 . S
C2373 C2367 1.429 . S
C2373 C2374 1.523 . S
C2374 C2355 1.368 . S
C2374 C2368 1.368 . S
C2374 C2373 1.523 . S
C2375 C2359 1.429 . S
C2375 C2371 1.429 . S
C2375 C2376 1.523 . S
C2376 C2360 1.368 . S
C2376 C2372 1.368 . S
C2376 C2375 1.523 . S
H2377 C2352 0.950 . S
H2378 C2354 0.950 . S
H2379 C2355 0.949 . S
H2380 C2357 0.950 . S
H2381 C2359 0.950 . S
C2382 C2383 1.349 . S
C2382 C2384 1.327 . S
C2382 H2407 0.950 . S
C2383 C2382 1.349 . S
C2383 C2399 1.349 . S
C2384 C2382 1.327 . S
C2384 C2403 1.429 . S
C2384 H2408 0.950 . S
C2385 C2402 1.574 . S
C2385 C2404 1.368 . S
C2385 H2409 0.949 . S
H2386 C2390 0.949 . S
C2387 C2388 1.349 . S
C2387 C2389 1.327 . S
C2387 H2410 0.950 . S
C2388 C2387 1.349 . S
C2388 C2400 1.349 . S
C2389 C2387 1.327 . S
C2389 C2405 1.429 . S
C2389 H2411 0.950 . S
C2390 H2386 0.949 . S
C2390 C2398 1.574 . S
C2390 C2406 1.368 . S
H2391 C2399 0.950 . S
H2392 C2397 0.950 . S
H2393 C2398 0.949 . S
H2394 C2400 0.950 . S
H2395 C2401 0.950 . S
H2396 C2402 0.949 . S
C2397 H2392 0.950 . S
C2397 C2399 1.327 . S
C2397 C2403 1.429 . S
C2398 C2390 1.574 . S
C2398 H2393 0.949 . S
C2398 C2404 1.368 . S
C2399 C2383 1.349 . S
C2399 H2391 0.950 . S
C2399 C2397 1.327 . S
C2400 C2388 1.349 . S
C2400 H2394 0.950 . S
C2400 C2401 1.327 . S
C2401 H2395 0.950 . S
C2401 C2400 1.327 . S
C2401 C2405 1.429 . S
C2402 C2385 1.574 . S
C2402 H2396 0.949 . S
C2402 C2406 1.368 . S
C2403 C2384 1.429 . S
C2403 C2397 1.429 . S
C2403 C2404 1.523 . S
C2404 C2385 1.368 . S
C2404 C2398 1.368 . S
C2404 C2403 1.523 . S
C2405 C2389 1.429 . S
C2405 C2401 1.429 . S
C2405 C2406 1.523 . S
C2406 C2390 1.368 . S
C2406 C2402 1.368 . S
C2406 C2405 1.523 . S
H2407 C2382 0.950 . S
H2408 C2384 0.950 . S
H2409 C2385 0.949 . S
H2410 C2387 0.950 . S
H2411 C2389 0.950 . S
C2412 C2413 1.349 . S
C2412 C2414 1.327 . S
C2412 H2437 0.950 . S
C2413 C2412 1.349 . S
C2413 C2429 1.349 . S
C2414 C2412 1.327 . S
C2414 C2433 1.429 . S
C2414 H2438 0.950 . S
C2415 C2432 1.574 . S
C2415 C2434 1.368 . S
C2415 H2439 0.949 . S
H2416 C2420 0.949 . S
C2417 C2418 1.349 . S
C2417 C2419 1.327 . S
C2417 H2440 0.950 . S
C2418 C2417 1.349 . S
C2418 C2430 1.349 . S
C2419 C2417 1.327 . S
C2419 C2435 1.429 . S
C2419 H2441 0.950 . S
C2420 H2416 0.949 . S
C2420 C2428 1.574 . S
C2420 C2436 1.368 . S
H2421 C2429 0.950 . S
H2422 C2427 0.950 . S
H2423 C2428 0.949 . S
H2424 C2430 0.950 . S
H2425 C2431 0.950 . S
H2426 C2432 0.949 . S
C2427 H2422 0.950 . S
C2427 C2429 1.327 . S
C2427 C2433 1.429 . S
C2428 C2420 1.574 . S
C2428 H2423 0.949 . S
C2428 C2434 1.368 . S
C2429 C2413 1.349 . S
C2429 H2421 0.950 . S
C2429 C2427 1.327 . S
C2430 C2418 1.349 . S
C2430 H2424 0.950 . S
C2430 C2431 1.327 . S
C2431 H2425 0.950 . S
C2431 C2430 1.327 . S
C2431 C2435 1.429 . S
C2432 C2415 1.574 . S
C2432 H2426 0.949 . S
C2432 C2436 1.368 . S
C2433 C2414 1.429 . S
C2433 C2427 1.429 . S
C2433 C2434 1.523 . S
C2434 C2415 1.368 . S
C2434 C2428 1.368 . S
C2434 C2433 1.523 . S
C2435 C2419 1.429 . S
C2435 C2431 1.429 . S
C2435 C2436 1.523 . S
C2436 C2420 1.368 . S
C2436 C2432 1.368 . S
C2436 C2435 1.523 . S
H2437 C2412 0.950 . S
H2438 C2414 0.950 . S
H2439 C2415 0.949 . S
H2440 C2417 0.950 . S
H2441 C2419 0.950 . S
C2442 C2443 1.349 . S
C2442 C2444 1.327 . S
C2442 H2467 0.950 . S
C2443 C2442 1.349 . S
C2443 C2459 1.349 . S
C2444 C2442 1.327 . S
C2444 C2463 1.429 . S
C2444 H2468 0.950 . S
C2445 C2462 1.574 . S
C2445 C2464 1.368 . S
C2445 H2469 0.949 . S
H2446 C2450 0.949 . S
C2447 C2448 1.349 . S
C2447 C2449 1.327 . S
C2447 H2470 0.950 . S
C2448 C2447 1.349 . S
C2448 C2460 1.349 . S
C2449 C2447 1.327 . S
C2449 C2465 1.429 . S
C2449 H2471 0.950 . S
C2450 H2446 0.949 . S
C2450 C2458 1.574 . S
C2450 C2466 1.368 . S
H2451 C2459 0.950 . S
H2452 C2457 0.950 . S
H2453 C2458 0.949 . S
H2454 C2460 0.950 . S
H2455 C2461 0.950 . S
H2456 C2462 0.949 . S
C2457 H2452 0.950 . S
C2457 C2459 1.327 . S
C2457 C2463 1.429 . S
C2458 C2450 1.574 . S
C2458 H2453 0.949 . S
C2458 C2464 1.368 . S
C2459 C2443 1.349 . S
C2459 H2451 0.950 . S
C2459 C2457 1.327 . S
C2460 C2448 1.349 . S
C2460 H2454 0.950 . S
C2460 C2461 1.327 . S
C2461 H2455 0.950 . S
C2461 C2460 1.327 . S
C2461 C2465 1.429 . S
C2462 C2445 1.574 . S
C2462 H2456 0.949 . S
C2462 C2466 1.368 . S
C2463 C2444 1.429 . S
C2463 C2457 1.429 . S
C2463 C2464 1.523 . S
C2464 C2445 1.368 . S
C2464 C2458 1.368 . S
C2464 C2463 1.523 . S
C2465 C2449 1.429 . S
C2465 C2461 1.429 . S
C2465 C2466 1.523 . S
C2466 C2450 1.368 . S
C2466 C2462 1.368 . S
C2466 C2465 1.523 . S
H2467 C2442 0.950 . S
H2468 C2444 0.950 . S
H2469 C2445 0.949 . S
H2470 C2447 0.950 . S
H2471 C2449 0.950 . S
C2472 C2473 1.349 . S
C2472 C2474 1.327 . S
C2472 H2497 0.950 . S
C2473 C2472 1.349 . S
C2473 C2489 1.349 . S
C2474 C2472 1.327 . S
C2474 C2493 1.429 . S
C2474 H2498 0.950 . S
C2475 C2492 1.574 . S
C2475 C2494 1.368 . S
C2475 H2499 0.949 . S
H2476 C2480 0.949 . S
C2477 C2478 1.349 . S
C2477 C2479 1.327 . S
C2477 H2500 0.950 . S
C2478 C2477 1.349 . S
C2478 C2490 1.349 . S
C2479 C2477 1.327 . S
C2479 C2495 1.429 . S
C2479 H2501 0.950 . S
C2480 H2476 0.949 . S
C2480 C2488 1.574 . S
C2480 C2496 1.368 . S
H2481 C2489 0.950 . S
H2482 C2487 0.950 . S
H2483 C2488 0.949 . S
H2484 C2490 0.950 . S
H2485 C2491 0.950 . S
H2486 C2492 0.949 . S
C2487 H2482 0.950 . S
C2487 C2489 1.327 . S
C2487 C2493 1.429 . S
C2488 C2480 1.574 . S
C2488 H2483 0.949 . S
C2488 C2494 1.368 . S
C2489 C2473 1.349 . S
C2489 H2481 0.950 . S
C2489 C2487 1.327 . S
C2490 C2478 1.349 . S
C2490 H2484 0.950 . S
C2490 C2491 1.327 . S
C2491 H2485 0.950 . S
C2491 C2490 1.327 . S
C2491 C2495 1.429 . S
C2492 C2475 1.574 . S
C2492 H2486 0.949 . S
C2492 C2496 1.368 . S
C2493 C2474 1.429 . S
C2493 C2487 1.429 . S
C2493 C2494 1.523 . S
C2494 C2475 1.368 . S
C2494 C2488 1.368 . S
C2494 C2493 1.523 . S
C2495 C2479 1.429 . S
C2495 C2491 1.429 . S
C2495 C2496 1.523 . S
C2496 C2480 1.368 . S
C2496 C2492 1.368 . S
C2496 C2495 1.523 . S
H2497 C2472 0.950 . S
H2498 C2474 0.950 . S
H2499 C2475 0.949 . S
H2500 C2477 0.950 . S
H2501 C2479 0.950 . S
C2502 C2503 1.349 . S
C2502 C2504 1.327 . S
C2502 H2527 0.950 . S
C2503 C2502 1.349 . S
C2503 C2519 1.349 . S
C2504 C2502 1.327 . S
C2504 C2523 1.429 . S
C2504 H2528 0.950 . S
C2505 C2522 1.574 . S
C2505 C2524 1.368 . S
C2505 H2529 0.949 . S
H2506 C2510 0.949 . S
C2507 C2508 1.349 . S
C2507 C2509 1.327 . S
C2507 H2530 0.950 . S
C2508 C2507 1.349 . S
C2508 C2520 1.349 . S
C2509 C2507 1.327 . S
C2509 C2525 1.429 . S
C2509 H2531 0.950 . S
C2510 H2506 0.949 . S
C2510 C2518 1.574 . S
C2510 C2526 1.368 . S
H2511 C2519 0.950 . S
H2512 C2517 0.950 . S
H2513 C2518 0.949 . S
H2514 C2520 0.950 . S
H2515 C2521 0.950 . S
H2516 C2522 0.949 . S
C2517 H2512 0.950 . S
C2517 C2519 1.327 . S
C2517 C2523 1.429 . S
C2518 C2510 1.574 . S
C2518 H2513 0.949 . S
C2518 C2524 1.368 . S
C2519 C2503 1.349 . S
C2519 H2511 0.950 . S
C2519 C2517 1.327 . S
C2520 C2508 1.349 . S
C2520 H2514 0.950 . S
C2520 C2521 1.327 . S
C2521 H2515 0.950 . S
C2521 C2520 1.327 . S
C2521 C2525 1.429 . S
C2522 C2505 1.574 . S
C2522 H2516 0.949 . S
C2522 C2526 1.368 . S
C2523 C2504 1.429 . S
C2523 C2517 1.429 . S
C2523 C2524 1.523 . S
C2524 C2505 1.368 . S
C2524 C2518 1.368 . S
C2524 C2523 1.523 . S
C2525 C2509 1.429 . S
C2525 C2521 1.429 . S
C2525 C2526 1.523 . S
C2526 C2510 1.368 . S
C2526 C2522 1.368 . S
C2526 C2525 1.523 . S
H2527 C2502 0.950 . S
H2528 C2504 0.950 . S
H2529 C2505 0.949 . S
H2530 C2507 0.950 . S
H2531 C2509 0.950 . S
C2532 C2533 1.349 . S
C2532 C2534 1.327 . S
C2532 H2557 0.950 . S
C2533 C2532 1.349 . S
C2533 C2549 1.349 . S
C2534 C2532 1.327 . S
C2534 C2553 1.429 . S
C2534 H2558 0.950 . S
C2535 C2552 1.574 . S
C2535 C2554 1.368 . S
C2535 H2559 0.949 . S
H2536 C2540 0.949 . S
C2537 C2538 1.349 . S
C2537 C2539 1.327 . S
C2537 H2560 0.950 . S
C2538 C2537 1.349 . S
C2538 C2550 1.349 . S
C2539 C2537 1.327 . S
C2539 C2555 1.429 . S
C2539 H2561 0.950 . S
C2540 H2536 0.949 . S
C2540 C2548 1.574 . S
C2540 C2556 1.368 . S
H2541 C2549 0.950 . S
H2542 C2547 0.950 . S
H2543 C2548 0.949 . S
H2544 C2550 0.950 . S
H2545 C2551 0.950 . S
H2546 C2552 0.949 . S
C2547 H2542 0.950 . S
C2547 C2549 1.327 . S
C2547 C2553 1.429 . S
C2548 C2540 1.574 . S
C2548 H2543 0.949 . S
C2548 C2554 1.368 . S
C2549 C2533 1.349 . S
C2549 H2541 0.950 . S
C2549 C2547 1.327 . S
C2550 C2538 1.349 . S
C2550 H2544 0.950 . S
C2550 C2551 1.327 . S
C2551 H2545 0.950 . S
C2551 C2550 1.327 . S
C2551 C2555 1.429 . S
C2552 C2535 1.574 . S
C2552 H2546 0.949 . S
C2552 C2556 1.368 . S
C2553 C2534 1.429 . S
C2553 C2547 1.429 . S
C2553 C2554 1.523 . S
C2554 C2535 1.368 . S
C2554 C2548 1.368 . S
C2554 C2553 1.523 . S
C2555 C2539 1.429 . S
C2555 C2551 1.429 . S
C2555 C2556 1.523 . S
C2556 C2540 1.368 . S
C2556 C2552 1.368 . S
C2556 C2555 1.523 . S
H2557 C2532 0.950 . S
H2558 C2534 0.950 . S
H2559 C2535 0.949 . S
H2560 C2537 0.950 . S
H2561 C2539 0.950 . S
C2562 C2563 1.349 . S
C2562 C2564 1.327 . S
C2562 H2587 0.950 . S
C2563 C2562 1.349 . S
C2563 C2579 1.349 . S
C2564 C2562 1.327 . S
C2564 C2583 1.429 . S
C2564 H2588 0.950 . S
C2565 C2582 1.574 . S
C2565 C2584 1.368 . S
C2565 H2589 0.949 . S
H2566 C2570 0.949 . S
C2567 C2568 1.349 . S
C2567 C2569 1.327 . S
C2567 H2590 0.950 . S
C2568 C2567 1.349 . S
C2568 C2580 1.349 . S
C2569 C2567 1.327 . S
C2569 C2585 1.429 . S
C2569 H2591 0.950 . S
C2570 H2566 0.949 . S
C2570 C2578 1.574 . S
C2570 C2586 1.368 . S
H2571 C2579 0.950 . S
H2572 C2577 0.950 . S
H2573 C2578 0.949 . S
H2574 C2580 0.950 . S
H2575 C2581 0.950 . S
H2576 C2582 0.949 . S
C2577 H2572 0.950 . S
C2577 C2579 1.327 . S
C2577 C2583 1.429 . S
C2578 C2570 1.574 . S
C2578 H2573 0.949 . S
C2578 C2584 1.368 . S
C2579 C2563 1.349 . S
C2579 H2571 0.950 . S
C2579 C2577 1.327 . S
C2580 C2568 1.349 . S
C2580 H2574 0.950 . S
C2580 C2581 1.327 . S
C2581 H2575 0.950 . S
C2581 C2580 1.327 . S
C2581 C2585 1.429 . S
C2582 C2565 1.574 . S
C2582 H2576 0.949 . S
C2582 C2586 1.368 . S
C2583 C2564 1.429 . S
C2583 C2577 1.429 . S
C2583 C2584 1.523 . S
C2584 C2565 1.368 . S
C2584 C2578 1.368 . S
C2584 C2583 1.523 . S
C2585 C2569 1.429 . S
C2585 C2581 1.429 . S
C2585 C2586 1.523 . S
C2586 C2570 1.368 . S
C2586 C2582 1.368 . S
C2586 C2585 1.523 . S
H2587 C2562 0.950 . S
H2588 C2564 0.950 . S
H2589 C2565 0.949 . S
H2590 C2567 0.950 . S
H2591 C2569 0.950 . S
C2592 C2593 1.349 . S
C2592 C2594 1.327 . S
C2592 H2617 0.950 . S
C2593 C2592 1.349 . S
C2593 C2609 1.349 . S
C2594 C2592 1.327 . S
C2594 C2613 1.429 . S
C2594 H2618 0.950 . S
C2595 C2612 1.574 . S
C2595 C2614 1.368 . S
C2595 H2619 0.949 . S
H2596 C2600 0.949 . S
C2597 C2598 1.349 . S
C2597 C2599 1.327 . S
C2597 H2620 0.950 . S
C2598 C2597 1.349 . S
C2598 C2610 1.349 . S
C2599 C2597 1.327 . S
C2599 C2615 1.429 . S
C2599 H2621 0.950 . S
C2600 H2596 0.949 . S
C2600 C2608 1.574 . S
C2600 C2616 1.368 . S
H2601 C2609 0.950 . S
H2602 C2607 0.950 . S
H2603 C2608 0.949 . S
H2604 C2610 0.950 . S
H2605 C2611 0.950 . S
H2606 C2612 0.949 . S
C2607 H2602 0.950 . S
C2607 C2609 1.327 . S
C2607 C2613 1.429 . S
C2608 C2600 1.574 . S
C2608 H2603 0.949 . S
C2608 C2614 1.368 . S
C2609 C2593 1.349 . S
C2609 H2601 0.950 . S
C2609 C2607 1.327 . S
C2610 C2598 1.349 . S
C2610 H2604 0.950 . S
C2610 C2611 1.327 . S
C2611 H2605 0.950 . S
C2611 C2610 1.327 . S
C2611 C2615 1.429 . S
C2612 C2595 1.574 . S
C2612 H2606 0.949 . S
C2612 C2616 1.368 . S
C2613 C2594 1.429 . S
C2613 C2607 1.429 . S
C2613 C2614 1.523 . S
C2614 C2595 1.368 . S
C2614 C2608 1.368 . S
C2614 C2613 1.523 . S
C2615 C2599 1.429 . S
C2615 C2611 1.429 . S
C2615 C2616 1.523 . S
C2616 C2600 1.368 . S
C2616 C2612 1.368 . S
C2616 C2615 1.523 . S
H2617 C2592 0.950 . S
H2618 C2594 0.950 . S
H2619 C2595 0.949 . S
H2620 C2597 0.950 . S
H2621 C2599 0.950 . S
C2622 C2623 1.349 . S
C2622 C2624 1.327 . S
C2622 H2647 0.950 . S
C2623 C2622 1.349 . S
C2623 C2639 1.349 . S
C2624 C2622 1.327 . S
C2624 C2643 1.429 . S
C2624 H2648 0.950 . S
C2625 C2642 1.574 . S
C2625 C2644 1.368 . S
C2625 H2649 0.949 . S
H2626 C2630 0.949 . S
C2627 C2628 1.349 . S
C2627 C2629 1.327 . S
C2627 H2650 0.950 . S
C2628 C2627 1.349 . S
C2628 C2640 1.349 . S
C2629 C2627 1.327 . S
C2629 C2645 1.429 . S
C2629 H2651 0.950 . S
C2630 H2626 0.949 . S
C2630 C2638 1.574 . S
C2630 C2646 1.368 . S
H2631 C2639 0.950 . S
H2632 C2637 0.950 . S
H2633 C2638 0.949 . S
H2634 C2640 0.950 . S
H2635 C2641 0.950 . S
H2636 C2642 0.949 . S
C2637 H2632 0.950 . S
C2637 C2639 1.327 . S
C2637 C2643 1.429 . S
C2638 C2630 1.574 . S
C2638 H2633 0.949 . S
C2638 C2644 1.368 . S
C2639 C2623 1.349 . S
C2639 H2631 0.950 . S
C2639 C2637 1.327 . S
C2640 C2628 1.349 . S
C2640 H2634 0.950 . S
C2640 C2641 1.327 . S
C2641 H2635 0.950 . S
C2641 C2640 1.327 . S
C2641 C2645 1.429 . S
C2642 C2625 1.574 . S
C2642 H2636 0.949 . S
C2642 C2646 1.368 . S
C2643 C2624 1.429 . S
C2643 C2637 1.429 . S
C2643 C2644 1.523 . S
C2644 C2625 1.368 . S
C2644 C2638 1.368 . S
C2644 C2643 1.523 . S
C2645 C2629 1.429 . S
C2645 C2641 1.429 . S
C2645 C2646 1.523 . S
C2646 C2630 1.368 . S
C2646 C2642 1.368 . S
C2646 C2645 1.523 . S
H2647 C2622 0.950 . S
H2648 C2624 0.950 . S
H2649 C2625 0.949 . S
H2650 C2627 0.950 . S
H2651 C2629 0.950 . S
C2652 C2653 1.349 . S
C2652 C2654 1.327 . S
C2652 H2677 0.950 . S
C2653 C2652 1.349 . S
C2653 C2669 1.349 . S
C2654 C2652 1.327 . S
C2654 C2673 1.429 . S
C2654 H2678 0.950 . S
C2655 C2672 1.574 . S
C2655 C2674 1.368 . S
C2655 H2679 0.949 . S
H2656 C2660 0.949 . S
C2657 C2658 1.349 . S
C2657 C2659 1.327 . S
C2657 H2680 0.950 . S
C2658 C2657 1.349 . S
C2658 C2670 1.349 . S
C2659 C2657 1.327 . S
C2659 C2675 1.429 . S
C2659 H2681 0.950 . S
C2660 H2656 0.949 . S
C2660 C2668 1.574 . S
C2660 C2676 1.368 . S
H2661 C2669 0.950 . S
H2662 C2667 0.950 . S
H2663 C2668 0.949 . S
H2664 C2670 0.950 . S
H2665 C2671 0.950 . S
H2666 C2672 0.949 . S
C2667 H2662 0.950 . S
C2667 C2669 1.327 . S
C2667 C2673 1.429 . S
C2668 C2660 1.574 . S
C2668 H2663 0.949 . S
C2668 C2674 1.368 . S
C2669 C2653 1.349 . S
C2669 H2661 0.950 . S
C2669 C2667 1.327 . S
C2670 C2658 1.349 . S
C2670 H2664 0.950 . S
C2670 C2671 1.327 . S
C2671 H2665 0.950 . S
C2671 C2670 1.327 . S
C2671 C2675 1.429 . S
C2672 C2655 1.574 . S
C2672 H2666 0.949 . S
C2672 C2676 1.368 . S
C2673 C2654 1.429 . S
C2673 C2667 1.429 . S
C2673 C2674 1.523 . S
C2674 C2655 1.368 . S
C2674 C2668 1.368 . S
C2674 C2673 1.523 . S
C2675 C2659 1.429 . S
C2675 C2671 1.429 . S
C2675 C2676 1.523 . S
C2676 C2660 1.368 . S
C2676 C2672 1.368 . S
C2676 C2675 1.523 . S
H2677 C2652 0.950 . S
H2678 C2654 0.950 . S
H2679 C2655 0.949 . S
H2680 C2657 0.950 . S
H2681 C2659 0.950 . S
C1063 C528 1.629 . S
C1068 C711 1.607 . S
C1093 C562 1.831 . S
C1098 C751 1.808 . S
C1123 C484 1.717 . S
C1128 C790 1.714 . S
C1153 C445 1.539 . S
C1158 C750 1.523 . S
C1188 C791 1.441 . S
C1183 C367 1.456 . S
C1213 C411 1.331 . S
C1218 C710 1.334 . S
C1248 C721 1.627 . S
C1243 C450 1.638 . S
C1278 C761 1.787 . S
C1273 C372 1.805 . S
C1303 C406 1.714 . S
C1308 C800 1.715 . S
C1333 C523 1.536 . S
C1338 C760 1.523 . S
C1363 C567 1.429 . S
C1368 C801 1.419 . S
C1398 C720 1.358 . S
C1393 C489 1.340 . S
C1428 C831 1.607 . S
C1423 C60 1.629 . S
C1453 C94 1.831 . S
C1458 C871 1.809 . S
C1483 C16 1.717 . S
C1488 C910 1.714 . S
C1513 C679 1.538 . S
C1518 C870 1.523 . S
C1543 C601 1.456 . S
C1548 C911 1.441 . S
C1573 C645 1.331 . S
C1578 C830 1.337 . S
C1603 C684 1.638 . S
C1608 C841 1.627 . S
C1633 C606 1.805 . S
C1638 C881 1.787 . S
C1668 C920 1.715 . S
C1663 C640 1.715 . S
C1693 C55 1.536 . S
C1698 C880 1.523 . S
C1728 C921 1.419 . S
C1723 C99 1.429 . S
C1753 C21 1.341 . S
C1758 C840 1.359 . S
C1788 C951 1.607 . S
C1783 C294 1.629 . S
C1813 C328 1.831 . S
C1818 C991 1.808 . S
C1848 C1030 1.714 . S
C1843 C250 1.717 . S
C1878 C990 1.523 . S
C1873 C211 1.539 . S
C1908 C1031 1.441 . S
C1903 C133 1.456 . S
C1933 C177 1.331 . S
C1938 C950 1.337 . S
C1963 C216 1.637 . S
C1968 C961 1.627 . S
C1993 C138 1.805 . S
C1998 C1001 1.787 . S
C2028 C1040 1.715 . S
C2023 C172 1.714 . S
C2053 C289 1.535 . S
C2058 C1000 1.523 . S
C2083 C333 1.429 . S
C2088 C1041 1.419 . S
C2113 C255 1.341 . S
C2118 C960 1.359 . S
C2143 C586 1.277 . S
C2148 C707 1.275 . S
C2178 C747 1.894 . S
C2173 C625 1.881 . S
C2203 C664 1.572 . S
C2208 C797 1.585 . S
C2233 C235 1.890 . S
C2238 C757 1.909 . S
C2263 C274 1.559 . S
C2268 C787 1.568 . S
C2298 C717 1.271 . S
C2293 C313 1.274 . S
C2323 C118 1.277 . S
C2328 C827 1.275 . S
C2353 C157 1.881 . S
C2358 C867 1.894 . S
C2383 C196 1.572 . S
C2388 C917 1.585 . S
C2413 C469 1.890 . S
C2418 C877 1.909 . S
C2448 C907 1.568 . S
C2443 C508 1.559 . S
C2473 C547 1.274 . S
C2478 C837 1.271 . S
C2503 C352 1.277 . S
C2508 C947 1.275 . S
C2533 C391 1.881 . S
C2538 C987 1.894 . S
C2568 C1037 1.585 . S
C2563 C430 1.572 . S
C2593 C1 1.890 . S
C2598 C997 1.909 . S
C2623 C40 1.559 . S
C2628 C1027 1.568 . S
C2653 C79 1.274 . S
C2658 C957 1.271 . S
