# Generated by pormake.
# Topology nom, (4,4)-cn, num edge types: 1
# Building blocks:
#     Node 0, Type 0, BuildingBlock: GIZVER_clean_linker_0, # of connection points: 4
#     Node 1, Type 0, BuildingBlock: GIZVER_clean_linker_0, # of connection points: 4
#     Node 2, Type 0, BuildingBlock: GIZVER_clean_linker_0, # of connection points: 4
#     Node 3, Type 0, BuildingBlock: GIZVER_clean_linker_0, # of connection points: 4
#     Node 4, Type 0, BuildingBlock: GIZVER_clean_linker_0, # of connection points: 4
#     Node 5, Type 0, BuildingBlock: GIZVER_clean_linker_0, # of connection points: 4
#     Node 6, Type 1, BuildingBlock: QUQFOY_clean_sbu_1, # of connection points: 4
#     Node 7, Type 1, BuildingBlock: QUQFOY_clean_sbu_1, # of connection points: 4
#     Node 8, Type 1, BuildingBlock: QUQFOY_clean_sbu_1, # of connection points: 4
#     Node 9, Type 1, BuildingBlock: QUQFOY_clean_sbu_1, # of connection points: 4
#     Node 10, Type 1, BuildingBlock: QUQFOY_clean_sbu_1, # of connection points: 4
#     Node 11, Type 1, BuildingBlock: QUQFOY_clean_sbu_1, # of connection points: 4
#     Edge 12, Type (0, 1), BuildingBlock: EZIPEK_clean_linker_0, # of connection points: 2
#     Edge 13, Type (0, 1), BuildingBlock: EZIPEK_clean_linker_0, # of connection points: 2
#     Edge 14, Type (0, 1), BuildingBlock: EZIPEK_clean_linker_0, # of connection points: 2
#     Edge 15, Type (0, 1), BuildingBlock: EZIPEK_clean_linker_0, # of connection points: 2
#     Edge 16, Type (0, 1), BuildingBlock: EZIPEK_clean_linker_0, # of connection points: 2
#     Edge 17, Type (0, 1), BuildingBlock: EZIPEK_clean_linker_0, # of connection points: 2
#     Edge 18, Type (0, 1), BuildingBlock: EZIPEK_clean_linker_0, # of connection points: 2
#     Edge 19, Type (0, 1), BuildingBlock: EZIPEK_clean_linker_0, # of connection points: 2
#     Edge 20, Type (0, 1), BuildingBlock: EZIPEK_clean_linker_0, # of connection points: 2
#     Edge 21, Type (0, 1), BuildingBlock: EZIPEK_clean_linker_0, # of connection points: 2
#     Edge 22, Type (0, 1), BuildingBlock: EZIPEK_clean_linker_0, # of connection points: 2
#     Edge 23, Type (0, 1), BuildingBlock: EZIPEK_clean_linker_0, # of connection points: 2
#     Edge 24, Type (0, 1), BuildingBlock: EZIPEK_clean_linker_0, # of connection points: 2
#     Edge 25, Type (0, 1), BuildingBlock: EZIPEK_clean_linker_0, # of connection points: 2
#     Edge 26, Type (0, 1), BuildingBlock: EZIPEK_clean_linker_0, # of connection points: 2
#     Edge 27, Type (0, 1), BuildingBlock: EZIPEK_clean_linker_0, # of connection points: 2
#     Edge 28, Type (0, 1), BuildingBlock: EZIPEK_clean_linker_0, # of connection points: 2
#     Edge 29, Type (0, 1), BuildingBlock: EZIPEK_clean_linker_0, # of connection points: 2
#     Edge 30, Type (0, 1), BuildingBlock: EZIPEK_clean_linker_0, # of connection points: 2
#     Edge 31, Type (0, 1), BuildingBlock: EZIPEK_clean_linker_0, # of connection points: 2
#     Edge 32, Type (0, 1), BuildingBlock: EZIPEK_clean_linker_0, # of connection points: 2
#     Edge 33, Type (0, 1), BuildingBlock: EZIPEK_clean_linker_0, # of connection points: 2
#     Edge 34, Type (0, 1), BuildingBlock: EZIPEK_clean_linker_0, # of connection points: 2
#     Edge 35, Type (0, 1), BuildingBlock: EZIPEK_clean_linker_0, # of connection points: 2
# Relax obj value: 0.004
# Max RMSD: 0.080
# Mean RMSD: 0.078
data_MOF--net-nom--node1-QUQFOY_clean_sbu_1--node2-GIZVER_clean_linker_0--edge1-EZIPEK_clean_linker_0
_symmetry_space_group_name_H-M    P1
_symmetry_Int_Tables_number       1
_symmetry_cell_setting            triclinic
loop_
_symmetry_equiv_pos_as_xyz
'x, y, z'
_cell_length_a     35.896992
_cell_length_b     35.793749
_cell_length_c     33.583114
_cell_angle_alpha  90.006423
_cell_angle_beta   89.97299
_cell_angle_gamma 120.09537
loop_
_atom_site_label
_atom_site_type_symbol
_atom_site_fract_x
_atom_site_fract_y
_atom_site_fract_z
_atom_type_partial_charge
H0 H 0.97528 0.60575 0.34865 0.0
H1 H 1.00552 0.57778 0.2322 0.0
H2 H 0.88441 0.49097 0.28687 0.0
H3 H 0.03585 0.66044 0.31372 0.0
H4 H 0.03438 0.65458 0.26096 0.0
H5 H 0.06984 0.62148 0.35365 0.0
H6 H 0.19353 0.65794 0.30398 0.0
H7 H 0.09779 0.6627 0.2312 0.0
C8 C 0.96799 0.58347 0.32411 0.0
C9 C 0.92715 0.54609 0.32212 0.0
C10 C 0.99693 0.5948 0.29185 0.0
C11 C 0.985 0.56769 0.25834 0.0
C12 C 0.94455 0.53011 0.25676 0.0
C13 C 0.9167 0.5186 0.28934 0.0
C14 C 0.03597 0.63943 0.28937 0.0
C15 C 0.0776 0.63873 0.29129 0.0
C16 C 0.0908 0.63018 0.32789 0.0
C17 C 0.13248 0.63681 0.33222 0.0
C18 C 0.16057 0.65068 0.29977 0.0
C19 C 0.14856 0.66069 0.26357 0.0
C20 C 0.10652 0.6534 0.25881 0.0
H21 H 0.39299 0.98558 0.4995 0.0
H22 H 0.44525 1.00376 0.38081 0.0
H23 H 0.40617 0.88519 0.44306 0.0
H24 H 0.3985 0.04353 0.45842 0.0
H25 H 0.40798 0.04255 0.40624 0.0
H26 H 0.47828 0.06096 0.49689 0.0
H27 H 0.55969 0.19555 0.47016 0.0
H28 H 0.45861 0.11492 0.38938 0.0
C29 C 0.40485 0.97477 0.47498 0.0
C30 C 0.39882 0.93278 0.47567 0.0
C31 C 0.42219 1.00094 0.44079 0.0
C32 C 0.43434 0.98503 0.40804 0.0
C33 C 0.4287 0.94341 0.40908 0.0
C34 C 0.41237 0.91816 0.44327 0.0
C35 C 0.42092 0.0423 0.43629 0.0
C36 C 0.46442 0.08246 0.44158 0.0
C37 C 0.48829 0.08772 0.47641 0.0
C38 C 0.52228 0.12861 0.48713 0.0
C39 C 0.53415 0.16366 0.46153 0.0
C40 C 0.51222 0.15868 0.42585 0.0
C41 C 0.47725 0.11805 0.41582 0.0
H42 H 0.38348 0.4523 0.5708 0.0
H43 H 0.43212 0.45195 0.68819 0.0
H44 H 0.39447 0.5448 0.6582 0.0
H45 H 0.39478 0.39433 0.58893 0.0
H46 H 0.38403 0.38194 0.64048 0.0
H47 H 0.47397 0.44041 0.56716 0.0
H48 H 0.55296 0.39753 0.62372 0.0
H49 H 0.43382 0.37061 0.67814 0.0
C50 C 0.39446 0.46707 0.59979 0.0
C51 C 0.38922 0.5021 0.61069 0.0
C52 C 0.41031 0.44888 0.62765 0.0
C53 C 0.42192 0.46689 0.66592 0.0
C54 C 0.41592 0.50125 0.67686 0.0
C55 C 0.40052 0.51923 0.64906 0.0
C56 C 0.40762 0.40618 0.61932 0.0
C57 C 0.45054 0.40838 0.62375 0.0
C58 C 0.48082 0.42648 0.59284 0.0
C59 C 0.51774 0.42261 0.59304 0.0
C60 C 0.52549 0.40245 0.62495 0.0
C61 C 0.49509 0.38293 0.65525 0.0
C62 C 0.45814 0.38708 0.65544 0.0
H63 H 0.96484 0.38784 0.72771 0.0
H64 H 1.00093 0.44191 0.84559 0.0
H65 H 0.87379 0.39955 0.8017 0.0
H66 H 0.03309 0.40398 0.7533 0.0
H67 H 0.03162 0.39773 0.80599 0.0
H68 H 0.06252 0.48147 0.72576 0.0
H69 H 0.18069 0.56947 0.78412 0.0
H70 H 0.09039 0.45189 0.84256 0.0
C71 C 0.95797 0.40023 0.75447 0.0
C72 C 0.91616 0.39308 0.7607 0.0
C73 C 0.98927 0.41893 0.78481 0.0
C74 C 0.97832 0.43071 0.821 0.0
C75 C 0.93679 0.42402 0.82684 0.0
C76 C 0.90658 0.40691 0.79612 0.0
C77 C 0.03107 0.4187 0.78182 0.0
C78 C 0.0699 0.4634 0.78536 0.0
C79 C 0.08214 0.49137 0.75245 0.0
C80 C 0.12208 0.52962 0.75218 0.0
C81 C 0.14872 0.54116 0.78559 0.0
C82 C 0.13797 0.513 0.81787 0.0
C83 C 0.09784 0.47465 0.81841 0.0
H84 H 0.68544 0.08218 0.00381 0.0
H85 H 0.60877 0.04074 0.8968 0.0
H86 H 0.66353 0.17171 0.93745 0.0
H87 H 0.66938 1.01506 -0.0256 0.0
H88 H 0.66523 1.01574 0.92158 0.0
H89 H 0.5956 0.98576 0.01344 0.0
H90 H 0.50492 0.86111 0.96693 0.0
H91 H 0.60876 0.95172 0.89312 0.0
C92 C 0.66932 0.08838 -0.02039 0.0
C93 C 0.67501 0.12996 -0.02498 0.0
C94 C 0.64594 0.05611 0.95098 0.0
C95 C 0.62614 0.06514 0.91929 0.0
C96 C 0.63307 0.10704 0.91389 0.0
C97 C 0.6571 0.13898 0.94207 0.0
C98 C 0.64885 1.01548 0.94979 0.0
C99 C 0.60542 0.97484 0.95204 0.0
C100 C 0.583 0.96381 -0.01166 0.0
C101 C 0.54664 0.92295 -0.00657 0.0
C102 C 0.5318 0.89347 0.962 0.0
C103 C 0.55421 0.90336 0.92598 0.0
C104 C 0.59043 0.94461 0.9205 0.0
H105 H 0.68268 0.60094 0.0668 0.0
H106 H 0.63166 0.60406 0.18229 0.0
H107 H 0.67185 0.51201 0.15795 0.0
H108 H 0.66928 0.6581 0.08131 0.0
H109 H 0.6814 0.67309 0.13214 0.0
H110 H 0.59281 0.6209 0.05793 0.0
H111 H 0.51409 0.66054 0.12011 0.0
H112 H 0.6292 0.67676 0.17527 0.0
C113 C 0.67118 0.58691 0.09598 0.0
C114 C 0.67702 0.55278 0.10868 0.0
C115 C 0.65436 0.60549 0.12234 0.0
C116 C 0.64236 0.58867 0.161 0.0
C117 C 0.64882 0.55511 0.17374 0.0
C118 C 0.66522 0.53675 0.14737 0.0
C119 C 0.65709 0.64784 0.11217 0.0
C120 C 0.61464 0.64656 0.11698 0.0
C121 C 0.58562 0.63266 0.08494 0.0
C122 C 0.54935 0.63761 0.08631 0.0
C123 C 0.54113 0.65491 0.12015 0.0
C124 C 0.56994 0.66958 0.15205 0.0
C125 C 0.60613 0.66418 0.15109 0.0
O126 O 0.59893 0.42612 0.42251 0.0
Cd127 Cd 0.62034 0.40812 0.37305 0.0
Cd128 Cd 0.69164 0.47904 0.40031 0.0
O129 O 0.66087 0.46384 0.45399 0.0
O130 O 0.56796 0.35254 0.35793 0.0
O131 O 0.62735 0.35623 0.38123 0.0
C132 C 0.58744 0.33299 0.37087 0.0
C133 C 0.76246 0.49508 0.39161 0.0
C134 C 0.62007 0.44476 0.45374 0.0
C135 C 0.65209 0.48701 0.32624 0.0
O136 O 0.66894 0.50548 0.35891 0.0
O137 O 0.63667 0.44649 0.32291 0.0
O138 O 0.75369 0.52255 0.4076 0.0
O139 O 0.73089 0.4574 0.38214 0.0
O140 O 0.21585 0.59994 0.58443 0.0
Cd141 Cd 0.25883 0.61719 0.53811 0.0
Cd142 Cd 0.25619 0.69528 0.55638 0.0
O143 O 0.2341 0.66394 0.60982 0.0
O144 O 0.26125 0.56305 0.53023 0.0
O145 O 0.3167 0.62386 0.5518 0.0
C146 C 0.29974 0.58313 0.5444 0.0
C147 C 0.29896 0.77014 0.55099 0.0
C148 C 0.2139 0.62303 0.61217 0.0
C149 C 0.21795 0.64653 0.47998 0.0
O150 O 0.21652 0.67003 0.50761 0.0
O151 O 0.2395 0.62743 0.48378 0.0
O152 O 0.25981 0.75243 0.56349 0.0
O153 O 0.31532 0.74563 0.54515 0.0
O154 O 0.64942 0.2008 0.75276 0.0
Cd155 Cd 0.67139 0.23518 0.70094 0.0
Cd156 Cd 0.58699 0.23077 0.71415 0.0
O157 O 0.58648 0.19629 0.76356 0.0
O158 O 0.72958 0.24131 0.69574 0.0
O159 O 0.71998 0.29691 0.70573 0.0
C160 C 0.74591 0.2819 0.70274 0.0
C161 C 0.55481 0.27356 0.7146 0.0
C162 C 0.61552 0.18774 0.77353 0.0
C163 C 0.60363 0.19369 0.63802 0.0
O164 O 0.57974 0.20228 0.65951 0.0
O165 O 0.64136 0.20394 0.64915 0.0
O166 O 0.53234 0.23231 0.71891 0.0
O167 O 0.59623 0.29124 0.71363 0.0
O168 O 0.46644 0.6409 0.91804 0.0
Cd169 Cd 0.44355 0.6575 0.86867 0.0
Cd170 Cd 0.37368 0.58789 0.89831 0.0
O171 O 0.40543 0.60482 0.95136 0.0
O172 O 0.49549 0.71239 0.85149 0.0
O173 O 0.43723 0.70989 0.87638 0.0
C174 C 0.47683 0.73256 0.86494 0.0
C175 C 0.30256 0.57057 0.88957 0.0
C176 C 0.44618 0.62337 0.94997 0.0
C177 C 0.41169 0.57718 0.8247 0.0
O178 O 0.3961 0.56011 0.85815 0.0
O179 O 0.42614 0.61736 0.8197 0.0
O180 O 0.31193 0.54411 0.90676 0.0
O181 O 0.3337 0.6081 0.87908 0.0
O182 O 0.86256 0.39761 0.00539 0.0
Cd183 Cd 0.82253 0.37076 0.05367 0.0
Cd184 Cd 0.81795 0.4478 0.0375 0.0
O185 O 0.8379 0.4392 -0.01725 0.0
O186 O 0.8181 0.31304 0.05893 0.0
O187 O 0.76335 0.32144 0.04116 0.0
C188 C 0.77909 0.29627 0.04622 0.0
C189 C 0.77401 0.47832 0.04436 0.0
C190 C 0.86016 0.42096 -0.02182 0.0
C191 C 0.86179 0.4412 0.11182 0.0
O192 O 0.86001 0.46491 0.0846 0.0
O193 O 0.84287 0.40045 0.10803 0.0
O194 O 0.81269 0.50042 0.03083 0.0
O195 O 0.75875 0.43763 0.05089 0.0
O196 O 0.48797 0.84802 0.1717 0.0
Cd197 Cd 0.46978 0.80876 0.22108 0.0
Cd198 Cd 0.3907 0.80399 0.19594 0.0
O199 O 0.42413 0.8232 0.14346 0.0
O200 O 0.52304 0.80667 0.23362 0.0
O201 O 0.46288 0.75006 0.21218 0.0
C202 C 0.50323 0.76741 0.22098 0.0
C203 C 0.31607 0.75949 0.19768 0.0
C204 C 0.46491 0.84533 0.14196 0.0
C205 C 0.43431 0.84985 0.27198 0.0
O206 O 0.41136 0.84744 0.24224 0.0
O207 O 0.4558 0.8305 0.27222 0.0
O208 O 0.33362 0.79781 0.18289 0.0
O209 O 0.34089 0.74477 0.20823 0.0
C210 C 0.2073 0.73213 0.24121 0.0
C211 C 0.18382 0.68692 0.23509 0.0
C212 C 0.2431 0.69207 0.19448 0.0
C213 C 0.26935 0.7355 0.20715 0.0
N214 N 0.27765 0.7952 0.24788 0.0
N215 N 0.17803 0.62304 0.20573 0.0
C216 C 0.25163 0.75547 0.23128 0.0
C217 C 0.20114 0.66672 0.21113 0.0
N218 N 0.1876 0.75256 0.25789 0.0
N219 N 0.25809 0.6754 0.16624 0.0
H220 H 0.14643 0.60432 0.21594 0.0
H221 H 0.19059 0.60531 0.19271 0.0
H222 H 0.28841 0.69349 0.15319 0.0
H223 H 0.23925 0.64518 0.15327 0.0
H224 H 0.20193 0.78605 0.25939 0.0
H225 H 0.15538 0.73635 0.26653 0.0
H226 H 0.26716 0.80862 0.26957 0.0
H227 H 0.31079 0.81318 0.24349 0.0
C228 C 0.56102 0.21596 0.37741 0.0
C229 C 0.52408 0.19826 0.40225 0.0
C230 C 0.52619 0.26765 0.40343 0.0
C231 C 0.56321 0.28564 0.37834 0.0
N232 N 0.60953 0.27463 0.33393 0.0
N233 N 0.46495 0.2032 0.43019 0.0
C234 C 0.57865 0.25899 0.36292 0.0
C235 C 0.5043 0.22273 0.41194 0.0
N236 N 0.58006 0.19205 0.36892 0.0
N237 N 0.51387 0.29379 0.42196 0.0
H238 H 0.44855 0.17059 0.4379 0.0
H239 H 0.44674 0.21819 0.43419 0.0
H240 H 0.52941 0.32711 0.41818 0.0
H241 H 0.49064 0.28311 0.4443 0.0
H242 H 0.60998 0.20462 0.35519 0.0
H243 H 0.56655 0.15975 0.37738 0.0
H244 H 0.6195 0.25573 0.31887 0.0
H245 H 0.62248 0.30575 0.32235 0.0
C246 C 0.32044 0.49898 0.59306 0.0
C247 C 0.36497 0.51682 0.58554 0.0
C248 C 0.36428 0.57262 0.54351 0.0
C249 C 0.32158 0.55883 0.55632 0.0
N250 N 0.2614 0.51268 0.59912 0.0
N251 N 0.43051 0.57137 0.5551 0.0
C252 C 0.29998 0.52261 0.58219 0.0
C253 C 0.38722 0.5537 0.56085 0.0
N254 N 0.29783 0.4597 0.61137 0.0
N255 N 0.38243 0.60294 0.51413 0.0
H256 H 0.44762 0.55702 0.56591 0.0
H257 H 0.44971 0.60113 0.54143 0.0
H258 H 0.36618 0.61677 0.50039 0.0
H259 H 0.41191 0.61154 0.50092 0.0
H260 H 0.26439 0.44294 0.61389 0.0
H261 H 0.312 0.44187 0.62059 0.0
H262 H 0.24698 0.49 0.62179 0.0
H263 H 0.24564 0.52993 0.59387 0.0
C264 C 0.85576 0.31897 0.74887 0.0
C265 C 0.87897 0.36244 0.73598 0.0
C266 C 0.81814 0.34971 0.69342 0.0
C267 C 0.79248 0.309 0.71214 0.0
N268 N 0.78557 0.25897 0.76421 0.0
N269 N 0.88289 0.42037 0.69665 0.0
C270 C 0.81103 0.29431 0.74119 0.0
C271 C 0.86048 0.37808 0.70805 0.0
N272 N 0.87619 0.30167 0.76971 0.0
N273 N 0.8024 0.36083 0.66131 0.0
H274 H 0.91466 0.44103 0.7055 0.0
H275 H 0.86947 0.43527 0.68008 0.0
H276 H 0.7719 0.34039 0.64949 0.0
H277 H 0.82088 0.38841 0.6443 0.0
H278 H 0.86167 0.26894 0.77664 0.0
H279 H 0.90894 0.31905 0.77639 0.0
H280 H 0.79719 0.24989 0.78857 0.0
H281 H 0.7521 0.24154 0.76235 0.0
C282 C 0.50564 0.85015 0.87466 0.0
C283 C 0.5432 0.86669 0.89849 0.0
C284 C 0.53991 0.79681 0.89663 0.0
C285 C 0.50209 0.77982 0.87272 0.0
N286 N 0.45508 0.79278 0.83114 0.0
N287 N 0.60312 0.8602 0.92193 0.0
C288 C 0.48692 0.80738 0.85914 0.0
C289 C 0.56293 0.84158 0.90545 0.0
N290 N 0.48705 0.87486 0.86833 0.0
N291 N 0.55184 0.76988 0.91417 0.0
H292 H 0.62053 0.89269 0.92983 0.0
H293 H 0.62091 0.84454 0.92395 0.0
H294 H 0.53518 0.7365 0.91078 0.0
H295 H 0.57584 0.7801 0.93574 0.0
H296 H 0.45687 0.86319 0.85539 0.0
H297 H 0.50149 0.90697 0.87768 0.0
H298 H 0.44501 0.81233 0.81751 0.0
H299 H 0.44132 0.76186 0.81893 0.0
C300 C 0.68253 0.5022 0.05989 0.0
C301 C 0.70294 0.53872 0.08524 0.0
C302 C 0.76959 0.53587 0.08334 0.0
C303 C 0.74998 0.50031 0.05654 0.0
N304 N 0.69097 0.45538 0.01286 0.0
N305 N 0.76819 0.59665 0.11332 0.0
C306 C 0.70731 0.48514 0.04285 0.0
C307 C 0.74734 0.55776 0.09409 0.0
N308 N 0.63927 0.48314 0.05312 0.0
N309 N 0.80806 0.54683 0.10108 0.0
H310 H 0.75274 0.61328 0.12251 0.0
H311 H 0.80151 0.61436 0.11674 0.0
H312 H 0.82515 0.53091 0.09575 0.0
H313 H 0.82107 0.56892 0.12437 0.0
H314 H 0.62139 0.45351 0.03883 0.0
H315 H 0.62078 0.49603 0.0638 0.0
H316 H 0.66162 0.44597 -0.00099 0.0
H317 H 0.70856 0.44289 -0.00068 0.0
C318 C 0.32664 0.87475 0.49725 0.0
C319 C 0.37121 0.8998 0.50559 0.0
C320 C 0.36468 0.84454 0.55296 0.0
C321 C 0.32242 0.81626 0.53866 0.0
N322 N 0.26508 0.80301 0.49254 0.0
N323 N 0.43336 0.90999 0.54168 0.0
C324 C 0.30347 0.83118 0.51018 0.0
C325 C 0.39031 0.88535 0.53406 0.0
N326 N 0.30675 0.89213 0.4757 0.0
N327 N 0.37997 0.83255 0.5848 0.0
H328 H 0.4521 0.9409 0.52975 0.0
H329 H 0.45066 0.8993 0.55834 0.0
H330 H 0.36162 0.80314 0.59948 0.0
H331 H 0.40909 0.85306 0.59881 0.0
H332 H 0.27347 0.87687 0.47212 0.0
H333 H 0.32293 0.92363 0.46483 0.0
H334 H 0.25271 0.81115 0.46811 0.0
H335 H 0.24733 0.77024 0.49922 0.0
C336 C 0.52928 0.36498 0.71176 0.0
C337 C 0.499 0.35078 0.68021 0.0
C338 C 0.50349 0.28524 0.67303 0.0
C339 C 0.53332 0.29876 0.70514 0.0
N340 N 0.56706 0.34641 0.76087 0.0
N341 N 0.4477 0.2921 0.63935 0.0
C342 C 0.54381 0.33709 0.72646 0.0
C343 C 0.48248 0.3088 0.66425 0.0
N344 N 0.54525 0.40576 0.72647 0.0
N345 N 0.4981 0.25244 0.64836 0.0
H346 H 0.43199 0.30882 0.63151 0.0
H347 H 0.4318 0.26005 0.62989 0.0
H348 H 0.51502 0.23598 0.6513 0.0
H349 H 0.48044 0.24472 0.62203 0.0
H350 H 0.57114 0.42023 0.74609 0.0
H351 H 0.53339 0.42576 0.7175 0.0
H352 H 0.57268 0.37192 0.77957 0.0
H353 H 0.57757 0.32626 0.77254 0.0
C354 C 0.1872 0.54816 0.87661 0.0
C355 C 0.17415 0.51926 0.84386 0.0
C356 C 0.24583 0.52783 0.83992 0.0
C357 C 0.25844 0.55435 0.87421 0.0
N358 N 0.24003 0.58546 0.92897 0.0
N359 N 0.18714 0.47206 0.80217 0.0
C360 C 0.22867 0.56309 0.89394 0.0
C361 C 0.20213 0.50565 0.82845 0.0
N362 N 0.16049 0.56224 0.89014 0.0
N363 N 0.27614 0.52619 0.81657 0.0
H364 H 0.15501 0.45463 0.79334 0.0
H365 H 0.20551 0.45864 0.7926 0.0
H366 H 0.30902 0.54484 0.82235 0.0
H367 H 0.26914 0.51071 0.78902 0.0
H368 H 0.16969 0.58687 0.91098 0.0
H369 H 0.12938 0.55017 0.87901 0.0
H370 H 0.21857 0.58961 0.94668 0.0
H371 H 0.27055 0.59761 0.94151 0.0
C372 C 0.68597 0.18186 0.03026 0.0
C373 C 0.70391 0.16663 0.00126 0.0
C374 C 0.7724 0.23481 0.0044 0.0
C375 C 0.75465 0.25025 0.03366 0.0
N376 N 0.69855 0.23515 0.08119 0.0
N377 N 0.76658 0.17357 0.96811 0.0
C378 C 0.71259 0.22266 0.04873 0.0
C379 C 0.74808 0.19136 -0.00885 0.0
N380 N 0.64309 0.15787 0.03906 0.0
N381 N 0.81099 0.2624 -0.01325 0.0
H382 H 0.74944 0.1423 0.95675 0.0
H383 H 0.79965 0.18822 0.96337 0.0
H384 H 0.82988 0.29483 -0.00569 0.0
H385 H 0.82269 0.25428 0.96181 0.0
H386 H 0.62667 0.16929 0.05612 0.0
H387 H 0.62341 0.12692 0.02761 0.0
H388 H 0.66976 0.21503 0.0959 0.0
H389 H 0.71762 0.2645 0.09571 0.0
C390 C 0.52976 0.67763 0.20925 0.0
C391 C 0.56444 0.69709 0.18188 0.0
C392 C 0.56302 0.76456 0.18472 0.0
C393 C 0.52751 0.745 0.21151 0.0
N394 N 0.48431 0.68721 0.25702 0.0
N395 N 0.62276 0.7622 0.15394 0.0
C396 C 0.51327 0.70284 0.2264 0.0
C397 C 0.58432 0.74181 0.17369 0.0
N398 N 0.51152 0.63456 0.21724 0.0
N399 N 0.57406 0.80306 0.16671 0.0
H400 H 0.63884 0.74631 0.14457 0.0
H401 H 0.64085 0.7956 0.1506 0.0
H402 H 0.5586 0.82059 0.17199 0.0
H403 H 0.59592 0.81577 0.14325 0.0
H404 H 0.48291 0.61687 0.23301 0.0
H405 H 0.52465 0.61624 0.20656 0.0
H406 H 0.47518 0.65811 0.27142 0.0
H407 H 0.47223 0.7053 0.27034 0.0
C408 C 0.87488 0.50952 0.3786 0.0
C409 C 0.89071 0.54049 0.34742 0.0
C410 C 0.82188 0.53861 0.34426 0.0
C411 C 0.80664 0.50982 0.377 0.0
N412 N 0.81994 0.47202 0.42929 0.0
N413 N 0.88331 0.59283 0.308 0.0
C414 C 0.83363 0.49657 0.39555 0.0
C415 C 0.86563 0.55806 0.33306 0.0
N416 N 0.89876 0.49169 0.39099 0.0
N417 N 0.79373 0.54487 0.32183 0.0
H418 H 0.9153 0.60799 0.29873 0.0
H419 H 0.86746 0.6093 0.2997 0.0
H420 H 0.76072 0.52838 0.32729 0.0
H421 H 0.80221 0.56201 0.29514 0.0
H422 H 0.88728 0.46553 0.41039 0.0
H423 H 0.92979 0.50221 0.38031 0.0
H424 H 0.8395 0.4645 0.44636 0.0
H425 H 0.78959 0.46148 0.44166 0.0
C426 C 0.14191 0.59962 0.39164 0.0
C427 C 0.15054 0.63821 0.37209 0.0
C428 C 0.20621 0.68126 0.42087 0.0
C429 C 0.19534 0.64307 0.44235 0.0
N430 N 0.14787 0.56661 0.45253 0.0
N431 N 0.18338 0.71589 0.37276 0.0
C432 C 0.16178 0.60232 0.42898 0.0
C433 C 0.18031 0.67911 0.38827 0.0
N434 N 0.11579 0.56059 0.37403 0.0
N435 N 0.24254 0.71922 0.43034 0.0
H436 H 0.16449 0.71562 0.34904 0.0
H437 H 0.2015 0.74617 0.3859 0.0
H438 H 0.26337 0.72187 0.45322 0.0
H439 H 0.25439 0.74703 0.41302 0.0
H440 H 0.11215 0.5316 0.38462 0.0
H441 H 0.09991 0.55752 0.34716 0.0
H442 H 0.12064 0.53701 0.4462 0.0
H443 H 0.16139 0.56738 0.48022 0.0
C444 C 0.51923 0.12783 0.56237 0.0
C445 C 0.54353 0.13681 0.52672 0.0
C446 C 0.60981 0.18126 0.56422 0.0
C447 C 0.58552 0.17001 0.60014 0.0
N448 N 0.51996 0.11794 0.63329 0.0
N449 N 0.61265 0.15958 0.4965 0.0
C450 C 0.54116 0.13826 0.59918 0.0
C451 C 0.58915 0.1591 0.52868 0.0
N452 N 0.47591 0.11266 0.56159 0.0
N453 N 0.6512 0.21493 0.56282 0.0
H454 H 0.59821 0.14282 0.47032 0.0
H455 H 0.64592 0.17258 0.49753 0.0
H456 H 0.66727 0.23435 0.58714 0.0
H457 H 0.66813 0.22647 0.53621 0.0
H458 H 0.45826 0.1096 0.58728 0.0
H459 H 0.45845 0.10791 0.53549 0.0
H460 H 0.48823 0.09243 0.63325 0.0
H461 H 0.53569 0.12291 0.66057 0.0
C462 C 0.38295 0.49153 0.74415 0.0
C463 C 0.41908 0.51471 0.7189 0.0
C464 C 0.45496 0.56963 0.7703 0.0
C465 C 0.41574 0.55134 0.79204 0.0
N466 N 0.34255 0.49226 0.80129 0.0
N467 N 0.48993 0.57516 0.70703 0.0
C468 C 0.38007 0.511 0.78001 0.0
C469 C 0.45546 0.55337 0.7319 0.0
N470 N 0.35115 0.45097 0.73364 0.0
N471 N 0.49203 0.60148 0.78715 0.0
H472 H 0.49219 0.56288 0.67951 0.0
H473 H 0.51514 0.60626 0.71272 0.0
H474 H 0.49313 0.61236 0.8162 0.0
H475 H 0.52232 0.61365 0.77427 0.0
H476 H 0.32679 0.4301 0.75285 0.0
H477 H 0.35069 0.43644 0.70662 0.0
H478 H 0.31351 0.46737 0.79039 0.0
H479 H 0.33928 0.50201 0.82952 0.0
C480 C 0.93054 0.46427 0.88563 0.0
C481 C 0.92107 0.42479 0.86735 0.0
C482 C 0.86829 0.3841 0.91899 0.0
C483 C 0.88041 0.42315 0.93943 0.0
N484 N 0.92769 0.50011 0.94593 0.0
N485 N 0.88935 0.34733 0.87174 0.0
C486 C 0.91285 0.4633 0.92381 0.0
C487 C 0.89261 0.38475 0.88571 0.0
N488 N 0.95539 0.50238 0.86609 0.0
N489 N 0.83217 0.3467 0.93006 0.0
H490 H 0.90755 0.34656 0.84787 0.0
H491 H 0.87207 0.31783 0.88643 0.0
H492 H 0.81223 0.34511 0.95339 0.0
H493 H 0.8195 0.31831 0.91348 0.0
H494 H 0.95956 0.53184 0.87591 0.0
H495 H 0.96959 0.50411 0.83853 0.0
H496 H 0.95427 0.52951 0.93784 0.0
H497 H 0.91557 0.50053 -0.02595 0.0
C498 C 0.49906 0.91765 0.05057 0.0
C499 C 0.52873 0.90713 0.0335 0.0
C500 C 0.51371 0.85392 0.08572 0.0
C501 C 0.48636 0.8665 0.10449 0.0
N502 N 0.45846 0.91526 0.10919 0.0
N503 N 0.57184 0.87291 0.03911 0.0
C504 C 0.4805 0.8998 0.08818 0.0
C505 C 0.53848 0.8777 0.05253 0.0
N506 N 0.48774 0.94358 0.03031 0.0
N507 N 0.51432 0.81786 0.09827 0.0
H508 H 0.58311 0.85516 0.05429 0.0
H509 H 0.59103 0.89004 0.01488 0.0
H510 H 0.49555 0.79862 0.12183 0.0
H511 H 0.53017 0.80459 0.08296 0.0
H512 H 0.46268 0.94848 0.03905 0.0
H513 H 0.50164 0.95805 0.00317 0.0
H514 H 0.45691 0.94244 0.10074 0.0
H515 H 0.44458 0.90307 0.13694 0.0
C516 C 0.68156 0.56834 0.24144 0.0
C517 C 0.64565 0.54364 0.21636 0.0
C518 C 0.60912 0.49217 0.27025 0.0
C519 C 0.64814 0.51163 0.29231 0.0
N520 N 0.72097 0.57173 0.30077 0.0
N521 N 0.57476 0.48269 0.20597 0.0
C522 C 0.6839 0.55128 0.27896 0.0
C523 C 0.60904 0.50596 0.23066 0.0
N524 N 0.71357 0.60812 0.22924 0.0
N525 N 0.57184 0.46161 0.28787 0.0
H526 H 0.57287 0.49311 0.17741 0.0
H527 H 0.54936 0.45208 0.21296 0.0
H528 H 0.57048 0.45274 0.31768 0.0
H529 H 0.54166 0.44872 0.27459 0.0
H530 H 0.73775 0.63022 0.24788 0.0
H531 H 0.71448 0.6208 0.2011 0.0
H532 H 0.75026 0.59568 0.28935 0.0
H533 H 0.72347 0.56474 0.33027 0.0
C534 C 0.39234 0.88982 0.3549 0.0
C535 C 0.43125 0.9223 0.3722 0.0
C536 C 0.47276 0.90987 0.32147 0.0
C537 C 0.43398 0.87404 0.30734 0.0
N538 N 0.358 0.8241 0.31628 0.0
N539 N 0.50874 0.96018 0.37564 0.0
C540 C 0.39402 0.8624 0.32558 0.0
C541 C 0.47164 0.93158 0.35651 0.0
N542 N 0.35378 0.88575 0.36596 0.0
N543 N 0.51022 0.92419 0.30063 0.0
H544 H 0.50901 0.97724 0.40093 0.0
H545 H 0.53887 0.96468 0.36815 0.0
H546 H 0.51225 0.90944 0.27458 0.0
H547 H 0.53846 0.9528 0.30724 0.0
H548 H 0.32492 0.8654 0.35143 0.0
H549 H 0.35118 0.9058 0.38696 0.0
H550 H 0.32902 0.81204 0.33169 0.0
H551 H 0.35817 0.80215 0.29594 0.0
C552 C 0.57469 0.47206 0.54452 0.0
C553 C 0.54302 0.42984 0.55623 0.0
C554 C 0.56743 0.39859 0.50506 0.0
C555 C 0.59605 0.44058 0.49056 0.0
N556 N 0.62332 0.51741 0.49253 0.0
N557 N 0.50257 0.35329 0.54222 0.0
C558 C 0.59888 0.47751 0.50925 0.0
C559 C 0.53735 0.39319 0.5348 0.0
N560 N 0.58225 0.50664 0.56754 0.0
N561 N 0.57021 0.364 0.49158 0.0
H562 H 0.47907 0.34797 0.56331 0.0
H563 H 0.49471 0.32632 0.52468 0.0
H564 H 0.59285 0.36681 0.47051 0.0
H565 H 0.55308 0.33333 0.5042 0.0
H566 H 0.60802 0.5377 0.56293 0.0
H567 H 0.56434 0.50369 0.59303 0.0
H568 H 0.62305 0.54485 0.50242 0.0
H569 H 0.64154 0.52259 0.46677 0.0
C570 C 0.13315 0.5828 0.69778 0.0
C571 C 0.14186 0.55153 0.71419 0.0
C572 C 0.20171 0.57297 0.66808 0.0
C573 C 0.19052 0.60114 0.64882 0.0
N574 N 0.14149 0.62836 0.64107 0.0
N575 N 0.17688 0.50911 0.70839 0.0
C576 C 0.15512 0.60501 0.6625 0.0
C577 C 0.17378 0.54417 0.69721 0.0
N578 N 0.10466 0.59179 0.71629 0.0
N579 N 0.24001 0.57502 0.65984 0.0
H580 H 0.15585 0.48626 0.72874 0.0
H581 H 0.1971 0.50019 0.69425 0.0
H582 H 0.26242 0.5971 0.63975 0.0
H583 H 0.25153 0.55806 0.676 0.0
H584 H 0.10042 0.61751 0.70825 0.0
H585 H 0.08718 0.57503 0.74145 0.0
H586 H 0.11324 0.62867 0.64739 0.0
H587 H 0.15661 0.64481 0.615 0.0
C588 C 0.59618 0.14167 0.87913 0.0
C589 C 0.61994 0.11981 0.87666 0.0
C590 C 0.62351 0.12916 0.80463 0.0
C591 C 0.6099 0.15996 0.80844 0.0
N592 N 0.58708 0.19897 0.85178 0.0
N593 N 0.66414 0.10082 0.83622 0.0
C594 C 0.5965 0.1668 0.84624 0.0
C595 C 0.6354 0.11516 0.83913 0.0
N596 N 0.57368 0.13867 0.91293 0.0
N597 N 0.62515 0.1133 0.76808 0.0
H598 H 0.67717 0.09364 0.86074 0.0
H599 H 0.67888 0.10093 0.80942 0.0
H600 H 0.61455 0.1213 0.74223 0.0
H601 H 0.632 0.08842 0.76442 0.0
H602 H 0.55302 0.15114 0.91505 0.0
H603 H 0.57226 0.11977 0.9372 0.0
H604 H 0.58162 0.20775 0.87983 0.0
H605 H 0.58861 0.21963 0.82923 0.0
C606 C 0.53055 0.67068 0.0304 0.0
C607 C 0.52418 0.63278 0.04998 0.0
C608 C 0.46746 0.58794 0.00258 0.0
C609 C 0.47103 0.62598 -0.01427 0.0
N610 N 0.4994 0.70294 -0.01132 0.0
N611 N 0.48349 0.55559 0.05866 0.0
C612 C 0.50079 0.66724 0.00103 0.0
C613 C 0.49175 0.59138 0.03719 0.0
N614 N 0.56563 0.70988 0.03931 0.0
N615 N 0.44223 0.54885 -0.01533 0.0
H616 H 0.50142 0.55697 0.08364 0.0
H617 H 0.45711 0.52506 0.05343 0.0
H618 H 0.42396 0.54504 0.95926 0.0
H619 H 0.44199 0.52073 -0.00692 0.0
H620 H 0.5742 0.73786 0.02309 0.0
H621 H 0.58858 0.71378 0.06046 0.0
H622 H 0.51734 0.7332 0.00188 0.0
H623 H 0.47723 0.70154 0.9678 0.0
C624 C 0.89422 0.5153 0.20036 0.0
C625 C 0.92632 0.50877 0.21816 0.0
C626 C 0.91831 0.45894 0.1645 0.0
C627 C 0.88275 0.46184 0.14972 0.0
N628 N 0.83009 0.48406 0.15998 0.0
N629 N 0.96603 0.47098 0.22038 0.0
C630 C 0.86874 0.48753 0.16949 0.0
C631 C 0.93765 0.47959 0.20115 0.0
N632 N 0.88877 0.54878 0.21228 0.0
N633 N 0.93457 0.438 0.1429 0.0
H634 H 0.9814 0.4864 0.24676 0.0
H635 H 0.97208 0.4466 0.21167 0.0
H636 H 0.92135 0.42271 0.11589 0.0
H637 H 0.9631 0.43867 0.15015 0.0
H638 H 0.86846 0.55723 0.19765 0.0
H639 H 0.90801 0.57101 0.2339 0.0
H640 H 0.81653 0.49904 0.17631 0.0
H641 H 0.8094 0.46263 0.13852 0.0
loop_
_geom_bond_atom_site_label_1
_geom_bond_atom_site_label_2
_geom_bond_distance
_geom_bond_site_symmetry_2
_ccdc_geom_bond_type
H0 C8 0.930 . S
H1 C11 0.930 . S
H2 C13 0.930 . S
H3 C14 0.970 . S
H4 C14 0.970 . S
H5 C16 0.930 . S
H6 C18 0.930 . S
H7 C20 0.930 . S
C8 H0 0.930 . S
C8 C9 1.382 . S
C8 C10 1.426 . S
C9 C8 1.382 . S
C9 C13 1.389 . S
C10 C8 1.426 . S
C10 C11 1.375 . S
C10 C14 1.532 1_655 S
C11 H1 0.930 . S
C11 C10 1.375 . S
C11 C12 1.416 . S
C12 C11 1.416 . S
C12 C13 1.371 . S
C13 H2 0.930 . S
C13 C9 1.389 . S
C13 C12 1.371 . S
C14 H3 0.970 . S
C14 H4 0.970 . S
C14 C10 1.532 1_455 S
C14 C15 1.499 . S
C15 C14 1.499 . S
C15 C16 1.370 . S
C15 C20 1.415 . S
C16 H5 0.930 . S
C16 C15 1.370 . S
C16 C17 1.407 . S
C17 C16 1.407 . S
C17 C18 1.365 . S
C18 H6 0.930 . S
C18 C17 1.365 . S
C18 C19 1.393 . S
C19 C18 1.393 . S
C19 C20 1.387 . S
C20 H7 0.930 . S
C20 C15 1.415 . S
C20 C19 1.387 . S
H21 C29 0.930 . S
H22 C32 0.930 . S
H23 C34 0.930 . S
H24 C35 0.970 . S
H25 C35 0.970 . S
H26 C37 0.930 . S
H27 C39 0.930 . S
H28 C41 0.930 . S
C29 H21 0.930 . S
C29 C30 1.382 . S
C29 C31 1.426 . S
C30 C29 1.382 . S
C30 C34 1.389 . S
C31 C29 1.426 . S
C31 C32 1.375 . S
C31 C35 1.532 1_565 S
C32 H22 0.930 . S
C32 C31 1.375 . S
C32 C33 1.416 . S
C33 C32 1.416 . S
C33 C34 1.371 . S
C34 H23 0.930 . S
C34 C30 1.389 . S
C34 C33 1.371 . S
C35 H24 0.970 . S
C35 H25 0.970 . S
C35 C31 1.532 1_545 S
C35 C36 1.499 . S
C36 C35 1.499 . S
C36 C37 1.370 . S
C36 C41 1.415 . S
C37 H26 0.930 . S
C37 C36 1.370 . S
C37 C38 1.407 . S
C38 C37 1.407 . S
C38 C39 1.365 . S
C39 H27 0.930 . S
C39 C38 1.365 . S
C39 C40 1.393 . S
C40 C39 1.393 . S
C40 C41 1.387 . S
C41 H28 0.930 . S
C41 C36 1.415 . S
C41 C40 1.387 . S
H42 C50 0.930 . S
H43 C53 0.930 . S
H44 C55 0.930 . S
H45 C56 0.970 . S
H46 C56 0.970 . S
H47 C58 0.930 . S
H48 C60 0.930 . S
H49 C62 0.930 . S
C50 H42 0.930 . S
C50 C51 1.382 . S
C50 C52 1.426 . S
C51 C50 1.382 . S
C51 C55 1.389 . S
C52 C50 1.426 . S
C52 C53 1.375 . S
C52 C56 1.532 . S
C53 H43 0.930 . S
C53 C52 1.375 . S
C53 C54 1.416 . S
C54 C53 1.416 . S
C54 C55 1.371 . S
C55 H44 0.930 . S
C55 C51 1.389 . S
C55 C54 1.371 . S
C56 H45 0.970 . S
C56 H46 0.970 . S
C56 C52 1.532 . S
C56 C57 1.499 . S
C57 C56 1.499 . S
C57 C58 1.370 . S
C57 C62 1.415 . S
C58 H47 0.930 . S
C58 C57 1.370 . S
C58 C59 1.407 . S
C59 C58 1.407 . S
C59 C60 1.365 . S
C60 H48 0.930 . S
C60 C59 1.365 . S
C60 C61 1.393 . S
C61 C60 1.393 . S
C61 C62 1.387 . S
C62 H49 0.930 . S
C62 C57 1.415 . S
C62 C61 1.387 . S
H63 C71 0.930 . S
H64 C74 0.930 . S
H65 C76 0.930 . S
H66 C77 0.970 . S
H67 C77 0.970 . S
H68 C79 0.930 . S
H69 C81 0.930 . S
H70 C83 0.930 . S
C71 H63 0.930 . S
C71 C72 1.382 . S
C71 C73 1.426 . S
C72 C71 1.382 . S
C72 C76 1.389 . S
C73 C71 1.426 . S
C73 C74 1.375 . S
C73 C77 1.532 1_655 S
C74 H64 0.930 . S
C74 C73 1.375 . S
C74 C75 1.416 . S
C75 C74 1.416 . S
C75 C76 1.371 . S
C76 H65 0.930 . S
C76 C72 1.389 . S
C76 C75 1.371 . S
C77 H66 0.970 . S
C77 H67 0.970 . S
C77 C73 1.532 1_455 S
C77 C78 1.499 . S
C78 C77 1.499 . S
C78 C79 1.370 . S
C78 C83 1.415 . S
C79 H68 0.930 . S
C79 C78 1.370 . S
C79 C80 1.407 . S
C80 C79 1.407 . S
C80 C81 1.365 . S
C81 H69 0.930 . S
C81 C80 1.365 . S
C81 C82 1.393 . S
C82 C81 1.393 . S
C82 C83 1.387 . S
C83 H70 0.930 . S
C83 C78 1.415 . S
C83 C82 1.387 . S
H84 C92 0.930 . S
H85 C95 0.930 . S
H86 C97 0.930 . S
H87 C98 0.970 1_554 S
H88 C98 0.970 . S
H89 C100 0.930 . S
H90 C102 0.930 . S
H91 C104 0.930 . S
C92 H84 0.930 . S
C92 C93 1.382 . S
C92 C94 1.426 1_554 S
C93 C92 1.382 . S
C93 C97 1.389 1_554 S
C94 C92 1.426 1_556 S
C94 C95 1.375 . S
C94 C98 1.532 . S
C95 H85 0.930 . S
C95 C94 1.375 . S
C95 C96 1.416 . S
C96 C95 1.416 . S
C96 C97 1.371 . S
C97 H86 0.930 . S
C97 C93 1.389 1_556 S
C97 C96 1.371 . S
C98 H87 0.970 1_556 S
C98 H88 0.970 . S
C98 C94 1.532 . S
C98 C99 1.499 1_546 S
C99 C98 1.499 1_564 S
C99 C100 1.370 . S
C99 C104 1.415 1_554 S
C100 H89 0.930 . S
C100 C99 1.370 . S
C100 C101 1.407 . S
C101 C100 1.407 . S
C101 C102 1.365 . S
C102 H90 0.930 . S
C102 C101 1.365 . S
C102 C103 1.393 1_554 S
C103 C102 1.393 1_556 S
C103 C104 1.387 . S
C104 H91 0.930 . S
C104 C99 1.415 1_556 S
C104 C103 1.387 . S
H105 C113 0.930 . S
H106 C116 0.930 . S
H107 C118 0.930 . S
H108 C119 0.970 . S
H109 C119 0.970 . S
H110 C121 0.930 . S
H111 C123 0.930 . S
H112 C125 0.930 . S
C113 H105 0.930 . S
C113 C114 1.382 . S
C113 C115 1.426 . S
C114 C113 1.382 . S
C114 C118 1.389 . S
C115 C113 1.426 . S
C115 C116 1.375 . S
C115 C119 1.532 . S
C116 H106 0.930 . S
C116 C115 1.375 . S
C116 C117 1.416 . S
C117 C116 1.416 . S
C117 C118 1.371 . S
C118 H107 0.930 . S
C118 C114 1.389 . S
C118 C117 1.371 . S
C119 H108 0.970 . S
C119 H109 0.970 . S
C119 C115 1.532 . S
C119 C120 1.499 . S
C120 C119 1.499 . S
C120 C121 1.370 . S
C120 C125 1.415 . S
C121 H110 0.930 . S
C121 C120 1.370 . S
C121 C122 1.407 . S
C122 C121 1.407 . S
C122 C123 1.365 . S
C123 H111 0.930 . S
C123 C122 1.365 . S
C123 C124 1.393 . S
C124 C123 1.393 . S
C124 C125 1.387 . S
C125 H112 0.930 . S
C125 C120 1.415 . S
C125 C124 1.387 . S
O126 Cd127 2.223 . S
O126 C134 1.315 . S
Cd127 O126 2.223 . S
Cd127 O130 2.297 . S
Cd127 O131 2.439 . S
Cd127 O137 2.240 . S
Cd128 O129 2.240 . S
Cd128 O136 2.223 . S
Cd128 O138 2.297 . S
Cd128 O139 2.439 . S
O129 Cd128 2.240 . S
O129 C134 1.279 . S
O130 Cd127 2.297 . S
O130 C132 1.247 . S
O131 Cd127 2.439 . S
O131 C132 1.208 . S
C132 O130 1.247 . S
C132 O131 1.208 . S
C133 O138 1.247 . S
C133 O139 1.208 . S
C134 O126 1.315 . S
C134 O129 1.279 . S
C135 O136 1.315 . S
C135 O137 1.279 . S
O136 Cd128 2.223 . S
O136 C135 1.315 . S
O137 Cd127 2.240 . S
O137 C135 1.279 . S
O138 Cd128 2.297 . S
O138 C133 1.247 . S
O139 Cd128 2.439 . S
O139 C133 1.208 . S
O140 Cd141 2.223 . S
O140 C148 1.315 . S
Cd141 O140 2.223 . S
Cd141 O144 2.297 . S
Cd141 O145 2.439 . S
Cd141 O151 2.240 . S
Cd142 O143 2.240 . S
Cd142 O150 2.223 . S
Cd142 O152 2.297 . S
Cd142 O153 2.439 . S
O143 Cd142 2.240 . S
O143 C148 1.279 . S
O144 Cd141 2.297 . S
O144 C146 1.247 . S
O145 Cd141 2.439 . S
O145 C146 1.208 . S
C146 O144 1.247 . S
C146 O145 1.208 . S
C147 O152 1.247 . S
C147 O153 1.208 . S
C148 O140 1.315 . S
C148 O143 1.279 . S
C149 O150 1.315 . S
C149 O151 1.279 . S
O150 Cd142 2.223 . S
O150 C149 1.315 . S
O151 Cd141 2.240 . S
O151 C149 1.279 . S
O152 Cd142 2.297 . S
O152 C147 1.247 . S
O153 Cd142 2.439 . S
O153 C147 1.208 . S
O154 Cd155 2.223 . S
O154 C162 1.315 . S
Cd155 O154 2.223 . S
Cd155 O158 2.297 . S
Cd155 O159 2.439 . S
Cd155 O165 2.240 . S
Cd156 O157 2.240 . S
Cd156 O164 2.223 . S
Cd156 O166 2.297 . S
Cd156 O167 2.439 . S
O157 Cd156 2.240 . S
O157 C162 1.279 . S
O158 Cd155 2.297 . S
O158 C160 1.247 . S
O159 Cd155 2.439 . S
O159 C160 1.208 . S
C160 O158 1.247 . S
C160 O159 1.208 . S
C161 O166 1.247 . S
C161 O167 1.208 . S
C162 O154 1.315 . S
C162 O157 1.279 . S
C163 O164 1.315 . S
C163 O165 1.279 . S
O164 Cd156 2.223 . S
O164 C163 1.315 . S
O165 Cd155 2.240 . S
O165 C163 1.279 . S
O166 Cd156 2.297 . S
O166 C161 1.247 . S
O167 Cd156 2.439 . S
O167 C161 1.208 . S
O168 Cd169 2.223 . S
O168 C176 1.315 . S
Cd169 O168 2.223 . S
Cd169 O172 2.297 . S
Cd169 O173 2.439 . S
Cd169 O179 2.240 . S
Cd170 O171 2.240 . S
Cd170 O178 2.223 . S
Cd170 O180 2.297 . S
Cd170 O181 2.439 . S
O171 Cd170 2.240 . S
O171 C176 1.279 . S
O172 Cd169 2.297 . S
O172 C174 1.247 . S
O173 Cd169 2.439 . S
O173 C174 1.208 . S
C174 O172 1.247 . S
C174 O173 1.208 . S
C175 O180 1.247 . S
C175 O181 1.208 . S
C176 O168 1.315 . S
C176 O171 1.279 . S
C177 O178 1.315 . S
C177 O179 1.279 . S
O178 Cd170 2.223 . S
O178 C177 1.315 . S
O179 Cd169 2.240 . S
O179 C177 1.279 . S
O180 Cd170 2.297 . S
O180 C175 1.247 . S
O181 Cd170 2.439 . S
O181 C175 1.208 . S
O182 Cd183 2.223 . S
O182 C190 1.315 . S
Cd183 O182 2.223 . S
Cd183 O186 2.297 . S
Cd183 O187 2.439 . S
Cd183 O193 2.240 . S
Cd184 O185 2.240 . S
Cd184 O192 2.223 . S
Cd184 O194 2.297 . S
Cd184 O195 2.439 . S
O185 Cd184 2.240 . S
O185 C190 1.279 . S
O186 Cd183 2.297 . S
O186 C188 1.247 . S
O187 Cd183 2.439 . S
O187 C188 1.208 . S
C188 O186 1.247 . S
C188 O187 1.208 . S
C189 O194 1.247 . S
C189 O195 1.208 . S
C190 O182 1.315 . S
C190 O185 1.279 . S
C191 O192 1.315 . S
C191 O193 1.279 . S
O192 Cd184 2.223 . S
O192 C191 1.315 . S
O193 Cd183 2.240 . S
O193 C191 1.279 . S
O194 Cd184 2.297 . S
O194 C189 1.247 . S
O195 Cd184 2.439 . S
O195 C189 1.208 . S
O196 Cd197 2.223 . S
O196 C204 1.315 . S
Cd197 O196 2.223 . S
Cd197 O200 2.297 . S
Cd197 O201 2.439 . S
Cd197 O207 2.240 . S
Cd198 O199 2.240 . S
Cd198 O206 2.223 . S
Cd198 O208 2.297 . S
Cd198 O209 2.439 . S
O199 Cd198 2.240 . S
O199 C204 1.279 . S
O200 Cd197 2.297 . S
O200 C202 1.247 . S
O201 Cd197 2.439 . S
O201 C202 1.208 . S
C202 O200 1.247 . S
C202 O201 1.208 . S
C203 O208 1.247 . S
C203 O209 1.208 . S
C204 O196 1.315 . S
C204 O199 1.279 . S
C205 O206 1.315 . S
C205 O207 1.279 . S
O206 Cd198 2.223 . S
O206 C205 1.315 . S
O207 Cd197 2.240 . S
O207 C205 1.279 . S
O208 Cd198 2.297 . S
O208 C203 1.247 . S
O209 Cd198 2.439 . S
O209 C203 1.208 . S
C210 C211 1.363 . S
C210 C216 1.379 . S
C210 N218 1.356 . S
C211 C210 1.363 . S
C211 C217 1.363 . S
C212 C213 1.363 . S
C212 C217 1.379 . S
C212 N219 1.356 . S
C213 C212 1.363 . S
C213 C216 1.363 . S
N214 C216 1.356 . S
N214 H226 0.984 . S
N214 H227 0.985 . S
N215 C217 1.356 . S
N215 H220 0.984 . S
N215 H221 0.985 . S
C216 C210 1.379 . S
C216 C213 1.363 . S
C216 N214 1.356 . S
C217 C211 1.363 . S
C217 C212 1.379 . S
C217 N215 1.356 . S
N218 C210 1.356 . S
N218 H224 0.984 . S
N218 H225 0.984 . S
N219 C212 1.356 . S
N219 H222 0.984 . S
N219 H223 0.985 . S
H220 N215 0.984 . S
H221 N215 0.985 . S
H222 N219 0.984 . S
H223 N219 0.985 . S
H224 N218 0.984 . S
H225 N218 0.984 . S
H226 N214 0.984 . S
H227 N214 0.985 . S
C228 C229 1.363 . S
C228 C234 1.379 . S
C228 N236 1.356 . S
C229 C228 1.363 . S
C229 C235 1.363 . S
C230 C231 1.363 . S
C230 C235 1.379 . S
C230 N237 1.356 . S
C231 C230 1.363 . S
C231 C234 1.363 . S
N232 C234 1.356 . S
N232 H244 0.984 . S
N232 H245 0.985 . S
N233 C235 1.356 . S
N233 H238 0.984 . S
N233 H239 0.985 . S
C234 C228 1.379 . S
C234 C231 1.363 . S
C234 N232 1.356 . S
C235 C229 1.363 . S
C235 C230 1.379 . S
C235 N233 1.356 . S
N236 C228 1.356 . S
N236 H242 0.984 . S
N236 H243 0.984 . S
N237 C230 1.356 . S
N237 H240 0.984 . S
N237 H241 0.985 . S
H238 N233 0.984 . S
H239 N233 0.985 . S
H240 N237 0.984 . S
H241 N237 0.985 . S
H242 N236 0.984 . S
H243 N236 0.984 . S
H244 N232 0.984 . S
H245 N232 0.985 . S
C246 C247 1.363 . S
C246 C252 1.379 . S
C246 N254 1.356 . S
C247 C246 1.363 . S
C247 C253 1.363 . S
C248 C249 1.363 . S
C248 C253 1.379 . S
C248 N255 1.356 . S
C249 C248 1.363 . S
C249 C252 1.363 . S
N250 C252 1.356 . S
N250 H262 0.984 . S
N250 H263 0.985 . S
N251 C253 1.356 . S
N251 H256 0.984 . S
N251 H257 0.985 . S
C252 C246 1.379 . S
C252 C249 1.363 . S
C252 N250 1.356 . S
C253 C247 1.363 . S
C253 C248 1.379 . S
C253 N251 1.356 . S
N254 C246 1.356 . S
N254 H260 0.984 . S
N254 H261 0.984 . S
N255 C248 1.356 . S
N255 H258 0.984 . S
N255 H259 0.985 . S
H256 N251 0.984 . S
H257 N251 0.985 . S
H258 N255 0.984 . S
H259 N255 0.985 . S
H260 N254 0.984 . S
H261 N254 0.984 . S
H262 N250 0.984 . S
H263 N250 0.985 . S
C264 C265 1.363 . S
C264 C270 1.379 . S
C264 N272 1.356 . S
C265 C264 1.363 . S
C265 C271 1.363 . S
C266 C267 1.363 . S
C266 C271 1.379 . S
C266 N273 1.356 . S
C267 C266 1.363 . S
C267 C270 1.363 . S
N268 C270 1.356 . S
N268 H280 0.984 . S
N268 H281 0.985 . S
N269 C271 1.356 . S
N269 H274 0.984 . S
N269 H275 0.985 . S
C270 C264 1.379 . S
C270 C267 1.363 . S
C270 N268 1.356 . S
C271 C265 1.363 . S
C271 C266 1.379 . S
C271 N269 1.356 . S
N272 C264 1.356 . S
N272 H278 0.984 . S
N272 H279 0.984 . S
N273 C266 1.356 . S
N273 H276 0.984 . S
N273 H277 0.985 . S
H274 N269 0.984 . S
H275 N269 0.985 . S
H276 N273 0.984 . S
H277 N273 0.985 . S
H278 N272 0.984 . S
H279 N272 0.984 . S
H280 N268 0.984 . S
H281 N268 0.985 . S
C282 C283 1.363 . S
C282 C288 1.379 . S
C282 N290 1.356 . S
C283 C282 1.363 . S
C283 C289 1.363 . S
C284 C285 1.363 . S
C284 C289 1.379 . S
C284 N291 1.356 1_556 S
C285 C284 1.363 . S
C285 C288 1.363 . S
N286 C288 1.356 . S
N286 H298 0.984 . S
N286 H299 0.985 . S
N287 C289 1.356 1_554 S
N287 H292 0.984 . S
N287 H293 0.985 . S
C288 C282 1.379 . S
C288 C285 1.363 . S
C288 N286 1.356 . S
C289 C283 1.363 . S
C289 C284 1.379 . S
C289 N287 1.356 1_556 S
N290 C282 1.356 . S
N290 H296 0.984 . S
N290 H297 0.984 . S
N291 C284 1.356 1_554 S
N291 H294 0.984 1_554 S
N291 H295 0.985 . S
H292 N287 0.984 . S
H293 N287 0.985 . S
H294 N291 0.984 1_556 S
H295 N291 0.985 . S
H296 N290 0.984 . S
H297 N290 0.984 . S
H298 N286 0.984 . S
H299 N286 0.985 . S
C300 C301 1.363 . S
C300 C306 1.379 . S
C300 N308 1.356 . S
C301 C300 1.363 . S
C301 C307 1.363 . S
C302 C303 1.363 . S
C302 C307 1.379 . S
C302 N309 1.356 . S
C303 C302 1.363 . S
C303 C306 1.363 . S
N304 C306 1.356 . S
N304 H316 0.984 . S
N304 H317 0.985 . S
N305 C307 1.356 . S
N305 H310 0.984 . S
N305 H311 0.985 . S
C306 C300 1.379 . S
C306 C303 1.363 . S
C306 N304 1.356 . S
C307 C301 1.363 . S
C307 C302 1.379 . S
C307 N305 1.356 . S
N308 C300 1.356 . S
N308 H314 0.984 . S
N308 H315 0.984 . S
N309 C302 1.356 . S
N309 H312 0.984 . S
N309 H313 0.985 . S
H310 N305 0.984 . S
H311 N305 0.985 . S
H312 N309 0.984 . S
H313 N309 0.985 . S
H314 N308 0.984 . S
H315 N308 0.984 . S
H316 N304 0.984 . S
H317 N304 0.985 . S
C318 C319 1.363 . S
C318 C324 1.379 . S
C318 N326 1.356 . S
C319 C318 1.363 . S
C319 C325 1.363 . S
C320 C321 1.363 . S
C320 C325 1.379 . S
C320 N327 1.356 . S
C321 C320 1.363 . S
C321 C324 1.363 . S
N322 C324 1.356 . S
N322 H334 0.984 . S
N322 H335 0.985 . S
N323 C325 1.356 . S
N323 H328 0.984 . S
N323 H329 0.985 . S
C324 C318 1.379 . S
C324 C321 1.363 . S
C324 N322 1.356 . S
C325 C319 1.363 . S
C325 C320 1.379 . S
C325 N323 1.356 . S
N326 C318 1.356 . S
N326 H332 0.984 . S
N326 H333 0.984 . S
N327 C320 1.356 . S
N327 H330 0.984 . S
N327 H331 0.985 . S
H328 N323 0.984 . S
H329 N323 0.985 . S
H330 N327 0.984 . S
H331 N327 0.985 . S
H332 N326 0.984 . S
H333 N326 0.984 . S
H334 N322 0.984 . S
H335 N322 0.985 . S
C336 C337 1.363 . S
C336 C342 1.379 . S
C336 N344 1.356 . S
C337 C336 1.363 . S
C337 C343 1.363 . S
C338 C339 1.363 . S
C338 C343 1.379 . S
C338 N345 1.356 . S
C339 C338 1.363 . S
C339 C342 1.363 . S
N340 C342 1.356 . S
N340 H352 0.984 . S
N340 H353 0.985 . S
N341 C343 1.356 . S
N341 H346 0.984 . S
N341 H347 0.985 . S
C342 C336 1.379 . S
C342 C339 1.363 . S
C342 N340 1.356 . S
C343 C337 1.363 . S
C343 C338 1.379 . S
C343 N341 1.356 . S
N344 C336 1.356 . S
N344 H350 0.984 . S
N344 H351 0.984 . S
N345 C338 1.356 . S
N345 H348 0.984 . S
N345 H349 0.985 . S
H346 N341 0.984 . S
H347 N341 0.985 . S
H348 N345 0.984 . S
H349 N345 0.985 . S
H350 N344 0.984 . S
H351 N344 0.984 . S
H352 N340 0.984 . S
H353 N340 0.985 . S
C354 C355 1.363 . S
C354 C360 1.379 . S
C354 N362 1.356 . S
C355 C354 1.363 . S
C355 C361 1.363 . S
C356 C357 1.363 . S
C356 C361 1.379 . S
C356 N363 1.356 . S
C357 C356 1.363 . S
C357 C360 1.363 . S
N358 C360 1.356 . S
N358 H370 0.984 . S
N358 H371 0.985 . S
N359 C361 1.356 . S
N359 H364 0.984 . S
N359 H365 0.985 . S
C360 C354 1.379 . S
C360 C357 1.363 . S
C360 N358 1.356 . S
C361 C355 1.363 . S
C361 C356 1.379 . S
C361 N359 1.356 . S
N362 C354 1.356 . S
N362 H368 0.984 . S
N362 H369 0.984 . S
N363 C356 1.356 . S
N363 H366 0.984 . S
N363 H367 0.985 . S
H364 N359 0.984 . S
H365 N359 0.985 . S
H366 N363 0.984 . S
H367 N363 0.985 . S
H368 N362 0.984 . S
H369 N362 0.984 . S
H370 N358 0.984 . S
H371 N358 0.985 . S
C372 C373 1.363 . S
C372 C378 1.379 . S
C372 N380 1.356 . S
C373 C372 1.363 . S
C373 C379 1.363 1_554 S
C374 C375 1.363 1_556 S
C374 C379 1.379 . S
C374 N381 1.356 . S
C375 C374 1.363 1_554 S
C375 C378 1.363 . S
N376 C378 1.356 . S
N376 H388 0.984 . S
N376 H389 0.985 . S
N377 C379 1.356 . S
N377 H382 0.984 . S
N377 H383 0.985 . S
C378 C372 1.379 . S
C378 C375 1.363 . S
C378 N376 1.356 . S
C379 C373 1.363 1_556 S
C379 C374 1.379 . S
C379 N377 1.356 . S
N380 C372 1.356 . S
N380 H386 0.984 . S
N380 H387 0.984 . S
N381 C374 1.356 . S
N381 H384 0.984 . S
N381 H385 0.985 . S
H382 N377 0.984 . S
H383 N377 0.985 . S
H384 N381 0.984 . S
H385 N381 0.985 . S
H386 N380 0.984 . S
H387 N380 0.984 . S
H388 N376 0.984 . S
H389 N376 0.985 . S
C390 C391 1.363 . S
C390 C396 1.379 . S
C390 N398 1.356 . S
C391 C390 1.363 . S
C391 C397 1.363 . S
C392 C393 1.363 . S
C392 C397 1.379 . S
C392 N399 1.356 . S
C393 C392 1.363 . S
C393 C396 1.363 . S
N394 C396 1.356 . S
N394 H406 0.984 . S
N394 H407 0.985 . S
N395 C397 1.356 . S
N395 H400 0.984 . S
N395 H401 0.985 . S
C396 C390 1.379 . S
C396 C393 1.363 . S
C396 N394 1.356 . S
C397 C391 1.363 . S
C397 C392 1.379 . S
C397 N395 1.356 . S
N398 C390 1.356 . S
N398 H404 0.984 . S
N398 H405 0.984 . S
N399 C392 1.356 . S
N399 H402 0.984 . S
N399 H403 0.985 . S
H400 N395 0.984 . S
H401 N395 0.985 . S
H402 N399 0.984 . S
H403 N399 0.985 . S
H404 N398 0.984 . S
H405 N398 0.984 . S
H406 N394 0.984 . S
H407 N394 0.985 . S
C408 C409 1.363 . S
C408 C414 1.379 . S
C408 N416 1.356 . S
C409 C408 1.363 . S
C409 C415 1.363 . S
C410 C411 1.363 . S
C410 C415 1.379 . S
C410 N417 1.356 . S
C411 C410 1.363 . S
C411 C414 1.363 . S
N412 C414 1.356 . S
N412 H424 0.984 . S
N412 H425 0.985 . S
N413 C415 1.356 . S
N413 H418 0.984 . S
N413 H419 0.985 . S
C414 C408 1.379 . S
C414 C411 1.363 . S
C414 N412 1.356 . S
C415 C409 1.363 . S
C415 C410 1.379 . S
C415 N413 1.356 . S
N416 C408 1.356 . S
N416 H422 0.984 . S
N416 H423 0.984 . S
N417 C410 1.356 . S
N417 H420 0.984 . S
N417 H421 0.985 . S
H418 N413 0.984 . S
H419 N413 0.985 . S
H420 N417 0.984 . S
H421 N417 0.985 . S
H422 N416 0.984 . S
H423 N416 0.984 . S
H424 N412 0.984 . S
H425 N412 0.985 . S
C426 C427 1.363 . S
C426 C432 1.379 . S
C426 N434 1.356 . S
C427 C426 1.363 . S
C427 C433 1.363 . S
C428 C429 1.363 . S
C428 C433 1.379 . S
C428 N435 1.356 . S
C429 C428 1.363 . S
C429 C432 1.363 . S
N430 C432 1.356 . S
N430 H442 0.984 . S
N430 H443 0.985 . S
N431 C433 1.356 . S
N431 H436 0.984 . S
N431 H437 0.985 . S
C432 C426 1.379 . S
C432 C429 1.363 . S
C432 N430 1.356 . S
C433 C427 1.363 . S
C433 C428 1.379 . S
C433 N431 1.356 . S
N434 C426 1.356 . S
N434 H440 0.984 . S
N434 H441 0.984 . S
N435 C428 1.356 . S
N435 H438 0.984 . S
N435 H439 0.985 . S
H436 N431 0.984 . S
H437 N431 0.985 . S
H438 N435 0.984 . S
H439 N435 0.985 . S
H440 N434 0.984 . S
H441 N434 0.984 . S
H442 N430 0.984 . S
H443 N430 0.985 . S
C444 C445 1.363 . S
C444 C450 1.379 . S
C444 N452 1.356 . S
C445 C444 1.363 . S
C445 C451 1.363 . S
C446 C447 1.363 . S
C446 C451 1.379 . S
C446 N453 1.356 . S
C447 C446 1.363 . S
C447 C450 1.363 . S
N448 C450 1.356 . S
N448 H460 0.984 . S
N448 H461 0.985 . S
N449 C451 1.356 . S
N449 H454 0.984 . S
N449 H455 0.985 . S
C450 C444 1.379 . S
C450 C447 1.363 . S
C450 N448 1.356 . S
C451 C445 1.363 . S
C451 C446 1.379 . S
C451 N449 1.356 . S
N452 C444 1.356 . S
N452 H458 0.984 . S
N452 H459 0.984 . S
N453 C446 1.356 . S
N453 H456 0.984 . S
N453 H457 0.985 . S
H454 N449 0.984 . S
H455 N449 0.985 . S
H456 N453 0.984 . S
H457 N453 0.985 . S
H458 N452 0.984 . S
H459 N452 0.984 . S
H460 N448 0.984 . S
H461 N448 0.985 . S
C462 C463 1.363 . S
C462 C468 1.379 . S
C462 N470 1.356 . S
C463 C462 1.363 . S
C463 C469 1.363 . S
C464 C465 1.363 . S
C464 C469 1.379 . S
C464 N471 1.356 . S
C465 C464 1.363 . S
C465 C468 1.363 . S
N466 C468 1.356 . S
N466 H478 0.984 . S
N466 H479 0.985 . S
N467 C469 1.356 . S
N467 H472 0.984 . S
N467 H473 0.985 . S
C468 C462 1.379 . S
C468 C465 1.363 . S
C468 N466 1.356 . S
C469 C463 1.363 . S
C469 C464 1.379 . S
C469 N467 1.356 . S
N470 C462 1.356 . S
N470 H476 0.984 . S
N470 H477 0.984 . S
N471 C464 1.356 . S
N471 H474 0.984 . S
N471 H475 0.985 . S
H472 N467 0.984 . S
H473 N467 0.985 . S
H474 N471 0.984 . S
H475 N471 0.985 . S
H476 N470 0.984 . S
H477 N470 0.984 . S
H478 N466 0.984 . S
H479 N466 0.985 . S
C480 C481 1.363 . S
C480 C486 1.379 . S
C480 N488 1.356 . S
C481 C480 1.363 . S
C481 C487 1.363 . S
C482 C483 1.363 . S
C482 C487 1.379 . S
C482 N489 1.356 . S
C483 C482 1.363 . S
C483 C486 1.363 . S
N484 C486 1.356 1_554 S
N484 H496 0.984 . S
N484 H497 0.985 . S
N485 C487 1.356 . S
N485 H490 0.984 . S
N485 H491 0.985 . S
C486 C480 1.379 . S
C486 C483 1.363 . S
C486 N484 1.356 1_556 S
C487 C481 1.363 . S
C487 C482 1.379 . S
C487 N485 1.356 . S
N488 C480 1.356 . S
N488 H494 0.984 . S
N488 H495 0.984 . S
N489 C482 1.356 . S
N489 H492 0.984 . S
N489 H493 0.985 . S
H490 N485 0.984 . S
H491 N485 0.985 . S
H492 N489 0.984 . S
H493 N489 0.985 . S
H494 N488 0.984 . S
H495 N488 0.984 . S
H496 N484 0.984 . S
H497 N484 0.985 . S
C498 C499 1.363 . S
C498 C504 1.379 . S
C498 N506 1.356 . S
C499 C498 1.363 . S
C499 C505 1.363 . S
C500 C501 1.363 . S
C500 C505 1.379 . S
C500 N507 1.356 . S
C501 C500 1.363 . S
C501 C504 1.363 . S
N502 C504 1.356 . S
N502 H514 0.984 . S
N502 H515 0.985 . S
N503 C505 1.356 . S
N503 H508 0.984 . S
N503 H509 0.985 . S
C504 C498 1.379 . S
C504 C501 1.363 . S
C504 N502 1.356 . S
C505 C499 1.363 . S
C505 C500 1.379 . S
C505 N503 1.356 . S
N506 C498 1.356 . S
N506 H512 0.984 . S
N506 H513 0.984 . S
N507 C500 1.356 . S
N507 H510 0.984 . S
N507 H511 0.985 . S
H508 N503 0.984 . S
H509 N503 0.985 . S
H510 N507 0.984 . S
H511 N507 0.985 . S
H512 N506 0.984 . S
H513 N506 0.984 . S
H514 N502 0.984 . S
H515 N502 0.985 . S
C516 C517 1.363 . S
C516 C522 1.379 . S
C516 N524 1.356 . S
C517 C516 1.363 . S
C517 C523 1.363 . S
C518 C519 1.363 . S
C518 C523 1.379 . S
C518 N525 1.356 . S
C519 C518 1.363 . S
C519 C522 1.363 . S
N520 C522 1.356 . S
N520 H532 0.984 . S
N520 H533 0.985 . S
N521 C523 1.356 . S
N521 H526 0.984 . S
N521 H527 0.985 . S
C522 C516 1.379 . S
C522 C519 1.363 . S
C522 N520 1.356 . S
C523 C517 1.363 . S
C523 C518 1.379 . S
C523 N521 1.356 . S
N524 C516 1.356 . S
N524 H530 0.984 . S
N524 H531 0.984 . S
N525 C518 1.356 . S
N525 H528 0.984 . S
N525 H529 0.985 . S
H526 N521 0.984 . S
H527 N521 0.985 . S
H528 N525 0.984 . S
H529 N525 0.985 . S
H530 N524 0.984 . S
H531 N524 0.984 . S
H532 N520 0.984 . S
H533 N520 0.985 . S
C534 C535 1.363 . S
C534 C540 1.379 . S
C534 N542 1.356 . S
C535 C534 1.363 . S
C535 C541 1.363 . S
C536 C537 1.363 . S
C536 C541 1.379 . S
C536 N543 1.356 . S
C537 C536 1.363 . S
C537 C540 1.363 . S
N538 C540 1.356 . S
N538 H550 0.984 . S
N538 H551 0.985 . S
N539 C541 1.356 . S
N539 H544 0.984 . S
N539 H545 0.985 . S
C540 C534 1.379 . S
C540 C537 1.363 . S
C540 N538 1.356 . S
C541 C535 1.363 . S
C541 C536 1.379 . S
C541 N539 1.356 . S
N542 C534 1.356 . S
N542 H548 0.984 . S
N542 H549 0.984 . S
N543 C536 1.356 . S
N543 H546 0.984 . S
N543 H547 0.985 . S
H544 N539 0.984 . S
H545 N539 0.985 . S
H546 N543 0.984 . S
H547 N543 0.985 . S
H548 N542 0.984 . S
H549 N542 0.984 . S
H550 N538 0.984 . S
H551 N538 0.985 . S
C552 C553 1.363 . S
C552 C558 1.379 . S
C552 N560 1.356 . S
C553 C552 1.363 . S
C553 C559 1.363 . S
C554 C555 1.363 . S
C554 C559 1.379 . S
C554 N561 1.356 . S
C555 C554 1.363 . S
C555 C558 1.363 . S
N556 C558 1.356 . S
N556 H568 0.984 . S
N556 H569 0.985 . S
N557 C559 1.356 . S
N557 H562 0.984 . S
N557 H563 0.985 . S
C558 C552 1.379 . S
C558 C555 1.363 . S
C558 N556 1.356 . S
C559 C553 1.363 . S
C559 C554 1.379 . S
C559 N557 1.356 . S
N560 C552 1.356 . S
N560 H566 0.984 . S
N560 H567 0.984 . S
N561 C554 1.356 . S
N561 H564 0.984 . S
N561 H565 0.985 . S
H562 N557 0.984 . S
H563 N557 0.985 . S
H564 N561 0.984 . S
H565 N561 0.985 . S
H566 N560 0.984 . S
H567 N560 0.984 . S
H568 N556 0.984 . S
H569 N556 0.985 . S
C570 C571 1.363 . S
C570 C576 1.379 . S
C570 N578 1.356 . S
C571 C570 1.363 . S
C571 C577 1.363 . S
C572 C573 1.363 . S
C572 C577 1.379 . S
C572 N579 1.356 . S
C573 C572 1.363 . S
C573 C576 1.363 . S
N574 C576 1.356 . S
N574 H586 0.984 . S
N574 H587 0.985 . S
N575 C577 1.356 . S
N575 H580 0.984 . S
N575 H581 0.985 . S
C576 C570 1.379 . S
C576 C573 1.363 . S
C576 N574 1.356 . S
C577 C571 1.363 . S
C577 C572 1.379 . S
C577 N575 1.356 . S
N578 C570 1.356 . S
N578 H584 0.984 . S
N578 H585 0.984 . S
N579 C572 1.356 . S
N579 H582 0.984 . S
N579 H583 0.985 . S
H580 N575 0.984 . S
H581 N575 0.985 . S
H582 N579 0.984 . S
H583 N579 0.985 . S
H584 N578 0.984 . S
H585 N578 0.984 . S
H586 N574 0.984 . S
H587 N574 0.985 . S
C588 C589 1.363 . S
C588 C594 1.379 . S
C588 N596 1.356 . S
C589 C588 1.363 . S
C589 C595 1.363 . S
C590 C591 1.363 . S
C590 C595 1.379 . S
C590 N597 1.356 . S
C591 C590 1.363 . S
C591 C594 1.363 . S
N592 C594 1.356 . S
N592 H604 0.984 . S
N592 H605 0.985 . S
N593 C595 1.356 . S
N593 H598 0.984 . S
N593 H599 0.985 . S
C594 C588 1.379 . S
C594 C591 1.363 . S
C594 N592 1.356 . S
C595 C589 1.363 . S
C595 C590 1.379 . S
C595 N593 1.356 . S
N596 C588 1.356 . S
N596 H602 0.984 . S
N596 H603 0.984 . S
N597 C590 1.356 . S
N597 H600 0.984 . S
N597 H601 0.985 . S
H598 N593 0.984 . S
H599 N593 0.985 . S
H600 N597 0.984 . S
H601 N597 0.985 . S
H602 N596 0.984 . S
H603 N596 0.984 . S
H604 N592 0.984 . S
H605 N592 0.985 . S
C606 C607 1.363 . S
C606 C612 1.379 . S
C606 N614 1.356 . S
C607 C606 1.363 . S
C607 C613 1.363 . S
C608 C609 1.363 . S
C608 C613 1.379 1_556 S
C608 N615 1.356 . S
C609 C608 1.363 . S
C609 C612 1.363 1_556 S
N610 C612 1.356 . S
N610 H622 0.984 . S
N610 H623 0.985 1_554 S
N611 C613 1.356 . S
N611 H616 0.984 . S
N611 H617 0.985 . S
C612 C606 1.379 . S
C612 C609 1.363 1_554 S
C612 N610 1.356 . S
C613 C607 1.363 . S
C613 C608 1.379 1_554 S
C613 N611 1.356 . S
N614 C606 1.356 . S
N614 H620 0.984 . S
N614 H621 0.984 . S
N615 C608 1.356 . S
N615 H618 0.984 . S
N615 H619 0.985 . S
H616 N611 0.984 . S
H617 N611 0.985 . S
H618 N615 0.984 . S
H619 N615 0.985 . S
H620 N614 0.984 . S
H621 N614 0.984 . S
H622 N610 0.984 . S
H623 N610 0.985 1_556 S
C624 C625 1.363 . S
C624 C630 1.379 . S
C624 N632 1.356 . S
C625 C624 1.363 . S
C625 C631 1.363 . S
C626 C627 1.363 . S
C626 C631 1.379 . S
C626 N633 1.356 . S
C627 C626 1.363 . S
C627 C630 1.363 . S
N628 C630 1.356 . S
N628 H640 0.984 . S
N628 H641 0.985 . S
N629 C631 1.356 . S
N629 H634 0.984 . S
N629 H635 0.985 . S
C630 C624 1.379 . S
C630 C627 1.363 . S
C630 N628 1.356 . S
C631 C625 1.363 . S
C631 C626 1.379 . S
C631 N629 1.356 . S
N632 C624 1.356 . S
N632 H638 0.984 . S
N632 H639 0.984 . S
N633 C626 1.356 . S
N633 H636 0.984 . S
N633 H637 0.985 . S
H634 N629 0.984 . S
H635 N629 0.985 . S
H636 N633 0.984 . S
H637 N633 0.985 . S
H638 N632 0.984 . S
H639 N632 0.984 . S
H640 N628 0.984 . S
H641 N628 0.985 . S
C213 C203 1.477 . S
C211 C19 1.422 . S
C229 C40 1.425 . S
C231 C132 1.480 . S
C247 C51 1.419 . S
C249 C146 1.489 . S
C265 C72 1.412 . S
C267 C160 1.482 . S
C285 C174 1.478 . S
C283 C103 1.424 . S
C301 C114 1.414 . S
C303 C189 1.482 . S
C319 C30 1.419 . S
C321 C147 1.489 . S
C337 C61 1.425 . S
C339 C161 1.480 . S
C355 C82 1.422 . S
C357 C175 1.477 . S
C375 C188 1.482 . S
C373 C93 1.414 . S
C393 C202 1.478 . S
C391 C124 1.424 . S
C411 C133 1.482 . S
C409 C9 1.412 . S
C427 C17 1.481 . S
C429 C149 1.531 . S
C445 C38 1.477 . S
C447 C163 1.527 . S
C465 C177 1.524 . S
C463 C54 1.475 . S
C481 C75 1.479 . S
C483 C190 1.529 1_556 S
C501 C204 1.526 . S
C499 C101 1.476 . S
C519 C135 1.525 . S
C517 C117 1.475 . S
C537 C205 1.524 . S
C535 C33 1.475 . S
C553 C59 1.477 . S
C555 C134 1.527 . S
C573 C148 1.531 . S
C571 C80 1.481 . S
C589 C96 1.475 . S
C591 C162 1.525 . S
C607 C122 1.476 . S
C609 C176 1.526 . S
C625 C12 1.479 . S
C627 C191 1.529 . S
