# Generated by pormake.
# Topology ssb, (4,4)-cn, num edge types: 1
# Building blocks:
#     Node 0, Type 0, BuildingBlock: KUFVIS_clean_linker_0, # of connection points: 4
#     Node 1, Type 0, BuildingBlock: KUFVIS_clean_linker_0, # of connection points: 4
#     Node 2, Type 0, BuildingBlock: KUFVIS_clean_linker_0, # of connection points: 4
#     Node 3, Type 0, BuildingBlock: KUFVIS_clean_linker_0, # of connection points: 4
#     Node 4, Type 0, BuildingBlock: KUFVIS_clean_linker_0, # of connection points: 4
#     Node 5, Type 0, BuildingBlock: KUFVIS_clean_linker_0, # of connection points: 4
#     Node 6, Type 0, BuildingBlock: KUFVIS_clean_linker_0, # of connection points: 4
#     Node 7, Type 0, BuildingBlock: KUFVIS_clean_linker_0, # of connection points: 4
#     Node 8, Type 1, BuildingBlock: NAWXER_clean_sbu_0, # of connection points: 4
#     Node 9, Type 1, BuildingBlock: NAWXER_clean_sbu_0, # of connection points: 4
#     Node 10, Type 1, BuildingBlock: NAWXER_clean_sbu_0, # of connection points: 4
#     Node 11, Type 1, BuildingBlock: NAWXER_clean_sbu_0, # of connection points: 4
#     Node 12, Type 1, BuildingBlock: NAWXER_clean_sbu_0, # of connection points: 4
#     Node 13, Type 1, BuildingBlock: NAWXER_clean_sbu_0, # of connection points: 4
#     Node 14, Type 1, BuildingBlock: NAWXER_clean_sbu_0, # of connection points: 4
#     Node 15, Type 1, BuildingBlock: NAWXER_clean_sbu_0, # of connection points: 4
#     Edge 16, Type (0, 1), BuildingBlock: OJICUG_clean_linker_0, # of connection points: 2
#     Edge 17, Type (0, 1), BuildingBlock: OJICUG_clean_linker_0, # of connection points: 2
#     Edge 18, Type (0, 1), BuildingBlock: OJICUG_clean_linker_0, # of connection points: 2
#     Edge 19, Type (0, 1), BuildingBlock: OJICUG_clean_linker_0, # of connection points: 2
#     Edge 20, Type (0, 1), BuildingBlock: OJICUG_clean_linker_0, # of connection points: 2
#     Edge 21, Type (0, 1), BuildingBlock: OJICUG_clean_linker_0, # of connection points: 2
#     Edge 22, Type (0, 1), BuildingBlock: OJICUG_clean_linker_0, # of connection points: 2
#     Edge 23, Type (0, 1), BuildingBlock: OJICUG_clean_linker_0, # of connection points: 2
#     Edge 24, Type (0, 1), BuildingBlock: OJICUG_clean_linker_0, # of connection points: 2
#     Edge 25, Type (0, 1), BuildingBlock: OJICUG_clean_linker_0, # of connection points: 2
#     Edge 26, Type (0, 1), BuildingBlock: OJICUG_clean_linker_0, # of connection points: 2
#     Edge 27, Type (0, 1), BuildingBlock: OJICUG_clean_linker_0, # of connection points: 2
#     Edge 28, Type (0, 1), BuildingBlock: OJICUG_clean_linker_0, # of connection points: 2
#     Edge 29, Type (0, 1), BuildingBlock: OJICUG_clean_linker_0, # of connection points: 2
#     Edge 30, Type (0, 1), BuildingBlock: OJICUG_clean_linker_0, # of connection points: 2
#     Edge 31, Type (0, 1), BuildingBlock: OJICUG_clean_linker_0, # of connection points: 2
#     Edge 32, Type (0, 1), BuildingBlock: OJICUG_clean_linker_0, # of connection points: 2
#     Edge 33, Type (0, 1), BuildingBlock: OJICUG_clean_linker_0, # of connection points: 2
#     Edge 34, Type (0, 1), BuildingBlock: OJICUG_clean_linker_0, # of connection points: 2
#     Edge 35, Type (0, 1), BuildingBlock: OJICUG_clean_linker_0, # of connection points: 2
#     Edge 36, Type (0, 1), BuildingBlock: OJICUG_clean_linker_0, # of connection points: 2
#     Edge 37, Type (0, 1), BuildingBlock: OJICUG_clean_linker_0, # of connection points: 2
#     Edge 38, Type (0, 1), BuildingBlock: OJICUG_clean_linker_0, # of connection points: 2
#     Edge 39, Type (0, 1), BuildingBlock: OJICUG_clean_linker_0, # of connection points: 2
#     Edge 40, Type (0, 1), BuildingBlock: OJICUG_clean_linker_0, # of connection points: 2
#     Edge 41, Type (0, 1), BuildingBlock: OJICUG_clean_linker_0, # of connection points: 2
#     Edge 42, Type (0, 1), BuildingBlock: OJICUG_clean_linker_0, # of connection points: 2
#     Edge 43, Type (0, 1), BuildingBlock: OJICUG_clean_linker_0, # of connection points: 2
#     Edge 44, Type (0, 1), BuildingBlock: OJICUG_clean_linker_0, # of connection points: 2
#     Edge 45, Type (0, 1), BuildingBlock: OJICUG_clean_linker_0, # of connection points: 2
#     Edge 46, Type (0, 1), BuildingBlock: OJICUG_clean_linker_0, # of connection points: 2
#     Edge 47, Type (0, 1), BuildingBlock: OJICUG_clean_linker_0, # of connection points: 2
# Relax obj value: 0.000
# Max RMSD: 0.051
# Mean RMSD: 0.025
data_MOF--net-ssb--node1-NAWXER_clean_sbu_0--node2-KUFVIS_clean_linker_0--edge1-OJICUG_clean_linker_0
_symmetry_space_group_name_H-M    P1
_symmetry_Int_Tables_number       1
_symmetry_cell_setting            triclinic
loop_
_symmetry_equiv_pos_as_xyz
'x, y, z'
_cell_length_a     34.123087
_cell_length_b     34.164745
_cell_length_c     27.138357
_cell_angle_alpha  90.320608
_cell_angle_beta   89.985568
_cell_angle_gamma 89.979344
loop_
_atom_site_label
_atom_site_type_symbol
_atom_site_fract_x
_atom_site_fract_y
_atom_site_fract_z
_atom_type_partial_charge
H0 H 0.17746 0.1955 0.40912 0.0
H1 H 0.28662 0.19333 0.33073 0.0
H2 H 0.21931 0.30066 0.34568 0.0
H3 H 0.24523 0.31744 0.27897 0.0
H4 H 0.35745 0.32764 0.21285 0.0
H5 H 0.33471 0.22968 0.30598 0.0
C6 C 0.19957 0.21005 0.38713 0.0
C7 C 0.19415 0.24941 0.37553 0.0
C8 C 0.23356 0.19002 0.37279 0.0
C9 C 0.26171 0.20978 0.34402 0.0
C10 C 0.25718 0.24994 0.33216 0.0
C11 C 0.22362 0.26964 0.35072 0.0
C12 C 0.28612 0.27124 0.29966 0.0
C13 C 0.2747 0.30631 0.27599 0.0
C14 C 0.30079 0.32744 0.24661 0.0
C15 C 0.33827 0.31272 0.23853 0.0
C16 C 0.35028 0.27729 0.25893 0.0
C17 C 0.32448 0.25671 0.29004 0.0
H18 H 0.68343 0.27158 0.12937 0.0
H19 H 0.7545 0.29348 0.25767 0.0
H20 H 0.70354 0.17936 0.23248 0.0
H21 H 0.6923 0.18922 0.31671 0.0
H22 H 0.78507 0.17434 0.42101 0.0
H23 H 0.80383 0.24651 0.29373 0.0
C24 C 0.69736 0.26121 0.16276 0.0
C25 C 0.69111 0.22247 0.17769 0.0
C26 C 0.7201 0.2872 0.19111 0.0
C27 C 0.73762 0.2735 0.23496 0.0
C28 C 0.73128 0.23461 0.25087 0.0
C29 C 0.70839 0.20938 0.22133 0.0
C30 C 0.74617 0.22013 0.29932 0.0
C31 C 0.72203 0.19566 0.32822 0.0
C32 C 0.73584 0.1793 0.3721 0.0
C33 C 0.77413 0.18751 0.38742 0.0
C34 C 0.79896 0.21148 0.35954 0.0
C35 C 0.78462 0.22846 0.31582 0.0
H36 H 0.82097 0.79691 0.44015 0.0
H37 H 0.79623 0.69253 0.3596 0.0
H38 H 0.73129 0.79859 0.32858 0.0
H39 H 0.68709 0.75205 0.29691 0.0
H40 H 0.69896 0.66138 0.18671 0.0
H41 H 0.79617 0.68878 0.27855 0.0
C42 C 0.80385 0.78208 0.41202 0.0
C43 C 0.77406 0.80215 0.38702 0.0
C44 C 0.81201 0.74293 0.40136 0.0
C45 C 0.78982 0.72317 0.36615 0.0
C46 C 0.76142 0.74307 0.33784 0.0
C47 C 0.75295 0.78258 0.34956 0.0
C48 C 0.74356 0.72273 0.29433 0.0
C49 C 0.70478 0.73022 0.27827 0.0
C50 C 0.68834 0.70841 0.23891 0.0
C51 C 0.7109 0.67876 0.2167 0.0
C52 C 0.74925 0.67151 0.23195 0.0
C53 C 0.76586 0.69427 0.26899 0.0
H54 H 0.20555 0.82475 0.44261 0.0
H55 H 0.28936 0.79776 0.33113 0.0
H56 H 0.1719 0.74951 0.32267 0.0
H57 H 0.20122 0.70273 0.277 0.0
H58 H 0.27762 0.69703 0.15198 0.0
H59 H 0.28801 0.79322 0.25249 0.0
C60 C 0.21277 0.80966 0.40853 0.0
C61 C 0.18461 0.78597 0.3855 0.0
C62 C 0.25008 0.81452 0.3882 0.0
C63 C 0.2597 0.79473 0.34452 0.0
C64 C 0.23191 0.77098 0.31947 0.0
C65 C 0.19423 0.76677 0.3409 0.0
C66 C 0.24257 0.75122 0.27129 0.0
C67 C 0.22394 0.71624 0.2551 0.0
C68 C 0.23588 0.69742 0.21123 0.0
C69 C 0.2675 0.71257 0.18455 0.0
C70 C 0.2874 0.74623 0.20053 0.0
C71 C 0.27341 0.76638 0.24211 0.0
H72 H 0.35692 0.67123 0.88536 0.0
H73 H 0.24476 0.68171 0.81923 0.0
H74 H 0.33406 0.76986 0.79344 0.0
H75 H 0.28633 0.80617 0.76817 0.0
H76 H 0.17711 0.8047 0.69007 0.0
H77 H 0.21839 0.69926 0.75334 0.0
C78 C 0.33773 0.68632 0.85986 0.0
C79 C 0.34966 0.72194 0.83992 0.0
C80 C 0.3003 0.67159 0.85152 0.0
C81 C 0.27419 0.6929 0.82237 0.0
C82 C 0.28553 0.72819 0.79915 0.0
C83 C 0.32385 0.7427 0.80902 0.0
C84 C 0.25659 0.74972 0.76686 0.0
C85 C 0.26131 0.78986 0.75501 0.0
C86 C 0.23323 0.8098 0.72634 0.0
C87 C 0.19912 0.79 0.71206 0.0
C88 C 0.19348 0.75067 0.72364 0.0
C89 C 0.22288 0.73024 0.74837 0.0
H90 H 0.27635 0.30002 0.94712 0.0
H91 H 0.28808 0.20427 0.84613 0.0
H92 H 0.20152 0.29484 0.82063 0.0
H93 H 0.17251 0.24781 0.77482 0.0
H94 H 0.2075 0.17333 0.65467 0.0
H95 H 0.2903 0.20019 0.76736 0.0
C96 C 0.26662 0.28459 0.9143 0.0
C97 C 0.23533 0.29987 0.88711 0.0
C98 C 0.28677 0.25103 0.89843 0.0
C99 C 0.27329 0.23103 0.85647 0.0
C100 C 0.24277 0.24629 0.82688 0.0
C101 C 0.22396 0.28123 0.84289 0.0
C102 C 0.23262 0.22669 0.77846 0.0
C103 C 0.19507 0.23076 0.75668 0.0
C104 C 0.18588 0.21171 0.71185 0.0
C105 C 0.21437 0.1883 0.68894 0.0
C106 C 0.25156 0.18354 0.70965 0.0
C107 C 0.26074 0.20318 0.75358 0.0
H108 H 0.69391 0.33948 0.90579 0.0
H109 H 0.79329 0.31113 0.81818 0.0
H110 H 0.68548 0.24578 0.79933 0.0
H111 H 0.72951 0.19965 0.76937 0.0
H112 H 0.82204 0.19848 0.66161 0.0
H113 H 0.79626 0.30454 0.73798 0.0
C114 C 0.70661 0.32166 0.8767 0.0
C115 C 0.68503 0.29094 0.85538 0.0
C116 C 0.7451 0.32917 0.86221 0.0
C117 C 0.76283 0.30555 0.82683 0.0
C118 C 0.74144 0.27611 0.80202 0.0
C119 C 0.7025 0.26843 0.81736 0.0
C120 C 0.7605 0.25472 0.76003 0.0
C121 C 0.75193 0.21509 0.74902 0.0
C122 C 0.77375 0.19468 0.71292 0.0
C123 C 0.8045 0.21393 0.68879 0.0
C124 C 0.81285 0.25315 0.69873 0.0
C125 C 0.78984 0.27382 0.7323 0.0
H126 H 0.6831 0.72902 0.96973 0.0
H127 H 0.75355 0.70581 0.84115 0.0
H128 H 0.70294 0.82028 0.86523 0.0
H129 H 0.69127 0.80953 0.7812 0.0
H130 H 0.7837 0.82376 0.67625 0.0
H131 H 0.803 0.75263 0.80434 0.0
C132 C 0.69692 0.73904 0.9361 0.0
C133 C 0.69068 0.77767 0.92068 0.0
C134 C 0.71944 0.71273 0.9079 0.0
C135 C 0.73683 0.72603 0.86375 0.0
C136 C 0.73054 0.76481 0.84742 0.0
C137 C 0.70782 0.79035 0.87676 0.0
C138 C 0.74525 0.77884 0.79867 0.0
C139 C 0.72097 0.80303 0.76959 0.0
C140 C 0.73462 0.81908 0.72546 0.0
C141 C 0.77289 0.81081 0.71003 0.0
C142 C 0.79786 0.78712 0.73809 0.0
C143 C 0.78368 0.77045 0.78209 0.0
C144 C 0.94781 0.29013 0.58894 0.0
C145 C 0.05024 0.28912 0.4631 0.0
O146 O 0.96223 0.32068 0.5693 0.0
Zn147 Zn -0.00172 0.29245 0.5254 0.0
O148 O 0.95921 0.25617 0.57511 0.0
Zn149 Zn 0.99794 0.22943 0.52474 0.0
O150 O 0.03251 0.20101 0.56853 0.0
O151 O 0.038 0.26504 0.57688 0.0
O152 O 0.03795 0.25533 0.47588 0.0
O153 O 0.03568 0.31977 0.48271 0.0
O154 O 0.95686 0.26621 0.4748 0.0
O155 O 0.96231 0.20212 0.48109 0.0
C156 C 0.04839 0.23041 0.58953 0.0
C157 C 0.9458 0.23174 0.46185 0.0
C158 C 0.74586 0.04821 0.615 0.0
C159 C 0.74649 0.94942 0.4836 0.0
O160 O 0.77527 0.03111 0.59572 0.0
Zn161 Zn 0.74721 -0.00107 0.5492 0.0
O162 O 0.7112 0.03883 0.60088 0.0
Zn163 Zn 0.68447 -0.00097 0.54861 0.0
O164 O 0.65624 0.96224 0.59124 0.0
O165 O 0.72071 0.95646 0.59493 0.0
O166 O 0.7117 0.95903 0.497 0.0
O167 O 0.77572 0.96648 0.50332 0.0
O168 O 0.72143 0.04158 0.50305 0.0
O169 O 0.65692 0.03591 0.5054 0.0
C170 C 0.68657 0.94519 0.60802 0.0
C171 C 0.68748 0.05293 0.48929 0.0
C172 C 0.94475 0.76658 0.63578 0.0
C173 C 0.047 0.76712 0.50759 0.0
O174 O 0.96089 0.79607 0.61577 0.0
Zn175 Zn 0.99667 0.76845 0.57259 0.0
O176 O 0.95617 0.73205 0.6236 0.0
Zn177 Zn 0.9978 0.70551 0.57342 0.0
O178 O 0.03551 0.67918 0.6166 0.0
O179 O 0.0371 0.74371 0.62196 0.0
O180 O 0.03708 0.73255 0.52106 0.0
O181 O 0.03076 0.7966 0.52798 0.0
O182 O 0.95796 0.74053 0.52317 0.0
O183 O 0.96195 0.67616 0.53059 0.0
C184 C 0.04977 0.71024 0.63547 0.0
C185 C 0.94695 0.70619 0.51038 0.0
C186 C 0.3112 0.05518 0.60619 0.0
C187 C 0.31015 0.94322 0.49133 0.0
O188 O 0.34187 0.0382 0.5899 0.0
Zn189 Zn 0.31433 -0.00075 0.54865 0.0
O190 O 0.2773 0.043 0.59341 0.0
Zn191 Zn 0.25078 -0.00043 0.5491 0.0
O192 O 0.22336 0.96805 0.59747 0.0
O193 O 0.28765 0.96191 0.60205 0.0
O194 O 0.27647 0.95574 0.50458 0.0
O195 O 0.3411 0.95998 0.50705 0.0
O196 O 0.2876 0.03698 0.49574 0.0
O197 O 0.2233 0.03146 0.50114 0.0
C198 C 0.25337 0.95228 0.61699 0.0
C199 C 0.2533 0.047 0.4813 0.0
C200 C 0.43771 0.78396 0.11194 0.0
C201 C 0.55861 0.81849 1.02354 0.0
O202 O 0.45169 0.81837 0.10794 0.0
Zn203 Zn 0.49839 0.80447 0.06871 0.0
O204 O 0.45631 0.75512 0.09286 0.0
Zn205 Zn 0.5075 0.74351 0.05178 0.0
O206 O 0.5385 0.71174 0.09571 0.0
O207 O 0.53586 0.77352 0.11966 0.0
O208 O 0.55031 0.78209 1.02462 0.0
O209 O 0.53606 0.84351 1.044 0.0
O210 O 0.472 0.78442 1.00097 0.0
O211 O 0.48715 0.72206 0.99103 0.0
C212 C 0.54904 0.73865 0.12549 0.0
C213 C 0.47021 0.75278 0.97541 0.0
C214 C 0.20707 0.5547 0.10807 0.0
C215 C 0.20671 0.44314 0.98904 0.0
O216 O 0.24077 0.54194 0.09507 0.0
Zn217 Zn 0.26614 0.4989 0.04821 0.0
O218 O 0.17637 0.53907 0.08979 0.0
Zn219 Zn 0.20335 0.499 0.04849 0.0
O220 O 0.23078 0.46232 0.10257 0.0
O221 O 0.29496 0.46871 0.09424 0.0
O222 O 0.17614 0.4589 1.00754 0.0
O223 O 0.24051 0.45585 1.00167 0.0
O224 O 0.29476 0.52909 1.00198 0.0
O225 O 0.23056 0.53571 0.99426 0.0
C226 C 0.26573 0.45369 0.1161 0.0
C227 C 0.26546 0.54427 0.98045 0.0
C228 C 0.5476 0.25974 0.97148 0.0
C229 C 0.47039 0.24617 0.12309 0.0
O230 O 0.53725 0.28684 1.00112 0.0
Zn231 Zn 0.50705 0.25523 1.04611 0.0
O232 O 0.53483 0.22482 0.97808 0.0
Zn233 Zn 0.49823 0.19399 1.03006 0.0
O234 O 0.45124 0.17954 0.9916 0.0
O235 O 0.45569 0.2429 1.00593 0.0
O236 O 0.47224 0.21438 0.09783 0.0
O237 O 0.48698 0.27691 0.10695 0.0
O238 O 0.55045 0.21725 0.073 0.0
O239 O 0.53655 0.15554 0.05486 0.0
C240 C 0.43708 0.21387 0.98739 0.0
C241 C 0.5591 0.18094 0.0745 0.0
C242 C 0.79508 0.54226 0.1205 0.0
C243 C 0.79188 0.45746 0.97603 0.0
O244 O 0.82525 0.53009 0.09747 0.0
Zn245 Zn 0.7963 0.49956 0.04844 0.0
O246 O 0.76079 0.53254 0.10603 0.0
Zn247 Zn 0.73302 0.50023 0.05012 0.0
O248 O 0.7058 0.45953 0.08683 0.0
O249 O 0.76999 0.45325 0.09123 0.0
O250 O 0.75832 0.46775 0.99249 0.0
O251 O 0.82303 0.46876 0.99762 0.0
O252 O 0.76942 0.54634 1.00702 0.0
O253 O 0.7053 0.54138 1.01476 0.0
C254 C 0.73562 0.44092 0.10251 0.0
C255 C 0.73496 0.55934 0.99749 0.0
C256 C 0.15474 0.29913 0.423 0.0
C257 C 0.15655 0.26832 0.38855 0.0
H258 H 0.11811 0.3311 0.47364 0.0
C259 C 0.12168 0.25152 0.37121 0.0
H260 H 0.18141 0.31242 0.43681 0.0
C261 C 0.08586 0.26236 0.39164 0.0
C262 C 0.08424 0.29015 0.42985 0.0
H263 H 0.12244 0.22798 0.34427 0.0
H264 H 0.05975 0.24652 0.38056 0.0
C265 C 0.1186 0.31005 0.44365 0.0
C266 C 0.69794 0.11659 0.37835 0.0
C267 C 0.71208 0.15103 0.40076 0.0
H268 H 0.67802 0.0576 0.38974 0.0
C269 C 0.70934 0.15511 0.45217 0.0
H270 H 0.70012 0.11259 0.33882 0.0
C271 C 0.69631 0.12399 0.48098 0.0
C272 C 0.68566 0.08832 0.45894 0.0
H273 H 0.71997 0.18137 0.4703 0.0
H274 H 0.6978 0.12665 0.52076 0.0
C275 C 0.68508 0.08524 0.40736 0.0
C276 C 0.88401 0.73823 0.40694 0.0
C277 C 0.8473 0.72481 0.42249 0.0
H278 H 0.94531 0.74111 0.42238 0.0
C279 C 0.84491 0.69791 0.46131 0.0
H280 H 0.88632 0.75885 0.37687 0.0
C281 C 0.87887 0.68735 0.48718 0.0
C282 C 0.91516 0.70375 0.4742 0.0
H283 H 0.81666 0.68736 0.4737 0.0
H284 H 0.87623 0.66949 0.51987 0.0
C285 C 0.91767 0.72778 0.43259 0.0
C286 C 0.29014 0.87592 0.38585 0.0
C287 C 0.2776 0.84264 0.41171 0.0
H288 H 0.31168 0.93488 0.39158 0.0
C289 C 0.28548 0.84013 0.46238 0.0
H290 H 0.284 0.8787 0.34686 0.0
C291 C 0.30206 0.87183 0.48759 0.0
C292 C 0.31085 0.90663 0.46266 0.0
H293 H 0.27601 0.81483 0.48313 0.0
H294 H 0.30426 0.87059 0.52741 0.0
C295 C 0.3063 0.90791 0.4113 0.0
C296 C 0.15407 0.70051 0.67693 0.0
C297 C 0.15582 0.73196 0.71046 0.0
H298 H 0.11761 0.66782 0.62685 0.0
C299 C 0.12093 0.74941 0.72677 0.0
H300 H 0.18074 0.68669 0.66393 0.0
C301 C 0.08521 0.7385 0.70616 0.0
C302 C 0.0837 0.70995 0.66884 0.0
H303 H 0.12161 0.77341 0.75304 0.0
H304 H 0.05913 0.75472 0.71646 0.0
C305 C 0.11802 0.6895 0.65613 0.0
C306 C 0.29137 0.12201 0.71202 0.0
C307 C 0.27932 0.15555 0.68634 0.0
H308 H 0.31236 0.06287 0.70595 0.0
C309 C 0.28772 0.15835 0.63582 0.0
H310 H 0.2848 0.11901 0.75088 0.0
C311 C 0.30427 0.12666 0.6105 0.0
C312 C 0.31245 0.09159 0.63516 0.0
H313 H 0.27861 0.18385 0.61521 0.0
H314 H 0.30679 0.12812 0.57072 0.0
C315 C 0.30746 0.09003 0.68646 0.0
C316 C 0.8849 0.25475 0.69084 0.0
C317 C 0.84857 0.27068 0.67781 0.0
H318 H 0.94572 0.25013 0.67338 0.0
C319 C 0.84677 0.29992 0.64169 0.0
H320 H 0.88685 0.23245 0.71899 0.0
C321 C 0.8807 0.31034 0.61561 0.0
C322 C 0.91639 0.29154 0.62581 0.0
H323 H 0.81885 0.31253 0.63132 0.0
H324 H 0.87832 0.33023 0.58481 0.0
C325 C 0.91852 0.26514 0.66512 0.0
C326 C 0.7079 0.84302 0.64538 0.0
C327 C 0.71077 0.84725 0.69675 0.0
H328 H 0.6963 0.87133 0.5767 0.0
C329 C 0.69671 0.88178 0.71906 0.0
H330 H 0.71847 0.81669 0.62732 0.0
C331 C 0.68387 0.91307 0.68996 0.0
C332 C 0.68435 0.90986 0.6384 0.0
H333 H 0.69899 0.88589 0.75856 0.0
H334 H 0.67694 0.94079 0.70749 0.0
C335 C 0.69484 0.87408 0.61647 0.0
C336 C 0.85433 0.74391 0.71281 0.0
C337 C 0.83886 0.7815 0.72064 0.0
H338 H 0.90006 0.70959 0.67976 0.0
C339 C 0.86089 0.81413 0.70554 0.0
H340 H 0.83793 0.71827 0.72385 0.0
C341 C 0.89627 0.80931 0.68023 0.0
C342 C 0.91056 0.77169 0.6693 0.0
H343 H 0.84987 0.84351 0.71157 0.0
H344 H 0.91153 0.83513 0.66745 0.0
C345 C 0.88982 0.73903 0.68728 0.0
C346 C 0.20856 0.87649 0.70149 0.0
C347 C 0.24007 0.85022 0.70759 0.0
H348 H 0.1878 0.92921 0.66777 0.0
C349 C 0.27702 0.8608 0.68919 0.0
H350 H 0.17986 0.86981 0.71627 0.0
C351 C 0.28167 0.89524 0.66224 0.0
C352 C 0.2494 0.91976 0.65261 0.0
H353 H 0.30187 0.8413 0.69279 0.0
H354 H 0.31018 0.9014 0.64655 0.0
C355 C 0.21307 0.91066 0.67386 0.0
C356 C 0.12798 0.18332 0.66697 0.0
C357 C 0.14703 0.21617 0.68741 0.0
H358 H 0.08198 0.1619 0.6204 0.0
C359 C 0.13101 0.25343 0.67927 0.0
H360 H 0.13935 0.15414 0.67308 0.0
C361 C 0.0981 0.25791 0.6489 0.0
C362 C 0.08035 0.2252 0.62621 0.0
H363 H 0.14512 0.27928 0.69426 0.0
H364 H 0.0874 0.28721 0.64188 0.0
C365 C 0.09505 0.18776 0.63679 0.0
C366 C 0.79576 0.12685 0.69082 0.0
C367 C 0.76493 0.15355 0.69864 0.0
H368 H 0.81396 0.07256 0.65846 0.0
C369 C 0.72674 0.14252 0.68532 0.0
H370 H 0.82545 0.13429 0.70147 0.0
C371 C 0.72009 0.10692 0.66082 0.0
C372 C 0.75154 0.08179 0.64915 0.0
H373 H 0.70246 0.16252 0.69072 0.0
H374 H 0.69064 0.10028 0.64845 0.0
C375 C 0.78918 0.09145 0.66618 0.0
C376 C 0.86218 0.18445 0.39149 0.0
C377 C 0.83996 0.21712 0.37693 0.0
H378 H 0.91296 0.16333 0.42918 0.0
C379 C 0.85521 0.25471 0.38532 0.0
H380 H 0.8513 0.15507 0.38505 0.0
C381 C 0.89068 0.25951 0.41087 0.0
C382 C 0.91162 0.22678 0.42831 0.0
H383 H 0.83865 0.28037 0.37471 0.0
H384 H 0.90076 0.28893 0.41883 0.0
C385 C 0.89754 0.1892 0.41681 0.0
C386 C 0.79687 0.86942 0.41049 0.0
C387 C 0.76572 0.84337 0.40137 0.0
H388 H 0.81527 0.92344 0.44333 0.0
C389 C 0.72742 0.85524 0.41299 0.0
H390 H 0.82667 0.86133 0.40114 0.0
C391 C 0.72083 0.89104 0.43704 0.0
C392 C 0.75244 0.91558 0.44992 0.0
H393 H 0.7029 0.83576 0.40652 0.0
H394 H 0.69119 0.89835 0.44806 0.0
C395 C 0.79033 0.90504 0.43463 0.0
C396 C 0.13004 0.74401 0.41837 0.0
C397 C 0.14565 0.78135 0.40965 0.0
H398 H 0.08673 0.71017 0.45623 0.0
C399 C 0.12615 0.8142 0.42944 0.0
H400 H 0.1445 0.71816 0.4039 0.0
C401 C 0.09319 0.80973 0.45956 0.0
C402 C 0.07891 0.77225 0.47078 0.0
H403 H 0.13723 0.84343 0.4229 0.0
H404 H 0.07979 0.83562 0.47547 0.0
C405 C 0.09709 0.73949 0.44871 0.0
C406 C 0.27715 0.1386 0.40946 0.0
C407 C 0.24018 0.14953 0.39144 0.0
H408 H 0.31027 0.09759 0.45155 0.0
C409 C 0.20852 0.12347 0.39772 0.0
H410 H 0.30212 0.15791 0.40573 0.0
C411 C 0.21295 0.08917 0.42511 0.0
C412 C 0.24934 0.0797 0.44594 0.0
H413 H 0.17979 0.1304 0.38321 0.0
H414 H 0.18759 0.07078 0.43132 0.0
C415 C 0.28171 0.10402 0.43616 0.0
C416 C 0.63 0.8188 0.92257 0.0
C417 C 0.6622 0.80271 0.94769 0.0
H418 H 0.57058 0.83872 0.92852 0.0
C419 C 0.663 0.80464 0.99938 0.0
H420 H 0.62853 0.81755 0.88271 0.0
C421 C 0.63015 0.81768 1.02548 0.0
C422 C 0.59595 0.82861 1.00029 0.0
H423 H 0.68762 0.79278 1.01962 0.0
H424 H 0.62972 0.81432 0.06518 0.0
C425 C 0.59695 0.83147 0.94877 0.0
C426 C 0.25193 0.63397 0.90223 0.0
C427 C 0.28809 0.63559 0.87755 0.0
H428 H 0.21628 0.60326 0.95413 0.0
C429 C 0.31467 0.6044 0.88269 0.0
H430 H 0.23101 0.65769 0.89946 0.0
C431 C 0.3067 0.57388 0.91497 0.0
C432 C 0.2716 0.57351 0.94177 0.0
H433 H 0.34242 0.60444 0.86329 0.0
H434 H 0.32844 0.55111 0.91989 0.0
C435 C 0.24362 0.60295 0.93381 0.0
C436 C 0.33576 0.20084 0.92976 0.0
C437 C 0.32479 0.24012 0.92186 0.0
H438 H 0.38 0.16136 0.95663 0.0
C439 C 0.3516 0.26978 0.93406 0.0
H440 H 0.31581 0.17725 0.92065 0.0
C441 C 0.38792 0.26076 0.95436 0.0
C442 C 0.3989 0.22171 0.96302 0.0
H443 H 0.34484 0.30024 0.92715 0.0
H444 H 0.40748 0.28475 0.96323 0.0
C445 C 0.37251 0.19171 0.95023 0.0
C446 C 0.7507 0.40084 0.87205 0.0
C447 C 0.76559 0.36359 0.8823 0.0
H448 H 0.74951 0.46112 0.89304 0.0
C449 C 0.79676 0.35954 0.91565 0.0
H450 H 0.72693 0.40445 0.84599 0.0
C451 C 0.80997 0.39213 0.94248 0.0
C452 C 0.79198 0.42869 0.93583 0.0
H453 H 0.8086 0.33086 0.92375 0.0
H454 H 0.83109 0.38791 0.97177 0.0
C455 C 0.76394 0.4332 0.89847 0.0
C456 C 0.63069 0.18092 0.17537 0.0
C457 C 0.66266 0.1976 0.15038 0.0
H458 H 0.57154 0.16028 0.16931 0.0
C459 C 0.66337 0.19619 0.09866 0.0
H460 H 0.6293 0.18175 0.21524 0.0
C461 C 0.63063 0.183 0.07249 0.0
C462 C 0.59664 0.17135 0.09762 0.0
H463 H 0.68781 0.20849 0.07851 0.0
H464 H 0.63009 0.1867 1.03284 0.0
C465 C 0.59777 0.16807 0.14909 0.0
C466 C 0.75868 0.60002 0.22602 0.0
C467 C 0.77046 0.63755 0.21188 0.0
H468 H 0.75955 0.539 0.20852 0.0
C469 C 0.7988 0.64197 0.17487 0.0
H470 H 0.73699 0.59621 0.25478 0.0
C471 C 0.81217 0.60911 0.14872 0.0
C472 C 0.79704 0.57191 0.15952 0.0
H473 H 0.80815 0.67089 0.16369 0.0
H474 H 0.83078 0.61331 0.11683 0.0
C475 C 0.77198 0.56738 0.20009 0.0
C476 C 0.33628 0.79655 0.16941 0.0
C477 C 0.32553 0.75724 0.17745 0.0
H478 H 0.38032 0.83619 0.14249 0.0
C479 C 0.35259 0.72769 0.16557 0.0
H480 H 0.31615 0.82006 0.17825 0.0
C481 C 0.38892 0.73685 0.14536 0.0
C482 C 0.39965 0.77593 0.13649 0.0
H483 H 0.34598 0.69722 0.17259 0.0
H484 H 0.40868 0.71297 0.13664 0.0
C485 C 0.37304 0.80582 0.14907 0.0
C486 C 0.2524 0.36454 0.19534 0.0
C487 C 0.28853 0.36319 0.22008 0.0
H488 H 0.21673 0.39477 0.14302 0.0
C489 C 0.31505 0.39437 0.21454 0.0
H490 H 0.23152 0.34081 0.19842 0.0
C491 C 0.30706 0.42458 0.18183 0.0
C492 C 0.27198 0.42468 0.15501 0.0
H493 H 0.34278 0.39453 0.23398 0.0
H494 H 0.32874 0.44735 0.17663 0.0
C495 C 0.24405 0.39527 0.16334 0.0
C496 C 0.42075 0.28536 0.23749 0.0
C497 C 0.38767 0.26083 0.24013 0.0
H498 H 0.47261 0.30048 0.19741 0.0
C499 C 0.38672 0.2268 0.21097 0.0
H500 H 0.42219 0.31178 0.25968 0.0
C501 C 0.41572 0.22023 0.17532 0.0
C502 C 0.44582 0.24781 0.16809 0.0
H503 H 0.36146 0.20761 0.21189 0.0
H504 H 0.41252 0.19542 0.15063 0.0
C505 C 0.4493 0.27921 0.20135 0.0
C506 C 0.76063 0.34697 0.1712 0.0
C507 C 0.72385 0.32873 0.17461 0.0
H508 H 0.79327 0.39653 0.14567 0.0
C509 C 0.69061 0.3493 0.158 0.0
H510 H 0.78678 0.33192 0.18347 0.0
C511 C 0.69421 0.38629 0.13643 0.0
C512 C 0.73119 0.40374 0.13062 0.0
H513 H 0.66174 0.33631 0.16069 0.0
H514 H 0.66806 0.40061 0.12286 0.0
C515 C 0.76429 0.38395 0.14925 0.0
C516 C 0.62438 0.68551 0.20269 0.0
C517 C 0.64839 0.71655 0.219 0.0
H518 H 0.5743 0.66804 0.16036 0.0
C519 C 0.63607 0.75512 0.21011 0.0
H520 H 0.63241 0.65541 0.20994 0.0
C521 C 0.60222 0.76234 0.18231 0.0
C522 C 0.58015 0.73114 0.16252 0.0
H523 H 0.65385 0.77969 0.22191 0.0
H524 H 0.59475 0.79238 0.17383 0.0
C525 C 0.59091 0.6927 0.17442 0.0
C526 C 0.19001 0.65689 0.15925 0.0
C527 C 0.21975 0.65904 0.1951 0.0
H528 H 0.16157 0.62132 0.104 0.0
C529 C 0.24049 0.62494 0.20696 0.0
H530 H 0.17427 0.68306 0.14869 0.0
C531 C 0.23374 0.59008 0.18107 0.0
C532 C 0.20584 0.58834 0.14296 0.0
H533 H 0.26405 0.62602 0.2337 0.0
H534 H 0.2521 0.56498 0.18887 0.0
C535 C 0.18278 0.62162 0.13368 0.0
C536 C 0.38601 0.7722 0.88835 0.0
C537 C 0.387 0.73833 0.85889 0.0
H538 H 0.41191 0.8034 0.94874 0.0
C539 C 0.42018 0.71388 0.86117 0.0
H540 H 0.36067 0.79131 0.88771 0.0
C541 C 0.44885 0.71998 0.89714 0.0
C542 C 0.44539 0.75123 0.93063 0.0
H543 H 0.42166 0.68757 0.83875 0.0
H544 H 0.47229 0.69879 0.90074 0.0
C545 C 0.41512 0.77872 0.92384 0.0
C546 C 0.18991 0.34046 0.93966 0.0
C547 C 0.21908 0.33826 0.90305 0.0
H548 H 0.16197 0.37624 0.99511 0.0
C549 C 0.23925 0.37245 0.89016 0.0
H550 H 0.17463 0.31423 0.95102 0.0
C551 C 0.23255 0.40747 0.91574 0.0
C552 C 0.20522 0.40929 0.95451 0.0
H553 H 0.26239 0.37134 0.86283 0.0
H554 H 0.25054 0.43267 0.90716 0.0
C555 C 0.18269 0.37589 0.96487 0.0
C556 C 0.62038 0.31292 0.89063 0.0
C557 C 0.64526 0.28218 0.87541 0.0
H558 H 0.5702 0.33005 0.93307 0.0
C559 C 0.63419 0.24354 0.88611 0.0
H560 H 0.62744 0.34301 0.88198 0.0
C561 C 0.60082 0.23609 0.91472 0.0
C562 C 0.57803 0.26715 0.93357 0.0
H563 H 0.65267 0.2192 0.87522 0.0
H564 H 0.59437 0.20611 0.92465 0.0
C565 C 0.58744 0.30553 0.91979 0.0
C566 C 0.75973 0.65271 0.9275 0.0
C567 C 0.72308 0.6713 0.92485 0.0
H568 H 0.7923 0.60297 0.95258 0.0
C569 C 0.68992 0.65117 0.94251 0.0
H570 H 0.78582 0.66742 0.91441 0.0
C571 C 0.69351 0.61428 0.96437 0.0
C572 C 0.73041 0.59648 0.96934 0.0
H573 H 0.66111 0.66439 0.94039 0.0
H574 H 0.66745 0.6003 0.97873 0.0
C575 C 0.76338 0.61583 0.94967 0.0
loop_
_geom_bond_atom_site_label_1
_geom_bond_atom_site_label_2
_geom_bond_distance
_geom_bond_site_symmetry_2
_ccdc_geom_bond_type
H0 C6 0.930 . S
H1 C9 0.931 . S
H2 C11 0.931 . S
H3 C13 0.930 . S
H4 C15 0.930 . S
H5 C17 0.931 . S
C6 H0 0.930 . S
C6 C7 1.380 . S
C6 C8 1.394 . S
C7 C6 1.380 . S
C7 C11 1.382 . S
C8 C6 1.394 . S
C8 C9 1.400 . S
C9 H1 0.931 . S
C9 C8 1.400 . S
C9 C10 1.375 . S
C10 C9 1.375 . S
C10 C11 1.415 . S
C10 C12 1.501 . S
C11 H2 0.931 . S
C11 C7 1.382 . S
C11 C10 1.415 . S
C12 C10 1.501 . S
C12 C13 1.384 . S
C12 C17 1.408 . S
C13 H3 0.930 . S
C13 C12 1.384 . S
C13 C14 1.389 . S
C14 C13 1.389 . S
C14 C15 1.405 . S
C15 H4 0.930 . S
C15 C14 1.405 . S
C15 C16 1.364 . S
C16 C15 1.364 . S
C16 C17 1.400 . S
C17 H5 0.931 . S
C17 C12 1.408 . S
C17 C16 1.400 . S
H18 C24 0.930 . S
H19 C27 0.931 . S
H20 C29 0.931 . S
H21 C31 0.930 . S
H22 C33 0.930 . S
H23 C35 0.931 . S
C24 H18 0.930 . S
C24 C25 1.380 . S
C24 C26 1.394 . S
C25 C24 1.380 . S
C25 C29 1.382 . S
C26 C24 1.394 . S
C26 C27 1.400 . S
C27 H19 0.931 . S
C27 C26 1.400 . S
C27 C28 1.375 . S
C28 C27 1.375 . S
C28 C29 1.415 . S
C28 C30 1.501 . S
C29 H20 0.931 . S
C29 C25 1.382 . S
C29 C28 1.415 . S
C30 C28 1.501 . S
C30 C31 1.384 . S
C30 C35 1.408 . S
C31 H21 0.930 . S
C31 C30 1.384 . S
C31 C32 1.389 . S
C32 C31 1.389 . S
C32 C33 1.405 . S
C33 H22 0.930 . S
C33 C32 1.405 . S
C33 C34 1.364 . S
C34 C33 1.364 . S
C34 C35 1.400 . S
C35 H23 0.931 . S
C35 C30 1.408 . S
C35 C34 1.400 . S
H36 C42 0.930 . S
H37 C45 0.931 . S
H38 C47 0.931 . S
H39 C49 0.930 . S
H40 C51 0.930 . S
H41 C53 0.931 . S
C42 H36 0.930 . S
C42 C43 1.380 . S
C42 C44 1.394 . S
C43 C42 1.380 . S
C43 C47 1.382 . S
C44 C42 1.394 . S
C44 C45 1.400 . S
C45 H37 0.931 . S
C45 C44 1.400 . S
C45 C46 1.375 . S
C46 C45 1.375 . S
C46 C47 1.415 . S
C46 C48 1.501 . S
C47 H38 0.931 . S
C47 C43 1.382 . S
C47 C46 1.415 . S
C48 C46 1.501 . S
C48 C49 1.384 . S
C48 C53 1.408 . S
C49 H39 0.930 . S
C49 C48 1.384 . S
C49 C50 1.389 . S
C50 C49 1.389 . S
C50 C51 1.405 . S
C51 H40 0.930 . S
C51 C50 1.405 . S
C51 C52 1.364 . S
C52 C51 1.364 . S
C52 C53 1.400 . S
C53 H41 0.931 . S
C53 C48 1.408 . S
C53 C52 1.400 . S
H54 C60 0.930 . S
H55 C63 0.931 . S
H56 C65 0.931 . S
H57 C67 0.930 . S
H58 C69 0.930 . S
H59 C71 0.931 . S
C60 H54 0.930 . S
C60 C61 1.380 . S
C60 C62 1.394 . S
C61 C60 1.380 . S
C61 C65 1.382 . S
C62 C60 1.394 . S
C62 C63 1.400 . S
C63 H55 0.931 . S
C63 C62 1.400 . S
C63 C64 1.375 . S
C64 C63 1.375 . S
C64 C65 1.415 . S
C64 C66 1.501 . S
C65 H56 0.931 . S
C65 C61 1.382 . S
C65 C64 1.415 . S
C66 C64 1.501 . S
C66 C67 1.384 . S
C66 C71 1.408 . S
C67 H57 0.930 . S
C67 C66 1.384 . S
C67 C68 1.389 . S
C68 C67 1.389 . S
C68 C69 1.405 . S
C69 H58 0.930 . S
C69 C68 1.405 . S
C69 C70 1.364 . S
C70 C69 1.364 . S
C70 C71 1.400 . S
C71 H59 0.931 . S
C71 C66 1.408 . S
C71 C70 1.400 . S
H72 C78 0.930 . S
H73 C81 0.931 . S
H74 C83 0.931 . S
H75 C85 0.930 . S
H76 C87 0.930 . S
H77 C89 0.931 . S
C78 H72 0.930 . S
C78 C79 1.380 . S
C78 C80 1.394 . S
C79 C78 1.380 . S
C79 C83 1.382 . S
C80 C78 1.394 . S
C80 C81 1.400 . S
C81 H73 0.931 . S
C81 C80 1.400 . S
C81 C82 1.375 . S
C82 C81 1.375 . S
C82 C83 1.415 . S
C82 C84 1.501 . S
C83 H74 0.931 . S
C83 C79 1.382 . S
C83 C82 1.415 . S
C84 C82 1.501 . S
C84 C85 1.384 . S
C84 C89 1.408 . S
C85 H75 0.930 . S
C85 C84 1.384 . S
C85 C86 1.389 . S
C86 C85 1.389 . S
C86 C87 1.405 . S
C87 H76 0.930 . S
C87 C86 1.405 . S
C87 C88 1.364 . S
C88 C87 1.364 . S
C88 C89 1.400 . S
C89 H77 0.931 . S
C89 C84 1.408 . S
C89 C88 1.400 . S
H90 C96 0.930 . S
H91 C99 0.931 . S
H92 C101 0.931 . S
H93 C103 0.930 . S
H94 C105 0.930 . S
H95 C107 0.931 . S
C96 H90 0.930 . S
C96 C97 1.380 . S
C96 C98 1.394 . S
C97 C96 1.380 . S
C97 C101 1.382 . S
C98 C96 1.394 . S
C98 C99 1.400 . S
C99 H91 0.931 . S
C99 C98 1.400 . S
C99 C100 1.375 . S
C100 C99 1.375 . S
C100 C101 1.415 . S
C100 C102 1.501 . S
C101 H92 0.931 . S
C101 C97 1.382 . S
C101 C100 1.415 . S
C102 C100 1.501 . S
C102 C103 1.384 . S
C102 C107 1.408 . S
C103 H93 0.930 . S
C103 C102 1.384 . S
C103 C104 1.389 . S
C104 C103 1.389 . S
C104 C105 1.405 . S
C105 H94 0.930 . S
C105 C104 1.405 . S
C105 C106 1.364 . S
C106 C105 1.364 . S
C106 C107 1.400 . S
C107 H95 0.931 . S
C107 C102 1.408 . S
C107 C106 1.400 . S
H108 C114 0.930 . S
H109 C117 0.931 . S
H110 C119 0.931 . S
H111 C121 0.930 . S
H112 C123 0.930 . S
H113 C125 0.931 . S
C114 H108 0.930 . S
C114 C115 1.380 . S
C114 C116 1.394 . S
C115 C114 1.380 . S
C115 C119 1.382 . S
C116 C114 1.394 . S
C116 C117 1.400 . S
C117 H109 0.931 . S
C117 C116 1.400 . S
C117 C118 1.375 . S
C118 C117 1.375 . S
C118 C119 1.415 . S
C118 C120 1.501 . S
C119 H110 0.931 . S
C119 C115 1.382 . S
C119 C118 1.415 . S
C120 C118 1.501 . S
C120 C121 1.384 . S
C120 C125 1.408 . S
C121 H111 0.930 . S
C121 C120 1.384 . S
C121 C122 1.389 . S
C122 C121 1.389 . S
C122 C123 1.405 . S
C123 H112 0.930 . S
C123 C122 1.405 . S
C123 C124 1.364 . S
C124 C123 1.364 . S
C124 C125 1.400 . S
C125 H113 0.931 . S
C125 C120 1.408 . S
C125 C124 1.400 . S
H126 C132 0.930 . S
H127 C135 0.931 . S
H128 C137 0.931 . S
H129 C139 0.930 . S
H130 C141 0.930 . S
H131 C143 0.931 . S
C132 H126 0.930 . S
C132 C133 1.380 . S
C132 C134 1.394 . S
C133 C132 1.380 . S
C133 C137 1.382 . S
C134 C132 1.394 . S
C134 C135 1.400 . S
C135 H127 0.931 . S
C135 C134 1.400 . S
C135 C136 1.375 . S
C136 C135 1.375 . S
C136 C137 1.415 . S
C136 C138 1.501 . S
C137 H128 0.931 . S
C137 C133 1.382 . S
C137 C136 1.415 . S
C138 C136 1.501 . S
C138 C139 1.384 . S
C138 C143 1.408 . S
C139 H129 0.930 . S
C139 C138 1.384 . S
C139 C140 1.389 . S
C140 C139 1.389 . S
C140 C141 1.405 . S
C141 H130 0.930 . S
C141 C140 1.405 . S
C141 C142 1.364 . S
C142 C141 1.364 . S
C142 C143 1.400 . S
C143 H131 0.931 . S
C143 C138 1.408 . S
C143 C142 1.400 . S
C144 O146 1.247 . S
C144 O148 1.258 . S
C145 O152 1.247 . S
C145 O153 1.258 . S
O146 C144 1.247 . S
O146 Zn147 2.028 1_655 S
Zn147 O146 2.028 1_455 S
Zn147 O151 2.035 . S
Zn147 O153 2.035 . S
Zn147 O154 2.028 1_455 S
O148 C144 1.258 . S
O148 Zn149 2.035 1_655 S
Zn149 O148 2.035 1_455 S
Zn149 O150 2.028 . S
Zn149 O152 2.028 . S
Zn149 O155 2.035 1_455 S
O150 Zn149 2.028 . S
O150 C156 1.247 . S
O151 Zn147 2.035 . S
O151 C156 1.258 . S
O152 C145 1.247 . S
O152 Zn149 2.028 . S
O153 C145 1.258 . S
O153 Zn147 2.035 . S
O154 Zn147 2.028 1_655 S
O154 C157 1.247 . S
O155 Zn149 2.035 1_655 S
O155 C157 1.258 . S
C156 O150 1.247 . S
C156 O151 1.258 . S
C157 O154 1.247 . S
C157 O155 1.258 . S
C158 O160 1.247 . S
C158 O162 1.258 . S
C159 O166 1.247 . S
C159 O167 1.258 . S
O160 C158 1.247 . S
O160 Zn161 2.028 . S
Zn161 O160 2.028 . S
Zn161 O165 2.035 1_545 S
Zn161 O167 2.035 1_545 S
Zn161 O168 2.028 . S
O162 C158 1.258 . S
O162 Zn163 2.055 . S
Zn163 O162 2.055 . S
Zn163 O164 2.008 1_545 S
Zn163 O166 2.008 1_545 S
Zn163 O169 2.055 . S
O164 Zn163 2.008 1_565 S
O164 C170 1.247 . S
O165 Zn161 2.035 1_565 S
O165 C170 1.258 . S
O166 C159 1.247 . S
O166 Zn163 2.008 1_565 S
O167 C159 1.258 . S
O167 Zn161 2.035 1_565 S
O168 Zn161 2.028 . S
O168 C171 1.247 . S
O169 Zn163 2.055 . S
O169 C171 1.258 . S
C170 O164 1.247 . S
C170 O165 1.258 . S
C171 O168 1.247 . S
C171 O169 1.258 . S
C172 O174 1.247 . S
C172 O176 1.258 . S
C173 O180 1.247 . S
C173 O181 1.258 . S
O174 C172 1.247 . S
O174 Zn175 2.028 1_655 S
Zn175 O174 2.028 1_455 S
Zn175 O179 2.035 . S
Zn175 O181 2.035 . S
Zn175 O182 2.028 1_455 S
O176 C172 1.258 . S
O176 Zn177 2.035 1_655 S
Zn177 O176 2.035 1_455 S
Zn177 O178 2.028 . S
Zn177 O180 2.028 . S
Zn177 O183 2.035 1_455 S
O178 Zn177 2.028 . S
O178 C184 1.247 . S
O179 Zn175 2.035 . S
O179 C184 1.258 . S
O180 C173 1.247 . S
O180 Zn177 2.028 . S
O181 C173 1.258 . S
O181 Zn175 2.035 . S
O182 Zn175 2.028 1_655 S
O182 C185 1.247 . S
O183 Zn177 2.035 1_655 S
O183 C185 1.258 . S
C184 O178 1.247 . S
C184 O179 1.258 . S
C185 O182 1.247 . S
C185 O183 1.258 . S
C186 O188 1.247 . S
C186 O190 1.258 . S
C187 O194 1.247 . S
C187 O195 1.258 . S
O188 C186 1.247 . S
O188 Zn189 2.028 . S
Zn189 O188 2.028 . S
Zn189 O193 2.035 1_545 S
Zn189 O195 2.035 1_545 S
Zn189 O196 2.028 . S
O190 C186 1.258 . S
O190 Zn191 2.047 . S
Zn191 O190 2.047 . S
Zn191 O192 2.017 1_545 S
Zn191 O194 2.017 1_545 S
Zn191 O197 2.047 . S
O192 Zn191 2.017 1_565 S
O192 C198 1.247 . S
O193 Zn189 2.035 1_565 S
O193 C198 1.258 . S
O194 C187 1.247 . S
O194 Zn191 2.017 1_565 S
O195 C187 1.258 . S
O195 Zn189 2.035 1_565 S
O196 Zn189 2.028 . S
O196 C199 1.247 . S
O197 Zn191 2.047 . S
O197 C199 1.258 . S
C198 O192 1.247 . S
C198 O193 1.258 . S
C199 O196 1.247 . S
C199 O197 1.258 . S
C200 O202 1.247 . S
C200 O204 1.258 . S
C201 O208 1.247 . S
C201 O209 1.258 . S
O202 C200 1.247 . S
O202 Zn203 2.028 . S
Zn203 O202 2.028 . S
Zn203 O207 2.035 . S
Zn203 O209 2.035 1_554 S
Zn203 O210 2.028 1_554 S
O204 C200 1.258 . S
O204 Zn205 2.035 . S
Zn205 O204 2.035 . S
Zn205 O206 2.028 . S
Zn205 O208 2.028 1_554 S
Zn205 O211 2.035 1_554 S
O206 Zn205 2.028 . S
O206 C212 1.247 . S
O207 Zn203 2.035 . S
O207 C212 1.258 . S
O208 C201 1.247 . S
O208 Zn205 2.028 1_556 S
O209 C201 1.258 . S
O209 Zn203 2.035 1_556 S
O210 Zn203 2.028 1_556 S
O210 C213 1.247 . S
O211 Zn205 2.035 1_556 S
O211 C213 1.258 . S
C212 O206 1.247 . S
C212 O207 1.258 . S
C213 O210 1.247 . S
C213 O211 1.258 . S
C214 O216 1.247 . S
C214 O218 1.258 . S
C215 O222 1.247 . S
C215 O223 1.258 . S
O216 C214 1.247 . S
O216 Zn217 2.044 . S
Zn217 O216 2.044 . S
Zn217 O221 2.051 . S
Zn217 O223 2.019 1_554 S
Zn217 O224 2.012 1_554 S
O218 C214 1.258 . S
O218 Zn219 2.035 . S
Zn219 O218 2.035 . S
Zn219 O220 2.028 . S
Zn219 O222 2.028 1_554 S
Zn219 O225 2.035 1_554 S
O220 Zn219 2.028 . S
O220 C226 1.247 . S
O221 Zn217 2.051 . S
O221 C226 1.258 . S
O222 C215 1.247 . S
O222 Zn219 2.028 1_556 S
O223 C215 1.258 . S
O223 Zn217 2.019 1_556 S
O224 Zn217 2.012 1_556 S
O224 C227 1.247 . S
O225 Zn219 2.035 1_556 S
O225 C227 1.258 . S
C226 O220 1.247 . S
C226 O221 1.258 . S
C227 O224 1.247 . S
C227 O225 1.258 . S
C228 O230 1.247 . S
C228 O232 1.258 . S
C229 O236 1.247 . S
C229 O237 1.258 . S
O230 C228 1.247 . S
O230 Zn231 2.028 1_556 S
Zn231 O230 2.028 1_554 S
Zn231 O235 2.035 1_554 S
Zn231 O237 2.035 . S
Zn231 O238 2.028 . S
O232 C228 1.258 . S
O232 Zn233 2.035 1_556 S
Zn233 O232 2.035 1_554 S
Zn233 O234 2.028 1_554 S
Zn233 O236 2.028 . S
Zn233 O239 2.035 . S
O234 Zn233 2.028 1_556 S
O234 C240 1.247 . S
O235 Zn231 2.035 1_556 S
O235 C240 1.258 . S
O236 C229 1.247 . S
O236 Zn233 2.028 . S
O237 C229 1.258 . S
O237 Zn231 2.035 . S
O238 Zn231 2.028 . S
O238 C241 1.247 . S
O239 Zn233 2.035 . S
O239 C241 1.258 . S
C240 O234 1.247 . S
C240 O235 1.258 . S
C241 O238 1.247 . S
C241 O239 1.258 . S
C242 O244 1.247 . S
C242 O246 1.258 . S
C243 O250 1.247 . S
C243 O251 1.258 . S
O244 C242 1.247 . S
O244 Zn245 2.037 . S
Zn245 O244 2.037 . S
Zn245 O249 2.044 . S
Zn245 O251 2.026 1_554 S
Zn245 O252 2.019 1_554 S
O246 C242 1.258 . S
O246 Zn247 2.047 . S
Zn247 O246 2.047 . S
Zn247 O248 2.040 . S
Zn247 O250 2.016 1_554 S
Zn247 O253 2.023 1_554 S
O248 Zn247 2.040 . S
O248 C254 1.247 . S
O249 Zn245 2.044 . S
O249 C254 1.258 . S
O250 C243 1.247 . S
O250 Zn247 2.016 1_556 S
O251 C243 1.258 . S
O251 Zn245 2.026 1_556 S
O252 Zn245 2.019 1_556 S
O252 C255 1.247 . S
O253 Zn247 2.023 1_556 S
O253 C255 1.258 . S
C254 O248 1.247 . S
C254 O249 1.258 . S
C255 O252 1.247 . S
C255 O253 1.258 . S
C256 C257 1.387 . S
C256 H260 0.950 . S
C256 C265 1.390 . S
C257 C256 1.387 . S
C257 C259 1.387 . S
H258 C265 0.950 . S
C259 C257 1.387 . S
C259 C261 1.390 . S
C259 H263 0.950 . S
H260 C256 0.950 . S
C261 C259 1.390 . S
C261 C262 1.387 . S
C261 H264 0.950 . S
C262 C261 1.387 . S
C262 C265 1.387 . S
H263 C259 0.950 . S
H264 C261 0.950 . S
C265 C256 1.390 . S
C265 H258 0.950 . S
C265 C262 1.387 . S
C266 C267 1.387 . S
C266 H270 0.950 . S
C266 C275 1.390 . S
C267 C266 1.387 . S
C267 C269 1.387 . S
H268 C275 0.950 . S
C269 C267 1.387 . S
C269 C271 1.390 . S
C269 H273 0.950 . S
H270 C266 0.950 . S
C271 C269 1.390 . S
C271 C272 1.387 . S
C271 H274 0.950 . S
C272 C271 1.387 . S
C272 C275 1.387 . S
H273 C269 0.950 . S
H274 C271 0.950 . S
C275 C266 1.390 . S
C275 H268 0.950 . S
C275 C272 1.387 . S
C276 C277 1.387 . S
C276 H280 0.950 . S
C276 C285 1.390 . S
C277 C276 1.387 . S
C277 C279 1.387 . S
H278 C285 0.950 . S
C279 C277 1.387 . S
C279 C281 1.390 . S
C279 H283 0.950 . S
H280 C276 0.950 . S
C281 C279 1.390 . S
C281 C282 1.387 . S
C281 H284 0.950 . S
C282 C281 1.387 . S
C282 C285 1.387 . S
H283 C279 0.950 . S
H284 C281 0.950 . S
C285 C276 1.390 . S
C285 H278 0.950 . S
C285 C282 1.387 . S
C286 C287 1.387 . S
C286 H290 0.950 . S
C286 C295 1.390 . S
C287 C286 1.387 . S
C287 C289 1.387 . S
H288 C295 0.950 . S
C289 C287 1.387 . S
C289 C291 1.390 . S
C289 H293 0.950 . S
H290 C286 0.950 . S
C291 C289 1.390 . S
C291 C292 1.387 . S
C291 H294 0.950 . S
C292 C291 1.387 . S
C292 C295 1.387 . S
H293 C289 0.950 . S
H294 C291 0.950 . S
C295 C286 1.390 . S
C295 H288 0.950 . S
C295 C292 1.387 . S
C296 C297 1.387 . S
C296 H300 0.950 . S
C296 C305 1.390 . S
C297 C296 1.387 . S
C297 C299 1.387 . S
H298 C305 0.950 . S
C299 C297 1.387 . S
C299 C301 1.390 . S
C299 H303 0.950 . S
H300 C296 0.950 . S
C301 C299 1.390 . S
C301 C302 1.387 . S
C301 H304 0.950 . S
C302 C301 1.387 . S
C302 C305 1.387 . S
H303 C299 0.950 . S
H304 C301 0.950 . S
C305 C296 1.390 . S
C305 H298 0.950 . S
C305 C302 1.387 . S
C306 C307 1.387 . S
C306 H310 0.950 . S
C306 C315 1.390 . S
C307 C306 1.387 . S
C307 C309 1.387 . S
H308 C315 0.950 . S
C309 C307 1.387 . S
C309 C311 1.390 . S
C309 H313 0.950 . S
H310 C306 0.950 . S
C311 C309 1.390 . S
C311 C312 1.387 . S
C311 H314 0.950 . S
C312 C311 1.387 . S
C312 C315 1.387 . S
H313 C309 0.950 . S
H314 C311 0.950 . S
C315 C306 1.390 . S
C315 H308 0.950 . S
C315 C312 1.387 . S
C316 C317 1.387 . S
C316 H320 0.950 . S
C316 C325 1.390 . S
C317 C316 1.387 . S
C317 C319 1.387 . S
H318 C325 0.950 . S
C319 C317 1.387 . S
C319 C321 1.390 . S
C319 H323 0.950 . S
H320 C316 0.950 . S
C321 C319 1.390 . S
C321 C322 1.387 . S
C321 H324 0.950 . S
C322 C321 1.387 . S
C322 C325 1.387 . S
H323 C319 0.950 . S
H324 C321 0.950 . S
C325 C316 1.390 . S
C325 H318 0.950 . S
C325 C322 1.387 . S
C326 C327 1.387 . S
C326 H330 0.950 . S
C326 C335 1.390 . S
C327 C326 1.387 . S
C327 C329 1.387 . S
H328 C335 0.950 . S
C329 C327 1.387 . S
C329 C331 1.390 . S
C329 H333 0.950 . S
H330 C326 0.950 . S
C331 C329 1.390 . S
C331 C332 1.387 . S
C331 H334 0.950 . S
C332 C331 1.387 . S
C332 C335 1.387 . S
H333 C329 0.950 . S
H334 C331 0.950 . S
C335 C326 1.390 . S
C335 H328 0.950 . S
C335 C332 1.387 . S
C336 C337 1.387 . S
C336 H340 0.950 . S
C336 C345 1.390 . S
C337 C336 1.387 . S
C337 C339 1.387 . S
H338 C345 0.950 . S
C339 C337 1.387 . S
C339 C341 1.390 . S
C339 H343 0.950 . S
H340 C336 0.950 . S
C341 C339 1.390 . S
C341 C342 1.387 . S
C341 H344 0.950 . S
C342 C341 1.387 . S
C342 C345 1.387 . S
H343 C339 0.950 . S
H344 C341 0.950 . S
C345 C336 1.390 . S
C345 H338 0.950 . S
C345 C342 1.387 . S
C346 C347 1.387 . S
C346 H350 0.950 . S
C346 C355 1.390 . S
C347 C346 1.387 . S
C347 C349 1.387 . S
H348 C355 0.950 . S
C349 C347 1.387 . S
C349 C351 1.390 . S
C349 H353 0.950 . S
H350 C346 0.950 . S
C351 C349 1.390 . S
C351 C352 1.387 . S
C351 H354 0.950 . S
C352 C351 1.387 . S
C352 C355 1.387 . S
H353 C349 0.950 . S
H354 C351 0.950 . S
C355 C346 1.390 . S
C355 H348 0.950 . S
C355 C352 1.387 . S
C356 C357 1.387 . S
C356 H360 0.950 . S
C356 C365 1.390 . S
C357 C356 1.387 . S
C357 C359 1.387 . S
H358 C365 0.950 . S
C359 C357 1.387 . S
C359 C361 1.390 . S
C359 H363 0.950 . S
H360 C356 0.950 . S
C361 C359 1.390 . S
C361 C362 1.387 . S
C361 H364 0.950 . S
C362 C361 1.387 . S
C362 C365 1.387 . S
H363 C359 0.950 . S
H364 C361 0.950 . S
C365 C356 1.390 . S
C365 H358 0.950 . S
C365 C362 1.387 . S
C366 C367 1.387 . S
C366 H370 0.950 . S
C366 C375 1.390 . S
C367 C366 1.387 . S
C367 C369 1.387 . S
H368 C375 0.950 . S
C369 C367 1.387 . S
C369 C371 1.390 . S
C369 H373 0.950 . S
H370 C366 0.950 . S
C371 C369 1.390 . S
C371 C372 1.387 . S
C371 H374 0.950 . S
C372 C371 1.387 . S
C372 C375 1.387 . S
H373 C369 0.950 . S
H374 C371 0.950 . S
C375 C366 1.390 . S
C375 H368 0.950 . S
C375 C372 1.387 . S
C376 C377 1.387 . S
C376 H380 0.950 . S
C376 C385 1.390 . S
C377 C376 1.387 . S
C377 C379 1.387 . S
H378 C385 0.950 . S
C379 C377 1.387 . S
C379 C381 1.390 . S
C379 H383 0.950 . S
H380 C376 0.950 . S
C381 C379 1.390 . S
C381 C382 1.387 . S
C381 H384 0.950 . S
C382 C381 1.387 . S
C382 C385 1.387 . S
H383 C379 0.950 . S
H384 C381 0.950 . S
C385 C376 1.390 . S
C385 H378 0.950 . S
C385 C382 1.387 . S
C386 C387 1.387 . S
C386 H390 0.950 . S
C386 C395 1.390 . S
C387 C386 1.387 . S
C387 C389 1.387 . S
H388 C395 0.950 . S
C389 C387 1.387 . S
C389 C391 1.390 . S
C389 H393 0.950 . S
H390 C386 0.950 . S
C391 C389 1.390 . S
C391 C392 1.387 . S
C391 H394 0.950 . S
C392 C391 1.387 . S
C392 C395 1.387 . S
H393 C389 0.950 . S
H394 C391 0.950 . S
C395 C386 1.390 . S
C395 H388 0.950 . S
C395 C392 1.387 . S
C396 C397 1.387 . S
C396 H400 0.950 . S
C396 C405 1.390 . S
C397 C396 1.387 . S
C397 C399 1.387 . S
H398 C405 0.950 . S
C399 C397 1.387 . S
C399 C401 1.390 . S
C399 H403 0.950 . S
H400 C396 0.950 . S
C401 C399 1.390 . S
C401 C402 1.387 . S
C401 H404 0.950 . S
C402 C401 1.387 . S
C402 C405 1.387 . S
H403 C399 0.950 . S
H404 C401 0.950 . S
C405 C396 1.390 . S
C405 H398 0.950 . S
C405 C402 1.387 . S
C406 C407 1.387 . S
C406 H410 0.950 . S
C406 C415 1.390 . S
C407 C406 1.387 . S
C407 C409 1.387 . S
H408 C415 0.950 . S
C409 C407 1.387 . S
C409 C411 1.390 . S
C409 H413 0.950 . S
H410 C406 0.950 . S
C411 C409 1.390 . S
C411 C412 1.387 . S
C411 H414 0.950 . S
C412 C411 1.387 . S
C412 C415 1.387 . S
H413 C409 0.950 . S
H414 C411 0.950 . S
C415 C406 1.390 . S
C415 H408 0.950 . S
C415 C412 1.387 . S
C416 C417 1.387 . S
C416 H420 0.950 . S
C416 C425 1.390 . S
C417 C416 1.387 . S
C417 C419 1.387 . S
H418 C425 0.950 . S
C419 C417 1.387 . S
C419 C421 1.390 . S
C419 H423 0.950 . S
H420 C416 0.950 . S
C421 C419 1.390 . S
C421 C422 1.387 . S
C421 H424 0.950 . S
C422 C421 1.387 . S
C422 C425 1.387 . S
H423 C419 0.950 . S
H424 C421 0.950 . S
C425 C416 1.390 . S
C425 H418 0.950 . S
C425 C422 1.387 . S
C426 C427 1.387 . S
C426 H430 0.950 . S
C426 C435 1.390 . S
C427 C426 1.387 . S
C427 C429 1.387 . S
H428 C435 0.950 . S
C429 C427 1.387 . S
C429 C431 1.390 . S
C429 H433 0.950 . S
H430 C426 0.950 . S
C431 C429 1.390 . S
C431 C432 1.387 . S
C431 H434 0.950 . S
C432 C431 1.387 . S
C432 C435 1.387 . S
H433 C429 0.950 . S
H434 C431 0.950 . S
C435 C426 1.390 . S
C435 H428 0.950 . S
C435 C432 1.387 . S
C436 C437 1.387 . S
C436 H440 0.950 . S
C436 C445 1.390 . S
C437 C436 1.387 . S
C437 C439 1.387 . S
H438 C445 0.950 . S
C439 C437 1.387 . S
C439 C441 1.390 . S
C439 H443 0.950 . S
H440 C436 0.950 . S
C441 C439 1.390 . S
C441 C442 1.387 . S
C441 H444 0.950 . S
C442 C441 1.387 . S
C442 C445 1.387 . S
H443 C439 0.950 . S
H444 C441 0.950 . S
C445 C436 1.390 . S
C445 H438 0.950 . S
C445 C442 1.387 . S
C446 C447 1.387 . S
C446 H450 0.950 . S
C446 C455 1.390 . S
C447 C446 1.387 . S
C447 C449 1.387 . S
H448 C455 0.950 . S
C449 C447 1.387 . S
C449 C451 1.390 . S
C449 H453 0.950 . S
H450 C446 0.950 . S
C451 C449 1.390 . S
C451 C452 1.387 . S
C451 H454 0.950 . S
C452 C451 1.387 . S
C452 C455 1.387 . S
H453 C449 0.950 . S
H454 C451 0.950 . S
C455 C446 1.390 . S
C455 H448 0.950 . S
C455 C452 1.387 . S
C456 C457 1.387 . S
C456 H460 0.950 . S
C456 C465 1.390 . S
C457 C456 1.387 . S
C457 C459 1.387 . S
H458 C465 0.950 . S
C459 C457 1.387 . S
C459 C461 1.390 . S
C459 H463 0.950 . S
H460 C456 0.950 . S
C461 C459 1.390 . S
C461 C462 1.387 . S
C461 H464 0.950 . S
C462 C461 1.387 . S
C462 C465 1.387 . S
H463 C459 0.950 . S
H464 C461 0.950 . S
C465 C456 1.390 . S
C465 H458 0.950 . S
C465 C462 1.387 . S
C466 C467 1.387 . S
C466 H470 0.950 . S
C466 C475 1.390 . S
C467 C466 1.387 . S
C467 C469 1.387 . S
H468 C475 0.950 . S
C469 C467 1.387 . S
C469 C471 1.390 . S
C469 H473 0.950 . S
H470 C466 0.950 . S
C471 C469 1.390 . S
C471 C472 1.387 . S
C471 H474 0.950 . S
C472 C471 1.387 . S
C472 C475 1.387 . S
H473 C469 0.950 . S
H474 C471 0.950 . S
C475 C466 1.390 . S
C475 H468 0.950 . S
C475 C472 1.387 . S
C476 C477 1.387 . S
C476 H480 0.950 . S
C476 C485 1.390 . S
C477 C476 1.387 . S
C477 C479 1.387 . S
H478 C485 0.950 . S
C479 C477 1.387 . S
C479 C481 1.390 . S
C479 H483 0.950 . S
H480 C476 0.950 . S
C481 C479 1.390 . S
C481 C482 1.387 . S
C481 H484 0.950 . S
C482 C481 1.387 . S
C482 C485 1.387 . S
H483 C479 0.950 . S
H484 C481 0.950 . S
C485 C476 1.390 . S
C485 H478 0.950 . S
C485 C482 1.387 . S
C486 C487 1.387 . S
C486 H490 0.950 . S
C486 C495 1.390 . S
C487 C486 1.387 . S
C487 C489 1.387 . S
H488 C495 0.950 . S
C489 C487 1.387 . S
C489 C491 1.390 . S
C489 H493 0.950 . S
H490 C486 0.950 . S
C491 C489 1.390 . S
C491 C492 1.387 . S
C491 H494 0.950 . S
C492 C491 1.387 . S
C492 C495 1.387 . S
H493 C489 0.950 . S
H494 C491 0.950 . S
C495 C486 1.390 . S
C495 H488 0.950 . S
C495 C492 1.387 . S
C496 C497 1.387 . S
C496 H500 0.950 . S
C496 C505 1.390 . S
C497 C496 1.387 . S
C497 C499 1.387 . S
H498 C505 0.950 . S
C499 C497 1.387 . S
C499 C501 1.390 . S
C499 H503 0.950 . S
H500 C496 0.950 . S
C501 C499 1.390 . S
C501 C502 1.387 . S
C501 H504 0.950 . S
C502 C501 1.387 . S
C502 C505 1.387 . S
H503 C499 0.950 . S
H504 C501 0.950 . S
C505 C496 1.390 . S
C505 H498 0.950 . S
C505 C502 1.387 . S
C506 C507 1.387 . S
C506 H510 0.950 . S
C506 C515 1.390 . S
C507 C506 1.387 . S
C507 C509 1.387 . S
H508 C515 0.950 . S
C509 C507 1.387 . S
C509 C511 1.390 . S
C509 H513 0.950 . S
H510 C506 0.950 . S
C511 C509 1.390 . S
C511 C512 1.387 . S
C511 H514 0.950 . S
C512 C511 1.387 . S
C512 C515 1.387 . S
H513 C509 0.950 . S
H514 C511 0.950 . S
C515 C506 1.390 . S
C515 H508 0.950 . S
C515 C512 1.387 . S
C516 C517 1.387 . S
C516 H520 0.950 . S
C516 C525 1.390 . S
C517 C516 1.387 . S
C517 C519 1.387 . S
H518 C525 0.950 . S
C519 C517 1.387 . S
C519 C521 1.390 . S
C519 H523 0.950 . S
H520 C516 0.950 . S
C521 C519 1.390 . S
C521 C522 1.387 . S
C521 H524 0.950 . S
C522 C521 1.387 . S
C522 C525 1.387 . S
H523 C519 0.950 . S
H524 C521 0.950 . S
C525 C516 1.390 . S
C525 H518 0.950 . S
C525 C522 1.387 . S
C526 C527 1.387 . S
C526 H530 0.950 . S
C526 C535 1.390 . S
C527 C526 1.387 . S
C527 C529 1.387 . S
H528 C535 0.950 . S
C529 C527 1.387 . S
C529 C531 1.390 . S
C529 H533 0.950 . S
H530 C526 0.950 . S
C531 C529 1.390 . S
C531 C532 1.387 . S
C531 H534 0.950 . S
C532 C531 1.387 . S
C532 C535 1.387 . S
H533 C529 0.950 . S
H534 C531 0.950 . S
C535 C526 1.390 . S
C535 H528 0.950 . S
C535 C532 1.387 . S
C536 C537 1.387 . S
C536 H540 0.950 . S
C536 C545 1.390 . S
C537 C536 1.387 . S
C537 C539 1.387 . S
H538 C545 0.950 . S
C539 C537 1.387 . S
C539 C541 1.390 . S
C539 H543 0.950 . S
H540 C536 0.950 . S
C541 C539 1.390 . S
C541 C542 1.387 . S
C541 H544 0.950 . S
C542 C541 1.387 . S
C542 C545 1.387 . S
H543 C539 0.950 . S
H544 C541 0.950 . S
C545 C536 1.390 . S
C545 H538 0.950 . S
C545 C542 1.387 . S
C546 C547 1.387 . S
C546 H550 0.950 . S
C546 C555 1.390 . S
C547 C546 1.387 . S
C547 C549 1.387 . S
H548 C555 0.950 . S
C549 C547 1.387 . S
C549 C551 1.390 . S
C549 H553 0.950 . S
H550 C546 0.950 . S
C551 C549 1.390 . S
C551 C552 1.387 . S
C551 H554 0.950 . S
C552 C551 1.387 . S
C552 C555 1.387 . S
H553 C549 0.950 . S
H554 C551 0.950 . S
C555 C546 1.390 . S
C555 H548 0.950 . S
C555 C552 1.387 . S
C556 C557 1.387 . S
C556 H560 0.950 . S
C556 C565 1.390 . S
C557 C556 1.387 . S
C557 C559 1.387 . S
H558 C565 0.950 . S
C559 C557 1.387 . S
C559 C561 1.390 . S
C559 H563 0.950 . S
H560 C556 0.950 . S
C561 C559 1.390 . S
C561 C562 1.387 . S
C561 H564 0.950 . S
C562 C561 1.387 . S
C562 C565 1.387 . S
H563 C559 0.950 . S
H564 C561 0.950 . S
C565 C556 1.390 . S
C565 H558 0.950 . S
C565 C562 1.387 . S
C566 C567 1.387 . S
C566 H570 0.950 . S
C566 C575 1.390 . S
C567 C566 1.387 . S
C567 C569 1.387 . S
H568 C575 0.950 . S
C569 C567 1.387 . S
C569 C571 1.390 . S
C569 H573 0.950 . S
H570 C566 0.950 . S
C571 C569 1.390 . S
C571 C572 1.387 . S
C571 H574 0.950 . S
C572 C571 1.387 . S
C572 C575 1.387 . S
H573 C569 0.950 . S
H574 C571 0.950 . S
C575 C566 1.390 . S
C575 H568 0.950 . S
C575 C572 1.387 . S
C262 C145 1.508 . S
C257 C7 1.442 . S
C272 C171 1.509 . S
C267 C32 1.451 . S
C282 C185 1.505 . S
C277 C44 1.449 . S
C292 C187 1.504 . S
C287 C62 1.447 . S
C297 C88 1.441 . S
C302 C184 1.507 . S
C312 C186 1.506 . S
C307 C106 1.440 . S
C322 C144 1.507 . S
C317 C124 1.443 . S
C332 C170 1.508 . S
C327 C140 1.450 . S
C342 C172 1.504 . S
C337 C142 1.444 . S
C352 C198 1.502 . S
C347 C86 1.444 . S
C362 C156 1.505 . S
C357 C104 1.447 . S
C372 C158 1.505 . S
C367 C122 1.447 . S
C382 C157 1.503 . S
C377 C34 1.441 . S
C392 C159 1.504 . S
C387 C43 1.442 . S
C402 C173 1.502 . S
C397 C61 1.441 . S
C412 C199 1.500 . S
C407 C8 1.446 . S
C422 C201 1.507 . S
C417 C133 1.443 . S
C427 C80 1.448 . S
C432 C227 1.507 . S
C437 C98 1.447 . S
C442 C240 1.504 . S
C447 C116 1.448 . S
C452 C243 1.505 . S
C457 C25 1.443 . S
C462 C241 1.508 . S
C467 C52 1.442 . S
C472 C242 1.507 . S
C477 C70 1.444 . S
C482 C200 1.507 . S
C492 C226 1.508 . S
C487 C14 1.449 . S
C502 C229 1.503 . S
C497 C16 1.441 . S
C507 C26 1.446 . S
C512 C254 1.501 . S
C517 C50 1.447 . S
C522 C212 1.503 . S
C527 C68 1.449 . S
C532 C214 1.505 . S
C542 C213 1.504 . S
C537 C79 1.445 . S
C552 C215 1.505 . S
C547 C97 1.444 . S
C557 C115 1.440 . S
C562 C228 1.503 . S
C572 C255 1.500 . S
C567 C134 1.446 . S
