# Generated by pormake.
# Topology pyr, (3,6)-cn, num edge types: 1
# Building blocks:
#     Node 0, Type 0, BuildingBlock: BELTOD_clean_linker_0, # of connection points: 3
#     Node 1, Type 0, BuildingBlock: BELTOD_clean_linker_0, # of connection points: 3
#     Node 2, Type 0, BuildingBlock: BELTOD_clean_linker_0, # of connection points: 3
#     Node 3, Type 0, BuildingBlock: BELTOD_clean_linker_0, # of connection points: 3
#     Node 4, Type 0, BuildingBlock: BELTOD_clean_linker_0, # of connection points: 3
#     Node 5, Type 0, BuildingBlock: BELTOD_clean_linker_0, # of connection points: 3
#     Node 6, Type 0, BuildingBlock: BELTOD_clean_linker_0, # of connection points: 3
#     Node 7, Type 0, BuildingBlock: BELTOD_clean_linker_0, # of connection points: 3
#     Node 8, Type 1, BuildingBlock: BETDEL_clean_sbu_0, # of connection points: 6
#     Node 9, Type 1, BuildingBlock: BETDEL_clean_sbu_0, # of connection points: 6
#     Node 10, Type 1, BuildingBlock: BETDEL_clean_sbu_0, # of connection points: 6
#     Node 11, Type 1, BuildingBlock: BETDEL_clean_sbu_0, # of connection points: 6
#     Edge 12, Type (0, 1), BuildingBlock: AJUNOK_clean_linker_0, # of connection points: 2
#     Edge 13, Type (0, 1), BuildingBlock: AJUNOK_clean_linker_0, # of connection points: 2
#     Edge 14, Type (0, 1), BuildingBlock: AJUNOK_clean_linker_0, # of connection points: 2
#     Edge 15, Type (0, 1), BuildingBlock: AJUNOK_clean_linker_0, # of connection points: 2
#     Edge 16, Type (0, 1), BuildingBlock: AJUNOK_clean_linker_0, # of connection points: 2
#     Edge 17, Type (0, 1), BuildingBlock: AJUNOK_clean_linker_0, # of connection points: 2
#     Edge 18, Type (0, 1), BuildingBlock: AJUNOK_clean_linker_0, # of connection points: 2
#     Edge 19, Type (0, 1), BuildingBlock: AJUNOK_clean_linker_0, # of connection points: 2
#     Edge 20, Type (0, 1), BuildingBlock: AJUNOK_clean_linker_0, # of connection points: 2
#     Edge 21, Type (0, 1), BuildingBlock: AJUNOK_clean_linker_0, # of connection points: 2
#     Edge 22, Type (0, 1), BuildingBlock: AJUNOK_clean_linker_0, # of connection points: 2
#     Edge 23, Type (0, 1), BuildingBlock: AJUNOK_clean_linker_0, # of connection points: 2
#     Edge 24, Type (0, 1), BuildingBlock: AJUNOK_clean_linker_0, # of connection points: 2
#     Edge 25, Type (0, 1), BuildingBlock: AJUNOK_clean_linker_0, # of connection points: 2
#     Edge 26, Type (0, 1), BuildingBlock: AJUNOK_clean_linker_0, # of connection points: 2
#     Edge 27, Type (0, 1), BuildingBlock: AJUNOK_clean_linker_0, # of connection points: 2
#     Edge 28, Type (0, 1), BuildingBlock: AJUNOK_clean_linker_0, # of connection points: 2
#     Edge 29, Type (0, 1), BuildingBlock: AJUNOK_clean_linker_0, # of connection points: 2
#     Edge 30, Type (0, 1), BuildingBlock: AJUNOK_clean_linker_0, # of connection points: 2
#     Edge 31, Type (0, 1), BuildingBlock: AJUNOK_clean_linker_0, # of connection points: 2
#     Edge 32, Type (0, 1), BuildingBlock: AJUNOK_clean_linker_0, # of connection points: 2
#     Edge 33, Type (0, 1), BuildingBlock: AJUNOK_clean_linker_0, # of connection points: 2
#     Edge 34, Type (0, 1), BuildingBlock: AJUNOK_clean_linker_0, # of connection points: 2
#     Edge 35, Type (0, 1), BuildingBlock: AJUNOK_clean_linker_0, # of connection points: 2
# Relax obj value: 0.034
# Max RMSD: 0.095
# Mean RMSD: 0.041
data_MOF--net-pyr--node1-BETDEL_clean_sbu_0--node2-BELTOD_clean_linker_0--edge1-AJUNOK_clean_linker_0
_symmetry_space_group_name_H-M    P1
_symmetry_Int_Tables_number       1
_symmetry_cell_setting            triclinic
loop_
_symmetry_equiv_pos_as_xyz
'x, y, z'
_cell_length_a     31.98023
_cell_length_b     33.653056
_cell_length_c     30.55102
_cell_angle_alpha  91.255037
_cell_angle_beta   89.098172
_cell_angle_gamma 95.796714
loop_
_atom_site_label
_atom_site_type_symbol
_atom_site_fract_x
_atom_site_fract_y
_atom_site_fract_z
_atom_type_partial_charge
P0 P 0.27415 0.26649 0.23115 0.0
H1 H 0.36207 0.26008 0.20642 0.0
H2 H 0.39579 0.21002 0.16294 0.0
H3 H 0.27491 0.14272 0.14343 0.0
H4 H 0.24159 0.19216 0.18793 0.0
H5 H 0.22805 0.33518 0.2478 0.0
H6 H 0.17673 0.36539 0.20382 0.0
H7 H 0.20713 0.29161 0.09273 0.0
H8 H 0.25888 0.26233 0.13604 0.0
H9 H 0.28404 0.22088 0.30893 0.0
H10 H 0.18211 0.24864 0.22761 0.0
O11 O 0.30866 0.29552 0.26108 0.0
H12 H 0.2353 0.17434 0.34975 0.0
H13 H 0.13315 0.20386 0.2696 0.0
C14 C 0.29955 0.22953 0.20062 0.0
C15 C 0.34294 0.23445 0.19299 0.0
C16 C 0.36201 0.20609 0.1678 0.0
C17 C 0.33772 0.17291 0.14931 0.0
C18 C 0.29426 0.16799 0.15738 0.0
C19 C 0.27531 0.19615 0.18283 0.0
C20 C 0.24695 0.29631 0.19541 0.0
C21 C 0.2245 0.32638 0.21363 0.0
C22 C 0.19481 0.34307 0.18878 0.0
C23 C 0.1873 0.32978 0.14544 0.0
C24 C 0.21209 0.3019 0.12627 0.0
C25 C 0.24172 0.28518 0.15115 0.0
C26 C 0.23661 0.23918 0.26621 0.0
C27 C 0.25098 0.21805 0.3009 0.0
C28 C 0.2231 0.19151 0.32414 0.0
C29 C 0.18032 0.18603 0.3132 0.0
C30 C 0.16593 0.20764 0.27874 0.0
C31 C 0.19392 0.23378 0.25518 0.0
P32 P 0.30586 0.84353 0.63636 0.0
H33 H 0.38476 0.86789 0.67959 0.0
H34 H 0.40213 0.88727 0.75531 0.0
H35 H 0.27062 0.86932 0.79149 0.0
H36 H 0.25334 0.84967 0.71558 0.0
H37 H 0.3148 0.79454 0.55774 0.0
H38 H 0.33934 0.72838 0.54616 0.0
H39 H 0.34167 0.71318 0.68597 0.0
H40 H 0.31656 0.7788 0.69753 0.0
H41 H 0.26668 0.91664 0.6476 0.0
H42 H 0.23233 0.79827 0.59444 0.0
O43 O 0.33975 0.87015 0.60366 0.0
H44 H 0.20028 0.93775 0.62335 0.0
H45 H 0.16531 0.81931 0.57013 0.0
C46 C 0.31773 0.85864 0.69186 0.0
C47 C 0.35965 0.86841 0.70374 0.0
C48 C 0.36954 0.87906 0.74697 0.0
C49 C 0.33761 0.88001 0.77893 0.0
C50 C 0.29565 0.86932 0.76719 0.0
C51 C 0.28581 0.85832 0.72391 0.0
C52 C 0.31424 0.79179 0.62838 0.0
C53 C 0.31952 0.77652 0.58585 0.0
C54 C 0.33344 0.73876 0.57929 0.0
C55 C 0.34243 0.71589 0.61526 0.0
C56 C 0.33507 0.7304 0.65779 0.0
C57 C 0.3207 0.76794 0.66432 0.0
C58 C 0.25424 0.85587 0.62314 0.0
C59 C 0.24434 0.89493 0.63158 0.0
C60 C 0.20621 0.90687 0.61805 0.0
C61 C 0.17729 0.87997 0.59552 0.0
C62 C 0.18693 0.84051 0.58777 0.0
C63 C 0.22519 0.8285 0.60158 0.0
P64 P 0.67355 0.30801 0.82711 0.0
H65 H 0.73302 0.2833 0.88964 0.0
H66 H 0.79035 0.31944 0.93062 0.0
H67 H 0.75877 0.43038 0.8774 0.0
H68 H 0.69967 0.39448 0.83942 0.0
H69 H 0.61028 0.24552 0.79806 0.0
H70 H 0.56965 0.19073 0.83589 0.0
H71 H 0.61709 0.23828 0.95982 0.0
H72 H 0.65719 0.29349 0.92193 0.0
H73 H 0.70623 0.35468 0.75353 0.0
H74 H 0.58684 0.33221 0.8205 0.0
O75 O 0.70128 0.27941 0.79491 0.0
H76 H 0.67457 0.39546 0.7006 0.0
H77 H 0.55441 0.37239 0.76655 0.0
C78 C 0.71161 0.33609 0.86186 0.0
C79 C 0.73768 0.31556 0.88786 0.0
C80 C 0.77078 0.33625 0.9109 0.0
C81 C 0.77922 0.37794 0.90759 0.0
C82 C 0.75264 0.39849 0.88183 0.0
C83 C 0.71894 0.37781 0.85954 0.0
C84 C 0.63711 0.27351 0.85694 0.0
C85 C 0.61134 0.24465 0.83345 0.0
C86 C 0.58829 0.21323 0.8551 0.0
C87 C 0.59083 0.20978 0.90076 0.0
C88 C 0.61527 0.23967 0.92453 0.0
C89 C 0.63804 0.2714 0.90281 0.0
C90 C 0.64886 0.34003 0.79066 0.0
C91 C 0.67312 0.35861 0.75687 0.0
C92 C 0.65495 0.3819 0.72657 0.0
C93 C 0.61191 0.38716 0.72919 0.0
C94 C 0.58775 0.36939 0.7639 0.0
C95 C 0.60616 0.34611 0.79454 0.0
P96 P 0.80901 0.683 0.30468 0.0
H97 H 0.82947 0.76488 0.27512 0.0
H98 H 0.86591 0.82467 0.30895 0.0
H99 H 0.89562 0.75565 0.41977 0.0
H100 H 0.85763 0.69583 0.3861 0.0
H101 H 0.78444 0.61922 0.24155 0.0
H102 H 0.82377 0.57996 0.19005 0.0
H103 H 0.94024 0.63909 0.23907 0.0
H104 H 0.90062 0.67829 0.29089 0.0
H105 H 0.7588 0.71091 0.37704 0.0
H106 H 0.78581 0.59687 0.32257 0.0
O107 O 0.77491 0.70086 0.2713 0.0
H108 H 0.70612 0.67734 0.42603 0.0
H109 H 0.73298 0.56309 0.37163 0.0
C110 C 0.84035 0.72589 0.32827 0.0
C111 C 0.844 0.76243 0.30659 0.0
C112 C 0.86528 0.79667 0.32584 0.0
C113 C 0.88407 0.79507 0.36702 0.0
C114 C 0.8813 0.75805 0.38817 0.0
C115 C 0.85978 0.72377 0.36889 0.0
C116 C 0.83946 0.65151 0.27044 0.0
C117 C 0.81847 0.62343 0.24168 0.0
C118 C 0.84098 0.60105 0.21213 0.0
C119 C 0.88513 0.60664 0.21012 0.0
C120 C 0.90623 0.63452 0.23932 0.0
C121 C 0.88359 0.6567 0.26927 0.0
C122 C 0.77686 0.65658 0.34636 0.0
C123 C 0.75425 0.67857 0.37638 0.0
C124 C 0.72407 0.65929 0.40448 0.0
C125 C 0.71554 0.61744 0.40307 0.0
C126 C 0.7388 0.59535 0.37353 0.0
C127 C 0.76921 0.61472 0.34551 0.0
P128 P 0.83331 0.8719 0.92829 0.0
H129 H 0.7695 0.83365 0.98661 0.0
H130 H 0.69485 0.84161 0.99653 0.0
H131 H 0.69972 0.91614 0.88289 0.0
H132 H 0.77365 0.90683 0.87207 0.0
H133 H 0.9112 0.85253 0.96565 0.0
H134 H 0.94111 0.78908 0.97447 0.0
H135 H 0.8268 0.72538 0.92555 0.0
H136 H 0.79704 0.78888 0.91648 0.0
H137 H 0.85569 0.94929 0.88917 0.0
H138 H 0.85667 0.82513 0.85107 0.0
O139 O 0.85101 0.9062 0.96562 0.0
H140 H 0.88499 0.96887 0.81758 0.0
H141 H 0.88804 0.84451 0.7805 0.0
C142 C 0.77705 0.86941 0.9285 0.0
C143 C 0.75408 0.85031 0.96278 0.0
C144 C 0.71148 0.85485 0.9684 0.0
C145 C 0.69155 0.8794 0.94041 0.0
C146 C 0.71399 0.89634 0.90439 0.0
C147 C 0.75652 0.89141 0.89852 0.0
C148 C 0.85159 0.82519 0.94159 0.0
C149 C 0.89227 0.82486 0.9577 0.0
C150 C 0.90947 0.78879 0.96223 0.0
C151 C 0.88621 0.75269 0.95033 0.0
C152 C 0.8451 0.75298 0.93511 0.0
C153 C 0.82802 0.78912 0.93031 0.0
C154 C 0.85504 0.88587 0.87578 0.0
C155 C 0.86289 0.9263 0.86568 0.0
C156 C 0.87991 0.93741 0.82495 0.0
C157 C 0.88985 0.90817 0.79397 0.0
C158 C 0.88096 0.86764 0.80388 0.0
C159 C 0.86332 0.85657 0.84438 0.0
P160 P 0.80056 0.24658 0.30332 0.0
H161 H 0.79473 0.33282 0.30469 0.0
H162 H 0.74315 0.37407 0.3369 0.0
H163 H 0.67706 0.26953 0.39504 0.0
H164 H 0.72851 0.22817 0.36196 0.0
H165 H 0.84803 0.17913 0.28449 0.0
H166 H 0.87861 0.13159 0.33086 0.0
H167 H 0.83993 0.19582 0.44603 0.0
H168 H 0.80883 0.24301 0.39946 0.0
H169 H 0.77622 0.2601 0.21336 0.0
H170 H 0.75157 0.16896 0.31017 0.0
O171 O 0.83804 0.27476 0.27643 0.0
H172 H 0.72871 0.22083 0.16256 0.0
H173 H 0.70443 0.12989 0.2598 0.0
C174 C 0.76587 0.27758 0.33168 0.0
C175 C 0.76959 0.31883 0.32493 0.0
C176 C 0.7401 0.34239 0.3434 0.0
C177 C 0.70638 0.32505 0.3689 0.0
C178 C 0.70275 0.28365 0.37555 0.0
C179 C 0.73226 0.2601 0.357 0.0
C180 C 0.82536 0.21401 0.33853 0.0
C181 C 0.84613 0.18297 0.31974 0.0
C182 C 0.86369 0.15592 0.34622 0.0
C183 C 0.86099 0.15961 0.39204 0.0
C184 C 0.84148 0.19166 0.41081 0.0
C185 C 0.82385 0.21874 0.38422 0.0
C186 C 0.76843 0.21676 0.26487 0.0
C187 C 0.76116 0.2314 0.22337 0.0
C188 C 0.73392 0.20916 0.19457 0.0
C189 C 0.71369 0.17207 0.20708 0.0
C190 C 0.72057 0.1579 0.24898 0.0
C191 C 0.74751 0.18019 0.27773 0.0
P192 P 0.37772 0.67138 0.1524 0.0
H193 H 0.34913 0.60528 0.09342 0.0
H194 H 0.28002 0.57759 0.06855 0.0
H195 H 0.22204 0.66226 0.15197 0.0
H196 H 0.29195 0.69073 0.17606 0.0
H197 H 0.43873 0.72983 0.1948 0.0
H198 H 0.45735 0.80097 0.18392 0.0
H199 H 0.35149 0.80344 0.09828 0.0
H200 H 0.33446 0.73168 0.10745 0.0
H201 H 0.45802 0.651 0.18466 0.0
H202 H 0.33003 0.64523 0.2325 0.0
O203 O 0.41132 0.65767 0.11391 0.0
H204 H 0.47817 0.61728 0.24993 0.0
H205 H 0.35006 0.61082 0.29793 0.0
C206 C 0.32581 0.65066 0.1359 0.0
C207 C 0.32168 0.61819 0.10621 0.0
C208 C 0.28204 0.60218 0.09216 0.0
C209 C 0.2455 0.61805 0.10777 0.0
C210 C 0.24961 0.65 0.13848 0.0
C211 C 0.28948 0.6661 0.15251 0.0
C212 C 0.38429 0.72542 0.15323 0.0
C213 C 0.41872 0.74582 0.17474 0.0
C214 C 0.42928 0.78675 0.16855 0.0
C215 C 0.4055 0.80834 0.14078 0.0
C216 C 0.37044 0.78789 0.11999 0.0
C217 C 0.36026 0.74683 0.12578 0.0
C218 C 0.39233 0.64999 0.20316 0.0
C219 C 0.43417 0.64243 0.20918 0.0
C220 C 0.44564 0.62289 0.24641 0.0
C221 C 0.4155 0.61044 0.27858 0.0
C222 C 0.37391 0.61971 0.27352 0.0
C223 C 0.36242 0.63932 0.23608 0.0
P224 P 0.1994 0.31852 0.70978 0.0
H225 H 0.2164 0.23805 0.6833 0.0
H226 H 0.17543 0.18289 0.6454 0.0
H227 H 0.07426 0.25688 0.62982 0.0
H228 H 0.11556 0.31235 0.66846 0.0
H229 H 0.28223 0.36029 0.72503 0.0
H230 H 0.33605 0.39275 0.67682 0.0
H231 H 0.24998 0.37728 0.56875 0.0
H232 H 0.19665 0.34293 0.61718 0.0
H233 H 0.16297 0.3038 0.79634 0.0
H234 H 0.16578 0.39719 0.7018 0.0
O235 O 0.22943 0.29546 0.74329 0.0
H236 H 0.12601 0.34392 0.84848 0.0
H237 H 0.1267 0.43722 0.75352 0.0
C238 C 0.16879 0.27917 0.67945 0.0
C239 C 0.18536 0.24254 0.67192 0.0
C240 C 0.1619 0.21093 0.65027 0.0
C241 C 0.12155 0.21541 0.63483 0.0
C242 C 0.10536 0.25258 0.64121 0.0
C243 C 0.12882 0.28422 0.6634 0.0
C244 C 0.23565 0.34843 0.67461 0.0
C245 C 0.27478 0.36397 0.691 0.0
C246 C 0.30558 0.38278 0.66331 0.0
C247 C 0.29789 0.38703 0.6185 0.0
C248 C 0.25762 0.37342 0.60268 0.0
C249 C 0.22685 0.35416 0.63047 0.0
C250 C 0.16754 0.34757 0.74525 0.0
C251 C 0.155 0.33279 0.7865 0.0
C252 C 0.13336 0.3557 0.81627 0.0
C253 C 0.12273 0.39376 0.80522 0.0
C254 C 0.13449 0.40815 0.76328 0.0
C255 C 0.15663 0.38522 0.73354 0.0
Dy256 Dy 0.02496 0.01933 0.46006 0.0
C257 C 0.95237 0.96163 0.62474 0.0
C258 C 0.07434 0.06387 0.40341 0.0
Dy259 Dy 0.97408 0.99333 0.54586 0.0
O260 O 0.08641 0.05013 0.43988 0.0
O261 O 0.03501 0.05148 0.39606 0.0
O262 O 0.05861 0.96445 0.46357 0.0
O263 O 0.03846 0.99131 0.52163 0.0
C264 C 0.0549 0.96152 0.50582 0.0
C265 C 0.93142 0.04161 0.4975 0.0
O266 O 0.01855 0.04436 0.57099 0.0
O267 O 0.0328 0.074 0.50405 0.0
O268 O 0.96615 0.99862 0.61835 0.0
O269 O 0.94975 0.94164 0.58781 0.0
O270 O 0.91667 0.02687 0.53429 0.0
O271 O 0.96609 0.0285 0.49039 0.0
O272 O 0.97895 0.97154 0.43162 0.0
O273 O 0.96013 0.94132 0.49831 0.0
C274 C 0.03367 0.07527 0.54738 0.0
C275 C 0.96079 0.94111 0.45459 0.0
Dy276 Dy 0.52529 0.03211 0.06222 0.0
C277 C 0.40414 0.94879 0.94024 0.0
C278 C 0.58853 0.07787 0.10323 0.0
Dy279 Dy 0.4588 0.99472 0.99265 0.0
O280 O 0.58678 0.03948 0.09686 0.0
O281 O 0.55535 0.09145 0.08736 0.0
O282 O 0.50474 0.9898 0.11793 0.0
O283 O 0.47445 0.98543 0.05918 0.0
C284 C 0.47531 0.96936 0.09566 0.0
C285 C 0.50159 0.06467 0.97055 0.0
O286 O 0.41958 0.0242 0.04278 0.0
O287 O 0.47346 0.07106 0.06661 0.0
O288 O 0.40117 0.98587 0.95115 0.0
O289 O 0.43665 0.93659 0.95875 0.0
O290 O 0.46481 0.05188 0.95575 0.0
O291 O 0.51584 0.03721 0.99159 0.0
O292 O 0.56406 0.99428 0.02129 0.0
O293 O 0.51243 0.95779 0.97934 0.0
C294 C 0.43316 0.05886 0.06178 0.0
C295 C 0.55143 0.96459 0.99387 0.0
Dy296 Dy 0.52222 0.46604 0.47975 0.0
C297 C 0.43798 0.58255 0.57404 0.0
C298 C 0.58032 0.42201 0.44123 0.0
Dy299 Dy 0.49052 0.53234 0.53618 0.0
O300 O 0.53977 0.4134 0.43861 0.0
O301 O 0.58854 0.45452 0.46434 0.0
O302 O 0.45735 0.43281 0.477 0.0
O303 O 0.47513 0.46813 0.53206 0.0
C304 C 0.44457 0.44803 0.51384 0.0
C305 C 0.56824 0.5498 0.50198 0.0
O306 O 0.51253 0.49539 0.59036 0.0
O307 O 0.55126 0.45653 0.54497 0.0
O308 O 0.47839 0.58498 0.57968 0.0
O309 O 0.42641 0.55219 0.54861 0.0
O310 O 0.55597 0.56413 0.53936 0.0
O311 O 0.53729 0.53043 0.48369 0.0
O312 O 0.49846 0.50121 0.42578 0.0
O313 O 0.46115 0.54189 0.47055 0.0
C314 C 0.5404 0.4689 0.58473 0.0
C315 C 0.47127 0.52826 0.43099 0.0
Dy316 Dy 0.01829 0.46544 0.03083 0.0
C317 C 0.96152 0.60536 0.96946 0.0
C318 C 0.05942 0.40287 0.05543 0.0
Dy319 Dy 0.99935 0.53946 0.98928 0.0
O320 O 0.02661 0.41477 0.07534 0.0
O321 O 0.06872 0.42443 0.02133 0.0
O322 O 0.96863 0.47228 0.08246 0.0
O323 O 0.00307 0.52337 0.05753 0.0
C324 C 0.9729 0.51108 0.08253 0.0
C325 C 0.04359 0.49306 0.93665 0.0
O326 O 0.05528 0.56556 0.02713 0.0
O327 O 0.07895 0.50476 0.04057 0.0
O328 O 0.99663 0.596 0.95213 0.0
O329 O 0.94706 0.57857 0.9971 0.0
O330 O 0.04773 0.53183 0.93606 0.0
O331 O 0.01392 0.48143 0.96246 0.0
O332 O 0.96196 0.43895 0.99449 0.0
O333 O 0.93844 0.50001 0.97992 0.0
C334 C 0.08497 0.54426 0.0406 0.0
C335 C 0.93231 0.46046 0.98119 0.0
C336 C 0.12395 0.12859 0.31306 0.0
C337 C 0.15117 0.15662 0.33662 0.0
C338 C 0.09807 0.09886 0.33472 0.0
C339 C 0.09934 0.09603 0.38036 0.0
H340 H 0.12343 0.12902 0.27763 0.0
H341 H 0.07803 0.07735 0.31566 0.0
S342 S 0.1605 0.16536 0.45734 0.0
N343 N 0.17402 0.18224 0.40827 0.0
N344 N 0.12668 0.12566 0.44882 0.0
C345 C 0.1252 0.12468 0.40433 0.0
C346 C 0.15087 0.15517 0.38247 0.0
C347 C 0.38003 0.87625 0.84621 0.0
C348 C 0.34857 0.89364 0.82396 0.0
C349 C 0.39572 0.89264 0.88588 0.0
C350 C 0.38081 0.92728 0.90427 0.0
H351 H 0.39368 0.85066 0.832 0.0
H352 H 0.42131 0.87937 0.90087 0.0
S353 S 0.29595 0.98199 0.86067 0.0
N354 N 0.30088 0.94547 0.82456 0.0
N355 N 0.33045 0.97649 0.89919 0.0
C356 C 0.34761 0.94354 0.88367 0.0
C357 C 0.33144 0.92665 0.84342 0.0
C358 C 0.60192 0.39969 0.64978 0.0
C359 C 0.59247 0.40878 0.69376 0.0
C360 C 0.58519 0.41954 0.61534 0.0
C361 C 0.55801 0.44953 0.623 0.0
H362 H 0.62227 0.37663 0.64176 0.0
H363 H 0.59369 0.41088 0.58228 0.0
S364 S 0.52408 0.48546 0.73252 0.0
N365 N 0.55483 0.45044 0.7434 0.0
N366 N 0.52286 0.48765 0.67859 0.0
C367 C 0.54824 0.45906 0.66695 0.0
C368 C 0.56545 0.43867 0.70223 0.0
C369 C 0.89936 0.54144 0.17388 0.0
C370 C 0.90864 0.58317 0.17761 0.0
C371 C 0.92025 0.5186 0.14306 0.0
C372 C 0.95118 0.53649 0.11439 0.0
H373 H 0.87589 0.5262 0.19525 0.0
H374 H 0.91202 0.48658 0.14176 0.0
S375 S 0.9856 0.64501 0.10895 0.0
N376 N 0.9499 0.64165 0.14873 0.0
N377 N 0.98916 0.59883 0.09094 0.0
C378 C 0.9605 0.57826 0.11739 0.0
C379 C 0.93932 0.60152 0.14898 0.0
C380 C 0.34984 0.10214 0.13082 0.0
C381 C 0.3579 0.14319 0.12219 0.0
C382 C 0.37229 0.07394 0.10872 0.0
C383 C 0.40341 0.08623 0.07769 0.0
H384 H 0.32754 0.09198 0.15623 0.0
H385 H 0.36708 0.04287 0.11779 0.0
S386 S 0.43153 0.18888 0.03815 0.0
N387 N 0.39516 0.19375 0.07633 0.0
N388 N 0.4381 0.14084 0.03576 0.0
C389 C 0.40987 0.12668 0.06683 0.0
C390 C 0.3869 0.15521 0.08889 0.0
C391 C 0.13337 0.88867 0.53041 0.0
C392 C 0.14005 0.89484 0.57552 0.0
C393 C 0.10381 0.90869 0.50864 0.0
C394 C 0.07987 0.93566 0.53115 0.0
H395 H 0.15287 0.87008 0.51124 0.0
H396 H 0.10122 0.90442 0.4735 0.0
S397 S 0.08033 0.95697 0.65079 0.0
N398 N 0.11658 0.92576 0.64302 0.0
N399 N 0.06103 0.96366 0.60197 0.0
C400 C 0.08391 0.93978 0.57682 0.0
C401 C 0.11409 0.91937 0.59901 0.0
C402 C 0.85575 0.38209 0.92629 0.0
C403 C 0.81731 0.39923 0.92844 0.0
C404 C 0.8925 0.40176 0.94417 0.0
C405 C 0.89256 0.43972 0.96433 0.0
H406 H 0.85779 0.35351 0.90982 0.0
H407 H 0.92131 0.38749 0.94116 0.0
S408 S 0.79994 0.49645 0.98204 0.0
N409 N 0.78121 0.45535 0.95552 0.0
N410 N 0.8507 0.49295 0.98757 0.0
C411 C 0.85441 0.45709 0.96731 0.0
C412 C 0.81674 0.43675 0.94974 0.0
C413 C 0.64958 0.57024 0.41051 0.0
C414 C 0.68048 0.59743 0.43016 0.0
C415 C 0.61403 0.55411 0.43425 0.0
C416 C 0.60794 0.56441 0.47868 0.0
H417 H 0.65211 0.56242 0.37605 0.0
H418 H 0.59062 0.53421 0.41728 0.0
S419 S 0.68201 0.63047 0.54687 0.0
N420 N 0.70435 0.6311 0.49775 0.0
N421 N 0.63771 0.60099 0.54225 0.0
C422 C 0.63951 0.59014 0.49922 0.0
C423 C 0.67564 0.60662 0.47501 0.0
C424 C 0.16056 0.35983 0.07889 0.0
C425 C 0.15275 0.34403 0.12071 0.0
C426 C 0.12897 0.37638 0.05642 0.0
C427 C 0.08863 0.3776 0.07509 0.0
H428 H 0.19173 0.36089 0.06424 0.0
H429 H 0.13689 0.39006 0.02519 0.0
S430 S 0.05068 0.33419 0.18073 0.0
N431 N 0.10071 0.32603 0.17762 0.0
N432 N 0.04127 0.35763 0.13554 0.0
C433 C 0.07968 0.35949 0.11559 0.0
C434 C 0.11185 0.34266 0.13845 0.0
C435 C 0.52566 0.16364 0.91391 0.0
C436 C 0.56831 0.17458 0.92278 0.0
C437 C 0.50443 0.12868 0.93072 0.0
C438 C 0.52499 0.10284 0.95677 0.0
H439 H 0.50864 0.18207 0.89329 0.0
H440 H 0.47169 0.1215 0.92241 0.0
S441 S 0.63627 0.11838 0.99099 0.0
N442 N 0.63016 0.15739 0.96066 0.0
N443 N 0.5902 0.09132 0.99187 0.0
C444 C 0.56734 0.11386 0.96697 0.0
C445 C 0.58898 0.14981 0.9501 0.0
C446 C 0.89623 0.84094 0.4329 0.0
C447 C 0.90486 0.8322 0.38859 0.0
C448 C 0.91418 0.87616 0.45364 0.0
C449 C 0.94155 0.90444 0.43103 0.0
H450 H 0.87482 0.82066 0.45166 0.0
H451 H 0.90615 0.88131 0.48773 0.0
S452 S 0.97688 0.89449 0.3152 0.0
N453 N 0.94455 0.85383 0.32336 0.0
N454 N 0.97774 0.92012 0.36193 0.0
C455 C 0.95081 0.89588 0.38675 0.0
C456 C 0.93265 0.85985 0.36569 0.0
C457 C 0.40281 0.67622 0.62762 0.0
C458 C 0.36358 0.67908 0.6084 0.0
C459 C 0.42607 0.64401 0.61759 0.0
C460 C 0.41063 0.61331 0.58842 0.0
H461 H 0.41643 0.69992 0.64916 0.0
H462 H 0.45683 0.64374 0.63186 0.0
S463 S 0.30782 0.60524 0.53245 0.0
N464 N 0.30913 0.64757 0.56103 0.0
N465 N 0.35243 0.58657 0.54253 0.0
C466 C 0.37053 0.6149 0.57059 0.0
C467 C 0.34712 0.64797 0.58041 0.0
C468 C 0.89239 0.90147 0.71228 0.0
C469 C 0.90864 0.91997 0.75107 0.0
C470 C 0.90791 0.91401 0.67121 0.0
C471 C 0.93968 0.94576 0.66774 0.0
H472 H 0.86664 0.87797 0.71363 0.0
H473 H 0.89383 0.89984 0.64205 0.0
S474 S 0.9968 1.00027 0.759 0.0
N475 N 0.96165 0.96842 0.78323 0.0
N476 N 0.9896 0.99303 0.70593 0.0
C477 C 0.95735 0.96343 0.70609 0.0
C478 C 0.94208 0.95029 0.74784 0.0
C479 C 0.6503 0.16596 0.15957 0.0
C480 C 0.68425 0.14853 0.17732 0.0
C481 C 0.61982 0.14305 0.13472 0.0
C482 C 0.62244 0.10205 0.12675 0.0
H483 H 0.64655 0.19717 0.16613 0.0
H484 H 0.5936 0.15737 0.12253 0.0
S485 S 0.70781 0.04348 0.16211 0.0
N486 N 0.72058 0.08886 0.18244 0.0
N487 N 0.66339 0.0457 0.13587 0.0
C488 C 0.65718 0.08472 0.14284 0.0
C489 C 0.68807 0.10799 0.16816 0.0
C490 C 0.41722 0.5994 0.35985 0.0
C491 C 0.42763 0.58755 0.31693 0.0
C492 C 0.43059 0.57953 0.39638 0.0
C493 C 0.45477 0.54681 0.39155 0.0
H494 H 0.39955 0.62492 0.36532 0.0
H495 H 0.4225 0.59054 0.42868 0.0
S496 S 0.48635 0.50139 0.28557 0.0
N497 N 0.46062 0.53915 0.27147 0.0
N498 N 0.48586 0.50192 0.33961 0.0
C499 C 0.46403 0.53382 0.34858 0.0
C500 C 0.45048 0.55415 0.31149 0.0
C501 C 0.11487 0.45955 0.84446 0.0
C502 C 0.10097 0.41876 0.83802 0.0
C503 C 0.09625 0.48318 0.87641 0.0
C504 C 0.06298 0.46708 0.90347 0.0
H505 H 0.14094 0.47325 0.82518 0.0
H506 H 0.10829 0.5143 0.88014 0.0
S507 S 0.01279 0.3627 0.8983 0.0
N508 N 0.04998 0.36401 0.86011 0.0
N509 N 0.016 0.40798 0.92065 0.0
C510 C 0.04847 0.42648 0.89718 0.0
C511 C 0.06716 0.4025 0.86441 0.0
C512 C 0.64882 0.91103 0.99678 0.0
C513 C 0.65156 0.8946 0.9543 0.0
C514 C 0.61538 0.93236 0.00936 0.0
C515 C 0.58317 0.938 0.98008 0.0
H516 H 0.67388 0.9093 0.01992 0.0
H517 H 0.61541 0.94544 0.0421 0.0
S518 S 0.57329 0.89757 0.86648 0.0
N519 N 0.61776 0.8827 0.88381 0.0
N520 N 0.55415 0.92295 0.9078 0.0
C521 C 0.58407 0.91987 0.93826 0.0
C522 C 0.61857 0.89827 0.92522 0.0
C523 C 0.91917 0.11894 0.41154 0.0
C524 C 0.8784 0.12979 0.41987 0.0
C525 C 0.93597 0.0902 0.43669 0.0
C526 C 0.91258 0.07119 0.471 0.0
H527 H 0.93841 0.13302 0.3856 0.0
H528 H 0.96763 0.08312 0.42943 0.0
S529 S 0.80368 0.08753 0.50493 0.0
N530 N 0.81452 0.11823 0.46393 0.0
N531 N 0.84632 0.06455 0.51153 0.0
C532 C 0.87176 0.08159 0.47961 0.0
C533 C 0.85461 0.11084 0.45399 0.0
C534 C 0.19402 0.55879 0.09037 0.0
C535 C 0.20352 0.60053 0.09213 0.0
C536 C 0.15574 0.54115 0.07386 0.0
C537 C 0.1251 0.56441 0.05824 0.0
H538 H 0.21643 0.53946 0.10195 0.0
H539 H 0.15035 0.50884 0.07329 0.0
S540 S 0.13467 0.67533 0.05527 0.0
N541 N 0.17935 0.66484 0.07647 0.0
N542 N 0.10712 0.63187 0.0459 0.0
C543 C 0.13403 0.60634 0.06014 0.0
C544 C 0.17319 0.6243 0.07702 0.0
C545 C 0.35972 0.43769 0.60289 0.0
C546 C 0.33256 0.40439 0.58881 0.0
C547 C 0.39508 0.4521 0.57789 0.0
C548 C 0.40479 0.43413 0.53745 0.0
H549 H 0.35399 0.45248 0.63393 0.0
H550 H 0.4154 0.47718 0.59083 0.0
S551 S 0.34376 0.34672 0.48487 0.0
N552 N 0.31807 0.35403 0.53118 0.0
N553 N 0.38363 0.38193 0.48375 0.0
C554 C 0.37726 0.40169 0.52215 0.0
C555 C 0.34141 0.3867 0.54786 0.0
C556 C 0.88502 0.68353 0.97767 0.0
C557 C 0.90516 0.71479 0.95307 0.0
C558 C 0.90333 0.64787 0.98214 0.0
C559 C 0.94209 0.64224 0.96178 0.0
H560 H 0.85541 0.68703 0.99432 0.0
H561 H 0.88719 0.62476 1.00214 0.0
S562 S 0.00576 0.71423 0.89127 0.0
N563 N 0.96463 0.73747 0.90635 0.0
N564 N 0.99914 0.6702 0.91461 0.0
C565 C 0.96197 0.6729 0.93611 0.0
C566 C 0.94346 0.70931 0.93183 0.0
C567 C 0.41993 0.86412 0.08713 0.0
C568 C 0.41926 0.85107 0.13075 0.0
C569 C 0.43638 0.90304 0.07622 0.0
C570 C 0.45319 0.93034 0.10837 0.0
H571 H 0.40912 0.84368 0.06088 0.0
H572 H 0.43747 0.91121 0.04213 0.0
S573 S 0.45425 0.91325 0.22785 0.0
N574 N 0.43296 0.87046 0.20676 0.0
N575 N 0.46507 0.94293 0.18597 0.0
C576 C 0.45123 0.91836 0.1522 0.0
C577 C 0.43403 0.87893 0.16345 0.0
C578 C 0.09118 0.14352 0.63312 0.0
C579 C 0.0967 0.18089 0.61277 0.0
C580 C 0.06981 0.10991 0.61229 0.0
C581 C 0.05365 0.11205 0.56988 0.0
H582 H 0.10365 0.1402 0.66545 0.0
H583 H 0.06689 0.0818 0.62922 0.0
S584 S 0.05896 0.20324 0.50269 0.0
N585 N 0.08354 0.21826 0.54818 0.0
N586 N 0.04371 0.1553 0.50881 0.0
C587 C 0.05852 0.14944 0.54937 0.0
C588 C 0.07986 0.18377 0.57087 0.0
C589 C 0.63147 0.33865 0.38209 0.0
C590 C 0.67466 0.35002 0.38785 0.0
C591 C 0.60101 0.36224 0.39909 0.0
C592 C 0.61271 0.39791 0.42259 0.0
H593 H 0.62115 0.31156 0.36384 0.0
H594 H 0.56813 0.35242 0.39385 0.0
S595 S 0.72164 0.43996 0.44831 0.0
N596 N 0.72746 0.39853 0.41993 0.0
N597 N 0.6705 0.44307 0.45145 0.0
C598 C 0.65579 0.40946 0.42878 0.0
C599 C 0.6867 0.38548 0.41151 0.0
loop_
_geom_bond_atom_site_label_1
_geom_bond_atom_site_label_2
_geom_bond_distance
_geom_bond_site_symmetry_2
_ccdc_geom_bond_type
P0 O11 1.490 . S
P0 C14 1.812 . S
P0 C20 1.803 . S
P0 C26 1.819 . S
H1 C15 0.941 . S
H2 C16 0.939 . S
H3 C18 0.940 . S
H4 C19 0.940 . S
H5 C21 0.939 . S
H6 C22 0.942 . S
H7 C24 0.940 . S
H8 C25 0.939 . S
H9 C27 0.941 . S
H10 C31 0.939 . S
O11 P0 1.490 . S
H12 C28 0.939 . S
H13 C30 0.940 . S
C14 P0 1.812 . S
C14 C15 1.389 . S
C14 C19 1.391 . S
C15 H1 0.941 . S
C15 C14 1.389 . S
C15 C16 1.397 . S
C16 H2 0.939 . S
C16 C15 1.397 . S
C16 C17 1.378 . S
C17 C16 1.378 . S
C17 C18 1.378 . S
C18 H3 0.940 . S
C18 C17 1.378 . S
C18 C19 1.396 . S
C19 H4 0.940 . S
C19 C14 1.391 . S
C19 C18 1.396 . S
C20 P0 1.803 . S
C20 C21 1.378 . S
C20 C25 1.400 . S
C21 H5 0.939 . S
C21 C20 1.378 . S
C21 C22 1.361 . S
C22 H6 0.942 . S
C22 C21 1.361 . S
C22 C23 1.369 . S
C23 C22 1.369 . S
C23 C24 1.404 . S
C24 H7 0.940 . S
C24 C23 1.404 . S
C24 C25 1.389 . S
C25 H8 0.939 . S
C25 C20 1.400 . S
C25 C24 1.389 . S
C26 P0 1.819 . S
C26 C27 1.391 . S
C26 C31 1.391 . S
C27 H9 0.941 . S
C27 C26 1.391 . S
C27 C28 1.396 . S
C28 H12 0.939 . S
C28 C27 1.396 . S
C28 C29 1.397 . S
C29 C28 1.397 . S
C29 C30 1.385 . S
C30 H13 0.940 . S
C30 C29 1.385 . S
C30 C31 1.388 . S
C31 H10 0.939 . S
C31 C26 1.391 . S
C31 C30 1.388 . S
P32 O43 1.490 . S
P32 C46 1.812 . S
P32 C52 1.803 . S
P32 C58 1.819 . S
H33 C47 0.941 . S
H34 C48 0.939 . S
H35 C50 0.940 . S
H36 C51 0.940 . S
H37 C53 0.939 . S
H38 C54 0.942 . S
H39 C56 0.940 . S
H40 C57 0.939 . S
H41 C59 0.941 . S
H42 C63 0.939 . S
O43 P32 1.490 . S
H44 C60 0.939 . S
H45 C62 0.940 . S
C46 P32 1.812 . S
C46 C47 1.389 . S
C46 C51 1.391 . S
C47 H33 0.941 . S
C47 C46 1.389 . S
C47 C48 1.397 . S
C48 H34 0.939 . S
C48 C47 1.397 . S
C48 C49 1.378 . S
C49 C48 1.378 . S
C49 C50 1.378 . S
C50 H35 0.940 . S
C50 C49 1.378 . S
C50 C51 1.396 . S
C51 H36 0.940 . S
C51 C46 1.391 . S
C51 C50 1.396 . S
C52 P32 1.803 . S
C52 C53 1.378 . S
C52 C57 1.400 . S
C53 H37 0.939 . S
C53 C52 1.378 . S
C53 C54 1.361 . S
C54 H38 0.942 . S
C54 C53 1.361 . S
C54 C55 1.369 . S
C55 C54 1.369 . S
C55 C56 1.404 . S
C56 H39 0.940 . S
C56 C55 1.404 . S
C56 C57 1.389 . S
C57 H40 0.939 . S
C57 C52 1.400 . S
C57 C56 1.389 . S
C58 P32 1.819 . S
C58 C59 1.391 . S
C58 C63 1.391 . S
C59 H41 0.941 . S
C59 C58 1.391 . S
C59 C60 1.396 . S
C60 H44 0.939 . S
C60 C59 1.396 . S
C60 C61 1.397 . S
C61 C60 1.397 . S
C61 C62 1.385 . S
C62 H45 0.940 . S
C62 C61 1.385 . S
C62 C63 1.388 . S
C63 H42 0.939 . S
C63 C58 1.391 . S
C63 C62 1.388 . S
P64 O75 1.490 . S
P64 C78 1.812 . S
P64 C84 1.803 . S
P64 C90 1.819 . S
H65 C79 0.941 . S
H66 C80 0.939 . S
H67 C82 0.940 . S
H68 C83 0.940 . S
H69 C85 0.939 . S
H70 C86 0.942 . S
H71 C88 0.940 . S
H72 C89 0.939 . S
H73 C91 0.941 . S
H74 C95 0.939 . S
O75 P64 1.490 . S
H76 C92 0.939 . S
H77 C94 0.940 . S
C78 P64 1.812 . S
C78 C79 1.389 . S
C78 C83 1.391 . S
C79 H65 0.941 . S
C79 C78 1.389 . S
C79 C80 1.397 . S
C80 H66 0.939 . S
C80 C79 1.397 . S
C80 C81 1.378 . S
C81 C80 1.378 . S
C81 C82 1.378 . S
C82 H67 0.940 . S
C82 C81 1.378 . S
C82 C83 1.396 . S
C83 H68 0.940 . S
C83 C78 1.391 . S
C83 C82 1.396 . S
C84 P64 1.803 . S
C84 C85 1.378 . S
C84 C89 1.400 . S
C85 H69 0.939 . S
C85 C84 1.378 . S
C85 C86 1.361 . S
C86 H70 0.942 . S
C86 C85 1.361 . S
C86 C87 1.369 . S
C87 C86 1.369 . S
C87 C88 1.404 . S
C88 H71 0.940 . S
C88 C87 1.404 . S
C88 C89 1.389 . S
C89 H72 0.939 . S
C89 C84 1.400 . S
C89 C88 1.389 . S
C90 P64 1.819 . S
C90 C91 1.391 . S
C90 C95 1.391 . S
C91 H73 0.941 . S
C91 C90 1.391 . S
C91 C92 1.396 . S
C92 H76 0.939 . S
C92 C91 1.396 . S
C92 C93 1.397 . S
C93 C92 1.397 . S
C93 C94 1.385 . S
C94 H77 0.940 . S
C94 C93 1.385 . S
C94 C95 1.388 . S
C95 H74 0.939 . S
C95 C90 1.391 . S
C95 C94 1.388 . S
P96 O107 1.490 . S
P96 C110 1.812 . S
P96 C116 1.803 . S
P96 C122 1.819 . S
H97 C111 0.941 . S
H98 C112 0.939 . S
H99 C114 0.940 . S
H100 C115 0.940 . S
H101 C117 0.939 . S
H102 C118 0.942 . S
H103 C120 0.940 . S
H104 C121 0.939 . S
H105 C123 0.941 . S
H106 C127 0.939 . S
O107 P96 1.490 . S
H108 C124 0.939 . S
H109 C126 0.940 . S
C110 P96 1.812 . S
C110 C111 1.389 . S
C110 C115 1.391 . S
C111 H97 0.941 . S
C111 C110 1.389 . S
C111 C112 1.397 . S
C112 H98 0.939 . S
C112 C111 1.397 . S
C112 C113 1.378 . S
C113 C112 1.378 . S
C113 C114 1.378 . S
C114 H99 0.940 . S
C114 C113 1.378 . S
C114 C115 1.396 . S
C115 H100 0.940 . S
C115 C110 1.391 . S
C115 C114 1.396 . S
C116 P96 1.803 . S
C116 C117 1.378 . S
C116 C121 1.400 . S
C117 H101 0.939 . S
C117 C116 1.378 . S
C117 C118 1.361 . S
C118 H102 0.942 . S
C118 C117 1.361 . S
C118 C119 1.369 . S
C119 C118 1.369 . S
C119 C120 1.404 . S
C120 H103 0.940 . S
C120 C119 1.404 . S
C120 C121 1.389 . S
C121 H104 0.939 . S
C121 C116 1.400 . S
C121 C120 1.389 . S
C122 P96 1.819 . S
C122 C123 1.391 . S
C122 C127 1.391 . S
C123 H105 0.941 . S
C123 C122 1.391 . S
C123 C124 1.396 . S
C124 H108 0.939 . S
C124 C123 1.396 . S
C124 C125 1.397 . S
C125 C124 1.397 . S
C125 C126 1.385 . S
C126 H109 0.940 . S
C126 C125 1.385 . S
C126 C127 1.388 . S
C127 H106 0.939 . S
C127 C122 1.391 . S
C127 C126 1.388 . S
P128 O139 1.490 . S
P128 C142 1.812 . S
P128 C148 1.803 . S
P128 C154 1.819 . S
H129 C143 0.941 . S
H130 C144 0.939 . S
H131 C146 0.940 . S
H132 C147 0.940 . S
H133 C149 0.939 . S
H134 C150 0.942 . S
H135 C152 0.940 . S
H136 C153 0.939 . S
H137 C155 0.941 . S
H138 C159 0.939 . S
O139 P128 1.490 . S
H140 C156 0.939 . S
H141 C158 0.940 . S
C142 P128 1.812 . S
C142 C143 1.389 . S
C142 C147 1.391 . S
C143 H129 0.941 . S
C143 C142 1.389 . S
C143 C144 1.397 . S
C144 H130 0.939 . S
C144 C143 1.397 . S
C144 C145 1.378 . S
C145 C144 1.378 . S
C145 C146 1.378 . S
C146 H131 0.940 . S
C146 C145 1.378 . S
C146 C147 1.396 . S
C147 H132 0.940 . S
C147 C142 1.391 . S
C147 C146 1.396 . S
C148 P128 1.803 . S
C148 C149 1.378 . S
C148 C153 1.400 . S
C149 H133 0.939 . S
C149 C148 1.378 . S
C149 C150 1.361 . S
C150 H134 0.942 . S
C150 C149 1.361 . S
C150 C151 1.369 . S
C151 C150 1.369 . S
C151 C152 1.404 . S
C152 H135 0.940 . S
C152 C151 1.404 . S
C152 C153 1.389 . S
C153 H136 0.939 . S
C153 C148 1.400 . S
C153 C152 1.389 . S
C154 P128 1.819 . S
C154 C155 1.391 . S
C154 C159 1.391 . S
C155 H137 0.941 . S
C155 C154 1.391 . S
C155 C156 1.396 . S
C156 H140 0.939 . S
C156 C155 1.396 . S
C156 C157 1.397 . S
C157 C156 1.397 . S
C157 C158 1.385 . S
C158 H141 0.940 . S
C158 C157 1.385 . S
C158 C159 1.388 . S
C159 H138 0.939 . S
C159 C154 1.391 . S
C159 C158 1.388 . S
P160 O171 1.490 . S
P160 C174 1.812 . S
P160 C180 1.803 . S
P160 C186 1.819 . S
H161 C175 0.941 . S
H162 C176 0.939 . S
H163 C178 0.940 . S
H164 C179 0.940 . S
H165 C181 0.939 . S
H166 C182 0.942 . S
H167 C184 0.940 . S
H168 C185 0.939 . S
H169 C187 0.941 . S
H170 C191 0.939 . S
O171 P160 1.490 . S
H172 C188 0.939 . S
H173 C190 0.940 . S
C174 P160 1.812 . S
C174 C175 1.389 . S
C174 C179 1.391 . S
C175 H161 0.941 . S
C175 C174 1.389 . S
C175 C176 1.397 . S
C176 H162 0.939 . S
C176 C175 1.397 . S
C176 C177 1.378 . S
C177 C176 1.378 . S
C177 C178 1.378 . S
C178 H163 0.940 . S
C178 C177 1.378 . S
C178 C179 1.396 . S
C179 H164 0.940 . S
C179 C174 1.391 . S
C179 C178 1.396 . S
C180 P160 1.803 . S
C180 C181 1.378 . S
C180 C185 1.400 . S
C181 H165 0.939 . S
C181 C180 1.378 . S
C181 C182 1.361 . S
C182 H166 0.942 . S
C182 C181 1.361 . S
C182 C183 1.369 . S
C183 C182 1.369 . S
C183 C184 1.404 . S
C184 H167 0.940 . S
C184 C183 1.404 . S
C184 C185 1.389 . S
C185 H168 0.939 . S
C185 C180 1.400 . S
C185 C184 1.389 . S
C186 P160 1.819 . S
C186 C187 1.391 . S
C186 C191 1.391 . S
C187 H169 0.941 . S
C187 C186 1.391 . S
C187 C188 1.396 . S
C188 H172 0.939 . S
C188 C187 1.396 . S
C188 C189 1.397 . S
C189 C188 1.397 . S
C189 C190 1.385 . S
C190 H173 0.940 . S
C190 C189 1.385 . S
C190 C191 1.388 . S
C191 H170 0.939 . S
C191 C186 1.391 . S
C191 C190 1.388 . S
P192 O203 1.490 . S
P192 C206 1.812 . S
P192 C212 1.803 . S
P192 C218 1.819 . S
H193 C207 0.941 . S
H194 C208 0.939 . S
H195 C210 0.940 . S
H196 C211 0.940 . S
H197 C213 0.939 . S
H198 C214 0.942 . S
H199 C216 0.940 . S
H200 C217 0.939 . S
H201 C219 0.941 . S
H202 C223 0.939 . S
O203 P192 1.490 . S
H204 C220 0.939 . S
H205 C222 0.940 . S
C206 P192 1.812 . S
C206 C207 1.389 . S
C206 C211 1.391 . S
C207 H193 0.941 . S
C207 C206 1.389 . S
C207 C208 1.397 . S
C208 H194 0.939 . S
C208 C207 1.397 . S
C208 C209 1.378 . S
C209 C208 1.378 . S
C209 C210 1.378 . S
C210 H195 0.940 . S
C210 C209 1.378 . S
C210 C211 1.396 . S
C211 H196 0.940 . S
C211 C206 1.391 . S
C211 C210 1.396 . S
C212 P192 1.803 . S
C212 C213 1.378 . S
C212 C217 1.400 . S
C213 H197 0.939 . S
C213 C212 1.378 . S
C213 C214 1.361 . S
C214 H198 0.942 . S
C214 C213 1.361 . S
C214 C215 1.369 . S
C215 C214 1.369 . S
C215 C216 1.404 . S
C216 H199 0.940 . S
C216 C215 1.404 . S
C216 C217 1.389 . S
C217 H200 0.939 . S
C217 C212 1.400 . S
C217 C216 1.389 . S
C218 P192 1.819 . S
C218 C219 1.391 . S
C218 C223 1.391 . S
C219 H201 0.941 . S
C219 C218 1.391 . S
C219 C220 1.396 . S
C220 H204 0.939 . S
C220 C219 1.396 . S
C220 C221 1.397 . S
C221 C220 1.397 . S
C221 C222 1.385 . S
C222 H205 0.940 . S
C222 C221 1.385 . S
C222 C223 1.388 . S
C223 H202 0.939 . S
C223 C218 1.391 . S
C223 C222 1.388 . S
P224 O235 1.490 . S
P224 C238 1.812 . S
P224 C244 1.803 . S
P224 C250 1.819 . S
H225 C239 0.941 . S
H226 C240 0.939 . S
H227 C242 0.940 . S
H228 C243 0.940 . S
H229 C245 0.939 . S
H230 C246 0.942 . S
H231 C248 0.940 . S
H232 C249 0.939 . S
H233 C251 0.941 . S
H234 C255 0.939 . S
O235 P224 1.490 . S
H236 C252 0.939 . S
H237 C254 0.940 . S
C238 P224 1.812 . S
C238 C239 1.389 . S
C238 C243 1.391 . S
C239 H225 0.941 . S
C239 C238 1.389 . S
C239 C240 1.397 . S
C240 H226 0.939 . S
C240 C239 1.397 . S
C240 C241 1.378 . S
C241 C240 1.378 . S
C241 C242 1.378 . S
C242 H227 0.940 . S
C242 C241 1.378 . S
C242 C243 1.396 . S
C243 H228 0.940 . S
C243 C238 1.391 . S
C243 C242 1.396 . S
C244 P224 1.803 . S
C244 C245 1.378 . S
C244 C249 1.400 . S
C245 H229 0.939 . S
C245 C244 1.378 . S
C245 C246 1.361 . S
C246 H230 0.942 . S
C246 C245 1.361 . S
C246 C247 1.369 . S
C247 C246 1.369 . S
C247 C248 1.404 . S
C248 H231 0.940 . S
C248 C247 1.404 . S
C248 C249 1.389 . S
C249 H232 0.939 . S
C249 C244 1.400 . S
C249 C248 1.389 . S
C250 P224 1.819 . S
C250 C251 1.391 . S
C250 C255 1.391 . S
C251 H233 0.941 . S
C251 C250 1.391 . S
C251 C252 1.396 . S
C252 H236 0.939 . S
C252 C251 1.396 . S
C252 C253 1.397 . S
C253 C252 1.397 . S
C253 C254 1.385 . S
C254 H237 0.940 . S
C254 C253 1.385 . S
C254 C255 1.388 . S
C255 H234 0.939 . S
C255 C250 1.391 . S
C255 C254 1.388 . S
Dy256 O260 2.398 . S
Dy256 O261 2.491 . S
Dy256 O262 2.403 1_545 S
Dy256 O263 2.664 1_545 S
Dy256 O267 2.326 . S
Dy256 O271 2.310 1_455 S
Dy256 O272 2.351 1_445 S
C257 O268 1.185 . S
C257 O269 1.355 . S
C258 O260 1.185 . S
C258 O261 1.355 . S
Dy259 O263 2.310 1_655 S
Dy259 O266 2.351 1_665 S
Dy259 O268 2.398 . S
Dy259 O269 2.491 . S
Dy259 O270 2.403 1_565 S
Dy259 O271 2.664 1_565 S
Dy259 O273 2.326 . S
O260 Dy256 2.398 . S
O260 C258 1.185 . S
O261 Dy256 2.491 . S
O261 C258 1.355 . S
O262 Dy256 2.403 1_565 S
O262 C264 1.254 . S
O263 Dy256 2.664 1_565 S
O263 Dy259 2.310 1_455 S
O263 C264 1.268 . S
C264 O262 1.254 . S
C264 O263 1.268 . S
C265 O270 1.254 . S
C265 O271 1.268 . S
O266 Dy259 2.351 1_445 S
O266 C274 1.249 . S
O267 Dy256 2.326 . S
O267 C274 1.267 . S
O268 C257 1.185 . S
O268 Dy259 2.398 . S
O269 C257 1.355 . S
O269 Dy259 2.491 . S
O270 Dy259 2.403 1_545 S
O270 C265 1.254 . S
O271 Dy256 2.310 1_655 S
O271 Dy259 2.664 1_545 S
O271 C265 1.268 . S
O272 Dy256 2.351 1_665 S
O272 C275 1.249 . S
O273 Dy259 2.326 . S
O273 C275 1.267 . S
C274 O266 1.249 . S
C274 O267 1.267 . S
C275 O272 1.249 . S
C275 O273 1.267 . S
Dy276 O280 2.398 . S
Dy276 O281 2.491 . S
Dy276 O282 2.403 1_545 S
Dy276 O283 2.664 1_545 S
Dy276 O287 2.326 . S
Dy276 O291 2.310 . S
Dy276 O292 2.351 1_544 S
C277 O288 1.185 . S
C277 O289 1.355 . S
C278 O280 1.185 . S
C278 O281 1.355 . S
Dy279 O283 2.310 1_546 S
Dy279 O286 2.351 1_556 S
Dy279 O288 2.398 1_545 S
Dy279 O289 2.491 1_545 S
Dy279 O290 2.403 . S
Dy279 O291 2.664 1_556 S
Dy279 O293 2.326 1_545 S
O280 Dy276 2.398 . S
O280 C278 1.185 . S
O281 Dy276 2.491 . S
O281 C278 1.355 . S
O282 Dy276 2.403 1_565 S
O282 C284 1.254 . S
O283 Dy276 2.664 1_565 S
O283 Dy279 2.310 1_564 S
O283 C284 1.268 . S
C284 O282 1.254 . S
C284 O283 1.268 . S
C285 O290 1.254 . S
C285 O291 1.268 1_556 S
O286 Dy279 2.351 1_554 S
O286 C294 1.249 . S
O287 Dy276 2.326 . S
O287 C294 1.267 . S
O288 C277 1.185 . S
O288 Dy279 2.398 1_565 S
O289 C277 1.355 . S
O289 Dy279 2.491 1_565 S
O290 Dy279 2.403 . S
O290 C285 1.254 . S
O291 Dy276 2.310 . S
O291 Dy279 2.664 1_554 S
O291 C285 1.268 1_554 S
O292 Dy276 2.351 1_566 S
O292 C295 1.249 . S
O293 Dy279 2.326 1_565 S
O293 C295 1.267 . S
C294 O286 1.249 . S
C294 O287 1.267 . S
C295 O292 1.249 . S
C295 O293 1.267 . S
Dy296 O300 2.398 . S
Dy296 O301 2.491 . S
Dy296 O302 2.403 . S
Dy296 O303 2.664 . S
Dy296 O307 2.326 . S
Dy296 O311 2.310 . S
Dy296 O312 2.351 . S
C297 O308 1.185 . S
C297 O309 1.355 . S
C298 O300 1.185 . S
C298 O301 1.355 . S
Dy299 O303 2.310 . S
Dy299 O306 2.351 . S
Dy299 O308 2.398 . S
Dy299 O309 2.491 . S
Dy299 O310 2.403 . S
Dy299 O311 2.664 . S
Dy299 O313 2.326 . S
O300 Dy296 2.398 . S
O300 C298 1.185 . S
O301 Dy296 2.491 . S
O301 C298 1.355 . S
O302 Dy296 2.403 . S
O302 C304 1.254 . S
O303 Dy296 2.664 . S
O303 Dy299 2.310 . S
O303 C304 1.268 . S
C304 O302 1.254 . S
C304 O303 1.268 . S
C305 O310 1.254 . S
C305 O311 1.268 . S
O306 Dy299 2.351 . S
O306 C314 1.249 . S
O307 Dy296 2.326 . S
O307 C314 1.267 . S
O308 C297 1.185 . S
O308 Dy299 2.398 . S
O309 C297 1.355 . S
O309 Dy299 2.491 . S
O310 Dy299 2.403 . S
O310 C305 1.254 . S
O311 Dy296 2.310 . S
O311 Dy299 2.664 . S
O311 C305 1.268 . S
O312 Dy296 2.351 . S
O312 C315 1.249 . S
O313 Dy299 2.326 . S
O313 C315 1.267 . S
C314 O306 1.249 . S
C314 O307 1.267 . S
C315 O312 1.249 . S
C315 O313 1.267 . S
Dy316 O320 2.398 . S
Dy316 O321 2.491 . S
Dy316 O322 2.403 1_455 S
Dy316 O323 2.664 1_455 S
Dy316 O327 2.326 . S
Dy316 O331 2.310 1_554 S
Dy316 O332 2.351 1_455 S
C317 O328 1.185 . S
C317 O329 1.355 . S
C318 O320 1.185 . S
C318 O321 1.355 . S
Dy319 O323 2.310 1_556 S
Dy319 O326 2.351 1_656 S
Dy319 O328 2.398 . S
Dy319 O329 2.491 . S
Dy319 O330 2.403 1_655 S
Dy319 O331 2.664 1_655 S
Dy319 O333 2.326 . S
O320 Dy316 2.398 . S
O320 C318 1.185 . S
O321 Dy316 2.491 . S
O321 C318 1.355 . S
O322 Dy316 2.403 1_655 S
O322 C324 1.254 . S
O323 Dy316 2.664 1_655 S
O323 Dy319 2.310 1_554 S
O323 C324 1.268 . S
C324 O322 1.254 . S
C324 O323 1.268 . S
C325 O330 1.254 . S
C325 O331 1.268 . S
O326 Dy319 2.351 1_454 S
O326 C334 1.249 . S
O327 Dy316 2.326 . S
O327 C334 1.267 . S
O328 C317 1.185 . S
O328 Dy319 2.398 . S
O329 C317 1.355 . S
O329 Dy319 2.491 . S
O330 Dy319 2.403 1_455 S
O330 C325 1.254 . S
O331 Dy316 2.310 1_556 S
O331 Dy319 2.664 1_455 S
O331 C325 1.268 . S
O332 Dy316 2.351 1_655 S
O332 C335 1.249 1_554 S
O333 Dy319 2.326 . S
O333 C335 1.267 . S
C334 O326 1.249 . S
C334 O327 1.267 . S
C335 O332 1.249 1_556 S
C335 O333 1.267 . S
C336 C337 1.369 . S
C336 C338 1.419 . S
C336 H340 0.930 . S
C337 C336 1.369 . S
C337 C346 1.429 . S
C338 C336 1.419 . S
C338 C339 1.363 . S
C338 H341 0.929 . S
C339 C338 1.363 . S
C339 C345 1.428 . S
H340 C336 0.930 . S
H341 C338 0.929 . S
S342 N343 1.613 . S
S342 N344 1.610 . S
N343 S342 1.613 . S
N343 C346 1.350 . S
N344 S342 1.610 . S
N344 C345 1.351 . S
C345 C339 1.428 . S
C345 N344 1.351 . S
C345 C346 1.434 . S
C346 C337 1.429 . S
C346 N343 1.350 . S
C346 C345 1.434 . S
C347 C348 1.369 . S
C347 C349 1.419 . S
C347 H351 0.930 . S
C348 C347 1.369 . S
C348 C357 1.429 . S
C349 C347 1.419 . S
C349 C350 1.363 . S
C349 H352 0.929 . S
C350 C349 1.363 . S
C350 C356 1.428 . S
H351 C347 0.930 . S
H352 C349 0.929 . S
S353 N354 1.613 . S
S353 N355 1.610 . S
N354 S353 1.613 . S
N354 C357 1.350 1_545 S
N355 S353 1.610 . S
N355 C356 1.351 1_545 S
C356 C350 1.428 . S
C356 N355 1.351 1_565 S
C356 C357 1.434 . S
C357 C348 1.429 . S
C357 N354 1.350 1_565 S
C357 C356 1.434 . S
C358 C359 1.369 . S
C358 C360 1.419 . S
C358 H362 0.930 . S
C359 C358 1.369 . S
C359 C368 1.429 . S
C360 C358 1.419 . S
C360 C361 1.363 . S
C360 H363 0.929 . S
C361 C360 1.363 . S
C361 C367 1.428 . S
H362 C358 0.930 . S
H363 C360 0.929 . S
S364 N365 1.613 . S
S364 N366 1.610 . S
N365 S364 1.613 . S
N365 C368 1.350 . S
N366 S364 1.610 . S
N366 C367 1.351 . S
C367 C361 1.428 . S
C367 N366 1.351 . S
C367 C368 1.434 . S
C368 C359 1.429 . S
C368 N365 1.350 . S
C368 C367 1.434 . S
C369 C370 1.369 . S
C369 C371 1.419 . S
C369 H373 0.930 . S
C370 C369 1.369 . S
C370 C379 1.429 . S
C371 C369 1.419 . S
C371 C372 1.363 . S
C371 H374 0.929 . S
C372 C371 1.363 . S
C372 C378 1.428 . S
H373 C369 0.930 . S
H374 C371 0.929 . S
S375 N376 1.613 1_455 S
S375 N377 1.611 . S
N376 S375 1.613 1_655 S
N376 C379 1.350 . S
N377 S375 1.611 . S
N377 C378 1.346 1_455 S
C378 C372 1.428 . S
C378 N377 1.346 1_655 S
C378 C379 1.434 . S
C379 C370 1.429 . S
C379 N376 1.350 . S
C379 C378 1.434 . S
C380 C381 1.369 . S
C380 C382 1.419 . S
C380 H384 0.930 . S
C381 C380 1.369 . S
C381 C390 1.429 . S
C382 C380 1.419 . S
C382 C383 1.363 . S
C382 H385 0.929 . S
C383 C382 1.363 . S
C383 C389 1.428 . S
H384 C380 0.930 . S
H385 C382 0.929 . S
S386 N387 1.613 . S
S386 N388 1.610 . S
N387 S386 1.613 . S
N387 C390 1.350 . S
N388 S386 1.610 . S
N388 C389 1.351 . S
C389 C383 1.428 . S
C389 N388 1.351 . S
C389 C390 1.434 . S
C390 C381 1.429 . S
C390 N387 1.350 . S
C390 C389 1.434 . S
C391 C392 1.369 . S
C391 C393 1.419 . S
C391 H395 0.930 . S
C392 C391 1.369 . S
C392 C401 1.429 . S
C393 C391 1.419 . S
C393 C394 1.363 . S
C393 H396 0.929 . S
C394 C393 1.363 . S
C394 C400 1.428 . S
H395 C391 0.930 . S
H396 C393 0.929 . S
S397 N398 1.613 . S
S397 N399 1.610 . S
N398 S397 1.613 . S
N398 C401 1.350 . S
N399 S397 1.610 . S
N399 C400 1.351 . S
C400 C394 1.428 . S
C400 N399 1.351 . S
C400 C401 1.434 . S
C401 C392 1.429 . S
C401 N398 1.350 . S
C401 C400 1.434 . S
C402 C403 1.369 . S
C402 C404 1.419 . S
C402 H406 0.930 . S
C403 C402 1.369 . S
C403 C412 1.429 . S
C404 C402 1.419 . S
C404 C405 1.363 . S
C404 H407 0.929 . S
C405 C404 1.363 . S
C405 C411 1.428 . S
H406 C402 0.930 . S
H407 C404 0.929 . S
S408 N409 1.613 1_554 S
S408 N410 1.610 . S
N409 S408 1.613 1_556 S
N409 C412 1.350 . S
N410 S408 1.610 . S
N410 C411 1.351 1_554 S
C411 C405 1.428 . S
C411 N410 1.351 1_556 S
C411 C412 1.434 . S
C412 C403 1.429 . S
C412 N409 1.350 . S
C412 C411 1.434 . S
C413 C414 1.369 . S
C413 C415 1.419 . S
C413 H417 0.930 . S
C414 C413 1.369 . S
C414 C423 1.429 . S
C415 C413 1.419 . S
C415 C416 1.363 . S
C415 H418 0.929 . S
C416 C415 1.363 . S
C416 C422 1.428 . S
H417 C413 0.930 . S
H418 C415 0.929 . S
S419 N420 1.613 . S
S419 N421 1.610 . S
N420 S419 1.613 . S
N420 C423 1.350 . S
N421 S419 1.610 . S
N421 C422 1.351 . S
C422 C416 1.428 . S
C422 N421 1.351 . S
C422 C423 1.434 . S
C423 C414 1.429 . S
C423 N420 1.350 . S
C423 C422 1.434 . S
C424 C425 1.369 . S
C424 C426 1.419 . S
C424 H428 0.930 . S
C425 C424 1.369 . S
C425 C434 1.429 . S
C426 C424 1.419 . S
C426 C427 1.363 . S
C426 H429 0.929 . S
C427 C426 1.363 . S
C427 C433 1.428 . S
H428 C424 0.930 . S
H429 C426 0.929 . S
S430 N431 1.613 . S
S430 N432 1.610 . S
N431 S430 1.613 . S
N431 C434 1.350 . S
N432 S430 1.610 . S
N432 C433 1.351 . S
C433 C427 1.428 . S
C433 N432 1.351 . S
C433 C434 1.434 . S
C434 C425 1.429 . S
C434 N431 1.350 . S
C434 C433 1.434 . S
C435 C436 1.369 . S
C435 C437 1.419 . S
C435 H439 0.930 . S
C436 C435 1.369 . S
C436 C445 1.429 . S
C437 C435 1.419 . S
C437 C438 1.363 . S
C437 H440 0.929 . S
C438 C437 1.363 . S
C438 C444 1.428 . S
H439 C435 0.930 . S
H440 C437 0.929 . S
S441 N442 1.613 . S
S441 N443 1.610 . S
N442 S441 1.613 . S
N442 C445 1.350 . S
N443 S441 1.610 . S
N443 C444 1.351 . S
C444 C438 1.428 . S
C444 N443 1.351 . S
C444 C445 1.434 . S
C445 C436 1.429 . S
C445 N442 1.350 . S
C445 C444 1.434 . S
C446 C447 1.369 . S
C446 C448 1.419 . S
C446 H450 0.930 . S
C447 C446 1.369 . S
C447 C456 1.429 . S
C448 C446 1.419 . S
C448 C449 1.363 . S
C448 H451 0.929 . S
C449 C448 1.363 . S
C449 C455 1.428 . S
H450 C446 0.930 . S
H451 C448 0.929 . S
S452 N453 1.613 . S
S452 N454 1.610 . S
N453 S452 1.613 . S
N453 C456 1.350 . S
N454 S452 1.610 . S
N454 C455 1.351 . S
C455 C449 1.428 . S
C455 N454 1.351 . S
C455 C456 1.434 . S
C456 C447 1.429 . S
C456 N453 1.350 . S
C456 C455 1.434 . S
C457 C458 1.369 . S
C457 C459 1.419 . S
C457 H461 0.930 . S
C458 C457 1.369 . S
C458 C467 1.429 . S
C459 C457 1.419 . S
C459 C460 1.363 . S
C459 H462 0.929 . S
C460 C459 1.363 . S
C460 C466 1.428 . S
H461 C457 0.930 . S
H462 C459 0.929 . S
S463 N464 1.613 . S
S463 N465 1.610 . S
N464 S463 1.613 . S
N464 C467 1.350 . S
N465 S463 1.610 . S
N465 C466 1.351 . S
C466 C460 1.428 . S
C466 N465 1.351 . S
C466 C467 1.434 . S
C467 C458 1.429 . S
C467 N464 1.350 . S
C467 C466 1.434 . S
C468 C469 1.369 . S
C468 C470 1.419 . S
C468 H472 0.930 . S
C469 C468 1.369 . S
C469 C478 1.429 . S
C470 C468 1.419 . S
C470 C471 1.363 . S
C470 H473 0.929 . S
C471 C470 1.363 . S
C471 C477 1.428 . S
H472 C468 0.930 . S
H473 C470 0.929 . S
S474 N475 1.613 . S
S474 N476 1.610 . S
N475 S474 1.613 . S
N475 C478 1.350 . S
N476 S474 1.610 . S
N476 C477 1.351 . S
C477 C471 1.428 . S
C477 N476 1.351 . S
C477 C478 1.434 . S
C478 C469 1.429 . S
C478 N475 1.350 . S
C478 C477 1.434 . S
C479 C480 1.369 . S
C479 C481 1.419 . S
C479 H483 0.930 . S
C480 C479 1.369 . S
C480 C489 1.429 . S
C481 C479 1.419 . S
C481 C482 1.363 . S
C481 H484 0.929 . S
C482 C481 1.363 . S
C482 C488 1.428 . S
H483 C479 0.930 . S
H484 C481 0.929 . S
S485 N486 1.613 . S
S485 N487 1.610 . S
N486 S485 1.613 . S
N486 C489 1.350 . S
N487 S485 1.610 . S
N487 C488 1.351 . S
C488 C482 1.428 . S
C488 N487 1.351 . S
C488 C489 1.434 . S
C489 C480 1.429 . S
C489 N486 1.350 . S
C489 C488 1.434 . S
C490 C491 1.369 . S
C490 C492 1.419 . S
C490 H494 0.930 . S
C491 C490 1.369 . S
C491 C500 1.429 . S
C492 C490 1.419 . S
C492 C493 1.363 . S
C492 H495 0.929 . S
C493 C492 1.363 . S
C493 C499 1.428 . S
H494 C490 0.930 . S
H495 C492 0.929 . S
S496 N497 1.613 . S
S496 N498 1.610 . S
N497 S496 1.613 . S
N497 C500 1.350 . S
N498 S496 1.610 . S
N498 C499 1.351 . S
C499 C493 1.428 . S
C499 N498 1.351 . S
C499 C500 1.434 . S
C500 C491 1.429 . S
C500 N497 1.350 . S
C500 C499 1.434 . S
C501 C502 1.369 . S
C501 C503 1.419 . S
C501 H505 0.930 . S
C502 C501 1.369 . S
C502 C511 1.429 . S
C503 C501 1.419 . S
C503 C504 1.363 . S
C503 H506 0.929 . S
C504 C503 1.363 . S
C504 C510 1.428 . S
H505 C501 0.930 . S
H506 C503 0.929 . S
S507 N508 1.613 . S
S507 N509 1.610 . S
N508 S507 1.613 . S
N508 C511 1.350 . S
N509 S507 1.610 . S
N509 C510 1.351 . S
C510 C504 1.428 . S
C510 N509 1.351 . S
C510 C511 1.434 . S
C511 C502 1.429 . S
C511 N508 1.350 . S
C511 C510 1.434 . S
C512 C513 1.369 . S
C512 C514 1.419 . S
C512 H516 0.930 . S
C513 C512 1.369 . S
C513 C522 1.429 . S
C514 C512 1.419 . S
C514 C515 1.363 . S
C514 H517 0.929 . S
C515 C514 1.363 . S
C515 C521 1.428 . S
H516 C512 0.930 . S
H517 C514 0.929 . S
S518 N519 1.613 . S
S518 N520 1.610 . S
N519 S518 1.613 . S
N519 C522 1.350 . S
N520 S518 1.610 . S
N520 C521 1.351 . S
C521 C515 1.428 . S
C521 N520 1.351 . S
C521 C522 1.434 . S
C522 C513 1.429 . S
C522 N519 1.350 . S
C522 C521 1.434 . S
C523 C524 1.369 . S
C523 C525 1.419 . S
C523 H527 0.930 . S
C524 C523 1.369 . S
C524 C533 1.429 . S
C525 C523 1.419 . S
C525 C526 1.363 . S
C525 H528 0.929 . S
C526 C525 1.363 . S
C526 C532 1.428 . S
H527 C523 0.930 . S
H528 C525 0.929 . S
S529 N530 1.613 1_565 S
S529 N531 1.610 . S
N530 S529 1.613 1_545 S
N530 C533 1.350 . S
N531 S529 1.610 . S
N531 C532 1.351 1_565 S
C532 C526 1.428 . S
C532 N531 1.351 1_545 S
C532 C533 1.434 . S
C533 C524 1.429 . S
C533 N530 1.350 . S
C533 C532 1.434 . S
C534 C535 1.369 . S
C534 C536 1.419 . S
C534 H538 0.930 . S
C535 C534 1.369 . S
C535 C544 1.429 . S
C536 C534 1.419 . S
C536 C537 1.363 . S
C536 H539 0.929 . S
C537 C536 1.363 . S
C537 C543 1.428 . S
H538 C534 0.930 . S
H539 C536 0.929 . S
S540 N541 1.613 . S
S540 N542 1.610 . S
N541 S540 1.613 . S
N541 C544 1.350 . S
N542 S540 1.610 . S
N542 C543 1.351 . S
C543 C537 1.428 . S
C543 N542 1.351 . S
C543 C544 1.434 . S
C544 C535 1.429 . S
C544 N541 1.350 . S
C544 C543 1.434 . S
C545 C546 1.369 . S
C545 C547 1.419 . S
C545 H549 0.930 . S
C546 C545 1.369 . S
C546 C555 1.429 . S
C547 C545 1.419 . S
C547 C548 1.363 . S
C547 H550 0.929 . S
C548 C547 1.363 . S
C548 C554 1.428 . S
H549 C545 0.930 . S
H550 C547 0.929 . S
S551 N552 1.613 . S
S551 N553 1.610 . S
N552 S551 1.613 . S
N552 C555 1.350 . S
N553 S551 1.610 . S
N553 C554 1.351 . S
C554 C548 1.428 . S
C554 N553 1.351 . S
C554 C555 1.434 . S
C555 C546 1.429 . S
C555 N552 1.350 . S
C555 C554 1.434 . S
C556 C557 1.369 . S
C556 C558 1.419 . S
C556 H560 0.930 . S
C557 C556 1.369 . S
C557 C566 1.429 . S
C558 C556 1.419 . S
C558 C559 1.363 . S
C558 H561 0.929 . S
C559 C558 1.363 . S
C559 C565 1.428 . S
H560 C556 0.930 . S
H561 C558 0.929 . S
S562 N563 1.613 . S
S562 N564 1.610 . S
N563 S562 1.613 . S
N563 C566 1.350 . S
N564 S562 1.610 . S
N564 C565 1.351 . S
C565 C559 1.428 . S
C565 N564 1.351 . S
C565 C566 1.434 . S
C566 C557 1.429 . S
C566 N563 1.350 . S
C566 C565 1.434 . S
C567 C568 1.369 . S
C567 C569 1.419 . S
C567 H571 0.930 . S
C568 C567 1.369 . S
C568 C577 1.429 . S
C569 C567 1.419 . S
C569 C570 1.363 . S
C569 H572 0.929 . S
C570 C569 1.363 . S
C570 C576 1.428 . S
H571 C567 0.930 . S
H572 C569 0.929 . S
S573 N574 1.613 . S
S573 N575 1.610 . S
N574 S573 1.613 . S
N574 C577 1.350 . S
N575 S573 1.610 . S
N575 C576 1.351 . S
C576 C570 1.428 . S
C576 N575 1.351 . S
C576 C577 1.434 . S
C577 C568 1.429 . S
C577 N574 1.350 . S
C577 C576 1.434 . S
C578 C579 1.369 . S
C578 C580 1.419 . S
C578 H582 0.930 . S
C579 C578 1.369 . S
C579 C588 1.429 . S
C580 C578 1.419 . S
C580 C581 1.363 . S
C580 H583 0.929 . S
C581 C580 1.363 . S
C581 C587 1.428 . S
H582 C578 0.930 . S
H583 C580 0.929 . S
S584 N585 1.613 . S
S584 N586 1.610 . S
N585 S584 1.613 . S
N585 C588 1.350 . S
N586 S584 1.610 . S
N586 C587 1.351 . S
C587 C581 1.428 . S
C587 N586 1.351 . S
C587 C588 1.434 . S
C588 C579 1.429 . S
C588 N585 1.350 . S
C588 C587 1.434 . S
C589 C590 1.369 . S
C589 C591 1.419 . S
C589 H593 0.930 . S
C590 C589 1.369 . S
C590 C599 1.429 . S
C591 C589 1.419 . S
C591 C592 1.363 . S
C591 H594 0.929 . S
C592 C591 1.363 . S
C592 C598 1.428 . S
H593 C589 0.930 . S
H594 C591 0.929 . S
S595 N596 1.613 . S
S595 N597 1.610 . S
N596 S595 1.613 . S
N596 C599 1.350 . S
N597 S595 1.610 . S
N597 C598 1.351 . S
C598 C592 1.428 . S
C598 N597 1.351 . S
C598 C599 1.434 . S
C599 C590 1.429 . S
C599 N596 1.350 . S
C599 C598 1.434 . S
C337 C29 1.559 . S
C339 C258 1.544 . S
C348 C49 1.308 . S
C350 C277 1.281 . S
C361 C314 1.785 . S
C359 C93 1.772 . S
C370 C119 1.648 . S
C372 C324 1.658 . S
C383 C294 1.894 . S
C381 C17 1.885 . S
C394 C264 1.397 . S
C392 C61 1.494 . S
C405 C335 1.524 . S
C403 C81 1.534 . S
C416 C305 1.495 . S
C414 C125 1.470 . S
C425 C23 1.670 . S
C427 C318 1.672 . S
C438 C285 1.684 . S
C436 C87 1.703 . S
C447 C113 1.714 . S
C449 C275 1.770 . S
C458 C55 1.253 . S
C460 C297 1.285 . S
C471 C257 1.517 . S
C469 C157 1.340 . S
C480 C189 1.293 . S
C482 C278 1.308 . S
C491 C221 1.769 . S
C493 C315 1.761 . S
C502 C253 1.702 . S
C504 C325 1.723 . S
C513 C145 1.773 . S
C515 C295 1.948 . S
C526 C265 1.342 . S
C524 C183 1.366 . S
C537 C334 1.552 . S
C535 C209 1.554 . S
C548 C304 1.462 . S
C546 C247 1.428 . S
C557 C151 1.528 . S
C559 C317 1.682 . S
C570 C284 1.679 . S
C568 C215 1.721 . S
C581 C274 1.748 . S
C579 C241 1.691 . S
C590 C177 1.240 . S
C592 C298 1.268 . S
