# Generated by pormake.
# Topology pto, (3,4)-cn, num edge types: 1
# Building blocks:
#     Node 0, Type 0, BuildingBlock: PAMTOO_clean_linker_0, # of connection points: 3
#     Node 1, Type 0, BuildingBlock: PAMTOO_clean_linker_0, # of connection points: 3
#     Node 2, Type 0, BuildingBlock: PAMTOO_clean_linker_0, # of connection points: 3
#     Node 3, Type 0, BuildingBlock: PAMTOO_clean_linker_0, # of connection points: 3
#     Node 4, Type 0, BuildingBlock: PAMTOO_clean_linker_0, # of connection points: 3
#     Node 5, Type 0, BuildingBlock: PAMTOO_clean_linker_0, # of connection points: 3
#     Node 6, Type 0, BuildingBlock: PAMTOO_clean_linker_0, # of connection points: 3
#     Node 7, Type 0, BuildingBlock: PAMTOO_clean_linker_0, # of connection points: 3
#     Node 8, Type 1, BuildingBlock: KOZSID_clean_sbu_0, # of connection points: 4
#     Node 9, Type 1, BuildingBlock: KOZSID_clean_sbu_0, # of connection points: 4
#     Node 10, Type 1, BuildingBlock: KOZSID_clean_sbu_0, # of connection points: 4
#     Node 11, Type 1, BuildingBlock: KOZSID_clean_sbu_0, # of connection points: 4
#     Node 12, Type 1, BuildingBlock: KOZSID_clean_sbu_0, # of connection points: 4
#     Node 13, Type 1, BuildingBlock: KOZSID_clean_sbu_0, # of connection points: 4
#     Edge 14, Type (0, 1), BuildingBlock: UVAHIK_clean_linker_0, # of connection points: 2
#     Edge 15, Type (0, 1), BuildingBlock: UVAHIK_clean_linker_0, # of connection points: 2
#     Edge 16, Type (0, 1), BuildingBlock: UVAHIK_clean_linker_0, # of connection points: 2
#     Edge 17, Type (0, 1), BuildingBlock: UVAHIK_clean_linker_0, # of connection points: 2
#     Edge 18, Type (0, 1), BuildingBlock: UVAHIK_clean_linker_0, # of connection points: 2
#     Edge 19, Type (0, 1), BuildingBlock: UVAHIK_clean_linker_0, # of connection points: 2
#     Edge 20, Type (0, 1), BuildingBlock: UVAHIK_clean_linker_0, # of connection points: 2
#     Edge 21, Type (0, 1), BuildingBlock: UVAHIK_clean_linker_0, # of connection points: 2
#     Edge 22, Type (0, 1), BuildingBlock: UVAHIK_clean_linker_0, # of connection points: 2
#     Edge 23, Type (0, 1), BuildingBlock: UVAHIK_clean_linker_0, # of connection points: 2
#     Edge 24, Type (0, 1), BuildingBlock: UVAHIK_clean_linker_0, # of connection points: 2
#     Edge 25, Type (0, 1), BuildingBlock: UVAHIK_clean_linker_0, # of connection points: 2
#     Edge 26, Type (0, 1), BuildingBlock: UVAHIK_clean_linker_0, # of connection points: 2
#     Edge 27, Type (0, 1), BuildingBlock: UVAHIK_clean_linker_0, # of connection points: 2
#     Edge 28, Type (0, 1), BuildingBlock: UVAHIK_clean_linker_0, # of connection points: 2
#     Edge 29, Type (0, 1), BuildingBlock: UVAHIK_clean_linker_0, # of connection points: 2
#     Edge 30, Type (0, 1), BuildingBlock: UVAHIK_clean_linker_0, # of connection points: 2
#     Edge 31, Type (0, 1), BuildingBlock: UVAHIK_clean_linker_0, # of connection points: 2
#     Edge 32, Type (0, 1), BuildingBlock: UVAHIK_clean_linker_0, # of connection points: 2
#     Edge 33, Type (0, 1), BuildingBlock: UVAHIK_clean_linker_0, # of connection points: 2
#     Edge 34, Type (0, 1), BuildingBlock: UVAHIK_clean_linker_0, # of connection points: 2
#     Edge 35, Type (0, 1), BuildingBlock: UVAHIK_clean_linker_0, # of connection points: 2
#     Edge 36, Type (0, 1), BuildingBlock: UVAHIK_clean_linker_0, # of connection points: 2
#     Edge 37, Type (0, 1), BuildingBlock: UVAHIK_clean_linker_0, # of connection points: 2
# Relax obj value: 0.024
# Max RMSD: 0.170
# Mean RMSD: 0.076
data_MOF--net-pto--node1-KOZSID_clean_sbu_0--node2-PAMTOO_clean_linker_0--edge1-UVAHIK_clean_linker_0
_symmetry_space_group_name_H-M    P1
_symmetry_Int_Tables_number       1
_symmetry_cell_setting            triclinic
loop_
_symmetry_equiv_pos_as_xyz
'x, y, z'
_cell_length_a     49.45145
_cell_length_b     63.587115
_cell_length_c     57.682659
_cell_angle_alpha  82.474265
_cell_angle_beta   81.056813
_cell_angle_gamma 102.39213
loop_
_atom_site_label
_atom_site_type_symbol
_atom_site_fract_x
_atom_site_fract_y
_atom_site_fract_z
_atom_type_partial_charge
H0 H 0.21817 0.2839 0.37191 0.0
H1 H 0.27164 0.26177 0.31875 0.0
H2 H 0.25768 0.32607 0.30518 0.0
H3 H 0.25899 0.30717 0.26382 0.0
C4 C 0.27048 0.29432 0.26789 0.0
O5 O 0.28233 0.29766 0.28766 0.0
H6 H 0.25524 0.27805 0.27161 0.0
C7 C 0.23227 0.287 0.35481 0.0
C8 C 0.23659 0.30707 0.33966 0.0
C9 C 0.24475 0.27045 0.34753 0.0
C10 C 0.26177 0.27425 0.32477 0.0
C11 C 0.26634 0.29427 0.30964 0.0
C12 C 0.254 0.31068 0.31713 0.0
H13 H 0.23809 0.79409 0.74848 0.0
H14 H 0.28814 0.77008 0.79576 0.0
H15 H 0.29962 0.83913 0.77465 0.0
H16 H 0.35214 0.82792 0.77909 0.0
C17 C 0.34418 0.81176 0.79095 0.0
O18 O 0.31592 0.80881 0.80017 0.0
H19 H 0.34739 0.79892 0.78011 0.0
C20 C 0.25426 0.79718 0.75916 0.0
C21 C 0.26799 0.81881 0.75977 0.0
C22 C 0.26129 0.77946 0.77203 0.0
C23 C 0.28242 0.78352 0.78567 0.0
C24 C 0.29596 0.80502 0.78669 0.0
C25 C 0.28866 0.8226 0.77392 0.0
H26 H 0.73485 0.78957 0.31024 0.0
H27 H 0.76506 0.73217 0.29997 0.0
H28 H 0.77066 0.75815 0.36455 0.0
H29 H 0.81936 0.74457 0.34885 0.0
C30 C 0.8119 0.73307 0.33695 0.0
O31 O 0.78283 0.72828 0.34048 0.0
H32 H 0.82094 0.74115 0.31818 0.0
C33 C 0.74463 0.77677 0.31659 0.0
C34 C 0.75216 0.77584 0.33912 0.0
C35 C 0.74886 0.76098 0.30245 0.0
C36 C 0.76116 0.74425 0.31086 0.0
C37 C 0.76918 0.74343 0.33315 0.0
C38 C 0.76416 0.7589 0.34742 0.0
H39 H 0.77249 0.32373 0.73567 0.0
H40 H 0.72889 0.25808 0.73308 0.0
H41 H 0.79923 0.2917 0.67782 0.0
H42 H 0.75436 0.26705 0.65962 0.0
C43 C 0.74388 0.2542 0.67534 0.0
O44 O 0.75992 0.25563 0.6929 0.0
H45 H 0.72273 0.2568 0.6822 0.0
C46 C 0.76988 0.30972 0.72662 0.0
C47 C 0.78858 0.31017 0.70544 0.0
C48 C 0.7485 0.29097 0.73681 0.0
C49 C 0.7455 0.2726 0.72553 0.0
C50 C 0.7636 0.27305 0.70416 0.0
C51 C 0.78533 0.29163 0.69433 0.0
H52 H 0.75172 0.80607 0.75905 0.0
H53 H 0.78161 0.74973 0.78303 0.0
H54 H 0.80585 0.78072 0.70977 0.0
H55 H 0.78957 0.73255 0.71849 0.0
C56 C 0.79844 0.72928 0.73482 0.0
O57 O 0.81038 0.74881 0.74124 0.0
H58 H 0.781 0.7196 0.74937 0.0
C59 C 0.76399 0.79424 0.7554 0.0
C60 C 0.77874 0.79554 0.73221 0.0
C61 C 0.76472 0.77778 0.77389 0.0
C62 C 0.78082 0.76262 0.76905 0.0
C63 C 0.79533 0.76363 0.74589 0.0
C64 C 0.79431 0.78003 0.72754 0.0
H65 H 0.78084 0.26107 0.348 0.0
H66 H 0.72863 0.23993 0.29811 0.0
H67 H 0.77184 0.30716 0.2896 0.0
H68 H 0.71601 0.30214 0.28052 0.0
C69 C 0.71231 0.28562 0.27541 0.0
O70 O 0.73704 0.27875 0.27306 0.0
H71 H 0.69598 0.27426 0.28972 0.0
C72 C 0.77244 0.2646 0.33204 0.0
C73 C 0.77876 0.2862 0.31977 0.0
C74 C 0.75433 0.24771 0.32445 0.0
C75 C 0.74258 0.25265 0.30435 0.0
C76 C 0.74887 0.27406 0.29203 0.0
C77 C 0.76707 0.2907 0.29953 0.0
H78 H 0.22381 0.2926 0.70132 0.0
H79 H 0.2669 0.32477 0.75142 0.0
H80 H 0.27619 0.26137 0.74018 0.0
H81 H 0.26711 0.26598 0.79015 0.0
C82 C 0.27606 0.28387 0.78838 0.0
O83 O 0.28842 0.29245 0.76498 0.0
H84 H 0.25842 0.29149 0.79421 0.0
C85 C 0.23777 0.29295 0.71408 0.0
C86 C 0.24968 0.27507 0.719 0.0
C87 C 0.24389 0.31117 0.72554 0.0
C88 C 0.26165 0.31098 0.74237 0.0
C89 C 0.27284 0.29295 0.74779 0.0
C90 C 0.2673 0.27523 0.73585 0.0
H91 H 0.22544 0.78192 0.39364 0.0
H92 H 0.27319 0.76578 0.33213 0.0
H93 H 0.29129 0.8313 0.34626 0.0
H94 H 0.30034 0.83202 0.2956 0.0
C95 C 0.29868 0.81426 0.29595 0.0
O96 O 0.30446 0.80529 0.3172 0.0
H97 H 0.27676 0.8065 0.29426 0.0
C98 C 0.24179 0.78669 0.37778 0.0
C99 C 0.25749 0.80847 0.37163 0.0
C100 C 0.24742 0.77099 0.36387 0.0
C101 C 0.26892 0.77742 0.34351 0.0
C102 C 0.28461 0.7991 0.33728 0.0
C103 C 0.27921 0.8145 0.35148 0.0
C104 C 0.04898 0.54331 0.41709 0.0
C105 C 0.05204 0.5462 0.44006 0.0
C106 C 0.03203 0.52994 0.45512 0.0
C107 C 0.0181 0.51804 0.44054 0.0
N108 N 0.02793 0.52572 0.41706 0.0
Co109 Co 0.0145 0.5128 0.38977 0.0
N110 N 0.9841 0.48963 0.41194 0.0
C111 C 0.97752 0.48756 0.4359 0.0
C112 C 0.95518 0.47036 0.44627 0.0
C113 C 0.94694 0.46087 0.42782 0.0
C114 C 0.96492 0.47284 0.40721 0.0
N115 N 0.00215 0.49915 0.3625 0.0
C116 C 0.98216 0.48087 0.36256 0.0
C117 C 0.98146 0.47637 0.33971 0.0
C118 C 0.00176 0.49239 0.32465 0.0
C119 C 0.01374 0.50561 0.3391 0.0
N120 N 0.0439 0.53665 0.36751 0.0
C121 C 0.04843 0.54012 0.34341 0.0
C122 C 0.06902 0.55845 0.33295 0.0
C123 C 0.07809 0.56737 0.35143 0.0
C124 C 0.06255 0.55378 0.37221 0.0
N125 N 0.0414 0.4938 0.39114 0.0
C126 C 0.07485 0.46317 0.39039 0.0
C127 C 0.07766 0.47921 0.37061 0.0
C128 C 0.06094 0.49421 0.37136 0.0
C129 C 0.05636 0.46362 0.41117 0.0
C130 C 0.04002 0.47909 0.41119 0.0
N131 N 0.98755 0.5318 0.38821 0.0
C132 C 0.96419 0.55388 0.36469 0.0
C133 C 0.9525 0.56125 0.38479 0.0
C134 C 0.95773 0.55289 0.40687 0.0
C135 C 0.97507 0.53818 0.40819 0.0
C136 C 0.98154 0.53944 0.36675 0.0
H137 H 0.97836 0.53242 0.4255 0.0
H138 H 0.99003 0.53492 0.35058 0.0
H139 H 0.06381 0.50562 0.35545 0.0
H140 H 0.02594 0.4785 0.42742 0.0
C141 C 0.99432 0.50075 0.44827 0.0
C142 C 0.06619 0.55794 0.39593 0.0
C143 C 0.96335 0.46732 0.38368 0.0
C144 C 0.0345 0.52499 0.33115 0.0
H145 H 0.06697 0.55892 0.44537 0.0
H146 H 0.02778 0.52736 0.47439 0.0
H147 H 0.94639 0.46504 0.46505 0.0
H148 H 0.92992 0.44655 0.42935 0.0
H149 H 0.96762 0.46294 0.33445 0.0
H150 H 0.00696 0.49431 0.30544 0.0
H151 H 0.07677 0.56446 0.31411 0.0
H152 H 0.09437 0.58218 0.34977 0.0
H153 H 0.0924 0.47997 0.35434 0.0
H154 H 0.05368 0.45163 0.42703 0.0
H155 H 0.96011 0.55928 0.34724 0.0
H156 H 0.94909 0.55804 0.42302 0.0
C157 C 0.08631 0.56486 0.73488 0.0
C158 C 0.08718 0.56398 0.75893 0.0
C159 C 0.06561 0.54703 0.7709 0.0
C160 C 0.05295 0.53852 0.75356 0.0
N161 N 0.06527 0.54887 0.73117 0.0
Co162 Co 0.05382 0.54183 0.70064 0.0
N163 N 0.0209 0.51783 0.71839 0.0
C164 C 0.01289 0.51175 0.74231 0.0
C165 C 0.98969 0.49457 0.74922 0.0
C166 C 0.98249 0.4892 0.72851 0.0
C167 C 0.00179 0.50354 0.71007 0.0
N168 N 0.04256 0.53455 0.67012 0.0
C169 C 0.0217 0.51838 0.66641 0.0
C170 C 0.02153 0.51869 0.64233 0.0
C171 C 0.04328 0.53551 0.63034 0.0
C172 C 0.0554 0.54448 0.64771 0.0
N173 N 0.08652 0.56604 0.68295 0.0
C174 C 0.09419 0.57241 0.65906 0.0
C175 C 0.11695 0.58997 0.65221 0.0
C176 C 0.12414 0.59532 0.67294 0.0
C177 C 0.1053 0.58059 0.69132 0.0
N178 N 0.07811 0.52073 0.69938 0.0
C179 C 0.11207 0.49037 0.69782 0.0
C180 C 0.11376 0.50599 0.67788 0.0
C181 C 0.0967 0.52088 0.67904 0.0
C182 C 0.09301 0.49018 0.71846 0.0
C183 C 0.0765 0.50537 0.71887 0.0
N184 N 0.02952 0.56294 0.70192 0.0
C185 C 0.01254 0.59246 0.68289 0.0
C186 C 0.9957 0.59337 0.70439 0.0
C187 C 0.99594 0.57865 0.72453 0.0
C188 C 0.01284 0.56377 0.72292 0.0
C189 C 0.02916 0.57724 0.68207 0.0
H190 H 0.01203 0.55313 0.73896 0.0
H191 H 0.04164 0.57744 0.66521 0.0
H192 H 0.09894 0.53234 0.66325 0.0
H193 H 0.06249 0.50423 0.73516 0.0
C194 C 0.02858 0.52163 0.75781 0.0
C195 C 0.10535 0.58164 0.7164 0.0
C196 C 0.00182 0.50227 0.68501 0.0
C197 C 0.07914 0.56191 0.64356 0.0
H198 H 0.10165 0.57471 0.76699 0.0
H199 H 0.05953 0.54182 0.78999 0.0
H200 H 0.97964 0.48654 0.76716 0.0
H201 H 0.96529 0.47593 0.72718 0.0
H202 H 0.00728 0.50775 0.63428 0.0
H203 H 0.0497 0.54046 0.61124 0.0
H204 H 0.12684 0.59814 0.63428 0.0
H205 H 0.14106 0.60877 0.67437 0.0
H206 H 0.12837 0.50692 0.6615 0.0
H207 H 0.09045 0.47813 0.73427 0.0
H208 H 0.01326 0.60364 0.66681 0.0
H209 H 0.98286 0.57839 0.74153 0.0
C210 C 0.23368 0.00343 0.5887 0.0
C211 C 0.26012 0.00059 0.59153 0.0
C212 C 0.27925 0.01511 0.57394 0.0
C213 C 0.26348 0.02588 0.56139 0.0
N214 N 0.23541 0.01931 0.57004 0.0
Co215 Co 0.2048 0.0297 0.55629 0.0
N216 N 0.23308 0.05181 0.53116 0.0
C217 C 0.2615 0.05614 0.52858 0.0
C218 C 0.27539 0.073 0.51051 0.0
C219 C 0.2546 0.08015 0.50121 0.0
C220 C 0.22915 0.06711 0.5142 0.0
N221 N 0.1742 0.03916 0.54161 0.0
C222 C 0.17591 0.05491 0.52282 0.0
C223 C 0.14947 0.05586 0.51815 0.0
C224 C 0.13033 0.04023 0.53471 0.0
C225 C 0.14612 0.03064 0.54844 0.0
N226 N 0.17658 0.00861 0.58236 0.0
C227 C 0.14824 0.00566 0.58614 0.0
C228 C 0.13439 0.9905 0.60586 0.0
C229 C 0.15513 0.98336 0.61528 0.0
C230 C 0.18051 0.99457 0.60062 0.0
N231 N 0.20548 0.05241 0.57682 0.0
C232 C 0.20786 0.08727 0.60261 0.0
C233 C 0.18244 0.07668 0.59701 0.0
C234 C 0.18167 0.05927 0.58444 0.0
C235 C 0.23173 0.07942 0.59588 0.0
C236 C 0.23015 0.06231 0.58297 0.0
N237 N 0.20419 0.00704 0.53562 0.0
C238 C 0.18003 0.97435 0.52314 0.0
C239 C 0.20417 0.97452 0.50692 0.0
C240 C 0.22819 0.99121 0.50515 0.0
C241 C 0.22782 0.00706 0.51965 0.0
C242 C 0.18039 0.99081 0.53705 0.0
H243 H 0.24708 0.019 0.5177 0.0
H244 H 0.16118 0.98997 0.54884 0.0
H245 H 0.16165 0.05185 0.58076 0.0
H246 H 0.24934 0.05759 0.57792 0.0
C247 C 0.27448 0.04333 0.54261 0.0
C248 C 0.20763 0.99066 0.60421 0.0
C249 C 0.20186 0.07009 0.50987 0.0
C250 C 0.13522 0.01571 0.56954 0.0
H251 H 0.26507 0.98926 0.60501 0.0
H252 H 0.30197 0.01771 0.57087 0.0
H253 H 0.29793 0.07929 0.50474 0.0
H254 H 0.2578 0.09347 0.48655 0.0
H255 H 0.14451 0.0671 0.50458 0.0
H256 H 0.10758 0.03686 0.53706 0.0
H257 H 0.11186 0.98486 0.61223 0.0
H258 H 0.15195 0.97098 0.63089 0.0
H259 H 0.16329 0.08207 0.60175 0.0
H260 H 0.25178 0.08649 0.6004 0.0
H261 H 0.16089 0.96171 0.52493 0.0
H262 H 0.24748 0.99177 0.49299 0.0
C263 C 0.51646 0.81556 0.07861 0.0
C264 C 0.51497 0.83645 0.08238 0.0
C265 C 0.53674 0.85064 0.06668 0.0
C266 C 0.55007 0.83769 0.05413 0.0
N267 N 0.53809 0.81606 0.06079 0.0
Co268 Co 0.54995 0.7916 0.04645 0.0
N269 N 0.58301 0.81243 0.02444 0.0
C270 C 0.59148 0.83423 0.02378 0.0
C271 C 0.61516 0.84414 0.00698 0.0
C272 C 0.62222 0.8277 0.99618 0.0
C273 C 0.60227 0.80868 0.00704 0.0
N274 N 0.56108 0.76724 0.03137 0.0
C275 C 0.58174 0.76794 0.01266 0.0
C276 C 0.58146 0.74733 0.00705 0.0
C277 C 0.55966 0.73307 0.02266 0.0
C278 C 0.5479 0.74576 0.03677 0.0
N279 N 0.51758 0.77066 0.06918 0.0
C280 C 0.51077 0.74862 0.07136 0.0
C281 C 0.48859 0.73848 0.08948 0.0
C282 C 0.48086 0.75498 0.09967 0.0
C283 C 0.49872 0.77436 0.08698 0.0
N284 N 0.52569 0.79502 0.02252 0.0
C285 C 0.49389 0.79903 0.9863 0.0
C286 C 0.48997 0.77913 0.00142 0.0
C287 C 0.50592 0.7775 0.01923 0.0
C288 C 0.51344 0.81706 0.99012 0.0
C289 C 0.5289 0.81473 0.00822 0.0
N290 N 0.57433 0.78815 0.07031 0.0
C291 C 0.59456 0.7651 0.09591 0.0
C292 C 0.60868 0.78311 0.10443 0.0
C293 C 0.60538 0.80373 0.09542 0.0
C294 C 0.58842 0.80587 0.07844 0.0
C295 C 0.57753 0.76794 0.07916 0.0
H296 H 0.58694 0.82204 0.07229 0.0
H297 H 0.5672 0.75347 0.0737 0.0
H298 H 0.50208 0.76182 0.02995 0.0
H299 H 0.54364 0.82903 0.01004 0.0
C300 C 0.57514 0.84519 0.03742 0.0
C301 C 0.49732 0.79579 0.09284 0.0
C302 C 0.60173 0.78768 0.99943 0.0
C303 C 0.52509 0.73794 0.0557 0.0
H304 H 0.49996 0.84096 0.09539 0.0
H305 H 0.54255 0.86826 0.06499 0.0
H306 H 0.62552 0.86136 0.00258 0.0
H307 H 0.63969 0.82957 0.98159 0.0
H308 H 0.59551 0.74308 0.99305 0.0
H309 H 0.55313 0.71556 0.02359 0.0
H310 H 0.47921 0.72113 0.0947 0.0
H311 H 0.46409 0.75291 0.11487 0.0
H312 H 0.47464 0.76478 0.99956 0.0
H313 H 0.51741 0.83282 0.97882 0.0
H314 H 0.59672 0.74879 0.10194 0.0
H315 H 0.61547 0.81822 0.10166 0.0
C316 C 0.7542 0.98016 0.55088 0.0
C317 C 0.78156 0.97925 0.55294 0.0
C318 C 0.79908 0.99481 0.53533 0.0
C319 C 0.78153 0.00424 0.52355 0.0
N320 N 0.75379 0.99583 0.5327 0.0
Co321 Co 0.72098 0.004 0.52039 0.0
N322 N 0.74685 0.02621 0.49379 0.0
C323 C 0.77541 0.03141 0.48941 0.0
C324 C 0.78735 0.04778 0.47037 0.0
C325 C 0.76515 0.05356 0.46214 0.0
C326 C 0.74081 0.04023 0.47667 0.0
N327 N 0.68819 0.01194 0.50784 0.0
C328 C 0.68776 0.0272 0.48924 0.0
C329 C 0.66043 0.02744 0.48652 0.0
C330 C 0.6429 0.01194 0.50422 0.0
C331 C 0.66046 0.00311 0.51663 0.0
N332 N 0.69514 0.982 0.54719 0.0
C333 C 0.66663 0.97744 0.55219 0.0
C334 C 0.65476 0.96136 0.57157 0.0
C335 C 0.677 0.95513 0.57934 0.0
C336 C 0.7012 0.96779 0.56412 0.0
N337 N 0.72146 0.02689 0.54079 0.0
C338 C 0.72225 0.06025 0.56863 0.0
C339 C 0.69685 0.04631 0.56701 0.0
C340 C 0.69694 0.0299 0.55311 0.0
C341 C 0.74723 0.05703 0.55626 0.0
C342 C 0.74636 0.0404 0.54264 0.0
N343 N 0.72051 0.9811 0.50007 0.0
C344 C 0.69578 0.94884 0.48725 0.0
C345 C 0.72058 0.94738 0.47296 0.0
C346 C 0.74522 0.96324 0.47214 0.0
C347 C 0.74474 0.97976 0.48578 0.0
C348 C 0.69617 0.96582 0.5004 0.0
H349 H 0.76433 0.99108 0.48467 0.0
H350 H 0.67655 0.96612 0.51082 0.0
H351 H 0.6769 0.01992 0.55255 0.0
H352 H 0.76614 0.03896 0.53361 0.0
C353 C 0.79046 0.0207 0.50358 0.0
C354 C 0.72937 0.96529 0.56608 0.0
C355 C 0.71254 0.04209 0.474 0.0
C356 C 0.65156 0.98741 0.53733 0.0
H357 H 0.78818 0.96825 0.56563 0.0
H358 H 0.8219 0.99857 0.53136 0.0
H359 H 0.80956 0.05483 0.46346 0.0
H360 H 0.76677 0.06638 0.44731 0.0
H361 H 0.65388 0.03795 0.47326 0.0
H362 H 0.62008 0.00787 0.50789 0.0
H363 H 0.63257 0.95459 0.57881 0.0
H364 H 0.67558 0.94244 0.59426 0.0
H365 H 0.67692 0.04794 0.57651 0.0
H366 H 0.76746 0.06757 0.55662 0.0
H367 H 0.67611 0.93703 0.48817 0.0
H368 H 0.765 0.96264 0.46143 0.0
C369 C 0.49274 0.32244 0.04274 0.0
C370 C 0.48979 0.34301 0.04657 0.0
C371 C 0.51036 0.35783 0.03036 0.0
C372 C 0.52448 0.34553 0.01747 0.0
N373 N 0.51417 0.32373 0.02442 0.0
Co374 Co 0.52758 0.3 0.00965 0.0
N375 N 0.55849 0.32184 0.98646 0.0
C376 C 0.56551 0.34372 0.98568 0.0
C377 C 0.58831 0.35441 0.96834 0.0
C378 C 0.59624 0.33843 0.95723 0.0
C379 C 0.57752 0.31886 0.96834 0.0
N380 N 0.54021 0.27631 0.99419 0.0
C381 C 0.55978 0.27772 0.97441 0.0
C382 C 0.55998 0.25726 0.96845 0.0
C383 C 0.54009 0.24241 0.98516 0.0
C384 C 0.52865 0.25456 0.00012 0.0
N385 N 0.49735 0.2781 0.03349 0.0
C386 C 0.49246 0.25607 0.03604 0.0
C387 C 0.47156 0.24524 0.05489 0.0
C388 C 0.4626 0.26127 0.06515 0.0
C389 C 0.47847 0.28107 0.05175 0.0
N390 N 0.50144 0.30153 0.98705 0.0
C391 C 0.46674 0.303 0.95284 0.0
C392 C 0.4654 0.28344 0.96764 0.0
C393 C 0.48272 0.28308 0.98451 0.0
C394 C 0.48519 0.32196 0.95591 0.0
C395 C 0.5022 0.32087 0.97302 0.0
N396 N 0.55381 0.29844 0.03227 0.0
C397 C 0.57574 0.27718 0.05821 0.0
C398 C 0.58844 0.29582 0.06649 0.0
C399 C 0.58419 0.3159 0.05681 0.0
C400 C 0.56706 0.31683 0.03981 0.0
C401 C 0.55866 0.27884 0.04129 0.0
H402 H 0.56456 0.33261 0.03332 0.0
H403 H 0.54944 0.26396 0.03599 0.0
H404 H 0.48076 0.26763 0.99513 0.0
H405 H 0.51607 0.33582 0.97434 0.0
C406 C 0.54868 0.35392 -7e-05 0.0
C407 C 0.47505 0.30222 0.05729 0.0
C408 C 0.57804 0.29804 0.96043 0.0
C409 C 0.50709 0.24603 0.0199 0.0
H410 H 0.47454 0.34692 0.05988 0.0
H411 H 0.51482 0.37546 0.02847 0.0
H412 H 0.59756 0.37181 0.96386 0.0
H413 H 0.61349 0.34097 0.94231 0.0
H414 H 0.57282 0.25335 0.95343 0.0
H415 H 0.53437 0.22486 0.98608 0.0
H416 H 0.46374 0.22776 0.06049 0.0
H417 H 0.44631 0.25861 0.08082 0.0
H418 H 0.45098 0.2684 0.96628 0.0
H419 H 0.48703 0.33751 0.94481 0.0
H420 H 0.57884 0.26129 0.0648 0.0
H421 H 0.59339 0.33082 0.06275 0.0
C422 C 0.20724 0.33354 0.33087 0.0
C423 C 0.22135 0.32358 0.34683 0.0
C424 C 0.19104 0.34781 0.33806 0.0
C425 C 0.18004 0.38396 0.38124 0.0
H426 H 0.10601 0.376 0.36439 0.0
C427 C 0.1032 0.4383 0.40703 0.0
C428 C 0.09013 0.44558 0.38859 0.0
C429 C 0.11823 0.42213 0.40456 0.0
C430 C 0.12669 0.37853 0.36912 0.0
H431 H 0.23033 0.32127 0.38256 0.0
H432 H 0.20198 0.34644 0.39512 0.0
H433 H 0.13518 0.35089 0.35449 0.0
H434 H 0.08168 0.44106 0.35354 0.0
H435 H 0.10824 0.41346 0.34903 0.0
H436 H 0.17179 0.41201 0.39529 0.0
C437 C 0.20346 0.34309 0.37709 0.0
C438 C 0.14338 0.36415 0.36344 0.0
C439 C 0.21951 0.32863 0.36995 0.0
C440 C 0.0919 0.43608 0.36792 0.0
C441 C 0.10681 0.42001 0.36547 0.0
C442 C 0.16337 0.39849 0.3868 0.0
C443 C 0.18871 0.35254 0.36131 0.0
C444 C 0.17043 0.36696 0.36901 0.0
C445 C 0.12023 0.41286 0.38369 0.0
C446 C 0.13674 0.39618 0.38033 0.0
H447 H 0.20805 0.32981 0.31302 0.0
H448 H 0.18018 0.3551 0.32543 0.0
H449 H 0.20086 0.3865 0.38569 0.0
H450 H 0.10224 0.44537 0.42314 0.0
H451 H 0.1282 0.41685 0.41898 0.0
C452 C 0.26185 0.74113 0.76606 0.0
C453 C 0.24658 0.75685 0.77077 0.0
C454 C 0.24798 0.72047 0.76263 0.0
C455 C 0.17759 0.68242 0.77256 0.0
H456 H 0.20854 0.66141 0.71654 0.0
C457 C 0.11051 0.61672 0.732 0.0
C458 C 0.12305 0.60083 0.72332 0.0
C459 C 0.12679 0.63454 0.73929 0.0
C460 C 0.19982 0.66685 0.73246 0.0
H461 H 0.20482 0.76301 0.77672 0.0
H462 H 0.18067 0.72709 0.77066 0.0
H463 H 0.23509 0.69433 0.72771 0.0
H464 H 0.16197 0.59063 0.71545 0.0
H465 H 0.19074 0.62188 0.72832 0.0
H466 H 0.14216 0.65517 0.77716 0.0
C467 C 0.20329 0.73063 0.76963 0.0
C468 C 0.21505 0.6857 0.73887 0.0
C469 C 0.21714 0.75126 0.77289 0.0
C470 C 0.15207 0.6029 0.72197 0.0
C471 C 0.16843 0.62076 0.72926 0.0
C472 C 0.16241 0.66358 0.7662 0.0
C473 C 0.21858 0.71511 0.7641 0.0
C474 C 0.20385 0.6939 0.75875 0.0
C475 C 0.15593 0.63674 0.73809 0.0
C476 C 0.1731 0.6558 0.74582 0.0
H477 H 0.28458 0.74506 0.76423 0.0
H478 H 0.26028 0.70877 0.75858 0.0
H479 H 0.16862 0.68814 0.7882 0.0
H480 H 0.08809 0.61529 0.73314 0.0
H481 H 0.11659 0.64673 0.74561 0.0
C482 C 0.84281 0.70767 0.32631 0.0
C483 C 0.82192 0.71261 0.34265 0.0
C484 C 0.85356 0.68951 0.33214 0.0
C485 C 0.86204 0.6521 0.3837 0.0
H486 H 0.88384 0.61937 0.3347 0.0
C487 C 0.91131 0.57685 0.39921 0.0
C488 C 0.93555 0.57785 0.38228 0.0
C489 C 0.89491 0.59205 0.3959 0.0
C490 C 0.87786 0.62838 0.34856 0.0
H491 H 0.796 0.70269 0.3779 0.0
H492 H 0.81433 0.67049 0.38802 0.0
H493 H 0.85875 0.64759 0.32584 0.0
H494 H 0.96232 0.59639 0.34932 0.0
H495 H 0.93345 0.62235 0.34336 0.0
H496 H 0.88132 0.63271 0.40636 0.0
C497 C 0.82257 0.68075 0.37076 0.0
C498 C 0.86359 0.6446 0.34348 0.0
C499 C 0.8119 0.69902 0.36493 0.0
C500 C 0.94336 0.59469 0.36237 0.0
C501 C 0.92688 0.60964 0.35895 0.0
C502 C 0.87613 0.63568 0.38885 0.0
C503 C 0.84365 0.67584 0.35446 0.0
C504 C 0.85611 0.65704 0.36078 0.0
C505 C 0.90234 0.60834 0.37551 0.0
C506 C 0.88475 0.62405 0.37113 0.0
H507 H 0.8512 0.71809 0.30915 0.0
H508 H 0.8702 0.68654 0.31934 0.0
H509 H 0.85681 0.66148 0.39739 0.0
H510 H 0.9046 0.56403 0.41468 0.0
H511 H 0.87605 0.59073 0.40893 0.0
C512 C 0.83929 0.32791 0.6875 0.0
C513 C 0.81174 0.32987 0.69545 0.0
C514 C 0.86156 0.34653 0.68032 0.0
C515 C 0.87826 0.407 0.6634 0.0
H516 H 0.94391 0.40486 0.69182 0.0
C517 C 0.95363 0.4835 0.68039 0.0
C518 C 0.98227 0.48375 0.67863 0.0
C519 C 0.93459 0.46493 0.67716 0.0
C520 C 0.92603 0.40567 0.68331 0.0
H521 H 0.78567 0.35286 0.70083 0.0
H522 H 0.82448 0.38527 0.68872 0.0
H523 H 0.90723 0.37167 0.69545 0.0
H524 H 0.01404 0.46567 0.67121 0.0
H525 H 0.9808 0.4331 0.66522 0.0
H526 H 0.89675 0.44121 0.65191 0.0
C527 C 0.82894 0.36941 0.68788 0.0
C528 C 0.90497 0.38661 0.6854 0.0
C529 C 0.80674 0.35083 0.69509 0.0
C530 C 0.99193 0.46565 0.67263 0.0
C531 C 0.97291 0.44706 0.66938 0.0
C532 C 0.89935 0.42608 0.66131 0.0
C533 C 0.8567 0.36747 0.68086 0.0
C534 C 0.88055 0.38714 0.67593 0.0
C535 C 0.94392 0.44632 0.67212 0.0
C536 C 0.92318 0.42572 0.67169 0.0
H537 H 0.84382 0.31197 0.68767 0.0
H538 H 0.88267 0.34451 0.67477 0.0
H539 H 0.8599 0.40787 0.65558 0.0
H540 H 0.9459 0.49737 0.68512 0.0
H541 H 0.91239 0.46482 0.67969 0.0
C542 C 0.23336 0.22942 0.35456 0.0
C543 C 0.23919 0.2491 0.36351 0.0
C544 C 0.22702 0.20933 0.36985 0.0
C545 C 0.20194 0.18435 0.43322 0.0
H546 H 0.23508 0.13749 0.41514 0.0
C547 C 0.20455 0.1099 0.50058 0.0
C548 C 0.20076 0.08951 0.49323 0.0
C549 C 0.20628 0.12869 0.48437 0.0
C550 C 0.22528 0.15028 0.4203 0.0
H551 H 0.24371 0.26313 0.3954 0.0
H552 H 0.23275 0.22814 0.42204 0.0
H553 H 0.24453 0.17173 0.38733 0.0
H554 H 0.19529 0.07227 0.46376 0.0
H555 H 0.19801 0.10519 0.43519 0.0
H556 H 0.183 0.16302 0.4663 0.0
C557 C 0.23253 0.22821 0.40329 0.0
C558 C 0.23074 0.16991 0.40438 0.0
C559 C 0.23887 0.24826 0.38802 0.0
C560 C 0.1981 0.08795 0.46965 0.0
C561 C 0.19987 0.10675 0.45338 0.0
C562 C 0.19648 0.16473 0.44912 0.0
C563 C 0.22636 0.20852 0.39441 0.0
C564 C 0.21942 0.18726 0.41079 0.0
C565 C 0.20435 0.12737 0.4605 0.0
C566 C 0.20837 0.14758 0.44296 0.0
H567 H 0.23305 0.22952 0.33581 0.0
H568 H 0.22209 0.19445 0.36251 0.0
H569 H 0.19246 0.19727 0.4385 0.0
H570 H 0.20689 0.11132 0.51872 0.0
H571 H 0.21012 0.14433 0.49035 0.0
C572 C 0.36555 0.82877 0.823 0.0
C573 C 0.3602 0.81092 0.81102 0.0
C574 C 0.38 0.82794 0.84197 0.0
C575 C 0.42867 0.79941 0.86776 0.0
H576 H 0.40272 0.82069 0.92517 0.0
C577 C 0.47354 0.78382 0.95302 0.0
C578 C 0.47823 0.80079 0.96638 0.0
C579 C 0.45917 0.78546 0.93411 0.0
C580 C 0.41047 0.81494 0.90915 0.0
H581 H 0.36475 0.77794 0.80984 0.0
H582 H 0.39013 0.77643 0.84296 0.0
H583 H 0.37761 0.82287 0.89204 0.0
H584 H 0.47119 0.83275 0.97036 0.0
H585 H 0.44668 0.83585 0.93696 0.0
H586 H 0.4616 0.79159 0.88472 0.0
C587 C 0.38364 0.79124 0.83744 0.0
C588 C 0.39605 0.81617 0.89018 0.0
C589 C 0.36908 0.79205 0.81857 0.0
C590 C 0.46817 0.81946 0.96032 0.0
C591 C 0.45383 0.82113 0.94134 0.0
C592 C 0.44314 0.79826 0.88666 0.0
C593 C 0.38932 0.80919 0.84933 0.0
C594 C 0.4049 0.8083 0.86933 0.0
C595 C 0.44921 0.80416 0.92796 0.0
C596 C 0.43413 0.80589 0.90765 0.0
H597 H 0.35858 0.84338 0.8176 0.0
H598 H 0.3842 0.84207 0.85067 0.0
H599 H 0.43629 0.79355 0.85178 0.0
H600 H 0.48131 0.76933 0.95697 0.0
H601 H 0.45568 0.77196 0.9244 0.0
C602 C 0.73571 0.78715 0.37791 0.0
C603 C 0.74795 0.79286 0.35361 0.0
C604 C 0.73108 0.80329 0.3913 0.0
C605 C 0.72537 0.86095 0.38441 0.0
H606 H 0.73833 0.85677 0.44927 0.0
C607 C 0.73513 0.93346 0.43549 0.0
C608 C 0.721 0.92926 0.45931 0.0
C609 C 0.73649 0.91631 0.42287 0.0
C610 C 0.73432 0.85801 0.43127 0.0
H611 H 0.76579 0.81988 0.32441 0.0
H612 H 0.7583 0.84805 0.34778 0.0
H613 H 0.74499 0.82773 0.42679 0.0
H614 H 0.69717 0.90389 0.48862 0.0
H615 H 0.69964 0.87382 0.46651 0.0
H616 H 0.71539 0.89152 0.38877 0.0
C617 C 0.75148 0.83112 0.35642 0.0
C618 C 0.73808 0.84137 0.41839 0.0
C619 C 0.75588 0.81499 0.34303 0.0
C620 C 0.70802 0.90759 0.47021 0.0
C621 C 0.70963 0.8904 0.45765 0.0
C622 C 0.72185 0.87765 0.39722 0.0
C623 C 0.73882 0.82547 0.38067 0.0
C624 C 0.73386 0.84273 0.39474 0.0
C625 C 0.72397 0.8946 0.43389 0.0
C626 C 0.72647 0.87642 0.42071 0.0
H627 H 0.72917 0.77017 0.38644 0.0
H628 H 0.72098 0.79834 0.40986 0.0
H629 H 0.72134 0.86231 0.36642 0.0
H630 H 0.74515 0.95003 0.42662 0.0
H631 H 0.74786 0.92 0.40463 0.0
C632 C 0.71458 0.30692 0.76141 0.0
C633 C 0.72962 0.2907 0.75941 0.0
C634 C 0.69774 0.30735 0.78307 0.0
C635 C 0.66506 0.27375 0.84299 0.0
H636 H 0.65945 0.33016 0.85924 0.0
C637 C 0.6184 0.28704 0.93709 0.0
C638 C 0.5963 0.2977 0.93752 0.0
C639 C 0.63484 0.2861 0.91541 0.0
C640 C 0.66081 0.31432 0.85484 0.0
H641 H 0.73916 0.26226 0.7782 0.0
H642 H 0.71079 0.26345 0.81639 0.0
H643 H 0.68794 0.32842 0.82139 0.0
H644 H 0.57445 0.31634 0.91608 0.0
H645 H 0.60398 0.3154 0.87804 0.0
H646 H 0.63867 0.25986 0.87708 0.0
C647 C 0.71109 0.27547 0.80116 0.0
C648 C 0.67693 0.31325 0.83308 0.0
C649 C 0.72747 0.2748 0.77934 0.0
C650 C 0.5914 0.308 0.91606 0.0
C651 C 0.60822 0.30747 0.89443 0.0
C652 C 0.6494 0.27487 0.86496 0.0
C653 C 0.69607 0.29183 0.80336 0.0
C654 C 0.67912 0.29293 0.82674 0.0
C655 C 0.62985 0.2963 0.89392 0.0
C656 C 0.64701 0.29515 0.87097 0.0
H657 H 0.71579 0.31924 0.74616 0.0
H658 H 0.686 0.31987 0.78381 0.0
H659 H 0.66574 0.25779 0.83866 0.0
H660 H 0.62268 0.27923 0.95352 0.0
H661 H 0.65159 0.27757 0.91542 0.0
C662 C 0.25672 0.8358 0.7219 0.0
C663 C 0.26088 0.83721 0.74526 0.0
C664 C 0.24889 0.85256 0.70842 0.0
C665 C 0.24938 0.91086 0.70269 0.0
H666 H 0.19264 0.89524 0.66438 0.0
C667 C 0.21082 0.97613 0.64582 0.0
C668 C 0.20886 0.97257 0.62262 0.0
C669 C 0.21456 0.95954 0.66258 0.0
C670 C 0.20863 0.89987 0.67487 0.0
H671 H 0.26046 0.85751 0.77266 0.0
H672 H 0.24691 0.88699 0.74894 0.0
H673 H 0.20487 0.86664 0.69024 0.0
H674 H 0.20885 0.94934 0.59844 0.0
H675 H 0.21554 0.92023 0.6276 0.0
H676 H 0.25349 0.94408 0.68698 0.0
C677 C 0.24982 0.87287 0.7411 0.0
C678 C 0.21564 0.88349 0.68967 0.0
C679 C 0.25762 0.85603 0.75465 0.0
C680 C 0.21008 0.9522 0.6164 0.0
C681 C 0.21379 0.93561 0.63311 0.0
C682 C 0.24239 0.92727 0.68784 0.0
C683 C 0.24511 0.8712 0.71791 0.0
C684 C 0.2364 0.88877 0.70347 0.0
C685 C 0.21641 0.93916 0.65632 0.0
C686 C 0.22222 0.92192 0.67351 0.0
H687 H 0.25967 0.82174 0.71395 0.0
H688 H 0.24607 0.851 0.69042 0.0
H689 H 0.26563 0.91543 0.71295 0.0
H690 H 0.21002 0.99187 0.65078 0.0
H691 H 0.2162 0.9627 0.68037 0.0
C692 C 0.72166 0.74406 0.2737 0.0
C693 C 0.74002 0.76208 0.27908 0.0
C694 C 0.71067 0.74598 0.25281 0.0
C695 C 0.6975 0.78845 0.20832 0.0
H696 H 0.67746 0.73981 0.17514 0.0
C697 C 0.65121 0.79623 0.12243 0.0
C698 C 0.62639 0.78035 0.12275 0.0
C699 C 0.66737 0.79385 0.14 0.0
C700 C 0.68293 0.75351 0.18429 0.0
H701 H 0.76273 0.79576 0.26639 0.0
H702 H 0.74454 0.79895 0.22948 0.0
H703 H 0.70279 0.73586 0.20796 0.0
H704 H 0.59922 0.74952 0.14205 0.0
H705 H 0.6279 0.74517 0.17224 0.0
H706 H 0.67783 0.80611 0.18444 0.0
C707 C 0.7377 0.78355 0.24169 0.0
C708 C 0.69733 0.75124 0.20315 0.0
C709 C 0.74831 0.78171 0.26272 0.0
C710 C 0.61844 0.76188 0.1409 0.0
C711 C 0.63482 0.75938 0.15827 0.0
C712 C 0.68346 0.79079 0.18928 0.0
C713 C 0.71816 0.76589 0.23673 0.0
C714 C 0.70451 0.76861 0.21561 0.0
C715 C 0.6593 0.77542 0.1581 0.0
C716 C 0.67574 0.77327 0.17728 0.0
H717 H 0.71481 0.7288 0.28617 0.0
H718 H 0.69544 0.7321 0.24981 0.0
H719 H 0.70209 0.80205 0.21774 0.0
H720 H 0.65831 0.81045 0.10851 0.0
H721 H 0.68632 0.80636 0.13936 0.0
C722 C 0.76199 0.22086 0.66749 0.0
C723 C 0.74056 0.23223 0.66753 0.0
C724 C 0.75924 0.20111 0.65889 0.0
C725 C 0.70669 0.15695 0.64252 0.0
H726 H 0.77309 0.14595 0.60544 0.0
C727 C 0.70238 0.09069 0.58241 0.0
C728 C 0.72278 0.07832 0.58264 0.0
C729 C 0.70377 0.1084 0.59457 0.0
C730 C 0.75442 0.14866 0.616 0.0
H731 H 0.70022 0.23249 0.65753 0.0
H732 H 0.69561 0.19827 0.64198 0.0
H733 H 0.77716 0.17898 0.62304 0.0
H734 H 0.75998 0.07438 0.59668 0.0
H735 H 0.76259 0.10548 0.61759 0.0
H736 H 0.6839 0.12679 0.63484 0.0
C737 C 0.71403 0.20409 0.64946 0.0
C738 C 0.75675 0.16758 0.62615 0.0
C739 C 0.71669 0.22374 0.65826 0.0
C740 C 0.74425 0.08381 0.59573 0.0
C741 C 0.74573 0.10159 0.60776 0.0
C742 C 0.70434 0.1381 0.63219 0.0
C743 C 0.7353 0.19254 0.64963 0.0
C744 C 0.7329 0.17202 0.63948 0.0
C745 C 0.72567 0.1142 0.60711 0.0
C746 C 0.72817 0.1338 0.61876 0.0
H747 H 0.78096 0.22726 0.67403 0.0
H748 H 0.77593 0.19258 0.6595 0.0
H749 H 0.68798 0.15964 0.65299 0.0
H750 H 0.68579 0.08712 0.57225 0.0
H751 H 0.6882 0.11798 0.59354 0.0
C752 C 0.32091 0.30658 0.24448 0.0
C753 C 0.29268 0.29529 0.24638 0.0
C754 C 0.34079 0.30778 0.22397 0.0
C755 C 0.35245 0.28153 0.17056 0.0
H756 H 0.41153 0.33436 0.14673 0.0
C757 C 0.42516 0.29576 0.07871 0.0
C758 C 0.45409 0.30309 0.07834 0.0
C759 C 0.40548 0.29547 0.09901 0.0
C760 C 0.39524 0.31946 0.15329 0.0
H761 H 0.26283 0.27762 0.22785 0.0
H762 H 0.29728 0.28009 0.1918 0.0
H763 H 0.37704 0.33254 0.18259 0.0
H764 H 0.48538 0.31633 0.0983 0.0
H765 H 0.45089 0.31617 0.13387 0.0
H766 H 0.37046 0.26864 0.14097 0.0
C767 C 0.30439 0.28727 0.20647 0.0
C768 C 0.37553 0.31836 0.17388 0.0
C769 C 0.2846 0.28591 0.22706 0.0
C770 C 0.4631 0.31066 0.09829 0.0
C771 C 0.44341 0.31061 0.11852 0.0
C772 C 0.37198 0.28273 0.14986 0.0
C773 C 0.33279 0.29811 0.2047 0.0
C774 C 0.35388 0.29936 0.1828 0.0
C775 C 0.41442 0.30276 0.11918 0.0
C776 C 0.39358 0.30169 0.14102 0.0
H777 H 0.32772 0.31444 0.25884 0.0
H778 H 0.36249 0.31612 0.22333 0.0
H779 H 0.33644 0.26648 0.17713 0.0
H780 H 0.41787 0.28996 0.06339 0.0
H781 H 0.38326 0.28958 0.09893 0.0
C782 C 0.82586 0.70875 0.70908 0.0
C783 C 0.82034 0.71635 0.73069 0.0
C784 C 0.84582 0.69632 0.7056 0.0
C785 C 0.88322 0.66182 0.73902 0.0
H786 H 0.93288 0.66979 0.67784 0.0
C787 C 0.97494 0.61964 0.72604 0.0
C788 C 0.9778 0.60933 0.70598 0.0
C789 C 0.95681 0.63362 0.72836 0.0
C790 C 0.919 0.66729 0.69496 0.0
H791 H 0.83102 0.71696 0.76561 0.0
H792 H 0.86641 0.69568 0.75944 0.0
H793 H 0.8991 0.69249 0.68339 0.0
H794 H 0.96425 0.60602 0.67235 0.0
H795 H 0.93272 0.63065 0.67632 0.0
H796 H 0.90321 0.63674 0.75062 0.0
C797 C 0.85512 0.699 0.74527 0.0
C798 C 0.89961 0.68025 0.69814 0.0
C799 C 0.83505 0.71131 0.74877 0.0
C800 C 0.96274 0.61386 0.68792 0.0
C801 C 0.94466 0.62794 0.6902 0.0
C802 C 0.90268 0.64898 0.73587 0.0
C803 C 0.86066 0.69126 0.72368 0.0
C804 C 0.88147 0.67765 0.72022 0.0
C805 C 0.94121 0.63771 0.71061 0.0
C806 C 0.92077 0.65157 0.71382 0.0
H807 H 0.81459 0.71227 0.69495 0.0
H808 H 0.84924 0.69034 0.68891 0.0
H809 H 0.86921 0.65907 0.75611 0.0
H810 H 0.98671 0.61689 0.74004 0.0
H811 H 0.95499 0.64123 0.74408 0.0
C812 C 0.82156 0.30141 0.3363 0.0
C813 C 0.79686 0.30417 0.32838 0.0
C814 C 0.83877 0.31857 0.34398 0.0
C815 C 0.85565 0.37852 0.33804 0.0
H816 H 0.88948 0.36869 0.39357 0.0
C817 C 0.91677 0.45008 0.37478 0.0
C818 C 0.94239 0.44784 0.38098 0.0
C819 C 0.89799 0.43206 0.37013 0.0
C820 C 0.88035 0.37165 0.37792 0.0
H821 H 0.77032 0.32679 0.32311 0.0
H822 H 0.80031 0.35668 0.33641 0.0
H823 H 0.85881 0.33798 0.38179 0.0
H824 H 0.96871 0.4255 0.38773 0.0
H825 H 0.93595 0.3938 0.37942 0.0
H826 H 0.87728 0.41208 0.33396 0.0
C827 C 0.80668 0.34142 0.33628 0.0
C828 C 0.86282 0.35407 0.37117 0.0
C829 C 0.78952 0.3243 0.32864 0.0
C830 C 0.94885 0.42736 0.38309 0.0
C831 C 0.93009 0.40931 0.37842 0.0
C832 C 0.87314 0.39605 0.34476 0.0
C833 C 0.8316 0.33881 0.34387 0.0
C834 C 0.85025 0.35734 0.35117 0.0
C835 C 0.90463 0.41155 0.37153 0.0
C836 C 0.88566 0.39284 0.36479 0.0
H837 H 0.8279 0.28615 0.33611 0.0
H838 H 0.858 0.31614 0.34948 0.0
H839 H 0.84671 0.38151 0.32228 0.0
H840 H 0.91159 0.46585 0.37309 0.0
H841 H 0.87837 0.43424 0.36522 0.0
C842 C 0.2232 0.34149 0.73842 0.0
C843 C 0.23174 0.33031 0.72017 0.0
C844 C 0.21276 0.35993 0.73336 0.0
C845 C 0.17733 0.38667 0.69193 0.0
H846 H 0.20616 0.43829 0.71811 0.0
C847 C 0.13463 0.46421 0.67716 0.0
C848 C 0.12973 0.4742 0.69726 0.0
C849 C 0.14985 0.44804 0.67737 0.0
C850 C 0.19769 0.42396 0.71083 0.0
H851 H 0.23568 0.32978 0.68223 0.0
H852 H 0.21651 0.36171 0.6736 0.0
H853 H 0.22665 0.40682 0.72375 0.0
H854 H 0.13804 0.47567 0.73293 0.0
H855 H 0.16352 0.44705 0.73364 0.0
H856 H 0.1476 0.40339 0.67983 0.0
C857 C 0.21816 0.35613 0.69178 0.0
C858 C 0.20951 0.40599 0.714 0.0
C859 C 0.22898 0.3378 0.69678 0.0
C860 C 0.14101 0.46806 0.71729 0.0
C861 C 0.15603 0.45185 0.71755 0.0
C862 C 0.16526 0.40458 0.68898 0.0
C863 C 0.21023 0.36747 0.71001 0.0
C864 C 0.19914 0.38707 0.70492 0.0
C865 C 0.16044 0.44148 0.69769 0.0
C866 C 0.17498 0.4233 0.69876 0.0
H867 H 0.22437 0.33591 0.75671 0.0
H868 H 0.20629 0.36816 0.74781 0.0
H869 H 0.16886 0.3722 0.68488 0.0
H870 H 0.12608 0.46847 0.66149 0.0
H871 H 0.15314 0.44057 0.66166 0.0
C872 C 0.20112 0.74357 0.37828 0.0
C873 C 0.23045 0.74807 0.37035 0.0
C874 C 0.18505 0.72205 0.38414 0.0
C875 C 0.1855 0.66692 0.37209 0.0
H876 H 0.1232 0.64919 0.42601 0.0
C877 C 0.11539 0.57945 0.39364 0.0
C878 C 0.08634 0.57803 0.39834 0.0
C879 C 0.1345 0.59918 0.39341 0.0
C880 C 0.14046 0.65393 0.41084 0.0
H881 H 0.26597 0.73347 0.36284 0.0
H882 H 0.23781 0.69582 0.37295 0.0
H883 H 0.154 0.68585 0.41928 0.0
H884 H 0.05406 0.59535 0.40716 0.0
H885 H 0.08738 0.63005 0.4066 0.0
H886 H 0.17163 0.63525 0.36327 0.0
C887 C 0.22726 0.70899 0.37439 0.0
C888 C 0.15807 0.67491 0.40698 0.0
C889 C 0.24337 0.73054 0.36856 0.0
C890 C 0.07649 0.59624 0.40364 0.0
C891 C 0.09555 0.61598 0.4034 0.0
C892 C 0.16788 0.64596 0.37592 0.0
C893 C 0.19791 0.70452 0.38217 0.0
C894 C 0.18053 0.68173 0.38737 0.0
C895 C 0.12479 0.61779 0.39785 0.0
C896 C 0.14491 0.63933 0.39514 0.0
H897 H 0.19046 0.75671 0.37948 0.0
H898 H 0.16241 0.71915 0.38966 0.0
H899 H 0.2024 0.67178 0.35665 0.0
H900 H 0.12323 0.56545 0.38953 0.0
H901 H 0.15686 0.59998 0.38939 0.0
C902 C 0.77172 0.80804 0.69096 0.0
C903 C 0.77728 0.81297 0.71305 0.0
C904 C 0.76794 0.82423 0.67372 0.0
C905 C 0.78097 0.88409 0.65621 0.0
H906 H 0.71652 0.86994 0.62551 0.0
C907 C 0.74049 0.95084 0.60487 0.0
C908 C 0.73297 0.94706 0.5831 0.0
C909 C 0.74602 0.93403 0.62015 0.0
C910 C 0.73479 0.87408 0.63372 0.0
H911 H 0.78447 0.83881 0.73405 0.0
H912 H 0.77764 0.86697 0.70413 0.0
H913 H 0.72765 0.8414 0.65241 0.0
H914 H 0.72474 0.92319 0.56004 0.0
H915 H 0.73452 0.8936 0.58674 0.0
H916 H 0.78804 0.91677 0.63769 0.0
C917 C 0.77626 0.85067 0.70004 0.0
C918 C 0.7412 0.85773 0.64907 0.0
C919 C 0.77991 0.83451 0.71726 0.0
C920 C 0.7304 0.92625 0.57691 0.0
C921 C 0.73593 0.9094 0.59218 0.0
C922 C 0.77459 0.90041 0.64086 0.0
C923 C 0.76986 0.84566 0.67821 0.0
C924 C 0.76419 0.86263 0.66066 0.0
C925 C 0.74414 0.91319 0.61385 0.0
C926 C 0.75126 0.89565 0.62964 0.0
H927 H 0.76943 0.79153 0.6873 0.0
H928 H 0.76331 0.81994 0.65695 0.0
H929 H 0.79908 0.88829 0.6646 0.0
H930 H 0.74252 0.96689 0.60982 0.0
H931 H 0.75183 0.93736 0.63689 0.0
C932 C 0.68123 0.26941 0.24837 0.0
C933 C 0.70231 0.28655 0.25214 0.0
C934 C 0.67203 0.27029 0.22665 0.0
C935 C 0.66935 0.30937 0.17443 0.0
H936 H 0.64862 0.25687 0.14731 0.0
C937 C 0.62954 0.31042 0.0854 0.0
C938 C 0.60508 0.29422 0.0857 0.0
C939 C 0.64429 0.30935 0.10415 0.0
C940 C 0.65424 0.27164 0.15473 0.0
H941 H 0.73143 0.31741 0.23608 0.0
H942 H 0.71558 0.31895 0.19787 0.0
H943 H 0.66938 0.25526 0.18301 0.0
H944 H 0.57701 0.26419 0.10597 0.0
H945 H 0.60289 0.26225 0.13845 0.0
H946 H 0.65395 0.32569 0.14626 0.0
C947 C 0.70561 0.30511 0.21186 0.0
C948 C 0.66607 0.27072 0.17519 0.0
C949 C 0.71473 0.30424 0.23363 0.0
C950 C 0.59604 0.27673 0.10494 0.0
C951 C 0.61085 0.27562 0.12359 0.0
C952 C 0.65763 0.3103 0.15392 0.0
C953 C 0.68399 0.28821 0.20819 0.0
C954 C 0.67335 0.2895 0.18549 0.0
C955 C 0.63497 0.29201 0.1235 0.0
C956 C 0.64956 0.29138 0.14407 0.0
H957 H 0.67165 0.25546 0.26233 0.0
H958 H 0.65515 0.25711 0.22451 0.0
H959 H 0.67439 0.32407 0.18208 0.0
H960 H 0.63732 0.32392 0.07067 0.0
H961 H 0.66301 0.32208 0.10349 0.0
C962 C 0.21578 0.24492 0.70723 0.0
C963 C 0.24366 0.25609 0.70675 0.0
C964 C 0.21027 0.22628 0.69664 0.0
C965 C 0.2454 0.1845 0.67445 0.0
H966 H 0.18126 0.17155 0.64313 0.0
C967 C 0.23453 0.12355 0.60935 0.0
C968 C 0.20983 0.10657 0.61492 0.0
C969 C 0.23706 0.14133 0.62134 0.0
C970 C 0.19909 0.17495 0.65201 0.0
H971 H 0.28761 0.25724 0.69424 0.0
H972 H 0.27821 0.22539 0.67481 0.0
H973 H 0.18917 0.20403 0.66202 0.0
H974 H 0.16814 0.09541 0.63727 0.0
H975 H 0.17232 0.12713 0.65752 0.0
H976 H 0.25589 0.1559 0.66343 0.0
C977 C 0.26047 0.23034 0.68411 0.0
C978 C 0.20361 0.19347 0.66291 0.0
C979 C 0.26593 0.2487 0.69505 0.0
C980 C 0.18736 0.10824 0.63231 0.0
C981 C 0.18973 0.1263 0.644 0.0
C982 C 0.24115 0.16628 0.66319 0.0
C983 C 0.23258 0.21867 0.68504 0.0
C984 C 0.227 0.19859 0.6741 0.0
C985 C 0.21476 0.14281 0.6388 0.0
C986 C 0.21811 0.16145 0.65175 0.0
H987 H 0.19828 0.25028 0.71635 0.0
H988 H 0.18856 0.21761 0.69802 0.0
H989 H 0.26316 0.1875 0.68343 0.0
H990 H 0.25198 0.12325 0.59561 0.0
H991 H 0.25641 0.15406 0.61682 0.0
C992 C 0.34861 0.81826 0.27487 0.0
C993 C 0.31956 0.81134 0.27542 0.0
C994 C 0.36809 0.81618 0.25549 0.0
C995 C 0.37455 0.78724 0.20379 0.0
H996 H 0.44215 0.83367 0.18019 0.0
C997 C 0.44799 0.79252 0.11392 0.0
C998 C 0.47702 0.79749 0.11392 0.0
C999 C 0.42891 0.794 0.13386 0.0
C1000 C 0.42349 0.82048 0.18672 0.0
H1001 H 0.28797 0.79739 0.25601 0.0
H1002 H 0.32188 0.79411 0.22193 0.0
H1003 H 0.40856 0.83658 0.21464 0.0
H1004 H 0.50917 0.80805 0.13422 0.0
H1005 H 0.4758 0.81083 0.16919 0.0
H1006 H 0.38938 0.77133 0.17559 0.0
C1007 C 0.32972 0.80059 0.23671 0.0
C1008 C 0.40427 0.82211 0.2065 0.0
C1009 C 0.31028 0.80256 0.25615 0.0
C1010 C 0.48679 0.80417 0.13396 0.0
C1011 C 0.46775 0.80583 0.15384 0.0
C1012 C 0.39369 0.78569 0.18393 0.0
C1013 C 0.35888 0.80737 0.23613 0.0
C1014 C 0.37954 0.80551 0.21527 0.0
C1015 C 0.4386 0.80068 0.15403 0.0
C1016 C 0.41835 0.8023 0.17518 0.0
H1017 H 0.35622 0.82527 0.28946 0.0
H1018 H 0.39036 0.82134 0.25577 0.0
H1019 H 0.35598 0.77398 0.21031 0.0
H1020 H 0.44015 0.78747 0.09849 0.0
H1021 H 0.40659 0.79019 0.1334 0.0
C1022 C 0.71934 0.21237 0.34272 0.0
C1023 C 0.74725 0.22505 0.33779 0.0
C1024 C 0.7126 0.1912 0.35572 0.0
C1025 C 0.74413 0.14568 0.3745 0.0
H1026 H 0.67873 0.12835 0.42571 0.0
C1027 C 0.71456 0.06048 0.43254 0.0
C1028 C 0.70931 0.06058 0.4571 0.0
C1029 C 0.71534 0.07917 0.41649 0.0
C1030 C 0.69702 0.13295 0.41144 0.0
H1031 H 0.79007 0.22534 0.3422 0.0
H1032 H 0.77827 0.18848 0.36517 0.0
H1033 H 0.68877 0.16404 0.40032 0.0
H1034 H 0.69959 0.07944 0.48448 0.0
H1035 H 0.70095 0.11225 0.45649 0.0
H1036 H 0.75298 0.11496 0.38611 0.0
C1037 C 0.76162 0.19484 0.35883 0.0
C1038 C 0.70264 0.1533 0.39678 0.0
C1039 C 0.76833 0.21603 0.34591 0.0
C1040 C 0.70353 0.07913 0.46553 0.0
C1041 C 0.70423 0.0978 0.44951 0.0
C1042 C 0.73847 0.12533 0.38911 0.0
C1043 C 0.73367 0.18223 0.36396 0.0
C1044 C 0.72652 0.16001 0.3784 0.0
C1045 C 0.71082 0.0982 0.42481 0.0
C1046 C 0.71509 0.11887 0.40796 0.0
H1047 H 0.70259 0.21896 0.33688 0.0
H1048 H 0.69092 0.18181 0.35925 0.0
H1049 H 0.76249 0.15029 0.3603 0.0
H1050 H 0.71905 0.04622 0.42582 0.0
H1051 H 0.7201 0.07889 0.39757 0.0
C1052 C 0.3018 0.30693 0.81418 0.0
C1053 C 0.29773 0.288 0.80383 0.0
C1054 C 0.32184 0.31068 0.82872 0.0
C1055 C 0.38543 0.29453 0.84356 0.0
H1056 H 0.36327 0.3128 0.90379 0.0
C1057 C 0.44592 0.28666 0.92048 0.0
C1058 C 0.44928 0.30346 0.93415 0.0
C1059 C 0.42904 0.28671 0.90322 0.0
C1060 C 0.36996 0.30803 0.88688 0.0
H1061 H 0.31215 0.25872 0.79932 0.0
H1062 H 0.34704 0.26504 0.82498 0.0
H1063 H 0.33093 0.30944 0.87587 0.0
H1064 H 0.43777 0.33359 0.94028 0.0
H1065 H 0.40851 0.33382 0.90983 0.0
H1066 H 0.42432 0.29284 0.85471 0.0
C1067 C 0.33478 0.27701 0.82196 0.0
C1068 C 0.35142 0.30609 0.87089 0.0
C1069 C 0.3147 0.27327 0.80747 0.0
C1070 C 0.43571 0.32049 0.92993 0.0
C1071 C 0.41876 0.32051 0.91267 0.0
C1072 C 0.40397 0.29648 0.85954 0.0
C1073 C 0.3384 0.29566 0.83292 0.0
C1074 C 0.35881 0.29905 0.84919 0.0
C1075 C 0.41514 0.30355 0.8992 0.0
C1076 C 0.39629 0.30298 0.88151 0.0
H1077 H 0.28928 0.31873 0.81117 0.0
H1078 H 0.32447 0.32537 0.83659 0.0
H1079 H 0.39192 0.28944 0.8268 0.0
H1080 H 0.45641 0.27347 0.92307 0.0
H1081 H 0.42645 0.27328 0.89335 0.0
C1082 C 0.27199 0.83967 0.39296 0.0
C1083 C 0.25059 0.82502 0.38583 0.0
C1084 C 0.26543 0.85547 0.40608 0.0
C1085 C 0.20572 0.87004 0.44284 0.0
H1086 H 0.25753 0.92715 0.43028 0.0
C1087 C 0.19638 0.93507 0.50301 0.0
C1088 C 0.20488 0.95715 0.4923 0.0
C1089 C 0.19997 0.91876 0.48958 0.0
C1090 C 0.24258 0.91141 0.43382 0.0
H1091 H 0.20566 0.81552 0.38649 0.0
H1092 H 0.19422 0.84345 0.40885 0.0
H1093 H 0.26777 0.89935 0.40759 0.0
H1094 H 0.22223 0.97956 0.45908 0.0
H1095 H 0.22762 0.95114 0.43541 0.0
H1096 H 0.18003 0.88242 0.46851 0.0
C1097 C 0.21598 0.84242 0.40492 0.0
C1098 C 0.24873 0.8953 0.42106 0.0
C1099 C 0.22252 0.82646 0.39204 0.0
C1100 C 0.21586 0.96263 0.46778 0.0
C1101 C 0.2191 0.94634 0.45429 0.0
C1102 C 0.19941 0.88625 0.45546 0.0
C1103 C 0.23736 0.85716 0.41208 0.0
C1104 C 0.23049 0.87436 0.4255 0.0
C1105 C 0.21183 0.92423 0.46512 0.0
C1106 C 0.21784 0.90712 0.45118 0.0
H1107 H 0.29376 0.83873 0.38861 0.0
H1108 H 0.28238 0.86625 0.41168 0.0
H1109 H 0.19132 0.85403 0.44693 0.0
H1110 H 0.18808 0.93047 0.52195 0.0
H1111 H 0.19443 0.90195 0.49859 0.0
C1112 C 0.72059 0.77922 0.80073 0.0
C1113 C 0.7483 0.77654 0.79803 0.0
C1114 C 0.70565 0.77985 0.8231 0.0
C1115 C 0.70265 0.76577 0.88762 0.0
H1116 H 0.66008 0.81029 0.89065 0.0
C1117 C 0.64693 0.78344 0.97656 0.0
C1118 C 0.61977 0.7867 0.97684 0.0
C1119 C 0.66371 0.78226 0.95513 0.0
C1120 C 0.67165 0.79765 0.89008 0.0
H1121 H 0.78183 0.77171 0.81675 0.0
H1122 H 0.75562 0.77284 0.85607 0.0
H1123 H 0.68721 0.8075 0.85266 0.0
H1124 H 0.5884 0.79118 0.95566 0.0
H1125 H 0.61753 0.78899 0.91808 0.0
H1126 H 0.68689 0.7559 0.92513 0.0
C1127 C 0.74545 0.77435 0.84081 0.0
C1128 C 0.68718 0.79604 0.86831 0.0
C1129 C 0.76043 0.77369 0.81834 0.0
C1130 C 0.60944 0.78877 0.95561 0.0
C1131 C 0.62616 0.78763 0.9342 0.0
C1132 C 0.68706 0.76739 0.90946 0.0
C1133 C 0.71807 0.77783 0.84333 0.0
C1134 C 0.70258 0.77992 0.86677 0.0
C1135 C 0.6535 0.78438 0.9337 0.0
C1136 C 0.67114 0.7832 0.91085 0.0
H1137 H 0.71047 0.78099 0.78546 0.0
H1138 H 0.68435 0.78201 0.82453 0.0
H1139 H 0.71416 0.7531 0.88696 0.0
H1140 H 0.6551 0.78181 0.99291 0.0
H1141 H 0.68476 0.77995 0.95527 0.0
loop_
_geom_bond_atom_site_label_1
_geom_bond_atom_site_label_2
_geom_bond_distance
_geom_bond_site_symmetry_2
_ccdc_geom_bond_type
H0 C7 0.929 . S
H1 C10 0.930 . S
H2 C12 0.929 . S
H3 C4 0.969 . S
C4 H3 0.969 . S
C4 O5 1.550 . S
C4 H6 0.973 . S
O5 C4 1.550 . S
O5 C11 1.412 . S
H6 C4 0.973 . S
C7 H0 0.929 . S
C7 C8 1.400 . S
C7 C9 1.364 . S
C8 C7 1.400 . S
C8 C12 1.377 . S
C9 C7 1.364 . S
C9 C10 1.374 . S
C10 H1 0.930 . S
C10 C9 1.374 . S
C10 C11 1.383 . S
C11 O5 1.412 . S
C11 C10 1.383 . S
C11 C12 1.394 . S
C12 H2 0.929 . S
C12 C8 1.377 . S
C12 C11 1.394 . S
H13 C20 0.929 . S
H14 C23 0.930 . S
H15 C25 0.929 . S
H16 C17 0.969 . S
C17 H16 0.969 . S
C17 O18 1.550 . S
C17 H19 0.973 . S
O18 C17 1.550 . S
O18 C24 1.412 . S
H19 C17 0.973 . S
C20 H13 0.929 . S
C20 C21 1.400 . S
C20 C22 1.364 . S
C21 C20 1.400 . S
C21 C25 1.377 . S
C22 C20 1.364 . S
C22 C23 1.374 . S
C23 H14 0.930 . S
C23 C22 1.374 . S
C23 C24 1.383 . S
C24 O18 1.412 . S
C24 C23 1.383 . S
C24 C25 1.394 . S
C25 H15 0.929 . S
C25 C21 1.377 . S
C25 C24 1.394 . S
H26 C33 0.929 . S
H27 C36 0.930 . S
H28 C38 0.929 . S
H29 C30 0.969 . S
C30 H29 0.969 . S
C30 O31 1.550 . S
C30 H32 0.973 . S
O31 C30 1.550 . S
O31 C37 1.412 . S
H32 C30 0.973 . S
C33 H26 0.929 . S
C33 C34 1.400 . S
C33 C35 1.364 . S
C34 C33 1.400 . S
C34 C38 1.377 . S
C35 C33 1.364 . S
C35 C36 1.374 . S
C36 H27 0.930 . S
C36 C35 1.374 . S
C36 C37 1.383 . S
C37 O31 1.412 . S
C37 C36 1.383 . S
C37 C38 1.394 . S
C38 H28 0.929 . S
C38 C34 1.377 . S
C38 C37 1.394 . S
H39 C46 0.929 . S
H40 C49 0.930 . S
H41 C51 0.929 . S
H42 C43 0.969 . S
C43 H42 0.969 . S
C43 O44 1.550 . S
C43 H45 0.973 . S
O44 C43 1.550 . S
O44 C50 1.412 . S
H45 C43 0.973 . S
C46 H39 0.929 . S
C46 C47 1.400 . S
C46 C48 1.364 . S
C47 C46 1.400 . S
C47 C51 1.377 . S
C48 C46 1.364 . S
C48 C49 1.374 . S
C49 H40 0.930 . S
C49 C48 1.374 . S
C49 C50 1.383 . S
C50 O44 1.412 . S
C50 C49 1.383 . S
C50 C51 1.394 . S
C51 H41 0.929 . S
C51 C47 1.377 . S
C51 C50 1.394 . S
H52 C59 0.929 . S
H53 C62 0.930 . S
H54 C64 0.929 . S
H55 C56 0.969 . S
C56 H55 0.969 . S
C56 O57 1.550 . S
C56 H58 0.973 . S
O57 C56 1.550 . S
O57 C63 1.412 . S
H58 C56 0.973 . S
C59 H52 0.929 . S
C59 C60 1.400 . S
C59 C61 1.364 . S
C60 C59 1.400 . S
C60 C64 1.377 . S
C61 C59 1.364 . S
C61 C62 1.374 . S
C62 H53 0.930 . S
C62 C61 1.374 . S
C62 C63 1.383 . S
C63 O57 1.412 . S
C63 C62 1.383 . S
C63 C64 1.394 . S
C64 H54 0.929 . S
C64 C60 1.377 . S
C64 C63 1.394 . S
H65 C72 0.929 . S
H66 C75 0.930 . S
H67 C77 0.929 . S
H68 C69 0.969 . S
C69 H68 0.969 . S
C69 O70 1.550 . S
C69 H71 0.973 . S
O70 C69 1.550 . S
O70 C76 1.412 . S
H71 C69 0.973 . S
C72 H65 0.929 . S
C72 C73 1.400 . S
C72 C74 1.364 . S
C73 C72 1.400 . S
C73 C77 1.377 . S
C74 C72 1.364 . S
C74 C75 1.374 . S
C75 H66 0.930 . S
C75 C74 1.374 . S
C75 C76 1.383 . S
C76 O70 1.412 . S
C76 C75 1.383 . S
C76 C77 1.394 . S
C77 H67 0.929 . S
C77 C73 1.377 . S
C77 C76 1.394 . S
H78 C85 0.929 . S
H79 C88 0.930 . S
H80 C90 0.929 . S
H81 C82 0.969 . S
C82 H81 0.969 . S
C82 O83 1.550 . S
C82 H84 0.973 . S
O83 C82 1.550 . S
O83 C89 1.412 . S
H84 C82 0.973 . S
C85 H78 0.929 . S
C85 C86 1.400 . S
C85 C87 1.364 . S
C86 C85 1.400 . S
C86 C90 1.377 . S
C87 C85 1.364 . S
C87 C88 1.374 . S
C88 H79 0.930 . S
C88 C87 1.374 . S
C88 C89 1.383 . S
C89 O83 1.412 . S
C89 C88 1.383 . S
C89 C90 1.394 . S
C90 H80 0.929 . S
C90 C86 1.377 . S
C90 C89 1.394 . S
H91 C98 0.929 . S
H92 C101 0.930 . S
H93 C103 0.929 . S
H94 C95 0.969 . S
C95 H94 0.969 . S
C95 O96 1.550 . S
C95 H97 0.973 . S
O96 C95 1.550 . S
O96 C102 1.412 . S
H97 C95 0.973 . S
C98 H91 0.929 . S
C98 C99 1.400 . S
C98 C100 1.364 . S
C99 C98 1.400 . S
C99 C103 1.377 . S
C100 C98 1.364 . S
C100 C101 1.374 . S
C101 H92 0.930 . S
C101 C100 1.374 . S
C101 C102 1.383 . S
C102 O96 1.412 . S
C102 C101 1.383 . S
C102 C103 1.394 . S
C103 H93 0.929 . S
C103 C99 1.377 . S
C103 C102 1.394 . S
C104 C105 1.443 . S
C104 N108 1.376 . S
C104 C142 1.389 . S
C105 C104 1.443 . S
C105 C106 1.340 . S
C105 H145 0.951 . S
C106 C105 1.340 . S
C106 C107 1.439 1_455 S
C106 H146 0.950 . S
C107 C106 1.439 1_655 S
C107 N108 1.374 1_655 S
C107 C141 1.395 . S
N108 C104 1.376 . S
N108 C107 1.374 1_455 S
N108 Co109 2.008 . S
Co109 N108 2.008 . S
Co109 N110 1.995 1_455 S
Co109 N115 2.008 1_455 S
Co109 N120 1.995 . S
Co109 N125 2.282 . S
Co109 N131 2.282 1_455 S
N110 Co109 1.995 1_655 S
N110 C111 1.376 . S
N110 C114 1.383 . S
C111 N110 1.376 . S
C111 C112 1.446 . S
C111 C141 1.391 . S
C112 C111 1.446 . S
C112 C113 1.339 . S
C112 H147 0.949 . S
C113 C112 1.339 . S
C113 C114 1.439 . S
C113 H148 0.950 . S
C114 N110 1.383 . S
C114 C113 1.439 . S
C114 C143 1.392 . S
N115 Co109 2.008 1_655 S
N115 C116 1.376 . S
N115 C119 1.374 1_655 S
C116 N115 1.376 . S
C116 C117 1.443 . S
C116 C143 1.389 . S
C117 C116 1.443 . S
C117 C118 1.340 . S
C117 H149 0.951 . S
C118 C117 1.340 . S
C118 C119 1.439 1_655 S
C118 H150 0.950 . S
C119 N115 1.374 1_455 S
C119 C118 1.439 1_455 S
C119 C144 1.395 . S
N120 Co109 1.995 . S
N120 C121 1.376 . S
N120 C124 1.383 . S
C121 N120 1.376 . S
C121 C122 1.446 . S
C121 C144 1.391 . S
C122 C121 1.446 . S
C122 C123 1.339 . S
C122 H151 0.949 . S
C123 C122 1.339 . S
C123 C124 1.439 . S
C123 H152 0.950 . S
C124 N120 1.383 . S
C124 C123 1.439 . S
C124 C142 1.392 . S
N125 Co109 2.282 . S
N125 C128 1.332 . S
N125 C130 1.332 . S
C126 C127 1.386 . S
C126 C129 1.388 . S
C127 C126 1.386 . S
C127 C128 1.382 . S
C127 H153 0.950 . S
C128 N125 1.332 . S
C128 C127 1.382 . S
C128 H139 0.952 . S
C129 C126 1.388 . S
C129 C130 1.382 . S
C129 H154 0.950 . S
C130 N125 1.332 . S
C130 C129 1.382 . S
C130 H140 0.948 . S
N131 Co109 2.282 1_655 S
N131 C135 1.332 . S
N131 C136 1.332 . S
C132 C133 1.388 . S
C132 C136 1.382 . S
C132 H155 0.950 . S
C133 C132 1.388 . S
C133 C134 1.386 . S
C134 C133 1.386 . S
C134 C135 1.382 . S
C134 H156 0.950 . S
C135 N131 1.332 . S
C135 C134 1.382 . S
C135 H137 0.952 . S
C136 N131 1.332 . S
C136 C132 1.382 . S
C136 H138 0.948 . S
H137 C135 0.952 . S
H138 C136 0.948 . S
H139 C128 0.952 . S
H140 C130 0.948 . S
C141 C107 1.395 . S
C141 C111 1.391 . S
C142 C104 1.389 . S
C142 C124 1.392 . S
C143 C114 1.392 . S
C143 C116 1.389 . S
C144 C119 1.395 . S
C144 C121 1.391 . S
H145 C105 0.951 . S
H146 C106 0.950 . S
H147 C112 0.949 . S
H148 C113 0.950 . S
H149 C117 0.951 . S
H150 C118 0.950 . S
H151 C122 0.949 . S
H152 C123 0.950 . S
H153 C127 0.950 . S
H154 C129 0.950 . S
H155 C132 0.950 . S
H156 C134 0.950 . S
C157 C158 1.443 . S
C157 N161 1.376 . S
C157 C195 1.389 . S
C158 C157 1.443 . S
C158 C159 1.340 . S
C158 H198 0.951 . S
C159 C158 1.340 . S
C159 C160 1.439 . S
C159 H199 0.950 . S
C160 C159 1.439 . S
C160 N161 1.374 . S
C160 C194 1.395 . S
N161 C157 1.376 . S
N161 C160 1.374 . S
N161 Co162 2.008 . S
Co162 N161 2.008 . S
Co162 N163 1.995 . S
Co162 N168 2.008 . S
Co162 N173 1.995 . S
Co162 N178 2.282 . S
Co162 N184 2.282 . S
N163 Co162 1.995 . S
N163 C164 1.376 . S
N163 C167 1.383 . S
C164 N163 1.376 . S
C164 C165 1.446 1_455 S
C164 C194 1.391 . S
C165 C164 1.446 1_655 S
C165 C166 1.339 . S
C165 H200 0.949 . S
C166 C165 1.339 . S
C166 C167 1.439 1_655 S
C166 H201 0.950 . S
C167 N163 1.383 . S
C167 C166 1.439 1_455 S
C167 C196 1.392 . S
N168 Co162 2.008 . S
N168 C169 1.376 . S
N168 C172 1.374 . S
C169 N168 1.376 . S
C169 C170 1.443 . S
C169 C196 1.389 . S
C170 C169 1.443 . S
C170 C171 1.340 . S
C170 H202 0.951 . S
C171 C170 1.340 . S
C171 C172 1.439 . S
C171 H203 0.950 . S
C172 N168 1.374 . S
C172 C171 1.439 . S
C172 C197 1.395 . S
N173 Co162 1.995 . S
N173 C174 1.376 . S
N173 C177 1.383 . S
C174 N173 1.376 . S
C174 C175 1.446 . S
C174 C197 1.391 . S
C175 C174 1.446 . S
C175 C176 1.339 . S
C175 H204 0.949 . S
C176 C175 1.339 . S
C176 C177 1.439 . S
C176 H205 0.950 . S
C177 N173 1.383 . S
C177 C176 1.439 . S
C177 C195 1.392 . S
N178 Co162 2.282 . S
N178 C181 1.332 . S
N178 C183 1.332 . S
C179 C180 1.386 . S
C179 C182 1.388 . S
C180 C179 1.386 . S
C180 C181 1.382 . S
C180 H206 0.950 . S
C181 N178 1.332 . S
C181 C180 1.382 . S
C181 H192 0.952 . S
C182 C179 1.388 . S
C182 C183 1.382 . S
C182 H207 0.950 . S
C183 N178 1.332 . S
C183 C182 1.382 . S
C183 H193 0.948 . S
N184 Co162 2.282 . S
N184 C188 1.332 . S
N184 C189 1.332 . S
C185 C186 1.388 1_455 S
C185 C189 1.382 . S
C185 H208 0.950 . S
C186 C185 1.388 1_655 S
C186 C187 1.386 . S
C187 C186 1.386 . S
C187 C188 1.382 1_655 S
C187 H209 0.950 . S
C188 N184 1.332 . S
C188 C187 1.382 1_455 S
C188 H190 0.952 . S
C189 N184 1.332 . S
C189 C185 1.382 . S
C189 H191 0.948 . S
H190 C188 0.952 . S
H191 C189 0.948 . S
H192 C181 0.952 . S
H193 C183 0.948 . S
C194 C160 1.395 . S
C194 C164 1.391 . S
C195 C157 1.389 . S
C195 C177 1.392 . S
C196 C167 1.392 . S
C196 C169 1.389 . S
C197 C172 1.395 . S
C197 C174 1.391 . S
H198 C158 0.951 . S
H199 C159 0.950 . S
H200 C165 0.949 . S
H201 C166 0.950 . S
H202 C170 0.951 . S
H203 C171 0.950 . S
H204 C175 0.949 . S
H205 C176 0.950 . S
H206 C180 0.950 . S
H207 C182 0.950 . S
H208 C185 0.950 . S
H209 C187 0.950 . S
C210 C211 1.443 . S
C210 N214 1.376 1_565 S
C210 C248 1.389 . S
C211 C210 1.443 . S
C211 C212 1.340 . S
C211 H251 0.951 . S
C212 C211 1.340 . S
C212 C213 1.439 1_565 S
C212 H252 0.950 . S
C213 C212 1.439 1_545 S
C213 N214 1.374 . S
C213 C247 1.395 . S
N214 C210 1.376 1_545 S
N214 C213 1.374 . S
N214 Co215 2.008 . S
Co215 N214 2.008 . S
Co215 N216 1.995 . S
Co215 N221 2.008 . S
Co215 N226 1.995 1_545 S
Co215 N231 2.282 . S
Co215 N237 2.282 1_545 S
N216 Co215 1.995 . S
N216 C217 1.376 . S
N216 C220 1.383 . S
C217 N216 1.376 . S
C217 C218 1.446 . S
C217 C247 1.391 . S
C218 C217 1.446 . S
C218 C219 1.339 . S
C218 H253 0.949 . S
C219 C218 1.339 . S
C219 C220 1.439 . S
C219 H254 0.950 . S
C220 N216 1.383 . S
C220 C219 1.439 . S
C220 C249 1.392 . S
N221 Co215 2.008 . S
N221 C222 1.376 . S
N221 C225 1.374 . S
C222 N221 1.376 . S
C222 C223 1.443 . S
C222 C249 1.389 . S
C223 C222 1.443 . S
C223 C224 1.340 . S
C223 H255 0.951 . S
C224 C223 1.340 . S
C224 C225 1.439 . S
C224 H256 0.950 . S
C225 N221 1.374 . S
C225 C224 1.439 . S
C225 C250 1.395 . S
N226 Co215 1.995 1_565 S
N226 C227 1.376 . S
N226 C230 1.383 . S
C227 N226 1.376 . S
C227 C228 1.446 . S
C227 C250 1.391 1_565 S
C228 C227 1.446 . S
C228 C229 1.339 . S
C228 H257 0.949 . S
C229 C228 1.339 . S
C229 C230 1.439 . S
C229 H258 0.950 . S
C230 N226 1.383 . S
C230 C229 1.439 . S
C230 C248 1.392 . S
N231 Co215 2.282 . S
N231 C234 1.332 . S
N231 C236 1.332 . S
C232 C233 1.386 . S
C232 C235 1.388 . S
C233 C232 1.386 . S
C233 C234 1.382 . S
C233 H259 0.950 . S
C234 N231 1.332 . S
C234 C233 1.382 . S
C234 H245 0.952 . S
C235 C232 1.388 . S
C235 C236 1.382 . S
C235 H260 0.950 . S
C236 N231 1.332 . S
C236 C235 1.382 . S
C236 H246 0.948 . S
N237 Co215 2.282 1_565 S
N237 C241 1.332 . S
N237 C242 1.332 . S
C238 C239 1.388 . S
C238 C242 1.382 . S
C238 H261 0.950 . S
C239 C238 1.388 . S
C239 C240 1.386 . S
C240 C239 1.386 . S
C240 C241 1.382 . S
C240 H262 0.950 . S
C241 N237 1.332 . S
C241 C240 1.382 . S
C241 H243 0.952 1_565 S
C242 N237 1.332 . S
C242 C238 1.382 . S
C242 H244 0.948 . S
H243 C241 0.952 1_545 S
H244 C242 0.948 . S
H245 C234 0.952 . S
H246 C236 0.948 . S
C247 C213 1.395 . S
C247 C217 1.391 . S
C248 C210 1.389 . S
C248 C230 1.392 . S
C249 C220 1.392 . S
C249 C222 1.389 . S
C250 C225 1.395 . S
C250 C227 1.391 1_545 S
H251 C211 0.951 . S
H252 C212 0.950 . S
H253 C218 0.949 . S
H254 C219 0.950 . S
H255 C223 0.951 . S
H256 C224 0.950 . S
H257 C228 0.949 . S
H258 C229 0.950 . S
H259 C233 0.950 . S
H260 C235 0.950 . S
H261 C238 0.950 . S
H262 C240 0.950 . S
C263 C264 1.443 . S
C263 N267 1.376 . S
C263 C301 1.389 . S
C264 C263 1.443 . S
C264 C265 1.340 . S
C264 H304 0.951 . S
C265 C264 1.340 . S
C265 C266 1.439 . S
C265 H305 0.950 . S
C266 C265 1.439 . S
C266 N267 1.374 . S
C266 C300 1.395 . S
N267 C263 1.376 . S
N267 C266 1.374 . S
N267 Co268 2.008 . S
Co268 N267 2.008 . S
Co268 N269 1.995 . S
Co268 N274 2.008 . S
Co268 N279 1.995 . S
Co268 N284 2.282 . S
Co268 N290 2.282 . S
N269 Co268 1.995 . S
N269 C270 1.376 . S
N269 C273 1.383 1_554 S
C270 N269 1.376 . S
C270 C271 1.446 1_554 S
C270 C300 1.391 . S
C271 C270 1.446 1_556 S
C271 C272 1.339 . S
C271 H306 0.949 . S
C272 C271 1.339 . S
C272 C273 1.439 . S
C272 H307 0.950 . S
C273 N269 1.383 1_556 S
C273 C272 1.439 . S
C273 C302 1.392 . S
N274 Co268 2.008 . S
N274 C275 1.376 1_554 S
N274 C278 1.374 . S
C275 N274 1.376 1_556 S
C275 C276 1.443 . S
C275 C302 1.389 . S
C276 C275 1.443 . S
C276 C277 1.340 1_556 S
C276 H308 0.951 . S
C277 C276 1.340 1_554 S
C277 C278 1.439 . S
C277 H309 0.950 . S
C278 N274 1.374 . S
C278 C277 1.439 . S
C278 C303 1.395 . S
N279 Co268 1.995 . S
N279 C280 1.376 . S
N279 C283 1.383 . S
C280 N279 1.376 . S
C280 C281 1.446 . S
C280 C303 1.391 . S
C281 C280 1.446 . S
C281 C282 1.339 . S
C281 H310 0.949 . S
C282 C281 1.339 . S
C282 C283 1.439 . S
C282 H311 0.950 . S
C283 N279 1.383 . S
C283 C282 1.439 . S
C283 C301 1.392 . S
N284 Co268 2.282 . S
N284 C287 1.332 . S
N284 C289 1.332 1_554 S
C285 C286 1.386 . S
C285 C288 1.388 . S
C286 C285 1.386 . S
C286 C287 1.382 1_556 S
C286 H312 0.950 . S
C287 N284 1.332 . S
C287 C286 1.382 1_554 S
C287 H298 0.952 . S
C288 C285 1.388 . S
C288 C289 1.382 . S
C288 H313 0.950 . S
C289 N284 1.332 1_556 S
C289 C288 1.382 . S
C289 H299 0.948 . S
N290 Co268 2.282 . S
N290 C294 1.332 . S
N290 C295 1.332 . S
C291 C292 1.388 . S
C291 C295 1.382 . S
C291 H314 0.950 . S
C292 C291 1.388 . S
C292 C293 1.386 . S
C293 C292 1.386 . S
C293 C294 1.382 . S
C293 H315 0.950 . S
C294 N290 1.332 . S
C294 C293 1.382 . S
C294 H296 0.952 . S
C295 N290 1.332 . S
C295 C291 1.382 . S
C295 H297 0.948 . S
H296 C294 0.952 . S
H297 C295 0.948 . S
H298 C287 0.952 . S
H299 C289 0.948 . S
C300 C266 1.395 . S
C300 C270 1.391 . S
C301 C263 1.389 . S
C301 C283 1.392 . S
C302 C273 1.392 . S
C302 C275 1.389 . S
C303 C278 1.395 . S
C303 C280 1.391 . S
H304 C264 0.951 . S
H305 C265 0.950 . S
H306 C271 0.949 . S
H307 C272 0.950 . S
H308 C276 0.951 . S
H309 C277 0.950 . S
H310 C281 0.949 . S
H311 C282 0.950 . S
H312 C286 0.950 . S
H313 C288 0.950 . S
H314 C291 0.950 . S
H315 C293 0.950 . S
C316 C317 1.443 . S
C316 N320 1.376 . S
C316 C354 1.389 . S
C317 C316 1.443 . S
C317 C318 1.340 . S
C317 H357 0.951 . S
C318 C317 1.340 . S
C318 C319 1.439 . S
C318 H358 0.950 . S
C319 C318 1.439 . S
C319 N320 1.374 . S
C319 C353 1.395 1_565 S
N320 C316 1.376 . S
N320 C319 1.374 . S
N320 Co321 2.008 1_565 S
Co321 N320 2.008 1_545 S
Co321 N322 1.995 . S
Co321 N327 2.008 . S
Co321 N332 1.995 1_545 S
Co321 N337 2.282 . S
Co321 N343 2.282 1_545 S
N322 Co321 1.995 . S
N322 C323 1.376 . S
N322 C326 1.383 . S
C323 N322 1.376 . S
C323 C324 1.446 . S
C323 C353 1.391 . S
C324 C323 1.446 . S
C324 C325 1.339 . S
C324 H359 0.949 . S
C325 C324 1.339 . S
C325 C326 1.439 . S
C325 H360 0.950 . S
C326 N322 1.383 . S
C326 C325 1.439 . S
C326 C355 1.392 . S
N327 Co321 2.008 . S
N327 C328 1.376 . S
N327 C331 1.374 . S
C328 N327 1.376 . S
C328 C329 1.443 . S
C328 C355 1.389 . S
C329 C328 1.443 . S
C329 C330 1.340 . S
C329 H361 0.951 . S
C330 C329 1.340 . S
C330 C331 1.439 . S
C330 H362 0.950 . S
C331 N327 1.374 . S
C331 C330 1.439 . S
C331 C356 1.395 1_545 S
N332 Co321 1.995 1_565 S
N332 C333 1.376 . S
N332 C336 1.383 . S
C333 N332 1.376 . S
C333 C334 1.446 . S
C333 C356 1.391 . S
C334 C333 1.446 . S
C334 C335 1.339 . S
C334 H363 0.949 . S
C335 C334 1.339 . S
C335 C336 1.439 . S
C335 H364 0.950 . S
C336 N332 1.383 . S
C336 C335 1.439 . S
C336 C354 1.392 . S
N337 Co321 2.282 . S
N337 C340 1.332 . S
N337 C342 1.332 . S
C338 C339 1.386 . S
C338 C341 1.388 . S
C339 C338 1.386 . S
C339 C340 1.382 . S
C339 H365 0.950 . S
C340 N337 1.332 . S
C340 C339 1.382 . S
C340 H351 0.952 . S
C341 C338 1.388 . S
C341 C342 1.382 . S
C341 H366 0.950 . S
C342 N337 1.332 . S
C342 C341 1.382 . S
C342 H352 0.948 . S
N343 Co321 2.282 1_565 S
N343 C347 1.332 . S
N343 C348 1.332 . S
C344 C345 1.388 . S
C344 C348 1.382 . S
C344 H367 0.950 . S
C345 C344 1.388 . S
C345 C346 1.386 . S
C346 C345 1.386 . S
C346 C347 1.382 . S
C346 H368 0.950 . S
C347 N343 1.332 . S
C347 C346 1.382 . S
C347 H349 0.952 . S
C348 N343 1.332 . S
C348 C344 1.382 . S
C348 H350 0.948 . S
H349 C347 0.952 . S
H350 C348 0.948 . S
H351 C340 0.952 . S
H352 C342 0.948 . S
C353 C319 1.395 1_545 S
C353 C323 1.391 . S
C354 C316 1.389 . S
C354 C336 1.392 . S
C355 C326 1.392 . S
C355 C328 1.389 . S
C356 C331 1.395 1_565 S
C356 C333 1.391 . S
H357 C317 0.951 . S
H358 C318 0.950 . S
H359 C324 0.949 . S
H360 C325 0.950 . S
H361 C329 0.951 . S
H362 C330 0.950 . S
H363 C334 0.949 . S
H364 C335 0.950 . S
H365 C339 0.950 . S
H366 C341 0.950 . S
H367 C344 0.950 . S
H368 C346 0.950 . S
C369 C370 1.443 . S
C369 N373 1.376 . S
C369 C407 1.389 . S
C370 C369 1.443 . S
C370 C371 1.340 . S
C370 H410 0.951 . S
C371 C370 1.340 . S
C371 C372 1.439 . S
C371 H411 0.950 . S
C372 C371 1.439 . S
C372 N373 1.374 . S
C372 C406 1.395 1_554 S
N373 C369 1.376 . S
N373 C372 1.374 . S
N373 Co374 2.008 . S
Co374 N373 2.008 . S
Co374 N375 1.995 1_554 S
Co374 N380 2.008 1_554 S
Co374 N385 1.995 . S
Co374 N390 2.282 1_554 S
Co374 N396 2.282 . S
N375 Co374 1.995 1_556 S
N375 C376 1.376 . S
N375 C379 1.383 . S
C376 N375 1.376 . S
C376 C377 1.446 . S
C376 C406 1.391 . S
C377 C376 1.446 . S
C377 C378 1.339 . S
C377 H412 0.949 . S
C378 C377 1.339 . S
C378 C379 1.439 . S
C378 H413 0.950 . S
C379 N375 1.383 . S
C379 C378 1.439 . S
C379 C408 1.392 . S
N380 Co374 2.008 1_556 S
N380 C381 1.376 . S
N380 C384 1.374 . S
C381 N380 1.376 . S
C381 C382 1.443 . S
C381 C408 1.389 . S
C382 C381 1.443 . S
C382 C383 1.340 . S
C382 H414 0.951 . S
C383 C382 1.340 . S
C383 C384 1.439 . S
C383 H415 0.950 . S
C384 N380 1.374 . S
C384 C383 1.439 . S
C384 C409 1.395 1_556 S
N385 Co374 1.995 . S
N385 C386 1.376 . S
N385 C389 1.383 . S
C386 N385 1.376 . S
C386 C387 1.446 . S
C386 C409 1.391 . S
C387 C386 1.446 . S
C387 C388 1.339 . S
C387 H416 0.949 . S
C388 C387 1.339 . S
C388 C389 1.439 . S
C388 H417 0.950 . S
C389 N385 1.383 . S
C389 C388 1.439 . S
C389 C407 1.392 . S
N390 Co374 2.282 1_556 S
N390 C393 1.332 . S
N390 C395 1.332 . S
C391 C392 1.386 . S
C391 C394 1.388 . S
C392 C391 1.386 . S
C392 C393 1.382 . S
C392 H418 0.950 . S
C393 N390 1.332 . S
C393 C392 1.382 . S
C393 H404 0.952 . S
C394 C391 1.388 . S
C394 C395 1.382 . S
C394 H419 0.950 . S
C395 N390 1.332 . S
C395 C394 1.382 . S
C395 H405 0.948 . S
N396 Co374 2.282 . S
N396 C400 1.332 . S
N396 C401 1.332 . S
C397 C398 1.388 . S
C397 C401 1.382 . S
C397 H420 0.950 . S
C398 C397 1.388 . S
C398 C399 1.386 . S
C399 C398 1.386 . S
C399 C400 1.382 . S
C399 H421 0.950 . S
C400 N396 1.332 . S
C400 C399 1.382 . S
C400 H402 0.952 . S
C401 N396 1.332 . S
C401 C397 1.382 . S
C401 H403 0.948 . S
H402 C400 0.952 . S
H403 C401 0.948 . S
H404 C393 0.952 . S
H405 C395 0.948 . S
C406 C372 1.395 1_556 S
C406 C376 1.391 . S
C407 C369 1.389 . S
C407 C389 1.392 . S
C408 C379 1.392 . S
C408 C381 1.389 . S
C409 C384 1.395 1_554 S
C409 C386 1.391 . S
H410 C370 0.951 . S
H411 C371 0.950 . S
H412 C377 0.949 . S
H413 C378 0.950 . S
H414 C382 0.951 . S
H415 C383 0.950 . S
H416 C387 0.949 . S
H417 C388 0.950 . S
H418 C392 0.950 . S
H419 C394 0.950 . S
H420 C397 0.950 . S
H421 C399 0.950 . S
C422 C423 1.349 . S
C422 C424 1.327 . S
C422 H447 0.950 . S
C423 C422 1.349 . S
C423 C439 1.349 . S
C424 C422 1.327 . S
C424 C443 1.429 . S
C424 H448 0.950 . S
C425 C442 1.574 . S
C425 C444 1.368 . S
C425 H449 0.949 . S
H426 C430 0.949 . S
C427 C428 1.349 . S
C427 C429 1.327 . S
C427 H450 0.950 . S
C428 C427 1.349 . S
C428 C440 1.349 . S
C429 C427 1.327 . S
C429 C445 1.429 . S
C429 H451 0.950 . S
C430 H426 0.949 . S
C430 C438 1.574 . S
C430 C446 1.368 . S
H431 C439 0.950 . S
H432 C437 0.950 . S
H433 C438 0.949 . S
H434 C440 0.950 . S
H435 C441 0.950 . S
H436 C442 0.949 . S
C437 H432 0.950 . S
C437 C439 1.327 . S
C437 C443 1.429 . S
C438 C430 1.574 . S
C438 H433 0.949 . S
C438 C444 1.368 . S
C439 C423 1.349 . S
C439 H431 0.950 . S
C439 C437 1.327 . S
C440 C428 1.349 . S
C440 H434 0.950 . S
C440 C441 1.327 . S
C441 H435 0.950 . S
C441 C440 1.327 . S
C441 C445 1.429 . S
C442 C425 1.574 . S
C442 H436 0.949 . S
C442 C446 1.368 . S
C443 C424 1.429 . S
C443 C437 1.429 . S
C443 C444 1.523 . S
C444 C425 1.368 . S
C444 C438 1.368 . S
C444 C443 1.523 . S
C445 C429 1.429 . S
C445 C441 1.429 . S
C445 C446 1.523 . S
C446 C430 1.368 . S
C446 C442 1.368 . S
C446 C445 1.523 . S
H447 C422 0.950 . S
H448 C424 0.950 . S
H449 C425 0.949 . S
H450 C427 0.950 . S
H451 C429 0.950 . S
C452 C453 1.349 . S
C452 C454 1.327 . S
C452 H477 0.950 . S
C453 C452 1.349 . S
C453 C469 1.349 . S
C454 C452 1.327 . S
C454 C473 1.429 . S
C454 H478 0.950 . S
C455 C472 1.574 . S
C455 C474 1.368 . S
C455 H479 0.949 . S
H456 C460 0.949 . S
C457 C458 1.349 . S
C457 C459 1.327 . S
C457 H480 0.950 . S
C458 C457 1.349 . S
C458 C470 1.349 . S
C459 C457 1.327 . S
C459 C475 1.429 . S
C459 H481 0.950 . S
C460 H456 0.949 . S
C460 C468 1.574 . S
C460 C476 1.368 . S
H461 C469 0.950 . S
H462 C467 0.950 . S
H463 C468 0.949 . S
H464 C470 0.950 . S
H465 C471 0.950 . S
H466 C472 0.949 . S
C467 H462 0.950 . S
C467 C469 1.327 . S
C467 C473 1.429 . S
C468 C460 1.574 . S
C468 H463 0.949 . S
C468 C474 1.368 . S
C469 C453 1.349 . S
C469 H461 0.950 . S
C469 C467 1.327 . S
C470 C458 1.349 . S
C470 H464 0.950 . S
C470 C471 1.327 . S
C471 H465 0.950 . S
C471 C470 1.327 . S
C471 C475 1.429 . S
C472 C455 1.574 . S
C472 H466 0.949 . S
C472 C476 1.368 . S
C473 C454 1.429 . S
C473 C467 1.429 . S
C473 C474 1.523 . S
C474 C455 1.368 . S
C474 C468 1.368 . S
C474 C473 1.523 . S
C475 C459 1.429 . S
C475 C471 1.429 . S
C475 C476 1.523 . S
C476 C460 1.368 . S
C476 C472 1.368 . S
C476 C475 1.523 . S
H477 C452 0.950 . S
H478 C454 0.950 . S
H479 C455 0.949 . S
H480 C457 0.950 . S
H481 C459 0.950 . S
C482 C483 1.349 . S
C482 C484 1.327 . S
C482 H507 0.950 . S
C483 C482 1.349 . S
C483 C499 1.349 . S
C484 C482 1.327 . S
C484 C503 1.429 . S
C484 H508 0.950 . S
C485 C502 1.574 . S
C485 C504 1.368 . S
C485 H509 0.949 . S
H486 C490 0.949 . S
C487 C488 1.349 . S
C487 C489 1.327 . S
C487 H510 0.950 . S
C488 C487 1.349 . S
C488 C500 1.349 . S
C489 C487 1.327 . S
C489 C505 1.429 . S
C489 H511 0.950 . S
C490 H486 0.949 . S
C490 C498 1.574 . S
C490 C506 1.368 . S
H491 C499 0.950 . S
H492 C497 0.950 . S
H493 C498 0.949 . S
H494 C500 0.950 . S
H495 C501 0.950 . S
H496 C502 0.949 . S
C497 H492 0.950 . S
C497 C499 1.327 . S
C497 C503 1.429 . S
C498 C490 1.574 . S
C498 H493 0.949 . S
C498 C504 1.368 . S
C499 C483 1.349 . S
C499 H491 0.950 . S
C499 C497 1.327 . S
C500 C488 1.349 . S
C500 H494 0.950 . S
C500 C501 1.327 . S
C501 H495 0.950 . S
C501 C500 1.327 . S
C501 C505 1.429 . S
C502 C485 1.574 . S
C502 H496 0.949 . S
C502 C506 1.368 . S
C503 C484 1.429 . S
C503 C497 1.429 . S
C503 C504 1.523 . S
C504 C485 1.368 . S
C504 C498 1.368 . S
C504 C503 1.523 . S
C505 C489 1.429 . S
C505 C501 1.429 . S
C505 C506 1.523 . S
C506 C490 1.368 . S
C506 C502 1.368 . S
C506 C505 1.523 . S
H507 C482 0.950 . S
H508 C484 0.950 . S
H509 C485 0.949 . S
H510 C487 0.950 . S
H511 C489 0.950 . S
C512 C513 1.349 . S
C512 C514 1.327 . S
C512 H537 0.950 . S
C513 C512 1.349 . S
C513 C529 1.349 . S
C514 C512 1.327 . S
C514 C533 1.429 . S
C514 H538 0.950 . S
C515 C532 1.574 . S
C515 C534 1.368 . S
C515 H539 0.949 . S
H516 C520 0.949 . S
C517 C518 1.349 . S
C517 C519 1.327 . S
C517 H540 0.950 . S
C518 C517 1.349 . S
C518 C530 1.349 . S
C519 C517 1.327 . S
C519 C535 1.429 . S
C519 H541 0.950 . S
C520 H516 0.949 . S
C520 C528 1.574 . S
C520 C536 1.368 . S
H521 C529 0.950 . S
H522 C527 0.950 . S
H523 C528 0.949 . S
H524 C530 0.950 . S
H525 C531 0.950 . S
H526 C532 0.949 . S
C527 H522 0.950 . S
C527 C529 1.327 . S
C527 C533 1.429 . S
C528 C520 1.574 . S
C528 H523 0.949 . S
C528 C534 1.368 . S
C529 C513 1.349 . S
C529 H521 0.950 . S
C529 C527 1.327 . S
C530 C518 1.349 . S
C530 H524 0.950 . S
C530 C531 1.327 . S
C531 H525 0.950 . S
C531 C530 1.327 . S
C531 C535 1.429 . S
C532 C515 1.574 . S
C532 H526 0.949 . S
C532 C536 1.368 . S
C533 C514 1.429 . S
C533 C527 1.429 . S
C533 C534 1.523 . S
C534 C515 1.368 . S
C534 C528 1.368 . S
C534 C533 1.523 . S
C535 C519 1.429 . S
C535 C531 1.429 . S
C535 C536 1.523 . S
C536 C520 1.368 . S
C536 C532 1.368 . S
C536 C535 1.523 . S
H537 C512 0.950 . S
H538 C514 0.950 . S
H539 C515 0.949 . S
H540 C517 0.950 . S
H541 C519 0.950 . S
C542 C543 1.349 . S
C542 C544 1.327 . S
C542 H567 0.950 . S
C543 C542 1.349 . S
C543 C559 1.349 . S
C544 C542 1.327 . S
C544 C563 1.429 . S
C544 H568 0.950 . S
C545 C562 1.574 . S
C545 C564 1.368 . S
C545 H569 0.949 . S
H546 C550 0.949 . S
C547 C548 1.349 . S
C547 C549 1.327 . S
C547 H570 0.950 . S
C548 C547 1.349 . S
C548 C560 1.349 . S
C549 C547 1.327 . S
C549 C565 1.429 . S
C549 H571 0.950 . S
C550 H546 0.949 . S
C550 C558 1.574 . S
C550 C566 1.368 . S
H551 C559 0.950 . S
H552 C557 0.950 . S
H553 C558 0.949 . S
H554 C560 0.950 . S
H555 C561 0.950 . S
H556 C562 0.949 . S
C557 H552 0.950 . S
C557 C559 1.327 . S
C557 C563 1.429 . S
C558 C550 1.574 . S
C558 H553 0.949 . S
C558 C564 1.368 . S
C559 C543 1.349 . S
C559 H551 0.950 . S
C559 C557 1.327 . S
C560 C548 1.349 . S
C560 H554 0.950 . S
C560 C561 1.327 . S
C561 H555 0.950 . S
C561 C560 1.327 . S
C561 C565 1.429 . S
C562 C545 1.574 . S
C562 H556 0.949 . S
C562 C566 1.368 . S
C563 C544 1.429 . S
C563 C557 1.429 . S
C563 C564 1.523 . S
C564 C545 1.368 . S
C564 C558 1.368 . S
C564 C563 1.523 . S
C565 C549 1.429 . S
C565 C561 1.429 . S
C565 C566 1.523 . S
C566 C550 1.368 . S
C566 C562 1.368 . S
C566 C565 1.523 . S
H567 C542 0.950 . S
H568 C544 0.950 . S
H569 C545 0.949 . S
H570 C547 0.950 . S
H571 C549 0.950 . S
C572 C573 1.349 . S
C572 C574 1.327 . S
C572 H597 0.950 . S
C573 C572 1.349 . S
C573 C589 1.349 . S
C574 C572 1.327 . S
C574 C593 1.429 . S
C574 H598 0.950 . S
C575 C592 1.574 . S
C575 C594 1.368 . S
C575 H599 0.949 . S
H576 C580 0.949 . S
C577 C578 1.349 . S
C577 C579 1.327 . S
C577 H600 0.950 . S
C578 C577 1.349 . S
C578 C590 1.349 . S
C579 C577 1.327 . S
C579 C595 1.429 . S
C579 H601 0.950 . S
C580 H576 0.949 . S
C580 C588 1.574 . S
C580 C596 1.368 . S
H581 C589 0.950 . S
H582 C587 0.950 . S
H583 C588 0.949 . S
H584 C590 0.950 . S
H585 C591 0.950 . S
H586 C592 0.949 . S
C587 H582 0.950 . S
C587 C589 1.327 . S
C587 C593 1.429 . S
C588 C580 1.574 . S
C588 H583 0.949 . S
C588 C594 1.368 . S
C589 C573 1.349 . S
C589 H581 0.950 . S
C589 C587 1.327 . S
C590 C578 1.349 . S
C590 H584 0.950 . S
C590 C591 1.327 . S
C591 H585 0.950 . S
C591 C590 1.327 . S
C591 C595 1.429 . S
C592 C575 1.574 . S
C592 H586 0.949 . S
C592 C596 1.368 . S
C593 C574 1.429 . S
C593 C587 1.429 . S
C593 C594 1.523 . S
C594 C575 1.368 . S
C594 C588 1.368 . S
C594 C593 1.523 . S
C595 C579 1.429 . S
C595 C591 1.429 . S
C595 C596 1.523 . S
C596 C580 1.368 . S
C596 C592 1.368 . S
C596 C595 1.523 . S
H597 C572 0.950 . S
H598 C574 0.950 . S
H599 C575 0.949 . S
H600 C577 0.950 . S
H601 C579 0.950 . S
C602 C603 1.349 . S
C602 C604 1.327 . S
C602 H627 0.950 . S
C603 C602 1.349 . S
C603 C619 1.349 . S
C604 C602 1.327 . S
C604 C623 1.429 . S
C604 H628 0.950 . S
C605 C622 1.574 . S
C605 C624 1.368 . S
C605 H629 0.949 . S
H606 C610 0.949 . S
C607 C608 1.349 . S
C607 C609 1.327 . S
C607 H630 0.950 . S
C608 C607 1.349 . S
C608 C620 1.349 . S
C609 C607 1.327 . S
C609 C625 1.429 . S
C609 H631 0.950 . S
C610 H606 0.949 . S
C610 C618 1.574 . S
C610 C626 1.368 . S
H611 C619 0.950 . S
H612 C617 0.950 . S
H613 C618 0.949 . S
H614 C620 0.950 . S
H615 C621 0.950 . S
H616 C622 0.949 . S
C617 H612 0.950 . S
C617 C619 1.327 . S
C617 C623 1.429 . S
C618 C610 1.574 . S
C618 H613 0.949 . S
C618 C624 1.368 . S
C619 C603 1.349 . S
C619 H611 0.950 . S
C619 C617 1.327 . S
C620 C608 1.349 . S
C620 H614 0.950 . S
C620 C621 1.327 . S
C621 H615 0.950 . S
C621 C620 1.327 . S
C621 C625 1.429 . S
C622 C605 1.574 . S
C622 H616 0.949 . S
C622 C626 1.368 . S
C623 C604 1.429 . S
C623 C617 1.429 . S
C623 C624 1.523 . S
C624 C605 1.368 . S
C624 C618 1.368 . S
C624 C623 1.523 . S
C625 C609 1.429 . S
C625 C621 1.429 . S
C625 C626 1.523 . S
C626 C610 1.368 . S
C626 C622 1.368 . S
C626 C625 1.523 . S
H627 C602 0.950 . S
H628 C604 0.950 . S
H629 C605 0.949 . S
H630 C607 0.950 . S
H631 C609 0.950 . S
C632 C633 1.349 . S
C632 C634 1.327 . S
C632 H657 0.950 . S
C633 C632 1.349 . S
C633 C649 1.349 . S
C634 C632 1.327 . S
C634 C653 1.429 . S
C634 H658 0.950 . S
C635 C652 1.574 . S
C635 C654 1.368 . S
C635 H659 0.949 . S
H636 C640 0.949 . S
C637 C638 1.349 . S
C637 C639 1.327 . S
C637 H660 0.950 . S
C638 C637 1.349 . S
C638 C650 1.349 . S
C639 C637 1.327 . S
C639 C655 1.429 . S
C639 H661 0.950 . S
C640 H636 0.949 . S
C640 C648 1.574 . S
C640 C656 1.368 . S
H641 C649 0.950 . S
H642 C647 0.950 . S
H643 C648 0.949 . S
H644 C650 0.950 . S
H645 C651 0.950 . S
H646 C652 0.949 . S
C647 H642 0.950 . S
C647 C649 1.327 . S
C647 C653 1.429 . S
C648 C640 1.574 . S
C648 H643 0.949 . S
C648 C654 1.368 . S
C649 C633 1.349 . S
C649 H641 0.950 . S
C649 C647 1.327 . S
C650 C638 1.349 . S
C650 H644 0.950 . S
C650 C651 1.327 . S
C651 H645 0.950 . S
C651 C650 1.327 . S
C651 C655 1.429 . S
C652 C635 1.574 . S
C652 H646 0.949 . S
C652 C656 1.368 . S
C653 C634 1.429 . S
C653 C647 1.429 . S
C653 C654 1.523 . S
C654 C635 1.368 . S
C654 C648 1.368 . S
C654 C653 1.523 . S
C655 C639 1.429 . S
C655 C651 1.429 . S
C655 C656 1.523 . S
C656 C640 1.368 . S
C656 C652 1.368 . S
C656 C655 1.523 . S
H657 C632 0.950 . S
H658 C634 0.950 . S
H659 C635 0.949 . S
H660 C637 0.950 . S
H661 C639 0.950 . S
C662 C663 1.349 . S
C662 C664 1.327 . S
C662 H687 0.950 . S
C663 C662 1.349 . S
C663 C679 1.349 . S
C664 C662 1.327 . S
C664 C683 1.429 . S
C664 H688 0.950 . S
C665 C682 1.574 . S
C665 C684 1.368 . S
C665 H689 0.949 . S
H666 C670 0.949 . S
C667 C668 1.349 . S
C667 C669 1.327 . S
C667 H690 0.950 . S
C668 C667 1.349 . S
C668 C680 1.349 . S
C669 C667 1.327 . S
C669 C685 1.429 . S
C669 H691 0.950 . S
C670 H666 0.949 . S
C670 C678 1.574 . S
C670 C686 1.368 . S
H671 C679 0.950 . S
H672 C677 0.950 . S
H673 C678 0.949 . S
H674 C680 0.950 . S
H675 C681 0.950 . S
H676 C682 0.949 . S
C677 H672 0.950 . S
C677 C679 1.327 . S
C677 C683 1.429 . S
C678 C670 1.574 . S
C678 H673 0.949 . S
C678 C684 1.368 . S
C679 C663 1.349 . S
C679 H671 0.950 . S
C679 C677 1.327 . S
C680 C668 1.349 . S
C680 H674 0.950 . S
C680 C681 1.327 . S
C681 H675 0.950 . S
C681 C680 1.327 . S
C681 C685 1.429 . S
C682 C665 1.574 . S
C682 H676 0.949 . S
C682 C686 1.368 . S
C683 C664 1.429 . S
C683 C677 1.429 . S
C683 C684 1.523 . S
C684 C665 1.368 . S
C684 C678 1.368 . S
C684 C683 1.523 . S
C685 C669 1.429 . S
C685 C681 1.429 . S
C685 C686 1.523 . S
C686 C670 1.368 . S
C686 C682 1.368 . S
C686 C685 1.523 . S
H687 C662 0.950 . S
H688 C664 0.950 . S
H689 C665 0.949 . S
H690 C667 0.950 . S
H691 C669 0.950 . S
C692 C693 1.349 . S
C692 C694 1.327 . S
C692 H717 0.950 . S
C693 C692 1.349 . S
C693 C709 1.349 . S
C694 C692 1.327 . S
C694 C713 1.429 . S
C694 H718 0.950 . S
C695 C712 1.574 . S
C695 C714 1.368 . S
C695 H719 0.949 . S
H696 C700 0.949 . S
C697 C698 1.349 . S
C697 C699 1.327 . S
C697 H720 0.950 . S
C698 C697 1.349 . S
C698 C710 1.349 . S
C699 C697 1.327 . S
C699 C715 1.429 . S
C699 H721 0.950 . S
C700 H696 0.949 . S
C700 C708 1.574 . S
C700 C716 1.368 . S
H701 C709 0.950 . S
H702 C707 0.950 . S
H703 C708 0.949 . S
H704 C710 0.950 . S
H705 C711 0.950 . S
H706 C712 0.949 . S
C707 H702 0.950 . S
C707 C709 1.327 . S
C707 C713 1.429 . S
C708 C700 1.574 . S
C708 H703 0.949 . S
C708 C714 1.368 . S
C709 C693 1.349 . S
C709 H701 0.950 . S
C709 C707 1.327 . S
C710 C698 1.349 . S
C710 H704 0.950 . S
C710 C711 1.327 . S
C711 H705 0.950 . S
C711 C710 1.327 . S
C711 C715 1.429 . S
C712 C695 1.574 . S
C712 H706 0.949 . S
C712 C716 1.368 . S
C713 C694 1.429 . S
C713 C707 1.429 . S
C713 C714 1.523 . S
C714 C695 1.368 . S
C714 C708 1.368 . S
C714 C713 1.523 . S
C715 C699 1.429 . S
C715 C711 1.429 . S
C715 C716 1.523 . S
C716 C700 1.368 . S
C716 C712 1.368 . S
C716 C715 1.523 . S
H717 C692 0.950 . S
H718 C694 0.950 . S
H719 C695 0.949 . S
H720 C697 0.950 . S
H721 C699 0.950 . S
C722 C723 1.349 . S
C722 C724 1.327 . S
C722 H747 0.950 . S
C723 C722 1.349 . S
C723 C739 1.349 . S
C724 C722 1.327 . S
C724 C743 1.429 . S
C724 H748 0.950 . S
C725 C742 1.574 . S
C725 C744 1.368 . S
C725 H749 0.949 . S
H726 C730 0.949 . S
C727 C728 1.349 . S
C727 C729 1.327 . S
C727 H750 0.950 . S
C728 C727 1.349 . S
C728 C740 1.349 . S
C729 C727 1.327 . S
C729 C745 1.429 . S
C729 H751 0.950 . S
C730 H726 0.949 . S
C730 C738 1.574 . S
C730 C746 1.368 . S
H731 C739 0.950 . S
H732 C737 0.950 . S
H733 C738 0.949 . S
H734 C740 0.950 . S
H735 C741 0.950 . S
H736 C742 0.949 . S
C737 H732 0.950 . S
C737 C739 1.327 . S
C737 C743 1.429 . S
C738 C730 1.574 . S
C738 H733 0.949 . S
C738 C744 1.368 . S
C739 C723 1.349 . S
C739 H731 0.950 . S
C739 C737 1.327 . S
C740 C728 1.349 . S
C740 H734 0.950 . S
C740 C741 1.327 . S
C741 H735 0.950 . S
C741 C740 1.327 . S
C741 C745 1.429 . S
C742 C725 1.574 . S
C742 H736 0.949 . S
C742 C746 1.368 . S
C743 C724 1.429 . S
C743 C737 1.429 . S
C743 C744 1.523 . S
C744 C725 1.368 . S
C744 C738 1.368 . S
C744 C743 1.523 . S
C745 C729 1.429 . S
C745 C741 1.429 . S
C745 C746 1.523 . S
C746 C730 1.368 . S
C746 C742 1.368 . S
C746 C745 1.523 . S
H747 C722 0.950 . S
H748 C724 0.950 . S
H749 C725 0.949 . S
H750 C727 0.950 . S
H751 C729 0.950 . S
C752 C753 1.349 . S
C752 C754 1.327 . S
C752 H777 0.950 . S
C753 C752 1.349 . S
C753 C769 1.349 . S
C754 C752 1.327 . S
C754 C773 1.429 . S
C754 H778 0.950 . S
C755 C772 1.574 . S
C755 C774 1.368 . S
C755 H779 0.949 . S
H756 C760 0.949 . S
C757 C758 1.349 . S
C757 C759 1.327 . S
C757 H780 0.950 . S
C758 C757 1.349 . S
C758 C770 1.349 . S
C759 C757 1.327 . S
C759 C775 1.429 . S
C759 H781 0.950 . S
C760 H756 0.949 . S
C760 C768 1.574 . S
C760 C776 1.368 . S
H761 C769 0.950 . S
H762 C767 0.950 . S
H763 C768 0.949 . S
H764 C770 0.950 . S
H765 C771 0.950 . S
H766 C772 0.949 . S
C767 H762 0.950 . S
C767 C769 1.327 . S
C767 C773 1.429 . S
C768 C760 1.574 . S
C768 H763 0.949 . S
C768 C774 1.368 . S
C769 C753 1.349 . S
C769 H761 0.950 . S
C769 C767 1.327 . S
C770 C758 1.349 . S
C770 H764 0.950 . S
C770 C771 1.327 . S
C771 H765 0.950 . S
C771 C770 1.327 . S
C771 C775 1.429 . S
C772 C755 1.574 . S
C772 H766 0.949 . S
C772 C776 1.368 . S
C773 C754 1.429 . S
C773 C767 1.429 . S
C773 C774 1.523 . S
C774 C755 1.368 . S
C774 C768 1.368 . S
C774 C773 1.523 . S
C775 C759 1.429 . S
C775 C771 1.429 . S
C775 C776 1.523 . S
C776 C760 1.368 . S
C776 C772 1.368 . S
C776 C775 1.523 . S
H777 C752 0.950 . S
H778 C754 0.950 . S
H779 C755 0.949 . S
H780 C757 0.950 . S
H781 C759 0.950 . S
C782 C783 1.349 . S
C782 C784 1.327 . S
C782 H807 0.950 . S
C783 C782 1.349 . S
C783 C799 1.349 . S
C784 C782 1.327 . S
C784 C803 1.429 . S
C784 H808 0.950 . S
C785 C802 1.574 . S
C785 C804 1.368 . S
C785 H809 0.949 . S
H786 C790 0.949 . S
C787 C788 1.349 . S
C787 C789 1.327 . S
C787 H810 0.950 . S
C788 C787 1.349 . S
C788 C800 1.349 . S
C789 C787 1.327 . S
C789 C805 1.429 . S
C789 H811 0.950 . S
C790 H786 0.949 . S
C790 C798 1.574 . S
C790 C806 1.368 . S
H791 C799 0.950 . S
H792 C797 0.950 . S
H793 C798 0.949 . S
H794 C800 0.950 . S
H795 C801 0.950 . S
H796 C802 0.949 . S
C797 H792 0.950 . S
C797 C799 1.327 . S
C797 C803 1.429 . S
C798 C790 1.574 . S
C798 H793 0.949 . S
C798 C804 1.368 . S
C799 C783 1.349 . S
C799 H791 0.950 . S
C799 C797 1.327 . S
C800 C788 1.349 . S
C800 H794 0.950 . S
C800 C801 1.327 . S
C801 H795 0.950 . S
C801 C800 1.327 . S
C801 C805 1.429 . S
C802 C785 1.574 . S
C802 H796 0.949 . S
C802 C806 1.368 . S
C803 C784 1.429 . S
C803 C797 1.429 . S
C803 C804 1.523 . S
C804 C785 1.368 . S
C804 C798 1.368 . S
C804 C803 1.523 . S
C805 C789 1.429 . S
C805 C801 1.429 . S
C805 C806 1.523 . S
C806 C790 1.368 . S
C806 C802 1.368 . S
C806 C805 1.523 . S
H807 C782 0.950 . S
H808 C784 0.950 . S
H809 C785 0.949 . S
H810 C787 0.950 . S
H811 C789 0.950 . S
C812 C813 1.349 . S
C812 C814 1.327 . S
C812 H837 0.950 . S
C813 C812 1.349 . S
C813 C829 1.349 . S
C814 C812 1.327 . S
C814 C833 1.429 . S
C814 H838 0.950 . S
C815 C832 1.574 . S
C815 C834 1.368 . S
C815 H839 0.949 . S
H816 C820 0.949 . S
C817 C818 1.349 . S
C817 C819 1.327 . S
C817 H840 0.950 . S
C818 C817 1.349 . S
C818 C830 1.349 . S
C819 C817 1.327 . S
C819 C835 1.429 . S
C819 H841 0.950 . S
C820 H816 0.949 . S
C820 C828 1.574 . S
C820 C836 1.368 . S
H821 C829 0.950 . S
H822 C827 0.950 . S
H823 C828 0.949 . S
H824 C830 0.950 . S
H825 C831 0.950 . S
H826 C832 0.949 . S
C827 H822 0.950 . S
C827 C829 1.327 . S
C827 C833 1.429 . S
C828 C820 1.574 . S
C828 H823 0.949 . S
C828 C834 1.368 . S
C829 C813 1.349 . S
C829 H821 0.950 . S
C829 C827 1.327 . S
C830 C818 1.349 . S
C830 H824 0.950 . S
C830 C831 1.327 . S
C831 H825 0.950 . S
C831 C830 1.327 . S
C831 C835 1.429 . S
C832 C815 1.574 . S
C832 H826 0.949 . S
C832 C836 1.368 . S
C833 C814 1.429 . S
C833 C827 1.429 . S
C833 C834 1.523 . S
C834 C815 1.368 . S
C834 C828 1.368 . S
C834 C833 1.523 . S
C835 C819 1.429 . S
C835 C831 1.429 . S
C835 C836 1.523 . S
C836 C820 1.368 . S
C836 C832 1.368 . S
C836 C835 1.523 . S
H837 C812 0.950 . S
H838 C814 0.950 . S
H839 C815 0.949 . S
H840 C817 0.950 . S
H841 C819 0.950 . S
C842 C843 1.349 . S
C842 C844 1.327 . S
C842 H867 0.950 . S
C843 C842 1.349 . S
C843 C859 1.349 . S
C844 C842 1.327 . S
C844 C863 1.429 . S
C844 H868 0.950 . S
C845 C862 1.574 . S
C845 C864 1.368 . S
C845 H869 0.949 . S
H846 C850 0.949 . S
C847 C848 1.349 . S
C847 C849 1.327 . S
C847 H870 0.950 . S
C848 C847 1.349 . S
C848 C860 1.349 . S
C849 C847 1.327 . S
C849 C865 1.429 . S
C849 H871 0.950 . S
C850 H846 0.949 . S
C850 C858 1.574 . S
C850 C866 1.368 . S
H851 C859 0.950 . S
H852 C857 0.950 . S
H853 C858 0.949 . S
H854 C860 0.950 . S
H855 C861 0.950 . S
H856 C862 0.949 . S
C857 H852 0.950 . S
C857 C859 1.327 . S
C857 C863 1.429 . S
C858 C850 1.574 . S
C858 H853 0.949 . S
C858 C864 1.368 . S
C859 C843 1.349 . S
C859 H851 0.950 . S
C859 C857 1.327 . S
C860 C848 1.349 . S
C860 H854 0.950 . S
C860 C861 1.327 . S
C861 H855 0.950 . S
C861 C860 1.327 . S
C861 C865 1.429 . S
C862 C845 1.574 . S
C862 H856 0.949 . S
C862 C866 1.368 . S
C863 C844 1.429 . S
C863 C857 1.429 . S
C863 C864 1.523 . S
C864 C845 1.368 . S
C864 C858 1.368 . S
C864 C863 1.523 . S
C865 C849 1.429 . S
C865 C861 1.429 . S
C865 C866 1.523 . S
C866 C850 1.368 . S
C866 C862 1.368 . S
C866 C865 1.523 . S
H867 C842 0.950 . S
H868 C844 0.950 . S
H869 C845 0.949 . S
H870 C847 0.950 . S
H871 C849 0.950 . S
C872 C873 1.349 . S
C872 C874 1.327 . S
C872 H897 0.950 . S
C873 C872 1.349 . S
C873 C889 1.349 . S
C874 C872 1.327 . S
C874 C893 1.429 . S
C874 H898 0.950 . S
C875 C892 1.574 . S
C875 C894 1.368 . S
C875 H899 0.949 . S
H876 C880 0.949 . S
C877 C878 1.349 . S
C877 C879 1.327 . S
C877 H900 0.950 . S
C878 C877 1.349 . S
C878 C890 1.349 . S
C879 C877 1.327 . S
C879 C895 1.429 . S
C879 H901 0.950 . S
C880 H876 0.949 . S
C880 C888 1.574 . S
C880 C896 1.368 . S
H881 C889 0.950 . S
H882 C887 0.950 . S
H883 C888 0.949 . S
H884 C890 0.950 . S
H885 C891 0.950 . S
H886 C892 0.949 . S
C887 H882 0.950 . S
C887 C889 1.327 . S
C887 C893 1.429 . S
C888 C880 1.574 . S
C888 H883 0.949 . S
C888 C894 1.368 . S
C889 C873 1.349 . S
C889 H881 0.950 . S
C889 C887 1.327 . S
C890 C878 1.349 . S
C890 H884 0.950 . S
C890 C891 1.327 . S
C891 H885 0.950 . S
C891 C890 1.327 . S
C891 C895 1.429 . S
C892 C875 1.574 . S
C892 H886 0.949 . S
C892 C896 1.368 . S
C893 C874 1.429 . S
C893 C887 1.429 . S
C893 C894 1.523 . S
C894 C875 1.368 . S
C894 C888 1.368 . S
C894 C893 1.523 . S
C895 C879 1.429 . S
C895 C891 1.429 . S
C895 C896 1.523 . S
C896 C880 1.368 . S
C896 C892 1.368 . S
C896 C895 1.523 . S
H897 C872 0.950 . S
H898 C874 0.950 . S
H899 C875 0.949 . S
H900 C877 0.950 . S
H901 C879 0.950 . S
C902 C903 1.349 . S
C902 C904 1.327 . S
C902 H927 0.950 . S
C903 C902 1.349 . S
C903 C919 1.349 . S
C904 C902 1.327 . S
C904 C923 1.429 . S
C904 H928 0.950 . S
C905 C922 1.574 . S
C905 C924 1.368 . S
C905 H929 0.949 . S
H906 C910 0.949 . S
C907 C908 1.349 . S
C907 C909 1.327 . S
C907 H930 0.950 . S
C908 C907 1.349 . S
C908 C920 1.349 . S
C909 C907 1.327 . S
C909 C925 1.429 . S
C909 H931 0.950 . S
C910 H906 0.949 . S
C910 C918 1.574 . S
C910 C926 1.368 . S
H911 C919 0.950 . S
H912 C917 0.950 . S
H913 C918 0.949 . S
H914 C920 0.950 . S
H915 C921 0.950 . S
H916 C922 0.949 . S
C917 H912 0.950 . S
C917 C919 1.327 . S
C917 C923 1.429 . S
C918 C910 1.574 . S
C918 H913 0.949 . S
C918 C924 1.368 . S
C919 C903 1.349 . S
C919 H911 0.950 . S
C919 C917 1.327 . S
C920 C908 1.349 . S
C920 H914 0.950 . S
C920 C921 1.327 . S
C921 H915 0.950 . S
C921 C920 1.327 . S
C921 C925 1.429 . S
C922 C905 1.574 . S
C922 H916 0.949 . S
C922 C926 1.368 . S
C923 C904 1.429 . S
C923 C917 1.429 . S
C923 C924 1.523 . S
C924 C905 1.368 . S
C924 C918 1.368 . S
C924 C923 1.523 . S
C925 C909 1.429 . S
C925 C921 1.429 . S
C925 C926 1.523 . S
C926 C910 1.368 . S
C926 C922 1.368 . S
C926 C925 1.523 . S
H927 C902 0.950 . S
H928 C904 0.950 . S
H929 C905 0.949 . S
H930 C907 0.950 . S
H931 C909 0.950 . S
C932 C933 1.349 . S
C932 C934 1.327 . S
C932 H957 0.950 . S
C933 C932 1.349 . S
C933 C949 1.349 . S
C934 C932 1.327 . S
C934 C953 1.429 . S
C934 H958 0.950 . S
C935 C952 1.574 . S
C935 C954 1.368 . S
C935 H959 0.949 . S
H936 C940 0.949 . S
C937 C938 1.349 . S
C937 C939 1.327 . S
C937 H960 0.950 . S
C938 C937 1.349 . S
C938 C950 1.349 . S
C939 C937 1.327 . S
C939 C955 1.429 . S
C939 H961 0.950 . S
C940 H936 0.949 . S
C940 C948 1.574 . S
C940 C956 1.368 . S
H941 C949 0.950 . S
H942 C947 0.950 . S
H943 C948 0.949 . S
H944 C950 0.950 . S
H945 C951 0.950 . S
H946 C952 0.949 . S
C947 H942 0.950 . S
C947 C949 1.327 . S
C947 C953 1.429 . S
C948 C940 1.574 . S
C948 H943 0.949 . S
C948 C954 1.368 . S
C949 C933 1.349 . S
C949 H941 0.950 . S
C949 C947 1.327 . S
C950 C938 1.349 . S
C950 H944 0.950 . S
C950 C951 1.327 . S
C951 H945 0.950 . S
C951 C950 1.327 . S
C951 C955 1.429 . S
C952 C935 1.574 . S
C952 H946 0.949 . S
C952 C956 1.368 . S
C953 C934 1.429 . S
C953 C947 1.429 . S
C953 C954 1.523 . S
C954 C935 1.368 . S
C954 C948 1.368 . S
C954 C953 1.523 . S
C955 C939 1.429 . S
C955 C951 1.429 . S
C955 C956 1.523 . S
C956 C940 1.368 . S
C956 C952 1.368 . S
C956 C955 1.523 . S
H957 C932 0.950 . S
H958 C934 0.950 . S
H959 C935 0.949 . S
H960 C937 0.950 . S
H961 C939 0.950 . S
C962 C963 1.349 . S
C962 C964 1.327 . S
C962 H987 0.950 . S
C963 C962 1.349 . S
C963 C979 1.349 . S
C964 C962 1.327 . S
C964 C983 1.429 . S
C964 H988 0.950 . S
C965 C982 1.574 . S
C965 C984 1.368 . S
C965 H989 0.949 . S
H966 C970 0.949 . S
C967 C968 1.349 . S
C967 C969 1.327 . S
C967 H990 0.950 . S
C968 C967 1.349 . S
C968 C980 1.349 . S
C969 C967 1.327 . S
C969 C985 1.429 . S
C969 H991 0.950 . S
C970 H966 0.949 . S
C970 C978 1.574 . S
C970 C986 1.368 . S
H971 C979 0.950 . S
H972 C977 0.950 . S
H973 C978 0.949 . S
H974 C980 0.950 . S
H975 C981 0.950 . S
H976 C982 0.949 . S
C977 H972 0.950 . S
C977 C979 1.327 . S
C977 C983 1.429 . S
C978 C970 1.574 . S
C978 H973 0.949 . S
C978 C984 1.368 . S
C979 C963 1.349 . S
C979 H971 0.950 . S
C979 C977 1.327 . S
C980 C968 1.349 . S
C980 H974 0.950 . S
C980 C981 1.327 . S
C981 H975 0.950 . S
C981 C980 1.327 . S
C981 C985 1.429 . S
C982 C965 1.574 . S
C982 H976 0.949 . S
C982 C986 1.368 . S
C983 C964 1.429 . S
C983 C977 1.429 . S
C983 C984 1.523 . S
C984 C965 1.368 . S
C984 C978 1.368 . S
C984 C983 1.523 . S
C985 C969 1.429 . S
C985 C981 1.429 . S
C985 C986 1.523 . S
C986 C970 1.368 . S
C986 C982 1.368 . S
C986 C985 1.523 . S
H987 C962 0.950 . S
H988 C964 0.950 . S
H989 C965 0.949 . S
H990 C967 0.950 . S
H991 C969 0.950 . S
C992 C993 1.349 . S
C992 C994 1.327 . S
C992 H1017 0.950 . S
C993 C992 1.349 . S
C993 C1009 1.349 . S
C994 C992 1.327 . S
C994 C1013 1.429 . S
C994 H1018 0.950 . S
C995 C1012 1.574 . S
C995 C1014 1.368 . S
C995 H1019 0.949 . S
H996 C1000 0.949 . S
C997 C998 1.349 . S
C997 C999 1.327 . S
C997 H1020 0.950 . S
C998 C997 1.349 . S
C998 C1010 1.349 . S
C999 C997 1.327 . S
C999 C1015 1.429 . S
C999 H1021 0.950 . S
C1000 H996 0.949 . S
C1000 C1008 1.574 . S
C1000 C1016 1.368 . S
H1001 C1009 0.950 . S
H1002 C1007 0.950 . S
H1003 C1008 0.949 . S
H1004 C1010 0.950 . S
H1005 C1011 0.950 . S
H1006 C1012 0.949 . S
C1007 H1002 0.950 . S
C1007 C1009 1.327 . S
C1007 C1013 1.429 . S
C1008 C1000 1.574 . S
C1008 H1003 0.949 . S
C1008 C1014 1.368 . S
C1009 C993 1.349 . S
C1009 H1001 0.950 . S
C1009 C1007 1.327 . S
C1010 C998 1.349 . S
C1010 H1004 0.950 . S
C1010 C1011 1.327 . S
C1011 H1005 0.950 . S
C1011 C1010 1.327 . S
C1011 C1015 1.429 . S
C1012 C995 1.574 . S
C1012 H1006 0.949 . S
C1012 C1016 1.368 . S
C1013 C994 1.429 . S
C1013 C1007 1.429 . S
C1013 C1014 1.523 . S
C1014 C995 1.368 . S
C1014 C1008 1.368 . S
C1014 C1013 1.523 . S
C1015 C999 1.429 . S
C1015 C1011 1.429 . S
C1015 C1016 1.523 . S
C1016 C1000 1.368 . S
C1016 C1012 1.368 . S
C1016 C1015 1.523 . S
H1017 C992 0.950 . S
H1018 C994 0.950 . S
H1019 C995 0.949 . S
H1020 C997 0.950 . S
H1021 C999 0.950 . S
C1022 C1023 1.349 . S
C1022 C1024 1.327 . S
C1022 H1047 0.950 . S
C1023 C1022 1.349 . S
C1023 C1039 1.349 . S
C1024 C1022 1.327 . S
C1024 C1043 1.429 . S
C1024 H1048 0.950 . S
C1025 C1042 1.574 . S
C1025 C1044 1.368 . S
C1025 H1049 0.949 . S
H1026 C1030 0.949 . S
C1027 C1028 1.349 . S
C1027 C1029 1.327 . S
C1027 H1050 0.950 . S
C1028 C1027 1.349 . S
C1028 C1040 1.349 . S
C1029 C1027 1.327 . S
C1029 C1045 1.429 . S
C1029 H1051 0.950 . S
C1030 H1026 0.949 . S
C1030 C1038 1.574 . S
C1030 C1046 1.368 . S
H1031 C1039 0.950 . S
H1032 C1037 0.950 . S
H1033 C1038 0.949 . S
H1034 C1040 0.950 . S
H1035 C1041 0.950 . S
H1036 C1042 0.949 . S
C1037 H1032 0.950 . S
C1037 C1039 1.327 . S
C1037 C1043 1.429 . S
C1038 C1030 1.574 . S
C1038 H1033 0.949 . S
C1038 C1044 1.368 . S
C1039 C1023 1.349 . S
C1039 H1031 0.950 . S
C1039 C1037 1.327 . S
C1040 C1028 1.349 . S
C1040 H1034 0.950 . S
C1040 C1041 1.327 . S
C1041 H1035 0.950 . S
C1041 C1040 1.327 . S
C1041 C1045 1.429 . S
C1042 C1025 1.574 . S
C1042 H1036 0.949 . S
C1042 C1046 1.368 . S
C1043 C1024 1.429 . S
C1043 C1037 1.429 . S
C1043 C1044 1.523 . S
C1044 C1025 1.368 . S
C1044 C1038 1.368 . S
C1044 C1043 1.523 . S
C1045 C1029 1.429 . S
C1045 C1041 1.429 . S
C1045 C1046 1.523 . S
C1046 C1030 1.368 . S
C1046 C1042 1.368 . S
C1046 C1045 1.523 . S
H1047 C1022 0.950 . S
H1048 C1024 0.950 . S
H1049 C1025 0.949 . S
H1050 C1027 0.950 . S
H1051 C1029 0.950 . S
C1052 C1053 1.349 . S
C1052 C1054 1.327 . S
C1052 H1077 0.950 . S
C1053 C1052 1.349 . S
C1053 C1069 1.349 . S
C1054 C1052 1.327 . S
C1054 C1073 1.429 . S
C1054 H1078 0.950 . S
C1055 C1072 1.574 . S
C1055 C1074 1.368 . S
C1055 H1079 0.949 . S
H1056 C1060 0.949 . S
C1057 C1058 1.349 . S
C1057 C1059 1.327 . S
C1057 H1080 0.950 . S
C1058 C1057 1.349 . S
C1058 C1070 1.349 . S
C1059 C1057 1.327 . S
C1059 C1075 1.429 . S
C1059 H1081 0.950 . S
C1060 H1056 0.949 . S
C1060 C1068 1.574 . S
C1060 C1076 1.368 . S
H1061 C1069 0.950 . S
H1062 C1067 0.950 . S
H1063 C1068 0.949 . S
H1064 C1070 0.950 . S
H1065 C1071 0.950 . S
H1066 C1072 0.949 . S
C1067 H1062 0.950 . S
C1067 C1069 1.327 . S
C1067 C1073 1.429 . S
C1068 C1060 1.574 . S
C1068 H1063 0.949 . S
C1068 C1074 1.368 . S
C1069 C1053 1.349 . S
C1069 H1061 0.950 . S
C1069 C1067 1.327 . S
C1070 C1058 1.349 . S
C1070 H1064 0.950 . S
C1070 C1071 1.327 . S
C1071 H1065 0.950 . S
C1071 C1070 1.327 . S
C1071 C1075 1.429 . S
C1072 C1055 1.574 . S
C1072 H1066 0.949 . S
C1072 C1076 1.368 . S
C1073 C1054 1.429 . S
C1073 C1067 1.429 . S
C1073 C1074 1.523 . S
C1074 C1055 1.368 . S
C1074 C1068 1.368 . S
C1074 C1073 1.523 . S
C1075 C1059 1.429 . S
C1075 C1071 1.429 . S
C1075 C1076 1.523 . S
C1076 C1060 1.368 . S
C1076 C1072 1.368 . S
C1076 C1075 1.523 . S
H1077 C1052 0.950 . S
H1078 C1054 0.950 . S
H1079 C1055 0.949 . S
H1080 C1057 0.950 . S
H1081 C1059 0.950 . S
C1082 C1083 1.349 . S
C1082 C1084 1.327 . S
C1082 H1107 0.950 . S
C1083 C1082 1.349 . S
C1083 C1099 1.349 . S
C1084 C1082 1.327 . S
C1084 C1103 1.429 . S
C1084 H1108 0.950 . S
C1085 C1102 1.574 . S
C1085 C1104 1.368 . S
C1085 H1109 0.949 . S
H1086 C1090 0.949 . S
C1087 C1088 1.349 . S
C1087 C1089 1.327 . S
C1087 H1110 0.950 . S
C1088 C1087 1.349 . S
C1088 C1100 1.349 . S
C1089 C1087 1.327 . S
C1089 C1105 1.429 . S
C1089 H1111 0.950 . S
C1090 H1086 0.949 . S
C1090 C1098 1.574 . S
C1090 C1106 1.368 . S
H1091 C1099 0.950 . S
H1092 C1097 0.950 . S
H1093 C1098 0.949 . S
H1094 C1100 0.950 . S
H1095 C1101 0.950 . S
H1096 C1102 0.949 . S
C1097 H1092 0.950 . S
C1097 C1099 1.327 . S
C1097 C1103 1.429 . S
C1098 C1090 1.574 . S
C1098 H1093 0.949 . S
C1098 C1104 1.368 . S
C1099 C1083 1.349 . S
C1099 H1091 0.950 . S
C1099 C1097 1.327 . S
C1100 C1088 1.349 . S
C1100 H1094 0.950 . S
C1100 C1101 1.327 . S
C1101 H1095 0.950 . S
C1101 C1100 1.327 . S
C1101 C1105 1.429 . S
C1102 C1085 1.574 . S
C1102 H1096 0.949 . S
C1102 C1106 1.368 . S
C1103 C1084 1.429 . S
C1103 C1097 1.429 . S
C1103 C1104 1.523 . S
C1104 C1085 1.368 . S
C1104 C1098 1.368 . S
C1104 C1103 1.523 . S
C1105 C1089 1.429 . S
C1105 C1101 1.429 . S
C1105 C1106 1.523 . S
C1106 C1090 1.368 . S
C1106 C1102 1.368 . S
C1106 C1105 1.523 . S
H1107 C1082 0.950 . S
H1108 C1084 0.950 . S
H1109 C1085 0.949 . S
H1110 C1087 0.950 . S
H1111 C1089 0.950 . S
C1112 C1113 1.349 . S
C1112 C1114 1.327 . S
C1112 H1137 0.950 . S
C1113 C1112 1.349 . S
C1113 C1129 1.349 . S
C1114 C1112 1.327 . S
C1114 C1133 1.429 . S
C1114 H1138 0.950 . S
C1115 C1132 1.574 . S
C1115 C1134 1.368 . S
C1115 H1139 0.949 . S
H1116 C1120 0.949 . S
C1117 C1118 1.349 . S
C1117 C1119 1.327 . S
C1117 H1140 0.950 . S
C1118 C1117 1.349 . S
C1118 C1130 1.349 . S
C1119 C1117 1.327 . S
C1119 C1135 1.429 . S
C1119 H1141 0.950 . S
C1120 H1116 0.949 . S
C1120 C1128 1.574 . S
C1120 C1136 1.368 . S
H1121 C1129 0.950 . S
H1122 C1127 0.950 . S
H1123 C1128 0.949 . S
H1124 C1130 0.950 . S
H1125 C1131 0.950 . S
H1126 C1132 0.949 . S
C1127 H1122 0.950 . S
C1127 C1129 1.327 . S
C1127 C1133 1.429 . S
C1128 C1120 1.574 . S
C1128 H1123 0.949 . S
C1128 C1134 1.368 . S
C1129 C1113 1.349 . S
C1129 H1121 0.950 . S
C1129 C1127 1.327 . S
C1130 C1118 1.349 . S
C1130 H1124 0.950 . S
C1130 C1131 1.327 . S
C1131 H1125 0.950 . S
C1131 C1130 1.327 . S
C1131 C1135 1.429 . S
C1132 C1115 1.574 . S
C1132 H1126 0.949 . S
C1132 C1136 1.368 . S
C1133 C1114 1.429 . S
C1133 C1127 1.429 . S
C1133 C1134 1.523 . S
C1134 C1115 1.368 . S
C1134 C1128 1.368 . S
C1134 C1133 1.523 . S
C1135 C1119 1.429 . S
C1135 C1131 1.429 . S
C1135 C1136 1.523 . S
C1136 C1120 1.368 . S
C1136 C1132 1.368 . S
C1136 C1135 1.523 . S
H1137 C1112 0.950 . S
H1138 C1114 0.950 . S
H1139 C1115 0.949 . S
H1140 C1117 0.950 . S
H1141 C1119 0.950 . S
C428 C126 1.892 . S
C423 C8 1.917 . S
C458 C195 1.739 . S
C453 C22 1.729 . S
C488 C133 1.751 . S
C483 C30 1.774 . S
C518 C196 1.322 1_655 S
C513 C47 1.333 . S
C548 C249 1.841 . S
C543 C9 1.856 . S
C578 C285 1.802 . S
C573 C17 1.763 . S
C603 C34 1.591 . S
C608 C345 1.581 . S
C638 C408 1.488 . S
C633 C48 1.475 . S
C668 C248 1.930 . S
C663 C21 1.966 . S
C693 C35 1.889 . S
C698 C292 1.903 . S
C728 C338 1.256 . S
C723 C43 1.212 . S
C758 C407 1.586 . S
C753 C4 1.531 . S
C783 C56 1.496 . S
C788 C186 1.524 . S
C818 C143 1.762 . S
C813 C73 1.795 . S
C843 C87 1.752 . S
C848 C179 1.744 . S
C873 C100 2.044 . S
C878 C142 2.017 . S
C908 C354 1.640 . S
C903 C60 1.656 . S
C938 C398 1.369 . S
C933 C69 1.324 . S
C968 C232 1.942 . S
C963 C86 1.977 . S
C993 C95 1.504 . S
C998 C301 1.577 . S
C1028 C355 1.612 . S
C1023 C74 1.619 . S
C1058 C391 1.367 . S
C1053 C82 1.311 . S
C1088 C239 2.065 . S
C1083 C99 2.088 . S
C1113 C61 1.697 . S
C1118 C302 1.711 . S
