# Generated by pormake.
# Topology pth, (4,4)-cn, num edge types: 1
# Building blocks:
#     Node 0, Type 0, BuildingBlock: TATPOV_clean_sbu_0, # of connection points: 4
#     Node 1, Type 0, BuildingBlock: TATPOV_clean_sbu_0, # of connection points: 4
#     Node 2, Type 0, BuildingBlock: TATPOV_clean_sbu_0, # of connection points: 4
#     Node 3, Type 1, BuildingBlock: AZAVOO_clean_linker_0, # of connection points: 4
#     Node 4, Type 1, BuildingBlock: AZAVOO_clean_linker_0, # of connection points: 4
#     Node 5, Type 1, BuildingBlock: AZAVOO_clean_linker_0, # of connection points: 4
#     Edge 6, Type (0, 1), BuildingBlock: MIFKUJ_clean_linker_0, # of connection points: 2
#     Edge 7, Type (0, 1), BuildingBlock: MIFKUJ_clean_linker_0, # of connection points: 2
#     Edge 8, Type (0, 1), BuildingBlock: MIFKUJ_clean_linker_0, # of connection points: 2
#     Edge 9, Type (0, 1), BuildingBlock: MIFKUJ_clean_linker_0, # of connection points: 2
#     Edge 10, Type (0, 1), BuildingBlock: MIFKUJ_clean_linker_0, # of connection points: 2
#     Edge 11, Type (0, 1), BuildingBlock: MIFKUJ_clean_linker_0, # of connection points: 2
#     Edge 12, Type (0, 1), BuildingBlock: MIFKUJ_clean_linker_0, # of connection points: 2
#     Edge 13, Type (0, 1), BuildingBlock: MIFKUJ_clean_linker_0, # of connection points: 2
#     Edge 14, Type (0, 1), BuildingBlock: MIFKUJ_clean_linker_0, # of connection points: 2
#     Edge 15, Type (0, 1), BuildingBlock: MIFKUJ_clean_linker_0, # of connection points: 2
#     Edge 16, Type (0, 1), BuildingBlock: MIFKUJ_clean_linker_0, # of connection points: 2
#     Edge 17, Type (0, 1), BuildingBlock: MIFKUJ_clean_linker_0, # of connection points: 2
# Relax obj value: 0.142
# Max RMSD: 0.230
# Mean RMSD: 0.204
data_MOF--net-pth--node1-TATPOV_clean_sbu_0--node2-AZAVOO_clean_linker_0--edge1-MIFKUJ_clean_linker_0
_symmetry_space_group_name_H-M    P1
_symmetry_Int_Tables_number       1
_symmetry_cell_setting            triclinic
loop_
_symmetry_equiv_pos_as_xyz
'x, y, z'
_cell_length_a     33.156186
_cell_length_b     32.93903
_cell_length_c     86.658402
_cell_angle_alpha  94.108165
_cell_angle_beta   91.44278
_cell_angle_gamma 121.16421
loop_
_atom_site_label
_atom_site_type_symbol
_atom_site_fract_x
_atom_site_fract_y
_atom_site_fract_z
_atom_type_partial_charge
Zn0 Zn 0.16565 0.00594 0.06743 0.0
Zn1 Zn 0.14596 0.07192 0.07793 0.0
O2 O 0.1333 0.02943 0.09562 0.0
O3 O 0.14259 0.97102 0.08639 0.0
O4 O 0.13262 0.12029 0.08802 0.0
O5 O 0.23404 0.0578 0.06666 0.0
O6 O 0.21501 0.1116 0.07266 0.0
C7 C 0.13186 0.99063 0.09726 0.0
C8 C 0.09472 0.00895 0.04803 0.0
O9 O 0.09948 0.04058 0.05853 0.0
O10 O 0.11954 0.99009 0.04911 0.0
C11 C 0.09306 0.10548 0.09381 0.0
O12 O 0.061 0.05971 0.09182 0.0
C13 C 0.24555 0.10103 0.06879 0.0
Zn14 Zn 0.12312 0.07219 0.38988 0.0
Zn15 Zn 0.05828 0.04939 0.41104 0.0
O16 O 0.1211 0.07552 0.42371 0.0
O17 O 0.17467 0.09227 0.4068 0.0
O18 O 0.01418 0.03661 0.42795 0.0
O19 O 0.10808 0.11992 0.3828 0.0
O20 O 0.05129 0.09702 0.39881 0.0
C21 C 0.16369 0.09039 0.42073 0.0
C22 C 0.04871 0.97217 0.38714 0.0
O23 O 0.03456 0.98405 0.3992 0.0
O24 O 0.08437 0.00326 0.38081 0.0
C25 C 0.96971 0.00819 0.42628 0.0
O26 O 0.94994 0.98494 0.41264 0.0
C27 C 0.07446 0.1228 0.38823 0.0
Zn28 Zn 0.13597 0.00211 0.77378 0.0
Zn29 Zn 0.08377 0.00553 0.75018 0.0
O30 O 0.12708 0.98761 0.73912 0.0
O31 O 0.16816 0.98159 0.75824 0.0
O32 O 0.04165 0.00498 0.733 0.0
O33 O 0.07789 0.9551 0.78346 0.0
O34 O 0.03527 0.95726 0.76397 0.0
C35 C 0.15865 0.97939 0.74384 0.0
C36 C 0.14936 0.09542 0.7715 0.0
O37 O 0.12015 0.07515 0.75966 0.0
O38 O 0.16119 0.07192 0.77944 0.0
C39 C 0.05607 0.03791 0.72402 0.0
O40 O 0.10044 0.07301 0.72565 0.0
C41 C 0.03804 0.94163 0.77674 0.0
H42 H 0.04609 0.53345 0.14548 0.0
H43 H 0.04284 0.79515 0.29894 0.0
H44 H 0.96014 0.43155 0.22027 0.0
H45 H 0.96826 0.37389 0.2034 0.0
H46 H 0.10769 0.42806 0.22529 0.0
H47 H 0.09939 0.48636 0.24199 0.0
H48 H 0.97333 0.52407 0.20677 0.0
H49 H 0.99079 0.52509 0.17948 0.0
H50 H 0.13202 0.55898 0.19321 0.0
H51 H 0.11423 0.55841 0.22046 0.0
H52 H 0.95757 0.58862 0.22806 0.0
H53 H 0.96611 0.65442 0.214 0.0
H54 H 0.11784 0.71955 0.218 0.0
H55 H 0.10893 0.65336 0.23195 0.0
H56 H 0.93805 0.57334 0.26419 0.0
H57 H 0.93228 0.63647 0.27871 0.0
H58 H 0.08353 0.73107 0.27841 0.0
H59 H 0.0889 0.66724 0.26425 0.0
H60 H 0.92822 0.48753 0.27559 0.0
H61 H 0.90694 0.50425 0.30116 0.0
H62 H 0.05386 0.60974 0.31386 0.0
H63 H 0.07457 0.59286 0.28838 0.0
H64 H 0.94684 0.41142 0.25816 0.0
H65 H 0.94384 0.35641 0.27646 0.0
H66 H 0.08624 0.46212 0.29458 0.0
H67 H 0.0891 0.51584 0.27609 0.0
O68 O 0.04 0.53346 0.15635 0.0
O69 O 0.11211 0.5506 0.16402 0.0
O70 O 0.96624 0.72008 0.29256 0.0
O71 O 0.04397 0.76986 0.29294 0.0
C72 C 0.0268 0.50269 0.24049 0.0
C73 C 0.03175 0.54012 0.2321 0.0
C74 C 0.02733 0.57701 0.23954 0.0
C75 C 0.01773 0.5765 0.25528 0.0
C76 C 0.01333 0.53943 0.26368 0.0
C77 C 0.0186 0.50299 0.25637 0.0
C78 C 0.02912 0.46294 0.23234 0.0
C79 C 0.992 0.43022 0.22164 0.0
C80 C 0.9967 0.39727 0.21204 0.0
C81 C 0.03873 0.39655 0.21296 0.0
C82 C 0.07512 0.42813 0.22419 0.0
C83 C 0.07029 0.46105 0.23384 0.0
C84 C 0.04252 0.54118 0.21555 0.0
C85 C 0.00807 0.53194 0.20385 0.0
C86 C 0.01812 0.53243 0.18827 0.0
C87 C 0.0628 0.54208 0.18415 0.0
C88 C 0.09726 0.5514 0.19597 0.0
C89 C 0.08718 0.55103 0.21153 0.0
C90 C 0.03263 0.61634 0.23088 0.0
C91 C 0.99257 0.6171 0.22585 0.0
C92 C 0.9975 0.65454 0.21787 0.0
C93 C 0.04262 0.69198 0.21501 0.0
C94 C 0.08273 0.69132 0.22023 0.0
C95 C 0.07772 0.65354 0.22805 0.0
C96 C 0.01387 0.61577 0.26319 0.0
C97 C 0.96985 0.60776 0.26726 0.0
C98 C 0.96667 0.64388 0.27554 0.0
C99 C 0.00748 0.68884 0.27974 0.0
C100 C 0.05143 0.6969 0.27537 0.0
C101 C 0.05459 0.6606 0.26722 0.0
C102 C 0.00282 0.53932 0.28018 0.0
C103 C 0.95592 0.51282 0.28416 0.0
C104 C 0.94383 0.52253 0.2987 0.0
C105 C 0.97866 0.5585 0.30945 0.0
C106 C 0.02628 0.58144 0.30592 0.0
C107 C 0.03823 0.57202 0.29135 0.0
C108 C 0.0183 0.46725 0.26579 0.0
C109 C 0.97759 0.42204 0.26589 0.0
C110 C 0.97581 0.39102 0.27644 0.0
C111 C 0.01477 0.40497 0.28699 0.0
C112 C 0.0559 0.44994 0.28647 0.0
C113 C 0.05762 0.48074 0.27595 0.0
C114 C 0.07331 0.54235 0.1676 0.0
C115 C 0.00444 0.72709 0.28876 0.0
H116 H 0.57495 0.99462 0.48141 0.0
H117 H 0.38588 0.15266 0.61873 0.0
H118 H 0.59306 0.96344 0.56604 0.0
H119 H 0.64226 0.94421 0.55034 0.0
H120 H 0.75649 0.09147 0.55799 0.0
H121 H 0.70744 0.10966 0.57423 0.0
H122 H 0.52494 0.98593 0.54586 0.0
H123 H 0.53323 0.97697 0.51803 0.0
H124 H 0.66501 0.11292 0.52277 0.0
H125 H 0.65597 0.12158 0.55055 0.0
H126 H 0.45778 0.01315 0.5644 0.0
H127 H 0.41136 0.02784 0.54564 0.0
H128 H 0.53662 0.16099 0.53771 0.0
H129 H 0.58267 0.1461 0.55654 0.0
H130 H 0.4627 0.0053 0.60005 0.0
H131 H 0.40304 0.01897 0.61107 0.0
H132 H 0.4844 0.16631 0.60129 0.0
H133 H 0.54424 0.15233 0.59054 0.0
H134 H 0.53746 0.98537 0.61533 0.0
H135 H 0.49741 0.9758 0.63932 0.0
H136 H 0.54647 0.12603 0.64399 0.0
H137 H 0.58728 0.13556 0.62013 0.0
H138 H 0.61498 0.9765 0.59839 0.0
H139 H 0.67389 0.97386 0.61521 0.0
H140 H 0.73478 0.12305 0.63083 0.0
H141 H 0.6768 0.12563 0.61358 0.0
O142 O 0.57212 -0.00089 0.4924 0.0
O143 O 0.63971 0.06914 0.49547 0.0
O144 O 0.36894 0.07045 0.61947 0.0
O145 O 0.40869 0.14615 0.61428 0.0
C146 C 0.61361 0.05097 0.57756 0.0
C147 C 0.5854 0.05871 0.56713 0.0
C148 C 0.55194 0.06914 0.57277 0.0
C149 C 0.54538 0.07008 0.58877 0.0
C150 C 0.57417 0.063 0.59926 0.0
C151 C 0.60893 0.05434 0.59367 0.0
C152 C 0.64682 0.03787 0.57122 0.0
C153 C 0.62927 0.99109 0.56472 0.0
C154 C 0.65724 0.98037 0.55561 0.0
C155 C 0.70303 0.01648 0.55266 0.0
C156 C 0.72156 0.06271 0.56011 0.0
C157 C 0.69365 0.07326 0.56938 0.0
C158 C 0.58992 0.0543 0.55018 0.0
C159 C 0.55541 0.01381 0.54082 0.0
C160 C 0.56032 0.00875 0.52495 0.0
C161 C 0.59987 0.04416 0.51818 0.0
C162 C 0.63418 0.08493 0.52761 0.0
C163 C 0.62916 0.08997 0.54347 0.0
C164 C 0.52347 0.07859 0.5618 0.0
C165 C 0.47499 0.04566 0.55871 0.0
C166 C 0.4486 0.05418 0.54805 0.0
C167 C 0.47046 0.09556 0.54023 0.0
C168 C 0.51901 0.12861 0.54345 0.0
C169 C 0.54527 0.12024 0.5542 0.0
C170 C 0.50784 0.07787 0.59456 0.0
C171 C 0.46751 0.04047 0.60028 0.0
C172 C 0.43349 0.04837 0.60656 0.0
C173 C 0.43901 0.09379 0.6071 0.0
C174 C 0.4791 0.13095 0.60108 0.0
C175 C 0.51323 0.12304 0.59487 0.0
C176 C 0.56466 0.06101 0.6159 0.0
C177 C 0.54147 0.01663 0.62193 0.0
C178 C 0.51846 0.01118 0.63559 0.0
C179 C 0.5182 0.05004 0.64329 0.0
C180 C 0.54571 0.09545 0.63812 0.0
C181 C 0.56923 0.10098 0.62459 0.0
C182 C 0.64199 0.05136 0.60467 0.0
C183 C 0.64111 0.00854 0.60545 0.0
C184 C 0.67453 0.00705 0.61515 0.0
C185 C 0.70923 0.04836 0.62429 0.0
C186 C 0.70908 0.09085 0.62375 0.0
C187 C 0.67577 0.09231 0.61401 0.0
C188 C 0.60526 0.03842 0.50135 0.0
C189 C 0.40333 0.10255 0.61398 0.0
H190 H 0.68958 0.61043 0.01711 0.0
H191 H 0.39511 0.20579 0.89403 0.0
H192 H 0.62281 0.63164 0.93927 0.0
H193 H 0.68555 0.71192 0.9491 0.0
H194 H 0.78314 0.69668 0.92061 0.0
H195 H 0.72051 0.61514 0.91156 0.0
H196 H 0.57478 0.54383 0.95812 0.0
H197 H 0.61104 0.57032 0.98467 0.0
H198 H 0.74162 0.5894 0.96855 0.0
H199 H 0.70472 0.56224 0.94208 0.0
H200 H 0.49388 0.44593 0.94082 0.0
H201 H 0.468 0.39415 0.96185 0.0
H202 H 0.60175 0.4009 0.96419 0.0
H203 H 0.62734 0.45274 0.94305 0.0
H204 H 0.46398 0.43596 0.90572 0.0
H205 H 0.40121 0.35286 0.89879 0.0
H206 H 0.50278 0.30912 0.90458 0.0
H207 H 0.56528 0.39242 0.91131 0.0
H208 H 0.5134 0.52613 0.88855 0.0
H209 H 0.47121 0.49792 0.86291 0.0
H210 H 0.54007 0.41852 0.85308 0.0
H211 H 0.58006 0.44509 0.87913 0.0
H212 H 0.61081 0.63268 0.90109 0.0
H213 H 0.64822 0.68621 0.88072 0.0
H214 H 0.69029 0.59119 0.86057 0.0
H215 H 0.65487 0.53923 0.88116 0.0
O216 O 0.67594 0.60006 0.00654 0.0
O217 O 0.74238 0.6097 0.99763 0.0
O218 O 0.36853 0.26335 0.89378 0.0
O219 O 0.41929 0.23899 0.8967 0.0
C220 C 0.63033 0.5667 0.92057 0.0
C221 C 0.61486 0.53451 0.9321 0.0
C222 C 0.57869 0.48641 0.92827 0.0
C223 C 0.55728 0.47066 0.91302 0.0
C224 C 0.57285 0.50286 0.90153 0.0
C225 C 0.61015 0.55049 0.90519 0.0
C226 C 0.66725 0.61746 0.92484 0.0
C227 C 0.6577 0.64586 0.93508 0.0
C228 C 0.69354 0.69197 0.94054 0.0
C229 C 0.73958 0.71083 0.93571 0.0
C230 C 0.74832 0.68302 0.92478 0.0
C231 C 0.71254 0.63659 0.91948 0.0
C232 C 0.63711 0.55108 0.9482 0.0
C233 C 0.61115 0.55359 0.96037 0.0
C234 C 0.63199 0.56883 0.97551 0.0
C235 C 0.67924 0.58198 0.97874 0.0
C236 C 0.70517 0.57954 0.96647 0.0
C237 C 0.68423 0.56416 0.95134 0.0
C238 C 0.56237 0.45291 0.94042 0.0
C239 C 0.51732 0.43572 0.94575 0.0
C240 C 0.50264 0.40617 0.95774 0.0
C241 C 0.5329 0.39349 0.96464 0.0
C242 C 0.57792 0.41048 0.95918 0.0
C243 C 0.59246 0.43983 0.9471 0.0
C244 C 0.51914 0.42016 0.90898 0.0
C245 C 0.47259 0.40837 0.90542 0.0
C246 C 0.43682 0.36088 0.90151 0.0
C247 C 0.44699 0.32432 0.90113 0.0
C248 C 0.49372 0.33636 0.90476 0.0
C249 C 0.52947 0.38388 0.90863 0.0
C250 C 0.54924 0.48717 0.88568 0.0
C251 C 0.51933 0.50272 0.88079 0.0
C252 C 0.49575 0.487 0.86606 0.0
C253 C 0.50221 0.45592 0.85587 0.0
C254 C 0.5336 0.44176 0.8607 0.0
C255 C 0.55658 0.45693 0.87554 0.0
C256 C 0.63013 0.58208 0.89258 0.0
C257 C 0.62803 0.62349 0.89224 0.0
C258 C 0.64909 0.65377 0.88062 0.0
C259 C 0.6715 0.64234 0.86903 0.0
C260 C 0.67241 0.60027 0.8692 0.0
C261 C 0.65233 0.57068 0.88096 0.0
C262 C 0.70125 0.5981 0.99484 0.0
C263 C 0.40912 0.2738 0.89698 0.0
H264 H 0.01383 0.0844 0.10875 0.0
H265 H 0.00454 0.13552 0.12832 0.0
H266 H 0.14574 0.25101 0.12249 0.0
H267 H 0.15557 0.19995 0.10298 0.0
H268 H 0.13121 0.23767 0.15269 0.0
H269 H 0.05022 0.25405 0.10923 0.0
H270 H 0.9921 0.22638 0.08675 0.0
H271 H 0.87869 0.15458 0.11629 0.0
H272 H 0.93618 0.18128 0.13894 0.0
H273 H 0.11723 0.41933 0.19737 0.0
H274 H 0.12634 0.37001 0.17701 0.0
H275 H 0.98451 0.25423 0.18192 0.0
H276 H 0.97519 0.30339 0.20236 0.0
H277 H -0.00028 0.26843 0.152 0.0
H278 H 0.08007 0.25069 0.19532 0.0
H279 H 0.13773 0.27768 0.2179 0.0
H280 H 0.2518 0.35104 0.18872 0.0
H281 H 0.19475 0.32504 0.16598 0.0
C282 C 0.04273 0.12086 0.11147 0.0
C283 C 0.0855 0.13804 0.10432 0.0
C284 C 0.03729 0.15009 0.12264 0.0
C285 C 0.0744 0.19714 0.12683 0.0
C286 C 0.1167 0.21478 0.11944 0.0
C287 C 0.12216 0.1856 0.10825 0.0
C288 C 0.06995 0.22703 0.13951 0.0
C289 C 0.1029 0.24506 0.15243 0.0
C290 C 0.03221 0.23546 0.13936 0.0
C291 C 0.99755 0.21929 0.12576 0.0
C292 C 0.01291 0.23201 0.11092 0.0
C293 C 0.98007 0.21657 0.09815 0.0
C294 C 0.93174 0.18863 0.10008 0.0
C295 C 0.91614 0.17617 0.11481 0.0
C296 C 0.94884 0.19148 0.12762 0.0
C297 C 0.08829 0.38305 0.19433 0.0
C298 C 0.04553 0.3652 0.20152 0.0
C299 C 0.0935 0.35495 0.18265 0.0
C300 C 0.05619 0.30832 0.178 0.0
C301 C 0.01369 0.29017 0.18529 0.0
C302 C 0.00842 0.31829 0.19696 0.0
C303 C 0.06098 0.27907 0.16517 0.0
C304 C 0.02808 0.26112 0.15224 0.0
C305 C 0.0987 0.2706 0.16532 0.0
C306 C 0.13309 0.28631 0.17897 0.0
C307 C 0.11743 0.27292 0.19374 0.0
C308 C 0.15001 0.28797 0.20656 0.0
C309 C 0.19839 0.31616 0.20476 0.0
C310 C 0.2143 0.32926 0.19011 0.0
C311 C 0.18186 0.31434 0.17724 0.0
H312 H 0.22356 0.32776 0.2147 0.0
H313 H 0.90638 0.17673 0.09018 0.0
H314 H 0.87346 0.95262 0.42689 0.0
H315 H 0.82597 0.94606 0.44881 0.0
H316 H 0.95279 0.0445 0.47757 0.0
H317 H 0.00048 0.05081 0.45586 0.0
H318 H 0.89156 0.9707 0.49314 0.0
H319 H 0.88574 0.08224 0.46127 0.0
H320 H 0.87058 0.10844 0.43699 0.0
H321 H 0.7249 0.99568 0.43454 0.0
H322 H 0.73937 0.96841 0.45872 0.0
H323 H 0.7984 0.05096 0.55296 0.0
H324 H 0.84154 0.04203 0.53182 0.0
H325 H 0.71008 0.95127 0.50422 0.0
H326 H 0.66708 0.96207 0.52488 0.0
H327 H 0.77091 0.01591 0.48779 0.0
H328 H 0.77506 0.9071 0.52062 0.0
H329 H 0.78998 0.88127 0.54502 0.0
H330 H 0.93758 0.98774 0.54584 0.0
H331 H 0.92345 0.01467 0.52155 0.0
C332 C 0.89125 0.97269 0.4379 0.0
C333 C 0.94072 0.00251 0.43959 0.0
C334 C 0.86407 0.96896 0.4504 0.0
C335 C 0.88587 0.99519 0.46477 0.0
C336 C 0.93527 0.02395 0.46659 0.0
C337 C 0.96244 0.02767 0.45413 0.0
C338 C 0.85731 0.99417 0.47778 0.0
C339 C 0.8654 0.98091 0.49204 0.0
C340 C 0.82252 0.00652 0.47621 0.0
C341 C 0.81376 0.02297 0.4617 0.0
C342 C 0.85057 0.0628 0.45549 0.0
C343 C 0.84208 0.07789 0.44176 0.0
C344 C 0.79684 0.05366 0.4342 0.0
C345 C 0.75995 0.01436 0.44039 0.0
C346 C 0.76826 -0.0009 0.45411 0.0
C347 C 0.77868 0.02901 0.5424 0.0
C348 C 0.72925 0.00712 0.54066 0.0
C349 C 0.80334 0.0235 0.53039 0.0
C350 C 0.77899 0.99555 0.51648 0.0
C351 C 0.7296 0.97284 0.51486 0.0
C352 C 0.70501 0.97863 0.52679 0.0
C353 C 0.80505 0.99243 0.50323 0.0
C354 C 0.79665 0.00515 0.48891 0.0
C355 C 0.83944 0.97948 0.50476 0.0
C356 C 0.84811 0.96316 0.51933 0.0
C357 C 0.81065 0.92524 0.52606 0.0
C358 C 0.81897 0.91036 0.53986 0.0
C359 C 0.86468 0.93292 0.54699 0.0
C360 C 0.90218 0.97032 0.54031 0.0
C361 C 0.89405 0.98537 0.52652 0.0
H362 H 0.87104 0.92136 0.55768 0.0
H363 H 0.79034 0.0654 0.42358 0.0
H364 H 0.02888 0.94003 0.80757 0.0
H365 H 0.95903 0.88881 0.82089 0.0
H366 H 0.88055 0.82 0.77682 0.0
H367 H 0.95034 0.87385 0.76334 0.0
H368 H 0.82506 0.82818 0.79547 0.0
H369 H 0.92612 0.76717 0.80003 0.0
H370 H 0.00022 0.76848 0.80534 0.0
H371 H 0.00592 0.81754 0.85307 0.0
H372 H 0.9322 0.81717 0.848 0.0
H373 H 0.66538 0.62321 0.83761 0.0
H374 H 0.71984 0.6753 0.81935 0.0
H375 H 0.79293 0.7878 0.85654 0.0
H376 H 0.7383 0.73626 0.87476 0.0
H377 H 0.846 0.74932 0.83903 0.0
H378 H 0.74086 0.80977 0.83221 0.0
H379 H 0.66351 0.80006 0.82537 0.0
H380 H 0.66147 0.73914 0.77964 0.0
H381 H 0.73854 0.74784 0.78629 0.0
C382 C 0.99676 0.91394 0.80071 0.0
C383 C 0.99508 0.91027 0.78445 0.0
C384 C 0.95686 0.88453 0.80833 0.0
C385 C 0.91489 0.84947 0.79988 0.0
C386 C 0.91268 0.8465 0.78358 0.0
C387 C 0.95248 0.87704 0.7759 0.0
C388 C 0.87393 0.81603 0.80826 0.0
C389 C 0.82952 0.81036 0.80483 0.0
C390 C 0.87949 0.79243 0.82045 0.0
C391 C 0.92375 0.79243 0.8236 0.0
C392 C 0.94332 0.77851 0.81164 0.0
C393 C 0.98524 0.77906 0.81461 0.0
C394 C 0.0078 0.79316 0.82953 0.0
C395 C 0.98841 0.80664 0.84151 0.0
C396 C 0.94652 0.8062 0.8386 0.0
C397 C 0.69235 0.6595 0.84175 0.0
C398 C 0.69786 0.67589 0.85754 0.0
C399 C 0.72321 0.68912 0.83135 0.0
C400 C 0.76017 0.73517 0.83668 0.0
C401 C 0.76431 0.75236 0.85227 0.0
C402 C 0.73306 0.72306 0.86262 0.0
C403 C 0.79813 0.76311 0.82657 0.0
C404 C 0.84177 0.76713 0.82961 0.0
C405 C 0.79135 0.78383 0.81381 0.0
C406 C 0.74522 0.77896 0.80981 0.0
C407 C 0.72371 0.79386 0.82075 0.0
C408 C 0.67996 0.78865 0.81689 0.0
C409 C 0.65751 0.76886 0.8021 0.0
C410 C 0.67885 0.75439 0.79111 0.0
C411 C 0.72259 0.7595 0.79491 0.0
H412 H 0.62364 0.76484 0.79914 0.0
H413 H 0.04027 0.79358 0.8318 0.0
H414 H 0.08942 0.89649 0.101 0.0
H415 H 0.06986 0.85928 0.12531 0.0
H416 H 0.12482 0.99697 0.15083 0.0
H417 H 0.14309 0.03456 0.12638 0.0
H418 H 0.16116 0.92492 0.15774 0.0
H419 H 0.02975 0.94819 0.15585 0.0
H420 H 0.96127 0.94618 0.14316 0.0
H421 H 0.89199 0.79439 0.13293 0.0
H422 H 0.96044 0.79559 0.14533 0.0
H423 H 0.10058 0.78799 0.22235 0.0
H424 H 0.11222 0.8516 0.20655 0.0
H425 H 0.00912 0.74607 0.17152 0.0
H426 H 0.99643 0.68286 0.18748 0.0
H427 H -0.00078 0.81953 0.17388 0.0
H428 H 0.13151 0.79601 0.16987 0.0
H429 H 0.20022 0.79315 0.17988 0.0
H430 H 0.26796 0.93971 0.19854 0.0
H431 H 0.19931 0.94322 0.18879 0.0
C432 C 0.0969 0.9188 0.11177 0.0
C433 C 0.11792 0.96835 0.11186 0.0
C434 C 0.08554 0.89752 0.12559 0.0
C435 C 0.09579 0.92552 0.13974 0.0
C436 C 0.11643 0.97497 0.13994 0.0
C437 C 0.12677 0.99624 0.12603 0.0
C438 C 0.08781 0.90252 0.15423 0.0
C439 C 0.12603 0.90293 0.16165 0.0
C440 C 0.04174 0.87303 0.15887 0.0
C441 C 0.00044 0.87207 0.15141 0.0
C442 C 0.00014 0.91445 0.15075 0.0
C443 C 0.96127 0.91344 0.14364 0.0
C444 C 0.92234 0.8702 0.13721 0.0
C445 C 0.92218 0.82786 0.13791 0.0
C446 C 0.96099 0.82869 0.14499 0.0
C447 C 0.08024 0.77862 0.21132 0.0
C448 C 0.04781 0.73068 0.20605 0.0
C449 C 0.08687 0.81487 0.20232 0.0
C450 C 0.06199 0.80356 0.18776 0.0
C451 C 0.02856 0.7557 0.18274 0.0
C452 C 0.0214 0.7196 0.19183 0.0
C453 C 0.07249 0.84077 0.1772 0.0
C454 C 0.03468 0.84272 0.17041 0.0
C455 C 0.11891 0.87181 0.1729 0.0
C456 C 0.16006 0.86967 0.17881 0.0
C457 C 0.1609 0.82749 0.17622 0.0
C458 C 0.19985 0.82577 0.18183 0.0
C459 C 0.23835 0.86617 0.1899 0.0
C460 C 0.23804 0.90841 0.19233 0.0
C461 C 0.19914 0.91028 0.18678 0.0
H462 H 0.26849 0.86479 0.19422 0.0
H463 H 0.89227 0.86949 0.13172 0.0
H464 H 0.25752 0.12267 0.41859 0.0
H465 H 0.31459 0.13365 0.43931 0.0
H466 H 0.20835 0.09508 0.47234 0.0
H467 H 0.15114 0.08464 0.45174 0.0
H468 H 0.29465 0.16769 0.48461 0.0
H469 H 0.2294 0.01279 0.45666 0.0
H470 H 0.20822 0.9559 0.43343 0.0
H471 H 0.35452 0.02248 0.42408 0.0
H472 H 0.37651 0.08024 0.44715 0.0
H473 H 0.38309 0.08401 0.54226 0.0
H474 H 0.33607 0.09317 0.52212 0.0
H475 H 0.44876 0.13432 0.49149 0.0
H476 H 0.4956 0.12445 0.51148 0.0
H477 H 0.36303 0.06508 0.47769 0.0
H478 H 0.42813 0.21665 0.50737 0.0
H479 H 0.4475 0.27135 0.53106 0.0
H480 H 0.29979 0.20875 0.53777 0.0
H481 H 0.27953 0.15317 0.51423 0.0
C482 C 0.2464 0.11709 0.43029 0.0
C483 C 0.19962 0.10222 0.43349 0.0
C484 C 0.27904 0.1233 0.4421 0.0
C485 C 0.2654 0.11441 0.45728 0.0
C486 C 0.21949 0.10198 0.46067 0.0
C487 C 0.18682 0.09587 0.44887 0.0
C488 C 0.29797 0.11501 0.46939 0.0
C489 C 0.30936 0.14503 0.48317 0.0
C490 C 0.31765 0.08593 0.46737 0.0
C491 C 0.30454 0.05116 0.45352 0.0
C492 C 0.25701 0.01554 0.44957 0.0
C493 C 0.24487 0.9831 0.43645 0.0
C494 C 0.27998 0.98566 0.42726 0.0
C495 C 0.32735 0.0206 0.4312 0.0
C496 C 0.33968 0.05318 0.4443 0.0
C497 C 0.3978 0.09508 0.53124 0.0
C498 C 0.44294 0.10351 0.52841 0.0
C499 C 0.37114 0.1007 0.51981 0.0
C500 C 0.38918 0.11482 0.50538 0.0
C501 C 0.43437 0.12363 0.50258 0.0
C502 C 0.46115 0.11825 0.51403 0.0
C503 C 0.35981 0.11779 0.49292 0.0
C504 C 0.3488 0.08818 0.47908 0.0
C505 C 0.34028 0.14699 0.49497 0.0
C506 C 0.35233 0.18045 0.50911 0.0
C507 C 0.39978 0.21427 0.51397 0.0
C508 C 0.41092 0.24549 0.52736 0.0
C509 C 0.3749 0.24345 0.53594 0.0
C510 C 0.32766 0.21025 0.53112 0.0
C511 C 0.31632 0.17891 0.51775 0.0
H512 H 0.3836 0.26766 0.5463 0.0
H513 H 0.27051 0.96051 0.41711 0.0
H514 H 0.17806 0.16534 0.75186 0.0
H515 H 0.23495 0.2508 0.75879 0.0
H516 H 0.23074 0.22636 0.80715 0.0
H517 H 0.17494 0.14167 0.80029 0.0
H518 H 0.24563 0.31632 0.80279 0.0
H519 H 0.30498 0.20952 0.78588 0.0
H520 H 0.30967 0.15524 0.76582 0.0
H521 H 0.35868 0.26328 0.7342 0.0
H522 H 0.35374 0.31795 0.75407 0.0
H523 H 0.46338 0.36504 0.84216 0.0
H524 H 0.40672 0.32744 0.81981 0.0
H525 H 0.41559 0.46044 0.81351 0.0
H526 H 0.47431 0.49938 0.8357 0.0
H527 H 0.40021 0.34094 0.78844 0.0
H528 H 0.29755 0.42649 0.80701 0.0
H529 H 0.29187 0.47342 0.82948 0.0
H530 H 0.32943 0.40036 0.86054 0.0
H531 H 0.33471 0.3527 0.83826 0.0
C532 C 0.18808 0.17872 0.76398 0.0
C533 C 0.17289 0.14714 0.77556 0.0
C534 C 0.22047 0.22741 0.76792 0.0
C535 C 0.23725 0.24473 0.78346 0.0
C536 C 0.2181 0.21379 0.79509 0.0
C537 C 0.18652 0.16534 0.79117 0.0
C538 C 0.28077 0.29154 0.78771 0.0
C539 C 0.2795 0.32291 0.79924 0.0
C540 C 0.32494 0.29996 0.78315 0.0
C541 C 0.32858 0.26751 0.77134 0.0
C542 C 0.3166 0.22155 0.77462 0.0
C543 C 0.31928 0.19075 0.7633 0.0
C544 C 0.33436 0.20576 0.74873 0.0
C545 C 0.34691 0.25167 0.74548 0.0
C546 C 0.34417 0.28256 0.75675 0.0
C547 C 0.45488 0.38701 0.83575 0.0
C548 C 0.47322 0.43524 0.84087 0.0
C549 C 0.42231 0.36533 0.82293 0.0
C550 C 0.40689 0.39114 0.81506 0.0
C551 C 0.42705 0.43995 0.81949 0.0
C552 C 0.46015 0.46192 0.83227 0.0
C553 C 0.36493 0.36448 0.80393 0.0
C554 C 0.36658 0.33673 0.7912 0.0
C555 C 0.3211 0.35898 0.80754 0.0
C556 C 0.31705 0.38659 0.821 0.0
C557 C 0.30445 0.42044 0.81865 0.0
C558 C 0.3013 0.44713 0.83134 0.0
C559 C 0.31045 0.44 0.84643 0.0
C560 C 0.32249 0.40596 0.84886 0.0
C561 C 0.32556 0.37911 0.83621 0.0
H562 H 0.30809 0.46076 0.85623 0.0
H563 H 0.33641 0.18187 0.73998 0.0
H564 H 0.07288 0.10647 0.70471 0.0
H565 H 0.01577 0.10827 0.68678 0.0
H566 H 0.90613 0.97194 0.69949 0.0
H567 H 0.96295 0.96958 0.71731 0.0
H568 H 0.9019 0.97686 0.66835 0.0
H569 H 0.91447 0.07283 0.71492 0.0
H570 H 0.95628 0.13778 0.73601 0.0
H571 H 0.00771 0.24095 0.70271 0.0
H572 H 0.96671 0.17652 0.6814 0.0
H573 H 0.69836 0.97886 0.64234 0.0
H574 H 0.75952 0.97732 0.6582 0.0
H575 H 0.86431 0.11426 0.64442 0.0
H576 H 0.80351 0.11586 0.6284 0.0
H577 H 0.87316 0.11046 0.67536 0.0
H578 H 0.85835 0.01488 0.6288 0.0
H579 H 0.81609 0.95007 0.6077 0.0
H580 H 0.76884 0.8464 0.64081 0.0
H581 H 0.81028 0.91068 0.66214 0.0
C582 C 0.03669 0.07672 0.70362 0.0
C583 C 0.0224 0.03801 0.71251 0.0
C584 C 0.00408 0.0779 0.69342 0.0
C585 C 0.95661 0.04049 0.69196 0.0
C586 C 0.94257 0.0012 0.70047 0.0
C587 C 0.9751 1e-05 0.71069 0.0
C588 C 0.92124 0.04269 0.68184 0.0
C589 C 0.89524 0.0058 0.66997 0.0
C590 C 0.91336 0.08102 0.68376 0.0
C591 C 0.93796 0.11982 0.69656 0.0
C592 C 0.93503 0.10934 0.71209 0.0
C593 C 0.95851 0.14606 0.72408 0.0
C594 C 0.98475 0.19345 0.7207 0.0
C595 C 0.98745 0.20422 0.70531 0.0
C596 C 0.96407 0.16762 0.69327 0.0
C597 C 0.73449 0.00844 0.64257 0.0
C598 C 0.74607 0.04745 0.63409 0.0
C599 C 0.76937 0.00755 0.65166 0.0
C600 C 0.81651 0.04549 0.65237 0.0
C601 C 0.82812 0.08467 0.64405 0.0
C602 C 0.79329 0.08559 0.63495 0.0
C603 C 0.85365 0.04451 0.66191 0.0
C604 C 0.87996 0.08163 0.67368 0.0
C605 C 0.86182 0.00641 0.65989 0.0
C606 C 0.83707 0.96764 0.64708 0.0
C607 C 0.83865 0.97829 0.63159 0.0
C608 C 0.81489 0.94164 0.61959 0.0
C609 C 0.7897 0.89415 0.62292 0.0
C610 C 0.78832 0.88321 0.63825 0.0
C611 C 0.81198 0.91973 0.6503 0.0
H612 H 0.77133 0.86583 0.61361 0.0
H613 H 0.0029 0.22183 0.73 0.0
H614 H 0.03111 0.03684 0.04177 0.0
H615 H 0.97233 0.00728 0.01954 0.0
H616 H 0.02165 0.91613 0.00171 0.0
H617 H 0.08032 0.94566 0.02348 0.0
H618 H 0.00462 0.95616 0.97869 0.0
H619 H 0.92457 0.87564 0.02378 0.0
H620 H 0.89766 0.87399 0.05015 0.0
H621 H 0.82369 0.94228 0.03637 0.0
H622 H 0.85066 0.94477 0.00996 0.0
H623 H 0.82949 0.73416 0.94421 0.0
H624 H 0.89095 0.80596 0.95935 0.0
H625 H 0.80033 0.86387 0.96029 0.0
H626 H 0.73861 0.7923 0.94459 0.0
H627 H 0.83535 0.86344 0.98935 0.0
H628 H 0.89827 0.91979 0.94176 0.0
H629 H 0.92329 0.91593 0.91542 0.0
H630 H 0.02864 0.88986 0.93356 0.0
H631 H 0.00383 0.8928 0.95998 0.0
C632 C 0.02958 0.01079 0.03303 0.0
C633 C 0.06017 0.99335 0.03447 0.0
C634 C 0.99602 0.99396 0.02035 0.0
C635 C 0.99251 0.95935 0.009 0.0
C636 C 0.02388 0.94303 0.01026 0.0
C637 C 0.05725 0.95976 0.02282 0.0
C638 C 0.95466 0.93721 0.99624 0.0
C639 C 0.96755 0.93608 0.98097 0.0
C640 C 0.90622 0.91246 -0.00085 0.0
C641 C 0.89015 0.91101 0.015 0.0
C642 C 0.90288 0.89064 0.02643 0.0
C643 C 0.88757 0.88949 0.04136 0.0
C644 C 0.85914 0.90819 0.04495 0.0
C645 C 0.84584 0.92794 0.03359 0.0
C646 C 0.86112 0.92924 0.01864 0.0
C647 C 0.82296 0.76268 0.94713 0.0
C648 C 0.77894 0.75729 0.94316 0.0
C649 C 0.85821 0.80376 0.95586 0.0
C650 C 0.85031 0.84038 0.96085 0.0
C651 C 0.8071 0.83601 0.95652 0.0
C652 C 0.77183 0.79497 0.94764 0.0
C653 C 0.88556 0.8803 0.97194 0.0
C654 C 0.8722 0.88486 0.9869 0.0
C655 C 0.93359 0.90786 0.96876 0.0
C656 C 0.94907 0.90645 0.95288 0.0
C657 C 0.92661 0.91297 0.94013 0.0
C658 C 0.94078 0.91097 0.92518 0.0
C659 C 0.97752 0.90264 0.92282 0.0
C660 C 0.00022 0.89637 0.93541 0.0
C661 C 0.98618 0.8983 0.95039 0.0
H662 H 0.98842 0.90108 0.91123 0.0
H663 H 0.8473 0.90725 0.05652 0.0
H664 H 0.04833 0.93806 0.35769 0.0
H665 H 0.0207 0.85594 0.348 0.0
H666 H 0.97201 0.81021 0.39287 0.0
H667 H -0.00168 0.89265 0.40252 0.0
H668 H 0.05618 0.80772 0.35756 0.0
H669 H 0.88628 0.68838 0.38773 0.0
H670 H 0.81816 0.69033 0.39769 0.0
H671 H 0.83339 0.7889 0.36514 0.0
H672 H 0.90118 0.78706 0.35487 0.0
H673 H 0.01813 0.58422 0.33935 0.0
H674 H 0.01365 0.64095 0.35801 0.0
H675 H 0.90685 0.63801 0.32767 0.0
H676 H 0.91089 0.58136 0.30912 0.0
H677 H 0.89887 0.66061 0.35866 0.0
H678 H 0.0165 0.70731 0.32087 0.0
H679 H 0.08138 0.70577 0.3081 0.0
H680 H 0.16659 0.75758 0.35123 0.0
H681 H 0.10171 0.75841 0.36434 0.0
C682 C 0.03101 0.91042 0.36542 0.0
C683 C 0.02586 0.92173 0.38089 0.0
C684 C 0.0153 0.86351 0.35989 0.0
C685 C 0.99465 0.82695 0.36974 0.0
C686 C 0.98746 0.83774 0.38502 0.0
C687 C 0.00258 0.88483 0.39052 0.0
C688 C 0.98483 0.77881 0.36421 0.0
C689 C 0.02179 0.77562 0.35793 0.0
C690 C 0.94004 0.73681 0.36468 0.0
C691 C 0.89916 0.73801 0.37068 0.0
C692 C 0.87501 0.71039 0.38269 0.0
C693 C 0.83647 0.71148 0.38838 0.0
C694 C 0.82158 0.73987 0.38209 0.0
C695 C 0.8451 0.7671 0.37005 0.0
C696 C 0.88364 0.76611 0.36431 0.0
C697 C 0.99234 0.59422 0.33699 0.0
C698 C 0.96539 0.57898 0.3227 0.0
C699 C 0.98967 0.62643 0.34767 0.0
C700 C 0.9606 0.64431 0.34405 0.0
C701 C 0.92945 0.6246 0.3307 0.0
C702 C 0.93185 0.59216 0.32007 0.0
C703 C 0.97012 0.69005 0.35196 0.0
C704 C 0.93337 0.69278 0.35865 0.0
C705 C 0.0148 0.73214 0.35151 0.0
C706 C 0.0541 0.73239 0.34361 0.0
C707 C 0.04898 0.71812 0.32764 0.0
C708 C 0.08573 0.71739 0.32033 0.0
C709 C 0.12805 0.73153 0.32884 0.0
C710 C 0.13373 0.74653 0.34466 0.0
C711 C 0.09697 0.74709 0.35204 0.0
H712 H 0.15646 0.73092 0.32316 0.0
H713 H 0.79175 0.74067 0.38652 0.0
H714 H 0.16777 -0.0005 0.71366 0.0
H715 H 0.22629 0.00169 0.69673 0.0
H716 H 0.27506 0.94665 0.73165 0.0
H717 H 0.21761 0.94605 0.74891 0.0
H718 H 0.34676 0.02015 0.72221 0.0
H719 H 0.21499 0.88003 0.69621 0.0
H720 H 0.1346 0.82873 0.68362 0.0
H721 H 0.16796 0.92502 0.64855 0.0
H722 H 0.24837 0.97728 0.66105 0.0
H723 H 0.50157 0.00022 0.66878 0.0
H724 H 0.43822 0.9803 0.68639 0.0
H725 H 0.39232 0.05907 0.66103 0.0
H726 H 0.45544 0.07929 0.64358 0.0
H727 H 0.31901 0.96494 0.66606 0.0
H728 H 0.4489 0.10767 0.69419 0.0
H729 H 0.52929 0.15711 0.70695 0.0
H730 H 0.49829 0.0507 0.73818 0.0
H731 H 0.41785 0.00029 0.72545 0.0
C732 C 0.19025 0.9869 0.71763 0.0
C733 C 0.18819 0.97278 0.73265 0.0
C734 C 0.22367 0.98801 0.70789 0.0
C735 C 0.25497 0.97403 0.71286 0.0
C736 C 0.25141 0.95775 0.72759 0.0
C737 C 0.21844 0.95726 0.73741 0.0
C738 C 0.29392 0.98041 0.70323 0.0
C739 C 0.34047 0.00709 0.71001 0.0
C740 C 0.28599 0.96415 0.68724 0.0
C741 C 0.23765 0.93276 0.67965 0.0
C742 C 0.20509 0.89046 0.68588 0.0
C743 C 0.15953 0.86117 0.67874 0.0
C744 C 0.14615 0.87366 0.66531 0.0
C745 C 0.17836 0.91541 0.65896 0.0
C746 C 0.22397 0.94484 0.66606 0.0
C747 C 0.47825 0.01368 0.66714 0.0
C748 C 0.48365 0.04173 0.65497 0.0
C749 C 0.44218 0.00229 0.67714 0.0
C750 C 0.41071 0.01823 0.67495 0.0
C751 C 0.41629 0.04646 0.66288 0.0
C752 C 0.45263 0.05839 0.65304 0.0
C753 C 0.37132 0.005 0.68504 0.0
C754 C 0.32488 0.97717 0.67833 0.0
C755 C 0.37927 0.0197 0.7011 0.0
C756 C 0.42759 0.04996 0.70875 0.0
C757 C 0.45938 0.0946 0.70368 0.0
C758 C 0.50492 0.12285 0.71093 0.0
C759 C 0.51895 0.10698 0.72333 0.0
C760 C 0.48741 0.06289 0.72855 0.0
C761 C 0.44184 0.03449 0.72133 0.0
H762 H 0.55421 0.12891 0.72894 0.0
H763 H 0.11086 0.85094 0.65981 0.0
H764 H 0.32398 0.09479 0.06563 0.0
H765 H 0.39611 0.15064 0.05392 0.0
H766 H 0.34428 0.24608 0.0503 0.0
H767 H 0.27326 0.19145 0.06251 0.0
H768 H 0.39708 0.16792 0.02604 0.0
H769 H 0.42676 0.35619 0.04595 0.0
H770 H 0.42821 0.40096 0.07021 0.0
H771 H 0.45782 0.31293 0.09671 0.0
H772 H 0.45728 0.26804 0.07261 0.0
H773 H 0.44739 0.31318 0.96687 0.0
H774 H 0.41951 0.26672 0.98906 0.0
H775 H 0.55562 0.35823 0.01401 0.0
H776 H 0.58344 0.40593 0.99187 0.0
H777 H 0.4861 0.34472 0.03184 0.0
H778 H 0.52293 0.24496 0.00184 0.0
H779 H 0.52663 0.20004 0.97847 0.0
H780 H 0.37528 0.11124 0.97437 0.0
H781 H 0.37057 0.15605 0.99758 0.0
C782 C 0.32866 0.12837 0.06275 0.0
C783 C 0.29274 0.13853 0.06482 0.0
C784 C 0.36989 0.16024 0.05606 0.0
C785 C 0.37575 0.20261 0.0512 0.0
C786 C 0.34122 0.21417 0.05421 0.0
C787 C 0.30033 0.18266 0.06111 0.0
C788 C 0.41349 0.23081 0.04086 0.0
C789 C 0.41712 0.20658 0.02746 0.0
C790 C 0.44082 0.28125 0.04288 0.0
C791 C 0.44181 0.30859 0.05743 0.0
C792 C 0.43396 0.34657 0.05694 0.0
C793 C 0.43452 0.37193 0.07067 0.0
C794 C 0.44304 0.35975 0.08499 0.0
C795 C 0.4511 0.32225 0.08561 0.0
C796 C 0.4506 0.29679 0.07191 0.0
C797 C 0.47143 0.32337 0.97706 0.0
C798 C 0.5175 0.36324 0.97767 0.0
C799 C 0.45565 0.29651 0.98967 0.0
C800 C 0.4857 0.3087 0.00311 0.0
C801 C 0.532 0.3481 0.00371 0.0
C802 C 0.54789 0.37506 0.99104 0.0
C803 C 0.46711 0.28163 0.01675 0.0
C804 C 0.4671 0.30607 0.0307 0.0
C805 C 0.44395 0.23135 0.01543 0.0
C806 C 0.44643 0.20402 0.00146 0.0
C807 C 0.4904 0.21604 0.99591 0.0
C808 C 0.49268 0.19056 0.98269 0.0
C809 C 0.45122 0.15283 0.97494 0.0
C810 C 0.40738 0.14045 0.9804 0.0
C811 C 0.40489 0.16583 0.99361 0.0
H812 H 0.45306 0.13315 0.96471 0.0
H813 H 0.44342 0.37941 0.09561 0.0
H814 H 0.12853 0.19619 0.37132 0.0
H815 H 0.10664 0.24637 0.35876 0.0
H816 H 0.97018 0.17401 0.37768 0.0
H817 H 0.99201 0.12304 0.39044 0.0
H818 H 0.96451 0.18013 0.34607 0.0
H819 H 0.04355 0.28661 0.39079 0.0
H820 H 0.10589 0.3313 0.41195 0.0
H821 H 0.20669 0.40567 0.37881 0.0
H822 H 0.14516 0.36093 0.35742 0.0
H823 H 0.94091 0.35183 0.3046 0.0
H824 H 0.93964 0.30492 0.32552 0.0
H825 H 0.08228 0.34244 0.31758 0.0
H826 H 0.08353 0.38834 0.29654 0.0
H827 H 0.06886 0.35605 0.34875 0.0
H828 H 0.99184 0.23503 0.30452 0.0
H829 H 0.92937 0.18955 0.28342 0.0
H830 H 0.82357 0.1431 0.31649 0.0
H831 H 0.88547 0.18885 0.33778 0.0
C832 C 0.09399 0.19112 0.37298 0.0
C833 C 0.06191 0.15552 0.38182 0.0
C834 C 0.08165 0.22011 0.36587 0.0
C835 C 0.03698 0.21422 0.36743 0.0
C836 C 0.00494 0.17923 0.37644 0.0
C837 C 0.0175 0.15031 0.38373 0.0
C838 C 0.02353 0.24268 0.35856 0.0
C839 C 0.98642 0.21873 0.34694 0.0
C840 C 0.05234 0.29296 0.35965 0.0
C841 C 0.08966 0.32023 0.37247 0.0
C842 C 0.07907 0.31226 0.38799 0.0
C843 C 0.11427 0.33765 0.40004 0.0
C844 C 0.16022 0.37128 0.39672 0.0
C845 C 0.17106 0.37963 0.38136 0.0
C846 C 0.13599 0.35432 0.36927 0.0
C847 C 0.97171 0.34942 0.30716 0.0
C848 C 0.0124 0.37389 0.29894 0.0
C849 C 0.97101 0.32294 0.31917 0.0
C850 C 0.01097 0.32055 0.32312 0.0
C851 C 0.05129 0.34435 0.31481 0.0
C852 C 0.05194 0.37055 0.30279 0.0
C853 C 0.01146 0.29326 0.33587 0.0
C854 C 0.04608 0.31759 0.34821 0.0
C855 C 0.98024 0.24343 0.33548 0.0
C856 C 0.94317 0.21581 0.3227 0.0
C857 C 0.95522 0.21544 0.30727 0.0
C858 C 0.91994 0.18956 0.29528 0.0
C859 C 0.87252 0.16359 0.29861 0.0
C860 C 0.8603 0.16332 0.31393 0.0
C861 C 0.89546 0.1892 0.32596 0.0
H862 H 0.84525 0.14357 0.28931 0.0
H863 H 0.18743 0.39089 0.40607 0.0
loop_
_geom_bond_atom_site_label_1
_geom_bond_atom_site_label_2
_geom_bond_distance
_geom_bond_site_symmetry_2
_ccdc_geom_bond_type
Zn0 O3 2.031 1_545 S
Zn0 O5 2.049 . S
Zn0 O10 2.067 . S
Zn1 O2 1.962 . S
Zn1 O4 1.986 . S
Zn1 O6 1.996 . S
Zn1 O9 1.943 . S
O2 Zn1 1.962 . S
O2 C7 1.254 . S
O3 Zn0 2.031 1_565 S
O3 C7 1.269 1_565 S
O4 Zn1 1.986 . S
O4 C11 1.262 . S
O5 Zn0 2.049 . S
O5 C13 1.260 . S
O6 Zn1 1.996 . S
O6 C13 1.257 . S
C7 O2 1.254 . S
C7 O3 1.269 1_545 S
C8 O9 1.249 . S
C8 O10 1.270 . S
O9 Zn1 1.943 . S
O9 C8 1.249 . S
O10 Zn0 2.067 . S
O10 C8 1.270 . S
C11 O4 1.262 . S
C11 O12 1.232 . S
O12 C11 1.232 . S
C13 O5 1.260 . S
C13 O6 1.257 . S
Zn14 O17 2.031 . S
Zn14 O19 2.049 . S
Zn14 O24 2.067 . S
Zn15 O16 1.962 . S
Zn15 O18 1.986 1_455 S
Zn15 O20 1.996 . S
Zn15 O23 1.943 1_545 S
O16 Zn15 1.962 . S
O16 C21 1.254 . S
O17 Zn14 2.031 . S
O17 C21 1.269 . S
O18 Zn15 1.986 1_655 S
O18 C25 1.262 . S
O19 Zn14 2.049 . S
O19 C27 1.260 . S
O20 Zn15 1.996 . S
O20 C27 1.257 . S
C21 O16 1.254 . S
C21 O17 1.269 . S
C22 O23 1.249 . S
C22 O24 1.270 1_565 S
O23 Zn15 1.943 1_565 S
O23 C22 1.249 . S
O24 Zn14 2.067 . S
O24 C22 1.270 1_545 S
C25 O18 1.262 . S
C25 O26 1.232 1_545 S
O26 C25 1.232 1_565 S
C27 O19 1.260 . S
C27 O20 1.257 . S
Zn28 O31 2.031 1_565 S
Zn28 O33 2.049 . S
Zn28 O38 2.067 1_565 S
Zn29 O30 1.962 . S
Zn29 O32 1.986 . S
Zn29 O34 1.996 1_545 S
Zn29 O37 1.943 . S
O30 Zn29 1.962 . S
O30 C35 1.254 . S
O31 Zn28 2.031 1_545 S
O31 C35 1.269 . S
O32 Zn29 1.986 . S
O32 C39 1.262 . S
O33 Zn28 2.049 . S
O33 C41 1.260 . S
O34 Zn29 1.996 1_565 S
O34 C41 1.257 . S
C35 O30 1.254 . S
C35 O31 1.269 . S
C36 O37 1.249 . S
C36 O38 1.270 . S
O37 Zn29 1.943 . S
O37 C36 1.249 . S
O38 Zn28 2.067 1_545 S
O38 C36 1.270 . S
C39 O32 1.262 . S
C39 O40 1.232 . S
O40 C39 1.232 . S
C41 O33 1.260 . S
C41 O34 1.257 . S
H42 O68 0.856 . S
H43 O71 0.854 . S
H44 C79 0.930 . S
H45 C80 0.930 1_655 S
H46 C82 0.930 . S
H47 C83 0.930 . S
H48 C85 0.931 . S
H49 C86 0.930 . S
H50 C88 0.930 . S
H51 C89 0.929 . S
H52 C91 0.930 . S
H53 C92 0.931 . S
H54 C94 0.930 . S
H55 C95 0.929 . S
H56 C97 0.931 . S
H57 C98 0.930 . S
H58 C100 0.930 . S
H59 C101 0.932 . S
H60 C103 0.930 1_655 S
H61 C104 0.929 1_655 S
H62 C106 0.931 . S
H63 C107 0.930 . S
H64 C109 0.929 . S
H65 C110 0.931 . S
H66 C112 0.930 . S
H67 C113 0.929 . S
O68 H42 0.856 . S
O68 C114 1.300 . S
O69 C114 1.209 . S
O70 C115 1.199 . S
O71 H43 0.854 . S
O71 C115 1.297 . S
C72 C73 1.404 . S
C72 C77 1.397 . S
C72 C78 1.492 . S
C73 C72 1.404 . S
C73 C74 1.396 . S
C73 C84 1.492 . S
C74 C73 1.396 . S
C74 C75 1.397 . S
C74 C90 1.509 . S
C75 C74 1.397 . S
C75 C76 1.412 . S
C75 C96 1.485 . S
C76 C75 1.412 . S
C76 C77 1.388 . S
C76 C102 1.490 . S
C77 C72 1.397 . S
C77 C76 1.388 . S
C77 C108 1.519 . S
C78 C72 1.492 . S
C78 C79 1.363 . S
C78 C83 1.390 . S
C79 H44 0.930 . S
C79 C78 1.363 . S
C79 C80 1.372 . S
C80 H45 0.930 1_455 S
C80 C79 1.372 . S
C80 C81 1.383 . S
C81 C80 1.383 . S
C81 C82 1.395 . S
C82 H46 0.930 . S
C82 C81 1.395 . S
C82 C83 1.362 . S
C83 H47 0.930 . S
C83 C78 1.390 . S
C83 C82 1.362 . S
C84 C73 1.492 . S
C84 C85 1.377 . S
C84 C89 1.397 . S
C85 H48 0.931 . S
C85 C84 1.377 . S
C85 C86 1.376 . S
C86 H49 0.930 . S
C86 C85 1.376 . S
C86 C87 1.376 . S
C87 C86 1.376 . S
C87 C88 1.378 . S
C87 C114 1.486 . S
C88 H50 0.930 . S
C88 C87 1.378 . S
C88 C89 1.376 . S
C89 H51 0.929 . S
C89 C84 1.397 . S
C89 C88 1.376 . S
C90 C74 1.509 . S
C90 C91 1.391 . S
C90 C95 1.386 . S
C91 H52 0.930 . S
C91 C90 1.391 . S
C91 C92 1.375 . S
C92 H53 0.931 . S
C92 C91 1.375 . S
C92 C93 1.375 . S
C93 C92 1.375 . S
C93 C94 1.361 . S
C94 H54 0.930 . S
C94 C93 1.361 . S
C94 C95 1.399 . S
C95 H55 0.929 . S
C95 C90 1.386 . S
C95 C94 1.399 . S
C96 C75 1.485 . S
C96 C97 1.394 . S
C96 C101 1.360 . S
C97 H56 0.931 . S
C97 C96 1.394 . S
C97 C98 1.372 . S
C98 H57 0.930 . S
C98 C97 1.372 . S
C98 C99 1.397 . S
C99 C98 1.397 . S
C99 C100 1.390 . S
C99 C115 1.476 . S
C100 H58 0.930 . S
C100 C99 1.390 . S
C100 C101 1.366 . S
C101 H59 0.932 . S
C101 C96 1.360 . S
C101 C100 1.366 . S
C102 C76 1.490 . S
C102 C103 1.380 . S
C102 C107 1.386 . S
C103 H60 0.930 1_455 S
C103 C102 1.380 . S
C103 C104 1.381 . S
C104 H61 0.929 1_455 S
C104 C103 1.381 . S
C104 C105 1.371 . S
C105 C104 1.371 . S
C105 C106 1.380 . S
C106 H62 0.931 . S
C106 C105 1.380 . S
C106 C107 1.387 . S
C107 H63 0.930 . S
C107 C102 1.386 . S
C107 C106 1.387 . S
C108 C77 1.519 . S
C108 C109 1.377 . S
C108 C113 1.361 . S
C109 H64 0.929 . S
C109 C108 1.377 . S
C109 C110 1.386 . S
C110 H65 0.931 . S
C110 C109 1.386 . S
C110 C111 1.363 . S
C111 C110 1.363 . S
C111 C112 1.385 . S
C112 H66 0.930 . S
C112 C111 1.385 . S
C112 C113 1.396 . S
C113 H67 0.929 . S
C113 C108 1.361 . S
C113 C112 1.396 . S
C114 O68 1.300 . S
C114 O69 1.209 . S
C114 C87 1.486 . S
C115 O70 1.199 . S
C115 O71 1.297 . S
C115 C99 1.476 . S
H116 O142 0.856 . S
H117 O145 0.854 . S
H118 C153 0.930 1_565 S
H119 C154 0.930 . S
H120 C156 0.930 . S
H121 C157 0.930 . S
H122 C159 0.931 1_565 S
H123 C160 0.931 1_565 S
H124 C162 0.930 . S
H125 C163 0.929 . S
H126 C165 0.930 1_565 S
H127 C166 0.931 . S
H128 C168 0.930 . S
H129 C169 0.929 . S
H130 C171 0.931 1_565 S
H131 C172 0.930 1_565 S
H132 C174 0.930 . S
H133 C175 0.932 . S
H134 C177 0.930 1_565 S
H135 C178 0.929 . S
H136 C180 0.931 . S
H137 C181 0.930 . S
H138 C183 0.929 1_565 S
H139 C184 0.931 1_565 S
H140 C186 0.930 . S
H141 C187 0.929 . S
O142 H116 0.856 . S
O142 C188 1.300 . S
O143 C188 1.209 . S
O144 C189 1.199 . S
O145 H117 0.854 . S
O145 C189 1.297 . S
C146 C147 1.404 . S
C146 C151 1.397 . S
C146 C152 1.492 . S
C147 C146 1.404 . S
C147 C148 1.396 . S
C147 C158 1.492 . S
C148 C147 1.396 . S
C148 C149 1.397 . S
C148 C164 1.509 . S
C149 C148 1.397 . S
C149 C150 1.412 . S
C149 C170 1.485 . S
C150 C149 1.412 . S
C150 C151 1.388 . S
C150 C176 1.490 . S
C151 C146 1.397 . S
C151 C150 1.388 . S
C151 C182 1.519 . S
C152 C146 1.492 . S
C152 C153 1.363 . S
C152 C157 1.390 . S
C153 H118 0.930 1_545 S
C153 C152 1.363 . S
C153 C154 1.372 1_545 S
C154 H119 0.930 . S
C154 C153 1.372 1_565 S
C154 C155 1.383 1_565 S
C155 C154 1.383 1_545 S
C155 C156 1.395 . S
C156 H120 0.930 . S
C156 C155 1.395 . S
C156 C157 1.362 . S
C157 H121 0.930 . S
C157 C152 1.390 . S
C157 C156 1.362 . S
C158 C147 1.492 . S
C158 C159 1.377 . S
C158 C163 1.397 . S
C159 H122 0.931 1_545 S
C159 C158 1.377 . S
C159 C160 1.376 . S
C160 H123 0.931 1_545 S
C160 C159 1.376 . S
C160 C161 1.376 . S
C161 C160 1.376 . S
C161 C162 1.378 . S
C161 C188 1.486 . S
C162 H124 0.930 . S
C162 C161 1.378 . S
C162 C163 1.376 . S
C163 H125 0.929 . S
C163 C158 1.397 . S
C163 C162 1.376 . S
C164 C148 1.509 . S
C164 C165 1.391 . S
C164 C169 1.386 . S
C165 H126 0.930 1_545 S
C165 C164 1.391 . S
C165 C166 1.375 . S
C166 H127 0.931 . S
C166 C165 1.375 . S
C166 C167 1.375 . S
C167 C166 1.375 . S
C167 C168 1.361 . S
C168 H128 0.930 . S
C168 C167 1.361 . S
C168 C169 1.399 . S
C169 H129 0.929 . S
C169 C164 1.386 . S
C169 C168 1.399 . S
C170 C149 1.485 . S
C170 C171 1.394 . S
C170 C175 1.360 . S
C171 H130 0.931 1_545 S
C171 C170 1.394 . S
C171 C172 1.372 . S
C172 H131 0.930 1_545 S
C172 C171 1.372 . S
C172 C173 1.397 . S
C173 C172 1.397 . S
C173 C174 1.390 . S
C173 C189 1.476 . S
C174 H132 0.930 . S
C174 C173 1.390 . S
C174 C175 1.366 . S
C175 H133 0.932 . S
C175 C170 1.360 . S
C175 C174 1.366 . S
C176 C150 1.490 . S
C176 C177 1.380 . S
C176 C181 1.386 . S
C177 H134 0.930 1_545 S
C177 C176 1.380 . S
C177 C178 1.381 1_545 S
C178 H135 0.929 . S
C178 C177 1.381 1_565 S
C178 C179 1.371 1_565 S
C179 C178 1.371 1_545 S
C179 C180 1.380 . S
C180 H136 0.931 . S
C180 C179 1.380 . S
C180 C181 1.387 . S
C181 H137 0.930 . S
C181 C176 1.386 . S
C181 C180 1.387 . S
C182 C151 1.519 . S
C182 C183 1.377 . S
C182 C187 1.361 . S
C183 H138 0.929 1_545 S
C183 C182 1.377 . S
C183 C184 1.386 . S
C184 H139 0.931 1_545 S
C184 C183 1.386 . S
C184 C185 1.363 . S
C185 C184 1.363 . S
C185 C186 1.385 . S
C186 H140 0.930 . S
C186 C185 1.385 . S
C186 C187 1.396 . S
C187 H141 0.929 . S
C187 C182 1.361 . S
C187 C186 1.396 . S
C188 O142 1.300 . S
C188 O143 1.209 . S
C188 C161 1.486 . S
C189 O144 1.199 . S
C189 O145 1.297 . S
C189 C173 1.476 . S
H190 O216 0.856 . S
H191 O219 0.854 . S
H192 C227 0.930 . S
H193 C228 0.930 . S
H194 C230 0.930 . S
H195 C231 0.930 . S
H196 C233 0.931 . S
H197 C234 0.930 . S
H198 C236 0.930 . S
H199 C237 0.929 . S
H200 C239 0.930 . S
H201 C240 0.931 . S
H202 C242 0.930 . S
H203 C243 0.929 . S
H204 C245 0.931 . S
H205 C246 0.930 . S
H206 C248 0.930 . S
H207 C249 0.932 . S
H208 C251 0.930 . S
H209 C252 0.929 . S
H210 C254 0.931 . S
H211 C255 0.930 . S
H212 C257 0.929 . S
H213 C258 0.931 . S
H214 C260 0.930 . S
H215 C261 0.929 . S
O216 H190 0.856 . S
O216 C262 1.300 . S
O217 C262 1.209 . S
O218 C263 1.199 . S
O219 H191 0.854 . S
O219 C263 1.297 . S
C220 C221 1.404 . S
C220 C225 1.397 . S
C220 C226 1.492 . S
C221 C220 1.404 . S
C221 C222 1.396 . S
C221 C232 1.492 . S
C222 C221 1.396 . S
C222 C223 1.397 . S
C222 C238 1.509 . S
C223 C222 1.397 . S
C223 C224 1.412 . S
C223 C244 1.485 . S
C224 C223 1.412 . S
C224 C225 1.388 . S
C224 C250 1.490 . S
C225 C220 1.397 . S
C225 C224 1.388 . S
C225 C256 1.519 . S
C226 C220 1.492 . S
C226 C227 1.363 . S
C226 C231 1.390 . S
C227 H192 0.930 . S
C227 C226 1.363 . S
C227 C228 1.372 . S
C228 H193 0.930 . S
C228 C227 1.372 . S
C228 C229 1.383 . S
C229 C228 1.383 . S
C229 C230 1.395 . S
C230 H194 0.930 . S
C230 C229 1.395 . S
C230 C231 1.362 . S
C231 H195 0.930 . S
C231 C226 1.390 . S
C231 C230 1.362 . S
C232 C221 1.492 . S
C232 C233 1.377 . S
C232 C237 1.397 . S
C233 H196 0.931 . S
C233 C232 1.377 . S
C233 C234 1.376 . S
C234 H197 0.930 . S
C234 C233 1.376 . S
C234 C235 1.376 . S
C235 C234 1.376 . S
C235 C236 1.378 . S
C235 C262 1.486 1_556 S
C236 H198 0.930 . S
C236 C235 1.378 . S
C236 C237 1.376 . S
C237 H199 0.929 . S
C237 C232 1.397 . S
C237 C236 1.376 . S
C238 C222 1.509 . S
C238 C239 1.391 . S
C238 C243 1.386 . S
C239 H200 0.930 . S
C239 C238 1.391 . S
C239 C240 1.375 . S
C240 H201 0.931 . S
C240 C239 1.375 . S
C240 C241 1.375 . S
C241 C240 1.375 . S
C241 C242 1.361 . S
C242 H202 0.930 . S
C242 C241 1.361 . S
C242 C243 1.399 . S
C243 H203 0.929 . S
C243 C238 1.386 . S
C243 C242 1.399 . S
C244 C223 1.485 . S
C244 C245 1.394 . S
C244 C249 1.360 . S
C245 H204 0.931 . S
C245 C244 1.394 . S
C245 C246 1.372 . S
C246 H205 0.930 . S
C246 C245 1.372 . S
C246 C247 1.397 . S
C247 C246 1.397 . S
C247 C248 1.390 . S
C247 C263 1.476 . S
C248 H206 0.930 . S
C248 C247 1.390 . S
C248 C249 1.366 . S
C249 H207 0.932 . S
C249 C244 1.360 . S
C249 C248 1.366 . S
C250 C224 1.490 . S
C250 C251 1.380 . S
C250 C255 1.386 . S
C251 H208 0.930 . S
C251 C250 1.380 . S
C251 C252 1.381 . S
C252 H209 0.929 . S
C252 C251 1.381 . S
C252 C253 1.371 . S
C253 C252 1.371 . S
C253 C254 1.380 . S
C254 H210 0.931 . S
C254 C253 1.380 . S
C254 C255 1.387 . S
C255 H211 0.930 . S
C255 C250 1.386 . S
C255 C254 1.387 . S
C256 C225 1.519 . S
C256 C257 1.377 . S
C256 C261 1.361 . S
C257 H212 0.929 . S
C257 C256 1.377 . S
C257 C258 1.386 . S
C258 H213 0.931 . S
C258 C257 1.386 . S
C258 C259 1.363 . S
C259 C258 1.363 . S
C259 C260 1.385 . S
C260 H214 0.930 . S
C260 C259 1.385 . S
C260 C261 1.396 . S
C261 H215 0.929 . S
C261 C256 1.361 . S
C261 C260 1.396 . S
C262 O216 1.300 . S
C262 O217 1.209 . S
C262 C235 1.486 1_554 S
C263 O218 1.199 . S
C263 O219 1.297 . S
C263 C247 1.476 . S
H264 C282 0.951 . S
H265 C284 0.951 . S
H266 C286 0.950 . S
H267 C287 0.950 . S
H268 C289 0.950 . S
H269 C292 0.950 . S
H270 C293 0.950 . S
H271 C295 0.950 . S
H272 C296 0.950 . S
H273 C297 0.951 . S
H274 C299 0.951 . S
H275 C301 0.950 1_655 S
H276 C302 0.950 1_655 S
H277 C304 0.950 . S
H278 C307 0.950 . S
H279 C308 0.950 . S
H280 C310 0.950 . S
H281 C311 0.950 . S
C282 H264 0.951 . S
C282 C283 1.366 . S
C282 C284 1.388 . S
C283 C282 1.366 . S
C283 C287 1.385 . S
C284 H265 0.951 . S
C284 C282 1.388 . S
C284 C285 1.366 . S
C285 C284 1.366 . S
C285 C286 1.414 . S
C285 C288 1.499 . S
C286 H266 0.950 . S
C286 C285 1.414 . S
C286 C287 1.374 . S
C287 H267 0.950 . S
C287 C283 1.385 . S
C287 C286 1.374 . S
C288 C285 1.499 . S
C288 C289 1.373 . S
C288 C290 1.389 . S
C289 H268 0.950 . S
C289 C288 1.373 . S
C289 C305 1.377 . S
C290 C288 1.389 . S
C290 C291 1.524 . S
C290 C304 1.377 . S
C291 C290 1.524 . S
C291 C292 1.397 . S
C291 C296 1.363 1_455 S
C292 H269 0.950 . S
C292 C291 1.397 . S
C292 C293 1.334 . S
C293 H270 0.950 . S
C293 C292 1.334 . S
C293 C294 1.287 1_455 S
C294 C293 1.287 1_655 S
C294 C295 1.524 . S
C294 H313 0.913 . S
C295 H271 0.950 . S
C295 C294 1.524 . S
C295 C296 1.415 . S
C296 H272 0.950 . S
C296 C291 1.363 1_655 S
C296 C295 1.415 . S
C297 H273 0.951 . S
C297 C298 1.366 . S
C297 C299 1.388 . S
C298 C297 1.366 . S
C298 C302 1.385 . S
C299 H274 0.951 . S
C299 C297 1.388 . S
C299 C300 1.366 . S
C300 C299 1.366 . S
C300 C301 1.414 . S
C300 C303 1.499 . S
C301 H275 0.950 1_455 S
C301 C300 1.414 . S
C301 C302 1.374 . S
C302 H276 0.950 1_455 S
C302 C298 1.385 . S
C302 C301 1.374 . S
C303 C300 1.499 . S
C303 C304 1.373 . S
C303 C305 1.389 . S
C304 H277 0.950 . S
C304 C290 1.377 . S
C304 C303 1.373 . S
C305 C289 1.377 . S
C305 C303 1.389 . S
C305 C306 1.524 . S
C306 C305 1.524 . S
C306 C307 1.397 . S
C306 C311 1.363 . S
C307 H278 0.950 . S
C307 C306 1.397 . S
C307 C308 1.334 . S
C308 H279 0.950 . S
C308 C307 1.334 . S
C308 C309 1.287 . S
C309 C308 1.287 . S
C309 C310 1.524 . S
C309 H312 0.999 . S
C310 H280 0.950 . S
C310 C309 1.524 . S
C310 C311 1.415 . S
C311 H281 0.950 . S
C311 C306 1.363 . S
C311 C310 1.415 . S
H312 C309 0.999 . S
H313 C294 0.913 . S
H314 C332 0.951 . S
H315 C334 0.951 . S
H316 C336 0.950 . S
H317 C337 0.950 . S
H318 C339 0.950 . S
H319 C342 0.950 . S
H320 C343 0.950 . S
H321 C345 0.950 . S
H322 C346 0.950 . S
H323 C347 0.951 . S
H324 C349 0.951 . S
H325 C351 0.950 . S
H326 C352 0.950 . S
H327 C354 0.950 . S
H328 C357 0.950 . S
H329 C358 0.950 . S
H330 C360 0.950 . S
H331 C361 0.950 . S
C332 H314 0.951 . S
C332 C333 1.366 1_565 S
C332 C334 1.388 . S
C333 C332 1.366 1_545 S
C333 C337 1.385 . S
C334 H315 0.951 . S
C334 C332 1.388 . S
C334 C335 1.366 1_565 S
C335 C334 1.366 1_545 S
C335 C336 1.414 . S
C335 C338 1.499 . S
C336 H316 0.950 . S
C336 C335 1.414 . S
C336 C337 1.374 . S
C337 H317 0.950 . S
C337 C333 1.385 . S
C337 C336 1.374 . S
C338 C335 1.499 . S
C338 C339 1.373 . S
C338 C340 1.389 . S
C339 H318 0.950 . S
C339 C338 1.373 . S
C339 C355 1.377 . S
C340 C338 1.389 . S
C340 C341 1.524 . S
C340 C354 1.377 . S
C341 C340 1.524 . S
C341 C342 1.397 . S
C341 C346 1.363 1_545 S
C342 H319 0.950 . S
C342 C341 1.397 . S
C342 C343 1.334 . S
C343 H320 0.950 . S
C343 C342 1.334 . S
C343 C344 1.287 . S
C344 C343 1.287 . S
C344 C345 1.524 1_545 S
C344 H363 0.913 . S
C345 H321 0.950 . S
C345 C344 1.524 1_565 S
C345 C346 1.415 . S
C346 H322 0.950 . S
C346 C341 1.363 1_565 S
C346 C345 1.415 . S
C347 H323 0.951 . S
C347 C348 1.366 . S
C347 C349 1.388 . S
C348 C347 1.366 . S
C348 C352 1.385 1_545 S
C349 H324 0.951 . S
C349 C347 1.388 . S
C349 C350 1.366 . S
C350 C349 1.366 . S
C350 C351 1.414 1_545 S
C350 C353 1.499 . S
C351 H325 0.950 . S
C351 C350 1.414 1_565 S
C351 C352 1.374 . S
C352 H326 0.950 . S
C352 C348 1.385 1_565 S
C352 C351 1.374 . S
C353 C350 1.499 . S
C353 C354 1.373 . S
C353 C355 1.389 . S
C354 H327 0.950 . S
C354 C340 1.377 . S
C354 C353 1.373 . S
C355 C339 1.377 . S
C355 C353 1.389 . S
C355 C356 1.524 . S
C356 C355 1.524 . S
C356 C357 1.397 1_545 S
C356 C361 1.363 . S
C357 H328 0.950 . S
C357 C356 1.397 1_565 S
C357 C358 1.334 . S
C358 H329 0.950 . S
C358 C357 1.334 . S
C358 C359 1.287 1_565 S
C359 C358 1.287 1_545 S
C359 C360 1.524 . S
C359 H362 0.999 . S
C360 H330 0.950 . S
C360 C359 1.524 . S
C360 C361 1.415 . S
C361 H331 0.950 . S
C361 C356 1.363 . S
C361 C360 1.415 . S
H362 C359 0.999 . S
H363 C344 0.913 . S
H364 C382 0.951 . S
H365 C384 0.951 . S
H366 C386 0.950 . S
H367 C387 0.950 . S
H368 C389 0.950 . S
H369 C392 0.950 1_655 S
H370 C393 0.950 . S
H371 C395 0.950 . S
H372 C396 0.950 1_655 S
H373 C397 0.951 . S
H374 C399 0.951 . S
H375 C401 0.950 . S
H376 C402 0.950 . S
H377 C404 0.950 . S
H378 C407 0.950 . S
H379 C408 0.950 . S
H380 C410 0.950 . S
H381 C411 0.950 . S
C382 H364 0.951 . S
C382 C383 1.366 . S
C382 C384 1.388 1_455 S
C383 C382 1.366 . S
C383 C387 1.385 1_455 S
C384 H365 0.951 . S
C384 C382 1.388 1_655 S
C384 C385 1.366 . S
C385 C384 1.366 . S
C385 C386 1.414 . S
C385 C388 1.499 . S
C386 H366 0.950 . S
C386 C385 1.414 . S
C386 C387 1.374 . S
C387 H367 0.950 . S
C387 C383 1.385 1_655 S
C387 C386 1.374 . S
C388 C385 1.499 . S
C388 C389 1.373 . S
C388 C390 1.389 . S
C389 H368 0.950 . S
C389 C388 1.373 . S
C389 C405 1.377 . S
C390 C388 1.389 . S
C390 C391 1.524 . S
C390 C404 1.377 . S
C391 C390 1.524 . S
C391 C392 1.397 1_655 S
C391 C396 1.363 1_655 S
C392 H369 0.950 1_455 S
C392 C391 1.397 1_455 S
C392 C393 1.334 . S
C393 H370 0.950 . S
C393 C392 1.334 . S
C393 C394 1.287 . S
C394 C393 1.287 . S
C394 C395 1.524 . S
C394 H413 0.913 . S
C395 H371 0.950 . S
C395 C394 1.524 . S
C395 C396 1.415 . S
C396 H372 0.950 1_455 S
C396 C391 1.363 1_455 S
C396 C395 1.415 . S
C397 H373 0.951 . S
C397 C398 1.366 . S
C397 C399 1.388 . S
C398 C397 1.366 . S
C398 C402 1.385 . S
C399 H374 0.951 . S
C399 C397 1.388 . S
C399 C400 1.366 . S
C400 C399 1.366 . S
C400 C401 1.414 . S
C400 C403 1.499 . S
C401 H375 0.950 . S
C401 C400 1.414 . S
C401 C402 1.374 . S
C402 H376 0.950 . S
C402 C398 1.385 . S
C402 C401 1.374 . S
C403 C400 1.499 . S
C403 C404 1.373 . S
C403 C405 1.389 . S
C404 H377 0.950 . S
C404 C390 1.377 . S
C404 C403 1.373 . S
C405 C389 1.377 . S
C405 C403 1.389 . S
C405 C406 1.524 . S
C406 C405 1.524 . S
C406 C407 1.397 . S
C406 C411 1.363 . S
C407 H378 0.950 . S
C407 C406 1.397 . S
C407 C408 1.334 . S
C408 H379 0.950 . S
C408 C407 1.334 . S
C408 C409 1.287 . S
C409 C408 1.287 . S
C409 C410 1.524 . S
C409 H412 0.999 . S
C410 H380 0.950 . S
C410 C409 1.524 . S
C410 C411 1.415 . S
C411 H381 0.950 . S
C411 C406 1.363 . S
C411 C410 1.415 . S
H412 C409 0.999 . S
H413 C394 0.913 . S
H414 C432 0.951 . S
H415 C434 0.951 . S
H416 C436 0.950 . S
H417 C437 0.950 . S
H418 C439 0.950 . S
H419 C442 0.950 . S
H420 C443 0.950 . S
H421 C445 0.950 . S
H422 C446 0.950 1_655 S
H423 C447 0.951 . S
H424 C449 0.951 . S
H425 C451 0.950 . S
H426 C452 0.950 . S
H427 C454 0.950 . S
H428 C457 0.950 . S
H429 C458 0.950 . S
H430 C460 0.950 . S
H431 C461 0.950 . S
C432 H414 0.951 . S
C432 C433 1.366 . S
C432 C434 1.388 . S
C433 C432 1.366 . S
C433 C437 1.385 1_565 S
C434 H415 0.951 . S
C434 C432 1.388 . S
C434 C435 1.366 . S
C435 C434 1.366 . S
C435 C436 1.414 . S
C435 C438 1.499 . S
C436 H416 0.950 . S
C436 C435 1.414 . S
C436 C437 1.374 1_565 S
C437 H417 0.950 . S
C437 C433 1.385 1_545 S
C437 C436 1.374 1_545 S
C438 C435 1.499 . S
C438 C439 1.373 . S
C438 C440 1.389 . S
C439 H418 0.950 . S
C439 C438 1.373 . S
C439 C455 1.377 . S
C440 C438 1.389 . S
C440 C441 1.524 . S
C440 C454 1.377 . S
C441 C440 1.524 . S
C441 C442 1.397 . S
C441 C446 1.363 . S
C442 H419 0.950 . S
C442 C441 1.397 . S
C442 C443 1.334 . S
C443 H420 0.950 . S
C443 C442 1.334 . S
C443 C444 1.287 1_455 S
C444 C443 1.287 1_655 S
C444 C445 1.524 . S
C444 H463 0.913 . S
C445 H421 0.950 . S
C445 C444 1.524 . S
C445 C446 1.415 1_655 S
C446 H422 0.950 1_455 S
C446 C441 1.363 . S
C446 C445 1.415 1_455 S
C447 H423 0.951 . S
C447 C448 1.366 . S
C447 C449 1.388 . S
C448 C447 1.366 . S
C448 C452 1.385 . S
C449 H424 0.951 . S
C449 C447 1.388 . S
C449 C450 1.366 . S
C450 C449 1.366 . S
C450 C451 1.414 . S
C450 C453 1.499 . S
C451 H425 0.950 . S
C451 C450 1.414 . S
C451 C452 1.374 . S
C452 H426 0.950 . S
C452 C448 1.385 . S
C452 C451 1.374 . S
C453 C450 1.499 . S
C453 C454 1.373 . S
C453 C455 1.389 . S
C454 H427 0.950 . S
C454 C440 1.377 . S
C454 C453 1.373 . S
C455 C439 1.377 . S
C455 C453 1.389 . S
C455 C456 1.524 . S
C456 C455 1.524 . S
C456 C457 1.397 . S
C456 C461 1.363 . S
C457 H428 0.950 . S
C457 C456 1.397 . S
C457 C458 1.334 . S
C458 H429 0.950 . S
C458 C457 1.334 . S
C458 C459 1.287 . S
C459 C458 1.287 . S
C459 C460 1.524 . S
C459 H462 0.999 . S
C460 H430 0.950 . S
C460 C459 1.524 . S
C460 C461 1.415 . S
C461 H431 0.950 . S
C461 C456 1.363 . S
C461 C460 1.415 . S
H462 C459 0.999 . S
H463 C444 0.913 . S
H464 C482 0.951 . S
H465 C484 0.951 . S
H466 C486 0.950 . S
H467 C487 0.950 . S
H468 C489 0.950 . S
H469 C492 0.950 . S
H470 C493 0.950 . S
H471 C495 0.950 . S
H472 C496 0.950 . S
H473 C497 0.951 . S
H474 C499 0.951 . S
H475 C501 0.950 . S
H476 C502 0.950 . S
H477 C504 0.950 . S
H478 C507 0.950 . S
H479 C508 0.950 . S
H480 C510 0.950 . S
H481 C511 0.950 . S
C482 H464 0.951 . S
C482 C483 1.366 . S
C482 C484 1.388 . S
C483 C482 1.366 . S
C483 C487 1.385 . S
C484 H465 0.951 . S
C484 C482 1.388 . S
C484 C485 1.366 . S
C485 C484 1.366 . S
C485 C486 1.414 . S
C485 C488 1.499 . S
C486 H466 0.950 . S
C486 C485 1.414 . S
C486 C487 1.374 . S
C487 H467 0.950 . S
C487 C483 1.385 . S
C487 C486 1.374 . S
C488 C485 1.499 . S
C488 C489 1.373 . S
C488 C490 1.389 . S
C489 H468 0.950 . S
C489 C488 1.373 . S
C489 C505 1.377 . S
C490 C488 1.389 . S
C490 C491 1.524 1_545 S
C490 C504 1.377 . S
C491 C490 1.524 1_565 S
C491 C492 1.397 . S
C491 C496 1.363 . S
C492 H469 0.950 . S
C492 C491 1.397 . S
C492 C493 1.334 . S
C493 H470 0.950 . S
C493 C492 1.334 . S
C493 C494 1.287 . S
C494 C493 1.287 . S
C494 C495 1.524 . S
C494 H513 0.913 . S
C495 H471 0.950 . S
C495 C494 1.524 . S
C495 C496 1.415 . S
C496 H472 0.950 . S
C496 C491 1.363 . S
C496 C495 1.415 . S
C497 H473 0.951 . S
C497 C498 1.366 . S
C497 C499 1.388 . S
C498 C497 1.366 . S
C498 C502 1.385 . S
C499 H474 0.951 . S
C499 C497 1.388 . S
C499 C500 1.366 . S
C500 C499 1.366 . S
C500 C501 1.414 . S
C500 C503 1.499 . S
C501 H475 0.950 . S
C501 C500 1.414 . S
C501 C502 1.374 . S
C502 H476 0.950 . S
C502 C498 1.385 . S
C502 C501 1.374 . S
C503 C500 1.499 . S
C503 C504 1.373 . S
C503 C505 1.389 . S
C504 H477 0.950 . S
C504 C490 1.377 . S
C504 C503 1.373 . S
C505 C489 1.377 . S
C505 C503 1.389 . S
C505 C506 1.524 . S
C506 C505 1.524 . S
C506 C507 1.397 . S
C506 C511 1.363 . S
C507 H478 0.950 . S
C507 C506 1.397 . S
C507 C508 1.334 . S
C508 H479 0.950 . S
C508 C507 1.334 . S
C508 C509 1.287 . S
C509 C508 1.287 . S
C509 C510 1.524 . S
C509 H512 0.999 . S
C510 H480 0.950 . S
C510 C509 1.524 . S
C510 C511 1.415 . S
C511 H481 0.950 . S
C511 C506 1.363 . S
C511 C510 1.415 . S
H512 C509 0.999 . S
H513 C494 0.913 . S
H514 C532 0.951 . S
H515 C534 0.951 . S
H516 C536 0.950 . S
H517 C537 0.950 . S
H518 C539 0.950 . S
H519 C542 0.950 . S
H520 C543 0.950 . S
H521 C545 0.950 . S
H522 C546 0.950 . S
H523 C547 0.951 . S
H524 C549 0.951 . S
H525 C551 0.950 . S
H526 C552 0.950 . S
H527 C554 0.950 . S
H528 C557 0.950 . S
H529 C558 0.950 . S
H530 C560 0.950 . S
H531 C561 0.950 . S
C532 H514 0.951 . S
C532 C533 1.366 . S
C532 C534 1.388 . S
C533 C532 1.366 . S
C533 C537 1.385 . S
C534 H515 0.951 . S
C534 C532 1.388 . S
C534 C535 1.366 . S
C535 C534 1.366 . S
C535 C536 1.414 . S
C535 C538 1.499 . S
C536 H516 0.950 . S
C536 C535 1.414 . S
C536 C537 1.374 . S
C537 H517 0.950 . S
C537 C533 1.385 . S
C537 C536 1.374 . S
C538 C535 1.499 . S
C538 C539 1.373 . S
C538 C540 1.389 . S
C539 H518 0.950 . S
C539 C538 1.373 . S
C539 C555 1.377 . S
C540 C538 1.389 . S
C540 C541 1.524 . S
C540 C554 1.377 . S
C541 C540 1.524 . S
C541 C542 1.397 . S
C541 C546 1.363 . S
C542 H519 0.950 . S
C542 C541 1.397 . S
C542 C543 1.334 . S
C543 H520 0.950 . S
C543 C542 1.334 . S
C543 C544 1.287 . S
C544 C543 1.287 . S
C544 C545 1.524 . S
C544 H563 0.913 . S
C545 H521 0.950 . S
C545 C544 1.524 . S
C545 C546 1.415 . S
C546 H522 0.950 . S
C546 C541 1.363 . S
C546 C545 1.415 . S
C547 H523 0.951 . S
C547 C548 1.366 . S
C547 C549 1.388 . S
C548 C547 1.366 . S
C548 C552 1.385 . S
C549 H524 0.951 . S
C549 C547 1.388 . S
C549 C550 1.366 . S
C550 C549 1.366 . S
C550 C551 1.414 . S
C550 C553 1.499 . S
C551 H525 0.950 . S
C551 C550 1.414 . S
C551 C552 1.374 . S
C552 H526 0.950 . S
C552 C548 1.385 . S
C552 C551 1.374 . S
C553 C550 1.499 . S
C553 C554 1.373 . S
C553 C555 1.389 . S
C554 H527 0.950 . S
C554 C540 1.377 . S
C554 C553 1.373 . S
C555 C539 1.377 . S
C555 C553 1.389 . S
C555 C556 1.524 . S
C556 C555 1.524 . S
C556 C557 1.397 . S
C556 C561 1.363 . S
C557 H528 0.950 . S
C557 C556 1.397 . S
C557 C558 1.334 . S
C558 H529 0.950 . S
C558 C557 1.334 . S
C558 C559 1.287 . S
C559 C558 1.287 . S
C559 C560 1.524 . S
C559 H562 0.999 . S
C560 H530 0.950 . S
C560 C559 1.524 . S
C560 C561 1.415 . S
C561 H531 0.950 . S
C561 C556 1.363 . S
C561 C560 1.415 . S
H562 C559 0.999 . S
H563 C544 0.913 . S
H564 C582 0.951 1_455 S
H565 C584 0.951 . S
H566 C586 0.950 1_565 S
H567 C587 0.950 1_565 S
H568 C589 0.950 . S
H569 C592 0.950 . S
H570 C593 0.950 . S
H571 C595 0.950 . S
H572 C596 0.950 . S
H573 C597 0.951 1_565 S
H574 C599 0.951 1_565 S
H575 C601 0.950 . S
H576 C602 0.950 . S
H577 C604 0.950 . S
H578 C607 0.950 . S
H579 C608 0.950 1_545 S
H580 C610 0.950 . S
H581 C611 0.950 . S
C582 H564 0.951 1_655 S
C582 C583 1.366 . S
C582 C584 1.388 . S
C583 C582 1.366 . S
C583 C587 1.385 . S
C584 H565 0.951 . S
C584 C582 1.388 . S
C584 C585 1.366 . S
C585 C584 1.366 . S
C585 C586 1.414 . S
C585 C588 1.499 . S
C586 H566 0.950 1_545 S
C586 C585 1.414 . S
C586 C587 1.374 . S
C587 H567 0.950 1_545 S
C587 C583 1.385 . S
C587 C586 1.374 . S
C588 C585 1.499 . S
C588 C589 1.373 . S
C588 C590 1.389 . S
C589 H568 0.950 . S
C589 C588 1.373 . S
C589 C605 1.377 . S
C590 C588 1.389 . S
C590 C591 1.524 . S
C590 C604 1.377 . S
C591 C590 1.524 . S
C591 C592 1.397 . S
C591 C596 1.363 . S
C592 H569 0.950 . S
C592 C591 1.397 . S
C592 C593 1.334 . S
C593 H570 0.950 . S
C593 C592 1.334 . S
C593 C594 1.287 . S
C594 C593 1.287 . S
C594 C595 1.524 . S
C594 H613 0.913 . S
C595 H571 0.950 . S
C595 C594 1.524 . S
C595 C596 1.415 . S
C596 H572 0.950 . S
C596 C591 1.363 . S
C596 C595 1.415 . S
C597 H573 0.951 1_545 S
C597 C598 1.366 . S
C597 C599 1.388 . S
C598 C597 1.366 . S
C598 C602 1.385 . S
C599 H574 0.951 1_545 S
C599 C597 1.388 . S
C599 C600 1.366 . S
C600 C599 1.366 . S
C600 C601 1.414 . S
C600 C603 1.499 . S
C601 H575 0.950 . S
C601 C600 1.414 . S
C601 C602 1.374 . S
C602 H576 0.950 . S
C602 C598 1.385 . S
C602 C601 1.374 . S
C603 C600 1.499 . S
C603 C604 1.373 . S
C603 C605 1.389 . S
C604 H577 0.950 . S
C604 C590 1.377 . S
C604 C603 1.373 . S
C605 C589 1.377 . S
C605 C603 1.389 . S
C605 C606 1.524 1_545 S
C606 C605 1.524 1_565 S
C606 C607 1.397 1_565 S
C606 C611 1.363 . S
C607 H578 0.950 . S
C607 C606 1.397 1_545 S
C607 C608 1.334 1_545 S
C608 H579 0.950 1_565 S
C608 C607 1.334 1_565 S
C608 C609 1.287 . S
C609 C608 1.287 . S
C609 C610 1.524 . S
C609 H612 0.999 . S
C610 H580 0.950 . S
C610 C609 1.524 . S
C610 C611 1.415 . S
C611 H581 0.950 . S
C611 C606 1.363 . S
C611 C610 1.415 . S
H612 C609 0.999 . S
H613 C594 0.913 . S
H614 C632 0.951 1_545 S
H615 C634 0.951 . S
H616 C636 0.950 . S
H617 C637 0.950 . S
H618 C639 0.950 . S
H619 C642 0.950 . S
H620 C643 0.950 . S
H621 C645 0.950 . S
H622 C646 0.950 . S
H623 C647 0.951 . S
H624 C649 0.951 . S
H625 C651 0.950 . S
H626 C652 0.950 . S
H627 C654 0.950 . S
H628 C657 0.950 . S
H629 C658 0.950 . S
H630 C660 0.950 . S
H631 C661 0.950 1_455 S
C632 H614 0.951 1_565 S
C632 C633 1.366 1_655 S
C632 C634 1.388 . S
C633 C632 1.366 1_455 S
C633 C637 1.385 . S
C634 H615 0.951 . S
C634 C632 1.388 . S
C634 C635 1.366 . S
C635 C634 1.366 . S
C635 C636 1.414 1_655 S
C635 C638 1.499 . S
C636 H616 0.950 . S
C636 C635 1.414 1_455 S
C636 C637 1.374 . S
C637 H617 0.950 . S
C637 C633 1.385 . S
C637 C636 1.374 . S
C638 C635 1.499 . S
C638 C639 1.373 . S
C638 C640 1.389 . S
C639 H618 0.950 . S
C639 C638 1.373 . S
C639 C655 1.377 1_554 S
C640 C638 1.389 . S
C640 C641 1.524 . S
C640 C654 1.377 . S
C641 C640 1.524 . S
C641 C642 1.397 . S
C641 C646 1.363 . S
C642 H619 0.950 . S
C642 C641 1.397 . S
C642 C643 1.334 . S
C643 H620 0.950 . S
C643 C642 1.334 . S
C643 C644 1.287 . S
C644 C643 1.287 . S
C644 C645 1.524 . S
C644 H663 0.913 . S
C645 H621 0.950 . S
C645 C644 1.524 . S
C645 C646 1.415 . S
C646 H622 0.950 . S
C646 C641 1.363 . S
C646 C645 1.415 . S
C647 H623 0.951 . S
C647 C648 1.366 . S
C647 C649 1.388 . S
C648 C647 1.366 . S
C648 C652 1.385 . S
C649 H624 0.951 . S
C649 C647 1.388 . S
C649 C650 1.366 . S
C650 C649 1.366 . S
C650 C651 1.414 . S
C650 C653 1.499 . S
C651 H625 0.950 . S
C651 C650 1.414 . S
C651 C652 1.374 . S
C652 H626 0.950 . S
C652 C648 1.385 . S
C652 C651 1.374 . S
C653 C650 1.499 . S
C653 C654 1.373 1_556 S
C653 C655 1.389 . S
C654 H627 0.950 . S
C654 C640 1.377 . S
C654 C653 1.373 1_554 S
C655 C639 1.377 1_556 S
C655 C653 1.389 . S
C655 C656 1.524 . S
C656 C655 1.524 . S
C656 C657 1.397 . S
C656 C661 1.363 . S
C657 H628 0.950 . S
C657 C656 1.397 . S
C657 C658 1.334 . S
C658 H629 0.950 . S
C658 C657 1.334 . S
C658 C659 1.287 1_655 S
C659 C658 1.287 1_455 S
C659 C660 1.524 . S
C659 H662 0.999 . S
C660 H630 0.950 . S
C660 C659 1.524 . S
C660 C661 1.415 1_455 S
C661 H631 0.950 1_655 S
C661 C656 1.363 . S
C661 C660 1.415 1_655 S
H662 C659 0.999 . S
H663 C644 0.913 . S
H664 C682 0.951 . S
H665 C684 0.951 . S
H666 C686 0.950 . S
H667 C687 0.950 . S
H668 C689 0.950 . S
H669 C692 0.950 1_455 S
H670 C693 0.950 . S
H671 C695 0.950 . S
H672 C696 0.950 . S
H673 C697 0.951 . S
H674 C699 0.951 . S
H675 C701 0.950 . S
H676 C702 0.950 . S
H677 C704 0.950 . S
H678 C707 0.950 . S
H679 C708 0.950 . S
H680 C710 0.950 . S
H681 C711 0.950 . S
C682 H664 0.951 . S
C682 C683 1.366 1_655 S
C682 C684 1.388 . S
C683 C682 1.366 1_455 S
C683 C687 1.385 . S
C684 H665 0.951 . S
C684 C682 1.388 . S
C684 C685 1.366 1_655 S
C685 C684 1.366 1_455 S
C685 C686 1.414 . S
C685 C688 1.499 . S
C686 H666 0.950 . S
C686 C685 1.414 . S
C686 C687 1.374 . S
C687 H667 0.950 . S
C687 C683 1.385 . S
C687 C686 1.374 . S
C688 C685 1.499 . S
C688 C689 1.373 . S
C688 C690 1.389 1_455 S
C689 H668 0.950 . S
C689 C688 1.373 . S
C689 C705 1.377 . S
C690 C688 1.389 1_655 S
C690 C691 1.524 . S
C690 C704 1.377 . S
C691 C690 1.524 . S
C691 C692 1.397 . S
C691 C696 1.363 . S
C692 H669 0.950 1_655 S
C692 C691 1.397 . S
C692 C693 1.334 . S
C693 H670 0.950 . S
C693 C692 1.334 . S
C693 C694 1.287 . S
C694 C693 1.287 . S
C694 C695 1.524 . S
C694 H713 0.913 . S
C695 H671 0.950 . S
C695 C694 1.524 . S
C695 C696 1.415 . S
C696 H672 0.950 . S
C696 C691 1.363 . S
C696 C695 1.415 . S
C697 H673 0.951 . S
C697 C698 1.366 . S
C697 C699 1.388 . S
C698 C697 1.366 . S
C698 C702 1.385 1_455 S
C699 H674 0.951 . S
C699 C697 1.388 . S
C699 C700 1.366 . S
C700 C699 1.366 . S
C700 C701 1.414 1_455 S
C700 C703 1.499 . S
C701 H675 0.950 . S
C701 C700 1.414 1_655 S
C701 C702 1.374 . S
C702 H676 0.950 . S
C702 C698 1.385 1_655 S
C702 C701 1.374 . S
C703 C700 1.499 . S
C703 C704 1.373 1_455 S
C703 C705 1.389 . S
C704 H677 0.950 . S
C704 C690 1.377 . S
C704 C703 1.373 1_655 S
C705 C689 1.377 . S
C705 C703 1.389 . S
C705 C706 1.524 . S
C706 C705 1.524 . S
C706 C707 1.397 . S
C706 C711 1.363 . S
C707 H678 0.950 . S
C707 C706 1.397 . S
C707 C708 1.334 . S
C708 H679 0.950 . S
C708 C707 1.334 . S
C708 C709 1.287 . S
C709 C708 1.287 . S
C709 C710 1.524 . S
C709 H712 0.999 . S
C710 H680 0.950 . S
C710 C709 1.524 . S
C710 C711 1.415 . S
C711 H681 0.950 . S
C711 C706 1.363 . S
C711 C710 1.415 . S
H712 C709 0.999 . S
H713 C694 0.913 . S
H714 C732 0.951 . S
H715 C734 0.951 . S
H716 C736 0.950 1_565 S
H717 C737 0.950 1_565 S
H718 C739 0.950 . S
H719 C742 0.950 . S
H720 C743 0.950 . S
H721 C745 0.950 . S
H722 C746 0.950 . S
H723 C747 0.951 . S
H724 C749 0.951 . S
H725 C751 0.950 . S
H726 C752 0.950 . S
H727 C754 0.951 1_565 S
H728 C757 0.950 . S
H729 C758 0.950 . S
H730 C760 0.950 . S
H731 C761 0.950 . S
C732 H714 0.951 . S
C732 C733 1.366 . S
C732 C734 1.388 . S
C733 C732 1.366 . S
C733 C737 1.385 . S
C734 H715 0.951 . S
C734 C732 1.388 . S
C734 C735 1.366 . S
C735 C734 1.366 . S
C735 C736 1.414 . S
C735 C738 1.499 . S
C736 H716 0.950 1_545 S
C736 C735 1.414 . S
C736 C737 1.374 . S
C737 H717 0.950 1_545 S
C737 C733 1.385 . S
C737 C736 1.374 . S
C738 C735 1.499 . S
C738 C739 1.373 . S
C738 C740 1.389 1_545 S
C739 H718 0.950 . S
C739 C738 1.373 . S
C739 C755 1.377 . S
C740 C738 1.389 1_565 S
C740 C741 1.524 . S
C740 C754 1.376 1_565 S
C741 C740 1.524 . S
C741 C742 1.397 . S
C741 C746 1.363 . S
C742 H719 0.950 . S
C742 C741 1.397 . S
C742 C743 1.334 . S
C743 H720 0.950 . S
C743 C742 1.334 . S
C743 C744 1.287 . S
C744 C743 1.287 . S
C744 C745 1.524 . S
C744 H763 0.913 . S
C745 H721 0.950 . S
C745 C744 1.524 . S
C745 C746 1.415 . S
C746 H722 0.950 . S
C746 C741 1.363 . S
C746 C745 1.415 . S
C747 H723 0.951 . S
C747 C748 1.366 . S
C747 C749 1.388 . S
C748 C747 1.366 . S
C748 C752 1.385 . S
C749 H724 0.951 . S
C749 C747 1.388 . S
C749 C750 1.366 . S
C750 C749 1.366 . S
C750 C751 1.414 . S
C750 C753 1.499 . S
C751 H725 0.950 . S
C751 C750 1.414 . S
C751 C752 1.374 . S
C752 H726 0.950 . S
C752 C748 1.385 . S
C752 C751 1.374 . S
C753 C750 1.499 . S
C753 C754 1.373 . S
C753 C755 1.389 . S
C754 H727 0.951 1_545 S
C754 C740 1.376 1_545 S
C754 C753 1.373 . S
C755 C739 1.377 . S
C755 C753 1.389 . S
C755 C756 1.524 . S
C756 C755 1.524 . S
C756 C757 1.397 . S
C756 C761 1.363 . S
C757 H728 0.950 . S
C757 C756 1.397 . S
C757 C758 1.334 . S
C758 H729 0.950 . S
C758 C757 1.334 . S
C758 C759 1.287 . S
C759 C758 1.287 . S
C759 C760 1.524 . S
C759 H762 0.999 . S
C760 H730 0.950 . S
C760 C759 1.524 . S
C760 C761 1.415 . S
C761 H731 0.950 . S
C761 C756 1.363 . S
C761 C760 1.415 . S
H762 C759 0.999 . S
H763 C744 0.913 . S
H764 C782 0.951 . S
H765 C784 0.951 . S
H766 C786 0.950 . S
H767 C787 0.950 . S
H768 C789 0.950 . S
H769 C792 0.950 . S
H770 C793 0.950 . S
H771 C795 0.950 . S
H772 C796 0.950 . S
H773 C797 0.951 . S
H774 C799 0.951 . S
H775 C801 0.950 . S
H776 C802 0.950 . S
H777 C804 0.950 . S
H778 C807 0.950 . S
H779 C808 0.950 . S
H780 C810 0.950 . S
H781 C811 0.950 . S
C782 H764 0.951 . S
C782 C783 1.366 . S
C782 C784 1.388 . S
C783 C782 1.366 . S
C783 C787 1.385 . S
C784 H765 0.951 . S
C784 C782 1.388 . S
C784 C785 1.366 . S
C785 C784 1.366 . S
C785 C786 1.414 . S
C785 C788 1.499 . S
C786 H766 0.950 . S
C786 C785 1.414 . S
C786 C787 1.374 . S
C787 H767 0.950 . S
C787 C783 1.385 . S
C787 C786 1.374 . S
C788 C785 1.499 . S
C788 C789 1.373 . S
C788 C790 1.389 . S
C789 H768 0.950 . S
C789 C788 1.373 . S
C789 C805 1.377 . S
C790 C788 1.389 . S
C790 C791 1.524 . S
C790 C804 1.377 . S
C791 C790 1.524 . S
C791 C792 1.397 . S
C791 C796 1.363 . S
C792 H769 0.950 . S
C792 C791 1.397 . S
C792 C793 1.334 . S
C793 H770 0.950 . S
C793 C792 1.334 . S
C793 C794 1.287 . S
C794 C793 1.287 . S
C794 C795 1.524 . S
C794 H813 0.913 . S
C795 H771 0.950 . S
C795 C794 1.524 . S
C795 C796 1.415 . S
C796 H772 0.950 . S
C796 C791 1.363 . S
C796 C795 1.415 . S
C797 H773 0.951 . S
C797 C798 1.366 . S
C797 C799 1.388 . S
C798 C797 1.366 . S
C798 C802 1.385 . S
C799 H774 0.951 . S
C799 C797 1.388 . S
C799 C800 1.353 1_556 S
C800 C799 1.353 1_554 S
C800 C801 1.416 . S
C800 C803 1.510 . S
C801 H775 0.950 . S
C801 C800 1.416 . S
C801 C802 1.374 1_554 S
C802 H776 0.950 . S
C802 C798 1.385 . S
C802 C801 1.374 1_556 S
C803 C800 1.510 . S
C803 C804 1.373 . S
C803 C805 1.389 . S
C804 H777 0.950 . S
C804 C790 1.377 . S
C804 C803 1.373 . S
C805 C789 1.377 . S
C805 C803 1.389 . S
C805 C806 1.524 1_554 S
C806 C805 1.524 1_556 S
C806 C807 1.397 . S
C806 C811 1.363 . S
C807 H778 0.950 . S
C807 C806 1.397 . S
C807 C808 1.334 . S
C808 H779 0.950 . S
C808 C807 1.334 . S
C808 C809 1.287 . S
C809 C808 1.287 . S
C809 C810 1.524 . S
C809 H812 0.999 . S
C810 H780 0.950 . S
C810 C809 1.524 . S
C810 C811 1.415 . S
C811 H781 0.950 . S
C811 C806 1.363 . S
C811 C810 1.415 . S
H812 C809 0.999 . S
H813 C794 0.913 . S
H814 C832 0.951 . S
H815 C834 0.951 . S
H816 C836 0.950 1_655 S
H817 C837 0.950 1_655 S
H818 C839 0.950 . S
H819 C842 0.950 . S
H820 C843 0.950 . S
H821 C845 0.950 . S
H822 C846 0.950 . S
H823 C847 0.951 . S
H824 C849 0.951 . S
H825 C851 0.950 . S
H826 C852 0.950 . S
H827 C854 0.950 . S
H828 C857 0.950 . S
H829 C858 0.950 . S
H830 C860 0.950 . S
H831 C861 0.950 . S
C832 H814 0.951 . S
C832 C833 1.366 . S
C832 C834 1.388 . S
C833 C832 1.366 . S
C833 C837 1.385 . S
C834 H815 0.951 . S
C834 C832 1.388 . S
C834 C835 1.366 . S
C835 C834 1.366 . S
C835 C836 1.414 . S
C835 C838 1.499 . S
C836 H816 0.950 1_455 S
C836 C835 1.414 . S
C836 C837 1.374 . S
C837 H817 0.950 1_455 S
C837 C833 1.385 . S
C837 C836 1.374 . S
C838 C835 1.499 . S
C838 C839 1.373 . S
C838 C840 1.389 . S
C839 H818 0.950 . S
C839 C838 1.373 . S
C839 C855 1.377 . S
C840 C838 1.389 . S
C840 C841 1.524 . S
C840 C854 1.377 . S
C841 C840 1.524 . S
C841 C842 1.397 . S
C841 C846 1.363 . S
C842 H819 0.950 . S
C842 C841 1.397 . S
C842 C843 1.334 . S
C843 H820 0.950 . S
C843 C842 1.334 . S
C843 C844 1.287 . S
C844 C843 1.287 . S
C844 C845 1.524 . S
C844 H863 0.913 . S
C845 H821 0.950 . S
C845 C844 1.524 . S
C845 C846 1.415 . S
C846 H822 0.950 . S
C846 C841 1.363 . S
C846 C845 1.415 . S
C847 H823 0.951 . S
C847 C848 1.366 . S
C847 C849 1.388 . S
C848 C847 1.366 . S
C848 C852 1.385 . S
C849 H824 0.951 . S
C849 C847 1.388 . S
C849 C850 1.366 . S
C850 C849 1.366 . S
C850 C851 1.414 . S
C850 C853 1.499 . S
C851 H825 0.950 . S
C851 C850 1.414 . S
C851 C852 1.374 . S
C852 H826 0.950 . S
C852 C848 1.385 . S
C852 C851 1.374 . S
C853 C850 1.499 . S
C853 C854 1.373 . S
C853 C855 1.389 . S
C854 H827 0.950 . S
C854 C840 1.377 . S
C854 C853 1.373 . S
C855 C839 1.377 . S
C855 C853 1.389 . S
C855 C856 1.524 1_455 S
C856 C855 1.524 1_655 S
C856 C857 1.397 1_655 S
C856 C861 1.363 . S
C857 H828 0.950 . S
C857 C856 1.397 1_455 S
C857 C858 1.334 1_455 S
C858 H829 0.950 . S
C858 C857 1.334 1_655 S
C858 C859 1.287 . S
C859 C858 1.287 . S
C859 C860 1.524 . S
C859 H862 0.999 . S
C860 H830 0.950 . S
C860 C859 1.524 . S
C860 C861 1.415 . S
C861 H831 0.950 . S
C861 C856 1.363 . S
C861 C860 1.415 . S
H862 C859 0.999 . S
H863 C844 0.913 . S
C298 C81 1.162 . S
C283 C11 1.188 . S
C333 C25 1.206 . S
C348 C155 1.187 . S
C383 C41 2.032 . S
C398 C259 2.120 . S
C433 C7 0.559 1_565 S
C448 C93 0.561 . S
C498 C167 0.603 . S
C483 C21 0.600 . S
C533 C36 1.318 . S
C548 C253 1.284 . S
C598 C185 2.096 . S
C583 C39 2.076 1_655 S
C633 C8 1.271 1_565 S
C648 C229 1.290 . S
C698 C105 1.385 . S
C683 C22 1.422 . S
C748 C179 1.269 . S
C733 C35 1.340 . S
C798 C241 0.660 . S
C783 C13 0.679 . S
C833 C27 2.111 . S
C848 C111 2.207 . S
