# Generated by pormake.
# Topology ant, (3,6)-cn, num edge types: 1
# Building blocks:
#     Node 0, Type 0, BuildingBlock: CUQRIR_clean_linker_1, # of connection points: 3
#     Node 1, Type 0, BuildingBlock: CUQRIR_clean_linker_1, # of connection points: 3
#     Node 2, Type 0, BuildingBlock: CUQRIR_clean_linker_1, # of connection points: 3
#     Node 3, Type 0, BuildingBlock: CUQRIR_clean_linker_1, # of connection points: 3
#     Node 4, Type 0, BuildingBlock: CUQRIR_clean_linker_1, # of connection points: 3
#     Node 5, Type 0, BuildingBlock: CUQRIR_clean_linker_1, # of connection points: 3
#     Node 6, Type 0, BuildingBlock: CUQRIR_clean_linker_1, # of connection points: 3
#     Node 7, Type 0, BuildingBlock: CUQRIR_clean_linker_1, # of connection points: 3
#     Node 8, Type 1, BuildingBlock: MIDCAF_clean_sbu_0, # of connection points: 6
#     Node 9, Type 1, BuildingBlock: MIDCAF_clean_sbu_0, # of connection points: 6
#     Node 10, Type 1, BuildingBlock: MIDCAF_clean_sbu_0, # of connection points: 6
#     Node 11, Type 1, BuildingBlock: MIDCAF_clean_sbu_0, # of connection points: 6
#     Edge 12, Type (0, 1), BuildingBlock: EZIPEK_clean_linker_0, # of connection points: 2
#     Edge 13, Type (0, 1), BuildingBlock: EZIPEK_clean_linker_0, # of connection points: 2
#     Edge 14, Type (0, 1), BuildingBlock: EZIPEK_clean_linker_0, # of connection points: 2
#     Edge 15, Type (0, 1), BuildingBlock: EZIPEK_clean_linker_0, # of connection points: 2
#     Edge 16, Type (0, 1), BuildingBlock: EZIPEK_clean_linker_0, # of connection points: 2
#     Edge 17, Type (0, 1), BuildingBlock: EZIPEK_clean_linker_0, # of connection points: 2
#     Edge 18, Type (0, 1), BuildingBlock: EZIPEK_clean_linker_0, # of connection points: 2
#     Edge 19, Type (0, 1), BuildingBlock: EZIPEK_clean_linker_0, # of connection points: 2
#     Edge 20, Type (0, 1), BuildingBlock: EZIPEK_clean_linker_0, # of connection points: 2
#     Edge 21, Type (0, 1), BuildingBlock: EZIPEK_clean_linker_0, # of connection points: 2
#     Edge 22, Type (0, 1), BuildingBlock: EZIPEK_clean_linker_0, # of connection points: 2
#     Edge 23, Type (0, 1), BuildingBlock: EZIPEK_clean_linker_0, # of connection points: 2
#     Edge 24, Type (0, 1), BuildingBlock: EZIPEK_clean_linker_0, # of connection points: 2
#     Edge 25, Type (0, 1), BuildingBlock: EZIPEK_clean_linker_0, # of connection points: 2
#     Edge 26, Type (0, 1), BuildingBlock: EZIPEK_clean_linker_0, # of connection points: 2
#     Edge 27, Type (0, 1), BuildingBlock: EZIPEK_clean_linker_0, # of connection points: 2
#     Edge 28, Type (0, 1), BuildingBlock: EZIPEK_clean_linker_0, # of connection points: 2
#     Edge 29, Type (0, 1), BuildingBlock: EZIPEK_clean_linker_0, # of connection points: 2
#     Edge 30, Type (0, 1), BuildingBlock: EZIPEK_clean_linker_0, # of connection points: 2
#     Edge 31, Type (0, 1), BuildingBlock: EZIPEK_clean_linker_0, # of connection points: 2
#     Edge 32, Type (0, 1), BuildingBlock: EZIPEK_clean_linker_0, # of connection points: 2
#     Edge 33, Type (0, 1), BuildingBlock: EZIPEK_clean_linker_0, # of connection points: 2
#     Edge 34, Type (0, 1), BuildingBlock: EZIPEK_clean_linker_0, # of connection points: 2
#     Edge 35, Type (0, 1), BuildingBlock: EZIPEK_clean_linker_0, # of connection points: 2
# Relax obj value: 0.112
# Max RMSD: 0.220
# Mean RMSD: 0.145
data_MOF--net-ant--node1-MIDCAF_clean_sbu_0--node2-CUQRIR_clean_linker_1--edge1-EZIPEK_clean_linker_0
_symmetry_space_group_name_H-M    P1
_symmetry_Int_Tables_number       1
_symmetry_cell_setting            triclinic
loop_
_symmetry_equiv_pos_as_xyz
'x, y, z'
_cell_length_a     18.679326
_cell_length_b     18.587107
_cell_length_c     47.390576
_cell_angle_alpha  84.898633
_cell_angle_beta   95.662486
_cell_angle_gamma 89.761412
loop_
_atom_site_label
_atom_site_type_symbol
_atom_site_fract_x
_atom_site_fract_y
_atom_site_fract_z
_atom_type_partial_charge
C0 C 0.21249 0.29992 0.06844 0.0
N1 N 0.2023 0.23574 0.05731 0.0
N2 N 0.19138 0.3551 0.04877 0.0
C3 C 0.23555 0.30868 0.09919 0.0
C4 C 0.16847 0.32244 0.02524 0.0
N5 N 0.17364 0.24982 0.03051 0.0
C6 C 0.13615 0.3614 -0.00206 0.0
H7 H 0.1869 0.31281 0.11065 0.0
H8 H 0.26656 0.35908 0.10122 0.0
H9 H 0.26842 0.26168 0.10923 0.0
H10 H 0.16042 0.41552 -0.00537 0.0
H11 H 0.07766 0.36872 -0.00071 0.0
H12 H 0.14359 0.32993 0.97958 0.0
C13 C 0.07013 0.79917 0.32722 0.0
N14 N 0.12538 0.78854 0.31155 0.0
N15 N 0.00667 0.79621 0.31101 0.0
C16 C 0.07715 0.80889 0.35849 0.0
C17 C 0.0244 0.78561 0.2849 0.0
N18 N 0.09634 0.78111 0.28517 0.0
C19 C 0.97138 0.772 0.25997 0.0
H20 H 0.06066 0.75857 0.37039 0.0
H21 H 0.04014 0.85273 0.36265 0.0
H22 H 0.13315 0.82183 0.3663 0.0
H23 H 0.99157 0.79342 0.2397 0.0
H24 H 0.91816 0.79685 0.2619 0.0
H25 H 0.96455 0.71287 0.25938 0.0
C26 C 0.68843 0.80442 0.57473 0.0
N27 N 0.68675 0.7451 0.55992 0.0
N28 N 0.67573 0.865 0.55683 0.0
C29 C 0.69982 0.80383 0.60658 0.0
C30 C 0.66542 0.84094 0.53076 0.0
N31 N 0.67026 0.76806 0.53258 0.0
C32 C 0.64874 0.88876 0.50371 0.0
H33 H 0.69295 0.74903 0.6172 0.0
H34 H 0.66142 0.84191 0.61405 0.0
H35 H 0.7549 0.82285 0.61275 0.0
H36 H 0.68102 0.93868 0.50422 0.0
H37 H 0.59111 0.90498 0.5018 0.0
H38 H 0.65954 0.86039 0.48491 0.0
C39 C 0.5602 0.29907 0.83636 0.0
N40 N 0.61158 0.29024 0.81868 0.0
N41 N 0.49411 0.29868 0.82191 0.0
C42 C 0.57356 0.30395 0.8679 0.0
C43 C 0.50644 0.29163 0.79477 0.0
N44 N 0.57768 0.28675 0.79278 0.0
C45 C 0.44878 0.28262 0.77089 0.0
H46 H 0.55874 0.25216 0.87923 0.0
H47 H 0.53861 0.34687 0.87429 0.0
H48 H 0.63076 0.31555 0.87436 0.0
H49 H 0.46676 0.3034 0.75012 0.0
H50 H 0.39837 0.31087 0.7744 0.0
H51 H 0.43729 0.22426 0.77013 0.0
C52 C 0.01334 0.68221 0.90165 0.0
N53 N 0.02485 0.73432 0.91985 0.0
N54 N 0.97955 0.62443 0.91402 0.0
C55 C 0.03834 0.68715 0.87235 0.0
C56 C 0.97012 0.64477 0.94026 0.0
N57 N 0.9998 0.70976 0.94411 0.0
C58 C 0.93164 0.60174 0.96248 0.0
H59 H 0.05087 0.63291 0.86595 0.0
H60 H 0.08678 0.72122 0.87144 0.0
H61 H 0.99541 0.71301 0.85687 0.0
H62 H 0.97118 0.58001 0.98024 0.0
H63 H 0.90066 0.55688 0.95351 0.0
H64 H 0.89413 0.63759 0.97161 0.0
C65 C 0.70762 0.83612 0.15409 0.0
N66 N 0.75184 0.80607 0.17678 0.0
N67 N 0.63758 0.82074 0.15706 0.0
C68 C 0.73343 0.87921 0.12885 0.0
C69 C 0.64069 0.78021 0.18223 0.0
N70 N 0.7092 0.77216 0.19459 0.0
C71 C 0.57558 0.75079 0.19558 0.0
H72 H 0.7764 0.91638 0.1361 0.0
H73 H 0.68864 0.91038 0.11618 0.0
H74 H 0.75708 0.84199 0.11512 0.0
H75 H 0.53359 0.73567 0.17898 0.0
H76 H 0.5527 0.79309 0.2073 0.0
H77 H 0.59014 0.70288 0.21078 0.0
C78 C 0.5262 0.18879 0.40556 0.0
N79 N 0.53553 0.23916 0.42468 0.0
N80 N 0.49708 0.12738 0.41729 0.0
C81 C 0.54709 0.19948 0.37567 0.0
C82 C 0.48843 0.1431 0.4442 0.0
N83 N 0.51296 0.20984 0.44886 0.0
C84 C 0.45784 0.09262 0.46649 0.0
H85 H 0.55865 0.14712 0.3674 0.0
H86 H 0.59499 0.2343 0.37471 0.0
H87 H 0.5022 0.22716 0.36173 0.0
H88 H 0.50207 0.07067 0.48231 0.0
H89 H 0.42853 0.04746 0.457 0.0
H90 H 0.42041 0.12249 0.47813 0.0
C91 C 0.20478 0.35226 0.66116 0.0
N92 N 0.24991 0.32397 0.68384 0.0
N93 N 0.13544 0.33453 0.66435 0.0
C94 C 0.22899 0.39606 0.63577 0.0
C95 C 0.13997 0.2943 0.68963 0.0
N96 N 0.20876 0.2886 0.70181 0.0
C97 C 0.07598 0.26349 0.70335 0.0
H98 H 0.27081 0.43464 0.64283 0.0
H99 H 0.18317 0.42573 0.62314 0.0
H100 H 0.25363 0.35948 0.62206 0.0
H101 H 0.03392 0.2474 0.68697 0.0
H102 H 0.05259 0.30534 0.71514 0.0
H103 H 0.09192 0.21597 0.71857 0.0
Zn104 Zn 0.27056 0.68534 0.13738 0.0
Zn105 Zn 0.09392 0.85765 0.10097 0.0
Zn106 Zn 0.18363 0.78078 0.11471 0.0
C107 C 0.10498 0.79337 0.05413 0.0
C108 C 0.1942 0.94523 0.10921 0.0
O109 O 0.1611 0.75769 0.15854 0.0
O110 O 0.25284 0.68761 0.17767 0.0
C111 C 0.19925 0.62336 0.09295 0.0
O112 O 0.13254 0.74777 0.07438 0.0
O113 O 0.09608 0.85839 0.05885 0.0
O114 O 0.1414 0.93447 0.12353 0.0
O115 O 0.22518 0.8894 0.10143 0.0
O116 O 0.23869 0.60436 0.11555 0.0
O117 O 0.17544 0.68882 0.08778 0.0
O118 O 0.29125 0.83375 0.11558 0.0
O119 O 0.35795 0.73515 0.1272 0.0
C120 C 0.35352 0.80225 0.12033 0.0
O121 O 0.0938 0.78051 0.14546 0.0
O122 O 1.00425 0.82094 0.11432 0.0
C123 C 0.19784 0.72482 0.1804 0.0
C124 C 0.02553 0.79307 0.13887 0.0
Zn125 Zn 0.53154 0.61277 0.32815 0.0
Zn126 Zn 0.6432 0.79955 0.3858 0.0
Zn127 Zn 0.5801 0.70424 0.36507 0.0
C128 C 0.52272 0.86702 0.36973 0.0
C129 C 0.74018 0.76983 0.3569 0.0
O130 O 0.57909 0.59496 0.38992 0.0
O131 O 0.55012 0.52469 0.35522 0.0
C132 C 0.42196 0.71527 0.33729 0.0
O133 O 0.50669 0.79917 0.37129 0.0
O134 O 0.58694 0.88399 0.36713 0.0
O135 O 0.74324 0.80114 0.3794 0.0
O136 O 0.68255 0.73753 0.34783 0.0
O137 O 0.43368 0.65886 0.3253 0.0
O138 O 0.47185 0.74359 0.35309 0.0
O139 O 0.64032 0.70909 0.32648 0.0
O140 O 0.59197 0.6353 0.29602 0.0
C141 C 0.63716 0.68329 0.30197 0.0
O142 O 0.606 0.65082 0.40736 0.0
O143 O 0.62707 0.75687 0.42405 0.0
C144 C 0.56723 0.53163 0.3813 0.0
C145 C 0.6188 0.68954 0.42836 0.0
Zn146 Zn 0.58677 0.38379 0.60524 0.0
Zn147 Zn 0.76457 0.19799 0.6467 0.0
Zn148 Zn 0.67913 0.29537 0.62088 0.0
C149 C 0.85079 0.3116 0.62872 0.0
C150 C 0.69301 0.13433 0.60215 0.0
O151 O 0.58907 0.30113 0.65081 0.0
O152 O 0.50277 0.36687 0.62544 0.0
C153 C 0.70701 0.46132 0.60809 0.0
O154 O 0.78919 0.34367 0.62226 0.0
O155 O 0.85405 0.24545 0.63744 0.0
O156 O 0.73196 0.11689 0.62503 0.0
O157 O 0.67054 0.19996 0.59583 0.0
O158 O 0.64528 0.46737 0.61626 0.0
O159 O 0.73261 0.39752 0.6067 0.0
O160 O 0.62971 0.25795 0.58104 0.0
O161 O 0.57136 0.35922 0.56505 0.0
C162 C 0.59209 0.29663 0.56098 0.0
O163 O 0.65419 0.27499 0.66482 0.0
O164 O 0.74133 0.20227 0.68627 0.0
C165 C 0.52391 0.32705 0.64751 0.0
C166 C 0.68669 0.24143 0.68751 0.0
Zn167 Zn 0.02312 0.11932 0.82715 0.0
Zn168 Zn 0.12226 0.28457 0.89625 0.0
Zn169 Zn 0.06753 0.20093 0.86816 0.0
C170 C 0.08583 0.17201 0.93276 0.0
C171 C 0.01061 0.35972 0.87302 0.0
O172 O 0.13644 0.21556 0.83232 0.0
O173 O 0.08894 0.15242 0.798 0.0
C174 C 0.05692 0.02869 0.87841 0.0
O175 O 0.08811 0.13984 0.90995 0.0
O176 O 0.08528 0.24017 0.93129 0.0
O177 O 0.07676 0.37319 0.87543 0.0
O178 O 0.99142 0.2931 0.87269 0.0
O179 O 0.04244 0.02696 0.85185 0.0
O180 O 0.06578 0.0895 0.88932 0.0
O181 O 0.95862 0.23937 0.85467 0.0
O182 O 0.92332 0.16125 0.82357 0.0
C183 C 0.91001 0.21426 0.83726 0.0
O184 O 0.17256 0.23926 0.85609 0.0
O185 O 0.2266 0.27763 0.89556 0.0
C186 C 0.13535 0.19656 0.80678 0.0
C187 C 0.22898 0.26193 0.87039 0.0
C188 C 0.24311 0.47663 0.04864 0.0
C189 C 0.18485 0.43034 0.05331 0.0
C190 C 0.12282 0.52512 0.07469 0.0
C191 C 0.18437 0.56859 0.07258 0.0
N192 N 0.29446 0.59608 0.05194 0.0
N193 N 0.06356 0.41249 0.06482 0.0
C194 C 0.24146 0.54778 0.05735 0.0
C195 C 0.12236 0.45573 0.06419 0.0
N196 N 0.30122 0.4506 0.03718 0.0
N197 N 0.06704 0.54904 0.08817 0.0
H198 H 0.01413 0.42838 0.07071 0.0
H199 H 0.06322 0.36096 0.05782 0.0
H200 H 0.06543 0.60102 0.09482 0.0
H201 H 0.02307 0.518 0.09315 0.0
H202 H 0.34889 0.47853 0.03533 0.0
H203 H 0.30241 0.39891 0.03023 0.0
H204 H 0.33578 0.58691 0.03947 0.0
H205 H 0.29395 0.64825 0.05847 0.0
C206 C 0.91251 0.71818 0.32885 0.0
C207 C 0.93685 0.78815 0.3205 0.0
C208 C 0.82218 0.84142 0.32821 0.0
C209 C 0.80226 0.77323 0.34059 0.0
N210 N 0.82636 0.64637 0.35362 0.0
N211 N 0.91867 0.91625 0.3119 0.0
C212 C 0.84625 0.71105 0.34078 0.0
C213 C 0.89245 0.84983 0.31988 0.0
N214 N 0.95268 0.65893 0.325 0.0
N215 N 0.77325 0.89722 0.32406 0.0
H216 H 0.96987 0.92302 0.30508 0.0
H217 H 0.89184 0.96464 0.31357 0.0
H218 H 0.72073 0.89179 0.32964 0.0
H219 H 0.78231 0.94665 0.31295 0.0
H220 H 0.93454 0.60614 0.32775 0.0
H221 H 1.00247 0.66273 0.3169 0.0
H222 H 0.86005 0.60109 0.35743 0.0
H223 H 0.77705 0.63871 0.36196 0.0
C224 C 0.65297 0.61692 0.56299 0.0
C225 C 0.70184 0.67072 0.57083 0.0
C226 C 0.77595 0.57675 0.59978 0.0
C227 C 0.72836 0.52403 0.58945 0.0
N228 N 0.64558 0.49474 0.55025 0.0
N229 N 0.82268 0.69723 0.59021 0.0
C230 C 0.67632 0.54481 0.56665 0.0
C231 C 0.7679 0.64948 0.58725 0.0
N232 N 0.58267 0.6336 0.55483 0.0
N233 N 0.82721 0.55773 0.62159 0.0
H234 H 0.81958 0.74921 0.57987 0.0
H235 H 0.8732 0.68254 0.60051 0.0
H236 H 0.83496 0.50397 0.62959 0.0
H237 H 0.85923 0.59519 0.63189 0.0
H238 H 0.54461 0.59433 0.55014 0.0
H239 H 0.56219 0.68495 0.55677 0.0
H240 H 0.60708 0.5086 0.5331 0.0
H241 H 0.66659 0.44224 0.55201 0.0
C242 C 0.71079 0.2116 0.84353 0.0
C243 C 0.68737 0.27571 0.82649 0.0
C244 C 0.81142 0.30177 0.81723 0.0
C245 C 0.83508 0.24034 0.8356 0.0
N246 N 0.8099 0.14683 0.87169 0.0
N247 N 0.7174 0.39245 0.80549 0.0
C248 C 0.7855 0.1986 0.8506 0.0
C249 C 0.73844 0.32413 0.81583 0.0
N250 N 0.66222 0.16148 0.85192 0.0
N251 N 0.85756 0.33694 0.8003 0.0
H252 H 0.66516 0.4112 0.80662 0.0
H253 H 0.75333 0.43207 0.79919 0.0
H254 H 0.91153 0.32165 0.80078 0.0
H255 H 0.84076 0.37775 0.78447 0.0
H256 H 0.67693 0.11024 0.86149 0.0
H257 H 0.60703 0.16849 0.84723 0.0
H258 H 0.77647 0.11947 0.88525 0.0
H259 H 0.86454 0.13635 0.87744 0.0
C260 C 0.93477 0.54522 0.8761 0.0
C261 C 0.96819 0.55331 0.90387 0.0
C262 C 0.97465 0.42194 0.91199 0.0
C263 C 0.96447 0.41586 0.88252 0.0
N264 N 0.93587 0.47457 0.83548 0.0
N265 N 0.03886 0.49407 0.94508 0.0
C266 C 0.94333 0.47826 0.86416 0.0
C267 C 0.99233 0.49013 0.92133 0.0
N268 N 0.89573 0.60078 0.86131 0.0
N269 N 0.97544 0.36179 0.93066 0.0
H270 H 0.06196 0.54204 0.95079 0.0
H271 H 0.06174 0.44814 0.95663 0.0
H272 H 0.96204 0.31132 0.92376 0.0
H273 H 0.98136 0.36434 0.95268 0.0
H274 H 0.86723 0.5959 0.84154 0.0
H275 H 0.88648 0.64874 0.87037 0.0
H276 H 0.92682 0.52 0.82097 0.0
H277 H 0.94338 0.42605 0.82664 0.0
C278 C 0.88251 0.83383 0.18652 0.0
C279 C 0.8276 0.78872 0.17527 0.0
C280 C 0.91863 0.7246 0.15228 0.0
C281 C 0.96935 0.77837 0.15881 0.0
N282 N 1.00251 0.88282 0.18317 0.0
N283 N 0.79311 0.69093 0.14688 0.0
C284 C 0.95262 0.83168 0.17683 0.0
C285 C 0.84605 0.73304 0.15842 0.0
N286 N 0.86715 0.87926 0.20616 0.0
N287 N 0.94021 0.66611 0.13961 0.0
H288 H 0.74006 0.69352 0.15182 0.0
H289 H 0.80091 0.65579 0.13151 0.0
H290 H 0.99337 0.65952 0.13511 0.0
H291 H 0.90798 0.62156 0.13614 0.0
H292 H 0.90536 0.90988 0.21705 0.0
H293 H 0.81671 0.88088 0.21345 0.0
H294 H 0.99198 0.92833 0.19345 0.0
H295 H 0.05462 0.8806 0.17712 0.0
C296 C 0.61738 0.34313 0.4152 0.0
C297 C 0.54715 0.316 0.41803 0.0
C298 C 0.49758 0.43934 0.4077 0.0
C299 C 0.56577 0.46488 0.40119 0.0
N300 N 0.69178 0.44356 0.39926 0.0
N301 N 0.41924 0.33625 0.41097 0.0
C302 C 0.6264 0.41758 0.40561 0.0
C303 C 0.48696 0.36381 0.41308 0.0
N304 N 0.67494 0.29697 0.42078 0.0
N305 N 0.4425 0.48765 0.40811 0.0
H306 H 0.40979 0.28087 0.41246 0.0
H307 H 0.37309 0.36756 0.40472 0.0
H308 H 0.44953 0.54324 0.40433 0.0
H309 H 0.39283 0.47337 0.41501 0.0
H310 H 0.72826 0.3133 0.42216 0.0
H311 H 0.66879 0.24148 0.4246 0.0
H312 H 0.73744 0.41152 0.39898 0.0
H313 H 0.69968 0.49831 0.39356 0.0
C314 C 0.01931 0.39934 0.65874 0.0
C315 C 0.06908 0.35587 0.64706 0.0
C316 C 0.97217 0.32225 0.61218 0.0
C317 C 0.92081 0.34923 0.62884 0.0
N318 N 0.89608 0.41127 0.66948 0.0
N319 N 0.09394 0.27626 0.61191 0.0
C320 C 0.94433 0.38934 0.65205 0.0
C321 C 0.04623 0.31903 0.62294 0.0
N322 N 0.0444 0.44725 0.67738 0.0
N323 N 0.94904 0.29645 0.58682 0.0
H324 H 0.14817 0.27267 0.61961 0.0
H325 H 0.07906 0.24158 0.59632 0.0
H326 H 0.89469 0.29808 0.57903 0.0
H327 H 0.98375 0.28016 0.57264 0.0
H328 H 0.01129 0.48392 0.68552 0.0
H329 H 0.09946 0.45486 0.68206 0.0
H330 H 0.91132 0.43282 0.6887 0.0
H331 H 0.84076 0.40438 0.66537 0.0
C332 C 0.37798 0.35918 0.69429 0.0
C333 C 0.32649 0.31104 0.68278 0.0
C334 C 0.42258 0.25122 0.66114 0.0
C335 C 0.46941 0.30819 0.66761 0.0
N336 N 0.49464 0.41549 0.69114 0.0
N337 N 0.29912 0.21202 0.65412 0.0
C338 C 0.44846 0.36099 0.68505 0.0
C339 C 0.34904 0.2563 0.66631 0.0
N340 N 0.35899 0.40395 0.71359 0.0
N341 N 0.44838 0.1935 0.64915 0.0
H342 H 0.24528 0.21252 0.65819 0.0
H343 H 0.31025 0.17726 0.63901 0.0
H344 H 0.50223 0.18953 0.6452 0.0
H345 H 0.41879 0.14714 0.64578 0.0
H346 H 0.39523 0.43591 0.72483 0.0
H347 H 0.3077 0.40391 0.72016 0.0
H348 H 0.48055 0.46079 0.7009 0.0
H349 H 0.54706 0.41624 0.68527 0.0
C350 C 0.5488 0.80843 0.11514 0.0
C351 C 0.57181 0.84382 0.13962 0.0
C352 C 0.44722 0.88001 0.14403 0.0
C353 C 0.42353 0.8405 0.12062 0.0
N354 N 0.45216 0.78961 0.07829 0.0
N355 N 0.54807 0.93414 0.17053 0.0
C356 C 0.47504 0.81365 0.10399 0.0
C357 C 0.52243 0.88785 0.15131 0.0
N358 N 0.59582 0.76491 0.1041 0.0
N359 N 0.39864 0.90377 0.16094 0.0
H360 H 0.60321 0.93968 0.17585 0.0
H361 H 0.51567 0.97136 0.17871 0.0
H362 H 0.34327 0.89878 0.15632 0.0
H363 H 0.41345 0.92496 0.18026 0.0
H364 H 0.58048 0.73119 0.08821 0.0
H365 H 0.64974 0.75949 0.11211 0.0
H366 H 0.48706 0.77355 0.06413 0.0
H367 H 0.39799 0.79261 0.07025 0.0
C368 C 0.38644 0.35121 0.8378 0.0
C369 C 0.42673 0.28944 0.83361 0.0
C370 C 0.33432 0.20944 0.8512 0.0
C371 C 0.29591 0.2714 0.85702 0.0
N372 N 0.28186 0.4008 0.85621 0.0
N373 N 0.44318 0.16071 0.83585 0.0
C374 C 0.32094 0.34237 0.85041 0.0
C375 C 0.40153 0.21868 0.84001 0.0
N376 N 0.41078 0.4179 0.82894 0.0
N377 N 0.30628 0.14212 0.8564 0.0
H378 H 0.49095 0.1661 0.82636 0.0
H379 H 0.43252 0.10737 0.84248 0.0
H380 H 0.25907 0.13294 0.86613 0.0
H381 H 0.32759 0.09497 0.85017 0.0
H382 H 0.38226 0.46596 0.82914 0.0
H383 H 0.45936 0.42496 0.81995 0.0
H384 H 0.29963 0.45376 0.85437 0.0
H385 H 0.23126 0.39643 0.8637 0.0
C386 C 0.22213 0.71462 0.34056 0.0
C387 C 0.2003 0.77627 0.32172 0.0
C388 C 0.32579 0.80268 0.31505 0.0
C389 C 0.34763 0.7432 0.33477 0.0
N390 N 0.31872 0.65388 0.37177 0.0
N391 N 0.23168 0.8913 0.29959 0.0
C392 C 0.29633 0.70305 0.34942 0.0
C393 C 0.25239 0.82419 0.31155 0.0
N394 N 0.17278 0.66522 0.34888 0.0
N395 N 0.37414 0.8365 0.29876 0.0
H396 H 0.17882 0.90978 0.29931 0.0
H397 H 0.26803 0.93067 0.29346 0.0
H398 H 0.42873 0.82254 0.30103 0.0
H399 H 0.35897 0.87526 0.28193 0.0
H400 H 0.1868 0.61541 0.35993 0.0
H401 H 0.11796 0.67093 0.34272 0.0
H402 H 0.28373 0.62778 0.385 0.0
H403 H 0.37297 0.64463 0.37878 0.0
C404 C 0.61165 0.96863 0.57237 0.0
C405 C 0.67495 0.9388 0.56373 0.0
C406 C 0.73726 0.05278 0.56919 0.0
C407 C 0.67855 0.07782 0.5825 0.0
N408 N 0.55814 0.0639 0.59578 0.0
N409 N 0.79808 0.94978 0.55369 0.0
C410 C 0.61447 0.03757 0.58329 0.0
C411 C 0.73756 0.98061 0.56165 0.0
N412 N 0.54942 0.93039 0.57016 0.0
N413 N 0.79264 0.09837 0.56407 0.0
H414 H 0.79931 0.89694 0.54793 0.0
H415 H 0.84798 0.9746 0.55443 0.0
H416 H 0.79271 0.15175 0.56934 0.0
H417 H 0.83477 0.08584 0.55246 0.0
H418 H 0.49957 0.95082 0.57385 0.0
H419 H 0.54712 0.87915 0.56275 0.0
H420 H 0.51264 0.0343 0.59998 0.0
H421 H 0.55813 0.1156 0.60276 0.0
C422 C 0.26988 0.12527 0.07856 0.0
C423 C 0.20482 0.1656 0.07293 0.0
C424 C 0.13639 0.06036 0.08621 0.0
C425 C 0.20097 0.01945 0.09477 0.0
N426 N 0.33083 0.01716 0.1018 0.0
N427 N 0.08279 0.17889 0.08315 0.0
C428 C 0.26856 0.05293 0.09158 0.0
C429 C 0.14023 0.13545 0.08053 0.0
N430 N 0.33256 0.15669 0.07183 0.0
N431 N 0.07137 0.02781 0.0816 0.0
H432 H 0.08646 0.23504 0.08124 0.0
H433 H 0.03541 0.15916 0.09072 0.0
H434 H 0.06552 0.97223 0.08205 0.0
H435 H 0.02474 0.05649 0.0733 0.0
H436 H 0.38099 0.12849 0.07232 0.0
H437 H 0.335 0.21129 0.06468 0.0
H438 H 0.38132 0.04081 0.10273 0.0
H439 H 0.33133 0.96454 0.11107 0.0
C440 C 0.44725 0.05014 0.37933 0.0
C441 C 0.48823 0.05748 0.40579 0.0
C442 C 0.50315 0.92637 0.41185 0.0
C443 C 0.48133 0.92145 0.3828 0.0
N444 N 0.43379 0.9815 0.33785 0.0
N445 N 0.57355 1.00021 0.44263 0.0
C446 C 0.45255 0.98415 0.36622 0.0
C447 C 0.52065 0.99478 0.42108 0.0
N448 N 0.40378 0.10547 0.36689 0.0
N449 N 0.51283 0.8654 0.43005 0.0
H450 H 0.59344 0.04956 0.44836 0.0
H451 H 0.60402 0.95554 0.45169 0.0
H452 H 0.49835 0.81479 0.42357 0.0
H453 H 0.52712 0.86705 0.45184 0.0
H454 H 0.36942 0.10112 0.34843 0.0
H455 H 0.39744 0.1528 0.37675 0.0
H456 H 0.4189 0.02714 0.32408 0.0
H457 H 0.4373 0.9335 0.32824 0.0
C458 C 0.97568 0.8576 0.90674 0.0
C459 C 0.03616 0.8103 0.91191 0.0
C460 C 0.11529 0.91214 0.9004 0.0
C461 C 0.05446 0.95919 0.89629 0.0
N462 N 0.93065 0.98087 0.90289 0.0
N463 N 0.16416 0.7919 0.91585 0.0
C464 C 0.986 0.93311 0.90208 0.0
C465 C 0.10642 0.83764 0.90967 0.0
N466 N 0.90807 0.82975 0.90421 0.0
N467 N 0.18073 0.93845 0.89429 0.0
H468 H 0.15825 0.7364 0.91983 0.0
H469 H 0.21732 0.80875 0.91773 0.0
H470 H 0.18873 0.99329 0.88881 0.0
H471 H 0.22628 0.90635 0.89381 0.0
H472 H 0.86203 0.86095 0.89758 0.0
H473 H 0.89855 0.77439 0.9061 0.0
H474 H 0.8808 0.96572 0.90941 0.0
H475 H 0.9375 0.03662 0.89996 0.0
C476 C 0.07237 0.1899 0.00416 0.0
C477 C 0.14771 0.19754 0.01113 0.0
C478 C 0.17065 0.12569 0.97197 0.0
C479 C 0.09782 0.13469 0.96156 0.0
N480 N 0.97687 0.14155 0.97248 0.0
N481 N 0.26925 0.17172 0.0021 0.0
C482 C 0.04788 0.15328 0.98002 0.0
C483 C 0.19726 0.16252 -0.00416 0.0
N484 N 0.02495 0.22389 0.01877 0.0
N485 N 0.21431 0.08706 0.95735 0.0
H486 H 0.28947 0.20347 0.01798 0.0
H487 H 0.30839 0.15262 0.99037 0.0
H488 H 0.19361 0.0622 0.93941 0.0
H489 H 0.26799 0.07479 0.96421 0.0
H490 H 0.96955 0.22546 0.01347 0.0
H491 H 0.04181 0.25472 0.03535 0.0
H492 H 0.93604 0.15046 0.98525 0.0
H493 H 0.96054 0.11727 0.95387 0.0
C494 C 0.14554 0.82429 0.24089 0.0
C495 C 0.13319 0.76653 0.26117 0.0
C496 C 0.16266 0.67922 0.22832 0.0
C497 C 0.17978 0.7376 0.20893 0.0
N498 N 0.20669 0.86426 0.19994 0.0
N499 N 0.13497 0.63969 0.27611 0.0
C500 C 0.17741 0.80977 0.21624 0.0
C501 C 0.14444 0.69406 0.25559 0.0
N502 N 0.12212 0.8924 0.24425 0.0
N503 N 0.15929 0.61059 0.22002 0.0
H504 H 0.11628 0.64938 0.29539 0.0
H505 H 0.14946 0.58607 0.27476 0.0
H506 H 0.17079 0.59799 0.19993 0.0
H507 H 0.13995 0.56682 0.23215 0.0
H508 H 0.12293 0.93526 0.22854 0.0
H509 H 0.09536 0.90439 0.26158 0.0
H510 H 0.21194 0.91671 0.20595 0.0
H511 H 0.23231 0.85562 0.18192 0.0
C512 C 0.70884 0.68647 0.49808 0.0
C513 C 0.65309 0.72342 0.50942 0.0
C514 C 0.56541 0.6828 0.47249 0.0
C515 C 0.62266 0.66042 0.45821 0.0
N516 N 0.74302 0.61669 0.46 0.0
N517 N 0.52761 0.75767 0.50761 0.0
C518 C 0.69243 0.65255 0.47245 0.0
C519 C 0.58067 0.72052 0.49701 0.0
N520 N 0.77776 0.68957 0.51047 0.0
N521 N 0.49684 0.67184 0.46107 0.0
H522 H 0.53653 0.78502 0.52587 0.0
H523 H 0.47551 0.76428 0.49765 0.0
H524 H 0.48702 0.64566 0.44246 0.0
H525 H 0.45121 0.68275 0.47101 0.0
H526 H 0.82198 0.66626 0.50293 0.0
H527 H 0.79123 0.71832 0.5281 0.0
H528 H 0.79568 0.6068 0.46886 0.0
H529 H 0.72955 0.5931 0.44099 0.0
C530 C 0.62044 0.20331 0.76036 0.0
C531 C 0.61007 0.27471 0.76737 0.0
C532 C 0.65798 0.32306 0.72375 0.0
C533 C 0.66181 0.25199 0.7153 0.0
N534 N 0.63642 0.12496 0.72318 0.0
N535 N 0.60109 0.40198 0.75294 0.0
C536 C 0.64083 0.19191 0.73305 0.0
C537 C 0.62381 0.33455 0.74827 0.0
N538 N 0.60931 0.14667 0.77969 0.0
N539 N 0.68901 0.37916 0.70896 0.0
H540 H 0.57348 0.41165 0.77034 0.0
H541 H 0.60377 0.44689 0.73829 0.0
H542 H 0.71641 0.3728 0.69118 0.0
H543 H 0.69354 0.43067 0.71597 0.0
H544 H 0.62351 0.09348 0.77733 0.0
H545 H 0.5896 0.15386 0.79903 0.0
H546 H 0.61452 0.0805 0.73404 0.0
H547 H 0.649 0.11492 0.70293 0.0
C548 C 0.97983 0.76749 0.98773 0.0
C549 C 0.02637 0.7321 0.97156 0.0
C550 C 0.12569 0.73929 0.00906 0.0
C551 C 0.07793 0.77017 0.0261 0.0
N552 N 0.95621 0.80072 0.03424 0.0
N553 N 0.13809 0.6679 0.96973 0.0
C554 C 1.00399 0.7811 0.01612 0.0
C555 C 0.09781 0.71332 0.98305 0.0
N556 N 0.91239 0.78763 0.97591 0.0
N557 N 0.19806 0.73758 0.01706 0.0
H558 H 0.11979 0.64781 0.95056 0.0
H559 H 0.18706 0.64542 0.97887 0.0
H560 H 0.22076 0.75748 0.03576 0.0
H561 H 0.23601 0.72256 0.00391 0.0
H562 H 0.8785 0.82131 0.98514 0.0
H563 H 0.89192 0.77349 0.95595 0.0
H564 H 0.90073 0.80265 0.02906 0.0
H565 H 0.97123 0.80857 0.05551 0.0
C566 C 0.74124 0.6891 0.23779 0.0
C567 C 0.72357 0.75968 0.22525 0.0
C568 C 0.66922 0.78778 0.26821 0.0
C569 C 0.68102 0.71483 0.27952 0.0
N570 N 0.74911 0.60475 0.2803 0.0
N571 N 0.68846 0.88166 0.23095 0.0
C572 C 0.72461 0.66854 0.26605 0.0
C573 C 0.69573 0.81124 0.24186 0.0
N574 N 0.76819 0.64013 0.22176 0.0
N575 N 0.62636 0.83254 0.28091 0.0
H576 H 0.7001 0.89874 0.21038 0.0
H577 H 0.67619 0.92378 0.2428 0.0
H578 H 0.60508 0.81836 0.30007 0.0
H579 H 0.60788 0.88296 0.27172 0.0
H580 H 0.77431 0.58525 0.22823 0.0
H581 H 0.78143 0.65471 0.20126 0.0
H582 H 0.78589 0.5709 0.27267 0.0
H583 H 0.73769 0.58945 0.3011 0.0
C584 C 0.60453 0.22081 0.48964 0.0
C585 C 0.53316 0.23317 0.4768 0.0
C586 C 0.49835 0.27204 0.52163 0.0
C587 C 0.57182 0.2696 0.53287 0.0
N588 N 0.69684 0.25321 0.5255 0.0
N589 N 0.41191 0.27251 0.47992 0.0
C590 C 0.62558 0.24692 0.51638 0.0
C591 C 0.48006 0.25983 0.49262 0.0
N592 N 0.65131 0.18065 0.47698 0.0
N593 N 0.44584 0.28219 0.53911 0.0
H594 H 0.39583 0.2582 0.45953 0.0
H595 H 0.37265 0.30012 0.48898 0.0
H596 H 0.45703 0.28787 0.5608 0.0
H597 H 0.39112 0.27782 0.5329 0.0
H598 H 0.70141 0.16306 0.48687 0.0
H599 H 0.63706 0.15885 0.45779 0.0
H600 H 0.7379 0.24432 0.5128 0.0
H601 H 0.71503 0.27376 0.54465 0.0
C602 C 0.24281 0.20361 0.74405 0.0
C603 C 0.22492 0.27492 0.73234 0.0
C604 C 0.18268 0.30262 0.77776 0.0
C605 C 0.18579 0.22781 0.78671 0.0
N606 N 0.24203 0.11275 0.78442 0.0
N607 N 0.17981 0.39374 0.73795 0.0
C608 C 0.22429 0.18026 0.77182 0.0
C609 C 0.19873 0.32572 0.74975 0.0
N610 N 0.27073 0.15675 0.72738 0.0
N611 N 0.16216 0.35137 0.79545 0.0
H612 H 0.18982 0.41222 0.71734 0.0
H613 H 0.15025 0.43036 0.74766 0.0
H614 H 0.14666 0.33694 0.8156 0.0
H615 H 0.16699 0.40699 0.79128 0.0
H616 H 0.27859 0.10172 0.73299 0.0
H617 H 0.28476 0.17369 0.70722 0.0
H618 H 0.2739 0.07585 0.7759 0.0
H619 H 0.22901 0.09588 0.80488 0.0
loop_
_geom_bond_atom_site_label_1
_geom_bond_atom_site_label_2
_geom_bond_distance
_geom_bond_site_symmetry_2
_ccdc_geom_bond_type
C0 N1 1.317 . S
C0 N2 1.348 . S
C0 C3 1.485 . S
N1 C0 1.317 . S
N1 N5 1.370 . S
N2 C0 1.348 . S
N2 C4 1.346 . S
C3 C0 1.485 . S
C3 H7 0.960 . S
C3 H8 0.961 . S
C3 H9 0.960 . S
C4 N2 1.346 . S
C4 N5 1.307 . S
C4 C6 1.486 . S
N5 N1 1.370 . S
N5 C4 1.307 . S
C6 C4 1.486 . S
C6 H10 0.960 . S
C6 H11 0.960 . S
C6 H12 0.959 . S
H7 C3 0.960 . S
H8 C3 0.961 . S
H9 C3 0.960 . S
H10 C6 0.960 . S
H11 C6 0.960 . S
H12 C6 0.959 . S
C13 N14 1.317 . S
C13 N15 1.348 . S
C13 C16 1.485 . S
N14 C13 1.317 . S
N14 N18 1.370 . S
N15 C13 1.348 . S
N15 C17 1.346 . S
C16 C13 1.485 . S
C16 H20 0.960 . S
C16 H21 0.961 . S
C16 H22 0.960 . S
C17 N15 1.346 . S
C17 N18 1.307 . S
C17 C19 1.486 1_455 S
N18 N14 1.370 . S
N18 C17 1.307 . S
C19 C17 1.486 1_655 S
C19 H23 0.960 . S
C19 H24 0.960 . S
C19 H25 0.959 1_655 S
H20 C16 0.960 . S
H21 C16 0.961 . S
H22 C16 0.960 . S
H23 C19 0.960 . S
H24 C19 0.960 . S
H25 C19 0.959 1_455 S
C26 N27 1.317 . S
C26 N28 1.348 . S
C26 C29 1.485 . S
N27 C26 1.317 . S
N27 N31 1.370 . S
N28 C26 1.348 . S
N28 C30 1.346 . S
C29 C26 1.485 . S
C29 H33 0.960 . S
C29 H34 0.961 . S
C29 H35 0.960 . S
C30 N28 1.346 . S
C30 N31 1.307 . S
C30 C32 1.486 . S
N31 N27 1.370 . S
N31 C30 1.307 . S
C32 C30 1.486 . S
C32 H36 0.960 . S
C32 H37 0.960 . S
C32 H38 0.959 . S
H33 C29 0.960 . S
H34 C29 0.961 . S
H35 C29 0.960 . S
H36 C32 0.960 . S
H37 C32 0.960 . S
H38 C32 0.959 . S
C39 N40 1.317 . S
C39 N41 1.348 . S
C39 C42 1.485 . S
N40 C39 1.317 . S
N40 N44 1.370 . S
N41 C39 1.348 . S
N41 C43 1.346 . S
C42 C39 1.485 . S
C42 H46 0.960 . S
C42 H47 0.961 . S
C42 H48 0.960 . S
C43 N41 1.346 . S
C43 N44 1.307 . S
C43 C45 1.486 . S
N44 N40 1.370 . S
N44 C43 1.307 . S
C45 C43 1.486 . S
C45 H49 0.960 . S
C45 H50 0.960 . S
C45 H51 0.959 . S
H46 C42 0.960 . S
H47 C42 0.961 . S
H48 C42 0.960 . S
H49 C45 0.960 . S
H50 C45 0.960 . S
H51 C45 0.959 . S
C52 N53 1.317 . S
C52 N54 1.348 . S
C52 C55 1.485 . S
N53 C52 1.317 . S
N53 N57 1.370 . S
N54 C52 1.348 . S
N54 C56 1.346 . S
C55 C52 1.485 . S
C55 H59 0.956 1_455 S
C55 H60 0.961 . S
C55 H61 0.960 . S
C56 N54 1.346 . S
C56 N57 1.307 . S
C56 C58 1.486 . S
N57 N53 1.370 . S
N57 C56 1.307 . S
C58 C56 1.486 . S
C58 H62 0.960 . S
C58 H63 0.961 . S
C58 H64 0.959 . S
H59 C55 0.956 1_655 S
H60 C55 0.961 . S
H61 C55 0.960 . S
H62 C58 0.960 . S
H63 C58 0.961 . S
H64 C58 0.959 . S
C65 N66 1.317 . S
C65 N67 1.348 . S
C65 C68 1.485 . S
N66 C65 1.317 . S
N66 N70 1.370 . S
N67 C65 1.348 . S
N67 C69 1.346 . S
C68 C65 1.485 . S
C68 H72 0.960 . S
C68 H73 0.961 . S
C68 H74 0.960 . S
C69 N67 1.346 . S
C69 N70 1.307 . S
C69 C71 1.486 . S
N70 N66 1.370 . S
N70 C69 1.307 . S
C71 C69 1.486 . S
C71 H75 0.960 . S
C71 H76 0.960 . S
C71 H77 0.959 . S
H72 C68 0.960 . S
H73 C68 0.961 . S
H74 C68 0.960 . S
H75 C71 0.960 . S
H76 C71 0.960 . S
H77 C71 0.959 . S
C78 N79 1.317 . S
C78 N80 1.348 . S
C78 C81 1.485 . S
N79 C78 1.317 . S
N79 N83 1.370 . S
N80 C78 1.348 . S
N80 C82 1.346 . S
C81 C78 1.485 . S
C81 H85 0.960 . S
C81 H86 0.961 . S
C81 H87 0.960 . S
C82 N80 1.346 . S
C82 N83 1.307 . S
C82 C84 1.486 . S
N83 N79 1.370 . S
N83 C82 1.307 . S
C84 C82 1.486 . S
C84 H88 0.960 . S
C84 H89 0.960 . S
C84 H90 0.959 . S
H85 C81 0.960 . S
H86 C81 0.961 . S
H87 C81 0.960 . S
H88 C84 0.960 . S
H89 C84 0.960 . S
H90 C84 0.959 . S
C91 N92 1.317 . S
C91 N93 1.348 . S
C91 C94 1.485 . S
N92 C91 1.317 . S
N92 N96 1.370 . S
N93 C91 1.348 . S
N93 C95 1.346 . S
C94 C91 1.485 . S
C94 H98 0.960 . S
C94 H99 0.961 . S
C94 H100 0.960 . S
C95 N93 1.346 . S
C95 N96 1.307 . S
C95 C97 1.486 . S
N96 N92 1.370 . S
N96 C95 1.307 . S
C97 C95 1.486 . S
C97 H101 0.960 1_455 S
C97 H102 0.960 1_455 S
C97 H103 0.959 . S
H98 C94 0.960 . S
H99 C94 0.961 . S
H100 C94 0.960 . S
H101 C97 0.960 1_655 S
H102 C97 0.960 1_655 S
H103 C97 0.959 . S
Zn104 O110 1.920 . S
Zn104 O116 1.898 . S
Zn104 O119 1.905 . S
Zn105 O113 1.905 . S
Zn105 O114 1.898 . S
Zn105 O122 1.920 1_455 S
Zn106 O109 2.080 . S
Zn106 O112 2.114 . S
Zn106 O115 2.120 . S
Zn106 O117 2.120 . S
Zn106 O118 2.114 . S
Zn106 O121 2.080 . S
C107 O112 1.166 . S
C107 O113 1.182 . S
C108 O114 1.167 . S
C108 O115 1.299 . S
O109 Zn106 2.080 . S
O109 C123 1.305 . S
O110 Zn104 1.920 . S
O110 C123 1.234 . S
C111 O116 1.167 . S
C111 O117 1.299 . S
O112 Zn106 2.114 . S
O112 C107 1.166 . S
O113 Zn105 1.905 . S
O113 C107 1.182 . S
O114 Zn105 1.898 . S
O114 C108 1.167 . S
O115 Zn106 2.120 . S
O115 C108 1.299 . S
O116 Zn104 1.898 . S
O116 C111 1.167 . S
O117 Zn106 2.120 . S
O117 C111 1.299 . S
O118 Zn106 2.114 . S
O118 C120 1.166 . S
O119 Zn104 1.905 . S
O119 C120 1.182 . S
C120 O118 1.166 . S
C120 O119 1.182 . S
O121 Zn106 2.080 . S
O121 C124 1.305 1_455 S
O122 Zn105 1.920 1_655 S
O122 C124 1.234 . S
C123 O109 1.305 . S
C123 O110 1.234 . S
C124 O121 1.305 1_655 S
C124 O122 1.234 . S
Zn125 O131 1.920 . S
Zn125 O137 1.898 . S
Zn125 O140 1.905 . S
Zn126 O134 1.905 . S
Zn126 O135 1.898 . S
Zn126 O143 1.920 . S
Zn127 O130 2.080 . S
Zn127 O133 2.114 . S
Zn127 O136 2.120 . S
Zn127 O138 2.120 . S
Zn127 O139 2.114 . S
Zn127 O142 2.080 . S
C128 O133 1.166 . S
C128 O134 1.182 . S
C129 O135 1.167 . S
C129 O136 1.299 . S
O130 Zn127 2.080 . S
O130 C144 1.305 . S
O131 Zn125 1.920 . S
O131 C144 1.234 . S
C132 O137 1.167 . S
C132 O138 1.299 . S
O133 Zn127 2.114 . S
O133 C128 1.166 . S
O134 Zn126 1.905 . S
O134 C128 1.182 . S
O135 Zn126 1.898 . S
O135 C129 1.167 . S
O136 Zn127 2.120 . S
O136 C129 1.299 . S
O137 Zn125 1.898 . S
O137 C132 1.167 . S
O138 Zn127 2.120 . S
O138 C132 1.299 . S
O139 Zn127 2.114 . S
O139 C141 1.166 . S
O140 Zn125 1.905 . S
O140 C141 1.182 . S
C141 O139 1.166 . S
C141 O140 1.182 . S
O142 Zn127 2.080 . S
O142 C145 1.305 . S
O143 Zn126 1.920 . S
O143 C145 1.234 . S
C144 O130 1.305 . S
C144 O131 1.234 . S
C145 O142 1.305 . S
C145 O143 1.234 . S
Zn146 O152 1.920 . S
Zn146 O158 1.898 . S
Zn146 O161 1.905 . S
Zn147 O155 1.905 . S
Zn147 O156 1.898 . S
Zn147 O164 1.920 . S
Zn148 O151 2.080 . S
Zn148 O154 2.114 . S
Zn148 O157 2.120 . S
Zn148 O159 2.120 . S
Zn148 O160 2.114 . S
Zn148 O163 2.080 . S
C149 O154 1.166 . S
C149 O155 1.182 . S
C150 O156 1.167 . S
C150 O157 1.299 . S
O151 Zn148 2.080 . S
O151 C165 1.305 . S
O152 Zn146 1.920 . S
O152 C165 1.234 . S
C153 O158 1.167 . S
C153 O159 1.299 . S
O154 Zn148 2.114 . S
O154 C149 1.166 . S
O155 Zn147 1.905 . S
O155 C149 1.182 . S
O156 Zn147 1.898 . S
O156 C150 1.167 . S
O157 Zn148 2.120 . S
O157 C150 1.299 . S
O158 Zn146 1.898 . S
O158 C153 1.167 . S
O159 Zn148 2.120 . S
O159 C153 1.299 . S
O160 Zn148 2.114 . S
O160 C162 1.166 . S
O161 Zn146 1.905 . S
O161 C162 1.182 . S
C162 O160 1.166 . S
C162 O161 1.182 . S
O163 Zn148 2.080 . S
O163 C166 1.305 . S
O164 Zn147 1.920 . S
O164 C166 1.234 . S
C165 O151 1.305 . S
C165 O152 1.234 . S
C166 O163 1.305 . S
C166 O164 1.234 . S
Zn167 O173 1.921 . S
Zn167 O179 1.899 . S
Zn167 O182 1.904 1_455 S
Zn168 O176 1.905 . S
Zn168 O177 1.898 . S
Zn168 O185 1.920 . S
Zn169 O172 2.080 . S
Zn169 O175 2.114 . S
Zn169 O178 2.120 . S
Zn169 O180 2.120 . S
Zn169 O181 2.114 . S
Zn169 O184 2.080 . S
C170 O175 1.166 . S
C170 O176 1.182 . S
C171 O177 1.167 . S
C171 O178 1.299 . S
O172 Zn169 2.080 . S
O172 C186 1.305 . S
O173 Zn167 1.921 . S
O173 C186 1.234 . S
C174 O179 1.167 . S
C174 O180 1.299 . S
O175 Zn169 2.114 . S
O175 C170 1.166 . S
O176 Zn168 1.905 . S
O176 C170 1.182 . S
O177 Zn168 1.898 . S
O177 C171 1.167 . S
O178 Zn169 2.120 . S
O178 C171 1.299 . S
O179 Zn167 1.899 . S
O179 C174 1.167 . S
O180 Zn169 2.120 . S
O180 C174 1.299 . S
O181 Zn169 2.114 . S
O181 C183 1.166 1_455 S
O182 Zn167 1.904 1_655 S
O182 C183 1.182 . S
C183 O181 1.166 1_655 S
C183 O182 1.182 . S
O184 Zn169 2.080 . S
O184 C187 1.305 . S
O185 Zn168 1.920 . S
O185 C187 1.234 . S
C186 O172 1.305 . S
C186 O173 1.234 . S
C187 O184 1.305 . S
C187 O185 1.234 . S
C188 C189 1.363 . S
C188 C194 1.379 . S
C188 N196 1.356 . S
C189 C188 1.363 . S
C189 C195 1.363 . S
C190 C191 1.363 . S
C190 C195 1.379 . S
C190 N197 1.356 . S
C191 C190 1.363 . S
C191 C194 1.363 . S
N192 C194 1.356 . S
N192 H204 0.984 . S
N192 H205 0.985 . S
N193 C195 1.356 . S
N193 H198 0.984 . S
N193 H199 0.985 . S
C194 C188 1.379 . S
C194 C191 1.363 . S
C194 N192 1.356 . S
C195 C189 1.363 . S
C195 C190 1.379 . S
C195 N193 1.356 . S
N196 C188 1.356 . S
N196 H202 0.984 . S
N196 H203 0.984 . S
N197 C190 1.356 . S
N197 H200 0.984 . S
N197 H201 0.985 . S
H198 N193 0.984 . S
H199 N193 0.985 . S
H200 N197 0.984 . S
H201 N197 0.985 . S
H202 N196 0.984 . S
H203 N196 0.984 . S
H204 N192 0.984 . S
H205 N192 0.985 . S
C206 C207 1.363 . S
C206 C212 1.379 . S
C206 N214 1.356 1_655 S
C207 C206 1.363 . S
C207 C213 1.363 . S
C208 C209 1.363 . S
C208 C213 1.379 . S
C208 N215 1.356 . S
C209 C208 1.363 . S
C209 C212 1.363 . S
N210 C212 1.356 . S
N210 H222 0.984 . S
N210 H223 0.985 . S
N211 C213 1.356 . S
N211 H216 0.984 1_655 S
N211 H217 0.985 . S
C212 C206 1.379 . S
C212 C209 1.363 . S
C212 N210 1.356 . S
C213 C207 1.363 . S
C213 C208 1.379 . S
C213 N211 1.356 . S
N214 C206 1.356 1_455 S
N214 H220 0.984 . S
N214 H221 0.984 . S
N215 C208 1.356 . S
N215 H218 0.984 . S
N215 H219 0.985 . S
H216 N211 0.984 1_455 S
H217 N211 0.985 . S
H218 N215 0.984 . S
H219 N215 0.985 . S
H220 N214 0.984 . S
H221 N214 0.984 . S
H222 N210 0.984 . S
H223 N210 0.985 . S
C224 C225 1.363 . S
C224 C230 1.379 . S
C224 N232 1.356 . S
C225 C224 1.363 . S
C225 C231 1.363 . S
C226 C227 1.363 . S
C226 C231 1.379 . S
C226 N233 1.356 . S
C227 C226 1.363 . S
C227 C230 1.363 . S
N228 C230 1.356 . S
N228 H240 0.984 . S
N228 H241 0.985 . S
N229 C231 1.356 . S
N229 H234 0.984 . S
N229 H235 0.985 . S
C230 C224 1.379 . S
C230 C227 1.363 . S
C230 N228 1.356 . S
C231 C225 1.363 . S
C231 C226 1.379 . S
C231 N229 1.356 . S
N232 C224 1.356 . S
N232 H238 0.984 . S
N232 H239 0.984 . S
N233 C226 1.356 . S
N233 H236 0.984 . S
N233 H237 0.985 . S
H234 N229 0.984 . S
H235 N229 0.985 . S
H236 N233 0.984 . S
H237 N233 0.985 . S
H238 N232 0.984 . S
H239 N232 0.984 . S
H240 N228 0.984 . S
H241 N228 0.985 . S
C242 C243 1.363 . S
C242 C248 1.379 . S
C242 N250 1.356 . S
C243 C242 1.363 . S
C243 C249 1.363 . S
C244 C245 1.363 . S
C244 C249 1.379 . S
C244 N251 1.356 . S
C245 C244 1.363 . S
C245 C248 1.363 . S
N246 C248 1.356 . S
N246 H258 0.984 . S
N246 H259 0.985 . S
N247 C249 1.356 . S
N247 H252 0.984 . S
N247 H253 0.985 . S
C248 C242 1.379 . S
C248 C245 1.363 . S
C248 N246 1.356 . S
C249 C243 1.363 . S
C249 C244 1.379 . S
C249 N247 1.356 . S
N250 C242 1.356 . S
N250 H256 0.984 . S
N250 H257 0.984 . S
N251 C244 1.356 . S
N251 H254 0.984 . S
N251 H255 0.985 . S
H252 N247 0.984 . S
H253 N247 0.985 . S
H254 N251 0.984 . S
H255 N251 0.985 . S
H256 N250 0.984 . S
H257 N250 0.984 . S
H258 N246 0.984 . S
H259 N246 0.985 . S
C260 C261 1.363 . S
C260 C266 1.379 . S
C260 N268 1.356 1_455 S
C261 C260 1.363 . S
C261 C267 1.363 . S
C262 C263 1.363 . S
C262 C267 1.379 . S
C262 N269 1.356 . S
C263 C262 1.363 . S
C263 C266 1.363 . S
N264 C266 1.359 . S
N264 H276 0.978 1_455 S
N264 H277 0.989 . S
N265 C267 1.356 . S
N265 H270 0.984 . S
N265 H271 0.985 . S
C266 C260 1.379 . S
C266 C263 1.363 . S
C266 N264 1.359 . S
C267 C261 1.363 . S
C267 C262 1.379 . S
C267 N265 1.356 . S
N268 C260 1.356 1_655 S
N268 H274 0.984 . S
N268 H275 0.984 . S
N269 C262 1.356 . S
N269 H272 0.984 . S
N269 H273 0.985 . S
H270 N265 0.984 . S
H271 N265 0.985 . S
H272 N269 0.984 . S
H273 N269 0.985 . S
H274 N268 0.984 . S
H275 N268 0.984 . S
H276 N264 0.978 1_655 S
H277 N264 0.989 . S
C278 C279 1.363 . S
C278 C284 1.379 . S
C278 N286 1.356 . S
C279 C278 1.363 . S
C279 C285 1.363 . S
C280 C281 1.363 . S
C280 C285 1.379 . S
C280 N287 1.356 . S
C281 C280 1.363 . S
C281 C284 1.363 . S
N282 C284 1.356 . S
N282 H294 0.984 . S
N282 H295 0.985 . S
N283 C285 1.356 . S
N283 H288 0.984 . S
N283 H289 0.985 . S
C284 C278 1.379 . S
C284 C281 1.363 . S
C284 N282 1.356 . S
C285 C279 1.363 . S
C285 C280 1.379 . S
C285 N283 1.356 . S
N286 C278 1.356 . S
N286 H292 0.984 . S
N286 H293 0.984 . S
N287 C280 1.356 . S
N287 H290 0.984 . S
N287 H291 0.985 . S
H288 N283 0.984 . S
H289 N283 0.985 . S
H290 N287 0.984 . S
H291 N287 0.985 . S
H292 N286 0.984 . S
H293 N286 0.984 . S
H294 N282 0.984 . S
H295 N282 0.985 . S
C296 C297 1.363 . S
C296 C302 1.379 . S
C296 N304 1.356 . S
C297 C296 1.363 . S
C297 C303 1.363 . S
C298 C299 1.363 . S
C298 C303 1.379 . S
C298 N305 1.356 . S
C299 C298 1.363 . S
C299 C302 1.363 . S
N300 C302 1.356 . S
N300 H312 0.984 . S
N300 H313 0.985 . S
N301 C303 1.356 . S
N301 H306 0.984 . S
N301 H307 0.985 . S
C302 C296 1.379 . S
C302 C299 1.363 . S
C302 N300 1.356 . S
C303 C297 1.363 . S
C303 C298 1.379 . S
C303 N301 1.356 . S
N304 C296 1.356 . S
N304 H310 0.984 . S
N304 H311 0.984 . S
N305 C298 1.356 . S
N305 H308 0.984 . S
N305 H309 0.985 . S
H306 N301 0.984 . S
H307 N301 0.985 . S
H308 N305 0.984 . S
H309 N305 0.985 . S
H310 N304 0.984 . S
H311 N304 0.984 . S
H312 N300 0.984 . S
H313 N300 0.985 . S
C314 C315 1.363 . S
C314 C320 1.379 . S
C314 N322 1.361 . S
C315 C314 1.363 . S
C315 C321 1.363 . S
C316 C317 1.363 . S
C316 C321 1.379 . S
C316 N323 1.356 . S
C317 C316 1.363 . S
C317 C320 1.363 . S
N318 C320 1.356 . S
N318 H330 0.984 . S
N318 H331 0.985 . S
N319 C321 1.356 1_455 S
N319 H324 0.984 . S
N319 H325 0.985 1_455 S
C320 C314 1.379 . S
C320 C317 1.363 . S
C320 N318 1.356 . S
C321 C315 1.363 . S
C321 C316 1.379 . S
C321 N319 1.356 1_655 S
N322 C314 1.361 . S
N322 H328 0.986 . S
N322 H329 0.978 1_655 S
N323 C316 1.356 . S
N323 H326 0.984 . S
N323 H327 0.985 . S
H324 N319 0.984 . S
H325 N319 0.985 1_655 S
H326 N323 0.984 . S
H327 N323 0.985 . S
H328 N322 0.986 . S
H329 N322 0.978 1_455 S
H330 N318 0.984 . S
H331 N318 0.985 . S
C332 C333 1.363 . S
C332 C338 1.379 . S
C332 N340 1.356 . S
C333 C332 1.363 . S
C333 C339 1.363 . S
C334 C335 1.363 . S
C334 C339 1.379 . S
C334 N341 1.356 . S
C335 C334 1.363 . S
C335 C338 1.363 . S
N336 C338 1.356 . S
N336 H348 0.984 . S
N336 H349 0.985 . S
N337 C339 1.356 . S
N337 H342 0.984 . S
N337 H343 0.985 . S
C338 C332 1.379 . S
C338 C335 1.363 . S
C338 N336 1.356 . S
C339 C333 1.363 . S
C339 C334 1.379 . S
C339 N337 1.356 . S
N340 C332 1.356 . S
N340 H346 0.984 . S
N340 H347 0.984 . S
N341 C334 1.356 . S
N341 H344 0.984 . S
N341 H345 0.985 . S
H342 N337 0.984 . S
H343 N337 0.985 . S
H344 N341 0.984 . S
H345 N341 0.985 . S
H346 N340 0.984 . S
H347 N340 0.984 . S
H348 N336 0.984 . S
H349 N336 0.985 . S
C350 C351 1.363 . S
C350 C356 1.379 . S
C350 N358 1.356 . S
C351 C350 1.363 . S
C351 C357 1.363 . S
C352 C353 1.363 . S
C352 C357 1.379 . S
C352 N359 1.356 . S
C353 C352 1.363 . S
C353 C356 1.363 . S
N354 C356 1.356 . S
N354 H366 0.984 . S
N354 H367 0.985 . S
N355 C357 1.356 . S
N355 H360 0.984 . S
N355 H361 0.985 . S
C356 C350 1.379 . S
C356 C353 1.363 . S
C356 N354 1.356 . S
C357 C351 1.363 . S
C357 C352 1.379 . S
C357 N355 1.356 . S
N358 C350 1.356 . S
N358 H364 0.984 . S
N358 H365 0.984 . S
N359 C352 1.356 . S
N359 H362 0.984 . S
N359 H363 0.985 . S
H360 N355 0.984 . S
H361 N355 0.985 . S
H362 N359 0.984 . S
H363 N359 0.985 . S
H364 N358 0.984 . S
H365 N358 0.984 . S
H366 N354 0.984 . S
H367 N354 0.985 . S
C368 C369 1.363 . S
C368 C374 1.379 . S
C368 N376 1.356 . S
C369 C368 1.363 . S
C369 C375 1.363 . S
C370 C371 1.363 . S
C370 C375 1.379 . S
C370 N377 1.356 . S
C371 C370 1.363 . S
C371 C374 1.363 . S
N372 C374 1.356 . S
N372 H384 0.984 . S
N372 H385 0.985 . S
N373 C375 1.356 . S
N373 H378 0.984 . S
N373 H379 0.985 . S
C374 C368 1.379 . S
C374 C371 1.363 . S
C374 N372 1.356 . S
C375 C369 1.363 . S
C375 C370 1.379 . S
C375 N373 1.356 . S
N376 C368 1.356 . S
N376 H382 0.984 . S
N376 H383 0.984 . S
N377 C370 1.356 . S
N377 H380 0.984 . S
N377 H381 0.985 . S
H378 N373 0.984 . S
H379 N373 0.985 . S
H380 N377 0.984 . S
H381 N377 0.985 . S
H382 N376 0.984 . S
H383 N376 0.984 . S
H384 N372 0.984 . S
H385 N372 0.985 . S
C386 C387 1.363 . S
C386 C392 1.379 . S
C386 N394 1.356 . S
C387 C386 1.363 . S
C387 C393 1.363 . S
C388 C389 1.363 . S
C388 C393 1.379 . S
C388 N395 1.356 . S
C389 C388 1.363 . S
C389 C392 1.363 . S
N390 C392 1.356 . S
N390 H402 0.984 . S
N390 H403 0.985 . S
N391 C393 1.356 . S
N391 H396 0.984 . S
N391 H397 0.985 . S
C392 C386 1.379 . S
C392 C389 1.363 . S
C392 N390 1.356 . S
C393 C387 1.363 . S
C393 C388 1.379 . S
C393 N391 1.356 . S
N394 C386 1.356 . S
N394 H400 0.984 . S
N394 H401 0.984 . S
N395 C388 1.356 . S
N395 H398 0.984 . S
N395 H399 0.985 . S
H396 N391 0.984 . S
H397 N391 0.985 . S
H398 N395 0.984 . S
H399 N395 0.985 . S
H400 N394 0.984 . S
H401 N394 0.984 . S
H402 N390 0.984 . S
H403 N390 0.985 . S
C404 C405 1.363 . S
C404 C410 1.379 . S
C404 N412 1.356 . S
C405 C404 1.363 . S
C405 C411 1.363 . S
C406 C407 1.363 . S
C406 C411 1.379 1_545 S
C406 N413 1.356 . S
C407 C406 1.363 . S
C407 C410 1.363 1_545 S
N408 C410 1.356 1_545 S
N408 H420 0.984 1_545 S
N408 H421 0.985 . S
N409 C411 1.356 . S
N409 H414 0.984 . S
N409 H415 0.985 . S
C410 C404 1.379 . S
C410 C407 1.363 1_565 S
C410 N408 1.356 1_565 S
C411 C405 1.363 . S
C411 C406 1.379 1_565 S
C411 N409 1.356 . S
N412 C404 1.356 . S
N412 H418 0.984 . S
N412 H419 0.984 . S
N413 C406 1.356 . S
N413 H416 0.984 . S
N413 H417 0.985 . S
H414 N409 0.984 . S
H415 N409 0.985 . S
H416 N413 0.984 . S
H417 N413 0.985 . S
H418 N412 0.984 . S
H419 N412 0.984 . S
H420 N408 0.984 1_565 S
H421 N408 0.985 . S
C422 C423 1.363 . S
C422 C428 1.379 . S
C422 N430 1.356 . S
C423 C422 1.363 . S
C423 C429 1.363 . S
C424 C425 1.364 . S
C424 C429 1.379 . S
C424 N431 1.356 1_545 S
C425 C424 1.364 . S
C425 C428 1.365 . S
N426 C428 1.356 1_565 S
N426 H438 0.984 . S
N426 H439 0.985 . S
N427 C429 1.356 . S
N427 H432 0.984 . S
N427 H433 0.985 . S
C428 C422 1.379 . S
C428 C425 1.365 . S
C428 N426 1.356 1_545 S
C429 C423 1.363 . S
C429 C424 1.379 . S
C429 N427 1.356 . S
N430 C422 1.356 . S
N430 H436 0.984 . S
N430 H437 0.984 . S
N431 C424 1.356 1_565 S
N431 H434 0.984 . S
N431 H435 0.985 . S
H432 N427 0.984 . S
H433 N427 0.985 . S
H434 N431 0.984 . S
H435 N431 0.985 . S
H436 N430 0.984 . S
H437 N430 0.984 . S
H438 N426 0.984 . S
H439 N426 0.985 . S
C440 C441 1.363 . S
C440 C446 1.379 1_545 S
C440 N448 1.356 . S
C441 C440 1.363 . S
C441 C447 1.363 . S
C442 C443 1.363 . S
C442 C447 1.379 1_565 S
C442 N449 1.356 . S
C443 C442 1.363 . S
C443 C446 1.363 . S
N444 C446 1.356 . S
N444 H456 0.984 . S
N444 H457 0.985 . S
N445 C447 1.356 . S
N445 H450 0.984 . S
N445 H451 0.985 . S
C446 C440 1.379 1_565 S
C446 C443 1.363 . S
C446 N444 1.356 . S
C447 C441 1.363 . S
C447 C442 1.379 1_545 S
C447 N445 1.356 . S
N448 C440 1.356 . S
N448 H454 0.984 . S
N448 H455 0.984 . S
N449 C442 1.356 . S
N449 H452 0.984 . S
N449 H453 0.985 . S
H450 N445 0.984 . S
H451 N445 0.985 . S
H452 N449 0.984 . S
H453 N449 0.985 . S
H454 N448 0.984 . S
H455 N448 0.984 . S
H456 N444 0.984 . S
H457 N444 0.985 . S
C458 C459 1.363 . S
C458 C464 1.379 . S
C458 N466 1.356 . S
C459 C458 1.363 . S
C459 C465 1.363 . S
C460 C461 1.363 . S
C460 C465 1.379 . S
C460 N467 1.356 . S
C461 C460 1.363 . S
C461 C464 1.363 . S
N462 C464 1.356 1_545 S
N462 H474 0.984 . S
N462 H475 0.985 . S
N463 C465 1.356 . S
N463 H468 0.984 . S
N463 H469 0.985 . S
C464 C458 1.379 . S
C464 C461 1.363 . S
C464 N462 1.356 1_565 S
C465 C459 1.363 . S
C465 C460 1.379 . S
C465 N463 1.356 . S
N466 C458 1.356 . S
N466 H472 0.984 1_455 S
N466 H473 0.984 1_455 S
N467 C460 1.356 . S
N467 H470 0.984 1_565 S
N467 H471 0.985 . S
H468 N463 0.984 . S
H469 N463 0.985 . S
H470 N467 0.984 1_545 S
H471 N467 0.985 . S
H472 N466 0.984 1_655 S
H473 N466 0.984 1_655 S
H474 N462 0.984 . S
H475 N462 0.985 . S
C476 C477 1.363 . S
C476 C482 1.379 1_554 S
C476 N484 1.356 . S
C477 C476 1.363 . S
C477 C483 1.363 . S
C478 C479 1.363 . S
C478 C483 1.379 1_556 S
C478 N485 1.356 . S
C479 C478 1.363 . S
C479 C482 1.363 . S
N480 C482 1.356 . S
N480 H492 0.984 . S
N480 H493 0.985 . S
N481 C483 1.356 . S
N481 H486 0.984 . S
N481 H487 0.985 . S
C482 C476 1.379 1_556 S
C482 C479 1.363 . S
C482 N480 1.356 . S
C483 C477 1.363 . S
C483 C478 1.379 1_554 S
C483 N481 1.356 . S
N484 C476 1.356 . S
N484 H490 0.984 . S
N484 H491 0.984 . S
N485 C478 1.356 . S
N485 H488 0.984 . S
N485 H489 0.985 . S
H486 N481 0.984 . S
H487 N481 0.985 . S
H488 N485 0.984 . S
H489 N485 0.985 . S
H490 N484 0.984 . S
H491 N484 0.984 . S
H492 N480 0.984 . S
H493 N480 0.985 . S
C494 C495 1.363 . S
C494 C500 1.379 . S
C494 N502 1.356 . S
C495 C494 1.363 . S
C495 C501 1.363 . S
C496 C497 1.363 . S
C496 C501 1.379 . S
C496 N503 1.356 . S
C497 C496 1.363 . S
C497 C500 1.363 . S
N498 C500 1.356 . S
N498 H510 0.984 . S
N498 H511 0.985 . S
N499 C501 1.356 . S
N499 H504 0.984 . S
N499 H505 0.985 . S
C500 C494 1.379 . S
C500 C497 1.363 . S
C500 N498 1.356 . S
C501 C495 1.363 . S
C501 C496 1.379 . S
C501 N499 1.356 . S
N502 C494 1.356 . S
N502 H508 0.984 . S
N502 H509 0.984 . S
N503 C496 1.356 . S
N503 H506 0.984 . S
N503 H507 0.985 . S
H504 N499 0.984 . S
H505 N499 0.985 . S
H506 N503 0.984 . S
H507 N503 0.985 . S
H508 N502 0.984 . S
H509 N502 0.984 . S
H510 N498 0.984 . S
H511 N498 0.985 . S
C512 C513 1.363 . S
C512 C518 1.379 . S
C512 N520 1.356 . S
C513 C512 1.363 . S
C513 C519 1.363 . S
C514 C515 1.363 . S
C514 C519 1.379 . S
C514 N521 1.356 . S
C515 C514 1.363 . S
C515 C518 1.363 . S
N516 C518 1.356 . S
N516 H528 0.984 . S
N516 H529 0.985 . S
N517 C519 1.356 . S
N517 H522 0.984 . S
N517 H523 0.985 . S
C518 C512 1.379 . S
C518 C515 1.363 . S
C518 N516 1.356 . S
C519 C513 1.363 . S
C519 C514 1.379 . S
C519 N517 1.356 . S
N520 C512 1.356 . S
N520 H526 0.984 . S
N520 H527 0.984 . S
N521 C514 1.356 . S
N521 H524 0.984 . S
N521 H525 0.985 . S
H522 N517 0.984 . S
H523 N517 0.985 . S
H524 N521 0.984 . S
H525 N521 0.985 . S
H526 N520 0.984 . S
H527 N520 0.984 . S
H528 N516 0.984 . S
H529 N516 0.985 . S
C530 C531 1.363 . S
C530 C536 1.379 . S
C530 N538 1.356 . S
C531 C530 1.363 . S
C531 C537 1.363 . S
C532 C533 1.363 . S
C532 C537 1.379 . S
C532 N539 1.356 . S
C533 C532 1.363 . S
C533 C536 1.363 . S
N534 C536 1.356 . S
N534 H546 0.984 . S
N534 H547 0.985 . S
N535 C537 1.356 . S
N535 H540 0.984 . S
N535 H541 0.985 . S
C536 C530 1.379 . S
C536 C533 1.363 . S
C536 N534 1.356 . S
C537 C531 1.363 . S
C537 C532 1.379 . S
C537 N535 1.356 . S
N538 C530 1.356 . S
N538 H544 0.984 . S
N538 H545 0.984 . S
N539 C532 1.356 . S
N539 H542 0.984 . S
N539 H543 0.985 . S
H540 N535 0.984 . S
H541 N535 0.985 . S
H542 N539 0.984 . S
H543 N539 0.985 . S
H544 N538 0.984 . S
H545 N538 0.984 . S
H546 N534 0.984 . S
H547 N534 0.985 . S
C548 C549 1.363 . S
C548 C554 1.379 1_556 S
C548 N556 1.356 1_455 S
C549 C548 1.363 . S
C549 C555 1.363 . S
C550 C551 1.363 . S
C550 C555 1.379 1_554 S
C550 N557 1.356 . S
C551 C550 1.363 . S
C551 C554 1.363 . S
N552 C554 1.356 1_655 S
N552 H564 0.984 . S
N552 H565 0.985 1_655 S
N553 C555 1.356 . S
N553 H558 0.984 . S
N553 H559 0.985 . S
C554 C548 1.379 1_554 S
C554 C551 1.363 . S
C554 N552 1.356 1_455 S
C555 C549 1.363 . S
C555 C550 1.379 1_556 S
C555 N553 1.356 . S
N556 C548 1.356 1_655 S
N556 H562 0.984 . S
N556 H563 0.984 . S
N557 C550 1.356 . S
N557 H560 0.984 . S
N557 H561 0.985 . S
H558 N553 0.984 . S
H559 N553 0.985 . S
H560 N557 0.984 . S
H561 N557 0.985 . S
H562 N556 0.984 . S
H563 N556 0.984 . S
H564 N552 0.984 . S
H565 N552 0.985 1_455 S
C566 C567 1.363 . S
C566 C572 1.379 . S
C566 N574 1.356 . S
C567 C566 1.363 . S
C567 C573 1.363 . S
C568 C569 1.363 . S
C568 C573 1.379 . S
C568 N575 1.356 . S
C569 C568 1.363 . S
C569 C572 1.363 . S
N570 C572 1.356 . S
N570 H582 0.984 . S
N570 H583 0.985 . S
N571 C573 1.356 . S
N571 H576 0.984 . S
N571 H577 0.985 . S
C572 C566 1.379 . S
C572 C569 1.363 . S
C572 N570 1.356 . S
C573 C567 1.363 . S
C573 C568 1.379 . S
C573 N571 1.356 . S
N574 C566 1.356 . S
N574 H580 0.984 . S
N574 H581 0.984 . S
N575 C568 1.356 . S
N575 H578 0.984 . S
N575 H579 0.985 . S
H576 N571 0.984 . S
H577 N571 0.985 . S
H578 N575 0.984 . S
H579 N575 0.985 . S
H580 N574 0.984 . S
H581 N574 0.984 . S
H582 N570 0.984 . S
H583 N570 0.985 . S
C584 C585 1.363 . S
C584 C590 1.379 . S
C584 N592 1.356 . S
C585 C584 1.363 . S
C585 C591 1.363 . S
C586 C587 1.363 . S
C586 C591 1.379 . S
C586 N593 1.356 . S
C587 C586 1.363 . S
C587 C590 1.363 . S
N588 C590 1.356 . S
N588 H600 0.984 . S
N588 H601 0.985 . S
N589 C591 1.356 . S
N589 H594 0.984 . S
N589 H595 0.985 . S
C590 C584 1.379 . S
C590 C587 1.363 . S
C590 N588 1.356 . S
C591 C585 1.363 . S
C591 C586 1.379 . S
C591 N589 1.356 . S
N592 C584 1.356 . S
N592 H598 0.984 . S
N592 H599 0.984 . S
N593 C586 1.356 . S
N593 H596 0.984 . S
N593 H597 0.985 . S
H594 N589 0.984 . S
H595 N589 0.985 . S
H596 N593 0.984 . S
H597 N593 0.985 . S
H598 N592 0.984 . S
H599 N592 0.984 . S
H600 N588 0.984 . S
H601 N588 0.985 . S
C602 C603 1.363 . S
C602 C608 1.379 . S
C602 N610 1.356 . S
C603 C602 1.363 . S
C603 C609 1.363 . S
C604 C605 1.363 . S
C604 C609 1.379 . S
C604 N611 1.356 . S
C605 C604 1.363 . S
C605 C608 1.363 . S
N606 C608 1.356 . S
N606 H618 0.984 . S
N606 H619 0.985 . S
N607 C609 1.356 . S
N607 H612 0.984 . S
N607 H613 0.985 1_455 S
C608 C602 1.379 . S
C608 C605 1.363 . S
C608 N606 1.356 . S
C609 C603 1.363 . S
C609 C604 1.379 . S
C609 N607 1.356 . S
N610 C602 1.356 . S
N610 H616 0.984 . S
N610 H617 0.984 . S
N611 C604 1.356 . S
N611 H614 0.984 . S
N611 H615 0.985 1_455 S
H612 N607 0.984 . S
H613 N607 0.985 1_655 S
H614 N611 0.984 . S
H615 N611 0.985 1_655 S
H616 N610 0.984 . S
H617 N610 0.984 . S
H618 N606 0.984 . S
H619 N606 0.985 . S
C191 C111 1.462 . S
C189 N2 1.585 . S
C209 C129 1.179 . S
C207 N15 1.268 1_655 S
C225 N27 1.395 . S
C227 C153 1.280 . S
C245 C183 1.478 . S
C243 N40 1.678 . S
C263 C171 1.327 . S
C261 N54 1.456 . S
C279 N66 1.668 . S
C281 C124 1.597 . S
C297 N79 1.533 . S
C299 C144 1.404 . S
C315 N93 1.298 1_655 S
C317 C149 1.163 . S
C333 N92 1.662 . S
C335 C165 1.588 . S
C351 N67 1.304 . S
C353 C120 1.163 . S
C371 C187 1.196 . S
C369 N41 1.277 . S
C389 C132 1.462 . S
C387 N14 1.669 . S
C405 N28 1.578 . S
C407 C150 1.455 . S
C423 N1 1.401 . S
C425 C108 1.283 1_545 S
C443 C128 1.339 . S
C441 N80 1.463 . S
C461 C174 1.395 1_565 S
C459 N53 1.532 . S
C479 C170 1.317 . S
C477 N5 1.598 . S
C497 C123 1.367 . S
C495 N18 1.464 . S
C513 N31 1.590 . S
C515 C145 1.302 . S
C531 N44 1.481 . S
C533 C166 1.381 . S
C551 C107 1.373 . S
C549 N57 1.480 . S
C567 N70 1.564 . S
C569 C141 1.541 . S
C587 C162 1.389 . S
C585 N83 1.498 . S
C605 C186 1.522 . S
C603 N96 1.548 . S
