# Generated by pormake.
# Topology llj, (12,3)-cn, num edge types: 1
# Building blocks:
#     Node 0, Type 0, BuildingBlock: QEWDON_clean_sbu_0, # of connection points: 12
#     Node 1, Type 0, BuildingBlock: QEWDON_clean_sbu_0, # of connection points: 12
#     Node 2, Type 1, BuildingBlock: KAKCAD_clean_linker_0, # of connection points: 3
#     Node 3, Type 1, BuildingBlock: KAKCAD_clean_linker_0, # of connection points: 3
#     Node 4, Type 1, BuildingBlock: KAKCAD_clean_linker_0, # of connection points: 3
#     Node 5, Type 1, BuildingBlock: KAKCAD_clean_linker_0, # of connection points: 3
#     Node 6, Type 1, BuildingBlock: KAKCAD_clean_linker_0, # of connection points: 3
#     Node 7, Type 1, BuildingBlock: KAKCAD_clean_linker_0, # of connection points: 3
#     Node 8, Type 1, BuildingBlock: KAKCAD_clean_linker_0, # of connection points: 3
#     Node 9, Type 1, BuildingBlock: KAKCAD_clean_linker_0, # of connection points: 3
#     Edge 10, Type (0, 1), BuildingBlock: TEMPAE_clean_linker_10, # of connection points: 2
#     Edge 11, Type (0, 1), BuildingBlock: TEMPAE_clean_linker_10, # of connection points: 2
#     Edge 12, Type (0, 1), BuildingBlock: TEMPAE_clean_linker_10, # of connection points: 2
#     Edge 13, Type (0, 1), BuildingBlock: TEMPAE_clean_linker_10, # of connection points: 2
#     Edge 14, Type (0, 1), BuildingBlock: TEMPAE_clean_linker_10, # of connection points: 2
#     Edge 15, Type (0, 1), BuildingBlock: TEMPAE_clean_linker_10, # of connection points: 2
#     Edge 16, Type (0, 1), BuildingBlock: TEMPAE_clean_linker_10, # of connection points: 2
#     Edge 17, Type (0, 1), BuildingBlock: TEMPAE_clean_linker_10, # of connection points: 2
#     Edge 18, Type (0, 1), BuildingBlock: TEMPAE_clean_linker_10, # of connection points: 2
#     Edge 19, Type (0, 1), BuildingBlock: TEMPAE_clean_linker_10, # of connection points: 2
#     Edge 20, Type (0, 1), BuildingBlock: TEMPAE_clean_linker_10, # of connection points: 2
#     Edge 21, Type (0, 1), BuildingBlock: TEMPAE_clean_linker_10, # of connection points: 2
#     Edge 22, Type (0, 1), BuildingBlock: TEMPAE_clean_linker_10, # of connection points: 2
#     Edge 23, Type (0, 1), BuildingBlock: TEMPAE_clean_linker_10, # of connection points: 2
#     Edge 24, Type (0, 1), BuildingBlock: TEMPAE_clean_linker_10, # of connection points: 2
#     Edge 25, Type (0, 1), BuildingBlock: TEMPAE_clean_linker_10, # of connection points: 2
#     Edge 26, Type (0, 1), BuildingBlock: TEMPAE_clean_linker_10, # of connection points: 2
#     Edge 27, Type (0, 1), BuildingBlock: TEMPAE_clean_linker_10, # of connection points: 2
#     Edge 28, Type (0, 1), BuildingBlock: TEMPAE_clean_linker_10, # of connection points: 2
#     Edge 29, Type (0, 1), BuildingBlock: TEMPAE_clean_linker_10, # of connection points: 2
#     Edge 30, Type (0, 1), BuildingBlock: TEMPAE_clean_linker_10, # of connection points: 2
#     Edge 31, Type (0, 1), BuildingBlock: TEMPAE_clean_linker_10, # of connection points: 2
#     Edge 32, Type (0, 1), BuildingBlock: TEMPAE_clean_linker_10, # of connection points: 2
#     Edge 33, Type (0, 1), BuildingBlock: TEMPAE_clean_linker_10, # of connection points: 2
# Relax obj value: 0.011
# Max RMSD: 0.052
# Mean RMSD: 0.049
data_MOF--net-llj--node1-QEWDON_clean_sbu_0--node2-KAKCAD_clean_linker_0--edge1-TEMPAE_clean_linker_10
_symmetry_space_group_name_H-M    P1
_symmetry_Int_Tables_number       1
_symmetry_cell_setting            triclinic
loop_
_symmetry_equiv_pos_as_xyz
'x, y, z'
_cell_length_a     45.705744
_cell_length_b     45.700149
_cell_length_c     31.874856
_cell_angle_alpha  89.932456
_cell_angle_beta   90.035714
_cell_angle_gamma 90.143928
loop_
_atom_site_label
_atom_site_type_symbol
_atom_site_fract_x
_atom_site_fract_y
_atom_site_fract_z
_atom_type_partial_charge
Zn0 Zn 0.94745 0.05081 0.98602 0.0
Zn1 Zn 0.95245 0.04753 0.0848 0.0
O2 O 0.97593 0.04344 0.0329 0.0
H3 H 0.99167 0.02956 0.02997 0.0
C4 C 0.91456 0.96708 0.90493 0.0
O5 O 0.89808 0.9499 0.92812 0.0
Zn6 Zn 0.04936 0.95545 0.07429 0.0
Zn7 Zn 0.05443 0.95676 0.97735 0.0
O8 O 0.02394 0.95496 0.02314 0.0
H9 H 0.00578 0.9446 0.01859 0.0
Zn10 Zn 0.95419 0.95022 0.96945 0.0
O11 O 0.94772 0.97621 0.01989 0.0
Zn12 Zn 0.94618 0.94861 0.06831 0.0
H13 H 0.93774 0.99475 0.0177 0.0
Zn14 Zn 0.057 0.05944 0.96634 0.0
O15 O 0.05136 0.0332 0.01629 0.0
H16 H 0.041 0.01481 0.01414 0.0
Zn17 Zn 0.05572 0.05859 0.06671 0.0
C18 C 0.07936 0.01388 0.91533 0.0
O19 O 0.09037 0.00762 0.95235 0.0
O20 O 0.91184 0.075 0.0051 0.0
O21 O 0.91677 0.0733 0.07461 0.0
O22 O 0.09207 0.93519 0.99445 0.0
O23 O 0.08513 0.93058 0.06322 0.0
O24 O 0.93764 0.90863 0.97883 0.0
O25 O 0.93086 0.90951 0.04792 0.0
C26 C 0.00518 0.06828 0.12438 0.0
O27 O 0.08 0.09695 0.98053 0.0
O28 O 0.07689 0.0963 0.05033 0.0
O29 O 0.03721 0.9443 0.9205 0.0
C30 C 0.90321 0.08202 0.04181 0.0
O31 O 0.96784 0.05982 0.92959 0.0
C32 C -7e-05 0.93839 0.12355 0.0
O33 O 0.94124 0.97056 0.91486 0.0
C34 C 0.09994 0.92532 0.03012 0.0
O35 O 0.06412 0.03691 0.91122 0.0
C36 C 0.92139 0.99258 0.11703 0.0
O37 O 0.97817 0.06388 0.13137 0.0
O38 O 0.01471 0.06427 0.08742 0.0
C39 C 0.92889 0.89651 0.01262 0.0
O40 O 0.02762 0.94046 0.1256 0.0
O41 O 0.98751 0.94605 0.08968 0.0
C42 C 0.07479 0.00927 0.11218 0.0
O43 O 0.91907 0.96513 0.1122 0.0
O44 O 0.94086 0.00585 0.09592 0.0
C45 C 0.08535 0.10839 0.01622 0.0
O46 O 0.07752 0.03691 0.11247 0.0
O47 O 0.06052 0.99741 0.08266 0.0
C48 C 0.01907 0.9601 0.90064 0.0
O49 O 0.0123 0.98609 0.91529 0.0
C50 C 0.99057 0.07574 0.93264 0.0
O51 O 0.99803 0.08592 0.96969 0.0
Zn52 Zn 0.44603 0.55303 0.45995 0.0
Zn53 Zn 0.44488 0.5547 0.56034 0.0
O54 O 0.47164 0.55222 0.51158 0.0
H55 H 0.49104 0.54397 0.51151 0.0
C56 C 0.40232 0.47027 0.41438 0.0
O57 O 0.38703 0.44922 0.43204 0.0
Zn58 Zn 0.55593 0.4409 0.56289 0.0
Zn59 Zn 0.55605 0.45083 0.46685 0.0
O60 O 0.52855 0.44056 0.51446 0.0
H61 H 0.51131 0.42847 0.51148 0.0
Zn62 Zn 0.44359 0.45211 0.47826 0.0
O63 O 0.46288 0.47433 0.52519 0.0
Zn64 Zn 0.4578 0.44999 0.57674 0.0
H65 H 0.4781 0.48878 0.52126 0.0
Zn66 Zn 0.54653 0.5556 0.47859 0.0
O67 O 0.54362 0.52383 0.52271 0.0
H68 H 0.53313 0.50573 0.51814 0.0
Zn69 Zn 0.54556 0.54683 0.57551 0.0
C70 C 0.57399 0.51937 0.41937 0.0
O71 O 0.58732 0.5129 0.45471 0.0
O72 O 0.40564 0.57165 0.47099 0.0
O73 O 0.40592 0.57171 0.54088 0.0
O74 O 0.59725 0.43326 0.47465 0.0
O75 O 0.59501 0.42535 0.54338 0.0
O76 O 0.41972 0.41671 0.4984 0.0
O77 O 0.43097 0.41483 0.56637 0.0
C78 C 0.49076 0.57746 0.61011 0.0
O79 O 0.57064 0.59111 0.4985 0.0
O80 O 0.57173 0.58265 0.56722 0.0
O81 O 0.53661 0.44522 0.40949 0.0
C82 C 0.39337 0.57738 0.50597 0.0
O83 O 0.46872 0.56275 0.40553 0.0
C84 C 0.51168 0.41855 0.61387 0.0
O85 O 0.4278 0.47589 0.42813 0.0
C86 C 0.60866 0.42389 0.50857 0.0
O87 O 0.55454 0.53914 0.41959 0.0
C88 C 0.43653 0.50244 0.61739 0.0
O89 O 0.46332 0.58029 0.60524 0.0
O90 O 0.5039 0.5594 0.58639 0.0
C91 C 0.4174 0.40481 0.5344 0.0
O92 O 0.5391 0.41566 0.60915 0.0
O93 O 0.4987 0.43663 0.58998 0.0
C94 C 0.5646 0.49377 0.6174 0.0
O95 O 0.441 0.47531 0.62309 0.0
O96 O 0.44216 0.51327 0.58156 0.0
C97 C 0.57913 0.59793 0.53535 0.0
O98 O 0.56122 0.52109 0.62261 0.0
O99 O 0.55829 0.4828 0.58193 0.0
C100 C 0.51731 0.46291 0.3963 0.0
O101 O 0.51093 0.48624 0.41849 0.0
C102 C 0.49117 0.57881 0.41081 0.0
O103 O 0.49712 0.58848 0.44866 0.0
C104 C 0.3798 0.32989 0.86283 0.0
C105 C 0.41051 0.32988 0.86229 0.0
C106 C 0.36473 0.32649 0.90067 0.0
C107 C 0.38015 0.32282 0.93851 0.0
C108 C 0.41084 0.32085 0.93731 0.0
C109 C 0.42587 0.32454 0.89962 0.0
C110 C 0.36459 0.32333 0.97937 0.0
C111 C 0.33756 0.30918 0.98452 0.0
C112 C 0.32258 0.31047 0.02299 0.0
C113 C 0.33495 0.32612 0.05661 0.0
C114 C 0.36204 0.34027 0.05189 0.0
C115 C 0.37655 0.3389 0.01321 0.0
C116 C 0.37569 0.35654 0.087 0.0
C117 C 0.35975 0.37727 0.11004 0.0
C118 C 0.4054 0.35228 0.09625 0.0
C119 C 0.4191 0.36875 0.12737 0.0
C120 C 0.40349 0.39007 0.14981 0.0
C121 C 0.29441 0.29472 0.02799 0.0
C122 C 0.27298 0.29622 0.99644 0.0
C123 C 0.2894 0.2769 0.06321 0.0
C124 C 0.26391 0.26005 0.06604 0.0
C125 C 0.24288 0.26089 0.03386 0.0
C126 C 0.24743 0.27953 -0.0006 0.0
C127 C 0.37356 0.39397 0.14111 0.0
H128 H 0.36751 0.3342 0.83442 0.0
H129 H 0.3411 0.32828 0.90053 0.0
H130 H 0.42333 0.3173 0.96575 0.0
H131 H 0.44957 0.32411 0.89981 0.0
H132 H 0.32847 0.29656 0.95883 0.0
H133 H 0.39696 0.3507 0.00921 0.0
H134 H 0.32362 0.32715 0.08643 0.0
H135 H 0.33686 0.38111 0.10323 0.0
H136 H 0.41808 0.33612 0.07936 0.0
H137 H 0.44195 0.36456 0.13405 0.0
H138 H 0.27617 0.31 0.96914 0.0
H139 H 0.30562 0.2752 0.08787 0.0
H140 H 0.36095 0.4103 0.15773 0.0
H141 H 0.23173 0.28045 0.97397 0.0
H142 H 0.26084 0.24603 0.09312 0.0
C143 C 0.64225 0.35138 0.87093 0.0
C144 C 0.64445 0.38172 0.86387 0.0
C145 C 0.65043 0.3394 0.90963 0.0
C146 C 0.66063 0.35762 0.94196 0.0
C147 C 0.66373 0.38774 0.93433 0.0
C148 C 0.65572 0.39966 0.89579 0.0
C149 C 0.66652 0.34594 0.98447 0.0
C150 C 0.68388 0.32101 0.99057 0.0
C151 C 0.69098 0.31163 0.03138 0.0
C152 C 0.68021 0.32726 0.06607 0.0
C153 C 0.66237 0.35193 0.06033 0.0
C154 C 0.6554 0.36078 0.01941 0.0
C155 C 0.65153 0.36912 0.09667 0.0
C156 C 0.64213 0.35518 0.13363 0.0
C157 C 0.65016 0.39982 0.0943 0.0
C158 C 0.63928 0.41615 0.12769 0.0
C159 C 0.62995 0.40228 0.16471 0.0
C160 C 0.71072 0.28632 0.03781 0.0
C161 C 0.70651 0.26023 0.01531 0.0
C162 C 0.73425 0.28831 0.06608 0.0
C163 C 0.75347 0.26488 0.07124 0.0
C164 C 0.74941 0.23887 0.0485 0.0
C165 C 0.72558 0.23665 0.02079 0.0
C166 C 0.63156 0.37159 0.16734 0.0
H167 H 0.63389 0.337 0.84671 0.0
H168 H 0.64782 0.3161 0.91478 0.0
H169 H 0.67189 0.40224 0.95857 0.0
H170 H 0.65742 0.42312 0.89154 0.0
H171 H 0.69285 0.30968 0.96365 0.0
H172 H 0.64108 0.37935 0.01454 0.0
H173 H 0.68605 0.32037 0.09751 0.0
H174 H 0.64263 0.33156 0.13639 0.0
H175 H 0.65768 0.41138 0.06663 0.0
H176 H 0.63804 0.43969 0.1243 0.0
H177 H 0.68844 0.25806 0.99352 0.0
H178 H 0.73817 0.30825 0.08358 0.0
H179 H 0.62495 0.36021 0.19563 0.0
H180 H 0.72211 0.21694 0.00259 0.0
H181 H 0.77158 0.26711 0.09295 0.0
C182 C 0.61798 0.67498 0.15801 0.0
C183 C 0.60925 0.64563 0.16216 0.0
C184 C 0.63114 0.68477 0.12101 0.0
C185 C 0.63543 0.66546 0.08735 0.0
C186 C 0.62705 0.63602 0.09172 0.0
C187 C 0.61424 0.62614 0.12891 0.0
C188 C 0.64769 0.67623 0.04726 0.0
C189 C 0.67306 0.69356 0.04683 0.0
C190 C 0.68454 0.70409 0.00879 0.0
C191 C 0.66994 0.69771 0.97108 0.0
C192 C 0.64458 0.68039 0.97119 0.0
C193 C 0.63372 0.66951 0.00928 0.0
C194 C 0.6293 0.67347 0.93161 0.0
C195 C 0.6204 0.69585 0.90427 0.0
C196 C 0.62279 0.64431 0.92166 0.0
C197 C 0.60732 0.6376 0.88523 0.0
C198 C 0.59747 0.65995 0.85831 0.0
C199 C 0.71199 0.72137 0.00846 0.0
C200 C 0.71655 0.74366 0.03808 0.0
C201 C 0.73397 0.71545 0.97886 0.0
C202 C 0.76 0.73152 0.97887 0.0
C203 C 0.76446 0.75392 0.00832 0.0
C204 C 0.7425 0.7598 0.03796 0.0
C205 C 0.60444 0.68918 0.86804 0.0
H206 H 0.61449 0.69038 0.18333 0.0
H207 H 0.63726 0.70761 0.1183 0.0
H208 H 0.63031 0.62067 0.06628 0.0
H209 H 0.60752 0.60345 0.13126 0.0
H210 H 0.68429 0.69816 0.07606 0.0
H211 H 0.61387 0.65646 0.00944 0.0
H212 H 0.67836 0.70604 0.9416 0.0
H213 H 0.62508 0.71853 0.91155 0.0
H214 H 0.6298 0.62668 0.94205 0.0
H215 H 0.60311 0.6148 0.87818 0.0
H216 H 0.69991 0.74882 0.06108 0.0
H217 H 0.73116 0.69817 0.95597 0.0
H218 H 0.59701 0.70694 0.84826 0.0
H219 H 0.74547 0.77679 0.06125 0.0
H220 H 0.77647 0.72669 0.95547 0.0
C221 C 0.30693 0.59946 0.15925 0.0
C222 C 0.3347 0.58714 0.16563 0.0
C223 C 0.30147 0.61674 0.1239 0.0
C224 C 0.32374 0.62211 0.09442 0.0
C225 C 0.35163 0.61016 0.10132 0.0
C226 C 0.35703 0.59284 0.13647 0.0
C227 C 0.31795 0.6397 0.05619 0.0
C228 C 0.30104 0.66524 0.05821 0.0
C229 C 0.2958 0.68199 0.02202 0.0
C230 C 0.30758 0.67297 0.98348 0.0
C231 C 0.32443 0.64741 0.98096 0.0
C232 C 0.32945 0.63091 0.01739 0.0
C233 C 0.33643 0.6374 0.94031 0.0
C234 C 0.31869 0.63652 0.90432 0.0
C235 C 0.36542 0.62742 0.93775 0.0
C236 C 0.37626 0.61614 0.90024 0.0
C237 C 0.35831 0.61448 0.86453 0.0
C238 C 0.2778 0.70878 0.02451 0.0
C239 C 0.25101 0.70836 0.04604 0.0
C240 C 0.28716 0.73484 0.00526 0.0
C241 C 0.26997 0.76003 0.00742 0.0
C242 C 0.24299 0.75946 0.02846 0.0
C243 C 0.23371 0.73343 0.04784 0.0
C244 C 0.3295 0.62506 0.86679 0.0
H245 H 0.28928 0.59524 0.18113 0.0
H246 H 0.27967 0.62539 0.11921 0.0
H247 H 0.3694 0.61437 0.07965 0.0
H248 H 0.3788 0.58408 0.14105 0.0
H249 H 0.2925 0.67252 0.08814 0.0
H250 H 0.34175 0.61072 0.01529 0.0
H251 H 0.30352 0.68575 0.95542 0.0
H252 H 0.2962 0.6439 0.9055 0.0
H253 H 0.37964 0.6281 0.96494 0.0
H254 H 0.39847 0.60792 0.89952 0.0
H255 H 0.24321 0.6885 0.06092 0.0
H256 H 0.30786 0.73578 0.98876 0.0
H257 H 0.31528 0.62426 0.83963 0.0
H258 H 0.21307 0.73251 0.0645 0.0
H259 H 0.27751 0.7798 0.99201 0.0
C260 C 0.86352 0.8516 0.37601 0.0
C261 C 0.89379 0.84885 0.36925 0.0
C262 C 0.85094 0.84178 0.41346 0.0
C263 C 0.86848 0.82935 0.44493 0.0
C264 C 0.89854 0.8256 0.43749 0.0
C265 C 0.91105 0.83515 0.39996 0.0
C266 C 0.85609 0.82263 0.48675 0.0
C267 C 0.83005 0.80657 0.49105 0.0
C268 C 0.81827 0.80075 0.53107 0.0
C269 C 0.83245 0.81215 0.56675 0.0
C270 C 0.85848 0.82823 0.56262 0.0
C271 C 0.87022 0.83316 0.5227 0.0
C272 C 0.87371 0.84031 0.59963 0.0
C273 C 0.8593 0.8595 0.62693 0.0
C274 C 0.90353 0.83451 0.60574 0.0
C275 C 0.91891 0.84819 0.63807 0.0
C276 C 0.90492 0.86839 0.66455 0.0
C277 C 0.79191 0.78186 0.53559 0.0
C278 C 0.77003 0.78841 0.56513 0.0
C279 C 0.7888 0.75662 0.51081 0.0
C280 C 0.76453 0.73834 0.51551 0.0
C281 C 0.74277 0.74469 0.54526 0.0
C282 C 0.74569 0.77004 0.56988 0.0
C283 C 0.8748 0.87359 0.65895 0.0
H284 H 0.84969 0.86185 0.35265 0.0
H285 H 0.82775 0.84505 0.41854 0.0
H286 H 0.91249 0.81588 0.46117 0.0
H287 H 0.93445 0.8329 0.39571 0.0
H288 H 0.81911 0.79845 0.4632 0.0
H289 H 0.89005 0.84607 0.51955 0.0
H290 H 0.82388 0.80775 0.59783 0.0
H291 H 0.83635 0.86449 0.62244 0.0
H292 H 0.91501 0.81959 0.58515 0.0
H293 H 0.94185 0.84302 0.6421 0.0
H294 H 0.77163 0.80782 0.58446 0.0
H295 H 0.80539 0.75068 0.48814 0.0
H296 H 0.86336 0.88921 0.67844 0.0
H297 H 0.72939 0.77548 0.59322 0.0
H298 H 0.76275 0.71923 0.49558 0.0
C299 C 0.13935 0.85744 0.36004 0.0
C300 C 0.14004 0.8882 0.3581 0.0
C301 C 0.14502 0.84288 0.39781 0.0
C302 C 0.15159 0.85878 0.43437 0.0
C303 C 0.15286 0.88948 0.4321 0.0
C304 C 0.14693 0.90398 0.39461 0.0
C305 C 0.157 0.84378 0.47502 0.0
C306 C 0.17358 0.81801 0.47703 0.0
C307 C 0.18039 0.80513 0.51592 0.0
C308 C 0.17076 0.81861 0.5531 0.0
C309 C 0.15409 0.8444 0.55161 0.0
C310 C 0.14667 0.85621 0.51237 0.0
C311 C 0.14549 0.86005 0.59061 0.0
C312 C 0.13685 0.84472 0.62684 0.0
C313 C 0.14588 0.89082 0.59165 0.0
C314 C 0.13734 0.90589 0.62754 0.0
C315 C 0.12877 0.89068 0.66385 0.0
C316 C 0.1988 0.77843 0.51749 0.0
C317 C 0.1941 0.75542 0.48901 0.0
C318 C 0.22185 0.77619 0.5465 0.0
C319 C 0.24019 0.75179 0.54641 0.0
C320 C 0.23588 0.72908 0.51732 0.0
C321 C 0.21241 0.73098 0.48896 0.0
C322 C 0.12867 0.85988 0.66312 0.0
H323 H 0.13444 0.8446 0.33238 0.0
H324 H 0.14377 0.81921 0.39853 0.0
H325 H 0.15844 0.90244 0.45939 0.0
H326 H 0.14724 0.92768 0.39456 0.0
H327 H 0.18223 0.80861 0.44843 0.0
H328 H 0.13284 0.8754 0.51085 0.0
H329 H 0.17665 0.80925 0.58316 0.0
H330 H 0.13609 0.82104 0.62709 0.0
H331 H 0.15297 0.90343 0.56471 0.0
H332 H 0.13727 0.92958 0.62658 0.0
H333 H 0.17633 0.75639 0.46654 0.0
H334 H 0.22623 0.79365 0.56859 0.0
H335 H 0.12253 0.84743 0.69068 0.0
H336 H 0.20867 0.71394 0.46597 0.0
H337 H 0.2579 0.75079 0.56896 0.0
C338 C 0.11685 0.15821 0.67052 0.0
C339 C 0.11 0.12866 0.67783 0.0
C340 C 0.13277 0.1664 0.63501 0.0
C341 C 0.14187 0.14522 0.60592 0.0
C342 C 0.13496 0.11568 0.61318 0.0
C343 C 0.11932 0.10745 0.64896 0.0
C344 C 0.15827 0.15399 0.56787 0.0
C345 C 0.18188 0.17357 0.57079 0.0
C346 C 0.19725 0.18206 0.53477 0.0
C347 C 0.18867 0.17143 0.49539 0.0
C348 C 0.16469 0.15227 0.49184 0.0
C349 C 0.14989 0.14334 0.52834 0.0
C350 C 0.15386 0.14288 0.45009 0.0
C351 C 0.15005 0.16348 0.4178 0.0
C352 C 0.14551 0.11367 0.44307 0.0
C353 C 0.13289 0.1054 0.40494 0.0
C354 C 0.12814 0.12621 0.37319 0.0
C355 C 0.22185 0.20274 0.53839 0.0
C356 C 0.21652 0.23213 0.54798 0.0
C357 C 0.25067 0.19312 0.53297 0.0
C358 C 0.27402 0.21271 0.53739 0.0
C359 C 0.26887 0.24241 0.54658 0.0
C360 C 0.23976 0.25185 0.55163 0.0
C361 C 0.13721 0.15525 0.37979 0.0
H362 H 0.11008 0.17495 0.69247 0.0
H363 H 0.13762 0.18935 0.62997 0.0
H364 H 0.14187 0.09892 0.59134 0.0
H365 H 0.11415 0.08454 0.65376 0.0
H366 H 0.18859 0.18191 0.60115 0.0
H367 H 0.131 0.12905 0.52584 0.0
H368 H 0.20042 0.17838 0.46756 0.0
H369 H 0.15604 0.18619 0.42244 0.0
H370 H 0.14838 0.0973 0.46733 0.0
H371 H 0.12595 0.0829 0.40083 0.0
H372 H 0.19432 0.23988 0.55211 0.0
H373 H 0.25511 0.17038 0.52589 0.0
H374 H 0.13403 0.17169 0.35571 0.0
H375 H 0.23478 0.2746 0.55773 0.0
H376 H 0.29607 0.20448 0.53396 0.0
C377 C 0.8056 0.09415 0.66004 0.0
C378 C 0.8336 0.08144 0.66119 0.0
C379 C 0.79655 0.11013 0.62492 0.0
C380 C 0.8153 0.11351 0.59035 0.0
C381 C 0.84352 0.10153 0.59205 0.0
C382 C 0.8526 0.08575 0.6271 0.0
C383 C 0.80526 0.12835 0.5517 0.0
C384 C 0.7914 0.15568 0.55336 0.0
C385 C 0.78305 0.17005 0.51619 0.0
C386 C 0.78807 0.15644 0.47734 0.0
C387 C 0.802 0.12923 0.47543 0.0
C388 C 0.8104 0.11529 0.51265 0.0
C389 C 0.80923 0.11582 0.43465 0.0
C390 C 0.78796 0.11261 0.40314 0.0
C391 C 0.83773 0.10579 0.42742 0.0
C392 C 0.84481 0.09227 0.38972 0.0
C393 C 0.82344 0.08812 0.35853 0.0
C394 C 0.76981 0.19959 0.51765 0.0
C395 C 0.74821 0.20625 0.54742 0.0
C396 C 0.77844 0.22123 0.48877 0.0
C397 C 0.76517 0.24868 0.48889 0.0
C398 C 0.74304 0.25509 0.51795 0.0
C399 C 0.73497 0.23373 0.54759 0.0
C400 C 0.79499 0.09874 0.36535 0.0
H401 H 0.79042 0.09107 0.68575 0.0
H402 H 0.77462 0.11906 0.62423 0.0
H403 H 0.85859 0.10429 0.5661 0.0
H404 H 0.87456 0.07689 0.62746 0.0
H405 H 0.78814 0.16621 0.58345 0.0
H406 H 0.82086 0.09404 0.51119 0.0
H407 H 0.78164 0.16722 0.44847 0.0
H408 H 0.7658 0.12018 0.40815 0.0
H409 H 0.85464 0.10855 0.45093 0.0
H410 H 0.86714 0.08513 0.38499 0.0
H411 H 0.74105 0.19 0.56998 0.0
H412 H 0.7954 0.2169 0.4659 0.0
H413 H 0.77806 0.09579 0.34195 0.0
H414 H 0.71822 0.23819 0.57072 0.0
H415 H 0.77171 0.26461 0.46549 0.0
C416 C 0.12021 0.14385 0.98338 0.0
C417 C 0.10389 0.13494 0.01842 0.0
C418 C 0.14076 0.16657 0.98644 0.0
C419 C 0.14499 0.1808 0.02541 0.0
C420 C 0.12742 0.17304 0.06026 0.0
C421 C 0.10706 0.15019 0.05633 0.0
C422 C 0.15903 0.17425 0.9485 0.0
C423 C 0.13106 0.18791 0.10222 0.0
C424 C 0.22096 0.21135 0.0445 0.0
C425 C 0.2172 0.24102 0.03476 0.0
C426 C 0.19745 0.19167 0.04239 0.0
C427 C 0.16946 0.20195 0.03047 0.0
C428 C 0.16531 0.23202 0.02172 0.0
C429 C 0.1893 0.25121 0.02379 0.0
C430 C 0.20279 0.1597 0.05169 0.0
C431 C 0.13569 0.24379 0.00939 0.0
H432 H 0.11788 0.13226 0.95392 0.0
H433 H 0.09409 0.14383 0.08328 0.0
H434 H 0.1587 0.1982 0.94287 0.0
H435 H 0.18212 0.16794 0.95424 0.0
H436 H 0.15127 0.16297 0.91969 0.0
H437 H 0.1133 0.18199 0.12447 0.0
H438 H 0.15228 0.18142 0.11631 0.0
H439 H 0.13143 0.21204 0.09835 0.0
H440 H 0.24257 0.20331 0.05243 0.0
H441 H 0.18629 0.2742 0.01662 0.0
H442 H 0.19822 0.14646 0.02326 0.0
H443 H 0.18772 0.15202 0.07667 0.0
H444 H 0.22564 0.15544 0.06186 0.0
H445 H 0.12873 0.23397 0.97916 0.0
H446 H 0.13577 0.26798 0.00596 0.0
H447 H 0.1191 0.23758 0.03321 0.0
C448 C 0.8627 0.11143 0.0103 0.0
C449 C 0.87787 0.102 0.04612 0.0
C450 C 0.84039 0.1323 0.01309 0.0
C451 C 0.833 0.14412 0.05269 0.0
C452 C 0.84748 0.13403 0.08921 0.0
C453 C 0.86965 0.11293 0.08556 0.0
C454 C 0.82547 0.1425 0.97338 0.0
C455 C 0.84004 0.14603 0.132 0.0
C456 C 0.80079 0.22045 0.04978 0.0
C457 C 0.77073 0.21461 0.05231 0.0
C458 C 0.8213 0.19772 0.05097 0.0
C459 C 0.81152 0.16844 0.05517 0.0
C460 C 0.78124 0.16245 0.05901 0.0
C461 C 0.76115 0.18563 0.05722 0.0
C462 C 0.85341 0.20499 0.04649 0.0
C463 C 0.77005 0.13154 0.06407 0.0
H464 H 0.86869 0.10298 0.97969 0.0
H465 H 0.88102 0.10561 0.11345 0.0
H466 H 0.80139 0.14036 0.97647 0.0
H467 H 0.83039 0.16601 0.96803 0.0
H468 H 0.83262 0.12996 0.94538 0.0
H469 H 0.85467 0.13739 0.15691 0.0
H470 H 0.84165 0.17026 0.13193 0.0
H471 H 0.81711 0.14029 0.13999 0.0
H472 H 0.80823 0.24281 0.04558 0.0
H473 H 0.73791 0.18112 0.05963 0.0
H474 H 0.86207 0.19505 0.01729 0.0
H475 H 0.86594 0.1956 0.0731 0.0
H476 H 0.85749 0.22895 0.04536 0.0
H477 H 0.77527 0.11864 0.03559 0.0
H478 H 0.74603 0.13075 0.06926 0.0
H479 H 0.78111 0.12076 0.09093 0.0
C480 C 0.90158 0.85866 0.9717 0.0
C481 C 0.9123 0.86873 0.01035 0.0
C482 C 0.88049 0.83636 0.96997 0.0
C483 C 0.87007 0.82382 0.00776 0.0
C484 C 0.88278 0.83201 0.04651 0.0
C485 C 0.90378 0.85439 0.04733 0.0
C486 C 0.8676 0.82808 0.92799 0.0
C487 C 0.87254 0.8189 0.08746 0.0
C488 C 0.79017 0.80207 0.01129 0.0
C489 C 0.79168 0.77157 0.00772 0.0
C490 C 0.81558 0.81923 0.01111 0.0
C491 C 0.84321 0.80553 0.00735 0.0
C492 C 0.84494 0.77474 0.00353 0.0
C493 C 0.81908 0.75808 0.00366 0.0
C494 C 0.81282 0.85206 0.01496 0.0
C495 C 0.87404 0.75945 -0.0003 0.0
H496 H 0.90819 0.86945 0.94291 0.0
H497 H 0.91237 0.86169 0.07725 0.0
H498 H 0.8656 0.80397 0.92511 0.0
H499 H 0.84526 0.83736 0.92529 0.0
H500 H 0.88095 0.83646 0.90144 0.0
H501 H 0.88745 0.8244 0.11387 0.0
H502 H 0.85043 0.82738 0.09501 0.0
H503 H 0.8708 0.79475 0.08497 0.0
H504 H 0.769 0.81258 0.01379 0.0
H505 H 0.8203 0.73446 0.00126 0.0
H506 H 0.82295 0.86288 0.98737 0.0
H507 H 0.82469 0.85978 0.04325 0.0
H508 H 0.78967 0.85925 0.01726 0.0
H509 H 0.88624 0.76807 0.97224 0.0
H510 H 0.87158 0.73539 0.99618 0.0
H511 H 0.88756 0.76392 0.02791 0.0
C512 C 0.14248 0.90018 0.99673 0.0
C513 C 0.12515 0.90514 0.03234 0.0
C514 C 0.16394 0.87832 0.99663 0.0
C515 C 0.16833 0.86123 0.03312 0.0
C516 C 0.152 0.86715 0.06984 0.0
C517 C 0.13044 0.88889 0.06889 0.0
C518 C 0.18078 0.87251 0.95676 0.0
C519 C 0.15633 0.84957 0.1095 0.0
C520 C 0.19442 0.78328 0.01936 0.0
C521 C 0.22416 0.78572 0.02942 0.0
C522 C 0.17612 0.80779 0.02014 0.0
C523 C 0.18782 0.83535 0.03166 0.0
C524 C 0.21786 0.83798 0.04186 0.0
C525 C 0.23576 0.81309 0.04037 0.0
C526 C 0.14425 0.80418 0.0086 0.0
C527 C 0.23096 0.86698 0.05465 0.0
H528 H 0.13861 0.91269 0.96836 0.0
H529 H 0.11695 0.89234 0.09637 0.0
H530 H 0.20461 0.87167 0.96328 0.0
H531 H 0.17432 0.85088 0.94391 0.0
H532 H 0.1767 0.88942 0.93239 0.0
H533 H 0.14338 0.85827 0.13617 0.0
H534 H 0.1497 0.82652 0.10403 0.0
H535 H 0.17979 0.84946 0.11846 0.0
H536 H 0.18554 0.76217 0.01037 0.0
H537 H 0.25874 0.81491 0.04844 0.0
H538 H 0.13872 0.81879 0.98194 0.0
H539 H 0.13023 0.81062 0.03543 0.0
H540 H 0.13875 0.78132 -0.00029 0.0
H541 H 0.22772 0.88336 0.02937 0.0
H542 H 0.25474 0.86533 0.0615 0.0
H543 H 0.21966 0.87536 0.08298 0.0
C544 C 0.6096 0.63101 0.58072 0.0
C545 C 0.59952 0.62295 0.54071 0.0
C546 C 0.63124 0.65266 0.58553 0.0
C547 C 0.64296 0.66658 0.54953 0.0
C548 C 0.63189 0.65949 0.50931 0.0
C549 C 0.6103 0.63784 0.50541 0.0
C550 C 0.64215 0.66001 0.62899 0.0
C551 C 0.64381 0.67379 0.4701 0.0
C552 C 0.68881 0.73603 0.55468 0.0
C553 C 0.71719 0.7248 0.55025 0.0
C554 C 0.66438 0.7173 0.5563 0.0
C555 C 0.66849 0.68668 0.55317 0.0
C556 C 0.69716 0.67521 0.55027 0.0
C557 C 0.72112 0.69438 0.54901 0.0
C558 C 0.63416 0.73032 0.55969 0.0
C559 C 0.70249 0.64268 0.54709 0.0
H560 H 0.60115 0.61992 0.60822 0.0
H561 H 0.60254 0.63196 0.47437 0.0
H562 H 0.63146 0.64651 0.65362 0.0
H563 H 0.66615 0.65662 0.63089 0.0
H564 H 0.63797 0.68342 0.6358 0.0
H565 H 0.63144 0.66734 0.44154 0.0
H566 H 0.6431 0.69796 0.47309 0.0
H567 H 0.66706 0.66752 0.46582 0.0
H568 H 0.68557 0.7595 0.55545 0.0
H569 H 0.74303 0.68551 0.54655 0.0
H570 H 0.62155 0.71929 0.58491 0.0
H571 H 0.62212 0.72679 0.52989 0.0
H572 H 0.63485 0.75418 0.56625 0.0
H573 H 0.69178 0.6311 0.57359 0.0
H574 H 0.72616 0.63722 0.54721 0.0
H575 H 0.69266 0.63417 0.51767 0.0
C576 C 0.35155 0.6001 0.54453 0.0
C577 C 0.36535 0.59365 0.50634 0.0
C578 C 0.32782 0.61944 0.54621 0.0
C579 C 0.31757 0.63256 0.50876 0.0
C580 C 0.33 0.62452 0.46978 0.0
C581 C 0.35376 0.60513 0.46902 0.0
C582 C 0.31498 0.62721 0.58838 0.0
C583 C 0.3195 0.6378 0.42909 0.0
C584 C 0.24629 0.67533 0.51058 0.0
C585 C 0.25655 0.7041 0.51549 0.0
C586 C 0.26584 0.65171 0.50831 0.0
C587 C 0.2963 0.65706 0.51089 0.0
C588 C 0.30674 0.68606 0.51576 0.0
C589 C 0.28675 0.70919 0.51799 0.0
C590 C 0.25395 0.62106 0.50332 0.0
C591 C 0.33909 0.69269 0.51844 0.0
H592 H 0.35998 0.59093 0.57345 0.0
H593 H 0.36406 0.60008 0.43928 0.0
H594 H 0.32134 0.64993 0.59668 0.0
H595 H 0.29074 0.62637 0.58726 0.0
H596 H 0.32272 0.61236 0.61366 0.0
H597 H 0.32861 0.62636 0.40128 0.0
H598 H 0.29528 0.63718 0.42724 0.0
H599 H 0.32629 0.66112 0.42769 0.0
H600 H 0.22294 0.67127 0.50898 0.0
H601 H 0.29483 0.73141 0.52106 0.0
H602 H 0.26095 0.60731 0.53019 0.0
H603 H 0.26297 0.61094 0.47449 0.0
H604 H 0.22968 0.62063 0.50145 0.0
H605 H 0.34887 0.68088 0.54544 0.0
H606 H 0.3436 0.71645 0.52216 0.0
H607 H 0.35028 0.6849 0.48967 0.0
C608 C 0.37293 0.37726 0.51296 0.0
C609 C 0.39746 0.37957 0.53914 0.0
C610 C 0.35328 0.35389 0.51694 0.0
C611 C 0.35876 0.33174 0.547 0.0
C612 C 0.38385 0.33361 0.57302 0.0
C613 C 0.40261 0.35791 0.56941 0.0
C614 C 0.32645 0.35309 0.48923 0.0
C615 C 0.3909 0.31013 0.60476 0.0
C616 C 0.29225 0.28709 0.5783 0.0
C617 C 0.29355 0.2637 0.5498 0.0
C618 C 0.31392 0.30888 0.57884 0.0
C619 C 0.33787 0.30691 0.55093 0.0
C620 C 0.34031 0.28249 0.52392 0.0
C621 C 0.31796 0.26139 0.52327 0.0
C622 C 0.31054 0.33464 0.60805 0.0
C623 C 0.36606 0.27918 0.49467 0.0
H624 H 0.36873 0.39416 0.48983 0.0
H625 H 0.42162 0.35964 0.58967 0.0
H626 H 0.3267 0.33312 0.46949 0.0
H627 H 0.30642 0.35213 0.50886 0.0
H628 H 0.32499 0.37249 0.46831 0.0
H629 H 0.41431 0.31079 0.61412 0.0
H630 H 0.3774 0.31348 0.63325 0.0
H631 H 0.38588 0.28801 0.59232 0.0
H632 H 0.27399 0.28869 0.59983 0.0
H633 H 0.31923 0.24363 0.50088 0.0
H634 H 0.30842 0.35508 0.58946 0.0
H635 H 0.33029 0.33696 0.62801 0.0
H636 H 0.29108 0.33249 0.62869 0.0
H637 H 0.36514 0.29627 0.46996 0.0
H638 H 0.36643 0.2574 0.47924 0.0
H639 H 0.38686 0.28228 0.51211 0.0
C640 C 0.646 0.39493 0.46951 0.0
C641 C 0.63639 0.40745 0.50718 0.0
C642 C 0.66791 0.37352 0.46956 0.0
C643 C 0.68036 0.36457 0.50818 0.0
C644 C 0.67291 0.37936 0.54562 0.0
C645 C 0.65103 0.40072 0.54463 0.0
C646 C 0.67559 0.35855 0.42885 0.0
C647 C 0.68588 0.37072 0.58741 0.0
C648 C 0.69686 0.28394 0.51961 0.0
C649 C 0.7274 0.28341 0.51605 0.0
C650 C 0.68144 0.31027 0.51702 0.0
C651 C 0.69692 0.33676 0.51052 0.0
C652 C 0.72775 0.33647 0.5068 0.0
C653 C 0.74268 0.30972 0.50963 0.0
C654 C 0.64849 0.30967 0.52111 0.0
C655 C 0.74489 0.36434 0.49997 0.0
H656 H 0.63494 0.4002 0.44038 0.0
H657 H 0.6442 0.41093 0.57367 0.0
H658 H 0.69952 0.35496 0.42649 0.0
H659 H 0.66479 0.33678 0.42779 0.0
H660 H 0.66825 0.37139 0.40117 0.0
H661 H 0.68211 0.38768 0.61175 0.0
H662 H 0.67558 0.35002 0.59818 0.0
H663 H 0.70974 0.36681 0.58465 0.0
H664 H 0.68492 0.26362 0.52376 0.0
H665 H 0.76632 0.30941 0.50717 0.0
H666 H 0.63829 0.31885 0.49239 0.0
H667 H 0.64159 0.32352 0.5479 0.0
H668 H 0.63983 0.2872 0.52609 0.0
H669 H 0.73713 0.37553 0.47114 0.0
H670 H 0.76875 0.36029 0.49701 0.0
H671 H 0.74121 0.37955 0.52654 0.0
C672 C 0.01859 0.06604 0.20019 0.0
C673 C 0.02511 0.07543 0.15939 0.0
C674 C 0.03682 0.07343 0.23401 0.0
C675 C 0.06201 0.09085 0.22685 0.0
C676 C 0.06897 0.09992 0.18555 0.0
C677 C 0.05019 0.09237 0.15245 0.0
C678 C 0.0288 0.0631 0.27753 0.0
C679 C 0.09552 0.11848 0.17599 0.0
C680 C 0.08947 0.13539 0.31928 0.0
C681 C 0.11242 0.11793 0.33424 0.0
C682 C 0.07322 0.12706 0.2839 0.0
C683 C 0.08013 0.10069 0.26295 0.0
C684 C 0.10389 0.08348 0.27703 0.0
C685 C 0.11962 0.09217 0.31278 0.0
C686 C 0.04844 0.1463 0.26919 0.0
C687 C 0.11258 0.05589 0.25439 0.0
H688 H -0.00082 0.05289 0.2057 0.0
H689 H 0.05476 0.10044 0.12127 0.0
H690 H 0.04764 0.05177 0.29225 0.0
H691 H 0.02345 0.08223 0.29749 0.0
H692 H 0.00973 0.04798 0.27736 0.0
H693 H 0.08912 0.14189 0.17655 0.0
H694 H 0.11342 0.11525 0.19901 0.0
H695 H 0.10414 0.11353 0.14422 0.0
H696 H 0.08372 0.15522 0.33593 0.0
H697 H 0.13763 0.07886 0.3239 0.0
H698 H 0.02753 0.13391 0.27027 0.0
H699 H 0.05214 0.15291 0.2361 0.0
H700 H 0.04613 0.16634 0.28859 0.0
H701 H 0.09442 0.03984 0.25597 0.0
H702 H 0.13256 0.04587 0.26798 0.0
H703 H 0.1166 0.06065 0.22072 0.0
C704 C 0.87464 0.99607 0.15712 0.0
C705 C 0.90167 0.00829 0.14574 0.0
C706 C 0.85691 0.00958 0.18728 0.0
C707 C 0.86692 0.03541 0.20714 0.0
C708 C 0.89354 0.0485 0.19429 0.0
C709 C 0.91047 0.0348 0.16357 0.0
C710 C 0.82829 0.99539 0.19946 0.0
C711 C 0.90509 0.07598 0.21483 0.0
C712 C 0.82175 0.08272 0.28007 0.0
C713 C 0.83126 0.07256 0.31934 0.0
C714 C 0.83193 0.06982 0.24287 0.0
C715 C 0.85214 0.04647 0.24528 0.0
C716 C 0.86061 0.03526 0.28482 0.0
C717 C 0.84981 0.04822 0.3213 0.0
C718 C 0.82166 0.08153 0.20109 0.0
C719 C 0.88237 0.01058 0.28872 0.0
H720 H 0.86758 0.97566 0.14301 0.0
H721 H 0.93133 0.0441 0.15519 0.0
H722 H 0.83079 0.9843 0.23023 0.0
H723 H 0.81087 0.01207 0.20286 0.0
H724 H 0.82115 0.97886 0.17605 0.0
H725 H 0.92518 0.08437 0.19926 0.0
H726 H 0.88825 0.09341 0.21415 0.0
H727 H 0.91026 0.07144 0.24824 0.0
H728 H 0.80727 0.10142 0.27836 0.0
H729 H 0.85656 0.03972 0.35155 0.0
H730 H 0.80863 0.06447 0.18477 0.0
H731 H 0.84059 0.08677 0.18066 0.0
H732 H 0.80795 0.10142 0.20452 0.0
H733 H 0.87569 0.99197 0.26863 0.0
H734 H 0.88463 0.00266 0.32153 0.0
H735 H 0.90414 0.01811 0.27763 0.0
C736 C 0.99424 0.9293 0.2003 0.0
C737 C 0.98306 0.92694 0.1595 0.0
C738 C 0.97914 0.91725 0.23456 0.0
C739 C 0.95236 0.90232 0.22767 0.0
C740 C 0.94078 0.90032 0.18661 0.0
C741 C 0.95636 0.91258 0.15305 0.0
C742 C 0.99207 0.92009 0.27797 0.0
C743 C 0.91239 0.88447 0.1778 0.0
C744 C 0.92883 0.84626 0.30898 0.0
C745 C 0.90774 0.86187 0.33162 0.0
C746 C 0.94334 0.85908 0.27477 0.0
C747 C 0.93677 0.88827 0.26328 0.0
C748 C 0.91531 0.90403 0.28581 0.0
C749 C 0.90097 0.89059 0.31963 0.0
C750 C 0.96581 0.84146 0.25107 0.0
C751 C 0.9078 0.93521 0.27458 0.0
H752 H 0.0148 0.94063 0.20543 0.0
H753 H 0.94802 0.91012 0.12162 0.0
H754 H 0.97548 0.92859 0.3002 0.0
H755 H -0.0011 0.89822 0.28944 0.0
H756 H 0.01139 0.93486 0.27854 0.0
H757 H 0.90438 0.8885 0.1454 0.0
H758 H 0.91568 0.86059 0.18191 0.0
H759 H 0.89514 0.89132 0.20018 0.0
H760 H 0.93394 0.82398 0.31803 0.0
H761 H 0.88497 0.90286 0.33747 0.0
H762 H 0.98744 0.85246 0.25276 0.0
H763 H 0.95965 0.84014 0.21745 0.0
H764 H 0.96805 0.81888 0.26361 0.0
H765 H 0.92759 0.94922 0.27703 0.0
H766 H 0.89057 0.94425 0.29536 0.0
H767 H 0.90006 0.93643 0.24162 0.0
C768 C 0.07438 0.9952 0.18712 0.0
C769 C 0.08598 0.99159 0.14692 0.0
C770 C 0.08359 0.97732 0.22034 0.0
C771 C 0.10541 0.95596 0.21311 0.0
C772 C 0.11761 0.95275 0.17256 0.0
C773 C 0.10746 0.97048 0.13971 0.0
C774 C 0.06998 0.98127 0.26312 0.0
C775 C 0.14122 0.93053 0.16393 0.0
C776 C 0.14788 0.92981 0.30805 0.0
C777 C 0.13279 0.90407 0.31872 0.0
C778 C 0.13946 0.94667 0.27338 0.0
C779 C 0.11574 0.93729 0.24822 0.0
C780 C 0.10127 0.91065 0.25755 0.0
C781 C 0.10979 0.89448 0.29294 0.0
C782 C 0.15535 0.97502 0.2645 0.0
C783 C 0.0761 0.89976 0.23107 0.0
H784 H 0.05766 0.0116 0.19231 0.0
H785 H 0.11657 0.96815 0.1085 0.0
H786 H 0.06076 0.96023 0.27441 0.0
H787 H 0.08701 0.98808 0.28596 0.0
H788 H 0.05231 0.99791 0.26295 0.0
H789 H 0.14962 0.93201 0.13131 0.0
H790 H 0.15984 0.93366 0.18582 0.0
H791 H 0.13249 0.90819 0.16941 0.0
H792 H 0.1661 0.93706 0.3272 0.0
H793 H 0.09778 0.87482 0.30113 0.0
H794 H 0.13994 0.99353 0.268 0.0
H795 H 0.16343 0.97538 0.2317 0.0
H796 H 0.17416 0.97859 0.28598 0.0
H797 H 0.05708 0.91446 0.23517 0.0
H798 H 0.06931 0.8772 0.23975 0.0
H799 H 0.08206 0.90012 0.19733 0.0
C800 C 0.10385 0.97067 0.88322 0.0
C801 C 0.08403 0.9939 0.87958 0.0
C802 C 0.10918 0.95192 0.84936 0.0
C803 C 0.09431 0.9565 0.81097 0.0
C804 C 0.0731 0.97893 0.80779 0.0
C805 C 0.06836 0.99751 0.8421 0.0
C806 C 0.13132 0.92768 0.85433 0.0
C807 C 0.05624 0.98432 0.76779 0.0
C808 C 0.13469 0.93308 0.71299 0.0
C809 C 0.12009 0.90709 0.70216 0.0
C810 C 0.12611 0.94956 0.74787 0.0
C811 C 0.10287 0.93945 0.77334 0.0
C812 C 0.08827 0.91308 0.76311 0.0
C813 C 0.09686 0.89733 0.72741 0.0
C814 C 0.14184 0.97791 0.75737 0.0
C815 C 0.06314 0.90196 0.78933 0.0
H816 H 0.11565 0.9674 0.91235 0.0
H817 H 0.05248 0.01499 0.8394 0.0
H818 H 0.12165 0.90647 0.84451 0.0
H819 H 0.15041 0.93199 0.8337 0.0
H820 H 0.13924 0.92559 0.88715 0.0
H821 H 0.03487 0.99488 0.7743 0.0
H822 H 0.06914 -0.00085 0.74729 0.0
H823 H 0.05211 0.96382 0.75019 0.0
H824 H 0.15301 0.94058 0.69425 0.0
H825 H 0.08503 0.87762 0.71893 0.0
H826 H 0.15218 0.97671 0.78883 0.0
H827 H 0.12593 0.99622 0.75805 0.0
H828 H 0.15904 0.98307 0.73387 0.0
H829 H 0.06971 0.90033 0.82277 0.0
H830 H 0.0551 0.88024 0.77868 0.0
H831 H 0.04488 0.91781 0.7875 0.0
C832 C 0.00405 0.06772 0.85745 0.0
C833 C 0.00877 0.08236 0.89549 0.0
C834 C 0.02115 0.07407 0.82201 0.0
C835 C 0.04355 0.09542 0.82485 0.0
C836 C 0.04897 0.10961 0.86351 0.0
C837 C 0.03138 0.10306 0.89828 0.0
C838 C 0.01493 0.0583 0.78141 0.0
C839 C 0.07343 0.13165 0.86814 0.0
C840 C 0.10249 0.09685 0.74079 0.0
C841 C 0.09303 0.12002 0.71543 0.0
C842 C 0.08686 0.08871 0.77683 0.0
C843 C 0.06072 0.10369 0.78708 0.0
C844 C 0.05096 0.12697 0.7613 0.0
C845 C 0.06735 0.13499 0.72593 0.0
C846 C 0.0983 0.0636 0.80284 0.0
C847 C 0.02315 0.14339 0.77107 0.0
H848 H 0.98705 0.05123 0.85538 0.0
H849 H 0.0353 0.11431 0.92767 0.0
H850 H 0.00535 0.07387 0.7585 0.0
H851 H 0.03551 0.04982 0.76764 0.0
H852 H -0.00056 0.03979 0.78574 0.0
H853 H 0.0747 0.14084 0.90035 0.0
H854 H 0.09465 0.12111 0.86062 0.0
H855 H 0.07034 0.14991 0.84562 0.0
H856 H 0.12242 0.08529 0.73279 0.0
H857 H 0.05986 0.15273 0.70606 0.0
H858 H 0.09045 0.04285 0.78881 0.0
H859 H 0.09094 0.06448 0.83595 0.0
H860 H 0.1226 0.06307 0.80235 0.0
H861 H 0.00438 0.12795 0.77209 0.0
H862 H 0.01839 0.1607 0.74755 0.0
H863 H 0.02487 0.15372 0.80247 0.0
C864 C 0.87395 0.97562 0.85409 0.0
C865 C 0.90179 0.98316 0.86917 0.0
C866 C 0.86134 0.99081 0.82044 0.0
C867 C 0.87689 0.0142 0.80168 0.0
C868 C 0.90493 0.02202 0.81685 0.0
C869 C 0.91709 0.00637 0.85045 0.0
C870 C 0.83155 0.98166 0.80464 0.0
C871 C 0.92216 0.04673 0.79726 0.0
C872 C 0.85875 0.03746 0.6906 0.0
C873 C 0.84306 0.06337 0.69739 0.0
C874 C 0.86928 0.02081 0.72424 0.0
C875 C 0.86401 0.03034 0.76577 0.0
C876 C 0.84736 0.05594 0.77293 0.0
C877 C 0.83712 0.07222 0.73861 0.0
C878 C 0.88706 0.99378 0.71487 0.0
C879 C 0.84092 0.06648 0.81685 0.0
H880 H 0.86208 0.95761 0.86833 0.0
H881 H 0.93856 0.01241 0.86211 0.0
H882 H 0.81637 0.00056 0.80535 0.0
H883 H 0.83324 0.97439 0.77153 0.0
H884 H 0.82195 0.96357 0.82349 0.0
H885 H 0.94369 0.05004 0.81263 0.0
H886 H 0.92587 0.04214 0.7635 0.0
H887 H 0.9096 0.06742 0.79928 0.0
H888 H 0.86297 0.03021 0.6588 0.0
H889 H 0.82514 0.09229 0.74405 0.0
H890 H 0.88326 0.97622 0.73831 0.0
H891 H 0.91061 -0.00034 0.71566 0.0
H892 H 0.88209 0.98495 0.68319 0.0
H893 H 0.83046 0.04873 0.83535 0.0
H894 H 0.82633 0.08588 0.81707 0.0
H895 H 0.86166 0.07233 0.83294 0.0
C896 C 0.00355 0.91798 0.85645 0.0
C897 C 0.00419 0.94828 0.86324 0.0
C898 C 0.98809 0.90601 0.8226 0.0
C899 C 0.97301 0.92481 0.79482 0.0
C900 C 0.97432 0.95547 0.80075 0.0
C901 C 0.98975 0.96689 0.83514 0.0
C902 C 0.98779 0.87323 0.81672 0.0
C903 C 0.95888 0.97606 0.77123 0.0
C904 C 0.95074 0.89331 0.68946 0.0
C905 C 0.92188 0.8842 0.69737 0.0
C906 C 0.96751 0.9071 0.72057 0.0
C907 C 0.95502 0.9122 0.76047 0.0
C908 C 0.92562 0.90404 0.76826 0.0
C909 C 0.90948 0.88992 0.73676 0.0
C910 C -0.00111 0.91511 0.711 0.0
C911 C 0.91142 0.90949 0.81026 0.0
H912 H 0.01473 0.90347 0.87806 0.0
H913 H 0.99043 0.99035 0.84008 0.0
H914 H 0.96513 0.86481 0.82016 0.0
H915 H 0.99526 0.86763 0.78461 0.0
H916 H 0.00202 0.86179 0.83972 0.0
H917 H 0.96362 -0.00067 0.77848 0.0
H918 H 0.96547 0.97167 0.73835 0.0
H919 H 0.93496 0.9723 0.77337 0.0
H920 H 0.96036 0.8896 0.65887 0.0
H921 H 0.88736 0.88274 0.74342 0.0
H922 H 0.01351 0.89834 0.72487 0.0
H923 H 0.0049 0.93655 0.72485 0.0
H924 H 0.00312 0.91593 0.6767 0.0
H925 H 0.92103 0.89463 0.83409 0.0
H926 H 0.88738 0.90584 0.80939 0.0
H927 H 0.91571 0.93221 0.82065 0.0
C928 C 0.49223 0.61705 0.66463 0.0
C929 C 0.50642 0.59451 0.64278 0.0
C930 C 0.50622 0.63171 0.69785 0.0
C931 C 0.53489 0.62337 0.70964 0.0
C932 C 0.5496 0.60142 0.68678 0.0
C933 C 0.53517 0.58742 0.65374 0.0
C934 C 0.4902 0.65565 0.72084 0.0
C935 C 0.58014 0.59168 0.6984 0.0
C936 C 0.58369 0.66746 0.78253 0.0
C937 C 0.57972 0.65252 0.82065 0.0
C938 C 0.56821 0.65914 0.74633 0.0
C939 C 0.54858 0.63518 0.74833 0.0
C940 C 0.54391 0.62059 0.78692 0.0
C941 C 0.55922 0.62967 0.82263 0.0
C942 C 0.57338 0.67545 0.70577 0.0
C943 C 0.52369 0.5945 0.79019 0.0
H944 H 0.47003 0.62295 0.65624 0.0
H945 H 0.54625 0.57022 0.63754 0.0
H946 H 0.48942 0.65079 0.75493 0.0
H947 H 0.5022 0.67662 0.71704 0.0
H948 H 0.46749 0.65857 0.70916 0.0
H949 H 0.58923 0.57575 0.67558 0.0
H950 H 0.5951 0.61078 0.70011 0.0
H951 H 0.57982 0.58128 0.72987 0.0
H952 H 0.59954 0.68508 0.7806 0.0
H953 H 0.55537 0.61849 0.85213 0.0
H954 H 0.55269 0.68581 0.69533 0.0
H955 H 0.58015 0.66009 0.68069 0.0
H956 H 0.59038 0.69272 0.70897 0.0
H957 H 0.50224 0.59961 0.77589 0.0
H958 H 0.52013 0.58749 0.82318 0.0
H959 H 0.53311 0.57586 0.7725 0.0
C960 C 0.41136 0.54692 0.6451 0.0
C961 C 0.42621 0.5207 0.6526 0.0
C962 C 0.40075 0.56399 0.67824 0.0
C963 C 0.40434 0.55404 0.71995 0.0
C964 C 0.41935 0.52753 0.72785 0.0
C965 C 0.43013 0.51118 0.69405 0.0
C966 C 0.38493 0.59213 0.66826 0.0
C967 C 0.42378 0.5163 0.77197 0.0
C968 C 0.39753 0.6069 0.81095 0.0
C969 C 0.36934 0.60055 0.82572 0.0
C970 C 0.40897 0.59235 0.77594 0.0
C971 C 0.39185 0.57089 0.7554 0.0
C972 C 0.36308 0.56493 0.76946 0.0
C973 C 0.35215 0.57986 0.80449 0.0
C974 C 0.4394 0.59979 0.76099 0.0
C975 C 0.34412 0.54235 0.74803 0.0
H976 H 0.40736 0.55383 0.61331 0.0
H977 H 0.44154 0.49083 0.70011 0.0
H978 H 0.39024 0.60951 0.69132 0.0
H979 H 0.39047 0.6003 0.6364 0.0
H980 H 0.36098 0.58818 0.66956 0.0
H981 H 0.4362 0.49543 0.77276 0.0
H982 H 0.43577 0.53281 0.79087 0.0
H983 H 0.40225 0.51272 0.78725 0.0
H984 H 0.41069 0.62323 0.8269 0.0
H985 H 0.33044 0.5747 0.81604 0.0
H986 H 0.43844 0.60819 0.72835 0.0
H987 H 0.45314 0.57982 0.76061 0.0
H988 H 0.4501 0.6165 0.78112 0.0
H989 H 0.3417 0.54785 0.7143 0.0
H990 H 0.32199 0.54077 0.76228 0.0
H991 H 0.35471 0.52056 0.7499 0.0
C992 C 0.46738 0.40881 0.6577 0.0
C993 C 0.49589 0.4013 0.64607 0.0
C994 C 0.45313 0.39463 0.69085 0.0
C995 C 0.46762 0.37184 0.71248 0.0
C996 C 0.49586 0.36301 0.69959 0.0
C997 C 0.5098 0.37803 0.66671 0.0
C998 C 0.42318 0.4051 0.70402 0.0
C999 C 0.51151 0.33805 0.72098 0.0
C1000 C 0.44667 0.36179 0.82636 0.0
C1001 C 0.42648 0.33876 0.82405 0.0
C1002 C 0.46046 0.37244 0.79027 0.0
C1003 C 0.45431 0.35936 0.75101 0.0
C1004 C 0.43449 0.33556 0.7486 0.0
C1005 C 0.42051 0.32569 0.78523 0.0
C1006 C 0.481 0.39825 0.79404 0.0
C1007 C 0.42762 0.32101 0.70728 0.0
H1008 H 0.45647 0.42647 0.64196 0.0
H1009 H 0.53174 0.37175 0.65755 0.0
H1010 H 0.40763 0.38647 0.70564 0.0
H1011 H 0.42447 0.41481 0.73586 0.0
H1012 H 0.4142 0.4218 0.6822 0.0
H1013 H 0.53392 0.3347 0.70841 0.0
H1014 H 0.51302 0.34207 0.75522 0.0
H1015 H 0.4988 0.31755 0.71668 0.0
H1016 H 0.45091 0.37218 0.85634 0.0
H1017 H 0.40486 0.30786 0.78358 0.0
H1018 H 0.47272 0.41681 0.77496 0.0
H1019 H 0.50279 0.39233 0.78157 0.0
H1020 H 0.48363 0.40572 0.82698 0.0
H1021 H 0.41716 0.33701 0.68584 0.0
H1022 H 0.41275 0.30192 0.71099 0.0
H1023 H 0.4481 0.31362 0.692 0.0
C1024 C 0.59198 0.45059 0.64463 0.0
C1025 C 0.57504 0.47542 0.65246 0.0
C1026 C 0.6027 0.43327 0.67745 0.0
C1027 C 0.59714 0.44167 0.71937 0.0
C1028 C 0.58001 0.46681 0.72763 0.0
C1029 C 0.56918 0.48343 0.69402 0.0
C1030 C 0.62086 0.40672 0.66684 0.0
C1031 C 0.57343 0.47632 0.77197 0.0
C1032 C 0.60645 0.38676 0.80772 0.0
C1033 C 0.63358 0.39515 0.82446 0.0
C1034 C 0.59455 0.40138 0.77297 0.0
C1035 C 0.61013 0.42492 0.75465 0.0
C1036 C 0.63799 0.43279 0.77042 0.0
C1037 C 0.64939 0.41781 0.80515 0.0
C1038 C 0.56527 0.39179 0.75593 0.0
C1039 C 0.65555 0.45733 0.75099 0.0
H1040 H 0.59765 0.44515 0.61284 0.0
H1041 H 0.55618 0.50276 0.70024 0.0
H1042 H 0.61818 0.38897 0.69027 0.0
H1043 H 0.615 0.39791 0.63548 0.0
H1044 H 0.6443 0.41309 0.6662 0.0
H1045 H 0.55927 0.49603 0.77303 0.0
H1046 H 0.56238 0.45831 0.78922 0.0
H1047 H 0.59415 0.48123 0.78875 0.0
H1048 H 0.59406 0.36936 0.82261 0.0
H1049 H 0.67061 0.42403 0.81752 0.0
H1050 H 0.568 0.38358 0.72343 0.0
H1051 H 0.55006 0.41065 0.75447 0.0
H1052 H 0.5552 0.37424 0.77527 0.0
H1053 H 0.65944 0.45266 0.7173 0.0
H1054 H 0.67701 0.46053 0.76672 0.0
H1055 H 0.64306 0.47808 0.75278 0.0
C1056 C 0.60124 0.48018 0.38199 0.0
C1057 C 0.58029 0.50252 0.38093 0.0
C1058 C 0.60717 0.46335 0.34637 0.0
C1059 C 0.5918 0.469 0.3087 0.0
C1060 C 0.57012 0.49106 0.30757 0.0
C1061 C 0.56478 0.50778 0.34368 0.0
C1062 C 0.63004 0.4396 0.34903 0.0
C1063 C 0.55289 0.49729 0.26816 0.0
C1064 C 0.63258 0.44664 0.21064 0.0
C1065 C 0.61914 0.4199 0.20063 0.0
C1066 C 0.62303 0.46337 0.24474 0.0
C1067 C 0.59986 0.45286 0.27005 0.0
C1068 C 0.58596 0.42608 0.25998 0.0
C1069 C 0.59559 0.41003 0.22515 0.0
C1070 C 0.63819 0.492 0.25428 0.0
C1071 C 0.56104 0.41435 0.2861 0.0
H1072 H 0.61311 0.47579 0.41075 0.0
H1073 H 0.54834 0.52481 0.34277 0.0
H1074 H 0.62014 0.41817 0.34075 0.0
H1075 H 0.64781 0.44397 0.32616 0.0
H1076 H 0.63986 0.43788 0.38083 0.0
H1077 H 0.53477 0.51294 0.27378 0.0
H1078 H 0.56765 0.50648 0.24385 0.0
H1079 H 0.54351 0.4768 0.25531 0.0
H1080 H 0.65106 0.45429 0.19235 0.0
H1081 H 0.58465 0.38973 0.21712 0.0
H1082 H 0.64949 0.49053 0.28502 0.0
H1083 H 0.62182 0.50978 0.25662 0.0
H1084 H 0.65452 0.49804 0.22995 0.0
H1085 H 0.56784 0.41228 0.31939 0.0
H1086 H 0.55311 0.39273 0.27489 0.0
H1087 H 0.54262 0.42999 0.28501 0.0
C1088 C 0.50423 0.57667 0.33461 0.0
C1089 C 0.51026 0.58684 0.37518 0.0
C1090 C 0.5216 0.58526 0.30047 0.0
C1091 C 0.54563 0.6043 0.3072 0.0
C1092 C 0.55244 0.6138 0.34828 0.0
C1093 C 0.53462 0.60501 0.38178 0.0
C1094 C 0.5137 0.57471 0.25702 0.0
C1095 C 0.5781 0.63384 0.35676 0.0
C1096 C 0.60254 0.60991 0.2209 0.0
C1097 C 0.59386 0.63559 0.20037 0.0
C1098 C 0.58743 0.59975 0.25637 0.0
C1099 C 0.56278 0.61539 0.27098 0.0
C1100 C 0.55409 0.64148 0.25054 0.0
C1101 C 0.56987 0.65136 0.21558 0.0
C1102 C 0.59759 0.57215 0.27788 0.0
C1103 C 0.52787 0.65871 0.26519 0.0
H1104 H 0.48573 0.56227 0.32939 0.0
H1105 H 0.53966 0.61268 0.41313 0.0
H1106 H 0.50664 0.59354 0.23753 0.0
H1107 H 0.53308 0.56493 0.24152 0.0
H1108 H 0.49579 0.55825 0.25748 0.0
H1109 H 0.58163 0.63756 0.39084 0.0
H1110 H 0.59839 0.62456 0.34318 0.0
H1111 H 0.57436 0.65531 0.3414 0.0
H1112 H 0.62126 0.59785 0.20929 0.0
H1113 H 0.56299 0.67107 0.19943 0.0
H1114 H 0.58044 0.5551 0.27513 0.0
H1115 H 0.60106 0.57616 0.31184 0.0
H1116 H 0.61822 0.56364 0.26421 0.0
H1117 H 0.50791 0.64489 0.26334 0.0
H1118 H 0.5243 0.67879 0.24621 0.0
H1119 H 0.53071 0.66513 0.2985 0.0
C1120 C 0.36313 0.47918 0.36121 0.0
C1121 C 0.39005 0.4872 0.37901 0.0
C1122 C 0.35164 0.49455 0.32687 0.0
C1123 C 0.36735 0.51859 0.31022 0.0
C1124 C 0.39428 0.52711 0.32848 0.0
C1125 C 0.40539 0.51123 0.36257 0.0
C1126 C 0.32311 0.48463 0.30767 0.0
C1127 C 0.41162 0.55267 0.31147 0.0
C1128 C 0.35615 0.54215 0.19739 0.0
C1129 C 0.34064 0.5683 0.20246 0.0
C1130 C 0.3639 0.52497 0.23199 0.0
C1131 C 0.35621 0.53442 0.27285 0.0
C1132 C 0.33931 0.56011 0.27803 0.0
C1133 C 0.33174 0.5768 0.24269 0.0
C1134 C 0.38112 0.49739 0.22387 0.0
C1135 C 0.3298 0.5703 0.32097 0.0
H1136 H 0.35122 0.46055 0.37361 0.0
H1137 H 0.4262 0.51757 0.37617 0.0
H1138 H 0.30771 0.50329 0.30533 0.0
H1139 H 0.32713 0.47657 0.27535 0.0
H1140 H 0.31257 0.46683 0.32606 0.0
H1141 H 0.39862 0.57304 0.31402 0.0
H1142 H 0.43258 0.5559 0.32846 0.0
H1143 H 0.41639 0.54924 0.27768 0.0
H1144 H 0.36251 0.53516 0.1662 0.0
H1145 H 0.31968 0.597 0.24668 0.0
H1146 H 0.38219 0.48254 0.25128 0.0
H1147 H 0.40371 0.50345 0.21447 0.0
H1148 H 0.37137 0.48515 0.19718 0.0
H1149 H 0.31871 0.55222 0.33798 0.0
H1150 H 0.31473 0.5893 0.31932 0.0
H1151 H 0.34923 0.5767 0.33975 0.0
C1152 C 0.49796 0.42676 0.34533 0.0
C1153 C 0.50084 0.45597 0.35792 0.0
C1154 C 0.48172 0.41931 0.30969 0.0
C1155 C 0.46816 0.44167 0.28595 0.0
C1156 C 0.47146 0.47129 0.2981 0.0
C1157 C 0.4875 0.4781 0.33437 0.0
C1158 C 0.47908 0.38748 0.29751 0.0
C1159 C 0.45757 0.49565 0.27336 0.0
C1160 C 0.44743 0.4171 0.17667 0.0
C1161 C 0.41854 0.40747 0.1828 0.0
C1162 C 0.4634 0.42996 0.20937 0.0
C1163 C 0.45007 0.43355 0.24904 0.0
C1164 C 0.42029 0.42586 0.25458 0.0
C1165 C 0.40489 0.41279 0.22142 0.0
C1166 C 0.49505 0.43809 0.20213 0.0
C1167 C 0.40521 0.42966 0.29632 0.0
H1168 H 0.50818 0.40959 0.36365 0.0
H1169 H 0.4898 0.50072 0.3441 0.0
H1170 H 0.45574 0.38074 0.29775 0.0
H1171 H 0.48741 0.38425 0.26516 0.0
H1172 H 0.49143 0.37286 0.31899 0.0
H1173 H 0.46459 0.51755 0.28457 0.0
H1174 H 0.46295 0.49368 0.23956 0.0
H1175 H 0.43352 0.49392 0.27638 0.0
H1176 H 0.45787 0.4138 0.14653 0.0
H1177 H 0.38262 0.40541 0.22652 0.0
H1178 H 0.50936 0.42276 0.21963 0.0
H1179 H 0.49958 0.46043 0.21406 0.0
H1180 H 0.5011 0.43719 0.16841 0.0
H1181 H 0.41276 0.41242 0.31831 0.0
H1182 H 0.38103 0.42808 0.29343 0.0
H1183 H 0.4109 0.45113 0.3103 0.0
loop_
_geom_bond_atom_site_label_1
_geom_bond_atom_site_label_2
_geom_bond_distance
_geom_bond_site_symmetry_2
_ccdc_geom_bond_type
Zn0 O2 1.933 1_556 S
Zn0 O20 1.985 . S
Zn0 O31 1.955 . S
Zn1 O2 1.911 . S
Zn1 O21 1.970 . S
Zn1 O37 1.945 . S
Zn1 O44 1.981 . S
O2 Zn0 1.933 1_554 S
O2 Zn1 1.911 . S
O2 H3 0.841 1_655 S
H3 O2 0.841 1_455 S
C4 O5 1.246 . S
C4 O33 1.276 1_545 S
O5 C4 1.246 . S
Zn6 O8 1.911 . S
Zn6 O23 1.970 . S
Zn6 O40 1.945 . S
Zn6 O47 1.981 . S
Zn7 O8 1.933 1_556 S
Zn7 O22 1.985 . S
Zn7 O29 1.955 . S
O8 Zn6 1.911 . S
O8 Zn7 1.933 1_554 S
O8 H9 0.841 1_455 S
H9 O8 0.841 1_655 S
Zn10 O11 1.933 1_556 S
Zn10 O24 1.985 . S
Zn10 O33 1.955 . S
O11 Zn10 1.933 1_554 S
O11 Zn12 1.911 . S
O11 H13 0.841 1_565 S
Zn12 O11 1.911 . S
Zn12 O25 1.970 . S
Zn12 O41 1.981 . S
Zn12 O43 1.945 . S
H13 O11 0.841 1_545 S
Zn14 O15 1.933 1_556 S
Zn14 O27 1.985 . S
Zn14 O35 1.955 . S
O15 Zn14 1.933 1_554 S
O15 H16 0.841 1_545 S
O15 Zn17 1.911 . S
H16 O15 0.841 1_565 S
Zn17 O15 1.911 . S
Zn17 O28 1.970 . S
Zn17 O38 1.981 . S
Zn17 O46 1.945 . S
C18 O19 1.246 . S
C18 O35 1.276 1_565 S
O19 C18 1.246 . S
O20 Zn0 1.985 . S
O20 C30 1.245 1_556 S
O21 Zn1 1.970 . S
O21 C30 1.263 . S
O22 Zn7 1.985 . S
O22 C34 1.245 1_556 S
O23 Zn6 1.970 . S
O23 C34 1.263 . S
O24 Zn10 1.985 . S
O24 C39 1.245 1_556 S
O25 Zn12 1.970 . S
O25 C39 1.263 . S
C26 O37 1.262 1_455 S
C26 O38 1.245 . S
O27 Zn14 1.985 . S
O27 C45 1.245 1_556 S
O28 Zn17 1.970 . S
O28 C45 1.263 . S
O29 Zn7 1.955 . S
O29 C48 1.276 1_455 S
C30 O20 1.245 1_554 S
C30 O21 1.263 . S
O31 Zn0 1.955 . S
O31 C50 1.276 1_655 S
C32 O40 1.262 1_655 S
C32 O41 1.245 . S
O33 C4 1.276 1_565 S
O33 Zn10 1.955 . S
C34 O22 1.245 1_554 S
C34 O23 1.263 . S
O35 Zn14 1.955 . S
O35 C18 1.276 1_545 S
C36 O43 1.262 1_545 S
C36 O44 1.245 . S
O37 Zn1 1.945 . S
O37 C26 1.262 1_655 S
O38 Zn17 1.981 . S
O38 C26 1.245 . S
C39 O24 1.245 1_554 S
C39 O25 1.263 . S
O40 Zn6 1.945 . S
O40 C32 1.262 1_455 S
O41 Zn12 1.981 . S
O41 C32 1.245 . S
C42 O46 1.262 1_565 S
C42 O47 1.245 . S
O43 Zn12 1.945 . S
O43 C36 1.262 1_565 S
O44 Zn1 1.981 . S
O44 C36 1.245 . S
C45 O27 1.245 1_554 S
C45 O28 1.263 . S
O46 Zn17 1.945 . S
O46 C42 1.262 1_545 S
O47 Zn6 1.981 . S
O47 C42 1.245 . S
C48 O29 1.276 1_655 S
C48 O49 1.246 . S
O49 C48 1.246 . S
C50 O31 1.276 1_455 S
C50 O51 1.246 . S
O51 C50 1.246 . S
Zn52 O54 1.933 . S
Zn52 O72 1.985 . S
Zn52 O83 1.955 . S
Zn53 O54 1.911 . S
Zn53 O73 1.970 . S
Zn53 O89 1.945 . S
Zn53 O96 1.981 . S
O54 Zn52 1.933 . S
O54 Zn53 1.911 . S
O54 H55 0.841 . S
H55 O54 0.841 . S
C56 O57 1.246 . S
C56 O85 1.276 . S
O57 C56 1.246 . S
Zn58 O60 1.911 . S
Zn58 O75 1.970 . S
Zn58 O92 1.945 . S
Zn58 O99 1.981 . S
Zn59 O60 1.933 . S
Zn59 O74 1.985 . S
Zn59 O81 1.955 . S
O60 Zn58 1.911 . S
O60 Zn59 1.933 . S
O60 H61 0.841 . S
H61 O60 0.841 . S
Zn62 O63 1.933 . S
Zn62 O76 1.985 . S
Zn62 O85 1.955 . S
O63 Zn62 1.933 . S
O63 Zn64 1.911 . S
O63 H65 0.841 . S
Zn64 O63 1.911 . S
Zn64 O77 1.970 . S
Zn64 O93 1.981 . S
Zn64 O95 1.945 . S
H65 O63 0.841 . S
Zn66 O67 1.933 . S
Zn66 O79 1.985 . S
Zn66 O87 1.955 . S
O67 Zn66 1.933 . S
O67 H68 0.841 . S
O67 Zn69 1.911 . S
H68 O67 0.841 . S
Zn69 O67 1.911 . S
Zn69 O80 1.970 . S
Zn69 O90 1.981 . S
Zn69 O98 1.945 . S
C70 O71 1.246 . S
C70 O87 1.276 . S
O71 C70 1.246 . S
O72 Zn52 1.985 . S
O72 C82 1.245 . S
O73 Zn53 1.970 . S
O73 C82 1.263 . S
O74 Zn59 1.985 . S
O74 C86 1.245 . S
O75 Zn58 1.970 . S
O75 C86 1.263 . S
O76 Zn62 1.985 . S
O76 C91 1.245 . S
O77 Zn64 1.970 . S
O77 C91 1.263 . S
C78 O89 1.262 . S
C78 O90 1.245 . S
O79 Zn66 1.985 . S
O79 C97 1.245 . S
O80 Zn69 1.970 . S
O80 C97 1.263 . S
O81 Zn59 1.955 . S
O81 C100 1.276 . S
C82 O72 1.245 . S
C82 O73 1.263 . S
O83 Zn52 1.955 . S
O83 C102 1.276 . S
C84 O92 1.262 . S
C84 O93 1.245 . S
O85 C56 1.276 . S
O85 Zn62 1.955 . S
C86 O74 1.245 . S
C86 O75 1.263 . S
O87 Zn66 1.955 . S
O87 C70 1.276 . S
C88 O95 1.262 . S
C88 O96 1.245 . S
O89 Zn53 1.945 . S
O89 C78 1.262 . S
O90 Zn69 1.981 . S
O90 C78 1.245 . S
C91 O76 1.245 . S
C91 O77 1.263 . S
O92 Zn58 1.945 . S
O92 C84 1.262 . S
O93 Zn64 1.981 . S
O93 C84 1.245 . S
C94 O98 1.262 . S
C94 O99 1.245 . S
O95 Zn64 1.945 . S
O95 C88 1.262 . S
O96 Zn53 1.981 . S
O96 C88 1.245 . S
C97 O79 1.245 . S
C97 O80 1.263 . S
O98 Zn69 1.945 . S
O98 C94 1.262 . S
O99 Zn58 1.981 . S
O99 C94 1.245 . S
C100 O81 1.276 . S
C100 O101 1.246 . S
O101 C100 1.246 . S
C102 O83 1.276 . S
C102 O103 1.246 . S
O103 C102 1.246 . S
C104 C105 1.386 . S
C104 C106 1.397 . S
C104 H128 0.931 . S
C105 C104 1.386 . S
C105 C109 1.397 . S
C106 C104 1.397 . S
C106 C107 1.384 . S
C106 H129 0.930 . S
C107 C106 1.384 . S
C107 C108 1.377 . S
C107 C110 1.481 . S
C108 C107 1.377 . S
C108 C109 1.389 . S
C108 H130 0.929 . S
C109 C105 1.397 . S
C109 C108 1.389 . S
C109 H131 0.931 . S
C110 C107 1.481 . S
C110 C111 1.387 . S
C110 C115 1.390 1_556 S
C111 C110 1.387 . S
C111 C112 1.401 1_556 S
C111 H132 0.930 . S
C112 C111 1.401 1_554 S
C112 C113 1.376 . S
C112 C121 1.511 . S
C113 C112 1.376 . S
C113 C114 1.392 . S
C113 H134 0.931 . S
C114 C113 1.392 . S
C114 C115 1.361 . S
C114 C116 1.500 . S
C115 C110 1.390 1_554 S
C115 C114 1.361 . S
C115 H133 0.931 . S
C116 C114 1.500 . S
C116 C117 1.371 . S
C116 C118 1.365 . S
C117 C116 1.371 . S
C117 C127 1.386 . S
C117 H135 0.931 . S
C118 C116 1.365 . S
C118 C119 1.409 . S
C118 H136 0.929 . S
C119 C118 1.409 . S
C119 C120 1.380 . S
C119 H137 0.930 . S
C120 C119 1.380 . S
C120 C127 1.357 . S
C121 C112 1.511 . S
C121 C122 1.341 1_554 S
C121 C123 1.371 . S
C122 C121 1.341 1_556 S
C122 C126 1.394 . S
C122 H138 0.930 . S
C123 C121 1.371 . S
C123 C124 1.392 . S
C123 H139 0.931 . S
C124 C123 1.392 . S
C124 C125 1.331 . S
C124 H142 0.932 . S
C125 C124 1.331 . S
C125 C126 1.336 1_554 S
C126 C122 1.394 . S
C126 C125 1.336 1_556 S
C126 H141 0.929 . S
C127 C117 1.386 . S
C127 C120 1.357 . S
C127 H140 0.928 . S
H128 C104 0.931 . S
H129 C106 0.930 . S
H130 C108 0.929 . S
H131 C109 0.931 . S
H132 C111 0.930 . S
H133 C115 0.931 . S
H134 C113 0.931 . S
H135 C117 0.931 . S
H136 C118 0.929 . S
H137 C119 0.930 . S
H138 C122 0.930 . S
H139 C123 0.931 . S
H140 C127 0.928 . S
H141 C126 0.929 . S
H142 C124 0.932 . S
C143 C144 1.386 . S
C143 C145 1.397 . S
C143 H167 0.931 . S
C144 C143 1.386 . S
C144 C148 1.397 . S
C145 C143 1.397 . S
C145 C146 1.384 . S
C145 H168 0.930 . S
C146 C145 1.384 . S
C146 C147 1.377 . S
C146 C149 1.481 . S
C147 C146 1.377 . S
C147 C148 1.389 . S
C147 H169 0.929 . S
C148 C144 1.397 . S
C148 C147 1.389 . S
C148 H170 0.931 . S
C149 C146 1.481 . S
C149 C150 1.387 . S
C149 C154 1.390 1_556 S
C150 C149 1.387 . S
C150 C151 1.401 1_556 S
C150 H171 0.930 . S
C151 C150 1.401 1_554 S
C151 C152 1.376 . S
C151 C160 1.511 . S
C152 C151 1.376 . S
C152 C153 1.392 . S
C152 H173 0.931 . S
C153 C152 1.392 . S
C153 C154 1.361 . S
C153 C155 1.500 . S
C154 C149 1.390 1_554 S
C154 C153 1.361 . S
C154 H172 0.931 . S
C155 C153 1.500 . S
C155 C156 1.371 . S
C155 C157 1.365 . S
C156 C155 1.371 . S
C156 C166 1.386 . S
C156 H174 0.931 . S
C157 C155 1.365 . S
C157 C158 1.409 . S
C157 H175 0.929 . S
C158 C157 1.409 . S
C158 C159 1.380 . S
C158 H176 0.930 . S
C159 C158 1.380 . S
C159 C166 1.357 . S
C160 C151 1.511 . S
C160 C161 1.341 1_554 S
C160 C162 1.371 . S
C161 C160 1.341 1_556 S
C161 C165 1.394 . S
C161 H177 0.930 . S
C162 C160 1.371 . S
C162 C163 1.392 . S
C162 H178 0.931 . S
C163 C162 1.392 . S
C163 C164 1.331 . S
C163 H181 0.932 . S
C164 C163 1.331 . S
C164 C165 1.336 1_554 S
C165 C161 1.394 . S
C165 C164 1.336 1_556 S
C165 H180 0.929 . S
C166 C156 1.386 . S
C166 C159 1.357 . S
C166 H179 0.928 . S
H167 C143 0.931 . S
H168 C145 0.930 . S
H169 C147 0.929 . S
H170 C148 0.931 . S
H171 C150 0.930 . S
H172 C154 0.931 . S
H173 C152 0.931 . S
H174 C156 0.931 . S
H175 C157 0.929 . S
H176 C158 0.930 . S
H177 C161 0.930 . S
H178 C162 0.931 . S
H179 C166 0.928 . S
H180 C165 0.929 . S
H181 C163 0.932 . S
C182 C183 1.386 . S
C182 C184 1.397 . S
C182 H206 0.931 . S
C183 C182 1.386 . S
C183 C187 1.397 . S
C184 C182 1.397 . S
C184 C185 1.384 . S
C184 H207 0.930 . S
C185 C184 1.384 . S
C185 C186 1.377 . S
C185 C188 1.481 . S
C186 C185 1.377 . S
C186 C187 1.389 . S
C186 H208 0.929 . S
C187 C183 1.397 . S
C187 C186 1.389 . S
C187 H209 0.931 . S
C188 C185 1.481 . S
C188 C189 1.387 . S
C188 C193 1.390 . S
C189 C188 1.387 . S
C189 C190 1.401 . S
C189 H210 0.930 . S
C190 C189 1.401 . S
C190 C191 1.376 1_554 S
C190 C199 1.511 . S
C191 C190 1.376 1_556 S
C191 C192 1.392 . S
C191 H212 0.931 . S
C192 C191 1.392 . S
C192 C193 1.361 1_556 S
C192 C194 1.500 . S
C193 C188 1.390 . S
C193 C192 1.361 1_554 S
C193 H211 0.931 . S
C194 C192 1.500 . S
C194 C195 1.371 . S
C194 C196 1.365 . S
C195 C194 1.371 . S
C195 C205 1.386 . S
C195 H213 0.931 . S
C196 C194 1.365 . S
C196 C197 1.409 . S
C196 H214 0.929 . S
C197 C196 1.409 . S
C197 C198 1.380 . S
C197 H215 0.930 . S
C198 C197 1.380 . S
C198 C205 1.357 . S
C199 C190 1.511 . S
C199 C200 1.341 . S
C199 C201 1.371 1_554 S
C200 C199 1.341 . S
C200 C204 1.394 . S
C200 H216 0.930 . S
C201 C199 1.371 1_556 S
C201 C202 1.392 . S
C201 H217 0.931 . S
C202 C201 1.392 . S
C202 C203 1.331 1_556 S
C202 H220 0.932 . S
C203 C202 1.331 1_554 S
C203 C204 1.336 . S
C204 C200 1.394 . S
C204 C203 1.336 . S
C204 H219 0.929 . S
C205 C195 1.386 . S
C205 C198 1.357 . S
C205 H218 0.928 . S
H206 C182 0.931 . S
H207 C184 0.930 . S
H208 C186 0.929 . S
H209 C187 0.931 . S
H210 C189 0.930 . S
H211 C193 0.931 . S
H212 C191 0.931 . S
H213 C195 0.931 . S
H214 C196 0.929 . S
H215 C197 0.930 . S
H216 C200 0.930 . S
H217 C201 0.931 . S
H218 C205 0.928 . S
H219 C204 0.929 . S
H220 C202 0.932 . S
C221 C222 1.386 . S
C221 C223 1.397 . S
C221 H245 0.931 . S
C222 C221 1.386 . S
C222 C226 1.397 . S
C223 C221 1.397 . S
C223 C224 1.384 . S
C223 H246 0.930 . S
C224 C223 1.384 . S
C224 C225 1.377 . S
C224 C227 1.481 . S
C225 C224 1.377 . S
C225 C226 1.389 . S
C225 H247 0.929 . S
C226 C222 1.397 . S
C226 C225 1.389 . S
C226 H248 0.931 . S
C227 C224 1.481 . S
C227 C228 1.387 . S
C227 C232 1.390 . S
C228 C227 1.387 . S
C228 C229 1.401 . S
C228 H249 0.930 . S
C229 C228 1.401 . S
C229 C230 1.376 1_554 S
C229 C238 1.511 . S
C230 C229 1.376 1_556 S
C230 C231 1.392 . S
C230 H251 0.931 . S
C231 C230 1.392 . S
C231 C232 1.361 1_556 S
C231 C233 1.500 . S
C232 C227 1.390 . S
C232 C231 1.361 1_554 S
C232 H250 0.931 . S
C233 C231 1.500 . S
C233 C234 1.371 . S
C233 C235 1.365 . S
C234 C233 1.371 . S
C234 C244 1.386 . S
C234 H252 0.931 . S
C235 C233 1.365 . S
C235 C236 1.409 . S
C235 H253 0.929 . S
C236 C235 1.409 . S
C236 C237 1.380 . S
C236 H254 0.930 . S
C237 C236 1.380 . S
C237 C244 1.357 . S
C238 C229 1.511 . S
C238 C239 1.341 . S
C238 C240 1.371 1_554 S
C239 C238 1.341 . S
C239 C243 1.394 . S
C239 H255 0.930 . S
C240 C238 1.371 1_556 S
C240 C241 1.392 . S
C240 H256 0.931 . S
C241 C240 1.392 . S
C241 C242 1.331 1_556 S
C241 H259 0.932 . S
C242 C241 1.331 1_554 S
C242 C243 1.336 . S
C243 C239 1.394 . S
C243 C242 1.336 . S
C243 H258 0.929 . S
C244 C234 1.386 . S
C244 C237 1.357 . S
C244 H257 0.928 . S
H245 C221 0.931 . S
H246 C223 0.930 . S
H247 C225 0.929 . S
H248 C226 0.931 . S
H249 C228 0.930 . S
H250 C232 0.931 . S
H251 C230 0.931 . S
H252 C234 0.931 . S
H253 C235 0.929 . S
H254 C236 0.930 . S
H255 C239 0.930 . S
H256 C240 0.931 . S
H257 C244 0.928 . S
H258 C243 0.929 . S
H259 C241 0.932 . S
C260 C261 1.386 . S
C260 C262 1.397 . S
C260 H284 0.931 . S
C261 C260 1.386 . S
C261 C265 1.397 . S
C262 C260 1.397 . S
C262 C263 1.384 . S
C262 H285 0.930 . S
C263 C262 1.384 . S
C263 C264 1.377 . S
C263 C266 1.481 . S
C264 C263 1.377 . S
C264 C265 1.389 . S
C264 H286 0.929 . S
C265 C261 1.397 . S
C265 C264 1.389 . S
C265 H287 0.931 . S
C266 C263 1.481 . S
C266 C267 1.387 . S
C266 C271 1.390 . S
C267 C266 1.387 . S
C267 C268 1.401 . S
C267 H288 0.930 . S
C268 C267 1.401 . S
C268 C269 1.376 . S
C268 C277 1.511 . S
C269 C268 1.376 . S
C269 C270 1.392 . S
C269 H290 0.931 . S
C270 C269 1.392 . S
C270 C271 1.361 . S
C270 C272 1.500 . S
C271 C266 1.390 . S
C271 C270 1.361 . S
C271 H289 0.931 . S
C272 C270 1.500 . S
C272 C273 1.371 . S
C272 C274 1.365 . S
C273 C272 1.371 . S
C273 C283 1.386 . S
C273 H291 0.931 . S
C274 C272 1.365 . S
C274 C275 1.409 . S
C274 H292 0.929 . S
C275 C274 1.409 . S
C275 C276 1.380 . S
C275 H293 0.930 . S
C276 C275 1.380 . S
C276 C283 1.357 . S
C277 C268 1.511 . S
C277 C278 1.341 . S
C277 C279 1.371 . S
C278 C277 1.341 . S
C278 C282 1.394 . S
C278 H294 0.930 . S
C279 C277 1.371 . S
C279 C280 1.392 . S
C279 H295 0.931 . S
C280 C279 1.392 . S
C280 C281 1.331 . S
C280 H298 0.932 . S
C281 C280 1.331 . S
C281 C282 1.336 . S
C282 C278 1.394 . S
C282 C281 1.336 . S
C282 H297 0.929 . S
C283 C273 1.386 . S
C283 C276 1.357 . S
C283 H296 0.928 . S
H284 C260 0.931 . S
H285 C262 0.930 . S
H286 C264 0.929 . S
H287 C265 0.931 . S
H288 C267 0.930 . S
H289 C271 0.931 . S
H290 C269 0.931 . S
H291 C273 0.931 . S
H292 C274 0.929 . S
H293 C275 0.930 . S
H294 C278 0.930 . S
H295 C279 0.931 . S
H296 C283 0.928 . S
H297 C282 0.929 . S
H298 C280 0.932 . S
C299 C300 1.386 . S
C299 C301 1.397 . S
C299 H323 0.931 . S
C300 C299 1.386 . S
C300 C304 1.397 . S
C301 C299 1.397 . S
C301 C302 1.384 . S
C301 H324 0.930 . S
C302 C301 1.384 . S
C302 C303 1.377 . S
C302 C305 1.481 . S
C303 C302 1.377 . S
C303 C304 1.389 . S
C303 H325 0.929 . S
C304 C300 1.397 . S
C304 C303 1.389 . S
C304 H326 0.931 . S
C305 C302 1.481 . S
C305 C306 1.387 . S
C305 C310 1.390 . S
C306 C305 1.387 . S
C306 C307 1.401 . S
C306 H327 0.930 . S
C307 C306 1.401 . S
C307 C308 1.376 . S
C307 C316 1.511 . S
C308 C307 1.376 . S
C308 C309 1.392 . S
C308 H329 0.931 . S
C309 C308 1.392 . S
C309 C310 1.361 . S
C309 C311 1.500 . S
C310 C305 1.390 . S
C310 C309 1.361 . S
C310 H328 0.931 . S
C311 C309 1.500 . S
C311 C312 1.371 . S
C311 C313 1.365 . S
C312 C311 1.371 . S
C312 C322 1.386 . S
C312 H330 0.931 . S
C313 C311 1.365 . S
C313 C314 1.409 . S
C313 H331 0.929 . S
C314 C313 1.409 . S
C314 C315 1.380 . S
C314 H332 0.930 . S
C315 C314 1.380 . S
C315 C322 1.357 . S
C316 C307 1.511 . S
C316 C317 1.341 . S
C316 C318 1.371 . S
C317 C316 1.341 . S
C317 C321 1.394 . S
C317 H333 0.930 . S
C318 C316 1.371 . S
C318 C319 1.392 . S
C318 H334 0.931 . S
C319 C318 1.392 . S
C319 C320 1.331 . S
C319 H337 0.932 . S
C320 C319 1.331 . S
C320 C321 1.336 . S
C321 C317 1.394 . S
C321 C320 1.336 . S
C321 H336 0.929 . S
C322 C312 1.386 . S
C322 C315 1.357 . S
C322 H335 0.928 . S
H323 C299 0.931 . S
H324 C301 0.930 . S
H325 C303 0.929 . S
H326 C304 0.931 . S
H327 C306 0.930 . S
H328 C310 0.931 . S
H329 C308 0.931 . S
H330 C312 0.931 . S
H331 C313 0.929 . S
H332 C314 0.930 . S
H333 C317 0.930 . S
H334 C318 0.931 . S
H335 C322 0.928 . S
H336 C321 0.929 . S
H337 C319 0.932 . S
C338 C339 1.386 . S
C338 C340 1.397 . S
C338 H362 0.931 . S
C339 C338 1.386 . S
C339 C343 1.397 . S
C340 C338 1.397 . S
C340 C341 1.384 . S
C340 H363 0.930 . S
C341 C340 1.384 . S
C341 C342 1.377 . S
C341 C344 1.481 . S
C342 C341 1.377 . S
C342 C343 1.389 . S
C342 H364 0.929 . S
C343 C339 1.397 . S
C343 C342 1.389 . S
C343 H365 0.931 . S
C344 C341 1.481 . S
C344 C345 1.387 . S
C344 C349 1.390 . S
C345 C344 1.387 . S
C345 C346 1.401 . S
C345 H366 0.930 . S
C346 C345 1.401 . S
C346 C347 1.376 . S
C346 C355 1.511 . S
C347 C346 1.376 . S
C347 C348 1.392 . S
C347 H368 0.931 . S
C348 C347 1.392 . S
C348 C349 1.361 . S
C348 C350 1.500 . S
C349 C344 1.390 . S
C349 C348 1.361 . S
C349 H367 0.931 . S
C350 C348 1.500 . S
C350 C351 1.371 . S
C350 C352 1.365 . S
C351 C350 1.371 . S
C351 C361 1.386 . S
C351 H369 0.931 . S
C352 C350 1.365 . S
C352 C353 1.409 . S
C352 H370 0.929 . S
C353 C352 1.409 . S
C353 C354 1.380 . S
C353 H371 0.930 . S
C354 C353 1.380 . S
C354 C361 1.357 . S
C355 C346 1.511 . S
C355 C356 1.341 . S
C355 C357 1.371 . S
C356 C355 1.341 . S
C356 C360 1.394 . S
C356 H372 0.930 . S
C357 C355 1.371 . S
C357 C358 1.392 . S
C357 H373 0.931 . S
C358 C357 1.392 . S
C358 C359 1.331 . S
C358 H376 0.932 . S
C359 C358 1.331 . S
C359 C360 1.336 . S
C360 C356 1.394 . S
C360 C359 1.336 . S
C360 H375 0.929 . S
C361 C351 1.386 . S
C361 C354 1.357 . S
C361 H374 0.928 . S
H362 C338 0.931 . S
H363 C340 0.930 . S
H364 C342 0.929 . S
H365 C343 0.931 . S
H366 C345 0.930 . S
H367 C349 0.931 . S
H368 C347 0.931 . S
H369 C351 0.931 . S
H370 C352 0.929 . S
H371 C353 0.930 . S
H372 C356 0.930 . S
H373 C357 0.931 . S
H374 C361 0.928 . S
H375 C360 0.929 . S
H376 C358 0.932 . S
C377 C378 1.386 . S
C377 C379 1.397 . S
C377 H401 0.931 . S
C378 C377 1.386 . S
C378 C382 1.397 . S
C379 C377 1.397 . S
C379 C380 1.384 . S
C379 H402 0.930 . S
C380 C379 1.384 . S
C380 C381 1.377 . S
C380 C383 1.481 . S
C381 C380 1.377 . S
C381 C382 1.389 . S
C381 H403 0.929 . S
C382 C378 1.397 . S
C382 C381 1.389 . S
C382 H404 0.931 . S
C383 C380 1.481 . S
C383 C384 1.387 . S
C383 C388 1.390 . S
C384 C383 1.387 . S
C384 C385 1.401 . S
C384 H405 0.930 . S
C385 C384 1.401 . S
C385 C386 1.376 . S
C385 C394 1.511 . S
C386 C385 1.376 . S
C386 C387 1.392 . S
C386 H407 0.931 . S
C387 C386 1.392 . S
C387 C388 1.361 . S
C387 C389 1.500 . S
C388 C383 1.390 . S
C388 C387 1.361 . S
C388 H406 0.931 . S
C389 C387 1.500 . S
C389 C390 1.371 . S
C389 C391 1.365 . S
C390 C389 1.371 . S
C390 C400 1.386 . S
C390 H408 0.931 . S
C391 C389 1.365 . S
C391 C392 1.409 . S
C391 H409 0.929 . S
C392 C391 1.409 . S
C392 C393 1.380 . S
C392 H410 0.930 . S
C393 C392 1.380 . S
C393 C400 1.357 . S
C394 C385 1.511 . S
C394 C395 1.341 . S
C394 C396 1.371 . S
C395 C394 1.341 . S
C395 C399 1.394 . S
C395 H411 0.930 . S
C396 C394 1.371 . S
C396 C397 1.392 . S
C396 H412 0.931 . S
C397 C396 1.392 . S
C397 C398 1.331 . S
C397 H415 0.932 . S
C398 C397 1.331 . S
C398 C399 1.336 . S
C399 C395 1.394 . S
C399 C398 1.336 . S
C399 H414 0.929 . S
C400 C390 1.386 . S
C400 C393 1.357 . S
C400 H413 0.928 . S
H401 C377 0.931 . S
H402 C379 0.930 . S
H403 C381 0.929 . S
H404 C382 0.931 . S
H405 C384 0.930 . S
H406 C388 0.931 . S
H407 C386 0.931 . S
H408 C390 0.931 . S
H409 C391 0.929 . S
H410 C392 0.930 . S
H411 C395 0.930 . S
H412 C396 0.931 . S
H413 C400 0.928 . S
H414 C399 0.929 . S
H415 C397 0.932 . S
C416 C417 1.391 1_556 S
C416 C418 1.394 . S
C416 H432 0.931 . S
C417 C416 1.391 1_554 S
C417 C421 1.376 . S
C418 C416 1.394 . S
C418 C419 1.369 1_556 S
C418 C422 1.531 . S
C419 C418 1.369 1_554 S
C419 C420 1.410 . S
C419 C427 1.503 . S
C420 C419 1.410 . S
C420 C421 1.392 . S
C420 C423 1.511 . S
C421 C417 1.376 . S
C421 C420 1.392 . S
C421 H433 0.929 . S
C422 C418 1.531 . S
C422 H434 0.960 . S
C422 H435 0.962 . S
C422 H436 0.960 . S
C423 C420 1.511 . S
C423 H437 0.961 . S
C423 H438 0.961 . S
C423 H439 0.961 . S
C424 C425 1.370 . S
C424 C426 1.363 . S
C424 H440 0.931 . S
C425 C424 1.370 . S
C425 C429 1.408 1_554 S
C426 C424 1.363 . S
C426 C427 1.370 . S
C426 C430 1.524 . S
C427 C419 1.503 . S
C427 C426 1.370 . S
C427 C428 1.403 1_554 S
C428 C427 1.403 1_556 S
C428 C429 1.404 . S
C428 C431 1.539 . S
C429 C425 1.408 1_556 S
C429 C428 1.404 . S
C429 H441 0.930 . S
C430 C426 1.524 . S
C430 H442 0.956 . S
C430 H443 0.961 . S
C430 H444 0.961 . S
C431 C428 1.539 . S
C431 H445 0.958 . S
C431 H446 0.961 . S
C431 H447 0.960 . S
H432 C416 0.931 . S
H433 C421 0.929 . S
H434 C422 0.960 . S
H435 C422 0.962 . S
H436 C422 0.960 . S
H437 C423 0.961 . S
H438 C423 0.961 . S
H439 C423 0.961 . S
H440 C424 0.931 . S
H441 C429 0.930 . S
H442 C430 0.956 . S
H443 C430 0.961 . S
H444 C430 0.961 . S
H445 C431 0.958 . S
H446 C431 0.961 . S
H447 C431 0.960 . S
C448 C449 1.391 . S
C448 C450 1.394 . S
C448 H464 0.931 . S
C449 C448 1.391 . S
C449 C453 1.376 . S
C450 C448 1.394 . S
C450 C451 1.369 . S
C450 C454 1.531 . S
C451 C450 1.369 . S
C451 C452 1.410 . S
C451 C459 1.503 . S
C452 C451 1.410 . S
C452 C453 1.392 . S
C452 C455 1.511 . S
C453 C449 1.376 . S
C453 C452 1.392 . S
C453 H465 0.929 . S
C454 C450 1.531 . S
C454 H466 0.960 . S
C454 H467 0.962 . S
C454 H468 0.960 . S
C455 C452 1.511 . S
C455 H469 0.961 . S
C455 H470 0.961 . S
C455 H471 0.961 . S
C456 C457 1.370 1_556 S
C456 C458 1.363 . S
C456 H472 0.931 . S
C457 C456 1.370 1_554 S
C457 C461 1.408 . S
C458 C456 1.363 . S
C458 C459 1.370 1_556 S
C458 C462 1.524 . S
C459 C451 1.503 . S
C459 C458 1.370 1_554 S
C459 C460 1.403 . S
C460 C459 1.403 . S
C460 C461 1.404 . S
C460 C463 1.539 . S
C461 C457 1.408 . S
C461 C460 1.404 . S
C461 H473 0.930 . S
C462 C458 1.524 . S
C462 H474 0.956 . S
C462 H475 0.961 . S
C462 H476 0.961 . S
C463 C460 1.539 . S
C463 H477 0.958 . S
C463 H478 0.961 . S
C463 H479 0.960 . S
H464 C448 0.931 . S
H465 C453 0.929 . S
H466 C454 0.960 . S
H467 C454 0.962 . S
H468 C454 0.960 . S
H469 C455 0.961 . S
H470 C455 0.961 . S
H471 C455 0.961 . S
H472 C456 0.931 . S
H473 C461 0.930 . S
H474 C462 0.956 . S
H475 C462 0.961 . S
H476 C462 0.961 . S
H477 C463 0.958 . S
H478 C463 0.961 . S
H479 C463 0.960 . S
C480 C481 1.391 1_556 S
C480 C482 1.394 . S
C480 H496 0.931 . S
C481 C480 1.391 1_554 S
C481 C485 1.376 . S
C482 C480 1.394 . S
C482 C483 1.369 1_556 S
C482 C486 1.531 . S
C483 C482 1.369 1_554 S
C483 C484 1.410 . S
C483 C491 1.503 . S
C484 C483 1.410 . S
C484 C485 1.392 . S
C484 C487 1.511 . S
C485 C481 1.376 . S
C485 C484 1.392 . S
C485 H497 0.929 . S
C486 C482 1.531 . S
C486 H498 0.960 . S
C486 H499 0.962 . S
C486 H500 0.960 . S
C487 C484 1.511 . S
C487 H501 0.961 . S
C487 H502 0.961 . S
C487 H503 0.961 . S
C488 C489 1.370 . S
C488 C490 1.363 . S
C488 H504 0.931 . S
C489 C488 1.370 . S
C489 C493 1.408 1_554 S
C490 C488 1.363 . S
C490 C491 1.370 . S
C490 C494 1.524 . S
C491 C483 1.503 . S
C491 C490 1.370 . S
C491 C492 1.403 1_554 S
C492 C491 1.403 1_556 S
C492 C493 1.404 . S
C492 C495 1.539 . S
C493 C489 1.408 1_556 S
C493 C492 1.404 . S
C493 H505 0.930 . S
C494 C490 1.524 . S
C494 H506 0.956 . S
C494 H507 0.961 . S
C494 H508 0.961 . S
C495 C492 1.539 . S
C495 H509 0.958 . S
C495 H510 0.961 . S
C495 H511 0.960 . S
H496 C480 0.931 . S
H497 C485 0.929 . S
H498 C486 0.960 . S
H499 C486 0.962 . S
H500 C486 0.960 . S
H501 C487 0.961 . S
H502 C487 0.961 . S
H503 C487 0.961 . S
H504 C488 0.931 . S
H505 C493 0.930 . S
H506 C494 0.956 . S
H507 C494 0.961 . S
H508 C494 0.961 . S
H509 C495 0.958 . S
H510 C495 0.961 . S
H511 C495 0.960 . S
C512 C513 1.391 1_556 S
C512 C514 1.394 . S
C512 H528 0.931 . S
C513 C512 1.391 1_554 S
C513 C517 1.376 . S
C514 C512 1.394 . S
C514 C515 1.369 1_556 S
C514 C518 1.531 . S
C515 C514 1.369 1_554 S
C515 C516 1.410 . S
C515 C523 1.503 . S
C516 C515 1.410 . S
C516 C517 1.392 . S
C516 C519 1.511 . S
C517 C513 1.376 . S
C517 C516 1.392 . S
C517 H529 0.929 . S
C518 C514 1.531 . S
C518 H530 0.960 . S
C518 H531 0.962 . S
C518 H532 0.960 . S
C519 C516 1.511 . S
C519 H533 0.961 . S
C519 H534 0.961 . S
C519 H535 0.961 . S
C520 C521 1.370 . S
C520 C522 1.363 . S
C520 H536 0.931 . S
C521 C520 1.370 . S
C521 C525 1.408 1_554 S
C522 C520 1.363 . S
C522 C523 1.370 . S
C522 C526 1.524 . S
C523 C515 1.503 . S
C523 C522 1.370 . S
C523 C524 1.403 1_554 S
C524 C523 1.403 1_556 S
C524 C525 1.404 . S
C524 C527 1.539 . S
C525 C521 1.408 1_556 S
C525 C524 1.404 . S
C525 H537 0.930 . S
C526 C522 1.524 . S
C526 H538 0.956 . S
C526 H539 0.961 . S
C526 H540 0.961 . S
C527 C524 1.539 . S
C527 H541 0.958 . S
C527 H542 0.961 . S
C527 H543 0.960 . S
H528 C512 0.931 . S
H529 C517 0.929 . S
H530 C518 0.960 . S
H531 C518 0.962 . S
H532 C518 0.960 . S
H533 C519 0.961 . S
H534 C519 0.961 . S
H535 C519 0.961 . S
H536 C520 0.931 . S
H537 C525 0.930 . S
H538 C526 0.956 . S
H539 C526 0.961 . S
H540 C526 0.961 . S
H541 C527 0.958 . S
H542 C527 0.961 . S
H543 C527 0.960 . S
C544 C545 1.391 . S
C544 C546 1.394 . S
C544 H560 0.931 . S
C545 C544 1.391 . S
C545 C549 1.376 . S
C546 C544 1.394 . S
C546 C547 1.369 . S
C546 C550 1.531 . S
C547 C546 1.369 . S
C547 C548 1.410 . S
C547 C555 1.503 . S
C548 C547 1.410 . S
C548 C549 1.392 . S
C548 C551 1.511 . S
C549 C545 1.376 . S
C549 C548 1.392 . S
C549 H561 0.929 . S
C550 C546 1.531 . S
C550 H562 0.960 . S
C550 H563 0.962 . S
C550 H564 0.960 . S
C551 C548 1.511 . S
C551 H565 0.961 . S
C551 H566 0.961 . S
C551 H567 0.961 . S
C552 C553 1.370 . S
C552 C554 1.363 . S
C552 H568 0.931 . S
C553 C552 1.370 . S
C553 C557 1.408 . S
C554 C552 1.363 . S
C554 C555 1.370 . S
C554 C558 1.524 . S
C555 C547 1.503 . S
C555 C554 1.370 . S
C555 C556 1.403 . S
C556 C555 1.403 . S
C556 C557 1.404 . S
C556 C559 1.539 . S
C557 C553 1.408 . S
C557 C556 1.404 . S
C557 H569 0.930 . S
C558 C554 1.524 . S
C558 H570 0.956 . S
C558 H571 0.961 . S
C558 H572 0.961 . S
C559 C556 1.539 . S
C559 H573 0.958 . S
C559 H574 0.961 . S
C559 H575 0.960 . S
H560 C544 0.931 . S
H561 C549 0.929 . S
H562 C550 0.960 . S
H563 C550 0.962 . S
H564 C550 0.960 . S
H565 C551 0.961 . S
H566 C551 0.961 . S
H567 C551 0.961 . S
H568 C552 0.931 . S
H569 C557 0.930 . S
H570 C558 0.956 . S
H571 C558 0.961 . S
H572 C558 0.961 . S
H573 C559 0.958 . S
H574 C559 0.961 . S
H575 C559 0.960 . S
C576 C577 1.391 . S
C576 C578 1.394 . S
C576 H592 0.931 . S
C577 C576 1.391 . S
C577 C581 1.376 . S
C578 C576 1.394 . S
C578 C579 1.369 . S
C578 C582 1.531 . S
C579 C578 1.369 . S
C579 C580 1.410 . S
C579 C587 1.503 . S
C580 C579 1.410 . S
C580 C581 1.392 . S
C580 C583 1.511 . S
C581 C577 1.376 . S
C581 C580 1.392 . S
C581 H593 0.929 . S
C582 C578 1.531 . S
C582 H594 0.960 . S
C582 H595 0.962 . S
C582 H596 0.960 . S
C583 C580 1.511 . S
C583 H597 0.961 . S
C583 H598 0.961 . S
C583 H599 0.961 . S
C584 C585 1.370 . S
C584 C586 1.363 . S
C584 H600 0.931 . S
C585 C584 1.370 . S
C585 C589 1.408 . S
C586 C584 1.363 . S
C586 C587 1.370 . S
C586 C590 1.524 . S
C587 C579 1.503 . S
C587 C586 1.370 . S
C587 C588 1.403 . S
C588 C587 1.403 . S
C588 C589 1.404 . S
C588 C591 1.539 . S
C589 C585 1.408 . S
C589 C588 1.404 . S
C589 H601 0.930 . S
C590 C586 1.524 . S
C590 H602 0.956 . S
C590 H603 0.961 . S
C590 H604 0.961 . S
C591 C588 1.539 . S
C591 H605 0.958 . S
C591 H606 0.961 . S
C591 H607 0.960 . S
H592 C576 0.931 . S
H593 C581 0.929 . S
H594 C582 0.960 . S
H595 C582 0.962 . S
H596 C582 0.960 . S
H597 C583 0.961 . S
H598 C583 0.961 . S
H599 C583 0.961 . S
H600 C584 0.931 . S
H601 C589 0.930 . S
H602 C590 0.956 . S
H603 C590 0.961 . S
H604 C590 0.961 . S
H605 C591 0.958 . S
H606 C591 0.961 . S
H607 C591 0.960 . S
C608 C609 1.391 . S
C608 C610 1.394 . S
C608 H624 0.931 . S
C609 C608 1.391 . S
C609 C613 1.376 . S
C610 C608 1.394 . S
C610 C611 1.369 . S
C610 C614 1.531 . S
C611 C610 1.369 . S
C611 C612 1.410 . S
C611 C619 1.503 . S
C612 C611 1.410 . S
C612 C613 1.392 . S
C612 C615 1.511 . S
C613 C609 1.376 . S
C613 C612 1.392 . S
C613 H625 0.929 . S
C614 C610 1.531 . S
C614 H626 0.960 . S
C614 H627 0.962 . S
C614 H628 0.960 . S
C615 C612 1.511 . S
C615 H629 0.961 . S
C615 H630 0.961 . S
C615 H631 0.961 . S
C616 C617 1.370 . S
C616 C618 1.363 . S
C616 H632 0.931 . S
C617 C616 1.370 . S
C617 C621 1.408 . S
C618 C616 1.363 . S
C618 C619 1.370 . S
C618 C622 1.524 . S
C619 C611 1.503 . S
C619 C618 1.370 . S
C619 C620 1.403 . S
C620 C619 1.403 . S
C620 C621 1.404 . S
C620 C623 1.539 . S
C621 C617 1.408 . S
C621 C620 1.404 . S
C621 H633 0.930 . S
C622 C618 1.524 . S
C622 H634 0.956 . S
C622 H635 0.961 . S
C622 H636 0.961 . S
C623 C620 1.539 . S
C623 H637 0.958 . S
C623 H638 0.961 . S
C623 H639 0.960 . S
H624 C608 0.931 . S
H625 C613 0.929 . S
H626 C614 0.960 . S
H627 C614 0.962 . S
H628 C614 0.960 . S
H629 C615 0.961 . S
H630 C615 0.961 . S
H631 C615 0.961 . S
H632 C616 0.931 . S
H633 C621 0.930 . S
H634 C622 0.956 . S
H635 C622 0.961 . S
H636 C622 0.961 . S
H637 C623 0.958 . S
H638 C623 0.961 . S
H639 C623 0.960 . S
C640 C641 1.391 . S
C640 C642 1.394 . S
C640 H656 0.931 . S
C641 C640 1.391 . S
C641 C645 1.376 . S
C642 C640 1.394 . S
C642 C643 1.369 . S
C642 C646 1.531 . S
C643 C642 1.369 . S
C643 C644 1.410 . S
C643 C651 1.503 . S
C644 C643 1.410 . S
C644 C645 1.392 . S
C644 C647 1.511 . S
C645 C641 1.376 . S
C645 C644 1.392 . S
C645 H657 0.929 . S
C646 C642 1.531 . S
C646 H658 0.960 . S
C646 H659 0.962 . S
C646 H660 0.960 . S
C647 C644 1.511 . S
C647 H661 0.961 . S
C647 H662 0.961 . S
C647 H663 0.961 . S
C648 C649 1.370 . S
C648 C650 1.363 . S
C648 H664 0.931 . S
C649 C648 1.370 . S
C649 C653 1.408 . S
C650 C648 1.363 . S
C650 C651 1.370 . S
C650 C654 1.524 . S
C651 C643 1.503 . S
C651 C650 1.370 . S
C651 C652 1.403 . S
C652 C651 1.403 . S
C652 C653 1.404 . S
C652 C655 1.539 . S
C653 C649 1.408 . S
C653 C652 1.404 . S
C653 H665 0.930 . S
C654 C650 1.524 . S
C654 H666 0.956 . S
C654 H667 0.961 . S
C654 H668 0.961 . S
C655 C652 1.539 . S
C655 H669 0.958 . S
C655 H670 0.961 . S
C655 H671 0.960 . S
H656 C640 0.931 . S
H657 C645 0.929 . S
H658 C646 0.960 . S
H659 C646 0.962 . S
H660 C646 0.960 . S
H661 C647 0.961 . S
H662 C647 0.961 . S
H663 C647 0.961 . S
H664 C648 0.931 . S
H665 C653 0.930 . S
H666 C654 0.956 . S
H667 C654 0.961 . S
H668 C654 0.961 . S
H669 C655 0.958 . S
H670 C655 0.961 . S
H671 C655 0.960 . S
C672 C673 1.391 . S
C672 C674 1.394 . S
C672 H688 0.931 . S
C673 C672 1.391 . S
C673 C677 1.376 . S
C674 C672 1.394 . S
C674 C675 1.369 . S
C674 C678 1.531 . S
C675 C674 1.369 . S
C675 C676 1.410 . S
C675 C683 1.503 . S
C676 C675 1.410 . S
C676 C677 1.392 . S
C676 C679 1.511 . S
C677 C673 1.376 . S
C677 C676 1.392 . S
C677 H689 0.929 . S
C678 C674 1.531 . S
C678 H690 0.960 . S
C678 H691 0.962 . S
C678 H692 0.960 . S
C679 C676 1.511 . S
C679 H693 0.961 . S
C679 H694 0.961 . S
C679 H695 0.961 . S
C680 C681 1.370 . S
C680 C682 1.363 . S
C680 H696 0.931 . S
C681 C680 1.370 . S
C681 C685 1.408 . S
C682 C680 1.363 . S
C682 C683 1.370 . S
C682 C686 1.520 1_455 S
C683 C675 1.503 . S
C683 C682 1.370 . S
C683 C684 1.403 . S
C684 C683 1.403 . S
C684 C685 1.404 . S
C684 C687 1.539 . S
C685 C681 1.408 . S
C685 C684 1.404 . S
C685 H697 0.930 . S
C686 C682 1.520 1_655 S
C686 H698 0.958 . S
C686 H699 0.960 1_655 S
C686 H700 0.963 . S
C687 C684 1.539 . S
C687 H701 0.958 . S
C687 H702 0.961 . S
C687 H703 0.960 . S
H688 C672 0.931 . S
H689 C677 0.929 . S
H690 C678 0.960 . S
H691 C678 0.962 . S
H692 C678 0.960 . S
H693 C679 0.961 . S
H694 C679 0.961 . S
H695 C679 0.961 . S
H696 C680 0.931 . S
H697 C685 0.930 . S
H698 C686 0.958 . S
H699 C686 0.960 1_455 S
H700 C686 0.963 . S
H701 C687 0.958 . S
H702 C687 0.961 . S
H703 C687 0.960 . S
C704 C705 1.391 . S
C704 C706 1.394 . S
C704 H720 0.931 . S
C705 C704 1.391 . S
C705 C709 1.376 . S
C706 C704 1.394 . S
C706 C707 1.369 . S
C706 C710 1.531 . S
C707 C706 1.369 . S
C707 C708 1.410 . S
C707 C715 1.503 . S
C708 C707 1.410 . S
C708 C709 1.392 . S
C708 C711 1.511 . S
C709 C705 1.376 . S
C709 C708 1.392 . S
C709 H721 0.929 . S
C710 C706 1.531 . S
C710 H722 0.960 1_545 S
C710 H723 0.962 . S
C710 H724 0.960 1_545 S
C711 C708 1.511 . S
C711 H725 0.961 . S
C711 H726 0.961 . S
C711 H727 0.961 . S
C712 C713 1.370 . S
C712 C714 1.363 . S
C712 H728 0.931 . S
C713 C712 1.370 . S
C713 C717 1.408 . S
C714 C712 1.363 . S
C714 C715 1.370 . S
C714 C718 1.524 . S
C715 C707 1.503 . S
C715 C714 1.370 . S
C715 C716 1.403 . S
C716 C715 1.403 . S
C716 C717 1.404 . S
C716 C719 1.550 . S
C717 C713 1.408 . S
C717 C716 1.404 . S
C717 H729 0.930 . S
C718 C714 1.524 . S
C718 H730 0.956 . S
C718 H731 0.961 . S
C718 H732 0.961 . S
C719 C716 1.550 . S
C719 H733 0.945 1_545 S
C719 H734 0.960 1_545 S
C719 H735 0.962 . S
H720 C704 0.931 . S
H721 C709 0.929 . S
H722 C710 0.960 1_565 S
H723 C710 0.962 . S
H724 C710 0.960 1_565 S
H725 C711 0.961 . S
H726 C711 0.961 . S
H727 C711 0.961 . S
H728 C712 0.931 . S
H729 C717 0.930 . S
H730 C718 0.956 . S
H731 C718 0.961 . S
H732 C718 0.961 . S
H733 C719 0.945 1_565 S
H734 C719 0.960 1_565 S
H735 C719 0.962 . S
C736 C737 1.391 . S
C736 C738 1.394 . S
C736 H752 0.931 1_655 S
C737 C736 1.391 . S
C737 C741 1.376 . S
C738 C736 1.394 . S
C738 C739 1.369 . S
C738 C742 1.543 . S
C739 C738 1.369 . S
C739 C740 1.410 . S
C739 C747 1.503 . S
C740 C739 1.410 . S
C740 C741 1.392 . S
C740 C743 1.511 . S
C741 C737 1.376 . S
C741 C740 1.392 . S
C741 H753 0.929 . S
C742 C738 1.543 . S
C742 H754 0.971 . S
C742 H755 0.947 1_655 S
C742 H756 0.952 1_655 S
C743 C740 1.511 . S
C743 H757 0.961 . S
C743 H758 0.961 . S
C743 H759 0.961 . S
C744 C745 1.370 . S
C744 C746 1.363 . S
C744 H760 0.931 . S
C745 C744 1.370 . S
C745 C749 1.408 . S
C746 C744 1.363 . S
C746 C747 1.370 . S
C746 C750 1.524 . S
C747 C739 1.503 . S
C747 C746 1.370 . S
C747 C748 1.403 . S
C748 C747 1.403 . S
C748 C749 1.404 . S
C748 C751 1.539 . S
C749 C745 1.408 . S
C749 C748 1.404 . S
C749 H761 0.930 . S
C750 C746 1.524 . S
C750 H762 0.956 . S
C750 H763 0.961 . S
C750 H764 0.961 . S
C751 C748 1.539 . S
C751 H765 0.958 . S
C751 H766 0.961 . S
C751 H767 0.960 . S
H752 C736 0.931 1_455 S
H753 C741 0.929 . S
H754 C742 0.971 . S
H755 C742 0.947 1_455 S
H756 C742 0.952 1_455 S
H757 C743 0.961 . S
H758 C743 0.961 . S
H759 C743 0.961 . S
H760 C744 0.931 . S
H761 C749 0.930 . S
H762 C750 0.956 . S
H763 C750 0.961 . S
H764 C750 0.961 . S
H765 C751 0.958 . S
H766 C751 0.961 . S
H767 C751 0.960 . S
C768 C769 1.391 . S
C768 C770 1.394 . S
C768 H784 0.931 . S
C769 C768 1.391 . S
C769 C773 1.376 . S
C770 C768 1.394 . S
C770 C771 1.369 . S
C770 C774 1.531 . S
C771 C770 1.369 . S
C771 C772 1.410 . S
C771 C779 1.503 . S
C772 C771 1.410 . S
C772 C773 1.392 . S
C772 C775 1.511 . S
C773 C769 1.376 . S
C773 C772 1.392 . S
C773 H785 0.929 . S
C774 C770 1.531 . S
C774 H786 0.960 . S
C774 H787 0.962 . S
C774 H788 0.960 . S
C775 C772 1.511 . S
C775 H789 0.961 . S
C775 H790 0.961 . S
C775 H791 0.961 . S
C776 C777 1.370 . S
C776 C778 1.363 . S
C776 H792 0.931 . S
C777 C776 1.370 . S
C777 C781 1.408 . S
C778 C776 1.363 . S
C778 C779 1.370 . S
C778 C782 1.524 . S
C779 C771 1.503 . S
C779 C778 1.370 . S
C779 C780 1.403 . S
C780 C779 1.403 . S
C780 C781 1.404 . S
C780 C783 1.539 . S
C781 C777 1.408 . S
C781 C780 1.404 . S
C781 H793 0.930 . S
C782 C778 1.524 . S
C782 H794 0.956 1_565 S
C782 H795 0.961 . S
C782 H796 0.961 1_565 S
C783 C780 1.539 . S
C783 H797 0.958 . S
C783 H798 0.961 . S
C783 H799 0.960 . S
H784 C768 0.931 . S
H785 C773 0.929 . S
H786 C774 0.960 . S
H787 C774 0.962 . S
H788 C774 0.960 . S
H789 C775 0.961 . S
H790 C775 0.961 . S
H791 C775 0.961 . S
H792 C776 0.931 . S
H793 C781 0.930 . S
H794 C782 0.956 1_545 S
H795 C782 0.961 . S
H796 C782 0.961 1_545 S
H797 C783 0.958 . S
H798 C783 0.961 . S
H799 C783 0.960 . S
C800 C801 1.391 . S
C800 C802 1.394 . S
C800 H816 0.931 . S
C801 C800 1.391 . S
C801 C805 1.376 . S
C802 C800 1.394 . S
C802 C803 1.369 . S
C802 C806 1.531 . S
C803 C802 1.369 . S
C803 C804 1.410 . S
C803 C811 1.503 . S
C804 C803 1.410 . S
C804 C805 1.392 . S
C804 C807 1.511 . S
C805 C801 1.376 . S
C805 C804 1.392 . S
C805 H817 0.929 . S
C806 C802 1.531 . S
C806 H818 0.960 . S
C806 H819 0.962 . S
C806 H820 0.960 . S
C807 C804 1.511 . S
C807 H821 0.961 . S
C807 H822 0.961 . S
C807 H823 0.961 . S
C808 C809 1.370 . S
C808 C810 1.363 . S
C808 H824 0.931 . S
C809 C808 1.370 . S
C809 C813 1.408 . S
C810 C808 1.363 . S
C810 C811 1.370 . S
C810 C814 1.524 . S
C811 C803 1.503 . S
C811 C810 1.370 . S
C811 C812 1.403 . S
C812 C811 1.403 . S
C812 C813 1.404 . S
C812 C815 1.539 . S
C813 C809 1.408 . S
C813 C812 1.404 . S
C813 H825 0.930 . S
C814 C810 1.524 . S
C814 H826 0.956 . S
C814 H827 0.961 1_565 S
C814 H828 0.961 1_565 S
C815 C812 1.539 . S
C815 H829 0.958 . S
C815 H830 0.961 . S
C815 H831 0.960 . S
H816 C800 0.931 . S
H817 C805 0.929 . S
H818 C806 0.960 . S
H819 C806 0.962 . S
H820 C806 0.960 . S
H821 C807 0.961 . S
H822 C807 0.961 . S
H823 C807 0.961 . S
H824 C808 0.931 . S
H825 C813 0.930 . S
H826 C814 0.956 . S
H827 C814 0.961 1_545 S
H828 C814 0.961 1_545 S
H829 C815 0.958 . S
H830 C815 0.961 . S
H831 C815 0.960 . S
C832 C833 1.391 . S
C832 C834 1.394 . S
C832 H848 0.931 1_455 S
C833 C832 1.391 . S
C833 C837 1.376 . S
C834 C832 1.394 . S
C834 C835 1.369 . S
C834 C838 1.531 1_455 S
C835 C834 1.369 . S
C835 C836 1.410 . S
C835 C843 1.503 . S
C836 C835 1.410 . S
C836 C837 1.392 . S
C836 C839 1.511 . S
C837 C833 1.376 . S
C837 C836 1.392 . S
C837 H849 0.929 . S
C838 C834 1.531 1_655 S
C838 H850 0.960 . S
C838 H851 0.962 . S
C838 H852 0.960 . S
C839 C836 1.511 . S
C839 H853 0.961 . S
C839 H854 0.961 . S
C839 H855 0.961 . S
C840 C841 1.370 . S
C840 C842 1.363 . S
C840 H856 0.931 . S
C841 C840 1.370 . S
C841 C845 1.408 . S
C842 C840 1.363 . S
C842 C843 1.370 . S
C842 C846 1.524 . S
C843 C835 1.503 . S
C843 C842 1.370 . S
C843 C844 1.403 . S
C844 C843 1.403 . S
C844 C845 1.404 . S
C844 C847 1.539 . S
C845 C841 1.408 . S
C845 C844 1.404 . S
C845 H857 0.930 . S
C846 C842 1.524 . S
C846 H858 0.956 . S
C846 H859 0.961 . S
C846 H860 0.961 . S
C847 C844 1.539 . S
C847 H861 0.958 1_455 S
C847 H862 0.961 . S
C847 H863 0.960 . S
H848 C832 0.931 1_655 S
H849 C837 0.929 . S
H850 C838 0.960 . S
H851 C838 0.962 . S
H852 C838 0.960 . S
H853 C839 0.961 . S
H854 C839 0.961 . S
H855 C839 0.961 . S
H856 C840 0.931 . S
H857 C845 0.930 . S
H858 C846 0.956 . S
H859 C846 0.961 . S
H860 C846 0.961 . S
H861 C847 0.958 1_655 S
H862 C847 0.961 . S
H863 C847 0.960 . S
C864 C865 1.391 . S
C864 C866 1.394 . S
C864 H880 0.931 . S
C865 C864 1.391 . S
C865 C869 1.376 . S
C866 C864 1.394 . S
C866 C867 1.369 . S
C866 C870 1.531 . S
C867 C866 1.369 . S
C867 C868 1.410 . S
C867 C875 1.503 . S
C868 C867 1.410 . S
C868 C869 1.392 . S
C868 C871 1.511 . S
C869 C865 1.376 . S
C869 C868 1.392 . S
C869 H881 0.929 . S
C870 C866 1.531 . S
C870 H882 0.960 . S
C870 H883 0.995 . S
C870 H884 0.960 . S
C871 C868 1.511 . S
C871 H885 0.961 . S
C871 H886 0.961 . S
C871 H887 0.961 . S
C872 C873 1.370 . S
C872 C874 1.363 . S
C872 H888 0.931 . S
C873 C872 1.370 . S
C873 C877 1.408 . S
C874 C872 1.363 . S
C874 C875 1.370 . S
C874 C878 1.524 . S
C875 C867 1.503 . S
C875 C874 1.370 . S
C875 C876 1.403 . S
C876 C875 1.403 . S
C876 C877 1.404 . S
C876 C879 1.539 . S
C877 C873 1.408 . S
C877 C876 1.404 . S
C877 H889 0.930 . S
C878 C874 1.524 . S
C878 H890 0.956 1_545 S
C878 H891 0.961 . S
C878 H892 0.961 1_545 S
C879 C876 1.539 . S
C879 H893 0.958 . S
C879 H894 0.961 . S
C879 H895 0.960 . S
H880 C864 0.931 . S
H881 C869 0.929 . S
H882 C870 0.960 . S
H883 C870 0.995 . S
H884 C870 0.960 . S
H885 C871 0.961 . S
H886 C871 0.961 . S
H887 C871 0.961 . S
H888 C872 0.931 . S
H889 C877 0.930 . S
H890 C878 0.956 1_565 S
H891 C878 0.961 . S
H892 C878 0.961 1_565 S
H893 C879 0.958 . S
H894 C879 0.961 . S
H895 C879 0.960 . S
C896 C897 1.391 . S
C896 C898 1.394 . S
C896 H912 0.931 . S
C897 C896 1.391 . S
C897 C901 1.376 . S
C898 C896 1.394 . S
C898 C899 1.369 . S
C898 C902 1.531 . S
C899 C898 1.369 . S
C899 C900 1.410 . S
C899 C907 1.503 . S
C900 C899 1.410 . S
C900 C901 1.392 . S
C900 C903 1.511 . S
C901 C897 1.376 . S
C901 C900 1.392 . S
C901 H913 0.929 . S
C902 C898 1.531 . S
C902 H914 0.960 . S
C902 H915 0.962 1_655 S
C902 H916 0.960 1_655 S
C903 C900 1.511 . S
C903 H917 0.961 . S
C903 H918 0.961 . S
C903 H919 0.961 . S
C904 C905 1.370 . S
C904 C906 1.363 . S
C904 H920 0.931 . S
C905 C904 1.370 . S
C905 C909 1.408 . S
C906 C904 1.363 . S
C906 C907 1.370 . S
C906 C910 1.524 . S
C907 C899 1.503 . S
C907 C906 1.370 . S
C907 C908 1.403 . S
C908 C907 1.403 . S
C908 C909 1.404 . S
C908 C911 1.539 . S
C909 C905 1.408 . S
C909 C908 1.404 . S
C909 H921 0.930 . S
C910 C906 1.524 . S
C910 H922 0.976 . S
C910 H923 0.961 . S
C910 H924 0.961 . S
C911 C908 1.539 . S
C911 H925 0.958 . S
C911 H926 0.961 . S
C911 H927 0.960 . S
H912 C896 0.931 . S
H913 C901 0.929 . S
H914 C902 0.960 . S
H915 C902 0.962 1_455 S
H916 C902 0.960 1_455 S
H917 C903 0.961 . S
H918 C903 0.961 . S
H919 C903 0.961 . S
H920 C904 0.931 . S
H921 C909 0.930 . S
H922 C910 0.976 . S
H923 C910 0.961 . S
H924 C910 0.961 . S
H925 C911 0.958 . S
H926 C911 0.961 . S
H927 C911 0.960 . S
C928 C929 1.391 . S
C928 C930 1.394 . S
C928 H944 0.931 . S
C929 C928 1.391 . S
C929 C933 1.376 . S
C930 C928 1.394 . S
C930 C931 1.369 . S
C930 C934 1.531 . S
C931 C930 1.369 . S
C931 C932 1.410 . S
C931 C939 1.503 . S
C932 C931 1.410 . S
C932 C933 1.392 . S
C932 C935 1.511 . S
C933 C929 1.376 . S
C933 C932 1.392 . S
C933 H945 0.929 . S
C934 C930 1.531 . S
C934 H946 0.960 . S
C934 H947 0.962 . S
C934 H948 0.960 . S
C935 C932 1.511 . S
C935 H949 0.961 . S
C935 H950 0.961 . S
C935 H951 0.961 . S
C936 C937 1.370 . S
C936 C938 1.363 . S
C936 H952 0.931 . S
C937 C936 1.370 . S
C937 C941 1.408 . S
C938 C936 1.363 . S
C938 C939 1.370 . S
C938 C942 1.524 . S
C939 C931 1.503 . S
C939 C938 1.370 . S
C939 C940 1.403 . S
C940 C939 1.403 . S
C940 C941 1.404 . S
C940 C943 1.539 . S
C941 C937 1.408 . S
C941 C940 1.404 . S
C941 H953 0.930 . S
C942 C938 1.524 . S
C942 H954 0.956 . S
C942 H955 0.961 . S
C942 H956 0.961 . S
C943 C940 1.539 . S
C943 H957 0.958 . S
C943 H958 0.961 . S
C943 H959 0.960 . S
H944 C928 0.931 . S
H945 C933 0.929 . S
H946 C934 0.960 . S
H947 C934 0.962 . S
H948 C934 0.960 . S
H949 C935 0.961 . S
H950 C935 0.961 . S
H951 C935 0.961 . S
H952 C936 0.931 . S
H953 C941 0.930 . S
H954 C942 0.956 . S
H955 C942 0.961 . S
H956 C942 0.961 . S
H957 C943 0.958 . S
H958 C943 0.961 . S
H959 C943 0.960 . S
C960 C961 1.391 . S
C960 C962 1.394 . S
C960 H976 0.931 . S
C961 C960 1.391 . S
C961 C965 1.376 . S
C962 C960 1.394 . S
C962 C963 1.369 . S
C962 C966 1.531 . S
C963 C962 1.369 . S
C963 C964 1.410 . S
C963 C971 1.503 . S
C964 C963 1.410 . S
C964 C965 1.392 . S
C964 C967 1.511 . S
C965 C961 1.376 . S
C965 C964 1.392 . S
C965 H977 0.929 . S
C966 C962 1.531 . S
C966 H978 0.960 . S
C966 H979 0.962 . S
C966 H980 0.960 . S
C967 C964 1.511 . S
C967 H981 0.961 . S
C967 H982 0.961 . S
C967 H983 0.961 . S
C968 C969 1.370 . S
C968 C970 1.363 . S
C968 H984 0.931 . S
C969 C968 1.370 . S
C969 C973 1.408 . S
C970 C968 1.363 . S
C970 C971 1.370 . S
C970 C974 1.524 . S
C971 C963 1.503 . S
C971 C970 1.370 . S
C971 C972 1.403 . S
C972 C971 1.403 . S
C972 C973 1.404 . S
C972 C975 1.539 . S
C973 C969 1.408 . S
C973 C972 1.404 . S
C973 H985 0.930 . S
C974 C970 1.524 . S
C974 H986 0.956 . S
C974 H987 0.961 . S
C974 H988 0.961 . S
C975 C972 1.539 . S
C975 H989 0.958 . S
C975 H990 0.961 . S
C975 H991 0.960 . S
H976 C960 0.931 . S
H977 C965 0.929 . S
H978 C966 0.960 . S
H979 C966 0.962 . S
H980 C966 0.960 . S
H981 C967 0.961 . S
H982 C967 0.961 . S
H983 C967 0.961 . S
H984 C968 0.931 . S
H985 C973 0.930 . S
H986 C974 0.956 . S
H987 C974 0.961 . S
H988 C974 0.961 . S
H989 C975 0.958 . S
H990 C975 0.961 . S
H991 C975 0.960 . S
C992 C993 1.391 . S
C992 C994 1.394 . S
C992 H1008 0.931 . S
C993 C992 1.391 . S
C993 C997 1.376 . S
C994 C992 1.394 . S
C994 C995 1.369 . S
C994 C998 1.531 . S
C995 C994 1.369 . S
C995 C996 1.410 . S
C995 C1003 1.503 . S
C996 C995 1.410 . S
C996 C997 1.392 . S
C996 C999 1.511 . S
C997 C993 1.376 . S
C997 C996 1.392 . S
C997 H1009 0.929 . S
C998 C994 1.531 . S
C998 H1010 0.960 . S
C998 H1011 0.962 . S
C998 H1012 0.960 . S
C999 C996 1.511 . S
C999 H1013 0.961 . S
C999 H1014 0.961 . S
C999 H1015 0.961 . S
C1000 C1001 1.370 . S
C1000 C1002 1.363 . S
C1000 H1016 0.931 . S
C1001 C1000 1.370 . S
C1001 C1005 1.408 . S
C1002 C1000 1.363 . S
C1002 C1003 1.370 . S
C1002 C1006 1.524 . S
C1003 C995 1.503 . S
C1003 C1002 1.370 . S
C1003 C1004 1.403 . S
C1004 C1003 1.403 . S
C1004 C1005 1.404 . S
C1004 C1007 1.539 . S
C1005 C1001 1.408 . S
C1005 C1004 1.404 . S
C1005 H1017 0.930 . S
C1006 C1002 1.524 . S
C1006 H1018 0.956 . S
C1006 H1019 0.961 . S
C1006 H1020 0.961 . S
C1007 C1004 1.539 . S
C1007 H1021 0.958 . S
C1007 H1022 0.961 . S
C1007 H1023 0.960 . S
H1008 C992 0.931 . S
H1009 C997 0.929 . S
H1010 C998 0.960 . S
H1011 C998 0.962 . S
H1012 C998 0.960 . S
H1013 C999 0.961 . S
H1014 C999 0.961 . S
H1015 C999 0.961 . S
H1016 C1000 0.931 . S
H1017 C1005 0.930 . S
H1018 C1006 0.956 . S
H1019 C1006 0.961 . S
H1020 C1006 0.961 . S
H1021 C1007 0.958 . S
H1022 C1007 0.961 . S
H1023 C1007 0.960 . S
C1024 C1025 1.391 . S
C1024 C1026 1.394 . S
C1024 H1040 0.931 . S
C1025 C1024 1.391 . S
C1025 C1029 1.376 . S
C1026 C1024 1.394 . S
C1026 C1027 1.369 . S
C1026 C1030 1.531 . S
C1027 C1026 1.369 . S
C1027 C1028 1.410 . S
C1027 C1035 1.503 . S
C1028 C1027 1.410 . S
C1028 C1029 1.392 . S
C1028 C1031 1.511 . S
C1029 C1025 1.376 . S
C1029 C1028 1.392 . S
C1029 H1041 0.929 . S
C1030 C1026 1.531 . S
C1030 H1042 0.960 . S
C1030 H1043 0.962 . S
C1030 H1044 0.960 . S
C1031 C1028 1.511 . S
C1031 H1045 0.961 . S
C1031 H1046 0.961 . S
C1031 H1047 0.961 . S
C1032 C1033 1.370 . S
C1032 C1034 1.363 . S
C1032 H1048 0.931 . S
C1033 C1032 1.370 . S
C1033 C1037 1.408 . S
C1034 C1032 1.363 . S
C1034 C1035 1.370 . S
C1034 C1038 1.524 . S
C1035 C1027 1.503 . S
C1035 C1034 1.370 . S
C1035 C1036 1.403 . S
C1036 C1035 1.403 . S
C1036 C1037 1.404 . S
C1036 C1039 1.539 . S
C1037 C1033 1.408 . S
C1037 C1036 1.404 . S
C1037 H1049 0.930 . S
C1038 C1034 1.524 . S
C1038 H1050 0.956 . S
C1038 H1051 0.961 . S
C1038 H1052 0.961 . S
C1039 C1036 1.539 . S
C1039 H1053 0.958 . S
C1039 H1054 0.961 . S
C1039 H1055 0.960 . S
H1040 C1024 0.931 . S
H1041 C1029 0.929 . S
H1042 C1030 0.960 . S
H1043 C1030 0.962 . S
H1044 C1030 0.960 . S
H1045 C1031 0.961 . S
H1046 C1031 0.961 . S
H1047 C1031 0.961 . S
H1048 C1032 0.931 . S
H1049 C1037 0.930 . S
H1050 C1038 0.956 . S
H1051 C1038 0.961 . S
H1052 C1038 0.961 . S
H1053 C1039 0.958 . S
H1054 C1039 0.961 . S
H1055 C1039 0.960 . S
C1056 C1057 1.391 . S
C1056 C1058 1.394 . S
C1056 H1072 0.931 . S
C1057 C1056 1.391 . S
C1057 C1061 1.376 . S
C1058 C1056 1.394 . S
C1058 C1059 1.369 . S
C1058 C1062 1.531 . S
C1059 C1058 1.369 . S
C1059 C1060 1.410 . S
C1059 C1067 1.503 . S
C1060 C1059 1.410 . S
C1060 C1061 1.392 . S
C1060 C1063 1.511 . S
C1061 C1057 1.376 . S
C1061 C1060 1.392 . S
C1061 H1073 0.929 . S
C1062 C1058 1.531 . S
C1062 H1074 0.960 . S
C1062 H1075 0.962 . S
C1062 H1076 0.960 . S
C1063 C1060 1.511 . S
C1063 H1077 0.961 . S
C1063 H1078 0.961 . S
C1063 H1079 0.961 . S
C1064 C1065 1.370 . S
C1064 C1066 1.363 . S
C1064 H1080 0.931 . S
C1065 C1064 1.370 . S
C1065 C1069 1.408 . S
C1066 C1064 1.363 . S
C1066 C1067 1.370 . S
C1066 C1070 1.524 . S
C1067 C1059 1.503 . S
C1067 C1066 1.370 . S
C1067 C1068 1.403 . S
C1068 C1067 1.403 . S
C1068 C1069 1.404 . S
C1068 C1071 1.539 . S
C1069 C1065 1.408 . S
C1069 C1068 1.404 . S
C1069 H1081 0.930 . S
C1070 C1066 1.524 . S
C1070 H1082 0.956 . S
C1070 H1083 0.961 . S
C1070 H1084 0.961 . S
C1071 C1068 1.539 . S
C1071 H1085 0.958 . S
C1071 H1086 0.961 . S
C1071 H1087 0.960 . S
H1072 C1056 0.931 . S
H1073 C1061 0.929 . S
H1074 C1062 0.960 . S
H1075 C1062 0.962 . S
H1076 C1062 0.960 . S
H1077 C1063 0.961 . S
H1078 C1063 0.961 . S
H1079 C1063 0.961 . S
H1080 C1064 0.931 . S
H1081 C1069 0.930 . S
H1082 C1070 0.956 . S
H1083 C1070 0.961 . S
H1084 C1070 0.961 . S
H1085 C1071 0.958 . S
H1086 C1071 0.961 . S
H1087 C1071 0.960 . S
C1088 C1089 1.391 . S
C1088 C1090 1.394 . S
C1088 H1104 0.931 . S
C1089 C1088 1.391 . S
C1089 C1093 1.376 . S
C1090 C1088 1.394 . S
C1090 C1091 1.369 . S
C1090 C1094 1.531 . S
C1091 C1090 1.369 . S
C1091 C1092 1.410 . S
C1091 C1099 1.503 . S
C1092 C1091 1.410 . S
C1092 C1093 1.392 . S
C1092 C1095 1.511 . S
C1093 C1089 1.376 . S
C1093 C1092 1.392 . S
C1093 H1105 0.929 . S
C1094 C1090 1.531 . S
C1094 H1106 0.960 . S
C1094 H1107 0.962 . S
C1094 H1108 0.960 . S
C1095 C1092 1.511 . S
C1095 H1109 0.961 . S
C1095 H1110 0.961 . S
C1095 H1111 0.961 . S
C1096 C1097 1.370 . S
C1096 C1098 1.363 . S
C1096 H1112 0.931 . S
C1097 C1096 1.370 . S
C1097 C1101 1.408 . S
C1098 C1096 1.363 . S
C1098 C1099 1.370 . S
C1098 C1102 1.524 . S
C1099 C1091 1.503 . S
C1099 C1098 1.370 . S
C1099 C1100 1.403 . S
C1100 C1099 1.403 . S
C1100 C1101 1.404 . S
C1100 C1103 1.539 . S
C1101 C1097 1.408 . S
C1101 C1100 1.404 . S
C1101 H1113 0.930 . S
C1102 C1098 1.524 . S
C1102 H1114 0.956 . S
C1102 H1115 0.961 . S
C1102 H1116 0.961 . S
C1103 C1100 1.539 . S
C1103 H1117 0.958 . S
C1103 H1118 0.961 . S
C1103 H1119 0.960 . S
H1104 C1088 0.931 . S
H1105 C1093 0.929 . S
H1106 C1094 0.960 . S
H1107 C1094 0.962 . S
H1108 C1094 0.960 . S
H1109 C1095 0.961 . S
H1110 C1095 0.961 . S
H1111 C1095 0.961 . S
H1112 C1096 0.931 . S
H1113 C1101 0.930 . S
H1114 C1102 0.956 . S
H1115 C1102 0.961 . S
H1116 C1102 0.961 . S
H1117 C1103 0.958 . S
H1118 C1103 0.961 . S
H1119 C1103 0.960 . S
C1120 C1121 1.391 . S
C1120 C1122 1.394 . S
C1120 H1136 0.931 . S
C1121 C1120 1.391 . S
C1121 C1125 1.376 . S
C1122 C1120 1.394 . S
C1122 C1123 1.369 . S
C1122 C1126 1.531 . S
C1123 C1122 1.369 . S
C1123 C1124 1.410 . S
C1123 C1131 1.503 . S
C1124 C1123 1.410 . S
C1124 C1125 1.392 . S
C1124 C1127 1.511 . S
C1125 C1121 1.376 . S
C1125 C1124 1.392 . S
C1125 H1137 0.929 . S
C1126 C1122 1.531 . S
C1126 H1138 0.960 . S
C1126 H1139 0.962 . S
C1126 H1140 0.960 . S
C1127 C1124 1.511 . S
C1127 H1141 0.961 . S
C1127 H1142 0.961 . S
C1127 H1143 0.961 . S
C1128 C1129 1.370 . S
C1128 C1130 1.363 . S
C1128 H1144 0.931 . S
C1129 C1128 1.370 . S
C1129 C1133 1.408 . S
C1130 C1128 1.363 . S
C1130 C1131 1.370 . S
C1130 C1134 1.524 . S
C1131 C1123 1.503 . S
C1131 C1130 1.370 . S
C1131 C1132 1.403 . S
C1132 C1131 1.403 . S
C1132 C1133 1.404 . S
C1132 C1135 1.539 . S
C1133 C1129 1.408 . S
C1133 C1132 1.404 . S
C1133 H1145 0.930 . S
C1134 C1130 1.524 . S
C1134 H1146 0.956 . S
C1134 H1147 0.961 . S
C1134 H1148 0.961 . S
C1135 C1132 1.539 . S
C1135 H1149 0.958 . S
C1135 H1150 0.961 . S
C1135 H1151 0.960 . S
H1136 C1120 0.931 . S
H1137 C1125 0.929 . S
H1138 C1126 0.960 . S
H1139 C1126 0.962 . S
H1140 C1126 0.960 . S
H1141 C1127 0.961 . S
H1142 C1127 0.961 . S
H1143 C1127 0.961 . S
H1144 C1128 0.931 . S
H1145 C1133 0.930 . S
H1146 C1134 0.956 . S
H1147 C1134 0.961 . S
H1148 C1134 0.961 . S
H1149 C1135 0.958 . S
H1150 C1135 0.961 . S
H1151 C1135 0.960 . S
C1152 C1153 1.391 . S
C1152 C1154 1.394 . S
C1152 H1168 0.931 . S
C1153 C1152 1.391 . S
C1153 C1157 1.376 . S
C1154 C1152 1.394 . S
C1154 C1155 1.369 . S
C1154 C1158 1.531 . S
C1155 C1154 1.369 . S
C1155 C1156 1.410 . S
C1155 C1163 1.503 . S
C1156 C1155 1.410 . S
C1156 C1157 1.392 . S
C1156 C1159 1.511 . S
C1157 C1153 1.376 . S
C1157 C1156 1.392 . S
C1157 H1169 0.929 . S
C1158 C1154 1.531 . S
C1158 H1170 0.960 . S
C1158 H1171 0.962 . S
C1158 H1172 0.960 . S
C1159 C1156 1.511 . S
C1159 H1173 0.961 . S
C1159 H1174 0.961 . S
C1159 H1175 0.961 . S
C1160 C1161 1.370 . S
C1160 C1162 1.363 . S
C1160 H1176 0.931 . S
C1161 C1160 1.370 . S
C1161 C1165 1.408 . S
C1162 C1160 1.363 . S
C1162 C1163 1.370 . S
C1162 C1166 1.524 . S
C1163 C1155 1.503 . S
C1163 C1162 1.370 . S
C1163 C1164 1.403 . S
C1164 C1163 1.403 . S
C1164 C1165 1.404 . S
C1164 C1167 1.539 . S
C1165 C1161 1.408 . S
C1165 C1164 1.404 . S
C1165 H1177 0.930 . S
C1166 C1162 1.524 . S
C1166 H1178 0.956 . S
C1166 H1179 0.961 . S
C1166 H1180 0.961 . S
C1167 C1164 1.539 . S
C1167 H1181 0.958 . S
C1167 H1182 0.961 . S
C1167 H1183 0.960 . S
H1168 C1152 0.931 . S
H1169 C1157 0.929 . S
H1170 C1158 0.960 . S
H1171 C1158 0.962 . S
H1172 C1158 0.960 . S
H1173 C1159 0.961 . S
H1174 C1159 0.961 . S
H1175 C1159 0.961 . S
H1176 C1160 0.931 . S
H1177 C1165 0.930 . S
H1178 C1166 0.956 . S
H1179 C1166 0.961 . S
H1180 C1166 0.961 . S
H1181 C1167 0.958 . S
H1182 C1167 0.961 . S
H1183 C1167 0.960 . S
C417 C45 1.639 . S
C425 C125 1.631 . S
C449 C30 1.623 . S
C457 C164 1.640 . S
C481 C39 1.643 . S
C489 C203 1.644 . S
C521 C242 1.644 . S
C513 C34 1.638 . S
C545 C97 1.619 . S
C553 C281 1.641 . S
C585 C320 1.643 . S
C577 C82 1.611 . S
C617 C359 1.647 . S
C609 C91 1.626 . S
C649 C398 1.648 . S
C641 C86 1.636 . S
C681 C354 1.537 . S
C673 C26 1.518 . S
C713 C393 1.542 . S
C705 C36 1.491 . S
C745 C261 1.535 . S
C737 C32 1.527 . S
C777 C300 1.537 . S
C769 C42 1.522 . S
C801 C18 1.600 . S
C809 C315 1.632 . S
C841 C339 1.653 . S
C833 C50 1.530 . S
C865 C4 1.571 . S
C873 C378 1.644 . S
C897 C48 1.556 . S
C905 C276 1.643 . S
C937 C198 1.546 . S
C929 C78 1.474 . S
C961 C88 1.465 . S
C969 C237 1.548 . S
C1001 C105 1.552 . S
C993 C84 1.465 . S
C1033 C144 1.549 . S
C1025 C94 1.470 . S
C1065 C159 1.635 . S
C1057 C70 1.592 . S
C1097 C183 1.653 . S
C1089 C102 1.536 . S
C1121 C56 1.567 . S
C1129 C222 1.644 . S
C1153 C100 1.554 . S
C1161 C120 1.643 . S
