# Generated by pormake.
# Topology zzz, (3,6)-cn, num edge types: 1
# Building blocks:
#     Node 0, Type 0, BuildingBlock: MIDCAF_clean_linker_0, # of connection points: 3
#     Node 1, Type 0, BuildingBlock: MIDCAF_clean_linker_0, # of connection points: 3
#     Node 2, Type 0, BuildingBlock: MIDCAF_clean_linker_0, # of connection points: 3
#     Node 3, Type 0, BuildingBlock: MIDCAF_clean_linker_0, # of connection points: 3
#     Node 4, Type 0, BuildingBlock: MIDCAF_clean_linker_0, # of connection points: 3
#     Node 5, Type 0, BuildingBlock: MIDCAF_clean_linker_0, # of connection points: 3
#     Node 6, Type 0, BuildingBlock: MIDCAF_clean_linker_0, # of connection points: 3
#     Node 7, Type 0, BuildingBlock: MIDCAF_clean_linker_0, # of connection points: 3
#     Node 8, Type 1, BuildingBlock: KUMJIN_clean_sbu_0, # of connection points: 6
#     Node 9, Type 1, BuildingBlock: KUMJIN_clean_sbu_0, # of connection points: 6
#     Node 10, Type 1, BuildingBlock: KUMJIN_clean_sbu_0, # of connection points: 6
#     Node 11, Type 1, BuildingBlock: KUMJIN_clean_sbu_0, # of connection points: 6
#     Edge 12, Type (0, 1), BuildingBlock: KIFKEQ_clean_linker_1, # of connection points: 2
#     Edge 13, Type (0, 1), BuildingBlock: KIFKEQ_clean_linker_1, # of connection points: 2
#     Edge 14, Type (0, 1), BuildingBlock: KIFKEQ_clean_linker_1, # of connection points: 2
#     Edge 15, Type (0, 1), BuildingBlock: KIFKEQ_clean_linker_1, # of connection points: 2
#     Edge 16, Type (0, 1), BuildingBlock: KIFKEQ_clean_linker_1, # of connection points: 2
#     Edge 17, Type (0, 1), BuildingBlock: KIFKEQ_clean_linker_1, # of connection points: 2
#     Edge 18, Type (0, 1), BuildingBlock: KIFKEQ_clean_linker_1, # of connection points: 2
#     Edge 19, Type (0, 1), BuildingBlock: KIFKEQ_clean_linker_1, # of connection points: 2
#     Edge 20, Type (0, 1), BuildingBlock: KIFKEQ_clean_linker_1, # of connection points: 2
#     Edge 21, Type (0, 1), BuildingBlock: KIFKEQ_clean_linker_1, # of connection points: 2
#     Edge 22, Type (0, 1), BuildingBlock: KIFKEQ_clean_linker_1, # of connection points: 2
#     Edge 23, Type (0, 1), BuildingBlock: KIFKEQ_clean_linker_1, # of connection points: 2
#     Edge 24, Type (0, 1), BuildingBlock: KIFKEQ_clean_linker_1, # of connection points: 2
#     Edge 25, Type (0, 1), BuildingBlock: KIFKEQ_clean_linker_1, # of connection points: 2
#     Edge 26, Type (0, 1), BuildingBlock: KIFKEQ_clean_linker_1, # of connection points: 2
#     Edge 27, Type (0, 1), BuildingBlock: KIFKEQ_clean_linker_1, # of connection points: 2
#     Edge 28, Type (0, 1), BuildingBlock: KIFKEQ_clean_linker_1, # of connection points: 2
#     Edge 29, Type (0, 1), BuildingBlock: KIFKEQ_clean_linker_1, # of connection points: 2
#     Edge 30, Type (0, 1), BuildingBlock: KIFKEQ_clean_linker_1, # of connection points: 2
#     Edge 31, Type (0, 1), BuildingBlock: KIFKEQ_clean_linker_1, # of connection points: 2
#     Edge 32, Type (0, 1), BuildingBlock: KIFKEQ_clean_linker_1, # of connection points: 2
#     Edge 33, Type (0, 1), BuildingBlock: KIFKEQ_clean_linker_1, # of connection points: 2
#     Edge 34, Type (0, 1), BuildingBlock: KIFKEQ_clean_linker_1, # of connection points: 2
#     Edge 35, Type (0, 1), BuildingBlock: KIFKEQ_clean_linker_1, # of connection points: 2
# Relax obj value: 0.299
# Max RMSD: 0.227
# Mean RMSD: 0.213
data_MOF--net-zzz--node1-KUMJIN_clean_sbu_0--node2-MIDCAF_clean_linker_0--edge1-KIFKEQ_clean_linker_1
_symmetry_space_group_name_H-M    P1
_symmetry_Int_Tables_number       1
_symmetry_cell_setting            triclinic
loop_
_symmetry_equiv_pos_as_xyz
'x, y, z'
_cell_length_a     57.838515
_cell_length_b     57.738198
_cell_length_c     20.200919
_cell_angle_alpha  90.679087
_cell_angle_beta   90.077748
_cell_angle_gamma 89.987271
loop_
_atom_site_label
_atom_site_type_symbol
_atom_site_fract_x
_atom_site_fract_y
_atom_site_fract_z
_atom_type_partial_charge
C0 C 0.80894 0.56263 0.33279 0.0
C1 C 0.81525 0.53931 0.3413 0.0
C2 C 0.80348 0.52232 0.30329 0.0
C3 C 0.78676 0.52864 0.25589 0.0
H4 H 0.69721 0.55639 0.16068 0.0
H5 H 0.65998 0.55021 0.10427 0.0
H6 H 0.69631 0.53417 0.92263 0.0
H7 H 0.73292 0.54123 0.97817 0.0
H8 H 0.76516 0.59206 0.95437 0.0
H9 H 0.79352 0.60517 0.87402 0.0
H10 H 0.84415 0.61245 0.03046 0.0
H11 H 0.81584 0.60013 0.1105 0.0
H12 H 0.78934 0.58714 0.27694 0.0
H13 H 0.81767 0.57627 0.36026 0.0
H14 H 0.8077 0.50417 0.30876 0.0
H15 H 0.77906 0.51531 0.22478 0.0
N16 N 0.74901 0.55114 0.16177 0.0
N17 N 0.75294 0.57241 0.06344 0.0
N18 N 0.78183 0.5744 0.14391 0.0
C19 C 0.74035 0.55789 0.10168 0.0
C20 C 0.77357 0.58087 0.08418 0.0
C21 C 0.76995 0.55963 0.183 0.0
C22 C 0.71802 0.54928 0.07395 0.0
C23 C 0.69712 0.55103 0.10912 0.0
C24 C 0.67577 0.54759 0.07648 0.0
C25 C 0.67489 0.54218 1.00805 0.0
C26 C 0.69601 0.53908 0.97451 0.0
C27 C 0.71713 0.54278 1.00671 0.0
C28 C 0.78845 0.59425 0.03865 0.0
C29 C 0.78214 0.59713 0.97195 0.0
C30 C 0.79842 0.60466 0.92576 0.0
C31 C 0.82132 0.60934 0.94531 0.0
C32 C 0.82673 0.60906 0.01323 0.0
C33 C 0.81048 0.60165 0.05934 0.0
C34 C 0.78164 0.55209 0.24487 0.0
C35 C 0.79257 0.5689 0.28502 0.0
C36 C 0.97048 0.81451 0.32522 0.0
C37 C 0.99194 0.82602 0.32267 0.0
C38 C 0.00877 0.81704 0.27862 0.0
C39 C 1.00368 0.7983 0.23549 0.0
H40 H 0.00848 0.71394 0.1222 0.0
H41 H 0.01628 0.67645 0.06635 0.0
H42 H 0.94755 0.67706 0.98329 0.0
H43 H 0.9398 0.7137 0.03842 0.0
H44 H 0.92536 0.76213 0.9714 0.0
H45 H 0.91394 0.78528 0.87678 0.0
H46 H 0.93831 0.84692 0.97894 0.0
H47 H 0.94844 0.82412 0.07363 0.0
H48 H 0.94814 0.78867 0.28235 0.0
H49 H 0.95714 0.82041 0.35898 0.0
H50 H 0.02544 0.82541 0.27431 0.0
H51 H 0.01633 0.79318 0.19861 0.0
N52 N 0.97855 0.75213 0.1615 0.0
N53 N 0.9555 0.75453 0.06549 0.0
N54 N 0.95948 0.78693 0.13435 0.0
C55 C 0.96923 0.74178 0.10574 0.0
C56 C 0.95062 0.77698 0.07897 0.0
C57 C 0.97322 0.7749 0.1761 0.0
C58 C 0.97358 0.71712 0.08456 0.0
C59 C 0.99491 0.70576 0.09329 0.0
C60 C 0.99941 0.68432 0.06087 0.0
C61 C 0.98272 0.67389 0.01878 0.0
C62 C 0.96107 0.68472 0.01356 0.0
C63 C 0.95659 0.70581 0.04582 0.0
C64 C 0.93849 0.79119 0.02924 0.0
C65 C 0.92763 0.78074 0.97419 0.0
C66 C 0.92115 0.79403 0.91978 0.0
C67 C 0.9258 0.81795 0.91887 0.0
C68 C 0.93429 0.82862 0.97712 0.0
C69 C 0.9404 0.81542 0.03175 0.0
C70 C 0.98174 0.78782 0.23565 0.0
C71 C 0.96544 0.79587 0.28217 0.0
C72 C 0.70842 0.96528 0.33999 0.0
C73 C 0.69809 0.98738 0.339 0.0
C74 C 0.70764 1.00402 0.29615 0.0
C75 C 0.72588 0.99822 0.25282 0.0
H76 H 0.79786 0.00831 0.09058 0.0
H77 H 0.83398 0.01645 0.03099 0.0
H78 H 0.85416 0.94485 0.04975 0.0
H79 H 0.81814 0.93685 0.10808 0.0
H80 H 0.7633 0.92548 0.978 0.0
H81 H 0.73896 0.91416 0.88465 0.0
H82 H 0.67845 0.92072 1.00873 0.0
H83 H 0.70262 0.93117 0.10197 0.0
H84 H 0.7328 0.94183 0.29541 0.0
H85 H 0.70214 0.95209 0.37308 0.0
H86 H 0.70017 0.02116 0.29309 0.0
H87 H 0.73167 0.01087 0.2173 0.0
N88 N 0.77039 0.97441 0.17879 0.0
N89 N 0.77026 0.95009 0.08413 0.0
N90 N 0.73768 0.95184 0.152 0.0
C91 C 0.78151 0.96538 0.12434 0.0
C92 C 0.74831 0.94337 0.09716 0.0
C93 C 0.74841 0.96714 0.19319 0.0
C94 C 0.80538 0.97204 0.10509 0.0
C95 C 0.81043 0.99457 0.08392 0.0
C96 C 0.83097 0.99912 0.04893 0.0
C97 C 0.84702 0.98128 0.03514 0.0
C98 C 0.84243 0.95908 0.05987 0.0
C99 C 0.82179 0.95449 0.09361 0.0
C100 C 0.73485 0.93012 0.04693 0.0
C101 C 0.74487 0.92378 0.98593 0.0
C102 C 0.7309 0.9173 0.93228 0.0
C103 C 0.70668 0.91722 0.93849 0.0
C104 C 0.697 0.92062 1.00171 0.0
C105 C 0.71094 0.92691 0.05539 0.0
C106 C 0.735 0.97567 0.25122 0.0
C107 C 0.72638 0.95947 0.29629 0.0
C108 C 0.62751 0.69783 0.08654 0.0
C109 C 0.62025 0.69349 0.02103 0.0
C110 C 0.6096 0.71159 0.98609 0.0
C111 C 0.60355 0.73223 0.01857 0.0
H112 H 0.59723 0.80948 0.03818 0.0
H113 H 0.58783 0.84489 0.98141 0.0
H114 H 0.52531 0.8516 0.09659 0.0
H115 H 0.53467 0.81543 0.15377 0.0
H116 H 0.52337 0.74729 0.2336 0.0
H117 H 0.50891 0.71839 0.31153 0.0
H118 H 0.57629 0.71558 0.40347 0.0
H119 H 0.59045 0.74428 0.32595 0.0
H120 H 0.62476 0.7201 0.1717 0.0
H121 H 0.63646 0.68463 0.11433 0.0
H122 H 0.60369 0.70905 0.93566 0.0
H123 H 0.59337 0.74488 0.99208 0.0
N124 N 0.58782 0.77249 0.09946 0.0
N125 N 0.56227 0.77916 0.18856 0.0
N126 N 0.58475 0.74522 0.18331 0.0
C127 C 0.57234 0.78654 0.13104 0.0
C128 C 0.56885 0.75846 0.21512 0.0
C129 C 0.59417 0.75193 0.12546 0.0
C130 C 0.56663 0.80933 0.10056 0.0
C131 C 0.58145 0.8184 0.05199 0.0
C132 C 0.57618 0.83899 0.0196 0.0
C133 C 0.55584 0.85129 0.0343 0.0
C134 C 0.54107 0.84251 0.08363 0.0
C135 C 0.54649 0.82184 0.11673 0.0
C136 C 0.55793 0.74832 0.27441 0.0
C137 C 0.53469 0.74128 0.27255 0.0
C138 C 0.52657 0.7244 0.3165 0.0
C139 C 0.54149 0.71436 0.36348 0.0
C140 C 0.56419 0.72296 0.36861 0.0
C141 C 0.57232 0.73955 0.32433 0.0
C142 C 0.60772 0.73493 0.08665 0.0
C143 C 0.62098 0.71821 0.11937 0.0
C144 C 0.21787 0.46543 0.92219 0.0
C145 C 0.20565 0.48652 0.92606 0.0
C146 C 0.21238 0.50271 0.97536 0.0
C147 C 0.22947 0.49715 0.02242 0.0
H148 H 0.31112 0.49873 0.13683 0.0
H149 H 0.3477 0.50751 0.19451 0.0
H150 H 0.34063 0.44485 0.30705 0.0
H151 H 0.30469 0.43627 0.251 0.0
H152 H 0.25257 0.42669 0.30117 0.0
H153 H 0.223 0.41277 0.37679 0.0
H154 H 0.17334 0.41214 0.21673 0.0
H155 H 0.20279 0.42536 0.14132 0.0
H156 H 0.24251 0.44279 0.96762 0.0
H157 H 0.21363 0.45265 0.88441 0.0
H158 H 0.20335 0.51905 0.98048 0.0
H159 H 0.23278 0.50912 0.06303 0.0
N160 N 0.27275 0.47173 0.10436 0.0
N161 N 0.26719 0.44724 0.19554 0.0
N162 N 0.23791 0.45105 0.11706 0.0
C163 C 0.28103 0.46195 0.16145 0.0
C164 C 0.24571 0.4417 0.17394 0.0
C165 C 0.25104 0.46595 0.08194 0.0
C166 C 0.30458 0.46696 0.18958 0.0
C167 C 0.31753 0.48676 0.17342 0.0
C168 C 0.33852 0.49178 0.20658 0.0
C169 C 0.347 0.47713 0.25667 0.0
C170 C 0.33446 0.45693 0.27041 0.0
C171 C 0.31373 0.45196 0.23764 0.0
C172 C 0.22986 0.42791 0.2156 0.0
C173 C 0.23552 0.4229 0.28166 0.0
C174 C 0.21856 0.4149 0.32511 0.0
C175 C 0.19564 0.41181 0.30335 0.0
C176 C 0.19076 0.41424 0.23553 0.0
C177 C 0.20767 0.42219 0.1922 0.0
C178 C 0.24041 0.4754 0.02093 0.0
C179 C 0.23484 0.45991 0.96915 0.0
C180 C 0.05609 0.1948 0.98263 0.0
C181 C 0.03711 0.19622 0.93928 0.0
C182 C 0.02332 0.2165 0.94344 0.0
C183 C 0.02824 0.23441 0.99016 0.0
H184 H 0.0161 0.29364 0.24669 0.0
H185 H 0.00954 0.33083 0.30225 0.0
H186 H 0.0503 0.36483 0.1535 0.0
H187 H 0.05703 0.32723 0.09813 0.0
H188 H 0.0867 0.27675 0.3064 0.0
H189 H 0.09698 0.25791 0.40947 0.0
H190 H 0.09334 0.19128 0.3094 0.0
H191 H 0.08461 0.21006 0.20714 0.0
H192 H 0.07586 0.21004 0.0602 0.0
H193 H 0.06696 0.17956 0.98332 0.0
H194 H 0.00864 0.21859 0.91079 0.0
H195 H 0.017 0.24938 0.99288 0.0
N196 N 0.04214 0.27106 0.09658 0.0
N197 N 0.06177 0.27628 0.19839 0.0
N198 N 0.06645 0.24198 0.13845 0.0
C199 C 0.04737 0.28461 0.15129 0.0
C200 C 0.07145 0.2551 0.19242 0.0
C201 C 0.05209 0.24945 0.0899 0.0
C202 C 0.03653 0.30746 0.16676 0.0
C203 C 0.02281 0.30918 0.2241 0.0
C204 C 0.01945 0.3305 0.25679 0.0
C205 C 0.0297 0.35091 0.23325 0.0
C206 C 0.04207 0.34953 0.1731 0.0
C207 C 0.04565 0.32801 0.14065 0.0
C208 C 0.08391 0.24484 0.2491 0.0
C209 C 0.08884 0.25811 0.30621 0.0
C210 C 0.09463 0.24726 0.36553 0.0
C211 C 0.0951 0.22292 0.36916 0.0
C212 C 0.09313 0.21001 0.30974 0.0
C213 C 0.08778 0.22085 0.25044 0.0
C214 C 0.04711 0.23252 0.03402 0.0
C215 C 0.06106 0.21252 0.02816 0.0
C216 C 0.33452 0.06398 0.95124 0.0
C217 C 0.33128 0.04435 0.91052 0.0
C218 C 0.31045 0.03177 0.91791 0.0
C219 C 0.29367 0.03854 0.9653 0.0
H220 H 0.23188 0.02076 0.16604 0.0
H221 H 0.1954 0.01308 0.22385 0.0
H222 H 0.17128 0.08152 0.17444 0.0
H223 H 0.20774 0.08908 0.11808 0.0
H224 H 0.26901 0.08366 0.29382 0.0
H225 H 0.29549 0.09493 0.38113 0.0
H226 H 0.3369 0.13227 0.2396 0.0
H227 H 0.31099 0.11946 0.15126 0.0
H228 H 0.32167 0.08592 0.02784 0.0
H229 H 0.35033 0.07397 0.94897 0.0
H230 H 0.30708 0.01665 0.88723 0.0
H231 H 0.27814 0.02825 0.97051 0.0
N232 N 0.25949 0.0562 0.07021 0.0
N233 N 0.25563 0.07816 0.16904 0.0
N234 N 0.2898 0.08004 0.10842 0.0
C235 C 0.24647 0.06324 0.1237 0.0
C236 C 0.27721 0.08668 0.16165 0.0
C237 C 0.28142 0.06493 0.06226 0.0
C238 C 0.22247 0.05533 0.13619 0.0
C239 C 0.21832 0.03369 0.16504 0.0
C240 C 0.19747 0.02943 0.19883 0.0
C241 C 0.18043 0.04683 0.20511 0.0
C242 C 0.18409 0.06784 0.17203 0.0
C243 C 0.20483 0.07205 0.13849 0.0
C244 C 0.28843 0.1 0.21554 0.0
C245 C 0.28335 0.0949 0.28166 0.0
C246 C 0.29857 0.1016 0.33208 0.0
C247 C 0.31896 0.11384 0.3173 0.0
C248 C 0.32191 0.12204 0.25246 0.0
C249 C 0.30702 0.1148 0.20178 0.0
C250 C 0.29735 0.05802 1.00661 0.0
C251 C 0.31793 0.07073 0.99771 0.0
C252 C 0.40758 0.33479 0.17008 0.0
C253 C 0.40335 0.33168 0.2381 0.0
C254 C 0.40278 0.30884 0.26206 0.0
C255 C 0.40942 0.29016 0.22143 0.0
H256 H 0.43223 0.22535 0.23163 0.0
H257 H 0.43937 0.18954 0.28782 0.0
H258 H 0.48275 0.16622 0.1265 0.0
H259 H 0.47593 0.20299 0.06953 0.0
H260 H 0.43166 0.27509 0.91065 0.0
H261 H 0.44287 0.30452 0.83119 0.0
H262 H 0.50871 0.31208 0.92996 0.0
H263 H 0.4974 0.28225 1.00901 0.0
H264 H 0.41831 0.31973 0.07861 0.0
H265 H 0.40833 0.35182 0.14853 0.0
H266 H 0.39868 0.30544 0.31327 0.0
H267 H 0.41058 0.27309 0.24285 0.0
N268 N 0.43414 0.25519 0.14382 0.0
N269 N 0.4585 0.2461 0.05362 0.0
N270 N 0.43864 0.28164 0.0587 0.0
C271 C 0.44856 0.23994 0.11255 0.0
C272 C 0.4532 0.26707 0.02647 0.0
C273 C 0.42908 0.27601 0.11731 0.0
C274 C 0.45342 0.2173 0.14536 0.0
C275 C 0.44329 0.21274 0.20731 0.0
C276 C 0.44724 0.19192 0.23976 0.0
C277 C 0.46139 0.17467 0.21165 0.0
C278 C 0.47178 0.17912 0.14988 0.0
C279 C 0.46781 0.20018 0.11702 0.0
C280 C 0.46381 0.27601 0.96528 0.0
C281 C 0.44901 0.28212 0.91313 0.0
C282 C 0.4553 0.29935 0.86836 0.0
C283 C 0.47651 0.3111 0.87493 0.0
C284 C 0.49227 0.30338 0.92317 0.0
C285 C 0.48593 0.28606 0.96811 0.0
C286 C 0.41629 0.29391 0.15569 0.0
C287 C 0.41373 0.31617 0.12947 0.0
Eu288 Eu 0.03621 1.00686 0.67518 0.0
C289 C 0.94461 0.99246 0.51844 0.0
C290 C 0.95484 0.96629 0.42866 0.0
C291 C 0.91606 0.96539 0.47438 0.0
C292 C 0.96095 0.98395 0.4745 0.0
C293 C 0.92178 0.98379 0.51736 0.0
C294 C 0.93258 0.95661 0.43024 0.0
C295 C 0.91126 0.01366 0.59642 0.0
N296 N 0.95058 0.01026 0.55925 0.0
C297 C 0.93411 0.02153 0.59615 0.0
C298 C 0.90516 0.99441 0.55784 0.0
Eu299 Eu 0.98998 0.02161 0.56016 0.0
N300 N 0.98231 0.99384 0.47381 0.0
C301 C 0.99746 0.98812 0.42425 0.0
C302 C 0.97101 0.95935 0.38113 0.0
C303 C 0.99224 0.97063 0.37818 0.0
H304 H 0.93876 0.03626 0.62679 0.0
H305 H 1.00469 0.9658 0.34052 0.0
H306 H 0.92775 0.94284 0.39602 0.0
H307 H 0.89844 0.02231 0.62686 0.0
H308 H 0.01395 0.99632 0.42006 0.0
H309 H 0.0188 0.05858 0.90088 0.0
H310 H 0.96703 0.94578 0.34536 0.0
H311 H 0.0876 0.99732 0.60295 0.0
H312 H 0.01089 0.02916 0.81686 0.0
H313 H 0.12688 0.01413 0.60235 0.0
H314 H 0.89871 0.9583 0.47352 0.0
H315 H 0.05549 0.08041 0.89925 0.0
H316 H 0.09439 0.08648 0.84848 0.0
H317 H 0.88745 0.98829 0.55825 0.0
H318 H 0.12384 0.07442 0.76744 0.0
N319 N 0.04262 0.03375 0.76455 0.0
C320 C 0.02711 0.03803 0.81436 0.0
C321 C 0.05219 0.06725 0.86173 0.0
C322 C 0.06863 0.06199 0.81327 0.0
C323 C 0.03151 0.05494 0.86287 0.0
C324 C 0.0634 0.04479 0.76514 0.0
H325 H 0.13626 0.04721 0.67656 0.0
N326 N 0.07481 0.02087 0.67602 0.0
C327 C 0.11384 0.02114 0.63536 0.0
C328 C 0.07995 0.03817 0.71942 0.0
C329 C 0.09163 0.01162 0.63601 0.0
C330 C 0.11903 0.03984 0.67712 0.0
C331 C 0.10215 0.04835 0.72063 0.0
O332 O 0.06186 0.98206 0.71034 0.0
O333 O 0.01126 0.99256 0.59951 0.0
O334 O 0.97359 1.0026 0.64666 0.0
O335 O 1.00145 1.00522 0.72994 0.0
O336 O 0.0451 0.98168 0.59142 0.0
O337 O 0.0264 0.97857 0.74061 0.0
O338 O 0.966 0.04507 0.51045 0.0
O339 O 0.01431 0.03552 0.63742 0.0
O340 O 0.05113 0.02744 0.58931 0.0
O341 O 0.02465 0.02061 0.50471 0.0
O342 O 0.98053 0.04646 0.64458 0.0
O343 O 1.00249 0.05172 0.50618 0.0
C344 C 0.02455 0.97889 0.56817 0.0
C345 C 0.04557 0.94459 0.70309 0.0
C346 C 0.02305 0.9107 0.66834 0.0
C347 C 0.02517 0.93141 0.70526 0.0
C348 C 0.04172 0.9032 0.62911 0.0
C349 C 0.06425 0.93637 0.66483 0.0
C350 C 0.06222 0.9159 0.62787 0.0
C351 C 0.98001 1.00092 0.70945 0.0
C352 C 0.04623 0.96812 0.73326 0.0
C353 C 0.107 0.0662 0.76632 0.0
C354 C 0.09025 0.07304 0.81248 0.0
C355 C 1.00091 0.04886 0.66943 0.0
C356 C 0.97843 0.08362 0.53111 0.0
C357 C 0.99705 0.09919 0.5358 0.0
C358 C 0.99518 0.11979 0.5733 0.0
C359 C 0.97429 0.12478 0.60594 0.0
C360 C 0.95754 0.08922 0.56317 0.0
C361 C 0.95558 0.10963 0.60046 0.0
C362 C 0.04566 0.02648 0.52567 0.0
C363 C 0.98191 0.0605 0.50008 0.0
H364 H 0.01089 0.93732 0.73576 0.0
H365 H 0.04048 0.88748 0.5995 0.0
H366 H 0.08019 0.94613 0.66168 0.0
H367 H 0.07652 0.90997 0.5976 0.0
H368 H 0.01307 0.0952 0.5103 0.0
H369 H 0.97243 0.1404 0.63566 0.0
H370 H 0.94288 0.07756 0.56106 0.0
H371 H 0.93955 0.11362 0.62575 0.0
Eu372 Eu 0.51397 0.03421 0.66718 0.0
C373 C 0.54206 0.94391 0.5136 0.0
C374 C 0.56789 0.95746 0.4285 0.0
C375 C 0.57324 0.91908 0.47395 0.0
C376 C 0.54905 0.96117 0.47182 0.0
C377 C 0.55356 0.92234 0.51362 0.0
C378 C 0.58038 0.93663 0.43133 0.0
C379 C 0.52332 0.90774 0.58395 0.0
N380 N 0.52273 0.94748 0.54994 0.0
C381 C 0.51244 0.92934 0.58134 0.0
C382 C 0.54428 0.90435 0.55104 0.0
Eu383 Eu 0.5059 0.98509 0.5494 0.0
N384 N 0.5365 0.98103 0.47043 0.0
C385 C 0.54081 0.99701 0.42253 0.0
C386 C 0.57316 0.97447 0.3823 0.0
C387 C 0.55929 0.99415 0.37858 0.0
H388 H 0.49599 0.93179 0.60571 0.0
H389 H 0.5629 1.00724 0.3421 0.0
H390 H 0.59509 0.93363 0.3992 0.0
H391 H 0.51546 0.8937 0.61088 0.0
H392 H 0.53057 0.01241 0.41847 0.0
H393 H 0.46139 0.01483 0.88642 0.0
H394 H 0.5875 0.97233 0.34831 0.0
H395 H 0.52022 0.08526 0.59242 0.0
H396 H 0.49195 0.00822 0.8054 0.0
H397 H 0.50086 0.12341 0.58827 0.0
H398 H 0.58249 0.90276 0.47396 0.0
H399 H 0.43726 0.05006 0.8814 0.0
H400 H 0.42899 0.08817 0.82845 0.0
H401 H 0.55258 0.88754 0.55244 0.0
H402 H 0.43962 0.1177 0.74721 0.0
N403 N 0.48547 0.03926 0.75164 0.0
C404 C 0.48187 0.02377 0.80137 0.0
C405 C 0.45084 0.04733 0.84523 0.0
C406 C 0.45532 0.06375 0.79665 0.0
C407 C 0.46443 0.02745 0.84822 0.0
C408 C 0.47314 0.0593 0.75043 0.0
H409 H 0.46663 0.13118 0.65846 0.0
N410 N 0.49697 0.07157 0.6635 0.0
C411 C 0.49448 0.1102 0.62113 0.0
C412 C 0.47903 0.07591 0.70481 0.0
C413 C 0.50544 0.08865 0.62383 0.0
C414 C 0.47512 0.11447 0.6606 0.0
C415 C 0.4674 0.0974 0.70396 0.0
O416 O 0.54037 0.06009 0.68914 0.0
O417 O 0.53145 0.009 0.59774 0.0
O418 O 0.52164 0.97003 0.64263 0.0
O419 O 0.51773 0.99982 0.72172 0.0
O420 O 0.54079 0.04345 0.58991 0.0
O421 O 0.536 0.03096 0.75454 0.0
O422 O 0.4788 0.96073 0.52033 0.0
O423 O 0.48922 0.00986 0.62004 0.0
O424 O 0.49171 0.04631 0.58181 0.0
O425 O 0.50272 0.02049 0.4985 0.0
O426 O 0.47664 0.97655 0.6213 0.0
O427 O 0.48681 0.98952 0.45705 0.0
C428 C 0.54516 0.02274 0.56927 0.0
C429 C 0.57426 0.04274 0.72775 0.0
C430 C 0.60584 0.01494 0.71506 0.0
C431 C 0.5825 0.01982 0.72851 0.0
C432 C 0.62076 0.03324 0.69876 0.0
C433 C 0.58955 0.06077 0.71239 0.0
C434 C 0.61261 0.05598 0.69747 0.0
C435 C 0.52212 0.978 0.70446 0.0
C436 C 0.54947 0.04791 0.7363 0.0
C437 C 0.44894 0.10142 0.74764 0.0
C438 C 0.44291 0.08462 0.79392 0.0
C439 C 0.47428 0.99703 0.64636 0.0
C440 C 0.44768 0.97841 0.46762 0.0
C441 C 0.43977 1.00058 0.486 0.0
C442 C 0.41605 1.00586 0.48441 0.0
C443 C 0.40029 0.98821 0.46685 0.0
C444 C 0.43173 0.96113 0.45032 0.0
C445 C 0.40812 0.966 0.45044 0.0
C446 C 0.49401 0.04068 0.51852 0.0
C447 C 0.47239 0.97278 0.46969 0.0
H448 H 0.57079 1.0057 0.7389 0.0
H449 H 0.63891 0.0301 0.6891 0.0
H450 H 0.58352 0.07852 0.71068 0.0
H451 H 0.62427 0.06996 0.68537 0.0
H452 H 0.45209 0.01374 0.50105 0.0
H453 H 0.38193 0.99168 0.46349 0.0
H454 H 0.43756 0.94385 0.43704 0.0
H455 H 0.39585 0.95262 0.43669 0.0
Eu456 Eu 0.53545 0.50455 0.58145 0.0
C457 C 0.43392 0.50833 0.63966 0.0
C458 C 0.41969 0.5335 0.55385 0.0
C459 C 0.39594 0.50156 0.59062 0.0
C460 C 0.43728 0.52695 0.59869 0.0
C461 C 0.4129 0.4958 0.63729 0.0
C462 C 0.3993 0.52042 0.54907 0.0
C463 C 0.42538 0.47496 0.73347 0.0
N464 N 0.45047 0.50338 0.68487 0.0
C465 C 0.44566 0.48809 0.73439 0.0
C466 C 0.40913 0.47846 0.6837 0.0
Eu467 Eu 0.48586 0.52484 0.68058 0.0
N468 N 0.45732 0.53916 0.60413 0.0
C469 C 0.45958 0.5594 0.56988 0.0
C470 C 0.42286 0.55326 0.51586 0.0
C471 C 0.44273 0.56646 0.52476 0.0
H472 H 0.45743 0.48609 0.77539 0.0
H473 H 0.44503 0.58228 0.49731 0.0
H474 H 0.38584 0.52503 0.51426 0.0
H475 H 0.42215 0.46244 0.77181 0.0
H476 H 0.47389 0.57086 0.5771 0.0
H477 H 0.57676 0.44653 0.76163 0.0
H478 H 0.40982 0.5588 0.48088 0.0
H479 H 0.56327 0.54563 0.49126 0.0
H480 H 0.5477 0.45829 0.6826 0.0
H481 H 0.59779 0.57008 0.49899 0.0
H482 H 0.37987 0.49195 0.58758 0.0
H483 H 0.61149 0.47053 0.78057 0.0
H484 H 0.6347 0.50529 0.75121 0.0
H485 H 0.39327 0.46847 0.68343 0.0
H486 H 0.64003 0.53943 0.68157 0.0
N487 N 0.56395 0.49039 0.65784 0.0
C488 C 0.56193 0.46982 0.69062 0.0
C489 C 0.59843 0.47614 0.74573 0.0
C490 C 0.60125 0.49639 0.70964 0.0
C491 C 0.57884 0.46263 0.7354 0.0
C492 C 0.58366 0.50302 0.66486 0.0
H493 H 0.6264 0.56374 0.58783 0.0
N494 N 0.57015 0.52731 0.58053 0.0
C495 C 0.59471 0.557 0.53589 0.0
C496 C 0.58666 0.52223 0.62583 0.0
C497 C 0.57481 0.54334 0.53273 0.0
C498 C 0.61082 0.55332 0.58591 0.0
C499 C 0.60732 0.5353 0.6303 0.0
O500 O 0.55309 0.49996 0.4867 0.0
O501 O 0.49658 0.50622 0.5877 0.0
O502 O 0.49057 0.48665 0.70299 0.0
O503 O 0.5172 0.47303 0.62517 0.0
O504 O 0.51144 0.5148 0.49781 0.0
O505 O 0.54032 0.47007 0.53815 0.0
O506 O 0.46823 0.53034 0.77494 0.0
O507 O 0.52472 0.52276 0.67521 0.0
O508 O 0.52938 0.54199 0.55495 0.0
O509 O 0.50414 0.55615 0.63557 0.0
O510 O 0.50928 0.51286 0.76334 0.0
O511 O 0.48356 0.5594 0.72541 0.0
C512 C 0.49216 0.51177 0.5285 0.0
C513 C 0.53508 0.47124 0.42177 0.0
C514 C 0.50088 0.45443 0.36927 0.0
C515 C 0.51436 0.45858 0.42592 0.0
C516 C 0.50816 0.46304 0.30806 0.0
C517 C 0.54237 0.47931 0.35988 0.0
C518 C 0.52892 0.47527 0.30344 0.0
C519 C 0.50232 0.46971 0.67409 0.0
C520 C 0.54786 0.47811 0.48213 0.0
C521 C 0.62425 0.52942 0.67695 0.0
C522 C 0.62126 0.50995 0.7164 0.0
C523 C 0.52874 0.5163 0.73391 0.0
C524 C 0.48725 0.55757 0.84228 0.0
C525 C 0.51001 0.56619 0.84117 0.0
C526 C 0.52227 0.56998 0.90044 0.0
C527 C 0.51159 0.56472 0.96096 0.0
C528 C 0.47685 0.55271 0.90324 0.0
C529 C 0.48902 0.55618 0.96218 0.0
C530 C 0.51825 0.5591 0.58465 0.0
C531 C 0.47487 0.55175 0.78048 0.0
H532 H 0.50838 0.45227 0.47325 0.0
H533 H 0.4981 0.45981 0.26364 0.0
H534 H 0.5582 0.48919 0.3555 0.0
H535 H 0.53457 0.48169 0.25601 0.0
H536 H 0.51831 0.56974 0.79431 0.0
H537 H 0.52042 0.56784 1.00752 0.0
H538 H 0.45942 0.54587 0.90513 0.0
H539 H 0.4809 0.55235 1.00903 0.0
Eu540 Eu 0.01632 0.53932 0.58492 0.0
C541 C 0.03499 0.43743 0.67093 0.0
C542 C 0.01835 0.41215 0.58713 0.0
C543 C 0.05195 0.39952 0.64933 0.0
C544 C 0.01872 0.4335 0.62193 0.0
C545 C 0.05148 0.42029 0.68621 0.0
C546 C 0.03537 0.39544 0.59995 0.0
C547 C 0.06433 0.44442 0.7776 0.0
N548 N 0.03389 0.45751 0.70618 0.0
C549 C 0.04754 0.46077 0.76094 0.0
C550 C 0.06655 0.42422 0.73946 0.0
Eu551 Eu 1.00577 0.48502 0.67332 0.0
N552 N 1.0026 0.45009 0.61039 0.0
C553 C 0.98463 0.44562 0.56813 0.0
C554 C 1.00055 0.40799 0.5416 0.0
C555 C 0.98349 0.42471 0.53262 0.0
H556 H 0.04596 0.47646 0.79031 0.0
H557 H 0.96944 0.42154 0.49826 0.0
H558 H 0.03554 0.3791 0.57303 0.0
H559 H 0.07557 0.44743 0.81972 0.0
H560 H 0.97118 0.45814 0.56053 0.0
H561 H 0.05248 0.60309 0.75961 0.0
H562 H 0.99958 0.39179 0.51413 0.0
H563 H 0.97683 0.54837 0.46624 0.0
H564 H 0.05143 0.56688 0.69529 0.0
H565 H 0.94715 0.57734 0.43695 0.0
H566 H 0.06464 0.38625 0.65985 0.0
H567 H 0.02131 0.63201 0.74721 0.0
H568 H 0.98508 0.64438 0.6891 0.0
H569 H 0.0795 0.41151 0.75262 0.0
H570 H 0.9563 0.63735 0.60132 0.0
N571 N 0.01934 0.57426 0.64802 0.0
C572 C 0.03752 0.57901 0.68931 0.0
C573 C 0.02069 0.61601 0.71871 0.0
C574 C 1.00287 0.61174 0.67336 0.0
C575 C 0.0383 0.59973 0.72582 0.0
C576 C 1.00286 0.59057 0.63758 0.0
H577 H 0.94233 0.61266 0.50614 0.0
N578 N 0.98826 0.56689 0.55188 0.0
C579 C 0.9581 0.58016 0.47978 0.0
C580 C 0.98674 0.58671 0.58819 0.0
C581 C 0.97496 0.56385 0.49635 0.0
C582 C 0.95537 0.60001 0.51912 0.0
C583 C 0.97008 0.60373 0.57331 0.0
O584 O 0.02486 0.55235 0.48733 0.0
O585 O 0.01843 0.50053 0.57982 0.0
O586 O 0.0444 0.48917 0.6567 0.0
O587 O 0.04718 0.52922 0.65144 0.0
O588 O 0.00708 0.51642 0.49533 0.0
O589 O 0.05183 0.54899 0.56111 0.0
O590 O 0.99747 0.47265 0.77177 0.0
O591 O 1.00355 0.52372 0.67796 0.0
O592 O 0.97761 0.5353 0.60071 0.0
O593 O 0.97453 0.4953 0.60858 0.0
O594 O 0.01473 0.5081 0.76303 0.0
O595 O 0.97057 0.47434 0.69711 0.0
C596 C 0.01213 0.49674 0.52081 0.0
C597 C 0.06098 0.54052 0.44955 0.0
C598 C 0.07852 0.50492 0.40745 0.0
C599 C 0.06693 0.51713 0.45794 0.0
C600 C 0.08411 0.5165 0.34857 0.0
C601 C 0.06667 0.55173 0.3907 0.0
C602 C 0.07822 0.53973 0.34044 0.0
C603 C 0.05631 0.50859 0.66413 0.0
C604 C 0.04698 0.55276 0.49903 0.0
C605 C 0.96915 0.6242 0.61143 0.0
C606 C 0.98554 0.62821 0.66136 0.0
C607 C 0.00964 0.52769 0.737 0.0
C608 C 0.96084 0.48355 0.8078 0.0
C609 C 0.95382 0.50652 0.79699 0.0
C610 C 0.94159 0.51876 0.84614 0.0
C611 C 0.9365 0.50769 0.90617 0.0
C612 C 0.95561 0.47283 0.86775 0.0
C613 C 0.94346 0.48489 0.91673 0.0
C614 C 0.96549 0.51592 0.59534 0.0
C615 C 0.97541 0.47135 0.75961 0.0
H616 H 0.06227 0.50841 0.50322 0.0
H617 H 0.09354 0.50777 0.30928 0.0
H618 H 0.06189 0.56967 0.38334 0.0
H619 H 0.08265 0.54846 0.29505 0.0
H620 H 0.95813 0.5149 0.7509 0.0
H621 H 0.92664 0.51646 0.9445 0.0
H622 H 0.96121 0.45525 0.87697 0.0
H623 H 0.93941 0.47655 0.96298 0.0
H624 H 0.15293 0.00823 0.22349 0.0
H625 H 0.16155 0.079 0.29029 0.0
H626 H 0.12029 1.00388 0.29945 0.0
H627 H 0.12877 0.07482 0.3647 0.0
H628 H 0.08578 0.05113 0.54347 0.0
H629 H 0.1179 0.05563 0.46647 0.0
H630 H 0.08026 0.01662 0.31804 0.0
H631 H 0.04842 0.01174 0.39545 0.0
C632 C 0.14787 0.02289 0.25413 0.0
C633 C 0.15992 0.04402 0.25007 0.0
C634 C 0.12899 0.02046 0.29741 0.0
C635 C 0.12176 0.039 0.33852 0.0
C636 C 0.13386 0.06007 0.33447 0.0
C637 C 0.15256 0.06255 0.29095 0.0
C638 C 0.08433 0.04344 0.49449 0.0
C639 C 0.06441 0.03086 0.47628 0.0
C640 C 0.10274 0.04619 0.44997 0.0
C641 C 0.10186 0.0364 0.38575 0.0
C642 C 0.08178 0.02414 0.36722 0.0
C643 C 0.06331 0.02154 0.41164 0.0
H644 H 0.42996 0.14966 0.28333 0.0
H645 H 0.50162 0.14924 0.22333 0.0
H646 H 0.43698 0.11635 0.35332 0.0
H647 H 0.50851 0.11547 0.29276 0.0
H648 H 0.50683 0.04278 0.38732 0.0
H649 H 0.49854 0.07347 0.3085 0.0
H650 H 0.45848 0.10955 0.45743 0.0
H651 H 0.46629 0.0787 0.53554 0.0
C652 C 0.44726 0.1425 0.28495 0.0
C653 C 0.46531 0.15252 0.2482 0.0
C654 C 0.45126 0.12332 0.32515 0.0
C655 C 0.47338 0.11336 0.32944 0.0
C656 C 0.49122 0.12263 0.29043 0.0
C657 C 0.48725 0.14199 0.25043 0.0
C658 C 0.49615 0.05715 0.40326 0.0
C659 C 0.4876 0.05836 0.46843 0.0
C660 C 0.49152 0.07486 0.35806 0.0
C661 C 0.47793 0.09408 0.37657 0.0
C662 C 0.46892 0.09498 0.44122 0.0
C663 C 0.47365 0.07738 0.48638 0.0
H664 H 0.38862 0.49499 0.2135 0.0
H665 H 0.35409 0.4719 0.39004 0.0
H666 H 0.42365 0.50244 0.27808 0.0
H667 H 0.38877 0.47953 0.45453 0.0
H668 H 0.46104 0.47632 0.54586 0.0
H669 H 0.42666 0.46757 0.47917 0.0
H670 H 0.44112 0.5268 0.35706 0.0
H671 H 0.47566 0.5349 0.42276 0.0
C672 C 0.38837 0.49175 0.26618 0.0
C673 C 0.36841 0.48274 0.29615 0.0
C674 C 0.40853 0.49605 0.30351 0.0
C675 C 0.40929 0.49169 0.37214 0.0
C676 C 0.38922 0.48283 0.40194 0.0
C677 C 0.36917 0.47846 0.36469 0.0
C678 C 0.45663 0.48756 0.50518 0.0
C679 C 0.47055 0.50679 0.49093 0.0
C680 C 0.43688 0.4826 0.4668 0.0
C681 C 0.4307 0.4966 0.41262 0.0
C682 C 0.44519 0.51543 0.39764 0.0
C683 C 0.46493 0.52026 0.43577 0.0
H684 H 0.02101 0.3956 0.19215 0.0
H685 H 0.03652 0.35637 0.36705 0.0
H686 H 0.01846 0.43102 0.25994 0.0
H687 H 0.03412 0.39162 0.43457 0.0
H688 H 0.0463 0.46353 0.53126 0.0
H689 H 0.05229 0.42926 0.46014 0.0
H690 H 0.99294 0.44847 0.34312 0.0
H691 H 0.98718 0.48259 0.41403 0.0
C692 C 0.02397 0.39451 0.24497 0.0
C693 C 0.02868 0.37295 0.27393 0.0
C694 C 0.02237 0.41484 0.28408 0.0
C695 C 0.02586 0.41433 0.35325 0.0
C696 C 0.03128 0.39286 0.38176 0.0
C697 C 0.03247 0.37252 0.34291 0.0
C698 C 0.0344 0.46022 0.49082 0.0
C699 C 0.01579 0.47537 0.47967 0.0
C700 C 0.03787 0.44061 0.44973 0.0
C701 C 0.02301 0.43582 0.39573 0.0
C702 C 1.00487 0.45151 0.38367 0.0
C703 C 1.00141 0.47101 0.42473 0.0
H704 H 0.84866 1.00478 0.91793 0.0
H705 H 0.89179 0.96602 0.05134 0.0
H706 H 0.88115 0.00846 0.84148 0.0
H707 H 0.92433 0.96966 0.97465 0.0
H708 H 0.98264 1.00323 0.84633 0.0
H709 H 0.95129 0.99904 0.92614 0.0
H710 H 0.9042 0.98215 0.76701 0.0
H711 H 0.93562 0.98569 0.68759 0.0
C712 C 0.86515 0.99729 0.93144 0.0
C713 C 0.86753 0.98514 0.99108 0.0
C714 C 0.88374 0.99917 0.88716 0.0
C715 C 0.9054 0.98923 0.90151 0.0
C716 C 0.90798 0.97761 0.96197 0.0
C717 C 0.88927 0.97543 1.00584 0.0
C718 C 0.96566 0.99866 0.82806 0.0
C719 C 0.96162 0.99583 0.75961 0.0
C720 C 0.94763 0.99613 0.87411 0.0
C721 C 0.92501 0.99077 0.85309 0.0
C722 C 0.9212 0.98697 0.78501 0.0
C723 C 0.93927 0.98917 0.73922 0.0
H724 H 0.58474 0.88632 0.99451 0.0
H725 H 0.51347 0.86429 0.98535 0.0
H726 H 0.57609 0.91805 0.91965 0.0
H727 H 0.50466 0.89647 0.91221 0.0
H728 H 0.50492 0.93436 0.71464 0.0
H729 H 0.51277 0.90561 0.7983 0.0
H730 H 0.55555 0.95497 0.90405 0.0
H731 H 0.54802 0.9837 0.81799 0.0
C732 C 0.56715 0.88835 0.97707 0.0
C733 C 0.54986 0.87249 0.99561 0.0
C734 C 0.56215 0.90674 0.93457 0.0
C735 C 0.53971 0.90978 0.90914 0.0
C736 C 0.52222 0.89449 0.92987 0.0
C737 C 0.52721 0.87615 0.97257 0.0
C738 C 0.51647 0.93894 0.75458 0.0
C739 C 0.52653 0.96104 0.75798 0.0
C740 C 0.52058 0.92257 0.80371 0.0
C741 C 0.53485 0.92784 0.85825 0.0
C742 C 0.54467 0.95017 0.86245 0.0
C743 C 0.54033 0.96668 0.81322 0.0
H744 H 0.66558 0.5555 0.88027 0.0
H745 H 0.6326 0.52534 0.05043 0.0
H746 H 0.63047 0.55028 0.81646 0.0
H747 H 0.5968 0.52146 0.98755 0.0
H748 H 0.54497 0.4919 0.83749 0.0
H749 H 0.57901 0.49947 0.90551 0.0
H750 H 0.59275 0.56123 0.79306 0.0
H751 H 0.55906 0.55279 0.72333 0.0
C752 C 0.65086 0.54769 0.90435 0.0
C753 C 0.65237 0.54039 0.97062 0.0
C754 C 0.63041 0.54503 0.86768 0.0
C755 C 0.61055 0.53511 0.89592 0.0
C756 C 0.61176 0.5286 0.96301 0.0
C757 C 0.63232 0.53115 0.99968 0.0
C758 C 0.55545 0.50698 0.82708 0.0
C759 C 0.54992 0.5212 0.77345 0.0
C760 C 0.57488 0.51155 0.86669 0.0
C761 C 0.58909 0.53091 0.85502 0.0
C762 C 0.58283 0.54576 0.80279 0.0
C763 C 0.56348 0.54098 0.76265 0.0
H764 H 1.00454 0.63336 0.05596 0.0
H765 H 0.97201 0.66557 0.8884 0.0
H766 H 0.01016 0.59794 0.99035 0.0
H767 H 0.97824 0.63074 0.82213 0.0
H768 H 0.97384 0.5589 0.72927 0.0
H769 H 0.96697 0.59304 0.79924 0.0
H770 H 0.03005 0.57888 0.90662 0.0
H771 H 0.03599 0.54419 0.83851 0.0
C772 C 0.99884 0.63301 1.00488 0.0
C773 C 0.98764 0.6524 0.978 0.0
C774 C 1.00209 0.61262 0.96683 0.0
C775 C 0.99455 0.61104 0.90027 0.0
C776 C 0.9838 0.63071 0.8733 0.0
C777 C 0.98033 0.65091 0.91146 0.0
C778 C 0.98626 0.56324 0.76763 0.0
C779 C 1.00581 0.54921 0.77714 0.0
C780 C 0.98239 0.58291 0.80799 0.0
C781 C 0.99806 0.58927 0.8589 0.0
C782 C 0.01735 0.57474 0.86894 0.0
C783 C 0.02096 0.55488 0.8293 0.0
H784 H 0.07369 0.2392 0.48247 0.0
H785 H 0.10988 0.17921 0.40488 0.0
H786 H 0.05574 0.21546 0.56514 0.0
H787 H 0.08961 0.15501 0.48217 0.0
H788 H 0.04161 0.11101 0.58727 0.0
H789 H 0.07339 0.1381 0.57296 0.0
H790 H 0.02385 0.19324 0.54287 0.0
H791 H 0.99258 0.16654 0.56114 0.0
C792 C 0.07843 0.22109 0.48367 0.0
C793 C 0.09224 0.21094 0.43379 0.0
C794 C 0.06766 0.20729 0.53078 0.0
C795 C 0.06983 0.18305 0.52757 0.0
C796 C 0.08681 0.17352 0.48544 0.0
C797 C 0.09824 0.18744 0.4399 0.0
C798 C 0.03763 0.12908 0.57946 0.0
C799 C 0.01457 0.1366 0.57485 0.0
C800 C 0.05587 0.14464 0.57091 0.0
C801 C 0.05142 0.16794 0.55556 0.0
C802 C 0.02828 0.17564 0.55563 0.0
C803 C 0.01014 0.16021 0.56558 0.0
H804 H 0.31933 0.11555 0.45462 0.0
H805 H 0.36456 0.10863 0.28523 0.0
H806 H 0.34899 0.09803 0.52395 0.0
H807 H 0.39356 0.09159 0.35297 0.0
H808 H 0.43746 0.04572 0.44532 0.0
H809 H 0.42003 0.08359 0.43406 0.0
H810 H 0.35769 0.05836 0.52635 0.0
H811 H 0.37608 0.02125 0.54389 0.0
C812 C 0.33577 0.11099 0.43243 0.0
C813 C 0.33904 0.11264 0.36358 0.0
C814 C 0.35279 0.10093 0.47223 0.0
C815 C 0.37337 0.09242 0.44382 0.0
C816 C 0.37799 0.09765 0.37728 0.0
C817 C 0.36107 0.10761 0.33773 0.0
C818 C 0.42052 0.04855 0.46653 0.0
C819 C 0.40787 0.03014 0.49351 0.0
C820 C 0.41036 0.0703 0.45922 0.0
C821 C 0.38707 0.07386 0.4764 0.0
C822 C 0.37556 0.05638 0.51153 0.0
C823 C 0.38596 0.0348 0.52046 0.0
H824 H 0.41795 0.3334 0.36876 0.0
H825 H 0.3907 0.37723 0.21503 0.0
H826 H 0.43293 0.36694 0.42572 0.0
H827 H 0.40906 0.41021 0.266 0.0
H828 H 0.45703 0.46464 0.32857 0.0
H829 H 0.42369 0.43885 0.32616 0.0
H830 H 0.46625 0.38463 0.40995 0.0
H831 H 0.4981 0.4113 0.41853 0.0
C832 C 0.41479 0.35012 0.34697 0.0
C833 C 0.40444 0.35217 0.28418 0.0
C834 C 0.42406 0.36953 0.37922 0.0
C835 C 0.42424 0.39122 0.34801 0.0
C836 C 0.41035 0.39386 0.29121 0.0
C837 C 0.40008 0.37462 0.26073 0.0
C838 C 0.45878 0.44732 0.34798 0.0
C839 C 0.48002 0.43981 0.37332 0.0
C840 C 0.43976 0.43235 0.34607 0.0
C841 C 0.44198 0.40913 0.36629 0.0
C842 C 0.46319 0.40224 0.39474 0.0
C843 C 0.4818 0.41749 0.39898 0.0
H844 H 0.15465 0.38736 0.29598 0.0
H845 H 0.1921 0.43627 0.41894 0.0
H846 H 0.11857 0.39946 0.34852 0.0
H847 H 0.15663 0.44841 0.47016 0.0
H848 H 0.09754 0.48581 0.51872 0.0
H849 H 0.12049 0.45048 0.52245 0.0
H850 H 0.10064 0.43458 0.32042 0.0
H851 H 0.07687 0.46901 0.31841 0.0
C852 C 0.15532 0.40008 0.33578 0.0
C853 C 0.17615 0.41149 0.35136 0.0
C854 C 0.13463 0.40704 0.36589 0.0
C855 C 0.13447 0.42565 0.41156 0.0
C856 C 0.15582 0.43418 0.43487 0.0
C857 C 0.17642 0.42717 0.40509 0.0
C858 C 0.09736 0.47425 0.47609 0.0
C859 C 0.08638 0.48072 0.41699 0.0
C860 C 0.11061 0.45401 0.47812 0.0
C861 C 0.11338 0.44018 0.42077 0.0
C862 C 0.09937 0.44486 0.36542 0.0
C863 C 0.08599 0.46492 0.36366 0.0
H864 H 0.93681 0.80097 0.79513 0.0
H865 H 0.91696 0.86423 0.89683 0.0
H866 H 0.95214 0.82331 0.70493 0.0
H867 H 0.93443 0.88658 0.80943 0.0
H868 H 0.97759 0.9247 0.67183 0.0
H869 H 0.94433 0.90154 0.70504 0.0
H870 H 0.98836 0.84107 0.71447 0.0
H871 H 0.02102 0.86394 0.68059 0.0
C872 C 0.93495 0.8196 0.79772 0.0
C873 C 0.92662 0.83078 0.85526 0.0
C874 C 0.94414 0.83248 0.74599 0.0
C875 C 0.94574 0.85671 0.7515 0.0
C876 C 0.934 0.86792 0.80379 0.0
C877 C 0.92426 0.85503 0.85476 0.0
C878 C 0.97995 0.90633 0.67974 0.0
C879 C 1.00202 0.89622 0.67485 0.0
C880 C 0.96089 0.89306 0.69862 0.0
C881 C 0.9636 0.86946 0.71346 0.0
C882 C 0.98533 0.85906 0.70272 0.0
C883 C 1.00426 0.87226 0.68353 0.0
H884 H 0.6632 0.89874 0.91734 0.0
H885 H 0.71565 0.94084 0.82553 0.0
H886 H 0.63458 0.91364 0.83969 0.0
H887 H 0.6875 0.9556 0.74937 0.0
H888 H 0.63692 0.99139 0.63683 0.0
H889 H 0.65875 0.95691 0.66688 0.0
H890 H 0.6181 0.95128 0.84553 0.0
H891 H 0.59609 0.98505 0.81453 0.0
C892 C 0.6688 0.91058 0.8794 0.0
C893 C 0.6916 0.91907 0.87902 0.0
C894 C 0.6524 0.91914 0.83494 0.0
C895 C 0.65853 0.93637 0.78947 0.0
C896 C 0.68199 0.94236 0.7834 0.0
C897 C 0.69832 0.9338 0.82757 0.0
C898 C 0.6323 0.98235 0.68158 0.0
C899 C 0.6152 0.99126 0.72415 0.0
C900 C 0.64478 0.96259 0.69882 0.0
C901 C 0.64067 0.95163 0.75956 0.0
C902 C 0.62182 0.9591 0.79828 0.0
C903 C 0.60919 0.97867 0.78066 0.0
H904 H 0.62512 0.67749 0.89206 0.0
H905 H 0.61099 0.65437 0.09079 0.0
H906 H 0.60994 0.64092 0.84818 0.0
H907 H 0.59624 0.61843 0.04759 0.0
H908 H 0.53605 0.60658 0.82636 0.0
H909 H 0.56995 0.63049 0.84358 0.0
H910 H 0.59519 0.5825 0.98966 0.0
H911 H 0.56065 0.55878 0.97338 0.0
C912 C 0.61943 0.66444 0.9265 0.0
C913 C 0.61875 0.66926 0.99494 0.0
C914 C 0.61076 0.64347 0.90134 0.0
C915 C 0.60129 0.62693 0.94417 0.0
C916 C 0.60342 0.6306 0.0128 0.0
C917 C 0.612 0.65147 0.03783 0.0
C918 C 0.54914 0.60072 0.86071 0.0
C919 C 0.54535 0.58119 0.89999 0.0
C920 C 0.56878 0.6144 0.87033 0.0
C921 C 0.58512 0.60876 0.91925 0.0
C922 C 0.5826 0.58772 0.953 0.0
C923 C 0.56279 0.57419 0.94392 0.0
H924 H 0.82498 0.58229 0.83436 0.0
H925 H 0.86142 0.63535 0.9452 0.0
H926 H 0.86047 0.57046 0.78264 0.0
H927 H 0.89752 0.62342 0.89241 0.0
H928 H 0.92107 0.53524 0.73364 0.0
H929 H 0.89637 0.56935 0.72694 0.0
H930 H 0.91673 0.58922 0.92576 0.0
H931 H 0.94202 0.55591 0.93084 0.0
C932 C 0.84037 0.5923 0.84534 0.0
C933 C 0.84044 0.60919 0.89604 0.0
C934 C 0.86098 0.58547 0.81525 0.0
C935 C 0.88214 0.59535 0.83527 0.0
C936 C 0.88162 0.61488 0.87762 0.0
C937 C 0.86093 0.62171 0.90793 0.0
C938 C 0.92095 0.54743 0.77481 0.0
C939 C 0.93258 0.54239 0.83408 0.0
C940 C 0.90672 0.56696 0.77108 0.0
C941 C 0.90372 0.58154 0.8268 0.0
C942 C 0.91822 0.57833 0.882 0.0
C943 C 0.9325 0.55893 0.88553 0.0
H944 H 0.9946 0.18061 0.89186 0.0
H945 H 0.06762 0.16561 0.87851 0.0
H946 H 0.98637 0.14658 0.82365 0.0
H947 H 0.05931 0.13061 0.8163 0.0
H948 H 0.0407 0.07515 0.66308 0.0
H949 H 0.04907 0.11155 0.72136 0.0
H950 H 0.98322 0.10712 0.82157 0.0
H951 H 0.97479 0.07142 0.761 0.0
C952 C 0.00898 0.17019 0.8746 0.0
C953 C 0.03182 0.17612 0.89246 0.0
C954 C 1.00421 0.1502 0.8361 0.0
C955 C 0.02205 0.13514 0.81456 0.0
C956 C 0.0449 0.14149 0.83082 0.0
C957 C 0.04969 0.16163 0.86817 0.0
C958 C 0.02817 0.08193 0.69812 0.0
C959 C 0.0073 0.07009 0.70842 0.0
C960 C 0.03292 0.10292 0.73186 0.0
C961 C 0.0169 0.11279 0.777 0.0
C962 C 0.99597 0.10074 0.78673 0.0
C963 C 0.99118 0.07995 0.75251 0.0
H964 H 0.36127 0.07196 0.84009 0.0
H965 H 0.34455 1.00006 0.87203 0.0
H966 H 0.3948 0.06056 0.77616 0.0
H967 H 0.37716 0.98856 0.80302 0.0
H968 H 0.45208 0.97404 0.74359 0.0
H969 H 0.41671 0.98487 0.80164 0.0
H970 H 0.41129 0.04606 0.68097 0.0
H971 H 0.44749 0.03561 0.62608 0.0
C972 C 0.36458 0.05364 0.8333 0.0
C973 C 0.35015 0.03702 0.86303 0.0
C974 C 0.38381 0.04704 0.79524 0.0
C975 C 0.38921 0.02352 0.7842 0.0
C976 C 0.37415 1.00686 0.81129 0.0
C977 C 0.35504 0.01349 0.85024 0.0
C978 C 0.44336 0.98992 0.73011 0.0
C979 C 0.453 1.00439 0.68207 0.0
C980 C 0.42282 0.99605 0.76279 0.0
C981 C 0.4108 0.01652 0.7469 0.0
C982 C 0.42011 0.03051 0.69646 0.0
C983 C 0.44095 0.02456 0.66474 0.0
H984 H 0.51655 0.32632 0.81423 0.0
H985 H 0.4459 0.34622 0.85378 0.0
H986 H 0.52325 0.36391 0.76153 0.0
H987 H 0.45256 0.38335 0.80138 0.0
H988 H 0.48296 0.4568 0.79161 0.0
H989 H 0.47677 0.41813 0.83369 0.0
H990 H 0.50999 0.38889 0.66092 0.0
H991 H 0.51545 0.42799 0.61684 0.0
C992 C 0.50243 0.33858 0.81124 0.0
C993 C 0.48065 0.3331 0.83803 0.0
C994 C 0.50622 0.36004 0.78071 0.0
C995 C 0.48846 0.37669 0.77746 0.0
C996 C 0.46667 0.37103 0.80339 0.0
C997 C 0.4628 0.34957 0.83291 0.0
C998 C 0.4884 0.44226 0.76132 0.0
C999 C 0.49905 0.44571 0.69962 0.0
C1000 C 0.48505 0.41998 0.78597 0.0
C1001 C 0.49265 0.40035 0.75045 0.0
C1002 C 0.50393 0.40366 0.68955 0.0
C1003 C 0.50698 0.42607 0.66424 0.0
H1004 H 0.19113 0.52709 0.86673 0.0
H1005 H 0.17233 0.45523 0.88784 0.0
H1006 H 0.15673 0.53328 0.79861 0.0
H1007 H 0.13803 0.46139 0.82105 0.0
H1008 H 0.08673 0.47233 0.65649 0.0
H1009 H 0.1234 0.46774 0.71449 0.0
H1010 H 0.11582 0.5363 0.79977 0.0
H1011 H 0.07936 0.54094 0.74042 0.0
C1012 C 0.17969 0.5126 0.85707 0.0
C1013 C 0.18485 0.49058 0.8826 0.0
C1014 C 0.15983 0.51616 0.81797 0.0
C1015 C 0.14439 0.49784 0.80342 0.0
C1016 C 0.14959 0.47588 0.82927 0.0
C1017 C 0.16943 0.47232 0.86795 0.0
C1018 C 0.093 0.48653 0.68713 0.0
C1019 C 0.07997 0.507 0.6937 0.0
C1020 C 0.11404 0.48384 0.72101 0.0
C1021 C 0.12274 0.50151 0.76299 0.0
C1022 C 0.11002 0.52233 0.76764 0.0
C1023 C 0.08901 0.52505 0.73339 0.0
H1024 H 0.96115 0.86127 0.35236 0.0
H1025 H 0.03225 0.84132 0.3832 0.0
H1026 H 0.96805 0.8975 0.4123 0.0
H1027 H 0.03911 0.87756 0.44341 0.0
H1028 H 0.05118 0.95477 0.48172 0.0
H1029 H 0.04311 0.91803 0.42577 0.0
H1030 H 0.97585 0.91608 0.51818 0.0
H1031 H 0.98407 0.95327 0.57374 0.0
C1032 C 0.97821 0.86434 0.37271 0.0
C1033 C 0.9961 0.84803 0.36243 0.0
C1034 C 0.98217 0.8853 0.4073 0.0
C1035 C 1.0042 0.89079 0.43286 0.0
C1036 C 0.022 0.87434 0.42354 0.0
C1037 C 0.01805 0.8534 0.38886 0.0
C1038 C 0.03457 0.9466 0.48966 0.0
C1039 C 0.01809 0.95726 0.53108 0.0
C1040 C 0.02999 0.92532 0.45801 0.0
C1041 C 0.00881 0.91375 0.46715 0.0
C1042 C 0.99226 0.92445 0.50892 0.0
C1043 C 0.9969 0.94585 0.54075 0.0
H1044 H 0.66225 0.95774 0.36901 0.0
H1045 H 0.68455 0.02848 0.39961 0.0
H1046 H 0.62684 0.96595 0.42965 0.0
H1047 H 0.64875 0.03674 0.45927 0.0
H1048 H 0.57015 0.04903 0.48566 0.0
H1049 H 0.60773 0.04075 0.43595 0.0
H1050 H 0.61016 0.97557 0.53841 0.0
H1051 H 0.5724 0.98411 0.58853 0.0
C1052 C 0.6599 0.97499 0.38946 0.0
C1053 C 0.67661 0.99239 0.37904 0.0
C1054 C 0.6394 0.97971 0.4243 0.0
C1055 C 0.63474 1.00204 0.44944 0.0
C1056 C 0.65151 0.0194 0.43987 0.0
C1057 C 0.67211 0.01465 0.40538 0.0
C1058 C 0.57873 0.03293 0.49757 0.0
C1059 C 0.56795 0.01688 0.53922 0.0
C1060 C 0.6004 0.02824 0.46947 0.0
C1061 C 0.6121 1.00742 0.4827 0.0
C1062 C 0.60159 0.99164 0.52622 0.0
C1063 C 0.57989 0.99644 0.55472 0.0
H1064 H 0.55098 0.70372 0.49361 0.0
H1065 H 0.51692 0.67674 0.31874 0.0
H1066 H 0.54424 0.66697 0.54961 0.0
H1067 H 0.50981 0.64033 0.37501 0.0
H1068 H 0.53079 0.57005 0.45875 0.0
H1069 H 0.53447 0.6081 0.40976 0.0
H1070 H 0.51418 0.64008 0.59498 0.0
H1071 H 0.51076 0.60163 0.64479 0.0
C1072 C 0.5418 0.69009 0.46734 0.0
C1073 C 0.53457 0.69329 0.40141 0.0
C1074 C 0.5378 0.66904 0.49966 0.0
C1075 C 0.52669 0.65053 0.4667 0.0
C1076 C 0.51872 0.65405 0.40169 0.0
C1077 C 0.52253 0.67511 0.36963 0.0
C1078 C 0.52737 0.58514 0.48956 0.0
C1079 C 0.52076 0.58269 0.55612 0.0
C1080 C 0.52917 0.60703 0.46104 0.0
C1081 C 0.52451 0.62725 0.49815 0.0
C1082 C 0.51803 0.6249 0.56499 0.0
C1083 C 0.51599 0.60287 0.59349 0.0
H1084 H 0.82599 0.55731 0.46457 0.0
H1085 H 0.85024 0.5079 0.31862 0.0
H1086 H 0.86031 0.55028 0.53161 0.0
H1087 H 0.88479 0.50114 0.3848 0.0
H1088 H 0.93938 0.48175 0.53494 0.0
H1089 H 0.902 0.4856 0.48028 0.0
H1090 H 0.90008 0.55803 0.53634 0.0
H1091 H 0.93684 0.55376 0.59366 0.0
C1092 C 0.83863 0.54491 0.44669 0.0
C1093 C 0.8352 0.53324 0.3858 0.0
C1094 C 0.85848 0.54093 0.48515 0.0
C1095 C 0.87571 0.52524 0.46391 0.0
C1096 C 0.87194 0.5131 0.40381 0.0
C1097 C 0.852 0.51699 0.36555 0.0
C1098 C 0.93083 0.4984 0.53661 0.0
C1099 C 0.94144 0.5175 0.56811 0.0
C1100 C 0.9094 0.50072 0.50436 0.0
C1101 C 0.89784 0.52223 0.50263 0.0
C1102 C 0.90811 0.5411 0.53654 0.0
C1103 C 0.92946 0.53872 0.56899 0.0
loop_
_geom_bond_atom_site_label_1
_geom_bond_atom_site_label_2
_geom_bond_distance
_geom_bond_site_symmetry_2
_ccdc_geom_bond_type
C0 C1 1.384 . S
C0 H13 0.947 . S
C0 C35 1.382 . S
C1 C0 1.384 . S
C1 C2 1.378 . S
C2 C1 1.378 . S
C2 C3 1.378 . S
C2 H14 0.952 . S
C3 C2 1.378 . S
C3 H15 0.950 . S
C3 C34 1.383 . S
H4 C23 0.947 . S
H5 C24 0.946 . S
H6 C26 0.953 . S
H7 C27 0.945 . S
H8 C29 0.952 . S
H9 C30 0.949 . S
H10 C32 0.950 . S
H11 C33 0.948 . S
H12 C35 0.951 . S
H13 C0 0.947 . S
H14 C2 0.952 . S
H15 C3 0.950 . S
N16 C19 1.382 . S
N16 C21 1.363 . S
N17 C19 1.371 . S
N17 C20 1.372 . S
N18 C20 1.361 . S
N18 C21 1.377 . S
C19 N16 1.382 . S
C19 N17 1.371 . S
C19 C22 1.480 . S
C20 N17 1.372 . S
C20 N18 1.361 . S
C20 C28 1.457 . S
C21 N16 1.363 . S
C21 N18 1.377 . S
C21 C34 1.479 . S
C22 C19 1.480 . S
C22 C23 1.383 . S
C22 C27 1.385 . S
C23 H4 0.947 . S
C23 C22 1.383 . S
C23 C24 1.388 . S
C24 H5 0.946 . S
C24 C23 1.388 . S
C24 C25 1.384 . S
C25 C24 1.384 . S
C25 C26 1.377 . S
C26 H6 0.953 . S
C26 C25 1.377 . S
C26 C27 1.369 . S
C27 H7 0.945 . S
C27 C22 1.385 . S
C27 C26 1.369 . S
C28 C20 1.457 . S
C28 C29 1.372 . S
C28 C33 1.364 . S
C29 H8 0.952 . S
C29 C28 1.372 . S
C29 C30 1.389 1_554 S
C30 H9 0.949 . S
C30 C29 1.389 1_556 S
C30 C31 1.387 1_556 S
C31 C30 1.387 1_554 S
C31 C32 1.372 . S
C32 H10 0.950 . S
C32 C31 1.372 . S
C32 C33 1.379 . S
C33 H11 0.948 . S
C33 C28 1.364 . S
C33 C32 1.379 . S
C34 C3 1.383 . S
C34 C21 1.479 . S
C34 C35 1.398 . S
C35 C0 1.382 . S
C35 H12 0.951 . S
C35 C34 1.398 . S
C36 C37 1.384 . S
C36 H49 0.947 . S
C36 C71 1.382 . S
C37 C36 1.384 . S
C37 C38 1.378 . S
C38 C37 1.378 . S
C38 C39 1.378 . S
C38 H50 0.952 . S
C39 C38 1.378 . S
C39 H51 0.950 . S
C39 C70 1.383 . S
H40 C59 0.947 . S
H41 C60 0.946 . S
H42 C62 0.953 . S
H43 C63 0.945 . S
H44 C65 0.952 . S
H45 C66 0.942 1_556 S
H46 C68 0.950 . S
H47 C69 0.948 . S
H48 C71 0.951 . S
H49 C36 0.947 . S
H50 C38 0.952 . S
H51 C39 0.950 . S
N52 C55 1.382 . S
N52 C57 1.363 . S
N53 C55 1.371 . S
N53 C56 1.372 . S
N54 C56 1.361 . S
N54 C57 1.377 . S
C55 N52 1.382 . S
C55 N53 1.371 . S
C55 C58 1.480 . S
C56 N53 1.372 . S
C56 N54 1.361 . S
C56 C64 1.457 . S
C57 N52 1.363 . S
C57 N54 1.377 . S
C57 C70 1.479 . S
C58 C55 1.480 . S
C58 C59 1.383 . S
C58 C63 1.385 . S
C59 H40 0.947 . S
C59 C58 1.383 . S
C59 C60 1.388 . S
C60 H41 0.946 . S
C60 C59 1.388 . S
C60 C61 1.384 . S
C61 C60 1.384 . S
C61 C62 1.377 . S
C62 H42 0.953 . S
C62 C61 1.377 . S
C62 C63 1.369 . S
C63 H43 0.945 . S
C63 C58 1.385 . S
C63 C62 1.369 . S
C64 C56 1.457 . S
C64 C65 1.372 . S
C64 C69 1.364 . S
C65 H44 0.952 . S
C65 C64 1.372 . S
C65 C66 1.394 . S
C66 H45 0.942 1_554 S
C66 C65 1.394 . S
C66 C67 1.388 . S
C67 C66 1.388 . S
C67 C68 1.372 . S
C68 H46 0.950 . S
C68 C67 1.372 . S
C68 C69 1.379 . S
C69 H47 0.948 . S
C69 C64 1.364 . S
C69 C68 1.379 . S
C70 C39 1.383 . S
C70 C57 1.479 . S
C70 C71 1.398 . S
C71 C36 1.382 . S
C71 H48 0.951 . S
C71 C70 1.398 . S
C72 C73 1.384 . S
C72 H85 0.947 . S
C72 C107 1.382 . S
C73 C72 1.384 . S
C73 C74 1.378 . S
C74 C73 1.378 . S
C74 C75 1.378 . S
C74 H86 0.952 . S
C75 C74 1.378 . S
C75 H87 0.950 . S
C75 C106 1.383 . S
H76 C95 0.947 . S
H77 C96 0.946 . S
H78 C98 0.953 . S
H79 C99 0.945 . S
H80 C101 0.952 . S
H81 C102 0.949 1_556 S
H82 C104 0.950 . S
H83 C105 0.948 . S
H84 C107 0.951 . S
H85 C72 0.947 . S
H86 C74 0.952 . S
H87 C75 0.950 . S
N88 C91 1.382 . S
N88 C93 1.363 . S
N89 C91 1.371 . S
N89 C92 1.372 . S
N90 C92 1.361 . S
N90 C93 1.377 . S
C91 N88 1.382 . S
C91 N89 1.371 . S
C91 C94 1.480 . S
C92 N89 1.372 . S
C92 N90 1.361 . S
C92 C100 1.457 . S
C93 N88 1.363 . S
C93 N90 1.377 . S
C93 C106 1.479 . S
C94 C91 1.480 . S
C94 C95 1.383 . S
C94 C99 1.385 . S
C95 H76 0.947 . S
C95 C94 1.383 . S
C95 C96 1.388 . S
C96 H77 0.946 . S
C96 C95 1.388 . S
C96 C97 1.384 . S
C97 C96 1.384 . S
C97 C98 1.377 . S
C98 H78 0.953 . S
C98 C97 1.377 . S
C98 C99 1.369 . S
C99 H79 0.945 . S
C99 C94 1.385 . S
C99 C98 1.369 . S
C100 C92 1.457 . S
C100 C101 1.372 . S
C100 C105 1.364 . S
C101 H80 0.952 . S
C101 C100 1.372 . S
C101 C102 1.389 . S
C102 H81 0.949 1_554 S
C102 C101 1.389 . S
C102 C103 1.387 . S
C103 C102 1.387 . S
C103 C104 1.372 . S
C104 H82 0.950 . S
C104 C103 1.372 . S
C104 C105 1.379 . S
C105 H83 0.948 . S
C105 C100 1.364 . S
C105 C104 1.379 . S
C106 C75 1.383 . S
C106 C93 1.479 . S
C106 C107 1.398 . S
C107 C72 1.382 . S
C107 H84 0.951 . S
C107 C106 1.398 . S
C108 C109 1.384 . S
C108 H121 0.947 . S
C108 C143 1.382 . S
C109 C108 1.384 . S
C109 C110 1.378 1_554 S
C110 C109 1.378 1_556 S
C110 C111 1.378 1_556 S
C110 H122 0.952 . S
C111 C110 1.378 1_554 S
C111 H123 0.950 . S
C111 C142 1.383 . S
H112 C131 0.947 . S
H113 C132 0.946 . S
H114 C134 0.953 . S
H115 C135 0.945 . S
H116 C137 0.952 . S
H117 C138 0.949 . S
H118 C140 0.950 . S
H119 C141 0.948 . S
H120 C143 0.951 . S
H121 C108 0.947 . S
H122 C110 0.952 . S
H123 C111 0.950 . S
N124 C127 1.382 . S
N124 C129 1.363 . S
N125 C127 1.371 . S
N125 C128 1.372 . S
N126 C128 1.361 . S
N126 C129 1.377 . S
C127 N124 1.382 . S
C127 N125 1.371 . S
C127 C130 1.480 . S
C128 N125 1.372 . S
C128 N126 1.361 . S
C128 C136 1.457 . S
C129 N124 1.363 . S
C129 N126 1.377 . S
C129 C142 1.479 . S
C130 C127 1.480 . S
C130 C131 1.383 . S
C130 C135 1.385 . S
C131 H112 0.947 . S
C131 C130 1.383 . S
C131 C132 1.388 . S
C132 H113 0.946 . S
C132 C131 1.388 . S
C132 C133 1.384 . S
C133 C132 1.384 . S
C133 C134 1.377 . S
C134 H114 0.953 . S
C134 C133 1.377 . S
C134 C135 1.369 . S
C135 H115 0.945 . S
C135 C130 1.385 . S
C135 C134 1.369 . S
C136 C128 1.457 . S
C136 C137 1.372 . S
C136 C141 1.364 . S
C137 H116 0.952 . S
C137 C136 1.372 . S
C137 C138 1.389 . S
C138 H117 0.949 . S
C138 C137 1.389 . S
C138 C139 1.387 . S
C139 C138 1.387 . S
C139 C140 1.372 . S
C140 H118 0.950 . S
C140 C139 1.372 . S
C140 C141 1.379 . S
C141 H119 0.948 . S
C141 C136 1.364 . S
C141 C140 1.379 . S
C142 C111 1.383 . S
C142 C129 1.479 . S
C142 C143 1.398 . S
C143 C108 1.382 . S
C143 H120 0.951 . S
C143 C142 1.398 . S
C144 C145 1.384 . S
C144 H157 0.947 . S
C144 C179 1.382 . S
C145 C144 1.384 . S
C145 C146 1.378 . S
C146 C145 1.378 . S
C146 C147 1.378 . S
C146 H158 0.952 . S
C147 C146 1.378 . S
C147 H159 0.950 . S
C147 C178 1.383 . S
H148 C167 0.947 1_556 S
H149 C168 0.946 1_556 S
H150 C170 0.953 . S
H151 C171 0.945 . S
H152 C173 0.952 . S
H153 C174 0.949 . S
H154 C176 0.950 . S
H155 C177 0.948 . S
H156 C179 0.951 . S
H157 C144 0.947 . S
H158 C146 0.952 . S
H159 C147 0.950 . S
N160 C163 1.382 1_556 S
N160 C165 1.363 . S
N161 C163 1.371 . S
N161 C164 1.372 . S
N162 C164 1.361 . S
N162 C165 1.377 1_554 S
C163 N160 1.382 1_554 S
C163 N161 1.371 . S
C163 C166 1.480 . S
C164 N161 1.372 . S
C164 N162 1.361 . S
C164 C172 1.457 . S
C165 N160 1.363 . S
C165 N162 1.377 1_556 S
C165 C178 1.479 . S
C166 C163 1.480 . S
C166 C167 1.383 . S
C166 C171 1.385 . S
C167 H148 0.947 1_554 S
C167 C166 1.383 . S
C167 C168 1.388 . S
C168 H149 0.946 1_554 S
C168 C167 1.388 . S
C168 C169 1.384 . S
C169 C168 1.384 . S
C169 C170 1.377 . S
C170 H150 0.953 . S
C170 C169 1.377 . S
C170 C171 1.369 . S
C171 H151 0.945 . S
C171 C166 1.385 . S
C171 C170 1.369 . S
C172 C164 1.457 . S
C172 C173 1.372 . S
C172 C177 1.364 . S
C173 H152 0.952 . S
C173 C172 1.372 . S
C173 C174 1.389 . S
C174 H153 0.949 . S
C174 C173 1.389 . S
C174 C175 1.387 . S
C175 C174 1.387 . S
C175 C176 1.372 . S
C176 H154 0.950 . S
C176 C175 1.372 . S
C176 C177 1.379 . S
C177 H155 0.948 . S
C177 C172 1.364 . S
C177 C176 1.379 . S
C178 C147 1.383 . S
C178 C165 1.479 . S
C178 C179 1.398 . S
C179 C144 1.382 . S
C179 H156 0.951 . S
C179 C178 1.398 . S
C180 C181 1.384 . S
C180 H193 0.947 . S
C180 C215 1.382 . S
C181 C180 1.384 . S
C181 C182 1.378 . S
C182 C181 1.378 . S
C182 C183 1.378 . S
C182 H194 0.952 . S
C183 C182 1.378 . S
C183 H195 0.950 . S
C183 C214 1.383 . S
H184 C203 0.947 1_556 S
H185 C204 0.946 1_556 S
H186 C206 0.953 . S
H187 C207 0.945 . S
H188 C209 0.952 . S
H189 C210 0.949 . S
H190 C212 0.950 . S
H191 C213 0.948 . S
H192 C215 0.951 . S
H193 C180 0.947 . S
H194 C182 0.952 . S
H195 C183 0.950 . S
N196 C199 1.382 1_556 S
N196 C201 1.363 . S
N197 C199 1.371 . S
N197 C200 1.372 . S
N198 C200 1.361 . S
N198 C201 1.377 1_554 S
C199 N196 1.382 1_554 S
C199 N197 1.371 . S
C199 C202 1.480 . S
C200 N197 1.372 . S
C200 N198 1.361 . S
C200 C208 1.457 . S
C201 N196 1.363 . S
C201 N198 1.377 1_556 S
C201 C214 1.479 . S
C202 C199 1.480 . S
C202 C203 1.383 . S
C202 C207 1.385 . S
C203 H184 0.947 1_554 S
C203 C202 1.383 . S
C203 C204 1.388 . S
C204 H185 0.946 1_554 S
C204 C203 1.388 . S
C204 C205 1.384 . S
C205 C204 1.384 . S
C205 C206 1.377 . S
C206 H186 0.953 . S
C206 C205 1.377 . S
C206 C207 1.369 . S
C207 H187 0.945 . S
C207 C202 1.385 . S
C207 C206 1.369 . S
C208 C200 1.457 . S
C208 C209 1.372 . S
C208 C213 1.364 . S
C209 H188 0.952 . S
C209 C208 1.372 . S
C209 C210 1.389 . S
C210 H189 0.949 . S
C210 C209 1.389 . S
C210 C211 1.387 . S
C211 C210 1.387 . S
C211 C212 1.372 . S
C212 H190 0.950 . S
C212 C211 1.372 . S
C212 C213 1.379 . S
C213 H191 0.948 . S
C213 C208 1.364 . S
C213 C212 1.379 . S
C214 C183 1.383 . S
C214 C201 1.479 . S
C214 C215 1.398 . S
C215 C180 1.382 . S
C215 H192 0.951 . S
C215 C214 1.398 . S
C216 C217 1.384 . S
C216 H229 0.947 . S
C216 C251 1.382 . S
C217 C216 1.384 . S
C217 C218 1.378 . S
C218 C217 1.378 . S
C218 C219 1.378 . S
C218 H230 0.952 . S
C219 C218 1.378 . S
C219 H231 0.950 . S
C219 C250 1.383 . S
H220 C239 0.933 1_556 S
H221 C240 0.946 1_556 S
H222 C242 0.953 . S
H223 C243 0.945 . S
H224 C245 0.952 . S
H225 C246 0.949 . S
H226 C248 0.950 . S
H227 C249 0.948 . S
H228 C251 0.951 . S
H229 C216 0.947 . S
H230 C218 0.952 . S
H231 C219 0.950 . S
N232 C235 1.382 1_556 S
N232 C237 1.363 . S
N233 C235 1.371 . S
N233 C236 1.372 . S
N234 C236 1.361 . S
N234 C237 1.377 1_554 S
C235 N232 1.382 1_554 S
C235 N233 1.371 . S
C235 C238 1.480 . S
C236 N233 1.372 . S
C236 N234 1.361 . S
C236 C244 1.457 . S
C237 N232 1.363 . S
C237 N234 1.377 1_556 S
C237 C250 1.479 . S
C238 C235 1.480 . S
C238 C239 1.394 . S
C238 C243 1.385 . S
C239 H220 0.933 1_554 S
C239 C238 1.394 . S
C239 C240 1.392 . S
C240 H221 0.946 1_554 S
C240 C239 1.392 . S
C240 C241 1.384 . S
C241 C240 1.384 . S
C241 C242 1.377 . S
C242 H222 0.953 . S
C242 C241 1.377 . S
C242 C243 1.369 . S
C243 H223 0.945 . S
C243 C238 1.385 . S
C243 C242 1.369 . S
C244 C236 1.457 . S
C244 C245 1.372 . S
C244 C249 1.364 . S
C245 H224 0.952 . S
C245 C244 1.372 . S
C245 C246 1.389 . S
C246 H225 0.949 . S
C246 C245 1.389 . S
C246 C247 1.387 . S
C247 C246 1.387 . S
C247 C248 1.372 . S
C248 H226 0.950 . S
C248 C247 1.372 . S
C248 C249 1.379 . S
C249 H227 0.948 . S
C249 C244 1.364 . S
C249 C248 1.379 . S
C250 C219 1.383 . S
C250 C237 1.479 . S
C250 C251 1.398 . S
C251 C216 1.382 . S
C251 H228 0.951 . S
C251 C250 1.398 . S
C252 C253 1.384 . S
C252 H265 0.947 . S
C252 C287 1.382 . S
C253 C252 1.384 . S
C253 C254 1.378 . S
C254 C253 1.378 . S
C254 C255 1.378 . S
C254 H266 0.952 . S
C255 C254 1.378 . S
C255 H267 0.950 . S
C255 C286 1.383 . S
H256 C275 0.947 . S
H257 C276 0.946 . S
H258 C278 0.953 1_556 S
H259 C279 0.945 1_556 S
H260 C281 0.952 . S
H261 C282 0.949 . S
H262 C284 0.950 . S
H263 C285 0.948 . S
H264 C287 0.951 . S
H265 C252 0.947 . S
H266 C254 0.952 . S
H267 C255 0.950 . S
N268 C271 1.382 . S
N268 C273 1.363 . S
N269 C271 1.371 1_556 S
N269 C272 1.372 . S
N270 C272 1.361 1_554 S
N270 C273 1.377 . S
C271 N268 1.382 . S
C271 N269 1.371 1_554 S
C271 C274 1.480 . S
C272 N269 1.372 . S
C272 N270 1.361 1_556 S
C272 C280 1.457 . S
C273 N268 1.363 . S
C273 N270 1.377 . S
C273 C286 1.479 . S
C274 C271 1.480 . S
C274 C275 1.383 . S
C274 C279 1.385 . S
C275 H256 0.947 . S
C275 C274 1.383 . S
C275 C276 1.388 . S
C276 H257 0.946 . S
C276 C275 1.388 . S
C276 C277 1.384 . S
C277 C276 1.384 . S
C277 C278 1.377 . S
C278 H258 0.953 1_554 S
C278 C277 1.377 . S
C278 C279 1.369 . S
C279 H259 0.945 1_554 S
C279 C274 1.385 . S
C279 C278 1.369 . S
C280 C272 1.457 . S
C280 C281 1.372 . S
C280 C285 1.364 . S
C281 H260 0.952 . S
C281 C280 1.372 . S
C281 C282 1.389 . S
C282 H261 0.949 . S
C282 C281 1.389 . S
C282 C283 1.387 . S
C283 C282 1.387 . S
C283 C284 1.372 . S
C284 H262 0.950 . S
C284 C283 1.372 . S
C284 C285 1.379 . S
C285 H263 0.948 . S
C285 C280 1.364 . S
C285 C284 1.379 . S
C286 C255 1.383 . S
C286 C273 1.479 . S
C286 C287 1.398 . S
C287 C252 1.382 . S
C287 H264 0.951 . S
C287 C286 1.398 . S
Eu288 N319 2.657 1_565 S
Eu288 N326 2.609 . S
Eu288 O332 2.558 . S
Eu288 O333 2.612 1_455 S
Eu288 O335 2.339 1_455 S
Eu288 O336 2.563 . S
Eu288 O337 2.419 . S
Eu288 O339 2.380 1_565 S
Eu288 O340 2.432 . S
Eu288 C352 2.848 . S
C289 C292 1.429 1_545 S
C289 C293 1.411 . S
C289 N296 1.377 . S
C290 C292 1.420 . S
C290 C294 1.423 . S
C290 C302 1.392 . S
C291 C293 1.420 1_565 S
C291 C294 1.351 . S
C291 H314 0.931 . S
C292 C289 1.429 1_565 S
C292 C290 1.420 . S
C292 N300 1.362 . S
C293 C289 1.411 . S
C293 C291 1.420 1_545 S
C293 C298 1.395 . S
C294 C290 1.423 . S
C294 C291 1.351 . S
C294 H306 0.930 . S
C295 C297 1.400 . S
C295 C298 1.386 . S
C295 H307 0.930 . S
N296 C289 1.377 . S
N296 C297 1.321 . S
N296 Eu299 2.609 . S
C297 C295 1.400 . S
C297 N296 1.321 . S
C297 H304 0.930 . S
C298 C293 1.395 . S
C298 C295 1.386 . S
C298 H317 0.930 . S
Eu299 N296 2.609 . S
Eu299 N300 2.657 1_545 S
Eu299 O333 2.380 1_545 S
Eu299 O334 2.432 . S
Eu299 O338 2.558 . S
Eu299 O339 2.612 1_655 S
Eu299 O341 2.339 1_655 S
Eu299 O342 2.563 1_655 S
Eu299 O343 2.419 . S
Eu299 C363 2.848 . S
N300 C292 1.362 . S
N300 Eu299 2.657 1_565 S
N300 C301 1.334 1_655 S
C301 N300 1.334 1_455 S
C301 C303 1.414 1_455 S
C301 H308 0.929 . S
C302 C290 1.392 . S
C302 C303 1.367 . S
C302 H310 0.930 . S
C303 C301 1.414 1_655 S
C303 C302 1.367 . S
C303 H305 0.931 1_655 S
H304 C297 0.930 . S
H305 C303 0.931 1_455 S
H306 C294 0.930 . S
H307 C295 0.930 . S
H308 C301 0.929 . S
H309 C323 0.930 1_655 S
H310 C302 0.930 . S
H311 C329 0.930 . S
H312 C320 0.929 1_655 S
H313 C327 0.930 . S
H314 C291 0.931 . S
H315 C321 0.930 . S
H316 C354 0.930 . S
H317 C298 0.930 . S
H318 C353 0.931 . S
N319 Eu288 2.657 1_545 S
N319 C320 1.334 . S
N319 C324 1.362 . S
C320 H312 0.929 1_455 S
C320 N319 1.334 . S
C320 C323 1.413 . S
C321 H315 0.930 . S
C321 C322 1.392 . S
C321 C323 1.367 . S
C322 C321 1.392 . S
C322 C324 1.420 . S
C322 C354 1.423 . S
C323 H309 0.930 1_455 S
C323 C320 1.413 . S
C323 C321 1.367 . S
C324 N319 1.362 . S
C324 C322 1.420 . S
C324 C328 1.429 . S
H325 C330 0.928 . S
N326 Eu288 2.609 . S
N326 C328 1.377 1_565 S
N326 C329 1.321 . S
C327 H313 0.930 . S
C327 C329 1.400 . S
C327 C330 1.410 . S
C328 C324 1.429 . S
C328 N326 1.377 1_545 S
C328 C331 1.411 . S
C329 H311 0.930 . S
C329 N326 1.321 . S
C329 C327 1.400 . S
C330 H325 0.928 . S
C330 C327 1.410 . S
C330 C331 1.375 1_565 S
C331 C328 1.411 . S
C331 C330 1.375 1_545 S
C331 C353 1.420 . S
O332 Eu288 2.558 . S
O332 C352 1.257 . S
O333 Eu288 2.612 1_655 S
O333 Eu299 2.380 1_565 S
O333 C344 1.276 . S
O334 Eu299 2.432 . S
O334 C351 1.264 . S
O335 Eu288 2.339 1_655 S
O335 C351 1.254 1_565 S
O336 Eu288 2.563 . S
O336 C344 1.235 1_455 S
O337 Eu288 2.419 . S
O337 C352 1.249 . S
O338 Eu299 2.558 . S
O338 C363 1.257 . S
O339 Eu288 2.380 1_545 S
O339 Eu299 2.612 1_455 S
O339 C355 1.276 . S
O340 Eu288 2.432 . S
O340 C362 1.264 1_565 S
O341 Eu299 2.339 1_455 S
O341 C362 1.254 . S
O342 Eu299 2.563 1_455 S
O342 C355 1.235 . S
O343 Eu299 2.419 . S
O343 C363 1.249 . S
C344 O333 1.276 . S
C344 O336 1.235 1_655 S
C345 C347 1.393 . S
C345 C349 1.395 . S
C345 C352 1.492 . S
C346 C347 1.392 . S
C346 C348 1.386 . S
C347 C345 1.393 . S
C347 C346 1.392 . S
C347 H364 0.925 1_455 S
C348 C346 1.386 . S
C348 C350 1.395 . S
C348 H365 0.930 . S
C349 C345 1.395 . S
C349 C350 1.379 . S
C349 H366 0.930 . S
C350 C348 1.395 . S
C350 C349 1.379 . S
C350 H367 0.930 . S
C351 O334 1.264 . S
C351 O335 1.254 1_545 S
C352 Eu288 2.848 . S
C352 O332 1.257 . S
C352 O337 1.249 . S
C352 C345 1.492 . S
C353 H318 0.931 . S
C353 C331 1.420 . S
C353 C354 1.351 . S
C354 H316 0.930 . S
C354 C322 1.423 . S
C354 C353 1.351 . S
C355 O339 1.276 . S
C355 O342 1.235 . S
C356 C357 1.393 . S
C356 C360 1.395 . S
C356 C363 1.492 . S
C357 C356 1.393 . S
C357 C358 1.392 . S
C357 H368 0.930 1_655 S
C358 C357 1.392 . S
C358 C359 1.386 . S
C359 C358 1.386 . S
C359 C361 1.395 . S
C359 H369 0.930 . S
C360 C356 1.395 . S
C360 C361 1.379 . S
C360 H370 0.930 . S
C361 C359 1.395 . S
C361 C360 1.379 . S
C361 H371 0.930 . S
C362 O340 1.264 1_545 S
C362 O341 1.254 . S
C363 Eu299 2.848 . S
C363 O338 1.257 . S
C363 O343 1.249 . S
C363 C356 1.492 . S
H364 C347 0.925 1_655 S
H365 C348 0.930 . S
H366 C349 0.930 . S
H367 C350 0.930 . S
H368 C357 0.930 1_455 S
H369 C359 0.930 . S
H370 C360 0.930 . S
H371 C361 0.930 . S
Eu372 N403 2.657 . S
Eu372 N410 2.609 . S
Eu372 O416 2.558 . S
Eu372 O417 2.612 1_545 S
Eu372 O419 2.339 1_545 S
Eu372 O420 2.563 . S
Eu372 O421 2.419 . S
Eu372 O423 2.380 . S
Eu372 O424 2.432 . S
Eu372 C436 2.848 . S
C373 C376 1.429 . S
C373 C377 1.411 . S
C373 N380 1.377 . S
C374 C376 1.420 . S
C374 C378 1.423 . S
C374 C386 1.392 . S
C375 C377 1.420 . S
C375 C378 1.351 . S
C375 H398 0.931 . S
C376 C373 1.429 . S
C376 C374 1.420 . S
C376 N384 1.362 . S
C377 C373 1.411 . S
C377 C375 1.420 . S
C377 C382 1.395 . S
C378 C374 1.423 . S
C378 C375 1.351 . S
C378 H390 0.930 . S
C379 C381 1.400 . S
C379 C382 1.386 . S
C379 H391 0.930 . S
N380 C373 1.377 . S
N380 C381 1.321 . S
N380 Eu383 2.609 . S
C381 C379 1.400 . S
C381 N380 1.321 . S
C381 H388 0.930 . S
C382 C377 1.395 . S
C382 C379 1.386 . S
C382 H401 0.930 . S
Eu383 N380 2.609 . S
Eu383 N384 2.657 . S
Eu383 O417 2.380 . S
Eu383 O418 2.432 . S
Eu383 O422 2.558 . S
Eu383 O423 2.612 1_565 S
Eu383 O425 2.339 1_565 S
Eu383 O426 2.563 1_565 S
Eu383 O427 2.419 . S
Eu383 C447 2.848 . S
N384 C376 1.362 . S
N384 Eu383 2.657 . S
N384 C385 1.334 1_565 S
C385 N384 1.334 1_545 S
C385 C387 1.413 . S
C385 H392 0.929 . S
C386 C374 1.392 . S
C386 C387 1.367 1_565 S
C386 H394 0.930 . S
C387 C385 1.413 . S
C387 C386 1.367 1_545 S
C387 H389 0.930 . S
H388 C381 0.930 . S
H389 C387 0.930 . S
H390 C378 0.930 . S
H391 C379 0.930 . S
H392 C385 0.929 . S
H393 C407 0.930 1_565 S
H394 C386 0.930 . S
H395 C413 0.930 . S
H396 C404 0.929 1_565 S
H397 C411 0.930 . S
H398 C375 0.931 . S
H399 C405 0.930 . S
H400 C438 0.930 . S
H401 C382 0.930 . S
H402 C437 0.931 . S
N403 Eu372 2.657 . S
N403 C404 1.334 . S
N403 C408 1.362 . S
C404 H396 0.929 1_545 S
C404 N403 1.334 . S
C404 C407 1.413 . S
C405 H399 0.930 . S
C405 C406 1.392 . S
C405 C407 1.367 . S
C406 C405 1.392 . S
C406 C408 1.420 . S
C406 C438 1.423 . S
C407 H393 0.930 1_545 S
C407 C404 1.413 . S
C407 C405 1.367 . S
C408 N403 1.362 . S
C408 C406 1.420 . S
C408 C412 1.429 . S
H409 C414 0.930 . S
N410 Eu372 2.609 . S
N410 C412 1.377 . S
N410 C413 1.321 . S
C411 H397 0.930 . S
C411 C413 1.400 . S
C411 C414 1.386 . S
C412 C408 1.429 . S
C412 N410 1.377 . S
C412 C415 1.411 . S
C413 H395 0.930 . S
C413 N410 1.321 . S
C413 C411 1.400 . S
C414 H409 0.930 . S
C414 C411 1.386 . S
C414 C415 1.395 . S
C415 C412 1.411 . S
C415 C414 1.395 . S
C415 C437 1.420 . S
O416 Eu372 2.558 . S
O416 C436 1.257 . S
O417 Eu372 2.612 1_565 S
O417 Eu383 2.380 . S
O417 C428 1.276 . S
O418 Eu383 2.432 . S
O418 C435 1.264 . S
O419 Eu372 2.339 1_565 S
O419 C435 1.254 . S
O420 Eu372 2.563 . S
O420 C428 1.235 1_545 S
O421 Eu372 2.419 . S
O421 C436 1.249 . S
O422 Eu383 2.558 . S
O422 C447 1.257 . S
O423 Eu372 2.380 . S
O423 Eu383 2.612 1_545 S
O423 C439 1.276 . S
O424 Eu372 2.432 . S
O424 C446 1.264 . S
O425 Eu383 2.339 1_545 S
O425 C446 1.254 . S
O426 Eu383 2.563 1_545 S
O426 C439 1.235 . S
O427 Eu383 2.419 . S
O427 C447 1.249 . S
C428 O417 1.276 . S
C428 O420 1.235 1_565 S
C429 C431 1.393 . S
C429 C433 1.395 . S
C429 C436 1.492 . S
C430 C431 1.392 . S
C430 C432 1.386 . S
C431 C429 1.393 . S
C431 C430 1.392 . S
C431 H448 0.930 . S
C432 C430 1.386 . S
C432 C434 1.395 . S
C432 H449 0.930 . S
C433 C429 1.395 . S
C433 C434 1.379 . S
C433 H450 0.930 . S
C434 C432 1.395 . S
C434 C433 1.379 . S
C434 H451 0.930 . S
C435 O418 1.264 . S
C435 O419 1.254 . S
C436 Eu372 2.848 . S
C436 O416 1.257 . S
C436 O421 1.249 . S
C436 C429 1.492 . S
C437 H402 0.931 . S
C437 C415 1.420 . S
C437 C438 1.351 . S
C438 H400 0.930 . S
C438 C406 1.423 . S
C438 C437 1.351 . S
C439 O423 1.276 . S
C439 O426 1.235 . S
C440 C441 1.393 . S
C440 C444 1.395 . S
C440 C447 1.492 . S
C441 C440 1.393 . S
C441 C442 1.392 . S
C441 H452 0.930 1_565 S
C442 C441 1.392 . S
C442 C443 1.386 . S
C443 C442 1.386 . S
C443 C445 1.395 . S
C443 H453 0.930 . S
C444 C440 1.395 . S
C444 C445 1.379 . S
C444 H454 0.930 . S
C445 C443 1.395 . S
C445 C444 1.379 . S
C445 H455 0.930 . S
C446 O424 1.264 . S
C446 O425 1.254 . S
C447 Eu383 2.848 . S
C447 O422 1.257 . S
C447 O427 1.249 . S
C447 C440 1.492 . S
H448 C431 0.930 . S
H449 C432 0.930 . S
H450 C433 0.930 . S
H451 C434 0.930 . S
H452 C441 0.930 1_545 S
H453 C443 0.930 . S
H454 C444 0.930 . S
H455 C445 0.930 . S
Eu456 N487 2.657 . S
Eu456 N494 2.609 . S
Eu456 O500 2.558 . S
Eu456 O501 2.612 . S
Eu456 O503 2.339 . S
Eu456 O504 2.563 . S
Eu456 O505 2.419 . S
Eu456 O507 2.380 . S
Eu456 O508 2.432 . S
Eu456 C520 2.848 . S
C457 C460 1.429 . S
C457 C461 1.411 . S
C457 N464 1.377 . S
C458 C460 1.420 . S
C458 C462 1.423 . S
C458 C470 1.392 . S
C459 C461 1.420 . S
C459 C462 1.351 . S
C459 H482 0.931 . S
C460 C457 1.429 . S
C460 C458 1.420 . S
C460 N468 1.362 . S
C461 C457 1.411 . S
C461 C459 1.420 . S
C461 C466 1.395 . S
C462 C458 1.423 . S
C462 C459 1.351 . S
C462 H474 0.930 . S
C463 C465 1.400 . S
C463 C466 1.386 . S
C463 H475 0.930 . S
N464 C457 1.377 . S
N464 C465 1.321 . S
N464 Eu467 2.609 . S
C465 C463 1.400 . S
C465 N464 1.321 . S
C465 H472 0.930 . S
C466 C461 1.395 . S
C466 C463 1.386 . S
C466 H485 0.930 . S
Eu467 N464 2.609 . S
Eu467 N468 2.657 . S
Eu467 O501 2.380 . S
Eu467 O502 2.432 . S
Eu467 O506 2.558 . S
Eu467 O507 2.612 . S
Eu467 O509 2.339 . S
Eu467 O510 2.563 . S
Eu467 O511 2.419 . S
Eu467 C531 2.848 . S
N468 C460 1.362 . S
N468 Eu467 2.657 . S
N468 C469 1.334 . S
C469 N468 1.334 . S
C469 C471 1.413 . S
C469 H476 0.929 . S
C470 C458 1.392 . S
C470 C471 1.367 . S
C470 H478 0.930 . S
C471 C469 1.413 . S
C471 C470 1.367 . S
C471 H473 0.930 . S
H472 C465 0.930 . S
H473 C471 0.930 . S
H474 C462 0.930 . S
H475 C463 0.930 . S
H476 C469 0.929 . S
H477 C491 0.930 . S
H478 C470 0.930 . S
H479 C497 0.930 . S
H480 C488 0.929 . S
H481 C495 0.930 . S
H482 C459 0.931 . S
H483 C489 0.930 . S
H484 C522 0.930 . S
H485 C466 0.930 . S
H486 C521 0.931 . S
N487 Eu456 2.657 . S
N487 C488 1.334 . S
N487 C492 1.362 . S
C488 H480 0.929 . S
C488 N487 1.334 . S
C488 C491 1.413 . S
C489 H483 0.930 . S
C489 C490 1.392 . S
C489 C491 1.367 . S
C490 C489 1.392 . S
C490 C492 1.420 . S
C490 C522 1.423 . S
C491 H477 0.930 . S
C491 C488 1.413 . S
C491 C489 1.367 . S
C492 N487 1.362 . S
C492 C490 1.420 . S
C492 C496 1.429 . S
H493 C498 0.930 . S
N494 Eu456 2.609 . S
N494 C496 1.377 . S
N494 C497 1.321 . S
C495 H481 0.930 . S
C495 C497 1.400 . S
C495 C498 1.386 . S
C496 C492 1.429 . S
C496 N494 1.377 . S
C496 C499 1.411 . S
C497 H479 0.930 . S
C497 N494 1.321 . S
C497 C495 1.400 . S
C498 H493 0.930 . S
C498 C495 1.386 . S
C498 C499 1.395 . S
C499 C496 1.411 . S
C499 C498 1.395 . S
C499 C521 1.420 . S
O500 Eu456 2.558 . S
O500 C520 1.257 . S
O501 Eu456 2.612 . S
O501 Eu467 2.380 . S
O501 C512 1.276 . S
O502 Eu467 2.432 . S
O502 C519 1.264 . S
O503 Eu456 2.339 . S
O503 C519 1.254 . S
O504 Eu456 2.563 . S
O504 C512 1.235 . S
O505 Eu456 2.419 . S
O505 C520 1.249 . S
O506 Eu467 2.558 . S
O506 C531 1.257 . S
O507 Eu456 2.380 . S
O507 Eu467 2.612 . S
O507 C523 1.276 . S
O508 Eu456 2.432 . S
O508 C530 1.264 . S
O509 Eu467 2.339 . S
O509 C530 1.254 . S
O510 Eu467 2.563 . S
O510 C523 1.235 . S
O511 Eu467 2.419 . S
O511 C531 1.249 . S
C512 O501 1.276 . S
C512 O504 1.235 . S
C513 C515 1.393 . S
C513 C517 1.395 . S
C513 C520 1.492 . S
C514 C515 1.392 . S
C514 C516 1.386 . S
C515 C513 1.393 . S
C515 C514 1.392 . S
C515 H532 0.930 . S
C516 C514 1.386 . S
C516 C518 1.395 . S
C516 H533 0.930 . S
C517 C513 1.395 . S
C517 C518 1.379 . S
C517 H534 0.930 . S
C518 C516 1.395 . S
C518 C517 1.379 . S
C518 H535 0.930 . S
C519 O502 1.264 . S
C519 O503 1.254 . S
C520 Eu456 2.848 . S
C520 O500 1.257 . S
C520 O505 1.249 . S
C520 C513 1.492 . S
C521 H486 0.931 . S
C521 C499 1.420 . S
C521 C522 1.351 . S
C522 H484 0.930 . S
C522 C490 1.423 . S
C522 C521 1.351 . S
C523 O507 1.276 . S
C523 O510 1.235 . S
C524 C525 1.393 . S
C524 C528 1.395 . S
C524 C531 1.492 . S
C525 C524 1.393 . S
C525 C526 1.392 . S
C525 H536 0.930 . S
C526 C525 1.392 . S
C526 C527 1.386 . S
C527 C526 1.386 . S
C527 C529 1.395 . S
C527 H537 0.930 . S
C528 C524 1.395 . S
C528 C529 1.379 . S
C528 H538 0.930 . S
C529 C527 1.395 . S
C529 C528 1.379 . S
C529 H539 0.930 . S
C530 O508 1.264 . S
C530 O509 1.254 . S
C531 Eu467 2.848 . S
C531 O506 1.257 . S
C531 O511 1.249 . S
C531 C524 1.492 . S
H532 C515 0.930 . S
H533 C516 0.930 . S
H534 C517 0.930 . S
H535 C518 0.930 . S
H536 C525 0.930 . S
H537 C527 0.930 . S
H538 C528 0.930 . S
H539 C529 0.930 . S
Eu540 N571 2.657 . S
Eu540 N578 2.609 . S
Eu540 O584 2.558 . S
Eu540 O585 2.612 . S
Eu540 O587 2.339 . S
Eu540 O588 2.563 . S
Eu540 O589 2.419 . S
Eu540 O591 2.383 . S
Eu540 O592 2.432 1_455 S
Eu540 C604 2.848 . S
C541 C544 1.429 . S
C541 C545 1.411 . S
C541 N548 1.377 . S
C542 C544 1.420 . S
C542 C546 1.423 . S
C542 C554 1.392 . S
C543 C545 1.420 . S
C543 C546 1.351 . S
C543 H566 0.931 . S
C544 C541 1.429 . S
C544 C542 1.420 . S
C544 N552 1.362 . S
C545 C541 1.411 . S
C545 C543 1.420 . S
C545 C550 1.395 . S
C546 C542 1.423 . S
C546 C543 1.351 . S
C546 H558 0.930 . S
C547 C549 1.400 . S
C547 C550 1.386 1_455 S
C547 H559 0.930 . S
N548 C541 1.377 . S
N548 C549 1.321 1_655 S
N548 Eu551 2.609 . S
C549 C547 1.400 . S
C549 N548 1.321 1_455 S
C549 H556 0.930 . S
C550 C545 1.395 . S
C550 C547 1.386 1_655 S
C550 H569 0.930 . S
Eu551 N548 2.609 . S
Eu551 N552 2.657 . S
Eu551 O585 2.380 1_655 S
Eu551 O586 2.432 1_655 S
Eu551 O590 2.558 . S
Eu551 O591 2.610 1_655 S
Eu551 O593 2.339 . S
Eu551 O594 2.563 . S
Eu551 O595 2.419 . S
Eu551 C615 2.848 . S
N552 C544 1.362 . S
N552 Eu551 2.657 . S
N552 C553 1.334 . S
C553 N552 1.334 . S
C553 C555 1.413 . S
C553 H560 0.929 . S
C554 C542 1.392 . S
C554 C555 1.367 . S
C554 H562 0.930 . S
C555 C553 1.413 . S
C555 C554 1.367 . S
C555 H557 0.930 . S
H556 C549 0.930 . S
H557 C555 0.930 . S
H558 C546 0.930 . S
H559 C547 0.930 . S
H560 C553 0.929 . S
H561 C575 0.930 . S
H562 C554 0.930 . S
H563 C581 0.930 1_655 S
H564 C572 0.929 . S
H565 C579 0.930 1_655 S
H566 C543 0.931 . S
H567 C573 0.930 . S
H568 C606 0.930 . S
H569 C550 0.930 . S
H570 C605 0.931 . S
N571 Eu540 2.657 . S
N571 C572 1.334 . S
N571 C576 1.362 . S
C572 H564 0.929 . S
C572 N571 1.334 . S
C572 C575 1.413 . S
C573 H567 0.930 . S
C573 C574 1.392 . S
C573 C575 1.367 . S
C574 C573 1.392 . S
C574 C576 1.420 . S
C574 C606 1.423 . S
C575 H561 0.930 . S
C575 C572 1.413 . S
C575 C573 1.367 . S
C576 N571 1.362 . S
C576 C574 1.420 . S
C576 C580 1.429 . S
H577 C582 0.930 . S
N578 Eu540 2.609 . S
N578 C580 1.377 . S
N578 C581 1.321 . S
C579 H565 0.930 1_455 S
C579 C581 1.399 . S
C579 C582 1.386 . S
C580 C576 1.429 . S
C580 N578 1.377 . S
C580 C583 1.411 . S
C581 H563 0.930 1_455 S
C581 N578 1.321 . S
C581 C579 1.399 . S
C582 H577 0.930 . S
C582 C579 1.386 . S
C582 C583 1.395 . S
C583 C580 1.411 . S
C583 C582 1.395 . S
C583 C605 1.420 . S
O584 Eu540 2.558 . S
O584 C604 1.257 . S
O585 Eu540 2.612 . S
O585 Eu551 2.380 1_455 S
O585 C596 1.276 . S
O586 Eu551 2.432 1_455 S
O586 C603 1.264 . S
O587 Eu540 2.339 . S
O587 C603 1.254 . S
O588 Eu540 2.563 . S
O588 C596 1.235 . S
O589 Eu540 2.419 . S
O589 C604 1.249 . S
O590 Eu551 2.558 . S
O590 C615 1.257 . S
O591 Eu540 2.383 . S
O591 Eu551 2.610 1_455 S
O591 C607 1.274 1_455 S
O592 Eu540 2.432 1_655 S
O592 C614 1.264 . S
O593 Eu551 2.339 . S
O593 C614 1.254 . S
O594 Eu551 2.563 . S
O594 C607 1.235 . S
O595 Eu551 2.419 . S
O595 C615 1.249 . S
C596 O585 1.276 . S
C596 O588 1.235 . S
C597 C599 1.393 . S
C597 C601 1.395 . S
C597 C604 1.492 . S
C598 C599 1.392 . S
C598 C600 1.386 . S
C599 C597 1.393 . S
C599 C598 1.392 . S
C599 H616 0.930 . S
C600 C598 1.386 . S
C600 C602 1.395 . S
C600 H617 0.930 . S
C601 C597 1.395 . S
C601 C602 1.379 . S
C601 H618 0.930 . S
C602 C600 1.395 . S
C602 C601 1.379 . S
C602 H619 0.930 . S
C603 O586 1.264 . S
C603 O587 1.254 . S
C604 Eu540 2.848 . S
C604 O584 1.257 . S
C604 O589 1.249 . S
C604 C597 1.492 . S
C605 H570 0.931 . S
C605 C583 1.420 . S
C605 C606 1.351 . S
C606 H568 0.930 . S
C606 C574 1.423 . S
C606 C605 1.351 . S
C607 O591 1.274 1_655 S
C607 O594 1.235 . S
C608 C609 1.393 . S
C608 C612 1.395 . S
C608 C615 1.492 . S
C609 C608 1.393 . S
C609 C610 1.392 . S
C609 H620 0.930 . S
C610 C609 1.392 . S
C610 C611 1.386 . S
C611 C610 1.386 . S
C611 C613 1.395 . S
C611 H621 0.930 . S
C612 C608 1.395 . S
C612 C613 1.379 . S
C612 H622 0.930 . S
C613 C611 1.395 . S
C613 C612 1.379 . S
C613 H623 0.930 . S
C614 O592 1.264 . S
C614 O593 1.254 . S
C615 Eu551 2.848 . S
C615 O590 1.257 . S
C615 O595 1.249 . S
C615 C608 1.492 . S
H616 C599 0.930 . S
H617 C600 0.930 . S
H618 C601 0.930 . S
H619 C602 0.930 . S
H620 C609 0.930 . S
H621 C611 0.930 . S
H622 C612 0.930 . S
H623 C613 0.930 . S
H624 C632 0.950 . S
H625 C637 0.950 . S
H626 C634 0.950 . S
H627 C636 0.950 . S
H628 C638 0.950 . S
H629 C640 0.950 . S
H630 C642 0.950 . S
H631 C643 0.950 . S
C632 H624 0.950 . S
C632 C633 1.386 . S
C632 C634 1.391 . S
C633 C632 1.386 . S
C633 C637 1.393 . S
C634 H626 0.950 . S
C634 C632 1.391 . S
C634 C635 1.400 . S
C635 C634 1.400 . S
C635 C636 1.398 . S
C635 C641 1.491 . S
C636 H627 0.950 . S
C636 C635 1.398 . S
C636 C637 1.391 . S
C637 H625 0.950 . S
C637 C633 1.393 . S
C637 C636 1.391 . S
C638 H628 0.950 . S
C638 C639 1.386 . S
C638 C640 1.391 . S
C639 C638 1.386 . S
C639 C643 1.393 . S
C640 H629 0.950 . S
C640 C638 1.391 . S
C640 C641 1.400 . S
C641 C635 1.491 . S
C641 C640 1.400 . S
C641 C642 1.398 . S
C642 H630 0.950 . S
C642 C641 1.398 . S
C642 C643 1.391 . S
C643 H631 0.950 . S
C643 C639 1.393 . S
C643 C642 1.391 . S
H644 C652 0.950 . S
H645 C657 0.950 . S
H646 C654 0.950 . S
H647 C656 0.950 . S
H648 C658 0.950 . S
H649 C660 0.950 . S
H650 C662 0.950 . S
H651 C663 0.950 . S
C652 H644 0.950 . S
C652 C653 1.386 . S
C652 C654 1.391 . S
C653 C652 1.386 . S
C653 C657 1.393 . S
C654 H646 0.950 . S
C654 C652 1.391 . S
C654 C655 1.400 . S
C655 C654 1.400 . S
C655 C656 1.398 . S
C655 C661 1.491 . S
C656 H647 0.950 . S
C656 C655 1.398 . S
C656 C657 1.391 . S
C657 H645 0.950 . S
C657 C653 1.393 . S
C657 C656 1.391 . S
C658 H648 0.950 . S
C658 C659 1.386 . S
C658 C660 1.391 . S
C659 C658 1.386 . S
C659 C663 1.393 . S
C660 H649 0.950 . S
C660 C658 1.391 . S
C660 C661 1.400 . S
C661 C655 1.491 . S
C661 C660 1.400 . S
C661 C662 1.398 . S
C662 H650 0.950 . S
C662 C661 1.398 . S
C662 C663 1.391 . S
C663 H651 0.950 . S
C663 C659 1.393 . S
C663 C662 1.391 . S
H664 C672 0.950 . S
H665 C677 0.950 . S
H666 C674 0.950 . S
H667 C676 0.950 . S
H668 C678 0.950 . S
H669 C680 0.950 . S
H670 C682 0.950 . S
H671 C683 0.950 . S
C672 H664 0.950 . S
C672 C673 1.386 . S
C672 C674 1.391 . S
C673 C672 1.386 . S
C673 C677 1.393 . S
C674 H666 0.950 . S
C674 C672 1.391 . S
C674 C675 1.400 . S
C675 C674 1.400 . S
C675 C676 1.398 . S
C675 C681 1.491 . S
C676 H667 0.950 . S
C676 C675 1.398 . S
C676 C677 1.391 . S
C677 H665 0.950 . S
C677 C673 1.393 . S
C677 C676 1.391 . S
C678 H668 0.950 . S
C678 C679 1.386 . S
C678 C680 1.391 . S
C679 C678 1.386 . S
C679 C683 1.393 . S
C680 H669 0.950 . S
C680 C678 1.391 . S
C680 C681 1.400 . S
C681 C675 1.491 . S
C681 C680 1.400 . S
C681 C682 1.398 . S
C682 H670 0.950 . S
C682 C681 1.398 . S
C682 C683 1.391 . S
C683 H671 0.950 . S
C683 C679 1.393 . S
C683 C682 1.391 . S
H684 C692 0.950 . S
H685 C697 0.950 . S
H686 C694 0.950 . S
H687 C696 0.950 . S
H688 C698 0.950 . S
H689 C700 0.950 . S
H690 C702 0.950 . S
H691 C703 0.950 . S
C692 H684 0.950 . S
C692 C693 1.386 . S
C692 C694 1.391 . S
C693 C692 1.386 . S
C693 C697 1.393 . S
C694 H686 0.950 . S
C694 C692 1.391 . S
C694 C695 1.400 . S
C695 C694 1.400 . S
C695 C696 1.398 . S
C695 C701 1.491 . S
C696 H687 0.950 . S
C696 C695 1.398 . S
C696 C697 1.391 . S
C697 H685 0.950 . S
C697 C693 1.393 . S
C697 C696 1.391 . S
C698 H688 0.950 . S
C698 C699 1.386 . S
C698 C700 1.391 . S
C699 C698 1.386 . S
C699 C703 1.393 . S
C700 H689 0.950 . S
C700 C698 1.391 . S
C700 C701 1.400 . S
C701 C695 1.491 . S
C701 C700 1.400 . S
C701 C702 1.398 . S
C702 H690 0.950 . S
C702 C701 1.398 . S
C702 C703 1.391 . S
C703 H691 0.950 . S
C703 C699 1.393 . S
C703 C702 1.391 . S
H704 C712 0.950 . S
H705 C717 0.950 . S
H706 C714 0.950 . S
H707 C716 0.950 . S
H708 C718 0.950 . S
H709 C720 0.950 . S
H710 C722 0.950 1_545 S
H711 C723 0.985 . S
C712 H704 0.950 . S
C712 C713 1.386 . S
C712 C714 1.391 1_554 S
C713 C712 1.386 . S
C713 C717 1.393 . S
C714 H706 0.950 . S
C714 C712 1.391 1_556 S
C714 C715 1.400 . S
C715 C714 1.400 . S
C715 C716 1.398 . S
C715 C721 1.491 . S
C716 H707 0.950 . S
C716 C715 1.398 . S
C716 C717 1.391 1_556 S
C717 H705 0.950 . S
C717 C713 1.393 . S
C717 C716 1.391 1_554 S
C718 H708 0.950 . S
C718 C719 1.386 . S
C718 C720 1.391 . S
C719 C718 1.386 . S
C719 C723 1.370 1_565 S
C720 H709 0.950 . S
C720 C718 1.391 . S
C720 C721 1.400 . S
C721 C715 1.491 . S
C721 C720 1.400 . S
C721 C722 1.398 . S
C722 H710 0.950 1_565 S
C722 C721 1.398 . S
C722 C723 1.380 1_565 S
C723 H711 0.985 . S
C723 C719 1.370 1_545 S
C723 C722 1.380 1_545 S
H724 C732 0.950 . S
H725 C737 0.950 . S
H726 C734 0.950 . S
H727 C736 0.950 . S
H728 C738 0.950 . S
H729 C740 0.950 . S
H730 C742 0.950 . S
H731 C743 0.950 . S
C732 H724 0.950 . S
C732 C733 1.386 . S
C732 C734 1.391 1_554 S
C733 C732 1.386 . S
C733 C737 1.393 . S
C734 H726 0.950 . S
C734 C732 1.391 1_556 S
C734 C735 1.400 . S
C735 C734 1.400 . S
C735 C736 1.398 . S
C735 C741 1.491 . S
C736 H727 0.950 . S
C736 C735 1.398 . S
C736 C737 1.391 1_556 S
C737 H725 0.950 . S
C737 C733 1.393 . S
C737 C736 1.391 1_554 S
C738 H728 0.950 . S
C738 C739 1.386 . S
C738 C740 1.391 . S
C739 C738 1.386 . S
C739 C743 1.393 . S
C740 H729 0.950 . S
C740 C738 1.391 . S
C740 C741 1.400 . S
C741 C735 1.491 . S
C741 C740 1.400 . S
C741 C742 1.398 . S
C742 H730 0.950 . S
C742 C741 1.398 . S
C742 C743 1.391 . S
C743 H731 0.950 . S
C743 C739 1.393 . S
C743 C742 1.391 . S
H744 C752 0.950 . S
H745 C757 0.950 . S
H746 C754 0.950 . S
H747 C756 0.950 . S
H748 C758 0.950 . S
H749 C760 0.950 . S
H750 C762 0.950 . S
H751 C763 0.950 . S
C752 H744 0.950 . S
C752 C753 1.380 1_556 S
C752 C754 1.396 . S
C753 C752 1.380 1_554 S
C753 C757 1.393 . S
C754 H746 0.950 . S
C754 C752 1.396 . S
C754 C755 1.400 . S
C755 C754 1.400 . S
C755 C756 1.398 1_556 S
C755 C761 1.491 . S
C756 H747 0.950 . S
C756 C755 1.398 1_554 S
C756 C757 1.391 . S
C757 H745 0.950 . S
C757 C753 1.393 . S
C757 C756 1.391 . S
C758 H748 0.950 . S
C758 C759 1.386 . S
C758 C760 1.391 . S
C759 C758 1.386 . S
C759 C763 1.393 . S
C760 H749 0.950 . S
C760 C758 1.391 . S
C760 C761 1.400 . S
C761 C755 1.491 . S
C761 C760 1.400 . S
C761 C762 1.398 . S
C762 H750 0.950 . S
C762 C761 1.398 . S
C762 C763 1.391 . S
C763 H751 0.950 . S
C763 C759 1.393 . S
C763 C762 1.391 . S
H764 C772 0.950 . S
H765 C777 0.950 . S
H766 C774 0.950 . S
H767 C776 0.950 . S
H768 C778 0.950 . S
H769 C780 0.950 . S
H770 C782 0.950 . S
H771 C783 0.950 . S
C772 H764 0.950 . S
C772 C773 1.386 . S
C772 C774 1.391 . S
C773 C772 1.386 . S
C773 C777 1.393 . S
C774 H766 0.950 . S
C774 C772 1.391 . S
C774 C775 1.400 1_554 S
C775 C774 1.400 1_556 S
C775 C776 1.398 . S
C775 C781 1.491 . S
C776 H767 0.950 . S
C776 C775 1.398 . S
C776 C777 1.391 1_556 S
C777 H765 0.950 . S
C777 C773 1.393 . S
C777 C776 1.391 1_554 S
C778 H768 0.950 . S
C778 C779 1.386 . S
C778 C780 1.391 . S
C779 C778 1.386 . S
C779 C783 1.393 . S
C780 H769 0.950 . S
C780 C778 1.391 . S
C780 C781 1.400 . S
C781 C775 1.491 . S
C781 C780 1.400 . S
C781 C782 1.398 . S
C782 H770 0.950 . S
C782 C781 1.398 . S
C782 C783 1.391 . S
C783 H771 0.950 . S
C783 C779 1.393 . S
C783 C782 1.391 . S
H784 C792 0.950 . S
H785 C797 0.950 . S
H786 C794 0.950 . S
H787 C796 0.950 . S
H788 C798 0.950 . S
H789 C800 0.950 . S
H790 C802 0.950 . S
H791 C803 0.950 . S
C792 H784 0.950 . S
C792 C793 1.386 . S
C792 C794 1.391 . S
C793 C792 1.386 . S
C793 C797 1.393 . S
C794 H786 0.950 . S
C794 C792 1.391 . S
C794 C795 1.400 . S
C795 C794 1.400 . S
C795 C796 1.398 . S
C795 C801 1.491 . S
C796 H787 0.950 . S
C796 C795 1.398 . S
C796 C797 1.391 . S
C797 H785 0.950 . S
C797 C793 1.393 . S
C797 C796 1.391 . S
C798 H788 0.950 . S
C798 C799 1.386 . S
C798 C800 1.391 . S
C799 C798 1.386 . S
C799 C803 1.393 1_455 S
C800 H789 0.950 . S
C800 C798 1.391 . S
C800 C801 1.400 . S
C801 C795 1.491 . S
C801 C800 1.400 . S
C801 C802 1.398 . S
C802 H790 0.950 . S
C802 C801 1.398 . S
C802 C803 1.391 1_455 S
C803 H791 0.950 . S
C803 C799 1.393 1_655 S
C803 C802 1.391 1_655 S
H804 C812 0.950 . S
H805 C817 0.950 . S
H806 C814 0.950 . S
H807 C816 0.950 . S
H808 C818 0.950 . S
H809 C820 0.950 . S
H810 C822 0.950 . S
H811 C823 0.950 . S
C812 H804 0.950 . S
C812 C813 1.386 . S
C812 C814 1.391 . S
C813 C812 1.386 . S
C813 C817 1.393 . S
C814 H806 0.950 . S
C814 C812 1.391 . S
C814 C815 1.400 . S
C815 C814 1.400 . S
C815 C816 1.398 . S
C815 C821 1.491 . S
C816 H807 0.950 . S
C816 C815 1.398 . S
C816 C817 1.391 . S
C817 H805 0.950 . S
C817 C813 1.393 . S
C817 C816 1.391 . S
C818 H808 0.950 . S
C818 C819 1.386 . S
C818 C820 1.391 . S
C819 C818 1.386 . S
C819 C823 1.393 . S
C820 H809 0.950 . S
C820 C818 1.391 . S
C820 C821 1.400 . S
C821 C815 1.491 . S
C821 C820 1.400 . S
C821 C822 1.398 . S
C822 H810 0.950 . S
C822 C821 1.398 . S
C822 C823 1.391 . S
C823 H811 0.950 . S
C823 C819 1.393 . S
C823 C822 1.391 . S
H824 C832 0.950 . S
H825 C837 0.950 . S
H826 C834 0.950 . S
H827 C836 0.950 . S
H828 C838 0.950 . S
H829 C840 0.950 . S
H830 C842 0.950 . S
H831 C843 0.950 . S
C832 H824 0.950 . S
C832 C833 1.386 . S
C832 C834 1.391 . S
C833 C832 1.386 . S
C833 C837 1.393 . S
C834 H826 0.950 . S
C834 C832 1.391 . S
C834 C835 1.400 . S
C835 C834 1.400 . S
C835 C836 1.398 . S
C835 C841 1.491 . S
C836 H827 0.950 . S
C836 C835 1.398 . S
C836 C837 1.391 . S
C837 H825 0.950 . S
C837 C833 1.393 . S
C837 C836 1.391 . S
C838 H828 0.950 . S
C838 C839 1.386 . S
C838 C840 1.391 . S
C839 C838 1.386 . S
C839 C843 1.393 . S
C840 H829 0.950 . S
C840 C838 1.391 . S
C840 C841 1.400 . S
C841 C835 1.491 . S
C841 C840 1.400 . S
C841 C842 1.398 . S
C842 H830 0.950 . S
C842 C841 1.398 . S
C842 C843 1.391 . S
C843 H831 0.950 . S
C843 C839 1.393 . S
C843 C842 1.391 . S
H844 C852 0.950 . S
H845 C857 0.950 . S
H846 C854 0.950 . S
H847 C856 0.950 . S
H848 C858 0.950 . S
H849 C860 0.950 . S
H850 C862 0.950 . S
H851 C863 0.950 . S
C852 H844 0.950 . S
C852 C853 1.386 . S
C852 C854 1.391 . S
C853 C852 1.386 . S
C853 C857 1.393 . S
C854 H846 0.950 . S
C854 C852 1.391 . S
C854 C855 1.400 . S
C855 C854 1.400 . S
C855 C856 1.398 . S
C855 C861 1.491 . S
C856 H847 0.950 . S
C856 C855 1.398 . S
C856 C857 1.391 . S
C857 H845 0.950 . S
C857 C853 1.393 . S
C857 C856 1.391 . S
C858 H848 0.950 . S
C858 C859 1.386 . S
C858 C860 1.391 . S
C859 C858 1.386 . S
C859 C863 1.393 . S
C860 H849 0.950 . S
C860 C858 1.391 . S
C860 C861 1.400 . S
C861 C855 1.491 . S
C861 C860 1.400 . S
C861 C862 1.398 . S
C862 H850 0.950 . S
C862 C861 1.398 . S
C862 C863 1.391 . S
C863 H851 0.950 . S
C863 C859 1.393 . S
C863 C862 1.391 . S
H864 C872 0.950 1_554 S
H865 C877 0.950 . S
H866 C874 0.950 . S
H867 C876 0.950 . S
H868 C878 0.950 . S
H869 C880 0.950 . S
H870 C882 0.950 . S
H871 C883 0.950 . S
C872 H864 0.950 1_556 S
C872 C873 1.386 . S
C872 C874 1.391 . S
C873 C872 1.386 . S
C873 C877 1.393 . S
C874 H866 0.950 . S
C874 C872 1.391 . S
C874 C875 1.400 . S
C875 C874 1.400 . S
C875 C876 1.398 . S
C875 C881 1.491 . S
C876 H867 0.950 . S
C876 C875 1.398 . S
C876 C877 1.391 . S
C877 H865 0.950 . S
C877 C873 1.393 . S
C877 C876 1.391 . S
C878 H868 0.950 . S
C878 C879 1.386 1_655 S
C878 C880 1.391 . S
C879 C878 1.386 1_455 S
C879 C883 1.393 . S
C880 H869 0.950 . S
C880 C878 1.391 . S
C880 C881 1.400 . S
C881 C875 1.491 . S
C881 C880 1.400 . S
C881 C882 1.398 1_655 S
C882 H870 0.950 . S
C882 C881 1.398 1_455 S
C882 C883 1.391 . S
C883 H871 0.950 . S
C883 C879 1.393 . S
C883 C882 1.391 . S
H884 C892 0.950 . S
H885 C897 0.950 . S
H886 C894 0.953 . S
H887 C896 0.950 . S
H888 C898 0.950 . S
H889 C900 0.950 . S
H890 C902 0.950 . S
H891 C903 0.950 . S
C892 H884 0.950 . S
C892 C893 1.386 1_554 S
C892 C894 1.391 1_554 S
C893 C892 1.386 1_556 S
C893 C897 1.393 . S
C894 H886 0.953 . S
C894 C892 1.391 1_556 S
C894 C895 1.400 . S
C895 C894 1.400 . S
C895 C896 1.398 . S
C895 C901 1.491 . S
C896 H887 0.950 . S
C896 C895 1.398 . S
C896 C897 1.391 . S
C897 H885 0.950 . S
C897 C893 1.393 . S
C897 C896 1.391 . S
C898 H888 0.950 . S
C898 C899 1.386 . S
C898 C900 1.391 1_545 S
C899 C898 1.386 . S
C899 C903 1.393 1_545 S
C900 H889 0.950 . S
C900 C898 1.391 1_565 S
C900 C901 1.400 . S
C901 C895 1.491 . S
C901 C900 1.400 . S
C901 C902 1.398 . S
C902 H890 0.950 . S
C902 C901 1.398 . S
C902 C903 1.391 . S
C903 H891 0.950 . S
C903 C899 1.393 1_565 S
C903 C902 1.391 . S
H904 C912 0.950 . S
H905 C917 0.950 . S
H906 C914 0.950 . S
H907 C916 0.950 1_554 S
H908 C918 0.950 . S
H909 C920 0.950 . S
H910 C922 0.950 . S
H911 C923 0.950 . S
C912 H904 0.950 . S
C912 C913 1.386 . S
C912 C914 1.391 . S
C913 C912 1.386 . S
C913 C917 1.393 1_556 S
C914 H906 0.950 . S
C914 C912 1.391 . S
C914 C915 1.400 . S
C915 C914 1.400 . S
C915 C916 1.398 . S
C915 C921 1.491 . S
C916 H907 0.950 1_556 S
C916 C915 1.398 . S
C916 C917 1.391 1_556 S
C917 H905 0.950 . S
C917 C913 1.393 1_554 S
C917 C916 1.391 1_554 S
C918 H908 0.950 . S
C918 C919 1.386 . S
C918 C920 1.391 . S
C919 C918 1.386 . S
C919 C923 1.393 . S
C920 H909 0.950 . S
C920 C918 1.391 . S
C920 C921 1.400 . S
C921 C915 1.491 . S
C921 C920 1.400 . S
C921 C922 1.398 . S
C922 H910 0.950 . S
C922 C921 1.398 . S
C922 C923 1.391 . S
C923 H911 0.950 . S
C923 C919 1.393 . S
C923 C922 1.391 . S
H924 C932 0.950 . S
H925 C937 0.950 . S
H926 C934 0.950 . S
H927 C936 0.950 . S
H928 C938 0.950 . S
H929 C940 0.950 . S
H930 C942 0.950 . S
H931 C943 0.950 . S
C932 H924 0.950 . S
C932 C933 1.386 1_554 S
C932 C934 1.391 . S
C933 C932 1.386 1_556 S
C933 C937 1.393 . S
C934 H926 0.950 . S
C934 C932 1.391 . S
C934 C935 1.400 1_554 S
C935 C934 1.400 1_556 S
C935 C936 1.398 . S
C935 C941 1.491 . S
C936 H927 0.950 . S
C936 C935 1.398 . S
C936 C937 1.391 . S
C937 H925 0.950 . S
C937 C933 1.393 . S
C937 C936 1.391 . S
C938 H928 0.950 . S
C938 C939 1.386 . S
C938 C940 1.391 . S
C939 C938 1.386 . S
C939 C943 1.393 . S
C940 H929 0.950 . S
C940 C938 1.391 . S
C940 C941 1.400 . S
C941 C935 1.491 . S
C941 C940 1.400 . S
C941 C942 1.398 . S
C942 H930 0.950 . S
C942 C941 1.398 . S
C942 C943 1.391 . S
C943 H931 0.950 . S
C943 C939 1.393 . S
C943 C942 1.391 . S
H944 C952 0.950 . S
H945 C957 0.950 . S
H946 C954 0.950 . S
H947 C956 0.950 . S
H948 C958 0.950 . S
H949 C960 0.950 . S
H950 C962 0.950 . S
H951 C963 0.950 . S
C952 H944 0.950 . S
C952 C953 1.386 . S
C952 C954 1.391 . S
C953 C952 1.386 . S
C953 C957 1.393 . S
C954 H946 0.950 . S
C954 C952 1.391 . S
C954 C955 1.400 . S
C955 C954 1.400 . S
C955 C956 1.398 . S
C955 C961 1.491 . S
C956 H947 0.950 . S
C956 C955 1.398 . S
C956 C957 1.391 . S
C957 H945 0.950 . S
C957 C953 1.393 . S
C957 C956 1.391 . S
C958 H948 0.950 . S
C958 C959 1.386 . S
C958 C960 1.391 . S
C959 C958 1.386 . S
C959 C963 1.393 . S
C960 H949 0.950 . S
C960 C958 1.391 . S
C960 C961 1.400 . S
C961 C955 1.491 . S
C961 C960 1.400 . S
C961 C962 1.398 . S
C962 H950 0.950 . S
C962 C961 1.398 . S
C962 C963 1.391 . S
C963 H951 0.950 . S
C963 C959 1.393 . S
C963 C962 1.391 . S
H964 C972 0.950 . S
H965 C977 0.950 . S
H966 C974 0.950 . S
H967 C976 0.950 . S
H968 C978 0.950 . S
H969 C980 0.950 . S
H970 C982 0.950 . S
H971 C983 0.950 . S
C972 H964 0.950 . S
C972 C973 1.386 . S
C972 C974 1.391 . S
C973 C972 1.386 . S
C973 C977 1.393 . S
C974 H966 0.950 . S
C974 C972 1.391 . S
C974 C975 1.400 . S
C975 C974 1.400 . S
C975 C976 1.398 . S
C975 C981 1.491 . S
C976 H967 0.950 . S
C976 C975 1.398 . S
C976 C977 1.391 . S
C977 H965 0.950 . S
C977 C973 1.393 . S
C977 C976 1.391 . S
C978 H968 0.950 . S
C978 C979 1.386 . S
C978 C980 1.391 . S
C979 C978 1.386 . S
C979 C983 1.393 . S
C980 H969 0.950 . S
C980 C978 1.391 . S
C980 C981 1.400 . S
C981 C975 1.491 . S
C981 C980 1.400 . S
C981 C982 1.398 . S
C982 H970 0.950 . S
C982 C981 1.398 . S
C982 C983 1.391 . S
C983 H971 0.950 . S
C983 C979 1.393 . S
C983 C982 1.391 . S
H984 C992 0.950 . S
H985 C997 0.950 . S
H986 C994 0.950 . S
H987 C996 0.950 . S
H988 C998 0.950 . S
H989 C1000 0.950 . S
H990 C1002 0.950 . S
H991 C1003 0.950 . S
C992 H984 0.950 . S
C992 C993 1.386 . S
C992 C994 1.391 . S
C993 C992 1.386 . S
C993 C997 1.393 . S
C994 H986 0.950 . S
C994 C992 1.391 . S
C994 C995 1.400 . S
C995 C994 1.400 . S
C995 C996 1.398 . S
C995 C1001 1.491 . S
C996 H987 0.950 . S
C996 C995 1.398 . S
C996 C997 1.391 . S
C997 H985 0.950 . S
C997 C993 1.393 . S
C997 C996 1.391 . S
C998 H988 0.950 . S
C998 C999 1.386 . S
C998 C1000 1.391 . S
C999 C998 1.386 . S
C999 C1003 1.393 . S
C1000 H989 0.950 . S
C1000 C998 1.391 . S
C1000 C1001 1.400 . S
C1001 C995 1.491 . S
C1001 C1000 1.400 . S
C1001 C1002 1.398 . S
C1002 H990 0.950 . S
C1002 C1001 1.398 . S
C1002 C1003 1.391 . S
C1003 H991 0.950 . S
C1003 C999 1.393 . S
C1003 C1002 1.391 . S
H1004 C1012 0.950 . S
H1005 C1017 0.950 . S
H1006 C1014 0.950 . S
H1007 C1016 0.950 . S
H1008 C1018 0.950 . S
H1009 C1020 0.950 . S
H1010 C1022 0.950 . S
H1011 C1023 0.950 . S
C1012 H1004 0.950 . S
C1012 C1013 1.386 . S
C1012 C1014 1.391 . S
C1013 C1012 1.386 . S
C1013 C1017 1.393 . S
C1014 H1006 0.950 . S
C1014 C1012 1.391 . S
C1014 C1015 1.400 . S
C1015 C1014 1.400 . S
C1015 C1016 1.398 . S
C1015 C1021 1.491 . S
C1016 H1007 0.950 . S
C1016 C1015 1.398 . S
C1016 C1017 1.391 . S
C1017 H1005 0.950 . S
C1017 C1013 1.393 . S
C1017 C1016 1.391 . S
C1018 H1008 0.950 . S
C1018 C1019 1.386 . S
C1018 C1020 1.391 . S
C1019 C1018 1.386 . S
C1019 C1023 1.393 . S
C1020 H1009 0.950 . S
C1020 C1018 1.391 . S
C1020 C1021 1.400 . S
C1021 C1015 1.491 . S
C1021 C1020 1.400 . S
C1021 C1022 1.398 . S
C1022 H1010 0.950 . S
C1022 C1021 1.398 . S
C1022 C1023 1.391 . S
C1023 H1011 0.950 . S
C1023 C1019 1.393 . S
C1023 C1022 1.391 . S
H1024 C1032 0.950 . S
H1025 C1037 0.950 . S
H1026 C1034 0.950 . S
H1027 C1036 0.950 . S
H1028 C1038 0.950 . S
H1029 C1040 0.950 . S
H1030 C1042 0.950 . S
H1031 C1043 0.950 . S
C1032 H1024 0.950 . S
C1032 C1033 1.386 . S
C1032 C1034 1.391 . S
C1033 C1032 1.386 . S
C1033 C1037 1.393 . S
C1034 H1026 0.950 . S
C1034 C1032 1.391 . S
C1034 C1035 1.400 . S
C1035 C1034 1.400 . S
C1035 C1036 1.398 . S
C1035 C1041 1.491 . S
C1036 H1027 0.950 . S
C1036 C1035 1.398 . S
C1036 C1037 1.391 . S
C1037 H1025 0.950 . S
C1037 C1033 1.393 . S
C1037 C1036 1.391 . S
C1038 H1028 0.950 . S
C1038 C1039 1.386 . S
C1038 C1040 1.391 . S
C1039 C1038 1.386 . S
C1039 C1043 1.393 . S
C1040 H1029 0.950 . S
C1040 C1038 1.391 . S
C1040 C1041 1.400 . S
C1041 C1035 1.491 . S
C1041 C1040 1.400 . S
C1041 C1042 1.398 . S
C1042 H1030 0.950 . S
C1042 C1041 1.398 . S
C1042 C1043 1.391 . S
C1043 H1031 0.950 . S
C1043 C1039 1.393 . S
C1043 C1042 1.391 . S
H1044 C1052 0.950 . S
H1045 C1057 0.950 . S
H1046 C1054 0.950 . S
H1047 C1056 0.950 . S
H1048 C1058 0.950 . S
H1049 C1060 0.950 . S
H1050 C1062 0.950 . S
H1051 C1063 0.950 . S
C1052 H1044 0.950 . S
C1052 C1053 1.386 . S
C1052 C1054 1.391 . S
C1053 C1052 1.386 . S
C1053 C1057 1.393 . S
C1054 H1046 0.950 . S
C1054 C1052 1.391 . S
C1054 C1055 1.400 . S
C1055 C1054 1.400 . S
C1055 C1056 1.398 . S
C1055 C1061 1.491 . S
C1056 H1047 0.950 . S
C1056 C1055 1.398 . S
C1056 C1057 1.391 . S
C1057 H1045 0.950 . S
C1057 C1053 1.393 . S
C1057 C1056 1.391 . S
C1058 H1048 0.950 . S
C1058 C1059 1.386 . S
C1058 C1060 1.391 . S
C1059 C1058 1.386 . S
C1059 C1063 1.393 . S
C1060 H1049 0.950 . S
C1060 C1058 1.391 . S
C1060 C1061 1.400 . S
C1061 C1055 1.491 . S
C1061 C1060 1.400 . S
C1061 C1062 1.398 . S
C1062 H1050 0.950 . S
C1062 C1061 1.398 . S
C1062 C1063 1.391 . S
C1063 H1051 0.950 . S
C1063 C1059 1.393 . S
C1063 C1062 1.391 . S
H1064 C1072 0.950 . S
H1065 C1077 0.950 . S
H1066 C1074 0.950 . S
H1067 C1076 0.950 . S
H1068 C1078 0.950 . S
H1069 C1080 0.950 . S
H1070 C1082 0.950 . S
H1071 C1083 0.950 . S
C1072 H1064 0.950 . S
C1072 C1073 1.386 . S
C1072 C1074 1.391 . S
C1073 C1072 1.386 . S
C1073 C1077 1.393 . S
C1074 H1066 0.950 . S
C1074 C1072 1.391 . S
C1074 C1075 1.400 . S
C1075 C1074 1.400 . S
C1075 C1076 1.398 . S
C1075 C1081 1.491 . S
C1076 H1067 0.950 . S
C1076 C1075 1.398 . S
C1076 C1077 1.391 . S
C1077 H1065 0.950 . S
C1077 C1073 1.393 . S
C1077 C1076 1.391 . S
C1078 H1068 0.950 . S
C1078 C1079 1.386 . S
C1078 C1080 1.391 . S
C1079 C1078 1.386 . S
C1079 C1083 1.393 . S
C1080 H1069 0.950 . S
C1080 C1078 1.391 . S
C1080 C1081 1.400 . S
C1081 C1075 1.491 . S
C1081 C1080 1.400 . S
C1081 C1082 1.398 . S
C1082 H1070 0.950 . S
C1082 C1081 1.398 . S
C1082 C1083 1.391 . S
C1083 H1071 0.950 . S
C1083 C1079 1.393 . S
C1083 C1082 1.391 . S
H1084 C1092 0.950 . S
H1085 C1097 0.950 . S
H1086 C1094 0.950 . S
H1087 C1096 0.950 . S
H1088 C1098 0.950 . S
H1089 C1100 0.950 . S
H1090 C1102 0.950 . S
H1091 C1103 0.950 . S
C1092 H1084 0.950 . S
C1092 C1093 1.386 . S
C1092 C1094 1.391 . S
C1093 C1092 1.386 . S
C1093 C1097 1.393 . S
C1094 H1086 0.950 . S
C1094 C1092 1.391 . S
C1094 C1095 1.400 . S
C1095 C1094 1.400 . S
C1095 C1096 1.398 . S
C1095 C1101 1.491 . S
C1096 H1087 0.950 . S
C1096 C1095 1.398 . S
C1096 C1097 1.391 . S
C1097 H1085 0.950 . S
C1097 C1093 1.393 . S
C1097 C1096 1.391 . S
C1098 H1088 0.950 . S
C1098 C1099 1.386 . S
C1098 C1100 1.391 . S
C1099 C1098 1.386 . S
C1099 C1103 1.393 . S
C1100 H1089 0.950 . S
C1100 C1098 1.391 . S
C1100 C1101 1.400 . S
C1101 C1095 1.491 . S
C1101 C1100 1.400 . S
C1101 C1102 1.398 . S
C1102 H1090 0.950 . S
C1102 C1101 1.398 . S
C1102 C1103 1.391 . S
C1103 H1091 0.950 . S
C1103 C1099 1.393 . S
C1103 C1102 1.391 . S
C633 C241 2.219 . S
C639 C362 2.322 . S
C659 C446 2.360 . S
C653 C277 2.275 . S
C679 C512 2.251 . S
C673 C169 2.350 . S
C699 C596 2.261 . S
C693 C205 2.357 . S
C719 C351 2.331 1_565 S
C713 C97 2.189 . S
C733 C133 2.306 . S
C739 C435 2.344 . S
C753 C25 2.291 . S
C759 C523 2.250 . S
C773 C61 2.302 . S
C779 C607 2.255 . S
C799 C358 0.623 1_455 S
C793 C211 0.645 . S
C819 C442 0.598 1_545 S
C813 C247 0.570 . S
C839 C514 0.583 . S
C833 C253 0.578 . S
C853 C175 0.658 . S
C859 C598 0.584 . S
C873 C67 0.696 1_556 S
C879 C346 0.626 . S
C899 C430 0.596 . S
C893 C103 0.592 1_556 S
C919 C526 0.574 . S
C913 C109 0.568 1_556 S
C933 C31 0.643 1_556 S
C939 C610 0.595 . S
C953 C181 2.795 . S
C959 C355 2.898 . S
C973 C217 2.727 . S
C979 C439 2.843 . S
C999 C519 2.914 . S
C993 C283 2.540 . S
C1019 C603 2.937 . S
C1013 C145 2.659 . S
C1033 C37 2.758 . S
C1039 C344 2.908 . S
C1059 C428 2.860 . S
C1053 C73 2.713 . S
C1079 C530 2.921 . S
C1073 C139 2.569 . S
C1093 C1 2.635 . S
C1099 C614 2.943 . S
