# Generated by pormake.
# Topology pth, (4,4)-cn, num edge types: 1
# Building blocks:
#     Node 0, Type 0, BuildingBlock: NAHDIM_clean_sbu_0, # of connection points: 4
#     Node 1, Type 0, BuildingBlock: NAHDIM_clean_sbu_0, # of connection points: 4
#     Node 2, Type 0, BuildingBlock: NAHDIM_clean_sbu_0, # of connection points: 4
#     Node 3, Type 1, BuildingBlock: MIFKUJ_clean_linker_1, # of connection points: 4
#     Node 4, Type 1, BuildingBlock: MIFKUJ_clean_linker_1, # of connection points: 4
#     Node 5, Type 1, BuildingBlock: MIFKUJ_clean_linker_1, # of connection points: 4
#     Edge 6, Type (0, 1), BuildingBlock: UVAHIK_clean_linker_0, # of connection points: 2
#     Edge 7, Type (0, 1), BuildingBlock: UVAHIK_clean_linker_0, # of connection points: 2
#     Edge 8, Type (0, 1), BuildingBlock: UVAHIK_clean_linker_0, # of connection points: 2
#     Edge 9, Type (0, 1), BuildingBlock: UVAHIK_clean_linker_0, # of connection points: 2
#     Edge 10, Type (0, 1), BuildingBlock: UVAHIK_clean_linker_0, # of connection points: 2
#     Edge 11, Type (0, 1), BuildingBlock: UVAHIK_clean_linker_0, # of connection points: 2
#     Edge 12, Type (0, 1), BuildingBlock: UVAHIK_clean_linker_0, # of connection points: 2
#     Edge 13, Type (0, 1), BuildingBlock: UVAHIK_clean_linker_0, # of connection points: 2
#     Edge 14, Type (0, 1), BuildingBlock: UVAHIK_clean_linker_0, # of connection points: 2
#     Edge 15, Type (0, 1), BuildingBlock: UVAHIK_clean_linker_0, # of connection points: 2
#     Edge 16, Type (0, 1), BuildingBlock: UVAHIK_clean_linker_0, # of connection points: 2
#     Edge 17, Type (0, 1), BuildingBlock: UVAHIK_clean_linker_0, # of connection points: 2
# Relax obj value: 0.043
# Max RMSD: 0.165
# Mean RMSD: 0.094
data_MOF--net-pth--node1-NAHDIM_clean_sbu_0--node2-MIFKUJ_clean_linker_1--edge1-UVAHIK_clean_linker_0
_symmetry_space_group_name_H-M    P1
_symmetry_Int_Tables_number       1
_symmetry_cell_setting            triclinic
loop_
_symmetry_equiv_pos_as_xyz
'x, y, z'
_cell_length_a     36.742909
_cell_length_b     36.984212
_cell_length_c     77.974561
_cell_angle_alpha  91.78027
_cell_angle_beta   89.957012
_cell_angle_gamma 120.57792
loop_
_atom_site_label
_atom_site_type_symbol
_atom_site_fract_x
_atom_site_fract_y
_atom_site_fract_z
_atom_type_partial_charge
C0 C 0.04572 -0.00392 0.06614 0.0
O1 O 0.04487 0.02859 0.07292 0.0
O2 O 0.01016 0.05848 0.04942 0.0
Zn3 Zn 0.02736 0.02411 0.03494 0.0
O4 O 0.97857 0.9862 0.01915 0.0
C5 C 0.10687 0.0979 0.02796 0.0
O6 O 0.1057 0.1058 0.04443 0.0
O7 O 0.04039 0.98877 0.05002 0.0
C8 C 0.98292 0.98122 0.00324 0.0
O9 O 0.02085 0.00113 -0.00334 0.0
C10 C 0.00571 0.08691 0.04274 0.0
O11 O 0.01143 0.09267 0.02619 0.0
O12 O 0.0775 0.06367 0.02121 0.0
C13 C 0.03045 0.0984 0.34257 0.0
O14 O -0.00448 0.0619 0.344 0.0
O15 O 0.03238 0.00714 0.34886 0.0
Zn16 Zn 0.05138 0.0566 0.36545 0.0
O17 O 0.00403 0.04677 0.38119 0.0
C18 C 0.1059 0.03421 0.38199 0.0
O19 O 0.0777 -0.00237 0.3751 0.0
O20 O 0.06296 0.10573 0.35124 0.0
C21 C -0.00049 0.03317 0.39627 0.0
O22 O 0.02679 0.02371 0.40242 0.0
C23 C 0.00187 0.97029 0.3514 0.0
O24 O 0.98079 0.96274 0.36574 0.0
O25 O 0.10229 0.06606 0.37941 0.0
C26 C 0.09379 0.01136 0.69143 0.0
O27 O 0.10357 0.04876 0.69759 0.0
O28 O 0.97748 -0.00319 0.69188 0.0
Zn29 Zn 0.01625 0.99001 0.70788 0.0
O30 O 0.0481 0.04144 0.72341 0.0
C31 C 0.98421 0.94186 0.7385 0.0
O32 O 0.01669 0.97487 0.74593 0.0
O33 O 0.05737 0.98015 0.69429 0.0
C34 C 0.03629 0.06768 0.72685 0.0
O35 O 0.00138 0.06228 0.71975 0.0
C36 C 0.98748 0.01253 0.67716 0.0
O37 O 0.02605 0.02651 0.67168 0.0
O38 O 0.97911 0.94072 0.72233 0.0
H39 H 0.03786 0.49098 0.16526 0.0
H40 H 0.03687 0.4371 0.14601 0.0
H41 H 0.92496 0.342 0.17065 0.0
H42 H 0.92578 0.39609 0.1898 0.0
H43 H 0.9857 0.51705 0.16815 0.0
H44 H 0.04348 0.46376 0.20614 0.0
H45 H 0.05353 0.41381 0.22226 0.0
H46 H 0.9353 0.37398 0.24783 0.0
H47 H 0.92495 0.42346 0.23134 0.0
H48 H 0.91152 0.53468 0.22927 0.0
H49 H 0.90788 0.58923 0.24644 0.0
H50 H 0.03488 0.68001 0.23148 0.0
H51 H 0.03781 0.62546 0.2141 0.0
H52 H 0.97198 0.50748 0.23137 0.0
H53 H 0.92929 0.57994 0.19134 0.0
H54 H 0.9403 0.64201 0.1764 0.0
H55 H 0.05684 0.65833 0.15595 0.0
H56 H 0.04619 0.59699 0.1711 0.0
C57 C 0.98199 0.44759 0.17902 0.0
C58 C 0.0131 0.45853 0.16653 0.0
C59 C 0.01246 0.42776 0.15552 0.0
C60 C 0.98072 0.38541 0.15679 0.0
C61 C 0.95003 0.37435 0.1695 0.0
C62 C 0.95052 0.40521 0.18045 0.0
C63 C 0.98132 0.48077 0.18996 0.0
C64 C 0.98312 0.51509 0.182 0.0
C65 C 0.9782 0.47844 0.20802 0.0
C66 C 0.98321 0.44697 0.2174 0.0
C67 C 0.01944 0.44387 0.21505 0.0
C68 C 0.02537 0.41565 0.2244 0.0
C69 C -0.00475 0.39004 0.23633 0.0
C70 C 0.95885 0.393 0.23859 0.0
C71 C 0.953 0.42138 0.22927 0.0
C72 C 0.97474 0.57622 0.22032 0.0
C73 C 0.93855 0.56635 0.22976 0.0
C74 C 0.93659 0.59753 0.23959 0.0
C75 C 0.971 0.63905 0.24025 0.0
C76 C 0.0075 0.64857 0.23097 0.0
C77 C 0.00936 0.61742 0.22112 0.0
C78 C 0.97611 0.54343 0.2095 0.0
C79 C 0.97422 0.50909 0.21751 0.0
C80 C 0.98151 0.54695 0.19155 0.0
C81 C 0.98709 0.584 0.18244 0.0
C82 C 0.9574 0.59715 0.18378 0.0
C83 C 0.96369 0.63255 0.17524 0.0
C84 C -0.00061 0.65489 0.16501 0.0
C85 C 0.0288 0.64143 0.16359 0.0
C86 C 0.02274 0.6064 0.17224 0.0
H87 H 0.61532 0.07128 0.50592 0.0
H88 H 0.67299 0.07387 0.48926 0.0
H89 H 0.64177 0.95251 0.50767 0.0
H90 H 0.58422 0.95014 0.52429 0.0
H91 H 0.53207 0.01905 0.50487 0.0
H92 H 0.642 0.06349 0.54637 0.0
H93 H 0.69873 0.06301 0.56246 0.0
H94 H 0.60906 0.94061 0.58109 0.0
H95 H 0.55233 0.94147 0.56502 0.0
H96 H 0.4382 0.93891 0.56512 0.0
H97 H 0.38326 0.93598 0.58372 0.0
H98 H 0.41289 0.05856 0.56743 0.0
H99 H 0.46874 0.06186 0.5493 0.0
H100 H 0.52197 0.9941 0.56729 0.0
H101 H 0.41059 0.95526 0.52491 0.0
H102 H 0.35804 0.96213 0.50837 0.0
H103 H 0.4563 0.08279 0.49132 0.0
H104 H 0.50837 0.07634 0.50835 0.0
C105 C 0.59576 0.01073 0.51647 0.0
C106 C 0.6208 0.04516 0.50629 0.0
C107 C 0.65367 0.04656 0.49676 0.0
C108 C 0.66201 0.01345 0.49721 0.0
C109 C 0.63658 0.9788 0.50728 0.0
C110 C 0.60365 0.97738 0.51676 0.0
C111 C 0.56138 0.00962 0.52682 0.0
C112 C 0.5301 0.01412 0.51856 0.0
C113 C 0.55868 0.00287 0.54464 0.0
C114 C 0.59302 0.00233 0.55438 0.0
C115 C 0.63464 0.0364 0.55381 0.0
C116 C 0.66705 0.03603 0.56297 0.0
C117 C 0.65843 0.0017 0.57301 0.0
C118 C 0.61664 0.96771 0.57363 0.0
C119 C 0.58422 0.96809 0.56443 0.0
C120 C 0.45736 0.00046 0.55574 0.0
C121 C 0.43273 0.96508 0.56553 0.0
C122 C 0.40113 0.96331 0.57604 0.0
C123 C 0.39369 -0.00297 0.57704 0.0
C124 C 0.41812 0.03226 0.56707 0.0
C125 C 0.44976 0.03401 0.55657 0.0
C126 C 0.49222 0.00294 0.5453 0.0
C127 C 0.52378 -0.00114 0.55359 0.0
C128 C 0.49561 0.01104 0.52758 0.0
C129 C 0.46335 0.01544 0.51797 0.0
C130 C 0.42068 0.98344 0.51781 0.0
C131 C 0.39076 0.98724 0.50821 0.0
C132 C 0.40301 0.023 0.49851 0.0
C133 C 0.44573 0.05512 0.49882 0.0
C134 C 0.47559 0.05131 0.50843 0.0
H135 H 0.4347 0.46974 0.83659 0.0
H136 H 0.37547 0.40997 0.82153 0.0
H137 H 0.28805 0.43356 0.84985 0.0
H138 H 0.34771 0.49426 0.86461 0.0
H139 H 0.4629 0.54986 0.83736 0.0
H140 H 0.41549 0.44465 0.87737 0.0
H141 H 0.37129 0.38888 0.89669 0.0
H142 H 0.34474 0.47457 0.92532 0.0
H143 H 0.38922 0.53048 0.90585 0.0
H144 H 0.50798 0.65147 0.89964 0.0
H145 H 0.57099 0.70719 0.91476 0.0
H146 H 0.64616 0.66033 0.89116 0.0
H147 H 0.58314 0.60489 0.87607 0.0
H148 H 0.47231 0.56372 0.90092 0.0
H149 H 0.5409 0.67272 0.8585 0.0
H150 H 0.60458 0.71951 0.84266 0.0
H151 H 0.6042 0.61155 0.81963 0.0
H152 H 0.54116 0.56507 0.83564 0.0
C153 C 0.39564 0.48637 0.85177 0.0
C154 C 0.4028 0.46225 0.83949 0.0
C155 C 0.3689 0.42784 0.83101 0.0
C156 C 0.32709 0.41689 0.8346 0.0
C157 C 0.31993 0.44138 0.84676 0.0
C158 C 0.35394 0.47584 0.85528 0.0
C159 C 0.43196 0.52236 0.86093 0.0
C160 C 0.46489 0.55286 0.85126 0.0
C161 C 0.43485 0.52609 0.87906 0.0
C162 C 0.40514 0.49158 0.89001 0.0
C163 C 0.39942 0.45123 0.88757 0.0
C164 C 0.37418 0.41936 0.89865 0.0
C165 C 0.35447 0.42729 0.91252 0.0
C166 C 0.35986 0.46762 0.91484 0.0
C167 C 0.38506 0.49951 0.9037 0.0
C168 C 0.54106 0.62447 0.88659 0.0
C169 C 0.53807 0.65326 0.89776 0.0
C170 C 0.57404 0.68497 0.90641 0.0
C171 C 0.61357 0.68827 0.90407 0.0
C172 C 0.61632 0.65908 0.89298 0.0
C173 C 0.58034 0.62733 0.8844 0.0
C174 C 0.50297 0.59111 0.87734 0.0
C175 C 0.46965 0.5612 0.88702 0.0
C176 C 0.50078 0.58672 0.85922 0.0
C177 C 0.53653 0.6154 0.84839 0.0
C178 C 0.5545 0.65918 0.85001 0.0
C179 C 0.59087 0.68584 0.84099 0.0
C180 C 0.60943 0.66914 0.82999 0.0
C181 C 0.59039 0.62531 0.82789 0.0
C182 C 0.55433 0.59872 0.83702 0.0
C183 C -0.0023 0.14989 0.04683 0.0
C184 C -0.00293 0.1149 0.0537 0.0
C185 C 0.9922 0.17781 0.05744 0.0
C186 C 0.95227 0.18874 0.09954 0.0
H187 H 0.032 0.30759 0.09482 0.0
C188 C 0.9719 0.31445 0.15048 0.0
C189 C 0.97926 0.35311 0.14463 0.0
C190 C 0.97143 0.28445 0.13899 0.0
C191 C 0.00906 0.27457 0.09616 0.0
H192 H 0.98902 0.08112 0.077 0.0
H193 H 0.97949 0.12991 0.09548 0.0
H194 H 0.03482 0.25656 0.07523 0.0
H195 H 0.99041 0.39015 0.12213 0.0
H196 H 0.98918 0.33773 0.10205 0.0
H197 H 0.92655 0.20675 0.12051 0.0
C198 C 0.98401 0.13561 0.08189 0.0
C199 C 0.01071 0.24534 0.08493 0.0
C200 C 0.98971 0.10781 0.07131 0.0
C201 C 0.98543 0.36092 0.12704 0.0
C202 C 0.98474 0.3309 0.11555 0.0
C203 C 0.95048 0.218 0.11075 0.0
C204 C 0.98573 0.17118 0.07511 0.0
C205 C 0.98251 0.20212 0.08656 0.0
C206 C 0.97808 0.29245 0.1214 0.0
C207 C 0.97904 0.26125 0.10924 0.0
H208 H 0.00319 0.15617 0.03332 0.0
H209 H 0.9932 0.20473 0.05183 0.0
H210 H 0.92982 0.15562 0.10098 0.0
H211 H 0.96742 0.30776 0.16399 0.0
H212 H 0.9668 0.2554 0.14395 0.0
C213 C 0.95932 0.01527 0.42373 0.0
C214 C 0.96441 0.02931 0.40688 0.0
C215 C 0.92678 0.01292 0.43384 0.0
C216 C 0.85612 0.05613 0.43781 0.0
H217 H 0.78928 0.96029 0.46598 0.0
C218 C 0.70401 0.02914 0.47029 0.0
C219 C 0.69702 0.01499 0.48715 0.0
C220 C 0.73699 0.03068 0.46081 0.0
C221 C 0.808 0.9875 0.45834 0.0
H222 H 0.93887 0.0512 0.38732 0.0
H223 H 0.88211 0.04679 0.40488 0.0
H224 H 0.84628 0.96309 0.44886 0.0
H225 H 0.71944 0.99181 0.50736 0.0
H226 H 0.77716 0.99459 0.49081 0.0
H227 H 0.81796 0.08059 0.44724 0.0
C228 C 0.90359 0.03818 0.41038 0.0
C229 C 0.84062 0.98908 0.44854 0.0
C230 C 0.936 0.04045 0.40028 0.0
C231 C 0.72368 0.00232 0.49432 0.0
C232 C 0.75672 0.0039 0.48484 0.0
C233 C 0.82359 0.05458 0.44761 0.0
C234 C 0.89878 0.02467 0.4273 0.0
C235 C 0.86483 0.02329 0.43808 0.0
C236 C 0.76378 0.01817 0.46799 0.0
C237 C 0.79897 0.02013 0.4579 0.0
H238 H 0.9807 0.00648 0.4292 0.0
H239 H 0.92406 0.0027 0.44689 0.0
H240 H 0.87473 0.08329 0.43013 0.0
H241 H 0.68358 0.03847 0.46431 0.0
H242 H 0.74113 0.04115 0.44776 0.0
C243 C 0.95155 0.91484 0.76693 0.0
C244 C 0.95074 0.90926 0.74899 0.0
C245 C 0.91727 0.88689 0.77665 0.0
C246 C 0.82095 0.78167 0.77573 0.0
H247 H 0.77882 0.83339 0.80787 0.0
C248 C 0.65432 0.68915 0.80383 0.0
C249 C 0.64932 0.69712 0.82114 0.0
C250 C 0.69256 0.71438 0.79569 0.0
C251 C 0.79047 0.81835 0.79916 0.0
H252 H 0.91428 0.8687 0.72729 0.0
H253 H 0.85458 0.81991 0.74426 0.0
H254 H 0.84433 0.87721 0.79287 0.0
H255 H 0.68045 0.73752 0.84356 0.0
H256 H 0.74742 0.78147 0.8294 0.0
H257 H 0.76704 0.72281 0.78195 0.0
C258 C 0.88171 0.84589 0.75081 0.0
C259 C 0.82804 0.84348 0.79057 0.0
C260 C 0.91585 0.87397 0.74108 0.0
C261 C 0.68322 0.73104 0.83012 0.0
C262 C 0.72157 0.75617 0.82201 0.0
C263 C 0.78348 0.7565 0.78439 0.0
C264 C 0.88164 0.85261 0.76864 0.0
C265 C 0.84345 0.82546 0.77864 0.0
C266 C 0.72675 0.74802 0.80472 0.0
C267 C 0.76753 0.77459 0.79606 0.0
H268 H 0.978 0.94163 0.77344 0.0
H269 H 0.9183 0.8925 0.79041 0.0
H270 H 0.83234 0.76688 0.76675 0.0
H271 H 0.62853 0.6635 0.79654 0.0
H272 H 0.69517 0.70775 0.78227 0.0
C273 C 0.04515 0.96888 0.09519 0.0
C274 C 0.04846 0.96593 0.0773 0.0
C275 C 0.04371 0.93816 0.10562 0.0
C276 C 0.06794 0.85321 0.10709 0.0
H277 H 0.97664 0.80476 0.1396 0.0
C278 C 0.01826 0.69647 0.13843 0.0
C279 C 0.00602 0.69197 0.15566 0.0
C280 C 0.02552 0.73176 0.12964 0.0
C281 C 0.00274 0.81834 0.13081 0.0
H282 H 0.05459 0.92937 0.05639 0.0
H283 H 0.05238 0.87592 0.07464 0.0
H284 H 0.98765 0.86432 0.1231 0.0
H285 H 0.99198 0.72087 0.17726 0.0
H286 H 0.00524 0.78302 0.16197 0.0
H287 H 0.08318 0.80741 0.11477 0.0
C288 C 0.05086 0.90198 0.08058 0.0
C289 C 0.00899 0.85244 0.12134 0.0
C290 C 0.05192 0.93248 0.07012 0.0
C291 C 0.00095 0.72337 0.16392 0.0
C292 C 0.00852 0.7589 0.15515 0.0
C293 C 0.06191 0.81933 0.11665 0.0
C294 C 0.046 0.90412 0.09839 0.0
C295 C 0.04133 0.86987 0.10924 0.0
C296 C 0.02101 0.76356 0.13791 0.0
C297 C 0.02887 0.8011 0.12845 0.0
H298 H 0.0425 0.99429 0.10112 0.0
H299 H 0.04042 0.9408 0.11933 0.0
H300 H 0.09345 0.8664 0.09801 0.0
H301 H 0.02179 0.67242 0.13168 0.0
H302 H 0.03414 0.73382 0.11627 0.0
C303 C 0.16661 0.07431 0.40295 0.0
C304 C 0.139 0.03692 0.39367 0.0
C305 C 0.19578 0.07534 0.41481 0.0
C306 C 0.21322 0.00468 0.44145 0.0
H307 H 0.32973 0.09601 0.44439 0.0
C308 C 0.34121 0.99101 0.47793 0.0
C309 C 0.37168 0.02618 0.48761 0.0
C310 C 0.31256 0.99414 0.46723 0.0
C311 C 0.29713 0.07056 0.44389 0.0
H312 H 0.12134 0.97172 0.38915 0.0
H313 H 0.17217 0.9737 0.40959 0.0
H314 H 0.28077 0.09882 0.42401 0.0
H315 H 0.39542 0.0921 0.49388 0.0
H316 H 0.34529 0.09755 0.47515 0.0
H317 H 0.22942 0.97622 0.46119 0.0
C318 C 0.17085 0.00201 0.40799 0.0
C319 C 0.26913 0.07217 0.43221 0.0
C320 C 0.14187 0.00099 0.39617 0.0
C321 C 0.37266 0.06454 0.48642 0.0
C322 C 0.34398 0.06768 0.47569 0.0
C323 C 0.24111 0.00309 0.45311 0.0
C324 C 0.19771 0.03897 0.41762 0.0
C325 C 0.22704 0.03891 0.43069 0.0
C326 C 0.31366 0.03252 0.46595 0.0
C327 C 0.28353 0.03569 0.45429 0.0
H328 H 0.16514 0.10252 0.40132 0.0
H329 H 0.21601 0.10426 0.42209 0.0
H330 H 0.18073 0.97898 0.44085 0.0
H331 H 0.34009 0.96121 0.4783 0.0
H332 H 0.2901 0.96663 0.45967 0.0
C333 C 0.05115 0.13477 0.74209 0.0
C334 C 0.06143 0.10335 0.73908 0.0
C335 C 0.0752 0.16835 0.75371 0.0
C336 C 0.14949 0.19957 0.79051 0.0
H337 H 0.18872 0.31353 0.77705 0.0
C338 C 0.29204 0.34255 0.82314 0.0
C339 C 0.29128 0.37993 0.82564 0.0
C340 C 0.25954 0.30833 0.81399 0.0
C341 C 0.17743 0.28188 0.78114 0.0
H342 H 0.10487 0.08246 0.74596 0.0
H343 H 0.14665 0.14087 0.7661 0.0
H344 H 0.13975 0.25447 0.75826 0.0
H345 H 0.25545 0.41052 0.82074 0.0
H346 H 0.19818 0.35033 0.80488 0.0
H347 H 0.18758 0.22682 0.81324 0.0
C348 C 0.11984 0.13941 0.75963 0.0
C349 C 0.14943 0.24808 0.77037 0.0
C350 C 0.09605 0.1061 0.74797 0.0
C351 C 0.25677 0.38203 0.8191 0.0
C352 C 0.22422 0.34774 0.80989 0.0
C353 C 0.17734 0.2333 0.80128 0.0
C354 C 0.10971 0.1709 0.76263 0.0
C355 C 0.13591 0.20661 0.77478 0.0
C356 C 0.22544 0.31062 0.80712 0.0
C357 C 0.19235 0.27486 0.79656 0.0
H358 H 0.02464 0.13352 0.73545 0.0
H359 H 0.06656 0.19208 0.75584 0.0
H360 H 0.13895 0.16791 0.7944 0.0
H361 H 0.31793 0.33978 0.8282 0.0
H362 H 0.26173 0.28041 0.81192 0.0
C363 C 0.91399 -0.00195 0.6721 0.0
C364 C 0.95515 0.01316 0.66608 0.0
C365 C 0.88282 -0.00306 0.66152 0.0
C366 C 0.86662 0.04184 0.62273 0.0
H367 H 0.75403 0.94349 0.62335 0.0
C368 C 0.73298 0.0167 0.57594 0.0
C369 C 0.69281 0.00176 0.58303 0.0
C370 C 0.76556 0.01759 0.58553 0.0
C371 C 0.78521 0.97133 0.62314 0.0
H372 H -0.00398 0.03954 0.64427 0.0
H373 H 0.94133 0.03733 0.62572 0.0
H374 H 0.81015 0.94662 0.6411 0.0
H375 H 0.6555 0.97644 0.6058 0.0
H376 H 0.71224 0.97786 0.62251 0.0
H377 H 0.84151 0.06659 0.6048 0.0
C378 C 0.93335 0.02665 0.6387 0.0
C379 C 0.81736 0.97314 0.63332 0.0
C380 C 0.96461 0.02775 0.6493 0.0
C381 C 0.68587 0.98748 0.59987 0.0
C382 C 0.7184 0.98833 0.60945 0.0
C383 C 0.83441 0.04002 0.61253 0.0
C384 C 0.89201 0.01087 0.64465 0.0
C385 C 0.85833 0.00856 0.63335 0.0
C386 C 0.75864 0.00348 0.6024 0.0
C387 C 0.79327 0.00487 0.61273 0.0
H388 H 0.90566 0.98679 0.68499 0.0
H389 H 0.85148 0.98531 0.6666 0.0
H390 H 0.89775 0.06975 0.62261 0.0
H391 H 0.73916 0.02735 0.5629 0.0
H392 H 0.79604 0.02889 0.57967 0.0
C393 C 0.94985 0.94772 0.97465 0.0
C394 C 0.94552 0.95339 0.99228 0.0
C395 C 0.91441 0.92129 0.96435 0.0
C396 C 0.79804 0.87098 0.96278 0.0
H397 H 0.80397 0.7935 0.92983 0.0
C398 C 0.64967 0.73131 0.9308 0.0
C399 C 0.65173 0.72157 0.91339 0.0
C400 C 0.68585 0.76174 0.93972 0.0
C401 C 0.80196 0.81535 0.9388 0.0
H402 H 0.90055 0.93581 0.01292 0.0
H403 H 0.83892 0.88947 0.99501 0.0
H404 H 0.86674 0.84274 0.94668 0.0
H405 H 0.69309 0.73696 0.89157 0.0
H406 H 0.75633 0.79018 0.90718 0.0
H407 H 0.73316 0.84333 0.95502 0.0
C408 C 0.86961 0.90586 0.98909 0.0
C409 C 0.83792 0.84355 0.94846 0.0
C410 C 0.905 0.93221 -0.00062 0.0
C411 C 0.69065 0.74331 0.90505 0.0
C412 C 0.72685 0.77378 0.91398 0.0
C413 C 0.76209 0.8428 0.95313 0.0
C414 C 0.87391 0.90006 0.97147 0.0
C415 C 0.83625 0.87141 0.96066 0.0
C416 C 0.72489 0.78316 0.93145 0.0
C417 C 0.76355 0.81442 0.94114 0.0
H418 H 0.98061 0.96369 0.96877 0.0
H419 H 0.91867 0.91779 0.95078 0.0
H420 H 0.79594 0.89255 0.97188 0.0
H421 H 0.62028 0.71468 0.93764 0.0
H422 H 0.68342 0.76777 0.95324 0.0
C423 C 0.96709 0.89365 0.34323 0.0
C424 C 0.99262 0.93582 0.33885 0.0
C425 C 0.96111 0.86122 0.33174 0.0
C426 C 0.01167 0.84194 0.2944 0.0
H427 H 0.90595 0.73558 0.29033 0.0
C428 C 0.98654 0.71312 0.24453 0.0
C429 C 0.96908 0.67233 0.25066 0.0
C430 C 0.98644 0.74493 0.2546 0.0
C431 C 0.9357 0.76508 0.29142 0.0
H432 H 0.03021 0.97709 0.3187 0.0
H433 H 0.01893 0.92067 0.29854 0.0
H434 H 0.91065 0.79212 0.30904 0.0
H435 H 0.93728 0.63288 0.27213 0.0
H436 H 0.93674 0.68844 0.28964 0.0
H437 H 0.03668 0.81497 0.27678 0.0
C438 C 0.00449 0.91254 0.31101 0.0
C439 C 0.93845 0.79742 0.30215 0.0
C440 C 0.01078 0.9449 0.32254 0.0
C441 C 0.95055 0.66383 0.26694 0.0
C442 C 0.95024 0.69563 0.27697 0.0
C443 C 0.00882 0.80978 0.28361 0.0
C444 C 0.98026 0.87033 0.31558 0.0
C445 C 0.97655 0.83619 0.30381 0.0
C446 C 0.96866 0.7366 0.27099 0.0
C447 C 0.9709 0.77098 0.28206 0.0
H448 H 0.95275 0.88567 0.35573 0.0
H449 H 0.9426 0.8291 0.33575 0.0
H450 H 0.04177 0.87102 0.29565 0.0
H451 H 0.00026 0.72051 0.23191 0.0
H452 H 0.00029 0.7761 0.24956 0.0
C453 C 0.11284 0.96755 0.67247 0.0
C454 C 0.12427 0.00632 0.68072 0.0
C455 C 0.14141 0.96359 0.66185 0.0
C456 C 0.25518 0.01414 0.65228 0.0
H457 H 0.21606 0.95717 0.60774 0.0
C458 C 0.37048 0.03203 0.59887 0.0
C459 C 0.3616 -0.00394 0.58891 0.0
C460 C 0.34092 0.03097 0.6104 0.0
C461 C 0.22738 0.97269 0.62023 0.0
H462 H 0.17483 0.07114 0.68449 0.0
H463 H 0.2244 0.06425 0.66596 0.0
H464 H 0.16555 0.95876 0.62766 0.0
H465 H 0.31438 0.9309 0.58307 0.0
H466 H 0.26291 0.92887 0.60343 0.0
H467 H 0.31701 0.02839 0.64485 0.0
C468 C 0.19355 0.03681 0.6678 0.0
C469 C 0.19844 0.97357 0.63163 0.0
C470 C 0.165 0.04081 0.67834 0.0
C471 C 0.32232 0.95904 0.59067 0.0
C472 C 0.29269 0.95799 0.60221 0.0
C473 C 0.28407 0.01322 0.64091 0.0
C474 C 0.18203 -0.00175 0.65936 0.0
C475 C 0.21214 0.99478 0.6477 0.0
C476 C 0.30176 0.99391 0.61227 0.0
C477 C 0.2706 0.99296 0.62466 0.0
H478 H 0.08169 0.94036 0.67406 0.0
H479 H 0.13178 0.93338 0.65563 0.0
H480 H 0.26659 0.0301 0.66469 0.0
H481 H 0.40062 0.06091 0.59797 0.0
H482 H 0.34867 0.05935 0.61779 0.0
C483 C 0.16781 0.17066 0.02393 0.0
C484 C 0.13867 0.13058 0.01696 0.0
C485 C 0.19469 0.20289 0.01324 0.0
C486 C 0.23829 0.22434 0.96944 0.0
H487 H 0.24634 0.33215 0.97774 0.0
C488 C 0.30279 0.35221 0.91903 0.0
C489 C 0.32983 0.39396 0.92487 0.0
C490 C 0.28121 0.32048 0.93069 0.0
C491 C 0.24488 0.30243 0.97537 0.0
H492 H 0.1161 0.09242 0.99338 0.0
H493 H 0.16277 0.14862 0.97477 0.0
H494 H 0.20754 0.27581 -0.00243 0.0
H495 H 0.3555 0.43514 0.94753 0.0
H496 H 0.3177 0.37976 0.96788 0.0
H497 H 0.27526 0.25085 0.94714 0.0
C498 C 0.16507 0.15513 0.98849 0.0
C499 C 0.22271 0.27016 0.98675 0.0
C500 C 0.13816 0.12295 -0.00084 0.0
C501 C 0.33439 0.40338 0.94262 0.0
C502 C 0.31281 0.37164 0.95428 0.0
C503 C 0.26046 0.25662 0.95807 0.0
C504 C 0.19308 0.19566 0.99537 0.0
C505 C 0.21888 0.23064 0.98384 0.0
C506 C 0.28619 0.32979 0.94845 0.0
C507 C 0.26369 0.29591 0.96082 0.0
H508 H 0.16912 0.17754 0.03759 0.0
H509 H 0.21639 0.23363 0.01895 0.0
H510 H 0.23639 0.19444 0.96698 0.0
H511 H 0.29815 0.34406 0.90543 0.0
H512 H 0.26031 0.28868 0.92578 0.0
C513 C 0.06773 0.16924 0.32926 0.0
C514 C 0.03113 0.12973 0.33103 0.0
C515 C 0.06752 0.19845 0.3183 0.0
C516 C 0.00825 0.20584 0.28147 0.0
H517 H 0.05782 0.32239 0.29686 0.0
C518 C 0.9688 0.31972 0.24909 0.0
C519 C 0.00212 0.36079 0.24654 0.0
C520 C 0.97526 0.29225 0.25876 0.0
C521 C 0.04432 0.29006 0.29229 0.0
H522 H 0.96564 0.08997 0.32272 0.0
H523 H 0.9652 0.14074 0.30392 0.0
H524 H 0.06465 0.27321 0.31487 0.0
H525 H 0.06825 0.40545 0.25228 0.0
H526 H 0.07962 0.35729 0.26907 0.0
H527 H 0.98729 0.22246 0.25905 0.0
C528 C -0.00573 0.14907 0.31072 0.0
C529 C 0.04829 0.26191 0.30259 0.0
C530 C -0.00554 0.12003 0.32163 0.0
C531 C 0.04206 0.37383 0.25388 0.0
C532 C 0.04847 0.34642 0.26363 0.0
C533 C 0.0042 0.2339 0.27122 0.0
C534 C 0.03075 0.18858 0.30889 0.0
C535 C 0.02972 0.21934 0.2974 0.0
C536 C 0.01515 0.30531 0.26616 0.0
C537 C 0.02166 0.27617 0.27662 0.0
H538 H 0.09649 0.17761 0.33632 0.0
H539 H 0.09621 0.22856 0.31708 0.0
H540 H -0.00569 0.17342 0.27695 0.0
H541 H 0.93777 0.30867 0.24349 0.0
H542 H 0.94883 0.26091 0.26064 0.0
loop_
_geom_bond_atom_site_label_1
_geom_bond_atom_site_label_2
_geom_bond_distance
_geom_bond_site_symmetry_2
_ccdc_geom_bond_type
C0 O1 1.160 . S
C0 O7 1.185 . S
O1 C0 1.160 . S
O2 Zn3 1.899 . S
O2 C10 1.284 . S
Zn3 O2 1.899 . S
Zn3 O4 2.032 1_445 S
Zn3 O7 2.086 1_545 S
Zn3 O12 1.977 . S
O4 Zn3 2.032 1_665 S
O4 C8 1.278 . S
C5 O6 1.203 . S
C5 O12 1.267 . S
O6 C5 1.203 . S
O7 C0 1.185 . S
O7 Zn3 2.086 1_565 S
C8 O4 1.278 . S
C8 O9 1.211 1_565 S
O9 C8 1.211 1_545 S
C10 O2 1.284 . S
C10 O11 1.273 1_455 S
O11 C10 1.273 1_655 S
O12 Zn3 1.977 . S
O12 C5 1.267 . S
C13 O14 1.160 . S
C13 O20 1.185 . S
O14 C13 1.160 . S
O15 Zn16 1.899 . S
O15 C23 1.284 1_545 S
Zn16 O15 1.899 . S
Zn16 O17 2.032 1_455 S
Zn16 O20 2.086 . S
Zn16 O25 1.977 . S
O17 Zn16 2.032 1_655 S
O17 C21 1.278 . S
C18 O19 1.203 . S
C18 O25 1.267 . S
O19 C18 1.203 . S
O20 C13 1.185 . S
O20 Zn16 2.086 . S
C21 O17 1.278 . S
C21 O22 1.211 . S
O22 C21 1.211 . S
C23 O15 1.284 1_565 S
C23 O24 1.273 1_455 S
O24 C23 1.273 1_655 S
O25 Zn16 1.977 . S
O25 C18 1.267 . S
C26 O27 1.165 . S
C26 O33 1.184 1_545 S
O27 C26 1.165 . S
O28 Zn29 1.899 1_655 S
O28 C36 1.284 . S
Zn29 O28 1.899 1_455 S
Zn29 O30 2.032 . S
Zn29 O33 2.086 1_545 S
Zn29 O38 1.977 1_445 S
O30 Zn29 2.032 . S
O30 C34 1.278 . S
C31 O32 1.203 . S
C31 O38 1.267 . S
O32 C31 1.203 . S
O33 C26 1.184 1_565 S
O33 Zn29 2.086 1_565 S
C34 O30 1.278 . S
C34 O35 1.211 . S
O35 C34 1.211 . S
C36 O28 1.284 . S
C36 O37 1.273 . S
O37 C36 1.273 . S
O38 Zn29 1.977 1_665 S
O38 C31 1.267 . S
H39 C58 0.949 . S
H40 C59 0.950 . S
H41 C61 0.950 . S
H42 C62 0.950 . S
H43 C64 0.950 . S
H44 C67 0.950 . S
H45 C68 0.950 . S
H46 C70 0.951 . S
H47 C71 0.949 . S
H48 C73 0.949 . S
H49 C74 0.950 . S
H50 C76 0.950 . S
H51 C77 0.950 . S
H52 C79 0.950 1_655 S
H53 C82 0.950 . S
H54 C83 0.950 . S
H55 C85 0.951 . S
H56 C86 0.949 . S
C57 C58 1.376 . S
C57 C62 1.386 1_455 S
C57 C63 1.483 . S
C58 H39 0.949 . S
C58 C57 1.376 . S
C58 C59 1.397 . S
C59 H40 0.950 . S
C59 C58 1.397 . S
C59 C60 1.391 . S
C60 C59 1.391 . S
C60 C61 1.405 1_455 S
C61 H41 0.950 . S
C61 C60 1.405 1_655 S
C61 C62 1.367 . S
C62 H42 0.950 . S
C62 C57 1.386 1_655 S
C62 C61 1.367 . S
C63 C57 1.483 . S
C63 C64 1.382 . S
C63 C65 1.403 . S
C64 H43 0.950 . S
C64 C63 1.382 . S
C64 C80 1.411 . S
C65 C63 1.403 . S
C65 C66 1.489 . S
C65 C79 1.411 . S
C66 C65 1.489 . S
C66 C67 1.383 . S
C66 C71 1.382 1_455 S
C67 H44 0.950 . S
C67 C66 1.383 . S
C67 C68 1.395 . S
C68 H45 0.950 . S
C68 C67 1.395 . S
C68 C69 1.288 . S
C69 C68 1.288 . S
C69 C70 1.392 1_455 S
C70 H46 0.951 . S
C70 C69 1.392 1_655 S
C70 C71 1.392 . S
C71 H47 0.949 . S
C71 C66 1.382 1_655 S
C71 C70 1.392 . S
C72 C73 1.376 1_455 S
C72 C77 1.386 . S
C72 C78 1.483 . S
C73 H48 0.949 . S
C73 C72 1.376 1_655 S
C73 C74 1.397 . S
C74 H49 0.950 . S
C74 C73 1.397 . S
C74 C75 1.391 1_655 S
C75 C74 1.391 1_455 S
C75 C76 1.405 . S
C76 H50 0.950 . S
C76 C75 1.405 . S
C76 C77 1.367 . S
C77 H51 0.950 . S
C77 C72 1.386 . S
C77 C76 1.367 . S
C78 C72 1.483 . S
C78 C79 1.382 . S
C78 C80 1.403 . S
C79 H52 0.950 1_455 S
C79 C65 1.411 . S
C79 C78 1.382 . S
C80 C64 1.411 . S
C80 C78 1.403 . S
C80 C81 1.489 . S
C81 C80 1.489 . S
C81 C82 1.383 1_455 S
C81 C86 1.382 . S
C82 H53 0.950 . S
C82 C81 1.383 1_655 S
C82 C83 1.395 . S
C83 H54 0.950 . S
C83 C82 1.395 . S
C83 C84 1.288 1_655 S
C84 C83 1.288 1_455 S
C84 C85 1.392 . S
C85 H55 0.951 . S
C85 C84 1.392 . S
C85 C86 1.392 . S
C86 H56 0.949 . S
C86 C81 1.382 . S
C86 C85 1.392 . S
H87 C106 0.949 . S
H88 C107 0.950 . S
H89 C109 0.950 . S
H90 C110 0.950 . S
H91 C112 0.950 . S
H92 C115 0.950 . S
H93 C116 0.950 . S
H94 C118 0.951 . S
H95 C119 0.949 . S
H96 C121 0.949 . S
H97 C122 0.950 . S
H98 C124 0.950 . S
H99 C125 0.950 . S
H100 C127 0.950 . S
H101 C130 0.950 . S
H102 C131 0.950 . S
H103 C133 0.951 . S
H104 C134 0.949 . S
C105 C106 1.376 . S
C105 C110 1.386 1_545 S
C105 C111 1.483 . S
C106 H87 0.949 . S
C106 C105 1.376 . S
C106 C107 1.397 . S
C107 H88 0.950 . S
C107 C106 1.397 . S
C107 C108 1.391 . S
C108 C107 1.391 . S
C108 C109 1.405 1_545 S
C109 H89 0.950 . S
C109 C108 1.405 1_565 S
C109 C110 1.367 . S
C110 H90 0.950 . S
C110 C105 1.386 1_565 S
C110 C109 1.367 . S
C111 C105 1.483 . S
C111 C112 1.382 . S
C111 C113 1.403 . S
C112 H91 0.950 . S
C112 C111 1.382 . S
C112 C128 1.411 . S
C113 C111 1.403 . S
C113 C114 1.489 . S
C113 C127 1.411 . S
C114 C113 1.489 . S
C114 C115 1.383 . S
C114 C119 1.382 1_545 S
C115 H92 0.950 . S
C115 C114 1.383 . S
C115 C116 1.395 . S
C116 H93 0.950 . S
C116 C115 1.395 . S
C116 C117 1.288 . S
C117 C116 1.288 . S
C117 C118 1.392 1_545 S
C118 H94 0.951 . S
C118 C117 1.392 1_565 S
C118 C119 1.392 . S
C119 H95 0.949 . S
C119 C114 1.382 1_565 S
C119 C118 1.392 . S
C120 C121 1.376 1_545 S
C120 C125 1.386 . S
C120 C126 1.483 . S
C121 H96 0.949 . S
C121 C120 1.376 1_565 S
C121 C122 1.397 . S
C122 H97 0.950 . S
C122 C121 1.397 . S
C122 C123 1.391 1_565 S
C123 C122 1.391 1_545 S
C123 C124 1.405 . S
C124 H98 0.950 . S
C124 C123 1.405 . S
C124 C125 1.367 . S
C125 H99 0.950 . S
C125 C120 1.386 . S
C125 C124 1.367 . S
C126 C120 1.483 . S
C126 C127 1.382 . S
C126 C128 1.403 . S
C127 H100 0.950 . S
C127 C113 1.411 . S
C127 C126 1.382 . S
C128 C112 1.411 . S
C128 C126 1.403 . S
C128 C129 1.489 . S
C129 C128 1.489 . S
C129 C130 1.383 1_545 S
C129 C134 1.382 . S
C130 H101 0.950 . S
C130 C129 1.383 1_565 S
C130 C131 1.395 . S
C131 H102 0.950 . S
C131 C130 1.395 . S
C131 C132 1.288 1_565 S
C132 C131 1.288 1_545 S
C132 C133 1.392 . S
C133 H103 0.951 . S
C133 C132 1.392 . S
C133 C134 1.392 . S
C134 H104 0.949 . S
C134 C129 1.382 . S
C134 C133 1.392 . S
H135 C154 0.949 . S
H136 C155 0.950 . S
H137 C157 0.950 . S
H138 C158 0.950 . S
H139 C160 0.950 . S
H140 C163 0.950 . S
H141 C164 0.950 . S
H142 C166 0.951 . S
H143 C167 0.949 . S
H144 C169 0.949 . S
H145 C170 0.950 . S
H146 C172 0.950 . S
H147 C173 0.950 . S
H148 C175 0.950 . S
H149 C178 0.950 . S
H150 C179 0.950 . S
H151 C181 0.951 . S
H152 C182 0.949 . S
C153 C154 1.376 . S
C153 C158 1.386 . S
C153 C159 1.483 . S
C154 H135 0.949 . S
C154 C153 1.376 . S
C154 C155 1.397 . S
C155 H136 0.950 . S
C155 C154 1.397 . S
C155 C156 1.391 . S
C156 C155 1.391 . S
C156 C157 1.405 . S
C157 H137 0.950 . S
C157 C156 1.405 . S
C157 C158 1.367 . S
C158 H138 0.950 . S
C158 C153 1.386 . S
C158 C157 1.367 . S
C159 C153 1.483 . S
C159 C160 1.382 . S
C159 C161 1.403 . S
C160 H139 0.950 . S
C160 C159 1.382 . S
C160 C176 1.411 . S
C161 C159 1.403 . S
C161 C162 1.489 . S
C161 C175 1.411 . S
C162 C161 1.489 . S
C162 C163 1.383 . S
C162 C167 1.382 . S
C163 H140 0.950 . S
C163 C162 1.383 . S
C163 C164 1.395 . S
C164 H141 0.950 . S
C164 C163 1.395 . S
C164 C165 1.288 . S
C165 C164 1.288 . S
C165 C166 1.392 . S
C166 H142 0.951 . S
C166 C165 1.392 . S
C166 C167 1.392 . S
C167 H143 0.949 . S
C167 C162 1.382 . S
C167 C166 1.392 . S
C168 C169 1.376 . S
C168 C173 1.386 . S
C168 C174 1.483 . S
C169 H144 0.949 . S
C169 C168 1.376 . S
C169 C170 1.397 . S
C170 H145 0.950 . S
C170 C169 1.397 . S
C170 C171 1.391 . S
C171 C170 1.391 . S
C171 C172 1.405 . S
C172 H146 0.950 . S
C172 C171 1.405 . S
C172 C173 1.367 . S
C173 H147 0.950 . S
C173 C168 1.386 . S
C173 C172 1.367 . S
C174 C168 1.483 . S
C174 C175 1.382 . S
C174 C176 1.403 . S
C175 H148 0.950 . S
C175 C161 1.411 . S
C175 C174 1.382 . S
C176 C160 1.411 . S
C176 C174 1.403 . S
C176 C177 1.489 . S
C177 C176 1.489 . S
C177 C178 1.383 . S
C177 C182 1.382 . S
C178 H149 0.950 . S
C178 C177 1.383 . S
C178 C179 1.395 . S
C179 H150 0.950 . S
C179 C178 1.395 . S
C179 C180 1.288 . S
C180 C179 1.288 . S
C180 C181 1.392 . S
C181 H151 0.951 . S
C181 C180 1.392 . S
C181 C182 1.392 . S
C182 H152 0.949 . S
C182 C177 1.382 . S
C182 C181 1.392 . S
C183 C184 1.349 . S
C183 C185 1.327 . S
C183 H208 0.950 . S
C184 C183 1.349 . S
C184 C200 1.349 . S
C185 C183 1.327 . S
C185 C204 1.429 . S
C185 H209 0.950 . S
C186 C203 1.574 . S
C186 C205 1.368 . S
C186 H210 0.947 . S
H187 C191 0.949 . S
C188 C189 1.349 . S
C188 C190 1.327 . S
C188 H211 0.950 . S
C189 C188 1.349 . S
C189 C201 1.349 . S
C190 C188 1.327 . S
C190 C206 1.429 . S
C190 H212 0.939 . S
C191 H187 0.949 . S
C191 C199 1.574 . S
C191 C207 1.368 . S
H192 C200 0.951 1_655 S
H193 C198 0.950 . S
H194 C199 0.949 . S
H195 C201 0.950 . S
H196 C202 0.950 . S
H197 C203 0.950 . S
C198 H193 0.950 . S
C198 C200 1.327 . S
C198 C204 1.429 . S
C199 C191 1.574 . S
C199 H194 0.949 . S
C199 C205 1.368 . S
C200 C184 1.349 . S
C200 H192 0.951 1_455 S
C200 C198 1.327 . S
C201 C189 1.349 . S
C201 H195 0.950 . S
C201 C202 1.327 . S
C202 H196 0.950 . S
C202 C201 1.327 . S
C202 C206 1.429 . S
C203 C186 1.574 . S
C203 H197 0.950 . S
C203 C207 1.368 . S
C204 C185 1.429 . S
C204 C198 1.429 . S
C204 C205 1.523 . S
C205 C186 1.368 . S
C205 C199 1.368 . S
C205 C204 1.523 . S
C206 C190 1.429 . S
C206 C202 1.429 . S
C206 C207 1.523 . S
C207 C191 1.368 . S
C207 C203 1.368 . S
C207 C206 1.523 . S
H208 C183 0.950 . S
H209 C185 0.950 . S
H210 C186 0.947 . S
H211 C188 0.950 . S
H212 C190 0.939 . S
C213 C214 1.349 1_565 S
C213 C215 1.327 . S
C213 H238 0.950 . S
C214 C213 1.349 1_545 S
C214 C230 1.349 . S
C215 C213 1.327 . S
C215 C234 1.429 1_565 S
C215 H239 0.950 . S
C216 C233 1.574 . S
C216 C235 1.368 . S
C216 H240 0.949 . S
H217 C221 0.949 . S
C218 C219 1.349 . S
C218 C220 1.327 . S
C218 H241 0.950 . S
C219 C218 1.349 . S
C219 C231 1.349 1_545 S
C220 C218 1.327 . S
C220 C236 1.429 . S
C220 H242 0.950 . S
C221 H217 0.949 . S
C221 C229 1.574 . S
C221 C237 1.368 1_565 S
H222 C230 0.950 . S
H223 C228 0.950 . S
H224 C229 0.949 . S
H225 C231 0.950 . S
H226 C232 0.950 . S
H227 C233 0.949 . S
C228 H223 0.950 . S
C228 C230 1.327 . S
C228 C234 1.429 . S
C229 C221 1.574 . S
C229 H224 0.949 . S
C229 C235 1.368 1_565 S
C230 C214 1.349 . S
C230 H222 0.950 . S
C230 C228 1.327 . S
C231 C219 1.349 1_565 S
C231 H225 0.950 . S
C231 C232 1.327 . S
C232 H226 0.950 . S
C232 C231 1.327 . S
C232 C236 1.429 1_565 S
C233 C216 1.574 . S
C233 H227 0.949 . S
C233 C237 1.368 . S
C234 C215 1.429 1_545 S
C234 C228 1.429 . S
C234 C235 1.523 . S
C235 C216 1.368 . S
C235 C229 1.368 1_545 S
C235 C234 1.523 . S
C236 C220 1.429 . S
C236 C232 1.429 1_545 S
C236 C237 1.523 . S
C237 C221 1.368 1_545 S
C237 C233 1.368 . S
C237 C236 1.523 . S
H238 C213 0.950 . S
H239 C215 0.950 . S
H240 C216 0.949 . S
H241 C218 0.950 . S
H242 C220 0.950 . S
C243 C244 1.349 . S
C243 C245 1.327 . S
C243 H268 0.950 . S
C244 C243 1.349 . S
C244 C260 1.349 . S
C245 C243 1.327 . S
C245 C264 1.429 . S
C245 H269 0.950 . S
C246 C263 1.574 . S
C246 C265 1.368 . S
C246 H270 0.949 . S
H247 C251 0.949 . S
C248 C249 1.349 . S
C248 C250 1.327 . S
C248 H271 0.950 . S
C249 C248 1.349 . S
C249 C261 1.349 . S
C250 C248 1.327 . S
C250 C266 1.429 . S
C250 H272 0.950 . S
C251 H247 0.949 . S
C251 C259 1.574 . S
C251 C267 1.368 . S
H252 C260 0.950 . S
H253 C258 0.950 . S
H254 C259 0.949 . S
H255 C261 0.950 . S
H256 C262 0.950 . S
H257 C263 0.949 . S
C258 H253 0.950 . S
C258 C260 1.327 . S
C258 C264 1.429 . S
C259 C251 1.574 . S
C259 H254 0.949 . S
C259 C265 1.368 . S
C260 C244 1.349 . S
C260 H252 0.950 . S
C260 C258 1.327 . S
C261 C249 1.349 . S
C261 H255 0.950 . S
C261 C262 1.327 . S
C262 H256 0.950 . S
C262 C261 1.327 . S
C262 C266 1.429 . S
C263 C246 1.574 . S
C263 H257 0.949 . S
C263 C267 1.368 . S
C264 C245 1.429 . S
C264 C258 1.429 . S
C264 C265 1.523 . S
C265 C246 1.368 . S
C265 C259 1.368 . S
C265 C264 1.523 . S
C266 C250 1.429 . S
C266 C262 1.429 . S
C266 C267 1.523 . S
C267 C251 1.368 . S
C267 C263 1.368 . S
C267 C266 1.523 . S
H268 C243 0.950 . S
H269 C245 0.950 . S
H270 C246 0.949 . S
H271 C248 0.950 . S
H272 C250 0.950 . S
C273 C274 1.349 . S
C273 C275 1.327 . S
C273 H298 0.950 . S
C274 C273 1.349 . S
C274 C290 1.349 . S
C275 C273 1.327 . S
C275 C294 1.429 . S
C275 H299 0.950 . S
C276 C293 1.574 . S
C276 C295 1.368 . S
C276 H300 0.949 . S
H277 C281 0.949 1_655 S
C278 C279 1.349 . S
C278 C280 1.327 . S
C278 H301 0.950 . S
C279 C278 1.349 . S
C279 C291 1.349 1_455 S
C280 C278 1.327 . S
C280 C296 1.429 . S
C280 H302 0.950 . S
C281 H277 0.949 1_455 S
C281 C289 1.574 . S
C281 C297 1.368 . S
H282 C290 0.950 . S
H283 C288 0.950 . S
H284 C289 0.949 1_655 S
H285 C291 0.950 . S
H286 C292 0.950 . S
H287 C293 0.949 . S
C288 H283 0.950 . S
C288 C290 1.327 . S
C288 C294 1.429 . S
C289 C281 1.574 . S
C289 H284 0.949 1_455 S
C289 C295 1.368 . S
C290 C274 1.349 . S
C290 H282 0.950 . S
C290 C288 1.327 . S
C291 C279 1.349 1_655 S
C291 H285 0.950 . S
C291 C292 1.327 . S
C292 H286 0.950 . S
C292 C291 1.327 . S
C292 C296 1.429 1_655 S
C293 C276 1.574 . S
C293 H287 0.949 . S
C293 C297 1.368 . S
C294 C275 1.429 . S
C294 C288 1.429 . S
C294 C295 1.523 . S
C295 C276 1.368 . S
C295 C289 1.368 . S
C295 C294 1.523 . S
C296 C280 1.429 . S
C296 C292 1.429 1_455 S
C296 C297 1.523 . S
C297 C281 1.368 . S
C297 C293 1.368 . S
C297 C296 1.523 . S
H298 C273 0.950 . S
H299 C275 0.950 . S
H300 C276 0.949 . S
H301 C278 0.950 . S
H302 C280 0.950 . S
C303 C304 1.349 . S
C303 C305 1.327 . S
C303 H328 0.950 . S
C304 C303 1.349 . S
C304 C320 1.349 . S
C305 C303 1.327 . S
C305 C324 1.429 . S
C305 H329 0.950 . S
C306 C323 1.574 . S
C306 C325 1.368 . S
C306 H330 0.949 1_545 S
H307 C311 0.949 . S
C308 C309 1.349 1_565 S
C308 C310 1.327 . S
C308 H331 0.950 . S
C309 C308 1.349 1_545 S
C309 C321 1.349 . S
C310 C308 1.327 . S
C310 C326 1.429 1_565 S
C310 H332 0.950 . S
C311 H307 0.949 . S
C311 C319 1.574 . S
C311 C327 1.368 . S
H312 C320 0.950 1_565 S
H313 C318 0.950 1_565 S
H314 C319 0.949 . S
H315 C321 0.950 . S
H316 C322 0.950 . S
H317 C323 0.949 1_565 S
C318 H313 0.950 1_545 S
C318 C320 1.327 . S
C318 C324 1.429 . S
C319 C311 1.574 . S
C319 H314 0.949 . S
C319 C325 1.368 . S
C320 C304 1.349 . S
C320 H312 0.950 1_545 S
C320 C318 1.327 . S
C321 C309 1.349 . S
C321 H315 0.950 . S
C321 C322 1.327 . S
C322 H316 0.950 . S
C322 C321 1.327 . S
C322 C326 1.429 . S
C323 C306 1.574 . S
C323 H317 0.949 1_545 S
C323 C327 1.368 . S
C324 C305 1.429 . S
C324 C318 1.429 . S
C324 C325 1.523 . S
C325 C306 1.368 . S
C325 C319 1.368 . S
C325 C324 1.523 . S
C326 C310 1.429 1_545 S
C326 C322 1.429 . S
C326 C327 1.523 . S
C327 C311 1.368 . S
C327 C323 1.368 . S
C327 C326 1.523 . S
H328 C303 0.950 . S
H329 C305 0.950 . S
H330 C306 0.949 1_565 S
H331 C308 0.950 . S
H332 C310 0.950 . S
C333 C334 1.349 . S
C333 C335 1.327 . S
C333 H358 0.950 . S
C334 C333 1.349 . S
C334 C350 1.349 . S
C335 C333 1.327 . S
C335 C354 1.429 . S
C335 H359 0.950 . S
C336 C353 1.574 . S
C336 C355 1.368 . S
C336 H360 0.949 . S
H337 C341 0.949 . S
C338 C339 1.349 . S
C338 C340 1.327 . S
C338 H361 0.950 . S
C339 C338 1.349 . S
C339 C351 1.349 . S
C340 C338 1.327 . S
C340 C356 1.429 . S
C340 H362 0.950 . S
C341 H337 0.949 . S
C341 C349 1.574 . S
C341 C357 1.368 . S
H342 C350 0.950 . S
H343 C348 0.950 . S
H344 C349 0.949 . S
H345 C351 0.950 . S
H346 C352 0.950 . S
H347 C353 0.949 . S
C348 H343 0.950 . S
C348 C350 1.327 . S
C348 C354 1.429 . S
C349 C341 1.574 . S
C349 H344 0.949 . S
C349 C355 1.368 . S
C350 C334 1.349 . S
C350 H342 0.950 . S
C350 C348 1.327 . S
C351 C339 1.349 . S
C351 H345 0.950 . S
C351 C352 1.327 . S
C352 H346 0.950 . S
C352 C351 1.327 . S
C352 C356 1.429 . S
C353 C336 1.574 . S
C353 H347 0.949 . S
C353 C357 1.368 . S
C354 C335 1.429 . S
C354 C348 1.429 . S
C354 C355 1.523 . S
C355 C336 1.368 . S
C355 C349 1.368 . S
C355 C354 1.523 . S
C356 C340 1.429 . S
C356 C352 1.429 . S
C356 C357 1.523 . S
C357 C341 1.368 . S
C357 C353 1.368 . S
C357 C356 1.523 . S
H358 C333 0.950 . S
H359 C335 0.950 . S
H360 C336 0.949 . S
H361 C338 0.950 . S
H362 C340 0.950 . S
C363 C364 1.348 . S
C363 C365 1.326 1_545 S
C363 H388 0.951 1_545 S
C364 C363 1.348 . S
C364 C380 1.349 . S
C365 C363 1.326 1_565 S
C365 C384 1.429 1_565 S
C365 H389 0.950 . S
C366 C383 1.574 . S
C366 C385 1.368 . S
C366 H390 0.949 . S
H367 C371 0.949 . S
C368 C369 1.349 . S
C368 C370 1.327 . S
C368 H391 0.950 . S
C369 C368 1.349 . S
C369 C381 1.349 1_545 S
C370 C368 1.327 . S
C370 C386 1.429 . S
C370 H392 0.950 . S
C371 H367 0.949 . S
C371 C379 1.574 . S
C371 C387 1.368 1_565 S
H372 C380 0.950 . S
H373 C378 0.950 . S
H374 C379 0.949 . S
H375 C381 0.950 . S
H376 C382 0.950 . S
H377 C383 0.949 . S
C378 H373 0.950 . S
C378 C380 1.327 . S
C378 C384 1.429 . S
C379 C371 1.574 . S
C379 H374 0.949 . S
C379 C385 1.368 1_565 S
C380 C364 1.349 . S
C380 H372 0.950 . S
C380 C378 1.327 . S
C381 C369 1.349 1_565 S
C381 H375 0.950 . S
C381 C382 1.327 . S
C382 H376 0.950 . S
C382 C381 1.327 . S
C382 C386 1.429 1_565 S
C383 C366 1.574 . S
C383 H377 0.949 . S
C383 C387 1.368 . S
C384 C365 1.429 1_545 S
C384 C378 1.429 . S
C384 C385 1.523 . S
C385 C366 1.368 . S
C385 C379 1.368 1_545 S
C385 C384 1.523 . S
C386 C370 1.429 . S
C386 C382 1.429 1_545 S
C386 C387 1.523 . S
C387 C371 1.368 1_545 S
C387 C383 1.368 . S
C387 C386 1.523 . S
H388 C363 0.951 1_565 S
H389 C365 0.950 . S
H390 C366 0.949 . S
H391 C368 0.950 . S
H392 C370 0.950 . S
C393 C394 1.349 1_556 S
C393 C395 1.327 . S
C393 H418 0.950 . S
C394 C393 1.349 1_554 S
C394 C410 1.349 . S
C395 C393 1.327 . S
C395 C414 1.429 . S
C395 H419 0.950 . S
C396 C413 1.574 . S
C396 C415 1.368 . S
C396 H420 0.949 . S
H397 C401 0.949 . S
C398 C399 1.349 . S
C398 C400 1.327 . S
C398 H421 0.950 . S
C399 C398 1.349 . S
C399 C411 1.349 . S
C400 C398 1.327 . S
C400 C416 1.429 . S
C400 H422 0.950 . S
C401 H397 0.949 . S
C401 C409 1.574 . S
C401 C417 1.368 . S
H402 C410 0.950 . S
H403 C408 0.950 . S
H404 C409 0.949 . S
H405 C411 0.950 . S
H406 C412 0.950 . S
H407 C413 0.949 . S
C408 H403 0.950 . S
C408 C410 1.327 . S
C408 C414 1.429 1_554 S
C409 C401 1.574 . S
C409 H404 0.949 . S
C409 C415 1.368 . S
C410 C394 1.349 . S
C410 H402 0.950 . S
C410 C408 1.327 . S
C411 C399 1.349 . S
C411 H405 0.950 . S
C411 C412 1.327 . S
C412 H406 0.950 . S
C412 C411 1.327 . S
C412 C416 1.429 . S
C413 C396 1.574 . S
C413 H407 0.949 . S
C413 C417 1.368 . S
C414 C395 1.429 . S
C414 C408 1.429 1_556 S
C414 C415 1.523 . S
C415 C396 1.368 . S
C415 C409 1.368 . S
C415 C414 1.523 . S
C416 C400 1.429 . S
C416 C412 1.429 . S
C416 C417 1.523 . S
C417 C401 1.368 . S
C417 C413 1.368 . S
C417 C416 1.523 . S
H418 C393 0.950 . S
H419 C395 0.950 . S
H420 C396 0.949 . S
H421 C398 0.950 . S
H422 C400 0.950 . S
C423 C424 1.349 1_655 S
C423 C425 1.327 . S
C423 H448 0.950 . S
C424 C423 1.349 1_455 S
C424 C440 1.349 . S
C425 C423 1.327 . S
C425 C444 1.429 1_655 S
C425 H449 0.950 . S
C426 C443 1.574 . S
C426 C445 1.368 . S
C426 H450 0.949 . S
H427 C431 0.949 . S
C428 C429 1.349 . S
C428 C430 1.327 . S
C428 H451 0.950 . S
C429 C428 1.349 . S
C429 C441 1.349 1_455 S
C430 C428 1.327 . S
C430 C446 1.429 . S
C430 H452 0.950 . S
C431 H427 0.949 . S
C431 C439 1.574 . S
C431 C447 1.368 1_655 S
H432 C440 0.950 . S
H433 C438 0.950 . S
H434 C439 0.949 . S
H435 C441 0.950 . S
H436 C442 0.950 . S
H437 C443 0.949 . S
C438 H433 0.950 . S
C438 C440 1.327 . S
C438 C444 1.429 . S
C439 C431 1.574 . S
C439 H434 0.949 . S
C439 C445 1.368 1_655 S
C440 C424 1.349 . S
C440 H432 0.950 . S
C440 C438 1.327 . S
C441 C429 1.349 1_655 S
C441 H435 0.950 . S
C441 C442 1.327 . S
C442 H436 0.950 . S
C442 C441 1.327 . S
C442 C446 1.429 1_655 S
C443 C426 1.574 . S
C443 H437 0.949 . S
C443 C447 1.368 . S
C444 C425 1.429 1_455 S
C444 C438 1.429 . S
C444 C445 1.523 . S
C445 C426 1.368 . S
C445 C439 1.368 1_455 S
C445 C444 1.523 . S
C446 C430 1.429 . S
C446 C442 1.429 1_455 S
C446 C447 1.523 . S
C447 C431 1.368 1_455 S
C447 C443 1.368 . S
C447 C446 1.523 . S
H448 C423 0.950 . S
H449 C425 0.950 . S
H450 C426 0.949 . S
H451 C428 0.950 . S
H452 C430 0.950 . S
C453 C454 1.349 . S
C453 C455 1.327 . S
C453 H478 0.950 . S
C454 C453 1.349 . S
C454 C470 1.349 1_565 S
C455 C453 1.327 . S
C455 C474 1.429 1_565 S
C455 H479 0.950 . S
C456 C473 1.574 . S
C456 C475 1.368 . S
C456 H480 0.949 . S
H457 C461 0.949 . S
C458 C459 1.349 . S
C458 C460 1.327 . S
C458 H481 0.950 . S
C459 C458 1.349 . S
C459 C471 1.349 1_545 S
C460 C458 1.327 . S
C460 C476 1.429 . S
C460 H482 0.950 . S
C461 H457 0.949 . S
C461 C469 1.574 . S
C461 C477 1.368 1_565 S
H462 C470 0.950 . S
H463 C468 0.950 . S
H464 C469 0.949 . S
H465 C471 0.950 . S
H466 C472 0.950 . S
H467 C473 0.949 . S
C468 H463 0.950 . S
C468 C470 1.327 . S
C468 C474 1.429 . S
C469 C461 1.574 . S
C469 H464 0.949 . S
C469 C475 1.368 1_565 S
C470 C454 1.349 1_545 S
C470 H462 0.950 . S
C470 C468 1.327 . S
C471 C459 1.349 1_565 S
C471 H465 0.950 . S
C471 C472 1.327 . S
C472 H466 0.950 . S
C472 C471 1.327 . S
C472 C476 1.429 1_565 S
C473 C456 1.574 . S
C473 H467 0.949 . S
C473 C477 1.368 . S
C474 C455 1.429 1_545 S
C474 C468 1.429 . S
C474 C475 1.523 . S
C475 C456 1.368 . S
C475 C469 1.368 1_545 S
C475 C474 1.523 . S
C476 C460 1.429 . S
C476 C472 1.429 1_545 S
C476 C477 1.523 . S
C477 C461 1.368 1_545 S
C477 C473 1.368 . S
C477 C476 1.523 . S
H478 C453 0.950 . S
H479 C455 0.950 . S
H480 C456 0.949 . S
H481 C458 0.950 . S
H482 C460 0.950 . S
C483 C484 1.349 . S
C483 C485 1.327 . S
C483 H508 0.950 . S
C484 C483 1.349 . S
C484 C500 1.349 1_554 S
C485 C483 1.327 . S
C485 C504 1.429 1_554 S
C485 H509 0.950 . S
C486 C503 1.574 . S
C486 C505 1.368 . S
C486 H510 0.949 . S
H487 C491 0.949 . S
C488 C489 1.349 . S
C488 C490 1.327 . S
C488 H511 0.950 . S
C489 C488 1.349 . S
C489 C501 1.349 . S
C490 C488 1.327 . S
C490 C506 1.429 . S
C490 H512 0.950 . S
C491 H487 0.949 . S
C491 C499 1.574 . S
C491 C507 1.368 . S
H492 C500 0.950 . S
H493 C498 0.950 . S
H494 C499 0.949 . S
H495 C501 0.950 . S
H496 C502 0.950 . S
H497 C503 0.949 . S
C498 H493 0.950 . S
C498 C500 1.327 . S
C498 C504 1.429 . S
C499 C491 1.574 . S
C499 H494 0.949 . S
C499 C505 1.368 . S
C500 C484 1.349 1_556 S
C500 H492 0.950 . S
C500 C498 1.327 . S
C501 C489 1.349 . S
C501 H495 0.950 . S
C501 C502 1.327 . S
C502 H496 0.950 . S
C502 C501 1.327 . S
C502 C506 1.429 . S
C503 C486 1.574 . S
C503 H497 0.949 . S
C503 C507 1.368 . S
C504 C485 1.429 1_556 S
C504 C498 1.429 . S
C504 C505 1.523 . S
C505 C486 1.368 . S
C505 C499 1.368 . S
C505 C504 1.523 . S
C506 C490 1.429 . S
C506 C502 1.429 . S
C506 C507 1.523 . S
C507 C491 1.368 . S
C507 C503 1.368 . S
C507 C506 1.523 . S
H508 C483 0.950 . S
H509 C485 0.950 . S
H510 C486 0.949 . S
H511 C488 0.950 . S
H512 C490 0.950 . S
C513 C514 1.349 . S
C513 C515 1.327 . S
C513 H538 0.950 . S
C514 C513 1.349 . S
C514 C530 1.349 . S
C515 C513 1.327 . S
C515 C534 1.429 . S
C515 H539 0.950 . S
C516 C533 1.574 1_455 S
C516 C535 1.368 . S
C516 H540 0.949 1_455 S
H517 C521 0.949 . S
C518 C519 1.349 1_655 S
C518 C520 1.327 . S
C518 H541 0.950 . S
C519 C518 1.349 1_455 S
C519 C531 1.349 . S
C520 C518 1.327 . S
C520 C536 1.429 1_655 S
C520 H542 0.950 . S
C521 H517 0.949 . S
C521 C529 1.574 . S
C521 C537 1.368 . S
H522 C530 0.949 1_655 S
H523 C528 0.950 1_655 S
H524 C529 0.949 . S
H525 C531 0.950 . S
H526 C532 0.950 . S
H527 C533 0.949 . S
C528 H523 0.950 1_455 S
C528 C530 1.327 . S
C528 C534 1.429 . S
C529 C521 1.574 . S
C529 H524 0.949 . S
C529 C535 1.368 . S
C530 C514 1.349 . S
C530 H522 0.949 1_455 S
C530 C528 1.327 . S
C531 C519 1.349 . S
C531 H525 0.950 . S
C531 C532 1.327 . S
C532 H526 0.950 . S
C532 C531 1.327 . S
C532 C536 1.429 . S
C533 C516 1.574 1_655 S
C533 H527 0.949 . S
C533 C537 1.368 1_655 S
C534 C515 1.429 . S
C534 C528 1.429 . S
C534 C535 1.523 . S
C535 C516 1.368 . S
C535 C529 1.368 . S
C535 C534 1.523 . S
C536 C520 1.429 1_455 S
C536 C532 1.429 . S
C536 C537 1.523 . S
C537 C521 1.368 . S
C537 C533 1.368 1_455 S
C537 C536 1.523 . S
H538 C513 0.950 . S
H539 C515 0.950 . S
H540 C516 0.949 1_655 S
H541 C518 0.950 . S
H542 C520 0.950 . S
C189 C60 1.389 . S
C184 C10 1.387 . S
C214 C21 1.422 . S
C219 C108 1.450 . S
C244 C31 1.370 . S
C249 C180 1.420 . S
C274 C0 1.369 . S
C279 C84 1.398 . S
C309 C132 1.432 . S
C304 C18 1.378 . S
C334 C34 1.389 . S
C339 C156 1.413 . S
C369 C117 1.365 . S
C364 C36 1.366 . S
C394 C8 1.390 . S
C399 C171 1.417 . S
C429 C75 1.392 . S
C424 C23 1.390 . S
C459 C123 1.355 . S
C454 C26 1.315 1_565 S
C489 C165 1.438 . S
C484 C5 1.371 . S
C514 C13 1.371 . S
C519 C69 1.411 . S
