# Generated by pormake.
# Topology pth, (4,4)-cn, num edge types: 1
# Building blocks:
#     Node 0, Type 0, BuildingBlock: CEKHIL_clean_sbu_0, # of connection points: 4
#     Node 1, Type 0, BuildingBlock: CEKHIL_clean_sbu_0, # of connection points: 4
#     Node 2, Type 0, BuildingBlock: CEKHIL_clean_sbu_0, # of connection points: 4
#     Node 3, Type 1, BuildingBlock: MIFKUJ_clean_linker_1, # of connection points: 4
#     Node 4, Type 1, BuildingBlock: MIFKUJ_clean_linker_1, # of connection points: 4
#     Node 5, Type 1, BuildingBlock: MIFKUJ_clean_linker_1, # of connection points: 4
#     Edge 6, Type (0, 1), BuildingBlock: AJUNOK_clean_linker_0, # of connection points: 2
#     Edge 7, Type (0, 1), BuildingBlock: AJUNOK_clean_linker_0, # of connection points: 2
#     Edge 8, Type (0, 1), BuildingBlock: AJUNOK_clean_linker_0, # of connection points: 2
#     Edge 9, Type (0, 1), BuildingBlock: AJUNOK_clean_linker_0, # of connection points: 2
#     Edge 10, Type (0, 1), BuildingBlock: AJUNOK_clean_linker_0, # of connection points: 2
#     Edge 11, Type (0, 1), BuildingBlock: AJUNOK_clean_linker_0, # of connection points: 2
#     Edge 12, Type (0, 1), BuildingBlock: AJUNOK_clean_linker_0, # of connection points: 2
#     Edge 13, Type (0, 1), BuildingBlock: AJUNOK_clean_linker_0, # of connection points: 2
#     Edge 14, Type (0, 1), BuildingBlock: AJUNOK_clean_linker_0, # of connection points: 2
#     Edge 15, Type (0, 1), BuildingBlock: AJUNOK_clean_linker_0, # of connection points: 2
#     Edge 16, Type (0, 1), BuildingBlock: AJUNOK_clean_linker_0, # of connection points: 2
#     Edge 17, Type (0, 1), BuildingBlock: AJUNOK_clean_linker_0, # of connection points: 2
# Relax obj value: 0.014
# Max RMSD: 0.064
# Mean RMSD: 0.055
data_MOF--net-pth--node1-CEKHIL_clean_sbu_0--node2-MIFKUJ_clean_linker_1--edge1-AJUNOK_clean_linker_0
_symmetry_space_group_name_H-M    P1
_symmetry_Int_Tables_number       1
_symmetry_cell_setting            triclinic
loop_
_symmetry_equiv_pos_as_xyz
'x, y, z'
_cell_length_a     22.69055
_cell_length_b     22.761816
_cell_length_c     49.642374
_cell_angle_alpha  90.976979
_cell_angle_beta   90.174594
_cell_angle_gamma 120.32607
loop_
_atom_site_label
_atom_site_type_symbol
_atom_site_fract_x
_atom_site_fract_y
_atom_site_fract_z
_atom_type_partial_charge
Co0 Co 0.03746 0.04026 0.06343 0.0
O1 O 0.99294 0.97324 0.09082 0.0
O2 O 0.07938 0.98456 0.06647 0.0
C3 C 0.04617 0.12852 0.0885 0.0
O4 O 0.09946 0.10541 0.03474 0.0
Co5 Co 0.97005 0.11655 0.03902 0.0
O6 O 0.05672 0.16907 0.01941 0.0
C7 C 0.9187 0.97326 0.02325 0.0
C8 C 0.03624 0.95336 0.08562 0.0
C9 C 0.10296 0.15307 0.01999 0.0
O10 O 0.97047 0.97553 0.03511 0.0
O11 O 0.90644 0.02227 0.02459 0.0
O12 O 0.09073 0.10908 0.0912 0.0
O13 O 0.99572 0.0913 0.07228 0.0
Co14 Co 0.01364 0.03876 0.37721 0.0
O15 O 0.96914 0.06121 0.34961 0.0
O16 O 0.05698 0.13688 0.37424 0.0
C17 C 0.02176 0.95934 0.35235 0.0
O18 O 0.07513 0.03471 0.40653 0.0
Co19 Co 0.94366 0.89448 0.40065 0.0
O20 O 0.03138 0.92662 0.4199 0.0
C21 C 0.90043 0.99061 0.41895 0.0
C22 C 0.01307 0.12464 0.35491 0.0
C23 C 0.07812 0.989 0.42048 0.0
O24 O 0.94769 0.03779 0.40487 0.0
O25 O 0.88829 0.92927 0.4189 0.0
O26 O 0.06675 0.02344 0.35024 0.0
O27 O 0.97037 0.94538 0.3676 0.0
Co28 Co 0.0163 0.03879 0.71216 0.0
O29 O 0.08639 0.0811 0.6856 0.0
O30 O 0.06973 0.99399 0.71027 0.0
C31 C 0.93106 0.03063 0.68555 0.0
O32 O 0.94785 0.98026 0.74081 0.0
Co33 Co 0.94153 0.11155 0.73363 0.0
O34 O 0.88148 0.02408 0.75133 0.0
C35 C 0.08232 0.15826 0.7523 0.0
C36 C 0.10365 0.03643 0.69133 0.0
C37 C 0.89718 0.97796 0.75349 0.0
O38 O 0.07982 0.10606 0.74058 0.0
O39 O 0.03442 0.17211 0.75011 0.0
O40 O 0.94929 0.98504 0.68405 0.0
O41 O 0.96805 0.08198 0.70149 0.0
H42 H 0.15869 0.51073 0.17471 0.0
H43 H 0.15722 0.42156 0.14574 0.0
H44 H 0.95831 0.27655 0.17562 0.0
H45 H 0.95946 0.36584 0.20427 0.0
H46 H 0.06933 0.55693 0.17141 0.0
H47 H 0.13662 0.45086 0.24003 0.0
H48 H 0.12744 0.36075 0.26929 0.0
H49 H 0.93477 0.32906 0.29855 0.0
H50 H 0.9431 0.41748 0.26892 0.0
H51 H 0.94911 0.58499 0.27175 0.0
H52 H 0.94628 0.67033 0.30107 0.0
H53 H 0.11964 0.82883 0.2597 0.0
H54 H 0.1265 0.7428 0.23221 0.0
H55 H 0.03402 0.54758 0.27002 0.0
H56 H 0.94933 0.63027 0.1989 0.0
H57 H 0.94417 0.71147 0.16868 0.0
H58 H 0.15247 0.7827 0.14524 0.0
H59 H 0.15588 0.699 0.17447 0.0
C60 C 0.05938 0.44488 0.19178 0.0
C61 C 0.11501 0.45959 0.17517 0.0
C62 C 0.11422 0.40872 0.1587 0.0
C63 C 0.05734 0.3425 0.15824 0.0
C64 C 1.00235 0.32747 0.17531 0.0
C65 C 1.00331 0.37822 0.19189 0.0
C66 C 0.05763 0.50028 0.20731 0.0
C67 C 0.06256 0.55542 0.19307 0.0
C68 C 0.04623 0.497 0.23539 0.0
C69 C 0.04015 0.44045 0.252 0.0
C70 C 0.09192 0.42378 0.25243 0.0
C71 C 0.087 0.37285 0.26934 0.0
C72 C 0.03013 0.33759 0.28602 0.0
C73 C 0.97859 0.35453 0.28559 0.0
C74 C 0.98353 0.40533 0.26876 0.0
C75 C 0.03794 0.65703 0.24959 0.0
C76 C 0.98692 0.63808 0.26905 0.0
C77 C 0.98498 0.68709 0.28573 0.0
C78 C 0.03343 0.75652 0.28313 0.0
C79 C 0.08283 0.77573 0.2629 0.0
C80 C 0.08576 0.72648 0.24663 0.0
C81 C 0.04392 0.60363 0.2341 0.0
C82 C 0.04047 0.54914 0.24835 0.0
C83 C 0.05458 0.6064 0.20593 0.0
C84 C 0.05302 0.65869 0.18896 0.0
C85 C 0.99386 0.66348 0.18726 0.0
C86 C 0.99105 0.70997 0.16997 0.0
C87 C 0.04754 0.753 0.15414 0.0
C88 C 0.10724 0.74896 0.1564 0.0
C89 C 0.10961 0.7017 0.17336 0.0
H90 H 0.67883 0.15219 0.51234 0.0
H91 H 0.76342 0.1449 0.48406 0.0
H92 H 0.66724 0.92986 0.5 0.0
H93 H 0.58618 0.9389 0.52951 0.0
H94 H 0.52425 0.0605 0.50479 0.0
H95 H 0.70822 0.13087 0.56993 0.0
H96 H 0.7946 0.1253 0.5978 0.0
H97 H 0.63915 0.93327 0.62898 0.0
H98 H 0.55327 0.93822 0.6007 0.0
H99 H 0.39375 0.94806 0.60831 0.0
H100 H 0.31001 0.94618 0.63922 0.0
H101 H 0.31368 0.11251 0.59703 0.0
H102 H 0.40334 0.11935 0.56811 0.0
H103 H 0.51454 0.03062 0.60364 0.0
H104 H 0.33648 0.94211 0.53463 0.0
H105 H 0.24542 0.93394 0.50557 0.0
H106 H 0.3766 0.1427 0.48234 0.0
H107 H 0.46875 0.14894 0.51034 0.0
C108 C 0.62666 0.04617 0.52308 0.0
C109 C 0.67654 0.10372 0.50981 0.0
C110 C 0.72427 0.09919 0.49338 0.0
C111 C 0.72168 0.03651 0.48934 0.0
C112 C 0.67137 0.9791 0.5028 0.0
C113 C 0.62475 0.98402 0.51961 0.0
C114 C 0.57424 0.04955 0.53963 0.0
C115 C 0.52248 0.05511 0.5265 0.0
C116 C 0.57091 0.03998 0.56774 0.0
C117 C 0.62435 0.03461 0.583 0.0
C118 C 0.69296 0.08692 0.58235 0.0
C119 C 0.74211 0.08402 0.59845 0.0
C120 C 0.72358 0.02866 0.61541 0.0
C121 C 0.65507 0.97598 0.61578 0.0
C122 C 0.60595 0.97899 0.59976 0.0
C123 C 0.40493 0.03341 0.58547 0.0
C124 C 0.37676 0.98435 0.60565 0.0
C125 C 0.3277 0.9825 0.62314 0.0
C126 C 0.30385 0.02839 0.62044 0.0
C127 C 0.33092 0.07649 0.59984 0.0
C128 C 0.38147 0.07959 0.58284 0.0
C129 C 0.46233 0.03917 0.56884 0.0
C130 C 0.51564 0.03591 0.58195 0.0
C131 C 0.46596 0.04881 0.54059 0.0
C132 C 0.40921 0.04614 0.52468 0.0
C133 C 0.34544 0.98614 0.52334 0.0
C134 C 0.29341 0.98169 0.50674 0.0
C135 C 0.30376 0.03743 0.4913 0.0
C136 C 0.36735 0.09813 0.49327 0.0
C137 C 0.41984 0.10209 0.50951 0.0
H138 H 0.48183 0.3877 0.83212 0.0
H139 H 0.38402 0.31076 0.80338 0.0
H140 H 0.25359 0.3566 0.85157 0.0
H141 H 0.35194 0.43542 0.87962 0.0
H142 H 0.53167 0.52226 0.83679 0.0
H143 H 0.4241 0.33088 0.89739 0.0
H144 H 0.33171 0.24843 0.92581 0.0
H145 H 0.34564 0.41311 0.9749 0.0
H146 H 0.43483 0.49556 0.94587 0.0
H147 H 0.63256 0.71312 0.89777 0.0
H148 H 0.71343 0.80792 0.92667 0.0
H149 H 0.76619 0.67408 0.96722 0.0
H150 H 0.68754 0.57981 0.93729 0.0
H151 H 0.55406 0.52702 0.93618 0.0
H152 H 0.56039 0.64827 0.83634 0.0
H153 H 0.63639 0.74342 0.80826 0.0
H154 H 0.80984 0.73581 0.83975 0.0
H155 H 0.73299 0.63896 0.86773 0.0
C156 C 0.42426 0.41715 0.85812 0.0
C157 C 0.43204 0.38077 0.83662 0.0
C158 C 0.37614 0.33664 0.82028 0.0
C159 C 0.3114 0.3284 0.825 0.0
C160 C 0.30317 0.36298 0.84712 0.0
C161 C 0.35916 0.40735 0.86339 0.0
C162 C 0.48528 0.46978 0.87331 0.0
C163 C 0.53688 0.52292 0.85855 0.0
C164 C 0.49108 0.47134 0.9018 0.0
C165 C 0.43637 0.41986 0.91919 0.0
C166 C 0.40682 0.34947 0.91403 0.0
C167 C 0.3545 0.30234 0.93036 0.0
C168 C 0.33234 0.32476 0.95257 0.0
C169 C 0.36257 0.39476 0.95805 0.0
C170 C 0.41363 0.44178 0.94146 0.0
C171 C 0.65433 0.63927 0.9151 0.0
C172 C 0.66281 0.70439 0.91234 0.0
C173 C 0.70826 0.75836 0.9292 0.0
C174 C 0.74512 0.74807 0.94959 0.0
C175 C 0.73846 0.68353 0.95173 0.0
C176 C 0.69336 0.62963 0.93469 0.0
C177 C 0.59974 0.57992 0.89969 0.0
C178 C 0.54932 0.52556 0.91439 0.0
C179 C 0.59311 0.57882 0.87128 0.0
C180 C 0.64088 0.63661 0.85433 0.0
C181 C 0.6147 0.66664 0.83717 0.0
C182 C 0.6582 0.72133 0.82125 0.0
C183 C 0.72902 0.74744 0.82209 0.0
C184 C 0.75539 0.71663 0.83879 0.0
C185 C 0.71165 0.66175 0.85489 0.0
C186 C 0.10572 0.22417 0.12237 0.0
C187 C 0.04971 0.18551 0.10483 0.0
C188 C 0.10832 0.27546 0.13932 0.0
C189 C 0.05472 0.28957 0.13957 0.0
H190 H 0.14762 0.21427 0.12328 0.0
H191 H 0.15195 0.30332 0.15274 0.0
S192 S 0.89884 0.2068 0.09635 0.0
N193 N 0.94084 0.16763 0.08793 0.0
N194 N 0.946 0.26383 0.11981 0.0
C195 C 0.99922 0.25251 0.12176 0.0
C196 C 0.99669 0.20063 0.10437 0.0
C197 C 0.84076 0.97788 0.46235 0.0
C198 C 0.85883 0.0075 0.43687 0.0
C199 C 0.79839 0.98945 0.47937 0.0
C200 C 0.77101 0.03003 0.47144 0.0
H201 H 0.85962 0.9454 0.46925 0.0
H202 H 0.78664 0.96585 0.49889 0.0
S203 S 0.80167 0.11783 0.40612 0.0
N204 N 0.84716 0.07972 0.40445 0.0
N205 N 0.76474 0.09919 0.43584 0.0
C206 C 0.78932 0.06057 0.44599 0.0
C207 C 0.83379 0.04979 0.42886 0.0
C208 C 0.86098 0.86109 0.77096 0.0
C209 C 0.85595 0.92039 0.77184 0.0
C210 C 0.82114 0.80583 0.7877 0.0
C211 C 0.77467 0.80774 0.80589 0.0
H212 H 0.89513 0.85674 0.75693 0.0
H213 H 0.82548 0.76067 0.78593 0.0
S214 S 0.74688 0.95289 0.81849 0.0
N215 N 0.80373 0.97874 0.79427 0.0
N216 N 0.7296 0.87519 0.82541 0.0
C217 C 0.77067 0.86722 0.80763 0.0
C218 C 0.81101 0.9234 0.79072 0.0
C219 C 0.01119 0.88827 0.12815 0.0
C220 C 0.03838 0.90058 0.10204 0.0
C221 C 0.01445 0.8407 0.14473 0.0
C222 C 0.04431 0.80272 0.13582 0.0
H223 H 0.98836 0.91665 0.13613 0.0
H224 H 0.99431 0.8345 0.16489 0.0
S225 S 0.11725 0.81126 0.0681 0.0
N226 N 0.09344 0.86885 0.06754 0.0
N227 N 0.09743 0.77759 0.09827 0.0
C228 C 0.07024 0.81338 0.10945 0.0
C229 C 0.06775 0.86265 0.09269 0.0
C230 C 0.12574 0.98528 0.46517 0.0
C231 C 0.13714 0.00867 0.43863 0.0
C232 C 0.18006 0.997 0.48224 0.0
C233 C 0.24801 0.03131 0.47328 0.0
H234 H 0.07419 0.95709 0.47275 0.0
H235 H 0.16851 0.97816 0.50256 0.0
S236 S 0.30416 0.10037 0.40484 0.0
N237 N 0.22055 0.06774 0.40398 0.0
N238 N 0.32297 0.08741 0.43553 0.0
C239 C 0.26004 0.05561 0.44672 0.0
C240 C 0.20454 0.04477 0.42952 0.0
C241 C 0.18381 0.17962 0.78053 0.0
C242 C 0.14206 0.20334 0.76999 0.0
C243 C 0.23838 0.22018 0.79829 0.0
C244 C 0.25337 0.28604 0.8062 0.0
H245 H 0.17363 0.12884 0.77544 0.0
H246 H 0.26846 0.19943 0.8062 0.0
S247 S 0.16478 0.37523 0.78226 0.0
N248 N 0.12288 0.29923 0.76751 0.0
N249 N 0.22555 0.37513 0.80056 0.0
C250 C 0.21331 0.31109 0.79529 0.0
C251 C 0.15775 0.2699 0.77728 0.0
C252 C 0.86615 0.0837 0.66743 0.0
C253 C 0.8757 0.02727 0.66839 0.0
C254 C 0.81711 0.08377 0.65018 0.0
C255 C 0.77524 0.02718 0.6334 0.0
H256 H 0.89742 0.12871 0.67982 0.0
H257 H 0.81162 0.12837 0.6501 0.0
S258 S 0.77912 0.86645 0.62824 0.0
N259 N 0.83847 0.91291 0.65106 0.0
N260 N 0.74645 0.91331 0.6187 0.0
C261 C 0.78359 0.97013 0.63435 0.0
C262 C 0.83378 0.97012 0.6518 0.0
C263 C 0.89644 0.87296 0.99373 0.0
C264 C 0.87244 0.91293 1.00611 0.0
C265 C 0.85497 0.81939 0.97564 0.0
C266 C 0.78795 0.8037 0.96932 0.0
H267 H 0.94825 0.8843 0.99743 0.0
H268 H 0.87605 0.79103 0.96609 0.0
S269 S 0.69759 0.8866 0.99904 0.0
N270 N 0.77507 0.92892 0.01246 0.0
N271 N 0.69735 0.82802 0.97891 0.0
C272 C 0.76249 0.84143 0.9824 0.0
C273 C 0.80461 0.896 1.00066 0.0
C274 C 0.96608 0.85064 0.3255 0.0
C275 C 0.02588 0.90659 0.33618 0.0
C276 C 0.96909 0.80275 0.3083 0.0
C277 C 0.03198 0.80826 0.30153 0.0
H278 H 0.91668 0.84494 0.32977 0.0
H279 H 0.92171 0.76172 0.29986 0.0
S280 S 0.2027 0.94156 0.32726 0.0
N281 N 0.14929 0.96312 0.34033 0.0
N282 N 0.15514 0.87144 0.30913 0.0
C283 C 0.09204 0.86292 0.313 0.0
C284 C 0.08892 0.9124 0.33007 0.0
C285 C 0.21328 0.09258 0.6665 0.0
C286 C 0.15671 0.03246 0.67556 0.0
C287 C 0.26097 0.0906 0.6492 0.0
C288 C 0.25316 0.02834 0.63964 0.0
H289 H 0.22064 0.1417 0.67278 0.0
H290 H 0.30426 0.13848 0.64321 0.0
S291 S 0.11053 0.85624 0.65625 0.0
N292 N 0.09453 0.90897 0.67367 0.0
N293 N 0.18193 0.90472 0.63999 0.0
C294 C 0.19637 0.96767 0.64859 0.0
C295 C 0.1487 0.96986 0.66679 0.0
C296 C 0.1536 0.19762 0.97515 0.0
C297 C 0.16294 0.19145 1.00277 0.0
C298 C 0.20927 0.23844 0.95872 0.0
C299 C 0.27581 0.27581 0.96955 0.0
H300 H 0.10277 0.17124 0.96626 0.0
H301 H 0.19994 0.2428 0.93763 0.0
S302 S 0.3272 0.27732 0.04061 0.0
N303 N 0.24368 0.22489 0.04009 0.0
N304 N 0.34812 0.30369 1.00941 0.0
C305 C 0.28587 0.26957 0.99705 0.0
C306 C 0.22944 0.22675 0.01363 0.0
C307 C 0.07373 0.24471 0.33852 0.0
C308 C 0.01499 0.17948 0.33846 0.0
C309 C 0.0785 0.2955 0.32143 0.0
C310 C 0.02439 0.2832 0.30389 0.0
H311 H 0.11697 0.25628 0.35145 0.0
H312 H 0.12476 0.34489 0.32203 0.0
S313 S 0.85904 0.12163 0.2962 0.0
N314 N 0.90104 0.106 0.31952 0.0
N315 N 0.91037 0.2012 0.28749 0.0
C316 C 0.96511 0.2186 0.30389 0.0
C317 C 0.96033 0.16685 0.32113 0.0
loop_
_geom_bond_atom_site_label_1
_geom_bond_atom_site_label_2
_geom_bond_distance
_geom_bond_site_symmetry_2
_ccdc_geom_bond_type
Co0 O1 2.216 1_445 S
Co0 O2 2.091 1_545 S
Co0 O4 2.004 . S
Co0 O10 2.021 1_445 S
Co0 O12 2.137 . S
Co0 O13 2.244 1_455 S
O1 Co0 2.216 1_665 S
O1 C8 1.247 1_655 S
O2 Co0 2.091 1_565 S
O2 C8 1.261 . S
C3 O12 1.247 . S
C3 O13 1.272 1_455 S
O4 Co0 2.004 . S
O4 C9 1.259 . S
Co5 O6 2.061 1_655 S
Co5 O11 2.052 . S
Co5 O13 2.135 . S
O6 Co5 2.061 1_455 S
O6 C9 1.235 . S
C7 O10 1.238 . S
C7 O11 1.241 1_565 S
C8 O1 1.247 1_455 S
C8 O2 1.261 . S
C9 O4 1.259 . S
C9 O6 1.235 . S
O10 Co0 2.021 1_665 S
O10 C7 1.238 . S
O11 Co5 2.052 . S
O11 C7 1.241 1_545 S
O12 Co0 2.137 . S
O12 C3 1.247 . S
O13 Co0 2.244 1_655 S
O13 C3 1.272 1_655 S
O13 Co5 2.135 . S
Co14 O15 2.216 1_455 S
Co14 O16 2.091 . S
Co14 O18 2.004 . S
Co14 O24 2.021 1_455 S
Co14 O26 2.137 . S
Co14 O27 2.244 1_445 S
O15 Co14 2.216 1_655 S
O15 C22 1.247 1_655 S
O16 Co14 2.091 . S
O16 C22 1.261 . S
C17 O26 1.247 1_565 S
C17 O27 1.272 1_455 S
O18 Co14 2.004 . S
O18 C23 1.259 . S
Co19 O20 2.061 1_655 S
Co19 O25 2.052 . S
Co19 O27 2.135 . S
O20 Co19 2.061 1_455 S
O20 C23 1.235 1_565 S
C21 O24 1.238 . S
C21 O25 1.241 1_545 S
C22 O15 1.247 1_455 S
C22 O16 1.261 . S
C23 O18 1.259 . S
C23 O20 1.235 1_545 S
O24 Co14 2.021 1_655 S
O24 C21 1.238 . S
O25 Co19 2.052 . S
O25 C21 1.241 1_565 S
O26 Co14 2.137 . S
O26 C17 1.247 1_545 S
O27 Co14 2.244 1_665 S
O27 C17 1.272 1_655 S
O27 Co19 2.135 . S
Co28 O29 2.216 . S
Co28 O30 2.091 1_545 S
Co28 O32 2.004 1_445 S
Co28 O38 2.021 . S
Co28 O40 2.137 1_445 S
Co28 O41 2.244 1_455 S
O29 Co28 2.216 . S
O29 C36 1.247 . S
O30 Co28 2.091 1_565 S
O30 C36 1.261 1_565 S
C31 O40 1.247 1_545 S
C31 O41 1.272 . S
O32 Co28 2.004 1_665 S
O32 C37 1.259 . S
Co33 O34 2.061 1_545 S
Co33 O39 2.052 1_655 S
Co33 O41 2.135 . S
O34 Co33 2.061 1_565 S
O34 C37 1.235 . S
C35 O38 1.238 . S
C35 O39 1.241 . S
C36 O29 1.247 . S
C36 O30 1.261 1_545 S
C37 O32 1.259 . S
C37 O34 1.235 . S
O38 Co28 2.021 . S
O38 C35 1.238 . S
O39 Co33 2.052 1_455 S
O39 C35 1.241 . S
O40 Co28 2.137 1_665 S
O40 C31 1.247 1_565 S
O41 Co28 2.244 1_655 S
O41 C31 1.272 . S
O41 Co33 2.135 . S
H42 C61 0.949 . S
H43 C62 0.950 . S
H44 C64 0.950 . S
H45 C65 0.950 . S
H46 C67 0.950 . S
H47 C70 0.950 . S
H48 C71 0.950 . S
H49 C73 0.951 . S
H50 C74 0.949 . S
H51 C76 0.949 . S
H52 C77 0.950 . S
H53 C79 0.950 . S
H54 C80 0.950 . S
H55 C82 0.950 1_655 S
H56 C85 0.950 . S
H57 C86 0.950 . S
H58 C88 0.951 . S
H59 C89 0.949 . S
C60 C61 1.376 . S
C60 C65 1.386 1_455 S
C60 C66 1.483 . S
C61 H42 0.949 . S
C61 C60 1.376 . S
C61 C62 1.397 . S
C62 H43 0.950 . S
C62 C61 1.397 . S
C62 C63 1.391 . S
C63 C62 1.391 . S
C63 C64 1.405 1_455 S
C64 H44 0.950 . S
C64 C63 1.405 1_655 S
C64 C65 1.367 . S
C65 H45 0.950 . S
C65 C60 1.386 1_655 S
C65 C64 1.367 . S
C66 C60 1.483 . S
C66 C67 1.382 . S
C66 C68 1.403 . S
C67 H46 0.950 . S
C67 C66 1.382 . S
C67 C83 1.411 . S
C68 C66 1.403 . S
C68 C69 1.489 . S
C68 C82 1.411 . S
C69 C68 1.489 . S
C69 C70 1.383 . S
C69 C74 1.382 1_455 S
C70 H47 0.950 . S
C70 C69 1.383 . S
C70 C71 1.395 . S
C71 H48 0.950 . S
C71 C70 1.395 . S
C71 C72 1.288 . S
C72 C71 1.288 . S
C72 C73 1.392 1_455 S
C73 H49 0.951 . S
C73 C72 1.392 1_655 S
C73 C74 1.392 . S
C74 H50 0.949 . S
C74 C69 1.382 1_655 S
C74 C73 1.392 . S
C75 C76 1.376 1_455 S
C75 C80 1.386 . S
C75 C81 1.483 . S
C76 H51 0.949 . S
C76 C75 1.376 1_655 S
C76 C77 1.397 . S
C77 H52 0.950 . S
C77 C76 1.397 . S
C77 C78 1.391 1_655 S
C78 C77 1.391 1_455 S
C78 C79 1.405 . S
C79 H53 0.950 . S
C79 C78 1.405 . S
C79 C80 1.367 . S
C80 H54 0.950 . S
C80 C75 1.386 . S
C80 C79 1.367 . S
C81 C75 1.483 . S
C81 C82 1.382 . S
C81 C83 1.403 . S
C82 H55 0.950 1_455 S
C82 C68 1.411 . S
C82 C81 1.382 . S
C83 C67 1.411 . S
C83 C81 1.403 . S
C83 C84 1.489 . S
C84 C83 1.489 . S
C84 C85 1.383 1_455 S
C84 C89 1.382 . S
C85 H56 0.950 . S
C85 C84 1.383 1_655 S
C85 C86 1.395 . S
C86 H57 0.950 . S
C86 C85 1.395 . S
C86 C87 1.288 1_655 S
C87 C86 1.288 1_455 S
C87 C88 1.392 . S
C88 H58 0.951 . S
C88 C87 1.392 . S
C88 C89 1.392 . S
C89 H59 0.949 . S
C89 C84 1.382 . S
C89 C88 1.392 . S
H90 C109 0.949 . S
H91 C110 0.950 . S
H92 C112 0.950 . S
H93 C113 0.950 . S
H94 C115 0.950 . S
H95 C118 0.950 . S
H96 C119 0.950 . S
H97 C121 0.951 . S
H98 C122 0.949 . S
H99 C124 0.949 . S
H100 C125 0.950 . S
H101 C127 0.950 . S
H102 C128 0.950 . S
H103 C130 0.950 . S
H104 C133 0.950 . S
H105 C134 0.950 . S
H106 C136 0.951 . S
H107 C137 0.949 . S
C108 C109 1.376 . S
C108 C113 1.386 1_545 S
C108 C114 1.483 . S
C109 H90 0.949 . S
C109 C108 1.376 . S
C109 C110 1.397 . S
C110 H91 0.950 . S
C110 C109 1.397 . S
C110 C111 1.391 . S
C111 C110 1.391 . S
C111 C112 1.405 1_545 S
C112 H92 0.950 . S
C112 C111 1.405 1_565 S
C112 C113 1.367 . S
C113 H93 0.950 . S
C113 C108 1.386 1_565 S
C113 C112 1.367 . S
C114 C108 1.483 . S
C114 C115 1.382 . S
C114 C116 1.403 . S
C115 H94 0.950 . S
C115 C114 1.382 . S
C115 C131 1.411 . S
C116 C114 1.403 . S
C116 C117 1.489 . S
C116 C130 1.411 . S
C117 C116 1.489 . S
C117 C118 1.383 . S
C117 C122 1.382 1_545 S
C118 H95 0.950 . S
C118 C117 1.383 . S
C118 C119 1.395 . S
C119 H96 0.950 . S
C119 C118 1.395 . S
C119 C120 1.288 . S
C120 C119 1.288 . S
C120 C121 1.392 1_545 S
C121 H97 0.951 . S
C121 C120 1.392 1_565 S
C121 C122 1.392 . S
C122 H98 0.949 . S
C122 C117 1.382 1_565 S
C122 C121 1.392 . S
C123 C124 1.376 1_545 S
C123 C128 1.386 . S
C123 C129 1.483 . S
C124 H99 0.949 . S
C124 C123 1.376 1_565 S
C124 C125 1.397 . S
C125 H100 0.950 . S
C125 C124 1.397 . S
C125 C126 1.391 1_565 S
C126 C125 1.391 1_545 S
C126 C127 1.405 . S
C127 H101 0.950 . S
C127 C126 1.405 . S
C127 C128 1.367 . S
C128 H102 0.950 . S
C128 C123 1.386 . S
C128 C127 1.367 . S
C129 C123 1.483 . S
C129 C130 1.382 . S
C129 C131 1.403 . S
C130 H103 0.950 . S
C130 C116 1.411 . S
C130 C129 1.382 . S
C131 C115 1.411 . S
C131 C129 1.403 . S
C131 C132 1.489 . S
C132 C131 1.489 . S
C132 C133 1.383 1_545 S
C132 C137 1.382 . S
C133 H104 0.950 . S
C133 C132 1.383 1_565 S
C133 C134 1.395 . S
C134 H105 0.950 . S
C134 C133 1.395 . S
C134 C135 1.288 1_565 S
C135 C134 1.288 1_545 S
C135 C136 1.392 . S
C136 H106 0.951 . S
C136 C135 1.392 . S
C136 C137 1.392 . S
C137 H107 0.949 . S
C137 C132 1.382 . S
C137 C136 1.392 . S
H138 C157 0.949 . S
H139 C158 0.950 . S
H140 C160 0.950 . S
H141 C161 0.950 . S
H142 C163 0.950 . S
H143 C166 0.950 . S
H144 C167 0.950 . S
H145 C169 0.951 . S
H146 C170 0.949 . S
H147 C172 0.949 . S
H148 C173 0.950 . S
H149 C175 0.950 . S
H150 C176 0.950 . S
H151 C178 0.950 . S
H152 C181 0.950 . S
H153 C182 0.950 . S
H154 C184 0.951 . S
H155 C185 0.949 . S
C156 C157 1.376 . S
C156 C161 1.386 . S
C156 C162 1.483 . S
C157 H138 0.949 . S
C157 C156 1.376 . S
C157 C158 1.397 . S
C158 H139 0.950 . S
C158 C157 1.397 . S
C158 C159 1.391 . S
C159 C158 1.391 . S
C159 C160 1.405 . S
C160 H140 0.950 . S
C160 C159 1.405 . S
C160 C161 1.367 . S
C161 H141 0.950 . S
C161 C156 1.386 . S
C161 C160 1.367 . S
C162 C156 1.483 . S
C162 C163 1.382 . S
C162 C164 1.403 . S
C163 H142 0.950 . S
C163 C162 1.382 . S
C163 C179 1.411 . S
C164 C162 1.403 . S
C164 C165 1.489 . S
C164 C178 1.411 . S
C165 C164 1.489 . S
C165 C166 1.383 . S
C165 C170 1.382 . S
C166 H143 0.950 . S
C166 C165 1.383 . S
C166 C167 1.395 . S
C167 H144 0.950 . S
C167 C166 1.395 . S
C167 C168 1.288 . S
C168 C167 1.288 . S
C168 C169 1.392 . S
C169 H145 0.951 . S
C169 C168 1.392 . S
C169 C170 1.392 . S
C170 H146 0.949 . S
C170 C165 1.382 . S
C170 C169 1.392 . S
C171 C172 1.376 . S
C171 C176 1.386 . S
C171 C177 1.483 . S
C172 H147 0.949 . S
C172 C171 1.376 . S
C172 C173 1.397 . S
C173 H148 0.950 . S
C173 C172 1.397 . S
C173 C174 1.391 . S
C174 C173 1.391 . S
C174 C175 1.405 . S
C175 H149 0.950 . S
C175 C174 1.405 . S
C175 C176 1.367 . S
C176 H150 0.950 . S
C176 C171 1.386 . S
C176 C175 1.367 . S
C177 C171 1.483 . S
C177 C178 1.382 . S
C177 C179 1.403 . S
C178 H151 0.950 . S
C178 C164 1.411 . S
C178 C177 1.382 . S
C179 C163 1.411 . S
C179 C177 1.403 . S
C179 C180 1.489 . S
C180 C179 1.489 . S
C180 C181 1.383 . S
C180 C185 1.382 . S
C181 H152 0.950 . S
C181 C180 1.383 . S
C181 C182 1.395 . S
C182 H153 0.950 . S
C182 C181 1.395 . S
C182 C183 1.288 . S
C183 C182 1.288 . S
C183 C184 1.392 . S
C184 H154 0.951 . S
C184 C183 1.392 . S
C184 C185 1.392 . S
C185 H155 0.949 . S
C185 C180 1.382 . S
C185 C184 1.392 . S
C186 C187 1.369 1_655 S
C186 C188 1.419 . S
C186 H190 0.930 . S
C187 C186 1.369 1_455 S
C187 C196 1.429 . S
C188 C186 1.419 . S
C188 C189 1.363 1_655 S
C188 H191 0.929 . S
C189 C188 1.363 1_455 S
C189 C195 1.428 . S
H190 C186 0.930 . S
H191 C188 0.929 . S
S192 N193 1.613 . S
S192 N194 1.610 . S
N193 S192 1.613 . S
N193 C196 1.350 . S
N194 S192 1.610 . S
N194 C195 1.351 . S
C195 C189 1.428 . S
C195 N194 1.351 . S
C195 C196 1.434 . S
C196 C187 1.429 . S
C196 N193 1.350 . S
C196 C195 1.434 . S
C197 C198 1.369 . S
C197 C199 1.419 . S
C197 H201 0.930 . S
C198 C197 1.369 . S
C198 C207 1.429 . S
C199 C197 1.419 . S
C199 C200 1.363 . S
C199 H202 0.929 . S
C200 C199 1.363 . S
C200 C206 1.428 . S
H201 C197 0.930 . S
H202 C199 0.929 . S
S203 N204 1.613 . S
S203 N205 1.610 . S
N204 S203 1.613 . S
N204 C207 1.350 1_565 S
N205 S203 1.610 . S
N205 C206 1.351 1_565 S
C206 C200 1.428 . S
C206 N205 1.351 1_545 S
C206 C207 1.434 . S
C207 C198 1.429 . S
C207 N204 1.350 1_545 S
C207 C206 1.434 . S
C208 C209 1.369 . S
C208 C210 1.419 . S
C208 H212 0.930 . S
C209 C208 1.369 . S
C209 C218 1.429 . S
C210 C208 1.419 . S
C210 C211 1.363 . S
C210 H213 0.929 . S
C211 C210 1.363 . S
C211 C217 1.428 . S
H212 C208 0.930 . S
H213 C210 0.929 . S
S214 N215 1.613 . S
S214 N216 1.610 . S
N215 S214 1.613 . S
N215 C218 1.350 . S
N216 S214 1.610 . S
N216 C217 1.351 . S
C217 C211 1.428 . S
C217 N216 1.351 . S
C217 C218 1.434 . S
C218 C209 1.429 . S
C218 N215 1.350 . S
C218 C217 1.434 . S
C219 C220 1.369 . S
C219 C221 1.419 . S
C219 H223 0.930 . S
C220 C219 1.369 . S
C220 C229 1.429 1_455 S
C221 C219 1.419 . S
C221 C222 1.363 . S
C221 H224 0.929 . S
C222 C221 1.363 . S
C222 C228 1.428 1_455 S
H223 C219 0.930 . S
H224 C221 0.929 . S
S225 N226 1.613 . S
S225 N227 1.610 . S
N226 S225 1.613 . S
N226 C229 1.350 . S
N227 S225 1.610 . S
N227 C228 1.351 . S
C228 C222 1.428 1_655 S
C228 N227 1.351 . S
C228 C229 1.433 . S
C229 C220 1.429 1_655 S
C229 N226 1.350 . S
C229 C228 1.433 . S
C230 C231 1.369 1_565 S
C230 C232 1.419 . S
C230 H234 0.930 . S
C231 C230 1.369 1_545 S
C231 C240 1.429 . S
C232 C230 1.419 . S
C232 C233 1.363 1_565 S
C232 H235 0.929 . S
C233 C232 1.363 1_545 S
C233 C239 1.428 . S
H234 C230 0.930 . S
H235 C232 0.929 . S
S236 N237 1.613 . S
S236 N238 1.610 . S
N237 S236 1.613 . S
N237 C240 1.350 . S
N238 S236 1.610 . S
N238 C239 1.351 . S
C239 C233 1.428 . S
C239 N238 1.351 . S
C239 C240 1.434 . S
C240 C231 1.429 . S
C240 N237 1.350 . S
C240 C239 1.434 . S
C241 C242 1.369 . S
C241 C243 1.419 . S
C241 H245 0.930 . S
C242 C241 1.369 . S
C242 C251 1.429 . S
C243 C241 1.419 . S
C243 C244 1.363 . S
C243 H246 0.929 . S
C244 C243 1.363 . S
C244 C250 1.428 . S
H245 C241 0.930 . S
H246 C243 0.929 . S
S247 N248 1.613 . S
S247 N249 1.610 . S
N248 S247 1.613 . S
N248 C251 1.350 . S
N249 S247 1.610 . S
N249 C250 1.351 . S
C250 C244 1.428 . S
C250 N249 1.351 . S
C250 C251 1.434 . S
C251 C242 1.429 . S
C251 N248 1.350 . S
C251 C250 1.434 . S
C252 C253 1.369 . S
C252 C254 1.419 . S
C252 H256 0.930 . S
C253 C252 1.369 . S
C253 C262 1.429 1_545 S
C254 C252 1.419 . S
C254 C255 1.363 . S
C254 H257 0.929 . S
C255 C254 1.363 . S
C255 C261 1.428 1_545 S
H256 C252 0.930 . S
H257 C254 0.929 . S
S258 N259 1.613 . S
S258 N260 1.610 . S
N259 S258 1.613 . S
N259 C262 1.350 . S
N260 S258 1.610 . S
N260 C261 1.351 . S
C261 C255 1.428 1_565 S
C261 N260 1.351 . S
C261 C262 1.434 . S
C262 C253 1.429 1_565 S
C262 N259 1.350 . S
C262 C261 1.434 . S
C263 C264 1.369 . S
C263 C265 1.419 . S
C263 H267 0.930 . S
C264 C263 1.369 . S
C264 C273 1.429 . S
C265 C263 1.419 . S
C265 C266 1.363 . S
C265 H268 0.929 . S
C266 C265 1.363 . S
C266 C272 1.428 . S
H267 C263 0.930 . S
H268 C265 0.929 . S
S269 N270 1.613 . S
S269 N271 1.610 1_554 S
N270 S269 1.613 . S
N270 C273 1.350 1_554 S
N271 S269 1.610 1_556 S
N271 C272 1.351 . S
C272 C266 1.428 . S
C272 N271 1.351 . S
C272 C273 1.434 . S
C273 C264 1.429 . S
C273 N270 1.350 1_556 S
C273 C272 1.434 . S
C274 C275 1.369 1_655 S
C274 C276 1.419 . S
C274 H278 0.930 . S
C275 C274 1.369 1_455 S
C275 C284 1.429 . S
C276 C274 1.419 . S
C276 C277 1.363 1_655 S
C276 H279 0.929 . S
C277 C276 1.363 1_455 S
C277 C283 1.428 . S
H278 C274 0.930 . S
H279 C276 0.929 . S
S280 N281 1.613 . S
S280 N282 1.610 . S
N281 S280 1.613 . S
N281 C284 1.350 . S
N282 S280 1.610 . S
N282 C283 1.351 . S
C283 C277 1.428 . S
C283 N282 1.351 . S
C283 C284 1.434 . S
C284 C275 1.429 . S
C284 N281 1.350 . S
C284 C283 1.434 . S
C285 C286 1.369 . S
C285 C287 1.419 . S
C285 H289 0.930 . S
C286 C285 1.369 . S
C286 C295 1.429 1_545 S
C287 C285 1.419 . S
C287 C288 1.363 . S
C287 H290 0.929 . S
C288 C287 1.363 . S
C288 C294 1.428 1_545 S
H289 C285 0.930 . S
H290 C287 0.929 . S
S291 N292 1.613 . S
S291 N293 1.610 . S
N292 S291 1.613 . S
N292 C295 1.350 . S
N293 S291 1.610 . S
N293 C294 1.351 . S
C294 C288 1.428 1_565 S
C294 N293 1.351 . S
C294 C295 1.434 . S
C295 C286 1.429 1_565 S
C295 N292 1.350 . S
C295 C294 1.434 . S
C296 C297 1.369 . S
C296 C298 1.419 . S
C296 H300 0.930 . S
C297 C296 1.369 . S
C297 C306 1.429 . S
C298 C296 1.419 . S
C298 C299 1.363 . S
C298 H301 0.929 . S
C299 C298 1.363 . S
C299 C305 1.428 . S
H300 C296 0.930 . S
H301 C298 0.929 . S
S302 N303 1.613 . S
S302 N304 1.610 1_554 S
N303 S302 1.613 . S
N303 C306 1.350 1_554 S
N304 S302 1.610 1_556 S
N304 C305 1.351 . S
C305 C299 1.428 . S
C305 N304 1.351 . S
C305 C306 1.434 . S
C306 C297 1.429 . S
C306 N303 1.350 1_556 S
C306 C305 1.434 . S
C307 C308 1.369 . S
C307 C309 1.419 . S
C307 H311 0.930 . S
C308 C307 1.369 . S
C308 C317 1.429 1_455 S
C309 C307 1.419 . S
C309 C310 1.363 . S
C309 H312 0.929 . S
C310 C309 1.363 . S
C310 C316 1.428 1_455 S
H311 C307 0.930 . S
H312 C309 0.929 . S
S313 N314 1.613 . S
S313 N315 1.610 . S
N314 S313 1.613 . S
N314 C317 1.350 . S
N315 S313 1.610 . S
N315 C316 1.351 . S
C316 C310 1.428 1_655 S
C316 N315 1.351 . S
C316 C317 1.434 . S
C317 C308 1.429 1_655 S
C317 N314 1.350 . S
C317 C316 1.434 . S
C189 C63 1.510 . S
C187 C3 1.507 . S
C198 C21 1.522 . S
C200 C111 1.542 . S
C209 C37 1.499 . S
C211 C183 1.514 . S
C220 C8 1.517 . S
C222 C87 1.506 . S
C233 C135 1.518 . S
C231 C23 1.506 . S
C242 C35 1.501 . S
C244 C159 1.524 . S
C255 C120 1.501 . S
C253 C31 1.499 . S
C264 C7 1.500 1_556 S
C266 C174 1.527 . S
C277 C78 1.512 . S
C275 C17 1.507 . S
C288 C126 1.494 . S
C286 C36 1.495 . S
C299 C168 1.527 . S
C297 C9 1.498 1_556 S
C308 C22 1.517 . S
C310 C72 1.514 . S
