# Generated by pormake.
# Topology tsx, (6,3)-cn, num edge types: 1
# Building blocks:
#     Node 0, Type 0, BuildingBlock: MIDCAF_clean_sbu_0, # of connection points: 6
#     Node 1, Type 0, BuildingBlock: MIDCAF_clean_sbu_0, # of connection points: 6
#     Node 2, Type 1, BuildingBlock: ESEHIV_clean_linker_0, # of connection points: 3
#     Node 3, Type 1, BuildingBlock: ESEHIV_clean_linker_0, # of connection points: 3
#     Node 4, Type 1, BuildingBlock: ESEHIV_clean_linker_0, # of connection points: 3
#     Node 5, Type 1, BuildingBlock: ESEHIV_clean_linker_0, # of connection points: 3
#     Edge 6, Type (0, 1), BuildingBlock: KIFKEQ_clean_linker_1, # of connection points: 2
#     Edge 7, Type (0, 1), BuildingBlock: KIFKEQ_clean_linker_1, # of connection points: 2
#     Edge 8, Type (0, 1), BuildingBlock: KIFKEQ_clean_linker_1, # of connection points: 2
#     Edge 9, Type (0, 1), BuildingBlock: KIFKEQ_clean_linker_1, # of connection points: 2
#     Edge 10, Type (0, 1), BuildingBlock: KIFKEQ_clean_linker_1, # of connection points: 2
#     Edge 11, Type (0, 1), BuildingBlock: KIFKEQ_clean_linker_1, # of connection points: 2
#     Edge 12, Type (0, 1), BuildingBlock: KIFKEQ_clean_linker_1, # of connection points: 2
#     Edge 13, Type (0, 1), BuildingBlock: KIFKEQ_clean_linker_1, # of connection points: 2
#     Edge 14, Type (0, 1), BuildingBlock: KIFKEQ_clean_linker_1, # of connection points: 2
#     Edge 15, Type (0, 1), BuildingBlock: KIFKEQ_clean_linker_1, # of connection points: 2
#     Edge 16, Type (0, 1), BuildingBlock: KIFKEQ_clean_linker_1, # of connection points: 2
#     Edge 17, Type (0, 1), BuildingBlock: KIFKEQ_clean_linker_1, # of connection points: 2
# Relax obj value: 0.118
# Max RMSD: 0.182
# Mean RMSD: 0.113
data_MOF--net-tsx--node1-MIDCAF_clean_sbu_0--node2-ESEHIV_clean_linker_0--edge1-KIFKEQ_clean_linker_1
_symmetry_space_group_name_H-M    P1
_symmetry_Int_Tables_number       1
_symmetry_cell_setting            triclinic
loop_
_symmetry_equiv_pos_as_xyz
'x, y, z'
_cell_length_a     17.420372
_cell_length_b     20.489843
_cell_length_c     37.893923
_cell_angle_alpha  90.112143
_cell_angle_beta   99.133337
_cell_angle_gamma 89.95302
loop_
_atom_site_label
_atom_site_type_symbol
_atom_site_fract_x
_atom_site_fract_y
_atom_site_fract_z
_atom_type_partial_charge
Zn0 Zn 0.94824 -0.02625 0.96032 0.0
Zn1 Zn 0.20461 -0.02017 0.04625 0.0
Zn2 Zn 0.07413 -0.01942 0.00338 0.0
C3 C 0.17345 0.1098 0.02794 0.0
C4 C 0.23061 0.89981 -0.00868 0.0
O5 O 0.98931 0.9183 0.02793 0.0
O6 O 0.89484 0.90483 0.98235 0.0
C7 C 0.96417 0.10366 0.98083 0.0
O8 O 0.10853 0.08466 0.01296 0.0
O9 O 0.22768 0.07386 0.04304 0.0
O10 O 0.26355 0.91713 0.02195 0.0
O11 O 0.16196 0.92175 0.97899 0.0
O12 O 0.91331 0.06407 0.96635 0.0
O13 O 1.03255 0.0832 -0.00571 0.0
O14 O 0.10088 0.93995 0.95219 0.0
O15 O 0.98863 0.95146 0.91626 0.0
C16 C 0.05974 0.93655 0.92075 0.0
O17 O 0.05087 0.93768 0.05439 0.0
O18 O 0.16456 0.94959 0.08925 0.0
C19 C 0.92438 0.89134 0.01404 0.0
C20 C 0.09388 0.93332 0.08533 0.0
Zn21 Zn 0.70293 0.48054 0.55062 0.0
Zn22 Zn 0.44674 0.48439 0.46013 0.0
Zn23 Zn 0.57563 0.48736 0.50463 0.0
C24 C 0.56018 0.43423 0.42375 0.0
C25 C 0.47873 0.61595 0.47509 0.0
O26 O 0.54733 0.4434 0.5545 0.0
O27 O 0.65991 0.4422 0.59095 0.0
C28 C 0.73403 0.40659 0.49396 0.0
O29 O 0.60282 0.44441 0.45432 0.0
O30 O 0.48831 0.44636 0.41933 0.0
O31 O 0.42712 0.57922 0.45847 0.0
O32 O 0.54053 0.59143 0.49362 0.0
O33 O 0.76609 0.42371 0.52478 0.0
O34 O 0.665 0.42761 0.48153 0.0
O35 O 0.6124 0.59028 0.51667 0.0
O36 O 0.72353 0.57537 0.55318 0.0
C37 C 0.67375 0.61332 0.53625 0.0
O38 O 0.48526 0.42797 0.52702 0.0
O39 O 0.3818 0.42803 0.48495 0.0
C40 C 0.58769 0.43162 0.58544 0.0
C41 C 0.41517 0.40882 0.51511 0.0
H42 H 0.94847 0.04397 0.33558 0.0
H43 H 0.14644 0.9166 0.34601 0.0
H44 H 0.10851 0.03487 0.43506 0.0
C45 C 1.00075 0.02503 0.35157 0.0
C46 C 1.02308 0.04697 0.38703 0.0
C47 C 0.04488 -0.02167 0.33642 0.0
C48 C 0.11121 0.95204 0.35747 0.0
C49 C 0.13348 -0.02862 0.39314 0.0
C50 C 0.08936 0.01876 0.40785 0.0
H51 H 1.01102 0.91575 0.66275 0.0
H52 H 0.20485 0.04792 0.67025 0.0
H53 H 0.04153 0.03407 0.57248 0.0
C54 C 0.04456 0.95154 0.65067 0.0
C55 C 1.0192 -0.02929 0.61517 0.0
C56 C 0.11159 -0.02123 0.67085 0.0
C57 C 0.15347 0.02594 0.65494 0.0
C58 C 0.1282 0.04649 0.61965 0.0
C59 C 0.06126 0.01837 0.59972 0.0
H60 H 0.43322 0.53717 0.83224 0.0
H61 H 0.61059 0.38845 0.84469 0.0
H62 H 0.58497 0.51438 0.93275 0.0
C63 C 0.48083 0.51185 0.8485 0.0
C64 C 0.50461 0.53186 0.88401 0.0
C65 C 0.51923 0.46073 0.83366 0.0
C66 C 0.57984 0.42783 0.85554 0.0
C67 C 0.60347 0.44678 0.89119 0.0
C68 C 0.56673 0.4996 0.90521 0.0
H69 H 0.49333 0.41016 0.15568 0.0
H70 H 0.68453 0.54548 0.17424 0.0
H71 H 0.54887 0.52658 0.0692 0.0
C72 C 0.5295 0.44698 0.14599 0.0
C73 C 0.51394 0.46513 0.10995 0.0
C74 C 0.59071 0.47553 0.16956 0.0
C75 C 0.63835 0.52171 0.15623 0.0
C76 C 0.62335 0.54066 0.12013 0.0
C77 C 0.56115 0.51191 0.097 0.0
H78 H 0.16385 0.18943 0.08342 0.0
H79 H 0.22233 0.18584 0.97722 0.0
H80 H 0.23267 0.29207 0.09547 0.0
H81 H 0.29034 0.2903 -0.01142 0.0
H82 H 0.36157 0.47277 0.11677 0.0
H83 H 0.25578 0.40381 0.08768 0.0
H84 H 0.41287 0.31511 0.02391 0.0
H85 H 0.51721 0.38655 0.05208 0.0
C86 C 0.18809 0.2127 0.062 0.0
C87 C 0.18705 0.18052 0.02931 0.0
C88 C 0.22795 0.27163 0.06885 0.0
C89 C 0.26824 0.29947 0.04315 0.0
C90 C 0.26112 0.26985 0.00919 0.0
C91 C 0.22111 0.21064 0.0024 0.0
C92 C 0.37243 0.43987 0.09569 0.0
C93 C 0.44732 0.43447 0.08672 0.0
C94 C 0.31212 0.39997 0.0792 0.0
C95 C 0.32581 0.35276 0.05389 0.0
C96 C 0.3996 0.3511 0.04301 0.0
C97 C 0.4597 0.39182 0.0592 0.0
H98 H 0.38166 0.86204 0.00671 0.0
H99 H 0.17145 0.82573 0.93225 0.0
H100 H 0.4463 0.77485 0.98023 0.0
H101 H 0.23859 0.74184 0.90317 0.0
H102 H 0.35037 0.544 0.88738 0.0
H103 H 0.28423 0.63567 0.91072 0.0
H104 H 0.50353 0.73855 0.93358 0.0
H105 H 0.56939 0.64478 0.91235 0.0
C106 C 0.34956 0.83654 0.98398 0.0
C107 C 0.27125 0.85176 0.97137 0.0
C108 C 0.38721 0.7866 0.96843 0.0
C109 C 0.34828 0.75086 0.93928 0.0
C110 C 0.27049 0.76744 0.92588 0.0
C111 C 0.2322 0.81676 0.94202 0.0
C112 C 0.38407 0.5863 0.89765 0.0
C113 C 0.46488 0.58733 0.89849 0.0
C114 C 0.34619 0.63926 0.91066 0.0
C115 C 0.38812 0.69513 0.92414 0.0
C116 C 0.46914 0.69615 0.92427 0.0
C117 C 0.50712 0.64256 0.91198 0.0
H118 H 0.77582 0.85059 -0.00477 0.0
H119 H 0.9773 0.82254 0.07617 0.0
H120 H 0.70693 0.76768 0.0223 0.0
H121 H 0.90519 0.74222 0.10562 0.0
H122 H 0.78101 0.54751 0.12316 0.0
H123 H 0.85572 0.63493 0.10066 0.0
H124 H 0.64276 0.74337 0.06886 0.0
H125 H 0.56888 0.65425 0.08927 0.0
C126 C 0.80517 0.82768 0.01941 0.0
C127 C 0.88219 0.84421 0.03376 0.0
C128 C 0.76492 0.78028 0.0353 0.0
C129 C 0.79959 0.74834 0.06659 0.0
C130 C 0.87647 0.76538 0.08143 0.0
C131 C 0.91754 0.81247 0.06499 0.0
C132 C 0.75066 0.59014 0.11115 0.0
C133 C 0.66926 0.59387 0.10728 0.0
C134 C 0.79339 0.64058 0.09858 0.0
C135 C 0.75557 0.69636 0.0825 0.0
C136 C 0.67409 0.70061 0.08002 0.0
C137 C 0.63149 0.64968 0.09182 0.0
H138 H 1.00323 0.20598 0.94137 0.0
H139 H 0.86513 0.15238 0.02154 0.0
H140 H 0.92203 0.30324 0.92693 0.0
H141 H 0.78462 0.24931 0.0076 0.0
H142 H 0.75507 0.48123 0.91385 0.0
H143 H 0.85924 0.41128 0.94528 0.0
H144 H 0.69195 0.25705 0.94927 0.0
H145 H 0.58946 0.32631 0.91775 0.0
C146 C 0.95827 0.21705 0.95722 0.0
C147 C 0.94047 0.17225 0.98268 0.0
C148 C 0.91145 0.27242 0.94884 0.0
C149 C 0.84605 0.2831 0.96569 0.0
C150 C 0.83394 0.24185 -0.00614 0.0
C151 C 0.88053 0.18682 0.00215 0.0
C152 C 0.74098 0.43271 0.92213 0.0
C153 C 0.66466 0.40889 0.91375 0.0
C154 C 0.80033 0.39276 0.9399 0.0
C155 C 0.78365 0.32895 0.95004 0.0
C156 C 0.70649 0.30637 0.94248 0.0
C157 C 0.64783 0.34575 0.92432 0.0
H158 H 0.701 0.70181 0.48566 0.0
H159 H 0.68702 0.68065 0.59754 0.0
H160 H 0.76843 0.80666 0.49822 0.0
H161 H 0.7542 0.78355 0.61041 0.0
H162 H 0.87401 0.96725 0.63285 0.0
H163 H 0.76563 0.89811 0.60675 0.0
H164 H 0.8997 0.83131 0.52697 0.0
H165 H 1.00663 0.90288 0.55243 0.0
C166 C 0.70941 0.72107 0.51265 0.0
C167 C 0.68851 0.68378 0.54066 0.0
C168 C 0.74897 0.78052 0.51998 0.0
C169 C 0.76773 0.8035 0.55542 0.0
C170 C 0.74026 0.76835 0.58276 0.0
C171 C 0.70155 0.70916 0.57545 0.0
C172 C 0.87921 0.93904 0.60913 0.0
C173 C 0.9488 0.93966 0.59487 0.0
C174 C 0.81736 0.89916 0.59424 0.0
C175 C 0.82425 0.85792 0.56515 0.0
C176 C 0.89182 0.86258 0.54918 0.0
C177 C 0.95339 0.90335 0.56383 0.0
H178 H 0.67528 0.32794 0.4367 0.0
H179 H 0.88709 0.37363 0.50824 0.0
H180 H 0.74428 0.24273 0.40878 0.0
H181 H 0.95396 0.28616 0.48187 0.0
H182 H 0.99644 0.06517 0.45635 0.0
H183 H 0.92688 0.15468 0.47986 0.0
H184 H 0.87428 0.23801 0.37444 0.0
H185 H 0.94799 0.15154 0.35098 0.0
C186 C 0.73668 0.32126 0.44582 0.0
C187 C 0.77571 0.35886 0.47419 0.0
C188 C 0.77589 0.27175 0.43023 0.0
C189 C 0.85418 0.25774 0.44345 0.0
C190 C 0.89341 0.29565 0.47143 0.0
C191 C 0.85493 0.3459 0.48639 0.0
C192 C 0.97128 0.10285 0.43811 0.0
C193 C 0.97829 0.10043 0.40161 0.0
C194 C 0.93082 0.15384 0.45161 0.0
C195 C 0.89501 0.20287 0.42885 0.0
C196 C 0.9006 0.20027 0.39241 0.0
C197 C 0.94253 0.15022 0.37902 0.0
H198 H 0.26037 0.38307 0.50413 0.0
H199 H 0.47568 0.32363 0.56864 0.0
H200 H 0.19252 0.29629 0.5292 0.0
H201 H 0.40633 0.24043 0.59685 0.0
H202 H 0.27993 0.04924 0.61012 0.0
H203 H 0.34964 0.13897 0.58714 0.0
H204 H 0.14039 0.25633 0.57612 0.0
H205 H 0.07048 0.16464 0.59668 0.0
C206 C 0.29304 0.35257 0.52453 0.0
C207 C 0.37355 0.36132 0.5348 0.0
C208 C 0.25371 0.30284 0.53929 0.0
C209 C 0.2933 0.26081 0.56537 0.0
C210 C 0.37362 0.27091 0.57651 0.0
C211 C 0.41339 0.31995 0.56102 0.0
C212 C 0.24913 0.09421 0.60234 0.0
C213 C 0.16984 0.10002 0.60463 0.0
C214 C 0.28917 0.1461 0.58961 0.0
C215 C 0.25117 0.20561 0.57968 0.0
C216 C 0.17168 0.21117 0.58258 0.0
C217 C 0.13137 0.15874 0.59449 0.0
H218 H 0.47532 0.68649 0.41541 0.0
H219 H 0.44337 0.70154 0.5255 0.0
H220 H 0.4068 0.78869 0.40202 0.0
H221 H 0.37513 0.80578 0.51257 0.0
H222 H 0.14127 0.90144 0.45483 0.0
H223 H 0.24746 0.8303 0.48146 0.0
H224 H 0.38918 0.9019 0.40597 0.0
H225 H 0.28143 -0.02952 0.37859 0.0
C226 C 0.45685 0.71369 0.43715 0.0
C227 C 0.4653 0.68672 0.4715 0.0
C228 C 0.41719 0.77247 0.42954 0.0
C229 C 0.38424 0.80562 0.4561 0.0
C230 C 0.39864 0.78121 0.49132 0.0
C231 C 0.43885 0.72214 0.49894 0.0
C232 C 0.19595 0.90303 0.44465 0.0
C233 C 0.20299 0.94067 0.41444 0.0
C234 C 0.25714 0.86247 0.45997 0.0
C235 C 0.32688 0.85928 0.44554 0.0
C236 C 0.33586 0.90168 0.41728 0.0
C237 C 0.27439 0.94135 0.40169 0.0
H238 H 0.16339 0.86335 0.14191 0.0
H239 H 0.95298 0.96892 0.10242 0.0
H240 H 0.1285 0.86207 0.20152 0.0
H241 H 0.91768 0.96815 0.16262 0.0
H242 H 0.99545 0.05789 0.27933 0.0
H243 H 0.98331 0.03087 0.21612 0.0
H244 H 0.03883 0.82982 0.243 0.0
H245 H 0.04997 0.8566 0.30644 0.0
C246 C 0.10827 0.88439 0.14584 0.0
C247 C 0.06117 0.91668 0.11775 0.0
C248 C 0.08804 0.88349 0.17999 0.0
C249 C 1.02075 0.91572 0.18691 0.0
C250 C 0.97029 0.94348 0.15812 0.0
C251 C 0.99009 0.94348 0.12367 0.0
C252 C 1.00273 0.0075 0.27183 0.0
C253 C 1.02499 0.95964 0.29803 0.0
C254 C 0.99552 -0.00805 0.23551 0.0
C255 C 1.0107 0.92827 0.22455 0.0
C256 C 1.02773 0.87949 0.25065 0.0
C257 C 1.03458 0.89495 0.28697 0.0
H258 H 0.20034 -0.02421 0.90478 0.0
H259 H 0.99517 0.86442 0.86412 0.0
H260 H 0.23858 -0.02535 0.8451 0.0
H261 H 1.03294 0.86267 0.80511 0.0
H262 H 0.11267 0.8574 0.70126 0.0
H263 H 0.1253 0.83176 0.76483 0.0
H264 H 0.17296 0.03453 0.79071 0.0
H265 H 0.15971 0.06028 0.72734 0.0
C266 C 0.16507 0.94911 0.8834 0.0
C267 C 0.09449 0.92077 0.88877 0.0
C268 C 0.18654 0.94882 0.84926 0.0
C269 C 0.13834 0.91918 0.82031 0.0
C270 C 0.07172 0.88554 0.82678 0.0
C271 C 0.04979 0.88676 0.86057 0.0
C272 C 0.12693 0.89633 0.72055 0.0
C273 C 0.13373 0.96109 0.7092 0.0
C274 C 0.13459 0.88156 0.75694 0.0
C275 C 0.14943 0.93119 0.78278 0.0
C276 C 0.16239 -0.00498 0.77152 0.0
C277 C 0.15452 0.00984 0.73512 0.0
H278 H 0.64676 0.35335 0.64062 0.0
H279 H 0.44652 0.47108 0.60042 0.0
H280 H 0.60464 0.3478 0.69874 0.0
H281 H 0.40411 0.46593 0.65904 0.0
H282 H 0.48255 0.54565 0.77787 0.0
H283 H 0.47252 0.52246 0.71449 0.0
H284 H 0.50638 0.31724 0.73746 0.0
H285 H 0.51438 0.34007 0.80126 0.0
C286 C 0.59228 0.37624 0.64397 0.0
C287 C 0.55036 0.41329 0.61628 0.0
C288 C 0.56785 0.37279 0.67722 0.0
C289 C 0.50159 0.40717 0.68359 0.0
C290 C 0.45584 0.4395 0.65492 0.0
C291 C 0.47979 0.44213 0.62138 0.0
C292 C 0.48514 0.49524 0.76952 0.0
C293 C 0.50045 0.44487 0.79485 0.0
C294 C 0.47922 0.48193 0.73304 0.0
C295 C 0.48909 0.41805 0.72099 0.0
C296 C 0.49927 0.36704 0.74604 0.0
C297 C 0.50449 0.38026 0.78257 0.0
H298 H 0.68665 0.48725 0.40051 0.0
H299 H 0.50604 0.34327 0.37451 0.0
H300 H 0.70895 0.48664 0.33821 0.0
H301 H 0.52993 0.34061 0.31289 0.0
H302 H 0.47646 0.46056 0.21006 0.0
H303 H 0.48878 0.43358 0.27276 0.0
H304 H 0.73891 0.43112 0.28119 0.0
H305 H 0.72654 0.45723 0.21722 0.0
C306 C 0.65458 0.45313 0.38186 0.0
C307 C 0.59383 0.41607 0.3919 0.0
C308 C 0.66716 0.45285 0.34621 0.0
C309 C 0.61949 0.415 0.32052 0.0
C310 C 0.56609 0.37156 0.33193 0.0
C311 C 0.5528 0.37262 0.36721 0.0
C312 C 0.53423 0.45294 0.22489 0.0
C313 C 0.60044 0.45993 0.20836 0.0
C314 C 0.54131 0.43735 0.26095 0.0
C315 C 0.61482 0.42869 0.28178 0.0
C316 C 0.68152 0.43698 0.26568 0.0
C317 C 0.67438 0.45222 0.22919 0.0
loop_
_geom_bond_atom_site_label_1
_geom_bond_atom_site_label_2
_geom_bond_distance
_geom_bond_site_symmetry_2
_ccdc_geom_bond_type
Zn0 O6 1.920 1_545 S
Zn0 O12 1.898 . S
Zn0 O15 1.905 1_545 S
Zn1 O9 1.905 . S
Zn1 O10 1.898 1_545 S
Zn1 O18 1.920 1_545 S
Zn2 O5 2.080 1_445 S
Zn2 O8 2.114 . S
Zn2 O11 2.120 1_545 S
Zn2 O13 2.120 1_455 S
Zn2 O14 2.114 1_554 S
Zn2 O17 2.080 . S
C3 O8 1.166 . S
C3 O9 1.182 . S
C4 O10 1.167 . S
C4 O11 1.299 . S
O5 Zn2 2.080 1_665 S
O5 C19 1.305 . S
O6 Zn0 1.920 1_565 S
O6 C19 1.234 1_556 S
C7 O12 1.167 . S
C7 O13 1.299 1_556 S
O8 Zn2 2.114 . S
O8 C3 1.166 . S
O9 Zn1 1.905 . S
O9 C3 1.182 . S
O10 Zn1 1.898 1_565 S
O10 C4 1.167 . S
O11 Zn2 2.120 1_565 S
O11 C4 1.299 . S
O12 Zn0 1.898 . S
O12 C7 1.167 . S
O13 Zn2 2.120 1_655 S
O13 C7 1.299 1_554 S
O14 Zn2 2.114 1_556 S
O14 C16 1.166 1_445 S
O15 Zn0 1.905 1_565 S
O15 C16 1.182 . S
C16 O14 1.166 1_665 S
C16 O15 1.182 . S
O17 Zn2 2.080 . S
O17 C20 1.305 1_545 S
O18 Zn1 1.920 1_565 S
O18 C20 1.234 . S
C19 O5 1.305 . S
C19 O6 1.234 1_554 S
C20 O17 1.305 1_565 S
C20 O18 1.234 . S
Zn21 O27 1.920 . S
Zn21 O33 1.898 . S
Zn21 O36 1.905 . S
Zn22 O30 1.905 . S
Zn22 O31 1.898 . S
Zn22 O39 1.920 . S
Zn23 O26 2.080 . S
Zn23 O29 2.114 . S
Zn23 O32 2.120 . S
Zn23 O34 2.120 . S
Zn23 O35 2.114 . S
Zn23 O38 2.080 . S
C24 O29 1.166 . S
C24 O30 1.182 . S
C25 O31 1.167 . S
C25 O32 1.299 . S
O26 Zn23 2.080 . S
O26 C40 1.305 . S
O27 Zn21 1.920 . S
O27 C40 1.234 . S
C28 O33 1.167 . S
C28 O34 1.299 . S
O29 Zn23 2.114 . S
O29 C24 1.166 . S
O30 Zn22 1.905 . S
O30 C24 1.182 . S
O31 Zn22 1.898 . S
O31 C25 1.167 . S
O32 Zn23 2.120 . S
O32 C25 1.299 . S
O33 Zn21 1.898 . S
O33 C28 1.167 . S
O34 Zn23 2.120 . S
O34 C28 1.299 . S
O35 Zn23 2.114 . S
O35 C37 1.166 . S
O36 Zn21 1.905 . S
O36 C37 1.182 . S
C37 O35 1.166 . S
C37 O36 1.182 . S
O38 Zn23 2.080 . S
O38 C41 1.305 . S
O39 Zn22 1.920 . S
O39 C41 1.234 . S
C40 O26 1.305 . S
C40 O27 1.234 . S
C41 O38 1.305 . S
C41 O39 1.234 . S
H42 C45 0.931 1_655 S
H43 C48 0.928 . S
H44 C50 0.930 . S
C45 H42 0.931 1_455 S
C45 C46 1.413 . S
C45 C47 1.360 . S
C46 C45 1.413 . S
C46 C50 1.429 . S
C47 C45 1.360 . S
C47 C48 1.372 1_545 S
C48 H43 0.928 . S
C48 C47 1.372 1_565 S
C48 C49 1.404 . S
C49 C48 1.404 . S
C49 C50 1.391 1_565 S
C50 H44 0.930 . S
C50 C46 1.429 . S
C50 C49 1.391 1_545 S
H51 C54 0.931 . S
H52 C57 0.928 . S
H53 C59 0.930 . S
C54 H51 0.931 . S
C54 C55 1.413 . S
C54 C56 1.360 1_665 S
C55 C54 1.413 . S
C55 C59 1.429 1_665 S
C56 C54 1.360 1_445 S
C56 C57 1.372 . S
C57 H52 0.928 . S
C57 C56 1.372 . S
C57 C58 1.404 . S
C58 C57 1.404 . S
C58 C59 1.391 . S
C59 H53 0.930 . S
C59 C55 1.429 1_445 S
C59 C58 1.391 . S
H60 C63 0.931 . S
H61 C66 0.928 . S
H62 C68 0.930 . S
C63 H60 0.931 . S
C63 C64 1.413 . S
C63 C65 1.360 . S
C64 C63 1.413 . S
C64 C68 1.429 . S
C65 C63 1.360 . S
C65 C66 1.372 . S
C66 H61 0.928 . S
C66 C65 1.372 . S
C66 C67 1.404 . S
C67 C66 1.404 . S
C67 C68 1.391 . S
C68 H62 0.930 . S
C68 C64 1.429 . S
C68 C67 1.391 . S
H69 C72 0.931 . S
H70 C75 0.928 . S
H71 C77 0.930 . S
C72 H69 0.931 . S
C72 C73 1.413 . S
C72 C74 1.360 . S
C73 C72 1.413 . S
C73 C77 1.429 . S
C74 C72 1.360 . S
C74 C75 1.372 . S
C75 H70 0.928 . S
C75 C74 1.372 . S
C75 C76 1.404 . S
C76 C75 1.404 . S
C76 C77 1.391 . S
C77 H71 0.930 . S
C77 C73 1.429 . S
C77 C76 1.391 . S
H78 C86 0.950 . S
H79 C91 0.950 1_556 S
H80 C88 0.950 . S
H81 C90 0.950 . S
H82 C92 0.950 . S
H83 C94 0.950 . S
H84 C96 0.950 . S
H85 C97 0.950 . S
C86 H78 0.950 . S
C86 C87 1.386 . S
C86 C88 1.391 . S
C87 C86 1.386 . S
C87 C91 1.393 . S
C88 H80 0.950 . S
C88 C86 1.391 . S
C88 C89 1.400 . S
C89 C88 1.400 . S
C89 C90 1.398 . S
C89 C95 1.491 . S
C90 H81 0.950 . S
C90 C89 1.398 . S
C90 C91 1.391 . S
C91 H79 0.950 1_554 S
C91 C87 1.393 . S
C91 C90 1.391 . S
C92 H82 0.950 . S
C92 C93 1.386 . S
C92 C94 1.391 . S
C93 C92 1.386 . S
C93 C97 1.393 . S
C94 H83 0.950 . S
C94 C92 1.391 . S
C94 C95 1.400 . S
C95 C89 1.491 . S
C95 C94 1.400 . S
C95 C96 1.398 . S
C96 H84 0.950 . S
C96 C95 1.398 . S
C96 C97 1.391 . S
C97 H85 0.950 . S
C97 C93 1.393 . S
C97 C96 1.391 . S
H98 C106 0.950 . S
H99 C111 0.950 . S
H100 C108 0.950 . S
H101 C110 0.950 . S
H102 C112 0.950 . S
H103 C114 0.950 . S
H104 C116 0.950 1_554 S
H105 C117 0.950 . S
C106 H98 0.950 . S
C106 C107 1.386 1_554 S
C106 C108 1.391 . S
C107 C106 1.386 1_556 S
C107 C111 1.393 . S
C108 H100 0.950 . S
C108 C106 1.391 . S
C108 C109 1.400 1_554 S
C109 C108 1.400 1_556 S
C109 C110 1.398 . S
C109 C115 1.491 . S
C110 H101 0.950 . S
C110 C109 1.398 . S
C110 C111 1.391 . S
C111 H99 0.950 . S
C111 C107 1.393 . S
C111 C110 1.391 . S
C112 H102 0.950 . S
C112 C113 1.386 . S
C112 C114 1.391 . S
C113 C112 1.386 . S
C113 C117 1.393 . S
C114 H103 0.950 . S
C114 C112 1.391 . S
C114 C115 1.400 . S
C115 C109 1.491 . S
C115 C114 1.400 . S
C115 C116 1.398 . S
C116 H104 0.950 1_556 S
C116 C115 1.398 . S
C116 C117 1.391 . S
C117 H105 0.950 . S
C117 C113 1.393 . S
C117 C116 1.391 . S
H118 C126 0.950 1_556 S
H119 C131 0.950 . S
H120 C128 0.950 . S
H121 C130 0.950 . S
H122 C132 0.950 . S
H123 C134 0.950 . S
H124 C136 0.950 . S
H125 C137 0.950 . S
C126 H118 0.950 1_554 S
C126 C127 1.386 . S
C126 C128 1.391 . S
C127 C126 1.386 . S
C127 C131 1.393 . S
C128 H120 0.950 . S
C128 C126 1.391 . S
C128 C129 1.400 . S
C129 C128 1.400 . S
C129 C130 1.398 . S
C129 C135 1.491 . S
C130 H121 0.950 . S
C130 C129 1.398 . S
C130 C131 1.391 . S
C131 H119 0.950 . S
C131 C127 1.393 . S
C131 C130 1.391 . S
C132 H122 0.950 . S
C132 C133 1.386 . S
C132 C134 1.391 . S
C133 C132 1.386 . S
C133 C137 1.393 . S
C134 H123 0.950 . S
C134 C132 1.391 . S
C134 C135 1.400 . S
C135 C129 1.491 . S
C135 C134 1.400 . S
C135 C136 1.398 . S
C136 H124 0.950 . S
C136 C135 1.398 . S
C136 C137 1.391 . S
C137 H125 0.950 . S
C137 C133 1.393 . S
C137 C136 1.391 . S
H138 C146 0.950 . S
H139 C151 0.950 . S
H140 C148 0.950 . S
H141 C150 0.950 . S
H142 C152 0.950 . S
H143 C154 0.950 1_554 S
H144 C156 0.950 . S
H145 C157 0.950 . S
C146 H138 0.950 . S
C146 C147 1.387 . S
C146 C148 1.391 . S
C147 C146 1.387 . S
C147 C151 1.392 1_556 S
C148 H140 0.950 . S
C148 C146 1.391 . S
C148 C149 1.400 . S
C149 C148 1.400 . S
C149 C150 1.398 1_556 S
C149 C155 1.491 . S
C150 H141 0.950 . S
C150 C149 1.398 1_554 S
C150 C151 1.391 . S
C151 H139 0.950 . S
C151 C147 1.392 1_554 S
C151 C150 1.391 . S
C152 H142 0.950 . S
C152 C153 1.386 . S
C152 C154 1.391 . S
C153 C152 1.386 . S
C153 C157 1.393 . S
C154 H143 0.950 1_556 S
C154 C152 1.391 . S
C154 C155 1.400 . S
C155 C149 1.491 . S
C155 C154 1.400 . S
C155 C156 1.398 . S
C156 H144 0.950 . S
C156 C155 1.398 . S
C156 C157 1.391 . S
C157 H145 0.950 . S
C157 C153 1.393 . S
C157 C156 1.391 . S
H158 C166 0.950 . S
H159 C171 0.950 . S
H160 C168 0.950 . S
H161 C170 0.950 . S
H162 C172 0.958 . S
H163 C174 0.950 . S
H164 C176 0.950 . S
H165 C177 0.950 . S
C166 H158 0.950 . S
C166 C167 1.386 . S
C166 C168 1.391 . S
C167 C166 1.386 . S
C167 C171 1.393 . S
C168 H160 0.950 . S
C168 C166 1.391 . S
C168 C169 1.400 . S
C169 C168 1.400 . S
C169 C170 1.398 . S
C169 C175 1.491 . S
C170 H161 0.950 . S
C170 C169 1.398 . S
C170 C171 1.391 . S
C171 H159 0.950 . S
C171 C167 1.393 . S
C171 C170 1.391 . S
C172 H162 0.958 . S
C172 C173 1.386 . S
C172 C174 1.391 . S
C173 C172 1.386 . S
C173 C177 1.393 . S
C174 H163 0.950 . S
C174 C172 1.391 . S
C174 C175 1.400 . S
C175 C169 1.491 . S
C175 C174 1.400 . S
C175 C176 1.398 . S
C176 H164 0.950 . S
C176 C175 1.398 . S
C176 C177 1.391 . S
C177 H165 0.950 . S
C177 C173 1.393 . S
C177 C176 1.391 . S
H178 C186 0.950 . S
H179 C191 0.950 . S
H180 C188 0.950 . S
H181 C190 0.950 . S
H182 C192 0.950 . S
H183 C194 0.950 . S
H184 C196 0.950 . S
H185 C197 0.950 . S
C186 H178 0.950 . S
C186 C187 1.386 . S
C186 C188 1.391 . S
C187 C186 1.386 . S
C187 C191 1.393 . S
C188 H180 0.950 . S
C188 C186 1.391 . S
C188 C189 1.400 . S
C189 C188 1.400 . S
C189 C190 1.398 . S
C189 C195 1.491 . S
C190 H181 0.950 . S
C190 C189 1.398 . S
C190 C191 1.391 . S
C191 H179 0.950 . S
C191 C187 1.393 . S
C191 C190 1.391 . S
C192 H182 0.950 . S
C192 C193 1.386 . S
C192 C194 1.391 . S
C193 C192 1.386 . S
C193 C197 1.393 . S
C194 H183 0.950 . S
C194 C192 1.391 . S
C194 C195 1.400 . S
C195 C189 1.491 . S
C195 C194 1.400 . S
C195 C196 1.398 . S
C196 H184 0.950 . S
C196 C195 1.398 . S
C196 C197 1.391 . S
C197 H185 0.950 . S
C197 C193 1.393 . S
C197 C196 1.391 . S
H198 C206 0.950 . S
H199 C211 0.950 . S
H200 C208 0.950 . S
H201 C210 0.950 . S
H202 C212 0.950 . S
H203 C214 0.950 . S
H204 C216 0.950 . S
H205 C217 0.950 . S
C206 H198 0.950 . S
C206 C207 1.386 . S
C206 C208 1.391 . S
C207 C206 1.386 . S
C207 C211 1.393 . S
C208 H200 0.950 . S
C208 C206 1.391 . S
C208 C209 1.400 . S
C209 C208 1.400 . S
C209 C210 1.398 . S
C209 C215 1.491 . S
C210 H201 0.950 . S
C210 C209 1.398 . S
C210 C211 1.391 . S
C211 H199 0.950 . S
C211 C207 1.393 . S
C211 C210 1.391 . S
C212 H202 0.950 . S
C212 C213 1.386 . S
C212 C214 1.391 . S
C213 C212 1.386 . S
C213 C217 1.393 . S
C214 H203 0.950 . S
C214 C212 1.391 . S
C214 C215 1.400 . S
C215 C209 1.491 . S
C215 C214 1.400 . S
C215 C216 1.398 . S
C216 H204 0.950 . S
C216 C215 1.398 . S
C216 C217 1.391 . S
C217 H205 0.950 . S
C217 C213 1.393 . S
C217 C216 1.391 . S
H218 C226 0.950 . S
H219 C231 0.950 . S
H220 C228 0.950 . S
H221 C230 0.950 . S
H222 C232 0.950 . S
H223 C234 0.950 . S
H224 C236 0.950 . S
H225 C237 0.950 1_545 S
C226 H218 0.950 . S
C226 C227 1.386 . S
C226 C228 1.391 . S
C227 C226 1.386 . S
C227 C231 1.393 . S
C228 H220 0.950 . S
C228 C226 1.391 . S
C228 C229 1.400 . S
C229 C228 1.400 . S
C229 C230 1.398 . S
C229 C235 1.491 . S
C230 H221 0.950 . S
C230 C229 1.398 . S
C230 C231 1.391 . S
C231 H219 0.950 . S
C231 C227 1.393 . S
C231 C230 1.391 . S
C232 H222 0.950 . S
C232 C233 1.386 . S
C232 C234 1.391 . S
C233 C232 1.386 . S
C233 C237 1.393 . S
C234 H223 0.950 . S
C234 C232 1.391 . S
C234 C235 1.400 . S
C235 C229 1.491 . S
C235 C234 1.400 . S
C235 C236 1.398 . S
C236 H224 0.950 . S
C236 C235 1.398 . S
C236 C237 1.391 . S
C237 H225 0.950 1_565 S
C237 C233 1.393 . S
C237 C236 1.391 . S
H238 C246 0.950 . S
H239 C251 0.950 . S
H240 C248 0.950 . S
H241 C250 0.950 . S
H242 C252 0.950 . S
H243 C254 0.950 . S
H244 C256 0.950 . S
H245 C257 0.950 . S
C246 H238 0.950 . S
C246 C247 1.386 . S
C246 C248 1.391 . S
C247 C246 1.386 . S
C247 C251 1.393 1_565 S
C248 H240 0.950 . S
C248 C246 1.391 . S
C248 C249 1.415 . S
C249 C248 1.415 . S
C249 C250 1.385 1_565 S
C249 C255 1.489 1_565 S
C250 H241 0.950 . S
C250 C249 1.385 1_545 S
C250 C251 1.391 . S
C251 H239 0.950 . S
C251 C247 1.393 1_545 S
C251 C250 1.391 . S
C252 H242 0.950 . S
C252 C253 1.386 . S
C252 C254 1.391 . S
C253 C252 1.386 . S
C253 C257 1.393 1_545 S
C254 H243 0.950 . S
C254 C252 1.391 . S
C254 C255 1.400 . S
C255 C249 1.489 1_545 S
C255 C254 1.400 . S
C255 C256 1.398 1_545 S
C256 H244 0.950 . S
C256 C255 1.398 1_565 S
C256 C257 1.391 . S
C257 H245 0.950 . S
C257 C253 1.393 1_565 S
C257 C256 1.391 . S
H258 C266 0.950 . S
H259 C271 0.950 . S
H260 C268 0.950 . S
H261 C270 0.950 . S
H262 C272 0.950 . S
H263 C274 0.950 . S
H264 C276 0.950 . S
H265 C277 0.950 . S
C266 H258 0.950 . S
C266 C267 1.386 1_645 S
C266 C268 1.391 . S
C267 C266 1.386 1_465 S
C267 C271 1.393 . S
C268 H260 0.950 . S
C268 C266 1.391 . S
C268 C269 1.400 1_645 S
C269 C268 1.400 1_465 S
C269 C270 1.398 . S
C269 C275 1.491 1_565 S
C270 H261 0.950 . S
C270 C269 1.398 . S
C270 C271 1.391 . S
C271 H259 0.950 . S
C271 C267 1.393 . S
C271 C270 1.391 . S
C272 H262 0.950 . S
C272 C273 1.386 1_565 S
C272 C274 1.391 . S
C273 C272 1.386 1_545 S
C273 C277 1.393 1_455 S
C274 H263 0.950 . S
C274 C272 1.391 . S
C274 C275 1.400 1_565 S
C275 C269 1.491 1_545 S
C275 C274 1.400 1_545 S
C275 C276 1.398 1_455 S
C276 H264 0.950 . S
C276 C275 1.398 1_655 S
C276 C277 1.391 . S
C277 H265 0.950 . S
C277 C273 1.393 1_655 S
C277 C276 1.391 . S
H278 C286 0.950 . S
H279 C291 0.950 . S
H280 C288 0.950 . S
H281 C290 0.950 . S
H282 C292 0.950 . S
H283 C294 0.950 . S
H284 C296 0.950 . S
H285 C297 0.950 . S
C286 H278 0.950 . S
C286 C287 1.386 . S
C286 C288 1.391 . S
C287 C286 1.386 . S
C287 C291 1.393 . S
C288 H280 0.950 . S
C288 C286 1.391 . S
C288 C289 1.400 . S
C289 C288 1.400 . S
C289 C290 1.398 . S
C289 C295 1.491 . S
C290 H281 0.950 . S
C290 C289 1.398 . S
C290 C291 1.391 . S
C291 H279 0.950 . S
C291 C287 1.393 . S
C291 C290 1.391 . S
C292 H282 0.950 . S
C292 C293 1.386 . S
C292 C294 1.391 . S
C293 C292 1.386 . S
C293 C297 1.393 . S
C294 H283 0.950 . S
C294 C292 1.391 . S
C294 C295 1.400 . S
C295 C289 1.491 . S
C295 C294 1.400 . S
C295 C296 1.398 . S
C296 H284 0.950 . S
C296 C295 1.398 . S
C296 C297 1.391 . S
C297 H285 0.950 . S
C297 C293 1.393 . S
C297 C296 1.391 . S
H298 C306 0.950 . S
H299 C311 0.950 . S
H300 C308 0.950 . S
H301 C310 0.950 . S
H302 C312 0.950 . S
H303 C314 0.950 . S
H304 C316 0.950 . S
H305 C317 0.950 . S
C306 H298 0.950 . S
C306 C307 1.386 . S
C306 C308 1.391 . S
C307 C306 1.386 . S
C307 C311 1.393 . S
C308 H300 0.950 . S
C308 C306 1.391 . S
C308 C309 1.400 . S
C309 C308 1.400 . S
C309 C310 1.398 . S
C309 C315 1.491 . S
C310 H301 0.950 . S
C310 C309 1.398 . S
C310 C311 1.391 . S
C311 H299 0.950 . S
C311 C307 1.393 . S
C311 C310 1.391 . S
C312 H302 0.950 . S
C312 C313 1.386 . S
C312 C314 1.391 . S
C313 C312 1.386 . S
C313 C317 1.393 . S
C314 H303 0.950 . S
C314 C312 1.391 . S
C314 C315 1.400 . S
C315 C309 1.491 . S
C315 C314 1.400 . S
C315 C316 1.398 . S
C316 H304 0.950 . S
C316 C315 1.398 . S
C316 C317 1.391 . S
C317 H305 0.950 . S
C317 C313 1.393 . S
C317 C316 1.391 . S
C93 C73 1.244 . S
C87 C3 1.094 . S
C107 C4 1.467 1_556 S
C113 C64 1.545 . S
C127 C19 1.487 . S
C133 C76 1.557 . S
C147 C7 1.087 . S
C153 C67 1.243 . S
C167 C37 1.108 . S
C173 C55 1.242 . S
C187 C28 1.443 . S
C193 C46 1.541 1_655 S
C213 C58 1.555 . S
C207 C41 1.483 . S
C233 C49 1.253 . S
C227 C25 1.081 . S
C247 C20 1.287 . S
C253 C47 1.461 . S
C267 C16 1.369 1_455 S
C273 C56 1.512 . S
C293 C65 1.463 . S
C287 C40 1.291 . S
C307 C24 1.360 . S
C313 C74 1.516 . S
