# Generated by pormake.
# Topology pyr, (3,6)-cn, num edge types: 1
# Building blocks:
#     Node 0, Type 0, BuildingBlock: MIDCAF_clean_linker_0, # of connection points: 3
#     Node 1, Type 0, BuildingBlock: MIDCAF_clean_linker_0, # of connection points: 3
#     Node 2, Type 0, BuildingBlock: MIDCAF_clean_linker_0, # of connection points: 3
#     Node 3, Type 0, BuildingBlock: MIDCAF_clean_linker_0, # of connection points: 3
#     Node 4, Type 0, BuildingBlock: MIDCAF_clean_linker_0, # of connection points: 3
#     Node 5, Type 0, BuildingBlock: MIDCAF_clean_linker_0, # of connection points: 3
#     Node 6, Type 0, BuildingBlock: MIDCAF_clean_linker_0, # of connection points: 3
#     Node 7, Type 0, BuildingBlock: MIDCAF_clean_linker_0, # of connection points: 3
#     Node 8, Type 1, BuildingBlock: INOVEN_clean_sbu_0, # of connection points: 6
#     Node 9, Type 1, BuildingBlock: INOVEN_clean_sbu_0, # of connection points: 6
#     Node 10, Type 1, BuildingBlock: INOVEN_clean_sbu_0, # of connection points: 6
#     Node 11, Type 1, BuildingBlock: INOVEN_clean_sbu_0, # of connection points: 6
#     Edge 12, Type (0, 1), BuildingBlock: UVAHIK_clean_linker_0, # of connection points: 2
#     Edge 13, Type (0, 1), BuildingBlock: UVAHIK_clean_linker_0, # of connection points: 2
#     Edge 14, Type (0, 1), BuildingBlock: UVAHIK_clean_linker_0, # of connection points: 2
#     Edge 15, Type (0, 1), BuildingBlock: UVAHIK_clean_linker_0, # of connection points: 2
#     Edge 16, Type (0, 1), BuildingBlock: UVAHIK_clean_linker_0, # of connection points: 2
#     Edge 17, Type (0, 1), BuildingBlock: UVAHIK_clean_linker_0, # of connection points: 2
#     Edge 18, Type (0, 1), BuildingBlock: UVAHIK_clean_linker_0, # of connection points: 2
#     Edge 19, Type (0, 1), BuildingBlock: UVAHIK_clean_linker_0, # of connection points: 2
#     Edge 20, Type (0, 1), BuildingBlock: UVAHIK_clean_linker_0, # of connection points: 2
#     Edge 21, Type (0, 1), BuildingBlock: UVAHIK_clean_linker_0, # of connection points: 2
#     Edge 22, Type (0, 1), BuildingBlock: UVAHIK_clean_linker_0, # of connection points: 2
#     Edge 23, Type (0, 1), BuildingBlock: UVAHIK_clean_linker_0, # of connection points: 2
#     Edge 24, Type (0, 1), BuildingBlock: UVAHIK_clean_linker_0, # of connection points: 2
#     Edge 25, Type (0, 1), BuildingBlock: UVAHIK_clean_linker_0, # of connection points: 2
#     Edge 26, Type (0, 1), BuildingBlock: UVAHIK_clean_linker_0, # of connection points: 2
#     Edge 27, Type (0, 1), BuildingBlock: UVAHIK_clean_linker_0, # of connection points: 2
#     Edge 28, Type (0, 1), BuildingBlock: UVAHIK_clean_linker_0, # of connection points: 2
#     Edge 29, Type (0, 1), BuildingBlock: UVAHIK_clean_linker_0, # of connection points: 2
#     Edge 30, Type (0, 1), BuildingBlock: UVAHIK_clean_linker_0, # of connection points: 2
#     Edge 31, Type (0, 1), BuildingBlock: UVAHIK_clean_linker_0, # of connection points: 2
#     Edge 32, Type (0, 1), BuildingBlock: UVAHIK_clean_linker_0, # of connection points: 2
#     Edge 33, Type (0, 1), BuildingBlock: UVAHIK_clean_linker_0, # of connection points: 2
#     Edge 34, Type (0, 1), BuildingBlock: UVAHIK_clean_linker_0, # of connection points: 2
#     Edge 35, Type (0, 1), BuildingBlock: UVAHIK_clean_linker_0, # of connection points: 2
# Relax obj value: 0.073
# Max RMSD: 0.121
# Mean RMSD: 0.056
data_MOF--net-pyr--node1-INOVEN_clean_sbu_0--node2-MIDCAF_clean_linker_0--edge1-UVAHIK_clean_linker_0
_symmetry_space_group_name_H-M    P1
_symmetry_Int_Tables_number       1
_symmetry_cell_setting            triclinic
loop_
_symmetry_equiv_pos_as_xyz
'x, y, z'
_cell_length_a     57.710543
_cell_length_b     60.322531
_cell_length_c     54.126586
_cell_angle_alpha  90.570503
_cell_angle_beta   88.830912
_cell_angle_gamma 99.947826
loop_
_atom_site_label
_atom_site_type_symbol
_atom_site_fract_x
_atom_site_fract_y
_atom_site_fract_z
_atom_type_partial_charge
C0 C 0.26834 0.26016 0.30501 0.0
C1 C 0.27599 0.24276 0.31798 0.0
C2 C 0.29669 0.23536 0.30979 0.0
C3 C 0.30844 0.24402 0.28819 0.0
H4 H 0.3588 0.23205 0.23514 0.0
H5 H 0.3809 0.20595 0.21465 0.0
H6 H 0.3594 0.22633 0.14364 0.0
H7 H 0.3372 0.25253 0.16407 0.0
H8 H 0.29785 0.28716 0.16358 0.0
H9 H 0.2741 0.31099 0.14301 0.0
H10 H 0.27084 0.34928 0.21057 0.0
H11 H 0.29353 0.32482 0.23127 0.0
H12 H 0.27308 0.28166 0.27361 0.0
H13 H 0.25235 0.26617 0.3105 0.0
H14 H 0.30342 0.22234 0.31961 0.0
H15 H 0.32375 0.23726 0.28185 0.0
N16 N 0.3245 0.2548 0.23792 0.0
N17 N 0.3225 0.27484 0.20126 0.0
N18 N 0.30161 0.28319 0.23679 0.0
C19 C 0.33111 0.25872 0.21389 0.0
C20 C 0.30799 0.28736 0.21279 0.0
C21 C 0.30968 0.26691 0.24949 0.0
C22 C 0.34611 0.24431 0.20126 0.0
C23 C 0.3589 0.23113 0.21514 0.0
C24 C 0.37168 0.21626 0.20342 0.0
C25 C 0.37178 0.21405 0.17757 0.0
C26 C 0.35944 0.22756 0.16362 0.0
C27 C 0.34686 0.24266 0.17533 0.0
C28 C 0.29725 0.30395 0.1991 0.0
C29 C 0.29235 0.30091 0.17386 0.0
C30 C 0.27877 0.31463 0.16207 0.0
C31 C 0.27013 0.33184 0.17523 0.0
C32 C 0.27653 0.33577 0.20004 0.0
C33 C 0.28971 0.32186 0.21188 0.0
C34 C 0.29988 0.26043 0.27444 0.0
C35 C 0.2802 0.26898 0.28363 0.0
C36 C 0.19582 0.86049 0.63925 0.0
C37 C 0.18336 0.85776 0.61706 0.0
C38 C 0.19252 0.84664 0.59711 0.0
C39 C 0.21401 0.83926 0.59896 0.0
H40 H 0.25387 0.79377 0.56939 0.0
H41 H 0.26623 0.76626 0.5409 0.0
H42 H 0.33596 0.77971 0.57126 0.0
H43 H 0.32391 0.80732 0.59929 0.0
H44 H 0.33001 0.83112 0.65312 0.0
H45 H 0.35736 0.84958 0.68392 0.0
H46 H 0.31258 0.89901 0.69724 0.0
H47 H 0.28519 0.88066 0.66663 0.0
H48 H 0.22697 0.85629 0.65812 0.0
H49 H 0.18908 0.86858 0.65514 0.0
H50 H 0.18369 0.84455 0.57956 0.0
H51 H 0.22087 0.83143 0.58295 0.0
N52 N 0.25802 0.82313 0.60478 0.0
N53 N 0.2954 0.82859 0.62229 0.0
N54 N 0.26632 0.8475 0.63868 0.0
C55 C 0.28023 0.81854 0.60503 0.0
C56 C 0.2886 0.84313 0.63912 0.0
C57 C 0.25092 0.83751 0.62162 0.0
C58 C 0.28784 0.80267 0.5868 0.0
C59 C 0.27191 0.79103 0.56983 0.0
C60 C 0.27895 0.77524 0.55351 0.0
C61 C 0.30207 0.77088 0.55375 0.0
C62 C 0.31812 0.78296 0.57026 0.0
C63 C 0.31111 0.79866 0.58656 0.0
C64 C 0.30537 0.85437 0.65749 0.0
C65 C 0.32604 0.84598 0.66253 0.0
C66 C 0.34166 0.85647 0.68018 0.0
C67 C 0.33709 0.87574 0.69282 0.0
C68 C 0.31664 0.88433 0.68753 0.0
C69 C 0.30087 0.87368 0.67015 0.0
C70 C 0.22704 0.84311 0.62067 0.0
C71 C 0.21751 0.85339 0.64098 0.0
C72 C 0.64041 0.27791 0.90022 0.0
C73 C 0.6206 0.26501 0.88923 0.0
C74 C 0.6118 0.27334 0.86776 0.0
C75 C 0.62246 0.29408 0.85768 0.0
H76 H 0.61177 0.34726 0.8092 0.0
H77 H 0.59536 0.3656 0.77534 0.0
H78 H 0.66143 0.41116 0.76613 0.0
H79 H 0.67745 0.39345 0.8004 0.0
H80 H 0.71333 0.39976 0.84503 0.0
H81 H 0.74966 0.41863 0.86367 0.0
H82 H 0.74435 0.36562 0.91761 0.0
H83 H 0.70839 0.34654 0.89878 0.0
H84 H 0.66636 0.30778 0.89923 0.0
H85 H 0.64792 0.27194 0.91653 0.0
H86 H 0.59645 0.26398 0.85891 0.0
H87 H 0.61515 0.29996 0.8412 0.0
N88 N 0.64488 0.33835 0.8386 0.0
N89 N 0.67627 0.36891 0.83938 0.0
N90 N 0.67436 0.33987 0.86813 0.0
C91 C 0.65592 0.35837 0.82907 0.0
C92 C 0.68561 0.35982 0.85894 0.0
C93 C 0.65406 0.32894 0.85815 0.0
C94 C 0.64594 0.36889 0.80776 0.0
C95 C 0.62282 0.36118 0.79994 0.0
C96 C 0.61342 0.37167 0.78035 0.0
C97 C 0.62694 0.39005 0.76788 0.0
C98 C 0.6502 0.39745 0.7755 0.0
C99 C 0.6595 0.38712 0.79517 0.0
C100 C 0.70781 0.37153 0.87029 0.0
C101 C 0.71988 0.39208 0.86085 0.0
C102 C 0.74071 0.403 0.87165 0.0
C103 C 0.75005 0.39368 0.89217 0.0
C104 C 0.73794 0.37317 0.90161 0.0
C105 C 0.71715 0.36226 0.89085 0.0
C106 C 0.64231 0.30696 0.86872 0.0
C107 C 0.65111 0.2985 0.89012 0.0
C108 C 0.77445 0.66085 0.40384 0.0
C109 C 0.76462 0.63863 0.39737 0.0
C110 C 0.7763 0.62742 0.37936 0.0
C111 C 0.79721 0.63824 0.36798 0.0
H112 H 0.83869 0.63751 0.30411 0.0
H113 H 0.85514 0.61973 0.26909 0.0
H114 H 0.92066 0.66618 0.27623 0.0
H115 H 0.9038 0.68458 0.31089 0.0
H116 H 0.89924 0.73238 0.34282 0.0
H117 H 0.91745 0.76868 0.36022 0.0
H118 H 0.86636 0.76017 0.42026 0.0
H119 H 0.8484 0.72406 0.40325 0.0
H120 H 0.80241 0.68869 0.39822 0.0
H121 H 0.76607 0.66989 0.41784 0.0
H122 H 0.76911 0.61037 0.37379 0.0
H123 H 0.80566 0.6291 0.35414 0.0
N124 N 0.83915 0.66267 0.34296 0.0
N125 N 0.87037 0.6934 0.34142 0.0
N126 N 0.84039 0.69217 0.37161 0.0
C127 C 0.85959 0.67319 0.33216 0.0
C128 C 0.86082 0.70302 0.36119 0.0
C129 C 0.82943 0.67203 0.3627 0.0
C130 C 0.86988 0.66252 0.31051 0.0
C131 C 0.85662 0.64401 0.29828 0.0
C132 C 0.86617 0.63365 0.27818 0.0
C133 C 0.88939 0.64129 0.26975 0.0
C134 C 0.90264 0.65992 0.28189 0.0
C135 C 0.89299 0.67044 0.30192 0.0
C136 C 0.87231 0.72514 0.37156 0.0
C137 C 0.89193 0.73821 0.35977 0.0
C138 C 0.9023 0.75911 0.36967 0.0
C139 C 0.89344 0.76735 0.39171 0.0
C140 C 0.87389 0.75425 0.40347 0.0
C141 C 0.86347 0.73351 0.39355 0.0
C142 C 0.80709 0.66047 0.37452 0.0
C143 C 0.79542 0.67159 0.39264 0.0
C144 C 0.64942 0.8264 0.84916 0.0
C145 C 0.64862 0.82841 0.87501 0.0
C146 C 0.66073 0.81494 0.88926 0.0
C147 C 0.67372 0.80002 0.87786 0.0
H148 H 0.7175 0.75297 0.89164 0.0
H149 H 0.74077 0.72983 0.91411 0.0
H150 H 0.75703 0.69797 0.84566 0.0
H151 H 0.73382 0.72088 0.82323 0.0
H152 H 0.73231 0.74941 0.77187 0.0
H153 H 0.75526 0.76165 0.73469 0.0
H154 H 0.73967 0.82875 0.74522 0.0
H155 H 0.71586 0.8162 0.78151 0.0
H156 H 0.66322 0.81091 0.81774 0.0
H157 H 0.64039 0.8367 0.83771 0.0
H158 H 0.66024 0.81603 0.90925 0.0
H159 H 0.68315 0.79012 0.88936 0.0
N160 N 0.69859 0.76787 0.85253 0.0
N161 N 0.71991 0.75927 0.81742 0.0
N162 N 0.69747 0.78802 0.81579 0.0
C163 C 0.71322 0.75523 0.84137 0.0
C164 C 0.71221 0.77564 0.80453 0.0
C165 C 0.69036 0.78409 0.83969 0.0
C166 C 0.72401 0.73894 0.8556 0.0
C167 C 0.72564 0.74071 0.88146 0.0
C168 C 0.73908 0.72757 0.89431 0.0
C169 C 0.75085 0.71222 0.88161 0.0
C170 C 0.74804 0.70953 0.85599 0.0
C171 C 0.73486 0.72279 0.84312 0.0
C172 C 0.72251 0.7819 0.7798 0.0
C173 C 0.7334 0.76666 0.7659 0.0
C174 C 0.74671 0.77374 0.74467 0.0
C175 C 0.74977 0.79633 0.73712 0.0
C176 C 0.7376 0.81118 0.75021 0.0
C177 C 0.72398 0.804 0.77119 0.0
C178 C 0.67513 0.79851 0.85194 0.0
C179 C 0.66263 0.81172 0.83774 0.0
C180 C 0.69649 0.16876 0.35492 0.0
C181 C 0.67655 0.17851 0.35063 0.0
C182 C 0.67431 0.19882 0.36258 0.0
C183 C 0.69165 0.2091 0.37867 0.0
H184 H 0.70067 0.24995 0.4403 0.0
H185 H 0.69208 0.27874 0.46889 0.0
H186 H 0.76429 0.29082 0.49229 0.0
H187 H 0.77315 0.26188 0.46334 0.0
H188 H 0.8039 0.22366 0.44918 0.0
H189 H 0.83628 0.20364 0.4567 0.0
H190 H 0.81297 0.15726 0.39739 0.0
H191 H 0.7805 0.17701 0.38986 0.0
H192 H 0.72903 0.17108 0.37357 0.0
H193 H 0.69885 0.15328 0.34564 0.0
H194 H 0.65907 0.20666 0.35961 0.0
H195 H 0.6894 0.22473 0.38768 0.0
N196 N 0.72612 0.22682 0.41547 0.0
N197 N 0.76338 0.22827 0.43257 0.0
N198 N 0.75085 0.20246 0.40094 0.0
C199 C 0.74266 0.23604 0.43184 0.0
C200 C 0.76762 0.2115 0.41709 0.0
C201 C 0.7301 0.21005 0.39993 0.0
C202 C 0.73763 0.25361 0.44943 0.0
C203 C 0.71479 0.25863 0.45151 0.0
C204 C 0.70977 0.27499 0.46813 0.0
C205 C 0.72746 0.28683 0.48304 0.0
C206 C 0.75033 0.2819 0.48103 0.0
C207 C 0.75536 0.26534 0.46447 0.0
C208 C 0.78929 0.2017 0.41924 0.0
C209 C 0.80586 0.20943 0.43745 0.0
C210 C 0.82452 0.19806 0.44167 0.0
C211 C 0.82692 0.17876 0.4278 0.0
C212 C 0.81128 0.1719 0.40858 0.0
C213 C 0.79269 0.18328 0.40429 0.0
C214 C 0.71169 0.19938 0.38286 0.0
C215 C 0.71389 0.1791 0.37076 0.0
C216 C 0.28499 0.63496 0.17327 0.0
C217 C 0.2702 0.64715 0.16062 0.0
C218 C 0.27655 0.67077 0.1598 0.0
C219 C 0.29714 0.68177 0.17086 0.0
H220 H 0.34654 0.73864 0.16278 0.0
H221 H 0.36441 0.77485 0.146 0.0
H222 H 0.42422 0.77599 0.19295 0.0
H223 H 0.40604 0.73973 0.21028 0.0
H224 H 0.39843 0.70158 0.25627 0.0
H225 H 0.41501 0.68355 0.29039 0.0
H226 H 0.3703 0.62057 0.27293 0.0
H227 H 0.35377 0.63842 0.2389 0.0
H228 H 0.31639 0.63607 0.19412 0.0
H229 H 0.28108 0.61677 0.17404 0.0
H230 H 0.26548 0.68092 0.15085 0.0
H231 H 0.30138 0.69995 0.16975 0.0
N232 N 0.34378 0.70229 0.18731 0.0
N233 N 0.37388 0.70341 0.21607 0.0
N234 N 0.34407 0.67157 0.2134 0.0
C235 C 0.36388 0.71341 0.19752 0.0
C236 C 0.36403 0.68246 0.22417 0.0
C237 C 0.33377 0.68141 0.19505 0.0
C238 C 0.37481 0.73604 0.18792 0.0
C239 C 0.36349 0.74652 0.16967 0.0
C240 C 0.37385 0.76734 0.15985 0.0
C241 C 0.39591 0.7784 0.16789 0.0
C242 C 0.40713 0.76812 0.18642 0.0
C243 C 0.39672 0.74723 0.19631 0.0
C244 C 0.3747 0.67153 0.24471 0.0
C245 C 0.39217 0.68387 0.25962 0.0
C246 C 0.40159 0.67356 0.27932 0.0
C247 C 0.39402 0.65059 0.28445 0.0
C248 C 0.37674 0.63823 0.2694 0.0
C249 C 0.36715 0.64855 0.24991 0.0
C250 C 0.31183 0.66957 0.18348 0.0
C251 C 0.3054 0.64603 0.18471 0.0
C252 C 0.14395 0.291 0.6531 0.0
C253 C 0.12474 0.27736 0.66487 0.0
C254 C 0.11507 0.28569 0.68644 0.0
C255 C 0.12456 0.30696 0.6961 0.0
H256 H 0.11397 0.35624 0.74914 0.0
H257 H 0.09631 0.37346 0.78411 0.0
H258 H 0.15315 0.4303 0.7812 0.0
H259 H 0.17104 0.41301 0.74663 0.0
H260 H 0.21142 0.4158 0.70518 0.0
H261 H 0.24744 0.43513 0.685 0.0
H262 H 0.24543 0.37959 0.63367 0.0
H263 H 0.20942 0.36052 0.65336 0.0
H264 H 0.16825 0.32196 0.653 0.0
H265 H 0.15159 0.28545 0.63619 0.0
H266 H 0.1004 0.27562 0.69615 0.0
H267 H 0.11681 0.31271 0.71284 0.0
N268 N 0.14484 0.35222 0.71434 0.0
N269 N 0.17514 0.38377 0.71257 0.0
N270 N 0.17485 0.3542 0.68416 0.0
C271 C 0.15493 0.37274 0.72343 0.0
C272 C 0.18523 0.37461 0.69291 0.0
C273 C 0.15473 0.34284 0.69464 0.0
C274 C 0.14402 0.38314 0.74491 0.0
C275 C 0.12278 0.37239 0.75595 0.0
C276 C 0.11253 0.38235 0.77597 0.0
C277 C 0.12326 0.40332 0.78559 0.0
C278 C 0.14452 0.41402 0.7746 0.0
C279 C 0.15473 0.4041 0.75457 0.0
C280 C 0.20733 0.38657 0.68094 0.0
C281 C 0.21862 0.40771 0.68957 0.0
C282 C 0.23938 0.41877 0.67806 0.0
C283 C 0.24935 0.40899 0.6576 0.0
C284 C 0.2381 0.38784 0.64908 0.0
C285 C 0.21743 0.37681 0.66055 0.0
C286 C 0.144 0.32041 0.68443 0.0
C287 C 0.15344 0.31212 0.66273 0.0
Gd288 Gd 0.01636 0.03198 0.50216 0.0
Gd289 Gd 1.00285 1.0129 0.55342 0.0
C290 C 0.03224 0.06224 0.55177 0.0
C291 C 0.02528 0.05711 0.46366 0.0
C292 C 0.04582 0.07391 0.45649 0.0
C293 C 0.06807 0.0725 0.46572 0.0
C294 C 0.04334 0.09155 0.44065 0.0
C295 C 0.08543 0.10564 0.4424 0.0
C296 C 0.06302 0.10739 0.43371 0.0
C297 C 0.08773 0.08814 0.45859 0.0
C298 C 0.04663 1.00783 0.52154 0.0
C299 C 0.98658 0.98276 0.50395 0.0
C300 C 0.99481 0.98793 0.59217 0.0
C301 C 0.9764 0.96895 0.59987 0.0
C302 C 0.96001 0.97245 0.61839 0.0
C303 C 0.97441 0.94762 0.58855 0.0
C304 C 0.93928 0.93409 0.61334 0.0
C305 C 0.95605 0.93031 0.59532 0.0
C306 C 0.94156 0.95526 0.62495 0.0
C307 C 0.97245 0.03688 0.5339 0.0
O308 O 0.02743 0.06186 0.52791 0.0
O309 O 0.02779 0.04375 0.5652 0.0
O310 O 0.02892 0.03631 0.46437 0.0
O311 O 0.01297 0.0625 0.48267 0.0
O312 O 0.04235 1.00818 0.49819 0.0
O313 O 0.03623 1.02151 0.53304 0.0
O314 O 0.99177 0.98301 0.52772 0.0
O315 O 0.9907 1.0014 0.4907 0.0
O316 O 0.98795 1.00741 0.59027 0.0
O317 O 0.00934 0.98419 0.5743 0.0
O318 O 0.97647 0.03646 0.55732 0.0
O319 O 0.983 0.02331 0.52245 0.0
H320 H 0.07028 0.0592 0.47831 0.0
H321 H 0.02624 0.09297 0.43354 0.0
H322 H 0.06081 0.12069 0.42113 0.0
H323 H 0.10475 0.08659 0.46581 0.0
H324 H 0.96126 0.98864 0.62759 0.0
H325 H 0.9868 0.94434 0.57424 0.0
H326 H 0.95465 0.91413 0.58609 0.0
H327 H 0.92909 0.9585 0.6392 0.0
Gd328 Gd 0.53097 0.02792 0.0378 0.0
Gd329 Gd 0.48591 1.01293 1.01376 0.0
C330 C 0.484 0.04483 0.05938 0.0
C331 C 0.56732 0.05035 0.05928 0.0
C332 C 0.57143 0.06131 0.08361 0.0
C333 C 0.58772 0.05431 0.09935 0.0
C334 C 0.55848 0.07776 0.09193 0.0
C335 C 0.57745 0.07928 0.13174 0.0
C336 C 0.56152 0.08671 0.11579 0.0
C337 C 0.59067 0.06315 0.12321 0.0
C338 C 0.50739 0.988 0.05489 0.0
C339 C 0.53298 0.99582 0.99232 0.0
C340 C 0.44917 0.99047 0.99289 0.0
C341 C 0.44416 0.98144 0.96803 0.0
C342 C 0.46048 0.9872 0.94861 0.0
C343 C 0.42271 0.96742 0.96347 0.0
C344 C 0.43337 0.9657 0.91983 0.0
C345 C 0.41736 0.95954 0.93957 0.0
C346 C 0.45512 0.97942 0.92466 0.0
C347 C 0.50949 0.05284 0.99662 0.0
O348 O 0.50713 0.04927 0.05677 0.0
O349 O 0.47152 0.02797 0.04732 0.0
O350 O 0.56208 0.02841 0.05961 0.0
O351 O 0.55463 0.05943 0.04378 0.0
O352 O 0.52995 0.99258 0.05143 0.0
O353 O 0.49829 1.00503 0.05022 0.0
O354 O 0.50979 0.99175 0.99449 0.0
O355 O 0.54557 1.01235 1.00477 0.0
O356 O 0.45334 1.01241 0.99461 0.0
O357 O 0.46382 0.98097 1.00552 0.0
O358 O 0.48691 0.04817 0.99981 0.0
O359 O 0.51856 0.03581 1.00128 0.0
H360 H 0.59793 0.0417 0.09329 0.0
H361 H 0.54577 0.08348 0.08019 0.0
H362 H 0.55107 0.09907 0.12193 0.0
H363 H 0.60337 0.05741 0.13497 0.0
H364 H 0.47718 0.99802 0.95192 0.0
H365 H 0.41001 0.96273 0.97836 0.0
H366 H 0.40065 0.94866 0.93655 0.0
H367 H 0.46774 0.98463 0.90987 0.0
Gd368 Gd 0.51212 0.50203 0.51085 0.0
Gd369 Gd 0.50439 0.53963 0.54489 0.0
C370 C 0.52975 0.50296 0.56825 0.0
C371 C 0.53137 0.47241 0.48737 0.0
C372 C 0.55165 0.46203 0.49371 0.0
C373 C 0.55197 0.43951 0.48751 0.0
C374 C 0.57004 0.47411 0.50758 0.0
C375 C 0.58874 0.44108 0.50928 0.0
C376 C 0.58845 0.46374 0.51525 0.0
C377 C 0.57039 0.4291 0.4952 0.0
C378 C 0.46864 0.49671 0.53173 0.0
C379 C 0.48675 0.53878 0.48729 0.0
C380 C 0.48548 0.56957 0.56826 0.0
C381 C 0.46712 0.58199 0.56059 0.0
C382 C 0.46837 0.60461 0.56736 0.0
C383 C 0.4492 0.5718 0.54489 0.0
C384 C 0.43418 0.60689 0.54247 0.0
C385 C 0.43289 0.58413 0.53591 0.0
C386 C 0.452 0.61698 0.55841 0.0
C387 C 0.54787 0.54475 0.52396 0.0
O388 O 0.53296 0.49677 0.54504 0.0
O389 O 0.51669 0.51831 0.5737 0.0
O390 O 0.51283 0.46706 0.50181 0.0
O391 O 0.53607 0.49391 0.48229 0.0
O392 O 0.47278 0.49054 0.50923 0.0
O393 O 0.4877 0.50419 0.54229 0.0
O394 O 0.48462 0.54595 0.51031 0.0
O395 O 0.49874 0.52255 0.48197 0.0
O396 O 0.50549 0.57442 0.55608 0.0
O397 O 0.47873 0.54793 0.57151 0.0
O398 O 0.54382 0.55066 0.54659 0.0
O399 O 0.52874 0.5375 0.51343 0.0
H400 H 0.53784 0.42992 0.47697 0.0
H401 H 0.57001 0.49148 0.51284 0.0
H402 H 0.6022 0.47332 0.52626 0.0
H403 H 0.57033 0.4117 0.49002 0.0
H404 H 0.48216 0.61277 0.57932 0.0
H405 H 0.44802 0.55438 0.5392 0.0
H406 H 0.41954 0.57597 0.52346 0.0
H407 H 0.45322 0.6344 0.56408 0.0
Gd408 Gd 0.01098 0.49748 0.04042 0.0
Gd409 Gd 1.00444 0.54541 1.02069 0.0
C410 C 0.05317 0.54113 0.04703 0.0
C411 C 0.02554 0.4609 0.05223 0.0
C412 C 0.04785 0.45421 0.05937 0.0
C413 C 0.06179 0.46581 0.07798 0.0
C414 C 0.055 0.4355 0.04788 0.0
C415 C 0.08897 0.43922 0.07445 0.0
C416 C 0.07543 0.42811 0.05528 0.0
C417 C 0.08211 0.45831 0.08552 0.0
C418 C 0.98616 0.52191 0.06961 0.0
C419 C 0.96523 0.50055 1.0089 0.0
C420 C 0.98917 0.58313 1.02003 0.0
C421 C 0.97275 0.59401 1.00612 0.0
C422 C 0.9646 0.58582 0.98297 0.0
C423 C 0.96377 0.6119 1.01714 0.0
C424 C 0.93815 0.61327 0.9822 0.0
C425 C 0.94662 0.62143 1.00535 0.0
C426 C 0.94748 0.59544 0.97104 0.0
C427 C 0.02252 0.5217 0.98408 0.0
O428 O 0.04648 0.51894 0.04769 0.0
O429 O 0.03949 0.5549 0.03885 0.0
O430 O 0.01589 0.47326 0.06809 0.0
O431 O 0.02423 0.46726 0.02933 0.0
O432 O 0.98098 0.50017 0.06721 0.0
O433 O 1.00443 0.52936 0.05702 0.0
O434 O 0.97002 0.52281 1.01131 0.0
O435 O 0.97967 0.48726 1.01644 0.0
O436 O 0.00867 0.58004 1.0086 0.0
O437 O 0.97934 0.56586 0.03331 0.0
O438 O 0.01788 0.54185 0.98113 0.0
O439 O 0.0171 0.5159 1.00601 0.0
H440 H 0.05683 0.48045 0.08699 0.0
H441 H 0.04452 0.42635 0.03347 0.0
H442 H 0.08019 0.41324 0.04656 0.0
H443 H 0.09238 0.46734 0.10015 0.0
H444 H 0.97121 0.57182 0.97433 0.0
H445 H 0.96964 0.61819 0.03519 0.0
H446 H 0.93954 0.6348 1.01475 0.0
H447 H 0.94154 0.58889 0.95313 0.0
C448 C 0.24761 0.24262 0.35402 0.0
C449 C 0.26102 0.2309 0.33819 0.0
C450 C 0.23068 0.23095 0.37016 0.0
C451 C 0.21005 0.1763 0.40003 0.0
H452 H 0.14762 0.19002 0.39066 0.0
C453 C 0.12669 0.11346 0.42571 0.0
C454 C 0.10654 0.12159 0.43411 0.0
C455 C 0.14655 0.12831 0.41747 0.0
C456 C 0.16494 0.18621 0.39399 0.0
H457 H 0.2678 0.19764 0.32801 0.0
H458 H 0.23886 0.17749 0.35666 0.0
H459 H 0.18155 0.21371 0.37159 0.0
H460 H 0.09146 0.15158 0.44104 0.0
H461 H 0.12639 0.17769 0.4272 0.0
H462 H 0.19355 0.14878 0.42234 0.0
C463 C 0.24144 0.19571 0.35648 0.0
C464 C 0.18439 0.1998 0.383 0.0
C465 C 0.25813 0.20733 0.34011 0.0
C466 C 0.10671 0.14489 0.43439 0.0
C467 C 0.12671 0.1598 0.42642 0.0
C468 C 0.19063 0.16286 0.41128 0.0
C469 C 0.22708 0.20735 0.37111 0.0
C470 C 0.20706 0.19469 0.38548 0.0
C471 C 0.14684 0.15168 0.41769 0.0
C472 C 0.16775 0.16732 0.40792 0.0
H473 H 0.2497 0.2608 0.35345 0.0
H474 H 0.22002 0.24033 0.3815 0.0
H475 H 0.22739 0.17213 0.4024 0.0
H476 H 0.12691 0.09554 0.42499 0.0
H477 H 0.16146 0.12136 0.41036 0.0
C478 C 0.3601 0.87326 0.73099 0.0
C479 C 0.35299 0.8864 0.71227 0.0
C480 C 0.37303 0.88348 0.75081 0.0
C481 C 0.38345 0.93748 0.78447 0.0
H482 H 0.4276 0.90868 0.82012 0.0
C483 C 0.40414 0.9581 0.88592 0.0
C484 C 0.42708 0.95833 0.89423 0.0
C485 C 0.39801 0.95107 0.86197 0.0
C486 C 0.41559 0.91715 0.8102 0.0
H487 H 0.35495 0.92033 0.69867 0.0
H488 H 0.37806 0.93824 0.73298 0.0
H489 H 0.41326 0.8934 0.78035 0.0
H490 H 0.46165 0.95144 0.88378 0.0
H491 H 0.45106 0.93965 0.84163 0.0
H492 H 0.38595 0.96136 0.81412 0.0
C493 C 0.37311 0.92008 0.73277 0.0
C494 C 0.40714 0.90823 0.78755 0.0
C495 C 0.35995 0.90986 0.71309 0.0
C496 C 0.44386 0.95161 0.87789 0.0
C497 C 0.43773 0.94464 0.85382 0.0
C498 C 0.39202 0.94649 0.80699 0.0
C499 C 0.3793 0.90705 0.75219 0.0
C500 C 0.39054 0.91798 0.77469 0.0
C501 C 0.41471 0.94424 0.84562 0.0
C502 C 0.40772 0.93611 0.82043 0.0
H503 H 0.35476 0.85513 0.73088 0.0
H504 H 0.37716 0.87292 0.76559 0.0
H505 H 0.37052 0.94535 0.77525 0.0
H506 H 0.39089 0.9635 0.89789 0.0
H507 H 0.38001 0.95064 0.85641 0.0
C508 C 0.62326 0.42505 0.74393 0.0
C509 C 0.6169 0.40164 0.74722 0.0
C510 C 0.61419 0.43593 0.72452 0.0
C511 C 0.58401 0.42511 0.66395 0.0
H512 H 0.57147 0.48562 0.67433 0.0
C513 C 0.55695 0.47767 0.58338 0.0
C514 C 0.54063 0.49202 0.58856 0.0
C515 C 0.56659 0.46687 0.60251 0.0
C516 C 0.57461 0.46864 0.67108 0.0
H517 H 0.5958 0.37144 0.73217 0.0
H518 H 0.57933 0.39047 0.69901 0.0
H519 H 0.5864 0.46615 0.70799 0.0
H520 H 0.5216 0.50604 0.6181 0.0
H521 H 0.53786 0.48691 0.65124 0.0
H522 H 0.57136 0.42731 0.62729 0.0
C523 C 0.59177 0.40042 0.71119 0.0
C524 C 0.58357 0.45753 0.69039 0.0
C525 C 0.60099 0.3895 0.73053 0.0
C526 C 0.53426 0.49529 0.61337 0.0
C527 C 0.54374 0.48435 0.63247 0.0
C528 C 0.57488 0.43617 0.64467 0.0
C529 C 0.59826 0.42383 0.70783 0.0
C530 C 0.58847 0.43559 0.68715 0.0
C531 C 0.56005 0.46994 0.62739 0.0
C532 C 0.57003 0.45813 0.64791 0.0
H533 H 0.63515 0.43515 0.75651 0.0
H534 H 0.61995 0.45388 0.72249 0.0
H535 H 0.58779 0.40838 0.6605 0.0
H536 H 0.56235 0.47478 0.56452 0.0
H537 H 0.57936 0.45625 0.59775 0.0
C538 C 0.89361 0.60627 0.24523 0.0
C539 C 0.89963 0.62974 0.24854 0.0
C540 C 0.90268 0.59544 0.22516 0.0
C541 C 0.9517 0.6012 0.17948 0.0
H542 H 0.90999 0.55548 0.14329 0.0
C543 C 0.9838 0.55828 0.09185 0.0
C544 C 0.9752 0.53523 0.08831 0.0
C545 C 0.97417 0.57053 0.11039 0.0
C546 C 0.92202 0.56797 0.15334 0.0
H547 H 0.92019 0.66009 0.23291 0.0
H548 H 0.93638 0.64109 0.19825 0.0
H549 H 0.89447 0.57517 0.17769 0.0
H550 H 0.94972 0.50699 0.10147 0.0
H551 H 0.93333 0.52805 0.13413 0.0
H552 H 0.97938 0.59371 0.15558 0.0
C553 C 0.9246 0.6311 0.21132 0.0
C554 C 0.91306 0.57933 0.17307 0.0
C555 C 0.91534 0.64199 0.2313 0.0
C556 C 0.95664 0.52476 0.10361 0.0
C557 C 0.94713 0.53693 0.12228 0.0
C558 C 0.96073 0.58969 0.15987 0.0
C559 C 0.91826 0.60769 0.2079 0.0
C560 C 0.92779 0.59602 0.18648 0.0
C561 C 0.95581 0.56 0.12606 0.0
C562 C 0.94605 0.57281 0.14654 0.0
H563 H 0.88204 0.5961 0.25832 0.0
H564 H 0.89774 0.57735 0.22336 0.0
H565 H 0.9636 0.61378 0.18957 0.0
H566 H 0.99817 0.56682 0.08043 0.0
H567 H 0.98112 0.58829 0.11237 0.0
C568 C 0.37231 0.18246 0.14734 0.0
C569 C 0.38386 0.19699 0.16536 0.0
C570 C 0.38312 0.16559 0.13669 0.0
C571 C 0.43133 0.13316 0.14666 0.0
H572 H 0.42161 0.11755 0.07753 0.0
C573 C 0.48467 0.0758 0.0907 0.0
C574 C 0.47188 0.05989 0.07475 0.0
C575 C 0.47362 0.09164 0.10318 0.0
C576 C 0.42429 0.12157 0.09693 0.0
H577 H 0.41599 0.20563 0.18596 0.0
H578 H 0.43522 0.17658 0.16689 0.0
H579 H 0.40365 0.14771 0.09569 0.0
H580 H 0.4373 0.04764 0.06001 0.0
H581 H 0.41809 0.07537 0.0817 0.0
H582 H 0.45251 0.10726 0.14754 0.0
C583 C 0.41754 0.17778 0.16143 0.0
C584 C 0.41396 0.13884 0.10738 0.0
C585 C 0.4066 0.19452 0.17227 0.0
C586 C 0.44766 0.05966 0.07218 0.0
C587 C 0.43668 0.07564 0.08444 0.0
C588 C 0.44188 0.11603 0.1361 0.0
C589 C 0.40587 0.16298 0.14362 0.0
C590 C 0.41725 0.14482 0.13242 0.0
C591 C 0.44963 0.092 0.09974 0.0
C592 C 0.43836 0.11 0.11116 0.0
H593 H 0.35461 0.18375 0.14195 0.0
H594 H 0.3734 0.15428 0.12339 0.0
H595 H 0.43395 0.13702 0.16609 0.0
H596 H 0.50332 0.07634 0.09319 0.0
H597 H 0.48405 0.1041 0.11482 0.0
C598 C 0.16143 0.88984 0.62377 0.0
C599 C 0.16224 0.86836 0.61371 0.0
C600 C 0.14371 0.9016 0.61717 0.0
C601 C 0.11155 0.90911 0.56348 0.0
H602 H 0.07614 0.94421 0.60545 0.0
C603 C 0.0572 0.96966 0.52109 0.0
C604 C 0.05692 0.99015 0.53339 0.0
C605 C 0.06626 0.95249 0.53254 0.0
C606 C 0.08611 0.93471 0.59347 0.0
H607 H 0.14373 0.84163 0.59067 0.0
H608 H 0.11335 0.86269 0.57839 0.0
H609 H 0.098 0.91753 0.62404 0.0
H610 H 0.06555 1.00898 0.56717 0.0
H611 H 0.08277 0.97954 0.58675 0.0
H612 H 0.10132 0.92708 0.53305 0.0
C613 C 0.1265 0.87028 0.59136 0.0
C614 C 0.09838 0.9193 0.60413 0.0
C615 C 0.14399 0.85835 0.59826 0.0
C616 C 0.06572 0.99328 0.55734 0.0
C617 C 0.07529 0.97628 0.56862 0.0
C618 C 0.09971 0.92477 0.55286 0.0
C619 C 0.12668 0.89225 0.60018 0.0
C620 C 0.11134 0.90654 0.5892 0.0
C621 C 0.07576 0.95567 0.55632 0.0
C622 C 0.08702 0.93797 0.56771 0.0
H623 H 0.17528 0.89824 0.63548 0.0
H624 H 0.14431 0.91862 0.62402 0.0
H625 H 0.12182 0.89976 0.55163 0.0
H626 H 0.05005 0.96673 0.50276 0.0
H627 H 0.06574 0.9367 0.5227 0.0
C628 C 0.77705 0.42878 0.90652 0.0
C629 C 0.77229 0.40521 0.90372 0.0
C630 C 0.79771 0.43947 0.91779 0.0
C631 C 0.84453 0.42841 0.95973 0.0
H632 H 0.87899 0.4846 0.93404 0.0
C633 C 0.93726 0.46658 0.994 0.0
C634 C 0.94284 0.49007 0.99708 0.0
C635 C 0.91634 0.45664 0.98275 0.0
C636 C 0.86945 0.46906 0.94166 0.0
H637 H 0.7861 0.37456 0.91009 0.0
H638 H 0.82196 0.39313 0.9297 0.0
H639 H 0.84296 0.46661 0.9141 0.0
H640 H 0.93055 0.52151 0.99061 0.0
H641 H 0.89398 0.50416 0.97124 0.0
H642 H 0.87096 0.43082 0.98727 0.0
C643 C 0.80951 0.40336 0.9236 0.0
C644 C 0.84875 0.45872 0.9302 0.0
C645 C 0.78889 0.39268 0.91232 0.0
C646 C 0.9269 0.50336 0.98857 0.0
C647 C 0.90595 0.49341 0.97729 0.0
C648 C 0.86519 0.43875 0.97119 0.0
C649 C 0.81418 0.4269 0.9266 0.0
C650 C 0.83606 0.43818 0.939 0.0
C651 C 0.90036 0.46989 0.97425 0.0
C652 C 0.87803 0.45917 0.96226 0.0
H653 H 0.76456 0.43898 0.90045 0.0
H654 H 0.80053 0.45759 0.92005 0.0
H655 H 0.83503 0.41285 0.96734 0.0
H656 H 0.9491 0.45575 1.00018 0.0
H657 H 0.91286 0.43853 0.98041 0.0
C658 C 0.73971 0.60485 0.41741 0.0
C659 C 0.74228 0.62728 0.40942 0.0
C660 C 0.7189 0.59445 0.42927 0.0
C661 C 0.65585 0.59815 0.4373 0.0
H662 H 0.65907 0.5629 0.49627 0.0
C663 C 0.57227 0.5488 0.48491 0.0
C664 C 0.57074 0.55109 0.51072 0.0
C665 C 0.59346 0.55642 0.47215 0.0
C666 C 0.65788 0.57272 0.47985 0.0
H667 H 0.7247 0.65617 0.40722 0.0
H668 H 0.68848 0.63809 0.42791 0.0
H669 H 0.69536 0.57981 0.47466 0.0
H670 H 0.59038 0.56241 0.54351 0.0
H671 H 0.62743 0.57566 0.52128 0.0
H672 H 0.61843 0.59138 0.44265 0.0
C673 C 0.70255 0.62851 0.42499 0.0
C674 C 0.67866 0.58224 0.46733 0.0
C675 C 0.72341 0.63895 0.41333 0.0
C676 C 0.59102 0.56047 0.5236 0.0
C677 C 0.61227 0.56796 0.51086 0.0
C678 C 0.63508 0.58848 0.44968 0.0
C679 C 0.70005 0.60615 0.43321 0.0
C680 C 0.67792 0.59525 0.44602 0.0
C681 C 0.61366 0.56636 0.48493 0.0
C682 C 0.63582 0.57579 0.47122 0.0
H683 H 0.75396 0.59543 0.41486 0.0
H684 H 0.71749 0.57716 0.43519 0.0
H685 H 0.65462 0.60788 0.42081 0.0
H686 H 0.55695 0.54157 0.47447 0.0
H687 H 0.59399 0.55464 0.45222 0.0
C688 C 0.25492 0.35046 0.13875 0.0
C689 C 0.25312 0.34452 0.16388 0.0
C690 C 0.23804 0.36134 0.12811 0.0
C691 C 0.17681 0.37108 0.13869 0.0
H692 H 0.19358 0.41806 0.0899 0.0
C693 C 0.11193 0.42763 0.10933 0.0
C694 C 0.10941 0.43015 0.0838 0.0
C695 C 0.13023 0.41776 0.11826 0.0
C696 C 0.18867 0.40485 0.10338 0.0
H697 H 0.23194 0.34542 0.19741 0.0
H698 H 0.20343 0.36515 0.17927 0.0
H699 H 0.22426 0.39976 0.10714 0.0
H700 H 0.12448 0.42497 0.04764 0.0
H701 H 0.15673 0.40781 0.06335 0.0
H702 H 0.14134 0.37649 0.13531 0.0
C703 C 0.21755 0.36103 0.16758 0.0
C704 C 0.20619 0.39431 0.1132 0.0
C705 C 0.23423 0.35003 0.17812 0.0
C706 C 0.12593 0.4231 0.0674 0.0
C707 C 0.14444 0.41344 0.07637 0.0
C708 C 0.1594 0.38176 0.12909 0.0
C709 C 0.21903 0.36657 0.14237 0.0
C710 C 0.20049 0.37741 0.13115 0.0
C711 C 0.14654 0.41038 0.10188 0.0
C712 C 0.16516 0.39885 0.11149 0.0
H713 H 0.26933 0.34668 0.12726 0.0
H714 H 0.23966 0.36522 0.10859 0.0
H715 H 0.17163 0.35775 0.15197 0.0
H716 H 0.09934 0.43273 0.12239 0.0
H717 H 0.13156 0.41579 0.13802 0.0
C718 C 0.60143 0.22415 0.88529 0.0
C719 C 0.60928 0.24305 0.90029 0.0
C720 C 0.59139 0.20346 0.89584 0.0
C721 C 0.56204 0.17857 0.95323 0.0
H722 H 0.57706 0.12265 0.92682 0.0
C723 C 0.5096 0.09203 0.98208 0.0
C724 C 0.52201 0.07433 0.98604 0.0
C725 C 0.52091 0.11241 0.97198 0.0
C726 C 0.57281 0.13812 0.93455 0.0
H727 H 0.61222 0.25491 0.93824 0.0
H728 H 0.59496 0.21895 0.95655 0.0
H729 H 0.5954 0.15846 0.90846 0.0
H730 H 0.55613 0.06416 0.98261 0.0
H731 H 0.57603 0.09989 0.96484 0.0
H732 H 0.5396 0.15834 0.97939 0.0
C733 C 0.59648 0.22009 0.93661 0.0
C734 C 0.58312 0.15865 0.92383 0.0
C735 C 0.60662 0.24071 0.92609 0.0
C736 C 0.54609 0.07749 0.97971 0.0
C737 C 0.55743 0.09791 0.96942 0.0
C738 C 0.55164 0.15807 0.96382 0.0
C739 C 0.58876 0.20114 0.92166 0.0
C740 C 0.57785 0.17918 0.93301 0.0
C741 C 0.54497 0.11567 0.96547 0.0
C742 C 0.55679 0.13754 0.95459 0.0
H743 H 0.60336 0.22525 0.86538 0.0
H744 H 0.58544 0.18932 0.88372 0.0
H745 H 0.55738 0.19397 0.96069 0.0
H746 H 0.49102 0.09015 0.98676 0.0
H747 H 0.51064 0.12553 0.96893 0.0
C748 C 0.91127 0.80848 0.38744 0.0
C749 C 0.90432 0.78953 0.40252 0.0
C750 C 0.92049 0.82947 0.39784 0.0
C751 C 0.94836 0.85619 0.45452 0.0
H752 H 0.92763 0.90979 0.43072 0.0
C753 C 0.97036 0.94134 0.50622 0.0
C754 C 0.97609 0.96106 0.4921 0.0
C755 C 0.96155 0.92067 0.49499 0.0
C756 C 0.93387 0.89506 0.43742 0.0
H757 H 0.90231 0.7778 0.44037 0.0
H758 H 0.91816 0.81429 0.45845 0.0
H759 H 0.91317 0.87342 0.41146 0.0
H760 H 0.97681 0.97436 0.45496 0.0
H761 H 0.96174 0.93832 0.43535 0.0
H762 H 0.96914 0.87774 0.48037 0.0
C763 C 0.91656 0.81297 0.43857 0.0
C764 C 0.92555 0.87416 0.42634 0.0
C765 C 0.90723 0.79205 0.4282 0.0
C766 C 0.97249 0.95958 0.46646 0.0
C767 C 0.96373 0.93886 0.4552 0.0
C768 C 0.95674 0.87707 0.46552 0.0
C769 C 0.92318 0.83201 0.42357 0.0
C770 C 0.93259 0.85442 0.43483 0.0
C771 C 0.95829 0.91907 0.46928 0.0
C772 C 0.94952 0.89682 0.45724 0.0
H773 H 0.90912 0.80721 0.36762 0.0
H774 H 0.92562 0.8437 0.3857 0.0
H775 H 0.95448 0.84142 0.46129 0.0
H776 H 0.97279 0.94179 0.52602 0.0
H777 H 0.95718 0.90593 0.50655 0.0
C778 C 0.33187 0.75511 0.52785 0.0
C779 C 0.30919 0.75252 0.53853 0.0
C780 C 0.34048 0.73653 0.51823 0.0
C781 C 0.3329 0.67683 0.53161 0.0
H782 H 0.3839 0.6789 0.48348 0.0
C783 C 0.39284 0.61059 0.53229 0.0
C784 C 0.41686 0.62002 0.53294 0.0
C785 C 0.37631 0.62355 0.52513 0.0
C786 C 0.36957 0.67801 0.49687 0.0
H787 H 0.27688 0.72887 0.54524 0.0
H788 H 0.29173 0.69651 0.52785 0.0
H789 H 0.35935 0.70811 0.48343 0.0
H790 H 0.44257 0.64991 0.52505 0.0
H791 H 0.41372 0.67273 0.51322 0.0
H792 H 0.34373 0.64749 0.54588 0.0
C793 C 0.30305 0.71282 0.52744 0.0
C794 C 0.35552 0.69471 0.49683 0.0
C795 C 0.29447 0.73141 0.5372 0.0
C796 C 0.42413 0.64232 0.52516 0.0
C797 C 0.40762 0.65527 0.51799 0.0
C798 C 0.34686 0.66015 0.53159 0.0
C799 C 0.32653 0.71499 0.51897 0.0
C800 C 0.33765 0.6948 0.51487 0.0
C801 C 0.38349 0.64618 0.51845 0.0
C802 C 0.36593 0.66107 0.51488 0.0
H803 H 0.34344 0.77129 0.52816 0.0
H804 H 0.35867 0.73886 0.51195 0.0
H805 H 0.31953 0.67649 0.546 0.0
H806 H 0.38669 0.59345 0.53823 0.0
H807 H 0.35785 0.61605 0.52549 0.0
C808 C 0.76401 0.82275 0.70207 0.0
C809 C 0.76739 0.80497 0.71746 0.0
C810 C 0.78211 0.83308 0.68634 0.0
C811 C 0.84698 0.84179 0.68119 0.0
H812 H 0.83665 0.87108 0.61993 0.0
C813 C 0.92316 0.89439 0.62572 0.0
C814 C 0.91934 0.91615 0.62013 0.0
C815 C 0.9045 0.87802 0.63395 0.0
C816 C 0.83976 0.86292 0.63699 0.0
H817 H 0.79227 0.78339 0.72718 0.0
H818 H 0.82315 0.80054 0.69893 0.0
H819 H 0.80385 0.84661 0.6404 0.0
H820 H 0.89296 0.93755 0.61752 0.0
H821 H 0.86035 0.90895 0.63179 0.0
H822 H 0.88282 0.85825 0.67785 0.0
C823 C 0.80677 0.807 0.69957 0.0
C824 C 0.82098 0.84899 0.64878 0.0
C825 C 0.78882 0.79688 0.71552 0.0
C826 C 0.89641 0.92097 0.62196 0.0
C827 C 0.87773 0.90455 0.62988 0.0
C828 C 0.86576 0.8555 0.66927 0.0
C829 C 0.80396 0.82572 0.68538 0.0
C830 C 0.82426 0.83859 0.6713 0.0
C831 C 0.88165 0.88303 0.63637 0.0
C832 C 0.86225 0.86654 0.64732 0.0
H833 H 0.74761 0.82916 0.70267 0.0
H834 H 0.77928 0.84751 0.67581 0.0
H835 H 0.85015 0.83448 0.69872 0.0
H836 H 0.94069 0.89028 0.62453 0.0
H837 H 0.90796 0.86152 0.63872 0.0
C838 C 0.6507 0.18052 0.31443 0.0
C839 C 0.65873 0.16776 0.33297 0.0
C840 C 0.63635 0.1699 0.29579 0.0
C841 C 0.62523 0.11559 0.26375 0.0
H842 H 0.57696 0.14108 0.23082 0.0
C843 C 0.58185 0.07379 0.17702 0.0
C844 C 0.58051 0.08834 0.1572 0.0
C845 C 0.58665 0.08239 0.20074 0.0
C846 C 0.59044 0.1338 0.23982 0.0
H847 H 0.65663 0.1342 0.34776 0.0
H848 H 0.63137 0.11566 0.31537 0.0
H849 H 0.59358 0.15826 0.26911 0.0
H850 H 0.58226 0.12318 0.14675 0.0
H851 H 0.59103 0.13829 0.18817 0.0
H852 H 0.62274 0.09161 0.23427 0.0
C853 C 0.6366 0.13378 0.31486 0.0
C854 C 0.59993 0.14361 0.26172 0.0
C855 C 0.65103 0.14437 0.33339 0.0
C856 C 0.58309 0.11159 0.16174 0.0
C857 C 0.58801 0.12021 0.18547 0.0
C858 C 0.61578 0.10582 0.24193 0.0
C859 C 0.62971 0.14634 0.29544 0.0
C860 C 0.61769 0.13479 0.27371 0.0
C861 C 0.59035 0.10573 0.20511 0.0
C862 C 0.59854 0.11499 0.22951 0.0
H863 H 0.6565 0.19856 0.3136 0.0
H864 H 0.63154 0.18004 0.28096 0.0
H865 H 0.63921 0.10863 0.27221 0.0
H866 H 0.57945 0.05575 0.17412 0.0
H867 H 0.58788 0.07076 0.21559 0.0
C868 C 0.40983 0.61792 0.30251 0.0
C869 C 0.40393 0.63949 0.30543 0.0
C870 C 0.41875 0.60731 0.32224 0.0
C871 C 0.42095 0.60671 0.39047 0.0
H872 H 0.47349 0.57539 0.37916 0.0
C873 C 0.46688 0.56968 0.4712 0.0
C874 C 0.476 0.54977 0.46692 0.0
C875 C 0.45783 0.58062 0.45178 0.0
C876 C 0.45856 0.58372 0.38268 0.0
H877 H 0.40269 0.66669 0.33163 0.0
H878 H 0.41821 0.64814 0.36608 0.0
H879 H 0.45845 0.59434 0.34501 0.0
H880 H 0.48208 0.52549 0.43878 0.0
H881 H 0.46577 0.54408 0.40519 0.0
H882 H 0.42072 0.5958 0.42802 0.0
C883 C 0.4159 0.63943 0.34848 0.0
C884 C 0.44999 0.5947 0.36302 0.0
C885 C 0.40721 0.65016 0.32865 0.0
C886 C 0.47539 0.54087 0.44278 0.0
C887 C 0.46617 0.55169 0.42341 0.0
C888 C 0.42938 0.59554 0.41011 0.0
C889 C 0.42181 0.61786 0.34553 0.0
C890 C 0.43106 0.60635 0.36662 0.0
C891 C 0.45746 0.57188 0.42751 0.0
C892 C 0.44833 0.58384 0.40654 0.0
H893 H 0.40772 0.60927 0.28486 0.0
H894 H 0.42293 0.59064 0.31933 0.0
H895 H 0.40616 0.61527 0.39386 0.0
H896 H 0.46716 0.57714 0.4895 0.0
H897 H 0.45163 0.59624 0.45577 0.0
C898 C 0.12631 0.42571 0.82546 0.0
C899 C 0.1123 0.41411 0.80684 0.0
C900 C 0.11614 0.43626 0.84506 0.0
C901 C 0.06226 0.45905 0.8627 0.0
H902 H 0.0867 0.45883 0.92887 0.0
C903 C 0.03568 0.51695 0.94032 0.0
C904 C 0.03225 0.50836 0.96441 0.0
C905 C 0.04492 0.50478 0.92148 0.0
C906 C 0.07949 0.45892 0.91057 0.0
H907 H 0.07642 0.40463 0.79448 0.0
H908 H 0.05868 0.42267 0.82879 0.0
H909 H 0.10338 0.43844 0.89573 0.0
H910 H 0.0361 0.48033 0.98751 0.0
H911 H 0.05197 0.45881 0.95472 0.0
H912 H 0.03817 0.47925 0.87756 0.0
C913 C 0.07761 0.42381 0.82812 0.0
C914 C 0.08927 0.44742 0.89145 0.0
C915 C 0.08778 0.41321 0.80854 0.0
C916 C 0.03837 0.48732 0.96922 0.0
C917 C 0.04767 0.4751 0.95038 0.0
C918 C 0.05252 0.47057 0.88179 0.0
C919 C 0.09165 0.43558 0.84662 0.0
C920 C 0.08087 0.44739 0.8672 0.0
C921 C 0.05106 0.48365 0.92619 0.0
C922 C 0.06107 0.47078 0.90599 0.0
H923 H 0.14521 0.42657 0.82499 0.0
H924 H 0.12758 0.44532 0.85877 0.0
H925 H 0.05545 0.45963 0.84427 0.0
H926 H 0.03125 0.53319 0.93598 0.0
H927 H 0.0476 0.51215 0.90326 0.0
C928 C 0.64688 0.85971 0.90534 0.0
C929 C 0.63596 0.8452 0.88696 0.0
C930 C 0.63548 0.87624 0.91588 0.0
C931 C 0.58653 0.9077 0.90534 0.0
H932 H 0.5953 0.92309 0.97464 0.0
C933 C 0.53222 0.96455 0.96127 0.0
C934 C 0.54504 0.98066 0.97701 0.0
C935 C 0.54332 0.94871 0.94884 0.0
C936 C 0.59286 0.9191 0.95521 0.0
H937 H 0.60438 0.83623 0.86555 0.0
H938 H 0.58411 0.86465 0.88443 0.0
H939 H 0.61394 0.89334 0.95658 0.0
H940 H 0.57971 0.99319 0.99142 0.0
H941 H 0.59894 0.96544 0.9699 0.0
H942 H 0.56488 0.93323 0.90435 0.0
C943 C 0.60174 0.86372 0.89028 0.0
C944 C 0.60359 0.90208 0.9448 0.0
C945 C 0.61328 0.84735 0.87954 0.0
C946 C 0.56931 0.98103 0.97944 0.0
C947 C 0.58031 0.96504 0.96726 0.0
C948 C 0.57554 0.92457 0.91586 0.0
C949 C 0.61276 0.87848 0.9085 0.0
C950 C 0.60073 0.89624 0.91968 0.0
C951 C 0.56737 0.9485 0.95216 0.0
C952 C 0.57877 0.93054 0.94085 0.0
H953 H 0.66451 0.85867 0.91114 0.0
H954 H 0.64474 0.88754 0.92947 0.0
H955 H 0.58419 0.90394 0.88586 0.0
H956 H 0.51351 0.96386 0.95896 0.0
H957 H 0.53292 0.9361 0.93735 0.0
C958 C 0.86712 0.17389 0.4412 0.0
C959 C 0.84394 0.16443 0.43513 0.0
C960 C 0.88229 0.16032 0.45035 0.0
C961 C 0.88043 0.10921 0.48558 0.0
H962 H 0.9443 0.10977 0.46152 0.0
C963 C 0.94661 0.06587 0.5368 0.0
C964 C 0.95831 0.05176 0.52222 0.0
C965 C 0.93338 0.08019 0.52572 0.0
C966 C 0.92648 0.10948 0.46835 0.0
H967 H 0.8185 0.13346 0.43358 0.0
H968 H 0.84496 0.10986 0.44958 0.0
H969 H 0.91985 0.13385 0.44197 0.0
H970 H 0.96554 0.04144 0.48477 0.0
H971 H 0.94263 0.0668 0.46533 0.0
H972 H 0.88696 0.08497 0.51199 0.0
C973 C 0.8514 0.12769 0.4472 0.0
C974 C 0.91261 0.1233 0.45731 0.0
C975 C 0.83637 0.14116 0.43783 0.0
C976 C 0.95672 0.05225 0.49639 0.0
C977 C 0.94375 0.06679 0.48529 0.0
C978 C 0.89436 0.09566 0.49681 0.0
C979 C 0.87435 0.1372 0.45389 0.0
C980 C 0.8894 0.1231 0.46572 0.0
C981 C 0.93188 0.08079 0.49987 0.0
C982 C 0.91744 0.09558 0.48821 0.0
H983 H 0.87338 0.19178 0.4392 0.0
H984 H 0.89993 0.16801 0.45548 0.0
H985 H 0.86264 0.10894 0.49254 0.0
H986 H 0.94764 0.06582 0.55676 0.0
H987 H 0.92448 0.09095 0.53733 0.0
C988 C 0.24036 0.64401 0.12656 0.0
C989 C 0.24834 0.63539 0.14831 0.0
C990 C 0.21973 0.63333 0.11529 0.0
C991 C 0.16537 0.59057 0.12724 0.0
H992 H 0.15963 0.59353 0.05614 0.0
C993 C 0.08799 0.53866 0.07342 0.0
C994 C 0.07648 0.55103 0.05715 0.0
C995 C 0.10927 0.54841 0.08413 0.0
C996 C 0.16096 0.59265 0.07603 0.0
H997 H 0.24035 0.60841 0.17505 0.0
H998 H 0.20538 0.58919 0.15472 0.0
H999 H 0.19616 0.61094 0.07546 0.0
H1000 H 0.07875 0.5832 0.03892 0.0
H1001 H 0.11622 0.6 0.05714 0.0
H1002 H 0.13029 0.57162 0.12749 0.0
C1003 C 0.21468 0.60464 0.14668 0.0
C1004 C 0.18188 0.60276 0.08721 0.0
C1005 C 0.23512 0.61552 0.15819 0.0
C1006 C 0.08709 0.57321 0.0514 0.0
C1007 C 0.1086 0.58281 0.06176 0.0
C1008 C 0.14462 0.58012 0.11599 0.0
C1009 C 0.20654 0.61343 0.12511 0.0
C1010 C 0.18438 0.60206 0.11305 0.0
C1011 C 0.11979 0.57062 0.07846 0.0
C1012 C 0.14212 0.58118 0.09029 0.0
H1013 H 0.25011 0.659 0.11799 0.0
H1014 H 0.21403 0.64095 0.09897 0.0
H1015 H 0.16624 0.58996 0.14717 0.0
H1016 H 0.08031 0.52157 0.07834 0.0
H1017 H 0.11757 0.53855 0.0968 0.0
C1018 C 0.27401 0.4199 0.61924 0.0
C1019 C 0.27141 0.42063 0.64513 0.0
C1020 C 0.29496 0.43001 0.60751 0.0
C1021 C 0.3583 0.44945 0.61912 0.0
H1022 H 0.35719 0.47925 0.55611 0.0
C1023 C 0.44367 0.49431 0.5704 0.0
C1024 C 0.44562 0.49079 0.5448 0.0
C1025 C 0.42221 0.48748 0.58299 0.0
C1026 C 0.35784 0.47082 0.5736 0.0
H1027 H 0.28895 0.43288 0.6789 0.0
H1028 H 0.32534 0.45088 0.6584 0.0
H1029 H 0.32027 0.46431 0.5775 0.0
H1030 H 0.42653 0.47784 0.51221 0.0
H1031 H 0.38913 0.46577 0.53413 0.0
H1032 H 0.39586 0.4558 0.61512 0.0
C1033 C 0.31123 0.44221 0.64718 0.0
C1034 C 0.33664 0.46224 0.58589 0.0
C1035 C 0.29023 0.4321 0.65894 0.0
C1036 C 0.42556 0.48077 0.53195 0.0
C1037 C 0.40408 0.47397 0.54452 0.0
C1038 C 0.3795 0.45805 0.60684 0.0
C1039 C 0.31393 0.44119 0.6213 0.0
C1040 C 0.33656 0.45126 0.60873 0.0
C1041 C 0.40217 0.47701 0.57026 0.0
C1042 C 0.37957 0.46871 0.58382 0.0
H1043 H 0.25981 0.41149 0.60796 0.0
H1044 H 0.29642 0.42865 0.58759 0.0
H1045 H 0.35898 0.44082 0.63647 0.0
H1046 H 0.45882 0.50201 0.58081 0.0
H1047 H 0.42133 0.49039 0.60274 0.0
C1048 C 0.78442 0.71268 0.91026 0.0
C1049 C 0.76772 0.70054 0.89445 0.0
C1050 C 0.80217 0.70254 0.92008 0.0
C1051 C 0.81953 0.64823 0.93376 0.0
H1052 H 0.883 0.68187 0.92751 0.0
C1053 C 0.90084 0.60908 0.95794 0.0
C1054 C 0.91917 0.62298 0.97028 0.0
C1055 C 0.88234 0.61811 0.94799 0.0
C1056 C 0.86538 0.67234 0.92972 0.0
H1057 H 0.75589 0.66799 0.87741 0.0
H1058 H 0.78689 0.65018 0.89478 0.0
H1059 H 0.85007 0.69828 0.91308 0.0
H1060 H 0.93269 0.65746 0.98106 0.0
H1061 H 0.90015 0.67301 0.9646 0.0
H1062 H 0.83475 0.62244 0.95083 0.0
C1063 C 0.78625 0.66757 0.89947 0.0
C1064 C 0.84652 0.68175 0.9214 0.0
C1065 C 0.76861 0.67778 0.88944 0.0
C1066 C 0.91873 0.64618 0.97202 0.0
C1067 C 0.90017 0.65517 0.96225 0.0
C1068 C 0.83841 0.63887 0.94232 0.0
C1069 C 0.80349 0.68 0.91447 0.0
C1070 C 0.8234 0.66984 0.92341 0.0
C1071 C 0.88165 0.64124 0.95023 0.0
C1072 C 0.86158 0.65085 0.94048 0.0
H1073 H 0.78435 0.7303 0.91426 0.0
H1074 H 0.81508 0.71245 0.93182 0.0
H1075 H 0.80187 0.63873 0.93567 0.0
H1076 H 0.90047 0.59111 0.95646 0.0
H1077 H 0.86857 0.60692 0.93855 0.0
C1078 C 0.41961 0.81771 0.17134 0.0
C1079 C 0.40712 0.80039 0.15675 0.0
C1080 C 0.42981 0.83836 0.16082 0.0
C1081 C 0.4273 0.87418 0.10552 0.0
H1082 H 0.48889 0.90355 0.12656 0.0
C1083 C 0.47066 0.96351 0.07162 0.0
C1084 C 0.49496 0.96689 0.06638 0.0
C1085 C 0.45935 0.94356 0.08291 0.0
C1086 C 0.47173 0.89554 0.12033 0.0
H1087 H 0.39618 0.79128 0.11934 0.0
H1088 H 0.41386 0.82711 0.10112 0.0
H1089 H 0.47066 0.86814 0.14543 0.0
H1090 H 0.52635 0.95185 0.06846 0.0
H1091 H 0.50675 0.91719 0.08784 0.0
H1092 H 0.42863 0.90137 0.08001 0.0
C1093 C 0.4154 0.82493 0.12082 0.0
C1094 C 0.46113 0.87531 0.1314 0.0
C1095 C 0.40524 0.80431 0.13131 0.0
C1096 C 0.50763 0.94985 0.07242 0.0
C1097 C 0.49639 0.92999 0.0837 0.0
C1098 C 0.43789 0.89446 0.09448 0.0
C1099 C 0.42781 0.84229 0.1354 0.0
C1100 C 0.43882 0.86424 0.12405 0.0
C1101 C 0.47211 0.92657 0.08926 0.0
C1102 C 0.46034 0.90535 0.10159 0.0
H1103 H 0.42117 0.81548 0.19102 0.0
H1104 H 0.43895 0.85139 0.17273 0.0
H1105 H 0.40999 0.86633 0.09956 0.0
H1106 H 0.46042 0.97633 0.06715 0.0
H1107 H 0.44068 0.94162 0.08705 0.0
C1108 C 0.13027 0.24098 0.64408 0.0
C1109 C 0.11509 0.2546 0.65456 0.0
C1110 C 0.12136 0.22008 0.63346 0.0
C1111 C 0.06884 0.17505 0.63204 0.0
H1112 H 0.09686 0.15856 0.5703 0.0
C1113 C 0.04582 0.0855 0.58933 0.0
C1114 C 0.04271 0.08395 0.56362 0.0
C1115 C 0.05471 0.10617 0.60058 0.0
C1116 C 0.08873 0.16293 0.58746 0.0
H1117 H 0.07844 0.25652 0.66216 0.0
H1118 H 0.06291 0.21993 0.64381 0.0
H1119 H 0.11167 0.19481 0.58959 0.0
H1120 H 0.0468 0.10308 0.52959 0.0
H1121 H 0.06226 0.139 0.54918 0.0
H1122 H 0.04569 0.14325 0.62972 0.0
C1123 C 0.08178 0.22545 0.64397 0.0
C1124 C 0.0974 0.18364 0.59868 0.0
C1125 C 0.09071 0.24644 0.65454 0.0
C1126 C 0.04899 0.10357 0.54942 0.0
C1127 C 0.05798 0.1242 0.56066 0.0
C1128 C 0.06025 0.15426 0.62088 0.0
C1129 C 0.09699 0.21208 0.63308 0.0
C1130 C 0.08759 0.19 0.62113 0.0
C1131 C 0.06083 0.12582 0.58642 0.0
C1132 C 0.07007 0.14792 0.59842 0.0
H1133 H 0.14916 0.2464 0.6442 0.0
H1134 H 0.13364 0.21007 0.62571 0.0
H1135 H 0.06097 0.17929 0.64941 0.0
H1136 H 0.04118 0.07078 0.60088 0.0
H1137 H 0.05695 0.10671 0.62041 0.0
C1138 C 0.73637 0.32642 0.49905 0.0
C1139 C 0.72196 0.30513 0.49937 0.0
C1140 C 0.72857 0.34488 0.51018 0.0
C1141 C 0.67922 0.362 0.54767 0.0
H1142 H 0.68276 0.40782 0.49736 0.0
C1143 C 0.60355 0.40788 0.52645 0.0
C1144 C 0.60823 0.42999 0.51746 0.0
C1145 C 0.62196 0.3967 0.53218 0.0
C1146 C 0.682 0.39558 0.512 0.0
H1147 H 0.68946 0.28585 0.51392 0.0
H1148 H 0.67556 0.31795 0.5327 0.0
H1149 H 0.7087 0.38033 0.49439 0.0
H1150 H 0.63584 0.45814 0.50856 0.0
H1151 H 0.66808 0.43861 0.51871 0.0
H1152 H 0.6513 0.37655 0.56428 0.0
C1153 C 0.6929 0.32059 0.52406 0.0
C1154 C 0.69697 0.37978 0.51033 0.0
C1155 C 0.70071 0.30219 0.513 0.0
C1156 C 0.63169 0.4411 0.51548 0.0
C1157 C 0.65014 0.42989 0.52117 0.0
C1158 C 0.66417 0.3778 0.54928 0.0
C1159 C 0.70623 0.34232 0.52176 0.0
C1160 C 0.69501 0.36218 0.5275 0.0
C1161 C 0.64547 0.4074 0.52901 0.0
C1162 C 0.66471 0.39412 0.53083 0.0
H1163 H 0.75289 0.32915 0.48874 0.0
H1164 H 0.7394 0.36136 0.50845 0.0
H1165 H 0.6776 0.3489 0.56145 0.0
H1166 H 0.58562 0.39903 0.52857 0.0
H1167 H 0.61776 0.37929 0.5379 0.0
loop_
_geom_bond_atom_site_label_1
_geom_bond_atom_site_label_2
_geom_bond_distance
_geom_bond_site_symmetry_2
_ccdc_geom_bond_type
C0 C1 1.384 . S
C0 H13 0.947 . S
C0 C35 1.382 . S
C1 C0 1.384 . S
C1 C2 1.378 . S
C2 C1 1.378 . S
C2 C3 1.378 . S
C2 H14 0.952 . S
C3 C2 1.378 . S
C3 H15 0.950 . S
C3 C34 1.383 . S
H4 C23 0.947 . S
H5 C24 0.946 . S
H6 C26 0.953 . S
H7 C27 0.945 . S
H8 C29 0.952 . S
H9 C30 0.949 . S
H10 C32 0.950 . S
H11 C33 0.948 . S
H12 C35 0.951 . S
H13 C0 0.947 . S
H14 C2 0.952 . S
H15 C3 0.950 . S
N16 C19 1.382 . S
N16 C21 1.363 . S
N17 C19 1.371 . S
N17 C20 1.372 . S
N18 C20 1.361 . S
N18 C21 1.377 . S
C19 N16 1.382 . S
C19 N17 1.371 . S
C19 C22 1.480 . S
C20 N17 1.372 . S
C20 N18 1.361 . S
C20 C28 1.457 . S
C21 N16 1.363 . S
C21 N18 1.377 . S
C21 C34 1.479 . S
C22 C19 1.480 . S
C22 C23 1.383 . S
C22 C27 1.385 . S
C23 H4 0.947 . S
C23 C22 1.383 . S
C23 C24 1.388 . S
C24 H5 0.946 . S
C24 C23 1.388 . S
C24 C25 1.384 . S
C25 C24 1.384 . S
C25 C26 1.377 . S
C26 H6 0.953 . S
C26 C25 1.377 . S
C26 C27 1.369 . S
C27 H7 0.945 . S
C27 C22 1.385 . S
C27 C26 1.369 . S
C28 C20 1.457 . S
C28 C29 1.372 . S
C28 C33 1.364 . S
C29 H8 0.952 . S
C29 C28 1.372 . S
C29 C30 1.389 . S
C30 H9 0.949 . S
C30 C29 1.389 . S
C30 C31 1.387 . S
C31 C30 1.387 . S
C31 C32 1.372 . S
C32 H10 0.950 . S
C32 C31 1.372 . S
C32 C33 1.379 . S
C33 H11 0.948 . S
C33 C28 1.364 . S
C33 C32 1.379 . S
C34 C3 1.383 . S
C34 C21 1.479 . S
C34 C35 1.398 . S
C35 C0 1.382 . S
C35 H12 0.951 . S
C35 C34 1.398 . S
C36 C37 1.384 . S
C36 H49 0.947 . S
C36 C71 1.382 . S
C37 C36 1.384 . S
C37 C38 1.378 . S
C38 C37 1.378 . S
C38 C39 1.378 . S
C38 H50 0.952 . S
C39 C38 1.378 . S
C39 H51 0.950 . S
C39 C70 1.383 . S
H40 C59 0.947 . S
H41 C60 0.946 . S
H42 C62 0.953 . S
H43 C63 0.945 . S
H44 C65 0.952 . S
H45 C66 0.949 . S
H46 C68 0.950 . S
H47 C69 0.948 . S
H48 C71 0.951 . S
H49 C36 0.947 . S
H50 C38 0.952 . S
H51 C39 0.950 . S
N52 C55 1.382 . S
N52 C57 1.363 . S
N53 C55 1.371 . S
N53 C56 1.372 . S
N54 C56 1.361 . S
N54 C57 1.377 . S
C55 N52 1.382 . S
C55 N53 1.371 . S
C55 C58 1.480 . S
C56 N53 1.372 . S
C56 N54 1.361 . S
C56 C64 1.457 . S
C57 N52 1.363 . S
C57 N54 1.377 . S
C57 C70 1.479 . S
C58 C55 1.480 . S
C58 C59 1.383 . S
C58 C63 1.385 . S
C59 H40 0.947 . S
C59 C58 1.383 . S
C59 C60 1.388 . S
C60 H41 0.946 . S
C60 C59 1.388 . S
C60 C61 1.384 . S
C61 C60 1.384 . S
C61 C62 1.377 . S
C62 H42 0.953 . S
C62 C61 1.377 . S
C62 C63 1.369 . S
C63 H43 0.945 . S
C63 C58 1.385 . S
C63 C62 1.369 . S
C64 C56 1.457 . S
C64 C65 1.372 . S
C64 C69 1.364 . S
C65 H44 0.952 . S
C65 C64 1.372 . S
C65 C66 1.389 . S
C66 H45 0.949 . S
C66 C65 1.389 . S
C66 C67 1.387 . S
C67 C66 1.387 . S
C67 C68 1.372 . S
C68 H46 0.950 . S
C68 C67 1.372 . S
C68 C69 1.379 . S
C69 H47 0.948 . S
C69 C64 1.364 . S
C69 C68 1.379 . S
C70 C39 1.383 . S
C70 C57 1.479 . S
C70 C71 1.398 . S
C71 C36 1.382 . S
C71 H48 0.951 . S
C71 C70 1.398 . S
C72 C73 1.384 . S
C72 H85 0.947 . S
C72 C107 1.382 . S
C73 C72 1.384 . S
C73 C74 1.378 . S
C74 C73 1.378 . S
C74 C75 1.378 . S
C74 H86 0.952 . S
C75 C74 1.378 . S
C75 H87 0.950 . S
C75 C106 1.383 . S
H76 C95 0.947 . S
H77 C96 0.946 . S
H78 C98 0.953 . S
H79 C99 0.945 . S
H80 C101 0.952 . S
H81 C102 0.949 . S
H82 C104 0.950 . S
H83 C105 0.948 . S
H84 C107 0.951 . S
H85 C72 0.947 . S
H86 C74 0.952 . S
H87 C75 0.950 . S
N88 C91 1.382 . S
N88 C93 1.363 . S
N89 C91 1.371 . S
N89 C92 1.372 . S
N90 C92 1.361 . S
N90 C93 1.377 . S
C91 N88 1.382 . S
C91 N89 1.371 . S
C91 C94 1.480 . S
C92 N89 1.372 . S
C92 N90 1.361 . S
C92 C100 1.457 . S
C93 N88 1.363 . S
C93 N90 1.377 . S
C93 C106 1.479 . S
C94 C91 1.480 . S
C94 C95 1.383 . S
C94 C99 1.385 . S
C95 H76 0.947 . S
C95 C94 1.383 . S
C95 C96 1.388 . S
C96 H77 0.946 . S
C96 C95 1.388 . S
C96 C97 1.384 . S
C97 C96 1.384 . S
C97 C98 1.377 . S
C98 H78 0.953 . S
C98 C97 1.377 . S
C98 C99 1.369 . S
C99 H79 0.945 . S
C99 C94 1.385 . S
C99 C98 1.369 . S
C100 C92 1.457 . S
C100 C101 1.372 . S
C100 C105 1.364 . S
C101 H80 0.952 . S
C101 C100 1.372 . S
C101 C102 1.389 . S
C102 H81 0.949 . S
C102 C101 1.389 . S
C102 C103 1.387 . S
C103 C102 1.387 . S
C103 C104 1.372 . S
C104 H82 0.950 . S
C104 C103 1.372 . S
C104 C105 1.379 . S
C105 H83 0.948 . S
C105 C100 1.364 . S
C105 C104 1.379 . S
C106 C75 1.383 . S
C106 C93 1.479 . S
C106 C107 1.398 . S
C107 C72 1.382 . S
C107 H84 0.951 . S
C107 C106 1.398 . S
C108 C109 1.384 . S
C108 H121 0.947 . S
C108 C143 1.382 . S
C109 C108 1.384 . S
C109 C110 1.378 . S
C110 C109 1.378 . S
C110 C111 1.378 . S
C110 H122 0.952 . S
C111 C110 1.378 . S
C111 H123 0.950 . S
C111 C142 1.383 . S
H112 C131 0.947 . S
H113 C132 0.946 . S
H114 C134 0.953 . S
H115 C135 0.945 . S
H116 C137 0.952 . S
H117 C138 0.949 . S
H118 C140 0.950 . S
H119 C141 0.948 . S
H120 C143 0.951 . S
H121 C108 0.947 . S
H122 C110 0.952 . S
H123 C111 0.950 . S
N124 C127 1.382 . S
N124 C129 1.363 . S
N125 C127 1.371 . S
N125 C128 1.372 . S
N126 C128 1.361 . S
N126 C129 1.377 . S
C127 N124 1.382 . S
C127 N125 1.371 . S
C127 C130 1.480 . S
C128 N125 1.372 . S
C128 N126 1.361 . S
C128 C136 1.457 . S
C129 N124 1.363 . S
C129 N126 1.377 . S
C129 C142 1.479 . S
C130 C127 1.480 . S
C130 C131 1.383 . S
C130 C135 1.385 . S
C131 H112 0.947 . S
C131 C130 1.383 . S
C131 C132 1.388 . S
C132 H113 0.946 . S
C132 C131 1.388 . S
C132 C133 1.384 . S
C133 C132 1.384 . S
C133 C134 1.377 . S
C134 H114 0.953 . S
C134 C133 1.377 . S
C134 C135 1.369 . S
C135 H115 0.945 . S
C135 C130 1.385 . S
C135 C134 1.369 . S
C136 C128 1.457 . S
C136 C137 1.372 . S
C136 C141 1.364 . S
C137 H116 0.952 . S
C137 C136 1.372 . S
C137 C138 1.389 . S
C138 H117 0.949 . S
C138 C137 1.389 . S
C138 C139 1.387 . S
C139 C138 1.387 . S
C139 C140 1.372 . S
C140 H118 0.950 . S
C140 C139 1.372 . S
C140 C141 1.379 . S
C141 H119 0.948 . S
C141 C136 1.364 . S
C141 C140 1.379 . S
C142 C111 1.383 . S
C142 C129 1.479 . S
C142 C143 1.398 . S
C143 C108 1.382 . S
C143 H120 0.951 . S
C143 C142 1.398 . S
C144 C145 1.384 . S
C144 H157 0.947 . S
C144 C179 1.382 . S
C145 C144 1.384 . S
C145 C146 1.378 . S
C146 C145 1.378 . S
C146 C147 1.378 . S
C146 H158 0.952 . S
C147 C146 1.378 . S
C147 H159 0.950 . S
C147 C178 1.383 . S
H148 C167 0.947 . S
H149 C168 0.946 . S
H150 C170 0.953 . S
H151 C171 0.945 . S
H152 C173 0.952 . S
H153 C174 0.949 . S
H154 C176 0.950 . S
H155 C177 0.948 . S
H156 C179 0.951 . S
H157 C144 0.947 . S
H158 C146 0.952 . S
H159 C147 0.950 . S
N160 C163 1.382 . S
N160 C165 1.363 . S
N161 C163 1.371 . S
N161 C164 1.372 . S
N162 C164 1.361 . S
N162 C165 1.377 . S
C163 N160 1.382 . S
C163 N161 1.371 . S
C163 C166 1.480 . S
C164 N161 1.372 . S
C164 N162 1.361 . S
C164 C172 1.457 . S
C165 N160 1.363 . S
C165 N162 1.377 . S
C165 C178 1.479 . S
C166 C163 1.480 . S
C166 C167 1.383 . S
C166 C171 1.385 . S
C167 H148 0.947 . S
C167 C166 1.383 . S
C167 C168 1.388 . S
C168 H149 0.946 . S
C168 C167 1.388 . S
C168 C169 1.384 . S
C169 C168 1.384 . S
C169 C170 1.377 . S
C170 H150 0.953 . S
C170 C169 1.377 . S
C170 C171 1.369 . S
C171 H151 0.945 . S
C171 C166 1.385 . S
C171 C170 1.369 . S
C172 C164 1.457 . S
C172 C173 1.372 . S
C172 C177 1.364 . S
C173 H152 0.952 . S
C173 C172 1.372 . S
C173 C174 1.389 . S
C174 H153 0.949 . S
C174 C173 1.389 . S
C174 C175 1.387 . S
C175 C174 1.387 . S
C175 C176 1.372 . S
C176 H154 0.950 . S
C176 C175 1.372 . S
C176 C177 1.379 . S
C177 H155 0.948 . S
C177 C172 1.364 . S
C177 C176 1.379 . S
C178 C147 1.383 . S
C178 C165 1.479 . S
C178 C179 1.398 . S
C179 C144 1.382 . S
C179 H156 0.951 . S
C179 C178 1.398 . S
C180 C181 1.384 . S
C180 H193 0.947 . S
C180 C215 1.382 . S
C181 C180 1.384 . S
C181 C182 1.378 . S
C182 C181 1.378 . S
C182 C183 1.378 . S
C182 H194 0.952 . S
C183 C182 1.378 . S
C183 H195 0.950 . S
C183 C214 1.383 . S
H184 C203 0.947 . S
H185 C204 0.946 . S
H186 C206 0.953 . S
H187 C207 0.945 . S
H188 C209 0.952 . S
H189 C210 0.949 . S
H190 C212 0.950 . S
H191 C213 0.948 . S
H192 C215 0.951 . S
H193 C180 0.947 . S
H194 C182 0.952 . S
H195 C183 0.950 . S
N196 C199 1.382 . S
N196 C201 1.363 . S
N197 C199 1.371 . S
N197 C200 1.372 . S
N198 C200 1.361 . S
N198 C201 1.377 . S
C199 N196 1.382 . S
C199 N197 1.371 . S
C199 C202 1.480 . S
C200 N197 1.372 . S
C200 N198 1.361 . S
C200 C208 1.457 . S
C201 N196 1.363 . S
C201 N198 1.377 . S
C201 C214 1.479 . S
C202 C199 1.480 . S
C202 C203 1.383 . S
C202 C207 1.385 . S
C203 H184 0.947 . S
C203 C202 1.383 . S
C203 C204 1.388 . S
C204 H185 0.946 . S
C204 C203 1.388 . S
C204 C205 1.384 . S
C205 C204 1.384 . S
C205 C206 1.377 . S
C206 H186 0.953 . S
C206 C205 1.377 . S
C206 C207 1.369 . S
C207 H187 0.945 . S
C207 C202 1.385 . S
C207 C206 1.369 . S
C208 C200 1.457 . S
C208 C209 1.372 . S
C208 C213 1.364 . S
C209 H188 0.952 . S
C209 C208 1.372 . S
C209 C210 1.389 . S
C210 H189 0.949 . S
C210 C209 1.389 . S
C210 C211 1.387 . S
C211 C210 1.387 . S
C211 C212 1.372 . S
C212 H190 0.950 . S
C212 C211 1.372 . S
C212 C213 1.379 . S
C213 H191 0.948 . S
C213 C208 1.364 . S
C213 C212 1.379 . S
C214 C183 1.383 . S
C214 C201 1.479 . S
C214 C215 1.398 . S
C215 C180 1.382 . S
C215 H192 0.951 . S
C215 C214 1.398 . S
C216 C217 1.384 . S
C216 H229 0.947 . S
C216 C251 1.382 . S
C217 C216 1.384 . S
C217 C218 1.378 . S
C218 C217 1.378 . S
C218 C219 1.378 . S
C218 H230 0.952 . S
C219 C218 1.378 . S
C219 H231 0.950 . S
C219 C250 1.383 . S
H220 C239 0.947 . S
H221 C240 0.946 . S
H222 C242 0.953 . S
H223 C243 0.945 . S
H224 C245 0.952 . S
H225 C246 0.949 . S
H226 C248 0.950 . S
H227 C249 0.948 . S
H228 C251 0.951 . S
H229 C216 0.947 . S
H230 C218 0.952 . S
H231 C219 0.950 . S
N232 C235 1.382 . S
N232 C237 1.363 . S
N233 C235 1.371 . S
N233 C236 1.372 . S
N234 C236 1.361 . S
N234 C237 1.377 . S
C235 N232 1.382 . S
C235 N233 1.371 . S
C235 C238 1.480 . S
C236 N233 1.372 . S
C236 N234 1.361 . S
C236 C244 1.457 . S
C237 N232 1.363 . S
C237 N234 1.377 . S
C237 C250 1.479 . S
C238 C235 1.480 . S
C238 C239 1.383 . S
C238 C243 1.385 . S
C239 H220 0.947 . S
C239 C238 1.383 . S
C239 C240 1.388 . S
C240 H221 0.946 . S
C240 C239 1.388 . S
C240 C241 1.384 . S
C241 C240 1.384 . S
C241 C242 1.377 . S
C242 H222 0.953 . S
C242 C241 1.377 . S
C242 C243 1.369 . S
C243 H223 0.945 . S
C243 C238 1.385 . S
C243 C242 1.369 . S
C244 C236 1.457 . S
C244 C245 1.372 . S
C244 C249 1.364 . S
C245 H224 0.952 . S
C245 C244 1.372 . S
C245 C246 1.389 . S
C246 H225 0.949 . S
C246 C245 1.389 . S
C246 C247 1.387 . S
C247 C246 1.387 . S
C247 C248 1.372 . S
C248 H226 0.950 . S
C248 C247 1.372 . S
C248 C249 1.379 . S
C249 H227 0.948 . S
C249 C244 1.364 . S
C249 C248 1.379 . S
C250 C219 1.383 . S
C250 C237 1.479 . S
C250 C251 1.398 . S
C251 C216 1.382 . S
C251 H228 0.951 . S
C251 C250 1.398 . S
C252 C253 1.384 . S
C252 H265 0.947 . S
C252 C287 1.382 . S
C253 C252 1.384 . S
C253 C254 1.378 . S
C254 C253 1.378 . S
C254 C255 1.378 . S
C254 H266 0.952 . S
C255 C254 1.378 . S
C255 H267 0.950 . S
C255 C286 1.383 . S
H256 C275 0.947 . S
H257 C276 0.946 . S
H258 C278 0.953 . S
H259 C279 0.945 . S
H260 C281 0.952 . S
H261 C282 0.949 . S
H262 C284 0.950 . S
H263 C285 0.948 . S
H264 C287 0.951 . S
H265 C252 0.947 . S
H266 C254 0.952 . S
H267 C255 0.950 . S
N268 C271 1.382 . S
N268 C273 1.363 . S
N269 C271 1.371 . S
N269 C272 1.372 . S
N270 C272 1.361 . S
N270 C273 1.377 . S
C271 N268 1.382 . S
C271 N269 1.371 . S
C271 C274 1.480 . S
C272 N269 1.372 . S
C272 N270 1.361 . S
C272 C280 1.457 . S
C273 N268 1.363 . S
C273 N270 1.377 . S
C273 C286 1.479 . S
C274 C271 1.480 . S
C274 C275 1.383 . S
C274 C279 1.385 . S
C275 H256 0.947 . S
C275 C274 1.383 . S
C275 C276 1.388 . S
C276 H257 0.946 . S
C276 C275 1.388 . S
C276 C277 1.384 . S
C277 C276 1.384 . S
C277 C278 1.377 . S
C278 H258 0.953 . S
C278 C277 1.377 . S
C278 C279 1.369 . S
C279 H259 0.945 . S
C279 C274 1.385 . S
C279 C278 1.369 . S
C280 C272 1.457 . S
C280 C281 1.372 . S
C280 C285 1.364 . S
C281 H260 0.952 . S
C281 C280 1.372 . S
C281 C282 1.389 . S
C282 H261 0.949 . S
C282 C281 1.389 . S
C282 C283 1.387 . S
C283 C282 1.387 . S
C283 C284 1.372 . S
C284 H262 0.950 . S
C284 C283 1.372 . S
C284 C285 1.379 . S
C285 H263 0.948 . S
C285 C280 1.364 . S
C285 C284 1.379 . S
C286 C255 1.383 . S
C286 C273 1.479 . S
C286 C287 1.398 . S
C287 C252 1.382 . S
C287 H264 0.951 . S
C287 C286 1.398 . S
Gd288 C291 2.818 . S
Gd288 O308 2.377 . S
Gd288 O310 2.448 . S
Gd288 O311 2.506 . S
Gd288 O312 2.435 1_545 S
Gd288 O313 2.717 1_545 S
Gd288 O315 2.395 1_445 S
Gd288 O319 2.327 1_455 S
Gd289 C300 2.818 . S
Gd289 O309 2.395 1_665 S
Gd289 O313 2.327 1_655 S
Gd289 O314 2.377 . S
Gd289 O316 2.448 . S
Gd289 O317 2.506 . S
Gd289 O318 2.435 1_565 S
Gd289 O319 2.717 1_565 S
C290 O308 1.240 . S
C290 O309 1.240 . S
C291 Gd288 2.818 . S
C291 C292 1.510 . S
C291 O310 1.249 . S
C291 O311 1.252 . S
C292 C291 1.510 . S
C292 C293 1.404 . S
C292 C294 1.352 . S
C293 C292 1.404 . S
C293 C297 1.389 . S
C293 H320 0.930 . S
C294 C292 1.352 . S
C294 C296 1.374 . S
C294 H321 0.931 . S
C295 C296 1.359 . S
C295 C297 1.364 . S
C296 C294 1.374 . S
C296 C295 1.359 . S
C296 H322 0.931 . S
C297 C293 1.389 . S
C297 C295 1.364 . S
C297 H323 0.931 . S
C298 O312 1.256 . S
C298 O313 1.257 . S
C299 O314 1.240 . S
C299 O315 1.240 . S
C300 Gd289 2.818 . S
C300 C301 1.510 . S
C300 O316 1.249 . S
C300 O317 1.252 . S
C301 C300 1.510 . S
C301 C302 1.404 . S
C301 C303 1.352 . S
C302 C301 1.404 . S
C302 C306 1.389 . S
C302 H324 0.930 . S
C303 C301 1.352 . S
C303 C305 1.374 . S
C303 H325 0.931 . S
C304 C305 1.359 . S
C304 C306 1.364 . S
C305 C303 1.374 . S
C305 C304 1.359 . S
C305 H326 0.931 . S
C306 C302 1.389 . S
C306 C304 1.364 . S
C306 H327 0.931 . S
C307 O318 1.256 . S
C307 O319 1.257 . S
O308 Gd288 2.377 . S
O308 C290 1.240 . S
O309 Gd289 2.395 1_445 S
O309 C290 1.240 . S
O310 Gd288 2.448 . S
O310 C291 1.249 . S
O311 Gd288 2.506 . S
O311 C291 1.252 . S
O312 Gd288 2.435 1_565 S
O312 C298 1.256 . S
O313 Gd288 2.717 1_565 S
O313 Gd289 2.327 1_455 S
O313 C298 1.257 . S
O314 Gd289 2.377 . S
O314 C299 1.240 . S
O315 Gd288 2.395 1_665 S
O315 C299 1.240 . S
O316 Gd289 2.448 . S
O316 C300 1.249 . S
O317 Gd289 2.506 . S
O317 C300 1.252 . S
O318 Gd289 2.435 1_545 S
O318 C307 1.256 . S
O319 Gd288 2.327 1_655 S
O319 Gd289 2.717 1_545 S
O319 C307 1.257 . S
H320 C293 0.930 . S
H321 C294 0.931 . S
H322 C296 0.931 . S
H323 C297 0.931 . S
H324 C302 0.930 . S
H325 C303 0.931 . S
H326 C305 0.931 . S
H327 C306 0.931 . S
Gd328 C331 2.811 1_565 S
Gd328 O348 2.369 1_565 S
Gd328 O350 2.447 1_565 S
Gd328 O351 2.494 1_565 S
Gd328 O352 2.446 . S
Gd328 O353 2.723 . S
Gd328 O355 2.404 1_554 S
Gd328 O359 2.318 1_564 S
Gd329 C340 2.795 1_545 S
Gd329 O349 2.424 1_556 S
Gd329 O353 2.297 1_546 S
Gd329 O354 2.353 1_545 S
Gd329 O356 2.445 1_545 S
Gd329 O357 2.467 1_545 S
Gd329 O358 2.469 . S
Gd329 O359 2.735 . S
C330 O348 1.240 . S
C330 O349 1.240 . S
C331 Gd328 2.811 1_545 S
C331 C332 1.510 . S
C331 O350 1.249 . S
C331 O351 1.252 . S
C332 C331 1.510 . S
C332 C333 1.404 . S
C332 C334 1.352 . S
C333 C332 1.404 . S
C333 C337 1.389 . S
C333 H360 0.930 . S
C334 C332 1.352 . S
C334 C336 1.374 . S
C334 H361 0.931 . S
C335 C336 1.359 . S
C335 C337 1.364 . S
C336 C334 1.374 . S
C336 C335 1.359 . S
C336 H362 0.931 . S
C337 C333 1.389 . S
C337 C335 1.364 . S
C337 H363 0.931 . S
C338 O352 1.256 . S
C338 O353 1.257 . S
C339 O354 1.240 . S
C339 O355 1.240 . S
C340 Gd329 2.795 1_565 S
C340 C341 1.510 . S
C340 O356 1.249 . S
C340 O357 1.252 . S
C341 C340 1.510 . S
C341 C342 1.404 . S
C341 C343 1.352 . S
C342 C341 1.404 . S
C342 C346 1.389 . S
C342 H364 0.930 . S
C343 C341 1.352 . S
C343 C345 1.374 . S
C343 H365 0.931 . S
C344 C345 1.359 . S
C344 C346 1.364 . S
C345 C343 1.374 . S
C345 C344 1.359 . S
C345 H366 0.931 . S
C346 C342 1.389 . S
C346 C344 1.364 . S
C346 H367 0.931 . S
C347 O358 1.256 . S
C347 O359 1.257 . S
O348 Gd328 2.369 1_545 S
O348 C330 1.240 . S
O349 Gd329 2.424 1_554 S
O349 C330 1.240 . S
O350 Gd328 2.447 1_545 S
O350 C331 1.249 . S
O351 Gd328 2.494 1_545 S
O351 C331 1.252 . S
O352 Gd328 2.446 . S
O352 C338 1.256 . S
O353 Gd328 2.723 . S
O353 Gd329 2.297 1_564 S
O353 C338 1.257 . S
O354 Gd329 2.353 1_565 S
O354 C339 1.240 . S
O355 Gd328 2.404 1_556 S
O355 C339 1.240 . S
O356 Gd329 2.445 1_565 S
O356 C340 1.249 . S
O357 Gd329 2.467 1_565 S
O357 C340 1.252 . S
O358 Gd329 2.469 . S
O358 C347 1.256 . S
O359 Gd328 2.318 1_546 S
O359 Gd329 2.735 . S
O359 C347 1.257 . S
H360 C333 0.930 . S
H361 C334 0.931 . S
H362 C336 0.931 . S
H363 C337 0.931 . S
H364 C342 0.930 . S
H365 C343 0.931 . S
H366 C345 0.931 . S
H367 C346 0.931 . S
Gd368 C371 2.818 . S
Gd368 O388 2.377 . S
Gd368 O390 2.448 . S
Gd368 O391 2.506 . S
Gd368 O392 2.435 . S
Gd368 O393 2.717 . S
Gd368 O395 2.395 . S
Gd368 O399 2.327 . S
Gd369 C380 2.818 . S
Gd369 O389 2.395 . S
Gd369 O393 2.327 . S
Gd369 O394 2.377 . S
Gd369 O396 2.448 . S
Gd369 O397 2.506 . S
Gd369 O398 2.435 . S
Gd369 O399 2.717 . S
C370 O388 1.240 . S
C370 O389 1.240 . S
C371 Gd368 2.818 . S
C371 C372 1.510 . S
C371 O390 1.249 . S
C371 O391 1.252 . S
C372 C371 1.510 . S
C372 C373 1.404 . S
C372 C374 1.352 . S
C373 C372 1.404 . S
C373 C377 1.389 . S
C373 H400 0.930 . S
C374 C372 1.352 . S
C374 C376 1.374 . S
C374 H401 0.931 . S
C375 C376 1.359 . S
C375 C377 1.364 . S
C376 C374 1.374 . S
C376 C375 1.359 . S
C376 H402 0.931 . S
C377 C373 1.389 . S
C377 C375 1.364 . S
C377 H403 0.931 . S
C378 O392 1.256 . S
C378 O393 1.257 . S
C379 O394 1.240 . S
C379 O395 1.240 . S
C380 Gd369 2.818 . S
C380 C381 1.510 . S
C380 O396 1.249 . S
C380 O397 1.252 . S
C381 C380 1.510 . S
C381 C382 1.404 . S
C381 C383 1.352 . S
C382 C381 1.404 . S
C382 C386 1.389 . S
C382 H404 0.930 . S
C383 C381 1.352 . S
C383 C385 1.374 . S
C383 H405 0.931 . S
C384 C385 1.359 . S
C384 C386 1.364 . S
C385 C383 1.374 . S
C385 C384 1.359 . S
C385 H406 0.931 . S
C386 C382 1.389 . S
C386 C384 1.364 . S
C386 H407 0.931 . S
C387 O398 1.256 . S
C387 O399 1.257 . S
O388 Gd368 2.377 . S
O388 C370 1.240 . S
O389 Gd369 2.395 . S
O389 C370 1.240 . S
O390 Gd368 2.448 . S
O390 C371 1.249 . S
O391 Gd368 2.506 . S
O391 C371 1.252 . S
O392 Gd368 2.435 . S
O392 C378 1.256 . S
O393 Gd368 2.717 . S
O393 Gd369 2.327 . S
O393 C378 1.257 . S
O394 Gd369 2.377 . S
O394 C379 1.240 . S
O395 Gd368 2.395 . S
O395 C379 1.240 . S
O396 Gd369 2.448 . S
O396 C380 1.249 . S
O397 Gd369 2.506 . S
O397 C380 1.252 . S
O398 Gd369 2.435 . S
O398 C387 1.256 . S
O399 Gd368 2.327 . S
O399 Gd369 2.717 . S
O399 C387 1.257 . S
H400 C373 0.930 . S
H401 C374 0.931 . S
H402 C376 0.931 . S
H403 C377 0.931 . S
H404 C382 0.930 . S
H405 C383 0.931 . S
H406 C385 0.931 . S
H407 C386 0.931 . S
Gd408 C411 2.818 . S
Gd408 O428 2.377 . S
Gd408 O430 2.448 . S
Gd408 O431 2.506 . S
Gd408 O432 2.435 1_455 S
Gd408 O433 2.717 1_455 S
Gd408 O435 2.413 1_455 S
Gd408 O439 2.327 1_554 S
Gd409 C420 2.818 1_455 S
Gd409 O429 2.395 1_556 S
Gd409 O433 2.327 1_456 S
Gd409 O434 2.377 1_455 S
Gd409 O436 2.448 1_455 S
Gd409 O437 2.506 1_455 S
Gd409 O438 2.435 . S
Gd409 O439 2.717 . S
C410 O428 1.240 . S
C410 O429 1.240 . S
C411 Gd408 2.818 . S
C411 C412 1.510 . S
C411 O430 1.249 . S
C411 O431 1.252 . S
C412 C411 1.510 . S
C412 C413 1.404 . S
C412 C414 1.352 . S
C413 C412 1.404 . S
C413 C417 1.389 . S
C413 H440 0.930 . S
C414 C412 1.352 . S
C414 C416 1.374 . S
C414 H441 0.931 . S
C415 C416 1.359 . S
C415 C417 1.364 . S
C416 C414 1.374 . S
C416 C415 1.359 . S
C416 H442 0.931 . S
C417 C413 1.389 . S
C417 C415 1.364 . S
C417 H443 0.931 . S
C418 O432 1.256 . S
C418 O433 1.257 . S
C419 O434 1.240 . S
C419 O435 1.215 1_556 S
C420 Gd409 2.818 1_655 S
C420 C421 1.510 . S
C420 O436 1.249 . S
C420 O437 1.252 . S
C421 C420 1.510 . S
C421 C422 1.404 . S
C421 C423 1.352 . S
C422 C421 1.404 . S
C422 C426 1.389 . S
C422 H444 0.930 . S
C423 C421 1.352 . S
C423 C425 1.374 . S
C423 H445 0.931 . S
C424 C425 1.359 . S
C424 C426 1.364 . S
C425 C423 1.374 . S
C425 C424 1.359 . S
C425 H446 0.931 . S
C426 C422 1.389 . S
C426 C424 1.364 . S
C426 H447 0.931 . S
C427 O438 1.256 . S
C427 O439 1.257 . S
O428 Gd408 2.377 . S
O428 C410 1.240 . S
O429 Gd409 2.395 1_554 S
O429 C410 1.240 . S
O430 Gd408 2.448 . S
O430 C411 1.249 . S
O431 Gd408 2.506 . S
O431 C411 1.252 . S
O432 Gd408 2.435 1_655 S
O432 C418 1.256 . S
O433 Gd408 2.717 1_655 S
O433 Gd409 2.327 1_654 S
O433 C418 1.257 . S
O434 Gd409 2.377 1_655 S
O434 C419 1.240 . S
O435 Gd408 2.413 1_655 S
O435 C419 1.215 1_554 S
O436 Gd409 2.448 1_655 S
O436 C420 1.249 . S
O437 Gd409 2.506 1_655 S
O437 C420 1.252 . S
O438 Gd409 2.435 . S
O438 C427 1.256 . S
O439 Gd408 2.327 1_556 S
O439 Gd409 2.717 . S
O439 C427 1.257 . S
H440 C413 0.930 . S
H441 C414 0.931 . S
H442 C416 0.931 . S
H443 C417 0.931 . S
H444 C422 0.930 . S
H445 C423 0.931 . S
H446 C425 0.931 . S
H447 C426 0.931 . S
C448 C449 1.349 . S
C448 C450 1.327 . S
C448 H473 0.950 . S
C449 C448 1.349 . S
C449 C465 1.349 . S
C450 C448 1.327 . S
C450 C469 1.429 . S
C450 H474 0.950 . S
C451 C468 1.574 . S
C451 C470 1.368 . S
C451 H475 0.949 . S
H452 C456 0.949 . S
C453 C454 1.349 . S
C453 C455 1.327 . S
C453 H476 0.950 . S
C454 C453 1.349 . S
C454 C466 1.349 . S
C455 C453 1.327 . S
C455 C471 1.429 . S
C455 H477 0.950 . S
C456 H452 0.949 . S
C456 C464 1.574 . S
C456 C472 1.368 . S
H457 C465 0.950 . S
H458 C463 0.950 . S
H459 C464 0.949 . S
H460 C466 0.950 . S
H461 C467 0.950 . S
H462 C468 0.949 . S
C463 H458 0.950 . S
C463 C465 1.327 . S
C463 C469 1.429 . S
C464 C456 1.574 . S
C464 H459 0.949 . S
C464 C470 1.368 . S
C465 C449 1.349 . S
C465 H457 0.950 . S
C465 C463 1.327 . S
C466 C454 1.349 . S
C466 H460 0.950 . S
C466 C467 1.327 . S
C467 H461 0.950 . S
C467 C466 1.327 . S
C467 C471 1.429 . S
C468 C451 1.574 . S
C468 H462 0.949 . S
C468 C472 1.368 . S
C469 C450 1.429 . S
C469 C463 1.429 . S
C469 C470 1.523 . S
C470 C451 1.368 . S
C470 C464 1.368 . S
C470 C469 1.523 . S
C471 C455 1.429 . S
C471 C467 1.429 . S
C471 C472 1.523 . S
C472 C456 1.368 . S
C472 C468 1.368 . S
C472 C471 1.523 . S
H473 C448 0.950 . S
H474 C450 0.950 . S
H475 C451 0.949 . S
H476 C453 0.950 . S
H477 C455 0.950 . S
C478 C479 1.349 . S
C478 C480 1.327 . S
C478 H503 0.950 . S
C479 C478 1.349 . S
C479 C495 1.349 . S
C480 C478 1.327 . S
C480 C499 1.429 . S
C480 H504 0.950 . S
C481 C498 1.574 . S
C481 C500 1.368 . S
C481 H505 0.949 . S
H482 C486 0.949 . S
C483 C484 1.349 . S
C483 C485 1.327 . S
C483 H506 0.950 . S
C484 C483 1.349 . S
C484 C496 1.349 . S
C485 C483 1.327 . S
C485 C501 1.429 . S
C485 H507 0.950 . S
C486 H482 0.949 . S
C486 C494 1.574 . S
C486 C502 1.368 . S
H487 C495 0.950 . S
H488 C493 0.950 . S
H489 C494 0.949 . S
H490 C496 0.950 . S
H491 C497 0.950 . S
H492 C498 0.949 . S
C493 H488 0.950 . S
C493 C495 1.327 . S
C493 C499 1.429 . S
C494 C486 1.574 . S
C494 H489 0.949 . S
C494 C500 1.368 . S
C495 C479 1.349 . S
C495 H487 0.950 . S
C495 C493 1.327 . S
C496 C484 1.349 . S
C496 H490 0.950 . S
C496 C497 1.327 . S
C497 H491 0.950 . S
C497 C496 1.327 . S
C497 C501 1.429 . S
C498 C481 1.574 . S
C498 H492 0.949 . S
C498 C502 1.368 . S
C499 C480 1.429 . S
C499 C493 1.429 . S
C499 C500 1.523 . S
C500 C481 1.368 . S
C500 C494 1.368 . S
C500 C499 1.523 . S
C501 C485 1.429 . S
C501 C497 1.429 . S
C501 C502 1.523 . S
C502 C486 1.368 . S
C502 C498 1.368 . S
C502 C501 1.523 . S
H503 C478 0.950 . S
H504 C480 0.950 . S
H505 C481 0.949 . S
H506 C483 0.950 . S
H507 C485 0.950 . S
C508 C509 1.349 . S
C508 C510 1.327 . S
C508 H533 0.950 . S
C509 C508 1.349 . S
C509 C525 1.349 . S
C510 C508 1.327 . S
C510 C529 1.429 . S
C510 H534 0.950 . S
C511 C528 1.574 . S
C511 C530 1.368 . S
C511 H535 0.949 . S
H512 C516 0.949 . S
C513 C514 1.349 . S
C513 C515 1.327 . S
C513 H536 0.950 . S
C514 C513 1.349 . S
C514 C526 1.349 . S
C515 C513 1.327 . S
C515 C531 1.429 . S
C515 H537 0.950 . S
C516 H512 0.949 . S
C516 C524 1.574 . S
C516 C532 1.368 . S
H517 C525 0.950 . S
H518 C523 0.950 . S
H519 C524 0.949 . S
H520 C526 0.950 . S
H521 C527 0.950 . S
H522 C528 0.949 . S
C523 H518 0.950 . S
C523 C525 1.327 . S
C523 C529 1.429 . S
C524 C516 1.574 . S
C524 H519 0.949 . S
C524 C530 1.368 . S
C525 C509 1.349 . S
C525 H517 0.950 . S
C525 C523 1.327 . S
C526 C514 1.349 . S
C526 H520 0.950 . S
C526 C527 1.327 . S
C527 H521 0.950 . S
C527 C526 1.327 . S
C527 C531 1.429 . S
C528 C511 1.574 . S
C528 H522 0.949 . S
C528 C532 1.368 . S
C529 C510 1.429 . S
C529 C523 1.429 . S
C529 C530 1.523 . S
C530 C511 1.368 . S
C530 C524 1.368 . S
C530 C529 1.523 . S
C531 C515 1.429 . S
C531 C527 1.429 . S
C531 C532 1.523 . S
C532 C516 1.368 . S
C532 C528 1.368 . S
C532 C531 1.523 . S
H533 C508 0.950 . S
H534 C510 0.950 . S
H535 C511 0.949 . S
H536 C513 0.950 . S
H537 C515 0.950 . S
C538 C539 1.349 . S
C538 C540 1.327 . S
C538 H563 0.950 . S
C539 C538 1.349 . S
C539 C555 1.349 . S
C540 C538 1.327 . S
C540 C559 1.429 . S
C540 H564 0.950 . S
C541 C558 1.574 . S
C541 C560 1.368 . S
C541 H565 0.949 . S
H542 C546 0.949 . S
C543 C544 1.349 . S
C543 C545 1.327 . S
C543 H566 0.950 . S
C544 C543 1.349 . S
C544 C556 1.349 . S
C545 C543 1.327 . S
C545 C561 1.429 . S
C545 H567 0.950 . S
C546 H542 0.949 . S
C546 C554 1.574 . S
C546 C562 1.368 . S
H547 C555 0.950 . S
H548 C553 0.950 . S
H549 C554 0.949 . S
H550 C556 0.950 . S
H551 C557 0.950 . S
H552 C558 0.949 . S
C553 H548 0.950 . S
C553 C555 1.327 . S
C553 C559 1.429 . S
C554 C546 1.574 . S
C554 H549 0.949 . S
C554 C560 1.368 . S
C555 C539 1.349 . S
C555 H547 0.950 . S
C555 C553 1.327 . S
C556 C544 1.349 . S
C556 H550 0.950 . S
C556 C557 1.327 . S
C557 H551 0.950 . S
C557 C556 1.327 . S
C557 C561 1.429 . S
C558 C541 1.574 . S
C558 H552 0.949 . S
C558 C562 1.368 . S
C559 C540 1.429 . S
C559 C553 1.429 . S
C559 C560 1.523 . S
C560 C541 1.368 . S
C560 C554 1.368 . S
C560 C559 1.523 . S
C561 C545 1.429 . S
C561 C557 1.429 . S
C561 C562 1.523 . S
C562 C546 1.368 . S
C562 C558 1.368 . S
C562 C561 1.523 . S
H563 C538 0.950 . S
H564 C540 0.950 . S
H565 C541 0.949 . S
H566 C543 0.950 . S
H567 C545 0.950 . S
C568 C569 1.349 . S
C568 C570 1.327 . S
C568 H593 0.950 . S
C569 C568 1.349 . S
C569 C585 1.349 . S
C570 C568 1.327 . S
C570 C589 1.429 . S
C570 H594 0.950 . S
C571 C588 1.574 . S
C571 C590 1.368 . S
C571 H595 0.949 . S
H572 C576 0.949 . S
C573 C574 1.349 . S
C573 C575 1.327 . S
C573 H596 0.950 . S
C574 C573 1.349 . S
C574 C586 1.349 . S
C575 C573 1.327 . S
C575 C591 1.429 . S
C575 H597 0.950 . S
C576 H572 0.949 . S
C576 C584 1.574 . S
C576 C592 1.368 . S
H577 C585 0.950 . S
H578 C583 0.950 . S
H579 C584 0.949 . S
H580 C586 0.950 . S
H581 C587 0.950 . S
H582 C588 0.949 . S
C583 H578 0.950 . S
C583 C585 1.327 . S
C583 C589 1.429 . S
C584 C576 1.574 . S
C584 H579 0.949 . S
C584 C590 1.368 . S
C585 C569 1.349 . S
C585 H577 0.950 . S
C585 C583 1.327 . S
C586 C574 1.349 . S
C586 H580 0.950 . S
C586 C587 1.327 . S
C587 H581 0.950 . S
C587 C586 1.327 . S
C587 C591 1.429 . S
C588 C571 1.574 . S
C588 H582 0.949 . S
C588 C592 1.368 . S
C589 C570 1.429 . S
C589 C583 1.429 . S
C589 C590 1.523 . S
C590 C571 1.368 . S
C590 C584 1.368 . S
C590 C589 1.523 . S
C591 C575 1.429 . S
C591 C587 1.429 . S
C591 C592 1.523 . S
C592 C576 1.368 . S
C592 C588 1.368 . S
C592 C591 1.523 . S
H593 C568 0.950 . S
H594 C570 0.950 . S
H595 C571 0.949 . S
H596 C573 0.950 . S
H597 C575 0.950 . S
C598 C599 1.349 . S
C598 C600 1.327 . S
C598 H623 0.950 . S
C599 C598 1.349 . S
C599 C615 1.349 . S
C600 C598 1.327 . S
C600 C619 1.429 . S
C600 H624 0.950 . S
C601 C618 1.574 . S
C601 C620 1.368 . S
C601 H625 0.949 . S
H602 C606 0.949 . S
C603 C604 1.349 . S
C603 C605 1.327 . S
C603 H626 0.950 . S
C604 C603 1.349 . S
C604 C616 1.349 . S
C605 C603 1.327 . S
C605 C621 1.429 . S
C605 H627 0.950 . S
C606 H602 0.949 . S
C606 C614 1.574 . S
C606 C622 1.368 . S
H607 C615 0.950 . S
H608 C613 0.950 . S
H609 C614 0.949 . S
H610 C616 0.950 . S
H611 C617 0.950 . S
H612 C618 0.949 . S
C613 H608 0.950 . S
C613 C615 1.327 . S
C613 C619 1.429 . S
C614 C606 1.574 . S
C614 H609 0.949 . S
C614 C620 1.368 . S
C615 C599 1.349 . S
C615 H607 0.950 . S
C615 C613 1.327 . S
C616 C604 1.349 . S
C616 H610 0.950 . S
C616 C617 1.327 . S
C617 H611 0.950 . S
C617 C616 1.327 . S
C617 C621 1.429 . S
C618 C601 1.574 . S
C618 H612 0.949 . S
C618 C622 1.368 . S
C619 C600 1.429 . S
C619 C613 1.429 . S
C619 C620 1.523 . S
C620 C601 1.368 . S
C620 C614 1.368 . S
C620 C619 1.523 . S
C621 C605 1.429 . S
C621 C617 1.429 . S
C621 C622 1.523 . S
C622 C606 1.368 . S
C622 C618 1.368 . S
C622 C621 1.523 . S
H623 C598 0.950 . S
H624 C600 0.950 . S
H625 C601 0.949 . S
H626 C603 0.950 . S
H627 C605 0.950 . S
C628 C629 1.349 . S
C628 C630 1.327 . S
C628 H653 0.950 . S
C629 C628 1.349 . S
C629 C645 1.349 . S
C630 C628 1.327 . S
C630 C649 1.429 . S
C630 H654 0.950 . S
C631 C648 1.574 . S
C631 C650 1.368 . S
C631 H655 0.949 . S
H632 C636 0.949 . S
C633 C634 1.349 . S
C633 C635 1.327 . S
C633 H656 0.950 . S
C634 C633 1.349 . S
C634 C646 1.349 . S
C635 C633 1.327 . S
C635 C651 1.429 . S
C635 H657 0.950 . S
C636 H632 0.949 . S
C636 C644 1.574 . S
C636 C652 1.368 . S
H637 C645 0.950 . S
H638 C643 0.950 . S
H639 C644 0.949 . S
H640 C646 0.950 . S
H641 C647 0.950 . S
H642 C648 0.949 . S
C643 H638 0.950 . S
C643 C645 1.327 . S
C643 C649 1.429 . S
C644 C636 1.574 . S
C644 H639 0.949 . S
C644 C650 1.368 . S
C645 C629 1.349 . S
C645 H637 0.950 . S
C645 C643 1.327 . S
C646 C634 1.349 . S
C646 H640 0.950 . S
C646 C647 1.327 . S
C647 H641 0.950 . S
C647 C646 1.327 . S
C647 C651 1.429 . S
C648 C631 1.574 . S
C648 H642 0.949 . S
C648 C652 1.368 . S
C649 C630 1.429 . S
C649 C643 1.429 . S
C649 C650 1.523 . S
C650 C631 1.368 . S
C650 C644 1.368 . S
C650 C649 1.523 . S
C651 C635 1.429 . S
C651 C647 1.429 . S
C651 C652 1.523 . S
C652 C636 1.368 . S
C652 C648 1.368 . S
C652 C651 1.523 . S
H653 C628 0.950 . S
H654 C630 0.950 . S
H655 C631 0.949 . S
H656 C633 0.950 . S
H657 C635 0.950 . S
C658 C659 1.349 . S
C658 C660 1.327 . S
C658 H683 0.950 . S
C659 C658 1.349 . S
C659 C675 1.349 . S
C660 C658 1.327 . S
C660 C679 1.429 . S
C660 H684 0.950 . S
C661 C678 1.574 . S
C661 C680 1.368 . S
C661 H685 0.949 . S
H662 C666 0.949 . S
C663 C664 1.349 . S
C663 C665 1.327 . S
C663 H686 0.950 . S
C664 C663 1.349 . S
C664 C676 1.349 . S
C665 C663 1.327 . S
C665 C681 1.429 . S
C665 H687 0.950 . S
C666 H662 0.949 . S
C666 C674 1.574 . S
C666 C682 1.368 . S
H667 C675 0.950 . S
H668 C673 0.950 . S
H669 C674 0.949 . S
H670 C676 0.950 . S
H671 C677 0.950 . S
H672 C678 0.949 . S
C673 H668 0.950 . S
C673 C675 1.327 . S
C673 C679 1.429 . S
C674 C666 1.574 . S
C674 H669 0.949 . S
C674 C680 1.368 . S
C675 C659 1.349 . S
C675 H667 0.950 . S
C675 C673 1.327 . S
C676 C664 1.349 . S
C676 H670 0.950 . S
C676 C677 1.327 . S
C677 H671 0.950 . S
C677 C676 1.327 . S
C677 C681 1.429 . S
C678 C661 1.574 . S
C678 H672 0.949 . S
C678 C682 1.368 . S
C679 C660 1.429 . S
C679 C673 1.429 . S
C679 C680 1.523 . S
C680 C661 1.368 . S
C680 C674 1.368 . S
C680 C679 1.523 . S
C681 C665 1.429 . S
C681 C677 1.429 . S
C681 C682 1.523 . S
C682 C666 1.368 . S
C682 C678 1.368 . S
C682 C681 1.523 . S
H683 C658 0.950 . S
H684 C660 0.950 . S
H685 C661 0.949 . S
H686 C663 0.950 . S
H687 C665 0.950 . S
C688 C689 1.349 . S
C688 C690 1.327 . S
C688 H713 0.950 . S
C689 C688 1.349 . S
C689 C705 1.349 . S
C690 C688 1.327 . S
C690 C709 1.429 . S
C690 H714 0.950 . S
C691 C708 1.574 . S
C691 C710 1.368 . S
C691 H715 0.949 . S
H692 C696 0.949 . S
C693 C694 1.349 . S
C693 C695 1.327 . S
C693 H716 0.950 . S
C694 C693 1.349 . S
C694 C706 1.349 . S
C695 C693 1.327 . S
C695 C711 1.429 . S
C695 H717 0.950 . S
C696 H692 0.949 . S
C696 C704 1.574 . S
C696 C712 1.368 . S
H697 C705 0.950 . S
H698 C703 0.950 . S
H699 C704 0.949 . S
H700 C706 0.950 . S
H701 C707 0.950 . S
H702 C708 0.949 . S
C703 H698 0.950 . S
C703 C705 1.327 . S
C703 C709 1.429 . S
C704 C696 1.574 . S
C704 H699 0.949 . S
C704 C710 1.368 . S
C705 C689 1.349 . S
C705 H697 0.950 . S
C705 C703 1.327 . S
C706 C694 1.349 . S
C706 H700 0.950 . S
C706 C707 1.327 . S
C707 H701 0.950 . S
C707 C706 1.327 . S
C707 C711 1.429 . S
C708 C691 1.574 . S
C708 H702 0.949 . S
C708 C712 1.368 . S
C709 C690 1.429 . S
C709 C703 1.429 . S
C709 C710 1.523 . S
C710 C691 1.368 . S
C710 C704 1.368 . S
C710 C709 1.523 . S
C711 C695 1.429 . S
C711 C707 1.429 . S
C711 C712 1.523 . S
C712 C696 1.368 . S
C712 C708 1.368 . S
C712 C711 1.523 . S
H713 C688 0.950 . S
H714 C690 0.950 . S
H715 C691 0.949 . S
H716 C693 0.950 . S
H717 C695 0.950 . S
C718 C719 1.349 . S
C718 C720 1.327 . S
C718 H743 0.950 . S
C719 C718 1.349 . S
C719 C735 1.349 . S
C720 C718 1.327 . S
C720 C739 1.429 . S
C720 H744 0.950 . S
C721 C738 1.574 . S
C721 C740 1.368 . S
C721 H745 0.949 . S
H722 C726 0.949 . S
C723 C724 1.349 . S
C723 C725 1.327 . S
C723 H746 0.950 . S
C724 C723 1.349 . S
C724 C736 1.349 . S
C725 C723 1.327 . S
C725 C741 1.429 . S
C725 H747 0.950 . S
C726 H722 0.949 . S
C726 C734 1.574 . S
C726 C742 1.368 . S
H727 C735 0.950 . S
H728 C733 0.950 . S
H729 C734 0.949 . S
H730 C736 0.950 . S
H731 C737 0.950 . S
H732 C738 0.949 . S
C733 H728 0.950 . S
C733 C735 1.327 . S
C733 C739 1.429 . S
C734 C726 1.574 . S
C734 H729 0.949 . S
C734 C740 1.368 . S
C735 C719 1.349 . S
C735 H727 0.950 . S
C735 C733 1.327 . S
C736 C724 1.349 . S
C736 H730 0.950 . S
C736 C737 1.327 . S
C737 H731 0.950 . S
C737 C736 1.327 . S
C737 C741 1.429 . S
C738 C721 1.574 . S
C738 H732 0.949 . S
C738 C742 1.368 . S
C739 C720 1.429 . S
C739 C733 1.429 . S
C739 C740 1.523 . S
C740 C721 1.368 . S
C740 C734 1.368 . S
C740 C739 1.523 . S
C741 C725 1.429 . S
C741 C737 1.429 . S
C741 C742 1.523 . S
C742 C726 1.368 . S
C742 C738 1.368 . S
C742 C741 1.523 . S
H743 C718 0.950 . S
H744 C720 0.950 . S
H745 C721 0.949 . S
H746 C723 0.950 . S
H747 C725 0.950 . S
C748 C749 1.349 . S
C748 C750 1.327 . S
C748 H773 0.950 . S
C749 C748 1.349 . S
C749 C765 1.349 . S
C750 C748 1.327 . S
C750 C769 1.429 . S
C750 H774 0.950 . S
C751 C768 1.574 . S
C751 C770 1.368 . S
C751 H775 0.949 . S
H752 C756 0.949 . S
C753 C754 1.349 . S
C753 C755 1.327 . S
C753 H776 0.950 . S
C754 C753 1.349 . S
C754 C766 1.349 . S
C755 C753 1.327 . S
C755 C771 1.429 . S
C755 H777 0.950 . S
C756 H752 0.949 . S
C756 C764 1.574 . S
C756 C772 1.368 . S
H757 C765 0.950 . S
H758 C763 0.950 . S
H759 C764 0.949 . S
H760 C766 0.950 . S
H761 C767 0.950 . S
H762 C768 0.949 . S
C763 H758 0.950 . S
C763 C765 1.327 . S
C763 C769 1.429 . S
C764 C756 1.574 . S
C764 H759 0.949 . S
C764 C770 1.368 . S
C765 C749 1.349 . S
C765 H757 0.950 . S
C765 C763 1.327 . S
C766 C754 1.349 . S
C766 H760 0.950 . S
C766 C767 1.327 . S
C767 H761 0.950 . S
C767 C766 1.327 . S
C767 C771 1.429 . S
C768 C751 1.574 . S
C768 H762 0.949 . S
C768 C772 1.368 . S
C769 C750 1.429 . S
C769 C763 1.429 . S
C769 C770 1.523 . S
C770 C751 1.368 . S
C770 C764 1.368 . S
C770 C769 1.523 . S
C771 C755 1.429 . S
C771 C767 1.429 . S
C771 C772 1.523 . S
C772 C756 1.368 . S
C772 C768 1.368 . S
C772 C771 1.523 . S
H773 C748 0.950 . S
H774 C750 0.950 . S
H775 C751 0.949 . S
H776 C753 0.950 . S
H777 C755 0.950 . S
C778 C779 1.349 . S
C778 C780 1.327 . S
C778 H803 0.950 . S
C779 C778 1.349 . S
C779 C795 1.349 . S
C780 C778 1.327 . S
C780 C799 1.429 . S
C780 H804 0.950 . S
C781 C798 1.574 . S
C781 C800 1.368 . S
C781 H805 0.949 . S
H782 C786 0.949 . S
C783 C784 1.349 . S
C783 C785 1.327 . S
C783 H806 0.950 . S
C784 C783 1.349 . S
C784 C796 1.349 . S
C785 C783 1.327 . S
C785 C801 1.429 . S
C785 H807 0.950 . S
C786 H782 0.949 . S
C786 C794 1.574 . S
C786 C802 1.368 . S
H787 C795 0.950 . S
H788 C793 0.950 . S
H789 C794 0.949 . S
H790 C796 0.950 . S
H791 C797 0.950 . S
H792 C798 0.949 . S
C793 H788 0.950 . S
C793 C795 1.327 . S
C793 C799 1.429 . S
C794 C786 1.574 . S
C794 H789 0.949 . S
C794 C800 1.368 . S
C795 C779 1.349 . S
C795 H787 0.950 . S
C795 C793 1.327 . S
C796 C784 1.349 . S
C796 H790 0.950 . S
C796 C797 1.327 . S
C797 H791 0.950 . S
C797 C796 1.327 . S
C797 C801 1.429 . S
C798 C781 1.574 . S
C798 H792 0.949 . S
C798 C802 1.368 . S
C799 C780 1.429 . S
C799 C793 1.429 . S
C799 C800 1.523 . S
C800 C781 1.368 . S
C800 C794 1.368 . S
C800 C799 1.523 . S
C801 C785 1.429 . S
C801 C797 1.429 . S
C801 C802 1.523 . S
C802 C786 1.368 . S
C802 C798 1.368 . S
C802 C801 1.523 . S
H803 C778 0.950 . S
H804 C780 0.950 . S
H805 C781 0.949 . S
H806 C783 0.950 . S
H807 C785 0.950 . S
C808 C809 1.349 . S
C808 C810 1.327 . S
C808 H833 0.950 . S
C809 C808 1.349 . S
C809 C825 1.349 . S
C810 C808 1.327 . S
C810 C829 1.429 . S
C810 H834 0.950 . S
C811 C828 1.574 . S
C811 C830 1.368 . S
C811 H835 0.949 . S
H812 C816 0.949 . S
C813 C814 1.349 . S
C813 C815 1.327 . S
C813 H836 0.950 . S
C814 C813 1.349 . S
C814 C826 1.349 . S
C815 C813 1.327 . S
C815 C831 1.429 . S
C815 H837 0.950 . S
C816 H812 0.949 . S
C816 C824 1.574 . S
C816 C832 1.368 . S
H817 C825 0.950 . S
H818 C823 0.950 . S
H819 C824 0.949 . S
H820 C826 0.950 . S
H821 C827 0.950 . S
H822 C828 0.949 . S
C823 H818 0.950 . S
C823 C825 1.327 . S
C823 C829 1.429 . S
C824 C816 1.574 . S
C824 H819 0.949 . S
C824 C830 1.368 . S
C825 C809 1.349 . S
C825 H817 0.950 . S
C825 C823 1.327 . S
C826 C814 1.349 . S
C826 H820 0.950 . S
C826 C827 1.327 . S
C827 H821 0.950 . S
C827 C826 1.327 . S
C827 C831 1.429 . S
C828 C811 1.574 . S
C828 H822 0.949 . S
C828 C832 1.368 . S
C829 C810 1.429 . S
C829 C823 1.429 . S
C829 C830 1.523 . S
C830 C811 1.368 . S
C830 C824 1.368 . S
C830 C829 1.523 . S
C831 C815 1.429 . S
C831 C827 1.429 . S
C831 C832 1.523 . S
C832 C816 1.368 . S
C832 C828 1.368 . S
C832 C831 1.523 . S
H833 C808 0.950 . S
H834 C810 0.950 . S
H835 C811 0.949 . S
H836 C813 0.950 . S
H837 C815 0.950 . S
C838 C839 1.349 . S
C838 C840 1.327 . S
C838 H863 0.950 . S
C839 C838 1.349 . S
C839 C855 1.349 . S
C840 C838 1.327 . S
C840 C859 1.429 . S
C840 H864 0.950 . S
C841 C858 1.574 . S
C841 C860 1.368 . S
C841 H865 0.949 . S
H842 C846 0.949 . S
C843 C844 1.349 . S
C843 C845 1.327 . S
C843 H866 0.950 . S
C844 C843 1.349 . S
C844 C856 1.349 . S
C845 C843 1.327 . S
C845 C861 1.429 . S
C845 H867 0.950 . S
C846 H842 0.949 . S
C846 C854 1.574 . S
C846 C862 1.368 . S
H847 C855 0.950 . S
H848 C853 0.950 . S
H849 C854 0.949 . S
H850 C856 0.950 . S
H851 C857 0.950 . S
H852 C858 0.949 . S
C853 H848 0.950 . S
C853 C855 1.327 . S
C853 C859 1.429 . S
C854 C846 1.574 . S
C854 H849 0.949 . S
C854 C860 1.368 . S
C855 C839 1.349 . S
C855 H847 0.950 . S
C855 C853 1.327 . S
C856 C844 1.349 . S
C856 H850 0.950 . S
C856 C857 1.327 . S
C857 H851 0.950 . S
C857 C856 1.327 . S
C857 C861 1.429 . S
C858 C841 1.574 . S
C858 H852 0.949 . S
C858 C862 1.368 . S
C859 C840 1.429 . S
C859 C853 1.429 . S
C859 C860 1.523 . S
C860 C841 1.368 . S
C860 C854 1.368 . S
C860 C859 1.523 . S
C861 C845 1.429 . S
C861 C857 1.429 . S
C861 C862 1.523 . S
C862 C846 1.368 . S
C862 C858 1.368 . S
C862 C861 1.523 . S
H863 C838 0.950 . S
H864 C840 0.950 . S
H865 C841 0.949 . S
H866 C843 0.950 . S
H867 C845 0.950 . S
C868 C869 1.349 . S
C868 C870 1.327 . S
C868 H893 0.950 . S
C869 C868 1.349 . S
C869 C885 1.349 . S
C870 C868 1.327 . S
C870 C889 1.429 . S
C870 H894 0.950 . S
C871 C888 1.574 . S
C871 C890 1.368 . S
C871 H895 0.949 . S
H872 C876 0.949 . S
C873 C874 1.349 . S
C873 C875 1.327 . S
C873 H896 0.950 . S
C874 C873 1.349 . S
C874 C886 1.349 . S
C875 C873 1.327 . S
C875 C891 1.429 . S
C875 H897 0.950 . S
C876 H872 0.949 . S
C876 C884 1.574 . S
C876 C892 1.368 . S
H877 C885 0.950 . S
H878 C883 0.950 . S
H879 C884 0.949 . S
H880 C886 0.950 . S
H881 C887 0.950 . S
H882 C888 0.949 . S
C883 H878 0.950 . S
C883 C885 1.327 . S
C883 C889 1.429 . S
C884 C876 1.574 . S
C884 H879 0.949 . S
C884 C890 1.368 . S
C885 C869 1.349 . S
C885 H877 0.950 . S
C885 C883 1.327 . S
C886 C874 1.349 . S
C886 H880 0.950 . S
C886 C887 1.327 . S
C887 H881 0.950 . S
C887 C886 1.327 . S
C887 C891 1.429 . S
C888 C871 1.574 . S
C888 H882 0.949 . S
C888 C892 1.368 . S
C889 C870 1.429 . S
C889 C883 1.429 . S
C889 C890 1.523 . S
C890 C871 1.368 . S
C890 C884 1.368 . S
C890 C889 1.523 . S
C891 C875 1.429 . S
C891 C887 1.429 . S
C891 C892 1.523 . S
C892 C876 1.368 . S
C892 C888 1.368 . S
C892 C891 1.523 . S
H893 C868 0.950 . S
H894 C870 0.950 . S
H895 C871 0.949 . S
H896 C873 0.950 . S
H897 C875 0.950 . S
C898 C899 1.349 . S
C898 C900 1.327 . S
C898 H923 0.950 . S
C899 C898 1.349 . S
C899 C915 1.349 . S
C900 C898 1.327 . S
C900 C919 1.429 . S
C900 H924 0.950 . S
C901 C918 1.574 . S
C901 C920 1.368 . S
C901 H925 0.949 . S
H902 C906 0.949 . S
C903 C904 1.349 . S
C903 C905 1.327 . S
C903 H926 0.950 . S
C904 C903 1.349 . S
C904 C916 1.349 . S
C905 C903 1.327 . S
C905 C921 1.429 . S
C905 H927 0.950 . S
C906 H902 0.949 . S
C906 C914 1.574 . S
C906 C922 1.368 . S
H907 C915 0.950 . S
H908 C913 0.950 . S
H909 C914 0.949 . S
H910 C916 0.950 . S
H911 C917 0.950 . S
H912 C918 0.949 . S
C913 H908 0.950 . S
C913 C915 1.327 . S
C913 C919 1.429 . S
C914 C906 1.574 . S
C914 H909 0.949 . S
C914 C920 1.368 . S
C915 C899 1.349 . S
C915 H907 0.950 . S
C915 C913 1.327 . S
C916 C904 1.349 . S
C916 H910 0.950 . S
C916 C917 1.327 . S
C917 H911 0.950 . S
C917 C916 1.327 . S
C917 C921 1.429 . S
C918 C901 1.574 . S
C918 H912 0.949 . S
C918 C922 1.368 . S
C919 C900 1.429 . S
C919 C913 1.429 . S
C919 C920 1.523 . S
C920 C901 1.368 . S
C920 C914 1.368 . S
C920 C919 1.523 . S
C921 C905 1.429 . S
C921 C917 1.429 . S
C921 C922 1.523 . S
C922 C906 1.368 . S
C922 C918 1.368 . S
C922 C921 1.523 . S
H923 C898 0.950 . S
H924 C900 0.950 . S
H925 C901 0.949 . S
H926 C903 0.950 . S
H927 C905 0.950 . S
C928 C929 1.349 . S
C928 C930 1.327 . S
C928 H953 0.950 . S
C929 C928 1.349 . S
C929 C945 1.349 . S
C930 C928 1.327 . S
C930 C949 1.429 . S
C930 H954 0.950 . S
C931 C948 1.574 . S
C931 C950 1.368 . S
C931 H955 0.949 . S
H932 C936 0.949 . S
C933 C934 1.349 . S
C933 C935 1.327 . S
C933 H956 0.950 . S
C934 C933 1.349 . S
C934 C946 1.349 . S
C935 C933 1.327 . S
C935 C951 1.429 . S
C935 H957 0.950 . S
C936 H932 0.949 . S
C936 C944 1.574 . S
C936 C952 1.368 . S
H937 C945 0.950 . S
H938 C943 0.950 . S
H939 C944 0.949 . S
H940 C946 0.950 . S
H941 C947 0.950 . S
H942 C948 0.949 . S
C943 H938 0.950 . S
C943 C945 1.327 . S
C943 C949 1.429 . S
C944 C936 1.574 . S
C944 H939 0.949 . S
C944 C950 1.368 . S
C945 C929 1.349 . S
C945 H937 0.950 . S
C945 C943 1.327 . S
C946 C934 1.349 . S
C946 H940 0.950 . S
C946 C947 1.327 . S
C947 H941 0.950 . S
C947 C946 1.327 . S
C947 C951 1.429 . S
C948 C931 1.574 . S
C948 H942 0.949 . S
C948 C952 1.368 . S
C949 C930 1.429 . S
C949 C943 1.429 . S
C949 C950 1.523 . S
C950 C931 1.368 . S
C950 C944 1.368 . S
C950 C949 1.523 . S
C951 C935 1.429 . S
C951 C947 1.429 . S
C951 C952 1.523 . S
C952 C936 1.368 . S
C952 C948 1.368 . S
C952 C951 1.523 . S
H953 C928 0.950 . S
H954 C930 0.950 . S
H955 C931 0.949 . S
H956 C933 0.950 . S
H957 C935 0.950 . S
C958 C959 1.349 . S
C958 C960 1.327 . S
C958 H983 0.950 . S
C959 C958 1.349 . S
C959 C975 1.349 . S
C960 C958 1.327 . S
C960 C979 1.429 . S
C960 H984 0.950 . S
C961 C978 1.574 . S
C961 C980 1.368 . S
C961 H985 0.949 . S
H962 C966 0.949 . S
C963 C964 1.349 . S
C963 C965 1.327 . S
C963 H986 0.950 . S
C964 C963 1.349 . S
C964 C976 1.349 . S
C965 C963 1.327 . S
C965 C981 1.429 . S
C965 H987 0.950 . S
C966 H962 0.949 . S
C966 C974 1.574 . S
C966 C982 1.368 . S
H967 C975 0.950 . S
H968 C973 0.950 . S
H969 C974 0.949 . S
H970 C976 0.950 . S
H971 C977 0.950 . S
H972 C978 0.949 . S
C973 H968 0.950 . S
C973 C975 1.327 . S
C973 C979 1.429 . S
C974 C966 1.574 . S
C974 H969 0.949 . S
C974 C980 1.368 . S
C975 C959 1.349 . S
C975 H967 0.950 . S
C975 C973 1.327 . S
C976 C964 1.349 . S
C976 H970 0.950 . S
C976 C977 1.327 . S
C977 H971 0.950 . S
C977 C976 1.327 . S
C977 C981 1.429 . S
C978 C961 1.574 . S
C978 H972 0.949 . S
C978 C982 1.368 . S
C979 C960 1.429 . S
C979 C973 1.429 . S
C979 C980 1.523 . S
C980 C961 1.368 . S
C980 C974 1.368 . S
C980 C979 1.523 . S
C981 C965 1.429 . S
C981 C977 1.429 . S
C981 C982 1.523 . S
C982 C966 1.368 . S
C982 C978 1.368 . S
C982 C981 1.523 . S
H983 C958 0.950 . S
H984 C960 0.950 . S
H985 C961 0.949 . S
H986 C963 0.950 . S
H987 C965 0.950 . S
C988 C989 1.349 . S
C988 C990 1.327 . S
C988 H1013 0.950 . S
C989 C988 1.349 . S
C989 C1005 1.349 . S
C990 C988 1.327 . S
C990 C1009 1.429 . S
C990 H1014 0.950 . S
C991 C1008 1.574 . S
C991 C1010 1.368 . S
C991 H1015 0.949 . S
H992 C996 0.949 . S
C993 C994 1.349 . S
C993 C995 1.327 . S
C993 H1016 0.950 . S
C994 C993 1.349 . S
C994 C1006 1.349 . S
C995 C993 1.327 . S
C995 C1011 1.429 . S
C995 H1017 0.950 . S
C996 H992 0.949 . S
C996 C1004 1.574 . S
C996 C1012 1.368 . S
H997 C1005 0.950 . S
H998 C1003 0.950 . S
H999 C1004 0.949 . S
H1000 C1006 0.950 . S
H1001 C1007 0.950 . S
H1002 C1008 0.949 . S
C1003 H998 0.950 . S
C1003 C1005 1.327 . S
C1003 C1009 1.429 . S
C1004 C996 1.574 . S
C1004 H999 0.949 . S
C1004 C1010 1.368 . S
C1005 C989 1.349 . S
C1005 H997 0.950 . S
C1005 C1003 1.327 . S
C1006 C994 1.349 . S
C1006 H1000 0.950 . S
C1006 C1007 1.327 . S
C1007 H1001 0.950 . S
C1007 C1006 1.327 . S
C1007 C1011 1.429 . S
C1008 C991 1.574 . S
C1008 H1002 0.949 . S
C1008 C1012 1.368 . S
C1009 C990 1.429 . S
C1009 C1003 1.429 . S
C1009 C1010 1.523 . S
C1010 C991 1.368 . S
C1010 C1004 1.368 . S
C1010 C1009 1.523 . S
C1011 C995 1.429 . S
C1011 C1007 1.429 . S
C1011 C1012 1.523 . S
C1012 C996 1.368 . S
C1012 C1008 1.368 . S
C1012 C1011 1.523 . S
H1013 C988 0.950 . S
H1014 C990 0.950 . S
H1015 C991 0.949 . S
H1016 C993 0.950 . S
H1017 C995 0.950 . S
C1018 C1019 1.349 . S
C1018 C1020 1.327 . S
C1018 H1043 0.950 . S
C1019 C1018 1.349 . S
C1019 C1035 1.349 . S
C1020 C1018 1.327 . S
C1020 C1039 1.429 . S
C1020 H1044 0.950 . S
C1021 C1038 1.574 . S
C1021 C1040 1.368 . S
C1021 H1045 0.949 . S
H1022 C1026 0.949 . S
C1023 C1024 1.349 . S
C1023 C1025 1.327 . S
C1023 H1046 0.950 . S
C1024 C1023 1.349 . S
C1024 C1036 1.349 . S
C1025 C1023 1.327 . S
C1025 C1041 1.429 . S
C1025 H1047 0.950 . S
C1026 H1022 0.949 . S
C1026 C1034 1.574 . S
C1026 C1042 1.368 . S
H1027 C1035 0.950 . S
H1028 C1033 0.950 . S
H1029 C1034 0.949 . S
H1030 C1036 0.950 . S
H1031 C1037 0.950 . S
H1032 C1038 0.949 . S
C1033 H1028 0.950 . S
C1033 C1035 1.327 . S
C1033 C1039 1.429 . S
C1034 C1026 1.574 . S
C1034 H1029 0.949 . S
C1034 C1040 1.368 . S
C1035 C1019 1.349 . S
C1035 H1027 0.950 . S
C1035 C1033 1.327 . S
C1036 C1024 1.349 . S
C1036 H1030 0.950 . S
C1036 C1037 1.327 . S
C1037 H1031 0.950 . S
C1037 C1036 1.327 . S
C1037 C1041 1.429 . S
C1038 C1021 1.574 . S
C1038 H1032 0.949 . S
C1038 C1042 1.368 . S
C1039 C1020 1.429 . S
C1039 C1033 1.429 . S
C1039 C1040 1.523 . S
C1040 C1021 1.368 . S
C1040 C1034 1.368 . S
C1040 C1039 1.523 . S
C1041 C1025 1.429 . S
C1041 C1037 1.429 . S
C1041 C1042 1.523 . S
C1042 C1026 1.368 . S
C1042 C1038 1.368 . S
C1042 C1041 1.523 . S
H1043 C1018 0.950 . S
H1044 C1020 0.950 . S
H1045 C1021 0.949 . S
H1046 C1023 0.950 . S
H1047 C1025 0.950 . S
C1048 C1049 1.349 . S
C1048 C1050 1.327 . S
C1048 H1073 0.950 . S
C1049 C1048 1.349 . S
C1049 C1065 1.349 . S
C1050 C1048 1.327 . S
C1050 C1069 1.429 . S
C1050 H1074 0.950 . S
C1051 C1068 1.574 . S
C1051 C1070 1.368 . S
C1051 H1075 0.949 . S
H1052 C1056 0.949 . S
C1053 C1054 1.349 . S
C1053 C1055 1.327 . S
C1053 H1076 0.950 . S
C1054 C1053 1.349 . S
C1054 C1066 1.349 . S
C1055 C1053 1.327 . S
C1055 C1071 1.429 . S
C1055 H1077 0.950 . S
C1056 H1052 0.949 . S
C1056 C1064 1.574 . S
C1056 C1072 1.368 . S
H1057 C1065 0.950 . S
H1058 C1063 0.950 . S
H1059 C1064 0.949 . S
H1060 C1066 0.950 . S
H1061 C1067 0.950 . S
H1062 C1068 0.949 . S
C1063 H1058 0.950 . S
C1063 C1065 1.327 . S
C1063 C1069 1.429 . S
C1064 C1056 1.574 . S
C1064 H1059 0.949 . S
C1064 C1070 1.368 . S
C1065 C1049 1.349 . S
C1065 H1057 0.950 . S
C1065 C1063 1.327 . S
C1066 C1054 1.349 . S
C1066 H1060 0.950 . S
C1066 C1067 1.327 . S
C1067 H1061 0.950 . S
C1067 C1066 1.327 . S
C1067 C1071 1.429 . S
C1068 C1051 1.574 . S
C1068 H1062 0.949 . S
C1068 C1072 1.368 . S
C1069 C1050 1.429 . S
C1069 C1063 1.429 . S
C1069 C1070 1.523 . S
C1070 C1051 1.368 . S
C1070 C1064 1.368 . S
C1070 C1069 1.523 . S
C1071 C1055 1.429 . S
C1071 C1067 1.429 . S
C1071 C1072 1.523 . S
C1072 C1056 1.368 . S
C1072 C1068 1.368 . S
C1072 C1071 1.523 . S
H1073 C1048 0.950 . S
H1074 C1050 0.950 . S
H1075 C1051 0.949 . S
H1076 C1053 0.950 . S
H1077 C1055 0.950 . S
C1078 C1079 1.349 . S
C1078 C1080 1.327 . S
C1078 H1103 0.950 . S
C1079 C1078 1.349 . S
C1079 C1095 1.349 . S
C1080 C1078 1.327 . S
C1080 C1099 1.429 . S
C1080 H1104 0.950 . S
C1081 C1098 1.574 . S
C1081 C1100 1.368 . S
C1081 H1105 0.949 . S
H1082 C1086 0.949 . S
C1083 C1084 1.349 . S
C1083 C1085 1.327 . S
C1083 H1106 0.950 . S
C1084 C1083 1.349 . S
C1084 C1096 1.349 . S
C1085 C1083 1.327 . S
C1085 C1101 1.429 . S
C1085 H1107 0.950 . S
C1086 H1082 0.949 . S
C1086 C1094 1.574 . S
C1086 C1102 1.368 . S
H1087 C1095 0.950 . S
H1088 C1093 0.950 . S
H1089 C1094 0.949 . S
H1090 C1096 0.950 . S
H1091 C1097 0.950 . S
H1092 C1098 0.949 . S
C1093 H1088 0.950 . S
C1093 C1095 1.327 . S
C1093 C1099 1.429 . S
C1094 C1086 1.574 . S
C1094 H1089 0.949 . S
C1094 C1100 1.368 . S
C1095 C1079 1.349 . S
C1095 H1087 0.950 . S
C1095 C1093 1.327 . S
C1096 C1084 1.349 . S
C1096 H1090 0.950 . S
C1096 C1097 1.327 . S
C1097 H1091 0.950 . S
C1097 C1096 1.327 . S
C1097 C1101 1.429 . S
C1098 C1081 1.574 . S
C1098 H1092 0.949 . S
C1098 C1102 1.368 . S
C1099 C1080 1.429 . S
C1099 C1093 1.429 . S
C1099 C1100 1.523 . S
C1100 C1081 1.368 . S
C1100 C1094 1.368 . S
C1100 C1099 1.523 . S
C1101 C1085 1.429 . S
C1101 C1097 1.429 . S
C1101 C1102 1.523 . S
C1102 C1086 1.368 . S
C1102 C1098 1.368 . S
C1102 C1101 1.523 . S
H1103 C1078 0.950 . S
H1104 C1080 0.950 . S
H1105 C1081 0.949 . S
H1106 C1083 0.950 . S
H1107 C1085 0.950 . S
C1108 C1109 1.349 . S
C1108 C1110 1.327 . S
C1108 H1133 0.950 . S
C1109 C1108 1.349 . S
C1109 C1125 1.349 . S
C1110 C1108 1.327 . S
C1110 C1129 1.429 . S
C1110 H1134 0.950 . S
C1111 C1128 1.574 . S
C1111 C1130 1.368 . S
C1111 H1135 0.949 . S
H1112 C1116 0.949 . S
C1113 C1114 1.349 . S
C1113 C1115 1.327 . S
C1113 H1136 0.950 . S
C1114 C1113 1.349 . S
C1114 C1126 1.349 . S
C1115 C1113 1.327 . S
C1115 C1131 1.429 . S
C1115 H1137 0.950 . S
C1116 H1112 0.949 . S
C1116 C1124 1.574 . S
C1116 C1132 1.368 . S
H1117 C1125 0.950 . S
H1118 C1123 0.950 . S
H1119 C1124 0.949 . S
H1120 C1126 0.950 . S
H1121 C1127 0.950 . S
H1122 C1128 0.949 . S
C1123 H1118 0.950 . S
C1123 C1125 1.327 . S
C1123 C1129 1.429 . S
C1124 C1116 1.574 . S
C1124 H1119 0.949 . S
C1124 C1130 1.368 . S
C1125 C1109 1.349 . S
C1125 H1117 0.950 . S
C1125 C1123 1.327 . S
C1126 C1114 1.349 . S
C1126 H1120 0.950 . S
C1126 C1127 1.327 . S
C1127 H1121 0.950 . S
C1127 C1126 1.327 . S
C1127 C1131 1.429 . S
C1128 C1111 1.574 . S
C1128 H1122 0.949 . S
C1128 C1132 1.368 . S
C1129 C1110 1.429 . S
C1129 C1123 1.429 . S
C1129 C1130 1.523 . S
C1130 C1111 1.368 . S
C1130 C1124 1.368 . S
C1130 C1129 1.523 . S
C1131 C1115 1.429 . S
C1131 C1127 1.429 . S
C1131 C1132 1.523 . S
C1132 C1116 1.368 . S
C1132 C1128 1.368 . S
C1132 C1131 1.523 . S
H1133 C1108 0.950 . S
H1134 C1110 0.950 . S
H1135 C1111 0.949 . S
H1136 C1113 0.950 . S
H1137 C1115 0.950 . S
C1138 C1139 1.349 . S
C1138 C1140 1.327 . S
C1138 H1163 0.950 . S
C1139 C1138 1.349 . S
C1139 C1155 1.349 . S
C1140 C1138 1.327 . S
C1140 C1159 1.429 . S
C1140 H1164 0.950 . S
C1141 C1158 1.574 . S
C1141 C1160 1.368 . S
C1141 H1165 0.949 . S
H1142 C1146 0.949 . S
C1143 C1144 1.349 . S
C1143 C1145 1.327 . S
C1143 H1166 0.950 . S
C1144 C1143 1.349 . S
C1144 C1156 1.349 . S
C1145 C1143 1.327 . S
C1145 C1161 1.429 . S
C1145 H1167 0.950 . S
C1146 H1142 0.949 . S
C1146 C1154 1.574 . S
C1146 C1162 1.368 . S
H1147 C1155 0.950 . S
H1148 C1153 0.950 . S
H1149 C1154 0.949 . S
H1150 C1156 0.950 . S
H1151 C1157 0.950 . S
H1152 C1158 0.949 . S
C1153 H1148 0.950 . S
C1153 C1155 1.327 . S
C1153 C1159 1.429 . S
C1154 C1146 1.574 . S
C1154 H1149 0.949 . S
C1154 C1160 1.368 . S
C1155 C1139 1.349 . S
C1155 H1147 0.950 . S
C1155 C1153 1.327 . S
C1156 C1144 1.349 . S
C1156 H1150 0.950 . S
C1156 C1157 1.327 . S
C1157 H1151 0.950 . S
C1157 C1156 1.327 . S
C1157 C1161 1.429 . S
C1158 C1141 1.574 . S
C1158 H1152 0.949 . S
C1158 C1162 1.368 . S
C1159 C1140 1.429 . S
C1159 C1153 1.429 . S
C1159 C1160 1.523 . S
C1160 C1141 1.368 . S
C1160 C1154 1.368 . S
C1160 C1159 1.523 . S
C1161 C1145 1.429 . S
C1161 C1157 1.429 . S
C1161 C1162 1.523 . S
C1162 C1146 1.368 . S
C1162 C1158 1.368 . S
C1162 C1161 1.523 . S
H1163 C1138 0.950 . S
H1164 C1140 0.950 . S
H1165 C1141 0.949 . S
H1166 C1143 0.950 . S
H1167 C1145 0.950 . S
C449 C1 1.261 . S
C454 C295 1.281 . S
C479 C67 0.967 . S
C484 C344 0.964 . S
C514 C370 2.396 . S
C509 C97 2.415 . S
C539 C133 2.328 . S
C544 C418 2.269 . S
C574 C330 2.520 . S
C569 C25 2.472 . S
C604 C298 0.907 . S
C599 C37 0.929 . S
C634 C419 1.859 . S
C629 C103 1.887 . S
C664 C387 1.477 . S
C659 C109 1.504 . S
C689 C31 1.762 . S
C694 C415 1.797 . S
C724 C347 2.291 . S
C719 C73 2.358 . S
C749 C139 2.344 . S
C754 C299 2.339 . S
C779 C61 0.752 . S
C784 C384 0.753 . S
C814 C304 1.283 . S
C809 C175 1.224 . S
C839 C181 0.943 . S
C844 C335 0.945 . S
C869 C247 2.440 . S
C874 C379 2.419 . S
C899 C277 2.314 . S
C904 C427 2.256 . S
C929 C145 2.393 . S
C934 C339 2.509 . S
C964 C307 0.913 . S
C959 C211 0.930 . S
C994 C410 1.846 . S
C989 C217 1.866 . S
C1024 C378 1.497 . S
C1019 C283 1.523 . S
C1049 C169 1.698 . S
C1054 C424 1.789 . S
C1084 C338 2.299 . S
C1079 C241 2.361 . S
C1114 C290 2.324 . S
C1109 C253 2.330 . S
C1139 C205 0.763 . S
C1144 C375 0.763 . S
