# Generated by pormake.
# Topology nom, (4,4)-cn, num edge types: 1
# Building blocks:
#     Node 0, Type 0, BuildingBlock: NAWXER_clean_linker_0, # of connection points: 4
#     Node 1, Type 0, BuildingBlock: NAWXER_clean_linker_0, # of connection points: 4
#     Node 2, Type 0, BuildingBlock: NAWXER_clean_linker_0, # of connection points: 4
#     Node 3, Type 0, BuildingBlock: NAWXER_clean_linker_0, # of connection points: 4
#     Node 4, Type 0, BuildingBlock: NAWXER_clean_linker_0, # of connection points: 4
#     Node 5, Type 0, BuildingBlock: NAWXER_clean_linker_0, # of connection points: 4
#     Node 6, Type 1, BuildingBlock: GALJAG_clean_sbu_0, # of connection points: 4
#     Node 7, Type 1, BuildingBlock: GALJAG_clean_sbu_0, # of connection points: 4
#     Node 8, Type 1, BuildingBlock: GALJAG_clean_sbu_0, # of connection points: 4
#     Node 9, Type 1, BuildingBlock: GALJAG_clean_sbu_0, # of connection points: 4
#     Node 10, Type 1, BuildingBlock: GALJAG_clean_sbu_0, # of connection points: 4
#     Node 11, Type 1, BuildingBlock: GALJAG_clean_sbu_0, # of connection points: 4
#     Edge 12, Type (0, 1), None
#     Edge 13, Type (0, 1), None
#     Edge 14, Type (0, 1), None
#     Edge 15, Type (0, 1), None
#     Edge 16, Type (0, 1), None
#     Edge 17, Type (0, 1), None
#     Edge 18, Type (0, 1), None
#     Edge 19, Type (0, 1), None
#     Edge 20, Type (0, 1), None
#     Edge 21, Type (0, 1), None
#     Edge 22, Type (0, 1), None
#     Edge 23, Type (0, 1), None
#     Edge 24, Type (0, 1), None
#     Edge 25, Type (0, 1), None
#     Edge 26, Type (0, 1), None
#     Edge 27, Type (0, 1), None
#     Edge 28, Type (0, 1), None
#     Edge 29, Type (0, 1), None
#     Edge 30, Type (0, 1), None
#     Edge 31, Type (0, 1), None
#     Edge 32, Type (0, 1), None
#     Edge 33, Type (0, 1), None
#     Edge 34, Type (0, 1), None
#     Edge 35, Type (0, 1), None
# Relax obj value: 0.004
# Max RMSD: 0.115
# Mean RMSD: 0.086
data_MOF--net-nom--node1-GALJAG_clean_sbu_0--node2-NAWXER_clean_linker_0--edge1-none
_symmetry_space_group_name_H-M    P1
_symmetry_Int_Tables_number       1
_symmetry_cell_setting            triclinic
loop_
_symmetry_equiv_pos_as_xyz
'x, y, z'
_cell_length_a     28.469543
_cell_length_b     28.32586
_cell_length_c     31.430011
_cell_angle_alpha  89.760234
_cell_angle_beta   90.42186
_cell_angle_gamma 120.20917
loop_
_atom_site_label
_atom_site_type_symbol
_atom_site_fract_x
_atom_site_fract_y
_atom_site_fract_z
_atom_type_partial_charge
C0 C 0.82574 0.49739 0.37629 0.0
C1 C 0.78958 0.44256 0.38648 0.0
C2 C 0.87846 0.51364 0.36325 0.0
C3 C 0.89611 0.47558 0.3611 0.0
C4 C 0.8071 0.40428 0.38389 0.0
C5 C 0.86051 0.42095 0.37204 0.0
C6 C 0.95288 0.4948 0.3497 0.0
C7 C 0.86132 0.41383 0.22991 0.0
C8 C 0.86692 0.45003 0.19705 0.0
C9 C 0.89445 0.43283 0.26613 0.0
C10 C 0.93359 0.48845 0.27037 0.0
C11 C 0.90625 0.50566 0.20122 0.0
C12 C 0.93954 0.5246 0.23742 0.0
C13 C 0.97105 0.50803 0.30745 0.0
C14 C 0.21637 0.6248 0.32426 0.0
C15 C 0.22815 0.66793 0.29598 0.0
C16 C 0.16283 0.58869 0.33654 0.0
C17 C 0.12021 0.59573 0.3214 0.0
C18 C 0.18551 0.67461 0.28054 0.0
C19 C 0.13211 0.63886 0.29313 0.0
C20 C 0.06276 0.55728 0.33246 0.0
C21 C 0.1359 0.62303 0.46538 0.0
C22 C 0.14521 0.58438 0.48617 0.0
C23 C 0.10442 0.6091 0.4282 0.0
C24 C 0.0811 0.5561 0.41168 0.0
C25 C 0.12234 0.53151 0.46918 0.0
C26 C 0.08977 0.51724 0.43258 0.0
C27 C 0.0445 0.53993 0.37445 0.0
H28 H 0.81305 0.52754 0.3779 0.0
H29 H 0.90581 0.55614 0.35535 0.0
H30 H 0.77987 0.36178 0.39184 0.0
H31 H 0.87391 0.39132 0.37113 0.0
H32 H 0.83162 0.3707 0.22751 0.0
H33 H 0.89045 0.40371 0.29028 0.0
H34 H 0.91162 0.53455 0.17637 0.0
H35 H 0.96994 0.56754 0.2397 0.0
H36 H 0.24842 0.61827 0.33629 0.0
H37 H 0.15482 0.55463 0.35695 0.0
H38 H 0.19334 0.7074 0.25867 0.0
H39 H 0.09994 0.64497 0.28071 0.0
H40 H 0.15336 0.66421 0.47765 0.0
H41 H 0.09757 0.63937 0.41272 0.0
H42 H 0.12886 0.50098 0.48459 0.0
H43 H 0.07151 0.47594 0.42041 0.0
N44 N 0.99015 0.51049 0.38162 0.0
N45 N 0.02524 0.53984 0.3005 0.0
C46 C 0.3491 0.81295 0.51702 0.0
C47 C 0.35841 0.79299 0.55506 0.0
C48 C 0.38524 0.86616 0.50381 0.0
C49 C 0.4332 0.89944 0.52709 0.0
C50 C 0.40494 0.8264 0.57935 0.0
C51 C 0.44236 0.879 0.56523 0.0
C52 C 0.47017 0.95742 0.51503 0.0
C53 C 0.4637 0.86477 0.39704 0.0
C54 C 0.43775 0.87327 0.36208 0.0
C55 C 0.47748 0.89819 0.43307 0.0
C56 C 0.46533 0.94052 0.43478 0.0
C57 C 0.42652 0.9162 0.36363 0.0
C58 C 0.44052 0.94968 0.39946 0.0
C59 C 0.47973 0.97657 0.47251 0.0
C60 C 0.60612 0.22357 0.49089 0.0
C61 C 0.57666 0.23454 0.46021 0.0
C62 C 0.58889 0.16984 0.50335 0.0
C63 C 0.54111 0.12625 0.4861 0.0
C64 C 0.52953 0.19095 0.44243 0.0
C65 C 0.51191 0.13743 0.45532 0.0
C66 C 0.52169 0.06854 0.49766 0.0
C67 C 0.52704 0.14234 0.62946 0.0
C68 C 0.57354 0.14997 0.65155 0.0
C69 C 0.5096 0.11083 0.59238 0.0
C70 C 0.53793 0.08584 0.57722 0.0
C71 C 0.60211 0.12528 0.63601 0.0
C72 C 0.58389 0.09272 0.59946 0.0
C73 C 0.51785 0.04961 0.53985 0.0
H74 H 0.31283 0.78798 0.49824 0.0
H75 H 0.37449 0.8814 0.47602 0.0
H76 H 0.41273 0.81153 0.60885 0.0
H77 H 0.4782 0.90396 0.58443 0.0
H78 H 0.47302 0.83212 0.39668 0.0
H79 H 0.49771 0.89106 0.45954 0.0
H80 H 0.40674 0.92391 0.33714 0.0
H81 H 0.43114 0.98231 0.39985 0.0
H82 H 0.6431 0.25644 0.50469 0.0
H83 H 0.61367 0.16258 0.52566 0.0
H84 H 0.50605 0.19818 0.41871 0.0
H85 H 0.47512 0.10459 0.44123 0.0
H86 H 0.50445 0.16124 0.64059 0.0
H87 H 0.47369 0.10539 0.57584 0.0
H88 H 0.638 0.13048 0.65242 0.0
H89 H 0.60586 0.07316 0.58833 0.0
N90 N 0.49128 0.9949 0.54692 0.0
N91 N 0.50354 0.0312 0.46568 0.0
C92 C 0.61496 0.47257 0.56176 0.0
C93 C 0.58088 0.4483 0.52628 0.0
C94 C 0.59538 0.48563 0.59794 0.0
C95 C 0.54133 0.47429 0.59927 0.0
C96 C 0.52716 0.43781 0.52751 0.0
C97 C 0.50772 0.45095 0.56351 0.0
C98 C 0.51989 0.48901 0.63663 0.0
C99 C 0.54905 0.35695 0.68329 0.0
C100 C 0.57834 0.36626 0.72135 0.0
C101 C 0.53297 0.39354 0.66955 0.0
C102 C 0.54851 0.44192 0.69235 0.0
C103 C 0.59208 0.41312 0.74531 0.0
C104 C 0.57772 0.45094 0.7307 0.0
C105 C 0.52869 0.47946 0.67946 0.0
C106 C 0.39769 0.53976 0.78732 0.0
C107 C 0.43699 0.58337 0.8119 0.0
C108 C 0.4129 0.52218 0.75119 0.0
C109 C 0.46769 0.54751 0.73945 0.0
C110 C 0.49175 0.60902 0.79975 0.0
C111 C 0.50706 0.5907 0.76409 0.0
C112 C 0.48463 0.52748 0.70282 0.0
C113 C 0.40385 0.61818 0.65094 0.0
C114 C 0.36135 0.58702 0.62212 0.0
C115 C 0.43992 0.6008 0.6635 0.0
C116 C 0.43348 0.55149 0.64794 0.0
C117 C 0.35586 0.5385 0.60578 0.0
C118 C 0.39163 0.52098 0.61855 0.0
C119 C 0.47064 0.53151 0.66035 0.0
H120 H 0.65659 0.48118 0.56165 0.0
H121 H 0.62252 0.50484 0.62473 0.0
H122 H 0.49992 0.41918 0.50068 0.0
H123 H 0.46604 0.44224 0.56357 0.0
H124 H 0.53728 0.32048 0.6647 0.0
H125 H 0.50722 0.38291 0.64163 0.0
H126 H 0.61479 0.421 0.77478 0.0
H127 H 0.58912 0.4871 0.74957 0.0
H128 H 0.35514 0.51938 0.79591 0.0
H129 H 0.38209 0.48841 0.73273 0.0
H130 H 0.52283 0.64257 0.81821 0.0
H131 H 0.54961 0.61038 0.75558 0.0
H132 H 0.40933 0.65609 0.66376 0.0
H133 H 0.473 0.62617 0.68494 0.0
H134 H 0.32355 0.51371 0.58352 0.0
H135 H 0.38614 0.48303 0.60579 0.0
N136 N 0.48985 0.51316 0.62897 0.0
N137 N 0.51218 0.50075 0.71078 0.0
C138 C 0.80754 0.35342 0.82653 0.0
C139 C 0.78763 0.36419 0.78907 0.0
C140 C 0.86057 0.38892 0.84012 0.0
C141 C 0.89391 0.43767 0.81784 0.0
C142 C 0.82123 0.41133 0.76551 0.0
C143 C 0.87384 0.44809 0.78003 0.0
C144 C 0.95143 0.47432 0.83085 0.0
C145 C 0.85942 0.46777 0.94892 0.0
C146 C 0.86754 0.44135 0.98376 0.0
C147 C 0.89213 0.48074 0.9128 0.0
C148 C 0.93338 0.46736 0.91093 0.0
C149 C 0.90911 0.42847 0.98192 0.0
C150 C 0.94194 0.44172 0.94601 0.0
C151 C 0.9697 0.48239 0.87367 0.0
C152 C 0.21444 0.6149 0.86097 0.0
C153 C 0.22665 0.58285 0.88812 0.0
C154 C 0.16086 0.59665 0.84826 0.0
C155 C 0.11873 0.54579 0.86214 0.0
C156 C 0.18433 0.53247 0.90256 0.0
C157 C 0.13086 0.51423 0.88979 0.0
C158 C 0.06148 0.52543 0.84996 0.0
C159 C 0.14396 0.53824 0.72307 0.0
C160 C 0.14733 0.58155 0.69862 0.0
C161 C 0.11116 0.51984 0.75918 0.0
C162 C 0.08073 0.54401 0.77107 0.0
C163 C 0.11729 0.60611 0.71093 0.0
C164 C 0.08365 0.58695 0.7466 0.0
C165 C 0.04358 0.52286 0.80761 0.0
H166 H 0.78244 0.31667 0.84475 0.0
H167 H 0.87552 0.37719 0.86754 0.0
H168 H 0.80644 0.42027 0.73648 0.0
H169 H 0.89895 0.48457 0.76155 0.0
H170 H 0.82773 0.47827 0.94949 0.0
H171 H 0.88554 0.50165 0.88653 0.0
H172 H 0.9164 0.4082 1.0083 0.0
H173 H 0.97379 0.43141 0.94546 0.0
H174 H 0.24628 0.65414 0.84955 0.0
H175 H 0.15239 0.62257 0.82805 0.0
H176 H 0.19252 0.50695 0.92351 0.0
H177 H 0.0989 0.47504 0.90122 0.0
H178 H 0.16686 0.51869 0.71437 0.0
H179 H 0.1089 0.48625 0.77746 0.0
H180 H 0.11904 0.63941 0.69258 0.0
H181 H 0.06002 0.60575 0.75522 0.0
N182 N 0.9893 0.4965 0.7996 0.0
N183 N 0.02387 0.50611 0.88135 0.0
C184 C 0.4704 0.81495 0.99253 0.0
C185 C 0.44009 0.79435 0.955 0.0
C186 C 0.48635 0.86775 1.00603 0.0
C187 C 0.46968 0.89996 0.98355 0.0
C188 C 0.42509 0.82685 0.93142 0.0
C189 C 0.43934 0.87906 0.9458 0.0
C190 C 0.4894 0.9575 0.99602 0.0
C191 C 0.40465 0.86257 0.11378 0.0
C192 C 0.43932 0.87125 0.14862 0.0
C193 C 0.42387 0.89636 0.07787 0.0
C194 C 0.47812 0.93933 0.07617 0.0
C195 C 0.49333 0.91462 0.14698 0.0
C196 C 0.51237 0.94852 0.1113 0.0
C197 C 0.49917 0.97606 0.03868 0.0
C198 C 0.61641 0.22287 0.02279 0.0
C199 C 0.65924 0.23422 0.0512 0.0
C200 C 0.57993 0.16913 1.01032 0.0
C201 C 0.5862 0.12595 0.02558 0.0
C202 C 0.66506 0.19095 0.06676 0.0
C203 C 0.62886 0.1374 0.05411 0.0
C204 C 0.54789 0.06834 0.01405 0.0
C205 C 0.61477 0.1428 0.88192 0.0
C206 C 0.57582 0.15094 0.86049 0.0
C207 C 0.6011 0.11124 0.91897 0.0
C208 C 0.54809 0.08669 0.93481 0.0
C209 C 0.52291 0.12686 0.8768 0.0
C210 C 0.50895 0.09426 0.91336 0.0
C211 C 0.5323 0.0499 0.97186 0.0
H212 H 0.48309 0.79073 1.01081 0.0
H213 H 0.5129 0.88351 0.03348 0.0
H214 H 0.40152 0.81149 0.90236 0.0
H215 H 0.427 0.90332 0.9272 0.0
H216 H 0.36278 0.82959 0.11421 0.0
H217 H 0.39629 0.88912 0.05154 0.0
H218 H 0.52101 0.92252 0.17337 0.0
H219 H 0.55422 0.98158 0.11092 0.0
H220 H 0.61063 0.25543 1.0106 0.0
H221 H 0.54634 0.16143 0.98954 0.0
H222 H 0.69759 0.19841 0.08871 0.0
H223 H 0.63439 0.10477 0.06655 0.0
H224 H 0.656 0.16122 0.87023 0.0
H225 H 0.6316 0.10527 0.9349 0.0
H226 H 0.49217 0.13247 0.86092 0.0
H227 H 0.46765 0.07503 0.92501 0.0
N228 N 0.50482 0.99528 0.9644 0.0
N229 N 0.52957 0.03067 0.04585 0.0
C230 C 0.49029 0.67871 0.20859 0.0
C231 C 0.4359 0.65996 0.21907 0.0
C232 C 0.50608 0.64207 0.1946 0.0
C233 C 0.46801 0.58609 0.19178 0.0
C234 C 0.39765 0.60389 0.21583 0.0
C235 C 0.41387 0.56699 0.20307 0.0
C236 C 0.48682 0.54817 0.17999 0.0
C237 C 0.40509 0.55725 0.05907 0.0
C238 C 0.44055 0.58473 0.02522 0.0
C239 C 0.42422 0.54486 0.09616 0.0
C240 C 0.47927 0.56014 0.10028 0.0
C241 C 0.49556 0.59987 0.02934 0.0
C242 C 0.51463 0.58741 0.06638 0.0
C243 C 0.49891 0.54254 0.13753 0.0
C244 C 0.61532 0.41383 0.15302 0.0
C245 C 0.65902 0.4464 0.12594 0.0
C246 C 0.57891 0.43077 0.16495 0.0
C247 C 0.58619 0.48099 0.15054 0.0
C248 C 0.66572 0.49616 0.11105 0.0
C249 C 0.6296 0.51322 0.1232 0.0
C250 C 0.54824 0.50006 0.162 0.0
C251 C 0.62067 0.4898 0.28911 0.0
C252 C 0.5823 0.44423 0.31237 0.0
C253 C 0.60462 0.50812 0.25351 0.0
C254 C 0.54985 0.48163 0.24095 0.0
C255 C 0.52756 0.41741 0.29939 0.0
C256 C 0.51137 0.43645 0.26427 0.0
C257 C 0.53233 0.50172 0.20418 0.0
H258 H 0.52043 0.72175 0.21067 0.0
H259 H 0.54827 0.65729 0.18656 0.0
H260 H 0.35549 0.58851 0.22398 0.0
H261 H 0.38425 0.52375 0.20179 0.0
H262 H 0.36244 0.54491 0.05679 0.0
H263 H 0.39554 0.52172 0.12095 0.0
H264 H 0.52394 0.62119 1.00386 0.0
H265 H 0.55708 0.5989 0.06848 0.0
H266 H 0.60888 0.37497 0.16463 0.0
H267 H 0.54474 0.40425 0.18485 0.0
H268 H 0.69895 0.52202 0.09009 0.0
H269 H 0.63581 0.55196 0.11142 0.0
H270 H 0.66315 0.51123 0.29838 0.0
H271 H 0.63481 0.54329 0.23603 0.0
H272 H 0.49713 0.3824 0.31686 0.0
H273 H 0.46887 0.41567 0.25507 0.0
N274 N 0.5032 0.52684 0.21173 0.0
N275 N 0.53018 0.51977 0.1303 0.0
In276 In 0.63126 0.39474 0.42156 0.0
O277 O 0.7215 0.45747 0.41779 0.0
O278 O 0.69443 0.37812 0.39237 0.0
C279 C 0.60009 0.43202 0.48858 0.0
C280 C 0.59934 0.42592 0.35059 0.0
C281 C 0.59537 0.29112 0.44648 0.0
O282 O 0.64808 0.44131 0.48473 0.0
O283 O 0.56876 0.40549 0.4583 0.0
O284 O 0.57683 0.30252 0.41378 0.0
O285 O 0.63176 0.33189 0.46639 0.0
C286 C 0.73374 0.42551 0.39947 0.0
O287 O 0.57119 0.37901 0.3668 0.0
O288 O 0.64315 0.45664 0.37004 0.0
In289 In 0.24828 0.63426 0.59209 0.0
O290 O 0.28506 0.57967 0.58262 0.0
O291 O 0.32216 0.64422 0.6278 0.0
C292 C 0.17942 0.59979 0.52493 0.0
C293 C 0.18182 0.60038 0.66038 0.0
C294 C 0.31966 0.73717 0.56875 0.0
O295 O 0.20408 0.57533 0.53698 0.0
O296 O 0.18818 0.64019 0.54751 0.0
O297 O 0.30376 0.72501 0.60674 0.0
O298 O 0.29942 0.69788 0.54287 0.0
C299 C 0.32216 0.60438 0.61011 0.0
O300 O 0.19809 0.64645 0.64333 0.0
O301 O 0.19806 0.57155 0.64254 0.0
In302 In 0.62708 0.25532 0.75565 0.0
O303 O 0.71692 0.31139 0.7381 0.0
O304 O 0.69364 0.30614 0.80288 0.0
C305 C 0.59239 0.18458 0.69002 0.0
C306 C 0.59119 0.18521 0.8218 0.0
C307 C 0.59568 0.32762 0.73463 0.0
O308 O 0.64107 0.20776 0.70326 0.0
O309 O 0.56135 0.19549 0.7109 0.0
O310 O 0.59477 0.31272 0.7727 0.0
O311 O 0.61186 0.30609 0.70795 0.0
C312 C 0.73126 0.32668 0.77604 0.0
O313 O 0.56577 0.20846 0.80857 0.0
O314 O 0.63284 0.19571 0.80064 0.0
In315 In 0.38791 0.63438 0.91876 0.0
O316 O 0.2968 0.57421 0.9245 0.0
O317 O 0.32256 0.64531 0.88648 0.0
C318 C 0.42084 0.59909 0.98632 0.0
C319 C 0.42066 0.60155 0.85013 0.0
C320 C 0.423 0.73843 0.94155 0.0
O321 O 0.37199 0.58727 0.98127 0.0
O322 O 0.45235 0.62685 0.95653 0.0
O323 O 0.42067 0.72469 0.9031 0.0
O324 O 0.40863 0.70029 0.96808 0.0
C325 C 0.28341 0.60147 0.90045 0.0
O326 O 0.44997 0.64776 0.86713 0.0
O327 O 0.37574 0.57196 0.86813 0.0
In328 In 0.76598 0.39444 0.08959 0.0
O329 O 0.79779 0.38009 0.15251 0.0
O330 O 0.83329 0.46162 0.12973 0.0
C331 C 0.69729 0.29081 0.06489 0.0
C332 C 0.69715 0.42834 0.11301 0.0
C333 C 0.83243 0.42628 0.02163 0.0
O334 O 0.73363 0.3026 0.0929 0.0
O335 O 0.69575 0.33119 0.04953 0.0
O336 O 0.79703 0.44015 0.02655 0.0
O337 O 0.8348 0.39736 0.05126 0.0
C338 C 0.8319 0.42998 0.15869 0.0
O339 O 0.73413 0.45376 0.08591 0.0
O340 O 0.69508 0.38606 0.12816 0.0
In341 In 0.38738 0.77013 0.25609 0.0
O342 O 0.45056 0.74302 0.25169 0.0
O343 O 0.37185 0.69059 0.22585 0.0
C344 C 0.42133 0.83722 0.32437 0.0
C345 C 0.42 0.83537 0.1865 0.0
C346 C 0.28451 0.70496 0.28203 0.0
O347 O 0.43317 0.80015 0.31961 0.0
O348 O 0.39319 0.84058 0.29462 0.0
O349 O 0.29644 0.73963 0.2525 0.0
O350 O 0.32444 0.70356 0.29833 0.0
C351 C 0.419 0.69881 0.23277 0.0
O352 O 0.37099 0.79876 0.19195 0.0
O353 O 0.45181 0.83894 0.21604 0.0
loop_
_geom_bond_atom_site_label_1
_geom_bond_atom_site_label_2
_geom_bond_distance
_geom_bond_site_symmetry_2
_ccdc_geom_bond_type
C0 C1 1.384 . S
C0 C2 1.384 . S
C0 H28 0.931 . S
C1 C0 1.384 . S
C1 C4 1.382 . S
C2 C0 1.384 . S
C2 C3 1.381 . S
C2 H29 0.930 . S
C3 C2 1.381 . S
C3 C5 1.381 . S
C3 C6 1.487 . S
C4 C1 1.382 . S
C4 C5 1.387 . S
C4 H30 0.930 . S
C5 C3 1.381 . S
C5 C4 1.387 . S
C5 H31 0.931 . S
C6 C3 1.487 . S
C6 C13 1.399 . S
C6 N44 1.343 . S
C7 C8 1.384 . S
C7 C9 1.384 . S
C7 H32 0.931 . S
C8 C7 1.384 . S
C8 C11 1.382 . S
C9 C7 1.384 . S
C9 C10 1.381 . S
C9 H33 0.930 . S
C10 C9 1.381 . S
C10 C12 1.381 . S
C10 C13 1.487 . S
C11 C8 1.382 . S
C11 C12 1.387 . S
C11 H34 0.930 . S
C12 C10 1.381 . S
C12 C11 1.387 . S
C12 H35 0.931 . S
C13 C6 1.399 . S
C13 C10 1.487 . S
C13 N45 1.343 1_655 S
C14 C15 1.384 . S
C14 C16 1.384 . S
C14 H36 0.931 . S
C15 C14 1.384 . S
C15 C18 1.382 . S
C16 C14 1.384 . S
C16 C17 1.381 . S
C16 H37 0.930 . S
C17 C16 1.381 . S
C17 C19 1.381 . S
C17 C20 1.487 . S
C18 C15 1.382 . S
C18 C19 1.387 . S
C18 H38 0.930 . S
C19 C17 1.381 . S
C19 C18 1.387 . S
C19 H39 0.931 . S
C20 C17 1.487 . S
C20 C27 1.399 . S
C20 N45 1.343 . S
C21 C22 1.384 . S
C21 C23 1.384 . S
C21 H40 0.931 . S
C22 C21 1.384 . S
C22 C25 1.382 . S
C23 C21 1.384 . S
C23 C24 1.381 . S
C23 H41 0.930 . S
C24 C23 1.381 . S
C24 C26 1.381 . S
C24 C27 1.487 . S
C25 C22 1.382 . S
C25 C26 1.387 . S
C25 H42 0.930 . S
C26 C24 1.381 . S
C26 C25 1.387 . S
C26 H43 0.931 . S
C27 C20 1.399 . S
C27 C24 1.487 . S
C27 N44 1.343 1_455 S
H28 C0 0.931 . S
H29 C2 0.930 . S
H30 C4 0.930 . S
H31 C5 0.931 . S
H32 C7 0.931 . S
H33 C9 0.930 . S
H34 C11 0.930 . S
H35 C12 0.931 . S
H36 C14 0.931 . S
H37 C16 0.930 . S
H38 C18 0.930 . S
H39 C19 0.931 . S
H40 C21 0.931 . S
H41 C23 0.930 . S
H42 C25 0.930 . S
H43 C26 0.931 . S
N44 C6 1.343 . S
N44 C27 1.343 1_655 S
N45 C13 1.343 1_455 S
N45 C20 1.343 . S
C46 C47 1.384 . S
C46 C48 1.384 . S
C46 H74 0.931 . S
C47 C46 1.384 . S
C47 C50 1.382 . S
C48 C46 1.384 . S
C48 C49 1.381 . S
C48 H75 0.930 . S
C49 C48 1.381 . S
C49 C51 1.381 . S
C49 C52 1.487 . S
C50 C47 1.382 . S
C50 C51 1.387 . S
C50 H76 0.930 . S
C51 C49 1.381 . S
C51 C50 1.387 . S
C51 H77 0.931 . S
C52 C49 1.487 . S
C52 C59 1.399 . S
C52 N90 1.352 . S
C53 C54 1.384 . S
C53 C55 1.384 . S
C53 H78 0.931 . S
C54 C53 1.384 . S
C54 C57 1.382 . S
C55 C53 1.384 . S
C55 C56 1.381 . S
C55 H79 0.930 . S
C56 C55 1.381 . S
C56 C58 1.381 . S
C56 C59 1.487 . S
C57 C54 1.382 . S
C57 C58 1.387 . S
C57 H80 0.930 . S
C58 C56 1.381 . S
C58 C57 1.387 . S
C58 H81 0.931 . S
C59 C52 1.399 . S
C59 C56 1.487 . S
C59 N91 1.343 1_565 S
C60 C61 1.384 . S
C60 C62 1.384 . S
C60 H82 0.931 . S
C61 C60 1.384 . S
C61 C64 1.382 . S
C62 C60 1.384 . S
C62 C63 1.381 . S
C62 H83 0.930 . S
C63 C62 1.381 . S
C63 C65 1.381 . S
C63 C66 1.487 . S
C64 C61 1.382 . S
C64 C65 1.387 . S
C64 H84 0.930 . S
C65 C63 1.381 . S
C65 C64 1.387 . S
C65 H85 0.931 . S
C66 C63 1.487 . S
C66 C73 1.399 . S
C66 N91 1.343 . S
C67 C68 1.384 . S
C67 C69 1.384 . S
C67 H86 0.931 . S
C68 C67 1.384 . S
C68 C71 1.382 . S
C69 C67 1.384 . S
C69 C70 1.381 . S
C69 H87 0.930 . S
C70 C69 1.381 . S
C70 C72 1.381 . S
C70 C73 1.487 . S
C71 C68 1.382 . S
C71 C72 1.387 . S
C71 H88 0.930 . S
C72 C70 1.381 . S
C72 C71 1.387 . S
C72 H89 0.931 . S
C73 C66 1.399 . S
C73 C70 1.487 . S
C73 N90 1.328 1_545 S
H74 C46 0.931 . S
H75 C48 0.930 . S
H76 C50 0.930 . S
H77 C51 0.931 . S
H78 C53 0.931 . S
H79 C55 0.930 . S
H80 C57 0.930 . S
H81 C58 0.931 . S
H82 C60 0.931 . S
H83 C62 0.930 . S
H84 C64 0.930 . S
H85 C65 0.931 . S
H86 C67 0.931 . S
H87 C69 0.930 . S
H88 C71 0.930 . S
H89 C72 0.931 . S
N90 C52 1.352 . S
N90 C73 1.328 1_565 S
N91 C59 1.343 1_545 S
N91 C66 1.343 . S
C92 C93 1.384 . S
C92 C94 1.384 . S
C92 H120 0.931 . S
C93 C92 1.384 . S
C93 C96 1.382 . S
C94 C92 1.384 . S
C94 C95 1.381 . S
C94 H121 0.930 . S
C95 C94 1.381 . S
C95 C97 1.381 . S
C95 C98 1.487 . S
C96 C93 1.382 . S
C96 C97 1.387 . S
C96 H122 0.930 . S
C97 C95 1.381 . S
C97 C96 1.387 . S
C97 H123 0.931 . S
C98 C95 1.487 . S
C98 C105 1.399 . S
C98 N136 1.343 . S
C99 C100 1.384 . S
C99 C101 1.384 . S
C99 H124 0.931 . S
C100 C99 1.384 . S
C100 C103 1.382 . S
C101 C99 1.384 . S
C101 C102 1.381 . S
C101 H125 0.930 . S
C102 C101 1.381 . S
C102 C104 1.381 . S
C102 C105 1.487 . S
C103 C100 1.382 . S
C103 C104 1.387 . S
C103 H126 0.930 . S
C104 C102 1.381 . S
C104 C103 1.387 . S
C104 H127 0.931 . S
C105 C98 1.399 . S
C105 C102 1.487 . S
C105 N137 1.343 . S
C106 C107 1.384 . S
C106 C108 1.384 . S
C106 H128 0.931 . S
C107 C106 1.384 . S
C107 C110 1.382 . S
C108 C106 1.384 . S
C108 C109 1.381 . S
C108 H129 0.930 . S
C109 C108 1.381 . S
C109 C111 1.381 . S
C109 C112 1.487 . S
C110 C107 1.382 . S
C110 C111 1.387 . S
C110 H130 0.930 . S
C111 C109 1.381 . S
C111 C110 1.387 . S
C111 H131 0.931 . S
C112 C109 1.487 . S
C112 C119 1.399 . S
C112 N137 1.343 . S
C113 C114 1.384 . S
C113 C115 1.384 . S
C113 H132 0.931 . S
C114 C113 1.384 . S
C114 C117 1.382 . S
C115 C113 1.384 . S
C115 C116 1.381 . S
C115 H133 0.930 . S
C116 C115 1.381 . S
C116 C118 1.381 . S
C116 C119 1.487 . S
C117 C114 1.382 . S
C117 C118 1.387 . S
C117 H134 0.930 . S
C118 C116 1.381 . S
C118 C117 1.387 . S
C118 H135 0.931 . S
C119 C112 1.399 . S
C119 C116 1.487 . S
C119 N136 1.343 . S
H120 C92 0.931 . S
H121 C94 0.930 . S
H122 C96 0.930 . S
H123 C97 0.931 . S
H124 C99 0.931 . S
H125 C101 0.930 . S
H126 C103 0.930 . S
H127 C104 0.931 . S
H128 C106 0.931 . S
H129 C108 0.930 . S
H130 C110 0.930 . S
H131 C111 0.931 . S
H132 C113 0.931 . S
H133 C115 0.930 . S
H134 C117 0.930 . S
H135 C118 0.931 . S
N136 C98 1.343 . S
N136 C119 1.343 . S
N137 C105 1.343 . S
N137 C112 1.343 . S
C138 C139 1.384 . S
C138 C140 1.384 . S
C138 H166 0.931 . S
C139 C138 1.384 . S
C139 C142 1.382 . S
C140 C138 1.384 . S
C140 C141 1.381 . S
C140 H167 0.930 . S
C141 C140 1.381 . S
C141 C143 1.381 . S
C141 C144 1.487 . S
C142 C139 1.382 . S
C142 C143 1.387 . S
C142 H168 0.930 . S
C143 C141 1.381 . S
C143 C142 1.387 . S
C143 H169 0.931 . S
C144 C141 1.487 . S
C144 C151 1.399 . S
C144 N182 1.343 . S
C145 C146 1.384 . S
C145 C147 1.384 . S
C145 H170 0.931 . S
C146 C145 1.384 . S
C146 C149 1.382 . S
C147 C145 1.384 . S
C147 C148 1.381 . S
C147 H171 0.930 . S
C148 C147 1.381 . S
C148 C150 1.381 . S
C148 C151 1.487 . S
C149 C146 1.382 . S
C149 C150 1.387 . S
C149 H172 0.930 . S
C150 C148 1.381 . S
C150 C149 1.387 . S
C150 H173 0.931 . S
C151 C144 1.399 . S
C151 C148 1.487 . S
C151 N183 1.343 1_655 S
C152 C153 1.384 . S
C152 C154 1.384 . S
C152 H174 0.931 . S
C153 C152 1.384 . S
C153 C156 1.382 . S
C154 C152 1.384 . S
C154 C155 1.381 . S
C154 H175 0.930 . S
C155 C154 1.381 . S
C155 C157 1.381 . S
C155 C158 1.487 . S
C156 C153 1.382 . S
C156 C157 1.387 . S
C156 H176 0.930 . S
C157 C155 1.381 . S
C157 C156 1.387 . S
C157 H177 0.931 . S
C158 C155 1.487 . S
C158 C165 1.399 . S
C158 N183 1.343 . S
C159 C160 1.384 . S
C159 C161 1.384 . S
C159 H178 0.931 . S
C160 C159 1.384 . S
C160 C163 1.382 . S
C161 C159 1.384 . S
C161 C162 1.381 . S
C161 H179 0.930 . S
C162 C161 1.381 . S
C162 C164 1.381 . S
C162 C165 1.487 . S
C163 C160 1.382 . S
C163 C164 1.387 . S
C163 H180 0.930 . S
C164 C162 1.381 . S
C164 C163 1.387 . S
C164 H181 0.931 . S
C165 C158 1.399 . S
C165 C162 1.487 . S
C165 N182 1.343 1_455 S
H166 C138 0.931 . S
H167 C140 0.930 . S
H168 C142 0.930 . S
H169 C143 0.931 . S
H170 C145 0.931 . S
H171 C147 0.930 . S
H172 C149 0.930 . S
H173 C150 0.931 . S
H174 C152 0.931 . S
H175 C154 0.930 . S
H176 C156 0.930 . S
H177 C157 0.931 . S
H178 C159 0.931 . S
H179 C161 0.930 . S
H180 C163 0.930 . S
H181 C164 0.931 . S
N182 C144 1.343 . S
N182 C165 1.343 1_655 S
N183 C151 1.343 1_455 S
N183 C158 1.343 . S
C184 C185 1.384 . S
C184 C186 1.384 . S
C184 H212 0.931 . S
C185 C184 1.384 . S
C185 C188 1.382 . S
C186 C184 1.384 . S
C186 C187 1.381 . S
C186 H213 0.930 1_556 S
C187 C186 1.381 . S
C187 C189 1.381 . S
C187 C190 1.487 . S
C188 C185 1.382 . S
C188 C189 1.387 . S
C188 H214 0.930 . S
C189 C187 1.381 . S
C189 C188 1.387 . S
C189 H215 0.931 . S
C190 C187 1.487 . S
C190 C197 1.399 1_556 S
C190 N228 1.354 . S
C191 C192 1.384 . S
C191 C193 1.384 . S
C191 H216 0.931 . S
C192 C191 1.384 . S
C192 C195 1.382 . S
C193 C191 1.384 . S
C193 C194 1.381 . S
C193 H217 0.930 . S
C194 C193 1.381 . S
C194 C196 1.381 . S
C194 C197 1.487 . S
C195 C192 1.382 . S
C195 C196 1.387 . S
C195 H218 0.930 . S
C196 C194 1.381 . S
C196 C195 1.387 . S
C196 H219 0.931 . S
C197 C190 1.399 1_554 S
C197 C194 1.487 . S
C197 N229 1.343 1_565 S
C198 C199 1.384 . S
C198 C200 1.384 1_554 S
C198 H220 0.931 . S
C199 C198 1.384 . S
C199 C202 1.382 . S
C200 C198 1.384 1_556 S
C200 C201 1.381 1_556 S
C200 H221 0.930 . S
C201 C200 1.381 1_554 S
C201 C203 1.381 . S
C201 C204 1.487 . S
C202 C199 1.382 . S
C202 C203 1.387 . S
C202 H222 0.930 . S
C203 C201 1.381 . S
C203 C202 1.387 . S
C203 H223 0.931 . S
C204 C201 1.487 . S
C204 C211 1.399 1_554 S
C204 N229 1.343 . S
C205 C206 1.384 . S
C205 C207 1.384 . S
C205 H224 0.931 . S
C206 C205 1.384 . S
C206 C209 1.382 . S
C207 C205 1.384 . S
C207 C208 1.381 . S
C207 H225 0.930 . S
C208 C207 1.381 . S
C208 C210 1.381 . S
C208 C211 1.487 . S
C209 C206 1.382 . S
C209 C210 1.387 . S
C209 H226 0.930 . S
C210 C208 1.381 . S
C210 C209 1.387 . S
C210 H227 0.931 . S
C211 C204 1.399 1_556 S
C211 C208 1.487 . S
C211 N228 1.327 1_545 S
H212 C184 0.931 . S
H213 C186 0.930 1_554 S
H214 C188 0.930 . S
H215 C189 0.931 . S
H216 C191 0.931 . S
H217 C193 0.930 . S
H218 C195 0.930 . S
H219 C196 0.931 . S
H220 C198 0.931 . S
H221 C200 0.930 . S
H222 C202 0.930 . S
H223 C203 0.931 . S
H224 C205 0.931 . S
H225 C207 0.930 . S
H226 C209 0.930 . S
H227 C210 0.931 . S
N228 C190 1.354 . S
N228 C211 1.327 1_565 S
N229 C197 1.343 1_545 S
N229 C204 1.343 . S
C230 C231 1.384 . S
C230 C232 1.384 . S
C230 H258 0.931 . S
C231 C230 1.384 . S
C231 C234 1.382 . S
C232 C230 1.384 . S
C232 C233 1.381 . S
C232 H259 0.930 . S
C233 C232 1.381 . S
C233 C235 1.381 . S
C233 C236 1.487 . S
C234 C231 1.382 . S
C234 C235 1.387 . S
C234 H260 0.930 . S
C235 C233 1.381 . S
C235 C234 1.387 . S
C235 H261 0.931 . S
C236 C233 1.487 . S
C236 C243 1.399 . S
C236 N274 1.343 . S
C237 C238 1.384 . S
C237 C239 1.384 . S
C237 H262 0.931 . S
C238 C237 1.384 . S
C238 C241 1.382 . S
C239 C237 1.384 . S
C239 C240 1.381 . S
C239 H263 0.930 . S
C240 C239 1.381 . S
C240 C242 1.381 . S
C240 C243 1.487 . S
C241 C238 1.382 . S
C241 C242 1.387 . S
C241 H264 0.930 . S
C242 C240 1.381 . S
C242 C241 1.387 . S
C242 H265 0.931 . S
C243 C236 1.399 . S
C243 C240 1.487 . S
C243 N275 1.343 . S
C244 C245 1.384 . S
C244 C246 1.384 . S
C244 H266 0.931 . S
C245 C244 1.384 . S
C245 C248 1.382 . S
C246 C244 1.384 . S
C246 C247 1.381 . S
C246 H267 0.930 . S
C247 C246 1.381 . S
C247 C249 1.381 . S
C247 C250 1.487 . S
C248 C245 1.382 . S
C248 C249 1.387 . S
C248 H268 0.930 . S
C249 C247 1.381 . S
C249 C248 1.387 . S
C249 H269 0.931 . S
C250 C247 1.487 . S
C250 C257 1.399 . S
C250 N275 1.343 . S
C251 C252 1.384 . S
C251 C253 1.384 . S
C251 H270 0.931 . S
C252 C251 1.384 . S
C252 C255 1.382 . S
C253 C251 1.384 . S
C253 C254 1.381 . S
C253 H271 0.930 . S
C254 C253 1.381 . S
C254 C256 1.381 . S
C254 C257 1.487 . S
C255 C252 1.382 . S
C255 C256 1.387 . S
C255 H272 0.930 . S
C256 C254 1.381 . S
C256 C255 1.387 . S
C256 H273 0.931 . S
C257 C250 1.399 . S
C257 C254 1.487 . S
C257 N274 1.343 . S
H258 C230 0.931 . S
H259 C232 0.930 . S
H260 C234 0.930 . S
H261 C235 0.931 . S
H262 C237 0.931 . S
H263 C239 0.930 . S
H264 C241 0.930 . S
H265 C242 0.931 . S
H266 C244 0.931 . S
H267 C246 0.930 . S
H268 C248 0.930 . S
H269 C249 0.931 . S
H270 C251 0.931 . S
H271 C253 0.930 . S
H272 C255 0.930 . S
H273 C256 0.931 . S
N274 C236 1.343 . S
N274 C257 1.343 . S
N275 C243 1.343 . S
N275 C250 1.343 . S
In276 O277 2.294 . S
In276 O278 2.326 . S
In276 O282 2.266 . S
In276 O283 2.326 . S
In276 O284 2.266 . S
In276 O285 2.326 . S
In276 O287 2.294 . S
In276 O288 2.326 . S
O277 In276 2.294 . S
O277 C286 1.240 . S
O278 In276 2.326 . S
O278 C286 1.252 . S
C279 O282 1.252 . S
C279 O283 1.260 . S
C280 O287 1.240 . S
C280 O288 1.252 . S
C281 O284 1.252 . S
C281 O285 1.260 . S
O282 In276 2.266 . S
O282 C279 1.252 . S
O283 In276 2.326 . S
O283 C279 1.260 . S
O284 In276 2.266 . S
O284 C281 1.252 . S
O285 In276 2.326 . S
O285 C281 1.260 . S
C286 O277 1.240 . S
C286 O278 1.252 . S
O287 In276 2.294 . S
O287 C280 1.240 . S
O288 In276 2.326 . S
O288 C280 1.252 . S
In289 O290 2.294 . S
In289 O291 2.326 . S
In289 O295 2.266 . S
In289 O296 2.326 . S
In289 O297 2.266 . S
In289 O298 2.326 . S
In289 O300 2.294 . S
In289 O301 2.326 . S
O290 In289 2.294 . S
O290 C299 1.240 . S
O291 In289 2.326 . S
O291 C299 1.252 . S
C292 O295 1.252 . S
C292 O296 1.260 . S
C293 O300 1.240 . S
C293 O301 1.252 . S
C294 O297 1.252 . S
C294 O298 1.260 . S
O295 In289 2.266 . S
O295 C292 1.252 . S
O296 In289 2.326 . S
O296 C292 1.260 . S
O297 In289 2.266 . S
O297 C294 1.252 . S
O298 In289 2.326 . S
O298 C294 1.260 . S
C299 O290 1.240 . S
C299 O291 1.252 . S
O300 In289 2.294 . S
O300 C293 1.240 . S
O301 In289 2.326 . S
O301 C293 1.252 . S
In302 O303 2.294 . S
In302 O304 2.326 . S
In302 O308 2.266 . S
In302 O309 2.326 . S
In302 O310 2.266 . S
In302 O311 2.326 . S
In302 O313 2.294 . S
In302 O314 2.326 . S
O303 In302 2.294 . S
O303 C312 1.240 . S
O304 In302 2.326 . S
O304 C312 1.252 . S
C305 O308 1.252 . S
C305 O309 1.260 . S
C306 O313 1.240 . S
C306 O314 1.252 . S
C307 O310 1.252 . S
C307 O311 1.260 . S
O308 In302 2.266 . S
O308 C305 1.252 . S
O309 In302 2.326 . S
O309 C305 1.260 . S
O310 In302 2.266 . S
O310 C307 1.252 . S
O311 In302 2.326 . S
O311 C307 1.260 . S
C312 O303 1.240 . S
C312 O304 1.252 . S
O313 In302 2.294 . S
O313 C306 1.240 . S
O314 In302 2.326 . S
O314 C306 1.252 . S
In315 O316 2.294 . S
In315 O317 2.326 . S
In315 O321 2.266 . S
In315 O322 2.326 . S
In315 O323 2.266 . S
In315 O324 2.326 . S
In315 O326 2.294 . S
In315 O327 2.326 . S
O316 In315 2.294 . S
O316 C325 1.240 . S
O317 In315 2.326 . S
O317 C325 1.252 . S
C318 O321 1.252 . S
C318 O322 1.260 . S
C319 O326 1.240 . S
C319 O327 1.252 . S
C320 O323 1.252 . S
C320 O324 1.260 . S
O321 In315 2.266 . S
O321 C318 1.252 . S
O322 In315 2.326 . S
O322 C318 1.260 . S
O323 In315 2.266 . S
O323 C320 1.252 . S
O324 In315 2.326 . S
O324 C320 1.260 . S
C325 O316 1.240 . S
C325 O317 1.252 . S
O326 In315 2.294 . S
O326 C319 1.240 . S
O327 In315 2.326 . S
O327 C319 1.252 . S
In328 O329 2.294 . S
In328 O330 2.326 . S
In328 O334 2.266 . S
In328 O335 2.326 . S
In328 O336 2.266 . S
In328 O337 2.326 . S
In328 O339 2.294 . S
In328 O340 2.326 . S
O329 In328 2.294 . S
O329 C338 1.240 . S
O330 In328 2.326 . S
O330 C338 1.252 . S
C331 O334 1.252 . S
C331 O335 1.260 . S
C332 O339 1.240 . S
C332 O340 1.252 . S
C333 O336 1.252 . S
C333 O337 1.260 . S
O334 In328 2.266 . S
O334 C331 1.252 . S
O335 In328 2.326 . S
O335 C331 1.260 . S
O336 In328 2.266 . S
O336 C333 1.252 . S
O337 In328 2.326 . S
O337 C333 1.260 . S
C338 O329 1.240 . S
C338 O330 1.252 . S
O339 In328 2.294 . S
O339 C332 1.240 . S
O340 In328 2.326 . S
O340 C332 1.252 . S
In341 O342 2.294 . S
In341 O343 2.326 . S
In341 O347 2.266 . S
In341 O348 2.326 . S
In341 O349 2.266 . S
In341 O350 2.326 . S
In341 O352 2.294 . S
In341 O353 2.326 . S
O342 In341 2.294 . S
O342 C351 1.240 . S
O343 In341 2.326 . S
O343 C351 1.252 . S
C344 O347 1.252 . S
C344 O348 1.260 . S
C345 O352 1.240 . S
C345 O353 1.252 . S
C346 O349 1.252 . S
C346 O350 1.260 . S
O347 In341 2.266 . S
O347 C344 1.252 . S
O348 In341 2.326 . S
O348 C344 1.260 . S
O349 In341 2.266 . S
O349 C346 1.252 . S
O350 In341 2.326 . S
O350 C346 1.260 . S
C351 O342 1.240 . S
C351 O343 1.252 . S
O352 In341 2.294 . S
O352 C345 1.240 . S
O353 In341 2.326 . S
O353 C345 1.252 . S
C346 C15 1.629 . S
C61 C281 1.625 . S
C114 C299 1.635 . S
C139 C312 1.649 . S
C320 C185 1.662 . S
C245 C332 1.633 . S
C47 C294 1.650 . S
C100 C307 1.655 . S
C153 C325 1.633 . S
C331 C199 1.635 . S
C351 C231 1.649 . S
C286 C1 1.662 . S
C22 C292 1.689 . S
C68 C305 1.699 . S
C319 C107 1.686 . S
C146 C333 1.728 1_556 S
C345 C192 1.716 . S
C280 C252 1.685 . S
C344 C54 1.733 . S
C93 C279 1.723 . S
C293 C160 1.685 . S
C206 C306 1.683 . S
C238 C318 1.728 1_554 S
C8 C338 1.719 . S
