# Generated by pormake.
# Topology ptr, (4,4)-cn, num edge types: 1
# Building blocks:
#     Node 0, Type 0, BuildingBlock: AZAVOO_clean_sbu_0, # of connection points: 4
#     Node 1, Type 0, BuildingBlock: AZAVOO_clean_sbu_0, # of connection points: 4
#     Node 2, Type 0, BuildingBlock: AZAVOO_clean_sbu_0, # of connection points: 4
#     Node 3, Type 0, BuildingBlock: AZAVOO_clean_sbu_0, # of connection points: 4
#     Node 4, Type 0, BuildingBlock: AZAVOO_clean_sbu_0, # of connection points: 4
#     Node 5, Type 0, BuildingBlock: AZAVOO_clean_sbu_0, # of connection points: 4
#     Node 6, Type 0, BuildingBlock: AZAVOO_clean_sbu_0, # of connection points: 4
#     Node 7, Type 0, BuildingBlock: AZAVOO_clean_sbu_0, # of connection points: 4
#     Node 8, Type 0, BuildingBlock: AZAVOO_clean_sbu_0, # of connection points: 4
#     Node 9, Type 0, BuildingBlock: AZAVOO_clean_sbu_0, # of connection points: 4
#     Node 10, Type 0, BuildingBlock: AZAVOO_clean_sbu_0, # of connection points: 4
#     Node 11, Type 0, BuildingBlock: AZAVOO_clean_sbu_0, # of connection points: 4
#     Node 12, Type 0, BuildingBlock: AZAVOO_clean_sbu_0, # of connection points: 4
#     Node 13, Type 0, BuildingBlock: AZAVOO_clean_sbu_0, # of connection points: 4
#     Node 14, Type 0, BuildingBlock: AZAVOO_clean_sbu_0, # of connection points: 4
#     Node 15, Type 0, BuildingBlock: AZAVOO_clean_sbu_0, # of connection points: 4
#     Node 16, Type 0, BuildingBlock: AZAVOO_clean_sbu_0, # of connection points: 4
#     Node 17, Type 0, BuildingBlock: AZAVOO_clean_sbu_0, # of connection points: 4
#     Node 18, Type 1, BuildingBlock: NAWXER_clean_linker_0, # of connection points: 4
#     Node 19, Type 1, BuildingBlock: NAWXER_clean_linker_0, # of connection points: 4
#     Node 20, Type 1, BuildingBlock: NAWXER_clean_linker_0, # of connection points: 4
#     Node 21, Type 1, BuildingBlock: NAWXER_clean_linker_0, # of connection points: 4
#     Node 22, Type 1, BuildingBlock: NAWXER_clean_linker_0, # of connection points: 4
#     Node 23, Type 1, BuildingBlock: NAWXER_clean_linker_0, # of connection points: 4
#     Node 24, Type 1, BuildingBlock: NAWXER_clean_linker_0, # of connection points: 4
#     Node 25, Type 1, BuildingBlock: NAWXER_clean_linker_0, # of connection points: 4
#     Node 26, Type 1, BuildingBlock: NAWXER_clean_linker_0, # of connection points: 4
#     Node 27, Type 1, BuildingBlock: NAWXER_clean_linker_0, # of connection points: 4
#     Node 28, Type 1, BuildingBlock: NAWXER_clean_linker_0, # of connection points: 4
#     Node 29, Type 1, BuildingBlock: NAWXER_clean_linker_0, # of connection points: 4
#     Node 30, Type 1, BuildingBlock: NAWXER_clean_linker_0, # of connection points: 4
#     Node 31, Type 1, BuildingBlock: NAWXER_clean_linker_0, # of connection points: 4
#     Node 32, Type 1, BuildingBlock: NAWXER_clean_linker_0, # of connection points: 4
#     Node 33, Type 1, BuildingBlock: NAWXER_clean_linker_0, # of connection points: 4
#     Node 34, Type 1, BuildingBlock: NAWXER_clean_linker_0, # of connection points: 4
#     Node 35, Type 1, BuildingBlock: NAWXER_clean_linker_0, # of connection points: 4
#     Edge 36, Type (0, 1), BuildingBlock: AJUNOK_clean_linker_0, # of connection points: 2
#     Edge 37, Type (0, 1), BuildingBlock: AJUNOK_clean_linker_0, # of connection points: 2
#     Edge 38, Type (0, 1), BuildingBlock: AJUNOK_clean_linker_0, # of connection points: 2
#     Edge 39, Type (0, 1), BuildingBlock: AJUNOK_clean_linker_0, # of connection points: 2
#     Edge 40, Type (0, 1), BuildingBlock: AJUNOK_clean_linker_0, # of connection points: 2
#     Edge 41, Type (0, 1), BuildingBlock: AJUNOK_clean_linker_0, # of connection points: 2
#     Edge 42, Type (0, 1), BuildingBlock: AJUNOK_clean_linker_0, # of connection points: 2
#     Edge 43, Type (0, 1), BuildingBlock: AJUNOK_clean_linker_0, # of connection points: 2
#     Edge 44, Type (0, 1), BuildingBlock: AJUNOK_clean_linker_0, # of connection points: 2
#     Edge 45, Type (0, 1), BuildingBlock: AJUNOK_clean_linker_0, # of connection points: 2
#     Edge 46, Type (0, 1), BuildingBlock: AJUNOK_clean_linker_0, # of connection points: 2
#     Edge 47, Type (0, 1), BuildingBlock: AJUNOK_clean_linker_0, # of connection points: 2
#     Edge 48, Type (0, 1), BuildingBlock: AJUNOK_clean_linker_0, # of connection points: 2
#     Edge 49, Type (0, 1), BuildingBlock: AJUNOK_clean_linker_0, # of connection points: 2
#     Edge 50, Type (0, 1), BuildingBlock: AJUNOK_clean_linker_0, # of connection points: 2
#     Edge 51, Type (0, 1), BuildingBlock: AJUNOK_clean_linker_0, # of connection points: 2
#     Edge 52, Type (0, 1), BuildingBlock: AJUNOK_clean_linker_0, # of connection points: 2
#     Edge 53, Type (0, 1), BuildingBlock: AJUNOK_clean_linker_0, # of connection points: 2
#     Edge 54, Type (0, 1), BuildingBlock: AJUNOK_clean_linker_0, # of connection points: 2
#     Edge 55, Type (0, 1), BuildingBlock: AJUNOK_clean_linker_0, # of connection points: 2
#     Edge 56, Type (0, 1), BuildingBlock: AJUNOK_clean_linker_0, # of connection points: 2
#     Edge 57, Type (0, 1), BuildingBlock: AJUNOK_clean_linker_0, # of connection points: 2
#     Edge 58, Type (0, 1), BuildingBlock: AJUNOK_clean_linker_0, # of connection points: 2
#     Edge 59, Type (0, 1), BuildingBlock: AJUNOK_clean_linker_0, # of connection points: 2
#     Edge 60, Type (0, 1), BuildingBlock: AJUNOK_clean_linker_0, # of connection points: 2
#     Edge 61, Type (0, 1), BuildingBlock: AJUNOK_clean_linker_0, # of connection points: 2
#     Edge 62, Type (0, 1), BuildingBlock: AJUNOK_clean_linker_0, # of connection points: 2
#     Edge 63, Type (0, 1), BuildingBlock: AJUNOK_clean_linker_0, # of connection points: 2
#     Edge 64, Type (0, 1), BuildingBlock: AJUNOK_clean_linker_0, # of connection points: 2
#     Edge 65, Type (0, 1), BuildingBlock: AJUNOK_clean_linker_0, # of connection points: 2
#     Edge 66, Type (0, 1), BuildingBlock: AJUNOK_clean_linker_0, # of connection points: 2
#     Edge 67, Type (0, 1), BuildingBlock: AJUNOK_clean_linker_0, # of connection points: 2
#     Edge 68, Type (0, 1), BuildingBlock: AJUNOK_clean_linker_0, # of connection points: 2
#     Edge 69, Type (0, 1), BuildingBlock: AJUNOK_clean_linker_0, # of connection points: 2
#     Edge 70, Type (0, 1), BuildingBlock: AJUNOK_clean_linker_0, # of connection points: 2
#     Edge 71, Type (0, 1), BuildingBlock: AJUNOK_clean_linker_0, # of connection points: 2
#     Edge 72, Type (0, 1), BuildingBlock: AJUNOK_clean_linker_0, # of connection points: 2
#     Edge 73, Type (0, 1), BuildingBlock: AJUNOK_clean_linker_0, # of connection points: 2
#     Edge 74, Type (0, 1), BuildingBlock: AJUNOK_clean_linker_0, # of connection points: 2
#     Edge 75, Type (0, 1), BuildingBlock: AJUNOK_clean_linker_0, # of connection points: 2
#     Edge 76, Type (0, 1), BuildingBlock: AJUNOK_clean_linker_0, # of connection points: 2
#     Edge 77, Type (0, 1), BuildingBlock: AJUNOK_clean_linker_0, # of connection points: 2
#     Edge 78, Type (0, 1), BuildingBlock: AJUNOK_clean_linker_0, # of connection points: 2
#     Edge 79, Type (0, 1), BuildingBlock: AJUNOK_clean_linker_0, # of connection points: 2
#     Edge 80, Type (0, 1), BuildingBlock: AJUNOK_clean_linker_0, # of connection points: 2
#     Edge 81, Type (0, 1), BuildingBlock: AJUNOK_clean_linker_0, # of connection points: 2
#     Edge 82, Type (0, 1), BuildingBlock: AJUNOK_clean_linker_0, # of connection points: 2
#     Edge 83, Type (0, 1), BuildingBlock: AJUNOK_clean_linker_0, # of connection points: 2
#     Edge 84, Type (0, 1), BuildingBlock: AJUNOK_clean_linker_0, # of connection points: 2
#     Edge 85, Type (0, 1), BuildingBlock: AJUNOK_clean_linker_0, # of connection points: 2
#     Edge 86, Type (0, 1), BuildingBlock: AJUNOK_clean_linker_0, # of connection points: 2
#     Edge 87, Type (0, 1), BuildingBlock: AJUNOK_clean_linker_0, # of connection points: 2
#     Edge 88, Type (0, 1), BuildingBlock: AJUNOK_clean_linker_0, # of connection points: 2
#     Edge 89, Type (0, 1), BuildingBlock: AJUNOK_clean_linker_0, # of connection points: 2
#     Edge 90, Type (0, 1), BuildingBlock: AJUNOK_clean_linker_0, # of connection points: 2
#     Edge 91, Type (0, 1), BuildingBlock: AJUNOK_clean_linker_0, # of connection points: 2
#     Edge 92, Type (0, 1), BuildingBlock: AJUNOK_clean_linker_0, # of connection points: 2
#     Edge 93, Type (0, 1), BuildingBlock: AJUNOK_clean_linker_0, # of connection points: 2
#     Edge 94, Type (0, 1), BuildingBlock: AJUNOK_clean_linker_0, # of connection points: 2
#     Edge 95, Type (0, 1), BuildingBlock: AJUNOK_clean_linker_0, # of connection points: 2
#     Edge 96, Type (0, 1), BuildingBlock: AJUNOK_clean_linker_0, # of connection points: 2
#     Edge 97, Type (0, 1), BuildingBlock: AJUNOK_clean_linker_0, # of connection points: 2
#     Edge 98, Type (0, 1), BuildingBlock: AJUNOK_clean_linker_0, # of connection points: 2
#     Edge 99, Type (0, 1), BuildingBlock: AJUNOK_clean_linker_0, # of connection points: 2
#     Edge 100, Type (0, 1), BuildingBlock: AJUNOK_clean_linker_0, # of connection points: 2
#     Edge 101, Type (0, 1), BuildingBlock: AJUNOK_clean_linker_0, # of connection points: 2
#     Edge 102, Type (0, 1), BuildingBlock: AJUNOK_clean_linker_0, # of connection points: 2
#     Edge 103, Type (0, 1), BuildingBlock: AJUNOK_clean_linker_0, # of connection points: 2
#     Edge 104, Type (0, 1), BuildingBlock: AJUNOK_clean_linker_0, # of connection points: 2
#     Edge 105, Type (0, 1), BuildingBlock: AJUNOK_clean_linker_0, # of connection points: 2
#     Edge 106, Type (0, 1), BuildingBlock: AJUNOK_clean_linker_0, # of connection points: 2
#     Edge 107, Type (0, 1), BuildingBlock: AJUNOK_clean_linker_0, # of connection points: 2
# Relax obj value: 0.082
# Max RMSD: 0.301
# Mean RMSD: 0.122
data_MOF--net-ptr--node1-AZAVOO_clean_sbu_0--node2-NAWXER_clean_linker_0--edge1-AJUNOK_clean_linker_0
_symmetry_space_group_name_H-M    P1
_symmetry_Int_Tables_number       1
_symmetry_cell_setting            triclinic
loop_
_symmetry_equiv_pos_as_xyz
'x, y, z'
_cell_length_a     69.025028
_cell_length_b     67.835676
_cell_length_c     48.189751
_cell_angle_alpha  91.333199
_cell_angle_beta   91.171622
_cell_angle_gamma 120.06762
loop_
_atom_site_label
_atom_site_type_symbol
_atom_site_fract_x
_atom_site_fract_y
_atom_site_fract_z
_atom_type_partial_charge
Mg0 Mg 0.01491 0.3411 0.98817 0.0
O1 O 0.99577 0.34864 0.02169 0.0
O2 O 0.96773 0.35032 0.99993 0.0
Mg3 Mg 0.96919 0.34495 0.95317 0.0
C4 C 0.97881 0.35151 0.02208 0.0
C5 C 0.03316 0.31301 0.02131 0.0
O6 O 0.02207 0.29775 1.00121 0.0
O7 O 0.9866 0.30385 0.98119 0.0
O8 O 0.96054 0.3081 0.95821 0.0
O9 O 0.03736 0.37864 0.98362 0.0
O10 O 0.00552 0.35808 0.95953 0.0
C11 C 0.96754 0.29558 0.96852 0.0
C12 C 0.02251 0.37787 0.9661 0.0
O13 O 0.03307 0.33174 0.02162 0.0
Mg14 Mg 0.66587 0.65574 0.04519 0.0
O15 O 0.63804 0.64579 0.01186 0.0
O16 O 0.60725 0.64092 0.03224 0.0
Mg17 Mg 0.61527 0.64661 0.07922 0.0
C18 C 0.61764 0.64091 0.01065 0.0
C19 C 0.68881 0.65302 0.99172 0.0
O20 O 0.67104 0.63254 0.99136 0.0
O21 O 0.67141 0.69168 0.05189 0.0
O22 O 0.64099 0.68452 0.07504 0.0
O23 O 0.6538 0.6187 0.04979 0.0
O24 O 0.64217 0.63833 0.07469 0.0
C25 C 0.65987 0.6985 0.06513 0.0
C26 C 0.64066 0.61908 0.06834 0.0
O27 O 0.69155 0.66707 0.01141 0.0
Mg28 Mg 0.33155 0.97416 0.98564 0.0
O29 O 0.36163 0.99122 0.01647 0.0
O30 O 0.39238 0.01383 0.99351 0.0
Mg31 Mg 0.3822 0.00945 0.94712 0.0
C32 C 0.3826 0.00537 0.01597 0.0
C33 C 0.29415 0.97068 0.02584 0.0
O34 O 0.29267 0.98413 0.00783 0.0
O35 O 0.33145 0.00754 0.97982 0.0
O36 O 0.36135 0.02655 0.9539 0.0
O37 O 0.33874 0.94552 0.97845 0.0
O38 O 0.35208 0.97644 0.95379 0.0
C39 C 0.34423 0.02482 0.96578 0.0
C40 C 0.35112 0.95747 0.9586 0.0
O41 O 0.30812 0.96391 0.02214 0.0
Mg42 Mg 0.9939 0.66467 0.0361 0.0
O43 O 0.01052 0.65559 1.00063 0.0
O44 O 0.03805 0.65174 0.02014 0.0
Mg45 Mg 0.03887 0.65764 0.06719 0.0
C46 C 0.02644 0.65117 0.99882 0.0
C47 C 0.96203 0.66137 0.98692 0.0
O48 O 0.95916 0.64071 0.98607 0.0
O49 O 0.02359 0.70141 0.04211 0.0
O50 O 0.04894 0.69494 0.06286 0.0
O51 O 0.96998 0.62745 0.04097 0.0
O52 O 0.00281 0.64637 0.06331 0.0
C53 C 0.04289 0.70861 0.05376 0.0
C54 C 0.9849 0.62714 0.05733 0.0
O55 O 0.97587 0.67582 0.00499 0.0
Mg56 Mg 0.33746 0.35158 0.98272 0.0
O57 O 0.36513 0.35884 0.01498 0.0
O58 O 0.39564 0.36467 0.99325 0.0
Mg59 Mg 0.38792 0.36285 0.94624 0.0
C60 C 0.38539 0.36322 0.01557 0.0
C61 C 0.29231 0.33383 0.01258 0.0
O62 O 0.28618 0.33628 0.98749 0.0
O63 O 0.33182 0.31595 0.9719 0.0
O64 O 0.36134 0.32495 0.94567 0.0
O65 O 0.34922 0.38904 0.98147 0.0
O66 O 0.36159 0.37118 0.95464 0.0
C67 C 0.34273 0.31032 0.95553 0.0
C68 C 0.3628 0.38995 0.96275 0.0
O69 O 0.31231 0.33831 0.01706 0.0
Mg70 Mg 0.6654 0.01308 0.0365 0.0
O71 O 0.63695 0.99349 0.00399 0.0
O72 O 0.60648 0.96818 0.02515 0.0
Mg73 Mg 0.61534 0.97206 0.07188 0.0
C74 C 0.61648 0.97768 0.00318 0.0
C75 C 0.68704 0.0363 0.98155 0.0
O76 O 0.66939 0.03884 0.9812 0.0
O77 O 0.6708 0.98288 0.0426 0.0
O78 O 0.64072 0.96008 0.06659 0.0
O79 O 0.65342 0.03816 0.04323 0.0
O80 O 0.64279 0.00719 0.06713 0.0
C81 C 0.65936 0.96485 0.05612 0.0
C82 C 0.6413 0.02491 0.0624 0.0
O83 O 0.69012 0.02633 1.00174 0.0
Mg84 Mg 0.68978 0.676 0.32166 0.0
O85 O 0.6706 0.68711 0.35104 0.0
O86 O 0.65103 0.6975 0.32373 0.0
Mg87 Mg 0.6569 0.69305 0.27794 0.0
C88 C 0.65729 0.69493 0.34785 0.0
C89 C 0.71253 0.67364 0.37727 0.0
O90 O 0.71747 0.69503 0.37837 0.0
O91 O 0.65796 0.64173 0.30934 0.0
O92 O 0.64137 0.6544 0.2801 0.0
O93 O 0.7175 0.71278 0.32115 0.0
O94 O 0.68902 0.69666 0.2908 0.0
C95 C 0.64249 0.63814 0.29141 0.0
C96 C 0.70674 0.71469 0.30005 0.0
O97 O 0.69997 0.66072 0.35721 0.0
Mg98 Mg 0.33694 0.99392 0.37991 0.0
O99 O 0.30757 0.98286 0.3487 0.0
O100 O 0.27688 0.97546 0.37112 0.0
Mg101 Mg 0.28691 0.98218 0.41753 0.0
C102 C 0.28679 0.97653 0.34866 0.0
C103 C 0.37686 0.02343 0.33888 0.0
O104 O 0.38283 0.04046 0.35697 0.0
O105 O 0.34092 0.0293 0.38674 0.0
O106 O 0.31044 0.02021 0.41101 0.0
O107 O 0.32658 0.95731 0.38466 0.0
O108 O 0.31511 0.97621 0.41118 0.0
C109 C 0.3285 0.03494 0.40008 0.0
C110 C 0.31417 0.95729 0.40444 0.0
O111 O 0.35989 0.00419 0.34329 0.0
Mg112 Mg 0.99745 0.31007 0.32044 0.0
O113 O 0.02662 0.32889 0.35227 0.0
O114 O 0.05734 0.3523 0.32996 0.0
Mg115 Mg 0.04787 0.34785 0.28342 0.0
C116 C 0.0474 0.34381 0.35234 0.0
C117 C 0.97235 0.2857 0.37373 0.0
O118 O 0.98569 0.27717 0.37187 0.0
O119 O 0.99456 0.3417 0.31394 0.0
O120 O 0.02491 0.3628 0.28949 0.0
O121 O 0.00706 0.28309 0.31459 0.0
O122 O 0.01914 0.31363 0.28942 0.0
C123 C 0.00687 0.35948 0.30046 0.0
C124 C 0.01946 0.29539 0.29496 0.0
O125 O 0.97322 0.29943 0.35567 0.0
Mg126 Mg 0.6538 0.99184 0.37176 0.0
O127 O 0.67385 0.98198 0.34194 0.0
O128 O 0.69631 0.97523 0.36912 0.0
Mg129 Mg 0.69226 0.98167 0.41469 0.0
C130 C 0.68862 0.97599 0.34509 0.0
C131 C 0.62244 0.00429 0.34281 0.0
O132 O 0.61592 -0.00042 0.36843 0.0
O133 O 0.68405 0.028 0.3806 0.0
O134 O 0.70539 0.01944 0.40749 0.0
O135 O 0.62881 0.95445 0.37526 0.0
O136 O 0.6583 0.97397 0.40354 0.0
C137 C 0.70178 0.034 0.39564 0.0
C138 C 0.64132 0.95467 0.39578 0.0
O139 O 0.63957 0.00316 0.33588 0.0
Mg140 Mg 0.00076 0.68202 0.30864 0.0
O141 O 0.03117 0.69243 0.33798 0.0
O142 O 0.06091 0.70233 0.3123 0.0
Mg143 Mg 0.04975 0.69843 0.26629 0.0
C144 C 0.05202 0.69958 0.33593 0.0
C145 C 0.98097 0.68064 0.36609 0.0
O146 O 0.99807 0.70155 0.36649 0.0
O147 O 0.99804 0.64769 0.2968 0.0
O148 O 0.02665 0.65992 0.26812 0.0
O149 O 0.00967 0.71889 0.30744 0.0
O150 O 0.02115 0.70205 0.27773 0.0
C151 C 0.00951 0.64388 0.27919 0.0
C152 C 0.02134 0.72021 0.28615 0.0
O153 O 0.97771 0.66758 0.34501 0.0
Mg154 Mg 0.3331 0.35015 0.37152 0.0
O155 O 0.30356 0.33113 0.33991 0.0
O156 O 0.27298 0.3098 0.36355 0.0
Mg157 Mg 0.28283 0.31444 0.40994 0.0
C158 C 0.28255 0.31717 0.34064 0.0
C159 C 0.37785 0.36827 0.34297 0.0
O160 O 0.38371 0.36963 0.36936 0.0
O161 O 0.33545 0.31836 0.37955 0.0
O162 O 0.3051 0.29859 0.40459 0.0
O163 O 0.32436 0.37786 0.37636 0.0
O164 O 0.31196 0.34792 0.40263 0.0
C165 C 0.32287 0.30107 0.39368 0.0
C166 C 0.31207 0.36626 0.39646 0.0
O167 O 0.35729 0.36024 0.33632 0.0
Mg168 Mg 0.34662 0.00695 0.66318 0.0
O169 O 0.32855 0.01904 0.69332 0.0
O170 O 0.30709 0.02756 0.66676 0.0
Mg171 Mg 0.30987 0.02002 0.62106 0.0
C172 C 0.31484 0.02643 0.69059 0.0
C173 C 0.37572 0.99141 0.69278 0.0
O174 O 0.38276 0.99545 0.66728 0.0
O175 O 0.31493 0.97181 0.65474 0.0
O176 O 0.29458 0.98182 0.62812 0.0
O177 O 0.37331 0.04369 0.65887 0.0
O178 O 0.34321 0.02533 0.63122 0.0
C179 C 0.29732 0.96667 0.63989 0.0
C180 C 0.36116 0.04402 0.63826 0.0
O181 O 0.35945 0.99427 0.69909 0.0
Mg182 Mg 0.00441 0.31792 0.71832 0.0
O183 O 0.97496 0.30686 0.68705 0.0
O184 O 0.94473 0.29946 0.7107 0.0
Mg185 Mg 0.95429 0.30392 0.75734 0.0
C186 C 0.95427 0.3009 0.68781 0.0
C187 C 0.0291 0.31625 0.66635 0.0
O188 O 0.01462 0.2946 0.66948 0.0
O189 O 0.00734 0.35294 0.72698 0.0
O190 O 0.97802 0.34215 0.75418 0.0
O191 O 0.99484 0.28096 0.72263 0.0
O192 O 0.98282 0.29923 0.74911 0.0
C193 C 0.99556 0.35762 0.7431 0.0
C194 C 0.98264 0.28068 0.7428 0.0
O195 O 0.02883 0.33096 0.68293 0.0
Mg196 Mg 0.66878 0.63962 0.64948 0.0
O197 O 0.69867 0.65715 0.68046 0.0
O198 O 0.72955 0.67944 0.65753 0.0
Mg199 Mg 0.71961 0.67404 0.61103 0.0
C200 C 0.71959 0.67141 0.68002 0.0
C201 C 0.62969 0.63502 0.68677 0.0
O202 O 0.62657 0.64549 0.66606 0.0
O203 O 0.66864 0.67288 0.64232 0.0
O204 O 0.69875 0.69122 0.61653 0.0
O205 O 0.67597 0.61077 0.64353 0.0
O206 O 0.68934 0.64126 0.61811 0.0
C207 C 0.6816 0.68983 0.62793 0.0
C208 C 0.6884 0.62241 0.62355 0.0
O209 O 0.64542 0.63044 0.68575 0.0
Mg210 Mg 0.31266 0.32435 0.71193 0.0
O211 O 0.33061 0.31275 0.68118 0.0
O212 O 0.35408 0.30594 0.70636 0.0
Mg213 Mg 0.35127 0.31262 0.75241 0.0
C214 C 0.34539 0.30668 0.68304 0.0
C215 C 0.28179 0.32171 0.66193 0.0
O216 O 0.27355 0.3001 0.66713 0.0
O217 O 0.34424 0.35988 0.7191 0.0
O218 O 0.36536 0.35045 0.74501 0.0
O219 O 0.2868 0.28733 0.71696 0.0
O220 O 0.31744 0.3064 0.74347 0.0
C221 C 0.36225 0.36536 0.73326 0.0
C222 C 0.29977 0.28736 0.73673 0.0
O223 O 0.29892 0.33645 0.67619 0.0
Mg224 Mg 0.66374 0.01192 0.64358 0.0
O225 O 0.69431 0.02431 0.67349 0.0
O226 O 0.7246 0.03583 0.64827 0.0
Mg227 Mg 0.71338 0.02986 0.60226 0.0
C228 C 0.71543 0.0328 0.67174 0.0
C229 C 0.6217 0.99603 0.67592 0.0
O230 O 0.61765 0.00283 0.65231 0.0
O231 O 0.66314 0.97843 0.63341 0.0
O232 O 0.69304 0.9912 0.60703 0.0
O233 O 0.6708 0.04794 0.64189 0.0
O234 O 0.6838 0.03216 0.61261 0.0
C235 C 0.67615 0.9749 0.61818 0.0
C236 C 0.68324 0.04993 0.62117 0.0
O237 O 0.64049 0.99713 0.67965 0.0
Mg238 Mg 0.00361 0.69281 0.70388 0.0
O239 O 0.97279 0.67189 0.67459 0.0
O240 O 0.94414 0.64899 0.7003 0.0
Mg241 Mg 0.95661 0.65402 0.74562 0.0
C242 C 0.95221 0.65681 0.67683 0.0
C243 C 0.03057 0.69444 0.64964 0.0
O244 O 0.02233 0.67254 0.65304 0.0
O245 O 0.00907 0.66241 0.70895 0.0
O246 O 0.98015 0.64058 0.73524 0.0
O247 O 0.99219 0.71819 0.71181 0.0
O248 O 0.98359 0.68839 0.73721 0.0
C249 C 0.99771 0.64441 0.72256 0.0
C250 C 0.98153 0.70576 0.73233 0.0
O251 O 0.02579 0.70591 0.66653 0.0
C252 C 0.23272 0.32352 0.12369 0.0
C253 C 0.228 0.30887 0.10023 0.0
C254 C 0.21598 0.31949 0.1424 0.0
C255 C 0.1943 0.30067 0.13801 0.0
C256 C 0.20649 0.28971 0.09641 0.0
C257 C 0.18981 0.28571 0.11504 0.0
C258 C 0.17545 0.29802 0.15467 0.0
C259 C 0.22142 0.29118 0.21935 0.0
C260 C 0.22615 0.30526 0.24336 0.0
C261 C 0.20572 0.28957 0.19906 0.0
C262 C 0.19486 0.30232 0.2024 0.0
C263 C 0.21581 0.31844 0.24615 0.0
C264 C 0.20042 0.31702 0.22592 0.0
C265 C 0.17577 0.29877 0.184 0.0
C266 C 0.07996 0.27229 0.20765 0.0
C267 C 0.08444 0.28491 0.23282 0.0
C268 C 0.09755 0.27484 0.19136 0.0
C269 C 0.11986 0.29067 0.19954 0.0
C270 C 0.1067 0.29998 0.24157 0.0
C271 C 0.12424 0.30285 0.22508 0.0
C272 C 0.13893 0.29395 0.18273 0.0
C273 C 0.09815 0.31221 0.12575 0.0
C274 C 0.09085 0.29983 0.10019 0.0
C275 C 0.11358 0.31038 0.14324 0.0
C276 C 0.12175 0.29576 0.13586 0.0
C277 C 0.09941 0.2856 0.09257 0.0
C278 C 0.11465 0.28359 0.1102 0.0
C279 C 0.13915 0.29464 0.15342 0.0
H280 H 0.24901 0.33869 0.12682 0.0
H281 H 0.21969 0.33167 0.15947 0.0
H282 H 0.20242 0.27812 0.07856 0.0
H283 H 0.17315 0.27122 0.11109 0.0
H284 H 0.2291 0.28073 0.21692 0.0
H285 H 0.20138 0.27766 0.18152 0.0
H286 H 0.21928 0.3295 0.2644 0.0
H287 H 0.19231 0.32701 0.22909 0.0
H288 H 0.06285 0.26057 0.20057 0.0
H289 H 0.09367 0.2645 0.17238 0.0
H290 H 0.11051 0.31013 0.26073 0.0
H291 H 0.14126 0.31495 0.2321 0.0
H292 H 0.09203 0.32346 0.13218 0.0
H293 H 0.1194 0.32075 0.16231 0.0
H294 H 0.09477 0.27641 0.07266 0.0
H295 H 0.12106 0.27261 0.10365 0.0
N296 N 0.15723 0.29615 0.14064 0.0
N297 N 0.15736 0.2964 0.19665 0.0
C298 C 0.68261 0.90879 0.14202 0.0
C299 C 0.69445 0.9174 0.11766 0.0
C300 C 0.68906 0.89762 0.16083 0.0
C301 C 0.70774 0.8952 0.15589 0.0
C302 C 0.71321 0.91508 0.11281 0.0
C303 C 0.71975 0.90404 0.13174 0.0
C304 C 0.7127 0.88043 0.17307 0.0
C305 C 0.71889 0.93654 0.23265 0.0
C306 C 0.7065 0.92845 0.25668 0.0
C307 C 0.72161 0.92157 0.21467 0.0
C308 C 0.71151 0.89822 0.22023 0.0
C309 C 0.69656 0.90526 0.26222 0.0
C310 C 0.69898 0.89033 0.2442 0.0
C311 C 0.71435 0.88168 0.20246 0.0
C312 C 0.73491 0.80551 0.22429 0.0
C313 C 0.7232 0.79789 0.24886 0.0
C314 C 0.73411 0.8226 0.20952 0.0
C315 C 0.72099 0.83186 0.21861 0.0
C316 C 0.71125 0.80811 0.25888 0.0
C317 C 0.71017 0.82496 0.24391 0.0
C318 C 0.71813 0.84843 0.2019 0.0
C319 C 0.68656 0.78502 0.14651 0.0
C320 C 0.69602 0.78692 0.12047 0.0
C321 C 0.69338 0.80423 0.16393 0.0
C322 C 0.71009 0.82578 0.1559 0.0
C323 C 0.71285 0.80842 0.11244 0.0
C324 C 0.71973 0.82772 0.12997 0.0
C325 C 0.71509 0.84649 0.17265 0.0
H326 H 0.66811 0.91041 0.14631 0.0
H327 H 0.67898 0.89021 0.1787 0.0
H328 H 0.72239 0.92117 0.094 0.0
H329 H 0.73388 0.90185 0.12717 0.0
H330 H 0.72693 0.95447 0.22824 0.0
H331 H 0.73191 0.92832 0.19684 0.0
H332 H 0.68697 0.89868 0.28067 0.0
H333 H 0.69102 0.8725 0.24911 0.0
H334 H 0.74433 0.79793 0.21627 0.0
H335 H 0.74335 0.82819 0.19068 0.0
H336 H 0.70188 0.80233 0.27763 0.0
H337 H 0.70013 0.83195 0.25159 0.0
H338 H 0.67359 0.76863 0.15325 0.0
H339 H 0.68502 0.80231 0.18329 0.0
H340 H 0.72019 0.81042 0.09232 0.0
H341 H 0.73227 0.84425 0.12306 0.0
N342 N 0.71303 0.86283 0.1595 0.0
N343 N 0.71732 0.86575 0.21554 0.0
C344 C 0.10772 0.79448 0.13228 0.0
C345 C 0.09791 0.79682 0.10769 0.0
C346 C 0.12083 0.81332 0.15006 0.0
C347 C 0.12427 0.83493 0.1438 0.0
C348 C 0.10098 0.81832 0.10153 0.0
C349 C 0.11434 0.83732 0.11931 0.0
C350 C 0.13988 0.85513 0.16158 0.0
C351 C 0.08027 0.81217 0.21112 0.0
C352 C 0.08482 0.80336 0.23488 0.0
C353 C 0.09776 0.82965 0.19717 0.0
C354 C 0.12011 0.83823 0.20641 0.0
C355 C 0.10698 0.8129 0.24514 0.0
C356 C 0.12448 0.83018 0.23102 0.0
C357 C 0.13905 0.85563 0.19088 0.0
C358 C 0.21831 0.94278 0.23373 0.0
C359 C 0.22795 0.93372 0.25163 0.0
C360 C 0.20163 0.92857 0.21387 0.0
C361 C 0.19417 0.90513 0.21221 0.0
C362 C 0.22079 0.91039 0.2494 0.0
C363 C 0.20389 0.8962 0.23009 0.0
C364 C 0.17514 0.88921 0.19365 0.0
C365 C 0.2339 0.92355 0.13711 0.0
C366 C 0.22976 0.93238 0.11304 0.0
C367 C 0.21651 0.91043 0.15467 0.0
C368 C 0.1947 0.90618 0.14871 0.0
C369 C 0.20802 0.92841 0.10737 0.0
C370 C 0.1907 0.91547 0.12504 0.0
C371 C 0.17542 0.88954 0.16437 0.0
H372 H 0.10544 0.77803 0.13759 0.0
H373 H 0.12874 0.81106 0.1684 0.0
H374 H 0.09357 0.8205 0.08267 0.0
H375 H 0.11702 0.8539 0.11388 0.0
H376 H 0.06323 0.80519 0.20308 0.0
H377 H 0.09381 0.83617 0.17893 0.0
H378 H 0.11084 0.80627 0.26338 0.0
H379 H 0.14153 0.8367 0.23882 0.0
H380 H 0.22355 0.96074 0.2353 0.0
H381 H 0.19412 0.9357 0.20045 0.0
H382 H 0.22782 0.90303 0.26322 0.0
H383 H 0.19823 0.87813 0.22924 0.0
H384 H 0.25046 0.9262 0.1419 0.0
H385 H 0.21999 0.90272 0.17205 0.0
H386 H 0.20411 0.9344 0.0886 0.0
H387 H 0.17394 0.91205 0.11968 0.0
N388 N 0.15781 0.87236 0.14951 0.0
N389 N 0.15689 0.87243 0.20569 0.0
C390 C 0.31539 0.08646 0.80197 0.0
C391 C 0.29768 0.07225 0.78311 0.0
C392 C 0.3132 0.10121 0.82082 0.0
C393 C 0.2933 0.1021 0.82112 0.0
C394 C 0.27756 0.07275 0.78411 0.0
C395 C 0.27549 0.08767 0.80272 0.0
C396 C 0.29189 0.11974 0.83821 0.0
C397 C 0.29694 0.07182 0.89763 0.0
C398 C 0.3141 0.08269 0.91828 0.0
C399 C 0.29067 0.08455 0.8811 0.0
C400 C 0.30179 0.10842 0.8846 0.0
C401 C 0.32421 0.10635 0.92283 0.0
C402 C 0.31826 0.11906 0.90607 0.0
C403 C 0.29617 0.12281 0.86732 0.0
C404 C 0.28819 0.20711 0.89231 0.0
C405 C 0.30633 0.2178 0.91161 0.0
C406 C 0.28329 0.18668 0.87851 0.0
C407 C 0.29694 0.17706 0.88316 0.0
C408 C 0.31894 0.20738 0.91778 0.0
C409 C 0.31432 0.18721 0.90364 0.0
C410 C 0.29377 0.15675 0.86681 0.0
C411 C 0.31056 0.21092 0.80563 0.0
C412 C 0.29141 0.20767 0.79064 0.0
C413 C 0.31006 0.19328 0.82048 0.0
C414 C 0.29043 0.17195 0.82062 0.0
C415 C 0.27188 0.18607 0.79028 0.0
C416 C 0.27149 0.16826 0.80492 0.0
C417 C 0.28983 0.15388 0.83771 0.0
H418 H 0.33132 0.08703 0.80129 0.0
H419 H 0.32738 0.1126 0.83435 0.0
H420 H 0.26357 0.06199 0.76997 0.0
H421 H 0.26007 0.08823 0.80242 0.0
H422 H 0.28872 0.05354 0.89384 0.0
H423 H 0.27719 0.0757 0.86566 0.0
H424 H 0.33698 0.11511 0.93914 0.0
H425 H 0.32686 0.13738 0.9097 0.0
H426 H 0.27818 0.21488 0.88743 0.0
H427 H 0.26915 0.17873 0.86383 0.0
H428 H 0.33307 0.21546 0.93251 0.0
H429 H 0.32495 0.18005 0.90795 0.0
H430 H 0.32596 0.22722 0.80604 0.0
H431 H 0.32496 0.19636 0.83217 0.0
H432 H 0.25672 0.18309 0.77938 0.0
H433 H 0.25619 0.15187 0.80479 0.0
N434 N 0.28881 0.13539 0.82458 0.0
N435 N 0.29681 0.14113 0.88027 0.0
C436 C 0.91039 0.19051 0.90808 0.0
C437 C 0.90579 0.20694 0.91962 0.0
C438 C 0.89431 0.17237 0.89114 0.0
C439 C 0.87309 0.1699 0.88612 0.0
C440 C 0.88427 0.204 0.91493 0.0
C441 C 0.86802 0.18552 0.89868 0.0
C442 C 0.85624 0.15136 0.86739 0.0
C443 C 0.901 0.20661 0.81294 0.0
C444 C 0.91611 0.20221 0.79879 0.0
C445 C 0.883 0.18927 0.82613 0.0
C446 C 0.8796 0.16708 0.8254 0.0
C447 C 0.91232 0.17982 0.79722 0.0
C448 C 0.89407 0.1623 0.81038 0.0
C449 C 0.86012 0.149 0.83922 0.0
C450 C 0.76958 0.08639 0.78885 0.0
C451 C 0.77442 0.0733 0.77022 0.0
C452 C 0.78504 0.09987 0.81007 0.0
C453 C 0.80562 0.10047 0.81322 0.0
C454 C 0.79488 0.07368 0.77362 0.0
C455 C 0.81036 0.08721 0.79483 0.0
C456 C 0.82323 0.11686 0.83328 0.0
C457 C 0.76742 0.06882 0.8882 0.0
C458 C 0.75803 0.07974 0.90333 0.0
C459 C 0.78699 0.08163 0.87366 0.0
C460 C 0.79749 0.10552 0.87433 0.0
C461 C 0.76841 0.1036 0.90357 0.0
C462 C 0.78801 0.11635 0.88933 0.0
C463 C 0.81919 0.11967 0.86137 0.0
H464 H 0.92644 0.19168 0.91198 0.0
H465 H 0.8984 0.16023 0.88197 0.0
H466 H 0.8801 0.21636 0.92315 0.0
H467 H 0.85173 0.1839 0.89504 0.0
H468 H 0.90299 0.2235 0.81362 0.0
H469 H 0.87153 0.19316 0.83667 0.0
H470 H 0.92359 0.17596 0.78615 0.0
H471 H 0.89142 0.14515 0.80916 0.0
H472 H 0.75429 0.08702 0.78626 0.0
H473 H 0.78128 0.1106 0.82321 0.0
H474 H 0.7991 0.06384 0.75954 0.0
H475 H 0.82625 0.08765 0.79659 0.0
H476 H 0.75977 0.05043 0.88794 0.0
H477 H 0.79425 0.07295 0.86261 0.0
H478 H 0.76177 0.11245 0.91553 0.0
H479 H 0.79594 0.13478 0.8903 0.0
N480 N 0.83588 0.13679 0.87732 0.0
N481 N 0.84359 0.13173 0.82327 0.0
C482 C 0.77223 0.69596 0.9022 0.0
C483 C 0.76144 0.67577 0.91687 0.0
C484 C 0.79118 0.70102 0.88708 0.0
C485 C 0.79965 0.68601 0.8866 0.0
C486 C 0.77003 0.66089 0.91644 0.0
C487 C 0.78903 0.66603 0.90159 0.0
C488 C 0.82012 0.6913 0.87171 0.0
C489 C 0.76855 0.67721 0.80292 0.0
C490 C 0.77551 0.69211 0.78071 0.0
C491 C 0.78376 0.67946 0.82411 0.0
C492 C 0.80617 0.69731 0.82436 0.0
C493 C 0.79786 0.71006 0.78112 0.0
C494 C 0.81286 0.71277 0.8028 0.0
C495 C 0.8236 0.69796 0.84376 0.0
C496 C 0.9016 0.6893 0.81298 0.0
C497 C 0.91467 0.70946 0.7989 0.0
C498 C 0.88406 0.68689 0.82905 0.0
C499 C 0.87932 0.70466 0.83153 0.0
C500 C 0.90984 0.72722 0.80126 0.0
C501 C 0.89213 0.72474 0.81729 0.0
C502 C 0.85983 0.70149 0.84702 0.0
C503 C 0.91034 0.70315 0.90869 0.0
C504 C 0.90285 0.68231 0.92162 0.0
C505 C 0.89522 0.70732 0.89372 0.0
C506 C 0.87234 0.69073 0.89145 0.0
C507 C 0.87986 0.66607 0.92008 0.0
C508 C 0.86477 0.67029 0.90527 0.0
C509 C 0.85612 0.69425 0.8746 0.0
H510 H 0.76599 0.70777 0.90245 0.0
H511 H 0.79938 0.71676 0.87609 0.0
H512 H 0.76229 0.64545 0.92806 0.0
H513 H 0.7954 0.65432 0.90174 0.0
H514 H 0.75148 0.66319 0.8034 0.0
H515 H 0.77809 0.66642 0.83934 0.0
H516 H 0.80422 0.72141 0.76401 0.0
H517 H 0.83009 0.72643 0.80198 0.0
H518 H 0.90473 0.67519 0.81119 0.0
H519 H 0.87392 0.67096 0.83912 0.0
H520 H 0.91981 0.74304 0.79092 0.0
H521 H 0.88849 0.73851 0.81868 0.0
H522 H 0.92793 0.71602 0.90975 0.0
H523 H 0.90143 0.72346 0.88381 0.0
H524 H 0.87355 0.65008 0.93038 0.0
H525 H 0.8472 0.65732 0.9041 0.0
N526 N 0.83641 0.68948 0.88584 0.0
N527 N 0.8435 0.70303 0.8328 0.0
C528 C 0.75975 0.6256 0.45317 0.0
C529 C 0.76733 0.64719 0.44223 0.0
C530 C 0.77478 0.62062 0.46698 0.0
C531 C 0.79765 0.63715 0.46999 0.0
C532 C 0.7903 0.66339 0.44451 0.0
C533 C 0.8053 0.65838 0.45812 0.0
C534 C 0.81375 0.63283 0.48589 0.0
C535 C 0.76768 0.63557 0.54758 0.0
C536 C 0.75434 0.615 0.56072 0.0
C537 C 0.78563 0.63851 0.532 0.0
C538 C 0.79041 0.6208 0.52885 0.0
C539 C 0.75947 0.59746 0.55828 0.0
C540 C 0.77749 0.6004 0.54251 0.0
C541 C 0.80987 0.62432 0.51295 0.0
C542 C 0.89943 0.6519 0.55963 0.0
C543 C 0.89422 0.63389 0.57738 0.0
C544 C 0.88441 0.64956 0.53816 0.0
C545 C 0.86396 0.62908 0.53387 0.0
C546 C 0.87434 0.61299 0.57207 0.0
C547 C 0.85924 0.6107 0.55071 0.0
C548 C 0.84614 0.62809 0.51523 0.0
C549 C 0.89883 0.63377 0.45714 0.0
C550 C 0.90952 0.65445 0.44348 0.0
C551 C 0.87967 0.62792 0.47218 0.0
C552 C 0.87082 0.64259 0.47351 0.0
C553 C 0.90071 0.66913 0.44497 0.0
C554 C 0.88144 0.66317 0.45968 0.0
C555 C 0.8499 0.63618 0.488 0.0
H556 H 0.74216 0.61273 0.45145 0.0
H557 H 0.76851 0.60394 0.47547 0.0
H558 H 0.79668 0.67997 0.43569 0.0
H559 H 0.82286 0.67134 0.45995 0.0
H560 H 0.76433 0.64951 0.54959 0.0
H561 H 0.7959 0.65474 0.52262 0.0
H562 H 0.74938 0.58144 0.56819 0.0
H563 H 0.78123 0.58671 0.54074 0.0
H564 H 0.91453 0.66826 0.56333 0.0
H565 H 0.88822 0.66423 0.52604 0.0
H566 H 0.8701 0.59865 0.58503 0.0
H567 H 0.84351 0.59481 0.54792 0.0
H568 H 0.90524 0.62211 0.45605 0.0
H569 H 0.8715 0.61174 0.48223 0.0
H570 H 0.90842 0.68497 0.43417 0.0
H571 H 0.87481 0.67466 0.46025 0.0
N572 N 0.83363 0.63842 0.47448 0.0
N573 N 0.82618 0.62227 0.5265 0.0
C574 C 0.3413 0.24136 0.47998 0.0
C575 C 0.35339 0.25002 0.45581 0.0
C576 C 0.34751 0.23005 0.49889 0.0
C577 C 0.36626 0.22765 0.49436 0.0
C578 C 0.37249 0.24818 0.45164 0.0
C579 C 0.37876 0.23694 0.47066 0.0
C580 C 0.37069 0.21237 0.51137 0.0
C581 C 0.37817 0.26741 0.57385 0.0
C582 C 0.36133 0.25882 0.59348 0.0
C583 C 0.38107 0.25247 0.5561 0.0
C584 C 0.36734 0.22876 0.55805 0.0
C585 C 0.3474 0.23515 0.59496 0.0
C586 C 0.35053 0.22029 0.57764 0.0
C587 C 0.37065 0.21245 0.54071 0.0
C588 C 0.38974 0.13528 0.56249 0.0
C589 C 0.37641 0.12645 0.58562 0.0
C590 C 0.38989 0.15307 0.54825 0.0
C591 C 0.37615 0.16187 0.55641 0.0
C592 C 0.36387 0.13622 0.59495 0.0
C593 C 0.36372 0.15376 0.58044 0.0
C594 C 0.37433 0.17919 0.53996 0.0
C595 C 0.34651 0.11831 0.4806 0.0
C596 C 0.35809 0.12137 0.45598 0.0
C597 C 0.35202 0.13676 0.49886 0.0
C598 C 0.36952 0.15861 0.49314 0.0
C599 C 0.37591 0.1431 0.45047 0.0
C600 C 0.38142 0.16165 0.46878 0.0
C601 C 0.37328 0.17856 0.51057 0.0
H602 H 0.32678 0.24299 0.48405 0.0
H603 H 0.33702 0.22236 0.51636 0.0
H604 H 0.38214 0.25478 0.43325 0.0
H605 H 0.39306 0.23495 0.46646 0.0
H606 H 0.38913 0.28562 0.57241 0.0
H607 H 0.39428 0.25938 0.54132 0.0
H608 H 0.33444 0.22814 0.61009 0.0
H609 H 0.33977 0.20208 0.57953 0.0
H610 H 0.39973 0.12811 0.55516 0.0
H611 H 0.40039 0.1596 0.53054 0.0
H612 H 0.35345 0.12961 0.61274 0.0
H613 H 0.3532 0.1604 0.58745 0.0
H614 H 0.33292 0.10164 0.48554 0.0
H615 H 0.34211 0.13403 0.51701 0.0
H616 H 0.3851 0.14582 0.43164 0.0
H617 H 0.39473 0.17844 0.46374 0.0
N618 N 0.37193 0.19538 0.49758 0.0
N619 N 0.37266 0.19596 0.55381 0.0
C620 C 0.77153 0.11969 0.47188 0.0
C621 C 0.76264 0.12239 0.4467 0.0
C622 C 0.78582 0.13856 0.489 0.0
C623 C 0.79142 0.16063 0.48154 0.0
C624 C 0.76829 0.14448 0.43906 0.0
C625 C 0.78275 0.16348 0.45626 0.0
C626 C 0.80759 0.18061 0.49925 0.0
C627 C 0.74567 0.14101 0.54674 0.0
C628 C 0.74895 0.1326 0.57168 0.0
C629 C 0.764 0.1577 0.53301 0.0
C630 C 0.78594 0.16565 0.54355 0.0
C631 C 0.77073 0.14151 0.58305 0.0
C632 C 0.78905 0.15788 0.56912 0.0
C633 C 0.80582 0.18197 0.52836 0.0
C634 C 0.88775 0.26749 0.57075 0.0
C635 C 0.89511 0.25799 0.59114 0.0
C636 C 0.87127 0.25334 0.55064 0.0
C637 C 0.86176 0.22957 0.55112 0.0
C638 C 0.88595 0.23429 0.59105 0.0
C639 C 0.86925 0.22021 0.57145 0.0
C640 C 0.84297 0.21395 0.53199 0.0
C641 C 0.90431 0.24251 0.47965 0.0
C642 C 0.9024 0.25167 0.45457 0.0
C643 C 0.88571 0.23079 0.49606 0.0
C644 C 0.86491 0.22832 0.48792 0.0
C645 C 0.88164 0.24937 0.44661 0.0
C646 C 0.86311 0.23782 0.46312 0.0
C647 C 0.84437 0.21333 0.50281 0.0
H648 H 0.76744 0.10289 0.47834 0.0
H649 H 0.79277 0.1359 0.50796 0.0
H650 H 0.76192 0.14706 0.41959 0.0
H651 H 0.78717 0.18038 0.44985 0.0
H652 H 0.72896 0.13437 0.53769 0.0
H653 H 0.76101 0.16403 0.51394 0.0
H654 H 0.77366 0.13504 0.60208 0.0
H655 H 0.80574 0.16387 0.57788 0.0
H656 H 0.8946 0.28576 0.57055 0.0
H657 H 0.86553 0.26086 0.53528 0.0
H658 H 0.89129 0.22662 0.60671 0.0
H659 H 0.86206 0.20191 0.57223 0.0
H660 H 0.92005 0.24387 0.4862 0.0
H661 H 0.88744 0.22281 0.5144 0.0
H662 H 0.87945 0.25566 0.42702 0.0
H663 H 0.84714 0.23571 0.45609 0.0
N664 N 0.82663 0.19661 0.48762 0.0
N665 N 0.82371 0.19837 0.5435 0.0
C666 C 0.95576 0.5379 0.13434 0.0
C667 C 0.96854 0.54403 0.11042 0.0
C668 C 0.95314 0.51954 0.14969 0.0
C669 C 0.96389 0.50736 0.142 0.0
C670 C 0.97767 0.53062 0.10147 0.0
C671 C 0.97555 0.51265 0.11721 0.0
C672 C 0.96334 0.48927 0.15946 0.0
C673 C 0.99711 0.55275 0.21301 0.0
C674 C 0.98272 0.5539 0.23237 0.0
C675 C 0.99142 0.53223 0.19914 0.0
C676 C 0.97133 0.51238 0.20456 0.0
C677 C 0.96317 0.53377 0.2389 0.0
C678 C 0.95758 0.51305 0.22517 0.0
C679 C 0.9652 0.49104 0.18882 0.0
C680 C 0.99047 0.42313 0.22043 0.0
C681 C 0.97843 0.41499 0.24472 0.0
C682 C 0.98542 0.43564 0.2021 0.0
C683 C 0.9679 0.4399 0.20736 0.0
C684 C 0.96093 0.41929 0.25008 0.0
C685 C 0.95578 0.43173 0.23157 0.0
C686 C 0.96428 0.45546 0.18988 0.0
C687 C 0.95118 0.39614 0.13131 0.0
C688 C 0.96725 0.40277 0.11077 0.0
C689 C 0.94983 0.41265 0.14793 0.0
C690 C 0.96439 0.43596 0.14398 0.0
C691 C 0.9819 0.42607 0.10716 0.0
C692 C 0.98034 0.44247 0.1234 0.0
C693 C 0.96315 0.45396 0.16051 0.0
H694 H 0.94821 0.54766 0.1416 0.0
H695 H 0.94299 0.51515 0.16781 0.0
H696 H 0.98676 0.53419 0.08247 0.0
H697 H 0.98355 0.50325 0.11028 0.0
H698 H 0.01264 0.56787 0.20822 0.0
H699 H 0.00258 0.53188 0.1839 0.0
H700 H 0.9519 0.5342 0.2539 0.0
H701 H 0.9422 0.49775 0.22993 0.0
H702 H 0.00401 0.42001 0.21574 0.0
H703 H 0.99573 0.44259 0.18431 0.0
H704 H 0.95164 0.41355 0.26887 0.0
H705 H 0.94257 0.43533 0.2364 0.0
H706 H 0.93969 0.37825 0.13442 0.0
H707 H 0.93726 0.40724 0.16352 0.0
H708 H 0.99426 0.43161 0.09127 0.0
H709 H 0.99174 0.46034 0.11996 0.0
N710 N 0.96262 0.47087 0.14654 0.0
N711 N 0.96528 0.47396 0.20285 0.0
C712 C 0.45631 0.39737 0.12785 0.0
C713 C 0.44086 0.40274 0.11584 0.0
C714 C 0.4724 0.41228 0.14779 0.0
C715 C 0.47338 0.43281 0.15563 0.0
C716 C 0.44149 0.42297 0.1245 0.0
C717 C 0.45775 0.43797 0.144 0.0
C718 C 0.49245 0.45048 0.1726 0.0
C719 C 0.43795 0.41858 0.2359 0.0
C720 C 0.44297 0.40742 0.25664 0.0
C721 C 0.45401 0.43177 0.21694 0.0
C722 C 0.47531 0.43393 0.21831 0.0
C723 C 0.46394 0.40868 0.25703 0.0
C724 C 0.48008 0.42208 0.23823 0.0
C725 C 0.49347 0.45098 0.20184 0.0
C726 C 0.55958 0.54851 0.22716 0.0
C727 C 0.57542 0.54874 0.24617 0.0
C728 C 0.5437 0.52828 0.21347 0.0
C729 C 0.54316 0.50775 0.21863 0.0
C730 C 0.57405 0.52797 0.2526 0.0
C731 C 0.55791 0.50755 0.23899 0.0
C732 C 0.52738 0.48683 0.20222 0.0
C733 C 0.58293 0.53224 0.14829 0.0
C734 C 0.57621 0.53919 0.12457 0.0
C735 C 0.56708 0.51443 0.1636 0.0
C736 C 0.54415 0.50389 0.15601 0.0
C737 C 0.55352 0.52798 0.11613 0.0
C738 C 0.5376 0.51049 0.13176 0.0
C739 C 0.52688 0.48579 0.17282 0.0
H740 H 0.45626 0.38196 0.12129 0.0
H741 H 0.48465 0.40828 0.1562 0.0
H742 H 0.43009 0.42774 0.11515 0.0
H743 H 0.45858 0.45398 0.14941 0.0
H744 H 0.42201 0.41808 0.23523 0.0
H745 H 0.45019 0.4413 0.20226 0.0
H746 H 0.4681 0.39985 0.27238 0.0
H747 H 0.4965 0.42369 0.23971 0.0
H748 H 0.55978 0.56415 0.22243 0.0
H749 H 0.53207 0.52871 0.19838 0.0
H750 H 0.58595 0.52765 0.26732 0.0
H751 H 0.55752 0.49179 0.24352 0.0
H752 H 0.60043 0.54062 0.15496 0.0
H753 H 0.57279 0.50905 0.18141 0.0
H754 H 0.54805 0.53322 0.09792 0.0
H755 H 0.52009 0.50249 0.12523 0.0
N756 N 0.50926 0.46776 0.1592 0.0
N757 N 0.51085 0.46921 0.21563 0.0
C758 C 0.44908 0.04681 0.23614 0.0
C759 C 0.4375 0.02882 0.25405 0.0
C760 C 0.46552 0.04714 0.21927 0.0
C761 C 0.47071 0.0296 0.22039 0.0
C762 C 0.44263 0.01127 0.25494 0.0
C763 C 0.45921 0.01176 0.23844 0.0
C764 C 0.48911 0.03039 0.20443 0.0
C765 C 0.43489 0.0147 0.13895 0.0
C766 C 0.44155 0.02622 0.11394 0.0
C767 C 0.45079 0.01764 0.15956 0.0
C768 C 0.47371 0.03315 0.1564 0.0
C769 C 0.46436 0.04222 0.11116 0.0
C770 C 0.48016 0.04573 0.13216 0.0
C771 C 0.49136 0.0339 0.17555 0.0
C772 C 0.56296 0.01489 0.14431 0.0
C773 C 0.57687 0.03392 0.12877 0.0
C774 C 0.54679 0.01507 0.16101 0.0
C775 C 0.54417 0.03425 0.16242 0.0
C776 C 0.57427 0.05318 0.13038 0.0
C777 C 0.55784 0.05321 0.14681 0.0
C778 C 0.52598 0.03383 0.17824 0.0
C779 C 0.57654 0.03696 0.24252 0.0
C780 C 0.56764 0.01933 0.26144 0.0
C781 C 0.5623 0.04017 0.22433 0.0
C782 C 0.53893 0.02554 0.22442 0.0
C783 C 0.54435 0.00451 0.26112 0.0
C784 C 0.53018 0.00765 0.24295 0.0
C785 C 0.5232 0.02926 0.20674 0.0
H786 H 0.44547 0.06059 0.23531 0.0
H787 H 0.4745 0.06129 0.20584 0.0
H788 H 0.43417 0.99742 0.26894 0.0
H789 H 0.46311 0.99819 0.23982 0.0
H790 H 0.41742 0.0028 0.14233 0.0
H791 H 0.44504 0.00682 0.17717 0.0
H792 H 0.47021 0.05137 0.09221 0.0
H793 H 0.49767 0.05766 0.12885 0.0
H794 H 0.56437 -0.00031 0.14325 0.0
H795 H 0.53601 6e-05 0.17238 0.0
H796 H 0.58504 0.06827 0.11916 0.0
H797 H 0.55587 0.06809 0.14751 0.0
H798 H 0.59442 0.0487 0.24248 0.0
H799 H 0.56954 0.05447 0.21083 0.0
H800 H 0.53705 0.99056 0.27517 0.0
H801 H 0.51228 0.99611 0.24348 0.0
N802 N 0.50492 0.02789 0.21868 0.0
N803 N 0.50996 0.03581 0.16385 0.0
C804 C 0.56372 0.98291 0.78863 0.0
C805 C 0.5581 0.96871 0.76459 0.0
C806 C 0.54752 0.97894 0.80815 0.0
C807 C 0.52555 0.96056 0.80401 0.0
C808 C 0.53648 0.94965 0.76133 0.0
C809 C 0.52033 0.94572 0.78074 0.0
C810 C 0.50715 0.95845 0.8212 0.0
C811 C 0.55027 0.947 0.88603 0.0
C812 C 0.56006 0.96506 0.90606 0.0
C813 C 0.53402 0.94547 0.86674 0.0
C814 C 0.5272 0.9618 0.86759 0.0
C815 C 0.55379 0.9818 0.90606 0.0
C816 C 0.53734 0.98004 0.88722 0.0
C817 C 0.50789 0.95891 0.85049 0.0
C818 C 0.41229 0.93251 0.87436 0.0
C819 C 0.41622 0.94547 0.89911 0.0
C820 C 0.43022 0.93515 0.8588 0.0
C821 C 0.45234 0.95117 0.86748 0.0
C822 C 0.43832 0.96045 0.90866 0.0
C823 C 0.45625 0.96326 0.89296 0.0
C824 C 0.47151 0.95492 0.85064 0.0
C825 C 0.43359 0.97845 0.79643 0.0
C826 C 0.42501 0.96631 0.7709 0.0
C827 C 0.44814 0.97472 0.81325 0.0
C828 C 0.45435 0.95868 0.805 0.0
C829 C 0.43105 0.95009 0.76284 0.0
C830 C 0.44565 0.94642 0.77962 0.0
C831 C 0.47145 0.95621 0.8214 0.0
H832 H 0.58026 0.99779 0.79151 0.0
H833 H 0.55185 0.99099 0.82553 0.0
H834 H 0.53184 0.93825 0.74318 0.0
H835 H 0.50348 0.93149 0.77708 0.0
H836 H 0.55489 0.93392 0.88566 0.0
H837 H 0.52616 0.9311 0.85196 0.0
H838 H 0.56098 0.99578 0.92142 0.0
H839 H 0.53217 0.99271 0.88833 0.0
H840 H 0.39533 0.92069 0.86681 0.0
H841 H 0.42676 0.92486 0.83986 0.0
H842 H 0.44167 0.97068 0.92766 0.0
H843 H 0.47316 0.97543 0.90034 0.0
H844 H 0.42982 0.99151 0.80289 0.0
H845 H 0.45517 0.985 0.83225 0.0
H846 H 0.42474 0.94047 0.74328 0.0
H847 H 0.45034 0.93414 0.77263 0.0
N848 N 0.48906 0.95738 0.80784 0.0
N849 N 0.48993 0.95684 0.86401 0.0
C850 C 0.01326 0.57906 0.79818 0.0
C851 C 0.02617 0.588 0.77469 0.0
C852 C 0.01784 0.5662 0.81649 0.0
C853 C 0.03569 0.56232 0.81201 0.0
C854 C 0.04405 0.58415 0.77012 0.0
C855 C 0.04868 0.57127 0.78858 0.0
C856 C 0.03896 0.54658 0.8296 0.0
C857 C 0.0516 0.60549 0.8889 0.0
C858 C 0.03468 0.59889 0.90828 0.0
C859 C 0.05299 0.58901 0.87228 0.0
C860 C 0.03774 0.56571 0.87526 0.0
C861 C 0.01933 0.57561 0.91091 0.0
C862 C 0.02097 0.5592 0.89476 0.0
C863 C 0.03927 0.54776 0.85896 0.0
C864 C 0.04801 0.46493 0.88663 0.0
C865 C 0.03499 0.45862 0.91036 0.0
C866 C 0.05009 0.48287 0.8708 0.0
C867 C 0.03864 0.49447 0.87782 0.0
C868 C 0.02491 0.47134 0.91849 0.0
C869 C 0.02656 0.4889 0.90229 0.0
C870 C 0.03927 0.51255 0.86025 0.0
C871 C 0.00663 0.44981 0.80483 0.0
C872 C 0.02176 0.44861 0.7867 0.0
C873 C 0.01206 0.47018 0.81896 0.0
C874 C 0.03264 0.4899 0.81507 0.0
C875 C 0.04214 0.46861 0.78214 0.0
C876 C 0.0474 0.48921 0.79599 0.0
C877 C 0.03826 0.5111 0.83086 0.0
H878 H -0.00059 0.58183 0.80226 0.0
H879 H 0.00692 0.5587 0.83367 0.0
H880 H 0.05407 0.5906 0.75198 0.0
H881 H 0.06221 0.56802 0.78438 0.0
H882 H 0.06376 0.62335 0.88676 0.0
H883 H 0.06622 0.5944 0.85758 0.0
H884 H 0.00639 0.57007 0.92605 0.0
H885 H 0.00907 0.54134 0.89747 0.0
H886 H 0.05626 0.45572 0.87997 0.0
H887 H 0.06058 0.48751 0.85298 0.0
H888 H 0.01558 0.46763 0.9373 0.0
H889 H 0.018 0.49787 0.90871 0.0
H890 H 0.99063 0.43484 0.80844 0.0
H891 H 0.00024 0.47051 0.83315 0.0
H892 H 0.0543 0.46821 0.76866 0.0
H893 H 0.06329 0.50438 0.79258 0.0
N894 N 0.03841 0.52826 0.81672 0.0
N895 N 0.03951 0.53075 0.87306 0.0
C896 C 0.55583 0.60416 0.78985 0.0
C897 C 0.56461 0.59395 0.77224 0.0
C898 C 0.5381 0.59074 0.80697 0.0
C899 C 0.52901 0.56699 0.80661 0.0
C900 C 0.55562 0.57027 0.77231 0.0
C901 C 0.53795 0.55694 0.78917 0.0
C902 C 0.50939 0.55193 0.82275 0.0
C903 C 0.56536 0.59173 0.88773 0.0
C904 C 0.55947 0.59908 0.91205 0.0
C905 C 0.54898 0.5777 0.86759 0.0
C906 C 0.52644 0.57167 0.8705 0.0
C907 C 0.53704 0.59348 0.9146 0.0
C908 C 0.52081 0.58008 0.89406 0.0
C909 C 0.5081 0.55414 0.85183 0.0
C910 C 0.4359 0.46207 0.88059 0.0
C911 C 0.42532 0.4675 0.90161 0.0
C912 C 0.45101 0.47889 0.86362 0.0
C913 C 0.45545 0.50141 0.8668 0.0
C914 C 0.43011 0.49015 0.90518 0.0
C915 C 0.44508 0.50696 0.88793 0.0
C916 C 0.47252 0.51958 0.85008 0.0
C917 C 0.41836 0.46766 0.79214 0.0
C918 C 0.42598 0.45828 0.77171 0.0
C919 C 0.43349 0.4876 0.80735 0.0
C920 C 0.45662 0.49813 0.80302 0.0
C921 C 0.44877 0.47017 0.76549 0.0
C922 C 0.46392 0.4897 0.78111 0.0
C923 C 0.4736 0.51768 0.82091 0.0
H924 H 0.56259 0.62243 0.79024 0.0
H925 H 0.53126 0.59878 0.82005 0.0
H926 H 0.56192 0.56195 0.75876 0.0
H927 H 0.53112 0.53865 0.78848 0.0
H928 H 0.58255 0.59622 0.88456 0.0
H929 H 0.55398 0.57082 0.85053 0.0
H930 H 0.53175 0.59862 0.93306 0.0
H931 H 0.50358 0.57554 0.89715 0.0
H932 H 0.43257 0.44477 0.87735 0.0
H933 H 0.45944 0.47431 0.84822 0.0
H934 H 0.42268 0.49497 0.92164 0.0
H935 H 0.44873 0.52436 0.89123 0.0
H936 H 0.40084 0.4591 0.79715 0.0
H937 H 0.42712 0.49433 0.82304 0.0
H938 H 0.45506 0.46396 0.74909 0.0
H939 H 0.48152 0.49774 0.77662 0.0
N940 N 0.4921 0.53391 0.80865 0.0
N941 N 0.4896 0.53784 0.86414 0.0
C942 C 0.65609 0.75317 0.45964 0.0
C943 C 0.63844 0.73917 0.44059 0.0
C944 C 0.65391 0.76779 0.47868 0.0
C945 C 0.63409 0.76883 0.479 0.0
C946 C 0.6184 0.73984 0.44154 0.0
C947 C 0.61635 0.75467 0.46034 0.0
C948 C 0.63278 0.78641 0.49638 0.0
C949 C 0.63681 0.73763 0.55574 0.0
C950 C 0.65354 0.74821 0.57695 0.0
C951 C 0.6311 0.75066 0.5389 0.0
C952 C 0.64239 0.77453 0.54266 0.0
C953 C 0.66385 0.77186 0.58162 0.0
C954 C 0.65852 0.78485 0.56455 0.0
C955 C 0.63714 0.78925 0.52548 0.0
C956 C 0.63209 0.87478 0.55365 0.0
C957 C 0.6502 0.88445 0.57317 0.0
C958 C 0.62678 0.85473 0.53848 0.0
C959 C 0.63977 0.84425 0.54221 0.0
C960 C 0.66216 0.87311 0.57816 0.0
C961 C 0.65709 0.85334 0.56277 0.0
C962 C 0.63565 0.82374 0.52547 0.0
C963 C 0.65235 0.87802 0.46426 0.0
C964 C 0.63315 0.87493 0.44954 0.0
C965 C 0.65177 0.86035 0.47913 0.0
C966 C 0.63201 0.83916 0.47958 0.0
C967 C 0.61347 0.85346 0.44951 0.0
C968 C 0.61299 0.83563 0.46419 0.0
C969 C 0.63139 0.82096 0.49643 0.0
H970 H 0.67199 0.75366 0.45899 0.0
H971 H 0.66806 0.779 0.49238 0.0
H972 H 0.60446 0.72927 0.42725 0.0
H973 H 0.601 0.75537 0.46002 0.0
H974 H 0.62843 0.71936 0.55185 0.0
H975 H 0.61786 0.74203 0.52312 0.0
H976 H 0.67628 0.78042 0.59834 0.0
H977 H 0.66727 0.80316 0.5684 0.0
H978 H 0.62243 0.88305 0.54958 0.0
H979 H 0.61267 0.84759 0.52373 0.0
H980 H 0.67575 0.87976 0.59366 0.0
H981 H 0.66715 0.84545 0.56656 0.0
H982 H 0.66785 0.89422 0.4644 0.0
H983 H 0.66673 0.86329 0.49055 0.0
H984 H 0.59828 0.85062 0.43881 0.0
H985 H 0.5976 0.81934 0.46426 0.0
N986 N 0.62993 0.80234 0.48305 0.0
N987 N 0.63826 0.80773 0.53861 0.0
C988 C 0.11489 0.73476 0.45643 0.0
C989 C 0.11117 0.74399 0.43245 0.0
C990 C 0.13018 0.74915 0.47748 0.0
C991 C 0.14152 0.77298 0.47505 0.0
C992 C 0.12245 0.7677 0.43014 0.0
C993 C 0.13736 0.78199 0.45117 0.0
C994 C 0.15896 0.78903 0.49569 0.0
C995 C 0.09689 0.75331 0.54656 0.0
C996 C 0.09937 0.74258 0.56986 0.0
C997 C 0.11545 0.7675 0.53118 0.0
C998 C 0.13673 0.77089 0.53859 0.0
C999 C 0.12053 0.74549 0.57677 0.0
C1000 C 0.13908 0.75967 0.56139 0.0
C1001 C 0.15693 0.78802 0.52484 0.0
C1002 C 0.22504 0.88287 0.56265 0.0
C1003 C 0.23465 0.87963 0.58688 0.0
C1004 C 0.21116 0.86449 0.5446 0.0
C1005 C 0.2068 0.84242 0.55006 0.0
C1006 C 0.22983 0.85743 0.59277 0.0
C1007 C 0.2159 0.83896 0.57457 0.0
C1008 C 0.1919 0.82296 0.53079 0.0
C1009 C 0.25305 0.8695 0.484 0.0
C1010 C 0.2486 0.87718 0.4592 0.0
C1011 C 0.23561 0.85173 0.49776 0.0
C1012 C 0.21337 0.84199 0.4874 0.0
C1013 C 0.22658 0.86691 0.44829 0.0
C1014 C 0.20913 0.84953 0.46227 0.0
C1015 C 0.1943 0.82349 0.50169 0.0
H1016 H 0.10648 0.71646 0.45848 0.0
H1017 H 0.13348 0.74164 0.49522 0.0
H1018 H 0.11975 0.7752 0.41191 0.0
H1019 H 0.14584 0.80025 0.44863 0.0
H1020 H 0.0807 0.75118 0.54068 0.0
H1021 H 0.11329 0.77641 0.51412 0.0
H1022 H 0.12291 0.73754 0.59476 0.0
H1023 H 0.15539 0.76228 0.56767 0.0
H1024 H 0.22844 0.89974 0.55747 0.0
H1025 H 0.20382 0.86756 0.52631 0.0
H1026 H 0.23663 0.85433 0.61152 0.0
H1027 H 0.2124 0.82201 0.57949 0.0
H1028 H 0.27001 0.8772 0.49264 0.0
H1029 H 0.23955 0.8457 0.51646 0.0
H1030 H 0.2228 0.87277 0.42929 0.0
H1031 H 0.19221 0.84224 0.45364 0.0
N1032 N 0.17767 0.80662 0.48552 0.0
N1033 N 0.17348 0.80503 0.5412 0.0
C1034 C 0.25243 0.39057 0.48377 0.0
C1035 C 0.24826 0.37961 0.45744 0.0
C1036 C 0.23465 0.3879 0.49976 0.0
C1037 C 0.2124 0.37364 0.48997 0.0
C1038 C 0.22611 0.36627 0.44713 0.0
C1039 C 0.20836 0.36333 0.46323 0.0
C1040 C 0.19309 0.36976 0.50671 0.0
C1041 C 0.22786 0.3414 0.5584 0.0
C1042 C 0.23475 0.35079 0.58555 0.0
C1043 C 0.21448 0.34692 0.54192 0.0
C1044 C 0.20811 0.36241 0.55192 0.0
C1045 C 0.22876 0.36661 0.5954 0.0
C1046 C 0.21544 0.37223 0.57882 0.0
C1047 C 0.19192 0.36641 0.53567 0.0
C1048 C 0.09637 0.33441 0.56005 0.0
C1049 C 0.09941 0.34588 0.58585 0.0
C1050 C 0.11448 0.34044 0.54299 0.0
C1051 C 0.13591 0.35845 0.55106 0.0
C1052 C 0.12071 0.36424 0.59361 0.0
C1053 C 0.1388 0.37037 0.57644 0.0
C1054 C 0.15577 0.36328 0.53494 0.0
C1055 C 0.11345 0.376 0.46976 0.0
C1056 C 0.10466 0.35839 0.44912 0.0
C1057 C 0.12972 0.37787 0.48928 0.0
C1058 C 0.13756 0.36237 0.48796 0.0
C1059 C 0.11207 0.34256 0.44851 0.0
C1060 C 0.12856 0.3447 0.46753 0.0
C1061 C 0.15649 0.36528 0.50585 0.0
H1062 H 0.26944 0.40095 0.49209 0.0
H1063 H 0.23831 0.39679 0.51982 0.0
H1064 H 0.22248 0.35734 0.42708 0.0
H1065 H 0.1914 0.35242 0.45502 0.0
H1066 H 0.23245 0.32939 0.55008 0.0
H1067 H 0.20855 0.33848 0.52165 0.0
H1068 H 0.23371 0.37402 0.61629 0.0
H1069 H 0.21051 0.38397 0.58719 0.0
H1070 H 0.08007 0.32038 0.55337 0.0
H1071 H 0.11182 0.33035 0.52409 0.0
H1072 H 0.12356 0.37329 0.61344 0.0
H1073 H 0.15522 0.38413 0.58329 0.0
H1074 H 0.10795 0.38841 0.47051 0.0
H1075 H 0.13668 0.39177 0.50473 0.0
H1076 H 0.10565 0.32897 0.43265 0.0
H1077 H 0.13451 0.33267 0.46609 0.0
N1078 N 0.17517 0.36866 0.49304 0.0
N1079 N 0.17349 0.36382 0.54866 0.0
C1080 C 0.99159 0.37369 0.06742 0.0
C1081 C 0.97398 0.36018 0.04808 0.0
C1082 C 0.9889 0.38645 0.08874 0.0
C1083 C 0.96839 0.38584 0.09186 0.0
H1084 H 0.00804 0.37568 0.065 0.0
H1085 H 0.00325 0.39766 0.10217 0.0
S1086 S 0.91624 0.35092 0.04917 0.0
N1087 N 0.93467 0.34528 0.03522 0.0
N1088 N 0.92965 0.36912 0.07553 0.0
C1089 C 0.95019 0.37112 0.07406 0.0
C1090 C 0.95298 0.35833 0.05211 0.0
C1091 C 0.61896 0.59994 0.10955 0.0
C1092 C 0.62424 0.59829 0.08187 0.0
C1093 C 0.60365 0.58061 0.12331 0.0
C1094 C 0.59274 0.55906 0.10965 0.0
H1095 H 0.62693 0.61628 0.12081 0.0
H1096 H 0.60007 0.58254 0.14466 0.0
S1097 S 0.6 0.54563 0.03699 0.0
N1098 N 0.61719 0.5734 0.04119 0.0
N1099 N 0.58781 0.53704 0.06696 0.0
C1100 C 0.59759 0.55714 0.08191 0.0
C1101 C 0.61355 0.57678 0.06803 0.0
C1102 C 0.41282 0.03313 0.04933 0.0
C1103 C 0.39633 0.01061 0.04192 0.0
C1104 C 0.42679 0.03811 0.07317 0.0
C1105 C 0.42519 0.02069 0.0901 0.0
H1106 H 0.41492 0.04699 0.03664 0.0
H1107 H 0.4391 0.05576 0.07819 0.0
S1108 S 0.38566 0.9586 0.07787 0.0
N1109 N 0.37933 0.9707 0.05268 0.0
N1110 N 0.40631 0.97971 0.09641 0.0
C1111 C 0.40876 0.99802 0.08259 0.0
C1112 C 0.3942 0.99307 0.05875 0.0
C1113 C 0.37808 0.94307 0.95619 0.0
C1114 C 0.36514 0.95095 0.94275 0.0
C1115 C 0.39425 0.94057 0.94176 0.0
C1116 C 0.39747 0.94536 0.91341 0.0
H1117 H 0.37653 0.93999 0.97821 0.0
H1118 H 0.40466 0.93541 0.95292 0.0
S1119 S 0.36668 0.96496 0.86859 0.0
N1120 N 0.35583 0.96248 0.89942 0.0
N1121 N 0.38585 0.95738 0.87229 0.0
C1122 C 0.38389 0.95221 0.89956 0.0
C1123 C 0.36779 0.95511 0.91426 0.0
C1124 C 0.04669 0.41571 0.94566 0.0
C1125 C 0.02538 0.39896 0.95379 0.0
C1126 C 0.04974 0.43507 0.93198 0.0
C1127 C 0.0316 0.43853 0.92611 0.0
H1128 H 0.06106 0.41356 0.94925 0.0
H1129 H 0.06644 0.44739 0.92589 0.0
S1130 S 0.97273 0.40075 0.94558 0.0
N1131 N 0.98632 0.38824 0.95738 0.0
N1132 N 0.99163 0.42378 0.93046 0.0
C1133 C 0.01031 0.42219 0.93489 0.0
C1134 C 0.0073 0.40261 0.949 0.0
C1135 C 0.58956 0.63884 0.97517 0.0
C1136 C 0.60476 0.63202 0.98399 0.0
C1137 C 0.57572 0.62884 0.95122 0.0
C1138 C 0.57611 0.61119 0.93559 0.0
H1139 H 0.58825 0.65188 0.98699 0.0
H1140 H 0.56434 0.63474 0.9452 0.0
S1141 S 0.61212 0.58623 0.95155 0.0
N1142 N 0.61933 0.60652 0.97579 0.0
N1143 N 0.59262 0.58683 0.9318 0.0
C1144 C 0.59137 0.60429 0.94435 0.0
C1145 C 0.60581 0.61489 0.96831 0.0
C1146 C 0.04985 0.64172 0.96825 0.0
C1147 C 0.02974 0.64191 0.97215 0.0
C1148 C 0.05188 0.62903 0.94624 0.0
C1149 C 0.0338 0.61582 0.9275 0.0
H1150 H 0.06384 0.65063 0.98305 0.0
H1151 H 0.06724 0.62845 0.94491 0.0
S1152 S 0.97851 0.61245 0.92614 0.0
N1153 N 0.99214 0.6294 0.9534 0.0
N1154 N 0.99597 0.60532 0.9124 0.0
C1155 C 0.01413 0.61695 0.92999 0.0
C1156 C 0.01212 0.6301 0.95217 0.0
C1157 C 0.40095 0.41558 0.94598 0.0
C1158 C 0.37933 0.4116 0.95091 0.0
C1159 C 0.41596 0.4342 0.93095 0.0
C1160 C 0.40984 0.44946 0.92004 0.0
H1161 H 0.40626 0.40406 0.95348 0.0
H1162 H 0.43237 0.43642 0.92739 0.0
S1163 S 0.35527 0.44688 0.92814 0.0
N1164 N 0.35274 0.42481 0.94496 0.0
N1165 N 0.38078 0.45967 0.91604 0.0
C1166 C 0.38852 0.44617 0.92579 0.0
C1167 C 0.3733 0.42727 0.94141 0.0
C1168 C 0.61045 0.98872 0.95597 0.0
C1169 C 0.60332 0.97225 0.97649 0.0
C1170 C 0.59679 0.98577 0.93249 0.0
C1171 C 0.5757 0.96605 0.92831 0.0
H1172 H 0.6262 0.00459 0.95868 0.0
H1173 H 0.60246 -0.00065 0.91793 0.0
S1174 S 0.55005 0.9168 0.97407 0.0
N1175 N 0.57432 0.93474 0.98987 0.0
N1176 N 0.54884 0.92917 0.94548 0.0
C1177 C 0.56889 0.94888 0.94771 0.0
C1178 C 0.58264 0.95199 0.97186 0.0
C1179 C 0.6227 0.02255 0.10646 0.0
C1180 C 0.62601 0.02931 0.0788 0.0
C1181 C 0.60729 0.02479 0.12256 0.0
C1182 C 0.59425 0.03353 0.11152 0.0
H1183 H 0.63208 0.01535 0.11579 0.0
H1184 H 0.60545 0.01941 0.1438 0.0
S1185 S 0.59632 0.05332 0.03984 0.0
N1186 N 0.61536 0.04536 0.04097 0.0
N1187 N 0.58558 0.04889 0.07095 0.0
C1188 C 0.59761 0.04069 0.08392 0.0
C1189 C 0.61367 0.03873 0.06761 0.0
C1190 C 0.95945 0.58936 0.07716 0.0
C1191 C 0.98104 0.6055 0.06909 0.0
C1192 C 0.95545 0.56942 0.09019 0.0
C1193 C 0.97288 0.56476 0.09544 0.0
H1194 H 0.94561 0.59242 0.07401 0.0
H1195 H 0.93858 0.55761 0.09624 0.0
S1196 S 0.03208 0.60059 0.07607 0.0
N1197 N 0.01956 0.61437 0.06501 0.0
N1198 N 0.01249 0.57776 0.09078 0.0
C1199 C 0.99444 0.58051 0.0868 0.0
C1200 C 0.99841 0.60066 0.07334 0.0
C1201 C 0.42099 0.37567 0.04365 0.0
C1202 C 0.39817 0.36939 0.04274 0.0
C1203 C 0.43441 0.3851 0.06799 0.0
C1204 C 0.42556 0.38872 0.09232 0.0
H1205 H 0.42889 0.37423 0.02512 0.0
H1206 H 0.45211 0.39076 0.0673 0.0
S1207 S 0.36638 0.37232 0.10262 0.0
N1208 N 0.36687 0.36519 0.06976 0.0
N1209 N 0.3923 0.38316 0.11518 0.0
C1210 C 0.40257 0.38123 0.09235 0.0
C1211 C 0.38881 0.37146 0.06769 0.0
C1212 C 0.63913 0.71569 0.36838 0.0
C1213 C 0.65065 0.70367 0.3725 0.0
C1214 C 0.63479 0.72648 0.39055 0.0
C1215 C 0.64163 0.72568 0.41801 0.0
H1216 H 0.63397 0.71752 0.34766 0.0
H1217 H 0.62669 0.73623 0.3859 0.0
S1218 S 0.67017 0.69445 0.44085 0.0
N1219 N 0.66746 0.69033 0.40675 0.0
N1220 N 0.65887 0.71026 0.44847 0.0
C1221 C 0.65232 0.71294 0.42272 0.0
C1222 C 0.65688 0.702 0.40003 0.0
C1223 C 0.29299 0.9377 0.44584 0.0
C1224 C 0.29846 0.93624 0.41818 0.0
C1225 C 0.27748 0.91828 0.45933 0.0
C1226 C 0.26659 0.89683 0.44543 0.0
H1227 H 0.3007 0.95401 0.45715 0.0
H1228 H 0.27346 0.92016 0.48049 0.0
S1229 S 0.27496 0.88373 0.37309 0.0
N1230 N 0.29207 0.9115 0.37756 0.0
N1231 N 0.26239 0.87501 0.40281 0.0
C1232 C 0.272 0.89504 0.4179 0.0
C1233 C 0.28812 0.91476 0.4043 0.0
C1234 C 0.05399 0.33344 0.39966 0.0
C1235 C 0.06082 0.3496 0.37881 0.0
C1236 C 0.06783 0.33691 0.42313 0.0
C1237 C 0.08876 0.35689 0.42696 0.0
H1238 H 0.03834 0.31743 0.39718 0.0
H1239 H 0.06245 0.32355 0.43797 0.0
S1240 S 0.1136 0.40547 0.38018 0.0
N1241 N 0.08938 0.38705 0.36464 0.0
N1242 N 0.11515 0.39364 0.4091 0.0
C1243 C 0.09528 0.37374 0.40719 0.0
C1244 C 0.08137 0.37008 0.38302 0.0
C1245 C 0.03661 0.29403 0.25093 0.0
C1246 C 0.03416 0.28961 0.27939 0.0
C1247 C 0.05211 0.2912 0.2357 0.0
C1248 C 0.06605 0.28431 0.24856 0.0
H1249 H 0.02673 0.30017 0.24043 0.0
H1250 H 0.05391 0.29542 0.214 0.0
S1251 S 0.06578 0.26986 0.32232 0.0
N1252 N 0.04623 0.27706 0.31963 0.0
N1253 N 0.07601 0.27232 0.29106 0.0
C1254 C 0.06343 0.27926 0.27684 0.0
C1255 C 0.04726 0.28171 0.29226 0.0
C1256 C 0.70837 0.73692 0.25912 0.0
C1257 C 0.71326 0.73673 0.28756 0.0
C1258 C 0.71254 0.75702 0.24665 0.0
C1259 C 0.72136 0.77764 0.26227 0.0
H1260 H 0.70099 0.7213 0.24639 0.0
H1261 H 0.70808 0.75626 0.2248 0.0
S1262 S 0.73746 0.78647 0.33732 0.0
N1263 N 0.72801 0.75905 0.33088 0.0
N1264 N 0.73539 0.79691 0.30747 0.0
C1265 C 0.72666 0.77784 0.29064 0.0
C1266 C 0.72279 0.75737 0.30327 0.0
C1267 C 0.25207 0.96661 0.32001 0.0
C1268 C 0.27335 0.96849 0.32206 0.0
C1269 C 0.23797 0.95663 0.29628 0.0
C1270 C 0.24452 0.94793 0.27392 0.0
H1271 H 0.24599 0.97235 0.33715 0.0
H1272 H 0.22141 0.9547 0.296 0.0
S1273 S 0.29884 0.94989 0.26763 0.0
N1274 N 0.30068 0.96196 0.29846 0.0
N1275 N 0.27388 0.94288 0.25429 0.0
C1276 C 0.26598 0.95047 0.2751 0.0
C1277 C 0.28048 0.96087 0.29903 0.0
C1278 C 0.70949 0.95785 0.32542 0.0
C1279 C 0.69554 0.96722 0.32078 0.0
C1280 C 0.71378 0.94632 0.30415 0.0
C1281 C 0.70464 0.94395 0.27719 0.0
H1282 H 0.71649 0.95851 0.34597 0.0
H1283 H 0.72376 0.93852 0.30904 0.0
S1284 S 0.6689 0.96691 0.25282 0.0
N1285 N 0.67386 0.97454 0.28618 0.0
N1286 N 0.68231 0.95297 0.24617 0.0
C1287 C 0.69176 0.95423 0.27163 0.0
C1288 C 0.68713 0.96585 0.29341 0.0
C1289 C 0.04686 0.7626 0.28811 0.0
C1290 C 0.0357 0.74183 0.2726 0.0
C1291 C 0.06247 0.78274 0.27569 0.0
C1292 C 0.0669 0.78274 0.24731 0.0
H1293 H 0.0442 0.76312 0.31013 0.0
H1294 H 0.07138 0.79833 0.28839 0.0
S1295 S 0.04112 0.73308 0.19746 0.0
N1296 N 0.0295 0.72269 0.22723 0.0
N1297 N 0.05852 0.76053 0.20399 0.0
C1298 C 0.05524 0.76227 0.23146 0.0
C1299 C 0.03971 0.7418 0.2441 0.0
C1300 C 0.24506 0.30219 0.31655 0.0
C1301 C 0.26835 0.31131 0.31466 0.0
C1302 C 0.2315 0.29945 0.29312 0.0
C1303 C 0.24052 0.30539 0.26672 0.0
H1304 H 0.23728 0.29801 0.33648 0.0
H1305 H 0.21383 0.29322 0.29579 0.0
S1306 S 0.29983 0.32784 0.24957 0.0
N1307 N 0.29952 0.32479 0.2835 0.0
N1308 N 0.27372 0.31933 0.23944 0.0
C1309 C 0.26345 0.31333 0.26408 0.0
C1310 C 0.27743 0.31639 0.28804 0.0
C1311 C 0.29461 0.36792 0.44009 0.0
C1312 C 0.29783 0.37284 0.41181 0.0
C1313 C 0.27943 0.37146 0.45505 0.0
C1314 C 0.26661 0.37967 0.44213 0.0
H1315 H 0.30357 0.36078 0.45065 0.0
H1316 H 0.27693 0.36671 0.47655 0.0
S1317 S 0.26949 0.39622 0.36888 0.0
N1318 N 0.28785 0.38744 0.37174 0.0
N1319 N 0.25875 0.39366 0.39983 0.0
C1320 C 0.27013 0.38536 0.41408 0.0
C1321 C 0.28594 0.38211 0.39892 0.0
C1322 C 0.64602 0.9352 0.4363 0.0
C1323 C 0.63756 0.93362 0.40905 0.0
C1324 C 0.64402 0.91606 0.44927 0.0
C1325 C 0.63373 0.89452 0.43543 0.0
H1326 H 0.65432 0.95143 0.44781 0.0
H1327 H 0.6507 0.91822 0.47037 0.0
S1328 S 0.60931 0.88131 0.36343 0.0
N1329 N 0.61843 0.9088 0.36852 0.0
N1330 N 0.61521 0.8728 0.39263 0.0
C1331 C 0.62498 0.8926 0.40819 0.0
C1332 C 0.62679 0.91215 0.39506 0.0
C1333 C 0.09024 0.72074 0.35911 0.0
C1334 C 0.06685 0.7075 0.36152 0.0
C1335 C 0.10452 0.73156 0.38241 0.0
C1336 C 0.09607 0.72936 0.40914 0.0
H1337 H 0.09762 0.72371 0.33893 0.0
H1338 H 0.12229 0.74239 0.37938 0.0
S1339 S 0.03663 0.69506 0.42761 0.0
N1340 N 0.03616 0.69151 0.39352 0.0
N1341 N 0.06323 0.71191 0.43722 0.0
C1342 C 0.07298 0.71519 0.41224 0.0
C1343 C 0.05832 0.70426 0.38847 0.0
C1344 C 0.29791 0.04836 0.71107 0.0
C1345 C 0.30913 0.03604 0.71523 0.0
C1346 C 0.29393 0.05947 0.73317 0.0
C1347 C 0.30084 0.05873 0.7606 0.0
H1348 H 0.29263 0.05008 0.69038 0.0
H1349 H 0.28596 0.06934 0.72851 0.0
S1350 S 0.32892 0.02706 0.78352 0.0
N1351 N 0.32592 0.02267 0.74945 0.0
N1352 N 0.31803 0.04327 0.79109 0.0
C1353 C 0.3114 0.04587 0.76535 0.0
C1354 C 0.31559 0.03458 0.74271 0.0
C1355 C 0.95588 0.23854 0.7437 0.0
C1356 C 0.96806 0.2599 0.75775 0.0
C1357 C 0.9397 0.21946 0.75741 0.0
C1358 C 0.93547 0.22122 0.78557 0.0
H1359 H 0.95804 0.23682 0.72174 0.0
H1360 H 0.92974 0.20355 0.74559 0.0
S1361 S 0.96588 0.27252 0.83255 0.0
N1362 N 0.97669 0.28113 0.80192 0.0
N1363 N 0.94694 0.24528 0.82778 0.0
C1364 C 0.94877 0.24214 0.80019 0.0
C1365 C 0.96489 0.2615 0.78623 0.0
C1366 C 0.7326 0.65982 0.7217 0.0
C1367 C 0.73301 0.67727 0.70622 0.0
C1368 C 0.7461 0.66481 0.74588 0.0
C1369 C 0.76018 0.68746 0.75596 0.0
H1370 H 0.72229 0.64218 0.71455 0.0
H1371 H 0.74593 0.65073 0.75626 0.0
S1372 S 0.76496 0.73911 0.72428 0.0
N1373 N 0.74745 0.71786 0.70297 0.0
N1374 N 0.77187 0.72739 0.74943 0.0
C1375 C 0.75994 0.70503 0.74109 0.0
C1376 C 0.74659 0.6999 0.71601 0.0
C1377 C 0.70411 0.61984 0.57912 0.0
C1378 C 0.70216 0.6156 0.60761 0.0
C1379 C 0.72013 0.61809 0.56378 0.0
C1380 C 0.73501 0.61229 0.57643 0.0
H1381 H 0.69373 0.62548 0.56881 0.0
H1382 H 0.72154 0.6223 0.54208 0.0
S1383 S 0.7359 0.59818 0.65017 0.0
N1384 N 0.71536 0.60396 0.64765 0.0
N1385 N 0.74601 0.60101 0.61878 0.0
C1386 C 0.73244 0.60671 0.60458 0.0
C1387 C 0.71586 0.6083 0.62022 0.0
C1388 C 0.37681 0.08636 0.63923 0.0
C1389 C 0.36649 0.06527 0.62433 0.0
C1390 C 0.38022 0.10629 0.62659 0.0
C1391 C 0.37396 0.10578 0.5985 0.0
H1392 H 0.38161 0.08735 0.66098 0.0
H1393 H 0.38768 0.12214 0.63883 0.0
S1394 S 0.34732 0.05517 0.55016 0.0
N1395 N 0.35058 0.04529 0.57982 0.0
N1396 N 0.35749 0.08276 0.55608 0.0
C1397 C 0.36421 0.08496 0.58325 0.0
C1398 C 0.36035 0.06469 0.59617 0.0
C1399 C 0.94632 0.2831 0.63982 0.0
C1400 C 0.94042 0.29311 0.66157 0.0
C1401 C 0.93199 0.27263 0.61641 0.0
C1402 C 0.91152 0.27227 0.61356 0.0
H1403 H 0.96158 0.2823 0.64149 0.0
H1404 H 0.93662 0.26413 0.60081 0.0
S1405 S 0.88914 0.29784 0.66303 0.0
N1406 N 0.91322 0.30319 0.67773 0.0
N1407 N 0.88659 0.28389 0.63337 0.0
C1408 C 0.90595 0.28324 0.63431 0.0
C1409 C 0.92032 0.29356 0.65841 0.0
C1410 C 0.33425 0.28497 0.6373 0.0
C1411 C 0.351 0.29785 0.65786 0.0
C1412 C 0.33801 0.27311 0.61577 0.0
C1413 C 0.35879 0.27414 0.61367 0.0
H1414 H 0.31773 0.283 0.6387 0.0
H1415 H 0.32435 0.2625 0.60113 0.0
S1416 S 0.40879 0.30717 0.66055 0.0
N1417 N 0.38961 0.31209 0.67363 0.0
N1418 N 0.39672 0.29015 0.63284 0.0
C1419 C 0.37605 0.28796 0.63312 0.0
C1420 C 0.37213 0.29972 0.6553 0.0
C1421 C 0.70264 0.07217 0.58046 0.0
C1422 C 0.6979 0.07197 0.60872 0.0
C1423 C 0.71833 0.09224 0.56832 0.0
C1424 C 0.73013 0.11274 0.58417 0.0
H1425 H 0.6945 0.05656 0.5677 0.0
H1426 H 0.72199 0.09149 0.54669 0.0
S1427 S 0.72328 0.12157 0.6587 0.0
N1428 N 0.70548 0.0942 0.65196 0.0
N1429 N 0.73548 0.132 0.62919 0.0
C1430 C 0.72513 0.11298 0.61225 0.0
C1431 C 0.70882 0.09256 0.62453 0.0
C1432 C 0.94596 0.65432 0.625 0.0
C1433 C 0.93701 0.64912 0.65162 0.0
C1434 C 0.93203 0.64874 0.60103 0.0
C1435 C 0.90859 0.63771 0.60268 0.0
H1436 H 0.96391 0.66305 0.6226 0.0
H1437 H 0.9397 0.65333 0.58105 0.0
S1438 S 0.87656 0.62078 0.6672 0.0
N1439 N 0.90298 0.63225 0.678 0.0
N1440 N 0.87701 0.62217 0.63307 0.0
C1441 C 0.89937 0.63213 0.62906 0.0
C1442 C 0.91351 0.63772 0.65347 0.0
C1443 C 0.96402 0.70391 0.77711 0.0
C1444 C 0.96635 0.70999 0.74919 0.0
C1445 C 0.94794 0.70484 0.79328 0.0
C1446 C 0.93331 0.71159 0.78207 0.0
H1447 H 0.97446 0.69793 0.78645 0.0
H1448 H 0.94659 0.69968 0.8146 0.0
S1449 S 0.9328 0.7296 0.71004 0.0
N1450 N 0.95333 0.72375 0.71111 0.0
N1451 N 0.92248 0.72496 0.74139 0.0
C1452 C 0.93593 0.71848 0.75439 0.0
C1453 C 0.9526 0.71779 0.73795 0.0
C1454 C 0.30411 0.26789 0.77745 0.0
C1455 C 0.29578 0.26631 0.75013 0.0
C1456 C 0.30205 0.24875 0.79045 0.0
C1457 C 0.2919 0.22723 0.77654 0.0
H1458 H 0.31237 0.28413 0.78894 0.0
H1459 H 0.30862 0.25088 0.8116 0.0
S1460 S 0.26793 0.21412 0.70432 0.0
N1461 N 0.27693 0.24158 0.70947 0.0
N1462 N 0.27368 0.20558 0.73359 0.0
C1463 C 0.28328 0.22533 0.74924 0.0
C1464 C 0.28509 0.24487 0.7361 0.0
C1465 C 0.75349 0.05413 0.69549 0.0
C1466 C 0.73004 0.04101 0.69752 0.0
C1467 C 0.76766 0.06388 0.71913 0.0
C1468 C 0.75906 0.06094 0.74587 0.0
H1469 H 0.76104 0.05752 0.67539 0.0
H1470 H 0.78548 0.07448 0.71632 0.0
S1471 S 0.69931 0.02617 0.76324 0.0
N1472 N 0.69907 0.02426 0.729 0.0
N1473 N 0.72585 0.04249 0.77334 0.0
C1474 C 0.73579 0.04717 0.74842 0.0
C1475 C 0.72128 0.03721 0.72432 0.0
C1476 C 0.06467 0.32763 0.05718 0.0
C1477 C 0.04681 0.30905 0.04237 0.0
C1478 C 0.07859 0.32447 0.07601 0.0
C1479 C 0.07515 0.30258 0.08101 0.0
H1480 H 0.06832 0.34486 0.05372 0.0
H1481 H 0.09251 0.33939 0.08624 0.0
S1482 S 0.02917 0.24803 0.04997 0.0
N1483 N 0.02556 0.2678 0.03541 0.0
N1484 N 0.05135 0.26186 0.07124 0.0
C1485 C 0.05689 0.28379 0.06704 0.0
C1486 C 0.04283 0.28702 0.04766 0.0
C1487 C 0.65562 0.7308 0.08329 0.0
C1488 C 0.66973 0.72301 0.07327 0.0
C1489 C 0.66438 0.75202 0.09725 0.0
C1490 C 0.68759 0.76637 0.10176 0.0
H1491 H 0.63758 0.71997 0.08153 0.0
H1492 H 0.65282 0.75689 0.1055 0.0
S1493 S 0.73195 0.75529 0.07729 0.0
N1494 N 0.70829 0.73237 0.06675 0.0
N1495 N 0.72466 0.77227 0.09324 0.0
C1496 C 0.70198 0.75961 0.0902 0.0
C1497 C 0.69307 0.73794 0.07586 0.0
C1498 C 0.27549 0.94285 0.06306 0.0
C1499 C 0.27882 0.96234 0.04933 0.0
C1500 C 0.26008 0.9337 0.08415 0.0
C1501 C 0.24748 0.94376 0.09251 0.0
H1502 H 0.28438 0.93415 0.05698 0.0
H1503 H 0.2575 0.91818 0.09334 0.0
S1504 S 0.2518 0.99656 0.06557 0.0
N1505 N 0.26942 0.9924 0.04709 0.0
N1506 N 0.24075 0.97539 0.08712 0.0
C1507 C 0.25127 0.96377 0.07976 0.0
C1508 C 0.26687 0.97301 0.05811 0.0
C1509 C 0.31451 0.03518 0.95812 0.0
C1510 C 0.33736 0.04169 0.95906 0.0
C1511 C 0.30711 0.04885 0.94566 0.0
C1512 C 0.32231 0.06958 0.93397 0.0
H1513 H 0.30209 0.01882 0.96556 0.0
H1514 H 0.28931 0.04286 0.94451 0.0
S1515 S 0.38411 0.0954 0.93355 0.0
N1516 N 0.3753 0.07125 0.94947 0.0
N1517 N 0.36136 0.09658 0.92555 0.0
C1518 C 0.3453 0.07688 0.93619 0.0
C1519 C 0.35282 0.06303 0.94889 0.0
C1520 C 0.93267 0.25798 0.97089 0.0
C1521 C 0.95437 0.27105 0.96114 0.0
C1522 C 0.91759 0.23654 0.95857 0.0
C1523 C 0.92339 0.22771 0.9354 0.0
H1524 H 0.92701 0.26483 0.98733 0.0
H1525 H 0.9009 0.22725 0.96654 0.0
S1526 S 0.97868 0.25578 0.9024 0.0
N1527 N 0.98148 0.27361 0.92814 0.0
N1528 N 0.95292 0.23399 0.90379 0.0
C1529 C 0.94548 0.24041 0.92621 0.0
C1530 C 0.96097 0.26196 0.93931 0.0
C1531 C 0.7259 0.68065 0.97256 0.0
C1532 C 0.70619 0.65914 0.97069 0.0
C1533 C 0.74336 0.68625 0.95436 0.0
C1534 C 0.74183 0.67052 0.93372 0.0
H1535 H 0.72814 0.69314 0.98862 0.0
H1536 H 0.7585 0.70271 0.95712 0.0
S1537 S 0.69313 0.61295 0.91785 0.0
N1538 N 0.68563 0.62272 0.94481 0.0
N1539 N 0.71857 0.63336 0.91083 0.0
C1540 C 0.72196 0.64936 0.93082 0.0
C1541 C 0.70411 0.64365 0.94922 0.0
C1542 C 0.94802 0.68774 0.97316 0.0
C1543 C 0.94803 0.66714 0.96862 0.0
C1544 C 0.93376 0.69279 0.9575 0.0
C1545 C 0.91887 0.6774 0.93677 0.0
H1546 H 0.95876 0.69991 0.98936 0.0
H1547 H 0.93394 0.70859 0.96217 0.0
S1548 S 0.91397 0.62235 0.91434 0.0
N1549 N 0.93295 0.63207 0.94013 0.0
N1550 N 0.90627 0.64164 0.9109 0.0
C1551 C 0.91925 0.65715 0.93131 0.0
C1552 C 0.93379 0.65202 0.94714 0.0
C1553 C 0.32311 0.2681 0.96218 0.0
C1554 C 0.33239 0.2866 0.9445 0.0
C1555 C 0.31431 0.24564 0.95148 0.0
C1556 C 0.31391 0.24109 0.92276 0.0
H1557 H 0.32326 0.27107 0.98439 0.0
H1558 H 0.30791 0.23178 0.96568 0.0
S1559 S 0.33481 0.28342 0.86774 0.0
N1560 N 0.33991 0.29877 0.89691 0.0
N1561 N 0.32285 0.25664 0.87691 0.0
C1562 C 0.32248 0.25937 0.90491 0.0
C1563 C 0.33184 0.28212 0.91576 0.0
C1564 C 0.72231 0.04242 0.96016 0.0
C1565 C 0.7038 0.04586 0.95961 0.0
C1566 C 0.73929 0.05258 0.94101 0.0
C1567 C 0.73846 0.06668 0.92069 0.0
H1568 H 0.72404 0.03219 0.97588 0.0
H1569 H 0.7536 0.05012 0.94283 0.0
S1570 S 0.69281 0.0795 0.9083 0.0
N1571 N 0.685 0.06315 0.93543 0.0
N1572 N 0.71704 0.08227 0.89962 0.0
C1573 C 0.7197 0.06956 0.91911 0.0
C1574 C 0.70233 0.05913 0.93849 0.0
C1575 C 0.6554 0.92884 0.0736 0.0
C1576 C 0.6695 0.95114 0.06493 0.0
C1577 C 0.66385 0.91762 0.08943 0.0
C1578 C 0.68671 0.92825 0.09727 0.0
H1579 H 0.63747 0.92047 0.06947 0.0
H1580 H 0.65222 0.90081 0.09654 0.0
S1581 S 0.73112 0.98551 0.07747 0.0
N1582 N 0.70785 0.98263 0.06318 0.0
N1583 N 0.72365 0.96154 0.09329 0.0
C1584 C 0.70128 0.94983 0.08703 0.0
C1585 C 0.69269 0.96126 0.07071 0.0
C1586 C 0.04867 0.74696 0.06872 0.0
C1587 C 0.05779 0.73323 0.06088 0.0
C1588 C 0.06205 0.76836 0.0824 0.0
C1589 C 0.08492 0.77666 0.08859 0.0
H1590 H 0.03084 0.74048 0.06611 0.0
H1591 H 0.05419 0.7778 0.08969 0.0
S1592 S 0.11768 0.74943 0.06767 0.0
N1593 N 0.09175 0.73107 0.05679 0.0
N1594 N 0.1167 0.77112 0.08239 0.0
C1595 C 0.09454 0.764 0.07874 0.0
C1596 C 0.08103 0.74234 0.06487 0.0
C1597 C 0.25387 0.32072 0.02949 0.0
C1598 C 0.27626 0.32676 0.03542 0.0
C1599 C 0.23842 0.31469 0.05054 0.0
C1600 C 0.24471 0.31453 0.07844 0.0
H1601 H 0.24816 0.32079 0.00841 0.0
H1602 H 0.22147 0.31054 0.04495 0.0
S1603 S 0.30092 0.32799 0.10521 0.0
N1604 N 0.30377 0.33158 0.07145 0.0
N1605 N 0.27456 0.32014 0.11092 0.0
C1606 C 0.26692 0.32025 0.08475 0.0
C1607 C 0.28271 0.32633 0.06327 0.0
C1608 C 0.72392 0.64511 0.39041 0.0
C1609 C 0.72427 0.66574 0.3964 0.0
C1610 C 0.73727 0.63879 0.40594 0.0
C1611 C 0.75152 0.65286 0.42799 0.0
H1612 H 0.71391 0.63411 0.37295 0.0
H1613 H 0.73709 0.6232 0.39993 0.0
S1614 S 0.75626 0.70683 0.45492 0.0
N1615 N 0.73841 0.69897 0.42802 0.0
N1616 N 0.7634 0.68702 0.457 0.0
C1617 C 0.75113 0.67286 0.43518 0.0
C1618 C 0.73752 0.67929 0.41947 0.0
C1619 C 0.35948 0.07412 0.41404 0.0
C1620 C 0.33661 0.0592 0.40735 0.0
C1621 C 0.36667 0.09507 0.42836 0.0
C1622 C 0.3512 0.1017 0.43629 0.0
H1623 H 0.37167 0.06886 0.41013 0.0
H1624 H 0.38418 0.10541 0.43481 0.0
S1625 S 0.29032 0.07104 0.41838 0.0
N1626 N 0.29915 0.05415 0.40595 0.0
N1627 N 0.31271 0.09354 0.43253 0.0
C1628 C 0.32868 0.08793 0.42738 0.0
C1629 C 0.32138 0.06668 0.41295 0.0
C1630 C 0.94987 0.25842 0.40988 0.0
C1631 C 0.95559 0.27838 0.39563 0.0
C1632 C 0.93306 0.25027 0.4294 0.0
C1633 C 0.92142 0.26183 0.4356 0.0
H1634 H 0.95797 0.24861 0.40539 0.0
H1635 H 0.92869 0.23438 0.43908 0.0
S1636 S 0.93179 0.31631 0.40656 0.0
N1637 N 0.94938 0.31046 0.39063 0.0
N1638 N 0.91807 0.29527 0.42771 0.0
C1639 C 0.92756 0.28228 0.42233 0.0
C1640 C 0.94458 0.29053 0.40229 0.0
C1641 C 0.01421 0.39741 0.28567 0.0
C1642 C 0.99867 0.37515 0.29313 0.0
C1643 C 0.0073 0.41074 0.27156 0.0
C1644 C 0.9846 0.40228 0.26423 0.0
H1645 H 0.032 0.40415 0.2894 0.0
H1646 H 0.01997 0.42742 0.26521 0.0
S1647 S 0.93695 0.3461 0.28166 0.0
N1648 N 0.95928 0.34609 0.29459 0.0
N1649 N 0.94635 0.37111 0.2676 0.0
C1650 C 0.96869 0.38078 0.27343 0.0
C1651 C 0.97572 0.36721 0.28804 0.0
C1652 C 0.61519 0.5964 0.29772 0.0
C1653 C 0.62682 0.61477 0.28026 0.0
C1654 C 0.59888 0.57477 0.28665 0.0
C1655 C 0.59391 0.57089 0.25783 0.0
H1656 H 0.61813 0.59897 0.32002 0.0
H1657 H 0.58963 0.56122 0.30076 0.0
S1658 S 0.62263 0.61243 0.20319 0.0
N1659 N 0.63403 0.62698 0.23268 0.0
N1660 N 0.60403 0.58647 0.21204 0.0
C1661 C 0.60646 0.58882 0.24021 0.0
C1662 C 0.62274 0.61072 0.25139 0.0
C1663 C 0.41235 0.04524 0.31317 0.0
C1664 C 0.39097 0.02577 0.31489 0.0
C1665 C 0.42698 0.04663 0.29251 0.0
C1666 C 0.42076 0.02861 0.27292 0.0
H1667 H 0.4182 0.05917 0.32847 0.0
H1668 H 0.44363 0.06147 0.29262 0.0
S1669 S 0.36574 0.9754 0.26565 0.0
N1670 N 0.36356 0.98912 0.29306 0.0
N1671 N 0.39124 0.99184 0.25458 0.0
C1672 C 0.39909 0.00965 0.2734 0.0
C1673 C 0.38414 0.00822 0.29427 0.0
C1674 C 0.61406 0.01139 0.29398 0.0
C1675 C 0.60924 0.00955 0.32243 0.0
C1676 C 0.60089 0.01505 0.27436 0.0
C1677 C 0.58234 0.01685 0.28242 0.0
H1678 H 0.62786 0.0096 0.28671 0.0
H1679 H 0.60492 0.01591 0.25265 0.0
S1680 S 0.56375 0.01557 0.35434 0.0
N1681 N 0.5853 0.01146 0.35763 0.0
N1682 N 0.56082 0.01826 0.32082 0.0
C1683 C 0.57776 0.01577 0.31078 0.0
C1684 C 0.59113 0.01214 0.33074 0.0
C1685 C 0.99429 0.60189 0.28481 0.0
C1686 C 0.00116 0.62056 0.26765 0.0
C1687 C 0.98781 0.58007 0.27334 0.0
C1688 C 0.98782 0.57637 0.24443 0.0
H1689 H 0.99461 0.60429 0.30715 0.0
H1690 H 0.98337 0.5662 0.28718 0.0
S1691 S 0.00066 0.61901 0.19058 0.0
N1692 N 0.00527 0.63347 0.22035 0.0
N1693 N 0.99255 0.5926 0.19893 0.0
C1694 C 0.99342 0.59472 0.22713 0.0
C1695 C 0.00024 0.61679 0.23872 0.0
C1696 C 0.38834 0.37231 0.2931 0.0
C1697 C 0.39498 0.3771 0.32144 0.0
C1698 C 0.40402 0.3816 0.27228 0.0
C1699 C 0.42694 0.39606 0.27895 0.0
H1700 H 0.37085 0.36148 0.28689 0.0
H1701 H 0.39811 0.37762 0.25076 0.0
S1702 S 0.45306 0.41439 0.34987 0.0
N1703 N 0.42619 0.39729 0.35499 0.0
N1704 N 0.45548 0.41507 0.31586 0.0
C1705 C 0.43386 0.40077 0.30717 0.0
C1706 C 0.41793 0.39122 0.32839 0.0
C1707 C 0.35391 0.29485 0.40965 0.0
C1708 C 0.33102 0.28575 0.40272 0.0
C1709 C 0.36127 0.2827 0.42571 0.0
C1710 C 0.34598 0.26103 0.43519 0.0
H1711 H 0.36601 0.31214 0.40453 0.0
H1712 H 0.37882 0.29089 0.43213 0.0
S1713 S 0.28507 0.22778 0.41741 0.0
N1714 N 0.29368 0.25252 0.40295 0.0
N1715 N 0.30757 0.22949 0.43254 0.0
C1716 C 0.32341 0.25093 0.42614 0.0
C1717 C 0.31592 0.26333 0.41 0.0
C1718 C 0.74028 0.06478 0.40992 0.0
C1719 C 0.71802 0.05841 0.40242 0.0
C1720 C 0.75495 0.08607 0.42269 0.0
C1721 C 0.748 0.10192 0.42858 0.0
H1722 H 0.74615 0.05277 0.40709 0.0
H1723 H 0.77162 0.08978 0.42907 0.0
S1724 S 0.69218 0.09465 0.4109 0.0
N1725 N 0.69029 0.07049 0.39981 0.0
N1726 N 0.71795 0.11059 0.42406 0.0
C1727 C 0.72632 0.0965 0.4195 0.0
C1728 C 0.71131 0.07473 0.40634 0.0
C1729 C 0.94461 0.65174 0.38568 0.0
C1730 C 0.96427 0.67327 0.38817 0.0
C1731 C 0.92736 0.64536 0.40443 0.0
C1732 C 0.92908 0.66029 0.42627 0.0
H1733 H 0.94214 0.63995 0.36861 0.0
H1734 H 0.91219 0.629 0.40111 0.0
S1735 S 0.97797 0.71722 0.44439 0.0
N1736 N 0.98518 0.70857 0.41616 0.0
N1737 N 0.95258 0.6965 0.45108 0.0
C1738 C 0.94899 0.68133 0.42991 0.0
C1739 C 0.96664 0.68781 0.41098 0.0
C1740 C 0.40515 0.98151 0.7049 0.0
C1741 C 0.38722 0.98429 0.71339 0.0
C1742 C 0.41693 0.97542 0.72353 0.0
C1743 C 0.41138 0.97183 0.75158 0.0
H1744 H 0.41039 0.98425 0.68362 0.0
H1745 H 0.43085 0.97397 0.71594 0.0
S1746 S 0.36524 0.97582 0.7845 0.0
N1747 N 0.3641 0.98233 0.75191 0.0
N1748 N 0.38618 0.97066 0.78688 0.0
C1749 C 0.39332 0.97424 0.76043 0.0
C1750 C 0.38125 0.98046 0.74137 0.0
C1751 C 0.00115 0.38536 0.78102 0.0
C1752 C 0.00365 0.38138 0.75292 0.0
C1753 C 0.00763 0.40718 0.79162 0.0
C1754 C 0.01658 0.42605 0.77451 0.0
H1755 H 0.99416 0.37143 0.79513 0.0
H1756 H 0.00551 0.40924 0.81351 0.0
S1757 S 0.0267 0.42479 0.69926 0.0
N1758 N 0.01623 0.39805 0.70814 0.0
N1759 N 0.02779 0.43932 0.72785 0.0
C1760 C 0.01959 0.42245 0.74636 0.0
C1761 C 0.01325 0.40006 0.73561 0.0
C1762 C 0.6168 0.61415 0.73081 0.0
C1763 C 0.61417 0.62708 0.71017 0.0
C1764 C 0.60126 0.60445 0.75163 0.0
C1765 C 0.58253 0.60739 0.75281 0.0
H1766 H 0.63062 0.61086 0.7305 0.0
H1767 H 0.60358 0.59402 0.76653 0.0
S1768 S 0.56855 0.64097 0.70519 0.0
N1769 N 0.59192 0.64343 0.69337 0.0
N1770 N 0.56265 0.62496 0.73252 0.0
C1771 C 0.58017 0.6211 0.73319 0.0
C1772 C 0.59598 0.63098 0.71185 0.0
C1773 C 0.65227 0.70039 0.61805 0.0
C1774 C 0.67507 0.70677 0.62025 0.0
C1775 C 0.6454 0.71414 0.60466 0.0
C1776 C 0.66109 0.73482 0.59325 0.0
H1777 H 0.63954 0.68408 0.62527 0.0
H1778 H 0.62766 0.70829 0.60263 0.0
S1779 S 0.72289 0.7602 0.59583 0.0
N1780 N 0.71341 0.73608 0.61204 0.0
N1781 N 0.70049 0.76154 0.58633 0.0
C1782 C 0.68398 0.74193 0.59664 0.0
C1783 C 0.69096 0.72803 0.61031 0.0
C1784 C 0.25837 0.93681 0.62559 0.0
C1785 C 0.28049 0.94249 0.63273 0.0
C1786 C 0.24327 0.91584 0.61236 0.0
C1787 C 0.24966 0.89969 0.6055 0.0
H1788 H 0.25296 0.94913 0.62907 0.0
H1789 H 0.22669 0.91265 0.60639 0.0
S1790 S 0.30506 0.90535 0.62168 0.0
N1791 N 0.30753 0.92949 0.6339 0.0
N1792 N 0.2792 0.89014 0.60858 0.0
C1793 C 0.27125 0.90448 0.61414 0.0
C1794 C 0.28665 0.92586 0.62787 0.0
C1795 C 0.059 0.34634 0.6381 0.0
C1796 C 0.04627 0.32328 0.6449 0.0
C1797 C 0.07593 0.3535 0.61871 0.0
C1798 C 0.08079 0.33788 0.6054 0.0
H1799 H 0.05593 0.35901 0.64786 0.0
H1800 H 0.0853 0.3714 0.61411 0.0
S1801 S 0.05337 0.27585 0.61692 0.0
N1802 N 0.04024 0.28496 0.63717 0.0
N1803 N 0.07222 0.29853 0.6012 0.0
C1804 C 0.06827 0.31482 0.61204 0.0
C1805 C 0.05099 0.3075 0.63166 0.0
C1806 C 0.27796 0.35207 0.63741 0.0
C1807 C 0.27024 0.32878 0.64127 0.0
C1808 C 0.26654 0.3591 0.61927 0.0
C1809 C 0.24706 0.34313 0.60408 0.0
H1810 H 0.29278 0.36506 0.64875 0.0
H1811 H 0.27304 0.37718 0.61709 0.0
S1812 S 0.21949 0.28017 0.60682 0.0
N1813 N 0.24162 0.28976 0.62815 0.0
N1814 N 0.22024 0.30303 0.59452 0.0
C1815 C 0.23923 0.31984 0.60758 0.0
C1816 C 0.25078 0.31266 0.62602 0.0
C1817 C 0.64808 0.93321 0.61104 0.0
C1818 C 0.67041 0.95122 0.61042 0.0
C1819 C 0.64168 0.91151 0.59946 0.0
C1820 C 0.6574 0.90695 0.58713 0.0
H1821 H 0.63525 0.93611 0.61944 0.0
H1822 H 0.62424 0.89829 0.59979 0.0
S1823 S 0.71821 0.94772 0.5817 0.0
N1824 N 0.70849 0.96251 0.59788 0.0
N1825 N 0.69637 0.92201 0.57574 0.0
C1826 C 0.6799 0.92454 0.58731 0.0
C1827 C 0.68642 0.94657 0.59907 0.0
C1828 C 0.05822 0.69614 0.61549 0.0
C1829 C 0.04665 0.70616 0.62755 0.0
C1830 C 0.07492 0.70779 0.59635 0.0
C1831 C 0.08041 0.72972 0.58825 0.0
H1832 H 0.05486 0.67945 0.62148 0.0
H1833 H 0.08379 0.69969 0.58805 0.0
S1834 S 0.05442 0.76311 0.6126 0.0
N1835 N 0.04131 0.73904 0.62907 0.0
N1836 N 0.0727 0.76084 0.59323 0.0
C1837 C 0.06853 0.73966 0.59949 0.0
C1838 C 0.05167 0.72791 0.61911 0.0
C1839 C 0.99105 0.60597 0.7332 0.0
C1840 C 0.00639 0.62885 0.72792 0.0
C1841 C 0.99795 0.59233 0.74652 0.0
C1842 C 0.02044 0.60108 0.75523 0.0
H1843 H 0.97332 0.59897 0.72861 0.0
H1844 H 0.98537 0.57516 0.75144 0.0
S1845 S 0.06768 0.65896 0.74311 0.0
N1846 N 0.04548 0.65891 0.72958 0.0
N1847 N 0.05845 0.63325 0.75506 0.0
C1848 C 0.03629 0.62326 0.7479 0.0
C1849 C 0.02926 0.63717 0.73409 0.0
C1850 C 0.37362 0.40681 0.73903 0.0
C1851 C 0.37952 0.38971 0.73871 0.0
C1852 C 0.38888 0.42916 0.74896 0.0
C1853 C 0.41065 0.43526 0.75867 0.0
H1854 H 0.3568 0.40269 0.7328 0.0
H1855 H 0.38346 0.44163 0.74956 0.0
S1856 S 0.43486 0.39718 0.76036 0.0
N1857 N 0.40922 0.38092 0.74715 0.0
N1858 N 0.43745 0.42243 0.76646 0.0
C1859 C 0.41699 0.41852 0.75736 0.0
C1860 C 0.40156 0.39591 0.7472 0.0
C1861 C 0.61113 0.98563 0.72527 0.0
C1862 C 0.60504 0.98823 0.69807 0.0
C1863 C 0.59591 0.97925 0.74676 0.0
C1864 C 0.57397 0.97494 0.74173 0.0
H1865 H 0.62789 0.98886 0.73014 0.0
H1866 H 0.6013 0.97761 0.76742 0.0
S1867 S 0.54957 0.97952 0.67456 0.0
N1868 N 0.57536 0.98598 0.66756 0.0
N1869 N 0.54698 0.97413 0.70791 0.0
C1870 C 0.56762 0.97736 0.7147 0.0
C1871 C 0.58308 0.98397 0.6929 0.0
loop_
_geom_bond_atom_site_label_1
_geom_bond_atom_site_label_2
_geom_bond_distance
_geom_bond_site_symmetry_2
_ccdc_geom_bond_type
Mg0 O1 2.028 1_556 S
Mg0 O7 1.986 1_455 S
Mg0 O9 2.114 . S
Mg0 O10 2.251 1_455 S
Mg0 O13 2.010 1_556 S
O1 Mg0 2.028 1_554 S
O1 C4 1.250 1_455 S
O2 Mg3 2.028 1_554 S
O2 C4 1.248 . S
Mg3 O2 2.028 1_556 S
Mg3 O8 2.032 . S
Mg3 O10 2.079 . S
C4 O1 1.250 1_655 S
C4 O2 1.248 . S
C5 O6 1.264 . S
C5 O13 1.249 . S
O6 C5 1.264 . S
O7 Mg0 1.986 1_655 S
O7 C11 1.246 . S
O8 Mg3 2.032 . S
O8 C11 1.259 . S
O9 Mg0 2.114 . S
O9 C12 1.252 . S
O10 Mg0 2.251 1_655 S
O10 Mg3 2.079 . S
O10 C12 1.273 1_655 S
C11 O7 1.246 . S
C11 O8 1.259 . S
C12 O9 1.252 . S
C12 O10 1.273 1_455 S
O13 Mg0 2.010 1_554 S
O13 C5 1.249 . S
Mg14 O15 2.028 1_554 S
Mg14 O21 1.986 . S
Mg14 O23 2.114 . S
Mg14 O24 2.251 . S
Mg14 O27 2.010 . S
O15 Mg14 2.028 1_556 S
O15 C18 1.250 . S
O16 Mg17 2.028 1_556 S
O16 C18 1.248 . S
Mg17 O16 2.028 1_554 S
Mg17 O22 2.032 . S
Mg17 O24 2.079 . S
C18 O15 1.250 . S
C18 O16 1.248 . S
C19 O20 1.264 1_556 S
C19 O27 1.249 1_556 S
O20 C19 1.264 1_554 S
O21 Mg14 1.986 . S
O21 C25 1.246 . S
O22 Mg17 2.032 . S
O22 C25 1.259 . S
O23 Mg14 2.114 . S
O23 C26 1.252 . S
O24 Mg14 2.251 . S
O24 Mg17 2.079 . S
O24 C26 1.273 . S
C25 O21 1.246 . S
C25 O22 1.259 . S
C26 O23 1.252 . S
C26 O24 1.273 . S
O27 Mg14 2.010 . S
O27 C19 1.249 1_554 S
Mg28 O29 2.028 1_566 S
Mg28 O35 1.986 1_565 S
Mg28 O37 2.114 . S
Mg28 O38 2.251 1_565 S
Mg28 O41 2.010 1_556 S
O29 Mg28 2.028 1_544 S
O29 C32 1.250 . S
O30 Mg31 2.028 1_554 S
O30 C32 1.248 . S
Mg31 O30 2.028 1_556 S
Mg31 O36 2.032 . S
Mg31 O38 2.079 . S
C32 O29 1.250 . S
C32 O30 1.248 . S
C33 O34 1.264 . S
C33 O41 1.249 . S
O34 C33 1.264 . S
O35 Mg28 1.986 1_545 S
O35 C39 1.246 . S
O36 Mg31 2.032 . S
O36 C39 1.259 . S
O37 Mg28 2.114 . S
O37 C40 1.252 . S
O38 Mg28 2.251 1_545 S
O38 Mg31 2.079 . S
O38 C40 1.273 1_545 S
C39 O35 1.246 . S
C39 O36 1.259 . S
C40 O37 1.252 . S
C40 O38 1.273 1_565 S
O41 Mg28 2.010 1_554 S
O41 C33 1.249 . S
Mg42 O43 2.007 1_654 S
Mg42 O49 1.986 1_655 S
Mg42 O51 2.114 . S
Mg42 O52 2.251 1_655 S
Mg42 O55 2.010 . S
O43 Mg42 2.007 1_456 S
O43 C46 1.300 . S
O44 Mg45 2.028 1_556 S
O44 C46 1.248 . S
Mg45 O44 2.028 1_554 S
Mg45 O50 2.032 . S
Mg45 O52 2.079 . S
C46 O43 1.300 . S
C46 O44 1.248 . S
C47 O48 1.264 1_556 S
C47 O55 1.249 1_556 S
O48 C47 1.264 1_554 S
O49 Mg42 1.986 1_455 S
O49 C53 1.246 . S
O50 Mg45 2.032 . S
O50 C53 1.259 . S
O51 Mg42 2.114 . S
O51 C54 1.252 . S
O52 Mg42 2.251 1_455 S
O52 Mg45 2.079 . S
O52 C54 1.273 1_455 S
C53 O49 1.246 . S
C53 O50 1.259 . S
C54 O51 1.252 . S
C54 O52 1.273 1_655 S
O55 Mg42 2.010 . S
O55 C47 1.249 1_554 S
Mg56 O57 2.028 1_556 S
Mg56 O63 1.986 . S
Mg56 O65 2.114 . S
Mg56 O66 2.251 . S
Mg56 O69 2.010 1_556 S
O57 Mg56 2.028 1_554 S
O57 C60 1.250 . S
O58 Mg59 2.028 1_554 S
O58 C60 1.248 . S
Mg59 O58 2.028 1_556 S
Mg59 O64 2.032 . S
Mg59 O66 2.079 . S
C60 O57 1.250 . S
C60 O58 1.248 . S
C61 O62 1.264 . S
C61 O69 1.249 . S
O62 C61 1.264 . S
O63 Mg56 1.986 . S
O63 C67 1.246 . S
O64 Mg59 2.032 . S
O64 C67 1.259 . S
O65 Mg56 2.114 . S
O65 C68 1.252 . S
O66 Mg56 2.251 . S
O66 Mg59 2.079 . S
O66 C68 1.273 . S
C67 O63 1.246 . S
C67 O64 1.259 . S
C68 O65 1.252 . S
C68 O66 1.273 . S
O69 Mg56 2.010 1_554 S
O69 C61 1.249 . S
Mg70 O71 2.028 1_554 S
Mg70 O77 1.986 1_545 S
Mg70 O79 2.114 . S
Mg70 O80 2.251 1_545 S
Mg70 O83 2.010 . S
O71 Mg70 2.028 1_556 S
O71 C74 1.250 1_545 S
O72 Mg73 2.028 1_556 S
O72 C74 1.248 . S
Mg73 O72 2.028 1_554 S
Mg73 O78 2.032 . S
Mg73 O80 2.079 . S
C74 O71 1.250 1_565 S
C74 O72 1.248 . S
C75 O76 1.264 . S
C75 O83 1.249 . S
O76 C75 1.264 . S
O77 Mg70 1.986 1_565 S
O77 C81 1.246 . S
O78 Mg73 2.032 . S
O78 C81 1.259 . S
O79 Mg70 2.114 . S
O79 C82 1.252 . S
O80 Mg70 2.251 1_565 S
O80 Mg73 2.079 . S
O80 C82 1.273 1_565 S
C81 O77 1.246 . S
C81 O78 1.259 . S
C82 O79 1.252 . S
C82 O80 1.273 1_545 S
O83 Mg70 2.010 . S
O83 C75 1.249 . S
Mg84 O85 2.028 . S
Mg84 O91 1.986 . S
Mg84 O93 2.114 . S
Mg84 O94 2.251 . S
Mg84 O97 2.010 . S
O85 Mg84 2.028 . S
O85 C88 1.250 . S
O86 Mg87 2.028 . S
O86 C88 1.248 . S
Mg87 O86 2.028 . S
Mg87 O92 2.032 . S
Mg87 O94 2.079 . S
C88 O85 1.250 . S
C88 O86 1.248 . S
C89 O90 1.264 . S
C89 O97 1.249 . S
O90 C89 1.264 . S
O91 Mg84 1.986 . S
O91 C95 1.246 . S
O92 Mg87 2.032 . S
O92 C95 1.259 . S
O93 Mg84 2.114 . S
O93 C96 1.252 . S
O94 Mg84 2.251 . S
O94 Mg87 2.079 . S
O94 C96 1.273 . S
C95 O91 1.246 . S
C95 O92 1.259 . S
C96 O93 1.252 . S
C96 O94 1.273 . S
O97 Mg84 2.010 . S
O97 C89 1.249 . S
Mg98 O99 2.028 . S
Mg98 O105 1.986 1_565 S
Mg98 O107 2.114 . S
Mg98 O108 2.251 . S
Mg98 O111 2.010 . S
O99 Mg98 2.028 . S
O99 C102 1.250 . S
O100 Mg101 2.028 . S
O100 C102 1.248 . S
Mg101 O100 2.028 . S
Mg101 O106 2.032 1_565 S
Mg101 O108 2.079 . S
C102 O99 1.250 . S
C102 O100 1.248 . S
C103 O104 1.264 . S
C103 O111 1.249 . S
O104 C103 1.264 . S
O105 Mg98 1.986 1_545 S
O105 C109 1.246 . S
O106 Mg101 2.032 1_545 S
O106 C109 1.259 . S
O107 Mg98 2.114 . S
O107 C110 1.252 . S
O108 Mg98 2.251 . S
O108 Mg101 2.079 . S
O108 C110 1.273 . S
C109 O105 1.246 . S
C109 O106 1.259 . S
C110 O107 1.252 . S
C110 O108 1.273 . S
O111 Mg98 2.010 . S
O111 C103 1.249 . S
Mg112 O113 2.028 . S
Mg112 O119 1.986 . S
Mg112 O121 2.114 . S
Mg112 O122 2.251 . S
Mg112 O125 2.010 1_455 S
O113 Mg112 2.028 . S
O113 C116 1.250 . S
O114 Mg115 2.028 . S
O114 C116 1.248 . S
Mg115 O114 2.028 . S
Mg115 O120 2.032 . S
Mg115 O122 2.079 . S
C116 O113 1.250 . S
C116 O114 1.248 . S
C117 O118 1.264 . S
C117 O125 1.249 . S
O118 C117 1.264 . S
O119 Mg112 1.986 . S
O119 C123 1.246 . S
O120 Mg115 2.032 . S
O120 C123 1.259 . S
O121 Mg112 2.114 . S
O121 C124 1.252 . S
O122 Mg112 2.251 . S
O122 Mg115 2.079 . S
O122 C124 1.273 . S
C123 O119 1.246 . S
C123 O120 1.259 . S
C124 O121 1.252 . S
C124 O122 1.273 . S
O125 Mg112 2.010 1_655 S
O125 C117 1.249 . S
Mg126 O127 2.028 . S
Mg126 O133 1.986 1_565 S
Mg126 O135 2.114 . S
Mg126 O136 2.251 . S
Mg126 O139 2.010 . S
O127 Mg126 2.028 . S
O127 C130 1.250 . S
O128 Mg129 2.028 . S
O128 C130 1.248 . S
Mg129 O128 2.028 . S
Mg129 O134 2.032 1_565 S
Mg129 O136 2.079 . S
C130 O127 1.250 . S
C130 O128 1.248 . S
C131 O132 1.264 . S
C131 O139 1.249 . S
O132 C131 1.264 . S
O133 Mg126 1.986 1_545 S
O133 C137 1.246 . S
O134 Mg129 2.032 1_545 S
O134 C137 1.259 . S
O135 Mg126 2.114 . S
O135 C138 1.252 . S
O136 Mg126 2.251 . S
O136 Mg129 2.079 . S
O136 C138 1.273 . S
C137 O133 1.246 . S
C137 O134 1.259 . S
C138 O135 1.252 . S
C138 O136 1.273 . S
O139 Mg126 2.010 . S
O139 C131 1.249 . S
Mg140 O141 2.028 . S
Mg140 O147 1.986 . S
Mg140 O149 2.114 . S
Mg140 O150 2.251 . S
Mg140 O153 2.010 1_455 S
O141 Mg140 2.028 . S
O141 C144 1.250 . S
O142 Mg143 2.028 . S
O142 C144 1.248 . S
Mg143 O142 2.028 . S
Mg143 O148 2.032 . S
Mg143 O150 2.079 . S
C144 O141 1.250 . S
C144 O142 1.248 . S
C145 O146 1.264 . S
C145 O153 1.249 . S
O146 C145 1.264 . S
O147 Mg140 1.986 . S
O147 C151 1.246 . S
O148 Mg143 2.032 . S
O148 C151 1.259 . S
O149 Mg140 2.114 . S
O149 C152 1.252 . S
O150 Mg140 2.251 . S
O150 Mg143 2.079 . S
O150 C152 1.273 . S
C151 O147 1.246 . S
C151 O148 1.259 . S
C152 O149 1.252 . S
C152 O150 1.273 . S
O153 Mg140 2.010 1_655 S
O153 C145 1.249 . S
Mg154 O155 2.028 . S
Mg154 O161 1.986 . S
Mg154 O163 2.114 . S
Mg154 O164 2.251 . S
Mg154 O167 2.010 . S
O155 Mg154 2.028 . S
O155 C158 1.250 . S
O156 Mg157 2.028 . S
O156 C158 1.248 . S
Mg157 O156 2.028 . S
Mg157 O162 2.032 . S
Mg157 O164 2.079 . S
C158 O155 1.250 . S
C158 O156 1.248 . S
C159 O160 1.264 . S
C159 O167 1.249 . S
O160 C159 1.264 . S
O161 Mg154 1.986 . S
O161 C165 1.246 . S
O162 Mg157 2.032 . S
O162 C165 1.259 . S
O163 Mg154 2.114 . S
O163 C166 1.252 . S
O164 Mg154 2.251 . S
O164 Mg157 2.079 . S
O164 C166 1.273 . S
C165 O161 1.246 . S
C165 O162 1.259 . S
C166 O163 1.252 . S
C166 O164 1.273 . S
O167 Mg154 2.010 . S
O167 C159 1.249 . S
Mg168 O169 2.028 . S
Mg168 O175 1.986 1_545 S
Mg168 O177 2.114 . S
Mg168 O178 2.251 . S
Mg168 O181 2.010 . S
O169 Mg168 2.028 . S
O169 C172 1.250 . S
O170 Mg171 2.028 . S
O170 C172 1.248 . S
Mg171 O170 2.028 . S
Mg171 O176 2.032 1_545 S
Mg171 O178 2.079 . S
C172 O169 1.250 . S
C172 O170 1.248 . S
C173 O174 1.264 . S
C173 O181 1.249 . S
O174 C173 1.264 . S
O175 Mg168 1.986 1_565 S
O175 C179 1.246 . S
O176 Mg171 2.032 1_565 S
O176 C179 1.259 . S
O177 Mg168 2.114 . S
O177 C180 1.252 . S
O178 Mg168 2.251 . S
O178 Mg171 2.079 . S
O178 C180 1.273 . S
C179 O175 1.246 . S
C179 O176 1.259 . S
C180 O177 1.252 . S
C180 O178 1.273 . S
O181 Mg168 2.010 . S
O181 C173 1.249 . S
Mg182 O183 2.028 . S
Mg182 O189 1.986 . S
Mg182 O191 2.114 . S
Mg182 O192 2.251 . S
Mg182 O195 2.010 1_655 S
O183 Mg182 2.028 . S
O183 C186 1.250 . S
O184 Mg185 2.028 . S
O184 C186 1.248 . S
Mg185 O184 2.028 . S
Mg185 O190 2.032 . S
Mg185 O192 2.079 . S
C186 O183 1.250 . S
C186 O184 1.248 . S
C187 O188 1.264 . S
C187 O195 1.249 . S
O188 C187 1.264 . S
O189 Mg182 1.986 . S
O189 C193 1.246 . S
O190 Mg185 2.032 . S
O190 C193 1.259 . S
O191 Mg182 2.114 . S
O191 C194 1.252 . S
O192 Mg182 2.251 . S
O192 Mg185 2.079 . S
O192 C194 1.273 . S
C193 O189 1.246 . S
C193 O190 1.259 . S
C194 O191 1.252 . S
C194 O192 1.273 . S
O195 Mg182 2.010 1_455 S
O195 C187 1.249 . S
Mg196 O197 2.028 . S
Mg196 O203 1.986 . S
Mg196 O205 2.114 . S
Mg196 O206 2.251 . S
Mg196 O209 2.010 . S
O197 Mg196 2.028 . S
O197 C200 1.250 . S
O198 Mg199 2.028 . S
O198 C200 1.248 . S
Mg199 O198 2.028 . S
Mg199 O204 2.032 . S
Mg199 O206 2.079 . S
C200 O197 1.250 . S
C200 O198 1.248 . S
C201 O202 1.264 . S
C201 O209 1.249 . S
O202 C201 1.264 . S
O203 Mg196 1.986 . S
O203 C207 1.246 . S
O204 Mg199 2.032 . S
O204 C207 1.259 . S
O205 Mg196 2.114 . S
O205 C208 1.252 . S
O206 Mg196 2.251 . S
O206 Mg199 2.079 . S
O206 C208 1.273 . S
C207 O203 1.246 . S
C207 O204 1.259 . S
C208 O205 1.252 . S
C208 O206 1.273 . S
O209 Mg196 2.010 . S
O209 C201 1.249 . S
Mg210 O211 2.028 . S
Mg210 O217 1.986 . S
Mg210 O219 2.114 . S
Mg210 O220 2.251 . S
Mg210 O223 2.010 . S
O211 Mg210 2.028 . S
O211 C214 1.250 . S
O212 Mg213 2.028 . S
O212 C214 1.248 . S
Mg213 O212 2.028 . S
Mg213 O218 2.032 . S
Mg213 O220 2.079 . S
C214 O211 1.250 . S
C214 O212 1.248 . S
C215 O216 1.264 . S
C215 O223 1.249 . S
O216 C215 1.264 . S
O217 Mg210 1.986 . S
O217 C221 1.246 . S
O218 Mg213 2.032 . S
O218 C221 1.259 . S
O219 Mg210 2.114 . S
O219 C222 1.252 . S
O220 Mg210 2.251 . S
O220 Mg213 2.079 . S
O220 C222 1.273 . S
C221 O217 1.246 . S
C221 O218 1.259 . S
C222 O219 1.252 . S
C222 O220 1.273 . S
O223 Mg210 2.010 . S
O223 C215 1.249 . S
Mg224 O225 2.028 . S
Mg224 O231 1.986 1_545 S
Mg224 O233 2.114 . S
Mg224 O234 2.251 . S
Mg224 O237 2.010 . S
O225 Mg224 2.028 . S
O225 C228 1.250 . S
O226 Mg227 2.028 . S
O226 C228 1.248 . S
Mg227 O226 2.028 . S
Mg227 O232 2.032 1_545 S
Mg227 O234 2.079 . S
C228 O225 1.250 . S
C228 O226 1.248 . S
C229 O230 1.264 . S
C229 O237 1.249 . S
O230 C229 1.264 . S
O231 Mg224 1.986 1_565 S
O231 C235 1.246 . S
O232 Mg227 2.032 1_565 S
O232 C235 1.259 . S
O233 Mg224 2.114 . S
O233 C236 1.252 . S
O234 Mg224 2.251 . S
O234 Mg227 2.079 . S
O234 C236 1.273 . S
C235 O231 1.246 . S
C235 O232 1.259 . S
C236 O233 1.252 . S
C236 O234 1.273 . S
O237 Mg224 2.010 . S
O237 C229 1.249 . S
Mg238 O239 2.028 . S
Mg238 O245 1.986 . S
Mg238 O247 2.114 . S
Mg238 O248 2.251 . S
Mg238 O251 2.010 1_655 S
O239 Mg238 2.028 . S
O239 C242 1.250 . S
O240 Mg241 2.028 . S
O240 C242 1.248 . S
Mg241 O240 2.028 . S
Mg241 O246 2.032 . S
Mg241 O248 2.079 . S
C242 O239 1.250 . S
C242 O240 1.248 . S
C243 O244 1.264 . S
C243 O251 1.249 . S
O244 C243 1.264 . S
O245 Mg238 1.986 . S
O245 C249 1.246 . S
O246 Mg241 2.032 . S
O246 C249 1.259 . S
O247 Mg238 2.114 . S
O247 C250 1.252 . S
O248 Mg238 2.251 . S
O248 Mg241 2.079 . S
O248 C250 1.273 . S
C249 O245 1.246 . S
C249 O246 1.259 . S
C250 O247 1.252 . S
C250 O248 1.273 . S
O251 Mg238 2.010 1_455 S
O251 C243 1.249 . S
C252 C253 1.384 . S
C252 C254 1.384 . S
C252 H280 0.931 . S
C253 C252 1.384 . S
C253 C256 1.382 . S
C254 C252 1.384 . S
C254 C255 1.381 . S
C254 H281 0.930 . S
C255 C254 1.381 . S
C255 C257 1.381 . S
C255 C258 1.487 . S
C256 C253 1.382 . S
C256 C257 1.387 . S
C256 H282 0.930 . S
C257 C255 1.381 . S
C257 C256 1.387 . S
C257 H283 0.931 . S
C258 C255 1.487 . S
C258 C265 1.399 . S
C258 N296 1.343 . S
C259 C260 1.384 . S
C259 C261 1.384 . S
C259 H284 0.931 . S
C260 C259 1.384 . S
C260 C263 1.382 . S
C261 C259 1.384 . S
C261 C262 1.381 . S
C261 H285 0.930 . S
C262 C261 1.381 . S
C262 C264 1.381 . S
C262 C265 1.487 . S
C263 C260 1.382 . S
C263 C264 1.387 . S
C263 H286 0.930 . S
C264 C262 1.381 . S
C264 C263 1.387 . S
C264 H287 0.931 . S
C265 C258 1.399 . S
C265 C262 1.487 . S
C265 N297 1.343 . S
C266 C267 1.384 . S
C266 C268 1.384 . S
C266 H288 0.931 . S
C267 C266 1.384 . S
C267 C270 1.382 . S
C268 C266 1.384 . S
C268 C269 1.381 . S
C268 H289 0.930 . S
C269 C268 1.381 . S
C269 C271 1.381 . S
C269 C272 1.487 . S
C270 C267 1.382 . S
C270 C271 1.387 . S
C270 H290 0.930 . S
C271 C269 1.381 . S
C271 C270 1.387 . S
C271 H291 0.931 . S
C272 C269 1.487 . S
C272 C279 1.399 . S
C272 N297 1.343 . S
C273 C274 1.384 . S
C273 C275 1.384 . S
C273 H292 0.931 . S
C274 C273 1.384 . S
C274 C277 1.382 . S
C275 C273 1.384 . S
C275 C276 1.381 . S
C275 H293 0.930 . S
C276 C275 1.381 . S
C276 C278 1.381 . S
C276 C279 1.487 . S
C277 C274 1.382 . S
C277 C278 1.387 . S
C277 H294 0.930 . S
C278 C276 1.381 . S
C278 C277 1.387 . S
C278 H295 0.931 . S
C279 C272 1.399 . S
C279 C276 1.487 . S
C279 N296 1.343 . S
H280 C252 0.931 . S
H281 C254 0.930 . S
H282 C256 0.930 . S
H283 C257 0.931 . S
H284 C259 0.931 . S
H285 C261 0.930 . S
H286 C263 0.930 . S
H287 C264 0.931 . S
H288 C266 0.931 . S
H289 C268 0.930 . S
H290 C270 0.930 . S
H291 C271 0.931 . S
H292 C273 0.931 . S
H293 C275 0.930 . S
H294 C277 0.930 . S
H295 C278 0.931 . S
N296 C258 1.343 . S
N296 C279 1.343 . S
N297 C265 1.343 . S
N297 C272 1.343 . S
C298 C299 1.384 . S
C298 C300 1.384 . S
C298 H326 0.931 . S
C299 C298 1.384 . S
C299 C302 1.382 . S
C300 C298 1.384 . S
C300 C301 1.381 . S
C300 H327 0.930 . S
C301 C300 1.381 . S
C301 C303 1.381 . S
C301 C304 1.487 . S
C302 C299 1.382 . S
C302 C303 1.387 . S
C302 H328 0.930 . S
C303 C301 1.381 . S
C303 C302 1.387 . S
C303 H329 0.931 . S
C304 C301 1.487 . S
C304 C311 1.399 . S
C304 N342 1.343 . S
C305 C306 1.384 . S
C305 C307 1.384 . S
C305 H330 0.931 . S
C306 C305 1.384 . S
C306 C309 1.382 . S
C307 C305 1.384 . S
C307 C308 1.381 . S
C307 H331 0.930 . S
C308 C307 1.381 . S
C308 C310 1.381 . S
C308 C311 1.487 . S
C309 C306 1.382 . S
C309 C310 1.387 . S
C309 H332 0.930 . S
C310 C308 1.381 . S
C310 C309 1.387 . S
C310 H333 0.931 . S
C311 C304 1.399 . S
C311 C308 1.487 . S
C311 N343 1.343 . S
C312 C313 1.384 . S
C312 C314 1.384 . S
C312 H334 0.931 . S
C313 C312 1.384 . S
C313 C316 1.382 . S
C314 C312 1.384 . S
C314 C315 1.381 . S
C314 H335 0.930 . S
C315 C314 1.381 . S
C315 C317 1.381 . S
C315 C318 1.487 . S
C316 C313 1.382 . S
C316 C317 1.387 . S
C316 H336 0.930 . S
C317 C315 1.381 . S
C317 C316 1.387 . S
C317 H337 0.931 . S
C318 C315 1.487 . S
C318 C325 1.399 . S
C318 N343 1.343 . S
C319 C320 1.384 . S
C319 C321 1.384 . S
C319 H338 0.931 . S
C320 C319 1.384 . S
C320 C323 1.382 . S
C321 C319 1.384 . S
C321 C322 1.381 . S
C321 H339 0.930 . S
C322 C321 1.381 . S
C322 C324 1.381 . S
C322 C325 1.487 . S
C323 C320 1.382 . S
C323 C324 1.387 . S
C323 H340 0.930 . S
C324 C322 1.381 . S
C324 C323 1.387 . S
C324 H341 0.931 . S
C325 C318 1.399 . S
C325 C322 1.487 . S
C325 N342 1.343 . S
H326 C298 0.931 . S
H327 C300 0.930 . S
H328 C302 0.930 . S
H329 C303 0.931 . S
H330 C305 0.931 . S
H331 C307 0.930 . S
H332 C309 0.930 . S
H333 C310 0.931 . S
H334 C312 0.931 . S
H335 C314 0.930 . S
H336 C316 0.930 . S
H337 C317 0.931 . S
H338 C319 0.931 . S
H339 C321 0.930 . S
H340 C323 0.930 . S
H341 C324 0.931 . S
N342 C304 1.343 . S
N342 C325 1.343 . S
N343 C311 1.343 . S
N343 C318 1.343 . S
C344 C345 1.384 . S
C344 C346 1.384 . S
C344 H372 0.931 . S
C345 C344 1.384 . S
C345 C348 1.382 . S
C346 C344 1.384 . S
C346 C347 1.381 . S
C346 H373 0.930 . S
C347 C346 1.381 . S
C347 C349 1.381 . S
C347 C350 1.487 . S
C348 C345 1.382 . S
C348 C349 1.387 . S
C348 H374 0.930 . S
C349 C347 1.381 . S
C349 C348 1.387 . S
C349 H375 0.931 . S
C350 C347 1.487 . S
C350 C357 1.399 . S
C350 N388 1.343 . S
C351 C352 1.384 . S
C351 C353 1.384 . S
C351 H376 0.931 . S
C352 C351 1.384 . S
C352 C355 1.382 . S
C353 C351 1.384 . S
C353 C354 1.381 . S
C353 H377 0.930 . S
C354 C353 1.381 . S
C354 C356 1.381 . S
C354 C357 1.487 . S
C355 C352 1.382 . S
C355 C356 1.387 . S
C355 H378 0.930 . S
C356 C354 1.381 . S
C356 C355 1.387 . S
C356 H379 0.931 . S
C357 C350 1.399 . S
C357 C354 1.487 . S
C357 N389 1.343 . S
C358 C359 1.384 . S
C358 C360 1.384 . S
C358 H380 0.931 . S
C359 C358 1.384 . S
C359 C362 1.382 . S
C360 C358 1.384 . S
C360 C361 1.381 . S
C360 H381 0.930 . S
C361 C360 1.381 . S
C361 C363 1.381 . S
C361 C364 1.487 . S
C362 C359 1.382 . S
C362 C363 1.387 . S
C362 H382 0.930 . S
C363 C361 1.381 . S
C363 C362 1.387 . S
C363 H383 0.931 . S
C364 C361 1.487 . S
C364 C371 1.399 . S
C364 N389 1.343 . S
C365 C366 1.384 . S
C365 C367 1.384 . S
C365 H384 0.931 . S
C366 C365 1.384 . S
C366 C369 1.382 . S
C367 C365 1.384 . S
C367 C368 1.381 . S
C367 H385 0.930 . S
C368 C367 1.381 . S
C368 C370 1.381 . S
C368 C371 1.487 . S
C369 C366 1.382 . S
C369 C370 1.387 . S
C369 H386 0.930 . S
C370 C368 1.381 . S
C370 C369 1.387 . S
C370 H387 0.931 . S
C371 C364 1.399 . S
C371 C368 1.487 . S
C371 N388 1.343 . S
H372 C344 0.931 . S
H373 C346 0.930 . S
H374 C348 0.930 . S
H375 C349 0.931 . S
H376 C351 0.931 . S
H377 C353 0.930 . S
H378 C355 0.930 . S
H379 C356 0.931 . S
H380 C358 0.931 . S
H381 C360 0.930 . S
H382 C362 0.930 . S
H383 C363 0.931 . S
H384 C365 0.931 . S
H385 C367 0.930 . S
H386 C369 0.930 . S
H387 C370 0.931 . S
N388 C350 1.343 . S
N388 C371 1.343 . S
N389 C357 1.343 . S
N389 C364 1.343 . S
C390 C391 1.384 . S
C390 C392 1.384 . S
C390 H418 0.931 . S
C391 C390 1.384 . S
C391 C394 1.382 . S
C392 C390 1.384 . S
C392 C393 1.381 . S
C392 H419 0.930 . S
C393 C392 1.381 . S
C393 C395 1.381 . S
C393 C396 1.487 . S
C394 C391 1.382 . S
C394 C395 1.387 . S
C394 H420 0.930 . S
C395 C393 1.381 . S
C395 C394 1.387 . S
C395 H421 0.931 . S
C396 C393 1.487 . S
C396 C403 1.399 . S
C396 N434 1.343 . S
C397 C398 1.384 . S
C397 C399 1.384 . S
C397 H422 0.931 . S
C398 C397 1.384 . S
C398 C401 1.382 . S
C399 C397 1.384 . S
C399 C400 1.381 . S
C399 H423 0.930 . S
C400 C399 1.381 . S
C400 C402 1.381 . S
C400 C403 1.487 . S
C401 C398 1.382 . S
C401 C402 1.387 . S
C401 H424 0.930 . S
C402 C400 1.381 . S
C402 C401 1.387 . S
C402 H425 0.931 . S
C403 C396 1.399 . S
C403 C400 1.487 . S
C403 N435 1.343 . S
C404 C405 1.384 . S
C404 C406 1.384 . S
C404 H426 0.931 . S
C405 C404 1.384 . S
C405 C408 1.382 . S
C406 C404 1.384 . S
C406 C407 1.381 . S
C406 H427 0.930 . S
C407 C406 1.381 . S
C407 C409 1.381 . S
C407 C410 1.487 . S
C408 C405 1.382 . S
C408 C409 1.387 . S
C408 H428 0.930 . S
C409 C407 1.381 . S
C409 C408 1.387 . S
C409 H429 0.931 . S
C410 C407 1.487 . S
C410 C417 1.399 . S
C410 N435 1.343 . S
C411 C412 1.384 . S
C411 C413 1.384 . S
C411 H430 0.931 . S
C412 C411 1.384 . S
C412 C415 1.382 . S
C413 C411 1.384 . S
C413 C414 1.381 . S
C413 H431 0.930 . S
C414 C413 1.381 . S
C414 C416 1.381 . S
C414 C417 1.487 . S
C415 C412 1.382 . S
C415 C416 1.387 . S
C415 H432 0.930 . S
C416 C414 1.381 . S
C416 C415 1.387 . S
C416 H433 0.931 . S
C417 C410 1.399 . S
C417 C414 1.487 . S
C417 N434 1.343 . S
H418 C390 0.931 . S
H419 C392 0.930 . S
H420 C394 0.930 . S
H421 C395 0.931 . S
H422 C397 0.931 . S
H423 C399 0.930 . S
H424 C401 0.930 . S
H425 C402 0.931 . S
H426 C404 0.931 . S
H427 C406 0.930 . S
H428 C408 0.930 . S
H429 C409 0.931 . S
H430 C411 0.931 . S
H431 C413 0.930 . S
H432 C415 0.930 . S
H433 C416 0.931 . S
N434 C396 1.343 . S
N434 C417 1.343 . S
N435 C403 1.343 . S
N435 C410 1.343 . S
C436 C437 1.384 . S
C436 C438 1.384 . S
C436 H464 0.931 . S
C437 C436 1.384 . S
C437 C440 1.382 . S
C438 C436 1.384 . S
C438 C439 1.381 . S
C438 H465 0.930 . S
C439 C438 1.381 . S
C439 C441 1.381 . S
C439 C442 1.487 . S
C440 C437 1.382 . S
C440 C441 1.387 . S
C440 H466 0.930 . S
C441 C439 1.381 . S
C441 C440 1.387 . S
C441 H467 0.931 . S
C442 C439 1.487 . S
C442 C449 1.399 . S
C442 N480 1.343 . S
C443 C444 1.384 . S
C443 C445 1.384 . S
C443 H468 0.931 . S
C444 C443 1.384 . S
C444 C447 1.382 . S
C445 C443 1.384 . S
C445 C446 1.381 . S
C445 H469 0.930 . S
C446 C445 1.381 . S
C446 C448 1.381 . S
C446 C449 1.487 . S
C447 C444 1.382 . S
C447 C448 1.387 . S
C447 H470 0.930 . S
C448 C446 1.381 . S
C448 C447 1.387 . S
C448 H471 0.931 . S
C449 C442 1.399 . S
C449 C446 1.487 . S
C449 N481 1.343 . S
C450 C451 1.384 . S
C450 C452 1.384 . S
C450 H472 0.931 . S
C451 C450 1.384 . S
C451 C454 1.382 . S
C452 C450 1.384 . S
C452 C453 1.381 . S
C452 H473 0.930 . S
C453 C452 1.381 . S
C453 C455 1.381 . S
C453 C456 1.487 . S
C454 C451 1.382 . S
C454 C455 1.387 . S
C454 H474 0.930 . S
C455 C453 1.381 . S
C455 C454 1.387 . S
C455 H475 0.931 . S
C456 C453 1.487 . S
C456 C463 1.399 . S
C456 N481 1.343 . S
C457 C458 1.384 . S
C457 C459 1.384 . S
C457 H476 0.931 . S
C458 C457 1.384 . S
C458 C461 1.382 . S
C459 C457 1.384 . S
C459 C460 1.381 . S
C459 H477 0.930 . S
C460 C459 1.381 . S
C460 C462 1.381 . S
C460 C463 1.487 . S
C461 C458 1.382 . S
C461 C462 1.387 . S
C461 H478 0.930 . S
C462 C460 1.381 . S
C462 C461 1.387 . S
C462 H479 0.931 . S
C463 C456 1.399 . S
C463 C460 1.487 . S
C463 N480 1.343 . S
H464 C436 0.931 . S
H465 C438 0.930 . S
H466 C440 0.930 . S
H467 C441 0.931 . S
H468 C443 0.931 . S
H469 C445 0.930 . S
H470 C447 0.930 . S
H471 C448 0.931 . S
H472 C450 0.931 . S
H473 C452 0.930 . S
H474 C454 0.930 . S
H475 C455 0.931 . S
H476 C457 0.931 . S
H477 C459 0.930 . S
H478 C461 0.930 . S
H479 C462 0.931 . S
N480 C442 1.343 . S
N480 C463 1.343 . S
N481 C449 1.343 . S
N481 C456 1.343 . S
C482 C483 1.384 . S
C482 C484 1.384 . S
C482 H510 0.931 . S
C483 C482 1.384 . S
C483 C486 1.382 . S
C484 C482 1.384 . S
C484 C485 1.381 . S
C484 H511 0.930 . S
C485 C484 1.381 . S
C485 C487 1.381 . S
C485 C488 1.487 . S
C486 C483 1.382 . S
C486 C487 1.387 . S
C486 H512 0.930 . S
C487 C485 1.381 . S
C487 C486 1.387 . S
C487 H513 0.931 . S
C488 C485 1.487 . S
C488 C495 1.399 . S
C488 N526 1.343 . S
C489 C490 1.384 . S
C489 C491 1.384 . S
C489 H514 0.931 . S
C490 C489 1.384 . S
C490 C493 1.382 . S
C491 C489 1.384 . S
C491 C492 1.381 . S
C491 H515 0.930 . S
C492 C491 1.381 . S
C492 C494 1.381 . S
C492 C495 1.487 . S
C493 C490 1.382 . S
C493 C494 1.387 . S
C493 H516 0.930 . S
C494 C492 1.381 . S
C494 C493 1.387 . S
C494 H517 0.931 . S
C495 C488 1.399 . S
C495 C492 1.487 . S
C495 N527 1.343 . S
C496 C497 1.384 . S
C496 C498 1.384 . S
C496 H518 0.931 . S
C497 C496 1.384 . S
C497 C500 1.382 . S
C498 C496 1.384 . S
C498 C499 1.381 . S
C498 H519 0.930 . S
C499 C498 1.381 . S
C499 C501 1.381 . S
C499 C502 1.487 . S
C500 C497 1.382 . S
C500 C501 1.387 . S
C500 H520 0.930 . S
C501 C499 1.381 . S
C501 C500 1.387 . S
C501 H521 0.931 . S
C502 C499 1.487 . S
C502 C509 1.399 . S
C502 N527 1.343 . S
C503 C504 1.384 . S
C503 C505 1.384 . S
C503 H522 0.931 . S
C504 C503 1.384 . S
C504 C507 1.382 . S
C505 C503 1.384 . S
C505 C506 1.381 . S
C505 H523 0.930 . S
C506 C505 1.381 . S
C506 C508 1.381 . S
C506 C509 1.487 . S
C507 C504 1.382 . S
C507 C508 1.387 . S
C507 H524 0.930 . S
C508 C506 1.381 . S
C508 C507 1.387 . S
C508 H525 0.931 . S
C509 C502 1.399 . S
C509 C506 1.487 . S
C509 N526 1.343 . S
H510 C482 0.931 . S
H511 C484 0.930 . S
H512 C486 0.930 . S
H513 C487 0.931 . S
H514 C489 0.931 . S
H515 C491 0.930 . S
H516 C493 0.930 . S
H517 C494 0.931 . S
H518 C496 0.931 . S
H519 C498 0.930 . S
H520 C500 0.930 . S
H521 C501 0.931 . S
H522 C503 0.931 . S
H523 C505 0.930 . S
H524 C507 0.930 . S
H525 C508 0.931 . S
N526 C488 1.343 . S
N526 C509 1.343 . S
N527 C495 1.343 . S
N527 C502 1.343 . S
C528 C529 1.384 . S
C528 C530 1.384 . S
C528 H556 0.931 . S
C529 C528 1.384 . S
C529 C532 1.382 . S
C530 C528 1.384 . S
C530 C531 1.381 . S
C530 H557 0.930 . S
C531 C530 1.381 . S
C531 C533 1.381 . S
C531 C534 1.487 . S
C532 C529 1.382 . S
C532 C533 1.387 . S
C532 H558 0.930 . S
C533 C531 1.381 . S
C533 C532 1.387 . S
C533 H559 0.931 . S
C534 C531 1.487 . S
C534 C541 1.399 . S
C534 N572 1.343 . S
C535 C536 1.384 . S
C535 C537 1.384 . S
C535 H560 0.931 . S
C536 C535 1.384 . S
C536 C539 1.382 . S
C537 C535 1.384 . S
C537 C538 1.381 . S
C537 H561 0.930 . S
C538 C537 1.381 . S
C538 C540 1.381 . S
C538 C541 1.487 . S
C539 C536 1.382 . S
C539 C540 1.387 . S
C539 H562 0.930 . S
C540 C538 1.381 . S
C540 C539 1.387 . S
C540 H563 0.931 . S
C541 C534 1.399 . S
C541 C538 1.487 . S
C541 N573 1.343 . S
C542 C543 1.384 . S
C542 C544 1.384 . S
C542 H564 0.931 . S
C543 C542 1.384 . S
C543 C546 1.382 . S
C544 C542 1.384 . S
C544 C545 1.381 . S
C544 H565 0.930 . S
C545 C544 1.381 . S
C545 C547 1.381 . S
C545 C548 1.487 . S
C546 C543 1.382 . S
C546 C547 1.387 . S
C546 H566 0.930 . S
C547 C545 1.381 . S
C547 C546 1.387 . S
C547 H567 0.931 . S
C548 C545 1.487 . S
C548 C555 1.399 . S
C548 N573 1.343 . S
C549 C550 1.384 . S
C549 C551 1.384 . S
C549 H568 0.931 . S
C550 C549 1.384 . S
C550 C553 1.382 . S
C551 C549 1.384 . S
C551 C552 1.381 . S
C551 H569 0.930 . S
C552 C551 1.381 . S
C552 C554 1.381 . S
C552 C555 1.487 . S
C553 C550 1.382 . S
C553 C554 1.387 . S
C553 H570 0.930 . S
C554 C552 1.381 . S
C554 C553 1.387 . S
C554 H571 0.931 . S
C555 C548 1.399 . S
C555 C552 1.487 . S
C555 N572 1.343 . S
H556 C528 0.931 . S
H557 C530 0.930 . S
H558 C532 0.930 . S
H559 C533 0.931 . S
H560 C535 0.931 . S
H561 C537 0.930 . S
H562 C539 0.930 . S
H563 C540 0.931 . S
H564 C542 0.931 . S
H565 C544 0.930 . S
H566 C546 0.930 . S
H567 C547 0.931 . S
H568 C549 0.931 . S
H569 C551 0.930 . S
H570 C553 0.930 . S
H571 C554 0.931 . S
N572 C534 1.343 . S
N572 C555 1.343 . S
N573 C541 1.343 . S
N573 C548 1.343 . S
C574 C575 1.384 . S
C574 C576 1.384 . S
C574 H602 0.931 . S
C575 C574 1.384 . S
C575 C578 1.382 . S
C576 C574 1.384 . S
C576 C577 1.381 . S
C576 H603 0.930 . S
C577 C576 1.381 . S
C577 C579 1.381 . S
C577 C580 1.487 . S
C578 C575 1.382 . S
C578 C579 1.387 . S
C578 H604 0.930 . S
C579 C577 1.381 . S
C579 C578 1.387 . S
C579 H605 0.931 . S
C580 C577 1.487 . S
C580 C587 1.399 . S
C580 N618 1.343 . S
C581 C582 1.384 . S
C581 C583 1.384 . S
C581 H606 0.931 . S
C582 C581 1.384 . S
C582 C585 1.382 . S
C583 C581 1.384 . S
C583 C584 1.381 . S
C583 H607 0.930 . S
C584 C583 1.381 . S
C584 C586 1.381 . S
C584 C587 1.487 . S
C585 C582 1.382 . S
C585 C586 1.387 . S
C585 H608 0.930 . S
C586 C584 1.381 . S
C586 C585 1.387 . S
C586 H609 0.931 . S
C587 C580 1.399 . S
C587 C584 1.487 . S
C587 N619 1.343 . S
C588 C589 1.384 . S
C588 C590 1.384 . S
C588 H610 0.931 . S
C589 C588 1.384 . S
C589 C592 1.382 . S
C590 C588 1.384 . S
C590 C591 1.381 . S
C590 H611 0.930 . S
C591 C590 1.381 . S
C591 C593 1.381 . S
C591 C594 1.487 . S
C592 C589 1.382 . S
C592 C593 1.387 . S
C592 H612 0.930 . S
C593 C591 1.381 . S
C593 C592 1.387 . S
C593 H613 0.931 . S
C594 C591 1.487 . S
C594 C601 1.399 . S
C594 N619 1.343 . S
C595 C596 1.384 . S
C595 C597 1.384 . S
C595 H614 0.931 . S
C596 C595 1.384 . S
C596 C599 1.382 . S
C597 C595 1.384 . S
C597 C598 1.381 . S
C597 H615 0.930 . S
C598 C597 1.381 . S
C598 C600 1.381 . S
C598 C601 1.487 . S
C599 C596 1.382 . S
C599 C600 1.387 . S
C599 H616 0.930 . S
C600 C598 1.381 . S
C600 C599 1.387 . S
C600 H617 0.931 . S
C601 C594 1.399 . S
C601 C598 1.487 . S
C601 N618 1.343 . S
H602 C574 0.931 . S
H603 C576 0.930 . S
H604 C578 0.930 . S
H605 C579 0.931 . S
H606 C581 0.931 . S
H607 C583 0.930 . S
H608 C585 0.930 . S
H609 C586 0.931 . S
H610 C588 0.931 . S
H611 C590 0.930 . S
H612 C592 0.930 . S
H613 C593 0.931 . S
H614 C595 0.931 . S
H615 C597 0.930 . S
H616 C599 0.930 . S
H617 C600 0.931 . S
N618 C580 1.343 . S
N618 C601 1.343 . S
N619 C587 1.343 . S
N619 C594 1.343 . S
C620 C621 1.384 . S
C620 C622 1.384 . S
C620 H648 0.931 . S
C621 C620 1.384 . S
C621 C624 1.382 . S
C622 C620 1.384 . S
C622 C623 1.381 . S
C622 H649 0.930 . S
C623 C622 1.381 . S
C623 C625 1.381 . S
C623 C626 1.487 . S
C624 C621 1.382 . S
C624 C625 1.387 . S
C624 H650 0.930 . S
C625 C623 1.381 . S
C625 C624 1.387 . S
C625 H651 0.931 . S
C626 C623 1.487 . S
C626 C633 1.399 . S
C626 N664 1.343 . S
C627 C628 1.384 . S
C627 C629 1.384 . S
C627 H652 0.931 . S
C628 C627 1.384 . S
C628 C631 1.382 . S
C629 C627 1.384 . S
C629 C630 1.381 . S
C629 H653 0.930 . S
C630 C629 1.381 . S
C630 C632 1.381 . S
C630 C633 1.487 . S
C631 C628 1.382 . S
C631 C632 1.387 . S
C631 H654 0.930 . S
C632 C630 1.381 . S
C632 C631 1.387 . S
C632 H655 0.931 . S
C633 C626 1.399 . S
C633 C630 1.487 . S
C633 N665 1.343 . S
C634 C635 1.384 . S
C634 C636 1.384 . S
C634 H656 0.931 . S
C635 C634 1.384 . S
C635 C638 1.382 . S
C636 C634 1.384 . S
C636 C637 1.381 . S
C636 H657 0.930 . S
C637 C636 1.381 . S
C637 C639 1.381 . S
C637 C640 1.487 . S
C638 C635 1.382 . S
C638 C639 1.387 . S
C638 H658 0.930 . S
C639 C637 1.381 . S
C639 C638 1.387 . S
C639 H659 0.931 . S
C640 C637 1.487 . S
C640 C647 1.399 . S
C640 N665 1.343 . S
C641 C642 1.384 . S
C641 C643 1.384 . S
C641 H660 0.931 . S
C642 C641 1.384 . S
C642 C645 1.382 . S
C643 C641 1.384 . S
C643 C644 1.381 . S
C643 H661 0.930 . S
C644 C643 1.381 . S
C644 C646 1.381 . S
C644 C647 1.487 . S
C645 C642 1.382 . S
C645 C646 1.387 . S
C645 H662 0.930 . S
C646 C644 1.381 . S
C646 C645 1.387 . S
C646 H663 0.931 . S
C647 C640 1.399 . S
C647 C644 1.487 . S
C647 N664 1.343 . S
H648 C620 0.931 . S
H649 C622 0.930 . S
H650 C624 0.930 . S
H651 C625 0.931 . S
H652 C627 0.931 . S
H653 C629 0.930 . S
H654 C631 0.930 . S
H655 C632 0.931 . S
H656 C634 0.931 . S
H657 C636 0.930 . S
H658 C638 0.930 . S
H659 C639 0.931 . S
H660 C641 0.931 . S
H661 C643 0.930 . S
H662 C645 0.930 . S
H663 C646 0.931 . S
N664 C626 1.343 . S
N664 C647 1.343 . S
N665 C633 1.343 . S
N665 C640 1.343 . S
C666 C667 1.384 . S
C666 C668 1.384 . S
C666 H694 0.931 . S
C667 C666 1.384 . S
C667 C670 1.382 1_655 S
C668 C666 1.384 . S
C668 C669 1.398 . S
C668 H695 0.930 . S
C669 C668 1.398 . S
C669 C671 1.372 1_655 S
C669 C672 1.474 1_655 S
C670 C667 1.382 1_455 S
C670 C671 1.387 . S
C670 H696 0.930 . S
C671 C669 1.372 1_455 S
C671 C670 1.387 . S
C671 H697 0.931 . S
C672 C669 1.474 1_455 S
C672 C679 1.398 1_455 S
C672 N710 1.349 . S
C673 C674 1.384 . S
C673 C675 1.384 . S
C673 H698 0.931 . S
C674 C673 1.384 . S
C674 C677 1.382 1_455 S
C675 C673 1.384 . S
C675 C676 1.381 . S
C675 H699 0.930 . S
C676 C675 1.381 . S
C676 C678 1.383 1_455 S
C676 C679 1.492 1_455 S
C677 C674 1.382 1_655 S
C677 C678 1.387 . S
C677 H700 0.930 . S
C678 C676 1.383 1_655 S
C678 C677 1.387 . S
C678 H701 0.931 . S
C679 C672 1.398 1_655 S
C679 C676 1.492 1_655 S
C679 N711 1.337 . S
C680 C681 1.384 . S
C680 C682 1.384 . S
C680 H702 0.931 . S
C681 C680 1.384 . S
C681 C684 1.382 1_455 S
C682 C680 1.384 . S
C682 C683 1.411 . S
C682 H703 0.930 . S
C683 C682 1.411 . S
C683 C685 1.366 1_455 S
C683 C686 1.474 1_455 S
C684 C681 1.382 1_655 S
C684 C685 1.387 . S
C684 H704 0.930 . S
C685 C683 1.366 1_655 S
C685 C684 1.387 . S
C685 H705 0.931 . S
C686 C683 1.474 1_655 S
C686 C693 1.398 1_655 S
C686 N711 1.342 . S
C687 C688 1.384 . S
C687 C689 1.384 . S
C687 H706 0.931 . S
C688 C687 1.384 . S
C688 C691 1.382 1_655 S
C689 C687 1.384 . S
C689 C690 1.381 1_655 S
C689 H707 0.930 . S
C690 C689 1.381 1_455 S
C690 C692 1.383 . S
C690 C693 1.498 . S
C691 C688 1.382 1_455 S
C691 C692 1.387 . S
C691 H708 0.930 . S
C692 C690 1.383 . S
C692 C691 1.387 . S
C692 H709 0.931 . S
C693 C686 1.398 1_455 S
C693 C690 1.498 . S
C693 N710 1.332 . S
H694 C666 0.931 . S
H695 C668 0.930 . S
H696 C670 0.930 . S
H697 C671 0.931 . S
H698 C673 0.931 . S
H699 C675 0.930 . S
H700 C677 0.930 . S
H701 C678 0.931 . S
H702 C680 0.931 . S
H703 C682 0.930 . S
H704 C684 0.930 . S
H705 C685 0.931 . S
H706 C687 0.931 . S
H707 C689 0.930 . S
H708 C691 0.930 . S
H709 C692 0.931 . S
N710 C672 1.349 . S
N710 C693 1.332 . S
N711 C679 1.337 . S
N711 C686 1.342 . S
C712 C713 1.384 . S
C712 C714 1.384 . S
C712 H740 0.931 . S
C713 C712 1.384 . S
C713 C716 1.382 . S
C714 C712 1.384 . S
C714 C715 1.381 . S
C714 H741 0.930 . S
C715 C714 1.381 . S
C715 C717 1.381 . S
C715 C718 1.487 . S
C716 C713 1.382 . S
C716 C717 1.387 . S
C716 H742 0.930 . S
C717 C715 1.381 . S
C717 C716 1.387 . S
C717 H743 0.931 . S
C718 C715 1.487 . S
C718 C725 1.399 . S
C718 N756 1.343 . S
C719 C720 1.384 . S
C719 C721 1.384 . S
C719 H744 0.931 . S
C720 C719 1.384 . S
C720 C723 1.382 . S
C721 C719 1.384 . S
C721 C722 1.381 . S
C721 H745 0.930 . S
C722 C721 1.381 . S
C722 C724 1.381 . S
C722 C725 1.487 . S
C723 C720 1.382 . S
C723 C724 1.387 . S
C723 H746 0.930 . S
C724 C722 1.381 . S
C724 C723 1.387 . S
C724 H747 0.931 . S
C725 C718 1.399 . S
C725 C722 1.487 . S
C725 N757 1.343 . S
C726 C727 1.384 . S
C726 C728 1.384 . S
C726 H748 0.931 . S
C727 C726 1.384 . S
C727 C730 1.382 . S
C728 C726 1.384 . S
C728 C729 1.381 . S
C728 H749 0.930 . S
C729 C728 1.381 . S
C729 C731 1.381 . S
C729 C732 1.487 . S
C730 C727 1.382 . S
C730 C731 1.387 . S
C730 H750 0.930 . S
C731 C729 1.381 . S
C731 C730 1.387 . S
C731 H751 0.931 . S
C732 C729 1.487 . S
C732 C739 1.399 . S
C732 N757 1.343 . S
C733 C734 1.384 . S
C733 C735 1.384 . S
C733 H752 0.931 . S
C734 C733 1.384 . S
C734 C737 1.382 . S
C735 C733 1.384 . S
C735 C736 1.381 . S
C735 H753 0.930 . S
C736 C735 1.381 . S
C736 C738 1.381 . S
C736 C739 1.487 . S
C737 C734 1.382 . S
C737 C738 1.387 . S
C737 H754 0.930 . S
C738 C736 1.381 . S
C738 C737 1.387 . S
C738 H755 0.931 . S
C739 C732 1.399 . S
C739 C736 1.487 . S
C739 N756 1.343 . S
H740 C712 0.931 . S
H741 C714 0.930 . S
H742 C716 0.930 . S
H743 C717 0.931 . S
H744 C719 0.931 . S
H745 C721 0.930 . S
H746 C723 0.930 . S
H747 C724 0.931 . S
H748 C726 0.931 . S
H749 C728 0.930 . S
H750 C730 0.930 . S
H751 C731 0.931 . S
H752 C733 0.931 . S
H753 C735 0.930 . S
H754 C737 0.930 . S
H755 C738 0.931 . S
N756 C718 1.343 . S
N756 C739 1.343 . S
N757 C725 1.343 . S
N757 C732 1.343 . S
C758 C759 1.384 1_545 S
C758 C760 1.384 . S
C758 H786 0.931 . S
C759 C758 1.384 1_565 S
C759 C762 1.382 . S
C760 C758 1.384 . S
C760 C761 1.381 1_545 S
C760 H787 0.930 . S
C761 C760 1.381 1_565 S
C761 C763 1.381 . S
C761 C764 1.487 . S
C762 C759 1.382 . S
C762 C763 1.387 . S
C762 H788 0.930 . S
C763 C761 1.381 . S
C763 C762 1.387 . S
C763 H789 0.931 . S
C764 C761 1.487 . S
C764 C771 1.399 1_565 S
C764 N802 1.343 . S
C765 C766 1.384 1_565 S
C765 C767 1.384 . S
C765 H790 0.931 . S
C766 C765 1.384 1_545 S
C766 C769 1.382 . S
C767 C765 1.384 . S
C767 C768 1.381 1_565 S
C767 H791 0.930 . S
C768 C767 1.381 1_545 S
C768 C770 1.381 . S
C768 C771 1.487 . S
C769 C766 1.382 . S
C769 C770 1.387 . S
C769 H792 0.930 . S
C770 C768 1.381 . S
C770 C769 1.387 . S
C770 H793 0.931 . S
C771 C764 1.399 1_545 S
C771 C768 1.487 . S
C771 N803 1.343 . S
C772 C773 1.384 1_565 S
C772 C774 1.384 . S
C772 H794 0.931 . S
C773 C772 1.384 1_545 S
C773 C776 1.382 . S
C774 C772 1.384 . S
C774 C775 1.381 1_565 S
C774 H795 0.930 . S
C775 C774 1.381 1_545 S
C775 C777 1.381 . S
C775 C778 1.487 . S
C776 C773 1.382 . S
C776 C777 1.387 . S
C776 H796 0.930 . S
C777 C775 1.381 . S
C777 C776 1.387 . S
C777 H797 0.931 . S
C778 C775 1.487 . S
C778 C785 1.399 1_545 S
C778 N803 1.343 . S
C779 C780 1.384 1_545 S
C779 C781 1.384 . S
C779 H798 0.931 . S
C780 C779 1.384 1_565 S
C780 C783 1.382 . S
C781 C779 1.384 . S
C781 C782 1.381 1_545 S
C781 H799 0.930 . S
C782 C781 1.381 1_565 S
C782 C784 1.381 . S
C782 C785 1.487 . S
C783 C780 1.382 . S
C783 C784 1.387 . S
C783 H800 0.930 . S
C784 C782 1.381 . S
C784 C783 1.387 . S
C784 H801 0.931 . S
C785 C778 1.399 1_565 S
C785 C782 1.487 . S
C785 N802 1.343 . S
H786 C758 0.931 . S
H787 C760 0.930 . S
H788 C762 0.930 . S
H789 C763 0.931 . S
H790 C765 0.931 . S
H791 C767 0.930 . S
H792 C769 0.930 . S
H793 C770 0.931 . S
H794 C772 0.931 . S
H795 C774 0.930 . S
H796 C776 0.930 . S
H797 C777 0.931 . S
H798 C779 0.931 . S
H799 C781 0.930 . S
H800 C783 0.930 . S
H801 C784 0.931 . S
N802 C764 1.343 . S
N802 C785 1.343 . S
N803 C771 1.343 . S
N803 C778 1.343 . S
C804 C805 1.384 . S
C804 C806 1.384 . S
C804 H832 0.931 . S
C805 C804 1.384 . S
C805 C808 1.382 1_545 S
C806 C804 1.384 . S
C806 C807 1.386 . S
C806 H833 0.930 . S
C807 C806 1.386 . S
C807 C809 1.370 1_545 S
C807 C810 1.497 1_545 S
C808 C805 1.382 1_565 S
C808 C809 1.387 . S
C808 H834 0.930 . S
C809 C807 1.370 1_565 S
C809 C808 1.387 . S
C809 H835 0.931 . S
C810 C807 1.497 1_565 S
C810 C817 1.399 1_565 S
C810 N848 1.366 . S
C811 C812 1.384 . S
C811 C813 1.384 . S
C811 H836 0.931 . S
C812 C811 1.384 . S
C812 C815 1.382 1_565 S
C813 C811 1.384 . S
C813 C814 1.387 . S
C813 H837 0.930 . S
C814 C813 1.387 . S
C814 C816 1.378 1_565 S
C814 C817 1.476 1_565 S
C815 C812 1.382 1_545 S
C815 C816 1.387 . S
C815 H838 0.930 . S
C816 C814 1.378 1_545 S
C816 C815 1.387 . S
C816 H839 0.931 . S
C817 C810 1.399 1_545 S
C817 C814 1.476 1_545 S
C817 N849 1.352 . S
C818 C819 1.384 . S
C818 C820 1.384 . S
C818 H840 0.931 . S
C819 C818 1.384 . S
C819 C822 1.382 1_565 S
C820 C818 1.384 . S
C820 C821 1.383 . S
C820 H841 0.930 . S
C821 C820 1.383 . S
C821 C823 1.377 1_565 S
C821 C824 1.497 1_565 S
C822 C819 1.382 1_545 S
C822 C823 1.387 . S
C822 H842 0.930 . S
C823 C821 1.377 1_545 S
C823 C822 1.387 . S
C823 H843 0.931 . S
C824 C821 1.497 1_545 S
C824 C831 1.399 1_545 S
C824 N849 1.336 . S
C825 C826 1.384 . S
C825 C827 1.384 . S
C825 H844 0.931 . S
C826 C825 1.384 . S
C826 C829 1.382 1_545 S
C827 C825 1.384 . S
C827 C828 1.399 . S
C827 H845 0.930 . S
C828 C827 1.399 . S
C828 C830 1.372 1_545 S
C828 C831 1.476 1_545 S
C829 C826 1.382 1_565 S
C829 C830 1.387 . S
C829 H846 0.930 . S
C830 C828 1.372 1_565 S
C830 C829 1.387 . S
C830 H847 0.931 . S
C831 C824 1.399 1_565 S
C831 C828 1.476 1_565 S
C831 N848 1.320 . S
H832 C804 0.931 . S
H833 C806 0.930 . S
H834 C808 0.930 . S
H835 C809 0.931 . S
H836 C811 0.931 . S
H837 C813 0.930 . S
H838 C815 0.930 . S
H839 C816 0.931 . S
H840 C818 0.931 . S
H841 C820 0.930 . S
H842 C822 0.930 . S
H843 C823 0.931 . S
H844 C825 0.931 . S
H845 C827 0.930 . S
H846 C829 0.930 . S
H847 C830 0.931 . S
N848 C810 1.366 . S
N848 C831 1.320 . S
N849 C817 1.352 . S
N849 C824 1.336 . S
C850 C851 1.384 . S
C850 C852 1.384 . S
C850 H878 0.931 . S
C851 C850 1.384 . S
C851 C854 1.382 1_655 S
C852 C850 1.384 . S
C852 C853 1.427 . S
C852 H879 0.930 . S
C853 C852 1.427 . S
C853 C855 1.358 1_655 S
C853 C856 1.465 . S
C854 C851 1.382 1_455 S
C854 C855 1.387 . S
C854 H880 0.930 . S
C855 C853 1.358 1_455 S
C855 C854 1.387 . S
C855 H881 0.931 . S
C856 C853 1.465 . S
C856 C863 1.398 . S
C856 N894 1.324 1_655 S
C857 C858 1.384 . S
C857 C859 1.384 . S
C857 H882 0.931 . S
C858 C857 1.384 . S
C858 C861 1.382 1_455 S
C859 C857 1.384 . S
C859 C860 1.381 . S
C859 H883 0.930 . S
C860 C859 1.381 . S
C860 C862 1.381 1_455 S
C860 C863 1.496 1_455 S
C861 C858 1.382 1_655 S
C861 C862 1.387 . S
C861 H884 0.930 . S
C862 C860 1.381 1_655 S
C862 C861 1.387 . S
C862 H885 0.931 . S
C863 C856 1.398 . S
C863 C860 1.496 1_655 S
C863 N895 1.359 . S
C864 C865 1.384 . S
C864 C866 1.384 . S
C864 H886 0.931 . S
C865 C864 1.384 . S
C865 C868 1.382 1_455 S
C866 C864 1.384 . S
C866 C867 1.414 . S
C866 H887 0.930 . S
C867 C866 1.414 . S
C867 C869 1.364 1_455 S
C867 C870 1.470 1_455 S
C868 C865 1.382 1_655 S
C868 C869 1.387 . S
C868 H888 0.930 . S
C869 C867 1.364 1_655 S
C869 C868 1.387 . S
C869 H889 0.931 . S
C870 C867 1.470 1_655 S
C870 C877 1.399 1_655 S
C870 N895 1.318 . S
C871 C872 1.384 . S
C871 C873 1.384 . S
C871 H890 0.931 . S
C872 C871 1.384 . S
C872 C875 1.382 1_655 S
C873 C871 1.384 . S
C873 C874 1.384 . S
C873 H891 0.930 . S
C874 C873 1.384 . S
C874 C876 1.373 1_655 S
C874 C877 1.496 1_655 S
C875 C872 1.382 1_455 S
C875 C876 1.387 . S
C875 H892 0.930 . S
C876 C874 1.373 1_455 S
C876 C875 1.387 . S
C876 H893 0.931 . S
C877 C870 1.399 1_455 S
C877 C874 1.496 1_455 S
C877 N894 1.359 . S
H878 C850 0.931 . S
H879 C852 0.930 . S
H880 C854 0.930 . S
H881 C855 0.931 . S
H882 C857 0.931 . S
H883 C859 0.930 . S
H884 C861 0.930 . S
H885 C862 0.931 . S
H886 C864 0.931 . S
H887 C866 0.930 . S
H888 C868 0.930 . S
H889 C869 0.931 . S
H890 C871 0.931 . S
H891 C873 0.930 . S
H892 C875 0.930 . S
H893 C876 0.931 . S
N894 C856 1.324 1_455 S
N894 C877 1.359 . S
N895 C863 1.359 . S
N895 C870 1.318 . S
C896 C897 1.384 . S
C896 C898 1.384 . S
C896 H924 0.931 . S
C897 C896 1.384 . S
C897 C900 1.382 . S
C898 C896 1.384 . S
C898 C899 1.381 . S
C898 H925 0.930 . S
C899 C898 1.381 . S
C899 C901 1.381 . S
C899 C902 1.487 . S
C900 C897 1.382 . S
C900 C901 1.387 . S
C900 H926 0.930 . S
C901 C899 1.381 . S
C901 C900 1.387 . S
C901 H927 0.931 . S
C902 C899 1.487 . S
C902 C909 1.399 . S
C902 N940 1.343 . S
C903 C904 1.384 . S
C903 C905 1.384 . S
C903 H928 0.931 . S
C904 C903 1.384 . S
C904 C907 1.382 . S
C905 C903 1.384 . S
C905 C906 1.381 . S
C905 H929 0.930 . S
C906 C905 1.381 . S
C906 C908 1.381 . S
C906 C909 1.487 . S
C907 C904 1.382 . S
C907 C908 1.387 . S
C907 H930 0.930 . S
C908 C906 1.381 . S
C908 C907 1.387 . S
C908 H931 0.931 . S
C909 C902 1.399 . S
C909 C906 1.487 . S
C909 N941 1.343 . S
C910 C911 1.384 . S
C910 C912 1.384 . S
C910 H932 0.931 . S
C911 C910 1.384 . S
C911 C914 1.382 . S
C912 C910 1.384 . S
C912 C913 1.381 . S
C912 H933 0.930 . S
C913 C912 1.381 . S
C913 C915 1.381 . S
C913 C916 1.487 . S
C914 C911 1.382 . S
C914 C915 1.387 . S
C914 H934 0.930 . S
C915 C913 1.381 . S
C915 C914 1.387 . S
C915 H935 0.931 . S
C916 C913 1.487 . S
C916 C923 1.399 . S
C916 N941 1.343 . S
C917 C918 1.384 . S
C917 C919 1.384 . S
C917 H936 0.931 . S
C918 C917 1.384 . S
C918 C921 1.382 . S
C919 C917 1.384 . S
C919 C920 1.381 . S
C919 H937 0.930 . S
C920 C919 1.381 . S
C920 C922 1.381 . S
C920 C923 1.487 . S
C921 C918 1.382 . S
C921 C922 1.387 . S
C921 H938 0.930 . S
C922 C920 1.381 . S
C922 C921 1.387 . S
C922 H939 0.931 . S
C923 C916 1.399 . S
C923 C920 1.487 . S
C923 N940 1.343 . S
H924 C896 0.931 . S
H925 C898 0.930 . S
H926 C900 0.930 . S
H927 C901 0.931 . S
H928 C903 0.931 . S
H929 C905 0.930 . S
H930 C907 0.930 . S
H931 C908 0.931 . S
H932 C910 0.931 . S
H933 C912 0.930 . S
H934 C914 0.930 . S
H935 C915 0.931 . S
H936 C917 0.931 . S
H937 C919 0.930 . S
H938 C921 0.930 . S
H939 C922 0.931 . S
N940 C902 1.343 . S
N940 C923 1.343 . S
N941 C909 1.343 . S
N941 C916 1.343 . S
C942 C943 1.384 . S
C942 C944 1.384 . S
C942 H970 0.931 . S
C943 C942 1.384 . S
C943 C946 1.382 . S
C944 C942 1.384 . S
C944 C945 1.381 . S
C944 H971 0.930 . S
C945 C944 1.381 . S
C945 C947 1.381 . S
C945 C948 1.487 . S
C946 C943 1.382 . S
C946 C947 1.387 . S
C946 H972 0.930 . S
C947 C945 1.381 . S
C947 C946 1.387 . S
C947 H973 0.931 . S
C948 C945 1.487 . S
C948 C955 1.399 . S
C948 N986 1.343 . S
C949 C950 1.384 . S
C949 C951 1.384 . S
C949 H974 0.931 . S
C950 C949 1.384 . S
C950 C953 1.382 . S
C951 C949 1.384 . S
C951 C952 1.381 . S
C951 H975 0.930 . S
C952 C951 1.381 . S
C952 C954 1.381 . S
C952 C955 1.487 . S
C953 C950 1.382 . S
C953 C954 1.387 . S
C953 H976 0.930 . S
C954 C952 1.381 . S
C954 C953 1.387 . S
C954 H977 0.931 . S
C955 C948 1.399 . S
C955 C952 1.487 . S
C955 N987 1.343 . S
C956 C957 1.384 . S
C956 C958 1.384 . S
C956 H978 0.931 . S
C957 C956 1.384 . S
C957 C960 1.382 . S
C958 C956 1.384 . S
C958 C959 1.381 . S
C958 H979 0.930 . S
C959 C958 1.381 . S
C959 C961 1.381 . S
C959 C962 1.487 . S
C960 C957 1.382 . S
C960 C961 1.387 . S
C960 H980 0.930 . S
C961 C959 1.381 . S
C961 C960 1.387 . S
C961 H981 0.931 . S
C962 C959 1.487 . S
C962 C969 1.399 . S
C962 N987 1.343 . S
C963 C964 1.384 . S
C963 C965 1.384 . S
C963 H982 0.931 . S
C964 C963 1.384 . S
C964 C967 1.382 . S
C965 C963 1.384 . S
C965 C966 1.381 . S
C965 H983 0.930 . S
C966 C965 1.381 . S
C966 C968 1.381 . S
C966 C969 1.487 . S
C967 C964 1.382 . S
C967 C968 1.387 . S
C967 H984 0.930 . S
C968 C966 1.381 . S
C968 C967 1.387 . S
C968 H985 0.931 . S
C969 C962 1.399 . S
C969 C966 1.487 . S
C969 N986 1.343 . S
H970 C942 0.931 . S
H971 C944 0.930 . S
H972 C946 0.930 . S
H973 C947 0.931 . S
H974 C949 0.931 . S
H975 C951 0.930 . S
H976 C953 0.930 . S
H977 C954 0.931 . S
H978 C956 0.931 . S
H979 C958 0.930 . S
H980 C960 0.930 . S
H981 C961 0.931 . S
H982 C963 0.931 . S
H983 C965 0.930 . S
H984 C967 0.930 . S
H985 C968 0.931 . S
N986 C948 1.343 . S
N986 C969 1.343 . S
N987 C955 1.343 . S
N987 C962 1.343 . S
C988 C989 1.384 . S
C988 C990 1.384 . S
C988 H1016 0.931 . S
C989 C988 1.384 . S
C989 C992 1.382 . S
C990 C988 1.384 . S
C990 C991 1.381 . S
C990 H1017 0.930 . S
C991 C990 1.381 . S
C991 C993 1.381 . S
C991 C994 1.487 . S
C992 C989 1.382 . S
C992 C993 1.387 . S
C992 H1018 0.930 . S
C993 C991 1.381 . S
C993 C992 1.387 . S
C993 H1019 0.931 . S
C994 C991 1.487 . S
C994 C1001 1.399 . S
C994 N1032 1.343 . S
C995 C996 1.384 . S
C995 C997 1.384 . S
C995 H1020 0.931 . S
C996 C995 1.384 . S
C996 C999 1.382 . S
C997 C995 1.384 . S
C997 C998 1.381 . S
C997 H1021 0.930 . S
C998 C997 1.381 . S
C998 C1000 1.381 . S
C998 C1001 1.487 . S
C999 C996 1.382 . S
C999 C1000 1.387 . S
C999 H1022 0.930 . S
C1000 C998 1.381 . S
C1000 C999 1.387 . S
C1000 H1023 0.931 . S
C1001 C994 1.399 . S
C1001 C998 1.487 . S
C1001 N1033 1.343 . S
C1002 C1003 1.384 . S
C1002 C1004 1.384 . S
C1002 H1024 0.931 . S
C1003 C1002 1.384 . S
C1003 C1006 1.382 . S
C1004 C1002 1.384 . S
C1004 C1005 1.381 . S
C1004 H1025 0.930 . S
C1005 C1004 1.381 . S
C1005 C1007 1.381 . S
C1005 C1008 1.487 . S
C1006 C1003 1.382 . S
C1006 C1007 1.387 . S
C1006 H1026 0.930 . S
C1007 C1005 1.381 . S
C1007 C1006 1.387 . S
C1007 H1027 0.931 . S
C1008 C1005 1.487 . S
C1008 C1015 1.399 . S
C1008 N1033 1.343 . S
C1009 C1010 1.384 . S
C1009 C1011 1.384 . S
C1009 H1028 0.931 . S
C1010 C1009 1.384 . S
C1010 C1013 1.382 . S
C1011 C1009 1.384 . S
C1011 C1012 1.381 . S
C1011 H1029 0.930 . S
C1012 C1011 1.381 . S
C1012 C1014 1.381 . S
C1012 C1015 1.487 . S
C1013 C1010 1.382 . S
C1013 C1014 1.387 . S
C1013 H1030 0.930 . S
C1014 C1012 1.381 . S
C1014 C1013 1.387 . S
C1014 H1031 0.931 . S
C1015 C1008 1.399 . S
C1015 C1012 1.487 . S
C1015 N1032 1.343 . S
H1016 C988 0.931 . S
H1017 C990 0.930 . S
H1018 C992 0.930 . S
H1019 C993 0.931 . S
H1020 C995 0.931 . S
H1021 C997 0.930 . S
H1022 C999 0.930 . S
H1023 C1000 0.931 . S
H1024 C1002 0.931 . S
H1025 C1004 0.930 . S
H1026 C1006 0.930 . S
H1027 C1007 0.931 . S
H1028 C1009 0.931 . S
H1029 C1011 0.930 . S
H1030 C1013 0.930 . S
H1031 C1014 0.931 . S
N1032 C994 1.343 . S
N1032 C1015 1.343 . S
N1033 C1001 1.343 . S
N1033 C1008 1.343 . S
C1034 C1035 1.384 . S
C1034 C1036 1.384 . S
C1034 H1062 0.931 . S
C1035 C1034 1.384 . S
C1035 C1038 1.382 . S
C1036 C1034 1.384 . S
C1036 C1037 1.381 . S
C1036 H1063 0.930 . S
C1037 C1036 1.381 . S
C1037 C1039 1.381 . S
C1037 C1040 1.487 . S
C1038 C1035 1.382 . S
C1038 C1039 1.387 . S
C1038 H1064 0.930 . S
C1039 C1037 1.381 . S
C1039 C1038 1.387 . S
C1039 H1065 0.931 . S
C1040 C1037 1.487 . S
C1040 C1047 1.399 . S
C1040 N1078 1.343 . S
C1041 C1042 1.384 . S
C1041 C1043 1.384 . S
C1041 H1066 0.931 . S
C1042 C1041 1.384 . S
C1042 C1045 1.382 . S
C1043 C1041 1.384 . S
C1043 C1044 1.381 . S
C1043 H1067 0.930 . S
C1044 C1043 1.381 . S
C1044 C1046 1.381 . S
C1044 C1047 1.487 . S
C1045 C1042 1.382 . S
C1045 C1046 1.387 . S
C1045 H1068 0.930 . S
C1046 C1044 1.381 . S
C1046 C1045 1.387 . S
C1046 H1069 0.931 . S
C1047 C1040 1.399 . S
C1047 C1044 1.487 . S
C1047 N1079 1.343 . S
C1048 C1049 1.384 . S
C1048 C1050 1.384 . S
C1048 H1070 0.931 . S
C1049 C1048 1.384 . S
C1049 C1052 1.382 . S
C1050 C1048 1.384 . S
C1050 C1051 1.381 . S
C1050 H1071 0.930 . S
C1051 C1050 1.381 . S
C1051 C1053 1.381 . S
C1051 C1054 1.487 . S
C1052 C1049 1.382 . S
C1052 C1053 1.387 . S
C1052 H1072 0.930 . S
C1053 C1051 1.381 . S
C1053 C1052 1.387 . S
C1053 H1073 0.931 . S
C1054 C1051 1.487 . S
C1054 C1061 1.399 . S
C1054 N1079 1.343 . S
C1055 C1056 1.384 . S
C1055 C1057 1.384 . S
C1055 H1074 0.931 . S
C1056 C1055 1.384 . S
C1056 C1059 1.382 . S
C1057 C1055 1.384 . S
C1057 C1058 1.381 . S
C1057 H1075 0.930 . S
C1058 C1057 1.381 . S
C1058 C1060 1.381 . S
C1058 C1061 1.487 . S
C1059 C1056 1.382 . S
C1059 C1060 1.387 . S
C1059 H1076 0.930 . S
C1060 C1058 1.381 . S
C1060 C1059 1.387 . S
C1060 H1077 0.931 . S
C1061 C1054 1.399 . S
C1061 C1058 1.487 . S
C1061 N1078 1.343 . S
H1062 C1034 0.931 . S
H1063 C1036 0.930 . S
H1064 C1038 0.930 . S
H1065 C1039 0.931 . S
H1066 C1041 0.931 . S
H1067 C1043 0.930 . S
H1068 C1045 0.930 . S
H1069 C1046 0.931 . S
H1070 C1048 0.931 . S
H1071 C1050 0.930 . S
H1072 C1052 0.930 . S
H1073 C1053 0.931 . S
H1074 C1055 0.931 . S
H1075 C1057 0.930 . S
H1076 C1059 0.930 . S
H1077 C1060 0.931 . S
N1078 C1040 1.343 . S
N1078 C1061 1.343 . S
N1079 C1047 1.343 . S
N1079 C1054 1.343 . S
C1080 C1081 1.369 . S
C1080 C1082 1.419 . S
C1080 H1084 0.930 . S
C1081 C1080 1.369 . S
C1081 C1090 1.429 1_655 S
C1082 C1080 1.419 . S
C1082 C1083 1.363 . S
C1082 H1085 0.929 . S
C1083 C1082 1.363 . S
C1083 C1089 1.428 1_655 S
H1084 C1080 0.930 . S
H1085 C1082 0.929 . S
S1086 N1087 1.613 . S
S1086 N1088 1.610 . S
N1087 S1086 1.613 . S
N1087 C1090 1.350 . S
N1088 S1086 1.610 . S
N1088 C1089 1.351 . S
C1089 C1083 1.428 1_455 S
C1089 N1088 1.351 . S
C1089 C1090 1.434 . S
C1090 C1081 1.429 1_455 S
C1090 N1087 1.350 . S
C1090 C1089 1.434 . S
C1091 C1092 1.369 . S
C1091 C1093 1.419 . S
C1091 H1095 0.930 . S
C1092 C1091 1.369 . S
C1092 C1101 1.429 . S
C1093 C1091 1.419 . S
C1093 C1094 1.363 . S
C1093 H1096 0.929 . S
C1094 C1093 1.363 . S
C1094 C1100 1.428 . S
H1095 C1091 0.930 . S
H1096 C1093 0.929 . S
S1097 N1098 1.613 . S
S1097 N1099 1.610 . S
N1098 S1097 1.613 . S
N1098 C1101 1.350 . S
N1099 S1097 1.610 . S
N1099 C1100 1.351 . S
C1100 C1094 1.428 . S
C1100 N1099 1.351 . S
C1100 C1101 1.434 . S
C1101 C1092 1.429 . S
C1101 N1098 1.350 . S
C1101 C1100 1.434 . S
C1102 C1103 1.369 . S
C1102 C1104 1.419 . S
C1102 H1106 0.930 . S
C1103 C1102 1.369 . S
C1103 C1112 1.429 1_545 S
C1104 C1102 1.419 . S
C1104 C1105 1.363 . S
C1104 H1107 0.929 . S
C1105 C1104 1.363 . S
C1105 C1111 1.428 1_545 S
H1106 C1102 0.930 . S
H1107 C1104 0.929 . S
S1108 N1109 1.613 . S
S1108 N1110 1.610 . S
N1109 S1108 1.613 . S
N1109 C1112 1.350 . S
N1110 S1108 1.610 . S
N1110 C1111 1.351 . S
C1111 C1105 1.428 1_565 S
C1111 N1110 1.351 . S
C1111 C1112 1.434 . S
C1112 C1103 1.429 1_565 S
C1112 N1109 1.350 . S
C1112 C1111 1.434 . S
C1113 C1114 1.369 . S
C1113 C1115 1.419 . S
C1113 H1117 0.930 . S
C1114 C1113 1.369 . S
C1114 C1123 1.429 . S
C1115 C1113 1.419 . S
C1115 C1116 1.363 . S
C1115 H1118 0.929 . S
C1116 C1115 1.363 . S
C1116 C1122 1.428 . S
H1117 C1113 0.930 . S
H1118 C1115 0.929 . S
S1119 N1120 1.613 . S
S1119 N1121 1.610 . S
N1120 S1119 1.613 . S
N1120 C1123 1.350 . S
N1121 S1119 1.610 . S
N1121 C1122 1.351 . S
C1122 C1116 1.428 . S
C1122 N1121 1.351 . S
C1122 C1123 1.434 . S
C1123 C1114 1.429 . S
C1123 N1120 1.350 . S
C1123 C1122 1.434 . S
C1124 C1125 1.369 . S
C1124 C1126 1.419 . S
C1124 H1128 0.930 . S
C1125 C1124 1.369 . S
C1125 C1134 1.429 1_455 S
C1126 C1124 1.419 . S
C1126 C1127 1.363 . S
C1126 H1129 0.929 . S
C1127 C1126 1.363 . S
C1127 C1133 1.428 1_455 S
H1128 C1124 0.930 . S
H1129 C1126 0.929 . S
S1130 N1131 1.613 . S
S1130 N1132 1.610 . S
N1131 S1130 1.613 . S
N1131 C1134 1.350 . S
N1132 S1130 1.610 . S
N1132 C1133 1.351 . S
C1133 C1127 1.428 1_655 S
C1133 N1132 1.351 . S
C1133 C1134 1.434 . S
C1134 C1125 1.429 1_655 S
C1134 N1131 1.350 . S
C1134 C1133 1.434 . S
C1135 C1136 1.369 . S
C1135 C1137 1.419 . S
C1135 H1139 0.930 . S
C1136 C1135 1.369 . S
C1136 C1145 1.429 . S
C1137 C1135 1.419 . S
C1137 C1138 1.363 . S
C1137 H1140 0.929 . S
C1138 C1137 1.363 . S
C1138 C1144 1.428 . S
H1139 C1135 0.930 . S
H1140 C1137 0.929 . S
S1141 N1142 1.613 . S
S1141 N1143 1.610 . S
N1142 S1141 1.613 . S
N1142 C1145 1.350 . S
N1143 S1141 1.610 . S
N1143 C1144 1.351 . S
C1144 C1138 1.428 . S
C1144 N1143 1.351 . S
C1144 C1145 1.434 . S
C1145 C1136 1.429 . S
C1145 N1142 1.350 . S
C1145 C1144 1.434 . S
C1146 C1147 1.369 . S
C1146 C1148 1.419 . S
C1146 H1150 0.930 . S
C1147 C1146 1.369 . S
C1147 C1156 1.429 1_455 S
C1148 C1146 1.419 . S
C1148 C1149 1.363 . S
C1148 H1151 0.929 . S
C1149 C1148 1.363 . S
C1149 C1155 1.428 1_455 S
H1150 C1146 0.930 . S
H1151 C1148 0.929 . S
S1152 N1153 1.613 . S
S1152 N1154 1.610 . S
N1153 S1152 1.613 . S
N1153 C1156 1.350 . S
N1154 S1152 1.610 . S
N1154 C1155 1.351 . S
C1155 C1149 1.428 1_655 S
C1155 N1154 1.351 . S
C1155 C1156 1.434 . S
C1156 C1147 1.429 1_655 S
C1156 N1153 1.350 . S
C1156 C1155 1.434 . S
C1157 C1158 1.369 . S
C1157 C1159 1.419 . S
C1157 H1161 0.930 . S
C1158 C1157 1.369 . S
C1158 C1167 1.429 . S
C1159 C1157 1.419 . S
C1159 C1160 1.363 . S
C1159 H1162 0.929 . S
C1160 C1159 1.363 . S
C1160 C1166 1.428 . S
H1161 C1157 0.930 . S
H1162 C1159 0.929 . S
S1163 N1164 1.613 . S
S1163 N1165 1.610 . S
N1164 S1163 1.613 . S
N1164 C1167 1.350 . S
N1165 S1163 1.610 . S
N1165 C1166 1.351 . S
C1166 C1160 1.428 . S
C1166 N1165 1.351 . S
C1166 C1167 1.434 . S
C1167 C1158 1.429 . S
C1167 N1164 1.350 . S
C1167 C1166 1.434 . S
C1168 C1169 1.369 1_545 S
C1168 C1170 1.419 . S
C1168 H1172 0.930 . S
C1169 C1168 1.369 1_565 S
C1169 C1178 1.429 . S
C1170 C1168 1.419 . S
C1170 C1171 1.363 1_545 S
C1170 H1173 0.929 . S
C1171 C1170 1.363 1_565 S
C1171 C1177 1.428 . S
H1172 C1168 0.930 . S
H1173 C1170 0.929 . S
S1174 N1175 1.613 . S
S1174 N1176 1.610 . S
N1175 S1174 1.613 . S
N1175 C1178 1.350 . S
N1176 S1174 1.610 . S
N1176 C1177 1.351 . S
C1177 C1171 1.428 . S
C1177 N1176 1.351 . S
C1177 C1178 1.434 . S
C1178 C1169 1.429 . S
C1178 N1175 1.350 . S
C1178 C1177 1.434 . S
C1179 C1180 1.369 . S
C1179 C1181 1.419 . S
C1179 H1183 0.930 . S
C1180 C1179 1.369 . S
C1180 C1189 1.429 . S
C1181 C1179 1.419 . S
C1181 C1182 1.363 . S
C1181 H1184 0.929 . S
C1182 C1181 1.363 . S
C1182 C1188 1.417 1_545 S
H1183 C1179 0.930 . S
H1184 C1181 0.929 . S
S1185 N1186 1.613 . S
S1185 N1187 1.610 . S
N1186 S1185 1.613 . S
N1186 C1189 1.350 1_565 S
N1187 S1185 1.610 . S
N1187 C1188 1.354 . S
C1188 C1182 1.417 1_565 S
C1188 N1187 1.354 . S
C1188 C1189 1.444 1_565 S
C1189 C1180 1.429 . S
C1189 N1186 1.350 1_545 S
C1189 C1188 1.444 1_545 S
C1190 C1191 1.369 . S
C1190 C1192 1.419 . S
C1190 H1194 0.930 . S
C1191 C1190 1.369 . S
C1191 C1200 1.429 1_655 S
C1192 C1190 1.419 . S
C1192 C1193 1.363 . S
C1192 H1195 0.929 . S
C1193 C1192 1.363 . S
C1193 C1199 1.428 1_655 S
H1194 C1190 0.930 . S
H1195 C1192 0.929 . S
S1196 N1197 1.613 . S
S1196 N1198 1.610 . S
N1197 S1196 1.613 . S
N1197 C1200 1.350 . S
N1198 S1196 1.610 . S
N1198 C1199 1.351 . S
C1199 C1193 1.428 1_455 S
C1199 N1198 1.351 . S
C1199 C1200 1.434 . S
C1200 C1191 1.429 1_455 S
C1200 N1197 1.350 . S
C1200 C1199 1.434 . S
C1201 C1202 1.369 . S
C1201 C1203 1.419 . S
C1201 H1205 0.930 . S
C1202 C1201 1.369 . S
C1202 C1211 1.429 . S
C1203 C1201 1.419 . S
C1203 C1204 1.363 . S
C1203 H1206 0.929 . S
C1204 C1203 1.363 . S
C1204 C1210 1.428 . S
H1205 C1201 0.930 . S
H1206 C1203 0.929 . S
S1207 N1208 1.613 . S
S1207 N1209 1.610 . S
N1208 S1207 1.613 . S
N1208 C1211 1.350 . S
N1209 S1207 1.610 . S
N1209 C1210 1.351 . S
C1210 C1204 1.428 . S
C1210 N1209 1.351 . S
C1210 C1211 1.434 . S
C1211 C1202 1.429 . S
C1211 N1208 1.350 . S
C1211 C1210 1.434 . S
C1212 C1213 1.369 . S
C1212 C1214 1.419 . S
C1212 H1216 0.930 . S
C1213 C1212 1.369 . S
C1213 C1222 1.429 . S
C1214 C1212 1.419 . S
C1214 C1215 1.363 . S
C1214 H1217 0.929 . S
C1215 C1214 1.363 . S
C1215 C1221 1.428 . S
H1216 C1212 0.930 . S
H1217 C1214 0.929 . S
S1218 N1219 1.613 . S
S1218 N1220 1.610 . S
N1219 S1218 1.613 . S
N1219 C1222 1.350 . S
N1220 S1218 1.610 . S
N1220 C1221 1.351 . S
C1221 C1215 1.428 . S
C1221 N1220 1.351 . S
C1221 C1222 1.434 . S
C1222 C1213 1.429 . S
C1222 N1219 1.350 . S
C1222 C1221 1.434 . S
C1223 C1224 1.369 . S
C1223 C1225 1.419 . S
C1223 H1227 0.930 . S
C1224 C1223 1.369 . S
C1224 C1233 1.429 . S
C1225 C1223 1.419 . S
C1225 C1226 1.363 . S
C1225 H1228 0.929 . S
C1226 C1225 1.363 . S
C1226 C1232 1.428 . S
H1227 C1223 0.930 . S
H1228 C1225 0.929 . S
S1229 N1230 1.613 . S
S1229 N1231 1.610 . S
N1230 S1229 1.613 . S
N1230 C1233 1.350 . S
N1231 S1229 1.610 . S
N1231 C1232 1.351 . S
C1232 C1226 1.428 . S
C1232 N1231 1.351 . S
C1232 C1233 1.434 . S
C1233 C1224 1.429 . S
C1233 N1230 1.350 . S
C1233 C1232 1.434 . S
C1234 C1235 1.369 . S
C1234 C1236 1.419 . S
C1234 H1238 0.930 . S
C1235 C1234 1.369 . S
C1235 C1244 1.429 . S
C1236 C1234 1.419 . S
C1236 C1237 1.363 . S
C1236 H1239 0.929 . S
C1237 C1236 1.363 . S
C1237 C1243 1.428 . S
H1238 C1234 0.930 . S
H1239 C1236 0.929 . S
S1240 N1241 1.613 . S
S1240 N1242 1.610 . S
N1241 S1240 1.613 . S
N1241 C1244 1.350 . S
N1242 S1240 1.610 . S
N1242 C1243 1.351 . S
C1243 C1237 1.428 . S
C1243 N1242 1.351 . S
C1243 C1244 1.434 . S
C1244 C1235 1.429 . S
C1244 N1241 1.350 . S
C1244 C1243 1.434 . S
C1245 C1246 1.369 . S
C1245 C1247 1.419 . S
C1245 H1249 0.930 . S
C1246 C1245 1.369 . S
C1246 C1255 1.429 . S
C1247 C1245 1.419 . S
C1247 C1248 1.363 . S
C1247 H1250 0.929 . S
C1248 C1247 1.363 . S
C1248 C1254 1.428 . S
H1249 C1245 0.930 . S
H1250 C1247 0.929 . S
S1251 N1252 1.613 . S
S1251 N1253 1.610 . S
N1252 S1251 1.613 . S
N1252 C1255 1.350 . S
N1253 S1251 1.610 . S
N1253 C1254 1.351 . S
C1254 C1248 1.428 . S
C1254 N1253 1.351 . S
C1254 C1255 1.434 . S
C1255 C1246 1.429 . S
C1255 N1252 1.350 . S
C1255 C1254 1.434 . S
C1256 C1257 1.369 . S
C1256 C1258 1.419 . S
C1256 H1260 0.930 . S
C1257 C1256 1.369 . S
C1257 C1266 1.429 . S
C1258 C1256 1.419 . S
C1258 C1259 1.363 . S
C1258 H1261 0.929 . S
C1259 C1258 1.363 . S
C1259 C1265 1.428 . S
H1260 C1256 0.930 . S
H1261 C1258 0.929 . S
S1262 N1263 1.613 . S
S1262 N1264 1.610 . S
N1263 S1262 1.613 . S
N1263 C1266 1.350 . S
N1264 S1262 1.610 . S
N1264 C1265 1.351 . S
C1265 C1259 1.428 . S
C1265 N1264 1.351 . S
C1265 C1266 1.434 . S
C1266 C1257 1.429 . S
C1266 N1263 1.350 . S
C1266 C1265 1.434 . S
C1267 C1268 1.369 . S
C1267 C1269 1.419 . S
C1267 H1271 0.930 . S
C1268 C1267 1.369 . S
C1268 C1277 1.429 . S
C1269 C1267 1.419 . S
C1269 C1270 1.363 . S
C1269 H1272 0.929 . S
C1270 C1269 1.363 . S
C1270 C1276 1.428 . S
H1271 C1267 0.930 . S
H1272 C1269 0.929 . S
S1273 N1274 1.613 . S
S1273 N1275 1.610 . S
N1274 S1273 1.613 . S
N1274 C1277 1.350 . S
N1275 S1273 1.610 . S
N1275 C1276 1.351 . S
C1276 C1270 1.428 . S
C1276 N1275 1.351 . S
C1276 C1277 1.434 . S
C1277 C1268 1.429 . S
C1277 N1274 1.350 . S
C1277 C1276 1.434 . S
C1278 C1279 1.369 . S
C1278 C1280 1.419 . S
C1278 H1282 0.930 . S
C1279 C1278 1.369 . S
C1279 C1288 1.429 . S
C1280 C1278 1.419 . S
C1280 C1281 1.363 . S
C1280 H1283 0.929 . S
C1281 C1280 1.363 . S
C1281 C1287 1.428 . S
H1282 C1278 0.930 . S
H1283 C1280 0.929 . S
S1284 N1285 1.612 . S
S1284 N1286 1.653 . S
N1285 S1284 1.612 . S
N1285 C1288 1.350 . S
N1286 S1284 1.653 . S
N1286 C1287 1.351 . S
C1287 C1281 1.428 . S
C1287 N1286 1.351 . S
C1287 C1288 1.434 . S
C1288 C1279 1.429 . S
C1288 N1285 1.350 . S
C1288 C1287 1.434 . S
C1289 C1290 1.369 . S
C1289 C1291 1.419 . S
C1289 H1293 0.930 . S
C1290 C1289 1.369 . S
C1290 C1299 1.429 . S
C1291 C1289 1.419 . S
C1291 C1292 1.363 . S
C1291 H1294 0.929 . S
C1292 C1291 1.363 . S
C1292 C1298 1.428 . S
H1293 C1289 0.930 . S
H1294 C1291 0.929 . S
S1295 N1296 1.613 . S
S1295 N1297 1.610 . S
N1296 S1295 1.613 . S
N1296 C1299 1.350 . S
N1297 S1295 1.610 . S
N1297 C1298 1.351 . S
C1298 C1292 1.428 . S
C1298 N1297 1.351 . S
C1298 C1299 1.434 . S
C1299 C1290 1.429 . S
C1299 N1296 1.350 . S
C1299 C1298 1.434 . S
C1300 C1301 1.369 . S
C1300 C1302 1.419 . S
C1300 H1304 0.930 . S
C1301 C1300 1.369 . S
C1301 C1310 1.429 . S
C1302 C1300 1.419 . S
C1302 C1303 1.363 . S
C1302 H1305 0.929 . S
C1303 C1302 1.363 . S
C1303 C1309 1.428 . S
H1304 C1300 0.930 . S
H1305 C1302 0.929 . S
S1306 N1307 1.613 . S
S1306 N1308 1.610 . S
N1307 S1306 1.613 . S
N1307 C1310 1.350 . S
N1308 S1306 1.610 . S
N1308 C1309 1.351 . S
C1309 C1303 1.428 . S
C1309 N1308 1.351 . S
C1309 C1310 1.434 . S
C1310 C1301 1.429 . S
C1310 N1307 1.350 . S
C1310 C1309 1.434 . S
C1311 C1312 1.369 . S
C1311 C1313 1.419 . S
C1311 H1315 0.930 . S
C1312 C1311 1.369 . S
C1312 C1321 1.429 . S
C1313 C1311 1.419 . S
C1313 C1314 1.363 . S
C1313 H1316 0.929 . S
C1314 C1313 1.363 . S
C1314 C1320 1.428 . S
H1315 C1311 0.930 . S
H1316 C1313 0.929 . S
S1317 N1318 1.613 . S
S1317 N1319 1.610 . S
N1318 S1317 1.613 . S
N1318 C1321 1.350 . S
N1319 S1317 1.610 . S
N1319 C1320 1.351 . S
C1320 C1314 1.428 . S
C1320 N1319 1.351 . S
C1320 C1321 1.434 . S
C1321 C1312 1.429 . S
C1321 N1318 1.350 . S
C1321 C1320 1.434 . S
C1322 C1323 1.369 . S
C1322 C1324 1.419 . S
C1322 H1326 0.930 . S
C1323 C1322 1.369 . S
C1323 C1332 1.429 . S
C1324 C1322 1.419 . S
C1324 C1325 1.363 . S
C1324 H1327 0.929 . S
C1325 C1324 1.363 . S
C1325 C1331 1.428 . S
H1326 C1322 0.930 . S
H1327 C1324 0.929 . S
S1328 N1329 1.613 . S
S1328 N1330 1.610 . S
N1329 S1328 1.613 . S
N1329 C1332 1.350 . S
N1330 S1328 1.610 . S
N1330 C1331 1.351 . S
C1331 C1325 1.428 . S
C1331 N1330 1.351 . S
C1331 C1332 1.434 . S
C1332 C1323 1.429 . S
C1332 N1329 1.350 . S
C1332 C1331 1.434 . S
C1333 C1334 1.369 . S
C1333 C1335 1.419 . S
C1333 H1337 0.930 . S
C1334 C1333 1.369 . S
C1334 C1343 1.429 . S
C1335 C1333 1.419 . S
C1335 C1336 1.363 . S
C1335 H1338 0.929 . S
C1336 C1335 1.363 . S
C1336 C1342 1.428 . S
H1337 C1333 0.930 . S
H1338 C1335 0.929 . S
S1339 N1340 1.613 . S
S1339 N1341 1.610 . S
N1340 S1339 1.613 . S
N1340 C1343 1.350 . S
N1341 S1339 1.610 . S
N1341 C1342 1.351 . S
C1342 C1336 1.428 . S
C1342 N1341 1.351 . S
C1342 C1343 1.434 . S
C1343 C1334 1.429 . S
C1343 N1340 1.350 . S
C1343 C1342 1.434 . S
C1344 C1345 1.369 . S
C1344 C1346 1.419 . S
C1344 H1348 0.930 . S
C1345 C1344 1.369 . S
C1345 C1354 1.429 . S
C1346 C1344 1.419 . S
C1346 C1347 1.363 . S
C1346 H1349 0.929 . S
C1347 C1346 1.363 . S
C1347 C1353 1.428 . S
H1348 C1344 0.930 . S
H1349 C1346 0.929 . S
S1350 N1351 1.613 . S
S1350 N1352 1.610 . S
N1351 S1350 1.613 . S
N1351 C1354 1.350 . S
N1352 S1350 1.610 . S
N1352 C1353 1.351 . S
C1353 C1347 1.428 . S
C1353 N1352 1.351 . S
C1353 C1354 1.434 . S
C1354 C1345 1.429 . S
C1354 N1351 1.350 . S
C1354 C1353 1.434 . S
C1355 C1356 1.369 . S
C1355 C1357 1.419 . S
C1355 H1359 0.930 . S
C1356 C1355 1.369 . S
C1356 C1365 1.429 . S
C1357 C1355 1.419 . S
C1357 C1358 1.363 . S
C1357 H1360 0.929 . S
C1358 C1357 1.363 . S
C1358 C1364 1.428 . S
H1359 C1355 0.930 . S
H1360 C1357 0.929 . S
S1361 N1362 1.613 . S
S1361 N1363 1.610 . S
N1362 S1361 1.613 . S
N1362 C1365 1.350 . S
N1363 S1361 1.610 . S
N1363 C1364 1.351 . S
C1364 C1358 1.428 . S
C1364 N1363 1.351 . S
C1364 C1365 1.434 . S
C1365 C1356 1.429 . S
C1365 N1362 1.350 . S
C1365 C1364 1.434 . S
C1366 C1367 1.369 . S
C1366 C1368 1.419 . S
C1366 H1370 0.930 . S
C1367 C1366 1.369 . S
C1367 C1376 1.429 . S
C1368 C1366 1.419 . S
C1368 C1369 1.363 . S
C1368 H1371 0.929 . S
C1369 C1368 1.363 . S
C1369 C1375 1.428 . S
H1370 C1366 0.930 . S
H1371 C1368 0.929 . S
S1372 N1373 1.613 . S
S1372 N1374 1.610 . S
N1373 S1372 1.613 . S
N1373 C1376 1.350 . S
N1374 S1372 1.610 . S
N1374 C1375 1.351 . S
C1375 C1369 1.428 . S
C1375 N1374 1.351 . S
C1375 C1376 1.434 . S
C1376 C1367 1.429 . S
C1376 N1373 1.350 . S
C1376 C1375 1.434 . S
C1377 C1378 1.369 . S
C1377 C1379 1.419 . S
C1377 H1381 0.930 . S
C1378 C1377 1.369 . S
C1378 C1387 1.429 . S
C1379 C1377 1.419 . S
C1379 C1380 1.363 . S
C1379 H1382 0.929 . S
C1380 C1379 1.363 . S
C1380 C1386 1.428 . S
H1381 C1377 0.930 . S
H1382 C1379 0.929 . S
S1383 N1384 1.613 . S
S1383 N1385 1.610 . S
N1384 S1383 1.613 . S
N1384 C1387 1.350 . S
N1385 S1383 1.610 . S
N1385 C1386 1.351 . S
C1386 C1380 1.428 . S
C1386 N1385 1.351 . S
C1386 C1387 1.434 . S
C1387 C1378 1.429 . S
C1387 N1384 1.350 . S
C1387 C1386 1.434 . S
C1388 C1389 1.369 . S
C1388 C1390 1.419 . S
C1388 H1392 0.930 . S
C1389 C1388 1.369 . S
C1389 C1398 1.429 . S
C1390 C1388 1.419 . S
C1390 C1391 1.363 . S
C1390 H1393 0.929 . S
C1391 C1390 1.363 . S
C1391 C1397 1.428 . S
H1392 C1388 0.930 . S
H1393 C1390 0.929 . S
S1394 N1395 1.613 . S
S1394 N1396 1.610 . S
N1395 S1394 1.613 . S
N1395 C1398 1.350 . S
N1396 S1394 1.610 . S
N1396 C1397 1.351 . S
C1397 C1391 1.428 . S
C1397 N1396 1.351 . S
C1397 C1398 1.434 . S
C1398 C1389 1.429 . S
C1398 N1395 1.350 . S
C1398 C1397 1.434 . S
C1399 C1400 1.369 . S
C1399 C1401 1.419 . S
C1399 H1403 0.930 . S
C1400 C1399 1.369 . S
C1400 C1409 1.429 . S
C1401 C1399 1.419 . S
C1401 C1402 1.363 . S
C1401 H1404 0.929 . S
C1402 C1401 1.363 . S
C1402 C1408 1.428 . S
H1403 C1399 0.930 . S
H1404 C1401 0.929 . S
S1405 N1406 1.613 . S
S1405 N1407 1.610 . S
N1406 S1405 1.613 . S
N1406 C1409 1.350 . S
N1407 S1405 1.610 . S
N1407 C1408 1.351 . S
C1408 C1402 1.428 . S
C1408 N1407 1.351 . S
C1408 C1409 1.434 . S
C1409 C1400 1.429 . S
C1409 N1406 1.350 . S
C1409 C1408 1.434 . S
C1410 C1411 1.369 . S
C1410 C1412 1.419 . S
C1410 H1414 0.930 . S
C1411 C1410 1.369 . S
C1411 C1420 1.429 . S
C1412 C1410 1.419 . S
C1412 C1413 1.363 . S
C1412 H1415 0.929 . S
C1413 C1412 1.363 . S
C1413 C1419 1.428 . S
H1414 C1410 0.930 . S
H1415 C1412 0.929 . S
S1416 N1417 1.613 . S
S1416 N1418 1.610 . S
N1417 S1416 1.613 . S
N1417 C1420 1.350 . S
N1418 S1416 1.610 . S
N1418 C1419 1.351 . S
C1419 C1413 1.428 . S
C1419 N1418 1.351 . S
C1419 C1420 1.434 . S
C1420 C1411 1.429 . S
C1420 N1417 1.350 . S
C1420 C1419 1.434 . S
C1421 C1422 1.369 . S
C1421 C1423 1.419 . S
C1421 H1425 0.930 . S
C1422 C1421 1.369 . S
C1422 C1431 1.429 . S
C1423 C1421 1.419 . S
C1423 C1424 1.363 . S
C1423 H1426 0.929 . S
C1424 C1423 1.363 . S
C1424 C1430 1.428 . S
H1425 C1421 0.930 . S
H1426 C1423 0.929 . S
S1427 N1428 1.613 . S
S1427 N1429 1.610 . S
N1428 S1427 1.613 . S
N1428 C1431 1.350 . S
N1429 S1427 1.610 . S
N1429 C1430 1.351 . S
C1430 C1424 1.428 . S
C1430 N1429 1.351 . S
C1430 C1431 1.434 . S
C1431 C1422 1.429 . S
C1431 N1428 1.350 . S
C1431 C1430 1.434 . S
C1432 C1433 1.369 . S
C1432 C1434 1.419 . S
C1432 H1436 0.930 . S
C1433 C1432 1.369 . S
C1433 C1442 1.429 . S
C1434 C1432 1.419 . S
C1434 C1435 1.363 . S
C1434 H1437 0.929 . S
C1435 C1434 1.363 . S
C1435 C1441 1.428 . S
H1436 C1432 0.930 . S
H1437 C1434 0.929 . S
S1438 N1439 1.613 . S
S1438 N1440 1.610 . S
N1439 S1438 1.613 . S
N1439 C1442 1.350 . S
N1440 S1438 1.610 . S
N1440 C1441 1.351 . S
C1441 C1435 1.428 . S
C1441 N1440 1.351 . S
C1441 C1442 1.434 . S
C1442 C1433 1.429 . S
C1442 N1439 1.350 . S
C1442 C1441 1.434 . S
C1443 C1444 1.369 . S
C1443 C1445 1.419 . S
C1443 H1447 0.930 . S
C1444 C1443 1.369 . S
C1444 C1453 1.429 . S
C1445 C1443 1.419 . S
C1445 C1446 1.363 . S
C1445 H1448 0.929 . S
C1446 C1445 1.363 . S
C1446 C1452 1.428 . S
H1447 C1443 0.930 . S
H1448 C1445 0.929 . S
S1449 N1450 1.613 . S
S1449 N1451 1.610 . S
N1450 S1449 1.613 . S
N1450 C1453 1.350 . S
N1451 S1449 1.610 . S
N1451 C1452 1.351 . S
C1452 C1446 1.428 . S
C1452 N1451 1.351 . S
C1452 C1453 1.434 . S
C1453 C1444 1.429 . S
C1453 N1450 1.350 . S
C1453 C1452 1.434 . S
C1454 C1455 1.369 . S
C1454 C1456 1.419 . S
C1454 H1458 0.930 . S
C1455 C1454 1.369 . S
C1455 C1464 1.429 . S
C1456 C1454 1.419 . S
C1456 C1457 1.363 . S
C1456 H1459 0.929 . S
C1457 C1456 1.363 . S
C1457 C1463 1.428 . S
H1458 C1454 0.930 . S
H1459 C1456 0.929 . S
S1460 N1461 1.613 . S
S1460 N1462 1.610 . S
N1461 S1460 1.613 . S
N1461 C1464 1.350 . S
N1462 S1460 1.610 . S
N1462 C1463 1.351 . S
C1463 C1457 1.428 . S
C1463 N1462 1.351 . S
C1463 C1464 1.434 . S
C1464 C1455 1.429 . S
C1464 N1461 1.350 . S
C1464 C1463 1.434 . S
C1465 C1466 1.369 . S
C1465 C1467 1.419 . S
C1465 H1469 0.930 . S
C1466 C1465 1.369 . S
C1466 C1475 1.429 . S
C1467 C1465 1.419 . S
C1467 C1468 1.363 . S
C1467 H1470 0.929 . S
C1468 C1467 1.363 . S
C1468 C1474 1.428 . S
H1469 C1465 0.930 . S
H1470 C1467 0.929 . S
S1471 N1472 1.613 . S
S1471 N1473 1.610 . S
N1472 S1471 1.613 . S
N1472 C1475 1.350 . S
N1473 S1471 1.610 . S
N1473 C1474 1.351 . S
C1474 C1468 1.428 . S
C1474 N1473 1.351 . S
C1474 C1475 1.434 . S
C1475 C1466 1.429 . S
C1475 N1472 1.350 . S
C1475 C1474 1.434 . S
C1476 C1477 1.369 . S
C1476 C1478 1.419 . S
C1476 H1480 0.930 . S
C1477 C1476 1.369 . S
C1477 C1486 1.429 . S
C1478 C1476 1.419 . S
C1478 C1479 1.363 . S
C1478 H1481 0.929 . S
C1479 C1478 1.363 . S
C1479 C1485 1.428 . S
H1480 C1476 0.930 . S
H1481 C1478 0.929 . S
S1482 N1483 1.614 1_556 S
S1482 N1484 1.613 1_556 S
N1483 S1482 1.614 1_554 S
N1483 C1486 1.350 . S
N1484 S1482 1.613 1_554 S
N1484 C1485 1.351 . S
C1485 C1479 1.428 . S
C1485 N1484 1.351 . S
C1485 C1486 1.434 . S
C1486 C1477 1.429 . S
C1486 N1483 1.350 . S
C1486 C1485 1.434 . S
C1487 C1488 1.369 . S
C1487 C1489 1.419 . S
C1487 H1491 0.930 . S
C1488 C1487 1.369 . S
C1488 C1497 1.429 . S
C1489 C1487 1.419 . S
C1489 C1490 1.363 . S
C1489 H1492 0.929 . S
C1490 C1489 1.363 . S
C1490 C1496 1.428 . S
H1491 C1487 0.930 . S
H1492 C1489 0.929 . S
S1493 N1494 1.613 . S
S1493 N1495 1.610 . S
N1494 S1493 1.613 . S
N1494 C1497 1.350 . S
N1495 S1493 1.610 . S
N1495 C1496 1.351 . S
C1496 C1490 1.428 . S
C1496 N1495 1.351 . S
C1496 C1497 1.434 . S
C1497 C1488 1.429 . S
C1497 N1494 1.350 . S
C1497 C1496 1.434 . S
C1498 C1499 1.369 . S
C1498 C1500 1.419 . S
C1498 H1502 0.930 . S
C1499 C1498 1.369 . S
C1499 C1508 1.429 . S
C1500 C1498 1.419 . S
C1500 C1501 1.363 . S
C1500 H1503 0.929 . S
C1501 C1500 1.363 . S
C1501 C1507 1.428 . S
H1502 C1498 0.930 . S
H1503 C1500 0.929 . S
S1504 N1505 1.613 . S
S1504 N1506 1.610 . S
N1505 S1504 1.613 . S
N1505 C1508 1.350 . S
N1506 S1504 1.610 . S
N1506 C1507 1.351 . S
C1507 C1501 1.428 . S
C1507 N1506 1.351 . S
C1507 C1508 1.434 . S
C1508 C1499 1.429 . S
C1508 N1505 1.350 . S
C1508 C1507 1.434 . S
C1509 C1510 1.369 . S
C1509 C1511 1.419 . S
C1509 H1513 0.930 1_556 S
C1510 C1509 1.369 . S
C1510 C1519 1.429 . S
C1511 C1509 1.419 . S
C1511 C1512 1.363 . S
C1511 H1514 0.929 . S
C1512 C1511 1.363 . S
C1512 C1518 1.428 . S
H1513 C1509 0.930 1_554 S
H1514 C1511 0.929 . S
S1515 N1516 1.613 . S
S1515 N1517 1.610 . S
N1516 S1515 1.613 . S
N1516 C1519 1.350 . S
N1517 S1515 1.610 . S
N1517 C1518 1.351 . S
C1518 C1512 1.428 . S
C1518 N1517 1.351 . S
C1518 C1519 1.434 . S
C1519 C1510 1.429 . S
C1519 N1516 1.350 . S
C1519 C1518 1.434 . S
C1520 C1521 1.369 . S
C1520 C1522 1.419 . S
C1520 H1524 0.930 . S
C1521 C1520 1.369 . S
C1521 C1530 1.429 . S
C1522 C1520 1.419 . S
C1522 C1523 1.363 . S
C1522 H1525 0.929 . S
C1523 C1522 1.363 . S
C1523 C1529 1.428 . S
H1524 C1520 0.930 . S
H1525 C1522 0.929 . S
S1526 N1527 1.613 . S
S1526 N1528 1.610 . S
N1527 S1526 1.613 . S
N1527 C1530 1.350 . S
N1528 S1526 1.610 . S
N1528 C1529 1.351 . S
C1529 C1523 1.428 . S
C1529 N1528 1.351 . S
C1529 C1530 1.434 . S
C1530 C1521 1.429 . S
C1530 N1527 1.350 . S
C1530 C1529 1.434 . S
C1531 C1532 1.369 . S
C1531 C1533 1.419 . S
C1531 H1535 0.930 . S
C1532 C1531 1.369 . S
C1532 C1541 1.429 . S
C1533 C1531 1.419 . S
C1533 C1534 1.363 . S
C1533 H1536 0.929 . S
C1534 C1533 1.363 . S
C1534 C1540 1.428 . S
H1535 C1531 0.930 . S
H1536 C1533 0.929 . S
S1537 N1538 1.613 . S
S1537 N1539 1.610 . S
N1538 S1537 1.613 . S
N1538 C1541 1.350 . S
N1539 S1537 1.610 . S
N1539 C1540 1.351 . S
C1540 C1534 1.428 . S
C1540 N1539 1.351 . S
C1540 C1541 1.434 . S
C1541 C1532 1.429 . S
C1541 N1538 1.350 . S
C1541 C1540 1.434 . S
C1542 C1543 1.369 . S
C1542 C1544 1.419 . S
C1542 H1546 0.930 . S
C1543 C1542 1.369 . S
C1543 C1552 1.429 . S
C1544 C1542 1.419 . S
C1544 C1545 1.363 . S
C1544 H1547 0.929 . S
C1545 C1544 1.363 . S
C1545 C1551 1.428 . S
H1546 C1542 0.930 . S
H1547 C1544 0.929 . S
S1548 N1549 1.613 . S
S1548 N1550 1.610 . S
N1549 S1548 1.613 . S
N1549 C1552 1.350 . S
N1550 S1548 1.610 . S
N1550 C1551 1.351 . S
C1551 C1545 1.428 . S
C1551 N1550 1.351 . S
C1551 C1552 1.434 . S
C1552 C1543 1.429 . S
C1552 N1549 1.350 . S
C1552 C1551 1.434 . S
C1553 C1554 1.369 . S
C1553 C1555 1.419 . S
C1553 H1557 0.930 . S
C1554 C1553 1.369 . S
C1554 C1563 1.429 . S
C1555 C1553 1.419 . S
C1555 C1556 1.363 . S
C1555 H1558 0.929 . S
C1556 C1555 1.363 . S
C1556 C1562 1.428 . S
H1557 C1553 0.930 . S
H1558 C1555 0.929 . S
S1559 N1560 1.613 . S
S1559 N1561 1.610 . S
N1560 S1559 1.613 . S
N1560 C1563 1.350 . S
N1561 S1559 1.610 . S
N1561 C1562 1.351 . S
C1562 C1556 1.428 . S
C1562 N1561 1.351 . S
C1562 C1563 1.434 . S
C1563 C1554 1.429 . S
C1563 N1560 1.350 . S
C1563 C1562 1.434 . S
C1564 C1565 1.369 . S
C1564 C1566 1.419 . S
C1564 H1568 0.930 . S
C1565 C1564 1.369 . S
C1565 C1574 1.429 . S
C1566 C1564 1.419 . S
C1566 C1567 1.363 . S
C1566 H1569 0.929 . S
C1567 C1566 1.363 . S
C1567 C1573 1.428 . S
H1568 C1564 0.930 . S
H1569 C1566 0.929 . S
S1570 N1571 1.613 . S
S1570 N1572 1.610 . S
N1571 S1570 1.613 . S
N1571 C1574 1.350 . S
N1572 S1570 1.610 . S
N1572 C1573 1.351 . S
C1573 C1567 1.428 . S
C1573 N1572 1.351 . S
C1573 C1574 1.434 . S
C1574 C1565 1.429 . S
C1574 N1571 1.350 . S
C1574 C1573 1.434 . S
C1575 C1576 1.369 . S
C1575 C1577 1.419 . S
C1575 H1579 0.930 . S
C1576 C1575 1.369 . S
C1576 C1585 1.429 . S
C1577 C1575 1.419 . S
C1577 C1578 1.363 . S
C1577 H1580 0.929 . S
C1578 C1577 1.363 . S
C1578 C1584 1.428 . S
H1579 C1575 0.930 . S
H1580 C1577 0.929 . S
S1581 N1582 1.613 . S
S1581 N1583 1.610 . S
N1582 S1581 1.613 . S
N1582 C1585 1.350 . S
N1583 S1581 1.610 . S
N1583 C1584 1.351 . S
C1584 C1578 1.428 . S
C1584 N1583 1.351 . S
C1584 C1585 1.434 . S
C1585 C1576 1.429 . S
C1585 N1582 1.350 . S
C1585 C1584 1.434 . S
C1586 C1587 1.369 . S
C1586 C1588 1.419 . S
C1586 H1590 0.930 . S
C1587 C1586 1.369 . S
C1587 C1596 1.429 . S
C1588 C1586 1.419 . S
C1588 C1589 1.363 . S
C1588 H1591 0.929 . S
C1589 C1588 1.363 . S
C1589 C1595 1.428 . S
H1590 C1586 0.930 . S
H1591 C1588 0.929 . S
S1592 N1593 1.613 . S
S1592 N1594 1.610 . S
N1593 S1592 1.613 . S
N1593 C1596 1.350 . S
N1594 S1592 1.610 . S
N1594 C1595 1.351 . S
C1595 C1589 1.428 . S
C1595 N1594 1.351 . S
C1595 C1596 1.434 . S
C1596 C1587 1.429 . S
C1596 N1593 1.350 . S
C1596 C1595 1.434 . S
C1597 C1598 1.369 . S
C1597 C1599 1.419 . S
C1597 H1601 0.930 . S
C1598 C1597 1.369 . S
C1598 C1607 1.429 . S
C1599 C1597 1.419 . S
C1599 C1600 1.363 . S
C1599 H1602 0.929 . S
C1600 C1599 1.363 . S
C1600 C1606 1.428 . S
H1601 C1597 0.930 . S
H1602 C1599 0.929 . S
S1603 N1604 1.613 . S
S1603 N1605 1.610 . S
N1604 S1603 1.613 . S
N1604 C1607 1.350 . S
N1605 S1603 1.610 . S
N1605 C1606 1.351 . S
C1606 C1600 1.428 . S
C1606 N1605 1.351 . S
C1606 C1607 1.434 . S
C1607 C1598 1.429 . S
C1607 N1604 1.350 . S
C1607 C1606 1.434 . S
C1608 C1609 1.369 . S
C1608 C1610 1.419 . S
C1608 H1612 0.930 . S
C1609 C1608 1.369 . S
C1609 C1618 1.429 . S
C1610 C1608 1.419 . S
C1610 C1611 1.363 . S
C1610 H1613 0.929 . S
C1611 C1610 1.363 . S
C1611 C1617 1.428 . S
H1612 C1608 0.930 . S
H1613 C1610 0.929 . S
S1614 N1615 1.613 . S
S1614 N1616 1.610 . S
N1615 S1614 1.613 . S
N1615 C1618 1.350 . S
N1616 S1614 1.610 . S
N1616 C1617 1.351 . S
C1617 C1611 1.428 . S
C1617 N1616 1.351 . S
C1617 C1618 1.434 . S
C1618 C1609 1.429 . S
C1618 N1615 1.350 . S
C1618 C1617 1.434 . S
C1619 C1620 1.369 . S
C1619 C1621 1.419 . S
C1619 H1623 0.930 . S
C1620 C1619 1.369 . S
C1620 C1629 1.429 . S
C1621 C1619 1.419 . S
C1621 C1622 1.363 . S
C1621 H1624 0.929 . S
C1622 C1621 1.363 . S
C1622 C1628 1.428 . S
H1623 C1619 0.930 . S
H1624 C1621 0.929 . S
S1625 N1626 1.613 . S
S1625 N1627 1.610 . S
N1626 S1625 1.613 . S
N1626 C1629 1.350 . S
N1627 S1625 1.610 . S
N1627 C1628 1.351 . S
C1628 C1622 1.428 . S
C1628 N1627 1.351 . S
C1628 C1629 1.434 . S
C1629 C1620 1.429 . S
C1629 N1626 1.350 . S
C1629 C1628 1.434 . S
C1630 C1631 1.369 . S
C1630 C1632 1.419 . S
C1630 H1634 0.930 . S
C1631 C1630 1.369 . S
C1631 C1640 1.429 . S
C1632 C1630 1.419 . S
C1632 C1633 1.363 . S
C1632 H1635 0.929 . S
C1633 C1632 1.363 . S
C1633 C1639 1.428 . S
H1634 C1630 0.930 . S
H1635 C1632 0.929 . S
S1636 N1637 1.613 . S
S1636 N1638 1.610 . S
N1637 S1636 1.613 . S
N1637 C1640 1.350 . S
N1638 S1636 1.610 . S
N1638 C1639 1.351 . S
C1639 C1633 1.428 . S
C1639 N1638 1.351 . S
C1639 C1640 1.434 . S
C1640 C1631 1.429 . S
C1640 N1637 1.350 . S
C1640 C1639 1.434 . S
C1641 C1642 1.369 . S
C1641 C1643 1.419 . S
C1641 H1645 0.930 . S
C1642 C1641 1.369 . S
C1642 C1651 1.429 1_455 S
C1643 C1641 1.419 . S
C1643 C1644 1.363 . S
C1643 H1646 0.929 . S
C1644 C1643 1.363 . S
C1644 C1650 1.428 1_455 S
H1645 C1641 0.930 . S
H1646 C1643 0.929 . S
S1647 N1648 1.613 . S
S1647 N1649 1.610 . S
N1648 S1647 1.613 . S
N1648 C1651 1.350 . S
N1649 S1647 1.610 . S
N1649 C1650 1.351 . S
C1650 C1644 1.428 1_655 S
C1650 N1649 1.351 . S
C1650 C1651 1.434 . S
C1651 C1642 1.429 1_655 S
C1651 N1648 1.350 . S
C1651 C1650 1.434 . S
C1652 C1653 1.369 . S
C1652 C1654 1.419 . S
C1652 H1656 0.930 . S
C1653 C1652 1.369 . S
C1653 C1662 1.429 . S
C1654 C1652 1.419 . S
C1654 C1655 1.363 . S
C1654 H1657 0.929 . S
C1655 C1654 1.363 . S
C1655 C1661 1.428 . S
H1656 C1652 0.930 . S
H1657 C1654 0.929 . S
S1658 N1659 1.613 . S
S1658 N1660 1.610 . S
N1659 S1658 1.613 . S
N1659 C1662 1.350 . S
N1660 S1658 1.610 . S
N1660 C1661 1.351 . S
C1661 C1655 1.428 . S
C1661 N1660 1.351 . S
C1661 C1662 1.434 . S
C1662 C1653 1.429 . S
C1662 N1659 1.350 . S
C1662 C1661 1.434 . S
C1663 C1664 1.369 1_545 S
C1663 C1665 1.419 . S
C1663 H1667 0.930 . S
C1664 C1663 1.369 1_565 S
C1664 C1673 1.429 . S
C1665 C1663 1.419 . S
C1665 C1666 1.363 1_545 S
C1665 H1668 0.929 . S
C1666 C1665 1.363 1_565 S
C1666 C1672 1.428 . S
H1667 C1663 0.930 . S
H1668 C1665 0.929 . S
S1669 N1670 1.613 . S
S1669 N1671 1.610 . S
N1670 S1669 1.613 . S
N1670 C1673 1.350 . S
N1671 S1669 1.610 . S
N1671 C1672 1.351 . S
C1672 C1666 1.428 . S
C1672 N1671 1.351 . S
C1672 C1673 1.434 . S
C1673 C1664 1.429 . S
C1673 N1670 1.350 . S
C1673 C1672 1.434 . S
C1674 C1675 1.369 . S
C1674 C1676 1.419 . S
C1674 H1678 0.930 . S
C1675 C1674 1.369 . S
C1675 C1684 1.429 . S
C1676 C1674 1.419 . S
C1676 C1677 1.363 . S
C1676 H1679 0.929 . S
C1677 C1676 1.363 . S
C1677 C1683 1.428 1_565 S
H1678 C1674 0.930 . S
H1679 C1676 0.929 . S
S1680 N1681 1.613 . S
S1680 N1682 1.610 . S
N1681 S1680 1.613 . S
N1681 C1684 1.350 1_545 S
N1682 S1680 1.610 . S
N1682 C1683 1.351 . S
C1683 C1677 1.428 1_545 S
C1683 N1682 1.351 . S
C1683 C1684 1.434 1_545 S
C1684 C1675 1.429 . S
C1684 N1681 1.350 1_565 S
C1684 C1683 1.434 1_565 S
C1685 C1686 1.369 . S
C1685 C1687 1.419 . S
C1685 H1689 0.930 . S
C1686 C1685 1.369 . S
C1686 C1695 1.429 . S
C1687 C1685 1.419 . S
C1687 C1688 1.363 . S
C1687 H1690 0.935 1_455 S
C1688 C1687 1.363 . S
C1688 C1694 1.428 . S
H1689 C1685 0.930 . S
H1690 C1687 0.935 1_655 S
S1691 N1692 1.613 . S
S1691 N1693 1.610 . S
N1692 S1691 1.613 . S
N1692 C1695 1.350 . S
N1693 S1691 1.610 . S
N1693 C1694 1.351 . S
C1694 C1688 1.428 . S
C1694 N1693 1.351 . S
C1694 C1695 1.434 . S
C1695 C1686 1.429 . S
C1695 N1692 1.350 . S
C1695 C1694 1.434 . S
C1696 C1697 1.369 . S
C1696 C1698 1.419 . S
C1696 H1700 0.930 . S
C1697 C1696 1.369 . S
C1697 C1706 1.429 . S
C1698 C1696 1.419 . S
C1698 C1699 1.363 . S
C1698 H1701 0.929 . S
C1699 C1698 1.363 . S
C1699 C1705 1.428 . S
H1700 C1696 0.930 . S
H1701 C1698 0.929 . S
S1702 N1703 1.613 . S
S1702 N1704 1.610 . S
N1703 S1702 1.613 . S
N1703 C1706 1.350 . S
N1704 S1702 1.610 . S
N1704 C1705 1.351 . S
C1705 C1699 1.428 . S
C1705 N1704 1.351 . S
C1705 C1706 1.434 . S
C1706 C1697 1.429 . S
C1706 N1703 1.350 . S
C1706 C1705 1.434 . S
C1707 C1708 1.369 . S
C1707 C1709 1.419 . S
C1707 H1711 0.930 . S
C1708 C1707 1.369 . S
C1708 C1717 1.429 . S
C1709 C1707 1.419 . S
C1709 C1710 1.363 . S
C1709 H1712 0.929 . S
C1710 C1709 1.363 . S
C1710 C1716 1.428 . S
H1711 C1707 0.930 . S
H1712 C1709 0.929 . S
S1713 N1714 1.613 . S
S1713 N1715 1.610 . S
N1714 S1713 1.613 . S
N1714 C1717 1.350 . S
N1715 S1713 1.610 . S
N1715 C1716 1.351 . S
C1716 C1710 1.428 . S
C1716 N1715 1.351 . S
C1716 C1717 1.434 . S
C1717 C1708 1.429 . S
C1717 N1714 1.350 . S
C1717 C1716 1.434 . S
C1718 C1719 1.369 . S
C1718 C1720 1.419 . S
C1718 H1722 0.930 . S
C1719 C1718 1.369 . S
C1719 C1728 1.429 . S
C1720 C1718 1.419 . S
C1720 C1721 1.363 . S
C1720 H1723 0.929 . S
C1721 C1720 1.363 . S
C1721 C1727 1.428 . S
H1722 C1718 0.930 . S
H1723 C1720 0.929 . S
S1724 N1725 1.613 . S
S1724 N1726 1.610 . S
N1725 S1724 1.613 . S
N1725 C1728 1.350 . S
N1726 S1724 1.610 . S
N1726 C1727 1.351 . S
C1727 C1721 1.428 . S
C1727 N1726 1.351 . S
C1727 C1728 1.434 . S
C1728 C1719 1.429 . S
C1728 N1725 1.350 . S
C1728 C1727 1.434 . S
C1729 C1730 1.369 . S
C1729 C1731 1.419 . S
C1729 H1733 0.930 . S
C1730 C1729 1.369 . S
C1730 C1739 1.429 . S
C1731 C1729 1.419 . S
C1731 C1732 1.363 . S
C1731 H1734 0.929 . S
C1732 C1731 1.363 . S
C1732 C1738 1.428 . S
H1733 C1729 0.930 . S
H1734 C1731 0.929 . S
S1735 N1736 1.613 . S
S1735 N1737 1.610 . S
N1736 S1735 1.613 . S
N1736 C1739 1.350 . S
N1737 S1735 1.610 . S
N1737 C1738 1.351 . S
C1738 C1732 1.428 . S
C1738 N1737 1.351 . S
C1738 C1739 1.434 . S
C1739 C1730 1.429 . S
C1739 N1736 1.350 . S
C1739 C1738 1.434 . S
C1740 C1741 1.369 . S
C1740 C1742 1.419 . S
C1740 H1744 0.930 . S
C1741 C1740 1.369 . S
C1741 C1750 1.429 . S
C1742 C1740 1.419 . S
C1742 C1743 1.363 . S
C1742 H1745 0.929 . S
C1743 C1742 1.363 . S
C1743 C1749 1.428 1_545 S
H1744 C1740 0.930 . S
H1745 C1742 0.929 . S
S1746 N1747 1.613 . S
S1746 N1748 1.610 . S
N1747 S1746 1.613 . S
N1747 C1750 1.350 1_565 S
N1748 S1746 1.610 . S
N1748 C1749 1.351 . S
C1749 C1743 1.428 1_565 S
C1749 N1748 1.351 . S
C1749 C1750 1.434 1_565 S
C1750 C1741 1.429 . S
C1750 N1747 1.350 1_545 S
C1750 C1749 1.434 1_545 S
C1751 C1752 1.369 . S
C1751 C1753 1.419 . S
C1751 H1755 0.930 . S
C1752 C1751 1.369 . S
C1752 C1761 1.429 . S
C1753 C1751 1.419 . S
C1753 C1754 1.363 . S
C1753 H1756 0.940 . S
C1754 C1753 1.363 . S
C1754 C1760 1.428 . S
H1755 C1751 0.930 . S
H1756 C1753 0.940 . S
S1757 N1758 1.613 . S
S1757 N1759 1.610 . S
N1758 S1757 1.613 . S
N1758 C1761 1.350 . S
N1759 S1757 1.610 . S
N1759 C1760 1.351 . S
C1760 C1754 1.428 . S
C1760 N1759 1.351 . S
C1760 C1761 1.434 . S
C1761 C1752 1.429 . S
C1761 N1758 1.350 . S
C1761 C1760 1.434 . S
C1762 C1763 1.369 . S
C1762 C1764 1.419 . S
C1762 H1766 0.930 . S
C1763 C1762 1.369 . S
C1763 C1772 1.429 . S
C1764 C1762 1.419 . S
C1764 C1765 1.363 . S
C1764 H1767 0.929 . S
C1765 C1764 1.363 . S
C1765 C1771 1.428 . S
H1766 C1762 0.930 . S
H1767 C1764 0.929 . S
S1768 N1769 1.613 . S
S1768 N1770 1.610 . S
N1769 S1768 1.613 . S
N1769 C1772 1.350 . S
N1770 S1768 1.610 . S
N1770 C1771 1.351 . S
C1771 C1765 1.428 . S
C1771 N1770 1.351 . S
C1771 C1772 1.434 . S
C1772 C1763 1.429 . S
C1772 N1769 1.350 . S
C1772 C1771 1.434 . S
C1773 C1774 1.369 . S
C1773 C1775 1.419 . S
C1773 H1777 0.930 . S
C1774 C1773 1.369 . S
C1774 C1783 1.429 . S
C1775 C1773 1.419 . S
C1775 C1776 1.363 . S
C1775 H1778 0.929 . S
C1776 C1775 1.363 . S
C1776 C1782 1.428 . S
H1777 C1773 0.930 . S
H1778 C1775 0.929 . S
S1779 N1780 1.613 . S
S1779 N1781 1.610 . S
N1780 S1779 1.613 . S
N1780 C1783 1.350 . S
N1781 S1779 1.610 . S
N1781 C1782 1.351 . S
C1782 C1776 1.428 . S
C1782 N1781 1.351 . S
C1782 C1783 1.434 . S
C1783 C1774 1.429 . S
C1783 N1780 1.350 . S
C1783 C1782 1.434 . S
C1784 C1785 1.369 . S
C1784 C1786 1.419 . S
C1784 H1788 0.930 . S
C1785 C1784 1.369 . S
C1785 C1794 1.429 . S
C1786 C1784 1.419 . S
C1786 C1787 1.363 . S
C1786 H1789 0.929 . S
C1787 C1786 1.363 . S
C1787 C1793 1.428 . S
H1788 C1784 0.930 . S
H1789 C1786 0.929 . S
S1790 N1791 1.613 . S
S1790 N1792 1.610 . S
N1791 S1790 1.613 . S
N1791 C1794 1.350 . S
N1792 S1790 1.610 . S
N1792 C1793 1.351 . S
C1793 C1787 1.428 . S
C1793 N1792 1.351 . S
C1793 C1794 1.434 . S
C1794 C1785 1.429 . S
C1794 N1791 1.350 . S
C1794 C1793 1.434 . S
C1795 C1796 1.369 . S
C1795 C1797 1.419 . S
C1795 H1799 0.930 . S
C1796 C1795 1.369 . S
C1796 C1805 1.429 . S
C1797 C1795 1.419 . S
C1797 C1798 1.363 . S
C1797 H1800 0.929 . S
C1798 C1797 1.363 . S
C1798 C1804 1.428 . S
H1799 C1795 0.930 . S
H1800 C1797 0.929 . S
S1801 N1802 1.613 . S
S1801 N1803 1.610 . S
N1802 S1801 1.613 . S
N1802 C1805 1.350 . S
N1803 S1801 1.610 . S
N1803 C1804 1.351 . S
C1804 C1798 1.428 . S
C1804 N1803 1.351 . S
C1804 C1805 1.434 . S
C1805 C1796 1.429 . S
C1805 N1802 1.350 . S
C1805 C1804 1.434 . S
C1806 C1807 1.369 . S
C1806 C1808 1.419 . S
C1806 H1810 0.930 . S
C1807 C1806 1.369 . S
C1807 C1816 1.429 . S
C1808 C1806 1.419 . S
C1808 C1809 1.363 . S
C1808 H1811 0.929 . S
C1809 C1808 1.363 . S
C1809 C1815 1.428 . S
H1810 C1806 0.930 . S
H1811 C1808 0.929 . S
S1812 N1813 1.613 . S
S1812 N1814 1.610 . S
N1813 S1812 1.613 . S
N1813 C1816 1.350 . S
N1814 S1812 1.610 . S
N1814 C1815 1.351 . S
C1815 C1809 1.428 . S
C1815 N1814 1.351 . S
C1815 C1816 1.434 . S
C1816 C1807 1.429 . S
C1816 N1813 1.350 . S
C1816 C1815 1.434 . S
C1817 C1818 1.369 . S
C1817 C1819 1.419 . S
C1817 H1821 0.930 . S
C1818 C1817 1.369 . S
C1818 C1827 1.429 . S
C1819 C1817 1.419 . S
C1819 C1820 1.363 . S
C1819 H1822 0.929 . S
C1820 C1819 1.363 . S
C1820 C1826 1.428 . S
H1821 C1817 0.930 . S
H1822 C1819 0.929 . S
S1823 N1824 1.613 . S
S1823 N1825 1.610 . S
N1824 S1823 1.613 . S
N1824 C1827 1.350 . S
N1825 S1823 1.610 . S
N1825 C1826 1.351 . S
C1826 C1820 1.428 . S
C1826 N1825 1.351 . S
C1826 C1827 1.434 . S
C1827 C1818 1.429 . S
C1827 N1824 1.350 . S
C1827 C1826 1.434 . S
C1828 C1829 1.369 . S
C1828 C1830 1.419 . S
C1828 H1832 0.930 . S
C1829 C1828 1.369 . S
C1829 C1838 1.429 . S
C1830 C1828 1.419 . S
C1830 C1831 1.363 . S
C1830 H1833 0.929 . S
C1831 C1830 1.363 . S
C1831 C1837 1.428 . S
H1832 C1828 0.930 . S
H1833 C1830 0.929 . S
S1834 N1835 1.613 . S
S1834 N1836 1.610 . S
N1835 S1834 1.613 . S
N1835 C1838 1.350 . S
N1836 S1834 1.610 . S
N1836 C1837 1.351 . S
C1837 C1831 1.428 . S
C1837 N1836 1.351 . S
C1837 C1838 1.434 . S
C1838 C1829 1.429 . S
C1838 N1835 1.350 . S
C1838 C1837 1.434 . S
C1839 C1840 1.369 . S
C1839 C1841 1.419 . S
C1839 H1843 0.930 . S
C1840 C1839 1.369 . S
C1840 C1849 1.427 1_655 S
C1841 C1839 1.419 . S
C1841 C1842 1.363 . S
C1841 H1844 0.929 . S
C1842 C1841 1.363 . S
C1842 C1848 1.428 1_655 S
H1843 C1839 0.930 . S
H1844 C1841 0.929 . S
S1845 N1846 1.613 . S
S1845 N1847 1.610 . S
N1846 S1845 1.613 . S
N1846 C1849 1.350 . S
N1847 S1845 1.610 . S
N1847 C1848 1.351 . S
C1848 C1842 1.428 1_455 S
C1848 N1847 1.351 . S
C1848 C1849 1.436 . S
C1849 C1840 1.427 1_455 S
C1849 N1846 1.350 . S
C1849 C1848 1.436 . S
C1850 C1851 1.369 . S
C1850 C1852 1.419 . S
C1850 H1854 0.930 . S
C1851 C1850 1.369 . S
C1851 C1860 1.429 . S
C1852 C1850 1.419 . S
C1852 C1853 1.363 . S
C1852 H1855 0.929 . S
C1853 C1852 1.363 . S
C1853 C1859 1.428 . S
H1854 C1850 0.930 . S
H1855 C1852 0.929 . S
S1856 N1857 1.613 . S
S1856 N1858 1.610 . S
N1857 S1856 1.613 . S
N1857 C1860 1.350 . S
N1858 S1856 1.610 . S
N1858 C1859 1.351 . S
C1859 C1853 1.428 . S
C1859 N1858 1.351 . S
C1859 C1860 1.434 . S
C1860 C1851 1.429 . S
C1860 N1857 1.350 . S
C1860 C1859 1.434 . S
C1861 C1862 1.369 . S
C1861 C1863 1.419 . S
C1861 H1865 0.930 . S
C1862 C1861 1.369 . S
C1862 C1871 1.429 . S
C1863 C1861 1.419 . S
C1863 C1864 1.363 . S
C1863 H1866 0.929 . S
C1864 C1863 1.363 . S
C1864 C1870 1.428 . S
H1865 C1861 0.930 . S
H1866 C1863 0.929 . S
S1867 N1868 1.613 . S
S1867 N1869 1.610 . S
N1868 S1867 1.613 . S
N1868 C1871 1.350 . S
N1869 S1867 1.610 . S
N1869 C1870 1.351 . S
C1870 C1864 1.428 . S
C1870 N1869 1.351 . S
C1870 C1871 1.434 . S
C1871 C1862 1.429 . S
C1871 N1868 1.350 . S
C1871 C1870 1.434 . S
C1081 C4 1.453 . S
C1083 C688 1.503 . S
C1092 C26 1.563 . S
C1094 C734 1.546 . S
C1105 C766 1.467 . S
C1103 C32 1.414 . S
C1114 C40 1.430 . S
C1116 C819 1.465 . S
C1125 C12 1.472 . S
C1127 C865 1.518 . S
C1136 C18 1.497 . S
C1138 C904 1.533 . S
C1147 C46 1.453 . S
C1149 C858 1.498 . S
C1160 C911 1.555 . S
C1158 C68 1.562 . S
C1171 C812 1.474 . S
C1169 C74 1.418 . S
C1180 C82 1.423 . S
C1182 C773 1.463 . S
C1193 C667 1.511 . S
C1191 C54 1.477 . S
C1202 C60 1.493 . S
C1204 C713 1.519 . S
C1213 C88 1.618 . S
C1215 C943 1.649 . S
C1224 C110 1.636 . S
C1226 C1010 1.600 . S
C1237 C1056 1.592 . S
C1235 C116 1.563 . S
C1246 C124 1.500 . S
C1248 C267 1.484 . S
C1257 C96 1.566 . S
C1259 C313 1.551 . S
C1268 C102 1.549 . S
C1270 C359 1.556 . S
C1279 C130 1.548 . S
C1281 C306 1.563 . S
C1290 C152 1.627 . S
C1292 C352 1.596 . S
C1303 C260 1.589 . S
C1301 C158 1.571 . S
C1314 C1035 1.552 . S
C1312 C166 1.571 . S
C1325 C964 1.545 . S
C1323 C138 1.554 . S
C1336 C989 1.587 . S
C1334 C144 1.574 . S
C1345 C172 1.551 . S
C1347 C391 1.583 . S
C1356 C194 1.625 . S
C1358 C444 1.606 . S
C1367 C200 1.567 . S
C1369 C490 1.607 . S
C1378 C208 1.561 . S
C1380 C536 1.553 . S
C1391 C589 1.542 . S
C1389 C180 1.562 . S
C1402 C635 1.583 . S
C1400 C186 1.561 . S
C1413 C582 1.639 . S
C1411 C214 1.613 . S
C1424 C628 1.601 . S
C1422 C236 1.634 . S
C1433 C242 1.549 . S
C1435 C543 1.593 . S
C1446 C497 1.491 . S
C1444 C250 1.498 . S
C1455 C222 1.571 . S
C1457 C412 1.565 . S
C1468 C451 1.578 . S
C1466 C228 1.558 . S
C1479 C274 1.620 . S
C1477 C5 1.385 . S
C1488 C25 1.588 . S
C1490 C320 1.541 . S
C1501 C366 1.649 . S
C1499 C33 1.424 . S
C1512 C398 1.536 . S
C1510 C39 1.571 . S
C1523 C437 1.574 . S
C1521 C11 1.634 . S
C1534 C483 1.504 . S
C1532 C19 1.289 . S
C1543 C47 1.400 . S
C1545 C504 1.605 . S
C1554 C67 1.586 . S
C1556 C405 1.517 . S
C1565 C75 1.449 1_556 S
C1567 C458 1.627 . S
C1576 C81 1.579 . S
C1578 C299 1.562 . S
C1589 C345 1.589 . S
C1587 C53 1.627 . S
C1598 C61 1.293 . S
C1600 C253 1.517 . S
C1611 C529 1.532 . S
C1609 C89 1.305 . S
C1620 C109 1.639 . S
C1622 C596 1.589 . S
C1631 C117 1.364 . S
C1633 C642 1.605 . S
C1644 C681 1.311 . S
C1642 C123 1.295 . S
C1653 C95 1.537 . S
C1655 C727 1.500 . S
C1664 C103 1.155 . S
C1666 C759 1.316 . S
C1675 C131 1.130 . S
C1677 C780 1.316 . S
C1686 C151 1.325 . S
C1688 C674 1.331 . S
C1699 C720 1.537 . S
C1697 C159 1.306 . S
C1708 C165 1.537 . S
C1710 C575 1.499 . S
C1719 C137 1.617 . S
C1721 C621 1.573 . S
C1732 C550 1.552 . S
C1730 C145 1.339 . S
C1743 C826 1.335 . S
C1741 C173 1.156 . S
C1752 C193 1.306 . S
C1754 C872 1.316 . S
C1763 C201 1.293 . S
C1765 C897 1.514 . S
C1776 C950 1.473 . S
C1774 C207 1.529 . S
C1787 C1003 1.581 . S
C1785 C179 1.629 . S
C1796 C187 1.339 . S
C1798 C1049 1.574 . S
C1807 C215 1.320 . S
C1809 C1042 1.567 . S
C1818 C235 1.636 . S
C1820 C957 1.567 . S
C1831 C996 1.596 . S
C1829 C243 1.367 . S
C1842 C851 1.292 . S
C1840 C249 1.272 . S
C1853 C918 1.486 . S
C1851 C221 1.540 . S
C1862 C229 1.143 . S
C1864 C805 1.325 . S
